# Generated by pormake.
# Topology snp, (6)-cn, num edge types: 1
# Building blocks:
#     Node 0, Type 0, BuildingBlock: BETGAK_clean_sbu_0, # of connection points: 6
#     Node 1, Type 0, BuildingBlock: BETGAK_clean_sbu_0, # of connection points: 6
#     Node 2, Type 0, BuildingBlock: BETGAK_clean_sbu_0, # of connection points: 6
#     Node 3, Type 0, BuildingBlock: BETGAK_clean_sbu_0, # of connection points: 6
#     Edge 4, Type (0, 0), BuildingBlock: KIFKEQ_clean_linker_1, # of connection points: 2
#     Edge 5, Type (0, 0), BuildingBlock: KIFKEQ_clean_linker_1, # of connection points: 2
#     Edge 6, Type (0, 0), BuildingBlock: KIFKEQ_clean_linker_1, # of connection points: 2
#     Edge 7, Type (0, 0), BuildingBlock: KIFKEQ_clean_linker_1, # of connection points: 2
#     Edge 8, Type (0, 0), BuildingBlock: KIFKEQ_clean_linker_1, # of connection points: 2
#     Edge 9, Type (0, 0), BuildingBlock: KIFKEQ_clean_linker_1, # of connection points: 2
#     Edge 10, Type (0, 0), BuildingBlock: KIFKEQ_clean_linker_1, # of connection points: 2
#     Edge 11, Type (0, 0), BuildingBlock: KIFKEQ_clean_linker_1, # of connection points: 2
#     Edge 12, Type (0, 0), BuildingBlock: KIFKEQ_clean_linker_1, # of connection points: 2
#     Edge 13, Type (0, 0), BuildingBlock: KIFKEQ_clean_linker_1, # of connection points: 2
#     Edge 14, Type (0, 0), BuildingBlock: KIFKEQ_clean_linker_1, # of connection points: 2
#     Edge 15, Type (0, 0), BuildingBlock: KIFKEQ_clean_linker_1, # of connection points: 2
# Relax obj value: 0.729
# Max RMSD: 0.176
# Mean RMSD: 0.176
data_MOF--net-snp--node1-BETGAK_clean_sbu_0--edge1-KIFKEQ_clean_linker_1
_symmetry_space_group_name_H-M    P1
_symmetry_Int_Tables_number       1
_symmetry_cell_setting            triclinic
loop_
_symmetry_equiv_pos_as_xyz
'x, y, z'
_cell_length_a     26.324082
_cell_length_b     25.865769
_cell_length_c     27.709484
_cell_angle_alpha  89.720206
_cell_angle_beta   90.732026
_cell_angle_gamma 89.820924
loop_
_atom_site_label
_atom_site_type_symbol
_atom_site_fract_x
_atom_site_fract_y
_atom_site_fract_z
_atom_type_partial_charge
La0 La 0.27443 0.09926 0.22362 0.0
La1 La 0.24413 0.99896 1.18529 0.0
C2 C 0.30778 0.17886 0.26515 0.0
C3 C 0.31919 0.20563 0.3103 0.0
C4 C 0.3526 0.2476 0.30824 0.0
C5 C 0.37457 0.2673 0.35031 0.0
C6 C 0.36316 0.24556 0.39542 0.0
C7 C 0.32741 0.205 0.39742 0.0
C8 C 0.306 0.18477 0.35509 0.0
C9 C 0.34847 0.04589 1.18105 0.0
C10 C 0.24025 0.00798 0.29955 0.0
C11 C 0.25026 0.90858 1.15334 0.0
C12 C 0.2831 0.8625 1.15877 0.0
C13 C 0.33507 0.86545 1.14845 0.0
C14 C 0.36178 0.82114 1.13547 0.0
C15 C 0.33707 0.77282 1.1329 0.0
C16 C 0.28837 0.76904 1.15344 0.0
C17 C 0.26106 0.81374 1.16496 0.0
C18 C 0.16781 0.06223 1.19779 0.0
C19 C 0.23293 0.09948 1.11576 0.0
O20 O 0.33398 0.13663 0.25863 0.0
O21 O 0.2607 0.17498 0.24945 0.0
O22 O 0.33475 0.09248 1.17038 0.0
O23 O 0.31607 0.02852 1.21009 0.0
O24 O 0.2525 0.05791 0.29272 0.0
O25 O 0.2386 0.97634 0.26195 0.0
O26 O 0.27131 0.94898 1.1331 0.0
O27 O 0.22043 0.92103 1.189 0.0
O28 O 0.16785 0.02653 1.16501 0.0
O29 O 0.20659 0.05735 0.22369 0.0
O30 O 0.2415 0.04847 1.11822 0.0
O31 O 0.23942 0.12801 1.15523 0.0
H32 H 0.364 0.26337 0.27373 0.0
H33 H 0.40214 0.29805 0.34712 0.0
H34 H 0.31662 0.18815 0.43162 0.0
H35 H 0.28085 0.15178 0.35717 0.0
H36 H 0.35385 0.90252 1.14526 0.0
H37 H 0.39966 0.82673 1.12186 0.0
H38 H 0.269 0.73231 1.15571 0.0
H39 H 0.22143 0.81036 1.17454 0.0
La40 La 0.97972 0.29678 0.72684 0.0
La41 La 0.07448 0.2613 0.68559 0.0
C42 C 0.89734 0.3225 0.76347 0.0
C43 C 0.85272 0.32674 0.79393 0.0
C44 C 0.80884 0.34926 0.7737 0.0
C45 C 0.76388 0.35084 0.79963 0.0
C46 C 0.76223 0.33004 0.84638 0.0
C47 C 0.80679 0.3085 0.86708 0.0
C48 C 0.85184 0.30669 0.84087 0.0
C49 C 0.03394 0.37233 0.68611 0.0
C50 C 0.06957 0.25646 0.80066 0.0
C51 C 0.16465 0.25342 0.6588 0.0
C52 C 0.21556 0.26752 0.67653 0.0
C53 C 0.25522 0.23221 0.6705 0.0
C54 C 0.30547 0.24831 0.67515 0.0
C55 C 0.31686 0.30047 0.68513 0.0
C56 C 0.27689 0.33354 0.69853 0.0
C57 C 0.22643 0.31729 0.69387 0.0
C58 C 0.00563 0.18911 0.69796 0.0
C59 C 0.97852 0.26487 0.61475 0.0
O60 O 0.94069 0.3437 0.77613 0.0
O61 O 0.90167 0.28328 0.7341 0.0
O62 O 0.98636 0.36378 0.6794 0.0
O63 O 0.0508 0.33606 0.71253 0.0
O64 O 0.0207 0.27112 0.79563 0.0
O65 O 0.09844 0.25385 0.76185 0.0
O66 O 0.13436 0.29154 0.64563 0.0
O67 O 0.14127 0.21697 0.68262 0.0
O68 O 0.03671 0.18958 0.66203 0.0
O69 O 0.01636 0.22553 0.72526 0.0
O70 O 0.02882 0.27036 0.61754 0.0
O71 O 0.95164 0.26866 0.65501 0.0
H72 H 0.80911 0.36482 0.7373 0.0
H73 H 0.73032 0.36793 0.783 0.0
H74 H 0.80633 0.29154 0.90289 0.0
H75 H 0.88543 0.2888 0.8567 0.0
H76 H 0.2475 0.19331 0.65807 0.0
H77 H 0.33478 0.22124 0.66482 0.0
H78 H 0.28434 0.37354 0.70751 0.0
H79 H 0.19615 0.34482 0.70017 0.0
La80 La 0.83361 0.01136 0.2278 0.0
La81 La 0.78229 0.098 1.18745 0.0
C82 C 0.88182 0.92836 0.24416 0.0
C83 C 0.86933 0.87663 0.26309 0.0
C84 C 0.87612 0.83305 0.23377 0.0
C85 C 0.86492 0.78354 0.25107 0.0
C86 C 0.84698 0.77668 0.29822 0.0
C87 C 0.83968 0.82066 0.32722 0.0
C88 C 0.85046 0.87003 0.3098 0.0
C89 C 0.73207 0.003 0.22126 0.0
C90 C 0.82407 0.10126 0.30222 0.0
C91 C 0.7059 0.15579 1.17609 0.0
C92 C 0.6606 0.15799 1.14485 0.0
C93 C 0.66132 0.13606 1.09884 0.0
C94 C 0.62464 0.15027 1.06456 0.0
C95 C 0.58676 0.18694 1.0758 0.0
C96 C 0.58162 0.20177 1.12435 0.0
C97 C 0.61883 0.18793 1.15853 0.0
C98 C 0.87745 0.11772 1.18443 0.0
C99 C 0.83855 0.02418 1.11473 0.0
O100 O 0.86089 0.9402 1.2027 0.0
O101 O 0.88074 0.96725 0.27411 0.0
O102 O 0.75854 0.98959 0.25877 0.0
O103 O 0.76237 0.01984 1.19082 0.0
O104 O 0.84351 0.05479 0.29515 0.0
O105 O 0.79881 0.12441 0.26533 0.0
O106 O 0.74938 0.16307 1.15458 0.0
O107 O 0.70798 0.11799 1.20755 0.0
O108 O 0.84457 0.13348 1.15211 0.0
O109 O 0.85638 0.09143 0.21761 0.0
O110 O 0.79697 0.05377 1.11892 0.0
O111 O 0.86479 0.01317 1.1545 0.0
H112 H 0.89041 0.8373 1.19747 0.0
H113 H 0.87073 0.7507 0.22768 0.0
H114 H 0.82722 0.817 0.36416 0.0
H115 H 0.84466 0.90285 0.33325 0.0
H116 H 0.69275 0.11173 1.08806 0.0
H117 H 0.63016 0.13712 1.02799 0.0
H118 H 0.55192 0.22833 1.13485 0.0
H119 H 0.61707 0.20401 1.19451 0.0
La120 La 0.08959 0.862 0.73372 0.0
La121 La 0.00247 0.82117 0.69101 0.0
C122 C 0.17674 0.89257 0.75927 0.0
C123 C 0.21529 0.86479 0.78845 0.0
C124 C 0.26732 0.87127 0.77975 0.0
C125 C 0.30339 0.84073 0.80452 0.0
C126 C 0.28765 0.80258 0.83741 0.0
C127 C 0.23553 0.79652 0.84597 0.0
C128 C 0.19984 0.82741 0.82199 0.0
C129 C 0.08645 0.75846 0.72882 0.0
C130 C -0.00163 0.86285 0.80489 0.0
C131 C 0.93842 0.75111 0.67393 0.0
C132 C 0.9359 0.7083 0.63953 0.0
C133 C 0.9662 0.70917 0.59847 0.0
C134 C 0.95855 0.67308 0.56202 0.0
C135 C 0.92047 0.63502 0.56595 0.0
C136 C 0.89366 0.63138 0.60953 0.0
C137 C 0.90112 0.66805 0.64593 0.0
C138 C 0.99104 0.91935 0.68673 0.0
C139 C 0.08182 0.87225 0.62085 0.0
O140 O 0.16683 0.87162 0.71754 0.0
O141 O 0.13507 0.90554 0.78142 0.0
O142 O 0.09655 0.78374 0.76761 0.0
O143 O 0.076 0.7908 0.69673 0.0
O144 O 0.04589 0.8775 0.79884 0.0
O145 O 0.97467 0.83899 0.7678 0.0
O146 O 0.93623 0.79748 0.65487 0.0
O147 O 0.97387 0.74734 0.70724 0.0
O148 O 0.97784 0.88784 0.65248 0.0
O149 O 0.01444 0.89565 0.72089 0.0
O150 O 0.04867 0.83333 0.6242 0.0
O151 O 0.09538 0.89622 0.66105 0.0
H152 H 0.27995 0.8995 0.75355 0.0
H153 H 0.3434 0.84656 0.79777 0.0
H154 H 0.22229 0.76856 0.87216 0.0
H155 H 0.16001 0.82177 0.82959 0.0
H156 H 0.9938 0.73963 0.59328 0.0
H157 H 0.97985 0.67814 0.52922 0.0
H158 H 0.86493 0.60205 0.61448 0.0
H159 H 0.87811 0.66635 0.67803 0.0
H160 H 0.93621 0.11698 0.26573 0.0
H161 H 0.91405 0.19673 1.12966 0.0
H162 H 0.01653 0.16006 0.27687 0.0
H163 H -0.00494 0.24038 1.14101 0.0
H164 H 0.16052 0.13632 0.26644 0.0
H165 H 0.09797 0.20631 0.2678 0.0
H166 H 0.05152 0.16701 1.12218 0.0
H167 H 0.11155 0.09669 1.1221 0.0
C168 C 0.94826 0.14444 0.23857 0.0
C169 C 0.92141 0.15032 1.19498 0.0
C170 C 0.99367 0.17069 0.24557 0.0
C171 C 0.01391 0.20037 1.20764 0.0
C172 C 0.98131 0.21563 1.16965 0.0
C173 C 0.93585 0.18923 1.16238 0.0
C174 C 0.13728 0.14367 0.23458 0.0
C175 C 0.13766 0.10946 1.19544 0.0
C176 C 0.10271 0.18459 0.23481 0.0
C177 C 0.06761 0.19001 1.19648 0.0
C178 C 0.07629 0.16264 1.15346 0.0
C179 C 0.1097 0.12116 1.15367 0.0
H180 H 0.90069 0.94007 0.64087 0.0
H181 H 0.99308 0.98322 0.76416 0.0
H182 H 0.84205 0.00987 0.65773 0.0
H183 H 0.93525 0.05337 0.78057 0.0
H184 H 0.95658 0.14304 0.62278 0.0
H185 H 0.88344 0.08726 0.62842 0.0
H186 H 0.86892 0.12404 0.77893 0.0
H187 H 0.93954 0.18447 0.77244 0.0
C188 C 0.90854 0.96452 0.67167 0.0
C189 C 0.95389 0.9594 0.69887 0.0
C190 C 0.87377 0.0033 0.68233 0.0
C191 C 0.88596 0.03982 0.71785 0.0
C192 C 0.92582 0.02798 0.75085 0.0
C193 C 0.96022 0.98873 0.74072 0.0
C194 C 0.93695 0.14025 0.6568 0.0
C195 C 0.95619 0.16386 0.69837 0.0
C196 C 0.894 0.10937 0.66008 0.0
C197 C 0.87698 0.09516 0.70633 0.0
C198 C 0.88542 0.1306 0.74381 0.0
C199 C 0.92721 0.16348 0.74065 0.0
H200 H 0.65764 0.98208 0.28832 0.0
H201 H 0.67824 0.02373 1.13907 0.0
H202 H 0.56511 0.98776 0.27677 0.0
H203 H 0.58668 0.02851 1.12705 0.0
H204 H 0.42582 0.09407 1.13461 0.0
H205 H 0.51676 0.08082 1.14463 0.0
H206 H 0.4888 0.95255 0.24104 0.0
H207 H 0.39698 0.96715 0.23184 0.0
C208 C 0.64243 0.99192 0.25294 0.0
C209 C 0.6755 0.00278 0.21475 0.0
C210 C 0.58924 0.99498 0.24614 0.0
C211 C 0.56767 0.00899 1.20094 0.0
C212 C 0.60118 0.01858 1.16265 0.0
C213 C 0.65402 0.01551 1.16946 0.0
C214 C 0.4389 0.06256 1.15752 0.0
C215 C 0.40375 0.03173 1.18237 0.0
C216 C 0.49143 0.05474 1.16321 0.0
C217 C 0.51095 0.01552 1.19381 0.0
C218 C 0.47566 0.98364 0.21771 0.0
C219 C 0.42283 0.99159 1.21202 0.0
H220 H 0.11031 0.41637 0.74226 0.0
H221 H -0.00366 0.45287 0.63414 0.0
H222 H 0.12792 0.50904 0.75204 0.0
H223 H 0.01243 0.54446 0.64458 0.0
H224 H 0.0726 0.70632 0.64488 0.0
H225 H 0.0675 0.61357 0.63198 0.0
H226 H 0.0918 0.58721 0.78467 0.0
H227 H 0.09806 0.68093 0.79713 0.0
C228 C 0.08965 0.44405 0.72001 0.0
C229 C 0.05201 0.42705 0.68727 0.0
C230 C 0.09919 0.49733 0.72605 0.0
C231 C 0.07151 0.53492 0.69936 0.0
C232 C 0.03526 0.51732 0.66544 0.0
C233 C 0.02583 0.46445 0.65947 0.0
C234 C 0.07698 0.68078 0.67575 0.0
C235 C 0.0853 0.70119 0.7221 0.0
C236 C 0.07383 0.62729 0.66841 0.0
C237 C 0.07877 0.59214 0.70725 0.0
C238 C 0.08829 0.61264 0.75365 0.0
C239 C 0.09154 0.66648 0.76096 0.0
H240 H 0.3288 0.39095 0.63512 0.0
H241 H 0.4148 0.25997 0.68867 0.0
H242 H 0.3764 0.39069 0.56253 0.0
H243 H 0.46449 0.26044 0.61519 0.0
H244 H 0.39467 0.189 0.47396 0.0
H245 H 0.42107 0.22087 0.55178 0.0
H246 H 0.42301 0.37699 0.49486 0.0
H247 H 0.39194 0.34512 0.41774 0.0
C248 C 0.36012 0.36386 0.63297 0.0
C249 C 0.36473 0.32218 0.66554 0.0
C250 C 0.38787 0.3636 0.5905 0.0
C251 C 0.42092 0.32212 0.58091 0.0
C252 C 0.43634 0.29054 0.62002 0.0
C253 C 0.40815 0.29056 0.66247 0.0
C254 C 0.40056 0.23018 0.47798 0.0
C255 C 0.38871 0.2646 0.44014 0.0
C256 C 0.41725 0.24861 0.5226 0.0
C257 C 0.42307 0.30209 0.53052 0.0
C258 C 0.41751 0.33579 0.49074 0.0
C259 C 0.39982 0.31738 0.44625 0.0
H260 H 0.74592 0.3549 0.94013 0.0
H261 H 0.66903 0.30076 0.81156 0.0
H262 H 0.67093 0.33695 0.98693 0.0
H263 H 0.5927 0.28371 0.85832 0.0
H264 H 0.55857 0.15905 0.98281 0.0
H265 H 0.58002 0.21404 0.91515 0.0
H266 H 0.58308 0.34659 1.00914 0.0
H267 H 0.5659 0.29139 1.07727 0.0
C268 C 0.71241 0.34026 0.92173 0.0
C269 C 0.71365 0.32813 0.87258 0.0
C270 C 0.66887 0.33078 0.94833 0.0
C271 C 0.62554 0.30861 0.92641 0.0
C272 C 0.62544 0.3005 0.87631 0.0
C273 C 0.66912 0.31029 0.84958 0.0
C274 C 0.56203 0.20023 0.98889 0.0
C275 C 0.56521 0.21984 1.0361 0.0
C276 C 0.57385 0.23208 0.94977 0.0
C277 C 0.5869 0.28409 0.95765 0.0
C278 C 0.57592 0.30598 1.0026 0.0
C279 C 0.56547 0.27396 1.04186 0.0
H280 H 0.97653 0.6009 0.48875 0.0
H281 H 0.82277 0.60539 0.5411 0.0
H282 H 0.94496 0.60442 0.40716 0.0
H283 H 0.79074 0.60142 0.4593 0.0
H284 H 0.77372 0.7441 0.36044 0.0
H285 H 0.78076 0.67241 0.41523 0.0
H286 H 0.90864 0.61349 0.33506 0.0
H287 H 0.90445 0.68911 0.28321 0.0
C288 C 0.93578 0.60058 0.48287 0.0
C289 C 0.90249 0.60795 0.52148 0.0
C290 C 0.91724 0.60181 0.43548 0.0
C291 C 0.86481 0.60853 0.42613 0.0
C292 C 0.83149 0.60117 0.46495 0.0
C293 C 0.85007 0.60232 0.5124 0.0
C294 C 0.80322 0.71567 0.35433 0.0
C295 C 0.84044 0.7242 0.31943 0.0
C296 C 0.80689 0.67336 0.3855 0.0
C297 C 0.8476 0.63795 0.38204 0.0
C298 C 0.87877 0.64143 0.34114 0.0
C299 C 0.8759 0.68468 0.31068 0.0
H300 H 0.36897 0.83873 0.88845 0.0
H301 H 0.28861 0.6983 0.85409 0.0
H302 H 0.40729 0.7969 0.95843 0.0
H303 H 0.32776 0.6556 0.92403 0.0
H304 H 0.27984 0.70012 1.08317 0.0
H305 H 0.29459 0.67899 1.00115 0.0
H306 H 0.44866 0.73432 1.01371 0.0
H307 H 0.43497 0.75322 1.09852 0.0
C308 C 0.36157 0.79804 0.89447 0.0
C309 C 0.32451 0.77228 0.86699 0.0
C310 C 0.38385 0.77369 0.93461 0.0
C311 C 0.36922 0.72325 0.9479 0.0
C312 C 0.33877 0.69489 0.91552 0.0
C313 C 0.3162 0.71938 0.87558 0.0
C314 C 0.31799 0.70567 1.07022 0.0
C315 C 0.35463 0.73367 1.09682 0.0
C316 C 0.32656 0.6931 1.02218 0.0
C317 C 0.37175 0.70843 0.99984 0.0
C318 C 0.41242 0.72458 1.02938 0.0
C319 C 0.40415 0.73611 1.07799 0.0
H320 H 0.92547 0.96782 1.1005 0.0
H321 H 0.79732 0.02714 1.01911 0.0
H322 H 0.95889 0.92835 1.02876 0.0
H323 H 0.832 0.98761 0.94537 0.0
H324 H 0.89345 0.87271 0.82471 0.0
H325 H 0.85305 0.91186 0.89577 0.0
H326 H 0.00128 0.94094 0.95761 0.0
H327 H 0.04067 0.90155 0.88827 0.0
C328 C 0.90417 0.97313 1.06715 0.0
C329 C 0.85822 0.00179 1.06693 0.0
C330 C 0.92397 0.95026 1.02506 0.0
C331 C 0.89928 0.95441 0.97957 0.0
C332 C 0.8528 0.9827 0.97902 0.0
C333 C 0.83282 0.006 1.02167 0.0
C334 C 0.91744 0.88665 0.85385 0.0
C335 C 0.97094 0.88257 0.85003 0.0
C336 C 0.89409 0.90997 0.89481 0.0
C337 C 0.92311 0.92997 0.93408 0.0
C338 C 0.9765 0.92559 0.92976 0.0
C339 C -0.00044 0.90275 0.88913 0.0
H340 H 0.22263 0.06102 0.3858 0.0
H341 H 0.21026 0.90885 0.32446 0.0
H342 H 0.18404 0.02927 0.4602 0.0
H343 H 0.17279 0.87677 0.39871 0.0
H344 H 0.14955 0.95171 0.6059 0.0
H345 H 0.18771 0.983 0.532 0.0
H346 H 0.10399 0.86896 0.45072 0.0
H347 H 0.06638 0.83676 0.52574 0.0
C348 C 0.21244 0.02057 0.38813 0.0
C349 C 0.22046 0.98798 0.34812 0.0
C350 C 0.19004 0.00194 0.43139 0.0
C351 C 0.17432 0.94972 0.43695 0.0
C352 C 0.18294 0.91722 0.3969 0.0
C353 C 0.20532 0.9358 0.35382 0.0
C354 C 0.13887 0.93298 0.57243 0.0
C355 C 0.10421 0.89118 0.57296 0.0
C356 C 0.1609 0.95151 0.52925 0.0
C357 C 0.14969 0.92938 0.48379 0.0
C358 C 0.11488 0.8874 0.48423 0.0
C359 C 0.09268 0.8688 0.5277 0.0
H360 H 0.15804 0.20094 0.81505 0.0
H361 H 0.03411 0.26375 0.89648 0.0
H362 H 0.19557 0.16482 0.88855 0.0
H363 H 0.07277 0.22795 0.97116 0.0
H364 H 0.18701 0.19589 1.10265 0.0
H365 H 0.14647 0.23332 1.03023 0.0
H366 H 0.1859 0.09708 0.94998 0.0
H367 H 0.22533 0.05921 1.02265 0.0
C368 C 0.13853 0.20757 0.84864 0.0
C369 C 0.09242 0.23606 0.8486 0.0
C370 C 0.1603 0.18616 0.89137 0.0
C371 C 0.13784 0.19265 0.93699 0.0
C372 C 0.09201 0.22185 0.93736 0.0
C373 C 0.0695 0.24252 0.89412 0.0
C374 C 0.18746 0.17374 1.0696 0.0
C375 C 0.21045 0.1241 1.06948 0.0
C376 C 0.1635 0.1953 1.0277 0.0
C377 C 0.16231 0.16891 0.98305 0.0
C378 C 0.18589 0.11952 0.98285 0.0
C379 C 0.2088 0.09748 1.02502 0.0
H380 H 0.85994 0.20206 0.31331 0.0
H381 H 0.82874 0.06497 0.39618 0.0
H382 H 0.89637 0.24323 0.38601 0.0
H383 H 0.86286 0.10675 0.46909 0.0
H384 H 0.88258 0.22229 0.60049 0.0
H385 H 0.84441 0.18519 0.52734 0.0
H386 H 0.97601 0.22924 0.44646 0.0
H387 H 0.01555 0.26413 0.5204 0.0
C388 C 0.8595 0.18099 0.34717 0.0
C389 C 0.84002 0.13007 0.34824 0.0
C390 C 0.8811 0.20455 0.38911 0.0
C391 C 0.88291 0.17889 0.43445 0.0
C392 C 0.86221 0.12848 0.43558 0.0
C393 C 0.84226 0.10436 0.39342 0.0
C394 C 0.90371 0.22442 0.56728 0.0
C395 C 0.95283 0.24667 0.56754 0.0
C396 C 0.8816 0.2027 0.5249 0.0
C397 C 0.90657 0.20369 0.47998 0.0
C398 C 0.95495 0.22755 0.47974 0.0
C399 C 0.97783 0.24778 0.52257 0.0
loop_
_geom_bond_atom_site_label_1
_geom_bond_atom_site_label_2
_geom_bond_distance
_geom_bond_site_symmetry_2
_ccdc_geom_bond_type
La0 C2 2.928 . S
La0 O20 2.521 . S
La0 O21 2.628 . S
La0 O22 2.554 . S
La0 O23 2.757 1_554 S
La0 O24 2.470 . S
La0 O29 2.482 . S
La0 O31 2.503 1_554 S
La1 C11 2.928 1_545 S
La1 O23 2.482 . S
La1 O25 2.503 1_556 S
La1 O26 2.521 1_545 S
La1 O27 2.628 . S
La1 O28 2.554 . S
La1 O29 2.757 1_556 S
La1 O30 2.470 . S
C2 La0 2.928 . S
C2 C3 1.503 . S
C2 O20 1.261 . S
C2 O21 1.243 . S
C3 C2 1.503 . S
C3 C4 1.394 . S
C3 C8 1.373 . S
C4 C3 1.394 . S
C4 C5 1.380 . S
C4 H32 0.930 . S
C5 C4 1.380 . S
C5 C6 1.376 . S
C5 H33 0.930 . S
C6 C5 1.376 . S
C6 C7 1.370 . S
C7 C6 1.370 . S
C7 C8 1.396 . S
C7 H34 0.929 . S
C8 C3 1.373 . S
C8 C7 1.396 . S
C8 H35 0.929 . S
C9 O22 1.240 . S
C9 O23 1.289 1_554 S
C10 O24 1.258 . S
C10 O25 1.256 . S
C11 La1 2.928 1_565 S
C11 C12 1.503 . S
C11 O26 1.261 . S
C11 O27 1.243 1_565 S
C12 C11 1.503 . S
C12 C13 1.394 . S
C12 C17 1.373 . S
C13 C12 1.394 . S
C13 C14 1.380 . S
C13 H36 0.930 . S
C14 C13 1.380 . S
C14 C15 1.376 . S
C14 H37 0.930 . S
C15 C14 1.376 . S
C15 C16 1.370 . S
C16 C15 1.370 . S
C16 C17 1.396 . S
C16 H38 0.929 . S
C17 C12 1.373 . S
C17 C16 1.396 . S
C17 H39 0.929 . S
C18 O28 1.237 1_554 S
C18 O29 1.292 . S
C19 O30 1.258 . S
C19 O31 1.256 . S
O20 La0 2.521 . S
O20 C2 1.261 . S
O21 La0 2.628 . S
O21 C2 1.243 . S
O22 La0 2.554 . S
O22 C9 1.240 . S
O23 La0 2.757 1_556 S
O23 La1 2.482 . S
O23 C9 1.289 1_556 S
O24 La0 2.470 . S
O24 C10 1.258 . S
O25 La1 2.503 1_554 S
O25 C10 1.256 . S
O26 La1 2.521 1_565 S
O26 C11 1.261 . S
O27 La1 2.628 . S
O27 C11 1.243 1_545 S
O28 La1 2.554 . S
O28 C18 1.237 1_556 S
O29 La0 2.482 . S
O29 La1 2.757 1_554 S
O29 C18 1.292 . S
O30 La1 2.470 . S
O30 C19 1.258 . S
O31 La0 2.503 1_556 S
O31 C19 1.256 . S
H32 C4 0.930 . S
H33 C5 0.930 . S
H34 C7 0.929 . S
H35 C8 0.929 . S
H36 C13 0.930 . S
H37 C14 0.930 . S
H38 C16 0.929 . S
H39 C17 0.929 . S
La40 C42 2.928 . S
La40 O60 2.521 . S
La40 O61 2.628 . S
La40 O62 2.554 . S
La40 O63 2.757 1_655 S
La40 O64 2.470 1_655 S
La40 O69 2.482 . S
La40 O71 2.503 . S
La41 C51 2.928 . S
La41 O63 2.482 . S
La41 O65 2.503 . S
La41 O66 2.521 . S
La41 O67 2.628 . S
La41 O68 2.554 . S
La41 O69 2.757 1_455 S
La41 O70 2.470 1_455 S
C42 La40 2.928 . S
C42 C43 1.503 . S
C42 O60 1.261 . S
C42 O61 1.243 . S
C43 C42 1.503 . S
C43 C44 1.394 . S
C43 C48 1.373 . S
C44 C43 1.394 . S
C44 C45 1.380 . S
C44 H72 0.930 . S
C45 C44 1.380 . S
C45 C46 1.376 . S
C45 H73 0.930 . S
C46 C45 1.376 . S
C46 C47 1.370 . S
C47 C46 1.370 . S
C47 C48 1.396 . S
C47 H74 0.929 . S
C48 C43 1.373 . S
C48 C47 1.396 . S
C48 H75 0.929 . S
C49 O62 1.240 . S
C49 O63 1.289 1_655 S
C50 O64 1.258 . S
C50 O65 1.256 . S
C51 La41 2.928 . S
C51 C52 1.503 . S
C51 O66 1.261 . S
C51 O67 1.243 . S
C52 C51 1.503 . S
C52 C53 1.394 . S
C52 C57 1.373 . S
C53 C52 1.394 . S
C53 C54 1.380 . S
C53 H76 0.930 . S
C54 C53 1.380 . S
C54 C55 1.376 . S
C54 H77 0.930 . S
C55 C54 1.376 . S
C55 C56 1.370 . S
C56 C55 1.370 . S
C56 C57 1.396 . S
C56 H78 0.929 . S
C57 C52 1.373 . S
C57 C56 1.396 . S
C57 H79 0.929 . S
C58 O68 1.240 . S
C58 O69 1.289 1_455 S
C59 O70 1.258 . S
C59 O71 1.256 . S
O60 La40 2.521 . S
O60 C42 1.261 . S
O61 La40 2.628 . S
O61 C42 1.243 . S
O62 La40 2.554 . S
O62 C49 1.240 . S
O63 La40 2.757 1_455 S
O63 La41 2.482 . S
O63 C49 1.289 1_455 S
O64 La40 2.470 1_455 S
O64 C50 1.258 . S
O65 La41 2.503 . S
O65 C50 1.256 . S
O66 La41 2.521 . S
O66 C51 1.261 . S
O67 La41 2.628 . S
O67 C51 1.243 . S
O68 La41 2.554 . S
O68 C58 1.240 . S
O69 La40 2.482 . S
O69 La41 2.757 1_655 S
O69 C58 1.289 1_655 S
O70 La41 2.470 1_655 S
O70 C59 1.258 . S
O71 La40 2.503 . S
O71 C59 1.256 . S
H72 C44 0.930 . S
H73 C45 0.930 . S
H74 C47 0.929 . S
H75 C48 0.929 . S
H76 C53 0.930 . S
H77 C54 0.930 . S
H78 C56 0.929 . S
H79 C57 0.929 . S
La80 C82 2.928 . S
La80 O100 2.521 . S
La80 O101 2.628 . S
La80 O102 2.554 . S
La80 O103 2.757 1_564 S
La80 O104 2.470 1_565 S
La80 O109 2.482 . S
La80 O111 2.503 1_554 S
La81 C91 2.928 . S
La81 O103 2.482 . S
La81 O105 2.503 1_556 S
La81 O106 2.521 . S
La81 O107 2.628 . S
La81 O108 2.554 . S
La81 O109 2.757 1_546 S
La81 O110 2.470 1_545 S
C82 La80 2.928 . S
C82 C83 1.503 . S
C82 O100 1.261 . S
C82 O101 1.243 . S
C83 C82 1.503 . S
C83 C84 1.394 . S
C83 C88 1.373 . S
C84 C83 1.394 . S
C84 C85 1.380 . S
C84 H112 0.930 . S
C85 C84 1.380 . S
C85 C86 1.376 . S
C85 H113 0.930 . S
C86 C85 1.376 . S
C86 C87 1.370 . S
C87 C86 1.370 . S
C87 C88 1.396 . S
C87 H114 0.929 . S
C88 C83 1.373 . S
C88 C87 1.396 . S
C88 H115 0.929 . S
C89 O102 1.240 . S
C89 O103 1.289 1_564 S
C90 O104 1.258 . S
C90 O105 1.256 . S
C91 La81 2.928 . S
C91 C92 1.503 . S
C91 O106 1.261 . S
C91 O107 1.243 . S
C92 C91 1.503 . S
C92 C93 1.394 . S
C92 C97 1.373 . S
C93 C92 1.394 . S
C93 C94 1.380 . S
C93 H116 0.930 . S
C94 C93 1.380 . S
C94 C95 1.376 . S
C94 H117 0.930 . S
C95 C94 1.376 . S
C95 C96 1.370 . S
C96 C95 1.370 . S
C96 C97 1.396 . S
C96 H118 0.929 . S
C97 C92 1.373 . S
C97 C96 1.396 . S
C97 H119 0.929 . S
C98 O108 1.237 1_554 S
C98 O109 1.292 1_545 S
C99 O110 1.258 . S
C99 O111 1.256 . S
O100 La80 2.521 . S
O100 C82 1.261 . S
O101 La80 2.628 . S
O101 C82 1.243 . S
O102 La80 2.554 . S
O102 C89 1.240 . S
O103 La80 2.757 1_546 S
O103 La81 2.482 . S
O103 C89 1.289 1_546 S
O104 La80 2.470 1_545 S
O104 C90 1.258 . S
O105 La81 2.503 1_554 S
O105 C90 1.256 . S
O106 La81 2.521 . S
O106 C91 1.261 . S
O107 La81 2.628 . S
O107 C91 1.243 . S
O108 La81 2.554 . S
O108 C98 1.237 1_556 S
O109 La80 2.482 . S
O109 La81 2.757 1_564 S
O109 C98 1.292 1_565 S
O110 La81 2.470 1_565 S
O110 C99 1.258 . S
O111 La80 2.503 1_556 S
O111 C99 1.256 . S
H112 C84 0.930 . S
H113 C85 0.930 . S
H114 C87 0.929 . S
H115 C88 0.929 . S
H116 C93 0.930 . S
H117 C94 0.930 . S
H118 C96 0.929 . S
H119 C97 0.929 . S
La120 C122 2.928 . S
La120 O140 2.521 . S
La120 O141 2.628 . S
La120 O142 2.554 . S
La120 O143 2.757 . S
La120 O144 2.470 . S
La120 O149 2.482 . S
La120 O151 2.503 . S
La121 C131 2.928 1_455 S
La121 O143 2.482 . S
La121 O145 2.503 . S
La121 O146 2.521 1_455 S
La121 O147 2.628 . S
La121 O148 2.554 . S
La121 O149 2.757 . S
La121 O150 2.470 . S
C122 La120 2.928 . S
C122 C123 1.503 . S
C122 O140 1.261 . S
C122 O141 1.243 . S
C123 C122 1.503 . S
C123 C124 1.394 . S
C123 C128 1.373 . S
C124 C123 1.394 . S
C124 C125 1.380 . S
C124 H152 0.930 . S
C125 C124 1.380 . S
C125 C126 1.376 . S
C125 H153 0.930 . S
C126 C125 1.376 . S
C126 C127 1.370 . S
C127 C126 1.370 . S
C127 C128 1.396 . S
C127 H154 0.929 . S
C128 C123 1.373 . S
C128 C127 1.396 . S
C128 H155 0.929 . S
C129 O142 1.240 . S
C129 O143 1.289 . S
C130 O144 1.258 . S
C130 O145 1.256 . S
C131 La121 2.928 1_655 S
C131 C132 1.503 . S
C131 O146 1.261 . S
C131 O147 1.243 1_655 S
C132 C131 1.503 . S
C132 C133 1.394 . S
C132 C137 1.373 . S
C133 C132 1.394 . S
C133 C134 1.380 . S
C133 H156 0.930 . S
C134 C133 1.380 . S
C134 C135 1.376 . S
C134 H157 0.930 . S
C135 C134 1.376 . S
C135 C136 1.370 . S
C136 C135 1.370 . S
C136 C137 1.396 . S
C136 H158 0.929 . S
C137 C132 1.373 . S
C137 C136 1.396 . S
C137 H159 0.929 . S
C138 O148 1.240 . S
C138 O149 1.289 . S
C139 O150 1.258 . S
C139 O151 1.256 . S
O140 La120 2.521 . S
O140 C122 1.261 . S
O141 La120 2.628 . S
O141 C122 1.243 . S
O142 La120 2.554 . S
O142 C129 1.240 . S
O143 La120 2.757 . S
O143 La121 2.482 . S
O143 C129 1.289 . S
O144 La120 2.470 . S
O144 C130 1.258 . S
O145 La121 2.503 . S
O145 C130 1.256 . S
O146 La121 2.521 1_655 S
O146 C131 1.261 . S
O147 La121 2.628 . S
O147 C131 1.243 1_455 S
O148 La121 2.554 . S
O148 C138 1.240 . S
O149 La120 2.482 . S
O149 La121 2.757 . S
O149 C138 1.289 . S
O150 La121 2.470 . S
O150 C139 1.258 . S
O151 La120 2.503 . S
O151 C139 1.256 . S
H152 C124 0.930 . S
H153 C125 0.930 . S
H154 C127 0.929 . S
H155 C128 0.929 . S
H156 C133 0.930 . S
H157 C134 0.930 . S
H158 C136 0.929 . S
H159 C137 0.929 . S
H160 C168 0.950 . S
H161 C173 0.950 . S
H162 C170 0.950 . S
H163 C172 0.950 . S
H164 C174 0.950 . S
H165 C176 0.950 1_565 S
H166 C178 0.950 . S
H167 C179 0.950 . S
C168 H160 0.950 . S
C168 C169 1.389 1_556 S
C168 C170 1.391 . S
C169 C168 1.389 1_554 S
C169 C173 1.390 1_545 S
C170 H162 0.950 . S
C170 C168 1.391 . S
C170 C171 1.400 1_656 S
C171 C170 1.400 1_454 S
C171 C172 1.398 1_545 S
C171 C177 1.491 . S
C172 H163 0.950 . S
C172 C171 1.398 1_565 S
C172 C173 1.391 1_455 S
C173 H161 0.950 . S
C173 C169 1.390 1_565 S
C173 C172 1.391 1_655 S
C174 H164 0.950 . S
C174 C175 1.386 . S
C174 C176 1.391 . S
C175 C174 1.386 . S
C175 C179 1.393 1_554 S
C176 H165 0.950 1_545 S
C176 C174 1.391 . S
C176 C177 1.400 . S
C177 C171 1.491 . S
C177 C176 1.400 . S
C177 C178 1.398 1_554 S
C178 H166 0.950 . S
C178 C177 1.398 1_556 S
C178 C179 1.391 . S
C179 H167 0.950 . S
C179 C175 1.393 1_556 S
C179 C178 1.391 . S
H180 C188 0.950 . S
H181 C193 0.950 . S
H182 C190 0.950 . S
H183 C192 0.950 1_655 S
H184 C194 0.950 . S
H185 C196 0.950 . S
H186 C198 0.950 . S
H187 C199 0.950 . S
C188 H180 0.950 . S
C188 C189 1.386 . S
C188 C190 1.391 1_565 S
C189 C188 1.386 . S
C189 C193 1.393 . S
C190 H182 0.950 . S
C190 C188 1.391 1_545 S
C190 C191 1.400 . S
C191 C190 1.400 . S
C191 C192 1.398 1_545 S
C191 C197 1.491 . S
C192 H183 0.950 1_455 S
C192 C191 1.398 1_565 S
C192 C193 1.391 . S
C193 H181 0.950 . S
C193 C189 1.393 . S
C193 C192 1.391 . S
C194 H184 0.950 . S
C194 C195 1.381 1_655 S
C194 C196 1.391 . S
C195 C194 1.381 1_455 S
C195 C199 1.400 . S
C196 H185 0.950 . S
C196 C194 1.391 . S
C196 C197 1.400 1_655 S
C197 C191 1.491 . S
C197 C196 1.400 1_455 S
C197 C198 1.398 . S
C198 H186 0.950 . S
C198 C197 1.398 . S
C198 C199 1.391 . S
C199 H187 0.950 . S
C199 C195 1.400 . S
C199 C198 1.391 . S
H200 C208 0.950 . S
H201 C213 0.950 . S
H202 C210 0.950 . S
H203 C212 0.950 . S
H204 C214 0.950 . S
H205 C216 0.950 . S
H206 C218 0.950 1_565 S
H207 C219 0.950 . S
C208 H200 0.950 . S
C208 C209 1.386 1_554 S
C208 C210 1.391 . S
C209 C208 1.386 1_556 S
C209 C213 1.393 1_565 S
C210 H202 0.950 . S
C210 C208 1.391 . S
C210 C211 1.400 1_564 S
C211 C210 1.400 1_546 S
C211 C212 1.398 . S
C211 C217 1.491 . S
C212 H203 0.950 . S
C212 C211 1.398 . S
C212 C213 1.391 . S
C213 H201 0.950 . S
C213 C209 1.393 1_545 S
C213 C212 1.391 . S
C214 H204 0.950 . S
C214 C215 1.386 . S
C214 C216 1.391 . S
C215 C214 1.386 . S
C215 C219 1.393 1_556 S
C216 H205 0.950 . S
C216 C214 1.391 . S
C216 C217 1.400 . S
C217 C211 1.491 . S
C217 C216 1.400 . S
C217 C218 1.398 1_556 S
C218 H206 0.950 1_545 S
C218 C217 1.398 1_554 S
C218 C219 1.391 . S
C219 H207 0.950 . S
C219 C215 1.393 1_554 S
C219 C218 1.391 . S
H220 C228 0.950 . S
H221 C233 0.950 . S
H222 C230 0.950 . S
H223 C232 0.951 . S
H224 C234 0.950 . S
H225 C236 0.950 . S
H226 C238 0.950 . S
H227 C239 0.950 . S
C228 H220 0.950 . S
C228 C229 1.386 1_455 S
C228 C230 1.391 . S
C229 C228 1.386 1_655 S
C229 C233 1.393 . S
C230 H222 0.950 . S
C230 C228 1.391 . S
C230 C231 1.400 . S
C231 C230 1.400 . S
C231 C232 1.397 1_455 S
C231 C237 1.491 . S
C232 H223 0.951 . S
C232 C231 1.397 1_655 S
C232 C233 1.391 . S
C233 H221 0.950 . S
C233 C229 1.393 . S
C233 C232 1.391 . S
C234 H224 0.950 . S
C234 C235 1.386 . S
C234 C236 1.391 . S
C235 C234 1.386 . S
C235 C239 1.393 . S
C236 H225 0.950 . S
C236 C234 1.391 . S
C236 C237 1.400 . S
C237 C231 1.491 . S
C237 C236 1.400 . S
C237 C238 1.398 . S
C238 H226 0.950 . S
C238 C237 1.398 . S
C238 C239 1.391 . S
C239 H227 0.950 . S
C239 C235 1.393 . S
C239 C238 1.391 . S
H240 C248 0.950 . S
H241 C253 0.950 . S
H242 C250 0.950 . S
H243 C252 0.950 . S
H244 C254 0.950 . S
H245 C256 0.950 . S
H246 C258 0.950 . S
H247 C259 0.950 . S
C248 H240 0.950 . S
C248 C249 1.386 . S
C248 C250 1.391 . S
C249 C248 1.386 . S
C249 C253 1.393 . S
C250 H242 0.950 . S
C250 C248 1.391 . S
C250 C251 1.400 . S
C251 C250 1.400 . S
C251 C252 1.398 . S
C251 C257 1.491 . S
C252 H243 0.950 . S
C252 C251 1.398 . S
C252 C253 1.391 . S
C253 H241 0.950 . S
C253 C249 1.393 . S
C253 C252 1.391 . S
C254 H244 0.950 . S
C254 C255 1.386 . S
C254 C256 1.391 . S
C255 C254 1.386 . S
C255 C259 1.393 . S
C256 H245 0.950 . S
C256 C254 1.391 . S
C256 C257 1.400 . S
C257 C251 1.491 . S
C257 C256 1.400 . S
C257 C258 1.398 . S
C258 H246 0.950 . S
C258 C257 1.398 . S
C258 C259 1.391 . S
C259 H247 0.950 . S
C259 C255 1.393 . S
C259 C258 1.391 . S
H260 C268 0.950 . S
H261 C273 0.950 . S
H262 C270 0.950 . S
H263 C272 0.950 . S
H264 C274 0.950 . S
H265 C276 0.950 . S
H266 C278 0.950 . S
H267 C279 0.950 . S
C268 H260 0.950 . S
C268 C269 1.386 . S
C268 C270 1.391 . S
C269 C268 1.386 . S
C269 C273 1.393 . S
C270 H262 0.950 . S
C270 C268 1.391 . S
C270 C271 1.400 . S
C271 C270 1.400 . S
C271 C272 1.398 . S
C271 C277 1.491 . S
C272 H263 0.950 . S
C272 C271 1.398 . S
C272 C273 1.391 . S
C273 H261 0.950 . S
C273 C269 1.393 . S
C273 C272 1.391 . S
C274 H264 0.950 . S
C274 C275 1.386 . S
C274 C276 1.391 . S
C275 C274 1.386 . S
C275 C279 1.393 . S
C276 H265 0.950 . S
C276 C274 1.391 . S
C276 C277 1.400 . S
C277 C271 1.491 . S
C277 C276 1.400 . S
C277 C278 1.398 . S
C278 H266 0.950 . S
C278 C277 1.398 . S
C278 C279 1.391 . S
C279 H267 0.950 . S
C279 C275 1.393 . S
C279 C278 1.391 . S
H280 C288 0.950 1_455 S
H281 C293 0.950 . S
H282 C290 0.950 . S
H283 C292 0.950 . S
H284 C294 0.950 . S
H285 C296 0.950 . S
H286 C298 0.950 . S
H287 C299 0.950 . S
C288 H280 0.950 1_655 S
C288 C289 1.386 . S
C288 C290 1.391 . S
C289 C288 1.386 . S
C289 C293 1.393 . S
C290 H282 0.950 . S
C290 C288 1.391 . S
C290 C291 1.400 . S
C291 C290 1.400 . S
C291 C292 1.398 . S
C291 C297 1.491 . S
C292 H283 0.950 . S
C292 C291 1.398 . S
C292 C293 1.391 . S
C293 H281 0.950 . S
C293 C289 1.393 . S
C293 C292 1.391 . S
C294 H284 0.950 . S
C294 C295 1.386 . S
C294 C296 1.391 . S
C295 C294 1.386 . S
C295 C299 1.393 . S
C296 H285 0.950 . S
C296 C294 1.391 . S
C296 C297 1.400 . S
C297 C291 1.491 . S
C297 C296 1.400 . S
C297 C298 1.398 . S
C298 H286 0.950 . S
C298 C297 1.398 . S
C298 C299 1.391 . S
C299 H287 0.950 . S
C299 C295 1.393 . S
C299 C298 1.391 . S
H300 C308 0.950 . S
H301 C313 0.950 . S
H302 C310 0.950 . S
H303 C312 0.950 . S
H304 C314 0.950 . S
H305 C316 0.950 . S
H306 C318 0.950 . S
H307 C319 0.937 1_545 S
C308 H300 0.950 . S
C308 C309 1.386 . S
C308 C310 1.391 . S
C309 C308 1.386 . S
C309 C313 1.393 . S
C310 H302 0.950 . S
C310 C308 1.391 . S
C310 C311 1.400 . S
C311 C310 1.400 . S
C311 C312 1.398 . S
C311 C317 1.491 . S
C312 H303 0.950 . S
C312 C311 1.398 . S
C312 C313 1.391 . S
C313 H301 0.950 . S
C313 C309 1.393 . S
C313 C312 1.391 . S
C314 H304 0.950 . S
C314 C315 1.386 . S
C314 C316 1.391 . S
C315 C314 1.386 . S
C315 C319 1.393 . S
C316 H305 0.950 . S
C316 C314 1.391 . S
C316 C317 1.400 . S
C317 C311 1.491 . S
C317 C316 1.400 . S
C317 C318 1.398 . S
C318 H306 0.950 . S
C318 C317 1.398 . S
C318 C319 1.391 . S
C319 H307 0.937 1_565 S
C319 C315 1.393 . S
C319 C318 1.391 . S
H320 C328 0.950 . S
H321 C333 0.950 . S
H322 C330 0.950 . S
H323 C332 0.950 . S
H324 C334 0.950 . S
H325 C336 0.950 . S
H326 C338 0.950 . S
H327 C339 0.950 . S
C328 H320 0.950 . S
C328 C329 1.386 . S
C328 C330 1.391 . S
C329 C328 1.386 . S
C329 C333 1.393 . S
C330 H322 0.950 . S
C330 C328 1.391 . S
C330 C331 1.400 . S
C331 C330 1.400 . S
C331 C332 1.398 . S
C331 C337 1.491 . S
C332 H323 0.950 . S
C332 C331 1.398 . S
C332 C333 1.391 . S
C333 H321 0.950 . S
C333 C329 1.393 . S
C333 C332 1.391 . S
C334 H324 0.950 . S
C334 C335 1.386 . S
C334 C336 1.391 . S
C335 C334 1.386 . S
C335 C339 1.393 . S
C336 H325 0.950 . S
C336 C334 1.391 . S
C336 C337 1.400 . S
C337 C331 1.491 . S
C337 C336 1.400 . S
C337 C338 1.398 . S
C338 H326 0.950 . S
C338 C337 1.398 . S
C338 C339 1.391 . S
C339 H327 0.950 . S
C339 C335 1.393 . S
C339 C338 1.391 . S
H340 C348 0.950 1_545 S
H341 C353 0.950 . S
H342 C350 0.950 . S
H343 C352 0.950 . S
H344 C354 0.950 . S
H345 C356 0.950 . S
H346 C358 0.950 . S
H347 C359 0.950 . S
C348 H340 0.950 1_565 S
C348 C349 1.386 . S
C348 C350 1.391 . S
C349 C348 1.386 . S
C349 C353 1.393 . S
C350 H342 0.950 . S
C350 C348 1.391 . S
C350 C351 1.400 . S
C351 C350 1.400 . S
C351 C352 1.398 . S
C351 C357 1.491 . S
C352 H343 0.950 . S
C352 C351 1.398 . S
C352 C353 1.391 . S
C353 H341 0.950 . S
C353 C349 1.393 . S
C353 C352 1.391 . S
C354 H344 0.950 . S
C354 C355 1.386 . S
C354 C356 1.391 . S
C355 C354 1.386 . S
C355 C359 1.393 . S
C356 H345 0.950 . S
C356 C354 1.391 . S
C356 C357 1.400 . S
C357 C351 1.491 . S
C357 C356 1.400 . S
C357 C358 1.398 . S
C358 H346 0.950 . S
C358 C357 1.398 . S
C358 C359 1.391 . S
C359 H347 0.950 . S
C359 C355 1.393 . S
C359 C358 1.391 . S
H360 C368 0.950 . S
H361 C373 0.950 . S
H362 C370 0.950 . S
H363 C372 0.950 . S
H364 C374 0.950 . S
H365 C376 0.950 . S
H366 C378 0.950 . S
H367 C379 0.950 . S
C368 H360 0.950 . S
C368 C369 1.386 . S
C368 C370 1.391 . S
C369 C368 1.386 . S
C369 C373 1.393 . S
C370 H362 0.950 . S
C370 C368 1.391 . S
C370 C371 1.400 . S
C371 C370 1.400 . S
C371 C372 1.398 . S
C371 C377 1.491 . S
C372 H363 0.950 . S
C372 C371 1.398 . S
C372 C373 1.391 . S
C373 H361 0.950 . S
C373 C369 1.393 . S
C373 C372 1.391 . S
C374 H364 0.950 . S
C374 C375 1.386 . S
C374 C376 1.391 . S
C375 C374 1.386 . S
C375 C379 1.393 . S
C376 H365 0.950 . S
C376 C374 1.391 . S
C376 C377 1.400 . S
C377 C371 1.491 . S
C377 C376 1.400 . S
C377 C378 1.398 . S
C378 H366 0.950 . S
C378 C377 1.398 . S
C378 C379 1.391 . S
C379 H367 0.950 . S
C379 C375 1.393 . S
C379 C378 1.391 . S
H380 C388 0.950 . S
H381 C393 0.950 . S
H382 C390 0.950 . S
H383 C392 0.950 . S
H384 C394 0.950 . S
H385 C396 0.950 . S
H386 C398 0.950 . S
H387 C399 0.950 . S
C388 H380 0.950 . S
C388 C389 1.386 . S
C388 C390 1.391 . S
C389 C388 1.386 . S
C389 C393 1.393 . S
C390 H382 0.950 . S
C390 C388 1.391 . S
C390 C391 1.400 . S
C391 C390 1.400 . S
C391 C392 1.398 . S
C391 C397 1.491 . S
C392 H383 0.950 . S
C392 C391 1.398 . S
C392 C393 1.391 . S
C393 H381 0.950 . S
C393 C389 1.393 . S
C393 C392 1.391 . S
C394 H384 0.950 . S
C394 C395 1.386 . S
C394 C396 1.391 . S
C395 C394 1.386 . S
C395 C399 1.393 . S
C396 H385 0.950 . S
C396 C394 1.391 . S
C396 C397 1.400 . S
C397 C391 1.491 . S
C397 C396 1.400 . S
C397 C398 1.398 . S
C398 H386 0.950 . S
C398 C397 1.398 . S
C398 C399 1.391 . S
C399 H387 0.950 . S
C399 C395 1.393 . S
C399 C398 1.391 . S
C169 C98 0.548 . S
C175 C18 0.508 . S
C189 C138 0.499 . S
C195 C58 0.544 . S
C209 C89 0.855 1_556 S
C215 C9 0.872 1_556 S
C229 C49 0.873 . S
C235 C129 0.856 . S
C249 C55 1.059 . S
C255 C6 1.069 . S
C269 C46 1.086 . S
C275 C95 1.040 . S
C289 C135 1.066 . S
C295 C86 1.073 . S
C309 C126 1.073 . S
C315 C15 1.066 . S
C329 C99 4.563 . S
C335 C130 4.692 1_655 S
C349 C10 4.692 1_565 S
C355 C139 4.556 . S
C369 C50 4.692 . S
C375 C19 4.554 . S
C389 C90 4.691 . S
C395 C59 4.558 . S
