# Generated by pormake.
# Topology umu, (4)-cn, num edge types: 1
# Building blocks:
#     Node 0, Type 0, BuildingBlock: CEKHIL_clean_sbu_0, # of connection points: 4
#     Node 1, Type 0, BuildingBlock: CEKHIL_clean_sbu_0, # of connection points: 4
#     Node 2, Type 0, BuildingBlock: CEKHIL_clean_sbu_0, # of connection points: 4
#     Node 3, Type 0, BuildingBlock: CEKHIL_clean_sbu_0, # of connection points: 4
#     Node 4, Type 0, BuildingBlock: CEKHIL_clean_sbu_0, # of connection points: 4
#     Node 5, Type 0, BuildingBlock: CEKHIL_clean_sbu_0, # of connection points: 4
#     Node 6, Type 0, BuildingBlock: CEKHIL_clean_sbu_0, # of connection points: 4
#     Node 7, Type 0, BuildingBlock: CEKHIL_clean_sbu_0, # of connection points: 4
#     Node 8, Type 0, BuildingBlock: CEKHIL_clean_sbu_0, # of connection points: 4
#     Node 9, Type 0, BuildingBlock: CEKHIL_clean_sbu_0, # of connection points: 4
#     Node 10, Type 0, BuildingBlock: CEKHIL_clean_sbu_0, # of connection points: 4
#     Node 11, Type 0, BuildingBlock: CEKHIL_clean_sbu_0, # of connection points: 4
#     Node 12, Type 0, BuildingBlock: CEKHIL_clean_sbu_0, # of connection points: 4
#     Node 13, Type 0, BuildingBlock: CEKHIL_clean_sbu_0, # of connection points: 4
#     Node 14, Type 0, BuildingBlock: CEKHIL_clean_sbu_0, # of connection points: 4
#     Node 15, Type 0, BuildingBlock: CEKHIL_clean_sbu_0, # of connection points: 4
#     Node 16, Type 0, BuildingBlock: CEKHIL_clean_sbu_0, # of connection points: 4
#     Node 17, Type 0, BuildingBlock: CEKHIL_clean_sbu_0, # of connection points: 4
#     Node 18, Type 0, BuildingBlock: CEKHIL_clean_sbu_0, # of connection points: 4
#     Node 19, Type 0, BuildingBlock: CEKHIL_clean_sbu_0, # of connection points: 4
#     Node 20, Type 0, BuildingBlock: CEKHIL_clean_sbu_0, # of connection points: 4
#     Node 21, Type 0, BuildingBlock: CEKHIL_clean_sbu_0, # of connection points: 4
#     Node 22, Type 0, BuildingBlock: CEKHIL_clean_sbu_0, # of connection points: 4
#     Node 23, Type 0, BuildingBlock: CEKHIL_clean_sbu_0, # of connection points: 4
#     Node 24, Type 0, BuildingBlock: CEKHIL_clean_sbu_0, # of connection points: 4
#     Node 25, Type 0, BuildingBlock: CEKHIL_clean_sbu_0, # of connection points: 4
#     Node 26, Type 0, BuildingBlock: CEKHIL_clean_sbu_0, # of connection points: 4
#     Node 27, Type 0, BuildingBlock: CEKHIL_clean_sbu_0, # of connection points: 4
#     Node 28, Type 0, BuildingBlock: CEKHIL_clean_sbu_0, # of connection points: 4
#     Node 29, Type 0, BuildingBlock: CEKHIL_clean_sbu_0, # of connection points: 4
#     Node 30, Type 0, BuildingBlock: CEKHIL_clean_sbu_0, # of connection points: 4
#     Node 31, Type 0, BuildingBlock: CEKHIL_clean_sbu_0, # of connection points: 4
#     Edge 32, Type (0, 0), BuildingBlock: OJICUG_clean_linker_0, # of connection points: 2
#     Edge 33, Type (0, 0), BuildingBlock: OJICUG_clean_linker_0, # of connection points: 2
#     Edge 34, Type (0, 0), BuildingBlock: OJICUG_clean_linker_0, # of connection points: 2
#     Edge 35, Type (0, 0), BuildingBlock: OJICUG_clean_linker_0, # of connection points: 2
#     Edge 36, Type (0, 0), BuildingBlock: OJICUG_clean_linker_0, # of connection points: 2
#     Edge 37, Type (0, 0), BuildingBlock: OJICUG_clean_linker_0, # of connection points: 2
#     Edge 38, Type (0, 0), BuildingBlock: OJICUG_clean_linker_0, # of connection points: 2
#     Edge 39, Type (0, 0), BuildingBlock: OJICUG_clean_linker_0, # of connection points: 2
#     Edge 40, Type (0, 0), BuildingBlock: OJICUG_clean_linker_0, # of connection points: 2
#     Edge 41, Type (0, 0), BuildingBlock: OJICUG_clean_linker_0, # of connection points: 2
#     Edge 42, Type (0, 0), BuildingBlock: OJICUG_clean_linker_0, # of connection points: 2
#     Edge 43, Type (0, 0), BuildingBlock: OJICUG_clean_linker_0, # of connection points: 2
#     Edge 44, Type (0, 0), BuildingBlock: OJICUG_clean_linker_0, # of connection points: 2
#     Edge 45, Type (0, 0), BuildingBlock: OJICUG_clean_linker_0, # of connection points: 2
#     Edge 46, Type (0, 0), BuildingBlock: OJICUG_clean_linker_0, # of connection points: 2
#     Edge 47, Type (0, 0), BuildingBlock: OJICUG_clean_linker_0, # of connection points: 2
#     Edge 48, Type (0, 0), BuildingBlock: OJICUG_clean_linker_0, # of connection points: 2
#     Edge 49, Type (0, 0), BuildingBlock: OJICUG_clean_linker_0, # of connection points: 2
#     Edge 50, Type (0, 0), BuildingBlock: OJICUG_clean_linker_0, # of connection points: 2
#     Edge 51, Type (0, 0), BuildingBlock: OJICUG_clean_linker_0, # of connection points: 2
#     Edge 52, Type (0, 0), BuildingBlock: OJICUG_clean_linker_0, # of connection points: 2
#     Edge 53, Type (0, 0), BuildingBlock: OJICUG_clean_linker_0, # of connection points: 2
#     Edge 54, Type (0, 0), BuildingBlock: OJICUG_clean_linker_0, # of connection points: 2
#     Edge 55, Type (0, 0), BuildingBlock: OJICUG_clean_linker_0, # of connection points: 2
#     Edge 56, Type (0, 0), BuildingBlock: OJICUG_clean_linker_0, # of connection points: 2
#     Edge 57, Type (0, 0), BuildingBlock: OJICUG_clean_linker_0, # of connection points: 2
#     Edge 58, Type (0, 0), BuildingBlock: OJICUG_clean_linker_0, # of connection points: 2
#     Edge 59, Type (0, 0), BuildingBlock: OJICUG_clean_linker_0, # of connection points: 2
#     Edge 60, Type (0, 0), BuildingBlock: OJICUG_clean_linker_0, # of connection points: 2
#     Edge 61, Type (0, 0), BuildingBlock: OJICUG_clean_linker_0, # of connection points: 2
#     Edge 62, Type (0, 0), BuildingBlock: OJICUG_clean_linker_0, # of connection points: 2
#     Edge 63, Type (0, 0), BuildingBlock: OJICUG_clean_linker_0, # of connection points: 2
#     Edge 64, Type (0, 0), BuildingBlock: OJICUG_clean_linker_0, # of connection points: 2
#     Edge 65, Type (0, 0), BuildingBlock: OJICUG_clean_linker_0, # of connection points: 2
#     Edge 66, Type (0, 0), BuildingBlock: OJICUG_clean_linker_0, # of connection points: 2
#     Edge 67, Type (0, 0), BuildingBlock: OJICUG_clean_linker_0, # of connection points: 2
#     Edge 68, Type (0, 0), BuildingBlock: OJICUG_clean_linker_0, # of connection points: 2
#     Edge 69, Type (0, 0), BuildingBlock: OJICUG_clean_linker_0, # of connection points: 2
#     Edge 70, Type (0, 0), BuildingBlock: OJICUG_clean_linker_0, # of connection points: 2
#     Edge 71, Type (0, 0), BuildingBlock: OJICUG_clean_linker_0, # of connection points: 2
#     Edge 72, Type (0, 0), BuildingBlock: OJICUG_clean_linker_0, # of connection points: 2
#     Edge 73, Type (0, 0), BuildingBlock: OJICUG_clean_linker_0, # of connection points: 2
#     Edge 74, Type (0, 0), BuildingBlock: OJICUG_clean_linker_0, # of connection points: 2
#     Edge 75, Type (0, 0), BuildingBlock: OJICUG_clean_linker_0, # of connection points: 2
#     Edge 76, Type (0, 0), BuildingBlock: OJICUG_clean_linker_0, # of connection points: 2
#     Edge 77, Type (0, 0), BuildingBlock: OJICUG_clean_linker_0, # of connection points: 2
#     Edge 78, Type (0, 0), BuildingBlock: OJICUG_clean_linker_0, # of connection points: 2
#     Edge 79, Type (0, 0), BuildingBlock: OJICUG_clean_linker_0, # of connection points: 2
#     Edge 80, Type (0, 0), BuildingBlock: OJICUG_clean_linker_0, # of connection points: 2
#     Edge 81, Type (0, 0), BuildingBlock: OJICUG_clean_linker_0, # of connection points: 2
#     Edge 82, Type (0, 0), BuildingBlock: OJICUG_clean_linker_0, # of connection points: 2
#     Edge 83, Type (0, 0), BuildingBlock: OJICUG_clean_linker_0, # of connection points: 2
#     Edge 84, Type (0, 0), BuildingBlock: OJICUG_clean_linker_0, # of connection points: 2
#     Edge 85, Type (0, 0), BuildingBlock: OJICUG_clean_linker_0, # of connection points: 2
#     Edge 86, Type (0, 0), BuildingBlock: OJICUG_clean_linker_0, # of connection points: 2
#     Edge 87, Type (0, 0), BuildingBlock: OJICUG_clean_linker_0, # of connection points: 2
#     Edge 88, Type (0, 0), BuildingBlock: OJICUG_clean_linker_0, # of connection points: 2
#     Edge 89, Type (0, 0), BuildingBlock: OJICUG_clean_linker_0, # of connection points: 2
#     Edge 90, Type (0, 0), BuildingBlock: OJICUG_clean_linker_0, # of connection points: 2
#     Edge 91, Type (0, 0), BuildingBlock: OJICUG_clean_linker_0, # of connection points: 2
#     Edge 92, Type (0, 0), BuildingBlock: OJICUG_clean_linker_0, # of connection points: 2
#     Edge 93, Type (0, 0), BuildingBlock: OJICUG_clean_linker_0, # of connection points: 2
#     Edge 94, Type (0, 0), BuildingBlock: OJICUG_clean_linker_0, # of connection points: 2
#     Edge 95, Type (0, 0), BuildingBlock: OJICUG_clean_linker_0, # of connection points: 2
# Relax obj value: 0.128
# Max RMSD: 0.096
# Mean RMSD: 0.096
data_MOF--net-umu--node1-CEKHIL_clean_sbu_0--edge1-OJICUG_clean_linker_0
_symmetry_space_group_name_H-M    P1
_symmetry_Int_Tables_number       1
_symmetry_cell_setting            triclinic
loop_
_symmetry_equiv_pos_as_xyz
'x, y, z'
_cell_length_a     57.197808
_cell_length_b     57.192027
_cell_length_c     19.07593
_cell_angle_alpha  90.000957
_cell_angle_beta   90.00093
_cell_angle_gamma 90.00449
loop_
_atom_site_label
_atom_site_type_symbol
_atom_site_fract_x
_atom_site_fract_y
_atom_site_fract_z
_atom_type_partial_charge
Co0 Co 0.23859 0.18355 0.07688 0.0
O1 O 0.23216 0.15209 0.04518 0.0
O2 O 0.20716 0.18136 0.03769 0.0
C3 C 0.25577 0.17379 0.17966 0.0
O4 O 0.23883 0.21834 0.10416 0.0
Co5 Co 0.29007 0.20019 0.10343 0.0
O6 O 0.27429 0.2272 0.14812 0.0
C7 C 0.27265 0.1926 0.95973 0.0
C8 C 0.21193 0.15957 0.02396 0.0
C9 C 0.25306 0.23249 0.13523 0.0
O10 O 0.2515 0.19116 0.98215 0.0
O11 O 0.29046 0.19414 0.00012 0.0
O12 O 0.23303 0.17468 0.1754 0.0
O13 O 0.26667 0.17678 0.12164 0.0
Co14 Co 0.13211 0.98874 0.32625 0.0
O15 O 0.16332 0.98212 0.29276 0.0
O16 O 0.1338 0.95739 0.28607 0.0
C17 C 0.14253 1.00537 0.42955 0.0
O18 O 0.09751 0.98926 0.35537 0.0
Co19 Co 0.11627 0.04029 0.35472 0.0
O20 O 0.08946 1.02466 0.40106 0.0
C21 C 0.1211 1.02298 0.20972 0.0
C22 C 0.15556 0.962 0.27152 0.0
C23 C 0.08376 1.00357 0.3877 0.0
O24 O 0.12386 1.00194 0.23203 0.0
O25 O 0.11972 0.04078 0.25025 0.0
O26 O 0.14141 0.98267 0.42416 0.0
O27 O 0.13948 1.01659 0.37201 0.0
Co28 Co 0.32589 0.8814 0.5736 0.0
O29 O 0.33229 0.91279 0.54109 0.0
O30 O 0.35724 0.8835 0.5336 0.0
C31 C 0.30916 0.89142 0.67706 0.0
O32 O 0.32559 0.84667 0.60166 0.0
Co33 Co 0.27441 0.86516 0.6017 0.0
O34 O 0.29019 0.83819 0.64672 0.0
C35 C 0.29166 0.87089 0.45694 0.0
C36 C 0.35249 0.90529 0.51978 0.0
C37 C 0.31133 0.83268 0.63333 0.0
O38 O 0.31274 0.87341 0.47918 0.0
O39 O 0.27389 0.86939 0.49751 0.0
O40 O 0.33187 0.89044 0.6718 0.0
O41 O 0.29799 0.88844 0.61942 0.0
Co42 Co 0.43561 0.07762 0.82869 0.0
O43 O 0.4043 0.0838 0.79544 0.0
O44 O 0.43347 0.10893 0.78841 0.0
C45 C 0.42546 0.06078 0.9319 0.0
O46 O 0.47027 0.0775 0.85743 0.0
Co47 Co 0.45206 1.0262 0.85679 0.0
O48 O 0.47883 0.04212 0.90244 0.0
C49 C 0.44587 0.04338 0.7122 0.0
C50 C 0.41179 0.10397 0.77377 0.0
C51 C 0.48424 0.06331 0.88935 0.0
O52 O 0.44377 0.06449 0.73446 0.0
O53 O 0.44731 1.02561 0.7528 0.0
O54 O 0.42632 0.0835 0.92677 0.0
O55 O 0.42865 0.04967 0.87427 0.0
Co56 Co 0.2415 0.87934 0.0422 0.0
O57 O 0.23484 0.91059 0.0753 0.0
O58 O 0.21014 0.88104 0.08223 0.0
C59 C 0.25821 0.88977 0.93908 0.0
O60 O 0.24205 0.84468 0.01353 0.0
Co61 Co 0.29306 0.86345 0.0141 0.0
O62 O 0.27754 0.83635 0.96893 0.0
C63 C 0.27583 0.86933 0.15878 0.0
C64 C 0.21472 0.90283 0.09659 0.0
C65 C 0.25639 0.83077 0.98197 0.0
O66 O 0.2547 0.87134 0.13649 0.0
O67 O 0.29361 0.86804 0.11819 0.0
O68 O 0.2355 0.88856 0.9442 0.0
O69 O 0.26938 0.88667 -0.00334 0.0
Co70 Co 0.43566 0.99286 0.29742 0.0
O71 O 0.40419 0.98588 0.32834 0.0
O72 O 0.43391 0.96147 0.3371 0.0
C73 C 0.4259 1.00954 0.1936 0.0
O74 O 0.47054 0.99357 0.2715 0.0
Co75 Co 0.45165 0.04444 0.26967 0.0
O76 O 0.47937 1.02905 0.22759 0.0
C77 C 0.44498 1.02727 0.41422 0.0
C78 C 0.41198 0.9658 0.3499 0.0
C79 C 0.4848 1.00792 0.24141 0.0
O80 O 0.44291 1.00612 0.39215 0.0
O81 O 0.44652 0.04501 0.37352 0.0
O82 O 0.42724 0.98684 0.19874 0.0
O83 O 0.42854 1.02072 0.25137 0.0
Co84 Co 0.32371 0.18393 0.54474 0.0
O85 O 0.33248 0.15261 0.57198 0.0
O86 O 0.35502 0.18361 0.58548 0.0
C87 C 0.30776 0.17458 0.43961 0.0
O88 O 0.32063 0.21906 0.52377 0.0
Co89 Co 0.2707 0.19582 0.5189 0.0
O90 O 0.28337 0.22678 0.49232 0.0
C91 C 0.28865 0.18918 0.66227 0.0
C92 C 0.35186 0.16132 0.59596 0.0
C93 C 0.3044 0.23321 0.50343 0.0
O94 O 0.30986 0.18905 0.63991 0.0
O95 O 0.27077 0.1894 0.62191 0.0
O96 O 0.33033 0.17731 0.44496 0.0
O97 O 0.29653 0.17556 0.49758 0.0
Co98 Co 0.13003 0.07284 0.79488 0.0
O99 O 0.16117 0.07952 0.82893 0.0
O100 O 0.13159 0.10422 0.83473 0.0
C101 C 0.14076 0.0561 0.69204 0.0
O102 O 0.09551 0.07237 0.76516 0.0
Co103 Co 0.11408 1.02135 0.76647 0.0
O104 O 0.08719 0.03692 0.72031 0.0
C105 C 0.11944 0.0386 0.91135 0.0
C106 C 0.15333 0.09966 0.84977 0.0
C107 C 0.08165 0.05809 0.73315 0.0
O108 O 0.12166 0.0597 0.88904 0.0
O109 O 0.11823 1.0208 0.87077 0.0
O110 O 0.13959 0.07881 0.69717 0.0
O111 O 0.13746 0.04492 0.74955 0.0
Co112 Co 0.82569 0.88077 0.04581 0.0
O113 O 0.83254 0.91198 0.07875 0.0
O114 O 0.85706 0.88229 0.0858 0.0
C115 C 0.80915 0.89122 0.94251 0.0
O116 O 0.82488 0.84613 0.01714 0.0
Co117 Co 0.774 0.86531 0.01748 0.0
O118 O 0.78939 0.83824 0.97179 0.0
C119 C 0.79134 0.87033 0.1624 0.0
C120 C 0.85264 0.90413 0.09987 0.0
C121 C 0.81045 0.83242 -0.01487 0.0
O122 O 0.81243 0.87276 0.14015 0.0
O123 O 0.77355 0.86911 0.12185 0.0
O124 O 0.83183 0.88989 0.94784 0.0
O125 O 0.7979 0.8883 6e-05 0.0
Co126 Co 0.9345 0.07444 0.79358 0.0
O127 O 0.90333 0.08137 0.8268 0.0
O128 O 0.93309 0.10581 0.83375 0.0
C129 C 0.924 0.05795 0.6902 0.0
O130 O 0.9691 0.07355 0.76463 0.0
Co131 Co 0.94977 1.0227 0.765 0.0
O132 O 0.9768 0.03807 0.71895 0.0
C133 C 0.945 0.04001 0.91001 0.0
C134 C 0.91125 0.10143 0.848 0.0
C135 C 0.98271 0.0591 0.73234 0.0
O136 O 0.94255 0.06111 0.88784 0.0
O137 O 0.94614 1.02221 0.8694 0.0
O138 O 0.92535 0.08064 0.69562 0.0
O139 O 0.92687 0.04669 0.74774 0.0
Co140 Co 0.74153 0.18546 0.54422 0.0
O141 O 0.73496 0.15431 0.57835 0.0
O142 O 0.71021 0.18383 0.58442 0.0
C143 C 0.75818 0.17482 0.4412 0.0
O144 O 0.74194 0.22 0.51448 0.0
Co145 Co 0.79299 0.20146 0.5155 0.0
O146 O 0.77732 0.22823 0.46904 0.0
C147 C 0.77578 0.19644 0.66053 0.0
C148 C 0.71484 0.16212 0.59948 0.0
C149 C 0.75618 0.23381 0.48216 0.0
O150 O 0.75471 0.1939 0.63826 0.0
O151 O 0.79357 0.19775 0.61994 0.0
O152 O 0.73548 0.17592 0.44654 0.0
O153 O 0.7694 0.17808 0.49865 0.0
Co154 Co 0.63289 0.99215 0.29871 0.0
O155 O 0.66432 0.98496 0.32949 0.0
O156 O 0.63442 0.96077 0.33846 0.0
C157 C 0.64267 1.00874 0.1948 0.0
O158 O 0.59802 0.99314 0.27285 0.0
Co159 Co 0.61734 0.04387 0.27104 0.0
O160 O 0.58956 1.02866 0.22868 0.0
C161 C 0.62388 1.02666 0.41557 0.0
C162 C 0.65639 0.96494 0.35116 0.0
C163 C 0.58394 1.00759 0.2425 0.0
O164 O 0.62579 1.00549 0.3935 0.0
O165 O 0.62248 0.0444 0.37487 0.0
O166 O 0.6412 0.98606 0.19998 0.0
O167 O 0.64021 1.01994 0.2526 0.0
Co168 Co 0.82556 0.18499 0.07545 0.0
O169 O 0.83197 0.15375 0.04185 0.0
O170 O 0.85692 0.18309 0.03542 0.0
C171 C 0.80883 0.17453 0.17856 0.0
O172 O 0.82524 0.21957 0.10481 0.0
Co173 Co 0.7741 0.20113 0.10387 0.0
O174 O 0.78987 0.22784 0.1503 0.0
C175 C 0.79139 0.19604 0.95892 0.0
C176 C 0.85218 0.16136 0.02084 0.0
C177 C 0.81101 0.2334 0.13713 0.0
O178 O 0.81244 0.19336 0.98123 0.0
O179 O 0.77359 0.19744 -0.00055 0.0
O180 O 0.83153 0.17555 0.17327 0.0
O181 O 0.79764 0.17775 0.12104 0.0
Co182 Co 0.63183 0.07707 0.83025 0.0
O183 O 0.66319 0.08344 0.79754 0.0
O184 O 0.63389 0.10842 0.79046 0.0
C185 C 0.64189 0.06012 0.93336 0.0
O186 O 0.59713 0.07695 0.85842 0.0
Co187 Co 0.61518 1.02572 0.85793 0.0
O188 O 0.58828 0.04159 0.90304 0.0
C189 C 0.62191 0.04288 0.71349 0.0
C190 C 0.65562 0.10363 0.77618 0.0
C191 C 0.58301 0.06281 0.88995 0.0
O192 O 0.62387 0.06401 0.73577 0.0
O193 O 0.62034 1.02512 0.7541 0.0
O194 O 0.64098 0.08285 0.92848 0.0
O195 O 0.63873 0.04906 0.87563 0.0
Co196 Co 0.74156 0.88038 0.57711 0.0
O197 O 0.7356 0.9117 0.54337 0.0
O198 O 0.71024 0.8827 0.53713 0.0
C199 C 0.75844 0.89067 0.68008 0.0
O200 O 0.74135 0.84578 0.60654 0.0
Co201 Co 0.79274 0.86342 0.6056 0.0
O202 O 0.77658 0.83694 0.652 0.0
C203 C 0.77562 0.86914 0.46069 0.0
C204 C 0.71529 0.90436 0.52241 0.0
C205 C 0.75535 0.83172 0.63885 0.0
O206 O 0.75457 0.87184 0.48297 0.0
O207 O 0.79338 0.86749 0.50129 0.0
O208 O 0.73572 0.88995 0.67486 0.0
O209 O 0.76958 0.88721 0.6226 0.0
Co210 Co 0.93638 0.9902 0.32518 0.0
O211 O 0.90512 0.98384 0.29175 0.0
O212 O 0.93438 0.95879 0.28568 0.0
C213 C 0.92594 1.00713 0.42797 0.0
O214 O 0.97097 0.99034 0.35445 0.0
Co215 Co 0.95293 0.04153 0.35305 0.0
O216 O 0.97957 1.02568 0.39955 0.0
C217 C 0.94717 1.02424 0.20831 0.0
C218 C 0.91266 0.96357 0.2711 0.0
C219 C 0.98494 1.00448 0.3866 0.0
O220 O 0.9447 1.00317 0.23077 0.0
O221 O 0.94872 0.04204 0.24878 0.0
O222 O 0.9269 0.98441 0.42302 0.0
O223 O 0.9293 1.01823 0.37037 0.0
Co224 Co 0.73987 0.68442 0.57883 0.0
O225 O 0.73337 0.65314 0.54579 0.0
O226 O 0.70851 0.68254 0.53882 0.0
C227 C 0.75657 0.67411 0.68207 0.0
O228 O 0.74025 0.71908 0.60757 0.0
Co229 Co 0.79134 0.70055 0.60721 0.0
O230 O 0.7756 0.72736 0.65321 0.0
C231 C 0.77413 0.6951 0.46228 0.0
C232 C 0.71319 0.66076 0.52463 0.0
C233 C 0.75448 0.73294 0.63979 0.0
O234 O 0.75304 0.69256 0.4845 0.0
O235 O 0.79189 0.69655 0.5029 0.0
O236 O 0.73387 0.67519 0.67682 0.0
O237 O 0.76776 0.67722 0.62452 0.0
Co238 Co 0.6315 0.49001 0.8284 0.0
O239 O 0.66272 0.48365 0.79462 0.0
O240 O 0.63339 0.45867 0.78838 0.0
C241 C 0.64194 0.50676 0.93148 0.0
O242 O 0.59694 0.4902 0.85788 0.0
Co243 Co 0.61514 0.54137 0.85697 0.0
O244 O 0.58854 0.52549 0.90367 0.0
C245 C 0.6202 0.52415 0.71192 0.0
C246 C 0.6551 0.46344 0.77363 0.0
C247 C 0.58307 0.50434 0.89039 0.0
O248 O 0.62305 0.50312 0.73421 0.0
O249 O 0.61868 0.54193 0.75249 0.0
O250 O 0.64099 0.48405 0.92617 0.0
O251 O 0.63866 0.51795 0.87398 0.0
Co252 Co 0.8254 0.38073 0.0761 0.0
O253 O 0.83186 0.41196 0.04263 0.0
O254 O 0.85676 0.38257 0.03615 0.0
C255 C 0.80869 0.39118 0.17918 0.0
O256 O 0.82508 0.34613 0.1053 0.0
Co257 Co 0.77397 0.36455 0.10453 0.0
O258 O 0.78972 0.33777 0.15068 0.0
C259 C 0.79119 0.36987 0.95959 0.0
C260 C 0.85206 0.40432 0.02166 0.0
C261 C 0.81086 0.33225 0.13748 0.0
O262 O 0.81227 0.37242 0.98186 0.0
O263 O 0.77341 0.36847 0.00018 0.0
O264 O 0.83139 0.39013 0.17393 0.0
O265 O 0.79749 0.38796 0.12167 0.0
Co266 Co 0.93456 0.57506 0.32632 0.0
O267 O 0.9033 0.58157 0.29311 0.0
O268 O 0.93271 0.60644 0.28648 0.0
C269 C 0.92417 0.55833 0.42943 0.0
O270 O 0.96918 0.57468 0.35531 0.0
Co271 Co 0.95067 0.52359 0.35464 0.0
O272 O 0.97746 0.53931 0.40079 0.0
C273 C 0.94529 0.54084 0.20973 0.0
C274 C 0.91094 0.60177 0.2722 0.0
C275 C 0.98303 0.56044 0.38753 0.0
O276 O 0.94278 0.56192 0.23198 0.0
O277 O 0.94669 0.52306 0.25032 0.0
O278 O 0.92525 0.58104 0.42423 0.0
O279 O 0.92732 0.54715 0.37187 0.0
Co280 Co 0.74131 0.38097 0.54469 0.0
O281 O 0.73471 0.41214 0.57845 0.0
O282 O 0.70994 0.38263 0.58467 0.0
C283 C 0.75798 0.39154 0.44167 0.0
O284 O 0.74178 0.34641 0.51514 0.0
Co285 Co 0.79281 0.36504 0.51623 0.0
O286 O 0.77716 0.33831 0.4695 0.0
C287 C 0.77552 0.37004 0.6612 0.0
C288 C 0.71455 0.40438 0.59942 0.0
C289 C 0.75605 0.33266 0.48266 0.0
O290 O 0.75446 0.37263 0.63887 0.0
O291 O 0.79332 0.3687 0.62066 0.0
O292 O 0.73529 0.39042 0.44692 0.0
O293 O 0.76919 0.38835 0.49918 0.0
Co294 Co 0.93483 0.49083 0.79474 0.0
O295 O 0.90363 0.48419 0.82819 0.0
O296 O 0.93315 0.45945 0.83456 0.0
C297 C 0.92431 0.50754 0.69173 0.0
O298 O 0.96941 0.49133 0.76548 0.0
Co299 Co 0.95077 0.54235 0.76646 0.0
O300 O 0.97756 0.52672 0.71999 0.0
C301 C 0.94554 0.52505 0.91137 0.0
C302 C 0.91138 0.46402 0.84908 0.0
C303 C 0.98318 0.5056 0.73314 0.0
O304 O 0.94305 0.50398 0.88903 0.0
O305 O 0.94691 0.54285 0.87082 0.0
O306 O 0.92546 0.48483 0.69689 0.0
O307 O 0.92746 0.51873 0.74928 0.0
Co308 Co 0.82422 0.68497 0.04729 0.0
O309 O 0.83082 0.65372 0.08048 0.0
O310 O 0.85561 0.6832 0.08697 0.0
C311 C 0.80745 0.67454 0.94426 0.0
O312 O 0.8238 0.71958 0.01832 0.0
Co313 Co 0.77274 0.70107 0.01914 0.0
O314 O 0.7884 0.72794 0.97318 0.0
C315 C 0.79001 0.69552 0.16397 0.0
C316 C 0.85102 0.66142 0.1013 0.0
C317 C 0.80956 0.73347 -0.01371 0.0
O318 O 0.8111 0.69313 0.14168 0.0
O319 O 0.77223 0.69691 0.12339 0.0
O320 O 0.83015 0.67566 0.94935 0.0
O321 O 0.79629 0.6777 0.00185 0.0
Co322 Co 0.63066 0.57411 0.29709 0.0
O323 O 0.66181 0.58076 0.33098 0.0
O324 O 0.63227 0.60548 0.33705 0.0
C325 C 0.64133 0.55744 0.1941 0.0
O326 O 0.59612 0.5736 0.26742 0.0
Co327 Co 0.6148 0.52258 0.26851 0.0
O328 O 0.58801 0.53818 0.22193 0.0
C329 C 0.61984 0.53984 0.41351 0.0
C330 C 0.65402 0.60092 0.35185 0.0
C331 C 0.58237 0.55931 0.23502 0.0
O332 O 0.6223 0.56093 0.39126 0.0
O333 O 0.61858 0.52205 0.37292 0.0
O334 O 0.64016 0.58013 0.19936 0.0
O335 O 0.63811 0.54622 0.25159 0.0
Co336 Co 0.32403 0.38293 0.54545 0.0
O337 O 0.33284 0.41431 0.57198 0.0
O338 O 0.35535 0.38334 0.58625 0.0
C339 C 0.30816 0.39197 0.43994 0.0
O340 O 0.3209 0.34778 0.52506 0.0
Co341 Co 0.271 0.37115 0.51963 0.0
O342 O 0.28369 0.34021 0.4928 0.0
C343 C 0.28888 0.37767 0.6631 0.0
C344 C 0.35223 0.40566 0.59605 0.0
C345 C 0.30467 0.3337 0.50429 0.0
O346 O 0.31011 0.378 0.64077 0.0
O347 O 0.27102 0.37738 0.6227 0.0
O348 O 0.33073 0.38927 0.44551 0.0
O349 O 0.29691 0.39123 0.49791 0.0
Co350 Co 0.43511 0.57407 0.29558 0.0
O351 O 0.4039 0.58067 0.32914 0.0
O352 O 0.43339 0.60546 0.33536 0.0
C353 C 0.42462 0.55736 0.19249 0.0
O354 O 0.46969 0.57361 0.26628 0.0
Co355 Co 0.45111 0.52257 0.26722 0.0
O356 O 0.47787 0.53823 0.22072 0.0
C357 C 0.44629 0.53993 0.41222 0.0
C358 C 0.41163 0.60087 0.34991 0.0
C359 C 0.48349 0.55935 0.23397 0.0
O360 O 0.44344 0.56096 0.38988 0.0
O361 O 0.44773 0.52213 0.37174 0.0
O362 O 0.42573 0.58005 0.19776 0.0
O363 O 0.42777 0.54615 0.25003 0.0
Co364 Co 0.24063 0.68328 0.04178 0.0
O365 O 0.23366 0.65203 0.07436 0.0
O366 O 0.20927 0.68181 0.0819 0.0
C367 C 0.25719 0.67302 0.93828 0.0
O368 O 0.2415 0.71798 0.01364 0.0
Co369 Co 0.29234 0.69872 0.01358 0.0
O370 O 0.277 0.72593 0.96846 0.0
C371 C 0.27509 0.69321 0.15839 0.0
C372 C 0.21362 0.65995 0.09584 0.0
C373 C 0.25594 0.73174 0.98185 0.0
O374 O 0.25396 0.69104 0.13619 0.0
O375 O 0.29286 0.69446 0.11775 0.0
O376 O 0.2345 0.67436 0.94355 0.0
O377 O 0.26841 0.67579 -0.00406 0.0
Co378 Co 0.13035 0.49065 0.7943 0.0
O379 O 0.16149 0.48395 0.82819 0.0
O380 O 0.13187 0.45931 0.83429 0.0
C381 C 0.14098 0.5073 0.69128 0.0
O382 O 0.09582 0.4912 0.76478 0.0
Co383 Co 0.11455 0.54219 0.76584 0.0
O384 O 0.0877 0.52663 0.71944 0.0
C385 C 0.11945 0.52488 0.91082 0.0
C386 C 0.15361 0.46385 0.84922 0.0
C387 C 0.08205 0.50551 0.73256 0.0
O388 O 0.12202 0.50382 0.88847 0.0
O389 O 0.11815 0.54269 0.8703 0.0
O390 O 0.1398 0.4846 0.69656 0.0
O391 O 0.13783 0.51853 0.74878 0.0
Co392 Co 0.32532 0.68491 0.57352 0.0
O393 O 0.33181 0.65352 0.54125 0.0
O394 O 0.35673 0.68287 0.53406 0.0
C395 C 0.30839 0.6748 0.67664 0.0
O396 O 0.32504 0.71966 0.60145 0.0
Co397 Co 0.27389 0.70134 0.601 0.0
O398 O 0.28962 0.72839 0.64581 0.0
C399 C 0.29114 0.69479 0.45654 0.0
C400 C 0.35205 0.66106 0.52029 0.0
C401 C 0.31082 0.73375 0.63276 0.0
O402 O 0.31227 0.69278 0.47887 0.0
O403 O 0.27337 0.69628 0.49711 0.0
O404 O 0.3311 0.67585 0.67179 0.0
O405 O 0.29732 0.67791 0.6189 0.0
Co406 Co 0.13032 0.57466 0.32553 0.0
O407 O 0.16155 0.58097 0.29161 0.0
O408 O 0.13227 0.60599 0.28532 0.0
C409 C 0.14082 0.55794 0.42861 0.0
O410 O 0.09576 0.57448 0.35512 0.0
Co411 Co 0.11402 0.52327 0.35422 0.0
O412 O 0.08733 0.53912 0.40053 0.0
C413 C 0.11923 0.54045 0.20922 0.0
C414 C 0.15396 0.60117 0.27048 0.0
C415 C 0.08186 0.56029 0.38739 0.0
O416 O 0.12184 0.56152 0.23146 0.0
O417 O 0.11783 0.52268 0.24982 0.0
O418 O 0.13987 0.58065 0.42327 0.0
O419 O 0.1375 0.54674 0.37116 0.0
Co420 Co 0.23864 0.3803 0.07769 0.0
O421 O 0.23221 0.41176 0.04612 0.0
O422 O 0.20718 0.3825 0.03882 0.0
C423 C 0.25596 0.39011 0.18029 0.0
O424 O 0.23885 0.34549 0.10484 0.0
Co425 Co 0.29009 0.36355 0.10364 0.0
O426 O 0.27435 0.3365 0.14822 0.0
C427 C 0.2726 0.37169 0.96022 0.0
C428 C 0.21197 0.40427 0.02498 0.0
C429 C 0.25309 0.33128 0.1356 0.0
O430 O 0.25144 0.37277 -0.01728 0.0
O431 O 0.29042 0.37012 0.00058 0.0
O432 O 0.23321 0.38919 0.17629 0.0
O433 O 0.26679 0.38704 0.12219 0.0
Co434 Co 0.43601 0.49009 0.82672 0.0
O435 O 0.40485 0.48396 0.79223 0.0
O436 O 0.43402 0.45878 0.7863 0.0
C437 C 0.42538 0.50679 0.9297 0.0
O438 O 0.4705 0.49016 0.8569 0.0
Co439 Co 0.45238 0.54144 0.85572 0.0
O440 O 0.47889 0.52548 0.90264 0.0
C441 C 0.44727 0.52433 0.71063 0.0
C442 C 0.41238 0.46374 0.77105 0.0
C443 C 0.48434 0.5043 0.88956 0.0
O444 O 0.44469 0.50325 0.73282 0.0
O445 O 0.44862 0.5421 0.75129 0.0
O446 O 0.42627 0.48408 0.92426 0.0
O447 O 0.42884 0.51801 0.87235 0.0
C448 C 0.16015 0.13773 0.91496 0.0
C449 C 0.1681 0.11557 0.89324 0.0
H450 H 0.16763 0.16908 0.97332 0.0
C451 C 0.19024 0.10806 0.91613 0.0
H452 H 0.14314 0.14403 0.89865 0.0
C453 C 0.20404 0.12219 0.95947 0.0
C454 C 0.19626 0.14438 0.98101 0.0
H455 H 0.19693 0.09108 0.90099 0.0
H456 H 0.221 0.11571 0.97553 0.0
C457 C 0.17413 0.15203 0.95808 0.0
C458 C 0.16268 0.92407 0.2057 0.0
C459 C 0.17049 0.94622 0.22804 0.0
H460 H 0.17041 0.89291 0.14668 0.0
C461 C 0.19264 0.95387 0.20569 0.0
H462 H 0.14567 0.91765 0.22159 0.0
C463 C 0.20657 0.93993 0.16223 0.0
C464 C 0.19894 0.91776 0.14001 0.0
H465 H 0.19923 0.97084 0.2213 0.0
H466 H 0.22353 0.94654 0.14655 0.0
C467 C 0.17681 0.90994 0.16246 0.0
C468 C 0.37446 0.95693 0.41277 0.0
C469 C 0.39689 0.94969 0.39179 0.0
H470 H 0.34326 0.94894 0.46977 0.0
C471 C 0.40485 0.92759 0.41405 0.0
H472 H 0.36773 0.97385 0.39712 0.0
C473 C 0.39064 0.91312 0.45601 0.0
C474 C 0.36826 0.92054 0.47727 0.0
H475 H 0.42207 0.92148 0.39917 0.0
H476 H 0.3972 0.89616 0.47185 0.0
C477 C 0.36042 0.94265 0.455 0.0
C478 C 0.40376 0.14189 0.7087 0.0
C479 C 0.39675 0.11928 0.72918 0.0
H480 H 0.39517 0.17303 0.6506 0.0
C481 C 0.37533 0.11067 0.70383 0.0
H482 H 0.42022 0.14903 0.72688 0.0
C483 C 0.36129 0.12415 0.65941 0.0
C484 C 0.36805 0.14682 0.63934 0.0
H485 H 0.36939 0.0933 0.7178 0.0
H486 H 0.34488 0.11681 0.64155 0.0
C487 C 0.38947 0.15559 0.66464 0.0
C488 C 0.89073 0.91119 0.1648 0.0
C489 C 0.86863 0.91911 0.14242 0.0
H490 H 0.92205 0.91891 0.223 0.0
C491 C 0.86126 0.94147 0.16366 0.0
H492 H 0.89693 0.89402 0.14971 0.0
C493 C 0.87542 0.95551 0.20616 0.0
C494 C 0.89753 0.94775 0.22847 0.0
H495 H 0.84434 0.94816 0.14794 0.0
H496 H 0.86903 0.97263 0.22105 0.0
C497 C 0.90508 0.92541 0.20709 0.0
C498 C 0.90433 0.13952 0.91323 0.0
C499 C 0.89637 0.11742 0.89092 0.0
H500 H 0.89673 0.17082 0.97174 0.0
C501 C 0.87407 0.11003 0.91264 0.0
H502 H 0.92146 0.14574 0.89779 0.0
C503 C 0.86013 0.12416 0.95553 0.0
C504 C 0.86793 0.14627 0.97778 0.0
H505 H 0.86734 0.09311 0.89701 0.0
H506 H 0.84306 0.11774 0.97077 0.0
C507 C 0.8902 0.15385 0.9559 0.0
C508 C 0.70668 0.12521 0.66617 0.0
C509 C 0.69909 0.14734 0.64345 0.0
H510 H 0.69927 0.09447 0.72606 0.0
C511 C 0.67702 0.15531 0.66595 0.0
H512 H 0.72359 0.11849 0.65044 0.0
C513 C 0.6629 0.14136 0.7097 0.0
C514 C 0.67064 0.11924 0.73249 0.0
H515 H 0.67066 0.17231 0.64981 0.0
H516 H 0.64593 0.14788 0.72556 0.0
C517 C 0.69274 0.11144 0.71013 0.0
C518 C 0.69394 0.95577 0.4134 0.0
C519 C 0.67136 0.94877 0.39318 0.0
H520 H 0.72514 0.94758 0.47017 0.0
C521 C 0.66311 0.92689 0.41644 0.0
H522 H 0.70089 0.97251 0.39691 0.0
C523 C 0.67719 0.91241 0.45876 0.0
C524 C 0.69971 0.91961 0.47936 0.0
H525 H 0.64577 0.92097 0.40214 0.0
H526 H 0.6704 0.89564 0.47545 0.0
C527 C 0.70785 0.94148 0.45598 0.0
C528 C 0.70506 0.62342 0.46021 0.0
C529 C 0.6974 0.64565 0.48178 0.0
H530 H 0.69772 0.59228 0.40219 0.0
C531 C 0.67523 0.65335 0.45932 0.0
H532 H 0.72204 0.61689 0.47597 0.0
C533 C 0.66109 0.63904 0.41665 0.0
C534 C 0.66893 0.61683 0.39492 0.0
H535 H 0.66881 0.67041 0.47464 0.0
H536 H 0.64406 0.64537 0.40069 0.0
C537 C 0.6911 0.60929 0.41733 0.0
C538 C 0.69226 0.45541 0.70815 0.0
C539 C 0.67011 0.4477 0.73034 0.0
H540 H 0.72323 0.44813 0.64931 0.0
C541 C 0.66239 0.42552 0.70806 0.0
H542 H 0.69879 0.47241 0.72374 0.0
C543 C 0.67659 0.41141 0.665 0.0
C544 C 0.69872 0.41929 0.64272 0.0
H545 H 0.64539 0.41906 0.72383 0.0
H546 H 0.67025 0.39436 0.64923 0.0
C547 C 0.70628 0.44149 0.66489 0.0
C548 C 0.87419 0.45566 0.91397 0.0
C549 C 0.89642 0.44812 0.89197 0.0
H550 H 0.84318 0.44808 0.97227 0.0
C551 C 0.90424 0.42595 0.91399 0.0
H552 H 0.86758 0.47264 0.89856 0.0
C553 C 0.89006 0.41168 0.95663 0.0
C554 C 0.86786 0.41938 0.97873 0.0
H555 H 0.92131 0.41963 0.89834 0.0
H556 H 0.89648 0.39464 0.97222 0.0
C557 C 0.8602 0.44157 0.95681 0.0
C558 C 0.88917 0.65416 0.16564 0.0
C559 C 0.86696 0.64638 0.1438 0.0
H560 H 0.92056 0.64629 0.22331 0.0
C561 C 0.85945 0.62411 0.16553 0.0
H562 H 0.89548 0.67125 0.15017 0.0
C563 C 0.8736 0.61003 0.20794 0.0
C564 C 0.89583 0.61765 0.22967 0.0
H565 H 0.84244 0.61753 0.15025 0.0
H566 H 0.86711 0.59299 0.22322 0.0
C567 C 0.9035 0.63989 0.20783 0.0
C568 C 0.36183 0.44313 0.65764 0.0
C569 C 0.36852 0.42034 0.63858 0.0
H570 H 0.37004 0.47425 0.71455 0.0
C571 C 0.38997 0.41168 0.66398 0.0
H572 H 0.34542 0.45041 0.63962 0.0
C573 C 0.40433 0.42558 0.70726 0.0
C574 C 0.39737 0.4483 0.72683 0.0
H575 H 0.39562 0.39416 0.65065 0.0
H576 H 0.42079 0.41851 0.72565 0.0
C577 C 0.37594 0.45682 0.70127 0.0
C578 C 0.39012 0.65352 0.45582 0.0
C579 C 0.36793 0.64584 0.47813 0.0
H580 H 0.4214 0.64545 0.39786 0.0
C581 C 0.36036 0.62352 0.45707 0.0
H582 H 0.39648 0.67064 0.47076 0.0
C583 C 0.37443 0.6093 0.41478 0.0
C584 C 0.39662 0.61683 0.39249 0.0
H585 H 0.34337 0.61701 0.47275 0.0
H586 H 0.36788 0.59223 0.39999 0.0
C587 C 0.40436 0.63912 0.41375 0.0
C588 C 0.19098 0.6089 0.20396 0.0
C589 C 0.169 0.61682 0.2269 0.0
H590 H 0.22187 0.61595 0.14444 0.0
C591 C 0.16146 0.63912 0.20515 0.0
H592 H 0.19737 0.5918 0.21907 0.0
C593 C 0.1757 0.65316 0.16199 0.0
C594 C 0.19769 0.64509 0.13902 0.0
H595 H 0.14458 0.64574 0.22149 0.0
H596 H 0.16952 0.67032 0.14672 0.0
C597 C 0.20504 0.62276 0.16057 0.0
C598 C 0.16033 0.42592 0.91516 0.0
C599 C 0.16835 0.44801 0.89299 0.0
H600 H 0.16769 0.39472 0.97433 0.0
C601 C 0.19048 0.45554 0.91586 0.0
H602 H 0.14333 0.41961 0.89885 0.0
C603 C 0.2042 0.44151 0.95968 0.0
C604 C 0.19635 0.4194 0.9817 0.0
H605 H 0.19722 0.47246 0.90036 0.0
H606 H 0.22117 0.448 0.97572 0.0
C607 C 0.17424 0.41172 0.95875 0.0
C608 C 0.29959 0.1928 0.85689 0.0
C609 C 0.2767 0.19199 0.88361 0.0
H610 H 0.32135 0.19239 0.76608 0.0
C611 C 0.25781 0.19003 0.83701 0.0
H612 H 0.31456 0.19423 0.8914 0.0
C613 C 0.26172 0.18896 0.7651 0.0
C614 C 0.2846 0.18979 0.73838 0.0
H615 H 0.23996 0.18926 0.8559 0.0
H616 H 0.24675 0.18749 0.73059 0.0
C617 C 0.3035 0.19167 0.78498 0.0
C618 C 0.11995 1.00793 0.08676 0.0
C619 C 0.11973 1.02692 0.13344 0.0
H620 H 0.11989 0.99669 0.98012 0.0
C621 C 0.11864 0.04977 0.10648 0.0
H622 H 0.12072 0.99009 0.10575 0.0
C623 C 0.11823 0.05357 0.03436 0.0
C624 C 0.1188 0.03459 -0.01233 0.0
H625 H 0.1184 0.06481 0.14097 0.0
H626 H 0.11767 0.07141 0.01535 0.0
C627 C 0.11943 1.01172 0.01464 0.0
C628 C 0.2609 0.86942 0.28183 0.0
C629 C 0.27986 0.86891 0.23507 0.0
H630 H 0.24974 0.87039 0.38845 0.0
C631 C 0.30275 0.86859 0.26191 0.0
H632 H 0.24305 0.86968 0.26293 0.0
C633 C 0.3066 0.8691 0.33399 0.0
C634 C 0.28765 0.86982 0.38071 0.0
H635 H 0.31777 0.86822 0.22733 0.0
H636 H 0.32446 0.86902 0.35294 0.0
C637 C 0.26476 0.86981 0.3539 0.0
C638 C 0.44508 0.05822 0.58906 0.0
C639 C 0.44625 0.03931 0.63594 0.0
H640 H 0.44374 0.06925 0.48233 0.0
C641 C 0.44725 1.01642 0.60927 0.0
H642 H 0.44422 0.07607 0.60785 0.0
C643 C 0.44687 1.0125 0.53725 0.0
C644 C 0.44561 1.03139 0.4904 0.0
H645 H 0.44813 1.00145 0.64394 0.0
H646 H 0.44757 0.99464 0.51843 0.0
C647 C 0.44481 0.05429 0.51703 0.0
C648 C 0.76447 0.86934 0.26558 0.0
C649 C 0.78735 0.86914 0.23866 0.0
H650 H 0.7428 0.86949 0.35664 0.0
C651 C 0.80631 0.86819 0.28532 0.0
H652 H 0.74945 0.87006 0.23108 0.0
C653 C 0.80249 0.86777 0.35744 0.0
C654 C 0.77962 0.86841 0.38438 0.0
H655 H 0.82416 0.86792 0.26631 0.0
H656 H 0.81751 0.86727 0.39197 0.0
C657 C 0.76065 0.86903 0.33767 0.0
C658 C 0.94591 1.0131 0.01316 0.0
C659 C 0.9464 0.03598 -0.01377 0.0
H660 H 0.94576 0.99143 0.10423 0.0
C661 C 0.9479 0.05492 0.03286 0.0
H662 H 0.94475 0.9981 0.97867 0.0
C663 C 0.94858 0.05107 0.10495 0.0
C664 C 0.94766 1.02821 0.13193 0.0
H665 H 0.94842 0.07276 0.01383 0.0
H666 H 0.94953 0.06609 0.13945 0.0
C667 C 0.94648 1.00926 0.08524 0.0
C668 C 0.80642 0.19768 0.83599 0.0
C669 C 0.78742 0.19717 0.88263 0.0
H670 H 0.81767 0.19799 0.72936 0.0
C671 C 0.76456 0.19723 0.85563 0.0
H672 H 0.82426 0.19774 0.85505 0.0
C673 C 0.76076 0.19729 0.7835 0.0
C674 C 0.77976 0.19742 0.73684 0.0
H675 H 0.74951 0.19686 0.8901 0.0
H676 H 0.74292 0.19702 0.76447 0.0
C677 C 0.80262 0.19786 0.76385 0.0
C678 C 0.62357 0.05764 0.59035 0.0
C679 C 0.62189 0.03878 0.63723 0.0
H680 H 0.62557 0.06861 0.48366 0.0
C681 C 0.62074 1.01589 0.61058 0.0
H682 H 0.62458 0.07549 0.60911 0.0
C683 C 0.62141 1.01193 0.53859 0.0
C684 C 0.62313 1.03079 0.49174 0.0
H685 H 0.61947 1.00095 0.64525 0.0
H686 H 0.62055 0.99408 0.51978 0.0
C687 C 0.62414 0.05369 0.51835 0.0
C688 C 0.75921 0.69621 0.33918 0.0
C689 C 0.77816 0.69607 0.386 0.0
H690 H 0.74807 0.69627 0.23248 0.0
C691 C 0.80106 0.6964 0.35919 0.0
H692 H 0.74135 0.69603 0.35807 0.0
C693 C 0.80492 0.69646 0.28709 0.0
C694 C 0.78597 0.69631 0.24028 0.0
H695 H 0.81607 0.6963 0.3938 0.0
H696 H 0.82278 0.69646 0.2682 0.0
C697 C 0.76308 0.69639 0.26709 0.0
C698 C 0.6193 0.51295 0.51676 0.0
C699 C 0.61885 0.53582 0.48981 0.0
H700 H 0.62011 0.4913 0.60787 0.0
C701 C 0.61806 0.55479 0.53652 0.0
H702 H 0.61991 0.49793 0.48223 0.0
C703 C 0.6181 0.55097 0.60865 0.0
C704 C 0.61904 0.52811 0.63561 0.0
H705 H 0.61761 0.57263 0.51751 0.0
H706 H 0.61772 0.56601 0.64317 0.0
C707 C 0.61945 0.50914 0.58889 0.0
C708 C 0.80236 0.36834 0.76448 0.0
C709 C 0.77949 0.36898 0.73751 0.0
H710 H 0.82401 0.36812 0.85562 0.0
C711 C 0.76051 0.36918 0.78421 0.0
H712 H 0.81739 0.36814 0.72997 0.0
C713 C 0.76432 0.36908 0.85634 0.0
C714 C 0.78719 0.36891 0.88329 0.0
H715 H 0.74266 0.36961 0.76522 0.0
H716 H 0.74929 0.36951 0.89086 0.0
C717 C 0.80617 0.36836 0.8366 0.0
C718 C 0.94598 0.51393 0.10656 0.0
C719 C 0.94628 0.53681 0.13344 0.0
H720 H 0.94548 0.49224 0.01551 0.0
C721 C 0.94704 0.55577 0.08671 0.0
H722 H 0.94539 0.49891 0.14112 0.0
C723 C 0.94718 0.55193 0.01459 0.0
C724 C 0.94644 0.52905 -0.01231 0.0
H725 H 0.94737 0.57362 0.10568 0.0
H726 H 0.94755 0.56695 0.98004 0.0
C727 C 0.94601 0.51009 0.03445 0.0
C728 C 0.26188 0.37756 0.76587 0.0
C729 C 0.28477 0.37661 0.73919 0.0
H730 H 0.24004 0.37667 0.8565 0.0
C731 C 0.30359 0.37388 0.78571 0.0
H732 H 0.24698 0.37968 0.73142 0.0
C733 C 0.29958 0.37202 0.85745 0.0
C734 C 0.2767 0.37292 0.88413 0.0
H735 H 0.32143 0.373 0.76683 0.0
H736 H 0.31449 0.36992 0.89188 0.0
C737 C 0.25788 0.37575 0.83763 0.0
C738 C 0.44847 0.51314 0.51553 0.0
C739 C 0.44762 0.536 0.48853 0.0
H740 H 0.44904 0.49151 0.60669 0.0
C741 C 0.44753 0.555 0.5352 0.0
H742 H 0.44861 0.4981 0.48106 0.0
C743 C 0.44788 0.55121 0.60734 0.0
C744 C 0.4482 0.52834 0.63433 0.0
H745 H 0.44697 0.57284 0.51616 0.0
H746 H 0.44749 0.56624 0.64185 0.0
C747 C 0.4487 0.50935 0.58766 0.0
C748 C 0.30597 0.69544 0.33335 0.0
C749 C 0.28706 0.69504 0.38026 0.0
H750 H 0.31705 0.69527 0.2266 0.0
C751 C 0.26415 0.6944 0.35361 0.0
H752 H 0.32384 0.69595 0.35214 0.0
C753 C 0.26024 0.69392 0.28156 0.0
C754 C 0.27916 0.69417 0.23464 0.0
H755 H 0.24917 0.69401 0.38831 0.0
H756 H 0.24238 0.69324 0.2628 0.0
C757 C 0.30206 0.69506 0.26129 0.0
C758 C 0.11763 0.55546 0.0863 0.0
C759 C 0.11821 0.53647 0.13293 0.0
H760 H 0.11741 0.56673 0.9797 0.0
C761 C 0.11843 0.5136 0.10592 0.0
H762 H 0.11736 0.5733 0.10537 0.0
C763 C 0.11855 0.50982 0.03378 0.0
C764 C 0.11834 0.52882 -0.01286 0.0
H765 H 0.11888 0.49856 0.1404 0.0
H766 H 0.11903 0.49198 0.01473 0.0
C767 C 0.11763 0.55168 0.01416 0.0
C768 C 0.23255 0.2696 0.09975 0.0
C769 C 0.2463 0.25717 0.14828 0.0
H770 H 0.22363 0.30338 0.05799 0.0
C771 C 0.25769 0.26966 0.20175 0.0
H772 H 0.22364 0.26046 0.0578 0.0
C773 C 0.25768 0.29406 0.20187 0.0
C774 C 0.24629 0.3066 0.14851 0.0
H775 H 0.26816 0.26058 0.24046 0.0
H776 H 0.26815 0.30311 0.24067 0.0
C777 C 0.23254 0.29421 0.09987 0.0
C778 C 0.0465 0.98317 0.35323 0.0
C779 C 0.05899 0.99718 0.40097 0.0
H780 H 1.01274 0.97425 0.31154 0.0
C781 C 0.04652 1.00909 0.45348 0.0
H782 H 0.05561 0.97383 0.31206 0.0
C783 C 1.02212 1.00934 0.45315 0.0
C784 C 1.00956 0.99767 0.40034 0.0
H785 H 0.05564 1.01975 0.49168 0.0
H786 H 1.01311 1.02018 0.49112 0.0
C787 C 1.02191 0.98341 0.35292 0.0
C788 C 0.30627 0.79541 0.69925 0.0
C789 C 0.31787 0.80791 0.64619 0.0
H790 H 0.2955 0.76197 0.73757 0.0
C791 C 0.33162 0.79544 0.59775 0.0
H792 H 0.29578 0.80451 0.73792 0.0
C793 C 0.33147 0.77084 0.59757 0.0
C794 C 0.31755 0.75846 0.64581 0.0
H795 H 0.34069 0.80457 0.55608 0.0
H796 H 0.34044 0.76167 0.5558 0.0
C797 C 0.3061 0.771 0.69905 0.0
C798 C 0.52134 0.05842 0.95611 0.0
C799 C 0.50892 0.06998 0.9028 0.0
H800 H 0.55472 0.04765 -0.00518 0.0
C801 C 0.52145 0.08376 0.85455 0.0
H802 H 0.51219 0.04793 -0.00534 0.0
C803 C 0.54604 0.08361 0.85466 0.0
C804 C 0.55835 0.06967 0.903 0.0
H805 H 0.51237 0.09281 0.81274 0.0
H806 H 0.55527 0.09256 0.81296 0.0
C807 C 0.54575 0.05826 0.95619 0.0
C808 C 0.23562 0.79364 0.01612 0.0
C809 C 0.24989 0.80601 0.96877 0.0
H810 H 0.2261 0.75994 0.05712 0.0
C811 C 0.26179 0.79344 0.91647 0.0
H812 H 0.22629 0.80283 0.05714 0.0
C813 C 0.26168 0.76903 0.91646 0.0
C814 C 0.24967 0.75656 0.96875 0.0
H815 H 0.27265 0.80246 0.87858 0.0
H816 H 0.27246 0.75993 0.87854 0.0
C817 C 0.23551 0.76905 0.01611 0.0
C818 C 0.52196 0.98889 0.28256 0.0
C819 C 0.50963 1.00135 0.23076 0.0
H820 H 0.55561 0.98092 0.32673 0.0
C821 C 0.52225 1.01163 0.17558 0.0
H822 H 0.51271 0.98105 0.32621 0.0
C823 C 0.54667 1.01155 0.17587 0.0
C824 C 0.55908 1.0012 0.23135 0.0
H825 H 0.51323 1.02118 0.13464 0.0
H826 H 0.55586 1.02104 0.13514 0.0
C827 C 0.54654 0.98882 0.28286 0.0
C828 C 0.29243 0.27132 0.55051 0.0
C829 C 0.30805 0.25876 0.50824 0.0
H830 H 0.27969 0.30463 0.58264 0.0
C831 C 0.3249 0.27108 0.46903 0.0
H832 H 0.27954 0.26227 0.58217 0.0
C833 C 0.32498 0.2958 0.4693 0.0
C834 C 0.30822 0.30813 0.50881 0.0
H835 H 0.33714 0.26171 0.43605 0.0
H836 H 0.33727 0.30516 0.4365 0.0
C837 C 0.29252 0.29558 0.55081 0.0
C838 C 1.01998 0.05304 0.66705 0.0
C839 C 1.00754 0.06526 0.719 0.0
H840 H 0.05336 0.04173 0.62977 0.0
C841 C 1.02007 0.07949 0.76606 0.0
H842 H 1.01084 0.04221 0.62933 0.0
C843 C 0.04466 0.07922 0.76627 0.0
C844 C 0.05697 0.06471 0.71945 0.0
H845 H 1.011 0.08908 0.80676 0.0
H846 H 0.05386 0.08862 0.80712 0.0
C847 C 0.04438 0.05276 0.66729 0.0
C848 C 0.80435 0.77071 0.92025 0.0
C849 C 0.8162 0.75816 0.9727 0.0
H850 H 0.79384 0.80422 0.88194 0.0
C851 C 0.83056 0.77051 0.0198 0.0
H852 H 0.79342 0.7617 0.88252 0.0
C853 C 0.8308 0.7951 0.01948 0.0
C854 C 0.81668 0.80759 0.97204 0.0
H855 H 0.83986 0.76134 0.0609 0.0
H856 H 0.84027 0.80421 0.06037 0.0
C857 C 0.8046 0.79511 0.9199 0.0
C858 C 0.76153 0.27107 0.41633 0.0
C859 C 0.74962 0.25852 0.46865 0.0
H860 H 0.77232 0.30458 0.37865 0.0
C861 C 0.73534 0.27089 0.51594 0.0
H862 H 0.77239 0.26205 0.37845 0.0
C863 C 0.73531 0.29548 0.51607 0.0
C864 C 0.74955 0.30795 0.46891 0.0
H865 H 0.72598 0.26171 0.55692 0.0
H866 H 0.72592 0.30458 0.55715 0.0
C867 C 0.76149 0.29548 0.41645 0.0
C868 C 0.8057 0.295 0.20346 0.0
C869 C 0.81748 0.30755 0.15088 0.0
H870 H 0.79499 0.2615 0.24142 0.0
C871 C 0.83164 0.29517 0.10329 0.0
H872 H 0.79492 0.30403 0.24153 0.0
C873 C 0.83169 0.27058 0.10322 0.0
C874 C 0.81757 0.25811 0.15073 0.0
H875 H 0.8409 0.30434 0.06209 0.0
H876 H 0.84097 0.26146 0.06194 0.0
C877 C 0.80575 0.27059 0.2034 0.0
C878 C 0.73413 0.77018 0.60478 0.0
C879 C 0.74796 0.75768 0.65297 0.0
H880 H 0.72535 0.80395 0.56283 0.0
C881 C 0.75964 0.77015 0.70595 0.0
H882 H 0.72498 0.76106 0.56325 0.0
C883 C 0.75985 0.79456 0.70572 0.0
C884 C 0.7484 0.80712 0.6525 0.0
H885 H 0.77017 0.76104 0.74448 0.0
H886 H 0.77055 0.80357 0.74407 0.0
C887 C 0.73435 0.79477 0.60455 0.0
C888 C 0.54584 0.50937 0.95655 0.0
C889 C 0.5584 0.49765 0.90387 0.0
H890 H 0.51234 0.52008 -0.00558 0.0
C891 C 0.54603 0.48351 0.85617 0.0
H892 H 0.55486 0.52012 -0.00527 0.0
C893 C 0.52145 0.48349 0.85598 0.0
C894 C 0.50898 0.4976 0.9035 0.0
H895 H 0.55521 0.4743 0.81491 0.0
H896 H 0.51235 0.47427 0.81457 0.0
C897 C 0.52144 0.50935 0.95638 0.0
C898 C 1.02018 0.5811 0.35332 0.0
C899 C 1.00775 0.56701 0.40096 0.0
H900 H 0.05392 0.5903 0.31199 0.0
C901 C 1.02025 0.55523 0.45366 0.0
H902 H 1.01105 0.59035 0.31203 0.0
C903 C 0.04465 0.5552 0.45365 0.0
C904 C 0.05718 0.56695 0.40094 0.0
H905 H 1.01118 0.5445 0.49179 0.0
H906 H 0.0537 0.54445 0.49176 0.0
C907 C 0.04477 0.58108 0.35331 0.0
C908 C 1.02033 0.4848 0.76657 0.0
C909 C 1.00789 0.49908 0.71945 0.0
H910 H 0.05407 0.47537 0.80735 0.0
C911 C 1.02038 0.51102 0.66704 0.0
H912 H 1.01121 0.47542 0.80762 0.0
C913 C 0.04478 0.51099 0.66687 0.0
C914 C 0.05732 0.49903 0.71912 0.0
H915 H 1.01131 0.52188 0.62927 0.0
H916 H 0.05383 0.52184 0.629 0.0
C917 C 0.04491 0.48477 0.76641 0.0
C918 C 0.5208 0.55389 0.16845 0.0
C919 C 0.50823 0.56585 0.22064 0.0
H920 H 0.5543 0.543 0.13102 0.0
C921 C 0.52061 0.58011 0.26799 0.0
H922 H 0.51178 0.54304 0.13053 0.0
C923 C 0.54519 0.58009 0.26827 0.0
C924 C 0.55766 0.56581 0.2212 0.0
H925 H 0.51142 0.5895 0.30889 0.0
H926 H 0.55429 0.58947 0.30937 0.0
C927 C 0.5452 0.55387 0.16873 0.0
C928 C 0.2574 0.17136 0.31087 0.0
C929 C 0.26894 0.17267 0.24634 0.0
H930 H 0.26069 0.17063 0.42227 0.0
C931 C 0.2936 0.17366 0.24551 0.0
H932 H 0.2385 0.1705 0.31324 0.0
C933 C 0.30641 0.17397 0.30798 0.0
C934 C 0.29483 0.17313 0.37255 0.0
H935 H 0.3031 0.1745 0.19648 0.0
H936 H 0.3253 0.17513 0.30569 0.0
C937 C 0.27021 0.17151 0.37328 0.0
C938 C 0.14418 0.04276 0.49754 0.0
C939 C 0.14374 1.0181 0.49711 0.0
H940 H 0.1436 0.07417 0.55914 0.0
C941 C 0.14342 1.00618 0.56125 0.0
H942 H 0.14456 0.05253 0.44891 0.0
C943 C 0.14295 1.01865 0.62437 0.0
C944 C 0.14276 0.04332 0.62473 0.0
H945 H 0.1431 0.98725 0.56271 0.0
H946 H 0.14239 1.00889 0.67298 0.0
C947 C 0.14367 0.05523 0.56064 0.0
C948 C 0.29569 0.89198 0.8717 0.0
C949 C 0.27103 0.89166 0.87184 0.0
H950 H 0.32715 0.89221 0.81034 0.0
C951 C 0.25916 0.89236 0.80765 0.0
H952 H 0.30541 0.89158 0.9204 0.0
C953 C 0.2717 0.89284 0.74467 0.0
C954 C 0.29636 0.89256 0.74449 0.0
H955 H 0.24023 0.89219 0.80599 0.0
H956 H 0.26198 0.89309 0.69596 0.0
C957 C 0.30822 0.8924 0.8087 0.0
C958 C 0.42361 0.05968 0.06348 0.0
C959 C 0.42412 0.04789 -0.00084 0.0
H960 H 0.42358 0.05674 0.17517 0.0
C961 C 0.42422 1.02321 -0.00089 0.0
H962 H 0.42348 0.0786 0.0653 0.0
C963 C 0.42438 1.01061 0.06199 0.0
C964 C 0.4244 1.02241 0.12632 0.0
H965 H 0.42448 1.01354 0.95031 0.0
H966 H 0.42486 0.99169 0.06016 0.0
C967 C 0.42372 0.04707 0.12637 0.0
C968 C 0.77178 0.89341 0.87461 0.0
C969 C 0.79643 0.89268 0.87501 0.0
H970 H 0.74038 0.89337 0.81298 0.0
C971 C 0.80836 0.89239 0.8109 0.0
H972 H 0.76202 0.89378 0.92325 0.0
C973 C 0.79589 0.89224 0.74778 0.0
C974 C 0.77123 0.89234 0.74742 0.0
H975 H 0.82728 0.89186 0.80944 0.0
H976 H 0.80565 0.89169 0.69916 0.0
C977 C 0.75931 0.89322 0.8115 0.0
C978 C 0.92208 1.02058 0.62225 0.0
C979 C 0.92282 0.04523 0.62262 0.0
H980 H 0.92248 0.98915 0.56077 0.0
C981 C 0.92353 0.05714 0.55849 0.0
H982 H 0.9214 1.01083 0.67088 0.0
C983 C 0.92407 0.04464 0.49542 0.0
C984 C 0.92396 1.01997 0.49515 0.0
H985 H 0.92411 0.07606 0.557 0.0
H986 H 0.92492 0.05437 0.4468 0.0
C987 C 0.92267 1.00809 0.55922 0.0
C988 C 0.77142 0.17271 0.24647 0.0
C989 C 0.79608 0.173 0.24603 0.0
H990 H 0.74004 0.17301 0.30819 0.0
C991 C 0.80802 0.17275 0.31013 0.0
H992 H 0.76165 0.17277 0.19785 0.0
C993 C 0.79557 0.1728 0.37329 0.0
C994 C 0.77091 0.17314 0.37373 0.0
H995 H 0.82695 0.17293 0.31158 0.0
H996 H 0.80535 0.17293 0.4219 0.0
C997 C 0.75897 0.1728 0.30963 0.0
C998 C 0.6448 0.04627 0.12759 0.0
C999 C 0.64391 1.02161 0.12747 0.0
H1000 H 0.64486 0.07783 0.06669 0.0
C1001 C 0.64335 1.00985 0.0631 0.0
H1002 H 0.64538 0.05591 0.17642 0.0
C1003 C 0.64316 1.02249 0.00028 0.0
C1004 C 0.64347 0.04716 0.00045 0.0
H1005 H 0.64269 0.99093 0.06123 0.0
H1006 H 0.64246 1.01285 0.95147 0.0
C1007 C 0.64454 0.05891 0.06478 0.0
C1008 C 0.80652 0.67245 0.81276 0.0
C1009 C 0.79464 0.67288 0.87694 0.0
H1010 H 0.80375 0.67229 0.70103 0.0
C1011 C 0.76998 0.67258 0.87672 0.0
H1012 H 0.82545 0.67262 0.81116 0.0
C1013 C 0.75747 0.67248 0.81367 0.0
C1014 C 0.76935 0.67264 0.74948 0.0
H1015 H 0.76025 0.67276 0.92542 0.0
H1016 H 0.73854 0.67269 0.81526 0.0
C1017 C 0.79401 0.67231 0.74972 0.0
C1018 C 0.64349 0.52003 0.12624 0.0
C1019 C 0.64308 0.54469 0.12667 0.0
H1020 H 0.6435 0.48864 0.06453 0.0
C1021 C 0.64345 0.55663 0.06256 0.0
H1022 H 0.64334 0.51025 0.17486 0.0
C1023 C 0.64363 0.54417 -0.00059 0.0
C1024 C 0.64341 0.51951 -0.00103 0.0
H1025 H 0.6432 0.57556 0.06111 0.0
H1026 H 0.64359 0.55395 0.95078 0.0
C1027 C 0.64363 0.50757 0.06308 0.0
C1028 C 0.7588 0.39325 0.31009 0.0
C1029 C 0.77074 0.39307 0.37422 0.0
H1030 H 0.7615 0.39299 0.19833 0.0
C1031 C 0.79539 0.3934 0.37383 0.0
H1032 H 0.73988 0.39304 0.30862 0.0
C1033 C 0.80786 0.39328 0.3107 0.0
C1034 C 0.79593 0.39286 0.24659 0.0
H1035 H 0.80516 0.3934 0.42246 0.0
H1036 H 0.82679 0.3931 0.31218 0.0
C1037 C 0.77127 0.39317 0.24697 0.0
C1038 C 0.92239 0.5084 0.5602 0.0
C1039 C 0.92268 0.52031 0.62435 0.0
H1040 H 0.92241 0.51114 0.44845 0.0
C1041 C 0.92233 0.54497 0.62405 0.0
H1042 H 0.9226 0.48947 0.55866 0.0
C1043 C 0.92232 0.55746 0.56097 0.0
C1044 C 0.92261 0.54555 0.49682 0.0
H1045 H 0.92242 0.55472 0.67272 0.0
H1046 H 0.92249 0.57639 0.56251 0.0
C1047 C 0.92233 0.52089 0.49712 0.0
C1048 C 0.29388 0.39068 0.24586 0.0
C1049 C 0.26922 0.39178 0.24675 0.0
H1050 H 0.32562 0.38981 0.30595 0.0
C1051 C 0.25774 0.39394 0.31119 0.0
H1052 H 0.30332 0.38918 0.19687 0.0
C1053 C 0.27061 0.39453 0.37347 0.0
C1054 C 0.29522 0.3928 0.37277 0.0
H1055 H 0.23885 0.39494 0.31361 0.0
H1056 H 0.26113 0.39607 0.42238 0.0
C1057 C 0.30675 0.3911 0.30824 0.0
C1058 C 0.42301 0.50753 0.06123 0.0
C1059 C 0.42359 0.5195 -0.00282 0.0
H1060 H 0.42269 0.51017 0.17303 0.0
C1061 C 0.42334 0.54416 -0.0023 0.0
H1062 H 0.42315 0.4886 0.0626 0.0
C1063 C 0.42316 0.55659 0.06089 0.0
C1064 C 0.42318 0.54462 0.12497 0.0
H1065 H 0.42365 0.55396 0.94912 0.0
H1066 H 0.42342 0.57552 0.05951 0.0
C1067 C 0.4228 0.51996 0.12444 0.0
C1068 C 0.29466 0.67118 0.87082 0.0
C1069 C 0.27001 0.67188 0.87086 0.0
H1070 H 0.32618 0.67156 0.80976 0.0
C1071 C 0.2582 0.67253 0.80657 0.0
H1072 H 0.30434 0.67054 0.91958 0.0
C1073 C 0.2708 0.67302 0.74368 0.0
C1074 C 0.29546 0.67293 0.74372 0.0
H1075 H 0.23928 0.67306 0.80482 0.0
H1076 H 0.26113 0.67379 0.69493 0.0
C1077 C 0.30726 0.67174 0.80796 0.0
C1078 C 0.14296 0.55714 0.56016 0.0
C1079 C 0.14246 0.54519 0.49607 0.0
H1080 H 0.1431 0.55447 0.67194 0.0
C1081 C 0.14263 0.52053 0.49653 0.0
H1082 H 0.14288 0.57607 0.56159 0.0
C1083 C 0.14267 0.50808 0.55969 0.0
C1084 C 0.14257 0.52003 0.62379 0.0
H1085 H 0.14238 0.51075 0.44792 0.0
H1086 H 0.14235 0.48915 0.55827 0.0
C1087 C 0.14304 0.54469 0.62333 0.0
loop_
_geom_bond_atom_site_label_1
_geom_bond_atom_site_label_2
_geom_bond_distance
_geom_bond_site_symmetry_2
_ccdc_geom_bond_type
Co0 O1 2.216 . S
Co0 O2 2.091 . S
Co0 O4 2.004 . S
Co0 O10 2.021 1_554 S
Co0 O12 2.137 . S
Co0 O13 2.244 . S
O1 Co0 2.216 . S
O1 C8 1.247 . S
O2 Co0 2.091 . S
O2 C8 1.261 . S
C3 O12 1.247 . S
C3 O13 1.272 . S
O4 Co0 2.004 . S
O4 C9 1.259 . S
Co5 O6 2.061 . S
Co5 O11 2.052 1_554 S
Co5 O13 2.135 . S
O6 Co5 2.061 . S
O6 C9 1.235 . S
C7 O10 1.238 . S
C7 O11 1.241 . S
C8 O1 1.247 . S
C8 O2 1.261 . S
C9 O4 1.259 . S
C9 O6 1.235 . S
O10 Co0 2.021 1_556 S
O10 C7 1.238 . S
O11 Co5 2.052 1_556 S
O11 C7 1.241 . S
O12 Co0 2.137 . S
O12 C3 1.247 . S
O13 Co0 2.244 . S
O13 C3 1.272 . S
O13 Co5 2.135 . S
Co14 O15 2.216 . S
Co14 O16 2.091 . S
Co14 O18 2.004 . S
Co14 O24 2.021 . S
Co14 O26 2.137 . S
Co14 O27 2.244 . S
O15 Co14 2.216 . S
O15 C22 1.247 . S
O16 Co14 2.091 . S
O16 C22 1.261 . S
C17 O26 1.247 . S
C17 O27 1.272 . S
O18 Co14 2.004 . S
O18 C23 1.259 . S
Co19 O20 2.061 1_545 S
Co19 O25 2.052 . S
Co19 O27 2.135 1_545 S
O20 Co19 2.061 1_565 S
O20 C23 1.235 . S
C21 O24 1.238 . S
C21 O25 1.241 1_565 S
C22 O15 1.247 . S
C22 O16 1.261 . S
C23 O18 1.259 . S
C23 O20 1.235 . S
O24 Co14 2.021 . S
O24 C21 1.238 . S
O25 Co19 2.052 . S
O25 C21 1.241 1_545 S
O26 Co14 2.137 . S
O26 C17 1.247 . S
O27 Co14 2.244 . S
O27 C17 1.272 . S
O27 Co19 2.135 1_565 S
Co28 O29 2.216 . S
Co28 O30 2.091 . S
Co28 O32 2.004 . S
Co28 O38 2.021 . S
Co28 O40 2.137 . S
Co28 O41 2.244 . S
O29 Co28 2.216 . S
O29 C36 1.247 . S
O30 Co28 2.091 . S
O30 C36 1.261 . S
C31 O40 1.247 . S
C31 O41 1.272 . S
O32 Co28 2.004 . S
O32 C37 1.259 . S
Co33 O34 2.061 . S
Co33 O39 2.052 . S
Co33 O41 2.135 . S
O34 Co33 2.061 . S
O34 C37 1.235 . S
C35 O38 1.238 . S
C35 O39 1.241 . S
C36 O29 1.247 . S
C36 O30 1.261 . S
C37 O32 1.259 . S
C37 O34 1.235 . S
O38 Co28 2.021 . S
O38 C35 1.238 . S
O39 Co33 2.052 . S
O39 C35 1.241 . S
O40 Co28 2.137 . S
O40 C31 1.247 . S
O41 Co28 2.244 . S
O41 C31 1.272 . S
O41 Co33 2.135 . S
Co42 O43 2.216 . S
Co42 O44 2.091 . S
Co42 O46 2.004 . S
Co42 O52 2.021 . S
Co42 O54 2.137 . S
Co42 O55 2.244 . S
O43 Co42 2.216 . S
O43 C50 1.247 . S
O44 Co42 2.091 . S
O44 C50 1.261 . S
C45 O54 1.247 . S
C45 O55 1.272 . S
O46 Co42 2.004 . S
O46 C51 1.259 . S
Co47 O48 2.061 1_565 S
Co47 O53 2.052 . S
Co47 O55 2.135 1_565 S
O48 Co47 2.061 1_545 S
O48 C51 1.235 . S
C49 O52 1.238 . S
C49 O53 1.241 1_545 S
C50 O43 1.247 . S
C50 O44 1.261 . S
C51 O46 1.259 . S
C51 O48 1.235 . S
O52 Co42 2.021 . S
O52 C49 1.238 . S
O53 Co47 2.052 . S
O53 C49 1.241 1_565 S
O54 Co42 2.137 . S
O54 C45 1.247 . S
O55 Co42 2.244 . S
O55 C45 1.272 . S
O55 Co47 2.135 1_545 S
Co56 O57 2.216 . S
Co56 O58 2.091 . S
Co56 O60 2.004 . S
Co56 O66 2.021 . S
Co56 O68 2.137 1_554 S
Co56 O69 2.244 . S
O57 Co56 2.216 . S
O57 C64 1.247 . S
O58 Co56 2.091 . S
O58 C64 1.261 . S
C59 O68 1.247 . S
C59 O69 1.272 1_556 S
O60 Co56 2.004 . S
O60 C65 1.259 . S
Co61 O62 2.061 . S
Co61 O67 2.052 . S
Co61 O69 2.135 . S
O62 Co61 2.061 . S
O62 C65 1.235 . S
C63 O66 1.238 . S
C63 O67 1.241 . S
C64 O57 1.247 . S
C64 O58 1.261 . S
C65 O60 1.259 . S
C65 O62 1.235 . S
O66 Co56 2.021 . S
O66 C63 1.238 . S
O67 Co61 2.052 . S
O67 C63 1.241 . S
O68 Co56 2.137 1_556 S
O68 C59 1.247 . S
O69 Co56 2.244 . S
O69 C59 1.272 1_554 S
O69 Co61 2.135 . S
Co70 O71 2.216 . S
Co70 O72 2.091 . S
Co70 O74 2.004 . S
Co70 O80 2.021 . S
Co70 O82 2.137 . S
Co70 O83 2.244 . S
O71 Co70 2.216 . S
O71 C78 1.247 . S
O72 Co70 2.091 . S
O72 C78 1.261 . S
C73 O82 1.247 . S
C73 O83 1.272 . S
O74 Co70 2.004 . S
O74 C79 1.259 . S
Co75 O76 2.061 1_545 S
Co75 O81 2.052 . S
Co75 O83 2.135 1_545 S
O76 Co75 2.061 1_565 S
O76 C79 1.235 . S
C77 O80 1.238 . S
C77 O81 1.241 1_565 S
C78 O71 1.247 . S
C78 O72 1.261 . S
C79 O74 1.259 . S
C79 O76 1.235 . S
O80 Co70 2.021 . S
O80 C77 1.238 . S
O81 Co75 2.052 . S
O81 C77 1.241 1_545 S
O82 Co70 2.137 . S
O82 C73 1.247 . S
O83 Co70 2.244 . S
O83 C73 1.272 . S
O83 Co75 2.135 1_565 S
Co84 O85 2.216 . S
Co84 O86 2.091 . S
Co84 O88 2.004 . S
Co84 O94 2.021 . S
Co84 O96 2.137 . S
Co84 O97 2.244 . S
O85 Co84 2.216 . S
O85 C92 1.247 . S
O86 Co84 2.091 . S
O86 C92 1.261 . S
C87 O96 1.247 . S
C87 O97 1.272 . S
O88 Co84 2.004 . S
O88 C93 1.259 . S
Co89 O90 2.061 . S
Co89 O95 2.052 . S
Co89 O97 2.135 . S
O90 Co89 2.061 . S
O90 C93 1.235 . S
C91 O94 1.238 . S
C91 O95 1.241 . S
C92 O85 1.247 . S
C92 O86 1.261 . S
C93 O88 1.259 . S
C93 O90 1.235 . S
O94 Co84 2.021 . S
O94 C91 1.238 . S
O95 Co89 2.052 . S
O95 C91 1.241 . S
O96 Co84 2.137 . S
O96 C87 1.247 . S
O97 Co84 2.244 . S
O97 C87 1.272 . S
O97 Co89 2.135 . S
Co98 O99 2.216 . S
Co98 O100 2.091 . S
Co98 O102 2.004 . S
Co98 O108 2.021 . S
Co98 O110 2.137 . S
Co98 O111 2.244 . S
O99 Co98 2.216 . S
O99 C106 1.247 . S
O100 Co98 2.091 . S
O100 C106 1.261 . S
C101 O110 1.247 . S
C101 O111 1.272 . S
O102 Co98 2.004 . S
O102 C107 1.259 . S
Co103 O104 2.061 1_565 S
Co103 O109 2.052 . S
Co103 O111 2.135 1_565 S
O104 Co103 2.061 1_545 S
O104 C107 1.235 . S
C105 O108 1.238 . S
C105 O109 1.241 1_545 S
C106 O99 1.247 . S
C106 O100 1.261 . S
C107 O102 1.259 . S
C107 O104 1.235 . S
O108 Co98 2.021 . S
O108 C105 1.238 . S
O109 Co103 2.052 . S
O109 C105 1.241 1_565 S
O110 Co98 2.137 . S
O110 C101 1.247 . S
O111 Co98 2.244 . S
O111 C101 1.272 . S
O111 Co103 2.135 1_545 S
Co112 O113 2.216 . S
Co112 O114 2.091 . S
Co112 O116 2.004 . S
Co112 O122 2.021 . S
Co112 O124 2.137 1_554 S
Co112 O125 2.244 . S
O113 Co112 2.216 . S
O113 C120 1.247 . S
O114 Co112 2.091 . S
O114 C120 1.261 . S
C115 O124 1.247 . S
C115 O125 1.272 1_556 S
O116 Co112 2.004 . S
O116 C121 1.259 . S
Co117 O118 2.061 . S
Co117 O123 2.052 . S
Co117 O125 2.135 . S
O118 Co117 2.061 . S
O118 C121 1.235 . S
C119 O122 1.238 . S
C119 O123 1.241 . S
C120 O113 1.247 . S
C120 O114 1.261 . S
C121 O116 1.259 . S
C121 O118 1.235 . S
O122 Co112 2.021 . S
O122 C119 1.238 . S
O123 Co117 2.052 . S
O123 C119 1.241 . S
O124 Co112 2.137 1_556 S
O124 C115 1.247 . S
O125 Co112 2.244 . S
O125 C115 1.272 1_554 S
O125 Co117 2.135 . S
Co126 O127 2.216 . S
Co126 O128 2.091 . S
Co126 O130 2.004 . S
Co126 O136 2.021 . S
Co126 O138 2.137 . S
Co126 O139 2.244 . S
O127 Co126 2.216 . S
O127 C134 1.247 . S
O128 Co126 2.091 . S
O128 C134 1.261 . S
C129 O138 1.247 . S
C129 O139 1.272 . S
O130 Co126 2.004 . S
O130 C135 1.259 . S
Co131 O132 2.061 1_565 S
Co131 O137 2.052 . S
Co131 O139 2.135 1_565 S
O132 Co131 2.061 1_545 S
O132 C135 1.235 . S
C133 O136 1.238 . S
C133 O137 1.241 1_545 S
C134 O127 1.247 . S
C134 O128 1.261 . S
C135 O130 1.259 . S
C135 O132 1.235 . S
O136 Co126 2.021 . S
O136 C133 1.238 . S
O137 Co131 2.052 . S
O137 C133 1.241 1_565 S
O138 Co126 2.137 . S
O138 C129 1.247 . S
O139 Co126 2.244 . S
O139 C129 1.272 . S
O139 Co131 2.135 1_545 S
Co140 O141 2.216 . S
Co140 O142 2.091 . S
Co140 O144 2.004 . S
Co140 O150 2.021 . S
Co140 O152 2.137 . S
Co140 O153 2.244 . S
O141 Co140 2.216 . S
O141 C148 1.247 . S
O142 Co140 2.091 . S
O142 C148 1.261 . S
C143 O152 1.247 . S
C143 O153 1.272 . S
O144 Co140 2.004 . S
O144 C149 1.259 . S
Co145 O146 2.061 . S
Co145 O151 2.052 . S
Co145 O153 2.135 . S
O146 Co145 2.061 . S
O146 C149 1.235 . S
C147 O150 1.238 . S
C147 O151 1.241 . S
C148 O141 1.247 . S
C148 O142 1.261 . S
C149 O144 1.259 . S
C149 O146 1.235 . S
O150 Co140 2.021 . S
O150 C147 1.238 . S
O151 Co145 2.052 . S
O151 C147 1.241 . S
O152 Co140 2.137 . S
O152 C143 1.247 . S
O153 Co140 2.244 . S
O153 C143 1.272 . S
O153 Co145 2.135 . S
Co154 O155 2.216 . S
Co154 O156 2.091 . S
Co154 O158 2.004 . S
Co154 O164 2.021 . S
Co154 O166 2.137 . S
Co154 O167 2.244 . S
O155 Co154 2.216 . S
O155 C162 1.247 . S
O156 Co154 2.091 . S
O156 C162 1.261 . S
C157 O166 1.247 . S
C157 O167 1.272 . S
O158 Co154 2.004 . S
O158 C163 1.259 . S
Co159 O160 2.061 1_545 S
Co159 O165 2.052 . S
Co159 O167 2.135 1_545 S
O160 Co159 2.061 1_565 S
O160 C163 1.235 . S
C161 O164 1.238 . S
C161 O165 1.241 1_565 S
C162 O155 1.247 . S
C162 O156 1.261 . S
C163 O158 1.259 . S
C163 O160 1.235 . S
O164 Co154 2.021 . S
O164 C161 1.238 . S
O165 Co159 2.052 . S
O165 C161 1.241 1_545 S
O166 Co154 2.137 . S
O166 C157 1.247 . S
O167 Co154 2.244 . S
O167 C157 1.272 . S
O167 Co159 2.135 1_565 S
Co168 O169 2.216 . S
Co168 O170 2.091 . S
Co168 O172 2.004 . S
Co168 O178 2.021 1_554 S
Co168 O180 2.137 . S
Co168 O181 2.244 . S
O169 Co168 2.216 . S
O169 C176 1.247 . S
O170 Co168 2.091 . S
O170 C176 1.261 . S
C171 O180 1.247 . S
C171 O181 1.272 . S
O172 Co168 2.004 . S
O172 C177 1.259 . S
Co173 O174 2.061 . S
Co173 O179 2.052 1_554 S
Co173 O181 2.135 . S
O174 Co173 2.061 . S
O174 C177 1.235 . S
C175 O178 1.238 . S
C175 O179 1.241 . S
C176 O169 1.247 . S
C176 O170 1.261 . S
C177 O172 1.259 . S
C177 O174 1.235 . S
O178 Co168 2.021 1_556 S
O178 C175 1.238 . S
O179 Co173 2.052 1_556 S
O179 C175 1.241 . S
O180 Co168 2.137 . S
O180 C171 1.247 . S
O181 Co168 2.244 . S
O181 C171 1.272 . S
O181 Co173 2.135 . S
Co182 O183 2.216 . S
Co182 O184 2.091 . S
Co182 O186 2.004 . S
Co182 O192 2.021 . S
Co182 O194 2.137 . S
Co182 O195 2.244 . S
O183 Co182 2.216 . S
O183 C190 1.247 . S
O184 Co182 2.091 . S
O184 C190 1.261 . S
C185 O194 1.247 . S
C185 O195 1.272 . S
O186 Co182 2.004 . S
O186 C191 1.259 . S
Co187 O188 2.061 1_565 S
Co187 O193 2.052 . S
Co187 O195 2.135 1_565 S
O188 Co187 2.061 1_545 S
O188 C191 1.235 . S
C189 O192 1.238 . S
C189 O193 1.241 1_545 S
C190 O183 1.247 . S
C190 O184 1.261 . S
C191 O186 1.259 . S
C191 O188 1.235 . S
O192 Co182 2.021 . S
O192 C189 1.238 . S
O193 Co187 2.052 . S
O193 C189 1.241 1_565 S
O194 Co182 2.137 . S
O194 C185 1.247 . S
O195 Co182 2.244 . S
O195 C185 1.272 . S
O195 Co187 2.135 1_545 S
Co196 O197 2.216 . S
Co196 O198 2.091 . S
Co196 O200 2.004 . S
Co196 O206 2.021 . S
Co196 O208 2.137 . S
Co196 O209 2.244 . S
O197 Co196 2.216 . S
O197 C204 1.247 . S
O198 Co196 2.091 . S
O198 C204 1.261 . S
C199 O208 1.247 . S
C199 O209 1.272 . S
O200 Co196 2.004 . S
O200 C205 1.259 . S
Co201 O202 2.061 . S
Co201 O207 2.052 . S
Co201 O209 2.135 . S
O202 Co201 2.061 . S
O202 C205 1.235 . S
C203 O206 1.238 . S
C203 O207 1.241 . S
C204 O197 1.247 . S
C204 O198 1.261 . S
C205 O200 1.259 . S
C205 O202 1.235 . S
O206 Co196 2.021 . S
O206 C203 1.238 . S
O207 Co201 2.052 . S
O207 C203 1.241 . S
O208 Co196 2.137 . S
O208 C199 1.247 . S
O209 Co196 2.244 . S
O209 C199 1.272 . S
O209 Co201 2.135 . S
Co210 O211 2.216 . S
Co210 O212 2.091 . S
Co210 O214 2.004 . S
Co210 O220 2.021 . S
Co210 O222 2.137 . S
Co210 O223 2.244 . S
O211 Co210 2.216 . S
O211 C218 1.247 . S
O212 Co210 2.091 . S
O212 C218 1.261 . S
C213 O222 1.247 . S
C213 O223 1.272 . S
O214 Co210 2.004 . S
O214 C219 1.259 . S
Co215 O216 2.061 1_545 S
Co215 O221 2.052 . S
Co215 O223 2.135 1_545 S
O216 Co215 2.061 1_565 S
O216 C219 1.235 . S
C217 O220 1.238 . S
C217 O221 1.241 1_565 S
C218 O211 1.247 . S
C218 O212 1.261 . S
C219 O214 1.259 . S
C219 O216 1.235 . S
O220 Co210 2.021 . S
O220 C217 1.238 . S
O221 Co215 2.052 . S
O221 C217 1.241 1_545 S
O222 Co210 2.137 . S
O222 C213 1.247 . S
O223 Co210 2.244 . S
O223 C213 1.272 . S
O223 Co215 2.135 1_565 S
Co224 O225 2.216 . S
Co224 O226 2.091 . S
Co224 O228 2.004 . S
Co224 O234 2.021 . S
Co224 O236 2.137 . S
Co224 O237 2.244 . S
O225 Co224 2.216 . S
O225 C232 1.247 . S
O226 Co224 2.091 . S
O226 C232 1.261 . S
C227 O236 1.247 . S
C227 O237 1.272 . S
O228 Co224 2.004 . S
O228 C233 1.259 . S
Co229 O230 2.061 . S
Co229 O235 2.052 . S
Co229 O237 2.135 . S
O230 Co229 2.061 . S
O230 C233 1.235 . S
C231 O234 1.238 . S
C231 O235 1.241 . S
C232 O225 1.247 . S
C232 O226 1.261 . S
C233 O228 1.259 . S
C233 O230 1.235 . S
O234 Co224 2.021 . S
O234 C231 1.238 . S
O235 Co229 2.052 . S
O235 C231 1.241 . S
O236 Co224 2.137 . S
O236 C227 1.247 . S
O237 Co224 2.244 . S
O237 C227 1.272 . S
O237 Co229 2.135 . S
Co238 O239 2.216 . S
Co238 O240 2.091 . S
Co238 O242 2.004 . S
Co238 O248 2.021 . S
Co238 O250 2.137 . S
Co238 O251 2.244 . S
O239 Co238 2.216 . S
O239 C246 1.247 . S
O240 Co238 2.091 . S
O240 C246 1.261 . S
C241 O250 1.247 . S
C241 O251 1.272 . S
O242 Co238 2.004 . S
O242 C247 1.259 . S
Co243 O244 2.061 . S
Co243 O249 2.052 . S
Co243 O251 2.135 . S
O244 Co243 2.061 . S
O244 C247 1.235 . S
C245 O248 1.238 . S
C245 O249 1.241 . S
C246 O239 1.247 . S
C246 O240 1.261 . S
C247 O242 1.259 . S
C247 O244 1.235 . S
O248 Co238 2.021 . S
O248 C245 1.238 . S
O249 Co243 2.052 . S
O249 C245 1.241 . S
O250 Co238 2.137 . S
O250 C241 1.247 . S
O251 Co238 2.244 . S
O251 C241 1.272 . S
O251 Co243 2.135 . S
Co252 O253 2.216 . S
Co252 O254 2.091 . S
Co252 O256 2.004 . S
Co252 O262 2.021 1_554 S
Co252 O264 2.137 . S
Co252 O265 2.244 . S
O253 Co252 2.216 . S
O253 C260 1.247 . S
O254 Co252 2.091 . S
O254 C260 1.261 . S
C255 O264 1.247 . S
C255 O265 1.272 . S
O256 Co252 2.004 . S
O256 C261 1.259 . S
Co257 O258 2.061 . S
Co257 O263 2.052 1_554 S
Co257 O265 2.135 . S
O258 Co257 2.061 . S
O258 C261 1.235 . S
C259 O262 1.238 . S
C259 O263 1.241 . S
C260 O253 1.247 . S
C260 O254 1.261 . S
C261 O256 1.259 . S
C261 O258 1.235 . S
O262 Co252 2.021 1_556 S
O262 C259 1.238 . S
O263 Co257 2.052 1_556 S
O263 C259 1.241 . S
O264 Co252 2.137 . S
O264 C255 1.247 . S
O265 Co252 2.244 . S
O265 C255 1.272 . S
O265 Co257 2.135 . S
Co266 O267 2.216 . S
Co266 O268 2.091 . S
Co266 O270 2.004 . S
Co266 O276 2.021 . S
Co266 O278 2.137 . S
Co266 O279 2.244 . S
O267 Co266 2.216 . S
O267 C274 1.247 . S
O268 Co266 2.091 . S
O268 C274 1.261 . S
C269 O278 1.247 . S
C269 O279 1.272 . S
O270 Co266 2.004 . S
O270 C275 1.259 . S
Co271 O272 2.061 . S
Co271 O277 2.052 . S
Co271 O279 2.135 . S
O272 Co271 2.061 . S
O272 C275 1.235 . S
C273 O276 1.238 . S
C273 O277 1.241 . S
C274 O267 1.247 . S
C274 O268 1.261 . S
C275 O270 1.259 . S
C275 O272 1.235 . S
O276 Co266 2.021 . S
O276 C273 1.238 . S
O277 Co271 2.052 . S
O277 C273 1.241 . S
O278 Co266 2.137 . S
O278 C269 1.247 . S
O279 Co266 2.244 . S
O279 C269 1.272 . S
O279 Co271 2.135 . S
Co280 O281 2.216 . S
Co280 O282 2.091 . S
Co280 O284 2.004 . S
Co280 O290 2.021 . S
Co280 O292 2.137 . S
Co280 O293 2.244 . S
O281 Co280 2.216 . S
O281 C288 1.247 . S
O282 Co280 2.091 . S
O282 C288 1.261 . S
C283 O292 1.247 . S
C283 O293 1.272 . S
O284 Co280 2.004 . S
O284 C289 1.259 . S
Co285 O286 2.061 . S
Co285 O291 2.052 . S
Co285 O293 2.135 . S
O286 Co285 2.061 . S
O286 C289 1.235 . S
C287 O290 1.238 . S
C287 O291 1.241 . S
C288 O281 1.247 . S
C288 O282 1.261 . S
C289 O284 1.259 . S
C289 O286 1.235 . S
O290 Co280 2.021 . S
O290 C287 1.238 . S
O291 Co285 2.052 . S
O291 C287 1.241 . S
O292 Co280 2.137 . S
O292 C283 1.247 . S
O293 Co280 2.244 . S
O293 C283 1.272 . S
O293 Co285 2.135 . S
Co294 O295 2.216 . S
Co294 O296 2.091 . S
Co294 O298 2.004 . S
Co294 O304 2.021 . S
Co294 O306 2.137 . S
Co294 O307 2.244 . S
O295 Co294 2.216 . S
O295 C302 1.247 . S
O296 Co294 2.091 . S
O296 C302 1.261 . S
C297 O306 1.247 . S
C297 O307 1.272 . S
O298 Co294 2.004 . S
O298 C303 1.259 . S
Co299 O300 2.061 . S
Co299 O305 2.052 . S
Co299 O307 2.135 . S
O300 Co299 2.061 . S
O300 C303 1.235 . S
C301 O304 1.238 . S
C301 O305 1.241 . S
C302 O295 1.247 . S
C302 O296 1.261 . S
C303 O298 1.259 . S
C303 O300 1.235 . S
O304 Co294 2.021 . S
O304 C301 1.238 . S
O305 Co299 2.052 . S
O305 C301 1.241 . S
O306 Co294 2.137 . S
O306 C297 1.247 . S
O307 Co294 2.244 . S
O307 C297 1.272 . S
O307 Co299 2.135 . S
Co308 O309 2.216 . S
Co308 O310 2.091 . S
Co308 O312 2.004 . S
Co308 O318 2.021 . S
Co308 O320 2.137 1_554 S
Co308 O321 2.244 . S
O309 Co308 2.216 . S
O309 C316 1.247 . S
O310 Co308 2.091 . S
O310 C316 1.261 . S
C311 O320 1.247 . S
C311 O321 1.272 1_556 S
O312 Co308 2.004 . S
O312 C317 1.259 . S
Co313 O314 2.061 . S
Co313 O319 2.052 . S
Co313 O321 2.135 . S
O314 Co313 2.061 . S
O314 C317 1.235 . S
C315 O318 1.238 . S
C315 O319 1.241 . S
C316 O309 1.247 . S
C316 O310 1.261 . S
C317 O312 1.259 . S
C317 O314 1.235 . S
O318 Co308 2.021 . S
O318 C315 1.238 . S
O319 Co313 2.052 . S
O319 C315 1.241 . S
O320 Co308 2.137 1_556 S
O320 C311 1.247 . S
O321 Co308 2.244 . S
O321 C311 1.272 1_554 S
O321 Co313 2.135 . S
Co322 O323 2.216 . S
Co322 O324 2.091 . S
Co322 O326 2.004 . S
Co322 O332 2.021 . S
Co322 O334 2.137 . S
Co322 O335 2.244 . S
O323 Co322 2.216 . S
O323 C330 1.247 . S
O324 Co322 2.091 . S
O324 C330 1.261 . S
C325 O334 1.247 . S
C325 O335 1.272 . S
O326 Co322 2.004 . S
O326 C331 1.259 . S
Co327 O328 2.061 . S
Co327 O333 2.052 . S
Co327 O335 2.135 . S
O328 Co327 2.061 . S
O328 C331 1.235 . S
C329 O332 1.238 . S
C329 O333 1.241 . S
C330 O323 1.247 . S
C330 O324 1.261 . S
C331 O326 1.259 . S
C331 O328 1.235 . S
O332 Co322 2.021 . S
O332 C329 1.238 . S
O333 Co327 2.052 . S
O333 C329 1.241 . S
O334 Co322 2.137 . S
O334 C325 1.247 . S
O335 Co322 2.244 . S
O335 C325 1.272 . S
O335 Co327 2.135 . S
Co336 O337 2.216 . S
Co336 O338 2.091 . S
Co336 O340 2.004 . S
Co336 O346 2.021 . S
Co336 O348 2.137 . S
Co336 O349 2.244 . S
O337 Co336 2.216 . S
O337 C344 1.247 . S
O338 Co336 2.091 . S
O338 C344 1.261 . S
C339 O348 1.247 . S
C339 O349 1.272 . S
O340 Co336 2.004 . S
O340 C345 1.259 . S
Co341 O342 2.061 . S
Co341 O347 2.052 . S
Co341 O349 2.135 . S
O342 Co341 2.061 . S
O342 C345 1.235 . S
C343 O346 1.238 . S
C343 O347 1.241 . S
C344 O337 1.247 . S
C344 O338 1.261 . S
C345 O340 1.259 . S
C345 O342 1.235 . S
O346 Co336 2.021 . S
O346 C343 1.238 . S
O347 Co341 2.052 . S
O347 C343 1.241 . S
O348 Co336 2.137 . S
O348 C339 1.247 . S
O349 Co336 2.244 . S
O349 C339 1.272 . S
O349 Co341 2.135 . S
Co350 O351 2.216 . S
Co350 O352 2.091 . S
Co350 O354 2.004 . S
Co350 O360 2.021 . S
Co350 O362 2.137 . S
Co350 O363 2.244 . S
O351 Co350 2.216 . S
O351 C358 1.247 . S
O352 Co350 2.091 . S
O352 C358 1.261 . S
C353 O362 1.247 . S
C353 O363 1.272 . S
O354 Co350 2.004 . S
O354 C359 1.259 . S
Co355 O356 2.061 . S
Co355 O361 2.052 . S
Co355 O363 2.135 . S
O356 Co355 2.061 . S
O356 C359 1.235 . S
C357 O360 1.238 . S
C357 O361 1.241 . S
C358 O351 1.247 . S
C358 O352 1.261 . S
C359 O354 1.259 . S
C359 O356 1.235 . S
O360 Co350 2.021 . S
O360 C357 1.238 . S
O361 Co355 2.052 . S
O361 C357 1.241 . S
O362 Co350 2.137 . S
O362 C353 1.247 . S
O363 Co350 2.244 . S
O363 C353 1.272 . S
O363 Co355 2.135 . S
Co364 O365 2.216 . S
Co364 O366 2.091 . S
Co364 O368 2.004 . S
Co364 O374 2.021 . S
Co364 O376 2.137 1_554 S
Co364 O377 2.244 . S
O365 Co364 2.216 . S
O365 C372 1.247 . S
O366 Co364 2.091 . S
O366 C372 1.261 . S
C367 O376 1.247 . S
C367 O377 1.272 1_556 S
O368 Co364 2.004 . S
O368 C373 1.259 . S
Co369 O370 2.061 . S
Co369 O375 2.052 . S
Co369 O377 2.135 . S
O370 Co369 2.061 . S
O370 C373 1.235 . S
C371 O374 1.238 . S
C371 O375 1.241 . S
C372 O365 1.247 . S
C372 O366 1.261 . S
C373 O368 1.259 . S
C373 O370 1.235 . S
O374 Co364 2.021 . S
O374 C371 1.238 . S
O375 Co369 2.052 . S
O375 C371 1.241 . S
O376 Co364 2.137 1_556 S
O376 C367 1.247 . S
O377 Co364 2.244 . S
O377 C367 1.272 1_554 S
O377 Co369 2.135 . S
Co378 O379 2.216 . S
Co378 O380 2.091 . S
Co378 O382 2.004 . S
Co378 O388 2.021 . S
Co378 O390 2.137 . S
Co378 O391 2.244 . S
O379 Co378 2.216 . S
O379 C386 1.247 . S
O380 Co378 2.091 . S
O380 C386 1.261 . S
C381 O390 1.247 . S
C381 O391 1.272 . S
O382 Co378 2.004 . S
O382 C387 1.259 . S
Co383 O384 2.061 . S
Co383 O389 2.052 . S
Co383 O391 2.135 . S
O384 Co383 2.061 . S
O384 C387 1.235 . S
C385 O388 1.238 . S
C385 O389 1.241 . S
C386 O379 1.247 . S
C386 O380 1.261 . S
C387 O382 1.259 . S
C387 O384 1.235 . S
O388 Co378 2.021 . S
O388 C385 1.238 . S
O389 Co383 2.052 . S
O389 C385 1.241 . S
O390 Co378 2.137 . S
O390 C381 1.247 . S
O391 Co378 2.244 . S
O391 C381 1.272 . S
O391 Co383 2.135 . S
Co392 O393 2.216 . S
Co392 O394 2.091 . S
Co392 O396 2.004 . S
Co392 O402 2.021 . S
Co392 O404 2.137 . S
Co392 O405 2.244 . S
O393 Co392 2.216 . S
O393 C400 1.247 . S
O394 Co392 2.091 . S
O394 C400 1.261 . S
C395 O404 1.247 . S
C395 O405 1.272 . S
O396 Co392 2.004 . S
O396 C401 1.259 . S
Co397 O398 2.061 . S
Co397 O403 2.052 . S
Co397 O405 2.135 . S
O398 Co397 2.061 . S
O398 C401 1.235 . S
C399 O402 1.238 . S
C399 O403 1.241 . S
C400 O393 1.247 . S
C400 O394 1.261 . S
C401 O396 1.259 . S
C401 O398 1.235 . S
O402 Co392 2.021 . S
O402 C399 1.238 . S
O403 Co397 2.052 . S
O403 C399 1.241 . S
O404 Co392 2.137 . S
O404 C395 1.247 . S
O405 Co392 2.244 . S
O405 C395 1.272 . S
O405 Co397 2.135 . S
Co406 O407 2.216 . S
Co406 O408 2.091 . S
Co406 O410 2.004 . S
Co406 O416 2.021 . S
Co406 O418 2.137 . S
Co406 O419 2.244 . S
O407 Co406 2.216 . S
O407 C414 1.247 . S
O408 Co406 2.091 . S
O408 C414 1.261 . S
C409 O418 1.247 . S
C409 O419 1.272 . S
O410 Co406 2.004 . S
O410 C415 1.259 . S
Co411 O412 2.061 . S
Co411 O417 2.052 . S
Co411 O419 2.135 . S
O412 Co411 2.061 . S
O412 C415 1.235 . S
C413 O416 1.238 . S
C413 O417 1.241 . S
C414 O407 1.247 . S
C414 O408 1.261 . S
C415 O410 1.259 . S
C415 O412 1.235 . S
O416 Co406 2.021 . S
O416 C413 1.238 . S
O417 Co411 2.052 . S
O417 C413 1.241 . S
O418 Co406 2.137 . S
O418 C409 1.247 . S
O419 Co406 2.244 . S
O419 C409 1.272 . S
O419 Co411 2.135 . S
Co420 O421 2.216 . S
Co420 O422 2.091 . S
Co420 O424 2.004 . S
Co420 O430 2.021 1_554 S
Co420 O432 2.137 . S
Co420 O433 2.244 . S
O421 Co420 2.216 . S
O421 C428 1.247 . S
O422 Co420 2.091 . S
O422 C428 1.261 . S
C423 O432 1.247 . S
C423 O433 1.272 . S
O424 Co420 2.004 . S
O424 C429 1.259 . S
Co425 O426 2.061 . S
Co425 O431 2.052 1_554 S
Co425 O433 2.135 . S
O426 Co425 2.061 . S
O426 C429 1.235 . S
C427 O430 1.238 . S
C427 O431 1.241 . S
C428 O421 1.247 . S
C428 O422 1.261 . S
C429 O424 1.259 . S
C429 O426 1.235 . S
O430 Co420 2.021 1_556 S
O430 C427 1.238 . S
O431 Co425 2.052 1_556 S
O431 C427 1.241 . S
O432 Co420 2.137 . S
O432 C423 1.247 . S
O433 Co420 2.244 . S
O433 C423 1.272 . S
O433 Co425 2.135 . S
Co434 O435 2.216 . S
Co434 O436 2.091 . S
Co434 O438 2.004 . S
Co434 O444 2.021 . S
Co434 O446 2.137 . S
Co434 O447 2.244 . S
O435 Co434 2.216 . S
O435 C442 1.247 . S
O436 Co434 2.091 . S
O436 C442 1.261 . S
C437 O446 1.247 . S
C437 O447 1.272 . S
O438 Co434 2.004 . S
O438 C443 1.259 . S
Co439 O440 2.061 . S
Co439 O445 2.052 . S
Co439 O447 2.135 . S
O440 Co439 2.061 . S
O440 C443 1.235 . S
C441 O444 1.238 . S
C441 O445 1.241 . S
C442 O435 1.247 . S
C442 O436 1.261 . S
C443 O438 1.259 . S
C443 O440 1.235 . S
O444 Co434 2.021 . S
O444 C441 1.238 . S
O445 Co439 2.052 . S
O445 C441 1.241 . S
O446 Co434 2.137 . S
O446 C437 1.247 . S
O447 Co434 2.244 . S
O447 C437 1.272 . S
O447 Co439 2.135 . S
C448 C449 1.387 . S
C448 H452 0.950 . S
C448 C457 1.390 . S
C449 C448 1.387 . S
C449 C451 1.387 . S
H450 C457 0.950 . S
C451 C449 1.387 . S
C451 C453 1.390 . S
C451 H455 0.950 . S
H452 C448 0.950 . S
C453 C451 1.390 . S
C453 C454 1.387 1_556 S
C453 H456 0.950 1_556 S
C454 C453 1.387 1_554 S
C454 C457 1.382 1_554 S
H455 C451 0.950 . S
H456 C453 0.950 1_554 S
C457 C448 1.390 . S
C457 H450 0.950 . S
C457 C454 1.382 1_556 S
C458 C459 1.387 . S
C458 H462 0.950 . S
C458 C467 1.390 . S
C459 C458 1.387 . S
C459 C461 1.387 . S
H460 C467 0.950 . S
C461 C459 1.387 . S
C461 C463 1.390 . S
C461 H465 0.950 . S
H462 C458 0.950 . S
C463 C461 1.390 . S
C463 C464 1.387 . S
C463 H466 0.950 . S
C464 C463 1.387 . S
C464 C467 1.387 . S
H465 C461 0.950 . S
H466 C463 0.950 . S
C467 C458 1.390 . S
C467 H460 0.950 . S
C467 C464 1.387 . S
C468 C469 1.387 . S
C468 H472 0.950 . S
C468 C477 1.390 . S
C469 C468 1.387 . S
C469 C471 1.387 . S
H470 C477 0.950 . S
C471 C469 1.387 . S
C471 C473 1.390 . S
C471 H475 0.950 . S
H472 C468 0.950 . S
C473 C471 1.390 . S
C473 C474 1.387 . S
C473 H476 0.950 . S
C474 C473 1.387 . S
C474 C477 1.387 . S
H475 C471 0.950 . S
H476 C473 0.950 . S
C477 C468 1.390 . S
C477 H470 0.950 . S
C477 C474 1.387 . S
C478 C479 1.387 . S
C478 H482 0.950 . S
C478 C487 1.390 . S
C479 C478 1.387 . S
C479 C481 1.387 . S
H480 C487 0.950 . S
C481 C479 1.387 . S
C481 C483 1.390 . S
C481 H485 0.950 . S
H482 C478 0.950 . S
C483 C481 1.390 . S
C483 C484 1.387 . S
C483 H486 0.950 . S
C484 C483 1.387 . S
C484 C487 1.387 . S
H485 C481 0.950 . S
H486 C483 0.950 . S
C487 C478 1.390 . S
C487 H480 0.950 . S
C487 C484 1.387 . S
C488 C489 1.387 . S
C488 H492 0.950 . S
C488 C497 1.390 . S
C489 C488 1.387 . S
C489 C491 1.387 . S
H490 C497 0.950 . S
C491 C489 1.387 . S
C491 C493 1.390 . S
C491 H495 0.950 . S
H492 C488 0.950 . S
C493 C491 1.390 . S
C493 C494 1.387 . S
C493 H496 0.950 . S
C494 C493 1.387 . S
C494 C497 1.387 . S
H495 C491 0.950 . S
H496 C493 0.950 . S
C497 C488 1.390 . S
C497 H490 0.950 . S
C497 C494 1.387 . S
C498 C499 1.387 . S
C498 H502 0.950 . S
C498 C507 1.390 . S
C499 C498 1.387 . S
C499 C501 1.387 . S
H500 C507 0.950 . S
C501 C499 1.387 . S
C501 C503 1.390 1_556 S
C501 H505 0.950 . S
H502 C498 0.950 . S
C503 C501 1.390 1_554 S
C503 C504 1.388 . S
C503 H506 0.950 . S
C504 C503 1.388 . S
C504 C507 1.385 1_554 S
H505 C501 0.950 . S
H506 C503 0.950 . S
C507 C498 1.390 . S
C507 H500 0.950 . S
C507 C504 1.385 1_556 S
C508 C509 1.387 . S
C508 H512 0.950 . S
C508 C517 1.390 . S
C509 C508 1.387 . S
C509 C511 1.387 . S
H510 C517 0.950 . S
C511 C509 1.387 . S
C511 C513 1.390 . S
C511 H515 0.950 . S
H512 C508 0.950 . S
C513 C511 1.390 . S
C513 C514 1.387 . S
C513 H516 0.950 . S
C514 C513 1.387 . S
C514 C517 1.387 . S
H515 C511 0.950 . S
H516 C513 0.950 . S
C517 C508 1.390 . S
C517 H510 0.950 . S
C517 C514 1.387 . S
C518 C519 1.387 . S
C518 H522 0.950 . S
C518 C527 1.390 . S
C519 C518 1.387 . S
C519 C521 1.387 . S
H520 C527 0.950 . S
C521 C519 1.387 . S
C521 C523 1.390 . S
C521 H525 0.950 . S
H522 C518 0.950 . S
C523 C521 1.390 . S
C523 C524 1.387 . S
C523 H526 0.950 . S
C524 C523 1.387 . S
C524 C527 1.387 . S
H525 C521 0.950 . S
H526 C523 0.950 . S
C527 C518 1.390 . S
C527 H520 0.950 . S
C527 C524 1.387 . S
C528 C529 1.387 . S
C528 H532 0.950 . S
C528 C537 1.390 . S
C529 C528 1.387 . S
C529 C531 1.387 . S
H530 C537 0.950 . S
C531 C529 1.387 . S
C531 C533 1.390 . S
C531 H535 0.950 . S
H532 C528 0.950 . S
C533 C531 1.390 . S
C533 C534 1.387 . S
C533 H536 0.950 . S
C534 C533 1.387 . S
C534 C537 1.387 . S
H535 C531 0.950 . S
H536 C533 0.950 . S
C537 C528 1.390 . S
C537 H530 0.950 . S
C537 C534 1.387 . S
C538 C539 1.387 . S
C538 H542 0.950 . S
C538 C547 1.390 . S
C539 C538 1.387 . S
C539 C541 1.387 . S
H540 C547 0.950 . S
C541 C539 1.387 . S
C541 C543 1.390 . S
C541 H545 0.950 . S
H542 C538 0.950 . S
C543 C541 1.390 . S
C543 C544 1.387 . S
C543 H546 0.950 . S
C544 C543 1.387 . S
C544 C547 1.387 . S
H545 C541 0.950 . S
H546 C543 0.950 . S
C547 C538 1.390 . S
C547 H540 0.950 . S
C547 C544 1.387 . S
C548 C549 1.387 . S
C548 H552 0.950 . S
C548 C557 1.390 1_556 S
C549 C548 1.387 . S
C549 C551 1.387 . S
H550 C557 0.950 . S
C551 C549 1.387 . S
C551 C553 1.390 . S
C551 H555 0.950 . S
H552 C548 0.950 . S
C553 C551 1.390 . S
C553 C554 1.384 1_556 S
C553 H556 0.950 . S
C554 C553 1.384 1_554 S
C554 C557 1.389 . S
H555 C551 0.950 . S
H556 C553 0.950 . S
C557 C548 1.390 1_554 S
C557 H550 0.950 . S
C557 C554 1.389 . S
C558 C559 1.387 . S
C558 H562 0.950 . S
C558 C567 1.390 . S
C559 C558 1.387 . S
C559 C561 1.387 . S
H560 C567 0.950 . S
C561 C559 1.387 . S
C561 C563 1.390 . S
C561 H565 0.950 . S
H562 C558 0.950 . S
C563 C561 1.390 . S
C563 C564 1.387 . S
C563 H566 0.950 . S
C564 C563 1.387 . S
C564 C567 1.387 . S
H565 C561 0.950 . S
H566 C563 0.950 . S
C567 C558 1.390 . S
C567 H560 0.950 . S
C567 C564 1.387 . S
C568 C569 1.387 . S
C568 H572 0.950 . S
C568 C577 1.390 . S
C569 C568 1.387 . S
C569 C571 1.387 . S
H570 C577 0.950 . S
C571 C569 1.387 . S
C571 C573 1.390 . S
C571 H575 0.950 . S
H572 C568 0.950 . S
C573 C571 1.390 . S
C573 C574 1.387 . S
C573 H576 0.950 . S
C574 C573 1.387 . S
C574 C577 1.387 . S
H575 C571 0.950 . S
H576 C573 0.950 . S
C577 C568 1.390 . S
C577 H570 0.950 . S
C577 C574 1.387 . S
C578 C579 1.387 . S
C578 H582 0.950 . S
C578 C587 1.390 . S
C579 C578 1.387 . S
C579 C581 1.387 . S
H580 C587 0.950 . S
C581 C579 1.387 . S
C581 C583 1.390 . S
C581 H585 0.950 . S
H582 C578 0.950 . S
C583 C581 1.390 . S
C583 C584 1.387 . S
C583 H586 0.950 . S
C584 C583 1.387 . S
C584 C587 1.387 . S
H585 C581 0.950 . S
H586 C583 0.950 . S
C587 C578 1.390 . S
C587 H580 0.950 . S
C587 C584 1.387 . S
C588 C589 1.387 . S
C588 H592 0.950 . S
C588 C597 1.390 . S
C589 C588 1.387 . S
C589 C591 1.387 . S
H590 C597 0.950 . S
C591 C589 1.387 . S
C591 C593 1.390 . S
C591 H595 0.950 . S
H592 C588 0.950 . S
C593 C591 1.390 . S
C593 C594 1.387 . S
C593 H596 0.950 . S
C594 C593 1.387 . S
C594 C597 1.387 . S
H595 C591 0.950 . S
H596 C593 0.950 . S
C597 C588 1.390 . S
C597 H590 0.950 . S
C597 C594 1.387 . S
C598 C599 1.387 . S
C598 H602 0.950 . S
C598 C607 1.390 . S
C599 C598 1.387 . S
C599 C601 1.387 . S
H600 C607 0.950 . S
C601 C599 1.387 . S
C601 C603 1.390 1_556 S
C601 H605 0.950 . S
H602 C598 0.950 . S
C603 C601 1.390 1_554 S
C603 C604 1.388 . S
C603 H606 0.950 . S
C604 C603 1.388 . S
C604 C607 1.386 1_554 S
H605 C601 0.950 . S
H606 C603 0.950 . S
C607 C598 1.390 . S
C607 H600 0.950 . S
C607 C604 1.386 1_556 S
C608 C609 1.387 . S
C608 H612 0.950 . S
C608 C617 1.390 . S
C609 C608 1.387 . S
C609 C611 1.387 . S
H610 C617 0.950 . S
C611 C609 1.387 . S
C611 C613 1.390 . S
C611 H615 0.950 . S
H612 C608 0.950 . S
C613 C611 1.390 . S
C613 C614 1.387 . S
C613 H616 0.950 . S
C614 C613 1.387 . S
C614 C617 1.387 . S
H615 C611 0.950 . S
H616 C613 0.950 . S
C617 C608 1.390 . S
C617 H610 0.950 . S
C617 C614 1.387 . S
C618 C619 1.387 . S
C618 H622 0.950 . S
C618 C627 1.390 1_565 S
C619 C618 1.387 . S
C619 C621 1.387 . S
H620 C627 0.950 . S
C621 C619 1.387 . S
C621 C623 1.390 1_565 S
C621 H625 0.950 . S
H622 C618 0.950 . S
C623 C621 1.390 1_545 S
C623 C624 1.387 . S
C623 H626 0.950 . S
C624 C623 1.387 . S
C624 C627 1.387 . S
H625 C621 0.950 . S
H626 C623 0.950 . S
C627 C618 1.390 1_545 S
C627 H620 0.950 . S
C627 C624 1.387 . S
C628 C629 1.387 . S
C628 H632 0.950 . S
C628 C637 1.390 . S
C629 C628 1.387 . S
C629 C631 1.387 . S
H630 C637 0.950 . S
C631 C629 1.387 . S
C631 C633 1.390 . S
C631 H635 0.950 . S
H632 C628 0.950 . S
C633 C631 1.390 . S
C633 C634 1.387 . S
C633 H636 0.950 . S
C634 C633 1.387 . S
C634 C637 1.387 . S
H635 C631 0.950 . S
H636 C633 0.950 . S
C637 C628 1.390 . S
C637 H630 0.950 . S
C637 C634 1.387 . S
C638 C639 1.387 . S
C638 H642 0.950 . S
C638 C647 1.390 1_545 S
C639 C638 1.387 . S
C639 C641 1.387 . S
H640 C647 0.950 . S
C641 C639 1.387 . S
C641 C643 1.390 1_545 S
C641 H645 0.950 . S
H642 C638 0.950 . S
C643 C641 1.390 1_565 S
C643 C644 1.387 . S
C643 H646 0.950 . S
C644 C643 1.387 . S
C644 C647 1.387 . S
H645 C641 0.950 . S
H646 C643 0.950 . S
C647 C638 1.390 1_565 S
C647 H640 0.950 . S
C647 C644 1.387 . S
C648 C649 1.387 . S
C648 H652 0.950 . S
C648 C657 1.390 . S
C649 C648 1.387 . S
C649 C651 1.387 . S
H650 C657 0.950 . S
C651 C649 1.387 . S
C651 C653 1.390 . S
C651 H655 0.950 . S
H652 C648 0.950 . S
C653 C651 1.390 . S
C653 C654 1.387 . S
C653 H656 0.950 . S
C654 C653 1.387 . S
C654 C657 1.387 . S
H655 C651 0.950 . S
H656 C653 0.950 . S
C657 C648 1.390 . S
C657 H650 0.950 . S
C657 C654 1.387 . S
C658 C659 1.387 . S
C658 H662 0.950 . S
C658 C667 1.390 1_545 S
C659 C658 1.387 . S
C659 C661 1.387 . S
H660 C667 0.950 . S
C661 C659 1.387 . S
C661 C663 1.390 1_545 S
C661 H665 0.950 . S
H662 C658 0.950 . S
C663 C661 1.390 1_565 S
C663 C664 1.387 . S
C663 H666 0.950 . S
C664 C663 1.387 . S
C664 C667 1.387 . S
H665 C661 0.950 . S
H666 C663 0.950 . S
C667 C658 1.390 1_565 S
C667 H660 0.950 . S
C667 C664 1.387 . S
C668 C669 1.387 . S
C668 H672 0.950 . S
C668 C677 1.390 . S
C669 C668 1.387 . S
C669 C671 1.387 . S
H670 C677 0.950 . S
C671 C669 1.387 . S
C671 C673 1.390 . S
C671 H675 0.950 . S
H672 C668 0.950 . S
C673 C671 1.390 . S
C673 C674 1.387 . S
C673 H676 0.950 . S
C674 C673 1.387 . S
C674 C677 1.387 . S
H675 C671 0.950 . S
H676 C673 0.950 . S
C677 C668 1.390 . S
C677 H670 0.950 . S
C677 C674 1.387 . S
C678 C679 1.387 . S
C678 H682 0.950 . S
C678 C687 1.390 1_545 S
C679 C678 1.387 . S
C679 C681 1.387 . S
H680 C687 0.950 . S
C681 C679 1.387 . S
C681 C683 1.390 1_545 S
C681 H685 0.950 . S
H682 C678 0.950 . S
C683 C681 1.390 1_565 S
C683 C684 1.387 . S
C683 H686 0.950 . S
C684 C683 1.387 . S
C684 C687 1.387 . S
H685 C681 0.950 . S
H686 C683 0.950 . S
C687 C678 1.390 1_565 S
C687 H680 0.950 . S
C687 C684 1.387 . S
C688 C689 1.387 . S
C688 H692 0.950 . S
C688 C697 1.390 . S
C689 C688 1.387 . S
C689 C691 1.387 . S
H690 C697 0.950 . S
C691 C689 1.387 . S
C691 C693 1.390 . S
C691 H695 0.950 . S
H692 C688 0.950 . S
C693 C691 1.390 . S
C693 C694 1.387 . S
C693 H696 0.950 . S
C694 C693 1.387 . S
C694 C697 1.387 . S
H695 C691 0.950 . S
H696 C693 0.950 . S
C697 C688 1.390 . S
C697 H690 0.950 . S
C697 C694 1.387 . S
C698 C699 1.387 . S
C698 H702 0.950 . S
C698 C707 1.390 . S
C699 C698 1.387 . S
C699 C701 1.387 . S
H700 C707 0.950 . S
C701 C699 1.387 . S
C701 C703 1.390 . S
C701 H705 0.950 . S
H702 C698 0.950 . S
C703 C701 1.390 . S
C703 C704 1.387 . S
C703 H706 0.950 . S
C704 C703 1.387 . S
C704 C707 1.387 . S
H705 C701 0.950 . S
H706 C703 0.950 . S
C707 C698 1.390 . S
C707 H700 0.950 . S
C707 C704 1.387 . S
C708 C709 1.387 . S
C708 H712 0.950 . S
C708 C717 1.390 . S
C709 C708 1.387 . S
C709 C711 1.387 . S
H710 C717 0.950 . S
C711 C709 1.387 . S
C711 C713 1.390 . S
C711 H715 0.950 . S
H712 C708 0.950 . S
C713 C711 1.390 . S
C713 C714 1.387 . S
C713 H716 0.950 . S
C714 C713 1.387 . S
C714 C717 1.387 . S
H715 C711 0.950 . S
H716 C713 0.950 . S
C717 C708 1.390 . S
C717 H710 0.950 . S
C717 C714 1.387 . S
C718 C719 1.387 . S
C718 H722 0.950 . S
C718 C727 1.390 . S
C719 C718 1.387 . S
C719 C721 1.387 . S
H720 C727 0.950 . S
C721 C719 1.387 . S
C721 C723 1.390 . S
C721 H725 0.950 . S
H722 C718 0.950 . S
C723 C721 1.390 . S
C723 C724 1.387 . S
C723 H726 0.950 . S
C724 C723 1.387 . S
C724 C727 1.387 . S
H725 C721 0.950 . S
H726 C723 0.950 . S
C727 C718 1.390 . S
C727 H720 0.950 . S
C727 C724 1.387 . S
C728 C729 1.387 . S
C728 H732 0.950 . S
C728 C737 1.390 . S
C729 C728 1.387 . S
C729 C731 1.387 . S
H730 C737 0.950 . S
C731 C729 1.387 . S
C731 C733 1.390 . S
C731 H735 0.950 . S
H732 C728 0.950 . S
C733 C731 1.390 . S
C733 C734 1.387 . S
C733 H736 0.950 . S
C734 C733 1.387 . S
C734 C737 1.387 . S
H735 C731 0.950 . S
H736 C733 0.950 . S
C737 C728 1.390 . S
C737 H730 0.950 . S
C737 C734 1.387 . S
C738 C739 1.387 . S
C738 H742 0.950 . S
C738 C747 1.390 . S
C739 C738 1.387 . S
C739 C741 1.387 . S
H740 C747 0.950 . S
C741 C739 1.387 . S
C741 C743 1.390 . S
C741 H745 0.950 . S
H742 C738 0.950 . S
C743 C741 1.390 . S
C743 C744 1.387 . S
C743 H746 0.950 . S
C744 C743 1.387 . S
C744 C747 1.387 . S
H745 C741 0.950 . S
H746 C743 0.950 . S
C747 C738 1.390 . S
C747 H740 0.950 . S
C747 C744 1.387 . S
C748 C749 1.387 . S
C748 H752 0.950 . S
C748 C757 1.390 . S
C749 C748 1.387 . S
C749 C751 1.387 . S
H750 C757 0.950 . S
C751 C749 1.387 . S
C751 C753 1.390 . S
C751 H755 0.950 . S
H752 C748 0.950 . S
C753 C751 1.390 . S
C753 C754 1.387 . S
C753 H756 0.950 . S
C754 C753 1.387 . S
C754 C757 1.387 . S
H755 C751 0.950 . S
H756 C753 0.950 . S
C757 C748 1.390 . S
C757 H750 0.950 . S
C757 C754 1.387 . S
C758 C759 1.387 . S
C758 H762 0.950 . S
C758 C767 1.390 . S
C759 C758 1.387 . S
C759 C761 1.387 . S
H760 C767 0.950 . S
C761 C759 1.387 . S
C761 C763 1.390 . S
C761 H765 0.950 . S
H762 C758 0.950 . S
C763 C761 1.390 . S
C763 C764 1.387 . S
C763 H766 0.950 . S
C764 C763 1.387 . S
C764 C767 1.387 . S
H765 C761 0.950 . S
H766 C763 0.950 . S
C767 C758 1.390 . S
C767 H760 0.950 . S
C767 C764 1.387 . S
C768 C769 1.387 . S
C768 H772 0.950 . S
C768 C777 1.390 . S
C769 C768 1.387 . S
C769 C771 1.387 . S
H770 C777 0.950 . S
C771 C769 1.387 . S
C771 C773 1.390 . S
C771 H775 0.950 . S
H772 C768 0.950 . S
C773 C771 1.390 . S
C773 C774 1.387 . S
C773 H776 0.950 . S
C774 C773 1.387 . S
C774 C777 1.387 . S
H775 C771 0.950 . S
H776 C773 0.950 . S
C777 C768 1.390 . S
C777 H770 0.950 . S
C777 C774 1.387 . S
C778 C779 1.387 . S
C778 H782 0.950 . S
C778 C787 1.390 1_455 S
C779 C778 1.387 . S
C779 C781 1.387 . S
H780 C787 0.950 . S
C781 C779 1.387 . S
C781 C783 1.390 1_455 S
C781 H785 0.950 . S
H782 C778 0.950 . S
C783 C781 1.390 1_655 S
C783 C784 1.387 . S
C783 H786 0.950 . S
C784 C783 1.387 . S
C784 C787 1.387 . S
H785 C781 0.950 . S
H786 C783 0.950 . S
C787 C778 1.390 1_655 S
C787 H780 0.950 . S
C787 C784 1.387 . S
C788 C789 1.387 . S
C788 H792 0.950 . S
C788 C797 1.390 . S
C789 C788 1.387 . S
C789 C791 1.387 . S
H790 C797 0.950 . S
C791 C789 1.387 . S
C791 C793 1.390 . S
C791 H795 0.950 . S
H792 C788 0.950 . S
C793 C791 1.390 . S
C793 C794 1.387 . S
C793 H796 0.950 . S
C794 C793 1.387 . S
C794 C797 1.387 . S
H795 C791 0.950 . S
H796 C793 0.950 . S
C797 C788 1.390 . S
C797 H790 0.950 . S
C797 C794 1.387 . S
C798 C799 1.387 . S
C798 H802 0.950 . S
C798 C807 1.390 . S
C799 C798 1.387 . S
C799 C801 1.387 . S
H800 C807 0.950 . S
C801 C799 1.387 . S
C801 C803 1.390 . S
C801 H805 0.950 . S
H802 C798 0.950 . S
C803 C801 1.390 . S
C803 C804 1.387 . S
C803 H806 0.950 . S
C804 C803 1.387 . S
C804 C807 1.387 . S
H805 C801 0.950 . S
H806 C803 0.950 . S
C807 C798 1.390 . S
C807 H800 0.950 . S
C807 C804 1.387 . S
C808 C809 1.387 . S
C808 H812 0.950 . S
C808 C817 1.390 . S
C809 C808 1.387 . S
C809 C811 1.387 . S
H810 C817 0.950 . S
C811 C809 1.387 . S
C811 C813 1.390 . S
C811 H815 0.950 . S
H812 C808 0.950 . S
C813 C811 1.390 . S
C813 C814 1.387 . S
C813 H816 0.950 . S
C814 C813 1.387 . S
C814 C817 1.387 . S
H815 C811 0.950 . S
H816 C813 0.950 . S
C817 C808 1.390 . S
C817 H810 0.950 . S
C817 C814 1.387 . S
C818 C819 1.387 . S
C818 H822 0.950 . S
C818 C827 1.390 . S
C819 C818 1.387 . S
C819 C821 1.387 . S
H820 C827 0.950 . S
C821 C819 1.387 . S
C821 C823 1.390 . S
C821 H825 0.950 . S
H822 C818 0.950 . S
C823 C821 1.390 . S
C823 C824 1.387 . S
C823 H826 0.950 . S
C824 C823 1.387 . S
C824 C827 1.387 . S
H825 C821 0.950 . S
H826 C823 0.950 . S
C827 C818 1.390 . S
C827 H820 0.950 . S
C827 C824 1.387 . S
C828 C829 1.387 . S
C828 H832 0.950 . S
C828 C837 1.390 . S
C829 C828 1.387 . S
C829 C831 1.387 . S
H830 C837 0.950 . S
C831 C829 1.387 . S
C831 C833 1.390 . S
C831 H835 0.950 . S
H832 C828 0.950 . S
C833 C831 1.390 . S
C833 C834 1.387 . S
C833 H836 0.950 . S
C834 C833 1.387 . S
C834 C837 1.387 . S
H835 C831 0.950 . S
H836 C833 0.950 . S
C837 C828 1.390 . S
C837 H830 0.950 . S
C837 C834 1.387 . S
C838 C839 1.387 . S
C838 H842 0.950 . S
C838 C847 1.390 1_655 S
C839 C838 1.387 . S
C839 C841 1.387 . S
H840 C847 0.950 . S
C841 C839 1.387 . S
C841 C843 1.390 1_655 S
C841 H845 0.950 . S
H842 C838 0.950 . S
C843 C841 1.390 1_455 S
C843 C844 1.387 . S
C843 H846 0.950 . S
C844 C843 1.387 . S
C844 C847 1.387 . S
H845 C841 0.950 . S
H846 C843 0.950 . S
C847 C838 1.390 1_455 S
C847 H840 0.950 . S
C847 C844 1.387 . S
C848 C849 1.387 . S
C848 H852 0.950 . S
C848 C857 1.390 . S
C849 C848 1.387 . S
C849 C851 1.387 . S
H850 C857 0.950 . S
C851 C849 1.387 . S
C851 C853 1.390 . S
C851 H855 0.950 . S
H852 C848 0.950 . S
C853 C851 1.390 . S
C853 C854 1.387 . S
C853 H856 0.950 . S
C854 C853 1.387 . S
C854 C857 1.387 . S
H855 C851 0.950 . S
H856 C853 0.950 . S
C857 C848 1.390 . S
C857 H850 0.950 . S
C857 C854 1.387 . S
C858 C859 1.387 . S
C858 H862 0.950 . S
C858 C867 1.390 . S
C859 C858 1.387 . S
C859 C861 1.387 . S
H860 C867 0.950 . S
C861 C859 1.387 . S
C861 C863 1.390 . S
C861 H865 0.950 . S
H862 C858 0.950 . S
C863 C861 1.390 . S
C863 C864 1.387 . S
C863 H866 0.950 . S
C864 C863 1.387 . S
C864 C867 1.387 . S
H865 C861 0.950 . S
H866 C863 0.950 . S
C867 C858 1.390 . S
C867 H860 0.950 . S
C867 C864 1.387 . S
C868 C869 1.387 . S
C868 H872 0.950 . S
C868 C877 1.390 . S
C869 C868 1.387 . S
C869 C871 1.387 . S
H870 C877 0.950 . S
C871 C869 1.387 . S
C871 C873 1.390 . S
C871 H875 0.950 . S
H872 C868 0.950 . S
C873 C871 1.390 . S
C873 C874 1.387 . S
C873 H876 0.950 . S
C874 C873 1.387 . S
C874 C877 1.387 . S
H875 C871 0.950 . S
H876 C873 0.950 . S
C877 C868 1.390 . S
C877 H870 0.950 . S
C877 C874 1.387 . S
C878 C879 1.387 . S
C878 H882 0.950 . S
C878 C887 1.390 . S
C879 C878 1.387 . S
C879 C881 1.387 . S
H880 C887 0.950 . S
C881 C879 1.387 . S
C881 C883 1.390 . S
C881 H885 0.950 . S
H882 C878 0.950 . S
C883 C881 1.390 . S
C883 C884 1.387 . S
C883 H886 0.950 . S
C884 C883 1.387 . S
C884 C887 1.387 . S
H885 C881 0.950 . S
H886 C883 0.950 . S
C887 C878 1.390 . S
C887 H880 0.950 . S
C887 C884 1.387 . S
C888 C889 1.387 . S
C888 H892 0.950 . S
C888 C897 1.390 . S
C889 C888 1.387 . S
C889 C891 1.387 . S
H890 C897 0.950 . S
C891 C889 1.387 . S
C891 C893 1.390 . S
C891 H895 0.950 . S
H892 C888 0.950 . S
C893 C891 1.390 . S
C893 C894 1.387 . S
C893 H896 0.950 . S
C894 C893 1.387 . S
C894 C897 1.387 . S
H895 C891 0.950 . S
H896 C893 0.950 . S
C897 C888 1.390 . S
C897 H890 0.950 . S
C897 C894 1.387 . S
C898 C899 1.387 . S
C898 H902 0.950 . S
C898 C907 1.390 1_655 S
C899 C898 1.387 . S
C899 C901 1.387 . S
H900 C907 0.950 . S
C901 C899 1.387 . S
C901 C903 1.390 1_655 S
C901 H905 0.950 . S
H902 C898 0.950 . S
C903 C901 1.390 1_455 S
C903 C904 1.387 . S
C903 H906 0.950 . S
C904 C903 1.387 . S
C904 C907 1.387 . S
H905 C901 0.950 . S
H906 C903 0.950 . S
C907 C898 1.390 1_455 S
C907 H900 0.950 . S
C907 C904 1.387 . S
C908 C909 1.387 . S
C908 H912 0.950 . S
C908 C917 1.390 1_655 S
C909 C908 1.387 . S
C909 C911 1.387 . S
H910 C917 0.950 . S
C911 C909 1.387 . S
C911 C913 1.390 1_655 S
C911 H915 0.950 . S
H912 C908 0.950 . S
C913 C911 1.390 1_455 S
C913 C914 1.387 . S
C913 H916 0.950 . S
C914 C913 1.387 . S
C914 C917 1.387 . S
H915 C911 0.950 . S
H916 C913 0.950 . S
C917 C908 1.390 1_455 S
C917 H910 0.950 . S
C917 C914 1.387 . S
C918 C919 1.387 . S
C918 H922 0.950 . S
C918 C927 1.390 . S
C919 C918 1.387 . S
C919 C921 1.387 . S
H920 C927 0.950 . S
C921 C919 1.387 . S
C921 C923 1.390 . S
C921 H925 0.950 . S
H922 C918 0.950 . S
C923 C921 1.390 . S
C923 C924 1.387 . S
C923 H926 0.950 . S
C924 C923 1.387 . S
C924 C927 1.387 . S
H925 C921 0.950 . S
H926 C923 0.950 . S
C927 C918 1.390 . S
C927 H920 0.950 . S
C927 C924 1.387 . S
C928 C929 1.387 . S
C928 H932 0.950 . S
C928 C937 1.390 . S
C929 C928 1.387 . S
C929 C931 1.387 . S
H930 C937 0.950 . S
C931 C929 1.387 . S
C931 C933 1.390 . S
C931 H935 0.950 . S
H932 C928 0.950 . S
C933 C931 1.390 . S
C933 C934 1.387 . S
C933 H936 0.950 . S
C934 C933 1.387 . S
C934 C937 1.387 . S
H935 C931 0.950 . S
H936 C933 0.950 . S
C937 C928 1.390 . S
C937 H930 0.950 . S
C937 C934 1.387 . S
C938 C939 1.387 . S
C938 H942 0.950 . S
C938 C947 1.390 1_565 S
C939 C938 1.387 . S
C939 C941 1.387 . S
H940 C947 0.950 . S
C941 C939 1.387 . S
C941 C943 1.390 1_565 S
C941 H945 0.950 . S
H942 C938 0.950 . S
C943 C941 1.390 1_545 S
C943 C944 1.387 . S
C943 H946 0.950 . S
C944 C943 1.387 . S
C944 C947 1.387 . S
H945 C941 0.950 . S
H946 C943 0.950 . S
C947 C938 1.390 1_545 S
C947 H940 0.950 . S
C947 C944 1.387 . S
C948 C949 1.387 . S
C948 H952 0.950 . S
C948 C957 1.390 . S
C949 C948 1.387 . S
C949 C951 1.387 . S
H950 C957 0.950 . S
C951 C949 1.387 . S
C951 C953 1.390 . S
C951 H955 0.950 . S
H952 C948 0.950 . S
C953 C951 1.390 . S
C953 C954 1.387 . S
C953 H956 0.950 . S
C954 C953 1.387 . S
C954 C957 1.387 . S
H955 C951 0.950 . S
H956 C953 0.950 . S
C957 C948 1.390 . S
C957 H950 0.950 . S
C957 C954 1.387 . S
C958 C959 1.387 . S
C958 H962 0.950 . S
C958 C967 1.390 1_545 S
C959 C958 1.387 . S
C959 C961 1.387 . S
H960 C967 0.950 . S
C961 C959 1.387 . S
C961 C963 1.390 1_545 S
C961 H965 0.950 . S
H962 C958 0.950 . S
C963 C961 1.390 1_565 S
C963 C964 1.387 . S
C963 H966 0.950 . S
C964 C963 1.387 . S
C964 C967 1.387 . S
H965 C961 0.950 . S
H966 C963 0.950 . S
C967 C958 1.390 1_565 S
C967 H960 0.950 . S
C967 C964 1.387 . S
C968 C969 1.387 . S
C968 H972 0.950 . S
C968 C977 1.390 . S
C969 C968 1.387 . S
C969 C971 1.387 . S
H970 C977 0.950 . S
C971 C969 1.387 . S
C971 C973 1.390 . S
C971 H975 0.950 . S
H972 C968 0.950 . S
C973 C971 1.390 . S
C973 C974 1.387 . S
C973 H976 0.950 . S
C974 C973 1.387 . S
C974 C977 1.387 . S
H975 C971 0.950 . S
H976 C973 0.950 . S
C977 C968 1.390 . S
C977 H970 0.950 . S
C977 C974 1.387 . S
C978 C979 1.387 . S
C978 H982 0.950 . S
C978 C987 1.390 1_545 S
C979 C978 1.387 . S
C979 C981 1.387 . S
H980 C987 0.950 . S
C981 C979 1.387 . S
C981 C983 1.390 1_545 S
C981 H985 0.950 . S
H982 C978 0.950 . S
C983 C981 1.390 1_565 S
C983 C984 1.387 . S
C983 H986 0.950 . S
C984 C983 1.387 . S
C984 C987 1.387 . S
H985 C981 0.950 . S
H986 C983 0.950 . S
C987 C978 1.390 1_565 S
C987 H980 0.950 . S
C987 C984 1.387 . S
C988 C989 1.387 . S
C988 H992 0.950 . S
C988 C997 1.390 . S
C989 C988 1.387 . S
C989 C991 1.387 . S
H990 C997 0.950 . S
C991 C989 1.387 . S
C991 C993 1.390 . S
C991 H995 0.950 . S
H992 C988 0.950 . S
C993 C991 1.390 . S
C993 C994 1.387 . S
C993 H996 0.950 . S
C994 C993 1.387 . S
C994 C997 1.387 . S
H995 C991 0.950 . S
H996 C993 0.950 . S
C997 C988 1.390 . S
C997 H990 0.950 . S
C997 C994 1.387 . S
C998 C999 1.387 . S
C998 H1002 0.950 . S
C998 C1007 1.390 1_565 S
C999 C998 1.387 . S
C999 C1001 1.387 . S
H1000 C1007 0.950 . S
C1001 C999 1.387 . S
C1001 C1003 1.390 1_565 S
C1001 H1005 0.950 . S
H1002 C998 0.950 . S
C1003 C1001 1.390 1_545 S
C1003 C1004 1.387 . S
C1003 H1006 0.950 . S
C1004 C1003 1.387 . S
C1004 C1007 1.387 . S
H1005 C1001 0.950 . S
H1006 C1003 0.950 . S
C1007 C998 1.390 1_545 S
C1007 H1000 0.950 . S
C1007 C1004 1.387 . S
C1008 C1009 1.387 . S
C1008 H1012 0.950 . S
C1008 C1017 1.390 . S
C1009 C1008 1.387 . S
C1009 C1011 1.387 . S
H1010 C1017 0.950 . S
C1011 C1009 1.387 . S
C1011 C1013 1.390 . S
C1011 H1015 0.950 . S
H1012 C1008 0.950 . S
C1013 C1011 1.390 . S
C1013 C1014 1.387 . S
C1013 H1016 0.950 . S
C1014 C1013 1.387 . S
C1014 C1017 1.387 . S
H1015 C1011 0.950 . S
H1016 C1013 0.950 . S
C1017 C1008 1.390 . S
C1017 H1010 0.950 . S
C1017 C1014 1.387 . S
C1018 C1019 1.387 . S
C1018 H1022 0.950 . S
C1018 C1027 1.390 . S
C1019 C1018 1.387 . S
C1019 C1021 1.387 . S
H1020 C1027 0.950 . S
C1021 C1019 1.387 . S
C1021 C1023 1.390 . S
C1021 H1025 0.950 . S
H1022 C1018 0.950 . S
C1023 C1021 1.390 . S
C1023 C1024 1.387 . S
C1023 H1026 0.950 . S
C1024 C1023 1.387 . S
C1024 C1027 1.387 . S
H1025 C1021 0.950 . S
H1026 C1023 0.950 . S
C1027 C1018 1.390 . S
C1027 H1020 0.950 . S
C1027 C1024 1.387 . S
C1028 C1029 1.387 . S
C1028 H1032 0.950 . S
C1028 C1037 1.390 . S
C1029 C1028 1.387 . S
C1029 C1031 1.387 . S
H1030 C1037 0.950 . S
C1031 C1029 1.387 . S
C1031 C1033 1.390 . S
C1031 H1035 0.950 . S
H1032 C1028 0.950 . S
C1033 C1031 1.390 . S
C1033 C1034 1.387 . S
C1033 H1036 0.950 . S
C1034 C1033 1.387 . S
C1034 C1037 1.387 . S
H1035 C1031 0.950 . S
H1036 C1033 0.950 . S
C1037 C1028 1.390 . S
C1037 H1030 0.950 . S
C1037 C1034 1.387 . S
C1038 C1039 1.387 . S
C1038 H1042 0.950 . S
C1038 C1047 1.390 . S
C1039 C1038 1.387 . S
C1039 C1041 1.387 . S
H1040 C1047 0.950 . S
C1041 C1039 1.387 . S
C1041 C1043 1.390 . S
C1041 H1045 0.950 . S
H1042 C1038 0.950 . S
C1043 C1041 1.390 . S
C1043 C1044 1.387 . S
C1043 H1046 0.950 . S
C1044 C1043 1.387 . S
C1044 C1047 1.387 . S
H1045 C1041 0.950 . S
H1046 C1043 0.950 . S
C1047 C1038 1.390 . S
C1047 H1040 0.950 . S
C1047 C1044 1.387 . S
C1048 C1049 1.387 . S
C1048 H1052 0.950 . S
C1048 C1057 1.390 . S
C1049 C1048 1.387 . S
C1049 C1051 1.387 . S
H1050 C1057 0.950 . S
C1051 C1049 1.387 . S
C1051 C1053 1.390 . S
C1051 H1055 0.950 . S
H1052 C1048 0.950 . S
C1053 C1051 1.390 . S
C1053 C1054 1.387 . S
C1053 H1056 0.950 . S
C1054 C1053 1.387 . S
C1054 C1057 1.387 . S
H1055 C1051 0.950 . S
H1056 C1053 0.950 . S
C1057 C1048 1.390 . S
C1057 H1050 0.950 . S
C1057 C1054 1.387 . S
C1058 C1059 1.387 . S
C1058 H1062 0.950 . S
C1058 C1067 1.390 . S
C1059 C1058 1.387 . S
C1059 C1061 1.387 . S
H1060 C1067 0.950 . S
C1061 C1059 1.387 . S
C1061 C1063 1.390 . S
C1061 H1065 0.950 . S
H1062 C1058 0.950 . S
C1063 C1061 1.390 . S
C1063 C1064 1.387 . S
C1063 H1066 0.950 . S
C1064 C1063 1.387 . S
C1064 C1067 1.387 . S
H1065 C1061 0.950 . S
H1066 C1063 0.950 . S
C1067 C1058 1.390 . S
C1067 H1060 0.950 . S
C1067 C1064 1.387 . S
C1068 C1069 1.387 . S
C1068 H1072 0.950 . S
C1068 C1077 1.390 . S
C1069 C1068 1.387 . S
C1069 C1071 1.387 . S
H1070 C1077 0.950 . S
C1071 C1069 1.387 . S
C1071 C1073 1.390 . S
C1071 H1075 0.950 . S
H1072 C1068 0.950 . S
C1073 C1071 1.390 . S
C1073 C1074 1.387 . S
C1073 H1076 0.950 . S
C1074 C1073 1.387 . S
C1074 C1077 1.387 . S
H1075 C1071 0.950 . S
H1076 C1073 0.950 . S
C1077 C1068 1.390 . S
C1077 H1070 0.950 . S
C1077 C1074 1.387 . S
C1078 C1079 1.387 . S
C1078 H1082 0.950 . S
C1078 C1087 1.390 . S
C1079 C1078 1.387 . S
C1079 C1081 1.387 . S
H1080 C1087 0.950 . S
C1081 C1079 1.387 . S
C1081 C1083 1.390 . S
C1081 H1085 0.950 . S
H1082 C1078 0.950 . S
C1083 C1081 1.390 . S
C1083 C1084 1.387 . S
C1083 H1086 0.950 . S
C1084 C1083 1.387 . S
C1084 C1087 1.387 . S
H1085 C1081 0.950 . S
H1086 C1083 0.950 . S
C1087 C1078 1.390 . S
C1087 H1080 0.950 . S
C1087 C1084 1.387 . S
C449 C106 1.608 . S
C454 C8 1.612 . S
C459 C22 1.607 . S
C464 C64 1.607 . S
C469 C78 1.606 . S
C474 C36 1.607 . S
C479 C50 1.607 . S
C484 C92 1.607 . S
C489 C120 1.606 . S
C494 C218 1.606 . S
C499 C134 1.606 . S
C504 C176 1.607 . S
C509 C148 1.608 . S
C514 C190 1.608 . S
C519 C162 1.608 . S
C524 C204 1.607 . S
C529 C232 1.606 . S
C534 C330 1.606 . S
C539 C246 1.606 . S
C544 C288 1.606 . S
C549 C302 1.606 . S
C554 C260 1.608 . S
C559 C316 1.608 . S
C564 C274 1.608 . S
C569 C344 1.608 . S
C574 C442 1.608 . S
C579 C400 1.606 . S
C584 C358 1.607 . S
C589 C414 1.608 . S
C594 C372 1.607 . S
C599 C386 1.606 . S
C604 C428 1.607 . S
C609 C7 0.850 . S
C614 C91 0.850 . S
C619 C21 0.849 . S
C624 C105 0.849 1_554 S
C629 C63 0.849 . S
C634 C35 0.849 . S
C639 C49 0.849 . S
C644 C77 0.849 . S
C649 C119 0.850 . S
C654 C203 0.850 . S
C659 C133 0.850 1_554 S
C664 C217 0.850 . S
C669 C175 0.849 . S
C674 C147 0.849 . S
C679 C189 0.850 . S
C684 C161 0.850 . S
C689 C231 0.849 . S
C694 C315 0.849 . S
C699 C329 0.849 . S
C704 C245 0.849 . S
C709 C287 0.850 . S
C714 C259 0.850 . S
C719 C273 0.849 . S
C724 C301 0.849 1_554 S
C729 C343 0.850 . S
C734 C427 0.850 . S
C739 C357 0.849 . S
C744 C441 0.849 . S
C749 C399 0.849 . S
C754 C371 0.849 . S
C759 C413 0.849 . S
C764 C385 0.849 1_554 S
C769 C9 1.512 . S
C774 C429 1.513 . S
C779 C23 1.512 . S
C784 C219 1.513 . S
C789 C37 1.513 . S
C794 C401 1.512 . S
C799 C51 1.513 . S
C804 C191 1.512 . S
C809 C65 1.512 . S
C814 C373 1.513 . S
C819 C79 1.512 . S
C824 C163 1.512 . S
C829 C93 1.512 . S
C834 C345 1.512 . S
C839 C135 1.512 . S
C844 C107 1.513 . S
C849 C317 1.512 . S
C854 C121 1.512 . S
C859 C149 1.512 . S
C864 C289 1.513 . S
C869 C261 1.512 . S
C874 C177 1.512 . S
C879 C233 1.512 . S
C884 C205 1.513 . S
C889 C247 1.513 . S
C894 C443 1.511 . S
C899 C275 1.511 . S
C904 C415 1.513 . S
C909 C303 1.511 . S
C914 C387 1.513 . S
C919 C359 1.511 . S
C924 C331 1.513 . S
C929 C3 1.593 . S
C934 C87 1.593 . S
C939 C17 1.593 . S
C944 C101 1.593 . S
C949 C59 1.593 . S
C954 C31 1.593 . S
C959 C45 1.593 1_554 S
C964 C73 1.593 . S
C969 C115 1.593 . S
C974 C199 1.593 . S
C979 C129 1.593 . S
C984 C213 1.593 . S
C989 C171 1.593 . S
C994 C143 1.593 . S
C999 C157 1.593 . S
C1004 C185 1.593 1_554 S
C1009 C311 1.593 . S
C1014 C227 1.593 . S
C1019 C325 1.593 . S
C1024 C241 1.593 1_554 S
C1029 C283 1.593 . S
C1034 C255 1.593 . S
C1039 C297 1.593 . S
C1044 C269 1.593 . S
C1049 C423 1.593 . S
C1054 C339 1.593 . S
C1059 C437 1.593 1_554 S
C1064 C353 1.593 . S
C1069 C367 1.593 . S
C1074 C395 1.593 . S
C1079 C409 1.593 . S
C1084 C381 1.593 . S
