# Generated by pormake.
# Topology wje, (4)-cn, num edge types: 1
# Building blocks:
#     Node 0, Type 0, BuildingBlock: TATPOV_clean_sbu_0, # of connection points: 4
#     Node 1, Type 0, BuildingBlock: TATPOV_clean_sbu_0, # of connection points: 4
#     Node 2, Type 0, BuildingBlock: TATPOV_clean_sbu_0, # of connection points: 4
#     Node 3, Type 0, BuildingBlock: TATPOV_clean_sbu_0, # of connection points: 4
#     Node 4, Type 0, BuildingBlock: TATPOV_clean_sbu_0, # of connection points: 4
#     Node 5, Type 0, BuildingBlock: TATPOV_clean_sbu_0, # of connection points: 4
#     Node 6, Type 0, BuildingBlock: TATPOV_clean_sbu_0, # of connection points: 4
#     Node 7, Type 0, BuildingBlock: TATPOV_clean_sbu_0, # of connection points: 4
#     Node 8, Type 0, BuildingBlock: TATPOV_clean_sbu_0, # of connection points: 4
#     Node 9, Type 0, BuildingBlock: TATPOV_clean_sbu_0, # of connection points: 4
#     Node 10, Type 0, BuildingBlock: TATPOV_clean_sbu_0, # of connection points: 4
#     Node 11, Type 0, BuildingBlock: TATPOV_clean_sbu_0, # of connection points: 4
#     Edge 12, Type (0, 0), BuildingBlock: EZIPEK_clean_linker_0, # of connection points: 2
#     Edge 13, Type (0, 0), BuildingBlock: EZIPEK_clean_linker_0, # of connection points: 2
#     Edge 14, Type (0, 0), BuildingBlock: EZIPEK_clean_linker_0, # of connection points: 2
#     Edge 15, Type (0, 0), BuildingBlock: EZIPEK_clean_linker_0, # of connection points: 2
#     Edge 16, Type (0, 0), BuildingBlock: EZIPEK_clean_linker_0, # of connection points: 2
#     Edge 17, Type (0, 0), BuildingBlock: EZIPEK_clean_linker_0, # of connection points: 2
#     Edge 18, Type (0, 0), BuildingBlock: EZIPEK_clean_linker_0, # of connection points: 2
#     Edge 19, Type (0, 0), BuildingBlock: EZIPEK_clean_linker_0, # of connection points: 2
#     Edge 20, Type (0, 0), BuildingBlock: EZIPEK_clean_linker_0, # of connection points: 2
#     Edge 21, Type (0, 0), BuildingBlock: EZIPEK_clean_linker_0, # of connection points: 2
#     Edge 22, Type (0, 0), BuildingBlock: EZIPEK_clean_linker_0, # of connection points: 2
#     Edge 23, Type (0, 0), BuildingBlock: EZIPEK_clean_linker_0, # of connection points: 2
#     Edge 24, Type (0, 0), BuildingBlock: EZIPEK_clean_linker_0, # of connection points: 2
#     Edge 25, Type (0, 0), BuildingBlock: EZIPEK_clean_linker_0, # of connection points: 2
#     Edge 26, Type (0, 0), BuildingBlock: EZIPEK_clean_linker_0, # of connection points: 2
#     Edge 27, Type (0, 0), BuildingBlock: EZIPEK_clean_linker_0, # of connection points: 2
#     Edge 28, Type (0, 0), BuildingBlock: EZIPEK_clean_linker_0, # of connection points: 2
#     Edge 29, Type (0, 0), BuildingBlock: EZIPEK_clean_linker_0, # of connection points: 2
#     Edge 30, Type (0, 0), BuildingBlock: EZIPEK_clean_linker_0, # of connection points: 2
#     Edge 31, Type (0, 0), BuildingBlock: EZIPEK_clean_linker_0, # of connection points: 2
#     Edge 32, Type (0, 0), BuildingBlock: EZIPEK_clean_linker_0, # of connection points: 2
#     Edge 33, Type (0, 0), BuildingBlock: EZIPEK_clean_linker_0, # of connection points: 2
#     Edge 34, Type (0, 0), BuildingBlock: EZIPEK_clean_linker_0, # of connection points: 2
#     Edge 35, Type (0, 0), BuildingBlock: EZIPEK_clean_linker_0, # of connection points: 2
# Relax obj value: 0.101
# Max RMSD: 0.101
# Mean RMSD: 0.101
data_MOF--net-wje--node1-TATPOV_clean_sbu_0--edge1-EZIPEK_clean_linker_0
_symmetry_space_group_name_H-M    P1
_symmetry_Int_Tables_number       1
_symmetry_cell_setting            triclinic
loop_
_symmetry_equiv_pos_as_xyz
'x, y, z'
_cell_length_a     31.701151
_cell_length_b     31.808806
_cell_length_c     24.044353
_cell_angle_alpha  90.259056
_cell_angle_beta   90.036671
_cell_angle_gamma 119.98478
loop_
_atom_site_label
_atom_site_type_symbol
_atom_site_fract_x
_atom_site_fract_y
_atom_site_fract_z
_atom_type_partial_charge
Zn0 Zn 0.31137 0.89974 0.23298 0.0
Zn1 Zn 0.32036 0.98354 0.23965 0.0
O2 O 0.24712 0.93209 0.23845 0.0
O3 O 0.24174 0.86497 0.208 0.0
O4 O 0.32439 0.04644 0.21275 0.0
O5 O 0.36768 0.91086 0.18452 0.0
O6 O 0.3782 0.98316 0.19904 0.0
C7 C 0.22079 0.88765 0.22498 0.0
C8 C 0.33198 0.94737 0.34528 0.0
O9 O 0.33519 0.98466 0.32142 0.0
O10 O 0.32287 0.90971 0.31737 0.0
C11 C 0.29327 0.05959 0.22314 0.0
O12 O 0.25738 0.03399 0.25753 0.0
C13 C 0.39412 0.95629 0.17957 0.0
Zn14 Zn 0.40645 0.32951 0.62685 0.0
Zn15 Zn 0.33415 0.33303 0.6061 0.0
O16 O 0.31506 0.26128 0.5847 0.0
O17 O 0.37769 0.25977 0.62175 0.0
O18 O 0.27779 0.34003 0.57382 0.0
O19 O 0.45066 0.37086 0.567 0.0
O20 O 0.3973 0.39501 0.57502 0.0
C21 C 0.3361 0.23779 0.59959 0.0
C22 C 0.37011 0.34717 0.72424 0.0
O23 O 0.33395 0.33652 0.69206 0.0
O24 O 0.40992 0.35367 0.70451 0.0
C25 C 0.23302 0.30796 0.579 0.0
O26 O 0.22118 0.26922 0.60897 0.0
C27 C 0.43947 0.40329 0.55982 0.0
Zn28 Zn 0.08842 0.45268 0.94625 0.0
Zn29 Zn 0.00377 0.34246 0.9289 0.0
O30 O 0.07251 0.34722 0.93085 0.0
O31 O 0.10415 0.40858 0.99002 0.0
O32 O 0.95329 0.27647 0.89605 0.0
O33 O 0.06535 0.43783 0.86556 0.0
O34 O 0.99086 0.39284 0.89076 0.0
C35 C 0.10308 0.3713 0.96956 0.0
C36 C 0.01897 0.37967 0.04182 0.0
O37 O 0.98965 0.34473 0.01046 0.0
O38 O 0.05544 0.41737 0.0217 0.0
C39 C 0.90823 0.2637 0.89709 0.0
O40 O 0.89509 0.29275 0.92057 0.0
C41 C 0.02205 0.42927 0.86375 0.0
Zn42 Zn 0.63975 0.0325 0.32099 0.0
Zn43 Zn 0.66072 0.98098 0.28199 0.0
O44 O 0.72718 0.04874 0.28168 0.0
O45 O 0.7039 0.07812 0.34971 0.0
O46 O 0.67558 0.93245 0.24254 0.0
O47 O 0.61636 0.04972 0.25197 0.0
O48 O 0.5966 0.97401 0.24366 0.0
C49 C 0.7377 0.08073 0.31988 0.0
C50 C 0.61879 0.96534 0.39704 0.0
O51 O 0.64833 0.96099 0.36477 0.0
O52 O 0.59671 0.98667 0.37968 0.0
C53 C 0.64253 0.89006 0.22779 0.0
O54 O 0.59666 0.87626 0.2375 0.0
C55 C 0.58767 0.00814 0.2327 0.0
Zn56 Zn 0.59304 0.67204 0.61332 0.0
Zn57 Zn 0.67127 0.67282 0.61846 0.0
O58 O 0.67831 0.74022 0.63974 0.0
O59 O 0.61541 0.74284 0.60595 0.0
O60 O 0.73707 0.68264 0.59053 0.0
O61 O 0.55466 0.62363 0.55428 0.0
O62 O 0.61934 0.61736 0.56755 0.0
C63 C 0.65502 0.76297 0.63287 0.0
C64 C 0.61888 0.63832 0.71931 0.0
O65 O 0.657 0.64358 0.69516 0.0
O66 O 0.58927 0.64739 0.69378 0.0
C67 C 0.75037 0.6963 0.54062 0.0
O68 O 0.72287 0.70632 0.50881 0.0
C69 C 0.57753 0.60132 0.54486 0.0
Zn70 Zn 0.93953 0.59712 0.95711 0.0
Zn71 Zn -0.00024 0.68018 0.93452 0.0
O72 O 0.93432 0.68173 0.92732 0.0
O73 O 0.88557 0.60928 0.96114 0.0
O74 O 0.05276 0.74545 0.90329 0.0
O75 O 0.94494 0.56006 0.89415 0.0
O76 O 0.01165 0.63063 0.88831 0.0
C77 C 0.8924 0.64987 0.94505 0.0
C78 C -0.00429 0.63991 0.05097 0.0
O79 O 0.01233 0.67713 0.01937 0.0
O80 O 0.96741 0.59808 0.03138 0.0
C81 C 0.09691 0.75521 0.90059 0.0
O82 O 0.10877 0.72462 0.92212 0.0
C83 C 0.98709 0.58581 0.87458 0.0
Zn84 Zn 0.0633 0.66786 0.39425 0.0
Zn85 Zn 0.98537 0.66619 0.39899 0.0
O86 O 0.04393 0.73394 0.37518 0.0
O87 O 0.11212 0.73887 0.40269 0.0
O88 O 0.93047 0.67287 0.4363 0.0
O89 O 0.05915 0.61908 0.44873 0.0
O90 O 0.98632 0.60997 0.44394 0.0
C91 C 0.0904 0.75755 0.37782 0.0
C92 C -0.00208 0.63853 0.29152 0.0
O93 O 0.96546 0.64034 0.32108 0.0
O94 O 0.03743 0.64592 0.31367 0.0
C95 C 0.91846 0.70529 0.43013 0.0
O96 O 0.94311 0.74136 0.39573 0.0
C97 C 0.01472 0.59526 0.46178 0.0
Zn98 Zn 0.38582 0.02419 0.64672 0.0
Zn99 Zn 0.31925 0.97537 0.69256 0.0
O100 O 0.31542 0.0397 0.68565 0.0
O101 O 0.34695 0.04715 0.60355 0.0
O102 O 0.25854 0.92252 0.73238 0.0
O103 O 0.42473 0.06002 0.71529 0.0
O104 O 0.38097 0.98369 0.73622 0.0
C105 C 0.32549 0.05992 0.63783 0.0
C106 C 0.3524 0.95265 0.58471 0.0
O107 O 0.31665 0.95112 0.611 0.0
O108 O 0.39343 0.97139 0.60867 0.0
C109 C 0.25262 0.92081 0.78495 0.0
O110 O 0.28567 0.95572 0.81623 0.0
C111 C 0.4202 0.02437 0.74279 0.0
Zn112 Zn 0.36111 0.40541 0.05054 0.0
Zn113 Zn 0.333 0.32499 0.08246 0.0
O114 O 0.26535 0.32102 0.08789 0.0
O115 O 0.29299 0.38813 0.03991 0.0
O116 O 0.32578 0.26221 0.11401 0.0
O117 O 0.39755 0.44658 0.1141 0.0
O118 O 0.38929 0.37607 0.13494 0.0
C119 C 0.25756 0.35097 0.06093 0.0
C120 C 0.37254 0.36117 0.96354 0.0
O121 O 0.34668 0.32637 0.99679 0.0
O122 O 0.39434 0.40439 0.98134 0.0
C123 C 0.29243 0.21862 0.10513 0.0
O124 O 0.25691 0.20956 0.07029 0.0
C125 C 0.40837 0.42149 0.14513 0.0
Zn126 Zn 0.95083 0.34538 0.36308 0.0
Zn127 Zn 0.01331 0.33982 0.3979 0.0
O128 O 0.95155 0.26879 0.40659 0.0
O129 O 0.91269 0.27881 0.33734 0.0
O130 O 0.07261 0.34128 0.43548 0.0
O131 O 0.93152 0.36793 0.4318 0.0
O132 O 0.01041 0.40008 0.43169 0.0
C133 C 0.91703 0.25083 0.37059 0.0
C134 C 0.01404 0.37415 0.28144 0.0
O135 O 0.0283 0.35175 0.31355 0.0
O136 O 0.98606 0.38848 0.30022 0.0
C137 C 0.07084 0.30652 0.46357 0.0
O138 O 0.02921 0.26587 0.46854 0.0
C139 C 0.97279 0.40292 0.44467 0.0
Zn140 Zn 0.58377 0.9398 0.73916 0.0
Zn141 Zn 0.66691 0.01015 0.74741 0.0
O142 O 0.68184 0.95592 0.76746 0.0
O143 O 0.61033 0.89538 0.74299 0.0
O144 O 0.73067 0.07351 0.76295 0.0
O145 O 0.5491 0.95085 0.80142 0.0
O146 O 0.61352 0.02132 0.78587 0.0
C147 C 0.65463 0.9113 0.75491 0.0
C148 C 0.61677 0.97906 0.63522 0.0
O149 O 0.65641 0.00108 0.66299 0.0
O150 O 0.57649 0.95718 0.66053 0.0
C151 C 0.74597 0.08357 0.81301 0.0
O152 O 0.72118 0.05245 0.85239 0.0
C153 C 0.5709 -0.00354 0.80678 0.0
Zn154 Zn 0.61067 0.57093 0.02889 0.0
Zn155 Zn 0.6399 0.64778 0.06857 0.0
O156 O 0.70854 0.65501 0.06221 0.0
O157 O 0.67752 0.6008 0.99555 0.0
O158 O 0.64332 0.70977 0.09921 0.0
O159 O 0.59383 0.52987 0.09621 0.0
O160 O 0.59354 0.59465 0.1257 0.0
C161 C 0.71464 0.63349 0.02058 0.0
C162 C 0.58579 0.60839 0.9558 0.0
O163 O 0.6187 0.64248 0.98541 0.0
O164 O 0.5587 0.56754 0.97779 0.0
C165 C 0.67879 0.74526 0.12416 0.0
O166 O 0.72026 0.74575 0.12981 0.0
C167 C 0.5827 0.55063 0.13351 0.0
C168 C 0.29773 0.14096 0.22298 0.0
C169 C 0.2948 0.10112 0.1928 0.0
C170 C 0.29543 0.14087 0.105 0.0
C171 C 0.29331 0.17818 0.13528 0.0
N172 N 0.28383 0.2093 0.22329 0.0
N173 N 0.2814 0.0587 0.1052 0.0
C174 C 0.29224 0.1771 0.19439 0.0
C175 C 0.2912 0.09989 0.13378 0.0
N176 N 0.30736 0.14514 0.27879 0.0
N177 N 0.30325 0.14533 0.04889 0.0
H178 H 0.27696 0.02747 0.12449 0.0
H179 H 0.27304 0.05383 0.06292 0.0
H180 H 0.30707 0.17497 0.02635 0.0
H181 H 0.31051 0.122 0.02558 0.0
H182 H 0.31514 0.17593 0.30199 0.0
H183 H 0.31208 0.1197 0.30104 0.0
H184 H 0.27737 0.20696 0.26593 0.0
H185 H 0.2787 0.23573 0.20404 0.0
C186 C 0.17024 0.27734 0.50227 0.0
C187 C 0.19461 0.31109 0.54618 0.0
C188 C 0.13935 0.34395 0.53422 0.0
C189 C 0.11567 0.31082 0.48961 0.0
N190 N 0.11456 0.25313 0.42363 0.0
N191 N 0.20807 0.38171 0.59817 0.0
C192 C 0.1328 0.27946 0.4716 0.0
C193 C 0.1811 0.34624 0.56006 0.0
N194 N 0.18276 0.24296 0.48998 0.0
N195 N 0.1203 0.37134 0.55394 0.0
H196 H 0.23725 0.38314 0.61988 0.0
H197 H 0.20381 0.41163 0.60565 0.0
H198 H 0.09005 0.37086 0.53615 0.0
H199 H 0.13212 0.392 0.59025 0.0
H200 H 0.16237 0.21333 0.46394 0.0
H201 H 0.21252 0.24258 0.50794 0.0
H202 H 0.12875 0.23342 0.40468 0.0
H203 H 0.08772 0.25435 0.39972 0.0
C204 C 0.79455 0.17546 0.81556 0.0
C205 C 0.79081 0.13011 0.82805 0.0
C206 C 0.86523 0.17215 0.88515 0.0
C207 C 0.87045 0.21766 0.87009 0.0
N208 N 0.84728 0.26253 0.80866 0.0
N209 N 0.82929 0.08653 0.86294 0.0
C210 C 0.83728 0.21924 0.83149 0.0
C211 C 0.82829 0.12889 0.85922 0.0
N212 N 0.75634 0.17699 0.79129 0.0
N213 N 0.89362 0.1697 0.92637 0.0
H214 H 0.80355 0.05448 0.84343 0.0
H215 H 0.85828 0.08443 0.88032 0.0
H216 H 0.92039 0.20015 0.94732 0.0
H217 H 0.88768 0.13709 0.94328 0.0
H218 H 0.75501 0.2089 0.78718 0.0
H219 H 0.72396 0.14603 0.77985 0.0
H220 H 0.82691 0.26527 0.77632 0.0
H221 H 0.87897 0.29513 0.81775 0.0
C222 C 0.67994 0.79399 0.20811 0.0
C223 C 0.67205 0.78435 0.15004 0.0
C224 C 0.64417 0.84387 0.14306 0.0
C225 C 0.65526 0.85577 0.20025 0.0
N226 N 0.69097 0.84795 0.28537 0.0
N227 N 0.65534 0.80647 0.06033 0.0
C228 C 0.67577 0.83287 0.23203 0.0
C229 C 0.65642 0.81099 0.11698 0.0
N230 N 0.68824 0.76399 0.24122 0.0
N231 N 0.62158 0.86377 0.11366 0.0
H232 H 0.66502 0.78364 0.03967 0.0
H233 H 0.64919 0.82845 0.03347 0.0
H234 H 0.6147 0.89013 0.1302 0.0
H235 H 0.60702 0.85213 0.07402 0.0
H236 H 0.68888 0.76578 0.28448 0.0
H237 H 0.6898 0.73406 0.22603 0.0
H238 H 0.71149 0.83683 0.30833 0.0
H239 H 0.68634 0.87449 0.30542 0.0
C240 C 0.88259 0.73633 0.50246 0.0
C241 C 0.87559 0.70153 0.46072 0.0
C242 C 0.7867 0.66199 0.47358 0.0
C243 C 0.79371 0.69629 0.51597 0.0
N244 N 0.84764 0.76238 0.57587 0.0
N245 N 0.82195 0.62816 0.41027 0.0
C246 C 0.84154 0.73227 0.53203 0.0
C247 C 0.82788 0.66334 0.4476 0.0
N248 N 0.9286 0.7737 0.51328 0.0
N249 N 0.74038 0.62856 0.45739 0.0
H250 H 0.85051 0.62962 0.38728 0.0
H251 H 0.78925 0.59608 0.40375 0.0
H252 H 0.70941 0.624 0.47787 0.0
H253 H 0.73209 0.60658 0.42228 0.0
H254 H 0.93628 0.80356 0.53812 0.0
H255 H 0.95966 0.7762 0.49521 0.0
H256 H 0.88115 0.78607 0.59394 0.0
H257 H 0.81857 0.7618 0.59681 0.0
C258 C 0.17966 0.88537 0.84887 0.0
C259 C 0.21033 0.87818 0.81158 0.0
C260 C 0.16016 0.7901 0.82516 0.0
C261 C 0.13395 0.79774 0.8682 0.0
N262 N 0.12333 0.85381 0.92626 0.0
N263 N 0.23497 0.82364 0.77253 0.0
C264 C 0.14472 0.84571 0.88131 0.0
C265 C 0.20188 0.8305 0.80175 0.0
N266 N 0.18281 0.92976 0.85205 0.0
N267 N 0.14422 0.7443 0.80505 0.0
H268 H 0.26686 0.85205 0.75606 0.0
H269 H 0.23323 0.79013 0.76949 0.0
H270 H 0.11278 0.7139 0.81943 0.0
H271 H 0.15906 0.73723 0.77003 0.0
H272 H 0.15815 0.93597 0.8741 0.0
H273 H 0.20713 0.95929 0.82817 0.0
H274 H 0.13375 0.88837 0.94149 0.0
H275 H 0.09809 0.82599 0.95141 0.0
C276 C 0.47931 0.02288 0.19351 0.0
C277 C 0.44761 0.97792 0.1682 0.0
C278 C 0.51633 0.96231 0.16516 0.0
C279 C 0.54067 -0.00121 0.20676 0.0
N280 N 0.53389 0.05524 0.27056 0.0
N281 N 0.43965 0.90876 0.11791 0.0
C282 C 0.51962 0.02747 0.22328 0.0
C283 C 0.46741 0.94881 0.14991 0.0
N284 N 0.47015 0.06038 0.19115 0.0
N285 N 0.54009 0.9419 0.13919 0.0
H286 H 0.40649 0.90193 0.10091 0.0
H287 H 0.44928 0.88261 0.10888 0.0
H288 H 0.57658 0.9531 0.1469 0.0
H289 H 0.52536 0.91768 0.10597 0.0
H290 H 0.49399 0.09448 0.20807 0.0
H291 H 0.44262 0.05886 0.16587 0.0
H292 H 0.5167 0.07409 0.28418 0.0
H293 H 0.55655 0.05336 0.3006 0.0
C294 C 0.56347 0.51712 0.54342 0.0
C295 C 0.5501 0.55025 0.523 0.0
C296 C 0.46781 0.48129 0.50558 0.0
C297 C 0.47816 0.45277 0.5426 0.0
N298 N 0.53713 0.45043 0.60596 0.0
N299 N 0.49225 0.56215 0.47086 0.0
C300 C 0.52656 0.47204 0.56339 0.0
C301 C 0.50301 0.53162 0.49918 0.0
N302 N 0.61112 0.52892 0.54503 0.0
N303 N 0.42533 0.4602 0.47588 0.0
H304 H 0.51918 0.59735 0.46059 0.0
H305 H 0.45723 0.5529 0.4582 0.0
H306 H 0.40007 0.42321 0.47811 0.0
H307 H 0.41718 0.47817 0.44535 0.0
H308 H 0.62195 0.50436 0.55752 0.0
H309 H 0.63835 0.56047 0.52655 0.0
H310 H 0.57167 0.46612 0.62405 0.0
H311 H 0.51082 0.42125 0.62855 0.0
C312 C 0.03805 0.55166 0.89895 0.0
C313 C 0.0119 0.55921 0.85658 0.0
C314 C -0.00104 0.48414 0.81113 0.0
C315 C 0.01513 0.47214 0.86048 0.0
N316 N 0.03182 0.48899 0.95847 0.0
N317 N 0.96704 0.53284 0.77084 0.0
C318 C 0.03016 0.50454 0.90635 0.0
C319 C 0.99265 0.52567 0.81161 0.0
N320 N 0.06731 0.58811 0.93476 0.0
N321 N 0.98893 0.45575 0.76481 0.0
H322 H 0.96412 0.56413 0.76982 0.0
H323 H 0.94771 0.50738 0.73984 0.0
H324 H 0.99168 0.42439 0.76445 0.0
H325 H 0.98077 0.46492 0.72635 0.0
H326 H 0.08827 0.58369 0.96515 0.0
H327 H 0.07533 0.62382 0.92938 0.0
H328 H 0.03986 0.511 0.9937 0.0
H329 H 0.01717 0.45231 0.96683 0.0
C330 C 0.94915 0.50873 0.4631 0.0
C331 C -0.00532 0.54477 0.48355 0.0
C332 C 0.01481 0.48073 0.50153 0.0
C333 C 0.97724 0.44976 0.46384 0.0
N334 N 0.91381 0.44186 0.39948 0.0
N335 N 0.06692 0.56337 0.53521 0.0
C336 C 0.94495 0.46513 0.44281 0.0
C337 C 0.02617 0.53004 0.5075 0.0
N338 N 0.91059 0.51647 0.46135 0.0
N339 N 0.03871 0.46291 0.53201 0.0
H340 H 0.07288 0.59803 0.54455 0.0
H341 H 0.0946 0.55695 0.54792 0.0
H342 H 0.02951 0.42653 0.53027 0.0
H343 H 0.06408 0.48276 0.56288 0.0
H344 H 0.87594 0.48965 0.44862 0.0
H345 H 0.91199 0.54679 0.48014 0.0
H346 H 0.8926 0.45491 0.38166 0.0
H347 H 0.91408 0.41457 0.37578 0.0
C348 C 0.49344 0.99146 0.84121 0.0
C349 C 0.54063 0.01955 0.81829 0.0
C350 C 0.51168 0.05895 0.75568 0.0
C351 C 0.46275 0.02816 0.77438 0.0
N352 N 0.41177 0.97954 0.85001 0.0
N353 N 0.59652 0.09877 0.78313 0.0
C354 C 0.45504 -0.00096 0.82235 0.0
C355 C 0.55034 0.06033 0.78644 0.0
N356 N 0.48548 0.95683 0.87957 0.0
N357 N 0.52198 0.08272 0.70596 0.0
H358 H 0.62467 0.10077 0.80769 0.0
H359 H 0.60476 0.13051 0.76195 0.0
H360 H 0.49609 0.07762 0.67616 0.0
H361 H 0.5574 0.10241 0.69065 0.0
H362 H 0.451 0.93105 0.89339 0.0
H363 H 0.51424 0.95381 0.89641 0.0
H364 H 0.40516 0.96055 0.88713 0.0
H365 H 0.38434 0.98695 0.83891 0.0
C366 C 0.46344 0.49604 0.1993 0.0
C367 C 0.45042 0.44797 0.18388 0.0
C368 C 0.5359 0.47079 0.18188 0.0
C369 C 0.54708 0.51971 0.17693 0.0
N370 N 0.52931 0.5791 0.21469 0.0
N371 N 0.47235 0.38624 0.19349 0.0
C372 C 0.51339 0.53258 0.19774 0.0
C373 C 0.48621 0.43396 0.18698 0.0
N374 N 0.42755 0.50637 0.21135 0.0
N375 N 0.57269 0.4604 0.17898 0.0
H376 H 0.43618 0.36026 0.20148 0.0
H377 H 0.49648 0.37312 0.19585 0.0
H378 H 0.60909 0.4881 0.17815 0.0
H379 H 0.56756 0.42545 0.17833 0.0
H380 H 0.4335 0.54122 0.21834 0.0
H381 H 0.3912 0.47877 0.21413 0.0
H382 H 0.50678 0.59099 0.23132 0.0
H383 H 0.56643 0.60459 0.21675 0.0
C384 C 0.12661 0.842 0.33659 0.0
C385 C 0.11708 0.7934 0.33314 0.0
C386 C 0.14681 0.80832 0.23732 0.0
C387 C 0.17002 0.85842 0.24722 0.0
N388 N 0.16688 0.92297 0.29554 0.0
N389 N 0.12565 0.73267 0.28015 0.0
C390 C 0.15473 0.8754 0.29354 0.0
C391 C 0.12833 0.77679 0.28308 0.0
N392 N 0.10954 0.85594 0.38099 0.0
N393 N 0.14572 0.79153 0.18478 0.0
H394 H 0.11951 0.71084 0.31459 0.0
H395 H 0.13645 0.72092 0.24525 0.0
H396 H 0.16008 0.81535 0.15125 0.0
H397 H 0.1262 0.75474 0.17434 0.0
H398 H 0.11318 0.89013 0.38546 0.0
H399 H 0.08994 0.8322 0.4131 0.0
H400 H 0.16155 0.93979 0.32983 0.0
H401 H 0.18081 0.94514 0.26069 0.0
C402 C 0.34665 0.17307 0.56277 0.0
C403 C 0.31535 0.18524 0.59057 0.0
C404 C 0.27991 0.10746 0.63975 0.0
C405 C 0.32038 0.10265 0.62291 0.0
N406 N 0.40098 0.143 0.58061 0.0
N407 N 0.25032 0.16384 0.6557 0.0
C408 C 0.35595 0.13833 0.58692 0.0
C409 C 0.28066 0.15191 0.62852 0.0
N410 N 0.3716 0.19881 0.51719 0.0
N411 N 0.24083 0.06995 0.66514 0.0
H412 H 0.24913 0.19522 0.64629 0.0
H413 H 0.22817 0.14369 0.68862 0.0
H414 H 0.23827 0.03644 0.67204 0.0
H415 H 0.20905 0.07064 0.67426 0.0
H416 H 0.39355 0.18971 0.49366 0.0
H417 H 0.36594 0.22589 0.50051 0.0
H418 H 0.42847 0.17064 0.55724 0.0
H419 H 0.41358 0.12462 0.60519 0.0
C420 C 0.21001 0.39137 0.0543 0.0
C421 C 0.20908 0.34669 0.0533 0.0
C422 C 0.13158 0.31211 0.00177 0.0
C423 C 0.14031 0.36004 0.99191 0.0
N424 N 0.20111 0.44577 0.99363 0.0
N425 N 0.169 0.26322 0.02202 0.0
C426 C 0.18347 0.39992 0.01383 0.0
C427 C 0.1696 0.30627 0.02626 0.0
N428 N 0.23938 0.42697 0.09095 0.0
N429 N 0.08743 0.27253 0.98992 0.0
H430 H 0.19497 0.25717 0.04113 0.0
H431 H 0.14395 0.23455 0.99729 0.0
H432 H 0.05835 0.27494 0.9735 0.0
H433 H 0.07848 0.23745 0.00125 0.0
H434 H 0.2395 0.45976 0.09415 0.0
H435 H 0.25944 0.42112 0.12136 0.0
H436 H 0.23416 0.47503 0.00698 0.0
H437 H 0.18628 0.453 0.95865 0.0
C438 C 0.87511 0.1611 0.34962 0.0
C439 C 0.8743 0.20151 0.37349 0.0
C440 C 0.78914 0.16641 0.34886 0.0
C441 C 0.78721 0.12299 0.33046 0.0
N442 N 0.82793 0.07577 0.32452 0.0
N443 N 0.82681 0.23399 0.41275 0.0
C444 C 0.83009 0.11912 0.33397 0.0
C445 C 0.8296 0.2004 0.37981 0.0
N446 N 0.91865 0.1634 0.34045 0.0
N447 N 0.75358 0.17662 0.3341 0.0
H448 H 0.85664 0.25961 0.43584 0.0
H449 H 0.79396 0.23282 0.4212 0.0
H450 H 0.72561 0.15493 0.30639 0.0
H451 H 0.75557 0.20959 0.34361 0.0
H452 H 0.92195 0.13725 0.31765 0.0
H453 H 0.95157 0.19296 0.35367 0.0
H454 H 0.85735 0.07044 0.3316 0.0
H455 H 0.79586 0.04419 0.31398 0.0
C456 C 0.63197 0.79258 0.71826 0.0
C457 C 0.66405 0.80283 0.67226 0.0
C458 C 0.70805 0.8888 0.69974 0.0
C459 C 0.67382 0.87806 0.74333 0.0
N460 N 0.61919 0.81959 0.808 0.0
N461 N 0.74007 0.85788 0.6282 0.0
C462 C 0.64204 0.82952 0.75771 0.0
C463 C 0.70495 0.85004 0.66628 0.0
N464 N 0.5905 0.74852 0.72321 0.0
N465 N 0.74148 0.93592 0.68831 0.0
H466 H 0.73766 0.83052 0.60201 0.0
H467 H 0.77295 0.89037 0.62522 0.0
H468 H 0.74793 0.96443 0.71495 0.0
H469 H 0.76257 0.94675 0.65242 0.0
H470 H 0.56363 0.74149 0.75256 0.0
H471 H 0.58085 0.71976 0.6959 0.0
H472 H 0.5974 0.78454 0.82297 0.0
H473 H 0.62634 0.84722 0.83662 0.0
C474 C 0.7651 0.60476 0.97205 0.0
C475 C 0.76321 0.64324 1.00014 0.0
C476 C 0.85078 0.69514 0.9817 0.0
C477 C 0.84985 0.65726 0.94906 0.0
N478 N 0.80087 0.58474 0.89548 0.0
N479 N 0.80343 0.73016 0.01692 0.0
C480 C 0.80471 0.61571 0.93717 0.0
C481 C 0.80575 0.69022 0.00065 0.0
N482 N 0.73146 0.55729 0.982 0.0
N483 N 0.89403 0.7346 0.99668 0.0
H484 H 0.77114 0.72893 0.02813 0.0
H485 H 0.83288 0.76532 0.0134 0.0
H486 H 0.92748 0.74053 0.98216 0.0
H487 H 0.89648 0.76008 0.02587 0.0
H488 H 0.73386 0.52856 0.96428 0.0
H489 H 0.70579 0.54672 0.01377 0.0
H490 H 0.76762 0.55479 0.88395 0.0
H491 H 0.83016 0.59236 0.86936 0.0
C492 C 0.30113 0.9105 0.43932 0.0
C493 C 0.33839 0.9471 0.40615 0.0
C494 C 0.38442 0.98812 0.48971 0.0
C495 C 0.34988 0.94876 0.52298 0.0
N496 N 0.2803 0.86802 0.52735 0.0
N497 N 0.4212 0.01289 0.39899 0.0
C498 C 0.30974 0.90848 0.49706 0.0
C499 C 0.38186 0.98336 0.43108 0.0
N500 N 0.2567 0.87918 0.41643 0.0
N501 N 0.41742 0.03168 0.513 0.0
H502 H 0.4211 0.01013 0.35573 0.0
H503 H 0.45542 0.03656 0.41581 0.0
H504 H 0.41944 0.03969 0.55516 0.0
H505 H 0.43931 0.06236 0.48933 0.0
H506 H 0.22674 0.85511 0.43993 0.0
H507 H 0.24824 0.88041 0.37476 0.0
H508 H 0.25324 0.83584 0.50951 0.0
H509 H 0.28615 0.86507 0.56952 0.0
C510 C 0.38125 0.3222 0.87603 0.0
C511 C 0.36752 0.3533 0.90254 0.0
C512 C 0.35329 0.37934 0.81185 0.0
C513 C 0.3651 0.34684 0.78538 0.0
N514 N 0.37737 0.27791 0.79216 0.0
N515 N 0.32587 0.39949 0.89608 0.0
C516 C 0.37521 0.31536 0.81748 0.0
C517 C 0.34915 0.37832 0.87056 0.0
N518 N 0.40167 0.30063 0.90631 0.0
N519 N 0.34805 0.41264 0.78137 0.0
H520 H 0.32007 0.39792 0.9388 0.0
H521 H 0.30753 0.41383 0.87434 0.0
H522 H 0.35088 0.41468 0.73815 0.0
H523 H 0.34505 0.44089 0.79936 0.0
H524 H 0.41734 0.28187 0.88829 0.0
H525 H 0.4064 0.30471 0.94932 0.0
H526 H 0.38005 0.25113 0.814 0.0
H527 H 0.37136 0.27064 0.74963 0.0
C528 C 0.01037 0.33342 0.1895 0.0
C529 C 0.0215 0.3761 0.22048 0.0
C530 C 0.02046 0.41607 0.13439 0.0
C531 C 0.01555 0.37594 0.10311 0.0
N532 N 0.02 0.30213 0.1017 0.0
N533 N 0.04908 0.46186 0.22007 0.0
C534 C 0.01474 0.33625 0.13076 0.0
C535 C 0.03045 0.41871 0.19207 0.0
N536 N 0.9925 0.28942 0.21491 0.0
N537 N 0.01365 0.45074 0.10949 0.0
H538 H 0.05851 0.46539 0.26212 0.0
H539 H 0.06009 0.4948 0.2002 0.0
H540 H 0.00328 0.44835 0.06793 0.0
H541 H 0.01258 0.47844 0.13158 0.0
H542 H 0.97944 0.25707 0.1926 0.0
H543 H 0.98551 0.28391 0.25729 0.0
H544 H 0.02461 0.27547 0.12119 0.0
H545 H 0.02493 0.30332 0.0588 0.0
C546 C 0.58489 0.92484 0.48864 0.0
C547 C 0.62285 0.96228 0.45789 0.0
C548 C 0.65339 0.01221 0.54174 0.0
C549 C 0.61812 0.97337 0.57395 0.0
N550 N 0.56188 0.88635 0.57833 0.0
N551 N 0.70329 0.03305 0.45972 0.0
C552 C 0.5869 0.92766 0.54766 0.0
C553 C 0.66047 0.00319 0.48591 0.0
N554 N 0.54726 0.88659 0.46177 0.0
N555 N 0.6786 0.05819 0.56314 0.0
H556 H 0.71146 0.02481 0.42069 0.0
H557 H 0.7329 0.06172 0.47986 0.0
H558 H 0.67195 0.06734 0.60256 0.0
H559 H 0.70179 0.08814 0.53911 0.0
H560 H 0.51602 0.86086 0.48226 0.0
H561 H 0.54633 0.88241 0.41862 0.0
H562 H 0.54182 0.85201 0.56029 0.0
H563 H 0.56618 0.88519 0.62115 0.0
C564 C 0.60036 0.65781 0.87003 0.0
C565 C 0.58965 0.61304 0.89421 0.0
C566 C 0.59581 0.58294 0.80177 0.0
C567 C 0.61212 0.62957 0.77973 0.0
N568 N 0.64396 0.71488 0.79689 0.0
N569 N 0.5931 0.53845 0.88362 0.0
C570 C 0.61845 0.66809 0.81501 0.0
C571 C 0.5913 0.57668 0.86037 0.0
N572 N 0.59261 0.69029 0.89917 0.0
N573 N 0.58481 0.54467 0.76707 0.0
H574 H 0.59539 0.53413 0.92613 0.0
H575 H 0.59878 0.51406 0.86025 0.0
H576 H 0.58921 0.54841 0.72403 0.0
H577 H 0.56778 0.50886 0.78082 0.0
H578 H 0.59642 0.72186 0.88155 0.0
H579 H 0.57738 0.68312 0.93887 0.0
H580 H 0.65367 0.74466 0.82291 0.0
H581 H 0.66003 0.72386 0.75766 0.0
C582 C 0.00565 0.60596 0.19908 0.0
C583 C -0.00451 0.63803 0.22985 0.0
C584 C 0.98731 0.6733 0.14289 0.0
C585 C 0.00201 0.64447 0.11229 0.0
N586 N 0.03517 0.59083 0.11252 0.0
N587 N 0.99224 0.71259 0.23054 0.0
C588 C 0.01427 0.61305 0.14088 0.0
C589 C 0.99084 0.67475 0.20173 0.0
N590 N 0.00564 0.56787 0.22515 0.0
N591 N 0.9672 0.69718 0.11662 0.0
H592 H -0.00332 0.71673 0.2735 0.0
H593 H -0.00565 0.74274 0.21092 0.0
H594 H 0.9617 0.69607 0.07383 0.0
H595 H 0.95125 0.71416 0.13821 0.0
H596 H 0.00815 0.54058 0.20393 0.0
H597 H -0.00167 0.56097 0.26747 0.0
H598 H 0.04922 0.57125 0.13199 0.0
H599 H 0.04305 0.59626 0.07013 0.0
loop_
_geom_bond_atom_site_label_1
_geom_bond_atom_site_label_2
_geom_bond_distance
_geom_bond_site_symmetry_2
_ccdc_geom_bond_type
Zn0 O3 2.031 . S
Zn0 O5 2.049 . S
Zn0 O10 2.067 . S
Zn1 O2 1.962 1_545 S
Zn1 O4 1.986 . S
Zn1 O6 1.996 1_545 S
Zn1 O9 1.943 . S
O2 Zn1 1.962 1_565 S
O2 C7 1.254 . S
O3 Zn0 2.031 . S
O3 C7 1.269 . S
O4 Zn1 1.986 . S
O4 C11 1.262 . S
O5 Zn0 2.049 . S
O5 C13 1.260 . S
O6 Zn1 1.996 1_565 S
O6 C13 1.257 . S
C7 O2 1.254 . S
C7 O3 1.269 . S
C8 O9 1.249 . S
C8 O10 1.270 1_545 S
O9 Zn1 1.943 . S
O9 C8 1.249 . S
O10 Zn0 2.067 . S
O10 C8 1.270 1_565 S
C11 O4 1.262 . S
C11 O12 1.232 . S
O12 C11 1.232 . S
C13 O5 1.260 . S
C13 O6 1.257 . S
Zn14 O17 2.031 . S
Zn14 O19 2.049 . S
Zn14 O24 2.067 . S
Zn15 O16 1.962 . S
Zn15 O18 1.986 . S
Zn15 O20 1.996 . S
Zn15 O23 1.943 . S
O16 Zn15 1.962 . S
O16 C21 1.254 . S
O17 Zn14 2.031 . S
O17 C21 1.269 . S
O18 Zn15 1.986 . S
O18 C25 1.262 . S
O19 Zn14 2.049 . S
O19 C27 1.260 . S
O20 Zn15 1.996 . S
O20 C27 1.257 . S
C21 O16 1.254 . S
C21 O17 1.269 . S
C22 O23 1.249 . S
C22 O24 1.270 . S
O23 Zn15 1.943 . S
O23 C22 1.249 . S
O24 Zn14 2.067 . S
O24 C22 1.270 . S
C25 O18 1.262 . S
C25 O26 1.232 . S
O26 C25 1.232 . S
C27 O19 1.260 . S
C27 O20 1.257 . S
Zn28 O31 2.031 . S
Zn28 O33 2.049 1_554 S
Zn28 O38 2.067 . S
Zn29 O30 1.962 1_655 S
Zn29 O32 1.986 . S
Zn29 O34 1.996 1_655 S
Zn29 O37 1.943 1_556 S
O30 Zn29 1.962 1_455 S
O30 C35 1.254 . S
O31 Zn28 2.031 . S
O31 C35 1.269 1_554 S
O32 Zn29 1.986 . S
O32 C39 1.262 . S
O33 Zn28 2.049 1_556 S
O33 C41 1.260 . S
O34 Zn29 1.996 1_455 S
O34 C41 1.257 . S
C35 O30 1.254 . S
C35 O31 1.269 1_556 S
C36 O37 1.249 . S
C36 O38 1.270 1_655 S
O37 Zn29 1.943 1_554 S
O37 C36 1.249 . S
O38 Zn28 2.067 . S
O38 C36 1.270 1_455 S
C39 O32 1.262 . S
C39 O40 1.232 . S
O40 C39 1.232 . S
C41 O33 1.260 . S
C41 O34 1.257 . S
Zn42 O45 2.031 . S
Zn42 O47 2.049 . S
Zn42 O52 2.067 . S
Zn43 O44 1.962 1_565 S
Zn43 O46 1.986 . S
Zn43 O48 1.996 1_565 S
Zn43 O51 1.943 . S
O44 Zn43 1.962 1_545 S
O44 C49 1.254 . S
O45 Zn42 2.031 . S
O45 C49 1.269 . S
O46 Zn43 1.986 . S
O46 C53 1.262 . S
O47 Zn42 2.049 . S
O47 C55 1.260 . S
O48 Zn43 1.996 1_545 S
O48 C55 1.257 . S
C49 O44 1.254 . S
C49 O45 1.269 . S
C50 O51 1.249 . S
C50 O52 1.270 1_565 S
O51 Zn43 1.943 . S
O51 C50 1.249 . S
O52 Zn42 2.067 . S
O52 C50 1.270 1_545 S
C53 O46 1.262 . S
C53 O54 1.232 . S
O54 C53 1.232 . S
C55 O47 1.260 . S
C55 O48 1.257 . S
Zn56 O59 2.031 . S
Zn56 O61 2.049 . S
Zn56 O66 2.067 . S
Zn57 O58 1.962 . S
Zn57 O60 1.986 . S
Zn57 O62 1.996 . S
Zn57 O65 1.943 . S
O58 Zn57 1.962 . S
O58 C63 1.254 . S
O59 Zn56 2.031 . S
O59 C63 1.269 . S
O60 Zn57 1.986 . S
O60 C67 1.262 . S
O61 Zn56 2.049 . S
O61 C69 1.260 . S
O62 Zn57 1.996 . S
O62 C69 1.257 . S
C63 O58 1.254 . S
C63 O59 1.269 . S
C64 O65 1.249 . S
C64 O66 1.270 . S
O65 Zn57 1.943 . S
O65 C64 1.249 . S
O66 Zn56 2.067 . S
O66 C64 1.270 . S
C67 O60 1.262 . S
C67 O68 1.232 . S
O68 C67 1.232 . S
C69 O61 1.260 . S
C69 O62 1.257 . S
Zn70 O73 2.031 . S
Zn70 O75 2.049 1_554 S
Zn70 O80 2.067 . S
Zn71 O72 1.962 1_455 S
Zn71 O74 1.986 . S
Zn71 O76 1.996 1_455 S
Zn71 O79 1.943 1_556 S
O72 Zn71 1.962 1_655 S
O72 C77 1.254 . S
O73 Zn70 2.031 . S
O73 C77 1.269 1_554 S
O74 Zn71 1.986 . S
O74 C81 1.262 . S
O75 Zn70 2.049 1_556 S
O75 C83 1.260 . S
O76 Zn71 1.996 1_655 S
O76 C83 1.257 . S
C77 O72 1.254 . S
C77 O73 1.269 1_556 S
C78 O79 1.249 . S
C78 O80 1.270 1_455 S
O79 Zn71 1.943 1_554 S
O79 C78 1.249 . S
O80 Zn70 2.067 . S
O80 C78 1.270 1_655 S
C81 O74 1.262 . S
C81 O82 1.232 . S
O82 C81 1.232 . S
C83 O75 1.260 . S
C83 O76 1.257 . S
Zn84 O87 2.031 . S
Zn84 O89 2.049 . S
Zn84 O94 2.067 . S
Zn85 O86 1.962 1_655 S
Zn85 O88 1.986 . S
Zn85 O90 1.996 1_655 S
Zn85 O93 1.943 . S
O86 Zn85 1.962 1_455 S
O86 C91 1.254 . S
O87 Zn84 2.031 . S
O87 C91 1.269 . S
O88 Zn85 1.986 . S
O88 C95 1.262 . S
O89 Zn84 2.049 . S
O89 C97 1.260 . S
O90 Zn85 1.996 1_455 S
O90 C97 1.257 . S
C91 O86 1.254 . S
C91 O87 1.269 . S
C92 O93 1.249 . S
C92 O94 1.270 1_655 S
O93 Zn85 1.943 . S
O93 C92 1.249 . S
O94 Zn84 2.067 . S
O94 C92 1.270 1_455 S
C95 O88 1.262 . S
C95 O96 1.232 . S
O96 C95 1.232 . S
C97 O89 1.260 . S
C97 O90 1.257 . S
Zn98 O101 2.031 . S
Zn98 O103 2.049 . S
Zn98 O108 2.067 . S
Zn99 O100 1.962 1_565 S
Zn99 O102 1.986 . S
Zn99 O104 1.996 1_565 S
Zn99 O107 1.943 . S
O100 Zn99 1.962 1_545 S
O100 C105 1.254 . S
O101 Zn98 2.031 . S
O101 C105 1.269 . S
O102 Zn99 1.986 . S
O102 C109 1.262 . S
O103 Zn98 2.049 . S
O103 C111 1.260 . S
O104 Zn99 1.996 1_545 S
O104 C111 1.257 . S
C105 O100 1.254 . S
C105 O101 1.269 . S
C106 O107 1.249 . S
C106 O108 1.270 1_565 S
O107 Zn99 1.943 . S
O107 C106 1.249 . S
O108 Zn98 2.067 . S
O108 C106 1.270 1_545 S
C109 O102 1.262 . S
C109 O110 1.232 . S
O110 C109 1.232 . S
C111 O103 1.260 . S
C111 O104 1.257 . S
Zn112 O115 2.031 . S
Zn112 O117 2.049 1_556 S
Zn112 O122 2.067 . S
Zn113 O114 1.962 . S
Zn113 O116 1.986 . S
Zn113 O118 1.996 . S
Zn113 O121 1.943 1_554 S
O114 Zn113 1.962 . S
O114 C119 1.254 . S
O115 Zn112 2.031 . S
O115 C119 1.269 1_556 S
O116 Zn113 1.986 . S
O116 C123 1.262 . S
O117 Zn112 2.049 1_554 S
O117 C125 1.260 . S
O118 Zn113 1.996 . S
O118 C125 1.257 . S
C119 O114 1.254 . S
C119 O115 1.269 1_554 S
C120 O121 1.249 . S
C120 O122 1.270 . S
O121 Zn113 1.943 1_556 S
O121 C120 1.249 . S
O122 Zn112 2.067 . S
O122 C120 1.270 . S
C123 O116 1.262 . S
C123 O124 1.232 . S
O124 C123 1.232 . S
C125 O117 1.260 . S
C125 O118 1.257 . S
Zn126 O129 2.031 . S
Zn126 O131 2.049 . S
Zn126 O136 2.067 . S
Zn127 O128 1.962 1_455 S
Zn127 O130 1.986 . S
Zn127 O132 1.996 1_455 S
Zn127 O135 1.943 . S
O128 Zn127 1.962 1_655 S
O128 C133 1.254 . S
O129 Zn126 2.031 . S
O129 C133 1.269 . S
O130 Zn127 1.986 . S
O130 C137 1.262 . S
O131 Zn126 2.049 . S
O131 C139 1.260 . S
O132 Zn127 1.996 1_655 S
O132 C139 1.257 . S
C133 O128 1.254 . S
C133 O129 1.269 . S
C134 O135 1.249 . S
C134 O136 1.270 1_455 S
O135 Zn127 1.943 . S
O135 C134 1.249 . S
O136 Zn126 2.067 . S
O136 C134 1.270 1_655 S
C137 O130 1.262 . S
C137 O138 1.232 . S
O138 C137 1.232 . S
C139 O131 1.260 . S
C139 O132 1.257 . S
Zn140 O143 2.031 . S
Zn140 O145 2.049 . S
Zn140 O150 2.067 . S
Zn141 O142 1.962 1_545 S
Zn141 O144 1.986 . S
Zn141 O146 1.996 1_545 S
Zn141 O149 1.943 . S
O142 Zn141 1.962 1_565 S
O142 C147 1.254 . S
O143 Zn140 2.031 . S
O143 C147 1.269 . S
O144 Zn141 1.986 . S
O144 C151 1.262 . S
O145 Zn140 2.049 . S
O145 C153 1.260 . S
O146 Zn141 1.996 1_565 S
O146 C153 1.257 . S
C147 O142 1.254 . S
C147 O143 1.269 . S
C148 O149 1.249 . S
C148 O150 1.270 1_545 S
O149 Zn141 1.943 . S
O149 C148 1.249 . S
O150 Zn140 2.067 . S
O150 C148 1.270 1_565 S
C151 O144 1.262 . S
C151 O152 1.232 . S
O152 C151 1.232 . S
C153 O145 1.260 . S
C153 O146 1.257 . S
Zn154 O157 2.031 . S
Zn154 O159 2.049 1_556 S
Zn154 O164 2.067 . S
Zn155 O156 1.962 . S
Zn155 O158 1.986 . S
Zn155 O160 1.996 . S
Zn155 O163 1.943 1_554 S
O156 Zn155 1.962 . S
O156 C161 1.254 . S
O157 Zn154 2.031 . S
O157 C161 1.269 1_556 S
O158 Zn155 1.986 . S
O158 C165 1.262 . S
O159 Zn154 2.049 1_554 S
O159 C167 1.260 . S
O160 Zn155 1.996 . S
O160 C167 1.257 . S
C161 O156 1.254 . S
C161 O157 1.269 1_554 S
C162 O163 1.249 . S
C162 O164 1.270 . S
O163 Zn155 1.943 1_556 S
O163 C162 1.249 . S
O164 Zn154 2.067 . S
O164 C162 1.270 . S
C165 O158 1.262 . S
C165 O166 1.232 . S
O166 C165 1.232 . S
C167 O159 1.260 . S
C167 O160 1.257 . S
C168 C169 1.363 . S
C168 C174 1.379 . S
C168 N176 1.356 . S
C169 C168 1.363 . S
C169 C175 1.363 . S
C170 C171 1.363 . S
C170 C175 1.379 . S
C170 N177 1.356 . S
C171 C170 1.363 . S
C171 C174 1.363 . S
N172 C174 1.356 . S
N172 H184 0.984 . S
N172 H185 0.985 . S
N173 C175 1.356 . S
N173 H178 0.984 . S
N173 H179 0.985 . S
C174 C168 1.379 . S
C174 C171 1.363 . S
C174 N172 1.356 . S
C175 C169 1.363 . S
C175 C170 1.379 . S
C175 N173 1.356 . S
N176 C168 1.356 . S
N176 H182 0.984 . S
N176 H183 0.984 . S
N177 C170 1.356 . S
N177 H180 0.984 . S
N177 H181 0.985 . S
H178 N173 0.984 . S
H179 N173 0.985 . S
H180 N177 0.984 . S
H181 N177 0.985 . S
H182 N176 0.984 . S
H183 N176 0.984 . S
H184 N172 0.984 . S
H185 N172 0.985 . S
C186 C187 1.363 . S
C186 C192 1.379 . S
C186 N194 1.356 . S
C187 C186 1.363 . S
C187 C193 1.363 . S
C188 C189 1.363 . S
C188 C193 1.379 . S
C188 N195 1.356 . S
C189 C188 1.363 . S
C189 C192 1.363 . S
N190 C192 1.356 . S
N190 H202 0.984 . S
N190 H203 0.985 . S
N191 C193 1.356 . S
N191 H196 0.984 . S
N191 H197 0.985 . S
C192 C186 1.379 . S
C192 C189 1.363 . S
C192 N190 1.356 . S
C193 C187 1.363 . S
C193 C188 1.379 . S
C193 N191 1.356 . S
N194 C186 1.356 . S
N194 H200 0.984 . S
N194 H201 0.984 . S
N195 C188 1.356 . S
N195 H198 0.984 . S
N195 H199 0.985 . S
H196 N191 0.984 . S
H197 N191 0.985 . S
H198 N195 0.984 . S
H199 N195 0.985 . S
H200 N194 0.984 . S
H201 N194 0.984 . S
H202 N190 0.984 . S
H203 N190 0.985 . S
C204 C205 1.363 . S
C204 C210 1.379 . S
C204 N212 1.356 . S
C205 C204 1.363 . S
C205 C211 1.363 . S
C206 C207 1.363 . S
C206 C211 1.379 . S
C206 N213 1.356 . S
C207 C206 1.363 . S
C207 C210 1.363 . S
N208 C210 1.356 . S
N208 H220 0.984 . S
N208 H221 0.985 . S
N209 C211 1.356 . S
N209 H214 0.984 . S
N209 H215 0.985 . S
C210 C204 1.379 . S
C210 C207 1.363 . S
C210 N208 1.356 . S
C211 C205 1.363 . S
C211 C206 1.379 . S
C211 N209 1.356 . S
N212 C204 1.356 . S
N212 H218 0.984 . S
N212 H219 0.984 . S
N213 C206 1.356 . S
N213 H216 0.984 . S
N213 H217 0.985 . S
H214 N209 0.984 . S
H215 N209 0.985 . S
H216 N213 0.984 . S
H217 N213 0.985 . S
H218 N212 0.984 . S
H219 N212 0.984 . S
H220 N208 0.984 . S
H221 N208 0.985 . S
C222 C223 1.363 . S
C222 C228 1.379 . S
C222 N230 1.356 . S
C223 C222 1.363 . S
C223 C229 1.363 . S
C224 C225 1.363 . S
C224 C229 1.379 . S
C224 N231 1.356 . S
C225 C224 1.363 . S
C225 C228 1.363 . S
N226 C228 1.356 . S
N226 H238 0.984 . S
N226 H239 0.985 . S
N227 C229 1.356 . S
N227 H232 0.984 . S
N227 H233 0.985 . S
C228 C222 1.379 . S
C228 C225 1.363 . S
C228 N226 1.356 . S
C229 C223 1.363 . S
C229 C224 1.379 . S
C229 N227 1.356 . S
N230 C222 1.356 . S
N230 H236 0.984 . S
N230 H237 0.984 . S
N231 C224 1.356 . S
N231 H234 0.984 . S
N231 H235 0.985 . S
H232 N227 0.984 . S
H233 N227 0.985 . S
H234 N231 0.984 . S
H235 N231 0.985 . S
H236 N230 0.984 . S
H237 N230 0.984 . S
H238 N226 0.984 . S
H239 N226 0.985 . S
C240 C241 1.363 . S
C240 C246 1.379 . S
C240 N248 1.356 . S
C241 C240 1.363 . S
C241 C247 1.363 . S
C242 C243 1.363 . S
C242 C247 1.379 . S
C242 N249 1.356 . S
C243 C242 1.363 . S
C243 C246 1.363 . S
N244 C246 1.356 . S
N244 H256 0.984 . S
N244 H257 0.985 . S
N245 C247 1.356 . S
N245 H250 0.984 . S
N245 H251 0.985 . S
C246 C240 1.379 . S
C246 C243 1.363 . S
C246 N244 1.356 . S
C247 C241 1.363 . S
C247 C242 1.379 . S
C247 N245 1.356 . S
N248 C240 1.356 . S
N248 H254 0.984 . S
N248 H255 0.984 . S
N249 C242 1.356 . S
N249 H252 0.984 . S
N249 H253 0.985 . S
H250 N245 0.984 . S
H251 N245 0.985 . S
H252 N249 0.984 . S
H253 N249 0.985 . S
H254 N248 0.984 . S
H255 N248 0.984 . S
H256 N244 0.984 . S
H257 N244 0.985 . S
C258 C259 1.363 . S
C258 C264 1.379 . S
C258 N266 1.356 . S
C259 C258 1.363 . S
C259 C265 1.363 . S
C260 C261 1.363 . S
C260 C265 1.379 . S
C260 N267 1.356 . S
C261 C260 1.363 . S
C261 C264 1.363 . S
N262 C264 1.356 . S
N262 H274 0.984 . S
N262 H275 0.985 . S
N263 C265 1.356 . S
N263 H268 0.984 . S
N263 H269 0.985 . S
C264 C258 1.379 . S
C264 C261 1.363 . S
C264 N262 1.356 . S
C265 C259 1.363 . S
C265 C260 1.379 . S
C265 N263 1.356 . S
N266 C258 1.356 . S
N266 H272 0.984 . S
N266 H273 0.984 . S
N267 C260 1.356 . S
N267 H270 0.984 . S
N267 H271 0.985 . S
H268 N263 0.984 . S
H269 N263 0.985 . S
H270 N267 0.984 . S
H271 N267 0.985 . S
H272 N266 0.984 . S
H273 N266 0.984 . S
H274 N262 0.984 . S
H275 N262 0.985 . S
C276 C277 1.363 1_545 S
C276 C282 1.379 . S
C276 N284 1.356 . S
C277 C276 1.363 1_565 S
C277 C283 1.363 . S
C278 C279 1.363 1_565 S
C278 C283 1.379 . S
C278 N285 1.356 . S
C279 C278 1.363 1_545 S
C279 C282 1.363 . S
N280 C282 1.356 . S
N280 H292 0.984 . S
N280 H293 0.985 . S
N281 C283 1.356 . S
N281 H286 0.984 . S
N281 H287 0.985 . S
C282 C276 1.379 . S
C282 C279 1.363 . S
C282 N280 1.356 . S
C283 C277 1.363 . S
C283 C278 1.379 . S
C283 N281 1.356 . S
N284 C276 1.356 . S
N284 H290 0.984 . S
N284 H291 0.984 . S
N285 C278 1.356 . S
N285 H288 0.984 . S
N285 H289 0.985 . S
H286 N281 0.984 . S
H287 N281 0.985 . S
H288 N285 0.984 . S
H289 N285 0.985 . S
H290 N284 0.984 . S
H291 N284 0.984 . S
H292 N280 0.984 . S
H293 N280 0.985 . S
C294 C295 1.363 . S
C294 C300 1.379 . S
C294 N302 1.356 . S
C295 C294 1.363 . S
C295 C301 1.363 . S
C296 C297 1.363 . S
C296 C301 1.379 . S
C296 N303 1.356 . S
C297 C296 1.363 . S
C297 C300 1.363 . S
N298 C300 1.356 . S
N298 H310 0.984 . S
N298 H311 0.985 . S
N299 C301 1.356 . S
N299 H304 0.984 . S
N299 H305 0.985 . S
C300 C294 1.379 . S
C300 C297 1.363 . S
C300 N298 1.356 . S
C301 C295 1.363 . S
C301 C296 1.379 . S
C301 N299 1.356 . S
N302 C294 1.356 . S
N302 H308 0.984 . S
N302 H309 0.984 . S
N303 C296 1.356 . S
N303 H306 0.984 . S
N303 H307 0.985 . S
H304 N299 0.984 . S
H305 N299 0.985 . S
H306 N303 0.984 . S
H307 N303 0.985 . S
H308 N302 0.984 . S
H309 N302 0.984 . S
H310 N298 0.984 . S
H311 N298 0.985 . S
C312 C313 1.363 1_455 S
C312 C318 1.379 . S
C312 N320 1.356 1_556 S
C313 C312 1.363 1_655 S
C313 C319 1.363 . S
C314 C315 1.363 1_655 S
C314 C319 1.379 . S
C314 N321 1.356 . S
C315 C314 1.363 1_455 S
C315 C318 1.363 . S
N316 C318 1.356 1_554 S
N316 H328 0.984 . S
N316 H329 0.985 1_554 S
N317 C319 1.356 . S
N317 H322 0.984 . S
N317 H323 0.985 . S
C318 C312 1.379 . S
C318 C315 1.363 . S
C318 N316 1.356 1_556 S
C319 C313 1.363 . S
C319 C314 1.379 . S
C319 N317 1.356 . S
N320 C312 1.356 1_554 S
N320 H326 0.984 . S
N320 H327 0.984 1_554 S
N321 C314 1.356 . S
N321 H324 0.984 . S
N321 H325 0.985 . S
H322 N317 0.984 . S
H323 N317 0.985 . S
H324 N321 0.984 . S
H325 N321 0.985 . S
H326 N320 0.984 . S
H327 N320 0.984 1_556 S
H328 N316 0.984 . S
H329 N316 0.985 1_556 S
C330 C331 1.363 1_655 S
C330 C336 1.379 . S
C330 N338 1.356 . S
C331 C330 1.363 1_455 S
C331 C337 1.363 . S
C332 C333 1.363 1_455 S
C332 C337 1.379 . S
C332 N339 1.356 . S
C333 C332 1.363 1_655 S
C333 C336 1.363 . S
N334 C336 1.356 . S
N334 H346 0.984 . S
N334 H347 0.985 . S
N335 C337 1.356 . S
N335 H340 0.984 . S
N335 H341 0.985 . S
C336 C330 1.379 . S
C336 C333 1.363 . S
C336 N334 1.356 . S
C337 C331 1.363 . S
C337 C332 1.379 . S
C337 N335 1.356 . S
N338 C330 1.356 . S
N338 H344 0.984 . S
N338 H345 0.984 . S
N339 C332 1.356 . S
N339 H342 0.984 . S
N339 H343 0.985 . S
H340 N335 0.984 . S
H341 N335 0.985 . S
H342 N339 0.984 . S
H343 N339 0.985 . S
H344 N338 0.984 . S
H345 N338 0.984 . S
H346 N334 0.984 . S
H347 N334 0.985 . S
C348 C349 1.363 . S
C348 C354 1.379 . S
C348 N356 1.356 . S
C349 C348 1.363 . S
C349 C355 1.363 1_565 S
C350 C351 1.363 . S
C350 C355 1.379 . S
C350 N357 1.356 . S
C351 C350 1.363 . S
C351 C354 1.363 1_545 S
N352 C354 1.356 . S
N352 H364 0.984 . S
N352 H365 0.985 . S
N353 C355 1.356 . S
N353 H358 0.984 . S
N353 H359 0.985 . S
C354 C348 1.379 . S
C354 C351 1.363 1_565 S
C354 N352 1.356 . S
C355 C349 1.363 1_545 S
C355 C350 1.379 . S
C355 N353 1.356 . S
N356 C348 1.356 . S
N356 H362 0.984 . S
N356 H363 0.984 . S
N357 C350 1.356 . S
N357 H360 0.984 . S
N357 H361 0.985 . S
H358 N353 0.984 . S
H359 N353 0.985 . S
H360 N357 0.984 . S
H361 N357 0.985 . S
H362 N356 0.984 . S
H363 N356 0.984 . S
H364 N352 0.984 . S
H365 N352 0.985 . S
C366 C367 1.363 . S
C366 C372 1.379 . S
C366 N374 1.356 . S
C367 C366 1.363 . S
C367 C373 1.363 . S
C368 C369 1.363 . S
C368 C373 1.379 . S
C368 N375 1.356 1_554 S
C369 C368 1.363 . S
C369 C372 1.363 . S
N370 C372 1.356 . S
N370 H382 0.984 . S
N370 H383 0.985 . S
N371 C373 1.356 1_556 S
N371 H376 0.984 1_556 S
N371 H377 0.985 . S
C372 C366 1.379 . S
C372 C369 1.363 . S
C372 N370 1.356 . S
C373 C367 1.363 . S
C373 C368 1.379 . S
C373 N371 1.356 1_554 S
N374 C366 1.356 . S
N374 H380 0.984 . S
N374 H381 0.984 . S
N375 C368 1.356 1_556 S
N375 H378 0.984 1_556 S
N375 H379 0.985 . S
H376 N371 0.984 1_554 S
H377 N371 0.985 . S
H378 N375 0.984 1_554 S
H379 N375 0.985 . S
H380 N374 0.984 . S
H381 N374 0.984 . S
H382 N370 0.984 . S
H383 N370 0.985 . S
C384 C385 1.363 . S
C384 C390 1.379 . S
C384 N392 1.356 . S
C385 C384 1.363 . S
C385 C391 1.363 . S
C386 C387 1.363 . S
C386 C391 1.379 . S
C386 N393 1.356 . S
C387 C386 1.363 . S
C387 C390 1.363 . S
N388 C390 1.356 . S
N388 H400 0.984 . S
N388 H401 0.985 . S
N389 C391 1.356 . S
N389 H394 0.984 . S
N389 H395 0.985 . S
C390 C384 1.379 . S
C390 C387 1.363 . S
C390 N388 1.356 . S
C391 C385 1.363 . S
C391 C386 1.379 . S
C391 N389 1.356 . S
N392 C384 1.356 . S
N392 H398 0.984 . S
N392 H399 0.984 . S
N393 C386 1.356 . S
N393 H396 0.984 . S
N393 H397 0.985 . S
H394 N389 0.984 . S
H395 N389 0.985 . S
H396 N393 0.984 . S
H397 N393 0.985 . S
H398 N392 0.984 . S
H399 N392 0.984 . S
H400 N388 0.984 . S
H401 N388 0.985 . S
C402 C403 1.363 . S
C402 C408 1.379 . S
C402 N410 1.356 . S
C403 C402 1.363 . S
C403 C409 1.363 . S
C404 C405 1.363 . S
C404 C409 1.379 . S
C404 N411 1.356 . S
C405 C404 1.363 . S
C405 C408 1.363 . S
N406 C408 1.356 . S
N406 H418 0.984 . S
N406 H419 0.985 . S
N407 C409 1.356 . S
N407 H412 0.984 . S
N407 H413 0.985 . S
C408 C402 1.379 . S
C408 C405 1.363 . S
C408 N406 1.356 . S
C409 C403 1.363 . S
C409 C404 1.379 . S
C409 N407 1.356 . S
N410 C402 1.356 . S
N410 H416 0.984 . S
N410 H417 0.984 . S
N411 C404 1.356 . S
N411 H414 0.984 . S
N411 H415 0.985 . S
H412 N407 0.984 . S
H413 N407 0.985 . S
H414 N411 0.984 . S
H415 N411 0.985 . S
H416 N410 0.984 . S
H417 N410 0.984 . S
H418 N406 0.984 . S
H419 N406 0.985 . S
C420 C421 1.363 . S
C420 C426 1.379 . S
C420 N428 1.356 . S
C421 C420 1.363 . S
C421 C427 1.363 1_554 S
C422 C423 1.363 . S
C422 C427 1.379 . S
C422 N429 1.356 . S
C423 C422 1.363 . S
C423 C426 1.363 1_556 S
N424 C426 1.356 . S
N424 H436 0.984 . S
N424 H437 0.985 1_554 S
N425 C427 1.356 . S
N425 H430 0.984 1_556 S
N425 H431 0.985 . S
C426 C420 1.379 . S
C426 C423 1.363 1_554 S
C426 N424 1.356 . S
C427 C421 1.363 1_556 S
C427 C422 1.379 . S
C427 N425 1.356 . S
N428 C420 1.356 . S
N428 H434 0.984 . S
N428 H435 0.984 . S
N429 C422 1.356 . S
N429 H432 0.984 . S
N429 H433 0.985 . S
H430 N425 0.984 1_554 S
H431 N425 0.985 . S
H432 N429 0.984 . S
H433 N429 0.985 . S
H434 N428 0.984 . S
H435 N428 0.984 . S
H436 N424 0.984 . S
H437 N424 0.985 1_556 S
C438 C439 1.363 . S
C438 C444 1.379 . S
C438 N446 1.356 . S
C439 C438 1.363 . S
C439 C445 1.363 . S
C440 C441 1.363 . S
C440 C445 1.379 . S
C440 N447 1.356 . S
C441 C440 1.363 . S
C441 C444 1.363 . S
N442 C444 1.356 . S
N442 H454 0.984 . S
N442 H455 0.985 . S
N443 C445 1.356 . S
N443 H448 0.984 . S
N443 H449 0.985 . S
C444 C438 1.379 . S
C444 C441 1.363 . S
C444 N442 1.356 . S
C445 C439 1.363 . S
C445 C440 1.379 . S
C445 N443 1.356 . S
N446 C438 1.356 . S
N446 H452 0.984 . S
N446 H453 0.984 . S
N447 C440 1.356 . S
N447 H450 0.984 . S
N447 H451 0.985 . S
H448 N443 0.984 . S
H449 N443 0.985 . S
H450 N447 0.984 . S
H451 N447 0.985 . S
H452 N446 0.984 . S
H453 N446 0.984 . S
H454 N442 0.984 . S
H455 N442 0.985 . S
C456 C457 1.363 . S
C456 C462 1.379 . S
C456 N464 1.356 . S
C457 C456 1.363 . S
C457 C463 1.363 . S
C458 C459 1.363 . S
C458 C463 1.379 . S
C458 N465 1.356 . S
C459 C458 1.363 . S
C459 C462 1.363 . S
N460 C462 1.356 . S
N460 H472 0.984 . S
N460 H473 0.985 . S
N461 C463 1.356 . S
N461 H466 0.984 . S
N461 H467 0.985 . S
C462 C456 1.379 . S
C462 C459 1.363 . S
C462 N460 1.356 . S
C463 C457 1.363 . S
C463 C458 1.379 . S
C463 N461 1.356 . S
N464 C456 1.356 . S
N464 H470 0.984 . S
N464 H471 0.984 . S
N465 C458 1.356 . S
N465 H468 0.984 . S
N465 H469 0.985 . S
H466 N461 0.984 . S
H467 N461 0.985 . S
H468 N465 0.984 . S
H469 N465 0.985 . S
H470 N464 0.984 . S
H471 N464 0.984 . S
H472 N460 0.984 . S
H473 N460 0.985 . S
C474 C475 1.363 . S
C474 C480 1.379 . S
C474 N482 1.356 . S
C475 C474 1.363 . S
C475 C481 1.363 1_554 S
C476 C477 1.363 . S
C476 C481 1.379 . S
C476 N483 1.356 . S
C477 C476 1.363 . S
C477 C480 1.363 1_556 S
N478 C480 1.356 . S
N478 H490 0.984 . S
N478 H491 0.985 1_554 S
N479 C481 1.356 . S
N479 H484 0.984 1_556 S
N479 H485 0.985 . S
C480 C474 1.379 . S
C480 C477 1.363 1_554 S
C480 N478 1.356 . S
C481 C475 1.363 1_556 S
C481 C476 1.379 . S
C481 N479 1.356 . S
N482 C474 1.356 . S
N482 H488 0.984 . S
N482 H489 0.984 . S
N483 C476 1.356 . S
N483 H486 0.984 . S
N483 H487 0.985 . S
H484 N479 0.984 1_554 S
H485 N479 0.985 . S
H486 N483 0.984 . S
H487 N483 0.985 . S
H488 N482 0.984 . S
H489 N482 0.984 . S
H490 N478 0.984 . S
H491 N478 0.985 1_556 S
C492 C493 1.363 1_565 S
C492 C498 1.379 . S
C492 N500 1.356 . S
C493 C492 1.363 1_545 S
C493 C499 1.363 . S
C494 C495 1.363 1_545 S
C494 C499 1.379 . S
C494 N501 1.356 . S
C495 C494 1.363 1_565 S
C495 C498 1.363 . S
N496 C498 1.356 . S
N496 H508 0.984 . S
N496 H509 0.985 . S
N497 C499 1.356 . S
N497 H502 0.984 . S
N497 H503 0.985 . S
C498 C492 1.379 . S
C498 C495 1.363 . S
C498 N496 1.356 . S
C499 C493 1.363 . S
C499 C494 1.379 . S
C499 N497 1.356 . S
N500 C492 1.356 . S
N500 H506 0.984 . S
N500 H507 0.984 . S
N501 C494 1.356 . S
N501 H504 0.984 . S
N501 H505 0.985 . S
H502 N497 0.984 . S
H503 N497 0.985 . S
H504 N501 0.984 . S
H505 N501 0.985 . S
H506 N500 0.984 . S
H507 N500 0.984 . S
H508 N496 0.984 . S
H509 N496 0.985 . S
C510 C511 1.363 . S
C510 C516 1.379 . S
C510 N518 1.356 . S
C511 C510 1.363 . S
C511 C517 1.363 . S
C512 C513 1.363 . S
C512 C517 1.379 . S
C512 N519 1.356 . S
C513 C512 1.363 . S
C513 C516 1.363 . S
N514 C516 1.356 . S
N514 H526 0.984 . S
N514 H527 0.985 . S
N515 C517 1.356 . S
N515 H520 0.984 . S
N515 H521 0.985 . S
C516 C510 1.379 . S
C516 C513 1.363 . S
C516 N514 1.356 . S
C517 C511 1.363 . S
C517 C512 1.379 . S
C517 N515 1.356 . S
N518 C510 1.356 . S
N518 H524 0.984 . S
N518 H525 0.984 . S
N519 C512 1.356 . S
N519 H522 0.984 . S
N519 H523 0.985 . S
H520 N515 0.984 . S
H521 N515 0.985 . S
H522 N519 0.984 . S
H523 N519 0.985 . S
H524 N518 0.984 . S
H525 N518 0.984 . S
H526 N514 0.984 . S
H527 N514 0.985 . S
C528 C529 1.363 . S
C528 C534 1.379 1_455 S
C528 N536 1.356 . S
C529 C528 1.363 . S
C529 C535 1.363 . S
C530 C531 1.363 . S
C530 C535 1.379 1_655 S
C530 N537 1.356 . S
C531 C530 1.363 . S
C531 C534 1.363 . S
N532 C534 1.356 . S
N532 H544 0.996 . S
N532 H545 0.985 . S
N533 C535 1.356 . S
N533 H538 0.984 . S
N533 H539 0.998 . S
C534 C528 1.379 1_655 S
C534 C531 1.363 . S
C534 N532 1.356 . S
C535 C529 1.363 . S
C535 C530 1.379 1_455 S
C535 N533 1.356 . S
N536 C528 1.356 . S
N536 H542 0.984 . S
N536 H543 0.984 . S
N537 C530 1.356 . S
N537 H540 0.984 . S
N537 H541 0.985 . S
H538 N533 0.984 . S
H539 N533 0.998 . S
H540 N537 0.984 . S
H541 N537 0.985 . S
H542 N536 0.984 . S
H543 N536 0.984 . S
H544 N532 0.996 . S
H545 N532 0.985 . S
C546 C547 1.363 . S
C546 C552 1.379 . S
C546 N554 1.356 . S
C547 C546 1.363 . S
C547 C553 1.363 1_565 S
C548 C549 1.363 . S
C548 C553 1.379 . S
C548 N555 1.356 . S
C549 C548 1.363 . S
C549 C552 1.363 1_545 S
N550 C552 1.356 . S
N550 H562 0.984 . S
N550 H563 0.985 . S
N551 C553 1.356 . S
N551 H556 0.984 . S
N551 H557 0.985 . S
C552 C546 1.379 . S
C552 C549 1.363 1_565 S
C552 N550 1.356 . S
C553 C547 1.363 1_545 S
C553 C548 1.379 . S
C553 N551 1.356 . S
N554 C546 1.356 . S
N554 H560 0.984 . S
N554 H561 0.984 . S
N555 C548 1.356 . S
N555 H558 0.984 . S
N555 H559 0.985 . S
H556 N551 0.984 . S
H557 N551 0.985 . S
H558 N555 0.984 . S
H559 N555 0.985 . S
H560 N554 0.984 . S
H561 N554 0.984 . S
H562 N550 0.984 . S
H563 N550 0.985 . S
C564 C565 1.363 . S
C564 C570 1.379 . S
C564 N572 1.356 . S
C565 C564 1.363 . S
C565 C571 1.363 . S
C566 C567 1.363 . S
C566 C571 1.379 . S
C566 N573 1.356 . S
C567 C566 1.363 . S
C567 C570 1.363 . S
N568 C570 1.356 . S
N568 H580 0.984 . S
N568 H581 0.985 . S
N569 C571 1.356 . S
N569 H574 0.984 . S
N569 H575 0.985 . S
C570 C564 1.379 . S
C570 C567 1.363 . S
C570 N568 1.356 . S
C571 C565 1.363 . S
C571 C566 1.379 . S
C571 N569 1.356 . S
N572 C564 1.356 . S
N572 H578 0.984 . S
N572 H579 0.984 . S
N573 C566 1.356 . S
N573 H576 0.984 . S
N573 H577 0.985 . S
H574 N569 0.984 . S
H575 N569 0.985 . S
H576 N573 0.984 . S
H577 N573 0.985 . S
H578 N572 0.984 . S
H579 N572 0.984 . S
H580 N568 0.984 . S
H581 N568 0.985 . S
C582 C583 1.363 1_455 S
C582 C588 1.379 . S
C582 N590 1.356 . S
C583 C582 1.363 1_655 S
C583 C589 1.363 . S
C584 C585 1.363 1_655 S
C584 C589 1.379 . S
C584 N591 1.356 . S
C585 C584 1.363 1_455 S
C585 C588 1.363 . S
N586 C588 1.356 . S
N586 H598 0.984 . S
N586 H599 0.985 . S
N587 C589 1.356 . S
N587 H592 0.984 . S
N587 H593 0.985 . S
C588 C582 1.379 . S
C588 C585 1.363 . S
C588 N586 1.356 . S
C589 C583 1.363 . S
C589 C584 1.379 . S
C589 N587 1.356 . S
N590 C582 1.356 . S
N590 H596 0.984 . S
N590 H597 0.984 . S
N591 C584 1.356 . S
N591 H594 0.984 . S
N591 H595 0.985 . S
H592 N587 0.984 . S
H593 N587 0.985 . S
H594 N591 0.984 . S
H595 N591 0.985 . S
H596 N590 0.984 . S
H597 N590 0.984 . S
H598 N586 0.984 . S
H599 N586 0.985 . S
C169 C11 1.626 . S
C171 C123 1.623 . S
C187 C25 1.626 . S
C189 C137 1.623 . S
C205 C151 1.620 . S
C207 C39 1.617 . S
C223 C165 1.626 . S
C225 C53 1.623 . S
C241 C95 1.626 . S
C243 C67 1.623 . S
C259 C109 1.620 . S
C261 C81 1.617 . S
C277 C13 1.375 . S
C279 C55 1.376 . S
C295 C69 1.375 . S
C297 C27 1.375 . S
C313 C83 1.370 . S
C315 C41 1.365 . S
C331 C97 1.375 . S
C333 C139 1.376 . S
C349 C153 1.370 . S
C351 C111 1.365 . S
C367 C125 1.375 . S
C369 C167 1.375 . S
C385 C91 1.278 . S
C387 C7 1.281 . S
C403 C21 1.272 . S
C405 C105 1.275 . S
C421 C119 1.272 . S
C423 C35 1.275 . S
C439 C133 1.278 . S
C441 C49 1.281 . S
C457 C63 1.272 . S
C459 C147 1.275 . S
C475 C161 1.272 . S
C477 C77 1.275 . S
C493 C8 1.152 . S
C495 C106 1.153 . S
C511 C120 1.156 . S
C513 C22 1.156 . S
C529 C134 1.152 . S
C531 C36 1.153 . S
C547 C50 1.152 . S
C549 C148 1.153 . S
C565 C162 1.156 . S
C567 C64 1.156 . S
C583 C92 1.152 . S
C585 C78 1.153 . S
