# Generated by pormake.
# Topology unv, (4)-cn, num edge types: 1
# Building blocks:
#     Node 0, Type 0, BuildingBlock: AZAVOO_clean_sbu_0, # of connection points: 4
#     Node 1, Type 0, BuildingBlock: AZAVOO_clean_sbu_0, # of connection points: 4
#     Node 2, Type 0, BuildingBlock: AZAVOO_clean_sbu_0, # of connection points: 4
#     Node 3, Type 0, BuildingBlock: AZAVOO_clean_sbu_0, # of connection points: 4
#     Node 4, Type 0, BuildingBlock: AZAVOO_clean_sbu_0, # of connection points: 4
#     Node 5, Type 0, BuildingBlock: AZAVOO_clean_sbu_0, # of connection points: 4
#     Node 6, Type 0, BuildingBlock: AZAVOO_clean_sbu_0, # of connection points: 4
#     Node 7, Type 0, BuildingBlock: AZAVOO_clean_sbu_0, # of connection points: 4
#     Node 8, Type 0, BuildingBlock: AZAVOO_clean_sbu_0, # of connection points: 4
#     Node 9, Type 0, BuildingBlock: AZAVOO_clean_sbu_0, # of connection points: 4
#     Node 10, Type 0, BuildingBlock: AZAVOO_clean_sbu_0, # of connection points: 4
#     Node 11, Type 0, BuildingBlock: AZAVOO_clean_sbu_0, # of connection points: 4
#     Node 12, Type 0, BuildingBlock: AZAVOO_clean_sbu_0, # of connection points: 4
#     Node 13, Type 0, BuildingBlock: AZAVOO_clean_sbu_0, # of connection points: 4
#     Node 14, Type 0, BuildingBlock: AZAVOO_clean_sbu_0, # of connection points: 4
#     Node 15, Type 0, BuildingBlock: AZAVOO_clean_sbu_0, # of connection points: 4
#     Node 16, Type 0, BuildingBlock: AZAVOO_clean_sbu_0, # of connection points: 4
#     Node 17, Type 0, BuildingBlock: AZAVOO_clean_sbu_0, # of connection points: 4
#     Node 18, Type 0, BuildingBlock: AZAVOO_clean_sbu_0, # of connection points: 4
#     Node 19, Type 0, BuildingBlock: AZAVOO_clean_sbu_0, # of connection points: 4
#     Node 20, Type 0, BuildingBlock: AZAVOO_clean_sbu_0, # of connection points: 4
#     Node 21, Type 0, BuildingBlock: AZAVOO_clean_sbu_0, # of connection points: 4
#     Node 22, Type 0, BuildingBlock: AZAVOO_clean_sbu_0, # of connection points: 4
#     Node 23, Type 0, BuildingBlock: AZAVOO_clean_sbu_0, # of connection points: 4
#     Edge 24, Type (0, 0), BuildingBlock: AJUNOK_clean_linker_0, # of connection points: 2
#     Edge 25, Type (0, 0), BuildingBlock: AJUNOK_clean_linker_0, # of connection points: 2
#     Edge 26, Type (0, 0), BuildingBlock: AJUNOK_clean_linker_0, # of connection points: 2
#     Edge 27, Type (0, 0), BuildingBlock: AJUNOK_clean_linker_0, # of connection points: 2
#     Edge 28, Type (0, 0), BuildingBlock: AJUNOK_clean_linker_0, # of connection points: 2
#     Edge 29, Type (0, 0), BuildingBlock: AJUNOK_clean_linker_0, # of connection points: 2
#     Edge 30, Type (0, 0), BuildingBlock: AJUNOK_clean_linker_0, # of connection points: 2
#     Edge 31, Type (0, 0), BuildingBlock: AJUNOK_clean_linker_0, # of connection points: 2
#     Edge 32, Type (0, 0), BuildingBlock: AJUNOK_clean_linker_0, # of connection points: 2
#     Edge 33, Type (0, 0), BuildingBlock: AJUNOK_clean_linker_0, # of connection points: 2
#     Edge 34, Type (0, 0), BuildingBlock: AJUNOK_clean_linker_0, # of connection points: 2
#     Edge 35, Type (0, 0), BuildingBlock: AJUNOK_clean_linker_0, # of connection points: 2
#     Edge 36, Type (0, 0), BuildingBlock: AJUNOK_clean_linker_0, # of connection points: 2
#     Edge 37, Type (0, 0), BuildingBlock: AJUNOK_clean_linker_0, # of connection points: 2
#     Edge 38, Type (0, 0), BuildingBlock: AJUNOK_clean_linker_0, # of connection points: 2
#     Edge 39, Type (0, 0), BuildingBlock: AJUNOK_clean_linker_0, # of connection points: 2
#     Edge 40, Type (0, 0), BuildingBlock: AJUNOK_clean_linker_0, # of connection points: 2
#     Edge 41, Type (0, 0), BuildingBlock: AJUNOK_clean_linker_0, # of connection points: 2
#     Edge 42, Type (0, 0), BuildingBlock: AJUNOK_clean_linker_0, # of connection points: 2
#     Edge 43, Type (0, 0), BuildingBlock: AJUNOK_clean_linker_0, # of connection points: 2
#     Edge 44, Type (0, 0), BuildingBlock: AJUNOK_clean_linker_0, # of connection points: 2
#     Edge 45, Type (0, 0), BuildingBlock: AJUNOK_clean_linker_0, # of connection points: 2
#     Edge 46, Type (0, 0), BuildingBlock: AJUNOK_clean_linker_0, # of connection points: 2
#     Edge 47, Type (0, 0), BuildingBlock: AJUNOK_clean_linker_0, # of connection points: 2
#     Edge 48, Type (0, 0), BuildingBlock: AJUNOK_clean_linker_0, # of connection points: 2
#     Edge 49, Type (0, 0), BuildingBlock: AJUNOK_clean_linker_0, # of connection points: 2
#     Edge 50, Type (0, 0), BuildingBlock: AJUNOK_clean_linker_0, # of connection points: 2
#     Edge 51, Type (0, 0), BuildingBlock: AJUNOK_clean_linker_0, # of connection points: 2
#     Edge 52, Type (0, 0), BuildingBlock: AJUNOK_clean_linker_0, # of connection points: 2
#     Edge 53, Type (0, 0), BuildingBlock: AJUNOK_clean_linker_0, # of connection points: 2
#     Edge 54, Type (0, 0), BuildingBlock: AJUNOK_clean_linker_0, # of connection points: 2
#     Edge 55, Type (0, 0), BuildingBlock: AJUNOK_clean_linker_0, # of connection points: 2
#     Edge 56, Type (0, 0), BuildingBlock: AJUNOK_clean_linker_0, # of connection points: 2
#     Edge 57, Type (0, 0), BuildingBlock: AJUNOK_clean_linker_0, # of connection points: 2
#     Edge 58, Type (0, 0), BuildingBlock: AJUNOK_clean_linker_0, # of connection points: 2
#     Edge 59, Type (0, 0), BuildingBlock: AJUNOK_clean_linker_0, # of connection points: 2
#     Edge 60, Type (0, 0), BuildingBlock: AJUNOK_clean_linker_0, # of connection points: 2
#     Edge 61, Type (0, 0), BuildingBlock: AJUNOK_clean_linker_0, # of connection points: 2
#     Edge 62, Type (0, 0), BuildingBlock: AJUNOK_clean_linker_0, # of connection points: 2
#     Edge 63, Type (0, 0), BuildingBlock: AJUNOK_clean_linker_0, # of connection points: 2
#     Edge 64, Type (0, 0), BuildingBlock: AJUNOK_clean_linker_0, # of connection points: 2
#     Edge 65, Type (0, 0), BuildingBlock: AJUNOK_clean_linker_0, # of connection points: 2
#     Edge 66, Type (0, 0), BuildingBlock: AJUNOK_clean_linker_0, # of connection points: 2
#     Edge 67, Type (0, 0), BuildingBlock: AJUNOK_clean_linker_0, # of connection points: 2
#     Edge 68, Type (0, 0), BuildingBlock: AJUNOK_clean_linker_0, # of connection points: 2
#     Edge 69, Type (0, 0), BuildingBlock: AJUNOK_clean_linker_0, # of connection points: 2
#     Edge 70, Type (0, 0), BuildingBlock: AJUNOK_clean_linker_0, # of connection points: 2
#     Edge 71, Type (0, 0), BuildingBlock: AJUNOK_clean_linker_0, # of connection points: 2
# Relax obj value: 0.348
# Max RMSD: 0.356
# Mean RMSD: 0.320
data_MOF--net-unv--node1-AZAVOO_clean_sbu_0--edge1-AJUNOK_clean_linker_0
_symmetry_space_group_name_H-M    P1
_symmetry_Int_Tables_number       1
_symmetry_cell_setting            triclinic
loop_
_symmetry_equiv_pos_as_xyz
'x, y, z'
_cell_length_a     36.093321
_cell_length_b     35.013457
_cell_length_c     35.579572
_cell_angle_alpha  90.111724
_cell_angle_beta   89.949977
_cell_angle_gamma 90.036022
loop_
_atom_site_label
_atom_site_type_symbol
_atom_site_fract_x
_atom_site_fract_y
_atom_site_fract_z
_atom_type_partial_charge
Mg0 Mg 0.07678 0.08372 0.38041 0.0
O1 O 0.02367 0.05696 0.40342 0.0
O2 O 0.01092 0.08109 0.45998 0.0
Mg3 Mg 0.05489 0.12698 0.47117 0.0
C4 C 1.00397 0.05785 0.43321 0.0
C5 C 0.08346 0.04011 0.30192 0.0
O6 O 0.11928 0.04441 0.30684 0.0
O7 O 0.04704 0.13891 0.36379 0.0
O8 O 0.0369 0.1626 0.42109 0.0
O9 O 0.10747 0.03745 0.40922 0.0
O10 O 0.09421 0.09184 0.43751 0.0
C11 C 0.0348 0.16495 0.38548 0.0
C12 C 0.10629 0.05708 0.44001 0.0
O13 O 0.06123 0.05618 0.32468 0.0
Mg14 Mg 0.92182 0.3838 0.39953 0.0
O15 O 0.97547 0.41637 0.41132 0.0
O16 O 1.00287 0.39527 0.46331 0.0
Mg17 Mg 0.96642 0.34606 0.48415 0.0
C18 C 1.00147 0.41817 0.43552 0.0
C19 C 0.925 0.44733 0.34131 0.0
O20 O 0.92418 0.46525 0.37377 0.0
O21 O 0.95373 0.33221 0.37755 0.0
O22 O 0.97908 0.31149 0.43099 0.0
O23 O 0.89156 0.426 0.43408 0.0
O24 O 0.91745 0.37471 0.45869 0.0
C25 C 0.97382 0.30875 0.39566 0.0
C26 C 0.90118 0.40728 0.46375 0.0
O27 O 0.92229 0.41108 0.34115 0.0
Mg28 Mg 0.04342 0.8751 0.13652 0.0
O29 O 0.99399 0.91349 0.12604 0.0
O30 O 0.96723 0.89336 0.07337 0.0
Mg31 Mg 0.00665 0.85087 0.04423 0.0
C32 C 0.96788 0.91527 0.1021 0.0
C33 C 0.03672 0.89938 0.23246 0.0
O34 O 0.02253 0.87485 0.25641 0.0
O35 O 0.00605 0.82412 0.14647 0.0
O36 O 1.00155 0.80307 0.08754 0.0
O37 O 0.08141 0.91779 0.10932 0.0
O38 O 0.05347 0.87118 0.07897 0.0
C39 C 1.00048 0.79733 0.12293 0.0
C40 C 0.07478 0.90053 0.07779 0.0
O41 O 0.03904 0.89043 0.19803 0.0
Mg42 Mg 0.99344 0.60786 0.16519 0.0
O43 O 0.03092 0.55939 0.14117 0.0
O44 O 0.0628 0.58 0.09089 0.0
Mg45 Mg 0.05748 0.64382 0.09188 0.0
C46 C 0.05291 0.55351 0.11335 0.0
C47 C 0.96333 0.53728 0.2092 0.0
O48 O 0.95969 0.52461 0.17464 0.0
O49 O 0.04016 0.63332 0.20022 0.0
O50 O 0.07562 0.63494 0.15227 0.0
O51 O 0.9524 0.5944 0.12215 0.0
O52 O 0.99803 0.6348 0.11041 0.0
C53 C 0.05782 0.6535 0.17691 0.0
C54 C 0.97007 0.61517 0.09804 0.0
O55 O 0.97642 0.57059 0.21451 0.0
Mg56 Mg 0.33796 0.13266 0.10501 0.0
O57 O 0.33889 0.07621 0.07119 0.0
O58 O 0.39329 0.04827 0.0838 0.0
Mg59 Mg 0.42731 0.08677 0.12228 0.0
C60 C 0.36198 0.04876 0.06719 0.0
C61 C 0.24878 0.13013 0.07945 0.0
O62 O 0.21472 0.13684 0.09065 0.0
O63 O 0.33099 0.10154 0.1603 0.0
O64 O 0.38684 0.07659 0.17118 0.0
O65 O 0.36252 0.16262 0.05574 0.0
O66 O 0.39504 0.13583 0.10117 0.0
C67 C 0.35339 0.08302 0.18105 0.0
C68 C 0.39454 0.15303 0.06927 0.0
O69 O 0.2752 0.13795 0.10172 0.0
Mg70 Mg 0.65546 0.45002 0.12923 0.0
O71 O 0.62529 0.49635 0.09671 0.0
O72 O 0.57249 0.51657 0.12344 0.0
Mg73 Mg 0.57668 0.49102 0.183 0.0
C74 C 0.59567 0.51621 0.09623 0.0
C75 C 0.69772 0.44529 0.05273 0.0
O76 O 0.66621 0.42956 0.04267 0.0
O77 O 0.68508 0.49139 0.16845 0.0
O78 O 0.6334 0.51863 0.18244 0.0
O79 O 0.61647 0.4085 0.10485 0.0
O80 O 0.60412 0.4392 0.15804 0.0
C81 C 0.6632 0.5033 0.19374 0.0
C82 C 0.59354 0.41625 0.13177 0.0
O83 O 0.70255 0.45483 0.08688 0.0
Mg84 Mg 0.36857 -0.00209 0.38741 0.0
O85 O 0.37335 0.05008 0.42694 0.0
O86 O 0.41531 0.09162 0.40519 0.0
Mg87 Mg 0.41104 0.07922 0.34261 0.0
C88 C 0.39476 0.0789 0.43161 0.0
C89 C 0.32186 0.93515 0.42716 0.0
O90 O 0.3364 0.91507 0.39963 0.0
O91 O 0.32116 0.02016 0.35094 0.0
O92 O 0.3501 0.07358 0.35667 0.0
O93 O 0.42303 0.98238 0.40846 0.0
O94 O 0.41632 0.01678 0.35628 0.0
C95 C 0.32793 0.05308 0.33793 0.0
C96 C 0.43775 0.0016 0.38121 0.0
O97 O 0.32914 0.97059 0.4294 0.0
Mg98 Mg 0.64886 0.48037 0.38658 0.0
O99 O 0.63416 0.43262 0.42745 0.0
O100 O 0.59585 0.38889 0.403 0.0
Mg101 Mg 0.59856 0.40107 0.33933 0.0
C102 C 0.61383 0.40297 0.43078 0.0
C103 C 0.67631 0.51216 0.46369 0.0
O104 O 0.64231 0.50265 0.47303 0.0
O105 O 0.69614 0.4462 0.36132 0.0
O106 O 0.6609 0.39881 0.34744 0.0
O107 O 0.59484 0.50564 0.3991 0.0
O108 O 0.60232 0.46361 0.35278 0.0
C109 C 0.68184 0.42549 0.33595 0.0
C110 C 0.58058 0.48437 0.37307 0.0
O111 O 0.68725 0.50646 0.43018 0.0
Mg112 Mg 0.11008 0.33436 -0.0005 0.0
O113 O 0.09687 0.38473 0.0413 0.0
O114 O 0.03585 0.398 0.0366 0.0
Mg115 Mg 0.01062 0.34467 0.01357 0.0
C116 C 0.06843 0.40566 0.04847 0.0
C117 C 0.19229 0.36111 0.00431 0.0
O118 O 0.17639 0.39058 0.98823 0.0
O119 O 0.09275 0.28507 0.04007 0.0
O120 O 0.05016 0.3241 0.05803 0.0
O121 O 0.10482 0.37811 0.95341 0.0
O122 O 0.05848 0.34273 0.97432 0.0
C123 C 0.06197 0.29034 0.05689 0.0
C124 C 0.06986 0.36989 0.9531 0.0
O125 O 0.1721 0.33324 0.01477 0.0
Mg126 Mg 0.1012 0.64991 0.47152 0.0
O127 O 0.08207 0.58932 0.4502 0.0
O128 O 0.02064 0.58399 0.46049 0.0
Mg129 Mg 1.00038 0.64467 0.46462 0.0
C130 C 0.05205 0.56967 0.45175 0.0
C131 C 0.17801 0.60916 0.47093 0.0
O132 O 0.15897 0.58749 0.49405 0.0
O133 O 0.08694 0.68431 0.41682 0.0
O134 O 0.03977 0.64681 0.41592 0.0
O135 O 0.0941 0.62634 0.53005 0.0
O136 O 0.04998 0.65716 0.49942 0.0
C137 C 0.054 0.67793 0.40555 0.0
C138 C 0.06025 0.63837 0.52851 0.0
O139 O 0.16176 0.63723 0.4553 0.0
Mg140 Mg 0.91156 0.82224 0.46538 0.0
O141 O 0.92663 0.88637 0.45246 0.0
O142 O 0.9882 0.89338 0.46005 0.0
Mg143 Mg 0.01084 0.83457 0.44748 0.0
C144 C 0.95568 0.90722 0.45615 0.0
C145 C 0.8335 0.86134 0.47811 0.0
O146 O 0.85378 0.88337 0.49985 0.0
O147 O 0.91867 0.80004 0.40399 0.0
O148 O 0.96593 0.83713 0.40396 0.0
O149 O 0.92696 0.83358 0.52609 0.0
O150 O 0.96622 0.81152 0.48374 0.0
C151 C 0.95188 0.80595 0.39326 0.0
C152 C 0.96027 0.82303 0.51739 0.0
O153 O 0.84925 0.83489 0.45941 0.0
Mg154 Mg 0.41689 0.60087 0.42032 0.0
O155 O 0.43354 0.56267 0.47098 0.0
O156 O 0.49481 0.55389 0.46602 0.0
Mg157 Mg 0.5171 0.58358 0.41376 0.0
C158 C 0.46405 0.54854 0.4829 0.0
C159 C 0.3364 0.58403 0.44743 0.0
O160 O 0.34848 0.54956 0.4395 0.0
O161 O 0.44348 0.65496 0.44755 0.0
O162 O 0.50339 0.64136 0.43925 0.0
O163 O 0.4105 0.54637 0.38662 0.0
O164 O 0.46157 0.58097 0.38948 0.0
C165 C 0.47789 0.6639 0.4504 0.0
C166 C 0.44519 0.55047 0.37846 0.0
O167 O 0.35878 0.61201 0.44468 0.0
Mg168 Mg 0.54784 0.60446 0.88864 0.0
O169 O 0.50213 0.56162 0.90783 0.0
O170 O 0.48786 0.57363 0.96813 0.0
Mg171 Mg 0.50504 0.63504 0.97571 0.0
C172 C 0.487 0.55213 0.93911 0.0
C173 C 0.57645 0.55769 0.82167 0.0
O174 O 0.6054 0.56059 0.84382 0.0
O175 O 0.51002 0.65406 0.87168 0.0
O176 O 0.4743 0.64296 0.92019 0.0
O177 O 0.58511 0.56796 0.92088 0.0
O178 O 0.55673 0.61795 0.94611 0.0
C179 C 0.48351 0.66431 0.89295 0.0
C180 C 0.57528 0.58671 0.95063 0.0
O181 O 0.54707 0.5756 0.83072 0.0
Mg182 Mg 0.40046 0.90111 0.89475 0.0
O183 O 0.45459 0.92694 0.91576 0.0
O184 O 0.46353 0.91617 0.97682 0.0
Mg185 Mg 0.41527 0.87732 0.99362 0.0
C186 C 0.4737 0.93073 0.94564 0.0
C187 C 0.39828 0.92733 0.81024 0.0
O188 O 0.36258 0.92133 0.81426 0.0
O189 O 0.42726 0.8424 0.89153 0.0
O190 O 0.4353 0.83043 0.95259 0.0
O191 O 0.37141 0.95345 0.91229 0.0
O192 O 0.37938 0.90451 0.95041 0.0
C193 C 0.43838 0.82082 0.91805 0.0
C194 C 0.36881 0.93952 0.94579 0.0
O195 O 0.42026 0.91794 0.83646 0.0
Mg196 Mg 0.54177 0.38213 0.64702 0.0
O197 O 0.50167 0.4201 0.6119 0.0
O198 O 0.48453 0.38896 0.55942 0.0
Mg199 Mg 0.49862 0.32638 0.5706 0.0
C200 C 0.48626 0.41935 0.5794 0.0
C201 C 0.57344 0.44206 0.70309 0.0
O202 O 0.60378 0.42965 0.68672 0.0
O203 O 0.4982 0.34681 0.67875 0.0
O204 O 0.47076 0.3381 0.62593 0.0
O205 O 0.58512 0.40003 0.60746 0.0
O206 O 0.55088 0.34861 0.59699 0.0
C207 C 0.48139 0.32408 0.65685 0.0
C208 C 0.57547 0.37258 0.58509 0.0
O209 O 0.54256 0.42766 0.69331 0.0
Mg210 Mg 0.45917 0.10735 0.64991 0.0
O211 O 0.49966 0.06634 0.61775 0.0
O212 O 0.52048 0.0953 0.56549 0.0
Mg213 Mg 0.507 0.15827 0.57357 0.0
C214 C 0.51733 0.06578 0.5864 0.0
C215 C 0.44022 0.03129 0.69037 0.0
O216 O 0.43105 0.02307 0.65556 0.0
O217 O 0.50268 0.14241 0.68207 0.0
O218 O 0.5325 0.14767 0.63018 0.0
O219 O 0.4166 0.08932 0.61035 0.0
O220 O 0.45273 0.13883 0.59822 0.0
C221 C 0.52172 0.16332 0.66033 0.0
C222 C 0.42776 0.11493 0.58676 0.0
O223 O 0.45374 0.06409 0.69757 0.0
Mg224 Mg 0.85467 0.59466 0.60862 0.0
O225 O 0.86498 0.5313 0.59254 0.0
O226 O 0.91927 0.51156 0.61527 0.0
Mg227 Mg 0.92409 0.55085 0.66601 0.0
C228 C 0.89157 0.50717 0.59337 0.0
C229 C 0.77917 0.56374 0.57851 0.0
O230 O 0.78222 0.54196 0.60835 0.0
O231 O 0.82457 0.58494 0.66444 0.0
O232 O 0.8625 0.53752 0.67154 0.0
O233 O 0.89811 0.60789 0.56763 0.0
O234 O 0.91003 0.60018 0.62857 0.0
C235 C 0.83872 0.5599 0.68571 0.0
C236 C 0.92186 0.6057 0.59478 0.0
O237 O 0.8027 0.59015 0.57304 0.0
Mg238 Mg 0.1647 0.88054 0.60293 0.0
O239 O 0.14965 0.93514 0.5713 0.0
O240 O 0.10027 0.9621 0.59772 0.0
Mg241 Mg 0.08371 0.9242 0.64742 0.0
C242 C 0.12539 0.96152 0.57248 0.0
C243 C 0.21872 0.87273 0.5362 0.0
O244 O 0.18886 0.85608 0.52296 0.0
O245 O 0.18968 0.913 0.65283 0.0
O246 O 0.13787 0.93612 0.67859 0.0
O247 O 0.12731 0.84833 0.56545 0.0
O248 O 0.10798 0.87353 0.61886 0.0
C249 C 0.17293 0.93171 0.67847 0.0
C250 C 0.10017 0.85596 0.5879 0.0
O251 O 0.21911 0.88355 0.57036 0.0
Mg252 Mg 0.88631 0.49735 0.90618 0.0
O253 O 0.90913 0.54385 0.94466 0.0
O254 O 0.96145 0.56736 0.92105 0.0
Mg255 Mg 0.97257 0.53437 0.86631 0.0
C256 C 0.93673 0.56651 0.94666 0.0
C257 C 0.81312 0.46879 0.94096 0.0
O258 O 0.82255 0.43932 0.92015 0.0
O259 O 0.86632 0.53979 0.86271 0.0
O260 O 0.9201 0.55614 0.83607 0.0
O261 O 0.91855 0.45439 0.93688 0.0
O262 O 0.93997 0.48527 0.88696 0.0
C263 C 0.88468 0.5569 0.83711 0.0
C264 C 0.94546 0.46137 0.91385 0.0
O265 O 0.8326 0.49896 0.93934 0.0
Mg266 Mg 0.15265 0.03614 0.88942 0.0
O267 O 0.14278 0.9858 0.92879 0.0
O268 O 0.09674 0.95004 0.90652 0.0
Mg269 Mg 0.08077 0.97388 0.84918 0.0
C270 C 0.12017 0.95808 0.93215 0.0
C271 C 0.216 0.08215 0.93144 0.0
O272 O 0.20396 0.11015 0.91019 0.0
O273 O 0.18532 0.00122 0.8462 0.0
O274 O 0.13849 0.96594 0.82398 0.0
O275 O 0.10714 0.06415 0.92064 0.0
O276 O 0.09806 0.03087 0.86839 0.0
C277 C 0.17254 0.9758 0.82389 0.0
C278 C 0.08452 0.04837 0.89705 0.0
O279 O 0.20309 0.04878 0.9262 0.0
Mg280 Mg 0.59416 0.88115 0.43421 0.0
O281 O 0.57599 0.91859 0.48523 0.0
O282 O 0.5155 0.92998 0.47678 0.0
Mg283 Mg 0.49528 0.90262 0.42241 0.0
C284 C 0.54535 0.93382 0.4956 0.0
C285 C 0.67503 0.8917 0.46425 0.0
O286 O 0.66571 0.92744 0.45828 0.0
O287 O 0.56405 0.82741 0.45761 0.0
O288 O 0.50521 0.84332 0.44618 0.0
O289 O 0.60502 0.93623 0.403 0.0
O290 O 0.55233 0.90413 0.40178 0.0
C291 C 0.52928 0.81959 0.45802 0.0
C292 C 0.57072 0.93409 0.39277 0.0
O293 O 0.65049 0.86586 0.46035 0.0
Mg294 Mg 0.58066 0.15723 0.93105 0.0
O295 O 0.56938 0.09158 0.93191 0.0
O296 O 0.50913 0.0842 0.91704 0.0
Mg297 Mg 0.48161 0.14007 0.902 0.0
C298 C 0.5406 0.07077 0.92667 0.0
C299 C 0.6625 0.14969 0.96309 0.0
O300 O 0.64503 0.1557 0.99497 0.0
O301 O 0.57869 0.1602 0.8665 0.0
O302 O 0.52307 0.14402 0.85336 0.0
O303 O 0.56079 0.16071 0.99077 0.0
O304 O 0.52358 0.16494 0.94199 0.0
C305 C 0.54614 0.17099 0.8575 0.0
C306 C 0.52739 0.16368 0.97782 0.0
O307 O 0.64379 0.14825 0.93277 0.0
Mg308 Mg 0.43225 0.31974 0.02262 0.0
O309 O 0.44499 0.37792 0.99535 0.0
O310 O 0.50625 0.38728 -0.00044 0.0
Mg311 Mg 0.53296 0.33683 0.02942 0.0
C312 C 0.474 0.39787 0.98926 0.0
C313 C 0.35356 0.35232 0.01329 0.0
O314 O 0.37128 0.37928 0.03166 0.0
O315 O 0.45598 0.28862 0.96931 0.0
O316 O 0.51587 0.30071 0.97993 0.0
O317 O 0.43018 0.34956 0.07933 0.0
O318 O 0.48001 0.32288 0.05496 0.0
C319 C 0.49036 0.28548 0.96022 0.0
C320 C 0.46529 0.34264 0.08127 0.0
O321 O 0.37157 0.32293 0.00262 0.0
Mg322 Mg 0.90386 0.11765 0.98942 0.0
O323 O 0.90271 0.07198 0.03678 0.0
O324 O 0.96232 0.0614 0.05064 0.0
Mg325 Mg 1.00121 0.09149 0.011 0.0
C326 C 0.9279 0.05601 0.05656 0.0
C327 C 0.82385 0.13117 0.96504 0.0
O328 O 0.84265 0.12623 0.93378 0.0
O329 O 0.92471 0.16611 0.02905 0.0
O330 O 0.98364 0.14709 0.03544 0.0
O331 O 0.90727 0.07119 0.94429 0.0
O332 O 0.95486 0.09825 0.97257 0.0
C333 C 0.9578 0.17094 0.04148 0.0
C334 C 0.94268 0.07362 0.9492 0.0
O335 O 0.84152 0.13013 0.99603 0.0
C336 C 0.14331 0.98243 0.50751 0.0
C337 C 0.12412 0.98977 0.54126 0.0
C338 C 0.13848 0.00558 0.47575 0.0
C339 C 0.11473 0.03749 0.4763 0.0
H340 H 0.16103 0.9576 0.50493 0.0
H341 H 0.15281 -0.00232 0.45012 0.0
S342 S 0.0609 0.07132 0.5591 0.0
N343 N 0.08251 0.03285 0.57423 0.0
N344 N 0.07387 0.07634 0.51495 0.0
C345 C 0.09707 0.04634 0.51057 0.0
C346 C 0.10163 0.0225 0.54288 0.0
C347 C 0.86585 0.45004 0.50642 0.0
C348 C 0.89654 0.42591 0.50102 0.0
C349 C 0.86339 0.47435 0.53762 0.0
C350 C 0.89187 0.47609 0.56467 0.0
H351 H 0.84408 0.45126 0.4855 0.0
H352 H 0.83968 0.49324 0.53941 0.0
S353 S 0.97692 0.41643 0.5654 0.0
N354 N 0.95477 0.40339 0.52692 0.0
N355 N 0.95049 0.44907 0.58543 0.0
C356 C 0.92173 0.45047 0.56082 0.0
C357 C 0.924 0.42541 0.52905 0.0
C358 C 0.081 0.89442 0.00812 0.0
C359 C 0.09011 0.91401 0.04146 0.0
C360 C 0.09311 0.90734 0.97302 0.0
C361 C 0.11526 0.94019 0.96967 0.0
H362 H 0.06361 0.86927 0.00883 0.0
H363 H 0.08387 0.89214 0.94818 0.0
S364 S 0.15043 -0.00041 0.04882 0.0
N365 N 0.12513 0.96626 0.06924 0.0
N366 N 0.14837 0.99045 0.00334 0.0
C367 C 0.12658 0.95877 0.00303 0.0
C368 C 0.11381 0.94578 0.03885 0.0
C369 C 0.92582 0.59409 0.0488 0.0
C370 C 0.95986 0.6116 0.05764 0.0
C371 C 0.91741 0.58249 0.01221 0.0
C372 C 0.94275 0.5876 0.98258 0.0
H373 H 0.90594 0.58751 0.0707 0.0
H374 H 0.89157 0.56739 0.00776 0.0
S375 S 0.03213 0.63995 0.98885 0.0
N376 N 0.01615 0.63975 0.03234 0.0
N377 N 1.00086 0.61719 0.96342 0.0
C378 C 0.97533 0.60853 0.99017 0.0
C379 C 0.98375 0.62073 0.02771 0.0
C380 C 0.4269 0.16565 0.00859 0.0
C381 C 0.42895 0.15826 0.0473 0.0
C382 C 0.45898 0.16815 0.98667 0.0
C383 C 0.49439 0.16307 0.00251 0.0
H384 H 0.40031 0.16882 0.99485 0.0
H385 H 0.45578 0.17383 0.95698 0.0
S386 S 0.51499 0.14804 0.10357 0.0
N387 N 0.46936 0.14991 0.1014 0.0
N388 N 0.52968 0.1535 0.05996 0.0
C389 C 0.49693 0.15725 0.0415 0.0
C390 C 0.4642 0.15504 0.06392 0.0
C391 C 0.52641 0.42095 0.11657 0.0
C392 C 0.55625 0.3997 0.13088 0.0
C393 C 0.4937 0.40262 0.10488 0.0
C394 C 0.49032 0.36267 0.10714 0.0
H395 H 0.52955 0.45124 0.11136 0.0
H396 H 0.47274 0.41923 0.0905 0.0
S397 S 0.55894 0.29538 0.14689 0.0
N398 N 0.57903 0.33766 0.15021 0.0
N399 N 0.51773 0.30323 0.12829 0.0
C400 C 0.51874 0.34183 0.12446 0.0
C401 C 0.55182 0.36038 0.13623 0.0
C402 C 0.53638 0.99158 0.40974 0.0
C403 C 0.5494 0.96751 0.38101 0.0
C404 C 0.50073 0.00724 0.40784 0.0
C405 C 0.47807 0.00055 0.37643 0.0
H406 H 0.55132 0.99359 0.43607 0.0
H407 H 0.4895 0.02123 0.43255 0.0
S408 S 0.5037 0.94808 0.28992 0.0
N409 N 0.54006 0.94355 0.31775 0.0
N410 N 0.4738 0.97499 0.31312 0.0
C411 C 0.4933 0.98206 0.34505 0.0
C412 C 0.52908 0.96514 0.34752 0.0
C413 C 0.48029 0.49358 0.39598 0.0
C414 C 0.46877 0.5184 0.36729 0.0
C415 C 0.51617 0.47833 0.39579 0.0
C416 C 0.54067 0.48623 0.36614 0.0
H417 H 0.46366 0.49038 0.42114 0.0
H418 H 0.52594 0.46345 0.42056 0.0
S419 S 0.52042 0.54206 0.28049 0.0
N420 N 0.4822 0.54515 0.30595 0.0
N421 N 0.549 0.51454 0.30453 0.0
C422 C 0.52746 0.50607 0.33475 0.0
C423 C 0.4914 0.52253 0.33548 0.0
C424 C 0.04462 0.44736 0.09899 0.0
C425 C 0.07197 0.44006 0.07176 0.0
C426 C 0.04071 0.48358 0.11502 0.0
C427 C 0.06361 0.51393 0.10376 0.0
H428 H 0.02469 0.42544 0.10635 0.0
H429 H 0.0178 0.48835 0.13414 0.0
S430 S 0.14342 0.50756 0.03797 0.0
N431 N 0.12532 0.46422 0.03779 0.0
N432 N 0.11807 0.53282 0.06764 0.0
C433 C 0.09324 0.50602 0.07902 0.0
C434 C 0.09743 0.46887 0.06306 0.0
C435 C 0.02177 0.47922 0.40565 0.0
C436 C 0.02577 0.45252 0.43502 0.0
C437 C 0.03439 0.51682 0.40958 0.0
C438 C 0.05225 0.52882 0.44252 0.0
H439 H 0.006 0.47214 0.3807 0.0
H440 H 0.02748 0.53739 0.38796 0.0
S441 S 0.07652 0.46897 0.52445 0.0
N442 N 0.05414 0.43973 0.49591 0.0
N443 N 0.07809 0.51057 0.50268 0.0
C444 C 0.0603 0.50166 0.47018 0.0
C445 C 0.04716 0.46333 0.46648 0.0
C446 C 0.95586 0.96408 0.41517 0.0
C447 C 0.95344 0.94884 0.45153 0.0
C448 C 0.96817 0.00163 0.40942 0.0
C449 C 0.97856 0.02512 0.4399 0.0
H450 H 0.95167 0.9458 0.39092 0.0
H451 H 0.97267 0.01108 0.38079 0.0
S452 S 0.97034 2e-05 0.54096 0.0
N453 N 0.9573 0.96098 0.51844 0.0
N454 N 0.97974 0.03181 0.50811 0.0
C455 C 0.97196 0.0114 0.47656 0.0
C456 C 0.95977 0.97304 0.48226 0.0
C457 C 0.43998 0.48893 0.51256 0.0
C458 C 0.46391 0.52061 0.51403 0.0
C459 C 0.44592 0.45691 0.53558 0.0
C460 C 0.47537 0.45593 0.56153 0.0
H461 H 0.41834 0.48761 0.49151 0.0
H462 H 0.42838 0.43207 0.53185 0.0
S463 S 0.54333 0.53363 0.57875 0.0
N464 N 0.5164 0.5503 0.54506 0.0
N465 N 0.52687 0.49093 0.5892 0.0
C466 C 0.49768 0.48873 0.56518 0.0
C467 C 0.49214 0.52085 0.54116 0.0
C468 C 0.58 0.57351 0.05689 0.0
C469 C 0.58619 0.53405 0.06012 0.0
C470 C 0.5762 0.59058 0.02129 0.0
C471 C 0.57872 0.56864 0.98809 0.0
H472 H 0.57939 0.59134 0.08179 0.0
H473 H 0.57213 0.62118 0.01973 0.0
S474 S 0.58926 0.46313 0.98279 0.0
N475 N 0.59074 0.47305 0.0281 0.0
N476 N 0.58397 0.50461 0.96153 0.0
C477 C 0.58321 0.52884 0.99145 0.0
C478 C 0.58683 0.51168 0.02742 0.0
C479 C 0.36727 0.98146 0.04446 0.0
C480 C 0.35538 0.01917 0.03826 0.0
C481 C 0.36892 0.95484 0.01495 0.0
C482 C 0.35985 0.96527 0.9779 0.0
H483 H 0.37675 0.97289 0.07207 0.0
H484 H 0.37921 0.9266 0.0211 0.0
S485 S 0.32452 0.06002 0.94755 0.0
N486 N 0.33182 0.06495 0.99309 0.0
N487 N 0.33544 0.0154 0.93749 0.0
C488 C 0.34581 0.00237 0.97187 0.0
C489 C 0.34349 0.02921 0.00207 0.0
C490 C 0.56567 0.36082 0.51606 0.0
C491 C 0.58866 0.37295 0.5457 0.0
C492 C 0.57507 0.3683 0.47845 0.0
C493 C 0.60793 0.38788 0.46928 0.0
H494 H 0.53925 0.34759 0.52178 0.0
H495 H 0.55541 0.36068 0.4567 0.0
S496 S 0.68127 0.4179 0.53638 0.0
N497 N 0.64813 0.40016 0.56315 0.0
N498 N 0.66625 0.41353 0.49278 0.0
C499 C 0.63269 0.39687 0.49859 0.0
C500 C 0.62294 0.38959 0.5367 0.0
C501 C 0.39038 0.08285 0.53751 0.0
C502 C 0.41573 0.11184 0.54699 0.0
C503 C 0.3822 0.07419 0.50021 0.0
C504 C 0.39911 0.09397 0.4704 0.0
H505 H 0.37762 0.06539 0.55904 0.0
H506 H 0.36367 0.05043 0.49493 0.0
S507 S 0.4615 0.17784 0.47989 0.0
N508 N 0.45294 0.16467 0.52358 0.0
N509 N 0.43843 0.14766 0.45293 0.0
C510 C 0.42226 0.12513 0.47933 0.0
C511 C 0.43033 0.13426 0.51772 0.0
C512 C 0.01591 0.58998 0.55189 0.0
C513 C 0.03188 0.62642 0.55547 0.0
C514 C 0.98077 0.58234 0.56699 0.0
C515 C 0.96136 0.61064 0.58691 0.0
H516 H 0.02916 0.56838 0.53473 0.0
H517 H 0.96788 0.55496 0.56132 0.0
S518 S 0.99317 0.70897 0.60742 0.0
N519 N 0.02702 0.68997 0.58231 0.0
N520 N 0.96171 0.67501 0.61227 0.0
C521 C 0.9784 0.64599 0.59333 0.0
C522 C 0.01364 0.65404 0.57722 0.0
C523 C 0.02349 0.8048 0.53675 0.0
C524 C 0.99247 0.8284 0.54232 0.0
C525 C 0.05751 0.81317 0.55344 0.0
C526 C 0.06202 0.84545 0.57651 0.0
H527 H 0.02192 0.78045 0.51794 0.0
H528 H 0.08087 0.79482 0.54707 0.0
S529 S 0.98843 0.91479 0.60233 0.0
N530 N 0.96741 0.88391 0.57442 0.0
N531 N 0.03167 0.89991 0.6058 0.0
C532 C 0.03062 0.86805 0.58418 0.0
C533 C 0.99571 0.85942 0.5671 0.0
C534 C 0.04408 0.43405 0.93685 0.0
C535 C 0.04216 0.39397 0.93444 0.0
C536 C 0.0131 0.4566 0.92787 0.0
C537 C 0.97975 0.43938 0.91652 0.0
H538 H 0.06856 0.44779 0.94818 0.0
H539 H 0.01449 0.48724 0.93198 0.0
S540 S 0.96278 0.33645 0.90028 0.0
N541 N 0.00596 0.33873 0.91543 0.0
N542 N 0.94777 0.38097 0.8994 0.0
C543 C 0.97849 0.39977 0.91157 0.0
C544 C 0.00981 0.37704 0.92028 0.0
C545 C 0.01822 0.06015 0.88181 0.0
C546 C 0.04502 0.04489 0.90608 0.0
C547 C 0.98116 0.0634 0.89343 0.0
C548 C 0.97011 0.05062 0.92916 0.0
H549 H 0.02648 0.07264 0.85525 0.0
H550 H 0.96224 0.07992 0.87631 0.0
S551 S 0.02806 -0.00057 0.99845 0.0
N552 N 0.05705 0.01128 0.96445 0.0
N553 N 0.98697 0.01491 0.98491 0.0
C554 C 0.99566 0.03024 0.95096 0.0
C555 C 0.03347 0.02832 0.93995 0.0
C556 C 0.50688 -0.00341 0.57275 0.0
C557 C 0.5302 0.02874 0.5709 0.0
C558 C 0.51372 0.96416 0.55047 0.0
C559 C 0.5447 0.96228 0.52645 0.0
H560 H 0.48158 -0.00238 0.58913 0.0
H561 H 0.49348 0.94129 0.5504 0.0
S562 S 0.61685 0.03682 0.51542 0.0
N563 N 0.58722 0.05534 0.5458 0.0
N564 N 0.60077 0.9939 0.50502 0.0
C565 C 0.56994 0.99285 0.52695 0.0
C566 C 0.56248 0.02624 0.54887 0.0
C567 C 0.52669 0.01914 0.97098 0.0
C568 C 0.541 0.02998 0.93583 0.0
C569 C 0.50871 0.98395 0.9756 0.0
C570 C 0.50422 0.9589 0.94497 0.0
H571 H 0.5255 0.03972 0.99375 0.0
H572 H 0.49467 0.97849 0.00198 0.0
S573 S 0.54609 0.96978 0.85041 0.0
N574 N 0.55636 0.01003 0.87242 0.0
N575 N 0.52274 0.94364 0.88095 0.0
C576 C 0.523 0.96724 0.91132 0.0
C577 C 0.54136 0.00298 0.90675 0.0
C578 C 0.49806 0.48287 0.92909 0.0
C579 C 0.47593 0.51192 0.94471 0.0
C580 C 0.49583 0.44531 0.94237 0.0
C581 C 0.47064 0.43531 0.97082 0.0
H582 H 0.51943 0.48969 0.90878 0.0
H583 H 0.51512 0.4243 0.93149 0.0
S584 S 0.40263 0.49941 0.01673 0.0
N585 N 0.4255 0.52738 0.98741 0.0
N586 N 0.42035 0.45625 0.01126 0.0
C587 C 0.44604 0.46322 0.9842 0.0
C588 C 0.44893 0.50172 0.97138 0.0
C589 C 0.90516 0.99032 0.0625 0.0
C590 C 0.91919 0.023 0.08045 0.0
C591 C 0.91697 0.95381 0.07333 0.0
C592 C 0.9429 0.9491 0.10259 0.0
H593 H 0.88968 0.99306 0.03655 0.0
H594 H 0.90921 0.92981 0.05576 0.0
S595 S 0.97555 0.02542 0.1673 0.0
N596 N 0.9513 0.04813 0.13496 0.0
N597 N 0.97269 0.97964 0.15641 0.0
C598 C 0.95077 0.98111 0.12538 0.0
C599 C 0.93901 0.0182 0.11401 0.0
C600 C 0.98202 0.20629 0.36833 0.0
C601 C 0.02054 0.201 0.37043 0.0
C602 C 0.9666 0.24299 0.37126 0.0
C603 C 0.98938 0.27508 0.37682 0.0
H604 H 0.96366 0.18179 0.36852 0.0
H605 H 0.93676 0.24572 0.3734 0.0
S606 S 0.09182 0.27666 0.37808 0.0
N607 N 0.08107 0.23106 0.373 0.0
N608 N 0.05202 0.29992 0.37929 0.0
C609 C 0.02787 0.27047 0.37489 0.0
C610 C 0.04352 0.23332 0.37143 0.0
C611 C 0.05875 0.71034 0.13559 0.0
C612 C 0.0408 0.68979 0.1642 0.0
C613 C 0.04356 0.74361 0.12096 0.0
C614 C 0.01058 0.7589 0.13544 0.0
H615 H 0.08501 0.70069 0.12427 0.0
H616 H 0.0588 0.75849 0.09917 0.0
S617 S 0.954 0.71906 0.21273 0.0
N618 N 0.98837 0.68832 0.20763 0.0
N619 N 0.96118 0.75294 0.18127 0.0
C620 C 0.99276 0.73988 0.16495 0.0
C621 C 0.00764 0.70495 0.17922 0.0
C622 C 0.35951 0.04139 0.23763 0.0
C623 C 0.34175 0.07196 0.21939 0.0
C624 C 0.35307 0.03386 0.27573 0.0
C625 C 0.32904 0.05697 0.29692 0.0
H626 H 0.3794 0.02387 0.22266 0.0
H627 H 0.36836 0.01101 0.28913 0.0
S628 S 0.27443 0.13917 0.26269 0.0
N629 N 0.29749 0.12418 0.22535 0.0
N630 N 0.28641 0.11036 0.29731 0.0
C631 C 0.31017 0.08666 0.27899 0.0
C632 C 0.31616 0.09401 0.24005 0.0
C633 C 0.66212 0.50275 0.26348 0.0
C634 C 0.66298 0.48214 0.22964 0.0
C635 C 0.6674 0.48439 0.29806 0.0
C636 C 0.67214 0.44446 0.30011 0.0
H637 H 0.65922 0.53355 0.26309 0.0
H638 H 0.66841 0.5018 0.32319 0.0
S639 S 0.67412 0.37713 0.21973 0.0
N640 N 0.66853 0.41952 0.20031 0.0
N641 N 0.67555 0.38481 0.26552 0.0
C642 C 0.6711 0.42335 0.26661 0.0
C643 C 0.66725 0.44219 0.2313 0.0
C644 C 0.29071 0.32164 0.00814 0.0
C645 C 0.31268 0.35489 0.00893 0.0
C646 C 0.25178 0.32381 0.00758 0.0
C647 C 0.23337 0.3593 0.00708 0.0
H648 H 0.30362 0.29373 0.00885 0.0
H649 H 0.23604 0.29746 0.00704 0.0
S650 S 0.27821 0.45477 0.00786 0.0
N651 N 0.31309 0.42433 0.00872 0.0
N652 N 0.2403 0.42839 0.00702 0.0
C653 C 0.25509 0.39269 0.00732 0.0
C654 C 0.2946 0.39049 0.00841 0.0
C655 C 0.24165 0.63178 0.45259 0.0
C656 C 0.21828 0.60215 0.46506 0.0
C657 C 0.27997 0.6261 0.44813 0.0
C658 C 0.29638 0.59037 0.45535 0.0
H659 H 0.23034 0.65976 0.44656 0.0
H660 H 0.29669 0.64971 0.43817 0.0
S661 S 0.24758 0.50339 0.4887 0.0
N662 N 0.2146 0.53578 0.48487 0.0
N663 N 0.28624 0.52504 0.47603 0.0
C664 C 0.27334 0.56054 0.46789 0.0
C665 C 0.23445 0.56644 0.47286 0.0
C666 C 0.73952 0.9103 0.48264 0.0
C667 C 0.71467 0.88183 0.47052 0.0
C668 C 0.77767 0.90319 0.48547 0.0
C669 C 0.79278 0.86749 0.47565 0.0
H670 H 0.72949 0.93858 0.48969 0.0
H671 H 0.79556 0.92623 0.49467 0.0
S672 S 0.73974 0.78257 0.44358 0.0
N673 N 0.70794 0.81587 0.44985 0.0
N674 N 0.77965 0.80275 0.45458 0.0
C675 C 0.76824 0.83849 0.46403 0.0
C676 C 0.72923 0.84556 0.4617 0.0
C677 C 0.44048 0.76188 0.87762 0.0
C678 C 0.45352 0.78253 0.90904 0.0
C679 C 0.45122 0.72373 0.87146 0.0
C680 C 0.4755 0.70537 0.89636 0.0
H681 H 0.42066 0.77468 0.8586 0.0
H682 H 0.43955 0.70819 0.84792 0.0
S683 S 0.52185 0.7483 0.97917 0.0
N684 N 0.49502 0.78266 0.96288 0.0
N685 N 0.51532 0.71145 0.95094 0.0
C686 C 0.49032 0.7263 0.92646 0.0
C687 C 0.47931 0.7648 0.9329 0.0
C688 C 0.4654 0.2548 0.65377 0.0
C689 C 0.49253 0.28337 0.65756 0.0
C690 C 0.47489 0.2159 0.6551 0.0
C691 C 0.51201 0.2043 0.65917 0.0
H692 H 0.43655 0.2626 0.65037 0.0
H693 H 0.45309 0.19478 0.6527 0.0
S694 S 0.59365 0.26769 0.66844 0.0
N695 N 0.55816 0.29726 0.66517 0.0
N696 N 0.57601 0.2242 0.66592 0.0
C697 C 0.53944 0.2325 0.66213 0.0
C698 C 0.52972 0.27206 0.66179 0.0
C699 C 0.83453 0.54652 0.79023 0.0
C700 C 0.8651 0.56844 0.80238 0.0
C701 C 0.8237 0.54624 0.75238 0.0
C702 C 0.84231 0.56873 0.72587 0.0
H703 H 0.82128 0.52646 0.80911 0.0
H704 H 0.80246 0.52634 0.74339 0.0
S705 S 0.91887 0.63665 0.74425 0.0
N706 N 0.91023 0.61714 0.78559 0.0
N707 N 0.88898 0.6173 0.71468 0.0
C708 C 0.87003 0.59386 0.73826 0.0
C709 C 0.88154 0.59369 0.77658 0.0
C710 C 0.19409 0.91503 0.74194 0.0
C711 C 0.19232 0.94247 0.7132 0.0
C712 C 0.19422 0.9261 0.77984 0.0
C713 C 0.19334 0.9649 0.78997 0.0
H714 H 0.19033 0.88505 0.73531 0.0
H715 H 0.19031 0.90435 0.80111 0.0
S716 S 0.19674 0.04734 0.72498 0.0
N717 N 0.19545 0.00959 0.69707 0.0
N718 N 0.19738 0.03051 0.76833 0.0
C719 C 0.19735 0.99232 0.76143 0.0
C720 C 0.19622 0.98106 0.72288 0.0
C721 C 0.7622 0.13923 0.99734 0.0
C722 C 0.78283 0.13657 0.96384 0.0
C723 C 0.72347 0.14345 0.99678 0.0
C724 C 0.70361 0.14513 0.96271 0.0
H725 H 0.77599 0.13784 0.02433 0.0
H726 H 0.70903 0.14522 0.02343 0.0
S727 S 0.74439 0.14055 0.86691 0.0
N728 N 0.78024 0.13671 0.89539 0.0
N729 N 0.70783 0.14449 0.89448 0.0
C730 C 0.7239 0.14276 0.92898 0.0
C731 C 0.76333 0.13854 0.92951 0.0
C732 C 0.02434 0.95662 0.27163 0.0
C733 C 0.04672 0.93808 0.24506 0.0
C734 C 0.03509 0.99148 0.28741 0.0
C735 C 0.06924 0.0086 0.27802 0.0
H736 H 0.99872 0.9436 0.28104 0.0
H737 H 0.01744 0.00375 0.30892 0.0
S738 S 0.13544 0.97355 0.20591 0.0
N739 N 0.10222 0.94107 0.2065 0.0
N740 N 0.1234 0.00616 0.23726 0.0
C741 C 0.09075 0.99145 0.24961 0.0
C742 C 0.07925 0.95627 0.23284 0.0
C743 C 0.94107 0.50848 0.30937 0.0
C744 C 0.9327 0.46929 0.3065 0.0
C745 C 0.9507 0.53002 0.27779 0.0
C746 C 0.95222 0.51346 0.24179 0.0
H747 H 0.9408 0.52278 0.33639 0.0
H748 H 0.95712 0.55997 0.28181 0.0
S749 S 0.93208 0.41205 0.21854 0.0
N750 N 0.92601 0.41482 0.26447 0.0
N751 N 0.94401 0.4554 0.20492 0.0
C752 C 0.94339 0.47439 0.23826 0.0
C753 C 0.93369 0.45231 0.27062 0.0
C754 C 0.23186 0.06553 0.99784 0.0
C755 C 0.23545 0.09086 0.96728 0.0
C756 C 0.24064 0.07708 0.03449 0.0
C757 C 0.25433 0.11387 0.04176 0.0
H758 H 0.21917 0.03775 0.99408 0.0
H759 H 0.2339 0.05819 0.0576 0.0
S760 S 0.27659 0.18797 0.97123 0.0
N761 N 0.25913 0.15236 0.94633 0.0
N762 N 0.27632 0.17352 0.01541 0.0
C763 C 0.26209 0.13783 0.01124 0.0
C764 C 0.25251 0.12643 0.97389 0.0
C765 C 0.72822 0.43048 0.99134 0.0
C766 C 0.72681 0.45267 0.0243 0.0
C767 C 0.75586 0.43637 0.96427 0.0
C768 C 0.78269 0.4652 0.96872 0.0
H769 H 0.70826 0.40784 0.98673 0.0
H770 H 0.75628 0.41802 0.93972 0.0
S771 S 0.78972 0.53277 0.04903 0.0
N772 N 0.75374 0.50558 0.0593 0.0
N773 N 0.80532 0.51709 0.00819 0.0
C774 C 0.78094 0.48836 0.00108 0.0
C775 C 0.75314 0.48194 0.02894 0.0
C776 C 0.29303 0.93382 0.49107 0.0
C777 C 0.29747 0.91691 0.45542 0.0
C778 C 0.26902 0.91811 0.51788 0.0
C779 C 0.24805 0.88521 0.50984 0.0
H780 H 0.308 0.95966 0.49826 0.0
H781 H 0.26579 0.93278 0.54452 0.0
S782 S 0.25066 0.82904 0.4213 0.0
N783 N 0.28002 0.86446 0.41412 0.0
N784 N 0.23441 0.83531 0.46426 0.0
C785 C 0.25291 0.86746 0.47468 0.0
C786 C 0.27775 0.88318 0.44755 0.0
C787 C 0.71848 0.5362 0.55857 0.0
C788 C 0.75214 0.55381 0.54891 0.0
C789 C 0.69366 0.52381 0.53082 0.0
C790 C 0.70201 0.52773 0.49235 0.0
H791 H 0.71135 0.53174 0.58782 0.0
H792 H 0.66817 0.51017 0.53969 0.0
S793 S 0.78691 0.57177 0.4523 0.0
N794 N 0.79256 0.57486 0.49824 0.0
N795 N 0.7463 0.55102 0.44611 0.0
C796 C 0.73552 0.54561 0.48233 0.0
C797 C 0.76048 0.5588 0.5106 0.0
C798 C 0.01959 0.24241 0.08608 0.0
C799 C 0.03318 0.26076 0.05379 0.0
C800 C 0.99013 0.21618 0.0836 0.0
C801 C 0.97219 0.20922 0.04914 0.0
H802 H 0.03264 0.24732 0.11307 0.0
H803 H 0.98298 0.19942 0.10812 0.0
S804 S 0.99586 0.25213 0.95718 0.0
N805 N 0.02613 0.27076 0.98673 0.0
N806 N 0.96885 0.22442 0.98277 0.0
C807 C 0.98375 0.2299 0.01747 0.0
C808 C 0.01487 0.25475 0.01954 0.0
C809 C 0.98985 0.70481 0.39931 0.0
C810 C 0.02858 0.71028 0.39666 0.0
C811 C 0.96494 0.73536 0.39631 0.0
C812 C 0.97755 0.77272 0.38969 0.0
H813 H 0.97846 0.67686 0.40521 0.0
H814 H 0.93574 0.72973 0.40063 0.0
S815 S 0.07525 0.80107 0.37146 0.0
N816 N 0.07773 0.75512 0.38154 0.0
N817 N 0.03087 0.81224 0.37376 0.0
C818 C 0.01586 0.77795 0.38317 0.0
C819 C 0.04135 0.74692 0.3872 0.0
C820 C 0.54091 0.7494 0.4656 0.0
C821 C 0.51606 0.7802 0.46667 0.0
C822 C 0.52806 0.71165 0.46357 0.0
C823 C 0.48979 0.70299 0.46222 0.0
H824 H 0.57046 0.75442 0.46367 0.0
H825 H 0.54857 0.68927 0.46066 0.0
S826 S 0.41342 0.77291 0.47384 0.0
N827 N 0.45142 0.79915 0.47379 0.0
N828 N 0.42743 0.72829 0.469 0.0
C829 C 0.46474 0.73325 0.46746 0.0
C830 C 0.47785 0.77177 0.46989 0.0
C831 C 0.54352 0.52006 0.77154 0.0
C832 C 0.5768 0.53027 0.7896 0.0
C833 C 0.5427 0.49166 0.7436 0.0
C834 C 0.57517 0.47249 0.73231 0.0
H835 H 0.51765 0.53347 0.77957 0.0
H836 H 0.51631 0.48464 0.73086 0.0
S837 S 0.66982 0.4893 0.76983 0.0
N838 N 0.64333 0.51943 0.79333 0.0
N839 N 0.64176 0.46636 0.74099 0.0
C840 C 0.60877 0.48297 0.74957 0.0
C841 C 0.60959 0.51174 0.77813 0.0
C842 C 0.398 0.94732 0.74287 0.0
C843 C 0.41175 0.95194 0.77947 0.0
C844 C 0.40839 0.97241 0.714 0.0
C845 C 0.43214 0.00366 0.72092 0.0
H846 H 0.3789 0.92431 0.73656 0.0
H847 H 0.39682 0.96781 0.68628 0.0
S848 S 0.47411 0.02917 0.81284 0.0
N849 N 0.44982 0.9902 0.8215 0.0
N850 N 0.46871 0.03781 0.76759 0.0
C851 C 0.44609 0.00847 0.75755 0.0
C852 C 0.43606 0.9825 0.78673 0.0
C853 C 0.5416 0.2563 0.92266 0.0
C854 C 0.50308 0.26165 0.92789 0.0
C855 C 0.55552 0.22947 0.89723 0.0
C856 C 0.53158 0.2063 0.87604 0.0
H857 H 0.56158 0.27149 0.93977 0.0
H858 H 0.58521 0.22505 0.89631 0.0
S859 S 0.42942 0.21817 0.86919 0.0
N860 N 0.44177 0.24766 0.90325 0.0
N861 N 0.4681 0.19831 0.85388 0.0
C862 C 0.4934 0.21544 0.87662 0.0
C863 C 0.47906 0.24246 0.90322 0.0
loop_
_geom_bond_atom_site_label_1
_geom_bond_atom_site_label_2
_geom_bond_distance
_geom_bond_site_symmetry_2
_ccdc_geom_bond_type
Mg0 O1 2.028 1_455 S
Mg0 O7 1.986 1_455 S
Mg0 O9 2.114 . S
Mg0 O10 2.251 . S
Mg0 O13 2.010 . S
O1 Mg0 2.028 1_655 S
O1 C4 1.250 . S
O2 Mg3 2.028 . S
O2 C4 1.248 . S
Mg3 O2 2.028 . S
Mg3 O8 2.032 . S
Mg3 O10 2.079 1_655 S
C4 O1 1.250 . S
C4 O2 1.248 . S
C5 O6 1.264 . S
C5 O13 1.249 . S
O6 C5 1.264 . S
O7 Mg0 1.986 1_655 S
O7 C11 1.246 . S
O8 Mg3 2.032 . S
O8 C11 1.259 . S
O9 Mg0 2.114 . S
O9 C12 1.252 . S
O10 Mg0 2.251 . S
O10 Mg3 2.079 1_455 S
O10 C12 1.273 . S
C11 O7 1.246 . S
C11 O8 1.259 . S
C12 O9 1.252 . S
C12 O10 1.273 . S
O13 Mg0 2.010 . S
O13 C5 1.249 . S
Mg14 O15 2.028 1_655 S
Mg14 O21 1.986 1_655 S
Mg14 O23 2.114 . S
Mg14 O24 2.251 . S
Mg14 O27 2.010 . S
O15 Mg14 2.028 1_455 S
O15 C18 1.250 . S
O16 Mg17 2.028 . S
O16 C18 1.248 . S
Mg17 O16 2.028 . S
Mg17 O22 2.032 . S
Mg17 O24 2.079 1_455 S
C18 O15 1.250 . S
C18 O16 1.248 . S
C19 O20 1.264 . S
C19 O27 1.249 . S
O20 C19 1.264 . S
O21 Mg14 1.986 1_455 S
O21 C25 1.246 . S
O22 Mg17 2.032 . S
O22 C25 1.259 . S
O23 Mg14 2.114 . S
O23 C26 1.252 . S
O24 Mg14 2.251 . S
O24 Mg17 2.079 1_655 S
O24 C26 1.273 . S
C25 O21 1.246 . S
C25 O22 1.259 . S
C26 O23 1.252 . S
C26 O24 1.273 . S
O27 Mg14 2.010 . S
O27 C19 1.249 . S
Mg28 O29 2.028 1_455 S
Mg28 O35 1.986 1_455 S
Mg28 O37 2.114 . S
Mg28 O38 2.251 . S
Mg28 O41 2.010 . S
O29 Mg28 2.028 1_655 S
O29 C32 1.250 . S
O30 Mg31 2.028 . S
O30 C32 1.248 . S
Mg31 O30 2.028 . S
Mg31 O36 2.032 . S
Mg31 O38 2.079 1_655 S
C32 O29 1.250 . S
C32 O30 1.248 . S
C33 O34 1.264 . S
C33 O41 1.249 . S
O34 C33 1.264 . S
O35 Mg28 1.986 1_655 S
O35 C39 1.246 . S
O36 Mg31 2.032 . S
O36 C39 1.259 . S
O37 Mg28 2.114 . S
O37 C40 1.252 . S
O38 Mg28 2.251 . S
O38 Mg31 2.079 1_455 S
O38 C40 1.273 . S
C39 O35 1.246 . S
C39 O36 1.259 . S
C40 O37 1.252 . S
C40 O38 1.273 . S
O41 Mg28 2.010 . S
O41 C33 1.249 . S
Mg42 O43 2.028 1_655 S
Mg42 O49 1.986 1_655 S
Mg42 O51 2.114 . S
Mg42 O52 2.251 . S
Mg42 O55 2.010 . S
O43 Mg42 2.028 1_455 S
O43 C46 1.250 . S
O44 Mg45 2.028 . S
O44 C46 1.248 . S
Mg45 O44 2.028 . S
Mg45 O50 2.032 . S
Mg45 O52 2.079 1_455 S
C46 O43 1.250 . S
C46 O44 1.248 . S
C47 O48 1.264 . S
C47 O55 1.249 . S
O48 C47 1.264 . S
O49 Mg42 1.986 1_455 S
O49 C53 1.246 . S
O50 Mg45 2.032 . S
O50 C53 1.259 . S
O51 Mg42 2.114 . S
O51 C54 1.252 . S
O52 Mg42 2.251 . S
O52 Mg45 2.079 1_655 S
O52 C54 1.273 . S
C53 O49 1.246 . S
C53 O50 1.259 . S
C54 O51 1.252 . S
C54 O52 1.273 . S
O55 Mg42 2.010 . S
O55 C47 1.249 . S
Mg56 O57 2.028 1_545 S
Mg56 O63 1.986 1_545 S
Mg56 O65 2.114 . S
Mg56 O66 2.251 . S
Mg56 O69 2.010 . S
O57 Mg56 2.028 1_565 S
O57 C60 1.250 . S
O58 Mg59 2.028 . S
O58 C60 1.248 . S
Mg59 O58 2.028 . S
Mg59 O64 2.032 . S
Mg59 O66 2.079 1_565 S
C60 O57 1.250 . S
C60 O58 1.248 . S
C61 O62 1.264 . S
C61 O69 1.249 . S
O62 C61 1.264 . S
O63 Mg56 1.986 1_565 S
O63 C67 1.246 . S
O64 Mg59 2.032 . S
O64 C67 1.259 . S
O65 Mg56 2.114 . S
O65 C68 1.252 . S
O66 Mg56 2.251 . S
O66 Mg59 2.079 1_545 S
O66 C68 1.273 . S
C67 O63 1.246 . S
C67 O64 1.259 . S
C68 O65 1.252 . S
C68 O66 1.273 . S
O69 Mg56 2.010 . S
O69 C61 1.249 . S
Mg70 O71 2.028 . S
Mg70 O77 1.986 . S
Mg70 O79 2.114 . S
Mg70 O80 2.251 . S
Mg70 O83 2.010 . S
O71 Mg70 2.028 . S
O71 C74 1.250 . S
O72 Mg73 2.028 . S
O72 C74 1.248 . S
Mg73 O72 2.028 . S
Mg73 O78 2.032 . S
Mg73 O80 2.079 . S
C74 O71 1.250 . S
C74 O72 1.248 . S
C75 O76 1.264 . S
C75 O83 1.249 . S
O76 C75 1.264 . S
O77 Mg70 1.986 . S
O77 C81 1.246 . S
O78 Mg73 2.032 . S
O78 C81 1.259 . S
O79 Mg70 2.114 . S
O79 C82 1.252 . S
O80 Mg70 2.251 . S
O80 Mg73 2.079 . S
O80 C82 1.273 . S
C81 O77 1.246 . S
C81 O78 1.259 . S
C82 O79 1.252 . S
C82 O80 1.273 . S
O83 Mg70 2.010 . S
O83 C75 1.249 . S
Mg84 O85 2.028 1_565 S
Mg84 O91 1.986 1_565 S
Mg84 O93 2.114 . S
Mg84 O94 2.251 . S
Mg84 O97 2.010 . S
O85 Mg84 2.028 1_545 S
O85 C88 1.250 . S
O86 Mg87 2.028 . S
O86 C88 1.248 . S
Mg87 O86 2.028 . S
Mg87 O92 2.032 . S
Mg87 O94 2.079 1_545 S
C88 O85 1.250 . S
C88 O86 1.248 . S
C89 O90 1.264 . S
C89 O97 1.249 . S
O90 C89 1.264 . S
O91 Mg84 1.986 1_545 S
O91 C95 1.246 . S
O92 Mg87 2.032 . S
O92 C95 1.259 . S
O93 Mg84 2.114 . S
O93 C96 1.252 . S
O94 Mg84 2.251 . S
O94 Mg87 2.079 1_565 S
O94 C96 1.273 . S
C95 O91 1.246 . S
C95 O92 1.259 . S
C96 O93 1.252 . S
C96 O94 1.273 . S
O97 Mg84 2.010 . S
O97 C89 1.249 . S
Mg98 O99 2.028 . S
Mg98 O105 1.986 . S
Mg98 O107 2.114 . S
Mg98 O108 2.251 . S
Mg98 O111 2.010 . S
O99 Mg98 2.028 . S
O99 C102 1.250 . S
O100 Mg101 2.028 . S
O100 C102 1.248 . S
Mg101 O100 2.028 . S
Mg101 O106 2.032 . S
Mg101 O108 2.079 . S
C102 O99 1.250 . S
C102 O100 1.248 . S
C103 O104 1.264 . S
C103 O111 1.249 . S
O104 C103 1.264 . S
O105 Mg98 1.986 . S
O105 C109 1.246 . S
O106 Mg101 2.032 . S
O106 C109 1.259 . S
O107 Mg98 2.114 . S
O107 C110 1.252 . S
O108 Mg98 2.251 . S
O108 Mg101 2.079 . S
O108 C110 1.273 . S
C109 O105 1.246 . S
C109 O106 1.259 . S
C110 O107 1.252 . S
C110 O108 1.273 . S
O111 Mg98 2.010 . S
O111 C103 1.249 . S
Mg112 O113 2.028 1_556 S
Mg112 O119 1.986 1_556 S
Mg112 O121 2.114 . S
Mg112 O122 2.251 . S
Mg112 O125 2.010 . S
O113 Mg112 2.028 1_554 S
O113 C116 1.250 . S
O114 Mg115 2.028 1_455 S
O114 C116 1.248 . S
Mg115 O114 2.028 1_655 S
Mg115 O120 2.032 1_655 S
Mg115 O122 2.079 1_654 S
C116 O113 1.250 . S
C116 O114 1.248 . S
C117 O118 1.264 . S
C117 O125 1.249 . S
O118 C117 1.264 . S
O119 Mg112 1.986 1_554 S
O119 C123 1.246 . S
O120 Mg115 2.032 1_455 S
O120 C123 1.259 . S
O121 Mg112 2.114 . S
O121 C124 1.252 . S
O122 Mg112 2.251 . S
O122 Mg115 2.079 1_456 S
O122 C124 1.273 . S
C123 O119 1.246 . S
C123 O120 1.259 . S
C124 O121 1.252 . S
C124 O122 1.273 . S
O125 Mg112 2.010 . S
O125 C117 1.249 . S
Mg126 O127 2.028 . S
Mg126 O133 1.986 . S
Mg126 O135 2.114 . S
Mg126 O136 2.251 . S
Mg126 O139 2.010 . S
O127 Mg126 2.028 . S
O127 C130 1.250 . S
O128 Mg129 2.028 1_455 S
O128 C130 1.248 . S
Mg129 O128 2.028 1_655 S
Mg129 O134 2.032 1_655 S
Mg129 O136 2.079 1_655 S
C130 O127 1.250 . S
C130 O128 1.248 . S
C131 O132 1.264 . S
C131 O139 1.249 . S
O132 C131 1.264 . S
O133 Mg126 1.986 . S
O133 C137 1.246 . S
O134 Mg129 2.032 1_455 S
O134 C137 1.259 . S
O135 Mg126 2.114 . S
O135 C138 1.252 . S
O136 Mg126 2.251 . S
O136 Mg129 2.079 1_455 S
O136 C138 1.273 . S
C137 O133 1.246 . S
C137 O134 1.259 . S
C138 O135 1.252 . S
C138 O136 1.273 . S
O139 Mg126 2.010 . S
O139 C131 1.249 . S
Mg140 O141 2.028 . S
Mg140 O147 1.986 . S
Mg140 O149 2.114 . S
Mg140 O150 2.251 . S
Mg140 O153 2.010 . S
O141 Mg140 2.028 . S
O141 C144 1.250 . S
O142 Mg143 2.024 1_655 S
O142 C144 1.248 . S
Mg143 O142 2.024 1_455 S
Mg143 O148 2.030 1_455 S
Mg143 O150 2.075 1_455 S
C144 O141 1.250 . S
C144 O142 1.248 . S
C145 O146 1.264 . S
C145 O153 1.249 . S
O146 C145 1.264 . S
O147 Mg140 1.986 . S
O147 C151 1.246 . S
O148 Mg143 2.030 1_655 S
O148 C151 1.259 . S
O149 Mg140 2.114 . S
O149 C152 1.252 . S
O150 Mg140 2.251 . S
O150 Mg143 2.075 1_655 S
O150 C152 1.273 . S
C151 O147 1.246 . S
C151 O148 1.259 . S
C152 O149 1.252 . S
C152 O150 1.273 . S
O153 Mg140 2.010 . S
O153 C145 1.249 . S
Mg154 O155 2.028 . S
Mg154 O161 1.986 . S
Mg154 O163 2.114 . S
Mg154 O164 2.251 . S
Mg154 O167 2.010 . S
O155 Mg154 2.028 . S
O155 C158 1.250 . S
O156 Mg157 2.028 . S
O156 C158 1.248 . S
Mg157 O156 2.028 . S
Mg157 O162 2.032 . S
Mg157 O164 2.079 . S
C158 O155 1.250 . S
C158 O156 1.248 . S
C159 O160 1.264 . S
C159 O167 1.249 . S
O160 C159 1.264 . S
O161 Mg154 1.986 . S
O161 C165 1.246 . S
O162 Mg157 2.032 . S
O162 C165 1.259 . S
O163 Mg154 2.114 . S
O163 C166 1.252 . S
O164 Mg154 2.251 . S
O164 Mg157 2.079 . S
O164 C166 1.273 . S
C165 O161 1.246 . S
C165 O162 1.259 . S
C166 O163 1.252 . S
C166 O164 1.273 . S
O167 Mg154 2.010 . S
O167 C159 1.249 . S
Mg168 O169 2.028 . S
Mg168 O175 1.986 . S
Mg168 O177 2.114 . S
Mg168 O178 2.251 . S
Mg168 O181 2.010 . S
O169 Mg168 2.028 . S
O169 C172 1.250 . S
O170 Mg171 2.028 . S
O170 C172 1.248 . S
Mg171 O170 2.028 . S
Mg171 O176 2.032 . S
Mg171 O178 2.079 . S
C172 O169 1.250 . S
C172 O170 1.248 . S
C173 O174 1.264 . S
C173 O181 1.249 . S
O174 C173 1.264 . S
O175 Mg168 1.986 . S
O175 C179 1.246 . S
O176 Mg171 2.032 . S
O176 C179 1.259 . S
O177 Mg168 2.114 . S
O177 C180 1.252 . S
O178 Mg168 2.251 . S
O178 Mg171 2.079 . S
O178 C180 1.273 . S
C179 O175 1.246 . S
C179 O176 1.259 . S
C180 O177 1.252 . S
C180 O178 1.273 . S
O181 Mg168 2.010 . S
O181 C173 1.249 . S
Mg182 O183 2.028 . S
Mg182 O189 1.986 . S
Mg182 O191 2.114 . S
Mg182 O192 2.251 . S
Mg182 O195 2.010 . S
O183 Mg182 2.028 . S
O183 C186 1.250 . S
O184 Mg185 2.028 . S
O184 C186 1.248 . S
Mg185 O184 2.028 . S
Mg185 O190 2.032 . S
Mg185 O192 2.079 . S
C186 O183 1.250 . S
C186 O184 1.248 . S
C187 O188 1.264 . S
C187 O195 1.249 . S
O188 C187 1.264 . S
O189 Mg182 1.986 . S
O189 C193 1.246 . S
O190 Mg185 2.032 . S
O190 C193 1.259 . S
O191 Mg182 2.114 . S
O191 C194 1.252 . S
O192 Mg182 2.251 . S
O192 Mg185 2.079 . S
O192 C194 1.273 . S
C193 O189 1.246 . S
C193 O190 1.259 . S
C194 O191 1.252 . S
C194 O192 1.273 . S
O195 Mg182 2.010 . S
O195 C187 1.249 . S
Mg196 O197 2.028 . S
Mg196 O203 1.986 . S
Mg196 O205 2.114 . S
Mg196 O206 2.251 . S
Mg196 O209 2.010 . S
O197 Mg196 2.028 . S
O197 C200 1.250 . S
O198 Mg199 2.028 . S
O198 C200 1.248 . S
Mg199 O198 2.028 . S
Mg199 O204 2.032 . S
Mg199 O206 2.079 . S
C200 O197 1.250 . S
C200 O198 1.248 . S
C201 O202 1.264 . S
C201 O209 1.249 . S
O202 C201 1.264 . S
O203 Mg196 1.986 . S
O203 C207 1.246 . S
O204 Mg199 2.032 . S
O204 C207 1.259 . S
O205 Mg196 2.114 . S
O205 C208 1.252 . S
O206 Mg196 2.251 . S
O206 Mg199 2.079 . S
O206 C208 1.273 . S
C207 O203 1.246 . S
C207 O204 1.259 . S
C208 O205 1.252 . S
C208 O206 1.273 . S
O209 Mg196 2.010 . S
O209 C201 1.249 . S
Mg210 O211 2.028 . S
Mg210 O217 1.986 . S
Mg210 O219 2.114 . S
Mg210 O220 2.251 . S
Mg210 O223 2.010 . S
O211 Mg210 2.028 . S
O211 C214 1.250 . S
O212 Mg213 2.028 . S
O212 C214 1.248 . S
Mg213 O212 2.028 . S
Mg213 O218 2.032 . S
Mg213 O220 2.079 . S
C214 O211 1.250 . S
C214 O212 1.248 . S
C215 O216 1.264 . S
C215 O223 1.249 . S
O216 C215 1.264 . S
O217 Mg210 1.986 . S
O217 C221 1.246 . S
O218 Mg213 2.032 . S
O218 C221 1.259 . S
O219 Mg210 2.114 . S
O219 C222 1.252 . S
O220 Mg210 2.251 . S
O220 Mg213 2.079 . S
O220 C222 1.273 . S
C221 O217 1.246 . S
C221 O218 1.259 . S
C222 O219 1.252 . S
C222 O220 1.273 . S
O223 Mg210 2.010 . S
O223 C215 1.249 . S
Mg224 O225 2.028 . S
Mg224 O231 1.986 . S
Mg224 O233 2.114 . S
Mg224 O234 2.251 . S
Mg224 O237 2.010 . S
O225 Mg224 2.028 . S
O225 C228 1.250 . S
O226 Mg227 2.028 . S
O226 C228 1.248 . S
Mg227 O226 2.028 . S
Mg227 O232 2.032 . S
Mg227 O234 2.079 . S
C228 O225 1.250 . S
C228 O226 1.248 . S
C229 O230 1.264 . S
C229 O237 1.249 . S
O230 C229 1.264 . S
O231 Mg224 1.986 . S
O231 C235 1.246 . S
O232 Mg227 2.032 . S
O232 C235 1.259 . S
O233 Mg224 2.114 . S
O233 C236 1.252 . S
O234 Mg224 2.251 . S
O234 Mg227 2.079 . S
O234 C236 1.273 . S
C235 O231 1.246 . S
C235 O232 1.259 . S
C236 O233 1.252 . S
C236 O234 1.273 . S
O237 Mg224 2.010 . S
O237 C229 1.249 . S
Mg238 O239 2.028 1_565 S
Mg238 O245 1.986 1_565 S
Mg238 O247 2.114 . S
Mg238 O248 2.251 . S
Mg238 O251 2.010 . S
O239 Mg238 2.028 1_545 S
O239 C242 1.250 . S
O240 Mg241 2.028 . S
O240 C242 1.248 . S
Mg241 O240 2.028 . S
Mg241 O246 2.032 . S
Mg241 O248 2.079 1_545 S
C242 O239 1.250 . S
C242 O240 1.248 . S
C243 O244 1.264 . S
C243 O251 1.249 . S
O244 C243 1.264 . S
O245 Mg238 1.986 1_545 S
O245 C249 1.246 . S
O246 Mg241 2.032 . S
O246 C249 1.259 . S
O247 Mg238 2.114 . S
O247 C250 1.252 . S
O248 Mg238 2.251 . S
O248 Mg241 2.079 1_565 S
O248 C250 1.273 . S
C249 O245 1.246 . S
C249 O246 1.259 . S
C250 O247 1.252 . S
C250 O248 1.273 . S
O251 Mg238 2.010 . S
O251 C243 1.249 . S
Mg252 O253 2.028 . S
Mg252 O259 1.986 . S
Mg252 O261 2.114 . S
Mg252 O262 2.251 . S
Mg252 O265 2.010 . S
O253 Mg252 2.028 . S
O253 C256 1.250 . S
O254 Mg255 2.028 . S
O254 C256 1.248 . S
Mg255 O254 2.028 . S
Mg255 O260 2.032 . S
Mg255 O262 2.079 . S
C256 O253 1.250 . S
C256 O254 1.248 . S
C257 O258 1.264 . S
C257 O265 1.249 . S
O258 C257 1.264 . S
O259 Mg252 1.986 . S
O259 C263 1.246 . S
O260 Mg255 2.032 . S
O260 C263 1.259 . S
O261 Mg252 2.114 . S
O261 C264 1.252 . S
O262 Mg252 2.251 . S
O262 Mg255 2.079 . S
O262 C264 1.273 . S
C263 O259 1.246 . S
C263 O260 1.259 . S
C264 O261 1.252 . S
C264 O262 1.273 . S
O265 Mg252 2.010 . S
O265 C257 1.249 . S
Mg266 O267 2.028 1_545 S
Mg266 O273 1.986 1_545 S
Mg266 O275 2.114 . S
Mg266 O276 2.251 . S
Mg266 O279 2.010 . S
O267 Mg266 2.028 1_565 S
O267 C270 1.250 . S
O268 Mg269 2.028 . S
O268 C270 1.248 . S
Mg269 O268 2.028 . S
Mg269 O274 2.032 . S
Mg269 O276 2.079 1_565 S
C270 O267 1.250 . S
C270 O268 1.248 . S
C271 O272 1.264 . S
C271 O279 1.249 . S
O272 C271 1.264 . S
O273 Mg266 1.986 1_565 S
O273 C277 1.246 . S
O274 Mg269 2.032 . S
O274 C277 1.259 . S
O275 Mg266 2.114 . S
O275 C278 1.252 . S
O276 Mg266 2.251 . S
O276 Mg269 2.079 1_545 S
O276 C278 1.273 . S
C277 O273 1.246 . S
C277 O274 1.259 . S
C278 O275 1.252 . S
C278 O276 1.273 . S
O279 Mg266 2.010 . S
O279 C271 1.249 . S
Mg280 O281 2.028 . S
Mg280 O287 1.986 . S
Mg280 O289 2.114 . S
Mg280 O290 2.251 . S
Mg280 O293 2.010 . S
O281 Mg280 2.028 . S
O281 C284 1.250 . S
O282 Mg283 2.028 . S
O282 C284 1.248 . S
Mg283 O282 2.028 . S
Mg283 O288 2.032 . S
Mg283 O290 2.079 . S
C284 O281 1.250 . S
C284 O282 1.248 . S
C285 O286 1.264 . S
C285 O293 1.249 . S
O286 C285 1.264 . S
O287 Mg280 1.986 . S
O287 C291 1.246 . S
O288 Mg283 2.032 . S
O288 C291 1.259 . S
O289 Mg280 2.114 . S
O289 C292 1.252 . S
O290 Mg280 2.251 . S
O290 Mg283 2.079 . S
O290 C292 1.273 . S
C291 O287 1.246 . S
C291 O288 1.259 . S
C292 O289 1.252 . S
C292 O290 1.273 . S
O293 Mg280 2.010 . S
O293 C285 1.249 . S
Mg294 O295 2.028 1_554 S
Mg294 O301 1.986 1_554 S
Mg294 O303 2.114 . S
Mg294 O304 2.251 . S
Mg294 O307 2.010 . S
O295 Mg294 2.028 1_556 S
O295 C298 1.250 . S
O296 Mg297 2.028 . S
O296 C298 1.248 . S
Mg297 O296 2.028 . S
Mg297 O302 2.032 . S
Mg297 O304 2.079 1_556 S
C298 O295 1.250 . S
C298 O296 1.248 . S
C299 O300 1.264 . S
C299 O307 1.249 . S
O300 C299 1.264 . S
O301 Mg294 1.986 1_556 S
O301 C305 1.246 . S
O302 Mg297 2.032 . S
O302 C305 1.259 . S
O303 Mg294 2.114 . S
O303 C306 1.252 . S
O304 Mg294 2.251 . S
O304 Mg297 2.079 1_554 S
O304 C306 1.273 . S
C305 O301 1.246 . S
C305 O302 1.259 . S
C306 O303 1.252 . S
C306 O304 1.273 . S
O307 Mg294 2.010 . S
O307 C299 1.249 . S
Mg308 O309 2.028 1_554 S
Mg308 O315 1.986 1_554 S
Mg308 O317 2.114 . S
Mg308 O318 2.251 . S
Mg308 O321 2.010 . S
O309 Mg308 2.028 1_556 S
O309 C312 1.250 . S
O310 Mg311 2.028 . S
O310 C312 1.248 . S
Mg311 O310 2.028 . S
Mg311 O316 2.032 . S
Mg311 O318 2.079 1_556 S
C312 O309 1.250 . S
C312 O310 1.248 . S
C313 O314 1.264 . S
C313 O321 1.249 . S
O314 C313 1.264 . S
O315 Mg308 1.986 1_556 S
O315 C319 1.246 . S
O316 Mg311 2.032 . S
O316 C319 1.259 . S
O317 Mg308 2.114 . S
O317 C320 1.252 . S
O318 Mg308 2.251 . S
O318 Mg311 2.079 1_554 S
O318 C320 1.273 . S
C319 O315 1.246 . S
C319 O316 1.259 . S
C320 O317 1.252 . S
C320 O318 1.273 . S
O321 Mg308 2.010 . S
O321 C313 1.249 . S
Mg322 O323 2.028 1_556 S
Mg322 O329 1.986 1_556 S
Mg322 O331 2.114 . S
Mg322 O332 2.251 . S
Mg322 O335 2.010 . S
O323 Mg322 2.028 1_554 S
O323 C326 1.250 . S
O324 Mg325 2.023 1_655 S
O324 C326 1.248 . S
Mg325 O324 2.023 1_455 S
Mg325 O330 2.029 1_455 S
Mg325 O332 2.074 1_454 S
C326 O323 1.250 . S
C326 O324 1.248 . S
C327 O328 1.264 . S
C327 O335 1.249 . S
O328 C327 1.264 . S
O329 Mg322 1.986 1_554 S
O329 C333 1.246 . S
O330 Mg325 2.029 1_655 S
O330 C333 1.259 . S
O331 Mg322 2.114 . S
O331 C334 1.252 . S
O332 Mg322 2.251 . S
O332 Mg325 2.074 1_656 S
O332 C334 1.273 . S
C333 O329 1.246 . S
C333 O330 1.259 . S
C334 O331 1.252 . S
C334 O332 1.273 . S
O335 Mg322 2.010 . S
O335 C327 1.249 . S
C336 C337 1.369 . S
C336 C338 1.419 . S
C336 H340 0.930 . S
C337 C336 1.369 . S
C337 C346 1.429 . S
C338 C336 1.419 . S
C338 C339 1.363 . S
C338 H341 0.929 . S
C339 C338 1.363 . S
C339 C345 1.428 . S
H340 C336 0.930 . S
H341 C338 0.929 . S
S342 N343 1.613 . S
S342 N344 1.610 . S
N343 S342 1.613 . S
N343 C346 1.350 . S
N344 S342 1.610 . S
N344 C345 1.351 . S
C345 C339 1.428 . S
C345 N344 1.351 . S
C345 C346 1.434 . S
C346 C337 1.429 . S
C346 N343 1.350 . S
C346 C345 1.434 . S
C347 C348 1.369 . S
C347 C349 1.419 . S
C347 H351 0.930 . S
C348 C347 1.369 . S
C348 C357 1.429 . S
C349 C347 1.419 . S
C349 C350 1.363 . S
C349 H352 0.929 . S
C350 C349 1.363 . S
C350 C356 1.428 . S
H351 C347 0.930 . S
H352 C349 0.929 . S
S353 N354 1.613 . S
S353 N355 1.610 . S
N354 S353 1.613 . S
N354 C357 1.350 . S
N355 S353 1.610 . S
N355 C356 1.351 . S
C356 C350 1.428 . S
C356 N355 1.351 . S
C356 C357 1.434 . S
C357 C348 1.429 . S
C357 N354 1.350 . S
C357 C356 1.434 . S
C358 C359 1.369 . S
C358 C360 1.419 1_554 S
C358 H362 0.930 . S
C359 C358 1.369 . S
C359 C368 1.429 . S
C360 C358 1.419 1_556 S
C360 C361 1.363 . S
C360 H363 0.929 . S
C361 C360 1.363 . S
C361 C367 1.428 . S
H362 C358 0.930 . S
H363 C360 0.929 . S
S364 N365 1.613 . S
S364 N366 1.610 1_554 S
N365 S364 1.613 . S
N365 C368 1.350 1_545 S
N366 S364 1.610 1_556 S
N366 C367 1.351 1_545 S
C367 C361 1.428 . S
C367 N366 1.351 1_565 S
C367 C368 1.434 1_556 S
C368 C359 1.429 . S
C368 N365 1.350 1_565 S
C368 C367 1.434 1_554 S
C369 C370 1.369 . S
C369 C371 1.419 1_554 S
C369 H373 0.930 . S
C370 C369 1.369 . S
C370 C379 1.429 . S
C371 C369 1.419 1_556 S
C371 C372 1.363 . S
C371 H374 0.929 . S
C372 C371 1.363 . S
C372 C378 1.428 . S
H373 C369 0.930 . S
H374 C371 0.929 . S
S375 N376 1.613 . S
S375 N377 1.610 1_554 S
N376 S375 1.613 . S
N376 C379 1.350 . S
N377 S375 1.610 1_556 S
N377 C378 1.351 . S
C378 C372 1.428 . S
C378 N377 1.351 . S
C378 C379 1.434 1_556 S
C379 C370 1.429 . S
C379 N376 1.350 . S
C379 C378 1.434 1_554 S
C380 C381 1.369 . S
C380 C382 1.419 . S
C380 H384 0.930 . S
C381 C380 1.369 . S
C381 C390 1.429 . S
C382 C380 1.419 . S
C382 C383 1.363 . S
C382 H385 0.929 . S
C383 C382 1.363 . S
C383 C389 1.428 . S
H384 C380 0.930 . S
H385 C382 0.929 . S
S386 N387 1.613 1_565 S
S386 N388 1.610 1_565 S
N387 S386 1.613 1_545 S
N387 C390 1.350 . S
N388 S386 1.610 1_545 S
N388 C389 1.351 . S
C389 C383 1.428 . S
C389 N388 1.351 . S
C389 C390 1.434 . S
C390 C381 1.429 . S
C390 N387 1.350 . S
C390 C389 1.434 . S
C391 C392 1.369 . S
C391 C393 1.419 . S
C391 H395 0.930 . S
C392 C391 1.369 . S
C392 C401 1.429 . S
C393 C391 1.419 . S
C393 C394 1.363 . S
C393 H396 0.929 . S
C394 C393 1.363 . S
C394 C400 1.428 . S
H395 C391 0.930 . S
H396 C393 0.929 . S
S397 N398 1.613 . S
S397 N399 1.610 . S
N398 S397 1.613 . S
N398 C401 1.350 . S
N399 S397 1.610 . S
N399 C400 1.351 . S
C400 C394 1.428 . S
C400 N399 1.351 . S
C400 C401 1.434 . S
C401 C392 1.429 . S
C401 N398 1.350 . S
C401 C400 1.434 . S
C402 C403 1.369 . S
C402 C404 1.419 . S
C402 H406 0.930 . S
C403 C402 1.369 . S
C403 C412 1.429 . S
C404 C402 1.419 . S
C404 C405 1.363 . S
C404 H407 0.929 . S
C405 C404 1.363 . S
C405 C411 1.428 . S
H406 C402 0.930 . S
H407 C404 0.929 . S
S408 N409 1.613 . S
S408 N410 1.610 . S
N409 S408 1.613 . S
N409 C412 1.350 . S
N410 S408 1.610 . S
N410 C411 1.351 . S
C411 C405 1.428 . S
C411 N410 1.351 . S
C411 C412 1.434 . S
C412 C403 1.429 . S
C412 N409 1.350 . S
C412 C411 1.434 . S
C413 C414 1.369 . S
C413 C415 1.419 . S
C413 H417 0.930 . S
C414 C413 1.369 . S
C414 C423 1.429 . S
C415 C413 1.419 . S
C415 C416 1.363 . S
C415 H418 0.929 . S
C416 C415 1.363 . S
C416 C422 1.428 . S
H417 C413 0.930 . S
H418 C415 0.929 . S
S419 N420 1.613 . S
S419 N421 1.610 . S
N420 S419 1.613 . S
N420 C423 1.350 . S
N421 S419 1.610 . S
N421 C422 1.351 . S
C422 C416 1.428 . S
C422 N421 1.351 . S
C422 C423 1.434 . S
C423 C414 1.429 . S
C423 N420 1.350 . S
C423 C422 1.434 . S
C424 C425 1.369 . S
C424 C426 1.419 . S
C424 H428 0.930 . S
C425 C424 1.369 . S
C425 C434 1.429 . S
C426 C424 1.419 . S
C426 C427 1.363 . S
C426 H429 0.929 . S
C427 C426 1.363 . S
C427 C433 1.428 . S
H428 C424 0.930 . S
H429 C426 0.929 . S
S430 N431 1.613 . S
S430 N432 1.610 . S
N431 S430 1.613 . S
N431 C434 1.350 . S
N432 S430 1.610 . S
N432 C433 1.351 . S
C433 C427 1.428 . S
C433 N432 1.351 . S
C433 C434 1.434 . S
C434 C425 1.429 . S
C434 N431 1.350 . S
C434 C433 1.434 . S
C435 C436 1.369 . S
C435 C437 1.419 . S
C435 H439 0.930 . S
C436 C435 1.369 . S
C436 C445 1.429 . S
C437 C435 1.419 . S
C437 C438 1.363 . S
C437 H440 0.929 . S
C438 C437 1.363 . S
C438 C444 1.428 . S
H439 C435 0.930 . S
H440 C437 0.929 . S
S441 N442 1.613 . S
S441 N443 1.610 . S
N442 S441 1.613 . S
N442 C445 1.350 . S
N443 S441 1.610 . S
N443 C444 1.351 . S
C444 C438 1.428 . S
C444 N443 1.351 . S
C444 C445 1.434 . S
C445 C436 1.429 . S
C445 N442 1.350 . S
C445 C444 1.434 . S
C446 C447 1.369 . S
C446 C448 1.411 1_565 S
C446 H450 0.930 . S
C447 C446 1.369 . S
C447 C456 1.429 . S
C448 C446 1.411 1_545 S
C448 C449 1.367 . S
C448 H451 0.932 . S
C449 C448 1.367 . S
C449 C455 1.428 . S
H450 C446 0.930 . S
H451 C448 0.932 . S
S452 N453 1.613 . S
S452 N454 1.610 1_565 S
N453 S452 1.613 . S
N453 C456 1.350 . S
N454 S452 1.610 1_545 S
N454 C455 1.351 . S
C455 C449 1.428 . S
C455 N454 1.351 . S
C455 C456 1.434 1_545 S
C456 C447 1.429 . S
C456 N453 1.350 . S
C456 C455 1.434 1_565 S
C457 C458 1.369 . S
C457 C459 1.419 . S
C457 H461 0.930 . S
C458 C457 1.369 . S
C458 C467 1.429 . S
C459 C457 1.419 . S
C459 C460 1.363 . S
C459 H462 0.929 . S
C460 C459 1.363 . S
C460 C466 1.428 . S
H461 C457 0.930 . S
H462 C459 0.929 . S
S463 N464 1.613 . S
S463 N465 1.610 . S
N464 S463 1.613 . S
N464 C467 1.350 . S
N465 S463 1.610 . S
N465 C466 1.351 . S
C466 C460 1.428 . S
C466 N465 1.351 . S
C466 C467 1.434 . S
C467 C458 1.429 . S
C467 N464 1.350 . S
C467 C466 1.434 . S
C468 C469 1.369 . S
C468 C470 1.419 1_554 S
C468 H472 0.930 . S
C469 C468 1.369 . S
C469 C478 1.429 . S
C470 C468 1.419 1_556 S
C470 C471 1.363 . S
C470 H473 0.929 . S
C471 C470 1.363 . S
C471 C477 1.428 . S
H472 C468 0.930 . S
H473 C470 0.929 . S
S474 N475 1.613 . S
S474 N476 1.610 1_554 S
N475 S474 1.613 . S
N475 C478 1.350 . S
N476 S474 1.610 1_556 S
N476 C477 1.351 . S
C477 C471 1.428 . S
C477 N476 1.351 . S
C477 C478 1.434 1_556 S
C478 C469 1.429 . S
C478 N475 1.350 . S
C478 C477 1.434 1_554 S
C479 C480 1.369 . S
C479 C481 1.419 1_554 S
C479 H483 0.930 . S
C480 C479 1.369 . S
C480 C489 1.429 . S
C481 C479 1.419 1_556 S
C481 C482 1.363 . S
C481 H484 0.929 . S
C482 C481 1.363 . S
C482 C488 1.428 . S
H483 C479 0.930 . S
H484 C481 0.929 . S
S485 N486 1.613 1_556 S
S485 N487 1.610 . S
N486 S485 1.613 1_554 S
N486 C489 1.350 . S
N487 S485 1.610 . S
N487 C488 1.351 . S
C488 C482 1.428 . S
C488 N487 1.351 . S
C488 C489 1.434 1_556 S
C489 C480 1.429 . S
C489 N486 1.350 . S
C489 C488 1.434 1_554 S
C490 C491 1.369 . S
C490 C492 1.419 . S
C490 H494 0.930 . S
C491 C490 1.369 . S
C491 C500 1.429 . S
C492 C490 1.419 . S
C492 C493 1.363 . S
C492 H495 0.929 . S
C493 C492 1.363 . S
C493 C499 1.428 . S
H494 C490 0.930 . S
H495 C492 0.929 . S
S496 N497 1.613 . S
S496 N498 1.610 . S
N497 S496 1.613 . S
N497 C500 1.350 . S
N498 S496 1.610 . S
N498 C499 1.351 . S
C499 C493 1.428 . S
C499 N498 1.351 . S
C499 C500 1.434 . S
C500 C491 1.429 . S
C500 N497 1.350 . S
C500 C499 1.434 . S
C501 C502 1.369 . S
C501 C503 1.419 . S
C501 H505 0.930 . S
C502 C501 1.369 . S
C502 C511 1.429 . S
C503 C501 1.419 . S
C503 C504 1.363 . S
C503 H506 0.929 . S
C504 C503 1.363 . S
C504 C510 1.428 . S
H505 C501 0.930 . S
H506 C503 0.929 . S
S507 N508 1.613 . S
S507 N509 1.610 . S
N508 S507 1.613 . S
N508 C511 1.350 . S
N509 S507 1.610 . S
N509 C510 1.351 . S
C510 C504 1.428 . S
C510 N509 1.351 . S
C510 C511 1.434 . S
C511 C502 1.429 . S
C511 N508 1.350 . S
C511 C510 1.434 . S
C512 C513 1.369 . S
C512 C514 1.419 1_455 S
C512 H516 0.930 . S
C513 C512 1.369 . S
C513 C522 1.429 1_455 S
C514 C512 1.419 1_655 S
C514 C515 1.363 . S
C514 H517 0.929 . S
C515 C514 1.363 . S
C515 C521 1.428 . S
H516 C512 0.930 . S
H517 C514 0.929 . S
S518 N519 1.613 1_655 S
S518 N520 1.610 . S
N519 S518 1.613 1_455 S
N519 C522 1.350 1_455 S
N520 S518 1.610 . S
N520 C521 1.351 . S
C521 C515 1.428 . S
C521 N520 1.351 . S
C521 C522 1.434 . S
C522 C513 1.429 1_655 S
C522 N519 1.350 1_655 S
C522 C521 1.434 . S
C523 C524 1.369 . S
C523 C525 1.419 1_655 S
C523 H527 0.930 . S
C524 C523 1.369 . S
C524 C533 1.429 . S
C525 C523 1.419 1_455 S
C525 C526 1.363 . S
C525 H528 0.929 . S
C526 C525 1.363 . S
C526 C532 1.428 . S
H527 C523 0.930 . S
H528 C525 0.929 . S
S529 N530 1.613 1_455 S
S529 N531 1.610 . S
N530 S529 1.613 1_655 S
N530 C533 1.350 . S
N531 S529 1.610 . S
N531 C532 1.351 . S
C532 C526 1.428 . S
C532 N531 1.351 . S
C532 C533 1.434 1_455 S
C533 C524 1.429 . S
C533 N530 1.350 . S
C533 C532 1.434 1_655 S
C534 C535 1.369 . S
C534 C536 1.419 1_455 S
C534 H538 0.930 . S
C535 C534 1.369 . S
C535 C544 1.429 1_455 S
C536 C534 1.419 1_655 S
C536 C537 1.363 . S
C536 H539 0.929 . S
C537 C536 1.363 . S
C537 C543 1.428 . S
H538 C534 0.930 . S
H539 C536 0.929 . S
S540 N541 1.613 1_655 S
S540 N542 1.610 . S
N541 S540 1.613 1_455 S
N541 C544 1.350 1_455 S
N542 S540 1.610 . S
N542 C543 1.351 . S
C543 C537 1.428 . S
C543 N542 1.351 . S
C543 C544 1.434 . S
C544 C535 1.429 1_655 S
C544 N541 1.350 1_655 S
C544 C543 1.434 . S
C545 C546 1.369 . S
C545 C547 1.419 1_455 S
C545 H549 0.930 . S
C546 C545 1.369 . S
C546 C555 1.429 . S
C547 C545 1.419 1_655 S
C547 C548 1.363 . S
C547 H550 0.929 . S
C548 C547 1.363 . S
C548 C554 1.428 . S
H549 C545 0.930 . S
H550 C547 0.929 . S
S551 N552 1.613 1_565 S
S551 N553 1.610 1_465 S
N552 S551 1.613 1_545 S
N552 C555 1.350 . S
N553 S551 1.610 1_645 S
N553 C554 1.351 . S
C554 C548 1.428 . S
C554 N553 1.351 . S
C554 C555 1.434 1_655 S
C555 C546 1.429 . S
C555 N552 1.350 . S
C555 C554 1.434 1_455 S
C556 C557 1.379 . S
C556 C558 1.403 1_545 S
C556 H560 0.936 . S
C557 C556 1.379 . S
C557 C566 1.429 . S
C558 C556 1.403 1_565 S
C558 C559 1.363 . S
C558 H561 0.929 . S
C559 C558 1.363 . S
C559 C565 1.428 . S
H560 C556 0.936 . S
H561 C558 0.929 . S
S562 N563 1.613 1_565 S
S562 N564 1.610 . S
N563 S562 1.613 1_545 S
N563 C566 1.350 . S
N564 S562 1.610 . S
N564 C565 1.351 . S
C565 C559 1.428 . S
C565 N564 1.351 . S
C565 C566 1.434 1_565 S
C566 C557 1.429 . S
C566 N563 1.350 . S
C566 C565 1.434 1_545 S
C567 C568 1.369 . S
C567 C569 1.419 1_545 S
C567 H571 0.930 . S
C568 C567 1.369 . S
C568 C577 1.429 . S
C569 C567 1.419 1_565 S
C569 C570 1.363 . S
C569 H572 0.929 . S
C570 C569 1.363 . S
C570 C576 1.428 . S
H571 C567 0.930 . S
H572 C569 0.929 . S
S573 N574 1.613 . S
S573 N575 1.610 1_545 S
N574 S573 1.613 . S
N574 C577 1.350 . S
N575 S573 1.610 1_565 S
N575 C576 1.351 . S
C576 C570 1.428 . S
C576 N575 1.351 . S
C576 C577 1.434 1_565 S
C577 C568 1.429 . S
C577 N574 1.350 . S
C577 C576 1.434 1_545 S
C578 C579 1.369 . S
C578 C580 1.419 . S
C578 H582 0.930 . S
C579 C578 1.369 . S
C579 C588 1.429 . S
C580 C578 1.419 . S
C580 C581 1.363 . S
C580 H583 0.929 . S
C581 C580 1.363 . S
C581 C587 1.428 . S
H582 C578 0.930 . S
H583 C580 0.929 . S
S584 N585 1.613 . S
S584 N586 1.610 . S
N585 S584 1.613 . S
N585 C588 1.350 . S
N586 S584 1.610 . S
N586 C587 1.351 . S
C587 C581 1.428 . S
C587 N586 1.351 . S
C587 C588 1.434 . S
C588 C579 1.429 . S
C588 N585 1.350 . S
C588 C587 1.434 . S
C589 C590 1.369 . S
C589 C591 1.419 1_545 S
C589 H593 0.930 . S
C590 C589 1.369 . S
C590 C599 1.429 . S
C591 C589 1.419 1_565 S
C591 C592 1.363 . S
C591 H594 0.929 . S
C592 C591 1.363 . S
C592 C598 1.439 . S
H593 C589 0.930 . S
H594 C591 0.929 . S
S595 N596 1.613 . S
S595 N597 1.610 1_545 S
N596 S595 1.613 . S
N596 C599 1.350 . S
N597 S595 1.610 1_565 S
N597 C598 1.355 . S
C598 C592 1.439 . S
C598 N597 1.355 . S
C598 C599 1.418 1_565 S
C599 C590 1.429 . S
C599 N596 1.350 . S
C599 C598 1.418 1_545 S
C600 C601 1.369 . S
C600 C602 1.419 . S
C600 H604 0.930 . S
C601 C600 1.369 . S
C601 C610 1.429 1_655 S
C602 C600 1.419 . S
C602 C603 1.363 1_655 S
C602 H605 0.929 . S
C603 C602 1.363 1_455 S
C603 C609 1.428 . S
H604 C600 0.930 . S
H605 C602 0.929 . S
S606 N607 1.613 . S
S606 N608 1.610 . S
N607 S606 1.613 . S
N607 C610 1.350 . S
N608 S606 1.610 . S
N608 C609 1.351 . S
C609 C603 1.428 . S
C609 N608 1.351 . S
C609 C610 1.434 . S
C610 C601 1.429 1_455 S
C610 N607 1.350 . S
C610 C609 1.434 . S
C611 C612 1.369 . S
C611 C613 1.419 1_455 S
C611 H615 0.930 . S
C612 C611 1.369 . S
C612 C621 1.429 . S
C613 C611 1.419 1_655 S
C613 C614 1.363 . S
C613 H616 0.929 . S
C614 C613 1.363 . S
C614 C620 1.428 . S
H615 C611 0.930 . S
H616 C613 0.929 . S
S617 N618 1.613 . S
S617 N619 1.610 1_455 S
N618 S617 1.613 . S
N618 C621 1.350 . S
N619 S617 1.610 1_655 S
N619 C620 1.351 . S
C620 C614 1.428 . S
C620 N619 1.351 . S
C620 C621 1.434 1_655 S
C621 C612 1.429 . S
C621 N618 1.350 . S
C621 C620 1.434 1_455 S
C622 C623 1.369 . S
C622 C624 1.419 . S
C622 H626 0.930 . S
C623 C622 1.369 . S
C623 C632 1.429 1_565 S
C624 C622 1.419 . S
C624 C625 1.363 1_565 S
C624 H627 0.929 . S
C625 C624 1.363 1_545 S
C625 C631 1.428 . S
H626 C622 0.930 . S
H627 C624 0.929 . S
S628 N629 1.613 . S
S628 N630 1.610 . S
N629 S628 1.613 . S
N629 C632 1.350 . S
N630 S628 1.610 . S
N630 C631 1.351 . S
C631 C625 1.428 . S
C631 N630 1.351 . S
C631 C632 1.434 . S
C632 C623 1.429 1_545 S
C632 N629 1.350 . S
C632 C631 1.434 . S
C633 C634 1.369 . S
C633 C635 1.419 . S
C633 H637 0.930 . S
C634 C633 1.369 . S
C634 C643 1.429 . S
C635 C633 1.419 . S
C635 C636 1.363 . S
C635 H638 0.929 . S
C636 C635 1.363 . S
C636 C642 1.428 . S
H637 C633 0.930 . S
H638 C635 0.929 . S
S639 N640 1.613 . S
S639 N641 1.610 . S
N640 S639 1.613 . S
N640 C643 1.350 . S
N641 S639 1.610 . S
N641 C642 1.351 . S
C642 C636 1.428 . S
C642 N641 1.351 . S
C642 C643 1.434 . S
C643 C634 1.429 . S
C643 N640 1.350 . S
C643 C642 1.434 . S
C644 C645 1.369 1_556 S
C644 C646 1.419 . S
C644 H648 0.930 . S
C645 C644 1.369 1_554 S
C645 C654 1.429 . S
C646 C644 1.419 . S
C646 C647 1.363 . S
C646 H649 0.929 . S
C647 C646 1.363 . S
C647 C653 1.428 1_556 S
H648 C644 0.930 . S
H649 C646 0.929 . S
S650 N651 1.613 . S
S650 N652 1.610 . S
N651 S650 1.613 . S
N651 C654 1.350 . S
N652 S650 1.610 . S
N652 C653 1.351 . S
C653 C647 1.428 1_554 S
C653 N652 1.351 . S
C653 C654 1.434 . S
C654 C645 1.429 . S
C654 N651 1.350 . S
C654 C653 1.434 . S
C655 C656 1.369 . S
C655 C657 1.419 . S
C655 H659 0.930 . S
C656 C655 1.369 . S
C656 C665 1.429 . S
C657 C655 1.419 . S
C657 C658 1.363 . S
C657 H660 0.929 . S
C658 C657 1.363 . S
C658 C664 1.428 . S
H659 C655 0.930 . S
H660 C657 0.929 . S
S661 N662 1.613 . S
S661 N663 1.610 . S
N662 S661 1.613 . S
N662 C665 1.350 . S
N663 S661 1.610 . S
N663 C664 1.351 . S
C664 C658 1.428 . S
C664 N663 1.351 . S
C664 C665 1.434 . S
C665 C656 1.429 . S
C665 N662 1.350 . S
C665 C664 1.434 . S
C666 C667 1.369 . S
C666 C668 1.419 . S
C666 H670 0.930 . S
C667 C666 1.369 . S
C667 C676 1.429 . S
C668 C666 1.419 . S
C668 C669 1.363 . S
C668 H671 0.929 . S
C669 C668 1.363 . S
C669 C675 1.428 . S
H670 C666 0.930 . S
H671 C668 0.929 . S
S672 N673 1.613 . S
S672 N674 1.610 . S
N673 S672 1.613 . S
N673 C676 1.350 . S
N674 S672 1.610 . S
N674 C675 1.351 . S
C675 C669 1.428 . S
C675 N674 1.351 . S
C675 C676 1.434 . S
C676 C667 1.429 . S
C676 N673 1.350 . S
C676 C675 1.434 . S
C677 C678 1.369 . S
C677 C679 1.419 . S
C677 H681 0.930 . S
C678 C677 1.369 . S
C678 C687 1.429 . S
C679 C677 1.419 . S
C679 C680 1.363 . S
C679 H682 0.929 . S
C680 C679 1.363 . S
C680 C686 1.428 . S
H681 C677 0.930 . S
H682 C679 0.929 . S
S683 N684 1.613 . S
S683 N685 1.610 . S
N684 S683 1.613 . S
N684 C687 1.350 . S
N685 S683 1.610 . S
N685 C686 1.351 . S
C686 C680 1.428 . S
C686 N685 1.351 . S
C686 C687 1.434 . S
C687 C678 1.429 . S
C687 N684 1.350 . S
C687 C686 1.434 . S
C688 C689 1.369 . S
C688 C690 1.419 . S
C688 H692 0.930 . S
C689 C688 1.369 . S
C689 C698 1.429 . S
C690 C688 1.419 . S
C690 C691 1.363 . S
C690 H693 0.929 . S
C691 C690 1.363 . S
C691 C697 1.428 . S
H692 C688 0.930 . S
H693 C690 0.929 . S
S694 N695 1.613 . S
S694 N696 1.610 . S
N695 S694 1.613 . S
N695 C698 1.350 . S
N696 S694 1.610 . S
N696 C697 1.351 . S
C697 C691 1.428 . S
C697 N696 1.351 . S
C697 C698 1.434 . S
C698 C689 1.429 . S
C698 N695 1.350 . S
C698 C697 1.434 . S
C699 C700 1.369 . S
C699 C701 1.419 . S
C699 H703 0.930 . S
C700 C699 1.369 . S
C700 C709 1.429 . S
C701 C699 1.419 . S
C701 C702 1.363 . S
C701 H704 0.929 . S
C702 C701 1.363 . S
C702 C708 1.428 . S
H703 C699 0.930 . S
H704 C701 0.929 . S
S705 N706 1.613 . S
S705 N707 1.610 . S
N706 S705 1.613 . S
N706 C709 1.350 . S
N707 S705 1.610 . S
N707 C708 1.351 . S
C708 C702 1.428 . S
C708 N707 1.351 . S
C708 C709 1.434 . S
C709 C700 1.429 . S
C709 N706 1.350 . S
C709 C708 1.434 . S
C710 C711 1.369 1_565 S
C710 C712 1.419 . S
C710 H714 0.930 . S
C711 C710 1.369 1_545 S
C711 C720 1.429 . S
C712 C710 1.419 . S
C712 C713 1.363 . S
C712 H715 0.929 . S
C713 C712 1.363 . S
C713 C719 1.428 1_565 S
H714 C710 0.930 . S
H715 C712 0.929 . S
S716 N717 1.613 . S
S716 N718 1.610 . S
N717 S716 1.613 . S
N717 C720 1.350 . S
N718 S716 1.610 . S
N718 C719 1.351 . S
C719 C713 1.428 1_545 S
C719 N718 1.351 . S
C719 C720 1.434 . S
C720 C711 1.429 . S
C720 N717 1.350 . S
C720 C719 1.434 . S
C721 C722 1.369 1_554 S
C721 C723 1.419 . S
C721 H725 0.930 . S
C722 C721 1.369 1_556 S
C722 C731 1.429 . S
C723 C721 1.419 . S
C723 C724 1.363 . S
C723 H726 0.929 . S
C724 C723 1.363 . S
C724 C730 1.428 1_554 S
H725 C721 0.930 . S
H726 C723 0.929 . S
S727 N728 1.613 . S
S727 N729 1.610 . S
N728 S727 1.613 . S
N728 C731 1.350 . S
N729 S727 1.610 . S
N729 C730 1.351 . S
C730 C724 1.428 1_556 S
C730 N729 1.351 . S
C730 C731 1.434 . S
C731 C722 1.429 . S
C731 N728 1.350 . S
C731 C730 1.434 . S
C732 C733 1.369 1_655 S
C732 C734 1.419 . S
C732 H736 0.930 . S
C733 C732 1.369 1_455 S
C733 C742 1.428 1_565 S
C734 C732 1.419 . S
C734 C735 1.363 1_665 S
C734 H737 0.929 . S
C735 C734 1.363 1_445 S
C735 C741 1.428 . S
H736 C732 0.930 . S
H737 C734 0.929 . S
S738 N739 1.613 . S
S738 N740 1.610 . S
N739 S738 1.613 . S
N739 C742 1.350 . S
N740 S738 1.610 . S
N740 C741 1.351 . S
C741 C735 1.428 . S
C741 N740 1.351 . S
C741 C742 1.435 . S
C742 C733 1.428 1_545 S
C742 N739 1.350 . S
C742 C741 1.435 . S
C743 C744 1.369 . S
C743 C745 1.419 . S
C743 H747 0.930 . S
C744 C743 1.369 . S
C744 C753 1.429 . S
C745 C743 1.419 . S
C745 C746 1.363 . S
C745 H748 0.929 . S
C746 C745 1.363 . S
C746 C752 1.428 . S
H747 C743 0.930 . S
H748 C745 0.929 . S
S749 N750 1.613 . S
S749 N751 1.610 . S
N750 S749 1.613 . S
N750 C753 1.350 . S
N751 S749 1.610 . S
N751 C752 1.351 . S
C752 C746 1.428 . S
C752 N751 1.351 . S
C752 C753 1.434 . S
C753 C744 1.429 . S
C753 N750 1.350 . S
C753 C752 1.434 . S
C754 C755 1.369 1_565 S
C754 C756 1.419 1_556 S
C754 H758 0.930 . S
C755 C754 1.369 1_545 S
C755 C764 1.429 . S
C756 C754 1.419 1_554 S
C756 C757 1.363 1_565 S
C756 H759 0.929 . S
C757 C756 1.363 1_545 S
C757 C763 1.428 . S
H758 C754 0.930 . S
H759 C756 0.929 . S
S760 N761 1.613 . S
S760 N762 1.610 1_556 S
N761 S760 1.613 . S
N761 C764 1.350 . S
N762 S760 1.610 1_554 S
N762 C763 1.351 . S
C763 C757 1.428 . S
C763 N762 1.351 . S
C763 C764 1.434 1_554 S
C764 C755 1.429 . S
C764 N761 1.350 . S
C764 C763 1.434 1_556 S
C765 C766 1.369 1_556 S
C765 C767 1.419 . S
C765 H769 0.930 . S
C766 C765 1.369 1_554 S
C766 C775 1.429 . S
C767 C765 1.419 . S
C767 C768 1.363 . S
C767 H770 0.929 . S
C768 C767 1.363 . S
C768 C774 1.428 1_556 S
H769 C765 0.930 . S
H770 C767 0.929 . S
S771 N772 1.613 . S
S771 N773 1.610 . S
N772 S771 1.613 . S
N772 C775 1.350 . S
N773 S771 1.610 . S
N773 C774 1.351 . S
C774 C768 1.428 1_554 S
C774 N773 1.351 . S
C774 C775 1.434 . S
C775 C766 1.429 . S
C775 N772 1.350 . S
C775 C774 1.434 . S
C776 C777 1.369 . S
C776 C778 1.419 . S
C776 H780 0.930 . S
C777 C776 1.369 . S
C777 C786 1.429 . S
C778 C776 1.419 . S
C778 C779 1.363 . S
C778 H781 0.929 . S
C779 C778 1.363 . S
C779 C785 1.428 . S
H780 C776 0.930 . S
H781 C778 0.929 . S
S782 N783 1.613 . S
S782 N784 1.610 . S
N783 S782 1.613 . S
N783 C786 1.350 . S
N784 S782 1.610 . S
N784 C785 1.351 . S
C785 C779 1.428 . S
C785 N784 1.351 . S
C785 C786 1.434 . S
C786 C777 1.429 . S
C786 N783 1.350 . S
C786 C785 1.434 . S
C787 C788 1.369 . S
C787 C789 1.419 . S
C787 H791 0.930 . S
C788 C787 1.369 . S
C788 C797 1.429 . S
C789 C787 1.419 . S
C789 C790 1.363 . S
C789 H792 0.929 . S
C790 C789 1.363 . S
C790 C796 1.428 . S
H791 C787 0.930 . S
H792 C789 0.929 . S
S793 N794 1.613 . S
S793 N795 1.610 . S
N794 S793 1.613 . S
N794 C797 1.350 . S
N795 S793 1.610 . S
N795 C796 1.351 . S
C796 C790 1.428 . S
C796 N795 1.351 . S
C796 C797 1.434 . S
C797 C788 1.429 . S
C797 N794 1.350 . S
C797 C796 1.434 . S
C798 C799 1.369 . S
C798 C800 1.419 1_455 S
C798 H802 0.930 . S
C799 C798 1.369 . S
C799 C808 1.443 1_554 S
C800 C798 1.419 1_655 S
C800 C801 1.363 . S
C800 H803 0.929 . S
C801 C800 1.363 . S
C801 C807 1.428 1_554 S
H802 C798 0.930 . S
H803 C800 0.929 . S
S804 N805 1.625 . S
S804 N806 1.610 . S
N805 S804 1.625 . S
N805 C808 1.349 1_655 S
N806 S804 1.610 . S
N806 C807 1.351 . S
C807 C801 1.428 1_556 S
C807 N806 1.351 . S
C807 C808 1.418 1_655 S
C808 C799 1.443 1_556 S
C808 N805 1.349 1_455 S
C808 C807 1.418 1_455 S
C809 C810 1.369 1_655 S
C809 C811 1.419 . S
C809 H813 0.930 . S
C810 C809 1.369 1_455 S
C810 C819 1.429 . S
C811 C809 1.419 . S
C811 C812 1.363 . S
C811 H814 0.929 . S
C812 C811 1.363 . S
C812 C818 1.428 1_655 S
H813 C809 0.930 . S
H814 C811 0.929 . S
S815 N816 1.613 . S
S815 N817 1.610 . S
N816 S815 1.613 . S
N816 C819 1.350 . S
N817 S815 1.610 . S
N817 C818 1.351 . S
C818 C812 1.428 1_455 S
C818 N817 1.351 . S
C818 C819 1.434 . S
C819 C810 1.429 . S
C819 N816 1.350 . S
C819 C818 1.434 . S
C820 C821 1.369 . S
C820 C822 1.419 . S
C820 H824 0.930 . S
C821 C820 1.369 . S
C821 C830 1.429 . S
C822 C820 1.419 . S
C822 C823 1.363 . S
C822 H825 0.929 . S
C823 C822 1.363 . S
C823 C829 1.428 . S
H824 C820 0.930 . S
H825 C822 0.929 . S
S826 N827 1.613 . S
S826 N828 1.610 . S
N827 S826 1.613 . S
N827 C830 1.350 . S
N828 S826 1.610 . S
N828 C829 1.351 . S
C829 C823 1.428 . S
C829 N828 1.351 . S
C829 C830 1.434 . S
C830 C821 1.429 . S
C830 N827 1.350 . S
C830 C829 1.434 . S
C831 C832 1.369 . S
C831 C833 1.419 . S
C831 H835 0.930 . S
C832 C831 1.369 . S
C832 C841 1.429 . S
C833 C831 1.419 . S
C833 C834 1.363 . S
C833 H836 0.929 . S
C834 C833 1.363 . S
C834 C840 1.428 . S
H835 C831 0.930 . S
H836 C833 0.929 . S
S837 N838 1.613 . S
S837 N839 1.610 . S
N838 S837 1.613 . S
N838 C841 1.350 . S
N839 S837 1.610 . S
N839 C840 1.351 . S
C840 C834 1.428 . S
C840 N839 1.351 . S
C840 C841 1.434 . S
C841 C832 1.429 . S
C841 N838 1.350 . S
C841 C840 1.434 . S
C842 C843 1.369 . S
C842 C844 1.419 . S
C842 H846 0.930 . S
C843 C842 1.369 . S
C843 C852 1.429 1_565 S
C844 C842 1.419 . S
C844 C845 1.363 1_565 S
C844 H847 0.929 . S
C845 C844 1.363 1_545 S
C845 C851 1.428 . S
H846 C842 0.930 . S
H847 C844 0.929 . S
S848 N849 1.613 . S
S848 N850 1.610 . S
N849 S848 1.613 . S
N849 C852 1.350 . S
N850 S848 1.610 . S
N850 C851 1.351 . S
C851 C845 1.428 . S
C851 N850 1.351 . S
C851 C852 1.434 . S
C852 C843 1.429 1_545 S
C852 N849 1.350 . S
C852 C851 1.434 . S
C853 C854 1.369 . S
C853 C855 1.419 . S
C853 H857 0.930 . S
C854 C853 1.369 . S
C854 C863 1.429 . S
C855 C853 1.419 . S
C855 C856 1.363 . S
C855 H858 0.929 . S
C856 C855 1.363 . S
C856 C862 1.428 . S
H857 C853 0.930 . S
H858 C855 0.929 . S
S859 N860 1.613 . S
S859 N861 1.610 . S
N860 S859 1.613 . S
N860 C863 1.350 . S
N861 S859 1.610 . S
N861 C862 1.351 . S
C862 C856 1.428 . S
C862 N861 1.351 . S
C862 C863 1.434 . S
C863 C854 1.429 . S
C863 N860 1.350 . S
C863 C862 1.434 . S
C337 C242 0.970 . S
C339 C12 0.976 . S
C348 C26 1.130 . S
C350 C228 1.055 . S
C359 C40 1.030 . S
C361 C270 1.002 . S
C370 C54 1.173 . S
C372 C256 1.083 . S
C381 C68 0.937 . S
C383 C306 0.934 . S
C392 C82 1.003 . S
C394 C320 0.959 . S
C403 C292 0.954 . S
C405 C96 1.003 . S
C414 C166 0.993 . S
C416 C110 1.063 . S
C425 C116 1.024 . S
C427 C46 1.061 . S
C436 C18 1.061 . S
C438 C130 1.038 . S
C447 C144 1.160 . S
C449 C4 1.187 . S
C458 C158 1.119 . S
C460 C200 1.092 . S
C469 C74 1.086 . S
C471 C180 1.212 . S
C480 C60 1.038 . S
C482 C194 1.076 . S
C491 C208 1.175 . S
C493 C102 1.058 . S
C502 C222 1.018 . S
C504 C88 0.997 . S
C513 C138 1.055 . S
C515 C236 1.121 . S
C524 C152 0.994 . S
C526 C250 1.054 . S
C535 C124 1.024 . S
C537 C264 1.061 . S
C546 C278 0.995 . S
C548 C334 0.986 . S
C557 C214 1.206 . S
C559 C284 1.230 . S
C568 C298 1.205 . S
C570 C186 1.186 . S
C579 C172 1.083 . S
C581 C312 1.079 . S
C590 C326 1.136 . S
C592 C32 1.168 . S
C601 C11 1.611 . S
C603 C25 1.592 . S
C612 C53 1.575 . S
C614 C39 1.599 . S
C623 C67 1.533 . S
C625 C95 1.528 . S
C634 C81 1.819 . S
C636 C109 1.813 . S
C645 C313 1.493 . S
C647 C117 1.478 . S
C656 C131 1.626 . S
C658 C159 1.642 . S
C667 C285 1.587 . S
C669 C145 1.564 . S
C678 C193 1.732 . S
C680 C179 1.700 . S
C689 C207 1.715 . S
C691 C221 1.748 . S
C700 C263 1.815 . S
C702 C235 1.794 . S
C711 C249 1.509 . S
C713 C277 1.515 . S
C722 C327 1.432 . S
C724 C299 1.453 . S
C733 C33 1.279 . S
C735 C5 1.269 . S
C744 C19 1.362 . S
C746 C47 1.378 . S
C755 C271 1.320 . S
C757 C61 1.311 . S
C766 C75 1.346 . S
C768 C257 1.363 . S
C777 C89 1.358 . S
C779 C243 1.375 . S
C788 C229 1.407 . S
C790 C103 1.390 . S
C799 C123 1.415 . S
C801 C333 1.415 . S
C810 C137 1.439 . S
C812 C151 1.419 . S
C821 C291 1.475 . S
C823 C165 1.486 . S
C832 C173 1.384 . S
C834 C201 1.372 . S
C843 C187 1.301 . S
C845 C215 1.283 . S
C854 C319 1.478 . S
C856 C305 1.459 . S
