# Generated by pormake.
# Topology une, (4)-cn, num edge types: 1
# Building blocks:
#     Node 0, Type 0, BuildingBlock: KUFVIS_clean_sbu_0, # of connection points: 4
#     Node 1, Type 0, BuildingBlock: KUFVIS_clean_sbu_0, # of connection points: 4
#     Node 2, Type 0, BuildingBlock: KUFVIS_clean_sbu_0, # of connection points: 4
#     Node 3, Type 0, BuildingBlock: KUFVIS_clean_sbu_0, # of connection points: 4
#     Node 4, Type 0, BuildingBlock: KUFVIS_clean_sbu_0, # of connection points: 4
#     Node 5, Type 0, BuildingBlock: KUFVIS_clean_sbu_0, # of connection points: 4
#     Node 6, Type 0, BuildingBlock: KUFVIS_clean_sbu_0, # of connection points: 4
#     Node 7, Type 0, BuildingBlock: KUFVIS_clean_sbu_0, # of connection points: 4
#     Node 8, Type 0, BuildingBlock: KUFVIS_clean_sbu_0, # of connection points: 4
#     Node 9, Type 0, BuildingBlock: KUFVIS_clean_sbu_0, # of connection points: 4
#     Node 10, Type 0, BuildingBlock: KUFVIS_clean_sbu_0, # of connection points: 4
#     Node 11, Type 0, BuildingBlock: KUFVIS_clean_sbu_0, # of connection points: 4
#     Node 12, Type 0, BuildingBlock: KUFVIS_clean_sbu_0, # of connection points: 4
#     Node 13, Type 0, BuildingBlock: KUFVIS_clean_sbu_0, # of connection points: 4
#     Node 14, Type 0, BuildingBlock: KUFVIS_clean_sbu_0, # of connection points: 4
#     Node 15, Type 0, BuildingBlock: KUFVIS_clean_sbu_0, # of connection points: 4
#     Node 16, Type 0, BuildingBlock: KUFVIS_clean_sbu_0, # of connection points: 4
#     Node 17, Type 0, BuildingBlock: KUFVIS_clean_sbu_0, # of connection points: 4
#     Edge 18, Type (0, 0), BuildingBlock: MIFKUJ_clean_linker_0, # of connection points: 2
#     Edge 19, Type (0, 0), BuildingBlock: MIFKUJ_clean_linker_0, # of connection points: 2
#     Edge 20, Type (0, 0), BuildingBlock: MIFKUJ_clean_linker_0, # of connection points: 2
#     Edge 21, Type (0, 0), BuildingBlock: MIFKUJ_clean_linker_0, # of connection points: 2
#     Edge 22, Type (0, 0), BuildingBlock: MIFKUJ_clean_linker_0, # of connection points: 2
#     Edge 23, Type (0, 0), BuildingBlock: MIFKUJ_clean_linker_0, # of connection points: 2
#     Edge 24, Type (0, 0), BuildingBlock: MIFKUJ_clean_linker_0, # of connection points: 2
#     Edge 25, Type (0, 0), BuildingBlock: MIFKUJ_clean_linker_0, # of connection points: 2
#     Edge 26, Type (0, 0), BuildingBlock: MIFKUJ_clean_linker_0, # of connection points: 2
#     Edge 27, Type (0, 0), BuildingBlock: MIFKUJ_clean_linker_0, # of connection points: 2
#     Edge 28, Type (0, 0), BuildingBlock: MIFKUJ_clean_linker_0, # of connection points: 2
#     Edge 29, Type (0, 0), BuildingBlock: MIFKUJ_clean_linker_0, # of connection points: 2
#     Edge 30, Type (0, 0), BuildingBlock: MIFKUJ_clean_linker_0, # of connection points: 2
#     Edge 31, Type (0, 0), BuildingBlock: MIFKUJ_clean_linker_0, # of connection points: 2
#     Edge 32, Type (0, 0), BuildingBlock: MIFKUJ_clean_linker_0, # of connection points: 2
#     Edge 33, Type (0, 0), BuildingBlock: MIFKUJ_clean_linker_0, # of connection points: 2
#     Edge 34, Type (0, 0), BuildingBlock: MIFKUJ_clean_linker_0, # of connection points: 2
#     Edge 35, Type (0, 0), BuildingBlock: MIFKUJ_clean_linker_0, # of connection points: 2
#     Edge 36, Type (0, 0), BuildingBlock: MIFKUJ_clean_linker_0, # of connection points: 2
#     Edge 37, Type (0, 0), BuildingBlock: MIFKUJ_clean_linker_0, # of connection points: 2
#     Edge 38, Type (0, 0), BuildingBlock: MIFKUJ_clean_linker_0, # of connection points: 2
#     Edge 39, Type (0, 0), BuildingBlock: MIFKUJ_clean_linker_0, # of connection points: 2
#     Edge 40, Type (0, 0), BuildingBlock: MIFKUJ_clean_linker_0, # of connection points: 2
#     Edge 41, Type (0, 0), BuildingBlock: MIFKUJ_clean_linker_0, # of connection points: 2
#     Edge 42, Type (0, 0), BuildingBlock: MIFKUJ_clean_linker_0, # of connection points: 2
#     Edge 43, Type (0, 0), BuildingBlock: MIFKUJ_clean_linker_0, # of connection points: 2
#     Edge 44, Type (0, 0), BuildingBlock: MIFKUJ_clean_linker_0, # of connection points: 2
#     Edge 45, Type (0, 0), BuildingBlock: MIFKUJ_clean_linker_0, # of connection points: 2
#     Edge 46, Type (0, 0), BuildingBlock: MIFKUJ_clean_linker_0, # of connection points: 2
#     Edge 47, Type (0, 0), BuildingBlock: MIFKUJ_clean_linker_0, # of connection points: 2
#     Edge 48, Type (0, 0), BuildingBlock: MIFKUJ_clean_linker_0, # of connection points: 2
#     Edge 49, Type (0, 0), BuildingBlock: MIFKUJ_clean_linker_0, # of connection points: 2
#     Edge 50, Type (0, 0), BuildingBlock: MIFKUJ_clean_linker_0, # of connection points: 2
#     Edge 51, Type (0, 0), BuildingBlock: MIFKUJ_clean_linker_0, # of connection points: 2
#     Edge 52, Type (0, 0), BuildingBlock: MIFKUJ_clean_linker_0, # of connection points: 2
#     Edge 53, Type (0, 0), BuildingBlock: MIFKUJ_clean_linker_0, # of connection points: 2
# Relax obj value: 0.249
# Max RMSD: 0.168
# Mean RMSD: 0.160
data_MOF--net-une--node1-KUFVIS_clean_sbu_0--edge1-MIFKUJ_clean_linker_0
_symmetry_space_group_name_H-M    P1
_symmetry_Int_Tables_number       1
_symmetry_cell_setting            triclinic
loop_
_symmetry_equiv_pos_as_xyz
'x, y, z'
_cell_length_a     48.878906
_cell_length_b     49.947174
_cell_length_c     68.976825
_cell_angle_alpha  89.55851
_cell_angle_beta   89.165357
_cell_angle_gamma 119.64939
loop_
_atom_site_label
_atom_site_type_symbol
_atom_site_fract_x
_atom_site_fract_y
_atom_site_fract_z
_atom_type_partial_charge
Mn0 Mn 0.38975 0.09316 0.06051 0.0
Mn1 Mn 0.41076 0.11028 0.01317 0.0
C2 C 0.37254 0.12102 0.0426 0.0
C3 C 0.39569 0.10657 0.0932 0.0
C4 C 0.36013 0.04739 0.02765 0.0
O5 O 0.42611 0.08381 0.05772 0.0
O6 O 0.43872 0.09796 0.02618 0.0
C7 C 0.4724 0.16637 0.01845 0.0
N8 N 0.44321 0.15233 0.01067 0.0
C9 C 0.45343 0.19916 0.99425 0.0
C10 C 0.48369 0.2141 1.00199 0.0
C11 C 0.49316 0.19766 0.0142 0.0
C12 C 0.43376 0.16799 0.99904 0.0
H13 H 0.47973 0.15377 0.02782 0.0
C14 C 0.44259 0.08741 0.04226 0.0
O15 O 0.37919 0.07801 0.08803 0.0
O16 O 0.41188 0.12644 0.07958 0.0
N17 N 0.3856 0.12253 0.99864 0.0
C18 C 0.35528 0.10498 0.99294 0.0
C19 C 0.34187 0.11819 0.98104 0.0
C20 C 0.35994 0.14909 0.97486 0.0
C21 C 0.39128 0.1665 0.98062 0.0
C22 C 0.40333 0.15213 0.99253 0.0
H23 H 0.34138 0.08116 0.99754 0.0
O24 O 0.35749 0.10631 0.05822 0.0
O25 O 0.39747 0.11934 0.0379 0.0
O26 O 0.36195 0.05389 0.04561 0.0
O27 O 0.37697 0.06683 0.01436 0.0
C28 C 0.41097 0.19762 0.97515 0.0
C29 C 0.44194 0.21401 0.98208 0.0
H30 H 0.49979 0.23822 0.99874 0.0
H31 H 0.51643 0.20906 0.02029 0.0
H32 H 0.31769 0.10457 0.97661 0.0
H33 H 0.34949 0.15924 0.96575 0.0
H34 H 0.40244 0.20927 0.96577 0.0
H35 H 0.45668 0.23806 0.97801 0.0
Mn36 Mn 0.89469 0.2967 0.05692 0.0
Mn37 Mn 0.87591 0.30232 0.01059 0.0
C38 C 0.86266 0.2531 0.03964 0.0
C39 C 0.88342 0.2888 0.09021 0.0
C40 C 0.93811 0.30822 0.02157 0.0
O41 O 0.9081 0.34283 0.05468 0.0
O42 O 0.89431 0.34265 0.02353 0.0
C43 C 0.82401 0.31469 0.02016 0.0
N44 N 0.83454 0.29735 0.01102 0.0
C45 C 0.78317 0.26367 0.99847 0.0
C46 C 0.77181 0.2813 0.00764 0.0
C47 C 0.79231 0.30688 0.01858 0.0
C48 C 0.81496 0.27253 1.00061 0.0
H49 H 0.83968 0.33426 0.02865 0.0
C50 C 0.90642 0.35657 0.0393 0.0
O51 O 0.91198 0.29965 0.08342 0.0
O52 O 0.86274 0.28722 0.07801 0.0
N53 N 0.85804 0.26524 0.99601 0.0
C54 C 0.87289 0.25098 0.98782 0.0
C55 C 0.85582 0.2252 0.97618 0.0
C56 C 0.82383 0.21462 0.97286 0.0
C57 C 0.80921 0.23002 0.98113 0.0
C58 C 0.82752 0.25581 0.99241 0.0
H59 H 0.89754 0.25915 0.99022 0.0
O60 O 0.87787 0.25161 0.05439 0.0
O61 O 0.86612 0.28001 0.03541 0.0
O62 O 0.93261 0.30543 0.03983 0.0
O63 O 0.91835 0.30676 0.0091 0.0
C64 C 0.77721 0.2208 0.97865 0.0
C65 C 0.76415 0.23752 0.9874 0.0
H66 H 0.74737 0.27535 0.00647 0.0
H67 H 0.78369 0.32052 0.02577 0.0
H68 H 0.86731 0.21354 0.96976 0.0
H69 H 0.81081 0.1948 0.96381 0.0
H70 H 0.76239 0.20079 0.97014 0.0
H71 H 0.73947 0.23009 0.98549 0.0
Mn72 Mn 0.70273 0.60859 0.06655 0.0
Mn73 Mn 0.70084 0.59322 0.0187 0.0
C74 C 0.74909 0.62822 0.04846 0.0
C75 C 0.71052 0.60038 0.09896 0.0
C76 C 0.68595 0.64073 0.03499 0.0
O77 O 0.65723 0.57291 0.06348 0.0
O78 O 0.66067 0.56377 0.03174 0.0
C79 C 0.69861 0.53304 0.02185 0.0
N80 N 0.71236 0.56232 0.01452 0.0
C81 C 0.7493 0.55456 0.99536 0.0
C82 C 0.73545 0.52424 0.00262 0.0
C83 C 0.71007 0.51347 0.01598 0.0
C84 C 0.73686 0.57295 1.00174 0.0
H85 H 0.67905 0.52472 0.03207 0.0
C86 C 0.64537 0.55817 0.04784 0.0
O87 O 0.69688 0.61618 0.09436 0.0
O88 O 0.71491 0.58556 0.08501 0.0
N89 N 0.73798 0.61994 0.00391 0.0
C90 C 0.74962 0.65021 0.99913 0.0
C91 C 0.77501 0.6646 0.98587 0.0
C92 C 0.7881 0.64771 0.97764 0.0
C93 C 0.77597 0.61668 0.98297 0.0
C94 C 0.75023 0.60342 0.99596 0.0
H95 H 0.73932 0.66316 0.0052 0.0
O96 O 0.74771 0.64072 0.06451 0.0
O97 O 0.72317 0.60396 0.04333 0.0
O98 O 0.69067 0.63747 0.05275 0.0
O99 O 0.68892 0.62537 0.02124 0.0
C100 C 0.78844 0.5984 0.97598 0.0
C101 C 0.77524 0.56742 0.98227 0.0
H102 H 0.74426 0.5091 0.99816 0.0
H103 H 0.69934 0.49014 0.02171 0.0
H104 H 0.78416 0.68854 0.98182 0.0
H105 H 0.80735 0.65873 0.96717 0.0
H106 H 0.80842 0.60806 0.96596 0.0
H107 H 0.78533 0.55374 0.97703 0.0
Mn108 Mn 0.61918 0.90756 0.94129 0.0
Mn109 Mn 0.59172 0.88838 0.98748 0.0
C110 C 0.63266 0.87764 0.9601 0.0
C111 C 0.61583 0.89542 0.90841 0.0
C112 C 0.64474 0.95158 0.97512 0.0
O113 O 0.58407 0.91892 0.94262 0.0
O114 O 0.56507 0.90064 0.97287 0.0
C115 C 0.53166 0.83193 0.97953 0.0
N116 N 0.55972 0.84603 0.9887 0.0
C117 C 0.54896 0.79851 0.00439 0.0
C118 C 0.51984 0.78348 0.9952 0.0
C119 C 0.5112 0.80025 0.98269 0.0
C120 C 0.56836 0.83008 1.00066 0.0
H121 H 0.52501 0.84477 0.96988 0.0
C122 C 0.56486 0.91378 0.9569 0.0
O123 O 0.63296 0.92363 0.91411 0.0
O124 O 0.59785 0.8754 0.92148 0.0
N125 N 0.61547 0.87616 0.00344 0.0
C126 C 0.64458 0.89404 0.01089 0.0
C127 C 0.6568 0.88081 0.0237 0.0
C128 C 0.63886 0.84945 0.02887 0.0
C129 C 0.6088 0.83159 0.0212 0.0
C130 C 0.59775 0.84613 0.00865 0.0
H131 H 0.65837 0.91821 0.00706 0.0
O132 O 0.64959 0.89229 0.94498 0.0
O133 O 0.60805 0.88043 0.9636 0.0
O134 O 0.64643 0.94551 0.95735 0.0
O135 O 0.62498 0.93216 0.98748 0.0
C136 C 0.58944 0.79992 0.02543 0.0
C137 C 0.55962 0.78336 0.01693 0.0
H138 H 0.50401 0.75905 0.99758 0.0
H139 H 0.48882 0.78879 0.97548 0.0
H140 H 0.67998 0.89475 0.02959 0.0
H141 H 0.6484 0.83935 0.03875 0.0
H142 H 0.59735 0.78802 0.03506 0.0
H143 H 0.54511 0.75895 0.02011 0.0
Mn144 Mn 0.08091 0.69715 0.94345 0.0
Mn145 Mn 0.0544 0.74657 0.93338 0.0
C146 C 0.04402 0.69974 0.96354 0.0
C147 C 0.07322 0.64695 0.94297 0.0
C148 C 0.11742 0.76598 0.95177 0.0
O149 O 0.09665 0.71042 0.91513 0.0
O150 O 0.07489 0.74061 0.91022 0.0
C151 C 0.00448 0.70685 0.90637 0.0
N152 N 0.01341 0.72405 0.92269 0.0
C153 C 0.9606 0.71408 0.92894 0.0
C154 C 0.95086 0.69644 0.91212 0.0
C155 C 0.97288 0.6927 0.90084 0.0
C156 C 0.99234 0.72739 0.93382 0.0
H157 H 0.02136 0.70394 0.89769 0.0
C158 C 0.0911 0.72833 0.90447 0.0
O159 O 0.1006 0.67033 0.94682 0.0
O160 O 0.05226 0.65343 0.93682 0.0
N161 N 0.03403 0.75494 0.95445 0.0
C162 C 0.04727 0.77254 0.97029 0.0
C163 C 0.02853 0.77879 0.98301 0.0
C164 C 0.99654 0.76732 0.97917 0.0
C165 C 0.98348 0.74948 0.96269 0.0
C166 C 0.00336 0.74414 0.95049 0.0
H167 H 0.07197 0.78184 0.97314 0.0
O168 O 0.06078 0.68819 0.96986 0.0
O169 O 0.04871 0.70884 0.94552 0.0
O170 O 0.1153 0.73942 0.95247 0.0
O171 O 0.09621 0.77099 0.94481 0.0
C172 C 0.95157 0.7369 0.95783 0.0
C173 C 0.94008 0.71894 0.94109 0.0
H174 H 0.92653 0.68558 0.90776 0.0
H175 H 0.96551 0.67901 0.88788 0.0
H176 H 0.03878 0.79264 0.99567 0.0
H177 H 0.98228 0.77249 0.98894 0.0
H178 H 0.93562 0.74075 0.96692 0.0
H179 H 0.91543 0.70908 0.93765 0.0
Mn180 Mn 0.2914 0.38615 0.94191 0.0
Mn181 Mn 0.29531 0.4054 0.98912 0.0
C182 C 0.24581 0.3702 0.96038 0.0
C183 C 0.28349 0.39225 0.90916 0.0
C184 C 0.30478 0.35337 0.97503 0.0
O185 O 0.33777 0.42038 0.94379 0.0
O186 O 0.33624 0.43043 0.97552 0.0
C187 C 0.30463 0.46809 0.98274 0.0
N188 N 0.2884 0.43969 0.99135 0.0
C189 C 0.25495 0.4541 0.00897 0.0
C190 C 0.27145 0.4836 1.0004 0.0
C191 C 0.29631 0.49057 0.98716 0.0
C192 C 0.26424 0.43264 0.00393 0.0
H193 H 0.32376 0.47349 0.97258 0.0
C194 C 0.3509 0.43482 0.95928 0.0
O195 O 0.29577 0.37556 0.91453 0.0
O196 O 0.28037 0.40881 0.92246 0.0
N197 N 0.25772 0.38324 0.00453 0.0
C198 C 0.24372 0.35347 0.01105 0.0
C199 C 0.21873 0.34283 0.02461 0.0
C200 C 0.20851 0.36295 0.0314 0.0
C201 C 0.22309 0.39339 0.02435 0.0
C202 C 0.24829 0.40285 0.01113 0.0
H203 H 0.25187 0.33809 0.00614 0.0
O204 O 0.24586 0.35585 0.94488 0.0
O205 O 0.27253 0.39413 0.96473 0.0
O206 O 0.30203 0.3572 0.95701 0.0
O207 O 0.30213 0.36974 0.98827 0.0
C208 C 0.21371 0.41477 0.02997 0.0
C209 C 0.22948 0.44504 0.02217 0.0
H210 H 0.26512 0.501 0.0038 0.0
H211 H 0.30906 0.51323 0.98043 0.0
H212 H 0.20774 0.31934 0.03004 0.0
H213 H 0.1897 0.35491 0.04218 0.0
H214 H 0.19421 0.40808 0.04013 0.0
H215 H 0.22181 0.46116 0.0264 0.0
Mn216 Mn 0.05136 0.41966 0.39769 0.0
Mn217 Mn 0.08043 0.44322 0.35209 0.0
C218 C 0.04056 0.45324 0.3807 0.0
C219 C 0.05276 0.42758 0.43114 0.0
C220 C 0.02368 0.38119 0.36127 0.0
O221 O 0.08489 0.40635 0.39587 0.0
O222 O 0.10127 0.42286 0.36508 0.0
C223 C 0.14388 0.49158 0.36346 0.0
N224 N 0.1169 0.48306 0.35364 0.0
C225 C 0.13684 0.53453 0.34094 0.0
C226 C 0.16493 0.54384 0.35082 0.0
C227 C 0.16841 0.52228 0.36219 0.0
C228 C 0.11316 0.50368 0.34285 0.0
H229 H 0.14663 0.47507 0.37219 0.0
C230 C 0.10181 0.40931 0.38077 0.0
O231 O 0.03525 0.4004 0.42399 0.0
O232 O 0.07218 0.44882 0.41915 0.0
N233 N 0.06267 0.4633 0.33739 0.0
C234 C 0.03406 0.45061 0.32885 0.0
C235 C 0.02667 0.46917 0.31712 0.0
C236 C 0.049 0.50038 0.31394 0.0
C237 C 0.07861 0.51272 0.32244 0.0
C238 C 0.0846 0.49312 0.33403 0.0
H239 H 0.01694 0.42656 0.33111 0.0
O240 O 0.02251 0.4368 0.39499 0.0
O241 O 0.06488 0.45005 0.37675 0.0
O242 O 0.02423 0.38419 0.37967 0.0
O243 O 0.04269 0.40233 0.34944 0.0
C244 C 0.10237 0.54371 0.31996 0.0
C245 C 0.13136 0.55467 0.32933 0.0
H246 H 0.18393 0.56748 0.34984 0.0
H247 H 0.18997 0.52931 0.36992 0.0
H248 H 0.00383 0.45943 0.31051 0.0
H249 H 0.04317 0.51465 0.30494 0.0
H250 H 0.09855 0.55939 0.31096 0.0
H251 H 0.1493 0.57864 0.32748 0.0
Mn252 Mn 0.57035 0.62722 0.39055 0.0
Mn253 Mn 0.54825 0.62132 0.34379 0.0
C254 C 0.54346 0.57988 0.37622 0.0
C255 C 0.55847 0.62397 0.4237 0.0
C256 C 0.61496 0.64126 0.356 0.0
O257 O 0.57716 0.67056 0.38436 0.0
O258 O 0.55747 0.66204 0.35409 0.0
C259 C 0.48824 0.62144 0.35033 0.0
N260 N 0.50329 0.60692 0.34288 0.0
C261 C 0.45085 0.57114 0.32483 0.0
C262 C 0.43854 0.58798 0.33357 0.0
C263 C 0.45662 0.61203 0.34619 0.0
C264 C 0.48806 0.58195 0.33176 0.0
H265 H 0.50072 0.64107 0.35955 0.0
C266 C 0.57054 0.67968 0.36853 0.0
O267 O 0.58751 0.63702 0.41736 0.0
O268 O 0.53721 0.61747 0.41075 0.0
N269 N 0.5405 0.5835 0.33132 0.0
C270 C 0.5623 0.57564 0.3255 0.0
C271 C 0.55487 0.55072 0.31313 0.0
C272 C 0.52539 0.53314 0.30456 0.0
C273 C 0.50032 0.53966 0.30816 0.0
C274 C 0.51121 0.56824 0.32472 0.0
H275 H 0.58614 0.58844 0.33049 0.0
O276 O 0.55949 0.58317 0.39162 0.0
O277 O 0.54284 0.60407 0.36989 0.0
O278 O 0.60958 0.63798 0.37426 0.0
O279 O 0.59399 0.63637 0.34351 0.0
C280 C 0.44246 0.52244 0.29672 0.0
C281 C 0.42852 0.54359 0.30853 0.0
H282 H 0.41476 0.58274 0.33049 0.0
H283 H 0.44605 0.62455 0.35262 0.0
H284 H 0.57327 0.54534 0.30962 0.0
H285 H 0.52364 0.51533 0.295 0.0
H286 H 0.4269 0.50533 0.28639 0.0
H287 H 0.4051 0.53941 0.30546 0.0
Mn288 Mn 0.37625 0.94835 0.39918 0.0
Mn289 Mn 0.37923 0.92976 0.35238 0.0
C290 C 0.42392 0.96256 0.38393 0.0
C291 C 0.37917 0.94141 0.43249 0.0
C292 C 0.36887 0.9823 0.36422 0.0
O293 O 0.33023 0.91516 0.39475 0.0
O294 O 0.33614 0.90474 0.36357 0.0
C295 C 0.36787 0.86649 0.35933 0.0
N296 N 0.38594 0.89522 0.35148 0.0
C297 C 0.42268 0.88131 0.33783 0.0
C298 C 0.4043 0.85146 0.34562 0.0
C299 C 0.37682 0.84406 0.35647 0.0
C300 C 0.41245 0.90262 0.34105 0.0
H301 H 0.34684 0.86079 0.36776 0.0
C302 C 0.3193 0.9008 0.37887 0.0
O303 O 0.3684 0.95882 0.42593 0.0
O304 O 0.38316 0.92448 0.41987 0.0
N305 N 0.41947 0.95218 0.33954 0.0
C306 C 0.43561 0.98252 0.33415 0.0
C307 C 0.46431 0.99403 0.32383 0.0
C308 C 0.47589 0.97417 0.31893 0.0
C309 C 0.45859 0.94293 0.32436 0.0
C310 C 0.43007 0.93274 0.33456 0.0
H311 H 0.42679 0.99787 0.33787 0.0
O312 O 0.42231 0.97741 0.39877 0.0
O313 O 0.39752 0.93967 0.37818 0.0
O314 O 0.36923 0.97842 0.38251 0.0
O315 O 0.37287 0.96572 0.35175 0.0
C316 C 0.46899 0.92169 0.32058 0.0
C317 C 0.45108 0.89092 0.32733 0.0
H318 H 0.41124 0.83415 0.34355 0.0
H319 H 0.36263 0.82113 0.36264 0.0
H320 H 0.47755 0.01818 0.31971 0.0
H321 H 0.49821 0.98321 0.31115 0.0
H322 H 0.49103 0.92893 0.3128 0.0
H323 H 0.45958 0.87494 0.32461 0.0
Mn324 Mn 0.28749 0.2425 0.27291 0.0
Mn325 Mn 0.26535 0.2256 0.32004 0.0
C326 C 0.30452 0.21485 0.29126 0.0
C327 C 0.28171 0.22864 0.2403 0.0
C328 C 0.3147 0.28911 0.30523 0.0
O329 O 0.25081 0.25156 0.27554 0.0
O330 O 0.23531 0.23456 0.30647 0.0
C331 C 0.20605 0.16672 0.31554 0.0
N332 N 0.23525 0.18284 0.32317 0.0
C333 C 0.22901 0.13776 0.34007 0.0
C334 C 0.19878 0.12069 0.33248 0.0
C335 C 0.1873 0.13522 0.32012 0.0
C336 C 0.2466 0.16907 0.33498 0.0
H337 H 0.1972 0.17785 0.30604 0.0
C338 C 0.2326 0.24607 0.29044 0.0
O339 O 0.29812 0.25728 0.24533 0.0
O340 O 0.26553 0.20892 0.25398 0.0
N341 N 0.29267 0.21657 0.33487 0.0
C342 C 0.32278 0.23604 0.34029 0.0
C343 C 0.33805 0.22495 0.35232 0.0
C344 C 0.3221 0.19409 0.3588 0.0
C345 C 0.29097 0.17462 0.35325 0.0
C346 C 0.27694 0.18699 0.34129 0.0
H347 H 0.33509 0.25982 0.33542 0.0
O348 O 0.31978 0.22931 0.27562 0.0
O349 O 0.27966 0.2168 0.29564 0.0
O350 O 0.31515 0.28204 0.28755 0.0
O351 O 0.29672 0.26994 0.31831 0.0
C352 C 0.2734 0.14337 0.35896 0.0
C353 C 0.24252 0.12489 0.35228 0.0
H354 H 0.18426 0.09637 0.33595 0.0
H355 H 0.16404 0.12216 0.31415 0.0
H356 H 0.36205 0.24015 0.35658 0.0
H357 H 0.33401 0.18557 0.36799 0.0
H358 H 0.28357 0.13321 0.36829 0.0
H359 H 0.22946 0.10076 0.35651 0.0
Mn360 Mn 0.75027 0.02826 0.27832 0.0
Mn361 Mn 0.73212 0.08503 0.27472 0.0
C362 C 0.72102 0.0346 0.30286 0.0
C363 C 0.73488 0.97604 0.27493 0.0
C364 C 0.79708 0.0954 0.28478 0.0
O365 O 0.76067 0.04224 0.24953 0.0
O366 O 0.74127 0.07506 0.2486 0.0
C367 C 0.67293 0.05226 0.25275 0.0
N368 N 0.68806 0.06862 0.2687 0.0
C369 C 0.63535 0.06745 0.27772 0.0
C370 C 0.6228 0.05125 0.26095 0.0
C371 C 0.64133 0.04374 0.24887 0.0
C372 C 0.67321 0.07704 0.2817 0.0
H373 H 0.68518 0.04544 0.24253 0.0
C374 C 0.75424 0.06103 0.24051 0.0
O375 O 0.76428 0.99663 0.27718 0.0
O376 O 0.71568 0.98638 0.27199 0.0
N377 N 0.72429 0.09794 0.29961 0.0
C378 C 0.74561 0.11201 0.31392 0.0
C379 C 0.73853 0.12332 0.33084 0.0
C380 C 0.70929 0.12137 0.33436 0.0
C381 C 0.68592 0.10791 0.32082 0.0
C382 C 0.69546 0.09486 0.30082 0.0
H383 H 0.76887 0.11477 0.31265 0.0
O384 O 0.73601 0.01983 0.30604 0.0
O385 O 0.72325 0.04499 0.28521 0.0
O386 O 0.79037 0.06731 0.28609 0.0
O387 O 0.77742 0.104 0.28006 0.0
C388 C 0.64932 0.10402 0.32408 0.0
C389 C 0.61399 0.07596 0.29427 0.0
H390 H 0.59867 0.04393 0.25733 0.0
H391 H 0.63088 0.03079 0.23592 0.0
H392 H 0.75654 0.13404 0.34161 0.0
H393 H 0.70502 0.13027 0.34762 0.0
H394 H 0.64474 0.11295 0.33745 0.0
H395 H 0.58953 0.06897 0.29101 0.0
Mn396 Mn 0.96371 0.71598 0.27274 0.0
Mn397 Mn 0.97421 0.73941 0.31915 0.0
C398 C 0.92081 0.70427 0.29291 0.0
C399 C 0.95381 0.72107 0.24022 0.0
C400 C 0.98245 0.68667 0.30457 0.0
O401 O 0.01119 0.74846 0.27347 0.0
O402 O 0.01231 0.76671 0.30362 0.0
C403 C 0.97743 0.79984 0.31467 0.0
N404 N 0.96339 0.77094 0.32263 0.0
C405 C 0.92888 0.78123 0.34247 0.0
C406 C 0.94309 0.8112 0.33457 0.0
C407 C 0.96726 0.82044 0.32048 0.0
C408 C 0.93952 0.76153 0.3358 0.0
H409 H 0.99643 0.80717 0.30411 0.0
C410 C 0.0255 0.76689 0.28742 0.0
O411 O 0.96495 0.70335 0.24546 0.0
O412 O 0.9531 0.73918 0.25337 0.0
N413 N 0.9389 0.71465 0.33595 0.0
C414 C 0.9292 0.68574 0.34312 0.0
C415 C 0.90497 0.67293 0.35727 0.0
C416 C 0.89156 0.69027 0.36428 0.0
C417 C 0.90275 0.72038 0.35721 0.0
C418 C 0.92668 0.73178 0.34293 0.0
H419 H 0.9398 0.67249 0.33808 0.0
O420 O 0.91757 0.68846 0.27749 0.0
O421 O 0.94893 0.72678 0.2959 0.0
O422 O 0.97272 0.68594 0.28749 0.0
O423 O 0.98543 0.70651 0.31714 0.0
C424 C 0.89175 0.73983 0.3642 0.0
C425 C 0.90502 0.77031 0.35698 0.0
H426 H 0.93576 0.82737 0.33928 0.0
H427 H 0.97833 0.84352 0.31431 0.0
H428 H 0.89682 0.64985 0.36287 0.0
H429 H 0.87306 0.68042 0.37532 0.0
H430 H 0.87344 0.73175 0.37535 0.0
H431 H 0.89688 0.78521 0.36287 0.0
Mn432 Mn 0.72241 0.75753 0.72889 0.0
Mn433 Mn 0.74475 0.77405 0.68171 0.0
C434 C 0.70634 0.78584 0.71047 0.0
C435 C 0.72831 0.77143 0.76149 0.0
C436 C 0.69319 0.71158 0.69622 0.0
O437 O 0.75796 0.74693 0.72652 0.0
O438 O 0.77253 0.76202 0.69526 0.0
C439 C 0.80605 0.83039 0.68722 0.0
N440 N 0.77698 0.81619 0.67929 0.0
C441 C 0.78643 0.86334 0.66367 0.0
C442 C 0.81656 0.87846 0.67159 0.0
C443 C 0.82638 0.86191 0.68344 0.0
C444 C 0.76723 0.83191 0.66794 0.0
H445 H 0.81361 0.81774 0.69638 0.0
C446 C 0.77519 0.75072 0.71139 0.0
O447 O 0.71125 0.74284 0.75648 0.0
O448 O 0.74501 0.79091 0.74781 0.0
N449 N 0.71971 0.78589 0.66673 0.0
C450 C 0.68987 0.76789 0.66033 0.0
C451 C 0.67642 0.78092 0.64832 0.0
C452 C 0.69389 0.81221 0.64287 0.0
C453 C 0.72477 0.83012 0.64933 0.0
C454 C 0.73702 0.81578 0.66112 0.0
H455 H 0.67639 0.7438 0.66441 0.0
O456 O 0.69102 0.77174 0.72617 0.0
O457 O 0.73096 0.78344 0.70611 0.0
O458 O 0.69409 0.71847 0.71407 0.0
O459 O 0.71108 0.73051 0.683 0.0
C460 C 0.74383 0.86166 0.64464 0.0
C461 C 0.77458 0.87829 0.65188 0.0
H462 H 0.83229 0.90278 0.66874 0.0
H463 H 0.84956 0.87344 0.68966 0.0
H464 H 0.65264 0.76689 0.64331 0.0
H465 H 0.68337 0.82222 0.6337 0.0
H466 H 0.73502 0.8734 0.63557 0.0
H467 H 0.7889 0.90259 0.64832 0.0
Mn468 Mn 0.22997 0.96399 0.72138 0.0
Mn469 Mn 0.2055 0.97279 0.6773 0.0
C470 C 0.19459 0.92161 0.70435 0.0
C471 C 0.223 0.95543 0.75495 0.0
C472 C 0.26758 0.975 0.68329 0.0
O473 O 0.24504 0.01056 0.72067 0.0
O474 O 0.22746 0.01252 0.69092 0.0
C475 C 0.15735 0.98741 0.69213 0.0
N476 N 0.16519 0.96962 0.68109 0.0
C477 C 0.11156 0.93813 0.6713 0.0
C478 C 0.10294 0.95625 0.68246 0.0
C479 C 0.12594 0.98095 0.69295 0.0
C480 C 0.14321 0.94563 0.67109 0.0
H481 H 0.17493 0.0063 0.70029 0.0
C482 C 0.24202 0.02544 0.70638 0.0
O483 O 0.25041 0.96524 0.7466 0.0
O484 O 0.20122 0.95501 0.74424 0.0
N485 N 0.18393 0.93655 0.66211 0.0
C486 C 0.19633 0.92196 0.65159 0.0
C487 C 0.17654 0.89695 0.64004 0.0
C488 C 0.14435 0.88757 0.63916 0.0
C489 C 0.1323 0.9035 0.64968 0.0
C490 C 0.15323 0.92842 0.66079 0.0
H491 H 0.22111 0.92922 0.65211 0.0
O492 O 0.21109 0.91887 0.71787 0.0
O493 O 0.19845 0.94902 0.70135 0.0
O494 O 0.26485 0.97173 0.70173 0.0
O495 O 0.24667 0.97535 0.67251 0.0
C496 C 0.10036 0.89562 0.64959 0.0
C497 C 0.08997 0.91284 0.66047 0.0
H498 H 0.07874 0.95134 0.68313 0.0
H499 H 0.11945 0.99495 0.70166 0.0
H500 H 0.18606 0.88493 0.63184 0.0
H501 H 0.12916 0.86829 0.63024 0.0
H502 H 0.08358 0.8763 0.64126 0.0
H503 H 0.06533 0.90647 0.66036 0.0
Mn504 Mn 0.03296 0.27603 0.7342 0.0
Mn505 Mn 0.02283 0.25157 0.68791 0.0
C506 C 0.07552 0.28489 0.71463 0.0
C507 C 0.04196 0.27229 0.76707 0.0
C508 C 0.02034 0.30816 0.70046 0.0
O509 O 0.98517 0.24504 0.73384 0.0
O510 O 0.98292 0.22946 0.70289 0.0
C511 C 0.01015 0.18807 0.69579 0.0
N512 N 0.02753 0.21589 0.68663 0.0
C513 C 0.05845 0.19806 0.66944 0.0
C514 C 0.04075 0.16912 0.67856 0.0
C515 C 0.01665 0.16419 0.69192 0.0
C516 C 0.05132 0.22114 0.67418 0.0
H517 H 0.99147 0.18416 0.70594 0.0
C518 C 0.9701 0.22855 0.71936 0.0
O519 O 0.03209 0.29064 0.76096 0.0
O520 O 0.04202 0.25302 0.75456 0.0
N521 N 0.05973 0.27114 0.6716 0.0
C522 C 0.07416 0.30017 0.66374 0.0
C523 C 0.09913 0.309 0.6503 0.0
C524 C 0.1084 0.28765 0.64468 0.0
C525 C 0.09255 0.25765 0.65253 0.0
C526 C 0.06821 0.25032 0.6661 0.0
H527 H 0.06675 0.3165 0.66774 0.0
O528 O 0.07926 0.30184 0.72954 0.0
O529 O 0.04708 0.26298 0.71161 0.0
O530 O 0.02581 0.30641 0.71828 0.0
O531 O 0.01825 0.28875 0.6878 0.0
C532 C 0.09942 0.2345 0.64705 0.0
C533 C 0.08253 0.20477 0.65559 0.0
H534 H 0.04545 0.15055 0.67542 0.0
H535 H 0.00295 0.14196 0.69907 0.0
H536 H 0.11102 0.33212 0.64417 0.0
H537 H 0.12748 0.29444 0.63417 0.0
H538 H 0.11739 0.23927 0.63609 0.0
H539 H 0.08791 0.18709 0.65123 0.0
Mn540 Mn 0.94754 0.5702 0.61289 0.0
Mn541 Mn 0.91783 0.55855 0.65873 0.0
C542 C 0.96079 0.54425 0.63554 0.0
C543 C 0.94615 0.55371 0.58099 0.0
C544 C 0.97178 0.61945 0.64401 0.0
O545 O 0.91215 0.58103 0.61054 0.0
O546 O 0.89296 0.56919 0.64129 0.0
C547 C 0.85723 0.50196 0.65202 0.0
N548 N 0.88473 0.51689 0.66173 0.0
C549 C 0.87075 0.47215 0.68176 0.0
C550 C 0.8422 0.45628 0.67203 0.0
C551 C 0.83546 0.47124 0.65706 0.0
C552 C 0.89152 0.50269 0.67607 0.0
H553 H 0.85199 0.51343 0.64052 0.0
C554 C 0.89277 0.57869 0.62407 0.0
O555 O 0.96277 0.58258 0.58543 0.0
O556 O 0.92787 0.53513 0.59459 0.0
N557 N 0.93954 0.54818 0.67746 0.0
C558 C 0.96844 0.56656 0.68503 0.0
C559 C 0.97881 0.55513 0.70018 0.0
C560 C 0.95919 0.52514 0.70748 0.0
C561 C 0.9296 0.50666 0.69948 0.0
C562 C 0.9204 0.5194 0.68456 0.0
H563 H 0.98337 0.58977 0.67958 0.0
O564 O 0.97809 0.55654 0.62011 0.0
O565 O 0.93548 0.54656 0.63708 0.0
O566 O 0.97368 0.61079 0.62693 0.0
O567 O 0.9519 0.60188 0.65697 0.0
C568 C 0.9089 0.4761 0.70569 0.0
C569 C 0.87955 0.45879 0.69676 0.0
H570 H 0.82536 0.43259 0.67587 0.0
H571 H 0.81352 0.45914 0.64944 0.0
H572 H 0.0017 0.56945 0.70634 0.0
H573 H 0.96688 0.51662 0.71937 0.0
H574 H 0.91542 0.46562 0.7172 0.0
H575 H 0.86397 0.43522 0.70151 0.0
Mn576 Mn 0.41032 0.3648 0.61129 0.0
Mn577 Mn 0.38132 0.41182 0.60006 0.0
C578 C 0.37068 0.36469 0.63016 0.0
C579 C 0.40589 0.31586 0.61154 0.0
C580 C 0.44189 0.43316 0.62157 0.0
O581 O 0.42805 0.37875 0.58346 0.0
O582 O 0.4075 0.40989 0.57862 0.0
C583 C 0.33887 0.37264 0.56944 0.0
N584 N 0.34339 0.38863 0.5861 0.0
C585 C 0.2891 0.37602 0.58754 0.0
C586 C 0.28393 0.35974 0.57026 0.0
C587 C 0.3089 0.35792 0.56122 0.0
C588 C 0.31945 0.39015 0.59505 0.0
H589 H 0.35795 0.37105 0.56253 0.0
C590 C 0.42421 0.39805 0.57312 0.0
O591 O 0.4322 0.34024 0.61587 0.0
O592 O 0.38433 0.32072 0.60446 0.0
N593 N 0.35537 0.41647 0.61919 0.0
C594 C 0.36401 0.43199 0.63618 0.0
C595 C 0.34178 0.43596 0.64703 0.0
C596 C 0.31108 0.42422 0.64018 0.0
C597 C 0.30267 0.40812 0.62277 0.0
C598 C 0.32593 0.40531 0.61244 0.0
H599 H 0.38773 0.44147 0.64132 0.0
O600 O 0.38849 0.35475 0.63705 0.0
O601 O 0.37591 0.37398 0.61212 0.0
O602 O 0.44232 0.40779 0.62082 0.0
O603 O 0.4198 0.43687 0.61471 0.0
C604 C 0.2721 0.3947 0.61528 0.0
C605 C 0.26526 0.37846 0.59774 0.0
H606 H 0.26084 0.34834 0.56389 0.0
H607 H 0.30504 0.34519 0.54797 0.0
H608 H 0.3484 0.44837 0.66049 0.0
H609 H 0.2942 0.42797 0.64825 0.0
H610 H 0.25359 0.39641 0.623 0.0
H611 H 0.24157 0.36786 0.59226 0.0
Mn612 Mn 0.61929 0.04787 0.61195 0.0
Mn613 Mn 0.62154 0.06498 0.65927 0.0
C614 C 0.57316 0.031 0.62998 0.0
C615 C 0.61195 0.05666 0.57961 0.0
C616 C 0.63523 0.01594 0.64398 0.0
O617 O 0.6653 0.08246 0.61494 0.0
O618 O 0.66193 0.09407 0.64624 0.0
C619 C 0.62449 0.12539 0.65545 0.0
N620 N 0.60959 0.0958 0.66232 0.0
C621 C 0.57037 0.10316 0.67908 0.0
C622 C 0.58547 0.13383 0.67232 0.0
C623 C 0.61249 0.1449 0.66033 0.0
C624 C 0.58313 0.08469 0.67348 0.0
H625 H 0.64547 0.13406 0.6464 0.0
C626 C 0.67722 0.09828 0.63024 0.0
O627 O 0.62425 0.03958 0.58409 0.0
O628 O 0.60868 0.07207 0.5936 0.0
N629 N 0.58378 0.03842 0.67367 0.0
C630 C 0.5734 0.00901 0.6801 0.0
C631 C 0.54656 0.99449 0.69231 0.0
C632 C 0.53107 0.01055 0.69808 0.0
C633 C 0.54284 0.04115 0.69182 0.0
C634 C 0.56958 0.05437 0.6796 0.0
H635 H 0.58545 0.99669 0.67592 0.0
O636 O 0.5735 0.01728 0.61425 0.0
O637 O 0.59992 0.05425 0.6347 0.0
O638 O 0.62972 0.01821 0.62621 0.0
O639 O 0.63351 0.03261 0.65738 0.0
C640 C 0.52957 0.0593 0.69763 0.0
C641 C 0.54344 0.09033 0.69137 0.0
H642 H 0.57663 0.14912 0.67631 0.0
H643 H 0.62423 0.1685 0.65502 0.0
H644 H 0.5379 0.97101 0.6973 0.0
H645 H 0.51045 0.99932 0.70755 0.0
H646 H 0.50894 0.04975 0.70713 0.0
H647 H 0.53332 0.10415 0.69627 0.0
H648 H 0.42886 0.02984 0.05378 0.0
H649 H 0.45147 0.00054 0.03907 0.0
H650 H 0.52376 0.08353 0.01093 0.0
H651 H 0.50058 0.11257 0.0252 0.0
H652 H 0.49485 0.04207 0.98495 0.0
H653 H 0.54016 0.04192 0.04584 0.0
H654 H 0.54131 0.03443 0.08113 0.0
H655 H 0.4744 0.9382 0.07589 0.0
H656 H 0.47254 0.94519 0.04058 0.0
H657 H 0.5823 0.97257 0.94563 0.0
H658 H 0.56108 0.00344 0.95986 0.0
H659 H 0.48439 0.92139 0.98606 0.0
H660 H 0.50574 0.89061 0.97204 0.0
H661 H 0.51663 0.96304 0.01296 0.0
H662 H 0.47154 0.96402 0.95177 0.0
H663 H 0.47145 0.97211 0.91647 0.0
H664 H 0.5397 0.06781 0.92241 0.0
H665 H 0.54051 0.06021 0.95774 0.0
C666 C 0.45054 0.0421 0.0453 0.0
C667 C 0.46311 0.07354 0.04077 0.0
C668 C 0.46332 0.02525 0.03669 0.0
C669 C 0.48922 0.03971 0.02366 0.0
C670 C 0.50361 0.07173 0.02073 0.0
C671 C 0.49065 0.08845 0.02914 0.0
C672 C 0.49894 0.02116 0.01143 0.0
C673 C 0.50016 0.02517 0.99114 0.0
C674 C 0.50499 0.99842 0.01934 0.0
C675 C 0.50599 0.99415 0.04058 0.0
C676 C 0.52549 0.01921 0.05223 0.0
C677 C 0.52631 0.01505 0.07224 0.0
C678 C 0.50788 0.98588 0.08075 0.0
C679 C 0.48864 0.96079 0.06927 0.0
C680 C 0.48772 0.96483 0.04926 0.0
C681 C 0.55999 0.9609 0.95352 0.0
C682 C 0.54561 0.92913 0.95765 0.0
C683 C 0.54805 0.97865 0.96189 0.0
C684 C 0.52135 0.96482 0.97431 0.0
C685 C 0.5052 0.93265 0.97673 0.0
C686 C 0.51716 0.91499 0.96846 0.0
C687 C 0.51243 0.98392 0.98654 0.0
C688 C 0.51138 0.98001 0.00681 0.0
C689 C 0.50672 0.00685 0.97863 0.0
C690 C 0.50631 0.01147 0.95738 0.0
C691 C 0.48674 0.98673 0.94553 0.0
C692 C 0.48651 0.99124 0.92552 0.0
C693 C 0.50562 0.02044 0.9172 0.0
C694 C 0.52494 0.0452 0.92888 0.0
C695 C 0.52527 0.04081 0.9489 0.0
H696 H 0.50541 0.02388 0.9017 0.0
H697 H 0.50855 0.9827 0.09624 0.0
H698 H 0.96585 0.39769 0.05133 0.0
H699 H -0.00042 0.44946 0.03718 0.0
H700 H 0.9199 0.44317 0.0072 0.0
H701 H 0.88636 0.39189 0.02128 0.0
H702 H 0.96949 0.45222 0.98246 0.0
H703 H 0.95385 0.49584 0.04134 0.0
H704 H 0.95589 0.50411 0.07662 0.0
H705 H 0.05578 0.53917 0.07497 0.0
H706 H 0.05426 0.53076 0.0397 0.0
H707 H 0.0177 0.59484 0.93635 0.0
H708 H 0.99466 0.54657 0.95466 0.0
H709 H 0.08147 0.57811 0.98515 0.0
H710 H 0.10447 0.62733 0.96715 0.0
H711 H 0.03507 0.55544 0.01047 0.0
H712 H 0.05306 0.51607 0.9522 0.0
H713 H 0.05299 0.50688 0.91712 0.0
H714 H 0.95201 0.46206 0.91758 0.0
H715 H 0.95147 0.4713 0.95262 0.0
C716 C 0.95524 0.40803 0.04253 0.0
C717 C 0.92335 0.39072 0.03753 0.0
C718 C 0.97464 0.4375 0.03423 0.0
C719 C 0.9624 0.45009 0.02086 0.0
C720 C 0.92999 0.43391 0.01731 0.0
C721 C 0.91072 0.40469 0.02557 0.0
C722 C 0.98338 0.47805 0.0088 0.0
C723 C 0.9836 0.47486 0.98858 0.0
C724 C 0.00299 0.50734 0.01676 0.0
C725 C 0.00388 0.51232 0.03794 0.0
C726 C 0.9762 0.50503 0.04854 0.0
C727 C 0.97728 0.50982 0.06852 0.0
C728 C 0.00593 0.52206 0.07804 0.0
C729 C 0.03359 0.52963 0.06758 0.0
C730 C 0.03264 0.52489 0.0476 0.0
C731 C 0.03232 0.59131 0.94654 0.0
C732 C 0.06307 0.61508 0.95015 0.0
C733 C 0.01903 0.56349 0.95707 0.0
C734 C 0.03622 0.55832 0.97135 0.0
C735 C 0.06758 0.5814 0.97429 0.0
C736 C 0.0809 0.60944 0.96377 0.0
C737 C 0.02046 0.52985 0.98398 0.0
C738 C 0.02127 0.53281 0.00429 0.0
C739 C 0.00208 0.50013 0.97613 0.0
C740 C 0.00226 0.49459 0.95502 0.0
C741 C 0.03085 0.50446 0.94479 0.0
C742 C 0.03091 0.49919 0.92492 0.0
C743 C 0.00252 0.48396 0.91512 0.0
C744 C 0.97399 0.47388 0.92519 0.0
C745 C 0.97379 0.47907 0.94506 0.0
H746 H 0.00262 0.47991 0.89974 0.0
H747 H 0.00672 0.52575 0.09351 0.0
H748 H 0.38336 0.49078 0.97563 0.0
H749 H 0.43508 0.51168 0.98992 0.0
H750 H 0.44795 0.44142 0.96223 0.0
H751 H 0.39558 0.42011 0.94808 0.0
H752 H 0.45655 0.44067 0.99984 0.0
H753 H 0.49618 0.5201 0.95141 0.0
H754 H 0.4982 0.56176 0.93095 0.0
H755 H 0.50641 0.61439 0.98164 0.0
H756 H 0.50397 0.57285 0.00244 0.0
H757 H 0.6158 0.50266 0.03047 0.0
H758 H 0.56444 0.48045 0.01538 0.0
H759 H 0.54663 0.54704 0.04388 0.0
H760 H 0.59836 0.56946 0.05896 0.0
H761 H 0.54125 0.54931 0.00523 0.0
H762 H 0.50119 0.46882 0.05355 0.0
H763 H 0.4998 0.427 0.07352 0.0
H764 H 0.49338 0.37625 0.02221 0.0
H765 H 0.49521 0.41798 1.00189 0.0
C766 C 0.39786 0.48072 0.97178 0.0
C767 C 0.38554 0.45406 0.96048 0.0
C768 C 0.42746 0.49258 0.98011 0.0
C769 C 0.44561 0.47814 0.97729 0.0
C770 C 0.43444 0.45298 0.96469 0.0
C771 C 0.40473 0.44114 0.95627 0.0
C772 C 0.4741 0.48715 0.98925 0.0
C773 C 0.47538 0.46437 1.0007 0.0
C774 C 0.49828 0.51819 0.99097 0.0
C775 C 0.4996 0.5432 0.97851 0.0
C776 C 0.49813 0.54043 0.95822 0.0
C777 C 0.49941 0.56405 0.94655 0.0
C778 C 0.50235 0.59067 0.95499 0.0
C779 C 0.50409 0.59374 0.97512 0.0
C780 C 0.50279 0.57017 0.98686 0.0
C781 C 0.60025 0.51154 0.03433 0.0
C782 C 0.61099 0.53756 0.04614 0.0
C783 C 0.57091 0.49898 0.02553 0.0
C784 C 0.55158 0.51214 0.02832 0.0
C785 C 0.56112 0.5365 0.04143 0.0
C786 C 0.59046 0.54896 0.05037 0.0
C787 C 0.52356 0.50287 0.01588 0.0
C788 C 0.52242 0.52561 0.00433 0.0
C789 C 0.49963 0.47179 0.014 0.0
C790 C 0.49866 0.4467 0.02619 0.0
C791 C 0.49979 0.44888 0.04651 0.0
C792 C 0.49886 0.42516 0.0579 0.0
C793 C 0.4966 0.39902 0.04914 0.0
C794 C 0.49518 0.39653 0.02897 0.0
C795 C 0.49614 0.4202 0.01752 0.0
H796 H 0.49586 0.38068 0.05798 0.0
H797 H 0.50336 0.60894 0.94594 0.0
H798 H 0.07781 0.34785 0.38669 0.0
H799 H 0.09728 0.31675 0.37066 0.0
H800 H 0.18181 0.39968 0.35263 0.0
H801 H 0.1619 0.43067 0.36815 0.0
H802 H 0.15418 0.36542 0.32228 0.0
H803 H 0.1815 0.34542 0.38594 0.0
H804 H 0.17056 0.32807 0.42018 0.0
H805 H 0.09947 0.23818 0.40278 0.0
H806 H 0.10979 0.2551 0.36845 0.0
H807 H 0.24719 0.30496 0.2828 0.0
H808 H 0.22112 0.33073 0.29777 0.0
H809 H 0.14456 0.2427 0.31731 0.0
H810 H 0.17164 0.21716 0.30317 0.0
H811 H 0.1636 0.27672 0.34644 0.0
H812 H 0.13654 0.29392 0.28334 0.0
H813 H 0.14464 0.30979 0.24884 0.0
H814 H 0.21084 0.40262 0.2643 0.0
H815 H 0.20345 0.38724 0.29888 0.0
C816 C 0.10128 0.35933 0.38021 0.0
C817 C 0.1186 0.39168 0.37896 0.0
C818 C 0.11226 0.34154 0.37081 0.0
C819 C 0.14099 0.35582 0.36026 0.0
C820 C 0.1595 0.38808 0.36051 0.0
C821 C 0.14837 0.40581 0.36969 0.0
C822 C 0.15041 0.33773 0.34736 0.0
C823 C 0.15667 0.34627 0.32762 0.0
C824 C 0.15223 0.31182 0.35404 0.0
C825 C 0.14621 0.30161 0.37466 0.0
C826 C 0.16339 0.32202 0.38943 0.0
C827 C 0.15734 0.31225 0.40885 0.0
C828 C 0.13428 0.28207 0.41365 0.0
C829 C 0.1173 0.26156 0.39904 0.0
C830 C 0.12327 0.27121 0.37961 0.0
C831 C 0.22402 0.291 0.2894 0.0
C832 C 0.21123 0.25901 0.29157 0.0
C833 C 0.20914 0.3058 0.29815 0.0
C834 C 0.18074 0.28879 0.30883 0.0
C835 C 0.16652 0.25648 0.30935 0.0
C836 C 0.18172 0.24178 0.30096 0.0
C837 C 0.16801 0.30471 0.3213 0.0
C838 C 0.16099 0.29574 0.34098 0.0
C839 C 0.16508 0.32999 0.3145 0.0
C840 C 0.16962 0.33935 0.2937 0.0
C841 C 0.153 0.31767 0.27937 0.0
C842 C 0.15744 0.32659 0.2598 0.0
C843 C 0.17829 0.35718 0.25438 0.0
C844 C 0.19471 0.37893 0.26852 0.0
C845 C 0.19037 0.37013 0.28811 0.0
H846 H 0.18169 0.36404 0.23922 0.0
H847 H 0.12962 0.27455 0.42869 0.0
H848 H 0.5465 0.70652 0.34477 0.0
H849 H 0.57511 0.75807 0.33013 0.0
H850 H 0.65368 0.78016 0.36702 0.0
H851 H 0.62486 0.72849 0.38197 0.0
H852 H 0.64664 0.83148 0.35956 0.0
H853 H 0.65306 0.75343 0.32235 0.0
H854 H 0.63128 0.70382 0.30561 0.0
H855 H 0.58049 0.73131 0.26762 0.0
H856 H 0.60169 0.78102 0.28428 0.0
H857 H 0.76133 0.95143 0.29883 0.0
H858 H 0.73387 0.90134 0.31578 0.0
H859 H 0.6509 0.87674 0.28261 0.0
H860 H 0.67802 0.92693 0.26586 0.0
H861 H 0.66187 0.82702 0.28857 0.0
H862 H 0.65369 0.90378 0.32518 0.0
H863 H 0.67405 0.95366 0.34145 0.0
H864 H 0.72633 0.92898 0.38016 0.0
H865 H 0.70668 0.87912 0.36388 0.0
C866 C 0.56944 0.72266 0.35026 0.0
C867 C 0.58337 0.71322 0.36454 0.0
C868 C 0.58594 0.75212 0.34173 0.0
C869 C 0.61697 0.77283 0.34704 0.0
C870 C 0.62988 0.76458 0.36254 0.0
C871 C 0.61323 0.73504 0.37122 0.0
C872 C 0.63666 0.80157 0.3352 0.0
C873 C 0.65033 0.83044 0.34411 0.0
C874 C 0.64114 0.80049 0.31489 0.0
C875 C 0.62876 0.77083 0.30467 0.0
C876 C 0.63711 0.74883 0.3105 0.0
C877 C 0.62488 0.7207 0.30102 0.0
C878 C 0.60444 0.71436 0.28561 0.0
C879 C 0.59629 0.73623 0.27958 0.0
C880 C 0.60844 0.76441 0.28901 0.0
C881 C 0.73761 0.93498 0.29466 0.0
C882 C 0.72195 0.94319 0.28089 0.0
C883 C 0.72178 0.90646 0.30455 0.0
C884 C 0.69011 0.8854 0.30071 0.0
C885 C 0.67525 0.89259 0.28591 0.0
C886 C 0.69088 0.92126 0.27624 0.0
C887 C 0.67181 0.85687 0.31291 0.0
C888 C 0.65836 0.82805 0.30405 0.0
C889 C 0.6674 0.85806 0.3332 0.0
C890 C 0.67901 0.88786 0.34316 0.0
C891 C 0.66975 0.90909 0.33705 0.0
C892 C 0.68112 0.93735 0.34629 0.0
C893 C 0.70154 0.94452 0.36179 0.0
C894 C 0.71055 0.92341 0.36812 0.0
C895 C 0.6993 0.89514 0.3589 0.0
H896 H 0.71032 0.9664 0.36893 0.0
H897 H 0.59498 0.69255 0.27831 0.0
H898 H 0.06752 0.74674 0.2828 0.0
H899 H 0.11886 0.76992 0.29835 0.0
H900 H 0.11179 0.85071 0.31104 0.0
H901 H 0.06062 0.82757 0.29553 0.0
H902 H 0.17166 0.86724 0.30508 0.0
H903 H 0.08708 0.79276 0.34392 0.0
H904 H 0.04218 0.74357 0.35553 0.0
H905 H 0.09919 0.70034 0.35181 0.0
H906 H 0.14435 0.74919 0.33989 0.0
H907 H 0.27478 0.9177 0.38479 0.0
H908 H 0.22374 0.89512 0.36875 0.0
H909 H 0.2367 0.82056 0.3486 0.0
H910 H 0.28769 0.84324 0.36437 0.0
H911 H 0.17372 0.80189 0.35896 0.0
H912 H 0.26028 0.8829 0.32125 0.0
H913 H 0.30386 0.93604 0.31597 0.0
H914 H 0.23927 0.97045 0.32209 0.0
H915 H 0.19547 0.91762 0.32797 0.0
C916 C 0.07778 0.77017 0.28788 0.0
C917 C 0.06023 0.78554 0.28765 0.0
C918 C 0.10683 0.78315 0.2972 0.0
C919 C 0.11891 0.81178 0.30637 0.0
C920 C 0.10302 0.82856 0.30423 0.0
C921 C 0.07391 0.8155 0.29508 0.0
C922 C 0.14629 0.823 0.3196 0.0
C923 C 0.17195 0.85295 0.31691 0.0
C924 C 0.1468 0.80462 0.33524 0.0
C925 C 0.11903 0.77459 0.34083 0.0
C926 C 0.08992 0.77266 0.34528 0.0
C927 C 0.06449 0.7449 0.35206 0.0
C928 C 0.06796 0.71897 0.35462 0.0
C929 C 0.09664 0.72054 0.34998 0.0
C930 C 0.12214 0.74823 0.34317 0.0
C931 C 0.266 0.89573 0.37774 0.0
C932 C 0.28499 0.88197 0.37607 0.0
C933 C 0.23708 0.8831 0.36829 0.0
C934 C 0.22665 0.85642 0.35715 0.0
C935 C 0.24427 0.84119 0.35702 0.0
C936 C 0.27329 0.854 0.36621 0.0
C937 C 0.19908 0.84576 0.34423 0.0
C938 C 0.17343 0.81599 0.347 0.0
C939 C 0.19825 0.86457 0.329 0.0
C940 C 0.22462 0.8963 0.32524 0.0
C941 C 0.25541 0.90182 0.32166 0.0
C942 C 0.28017 0.9319 0.31857 0.0
C943 C 0.27435 0.95661 0.31874 0.0
C944 C 0.24378 0.95131 0.32201 0.0
C945 C 0.21899 0.92131 0.32525 0.0
H946 H 0.29349 0.97985 0.31625 0.0
H947 H 0.04831 0.69757 0.36002 0.0
H948 H 0.91242 0.63769 0.61272 0.0
H949 H 0.89065 0.6683 0.62668 0.0
H950 H 0.80932 0.58511 0.64773 0.0
H951 H 0.83108 0.55456 0.63393 0.0
H952 H 0.83217 0.67147 0.62953 0.0
H953 H 0.80544 0.59338 0.69607 0.0
H954 H 0.81977 0.55591 0.70915 0.0
H955 H 0.91114 0.60633 0.68175 0.0
H956 H 0.89747 0.6442 0.66859 0.0
H957 H 0.75891 0.69212 0.72221 0.0
H958 H 0.77965 0.66179 0.70651 0.0
H959 H 0.85505 0.74473 0.68036 0.0
H960 H 0.83405 0.77492 0.69568 0.0
H961 H 0.83394 0.65763 0.70086 0.0
H962 H 0.85647 0.73357 0.63206 0.0
H963 H 0.83912 0.76869 0.61886 0.0
H964 H 0.75172 0.71957 0.65095 0.0
H965 H 0.76824 0.6838 0.66399 0.0
C966 C 0.88894 0.62582 0.61917 0.0
C967 C 0.87343 0.59371 0.62221 0.0
C968 C 0.8767 0.6434 0.62742 0.0
C969 C 0.84878 0.62902 0.6387 0.0
C970 C 0.83112 0.59671 0.63931 0.0
C971 C 0.84336 0.57921 0.63115 0.0
C972 C 0.84097 0.64731 0.65237 0.0
C973 C 0.8329 0.66871 0.6451 0.0
C974 C 0.84126 0.64326 0.67274 0.0
C975 C 0.85031 0.62145 0.68124 0.0
C976 C 0.82866 0.59656 0.69294 0.0
C977 C 0.83665 0.57522 0.70031 0.0
C978 C 0.86631 0.57867 0.69618 0.0
C979 C 0.88814 0.60361 0.68481 0.0
C980 C 0.88027 0.625 0.67738 0.0
C981 C 0.78089 0.70407 0.714 0.0
C982 C 0.79487 0.7359 0.71017 0.0
C983 C 0.79254 0.68664 0.70483 0.0
C984 C 0.81836 0.70088 0.69178 0.0
C985 C 0.83472 0.73316 0.69004 0.0
C986 C 0.82296 0.75048 0.69903 0.0
C987 C 0.82545 0.6821 0.67804 0.0
C988 C 0.83329 0.66051 0.6853 0.0
C989 C 0.82454 0.6857 0.65765 0.0
C990 C 0.81378 0.70622 0.64914 0.0
C991 C 0.83345 0.73012 0.63616 0.0
C992 C 0.82376 0.75015 0.62873 0.0
C993 C 0.79438 0.74642 0.63411 0.0
C994 C 0.77449 0.72248 0.64682 0.0
C995 C 0.78401 0.70231 0.65422 0.0
H996 H 0.787 0.76205 0.62842 0.0
H997 H 0.87242 0.56206 0.70183 0.0
H998 H 0.35179 0.262 0.60526 0.0
H999 H 0.3298 0.21513 0.62521 0.0
H1000 H 0.41633 0.25167 0.65646 0.0
H1001 H 0.43857 0.29921 0.63665 0.0
H1002 H 0.38321 0.1835 0.64867 0.0
H1003 H 0.36534 0.26198 0.67626 0.0
H1004 H 0.34882 0.3013 0.67531 0.0
H1005 H 0.25509 0.23218 0.66092 0.0
H1006 H 0.27123 0.19253 0.66128 0.0
H1007 H 0.30151 0.06526 0.71926 0.0
H1008 H 0.33536 0.11861 0.7077 0.0
H1009 H 0.25671 0.11523 0.67795 0.0
H1010 H 0.22296 0.06273 0.68988 0.0
H1011 H 0.29264 0.17128 0.689 0.0
H1012 H 0.30976 0.09623 0.65537 0.0
H1013 H 0.32197 0.05397 0.65485 0.0
H1014 H 0.41291 0.11352 0.67835 0.0
H1015 H 0.40101 0.15618 0.67924 0.0
C1016 C 0.36663 0.25985 0.61596 0.0
C1017 C 0.39696 0.28461 0.61938 0.0
C1018 C 0.35388 0.233 0.62746 0.0
C1019 C 0.37117 0.23006 0.64258 0.0
C1020 C 0.40249 0.25347 0.64493 0.0
C1021 C 0.41525 0.28059 0.63349 0.0
C1022 C 0.35519 0.20404 0.65692 0.0
C1023 C 0.36385 0.18113 0.65779 0.0
C1024 C 0.32948 0.20057 0.6686 0.0
C1025 C 0.31959 0.22431 0.66864 0.0
C1026 C 0.34129 0.25519 0.67271 0.0
C1027 C 0.33199 0.27754 0.67229 0.0
C1028 C 0.30097 0.26921 0.66802 0.0
C1029 C 0.27914 0.23855 0.66419 0.0
C1030 C 0.28835 0.21614 0.6645 0.0
C1031 C 0.29117 0.07643 0.711 0.0
C1032 C 0.25953 0.05969 0.70547 0.0
C1033 C 0.31067 0.1068 0.70409 0.0
C1034 C 0.29891 0.12084 0.69142 0.0
C1035 C 0.2666 0.10509 0.68753 0.0
C1036 C 0.24721 0.07496 0.69444 0.0
C1037 C 0.32018 0.15027 0.68056 0.0
C1038 C 0.31244 0.17387 0.68024 0.0
C1039 C 0.34634 0.1541 0.66914 0.0
C1040 C 0.35435 0.12921 0.6676 0.0
C1041 C 0.33236 0.1003 0.66043 0.0
C1042 C 0.3392 0.07626 0.66011 0.0
C1043 C 0.36809 0.08096 0.66672 0.0
C1044 C 0.39046 0.10989 0.67334 0.0
C1045 C 0.3837 0.13402 0.67375 0.0
H1046 H 0.37307 0.06216 0.66678 0.0
H1047 H 0.29381 0.28647 0.66775 0.0
H1048 H 0.70728 0.15617 0.64437 0.0
H1049 H 0.75862 0.18012 0.65966 0.0
H1050 H 0.77506 0.10874 0.63741 0.0
H1051 H 0.72356 0.08479 0.62197 0.0
H1052 H 0.77847 0.11217 0.67693 0.0
H1053 H 0.82223 0.18335 0.62333 0.0
H1054 H 0.82572 0.22201 0.59949 0.0
H1055 H 0.83369 0.28257 0.6456 0.0
H1056 H 0.82979 0.24409 0.66975 0.0
H1057 H 0.93445 0.16924 0.70896 0.0
H1058 H 0.88283 0.14774 0.69458 0.0
H1059 H 0.87586 0.22646 0.71321 0.0
H1060 H 0.92839 0.2485 0.72721 0.0
H1061 H 0.86665 0.21989 0.67609 0.0
H1062 H 0.82356 0.14983 0.7298 0.0
H1063 H 0.81924 0.11133 0.75404 0.0
H1064 H 0.80861 0.04879 0.70862 0.0
H1065 H 0.81331 0.08708 0.68407 0.0
C1066 C 0.72258 0.14653 0.64186 0.0
C1067 C 0.71158 0.11885 0.63172 0.0
C1068 C 0.75185 0.16008 0.65078 0.0
C1069 C 0.77069 0.14613 0.64986 0.0
C1070 C 0.76092 0.11991 0.63837 0.0
C1071 C 0.73172 0.10652 0.62923 0.0
C1072 C 0.79829 0.15663 0.66278 0.0
C1073 C 0.79806 0.1356 0.67653 0.0
C1074 C 0.82316 0.18753 0.66286 0.0
C1075 C 0.82539 0.21068 0.64837 0.0
C1076 C 0.82442 0.20479 0.62841 0.0
C1077 C 0.82654 0.2267 0.61483 0.0
C1078 C 0.82984 0.25469 0.62103 0.0
C1079 C 0.83109 0.26086 0.64082 0.0
C1080 C 0.82896 0.23901 0.65446 0.0
C1081 C 0.92123 0.1812 0.71091 0.0
C1082 C 0.93534 0.21037 0.71947 0.0
C1083 C 0.89165 0.16896 0.70252 0.0
C1084 C 0.87523 0.18542 0.70267 0.0
C1085 C 0.88803 0.21329 0.71281 0.0
C1086 C 0.9178 0.22562 0.7212 0.0
C1087 C 0.84702 0.17536 0.69026 0.0
C1088 C 0.84707 0.19646 0.67659 0.0
C1089 C 0.82182 0.14455 0.69034 0.0
C1090 C 0.81905 0.12146 0.70507 0.0
C1091 C 0.82056 0.12797 0.72496 0.0
C1092 C 0.818 0.10616 0.73876 0.0
C1093 C 0.81373 0.07766 0.73287 0.0
C1094 C 0.81195 0.07089 0.71316 0.0
C1095 C 0.81452 0.09262 0.6993 0.0
H1096 H 0.81174 0.0608 0.74358 0.0
H1097 H 0.83149 0.27164 0.6105 0.0
H1098 H 0.35038 0.07299 0.12092 0.0
H1099 H 0.33127 0.0936 0.14656 0.0
H1100 H 0.40683 0.18532 0.13309 0.0
H1101 H 0.42619 0.1649 0.10755 0.0
H1102 H 0.39301 0.17732 0.17211 0.0
H1103 H 0.33733 0.15832 0.1126 0.0
H1104 H 0.30646 0.1265 0.08543 0.0
H1105 H 0.23135 0.06795 0.12497 0.0
H1106 H 0.26228 0.09875 0.1525 0.0
H1107 H 0.32693 0.26205 0.2125 0.0
H1108 H 0.34604 0.24134 0.18693 0.0
H1109 H 0.27071 0.14963 0.20068 0.0
H1110 H 0.25137 0.17014 0.22618 0.0
H1111 H 0.2844 0.15763 0.16151 0.0
H1112 H 0.34028 0.17658 0.22104 0.0
H1113 H 0.37126 0.20848 0.24817 0.0
H1114 H 0.44601 0.26724 0.20849 0.0
H1115 H 0.41499 0.23637 0.18101 0.0
C1116 C 0.36358 0.09741 0.12382 0.0
C1117 C 0.38972 0.1173 0.11203 0.0
C1118 C 0.35243 0.10923 0.13839 0.0
C1119 C 0.36715 0.14114 0.14147 0.0
C1120 C 0.3949 0.16066 0.13092 0.0
C1121 C 0.40601 0.1489 0.11632 0.0
C1122 C 0.35221 0.15446 0.1543 0.0
C1123 C 0.36939 0.17325 0.16967 0.0
C1124 C 0.32119 0.14892 0.15128 0.0
C1125 C 0.30232 0.13066 0.13467 0.0
C1126 C 0.31438 0.13847 0.11555 0.0
C1127 C 0.29688 0.12059 0.10008 0.0
C1128 C 0.26697 0.09523 0.10347 0.0
C1129 C 0.25455 0.08761 0.12236 0.0
C1130 C 0.2721 0.10521 0.13792 0.0
C1131 C 0.31378 0.2376 0.20969 0.0
C1132 C 0.28771 0.21776 0.22153 0.0
C1133 C 0.32494 0.22573 0.19515 0.0
C1134 C 0.31027 0.1938 0.19216 0.0
C1135 C 0.2826 0.17429 0.20278 0.0
C1136 C 0.2715 0.18612 0.21736 0.0
C1137 C 0.32519 0.18047 0.17933 0.0
C1138 C 0.30802 0.16169 0.16395 0.0
C1139 C 0.35623 0.18603 0.18234 0.0
C1140 C 0.37512 0.20435 0.19891 0.0
C1141 C 0.36318 0.19649 0.21805 0.0
C1142 C 0.38074 0.2144 0.2335 0.0
C1143 C 0.41058 0.23985 0.23006 0.0
C1144 C 0.42288 0.24752 0.21114 0.0
C1145 C 0.40527 0.22989 0.19561 0.0
H1146 H 0.4242 0.25359 0.24205 0.0
H1147 H 0.25339 0.08151 0.09145 0.0
H1148 H 0.82392 0.2582 0.10607 0.0
H1149 H 0.80431 0.21834 0.13137 0.0
H1150 H 0.89896 0.23694 0.14141 0.0
H1151 H 0.91873 0.27657 0.1157 0.0
H1152 H 0.8613 0.17683 0.13813 0.0
H1153 H 0.85697 0.25485 0.1753 0.0
H1154 H 0.84376 0.29541 0.18268 0.0
H1155 H 0.74527 0.22982 0.17863 0.0
H1156 H 0.75789 0.18893 0.17096 0.0
H1157 H 0.81412 0.08249 0.22642 0.0
H1158 H 0.83853 0.1201 0.19967 0.0
H1159 H 0.74723 0.10584 0.18401 0.0
H1160 H 0.72301 0.0687 0.21078 0.0
H1161 H 0.78638 0.16502 0.19114 0.0
H1162 H 0.79166 0.08716 0.15325 0.0
H1163 H 0.80571 0.047 0.14649 0.0
H1164 H 0.90361 0.11291 0.15299 0.0
H1165 H 0.89011 0.1534 0.16005 0.0
C1166 C 0.84076 0.25451 0.114 0.0
C1167 C 0.87299 0.27083 0.10882 0.0
C1168 C 0.82945 0.23152 0.1285 0.0
C1169 C 0.85007 0.22443 0.13842 0.0
C1170 C 0.88248 0.24176 0.13396 0.0
C1171 C 0.89383 0.26476 0.11939 0.0
C1172 C 0.83748 0.19788 0.15258 0.0
C1173 C 0.84533 0.17454 0.14993 0.0
C1174 C 0.81611 0.19434 0.16779 0.0
C1175 C 0.80841 0.21888 0.17238 0.0
C1176 C 0.8325 0.24912 0.17583 0.0
C1177 C 0.82512 0.27216 0.18009 0.0
C1178 C 0.7937 0.26521 0.18108 0.0
C1179 C 0.7696 0.23518 0.17784 0.0
C1180 C 0.77685 0.21205 0.17356 0.0
C1181 C 0.79911 0.08614 0.21661 0.0
C1182 C 0.76658 0.07235 0.22059 0.0
C1183 C 0.81314 0.10799 0.20143 0.0
C1184 C 0.79481 0.11621 0.18989 0.0
C1185 C 0.76198 0.10021 0.19277 0.0
C1186 C 0.74805 0.07859 0.20792 0.0
C1187 C 0.80974 0.14372 0.1765 0.0
C1188 C 0.8024 0.16733 0.17937 0.0
C1189 C 0.83168 0.14753 0.16161 0.0
C1190 C 0.83984 0.12322 0.15739 0.0
C1191 C 0.81616 0.09303 0.15341 0.0
C1192 C 0.82403 0.07022 0.14949 0.0
C1193 C 0.85552 0.07737 0.14937 0.0
C1194 C 0.87922 0.10738 0.15312 0.0
C1195 C 0.87148 0.13028 0.15706 0.0
H1196 H 0.86157 0.05968 0.14632 0.0
H1197 H 0.78803 0.28308 0.18439 0.0
H1198 H 0.94486 0.67963 0.21169 0.0
H1199 H 0.90346 0.65978 0.18759 0.0
H1200 H 0.87633 0.72626 0.20493 0.0
H1201 H 0.91755 0.74611 0.22914 0.0
H1202 H 0.82599 0.66976 0.2048 0.0
H1203 H 0.91046 0.7307 0.16022 0.0
H1204 H 0.96221 0.75 0.14393 0.0
H1205 H 0.93439 0.65896 0.12406 0.0
H1206 H 0.88261 0.639 0.14048 0.0
H1207 H 0.71752 0.64078 0.12782 0.0
H1208 H 0.75838 0.66091 0.15227 0.0
H1209 H 0.78725 0.59561 0.13515 0.0
H1210 H 0.74667 0.57557 0.11058 0.0
H1211 H 0.83674 0.65213 0.13517 0.0
H1212 H 0.75217 0.59121 0.17995 0.0
H1213 H 0.70042 0.57216 0.19619 0.0
H1214 H 0.72837 0.66346 0.21559 0.0
H1215 H 0.78016 0.68316 0.19922 0.0
C1216 C 0.93074 0.69069 0.21001 0.0
C1217 C 0.93472 0.71458 0.2224 0.0
C1218 C 0.9069 0.67919 0.19622 0.0
C1219 C 0.88649 0.69134 0.19443 0.0
C1220 C 0.89154 0.7163 0.20606 0.0
C1221 C 0.91544 0.72789 0.21979 0.0
C1222 C 0.8587 0.67672 0.18144 0.0
C1223 C 0.82843 0.66636 0.1895 0.0
C1224 C 0.86157 0.67142 0.16156 0.0
C1225 C 0.89276 0.6833 0.15177 0.0
C1226 C 0.91548 0.71473 0.15254 0.0
C1227 C 0.9448 0.7258 0.14324 0.0
C1228 C 0.95162 0.7057 0.13301 0.0
C1229 C 0.9291 0.67449 0.13202 0.0
C1230 C 0.89975 0.66329 0.14131 0.0
C1231 C 0.73186 0.62999 0.12966 0.0
C1232 C 0.72868 0.60649 0.11716 0.0
C1233 C 0.75541 0.64166 0.14364 0.0
C1234 C 0.77622 0.63 0.14556 0.0
C1235 C 0.77176 0.60524 0.13391 0.0
C1236 C 0.74823 0.59355 0.11996 0.0
C1237 C 0.80399 0.64503 0.15854 0.0
C1238 C 0.83428 0.65551 0.15047 0.0
C1239 C 0.80112 0.65046 0.1784 0.0
C1240 C 0.76994 0.63871 0.18818 0.0
C1241 C 0.74719 0.60728 0.18752 0.0
C1242 C 0.71786 0.59636 0.19678 0.0
C1243 C 0.71108 0.61661 0.20687 0.0
C1244 C 0.73364 0.64782 0.20774 0.0
C1245 C 0.76299 0.65887 0.19849 0.0
H1246 H 0.68837 0.6081 0.21404 0.0
H1247 H 0.97432 0.71432 0.12581 0.0
H1248 H 0.66248 0.92881 0.88125 0.0
H1249 H 0.68134 0.90798 0.85559 0.0
H1250 H 0.6039 0.81683 0.86811 0.0
H1251 H 0.58505 0.83741 0.89376 0.0
H1252 H 0.65836 0.81693 0.86906 0.0
H1253 H 0.60996 0.85452 0.8248 0.0
H1254 H 0.59844 0.89216 0.80896 0.0
H1255 H 0.69591 0.94806 0.79236 0.0
H1256 H 0.70811 0.91098 0.80835 0.0
H1257 H 0.68292 0.73901 0.78943 0.0
H1258 H 0.66471 0.76067 0.81488 0.0
H1259 H 0.7414 0.85156 0.80073 0.0
H1260 H 0.75946 0.83012 0.77513 0.0
H1261 H 0.68781 0.85201 0.80069 0.0
H1262 H 0.7362 0.81422 0.84466 0.0
H1263 H 0.74767 0.77636 0.86023 0.0
H1264 H 0.6504 0.72093 0.8774 0.0
H1265 H 0.63824 0.75821 0.86166 0.0
C1266 C 0.64886 0.9045 0.87812 0.0
C1267 C 0.62227 0.88481 0.88966 0.0
C1268 C 0.65976 0.89255 0.86346 0.0
C1269 C 0.64422 0.86072 0.85996 0.0
C1270 C 0.61649 0.84141 0.87059 0.0
C1271 C 0.60557 0.8533 0.88519 0.0
C1272 C 0.65829 0.84714 0.84661 0.0
C1273 C 0.66434 0.82429 0.85401 0.0
C1274 C 0.66712 0.85736 0.82714 0.0
C1275 C 0.66 0.88014 0.81799 0.0
C1276 C 0.62901 0.87503 0.81798 0.0
C1277 C 0.62234 0.89622 0.80892 0.0
C1278 C 0.64644 0.92254 0.79971 0.0
C1279 C 0.67728 0.92773 0.79956 0.0
C1280 C 0.68408 0.90663 0.80862 0.0
C1281 C 0.69654 0.76347 0.79214 0.0
C1282 C 0.72265 0.78279 0.78016 0.0
C1283 C 0.68601 0.77589 0.8067 0.0
C1284 C 0.70152 0.80786 0.80972 0.0
C1285 C 0.72883 0.82688 0.79863 0.0
C1286 C 0.73932 0.8145 0.78408 0.0
C1287 C 0.68785 0.82177 0.82313 0.0
C1288 C 0.68187 0.84468 0.81575 0.0
C1289 C 0.67912 0.81164 0.84262 0.0
C1290 C 0.68626 0.78887 0.85178 0.0
C1291 C 0.71719 0.79379 0.85156 0.0
C1292 C 0.72383 0.77246 0.86046 0.0
C1293 C 0.69976 0.7462 0.86974 0.0
C1294 C 0.669 0.74122 0.87014 0.0
C1295 C 0.66223 0.76245 0.86124 0.0
H1296 H 0.70497 0.72976 0.87666 0.0
H1297 H 0.64121 0.93887 0.79266 0.0
H1298 H 0.06516 0.73411 0.87148 0.0
H1299 H 0.09298 0.77237 0.84577 0.0
H1300 H 0.18187 0.79135 0.86934 0.0
H1301 H 0.15387 0.75299 0.8954 0.0
H1302 H 0.13171 0.83409 0.85734 0.0
H1303 H 0.23662 0.82397 0.82817 0.0
H1304 H 0.25142 0.78413 0.82203 0.0
H1305 H 0.15437 0.71701 0.81379 0.0
H1306 H 0.13906 0.75652 0.81961 0.0
H1307 H 0.26075 0.94372 0.77879 0.0
H1308 H 0.24343 0.90533 0.80524 0.0
H1309 H 0.14787 0.88625 0.79848 0.0
H1310 H 0.16512 0.92512 0.77279 0.0
H1311 H 0.20725 0.84611 0.80466 0.0
H1312 H 0.10341 0.85802 0.83798 0.0
H1313 H 0.09093 0.89901 0.84563 0.0
H1314 H 0.18955 0.96494 0.84815 0.0
H1315 H 0.20263 0.92429 0.84078 0.0
C1316 C 0.09063 0.74534 0.87069 0.0
C1317 C 0.10729 0.74033 0.88542 0.0
C1318 C 0.10654 0.76754 0.8561 0.0
C1319 C 0.13952 0.78512 0.85575 0.0
C1320 C 0.1564 0.77805 0.86928 0.0
C1321 C 0.14038 0.75578 0.88403 0.0
C1322 C 0.15546 0.81309 0.84289 0.0
C1323 C 0.148 0.83659 0.84568 0.0
C1324 C 0.17781 0.81706 0.82827 0.0
C1325 C 0.18669 0.79313 0.82458 0.0
C1326 C 0.21846 0.80072 0.82501 0.0
C1327 C 0.22693 0.77819 0.82158 0.0
C1328 C 0.20384 0.74803 0.8176 0.0
C1329 C 0.17222 0.74035 0.81697 0.0
C1330 C 0.16363 0.76278 0.82038 0.0
C1331 C 0.23623 0.93207 0.78339 0.0
C1332 C 0.21443 0.93782 0.7737 0.0
C1333 C 0.22625 0.90979 0.79839 0.0
C1334 C 0.19427 0.89276 0.80406 0.0
C1335 C 0.17275 0.89934 0.79482 0.0
C1336 C 0.18272 0.92174 0.78003 0.0
C1337 C 0.18285 0.86694 0.81874 0.0
C1338 C 0.1912 0.84387 0.8164 0.0
C1339 C 0.16164 0.86354 0.83406 0.0
C1340 C 0.15398 0.88812 0.83866 0.0
C1341 C 0.12244 0.88123 0.84025 0.0
C1342 C 0.11526 0.90442 0.84452 0.0
C1343 C 0.13943 0.93457 0.84732 0.0
C1344 C 0.17084 0.94159 0.84591 0.0
C1345 C 0.17815 0.9185 0.84166 0.0
H1346 H 0.13382 0.95249 0.85061 0.0
H1347 H 0.21044 0.73063 0.81495 0.0
H1348 H 0.27486 0.34987 0.88132 0.0
H1349 H 0.23429 0.33013 0.85668 0.0
H1350 H 0.2092 0.39902 0.87157 0.0
H1351 H 0.24955 0.41874 0.89628 0.0
H1352 H 0.15819 0.34335 0.87229 0.0
H1353 H 0.24355 0.40022 0.82743 0.0
H1354 H 0.29504 0.41734 0.8113 0.0
H1355 H 0.26446 0.32478 0.79341 0.0
H1356 H 0.21291 0.307 0.80968 0.0
H1357 H 0.052 0.31572 0.79439 0.0
H1358 H 0.09298 0.3356 0.81876 0.0
H1359 H 0.1167 0.26561 0.80434 0.0
H1360 H 0.07588 0.24568 0.77989 0.0
H1361 H 0.16836 0.32166 0.80336 0.0
H1362 H 0.08266 0.26507 0.84825 0.0
H1363 H 0.03113 0.2485 0.86416 0.0
H1364 H 0.06246 0.34131 0.88183 0.0
H1365 H 0.11406 0.35854 0.86577 0.0
C1366 C 0.26143 0.36149 0.87895 0.0
C1367 C 0.26557 0.38594 0.89086 0.0
C1368 C 0.23805 0.35005 0.86486 0.0
C1369 C 0.21837 0.36287 0.86228 0.0
C1370 C 0.22383 0.38851 0.87333 0.0
C1371 C 0.24721 0.39999 0.88737 0.0
C1372 C 0.19066 0.34817 0.84926 0.0
C1373 C 0.16053 0.33907 0.85713 0.0
C1374 C 0.19338 0.34168 0.8296 0.0
C1375 C 0.22447 0.35222 0.81997 0.0
C1376 C 0.24791 0.38345 0.82023 0.0
C1377 C 0.27709 0.39329 0.81102 0.0
C1378 C 0.28305 0.37214 0.80138 0.0
C1379 C 0.25983 0.34112 0.80091 0.0
C1380 C 0.23061 0.33115 0.81011 0.0
C1381 C 0.06525 0.30393 0.79679 0.0
C1382 C 0.0605 0.27902 0.78512 0.0
C1383 C 0.08885 0.31544 0.81072 0.0
C1384 C 0.10821 0.30228 0.81338 0.0
C1385 C 0.1023 0.27633 0.80252 0.0
C1386 C 0.07863 0.26473 0.78865 0.0
C1387 C 0.13593 0.31686 0.82639 0.0
C1388 C 0.16604 0.32594 0.81852 0.0
C1389 C 0.13321 0.32341 0.84604 0.0
C1390 C 0.10213 0.31315 0.85561 0.0
C1391 C 0.07847 0.28201 0.85536 0.0
C1392 C 0.04926 0.27248 0.86445 0.0
C1393 C 0.04349 0.29385 0.87395 0.0
C1394 C 0.06695 0.32479 0.87443 0.0
C1395 C 0.09619 0.33444 0.86535 0.0
H1396 H 0.02087 0.28642 0.88099 0.0
H1397 H 0.30564 0.37981 0.79424 0.0
H1398 H 0.0014 0.39369 0.45512 0.0
H1399 H 0.98256 0.41342 0.48147 0.0
H1400 H 0.0673 0.50165 0.47609 0.0
H1401 H 0.08636 0.48206 0.4499 0.0
H1402 H 0.04817 0.48829 0.51368 0.0
H1403 H 0.00206 0.48777 0.4529 0.0
H1404 H 0.97284 0.46447 0.42318 0.0
H1405 H 0.89017 0.40531 0.4574 0.0
H1406 H 0.91924 0.42745 0.48739 0.0
H1407 H 0.99498 0.58394 0.55484 0.0
H1408 H 0.01209 0.56087 0.52963 0.0
H1409 H 0.93008 0.47243 0.54141 0.0
H1410 H 0.91295 0.49525 0.56683 0.0
H1411 H 0.94677 0.48485 0.50098 0.0
H1412 H 0.99425 0.48563 0.56181 0.0
H1413 H 0.02421 0.50984 0.59117 0.0
H1414 H 0.10475 0.57088 0.55591 0.0
H1415 H 0.07507 0.54732 0.52631 0.0
C1416 C 0.01651 0.41698 0.45995 0.0
C1417 C 0.04536 0.43631 0.45029 0.0
C1418 C 0.00552 0.42836 0.4749 0.0
C1419 C 0.02315 0.45929 0.4805 0.0
C1420 C 0.05312 0.47781 0.47198 0.0
C1421 C 0.06405 0.4665 0.457 0.0
C1422 C 0.00957 0.47305 0.49408 0.0
C1423 C 0.02613 0.48771 0.51078 0.0
C1424 C 0.98061 0.47217 0.49047 0.0
C1425 C 0.96297 0.45902 0.47243 0.0
C1426 C 0.97775 0.46956 0.45412 0.0
C1427 C 0.96122 0.45656 0.43722 0.0
C1428 C 0.92967 0.43345 0.4384 0.0
C1429 C 0.91463 0.4232 0.4565 0.0
C1430 C 0.93115 0.43589 0.47347 0.0
C1431 C 0.98011 0.55974 0.55175 0.0
C1432 C 0.95259 0.54145 0.56292 0.0
C1433 C 0.99008 0.54653 0.53741 0.0
C1434 C 0.97262 0.5148 0.5338 0.0
C1435 C 0.944 0.49692 0.54396 0.0
C1436 C 0.9342 0.51004 0.55848 0.0
C1437 C 0.98538 0.49997 0.52052 0.0
C1438 C 0.96871 0.48522 0.50387 0.0
C1439 C 0.01433 0.50094 0.52408 0.0
C1440 C 0.03234 0.51492 0.54185 0.0
C1441 C 0.01827 0.50438 0.56031 0.0
C1442 C 0.03521 0.51796 0.577 0.0
C1443 C 0.06634 0.54194 0.5754 0.0
C1444 C 0.08062 0.55233 0.55712 0.0
C1445 C 0.06376 0.53886 0.54038 0.0
H1446 H 0.07942 0.55243 0.58834 0.0
H1447 H 0.91686 0.42354 0.42529 0.0
H1448 H 0.49909 0.59112 0.4392 0.0
H1449 H 0.48182 0.55401 0.46592 0.0
H1450 H 0.57852 0.58313 0.47899 0.0
H1451 H 0.59603 0.61981 0.45158 0.0
H1452 H 0.5478 0.52353 0.47836 0.0
H1453 H 0.52815 0.59608 0.51046 0.0
H1454 H 0.50862 0.63267 0.51506 0.0
H1455 H 0.41362 0.55965 0.50802 0.0
H1456 H 0.4326 0.52267 0.50311 0.0
H1457 H 0.48804 0.42713 0.56718 0.0
H1458 H 0.51699 0.46699 0.54207 0.0
H1459 H 0.42965 0.44214 0.51387 0.0
H1460 H 0.40096 0.40256 0.53873 0.0
H1461 H 0.4617 0.5032 0.52534 0.0
H1462 H 0.48442 0.43168 0.49137 0.0
H1463 H 0.50586 0.39637 0.48831 0.0
H1464 H 0.59805 0.46996 0.50158 0.0
H1465 H 0.57706 0.50563 0.50497 0.0
C1466 C 0.51683 0.59039 0.44806 0.0
C1467 C 0.54902 0.60863 0.44317 0.0
C1468 C 0.50686 0.569 0.46345 0.0
C1469 C 0.52877 0.5656 0.47468 0.0
C1470 C 0.56105 0.5851 0.47057 0.0
C1471 C 0.57108 0.60642 0.45501 0.0
C1472 C 0.51765 0.54018 0.48961 0.0
C1473 C 0.5294 0.5195 0.48889 0.0
C1474 C 0.49342 0.53447 0.50334 0.0
C1475 C 0.48185 0.55663 0.50628 0.0
C1476 C 0.50311 0.58785 0.50976 0.0
C1477 C 0.49213 0.60866 0.51244 0.0
C1478 C 0.45991 0.5985 0.5118 0.0
C1479 C 0.43858 0.56749 0.5085 0.0
C1480 C 0.44943 0.54658 0.5058 0.0
C1481 C 0.47531 0.42905 0.55502 0.0
C1482 C 0.44225 0.41145 0.55481 0.0
C1483 C 0.49181 0.45216 0.54081 0.0
C1484 C 0.47544 0.4579 0.52621 0.0
C1485 C 0.4428 0.43836 0.52504 0.0
C1486 C 0.42643 0.4154 0.53914 0.0
C1487 C 0.49117 0.48622 0.51362 0.0
C1488 C 0.48032 0.50749 0.51491 0.0
C1489 C 0.5165 0.49266 0.5007 0.0
C1490 C 0.52909 0.47123 0.49865 0.0
C1491 C 0.5092 0.44026 0.49382 0.0
C1492 C 0.52129 0.4202 0.49198 0.0
C1493 C 0.55328 0.43089 0.49481 0.0
C1494 C 0.57327 0.4617 0.49942 0.0
C1495 C 0.56129 0.48185 0.50129 0.0
H1496 H 0.56259 0.41533 0.49337 0.0
H1497 H 0.45146 0.61465 0.51388 0.0
H1498 H 0.57486 0.08122 0.56993 0.0
H1499 H 0.53436 0.06274 0.54536 0.0
H1500 H 0.56575 0.00132 0.52413 0.0
H1501 H 0.60625 0.01941 0.54894 0.0
H1502 H 0.54867 0.02979 0.49444 0.0
H1503 H 0.50638 0.9741 0.55482 0.0
H1504 H 0.49427 0.96919 0.58994 0.0
H1505 H 0.43929 0.01386 0.58238 0.0
H1506 H 0.45154 0.01957 0.54722 0.0
H1507 H 0.41645 0.91899 0.44566 0.0
H1508 H 0.45533 0.94055 0.47108 0.0
H1509 H 0.41976 0.00091 0.48738 0.0
H1510 H 0.38107 0.97998 0.46148 0.0
H1511 H 0.43842 0.97594 0.51977 0.0
H1512 H 0.47618 0.02728 0.45903 0.0
H1513 H 0.48995 0.03494 0.42419 0.0
H1514 H 0.55676 0.00394 0.43256 0.0
H1515 H 0.54167 0.99382 0.46708 0.0
C1516 C 0.57383 0.06438 0.55974 0.0
C1517 C 0.59389 0.05175 0.56152 0.0
C1518 C 0.55036 0.05361 0.54578 0.0
C1519 C 0.54654 0.03017 0.53315 0.0
C1520 C 0.56809 0.01926 0.53383 0.0
C1521 C 0.59142 0.02979 0.54795 0.0
C1522 C 0.51906 0.01585 0.52004 0.0
C1523 C 0.52457 0.01761 0.49995 0.0
C1524 C 0.48755 0.00093 0.52726 0.0
C1525 C 0.48012 0.99751 0.5484 0.0
C1526 C 0.49195 0.98315 0.56066 0.0
C1527 C 0.48503 0.98018 0.58056 0.0
C1528 C 0.46601 0.99118 0.58836 0.0
C1529 C 0.45399 0.00532 0.57629 0.0
C1530 C 0.46092 0.00843 0.55638 0.0
C1531 C 0.41614 0.93622 0.45495 0.0
C1532 C 0.39559 0.94782 0.45137 0.0
C1533 C 0.43865 0.9487 0.46944 0.0
C1534 C 0.44088 0.97274 0.48093 0.0
C1535 C 0.41859 0.98249 0.47862 0.0
C1536 C 0.39634 0.97035 0.46386 0.0
C1537 C 0.46805 0.9892 0.49409 0.0
C1538 C 0.46249 0.98801 0.5142 0.0
C1539 C 0.49958 0.00485 0.48685 0.0
C1540 C 0.50729 0.0092 0.46571 0.0
C1541 C 0.49309 0.02116 0.45337 0.0
C1542 C 0.50112 0.02593 0.43361 0.0
C1543 C 0.52396 0.01961 0.42607 0.0
C1544 C 0.53866 0.00834 0.43827 0.0
C1545 C 0.5302 0.00285 0.45793 0.0
H1546 H 0.53047 0.02374 0.41083 0.0
H1547 H 0.46043 0.98858 0.60372 0.0
H1548 H 0.35475 0.02211 0.99195 0.0
H1549 H 0.31599 0.97059 0.98182 0.0
H1550 H 0.27558 0.94898 0.0397 0.0
H1551 H 0.31426 0.00065 0.05006 0.0
H1552 H 0.30004 0.91137 0.99375 0.0
H1553 H 0.19501 0.90867 0.03409 0.0
H1554 H 0.1792 0.94477 0.04757 0.0
H1555 H 0.23835 0.01363 0.00532 0.0
H1556 H 0.25411 0.9778 0.99144 0.0
H1557 H 0.15986 0.76556 0.9773 0.0
H1558 H 0.20322 0.81024 0.99265 0.0
H1559 H 0.18121 0.87086 0.95988 0.0
H1560 H 0.13778 0.82669 0.94489 0.0
H1561 H 0.18827 0.88612 0.99658 0.0
H1562 H 0.24495 0.86115 0.9483 0.0
H1563 H 0.26138 0.82721 0.93232 0.0
H1564 H 0.29989 0.81716 0.98567 0.0
H1565 H 0.28331 0.85075 1.00202 0.0
C1566 C 0.33775 0.00643 0.0026 0.0
C1567 C 0.33741 0.01567 0.02178 0.0
C1568 C 0.3158 0.97688 0.9968 0.0
C1569 C 0.29293 0.9561 0.01 0.0
C1570 C 0.29303 0.96482 0.0293 0.0
C1571 C 0.3151 0.99436 0.03516 0.0
C1572 C 0.26756 0.92633 0.00305 0.0
C1573 C 0.27554 0.90563 0.9945 0.0
C1574 C 0.23572 0.91911 0.0039 0.0
C1575 C 0.22603 0.94069 0.01192 0.0
C1576 C 0.20456 0.93149 0.02766 0.0
C1577 C 0.19561 0.9519 0.03536 0.0
C1578 C 0.20786 0.98152 0.02735 0.0
C1579 C 0.22897 0.99074 0.01156 0.0
C1580 C 0.23794 0.97039 0.00379 0.0
C1581 C 0.1645 0.78845 0.97325 0.0
C1582 C 0.14529 0.79258 0.95995 0.0
C1583 C 0.18925 0.81392 0.98203 0.0
C1584 C 0.19538 0.84386 0.97741 0.0
C1585 C 0.1767 0.84796 0.96379 0.0
C1586 C 0.15192 0.82264 0.95519 0.0
C1587 C 0.22068 0.8712 0.98694 0.0
C1588 C 0.21267 0.89146 0.99608 0.0
C1589 C 0.2525 0.87821 0.98628 0.0
C1590 C 0.26259 0.85817 0.97643 0.0
C1591 C 0.25671 0.85151 0.95665 0.0
C1592 C 0.26609 0.83237 0.94752 0.0
C1593 C 0.28159 0.81996 0.95799 0.0
C1594 C 0.28783 0.82674 0.97759 0.0
C1595 C 0.27847 0.84584 0.98679 0.0
H1596 H 0.28882 0.80514 0.9509 0.0
H1597 H 0.20094 0.9973 0.03335 0.0
H1598 H 0.98789 0.31737 0.04352 0.0
H1599 H 0.03919 0.3264 0.03236 0.0
H1600 H 0.01039 0.31976 0.97295 0.0
H1601 H 0.95875 0.31105 0.98396 0.0
H1602 H 0.05483 0.2906 0.01228 0.0
H1603 H 0.07696 0.3694 0.94554 0.0
H1604 H 0.06161 0.40661 0.93337 0.0
H1605 H 0.04759 0.42708 0.99181 0.0
H1606 H 0.06328 0.39036 0.00431 0.0
H1607 H 0.19547 0.31341 0.96561 0.0
H1608 H 0.14208 0.30061 0.97478 0.0
H1609 H 0.17423 0.39682 0.98511 0.0
H1610 H 0.2264 0.40977 0.9727 0.0
H1611 H 0.12526 0.37816 0.9688 0.0
H1612 H 0.13924 0.32892 0.02896 0.0
H1613 H 0.15364 0.29428 0.04643 0.0
H1614 H 0.0968 0.2209 0.00808 0.0
H1615 H 0.08188 0.2551 0.99072 0.0
C1616 C 0.9923 0.31779 0.02806 0.0
C1617 C 0.96916 0.31351 0.01463 0.0
C1618 C 0.02167 0.32289 0.02172 0.0
C1619 C 0.02856 0.32384 1.00186 0.0
C1620 C 0.00557 0.31941 0.98835 0.0
C1621 C 0.97609 0.31438 0.99468 0.0
C1622 C 0.05995 0.32941 0.99553 0.0
C1623 C 0.0703 0.30975 0.00276 0.0
C1624 C 0.08003 0.35442 0.98319 0.0
C1625 C 0.07091 0.37684 0.97583 0.0
C1626 C 0.07067 0.38191 0.95578 0.0
C1627 C 0.06192 0.40291 0.94883 0.0
C1628 C 0.05351 0.41911 0.9618 0.0
C1629 C 0.05398 0.41443 0.98177 0.0
C1630 C 0.06276 0.3935 0.98879 0.0
C1631 C 0.1911 0.3317 0.97017 0.0
C1632 C 0.21538 0.36249 0.96949 0.0
C1633 C 0.16058 0.32432 0.97574 0.0
C1634 C 0.15392 0.34749 0.98144 0.0
C1635 C 0.1785 0.37831 0.98099 0.0
C1636 C 0.20864 0.38576 0.97444 0.0
C1637 C 0.12111 0.34016 0.9863 0.0
C1638 C 0.11008 0.35909 0.97843 0.0
C1639 C 0.10061 0.31495 0.99851 0.0
C1640 C 0.11038 0.29475 0.00829 0.0
C1641 C 0.13043 0.30556 0.02413 0.0
C1642 C 0.1384 0.28596 0.03408 0.0
C1643 C 0.12652 0.25555 0.02818 0.0
C1644 C 0.10623 0.24453 0.01253 0.0
C1645 C 0.09787 0.26395 0.00271 0.0
H1646 H 0.13281 0.24045 0.03586 0.0
H1647 H 0.04671 0.43534 0.95639 0.0
H1648 H 0.71173 0.69909 0.04831 0.0
H1649 H 0.70174 0.73983 0.03678 0.0
H1650 H 0.63031 0.67524 0.99889 0.0
H1651 H 0.64195 0.63517 0.00947 0.0
H1652 H 0.66285 0.72351 0.97966 0.0
H1653 H 0.61475 0.70512 0.04272 0.0
H1654 H 0.61027 0.69907 0.07833 0.0
H1655 H 0.68504 0.79229 0.08422 0.0
H1656 H 0.69027 0.79878 0.04863 0.0
H1657 H 0.59134 0.81678 0.96262 0.0
H1658 H 0.60031 0.77647 0.97656 0.0
H1659 H 0.6944 0.84535 0.99165 0.0
H1660 H 0.6857 0.88568 0.97722 0.0
H1661 H 0.65062 0.7964 0.02244 0.0
H1662 H 0.69623 0.81175 0.95751 0.0
H1663 H 0.69443 0.81624 0.92197 0.0
H1664 H 0.61525 0.72462 0.92029 0.0
H1665 H 0.61623 0.71979 0.95589 0.0
C1666 C 0.69366 0.69365 0.03769 0.0
C1667 C 0.67754 0.66419 0.02974 0.0
C1668 C 0.68782 0.71684 0.03118 0.0
C1669 C 0.66494 0.71058 0.01713 0.0
C1670 C 0.64816 0.68074 0.00966 0.0
C1671 C 0.65469 0.65784 0.01574 0.0
C1672 C 0.65973 0.73544 0.00936 0.0
C1673 C 0.65964 0.73904 0.98912 0.0
C1674 C 0.65607 0.75621 0.02157 0.0
C1675 C 0.65315 0.7523 0.04299 0.0
C1676 C 0.63043 0.72424 0.0516 0.0
C1677 C 0.62772 0.72075 0.07179 0.0
C1678 C 0.64742 0.74524 0.08353 0.0
C1679 C 0.66983 0.77331 0.07511 0.0
C1680 C 0.67267 0.77692 0.05493 0.0
C1681 C 0.61377 0.8232 0.96911 0.0
C1682 C 0.63759 0.85413 0.96948 0.0
C1683 C 0.6189 0.8003 0.97693 0.0
C1684 C 0.64791 0.80817 0.98516 0.0
C1685 C 0.67182 0.83907 0.98545 0.0
C1686 C 0.66688 0.86193 0.97726 0.0
C1687 C 0.6534 0.78388 0.99306 0.0
C1688 C 0.65361 0.78055 0.0132 0.0
C1689 C 0.65632 0.76291 0.98082 0.0
C1690 C 0.65608 0.76555 0.95939 0.0
C1691 C 0.67825 0.79266 0.94959 0.0
C1692 C 0.67741 0.79525 0.92943 0.0
C1693 C 0.65466 0.77078 0.9189 0.0
C1694 C 0.63281 0.74358 0.92848 0.0
C1695 C 0.63351 0.7409 0.94865 0.0
H1696 H 0.65397 0.7729 0.90332 0.0
H1697 H 0.64527 0.7425 0.09915 0.0
H1698 H 0.63435 0.98164 0.00459 0.0
H1699 H 0.66833 0.03473 0.01452 0.0
H1700 H 0.73753 0.04536 0.97097 0.0
H1701 H 0.70293 0.99274 0.96039 0.0
H1702 H 0.72202 0.06316 0.02968 0.0
H1703 H 0.7796 0.11836 0.95434 0.0
H1704 H 0.76534 0.11229 0.91987 0.0
H1705 H 0.66745 0.07065 0.93611 0.0
H1706 H 0.68113 0.07688 0.97067 0.0
H1707 H 0.87224 0.20871 0.0245 0.0
H1708 H 0.83219 0.15857 0.01238 0.0
H1709 H 0.75991 0.18186 0.02511 0.0
H1710 H 0.80014 0.23248 0.03675 0.0
H1711 H 0.77275 0.14992 0.98208 0.0
H1712 H 0.71446 0.10991 0.05397 0.0
H1713 H 0.72521 0.11905 0.0889 0.0
H1714 H 0.81842 0.13308 0.07913 0.0
H1715 H 0.80798 0.12361 0.04423 0.0
C1716 C 0.65684 0.99533 0.99714 0.0
C1717 C 0.66599 0.98314 0.98167 0.0
C1718 C 0.67622 0.02567 0.00282 0.0
C1719 C 0.70528 0.04427 0.99329 0.0
C1720 C 0.71483 0.03179 0.97819 0.0
C1721 C 0.69516 0.00165 0.97224 0.0
C1722 C 0.72592 0.07647 0.99943 0.0
C1723 C 0.73277 0.08205 0.0192 0.0
C1724 C 0.73989 0.10141 0.98589 0.0
C1725 C 0.7314 0.09778 0.96512 0.0
C1726 C 0.75504 0.108 0.95056 0.0
C1727 C 0.74705 0.10453 0.931 0.0
C1728 C 0.7155 0.09099 0.92581 0.0
C1729 C 0.69187 0.08102 0.94016 0.0
C1730 C 0.69973 0.08448 0.95974 0.0
C1731 C 0.84785 0.20321 0.02436 0.0
C1732 C 0.83913 0.22449 0.03089 0.0
C1733 C 0.82512 0.17475 0.01749 0.0
C1734 C 0.79333 0.16683 0.01786 0.0
C1735 C 0.78446 0.18786 0.02464 0.0
C1736 C 0.80731 0.21663 0.03116 0.0
C1737 C 0.76937 0.1359 0.01193 0.0
C1738 C 0.7618 0.13078 0.99234 0.0
C1739 C 0.75428 0.11153 0.02557 0.0
C1740 C 0.76056 0.11641 0.04654 0.0
C1741 C 0.73719 0.11486 0.05933 0.0
C1742 C 0.74323 0.12009 0.0791 0.0
C1743 C 0.77253 0.12676 0.08622 0.0
C1744 C 0.79579 0.12805 0.07359 0.0
C1745 C 0.78984 0.12279 0.05381 0.0
H1746 H 0.77718 0.13086 0.10152 0.0
H1747 H 0.70937 0.0883 0.91065 0.0
H1748 H 0.79887 0.6859 0.0469 0.0
H1749 H 0.85292 0.70121 0.03798 0.0
H1750 H 0.82322 0.6079 0.0205 0.0
H1751 H 0.77086 0.59184 0.03372 0.0
H1752 H 0.87199 0.62332 0.03346 0.0
H1753 H 0.8544 0.68526 0.98429 0.0
H1754 H 0.83979 0.72309 0.97194 0.0
H1755 H 0.90248 0.78983 0.01204 0.0
H1756 H 0.91752 0.75241 0.02433 0.0
H1757 H 0.98332 0.66877 0.95322 0.0
H1758 H 0.9371 0.65874 0.9731 0.0
H1759 H 0.99757 0.71026 0.01978 0.0
H1760 H 0.04398 0.71953 1.00004 0.0
H1761 H 0.94163 0.72159 0.99871 0.0
H1762 H 0.96826 0.65632 0.03713 0.0
H1763 H 0.98406 0.6167 0.04079 0.0
H1764 H 0.90148 0.55182 0.01093 0.0
H1765 H 0.88548 0.59124 0.00682 0.0
C1766 C 0.804 0.66882 0.04093 0.0
C1767 C 0.78023 0.63795 0.03967 0.0
C1768 C 0.83495 0.67771 0.03545 0.0
C1769 C 0.84254 0.65624 0.02757 0.0
C1770 C 0.81848 0.6253 0.02632 0.0
C1771 C 0.78805 0.61612 0.03313 0.0
C1772 C 0.87557 0.66534 0.02168 0.0
C1773 C 0.88673 0.64465 0.02551 0.0
C1774 C 0.89614 0.69379 0.01213 0.0
C1775 C 0.88617 0.71581 0.00555 0.0
C1776 C 0.86441 0.70781 0.99066 0.0
C1777 C 0.8563 0.72921 0.9836 0.0
C1778 C 0.86983 0.75868 0.9914 0.0
C1779 C 0.8918 0.76692 0.00612 0.0
C1780 C 0.90021 0.74567 0.01307 0.0
C1781 C 0.98662 0.67801 0.96769 0.0
C1782 C 0.01689 0.69559 0.97506 0.0
C1783 C 0.96038 0.67203 0.97905 0.0
C1784 C 0.96417 0.68352 0.99788 0.0
C1785 C 0.9944 0.70099 0.00533 0.0
C1786 C 0.02069 0.70643 0.99408 0.0
C1787 C 0.93622 0.67867 0.00899 0.0
C1788 C 0.92642 0.70034 0.00652 0.0
C1789 C 0.91648 0.65066 0.01884 0.0
C1790 C 0.92587 0.62683 0.0215 0.0
C1791 C 0.95366 0.63371 0.03116 0.0
C1792 C 0.9626 0.61126 0.03336 0.0
C1793 C 0.94384 0.58178 0.02605 0.0
C1794 C 0.91602 0.57467 0.01658 0.0
C1795 C 0.90699 0.59704 0.01433 0.0
H1796 H 0.95081 0.56444 0.02776 0.0
H1797 H 0.86351 0.77522 0.98593 0.0
H1798 H 0.31945 0.34236 0.01118 0.0
H1799 H 0.3303 0.30177 0.02121 0.0
H1800 H 0.31472 0.26702 0.96297 0.0
H1801 H 0.30447 0.30809 0.95261 0.0
H1802 H 0.29528 0.24166 0.02218 0.0
H1803 H 0.36354 0.236 0.95435 0.0
H1804 H 0.39747 0.26979 0.92764 0.0
H1805 H 0.42462 0.34923 0.96286 0.0
H1806 H 0.39125 0.3159 0.98987 0.0
H1807 H 0.31556 0.11104 0.03107 0.0
H1808 H 0.30288 0.14947 0.01818 0.0
H1809 H 0.40015 0.22007 0.0234 0.0
H1810 H 0.41276 0.18155 0.03599 0.0
H1811 H 0.37823 0.22688 0.9902 0.0
H1812 H 0.34515 0.21485 0.05699 0.0
H1813 H 0.31699 0.1868 0.08689 0.0
H1814 H 0.22868 0.15032 0.05802 0.0
H1815 H 0.25639 0.17847 0.02795 0.0
C1816 C 0.31835 0.32616 1.00044 0.0
C1817 C 0.31121 0.32859 0.98105 0.0
C1818 C 0.32445 0.30288 0.00624 0.0
C1819 C 0.32349 0.28152 0.99282 0.0
C1820 C 0.31601 0.28357 0.9735 0.0
C1821 C 0.3101 0.30702 0.96763 0.0
C1822 C 0.33043 0.25721 0.99919 0.0
C1823 C 0.31327 0.23827 0.01507 0.0
C1824 C 0.35425 0.25315 0.99013 0.0
C1825 C 0.37449 0.27347 0.97401 0.0
C1826 C 0.37677 0.26068 0.95639 0.0
C1827 C 0.39593 0.27975 0.94121 0.0
C1828 C 0.41307 0.31165 0.94352 0.0
C1829 C 0.4112 0.32454 0.96105 0.0
C1830 C 0.39213 0.30556 0.9763 0.0
C1831 C 0.33414 0.13475 0.02922 0.0
C1832 C 0.36524 0.14341 0.03381 0.0
C1833 C 0.32692 0.15665 0.022 0.0
C1834 C 0.35058 0.18762 0.0199 0.0
C1835 C 0.38162 0.19625 0.02475 0.0
C1836 C 0.38884 0.17432 0.03183 0.0
C1837 C 0.34297 0.21121 0.01301 0.0
C1838 C 0.35992 0.22994 0.99704 0.0
C1839 C 0.31959 0.21567 0.02228 0.0
C1840 C 0.30283 0.19849 0.04021 0.0
C1841 C 0.31974 0.20069 0.057 0.0
C1842 C 0.30385 0.18485 0.07398 0.0
C1843 C 0.27107 0.16662 0.07433 0.0
C1844 C 0.25408 0.16439 0.05772 0.0
C1845 C 0.26984 0.18039 0.04072 0.0
H1846 H 0.25882 0.15431 0.08749 0.0
H1847 H 0.42787 0.32637 0.93174 0.0
H1848 H 0.99175 0.32564 0.38045 0.0
H1849 H 0.9575 0.27523 0.36651 0.0
H1850 H 0.97072 0.31782 0.30996 0.0
H1851 H 0.00504 0.36832 0.3237 0.0
H1852 H 0.90822 0.27586 0.31941 0.0
H1853 H 0.00923 0.28166 0.31985 0.0
H1854 H 0.05804 0.28974 0.33507 0.0
H1855 H 0.00413 0.21275 0.37367 0.0
H1856 H 0.95492 0.20455 0.35892 0.0
H1857 H 0.83585 0.14636 0.26372 0.0
H1858 H 0.88058 0.19328 0.27578 0.0
H1859 H 0.87148 0.14778 0.33088 0.0
H1860 H 0.82742 0.10023 0.31845 0.0
H1861 H 0.9331 0.19085 0.32257 0.0
H1862 H 0.8325 0.18716 0.32398 0.0
H1863 H 0.78324 0.1803 0.31009 0.0
H1864 H 0.83626 0.25381 0.26908 0.0
H1865 H 0.88588 0.26111 0.28266 0.0
C1866 C 0.98716 0.32435 0.36507 0.0
C1867 C 0.0011 0.35102 0.35318 0.0
C1868 C 0.96782 0.2955 0.35713 0.0
C1869 C 0.96196 0.29285 0.3372 0.0
C1870 C 0.97515 0.31945 0.32537 0.0
C1871 C 0.99473 0.34826 0.33325 0.0
C1872 C 0.94158 0.26239 0.32867 0.0
C1873 C 0.91387 0.25742 0.31985 0.0
C1874 C 0.9487 0.23818 0.32976 0.0
C1875 C 0.97832 0.24268 0.3384 0.0
C1876 C 0.00774 0.26659 0.33168 0.0
C1877 C 0.03549 0.27118 0.34021 0.0
C1878 C 0.03418 0.25182 0.35535 0.0
C1879 C 0.00511 0.22776 0.36195 0.0
C1880 C 0.97727 0.22312 0.3535 0.0
C1881 C 0.84422 0.14612 0.27815 0.0
C1882 C 0.82837 0.11993 0.29023 0.0
C1883 C 0.86959 0.17291 0.28507 0.0
C1884 C 0.87875 0.17423 0.3044 0.0
C1885 C 0.86467 0.14726 0.31596 0.0
C1886 C 0.83962 0.12014 0.30886 0.0
C1887 C 0.89989 0.20448 0.31309 0.0
C1888 C 0.92757 0.20936 0.32206 0.0
C1889 C 0.89274 0.22871 0.31229 0.0
C1890 C 0.8629 0.22451 0.30423 0.0
C1891 C 0.83365 0.20175 0.31193 0.0
C1892 C 0.80567 0.19778 0.30412 0.0
C1893 C 0.80661 0.21647 0.28867 0.0
C1894 C 0.83556 0.23931 0.28104 0.0
C1895 C 0.86362 0.24343 0.28881 0.0
H1896 H 0.78491 0.21332 0.28264 0.0
H1897 H 0.05567 0.25543 0.36195 0.0
H1898 H 0.89784 0.74134 0.28361 0.0
H1899 H 0.84592 0.73356 0.29176 0.0
H1900 H 0.8304 0.659 0.331 0.0
H1901 H 0.8791 0.6625 0.31893 0.0
H1902 H 0.78261 0.64045 0.31639 0.0
H1903 H 0.84173 0.74906 0.34289 0.0
H1904 H 0.87744 0.80552 0.33964 0.0
H1905 H 0.82996 0.8081 0.28853 0.0
H1906 H 0.79349 0.75212 0.29177 0.0
H1907 H 0.66144 0.63788 0.37538 0.0
H1908 H 0.71399 0.65173 0.363 0.0
H1909 H 0.69376 0.67993 0.30832 0.0
H1910 H 0.64075 0.66533 0.32035 0.0
H1911 H 0.75535 0.7226 0.32673 0.0
H1912 H 0.69052 0.61897 0.30557 0.0
H1913 H 0.65042 0.56424 0.31004 0.0
H1914 H 0.70835 0.55269 0.35171 0.0
H1915 H 0.74856 0.60755 0.34776 0.0
C1916 C 0.88329 0.72364 0.29421 0.0
C1917 C 0.89288 0.7034 0.30147 0.0
C1918 C 0.85367 0.71951 0.29923 0.0
C1919 C 0.83396 0.69636 0.31269 0.0
C1920 C 0.84461 0.67702 0.32052 0.0
C1921 C 0.87296 0.6795 0.31414 0.0
C1922 C 0.80122 0.68985 0.31728 0.0
C1923 C 0.77732 0.65876 0.31917 0.0
C1924 C 0.7928 0.71317 0.31955 0.0
C1925 C 0.81541 0.74648 0.31739 0.0
C1926 C 0.83925 0.76171 0.33088 0.0
C1927 C 0.85948 0.79355 0.32908 0.0
C1928 C 0.85629 0.8102 0.31376 0.0
C1929 C 0.83256 0.79516 0.30032 0.0
C1930 C 0.81198 0.76347 0.3022 0.0
C1931 C 0.66819 0.64717 0.36076 0.0
C1932 C 0.64702 0.65061 0.34883 0.0
C1933 C 0.69813 0.65499 0.35373 0.0
C1934 C 0.70746 0.66675 0.33481 0.0
C1935 C 0.68679 0.67091 0.32299 0.0
C1936 C 0.65659 0.66253 0.32987 0.0
C1937 C 0.7387 0.67395 0.32732 0.0
C1938 C 0.76162 0.70481 0.32443 0.0
C1939 C 0.74635 0.65057 0.32431 0.0
C1940 C 0.72241 0.61745 0.3265 0.0
C1941 C 0.69458 0.60484 0.31582 0.0
C1942 C 0.67185 0.57378 0.31824 0.0
C1943 C 0.6768 0.55502 0.33118 0.0
C1944 C 0.70454 0.56727 0.3417 0.0
C1945 C 0.72731 0.59834 0.33937 0.0
H1946 H 0.65918 0.53097 0.33304 0.0
H1947 H 0.87206 0.8348 0.31241 0.0
H1948 H 0.36019 0.22356 0.30466 0.0
H1949 H 0.37124 0.18405 0.3176 0.0
H1950 H 0.27459 0.11448 0.30855 0.0
H1951 H 0.26352 0.15415 0.29618 0.0
H1952 H 0.29151 0.10319 0.3412 0.0
H1953 H 0.33407 0.12143 0.27709 0.0
H1954 H 0.36525 0.1515 0.24848 0.0
H1955 H 0.45 0.18729 0.28116 0.0
H1956 H 0.41926 0.1571 0.30995 0.0
H1957 H 0.36121 0.99467 0.32664 0.0
H1958 H 0.35036 0.03438 0.31466 0.0
H1959 H 0.35324 0.0661 0.37299 0.0
H1960 H 0.36362 0.02603 0.38524 0.0
H1961 H 0.38155 0.09449 0.31462 0.0
H1962 H 0.29872 0.09058 0.37765 0.0
H1963 H 0.26074 0.05303 0.4015 0.0
H1964 H 0.24619 0.9786 0.36443 0.0
H1965 H 0.28365 0.01577 0.34025 0.0
C1966 C 0.34138 0.19983 0.30568 0.0
C1967 C 0.31087 0.19178 0.30006 0.0
C1968 C 0.34768 0.17729 0.3129 0.0
C1969 C 0.32379 0.14625 0.3139 0.0
C1970 C 0.29333 0.13827 0.30805 0.0
C1971 C 0.28699 0.16087 0.30107 0.0
C1972 C 0.3306 0.12203 0.32081 0.0
C1973 C 0.3114 0.10155 0.33556 0.0
C1974 C 0.35571 0.11894 0.31285 0.0
C1975 C 0.37436 0.13729 0.29569 0.0
C1976 C 0.35934 0.13587 0.27819 0.0
C1977 C 0.37694 0.15286 0.26194 0.0
C1978 C 0.40958 0.17149 0.26303 0.0
C1979 C 0.42471 0.17292 0.28035 0.0
C1980 C 0.40723 0.15576 0.29662 0.0
C1981 C 0.35966 0.01011 0.33698 0.0
C1982 C 0.36318 0.00704 0.35695 0.0
C1983 C 0.35355 0.03289 0.33006 0.0
C1984 C 0.35075 0.05302 0.34294 0.0
C1985 C 0.35485 0.05048 0.36283 0.0
C1986 C 0.36086 0.0276 0.3698 0.0
C1987 C 0.34307 0.07636 0.3355 0.0
C1988 C 0.36203 0.09658 0.32057 0.0
C1989 C 0.31698 0.07843 0.3428 0.0
C1990 C 0.2943 0.05594 0.35725 0.0
C1991 C 0.28734 0.06621 0.37457 0.0
C1992 C 0.26589 0.045 0.38814 0.0
C1993 C 0.25115 0.01345 0.38452 0.0
C1994 C 0.25771 0.00304 0.36727 0.0
C1995 C 0.27907 0.02416 0.35364 0.0
H1996 H 0.23458 0.99707 0.39506 0.0
H1997 H 0.42314 0.18473 0.25044 0.0
H1998 H 0.55359 0.53755 0.35788 0.0
H1999 H 0.5126 0.48763 0.34571 0.0
H2000 H 0.44121 0.50102 0.37421 0.0
H2001 H 0.48169 0.55254 0.38403 0.0
H2002 H 0.44482 0.43608 0.3749 0.0
H2003 H 0.45016 0.52778 0.34055 0.0
H2004 H 0.48729 0.59271 0.29722 0.0
H2005 H 0.48467 0.50921 0.26323 0.0
H2006 H 0.46145 0.46701 0.2911 0.0
H2007 H 0.30787 0.31864 0.33633 0.0
H2008 H 0.34505 0.36991 0.3477 0.0
H2009 H 0.40746 0.38313 0.29918 0.0
H2010 H 0.36975 0.33199 0.28732 0.0
H2011 H 0.40895 0.43664 0.30802 0.0
H2012 H 0.41799 0.35754 0.34183 0.0
H2013 H 0.39824 0.30885 0.36039 0.0
H2014 H 0.36775 0.34545 0.40676 0.0
H2015 H 0.38675 0.39417 0.38828 0.0
C2016 C 0.52903 0.52992 0.36105 0.0
C2017 C 0.52013 0.54913 0.37059 0.0
C2018 C 0.50588 0.5015 0.35442 0.0
C2019 C 0.47412 0.49155 0.35862 0.0
C2020 C 0.4657 0.50899 0.3705 0.0
C2021 C 0.48859 0.53827 0.3759 0.0
C2022 C 0.44953 0.46382 0.34972 0.0
C2023 C 0.43661 0.43616 0.36038 0.0
C2024 C 0.44002 0.46438 0.33056 0.0
C2025 C 0.45478 0.49283 0.31811 0.0
C2026 C 0.45885 0.52711 0.32605 0.0
C2027 C 0.48188 0.56869 0.29805 0.0
C2028 C 0.48838 0.55366 0.2777 0.0
C2029 C 0.4799 0.51661 0.27694 0.0
C2030 C 0.46491 0.4894 0.295 0.0
C2031 C 0.32938 0.33253 0.32797 0.0
C2032 C 0.33618 0.32108 0.31112 0.0
C2033 C 0.35054 0.36187 0.33445 0.0
C2034 C 0.37926 0.38007 0.32448 0.0
C2035 C 0.38544 0.36941 0.3071 0.0
C2036 C 0.36398 0.34014 0.30042 0.0
C2037 C 0.4039 0.40874 0.33324 0.0
C2038 C 0.41701 0.43661 0.32258 0.0
C2039 C 0.41437 0.40844 0.35224 0.0
C2040 C 0.40351 0.3794 0.36359 0.0
C2041 C 0.4069 0.35514 0.35593 0.0
C2042 C 0.39584 0.32753 0.36643 0.0
C2043 C 0.3817 0.32403 0.38472 0.0
C2044 C 0.37867 0.34818 0.39257 0.0
C2045 C 0.38958 0.3758 0.38209 0.0
H2046 H 0.37313 0.30264 0.39283 0.0
H2047 H 0.49787 0.5681 0.26484 0.0
H2048 H 0.66295 0.98817 0.29711 0.0
H2049 H 0.61501 0.97447 0.31624 0.0
H2050 H 0.66925 0.0475 0.35598 0.0
H2051 H 0.71785 0.05928 0.33766 0.0
H2052 H 0.60635 0.97223 0.36481 0.0
H2053 H 0.64964 0.04551 0.3092 0.0
H2054 H 0.68066 0.12875 0.28348 0.0
H2055 H 0.59193 0.12154 0.3176 0.0
H2056 H 0.57302 0.06931 0.33578 0.0
H2057 H 0.47514 0.01823 0.37762 0.0
H2058 H 0.52776 0.02924 0.36748 0.0
H2059 H 0.49466 0.93152 0.36431 0.0
H2060 H 0.4429 0.92084 0.37654 0.0
H2061 H 0.54786 0.01966 0.3365 0.0
H2062 H 0.55644 0.91705 0.3671 0.0
H2063 H 0.53395 0.87851 0.39375 0.0
H2064 H 0.51866 0.94153 0.42799 0.0
H2065 H 0.54151 0.98055 0.40154 0.0
C2066 C 0.66454 0.00109 0.31001 0.0
C2067 C 0.69331 0.02646 0.31516 0.0
C2068 C 0.63736 0.99299 0.32104 0.0
C2069 C 0.63863 0.01103 0.33687 0.0
C2070 C 0.66789 0.03415 0.34337 0.0
C2071 C 0.69536 0.04137 0.33269 0.0
C2072 C 0.60896 0.00702 0.34505 0.0
C2073 C 0.59402 0.9836 0.35916 0.0
C2074 C 0.59337 0.0226 0.33757 0.0
C2075 C 0.6086 0.05167 0.32508 0.0
C2076 C 0.64157 0.06168 0.31108 0.0
C2077 C 0.6611 0.11519 0.29365 0.0
C2078 C 0.63707 0.12962 0.29951 0.0
C2079 C 0.60557 0.11031 0.31464 0.0
C2080 C 0.5929 0.07567 0.32609 0.0
C2081 C 0.47928 0.99921 0.37477 0.0
C2082 C 0.45487 0.96872 0.37684 0.0
C2083 C 0.50924 0.00543 0.3689 0.0
C2084 C 0.51531 0.98125 0.36496 0.0
C2085 C 0.49088 0.95066 0.36746 0.0
C2086 C 0.46112 0.9445 0.37397 0.0
C2087 C 0.54726 0.98863 0.35814 0.0
C2088 C 0.56181 0.01113 0.34343 0.0
C2089 C 0.5638 0.97488 0.36631 0.0
C2090 C 0.55051 0.95169 0.38235 0.0
C2091 C 0.54847 0.92276 0.38036 0.0
C2092 C 0.53563 0.9008 0.3954 0.0
C2093 C 0.52486 0.90756 0.41255 0.0
C2094 C 0.52702 0.93633 0.41471 0.0
C2095 C 0.53993 0.95836 0.39972 0.0
H2096 H 0.51486 0.89051 0.42415 0.0
H2097 H 0.642 0.15159 0.29338 0.0
H2098 H 0.03582 0.69504 0.32094 0.0
H2099 H 0.04685 0.65496 0.33305 0.0
H2100 H 0.95664 0.58481 0.31286 0.0
H2101 H 0.9457 0.62496 0.30088 0.0
H2102 H 0.9687 0.57679 0.35185 0.0
H2103 H 0.01971 0.59723 0.28883 0.0
H2104 H 0.05631 0.6298 0.2627 0.0
H2105 H 0.13441 0.65761 0.30059 0.0
H2106 H 0.09822 0.62556 0.32706 0.0
H2107 H 0.98665 0.44645 0.36606 0.0
H2108 H 0.97759 0.4869 0.35267 0.0
H2109 H 0.07371 0.55494 0.36463 0.0
H2110 H 0.08287 0.51417 0.37752 0.0
H2111 H 0.05915 0.56491 0.33003 0.0
H2112 H 0.01183 0.54931 0.39299 0.0
H2113 H 0.97783 0.51985 0.4209 0.0
H2114 H 0.89628 0.48579 0.38533 0.0
H2115 H 0.92985 0.51521 0.3572 0.0
C2116 C 0.01846 0.67102 0.31928 0.0
C2117 C 0.98987 0.66281 0.31038 0.0
C2118 C 0.02481 0.64826 0.32595 0.0
C2119 C 0.00248 0.61703 0.32385 0.0
C2120 C 0.97407 0.60883 0.31462 0.0
C2121 C 0.96793 0.63164 0.30773 0.0
C2122 C 0.00829 0.59293 0.33195 0.0
C2123 C 0.98816 0.57379 0.34688 0.0
C2124 C 0.03441 0.58998 0.32592 0.0
C2125 C 0.05619 0.60928 0.31 0.0
C2126 C 0.04465 0.61054 0.29166 0.0
C2127 C 0.06533 0.62885 0.27677 0.0
C2128 C 0.09765 0.64584 0.28 0.0
C2129 C 0.10937 0.64448 0.29812 0.0
C2130 C 0.08878 0.62623 0.31307 0.0
C2131 C 0.00578 0.47007 0.36567 0.0
C2132 C 0.03568 0.47734 0.3721 0.0
C2133 C 0.00058 0.49315 0.35821 0.0
C2134 C 0.02492 0.52397 0.3578 0.0
C2135 C 0.05466 0.53129 0.36473 0.0
C2136 C 0.05994 0.5081 0.37196 0.0
C2137 C 0.01942 0.54843 0.3498 0.0
C2138 C 0.03962 0.56773 0.33495 0.0
C2139 C 0.99371 0.5519 0.35612 0.0
C2140 C 0.97337 0.53423 0.37297 0.0
C2141 C 0.98666 0.5354 0.3911 0.0
C2142 C 0.96746 0.51876 0.40697 0.0
C2143 C 0.93493 0.5008 0.40487 0.0
C2144 C 0.9215 0.49966 0.38693 0.0
C2145 C 0.94058 0.51641 0.37104 0.0
H2146 H 0.92012 0.48784 0.41716 0.0
H2147 H 0.11363 0.66 0.26845 0.0
H2148 H 0.49828 0.43954 0.63328 0.0
H2149 H 0.54211 0.48495 0.64756 0.0
H2150 H 0.48859 0.53238 0.64533 0.0
H2151 H 0.44512 0.48764 0.63082 0.0
H2152 H 0.54583 0.56842 0.63191 0.0
H2153 H 0.4988 0.50374 0.68797 0.0
H2154 H 0.47821 0.45625 0.70792 0.0
H2155 H 0.56963 0.46378 0.70705 0.0
H2156 H 0.59067 0.51112 0.68685 0.0
H2157 H 0.64067 0.66937 0.7165 0.0
H2158 H 0.59951 0.61943 0.70531 0.0
H2159 H 0.65199 0.63251 0.65188 0.0
H2160 H 0.69281 0.68273 0.6627 0.0
H2161 H 0.59495 0.56602 0.6939 0.0
H2162 H 0.60162 0.60868 0.61477 0.0
H2163 H 0.619 0.65774 0.59701 0.0
H2164 H 0.60066 0.69626 0.64768 0.0
H2165 H 0.58259 0.64726 0.66561 0.0
C2166 C 0.4958 0.45959 0.63591 0.0
C2167 C 0.46821 0.45995 0.63083 0.0
C2168 C 0.52082 0.48547 0.64412 0.0
C2169 C 0.51852 0.51197 0.64756 0.0
C2170 C 0.49092 0.51223 0.6427 0.0
C2171 C 0.46605 0.48654 0.63442 0.0
C2172 C 0.54508 0.53987 0.65575 0.0
C2173 C 0.5566 0.56784 0.64543 0.0
C2174 C 0.55877 0.5392 0.67355 0.0
C2175 C 0.54622 0.51079 0.68572 0.0
C2176 C 0.51445 0.49513 0.69189 0.0
C2177 C 0.50271 0.46827 0.70327 0.0
C2178 C 0.52258 0.45696 0.7087 0.0
C2179 C 0.55425 0.47254 0.7028 0.0
C2180 C 0.56611 0.4994 0.6914 0.0
C2181 C 0.6436 0.66149 0.70244 0.0
C2182 C 0.66972 0.68023 0.69034 0.0
C2183 C 0.62014 0.63289 0.69612 0.0
C2184 C 0.62252 0.62254 0.67767 0.0
C2185 C 0.64946 0.64037 0.66604 0.0
C2186 C 0.67272 0.66909 0.67223 0.0
C2187 C 0.59576 0.59436 0.66994 0.0
C2188 C 0.58425 0.56644 0.68031 0.0
C2189 C 0.58138 0.59517 0.65245 0.0
C2190 C 0.59108 0.62439 0.64158 0.0
C2191 C 0.6011 0.62755 0.62207 0.0
C2192 C 0.61108 0.65536 0.61199 0.0
C2193 C 0.61103 0.68013 0.62124 0.0
C2194 C 0.60076 0.67708 0.64055 0.0
C2195 C 0.59064 0.64929 0.65068 0.0
H2196 H 0.6189 0.70167 0.61343 0.0
H2197 H 0.51345 0.43616 0.71751 0.0
H2198 H 0.5508 0.06679 0.617 0.0
H2199 H 0.49707 0.05699 0.62005 0.0
H2200 H 0.47526 0.98152 0.66008 0.0
H2201 H 0.52695 0.98739 0.65316 0.0
H2202 H 0.43061 0.96296 0.64144 0.0
H2203 H 0.48421 0.06898 0.67017 0.0
H2204 H 0.51999 0.1255 0.66923 0.0
H2205 H 0.48075 0.13248 0.61553 0.0
H2206 H 0.44428 0.07633 0.61636 0.0
H2207 H 0.31077 0.96237 0.69915 0.0
H2208 H 0.36012 0.97077 0.68452 0.0
H2209 H 0.34023 0.00481 0.63202 0.0
H2210 H 0.29016 0.99584 0.6464 0.0
H2211 H 0.40096 0.04394 0.64846 0.0
H2212 H 0.33759 0.94125 0.6278 0.0
H2213 H 0.29782 0.88623 0.63116 0.0
H2214 H 0.35487 0.87327 0.6728 0.0
H2215 H 0.39478 0.92834 0.66994 0.0
C2216 C 0.53448 0.04853 0.62674 0.0
C2217 C 0.54332 0.02886 0.63583 0.0
C2218 C 0.50375 0.04318 0.62878 0.0
C2219 C 0.4818 0.01927 0.64101 0.0
C2220 C 0.49133 1.00023 0.65055 0.0
C2221 C 0.52127 0.00408 0.64718 0.0
C2222 C 0.44835 0.01212 0.6428 0.0
C2223 C 0.42456 0.98091 0.64353 0.0
C2224 C 0.43935 0.03511 0.64392 0.0
C2225 C 0.46201 0.06855 0.64318 0.0
C2226 C 0.48352 0.08261 0.6581 0.0
C2227 C 0.5038 0.11451 0.65762 0.0
C2228 C 0.50295 0.13243 0.64224 0.0
C2229 C 0.48153 0.11856 0.62738 0.0
C2230 C 0.46095 0.08677 0.6279 0.0
C2231 C 0.31668 0.97143 0.68444 0.0
C2232 C 0.29667 0.9787 0.67399 0.0
C2233 C 0.34479 0.97602 0.67607 0.0
C2234 C 0.35355 0.98819 0.6572 0.0
C2235 C 0.33362 0.99521 0.64659 0.0
C2236 C 0.30511 0.99009 0.65483 0.0
C2237 C 0.38465 0.99535 0.64932 0.0
C2238 C 0.40757 0.02631 0.64683 0.0
C2239 C 0.39295 0.97225 0.64708 0.0
C2240 C 0.36912 0.93901 0.64872 0.0
C2241 C 0.34157 0.92673 0.63778 0.0
C2242 C 0.31901 0.89552 0.63958 0.0
C2243 C 0.32379 0.87628 0.65221 0.0
C2244 C 0.35119 0.8882 0.66303 0.0
C2245 C 0.37381 0.91941 0.6613 0.0
H2246 H 0.30629 0.85212 0.65358 0.0
H2247 H 0.51873 0.15708 0.64191 0.0
H2248 H 0.98026 0.30885 0.67364 0.0
H2249 H 0.97277 0.35233 0.66478 0.0
H2250 H 0.04663 0.41053 0.70359 0.0
H2251 H 0.05261 0.36666 0.71333 0.0
H2252 H 0.00338 0.42207 0.70854 0.0
H2253 H 0.05486 0.41437 0.6517 0.0
H2254 H 0.06472 0.38967 0.6237 0.0
H2255 H 0.97547 0.36853 0.60025 0.0
H2256 H 0.96485 0.3927 0.62826 0.0
H2257 H 0.01694 0.55778 0.65054 0.0
H2258 H 0.03068 0.52155 0.66572 0.0
H2259 H 0.93394 0.44933 0.66272 0.0
H2260 H 0.92054 0.4851 0.64657 0.0
H2261 H 0.99363 0.44953 0.64078 0.0
H2262 H 0.95363 0.43318 0.72024 0.0
H2263 H 0.95834 0.46042 0.75081 0.0
H2264 H 0.04339 0.53863 0.7291 0.0
H2265 H 0.03937 0.51161 0.69861 0.0
C2266 C 0.99492 0.33102 0.68016 0.0
C2267 C 0.01689 0.33451 0.69419 0.0
C2268 C 0.99081 0.3559 0.67502 0.0
C2269 C 0.00942 0.38491 0.68332 0.0
C2270 C 0.03185 0.38841 0.69705 0.0
C2271 C 0.03531 0.36338 0.70258 0.0
C2272 C 0.00465 0.41131 0.67842 0.0
C2273 C 0.00147 0.42811 0.69367 0.0
C2274 C 0.00269 0.4197 0.65905 0.0
C2275 C 0.00894 0.40509 0.64218 0.0
C2276 C 0.03722 0.40424 0.64065 0.0
C2277 C 0.04297 0.39037 0.62476 0.0
C2278 C 0.0207 0.37748 0.61023 0.0
C2279 C 0.99268 0.37849 0.61153 0.0
C2280 C 0.98679 0.39229 0.6274 0.0
C2281 C 0.9985 0.53439 0.65372 0.0
C2282 C 0.96748 0.52437 0.64807 0.0
C2283 C 0.00628 0.51386 0.66258 0.0
C2284 C 0.98309 0.48309 0.66597 0.0
C2285 C 0.95193 0.47326 0.66077 0.0
C2286 C 0.94425 0.49366 0.65165 0.0
C2287 C 0.99219 0.45983 0.6709 0.0
C2288 C 0.99575 0.44339 0.65559 0.0
C2289 C 0.99597 0.45269 0.69014 0.0
C2290 C 0.99566 0.47075 0.70694 0.0
C2291 C 0.97298 0.45642 0.72188 0.0
C2292 C 0.97576 0.47164 0.7393 0.0
C2293 C 0.00124 0.50119 0.74195 0.0
C2294 C 0.02367 0.51576 0.72705 0.0
C2295 C 0.02098 0.5006 0.70962 0.0
H2296 H 0.00346 0.51288 0.75547 0.0
H2297 H 0.0252 0.36676 0.59794 0.0
H2298 H 0.13166 0.90033 0.70444 0.0
H2299 H 0.09074 0.8503 0.69249 0.0
H2300 H 0.16259 0.82984 0.67305 0.0
H2301 H 0.20334 0.87938 0.68542 0.0
H2302 H 0.10919 0.81696 0.64565 0.0
H2303 H 0.13362 0.79961 0.71142 0.0
H2304 H 0.13971 0.81073 0.74636 0.0
H2305 H 0.04333 0.7896 0.751 0.0
H2306 H 0.03685 0.77883 0.71598 0.0
H2307 H 0.03182 0.65701 0.63058 0.0
H2308 H 0.06739 0.71039 0.63945 0.0
H2309 H 0.99476 0.70855 0.67681 0.0
H2310 H 0.95982 0.65472 0.66874 0.0
H2311 H 0.04578 0.73539 0.69464 0.0
H2312 H 0.01748 0.74757 0.63084 0.0
H2313 H 0.00937 0.73906 0.59574 0.0
H2314 H 0.10822 0.77268 0.58652 0.0
H2315 H 0.11688 0.78098 0.62162 0.0
C2316 C 0.13854 0.88528 0.69727 0.0
C2317 C 0.17041 0.89376 0.69522 0.0
C2318 C 0.11531 0.85683 0.69057 0.0
C2319 C 0.12384 0.8367 0.68178 0.0
C2320 C 0.15571 0.84533 0.67959 0.0
C2321 C 0.17884 0.87344 0.68665 0.0
C2322 C 0.09959 0.80569 0.67602 0.0
C2323 C 0.09531 0.79898 0.65627 0.0
C2324 C 0.08109 0.78275 0.68999 0.0
C2325 C 0.08487 0.78878 0.71106 0.0
C2326 C 0.11382 0.79761 0.71986 0.0
C2327 C 0.11733 0.8038 0.73968 0.0
C2328 C 0.09196 0.80097 0.75088 0.0
C2329 C 0.06299 0.79184 0.7423 0.0
C2330 C 0.05938 0.78568 0.72247 0.0
C2331 C 0.02351 0.66808 0.64065 0.0
C2332 C 0.99317 0.65178 0.64903 0.0
C2333 C 0.04374 0.69866 0.64561 0.0
C2334 C 0.03361 0.71377 0.65855 0.0
C2335 C 0.00317 0.69745 0.66682 0.0
C2336 C 0.98323 0.66669 0.66222 0.0
C2337 C 0.05515 0.74617 0.66403 0.0
C2338 C 0.05911 0.75326 0.68384 0.0
C2339 C 0.07288 0.76965 0.65004 0.0
C2340 C 0.06778 0.76462 0.6289 0.0
C2341 C 0.03746 0.75291 0.62136 0.0
C2342 C 0.03276 0.74817 0.60145 0.0
C2343 C 0.05825 0.75525 0.58891 0.0
C2344 C 0.08849 0.76716 0.59625 0.0
C2345 C 0.09332 0.77192 0.61615 0.0
H2346 H 0.05456 0.75157 0.57351 0.0
H2347 H 0.09472 0.80578 0.76623 0.0
H2348 H 0.12108 0.33308 0.69436 0.0
H2349 H 0.17141 0.3393 0.68305 0.0
H2350 H 0.14516 0.2492 0.70676 0.0
H2351 H 0.09321 0.24151 0.71539 0.0
H2352 H 0.21379 0.34489 0.70536 0.0
H2353 H 0.18362 0.23201 0.70159 0.0
H2354 H 0.15224 0.17795 0.69147 0.0
H2355 H 0.14849 0.20839 0.6337 0.0
H2356 H 0.1785 0.26262 0.64382 0.0
H2357 H 0.36684 0.37223 0.66871 0.0
H2358 H 0.3189 0.35414 0.68847 0.0
H2359 H 0.26357 0.32603 0.6367 0.0
H2360 H 0.31114 0.34031 0.61739 0.0
H2361 H 0.24085 0.28206 0.66247 0.0
H2362 H 0.25751 0.39631 0.67341 0.0
H2363 H 0.29444 0.4495 0.68352 0.0
H2364 H 0.32964 0.41436 0.72784 0.0
H2365 H 0.29269 0.3611 0.71801 0.0
C2366 C 0.1257 0.31412 0.69623 0.0
C2367 C 0.10326 0.28656 0.70513 0.0
C2368 C 0.15455 0.3177 0.69001 0.0
C2369 C 0.16244 0.29461 0.69382 0.0
C2370 C 0.13969 0.26685 0.70269 0.0
C2371 C 0.11003 0.26262 0.70792 0.0
C2372 C 0.19554 0.30192 0.69015 0.0
C2373 C 0.21957 0.33093 0.69602 0.0
C2374 C 0.20395 0.2833 0.679 0.0
C2375 C 0.18175 0.25123 0.67372 0.0
C2376 C 0.17504 0.22709 0.68692 0.0
C2377 C 0.15766 0.19646 0.68117 0.0
C2378 C 0.14798 0.18972 0.66201 0.0
C2379 C 0.15561 0.21363 0.64861 0.0
C2380 C 0.17232 0.2443 0.65443 0.0
C2381 C 0.34439 0.36281 0.66161 0.0
C2382 C 0.34263 0.35908 0.64143 0.0
C2383 C 0.31703 0.35298 0.67289 0.0
C2384 C 0.28757 0.33986 0.6641 0.0
C2385 C 0.28604 0.33654 0.64385 0.0
C2386 C 0.31322 0.34524 0.63272 0.0
C2387 C 0.25783 0.32628 0.67569 0.0
C2388 C 0.23488 0.29585 0.67185 0.0
C2389 C 0.25052 0.34332 0.68895 0.0
C2390 C 0.27347 0.37505 0.69444 0.0
C2391 C 0.27358 0.40011 0.68508 0.0
C2392 C 0.29427 0.43019 0.69086 0.0
C2393 C 0.31469 0.43533 0.70613 0.0
C2394 C 0.31411 0.41038 0.71584 0.0
C2395 C 0.2933 0.38029 0.71018 0.0
H2396 H 0.33075 0.45862 0.71056 0.0
H2397 H 0.13482 0.166 0.65751 0.0
H2398 H 0.7464 0.84688 0.70613 0.0
H2399 H 0.7342 0.88591 0.69364 0.0
H2400 H 0.63911 0.81477 0.68271 0.0
H2401 H 0.65102 0.77578 0.69579 0.0
H2402 H 0.68529 0.86969 0.6507 0.0
H2403 H 0.63147 0.84187 0.71453 0.0
H2404 H 0.63076 0.8328 0.74978 0.0
H2405 H 0.70765 0.92473 0.75649 0.0
H2406 H 0.70919 0.93413 0.72117 0.0
H2407 H 0.61329 0.95886 0.62893 0.0
H2408 H 0.62589 0.91931 0.63916 0.0
H2409 H 0.69054 0.9817 0.68095 0.0
H2410 H 0.67639 0.02049 0.67155 0.0
H2411 H 0.66034 0.93011 0.6973 0.0
H2412 H 0.71363 0.9618 0.63574 0.0
H2413 H 0.7203 0.97317 0.60058 0.0
H2414 H 0.65315 0.87883 0.58908 0.0
H2415 H 0.64574 0.86698 0.62418 0.0
C2416 C 0.72307 0.83968 0.7008 0.0
C2417 C 0.69979 0.80849 0.70131 0.0
C2418 C 0.71611 0.86186 0.6938 0.0
C2419 C 0.68585 0.853 0.68727 0.0
C2420 C 0.66262 0.82182 0.68765 0.0
C2421 C 0.66939 0.79971 0.69505 0.0
C2422 C 0.67827 0.87657 0.68065 0.0
C2423 C 0.67948 0.88278 0.66075 0.0
C2424 C 0.67176 0.89405 0.69397 0.0
C2425 C 0.67074 0.88852 0.71519 0.0
C2426 C 0.64848 0.86001 0.72349 0.0
C2427 C 0.64787 0.85484 0.74348 0.0
C2428 C 0.66923 0.87813 0.75535 0.0
C2429 C 0.69118 0.90669 0.74726 0.0
C2430 C 0.69193 0.91194 0.72726 0.0
C2431 C 0.63028 0.96408 0.64023 0.0
C2432 C 0.6439 0.99263 0.64948 0.0
C2433 C 0.63766 0.94157 0.64599 0.0
C2434 C 0.65962 0.94763 0.66062 0.0
C2435 C 0.67349 0.97638 0.66967 0.0
C2436 C 0.66546 0.99856 0.66429 0.0
C2437 C 0.66725 0.92366 0.66704 0.0
C2438 C 0.66618 0.91729 0.68702 0.0
C2439 C 0.6746 0.90649 0.65374 0.0
C2440 C 0.67886 0.9136 0.63261 0.0
C2441 C 0.70007 0.94354 0.62572 0.0
C2442 C 0.70403 0.95006 0.6058 0.0
C2443 C 0.68709 0.92677 0.59261 0.0
C2444 C 0.66621 0.89687 0.59931 0.0
C2445 C 0.66214 0.89024 0.61922 0.0
H2446 H 0.6902 0.93186 0.57719 0.0
H2447 H 0.6687 0.87405 0.77081 0.0
loop_
_geom_bond_atom_site_label_1
_geom_bond_atom_site_label_2
_geom_bond_distance
_geom_bond_site_symmetry_2
_ccdc_geom_bond_type
Mn0 O5 2.095 . S
Mn0 O15 2.162 . S
Mn0 O16 2.297 . S
Mn0 O24 2.385 . S
Mn0 O25 2.209 . S
Mn0 O26 2.073 1_545 S
Mn1 O6 2.121 . S
Mn1 N8 2.257 1_554 S
Mn1 N17 2.282 1_554 S
Mn1 O25 2.215 . S
Mn1 O27 2.117 . S
C2 O24 1.234 . S
C2 O25 1.283 . S
C3 O15 1.281 . S
C3 O16 1.236 . S
C4 O26 1.254 . S
C4 O27 1.264 1_565 S
O5 Mn0 2.095 . S
O5 C14 1.250 . S
O6 Mn1 2.121 . S
O6 C14 1.258 . S
C7 N8 1.326 . S
C7 C11 1.460 . S
C7 H13 0.940 . S
N8 Mn1 2.257 1_556 S
N8 C7 1.326 . S
N8 C12 1.362 . S
C9 C10 1.258 . S
C9 C12 1.431 . S
C9 C29 1.449 . S
C10 C9 1.258 . S
C10 C11 1.477 . S
C10 H30 0.931 . S
C11 C7 1.460 . S
C11 C10 1.477 . S
C11 H31 0.930 . S
C12 N8 1.362 . S
C12 C9 1.431 . S
C12 C22 1.476 . S
H13 C7 0.940 . S
C14 O5 1.250 . S
C14 O6 1.258 . S
O15 Mn0 2.162 . S
O15 C3 1.281 . S
O16 Mn0 2.297 . S
O16 C3 1.236 . S
N17 Mn1 2.282 1_556 S
N17 C18 1.328 . S
N17 C22 1.318 . S
C18 N17 1.328 . S
C18 C19 1.457 . S
C18 H23 0.929 1_556 S
C19 C18 1.457 . S
C19 C20 1.291 . S
C19 H32 0.931 . S
C20 C19 1.291 . S
C20 C21 1.373 . S
C20 H33 0.929 . S
C21 C20 1.373 . S
C21 C22 1.396 . S
C21 C28 1.403 . S
C22 C12 1.476 . S
C22 N17 1.318 . S
C22 C21 1.396 . S
H23 C18 0.929 1_554 S
O24 Mn0 2.385 . S
O24 C2 1.234 . S
O25 Mn0 2.209 . S
O25 Mn1 2.215 . S
O25 C2 1.283 . S
O26 Mn0 2.073 1_565 S
O26 C4 1.254 . S
O27 Mn1 2.117 . S
O27 C4 1.264 1_545 S
C28 C21 1.403 . S
C28 C29 1.399 . S
C28 H34 0.929 . S
C29 C9 1.449 . S
C29 C28 1.399 . S
C29 H35 0.930 . S
H30 C10 0.931 . S
H31 C11 0.930 . S
H32 C19 0.931 . S
H33 C20 0.929 . S
H34 C28 0.929 . S
H35 C29 0.930 . S
Mn36 O41 2.095 . S
Mn36 O51 2.162 . S
Mn36 O52 2.297 . S
Mn36 O60 2.385 . S
Mn36 O61 2.209 . S
Mn36 O62 2.094 . S
Mn37 O42 2.121 . S
Mn37 N44 2.257 1_554 S
Mn37 N53 2.282 1_554 S
Mn37 O61 2.215 . S
Mn37 O63 2.117 . S
C38 O60 1.234 . S
C38 O61 1.283 . S
C39 O51 1.281 . S
C39 O52 1.236 . S
C40 O62 1.240 1_455 S
C40 O63 1.264 1_455 S
O41 Mn36 2.095 . S
O41 C50 1.250 . S
O42 Mn37 2.121 . S
O42 C50 1.258 . S
C43 N44 1.326 . S
C43 C47 1.460 . S
C43 H49 0.929 1_556 S
N44 Mn37 2.257 1_556 S
N44 C43 1.326 . S
N44 C48 1.362 . S
C45 C46 1.258 . S
C45 C48 1.431 . S
C45 C65 1.449 . S
C46 C45 1.258 . S
C46 C47 1.477 . S
C46 H66 0.931 . S
C47 C43 1.460 . S
C47 C46 1.477 . S
C47 H67 0.930 . S
C48 N44 1.362 . S
C48 C45 1.431 . S
C48 C58 1.476 . S
H49 C43 0.929 1_554 S
C50 O41 1.250 . S
C50 O42 1.258 . S
O51 Mn36 2.162 . S
O51 C39 1.281 . S
O52 Mn36 2.297 . S
O52 C39 1.236 . S
N53 Mn37 2.282 1_556 S
N53 C54 1.328 . S
N53 C58 1.318 . S
C54 N53 1.328 . S
C54 C55 1.457 . S
C54 H59 0.929 1_556 S
C55 C54 1.457 . S
C55 C56 1.291 . S
C55 H68 0.931 . S
C56 C55 1.291 . S
C56 C57 1.373 . S
C56 H69 0.929 . S
C57 C56 1.373 . S
C57 C58 1.396 . S
C57 C64 1.403 . S
C58 C48 1.476 . S
C58 N53 1.318 . S
C58 C57 1.396 . S
H59 C54 0.929 1_554 S
O60 Mn36 2.385 . S
O60 C38 1.234 . S
O61 Mn36 2.209 . S
O61 Mn37 2.215 . S
O61 C38 1.283 . S
O62 Mn36 2.094 . S
O62 C40 1.240 1_655 S
O63 Mn37 2.117 . S
O63 C40 1.264 1_655 S
C64 C57 1.403 . S
C64 C65 1.399 . S
C64 H70 0.929 . S
C65 C45 1.449 . S
C65 C64 1.399 . S
C65 H71 0.930 . S
H66 C46 0.931 . S
H67 C47 0.930 . S
H68 C55 0.931 . S
H69 C56 0.929 . S
H70 C64 0.929 . S
H71 C65 0.930 . S
Mn72 O77 2.095 . S
Mn72 O87 2.162 . S
Mn72 O88 2.297 . S
Mn72 O96 2.385 . S
Mn72 O97 2.209 . S
Mn72 O98 2.094 . S
Mn73 O78 2.121 . S
Mn73 N80 2.257 1_554 S
Mn73 N89 2.282 1_554 S
Mn73 O97 2.215 . S
Mn73 O99 2.117 . S
C74 O96 1.234 . S
C74 O97 1.283 . S
C75 O87 1.281 . S
C75 O88 1.236 . S
C76 O98 1.240 . S
C76 O99 1.264 . S
O77 Mn72 2.095 . S
O77 C86 1.250 . S
O78 Mn73 2.121 . S
O78 C86 1.258 . S
C79 N80 1.326 . S
C79 C83 1.460 . S
C79 H85 0.929 . S
N80 Mn73 2.257 1_556 S
N80 C79 1.326 . S
N80 C84 1.362 . S
C81 C82 1.258 . S
C81 C84 1.431 . S
C81 C101 1.449 . S
C82 C81 1.258 . S
C82 C83 1.477 . S
C82 H102 0.931 . S
C83 C79 1.460 . S
C83 C82 1.477 . S
C83 H103 0.930 . S
C84 N80 1.362 . S
C84 C81 1.431 . S
C84 C94 1.476 . S
H85 C79 0.929 . S
C86 O77 1.250 . S
C86 O78 1.258 . S
O87 Mn72 2.162 . S
O87 C75 1.281 . S
O88 Mn72 2.297 . S
O88 C75 1.236 . S
N89 Mn73 2.282 1_556 S
N89 C90 1.328 . S
N89 C94 1.318 . S
C90 N89 1.328 . S
C90 C91 1.457 . S
C90 H95 0.902 1_556 S
C91 C90 1.457 . S
C91 C92 1.291 . S
C91 H104 0.931 . S
C92 C91 1.291 . S
C92 C93 1.373 . S
C92 H105 0.929 . S
C93 C92 1.373 . S
C93 C94 1.396 . S
C93 C100 1.403 . S
C94 C84 1.476 . S
C94 N89 1.318 . S
C94 C93 1.396 . S
H95 C90 0.902 1_554 S
O96 Mn72 2.385 . S
O96 C74 1.234 . S
O97 Mn72 2.209 . S
O97 Mn73 2.215 . S
O97 C74 1.283 . S
O98 Mn72 2.094 . S
O98 C76 1.240 . S
O99 Mn73 2.117 . S
O99 C76 1.264 . S
C100 C93 1.403 . S
C100 C101 1.399 . S
C100 H106 0.929 . S
C101 C81 1.449 . S
C101 C100 1.399 . S
C101 H107 0.930 . S
H102 C82 0.931 . S
H103 C83 0.930 . S
H104 C91 0.931 . S
H105 C92 0.929 . S
H106 C100 0.929 . S
H107 C101 0.930 . S
Mn108 O113 2.095 . S
Mn108 O123 2.162 . S
Mn108 O124 2.297 . S
Mn108 O132 2.385 . S
Mn108 O133 2.209 . S
Mn108 O134 2.094 1_565 S
Mn109 O114 2.121 . S
Mn109 N116 2.257 1_556 S
Mn109 N125 2.282 1_556 S
Mn109 O133 2.215 . S
Mn109 O135 2.117 1_565 S
C110 O132 1.234 . S
C110 O133 1.283 . S
C111 O123 1.281 . S
C111 O124 1.236 . S
C112 O134 1.240 . S
C112 O135 1.264 . S
O113 Mn108 2.095 . S
O113 C122 1.250 . S
O114 Mn109 2.121 . S
O114 C122 1.258 . S
C115 N116 1.326 . S
C115 C119 1.460 . S
C115 H121 0.930 . S
N116 Mn109 2.257 1_554 S
N116 C115 1.326 . S
N116 C120 1.362 . S
C117 C118 1.258 . S
C117 C120 1.431 . S
C117 C137 1.449 . S
C118 C117 1.258 . S
C118 C119 1.477 . S
C118 H138 0.931 . S
C119 C115 1.460 . S
C119 C118 1.477 . S
C119 H139 0.930 . S
C120 N116 1.362 . S
C120 C117 1.431 . S
C120 C130 1.476 . S
H121 C115 0.930 . S
C122 O113 1.250 . S
C122 O114 1.258 . S
O123 Mn108 2.162 . S
O123 C111 1.281 . S
O124 Mn108 2.297 . S
O124 C111 1.236 . S
N125 Mn109 2.282 1_554 S
N125 C126 1.328 . S
N125 C130 1.318 . S
C126 N125 1.328 . S
C126 C127 1.457 . S
C126 H131 0.929 1_554 S
C127 C126 1.457 . S
C127 C128 1.291 . S
C127 H140 0.931 . S
C128 C127 1.291 . S
C128 C129 1.373 . S
C128 H141 0.929 . S
C129 C128 1.373 . S
C129 C130 1.396 . S
C129 C136 1.403 . S
C130 C120 1.476 . S
C130 N125 1.318 . S
C130 C129 1.396 . S
H131 C126 0.929 1_556 S
O132 Mn108 2.385 . S
O132 C110 1.234 . S
O133 Mn108 2.209 . S
O133 Mn109 2.215 . S
O133 C110 1.283 . S
O134 Mn108 2.094 1_545 S
O134 C112 1.240 . S
O135 Mn109 2.117 1_545 S
O135 C112 1.264 . S
C136 C129 1.403 . S
C136 C137 1.399 . S
C136 H142 0.929 . S
C137 C117 1.449 . S
C137 C136 1.399 . S
C137 H143 0.930 . S
H138 C118 0.931 . S
H139 C119 0.930 . S
H140 C127 0.931 . S
H141 C128 0.929 . S
H142 C136 0.929 . S
H143 C137 0.930 . S
Mn144 O149 2.095 . S
Mn144 O159 2.162 . S
Mn144 O160 2.297 . S
Mn144 O168 2.385 1_455 S
Mn144 O169 2.243 . S
Mn144 O170 2.094 . S
Mn145 O150 2.121 . S
Mn145 N152 2.257 1_455 S
Mn145 N161 2.264 1_455 S
Mn145 O169 2.216 . S
Mn145 O171 2.117 . S
C146 O168 1.234 . S
C146 O169 1.271 1_655 S
C147 O159 1.281 . S
C147 O160 1.236 . S
C148 O170 1.240 . S
C148 O171 1.264 . S
O149 Mn144 2.095 . S
O149 C158 1.250 . S
O150 Mn145 2.121 . S
O150 C158 1.258 . S
C151 N152 1.326 . S
C151 C155 1.460 . S
C151 H157 0.929 . S
N152 Mn145 2.257 1_655 S
N152 C151 1.326 . S
N152 C156 1.362 . S
C153 C154 1.258 . S
C153 C156 1.431 . S
C153 C173 1.449 . S
C154 C153 1.258 . S
C154 C155 1.477 . S
C154 H174 0.931 . S
C155 C151 1.460 . S
C155 C154 1.477 . S
C155 H175 0.930 . S
C156 N152 1.362 . S
C156 C153 1.431 . S
C156 C166 1.476 . S
H157 C151 0.929 . S
C158 O149 1.250 . S
C158 O150 1.258 . S
O159 Mn144 2.162 . S
O159 C147 1.281 . S
O160 Mn144 2.297 . S
O160 C147 1.236 . S
N161 Mn145 2.264 1_655 S
N161 C162 1.325 1_655 S
N161 C166 1.341 . S
C162 N161 1.325 1_455 S
C162 C163 1.457 1_455 S
C162 H167 0.929 . S
C163 C162 1.457 1_655 S
C163 C164 1.291 . S
C163 H176 0.931 1_556 S
C164 C163 1.291 . S
C164 C165 1.373 . S
C164 H177 0.929 . S
C165 C164 1.373 . S
C165 C166 1.396 . S
C165 C172 1.403 . S
C166 C156 1.476 . S
C166 N161 1.341 . S
C166 C165 1.396 . S
H167 C162 0.929 . S
O168 Mn144 2.385 1_655 S
O168 C146 1.234 . S
O169 Mn144 2.243 . S
O169 Mn145 2.216 . S
O169 C146 1.271 1_455 S
O170 Mn144 2.094 . S
O170 C148 1.240 . S
O171 Mn145 2.117 . S
O171 C148 1.264 . S
C172 C165 1.403 . S
C172 C173 1.399 . S
C172 H178 0.929 . S
C173 C153 1.449 . S
C173 C172 1.399 . S
C173 H179 0.930 . S
H174 C154 0.931 . S
H175 C155 0.930 . S
H176 C163 0.931 1_554 S
H177 C164 0.929 . S
H178 C172 0.929 . S
H179 C173 0.930 . S
Mn180 O185 2.095 . S
Mn180 O195 2.162 . S
Mn180 O196 2.297 . S
Mn180 O204 2.385 . S
Mn180 O205 2.209 . S
Mn180 O206 2.094 . S
Mn181 O186 2.121 . S
Mn181 N188 2.257 1_556 S
Mn181 N197 2.282 1_556 S
Mn181 O205 2.215 . S
Mn181 O207 2.117 . S
C182 O204 1.234 . S
C182 O205 1.283 . S
C183 O195 1.281 . S
C183 O196 1.236 . S
C184 O206 1.240 . S
C184 O207 1.264 . S
O185 Mn180 2.095 . S
O185 C194 1.250 . S
O186 Mn181 2.121 . S
O186 C194 1.258 . S
C187 N188 1.326 . S
C187 C191 1.460 . S
C187 H193 0.929 1_554 S
N188 Mn181 2.257 1_554 S
N188 C187 1.326 . S
N188 C192 1.362 . S
C189 C190 1.258 . S
C189 C192 1.431 . S
C189 C209 1.449 . S
C190 C189 1.258 . S
C190 C191 1.477 . S
C190 H210 0.931 . S
C191 C187 1.460 . S
C191 C190 1.477 . S
C191 H211 0.930 . S
C192 N188 1.362 . S
C192 C189 1.431 . S
C192 C202 1.476 . S
H193 C187 0.929 1_556 S
C194 O185 1.250 . S
C194 O186 1.258 . S
O195 Mn180 2.162 . S
O195 C183 1.281 . S
O196 Mn180 2.297 . S
O196 C183 1.236 . S
N197 Mn181 2.282 1_554 S
N197 C198 1.328 . S
N197 C202 1.318 . S
C198 N197 1.328 . S
C198 C199 1.457 . S
C198 H203 0.929 1_554 S
C199 C198 1.457 . S
C199 C200 1.291 . S
C199 H212 0.931 . S
C200 C199 1.291 . S
C200 C201 1.373 . S
C200 H213 0.929 . S
C201 C200 1.373 . S
C201 C202 1.396 . S
C201 C208 1.403 . S
C202 C192 1.476 . S
C202 N197 1.318 . S
C202 C201 1.396 . S
H203 C198 0.929 1_556 S
O204 Mn180 2.385 . S
O204 C182 1.234 . S
O205 Mn180 2.209 . S
O205 Mn181 2.215 . S
O205 C182 1.283 . S
O206 Mn180 2.094 . S
O206 C184 1.240 . S
O207 Mn181 2.117 . S
O207 C184 1.264 . S
C208 C201 1.403 . S
C208 C209 1.399 . S
C208 H214 0.929 . S
C209 C189 1.449 . S
C209 C208 1.399 . S
C209 H215 0.930 . S
H210 C190 0.931 . S
H211 C191 0.930 . S
H212 C199 0.931 . S
H213 C200 0.929 . S
H214 C208 0.929 . S
H215 C209 0.930 . S
Mn216 O221 2.095 1_655 S
Mn216 O231 2.162 . S
Mn216 O232 2.297 1_655 S
Mn216 O240 2.385 . S
Mn216 O241 2.209 1_655 S
Mn216 O242 2.094 . S
Mn217 O222 2.121 . S
Mn217 N224 2.257 . S
Mn217 N233 2.282 1_455 S
Mn217 O241 2.215 . S
Mn217 O243 2.117 1_455 S
C218 O240 1.234 . S
C218 O241 1.283 1_655 S
C219 O231 1.281 1_455 S
C219 O232 1.236 . S
C220 O242 1.240 . S
C220 O243 1.264 . S
O221 Mn216 2.095 1_455 S
O221 C230 1.250 . S
O222 Mn217 2.121 . S
O222 C230 1.258 . S
C223 N224 1.326 . S
C223 C227 1.460 . S
C223 H229 0.929 . S
N224 Mn217 2.257 . S
N224 C223 1.326 . S
N224 C228 1.362 . S
C225 C226 1.258 . S
C225 C228 1.431 . S
C225 C245 1.449 . S
C226 C225 1.258 . S
C226 C227 1.477 . S
C226 H246 0.931 . S
C227 C223 1.460 . S
C227 C226 1.477 . S
C227 H247 0.930 . S
C228 N224 1.362 . S
C228 C225 1.431 . S
C228 C238 1.476 1_455 S
H229 C223 0.929 . S
C230 O221 1.250 . S
C230 O222 1.258 . S
O231 Mn216 2.162 . S
O231 C219 1.281 1_655 S
O232 Mn216 2.297 1_455 S
O232 C219 1.236 . S
N233 Mn217 2.282 1_655 S
N233 C234 1.328 . S
N233 C238 1.318 . S
C234 N233 1.328 . S
C234 C235 1.457 . S
C234 H239 0.929 . S
C235 C234 1.457 . S
C235 C236 1.291 . S
C235 H248 0.931 . S
C236 C235 1.291 . S
C236 C237 1.373 . S
C236 H249 0.929 . S
C237 C236 1.373 . S
C237 C238 1.396 . S
C237 C244 1.403 . S
C238 C228 1.476 1_655 S
C238 N233 1.318 . S
C238 C237 1.396 . S
H239 C234 0.929 . S
O240 Mn216 2.385 . S
O240 C218 1.234 . S
O241 Mn216 2.209 1_455 S
O241 Mn217 2.215 . S
O241 C218 1.283 1_455 S
O242 Mn216 2.094 . S
O242 C220 1.240 . S
O243 Mn217 2.117 1_655 S
O243 C220 1.264 . S
C244 C237 1.403 . S
C244 C245 1.399 1_655 S
C244 H250 0.929 . S
C245 C225 1.449 . S
C245 C244 1.399 1_455 S
C245 H251 0.930 . S
H246 C226 0.931 . S
H247 C227 0.930 . S
H248 C235 0.931 . S
H249 C236 0.929 . S
H250 C244 0.929 . S
H251 C245 0.930 . S
Mn252 O257 2.095 . S
Mn252 O267 2.162 . S
Mn252 O268 2.297 . S
Mn252 O276 2.385 . S
Mn252 O277 2.209 . S
Mn252 O278 2.094 . S
Mn253 O258 2.121 . S
Mn253 N260 2.257 . S
Mn253 N269 2.282 . S
Mn253 O277 2.215 . S
Mn253 O279 2.117 . S
C254 O276 1.234 . S
C254 O277 1.283 . S
C255 O267 1.281 . S
C255 O268 1.236 . S
C256 O278 1.240 . S
C256 O279 1.264 . S
O257 Mn252 2.095 . S
O257 C266 1.250 . S
O258 Mn253 2.121 . S
O258 C266 1.258 . S
C259 N260 1.326 . S
C259 C263 1.460 . S
C259 H265 0.929 . S
N260 Mn253 2.257 . S
N260 C259 1.326 . S
N260 C264 1.362 . S
C261 C262 1.258 . S
C261 C264 1.431 . S
C261 C281 1.449 . S
C262 C261 1.258 . S
C262 C263 1.477 . S
C262 H282 0.931 . S
C263 C259 1.460 . S
C263 C262 1.477 . S
C263 H283 0.930 . S
C264 N260 1.362 . S
C264 C261 1.431 . S
C264 C274 1.476 . S
H265 C259 0.929 . S
C266 O257 1.250 . S
C266 O258 1.258 . S
O267 Mn252 2.162 . S
O267 C255 1.281 . S
O268 Mn252 2.297 . S
O268 C255 1.236 . S
N269 Mn253 2.282 . S
N269 C270 1.328 . S
N269 C274 1.318 . S
C270 N269 1.328 . S
C270 C271 1.457 . S
C270 H275 0.929 . S
C271 C270 1.457 . S
C271 C272 1.291 . S
C271 H284 0.931 . S
C272 C271 1.291 . S
C272 C273 1.373 . S
C272 H285 0.929 . S
C273 C272 1.373 . S
C273 C274 1.396 . S
C273 C280 1.403 . S
C274 C264 1.476 . S
C274 N269 1.318 . S
C274 C273 1.396 . S
H275 C270 0.929 . S
O276 Mn252 2.385 . S
O276 C254 1.234 . S
O277 Mn252 2.209 . S
O277 Mn253 2.215 . S
O277 C254 1.283 . S
O278 Mn252 2.094 . S
O278 C256 1.240 . S
O279 Mn253 2.117 . S
O279 C256 1.264 . S
C280 C273 1.403 . S
C280 C281 1.399 . S
C280 H286 0.929 . S
C281 C261 1.449 . S
C281 C280 1.399 . S
C281 H287 0.930 . S
H282 C262 0.931 . S
H283 C263 0.930 . S
H284 C271 0.931 . S
H285 C272 0.929 . S
H286 C280 0.929 . S
H287 C281 0.930 . S
Mn288 O293 2.095 1_545 S
Mn288 O303 2.162 . S
Mn288 O304 2.297 1_545 S
Mn288 O312 2.385 . S
Mn288 O313 2.209 1_545 S
Mn288 O314 2.094 . S
Mn289 O294 2.121 . S
Mn289 N296 2.257 . S
Mn289 N305 2.282 1_565 S
Mn289 O313 2.215 . S
Mn289 O315 2.117 1_565 S
C290 O312 1.234 . S
C290 O313 1.283 1_545 S
C291 O303 1.281 1_565 S
C291 O304 1.236 . S
C292 O314 1.240 . S
C292 O315 1.264 . S
O293 Mn288 2.095 1_565 S
O293 C302 1.250 . S
O294 Mn289 2.121 . S
O294 C302 1.258 . S
C295 N296 1.326 . S
C295 C299 1.460 . S
C295 H301 0.929 . S
N296 Mn289 2.257 . S
N296 C295 1.326 . S
N296 C300 1.362 . S
C297 C298 1.258 . S
C297 C300 1.431 . S
C297 C317 1.449 . S
C298 C297 1.258 . S
C298 C299 1.477 . S
C298 H318 0.931 . S
C299 C295 1.460 . S
C299 C298 1.477 . S
C299 H319 0.930 . S
C300 N296 1.362 . S
C300 C297 1.431 . S
C300 C310 1.476 1_565 S
H301 C295 0.929 . S
C302 O293 1.250 . S
C302 O294 1.258 . S
O303 Mn288 2.162 . S
O303 C291 1.281 1_545 S
O304 Mn288 2.297 1_565 S
O304 C291 1.236 . S
N305 Mn289 2.282 1_545 S
N305 C306 1.328 . S
N305 C310 1.318 . S
C306 N305 1.328 . S
C306 C307 1.457 . S
C306 H311 0.929 . S
C307 C306 1.457 . S
C307 C308 1.291 . S
C307 H320 0.931 . S
C308 C307 1.291 . S
C308 C309 1.373 . S
C308 H321 0.929 . S
C309 C308 1.373 . S
C309 C310 1.396 . S
C309 C316 1.403 . S
C310 C300 1.476 1_545 S
C310 N305 1.318 . S
C310 C309 1.396 . S
H311 C306 0.929 . S
O312 Mn288 2.385 . S
O312 C290 1.234 . S
O313 Mn288 2.209 1_565 S
O313 Mn289 2.215 . S
O313 C290 1.283 1_565 S
O314 Mn288 2.094 . S
O314 C292 1.240 . S
O315 Mn289 2.117 1_545 S
O315 C292 1.264 . S
C316 C309 1.403 . S
C316 C317 1.399 1_545 S
C316 H322 0.929 . S
C317 C297 1.449 . S
C317 C316 1.399 1_565 S
C317 H323 0.930 . S
H318 C298 0.931 . S
H319 C299 0.930 . S
H320 C307 0.931 . S
H321 C308 0.929 . S
H322 C316 0.929 . S
H323 C317 0.930 . S
Mn324 O329 2.095 . S
Mn324 O339 2.162 . S
Mn324 O340 2.297 . S
Mn324 O348 2.385 . S
Mn324 O349 2.209 . S
Mn324 O350 2.094 . S
Mn325 O330 2.121 . S
Mn325 N332 2.257 . S
Mn325 N341 2.282 . S
Mn325 O349 2.215 . S
Mn325 O351 2.117 . S
C326 O348 1.234 . S
C326 O349 1.283 . S
C327 O339 1.281 . S
C327 O340 1.236 . S
C328 O350 1.240 . S
C328 O351 1.264 . S
O329 Mn324 2.095 . S
O329 C338 1.250 . S
O330 Mn325 2.121 . S
O330 C338 1.258 . S
C331 N332 1.326 . S
C331 C335 1.460 . S
C331 H337 0.929 . S
N332 Mn325 2.257 . S
N332 C331 1.326 . S
N332 C336 1.362 . S
C333 C334 1.258 . S
C333 C336 1.431 . S
C333 C353 1.449 . S
C334 C333 1.258 . S
C334 C335 1.477 . S
C334 H354 0.931 . S
C335 C331 1.460 . S
C335 C334 1.477 . S
C335 H355 0.930 . S
C336 N332 1.362 . S
C336 C333 1.431 . S
C336 C346 1.476 . S
H337 C331 0.929 . S
C338 O329 1.250 . S
C338 O330 1.258 . S
O339 Mn324 2.162 . S
O339 C327 1.281 . S
O340 Mn324 2.297 . S
O340 C327 1.236 . S
N341 Mn325 2.282 . S
N341 C342 1.328 . S
N341 C346 1.318 . S
C342 N341 1.328 . S
C342 C343 1.457 . S
C342 H347 0.929 . S
C343 C342 1.457 . S
C343 C344 1.291 . S
C343 H356 0.931 . S
C344 C343 1.291 . S
C344 C345 1.373 . S
C344 H357 0.929 . S
C345 C344 1.373 . S
C345 C346 1.396 . S
C345 C352 1.403 . S
C346 C336 1.476 . S
C346 N341 1.318 . S
C346 C345 1.396 . S
H347 C342 0.929 . S
O348 Mn324 2.385 . S
O348 C326 1.234 . S
O349 Mn324 2.209 . S
O349 Mn325 2.215 . S
O349 C326 1.283 . S
O350 Mn324 2.094 . S
O350 C328 1.240 . S
O351 Mn325 2.117 . S
O351 C328 1.264 . S
C352 C345 1.403 . S
C352 C353 1.399 . S
C352 H358 0.929 . S
C353 C333 1.449 . S
C353 C352 1.399 . S
C353 H359 0.930 . S
H354 C334 0.931 . S
H355 C335 0.930 . S
H356 C343 0.931 . S
H357 C344 0.929 . S
H358 C352 0.929 . S
H359 C353 0.930 . S
Mn360 O365 2.095 . S
Mn360 O375 2.162 1_545 S
Mn360 O376 2.297 1_545 S
Mn360 O384 2.385 . S
Mn360 O385 2.209 . S
Mn360 O386 2.094 . S
Mn361 O366 2.121 . S
Mn361 N368 2.257 . S
Mn361 N377 2.282 . S
Mn361 O385 2.215 . S
Mn361 O387 2.117 . S
C362 O384 1.234 . S
C362 O385 1.283 . S
C363 O375 1.281 . S
C363 O376 1.236 . S
C364 O386 1.240 . S
C364 O387 1.264 . S
O365 Mn360 2.095 . S
O365 C374 1.250 . S
O366 Mn361 2.121 . S
O366 C374 1.258 . S
C367 N368 1.326 . S
C367 C371 1.460 . S
C367 H373 0.929 . S
N368 Mn361 2.257 . S
N368 C367 1.326 . S
N368 C372 1.362 . S
C369 C370 1.258 . S
C369 C372 1.431 . S
C369 C389 1.449 . S
C370 C369 1.258 . S
C370 C371 1.477 . S
C370 H390 0.931 . S
C371 C367 1.460 . S
C371 C370 1.477 . S
C371 H391 0.930 . S
C372 N368 1.362 . S
C372 C369 1.431 . S
C372 C382 1.476 . S
H373 C367 0.929 . S
C374 O365 1.250 . S
C374 O366 1.258 . S
O375 Mn360 2.162 1_565 S
O375 C363 1.281 . S
O376 Mn360 2.297 1_565 S
O376 C363 1.236 . S
N377 Mn361 2.282 . S
N377 C378 1.328 . S
N377 C382 1.318 . S
C378 N377 1.328 . S
C378 C379 1.457 . S
C378 H383 0.929 . S
C379 C378 1.457 . S
C379 C380 1.291 . S
C379 H392 0.931 . S
C380 C379 1.291 . S
C380 C381 1.373 . S
C380 H393 0.929 . S
C381 C380 1.373 . S
C381 C382 1.396 . S
C381 C388 1.403 . S
C382 C372 1.476 . S
C382 N377 1.318 . S
C382 C381 1.396 . S
H383 C378 0.929 . S
O384 Mn360 2.385 . S
O384 C362 1.234 . S
O385 Mn360 2.209 . S
O385 Mn361 2.215 . S
O385 C362 1.283 . S
O386 Mn360 2.094 . S
O386 C364 1.240 . S
O387 Mn361 2.117 . S
O387 C364 1.264 . S
C388 C381 1.403 . S
C388 C389 1.399 . S
C388 H394 0.929 . S
C389 C369 1.449 . S
C389 C388 1.399 . S
C389 H395 0.930 . S
H390 C370 0.931 . S
H391 C371 0.930 . S
H392 C379 0.931 . S
H393 C380 0.929 . S
H394 C388 0.929 . S
H395 C389 0.930 . S
Mn396 O401 2.066 1_655 S
Mn396 O411 2.162 . S
Mn396 O412 2.297 . S
Mn396 O420 2.385 . S
Mn396 O421 2.209 . S
Mn396 O422 2.094 . S
Mn397 O402 2.121 1_655 S
Mn397 N404 2.257 . S
Mn397 N413 2.282 . S
Mn397 O421 2.215 . S
Mn397 O423 2.117 . S
C398 O420 1.234 . S
C398 O421 1.283 . S
C399 O411 1.281 . S
C399 O412 1.236 . S
C400 O422 1.240 . S
C400 O423 1.264 . S
O401 Mn396 2.066 1_455 S
O401 C410 1.253 . S
O402 Mn397 2.121 1_455 S
O402 C410 1.258 . S
C403 N404 1.326 . S
C403 C407 1.460 . S
C403 H409 0.929 . S
N404 Mn397 2.257 . S
N404 C403 1.326 . S
N404 C408 1.362 . S
C405 C406 1.258 . S
C405 C408 1.431 . S
C405 C425 1.449 . S
C406 C405 1.258 . S
C406 C407 1.477 . S
C406 H426 0.931 . S
C407 C403 1.460 . S
C407 C406 1.477 . S
C407 H427 0.930 . S
C408 N404 1.362 . S
C408 C405 1.431 . S
C408 C418 1.476 . S
H409 C403 0.929 . S
C410 O401 1.253 . S
C410 O402 1.258 . S
O411 Mn396 2.162 . S
O411 C399 1.281 . S
O412 Mn396 2.297 . S
O412 C399 1.236 . S
N413 Mn397 2.282 . S
N413 C414 1.328 . S
N413 C418 1.318 . S
C414 N413 1.328 . S
C414 C415 1.457 . S
C414 H419 0.929 . S
C415 C414 1.457 . S
C415 C416 1.291 . S
C415 H428 0.931 . S
C416 C415 1.291 . S
C416 C417 1.373 . S
C416 H429 0.929 . S
C417 C416 1.373 . S
C417 C418 1.396 . S
C417 C424 1.403 . S
C418 C408 1.476 . S
C418 N413 1.318 . S
C418 C417 1.396 . S
H419 C414 0.929 . S
O420 Mn396 2.385 . S
O420 C398 1.234 . S
O421 Mn396 2.209 . S
O421 Mn397 2.215 . S
O421 C398 1.283 . S
O422 Mn396 2.094 . S
O422 C400 1.240 . S
O423 Mn397 2.117 . S
O423 C400 1.264 . S
C424 C417 1.403 . S
C424 C425 1.399 . S
C424 H430 0.929 . S
C425 C405 1.449 . S
C425 C424 1.399 . S
C425 H431 0.930 . S
H426 C406 0.931 . S
H427 C407 0.930 . S
H428 C415 0.931 . S
H429 C416 0.929 . S
H430 C424 0.929 . S
H431 C425 0.930 . S
Mn432 O437 2.095 . S
Mn432 O447 2.162 . S
Mn432 O448 2.297 . S
Mn432 O456 2.385 . S
Mn432 O457 2.209 . S
Mn432 O458 2.094 . S
Mn433 O438 2.121 . S
Mn433 N440 2.257 . S
Mn433 N449 2.282 . S
Mn433 O457 2.215 . S
Mn433 O459 2.117 . S
C434 O456 1.234 . S
C434 O457 1.283 . S
C435 O447 1.281 . S
C435 O448 1.236 . S
C436 O458 1.240 . S
C436 O459 1.264 . S
O437 Mn432 2.095 . S
O437 C446 1.250 . S
O438 Mn433 2.121 . S
O438 C446 1.258 . S
C439 N440 1.326 . S
C439 C443 1.460 . S
C439 H445 0.929 . S
N440 Mn433 2.257 . S
N440 C439 1.326 . S
N440 C444 1.362 . S
C441 C442 1.258 . S
C441 C444 1.431 . S
C441 C461 1.449 . S
C442 C441 1.258 . S
C442 C443 1.477 . S
C442 H462 0.931 . S
C443 C439 1.460 . S
C443 C442 1.477 . S
C443 H463 0.930 . S
C444 N440 1.362 . S
C444 C441 1.431 . S
C444 C454 1.476 . S
H445 C439 0.929 . S
C446 O437 1.250 . S
C446 O438 1.258 . S
O447 Mn432 2.162 . S
O447 C435 1.281 . S
O448 Mn432 2.297 . S
O448 C435 1.236 . S
N449 Mn433 2.282 . S
N449 C450 1.328 . S
N449 C454 1.318 . S
C450 N449 1.328 . S
C450 C451 1.457 . S
C450 H455 0.929 . S
C451 C450 1.457 . S
C451 C452 1.291 . S
C451 H464 0.931 . S
C452 C451 1.291 . S
C452 C453 1.373 . S
C452 H465 0.929 . S
C453 C452 1.373 . S
C453 C454 1.396 . S
C453 C460 1.403 . S
C454 C444 1.476 . S
C454 N449 1.318 . S
C454 C453 1.396 . S
H455 C450 0.929 . S
O456 Mn432 2.385 . S
O456 C434 1.234 . S
O457 Mn432 2.209 . S
O457 Mn433 2.215 . S
O457 C434 1.283 . S
O458 Mn432 2.094 . S
O458 C436 1.240 . S
O459 Mn433 2.117 . S
O459 C436 1.264 . S
C460 C453 1.403 . S
C460 C461 1.399 . S
C460 H466 0.929 . S
C461 C441 1.449 . S
C461 C460 1.399 . S
C461 H467 0.930 . S
H462 C442 0.931 . S
H463 C443 0.930 . S
H464 C451 0.931 . S
H465 C452 0.929 . S
H466 C460 0.929 . S
H467 C461 0.930 . S
Mn468 O473 2.095 . S
Mn468 O483 2.162 . S
Mn468 O484 2.297 . S
Mn468 O492 2.385 . S
Mn468 O493 2.209 . S
Mn468 O494 2.094 . S
Mn469 O474 2.121 . S
Mn469 N476 2.257 . S
Mn469 N485 2.282 . S
Mn469 O493 2.215 . S
Mn469 O495 2.117 . S
C470 O492 1.234 . S
C470 O493 1.283 . S
C471 O483 1.281 . S
C471 O484 1.236 . S
C472 O494 1.240 . S
C472 O495 1.264 . S
O473 Mn468 2.095 . S
O473 C482 1.250 1_565 S
O474 Mn469 2.121 . S
O474 C482 1.258 1_565 S
C475 N476 1.326 . S
C475 C479 1.460 . S
C475 H481 0.929 . S
N476 Mn469 2.257 . S
N476 C475 1.326 . S
N476 C480 1.362 . S
C477 C478 1.258 . S
C477 C480 1.431 . S
C477 C497 1.449 . S
C478 C477 1.258 . S
C478 C479 1.477 . S
C478 H498 0.931 . S
C479 C475 1.460 . S
C479 C478 1.477 . S
C479 H499 0.930 . S
C480 N476 1.362 . S
C480 C477 1.431 . S
C480 C490 1.476 . S
H481 C475 0.929 . S
C482 O473 1.250 1_545 S
C482 O474 1.258 1_545 S
O483 Mn468 2.162 . S
O483 C471 1.281 . S
O484 Mn468 2.297 . S
O484 C471 1.236 . S
N485 Mn469 2.282 . S
N485 C486 1.328 . S
N485 C490 1.318 . S
C486 N485 1.328 . S
C486 C487 1.457 . S
C486 H491 0.929 . S
C487 C486 1.457 . S
C487 C488 1.291 . S
C487 H500 0.931 . S
C488 C487 1.291 . S
C488 C489 1.373 . S
C488 H501 0.929 . S
C489 C488 1.373 . S
C489 C490 1.396 . S
C489 C496 1.403 . S
C490 C480 1.476 . S
C490 N485 1.318 . S
C490 C489 1.396 . S
H491 C486 0.929 . S
O492 Mn468 2.385 . S
O492 C470 1.234 . S
O493 Mn468 2.209 . S
O493 Mn469 2.215 . S
O493 C470 1.283 . S
O494 Mn468 2.094 . S
O494 C472 1.240 . S
O495 Mn469 2.117 . S
O495 C472 1.264 . S
C496 C489 1.403 . S
C496 C497 1.399 . S
C496 H502 0.929 . S
C497 C477 1.449 . S
C497 C496 1.399 . S
C497 H503 0.930 . S
H498 C478 0.931 . S
H499 C479 0.930 . S
H500 C487 0.931 . S
H501 C488 0.929 . S
H502 C496 0.929 . S
H503 C497 0.930 . S
Mn504 O509 2.095 1_455 S
Mn504 O519 2.162 . S
Mn504 O520 2.297 . S
Mn504 O528 2.385 . S
Mn504 O529 2.209 . S
Mn504 O530 2.094 . S
Mn505 O510 2.121 1_455 S
Mn505 N512 2.257 . S
Mn505 N521 2.282 . S
Mn505 O529 2.215 . S
Mn505 O531 2.117 . S
C506 O528 1.234 . S
C506 O529 1.283 . S
C507 O519 1.281 . S
C507 O520 1.236 . S
C508 O530 1.240 . S
C508 O531 1.264 . S
O509 Mn504 2.095 1_655 S
O509 C518 1.250 . S
O510 Mn505 2.121 1_655 S
O510 C518 1.258 . S
C511 N512 1.326 . S
C511 C515 1.460 . S
C511 H517 0.929 . S
N512 Mn505 2.257 . S
N512 C511 1.326 . S
N512 C516 1.362 . S
C513 C514 1.258 . S
C513 C516 1.431 . S
C513 C533 1.449 . S
C514 C513 1.258 . S
C514 C515 1.477 . S
C514 H534 0.931 . S
C515 C511 1.460 . S
C515 C514 1.477 . S
C515 H535 0.930 . S
C516 N512 1.362 . S
C516 C513 1.431 . S
C516 C526 1.476 . S
H517 C511 0.929 . S
C518 O509 1.250 . S
C518 O510 1.258 . S
O519 Mn504 2.162 . S
O519 C507 1.281 . S
O520 Mn504 2.297 . S
O520 C507 1.236 . S
N521 Mn505 2.282 . S
N521 C522 1.328 . S
N521 C526 1.318 . S
C522 N521 1.328 . S
C522 C523 1.457 . S
C522 H527 0.929 . S
C523 C522 1.457 . S
C523 C524 1.291 . S
C523 H536 0.931 . S
C524 C523 1.291 . S
C524 C525 1.373 . S
C524 H537 0.929 . S
C525 C524 1.373 . S
C525 C526 1.396 . S
C525 C532 1.403 . S
C526 C516 1.476 . S
C526 N521 1.318 . S
C526 C525 1.396 . S
H527 C522 0.929 . S
O528 Mn504 2.385 . S
O528 C506 1.234 . S
O529 Mn504 2.209 . S
O529 Mn505 2.215 . S
O529 C506 1.283 . S
O530 Mn504 2.094 . S
O530 C508 1.240 . S
O531 Mn505 2.117 . S
O531 C508 1.264 . S
C532 C525 1.403 . S
C532 C533 1.399 . S
C532 H538 0.929 . S
C533 C513 1.449 . S
C533 C532 1.399 . S
C533 H539 0.930 . S
H534 C514 0.931 . S
H535 C515 0.930 . S
H536 C523 0.931 . S
H537 C524 0.929 . S
H538 C532 0.929 . S
H539 C533 0.930 . S
Mn540 O545 2.095 1_455 S
Mn540 O555 2.162 . S
Mn540 O556 2.297 1_455 S
Mn540 O564 2.385 . S
Mn540 O565 2.209 1_455 S
Mn540 O566 2.094 . S
Mn541 O546 2.121 . S
Mn541 N548 2.257 . S
Mn541 N557 2.282 1_655 S
Mn541 O565 2.215 . S
Mn541 O567 2.117 1_655 S
C542 O564 1.234 . S
C542 O565 1.283 1_455 S
C543 O555 1.281 1_655 S
C543 O556 1.236 . S
C544 O566 1.240 . S
C544 O567 1.264 . S
O545 Mn540 2.095 1_655 S
O545 C554 1.250 . S
O546 Mn541 2.121 . S
O546 C554 1.258 . S
C547 N548 1.326 . S
C547 C551 1.460 . S
C547 H553 0.929 . S
N548 Mn541 2.257 . S
N548 C547 1.326 . S
N548 C552 1.362 . S
C549 C550 1.258 . S
C549 C552 1.431 . S
C549 C569 1.449 . S
C550 C549 1.258 . S
C550 C551 1.477 . S
C550 H570 0.931 . S
C551 C547 1.460 . S
C551 C550 1.477 . S
C551 H571 0.930 . S
C552 N548 1.362 . S
C552 C549 1.431 . S
C552 C562 1.476 1_655 S
H553 C547 0.929 . S
C554 O545 1.250 . S
C554 O546 1.258 . S
O555 Mn540 2.162 . S
O555 C543 1.281 1_455 S
O556 Mn540 2.297 1_655 S
O556 C543 1.236 . S
N557 Mn541 2.282 1_455 S
N557 C558 1.328 . S
N557 C562 1.318 . S
C558 N557 1.328 . S
C558 C559 1.457 . S
C558 H563 0.929 . S
C559 C558 1.457 . S
C559 C560 1.291 . S
C559 H572 0.931 . S
C560 C559 1.291 . S
C560 C561 1.373 . S
C560 H573 0.929 . S
C561 C560 1.373 . S
C561 C562 1.396 . S
C561 C568 1.403 . S
C562 C552 1.476 1_455 S
C562 N557 1.318 . S
C562 C561 1.396 . S
H563 C558 0.929 . S
O564 Mn540 2.385 . S
O564 C542 1.234 . S
O565 Mn540 2.209 1_655 S
O565 Mn541 2.215 . S
O565 C542 1.283 1_655 S
O566 Mn540 2.094 . S
O566 C544 1.240 . S
O567 Mn541 2.117 1_455 S
O567 C544 1.264 . S
C568 C561 1.403 . S
C568 C569 1.399 1_455 S
C568 H574 0.929 . S
C569 C549 1.449 . S
C569 C568 1.399 1_655 S
C569 H575 0.930 . S
H570 C550 0.931 . S
H571 C551 0.930 . S
H572 C559 0.931 . S
H573 C560 0.929 . S
H574 C568 0.929 . S
H575 C569 0.930 . S
Mn576 O581 2.095 . S
Mn576 O591 2.162 . S
Mn576 O592 2.297 . S
Mn576 O600 2.385 . S
Mn576 O601 2.209 . S
Mn576 O602 2.094 . S
Mn577 O582 2.121 . S
Mn577 N584 2.257 . S
Mn577 N593 2.282 . S
Mn577 O601 2.215 . S
Mn577 O603 2.117 . S
C578 O600 1.234 . S
C578 O601 1.283 . S
C579 O591 1.281 . S
C579 O592 1.236 . S
C580 O602 1.240 . S
C580 O603 1.264 . S
O581 Mn576 2.095 . S
O581 C590 1.250 . S
O582 Mn577 2.121 . S
O582 C590 1.258 . S
C583 N584 1.326 . S
C583 C587 1.460 . S
C583 H589 0.929 . S
N584 Mn577 2.257 . S
N584 C583 1.326 . S
N584 C588 1.362 . S
C585 C586 1.258 . S
C585 C588 1.431 . S
C585 C605 1.449 . S
C586 C585 1.258 . S
C586 C587 1.477 . S
C586 H606 0.931 . S
C587 C583 1.460 . S
C587 C586 1.477 . S
C587 H607 0.930 . S
C588 N584 1.362 . S
C588 C585 1.431 . S
C588 C598 1.476 . S
H589 C583 0.929 . S
C590 O581 1.250 . S
C590 O582 1.258 . S
O591 Mn576 2.162 . S
O591 C579 1.281 . S
O592 Mn576 2.297 . S
O592 C579 1.236 . S
N593 Mn577 2.282 . S
N593 C594 1.328 . S
N593 C598 1.318 . S
C594 N593 1.328 . S
C594 C595 1.457 . S
C594 H599 0.929 . S
C595 C594 1.457 . S
C595 C596 1.291 . S
C595 H608 0.931 . S
C596 C595 1.291 . S
C596 C597 1.373 . S
C596 H609 0.929 . S
C597 C596 1.373 . S
C597 C598 1.396 . S
C597 C604 1.403 . S
C598 C588 1.476 . S
C598 N593 1.318 . S
C598 C597 1.396 . S
H599 C594 0.929 . S
O600 Mn576 2.385 . S
O600 C578 1.234 . S
O601 Mn576 2.209 . S
O601 Mn577 2.215 . S
O601 C578 1.283 . S
O602 Mn576 2.094 . S
O602 C580 1.240 . S
O603 Mn577 2.117 . S
O603 C580 1.264 . S
C604 C597 1.403 . S
C604 C605 1.399 . S
C604 H610 0.929 . S
C605 C585 1.449 . S
C605 C604 1.399 . S
C605 H611 0.930 . S
H606 C586 0.931 . S
H607 C587 0.930 . S
H608 C595 0.931 . S
H609 C596 0.929 . S
H610 C604 0.929 . S
H611 C605 0.930 . S
Mn612 O617 2.095 1_565 S
Mn612 O627 2.162 . S
Mn612 O628 2.297 1_565 S
Mn612 O636 2.385 . S
Mn612 O637 2.209 1_565 S
Mn612 O638 2.094 . S
Mn613 O618 2.121 . S
Mn613 N620 2.257 . S
Mn613 N629 2.282 1_545 S
Mn613 O637 2.215 . S
Mn613 O639 2.117 1_545 S
C614 O636 1.234 . S
C614 O637 1.283 1_565 S
C615 O627 1.281 1_545 S
C615 O628 1.236 . S
C616 O638 1.240 . S
C616 O639 1.264 . S
O617 Mn612 2.095 1_545 S
O617 C626 1.250 . S
O618 Mn613 2.121 . S
O618 C626 1.258 . S
C619 N620 1.326 . S
C619 C623 1.460 . S
C619 H625 0.929 . S
N620 Mn613 2.257 . S
N620 C619 1.326 . S
N620 C624 1.362 . S
C621 C622 1.258 . S
C621 C624 1.431 . S
C621 C641 1.449 . S
C622 C621 1.258 . S
C622 C623 1.477 . S
C622 H642 0.931 . S
C623 C619 1.460 . S
C623 C622 1.477 . S
C623 H643 0.930 . S
C624 N620 1.362 . S
C624 C621 1.431 . S
C624 C634 1.476 1_545 S
H625 C619 0.929 . S
C626 O617 1.250 . S
C626 O618 1.258 . S
O627 Mn612 2.162 . S
O627 C615 1.281 1_565 S
O628 Mn612 2.297 1_545 S
O628 C615 1.236 . S
N629 Mn613 2.282 1_565 S
N629 C630 1.328 . S
N629 C634 1.318 . S
C630 N629 1.328 . S
C630 C631 1.457 . S
C630 H635 0.929 . S
C631 C630 1.457 . S
C631 C632 1.291 . S
C631 H644 0.931 . S
C632 C631 1.291 . S
C632 C633 1.373 . S
C632 H645 0.929 . S
C633 C632 1.373 . S
C633 C634 1.396 . S
C633 C640 1.403 . S
C634 C624 1.476 1_565 S
C634 N629 1.318 . S
C634 C633 1.396 . S
H635 C630 0.929 . S
O636 Mn612 2.385 . S
O636 C614 1.234 . S
O637 Mn612 2.209 1_545 S
O637 Mn613 2.215 . S
O637 C614 1.283 1_545 S
O638 Mn612 2.094 . S
O638 C616 1.240 . S
O639 Mn613 2.117 1_565 S
O639 C616 1.264 . S
C640 C633 1.403 . S
C640 C641 1.399 1_565 S
C640 H646 0.929 . S
C641 C621 1.449 . S
C641 C640 1.399 1_545 S
C641 H647 0.930 . S
H642 C622 0.931 . S
H643 C623 0.930 . S
H644 C631 0.931 . S
H645 C632 0.929 . S
H646 C640 0.929 . S
H647 C641 0.930 . S
H648 C666 0.951 . S
H649 C668 0.951 1_565 S
H650 C670 0.950 1_556 S
H651 C671 0.950 . S
H652 C673 0.963 1_565 S
H653 C676 0.950 . S
H654 C677 0.950 . S
H655 C679 0.950 . S
H656 C680 0.950 1_565 S
H657 C681 0.951 1_545 S
H658 C683 0.951 . S
H659 C685 0.950 1_554 S
H660 C686 0.950 . S
H661 C688 0.950 . S
H662 C691 0.950 . S
H663 C692 0.950 . S
H664 C694 0.950 . S
H665 C695 0.950 1_545 S
C666 H648 0.951 . S
C666 C667 1.366 . S
C666 C668 1.388 . S
C667 C666 1.366 . S
C667 C671 1.385 . S
C668 H649 0.951 1_545 S
C668 C666 1.388 . S
C668 C669 1.366 . S
C669 C668 1.366 . S
C669 C670 1.414 . S
C669 C672 1.499 . S
C670 H650 0.950 1_554 S
C670 C669 1.414 . S
C670 C671 1.374 . S
C671 H651 0.950 . S
C671 C667 1.385 . S
C671 C670 1.374 . S
C672 C669 1.499 . S
C672 C673 1.385 1_554 S
C672 C674 1.389 . S
C673 H652 0.963 1_545 S
C673 C672 1.385 1_556 S
C673 C689 1.353 1_545 S
C674 C672 1.389 . S
C674 C675 1.524 . S
C674 C688 1.377 . S
C675 C674 1.524 . S
C675 C676 1.397 . S
C675 C680 1.363 . S
C676 H653 0.950 . S
C676 C675 1.397 . S
C676 C677 1.334 . S
C677 H654 0.950 . S
C677 C676 1.334 . S
C677 C678 1.287 . S
C678 C677 1.287 . S
C678 C679 1.524 . S
C678 H697 0.913 . S
C679 H655 0.950 . S
C679 C678 1.524 . S
C679 C680 1.415 . S
C680 H656 0.950 1_545 S
C680 C675 1.363 . S
C680 C679 1.415 . S
C681 H657 0.951 1_565 S
C681 C682 1.366 . S
C681 C683 1.388 1_565 S
C682 C681 1.366 . S
C682 C686 1.385 . S
C683 H658 0.951 . S
C683 C681 1.388 1_545 S
C683 C684 1.366 1_545 S
C684 C683 1.366 1_565 S
C684 C685 1.414 . S
C684 C687 1.499 . S
C685 H659 0.950 1_556 S
C685 C684 1.414 . S
C685 C686 1.374 . S
C686 H660 0.950 . S
C686 C682 1.385 . S
C686 C685 1.374 . S
C687 C684 1.499 . S
C687 C688 1.373 1_566 S
C687 C689 1.389 . S
C688 H661 0.950 . S
C688 C674 1.377 . S
C688 C687 1.373 1_544 S
C689 C673 1.353 1_565 S
C689 C687 1.389 . S
C689 C690 1.524 . S
C690 C689 1.524 . S
C690 C691 1.397 . S
C690 C695 1.363 . S
C691 H662 0.950 . S
C691 C690 1.397 . S
C691 C692 1.334 . S
C692 H663 0.950 . S
C692 C691 1.334 . S
C692 C693 1.287 . S
C693 C692 1.287 . S
C693 C694 1.524 . S
C693 H696 0.999 . S
C694 H664 0.950 . S
C694 C693 1.524 . S
C694 C695 1.415 . S
C695 H665 0.950 1_565 S
C695 C690 1.363 . S
C695 C694 1.415 . S
H696 C693 0.999 . S
H697 C678 0.913 . S
H698 C716 0.951 . S
H699 C718 0.951 1_455 S
H700 C720 0.950 . S
H701 C721 0.950 . S
H702 C723 0.950 . S
H703 C726 0.950 . S
H704 C727 0.950 . S
H705 C729 0.950 . S
H706 C730 0.950 1_556 S
H707 C731 0.951 . S
H708 C733 0.952 . S
H709 C735 0.950 . S
H710 C736 0.950 . S
H711 C738 0.950 . S
H712 C741 0.950 . S
H713 C742 0.950 . S
H714 C744 0.950 1_554 S
H715 C745 0.997 . S
C716 H698 0.951 . S
C716 C717 1.366 . S
C716 C718 1.388 . S
C717 C716 1.366 . S
C717 C721 1.385 . S
C718 H699 0.951 1_655 S
C718 C716 1.388 . S
C718 C719 1.366 . S
C719 C718 1.366 . S
C719 C720 1.414 . S
C719 C722 1.499 . S
C720 H700 0.950 . S
C720 C719 1.414 . S
C720 C721 1.374 . S
C721 H701 0.950 . S
C721 C717 1.385 . S
C721 C720 1.374 . S
C722 C719 1.499 . S
C722 C723 1.373 . S
C722 C724 1.389 1_655 S
C723 H702 0.950 . S
C723 C722 1.373 . S
C723 C739 1.377 1_554 S
C724 C722 1.389 1_455 S
C724 C725 1.524 . S
C724 C738 1.377 1_554 S
C725 C724 1.524 . S
C725 C726 1.397 . S
C725 C730 1.363 . S
C726 H703 0.950 . S
C726 C725 1.397 . S
C726 C727 1.334 . S
C727 H704 0.950 . S
C727 C726 1.334 . S
C727 C728 1.287 . S
C728 C727 1.287 . S
C728 C729 1.524 . S
C728 H747 0.913 . S
C729 H705 0.950 . S
C729 C728 1.524 . S
C729 C730 1.415 . S
C730 H706 0.950 1_554 S
C730 C725 1.363 . S
C730 C729 1.415 . S
C731 H707 0.951 . S
C731 C732 1.366 1_655 S
C731 C733 1.388 . S
C732 C731 1.366 1_455 S
C732 C736 1.385 . S
C733 H708 0.952 . S
C733 C731 1.388 . S
C733 C734 1.344 1_655 S
C734 C733 1.344 1_455 S
C734 C735 1.428 . S
C734 C737 1.507 1_455 S
C735 H709 0.950 . S
C735 C734 1.428 . S
C735 C736 1.374 . S
C736 H710 0.950 . S
C736 C732 1.385 . S
C736 C735 1.374 . S
C737 C734 1.507 1_655 S
C737 C738 1.373 1_655 S
C737 C739 1.389 . S
C738 H711 0.950 . S
C738 C724 1.377 1_556 S
C738 C737 1.373 1_455 S
C739 C723 1.377 1_556 S
C739 C737 1.389 . S
C739 C740 1.524 . S
C740 C739 1.524 . S
C740 C741 1.397 . S
C740 C745 1.334 1_556 S
C741 H712 0.950 . S
C741 C740 1.397 . S
C741 C742 1.334 . S
C742 H713 0.950 . S
C742 C741 1.334 . S
C742 C743 1.287 . S
C743 C742 1.287 . S
C743 C744 1.524 . S
C743 H746 0.999 . S
C744 H714 0.950 1_556 S
C744 C743 1.524 . S
C744 C745 1.398 1_556 S
C745 H715 0.997 . S
C745 C740 1.334 1_554 S
C745 C744 1.398 1_554 S
H746 C743 0.999 . S
H747 C728 0.913 . S
H748 C766 0.951 . S
H749 C768 0.934 1_554 S
H750 C770 0.950 . S
H751 C771 0.950 . S
H752 C773 0.950 . S
H753 C776 0.950 . S
H754 C777 0.950 . S
H755 C779 0.950 . S
H756 C780 0.950 . S
H757 C781 0.951 . S
H758 C783 0.951 1_556 S
H759 C785 0.950 . S
H760 C786 0.950 . S
H761 C788 0.950 . S
H762 C791 0.950 . S
H763 C792 0.950 . S
H764 C794 0.950 . S
H765 C795 0.950 . S
C766 H748 0.951 . S
C766 C767 1.366 . S
C766 C768 1.388 . S
C767 C766 1.366 . S
C767 C771 1.385 . S
C768 H749 0.934 1_556 S
C768 C766 1.388 . S
C768 C769 1.366 . S
C769 C768 1.366 . S
C769 C770 1.414 . S
C769 C772 1.499 . S
C770 H750 0.950 . S
C770 C769 1.414 . S
C770 C771 1.374 . S
C771 H751 0.950 . S
C771 C767 1.385 . S
C771 C770 1.374 . S
C772 C769 1.499 . S
C772 C773 1.373 . S
C772 C774 1.389 . S
C773 H752 0.950 . S
C773 C772 1.373 . S
C773 C789 1.377 . S
C774 C772 1.389 . S
C774 C775 1.524 . S
C774 C788 1.377 1_556 S
C775 C774 1.524 . S
C775 C776 1.397 . S
C775 C780 1.363 1_556 S
C776 H753 0.950 . S
C776 C775 1.397 . S
C776 C777 1.334 . S
C777 H754 0.950 . S
C777 C776 1.334 . S
C777 C778 1.287 . S
C778 C777 1.287 . S
C778 C779 1.524 1_556 S
C778 H797 0.913 . S
C779 H755 0.950 . S
C779 C778 1.524 1_554 S
C779 C780 1.415 . S
C780 H756 0.950 . S
C780 C775 1.363 1_554 S
C780 C779 1.415 . S
C781 H757 0.951 . S
C781 C782 1.366 . S
C781 C783 1.388 . S
C782 C781 1.366 . S
C782 C786 1.385 . S
C783 H758 0.951 1_554 S
C783 C781 1.388 . S
C783 C784 1.366 . S
C784 C783 1.366 . S
C784 C785 1.414 . S
C784 C787 1.499 . S
C785 H759 0.950 . S
C785 C784 1.414 . S
C785 C786 1.374 . S
C786 H760 0.950 . S
C786 C782 1.385 . S
C786 C785 1.374 . S
C787 C784 1.499 . S
C787 C788 1.373 . S
C787 C789 1.389 1_554 S
C788 H761 0.950 . S
C788 C774 1.377 1_554 S
C788 C787 1.373 . S
C789 C773 1.377 . S
C789 C787 1.389 1_556 S
C789 C790 1.524 . S
C790 C789 1.524 . S
C790 C791 1.397 1_556 S
C790 C795 1.363 . S
C791 H762 0.950 . S
C791 C790 1.397 1_554 S
C791 C792 1.334 . S
C792 H763 0.950 . S
C792 C791 1.334 . S
C792 C793 1.287 . S
C793 C792 1.287 . S
C793 C794 1.524 1_554 S
C793 H796 0.999 . S
C794 H764 0.950 . S
C794 C793 1.524 1_556 S
C794 C795 1.415 . S
C795 H765 0.950 . S
C795 C790 1.363 . S
C795 C794 1.415 . S
H796 C793 0.999 . S
H797 C778 0.913 . S
H798 C816 0.951 . S
H799 C818 0.951 . S
H800 C820 0.950 . S
H801 C821 0.950 . S
H802 C823 0.950 . S
H803 C826 0.950 . S
H804 C827 0.950 . S
H805 C829 0.950 . S
H806 C830 0.950 . S
H807 C831 0.951 . S
H808 C833 0.951 . S
H809 C835 0.950 . S
H810 C836 0.950 . S
H811 C838 0.950 . S
H812 C841 0.950 . S
H813 C842 0.950 . S
H814 C844 0.950 . S
H815 C845 0.950 . S
C816 H798 0.951 . S
C816 C817 1.366 . S
C816 C818 1.388 . S
C817 C816 1.366 . S
C817 C821 1.385 . S
C818 H799 0.951 . S
C818 C816 1.388 . S
C818 C819 1.366 . S
C819 C818 1.366 . S
C819 C820 1.414 . S
C819 C822 1.499 . S
C820 H800 0.950 . S
C820 C819 1.414 . S
C820 C821 1.374 . S
C821 H801 0.950 . S
C821 C817 1.385 . S
C821 C820 1.374 . S
C822 C819 1.499 . S
C822 C823 1.373 . S
C822 C824 1.389 . S
C823 H802 0.950 . S
C823 C822 1.373 . S
C823 C839 1.377 . S
C824 C822 1.389 . S
C824 C825 1.524 . S
C824 C838 1.377 . S
C825 C824 1.524 . S
C825 C826 1.397 . S
C825 C830 1.363 . S
C826 H803 0.950 . S
C826 C825 1.397 . S
C826 C827 1.334 . S
C827 H804 0.950 . S
C827 C826 1.334 . S
C827 C828 1.287 . S
C828 C827 1.287 . S
C828 C829 1.524 . S
C828 H847 0.913 . S
C829 H805 0.950 . S
C829 C828 1.524 . S
C829 C830 1.415 . S
C830 H806 0.950 . S
C830 C825 1.363 . S
C830 C829 1.415 . S
C831 H807 0.951 . S
C831 C832 1.366 . S
C831 C833 1.388 . S
C832 C831 1.366 . S
C832 C836 1.385 . S
C833 H808 0.951 . S
C833 C831 1.388 . S
C833 C834 1.366 . S
C834 C833 1.366 . S
C834 C835 1.414 . S
C834 C837 1.499 . S
C835 H809 0.950 . S
C835 C834 1.414 . S
C835 C836 1.374 . S
C836 H810 0.950 . S
C836 C832 1.385 . S
C836 C835 1.374 . S
C837 C834 1.499 . S
C837 C838 1.373 . S
C837 C839 1.389 . S
C838 H811 0.950 . S
C838 C824 1.377 . S
C838 C837 1.373 . S
C839 C823 1.377 . S
C839 C837 1.389 . S
C839 C840 1.524 . S
C840 C839 1.524 . S
C840 C841 1.397 . S
C840 C845 1.363 . S
C841 H812 0.950 . S
C841 C840 1.397 . S
C841 C842 1.334 . S
C842 H813 0.950 . S
C842 C841 1.334 . S
C842 C843 1.287 . S
C843 C842 1.287 . S
C843 C844 1.524 . S
C843 H846 0.999 . S
C844 H814 0.950 . S
C844 C843 1.524 . S
C844 C845 1.415 . S
C845 H815 0.950 . S
C845 C840 1.363 . S
C845 C844 1.415 . S
H846 C843 0.999 . S
H847 C828 0.913 . S
H848 C866 0.951 . S
H849 C868 0.951 . S
H850 C870 0.950 . S
H851 C871 0.950 . S
H852 C873 0.950 . S
H853 C876 0.950 . S
H854 C877 0.950 . S
H855 C879 0.950 . S
H856 C880 0.950 . S
H857 C881 0.951 . S
H858 C883 0.951 . S
H859 C885 0.950 . S
H860 C886 0.950 . S
H861 C888 0.950 . S
H862 C891 0.950 . S
H863 C892 0.950 . S
H864 C894 0.950 . S
H865 C895 0.950 . S
C866 H848 0.951 . S
C866 C867 1.366 . S
C866 C868 1.388 . S
C867 C866 1.366 . S
C867 C871 1.385 . S
C868 H849 0.951 . S
C868 C866 1.388 . S
C868 C869 1.366 . S
C869 C868 1.366 . S
C869 C870 1.414 . S
C869 C872 1.499 . S
C870 H850 0.950 . S
C870 C869 1.414 . S
C870 C871 1.374 . S
C871 H851 0.950 . S
C871 C867 1.385 . S
C871 C870 1.374 . S
C872 C869 1.499 . S
C872 C873 1.373 . S
C872 C874 1.389 . S
C873 H852 0.950 . S
C873 C872 1.373 . S
C873 C889 1.377 . S
C874 C872 1.389 . S
C874 C875 1.524 . S
C874 C888 1.377 . S
C875 C874 1.524 . S
C875 C876 1.397 . S
C875 C880 1.363 . S
C876 H853 0.950 . S
C876 C875 1.397 . S
C876 C877 1.334 . S
C877 H854 0.950 . S
C877 C876 1.334 . S
C877 C878 1.287 . S
C878 C877 1.287 . S
C878 C879 1.524 . S
C878 H897 0.913 . S
C879 H855 0.950 . S
C879 C878 1.524 . S
C879 C880 1.415 . S
C880 H856 0.950 . S
C880 C875 1.363 . S
C880 C879 1.415 . S
C881 H857 0.951 . S
C881 C882 1.366 . S
C881 C883 1.388 . S
C882 C881 1.366 . S
C882 C886 1.385 . S
C883 H858 0.951 . S
C883 C881 1.388 . S
C883 C884 1.366 . S
C884 C883 1.366 . S
C884 C885 1.414 . S
C884 C887 1.499 . S
C885 H859 0.950 . S
C885 C884 1.414 . S
C885 C886 1.374 . S
C886 H860 0.950 . S
C886 C882 1.385 . S
C886 C885 1.374 . S
C887 C884 1.499 . S
C887 C888 1.373 . S
C887 C889 1.389 . S
C888 H861 0.950 . S
C888 C874 1.377 . S
C888 C887 1.373 . S
C889 C873 1.377 . S
C889 C887 1.389 . S
C889 C890 1.524 . S
C890 C889 1.524 . S
C890 C891 1.397 . S
C890 C895 1.363 . S
C891 H862 0.950 . S
C891 C890 1.397 . S
C891 C892 1.334 . S
C892 H863 0.950 . S
C892 C891 1.334 . S
C892 C893 1.287 . S
C893 C892 1.287 . S
C893 C894 1.524 . S
C893 H896 0.999 . S
C894 H864 0.950 . S
C894 C893 1.524 . S
C894 C895 1.415 . S
C895 H865 0.950 . S
C895 C890 1.363 . S
C895 C894 1.415 . S
H896 C893 0.999 . S
H897 C878 0.913 . S
H898 C916 0.951 . S
H899 C918 0.951 . S
H900 C920 0.950 . S
H901 C921 0.950 . S
H902 C923 0.950 . S
H903 C926 0.950 . S
H904 C927 0.950 . S
H905 C929 0.950 . S
H906 C930 0.950 . S
H907 C931 0.951 . S
H908 C933 0.951 . S
H909 C935 0.950 . S
H910 C936 0.950 . S
H911 C938 0.950 . S
H912 C941 0.950 . S
H913 C942 0.950 . S
H914 C944 0.950 . S
H915 C945 0.950 . S
C916 H898 0.951 . S
C916 C917 1.366 . S
C916 C918 1.388 . S
C917 C916 1.366 . S
C917 C921 1.385 . S
C918 H899 0.951 . S
C918 C916 1.388 . S
C918 C919 1.366 . S
C919 C918 1.366 . S
C919 C920 1.414 . S
C919 C922 1.499 . S
C920 H900 0.950 . S
C920 C919 1.414 . S
C920 C921 1.374 . S
C921 H901 0.950 . S
C921 C917 1.385 . S
C921 C920 1.374 . S
C922 C919 1.499 . S
C922 C923 1.373 . S
C922 C924 1.389 . S
C923 H902 0.950 . S
C923 C922 1.373 . S
C923 C939 1.377 . S
C924 C922 1.389 . S
C924 C925 1.524 . S
C924 C938 1.377 . S
C925 C924 1.524 . S
C925 C926 1.397 . S
C925 C930 1.363 . S
C926 H903 0.950 . S
C926 C925 1.397 . S
C926 C927 1.334 . S
C927 H904 0.950 . S
C927 C926 1.334 . S
C927 C928 1.287 . S
C928 C927 1.287 . S
C928 C929 1.524 . S
C928 H947 0.913 . S
C929 H905 0.950 . S
C929 C928 1.524 . S
C929 C930 1.415 . S
C930 H906 0.950 . S
C930 C925 1.363 . S
C930 C929 1.415 . S
C931 H907 0.951 . S
C931 C932 1.366 . S
C931 C933 1.388 . S
C932 C931 1.366 . S
C932 C936 1.385 . S
C933 H908 0.951 . S
C933 C931 1.388 . S
C933 C934 1.366 . S
C934 C933 1.366 . S
C934 C935 1.414 . S
C934 C937 1.499 . S
C935 H909 0.950 . S
C935 C934 1.414 . S
C935 C936 1.374 . S
C936 H910 0.950 . S
C936 C932 1.385 . S
C936 C935 1.374 . S
C937 C934 1.499 . S
C937 C938 1.373 . S
C937 C939 1.389 . S
C938 H911 0.950 . S
C938 C924 1.377 . S
C938 C937 1.373 . S
C939 C923 1.377 . S
C939 C937 1.389 . S
C939 C940 1.524 . S
C940 C939 1.524 . S
C940 C941 1.397 . S
C940 C945 1.363 . S
C941 H912 0.950 . S
C941 C940 1.397 . S
C941 C942 1.334 . S
C942 H913 0.950 . S
C942 C941 1.334 . S
C942 C943 1.287 . S
C943 C942 1.287 . S
C943 C944 1.524 . S
C943 H946 0.999 . S
C944 H914 0.950 . S
C944 C943 1.524 . S
C944 C945 1.415 . S
C945 H915 0.950 . S
C945 C940 1.363 . S
C945 C944 1.415 . S
H946 C943 0.999 . S
H947 C928 0.913 . S
H948 C966 0.951 . S
H949 C968 0.951 . S
H950 C970 0.950 . S
H951 C971 0.950 . S
H952 C973 0.950 . S
H953 C976 0.950 . S
H954 C977 0.950 . S
H955 C979 0.950 . S
H956 C980 0.950 . S
H957 C981 0.951 . S
H958 C983 0.951 . S
H959 C985 0.950 . S
H960 C986 0.950 . S
H961 C988 0.950 . S
H962 C991 0.950 . S
H963 C992 0.950 . S
H964 C994 0.950 . S
H965 C995 0.950 . S
C966 H948 0.951 . S
C966 C967 1.366 . S
C966 C968 1.388 . S
C967 C966 1.366 . S
C967 C971 1.385 . S
C968 H949 0.951 . S
C968 C966 1.388 . S
C968 C969 1.366 . S
C969 C968 1.366 . S
C969 C970 1.414 . S
C969 C972 1.499 . S
C970 H950 0.950 . S
C970 C969 1.414 . S
C970 C971 1.374 . S
C971 H951 0.950 . S
C971 C967 1.385 . S
C971 C970 1.374 . S
C972 C969 1.499 . S
C972 C973 1.373 . S
C972 C974 1.389 . S
C973 H952 0.950 . S
C973 C972 1.373 . S
C973 C989 1.377 . S
C974 C972 1.389 . S
C974 C975 1.524 . S
C974 C988 1.377 . S
C975 C974 1.524 . S
C975 C976 1.397 . S
C975 C980 1.363 . S
C976 H953 0.950 . S
C976 C975 1.397 . S
C976 C977 1.334 . S
C977 H954 0.950 . S
C977 C976 1.334 . S
C977 C978 1.287 . S
C978 C977 1.287 . S
C978 C979 1.524 . S
C978 H997 0.913 . S
C979 H955 0.950 . S
C979 C978 1.524 . S
C979 C980 1.415 . S
C980 H956 0.950 . S
C980 C975 1.363 . S
C980 C979 1.415 . S
C981 H957 0.951 . S
C981 C982 1.366 . S
C981 C983 1.388 . S
C982 C981 1.366 . S
C982 C986 1.385 . S
C983 H958 0.951 . S
C983 C981 1.388 . S
C983 C984 1.366 . S
C984 C983 1.366 . S
C984 C985 1.414 . S
C984 C987 1.499 . S
C985 H959 0.950 . S
C985 C984 1.414 . S
C985 C986 1.374 . S
C986 H960 0.950 . S
C986 C982 1.385 . S
C986 C985 1.374 . S
C987 C984 1.499 . S
C987 C988 1.373 . S
C987 C989 1.389 . S
C988 H961 0.950 . S
C988 C974 1.377 . S
C988 C987 1.373 . S
C989 C973 1.377 . S
C989 C987 1.389 . S
C989 C990 1.524 . S
C990 C989 1.524 . S
C990 C991 1.397 . S
C990 C995 1.363 . S
C991 H962 0.950 . S
C991 C990 1.397 . S
C991 C992 1.334 . S
C992 H963 0.950 . S
C992 C991 1.334 . S
C992 C993 1.287 . S
C993 C992 1.287 . S
C993 C994 1.524 . S
C993 H996 0.999 . S
C994 H964 0.950 . S
C994 C993 1.524 . S
C994 C995 1.415 . S
C995 H965 0.950 . S
C995 C990 1.363 . S
C995 C994 1.415 . S
H996 C993 0.999 . S
H997 C978 0.913 . S
H998 C1016 0.951 . S
H999 C1018 0.951 . S
H1000 C1020 0.950 . S
H1001 C1021 0.950 . S
H1002 C1023 0.950 . S
H1003 C1026 0.950 . S
H1004 C1027 0.950 . S
H1005 C1029 0.950 . S
H1006 C1030 0.950 . S
H1007 C1031 0.951 . S
H1008 C1033 0.951 . S
H1009 C1035 0.950 . S
H1010 C1036 0.950 . S
H1011 C1038 0.950 . S
H1012 C1041 0.950 . S
H1013 C1042 0.950 . S
H1014 C1044 0.950 . S
H1015 C1045 0.950 . S
C1016 H998 0.951 . S
C1016 C1017 1.366 . S
C1016 C1018 1.388 . S
C1017 C1016 1.366 . S
C1017 C1021 1.385 . S
C1018 H999 0.951 . S
C1018 C1016 1.388 . S
C1018 C1019 1.366 . S
C1019 C1018 1.366 . S
C1019 C1020 1.414 . S
C1019 C1022 1.499 . S
C1020 H1000 0.950 . S
C1020 C1019 1.414 . S
C1020 C1021 1.374 . S
C1021 H1001 0.950 . S
C1021 C1017 1.385 . S
C1021 C1020 1.374 . S
C1022 C1019 1.499 . S
C1022 C1023 1.373 . S
C1022 C1024 1.389 . S
C1023 H1002 0.950 . S
C1023 C1022 1.373 . S
C1023 C1039 1.377 . S
C1024 C1022 1.389 . S
C1024 C1025 1.524 . S
C1024 C1038 1.377 . S
C1025 C1024 1.524 . S
C1025 C1026 1.397 . S
C1025 C1030 1.363 . S
C1026 H1003 0.950 . S
C1026 C1025 1.397 . S
C1026 C1027 1.334 . S
C1027 H1004 0.950 . S
C1027 C1026 1.334 . S
C1027 C1028 1.287 . S
C1028 C1027 1.287 . S
C1028 C1029 1.524 . S
C1028 H1047 0.913 . S
C1029 H1005 0.950 . S
C1029 C1028 1.524 . S
C1029 C1030 1.415 . S
C1030 H1006 0.950 . S
C1030 C1025 1.363 . S
C1030 C1029 1.415 . S
C1031 H1007 0.951 . S
C1031 C1032 1.366 . S
C1031 C1033 1.388 . S
C1032 C1031 1.366 . S
C1032 C1036 1.385 . S
C1033 H1008 0.951 . S
C1033 C1031 1.388 . S
C1033 C1034 1.366 . S
C1034 C1033 1.366 . S
C1034 C1035 1.414 . S
C1034 C1037 1.499 . S
C1035 H1009 0.950 . S
C1035 C1034 1.414 . S
C1035 C1036 1.374 . S
C1036 H1010 0.950 . S
C1036 C1032 1.385 . S
C1036 C1035 1.374 . S
C1037 C1034 1.499 . S
C1037 C1038 1.373 . S
C1037 C1039 1.389 . S
C1038 H1011 0.950 . S
C1038 C1024 1.377 . S
C1038 C1037 1.373 . S
C1039 C1023 1.377 . S
C1039 C1037 1.389 . S
C1039 C1040 1.524 . S
C1040 C1039 1.524 . S
C1040 C1041 1.397 . S
C1040 C1045 1.363 . S
C1041 H1012 0.950 . S
C1041 C1040 1.397 . S
C1041 C1042 1.334 . S
C1042 H1013 0.950 . S
C1042 C1041 1.334 . S
C1042 C1043 1.287 . S
C1043 C1042 1.287 . S
C1043 C1044 1.524 . S
C1043 H1046 0.999 . S
C1044 H1014 0.950 . S
C1044 C1043 1.524 . S
C1044 C1045 1.415 . S
C1045 H1015 0.950 . S
C1045 C1040 1.363 . S
C1045 C1044 1.415 . S
H1046 C1043 0.999 . S
H1047 C1028 0.913 . S
H1048 C1066 0.951 . S
H1049 C1068 0.951 . S
H1050 C1070 0.950 . S
H1051 C1071 0.950 . S
H1052 C1073 0.950 . S
H1053 C1076 0.950 . S
H1054 C1077 0.950 . S
H1055 C1079 0.950 . S
H1056 C1080 0.950 . S
H1057 C1081 0.951 . S
H1058 C1083 0.951 . S
H1059 C1085 0.950 . S
H1060 C1086 0.950 . S
H1061 C1088 0.950 . S
H1062 C1091 0.950 . S
H1063 C1092 0.950 . S
H1064 C1094 0.950 . S
H1065 C1095 0.950 . S
C1066 H1048 0.951 . S
C1066 C1067 1.366 . S
C1066 C1068 1.388 . S
C1067 C1066 1.366 . S
C1067 C1071 1.385 . S
C1068 H1049 0.951 . S
C1068 C1066 1.388 . S
C1068 C1069 1.366 . S
C1069 C1068 1.366 . S
C1069 C1070 1.414 . S
C1069 C1072 1.499 . S
C1070 H1050 0.950 . S
C1070 C1069 1.414 . S
C1070 C1071 1.374 . S
C1071 H1051 0.950 . S
C1071 C1067 1.385 . S
C1071 C1070 1.374 . S
C1072 C1069 1.499 . S
C1072 C1073 1.373 . S
C1072 C1074 1.389 . S
C1073 H1052 0.950 . S
C1073 C1072 1.373 . S
C1073 C1089 1.377 . S
C1074 C1072 1.389 . S
C1074 C1075 1.524 . S
C1074 C1088 1.377 . S
C1075 C1074 1.524 . S
C1075 C1076 1.397 . S
C1075 C1080 1.363 . S
C1076 H1053 0.950 . S
C1076 C1075 1.397 . S
C1076 C1077 1.334 . S
C1077 H1054 0.950 . S
C1077 C1076 1.334 . S
C1077 C1078 1.287 . S
C1078 C1077 1.287 . S
C1078 C1079 1.524 . S
C1078 H1097 0.913 . S
C1079 H1055 0.950 . S
C1079 C1078 1.524 . S
C1079 C1080 1.415 . S
C1080 H1056 0.950 . S
C1080 C1075 1.363 . S
C1080 C1079 1.415 . S
C1081 H1057 0.951 . S
C1081 C1082 1.366 . S
C1081 C1083 1.388 . S
C1082 C1081 1.366 . S
C1082 C1086 1.385 . S
C1083 H1058 0.951 . S
C1083 C1081 1.388 . S
C1083 C1084 1.366 . S
C1084 C1083 1.366 . S
C1084 C1085 1.414 . S
C1084 C1087 1.499 . S
C1085 H1059 0.950 . S
C1085 C1084 1.414 . S
C1085 C1086 1.374 . S
C1086 H1060 0.950 . S
C1086 C1082 1.385 . S
C1086 C1085 1.374 . S
C1087 C1084 1.499 . S
C1087 C1088 1.373 . S
C1087 C1089 1.389 . S
C1088 H1061 0.950 . S
C1088 C1074 1.377 . S
C1088 C1087 1.373 . S
C1089 C1073 1.377 . S
C1089 C1087 1.389 . S
C1089 C1090 1.524 . S
C1090 C1089 1.524 . S
C1090 C1091 1.397 . S
C1090 C1095 1.363 . S
C1091 H1062 0.950 . S
C1091 C1090 1.397 . S
C1091 C1092 1.334 . S
C1092 H1063 0.950 . S
C1092 C1091 1.334 . S
C1092 C1093 1.287 . S
C1093 C1092 1.287 . S
C1093 C1094 1.524 . S
C1093 H1096 0.999 . S
C1094 H1064 0.950 . S
C1094 C1093 1.524 . S
C1094 C1095 1.415 . S
C1095 H1065 0.950 . S
C1095 C1090 1.363 . S
C1095 C1094 1.415 . S
H1096 C1093 0.999 . S
H1097 C1078 0.913 . S
H1098 C1116 0.951 . S
H1099 C1118 0.951 . S
H1100 C1120 0.950 . S
H1101 C1121 0.950 . S
H1102 C1123 0.950 . S
H1103 C1126 0.950 . S
H1104 C1127 0.950 . S
H1105 C1129 0.950 . S
H1106 C1130 0.950 . S
H1107 C1131 0.951 . S
H1108 C1133 0.951 . S
H1109 C1135 0.950 . S
H1110 C1136 0.950 . S
H1111 C1138 0.950 . S
H1112 C1141 0.950 . S
H1113 C1142 0.950 . S
H1114 C1144 0.950 . S
H1115 C1145 0.950 . S
C1116 H1098 0.951 . S
C1116 C1117 1.366 . S
C1116 C1118 1.388 . S
C1117 C1116 1.366 . S
C1117 C1121 1.385 . S
C1118 H1099 0.951 . S
C1118 C1116 1.388 . S
C1118 C1119 1.366 . S
C1119 C1118 1.366 . S
C1119 C1120 1.414 . S
C1119 C1122 1.499 . S
C1120 H1100 0.950 . S
C1120 C1119 1.414 . S
C1120 C1121 1.374 . S
C1121 H1101 0.950 . S
C1121 C1117 1.385 . S
C1121 C1120 1.374 . S
C1122 C1119 1.499 . S
C1122 C1123 1.373 . S
C1122 C1124 1.389 . S
C1123 H1102 0.950 . S
C1123 C1122 1.373 . S
C1123 C1139 1.377 . S
C1124 C1122 1.389 . S
C1124 C1125 1.524 . S
C1124 C1138 1.377 . S
C1125 C1124 1.524 . S
C1125 C1126 1.397 . S
C1125 C1130 1.363 . S
C1126 H1103 0.950 . S
C1126 C1125 1.397 . S
C1126 C1127 1.334 . S
C1127 H1104 0.950 . S
C1127 C1126 1.334 . S
C1127 C1128 1.287 . S
C1128 C1127 1.287 . S
C1128 C1129 1.524 . S
C1128 H1147 0.913 . S
C1129 H1105 0.950 . S
C1129 C1128 1.524 . S
C1129 C1130 1.415 . S
C1130 H1106 0.950 . S
C1130 C1125 1.363 . S
C1130 C1129 1.415 . S
C1131 H1107 0.951 . S
C1131 C1132 1.366 . S
C1131 C1133 1.388 . S
C1132 C1131 1.366 . S
C1132 C1136 1.385 . S
C1133 H1108 0.951 . S
C1133 C1131 1.388 . S
C1133 C1134 1.366 . S
C1134 C1133 1.366 . S
C1134 C1135 1.414 . S
C1134 C1137 1.499 . S
C1135 H1109 0.950 . S
C1135 C1134 1.414 . S
C1135 C1136 1.374 . S
C1136 H1110 0.950 . S
C1136 C1132 1.385 . S
C1136 C1135 1.374 . S
C1137 C1134 1.499 . S
C1137 C1138 1.373 . S
C1137 C1139 1.389 . S
C1138 H1111 0.950 . S
C1138 C1124 1.377 . S
C1138 C1137 1.373 . S
C1139 C1123 1.377 . S
C1139 C1137 1.389 . S
C1139 C1140 1.524 . S
C1140 C1139 1.524 . S
C1140 C1141 1.397 . S
C1140 C1145 1.363 . S
C1141 H1112 0.950 . S
C1141 C1140 1.397 . S
C1141 C1142 1.334 . S
C1142 H1113 0.950 . S
C1142 C1141 1.334 . S
C1142 C1143 1.287 . S
C1143 C1142 1.287 . S
C1143 C1144 1.524 . S
C1143 H1146 0.999 . S
C1144 H1114 0.950 . S
C1144 C1143 1.524 . S
C1144 C1145 1.415 . S
C1145 H1115 0.950 . S
C1145 C1140 1.363 . S
C1145 C1144 1.415 . S
H1146 C1143 0.999 . S
H1147 C1128 0.913 . S
H1148 C1166 0.951 . S
H1149 C1168 0.951 . S
H1150 C1170 0.950 . S
H1151 C1171 0.950 . S
H1152 C1173 0.950 . S
H1153 C1176 0.950 . S
H1154 C1177 0.950 . S
H1155 C1179 0.950 . S
H1156 C1180 0.950 . S
H1157 C1181 0.951 . S
H1158 C1183 0.951 . S
H1159 C1185 0.950 . S
H1160 C1186 0.950 . S
H1161 C1188 0.950 . S
H1162 C1191 0.950 . S
H1163 C1192 0.950 . S
H1164 C1194 0.950 . S
H1165 C1195 0.950 . S
C1166 H1148 0.951 . S
C1166 C1167 1.366 . S
C1166 C1168 1.388 . S
C1167 C1166 1.366 . S
C1167 C1171 1.385 . S
C1168 H1149 0.951 . S
C1168 C1166 1.388 . S
C1168 C1169 1.366 . S
C1169 C1168 1.366 . S
C1169 C1170 1.414 . S
C1169 C1172 1.499 . S
C1170 H1150 0.950 . S
C1170 C1169 1.414 . S
C1170 C1171 1.374 . S
C1171 H1151 0.950 . S
C1171 C1167 1.385 . S
C1171 C1170 1.374 . S
C1172 C1169 1.499 . S
C1172 C1173 1.373 . S
C1172 C1174 1.389 . S
C1173 H1152 0.950 . S
C1173 C1172 1.373 . S
C1173 C1189 1.377 . S
C1174 C1172 1.389 . S
C1174 C1175 1.524 . S
C1174 C1188 1.377 . S
C1175 C1174 1.524 . S
C1175 C1176 1.397 . S
C1175 C1180 1.363 . S
C1176 H1153 0.950 . S
C1176 C1175 1.397 . S
C1176 C1177 1.334 . S
C1177 H1154 0.950 . S
C1177 C1176 1.334 . S
C1177 C1178 1.287 . S
C1178 C1177 1.287 . S
C1178 C1179 1.524 . S
C1178 H1197 0.913 . S
C1179 H1155 0.950 . S
C1179 C1178 1.524 . S
C1179 C1180 1.415 . S
C1180 H1156 0.950 . S
C1180 C1175 1.363 . S
C1180 C1179 1.415 . S
C1181 H1157 0.951 . S
C1181 C1182 1.366 . S
C1181 C1183 1.388 . S
C1182 C1181 1.366 . S
C1182 C1186 1.385 . S
C1183 H1158 0.951 . S
C1183 C1181 1.388 . S
C1183 C1184 1.366 . S
C1184 C1183 1.366 . S
C1184 C1185 1.414 . S
C1184 C1187 1.499 . S
C1185 H1159 0.950 . S
C1185 C1184 1.414 . S
C1185 C1186 1.374 . S
C1186 H1160 0.950 . S
C1186 C1182 1.385 . S
C1186 C1185 1.374 . S
C1187 C1184 1.499 . S
C1187 C1188 1.373 . S
C1187 C1189 1.389 . S
C1188 H1161 0.950 . S
C1188 C1174 1.377 . S
C1188 C1187 1.373 . S
C1189 C1173 1.377 . S
C1189 C1187 1.389 . S
C1189 C1190 1.524 . S
C1190 C1189 1.524 . S
C1190 C1191 1.397 . S
C1190 C1195 1.363 . S
C1191 H1162 0.950 . S
C1191 C1190 1.397 . S
C1191 C1192 1.334 . S
C1192 H1163 0.950 . S
C1192 C1191 1.334 . S
C1192 C1193 1.287 . S
C1193 C1192 1.287 . S
C1193 C1194 1.524 . S
C1193 H1196 0.999 . S
C1194 H1164 0.950 . S
C1194 C1193 1.524 . S
C1194 C1195 1.415 . S
C1195 H1165 0.950 . S
C1195 C1190 1.363 . S
C1195 C1194 1.415 . S
H1196 C1193 0.999 . S
H1197 C1178 0.913 . S
H1198 C1216 0.951 . S
H1199 C1218 0.951 . S
H1200 C1220 0.950 . S
H1201 C1221 0.950 . S
H1202 C1223 0.950 . S
H1203 C1226 0.950 . S
H1204 C1227 0.950 . S
H1205 C1229 0.950 . S
H1206 C1230 0.950 . S
H1207 C1231 0.951 . S
H1208 C1233 0.951 . S
H1209 C1235 0.950 . S
H1210 C1236 0.950 . S
H1211 C1238 0.950 . S
H1212 C1241 0.950 . S
H1213 C1242 0.950 . S
H1214 C1244 0.950 . S
H1215 C1245 0.950 . S
C1216 H1198 0.951 . S
C1216 C1217 1.366 . S
C1216 C1218 1.388 . S
C1217 C1216 1.366 . S
C1217 C1221 1.385 . S
C1218 H1199 0.951 . S
C1218 C1216 1.388 . S
C1218 C1219 1.366 . S
C1219 C1218 1.366 . S
C1219 C1220 1.414 . S
C1219 C1222 1.499 . S
C1220 H1200 0.950 . S
C1220 C1219 1.414 . S
C1220 C1221 1.374 . S
C1221 H1201 0.950 . S
C1221 C1217 1.385 . S
C1221 C1220 1.374 . S
C1222 C1219 1.499 . S
C1222 C1223 1.373 . S
C1222 C1224 1.389 . S
C1223 H1202 0.950 . S
C1223 C1222 1.373 . S
C1223 C1239 1.377 . S
C1224 C1222 1.389 . S
C1224 C1225 1.524 . S
C1224 C1238 1.377 . S
C1225 C1224 1.524 . S
C1225 C1226 1.397 . S
C1225 C1230 1.363 . S
C1226 H1203 0.950 . S
C1226 C1225 1.397 . S
C1226 C1227 1.334 . S
C1227 H1204 0.950 . S
C1227 C1226 1.334 . S
C1227 C1228 1.287 . S
C1228 C1227 1.287 . S
C1228 C1229 1.524 . S
C1228 H1247 0.913 . S
C1229 H1205 0.950 . S
C1229 C1228 1.524 . S
C1229 C1230 1.415 . S
C1230 H1206 0.950 . S
C1230 C1225 1.363 . S
C1230 C1229 1.415 . S
C1231 H1207 0.951 . S
C1231 C1232 1.366 . S
C1231 C1233 1.388 . S
C1232 C1231 1.366 . S
C1232 C1236 1.385 . S
C1233 H1208 0.951 . S
C1233 C1231 1.388 . S
C1233 C1234 1.366 . S
C1234 C1233 1.366 . S
C1234 C1235 1.414 . S
C1234 C1237 1.499 . S
C1235 H1209 0.950 . S
C1235 C1234 1.414 . S
C1235 C1236 1.374 . S
C1236 H1210 0.950 . S
C1236 C1232 1.385 . S
C1236 C1235 1.374 . S
C1237 C1234 1.499 . S
C1237 C1238 1.373 . S
C1237 C1239 1.389 . S
C1238 H1211 0.950 . S
C1238 C1224 1.377 . S
C1238 C1237 1.373 . S
C1239 C1223 1.377 . S
C1239 C1237 1.389 . S
C1239 C1240 1.524 . S
C1240 C1239 1.524 . S
C1240 C1241 1.397 . S
C1240 C1245 1.363 . S
C1241 H1212 0.950 . S
C1241 C1240 1.397 . S
C1241 C1242 1.334 . S
C1242 H1213 0.950 . S
C1242 C1241 1.334 . S
C1242 C1243 1.287 . S
C1243 C1242 1.287 . S
C1243 C1244 1.524 . S
C1243 H1246 0.999 . S
C1244 H1214 0.950 . S
C1244 C1243 1.524 . S
C1244 C1245 1.415 . S
C1245 H1215 0.950 . S
C1245 C1240 1.363 . S
C1245 C1244 1.415 . S
H1246 C1243 0.999 . S
H1247 C1228 0.913 . S
H1248 C1266 0.951 . S
H1249 C1268 0.951 . S
H1250 C1270 0.950 . S
H1251 C1271 0.950 . S
H1252 C1273 0.950 . S
H1253 C1276 0.950 . S
H1254 C1277 0.950 . S
H1255 C1279 0.950 . S
H1256 C1280 0.950 . S
H1257 C1281 0.951 . S
H1258 C1283 0.951 . S
H1259 C1285 0.950 . S
H1260 C1286 0.950 . S
H1261 C1288 0.950 . S
H1262 C1291 0.950 . S
H1263 C1292 0.950 . S
H1264 C1294 0.950 . S
H1265 C1295 0.950 . S
C1266 H1248 0.951 . S
C1266 C1267 1.366 . S
C1266 C1268 1.388 . S
C1267 C1266 1.366 . S
C1267 C1271 1.385 . S
C1268 H1249 0.951 . S
C1268 C1266 1.388 . S
C1268 C1269 1.366 . S
C1269 C1268 1.366 . S
C1269 C1270 1.414 . S
C1269 C1272 1.499 . S
C1270 H1250 0.950 . S
C1270 C1269 1.414 . S
C1270 C1271 1.374 . S
C1271 H1251 0.950 . S
C1271 C1267 1.385 . S
C1271 C1270 1.374 . S
C1272 C1269 1.499 . S
C1272 C1273 1.373 . S
C1272 C1274 1.389 . S
C1273 H1252 0.950 . S
C1273 C1272 1.373 . S
C1273 C1289 1.377 . S
C1274 C1272 1.389 . S
C1274 C1275 1.524 . S
C1274 C1288 1.377 . S
C1275 C1274 1.524 . S
C1275 C1276 1.397 . S
C1275 C1280 1.363 . S
C1276 H1253 0.950 . S
C1276 C1275 1.397 . S
C1276 C1277 1.334 . S
C1277 H1254 0.950 . S
C1277 C1276 1.334 . S
C1277 C1278 1.287 . S
C1278 C1277 1.287 . S
C1278 C1279 1.524 . S
C1278 H1297 0.913 . S
C1279 H1255 0.950 . S
C1279 C1278 1.524 . S
C1279 C1280 1.415 . S
C1280 H1256 0.950 . S
C1280 C1275 1.363 . S
C1280 C1279 1.415 . S
C1281 H1257 0.951 . S
C1281 C1282 1.366 . S
C1281 C1283 1.388 . S
C1282 C1281 1.366 . S
C1282 C1286 1.385 . S
C1283 H1258 0.951 . S
C1283 C1281 1.388 . S
C1283 C1284 1.366 . S
C1284 C1283 1.366 . S
C1284 C1285 1.414 . S
C1284 C1287 1.499 . S
C1285 H1259 0.950 . S
C1285 C1284 1.414 . S
C1285 C1286 1.374 . S
C1286 H1260 0.950 . S
C1286 C1282 1.385 . S
C1286 C1285 1.374 . S
C1287 C1284 1.499 . S
C1287 C1288 1.373 . S
C1287 C1289 1.389 . S
C1288 H1261 0.950 . S
C1288 C1274 1.377 . S
C1288 C1287 1.373 . S
C1289 C1273 1.377 . S
C1289 C1287 1.389 . S
C1289 C1290 1.524 . S
C1290 C1289 1.524 . S
C1290 C1291 1.397 . S
C1290 C1295 1.363 . S
C1291 H1262 0.950 . S
C1291 C1290 1.397 . S
C1291 C1292 1.334 . S
C1292 H1263 0.950 . S
C1292 C1291 1.334 . S
C1292 C1293 1.287 . S
C1293 C1292 1.287 . S
C1293 C1294 1.524 . S
C1293 H1296 0.999 . S
C1294 H1264 0.950 . S
C1294 C1293 1.524 . S
C1294 C1295 1.415 . S
C1295 H1265 0.950 . S
C1295 C1290 1.363 . S
C1295 C1294 1.415 . S
H1296 C1293 0.999 . S
H1297 C1278 0.913 . S
H1298 C1316 0.951 . S
H1299 C1318 0.951 . S
H1300 C1320 0.950 . S
H1301 C1321 0.950 . S
H1302 C1323 0.950 . S
H1303 C1326 0.950 . S
H1304 C1327 0.950 . S
H1305 C1329 0.950 . S
H1306 C1330 0.950 . S
H1307 C1331 0.951 . S
H1308 C1333 0.951 . S
H1309 C1335 0.950 . S
H1310 C1336 0.950 . S
H1311 C1338 0.950 . S
H1312 C1341 0.950 . S
H1313 C1342 0.950 . S
H1314 C1344 0.950 . S
H1315 C1345 0.950 . S
C1316 H1298 0.951 . S
C1316 C1317 1.366 . S
C1316 C1318 1.388 . S
C1317 C1316 1.366 . S
C1317 C1321 1.385 . S
C1318 H1299 0.951 . S
C1318 C1316 1.388 . S
C1318 C1319 1.366 . S
C1319 C1318 1.366 . S
C1319 C1320 1.414 . S
C1319 C1322 1.499 . S
C1320 H1300 0.950 . S
C1320 C1319 1.414 . S
C1320 C1321 1.374 . S
C1321 H1301 0.950 . S
C1321 C1317 1.385 . S
C1321 C1320 1.374 . S
C1322 C1319 1.499 . S
C1322 C1323 1.373 . S
C1322 C1324 1.389 . S
C1323 H1302 0.950 . S
C1323 C1322 1.373 . S
C1323 C1339 1.377 . S
C1324 C1322 1.389 . S
C1324 C1325 1.524 . S
C1324 C1338 1.377 . S
C1325 C1324 1.524 . S
C1325 C1326 1.397 . S
C1325 C1330 1.363 . S
C1326 H1303 0.950 . S
C1326 C1325 1.397 . S
C1326 C1327 1.334 . S
C1327 H1304 0.950 . S
C1327 C1326 1.334 . S
C1327 C1328 1.287 . S
C1328 C1327 1.287 . S
C1328 C1329 1.524 . S
C1328 H1347 0.913 . S
C1329 H1305 0.950 . S
C1329 C1328 1.524 . S
C1329 C1330 1.415 . S
C1330 H1306 0.950 . S
C1330 C1325 1.363 . S
C1330 C1329 1.415 . S
C1331 H1307 0.951 . S
C1331 C1332 1.366 . S
C1331 C1333 1.388 . S
C1332 C1331 1.366 . S
C1332 C1336 1.385 . S
C1333 H1308 0.951 . S
C1333 C1331 1.388 . S
C1333 C1334 1.366 . S
C1334 C1333 1.366 . S
C1334 C1335 1.414 . S
C1334 C1337 1.499 . S
C1335 H1309 0.950 . S
C1335 C1334 1.414 . S
C1335 C1336 1.374 . S
C1336 H1310 0.950 . S
C1336 C1332 1.385 . S
C1336 C1335 1.374 . S
C1337 C1334 1.499 . S
C1337 C1338 1.373 . S
C1337 C1339 1.389 . S
C1338 H1311 0.950 . S
C1338 C1324 1.377 . S
C1338 C1337 1.373 . S
C1339 C1323 1.377 . S
C1339 C1337 1.389 . S
C1339 C1340 1.524 . S
C1340 C1339 1.524 . S
C1340 C1341 1.397 . S
C1340 C1345 1.363 . S
C1341 H1312 0.950 . S
C1341 C1340 1.397 . S
C1341 C1342 1.334 . S
C1342 H1313 0.950 . S
C1342 C1341 1.334 . S
C1342 C1343 1.287 . S
C1343 C1342 1.287 . S
C1343 C1344 1.524 . S
C1343 H1346 0.999 . S
C1344 H1314 0.950 . S
C1344 C1343 1.524 . S
C1344 C1345 1.415 . S
C1345 H1315 0.950 . S
C1345 C1340 1.363 . S
C1345 C1344 1.415 . S
H1346 C1343 0.999 . S
H1347 C1328 0.913 . S
H1348 C1366 0.951 . S
H1349 C1368 0.951 . S
H1350 C1370 0.950 . S
H1351 C1371 0.950 . S
H1352 C1373 0.950 . S
H1353 C1376 0.950 . S
H1354 C1377 0.950 . S
H1355 C1379 0.950 . S
H1356 C1380 0.950 . S
H1357 C1381 0.951 . S
H1358 C1383 0.951 . S
H1359 C1385 0.950 . S
H1360 C1386 0.950 . S
H1361 C1388 0.950 . S
H1362 C1391 0.950 . S
H1363 C1392 0.950 . S
H1364 C1394 0.950 . S
H1365 C1395 0.950 . S
C1366 H1348 0.951 . S
C1366 C1367 1.366 . S
C1366 C1368 1.388 . S
C1367 C1366 1.366 . S
C1367 C1371 1.385 . S
C1368 H1349 0.951 . S
C1368 C1366 1.388 . S
C1368 C1369 1.366 . S
C1369 C1368 1.366 . S
C1369 C1370 1.414 . S
C1369 C1372 1.499 . S
C1370 H1350 0.950 . S
C1370 C1369 1.414 . S
C1370 C1371 1.374 . S
C1371 H1351 0.950 . S
C1371 C1367 1.385 . S
C1371 C1370 1.374 . S
C1372 C1369 1.499 . S
C1372 C1373 1.373 . S
C1372 C1374 1.389 . S
C1373 H1352 0.950 . S
C1373 C1372 1.373 . S
C1373 C1389 1.377 . S
C1374 C1372 1.389 . S
C1374 C1375 1.524 . S
C1374 C1388 1.377 . S
C1375 C1374 1.524 . S
C1375 C1376 1.397 . S
C1375 C1380 1.363 . S
C1376 H1353 0.950 . S
C1376 C1375 1.397 . S
C1376 C1377 1.334 . S
C1377 H1354 0.950 . S
C1377 C1376 1.334 . S
C1377 C1378 1.287 . S
C1378 C1377 1.287 . S
C1378 C1379 1.524 . S
C1378 H1397 0.913 . S
C1379 H1355 0.950 . S
C1379 C1378 1.524 . S
C1379 C1380 1.415 . S
C1380 H1356 0.950 . S
C1380 C1375 1.363 . S
C1380 C1379 1.415 . S
C1381 H1357 0.951 . S
C1381 C1382 1.366 . S
C1381 C1383 1.388 . S
C1382 C1381 1.366 . S
C1382 C1386 1.385 . S
C1383 H1358 0.951 . S
C1383 C1381 1.388 . S
C1383 C1384 1.366 . S
C1384 C1383 1.366 . S
C1384 C1385 1.414 . S
C1384 C1387 1.499 . S
C1385 H1359 0.950 . S
C1385 C1384 1.414 . S
C1385 C1386 1.374 . S
C1386 H1360 0.950 . S
C1386 C1382 1.385 . S
C1386 C1385 1.374 . S
C1387 C1384 1.499 . S
C1387 C1388 1.373 . S
C1387 C1389 1.389 . S
C1388 H1361 0.950 . S
C1388 C1374 1.377 . S
C1388 C1387 1.373 . S
C1389 C1373 1.377 . S
C1389 C1387 1.389 . S
C1389 C1390 1.524 . S
C1390 C1389 1.524 . S
C1390 C1391 1.397 . S
C1390 C1395 1.363 . S
C1391 H1362 0.950 . S
C1391 C1390 1.397 . S
C1391 C1392 1.334 . S
C1392 H1363 0.950 . S
C1392 C1391 1.334 . S
C1392 C1393 1.287 . S
C1393 C1392 1.287 . S
C1393 C1394 1.524 . S
C1393 H1396 0.999 . S
C1394 H1364 0.950 . S
C1394 C1393 1.524 . S
C1394 C1395 1.415 . S
C1395 H1365 0.950 . S
C1395 C1390 1.363 . S
C1395 C1394 1.415 . S
H1396 C1393 0.999 . S
H1397 C1378 0.913 . S
H1398 C1416 0.951 . S
H1399 C1418 0.951 . S
H1400 C1420 0.950 . S
H1401 C1421 0.950 . S
H1402 C1423 0.950 . S
H1403 C1426 0.950 . S
H1404 C1427 0.950 . S
H1405 C1429 0.950 . S
H1406 C1430 0.950 . S
H1407 C1431 0.951 . S
H1408 C1433 0.951 . S
H1409 C1435 0.950 . S
H1410 C1436 0.950 . S
H1411 C1438 0.950 . S
H1412 C1441 0.950 . S
H1413 C1442 0.950 . S
H1414 C1444 0.950 . S
H1415 C1445 0.950 . S
C1416 H1398 0.951 . S
C1416 C1417 1.366 1_655 S
C1416 C1418 1.388 . S
C1417 C1416 1.366 1_455 S
C1417 C1421 1.385 . S
C1418 H1399 0.951 . S
C1418 C1416 1.388 . S
C1418 C1419 1.366 1_655 S
C1419 C1418 1.366 1_455 S
C1419 C1420 1.414 . S
C1419 C1422 1.499 . S
C1420 H1400 0.950 . S
C1420 C1419 1.414 . S
C1420 C1421 1.374 . S
C1421 H1401 0.950 . S
C1421 C1417 1.385 . S
C1421 C1420 1.374 . S
C1422 C1419 1.499 . S
C1422 C1423 1.373 . S
C1422 C1424 1.389 1_455 S
C1423 H1402 0.950 . S
C1423 C1422 1.373 . S
C1423 C1439 1.377 . S
C1424 C1422 1.389 1_655 S
C1424 C1425 1.524 . S
C1424 C1438 1.377 . S
C1425 C1424 1.524 . S
C1425 C1426 1.397 . S
C1425 C1430 1.363 . S
C1426 H1403 0.950 . S
C1426 C1425 1.397 . S
C1426 C1427 1.334 . S
C1427 H1404 0.950 . S
C1427 C1426 1.334 . S
C1427 C1428 1.287 . S
C1428 C1427 1.287 . S
C1428 C1429 1.524 . S
C1428 H1447 0.913 . S
C1429 H1405 0.950 . S
C1429 C1428 1.524 . S
C1429 C1430 1.415 . S
C1430 H1406 0.950 . S
C1430 C1425 1.363 . S
C1430 C1429 1.415 . S
C1431 H1407 0.951 . S
C1431 C1432 1.366 1_455 S
C1431 C1433 1.388 . S
C1432 C1431 1.366 1_655 S
C1432 C1436 1.385 . S
C1433 H1408 0.951 . S
C1433 C1431 1.388 . S
C1433 C1434 1.366 1_455 S
C1434 C1433 1.366 1_655 S
C1434 C1435 1.414 . S
C1434 C1437 1.499 . S
C1435 H1409 0.950 . S
C1435 C1434 1.414 . S
C1435 C1436 1.374 . S
C1436 H1410 0.950 . S
C1436 C1432 1.385 . S
C1436 C1435 1.374 . S
C1437 C1434 1.499 . S
C1437 C1438 1.373 . S
C1437 C1439 1.389 1_655 S
C1438 H1411 0.950 . S
C1438 C1424 1.377 . S
C1438 C1437 1.373 . S
C1439 C1423 1.377 . S
C1439 C1437 1.389 1_455 S
C1439 C1440 1.524 . S
C1440 C1439 1.524 . S
C1440 C1441 1.397 . S
C1440 C1445 1.363 . S
C1441 H1412 0.950 . S
C1441 C1440 1.397 . S
C1441 C1442 1.334 . S
C1442 H1413 0.950 . S
C1442 C1441 1.334 . S
C1442 C1443 1.287 . S
C1443 C1442 1.287 . S
C1443 C1444 1.524 . S
C1443 H1446 0.999 . S
C1444 H1414 0.950 . S
C1444 C1443 1.524 . S
C1444 C1445 1.415 . S
C1445 H1415 0.950 . S
C1445 C1440 1.363 . S
C1445 C1444 1.415 . S
H1446 C1443 0.999 . S
H1447 C1428 0.913 . S
H1448 C1466 0.951 . S
H1449 C1468 0.951 . S
H1450 C1470 0.950 . S
H1451 C1471 0.950 . S
H1452 C1473 0.950 . S
H1453 C1476 0.950 . S
H1454 C1477 0.950 . S
H1455 C1479 0.950 . S
H1456 C1480 0.950 . S
H1457 C1481 0.951 . S
H1458 C1483 0.951 . S
H1459 C1485 0.950 . S
H1460 C1486 0.950 . S
H1461 C1488 0.950 . S
H1462 C1491 0.950 . S
H1463 C1492 0.950 . S
H1464 C1494 0.950 . S
H1465 C1495 0.950 . S
C1466 H1448 0.951 . S
C1466 C1467 1.366 . S
C1466 C1468 1.388 . S
C1467 C1466 1.366 . S
C1467 C1471 1.385 . S
C1468 H1449 0.951 . S
C1468 C1466 1.388 . S
C1468 C1469 1.366 . S
C1469 C1468 1.366 . S
C1469 C1470 1.414 . S
C1469 C1472 1.499 . S
C1470 H1450 0.950 . S
C1470 C1469 1.414 . S
C1470 C1471 1.374 . S
C1471 H1451 0.950 . S
C1471 C1467 1.385 . S
C1471 C1470 1.374 . S
C1472 C1469 1.499 . S
C1472 C1473 1.373 . S
C1472 C1474 1.389 . S
C1473 H1452 0.950 . S
C1473 C1472 1.373 . S
C1473 C1489 1.377 . S
C1474 C1472 1.389 . S
C1474 C1475 1.524 . S
C1474 C1488 1.377 . S
C1475 C1474 1.524 . S
C1475 C1476 1.397 . S
C1475 C1480 1.363 . S
C1476 H1453 0.950 . S
C1476 C1475 1.397 . S
C1476 C1477 1.334 . S
C1477 H1454 0.950 . S
C1477 C1476 1.334 . S
C1477 C1478 1.287 . S
C1478 C1477 1.287 . S
C1478 C1479 1.524 . S
C1478 H1497 0.913 . S
C1479 H1455 0.950 . S
C1479 C1478 1.524 . S
C1479 C1480 1.415 . S
C1480 H1456 0.950 . S
C1480 C1475 1.363 . S
C1480 C1479 1.415 . S
C1481 H1457 0.951 . S
C1481 C1482 1.366 . S
C1481 C1483 1.388 . S
C1482 C1481 1.366 . S
C1482 C1486 1.385 . S
C1483 H1458 0.951 . S
C1483 C1481 1.388 . S
C1483 C1484 1.366 . S
C1484 C1483 1.366 . S
C1484 C1485 1.414 . S
C1484 C1487 1.499 . S
C1485 H1459 0.950 . S
C1485 C1484 1.414 . S
C1485 C1486 1.374 . S
C1486 H1460 0.950 . S
C1486 C1482 1.385 . S
C1486 C1485 1.374 . S
C1487 C1484 1.499 . S
C1487 C1488 1.373 . S
C1487 C1489 1.389 . S
C1488 H1461 0.950 . S
C1488 C1474 1.377 . S
C1488 C1487 1.373 . S
C1489 C1473 1.377 . S
C1489 C1487 1.389 . S
C1489 C1490 1.524 . S
C1490 C1489 1.524 . S
C1490 C1491 1.397 . S
C1490 C1495 1.363 . S
C1491 H1462 0.950 . S
C1491 C1490 1.397 . S
C1491 C1492 1.334 . S
C1492 H1463 0.950 . S
C1492 C1491 1.334 . S
C1492 C1493 1.287 . S
C1493 C1492 1.287 . S
C1493 C1494 1.524 . S
C1493 H1496 0.999 . S
C1494 H1464 0.950 . S
C1494 C1493 1.524 . S
C1494 C1495 1.415 . S
C1495 H1465 0.950 . S
C1495 C1490 1.363 . S
C1495 C1494 1.415 . S
H1496 C1493 0.999 . S
H1497 C1478 0.913 . S
H1498 C1516 0.951 . S
H1499 C1518 0.951 . S
H1500 C1520 0.950 . S
H1501 C1521 0.950 . S
H1502 C1523 0.950 . S
H1503 C1526 0.950 . S
H1504 C1527 0.950 . S
H1505 C1529 0.950 . S
H1506 C1530 0.950 . S
H1507 C1531 0.951 . S
H1508 C1533 0.951 . S
H1509 C1535 0.950 . S
H1510 C1536 0.950 . S
H1511 C1538 0.950 . S
H1512 C1541 0.950 . S
H1513 C1542 0.950 . S
H1514 C1544 0.950 . S
H1515 C1545 0.950 . S
C1516 H1498 0.951 . S
C1516 C1517 1.366 . S
C1516 C1518 1.388 . S
C1517 C1516 1.366 . S
C1517 C1521 1.385 . S
C1518 H1499 0.951 . S
C1518 C1516 1.388 . S
C1518 C1519 1.366 . S
C1519 C1518 1.366 . S
C1519 C1520 1.414 . S
C1519 C1522 1.491 . S
C1520 H1500 0.950 . S
C1520 C1519 1.414 . S
C1520 C1521 1.374 . S
C1521 H1501 0.950 . S
C1521 C1517 1.385 . S
C1521 C1520 1.374 . S
C1522 C1519 1.491 . S
C1522 C1523 1.389 . S
C1522 C1524 1.385 1_545 S
C1523 H1502 0.950 . S
C1523 C1522 1.389 . S
C1523 C1539 1.377 . S
C1524 C1522 1.385 1_565 S
C1524 C1525 1.524 . S
C1524 C1538 1.377 . S
C1525 C1524 1.524 . S
C1525 C1526 1.397 . S
C1525 C1530 1.363 . S
C1526 H1503 0.950 . S
C1526 C1525 1.397 . S
C1526 C1527 1.334 . S
C1527 H1504 0.950 . S
C1527 C1526 1.334 . S
C1527 C1528 1.287 . S
C1528 C1527 1.287 . S
C1528 C1529 1.524 . S
C1528 H1547 0.913 . S
C1529 H1505 0.950 . S
C1529 C1528 1.524 . S
C1529 C1530 1.415 . S
C1530 H1506 0.950 . S
C1530 C1525 1.363 . S
C1530 C1529 1.415 . S
C1531 H1507 0.951 . S
C1531 C1532 1.366 . S
C1531 C1533 1.388 . S
C1532 C1531 1.366 . S
C1532 C1536 1.385 . S
C1533 H1508 0.951 . S
C1533 C1531 1.388 . S
C1533 C1534 1.366 . S
C1534 C1533 1.366 . S
C1534 C1535 1.414 . S
C1534 C1537 1.499 . S
C1535 H1509 0.950 . S
C1535 C1534 1.414 . S
C1535 C1536 1.374 . S
C1536 H1510 0.950 . S
C1536 C1532 1.385 . S
C1536 C1535 1.374 . S
C1537 C1534 1.499 . S
C1537 C1538 1.373 . S
C1537 C1539 1.389 1_565 S
C1538 H1511 0.950 . S
C1538 C1524 1.377 . S
C1538 C1537 1.373 . S
C1539 C1523 1.377 . S
C1539 C1537 1.389 1_545 S
C1539 C1540 1.524 . S
C1540 C1539 1.524 . S
C1540 C1541 1.397 . S
C1540 C1545 1.363 . S
C1541 H1512 0.950 . S
C1541 C1540 1.397 . S
C1541 C1542 1.334 . S
C1542 H1513 0.950 . S
C1542 C1541 1.334 . S
C1542 C1543 1.287 . S
C1543 C1542 1.287 . S
C1543 C1544 1.524 . S
C1543 H1546 0.999 . S
C1544 H1514 0.950 . S
C1544 C1543 1.524 . S
C1544 C1545 1.415 . S
C1545 H1515 0.950 . S
C1545 C1540 1.363 . S
C1545 C1544 1.415 . S
H1546 C1543 0.999 . S
H1547 C1528 0.913 . S
H1548 C1566 0.951 1_545 S
H1549 C1568 0.963 . S
H1550 C1570 0.950 . S
H1551 C1571 0.950 . S
H1552 C1573 0.950 . S
H1553 C1576 0.950 . S
H1554 C1577 0.950 . S
H1555 C1579 0.950 . S
H1556 C1580 0.950 . S
H1557 C1581 0.951 . S
H1558 C1583 0.912 1_554 S
H1559 C1585 0.950 . S
H1560 C1586 0.950 . S
H1561 C1588 0.950 . S
H1562 C1591 0.950 . S
H1563 C1592 0.950 . S
H1564 C1594 0.950 . S
H1565 C1595 0.950 . S
C1566 H1548 0.951 1_565 S
C1566 C1567 1.366 . S
C1566 C1568 1.388 . S
C1567 C1566 1.366 . S
C1567 C1571 1.385 . S
C1568 H1549 0.963 . S
C1568 C1566 1.388 . S
C1568 C1569 1.366 . S
C1569 C1568 1.366 . S
C1569 C1570 1.414 . S
C1569 C1572 1.499 . S
C1570 H1550 0.950 . S
C1570 C1569 1.414 . S
C1570 C1571 1.374 . S
C1571 H1551 0.950 . S
C1571 C1567 1.385 . S
C1571 C1570 1.374 . S
C1572 C1569 1.499 . S
C1572 C1573 1.373 . S
C1572 C1574 1.389 . S
C1573 H1552 0.950 . S
C1573 C1572 1.373 . S
C1573 C1589 1.377 . S
C1574 C1572 1.389 . S
C1574 C1575 1.524 . S
C1574 C1588 1.377 1_554 S
C1575 C1574 1.524 . S
C1575 C1576 1.397 . S
C1575 C1580 1.363 1_554 S
C1576 H1553 0.950 . S
C1576 C1575 1.397 . S
C1576 C1577 1.334 . S
C1577 H1554 0.950 . S
C1577 C1576 1.334 . S
C1577 C1578 1.287 . S
C1578 C1577 1.287 . S
C1578 C1579 1.524 1_554 S
C1578 H1597 0.913 . S
C1579 H1555 0.950 . S
C1579 C1578 1.524 1_556 S
C1579 C1580 1.415 . S
C1580 H1556 0.950 . S
C1580 C1575 1.363 1_556 S
C1580 C1579 1.415 . S
C1581 H1557 0.951 . S
C1581 C1582 1.366 . S
C1581 C1583 1.406 . S
C1582 C1581 1.366 . S
C1582 C1586 1.385 . S
C1583 H1558 0.912 1_556 S
C1583 C1581 1.406 . S
C1583 C1584 1.387 . S
C1584 C1583 1.387 . S
C1584 C1585 1.414 . S
C1584 C1587 1.499 . S
C1585 H1559 0.950 . S
C1585 C1584 1.414 . S
C1585 C1586 1.374 . S
C1586 H1560 0.950 . S
C1586 C1582 1.385 . S
C1586 C1585 1.374 . S
C1587 C1584 1.499 . S
C1587 C1588 1.373 . S
C1587 C1589 1.389 1_556 S
C1588 H1561 0.950 . S
C1588 C1574 1.377 1_556 S
C1588 C1587 1.373 . S
C1589 C1573 1.377 . S
C1589 C1587 1.389 1_554 S
C1589 C1590 1.524 . S
C1590 C1589 1.524 . S
C1590 C1591 1.397 1_554 S
C1590 C1595 1.363 . S
C1591 H1562 0.950 . S
C1591 C1590 1.397 1_556 S
C1591 C1592 1.334 . S
C1592 H1563 0.950 . S
C1592 C1591 1.334 . S
C1592 C1593 1.287 1_556 S
C1593 C1592 1.287 1_554 S
C1593 C1594 1.524 . S
C1593 H1596 0.999 . S
C1594 H1564 0.950 . S
C1594 C1593 1.524 . S
C1594 C1595 1.415 . S
C1595 H1565 0.950 . S
C1595 C1590 1.363 . S
C1595 C1594 1.415 . S
H1596 C1593 0.999 . S
H1597 C1578 0.913 . S
H1598 C1616 0.951 . S
H1599 C1618 0.951 . S
H1600 C1620 0.950 1_556 S
H1601 C1621 0.950 1_655 S
H1602 C1623 0.956 . S
H1603 C1626 0.950 . S
H1604 C1627 0.950 . S
H1605 C1629 0.950 . S
H1606 C1630 0.950 . S
H1607 C1631 0.951 . S
H1608 C1633 0.951 . S
H1609 C1635 0.950 1_554 S
H1610 C1636 0.950 . S
H1611 C1638 0.950 . S
H1612 C1641 0.950 . S
H1613 C1642 0.950 . S
H1614 C1644 0.950 . S
H1615 C1645 0.950 . S
C1616 H1598 0.951 . S
C1616 C1617 1.366 . S
C1616 C1618 1.388 . S
C1617 C1616 1.366 . S
C1617 C1621 1.385 . S
C1618 H1599 0.951 . S
C1618 C1616 1.388 . S
C1618 C1619 1.366 . S
C1619 C1618 1.366 . S
C1619 C1620 1.414 . S
C1619 C1622 1.499 . S
C1620 H1600 0.950 1_554 S
C1620 C1619 1.414 . S
C1620 C1621 1.374 . S
C1621 H1601 0.950 1_455 S
C1621 C1617 1.385 . S
C1621 C1620 1.374 . S
C1622 C1619 1.499 . S
C1622 C1623 1.352 1_554 S
C1622 C1624 1.389 . S
C1623 H1602 0.956 . S
C1623 C1622 1.352 1_556 S
C1623 C1639 1.393 . S
C1624 C1622 1.389 . S
C1624 C1625 1.524 . S
C1624 C1638 1.377 . S
C1625 C1624 1.524 . S
C1625 C1626 1.397 . S
C1625 C1630 1.363 . S
C1626 H1603 0.950 . S
C1626 C1625 1.397 . S
C1626 C1627 1.334 . S
C1627 H1604 0.950 . S
C1627 C1626 1.334 . S
C1627 C1628 1.287 . S
C1628 C1627 1.287 . S
C1628 C1629 1.524 . S
C1628 H1647 0.913 . S
C1629 H1605 0.950 . S
C1629 C1628 1.524 . S
C1629 C1630 1.415 . S
C1630 H1606 0.950 . S
C1630 C1625 1.363 . S
C1630 C1629 1.415 . S
C1631 H1607 0.951 . S
C1631 C1632 1.366 . S
C1631 C1633 1.388 . S
C1632 C1631 1.366 . S
C1632 C1636 1.385 . S
C1633 H1608 0.951 . S
C1633 C1631 1.388 . S
C1633 C1634 1.366 . S
C1634 C1633 1.366 . S
C1634 C1635 1.414 . S
C1634 C1637 1.499 . S
C1635 H1609 0.950 1_556 S
C1635 C1634 1.414 . S
C1635 C1636 1.374 . S
C1636 H1610 0.950 . S
C1636 C1632 1.385 . S
C1636 C1635 1.374 . S
C1637 C1634 1.499 . S
C1637 C1638 1.373 1_556 S
C1637 C1639 1.389 . S
C1638 H1611 0.950 . S
C1638 C1624 1.377 . S
C1638 C1637 1.373 1_554 S
C1639 C1623 1.393 . S
C1639 C1637 1.389 . S
C1639 C1640 1.524 . S
C1640 C1639 1.524 . S
C1640 C1641 1.397 . S
C1640 C1645 1.363 . S
C1641 H1612 0.950 . S
C1641 C1640 1.397 . S
C1641 C1642 1.334 . S
C1642 H1613 0.950 . S
C1642 C1641 1.334 . S
C1642 C1643 1.287 . S
C1643 C1642 1.287 . S
C1643 C1644 1.524 . S
C1643 H1646 0.999 . S
C1644 H1614 0.950 . S
C1644 C1643 1.524 . S
C1644 C1645 1.415 . S
C1645 H1615 0.950 . S
C1645 C1640 1.363 . S
C1645 C1644 1.415 . S
H1646 C1643 0.999 . S
H1647 C1628 0.913 . S
H1648 C1666 0.951 . S
H1649 C1668 0.951 . S
H1650 C1670 0.950 . S
H1651 C1671 0.950 . S
H1652 C1673 0.950 . S
H1653 C1676 0.950 . S
H1654 C1677 0.950 . S
H1655 C1679 0.950 . S
H1656 C1680 0.950 . S
H1657 C1681 0.951 . S
H1658 C1683 0.951 . S
H1659 C1685 0.950 . S
H1660 C1686 0.950 . S
H1661 C1688 0.950 . S
H1662 C1691 0.950 . S
H1663 C1692 0.950 . S
H1664 C1694 0.950 . S
H1665 C1695 0.950 . S
C1666 H1648 0.951 . S
C1666 C1667 1.366 . S
C1666 C1668 1.388 . S
C1667 C1666 1.366 . S
C1667 C1671 1.385 . S
C1668 H1649 0.951 . S
C1668 C1666 1.388 . S
C1668 C1669 1.366 . S
C1669 C1668 1.366 . S
C1669 C1670 1.414 . S
C1669 C1672 1.499 . S
C1670 H1650 0.950 . S
C1670 C1669 1.414 . S
C1670 C1671 1.374 . S
C1671 H1651 0.950 . S
C1671 C1667 1.385 . S
C1671 C1670 1.374 . S
C1672 C1669 1.499 . S
C1672 C1673 1.373 1_554 S
C1672 C1674 1.389 . S
C1673 H1652 0.950 . S
C1673 C1672 1.373 1_556 S
C1673 C1689 1.377 . S
C1674 C1672 1.389 . S
C1674 C1675 1.524 . S
C1674 C1688 1.377 . S
C1675 C1674 1.524 . S
C1675 C1676 1.397 . S
C1675 C1680 1.363 . S
C1676 H1653 0.950 . S
C1676 C1675 1.397 . S
C1676 C1677 1.334 . S
C1677 H1654 0.950 . S
C1677 C1676 1.334 . S
C1677 C1678 1.287 . S
C1678 C1677 1.287 . S
C1678 C1679 1.524 . S
C1678 H1697 0.913 . S
C1679 H1655 0.950 . S
C1679 C1678 1.524 . S
C1679 C1680 1.415 . S
C1680 H1656 0.950 . S
C1680 C1675 1.363 . S
C1680 C1679 1.415 . S
C1681 H1657 0.951 . S
C1681 C1682 1.366 . S
C1681 C1683 1.388 . S
C1682 C1681 1.366 . S
C1682 C1686 1.385 . S
C1683 H1658 0.951 . S
C1683 C1681 1.388 . S
C1683 C1684 1.366 . S
C1684 C1683 1.366 . S
C1684 C1685 1.414 . S
C1684 C1687 1.499 . S
C1685 H1659 0.950 . S
C1685 C1684 1.414 . S
C1685 C1686 1.374 . S
C1686 H1660 0.950 . S
C1686 C1682 1.385 . S
C1686 C1685 1.374 . S
C1687 C1684 1.499 . S
C1687 C1688 1.373 1_556 S
C1687 C1689 1.389 . S
C1688 H1661 0.950 . S
C1688 C1674 1.377 . S
C1688 C1687 1.373 1_554 S
C1689 C1673 1.377 . S
C1689 C1687 1.389 . S
C1689 C1690 1.524 . S
C1690 C1689 1.524 . S
C1690 C1691 1.397 . S
C1690 C1695 1.363 . S
C1691 H1662 0.950 . S
C1691 C1690 1.397 . S
C1691 C1692 1.334 . S
C1692 H1663 0.950 . S
C1692 C1691 1.334 . S
C1692 C1693 1.287 . S
C1693 C1692 1.287 . S
C1693 C1694 1.524 . S
C1693 H1696 0.999 . S
C1694 H1664 0.950 . S
C1694 C1693 1.524 . S
C1694 C1695 1.415 . S
C1695 H1665 0.950 . S
C1695 C1690 1.363 . S
C1695 C1694 1.415 . S
H1696 C1693 0.999 . S
H1697 C1678 0.913 . S
H1698 C1716 0.951 . S
H1699 C1718 0.951 . S
H1700 C1720 0.950 . S
H1701 C1721 0.950 1_565 S
H1702 C1723 0.950 . S
H1703 C1726 0.950 . S
H1704 C1727 0.950 . S
H1705 C1729 0.950 . S
H1706 C1730 0.950 . S
H1707 C1731 0.951 . S
H1708 C1733 0.951 . S
H1709 C1735 0.950 . S
H1710 C1736 0.950 . S
H1711 C1738 0.950 . S
H1712 C1741 0.950 . S
H1713 C1742 0.950 . S
H1714 C1744 0.950 . S
H1715 C1745 0.950 . S
C1716 H1698 0.951 . S
C1716 C1717 1.366 . S
C1716 C1718 1.388 . S
C1717 C1716 1.366 . S
C1717 C1721 1.385 . S
C1718 H1699 0.951 . S
C1718 C1716 1.388 . S
C1718 C1719 1.366 . S
C1719 C1718 1.366 . S
C1719 C1720 1.414 . S
C1719 C1722 1.499 . S
C1720 H1700 0.950 . S
C1720 C1719 1.414 . S
C1720 C1721 1.374 . S
C1721 H1701 0.950 1_545 S
C1721 C1717 1.385 . S
C1721 C1720 1.374 . S
C1722 C1719 1.499 . S
C1722 C1723 1.373 1_556 S
C1722 C1724 1.389 . S
C1723 H1702 0.950 . S
C1723 C1722 1.373 1_554 S
C1723 C1739 1.377 . S
C1724 C1722 1.389 . S
C1724 C1725 1.524 . S
C1724 C1738 1.377 . S
C1725 C1724 1.524 . S
C1725 C1726 1.397 . S
C1725 C1730 1.363 . S
C1726 H1703 0.950 . S
C1726 C1725 1.397 . S
C1726 C1727 1.334 . S
C1727 H1704 0.950 . S
C1727 C1726 1.334 . S
C1727 C1728 1.287 . S
C1728 C1727 1.287 . S
C1728 C1729 1.524 . S
C1728 H1747 0.913 . S
C1729 H1705 0.950 . S
C1729 C1728 1.524 . S
C1729 C1730 1.415 . S
C1730 H1706 0.950 . S
C1730 C1725 1.363 . S
C1730 C1729 1.415 . S
C1731 H1707 0.951 . S
C1731 C1732 1.366 . S
C1731 C1733 1.388 . S
C1732 C1731 1.366 . S
C1732 C1736 1.385 . S
C1733 H1708 0.951 . S
C1733 C1731 1.388 . S
C1733 C1734 1.366 . S
C1734 C1733 1.366 . S
C1734 C1735 1.414 . S
C1734 C1737 1.499 . S
C1735 H1709 0.950 . S
C1735 C1734 1.414 . S
C1735 C1736 1.374 . S
C1736 H1710 0.950 . S
C1736 C1732 1.385 . S
C1736 C1735 1.374 . S
C1737 C1734 1.499 . S
C1737 C1738 1.373 1_554 S
C1737 C1739 1.389 . S
C1738 H1711 0.950 . S
C1738 C1724 1.377 . S
C1738 C1737 1.373 1_556 S
C1739 C1723 1.377 . S
C1739 C1737 1.389 . S
C1739 C1740 1.524 . S
C1740 C1739 1.524 . S
C1740 C1741 1.397 . S
C1740 C1745 1.363 . S
C1741 H1712 0.950 . S
C1741 C1740 1.397 . S
C1741 C1742 1.334 . S
C1742 H1713 0.950 . S
C1742 C1741 1.334 . S
C1742 C1743 1.287 . S
C1743 C1742 1.287 . S
C1743 C1744 1.524 . S
C1743 H1746 0.999 . S
C1744 H1714 0.950 . S
C1744 C1743 1.524 . S
C1744 C1745 1.415 . S
C1745 H1715 0.950 . S
C1745 C1740 1.363 . S
C1745 C1744 1.415 . S
H1746 C1743 0.999 . S
H1747 C1728 0.913 . S
H1748 C1766 0.951 . S
H1749 C1768 0.951 . S
H1750 C1770 0.950 1_556 S
H1751 C1771 0.950 . S
H1752 C1773 0.950 . S
H1753 C1776 0.950 . S
H1754 C1777 0.950 . S
H1755 C1779 0.950 . S
H1756 C1780 0.950 . S
H1757 C1781 0.951 . S
H1758 C1783 0.951 . S
H1759 C1785 0.950 1_554 S
H1760 C1786 0.950 . S
H1761 C1788 0.950 . S
H1762 C1791 0.950 . S
H1763 C1792 0.950 . S
H1764 C1794 0.950 . S
H1765 C1795 0.950 . S
C1766 H1748 0.951 . S
C1766 C1767 1.366 . S
C1766 C1768 1.388 . S
C1767 C1766 1.366 . S
C1767 C1771 1.385 . S
C1768 H1749 0.951 . S
C1768 C1766 1.388 . S
C1768 C1769 1.366 . S
C1769 C1768 1.366 . S
C1769 C1770 1.414 . S
C1769 C1772 1.499 . S
C1770 H1750 0.950 1_554 S
C1770 C1769 1.414 . S
C1770 C1771 1.374 . S
C1771 H1751 0.950 . S
C1771 C1767 1.385 . S
C1771 C1770 1.374 . S
C1772 C1769 1.499 . S
C1772 C1773 1.373 1_554 S
C1772 C1774 1.389 . S
C1773 H1752 0.950 . S
C1773 C1772 1.373 1_556 S
C1773 C1789 1.377 . S
C1774 C1772 1.389 . S
C1774 C1775 1.524 . S
C1774 C1788 1.377 . S
C1775 C1774 1.524 . S
C1775 C1776 1.397 . S
C1775 C1780 1.363 . S
C1776 H1753 0.950 . S
C1776 C1775 1.397 . S
C1776 C1777 1.334 . S
C1777 H1754 0.950 . S
C1777 C1776 1.334 . S
C1777 C1778 1.287 . S
C1778 C1777 1.287 . S
C1778 C1779 1.524 . S
C1778 H1797 0.913 . S
C1779 H1755 0.950 . S
C1779 C1778 1.524 . S
C1779 C1780 1.415 . S
C1780 H1756 0.950 . S
C1780 C1775 1.363 . S
C1780 C1779 1.415 . S
C1781 H1757 0.951 . S
C1781 C1782 1.366 . S
C1781 C1783 1.388 . S
C1782 C1781 1.366 . S
C1782 C1786 1.385 . S
C1783 H1758 0.951 . S
C1783 C1781 1.388 . S
C1783 C1784 1.366 . S
C1784 C1783 1.366 . S
C1784 C1785 1.414 . S
C1784 C1787 1.499 . S
C1785 H1759 0.950 1_556 S
C1785 C1784 1.414 . S
C1785 C1786 1.374 . S
C1786 H1760 0.950 . S
C1786 C1782 1.385 . S
C1786 C1785 1.374 . S
C1787 C1784 1.499 . S
C1787 C1788 1.373 1_556 S
C1787 C1789 1.389 . S
C1788 H1761 0.950 . S
C1788 C1774 1.377 . S
C1788 C1787 1.373 1_554 S
C1789 C1773 1.377 . S
C1789 C1787 1.389 . S
C1789 C1790 1.524 . S
C1790 C1789 1.524 . S
C1790 C1791 1.397 . S
C1790 C1795 1.363 . S
C1791 H1762 0.950 . S
C1791 C1790 1.397 . S
C1791 C1792 1.334 . S
C1792 H1763 0.950 . S
C1792 C1791 1.334 . S
C1792 C1793 1.287 . S
C1793 C1792 1.287 . S
C1793 C1794 1.524 . S
C1793 H1796 0.999 . S
C1794 H1764 0.950 . S
C1794 C1793 1.524 . S
C1794 C1795 1.415 . S
C1795 H1765 0.950 . S
C1795 C1790 1.363 . S
C1795 C1794 1.415 . S
H1796 C1793 0.999 . S
H1797 C1778 0.913 . S
H1798 C1816 0.951 . S
H1799 C1818 0.951 . S
H1800 C1820 0.950 . S
H1801 C1821 0.950 . S
H1802 C1823 0.950 . S
H1803 C1826 0.950 . S
H1804 C1827 0.950 . S
H1805 C1829 0.950 . S
H1806 C1830 0.950 . S
H1807 C1831 0.951 . S
H1808 C1833 0.951 . S
H1809 C1835 0.950 . S
H1810 C1836 0.950 . S
H1811 C1838 0.950 . S
H1812 C1841 0.950 . S
H1813 C1842 0.950 . S
H1814 C1844 0.950 . S
H1815 C1845 0.950 . S
C1816 H1798 0.951 . S
C1816 C1817 1.366 . S
C1816 C1818 1.388 . S
C1817 C1816 1.366 . S
C1817 C1821 1.385 . S
C1818 H1799 0.951 . S
C1818 C1816 1.388 . S
C1818 C1819 1.366 . S
C1819 C1818 1.366 . S
C1819 C1820 1.414 . S
C1819 C1822 1.499 . S
C1820 H1800 0.950 . S
C1820 C1819 1.414 . S
C1820 C1821 1.374 . S
C1821 H1801 0.950 . S
C1821 C1817 1.385 . S
C1821 C1820 1.374 . S
C1822 C1819 1.499 . S
C1822 C1823 1.373 1_556 S
C1822 C1824 1.389 . S
C1823 H1802 0.950 . S
C1823 C1822 1.373 1_554 S
C1823 C1839 1.377 . S
C1824 C1822 1.389 . S
C1824 C1825 1.524 . S
C1824 C1838 1.377 . S
C1825 C1824 1.524 . S
C1825 C1826 1.397 . S
C1825 C1830 1.363 . S
C1826 H1803 0.950 . S
C1826 C1825 1.397 . S
C1826 C1827 1.334 . S
C1827 H1804 0.950 . S
C1827 C1826 1.334 . S
C1827 C1828 1.287 . S
C1828 C1827 1.287 . S
C1828 C1829 1.524 . S
C1828 H1847 0.913 . S
C1829 H1805 0.950 . S
C1829 C1828 1.524 . S
C1829 C1830 1.415 . S
C1830 H1806 0.950 . S
C1830 C1825 1.363 . S
C1830 C1829 1.415 . S
C1831 H1807 0.951 . S
C1831 C1832 1.366 . S
C1831 C1833 1.388 . S
C1832 C1831 1.366 . S
C1832 C1836 1.385 . S
C1833 H1808 0.951 . S
C1833 C1831 1.388 . S
C1833 C1834 1.366 . S
C1834 C1833 1.366 . S
C1834 C1835 1.414 . S
C1834 C1837 1.499 . S
C1835 H1809 0.950 . S
C1835 C1834 1.414 . S
C1835 C1836 1.374 . S
C1836 H1810 0.950 . S
C1836 C1832 1.385 . S
C1836 C1835 1.374 . S
C1837 C1834 1.499 . S
C1837 C1838 1.373 1_554 S
C1837 C1839 1.389 . S
C1838 H1811 0.950 . S
C1838 C1824 1.377 . S
C1838 C1837 1.373 1_556 S
C1839 C1823 1.377 . S
C1839 C1837 1.389 . S
C1839 C1840 1.524 . S
C1840 C1839 1.524 . S
C1840 C1841 1.397 . S
C1840 C1845 1.363 . S
C1841 H1812 0.950 . S
C1841 C1840 1.397 . S
C1841 C1842 1.334 . S
C1842 H1813 0.950 . S
C1842 C1841 1.334 . S
C1842 C1843 1.287 . S
C1843 C1842 1.287 . S
C1843 C1844 1.524 . S
C1843 H1846 0.999 . S
C1844 H1814 0.950 . S
C1844 C1843 1.524 . S
C1844 C1845 1.415 . S
C1845 H1815 0.950 . S
C1845 C1840 1.363 . S
C1845 C1844 1.415 . S
H1846 C1843 0.999 . S
H1847 C1828 0.913 . S
H1848 C1866 0.951 . S
H1849 C1868 0.951 . S
H1850 C1870 0.950 . S
H1851 C1871 0.950 . S
H1852 C1873 0.950 . S
H1853 C1876 0.950 . S
H1854 C1877 0.950 . S
H1855 C1879 0.950 . S
H1856 C1880 0.950 . S
H1857 C1881 0.951 . S
H1858 C1883 0.951 . S
H1859 C1885 0.950 . S
H1860 C1886 0.950 . S
H1861 C1888 0.950 . S
H1862 C1891 0.950 . S
H1863 C1892 0.950 . S
H1864 C1894 0.950 . S
H1865 C1895 0.950 . S
C1866 H1848 0.951 . S
C1866 C1867 1.366 . S
C1866 C1868 1.388 . S
C1867 C1866 1.366 . S
C1867 C1871 1.385 . S
C1868 H1849 0.951 . S
C1868 C1866 1.388 . S
C1868 C1869 1.366 . S
C1869 C1868 1.366 . S
C1869 C1870 1.414 . S
C1869 C1872 1.499 . S
C1870 H1850 0.950 . S
C1870 C1869 1.414 . S
C1870 C1871 1.374 . S
C1871 H1851 0.950 . S
C1871 C1867 1.385 . S
C1871 C1870 1.374 . S
C1872 C1869 1.499 . S
C1872 C1873 1.373 . S
C1872 C1874 1.389 . S
C1873 H1852 0.950 . S
C1873 C1872 1.373 . S
C1873 C1889 1.377 . S
C1874 C1872 1.389 . S
C1874 C1875 1.524 . S
C1874 C1888 1.377 . S
C1875 C1874 1.524 . S
C1875 C1876 1.397 . S
C1875 C1880 1.363 . S
C1876 H1853 0.950 . S
C1876 C1875 1.397 . S
C1876 C1877 1.334 . S
C1877 H1854 0.950 . S
C1877 C1876 1.334 . S
C1877 C1878 1.287 . S
C1878 C1877 1.287 . S
C1878 C1879 1.524 . S
C1878 H1897 0.913 . S
C1879 H1855 0.950 . S
C1879 C1878 1.524 . S
C1879 C1880 1.415 . S
C1880 H1856 0.950 . S
C1880 C1875 1.363 . S
C1880 C1879 1.415 . S
C1881 H1857 0.951 . S
C1881 C1882 1.366 . S
C1881 C1883 1.388 . S
C1882 C1881 1.366 . S
C1882 C1886 1.385 . S
C1883 H1858 0.951 . S
C1883 C1881 1.388 . S
C1883 C1884 1.366 . S
C1884 C1883 1.366 . S
C1884 C1885 1.414 . S
C1884 C1887 1.499 . S
C1885 H1859 0.950 . S
C1885 C1884 1.414 . S
C1885 C1886 1.374 . S
C1886 H1860 0.950 . S
C1886 C1882 1.385 . S
C1886 C1885 1.374 . S
C1887 C1884 1.499 . S
C1887 C1888 1.373 . S
C1887 C1889 1.389 . S
C1888 H1861 0.950 . S
C1888 C1874 1.377 . S
C1888 C1887 1.373 . S
C1889 C1873 1.377 . S
C1889 C1887 1.389 . S
C1889 C1890 1.524 . S
C1890 C1889 1.524 . S
C1890 C1891 1.397 . S
C1890 C1895 1.363 . S
C1891 H1862 0.950 . S
C1891 C1890 1.397 . S
C1891 C1892 1.334 . S
C1892 H1863 0.950 . S
C1892 C1891 1.334 . S
C1892 C1893 1.287 . S
C1893 C1892 1.287 . S
C1893 C1894 1.524 . S
C1893 H1896 0.999 . S
C1894 H1864 0.950 . S
C1894 C1893 1.524 . S
C1894 C1895 1.415 . S
C1895 H1865 0.950 . S
C1895 C1890 1.363 . S
C1895 C1894 1.415 . S
H1896 C1893 0.999 . S
H1897 C1878 0.913 . S
H1898 C1916 0.951 . S
H1899 C1918 0.951 . S
H1900 C1920 0.950 . S
H1901 C1921 0.950 . S
H1902 C1923 0.950 . S
H1903 C1926 0.950 . S
H1904 C1927 0.950 . S
H1905 C1929 0.950 . S
H1906 C1930 0.950 . S
H1907 C1931 0.951 . S
H1908 C1933 0.951 . S
H1909 C1935 0.950 . S
H1910 C1936 0.950 . S
H1911 C1938 0.950 . S
H1912 C1941 0.950 . S
H1913 C1942 0.950 . S
H1914 C1944 0.950 . S
H1915 C1945 0.950 . S
C1916 H1898 0.951 . S
C1916 C1917 1.366 . S
C1916 C1918 1.388 . S
C1917 C1916 1.366 . S
C1917 C1921 1.385 . S
C1918 H1899 0.951 . S
C1918 C1916 1.388 . S
C1918 C1919 1.366 . S
C1919 C1918 1.366 . S
C1919 C1920 1.414 . S
C1919 C1922 1.499 . S
C1920 H1900 0.950 . S
C1920 C1919 1.414 . S
C1920 C1921 1.374 . S
C1921 H1901 0.950 . S
C1921 C1917 1.385 . S
C1921 C1920 1.374 . S
C1922 C1919 1.499 . S
C1922 C1923 1.373 . S
C1922 C1924 1.389 . S
C1923 H1902 0.950 . S
C1923 C1922 1.373 . S
C1923 C1939 1.377 . S
C1924 C1922 1.389 . S
C1924 C1925 1.524 . S
C1924 C1938 1.377 . S
C1925 C1924 1.524 . S
C1925 C1926 1.397 . S
C1925 C1930 1.363 . S
C1926 H1903 0.950 . S
C1926 C1925 1.397 . S
C1926 C1927 1.334 . S
C1927 H1904 0.950 . S
C1927 C1926 1.334 . S
C1927 C1928 1.287 . S
C1928 C1927 1.287 . S
C1928 C1929 1.524 . S
C1928 H1947 0.913 . S
C1929 H1905 0.950 . S
C1929 C1928 1.524 . S
C1929 C1930 1.415 . S
C1930 H1906 0.950 . S
C1930 C1925 1.363 . S
C1930 C1929 1.415 . S
C1931 H1907 0.951 . S
C1931 C1932 1.366 . S
C1931 C1933 1.388 . S
C1932 C1931 1.366 . S
C1932 C1936 1.385 . S
C1933 H1908 0.951 . S
C1933 C1931 1.388 . S
C1933 C1934 1.366 . S
C1934 C1933 1.366 . S
C1934 C1935 1.414 . S
C1934 C1937 1.499 . S
C1935 H1909 0.950 . S
C1935 C1934 1.414 . S
C1935 C1936 1.374 . S
C1936 H1910 0.950 . S
C1936 C1932 1.385 . S
C1936 C1935 1.374 . S
C1937 C1934 1.499 . S
C1937 C1938 1.373 . S
C1937 C1939 1.389 . S
C1938 H1911 0.950 . S
C1938 C1924 1.377 . S
C1938 C1937 1.373 . S
C1939 C1923 1.377 . S
C1939 C1937 1.389 . S
C1939 C1940 1.524 . S
C1940 C1939 1.524 . S
C1940 C1941 1.397 . S
C1940 C1945 1.363 . S
C1941 H1912 0.950 . S
C1941 C1940 1.397 . S
C1941 C1942 1.334 . S
C1942 H1913 0.950 . S
C1942 C1941 1.334 . S
C1942 C1943 1.287 . S
C1943 C1942 1.287 . S
C1943 C1944 1.524 . S
C1943 H1946 0.999 . S
C1944 H1914 0.950 . S
C1944 C1943 1.524 . S
C1944 C1945 1.415 . S
C1945 H1915 0.950 . S
C1945 C1940 1.363 . S
C1945 C1944 1.415 . S
H1946 C1943 0.999 . S
H1947 C1928 0.913 . S
H1948 C1966 0.951 . S
H1949 C1968 0.951 . S
H1950 C1970 0.950 . S
H1951 C1971 0.950 . S
H1952 C1973 0.950 . S
H1953 C1976 0.950 . S
H1954 C1977 0.950 . S
H1955 C1979 0.950 . S
H1956 C1980 0.950 . S
H1957 C1981 0.951 . S
H1958 C1983 0.951 . S
H1959 C1985 0.950 . S
H1960 C1986 0.950 . S
H1961 C1988 0.950 . S
H1962 C1991 0.950 . S
H1963 C1992 0.950 . S
H1964 C1994 0.950 . S
H1965 C1995 0.950 . S
C1966 H1948 0.951 . S
C1966 C1967 1.366 . S
C1966 C1968 1.388 . S
C1967 C1966 1.366 . S
C1967 C1971 1.385 . S
C1968 H1949 0.951 . S
C1968 C1966 1.388 . S
C1968 C1969 1.366 . S
C1969 C1968 1.366 . S
C1969 C1970 1.414 . S
C1969 C1972 1.499 . S
C1970 H1950 0.950 . S
C1970 C1969 1.414 . S
C1970 C1971 1.374 . S
C1971 H1951 0.950 . S
C1971 C1967 1.385 . S
C1971 C1970 1.374 . S
C1972 C1969 1.499 . S
C1972 C1973 1.373 . S
C1972 C1974 1.389 . S
C1973 H1952 0.950 . S
C1973 C1972 1.373 . S
C1973 C1989 1.377 . S
C1974 C1972 1.389 . S
C1974 C1975 1.524 . S
C1974 C1988 1.377 . S
C1975 C1974 1.524 . S
C1975 C1976 1.397 . S
C1975 C1980 1.363 . S
C1976 H1953 0.950 . S
C1976 C1975 1.397 . S
C1976 C1977 1.334 . S
C1977 H1954 0.950 . S
C1977 C1976 1.334 . S
C1977 C1978 1.287 . S
C1978 C1977 1.287 . S
C1978 C1979 1.524 . S
C1978 H1997 0.913 . S
C1979 H1955 0.950 . S
C1979 C1978 1.524 . S
C1979 C1980 1.415 . S
C1980 H1956 0.950 . S
C1980 C1975 1.363 . S
C1980 C1979 1.415 . S
C1981 H1957 0.951 . S
C1981 C1982 1.366 . S
C1981 C1983 1.388 . S
C1982 C1981 1.366 . S
C1982 C1986 1.385 . S
C1983 H1958 0.951 . S
C1983 C1981 1.388 . S
C1983 C1984 1.366 . S
C1984 C1983 1.366 . S
C1984 C1985 1.414 . S
C1984 C1987 1.499 . S
C1985 H1959 0.950 . S
C1985 C1984 1.414 . S
C1985 C1986 1.374 . S
C1986 H1960 0.950 . S
C1986 C1982 1.385 . S
C1986 C1985 1.374 . S
C1987 C1984 1.499 . S
C1987 C1988 1.373 . S
C1987 C1989 1.389 . S
C1988 H1961 0.950 . S
C1988 C1974 1.377 . S
C1988 C1987 1.373 . S
C1989 C1973 1.377 . S
C1989 C1987 1.389 . S
C1989 C1990 1.524 . S
C1990 C1989 1.524 . S
C1990 C1991 1.397 . S
C1990 C1995 1.363 . S
C1991 H1962 0.950 . S
C1991 C1990 1.397 . S
C1991 C1992 1.334 . S
C1992 H1963 0.950 . S
C1992 C1991 1.334 . S
C1992 C1993 1.287 . S
C1993 C1992 1.287 . S
C1993 C1994 1.524 . S
C1993 H1996 0.999 . S
C1994 H1964 0.950 . S
C1994 C1993 1.524 . S
C1994 C1995 1.415 . S
C1995 H1965 0.950 . S
C1995 C1990 1.363 . S
C1995 C1994 1.415 . S
H1996 C1993 0.999 . S
H1997 C1978 0.913 . S
H1998 C2016 0.951 . S
H1999 C2018 0.951 . S
H2000 C2020 0.950 . S
H2001 C2021 0.950 . S
H2002 C2023 0.950 . S
H2003 C2026 0.950 . S
H2004 C2027 0.950 . S
H2005 C2029 0.950 . S
H2006 C2030 0.950 . S
H2007 C2031 0.951 . S
H2008 C2033 0.951 . S
H2009 C2035 0.950 . S
H2010 C2036 0.950 . S
H2011 C2038 0.950 . S
H2012 C2041 0.950 . S
H2013 C2042 0.950 . S
H2014 C2044 0.950 . S
H2015 C2045 0.950 . S
C2016 H1998 0.951 . S
C2016 C2017 1.366 . S
C2016 C2018 1.388 . S
C2017 C2016 1.366 . S
C2017 C2021 1.385 . S
C2018 H1999 0.951 . S
C2018 C2016 1.388 . S
C2018 C2019 1.366 . S
C2019 C2018 1.366 . S
C2019 C2020 1.414 . S
C2019 C2022 1.499 . S
C2020 H2000 0.950 . S
C2020 C2019 1.414 . S
C2020 C2021 1.374 . S
C2021 H2001 0.950 . S
C2021 C2017 1.385 . S
C2021 C2020 1.374 . S
C2022 C2019 1.499 . S
C2022 C2023 1.373 . S
C2022 C2024 1.389 . S
C2023 H2002 0.950 . S
C2023 C2022 1.373 . S
C2023 C2039 1.377 . S
C2024 C2022 1.389 . S
C2024 C2025 1.524 . S
C2024 C2038 1.377 . S
C2025 C2024 1.524 . S
C2025 C2026 1.397 . S
C2025 C2030 1.363 . S
C2026 H2003 0.950 . S
C2026 C2025 1.397 . S
C2026 C2027 1.334 . S
C2027 H2004 0.950 . S
C2027 C2026 1.334 . S
C2027 C2028 1.287 . S
C2028 C2027 1.287 . S
C2028 C2029 1.524 . S
C2028 H2047 0.913 . S
C2029 H2005 0.950 . S
C2029 C2028 1.524 . S
C2029 C2030 1.415 . S
C2030 H2006 0.950 . S
C2030 C2025 1.363 . S
C2030 C2029 1.415 . S
C2031 H2007 0.951 . S
C2031 C2032 1.366 . S
C2031 C2033 1.388 . S
C2032 C2031 1.366 . S
C2032 C2036 1.385 . S
C2033 H2008 0.951 . S
C2033 C2031 1.388 . S
C2033 C2034 1.366 . S
C2034 C2033 1.366 . S
C2034 C2035 1.414 . S
C2034 C2037 1.499 . S
C2035 H2009 0.950 . S
C2035 C2034 1.414 . S
C2035 C2036 1.374 . S
C2036 H2010 0.950 . S
C2036 C2032 1.385 . S
C2036 C2035 1.374 . S
C2037 C2034 1.499 . S
C2037 C2038 1.373 . S
C2037 C2039 1.389 . S
C2038 H2011 0.950 . S
C2038 C2024 1.377 . S
C2038 C2037 1.373 . S
C2039 C2023 1.377 . S
C2039 C2037 1.389 . S
C2039 C2040 1.524 . S
C2040 C2039 1.524 . S
C2040 C2041 1.397 . S
C2040 C2045 1.363 . S
C2041 H2012 0.950 . S
C2041 C2040 1.397 . S
C2041 C2042 1.334 . S
C2042 H2013 0.950 . S
C2042 C2041 1.334 . S
C2042 C2043 1.287 . S
C2043 C2042 1.287 . S
C2043 C2044 1.524 . S
C2043 H2046 0.999 . S
C2044 H2014 0.950 . S
C2044 C2043 1.524 . S
C2044 C2045 1.415 . S
C2045 H2015 0.950 . S
C2045 C2040 1.363 . S
C2045 C2044 1.415 . S
H2046 C2043 0.999 . S
H2047 C2028 0.913 . S
H2048 C2066 0.951 . S
H2049 C2068 0.951 . S
H2050 C2070 0.950 . S
H2051 C2071 0.950 . S
H2052 C2073 0.950 1_565 S
H2053 C2076 0.950 . S
H2054 C2077 0.950 . S
H2055 C2079 0.950 . S
H2056 C2080 0.950 . S
H2057 C2081 0.951 . S
H2058 C2083 0.951 . S
H2059 C2085 0.950 . S
H2060 C2086 0.950 . S
H2061 C2088 0.950 . S
H2062 C2091 0.950 . S
H2063 C2092 0.950 . S
H2064 C2094 0.950 . S
H2065 C2095 0.950 . S
C2066 H2048 0.951 . S
C2066 C2067 1.366 . S
C2066 C2068 1.388 . S
C2067 C2066 1.366 . S
C2067 C2071 1.385 . S
C2068 H2049 0.951 . S
C2068 C2066 1.388 . S
C2068 C2069 1.366 . S
C2069 C2068 1.366 . S
C2069 C2070 1.414 . S
C2069 C2072 1.499 . S
C2070 H2050 0.950 . S
C2070 C2069 1.414 . S
C2070 C2071 1.374 . S
C2071 H2051 0.950 . S
C2071 C2067 1.385 . S
C2071 C2070 1.374 . S
C2072 C2069 1.499 . S
C2072 C2073 1.373 . S
C2072 C2074 1.389 . S
C2073 H2052 0.950 1_545 S
C2073 C2072 1.373 . S
C2073 C2089 1.377 . S
C2074 C2072 1.389 . S
C2074 C2075 1.524 . S
C2074 C2088 1.377 . S
C2075 C2074 1.524 . S
C2075 C2076 1.397 . S
C2075 C2080 1.363 . S
C2076 H2053 0.950 . S
C2076 C2075 1.397 . S
C2076 C2077 1.334 . S
C2077 H2054 0.950 . S
C2077 C2076 1.334 . S
C2077 C2078 1.287 . S
C2078 C2077 1.287 . S
C2078 C2079 1.524 . S
C2078 H2097 0.913 . S
C2079 H2055 0.950 . S
C2079 C2078 1.524 . S
C2079 C2080 1.415 . S
C2080 H2056 0.950 . S
C2080 C2075 1.363 . S
C2080 C2079 1.415 . S
C2081 H2057 0.951 . S
C2081 C2082 1.366 . S
C2081 C2083 1.388 . S
C2082 C2081 1.366 . S
C2082 C2086 1.385 . S
C2083 H2058 0.951 . S
C2083 C2081 1.388 . S
C2083 C2084 1.366 . S
C2084 C2083 1.366 . S
C2084 C2085 1.414 . S
C2084 C2087 1.499 . S
C2085 H2059 0.950 . S
C2085 C2084 1.414 . S
C2085 C2086 1.374 . S
C2086 H2060 0.950 . S
C2086 C2082 1.385 . S
C2086 C2085 1.374 . S
C2087 C2084 1.499 . S
C2087 C2088 1.373 . S
C2087 C2089 1.389 . S
C2088 H2061 0.950 . S
C2088 C2074 1.377 . S
C2088 C2087 1.373 . S
C2089 C2073 1.377 . S
C2089 C2087 1.389 . S
C2089 C2090 1.524 1_545 S
C2090 C2089 1.524 1_565 S
C2090 C2091 1.397 . S
C2090 C2095 1.363 . S
C2091 H2062 0.950 . S
C2091 C2090 1.397 . S
C2091 C2092 1.334 . S
C2092 H2063 0.950 . S
C2092 C2091 1.334 . S
C2092 C2093 1.287 . S
C2093 C2092 1.287 . S
C2093 C2094 1.524 . S
C2093 H2096 0.999 . S
C2094 H2064 0.950 . S
C2094 C2093 1.524 . S
C2094 C2095 1.415 . S
C2095 H2065 0.950 . S
C2095 C2090 1.363 . S
C2095 C2094 1.415 . S
H2096 C2093 0.999 . S
H2097 C2078 0.913 . S
H2098 C2116 0.951 1_455 S
H2099 C2118 0.951 1_455 S
H2100 C2120 0.950 . S
H2101 C2121 0.950 . S
H2102 C2123 0.950 . S
H2103 C2126 0.950 . S
H2104 C2127 0.950 . S
H2105 C2129 0.950 . S
H2106 C2130 0.950 . S
H2107 C2131 0.951 . S
H2108 C2133 0.951 . S
H2109 C2135 0.950 . S
H2110 C2136 0.950 . S
H2111 C2138 0.950 . S
H2112 C2141 0.950 . S
H2113 C2142 0.950 . S
H2114 C2144 0.950 . S
H2115 C2145 0.950 . S
C2116 H2098 0.951 1_655 S
C2116 C2117 1.366 . S
C2116 C2118 1.388 . S
C2117 C2116 1.366 . S
C2117 C2121 1.385 . S
C2118 H2099 0.951 1_655 S
C2118 C2116 1.388 . S
C2118 C2119 1.366 . S
C2119 C2118 1.366 . S
C2119 C2120 1.414 . S
C2119 C2122 1.499 . S
C2120 H2100 0.950 . S
C2120 C2119 1.414 . S
C2120 C2121 1.374 . S
C2121 H2101 0.950 . S
C2121 C2117 1.385 . S
C2121 C2120 1.374 . S
C2122 C2119 1.499 . S
C2122 C2123 1.373 . S
C2122 C2124 1.389 1_655 S
C2123 H2102 0.950 . S
C2123 C2122 1.373 . S
C2123 C2139 1.377 . S
C2124 C2122 1.389 1_455 S
C2124 C2125 1.524 . S
C2124 C2138 1.377 . S
C2125 C2124 1.524 . S
C2125 C2126 1.397 . S
C2125 C2130 1.363 . S
C2126 H2103 0.950 . S
C2126 C2125 1.397 . S
C2126 C2127 1.334 . S
C2127 H2104 0.950 . S
C2127 C2126 1.334 . S
C2127 C2128 1.287 . S
C2128 C2127 1.287 . S
C2128 C2129 1.524 . S
C2128 H2147 0.913 . S
C2129 H2105 0.950 . S
C2129 C2128 1.524 . S
C2129 C2130 1.415 . S
C2130 H2106 0.950 . S
C2130 C2125 1.363 . S
C2130 C2129 1.415 . S
C2131 H2107 0.951 . S
C2131 C2132 1.366 . S
C2131 C2133 1.388 . S
C2132 C2131 1.366 . S
C2132 C2136 1.385 1_655 S
C2133 H2108 0.951 . S
C2133 C2131 1.388 . S
C2133 C2134 1.366 . S
C2134 C2133 1.366 . S
C2134 C2135 1.414 1_655 S
C2134 C2137 1.499 . S
C2135 H2109 0.950 . S
C2135 C2134 1.414 1_455 S
C2135 C2136 1.374 . S
C2136 H2110 0.950 . S
C2136 C2132 1.385 1_455 S
C2136 C2135 1.374 . S
C2137 C2134 1.499 . S
C2137 C2138 1.373 1_655 S
C2137 C2139 1.389 . S
C2138 H2111 0.950 . S
C2138 C2124 1.377 . S
C2138 C2137 1.373 1_455 S
C2139 C2123 1.377 . S
C2139 C2137 1.389 . S
C2139 C2140 1.524 . S
C2140 C2139 1.524 . S
C2140 C2141 1.397 . S
C2140 C2145 1.363 . S
C2141 H2112 0.950 . S
C2141 C2140 1.397 . S
C2141 C2142 1.334 . S
C2142 H2113 0.950 . S
C2142 C2141 1.334 . S
C2142 C2143 1.287 . S
C2143 C2142 1.287 . S
C2143 C2144 1.524 . S
C2143 H2146 0.999 . S
C2144 H2114 0.950 . S
C2144 C2143 1.524 . S
C2144 C2145 1.415 . S
C2145 H2115 0.950 . S
C2145 C2140 1.363 . S
C2145 C2144 1.415 . S
H2146 C2143 0.999 . S
H2147 C2128 0.913 . S
H2148 C2166 0.951 . S
H2149 C2168 0.951 . S
H2150 C2170 0.950 . S
H2151 C2171 0.950 . S
H2152 C2173 0.950 . S
H2153 C2176 0.950 . S
H2154 C2177 0.950 . S
H2155 C2179 0.950 . S
H2156 C2180 0.950 . S
H2157 C2181 0.951 . S
H2158 C2183 0.951 . S
H2159 C2185 0.950 . S
H2160 C2186 0.950 . S
H2161 C2188 0.950 . S
H2162 C2191 0.950 . S
H2163 C2192 0.950 . S
H2164 C2194 0.950 . S
H2165 C2195 0.950 . S
C2166 H2148 0.951 . S
C2166 C2167 1.366 . S
C2166 C2168 1.388 . S
C2167 C2166 1.366 . S
C2167 C2171 1.385 . S
C2168 H2149 0.951 . S
C2168 C2166 1.388 . S
C2168 C2169 1.366 . S
C2169 C2168 1.366 . S
C2169 C2170 1.414 . S
C2169 C2172 1.499 . S
C2170 H2150 0.950 . S
C2170 C2169 1.414 . S
C2170 C2171 1.374 . S
C2171 H2151 0.950 . S
C2171 C2167 1.385 . S
C2171 C2170 1.374 . S
C2172 C2169 1.499 . S
C2172 C2173 1.373 . S
C2172 C2174 1.389 . S
C2173 H2152 0.950 . S
C2173 C2172 1.373 . S
C2173 C2189 1.377 . S
C2174 C2172 1.389 . S
C2174 C2175 1.524 . S
C2174 C2188 1.377 . S
C2175 C2174 1.524 . S
C2175 C2176 1.397 . S
C2175 C2180 1.363 . S
C2176 H2153 0.950 . S
C2176 C2175 1.397 . S
C2176 C2177 1.334 . S
C2177 H2154 0.950 . S
C2177 C2176 1.334 . S
C2177 C2178 1.287 . S
C2178 C2177 1.287 . S
C2178 C2179 1.524 . S
C2178 H2197 0.913 . S
C2179 H2155 0.950 . S
C2179 C2178 1.524 . S
C2179 C2180 1.415 . S
C2180 H2156 0.950 . S
C2180 C2175 1.363 . S
C2180 C2179 1.415 . S
C2181 H2157 0.951 . S
C2181 C2182 1.366 . S
C2181 C2183 1.388 . S
C2182 C2181 1.366 . S
C2182 C2186 1.385 . S
C2183 H2158 0.951 . S
C2183 C2181 1.388 . S
C2183 C2184 1.366 . S
C2184 C2183 1.366 . S
C2184 C2185 1.414 . S
C2184 C2187 1.499 . S
C2185 H2159 0.950 . S
C2185 C2184 1.414 . S
C2185 C2186 1.374 . S
C2186 H2160 0.950 . S
C2186 C2182 1.385 . S
C2186 C2185 1.374 . S
C2187 C2184 1.499 . S
C2187 C2188 1.373 . S
C2187 C2189 1.389 . S
C2188 H2161 0.950 . S
C2188 C2174 1.377 . S
C2188 C2187 1.373 . S
C2189 C2173 1.377 . S
C2189 C2187 1.389 . S
C2189 C2190 1.524 . S
C2190 C2189 1.524 . S
C2190 C2191 1.397 . S
C2190 C2195 1.363 . S
C2191 H2162 0.950 . S
C2191 C2190 1.397 . S
C2191 C2192 1.334 . S
C2192 H2163 0.950 . S
C2192 C2191 1.334 . S
C2192 C2193 1.287 . S
C2193 C2192 1.287 . S
C2193 C2194 1.524 . S
C2193 H2196 0.999 . S
C2194 H2164 0.950 . S
C2194 C2193 1.524 . S
C2194 C2195 1.415 . S
C2195 H2165 0.950 . S
C2195 C2190 1.363 . S
C2195 C2194 1.415 . S
H2196 C2193 0.999 . S
H2197 C2178 0.913 . S
H2198 C2216 0.960 . S
H2199 C2218 0.951 1_545 S
H2200 C2220 0.950 . S
H2201 C2221 0.950 . S
H2202 C2223 0.950 . S
H2203 C2226 0.950 . S
H2204 C2227 0.950 . S
H2205 C2229 0.950 . S
H2206 C2230 0.950 . S
H2207 C2231 0.951 . S
H2208 C2233 0.951 . S
H2209 C2235 0.950 . S
H2210 C2236 0.950 . S
H2211 C2238 0.950 1_545 S
H2212 C2241 0.950 . S
H2213 C2242 0.950 . S
H2214 C2244 0.950 . S
H2215 C2245 0.950 . S
C2216 H2198 0.960 . S
C2216 C2217 1.348 1_545 S
C2216 C2218 1.397 1_545 S
C2217 C2216 1.348 1_565 S
C2217 C2221 1.385 . S
C2218 H2199 0.951 1_565 S
C2218 C2216 1.397 1_565 S
C2218 C2219 1.366 . S
C2219 C2218 1.366 . S
C2219 C2220 1.414 . S
C2219 C2222 1.499 . S
C2220 H2200 0.950 . S
C2220 C2219 1.414 . S
C2220 C2221 1.374 . S
C2221 H2201 0.950 . S
C2221 C2217 1.385 . S
C2221 C2220 1.374 . S
C2222 C2219 1.499 . S
C2222 C2223 1.373 . S
C2222 C2224 1.389 1_565 S
C2223 H2202 0.950 . S
C2223 C2222 1.373 . S
C2223 C2239 1.377 . S
C2224 C2222 1.389 1_545 S
C2224 C2225 1.524 . S
C2224 C2238 1.377 1_545 S
C2225 C2224 1.524 . S
C2225 C2226 1.397 . S
C2225 C2230 1.363 . S
C2226 H2203 0.950 . S
C2226 C2225 1.397 . S
C2226 C2227 1.334 . S
C2227 H2204 0.950 . S
C2227 C2226 1.334 . S
C2227 C2228 1.287 . S
C2228 C2227 1.287 . S
C2228 C2229 1.524 . S
C2228 H2247 0.913 . S
C2229 H2205 0.950 . S
C2229 C2228 1.524 . S
C2229 C2230 1.415 . S
C2230 H2206 0.950 . S
C2230 C2225 1.363 . S
C2230 C2229 1.415 . S
C2231 H2207 0.951 . S
C2231 C2232 1.366 . S
C2231 C2233 1.388 . S
C2232 C2231 1.366 . S
C2232 C2236 1.385 . S
C2233 H2208 0.951 . S
C2233 C2231 1.388 . S
C2233 C2234 1.366 . S
C2234 C2233 1.366 . S
C2234 C2235 1.414 . S
C2234 C2237 1.499 . S
C2235 H2209 0.950 . S
C2235 C2234 1.414 . S
C2235 C2236 1.374 . S
C2236 H2210 0.950 . S
C2236 C2232 1.385 . S
C2236 C2235 1.374 . S
C2237 C2234 1.499 . S
C2237 C2238 1.373 . S
C2237 C2239 1.389 . S
C2238 H2211 0.950 1_565 S
C2238 C2224 1.377 1_565 S
C2238 C2237 1.373 . S
C2239 C2223 1.377 . S
C2239 C2237 1.389 . S
C2239 C2240 1.524 . S
C2240 C2239 1.524 . S
C2240 C2241 1.397 . S
C2240 C2245 1.363 . S
C2241 H2212 0.950 . S
C2241 C2240 1.397 . S
C2241 C2242 1.334 . S
C2242 H2213 0.950 . S
C2242 C2241 1.334 . S
C2242 C2243 1.287 . S
C2243 C2242 1.287 . S
C2243 C2244 1.524 . S
C2243 H2246 0.999 . S
C2244 H2214 0.950 . S
C2244 C2243 1.524 . S
C2244 C2245 1.415 . S
C2245 H2215 0.950 . S
C2245 C2240 1.363 . S
C2245 C2244 1.415 . S
H2246 C2243 0.999 . S
H2247 C2228 0.913 . S
H2248 C2266 0.951 1_655 S
H2249 C2268 0.951 1_655 S
H2250 C2270 0.950 . S
H2251 C2271 0.950 . S
H2252 C2273 0.950 . S
H2253 C2276 0.960 . S
H2254 C2277 0.950 . S
H2255 C2279 0.950 . S
H2256 C2280 0.950 . S
H2257 C2281 0.951 . S
H2258 C2283 0.951 . S
H2259 C2285 0.950 . S
H2260 C2286 0.950 . S
H2261 C2288 0.979 . S
H2262 C2291 0.950 . S
H2263 C2292 0.950 . S
H2264 C2294 0.950 . S
H2265 C2295 0.950 . S
C2266 H2248 0.951 1_455 S
C2266 C2267 1.366 . S
C2266 C2268 1.388 . S
C2267 C2266 1.366 . S
C2267 C2271 1.385 . S
C2268 H2249 0.951 1_455 S
C2268 C2266 1.388 . S
C2268 C2269 1.366 . S
C2269 C2268 1.366 . S
C2269 C2270 1.414 . S
C2269 C2272 1.499 . S
C2270 H2250 0.950 . S
C2270 C2269 1.414 . S
C2270 C2271 1.374 . S
C2271 H2251 0.950 . S
C2271 C2267 1.385 . S
C2271 C2270 1.374 . S
C2272 C2269 1.499 . S
C2272 C2273 1.373 . S
C2272 C2274 1.389 . S
C2273 H2252 0.950 . S
C2273 C2272 1.373 . S
C2273 C2289 1.377 . S
C2274 C2272 1.389 . S
C2274 C2275 1.524 1_455 S
C2274 C2288 1.354 1_455 S
C2275 C2274 1.524 1_655 S
C2275 C2276 1.387 1_655 S
C2275 C2280 1.363 . S
C2276 H2253 0.960 . S
C2276 C2275 1.387 1_455 S
C2276 C2277 1.334 1_455 S
C2277 H2254 0.950 . S
C2277 C2276 1.334 1_655 S
C2277 C2278 1.287 . S
C2278 C2277 1.287 . S
C2278 C2279 1.524 . S
C2278 H2297 0.913 . S
C2279 H2255 0.950 . S
C2279 C2278 1.524 . S
C2279 C2280 1.415 . S
C2280 H2256 0.950 . S
C2280 C2275 1.363 . S
C2280 C2279 1.415 . S
C2281 H2257 0.951 . S
C2281 C2282 1.366 . S
C2281 C2283 1.388 . S
C2282 C2281 1.366 . S
C2282 C2286 1.385 1_455 S
C2283 H2258 0.951 . S
C2283 C2281 1.388 . S
C2283 C2284 1.366 . S
C2284 C2283 1.366 . S
C2284 C2285 1.414 1_455 S
C2284 C2287 1.499 . S
C2285 H2259 0.950 . S
C2285 C2284 1.414 1_655 S
C2285 C2286 1.374 . S
C2286 H2260 0.950 . S
C2286 C2282 1.385 1_655 S
C2286 C2285 1.374 . S
C2287 C2284 1.499 . S
C2287 C2288 1.369 1_455 S
C2287 C2289 1.389 . S
C2288 H2261 0.979 . S
C2288 C2274 1.354 1_655 S
C2288 C2287 1.369 1_655 S
C2289 C2273 1.377 . S
C2289 C2287 1.389 . S
C2289 C2290 1.524 . S
C2290 C2289 1.524 . S
C2290 C2291 1.397 . S
C2290 C2295 1.363 . S
C2291 H2262 0.950 . S
C2291 C2290 1.397 . S
C2291 C2292 1.334 . S
C2292 H2263 0.950 . S
C2292 C2291 1.334 . S
C2292 C2293 1.287 . S
C2293 C2292 1.287 . S
C2293 C2294 1.524 . S
C2293 H2296 0.999 . S
C2294 H2264 0.950 . S
C2294 C2293 1.524 . S
C2294 C2295 1.415 . S
C2295 H2265 0.950 . S
C2295 C2290 1.363 . S
C2295 C2294 1.415 . S
H2296 C2293 0.999 . S
H2297 C2278 0.913 . S
H2298 C2316 0.951 . S
H2299 C2318 0.951 . S
H2300 C2320 0.950 . S
H2301 C2321 0.950 . S
H2302 C2323 0.950 . S
H2303 C2326 0.950 . S
H2304 C2327 0.950 . S
H2305 C2329 0.950 . S
H2306 C2330 0.950 . S
H2307 C2331 0.951 . S
H2308 C2333 0.951 . S
H2309 C2335 0.950 . S
H2310 C2336 0.950 . S
H2311 C2338 0.950 . S
H2312 C2341 0.950 . S
H2313 C2342 0.950 . S
H2314 C2344 0.950 . S
H2315 C2345 0.950 . S
C2316 H2298 0.951 . S
C2316 C2317 1.366 . S
C2316 C2318 1.388 . S
C2317 C2316 1.366 . S
C2317 C2321 1.385 . S
C2318 H2299 0.951 . S
C2318 C2316 1.388 . S
C2318 C2319 1.366 . S
C2319 C2318 1.366 . S
C2319 C2320 1.414 . S
C2319 C2322 1.499 . S
C2320 H2300 0.950 . S
C2320 C2319 1.414 . S
C2320 C2321 1.374 . S
C2321 H2301 0.950 . S
C2321 C2317 1.385 . S
C2321 C2320 1.374 . S
C2322 C2319 1.499 . S
C2322 C2323 1.373 . S
C2322 C2324 1.389 . S
C2323 H2302 0.950 . S
C2323 C2322 1.373 . S
C2323 C2339 1.377 . S
C2324 C2322 1.389 . S
C2324 C2325 1.524 . S
C2324 C2338 1.377 . S
C2325 C2324 1.524 . S
C2325 C2326 1.397 . S
C2325 C2330 1.363 . S
C2326 H2303 0.950 . S
C2326 C2325 1.397 . S
C2326 C2327 1.334 . S
C2327 H2304 0.950 . S
C2327 C2326 1.334 . S
C2327 C2328 1.287 . S
C2328 C2327 1.287 . S
C2328 C2329 1.524 . S
C2328 H2347 0.913 . S
C2329 H2305 0.950 . S
C2329 C2328 1.524 . S
C2329 C2330 1.415 . S
C2330 H2306 0.950 . S
C2330 C2325 1.363 . S
C2330 C2329 1.415 . S
C2331 H2307 0.951 . S
C2331 C2332 1.366 . S
C2331 C2333 1.388 . S
C2332 C2331 1.366 . S
C2332 C2336 1.385 . S
C2333 H2308 0.951 . S
C2333 C2331 1.388 . S
C2333 C2334 1.366 . S
C2334 C2333 1.366 . S
C2334 C2335 1.414 . S
C2334 C2337 1.499 . S
C2335 H2309 0.950 . S
C2335 C2334 1.414 . S
C2335 C2336 1.374 . S
C2336 H2310 0.950 . S
C2336 C2332 1.385 . S
C2336 C2335 1.374 . S
C2337 C2334 1.499 . S
C2337 C2338 1.373 . S
C2337 C2339 1.389 . S
C2338 H2311 0.950 . S
C2338 C2324 1.377 . S
C2338 C2337 1.373 . S
C2339 C2323 1.377 . S
C2339 C2337 1.389 . S
C2339 C2340 1.524 . S
C2340 C2339 1.524 . S
C2340 C2341 1.397 . S
C2340 C2345 1.363 . S
C2341 H2312 0.950 . S
C2341 C2340 1.397 . S
C2341 C2342 1.334 . S
C2342 H2313 0.950 . S
C2342 C2341 1.334 . S
C2342 C2343 1.287 . S
C2343 C2342 1.287 . S
C2343 C2344 1.524 . S
C2343 H2346 0.999 . S
C2344 H2314 0.950 . S
C2344 C2343 1.524 . S
C2344 C2345 1.415 . S
C2345 H2315 0.950 . S
C2345 C2340 1.363 . S
C2345 C2344 1.415 . S
H2346 C2343 0.999 . S
H2347 C2328 0.913 . S
H2348 C2366 0.951 . S
H2349 C2368 0.951 . S
H2350 C2370 0.950 . S
H2351 C2371 0.950 . S
H2352 C2373 0.950 . S
H2353 C2376 0.950 . S
H2354 C2377 0.950 . S
H2355 C2379 0.950 . S
H2356 C2380 0.950 . S
H2357 C2381 0.951 . S
H2358 C2383 0.951 . S
H2359 C2385 0.950 . S
H2360 C2386 0.950 . S
H2361 C2388 0.950 . S
H2362 C2391 0.950 . S
H2363 C2392 0.950 . S
H2364 C2394 0.950 . S
H2365 C2395 0.950 . S
C2366 H2348 0.951 . S
C2366 C2367 1.366 . S
C2366 C2368 1.388 . S
C2367 C2366 1.366 . S
C2367 C2371 1.385 . S
C2368 H2349 0.951 . S
C2368 C2366 1.388 . S
C2368 C2369 1.366 . S
C2369 C2368 1.366 . S
C2369 C2370 1.414 . S
C2369 C2372 1.499 . S
C2370 H2350 0.950 . S
C2370 C2369 1.414 . S
C2370 C2371 1.374 . S
C2371 H2351 0.950 . S
C2371 C2367 1.385 . S
C2371 C2370 1.374 . S
C2372 C2369 1.499 . S
C2372 C2373 1.373 . S
C2372 C2374 1.389 . S
C2373 H2352 0.950 . S
C2373 C2372 1.373 . S
C2373 C2389 1.377 . S
C2374 C2372 1.389 . S
C2374 C2375 1.524 . S
C2374 C2388 1.377 . S
C2375 C2374 1.524 . S
C2375 C2376 1.397 . S
C2375 C2380 1.363 . S
C2376 H2353 0.950 . S
C2376 C2375 1.397 . S
C2376 C2377 1.334 . S
C2377 H2354 0.950 . S
C2377 C2376 1.334 . S
C2377 C2378 1.287 . S
C2378 C2377 1.287 . S
C2378 C2379 1.524 . S
C2378 H2397 0.913 . S
C2379 H2355 0.950 . S
C2379 C2378 1.524 . S
C2379 C2380 1.415 . S
C2380 H2356 0.950 . S
C2380 C2375 1.363 . S
C2380 C2379 1.415 . S
C2381 H2357 0.951 . S
C2381 C2382 1.366 . S
C2381 C2383 1.388 . S
C2382 C2381 1.366 . S
C2382 C2386 1.385 . S
C2383 H2358 0.951 . S
C2383 C2381 1.388 . S
C2383 C2384 1.366 . S
C2384 C2383 1.366 . S
C2384 C2385 1.414 . S
C2384 C2387 1.499 . S
C2385 H2359 0.950 . S
C2385 C2384 1.414 . S
C2385 C2386 1.374 . S
C2386 H2360 0.950 . S
C2386 C2382 1.385 . S
C2386 C2385 1.374 . S
C2387 C2384 1.499 . S
C2387 C2388 1.373 . S
C2387 C2389 1.389 . S
C2388 H2361 0.950 . S
C2388 C2374 1.377 . S
C2388 C2387 1.373 . S
C2389 C2373 1.377 . S
C2389 C2387 1.389 . S
C2389 C2390 1.524 . S
C2390 C2389 1.524 . S
C2390 C2391 1.397 . S
C2390 C2395 1.363 . S
C2391 H2362 0.950 . S
C2391 C2390 1.397 . S
C2391 C2392 1.334 . S
C2392 H2363 0.950 . S
C2392 C2391 1.334 . S
C2392 C2393 1.287 . S
C2393 C2392 1.287 . S
C2393 C2394 1.524 . S
C2393 H2396 0.999 . S
C2394 H2364 0.950 . S
C2394 C2393 1.524 . S
C2394 C2395 1.415 . S
C2395 H2365 0.950 . S
C2395 C2390 1.363 . S
C2395 C2394 1.415 . S
H2396 C2393 0.999 . S
H2397 C2378 0.913 . S
H2398 C2416 0.951 . S
H2399 C2418 0.951 . S
H2400 C2420 0.950 . S
H2401 C2421 0.950 . S
H2402 C2423 0.950 . S
H2403 C2426 0.950 . S
H2404 C2427 0.950 . S
H2405 C2429 0.950 . S
H2406 C2430 0.950 . S
H2407 C2431 0.951 . S
H2408 C2433 0.951 . S
H2409 C2435 0.950 . S
H2410 C2436 0.950 . S
H2411 C2438 0.950 . S
H2412 C2441 0.950 . S
H2413 C2442 0.950 . S
H2414 C2444 0.950 . S
H2415 C2445 0.950 . S
C2416 H2398 0.951 . S
C2416 C2417 1.366 . S
C2416 C2418 1.388 . S
C2417 C2416 1.366 . S
C2417 C2421 1.385 . S
C2418 H2399 0.951 . S
C2418 C2416 1.388 . S
C2418 C2419 1.366 . S
C2419 C2418 1.366 . S
C2419 C2420 1.414 . S
C2419 C2422 1.499 . S
C2420 H2400 0.950 . S
C2420 C2419 1.414 . S
C2420 C2421 1.374 . S
C2421 H2401 0.950 . S
C2421 C2417 1.385 . S
C2421 C2420 1.374 . S
C2422 C2419 1.499 . S
C2422 C2423 1.373 . S
C2422 C2424 1.389 . S
C2423 H2402 0.950 . S
C2423 C2422 1.373 . S
C2423 C2439 1.377 . S
C2424 C2422 1.389 . S
C2424 C2425 1.524 . S
C2424 C2438 1.377 . S
C2425 C2424 1.524 . S
C2425 C2426 1.397 . S
C2425 C2430 1.363 . S
C2426 H2403 0.950 . S
C2426 C2425 1.397 . S
C2426 C2427 1.334 . S
C2427 H2404 0.950 . S
C2427 C2426 1.334 . S
C2427 C2428 1.287 . S
C2428 C2427 1.287 . S
C2428 C2429 1.524 . S
C2428 H2447 0.913 . S
C2429 H2405 0.950 . S
C2429 C2428 1.524 . S
C2429 C2430 1.415 . S
C2430 H2406 0.950 . S
C2430 C2425 1.363 . S
C2430 C2429 1.415 . S
C2431 H2407 0.951 . S
C2431 C2432 1.366 . S
C2431 C2433 1.388 . S
C2432 C2431 1.366 . S
C2432 C2436 1.385 . S
C2433 H2408 0.951 . S
C2433 C2431 1.388 . S
C2433 C2434 1.366 . S
C2434 C2433 1.366 . S
C2434 C2435 1.414 . S
C2434 C2437 1.499 . S
C2435 H2409 0.950 . S
C2435 C2434 1.414 . S
C2435 C2436 1.374 . S
C2436 H2410 0.950 . S
C2436 C2432 1.385 . S
C2436 C2435 1.374 . S
C2437 C2434 1.499 . S
C2437 C2438 1.373 . S
C2437 C2439 1.389 . S
C2438 H2411 0.950 . S
C2438 C2424 1.377 . S
C2438 C2437 1.373 . S
C2439 C2423 1.377 . S
C2439 C2437 1.389 . S
C2439 C2440 1.524 . S
C2440 C2439 1.524 . S
C2440 C2441 1.397 . S
C2440 C2445 1.363 . S
C2441 H2412 0.950 . S
C2441 C2440 1.397 . S
C2441 C2442 1.334 . S
C2442 H2413 0.950 . S
C2442 C2441 1.334 . S
C2442 C2443 1.287 . S
C2443 C2442 1.287 . S
C2443 C2444 1.524 . S
C2443 H2446 0.999 . S
C2444 H2414 0.950 . S
C2444 C2443 1.524 . S
C2444 C2445 1.415 . S
C2445 H2415 0.950 . S
C2445 C2440 1.363 . S
C2445 C2444 1.415 . S
H2446 C2443 0.999 . S
H2447 C2428 0.913 . S
C667 C14 1.892 . S
C682 C122 1.892 . S
C717 C50 1.978 . S
C732 C147 2.117 . S
C767 C194 2.031 . S
C782 C86 2.033 . S
C817 C230 1.870 . S
C832 C338 1.869 . S
C867 C266 1.972 . S
C882 C363 2.109 . S
C917 C410 2.000 . S
C932 C302 2.000 . S
C967 C554 1.871 . S
C982 C446 1.869 . S
C1017 C579 2.110 . S
C1032 C482 1.970 . S
C1067 C626 1.998 . S
C1082 C518 1.999 . S
C1117 C3 1.619 . S
C1132 C327 1.616 . S
C1167 C39 1.685 . S
C1182 C374 1.536 . S
C1217 C399 1.727 . S
C1232 C75 1.726 . S
C1267 C111 1.617 . S
C1282 C435 1.618 . S
C1317 C158 1.535 . S
C1332 C471 1.686 . S
C1367 C183 1.727 . S
C1382 C507 1.726 . S
C1417 C219 1.647 . S
C1432 C543 1.647 . S
C1467 C255 1.688 . S
C1482 C590 1.539 . S
C1517 C615 1.712 . S
C1532 C291 1.708 . S
C1567 C4 0.290 . S
C1582 C148 0.240 . S
C1617 C40 0.307 . S
C1632 C182 0.284 . S
C1667 C76 0.309 . S
C1682 C110 0.293 . S
C1717 C112 0.256 . S
C1732 C38 0.195 . S
C1767 C74 0.226 . S
C1782 C146 0.286 . S
C1817 C184 0.289 . S
C1832 C2 0.237 . S
C1867 C220 0.316 . S
C1882 C364 0.281 . S
C1917 C398 0.283 . S
C1932 C256 0.314 . S
C1967 C326 0.324 . S
C1982 C292 0.336 . S
C2017 C254 0.195 . S
C2032 C328 0.259 . S
C2067 C362 0.289 . S
C2082 C290 0.236 . S
C2117 C400 0.278 . S
C2132 C218 0.224 . S
C2167 C580 0.242 . S
C2182 C436 0.292 . S
C2217 C614 0.296 . S
C2232 C472 0.314 . S
C2267 C508 0.296 . S
C2282 C542 0.276 . S
C2317 C470 0.222 . S
C2332 C544 0.272 . S
C2367 C506 0.223 . S
C2382 C578 0.295 . S
C2417 C434 0.265 . S
C2432 C616 0.305 . S
