# Generated by pormake.
# Topology cbo, (4)-cn, num edge types: 1
# Building blocks:
#     Node 0, Type 0, BuildingBlock: GALJAG_clean_sbu_0, # of connection points: 4
#     Node 1, Type 0, BuildingBlock: GALJAG_clean_sbu_0, # of connection points: 4
#     Node 2, Type 0, BuildingBlock: GALJAG_clean_sbu_0, # of connection points: 4
#     Node 3, Type 0, BuildingBlock: GALJAG_clean_sbu_0, # of connection points: 4
#     Node 4, Type 0, BuildingBlock: GALJAG_clean_sbu_0, # of connection points: 4
#     Node 5, Type 0, BuildingBlock: GALJAG_clean_sbu_0, # of connection points: 4
#     Node 6, Type 0, BuildingBlock: GALJAG_clean_sbu_0, # of connection points: 4
#     Node 7, Type 0, BuildingBlock: GALJAG_clean_sbu_0, # of connection points: 4
#     Node 8, Type 0, BuildingBlock: GALJAG_clean_sbu_0, # of connection points: 4
#     Node 9, Type 0, BuildingBlock: GALJAG_clean_sbu_0, # of connection points: 4
#     Node 10, Type 0, BuildingBlock: GALJAG_clean_sbu_0, # of connection points: 4
#     Node 11, Type 0, BuildingBlock: GALJAG_clean_sbu_0, # of connection points: 4
#     Node 12, Type 0, BuildingBlock: GALJAG_clean_sbu_0, # of connection points: 4
#     Node 13, Type 0, BuildingBlock: GALJAG_clean_sbu_0, # of connection points: 4
#     Node 14, Type 0, BuildingBlock: GALJAG_clean_sbu_0, # of connection points: 4
#     Node 15, Type 0, BuildingBlock: GALJAG_clean_sbu_0, # of connection points: 4
#     Node 16, Type 0, BuildingBlock: GALJAG_clean_sbu_0, # of connection points: 4
#     Node 17, Type 0, BuildingBlock: GALJAG_clean_sbu_0, # of connection points: 4
#     Node 18, Type 0, BuildingBlock: GALJAG_clean_sbu_0, # of connection points: 4
#     Node 19, Type 0, BuildingBlock: GALJAG_clean_sbu_0, # of connection points: 4
#     Node 20, Type 0, BuildingBlock: GALJAG_clean_sbu_0, # of connection points: 4
#     Node 21, Type 0, BuildingBlock: GALJAG_clean_sbu_0, # of connection points: 4
#     Node 22, Type 0, BuildingBlock: GALJAG_clean_sbu_0, # of connection points: 4
#     Node 23, Type 0, BuildingBlock: GALJAG_clean_sbu_0, # of connection points: 4
#     Edge 24, Type (0, 0), BuildingBlock: MIFKUJ_clean_linker_0, # of connection points: 2
#     Edge 25, Type (0, 0), BuildingBlock: MIFKUJ_clean_linker_0, # of connection points: 2
#     Edge 26, Type (0, 0), BuildingBlock: MIFKUJ_clean_linker_0, # of connection points: 2
#     Edge 27, Type (0, 0), BuildingBlock: MIFKUJ_clean_linker_0, # of connection points: 2
#     Edge 28, Type (0, 0), BuildingBlock: MIFKUJ_clean_linker_0, # of connection points: 2
#     Edge 29, Type (0, 0), BuildingBlock: MIFKUJ_clean_linker_0, # of connection points: 2
#     Edge 30, Type (0, 0), BuildingBlock: MIFKUJ_clean_linker_0, # of connection points: 2
#     Edge 31, Type (0, 0), BuildingBlock: MIFKUJ_clean_linker_0, # of connection points: 2
#     Edge 32, Type (0, 0), BuildingBlock: MIFKUJ_clean_linker_0, # of connection points: 2
#     Edge 33, Type (0, 0), BuildingBlock: MIFKUJ_clean_linker_0, # of connection points: 2
#     Edge 34, Type (0, 0), BuildingBlock: MIFKUJ_clean_linker_0, # of connection points: 2
#     Edge 35, Type (0, 0), BuildingBlock: MIFKUJ_clean_linker_0, # of connection points: 2
#     Edge 36, Type (0, 0), BuildingBlock: MIFKUJ_clean_linker_0, # of connection points: 2
#     Edge 37, Type (0, 0), BuildingBlock: MIFKUJ_clean_linker_0, # of connection points: 2
#     Edge 38, Type (0, 0), BuildingBlock: MIFKUJ_clean_linker_0, # of connection points: 2
#     Edge 39, Type (0, 0), BuildingBlock: MIFKUJ_clean_linker_0, # of connection points: 2
#     Edge 40, Type (0, 0), BuildingBlock: MIFKUJ_clean_linker_0, # of connection points: 2
#     Edge 41, Type (0, 0), BuildingBlock: MIFKUJ_clean_linker_0, # of connection points: 2
#     Edge 42, Type (0, 0), BuildingBlock: MIFKUJ_clean_linker_0, # of connection points: 2
#     Edge 43, Type (0, 0), BuildingBlock: MIFKUJ_clean_linker_0, # of connection points: 2
#     Edge 44, Type (0, 0), BuildingBlock: MIFKUJ_clean_linker_0, # of connection points: 2
#     Edge 45, Type (0, 0), BuildingBlock: MIFKUJ_clean_linker_0, # of connection points: 2
#     Edge 46, Type (0, 0), BuildingBlock: MIFKUJ_clean_linker_0, # of connection points: 2
#     Edge 47, Type (0, 0), BuildingBlock: MIFKUJ_clean_linker_0, # of connection points: 2
#     Edge 48, Type (0, 0), BuildingBlock: MIFKUJ_clean_linker_0, # of connection points: 2
#     Edge 49, Type (0, 0), BuildingBlock: MIFKUJ_clean_linker_0, # of connection points: 2
#     Edge 50, Type (0, 0), BuildingBlock: MIFKUJ_clean_linker_0, # of connection points: 2
#     Edge 51, Type (0, 0), BuildingBlock: MIFKUJ_clean_linker_0, # of connection points: 2
#     Edge 52, Type (0, 0), BuildingBlock: MIFKUJ_clean_linker_0, # of connection points: 2
#     Edge 53, Type (0, 0), BuildingBlock: MIFKUJ_clean_linker_0, # of connection points: 2
#     Edge 54, Type (0, 0), BuildingBlock: MIFKUJ_clean_linker_0, # of connection points: 2
#     Edge 55, Type (0, 0), BuildingBlock: MIFKUJ_clean_linker_0, # of connection points: 2
#     Edge 56, Type (0, 0), BuildingBlock: MIFKUJ_clean_linker_0, # of connection points: 2
#     Edge 57, Type (0, 0), BuildingBlock: MIFKUJ_clean_linker_0, # of connection points: 2
#     Edge 58, Type (0, 0), BuildingBlock: MIFKUJ_clean_linker_0, # of connection points: 2
#     Edge 59, Type (0, 0), BuildingBlock: MIFKUJ_clean_linker_0, # of connection points: 2
#     Edge 60, Type (0, 0), BuildingBlock: MIFKUJ_clean_linker_0, # of connection points: 2
#     Edge 61, Type (0, 0), BuildingBlock: MIFKUJ_clean_linker_0, # of connection points: 2
#     Edge 62, Type (0, 0), BuildingBlock: MIFKUJ_clean_linker_0, # of connection points: 2
#     Edge 63, Type (0, 0), BuildingBlock: MIFKUJ_clean_linker_0, # of connection points: 2
#     Edge 64, Type (0, 0), BuildingBlock: MIFKUJ_clean_linker_0, # of connection points: 2
#     Edge 65, Type (0, 0), BuildingBlock: MIFKUJ_clean_linker_0, # of connection points: 2
#     Edge 66, Type (0, 0), BuildingBlock: MIFKUJ_clean_linker_0, # of connection points: 2
#     Edge 67, Type (0, 0), BuildingBlock: MIFKUJ_clean_linker_0, # of connection points: 2
#     Edge 68, Type (0, 0), BuildingBlock: MIFKUJ_clean_linker_0, # of connection points: 2
#     Edge 69, Type (0, 0), BuildingBlock: MIFKUJ_clean_linker_0, # of connection points: 2
#     Edge 70, Type (0, 0), BuildingBlock: MIFKUJ_clean_linker_0, # of connection points: 2
#     Edge 71, Type (0, 0), BuildingBlock: MIFKUJ_clean_linker_0, # of connection points: 2
# Relax obj value: 0.104
# Max RMSD: 0.140
# Mean RMSD: 0.140
data_MOF--net-cbo--node1-GALJAG_clean_sbu_0--edge1-MIFKUJ_clean_linker_0
_symmetry_space_group_name_H-M    P1
_symmetry_Int_Tables_number       1
_symmetry_cell_setting            triclinic
loop_
_symmetry_equiv_pos_as_xyz
'x, y, z'
_cell_length_a     67.601252
_cell_length_b     67.5459
_cell_length_c     67.53622
_cell_angle_alpha  90.001108
_cell_angle_beta   90.015889
_cell_angle_gamma 90.022731
loop_
_atom_site_label
_atom_site_type_symbol
_atom_site_fract_x
_atom_site_fract_y
_atom_site_fract_z
_atom_type_partial_charge
In0 In 0.09481 0.14149 0.31142 0.0
O1 O 0.07079 0.11795 0.3143 0.0
O2 O 0.06212 0.14729 0.30674 0.0
C3 C 0.12542 0.11864 0.29942 0.0
C4 C 0.09728 0.14902 0.35049 0.0
C5 C 0.09618 0.17176 0.28548 0.0
O6 O 0.10803 0.11631 0.29315 0.0
O7 O 0.12726 0.13202 0.31226 0.0
O8 O 0.09916 0.17414 0.30378 0.0
O9 O 0.09254 0.15418 0.28035 0.0
C10 C 0.05684 0.12976 0.3104 0.0
O11 O 0.10403 0.16073 0.3376 0.0
O12 O 0.08977 0.13334 0.3437 0.0
In13 In 0.40128 0.85765 0.8163 0.0
O14 O 0.40134 0.83745 0.84347 0.0
O15 O 0.40254 0.86858 0.84801 0.0
C16 C 0.39947 0.82911 0.78859 0.0
C17 C 0.43783 0.8728 0.81212 0.0
C18 C 0.36675 0.87563 0.80776 0.0
O19 O 0.39934 0.82519 0.8069 0.0
O20 O 0.40063 0.8473 0.78443 0.0
O21 O 0.3832 0.88213 0.80175 0.0
O22 O 0.36782 0.86046 0.81858 0.0
C23 C 0.4025 0.85158 0.85568 0.0
O24 O 0.42311 0.88347 0.81633 0.0
O25 O 0.434 0.85472 0.80958 0.0
In26 In 0.61209 0.362 0.6774 0.0
O27 O 0.58553 0.38161 0.68475 0.0
O28 O 0.58034 0.35302 0.6724 0.0
C29 C 0.64256 0.38594 0.68652 0.0
C30 C 0.61529 0.35713 0.63814 0.0
C31 C 0.61404 0.33441 0.70619 0.0
O32 O 0.62478 0.391 0.68914 0.0
O33 O 0.64484 0.36917 0.67864 0.0
O34 O 0.61697 0.33023 0.68822 0.0
O35 O 0.61051 0.3524 0.70953 0.0
C36 C 0.57307 0.36892 0.67892 0.0
O37 O 0.6211 0.3442 0.65035 0.0
O38 O 0.60858 0.37281 0.64578 0.0
In39 In 0.90562 0.63914 0.18323 0.0
O40 O 0.9302 0.61664 0.18855 0.0
O41 O 0.93819 0.64671 0.1833 0.0
C42 C 0.87442 0.61637 0.1931 0.0
C43 C 0.90512 0.64417 0.14375 0.0
C44 C 0.8996 0.66814 0.21003 0.0
O45 O 0.89161 0.61305 0.19959 0.0
O46 O 0.87325 0.6306 0.18111 0.0
O47 O 0.89315 0.66923 0.19254 0.0
O48 O 0.9093 0.65267 0.21382 0.0
C49 C 0.94389 0.62927 0.1868 0.0
O50 O 0.90414 0.65849 0.15573 0.0
O51 O 0.90623 0.6273 0.1517 0.0
In52 In 0.31694 0.09016 0.14289 0.0
O53 O 0.34408 0.08935 0.16288 0.0
O54 O 0.34828 0.09616 0.13239 0.0
C55 C 0.2883 0.09075 0.17073 0.0
C56 C 0.31632 0.053 0.12837 0.0
C57 C 0.30729 0.12389 0.12403 0.0
O58 O 0.30598 0.09533 0.17457 0.0
O59 O 0.28519 0.08587 0.15299 0.0
O60 O 0.30284 0.10705 0.11719 0.0
O61 O 0.31675 0.12359 0.14012 0.0
C62 C 0.35605 0.09364 0.14919 0.0
O63 O 0.31345 0.0679 0.11744 0.0
O64 O 0.31949 0.05697 0.14632 0.0
In65 In 0.18089 0.90832 0.64722 0.0
O66 O 0.15436 0.90996 0.66782 0.0
O67 O 0.14892 0.90491 0.63719 0.0
C68 C 0.20669 0.90584 0.67758 0.0
C69 C 0.18233 0.94511 0.63202 0.0
C70 C 0.19246 0.87601 0.62679 0.0
O71 O 0.18977 0.898 0.67817 0.0
O72 O 0.21055 0.91488 0.66171 0.0
O73 O 0.20003 0.89285 0.62404 0.0
O74 O 0.17881 0.87559 0.63949 0.0
C75 C 0.14177 0.90725 0.6543 0.0
O76 O 0.18274 0.92989 0.62116 0.0
O77 O 0.18131 0.94165 0.65033 0.0
In78 In 0.81525 0.39455 0.86029 0.0
O79 O 0.81038 0.41891 0.88337 0.0
O80 O 0.82366 0.42645 0.85574 0.0
C81 C 0.8009 0.36224 0.87881 0.0
C82 C 0.85413 0.38752 0.85702 0.0
C83 C 0.78942 0.39937 0.83024 0.0
O84 O 0.79801 0.37952 0.8853 0.0
O85 O 0.81144 0.36134 0.86347 0.0
O86 O 0.80694 0.39361 0.82747 0.0
O87 O 0.78493 0.40234 0.84809 0.0
C88 C 0.8176 0.43227 0.87241 0.0
O89 O 0.84222 0.38521 0.84279 0.0
O90 O 0.84631 0.39285 0.87317 0.0
In91 In 0.68617 0.59155 0.35275 0.0
O92 O 0.69376 0.55942 0.35866 0.0
O93 O 0.67122 0.5724 0.37633 0.0
C94 C 0.69869 0.6218 0.37568 0.0
C95 C 0.64942 0.59557 0.33812 0.0
C96 C 0.71355 0.59104 0.32362 0.0
O97 O 0.7016 0.60396 0.38034 0.0
O98 O 0.6894 0.62425 0.35972 0.0
O99 O 0.69633 0.59771 0.32104 0.0
O100 O 0.71691 0.58467 0.34082 0.0
C101 C 0.6811 0.55712 0.37216 0.0
O102 O 0.66065 0.58154 0.33299 0.0
O103 O 0.65681 0.6075 0.35044 0.0
In104 In 0.15455 0.31585 0.09471 0.0
O105 O 0.12897 0.31158 0.07293 0.0
O106 O 0.15673 0.32149 0.06181 0.0
C107 C 0.13497 0.30292 0.1271 0.0
C108 C 0.16047 0.35508 0.09812 0.0
C109 C 0.18467 0.28957 0.09345 0.0
O110 O 0.13082 0.29713 0.10984 0.0
O111 O 0.14864 0.31558 0.12796 0.0
O112 O 0.18581 0.30569 0.10279 0.0
O113 O 0.16843 0.28679 0.08473 0.0
C114 C 0.13904 0.31687 0.05809 0.0
O115 O 0.17449 0.34287 0.09631 0.0
O116 O 0.14341 0.34746 0.0986 0.0
In117 In 0.62582 0.186 0.89757 0.0
O118 O 0.60138 0.17382 0.91774 0.0
O119 O 0.62016 0.19643 0.92885 0.0
C120 C 0.60626 0.19861 0.86514 0.0
C121 C 0.63886 0.1485 0.89667 0.0
C122 C 0.65645 0.2116 0.89693 0.0
O123 O 0.60121 0.20363 0.8824 0.0
O124 O 0.62051 0.18664 0.86441 0.0
O125 O 0.65816 0.1938 0.89158 0.0
O126 O 0.63937 0.21641 0.90261 0.0
C127 C 0.60614 0.18463 0.93221 0.0
O128 O 0.64635 0.1614 0.90795 0.0
O129 O 0.62479 0.15455 0.88594 0.0
In130 In 0.83947 0.81842 0.40031 0.0
O131 O 0.81875 0.84472 0.39793 0.0
O132 O 0.84909 0.8492 0.39065 0.0
C133 C 0.81251 0.79042 0.40947 0.0
C134 C 0.85803 0.8238 0.43505 0.0
C135 C 0.85485 0.80326 0.36672 0.0
O136 O 0.80804 0.80584 0.39994 0.0
O137 O 0.83042 0.78929 0.41445 0.0
O138 O 0.86448 0.804 0.38272 0.0
O139 O 0.83777 0.81069 0.36756 0.0
C140 C 0.83209 0.8567 0.39263 0.0
O141 O 0.86591 0.81427 0.42102 0.0
O142 O 0.84102 0.83055 0.43144 0.0
In143 In 0.34099 0.68032 0.59915 0.0
O144 O 0.36446 0.68627 0.57537 0.0
O145 O 0.33841 0.67051 0.56727 0.0
C146 C 0.3588 0.69371 0.63226 0.0
C147 C 0.33667 0.64146 0.60625 0.0
C148 C 0.31222 0.70773 0.59557 0.0
O149 O 0.3673 0.69402 0.6156 0.0
O150 O 0.34171 0.68624 0.63214 0.0
O151 O 0.30892 0.69055 0.6021 0.0
O152 O 0.3299 0.71093 0.5906 0.0
C153 C 0.35482 0.67755 0.56191 0.0
O154 O 0.32213 0.65281 0.60329 0.0
O155 O 0.35339 0.64981 0.60602 0.0
In156 In 0.90211 0.84499 0.67996 0.0
O157 O 0.92348 0.87121 0.68145 0.0
O158 O 0.93518 0.84248 0.67597 0.0
C159 C 0.87012 0.86443 0.69363 0.0
C160 C 0.89772 0.83948 0.64079 0.0
C161 C 0.90331 0.8158 0.70719 0.0
O162 O 0.88751 0.86897 0.6987 0.0
O163 O 0.86891 0.85032 0.68146 0.0
O164 O 0.89429 0.81383 0.69094 0.0
O165 O 0.9117 0.83229 0.7095 0.0
C166 C 0.93859 0.86069 0.67823 0.0
O167 O 0.90266 0.82561 0.65232 0.0
O168 O 0.89468 0.85593 0.6491 0.0
In169 In 0.60216 0.13575 0.17598 0.0
O170 O 0.60989 0.15402 0.14894 0.0
O171 O 0.60332 0.12343 0.1447 0.0
C172 C 0.60184 0.16478 0.20343 0.0
C173 C 0.56374 0.12602 0.1738 0.0
C174 C 0.63296 0.11392 0.1887 0.0
O175 O 0.60796 0.1676 0.18601 0.0
O176 O 0.59592 0.14745 0.2069 0.0
O177 O 0.61525 0.10918 0.19219 0.0
O178 O 0.63503 0.12919 0.17819 0.0
C179 C 0.60765 0.13988 0.13691 0.0
O180 O 0.57655 0.11412 0.18044 0.0
O181 O 0.57032 0.14267 0.16855 0.0
In182 In 0.40768 0.64714 0.31774 0.0
O183 O 0.43051 0.6224 0.31404 0.0
O184 O 0.44063 0.65114 0.32193 0.0
C185 C 0.37517 0.62726 0.30615 0.0
C186 C 0.40233 0.65355 0.35674 0.0
C187 C 0.40832 0.67465 0.28881 0.0
O188 O 0.39231 0.61995 0.3049 0.0
O189 O 0.37446 0.64442 0.3135 0.0
O190 O 0.40232 0.67848 0.30608 0.0
O191 O 0.41393 0.65705 0.28623 0.0
C192 C 0.44506 0.63347 0.31793 0.0
O193 O 0.40716 0.66717 0.34491 0.0
O194 O 0.40016 0.63674 0.3489 0.0
In195 In 0.09767 0.35733 0.81649 0.0
O196 O 0.07481 0.38064 0.82536 0.0
O197 O 0.06499 0.35571 0.80894 0.0
C198 C 0.12782 0.3814 0.80693 0.0
C199 C 0.10082 0.34516 0.85428 0.0
C200 C 0.10346 0.33077 0.78726 0.0
O201 O 0.11024 0.3851 0.80177 0.0
O202 O 0.12994 0.36593 0.81716 0.0
O203 O 0.10626 0.32646 0.80525 0.0
O204 O 0.09758 0.34821 0.78422 0.0
C205 C 0.06047 0.37157 0.81761 0.0
O206 O 0.09188 0.33501 0.84136 0.0
O207 O 0.1083 0.36105 0.84799 0.0
In208 In 0.68276 0.90883 0.84869 0.0
O209 O 0.65579 0.89984 0.83083 0.0
O210 O 0.65116 0.9095 0.86047 0.0
C211 C 0.70948 0.90984 0.81908 0.0
C212 C 0.68309 0.94682 0.86037 0.0
C213 C 0.69442 0.87612 0.86834 0.0
O214 O 0.69122 0.90754 0.816 0.0
O215 O 0.7142 0.91176 0.83704 0.0
O216 O 0.69764 0.8933 0.87498 0.0
O217 O 0.68496 0.87561 0.85229 0.0
C218 C 0.64359 0.90344 0.8445 0.0
O219 O 0.68751 0.9329 0.87206 0.0
O220 O 0.67872 0.94149 0.84302 0.0
In221 In 0.81252 0.10451 0.35983 0.0
O222 O 0.83833 0.11489 0.34106 0.0
O223 O 0.84469 0.10217 0.36926 0.0
C224 C 0.78477 0.10411 0.33119 0.0
C225 C 0.81331 0.06598 0.36955 0.0
C226 C 0.80112 0.13593 0.38173 0.0
O227 O 0.80277 0.10754 0.32759 0.0
O228 O 0.78081 0.10123 0.3492 0.0
O229 O 0.79565 0.11851 0.38571 0.0
O230 O 0.81281 0.13728 0.36728 0.0
C231 C 0.85132 0.1096 0.35343 0.0
O232 O 0.81142 0.07933 0.38256 0.0
O233 O 0.81474 0.07219 0.35201 0.0
In234 In 0.18776 0.59353 0.15378 0.0
O235 O 0.20228 0.5679 0.13733 0.0
O236 O 0.17117 0.57128 0.13459 0.0
C237 C 0.20164 0.62679 0.13619 0.0
C238 C 0.15014 0.5971 0.16601 0.0
C239 C 0.21182 0.58646 0.18495 0.0
O240 O 0.19782 0.61132 0.12649 0.0
O241 O 0.19837 0.62543 0.15446 0.0
O242 O 0.19687 0.59753 0.18613 0.0
O243 O 0.21442 0.57872 0.16819 0.0
C244 C 0.1863 0.56123 0.13035 0.0
O245 O 0.16137 0.58346 0.17213 0.0
O246 O 0.15791 0.60886 0.15373 0.0
In247 In 0.32505 0.3971 0.65997 0.0
O248 O 0.32313 0.41995 0.63503 0.0
O249 O 0.3319 0.42959 0.66372 0.0
C250 C 0.31255 0.36476 0.64043 0.0
C251 C 0.36335 0.39008 0.6679 0.0
C252 C 0.29525 0.40042 0.68618 0.0
O253 O 0.31291 0.38169 0.63249 0.0
O254 O 0.31874 0.36419 0.65804 0.0
O255 O 0.31157 0.39249 0.69061 0.0
O256 O 0.29402 0.40656 0.66861 0.0
C257 C 0.32824 0.43421 0.64601 0.0
O258 O 0.35128 0.39556 0.68105 0.0
O259 O 0.35605 0.38794 0.65084 0.0
In260 In 0.84166 0.67928 0.90406 0.0
O261 O 0.86806 0.67562 0.92508 0.0
O262 O 0.83909 0.67705 0.93728 0.0
C263 C 0.86168 0.69353 0.87264 0.0
C264 C 0.83254 0.64096 0.89823 0.0
C265 C 0.81365 0.70756 0.90535 0.0
O266 O 0.86704 0.69695 0.89024 0.0
O267 O 0.84657 0.68271 0.87104 0.0
O268 O 0.81129 0.69154 0.89602 0.0
O269 O 0.83006 0.70924 0.91407 0.0
C270 C 0.85737 0.6752 0.94042 0.0
O271 O 0.82039 0.65312 0.90551 0.0
O272 O 0.84914 0.64819 0.89372 0.0
In273 In 0.35695 0.81241 0.09064 0.0
O274 O 0.3705 0.8008 0.06214 0.0
O275 O 0.38132 0.82814 0.07321 0.0
C276 C 0.37834 0.79714 0.12085 0.0
C277 C 0.34186 0.84926 0.09201 0.0
C278 C 0.32439 0.78912 0.09004 0.0
O279 O 0.37724 0.78883 0.10418 0.0
O280 O 0.36921 0.81333 0.12202 0.0
O281 O 0.32943 0.79906 0.105 0.0
O282 O 0.33553 0.79122 0.07525 0.0
C283 C 0.38193 0.81533 0.05964 0.0
O284 O 0.33782 0.83743 0.07811 0.0
O285 O 0.35331 0.84243 0.10506 0.0
In286 In 0.14951 0.18757 0.58829 0.0
O287 O 0.12195 0.18276 0.56907 0.0
O288 O 0.148 0.194 0.55549 0.0
C289 C 0.13145 0.20431 0.61983 0.0
C290 C 0.15767 0.14855 0.589 0.0
C291 C 0.18228 0.21011 0.58887 0.0
O292 O 0.12956 0.21092 0.60248 0.0
O293 O 0.14173 0.18883 0.62113 0.0
O294 O 0.18035 0.19509 0.59983 0.0
O295 O 0.1678 0.21356 0.57761 0.0
C296 C 0.13031 0.18854 0.55338 0.0
O297 O 0.16991 0.16127 0.58295 0.0
O298 O 0.14139 0.15552 0.59485 0.0
In299 In 0.63078 0.31383 0.39543 0.0
O300 O 0.65051 0.34085 0.39145 0.0
O301 O 0.61969 0.34563 0.39562 0.0
C302 C 0.66168 0.28879 0.39583 0.0
C303 C 0.61765 0.31259 0.43302 0.0
C304 C 0.61165 0.30049 0.36295 0.0
O305 O 0.66362 0.30696 0.3918 0.0
O306 O 0.64418 0.28332 0.39938 0.0
O307 O 0.60737 0.2947 0.38018 0.0
O308 O 0.62499 0.31349 0.36225 0.0
C309 C 0.63659 0.35318 0.39321 0.0
O310 O 0.60626 0.31663 0.41875 0.0
O311 O 0.63525 0.30891 0.42821 0.0
H312 H 0.10998 0.27131 0.12908 0.0
H313 H 0.0993 0.25375 0.15878 0.0
H314 H 0.12904 0.29701 0.19524 0.0
H315 H 0.14025 0.31434 0.16548 0.0
H316 H 0.13963 0.26168 0.20585 0.0
H317 H 0.07754 0.29254 0.19455 0.0
H318 H 0.04826 0.30339 0.17569 0.0
H319 H 0.03272 0.24282 0.16425 0.0
H320 H 0.06206 0.23158 0.18281 0.0
H321 H 0.10741 0.21006 0.29217 0.0
H322 H 0.11021 0.23675 0.26773 0.0
H323 H 0.08968 0.19714 0.22202 0.0
H324 H 0.08684 0.17046 0.2463 0.0
H325 H 0.07274 0.23474 0.21954 0.0
H326 H 0.13768 0.20496 0.22688 0.0
H327 H 0.16701 0.19431 0.24582 0.0
H328 H 0.17668 0.25412 0.26511 0.0
H329 H 0.14724 0.26507 0.24646 0.0
C330 C 0.11392 0.2773 0.14343 0.0
C331 C 0.12604 0.29412 0.14498 0.0
C332 C 0.10771 0.2673 0.16043 0.0
C333 C 0.11324 0.27413 0.17929 0.0
C334 C 0.1246 0.29147 0.18085 0.0
C335 C 0.13096 0.30137 0.16385 0.0
C336 C 0.10893 0.26202 0.19711 0.0
C337 C 0.12489 0.25621 0.2091 0.0
C338 C 0.08978 0.25454 0.20118 0.0
C339 C 0.0721 0.26122 0.18997 0.0
C340 C 0.06797 0.28153 0.18789 0.0
C341 C 0.05134 0.28775 0.17727 0.0
C342 C 0.03866 0.27381 0.16875 0.0
C343 C 0.04256 0.25361 0.17086 0.0
C344 C 0.05917 0.2473 0.18145 0.0
C345 C 0.10338 0.2071 0.27693 0.0
C346 C 0.09704 0.18816 0.27109 0.0
C347 C 0.10498 0.22234 0.26302 0.0
C348 C 0.10024 0.21885 0.24308 0.0
C349 C 0.09335 0.20012 0.23735 0.0
C350 C 0.09185 0.18488 0.25121 0.0
C351 C 0.10346 0.2343 0.2279 0.0
C352 C 0.08735 0.24063 0.21644 0.0
C353 C 0.12243 0.24236 0.22433 0.0
C354 C 0.14014 0.23579 0.23548 0.0
C355 C 0.14597 0.2158 0.2353 0.0
C356 C 0.16263 0.20972 0.24595 0.0
C357 C 0.17366 0.22352 0.25672 0.0
C358 C 0.16809 0.24344 0.2568 0.0
C359 C 0.15144 0.2496 0.24618 0.0
H360 H 0.18656 0.21878 0.26495 0.0
H361 H 0.02579 0.27866 0.16054 0.0
H362 H 0.3994 0.78883 0.79323 0.0
H363 H 0.39577 0.76371 0.76723 0.0
H364 H 0.39248 0.80978 0.72312 0.0
H365 H 0.39609 0.83486 0.7489 0.0
H366 H 0.36287 0.78284 0.71919 0.0
H367 H 0.43347 0.78298 0.72703 0.0
H368 H 0.46478 0.7805 0.74559 0.0
H369 H 0.45034 0.72099 0.76266 0.0
H370 H 0.41878 0.72322 0.74442 0.0
H371 H 0.39357 0.71426 0.63574 0.0
H372 H 0.40395 0.73477 0.66387 0.0
H373 H 0.3529 0.71544 0.69691 0.0
H374 H 0.34243 0.69501 0.66899 0.0
H375 H 0.4111 0.7291 0.70566 0.0
H376 H 0.33147 0.75781 0.71477 0.0
H377 H 0.30092 0.76106 0.695 0.0
H378 H 0.33537 0.76523 0.64175 0.0
H379 H 0.3661 0.76238 0.66123 0.0
C380 C 0.39801 0.79356 0.77797 0.0
C381 C 0.39799 0.81379 0.77308 0.0
C382 C 0.39602 0.77922 0.76315 0.0
C383 C 0.39394 0.78491 0.74326 0.0
C384 C 0.39405 0.80509 0.73838 0.0
C385 C 0.39616 0.81939 0.75313 0.0
C386 C 0.39082 0.76997 0.72753 0.0
C387 C 0.37341 0.77108 0.71628 0.0
C388 C 0.40468 0.75475 0.72362 0.0
C389 C 0.42367 0.75334 0.73452 0.0
C390 C 0.43689 0.76943 0.73488 0.0
C391 C 0.4547 0.76805 0.74531 0.0
C392 C 0.45952 0.75062 0.75534 0.0
C393 C 0.44657 0.7345 0.75491 0.0
C394 C 0.42873 0.7358 0.74451 0.0
C395 C 0.38481 0.71406 0.64917 0.0
C396 C 0.36705 0.70327 0.65009 0.0
C397 C 0.3908 0.7257 0.66523 0.0
C398 C 0.37904 0.72676 0.68231 0.0
C399 C 0.36207 0.71492 0.68376 0.0
C400 C 0.35611 0.70328 0.66778 0.0
C401 C 0.38308 0.74191 0.6976 0.0
C402 C 0.40058 0.74082 0.70871 0.0
C403 C 0.36943 0.75735 0.70128 0.0
C404 C 0.35106 0.75966 0.68945 0.0
C405 C 0.33251 0.75953 0.69885 0.0
C406 C 0.31517 0.76129 0.68769 0.0
C407 C 0.3162 0.76328 0.66712 0.0
C408 C 0.33458 0.76362 0.65767 0.0
C409 C 0.35197 0.76193 0.66877 0.0
H410 H 0.30276 0.76459 0.65851 0.0
H411 H 0.47332 0.74958 0.76341 0.0
H412 H 0.61965 0.29444 0.7028 0.0
H413 H 0.61607 0.26951 0.72891 0.0
H414 H 0.60301 0.3156 0.77119 0.0
H415 H 0.60687 0.34051 0.74531 0.0
H416 H 0.62696 0.28877 0.78706 0.0
H417 H 0.56617 0.28799 0.75006 0.0
H418 H 0.54561 0.2853 0.72001 0.0
H419 H 0.56711 0.22631 0.71015 0.0
H420 H 0.58803 0.22876 0.74 0.0
H421 H 0.58602 0.23339 0.86324 0.0
H422 H 0.58336 0.25478 0.83414 0.0
H423 H 0.60824 0.20867 0.79771 0.0
H424 H 0.61122 0.18727 0.82679 0.0
H425 H 0.5781 0.23449 0.77854 0.0
H426 H 0.63885 0.23582 0.81638 0.0
H427 H 0.65735 0.23839 0.84774 0.0
H428 H 0.63511 0.29727 0.85642 0.0
H429 H 0.61583 0.29476 0.82547 0.0
C430 C 0.61619 0.29923 0.71771 0.0
C431 C 0.61344 0.31939 0.72202 0.0
C432 C 0.61404 0.28499 0.73257 0.0
C433 C 0.60895 0.29069 0.75192 0.0
C434 C 0.60688 0.31087 0.75636 0.0
C435 C 0.60907 0.32508 0.74155 0.0
C436 C 0.60537 0.27569 0.76752 0.0
C437 C 0.61614 0.27704 0.78524 0.0
C438 C 0.59145 0.26019 0.76504 0.0
C439 C 0.57882 0.25864 0.74714 0.0
C440 C 0.56663 0.2745 0.74139 0.0
C441 C 0.55489 0.27301 0.72441 0.0
C442 C 0.55509 0.25566 0.71314 0.0
C443 C 0.56699 0.23975 0.71887 0.0
C444 C 0.57878 0.24117 0.73583 0.0
C445 C 0.59023 0.22753 0.84891 0.0
C446 C 0.59912 0.20882 0.84727 0.0
C447 C 0.58873 0.23977 0.83234 0.0
C448 C 0.59591 0.23334 0.81394 0.0
C449 C 0.60267 0.21385 0.81183 0.0
C450 C 0.60442 0.20169 0.82845 0.0
C451 C 0.59951 0.24781 0.79798 0.0
C452 C 0.58889 0.24626 0.78025 0.0
C453 C 0.61351 0.2632 0.80046 0.0
C454 C 0.62566 0.265 0.81872 0.0
C455 C 0.6377 0.24923 0.82509 0.0
C456 C 0.64828 0.25065 0.84282 0.0
C457 C 0.64735 0.26795 0.8541 0.0
C458 C 0.63578 0.28386 0.84768 0.0
C459 C 0.62497 0.28242 0.83008 0.0
H460 H 0.65565 0.26908 0.86775 0.0
H461 H 0.546 0.25453 0.7 0.0
H462 H 0.91651 0.67132 0.24641 0.0
H463 H 0.90967 0.69599 0.27189 0.0
H464 H 0.86667 0.72372 0.23364 0.0
H465 H 0.8739 0.69929 0.2078 0.0
H466 H 0.88845 0.75101 0.25149 0.0
H467 H 0.85183 0.6942 0.27295 0.0
H468 H 0.84599 0.65931 0.28213 0.0
H469 H 0.88987 0.66358 0.32785 0.0
H470 H 0.89596 0.6985 0.31903 0.0
H471 H 0.83842 0.80298 0.32985 0.0
H472 H 0.84788 0.78213 0.30177 0.0
H473 H 0.89655 0.75852 0.33565 0.0
H474 H 0.88727 0.77944 0.36376 0.0
H475 H 0.87141 0.72969 0.31968 0.0
H476 H 0.90643 0.78783 0.29819 0.0
H477 H 0.91004 0.82309 0.28945 0.0
H478 H 0.86675 0.81644 0.24339 0.0
H479 H 0.86267 0.78119 0.25204 0.0
C480 C 0.90563 0.6827 0.24341 0.0
C481 C 0.89572 0.6834 0.22515 0.0
C482 C 0.90165 0.69673 0.25802 0.0
C483 C 0.88742 0.71152 0.2548 0.0
C484 C 0.87768 0.71241 0.23645 0.0
C485 C 0.8818 0.69846 0.22172 0.0
C486 C 0.88287 0.72606 0.2706 0.0
C487 C 0.88445 0.74635 0.26633 0.0
C488 C 0.87795 0.71999 0.29004 0.0
C489 C 0.87449 0.69891 0.2952 0.0
C490 C 0.86035 0.68765 0.28486 0.0
C491 C 0.85697 0.66789 0.29001 0.0
C492 C 0.86764 0.65922 0.30546 0.0
C493 C 0.88165 0.67031 0.31586 0.0
C494 C 0.88503 0.69011 0.31084 0.0
C495 C 0.85135 0.7936 0.33119 0.0
C496 C 0.86208 0.79276 0.34899 0.0
C497 C 0.85675 0.78175 0.31513 0.0
C498 C 0.87291 0.76882 0.31667 0.0
C499 C 0.88404 0.76843 0.33421 0.0
C500 C 0.87877 0.78043 0.3502 0.0
C501 C 0.8772 0.75456 0.30061 0.0
C502 C 0.87546 0.73432 0.30484 0.0
C503 C 0.88169 0.76071 0.28111 0.0
C504 C 0.8841 0.78191 0.27591 0.0
C505 C 0.89754 0.79393 0.28632 0.0
C506 C 0.8997 0.8139 0.28136 0.0
C507 C 0.88859 0.82201 0.26591 0.0
C508 C 0.87533 0.81015 0.25537 0.0
C509 C 0.8731 0.79017 0.26029 0.0
H510 H 0.8903 0.83748 0.26208 0.0
H511 H 0.865 0.64391 0.30941 0.0
H512 H 0.24957 0.08145 0.16518 0.0
H513 H 0.22286 0.08269 0.18942 0.0
H514 H 0.26396 0.10244 0.23414 0.0
H515 H 0.29096 0.10099 0.20989 0.0
H516 H 0.23854 0.07464 0.24878 0.0
H517 H 0.23162 0.13753 0.21622 0.0
H518 H 0.22914 0.16113 0.18849 0.0
H519 H 0.18023 0.12839 0.16452 0.0
H520 H 0.182 0.10497 0.19256 0.0
H521 H 0.16419 0.12106 0.31057 0.0
H522 H 0.19294 0.11072 0.29111 0.0
H523 H 0.15423 0.08443 0.24768 0.0
H524 H 0.12545 0.09455 0.26709 0.0
H525 H 0.17899 0.11467 0.23328 0.0
H526 H 0.18381 0.05527 0.27201 0.0
H527 H 0.18622 0.03569 0.30271 0.0
H528 H 0.24082 0.06473 0.31735 0.0
H529 H 0.23859 0.08471 0.28686 0.0
C530 C 0.25296 0.08603 0.18018 0.0
C531 C 0.27233 0.09121 0.18563 0.0
C532 C 0.23766 0.0868 0.194 0.0
C533 C 0.24138 0.09289 0.21351 0.0
C534 C 0.26078 0.09773 0.21914 0.0
C535 C 0.27616 0.09696 0.20528 0.0
C536 C 0.22484 0.09441 0.22782 0.0
C537 C 0.22559 0.08356 0.24555 0.0
C538 C 0.2079 0.10586 0.22349 0.0
C539 C 0.20711 0.11941 0.20629 0.0
C540 C 0.22045 0.13529 0.20493 0.0
C541 C 0.21913 0.14867 0.18921 0.0
C542 C 0.20474 0.14611 0.17458 0.0
C543 C 0.19144 0.13031 0.1758 0.0
C544 C 0.19249 0.11706 0.19169 0.0
C545 C 0.16184 0.11257 0.29717 0.0
C546 C 0.1426 0.1088 0.29021 0.0
C547 C 0.17827 0.10662 0.28612 0.0
C548 C 0.17565 0.09689 0.26795 0.0
C549 C 0.1565 0.09193 0.26168 0.0
C550 C 0.14009 0.0977 0.2728 0.0
C551 C 0.19248 0.09469 0.25415 0.0
C552 C 0.19183 0.10557 0.2365 0.0
C553 C 0.20959 0.0836 0.25885 0.0
C554 C 0.21092 0.07164 0.27723 0.0
C555 C 0.19623 0.05764 0.28187 0.0
C556 C 0.19759 0.04643 0.29922 0.0
C557 C 0.21364 0.049 0.312 0.0
C558 C 0.22838 0.06276 0.30745 0.0
C559 C 0.22709 0.07402 0.29012 0.0
H560 H 0.21466 0.0403 0.32542 0.0
H561 H 0.20381 0.15646 0.16237 0.0
H562 H 0.36088 0.90492 0.78062 0.0
H563 H 0.32989 0.91327 0.76409 0.0
H564 H 0.2986 0.87229 0.80182 0.0
H565 H 0.32968 0.86359 0.81817 0.0
H566 H 0.29193 0.86444 0.76422 0.0
H567 H 0.2895 0.92262 0.80391 0.0
H568 H 0.30195 0.9532 0.81947 0.0
H569 H 0.31147 0.97892 0.76212 0.0
H570 H 0.29934 0.94839 0.74618 0.0
H571 H 0.20261 0.88546 0.71228 0.0
H572 H 0.22673 0.88283 0.73923 0.0
H573 H 0.26697 0.92047 0.70694 0.0
H574 H 0.24292 0.92328 0.68006 0.0
H575 H 0.26544 0.93044 0.746 0.0
H576 H 0.27476 0.87096 0.7071 0.0
H577 H 0.26505 0.83982 0.69069 0.0
H578 H 0.24377 0.81692 0.74606 0.0
H579 H 0.25351 0.84793 0.76281 0.0
C580 C 0.34733 0.89805 0.78572 0.0
C581 C 0.34771 0.88347 0.80055 0.0
C582 C 0.32958 0.90292 0.77633 0.0
C583 C 0.3119 0.89344 0.78175 0.0
C584 C 0.31208 0.87976 0.7974 0.0
C585 C 0.32984 0.87483 0.80674 0.0
C586 C 0.29393 0.89588 0.76941 0.0
C587 C 0.2858 0.87886 0.76067 0.0
C588 C 0.28631 0.91471 0.76433 0.0
C589 C 0.29361 0.93314 0.77385 0.0
C590 C 0.29438 0.93474 0.7946 0.0
C591 C 0.30136 0.95208 0.80349 0.0
C592 C 0.30752 0.96798 0.79179 0.0
C593 C 0.30669 0.96659 0.77116 0.0
C594 C 0.29973 0.94928 0.7622 0.0
C595 C 0.21658 0.89323 0.71098 0.0
C596 C 0.22095 0.90451 0.69405 0.0
C597 C 0.23033 0.89168 0.72635 0.0
C598 C 0.24866 0.90137 0.72501 0.0
C599 C 0.25288 0.91293 0.70828 0.0
C600 C 0.23917 0.91444 0.6929 0.0
C601 C 0.26376 0.89904 0.74071 0.0
C602 C 0.27133 0.91604 0.74997 0.0
C603 C 0.27101 0.88022 0.74623 0.0
C604 C 0.26463 0.86182 0.73613 0.0
C605 C 0.26783 0.85935 0.71572 0.0
C606 C 0.26239 0.8417 0.70638 0.0
C607 C 0.25369 0.82644 0.7173 0.0
C608 C 0.25047 0.82877 0.73761 0.0
C609 C 0.256 0.84635 0.74704 0.0
H610 H 0.24955 0.81276 0.71006 0.0
H611 H 0.31292 0.9814 0.7987 0.0
H612 H 0.79472 0.39188 0.79085 0.0
H613 H 0.77069 0.3966 0.76415 0.0
H614 H 0.72842 0.41943 0.80623 0.0
H615 H 0.75219 0.41437 0.83299 0.0
H616 H 0.71187 0.39261 0.78355 0.0
H617 H 0.75144 0.44996 0.77282 0.0
H618 H 0.7822 0.46894 0.76784 0.0
H619 H 0.79357 0.43698 0.71408 0.0
H620 H 0.76301 0.41759 0.71888 0.0
H621 H 0.64088 0.41583 0.71355 0.0
H622 H 0.66784 0.42621 0.73533 0.0
H623 H 0.70879 0.39056 0.70184 0.0
H624 H 0.68188 0.37991 0.68011 0.0
H625 H 0.72529 0.42753 0.72025 0.0
H626 H 0.68784 0.36731 0.73465 0.0
H627 H 0.6566 0.34906 0.7396 0.0
H628 H 0.64118 0.38799 0.78743 0.0
H629 H 0.67215 0.40674 0.78245 0.0
C630 C 0.78033 0.39799 0.79436 0.0
C631 C 0.77527 0.40267 0.81398 0.0
C632 C 0.76668 0.40082 0.77909 0.0
C633 C 0.74784 0.40858 0.78318 0.0
C634 C 0.74288 0.41346 0.80275 0.0
C635 C 0.75647 0.41054 0.81801 0.0
C636 C 0.73284 0.41037 0.76729 0.0
C637 C 0.71472 0.40059 0.7699 0.0
C638 C 0.73666 0.4205 0.74932 0.0
C639 C 0.755 0.4322 0.7463 0.0
C640 C 0.76057 0.44687 0.76001 0.0
C641 C 0.77796 0.45772 0.75721 0.0
C642 C 0.78985 0.45413 0.74068 0.0
C643 C 0.78435 0.43973 0.72688 0.0
C644 C 0.76698 0.42881 0.72963 0.0
C645 C 0.65575 0.41081 0.71034 0.0
C646 C 0.65927 0.39676 0.69541 0.0
C647 C 0.67113 0.41678 0.72278 0.0
C648 C 0.69016 0.4089 0.72028 0.0
C649 C 0.69417 0.39678 0.70394 0.0
C650 C 0.67876 0.39062 0.69162 0.0
C651 C 0.70454 0.40983 0.73669 0.0
C652 C 0.72249 0.41989 0.7341 0.0
C653 C 0.70061 0.40006 0.75478 0.0
C654 C 0.68218 0.38856 0.75802 0.0
C655 C 0.6777 0.37208 0.7461 0.0
C656 C 0.66006 0.36164 0.74892 0.0
C657 C 0.6469 0.36739 0.76379 0.0
C658 C 0.65137 0.38358 0.77589 0.0
C659 C 0.66896 0.39412 0.77307 0.0
H660 H 0.63327 0.35928 0.76599 0.0
H661 H 0.80331 0.46255 0.73853 0.0
H662 H 0.83619 0.62228 0.18204 0.0
H663 H 0.80673 0.61314 0.20085 0.0
H664 H 0.84289 0.58034 0.24198 0.0
H665 H 0.87251 0.58937 0.22318 0.0
H666 H 0.80481 0.56336 0.23554 0.0
H667 H 0.83522 0.62566 0.25165 0.0
H668 H 0.84898 0.65849 0.24358 0.0
H669 H 0.79213 0.67751 0.2226 0.0
H670 H 0.77818 0.64454 0.2299 0.0
H671 H 0.74988 0.5737 0.32481 0.0
H672 H 0.77538 0.57418 0.29913 0.0
H673 H 0.73703 0.60856 0.2614 0.0
H674 H 0.71138 0.6081 0.28704 0.0
H675 H 0.775 0.62399 0.2645 0.0
H676 H 0.74428 0.56151 0.25066 0.0
H677 H 0.73138 0.52833 0.25875 0.0
H678 H 0.78936 0.50984 0.27698 0.0
H679 H 0.80256 0.54302 0.26928 0.0
C680 C 0.83783 0.61264 0.19475 0.0
C681 C 0.85665 0.60682 0.20137 0.0
C682 C 0.82099 0.60744 0.20547 0.0
C683 C 0.82275 0.59641 0.22297 0.0
C684 C 0.84129 0.58893 0.22853 0.0
C685 C 0.85818 0.59414 0.21781 0.0
C686 C 0.8059 0.59518 0.23684 0.0
C687 C 0.79833 0.57656 0.24199 0.0
C688 C 0.79744 0.6125 0.24506 0.0
C689 C 0.8057 0.63252 0.24109 0.0
C690 C 0.82569 0.63676 0.24513 0.0
C691 C 0.83353 0.6554 0.24068 0.0
C692 C 0.82144 0.67007 0.23258 0.0
C693 C 0.80149 0.66612 0.22886 0.0
C694 C 0.79361 0.64744 0.2331 0.0
C695 C 0.74684 0.58128 0.311 0.0
C696 C 0.72867 0.59088 0.3079 0.0
C697 C 0.76138 0.58145 0.29633 0.0
C698 C 0.758 0.59127 0.27834 0.0
C699 C 0.73986 0.60086 0.27519 0.0
C700 C 0.72524 0.60056 0.28981 0.0
C701 C 0.77374 0.59215 0.26317 0.0
C702 C 0.78126 0.61076 0.25789 0.0
C703 C 0.78224 0.57482 0.25501 0.0
C704 C 0.77437 0.55481 0.25956 0.0
C705 C 0.75425 0.55042 0.25655 0.0
C706 C 0.74689 0.53161 0.26103 0.0
C707 C 0.75953 0.517 0.26842 0.0
C708 C 0.77958 0.52118 0.27128 0.0
C709 C 0.78701 0.53998 0.26684 0.0
H710 H 0.7538 0.50244 0.27188 0.0
H711 H 0.82753 0.68451 0.22922 0.0
H712 H 0.31894 0.16127 0.13345 0.0
H713 H 0.30316 0.19219 0.12333 0.0
H714 H 0.26375 0.15966 0.08501 0.0
H715 H 0.2798 0.12865 0.09475 0.0
H716 H 0.27333 0.19697 0.06988 0.0
H717 H 0.2511 0.16754 0.13081 0.0
H718 H 0.25683 0.15337 0.1639 0.0
H719 H 0.27885 0.20938 0.18444 0.0
H720 H 0.27411 0.22365 0.15113 0.0
H721 H 0.18557 0.25463 0.07335 0.0
H722 H 0.21113 0.22911 0.07469 0.0
H723 H 0.2455 0.26545 0.11441 0.0
H724 H 0.21986 0.29104 0.11326 0.0
H725 H 0.24118 0.22817 0.12814 0.0
H726 H 0.26072 0.25838 0.06722 0.0
H727 H 0.25599 0.27166 0.03355 0.0
H728 H 0.23776 0.2143 0.01311 0.0
H729 H 0.2421 0.20072 0.04673 0.0
C730 C 0.30723 0.16074 0.12251 0.0
C731 C 0.30032 0.14256 0.11514 0.0
C732 C 0.29827 0.17842 0.11671 0.0
C733 C 0.28205 0.17813 0.10374 0.0
C734 C 0.27622 0.16017 0.09508 0.0
C735 C 0.28532 0.14246 0.10074 0.0
C736 C 0.26949 0.19593 0.10149 0.0
C737 C 0.26621 0.20378 0.08256 0.0
C738 C 0.26043 0.2049 0.11814 0.0
C739 C 0.26249 0.1966 0.1384 0.0
C740 C 0.25732 0.17681 0.14233 0.0
C741 C 0.26045 0.16874 0.16111 0.0
C742 C 0.26819 0.18047 0.17628 0.0
C743 C 0.27288 0.2003 0.17267 0.0
C744 C 0.27007 0.20836 0.1538 0.0
C745 C 0.19866 0.25727 0.08222 0.0
C746 C 0.20072 0.27479 0.09325 0.0
C747 C 0.2133 0.24273 0.08287 0.0
C748 C 0.23029 0.24547 0.0945 0.0
C749 C 0.23252 0.26309 0.10529 0.0
C750 C 0.21789 0.27769 0.10461 0.0
C751 C 0.24498 0.22933 0.09648 0.0
C752 C 0.24853 0.22164 0.11543 0.0
C753 C 0.25413 0.22048 0.07983 0.0
C754 C 0.25159 0.22857 0.05955 0.0
C755 C 0.25556 0.24863 0.05559 0.0
C756 C 0.25297 0.2562 0.0365 0.0
C757 C 0.24654 0.24384 0.02121 0.0
C758 C 0.24273 0.22386 0.02497 0.0
C759 C 0.24528 0.21621 0.04404 0.0
H760 H 0.24455 0.24974 0.00644 0.0
H761 H 0.27051 0.17421 0.19085 0.0
H762 H 0.76909 0.36137 0.90362 0.0
H763 H 0.74801 0.33286 0.91067 0.0
H764 H 0.78834 0.29498 0.87875 0.0
H765 H 0.80909 0.3236 0.87108 0.0
H766 H 0.75319 0.29042 0.86492 0.0
H767 H 0.78023 0.29047 0.92993 0.0
H768 H 0.79065 0.30426 0.96208 0.0
H769 H 0.73062 0.32052 0.97497 0.0
H770 H 0.71986 0.30708 0.94277 0.0
H771 H 0.6942 0.20504 0.88419 0.0
H772 H 0.72179 0.22853 0.88415 0.0
H773 H 0.68385 0.27337 0.90914 0.0
H774 H 0.65625 0.24996 0.90935 0.0
H775 H 0.72022 0.27156 0.92774 0.0
H776 H 0.69519 0.27629 0.86011 0.0
H777 H 0.68545 0.26327 0.82735 0.0
H778 H 0.7428 0.23696 0.82035 0.0
H779 H 0.753 0.25011 0.8529 0.0
C780 C 0.77371 0.34687 0.89856 0.0
C781 C 0.7906 0.34469 0.88666 0.0
C782 C 0.76169 0.33055 0.90266 0.0
C783 C 0.76659 0.31173 0.89525 0.0
C784 C 0.78421 0.30936 0.88453 0.0
C785 C 0.79608 0.3257 0.88021 0.0
C786 C 0.75218 0.2952 0.8965 0.0
C787 C 0.74635 0.28602 0.87877 0.0
C788 C 0.74286 0.28973 0.91446 0.0
C789 C 0.74926 0.29789 0.93384 0.0
C790 C 0.76926 0.29713 0.93954 0.0
C791 C 0.77523 0.30486 0.9578 0.0
C792 C 0.76131 0.3133 0.97054 0.0
C793 C 0.74139 0.31399 0.96508 0.0
C794 C 0.73534 0.30629 0.94683 0.0
C795 C 0.69176 0.2199 0.88967 0.0
C796 C 0.6731 0.22569 0.89676 0.0
C797 C 0.7075 0.2333 0.8896 0.0
C798 C 0.70481 0.25269 0.89657 0.0
C799 C 0.68623 0.25844 0.90378 0.0
C800 C 0.67048 0.24508 0.90381 0.0
C801 C 0.72128 0.26709 0.89619 0.0
C802 C 0.72739 0.27585 0.91402 0.0
C803 C 0.73099 0.27213 0.87838 0.0
C804 C 0.72477 0.26398 0.85899 0.0
C805 C 0.70565 0.2676 0.85164 0.0
C806 C 0.70007 0.26024 0.83311 0.0
C807 C 0.71341 0.24913 0.82188 0.0
C808 C 0.73245 0.24551 0.82909 0.0
C809 C 0.73818 0.25299 0.84752 0.0
H810 H 0.70904 0.24343 0.80756 0.0
H811 H 0.76596 0.31927 0.98467 0.0
H812 H 0.81882 0.75701 0.43108 0.0
H813 H 0.79714 0.72818 0.43369 0.0
H814 H 0.75297 0.75812 0.39863 0.0
H815 H 0.77448 0.78719 0.39622 0.0
H816 H 0.7362 0.73545 0.42794 0.0
H817 H 0.78521 0.72814 0.37654 0.0
H818 H 0.81905 0.7275 0.36291 0.0
H819 H 0.83441 0.68023 0.40255 0.0
H820 H 0.80071 0.6808 0.41662 0.0
H821 H 0.68976 0.66075 0.37125 0.0
H822 H 0.70675 0.68895 0.3861 0.0
H823 H 0.74344 0.64916 0.42 0.0
H824 H 0.72637 0.62075 0.40516 0.0
H825 H 0.76468 0.67507 0.3973 0.0
H826 H 0.71225 0.67905 0.44403 0.0
H827 H 0.6777 0.67996 0.45566 0.0
H828 H 0.66771 0.73345 0.42281 0.0
H829 H 0.70212 0.73272 0.41073 0.0
C830 C 0.80436 0.75758 0.4242 0.0
C831 C 0.79841 0.77421 0.41321 0.0
C832 C 0.792 0.74111 0.42572 0.0
C833 C 0.77361 0.74093 0.4161 0.0
C834 C 0.76713 0.75798 0.40615 0.0
C835 C 0.77946 0.77452 0.4047 0.0
C836 C 0.76204 0.7224 0.41467 0.0
C837 C 0.74235 0.72223 0.42122 0.0
C838 C 0.77027 0.70508 0.40625 0.0
C839 C 0.79053 0.70469 0.3978 0.0
C840 C 0.79586 0.71773 0.38246 0.0
C841 C 0.815 0.71736 0.37464 0.0
C842 C 0.82889 0.70388 0.3819 0.0
C843 C 0.82364 0.6907 0.39697 0.0
C844 C 0.80453 0.69104 0.40488 0.0
C845 C 0.70116 0.658 0.38218 0.0
C846 C 0.70689 0.63859 0.38694 0.0
C847 C 0.71076 0.67413 0.39076 0.0
C848 C 0.72628 0.67113 0.40422 0.0
C849 C 0.73143 0.65175 0.4097 0.0
C850 C 0.72168 0.63558 0.40124 0.0
C851 C 0.73868 0.68811 0.41034 0.0
C852 C 0.75858 0.68807 0.40452 0.0
C853 C 0.73052 0.70525 0.41917 0.0
C854 C 0.70977 0.70576 0.42637 0.0
C855 C 0.70265 0.69093 0.43915 0.0
C856 C 0.68309 0.69142 0.44585 0.0
C857 C 0.67051 0.70673 0.43995 0.0
C858 C 0.67747 0.7216 0.42736 0.0
C859 C 0.69701 0.72116 0.42061 0.0
H860 H 0.65537 0.70709 0.44516 0.0
H861 H 0.84369 0.7036 0.37581 0.0
H862 H 0.17753 0.83861 0.62945 0.0
H863 H 0.1936 0.80791 0.619 0.0
H864 H 0.24154 0.8416 0.59362 0.0
H865 H 0.22534 0.87238 0.60366 0.0
H866 H 0.23319 0.80841 0.57171 0.0
H867 H 0.24361 0.82583 0.64023 0.0
H868 H 0.23218 0.83441 0.67379 0.0
H869 H 0.20414 0.77763 0.67913 0.0
H870 H 0.21471 0.769 0.64523 0.0
H871 H 0.31623 0.74543 0.58188 0.0
H872 H 0.29169 0.77193 0.58282 0.0
H873 H 0.24916 0.73177 0.60847 0.0
H874 H 0.27378 0.70517 0.60775 0.0
H875 H 0.25149 0.76598 0.62886 0.0
H876 H 0.24364 0.74736 0.56117 0.0
H877 H 0.25454 0.73926 0.5273 0.0
H878 H 0.27856 0.79774 0.52069 0.0
H879 H 0.26805 0.80611 0.55465 0.0
C880 C 0.19128 0.83948 0.62127 0.0
C881 C 0.20035 0.85784 0.61761 0.0
C882 C 0.20044 0.82195 0.61532 0.0
C883 C 0.21893 0.8225 0.60589 0.0
C884 C 0.2273 0.84086 0.60094 0.0
C885 C 0.21807 0.85842 0.60676 0.0
C886 C 0.23058 0.80414 0.60319 0.0
C887 C 0.23727 0.79914 0.58418 0.0
C888 C 0.23559 0.79191 0.61948 0.0
C889 C 0.22973 0.79687 0.64008 0.0
C890 C 0.23487 0.81523 0.64849 0.0
C891 C 0.22854 0.82011 0.66757 0.0
C892 C 0.21746 0.80657 0.6786 0.0
C893 C 0.21269 0.78812 0.67055 0.0
C894 C 0.21878 0.78325 0.65137 0.0
C895 C 0.30158 0.74218 0.58752 0.0
C896 C 0.2969 0.72325 0.59476 0.0
C897 C 0.28755 0.75731 0.58795 0.0
C898 C 0.26854 0.75376 0.59553 0.0
C899 C 0.26373 0.73478 0.6025 0.0
C900 C 0.27777 0.71961 0.60204 0.0
C901 C 0.25422 0.77023 0.59736 0.0
C902 C 0.24714 0.77499 0.61629 0.0
C903 C 0.24894 0.78224 0.58102 0.0
C904 C 0.25518 0.77731 0.56053 0.0
C905 C 0.25137 0.75845 0.55256 0.0
C906 C 0.25746 0.75382 0.53333 0.0
C907 C 0.26727 0.76796 0.52186 0.0
C908 C 0.27097 0.78679 0.52959 0.0
C909 C 0.26492 0.7915 0.54882 0.0
H910 H 0.27198 0.76434 0.50698 0.0
H911 H 0.21261 0.81037 0.69339 0.0
H912 H 0.85301 0.68717 0.83382 0.0
H913 H 0.86557 0.70532 0.80523 0.0
H914 H 0.90422 0.73892 0.84342 0.0
H915 H 0.89151 0.72088 0.87222 0.0
H916 H 0.88223 0.76251 0.82031 0.0
H917 H 0.92314 0.70584 0.8103 0.0
H918 H 0.93093 0.67037 0.80672 0.0
H919 H 0.89348 0.66692 0.75548 0.0
H920 H 0.88522 0.70232 0.75891 0.0
H921 H 0.92376 0.81649 0.74184 0.0
H922 H 0.92152 0.79304 0.76925 0.0
H923 H 0.88041 0.75751 0.73568 0.0
H924 H 0.88283 0.78085 0.70796 0.0
H925 H 0.9067 0.73462 0.75691 0.0
H926 H 0.8632 0.78973 0.76885 0.0
H927 H 0.8546 0.82504 0.77224 0.0
H928 H 0.89616 0.83094 0.81998 0.0
H929 H 0.90521 0.79569 0.81668 0.0
C930 C 0.86442 0.69819 0.83611 0.0
C931 C 0.87121 0.70271 0.85526 0.0
C932 C 0.87168 0.70848 0.81973 0.0
C933 C 0.88592 0.72339 0.82218 0.0
C934 C 0.89326 0.72743 0.84122 0.0
C935 C 0.88602 0.7171 0.85763 0.0
C936 C 0.89159 0.73604 0.80517 0.0
C937 C 0.888 0.75644 0.8066 0.0
C938 C 0.89852 0.72803 0.78708 0.0
C939 C 0.90344 0.70672 0.78497 0.0
C940 C 0.91643 0.69748 0.79837 0.0
C941 C 0.92096 0.67739 0.79634 0.0
C942 C 0.91268 0.66639 0.78091 0.0
C943 C 0.89987 0.67546 0.76744 0.0
C944 C 0.89528 0.69555 0.7694 0.0
C945 C 0.9144 0.80357 0.74019 0.0
C946 C 0.90329 0.80059 0.72286 0.0
C947 C 0.91313 0.7902 0.75587 0.0
C948 C 0.90057 0.77372 0.75459 0.0
C949 C 0.89016 0.77018 0.73695 0.0
C950 C 0.8915 0.78354 0.72118 0.0
C951 C 0.8973 0.76098 0.77214 0.0
C952 C 0.9012 0.74063 0.77074 0.0
C953 C 0.89054 0.76897 0.79028 0.0
C954 C 0.88503 0.79014 0.79237 0.0
C955 C 0.87061 0.79859 0.77997 0.0
C956 C 0.86564 0.81859 0.78189 0.0
C957 C 0.87487 0.83024 0.79628 0.0
C958 C 0.88905 0.8219 0.80882 0.0
C959 C 0.8941 0.80192 0.80694 0.0
H960 H 0.871 0.84572 0.79775 0.0
H961 H 0.9162 0.65083 0.77937 0.0
H962 H 0.58864 0.16174 0.24136 0.0
H963 H 0.58715 0.1878 0.26639 0.0
H964 H 0.61236 0.22931 0.22492 0.0
H965 H 0.61399 0.20321 0.19974 0.0
H966 H 0.62974 0.23096 0.26199 0.0
H967 H 0.56425 0.23167 0.23458 0.0
H968 H 0.53284 0.21652 0.22382 0.0
H969 H 0.52139 0.19726 0.28331 0.0
H970 H 0.55289 0.21204 0.29439 0.0
H971 H 0.6172 0.31187 0.32466 0.0
H972 H 0.61109 0.29195 0.29507 0.0
H973 H 0.58386 0.24672 0.33101 0.0
H974 H 0.58952 0.26678 0.36062 0.0
H975 H 0.56645 0.24908 0.2946 0.0
H976 H 0.63207 0.24509 0.32168 0.0
H977 H 0.66355 0.25914 0.33358 0.0
H978 H 0.6754 0.28246 0.27563 0.0
H979 H 0.64364 0.26905 0.26352 0.0
C980 C 0.59384 0.17642 0.23755 0.0
C981 C 0.60132 0.1805 0.21857 0.0
C982 C 0.5929 0.1913 0.25183 0.0
C983 C 0.59937 0.21053 0.24738 0.0
C984 C 0.60719 0.21457 0.22857 0.0
C985 C 0.60809 0.19968 0.21422 0.0
C986 C 0.59824 0.22628 0.26257 0.0
C987 C 0.61586 0.23522 0.26885 0.0
C988 C 0.58016 0.23141 0.27182 0.0
C989 C 0.56101 0.22284 0.26528 0.0
C990 C 0.55509 0.2241 0.24535 0.0
C991 C 0.53727 0.21559 0.2392 0.0
C992 C 0.52515 0.20589 0.25287 0.0
C993 C 0.5308 0.20476 0.27274 0.0
C994 C 0.54863 0.21323 0.27897 0.0
C995 C 0.60943 0.29792 0.32619 0.0
C996 C 0.6041 0.29071 0.34495 0.0
C997 C 0.60599 0.28655 0.30928 0.0
C998 C 0.59745 0.26768 0.31093 0.0
C999 C 0.59056 0.26121 0.32944 0.0
C1000 C 0.59384 0.27267 0.34635 0.0
C1001 C 0.59796 0.25376 0.294 0.0
C1002 C 0.58027 0.24505 0.2875 0.0
C1003 C 0.61602 0.24865 0.28466 0.0
C1004 C 0.63536 0.25628 0.29176 0.0
C1005 C 0.64131 0.25334 0.31151 0.0
C1006 C 0.6592 0.2612 0.31829 0.0
C1007 C 0.67146 0.27171 0.30538 0.0
C1008 C 0.66586 0.27435 0.28563 0.0
C1009 C 0.6479 0.26666 0.2788 0.0
H1010 H 0.68531 0.27778 0.31066 0.0
H1011 H 0.51137 0.19928 0.24806 0.0
H1012 H 0.42028 0.66912 0.25074 0.0
H1013 H 0.41932 0.69296 0.2236 0.0
H1014 H 0.39597 0.73731 0.2632 0.0
H1015 H 0.39661 0.71334 0.29044 0.0
H1016 H 0.37519 0.73562 0.22961 0.0
H1017 H 0.44359 0.74 0.24652 0.0
H1018 H 0.47689 0.7272 0.25409 0.0
H1019 H 0.48076 0.702 0.19585 0.0
H1020 H 0.44735 0.7144 0.18803 0.0
H1021 H 0.37948 0.81121 0.15861 0.0
H1022 H 0.38925 0.79313 0.18838 0.0
H1023 H 0.407 0.74339 0.15251 0.0
H1024 H 0.39726 0.76142 0.12257 0.0
H1025 H 0.43216 0.75027 0.18561 0.0
H1026 H 0.3628 0.74278 0.17029 0.0
H1027 H 0.3293 0.75499 0.16259 0.0
H1028 H 0.32739 0.78566 0.21825 0.0
H1029 H 0.36105 0.77389 0.22613 0.0
C1030 C 0.41506 0.68399 0.25371 0.0
C1031 C 0.40849 0.68939 0.27269 0.0
C1032 C 0.41464 0.69763 0.23821 0.0
C1033 C 0.40781 0.71698 0.24143 0.0
C1034 C 0.40137 0.72246 0.26042 0.0
C1035 C 0.40176 0.70879 0.27595 0.0
C1036 C 0.40635 0.73107 0.22468 0.0
C1037 C 0.38775 0.73914 0.22026 0.0
C1038 C 0.42265 0.73528 0.21219 0.0
C1039 C 0.44288 0.72801 0.21674 0.0
C1040 C 0.45148 0.73162 0.23537 0.0
C1041 C 0.47039 0.72445 0.2397 0.0
C1042 C 0.48092 0.71375 0.22548 0.0
C1043 C 0.47258 0.71027 0.20686 0.0
C1044 C 0.45367 0.71739 0.20246 0.0
C1045 C 0.38584 0.79659 0.15701 0.0
C1046 C 0.3874 0.78761 0.1383 0.0
C1047 C 0.3914 0.78629 0.17403 0.0
C1048 C 0.39858 0.76686 0.17261 0.0
C1049 C 0.40146 0.75838 0.15387 0.0
C1050 C 0.39584 0.76866 0.13681 0.0
C1051 C 0.40104 0.7547 0.19066 0.0
C1052 C 0.41973 0.74694 0.19521 0.0
C1053 C 0.38484 0.75072 0.20331 0.0
C1054 C 0.36453 0.75765 0.19869 0.0
C1055 C 0.3553 0.75226 0.18081 0.0
C1056 C 0.33628 0.75908 0.17643 0.0
C1057 C 0.32625 0.77114 0.1899 0.0
C1058 C 0.3352 0.77635 0.20781 0.0
C1059 C 0.35425 0.76961 0.21225 0.0
H1060 H 0.31152 0.77641 0.18648 0.0
H1061 H 0.49555 0.70819 0.22887 0.0
H1062 H 0.13266 0.19226 0.65838 0.0
H1063 H 0.12602 0.21235 0.6878 0.0
H1064 H 0.10855 0.26119 0.65055 0.0
H1065 H 0.11512 0.24119 0.62108 0.0
H1066 H 0.13742 0.27113 0.67769 0.0
H1067 H 0.07459 0.23764 0.67743 0.0
H1068 H 0.05236 0.2087 0.67708 0.0
H1069 H 0.07751 0.18827 0.73177 0.0
H1070 H 0.1001 0.21696 0.73231 0.0
H1071 H 0.10039 0.33818 0.74786 0.0
H1072 H 0.10493 0.31504 0.72055 0.0
H1073 H 0.11856 0.26842 0.76203 0.0
H1074 H 0.11382 0.29161 0.78963 0.0
H1075 H 0.0926 0.25607 0.73387 0.0
H1076 H 0.1566 0.28664 0.73367 0.0
H1077 H 0.18094 0.31385 0.73411 0.0
H1078 H 0.15486 0.33855 0.68169 0.0
H1079 H 0.13067 0.31116 0.68063 0.0
C1080 C 0.12702 0.20714 0.65647 0.0
C1081 C 0.12447 0.21519 0.63745 0.0
C1082 C 0.1232 0.21858 0.67329 0.0
C1083 C 0.11682 0.23824 0.67132 0.0
C1084 C 0.1135 0.24604 0.65235 0.0
C1085 C 0.11717 0.23457 0.63554 0.0
C1086 C 0.1152 0.2512 0.68893 0.0
C1087 C 0.1274 0.26799 0.68984 0.0
C1088 C 0.10273 0.24663 0.70512 0.0
C1089 C 0.08919 0.22934 0.70479 0.0
C1090 C 0.07552 0.22688 0.68928 0.0
C1091 C 0.06282 0.21054 0.68907 0.0
C1092 C 0.06356 0.19662 0.70436 0.0
C1093 C 0.07697 0.19905 0.71992 0.0
C1094 C 0.08971 0.21535 0.72019 0.0
C1095 C 0.10441 0.32302 0.75121 0.0
C1096 C 0.10672 0.31667 0.77088 0.0
C1097 C 0.10712 0.30984 0.73556 0.0
C1098 C 0.11229 0.29006 0.73924 0.0
C1099 C 0.11461 0.28364 0.75888 0.0
C1100 C 0.11194 0.29688 0.7746 0.0
C1101 C 0.11462 0.27612 0.72247 0.0
C1102 C 0.10264 0.25915 0.72173 0.0
C1103 C 0.12746 0.28034 0.70649 0.0
C1104 C 0.14173 0.29699 0.70719 0.0
C1105 C 0.15599 0.29795 0.72231 0.0
C1106 C 0.16979 0.31336 0.72264 0.0
C1107 C 0.1693 0.32806 0.70809 0.0
C1108 C 0.15517 0.32721 0.693 0.0
C1109 C 0.14151 0.31167 0.69244 0.0
H1110 H 0.17993 0.34004 0.70846 0.0
H1111 H 0.05371 0.18399 0.70418 0.0
H1112 H 0.70312 0.90393 0.77956 0.0
H1113 H 0.72817 0.90091 0.7535 0.0
H1114 H 0.77415 0.91171 0.79647 0.0
H1115 H 0.74927 0.91489 0.8225 0.0
H1116 H 0.78064 0.93123 0.76075 0.0
H1117 H 0.76072 0.86566 0.78389 0.0
H1118 H 0.73621 0.83914 0.78956 0.0
H1119 H 0.72326 0.83735 0.72738 0.0
H1120 H 0.74731 0.86417 0.72139 0.0
H1121 H 0.86834 0.88729 0.72676 0.0
H1122 H 0.83872 0.8995 0.74335 0.0
H1123 H 0.80248 0.87546 0.69649 0.0
H1124 H 0.83211 0.86241 0.68031 0.0
H1125 H 0.7875 0.86525 0.72926 0.0
H1126 H 0.80861 0.92709 0.7042 0.0
H1127 H 0.83142 0.95453 0.69656 0.0
H1128 H 0.8404 0.96483 0.75865 0.0
H1129 H 0.81786 0.93727 0.76669 0.0
C1130 C 0.71856 0.90587 0.78339 0.0
C1131 C 0.72429 0.90949 0.80307 0.0
C1132 C 0.73282 0.90414 0.76851 0.0
C1133 C 0.75299 0.90593 0.77313 0.0
C1134 C 0.75865 0.91032 0.79262 0.0
C1135 C 0.74443 0.91202 0.80748 0.0
C1136 C 0.76839 0.90195 0.75809 0.0
C1137 C 0.78225 0.91681 0.75387 0.0
C1138 C 0.76993 0.88337 0.74857 0.0
C1139 C 0.75565 0.86707 0.75223 0.0
C1140 C 0.75254 0.85971 0.77146 0.0
C1141 C 0.73875 0.84462 0.77473 0.0
C1142 C 0.7282 0.83658 0.75886 0.0
C1143 C 0.73142 0.8436 0.73967 0.0
C1144 C 0.7451 0.85877 0.73633 0.0
C1145 C 0.85408 0.88488 0.71985 0.0
C1146 C 0.85248 0.87387 0.7023 0.0
C1147 C 0.83713 0.89199 0.72927 0.0
C1148 C 0.81831 0.88864 0.72107 0.0
C1149 C 0.8168 0.87823 0.70312 0.0
C1150 C 0.83373 0.87082 0.69387 0.0
C1151 C 0.80024 0.89441 0.73216 0.0
C1152 C 0.78582 0.87986 0.73573 0.0
C1153 C 0.798 0.9134 0.74077 0.0
C1154 C 0.81162 0.93001 0.73604 0.0
C1155 C 0.81556 0.93511 0.71623 0.0
C1156 C 0.82842 0.9507 0.71183 0.0
C1157 C 0.83738 0.96139 0.72711 0.0
C1158 C 0.83345 0.95653 0.74683 0.0
C1159 C 0.82061 0.94094 0.75132 0.0
H1160 H 0.84733 0.97347 0.72366 0.0
H1161 H 0.71756 0.82489 0.76142 0.0
H1162 H 0.63172 0.0888 0.22019 0.0
H1163 H 0.65915 0.0813 0.24256 0.0
H1164 H 0.69959 0.11111 0.20321 0.0
H1165 H 0.67218 0.11893 0.18086 0.0
H1166 H 0.7154 0.0757 0.22542 0.0
H1167 H 0.68188 0.13896 0.23362 0.0
H1168 H 0.65174 0.15927 0.237 0.0
H1169 H 0.63601 0.12758 0.28981 0.0
H1170 H 0.66586 0.10678 0.28648 0.0
H1171 H 0.78945 0.1104 0.29152 0.0
H1172 H 0.76425 0.10748 0.26566 0.0
H1173 H 0.72088 0.09145 0.30972 0.0
H1174 H 0.74588 0.09471 0.33564 0.0
H1175 H 0.70617 0.1179 0.28492 0.0
H1176 H 0.74109 0.05663 0.27897 0.0
H1177 H 0.77034 0.03516 0.27529 0.0
H1178 H 0.78309 0.06169 0.21893 0.0
H1179 H 0.75405 0.08353 0.22241 0.0
C1180 C 0.64655 0.09315 0.21595 0.0
C1181 C 0.64982 0.10472 0.19898 0.0
C1182 C 0.66218 0.08885 0.22873 0.0
C1183 C 0.68126 0.09588 0.22457 0.0
C1184 C 0.68493 0.10556 0.2066 0.0
C1185 C 0.66926 0.11009 0.19392 0.0
C1186 C 0.69633 0.09635 0.24034 0.0
C1187 C 0.71354 0.08498 0.23839 0.0
C1188 C 0.69361 0.1083 0.25731 0.0
C1189 C 0.67597 0.12118 0.25968 0.0
C1190 C 0.67191 0.13622 0.24586 0.0
C1191 C 0.65489 0.14783 0.24777 0.0
C1192 C 0.64194 0.14468 0.26358 0.0
C1193 C 0.64603 0.12997 0.27755 0.0
C1194 C 0.663 0.11827 0.27566 0.0
C1195 C 0.77453 0.10629 0.29567 0.0
C1196 C 0.76961 0.10278 0.31557 0.0
C1197 C 0.76019 0.10449 0.28089 0.0
C1198 C 0.74075 0.09898 0.28575 0.0
C1199 C 0.73579 0.09567 0.30564 0.0
C1200 C 0.75009 0.09753 0.32042 0.0
C1201 C 0.72543 0.09716 0.27018 0.0
C1202 C 0.70811 0.10843 0.27209 0.0
C1203 C 0.72808 0.08504 0.25325 0.0
C1204 C 0.74549 0.07185 0.25104 0.0
C1205 C 0.75021 0.058 0.26586 0.0
C1206 C 0.76674 0.04574 0.2638 0.0
C1207 C 0.77859 0.0471 0.24691 0.0
C1208 C 0.7739 0.06067 0.23202 0.0
C1209 C 0.7574 0.07298 0.23402 0.0
H1210 H 0.79139 0.0376 0.24534 0.0
H1211 H 0.62877 0.15367 0.26503 0.0
H1212 H 0.33683 0.63924 0.30923 0.0
H1213 H 0.30805 0.6251 0.29253 0.0
H1214 H 0.34467 0.57884 0.26814 0.0
H1215 H 0.3736 0.59296 0.28481 0.0
H1216 H 0.32379 0.59875 0.23997 0.0
H1217 H 0.3098 0.56733 0.30177 0.0
H1218 H 0.30486 0.56544 0.33789 0.0
H1219 H 0.25594 0.60573 0.33362 0.0
H1220 H 0.26075 0.6081 0.29751 0.0
H1221 H 0.24315 0.56115 0.18678 0.0
H1222 H 0.26974 0.5611 0.21134 0.0
H1223 H 0.24003 0.60738 0.2438 0.0
H1224 H 0.21313 0.60712 0.2196 0.0
H1225 H 0.25827 0.58237 0.26877 0.0
H1226 H 0.27518 0.61857 0.20964 0.0
H1227 H 0.27989 0.623 0.17369 0.0
H1228 H 0.32324 0.57655 0.17337 0.0
H1229 H 0.31858 0.57168 0.2093 0.0
C1230 C 0.33869 0.62585 0.3006 0.0
C1231 C 0.35746 0.61726 0.2982 0.0
C1232 C 0.32221 0.61772 0.29116 0.0
C1233 C 0.32422 0.60086 0.27919 0.0
C1234 C 0.34282 0.59182 0.27738 0.0
C1235 C 0.35931 0.59989 0.28691 0.0
C1236 C 0.30738 0.5941 0.26692 0.0
C1237 C 0.3096 0.59466 0.24628 0.0
C1238 C 0.28873 0.58942 0.27519 0.0
C1239 C 0.28574 0.58799 0.29692 0.0
C1240 C 0.29808 0.57591 0.30854 0.0
C1241 C 0.29528 0.57473 0.32902 0.0
C1242 C 0.28012 0.58549 0.33805 0.0
C1243 C 0.26768 0.59741 0.32661 0.0
C1244 C 0.27043 0.59865 0.30613 0.0
C1245 C 0.24212 0.57105 0.19936 0.0
C1246 C 0.22624 0.58433 0.20117 0.0
C1247 C 0.25732 0.57102 0.21335 0.0
C1248 C 0.25704 0.58452 0.22916 0.0
C1249 C 0.24056 0.59689 0.23168 0.0
C1250 C 0.22524 0.59677 0.21781 0.0
C1251 C 0.2747 0.58717 0.24188 0.0
C1252 C 0.2726 0.586 0.26252 0.0
C1253 C 0.29345 0.59162 0.23367 0.0
C1254 C 0.29636 0.59461 0.21209 0.0
C1255 C 0.28561 0.60921 0.20187 0.0
C1256 C 0.28828 0.61182 0.18151 0.0
C1257 C 0.30181 0.60002 0.17124 0.0
C1258 C 0.31274 0.58565 0.18133 0.0
C1259 C 0.31009 0.58296 0.20169 0.0
H1260 H 0.30386 0.60206 0.15548 0.0
H1261 H 0.27797 0.58455 0.3539 0.0
H1262 H 0.26023 0.41952 0.68056 0.0
H1263 H 0.23233 0.42156 0.70351 0.0
H1264 H 0.26499 0.38743 0.74649 0.0
H1265 H 0.29298 0.38527 0.72356 0.0
H1266 H 0.22715 0.37341 0.74024 0.0
H1267 H 0.25892 0.43603 0.75329 0.0
H1268 H 0.27327 0.46827 0.74396 0.0
H1269 H 0.21731 0.48671 0.72022 0.0
H1270 H 0.20268 0.45445 0.72917 0.0
H1271 H 0.1657 0.37926 0.81997 0.0
H1272 H 0.19512 0.38965 0.80185 0.0
H1273 H 0.15843 0.41782 0.75787 0.0
H1274 H 0.12878 0.40763 0.77611 0.0
H1275 H 0.19782 0.43633 0.76453 0.0
H1276 H 0.16659 0.3742 0.74848 0.0
H1277 H 0.15065 0.34284 0.75825 0.0
H1278 H 0.20458 0.32371 0.78587 0.0
H1279 H 0.22068 0.35522 0.77669 0.0
C1280 C 0.2615 0.41253 0.69494 0.0
C1281 C 0.27874 0.4022 0.7003 0.0
C1282 C 0.24561 0.4138 0.70805 0.0
C1283 C 0.2467 0.40477 0.72672 0.0
C1284 C 0.26392 0.39453 0.73214 0.0
C1285 C 0.27988 0.39334 0.71907 0.0
C1286 C 0.22953 0.40525 0.74025 0.0
C1287 C 0.22095 0.38717 0.74575 0.0
C1288 C 0.22105 0.42324 0.74689 0.0
C1289 C 0.22975 0.44275 0.74175 0.0
C1290 C 0.24971 0.4469 0.74596 0.0
C1291 C 0.25789 0.46519 0.74075 0.0
C1292 C 0.24622 0.47951 0.73146 0.0
C1293 C 0.22633 0.4756 0.7274 0.0
C1294 C 0.21808 0.45732 0.73256 0.0
C1295 C 0.16389 0.38826 0.80682 0.0
C1296 C 0.14501 0.3923 0.79918 0.0
C1297 C 0.18071 0.39426 0.79654 0.0
C1298 C 0.17885 0.40417 0.7784 0.0
C1299 C 0.16009 0.41017 0.77187 0.0
C1300 C 0.1432 0.40426 0.78225 0.0
C1301 C 0.19583 0.40453 0.76468 0.0
C1302 C 0.20419 0.42265 0.75903 0.0
C1303 C 0.204 0.3866 0.75759 0.0
C1304 C 0.19477 0.36715 0.76209 0.0
C1305 C 0.17501 0.36335 0.75674 0.0
C1306 C 0.16592 0.34559 0.76223 0.0
C1307 C 0.17655 0.33136 0.77281 0.0
C1308 C 0.19634 0.3348 0.77776 0.0
C1309 C 0.20546 0.35261 0.77242 0.0
H1310 H 0.1695 0.3176 0.77702 0.0
H1311 H 0.25258 0.49366 0.72744 0.0
H1312 H 0.81264 0.74025 0.92901 0.0
H1313 H 0.78953 0.76812 0.92699 0.0
H1314 H 0.75857 0.73906 0.87931 0.0
H1315 H 0.78142 0.71101 0.88141 0.0
H1316 H 0.77199 0.7786 0.87137 0.0
H1317 H 0.73626 0.74164 0.92105 0.0
H1318 H 0.7327 0.72419 0.95291 0.0
H1319 H 0.74787 0.77744 0.98416 0.0
H1320 H 0.75181 0.79515 0.95245 0.0
H1321 H 0.69064 0.83847 0.85488 0.0
H1322 H 0.70901 0.8094 0.86576 0.0
H1323 H 0.73608 0.84359 0.91238 0.0
H1324 H 0.71776 0.87304 0.90144 0.0
H1325 H 0.72553 0.80267 0.92295 0.0
H1326 H 0.76238 0.83962 0.87586 0.0
H1327 H 0.76894 0.85826 0.84518 0.0
H1328 H 0.75509 0.80678 0.81055 0.0
H1329 H 0.7481 0.7879 0.84106 0.0
C1330 C 0.80074 0.7397 0.91827 0.0
C1331 C 0.79883 0.72354 0.9053 0.0
C1332 C 0.78754 0.75557 0.91721 0.0
C1333 C 0.77238 0.75555 0.90304 0.0
C1334 C 0.77018 0.73925 0.89037 0.0
C1335 C 0.7832 0.72327 0.8916 0.0
C1336 C 0.75981 0.77321 0.90032 0.0
C1337 C 0.76161 0.78369 0.88252 0.0
C1338 C 0.74698 0.78027 0.91529 0.0
C1339 C 0.74454 0.76966 0.93436 0.0
C1340 C 0.73903 0.74958 0.93471 0.0
C1341 C 0.7369 0.73966 0.95274 0.0
C1342 C 0.74011 0.74968 0.97055 0.0
C1343 C 0.74541 0.76968 0.97036 0.0
C1344 C 0.74757 0.77967 0.95235 0.0
C1345 C 0.70021 0.83977 0.86768 0.0
C1346 C 0.70296 0.85807 0.87718 0.0
C1347 C 0.71067 0.82314 0.87387 0.0
C1348 C 0.72402 0.82447 0.8897 0.0
C1349 C 0.72582 0.84235 0.90013 0.0
C1350 C 0.71541 0.85912 0.89383 0.0
C1351 C 0.73741 0.8077 0.8938 0.0
C1352 C 0.73588 0.79751 0.91183 0.0
C1353 C 0.75083 0.80104 0.8792 0.0
C1354 C 0.75452 0.81241 0.86075 0.0
C1355 C 0.76048 0.83234 0.8617 0.0
C1356 C 0.76433 0.84293 0.84435 0.0
C1357 C 0.76245 0.8337 0.82595 0.0
C1358 C 0.75656 0.8139 0.82484 0.0
C1359 C 0.75265 0.80324 0.84216 0.0
H1360 H 0.76566 0.84187 0.81257 0.0
H1361 H 0.73845 0.74197 0.9845 0.0
H1362 H 0.21473 0.63213 0.09818 0.0
H1363 H 0.23147 0.66143 0.08472 0.0
H1364 H 0.22448 0.69123 0.14079 0.0
H1365 H 0.20773 0.6622 0.15423 0.0
H1366 H 0.21806 0.7163 0.10968 0.0
H1367 H 0.26688 0.66825 0.13052 0.0
H1368 H 0.28292 0.63546 0.13072 0.0
H1369 H 0.29438 0.64037 0.06837 0.0
H1370 H 0.27817 0.67312 0.06777 0.0
H1371 H 0.29815 0.78278 0.12 0.0
H1372 H 0.27295 0.75692 0.12197 0.0
H1373 H 0.288 0.73745 0.06303 0.0
H1374 H 0.31334 0.7633 0.06097 0.0
H1375 H 0.28807 0.70726 0.08958 0.0
H1376 H 0.24393 0.75897 0.07102 0.0
H1377 H 0.22874 0.79212 0.07245 0.0
H1378 H 0.20912 0.78091 0.13186 0.0
H1379 H 0.22444 0.7478 0.13091 0.0
C1380 C 0.21656 0.64504 0.10752 0.0
C1381 C 0.2101 0.64485 0.12729 0.0
C1382 C 0.22612 0.66173 0.09984 0.0
C1383 C 0.22934 0.67842 0.11183 0.0
C1384 C 0.22211 0.67853 0.13128 0.0
C1385 C 0.21264 0.66188 0.13897 0.0
C1386 C 0.24148 0.69526 0.1048 0.0
C1387 C 0.23337 0.71438 0.10528 0.0
C1388 C 0.26132 0.69264 0.09871 0.0
C1389 C 0.2711 0.67299 0.09905 0.0
C1390 C 0.27268 0.66226 0.11682 0.0
C1391 C 0.28182 0.6437 0.11702 0.0
C1392 C 0.2896 0.63581 0.09955 0.0
C1393 C 0.2883 0.64649 0.08187 0.0
C1394 C 0.27914 0.66505 0.0816 0.0
C1395 C 0.29588 0.7732 0.10733 0.0
C1396 C 0.30774 0.775 0.09036 0.0
C1397 C 0.28141 0.75849 0.10844 0.0
C1398 C 0.27852 0.74536 0.09258 0.0
C1399 C 0.28997 0.74748 0.07539 0.0
C1400 C 0.3044 0.76226 0.07424 0.0
C1401 C 0.26479 0.72841 0.09477 0.0
C1402 C 0.27262 0.70922 0.09348 0.0
C1403 C 0.24477 0.73103 0.10029 0.0
C1404 C 0.23546 0.75093 0.10092 0.0
C1405 C 0.23651 0.76362 0.08445 0.0
C1406 C 0.22785 0.7824 0.08516 0.0
C1407 C 0.218 0.78863 0.10225 0.0
C1408 C 0.21676 0.77607 0.11864 0.0
C1409 C 0.2254 0.75728 0.118 0.0
H1410 H 0.21131 0.80317 0.10277 0.0
H1411 H 0.29668 0.62144 0.09973 0.0
H1412 H 0.31144 0.32696 0.65435 0.0
H1413 H 0.29361 0.2989 0.64018 0.0
H1414 H 0.27646 0.33485 0.59024 0.0
H1415 H 0.29421 0.3631 0.60444 0.0
H1416 H 0.24513 0.31765 0.60823 0.0
H1417 H 0.30806 0.29647 0.58391 0.0
H1418 H 0.34351 0.28816 0.58589 0.0
H1419 H 0.33073 0.24207 0.62777 0.0
H1420 H 0.29522 0.25028 0.62626 0.0
H1421 H 0.19078 0.24102 0.5645 0.0
H1422 H 0.21715 0.26543 0.56842 0.0
H1423 H 0.23872 0.23408 0.61973 0.0
H1424 H 0.21255 0.20932 0.61565 0.0
H1425 H 0.26909 0.24904 0.59758 0.0
H1426 H 0.20809 0.27245 0.62573 0.0
H1427 H 0.17253 0.28062 0.6257 0.0
H1428 H 0.18188 0.32256 0.57884 0.0
H1429 H 0.21748 0.31444 0.57842 0.0
C1430 C 0.30417 0.3288 0.64018 0.0
C1431 C 0.30407 0.34724 0.63055 0.0
C1432 C 0.29409 0.31271 0.63204 0.0
C1433 C 0.28381 0.31478 0.61411 0.0
C1434 C 0.28436 0.33297 0.60407 0.0
C1435 C 0.2945 0.34906 0.61218 0.0
C1436 C 0.27072 0.29868 0.6071 0.0
C1437 C 0.25045 0.30276 0.60543 0.0
C1438 C 0.27761 0.27911 0.60415 0.0
C1439 C 0.29897 0.2741 0.60507 0.0
C1440 C 0.31281 0.28467 0.59366 0.0
C1441 C 0.33292 0.27995 0.59468 0.0
C1442 C 0.33937 0.26462 0.60698 0.0
C1443 C 0.32571 0.25395 0.61825 0.0
C1444 C 0.30559 0.25861 0.6173 0.0
C1445 C 0.20131 0.23917 0.57646 0.0
C1446 C 0.1995 0.22344 0.58994 0.0
C1447 C 0.21635 0.25312 0.57867 0.0
C1448 C 0.22966 0.25172 0.59455 0.0
C1449 C 0.22856 0.23543 0.60739 0.0
C1450 C 0.21357 0.22136 0.6051 0.0
C1451 C 0.24359 0.26809 0.59873 0.0
C1452 C 0.2639 0.26403 0.60002 0.0
C1453 C 0.23677 0.28769 0.60161 0.0
C1454 C 0.21539 0.29268 0.60189 0.0
C1455 C 0.20253 0.28331 0.61532 0.0
C1456 C 0.18238 0.28794 0.6154 0.0
C1457 C 0.17494 0.30206 0.60223 0.0
C1458 C 0.18766 0.3116 0.589 0.0
C1459 C 0.20782 0.307 0.58884 0.0
H1460 H 0.15934 0.30563 0.60232 0.0
H1461 H 0.35494 0.26099 0.60774 0.0
H1462 H 0.70048 0.29641 0.38733 0.0
H1463 H 0.72841 0.2734 0.38964 0.0
H1464 H 0.68892 0.22729 0.40944 0.0
H1465 H 0.66102 0.25016 0.40724 0.0
H1466 H 0.72346 0.22855 0.43132 0.0
H1467 H 0.70401 0.22673 0.36197 0.0
H1468 H 0.69682 0.24115 0.32921 0.0
H1469 H 0.75487 0.26691 0.32741 0.0
H1470 H 0.76247 0.25243 0.36012 0.0
H1471 H 0.76822 0.13764 0.40503 0.0
H1472 H 0.74919 0.16725 0.41311 0.0
H1473 H 0.79465 0.20379 0.38703 0.0
H1474 H 0.81345 0.17414 0.37839 0.0
H1475 H 0.76096 0.2114 0.3706 0.0
H1476 H 0.78252 0.20666 0.43732 0.0
H1477 H 0.78963 0.19081 0.46942 0.0
H1478 H 0.728 0.17735 0.47686 0.0
H1479 H 0.72053 0.19287 0.44467 0.0
C1480 C 0.69779 0.28137 0.39217 0.0
C1481 C 0.67858 0.27504 0.39701 0.0
C1482 C 0.71373 0.26826 0.3935 0.0
C1483 C 0.71069 0.24865 0.39967 0.0
C1484 C 0.69157 0.24239 0.40474 0.0
C1485 C 0.67564 0.25544 0.40334 0.0
C1486 C 0.72725 0.23434 0.4002 0.0
C1487 C 0.73167 0.22469 0.41807 0.0
C1488 C 0.7383 0.22981 0.38305 0.0
C1489 C 0.73371 0.23872 0.36354 0.0
C1490 C 0.71517 0.2356 0.35464 0.0
C1491 C 0.71104 0.24375 0.33607 0.0
C1492 C 0.72531 0.25509 0.3263 0.0
C1493 C 0.74381 0.25818 0.33502 0.0
C1494 C 0.74806 0.24995 0.35354 0.0
C1495 C 0.77443 0.15201 0.40156 0.0
C1496 C 0.79218 0.1536 0.39089 0.0
C1497 C 0.76357 0.16897 0.40626 0.0
C1498 C 0.77047 0.18779 0.40066 0.0
C1499 C 0.78899 0.18943 0.39141 0.0
C1500 C 0.79974 0.17248 0.38652 0.0
C1501 C 0.75713 0.2052 0.40171 0.0
C1502 C 0.75319 0.21546 0.38406 0.0
C1503 C 0.74658 0.21023 0.4191 0.0
C1504 C 0.75099 0.20083 0.43849 0.0
C1505 C 0.7705 0.20018 0.44572 0.0
C1506 C 0.77459 0.19128 0.46395 0.0
C1507 C 0.75929 0.18305 0.47515 0.0
C1508 C 0.73985 0.18373 0.46816 0.0
C1509 C 0.73567 0.19261 0.44993 0.0
H1510 H 0.76249 0.17617 0.48927 0.0
H1511 H 0.72207 0.2614 0.31193 0.0
H1512 H 0.14298 0.20629 0.5197 0.0
H1513 H 0.13055 0.20122 0.4862 0.0
H1514 H 0.08451 0.16318 0.50883 0.0
H1515 H 0.09694 0.16828 0.54263 0.0
H1516 H 0.10673 0.14592 0.47923 0.0
H1517 H 0.07159 0.20622 0.48868 0.0
H1518 H 0.06704 0.24109 0.49846 0.0
H1519 H 0.10954 0.25926 0.45485 0.0
H1520 H 0.11457 0.22447 0.44499 0.0
H1521 H 0.07619 0.13082 0.37961 0.0
H1522 H 0.07583 0.13887 0.4149 0.0
H1523 H 0.11868 0.1852 0.40479 0.0
H1524 H 0.11846 0.17771 0.36936 0.0
H1525 H 0.09176 0.19778 0.42943 0.0
H1526 H 0.13111 0.13823 0.42401 0.0
H1527 H 0.13769 0.10352 0.41476 0.0
H1528 H 0.08937 0.08425 0.45126 0.0
H1529 H 0.08235 0.11889 0.46053 0.0
C1530 C 0.12998 0.19714 0.5176 0.0
C1531 C 0.12095 0.1876 0.53371 0.0
C1532 C 0.12282 0.19434 0.49846 0.0
C1533 C 0.10655 0.18192 0.49507 0.0
C1534 C 0.09705 0.1729 0.5112 0.0
C1535 C 0.1041 0.17586 0.53045 0.0
C1536 C 0.10097 0.17691 0.47449 0.0
C1537 C 0.10295 0.15717 0.4684 0.0
C1538 C 0.09658 0.19171 0.46036 0.0
C1539 C 0.09353 0.21269 0.46617 0.0
C1540 C 0.08008 0.21763 0.48127 0.0
C1541 C 0.07739 0.23739 0.48681 0.0
C1542 C 0.08801 0.25237 0.4773 0.0
C1543 C 0.10132 0.24763 0.4622 0.0
C1544 C 0.10406 0.2279 0.45661 0.0
C1545 C 0.08556 0.1427 0.38495 0.0
C1546 C 0.09748 0.15356 0.37182 0.0
C1547 C 0.08536 0.14726 0.40511 0.0
C1548 C 0.09743 0.16246 0.41255 0.0
C1549 C 0.10922 0.17342 0.39939 0.0
C1550 C 0.10918 0.16907 0.37918 0.0
C1551 C 0.09806 0.16685 0.43406 0.0
C1552 C 0.09516 0.18646 0.44031 0.0
C1553 C 0.10184 0.15197 0.44834 0.0
C1554 C 0.10606 0.13115 0.44277 0.0
C1555 C 0.12179 0.1266 0.42994 0.0
C1556 C 0.12562 0.10694 0.42472 0.0
C1557 C 0.11392 0.0917 0.43237 0.0
C1558 C 0.0984 0.09608 0.44531 0.0
C1559 C 0.09449 0.11571 0.45056 0.0
H1560 H 0.11691 0.07649 0.42831 0.0
H1561 H 0.08592 0.26766 0.48162 0.0
H1562 H 0.40131 0.84869 0.04754 0.0
H1563 H 0.41229 0.85619 0.01382 0.0
H1564 H 0.39714 0.79687 0.99563 0.0
H1565 H 0.38626 0.78925 0.02925 0.0
H1566 H 0.43059 0.81176 0.97604 0.0
H1567 H 0.36367 0.8323 0.99363 0.0
H1568 H 0.33961 0.85094 0.01376 0.0
H1569 H 0.36737 0.90559 0.99696 0.0
H1570 H 0.39199 0.88722 0.97723 0.0
H1571 H 0.40064 0.81671 0.8761 0.0
H1572 H 0.40354 0.81204 0.91191 0.0
H1573 H 0.41179 0.87494 0.91959 0.0
H1574 H 0.40848 0.87974 0.88388 0.0
H1575 H 0.38616 0.86162 0.94545 0.0
H1576 H 0.45056 0.84279 0.92495 0.0
H1577 H 0.47571 0.82524 0.9052 0.0
H1578 H 0.45438 0.76945 0.92696 0.0
H1579 H 0.4289 0.78664 0.94663 0.0
C1580 C 0.40087 0.83708 0.03649 0.0
C1581 C 0.39265 0.81848 0.0409 0.0
C1582 C 0.40711 0.8414 0.01725 0.0
C1583 C 0.40518 0.82717 0.00221 0.0
C1584 C 0.39868 0.80805 0.00702 0.0
C1585 C 0.39239 0.80375 0.02622 0.0
C1586 C 0.40723 0.83278 0.98114 0.0
C1587 C 0.4209 0.82263 0.96928 0.0
C1588 C 0.39487 0.84734 0.97252 0.0
C1589 C 0.37986 0.85836 0.98419 0.0
C1590 C 0.36478 0.84827 0.9944 0.0
C1591 C 0.35105 0.85879 0.00576 0.0
C1592 C 0.35205 0.87943 0.00677 0.0
C1593 C 0.36672 0.88959 0.99632 0.0
C1594 C 0.38058 0.87914 0.98507 0.0
C1595 C 0.4031 0.82953 0.88544 0.0
C1596 C 0.40427 0.84859 0.87724 0.0
C1597 C 0.40491 0.82683 0.90587 0.0
C1598 C 0.40815 0.84312 0.9184 0.0
C1599 C 0.40934 0.86216 0.9102 0.0
C1600 C 0.40743 0.86488 0.8898 0.0
C1601 C 0.40935 0.84037 0.94014 0.0
C1602 C 0.39618 0.85101 0.95216 0.0
C1603 C 0.42233 0.82644 0.94889 0.0
C1604 C 0.43771 0.81601 0.93717 0.0
C1605 C 0.45113 0.82677 0.92542 0.0
C1606 C 0.46546 0.81689 0.91425 0.0
C1607 C 0.46662 0.79624 0.91479 0.0
C1608 C 0.45346 0.78544 0.92654 0.0
C1609 C 0.43909 0.79525 0.93773 0.0
H1610 H 0.47772 0.78862 0.90613 0.0
H1611 H 0.34141 0.88756 0.01557 0.0
H1612 H 0.6355 0.29511 0.46433 0.0
H1613 H 0.6295 0.30164 0.49938 0.0
H1614 H 0.58118 0.34041 0.48402 0.0
H1615 H 0.58697 0.33367 0.44873 0.0
H1616 H 0.61102 0.3577 0.50811 0.0
H1617 H 0.5699 0.30023 0.5075 0.0
H1618 H 0.56122 0.26555 0.50017 0.0
H1619 H 0.60927 0.24548 0.53658 0.0
H1620 H 0.61843 0.28005 0.54391 0.0
H1621 H 0.5947 0.37777 0.61034 0.0
H1622 H 0.59087 0.36963 0.57531 0.0
H1623 H 0.63063 0.32013 0.58243 0.0
H1624 H 0.63385 0.32776 0.61768 0.0
H1625 H 0.60014 0.30899 0.56198 0.0
H1626 H 0.64432 0.36478 0.55913 0.0
H1627 H 0.6554 0.39897 0.56559 0.0
H1628 H 0.60455 0.4216 0.53493 0.0
H1629 H 0.59303 0.38752 0.52851 0.0
C1630 C 0.62331 0.30467 0.46845 0.0
C1631 C 0.61172 0.31395 0.45391 0.0
C1632 C 0.61986 0.30833 0.48844 0.0
C1633 C 0.60489 0.32147 0.49422 0.0
C1634 C 0.59275 0.33017 0.47977 0.0
C1635 C 0.596 0.32625 0.4597 0.0
C1636 C 0.6035 0.32755 0.51517 0.0
C1637 C 0.60818 0.3472 0.51993 0.0
C1638 C 0.60043 0.31361 0.53046 0.0
C1639 C 0.59492 0.29277 0.52616 0.0
C1640 C 0.57871 0.28843 0.51383 0.0
C1641 C 0.57369 0.26878 0.5097 0.0
C1642 C 0.58471 0.25332 0.51788 0.0
C1643 C 0.60075 0.25747 0.53025 0.0
C1644 C 0.60584 0.2771 0.53443 0.0
C1645 C 0.6028 0.36529 0.60437 0.0
C1646 C 0.61464 0.35342 0.61667 0.0
C1647 C 0.60061 0.36066 0.58434 0.0
C1648 C 0.61059 0.34437 0.57618 0.0
C1649 C 0.62273 0.33273 0.58841 0.0
C1650 C 0.62466 0.33717 0.6085 0.0
C1651 C 0.60809 0.33911 0.55501 0.0
C1652 C 0.6027 0.31961 0.5502 0.0
C1653 C 0.61082 0.35312 0.53965 0.0
C1654 C 0.6177 0.37361 0.54355 0.0
C1655 C 0.63541 0.37705 0.55392 0.0
C1656 C 0.64179 0.39641 0.55754 0.0
C1657 C 0.63065 0.41245 0.55073 0.0
C1658 C 0.61314 0.40916 0.54023 0.0
C1659 C 0.60669 0.38983 0.53658 0.0
H1660 H 0.63562 0.42742 0.55354 0.0
H1661 H 0.5808 0.23811 0.51466 0.0
H1662 H 0.89846 0.67844 0.12357 0.0
H1663 H 0.89473 0.68255 0.08781 0.0
H1664 H 0.9071 0.62045 0.07928 0.0
H1665 H 0.91034 0.61615 0.11511 0.0
H1666 H 0.9173 0.67741 0.05581 0.0
H1667 H 0.8776 0.60328 0.04222 0.0
H1668 H 0.85787 0.57852 0.06046 0.0
H1669 H 0.83798 0.62356 0.10067 0.0
H1670 H 0.85738 0.64861 0.08252 0.0
H1671 H 0.89569 0.6676 0.95151 0.0
H1672 H 0.90788 0.6612 0.98517 0.0
H1673 H 0.84894 0.66982 0.00813 0.0
H1674 H 0.83671 0.67587 0.97478 0.0
H1675 H 0.86501 0.63742 0.02326 0.0
H1676 H 0.88451 0.70546 0.01254 0.0
H1677 H 0.90167 0.73258 0.99512 0.0
H1678 H 0.95751 0.70392 0.00492 0.0
H1679 H 0.94063 0.67649 0.02218 0.0
C1680 C 0.90051 0.6657 0.11406 0.0
C1681 C 0.90443 0.64693 0.1221 0.0
C1682 C 0.8985 0.66808 0.09363 0.0
C1683 C 0.90042 0.65177 0.08091 0.0
C1684 C 0.90527 0.63318 0.08886 0.0
C1685 C 0.90711 0.63075 0.10931 0.0
C1686 C 0.89592 0.65404 0.05957 0.0
C1687 C 0.90599 0.66856 0.04863 0.0
C1688 C 0.88104 0.64261 0.05025 0.0
C1689 C 0.86914 0.62774 0.06116 0.0
C1690 C 0.86897 0.60789 0.05493 0.0
C1691 C 0.85785 0.59381 0.06525 0.0
C1692 C 0.84674 0.59945 0.08176 0.0
C1693 C 0.84666 0.6192 0.08793 0.0
C1694 C 0.85773 0.63333 0.07764 0.0
C1695 C 0.8854 0.6682 0.96379 0.0
C1696 C 0.86526 0.67221 0.96055 0.0
C1697 C 0.89237 0.66457 0.98297 0.0
C1698 C 0.8793 0.66505 -0.00087 0.0
C1699 C 0.85925 0.66924 0.99586 0.0
C1700 C 0.8523 0.67278 0.97679 0.0
C1701 C 0.88616 0.66101 0.01955 0.0
C1702 C 0.87657 0.64605 0.03031 0.0
C1703 C 0.90115 0.67234 0.02877 0.0
C1704 C 0.9113 0.68882 0.01843 0.0
C1705 C 0.90043 0.70486 0.01083 0.0
C1706 C 0.91011 0.7203 0.00101 0.0
C1707 C 0.93066 0.71994 0.99886 0.0
C1708 C 0.94159 0.70416 0.00656 0.0
C1709 C 0.93198 0.68867 0.01637 0.0
H1710 H 0.93813 0.73191 0.99126 0.0
H1711 H 0.83816 0.58852 0.08974 0.0
H1712 H 0.38296 0.11112 0.12495 0.0
H1713 H 0.41849 0.11453 0.13034 0.0
H1714 H 0.41319 0.08345 0.18595 0.0
H1715 H 0.37739 0.08079 0.18099 0.0
H1716 H 0.43702 0.11294 0.19054 0.0
H1717 H 0.43231 0.06102 0.143 0.0
H1718 H 0.42159 0.04443 0.1123 0.0
H1719 H 0.45082 0.08895 0.0776 0.0
H1720 H 0.46149 0.10598 0.1081 0.0
H1721 H 0.54319 0.09749 0.19379 0.0
H1722 H 0.50773 0.08989 0.19077 0.0
H1723 H 0.50183 0.13506 0.14602 0.0
H1724 H 0.53696 0.14308 0.14932 0.0
H1725 H 0.48453 0.09513 0.13744 0.0
H1726 H 0.48657 0.14794 0.18634 0.0
H1727 H 0.49795 0.16309 0.21756 0.0
H1728 H 0.47438 0.11398 0.25034 0.0
H1729 H 0.46313 0.09839 0.21925 0.0
C1730 C 0.38938 0.105 0.13831 0.0
C1731 C 0.37749 0.0956 0.15251 0.0
C1732 C 0.40971 0.10684 0.14133 0.0
C1733 C 0.4186 0.09886 0.15835 0.0
C1734 C 0.40667 0.08964 0.17266 0.0
C1735 C 0.38626 0.0881 0.16981 0.0
C1736 C 0.44029 0.10049 0.16129 0.0
C1737 C 0.44739 0.10869 0.17904 0.0
C1738 C 0.45389 0.09511 0.14625 0.0
C1739 C 0.44757 0.08486 0.12785 0.0
C1740 C 0.43634 0.06735 0.12883 0.0
C1741 C 0.43028 0.05786 0.11146 0.0
C1742 C 0.43548 0.06565 0.09301 0.0
C1743 C 0.44679 0.08294 0.0919 0.0
C1744 C 0.45286 0.0925 0.10922 0.0
C1745 C 0.53428 0.10575 0.18332 0.0
C1746 C 0.54269 0.12091 0.17185 0.0
C1747 C 0.51412 0.10143 0.18164 0.0
C1748 C 0.50231 0.11197 0.1682 0.0
C1749 C 0.51079 0.1268 0.15646 0.0
C1750 C 0.53079 0.13141 0.15843 0.0
C1751 C 0.481 0.10778 0.16644 0.0
C1752 C 0.47406 0.0991 0.14894 0.0
C1753 C 0.4676 0.11246 0.18177 0.0
C1754 C 0.47424 0.12188 0.20046 0.0
C1755 C 0.484 0.14027 0.20019 0.0
C1756 C 0.49038 0.14896 0.21786 0.0
C1757 C 0.48695 0.13947 0.23592 0.0
C1758 C 0.47707 0.1213 0.23634 0.0
C1759 C 0.47068 0.11253 0.2187 0.0
H1760 H 0.4919 0.14622 0.24958 0.0
H1761 H 0.43078 0.05828 0.07958 0.0
H1762 H 0.97241 0.84047 0.67064 0.0
H1763 H 0.00604 0.85339 0.66945 0.0
H1764 H 0.98436 0.91199 0.68264 0.0
H1765 H 0.95038 0.89913 0.6836 0.0
H1766 H 0.01198 0.91252 0.65335 0.0
H1767 H 0.00681 0.88648 0.71846 0.0
H1768 H 0.99843 0.86183 0.74404 0.0
H1769 H 0.04013 0.82103 0.71887 0.0
H1770 H 0.04855 0.84533 0.69295 0.0
H1771 H 0.12307 0.91339 0.68953 0.0
H1772 H 0.08758 0.91124 0.69627 0.0
H1773 H 0.07677 0.89704 0.6349 0.0
H1774 H 0.11215 0.89956 0.628 0.0
H1775 H 0.06434 0.8804 0.69362 0.0
H1776 H 0.03195 0.91328 0.62063 0.0
H1777 H 0.03997 0.93957 0.5966 0.0
H1778 H 0.07305 0.97063 0.64112 0.0
H1779 H 0.065 0.94469 0.6655 0.0
C1780 C 0.97475 0.85612 0.6733 0.0
C1781 C 0.9588 0.8688 0.67732 0.0
C1782 C 0.99399 0.86345 0.67269 0.0
C1783 C 0.99769 0.88357 0.67627 0.0
C1784 C 0.98177 0.89639 0.67994 0.0
C1785 C 0.96243 0.88904 0.68053 0.0
C1786 C 0.01827 0.89098 0.67599 0.0
C1787 C 0.02345 0.90565 0.66224 0.0
C1788 C 0.03309 0.88233 0.68799 0.0
C1789 C 0.02824 0.86772 0.70369 0.0
C1790 C 0.01411 0.87221 0.7183 0.0
C1791 C 0.00936 0.8583 0.73287 0.0
C1792 C 0.01873 0.83987 0.73306 0.0
C1793 C 0.03289 0.83532 0.71871 0.0
C1794 C 0.03768 0.84917 0.70409 0.0
C1795 C 0.11309 0.90998 0.67745 0.0
C1796 C 0.12034 0.9066 0.65825 0.0
C1797 C 0.09284 0.90876 0.68132 0.0
C1798 C 0.07951 0.90419 0.66606 0.0
C1799 C 0.08674 0.90098 0.64683 0.0
C1800 C 0.10696 0.90228 0.64293 0.0
C1801 C 0.05822 0.90142 0.67041 0.0
C1802 C 0.0529 0.88757 0.68493 0.0
C1803 C 0.04327 0.91111 0.65938 0.0
C1804 C 0.04798 0.92694 0.64486 0.0
C1805 C 0.04084 0.92577 0.62533 0.0
C1806 C 0.04542 0.94061 0.61164 0.0
C1807 C 0.05705 0.95674 0.61732 0.0
C1808 C 0.06409 0.9581 0.63672 0.0
C1809 C 0.05955 0.94331 0.65048 0.0
H1810 H 0.06059 0.9682 0.60669 0.0
H1811 H 0.01502 0.82911 0.74435 0.0
H1812 H 0.0285 0.35862 0.79697 0.0
H1813 H 0.9937 0.36547 0.80398 0.0
H1814 H 0.0108 0.40469 0.85141 0.0
H1815 H 0.04577 0.39807 0.8443 0.0
H1816 H 0.98356 0.3746 0.8623 0.0
H1817 H 0.99092 0.42485 0.81299 0.0
H1818 H 0.00065 0.43855 0.78059 0.0
H1819 H 0.96084 0.39857 0.75132 0.0
H1820 H 0.95107 0.38442 0.78353 0.0
H1821 H 0.88309 0.40073 0.88183 0.0
H1822 H 0.91874 0.40092 0.87567 0.0
H1823 H 0.90934 0.37042 0.82028 0.0
H1824 H 0.87367 0.37085 0.82605 0.0
H1825 H 0.93357 0.39979 0.8148 0.0
H1826 H 0.92858 0.34713 0.86251 0.0
H1827 H 0.91931 0.33162 0.89424 0.0
H1828 H 0.95491 0.37385 0.92571 0.0
H1829 H 0.9642 0.38978 0.89417 0.0
C1830 C 0.02485 0.36898 0.80865 0.0
C1831 C 0.03977 0.3778 0.82012 0.0
C1832 C 0.005 0.37291 0.81261 0.0
C1833 C -0.00024 0.38559 0.82819 0.0
C1834 C 0.01463 0.39488 0.83931 0.0
C1835 C 0.03453 0.39117 0.83517 0.0
C1836 C 0.97875 0.38781 0.83369 0.0
C1837 C 0.97262 0.38048 0.85212 0.0
C1838 C 0.96457 0.39496 0.82011 0.0
C1839 C 0.97037 0.40347 0.80069 0.0
C1840 C 0.98436 0.41886 0.79964 0.0
C1841 C 0.98985 0.42673 0.78131 0.0
C1842 C 0.9814 0.41941 0.7639 0.0
C1843 C 0.96738 0.40423 0.76481 0.0
C1844 C 0.96184 0.39629 0.7831 0.0
C1845 C 0.88868 0.39387 0.86846 0.0
C1846 C 0.87567 0.38576 0.85442 0.0
C1847 C 0.90904 0.39395 0.86497 0.0
C1848 C 0.91673 0.38557 0.84756 0.0
C1849 C 0.90373 0.37705 0.83376 0.0
C1850 C 0.88338 0.37721 0.83712 0.0
C1851 C 0.93822 0.3862 0.84332 0.0
C1852 C 0.94447 0.39409 0.82512 0.0
C1853 C 0.9525 0.37932 0.85702 0.0
C1854 C 0.9469 0.36979 0.876 0.0
C1855 C 0.9343 0.35321 0.87621 0.0
C1856 C 0.92906 0.34433 0.89415 0.0
C1857 C 0.93646 0.35178 0.91198 0.0
C1858 C 0.94916 0.36811 0.91189 0.0
C1859 C 0.95442 0.37707 0.89399 0.0
H1860 H 0.9324 0.34488 0.92586 0.0
H1861 H 0.98567 0.42553 0.74972 0.0
H1862 H 0.47782 0.65483 0.3269 0.0
H1863 H 0.51223 0.64445 0.32465 0.0
H1864 H 0.49379 0.58661 0.30476 0.0
H1865 H 0.45902 0.59689 0.30726 0.0
H1866 H 0.52303 0.58452 0.33257 0.0
H1867 H 0.51305 0.61816 0.27171 0.0
H1868 H 0.50159 0.64502 0.24982 0.0
H1869 H 0.541 0.68575 0.27857 0.0
H1870 H 0.5525 0.65922 0.30085 0.0
H1871 H 0.62709 0.56796 0.31867 0.0
H1872 H 0.59211 0.57078 0.30928 0.0
H1873 H 0.59085 0.63042 0.33213 0.0
H1874 H 0.62559 0.62768 0.3416 0.0
H1875 H 0.57108 0.62626 0.29585 0.0
H1876 H 0.57516 0.59429 0.36043 0.0
H1877 H 0.58631 0.56797 0.38315 0.0
H1878 H 0.55783 0.52419 0.3469 0.0
H1879 H 0.54673 0.55027 0.3238 0.0
C1880 C 0.48104 0.63989 0.32206 0.0
C1881 C 0.46576 0.62669 0.31717 0.0
C1882 C 0.50073 0.63401 0.32066 0.0
C1883 C 0.50555 0.6149 0.31415 0.0
C1884 C 0.49034 0.60148 0.30966 0.0
C1885 C 0.47054 0.60736 0.3111 0.0
C1886 C 0.52659 0.6091 0.31253 0.0
C1887 C 0.53349 0.59331 0.32412 0.0
C1888 C 0.54022 0.62068 0.3016 0.0
C1889 C 0.53358 0.63668 0.28803 0.0
C1890 C 0.5192 0.63286 0.27345 0.0
C1891 C 0.5127 0.64804 0.26096 0.0
C1892 C 0.52054 0.66709 0.26282 0.0
C1893 C 0.53495 0.67099 0.27714 0.0
C1894 C 0.54149 0.65587 0.28969 0.0
C1895 C 0.61937 0.58173 0.32145 0.0
C1896 C 0.62896 0.59758 0.33095 0.0
C1897 C 0.59945 0.58331 0.31611 0.0
C1898 C 0.58896 0.60079 0.32009 0.0
C1899 C 0.59875 0.61685 0.32888 0.0
C1900 C 0.61854 0.61522 0.33438 0.0
C1901 C 0.56747 0.60218 0.3164 0.0
C1902 C 0.56053 0.61714 0.30381 0.0
C1903 C 0.55381 0.58983 0.32636 0.0
C1904 C 0.56032 0.57418 0.34029 0.0
C1905 C 0.57141 0.57903 0.35723 0.0
C1906 C 0.5777 0.56417 0.37018 0.0
C1907 C 0.57282 0.54442 0.36645 0.0
C1908 C 0.56161 0.53949 0.34976 0.0
C1909 C 0.55532 0.55431 0.33673 0.0
H1910 H 0.57767 0.53296 0.37653 0.0
H1911 H 0.51547 0.67882 0.25315 0.0
H1912 H 0.19583 0.37445 0.09835 0.0
H1913 H 0.20144 0.41018 0.09965 0.0
H1914 H 0.13843 0.42016 0.10115 0.0
H1915 H 0.13269 0.38437 0.0997 0.0
H1916 H 0.15762 0.44573 0.07566 0.0
H1917 H 0.16429 0.42302 0.1429 0.0
H1918 H 0.17764 0.4022 0.16975 0.0
H1919 H 0.23627 0.4233 0.15737 0.0
H1920 H 0.2233 0.44406 0.13025 0.0
H1921 H 0.15306 0.54216 0.11775 0.0
H1922 H 0.15043 0.50771 0.10717 0.0
H1923 H 0.21392 0.50183 0.1102 0.0
H1924 H 0.21663 0.53624 0.12115 0.0
H1925 H 0.1963 0.47403 0.13131 0.0
H1926 H 0.18909 0.49918 0.06573 0.0
H1927 H 0.17548 0.52021 0.03919 0.0
H1928 H 0.11787 0.49504 0.04836 0.0
H1929 H 0.13107 0.47406 0.07517 0.0
C1930 C 0.18317 0.38425 0.09896 0.0
C1931 C 0.16382 0.37664 0.09907 0.0
C1932 C 0.1864 0.40464 0.0997 0.0
C1933 C 0.17035 0.41777 0.10063 0.0
C1934 C 0.151 0.41024 0.10041 0.0
C1935 C 0.14775 0.38982 0.09971 0.0
C1936 C 0.17377 0.43935 0.10239 0.0
C1937 C 0.16592 0.452 0.0879 0.0
C1938 C 0.18503 0.44738 0.1181 0.0
C1939 C 0.19285 0.43492 0.13441 0.0
C1940 C 0.18005 0.42309 0.14579 0.0
C1941 C 0.18754 0.41132 0.16108 0.0
C1942 C 0.2078 0.41138 0.16523 0.0
C1943 C 0.22059 0.42324 0.15412 0.0
C1944 C 0.21318 0.43502 0.1388 0.0
C1945 C 0.1665 0.53367 0.11572 0.0
C1946 C 0.18504 0.54182 0.12042 0.0
C1947 C 0.16498 0.51398 0.10959 0.0
C1948 C 0.18199 0.50219 0.10787 0.0
C1949 C 0.20061 0.51067 0.11147 0.0
C1950 C 0.20214 0.53033 0.11767 0.0
C1951 C 0.18014 0.48057 0.10457 0.0
C1952 C 0.18821 0.46785 0.11888 0.0
C1953 C 0.16907 0.47254 0.0887 0.0
C1954 C 0.16106 0.48515 0.07258 0.0
C1955 C 0.17349 0.49824 0.06221 0.0
C1956 C 0.16585 0.51013 0.04709 0.0
C1957 C 0.14582 0.50899 0.04212 0.0
C1958 C 0.13339 0.49592 0.05224 0.0
C1959 C 0.14094 0.48401 0.06738 0.0
H1960 H 0.13994 0.51821 0.0304 0.0
H1961 H 0.21357 0.40226 0.17707 0.0
H1962 H 0.69582 0.96331 0.89523 0.0
H1963 H 0.69373 0.99827 0.90498 0.0
H1964 H 0.66596 0.01204 0.84907 0.0
H1965 H 0.66861 0.97755 0.8391 0.0
H1966 H 0.69205 0.03907 0.85739 0.0
H1967 H 0.63958 0.0056 0.89365 0.0
H1968 H 0.62629 0.98115 0.91731 0.0
H1969 H 0.66181 0.00624 0.9637 0.0
H1970 H 0.67548 0.0307 0.94023 0.0
H1971 H 0.62989 0.12074 0.86901 0.0
H1972 H 0.64278 0.08706 0.86658 0.0
H1973 H 0.67718 0.09612 0.91961 0.0
H1974 H 0.66447 0.13011 0.92205 0.0
H1975 H 0.65471 0.05897 0.91743 0.0
H1976 H 0.70208 0.0966 0.8807 0.0
H1977 H 0.71294 0.12145 0.85627 0.0
H1978 H 0.68478 0.08854 0.80974 0.0
H1979 H 0.67347 0.06364 0.83393 0.0
C1980 C 0.68938 0.97388 0.88504 0.0
C1981 C 0.68235 0.96776 0.86644 0.0
C1982 C 0.68813 0.99379 0.89064 0.0
C1983 C 0.67953 0.00774 0.87782 0.0
C1984 C 0.67274 0.00159 0.85917 0.0
C1985 C 0.6742 0.98184 0.85352 0.0
C1986 C 0.67708 0.02876 0.88362 0.0
C1987 C 0.68387 0.0434 0.87052 0.0
C1988 C 0.66695 0.03446 0.90107 0.0
C1989 C 0.65873 0.01979 0.91515 0.0
C1990 C 0.64466 0.00579 0.90887 0.0
C1991 C 0.63705 0.99196 0.92224 0.0
C1992 C 0.64326 0.9921 0.94198 0.0
C1993 C 0.65705 0.00612 0.94839 0.0
C1994 C 0.66473 0.01997 0.93507 0.0
C1995 C 0.64016 0.11557 0.88019 0.0
C1996 C 0.64625 0.12803 0.89567 0.0
C1997 C 0.64754 0.09638 0.87875 0.0
C1998 C 0.66103 0.08926 0.89283 0.0
C1999 C 0.66683 0.10146 0.90859 0.0
C2000 C 0.65961 0.12082 0.90991 0.0
C2001 C 0.66896 0.06902 0.89076 0.0
C2002 C 0.66328 0.05461 0.90456 0.0
C2003 C 0.67989 0.06346 0.87383 0.0
C2004 C 0.68684 0.0783 0.85917 0.0
C2005 C 0.69808 0.09473 0.86528 0.0
C2006 C 0.70434 0.10881 0.85147 0.0
C2007 C 0.69953 0.10659 0.83147 0.0
C2008 C 0.6885 0.09024 0.82524 0.0
C2009 C 0.68218 0.07612 0.83899 0.0
H2010 H 0.70439 0.11751 0.8208 0.0
H2011 H 0.63734 0.98138 0.95232 0.0
H2012 H 0.81965 0.03593 0.34375 0.0
H2013 H 0.82035 0.00058 0.35067 0.0
H2014 H 0.80886 0.01217 0.41244 0.0
H2015 H 0.80849 0.04791 0.40562 0.0
H2016 H 0.83719 0.98428 0.40779 0.0
H2017 H 0.77203 0.99515 0.3835 0.0
H2018 H 0.74667 0.00813 0.36069 0.0
H2019 H 0.77077 0.97319 0.31338 0.0
H2020 H 0.79646 0.96021 0.33584 0.0
H2021 H 0.79715 0.87619 0.39766 0.0
H2022 H 0.79159 0.91197 0.39675 0.0
H2023 H 0.85299 0.92121 0.38191 0.0
H2024 H 0.85871 0.88549 0.38305 0.0
H2025 H 0.79527 0.9388 0.36807 0.0
H2026 H 0.86942 0.9629 0.40465 0.0
H2027 H 0.89327 0.94997 0.42909 0.0
H2028 H 0.84752 0.91484 0.45574 0.0
H2029 H 0.82333 0.92779 0.43168 0.0
C2030 C 0.81725 0.031 0.35883 0.0
C2031 C 0.81389 0.04466 0.37415 0.0
C2032 C 0.81758 0.01078 0.36274 0.0
C2033 C 0.81432 0.00375 0.38199 0.0
C2034 C 0.8113 0.01733 0.39745 0.0
C2035 C 0.81105 0.03769 0.39355 0.0
C2036 C 0.81425 0.98217 0.38574 0.0
C2037 C 0.82795 0.97432 0.39922 0.0
C2038 C 0.80186 0.96924 0.37486 0.0
C2039 C 0.78625 0.97679 0.36134 0.0
C2040 C 0.77199 0.99031 0.3682 0.0
C2041 C 0.75755 0.99766 0.35534 0.0
C2042 C 0.75713 0.99151 0.33559 0.0
C2043 C 0.77112 0.97795 0.32868 0.0
C2044 C 0.7856 0.97056 0.34148 0.0
C2045 C 0.80943 0.88585 0.39409 0.0
C2046 C 0.82838 0.87809 0.39049 0.0
C2047 C 0.80624 0.90626 0.39359 0.0
C2048 C 0.82194 0.91922 0.38958 0.0
C2049 C 0.84075 0.91146 0.38541 0.0
C2050 C 0.84396 0.89106 0.38593 0.0
C2051 C 0.81869 0.94088 0.38959 0.0
C2052 C 0.80436 0.94875 0.37682 0.0
C2053 C 0.83022 0.95379 0.40143 0.0
C2054 C 0.8446 0.94621 0.41623 0.0
C2055 C 0.86442 0.9525 0.4158 0.0
C2056 C 0.87801 0.94515 0.42958 0.0
C2057 C 0.87193 0.93155 0.44393 0.0
C2058 C 0.85222 0.92533 0.44458 0.0
C2059 C 0.83858 0.93266 0.43086 0.0
H2060 H 0.88247 0.92585 0.45456 0.0
H2061 H 0.74595 0.99723 0.32565 0.0
H2062 H 0.33925 0.46636 0.66741 0.0
H2063 H 0.33841 0.50097 0.65724 0.0
H2064 H 0.3178 0.48372 0.59928 0.0
H2065 H 0.31877 0.44879 0.60936 0.0
H2066 H 0.34618 0.51291 0.59762 0.0
H2067 H 0.2852 0.50149 0.63069 0.0
H2068 H 0.26353 0.48938 0.65743 0.0
H2069 H 0.29136 0.52915 0.69848 0.0
H2070 H 0.31343 0.54129 0.67204 0.0
H2071 H 0.3024 0.62015 0.60588 0.0
H2072 H 0.29872 0.58424 0.60901 0.0
H2073 H 0.36191 0.57835 0.61588 0.0
H2074 H 0.36572 0.61417 0.61247 0.0
H2075 H 0.30719 0.55986 0.63855 0.0
H2076 H 0.37731 0.53567 0.59467 0.0
H2077 H 0.39713 0.54725 0.56628 0.0
H2078 H 0.34669 0.57821 0.54319 0.0
H2079 H 0.32649 0.56658 0.57127 0.0
C2080 C 0.33464 0.46989 0.65244 0.0
C2081 C 0.32894 0.45491 0.63919 0.0
C2082 C 0.33411 0.48967 0.6467 0.0
C2083 C 0.32774 0.49487 0.62764 0.0
C2084 C 0.32267 0.47995 0.6141 0.0
C2085 C 0.3232 0.46006 0.61986 0.0
C2086 C 0.32614 0.516 0.6222 0.0
C2087 C 0.33759 0.5232 0.60647 0.0
C2088 C 0.31449 0.52926 0.63346 0.0
C2089 C 0.30106 0.52222 0.64939 0.0
C2090 C 0.28679 0.50757 0.64544 0.0
C2091 C 0.27442 0.50071 0.66055 0.0
C2092 C 0.27609 0.50846 0.67965 0.0
C2093 C 0.29009 0.52315 0.68367 0.0
C2094 C 0.30251 0.53005 0.66862 0.0
C2095 C 0.31549 0.61119 0.60806 0.0
C2096 C 0.33435 0.61992 0.6089 0.0
C2097 C 0.31337 0.5907 0.60985 0.0
C2098 C 0.33006 0.57863 0.6124 0.0
C2099 C 0.34887 0.58737 0.61353 0.0
C2100 C 0.35101 0.60784 0.61172 0.0
C2101 C 0.32783 0.55692 0.61442 0.0
C2102 C 0.31563 0.5496 0.62953 0.0
C2103 C 0.33846 0.54353 0.6023 0.0
C2104 C 0.35043 0.55037 0.58519 0.0
C2105 C 0.37042 0.54486 0.58349 0.0
C2106 C 0.38172 0.55145 0.56745 0.0
C2107 C 0.37319 0.5635 0.55297 0.0
C2108 C 0.3533 0.56893 0.55445 0.0
C2109 C 0.34193 0.56236 0.57044 0.0
H2110 H 0.38197 0.5686 0.54058 0.0
H2111 H 0.26651 0.50312 0.69133 0.0
H2112 H 0.84891 0.85104 0.46304 0.0
H2113 H 0.86167 0.85303 0.49681 0.0
H2114 H 0.90023 0.80346 0.48537 0.0
H2115 H 0.88767 0.80157 0.45125 0.0
H2116 H 0.87506 0.79991 0.51965 0.0
H2117 H 0.92168 0.84524 0.49148 0.0
H2118 H 0.9318 0.87371 0.471 0.0
H2119 H 0.89701 0.91261 0.50723 0.0
H2120 H 0.88647 0.88434 0.5278 0.0
H2121 H 0.91088 0.80842 0.61853 0.0
H2122 H 0.90931 0.80498 0.58248 0.0
H2123 H 0.87922 0.86121 0.57844 0.0
H2124 H 0.88143 0.86502 0.61431 0.0
H2125 H 0.90551 0.85916 0.55061 0.0
H2126 H 0.85465 0.81559 0.57492 0.0
H2127 H 0.84082 0.7881 0.59456 0.0
H2128 H 0.87952 0.74717 0.56516 0.0
H2129 H 0.89377 0.77449 0.54552 0.0
C2130 C 0.86031 0.84074 0.46762 0.0
C2131 C 0.86729 0.82611 0.45462 0.0
C2132 C 0.86763 0.84194 0.48687 0.0
C2133 C 0.88191 0.82843 0.49348 0.0
C2134 C 0.88925 0.81405 0.48043 0.0
C2135 C 0.88213 0.81303 0.461 0.0
C2136 C 0.8879 0.82862 0.5145 0.0
C2137 C 0.88219 0.81263 0.52642 0.0
C2138 C 0.89659 0.84551 0.52324 0.0
C2139 C 0.9032 0.86263 0.51113 0.0
C2140 C 0.9161 0.85985 0.49503 0.0
C2141 C 0.92192 0.87595 0.4834 0.0
C2142 C 0.91502 0.89495 0.48779 0.0
C2143 C 0.90234 0.89789 0.50386 0.0
C2144 C 0.89647 0.88183 0.51553 0.0
C2145 C 0.90389 0.82 0.60992 0.0
C2146 C 0.89619 0.83694 0.61918 0.0
C2147 C 0.90297 0.81801 0.58934 0.0
C2148 C 0.89397 0.83275 0.57775 0.0
C2149 C 0.88631 0.84968 0.58704 0.0
C2150 C 0.88747 0.8518 0.60755 0.0
C2151 C 0.89229 0.83059 0.55596 0.0
C2152 C 0.89877 0.84623 0.54387 0.0
C2153 C 0.88392 0.81353 0.54709 0.0
C2154 C 0.87545 0.79711 0.55895 0.0
C2155 C 0.86033 0.80075 0.57278 0.0
C2156 C 0.85239 0.7852 0.58388 0.0
C2157 C 0.85934 0.76591 0.58116 0.0
C2158 C 0.8742 0.76212 0.56729 0.0
C2159 C 0.88221 0.77763 0.55616 0.0
H2160 H 0.85316 0.75388 0.58976 0.0
H2161 H 0.91951 0.9074 0.47875 0.0
H2162 H 0.60953 0.20968 0.96338 0.0
H2163 H 0.60553 0.20115 0.99825 0.0
H2164 H 0.58285 0.14376 0.98182 0.0
H2165 H 0.58653 0.15235 0.94673 0.0
H2166 H 0.56602 0.15937 0.01756 0.0
H2167 H 0.62935 0.14629 0.98847 0.0
H2168 H 0.65889 0.15465 0.96876 0.0
H2169 H 0.67343 0.2011 0.00967 0.0
H2170 H 0.64373 0.19326 0.02943 0.0
H2171 H 0.59623 0.11385 0.1082 0.0
H2172 H 0.59332 0.12037 0.07263 0.0
H2173 H 0.61659 0.17919 0.08146 0.0
H2174 H 0.61952 0.17281 0.11697 0.0
H2175 H 0.63257 0.16009 0.04876 0.0
H2176 H 0.56838 0.17299 0.07755 0.0
H2177 H 0.53877 0.16412 0.09694 0.0
H2178 H 0.52612 0.11669 0.05653 0.0
H2179 H 0.55586 0.12508 0.03707 0.0
C2180 C 0.60309 0.19549 0.96717 0.0
C2181 C 0.59863 0.18154 0.95243 0.0
C2182 C 0.60083 0.19063 0.98708 0.0
C2183 C 0.59435 0.17168 0.99253 0.0
C2184 C 0.58797 0.15843 0.97785 0.0
C2185 C 0.59008 0.16336 0.95784 0.0
C2186 C 0.59707 0.16491 0.01314 0.0
C2187 C 0.58056 0.15926 0.02435 0.0
C2188 C 0.6161 0.16482 0.02192 0.0
C2189 C 0.63422 0.1693 0.01033 0.0
C2190 C 0.63877 0.15837 0.99319 0.0
C2191 C 0.65555 0.16301 0.98201 0.0
C2192 C 0.66801 0.17842 0.98794 0.0
C2193 C 0.66375 0.18918 0.00509 0.0
C2194 C 0.64695 0.18464 0.01629 0.0
C2195 C 0.60097 0.12807 0.1025 0.0
C2196 C 0.60804 0.14287 0.11531 0.0
C2197 C 0.59918 0.1318 0.08224 0.0
C2198 C 0.6045 0.15034 0.07453 0.0
C2199 C 0.61235 0.16482 0.08718 0.0
C2200 C 0.614 0.16116 0.10743 0.0
C2201 C 0.60148 0.15494 0.05337 0.0
C2202 C 0.61801 0.16009 0.04199 0.0
C2203 C 0.58251 0.15439 0.04447 0.0
C2204 C 0.56447 0.14953 0.05598 0.0
C2205 C 0.55937 0.16057 0.07289 0.0
C2206 C 0.54255 0.15564 0.08388 0.0
C2207 C 0.5306 0.13982 0.07801 0.0
C2208 C 0.53541 0.12893 0.06108 0.0
C2209 C 0.55224 0.13377 0.05006 0.0
H2210 H 0.51759 0.13602 0.08654 0.0
H2211 H 0.68098 0.182 0.97926 0.0
H2212 H 0.38429 0.62903 0.3831 0.0
H2213 H 0.3781 0.63518 0.41827 0.0
H2214 H 0.40738 0.69173 0.41378 0.0
H2215 H 0.41334 0.68585 0.37841 0.0
H2216 H 0.41813 0.6662 0.44832 0.0
H2217 H 0.36208 0.69492 0.4147 0.0
H2218 H 0.3343 0.6948 0.39103 0.0
H2219 H 0.30783 0.64593 0.42187 0.0
H2220 H 0.33562 0.64557 0.44556 0.0
H2221 H 0.38376 0.69902 0.54334 0.0
H2222 H 0.39376 0.69671 0.5085 0.0
H2223 H 0.35221 0.64892 0.4998 0.0
H2224 H 0.34166 0.65177 0.53417 0.0
H2225 H 0.34872 0.67327 0.4711 0.0
H2226 H 0.40411 0.6422 0.50327 0.0
H2227 H 0.43208 0.6398 0.52661 0.0
H2228 H 0.45994 0.68973 0.49883 0.0
H2229 H 0.432 0.69259 0.47548 0.0
C2230 C 0.38947 0.64274 0.38962 0.0
C2231 C 0.3992 0.65702 0.37805 0.0
C2232 C 0.38592 0.64622 0.40966 0.0
C2233 C 0.39226 0.66391 0.4185 0.0
C2234 C 0.40243 0.67799 0.40715 0.0
C2235 C 0.40572 0.67465 0.38699 0.0
C2236 C 0.38759 0.66785 0.43949 0.0
C2237 C 0.40301 0.66808 0.45337 0.0
C2238 C 0.36783 0.66982 0.44594 0.0
C2239 C 0.35102 0.67011 0.43179 0.0
C2240 C 0.35042 0.68404 0.41634 0.0
C2241 C 0.33466 0.68408 0.40293 0.0
C2242 C 0.31933 0.67034 0.40492 0.0
C2243 C 0.31972 0.65655 0.42034 0.0
C2244 C 0.33546 0.65644 0.43377 0.0
C2245 C 0.37688 0.68798 0.53395 0.0
C2246 C 0.3619 0.67563 0.54137 0.0
C2247 C 0.38265 0.6866 0.5141 0.0
C2248 C 0.37383 0.67254 0.50153 0.0
C2249 C 0.35914 0.65997 0.50914 0.0
C2250 C 0.35316 0.66158 0.5288 0.0
C2251 C 0.37923 0.67119 0.48026 0.0
C2252 C 0.36391 0.67153 0.46621 0.0
C2253 C 0.39907 0.66942 0.47374 0.0
C2254 C 0.41586 0.66775 0.48779 0.0
C2255 C 0.41613 0.65277 0.50225 0.0
C2256 C 0.43199 0.65131 0.51546 0.0
C2257 C 0.44775 0.66465 0.51424 0.0
C2258 C 0.4477 0.67944 0.49978 0.0
C2259 C 0.43187 0.68098 0.48655 0.0
H2260 H 0.46002 0.66348 0.52448 0.0
H2261 H 0.30714 0.67039 0.39453 0.0
H2262 H 0.15487 0.33618 0.02675 0.0
H2263 H 0.14176 0.33836 0.99316 0.0
H2264 H 0.09205 0.302 0.00987 0.0
H2265 H 0.10496 0.30004 0.04392 0.0
H2266 H 0.11485 0.29164 0.97207 0.0
H2267 H 0.0793 0.34395 0.00381 0.0
H2268 H 0.07555 0.37299 0.02561 0.0
H2269 H 0.11595 0.40594 0.98927 0.0
H2270 H 0.12019 0.37699 0.96742 0.0
H2271 H 0.08056 0.31563 0.87338 0.0
H2272 H 0.08113 0.30816 0.90896 0.0
H2273 H 0.12424 0.35448 0.91789 0.0
H2274 H 0.12335 0.36226 0.88271 0.0
H2275 H 0.0961 0.35713 0.9446 0.0
H2276 H 0.1365 0.30436 0.91711 0.0
H2277 H 0.14295 0.27541 0.8958 0.0
H2278 H 0.09581 0.24359 0.92416 0.0
H2279 H 0.08893 0.27247 0.94548 0.0
C2280 C 0.14114 0.32864 0.02332 0.0
C2281 C 0.1309 0.31796 0.0379 0.0
C2282 C 0.13367 0.32993 0.00416 0.0
C2283 C 0.11595 0.32039 -0.00083 0.0
C2284 C 0.10575 0.30945 0.01356 0.0
C2285 C 0.11308 0.30842 0.03293 0.0
C2286 C 0.10844 0.32213 0.97875 0.0
C2287 C 0.11021 0.3058 0.96607 0.0
C2288 C 0.10277 0.3407 0.97104 0.0
C2289 C 0.10014 0.35824 0.98404 0.0
C2290 C 0.0875 0.35734 0.00055 0.0
C2291 C 0.08527 0.37379 0.0129 0.0
C2292 C 0.09553 0.39129 0.00884 0.0
C2293 C 0.10801 0.39237 0.99239 0.0
C2294 C 0.11031 0.37595 0.98 0.0
C2295 C 0.09022 0.3241 0.88298 0.0
C2296 C 0.1019 0.33953 0.87533 0.0
C2297 C 0.09055 0.31982 0.90326 0.0
C2298 C 0.10274 0.33077 0.91608 0.0
C2299 C 0.1146 0.34595 0.90832 0.0
C2300 C 0.11415 0.35032 0.88818 0.0
C2301 C 0.10326 0.32681 0.93765 0.0
C2302 C 0.10017 0.34279 0.95058 0.0
C2303 C 0.10793 0.30795 0.94552 0.0
C2304 C 0.11203 0.29064 0.93269 0.0
C2305 C 0.1274 0.29125 0.91867 0.0
C2306 C 0.13116 0.27485 0.90662 0.0
C2307 C 0.11975 0.2577 0.90858 0.0
C2308 C 0.1046 0.2569 0.92263 0.0
C2309 C 0.10077 0.27328 0.9347 0.0
H2310 H 0.12268 0.24501 0.89924 0.0
H2311 H 0.09378 0.40401 0.01843 0.0
H2312 H 0.62458 0.88357 0.81513 0.0
H2313 H 0.58899 0.88157 0.80937 0.0
H2314 H 0.57851 0.91768 0.86106 0.0
H2315 H 0.61418 0.91901 0.86735 0.0
H2316 H 0.55242 0.88966 0.85991 0.0
H2317 H 0.57554 0.93685 0.81304 0.0
H2318 H 0.59674 0.95026 0.78655 0.0
H2319 H 0.57749 0.9041 0.74729 0.0
H2320 H 0.55637 0.89024 0.77365 0.0
H2321 H 0.45192 0.90555 0.83096 0.0
H2322 H 0.48678 0.91458 0.83567 0.0
H2323 H 0.50446 0.86581 0.79846 0.0
H2324 H 0.46974 0.8564 0.7941 0.0
H2325 H 0.52578 0.90438 0.79299 0.0
H2326 H 0.5052 0.85606 0.84276 0.0
H2327 H 0.48307 0.8446 0.86945 0.0
H2328 H 0.49692 0.8964 0.90361 0.0
H2329 H 0.5189 0.90833 0.87695 0.0
C2330 C 0.61467 0.89101 0.82531 0.0
C2331 C 0.62208 0.90153 0.84162 0.0
C2332 C 0.59435 0.88998 0.82193 0.0
C2333 C 0.58109 0.89988 0.83451 0.0
C2334 C 0.58846 0.91003 0.8511 0.0
C2335 C 0.60881 0.91078 0.85467 0.0
C2336 C 0.55955 0.89947 0.83035 0.0
C2337 C 0.54661 0.89324 0.84537 0.0
C2338 C 0.55189 0.90406 0.81135 0.0
C2339 C 0.56448 0.91242 0.79539 0.0
C2340 C 0.57592 0.92948 0.7988 0.0
C2341 C 0.58791 0.93717 0.7838 0.0
C2342 C 0.58849 0.92802 0.76526 0.0
C2343 C 0.57704 0.91117 0.76167 0.0
C2344 C 0.56503 0.9034 0.77663 0.0
C2345 C 0.46324 0.89703 0.82346 0.0
C2346 C 0.45825 0.88024 0.81225 0.0
C2347 C 0.48307 0.90216 0.8262 0.0
C2348 C 0.49805 0.89076 0.81747 0.0
C2349 C 0.49303 0.87476 0.80527 0.0
C2350 C 0.47326 0.86939 0.80284 0.0
C2351 C 0.51898 0.89432 0.82241 0.0
C2352 C 0.53172 0.9011 0.80755 0.0
C2353 C 0.5264 0.89055 0.84161 0.0
C2354 C 0.51349 0.8832 0.85777 0.0
C2355 C 0.50339 0.86509 0.85589 0.0
C2356 C 0.4909 0.85849 0.87102 0.0
C2357 C 0.48854 0.86979 0.88818 0.0
C2358 C 0.49874 0.88768 0.89029 0.0
C2359 C 0.51121 0.89436 0.87518 0.0
H2360 H 0.47885 0.86468 0.89987 0.0
H2361 H 0.59779 0.934 0.75367 0.0
H2362 H 0.88125 0.08996 0.37184 0.0
H2363 H 0.91639 0.09067 0.36342 0.0
H2364 H 0.90457 0.13351 0.31745 0.0
H2365 H 0.86927 0.13209 0.32523 0.0
H2366 H 0.92871 0.10747 0.3039 0.0
H2367 H 0.92617 0.1459 0.36357 0.0
H2368 H 0.91821 0.15306 0.39848 0.0
H2369 H 0.95412 0.10405 0.41709 0.0
H2370 H 0.96209 0.09644 0.38226 0.0
H2371 H 0.02527 0.14968 0.29549 0.0
H2372 H 0.99024 0.14262 0.30124 0.0
H2373 H 0.00604 0.09065 0.33482 0.0
H2374 H 0.04119 0.09745 0.32884 0.0
H2375 H 0.98064 0.11858 0.35461 0.0
H2376 H 0.98504 0.08287 0.29333 0.0
H2377 H 0.9935 0.07838 0.25811 0.0
H2378 H 0.95442 0.12591 0.24226 0.0
H2379 H 0.94593 0.13088 0.27744 0.0
C2380 C 0.8862 0.09962 0.36003 0.0
C2381 C 0.87262 0.11104 0.34922 0.0
C2382 C 0.90628 0.10007 0.35527 0.0
C2383 C 0.91318 0.11235 0.33997 0.0
C2384 C 0.8996 0.12389 0.32928 0.0
C2385 C 0.87947 0.12316 0.3338 0.0
C2386 C 0.9345 0.11294 0.33484 0.0
C2387 C 0.94002 0.11012 0.31498 0.0
C2388 C 0.94934 0.11595 0.34934 0.0
C2389 C 0.94455 0.12047 0.37029 0.0
C2390 C 0.93224 0.13656 0.3751 0.0
C2391 C 0.92775 0.14071 0.39487 0.0
C2392 C 0.93561 0.12898 0.40999 0.0
C2393 C 0.94802 0.1131 0.40536 0.0
C2394 C 0.95254 0.10887 0.38561 0.0
C2395 C 0.02126 0.13656 0.3038 0.0
C2396 C 0.03587 0.12412 0.31177 0.0
C2397 C 0.00128 0.13253 0.30703 0.0
C2398 C 0.99566 0.11612 0.31842 0.0
C2399 C 0.01019 0.10336 0.32595 0.0
C2400 C 0.03018 0.10721 0.32246 0.0
C2401 C 0.97469 0.11333 0.32375 0.0
C2402 C 0.96926 0.11576 0.34362 0.0
C2403 C 0.95995 0.11036 0.30923 0.0
C2404 C 0.96498 0.10736 0.28805 0.0
C2405 C 0.97838 0.09248 0.28236 0.0
C2406 C 0.98315 0.08982 0.26239 0.0
C2407 C 0.97454 0.10188 0.24796 0.0
C2408 C 0.96109 0.11659 0.25346 0.0
C2409 C 0.95628 0.11932 0.27341 0.0
H2410 H 0.97825 0.09979 0.23251 0.0
H2411 H 0.93212 0.13222 0.42529 0.0
H2412 H 0.12566 0.62852 0.16049 0.0
H2413 H 0.09077 0.63109 0.16961 0.0
H2414 H 0.09262 0.57221 0.19426 0.0
H2415 H 0.12773 0.5696 0.18536 0.0
H2416 H 0.06072 0.57936 0.16748 0.0
H2417 H 0.0894 0.60761 0.22551 0.0
H2418 H 0.11158 0.62956 0.24443 0.0
H2419 H 0.08324 0.68055 0.21922 0.0
H2420 H 0.06107 0.6589 0.19989 0.0
H2421 H 0.96018 0.59361 0.19701 0.0
H2422 H 0.99545 0.58532 0.19871 0.0
H2423 H 0.01027 0.64501 0.18136 0.0
H2424 H 0.97525 0.65347 0.18016 0.0
H2425 H 0.03407 0.63311 0.20985 0.0
H2426 H 0.00984 0.60595 0.14805 0.0
H2427 H 0.98827 0.58502 0.12732 0.0
H2428 H 0.00873 0.53314 0.15783 0.0
H2429 H 0.03024 0.55382 0.17893 0.0
C2430 C 0.11868 0.61617 0.16798 0.0
C2431 C 0.12935 0.59886 0.17223 0.0
C2432 C 0.0988 0.61769 0.17324 0.0
C2433 C 0.08924 0.60188 0.18272 0.0
C2434 C 0.09983 0.58457 0.18702 0.0
C2435 C 0.11983 0.58313 0.18198 0.0
C2436 C 0.06792 0.60333 0.18722 0.0
C2437 C 0.05484 0.5908 0.1771 0.0
C2438 C 0.0604 0.61851 0.19948 0.0
C2439 C 0.07365 0.63161 0.21115 0.0
C2440 C 0.08799 0.6235 0.22387 0.0
C2441 C 0.10055 0.63589 0.2347 0.0
C2442 C 0.09884 0.65643 0.233 0.0
C2443 C 0.08455 0.66463 0.22051 0.0
C2444 C 0.07196 0.6523 0.20964 0.0
C2445 C 0.971 0.60495 0.19366 0.0
C2446 C 0.96501 0.62415 0.18836 0.0
C2447 C 0.99111 0.60019 0.19459 0.0
C2448 C 0.00547 0.61451 0.18997 0.0
C2449 C -0.00055 0.63376 0.18504 0.0
C2450 C 0.97943 0.63855 0.18427 0.0
C2451 C 0.02679 0.60952 0.18962 0.0
C2452 C 0.0399 0.62139 0.20054 0.0
C2453 C 0.03435 0.59388 0.1779 0.0
C2454 C 0.02144 0.58145 0.16523 0.0
C2455 C 0.00961 0.5901 0.15045 0.0
C2456 C 0.99742 0.57828 0.13861 0.0
C2457 C 0.99708 0.55777 0.1413 0.0
C2458 C 0.00897 0.54903 0.1558 0.0
C2459 C 0.02117 0.56079 0.16769 0.0
H2460 H 0.98764 0.54864 0.13212 0.0
H2461 H 0.10858 0.666 0.2414 0.0
H2462 H 0.39022 0.37131 0.64458 0.0
H2463 H 0.42575 0.36769 0.65053 0.0
H2464 H 0.41992 0.39905 0.70585 0.0
H2465 H 0.38423 0.40246 0.70016 0.0
H2466 H 0.45098 0.41293 0.67904 0.0
H2467 H 0.42726 0.35341 0.71003 0.0
H2468 H 0.408 0.32246 0.71175 0.0
H2469 H 0.44028 0.29919 0.6622 0.0
H2470 H 0.45955 0.33013 0.66 0.0
H2471 H 0.55255 0.39477 0.7023 0.0
H2472 H 0.51653 0.39858 0.70421 0.0
H2473 H 0.50952 0.35461 0.65829 0.0
H2474 H 0.54526 0.35008 0.65713 0.0
H2475 H 0.48411 0.3477 0.68513 0.0
H2476 H 0.50471 0.40669 0.65056 0.0
H2477 H 0.52338 0.43772 0.64588 0.0
H2478 H 0.49678 0.46204 0.69824 0.0
H2479 H 0.47812 0.43104 0.70336 0.0
C2480 C 0.39649 0.3773 0.65807 0.0
C2481 C 0.38454 0.38714 0.67193 0.0
C2482 C 0.41673 0.37519 0.66146 0.0
C2483 C 0.42532 0.38306 0.67864 0.0
C2484 C 0.41345 0.39288 0.69253 0.0
C2485 C 0.39313 0.39473 0.6893 0.0
C2486 C 0.44686 0.38145 0.68167 0.0
C2487 C 0.45829 0.39874 0.68076 0.0
C2488 C 0.45623 0.36285 0.68339 0.0
C2489 C 0.44475 0.34417 0.68476 0.0
C2490 C 0.43015 0.34176 0.6994 0.0
C2491 C 0.41925 0.3242 0.70048 0.0
C2492 C 0.42289 0.30888 0.68707 0.0
C2493 C 0.43747 0.31107 0.67257 0.0
C2494 C 0.4484 0.32861 0.67142 0.0
C2495 C 0.54324 0.38601 0.69261 0.0
C2496 C 0.55158 0.37215 0.67957 0.0
C2497 C 0.5227 0.38823 0.69364 0.0
C2498 C 0.51029 0.37702 0.68125 0.0
C2499 C 0.51874 0.36334 0.66809 0.0
C2500 C 0.53917 0.36082 0.66737 0.0
C2501 C 0.48848 0.37919 0.68196 0.0
C2502 C 0.47692 0.36198 0.68364 0.0
C2503 C 0.47901 0.39784 0.68053 0.0
C2504 C 0.49021 0.41648 0.67747 0.0
C2505 C 0.50296 0.41861 0.66116 0.0
C2506 C 0.51352 0.43619 0.65841 0.0
C2507 C 0.51132 0.45182 0.67179 0.0
C2508 C 0.4985 0.44991 0.68791 0.0
C2509 C 0.48792 0.43234 0.69074 0.0
H2510 H 0.51951 0.46542 0.66964 0.0
H2511 H 0.41443 0.2953 0.68793 0.0
H2512 H 0.80229 0.62005 0.91494 0.0
H2513 H 0.79608 0.58435 0.91215 0.0
H2514 H 0.84623 0.57866 0.8731 0.0
H2515 H 0.85272 0.61417 0.87606 0.0
H2516 H 0.81057 0.55863 0.86037 0.0
H2517 H 0.85291 0.56673 0.91821 0.0
H2518 H 0.86103 0.58045 0.95106 0.0
H2519 H 0.80818 0.55474 0.97521 0.0
H2520 H 0.79961 0.5411 0.9424 0.0
H2521 H 0.83979 0.46091 0.85541 0.0
H2522 H 0.83876 0.49635 0.86187 0.0
H2523 H 0.79527 0.48695 0.9077 0.0
H2524 H 0.79671 0.45109 0.90163 0.0
H2525 H 0.82143 0.51489 0.91845 0.0
H2526 H 0.78078 0.50308 0.86243 0.0
H2527 H 0.77179 0.48915 0.8299 0.0
H2528 H 0.81883 0.52191 0.80248 0.0
H2529 H 0.82832 0.5358 0.8349 0.0
C2530 C 0.81189 0.61118 0.90567 0.0
C2531 C 0.82801 0.61979 0.89575 0.0
C2532 C 0.80835 0.59085 0.90414 0.0
C2533 C 0.82075 0.57898 0.89248 0.0
C2534 C 0.83651 0.58766 0.88214 0.0
C2535 C 0.84023 0.60788 0.8839 0.0
C2536 C 0.8178 0.55737 0.89137 0.0
C2537 C 0.813 0.54901 0.87301 0.0
C2538 C 0.82027 0.54503 0.90809 0.0
C2539 C 0.82549 0.55312 0.92781 0.0
C2540 C 0.84293 0.56416 0.93048 0.0
C2541 C 0.84763 0.57189 0.9491 0.0
C2542 C 0.8351 0.56852 0.9652 0.0
C2543 C 0.81786 0.55737 0.96272 0.0
C2544 C 0.81307 0.54963 0.94412 0.0
C2545 C 0.83012 0.46635 0.86698 0.0
C2546 C 0.81817 0.45333 0.8779 0.0
C2547 C 0.82946 0.48661 0.87059 0.0
C2548 C 0.81654 0.49431 0.88488 0.0
C2549 C 0.8052 0.48129 0.89646 0.0
C2550 C 0.80604 0.46087 0.89301 0.0
C2551 C 0.81479 0.51602 0.88726 0.0
C2552 C 0.81864 0.52445 0.90585 0.0
C2553 C 0.81117 0.52848 0.87077 0.0
C2554 C 0.80533 0.52041 0.85114 0.0
C2555 C 0.78928 0.50724 0.84948 0.0
C2556 C 0.78409 0.49935 0.83106 0.0
C2557 C 0.79475 0.50462 0.81414 0.0
C2558 C 0.81058 0.51784 0.8156 0.0
C2559 C 0.81586 0.52575 0.834 0.0
H2560 H 0.79072 0.49847 0.79989 0.0
H2561 H 0.83876 0.57452 0.97961 0.0
H2562 H 0.32392 0.87053 0.06248 0.0
H2563 H 0.31362 0.90541 0.06377 0.0
H2564 H 0.33284 0.90877 0.12461 0.0
H2565 H 0.34316 0.87421 0.1234 0.0
H2566 H 0.29638 0.92684 0.11819 0.0
H2567 H 0.36264 0.9251 0.08903 0.0
H2568 H 0.38653 0.91437 0.06359 0.0
H2569 H 0.3505 0.9405 0.01821 0.0
H2570 H 0.32629 0.95124 0.04342 0.0
H2571 H 0.32446 0.01978 0.14932 0.0
H2572 H 0.32316 0.9856 0.13804 0.0
H2573 H 0.30559 0.00513 0.07981 0.0
H2574 H 0.3072 0.03974 0.09102 0.0
H2575 H 0.33366 0.97594 0.0782 0.0
H2576 H 0.27138 0.98449 0.10934 0.0
H2577 H 0.24815 0.99527 0.13532 0.0
H2578 H 0.27588 0.95605 0.17694 0.0
H2579 H 0.29948 0.94524 0.1513 0.0
C2580 C 0.32573 0.87871 0.07616 0.0
C2581 C 0.33439 0.86974 0.09283 0.0
C2582 C 0.31989 0.89858 0.07686 0.0
C2583 C 0.32252 0.90962 0.09428 0.0
C2584 C 0.33061 0.90046 0.11106 0.0
C2585 C 0.33659 0.88075 0.11031 0.0
C2586 C 0.3179 0.931 0.0951 0.0
C2587 C 0.30444 0.93761 0.10942 0.0
C2588 C 0.32795 0.94495 0.08315 0.0
C2589 C 0.34259 0.93879 0.06805 0.0
C2590 C 0.35977 0.92846 0.07361 0.0
C2591 C 0.37337 0.9224 0.05925 0.0
C2592 C 0.37001 0.92673 0.0393 0.0
C2593 C 0.35307 0.93715 0.03367 0.0
C2594 C 0.33942 0.94325 0.04799 0.0
C2595 C 0.3203 0.01686 0.1341 0.0
C2596 C 0.31581 0.03242 0.12107 0.0
C2597 C 0.31946 0.9973 0.1277 0.0
C2598 C 0.31387 0.99281 0.1082 0.0
C2599 C 0.30977 0.0083 0.09496 0.0
C2600 C 0.31068 0.02801 0.10138 0.0
C2601 C 0.31274 0.97181 0.10194 0.0
C2602 C 0.32509 0.96525 0.08658 0.0
C2603 C 0.3016 0.95786 0.11292 0.0
C2604 C 0.28725 0.96409 0.12837 0.0
C2605 C 0.27259 0.97823 0.12405 0.0
C2606 C 0.25935 0.98434 0.13873 0.0
C2607 C 0.26055 0.97636 0.15777 0.0
C2608 C 0.27496 0.96221 0.16218 0.0
C2609 C 0.28825 0.95605 0.14756 0.0
H2610 H 0.25029 0.98112 0.16911 0.0
H2611 H 0.38059 0.92206 0.02822 0.0
H2612 H 0.18487 0.95682 0.59327 0.0
H2613 H 0.18477 0.99088 0.58059 0.0
H2614 H 0.17983 0.01303 0.64032 0.0
H2615 H 0.18029 0.97929 0.65302 0.0
H2616 H 0.15711 0.01901 0.58299 0.0
H2617 H 0.20395 0.05541 0.64565 0.0
H2618 H 0.23222 0.04678 0.66706 0.0
H2619 H 0.25227 0.0045 0.62405 0.0
H2620 H 0.22429 0.01307 0.60225 0.0
H2621 H 0.13322 0.11859 0.6004 0.0
H2622 H 0.1408 0.08327 0.60183 0.0
H2623 H 0.19951 0.09484 0.57958 0.0
H2624 H 0.19207 0.13031 0.5783 0.0
H2625 H 0.20077 0.07109 0.61092 0.0
H2626 H 0.16604 0.07238 0.55012 0.0
H2627 H 0.13915 0.08068 0.5269 0.0
H2628 H 0.0981 0.04722 0.56202 0.0
H2629 H 0.12467 0.03896 0.58563 0.0
C2630 C 0.18391 0.969 0.60366 0.0
C2631 C 0.18267 0.96544 0.62412 0.0
C2632 C 0.18382 0.9884 0.59641 0.0
C2633 C 0.18258 0.00447 0.60953 0.0
C2634 C 0.18123 0.00087 0.62995 0.0
C2635 C 0.18138 0.98157 0.63718 0.0
C2636 C 0.18189 0.02507 0.6021 0.0
C2637 C 0.16675 0.03039 0.58893 0.0
C2638 C 0.19483 0.03981 0.60947 0.0
C2639 C 0.21194 0.03482 0.62235 0.0
C2640 C 0.21446 0.04437 0.64069 0.0
C2641 C 0.23042 0.03946 0.65291 0.0
C2642 C 0.24401 0.02507 0.64693 0.0
C2643 C 0.2417 0.0156 0.62869 0.0
C2644 C 0.22578 0.02046 0.6164 0.0
C2645 C 0.1477 0.11361 0.59571 0.0
C2646 C 0.16207 0.12718 0.58928 0.0
C2647 C 0.15197 0.09341 0.5964 0.0
C2648 C 0.17064 0.08643 0.59058 0.0
C2649 C 0.18499 0.09994 0.58405 0.0
C2650 C 0.18072 0.12016 0.58334 0.0
C2651 C 0.17543 0.06513 0.5925 0.0
C2652 C 0.19134 0.05969 0.60467 0.0
C2653 C 0.16343 0.05027 0.5839 0.0
C2654 C 0.14736 0.05515 0.56972 0.0
C2655 C 0.15125 0.06691 0.55298 0.0
C2656 C 0.13607 0.07159 0.53973 0.0
C2657 C 0.11692 0.06451 0.543 0.0
C2658 C 0.11294 0.0527 0.55951 0.0
C2659 C 0.12807 0.04799 0.57282 0.0
H2660 H 0.10519 0.06815 0.53272 0.0
H2661 H 0.25634 0.02128 0.65643 0.0
H2662 H 0.67107 0.37273 0.38588 0.0
H2663 H 0.67688 0.4084 0.38722 0.0
H2664 H 0.61571 0.41796 0.40277 0.0
H2665 H 0.60969 0.38226 0.40098 0.0
H2666 H 0.62697 0.44399 0.37607 0.0
H2667 H 0.65231 0.42185 0.43776 0.0
H2668 H 0.67178 0.40111 0.4606 0.0
H2669 H 0.72555 0.42058 0.43292 0.0
H2670 H 0.70638 0.44124 0.4097 0.0
H2671 H 0.64844 0.54576 0.39309 0.0
H2672 H 0.63925 0.51185 0.40232 0.0
H2673 H 0.69485 0.49051 0.37939 0.0
H2674 H 0.70405 0.52422 0.37007 0.0
H2675 H 0.68307 0.47163 0.41461 0.0
H2676 H 0.65588 0.49125 0.35079 0.0
H2677 H 0.63558 0.51235 0.329 0.0
H2678 H 0.5837 0.49745 0.3625 0.0
H2679 H 0.6038 0.47672 0.38485 0.0
C2680 C 0.65885 0.38244 0.38954 0.0
C2681 C 0.63994 0.37475 0.39336 0.0
C2682 C 0.66222 0.4028 0.39045 0.0
C2683 C 0.64681 0.41581 0.39547 0.0
C2684 C 0.62783 0.40817 0.39898 0.0
C2685 C 0.62441 0.3878 0.39794 0.0
C2686 C 0.65052 0.43741 0.39656 0.0
C2687 C 0.63897 0.45008 0.38483 0.0
C2688 C 0.66625 0.44535 0.40792 0.0
C2689 C 0.67788 0.43299 0.42189 0.0
C2690 C 0.66828 0.42161 0.43644 0.0
C2691 C 0.67926 0.40988 0.44948 0.0
C2692 C 0.69989 0.4095 0.44819 0.0
C2693 C 0.70957 0.42088 0.43389 0.0
C2694 C 0.69865 0.43263 0.42081 0.0
C2695 C 0.65886 0.53387 0.39043 0.0
C2696 C 0.67688 0.53752 0.38072 0.0
C2697 C 0.65357 0.51456 0.39565 0.0
C2698 C 0.66631 0.49873 0.39132 0.0
C2699 C 0.68484 0.50256 0.38283 0.0
C2700 C 0.69003 0.52179 0.37745 0.0
C2701 C 0.6598 0.478 0.39383 0.0
C2702 C 0.67084 0.46552 0.40619 0.0
C2703 C 0.64347 0.47027 0.38322 0.0
C2704 C 0.6314 0.48267 0.36968 0.0
C2705 C 0.64019 0.49266 0.35366 0.0
C2706 C 0.62872 0.50456 0.34121 0.0
C2707 C 0.60838 0.50635 0.34444 0.0
C2708 C 0.59947 0.49617 0.36009 0.0
C2709 C 0.6109 0.48438 0.37268 0.0
H2710 H 0.59952 0.51555 0.33477 0.0
H2711 H 0.70837 0.40041 0.45829 0.0
loop_
_geom_bond_atom_site_label_1
_geom_bond_atom_site_label_2
_geom_bond_distance
_geom_bond_site_symmetry_2
_ccdc_geom_bond_type
In0 O1 2.294 . S
In0 O2 2.326 . S
In0 O6 2.266 . S
In0 O7 2.326 . S
In0 O8 2.266 . S
In0 O9 2.326 . S
In0 O11 2.294 . S
In0 O12 2.326 . S
O1 In0 2.294 . S
O1 C10 1.240 . S
O2 In0 2.326 . S
O2 C10 1.252 . S
C3 O6 1.252 . S
C3 O7 1.260 . S
C4 O11 1.240 . S
C4 O12 1.252 . S
C5 O8 1.252 . S
C5 O9 1.260 . S
O6 In0 2.266 . S
O6 C3 1.252 . S
O7 In0 2.326 . S
O7 C3 1.260 . S
O8 In0 2.266 . S
O8 C5 1.252 . S
O9 In0 2.326 . S
O9 C5 1.260 . S
C10 O1 1.240 . S
C10 O2 1.252 . S
O11 In0 2.294 . S
O11 C4 1.240 . S
O12 In0 2.326 . S
O12 C4 1.252 . S
In13 O14 2.294 . S
In13 O15 2.326 . S
In13 O19 2.266 . S
In13 O20 2.326 . S
In13 O21 2.266 . S
In13 O22 2.326 . S
In13 O24 2.294 . S
In13 O25 2.326 . S
O14 In13 2.294 . S
O14 C23 1.240 . S
O15 In13 2.326 . S
O15 C23 1.252 . S
C16 O19 1.252 . S
C16 O20 1.260 . S
C17 O24 1.240 . S
C17 O25 1.252 . S
C18 O21 1.252 . S
C18 O22 1.260 . S
O19 In13 2.266 . S
O19 C16 1.252 . S
O20 In13 2.326 . S
O20 C16 1.260 . S
O21 In13 2.266 . S
O21 C18 1.252 . S
O22 In13 2.326 . S
O22 C18 1.260 . S
C23 O14 1.240 . S
C23 O15 1.252 . S
O24 In13 2.294 . S
O24 C17 1.240 . S
O25 In13 2.326 . S
O25 C17 1.252 . S
In26 O27 2.294 . S
In26 O28 2.326 . S
In26 O32 2.266 . S
In26 O33 2.326 . S
In26 O34 2.266 . S
In26 O35 2.326 . S
In26 O37 2.294 . S
In26 O38 2.326 . S
O27 In26 2.294 . S
O27 C36 1.240 . S
O28 In26 2.326 . S
O28 C36 1.252 . S
C29 O32 1.252 . S
C29 O33 1.260 . S
C30 O37 1.240 . S
C30 O38 1.252 . S
C31 O34 1.252 . S
C31 O35 1.260 . S
O32 In26 2.266 . S
O32 C29 1.252 . S
O33 In26 2.326 . S
O33 C29 1.260 . S
O34 In26 2.266 . S
O34 C31 1.252 . S
O35 In26 2.326 . S
O35 C31 1.260 . S
C36 O27 1.240 . S
C36 O28 1.252 . S
O37 In26 2.294 . S
O37 C30 1.240 . S
O38 In26 2.326 . S
O38 C30 1.252 . S
In39 O40 2.294 . S
In39 O41 2.326 . S
In39 O45 2.266 . S
In39 O46 2.326 . S
In39 O47 2.266 . S
In39 O48 2.326 . S
In39 O50 2.294 . S
In39 O51 2.326 . S
O40 In39 2.294 . S
O40 C49 1.240 . S
O41 In39 2.326 . S
O41 C49 1.252 . S
C42 O45 1.252 . S
C42 O46 1.260 . S
C43 O50 1.240 . S
C43 O51 1.252 . S
C44 O47 1.252 . S
C44 O48 1.260 . S
O45 In39 2.266 . S
O45 C42 1.252 . S
O46 In39 2.326 . S
O46 C42 1.260 . S
O47 In39 2.266 . S
O47 C44 1.252 . S
O48 In39 2.326 . S
O48 C44 1.260 . S
C49 O40 1.240 . S
C49 O41 1.252 . S
O50 In39 2.294 . S
O50 C43 1.240 . S
O51 In39 2.326 . S
O51 C43 1.252 . S
In52 O53 2.294 . S
In52 O54 2.326 . S
In52 O58 2.266 . S
In52 O59 2.326 . S
In52 O60 2.266 . S
In52 O61 2.326 . S
In52 O63 2.294 . S
In52 O64 2.326 . S
O53 In52 2.294 . S
O53 C62 1.240 . S
O54 In52 2.326 . S
O54 C62 1.252 . S
C55 O58 1.252 . S
C55 O59 1.260 . S
C56 O63 1.240 . S
C56 O64 1.252 . S
C57 O60 1.252 . S
C57 O61 1.260 . S
O58 In52 2.266 . S
O58 C55 1.252 . S
O59 In52 2.326 . S
O59 C55 1.260 . S
O60 In52 2.266 . S
O60 C57 1.252 . S
O61 In52 2.326 . S
O61 C57 1.260 . S
C62 O53 1.240 . S
C62 O54 1.252 . S
O63 In52 2.294 . S
O63 C56 1.240 . S
O64 In52 2.326 . S
O64 C56 1.252 . S
In65 O66 2.294 . S
In65 O67 2.326 . S
In65 O71 2.266 . S
In65 O72 2.326 . S
In65 O73 2.266 . S
In65 O74 2.326 . S
In65 O76 2.294 . S
In65 O77 2.326 . S
O66 In65 2.294 . S
O66 C75 1.240 . S
O67 In65 2.326 . S
O67 C75 1.252 . S
C68 O71 1.252 . S
C68 O72 1.260 . S
C69 O76 1.240 . S
C69 O77 1.252 . S
C70 O73 1.252 . S
C70 O74 1.260 . S
O71 In65 2.266 . S
O71 C68 1.252 . S
O72 In65 2.326 . S
O72 C68 1.260 . S
O73 In65 2.266 . S
O73 C70 1.252 . S
O74 In65 2.326 . S
O74 C70 1.260 . S
C75 O66 1.240 . S
C75 O67 1.252 . S
O76 In65 2.294 . S
O76 C69 1.240 . S
O77 In65 2.326 . S
O77 C69 1.252 . S
In78 O79 2.294 . S
In78 O80 2.326 . S
In78 O84 2.266 . S
In78 O85 2.326 . S
In78 O86 2.266 . S
In78 O87 2.326 . S
In78 O89 2.294 . S
In78 O90 2.326 . S
O79 In78 2.294 . S
O79 C88 1.240 . S
O80 In78 2.326 . S
O80 C88 1.252 . S
C81 O84 1.252 . S
C81 O85 1.260 . S
C82 O89 1.240 . S
C82 O90 1.252 . S
C83 O86 1.252 . S
C83 O87 1.260 . S
O84 In78 2.266 . S
O84 C81 1.252 . S
O85 In78 2.326 . S
O85 C81 1.260 . S
O86 In78 2.266 . S
O86 C83 1.252 . S
O87 In78 2.326 . S
O87 C83 1.260 . S
C88 O79 1.240 . S
C88 O80 1.252 . S
O89 In78 2.294 . S
O89 C82 1.240 . S
O90 In78 2.326 . S
O90 C82 1.252 . S
In91 O92 2.294 . S
In91 O93 2.326 . S
In91 O97 2.266 . S
In91 O98 2.326 . S
In91 O99 2.266 . S
In91 O100 2.326 . S
In91 O102 2.294 . S
In91 O103 2.326 . S
O92 In91 2.294 . S
O92 C101 1.240 . S
O93 In91 2.326 . S
O93 C101 1.252 . S
C94 O97 1.252 . S
C94 O98 1.260 . S
C95 O102 1.240 . S
C95 O103 1.252 . S
C96 O99 1.252 . S
C96 O100 1.260 . S
O97 In91 2.266 . S
O97 C94 1.252 . S
O98 In91 2.326 . S
O98 C94 1.260 . S
O99 In91 2.266 . S
O99 C96 1.252 . S
O100 In91 2.326 . S
O100 C96 1.260 . S
C101 O92 1.240 . S
C101 O93 1.252 . S
O102 In91 2.294 . S
O102 C95 1.240 . S
O103 In91 2.326 . S
O103 C95 1.252 . S
In104 O105 2.294 . S
In104 O106 2.326 . S
In104 O110 2.266 . S
In104 O111 2.326 . S
In104 O112 2.266 . S
In104 O113 2.326 . S
In104 O115 2.294 . S
In104 O116 2.326 . S
O105 In104 2.294 . S
O105 C114 1.240 . S
O106 In104 2.326 . S
O106 C114 1.252 . S
C107 O110 1.252 . S
C107 O111 1.260 . S
C108 O115 1.240 . S
C108 O116 1.252 . S
C109 O112 1.252 . S
C109 O113 1.260 . S
O110 In104 2.266 . S
O110 C107 1.252 . S
O111 In104 2.326 . S
O111 C107 1.260 . S
O112 In104 2.266 . S
O112 C109 1.252 . S
O113 In104 2.326 . S
O113 C109 1.260 . S
C114 O105 1.240 . S
C114 O106 1.252 . S
O115 In104 2.294 . S
O115 C108 1.240 . S
O116 In104 2.326 . S
O116 C108 1.252 . S
In117 O118 2.294 . S
In117 O119 2.326 . S
In117 O123 2.266 . S
In117 O124 2.326 . S
In117 O125 2.266 . S
In117 O126 2.326 . S
In117 O128 2.294 . S
In117 O129 2.326 . S
O118 In117 2.294 . S
O118 C127 1.240 . S
O119 In117 2.326 . S
O119 C127 1.252 . S
C120 O123 1.252 . S
C120 O124 1.260 . S
C121 O128 1.240 . S
C121 O129 1.252 . S
C122 O125 1.252 . S
C122 O126 1.260 . S
O123 In117 2.266 . S
O123 C120 1.252 . S
O124 In117 2.326 . S
O124 C120 1.260 . S
O125 In117 2.266 . S
O125 C122 1.252 . S
O126 In117 2.326 . S
O126 C122 1.260 . S
C127 O118 1.240 . S
C127 O119 1.252 . S
O128 In117 2.294 . S
O128 C121 1.240 . S
O129 In117 2.326 . S
O129 C121 1.252 . S
In130 O131 2.294 . S
In130 O132 2.326 . S
In130 O136 2.266 . S
In130 O137 2.326 . S
In130 O138 2.266 . S
In130 O139 2.326 . S
In130 O141 2.294 . S
In130 O142 2.326 . S
O131 In130 2.294 . S
O131 C140 1.240 . S
O132 In130 2.326 . S
O132 C140 1.252 . S
C133 O136 1.252 . S
C133 O137 1.260 . S
C134 O141 1.240 . S
C134 O142 1.252 . S
C135 O138 1.252 . S
C135 O139 1.260 . S
O136 In130 2.266 . S
O136 C133 1.252 . S
O137 In130 2.326 . S
O137 C133 1.260 . S
O138 In130 2.266 . S
O138 C135 1.252 . S
O139 In130 2.326 . S
O139 C135 1.260 . S
C140 O131 1.240 . S
C140 O132 1.252 . S
O141 In130 2.294 . S
O141 C134 1.240 . S
O142 In130 2.326 . S
O142 C134 1.252 . S
In143 O144 2.294 . S
In143 O145 2.326 . S
In143 O149 2.266 . S
In143 O150 2.326 . S
In143 O151 2.266 . S
In143 O152 2.326 . S
In143 O154 2.294 . S
In143 O155 2.326 . S
O144 In143 2.294 . S
O144 C153 1.240 . S
O145 In143 2.326 . S
O145 C153 1.252 . S
C146 O149 1.252 . S
C146 O150 1.260 . S
C147 O154 1.240 . S
C147 O155 1.252 . S
C148 O151 1.252 . S
C148 O152 1.260 . S
O149 In143 2.266 . S
O149 C146 1.252 . S
O150 In143 2.326 . S
O150 C146 1.260 . S
O151 In143 2.266 . S
O151 C148 1.252 . S
O152 In143 2.326 . S
O152 C148 1.260 . S
C153 O144 1.240 . S
C153 O145 1.252 . S
O154 In143 2.294 . S
O154 C147 1.240 . S
O155 In143 2.326 . S
O155 C147 1.252 . S
In156 O157 2.294 . S
In156 O158 2.326 . S
In156 O162 2.266 . S
In156 O163 2.326 . S
In156 O164 2.266 . S
In156 O165 2.326 . S
In156 O167 2.294 . S
In156 O168 2.326 . S
O157 In156 2.294 . S
O157 C166 1.240 . S
O158 In156 2.326 . S
O158 C166 1.252 . S
C159 O162 1.252 . S
C159 O163 1.260 . S
C160 O167 1.240 . S
C160 O168 1.252 . S
C161 O164 1.252 . S
C161 O165 1.260 . S
O162 In156 2.266 . S
O162 C159 1.252 . S
O163 In156 2.326 . S
O163 C159 1.260 . S
O164 In156 2.266 . S
O164 C161 1.252 . S
O165 In156 2.326 . S
O165 C161 1.260 . S
C166 O157 1.240 . S
C166 O158 1.252 . S
O167 In156 2.294 . S
O167 C160 1.240 . S
O168 In156 2.326 . S
O168 C160 1.252 . S
In169 O170 2.294 . S
In169 O171 2.326 . S
In169 O175 2.266 . S
In169 O176 2.326 . S
In169 O177 2.266 . S
In169 O178 2.326 . S
In169 O180 2.294 . S
In169 O181 2.326 . S
O170 In169 2.294 . S
O170 C179 1.240 . S
O171 In169 2.326 . S
O171 C179 1.252 . S
C172 O175 1.252 . S
C172 O176 1.260 . S
C173 O180 1.240 . S
C173 O181 1.252 . S
C174 O177 1.252 . S
C174 O178 1.260 . S
O175 In169 2.266 . S
O175 C172 1.252 . S
O176 In169 2.326 . S
O176 C172 1.260 . S
O177 In169 2.266 . S
O177 C174 1.252 . S
O178 In169 2.326 . S
O178 C174 1.260 . S
C179 O170 1.240 . S
C179 O171 1.252 . S
O180 In169 2.294 . S
O180 C173 1.240 . S
O181 In169 2.326 . S
O181 C173 1.252 . S
In182 O183 2.294 . S
In182 O184 2.326 . S
In182 O188 2.266 . S
In182 O189 2.326 . S
In182 O190 2.266 . S
In182 O191 2.326 . S
In182 O193 2.294 . S
In182 O194 2.326 . S
O183 In182 2.294 . S
O183 C192 1.240 . S
O184 In182 2.326 . S
O184 C192 1.252 . S
C185 O188 1.252 . S
C185 O189 1.260 . S
C186 O193 1.240 . S
C186 O194 1.252 . S
C187 O190 1.252 . S
C187 O191 1.260 . S
O188 In182 2.266 . S
O188 C185 1.252 . S
O189 In182 2.326 . S
O189 C185 1.260 . S
O190 In182 2.266 . S
O190 C187 1.252 . S
O191 In182 2.326 . S
O191 C187 1.260 . S
C192 O183 1.240 . S
C192 O184 1.252 . S
O193 In182 2.294 . S
O193 C186 1.240 . S
O194 In182 2.326 . S
O194 C186 1.252 . S
In195 O196 2.294 . S
In195 O197 2.326 . S
In195 O201 2.266 . S
In195 O202 2.326 . S
In195 O203 2.266 . S
In195 O204 2.326 . S
In195 O206 2.294 . S
In195 O207 2.326 . S
O196 In195 2.294 . S
O196 C205 1.240 . S
O197 In195 2.326 . S
O197 C205 1.252 . S
C198 O201 1.252 . S
C198 O202 1.260 . S
C199 O206 1.240 . S
C199 O207 1.252 . S
C200 O203 1.252 . S
C200 O204 1.260 . S
O201 In195 2.266 . S
O201 C198 1.252 . S
O202 In195 2.326 . S
O202 C198 1.260 . S
O203 In195 2.266 . S
O203 C200 1.252 . S
O204 In195 2.326 . S
O204 C200 1.260 . S
C205 O196 1.240 . S
C205 O197 1.252 . S
O206 In195 2.294 . S
O206 C199 1.240 . S
O207 In195 2.326 . S
O207 C199 1.252 . S
In208 O209 2.294 . S
In208 O210 2.326 . S
In208 O214 2.266 . S
In208 O215 2.326 . S
In208 O216 2.266 . S
In208 O217 2.326 . S
In208 O219 2.294 . S
In208 O220 2.326 . S
O209 In208 2.294 . S
O209 C218 1.240 . S
O210 In208 2.326 . S
O210 C218 1.252 . S
C211 O214 1.252 . S
C211 O215 1.260 . S
C212 O219 1.240 . S
C212 O220 1.252 . S
C213 O216 1.252 . S
C213 O217 1.260 . S
O214 In208 2.266 . S
O214 C211 1.252 . S
O215 In208 2.326 . S
O215 C211 1.260 . S
O216 In208 2.266 . S
O216 C213 1.252 . S
O217 In208 2.326 . S
O217 C213 1.260 . S
C218 O209 1.240 . S
C218 O210 1.252 . S
O219 In208 2.294 . S
O219 C212 1.240 . S
O220 In208 2.326 . S
O220 C212 1.252 . S
In221 O222 2.294 . S
In221 O223 2.326 . S
In221 O227 2.266 . S
In221 O228 2.326 . S
In221 O229 2.266 . S
In221 O230 2.326 . S
In221 O232 2.294 . S
In221 O233 2.326 . S
O222 In221 2.294 . S
O222 C231 1.240 . S
O223 In221 2.326 . S
O223 C231 1.252 . S
C224 O227 1.252 . S
C224 O228 1.260 . S
C225 O232 1.240 . S
C225 O233 1.252 . S
C226 O229 1.252 . S
C226 O230 1.260 . S
O227 In221 2.266 . S
O227 C224 1.252 . S
O228 In221 2.326 . S
O228 C224 1.260 . S
O229 In221 2.266 . S
O229 C226 1.252 . S
O230 In221 2.326 . S
O230 C226 1.260 . S
C231 O222 1.240 . S
C231 O223 1.252 . S
O232 In221 2.294 . S
O232 C225 1.240 . S
O233 In221 2.326 . S
O233 C225 1.252 . S
In234 O235 2.294 . S
In234 O236 2.326 . S
In234 O240 2.266 . S
In234 O241 2.326 . S
In234 O242 2.266 . S
In234 O243 2.326 . S
In234 O245 2.294 . S
In234 O246 2.326 . S
O235 In234 2.294 . S
O235 C244 1.240 . S
O236 In234 2.326 . S
O236 C244 1.252 . S
C237 O240 1.252 . S
C237 O241 1.260 . S
C238 O245 1.240 . S
C238 O246 1.252 . S
C239 O242 1.252 . S
C239 O243 1.260 . S
O240 In234 2.266 . S
O240 C237 1.252 . S
O241 In234 2.326 . S
O241 C237 1.260 . S
O242 In234 2.266 . S
O242 C239 1.252 . S
O243 In234 2.326 . S
O243 C239 1.260 . S
C244 O235 1.240 . S
C244 O236 1.252 . S
O245 In234 2.294 . S
O245 C238 1.240 . S
O246 In234 2.326 . S
O246 C238 1.252 . S
In247 O248 2.294 . S
In247 O249 2.326 . S
In247 O253 2.266 . S
In247 O254 2.326 . S
In247 O255 2.266 . S
In247 O256 2.326 . S
In247 O258 2.294 . S
In247 O259 2.326 . S
O248 In247 2.294 . S
O248 C257 1.240 . S
O249 In247 2.326 . S
O249 C257 1.252 . S
C250 O253 1.252 . S
C250 O254 1.260 . S
C251 O258 1.240 . S
C251 O259 1.252 . S
C252 O255 1.252 . S
C252 O256 1.260 . S
O253 In247 2.266 . S
O253 C250 1.252 . S
O254 In247 2.326 . S
O254 C250 1.260 . S
O255 In247 2.266 . S
O255 C252 1.252 . S
O256 In247 2.326 . S
O256 C252 1.260 . S
C257 O248 1.240 . S
C257 O249 1.252 . S
O258 In247 2.294 . S
O258 C251 1.240 . S
O259 In247 2.326 . S
O259 C251 1.252 . S
In260 O261 2.294 . S
In260 O262 2.326 . S
In260 O266 2.266 . S
In260 O267 2.326 . S
In260 O268 2.266 . S
In260 O269 2.326 . S
In260 O271 2.294 . S
In260 O272 2.326 . S
O261 In260 2.294 . S
O261 C270 1.240 . S
O262 In260 2.326 . S
O262 C270 1.252 . S
C263 O266 1.252 . S
C263 O267 1.260 . S
C264 O271 1.240 . S
C264 O272 1.252 . S
C265 O268 1.252 . S
C265 O269 1.260 . S
O266 In260 2.266 . S
O266 C263 1.252 . S
O267 In260 2.326 . S
O267 C263 1.260 . S
O268 In260 2.266 . S
O268 C265 1.252 . S
O269 In260 2.326 . S
O269 C265 1.260 . S
C270 O261 1.240 . S
C270 O262 1.252 . S
O271 In260 2.294 . S
O271 C264 1.240 . S
O272 In260 2.326 . S
O272 C264 1.252 . S
In273 O274 2.294 . S
In273 O275 2.326 . S
In273 O279 2.266 . S
In273 O280 2.326 . S
In273 O281 2.266 . S
In273 O282 2.326 . S
In273 O284 2.294 . S
In273 O285 2.326 . S
O274 In273 2.294 . S
O274 C283 1.240 . S
O275 In273 2.326 . S
O275 C283 1.252 . S
C276 O279 1.252 . S
C276 O280 1.260 . S
C277 O284 1.240 . S
C277 O285 1.252 . S
C278 O281 1.252 . S
C278 O282 1.260 . S
O279 In273 2.266 . S
O279 C276 1.252 . S
O280 In273 2.326 . S
O280 C276 1.260 . S
O281 In273 2.266 . S
O281 C278 1.252 . S
O282 In273 2.326 . S
O282 C278 1.260 . S
C283 O274 1.240 . S
C283 O275 1.252 . S
O284 In273 2.294 . S
O284 C277 1.240 . S
O285 In273 2.326 . S
O285 C277 1.252 . S
In286 O287 2.294 . S
In286 O288 2.326 . S
In286 O292 2.266 . S
In286 O293 2.326 . S
In286 O294 2.266 . S
In286 O295 2.326 . S
In286 O297 2.294 . S
In286 O298 2.326 . S
O287 In286 2.294 . S
O287 C296 1.240 . S
O288 In286 2.326 . S
O288 C296 1.252 . S
C289 O292 1.252 . S
C289 O293 1.260 . S
C290 O297 1.240 . S
C290 O298 1.252 . S
C291 O294 1.252 . S
C291 O295 1.260 . S
O292 In286 2.266 . S
O292 C289 1.252 . S
O293 In286 2.326 . S
O293 C289 1.260 . S
O294 In286 2.266 . S
O294 C291 1.252 . S
O295 In286 2.326 . S
O295 C291 1.260 . S
C296 O287 1.240 . S
C296 O288 1.252 . S
O297 In286 2.294 . S
O297 C290 1.240 . S
O298 In286 2.326 . S
O298 C290 1.252 . S
In299 O300 2.294 . S
In299 O301 2.326 . S
In299 O305 2.266 . S
In299 O306 2.326 . S
In299 O307 2.266 . S
In299 O308 2.326 . S
In299 O310 2.294 . S
In299 O311 2.326 . S
O300 In299 2.294 . S
O300 C309 1.240 . S
O301 In299 2.326 . S
O301 C309 1.252 . S
C302 O305 1.252 . S
C302 O306 1.260 . S
C303 O310 1.240 . S
C303 O311 1.252 . S
C304 O307 1.252 . S
C304 O308 1.260 . S
O305 In299 2.266 . S
O305 C302 1.252 . S
O306 In299 2.326 . S
O306 C302 1.260 . S
O307 In299 2.266 . S
O307 C304 1.252 . S
O308 In299 2.326 . S
O308 C304 1.260 . S
C309 O300 1.240 . S
C309 O301 1.252 . S
O310 In299 2.294 . S
O310 C303 1.240 . S
O311 In299 2.326 . S
O311 C303 1.252 . S
H312 C330 0.951 . S
H313 C332 0.951 . S
H314 C334 0.950 . S
H315 C335 0.950 . S
H316 C337 0.950 . S
H317 C340 0.950 . S
H318 C341 0.950 . S
H319 C343 0.950 . S
H320 C344 0.950 . S
H321 C345 0.951 . S
H322 C347 0.951 . S
H323 C349 0.950 . S
H324 C350 0.950 . S
H325 C352 0.950 . S
H326 C355 0.950 . S
H327 C356 0.950 . S
H328 C358 0.950 . S
H329 C359 0.950 . S
C330 H312 0.951 . S
C330 C331 1.366 . S
C330 C332 1.388 . S
C331 C330 1.366 . S
C331 C335 1.385 . S
C332 H313 0.951 . S
C332 C330 1.388 . S
C332 C333 1.366 . S
C333 C332 1.366 . S
C333 C334 1.414 . S
C333 C336 1.499 . S
C334 H314 0.950 . S
C334 C333 1.414 . S
C334 C335 1.374 . S
C335 H315 0.950 . S
C335 C331 1.385 . S
C335 C334 1.374 . S
C336 C333 1.499 . S
C336 C337 1.373 . S
C336 C338 1.389 . S
C337 H316 0.950 . S
C337 C336 1.373 . S
C337 C353 1.377 . S
C338 C336 1.389 . S
C338 C339 1.524 . S
C338 C352 1.377 . S
C339 C338 1.524 . S
C339 C340 1.397 . S
C339 C344 1.363 . S
C340 H317 0.950 . S
C340 C339 1.397 . S
C340 C341 1.334 . S
C341 H318 0.950 . S
C341 C340 1.334 . S
C341 C342 1.287 . S
C342 C341 1.287 . S
C342 C343 1.524 . S
C342 H361 0.913 . S
C343 H319 0.950 . S
C343 C342 1.524 . S
C343 C344 1.415 . S
C344 H320 0.950 . S
C344 C339 1.363 . S
C344 C343 1.415 . S
C345 H321 0.951 . S
C345 C346 1.366 . S
C345 C347 1.388 . S
C346 C345 1.366 . S
C346 C350 1.385 . S
C347 H322 0.951 . S
C347 C345 1.388 . S
C347 C348 1.366 . S
C348 C347 1.366 . S
C348 C349 1.414 . S
C348 C351 1.499 . S
C349 H323 0.950 . S
C349 C348 1.414 . S
C349 C350 1.374 . S
C350 H324 0.950 . S
C350 C346 1.385 . S
C350 C349 1.374 . S
C351 C348 1.499 . S
C351 C352 1.373 . S
C351 C353 1.389 . S
C352 H325 0.950 . S
C352 C338 1.377 . S
C352 C351 1.373 . S
C353 C337 1.377 . S
C353 C351 1.389 . S
C353 C354 1.524 . S
C354 C353 1.524 . S
C354 C355 1.397 . S
C354 C359 1.363 . S
C355 H326 0.950 . S
C355 C354 1.397 . S
C355 C356 1.334 . S
C356 H327 0.950 . S
C356 C355 1.334 . S
C356 C357 1.287 . S
C357 C356 1.287 . S
C357 C358 1.524 . S
C357 H360 0.999 . S
C358 H328 0.950 . S
C358 C357 1.524 . S
C358 C359 1.415 . S
C359 H329 0.950 . S
C359 C354 1.363 . S
C359 C358 1.415 . S
H360 C357 0.999 . S
H361 C342 0.913 . S
H362 C380 0.951 . S
H363 C382 0.951 . S
H364 C384 0.950 . S
H365 C385 0.950 . S
H366 C387 0.950 . S
H367 C390 0.950 . S
H368 C391 0.950 . S
H369 C393 0.950 . S
H370 C394 0.950 . S
H371 C395 0.951 . S
H372 C397 0.951 . S
H373 C399 0.950 . S
H374 C400 0.950 . S
H375 C402 0.950 . S
H376 C405 0.950 . S
H377 C406 0.950 . S
H378 C408 0.950 . S
H379 C409 0.950 . S
C380 H362 0.951 . S
C380 C381 1.366 . S
C380 C382 1.388 . S
C381 C380 1.366 . S
C381 C385 1.385 . S
C382 H363 0.951 . S
C382 C380 1.388 . S
C382 C383 1.366 . S
C383 C382 1.366 . S
C383 C384 1.414 . S
C383 C386 1.499 . S
C384 H364 0.950 . S
C384 C383 1.414 . S
C384 C385 1.374 . S
C385 H365 0.950 . S
C385 C381 1.385 . S
C385 C384 1.374 . S
C386 C383 1.499 . S
C386 C387 1.373 . S
C386 C388 1.389 . S
C387 H366 0.950 . S
C387 C386 1.373 . S
C387 C403 1.377 . S
C388 C386 1.389 . S
C388 C389 1.524 . S
C388 C402 1.377 . S
C389 C388 1.524 . S
C389 C390 1.397 . S
C389 C394 1.363 . S
C390 H367 0.950 . S
C390 C389 1.397 . S
C390 C391 1.334 . S
C391 H368 0.950 . S
C391 C390 1.334 . S
C391 C392 1.287 . S
C392 C391 1.287 . S
C392 C393 1.524 . S
C392 H411 0.913 . S
C393 H369 0.950 . S
C393 C392 1.524 . S
C393 C394 1.415 . S
C394 H370 0.950 . S
C394 C389 1.363 . S
C394 C393 1.415 . S
C395 H371 0.951 . S
C395 C396 1.366 . S
C395 C397 1.388 . S
C396 C395 1.366 . S
C396 C400 1.385 . S
C397 H372 0.951 . S
C397 C395 1.388 . S
C397 C398 1.366 . S
C398 C397 1.366 . S
C398 C399 1.414 . S
C398 C401 1.499 . S
C399 H373 0.950 . S
C399 C398 1.414 . S
C399 C400 1.374 . S
C400 H374 0.950 . S
C400 C396 1.385 . S
C400 C399 1.374 . S
C401 C398 1.499 . S
C401 C402 1.373 . S
C401 C403 1.389 . S
C402 H375 0.950 . S
C402 C388 1.377 . S
C402 C401 1.373 . S
C403 C387 1.377 . S
C403 C401 1.389 . S
C403 C404 1.524 . S
C404 C403 1.524 . S
C404 C405 1.397 . S
C404 C409 1.363 . S
C405 H376 0.950 . S
C405 C404 1.397 . S
C405 C406 1.334 . S
C406 H377 0.950 . S
C406 C405 1.334 . S
C406 C407 1.287 . S
C407 C406 1.287 . S
C407 C408 1.524 . S
C407 H410 0.999 . S
C408 H378 0.950 . S
C408 C407 1.524 . S
C408 C409 1.415 . S
C409 H379 0.950 . S
C409 C404 1.363 . S
C409 C408 1.415 . S
H410 C407 0.999 . S
H411 C392 0.913 . S
H412 C430 0.951 . S
H413 C432 0.951 . S
H414 C434 0.950 . S
H415 C435 0.950 . S
H416 C437 0.950 . S
H417 C440 0.950 . S
H418 C441 0.950 . S
H419 C443 0.950 . S
H420 C444 0.950 . S
H421 C445 0.951 . S
H422 C447 0.951 . S
H423 C449 0.950 . S
H424 C450 0.950 . S
H425 C452 0.950 . S
H426 C455 0.950 . S
H427 C456 0.950 . S
H428 C458 0.950 . S
H429 C459 0.950 . S
C430 H412 0.951 . S
C430 C431 1.366 . S
C430 C432 1.388 . S
C431 C430 1.366 . S
C431 C435 1.385 . S
C432 H413 0.951 . S
C432 C430 1.388 . S
C432 C433 1.366 . S
C433 C432 1.366 . S
C433 C434 1.414 . S
C433 C436 1.499 . S
C434 H414 0.950 . S
C434 C433 1.414 . S
C434 C435 1.374 . S
C435 H415 0.950 . S
C435 C431 1.385 . S
C435 C434 1.374 . S
C436 C433 1.499 . S
C436 C437 1.373 . S
C436 C438 1.389 . S
C437 H416 0.950 . S
C437 C436 1.373 . S
C437 C453 1.377 . S
C438 C436 1.389 . S
C438 C439 1.524 . S
C438 C452 1.377 . S
C439 C438 1.524 . S
C439 C440 1.397 . S
C439 C444 1.363 . S
C440 H417 0.950 . S
C440 C439 1.397 . S
C440 C441 1.334 . S
C441 H418 0.950 . S
C441 C440 1.334 . S
C441 C442 1.287 . S
C442 C441 1.287 . S
C442 C443 1.524 . S
C442 H461 0.913 . S
C443 H419 0.950 . S
C443 C442 1.524 . S
C443 C444 1.415 . S
C444 H420 0.950 . S
C444 C439 1.363 . S
C444 C443 1.415 . S
C445 H421 0.951 . S
C445 C446 1.366 . S
C445 C447 1.388 . S
C446 C445 1.366 . S
C446 C450 1.385 . S
C447 H422 0.951 . S
C447 C445 1.388 . S
C447 C448 1.366 . S
C448 C447 1.366 . S
C448 C449 1.414 . S
C448 C451 1.499 . S
C449 H423 0.950 . S
C449 C448 1.414 . S
C449 C450 1.374 . S
C450 H424 0.950 . S
C450 C446 1.385 . S
C450 C449 1.374 . S
C451 C448 1.499 . S
C451 C452 1.373 . S
C451 C453 1.389 . S
C452 H425 0.950 . S
C452 C438 1.377 . S
C452 C451 1.373 . S
C453 C437 1.377 . S
C453 C451 1.389 . S
C453 C454 1.524 . S
C454 C453 1.524 . S
C454 C455 1.397 . S
C454 C459 1.363 . S
C455 H426 0.950 . S
C455 C454 1.397 . S
C455 C456 1.334 . S
C456 H427 0.950 . S
C456 C455 1.334 . S
C456 C457 1.287 . S
C457 C456 1.287 . S
C457 C458 1.524 . S
C457 H460 0.999 . S
C458 H428 0.950 . S
C458 C457 1.524 . S
C458 C459 1.415 . S
C459 H429 0.950 . S
C459 C454 1.363 . S
C459 C458 1.415 . S
H460 C457 0.999 . S
H461 C442 0.913 . S
H462 C480 0.951 . S
H463 C482 0.951 . S
H464 C484 0.950 . S
H465 C485 0.950 . S
H466 C487 0.950 . S
H467 C490 0.950 . S
H468 C491 0.950 . S
H469 C493 0.950 . S
H470 C494 0.950 . S
H471 C495 0.951 . S
H472 C497 0.951 . S
H473 C499 0.950 . S
H474 C500 0.950 . S
H475 C502 0.950 . S
H476 C505 0.950 . S
H477 C506 0.950 . S
H478 C508 0.950 . S
H479 C509 0.950 . S
C480 H462 0.951 . S
C480 C481 1.366 . S
C480 C482 1.388 . S
C481 C480 1.366 . S
C481 C485 1.385 . S
C482 H463 0.951 . S
C482 C480 1.388 . S
C482 C483 1.366 . S
C483 C482 1.366 . S
C483 C484 1.414 . S
C483 C486 1.499 . S
C484 H464 0.950 . S
C484 C483 1.414 . S
C484 C485 1.374 . S
C485 H465 0.950 . S
C485 C481 1.385 . S
C485 C484 1.374 . S
C486 C483 1.499 . S
C486 C487 1.373 . S
C486 C488 1.389 . S
C487 H466 0.950 . S
C487 C486 1.373 . S
C487 C503 1.377 . S
C488 C486 1.389 . S
C488 C489 1.524 . S
C488 C502 1.377 . S
C489 C488 1.524 . S
C489 C490 1.397 . S
C489 C494 1.363 . S
C490 H467 0.950 . S
C490 C489 1.397 . S
C490 C491 1.334 . S
C491 H468 0.950 . S
C491 C490 1.334 . S
C491 C492 1.287 . S
C492 C491 1.287 . S
C492 C493 1.524 . S
C492 H511 0.913 . S
C493 H469 0.950 . S
C493 C492 1.524 . S
C493 C494 1.415 . S
C494 H470 0.950 . S
C494 C489 1.363 . S
C494 C493 1.415 . S
C495 H471 0.951 . S
C495 C496 1.366 . S
C495 C497 1.388 . S
C496 C495 1.366 . S
C496 C500 1.385 . S
C497 H472 0.951 . S
C497 C495 1.388 . S
C497 C498 1.366 . S
C498 C497 1.366 . S
C498 C499 1.414 . S
C498 C501 1.499 . S
C499 H473 0.950 . S
C499 C498 1.414 . S
C499 C500 1.374 . S
C500 H474 0.950 . S
C500 C496 1.385 . S
C500 C499 1.374 . S
C501 C498 1.499 . S
C501 C502 1.373 . S
C501 C503 1.389 . S
C502 H475 0.950 . S
C502 C488 1.377 . S
C502 C501 1.373 . S
C503 C487 1.377 . S
C503 C501 1.389 . S
C503 C504 1.524 . S
C504 C503 1.524 . S
C504 C505 1.397 . S
C504 C509 1.363 . S
C505 H476 0.950 . S
C505 C504 1.397 . S
C505 C506 1.334 . S
C506 H477 0.950 . S
C506 C505 1.334 . S
C506 C507 1.287 . S
C507 C506 1.287 . S
C507 C508 1.524 . S
C507 H510 0.999 . S
C508 H478 0.950 . S
C508 C507 1.524 . S
C508 C509 1.415 . S
C509 H479 0.950 . S
C509 C504 1.363 . S
C509 C508 1.415 . S
H510 C507 0.999 . S
H511 C492 0.913 . S
H512 C530 0.951 . S
H513 C532 0.951 . S
H514 C534 0.950 . S
H515 C535 0.950 . S
H516 C537 0.950 . S
H517 C540 0.950 . S
H518 C541 0.950 . S
H519 C543 0.950 . S
H520 C544 0.950 . S
H521 C545 0.951 . S
H522 C547 0.951 . S
H523 C549 0.950 . S
H524 C550 0.950 . S
H525 C552 0.950 . S
H526 C555 0.950 . S
H527 C556 0.950 . S
H528 C558 0.950 . S
H529 C559 0.950 . S
C530 H512 0.951 . S
C530 C531 1.366 . S
C530 C532 1.388 . S
C531 C530 1.366 . S
C531 C535 1.385 . S
C532 H513 0.951 . S
C532 C530 1.388 . S
C532 C533 1.366 . S
C533 C532 1.366 . S
C533 C534 1.414 . S
C533 C536 1.499 . S
C534 H514 0.950 . S
C534 C533 1.414 . S
C534 C535 1.374 . S
C535 H515 0.950 . S
C535 C531 1.385 . S
C535 C534 1.374 . S
C536 C533 1.499 . S
C536 C537 1.373 . S
C536 C538 1.389 . S
C537 H516 0.950 . S
C537 C536 1.373 . S
C537 C553 1.377 . S
C538 C536 1.389 . S
C538 C539 1.524 . S
C538 C552 1.377 . S
C539 C538 1.524 . S
C539 C540 1.397 . S
C539 C544 1.363 . S
C540 H517 0.950 . S
C540 C539 1.397 . S
C540 C541 1.334 . S
C541 H518 0.950 . S
C541 C540 1.334 . S
C541 C542 1.287 . S
C542 C541 1.287 . S
C542 C543 1.524 . S
C542 H561 0.913 . S
C543 H519 0.950 . S
C543 C542 1.524 . S
C543 C544 1.415 . S
C544 H520 0.950 . S
C544 C539 1.363 . S
C544 C543 1.415 . S
C545 H521 0.951 . S
C545 C546 1.366 . S
C545 C547 1.388 . S
C546 C545 1.366 . S
C546 C550 1.385 . S
C547 H522 0.951 . S
C547 C545 1.388 . S
C547 C548 1.366 . S
C548 C547 1.366 . S
C548 C549 1.414 . S
C548 C551 1.499 . S
C549 H523 0.950 . S
C549 C548 1.414 . S
C549 C550 1.374 . S
C550 H524 0.950 . S
C550 C546 1.385 . S
C550 C549 1.374 . S
C551 C548 1.499 . S
C551 C552 1.373 . S
C551 C553 1.389 . S
C552 H525 0.950 . S
C552 C538 1.377 . S
C552 C551 1.373 . S
C553 C537 1.377 . S
C553 C551 1.389 . S
C553 C554 1.524 . S
C554 C553 1.524 . S
C554 C555 1.397 . S
C554 C559 1.363 . S
C555 H526 0.950 . S
C555 C554 1.397 . S
C555 C556 1.334 . S
C556 H527 0.950 . S
C556 C555 1.334 . S
C556 C557 1.287 . S
C557 C556 1.287 . S
C557 C558 1.524 . S
C557 H560 0.999 . S
C558 H528 0.950 . S
C558 C557 1.524 . S
C558 C559 1.415 . S
C559 H529 0.950 . S
C559 C554 1.363 . S
C559 C558 1.415 . S
H560 C557 0.999 . S
H561 C542 0.913 . S
H562 C580 0.951 . S
H563 C582 0.951 . S
H564 C584 0.950 . S
H565 C585 0.950 . S
H566 C587 0.950 . S
H567 C590 0.950 . S
H568 C591 0.950 . S
H569 C593 0.950 . S
H570 C594 0.950 . S
H571 C595 0.951 . S
H572 C597 0.951 . S
H573 C599 0.950 . S
H574 C600 0.950 . S
H575 C602 0.950 . S
H576 C605 0.950 . S
H577 C606 0.950 . S
H578 C608 0.950 . S
H579 C609 0.950 . S
C580 H562 0.951 . S
C580 C581 1.366 . S
C580 C582 1.388 . S
C581 C580 1.366 . S
C581 C585 1.385 . S
C582 H563 0.951 . S
C582 C580 1.388 . S
C582 C583 1.366 . S
C583 C582 1.366 . S
C583 C584 1.414 . S
C583 C586 1.499 . S
C584 H564 0.950 . S
C584 C583 1.414 . S
C584 C585 1.374 . S
C585 H565 0.950 . S
C585 C581 1.385 . S
C585 C584 1.374 . S
C586 C583 1.499 . S
C586 C587 1.373 . S
C586 C588 1.389 . S
C587 H566 0.950 . S
C587 C586 1.373 . S
C587 C603 1.377 . S
C588 C586 1.389 . S
C588 C589 1.524 . S
C588 C602 1.377 . S
C589 C588 1.524 . S
C589 C590 1.397 . S
C589 C594 1.363 . S
C590 H567 0.950 . S
C590 C589 1.397 . S
C590 C591 1.334 . S
C591 H568 0.950 . S
C591 C590 1.334 . S
C591 C592 1.287 . S
C592 C591 1.287 . S
C592 C593 1.524 . S
C592 H611 0.913 . S
C593 H569 0.950 . S
C593 C592 1.524 . S
C593 C594 1.415 . S
C594 H570 0.950 . S
C594 C589 1.363 . S
C594 C593 1.415 . S
C595 H571 0.951 . S
C595 C596 1.366 . S
C595 C597 1.388 . S
C596 C595 1.366 . S
C596 C600 1.385 . S
C597 H572 0.951 . S
C597 C595 1.388 . S
C597 C598 1.366 . S
C598 C597 1.366 . S
C598 C599 1.414 . S
C598 C601 1.499 . S
C599 H573 0.950 . S
C599 C598 1.414 . S
C599 C600 1.374 . S
C600 H574 0.950 . S
C600 C596 1.385 . S
C600 C599 1.374 . S
C601 C598 1.499 . S
C601 C602 1.373 . S
C601 C603 1.389 . S
C602 H575 0.950 . S
C602 C588 1.377 . S
C602 C601 1.373 . S
C603 C587 1.377 . S
C603 C601 1.389 . S
C603 C604 1.524 . S
C604 C603 1.524 . S
C604 C605 1.397 . S
C604 C609 1.363 . S
C605 H576 0.950 . S
C605 C604 1.397 . S
C605 C606 1.334 . S
C606 H577 0.950 . S
C606 C605 1.334 . S
C606 C607 1.287 . S
C607 C606 1.287 . S
C607 C608 1.524 . S
C607 H610 0.999 . S
C608 H578 0.950 . S
C608 C607 1.524 . S
C608 C609 1.415 . S
C609 H579 0.950 . S
C609 C604 1.363 . S
C609 C608 1.415 . S
H610 C607 0.999 . S
H611 C592 0.913 . S
H612 C630 0.951 . S
H613 C632 0.951 . S
H614 C634 0.950 . S
H615 C635 0.950 . S
H616 C637 0.950 . S
H617 C640 0.950 . S
H618 C641 0.950 . S
H619 C643 0.950 . S
H620 C644 0.950 . S
H621 C645 0.951 . S
H622 C647 0.951 . S
H623 C649 0.950 . S
H624 C650 0.950 . S
H625 C652 0.950 . S
H626 C655 0.950 . S
H627 C656 0.950 . S
H628 C658 0.950 . S
H629 C659 0.950 . S
C630 H612 0.951 . S
C630 C631 1.366 . S
C630 C632 1.388 . S
C631 C630 1.366 . S
C631 C635 1.385 . S
C632 H613 0.951 . S
C632 C630 1.388 . S
C632 C633 1.366 . S
C633 C632 1.366 . S
C633 C634 1.414 . S
C633 C636 1.499 . S
C634 H614 0.950 . S
C634 C633 1.414 . S
C634 C635 1.374 . S
C635 H615 0.950 . S
C635 C631 1.385 . S
C635 C634 1.374 . S
C636 C633 1.499 . S
C636 C637 1.373 . S
C636 C638 1.389 . S
C637 H616 0.950 . S
C637 C636 1.373 . S
C637 C653 1.377 . S
C638 C636 1.389 . S
C638 C639 1.524 . S
C638 C652 1.377 . S
C639 C638 1.524 . S
C639 C640 1.397 . S
C639 C644 1.363 . S
C640 H617 0.950 . S
C640 C639 1.397 . S
C640 C641 1.334 . S
C641 H618 0.950 . S
C641 C640 1.334 . S
C641 C642 1.287 . S
C642 C641 1.287 . S
C642 C643 1.524 . S
C642 H661 0.913 . S
C643 H619 0.950 . S
C643 C642 1.524 . S
C643 C644 1.415 . S
C644 H620 0.950 . S
C644 C639 1.363 . S
C644 C643 1.415 . S
C645 H621 0.951 . S
C645 C646 1.366 . S
C645 C647 1.388 . S
C646 C645 1.366 . S
C646 C650 1.385 . S
C647 H622 0.951 . S
C647 C645 1.388 . S
C647 C648 1.366 . S
C648 C647 1.366 . S
C648 C649 1.414 . S
C648 C651 1.499 . S
C649 H623 0.950 . S
C649 C648 1.414 . S
C649 C650 1.374 . S
C650 H624 0.950 . S
C650 C646 1.385 . S
C650 C649 1.374 . S
C651 C648 1.499 . S
C651 C652 1.373 . S
C651 C653 1.389 . S
C652 H625 0.950 . S
C652 C638 1.377 . S
C652 C651 1.373 . S
C653 C637 1.377 . S
C653 C651 1.389 . S
C653 C654 1.524 . S
C654 C653 1.524 . S
C654 C655 1.397 . S
C654 C659 1.363 . S
C655 H626 0.950 . S
C655 C654 1.397 . S
C655 C656 1.334 . S
C656 H627 0.950 . S
C656 C655 1.334 . S
C656 C657 1.287 . S
C657 C656 1.287 . S
C657 C658 1.524 . S
C657 H660 0.999 . S
C658 H628 0.950 . S
C658 C657 1.524 . S
C658 C659 1.415 . S
C659 H629 0.950 . S
C659 C654 1.363 . S
C659 C658 1.415 . S
H660 C657 0.999 . S
H661 C642 0.913 . S
H662 C680 0.951 . S
H663 C682 0.951 . S
H664 C684 0.950 . S
H665 C685 0.950 . S
H666 C687 0.950 . S
H667 C690 0.950 . S
H668 C691 0.950 . S
H669 C693 0.950 . S
H670 C694 0.950 . S
H671 C695 0.951 . S
H672 C697 0.951 . S
H673 C699 0.950 . S
H674 C700 0.950 . S
H675 C702 0.950 . S
H676 C705 0.950 . S
H677 C706 0.950 . S
H678 C708 0.950 . S
H679 C709 0.950 . S
C680 H662 0.951 . S
C680 C681 1.366 . S
C680 C682 1.388 . S
C681 C680 1.366 . S
C681 C685 1.385 . S
C682 H663 0.951 . S
C682 C680 1.388 . S
C682 C683 1.366 . S
C683 C682 1.366 . S
C683 C684 1.414 . S
C683 C686 1.499 . S
C684 H664 0.950 . S
C684 C683 1.414 . S
C684 C685 1.374 . S
C685 H665 0.950 . S
C685 C681 1.385 . S
C685 C684 1.374 . S
C686 C683 1.499 . S
C686 C687 1.373 . S
C686 C688 1.389 . S
C687 H666 0.950 . S
C687 C686 1.373 . S
C687 C703 1.377 . S
C688 C686 1.389 . S
C688 C689 1.524 . S
C688 C702 1.377 . S
C689 C688 1.524 . S
C689 C690 1.397 . S
C689 C694 1.363 . S
C690 H667 0.950 . S
C690 C689 1.397 . S
C690 C691 1.334 . S
C691 H668 0.950 . S
C691 C690 1.334 . S
C691 C692 1.287 . S
C692 C691 1.287 . S
C692 C693 1.524 . S
C692 H711 0.913 . S
C693 H669 0.950 . S
C693 C692 1.524 . S
C693 C694 1.415 . S
C694 H670 0.950 . S
C694 C689 1.363 . S
C694 C693 1.415 . S
C695 H671 0.951 . S
C695 C696 1.366 . S
C695 C697 1.388 . S
C696 C695 1.366 . S
C696 C700 1.385 . S
C697 H672 0.951 . S
C697 C695 1.388 . S
C697 C698 1.366 . S
C698 C697 1.366 . S
C698 C699 1.414 . S
C698 C701 1.499 . S
C699 H673 0.950 . S
C699 C698 1.414 . S
C699 C700 1.374 . S
C700 H674 0.950 . S
C700 C696 1.385 . S
C700 C699 1.374 . S
C701 C698 1.499 . S
C701 C702 1.373 . S
C701 C703 1.389 . S
C702 H675 0.950 . S
C702 C688 1.377 . S
C702 C701 1.373 . S
C703 C687 1.377 . S
C703 C701 1.389 . S
C703 C704 1.524 . S
C704 C703 1.524 . S
C704 C705 1.397 . S
C704 C709 1.363 . S
C705 H676 0.950 . S
C705 C704 1.397 . S
C705 C706 1.334 . S
C706 H677 0.950 . S
C706 C705 1.334 . S
C706 C707 1.287 . S
C707 C706 1.287 . S
C707 C708 1.524 . S
C707 H710 0.999 . S
C708 H678 0.950 . S
C708 C707 1.524 . S
C708 C709 1.415 . S
C709 H679 0.950 . S
C709 C704 1.363 . S
C709 C708 1.415 . S
H710 C707 0.999 . S
H711 C692 0.913 . S
H712 C730 0.951 . S
H713 C732 0.951 . S
H714 C734 0.950 . S
H715 C735 0.950 . S
H716 C737 0.950 . S
H717 C740 0.950 . S
H718 C741 0.950 . S
H719 C743 0.950 . S
H720 C744 0.950 . S
H721 C745 0.951 . S
H722 C747 0.951 . S
H723 C749 0.950 . S
H724 C750 0.950 . S
H725 C752 0.950 . S
H726 C755 0.950 . S
H727 C756 0.950 . S
H728 C758 0.950 . S
H729 C759 0.950 . S
C730 H712 0.951 . S
C730 C731 1.366 . S
C730 C732 1.388 . S
C731 C730 1.366 . S
C731 C735 1.385 . S
C732 H713 0.951 . S
C732 C730 1.388 . S
C732 C733 1.366 . S
C733 C732 1.366 . S
C733 C734 1.414 . S
C733 C736 1.499 . S
C734 H714 0.950 . S
C734 C733 1.414 . S
C734 C735 1.374 . S
C735 H715 0.950 . S
C735 C731 1.385 . S
C735 C734 1.374 . S
C736 C733 1.499 . S
C736 C737 1.373 . S
C736 C738 1.389 . S
C737 H716 0.950 . S
C737 C736 1.373 . S
C737 C753 1.377 . S
C738 C736 1.389 . S
C738 C739 1.524 . S
C738 C752 1.377 . S
C739 C738 1.524 . S
C739 C740 1.397 . S
C739 C744 1.363 . S
C740 H717 0.950 . S
C740 C739 1.397 . S
C740 C741 1.334 . S
C741 H718 0.950 . S
C741 C740 1.334 . S
C741 C742 1.287 . S
C742 C741 1.287 . S
C742 C743 1.524 . S
C742 H761 0.913 . S
C743 H719 0.950 . S
C743 C742 1.524 . S
C743 C744 1.415 . S
C744 H720 0.950 . S
C744 C739 1.363 . S
C744 C743 1.415 . S
C745 H721 0.951 . S
C745 C746 1.366 . S
C745 C747 1.388 . S
C746 C745 1.366 . S
C746 C750 1.385 . S
C747 H722 0.951 . S
C747 C745 1.388 . S
C747 C748 1.366 . S
C748 C747 1.366 . S
C748 C749 1.414 . S
C748 C751 1.499 . S
C749 H723 0.950 . S
C749 C748 1.414 . S
C749 C750 1.374 . S
C750 H724 0.950 . S
C750 C746 1.385 . S
C750 C749 1.374 . S
C751 C748 1.499 . S
C751 C752 1.373 . S
C751 C753 1.389 . S
C752 H725 0.950 . S
C752 C738 1.377 . S
C752 C751 1.373 . S
C753 C737 1.377 . S
C753 C751 1.389 . S
C753 C754 1.524 . S
C754 C753 1.524 . S
C754 C755 1.397 . S
C754 C759 1.363 . S
C755 H726 0.950 . S
C755 C754 1.397 . S
C755 C756 1.334 . S
C756 H727 0.950 . S
C756 C755 1.334 . S
C756 C757 1.287 . S
C757 C756 1.287 . S
C757 C758 1.524 . S
C757 H760 0.999 . S
C758 H728 0.950 . S
C758 C757 1.524 . S
C758 C759 1.415 . S
C759 H729 0.950 . S
C759 C754 1.363 . S
C759 C758 1.415 . S
H760 C757 0.999 . S
H761 C742 0.913 . S
H762 C780 0.951 . S
H763 C782 0.951 . S
H764 C784 0.950 . S
H765 C785 0.950 . S
H766 C787 0.950 . S
H767 C790 0.950 . S
H768 C791 0.950 . S
H769 C793 0.950 . S
H770 C794 0.950 . S
H771 C795 0.951 . S
H772 C797 0.951 . S
H773 C799 0.950 . S
H774 C800 0.950 . S
H775 C802 0.950 . S
H776 C805 0.950 . S
H777 C806 0.950 . S
H778 C808 0.950 . S
H779 C809 0.950 . S
C780 H762 0.951 . S
C780 C781 1.366 . S
C780 C782 1.388 . S
C781 C780 1.366 . S
C781 C785 1.385 . S
C782 H763 0.951 . S
C782 C780 1.388 . S
C782 C783 1.366 . S
C783 C782 1.366 . S
C783 C784 1.414 . S
C783 C786 1.499 . S
C784 H764 0.950 . S
C784 C783 1.414 . S
C784 C785 1.374 . S
C785 H765 0.950 . S
C785 C781 1.385 . S
C785 C784 1.374 . S
C786 C783 1.499 . S
C786 C787 1.373 . S
C786 C788 1.389 . S
C787 H766 0.950 . S
C787 C786 1.373 . S
C787 C803 1.377 . S
C788 C786 1.389 . S
C788 C789 1.524 . S
C788 C802 1.377 . S
C789 C788 1.524 . S
C789 C790 1.397 . S
C789 C794 1.363 . S
C790 H767 0.950 . S
C790 C789 1.397 . S
C790 C791 1.334 . S
C791 H768 0.950 . S
C791 C790 1.334 . S
C791 C792 1.287 . S
C792 C791 1.287 . S
C792 C793 1.524 . S
C792 H811 0.913 . S
C793 H769 0.950 . S
C793 C792 1.524 . S
C793 C794 1.415 . S
C794 H770 0.950 . S
C794 C789 1.363 . S
C794 C793 1.415 . S
C795 H771 0.951 . S
C795 C796 1.366 . S
C795 C797 1.388 . S
C796 C795 1.366 . S
C796 C800 1.385 . S
C797 H772 0.951 . S
C797 C795 1.388 . S
C797 C798 1.366 . S
C798 C797 1.366 . S
C798 C799 1.414 . S
C798 C801 1.499 . S
C799 H773 0.950 . S
C799 C798 1.414 . S
C799 C800 1.374 . S
C800 H774 0.950 . S
C800 C796 1.385 . S
C800 C799 1.374 . S
C801 C798 1.499 . S
C801 C802 1.373 . S
C801 C803 1.389 . S
C802 H775 0.950 . S
C802 C788 1.377 . S
C802 C801 1.373 . S
C803 C787 1.377 . S
C803 C801 1.389 . S
C803 C804 1.524 . S
C804 C803 1.524 . S
C804 C805 1.397 . S
C804 C809 1.363 . S
C805 H776 0.950 . S
C805 C804 1.397 . S
C805 C806 1.334 . S
C806 H777 0.950 . S
C806 C805 1.334 . S
C806 C807 1.287 . S
C807 C806 1.287 . S
C807 C808 1.524 . S
C807 H810 0.999 . S
C808 H778 0.950 . S
C808 C807 1.524 . S
C808 C809 1.415 . S
C809 H779 0.950 . S
C809 C804 1.363 . S
C809 C808 1.415 . S
H810 C807 0.999 . S
H811 C792 0.913 . S
H812 C830 0.951 . S
H813 C832 0.951 . S
H814 C834 0.950 . S
H815 C835 0.950 . S
H816 C837 0.950 . S
H817 C840 0.950 . S
H818 C841 0.950 . S
H819 C843 0.950 . S
H820 C844 0.950 . S
H821 C845 0.951 . S
H822 C847 0.951 . S
H823 C849 0.950 . S
H824 C850 0.950 . S
H825 C852 0.950 . S
H826 C855 0.950 . S
H827 C856 0.950 . S
H828 C858 0.950 . S
H829 C859 0.950 . S
C830 H812 0.951 . S
C830 C831 1.366 . S
C830 C832 1.388 . S
C831 C830 1.366 . S
C831 C835 1.385 . S
C832 H813 0.951 . S
C832 C830 1.388 . S
C832 C833 1.366 . S
C833 C832 1.366 . S
C833 C834 1.414 . S
C833 C836 1.499 . S
C834 H814 0.950 . S
C834 C833 1.414 . S
C834 C835 1.374 . S
C835 H815 0.950 . S
C835 C831 1.385 . S
C835 C834 1.374 . S
C836 C833 1.499 . S
C836 C837 1.373 . S
C836 C838 1.389 . S
C837 H816 0.950 . S
C837 C836 1.373 . S
C837 C853 1.377 . S
C838 C836 1.389 . S
C838 C839 1.524 . S
C838 C852 1.377 . S
C839 C838 1.524 . S
C839 C840 1.397 . S
C839 C844 1.363 . S
C840 H817 0.950 . S
C840 C839 1.397 . S
C840 C841 1.334 . S
C841 H818 0.950 . S
C841 C840 1.334 . S
C841 C842 1.287 . S
C842 C841 1.287 . S
C842 C843 1.524 . S
C842 H861 0.913 . S
C843 H819 0.950 . S
C843 C842 1.524 . S
C843 C844 1.415 . S
C844 H820 0.950 . S
C844 C839 1.363 . S
C844 C843 1.415 . S
C845 H821 0.951 . S
C845 C846 1.366 . S
C845 C847 1.388 . S
C846 C845 1.366 . S
C846 C850 1.385 . S
C847 H822 0.951 . S
C847 C845 1.388 . S
C847 C848 1.366 . S
C848 C847 1.366 . S
C848 C849 1.414 . S
C848 C851 1.499 . S
C849 H823 0.950 . S
C849 C848 1.414 . S
C849 C850 1.374 . S
C850 H824 0.950 . S
C850 C846 1.385 . S
C850 C849 1.374 . S
C851 C848 1.499 . S
C851 C852 1.373 . S
C851 C853 1.389 . S
C852 H825 0.950 . S
C852 C838 1.377 . S
C852 C851 1.373 . S
C853 C837 1.377 . S
C853 C851 1.389 . S
C853 C854 1.524 . S
C854 C853 1.524 . S
C854 C855 1.397 . S
C854 C859 1.363 . S
C855 H826 0.950 . S
C855 C854 1.397 . S
C855 C856 1.334 . S
C856 H827 0.950 . S
C856 C855 1.334 . S
C856 C857 1.287 . S
C857 C856 1.287 . S
C857 C858 1.524 . S
C857 H860 0.999 . S
C858 H828 0.950 . S
C858 C857 1.524 . S
C858 C859 1.415 . S
C859 H829 0.950 . S
C859 C854 1.363 . S
C859 C858 1.415 . S
H860 C857 0.999 . S
H861 C842 0.913 . S
H862 C880 0.951 . S
H863 C882 0.951 . S
H864 C884 0.950 . S
H865 C885 0.950 . S
H866 C887 0.950 . S
H867 C890 0.950 . S
H868 C891 0.950 . S
H869 C893 0.950 . S
H870 C894 0.950 . S
H871 C895 0.951 . S
H872 C897 0.951 . S
H873 C899 0.950 . S
H874 C900 0.950 . S
H875 C902 0.950 . S
H876 C905 0.950 . S
H877 C906 0.950 . S
H878 C908 0.950 . S
H879 C909 0.950 . S
C880 H862 0.951 . S
C880 C881 1.366 . S
C880 C882 1.388 . S
C881 C880 1.366 . S
C881 C885 1.385 . S
C882 H863 0.951 . S
C882 C880 1.388 . S
C882 C883 1.366 . S
C883 C882 1.366 . S
C883 C884 1.414 . S
C883 C886 1.499 . S
C884 H864 0.950 . S
C884 C883 1.414 . S
C884 C885 1.374 . S
C885 H865 0.950 . S
C885 C881 1.385 . S
C885 C884 1.374 . S
C886 C883 1.499 . S
C886 C887 1.373 . S
C886 C888 1.389 . S
C887 H866 0.950 . S
C887 C886 1.373 . S
C887 C903 1.377 . S
C888 C886 1.389 . S
C888 C889 1.524 . S
C888 C902 1.377 . S
C889 C888 1.524 . S
C889 C890 1.397 . S
C889 C894 1.363 . S
C890 H867 0.950 . S
C890 C889 1.397 . S
C890 C891 1.334 . S
C891 H868 0.950 . S
C891 C890 1.334 . S
C891 C892 1.287 . S
C892 C891 1.287 . S
C892 C893 1.524 . S
C892 H911 0.913 . S
C893 H869 0.950 . S
C893 C892 1.524 . S
C893 C894 1.415 . S
C894 H870 0.950 . S
C894 C889 1.363 . S
C894 C893 1.415 . S
C895 H871 0.951 . S
C895 C896 1.366 . S
C895 C897 1.388 . S
C896 C895 1.366 . S
C896 C900 1.385 . S
C897 H872 0.951 . S
C897 C895 1.388 . S
C897 C898 1.366 . S
C898 C897 1.366 . S
C898 C899 1.414 . S
C898 C901 1.499 . S
C899 H873 0.950 . S
C899 C898 1.414 . S
C899 C900 1.374 . S
C900 H874 0.950 . S
C900 C896 1.385 . S
C900 C899 1.374 . S
C901 C898 1.499 . S
C901 C902 1.373 . S
C901 C903 1.389 . S
C902 H875 0.950 . S
C902 C888 1.377 . S
C902 C901 1.373 . S
C903 C887 1.377 . S
C903 C901 1.389 . S
C903 C904 1.524 . S
C904 C903 1.524 . S
C904 C905 1.397 . S
C904 C909 1.363 . S
C905 H876 0.950 . S
C905 C904 1.397 . S
C905 C906 1.334 . S
C906 H877 0.950 . S
C906 C905 1.334 . S
C906 C907 1.287 . S
C907 C906 1.287 . S
C907 C908 1.524 . S
C907 H910 0.999 . S
C908 H878 0.950 . S
C908 C907 1.524 . S
C908 C909 1.415 . S
C909 H879 0.950 . S
C909 C904 1.363 . S
C909 C908 1.415 . S
H910 C907 0.999 . S
H911 C892 0.913 . S
H912 C930 0.951 . S
H913 C932 0.951 . S
H914 C934 0.950 . S
H915 C935 0.950 . S
H916 C937 0.950 . S
H917 C940 0.950 . S
H918 C941 0.950 . S
H919 C943 0.950 . S
H920 C944 0.950 . S
H921 C945 0.951 . S
H922 C947 0.951 . S
H923 C949 0.950 . S
H924 C950 0.950 . S
H925 C952 0.950 . S
H926 C955 0.950 . S
H927 C956 0.950 . S
H928 C958 0.950 . S
H929 C959 0.950 . S
C930 H912 0.951 . S
C930 C931 1.366 . S
C930 C932 1.388 . S
C931 C930 1.366 . S
C931 C935 1.385 . S
C932 H913 0.951 . S
C932 C930 1.388 . S
C932 C933 1.366 . S
C933 C932 1.366 . S
C933 C934 1.414 . S
C933 C936 1.499 . S
C934 H914 0.950 . S
C934 C933 1.414 . S
C934 C935 1.374 . S
C935 H915 0.950 . S
C935 C931 1.385 . S
C935 C934 1.374 . S
C936 C933 1.499 . S
C936 C937 1.373 . S
C936 C938 1.389 . S
C937 H916 0.950 . S
C937 C936 1.373 . S
C937 C953 1.377 . S
C938 C936 1.389 . S
C938 C939 1.524 . S
C938 C952 1.377 . S
C939 C938 1.524 . S
C939 C940 1.397 . S
C939 C944 1.363 . S
C940 H917 0.950 . S
C940 C939 1.397 . S
C940 C941 1.334 . S
C941 H918 0.950 . S
C941 C940 1.334 . S
C941 C942 1.287 . S
C942 C941 1.287 . S
C942 C943 1.524 . S
C942 H961 0.913 . S
C943 H919 0.950 . S
C943 C942 1.524 . S
C943 C944 1.415 . S
C944 H920 0.950 . S
C944 C939 1.363 . S
C944 C943 1.415 . S
C945 H921 0.951 . S
C945 C946 1.366 . S
C945 C947 1.388 . S
C946 C945 1.366 . S
C946 C950 1.385 . S
C947 H922 0.951 . S
C947 C945 1.388 . S
C947 C948 1.366 . S
C948 C947 1.366 . S
C948 C949 1.414 . S
C948 C951 1.499 . S
C949 H923 0.950 . S
C949 C948 1.414 . S
C949 C950 1.374 . S
C950 H924 0.950 . S
C950 C946 1.385 . S
C950 C949 1.374 . S
C951 C948 1.499 . S
C951 C952 1.373 . S
C951 C953 1.389 . S
C952 H925 0.950 . S
C952 C938 1.377 . S
C952 C951 1.373 . S
C953 C937 1.377 . S
C953 C951 1.389 . S
C953 C954 1.524 . S
C954 C953 1.524 . S
C954 C955 1.397 . S
C954 C959 1.363 . S
C955 H926 0.950 . S
C955 C954 1.397 . S
C955 C956 1.334 . S
C956 H927 0.950 . S
C956 C955 1.334 . S
C956 C957 1.287 . S
C957 C956 1.287 . S
C957 C958 1.524 . S
C957 H960 0.999 . S
C958 H928 0.950 . S
C958 C957 1.524 . S
C958 C959 1.415 . S
C959 H929 0.950 . S
C959 C954 1.363 . S
C959 C958 1.415 . S
H960 C957 0.999 . S
H961 C942 0.913 . S
H962 C980 0.951 . S
H963 C982 0.951 . S
H964 C984 0.950 . S
H965 C985 0.950 . S
H966 C987 0.950 . S
H967 C990 0.950 . S
H968 C991 0.950 . S
H969 C993 0.950 . S
H970 C994 0.950 . S
H971 C995 0.951 . S
H972 C997 0.951 . S
H973 C999 0.950 . S
H974 C1000 0.950 . S
H975 C1002 0.950 . S
H976 C1005 0.950 . S
H977 C1006 0.950 . S
H978 C1008 0.950 . S
H979 C1009 0.950 . S
C980 H962 0.951 . S
C980 C981 1.366 . S
C980 C982 1.388 . S
C981 C980 1.366 . S
C981 C985 1.385 . S
C982 H963 0.951 . S
C982 C980 1.388 . S
C982 C983 1.366 . S
C983 C982 1.366 . S
C983 C984 1.414 . S
C983 C986 1.499 . S
C984 H964 0.950 . S
C984 C983 1.414 . S
C984 C985 1.374 . S
C985 H965 0.950 . S
C985 C981 1.385 . S
C985 C984 1.374 . S
C986 C983 1.499 . S
C986 C987 1.373 . S
C986 C988 1.389 . S
C987 H966 0.950 . S
C987 C986 1.373 . S
C987 C1003 1.377 . S
C988 C986 1.389 . S
C988 C989 1.524 . S
C988 C1002 1.377 . S
C989 C988 1.524 . S
C989 C990 1.397 . S
C989 C994 1.363 . S
C990 H967 0.950 . S
C990 C989 1.397 . S
C990 C991 1.334 . S
C991 H968 0.950 . S
C991 C990 1.334 . S
C991 C992 1.287 . S
C992 C991 1.287 . S
C992 C993 1.524 . S
C992 H1011 0.913 . S
C993 H969 0.950 . S
C993 C992 1.524 . S
C993 C994 1.415 . S
C994 H970 0.950 . S
C994 C989 1.363 . S
C994 C993 1.415 . S
C995 H971 0.951 . S
C995 C996 1.366 . S
C995 C997 1.388 . S
C996 C995 1.366 . S
C996 C1000 1.385 . S
C997 H972 0.951 . S
C997 C995 1.388 . S
C997 C998 1.366 . S
C998 C997 1.366 . S
C998 C999 1.414 . S
C998 C1001 1.499 . S
C999 H973 0.950 . S
C999 C998 1.414 . S
C999 C1000 1.374 . S
C1000 H974 0.950 . S
C1000 C996 1.385 . S
C1000 C999 1.374 . S
C1001 C998 1.499 . S
C1001 C1002 1.373 . S
C1001 C1003 1.389 . S
C1002 H975 0.950 . S
C1002 C988 1.377 . S
C1002 C1001 1.373 . S
C1003 C987 1.377 . S
C1003 C1001 1.389 . S
C1003 C1004 1.524 . S
C1004 C1003 1.524 . S
C1004 C1005 1.397 . S
C1004 C1009 1.363 . S
C1005 H976 0.950 . S
C1005 C1004 1.397 . S
C1005 C1006 1.334 . S
C1006 H977 0.950 . S
C1006 C1005 1.334 . S
C1006 C1007 1.287 . S
C1007 C1006 1.287 . S
C1007 C1008 1.524 . S
C1007 H1010 0.999 . S
C1008 H978 0.950 . S
C1008 C1007 1.524 . S
C1008 C1009 1.415 . S
C1009 H979 0.950 . S
C1009 C1004 1.363 . S
C1009 C1008 1.415 . S
H1010 C1007 0.999 . S
H1011 C992 0.913 . S
H1012 C1030 0.951 . S
H1013 C1032 0.951 . S
H1014 C1034 0.950 . S
H1015 C1035 0.950 . S
H1016 C1037 0.950 . S
H1017 C1040 0.950 . S
H1018 C1041 0.950 . S
H1019 C1043 0.950 . S
H1020 C1044 0.950 . S
H1021 C1045 0.951 . S
H1022 C1047 0.951 . S
H1023 C1049 0.950 . S
H1024 C1050 0.950 . S
H1025 C1052 0.950 . S
H1026 C1055 0.950 . S
H1027 C1056 0.950 . S
H1028 C1058 0.950 . S
H1029 C1059 0.950 . S
C1030 H1012 0.951 . S
C1030 C1031 1.366 . S
C1030 C1032 1.388 . S
C1031 C1030 1.366 . S
C1031 C1035 1.385 . S
C1032 H1013 0.951 . S
C1032 C1030 1.388 . S
C1032 C1033 1.366 . S
C1033 C1032 1.366 . S
C1033 C1034 1.414 . S
C1033 C1036 1.499 . S
C1034 H1014 0.950 . S
C1034 C1033 1.414 . S
C1034 C1035 1.374 . S
C1035 H1015 0.950 . S
C1035 C1031 1.385 . S
C1035 C1034 1.374 . S
C1036 C1033 1.499 . S
C1036 C1037 1.373 . S
C1036 C1038 1.389 . S
C1037 H1016 0.950 . S
C1037 C1036 1.373 . S
C1037 C1053 1.377 . S
C1038 C1036 1.389 . S
C1038 C1039 1.524 . S
C1038 C1052 1.377 . S
C1039 C1038 1.524 . S
C1039 C1040 1.397 . S
C1039 C1044 1.363 . S
C1040 H1017 0.950 . S
C1040 C1039 1.397 . S
C1040 C1041 1.334 . S
C1041 H1018 0.950 . S
C1041 C1040 1.334 . S
C1041 C1042 1.287 . S
C1042 C1041 1.287 . S
C1042 C1043 1.524 . S
C1042 H1061 0.913 . S
C1043 H1019 0.950 . S
C1043 C1042 1.524 . S
C1043 C1044 1.415 . S
C1044 H1020 0.950 . S
C1044 C1039 1.363 . S
C1044 C1043 1.415 . S
C1045 H1021 0.951 . S
C1045 C1046 1.366 . S
C1045 C1047 1.388 . S
C1046 C1045 1.366 . S
C1046 C1050 1.385 . S
C1047 H1022 0.951 . S
C1047 C1045 1.388 . S
C1047 C1048 1.366 . S
C1048 C1047 1.366 . S
C1048 C1049 1.414 . S
C1048 C1051 1.499 . S
C1049 H1023 0.950 . S
C1049 C1048 1.414 . S
C1049 C1050 1.374 . S
C1050 H1024 0.950 . S
C1050 C1046 1.385 . S
C1050 C1049 1.374 . S
C1051 C1048 1.499 . S
C1051 C1052 1.373 . S
C1051 C1053 1.389 . S
C1052 H1025 0.950 . S
C1052 C1038 1.377 . S
C1052 C1051 1.373 . S
C1053 C1037 1.377 . S
C1053 C1051 1.389 . S
C1053 C1054 1.524 . S
C1054 C1053 1.524 . S
C1054 C1055 1.397 . S
C1054 C1059 1.363 . S
C1055 H1026 0.950 . S
C1055 C1054 1.397 . S
C1055 C1056 1.334 . S
C1056 H1027 0.950 . S
C1056 C1055 1.334 . S
C1056 C1057 1.287 . S
C1057 C1056 1.287 . S
C1057 C1058 1.524 . S
C1057 H1060 0.999 . S
C1058 H1028 0.950 . S
C1058 C1057 1.524 . S
C1058 C1059 1.415 . S
C1059 H1029 0.950 . S
C1059 C1054 1.363 . S
C1059 C1058 1.415 . S
H1060 C1057 0.999 . S
H1061 C1042 0.913 . S
H1062 C1080 0.951 . S
H1063 C1082 0.951 . S
H1064 C1084 0.950 . S
H1065 C1085 0.950 . S
H1066 C1087 0.950 . S
H1067 C1090 0.950 . S
H1068 C1091 0.950 . S
H1069 C1093 0.950 . S
H1070 C1094 0.950 . S
H1071 C1095 0.951 . S
H1072 C1097 0.951 . S
H1073 C1099 0.950 . S
H1074 C1100 0.950 . S
H1075 C1102 0.950 . S
H1076 C1105 0.950 . S
H1077 C1106 0.950 . S
H1078 C1108 0.950 . S
H1079 C1109 0.950 . S
C1080 H1062 0.951 . S
C1080 C1081 1.366 . S
C1080 C1082 1.388 . S
C1081 C1080 1.366 . S
C1081 C1085 1.385 . S
C1082 H1063 0.951 . S
C1082 C1080 1.388 . S
C1082 C1083 1.366 . S
C1083 C1082 1.366 . S
C1083 C1084 1.414 . S
C1083 C1086 1.499 . S
C1084 H1064 0.950 . S
C1084 C1083 1.414 . S
C1084 C1085 1.374 . S
C1085 H1065 0.950 . S
C1085 C1081 1.385 . S
C1085 C1084 1.374 . S
C1086 C1083 1.499 . S
C1086 C1087 1.373 . S
C1086 C1088 1.389 . S
C1087 H1066 0.950 . S
C1087 C1086 1.373 . S
C1087 C1103 1.377 . S
C1088 C1086 1.389 . S
C1088 C1089 1.524 . S
C1088 C1102 1.377 . S
C1089 C1088 1.524 . S
C1089 C1090 1.397 . S
C1089 C1094 1.363 . S
C1090 H1067 0.950 . S
C1090 C1089 1.397 . S
C1090 C1091 1.334 . S
C1091 H1068 0.950 . S
C1091 C1090 1.334 . S
C1091 C1092 1.287 . S
C1092 C1091 1.287 . S
C1092 C1093 1.524 . S
C1092 H1111 0.913 . S
C1093 H1069 0.950 . S
C1093 C1092 1.524 . S
C1093 C1094 1.415 . S
C1094 H1070 0.950 . S
C1094 C1089 1.363 . S
C1094 C1093 1.415 . S
C1095 H1071 0.951 . S
C1095 C1096 1.366 . S
C1095 C1097 1.388 . S
C1096 C1095 1.366 . S
C1096 C1100 1.385 . S
C1097 H1072 0.951 . S
C1097 C1095 1.388 . S
C1097 C1098 1.366 . S
C1098 C1097 1.366 . S
C1098 C1099 1.414 . S
C1098 C1101 1.499 . S
C1099 H1073 0.950 . S
C1099 C1098 1.414 . S
C1099 C1100 1.374 . S
C1100 H1074 0.950 . S
C1100 C1096 1.385 . S
C1100 C1099 1.374 . S
C1101 C1098 1.499 . S
C1101 C1102 1.373 . S
C1101 C1103 1.389 . S
C1102 H1075 0.950 . S
C1102 C1088 1.377 . S
C1102 C1101 1.373 . S
C1103 C1087 1.377 . S
C1103 C1101 1.389 . S
C1103 C1104 1.524 . S
C1104 C1103 1.524 . S
C1104 C1105 1.397 . S
C1104 C1109 1.363 . S
C1105 H1076 0.950 . S
C1105 C1104 1.397 . S
C1105 C1106 1.334 . S
C1106 H1077 0.950 . S
C1106 C1105 1.334 . S
C1106 C1107 1.287 . S
C1107 C1106 1.287 . S
C1107 C1108 1.524 . S
C1107 H1110 0.999 . S
C1108 H1078 0.950 . S
C1108 C1107 1.524 . S
C1108 C1109 1.415 . S
C1109 H1079 0.950 . S
C1109 C1104 1.363 . S
C1109 C1108 1.415 . S
H1110 C1107 0.999 . S
H1111 C1092 0.913 . S
H1112 C1130 0.951 . S
H1113 C1132 0.951 . S
H1114 C1134 0.950 . S
H1115 C1135 0.950 . S
H1116 C1137 0.950 . S
H1117 C1140 0.950 . S
H1118 C1141 0.950 . S
H1119 C1143 0.950 . S
H1120 C1144 0.950 . S
H1121 C1145 0.951 . S
H1122 C1147 0.951 . S
H1123 C1149 0.950 . S
H1124 C1150 0.950 . S
H1125 C1152 0.950 . S
H1126 C1155 0.950 . S
H1127 C1156 0.950 . S
H1128 C1158 0.950 . S
H1129 C1159 0.950 . S
C1130 H1112 0.951 . S
C1130 C1131 1.366 . S
C1130 C1132 1.388 . S
C1131 C1130 1.366 . S
C1131 C1135 1.385 . S
C1132 H1113 0.951 . S
C1132 C1130 1.388 . S
C1132 C1133 1.366 . S
C1133 C1132 1.366 . S
C1133 C1134 1.414 . S
C1133 C1136 1.499 . S
C1134 H1114 0.950 . S
C1134 C1133 1.414 . S
C1134 C1135 1.374 . S
C1135 H1115 0.950 . S
C1135 C1131 1.385 . S
C1135 C1134 1.374 . S
C1136 C1133 1.499 . S
C1136 C1137 1.373 . S
C1136 C1138 1.389 . S
C1137 H1116 0.950 . S
C1137 C1136 1.373 . S
C1137 C1153 1.377 . S
C1138 C1136 1.389 . S
C1138 C1139 1.524 . S
C1138 C1152 1.377 . S
C1139 C1138 1.524 . S
C1139 C1140 1.397 . S
C1139 C1144 1.363 . S
C1140 H1117 0.950 . S
C1140 C1139 1.397 . S
C1140 C1141 1.334 . S
C1141 H1118 0.950 . S
C1141 C1140 1.334 . S
C1141 C1142 1.287 . S
C1142 C1141 1.287 . S
C1142 C1143 1.524 . S
C1142 H1161 0.913 . S
C1143 H1119 0.950 . S
C1143 C1142 1.524 . S
C1143 C1144 1.415 . S
C1144 H1120 0.950 . S
C1144 C1139 1.363 . S
C1144 C1143 1.415 . S
C1145 H1121 0.951 . S
C1145 C1146 1.366 . S
C1145 C1147 1.388 . S
C1146 C1145 1.366 . S
C1146 C1150 1.385 . S
C1147 H1122 0.951 . S
C1147 C1145 1.388 . S
C1147 C1148 1.366 . S
C1148 C1147 1.366 . S
C1148 C1149 1.414 . S
C1148 C1151 1.499 . S
C1149 H1123 0.950 . S
C1149 C1148 1.414 . S
C1149 C1150 1.374 . S
C1150 H1124 0.950 . S
C1150 C1146 1.385 . S
C1150 C1149 1.374 . S
C1151 C1148 1.499 . S
C1151 C1152 1.373 . S
C1151 C1153 1.389 . S
C1152 H1125 0.950 . S
C1152 C1138 1.377 . S
C1152 C1151 1.373 . S
C1153 C1137 1.377 . S
C1153 C1151 1.389 . S
C1153 C1154 1.524 . S
C1154 C1153 1.524 . S
C1154 C1155 1.397 . S
C1154 C1159 1.363 . S
C1155 H1126 0.950 . S
C1155 C1154 1.397 . S
C1155 C1156 1.334 . S
C1156 H1127 0.950 . S
C1156 C1155 1.334 . S
C1156 C1157 1.287 . S
C1157 C1156 1.287 . S
C1157 C1158 1.524 . S
C1157 H1160 0.999 . S
C1158 H1128 0.950 . S
C1158 C1157 1.524 . S
C1158 C1159 1.415 . S
C1159 H1129 0.950 . S
C1159 C1154 1.363 . S
C1159 C1158 1.415 . S
H1160 C1157 0.999 . S
H1161 C1142 0.913 . S
H1162 C1180 0.951 . S
H1163 C1182 0.951 . S
H1164 C1184 0.950 . S
H1165 C1185 0.950 . S
H1166 C1187 0.950 . S
H1167 C1190 0.950 . S
H1168 C1191 0.950 . S
H1169 C1193 0.950 . S
H1170 C1194 0.950 . S
H1171 C1195 0.951 . S
H1172 C1197 0.951 . S
H1173 C1199 0.950 . S
H1174 C1200 0.950 . S
H1175 C1202 0.950 . S
H1176 C1205 0.950 . S
H1177 C1206 0.950 . S
H1178 C1208 0.950 . S
H1179 C1209 0.950 . S
C1180 H1162 0.951 . S
C1180 C1181 1.366 . S
C1180 C1182 1.388 . S
C1181 C1180 1.366 . S
C1181 C1185 1.385 . S
C1182 H1163 0.951 . S
C1182 C1180 1.388 . S
C1182 C1183 1.366 . S
C1183 C1182 1.366 . S
C1183 C1184 1.414 . S
C1183 C1186 1.499 . S
C1184 H1164 0.950 . S
C1184 C1183 1.414 . S
C1184 C1185 1.374 . S
C1185 H1165 0.950 . S
C1185 C1181 1.385 . S
C1185 C1184 1.374 . S
C1186 C1183 1.499 . S
C1186 C1187 1.373 . S
C1186 C1188 1.389 . S
C1187 H1166 0.950 . S
C1187 C1186 1.373 . S
C1187 C1203 1.377 . S
C1188 C1186 1.389 . S
C1188 C1189 1.524 . S
C1188 C1202 1.377 . S
C1189 C1188 1.524 . S
C1189 C1190 1.397 . S
C1189 C1194 1.363 . S
C1190 H1167 0.950 . S
C1190 C1189 1.397 . S
C1190 C1191 1.334 . S
C1191 H1168 0.950 . S
C1191 C1190 1.334 . S
C1191 C1192 1.287 . S
C1192 C1191 1.287 . S
C1192 C1193 1.524 . S
C1192 H1211 0.913 . S
C1193 H1169 0.950 . S
C1193 C1192 1.524 . S
C1193 C1194 1.415 . S
C1194 H1170 0.950 . S
C1194 C1189 1.363 . S
C1194 C1193 1.415 . S
C1195 H1171 0.951 . S
C1195 C1196 1.366 . S
C1195 C1197 1.388 . S
C1196 C1195 1.366 . S
C1196 C1200 1.385 . S
C1197 H1172 0.951 . S
C1197 C1195 1.388 . S
C1197 C1198 1.366 . S
C1198 C1197 1.366 . S
C1198 C1199 1.414 . S
C1198 C1201 1.499 . S
C1199 H1173 0.950 . S
C1199 C1198 1.414 . S
C1199 C1200 1.374 . S
C1200 H1174 0.950 . S
C1200 C1196 1.385 . S
C1200 C1199 1.374 . S
C1201 C1198 1.499 . S
C1201 C1202 1.373 . S
C1201 C1203 1.389 . S
C1202 H1175 0.950 . S
C1202 C1188 1.377 . S
C1202 C1201 1.373 . S
C1203 C1187 1.377 . S
C1203 C1201 1.389 . S
C1203 C1204 1.524 . S
C1204 C1203 1.524 . S
C1204 C1205 1.397 . S
C1204 C1209 1.363 . S
C1205 H1176 0.950 . S
C1205 C1204 1.397 . S
C1205 C1206 1.334 . S
C1206 H1177 0.950 . S
C1206 C1205 1.334 . S
C1206 C1207 1.287 . S
C1207 C1206 1.287 . S
C1207 C1208 1.524 . S
C1207 H1210 0.999 . S
C1208 H1178 0.950 . S
C1208 C1207 1.524 . S
C1208 C1209 1.415 . S
C1209 H1179 0.950 . S
C1209 C1204 1.363 . S
C1209 C1208 1.415 . S
H1210 C1207 0.999 . S
H1211 C1192 0.913 . S
H1212 C1230 0.951 . S
H1213 C1232 0.951 . S
H1214 C1234 0.950 . S
H1215 C1235 0.950 . S
H1216 C1237 0.950 . S
H1217 C1240 0.950 . S
H1218 C1241 0.950 . S
H1219 C1243 0.950 . S
H1220 C1244 0.950 . S
H1221 C1245 0.951 . S
H1222 C1247 0.951 . S
H1223 C1249 0.950 . S
H1224 C1250 0.950 . S
H1225 C1252 0.950 . S
H1226 C1255 0.950 . S
H1227 C1256 0.950 . S
H1228 C1258 0.950 . S
H1229 C1259 0.950 . S
C1230 H1212 0.951 . S
C1230 C1231 1.366 . S
C1230 C1232 1.388 . S
C1231 C1230 1.366 . S
C1231 C1235 1.385 . S
C1232 H1213 0.951 . S
C1232 C1230 1.388 . S
C1232 C1233 1.366 . S
C1233 C1232 1.366 . S
C1233 C1234 1.414 . S
C1233 C1236 1.499 . S
C1234 H1214 0.950 . S
C1234 C1233 1.414 . S
C1234 C1235 1.374 . S
C1235 H1215 0.950 . S
C1235 C1231 1.385 . S
C1235 C1234 1.374 . S
C1236 C1233 1.499 . S
C1236 C1237 1.373 . S
C1236 C1238 1.389 . S
C1237 H1216 0.950 . S
C1237 C1236 1.373 . S
C1237 C1253 1.377 . S
C1238 C1236 1.389 . S
C1238 C1239 1.524 . S
C1238 C1252 1.377 . S
C1239 C1238 1.524 . S
C1239 C1240 1.397 . S
C1239 C1244 1.363 . S
C1240 H1217 0.950 . S
C1240 C1239 1.397 . S
C1240 C1241 1.334 . S
C1241 H1218 0.950 . S
C1241 C1240 1.334 . S
C1241 C1242 1.287 . S
C1242 C1241 1.287 . S
C1242 C1243 1.524 . S
C1242 H1261 0.913 . S
C1243 H1219 0.950 . S
C1243 C1242 1.524 . S
C1243 C1244 1.415 . S
C1244 H1220 0.950 . S
C1244 C1239 1.363 . S
C1244 C1243 1.415 . S
C1245 H1221 0.951 . S
C1245 C1246 1.366 . S
C1245 C1247 1.388 . S
C1246 C1245 1.366 . S
C1246 C1250 1.385 . S
C1247 H1222 0.951 . S
C1247 C1245 1.388 . S
C1247 C1248 1.366 . S
C1248 C1247 1.366 . S
C1248 C1249 1.414 . S
C1248 C1251 1.499 . S
C1249 H1223 0.950 . S
C1249 C1248 1.414 . S
C1249 C1250 1.374 . S
C1250 H1224 0.950 . S
C1250 C1246 1.385 . S
C1250 C1249 1.374 . S
C1251 C1248 1.499 . S
C1251 C1252 1.373 . S
C1251 C1253 1.389 . S
C1252 H1225 0.950 . S
C1252 C1238 1.377 . S
C1252 C1251 1.373 . S
C1253 C1237 1.377 . S
C1253 C1251 1.389 . S
C1253 C1254 1.524 . S
C1254 C1253 1.524 . S
C1254 C1255 1.397 . S
C1254 C1259 1.363 . S
C1255 H1226 0.950 . S
C1255 C1254 1.397 . S
C1255 C1256 1.334 . S
C1256 H1227 0.950 . S
C1256 C1255 1.334 . S
C1256 C1257 1.287 . S
C1257 C1256 1.287 . S
C1257 C1258 1.524 . S
C1257 H1260 0.999 . S
C1258 H1228 0.950 . S
C1258 C1257 1.524 . S
C1258 C1259 1.415 . S
C1259 H1229 0.950 . S
C1259 C1254 1.363 . S
C1259 C1258 1.415 . S
H1260 C1257 0.999 . S
H1261 C1242 0.913 . S
H1262 C1280 0.951 . S
H1263 C1282 0.951 . S
H1264 C1284 0.950 . S
H1265 C1285 0.950 . S
H1266 C1287 0.950 . S
H1267 C1290 0.950 . S
H1268 C1291 0.950 . S
H1269 C1293 0.950 . S
H1270 C1294 0.950 . S
H1271 C1295 0.951 . S
H1272 C1297 0.951 . S
H1273 C1299 0.950 . S
H1274 C1300 0.950 . S
H1275 C1302 0.950 . S
H1276 C1305 0.950 . S
H1277 C1306 0.950 . S
H1278 C1308 0.950 . S
H1279 C1309 0.950 . S
C1280 H1262 0.951 . S
C1280 C1281 1.366 . S
C1280 C1282 1.388 . S
C1281 C1280 1.366 . S
C1281 C1285 1.385 . S
C1282 H1263 0.951 . S
C1282 C1280 1.388 . S
C1282 C1283 1.366 . S
C1283 C1282 1.366 . S
C1283 C1284 1.414 . S
C1283 C1286 1.499 . S
C1284 H1264 0.950 . S
C1284 C1283 1.414 . S
C1284 C1285 1.374 . S
C1285 H1265 0.950 . S
C1285 C1281 1.385 . S
C1285 C1284 1.374 . S
C1286 C1283 1.499 . S
C1286 C1287 1.373 . S
C1286 C1288 1.389 . S
C1287 H1266 0.950 . S
C1287 C1286 1.373 . S
C1287 C1303 1.377 . S
C1288 C1286 1.389 . S
C1288 C1289 1.524 . S
C1288 C1302 1.377 . S
C1289 C1288 1.524 . S
C1289 C1290 1.397 . S
C1289 C1294 1.363 . S
C1290 H1267 0.950 . S
C1290 C1289 1.397 . S
C1290 C1291 1.334 . S
C1291 H1268 0.950 . S
C1291 C1290 1.334 . S
C1291 C1292 1.287 . S
C1292 C1291 1.287 . S
C1292 C1293 1.524 . S
C1292 H1311 0.913 . S
C1293 H1269 0.950 . S
C1293 C1292 1.524 . S
C1293 C1294 1.415 . S
C1294 H1270 0.950 . S
C1294 C1289 1.363 . S
C1294 C1293 1.415 . S
C1295 H1271 0.951 . S
C1295 C1296 1.366 . S
C1295 C1297 1.388 . S
C1296 C1295 1.366 . S
C1296 C1300 1.385 . S
C1297 H1272 0.951 . S
C1297 C1295 1.388 . S
C1297 C1298 1.366 . S
C1298 C1297 1.366 . S
C1298 C1299 1.414 . S
C1298 C1301 1.499 . S
C1299 H1273 0.950 . S
C1299 C1298 1.414 . S
C1299 C1300 1.374 . S
C1300 H1274 0.950 . S
C1300 C1296 1.385 . S
C1300 C1299 1.374 . S
C1301 C1298 1.499 . S
C1301 C1302 1.373 . S
C1301 C1303 1.389 . S
C1302 H1275 0.950 . S
C1302 C1288 1.377 . S
C1302 C1301 1.373 . S
C1303 C1287 1.377 . S
C1303 C1301 1.389 . S
C1303 C1304 1.524 . S
C1304 C1303 1.524 . S
C1304 C1305 1.397 . S
C1304 C1309 1.363 . S
C1305 H1276 0.950 . S
C1305 C1304 1.397 . S
C1305 C1306 1.334 . S
C1306 H1277 0.950 . S
C1306 C1305 1.334 . S
C1306 C1307 1.287 . S
C1307 C1306 1.287 . S
C1307 C1308 1.524 . S
C1307 H1310 0.999 . S
C1308 H1278 0.950 . S
C1308 C1307 1.524 . S
C1308 C1309 1.415 . S
C1309 H1279 0.950 . S
C1309 C1304 1.363 . S
C1309 C1308 1.415 . S
H1310 C1307 0.999 . S
H1311 C1292 0.913 . S
H1312 C1330 0.951 . S
H1313 C1332 0.951 . S
H1314 C1334 0.950 . S
H1315 C1335 0.950 . S
H1316 C1337 0.950 . S
H1317 C1340 0.950 . S
H1318 C1341 0.950 . S
H1319 C1343 0.950 . S
H1320 C1344 0.950 . S
H1321 C1345 0.951 . S
H1322 C1347 0.951 . S
H1323 C1349 0.950 . S
H1324 C1350 0.950 . S
H1325 C1352 0.950 . S
H1326 C1355 0.950 . S
H1327 C1356 0.950 . S
H1328 C1358 0.950 . S
H1329 C1359 0.950 . S
C1330 H1312 0.951 . S
C1330 C1331 1.366 . S
C1330 C1332 1.388 . S
C1331 C1330 1.366 . S
C1331 C1335 1.385 . S
C1332 H1313 0.951 . S
C1332 C1330 1.388 . S
C1332 C1333 1.366 . S
C1333 C1332 1.366 . S
C1333 C1334 1.414 . S
C1333 C1336 1.499 . S
C1334 H1314 0.950 . S
C1334 C1333 1.414 . S
C1334 C1335 1.374 . S
C1335 H1315 0.950 . S
C1335 C1331 1.385 . S
C1335 C1334 1.374 . S
C1336 C1333 1.499 . S
C1336 C1337 1.373 . S
C1336 C1338 1.389 . S
C1337 H1316 0.950 . S
C1337 C1336 1.373 . S
C1337 C1353 1.377 . S
C1338 C1336 1.389 . S
C1338 C1339 1.524 . S
C1338 C1352 1.377 . S
C1339 C1338 1.524 . S
C1339 C1340 1.397 . S
C1339 C1344 1.363 . S
C1340 H1317 0.950 . S
C1340 C1339 1.397 . S
C1340 C1341 1.334 . S
C1341 H1318 0.950 . S
C1341 C1340 1.334 . S
C1341 C1342 1.287 . S
C1342 C1341 1.287 . S
C1342 C1343 1.524 . S
C1342 H1361 0.913 . S
C1343 H1319 0.950 . S
C1343 C1342 1.524 . S
C1343 C1344 1.415 . S
C1344 H1320 0.950 . S
C1344 C1339 1.363 . S
C1344 C1343 1.415 . S
C1345 H1321 0.951 . S
C1345 C1346 1.366 . S
C1345 C1347 1.388 . S
C1346 C1345 1.366 . S
C1346 C1350 1.385 . S
C1347 H1322 0.951 . S
C1347 C1345 1.388 . S
C1347 C1348 1.366 . S
C1348 C1347 1.366 . S
C1348 C1349 1.414 . S
C1348 C1351 1.499 . S
C1349 H1323 0.950 . S
C1349 C1348 1.414 . S
C1349 C1350 1.374 . S
C1350 H1324 0.950 . S
C1350 C1346 1.385 . S
C1350 C1349 1.374 . S
C1351 C1348 1.499 . S
C1351 C1352 1.373 . S
C1351 C1353 1.389 . S
C1352 H1325 0.950 . S
C1352 C1338 1.377 . S
C1352 C1351 1.373 . S
C1353 C1337 1.377 . S
C1353 C1351 1.389 . S
C1353 C1354 1.524 . S
C1354 C1353 1.524 . S
C1354 C1355 1.397 . S
C1354 C1359 1.363 . S
C1355 H1326 0.950 . S
C1355 C1354 1.397 . S
C1355 C1356 1.334 . S
C1356 H1327 0.950 . S
C1356 C1355 1.334 . S
C1356 C1357 1.287 . S
C1357 C1356 1.287 . S
C1357 C1358 1.524 . S
C1357 H1360 0.999 . S
C1358 H1328 0.950 . S
C1358 C1357 1.524 . S
C1358 C1359 1.415 . S
C1359 H1329 0.950 . S
C1359 C1354 1.363 . S
C1359 C1358 1.415 . S
H1360 C1357 0.999 . S
H1361 C1342 0.913 . S
H1362 C1380 0.951 . S
H1363 C1382 0.951 . S
H1364 C1384 0.950 . S
H1365 C1385 0.950 . S
H1366 C1387 0.950 . S
H1367 C1390 0.950 . S
H1368 C1391 0.950 . S
H1369 C1393 0.950 . S
H1370 C1394 0.950 . S
H1371 C1395 0.951 . S
H1372 C1397 0.951 . S
H1373 C1399 0.950 . S
H1374 C1400 0.950 . S
H1375 C1402 0.950 . S
H1376 C1405 0.950 . S
H1377 C1406 0.950 . S
H1378 C1408 0.950 . S
H1379 C1409 0.950 . S
C1380 H1362 0.951 . S
C1380 C1381 1.366 . S
C1380 C1382 1.388 . S
C1381 C1380 1.366 . S
C1381 C1385 1.385 . S
C1382 H1363 0.951 . S
C1382 C1380 1.388 . S
C1382 C1383 1.366 . S
C1383 C1382 1.366 . S
C1383 C1384 1.414 . S
C1383 C1386 1.499 . S
C1384 H1364 0.950 . S
C1384 C1383 1.414 . S
C1384 C1385 1.374 . S
C1385 H1365 0.950 . S
C1385 C1381 1.385 . S
C1385 C1384 1.374 . S
C1386 C1383 1.499 . S
C1386 C1387 1.373 . S
C1386 C1388 1.389 . S
C1387 H1366 0.950 . S
C1387 C1386 1.373 . S
C1387 C1403 1.377 . S
C1388 C1386 1.389 . S
C1388 C1389 1.524 . S
C1388 C1402 1.377 . S
C1389 C1388 1.524 . S
C1389 C1390 1.397 . S
C1389 C1394 1.363 . S
C1390 H1367 0.950 . S
C1390 C1389 1.397 . S
C1390 C1391 1.334 . S
C1391 H1368 0.950 . S
C1391 C1390 1.334 . S
C1391 C1392 1.287 . S
C1392 C1391 1.287 . S
C1392 C1393 1.524 . S
C1392 H1411 0.913 . S
C1393 H1369 0.950 . S
C1393 C1392 1.524 . S
C1393 C1394 1.415 . S
C1394 H1370 0.950 . S
C1394 C1389 1.363 . S
C1394 C1393 1.415 . S
C1395 H1371 0.951 . S
C1395 C1396 1.366 . S
C1395 C1397 1.388 . S
C1396 C1395 1.366 . S
C1396 C1400 1.385 . S
C1397 H1372 0.951 . S
C1397 C1395 1.388 . S
C1397 C1398 1.366 . S
C1398 C1397 1.366 . S
C1398 C1399 1.414 . S
C1398 C1401 1.499 . S
C1399 H1373 0.950 . S
C1399 C1398 1.414 . S
C1399 C1400 1.374 . S
C1400 H1374 0.950 . S
C1400 C1396 1.385 . S
C1400 C1399 1.374 . S
C1401 C1398 1.499 . S
C1401 C1402 1.373 . S
C1401 C1403 1.389 . S
C1402 H1375 0.950 . S
C1402 C1388 1.377 . S
C1402 C1401 1.373 . S
C1403 C1387 1.377 . S
C1403 C1401 1.389 . S
C1403 C1404 1.524 . S
C1404 C1403 1.524 . S
C1404 C1405 1.397 . S
C1404 C1409 1.363 . S
C1405 H1376 0.950 . S
C1405 C1404 1.397 . S
C1405 C1406 1.334 . S
C1406 H1377 0.950 . S
C1406 C1405 1.334 . S
C1406 C1407 1.287 . S
C1407 C1406 1.287 . S
C1407 C1408 1.524 . S
C1407 H1410 0.999 . S
C1408 H1378 0.950 . S
C1408 C1407 1.524 . S
C1408 C1409 1.415 . S
C1409 H1379 0.950 . S
C1409 C1404 1.363 . S
C1409 C1408 1.415 . S
H1410 C1407 0.999 . S
H1411 C1392 0.913 . S
H1412 C1430 0.951 . S
H1413 C1432 0.951 . S
H1414 C1434 0.950 . S
H1415 C1435 0.950 . S
H1416 C1437 0.950 . S
H1417 C1440 0.950 . S
H1418 C1441 0.950 . S
H1419 C1443 0.950 . S
H1420 C1444 0.950 . S
H1421 C1445 0.951 . S
H1422 C1447 0.951 . S
H1423 C1449 0.950 . S
H1424 C1450 0.950 . S
H1425 C1452 0.950 . S
H1426 C1455 0.950 . S
H1427 C1456 0.950 . S
H1428 C1458 0.950 . S
H1429 C1459 0.950 . S
C1430 H1412 0.951 . S
C1430 C1431 1.366 . S
C1430 C1432 1.388 . S
C1431 C1430 1.366 . S
C1431 C1435 1.385 . S
C1432 H1413 0.951 . S
C1432 C1430 1.388 . S
C1432 C1433 1.366 . S
C1433 C1432 1.366 . S
C1433 C1434 1.414 . S
C1433 C1436 1.499 . S
C1434 H1414 0.950 . S
C1434 C1433 1.414 . S
C1434 C1435 1.374 . S
C1435 H1415 0.950 . S
C1435 C1431 1.385 . S
C1435 C1434 1.374 . S
C1436 C1433 1.499 . S
C1436 C1437 1.373 . S
C1436 C1438 1.389 . S
C1437 H1416 0.950 . S
C1437 C1436 1.373 . S
C1437 C1453 1.377 . S
C1438 C1436 1.389 . S
C1438 C1439 1.524 . S
C1438 C1452 1.377 . S
C1439 C1438 1.524 . S
C1439 C1440 1.397 . S
C1439 C1444 1.363 . S
C1440 H1417 0.950 . S
C1440 C1439 1.397 . S
C1440 C1441 1.334 . S
C1441 H1418 0.950 . S
C1441 C1440 1.334 . S
C1441 C1442 1.287 . S
C1442 C1441 1.287 . S
C1442 C1443 1.524 . S
C1442 H1461 0.913 . S
C1443 H1419 0.950 . S
C1443 C1442 1.524 . S
C1443 C1444 1.415 . S
C1444 H1420 0.950 . S
C1444 C1439 1.363 . S
C1444 C1443 1.415 . S
C1445 H1421 0.951 . S
C1445 C1446 1.366 . S
C1445 C1447 1.388 . S
C1446 C1445 1.366 . S
C1446 C1450 1.385 . S
C1447 H1422 0.951 . S
C1447 C1445 1.388 . S
C1447 C1448 1.366 . S
C1448 C1447 1.366 . S
C1448 C1449 1.414 . S
C1448 C1451 1.499 . S
C1449 H1423 0.950 . S
C1449 C1448 1.414 . S
C1449 C1450 1.374 . S
C1450 H1424 0.950 . S
C1450 C1446 1.385 . S
C1450 C1449 1.374 . S
C1451 C1448 1.499 . S
C1451 C1452 1.373 . S
C1451 C1453 1.389 . S
C1452 H1425 0.950 . S
C1452 C1438 1.377 . S
C1452 C1451 1.373 . S
C1453 C1437 1.377 . S
C1453 C1451 1.389 . S
C1453 C1454 1.524 . S
C1454 C1453 1.524 . S
C1454 C1455 1.397 . S
C1454 C1459 1.363 . S
C1455 H1426 0.950 . S
C1455 C1454 1.397 . S
C1455 C1456 1.334 . S
C1456 H1427 0.950 . S
C1456 C1455 1.334 . S
C1456 C1457 1.287 . S
C1457 C1456 1.287 . S
C1457 C1458 1.524 . S
C1457 H1460 0.999 . S
C1458 H1428 0.950 . S
C1458 C1457 1.524 . S
C1458 C1459 1.415 . S
C1459 H1429 0.950 . S
C1459 C1454 1.363 . S
C1459 C1458 1.415 . S
H1460 C1457 0.999 . S
H1461 C1442 0.913 . S
H1462 C1480 0.951 . S
H1463 C1482 0.951 . S
H1464 C1484 0.950 . S
H1465 C1485 0.950 . S
H1466 C1487 0.950 . S
H1467 C1490 0.950 . S
H1468 C1491 0.950 . S
H1469 C1493 0.950 . S
H1470 C1494 0.950 . S
H1471 C1495 0.951 . S
H1472 C1497 0.951 . S
H1473 C1499 0.950 . S
H1474 C1500 0.950 . S
H1475 C1502 0.950 . S
H1476 C1505 0.950 . S
H1477 C1506 0.950 . S
H1478 C1508 0.950 . S
H1479 C1509 0.950 . S
C1480 H1462 0.951 . S
C1480 C1481 1.366 . S
C1480 C1482 1.388 . S
C1481 C1480 1.366 . S
C1481 C1485 1.385 . S
C1482 H1463 0.951 . S
C1482 C1480 1.388 . S
C1482 C1483 1.366 . S
C1483 C1482 1.366 . S
C1483 C1484 1.414 . S
C1483 C1486 1.499 . S
C1484 H1464 0.950 . S
C1484 C1483 1.414 . S
C1484 C1485 1.374 . S
C1485 H1465 0.950 . S
C1485 C1481 1.385 . S
C1485 C1484 1.374 . S
C1486 C1483 1.499 . S
C1486 C1487 1.373 . S
C1486 C1488 1.389 . S
C1487 H1466 0.950 . S
C1487 C1486 1.373 . S
C1487 C1503 1.377 . S
C1488 C1486 1.389 . S
C1488 C1489 1.524 . S
C1488 C1502 1.377 . S
C1489 C1488 1.524 . S
C1489 C1490 1.397 . S
C1489 C1494 1.363 . S
C1490 H1467 0.950 . S
C1490 C1489 1.397 . S
C1490 C1491 1.334 . S
C1491 H1468 0.950 . S
C1491 C1490 1.334 . S
C1491 C1492 1.287 . S
C1492 C1491 1.287 . S
C1492 C1493 1.524 . S
C1492 H1511 0.913 . S
C1493 H1469 0.950 . S
C1493 C1492 1.524 . S
C1493 C1494 1.415 . S
C1494 H1470 0.950 . S
C1494 C1489 1.363 . S
C1494 C1493 1.415 . S
C1495 H1471 0.951 . S
C1495 C1496 1.366 . S
C1495 C1497 1.388 . S
C1496 C1495 1.366 . S
C1496 C1500 1.385 . S
C1497 H1472 0.951 . S
C1497 C1495 1.388 . S
C1497 C1498 1.366 . S
C1498 C1497 1.366 . S
C1498 C1499 1.414 . S
C1498 C1501 1.499 . S
C1499 H1473 0.950 . S
C1499 C1498 1.414 . S
C1499 C1500 1.374 . S
C1500 H1474 0.950 . S
C1500 C1496 1.385 . S
C1500 C1499 1.374 . S
C1501 C1498 1.499 . S
C1501 C1502 1.373 . S
C1501 C1503 1.389 . S
C1502 H1475 0.950 . S
C1502 C1488 1.377 . S
C1502 C1501 1.373 . S
C1503 C1487 1.377 . S
C1503 C1501 1.389 . S
C1503 C1504 1.524 . S
C1504 C1503 1.524 . S
C1504 C1505 1.397 . S
C1504 C1509 1.363 . S
C1505 H1476 0.950 . S
C1505 C1504 1.397 . S
C1505 C1506 1.334 . S
C1506 H1477 0.950 . S
C1506 C1505 1.334 . S
C1506 C1507 1.287 . S
C1507 C1506 1.287 . S
C1507 C1508 1.524 . S
C1507 H1510 0.999 . S
C1508 H1478 0.950 . S
C1508 C1507 1.524 . S
C1508 C1509 1.415 . S
C1509 H1479 0.950 . S
C1509 C1504 1.363 . S
C1509 C1508 1.415 . S
H1510 C1507 0.999 . S
H1511 C1492 0.913 . S
H1512 C1530 0.951 . S
H1513 C1532 0.951 . S
H1514 C1534 0.950 . S
H1515 C1535 0.950 . S
H1516 C1537 0.950 . S
H1517 C1540 0.950 . S
H1518 C1541 0.950 . S
H1519 C1543 0.950 . S
H1520 C1544 0.950 . S
H1521 C1545 0.951 . S
H1522 C1547 0.951 . S
H1523 C1549 0.950 . S
H1524 C1550 0.950 . S
H1525 C1552 0.950 . S
H1526 C1555 0.950 . S
H1527 C1556 0.950 . S
H1528 C1558 0.950 . S
H1529 C1559 0.950 . S
C1530 H1512 0.951 . S
C1530 C1531 1.366 . S
C1530 C1532 1.388 . S
C1531 C1530 1.366 . S
C1531 C1535 1.385 . S
C1532 H1513 0.951 . S
C1532 C1530 1.388 . S
C1532 C1533 1.366 . S
C1533 C1532 1.366 . S
C1533 C1534 1.414 . S
C1533 C1536 1.499 . S
C1534 H1514 0.950 . S
C1534 C1533 1.414 . S
C1534 C1535 1.374 . S
C1535 H1515 0.950 . S
C1535 C1531 1.385 . S
C1535 C1534 1.374 . S
C1536 C1533 1.499 . S
C1536 C1537 1.373 . S
C1536 C1538 1.389 . S
C1537 H1516 0.950 . S
C1537 C1536 1.373 . S
C1537 C1553 1.377 . S
C1538 C1536 1.389 . S
C1538 C1539 1.524 . S
C1538 C1552 1.377 . S
C1539 C1538 1.524 . S
C1539 C1540 1.397 . S
C1539 C1544 1.363 . S
C1540 H1517 0.950 . S
C1540 C1539 1.397 . S
C1540 C1541 1.334 . S
C1541 H1518 0.950 . S
C1541 C1540 1.334 . S
C1541 C1542 1.287 . S
C1542 C1541 1.287 . S
C1542 C1543 1.524 . S
C1542 H1561 0.913 . S
C1543 H1519 0.950 . S
C1543 C1542 1.524 . S
C1543 C1544 1.415 . S
C1544 H1520 0.950 . S
C1544 C1539 1.363 . S
C1544 C1543 1.415 . S
C1545 H1521 0.951 . S
C1545 C1546 1.366 . S
C1545 C1547 1.388 . S
C1546 C1545 1.366 . S
C1546 C1550 1.385 . S
C1547 H1522 0.951 . S
C1547 C1545 1.388 . S
C1547 C1548 1.366 . S
C1548 C1547 1.366 . S
C1548 C1549 1.414 . S
C1548 C1551 1.499 . S
C1549 H1523 0.950 . S
C1549 C1548 1.414 . S
C1549 C1550 1.374 . S
C1550 H1524 0.950 . S
C1550 C1546 1.385 . S
C1550 C1549 1.374 . S
C1551 C1548 1.499 . S
C1551 C1552 1.373 . S
C1551 C1553 1.389 . S
C1552 H1525 0.950 . S
C1552 C1538 1.377 . S
C1552 C1551 1.373 . S
C1553 C1537 1.377 . S
C1553 C1551 1.389 . S
C1553 C1554 1.524 . S
C1554 C1553 1.524 . S
C1554 C1555 1.397 . S
C1554 C1559 1.363 . S
C1555 H1526 0.950 . S
C1555 C1554 1.397 . S
C1555 C1556 1.334 . S
C1556 H1527 0.950 . S
C1556 C1555 1.334 . S
C1556 C1557 1.287 . S
C1557 C1556 1.287 . S
C1557 C1558 1.524 . S
C1557 H1560 0.999 . S
C1558 H1528 0.950 . S
C1558 C1557 1.524 . S
C1558 C1559 1.415 . S
C1559 H1529 0.950 . S
C1559 C1554 1.363 . S
C1559 C1558 1.415 . S
H1560 C1557 0.999 . S
H1561 C1542 0.913 . S
H1562 C1580 0.951 . S
H1563 C1582 0.951 . S
H1564 C1584 0.950 . S
H1565 C1585 0.950 . S
H1566 C1587 0.950 . S
H1567 C1590 0.950 . S
H1568 C1591 0.950 . S
H1569 C1593 0.950 . S
H1570 C1594 0.950 . S
H1571 C1595 0.951 . S
H1572 C1597 0.951 . S
H1573 C1599 0.950 . S
H1574 C1600 0.950 . S
H1575 C1602 0.950 . S
H1576 C1605 0.950 . S
H1577 C1606 0.950 . S
H1578 C1608 0.950 . S
H1579 C1609 0.950 . S
C1580 H1562 0.951 . S
C1580 C1581 1.366 . S
C1580 C1582 1.388 . S
C1581 C1580 1.366 . S
C1581 C1585 1.385 . S
C1582 H1563 0.951 . S
C1582 C1580 1.388 . S
C1582 C1583 1.366 . S
C1583 C1582 1.366 . S
C1583 C1584 1.414 . S
C1583 C1586 1.499 1_554 S
C1584 H1564 0.950 . S
C1584 C1583 1.414 . S
C1584 C1585 1.374 . S
C1585 H1565 0.950 . S
C1585 C1581 1.385 . S
C1585 C1584 1.374 . S
C1586 C1583 1.499 1_556 S
C1586 C1587 1.373 . S
C1586 C1588 1.389 . S
C1587 H1566 0.950 . S
C1587 C1586 1.373 . S
C1587 C1603 1.377 . S
C1588 C1586 1.389 . S
C1588 C1589 1.524 . S
C1588 C1602 1.377 . S
C1589 C1588 1.524 . S
C1589 C1590 1.397 . S
C1589 C1594 1.363 . S
C1590 H1567 0.950 . S
C1590 C1589 1.397 . S
C1590 C1591 1.334 . S
C1591 H1568 0.950 . S
C1591 C1590 1.334 . S
C1591 C1592 1.287 . S
C1592 C1591 1.287 . S
C1592 C1593 1.524 . S
C1592 H1611 0.913 . S
C1593 H1569 0.950 . S
C1593 C1592 1.524 . S
C1593 C1594 1.415 . S
C1594 H1570 0.950 . S
C1594 C1589 1.363 . S
C1594 C1593 1.415 . S
C1595 H1571 0.951 . S
C1595 C1596 1.366 . S
C1595 C1597 1.388 . S
C1596 C1595 1.366 . S
C1596 C1600 1.385 . S
C1597 H1572 0.951 . S
C1597 C1595 1.388 . S
C1597 C1598 1.366 . S
C1598 C1597 1.366 . S
C1598 C1599 1.414 . S
C1598 C1601 1.499 . S
C1599 H1573 0.950 . S
C1599 C1598 1.414 . S
C1599 C1600 1.374 . S
C1600 H1574 0.950 . S
C1600 C1596 1.385 . S
C1600 C1599 1.374 . S
C1601 C1598 1.499 . S
C1601 C1602 1.373 . S
C1601 C1603 1.389 . S
C1602 H1575 0.950 . S
C1602 C1588 1.377 . S
C1602 C1601 1.373 . S
C1603 C1587 1.377 . S
C1603 C1601 1.389 . S
C1603 C1604 1.524 . S
C1604 C1603 1.524 . S
C1604 C1605 1.397 . S
C1604 C1609 1.363 . S
C1605 H1576 0.950 . S
C1605 C1604 1.397 . S
C1605 C1606 1.334 . S
C1606 H1577 0.950 . S
C1606 C1605 1.334 . S
C1606 C1607 1.287 . S
C1607 C1606 1.287 . S
C1607 C1608 1.524 . S
C1607 H1610 0.999 . S
C1608 H1578 0.950 . S
C1608 C1607 1.524 . S
C1608 C1609 1.415 . S
C1609 H1579 0.950 . S
C1609 C1604 1.363 . S
C1609 C1608 1.415 . S
H1610 C1607 0.999 . S
H1611 C1592 0.913 . S
H1612 C1630 0.951 . S
H1613 C1632 0.951 . S
H1614 C1634 0.950 . S
H1615 C1635 0.950 . S
H1616 C1637 0.950 . S
H1617 C1640 0.950 . S
H1618 C1641 0.950 . S
H1619 C1643 0.950 . S
H1620 C1644 0.950 . S
H1621 C1645 0.951 . S
H1622 C1647 0.951 . S
H1623 C1649 0.950 . S
H1624 C1650 0.950 . S
H1625 C1652 0.950 . S
H1626 C1655 0.950 . S
H1627 C1656 0.950 . S
H1628 C1658 0.950 . S
H1629 C1659 0.950 . S
C1630 H1612 0.951 . S
C1630 C1631 1.366 . S
C1630 C1632 1.388 . S
C1631 C1630 1.366 . S
C1631 C1635 1.385 . S
C1632 H1613 0.951 . S
C1632 C1630 1.388 . S
C1632 C1633 1.366 . S
C1633 C1632 1.366 . S
C1633 C1634 1.414 . S
C1633 C1636 1.499 . S
C1634 H1614 0.950 . S
C1634 C1633 1.414 . S
C1634 C1635 1.374 . S
C1635 H1615 0.950 . S
C1635 C1631 1.385 . S
C1635 C1634 1.374 . S
C1636 C1633 1.499 . S
C1636 C1637 1.373 . S
C1636 C1638 1.389 . S
C1637 H1616 0.950 . S
C1637 C1636 1.373 . S
C1637 C1653 1.377 . S
C1638 C1636 1.389 . S
C1638 C1639 1.524 . S
C1638 C1652 1.377 . S
C1639 C1638 1.524 . S
C1639 C1640 1.397 . S
C1639 C1644 1.363 . S
C1640 H1617 0.950 . S
C1640 C1639 1.397 . S
C1640 C1641 1.334 . S
C1641 H1618 0.950 . S
C1641 C1640 1.334 . S
C1641 C1642 1.287 . S
C1642 C1641 1.287 . S
C1642 C1643 1.524 . S
C1642 H1661 0.913 . S
C1643 H1619 0.950 . S
C1643 C1642 1.524 . S
C1643 C1644 1.415 . S
C1644 H1620 0.950 . S
C1644 C1639 1.363 . S
C1644 C1643 1.415 . S
C1645 H1621 0.951 . S
C1645 C1646 1.366 . S
C1645 C1647 1.388 . S
C1646 C1645 1.366 . S
C1646 C1650 1.385 . S
C1647 H1622 0.951 . S
C1647 C1645 1.388 . S
C1647 C1648 1.366 . S
C1648 C1647 1.366 . S
C1648 C1649 1.414 . S
C1648 C1651 1.499 . S
C1649 H1623 0.950 . S
C1649 C1648 1.414 . S
C1649 C1650 1.374 . S
C1650 H1624 0.950 . S
C1650 C1646 1.385 . S
C1650 C1649 1.374 . S
C1651 C1648 1.499 . S
C1651 C1652 1.373 . S
C1651 C1653 1.389 . S
C1652 H1625 0.950 . S
C1652 C1638 1.377 . S
C1652 C1651 1.373 . S
C1653 C1637 1.377 . S
C1653 C1651 1.389 . S
C1653 C1654 1.524 . S
C1654 C1653 1.524 . S
C1654 C1655 1.397 . S
C1654 C1659 1.363 . S
C1655 H1626 0.950 . S
C1655 C1654 1.397 . S
C1655 C1656 1.334 . S
C1656 H1627 0.950 . S
C1656 C1655 1.334 . S
C1656 C1657 1.287 . S
C1657 C1656 1.287 . S
C1657 C1658 1.524 . S
C1657 H1660 0.999 . S
C1658 H1628 0.950 . S
C1658 C1657 1.524 . S
C1658 C1659 1.415 . S
C1659 H1629 0.950 . S
C1659 C1654 1.363 . S
C1659 C1658 1.415 . S
H1660 C1657 0.999 . S
H1661 C1642 0.913 . S
H1662 C1680 0.951 . S
H1663 C1682 0.951 . S
H1664 C1684 0.950 . S
H1665 C1685 0.950 . S
H1666 C1687 0.950 . S
H1667 C1690 0.950 . S
H1668 C1691 0.950 . S
H1669 C1693 0.950 . S
H1670 C1694 0.950 . S
H1671 C1695 0.951 . S
H1672 C1697 0.951 . S
H1673 C1699 0.950 . S
H1674 C1700 0.950 . S
H1675 C1702 0.950 . S
H1676 C1705 0.950 . S
H1677 C1706 0.950 1_556 S
H1678 C1708 0.950 . S
H1679 C1709 0.950 . S
C1680 H1662 0.951 . S
C1680 C1681 1.366 . S
C1680 C1682 1.388 . S
C1681 C1680 1.366 . S
C1681 C1685 1.385 . S
C1682 H1663 0.951 . S
C1682 C1680 1.388 . S
C1682 C1683 1.366 . S
C1683 C1682 1.366 . S
C1683 C1684 1.414 . S
C1683 C1686 1.499 . S
C1684 H1664 0.950 . S
C1684 C1683 1.414 . S
C1684 C1685 1.374 . S
C1685 H1665 0.950 . S
C1685 C1681 1.385 . S
C1685 C1684 1.374 . S
C1686 C1683 1.499 . S
C1686 C1687 1.373 . S
C1686 C1688 1.389 . S
C1687 H1666 0.950 . S
C1687 C1686 1.373 . S
C1687 C1703 1.377 . S
C1688 C1686 1.389 . S
C1688 C1689 1.524 . S
C1688 C1702 1.377 . S
C1689 C1688 1.524 . S
C1689 C1690 1.397 . S
C1689 C1694 1.363 . S
C1690 H1667 0.950 . S
C1690 C1689 1.397 . S
C1690 C1691 1.334 . S
C1691 H1668 0.950 . S
C1691 C1690 1.334 . S
C1691 C1692 1.287 . S
C1692 C1691 1.287 . S
C1692 C1693 1.524 . S
C1692 H1711 0.913 . S
C1693 H1669 0.950 . S
C1693 C1692 1.524 . S
C1693 C1694 1.415 . S
C1694 H1670 0.950 . S
C1694 C1689 1.363 . S
C1694 C1693 1.415 . S
C1695 H1671 0.951 . S
C1695 C1696 1.366 . S
C1695 C1697 1.388 . S
C1696 C1695 1.366 . S
C1696 C1700 1.385 . S
C1697 H1672 0.951 . S
C1697 C1695 1.388 . S
C1697 C1698 1.366 . S
C1698 C1697 1.366 . S
C1698 C1699 1.414 . S
C1698 C1701 1.499 1_556 S
C1699 H1673 0.950 . S
C1699 C1698 1.414 . S
C1699 C1700 1.374 . S
C1700 H1674 0.950 . S
C1700 C1696 1.385 . S
C1700 C1699 1.374 . S
C1701 C1698 1.499 1_554 S
C1701 C1702 1.373 . S
C1701 C1703 1.389 . S
C1702 H1675 0.950 . S
C1702 C1688 1.377 . S
C1702 C1701 1.373 . S
C1703 C1687 1.377 . S
C1703 C1701 1.389 . S
C1703 C1704 1.524 . S
C1704 C1703 1.524 . S
C1704 C1705 1.397 . S
C1704 C1709 1.363 . S
C1705 H1676 0.950 . S
C1705 C1704 1.397 . S
C1705 C1706 1.334 . S
C1706 H1677 0.950 1_554 S
C1706 C1705 1.334 . S
C1706 C1707 1.287 . S
C1707 C1706 1.287 . S
C1707 C1708 1.524 . S
C1707 H1710 0.995 1_554 S
C1708 H1678 0.950 . S
C1708 C1707 1.524 . S
C1708 C1709 1.415 . S
C1709 H1679 0.950 . S
C1709 C1704 1.363 . S
C1709 C1708 1.415 . S
H1710 C1707 0.995 1_556 S
H1711 C1692 0.913 . S
H1712 C1730 0.951 . S
H1713 C1732 0.951 . S
H1714 C1734 0.950 . S
H1715 C1735 0.950 . S
H1716 C1737 0.950 . S
H1717 C1740 0.950 . S
H1718 C1741 0.950 . S
H1719 C1743 0.950 . S
H1720 C1744 0.950 . S
H1721 C1745 0.951 . S
H1722 C1747 0.951 . S
H1723 C1749 0.950 . S
H1724 C1750 0.950 . S
H1725 C1752 0.950 . S
H1726 C1755 0.950 . S
H1727 C1756 0.950 . S
H1728 C1758 0.950 . S
H1729 C1759 0.950 . S
C1730 H1712 0.951 . S
C1730 C1731 1.366 . S
C1730 C1732 1.388 . S
C1731 C1730 1.366 . S
C1731 C1735 1.385 . S
C1732 H1713 0.951 . S
C1732 C1730 1.388 . S
C1732 C1733 1.366 . S
C1733 C1732 1.366 . S
C1733 C1734 1.414 . S
C1733 C1736 1.499 . S
C1734 H1714 0.950 . S
C1734 C1733 1.414 . S
C1734 C1735 1.374 . S
C1735 H1715 0.950 . S
C1735 C1731 1.385 . S
C1735 C1734 1.374 . S
C1736 C1733 1.499 . S
C1736 C1737 1.373 . S
C1736 C1738 1.389 . S
C1737 H1716 0.950 . S
C1737 C1736 1.373 . S
C1737 C1753 1.377 . S
C1738 C1736 1.389 . S
C1738 C1739 1.524 . S
C1738 C1752 1.377 . S
C1739 C1738 1.524 . S
C1739 C1740 1.397 . S
C1739 C1744 1.363 . S
C1740 H1717 0.950 . S
C1740 C1739 1.397 . S
C1740 C1741 1.334 . S
C1741 H1718 0.950 . S
C1741 C1740 1.334 . S
C1741 C1742 1.287 . S
C1742 C1741 1.287 . S
C1742 C1743 1.524 . S
C1742 H1761 0.913 . S
C1743 H1719 0.950 . S
C1743 C1742 1.524 . S
C1743 C1744 1.415 . S
C1744 H1720 0.950 . S
C1744 C1739 1.363 . S
C1744 C1743 1.415 . S
C1745 H1721 0.951 . S
C1745 C1746 1.366 . S
C1745 C1747 1.388 . S
C1746 C1745 1.366 . S
C1746 C1750 1.385 . S
C1747 H1722 0.951 . S
C1747 C1745 1.388 . S
C1747 C1748 1.366 . S
C1748 C1747 1.366 . S
C1748 C1749 1.414 . S
C1748 C1751 1.499 . S
C1749 H1723 0.950 . S
C1749 C1748 1.414 . S
C1749 C1750 1.374 . S
C1750 H1724 0.950 . S
C1750 C1746 1.385 . S
C1750 C1749 1.374 . S
C1751 C1748 1.499 . S
C1751 C1752 1.373 . S
C1751 C1753 1.389 . S
C1752 H1725 0.950 . S
C1752 C1738 1.377 . S
C1752 C1751 1.373 . S
C1753 C1737 1.377 . S
C1753 C1751 1.389 . S
C1753 C1754 1.524 . S
C1754 C1753 1.524 . S
C1754 C1755 1.397 . S
C1754 C1759 1.363 . S
C1755 H1726 0.950 . S
C1755 C1754 1.397 . S
C1755 C1756 1.334 . S
C1756 H1727 0.950 . S
C1756 C1755 1.334 . S
C1756 C1757 1.287 . S
C1757 C1756 1.287 . S
C1757 C1758 1.524 . S
C1757 H1760 0.999 . S
C1758 H1728 0.950 . S
C1758 C1757 1.524 . S
C1758 C1759 1.415 . S
C1759 H1729 0.950 . S
C1759 C1754 1.363 . S
C1759 C1758 1.415 . S
H1760 C1757 0.999 . S
H1761 C1742 0.913 . S
H1762 C1780 0.951 . S
H1763 C1782 0.951 . S
H1764 C1784 0.950 . S
H1765 C1785 0.950 . S
H1766 C1787 0.950 . S
H1767 C1790 0.950 . S
H1768 C1791 0.950 . S
H1769 C1793 0.950 . S
H1770 C1794 0.950 . S
H1771 C1795 0.951 . S
H1772 C1797 0.951 . S
H1773 C1799 0.950 . S
H1774 C1800 0.950 . S
H1775 C1802 0.950 . S
H1776 C1805 0.950 . S
H1777 C1806 0.950 . S
H1778 C1808 0.950 . S
H1779 C1809 0.950 . S
C1780 H1762 0.951 . S
C1780 C1781 1.366 . S
C1780 C1782 1.388 . S
C1781 C1780 1.366 . S
C1781 C1785 1.385 . S
C1782 H1763 0.951 . S
C1782 C1780 1.388 . S
C1782 C1783 1.366 . S
C1783 C1782 1.366 . S
C1783 C1784 1.414 . S
C1783 C1786 1.499 1_655 S
C1784 H1764 0.950 . S
C1784 C1783 1.414 . S
C1784 C1785 1.374 . S
C1785 H1765 0.950 . S
C1785 C1781 1.385 . S
C1785 C1784 1.374 . S
C1786 C1783 1.499 1_455 S
C1786 C1787 1.373 . S
C1786 C1788 1.389 . S
C1787 H1766 0.950 . S
C1787 C1786 1.373 . S
C1787 C1803 1.377 . S
C1788 C1786 1.389 . S
C1788 C1789 1.524 . S
C1788 C1802 1.377 . S
C1789 C1788 1.524 . S
C1789 C1790 1.397 . S
C1789 C1794 1.363 . S
C1790 H1767 0.950 . S
C1790 C1789 1.397 . S
C1790 C1791 1.334 . S
C1791 H1768 0.950 . S
C1791 C1790 1.334 . S
C1791 C1792 1.287 . S
C1792 C1791 1.287 . S
C1792 C1793 1.524 . S
C1792 H1811 0.913 . S
C1793 H1769 0.950 . S
C1793 C1792 1.524 . S
C1793 C1794 1.415 . S
C1794 H1770 0.950 . S
C1794 C1789 1.363 . S
C1794 C1793 1.415 . S
C1795 H1771 0.951 . S
C1795 C1796 1.366 . S
C1795 C1797 1.388 . S
C1796 C1795 1.366 . S
C1796 C1800 1.385 . S
C1797 H1772 0.951 . S
C1797 C1795 1.388 . S
C1797 C1798 1.366 . S
C1798 C1797 1.366 . S
C1798 C1799 1.414 . S
C1798 C1801 1.499 . S
C1799 H1773 0.950 . S
C1799 C1798 1.414 . S
C1799 C1800 1.374 . S
C1800 H1774 0.950 . S
C1800 C1796 1.385 . S
C1800 C1799 1.374 . S
C1801 C1798 1.499 . S
C1801 C1802 1.373 . S
C1801 C1803 1.389 . S
C1802 H1775 0.950 . S
C1802 C1788 1.377 . S
C1802 C1801 1.373 . S
C1803 C1787 1.377 . S
C1803 C1801 1.389 . S
C1803 C1804 1.524 . S
C1804 C1803 1.524 . S
C1804 C1805 1.397 . S
C1804 C1809 1.363 . S
C1805 H1776 0.950 . S
C1805 C1804 1.397 . S
C1805 C1806 1.334 . S
C1806 H1777 0.950 . S
C1806 C1805 1.334 . S
C1806 C1807 1.287 . S
C1807 C1806 1.287 . S
C1807 C1808 1.524 . S
C1807 H1810 0.999 . S
C1808 H1778 0.950 . S
C1808 C1807 1.524 . S
C1808 C1809 1.415 . S
C1809 H1779 0.950 . S
C1809 C1804 1.363 . S
C1809 C1808 1.415 . S
H1810 C1807 0.999 . S
H1811 C1792 0.913 . S
H1812 C1830 0.951 . S
H1813 C1832 0.951 . S
H1814 C1834 0.950 . S
H1815 C1835 0.950 . S
H1816 C1837 0.950 . S
H1817 C1840 0.950 . S
H1818 C1841 0.964 . S
H1819 C1843 0.950 . S
H1820 C1844 0.950 . S
H1821 C1845 0.951 . S
H1822 C1847 0.951 . S
H1823 C1849 0.950 . S
H1824 C1850 0.950 . S
H1825 C1852 0.950 . S
H1826 C1855 0.950 . S
H1827 C1856 0.950 . S
H1828 C1858 0.950 . S
H1829 C1859 0.950 . S
C1830 H1812 0.951 . S
C1830 C1831 1.366 . S
C1830 C1832 1.388 . S
C1831 C1830 1.366 . S
C1831 C1835 1.385 . S
C1832 H1813 0.951 . S
C1832 C1830 1.388 . S
C1832 C1833 1.366 . S
C1833 C1832 1.366 . S
C1833 C1834 1.414 . S
C1833 C1836 1.499 1_455 S
C1834 H1814 0.950 . S
C1834 C1833 1.414 . S
C1834 C1835 1.374 . S
C1835 H1815 0.950 . S
C1835 C1831 1.385 . S
C1835 C1834 1.374 . S
C1836 C1833 1.499 1_655 S
C1836 C1837 1.373 . S
C1836 C1838 1.389 . S
C1837 H1816 0.950 . S
C1837 C1836 1.373 . S
C1837 C1853 1.377 . S
C1838 C1836 1.389 . S
C1838 C1839 1.524 . S
C1838 C1852 1.377 . S
C1839 C1838 1.524 . S
C1839 C1840 1.397 . S
C1839 C1844 1.363 . S
C1840 H1817 0.950 . S
C1840 C1839 1.397 . S
C1840 C1841 1.327 1_655 S
C1841 H1818 0.964 . S
C1841 C1840 1.327 1_455 S
C1841 C1842 1.280 1_455 S
C1842 C1841 1.280 1_655 S
C1842 C1843 1.524 . S
C1842 H1861 0.913 . S
C1843 H1819 0.950 . S
C1843 C1842 1.524 . S
C1843 C1844 1.415 . S
C1844 H1820 0.950 . S
C1844 C1839 1.363 . S
C1844 C1843 1.415 . S
C1845 H1821 0.951 . S
C1845 C1846 1.366 . S
C1845 C1847 1.388 . S
C1846 C1845 1.366 . S
C1846 C1850 1.385 . S
C1847 H1822 0.951 . S
C1847 C1845 1.388 . S
C1847 C1848 1.366 . S
C1848 C1847 1.366 . S
C1848 C1849 1.414 . S
C1848 C1851 1.499 . S
C1849 H1823 0.950 . S
C1849 C1848 1.414 . S
C1849 C1850 1.374 . S
C1850 H1824 0.950 . S
C1850 C1846 1.385 . S
C1850 C1849 1.374 . S
C1851 C1848 1.499 . S
C1851 C1852 1.373 . S
C1851 C1853 1.389 . S
C1852 H1825 0.950 . S
C1852 C1838 1.377 . S
C1852 C1851 1.373 . S
C1853 C1837 1.377 . S
C1853 C1851 1.389 . S
C1853 C1854 1.524 . S
C1854 C1853 1.524 . S
C1854 C1855 1.397 . S
C1854 C1859 1.363 . S
C1855 H1826 0.950 . S
C1855 C1854 1.397 . S
C1855 C1856 1.334 . S
C1856 H1827 0.950 . S
C1856 C1855 1.334 . S
C1856 C1857 1.287 . S
C1857 C1856 1.287 . S
C1857 C1858 1.524 . S
C1857 H1860 0.999 . S
C1858 H1828 0.950 . S
C1858 C1857 1.524 . S
C1858 C1859 1.415 . S
C1859 H1829 0.950 . S
C1859 C1854 1.363 . S
C1859 C1858 1.415 . S
H1860 C1857 0.999 . S
H1861 C1842 0.913 . S
H1862 C1880 0.951 . S
H1863 C1882 0.951 . S
H1864 C1884 0.950 . S
H1865 C1885 0.950 . S
H1866 C1887 0.950 . S
H1867 C1890 0.950 . S
H1868 C1891 0.950 . S
H1869 C1893 0.950 . S
H1870 C1894 0.950 . S
H1871 C1895 0.951 . S
H1872 C1897 0.951 . S
H1873 C1899 0.950 . S
H1874 C1900 0.950 . S
H1875 C1902 0.950 . S
H1876 C1905 0.950 . S
H1877 C1906 0.950 . S
H1878 C1908 0.950 . S
H1879 C1909 0.950 . S
C1880 H1862 0.951 . S
C1880 C1881 1.366 . S
C1880 C1882 1.388 . S
C1881 C1880 1.366 . S
C1881 C1885 1.385 . S
C1882 H1863 0.951 . S
C1882 C1880 1.388 . S
C1882 C1883 1.366 . S
C1883 C1882 1.366 . S
C1883 C1884 1.414 . S
C1883 C1886 1.499 . S
C1884 H1864 0.950 . S
C1884 C1883 1.414 . S
C1884 C1885 1.374 . S
C1885 H1865 0.950 . S
C1885 C1881 1.385 . S
C1885 C1884 1.374 . S
C1886 C1883 1.499 . S
C1886 C1887 1.373 . S
C1886 C1888 1.389 . S
C1887 H1866 0.950 . S
C1887 C1886 1.373 . S
C1887 C1903 1.377 . S
C1888 C1886 1.389 . S
C1888 C1889 1.524 . S
C1888 C1902 1.377 . S
C1889 C1888 1.524 . S
C1889 C1890 1.397 . S
C1889 C1894 1.363 . S
C1890 H1867 0.950 . S
C1890 C1889 1.397 . S
C1890 C1891 1.334 . S
C1891 H1868 0.950 . S
C1891 C1890 1.334 . S
C1891 C1892 1.287 . S
C1892 C1891 1.287 . S
C1892 C1893 1.524 . S
C1892 H1911 0.913 . S
C1893 H1869 0.950 . S
C1893 C1892 1.524 . S
C1893 C1894 1.415 . S
C1894 H1870 0.950 . S
C1894 C1889 1.363 . S
C1894 C1893 1.415 . S
C1895 H1871 0.951 . S
C1895 C1896 1.366 . S
C1895 C1897 1.388 . S
C1896 C1895 1.366 . S
C1896 C1900 1.385 . S
C1897 H1872 0.951 . S
C1897 C1895 1.388 . S
C1897 C1898 1.366 . S
C1898 C1897 1.366 . S
C1898 C1899 1.414 . S
C1898 C1901 1.499 . S
C1899 H1873 0.950 . S
C1899 C1898 1.414 . S
C1899 C1900 1.374 . S
C1900 H1874 0.950 . S
C1900 C1896 1.385 . S
C1900 C1899 1.374 . S
C1901 C1898 1.499 . S
C1901 C1902 1.373 . S
C1901 C1903 1.389 . S
C1902 H1875 0.950 . S
C1902 C1888 1.377 . S
C1902 C1901 1.373 . S
C1903 C1887 1.377 . S
C1903 C1901 1.389 . S
C1903 C1904 1.524 . S
C1904 C1903 1.524 . S
C1904 C1905 1.397 . S
C1904 C1909 1.363 . S
C1905 H1876 0.950 . S
C1905 C1904 1.397 . S
C1905 C1906 1.334 . S
C1906 H1877 0.950 . S
C1906 C1905 1.334 . S
C1906 C1907 1.287 . S
C1907 C1906 1.287 . S
C1907 C1908 1.524 . S
C1907 H1910 0.999 . S
C1908 H1878 0.950 . S
C1908 C1907 1.524 . S
C1908 C1909 1.415 . S
C1909 H1879 0.950 . S
C1909 C1904 1.363 . S
C1909 C1908 1.415 . S
H1910 C1907 0.999 . S
H1911 C1892 0.913 . S
H1912 C1930 0.951 . S
H1913 C1932 0.951 . S
H1914 C1934 0.950 . S
H1915 C1935 0.950 . S
H1916 C1937 0.950 . S
H1917 C1940 0.950 . S
H1918 C1941 0.950 . S
H1919 C1943 0.950 . S
H1920 C1944 0.950 . S
H1921 C1945 0.951 . S
H1922 C1947 0.951 . S
H1923 C1949 0.950 . S
H1924 C1950 0.950 . S
H1925 C1952 0.950 . S
H1926 C1955 0.950 . S
H1927 C1956 0.950 . S
H1928 C1958 0.950 . S
H1929 C1959 0.950 . S
C1930 H1912 0.951 . S
C1930 C1931 1.366 . S
C1930 C1932 1.388 . S
C1931 C1930 1.366 . S
C1931 C1935 1.385 . S
C1932 H1913 0.951 . S
C1932 C1930 1.388 . S
C1932 C1933 1.366 . S
C1933 C1932 1.366 . S
C1933 C1934 1.414 . S
C1933 C1936 1.499 . S
C1934 H1914 0.950 . S
C1934 C1933 1.414 . S
C1934 C1935 1.374 . S
C1935 H1915 0.950 . S
C1935 C1931 1.385 . S
C1935 C1934 1.374 . S
C1936 C1933 1.499 . S
C1936 C1937 1.373 . S
C1936 C1938 1.389 . S
C1937 H1916 0.950 . S
C1937 C1936 1.373 . S
C1937 C1953 1.377 . S
C1938 C1936 1.389 . S
C1938 C1939 1.524 . S
C1938 C1952 1.377 . S
C1939 C1938 1.524 . S
C1939 C1940 1.397 . S
C1939 C1944 1.363 . S
C1940 H1917 0.950 . S
C1940 C1939 1.397 . S
C1940 C1941 1.334 . S
C1941 H1918 0.950 . S
C1941 C1940 1.334 . S
C1941 C1942 1.287 . S
C1942 C1941 1.287 . S
C1942 C1943 1.524 . S
C1942 H1961 0.913 . S
C1943 H1919 0.950 . S
C1943 C1942 1.524 . S
C1943 C1944 1.415 . S
C1944 H1920 0.950 . S
C1944 C1939 1.363 . S
C1944 C1943 1.415 . S
C1945 H1921 0.951 . S
C1945 C1946 1.366 . S
C1945 C1947 1.388 . S
C1946 C1945 1.366 . S
C1946 C1950 1.385 . S
C1947 H1922 0.951 . S
C1947 C1945 1.388 . S
C1947 C1948 1.366 . S
C1948 C1947 1.366 . S
C1948 C1949 1.414 . S
C1948 C1951 1.499 . S
C1949 H1923 0.950 . S
C1949 C1948 1.414 . S
C1949 C1950 1.374 . S
C1950 H1924 0.950 . S
C1950 C1946 1.385 . S
C1950 C1949 1.374 . S
C1951 C1948 1.499 . S
C1951 C1952 1.373 . S
C1951 C1953 1.389 . S
C1952 H1925 0.950 . S
C1952 C1938 1.377 . S
C1952 C1951 1.373 . S
C1953 C1937 1.377 . S
C1953 C1951 1.389 . S
C1953 C1954 1.524 . S
C1954 C1953 1.524 . S
C1954 C1955 1.397 . S
C1954 C1959 1.363 . S
C1955 H1926 0.950 . S
C1955 C1954 1.397 . S
C1955 C1956 1.334 . S
C1956 H1927 0.950 . S
C1956 C1955 1.334 . S
C1956 C1957 1.287 . S
C1957 C1956 1.287 . S
C1957 C1958 1.524 . S
C1957 H1960 0.999 . S
C1958 H1928 0.950 . S
C1958 C1957 1.524 . S
C1958 C1959 1.415 . S
C1959 H1929 0.950 . S
C1959 C1954 1.363 . S
C1959 C1958 1.415 . S
H1960 C1957 0.999 . S
H1961 C1942 0.913 . S
H1962 C1980 0.951 . S
H1963 C1982 0.951 . S
H1964 C1984 0.950 . S
H1965 C1985 0.950 . S
H1966 C1987 0.950 . S
H1967 C1990 0.950 1_565 S
H1968 C1991 0.950 . S
H1969 C1993 0.950 . S
H1970 C1994 0.950 . S
H1971 C1995 0.951 . S
H1972 C1997 0.951 . S
H1973 C1999 0.950 . S
H1974 C2000 0.950 . S
H1975 C2002 0.950 . S
H1976 C2005 0.950 . S
H1977 C2006 0.950 . S
H1978 C2008 0.950 . S
H1979 C2009 0.950 . S
C1980 H1962 0.951 . S
C1980 C1981 1.366 . S
C1980 C1982 1.388 . S
C1981 C1980 1.366 . S
C1981 C1985 1.385 . S
C1982 H1963 0.951 . S
C1982 C1980 1.388 . S
C1982 C1983 1.366 . S
C1983 C1982 1.366 . S
C1983 C1984 1.414 . S
C1983 C1986 1.499 1_565 S
C1984 H1964 0.950 . S
C1984 C1983 1.414 . S
C1984 C1985 1.374 . S
C1985 H1965 0.950 . S
C1985 C1981 1.385 . S
C1985 C1984 1.374 . S
C1986 C1983 1.499 1_545 S
C1986 C1987 1.373 . S
C1986 C1988 1.389 . S
C1987 H1966 0.950 . S
C1987 C1986 1.373 . S
C1987 C2003 1.377 . S
C1988 C1986 1.389 . S
C1988 C1989 1.524 . S
C1988 C2002 1.377 . S
C1989 C1988 1.524 . S
C1989 C1990 1.395 . S
C1989 C1994 1.363 . S
C1990 H1967 0.950 1_545 S
C1990 C1989 1.395 . S
C1990 C1991 1.335 1_545 S
C1991 H1968 0.950 . S
C1991 C1990 1.335 1_565 S
C1991 C1992 1.287 . S
C1992 C1991 1.287 . S
C1992 C1993 1.524 1_565 S
C1992 H2011 0.913 . S
C1993 H1969 0.950 . S
C1993 C1992 1.524 1_545 S
C1993 C1994 1.415 . S
C1994 H1970 0.950 . S
C1994 C1989 1.363 . S
C1994 C1993 1.415 . S
C1995 H1971 0.951 . S
C1995 C1996 1.366 . S
C1995 C1997 1.388 . S
C1996 C1995 1.366 . S
C1996 C2000 1.385 . S
C1997 H1972 0.951 . S
C1997 C1995 1.388 . S
C1997 C1998 1.366 . S
C1998 C1997 1.366 . S
C1998 C1999 1.414 . S
C1998 C2001 1.499 . S
C1999 H1973 0.950 . S
C1999 C1998 1.414 . S
C1999 C2000 1.374 . S
C2000 H1974 0.950 . S
C2000 C1996 1.385 . S
C2000 C1999 1.374 . S
C2001 C1998 1.499 . S
C2001 C2002 1.373 . S
C2001 C2003 1.389 . S
C2002 H1975 0.950 . S
C2002 C1988 1.377 . S
C2002 C2001 1.373 . S
C2003 C1987 1.377 . S
C2003 C2001 1.389 . S
C2003 C2004 1.524 . S
C2004 C2003 1.524 . S
C2004 C2005 1.397 . S
C2004 C2009 1.363 . S
C2005 H1976 0.950 . S
C2005 C2004 1.397 . S
C2005 C2006 1.334 . S
C2006 H1977 0.950 . S
C2006 C2005 1.334 . S
C2006 C2007 1.287 . S
C2007 C2006 1.287 . S
C2007 C2008 1.524 . S
C2007 H2010 0.999 . S
C2008 H1978 0.950 . S
C2008 C2007 1.524 . S
C2008 C2009 1.415 . S
C2009 H1979 0.950 . S
C2009 C2004 1.363 . S
C2009 C2008 1.415 . S
H2010 C2007 0.999 . S
H2011 C1992 0.913 . S
H2012 C2030 0.951 . S
H2013 C2032 0.951 . S
H2014 C2034 0.950 . S
H2015 C2035 0.950 . S
H2016 C2037 0.950 . S
H2017 C2040 0.950 . S
H2018 C2041 0.950 . S
H2019 C2043 0.950 . S
H2020 C2044 0.950 . S
H2021 C2045 0.951 . S
H2022 C2047 0.951 . S
H2023 C2049 0.950 . S
H2024 C2050 0.950 . S
H2025 C2052 0.950 . S
H2026 C2055 0.950 . S
H2027 C2056 0.950 . S
H2028 C2058 0.950 . S
H2029 C2059 0.950 . S
C2030 H2012 0.951 . S
C2030 C2031 1.366 . S
C2030 C2032 1.388 . S
C2031 C2030 1.366 . S
C2031 C2035 1.385 . S
C2032 H2013 0.951 . S
C2032 C2030 1.388 . S
C2032 C2033 1.366 . S
C2033 C2032 1.366 . S
C2033 C2034 1.414 . S
C2033 C2036 1.499 1_545 S
C2034 H2014 0.950 . S
C2034 C2033 1.414 . S
C2034 C2035 1.374 . S
C2035 H2015 0.950 . S
C2035 C2031 1.385 . S
C2035 C2034 1.374 . S
C2036 C2033 1.499 1_565 S
C2036 C2037 1.373 . S
C2036 C2038 1.389 . S
C2037 H2016 0.950 . S
C2037 C2036 1.373 . S
C2037 C2053 1.377 . S
C2038 C2036 1.389 . S
C2038 C2039 1.524 . S
C2038 C2052 1.377 . S
C2039 C2038 1.524 . S
C2039 C2040 1.397 . S
C2039 C2044 1.363 . S
C2040 H2017 0.950 . S
C2040 C2039 1.397 . S
C2040 C2041 1.334 . S
C2041 H2018 0.950 . S
C2041 C2040 1.334 . S
C2041 C2042 1.287 . S
C2042 C2041 1.287 . S
C2042 C2043 1.524 . S
C2042 H2061 0.913 . S
C2043 H2019 0.950 . S
C2043 C2042 1.524 . S
C2043 C2044 1.415 . S
C2044 H2020 0.950 . S
C2044 C2039 1.363 . S
C2044 C2043 1.415 . S
C2045 H2021 0.951 . S
C2045 C2046 1.366 . S
C2045 C2047 1.388 . S
C2046 C2045 1.366 . S
C2046 C2050 1.385 . S
C2047 H2022 0.951 . S
C2047 C2045 1.388 . S
C2047 C2048 1.366 . S
C2048 C2047 1.366 . S
C2048 C2049 1.414 . S
C2048 C2051 1.499 . S
C2049 H2023 0.950 . S
C2049 C2048 1.414 . S
C2049 C2050 1.374 . S
C2050 H2024 0.950 . S
C2050 C2046 1.385 . S
C2050 C2049 1.374 . S
C2051 C2048 1.499 . S
C2051 C2052 1.373 . S
C2051 C2053 1.389 . S
C2052 H2025 0.950 . S
C2052 C2038 1.377 . S
C2052 C2051 1.373 . S
C2053 C2037 1.377 . S
C2053 C2051 1.389 . S
C2053 C2054 1.524 . S
C2054 C2053 1.524 . S
C2054 C2055 1.397 . S
C2054 C2059 1.363 . S
C2055 H2026 0.950 . S
C2055 C2054 1.397 . S
C2055 C2056 1.334 . S
C2056 H2027 0.950 . S
C2056 C2055 1.334 . S
C2056 C2057 1.287 . S
C2057 C2056 1.287 . S
C2057 C2058 1.524 . S
C2057 H2060 0.999 . S
C2058 H2028 0.950 . S
C2058 C2057 1.524 . S
C2058 C2059 1.415 . S
C2059 H2029 0.950 . S
C2059 C2054 1.363 . S
C2059 C2058 1.415 . S
H2060 C2057 0.999 . S
H2061 C2042 0.913 . S
H2062 C2080 0.951 . S
H2063 C2082 0.951 . S
H2064 C2084 0.950 . S
H2065 C2085 0.950 . S
H2066 C2087 0.950 . S
H2067 C2090 0.950 . S
H2068 C2091 0.950 . S
H2069 C2093 0.950 . S
H2070 C2094 0.950 . S
H2071 C2095 0.951 . S
H2072 C2097 0.951 . S
H2073 C2099 0.950 . S
H2074 C2100 0.950 . S
H2075 C2102 0.950 . S
H2076 C2105 0.950 . S
H2077 C2106 0.950 . S
H2078 C2108 0.950 . S
H2079 C2109 0.950 . S
C2080 H2062 0.951 . S
C2080 C2081 1.366 . S
C2080 C2082 1.388 . S
C2081 C2080 1.366 . S
C2081 C2085 1.385 . S
C2082 H2063 0.951 . S
C2082 C2080 1.388 . S
C2082 C2083 1.366 . S
C2083 C2082 1.366 . S
C2083 C2084 1.414 . S
C2083 C2086 1.499 . S
C2084 H2064 0.950 . S
C2084 C2083 1.414 . S
C2084 C2085 1.374 . S
C2085 H2065 0.950 . S
C2085 C2081 1.385 . S
C2085 C2084 1.374 . S
C2086 C2083 1.499 . S
C2086 C2087 1.373 . S
C2086 C2088 1.389 . S
C2087 H2066 0.950 . S
C2087 C2086 1.373 . S
C2087 C2103 1.377 . S
C2088 C2086 1.389 . S
C2088 C2089 1.524 . S
C2088 C2102 1.377 . S
C2089 C2088 1.524 . S
C2089 C2090 1.397 . S
C2089 C2094 1.363 . S
C2090 H2067 0.950 . S
C2090 C2089 1.397 . S
C2090 C2091 1.334 . S
C2091 H2068 0.950 . S
C2091 C2090 1.334 . S
C2091 C2092 1.287 . S
C2092 C2091 1.287 . S
C2092 C2093 1.524 . S
C2092 H2111 0.913 . S
C2093 H2069 0.950 . S
C2093 C2092 1.524 . S
C2093 C2094 1.415 . S
C2094 H2070 0.950 . S
C2094 C2089 1.363 . S
C2094 C2093 1.415 . S
C2095 H2071 0.951 . S
C2095 C2096 1.366 . S
C2095 C2097 1.388 . S
C2096 C2095 1.366 . S
C2096 C2100 1.385 . S
C2097 H2072 0.951 . S
C2097 C2095 1.388 . S
C2097 C2098 1.366 . S
C2098 C2097 1.366 . S
C2098 C2099 1.414 . S
C2098 C2101 1.499 . S
C2099 H2073 0.950 . S
C2099 C2098 1.414 . S
C2099 C2100 1.374 . S
C2100 H2074 0.950 . S
C2100 C2096 1.385 . S
C2100 C2099 1.374 . S
C2101 C2098 1.499 . S
C2101 C2102 1.373 . S
C2101 C2103 1.389 . S
C2102 H2075 0.950 . S
C2102 C2088 1.377 . S
C2102 C2101 1.373 . S
C2103 C2087 1.377 . S
C2103 C2101 1.389 . S
C2103 C2104 1.524 . S
C2104 C2103 1.524 . S
C2104 C2105 1.397 . S
C2104 C2109 1.363 . S
C2105 H2076 0.950 . S
C2105 C2104 1.397 . S
C2105 C2106 1.334 . S
C2106 H2077 0.950 . S
C2106 C2105 1.334 . S
C2106 C2107 1.287 . S
C2107 C2106 1.287 . S
C2107 C2108 1.524 . S
C2107 H2110 0.999 . S
C2108 H2078 0.950 . S
C2108 C2107 1.524 . S
C2108 C2109 1.415 . S
C2109 H2079 0.950 . S
C2109 C2104 1.363 . S
C2109 C2108 1.415 . S
H2110 C2107 0.999 . S
H2111 C2092 0.913 . S
H2112 C2130 0.951 . S
H2113 C2132 0.951 . S
H2114 C2134 0.950 . S
H2115 C2135 0.950 . S
H2116 C2137 0.950 . S
H2117 C2140 0.950 . S
H2118 C2141 0.950 . S
H2119 C2143 0.950 . S
H2120 C2144 0.950 . S
H2121 C2145 0.951 . S
H2122 C2147 0.951 . S
H2123 C2149 0.950 . S
H2124 C2150 0.950 . S
H2125 C2152 0.950 . S
H2126 C2155 0.950 . S
H2127 C2156 0.950 . S
H2128 C2158 0.950 . S
H2129 C2159 0.950 . S
C2130 H2112 0.951 . S
C2130 C2131 1.366 . S
C2130 C2132 1.388 . S
C2131 C2130 1.366 . S
C2131 C2135 1.385 . S
C2132 H2113 0.951 . S
C2132 C2130 1.388 . S
C2132 C2133 1.366 . S
C2133 C2132 1.366 . S
C2133 C2134 1.414 . S
C2133 C2136 1.499 . S
C2134 H2114 0.950 . S
C2134 C2133 1.414 . S
C2134 C2135 1.374 . S
C2135 H2115 0.950 . S
C2135 C2131 1.385 . S
C2135 C2134 1.374 . S
C2136 C2133 1.499 . S
C2136 C2137 1.373 . S
C2136 C2138 1.389 . S
C2137 H2116 0.950 . S
C2137 C2136 1.373 . S
C2137 C2153 1.377 . S
C2138 C2136 1.389 . S
C2138 C2139 1.524 . S
C2138 C2152 1.377 . S
C2139 C2138 1.524 . S
C2139 C2140 1.397 . S
C2139 C2144 1.363 . S
C2140 H2117 0.950 . S
C2140 C2139 1.397 . S
C2140 C2141 1.334 . S
C2141 H2118 0.950 . S
C2141 C2140 1.334 . S
C2141 C2142 1.287 . S
C2142 C2141 1.287 . S
C2142 C2143 1.524 . S
C2142 H2161 0.913 . S
C2143 H2119 0.950 . S
C2143 C2142 1.524 . S
C2143 C2144 1.415 . S
C2144 H2120 0.950 . S
C2144 C2139 1.363 . S
C2144 C2143 1.415 . S
C2145 H2121 0.951 . S
C2145 C2146 1.366 . S
C2145 C2147 1.388 . S
C2146 C2145 1.366 . S
C2146 C2150 1.385 . S
C2147 H2122 0.951 . S
C2147 C2145 1.388 . S
C2147 C2148 1.366 . S
C2148 C2147 1.366 . S
C2148 C2149 1.414 . S
C2148 C2151 1.499 . S
C2149 H2123 0.950 . S
C2149 C2148 1.414 . S
C2149 C2150 1.374 . S
C2150 H2124 0.950 . S
C2150 C2146 1.385 . S
C2150 C2149 1.374 . S
C2151 C2148 1.499 . S
C2151 C2152 1.373 . S
C2151 C2153 1.389 . S
C2152 H2125 0.950 . S
C2152 C2138 1.377 . S
C2152 C2151 1.373 . S
C2153 C2137 1.377 . S
C2153 C2151 1.389 . S
C2153 C2154 1.524 . S
C2154 C2153 1.524 . S
C2154 C2155 1.397 . S
C2154 C2159 1.363 . S
C2155 H2126 0.950 . S
C2155 C2154 1.397 . S
C2155 C2156 1.334 . S
C2156 H2127 0.950 . S
C2156 C2155 1.334 . S
C2156 C2157 1.287 . S
C2157 C2156 1.287 . S
C2157 C2158 1.524 . S
C2157 H2160 0.999 . S
C2158 H2128 0.950 . S
C2158 C2157 1.524 . S
C2158 C2159 1.415 . S
C2159 H2129 0.950 . S
C2159 C2154 1.363 . S
C2159 C2158 1.415 . S
H2160 C2157 0.999 . S
H2161 C2142 0.913 . S
H2162 C2180 0.951 . S
H2163 C2182 0.951 . S
H2164 C2184 0.950 . S
H2165 C2185 0.950 . S
H2166 C2187 0.950 . S
H2167 C2190 0.950 . S
H2168 C2191 0.950 . S
H2169 C2193 0.950 . S
H2170 C2194 0.950 . S
H2171 C2195 0.951 . S
H2172 C2197 0.951 . S
H2173 C2199 0.950 . S
H2174 C2200 0.950 . S
H2175 C2202 0.950 . S
H2176 C2205 0.950 . S
H2177 C2206 0.950 . S
H2178 C2208 0.950 . S
H2179 C2209 0.950 . S
C2180 H2162 0.951 . S
C2180 C2181 1.366 . S
C2180 C2182 1.388 . S
C2181 C2180 1.366 . S
C2181 C2185 1.385 . S
C2182 H2163 0.951 . S
C2182 C2180 1.388 . S
C2182 C2183 1.366 . S
C2183 C2182 1.366 . S
C2183 C2184 1.414 . S
C2183 C2186 1.499 1_556 S
C2184 H2164 0.950 . S
C2184 C2183 1.414 . S
C2184 C2185 1.374 . S
C2185 H2165 0.950 . S
C2185 C2181 1.385 . S
C2185 C2184 1.374 . S
C2186 C2183 1.499 1_554 S
C2186 C2187 1.373 . S
C2186 C2188 1.389 . S
C2187 H2166 0.950 . S
C2187 C2186 1.373 . S
C2187 C2203 1.377 . S
C2188 C2186 1.389 . S
C2188 C2189 1.524 . S
C2188 C2202 1.377 . S
C2189 C2188 1.524 . S
C2189 C2190 1.397 . S
C2189 C2194 1.363 . S
C2190 H2167 0.950 . S
C2190 C2189 1.397 . S
C2190 C2191 1.334 . S
C2191 H2168 0.950 . S
C2191 C2190 1.334 . S
C2191 C2192 1.287 . S
C2192 C2191 1.287 . S
C2192 C2193 1.524 . S
C2192 H2211 0.913 . S
C2193 H2169 0.950 . S
C2193 C2192 1.524 . S
C2193 C2194 1.415 . S
C2194 H2170 0.950 . S
C2194 C2189 1.363 . S
C2194 C2193 1.415 . S
C2195 H2171 0.951 . S
C2195 C2196 1.366 . S
C2195 C2197 1.388 . S
C2196 C2195 1.366 . S
C2196 C2200 1.385 . S
C2197 H2172 0.951 . S
C2197 C2195 1.388 . S
C2197 C2198 1.366 . S
C2198 C2197 1.366 . S
C2198 C2199 1.414 . S
C2198 C2201 1.499 . S
C2199 H2173 0.950 . S
C2199 C2198 1.414 . S
C2199 C2200 1.374 . S
C2200 H2174 0.950 . S
C2200 C2196 1.385 . S
C2200 C2199 1.374 . S
C2201 C2198 1.499 . S
C2201 C2202 1.373 . S
C2201 C2203 1.389 . S
C2202 H2175 0.950 . S
C2202 C2188 1.377 . S
C2202 C2201 1.373 . S
C2203 C2187 1.377 . S
C2203 C2201 1.389 . S
C2203 C2204 1.524 . S
C2204 C2203 1.524 . S
C2204 C2205 1.397 . S
C2204 C2209 1.363 . S
C2205 H2176 0.950 . S
C2205 C2204 1.397 . S
C2205 C2206 1.334 . S
C2206 H2177 0.950 . S
C2206 C2205 1.334 . S
C2206 C2207 1.287 . S
C2207 C2206 1.287 . S
C2207 C2208 1.524 . S
C2207 H2210 0.999 . S
C2208 H2178 0.950 . S
C2208 C2207 1.524 . S
C2208 C2209 1.415 . S
C2209 H2179 0.950 . S
C2209 C2204 1.363 . S
C2209 C2208 1.415 . S
H2210 C2207 0.999 . S
H2211 C2192 0.913 . S
H2212 C2230 0.951 . S
H2213 C2232 0.951 . S
H2214 C2234 0.950 . S
H2215 C2235 0.950 . S
H2216 C2237 0.950 . S
H2217 C2240 0.950 . S
H2218 C2241 0.950 . S
H2219 C2243 0.950 . S
H2220 C2244 0.950 . S
H2221 C2245 0.951 . S
H2222 C2247 0.951 . S
H2223 C2249 0.950 . S
H2224 C2250 0.950 . S
H2225 C2252 0.950 . S
H2226 C2255 0.950 . S
H2227 C2256 0.950 . S
H2228 C2258 0.950 . S
H2229 C2259 0.950 . S
C2230 H2212 0.951 . S
C2230 C2231 1.366 . S
C2230 C2232 1.388 . S
C2231 C2230 1.366 . S
C2231 C2235 1.385 . S
C2232 H2213 0.951 . S
C2232 C2230 1.388 . S
C2232 C2233 1.366 . S
C2233 C2232 1.366 . S
C2233 C2234 1.414 . S
C2233 C2236 1.499 . S
C2234 H2214 0.950 . S
C2234 C2233 1.414 . S
C2234 C2235 1.374 . S
C2235 H2215 0.950 . S
C2235 C2231 1.385 . S
C2235 C2234 1.374 . S
C2236 C2233 1.499 . S
C2236 C2237 1.373 . S
C2236 C2238 1.389 . S
C2237 H2216 0.950 . S
C2237 C2236 1.373 . S
C2237 C2253 1.377 . S
C2238 C2236 1.389 . S
C2238 C2239 1.524 . S
C2238 C2252 1.377 . S
C2239 C2238 1.524 . S
C2239 C2240 1.397 . S
C2239 C2244 1.363 . S
C2240 H2217 0.950 . S
C2240 C2239 1.397 . S
C2240 C2241 1.334 . S
C2241 H2218 0.950 . S
C2241 C2240 1.334 . S
C2241 C2242 1.287 . S
C2242 C2241 1.287 . S
C2242 C2243 1.524 . S
C2242 H2261 0.913 . S
C2243 H2219 0.950 . S
C2243 C2242 1.524 . S
C2243 C2244 1.415 . S
C2244 H2220 0.950 . S
C2244 C2239 1.363 . S
C2244 C2243 1.415 . S
C2245 H2221 0.951 . S
C2245 C2246 1.366 . S
C2245 C2247 1.388 . S
C2246 C2245 1.366 . S
C2246 C2250 1.385 . S
C2247 H2222 0.951 . S
C2247 C2245 1.388 . S
C2247 C2248 1.366 . S
C2248 C2247 1.366 . S
C2248 C2249 1.414 . S
C2248 C2251 1.499 . S
C2249 H2223 0.950 . S
C2249 C2248 1.414 . S
C2249 C2250 1.374 . S
C2250 H2224 0.950 . S
C2250 C2246 1.385 . S
C2250 C2249 1.374 . S
C2251 C2248 1.499 . S
C2251 C2252 1.373 . S
C2251 C2253 1.389 . S
C2252 H2225 0.950 . S
C2252 C2238 1.377 . S
C2252 C2251 1.373 . S
C2253 C2237 1.377 . S
C2253 C2251 1.389 . S
C2253 C2254 1.524 . S
C2254 C2253 1.524 . S
C2254 C2255 1.397 . S
C2254 C2259 1.363 . S
C2255 H2226 0.950 . S
C2255 C2254 1.397 . S
C2255 C2256 1.334 . S
C2256 H2227 0.950 . S
C2256 C2255 1.334 . S
C2256 C2257 1.287 . S
C2257 C2256 1.287 . S
C2257 C2258 1.524 . S
C2257 H2260 0.999 . S
C2258 H2228 0.950 . S
C2258 C2257 1.524 . S
C2258 C2259 1.415 . S
C2259 H2229 0.950 . S
C2259 C2254 1.363 . S
C2259 C2258 1.415 . S
H2260 C2257 0.999 . S
H2261 C2242 0.913 . S
H2262 C2280 0.951 . S
H2263 C2282 0.951 . S
H2264 C2284 0.950 . S
H2265 C2285 0.950 . S
H2266 C2287 0.950 . S
H2267 C2290 0.950 1_554 S
H2268 C2291 0.950 . S
H2269 C2293 0.950 . S
H2270 C2294 0.950 . S
H2271 C2295 0.951 . S
H2272 C2297 0.951 . S
H2273 C2299 0.950 . S
H2274 C2300 0.950 . S
H2275 C2302 0.950 . S
H2276 C2305 0.950 . S
H2277 C2306 0.950 . S
H2278 C2308 0.950 . S
H2279 C2309 0.950 . S
C2280 H2262 0.951 . S
C2280 C2281 1.366 . S
C2280 C2282 1.388 . S
C2281 C2280 1.366 . S
C2281 C2285 1.385 . S
C2282 H2263 0.951 . S
C2282 C2280 1.388 . S
C2282 C2283 1.366 . S
C2283 C2282 1.366 . S
C2283 C2284 1.414 . S
C2283 C2286 1.499 1_554 S
C2284 H2264 0.950 . S
C2284 C2283 1.414 . S
C2284 C2285 1.374 . S
C2285 H2265 0.950 . S
C2285 C2281 1.385 . S
C2285 C2284 1.374 . S
C2286 C2283 1.499 1_556 S
C2286 C2287 1.373 . S
C2286 C2288 1.389 . S
C2287 H2266 0.950 . S
C2287 C2286 1.373 . S
C2287 C2303 1.377 . S
C2288 C2286 1.389 . S
C2288 C2289 1.524 . S
C2288 C2302 1.377 . S
C2289 C2288 1.524 . S
C2289 C2290 1.394 . S
C2289 C2294 1.363 . S
C2290 H2267 0.950 1_556 S
C2290 C2289 1.394 . S
C2290 C2291 1.337 1_556 S
C2291 H2268 0.950 . S
C2291 C2290 1.337 1_554 S
C2291 C2292 1.287 . S
C2292 C2291 1.287 . S
C2292 C2293 1.524 1_554 S
C2292 H2311 0.913 . S
C2293 H2269 0.950 . S
C2293 C2292 1.524 1_556 S
C2293 C2294 1.415 . S
C2294 H2270 0.950 . S
C2294 C2289 1.363 . S
C2294 C2293 1.415 . S
C2295 H2271 0.951 . S
C2295 C2296 1.366 . S
C2295 C2297 1.388 . S
C2296 C2295 1.366 . S
C2296 C2300 1.385 . S
C2297 H2272 0.951 . S
C2297 C2295 1.388 . S
C2297 C2298 1.366 . S
C2298 C2297 1.366 . S
C2298 C2299 1.414 . S
C2298 C2301 1.499 . S
C2299 H2273 0.950 . S
C2299 C2298 1.414 . S
C2299 C2300 1.374 . S
C2300 H2274 0.950 . S
C2300 C2296 1.385 . S
C2300 C2299 1.374 . S
C2301 C2298 1.499 . S
C2301 C2302 1.373 . S
C2301 C2303 1.389 . S
C2302 H2275 0.950 . S
C2302 C2288 1.377 . S
C2302 C2301 1.373 . S
C2303 C2287 1.377 . S
C2303 C2301 1.389 . S
C2303 C2304 1.524 . S
C2304 C2303 1.524 . S
C2304 C2305 1.397 . S
C2304 C2309 1.363 . S
C2305 H2276 0.950 . S
C2305 C2304 1.397 . S
C2305 C2306 1.334 . S
C2306 H2277 0.950 . S
C2306 C2305 1.334 . S
C2306 C2307 1.287 . S
C2307 C2306 1.287 . S
C2307 C2308 1.524 . S
C2307 H2310 0.999 . S
C2308 H2278 0.950 . S
C2308 C2307 1.524 . S
C2308 C2309 1.415 . S
C2309 H2279 0.950 . S
C2309 C2304 1.363 . S
C2309 C2308 1.415 . S
H2310 C2307 0.999 . S
H2311 C2292 0.913 . S
H2312 C2330 0.951 . S
H2313 C2332 0.951 . S
H2314 C2334 0.950 . S
H2315 C2335 0.950 . S
H2316 C2337 0.950 . S
H2317 C2340 0.950 . S
H2318 C2341 0.950 . S
H2319 C2343 0.950 . S
H2320 C2344 0.950 . S
H2321 C2345 0.951 . S
H2322 C2347 0.951 . S
H2323 C2349 0.950 . S
H2324 C2350 0.950 . S
H2325 C2352 0.950 . S
H2326 C2355 0.950 . S
H2327 C2356 0.950 . S
H2328 C2358 0.950 . S
H2329 C2359 0.950 . S
C2330 H2312 0.951 . S
C2330 C2331 1.366 . S
C2330 C2332 1.388 . S
C2331 C2330 1.366 . S
C2331 C2335 1.385 . S
C2332 H2313 0.951 . S
C2332 C2330 1.388 . S
C2332 C2333 1.366 . S
C2333 C2332 1.366 . S
C2333 C2334 1.414 . S
C2333 C2336 1.499 . S
C2334 H2314 0.950 . S
C2334 C2333 1.414 . S
C2334 C2335 1.374 . S
C2335 H2315 0.950 . S
C2335 C2331 1.385 . S
C2335 C2334 1.374 . S
C2336 C2333 1.499 . S
C2336 C2337 1.373 . S
C2336 C2338 1.389 . S
C2337 H2316 0.950 . S
C2337 C2336 1.373 . S
C2337 C2353 1.377 . S
C2338 C2336 1.389 . S
C2338 C2339 1.524 . S
C2338 C2352 1.377 . S
C2339 C2338 1.524 . S
C2339 C2340 1.397 . S
C2339 C2344 1.363 . S
C2340 H2317 0.950 . S
C2340 C2339 1.397 . S
C2340 C2341 1.334 . S
C2341 H2318 0.950 . S
C2341 C2340 1.334 . S
C2341 C2342 1.287 . S
C2342 C2341 1.287 . S
C2342 C2343 1.524 . S
C2342 H2361 0.913 . S
C2343 H2319 0.950 . S
C2343 C2342 1.524 . S
C2343 C2344 1.415 . S
C2344 H2320 0.950 . S
C2344 C2339 1.363 . S
C2344 C2343 1.415 . S
C2345 H2321 0.951 . S
C2345 C2346 1.366 . S
C2345 C2347 1.388 . S
C2346 C2345 1.366 . S
C2346 C2350 1.385 . S
C2347 H2322 0.951 . S
C2347 C2345 1.388 . S
C2347 C2348 1.366 . S
C2348 C2347 1.366 . S
C2348 C2349 1.414 . S
C2348 C2351 1.499 . S
C2349 H2323 0.950 . S
C2349 C2348 1.414 . S
C2349 C2350 1.374 . S
C2350 H2324 0.950 . S
C2350 C2346 1.385 . S
C2350 C2349 1.374 . S
C2351 C2348 1.499 . S
C2351 C2352 1.373 . S
C2351 C2353 1.389 . S
C2352 H2325 0.950 . S
C2352 C2338 1.377 . S
C2352 C2351 1.373 . S
C2353 C2337 1.377 . S
C2353 C2351 1.389 . S
C2353 C2354 1.524 . S
C2354 C2353 1.524 . S
C2354 C2355 1.397 . S
C2354 C2359 1.363 . S
C2355 H2326 0.950 . S
C2355 C2354 1.397 . S
C2355 C2356 1.334 . S
C2356 H2327 0.950 . S
C2356 C2355 1.334 . S
C2356 C2357 1.287 . S
C2357 C2356 1.287 . S
C2357 C2358 1.524 . S
C2357 H2360 0.999 . S
C2358 H2328 0.950 . S
C2358 C2357 1.524 . S
C2358 C2359 1.415 . S
C2359 H2329 0.950 . S
C2359 C2354 1.363 . S
C2359 C2358 1.415 . S
H2360 C2357 0.999 . S
H2361 C2342 0.913 . S
H2362 C2380 0.951 . S
H2363 C2382 0.951 . S
H2364 C2384 0.950 . S
H2365 C2385 0.950 . S
H2366 C2387 0.950 . S
H2367 C2390 0.950 . S
H2368 C2391 0.950 . S
H2369 C2393 0.950 . S
H2370 C2394 0.950 . S
H2371 C2395 0.951 . S
H2372 C2397 0.969 . S
H2373 C2399 0.950 . S
H2374 C2400 0.950 . S
H2375 C2402 0.950 . S
H2376 C2405 0.950 . S
H2377 C2406 0.950 1_455 S
H2378 C2408 0.950 . S
H2379 C2409 0.950 . S
C2380 H2362 0.951 . S
C2380 C2381 1.366 . S
C2380 C2382 1.388 . S
C2381 C2380 1.366 . S
C2381 C2385 1.385 . S
C2382 H2363 0.951 . S
C2382 C2380 1.388 . S
C2382 C2383 1.366 . S
C2383 C2382 1.366 . S
C2383 C2384 1.414 . S
C2383 C2386 1.499 . S
C2384 H2364 0.950 . S
C2384 C2383 1.414 . S
C2384 C2385 1.374 . S
C2385 H2365 0.950 . S
C2385 C2381 1.385 . S
C2385 C2384 1.374 . S
C2386 C2383 1.499 . S
C2386 C2387 1.373 . S
C2386 C2388 1.389 . S
C2387 H2366 0.950 . S
C2387 C2386 1.373 . S
C2387 C2403 1.377 . S
C2388 C2386 1.389 . S
C2388 C2389 1.524 . S
C2388 C2402 1.377 . S
C2389 C2388 1.524 . S
C2389 C2390 1.397 . S
C2389 C2394 1.363 . S
C2390 H2367 0.950 . S
C2390 C2389 1.397 . S
C2390 C2391 1.334 . S
C2391 H2368 0.950 . S
C2391 C2390 1.334 . S
C2391 C2392 1.287 . S
C2392 C2391 1.287 . S
C2392 C2393 1.524 . S
C2392 H2411 0.913 . S
C2393 H2369 0.950 . S
C2393 C2392 1.524 . S
C2393 C2394 1.415 . S
C2394 H2370 0.950 . S
C2394 C2389 1.363 . S
C2394 C2393 1.415 . S
C2395 H2371 0.951 . S
C2395 C2396 1.366 . S
C2395 C2397 1.388 . S
C2396 C2395 1.366 . S
C2396 C2400 1.385 . S
C2397 H2372 0.969 . S
C2397 C2395 1.388 . S
C2397 C2398 1.366 . S
C2398 C2397 1.366 . S
C2398 C2399 1.414 . S
C2398 C2401 1.499 1_455 S
C2399 H2373 0.950 . S
C2399 C2398 1.414 . S
C2399 C2400 1.374 . S
C2400 H2374 0.950 . S
C2400 C2396 1.385 . S
C2400 C2399 1.374 . S
C2401 C2398 1.499 1_655 S
C2401 C2402 1.373 . S
C2401 C2403 1.389 . S
C2402 H2375 0.950 . S
C2402 C2388 1.377 . S
C2402 C2401 1.373 . S
C2403 C2387 1.377 . S
C2403 C2401 1.389 . S
C2403 C2404 1.524 . S
C2404 C2403 1.524 . S
C2404 C2405 1.397 . S
C2404 C2409 1.363 . S
C2405 H2376 0.950 . S
C2405 C2404 1.397 . S
C2405 C2406 1.334 . S
C2406 H2377 0.950 1_655 S
C2406 C2405 1.334 . S
C2406 C2407 1.287 . S
C2407 C2406 1.287 . S
C2407 C2408 1.524 . S
C2407 H2410 0.999 . S
C2408 H2378 0.950 . S
C2408 C2407 1.524 . S
C2408 C2409 1.415 . S
C2409 H2379 0.950 . S
C2409 C2404 1.363 . S
C2409 C2408 1.415 . S
H2410 C2407 0.999 . S
H2411 C2392 0.913 . S
H2412 C2430 0.951 . S
H2413 C2432 0.951 . S
H2414 C2434 0.950 . S
H2415 C2435 0.950 . S
H2416 C2437 0.950 . S
H2417 C2440 0.950 . S
H2418 C2441 0.950 . S
H2419 C2443 0.950 . S
H2420 C2444 0.950 . S
H2421 C2445 0.951 . S
H2422 C2447 0.951 . S
H2423 C2449 0.950 . S
H2424 C2450 0.950 . S
H2425 C2452 0.950 . S
H2426 C2455 0.950 . S
H2427 C2456 0.950 . S
H2428 C2458 0.950 . S
H2429 C2459 0.950 . S
C2430 H2412 0.951 . S
C2430 C2431 1.366 . S
C2430 C2432 1.388 . S
C2431 C2430 1.366 . S
C2431 C2435 1.385 . S
C2432 H2413 0.951 . S
C2432 C2430 1.388 . S
C2432 C2433 1.366 . S
C2433 C2432 1.366 . S
C2433 C2434 1.414 . S
C2433 C2436 1.499 . S
C2434 H2414 0.950 . S
C2434 C2433 1.414 . S
C2434 C2435 1.374 . S
C2435 H2415 0.950 . S
C2435 C2431 1.385 . S
C2435 C2434 1.374 . S
C2436 C2433 1.499 . S
C2436 C2437 1.373 . S
C2436 C2438 1.389 . S
C2437 H2416 0.950 . S
C2437 C2436 1.373 . S
C2437 C2453 1.377 . S
C2438 C2436 1.389 . S
C2438 C2439 1.524 . S
C2438 C2452 1.377 . S
C2439 C2438 1.524 . S
C2439 C2440 1.397 . S
C2439 C2444 1.363 . S
C2440 H2417 0.950 . S
C2440 C2439 1.397 . S
C2440 C2441 1.334 . S
C2441 H2418 0.950 . S
C2441 C2440 1.334 . S
C2441 C2442 1.287 . S
C2442 C2441 1.287 . S
C2442 C2443 1.524 . S
C2442 H2461 0.913 . S
C2443 H2419 0.950 . S
C2443 C2442 1.524 . S
C2443 C2444 1.415 . S
C2444 H2420 0.950 . S
C2444 C2439 1.363 . S
C2444 C2443 1.415 . S
C2445 H2421 0.951 . S
C2445 C2446 1.366 . S
C2445 C2447 1.388 . S
C2446 C2445 1.366 . S
C2446 C2450 1.385 . S
C2447 H2422 0.951 . S
C2447 C2445 1.388 . S
C2447 C2448 1.366 . S
C2448 C2447 1.366 . S
C2448 C2449 1.414 . S
C2448 C2451 1.499 1_655 S
C2449 H2423 0.950 . S
C2449 C2448 1.414 . S
C2449 C2450 1.374 . S
C2450 H2424 0.950 . S
C2450 C2446 1.385 . S
C2450 C2449 1.374 . S
C2451 C2448 1.499 1_455 S
C2451 C2452 1.373 . S
C2451 C2453 1.389 . S
C2452 H2425 0.950 . S
C2452 C2438 1.377 . S
C2452 C2451 1.373 . S
C2453 C2437 1.377 . S
C2453 C2451 1.389 . S
C2453 C2454 1.524 . S
C2454 C2453 1.524 . S
C2454 C2455 1.397 . S
C2454 C2459 1.363 . S
C2455 H2426 0.950 . S
C2455 C2454 1.397 . S
C2455 C2456 1.334 1_455 S
C2456 H2427 0.950 . S
C2456 C2455 1.334 1_655 S
C2456 C2457 1.287 . S
C2457 C2456 1.287 . S
C2457 C2458 1.524 1_655 S
C2457 H2460 0.999 . S
C2458 H2428 0.950 . S
C2458 C2457 1.524 1_455 S
C2458 C2459 1.415 . S
C2459 H2429 0.950 . S
C2459 C2454 1.363 . S
C2459 C2458 1.415 . S
H2460 C2457 0.999 . S
H2461 C2442 0.913 . S
H2462 C2480 0.951 . S
H2463 C2482 0.951 . S
H2464 C2484 0.950 . S
H2465 C2485 0.950 . S
H2466 C2487 0.950 . S
H2467 C2490 0.950 . S
H2468 C2491 0.950 . S
H2469 C2493 0.950 . S
H2470 C2494 0.950 . S
H2471 C2495 0.951 . S
H2472 C2497 0.951 . S
H2473 C2499 0.950 . S
H2474 C2500 0.950 . S
H2475 C2502 0.950 . S
H2476 C2505 0.950 . S
H2477 C2506 0.950 . S
H2478 C2508 0.950 . S
H2479 C2509 0.950 . S
C2480 H2462 0.951 . S
C2480 C2481 1.366 . S
C2480 C2482 1.388 . S
C2481 C2480 1.366 . S
C2481 C2485 1.385 . S
C2482 H2463 0.951 . S
C2482 C2480 1.388 . S
C2482 C2483 1.366 . S
C2483 C2482 1.366 . S
C2483 C2484 1.414 . S
C2483 C2486 1.499 . S
C2484 H2464 0.950 . S
C2484 C2483 1.414 . S
C2484 C2485 1.374 . S
C2485 H2465 0.950 . S
C2485 C2481 1.385 . S
C2485 C2484 1.374 . S
C2486 C2483 1.499 . S
C2486 C2487 1.373 . S
C2486 C2488 1.389 . S
C2487 H2466 0.950 . S
C2487 C2486 1.373 . S
C2487 C2503 1.377 . S
C2488 C2486 1.389 . S
C2488 C2489 1.524 . S
C2488 C2502 1.377 . S
C2489 C2488 1.524 . S
C2489 C2490 1.397 . S
C2489 C2494 1.363 . S
C2490 H2467 0.950 . S
C2490 C2489 1.397 . S
C2490 C2491 1.334 . S
C2491 H2468 0.950 . S
C2491 C2490 1.334 . S
C2491 C2492 1.287 . S
C2492 C2491 1.287 . S
C2492 C2493 1.524 . S
C2492 H2511 0.913 . S
C2493 H2469 0.950 . S
C2493 C2492 1.524 . S
C2493 C2494 1.415 . S
C2494 H2470 0.950 . S
C2494 C2489 1.363 . S
C2494 C2493 1.415 . S
C2495 H2471 0.951 . S
C2495 C2496 1.366 . S
C2495 C2497 1.388 . S
C2496 C2495 1.366 . S
C2496 C2500 1.385 . S
C2497 H2472 0.951 . S
C2497 C2495 1.388 . S
C2497 C2498 1.366 . S
C2498 C2497 1.366 . S
C2498 C2499 1.414 . S
C2498 C2501 1.499 . S
C2499 H2473 0.950 . S
C2499 C2498 1.414 . S
C2499 C2500 1.374 . S
C2500 H2474 0.950 . S
C2500 C2496 1.385 . S
C2500 C2499 1.374 . S
C2501 C2498 1.499 . S
C2501 C2502 1.373 . S
C2501 C2503 1.389 . S
C2502 H2475 0.950 . S
C2502 C2488 1.377 . S
C2502 C2501 1.373 . S
C2503 C2487 1.377 . S
C2503 C2501 1.389 . S
C2503 C2504 1.524 . S
C2504 C2503 1.524 . S
C2504 C2505 1.397 . S
C2504 C2509 1.363 . S
C2505 H2476 0.950 . S
C2505 C2504 1.397 . S
C2505 C2506 1.334 . S
C2506 H2477 0.950 . S
C2506 C2505 1.334 . S
C2506 C2507 1.287 . S
C2507 C2506 1.287 . S
C2507 C2508 1.524 . S
C2507 H2510 0.999 . S
C2508 H2478 0.950 . S
C2508 C2507 1.524 . S
C2508 C2509 1.415 . S
C2509 H2479 0.950 . S
C2509 C2504 1.363 . S
C2509 C2508 1.415 . S
H2510 C2507 0.999 . S
H2511 C2492 0.913 . S
H2512 C2530 0.951 . S
H2513 C2532 0.951 . S
H2514 C2534 0.950 . S
H2515 C2535 0.950 . S
H2516 C2537 0.950 . S
H2517 C2540 0.950 . S
H2518 C2541 0.950 . S
H2519 C2543 0.950 . S
H2520 C2544 0.950 . S
H2521 C2545 0.951 . S
H2522 C2547 0.951 . S
H2523 C2549 0.950 . S
H2524 C2550 0.950 . S
H2525 C2552 0.950 . S
H2526 C2555 0.950 . S
H2527 C2556 0.950 . S
H2528 C2558 0.950 . S
H2529 C2559 0.950 . S
C2530 H2512 0.951 . S
C2530 C2531 1.366 . S
C2530 C2532 1.388 . S
C2531 C2530 1.366 . S
C2531 C2535 1.385 . S
C2532 H2513 0.951 . S
C2532 C2530 1.388 . S
C2532 C2533 1.366 . S
C2533 C2532 1.366 . S
C2533 C2534 1.414 . S
C2533 C2536 1.499 . S
C2534 H2514 0.950 . S
C2534 C2533 1.414 . S
C2534 C2535 1.374 . S
C2535 H2515 0.950 . S
C2535 C2531 1.385 . S
C2535 C2534 1.374 . S
C2536 C2533 1.499 . S
C2536 C2537 1.373 . S
C2536 C2538 1.389 . S
C2537 H2516 0.950 . S
C2537 C2536 1.373 . S
C2537 C2553 1.377 . S
C2538 C2536 1.389 . S
C2538 C2539 1.524 . S
C2538 C2552 1.377 . S
C2539 C2538 1.524 . S
C2539 C2540 1.397 . S
C2539 C2544 1.363 . S
C2540 H2517 0.950 . S
C2540 C2539 1.397 . S
C2540 C2541 1.334 . S
C2541 H2518 0.950 . S
C2541 C2540 1.334 . S
C2541 C2542 1.287 . S
C2542 C2541 1.287 . S
C2542 C2543 1.524 . S
C2542 H2561 0.913 . S
C2543 H2519 0.950 . S
C2543 C2542 1.524 . S
C2543 C2544 1.415 . S
C2544 H2520 0.950 . S
C2544 C2539 1.363 . S
C2544 C2543 1.415 . S
C2545 H2521 0.951 . S
C2545 C2546 1.366 . S
C2545 C2547 1.388 . S
C2546 C2545 1.366 . S
C2546 C2550 1.385 . S
C2547 H2522 0.951 . S
C2547 C2545 1.388 . S
C2547 C2548 1.366 . S
C2548 C2547 1.366 . S
C2548 C2549 1.414 . S
C2548 C2551 1.499 . S
C2549 H2523 0.950 . S
C2549 C2548 1.414 . S
C2549 C2550 1.374 . S
C2550 H2524 0.950 . S
C2550 C2546 1.385 . S
C2550 C2549 1.374 . S
C2551 C2548 1.499 . S
C2551 C2552 1.373 . S
C2551 C2553 1.389 . S
C2552 H2525 0.950 . S
C2552 C2538 1.377 . S
C2552 C2551 1.373 . S
C2553 C2537 1.377 . S
C2553 C2551 1.389 . S
C2553 C2554 1.524 . S
C2554 C2553 1.524 . S
C2554 C2555 1.397 . S
C2554 C2559 1.363 . S
C2555 H2526 0.950 . S
C2555 C2554 1.397 . S
C2555 C2556 1.334 . S
C2556 H2527 0.950 . S
C2556 C2555 1.334 . S
C2556 C2557 1.287 . S
C2557 C2556 1.287 . S
C2557 C2558 1.524 . S
C2557 H2560 0.999 . S
C2558 H2528 0.950 . S
C2558 C2557 1.524 . S
C2558 C2559 1.415 . S
C2559 H2529 0.950 . S
C2559 C2554 1.363 . S
C2559 C2558 1.415 . S
H2560 C2557 0.999 . S
H2561 C2542 0.913 . S
H2562 C2580 0.951 . S
H2563 C2582 0.951 . S
H2564 C2584 0.950 . S
H2565 C2585 0.950 . S
H2566 C2587 0.950 . S
H2567 C2590 0.950 . S
H2568 C2591 0.950 . S
H2569 C2593 0.950 . S
H2570 C2594 0.950 . S
H2571 C2595 0.951 . S
H2572 C2597 0.951 . S
H2573 C2599 0.950 . S
H2574 C2600 0.950 . S
H2575 C2602 0.950 . S
H2576 C2605 0.950 . S
H2577 C2606 0.950 . S
H2578 C2608 0.950 . S
H2579 C2609 0.950 . S
C2580 H2562 0.951 . S
C2580 C2581 1.366 . S
C2580 C2582 1.388 . S
C2581 C2580 1.366 . S
C2581 C2585 1.385 . S
C2582 H2563 0.951 . S
C2582 C2580 1.388 . S
C2582 C2583 1.366 . S
C2583 C2582 1.366 . S
C2583 C2584 1.414 . S
C2583 C2586 1.499 . S
C2584 H2564 0.950 . S
C2584 C2583 1.414 . S
C2584 C2585 1.374 . S
C2585 H2565 0.950 . S
C2585 C2581 1.385 . S
C2585 C2584 1.374 . S
C2586 C2583 1.499 . S
C2586 C2587 1.373 . S
C2586 C2588 1.389 . S
C2587 H2566 0.950 . S
C2587 C2586 1.373 . S
C2587 C2603 1.377 . S
C2588 C2586 1.389 . S
C2588 C2589 1.524 . S
C2588 C2602 1.377 . S
C2589 C2588 1.524 . S
C2589 C2590 1.397 . S
C2589 C2594 1.363 . S
C2590 H2567 0.950 . S
C2590 C2589 1.397 . S
C2590 C2591 1.334 . S
C2591 H2568 0.950 . S
C2591 C2590 1.334 . S
C2591 C2592 1.287 . S
C2592 C2591 1.287 . S
C2592 C2593 1.524 . S
C2592 H2611 0.913 . S
C2593 H2569 0.950 . S
C2593 C2592 1.524 . S
C2593 C2594 1.415 . S
C2594 H2570 0.950 . S
C2594 C2589 1.363 . S
C2594 C2593 1.415 . S
C2595 H2571 0.951 . S
C2595 C2596 1.366 . S
C2595 C2597 1.388 . S
C2596 C2595 1.366 . S
C2596 C2600 1.385 . S
C2597 H2572 0.951 . S
C2597 C2595 1.388 . S
C2597 C2598 1.366 . S
C2598 C2597 1.366 . S
C2598 C2599 1.414 . S
C2598 C2601 1.499 1_545 S
C2599 H2573 0.950 . S
C2599 C2598 1.414 . S
C2599 C2600 1.374 . S
C2600 H2574 0.950 . S
C2600 C2596 1.385 . S
C2600 C2599 1.374 . S
C2601 C2598 1.499 1_565 S
C2601 C2602 1.373 . S
C2601 C2603 1.389 . S
C2602 H2575 0.950 . S
C2602 C2588 1.377 . S
C2602 C2601 1.373 . S
C2603 C2587 1.377 . S
C2603 C2601 1.389 . S
C2603 C2604 1.524 . S
C2604 C2603 1.524 . S
C2604 C2605 1.397 . S
C2604 C2609 1.363 . S
C2605 H2576 0.950 . S
C2605 C2604 1.397 . S
C2605 C2606 1.334 . S
C2606 H2577 0.950 . S
C2606 C2605 1.334 . S
C2606 C2607 1.287 . S
C2607 C2606 1.287 . S
C2607 C2608 1.524 . S
C2607 H2610 0.999 . S
C2608 H2578 0.950 . S
C2608 C2607 1.524 . S
C2608 C2609 1.415 . S
C2609 H2579 0.950 . S
C2609 C2604 1.363 . S
C2609 C2608 1.415 . S
H2610 C2607 0.999 . S
H2611 C2592 0.913 . S
H2612 C2630 0.951 . S
H2613 C2632 0.951 . S
H2614 C2634 0.950 . S
H2615 C2635 0.950 . S
H2616 C2637 0.950 . S
H2617 C2640 0.950 . S
H2618 C2641 0.950 . S
H2619 C2643 0.950 . S
H2620 C2644 0.950 . S
H2621 C2645 0.951 . S
H2622 C2647 0.951 . S
H2623 C2649 0.950 . S
H2624 C2650 0.950 . S
H2625 C2652 0.950 . S
H2626 C2655 0.950 . S
H2627 C2656 0.950 . S
H2628 C2658 0.950 . S
H2629 C2659 0.950 . S
C2630 H2612 0.951 . S
C2630 C2631 1.366 . S
C2630 C2632 1.388 . S
C2631 C2630 1.366 . S
C2631 C2635 1.385 . S
C2632 H2613 0.951 . S
C2632 C2630 1.388 . S
C2632 C2633 1.366 . S
C2633 C2632 1.366 . S
C2633 C2634 1.414 . S
C2633 C2636 1.499 1_565 S
C2634 H2614 0.950 . S
C2634 C2633 1.414 . S
C2634 C2635 1.374 . S
C2635 H2615 0.950 . S
C2635 C2631 1.385 . S
C2635 C2634 1.374 . S
C2636 C2633 1.499 1_545 S
C2636 C2637 1.373 . S
C2636 C2638 1.389 . S
C2637 H2616 0.950 . S
C2637 C2636 1.373 . S
C2637 C2653 1.377 . S
C2638 C2636 1.389 . S
C2638 C2639 1.524 . S
C2638 C2652 1.377 . S
C2639 C2638 1.524 . S
C2639 C2640 1.397 . S
C2639 C2644 1.363 . S
C2640 H2617 0.950 . S
C2640 C2639 1.397 . S
C2640 C2641 1.334 . S
C2641 H2618 0.950 . S
C2641 C2640 1.334 . S
C2641 C2642 1.287 . S
C2642 C2641 1.287 . S
C2642 C2643 1.524 . S
C2642 H2661 0.913 . S
C2643 H2619 0.950 . S
C2643 C2642 1.524 . S
C2643 C2644 1.415 . S
C2644 H2620 0.950 . S
C2644 C2639 1.363 . S
C2644 C2643 1.415 . S
C2645 H2621 0.951 . S
C2645 C2646 1.366 . S
C2645 C2647 1.388 . S
C2646 C2645 1.366 . S
C2646 C2650 1.385 . S
C2647 H2622 0.951 . S
C2647 C2645 1.388 . S
C2647 C2648 1.366 . S
C2648 C2647 1.366 . S
C2648 C2649 1.414 . S
C2648 C2651 1.499 . S
C2649 H2623 0.950 . S
C2649 C2648 1.414 . S
C2649 C2650 1.374 . S
C2650 H2624 0.950 . S
C2650 C2646 1.385 . S
C2650 C2649 1.374 . S
C2651 C2648 1.499 . S
C2651 C2652 1.373 . S
C2651 C2653 1.389 . S
C2652 H2625 0.950 . S
C2652 C2638 1.377 . S
C2652 C2651 1.373 . S
C2653 C2637 1.377 . S
C2653 C2651 1.389 . S
C2653 C2654 1.524 . S
C2654 C2653 1.524 . S
C2654 C2655 1.397 . S
C2654 C2659 1.363 . S
C2655 H2626 0.950 . S
C2655 C2654 1.397 . S
C2655 C2656 1.334 . S
C2656 H2627 0.950 . S
C2656 C2655 1.334 . S
C2656 C2657 1.287 . S
C2657 C2656 1.287 . S
C2657 C2658 1.524 . S
C2657 H2660 0.999 . S
C2658 H2628 0.950 . S
C2658 C2657 1.524 . S
C2658 C2659 1.415 . S
C2659 H2629 0.950 . S
C2659 C2654 1.363 . S
C2659 C2658 1.415 . S
H2660 C2657 0.999 . S
H2661 C2642 0.913 . S
H2662 C2680 0.951 . S
H2663 C2682 0.951 . S
H2664 C2684 0.950 . S
H2665 C2685 0.950 . S
H2666 C2687 0.950 . S
H2667 C2690 0.950 . S
H2668 C2691 0.950 . S
H2669 C2693 0.950 . S
H2670 C2694 0.950 . S
H2671 C2695 0.951 . S
H2672 C2697 0.951 . S
H2673 C2699 0.950 . S
H2674 C2700 0.950 . S
H2675 C2702 0.950 . S
H2676 C2705 0.950 . S
H2677 C2706 0.950 . S
H2678 C2708 0.950 . S
H2679 C2709 0.950 . S
C2680 H2662 0.951 . S
C2680 C2681 1.366 . S
C2680 C2682 1.388 . S
C2681 C2680 1.366 . S
C2681 C2685 1.385 . S
C2682 H2663 0.951 . S
C2682 C2680 1.388 . S
C2682 C2683 1.366 . S
C2683 C2682 1.366 . S
C2683 C2684 1.414 . S
C2683 C2686 1.499 . S
C2684 H2664 0.950 . S
C2684 C2683 1.414 . S
C2684 C2685 1.374 . S
C2685 H2665 0.950 . S
C2685 C2681 1.385 . S
C2685 C2684 1.374 . S
C2686 C2683 1.499 . S
C2686 C2687 1.373 . S
C2686 C2688 1.389 . S
C2687 H2666 0.950 . S
C2687 C2686 1.373 . S
C2687 C2703 1.377 . S
C2688 C2686 1.389 . S
C2688 C2689 1.524 . S
C2688 C2702 1.377 . S
C2689 C2688 1.524 . S
C2689 C2690 1.397 . S
C2689 C2694 1.363 . S
C2690 H2667 0.950 . S
C2690 C2689 1.397 . S
C2690 C2691 1.334 . S
C2691 H2668 0.950 . S
C2691 C2690 1.334 . S
C2691 C2692 1.287 . S
C2692 C2691 1.287 . S
C2692 C2693 1.524 . S
C2692 H2711 0.913 . S
C2693 H2669 0.950 . S
C2693 C2692 1.524 . S
C2693 C2694 1.415 . S
C2694 H2670 0.950 . S
C2694 C2689 1.363 . S
C2694 C2693 1.415 . S
C2695 H2671 0.951 . S
C2695 C2696 1.366 . S
C2695 C2697 1.388 . S
C2696 C2695 1.366 . S
C2696 C2700 1.385 . S
C2697 H2672 0.951 . S
C2697 C2695 1.388 . S
C2697 C2698 1.366 . S
C2698 C2697 1.366 . S
C2698 C2699 1.414 . S
C2698 C2701 1.499 . S
C2699 H2673 0.950 . S
C2699 C2698 1.414 . S
C2699 C2700 1.374 . S
C2700 H2674 0.950 . S
C2700 C2696 1.385 . S
C2700 C2699 1.374 . S
C2701 C2698 1.499 . S
C2701 C2702 1.373 . S
C2701 C2703 1.389 . S
C2702 H2675 0.950 . S
C2702 C2688 1.377 . S
C2702 C2701 1.373 . S
C2703 C2687 1.377 . S
C2703 C2701 1.389 . S
C2703 C2704 1.524 . S
C2704 C2703 1.524 . S
C2704 C2705 1.397 . S
C2704 C2709 1.363 . S
C2705 H2676 0.950 . S
C2705 C2704 1.397 . S
C2705 C2706 1.334 . S
C2706 H2677 0.950 . S
C2706 C2705 1.334 . S
C2706 C2707 1.287 . S
C2707 C2706 1.287 . S
C2707 C2708 1.524 . S
C2707 H2710 0.999 . S
C2708 H2678 0.950 . S
C2708 C2707 1.524 . S
C2708 C2709 1.415 . S
C2709 H2679 0.950 . S
C2709 C2704 1.363 . S
C2709 C2708 1.415 . S
H2710 C2707 0.999 . S
H2711 C2692 0.913 . S
C331 C107 1.036 . S
C346 C5 1.048 . S
C381 C16 1.047 . S
C396 C146 1.037 . S
C431 C31 1.047 . S
C446 C120 1.037 . S
C481 C44 1.048 . S
C496 C135 1.036 . S
C531 C55 1.048 . S
C546 C3 1.036 . S
C581 C18 1.036 . S
C596 C68 1.048 . S
C631 C83 1.047 . S
C646 C29 1.037 . S
C681 C42 1.037 . S
C696 C96 1.047 . S
C731 C57 1.037 . S
C746 C109 1.047 . S
C781 C81 1.036 . S
C796 C122 1.048 . S
C831 C133 1.048 . S
C846 C94 1.036 . S
C881 C70 1.037 . S
C896 C148 1.047 . S
C931 C263 1.036 . S
C946 C161 1.048 . S
C981 C172 1.047 . S
C996 C304 1.037 . S
C1031 C187 1.047 . S
C1046 C276 1.037 . S
C1081 C289 1.036 . S
C1096 C200 1.048 . S
C1131 C211 1.048 . S
C1146 C159 1.036 . S
C1181 C174 1.037 . S
C1196 C224 1.047 . S
C1231 C185 1.036 . S
C1246 C239 1.048 . S
C1281 C252 1.047 . S
C1296 C198 1.037 . S
C1331 C265 1.047 . S
C1346 C213 1.037 . S
C1381 C237 1.037 . S
C1396 C278 1.047 . S
C1431 C250 1.036 . S
C1446 C291 1.048 . S
C1481 C302 1.048 . S
C1496 C226 1.036 . S
C1531 C296 1.474 . S
C1546 C4 1.474 . S
C1581 C283 1.474 . S
C1596 C23 1.474 . S
C1631 C303 1.474 . S
C1646 C30 1.474 . S
C1681 C43 1.474 . S
C1696 C270 1.474 . S
C1731 C62 1.474 . S
C1746 C173 1.474 . S
C1781 C166 1.474 . S
C1796 C75 1.474 . S
C1831 C205 1.474 . S
C1846 C82 1.474 . S
C1881 C192 1.474 . S
C1896 C95 1.474 . S
C1931 C108 1.474 . S
C1946 C244 1.474 . S
C1981 C212 1.474 . S
C1996 C121 1.474 . S
C2031 C225 1.474 . S
C2046 C140 1.474 . S
C2081 C257 1.474 . S
C2096 C147 1.474 . S
C2131 C134 1.474 . S
C2146 C160 1.474 . S
C2181 C127 1.474 . S
C2196 C179 1.474 . S
C2231 C186 1.474 . S
C2246 C153 1.474 . S
C2281 C114 1.474 . S
C2296 C199 1.474 . S
C2331 C218 1.474 . S
C2346 C17 1.474 . S
C2381 C231 1.474 . S
C2396 C10 1.474 . S
C2431 C238 1.474 . S
C2446 C49 1.474 . S
C2481 C251 1.474 . S
C2496 C36 1.474 . S
C2531 C264 1.474 . S
C2546 C88 1.474 . S
C2581 C277 1.474 . S
C2596 C56 1.474 . S
C2631 C69 1.474 . S
C2646 C290 1.474 . S
C2681 C309 1.474 . S
C2696 C101 1.474 . S
