# Generated by pormake.
# Topology wnm, (7)-cn, num edge types: 1
# Building blocks:
#     Node 0, Type 0, BuildingBlock: HICVOG_clean_sbu_0, # of connection points: 7
#     Node 1, Type 0, BuildingBlock: HICVOG_clean_sbu_0, # of connection points: 7
#     Node 2, Type 0, BuildingBlock: HICVOG_clean_sbu_0, # of connection points: 7
#     Node 3, Type 0, BuildingBlock: HICVOG_clean_sbu_0, # of connection points: 7
#     Node 4, Type 0, BuildingBlock: HICVOG_clean_sbu_0, # of connection points: 7
#     Node 5, Type 0, BuildingBlock: HICVOG_clean_sbu_0, # of connection points: 7
#     Node 6, Type 0, BuildingBlock: HICVOG_clean_sbu_0, # of connection points: 7
#     Node 7, Type 0, BuildingBlock: HICVOG_clean_sbu_0, # of connection points: 7
#     Node 8, Type 0, BuildingBlock: HICVOG_clean_sbu_0, # of connection points: 7
#     Node 9, Type 0, BuildingBlock: HICVOG_clean_sbu_0, # of connection points: 7
#     Node 10, Type 0, BuildingBlock: HICVOG_clean_sbu_0, # of connection points: 7
#     Node 11, Type 0, BuildingBlock: HICVOG_clean_sbu_0, # of connection points: 7
#     Node 12, Type 0, BuildingBlock: HICVOG_clean_sbu_0, # of connection points: 7
#     Node 13, Type 0, BuildingBlock: HICVOG_clean_sbu_0, # of connection points: 7
#     Node 14, Type 0, BuildingBlock: HICVOG_clean_sbu_0, # of connection points: 7
#     Node 15, Type 0, BuildingBlock: HICVOG_clean_sbu_0, # of connection points: 7
#     Node 16, Type 0, BuildingBlock: HICVOG_clean_sbu_0, # of connection points: 7
#     Node 17, Type 0, BuildingBlock: HICVOG_clean_sbu_0, # of connection points: 7
#     Edge 18, Type (0, 0), None
#     Edge 19, Type (0, 0), None
#     Edge 20, Type (0, 0), None
#     Edge 21, Type (0, 0), None
#     Edge 22, Type (0, 0), None
#     Edge 23, Type (0, 0), None
#     Edge 24, Type (0, 0), None
#     Edge 25, Type (0, 0), None
#     Edge 26, Type (0, 0), None
#     Edge 27, Type (0, 0), None
#     Edge 28, Type (0, 0), None
#     Edge 29, Type (0, 0), None
#     Edge 30, Type (0, 0), None
#     Edge 31, Type (0, 0), None
#     Edge 32, Type (0, 0), None
#     Edge 33, Type (0, 0), None
#     Edge 34, Type (0, 0), None
#     Edge 35, Type (0, 0), None
#     Edge 36, Type (0, 0), None
#     Edge 37, Type (0, 0), None
#     Edge 38, Type (0, 0), None
#     Edge 39, Type (0, 0), None
#     Edge 40, Type (0, 0), None
#     Edge 41, Type (0, 0), None
#     Edge 42, Type (0, 0), None
#     Edge 43, Type (0, 0), None
#     Edge 44, Type (0, 0), None
#     Edge 45, Type (0, 0), None
#     Edge 46, Type (0, 0), None
#     Edge 47, Type (0, 0), None
#     Edge 48, Type (0, 0), None
#     Edge 49, Type (0, 0), None
#     Edge 50, Type (0, 0), None
#     Edge 51, Type (0, 0), None
#     Edge 52, Type (0, 0), None
#     Edge 53, Type (0, 0), None
#     Edge 54, Type (0, 0), None
#     Edge 55, Type (0, 0), None
#     Edge 56, Type (0, 0), None
#     Edge 57, Type (0, 0), None
#     Edge 58, Type (0, 0), None
#     Edge 59, Type (0, 0), None
#     Edge 60, Type (0, 0), None
#     Edge 61, Type (0, 0), None
#     Edge 62, Type (0, 0), None
#     Edge 63, Type (0, 0), None
#     Edge 64, Type (0, 0), None
#     Edge 65, Type (0, 0), None
#     Edge 66, Type (0, 0), None
#     Edge 67, Type (0, 0), None
#     Edge 68, Type (0, 0), None
#     Edge 69, Type (0, 0), None
#     Edge 70, Type (0, 0), None
#     Edge 71, Type (0, 0), None
#     Edge 72, Type (0, 0), None
#     Edge 73, Type (0, 0), None
#     Edge 74, Type (0, 0), None
#     Edge 75, Type (0, 0), None
#     Edge 76, Type (0, 0), None
#     Edge 77, Type (0, 0), None
#     Edge 78, Type (0, 0), None
#     Edge 79, Type (0, 0), None
#     Edge 80, Type (0, 0), None
# Relax obj value: 0.167
# Max RMSD: 0.236
# Mean RMSD: 0.236
data_MOF--net-wnm--node1-HICVOG_clean_sbu_0--edge1-none
_symmetry_space_group_name_H-M    P1
_symmetry_Int_Tables_number       1
_symmetry_cell_setting            triclinic
loop_
_symmetry_equiv_pos_as_xyz
'x, y, z'
_cell_length_a     31.295966
_cell_length_b     31.289617
_cell_length_c     11.34654
_cell_angle_alpha  90.004352
_cell_angle_beta   89.989848
_cell_angle_gamma 119.98342
loop_
_atom_site_label
_atom_site_type_symbol
_atom_site_fract_x
_atom_site_fract_y
_atom_site_fract_z
_atom_type_partial_charge
Zn0 Zn 0.18439 0.48632 0.07511 0.0
C1 C 0.07937 0.38105 0.2864 0.0
N2 N 1.05043 0.36358 0.18293 0.0
C3 C 0.08017 0.39004 0.08492 0.0
N4 N 0.12551 0.42374 0.13215 0.0
N5 N 0.12481 0.41679 0.24877 0.0
C6 C 0.21745 0.38748 0.34699 0.0
O7 O 0.21196 0.39202 0.23375 0.0
O8 O 0.18022 0.54972 0.1138 0.0
Zn9 Zn 0.18306 0.4525 0.34347 0.0
N10 N 0.18575 0.47786 0.91536 0.0
C11 C 0.2074 0.43576 0.77645 0.0
C12 C 0.19387 0.44013 0.88965 0.0
C13 C 0.19002 0.51148 0.83418 0.0
N14 N 0.21218 0.46915 0.69594 0.0
C15 C 0.20389 0.50702 0.72033 0.0
O16 O 0.25305 0.48878 0.29436 0.0
C17 C 0.27719 0.5013 0.20048 0.0
O18 O 0.25554 0.49971 0.10506 0.0
H19 H 0.19182 0.41517 0.95827 0.0
H20 H 0.18345 0.54115 0.85862 0.0
C21 C 0.2121 0.5212 0.51351 0.0
C22 C 0.19884 0.53328 0.61991 0.0
C23 C 0.1329 0.53429 0.52155 0.0
C24 C 0.1383 0.50831 0.42833 0.0
N25 N 0.17639 0.49935 0.43257 0.0
N26 N 0.16087 0.54279 0.61988 0.0
H27 H 0.24286 0.5145 0.50922 0.0
C28 C 0.20059 0.5831 0.19361 0.0
O29 O 0.23045 0.5806 0.27082 0.0
O30 O 0.19771 0.40318 0.42206 0.0
H31 H 0.11189 0.49388 0.35702 0.0
H32 H 0.21462 0.40698 0.75028 0.0
H33 H 0.10344 0.54227 0.52143 0.0
Zn34 Zn 0.62546 0.72061 0.07519 0.0
C35 C 0.73077 0.72089 0.28641 0.0
N36 N 0.74825 0.70942 0.18291 0.0
C37 C 0.72177 0.71268 0.08493 0.0
N38 N 0.68805 0.72431 0.13221 0.0
N39 N 0.69502 0.73058 0.24882 0.0
C40 C 0.72432 0.85255 0.34696 0.0
O41 O 0.71977 0.8425 0.23373 0.0
O42 O 0.56207 0.65304 0.11387 0.0
Zn43 Zn 0.65931 0.75315 0.34353 0.0
N44 N 0.63393 0.73042 0.91546 0.0
C45 C 0.67609 0.79415 0.77657 0.0
C46 C 0.67168 0.77625 0.88977 0.0
C47 C 0.60032 0.70111 0.83426 0.0
N48 N 0.64272 0.76558 0.69603 0.0
C49 C 0.60482 0.71945 0.72041 0.0
O50 O 0.62304 0.78689 0.29439 0.0
C51 C 0.61049 0.79847 0.20053 0.0
O52 O 0.61204 0.77837 0.10513 0.0
H53 H 0.69663 0.79913 0.9584 0.0
H54 H 0.57063 0.66489 0.85867 0.0
C55 C 0.59063 0.71353 0.51361 0.0
C56 C 0.57854 0.68817 0.61998 0.0
C57 C 0.57752 0.62121 0.52149 0.0
C58 C 0.6035 0.6526 0.42831 0.0
N59 N 0.61247 0.69965 0.43262 0.0
N60 N 0.56902 0.64069 0.61987 0.0
H61 H 0.59734 0.75099 0.50939 0.0
C62 C 0.52869 0.64005 0.19368 0.0
O63 O 0.53117 0.6724 0.27092 0.0
O64 O 0.70862 0.81713 0.42206 0.0
H65 H 0.61793 0.64061 0.35697 0.0
H66 H 0.7049 0.83011 0.75041 0.0
H67 H 0.56953 0.58377 0.52131 0.0
Zn68 Zn 0.3912 0.9274 0.07503 0.0
C69 C 0.39094 1.03244 0.28631 0.0
N70 N 0.4024 0.06138 0.18284 0.0
C71 C 0.39913 1.03164 0.08482 0.0
N72 N 0.3875 0.98629 0.13207 0.0
N73 N 0.38125 0.98699 0.2487 0.0
C74 C 0.25934 0.89425 0.34691 0.0
O75 O 0.26938 0.89976 0.23367 0.0
O76 O 0.45876 0.93155 0.11376 0.0
Zn77 Zn 0.35876 0.92871 0.34339 0.0
N78 N 0.38142 0.92606 0.91529 0.0
C79 C 0.31772 0.90446 0.77636 0.0
C80 C 0.33559 0.91796 0.88957 0.0
C81 C 0.41076 0.92178 0.83411 0.0
N82 N 0.34632 0.89967 0.69585 0.0
C83 C 0.39246 0.90794 0.72025 0.0
O84 O 0.32511 0.85869 0.29435 0.0
C85 C 0.31342 0.83459 0.20042 0.0
O86 O 0.33342 0.85627 0.10497 0.0
H87 H 0.31268 0.92002 0.95819 0.0
H88 H 0.44699 0.92834 0.85855 0.0
C89 C 0.39845 0.89972 0.51344 0.0
C90 C 0.42377 0.91298 0.61984 0.0
C91 C 0.49068 0.97897 0.52146 0.0
C92 C 0.4593 0.97356 0.42826 0.0
N93 N 0.41228 0.93544 0.43251 0.0
N94 N 0.47122 0.95097 0.61979 0.0
H95 H 0.36101 0.86894 0.50918 0.0
C96 C 0.47176 0.9112 0.19362 0.0
O97 O 0.43943 0.88134 0.27087 0.0
O98 O 0.29477 0.91401 0.42196 0.0
H99 H 0.47126 0.99999 0.35697 0.0
H100 H 0.28174 0.89727 0.75018 0.0
H101 H 0.5281 1.00845 0.52133 0.0
Zn102 Zn 0.95096 0.6369 0.72156 0.0
C103 C 1.05387 0.69952 0.98006 0.0
N104 N 0.08361 0.72594 0.88202 0.0
C105 C 1.05465 0.70847 0.77858 0.0
N106 N 1.0092 0.67276 0.81625 0.0
N107 N 1.00849 0.66587 0.93289 0.0
C108 C 0.93342 0.5065 0.87122 0.0
O109 O 0.9035 0.50891 0.79408 0.0
O110 O 0.93623 0.68615 0.64291 0.0
Zn111 Zn 0.94963 0.6033 0.98982 0.0
N112 N 0.9578 0.59015 0.63245 0.0
C113 C 1.00143 0.55537 0.54344 0.0
C114 C 0.99594 0.58126 0.63674 0.0
C115 C 0.92213 0.56828 0.55145 0.0
N116 N 0.97349 0.54691 0.44505 0.0
C117 C 0.93546 0.55634 0.44497 0.0
O118 O 0.87852 0.59002 0.95987 0.0
C119 C 0.85682 0.58821 0.86438 0.0
O120 O 0.8809 0.60047 0.7704 0.0
H121 H 1.02232 0.59569 0.70811 0.0
H122 H 0.89134 0.57493 0.55585 0.0
C123 C 0.94414 0.57813 0.23072 0.0
C124 C 0.93029 0.58254 0.34462 0.0
C125 C 0.92651 0.65366 0.28867 0.0
C126 C 0.94003 0.64935 0.17541 0.0
N127 N 0.94824 0.61169 0.14958 0.0
N128 N 0.92186 0.62031 0.36913 0.0
H129 H 0.95083 0.54854 0.20622 0.0
C130 C 0.91646 0.70183 0.71797 0.0
O131 O 0.92199 0.69731 0.83121 0.0
O132 O 0.9538 0.53991 0.95096 0.0
H133 H 0.94198 0.67428 0.10684 0.0
H134 H 1.03092 0.54745 0.54356 0.0
H135 H 0.9192 0.68238 0.31492 0.0
Zn136 Zn 0.47478 0.33656 0.72143 0.0
C137 C 0.4122 0.3769 0.98005 0.0
N138 N 0.38575 0.3802 0.88206 0.0
C139 C 0.40323 0.36873 0.77858 0.0
N140 N 0.43896 0.359 0.81618 0.0
N141 N 0.44588 0.3652 0.93282 0.0
C142 C 0.60526 0.44951 0.87117 0.0
O143 O 0.60284 0.41717 0.794 0.0
O144 O 0.42551 0.2726 0.6428 0.0
Zn145 Zn 0.50849 0.36895 0.98972 0.0
N146 N 0.52155 0.39012 0.63236 0.0
C147 C 0.55641 0.46855 0.54348 0.0
C148 C 0.53047 0.43716 0.6367 0.0
C149 C 0.54343 0.3763 0.55138 0.0
N150 N 0.56489 0.44907 0.44508 0.0
C151 C 0.55542 0.4016 0.44493 0.0
O152 O 0.52185 0.31115 0.95974 0.0
C153 C 0.52352 0.29115 0.86428 0.0
O154 O 0.51112 0.30286 0.77036 0.0
H155 H 0.51603 0.44913 0.70806 0.0
H156 H 0.53676 0.33885 0.55573 0.0
C157 C 0.53366 0.38857 0.23065 0.0
C158 C 0.52923 0.37027 0.34451 0.0
C159 C 0.45811 0.29543 0.28847 0.0
C160 C 0.46243 0.31329 0.17526 0.0
N161 N 0.50009 0.35916 0.14949 0.0
N162 N 0.49146 0.32409 0.36895 0.0
H163 H 0.56325 0.42484 0.2062 0.0
C164 C 0.40983 0.23716 0.71786 0.0
O165 O 0.41435 0.2472 0.8311 0.0
O166 O 0.57186 0.43651 0.95092 0.0
H167 H 0.4375 0.29035 0.10667 0.0
H168 H 0.56437 0.50599 0.54365 0.0
H169 H 0.4294 0.25942 0.31468 0.0
Zn170 Zn 0.7753 0.16077 0.72149 0.0
C171 C 0.73489 0.05785 0.98006 0.0
N172 N 0.73157 1.02809 0.88203 0.0
C173 C 0.74307 0.05706 0.77858 0.0
N174 N 0.75285 0.10253 0.81623 0.0
N175 N 0.74663 0.10324 0.93286 0.0
C176 C 0.66226 0.17829 0.87118 0.0
O177 O 0.6946 0.20822 0.79405 0.0
O178 O 0.83926 0.17544 0.64284 0.0
Zn179 Zn 0.74285 0.16211 0.98978 0.0
N180 N 0.72175 0.15402 0.63244 0.0
C181 C 0.64333 0.11049 0.54364 0.0
C182 C 0.67472 0.11591 0.6368 0.0
C183 C 0.73555 0.18972 0.55148 0.0
N184 N 0.66279 0.13844 0.44524 0.0
C185 C 0.71025 0.17643 0.44506 0.0
O186 O 0.80061 0.23326 0.95979 0.0
C187 C 0.82065 0.25492 0.86437 0.0
O188 O 0.80899 0.23081 0.77045 0.0
H189 H 0.66277 0.08951 0.70815 0.0
H190 H 0.77299 0.22048 0.55583 0.0
C191 C 0.72324 0.16768 0.23075 0.0
C192 C 0.74156 0.18156 0.34459 0.0
C193 C 0.81639 0.18526 0.28843 0.0
C194 C 0.79851 0.1717 0.17524 0.0
N195 N 0.75264 0.16351 0.14954 0.0
N196 N 0.78775 0.18997 0.36895 0.0
H197 H 0.68697 0.16101 0.20635 0.0
C198 C 0.87469 0.19519 0.7179 0.0
O199 O 0.86464 0.18967 0.83114 0.0
O200 O 0.67528 0.1579 0.95095 0.0
H201 H 0.82144 0.1697 0.10661 0.0
H202 H 0.6059 0.08102 0.54384 0.0
H203 H 0.8524 0.19255 0.31458 0.0
Zn204 Zn 0.85105 0.81963 0.40845 0.0
C205 C 0.74601 0.71436 0.61973 0.0
N206 N 0.71707 0.69691 0.51627 0.0
C207 C 0.7468 0.72338 0.41827 0.0
N208 N 0.79217 0.75705 0.46549 0.0
N209 N 0.79146 0.75007 0.5821 0.0
C210 C 0.88404 0.7207 0.68038 0.0
O211 O 0.87854 0.72523 0.56714 0.0
O212 O 0.84687 0.88303 0.44711 0.0
Zn213 Zn 0.84971 0.78576 0.67681 0.0
N214 N 0.85243 0.81116 0.24872 0.0
C215 C 0.87411 0.76907 0.10986 0.0
C216 C 0.86056 0.77343 0.22304 0.0
C217 C 0.8567 0.84477 0.16751 0.0
N218 N 0.87889 0.80244 1.02932 0.0
C219 C 0.87058 0.8403 0.05367 0.0
O220 O 0.91969 0.82198 0.62769 0.0
C221 C 0.94384 0.83454 0.53383 0.0
O222 O 0.92221 0.83302 0.43843 0.0
H223 H 0.85851 0.74848 0.29168 0.0
H224 H 0.85011 0.87444 0.19192 0.0
C225 C 0.87877 0.85445 0.84683 0.0
C226 C 0.86552 0.86655 0.95323 0.0
C227 C 0.79959 0.86759 0.85486 0.0
C228 C 0.80499 0.84161 0.76164 0.0
N229 N 0.84306 0.83263 0.76588 0.0
N230 N 0.82757 0.87608 0.9532 0.0
H231 H 0.90952 0.84774 0.84255 0.0
C232 C 0.86724 0.91641 0.52692 0.0
O233 O 0.89709 0.91391 0.60415 0.0
O234 O 0.86431 0.73641 0.75544 0.0
H235 H 0.77858 0.82718 0.69033 0.0
H236 H 0.88134 0.74029 0.08372 0.0
H237 H 0.77014 0.87558 0.85475 0.0
Zn238 Zn 0.29213 0.05391 0.40844 0.0
C239 C 0.39745 0.05422 0.61964 0.0
N240 N 0.41493 1.04273 0.51616 0.0
C241 C 0.38843 0.04597 0.41818 0.0
N242 N 0.35473 0.05763 0.46544 0.0
N243 N 0.3617 0.06391 0.58205 0.0
C244 C 0.39096 0.18586 0.68027 0.0
O245 O 0.38642 0.17581 0.56704 0.0
O246 O 0.22876 0.98634 0.44717 0.0
Zn247 Zn 0.32597 0.08646 0.67676 0.0
N248 N 0.30058 0.06372 0.24869 0.0
C249 C 0.3427 0.12745 0.1098 0.0
C250 C 0.33831 0.10956 0.223 0.0
C251 C 0.26698 1.03439 0.16748 0.0
N252 N 0.30934 0.09887 1.02926 0.0
C253 C 0.27147 0.05272 0.05363 0.0
O254 O 0.2897 0.12018 0.62765 0.0
C255 C 0.27715 0.13177 0.53379 0.0
O256 O 0.2787 0.11167 0.43839 0.0
H257 H 0.36325 0.13245 0.29164 0.0
H258 H 0.23732 0.99815 0.19189 0.0
C259 C 0.25729 0.0468 0.84682 0.0
C260 C 0.24522 1.02144 0.95319 0.0
C261 C 0.24423 0.9545 0.85468 0.0
C262 C 0.2702 0.9859 0.76149 0.0
N263 N 0.27914 1.03294 0.76582 0.0
N264 N 0.23573 0.97397 0.95307 0.0
H265 H 0.26397 0.08426 0.84261 0.0
C266 C 0.19537 0.97333 0.52695 0.0
O267 O 0.19781 1.00567 0.60416 0.0
O268 O 0.37527 0.15042 0.75535 0.0
H269 H 0.28464 0.97393 0.69014 0.0
H270 H 0.37149 0.16343 0.08365 0.0
H271 H 0.23627 0.91707 0.85448 0.0
Zn272 Zn 1.05787 0.26075 0.40844 0.0
C273 C 1.0576 0.36579 0.61974 0.0
N274 N 0.06909 0.39475 0.51627 0.0
C275 C 1.06584 0.36501 0.41827 0.0
N276 N 1.05416 0.31964 0.46548 0.0
N277 N 1.04789 0.32033 0.5821 0.0
C278 C 0.92598 0.22762 0.6803 0.0
O279 O 0.93602 0.23314 0.56706 0.0
O280 O 0.12544 0.26492 0.44714 0.0
Zn281 Zn 1.02538 0.26206 0.67678 0.0
N282 N 1.04807 0.25942 0.2487 0.0
C283 C 0.98436 0.23782 0.10982 0.0
C284 C 1.00224 0.25133 0.22302 0.0
C285 C 0.07741 0.25513 0.1675 0.0
N286 N 1.01295 0.23303 1.02928 0.0
C287 C 1.05909 0.24128 0.05365 0.0
O288 O 0.99171 0.19204 0.6277 0.0
C289 C 0.98007 0.16793 0.53378 0.0
O290 O 1.00011 0.18961 0.43836 0.0
H291 H 0.97934 0.25339 0.29165 0.0
H292 H 0.11363 0.26168 0.19192 0.0
C293 C 1.06504 0.23304 0.84684 0.0
C294 C 0.09038 0.2463 0.95322 0.0
C295 C 0.1573 0.31225 0.85477 0.0
C296 C 0.12592 0.30685 0.76159 0.0
N297 N 0.07889 0.26875 0.76588 0.0
N298 N 0.13784 0.28427 0.95313 0.0
H299 H 1.0276 0.20228 0.84261 0.0
C300 C 0.13844 0.24456 0.52698 0.0
O301 O 0.10611 0.2147 0.60421 0.0
O302 O 0.9614 0.24737 0.75537 0.0
H303 H 0.13789 0.33326 0.69027 0.0
H304 H 0.94839 0.23065 0.08367 0.0
H305 H 0.19473 0.34171 0.85461 0.0
Zn306 Zn 0.61765 0.97025 0.05486 0.0
C307 C 0.72055 1.03287 0.31339 0.0
N308 N 0.75029 0.05929 0.21537 0.0
C309 C 0.72134 1.04183 0.11191 0.0
N310 N 0.67589 1.00611 0.14956 0.0
N311 N 0.67517 0.99922 0.26621 0.0
C312 C 0.6001 0.83986 0.20453 0.0
O313 O 0.57019 0.84229 0.12738 0.0
O314 O 0.60291 1.0195 0.97623 0.0
Zn315 Zn 0.61631 0.93664 0.32314 0.0
N316 N 0.6245 0.92351 0.96573 0.0
C317 C 0.66812 0.88872 0.87672 0.0
C318 C 0.66264 0.91462 0.97 0.0
C319 C 0.58882 0.90162 0.88476 0.0
N320 N 0.64017 0.88025 0.77834 0.0
C321 C 0.60214 0.88968 0.77827 0.0
O322 O 0.5452 0.92336 0.29317 0.0
C323 C 0.52351 0.92155 0.19767 0.0
O324 O 0.54759 0.93381 0.1037 0.0
H325 H 0.68902 0.92906 0.04136 0.0
H326 H 0.55803 0.90827 0.88917 0.0
C327 C 0.61082 0.91147 0.56402 0.0
C328 C 0.59698 0.91589 0.67793 0.0
C329 C 0.59321 0.98702 0.622 0.0
C330 C 0.60672 0.98271 0.50874 0.0
N331 N 0.61493 0.94504 0.48289 0.0
N332 N 0.58856 0.95367 0.70245 0.0
H333 H 0.6175 0.88187 0.53951 0.0
C334 C 0.58313 1.03517 0.05129 0.0
O335 O 0.58865 1.03065 0.16453 0.0
O336 O 0.62048 0.87325 0.28429 0.0
H337 H 0.60868 1.00764 0.44017 0.0
H338 H 0.69762 0.8808 0.87682 0.0
H339 H 0.58591 1.01574 0.64826 0.0
Zn340 Zn 0.17524 0.70232 0.32305 0.0
C341 C 0.06991 0.70201 0.1119 0.0
N342 N 1.05237 0.71338 0.21543 0.0
C343 C 0.07888 0.71015 0.31339 0.0
N344 N 0.11267 0.69863 0.26607 0.0
N345 N 0.10574 0.69241 0.14944 0.0
C346 C 0.07661 0.57055 0.05121 0.0
O347 O 0.08113 0.58061 0.16444 0.0
O348 O 0.23864 0.76985 0.28421 0.0
Zn349 Zn 0.14156 0.66996 0.0547 0.0
N350 N 0.16684 0.69257 0.48284 0.0
C351 C 0.12484 0.62886 0.62184 0.0
C352 C 0.12916 0.64672 0.50863 0.0
C353 C 0.20045 0.72195 0.56396 0.0
N354 N 0.15822 0.6575 0.7023 0.0
C355 C 0.19603 0.70366 0.67784 0.0
O356 O 0.17792 0.63627 0.10368 0.0
C357 C 0.19027 0.62452 0.19763 0.0
O358 O 0.18854 0.64448 0.2931 0.0
H359 H 0.10422 0.62379 0.44005 0.0
H360 H 0.23008 0.7582 0.53947 0.0
C361 C 0.21024 0.70968 0.88464 0.0
C362 C 0.22228 0.73499 0.77822 0.0
C363 C 0.22317 0.80191 0.87658 0.0
C364 C 0.19723 0.77053 0.96981 0.0
N365 N 0.18835 0.7235 0.96558 0.0
N366 N 0.2317 0.78245 0.77824 0.0
H367 H 0.20361 0.67224 0.88893 0.0
C368 C 0.27202 0.78284 0.20441 0.0
O369 O 0.26956 0.75049 0.12721 0.0
O370 O 0.0923 0.60598 0.97612 0.0
H371 H 0.18276 0.78249 0.04112 0.0
H372 H 0.09611 0.59287 0.64807 0.0
H373 H 0.23109 0.83934 0.87669 0.0
Zn374 Zn 0.4419 0.49417 0.05482 0.0
C375 C 0.40155 0.39125 0.31339 0.0
N376 N 0.39822 0.36149 0.21537 0.0
C377 C 0.40972 0.39045 0.11191 0.0
N378 N 0.41947 0.43592 0.14955 0.0
N379 N 0.41328 0.43664 0.26619 0.0
C380 C 0.32895 0.51169 0.20449 0.0
O381 O 0.36129 0.54161 0.12733 0.0
O382 O 0.50587 0.50887 0.9762 0.0
Zn383 Zn 0.40953 0.49551 0.32312 0.0
N384 N 0.38833 0.48737 0.96574 0.0
C385 C 0.30993 0.4438 0.87687 0.0
C386 C 0.34132 0.44925 0.97007 0.0
C387 C 0.40212 0.52307 0.88479 0.0
N388 N 0.32939 0.47176 0.77849 0.0
C389 C 0.37683 0.50977 0.77834 0.0
O390 O 0.46732 0.56663 0.29314 0.0
C391 C 0.48729 0.58831 0.19768 0.0
O392 O 0.47555 0.56422 0.10372 0.0
H393 H 0.32937 0.42284 0.04141 0.0
H394 H 0.43955 0.55385 0.88915 0.0
C395 C 0.38988 0.50105 0.56406 0.0
C396 C 0.40817 0.51491 0.67792 0.0
C397 C 0.48301 0.51862 0.62186 0.0
C398 C 0.46516 0.50508 0.50864 0.0
N399 N 0.4193 0.49689 0.48288 0.0
N400 N 0.45435 0.52331 0.70235 0.0
H401 H 0.35362 0.49438 0.53961 0.0
C402 C 0.5413 0.52862 0.05127 0.0
O403 O 0.53125 0.52309 0.16451 0.0
O404 O 0.34197 0.49132 0.28428 0.0
H405 H 0.48811 0.50309 0.44004 0.0
H406 H 0.27251 0.41432 0.87704 0.0
H407 H 0.51901 0.5259 0.64806 0.0
Zn408 Zn 0.51772 0.15298 0.74174 0.0
C409 C 0.41268 0.04768 0.95297 0.0
N410 N 0.38374 1.03024 0.84949 0.0
C411 C 0.41348 0.05671 0.7515 0.0
N412 N 0.45884 0.09038 0.79875 0.0
N413 N 0.45813 0.0834 0.91536 0.0
C414 C 0.5507 0.05404 1.01368 0.0
O415 O 0.54521 0.05858 0.90044 0.0
O416 O 0.51352 0.21637 0.78045 0.0
Zn417 Zn 0.51636 0.11909 1.01011 0.0
N418 N 0.5191 0.14454 0.58198 0.0
C419 C 0.54083 0.10248 0.44311 0.0
C420 C 0.52726 0.10683 0.55629 0.0
C421 C 0.52336 0.17815 0.50078 0.0
N422 N 0.54559 0.13585 0.36258 0.0
C423 C 0.53725 0.17369 0.38694 0.0
O424 O 0.58635 0.15532 0.961 0.0
C425 C 0.6105 0.16789 0.86715 0.0
O426 O 0.58888 0.16638 0.77175 0.0
H427 H 0.52522 0.08188 0.62492 0.0
H428 H 0.51675 0.20779 0.52519 0.0
C429 C 0.54541 0.18782 0.18008 0.0
C430 C 0.53217 0.19992 0.28649 0.0
C431 C 0.46619 0.20088 0.18815 0.0
C432 C 0.47159 0.1749 0.09495 0.0
N433 N 0.5097 0.16596 0.09917 0.0
N434 N 0.49418 0.20941 0.28647 0.0
H435 H 0.57618 0.18113 0.17579 0.0
C436 C 0.53388 0.24974 0.86026 0.0
O437 O 0.56374 0.24726 0.93749 0.0
O438 O 0.53097 0.06975 0.08874 0.0
H439 H 0.44517 0.16045 1.02366 0.0
H440 H 0.54808 0.07372 0.41696 0.0
H441 H 0.43672 0.20884 0.18805 0.0
Zn442 Zn 0.95879 0.38725 0.74188 0.0
C443 C 1.06414 0.38756 0.95307 0.0
N444 N 0.08159 0.37607 0.84957 0.0
C445 C 1.0551 0.37931 0.75161 0.0
N446 N 1.0214 0.39098 0.79888 0.0
N447 N 1.02839 0.39727 0.91549 0.0
C448 C 1.05771 0.51924 1.01366 0.0
O449 O 1.05316 0.50918 0.90043 0.0
O450 O 0.89543 0.31967 0.78059 0.0
Zn451 Zn 0.9927 0.41985 1.01022 0.0
N452 N 0.96725 0.39707 0.58213 0.0
C453 C 1.00941 0.46081 0.44327 0.0
C454 C 1.005 0.4429 0.55647 0.0
C455 C 0.93365 0.36776 0.50092 0.0
N456 N 0.97604 0.43224 0.36273 0.0
C457 C 0.93815 0.38611 0.38707 0.0
O458 O 0.95645 0.4536 0.96106 0.0
C459 C 0.94384 0.46513 0.86722 0.0
O460 O 0.94533 0.44499 0.77183 0.0
H461 H 1.02994 0.46578 0.62511 0.0
H462 H 0.90396 0.33153 0.52531 0.0
C463 C 0.92398 0.3802 0.18026 0.0
C464 C 0.91189 0.35484 0.28662 0.0
C465 C 0.91088 0.28789 0.1881 0.0
C466 C 0.93687 0.31929 0.09494 0.0
N467 N 0.94583 0.36634 0.09927 0.0
N468 N 0.90237 0.30736 0.28648 0.0
H469 H 0.93069 0.41767 0.17605 0.0
C470 C 0.86204 0.30667 0.86038 0.0
O471 O 0.86449 0.33901 0.93759 0.0
O472 O 1.04201 0.48381 0.08876 0.0
H473 H 0.95131 0.30731 1.0236 0.0
H474 H 1.0382 0.49678 0.41713 0.0
H475 H 0.9029 0.25045 0.18789 0.0
Zn476 Zn 0.72451 0.59406 0.74182 0.0
C477 C 0.72425 0.69913 0.95307 0.0
N478 N 0.73576 0.72808 0.84959 0.0
C479 C 0.73249 0.69833 0.7516 0.0
N480 N 0.7208 0.65296 0.79885 0.0
N481 N 0.71452 0.65366 0.91546 0.0
C482 C 0.59259 0.56104 1.01369 0.0
O483 O 0.60264 0.56655 0.90045 0.0
O484 O 0.79207 0.59823 0.78049 0.0
Zn485 Zn 0.69198 0.5954 1.01019 0.0
N486 N 0.71469 0.59271 0.58209 0.0
C487 C 0.65096 0.5711 0.44324 0.0
C488 C 0.66886 0.58462 0.55642 0.0
C489 C 0.74401 0.5884 0.50088 0.0
N490 N 0.67953 0.56628 0.3627 0.0
C491 C 0.72567 0.57454 0.38704 0.0
O492 O 0.65825 0.52539 0.96108 0.0
C493 C 0.64665 0.50127 0.8672 0.0
O494 O 0.66675 0.52291 0.77179 0.0
H495 H 0.64597 0.58669 0.62506 0.0
H496 H 0.78024 0.59495 0.52527 0.0
C497 C 0.73163 0.56634 0.1802 0.0
C498 C 0.75696 0.57957 0.28658 0.0
C499 C 0.82389 0.64553 0.1882 0.0
C500 C 0.79252 0.64016 0.09503 0.0
N501 N 0.74548 0.60206 0.09928 0.0
N502 N 0.80442 0.61753 0.28652 0.0
H503 H 0.69418 0.53558 0.17595 0.0
C504 C 0.80508 0.57787 0.86035 0.0
O505 O 0.77275 0.54804 0.93763 0.0
O506 O 0.62801 0.58077 0.08876 0.0
H507 H 0.80449 0.66659 1.02374 0.0
H508 H 0.61498 0.56392 0.41711 0.0
H509 H 0.86132 0.67499 0.18806 0.0
Zn510 Zn 0.28298 0.26995 0.65646 0.0
C511 C 0.388 0.37522 0.44525 0.0
N512 N 0.41693 0.39271 0.54873 0.0
C513 C 0.3872 0.36622 0.64672 0.0
N514 N 0.34186 0.33251 0.59947 0.0
N515 N 0.34257 0.33944 0.48284 0.0
C516 C 0.24987 0.36859 0.38457 0.0
O517 O 0.25538 0.36407 0.49781 0.0
O518 O 0.28713 0.20655 0.61759 0.0
Zn519 Zn 0.28433 0.30362 0.38813 0.0
N520 N 0.28162 0.27835 0.81624 0.0
C521 C 0.25988 0.32033 0.95526 0.0
C522 C 0.27342 0.31602 0.84203 0.0
C523 C 0.27743 0.24474 0.89737 0.0
N524 N 0.25518 0.28696 0.03572 0.0
C525 C 0.26356 0.24916 1.01126 0.0
O526 O 0.21429 0.26725 0.43706 0.0
C527 C 0.19019 0.25491 0.53101 0.0
O528 O 0.21187 0.25666 0.6265 0.0
H529 H 0.27542 0.34097 0.77345 0.0
H530 H 0.28408 0.21512 0.87288 0.0
C531 C 0.25541 0.23495 0.21807 0.0
C532 C 0.26869 0.22293 0.11163 0.0
C533 C 0.33472 0.22204 0.20992 0.0
C534 C 0.32926 0.24797 0.30319 0.0
N535 N 0.29111 0.25684 0.299 0.0
N536 N 0.30672 0.21351 0.1116 0.0
H537 H 0.2246 0.24157 0.2224 0.0
C538 C 0.26676 0.17316 0.5378 0.0
O539 O 0.23686 0.1756 0.46063 0.0
O540 O 0.26962 0.3529 0.3095 0.0
H541 H 0.35567 0.26243 0.37449 0.0
H542 H 0.25259 0.34906 0.98148 0.0
H543 H 0.36422 0.21414 0.20998 0.0
Zn544 Zn 0.84191 1.03564 0.65638 0.0
C545 C 0.73658 1.03535 0.44524 0.0
N546 N 0.71906 0.04675 0.54876 0.0
C547 C 0.74558 1.04354 0.64671 0.0
N548 N 0.77933 1.03195 0.59941 0.0
N549 N 0.77239 1.02573 0.48278 0.0
C550 C 0.74323 0.90387 0.38452 0.0
O551 O 0.74775 0.91392 0.49775 0.0
O552 O 0.90529 0.10318 0.61755 0.0
Zn553 Zn 0.8082 1.00327 0.38803 0.0
N554 N 0.83351 1.02589 0.81617 0.0
C555 C 0.79153 0.96216 0.95515 0.0
C556 C 0.79584 0.98003 0.84195 0.0
C557 C 0.86711 0.05527 0.8973 0.0
N558 N 0.8249 0.9908 0.03561 0.0
C559 C 0.8627 1.03697 1.01117 0.0
O560 O 0.84454 0.96956 0.437 0.0
C561 C 0.85691 0.95783 0.53094 0.0
O562 O 0.85521 0.97781 0.6264 0.0
H563 H 0.7709 0.95709 0.77337 0.0
H564 H 0.89673 0.09152 0.87282 0.0
C565 C 0.87689 1.04299 0.21798 0.0
C566 C 0.88893 0.06831 0.11156 0.0
C567 C 0.88981 0.13523 0.20991 0.0
C568 C 0.86387 0.10384 0.30315 0.0
N569 N 0.85499 0.05682 0.29892 0.0
N570 N 0.89835 0.11576 0.11158 0.0
H571 H 0.87026 1.00555 0.22228 0.0
C572 C 0.93868 0.11618 0.53775 0.0
O573 O 0.93623 0.08384 0.46054 0.0
O574 O 0.75892 0.9393 0.30943 0.0
H575 H 0.8494 0.1158 0.37445 0.0
H576 H 0.7628 0.92616 0.98138 0.0
H577 H 0.89773 0.17265 0.21001 0.0
Zn578 Zn 0.10865 0.82741 0.38811 0.0
C579 C 0.06818 0.72449 0.64671 0.0
N580 N 1.06486 0.69473 0.5487 0.0
C581 C 0.0764 0.7237 0.44525 0.0
N582 N 0.08619 0.76918 0.48289 0.0
N583 N 0.07997 0.7699 0.59952 0.0
C584 C 0.9956 0.84493 0.53783 0.0
O585 O 1.02794 0.87485 0.46067 0.0
O586 O 0.17262 0.84208 0.30947 0.0
Zn587 Zn 0.07619 0.82877 0.65642 0.0
N588 N 1.05509 0.82065 0.29907 0.0
C589 C 0.97668 0.77713 0.21024 0.0
C590 C 1.00807 0.78254 0.3034 0.0
C591 C 0.06889 0.85636 0.21814 0.0
N592 N 0.99614 0.8051 0.11187 0.0
C593 C 1.04359 0.84309 0.11171 0.0
O594 O 0.13394 0.89992 0.6264 0.0
C595 C 0.15399 0.92157 0.53096 0.0
O596 O 0.14235 0.89744 0.43707 0.0
H597 H 0.99612 0.75613 0.37473 0.0
H598 H 0.10633 0.88713 0.22249 0.0
C599 C 1.05659 0.83435 0.89739 0.0
C600 C 0.0749 0.84823 1.01123 0.0
C601 C 0.14974 0.85194 0.95507 0.0
C602 C 0.13186 0.83837 0.84189 0.0
N603 N 0.08599 0.83018 0.81618 0.0
N604 N 0.1211 0.85665 0.0356 0.0
H605 H 1.02032 0.82767 0.873 0.0
C606 C 0.20805 0.86183 0.38452 0.0
O607 O 0.19801 0.85633 0.49777 0.0
O608 O 1.00862 0.82455 0.61761 0.0
H609 H 0.15479 0.83637 0.77326 0.0
H610 H 0.93925 0.74766 0.21042 0.0
H611 H 0.18575 0.85923 0.98123 0.0
loop_
_geom_bond_atom_site_label_1
_geom_bond_atom_site_label_2
_geom_bond_distance
_geom_bond_site_symmetry_2
_ccdc_geom_bond_type
Zn0 N4 2.020 . S
Zn0 O8 2.019 . S
Zn0 N10 2.119 1_554 S
Zn0 O18 1.975 . S
C1 N2 1.334 . S
C1 N5 1.336 . S
N2 C1 1.334 . S
N2 C3 1.334 . S
C3 N2 1.334 . S
C3 N4 1.336 . S
N4 Zn0 2.020 . S
N4 C3 1.336 . S
N4 N5 1.354 . S
N5 C1 1.336 . S
N5 N4 1.354 . S
N5 Zn9 2.020 . S
C6 O7 1.244 . S
C6 O30 1.257 . S
O7 C6 1.244 . S
O8 Zn0 2.019 . S
O8 C28 1.257 . S
Zn9 N5 2.020 . S
Zn9 O16 1.975 . S
Zn9 N25 2.119 . S
Zn9 O30 2.019 . S
N10 Zn0 2.119 1_556 S
N10 C12 1.334 . S
N10 C13 1.328 . S
C11 C12 1.391 . S
C11 N14 1.329 . S
C11 H32 0.930 . S
C12 N10 1.334 . S
C12 C11 1.391 . S
C12 H19 0.930 1_556 S
C13 N10 1.328 . S
C13 C15 1.392 . S
C13 H20 0.930 . S
N14 C11 1.329 . S
N14 C15 1.331 . S
C15 C13 1.392 . S
C15 N14 1.331 . S
O16 Zn9 1.975 . S
O16 C17 1.252 . S
C17 O16 1.252 . S
C17 O18 1.252 . S
O18 Zn0 1.975 . S
O18 C17 1.252 . S
H19 C12 0.930 1_554 S
H20 C13 0.930 . S
C21 C22 1.392 . S
C21 N25 1.328 . S
C21 H27 0.930 . S
C22 C21 1.392 . S
C22 N26 1.331 . S
C23 C24 1.391 . S
C23 N26 1.329 . S
C23 H33 0.930 . S
C24 C23 1.391 . S
C24 N25 1.334 . S
C24 H31 0.930 . S
N25 Zn9 2.119 . S
N25 C21 1.328 . S
N25 C24 1.334 . S
N26 C22 1.331 . S
N26 C23 1.329 . S
H27 C21 0.930 . S
C28 O8 1.257 . S
C28 O29 1.244 . S
O29 C28 1.244 . S
O30 C6 1.257 . S
O30 Zn9 2.019 . S
H31 C24 0.930 . S
H32 C11 0.930 . S
H33 C23 0.930 . S
Zn34 N38 2.020 . S
Zn34 O42 2.019 . S
Zn34 N44 2.119 1_554 S
Zn34 O52 1.975 . S
C35 N36 1.334 . S
C35 N39 1.336 . S
N36 C35 1.334 . S
N36 C37 1.334 . S
C37 N36 1.334 . S
C37 N38 1.336 . S
N38 Zn34 2.020 . S
N38 C37 1.336 . S
N38 N39 1.354 . S
N39 C35 1.336 . S
N39 N38 1.354 . S
N39 Zn43 2.020 . S
C40 O41 1.244 . S
C40 O64 1.257 . S
O41 C40 1.244 . S
O42 Zn34 2.019 . S
O42 C62 1.257 . S
Zn43 N39 2.020 . S
Zn43 O50 1.975 . S
Zn43 N59 2.119 . S
Zn43 O64 2.019 . S
N44 Zn34 2.119 1_556 S
N44 C46 1.334 . S
N44 C47 1.328 . S
C45 C46 1.391 . S
C45 N48 1.329 . S
C45 H66 0.930 . S
C46 N44 1.334 . S
C46 C45 1.391 . S
C46 H53 0.930 1_556 S
C47 N44 1.328 . S
C47 C49 1.392 . S
C47 H54 0.930 . S
N48 C45 1.329 . S
N48 C49 1.331 . S
C49 C47 1.392 . S
C49 N48 1.331 . S
O50 Zn43 1.975 . S
O50 C51 1.252 . S
C51 O50 1.252 . S
C51 O52 1.252 . S
O52 Zn34 1.975 . S
O52 C51 1.252 . S
H53 C46 0.930 1_554 S
H54 C47 0.930 . S
C55 C56 1.392 . S
C55 N59 1.328 . S
C55 H61 0.930 . S
C56 C55 1.392 . S
C56 N60 1.331 . S
C57 C58 1.391 . S
C57 N60 1.329 . S
C57 H67 0.930 . S
C58 C57 1.391 . S
C58 N59 1.334 . S
C58 H65 0.930 . S
N59 Zn43 2.119 . S
N59 C55 1.328 . S
N59 C58 1.334 . S
N60 C56 1.331 . S
N60 C57 1.329 . S
H61 C55 0.930 . S
C62 O42 1.257 . S
C62 O63 1.244 . S
O63 C62 1.244 . S
O64 C40 1.257 . S
O64 Zn43 2.019 . S
H65 C58 0.930 . S
H66 C45 0.930 . S
H67 C57 0.930 . S
Zn68 N72 2.020 . S
Zn68 O76 2.019 . S
Zn68 N78 2.119 1_554 S
Zn68 O86 1.975 . S
C69 N70 1.334 . S
C69 N73 1.336 . S
N70 C69 1.334 . S
N70 C71 1.334 . S
C71 N70 1.334 . S
C71 N72 1.336 . S
N72 Zn68 2.020 . S
N72 C71 1.336 . S
N72 N73 1.354 . S
N73 C69 1.336 . S
N73 N72 1.354 . S
N73 Zn77 2.020 . S
C74 O75 1.244 . S
C74 O98 1.257 . S
O75 C74 1.244 . S
O76 Zn68 2.019 . S
O76 C96 1.257 . S
Zn77 N73 2.020 . S
Zn77 O84 1.975 . S
Zn77 N93 2.119 . S
Zn77 O98 2.019 . S
N78 Zn68 2.119 1_556 S
N78 C80 1.334 . S
N78 C81 1.328 . S
C79 C80 1.391 . S
C79 N82 1.329 . S
C79 H100 0.930 . S
C80 N78 1.334 . S
C80 C79 1.391 . S
C80 H87 0.930 1_556 S
C81 N78 1.328 . S
C81 C83 1.392 . S
C81 H88 0.930 . S
N82 C79 1.329 . S
N82 C83 1.331 . S
C83 C81 1.392 . S
C83 N82 1.331 . S
O84 Zn77 1.975 . S
O84 C85 1.252 . S
C85 O84 1.252 . S
C85 O86 1.252 . S
O86 Zn68 1.975 . S
O86 C85 1.252 . S
H87 C80 0.930 1_554 S
H88 C81 0.930 . S
C89 C90 1.392 . S
C89 N93 1.328 . S
C89 H95 0.930 . S
C90 C89 1.392 . S
C90 N94 1.331 . S
C91 C92 1.391 . S
C91 N94 1.329 . S
C91 H101 0.930 . S
C92 C91 1.391 . S
C92 N93 1.334 . S
C92 H99 0.930 . S
N93 Zn77 2.119 . S
N93 C89 1.328 . S
N93 C92 1.334 . S
N94 C90 1.331 . S
N94 C91 1.329 . S
H95 C89 0.930 . S
C96 O76 1.257 . S
C96 O97 1.244 . S
O97 C96 1.244 . S
O98 C74 1.257 . S
O98 Zn77 2.019 . S
H99 C92 0.930 . S
H100 C79 0.930 . S
H101 C91 0.930 . S
Zn102 N106 2.020 . S
Zn102 O110 2.019 . S
Zn102 N112 2.119 . S
Zn102 O120 1.975 . S
C103 N104 1.334 . S
C103 N107 1.336 . S
N104 C103 1.334 . S
N104 C105 1.334 . S
C105 N104 1.334 . S
C105 N106 1.336 . S
N106 Zn102 2.020 . S
N106 C105 1.336 . S
N106 N107 1.354 . S
N107 C103 1.336 . S
N107 N106 1.354 . S
N107 Zn111 2.020 . S
C108 O109 1.244 . S
C108 O132 1.257 . S
O109 C108 1.244 . S
O110 Zn102 2.019 . S
O110 C130 1.257 . S
Zn111 N107 2.020 . S
Zn111 O118 1.975 . S
Zn111 N127 2.119 1_556 S
Zn111 O132 2.019 . S
N112 Zn102 2.119 . S
N112 C114 1.334 . S
N112 C115 1.328 . S
C113 C114 1.391 . S
C113 N116 1.329 . S
C113 H134 0.930 . S
C114 N112 1.334 . S
C114 C113 1.391 . S
C114 H121 0.930 . S
C115 N112 1.328 . S
C115 C117 1.392 . S
C115 H122 0.930 . S
N116 C113 1.329 . S
N116 C117 1.331 . S
C117 C115 1.392 . S
C117 N116 1.331 . S
O118 Zn111 1.975 . S
O118 C119 1.252 . S
C119 O118 1.252 . S
C119 O120 1.252 . S
O120 Zn102 1.975 . S
O120 C119 1.252 . S
H121 C114 0.930 . S
H122 C115 0.930 . S
C123 C124 1.392 . S
C123 N127 1.328 . S
C123 H129 0.930 . S
C124 C123 1.392 . S
C124 N128 1.331 . S
C125 C126 1.391 . S
C125 N128 1.329 . S
C125 H135 0.930 . S
C126 C125 1.391 . S
C126 N127 1.334 . S
C126 H133 0.930 1_554 S
N127 Zn111 2.119 1_554 S
N127 C123 1.328 . S
N127 C126 1.334 . S
N128 C124 1.331 . S
N128 C125 1.329 . S
H129 C123 0.930 . S
C130 O110 1.257 . S
C130 O131 1.244 . S
O131 C130 1.244 . S
O132 C108 1.257 . S
O132 Zn111 2.019 . S
H133 C126 0.930 1_556 S
H134 C113 0.930 . S
H135 C125 0.930 . S
Zn136 N140 2.020 . S
Zn136 O144 2.019 . S
Zn136 N146 2.119 . S
Zn136 O154 1.975 . S
C137 N138 1.334 . S
C137 N141 1.336 . S
N138 C137 1.334 . S
N138 C139 1.334 . S
C139 N138 1.334 . S
C139 N140 1.336 . S
N140 Zn136 2.020 . S
N140 C139 1.336 . S
N140 N141 1.354 . S
N141 C137 1.336 . S
N141 N140 1.354 . S
N141 Zn145 2.020 . S
C142 O143 1.244 . S
C142 O166 1.257 . S
O143 C142 1.244 . S
O144 Zn136 2.019 . S
O144 C164 1.257 . S
Zn145 N141 2.020 . S
Zn145 O152 1.975 . S
Zn145 N161 2.119 1_556 S
Zn145 O166 2.019 . S
N146 Zn136 2.119 . S
N146 C148 1.334 . S
N146 C149 1.328 . S
C147 C148 1.391 . S
C147 N150 1.329 . S
C147 H168 0.930 . S
C148 N146 1.334 . S
C148 C147 1.391 . S
C148 H155 0.930 . S
C149 N146 1.328 . S
C149 C151 1.392 . S
C149 H156 0.930 . S
N150 C147 1.329 . S
N150 C151 1.331 . S
C151 C149 1.392 . S
C151 N150 1.331 . S
O152 Zn145 1.975 . S
O152 C153 1.252 . S
C153 O152 1.252 . S
C153 O154 1.252 . S
O154 Zn136 1.975 . S
O154 C153 1.252 . S
H155 C148 0.930 . S
H156 C149 0.930 . S
C157 C158 1.392 . S
C157 N161 1.328 . S
C157 H163 0.930 . S
C158 C157 1.392 . S
C158 N162 1.331 . S
C159 C160 1.391 . S
C159 N162 1.329 . S
C159 H169 0.930 . S
C160 C159 1.391 . S
C160 N161 1.334 . S
C160 H167 0.930 1_554 S
N161 Zn145 2.119 1_554 S
N161 C157 1.328 . S
N161 C160 1.334 . S
N162 C158 1.331 . S
N162 C159 1.329 . S
H163 C157 0.930 . S
C164 O144 1.257 . S
C164 O165 1.244 . S
O165 C164 1.244 . S
O166 C142 1.257 . S
O166 Zn145 2.019 . S
H167 C160 0.930 1_556 S
H168 C147 0.930 . S
H169 C159 0.930 . S
Zn170 N174 2.020 . S
Zn170 O178 2.019 . S
Zn170 N180 2.119 . S
Zn170 O188 1.975 . S
C171 N172 1.334 . S
C171 N175 1.336 . S
N172 C171 1.334 . S
N172 C173 1.334 . S
C173 N172 1.334 . S
C173 N174 1.336 . S
N174 Zn170 2.020 . S
N174 C173 1.336 . S
N174 N175 1.354 . S
N175 C171 1.336 . S
N175 N174 1.354 . S
N175 Zn179 2.020 . S
C176 O177 1.244 . S
C176 O200 1.257 . S
O177 C176 1.244 . S
O178 Zn170 2.019 . S
O178 C198 1.257 . S
Zn179 N175 2.020 . S
Zn179 O186 1.975 . S
Zn179 N195 2.119 1_556 S
Zn179 O200 2.019 . S
N180 Zn170 2.119 . S
N180 C182 1.334 . S
N180 C183 1.328 . S
C181 C182 1.391 . S
C181 N184 1.329 . S
C181 H202 0.930 . S
C182 N180 1.334 . S
C182 C181 1.391 . S
C182 H189 0.930 . S
C183 N180 1.328 . S
C183 C185 1.392 . S
C183 H190 0.930 . S
N184 C181 1.329 . S
N184 C185 1.331 . S
C185 C183 1.392 . S
C185 N184 1.331 . S
O186 Zn179 1.975 . S
O186 C187 1.252 . S
C187 O186 1.252 . S
C187 O188 1.252 . S
O188 Zn170 1.975 . S
O188 C187 1.252 . S
H189 C182 0.930 . S
H190 C183 0.930 . S
C191 C192 1.392 . S
C191 N195 1.328 . S
C191 H197 0.930 . S
C192 C191 1.392 . S
C192 N196 1.331 . S
C193 C194 1.391 . S
C193 N196 1.329 . S
C193 H203 0.930 . S
C194 C193 1.391 . S
C194 N195 1.334 . S
C194 H201 0.930 1_554 S
N195 Zn179 2.119 1_554 S
N195 C191 1.328 . S
N195 C194 1.334 . S
N196 C192 1.331 . S
N196 C193 1.329 . S
H197 C191 0.930 . S
C198 O178 1.257 . S
C198 O199 1.244 . S
O199 C198 1.244 . S
O200 C176 1.257 . S
O200 Zn179 2.019 . S
H201 C194 0.930 1_556 S
H202 C181 0.930 . S
H203 C193 0.930 . S
Zn204 N208 2.020 . S
Zn204 O212 2.019 . S
Zn204 N214 2.119 . S
Zn204 O222 1.975 . S
C205 N206 1.334 . S
C205 N209 1.336 . S
N206 C205 1.334 . S
N206 C207 1.334 . S
C207 N206 1.334 . S
C207 N208 1.336 . S
N208 Zn204 2.020 . S
N208 C207 1.336 . S
N208 N209 1.354 . S
N209 C205 1.336 . S
N209 N208 1.354 . S
N209 Zn213 2.020 . S
C210 O211 1.244 . S
C210 O234 1.257 . S
O211 C210 1.244 . S
O212 Zn204 2.019 . S
O212 C232 1.257 . S
Zn213 N209 2.020 . S
Zn213 O220 1.975 . S
Zn213 N229 2.119 . S
Zn213 O234 2.019 . S
N214 Zn204 2.119 . S
N214 C216 1.334 . S
N214 C217 1.328 . S
C215 C216 1.391 . S
C215 N218 1.329 . S
C215 H236 0.930 . S
C216 N214 1.334 . S
C216 C215 1.391 . S
C216 H223 0.930 . S
C217 N214 1.328 . S
C217 C219 1.392 . S
C217 H224 0.930 . S
N218 C215 1.329 . S
N218 C219 1.331 . S
C219 C217 1.392 . S
C219 N218 1.331 . S
O220 Zn213 1.975 . S
O220 C221 1.252 . S
C221 O220 1.252 . S
C221 O222 1.252 . S
O222 Zn204 1.975 . S
O222 C221 1.252 . S
H223 C216 0.930 . S
H224 C217 0.930 . S
C225 C226 1.392 . S
C225 N229 1.328 . S
C225 H231 0.930 . S
C226 C225 1.392 . S
C226 N230 1.331 . S
C227 C228 1.391 . S
C227 N230 1.329 . S
C227 H237 0.930 . S
C228 C227 1.391 . S
C228 N229 1.334 . S
C228 H235 0.930 . S
N229 Zn213 2.119 . S
N229 C225 1.328 . S
N229 C228 1.334 . S
N230 C226 1.331 . S
N230 C227 1.329 . S
H231 C225 0.930 . S
C232 O212 1.257 . S
C232 O233 1.244 . S
O233 C232 1.244 . S
O234 C210 1.257 . S
O234 Zn213 2.019 . S
H235 C228 0.930 . S
H236 C215 0.930 . S
H237 C227 0.930 . S
Zn238 N242 2.020 . S
Zn238 O246 2.019 . S
Zn238 N248 2.119 1_565 S
Zn238 O256 1.975 1_565 S
C239 N240 1.334 1_545 S
C239 N243 1.336 . S
N240 C239 1.334 1_565 S
N240 C241 1.334 . S
C241 N240 1.334 . S
C241 N242 1.336 . S
N242 Zn238 2.020 . S
N242 C241 1.336 . S
N242 N243 1.354 1_565 S
N243 C239 1.336 . S
N243 N242 1.354 1_545 S
N243 Zn247 2.020 . S
C244 O245 1.244 . S
C244 O268 1.257 . S
O245 C244 1.244 . S
O246 Zn238 2.019 . S
O246 C266 1.257 . S
Zn247 N243 2.020 . S
Zn247 O254 1.975 . S
Zn247 N263 2.119 . S
Zn247 O268 2.019 . S
N248 Zn238 2.119 1_545 S
N248 C250 1.334 . S
N248 C251 1.328 . S
C249 C250 1.391 . S
C249 N252 1.329 . S
C249 H270 0.930 . S
C250 N248 1.334 . S
C250 C249 1.391 . S
C250 H257 0.930 . S
C251 N248 1.328 . S
C251 C253 1.392 . S
C251 H258 0.930 1_545 S
N252 C249 1.329 . S
N252 C253 1.331 . S
C253 C251 1.392 . S
C253 N252 1.331 . S
O254 Zn247 1.975 . S
O254 C255 1.252 . S
C255 O254 1.252 . S
C255 O256 1.252 . S
O256 Zn238 1.975 1_545 S
O256 C255 1.252 . S
H257 C250 0.930 . S
H258 C251 0.930 1_565 S
C259 C260 1.392 . S
C259 N263 1.328 . S
C259 H265 0.930 . S
C260 C259 1.392 . S
C260 N264 1.331 . S
C261 C262 1.391 1_565 S
C261 N264 1.329 1_565 S
C261 H271 0.930 . S
C262 C261 1.391 1_545 S
C262 N263 1.334 . S
C262 H269 0.930 1_545 S
N263 Zn247 2.119 . S
N263 C259 1.328 . S
N263 C262 1.334 . S
N264 C260 1.331 . S
N264 C261 1.329 1_545 S
H265 C259 0.930 . S
C266 O246 1.257 . S
C266 O267 1.244 . S
O267 C266 1.244 . S
O268 C244 1.257 . S
O268 Zn247 2.019 . S
H269 C262 0.930 1_565 S
H270 C249 0.930 . S
H271 C261 0.930 . S
Zn272 N276 2.020 . S
Zn272 O280 2.019 . S
Zn272 N282 2.119 1_455 S
Zn272 O290 1.975 1_455 S
C273 N274 1.334 1_655 S
C273 N277 1.336 . S
N274 C273 1.334 1_455 S
N274 C275 1.334 . S
C275 N274 1.334 . S
C275 N276 1.336 . S
N276 Zn272 2.020 . S
N276 C275 1.336 . S
N276 N277 1.354 1_455 S
N277 C273 1.336 . S
N277 N276 1.354 1_655 S
N277 Zn281 2.020 . S
C278 O279 1.244 . S
C278 O302 1.257 . S
O279 C278 1.244 . S
O280 Zn272 2.019 . S
O280 C300 1.257 . S
Zn281 N277 2.020 . S
Zn281 O288 1.975 . S
Zn281 N297 2.119 . S
Zn281 O302 2.019 . S
N282 Zn272 2.119 1_655 S
N282 C284 1.334 . S
N282 C285 1.328 . S
C283 C284 1.391 . S
C283 N286 1.329 . S
C283 H304 0.930 . S
C284 N282 1.334 . S
C284 C283 1.391 . S
C284 H291 0.930 . S
C285 N282 1.328 . S
C285 C287 1.392 . S
C285 H292 0.930 1_655 S
N286 C283 1.329 . S
N286 C287 1.331 . S
C287 C285 1.392 . S
C287 N286 1.331 . S
O288 Zn281 1.975 . S
O288 C289 1.252 . S
C289 O288 1.252 . S
C289 O290 1.252 . S
O290 Zn272 1.975 1_655 S
O290 C289 1.252 . S
H291 C284 0.930 . S
H292 C285 0.930 1_455 S
C293 C294 1.392 . S
C293 N297 1.328 . S
C293 H299 0.930 . S
C294 C293 1.392 . S
C294 N298 1.331 . S
C295 C296 1.391 1_455 S
C295 N298 1.329 1_455 S
C295 H305 0.930 . S
C296 C295 1.391 1_655 S
C296 N297 1.334 . S
C296 H303 0.930 1_655 S
N297 Zn281 2.119 . S
N297 C293 1.328 . S
N297 C296 1.334 . S
N298 C294 1.331 . S
N298 C295 1.329 1_655 S
H299 C293 0.930 . S
C300 O280 1.257 . S
C300 O301 1.244 . S
O301 C300 1.244 . S
O302 C278 1.257 . S
O302 Zn281 2.019 . S
H303 C296 0.930 1_455 S
H304 C283 0.930 . S
H305 C295 0.930 . S
Zn306 N310 2.020 1_556 S
Zn306 O314 2.019 . S
Zn306 N316 2.119 . S
Zn306 O324 1.975 1_556 S
C307 N308 1.334 . S
C307 N311 1.336 . S
N308 C307 1.334 . S
N308 C309 1.334 . S
C309 N308 1.334 . S
C309 N310 1.336 . S
N310 Zn306 2.020 1_554 S
N310 C309 1.336 . S
N310 N311 1.354 . S
N311 C307 1.336 . S
N311 N310 1.354 . S
N311 Zn315 2.020 . S
C312 O313 1.244 . S
C312 O336 1.257 . S
O313 C312 1.244 . S
O314 Zn306 2.019 . S
O314 C334 1.257 1_565 S
Zn315 N311 2.020 . S
Zn315 O322 1.975 . S
Zn315 N331 2.119 . S
Zn315 O336 2.019 . S
N316 Zn306 2.119 . S
N316 C318 1.334 . S
N316 C319 1.328 . S
C317 C318 1.391 . S
C317 N320 1.329 . S
C317 H338 0.930 . S
C318 N316 1.334 . S
C318 C317 1.391 . S
C318 H325 0.930 . S
C319 N316 1.328 . S
C319 C321 1.392 . S
C319 H326 0.930 . S
N320 C317 1.329 . S
N320 C321 1.331 . S
C321 C319 1.392 . S
C321 N320 1.331 . S
O322 Zn315 1.975 . S
O322 C323 1.252 . S
C323 O322 1.252 . S
C323 O324 1.252 . S
O324 Zn306 1.975 1_554 S
O324 C323 1.252 . S
H325 C318 0.930 . S
H326 C319 0.930 . S
C327 C328 1.392 . S
C327 N331 1.328 . S
C327 H333 0.930 . S
C328 C327 1.392 . S
C328 N332 1.331 . S
C329 C330 1.391 . S
C329 N332 1.329 . S
C329 H339 0.930 . S
C330 C329 1.391 . S
C330 N331 1.334 . S
C330 H337 0.930 . S
N331 Zn315 2.119 . S
N331 C327 1.328 . S
N331 C330 1.334 . S
N332 C328 1.331 . S
N332 C329 1.329 . S
H333 C327 0.930 . S
C334 O314 1.257 1_545 S
C334 O335 1.244 1_556 S
O335 C334 1.244 1_554 S
O336 C312 1.257 . S
O336 Zn315 2.019 . S
H337 C330 0.930 . S
H338 C317 0.930 . S
H339 C329 0.930 . S
Zn340 N344 2.020 . S
Zn340 O348 2.019 . S
Zn340 N350 2.119 . S
Zn340 O358 1.975 . S
C341 N342 1.334 . S
C341 N345 1.336 . S
N342 C341 1.334 . S
N342 C343 1.334 . S
C343 N342 1.334 . S
C343 N344 1.336 . S
N344 Zn340 2.020 . S
N344 C343 1.336 . S
N344 N345 1.354 . S
N345 C341 1.336 . S
N345 N344 1.354 . S
N345 Zn349 2.020 1_554 S
C346 O347 1.244 1_556 S
C346 O370 1.257 1_655 S
O347 C346 1.244 1_554 S
O348 Zn340 2.019 . S
O348 C368 1.257 . S
Zn349 N345 2.020 1_556 S
Zn349 O356 1.975 1_556 S
Zn349 N365 2.119 . S
Zn349 O370 2.019 . S
N350 Zn340 2.119 . S
N350 C352 1.334 . S
N350 C353 1.328 . S
C351 C352 1.391 . S
C351 N354 1.329 . S
C351 H372 0.930 . S
C352 N350 1.334 . S
C352 C351 1.391 . S
C352 H359 0.930 . S
C353 N350 1.328 . S
C353 C355 1.392 . S
C353 H360 0.930 . S
N354 C351 1.329 . S
N354 C355 1.331 . S
C355 C353 1.392 . S
C355 N354 1.331 . S
O356 Zn349 1.975 1_554 S
O356 C357 1.252 . S
C357 O356 1.252 . S
C357 O358 1.252 . S
O358 Zn340 1.975 . S
O358 C357 1.252 . S
H359 C352 0.930 . S
H360 C353 0.930 . S
C361 C362 1.392 . S
C361 N365 1.328 . S
C361 H367 0.930 . S
C362 C361 1.392 . S
C362 N366 1.331 . S
C363 C364 1.391 . S
C363 N366 1.329 . S
C363 H373 0.930 . S
C364 C363 1.391 . S
C364 N365 1.334 . S
C364 H371 0.930 . S
N365 Zn349 2.119 . S
N365 C361 1.328 . S
N365 C364 1.334 . S
N366 C362 1.331 . S
N366 C363 1.329 . S
H367 C361 0.930 . S
C368 O348 1.257 . S
C368 O369 1.244 . S
O369 C368 1.244 . S
O370 C346 1.257 1_455 S
O370 Zn349 2.019 . S
H371 C364 0.930 . S
H372 C351 0.930 . S
H373 C363 0.930 . S
Zn374 N378 2.020 1_556 S
Zn374 O382 2.019 . S
Zn374 N384 2.119 . S
Zn374 O392 1.975 1_556 S
C375 N376 1.334 . S
C375 N379 1.336 . S
N376 C375 1.334 . S
N376 C377 1.334 . S
C377 N376 1.334 . S
C377 N378 1.336 . S
N378 Zn374 2.020 1_554 S
N378 C377 1.336 . S
N378 N379 1.354 . S
N379 C375 1.336 . S
N379 N378 1.354 . S
N379 Zn383 2.020 . S
C380 O381 1.244 . S
C380 O404 1.257 . S
O381 C380 1.244 . S
O382 Zn374 2.019 . S
O382 C402 1.257 . S
Zn383 N379 2.020 . S
Zn383 O390 1.975 . S
Zn383 N399 2.119 . S
Zn383 O404 2.019 . S
N384 Zn374 2.119 . S
N384 C386 1.334 . S
N384 C387 1.328 . S
C385 C386 1.391 . S
C385 N388 1.329 . S
C385 H406 0.930 . S
C386 N384 1.334 . S
C386 C385 1.391 . S
C386 H393 0.930 . S
C387 N384 1.328 . S
C387 C389 1.392 . S
C387 H394 0.930 . S
N388 C385 1.329 . S
N388 C389 1.331 . S
C389 C387 1.392 . S
C389 N388 1.331 . S
O390 Zn383 1.975 . S
O390 C391 1.252 . S
C391 O390 1.252 . S
C391 O392 1.252 . S
O392 Zn374 1.975 1_554 S
O392 C391 1.252 . S
H393 C386 0.930 . S
H394 C387 0.930 . S
C395 C396 1.392 . S
C395 N399 1.328 . S
C395 H401 0.930 . S
C396 C395 1.392 . S
C396 N400 1.331 . S
C397 C398 1.391 . S
C397 N400 1.329 . S
C397 H407 0.930 . S
C398 C397 1.391 . S
C398 N399 1.334 . S
C398 H405 0.930 . S
N399 Zn383 2.119 . S
N399 C395 1.328 . S
N399 C398 1.334 . S
N400 C396 1.331 . S
N400 C397 1.329 . S
H401 C395 0.930 . S
C402 O382 1.257 . S
C402 O403 1.244 1_556 S
O403 C402 1.244 1_554 S
O404 C380 1.257 . S
O404 Zn383 2.019 . S
H405 C398 0.930 . S
H406 C385 0.930 . S
H407 C397 0.930 . S
Zn408 N412 2.020 . S
Zn408 O416 2.019 . S
Zn408 N418 2.119 . S
Zn408 O426 1.975 . S
C409 N410 1.334 . S
C409 N413 1.336 . S
N410 C409 1.334 . S
N410 C411 1.334 . S
C411 N410 1.334 . S
C411 N412 1.336 . S
N412 Zn408 2.020 . S
N412 C411 1.336 . S
N412 N413 1.354 . S
N413 C409 1.336 . S
N413 N412 1.354 . S
N413 Zn417 2.020 1_556 S
C414 O415 1.244 1_554 S
C414 O438 1.257 1_565 S
O415 C414 1.244 1_556 S
O416 Zn408 2.019 . S
O416 C436 1.257 . S
Zn417 N413 2.020 1_554 S
Zn417 O424 1.975 1_554 S
Zn417 N433 2.119 . S
Zn417 O438 2.019 . S
N418 Zn408 2.119 . S
N418 C420 1.334 . S
N418 C421 1.328 . S
C419 C420 1.391 . S
C419 N422 1.329 . S
C419 H440 0.930 . S
C420 N418 1.334 . S
C420 C419 1.391 . S
C420 H427 0.930 . S
C421 N418 1.328 . S
C421 C423 1.392 . S
C421 H428 0.930 . S
N422 C419 1.329 . S
N422 C423 1.331 . S
C423 C421 1.392 . S
C423 N422 1.331 . S
O424 Zn417 1.975 1_556 S
O424 C425 1.252 . S
C425 O424 1.252 . S
C425 O426 1.252 . S
O426 Zn408 1.975 . S
O426 C425 1.252 . S
H427 C420 0.930 . S
H428 C421 0.930 . S
C429 C430 1.392 . S
C429 N433 1.328 . S
C429 H435 0.930 . S
C430 C429 1.392 . S
C430 N434 1.331 . S
C431 C432 1.391 . S
C431 N434 1.329 . S
C431 H441 0.930 . S
C432 C431 1.391 . S
C432 N433 1.334 . S
C432 H439 0.930 . S
N433 Zn417 2.119 . S
N433 C429 1.328 . S
N433 C432 1.334 . S
N434 C430 1.331 . S
N434 C431 1.329 . S
H435 C429 0.930 . S
C436 O416 1.257 . S
C436 O437 1.244 . S
O437 C436 1.244 . S
O438 C414 1.257 1_545 S
O438 Zn417 2.019 . S
H439 C432 0.930 . S
H440 C419 0.930 . S
H441 C431 0.930 . S
Zn442 N446 2.020 . S
Zn442 O450 2.019 . S
Zn442 N452 2.119 . S
Zn442 O460 1.975 . S
C443 N444 1.334 . S
C443 N447 1.336 . S
N444 C443 1.334 . S
N444 C445 1.334 . S
C445 N444 1.334 . S
C445 N446 1.336 . S
N446 Zn442 2.020 . S
N446 C445 1.336 . S
N446 N447 1.354 . S
N447 C443 1.336 . S
N447 N446 1.354 . S
N447 Zn451 2.020 1_556 S
C448 O449 1.244 1_554 S
C448 O472 1.257 1_455 S
O449 C448 1.244 1_556 S
O450 Zn442 2.019 . S
O450 C470 1.257 . S
Zn451 N447 2.020 1_554 S
Zn451 O458 1.975 1_554 S
Zn451 N467 2.119 . S
Zn451 O472 2.019 . S
N452 Zn442 2.119 . S
N452 C454 1.334 . S
N452 C455 1.328 . S
C453 C454 1.391 . S
C453 N456 1.329 . S
C453 H474 0.930 . S
C454 N452 1.334 . S
C454 C453 1.391 . S
C454 H461 0.930 . S
C455 N452 1.328 . S
C455 C457 1.392 . S
C455 H462 0.930 . S
N456 C453 1.329 . S
N456 C457 1.331 . S
C457 C455 1.392 . S
C457 N456 1.331 . S
O458 Zn451 1.975 1_556 S
O458 C459 1.252 . S
C459 O458 1.252 . S
C459 O460 1.252 . S
O460 Zn442 1.975 . S
O460 C459 1.252 . S
H461 C454 0.930 . S
H462 C455 0.930 . S
C463 C464 1.392 . S
C463 N467 1.328 . S
C463 H469 0.930 . S
C464 C463 1.392 . S
C464 N468 1.331 . S
C465 C466 1.391 . S
C465 N468 1.329 . S
C465 H475 0.930 . S
C466 C465 1.391 . S
C466 N467 1.334 . S
C466 H473 0.930 . S
N467 Zn451 2.119 . S
N467 C463 1.328 . S
N467 C466 1.334 . S
N468 C464 1.331 . S
N468 C465 1.329 . S
H469 C463 0.930 . S
C470 O450 1.257 . S
C470 O471 1.244 . S
O471 C470 1.244 . S
O472 C448 1.257 1_655 S
O472 Zn451 2.019 . S
H473 C466 0.930 . S
H474 C453 0.930 . S
H475 C465 0.930 . S
Zn476 N480 2.020 . S
Zn476 O484 2.019 . S
Zn476 N486 2.119 . S
Zn476 O494 1.975 . S
C477 N478 1.334 . S
C477 N481 1.336 . S
N478 C477 1.334 . S
N478 C479 1.334 . S
C479 N478 1.334 . S
C479 N480 1.336 . S
N480 Zn476 2.020 . S
N480 C479 1.336 . S
N480 N481 1.354 . S
N481 C477 1.336 . S
N481 N480 1.354 . S
N481 Zn485 2.020 1_556 S
C482 O483 1.244 1_554 S
C482 O506 1.257 . S
O483 C482 1.244 1_556 S
O484 Zn476 2.019 . S
O484 C504 1.257 . S
Zn485 N481 2.020 1_554 S
Zn485 O492 1.975 1_554 S
Zn485 N501 2.119 . S
Zn485 O506 2.019 . S
N486 Zn476 2.119 . S
N486 C488 1.334 . S
N486 C489 1.328 . S
C487 C488 1.391 . S
C487 N490 1.329 . S
C487 H508 0.930 . S
C488 N486 1.334 . S
C488 C487 1.391 . S
C488 H495 0.930 . S
C489 N486 1.328 . S
C489 C491 1.392 . S
C489 H496 0.930 . S
N490 C487 1.329 . S
N490 C491 1.331 . S
C491 C489 1.392 . S
C491 N490 1.331 . S
O492 Zn485 1.975 1_556 S
O492 C493 1.252 . S
C493 O492 1.252 . S
C493 O494 1.252 . S
O494 Zn476 1.975 . S
O494 C493 1.252 . S
H495 C488 0.930 . S
H496 C489 0.930 . S
C497 C498 1.392 . S
C497 N501 1.328 . S
C497 H503 0.930 . S
C498 C497 1.392 . S
C498 N502 1.331 . S
C499 C500 1.391 . S
C499 N502 1.329 . S
C499 H509 0.930 . S
C500 C499 1.391 . S
C500 N501 1.334 . S
C500 H507 0.930 . S
N501 Zn485 2.119 . S
N501 C497 1.328 . S
N501 C500 1.334 . S
N502 C498 1.331 . S
N502 C499 1.329 . S
H503 C497 0.930 . S
C504 O484 1.257 . S
C504 O505 1.244 . S
O505 C504 1.244 . S
O506 C482 1.257 . S
O506 Zn485 2.019 . S
H507 C500 0.930 . S
H508 C487 0.930 . S
H509 C499 0.930 . S
Zn510 N514 2.020 . S
Zn510 O518 2.019 . S
Zn510 N520 2.119 . S
Zn510 O528 1.975 . S
C511 N512 1.334 . S
C511 N515 1.336 . S
N512 C511 1.334 . S
N512 C513 1.334 . S
C513 N512 1.334 . S
C513 N514 1.336 . S
N514 Zn510 2.020 . S
N514 C513 1.336 . S
N514 N515 1.354 . S
N515 C511 1.336 . S
N515 N514 1.354 . S
N515 Zn519 2.020 . S
C516 O517 1.244 . S
C516 O540 1.257 . S
O517 C516 1.244 . S
O518 Zn510 2.019 . S
O518 C538 1.257 . S
Zn519 N515 2.020 . S
Zn519 O526 1.975 . S
Zn519 N535 2.119 . S
Zn519 O540 2.019 . S
N520 Zn510 2.119 . S
N520 C522 1.334 . S
N520 C523 1.328 . S
C521 C522 1.391 . S
C521 N524 1.329 . S
C521 H542 0.930 . S
C522 N520 1.334 . S
C522 C521 1.391 . S
C522 H529 0.930 . S
C523 N520 1.328 . S
C523 C525 1.392 . S
C523 H530 0.930 . S
N524 C521 1.329 . S
N524 C525 1.331 . S
C525 C523 1.392 . S
C525 N524 1.331 . S
O526 Zn519 1.975 . S
O526 C527 1.252 . S
C527 O526 1.252 . S
C527 O528 1.252 . S
O528 Zn510 1.975 . S
O528 C527 1.252 . S
H529 C522 0.930 . S
H530 C523 0.930 . S
C531 C532 1.392 . S
C531 N535 1.328 . S
C531 H537 0.930 . S
C532 C531 1.392 . S
C532 N536 1.331 . S
C533 C534 1.391 . S
C533 N536 1.329 . S
C533 H543 0.930 . S
C534 C533 1.391 . S
C534 N535 1.334 . S
C534 H541 0.930 . S
N535 Zn519 2.119 . S
N535 C531 1.328 . S
N535 C534 1.334 . S
N536 C532 1.331 . S
N536 C533 1.329 . S
H537 C531 0.930 . S
C538 O518 1.257 . S
C538 O539 1.244 . S
O539 C538 1.244 . S
O540 C516 1.257 . S
O540 Zn519 2.019 . S
H541 C534 0.930 . S
H542 C521 0.930 . S
H543 C533 0.930 . S
Zn544 N548 2.020 . S
Zn544 O552 2.019 . S
Zn544 N554 2.119 1_545 S
Zn544 O562 1.975 1_545 S
C545 N546 1.334 1_565 S
C545 N549 1.336 . S
N546 C545 1.334 1_545 S
N546 C547 1.334 . S
C547 N546 1.334 . S
C547 N548 1.336 . S
N548 Zn544 2.020 . S
N548 C547 1.336 . S
N548 N549 1.354 1_545 S
N549 C545 1.336 . S
N549 N548 1.354 1_565 S
N549 Zn553 2.020 . S
C550 O551 1.244 . S
C550 O574 1.257 . S
O551 C550 1.244 . S
O552 Zn544 2.019 . S
O552 C572 1.257 . S
Zn553 N549 2.020 . S
Zn553 O560 1.975 . S
Zn553 N569 2.119 . S
Zn553 O574 2.019 . S
N554 Zn544 2.119 1_565 S
N554 C556 1.334 . S
N554 C557 1.328 . S
C555 C556 1.391 . S
C555 N558 1.329 . S
C555 H576 0.930 . S
C556 N554 1.334 . S
C556 C555 1.391 . S
C556 H563 0.930 . S
C557 N554 1.328 . S
C557 C559 1.392 . S
C557 H564 0.930 1_565 S
N558 C555 1.329 . S
N558 C559 1.331 . S
C559 C557 1.392 . S
C559 N558 1.331 . S
O560 Zn553 1.975 . S
O560 C561 1.252 . S
C561 O560 1.252 . S
C561 O562 1.252 . S
O562 Zn544 1.975 1_565 S
O562 C561 1.252 . S
H563 C556 0.930 . S
H564 C557 0.930 1_545 S
C565 C566 1.392 . S
C565 N569 1.328 . S
C565 H571 0.930 . S
C566 C565 1.392 . S
C566 N570 1.331 . S
C567 C568 1.391 1_545 S
C567 N570 1.329 1_545 S
C567 H577 0.930 . S
C568 C567 1.391 1_565 S
C568 N569 1.334 . S
C568 H575 0.930 1_565 S
N569 Zn553 2.119 . S
N569 C565 1.328 . S
N569 C568 1.334 . S
N570 C566 1.331 . S
N570 C567 1.329 1_565 S
H571 C565 0.930 . S
C572 O552 1.257 . S
C572 O573 1.244 . S
O573 C572 1.244 . S
O574 C550 1.257 . S
O574 Zn553 2.019 . S
H575 C568 0.930 1_545 S
H576 C555 0.930 . S
H577 C567 0.930 . S
Zn578 N582 2.020 . S
Zn578 O586 2.019 . S
Zn578 N588 2.119 . S
Zn578 O596 1.975 . S
C579 N580 1.334 . S
C579 N583 1.336 . S
N580 C579 1.334 . S
N580 C581 1.334 1_655 S
C581 N580 1.334 1_455 S
C581 N582 1.336 . S
N582 Zn578 2.020 . S
N582 C581 1.336 . S
N582 N583 1.354 1_455 S
N583 C579 1.336 . S
N583 N582 1.354 1_655 S
N583 Zn587 2.020 . S
C584 O585 1.244 . S
C584 O608 1.257 . S
O585 C584 1.244 . S
O586 Zn578 2.019 . S
O586 C606 1.257 . S
Zn587 N583 2.020 . S
Zn587 O594 1.975 1_655 S
Zn587 N603 2.119 1_655 S
Zn587 O608 2.019 . S
N588 Zn578 2.119 . S
N588 C590 1.334 . S
N588 C591 1.328 . S
C589 C590 1.391 1_655 S
C589 N592 1.329 1_655 S
C589 H610 0.930 . S
C590 N588 1.334 . S
C590 C589 1.391 1_455 S
C590 H597 0.930 1_455 S
C591 N588 1.328 . S
C591 C593 1.392 . S
C591 H598 0.930 . S
N592 C589 1.329 1_455 S
N592 C593 1.331 . S
C593 C591 1.392 . S
C593 N592 1.331 . S
O594 Zn587 1.975 1_455 S
O594 C595 1.252 . S
C595 O594 1.252 . S
C595 O596 1.252 . S
O596 Zn578 1.975 . S
O596 C595 1.252 . S
H597 C590 0.930 1_655 S
H598 C591 0.930 . S
C599 C600 1.392 . S
C599 N603 1.328 . S
C599 H605 0.930 1_455 S
C600 C599 1.392 . S
C600 N604 1.331 . S
C601 C602 1.391 . S
C601 N604 1.329 . S
C601 H611 0.930 . S
C602 C601 1.391 . S
C602 N603 1.334 . S
C602 H609 0.930 . S
N603 Zn587 2.119 1_455 S
N603 C599 1.328 . S
N603 C602 1.334 . S
N604 C600 1.331 . S
N604 C601 1.329 . S
H605 C599 0.930 1_655 S
C606 O586 1.257 . S
C606 O607 1.244 . S
O607 C606 1.244 . S
O608 C584 1.257 . S
O608 Zn587 2.019 . S
H609 C602 0.930 . S
H610 C589 0.930 . S
H611 C601 0.930 . S
C443 C3 3.087 1_656 S
C477 C37 3.088 1_556 S
C71 C409 3.087 1_564 S
C103 C341 3.087 1_656 S
C137 C377 3.088 1_556 S
C171 C309 3.087 1_546 S
C35 C207 3.087 . S
C241 C69 3.087 . S
C1 C275 3.087 . S
C545 C307 3.087 . S
C343 C581 3.087 . S
C375 C511 3.087 . S
C239 C411 3.087 . S
C445 C273 3.087 . S
C479 C205 3.087 . S
C139 C513 3.087 . S
C173 C547 3.087 . S
C579 C105 3.087 . S
C380 C17 1.898 . S
C312 C51 1.899 . S
C368 C85 1.899 . S
C119 C504 1.898 . S
C153 C436 1.899 . S
C187 C470 1.899 . S
C221 C584 1.899 . S
C255 C538 1.900 . S
C289 C572 1.899 . S
C96 C323 1.899 . S
C28 C357 1.900 . S
C391 C62 1.900 . S
C425 C176 1.899 . S
C459 C108 1.900 . S
C493 C142 1.900 . S
C527 C300 1.899 . S
C232 C561 1.900 . S
C595 C266 1.899 . S
C6 C516 0.791 . S
C550 C40 0.791 . S
C74 C606 0.791 . S
C210 C130 0.791 . S
C244 C164 0.791 . S
C278 C198 0.791 . S
C414 C334 0.791 1_564 S
C346 C448 0.791 1_656 S
C402 C482 0.791 1_556 S
C15 C22 1.397 . S
C49 C56 1.397 . S
C83 C90 1.397 . S
C117 C124 1.397 . S
C151 C158 1.397 . S
C192 C185 1.397 . S
C226 C219 1.397 1_556 S
C260 C253 1.397 1_556 S
C287 C294 1.397 1_554 S
C321 C328 1.397 . S
C362 C355 1.397 . S
C396 C389 1.397 . S
C423 C430 1.397 . S
C457 C464 1.397 . S
C498 C491 1.397 . S
C532 C525 1.397 1_554 S
C559 C566 1.397 1_556 S
C600 C593 1.397 1_556 S
