# Generated by pormake.
# Topology vmn, (7)-cn, num edge types: 1
# Building blocks:
#     Node 0, Type 0, BuildingBlock: HICVOG_clean_sbu_0, # of connection points: 7
#     Node 1, Type 0, BuildingBlock: HICVOG_clean_sbu_0, # of connection points: 7
#     Node 2, Type 0, BuildingBlock: HICVOG_clean_sbu_0, # of connection points: 7
#     Node 3, Type 0, BuildingBlock: HICVOG_clean_sbu_0, # of connection points: 7
#     Node 4, Type 0, BuildingBlock: HICVOG_clean_sbu_0, # of connection points: 7
#     Node 5, Type 0, BuildingBlock: HICVOG_clean_sbu_0, # of connection points: 7
#     Node 6, Type 0, BuildingBlock: HICVOG_clean_sbu_0, # of connection points: 7
#     Node 7, Type 0, BuildingBlock: HICVOG_clean_sbu_0, # of connection points: 7
#     Edge 8, Type (0, 0), BuildingBlock: EZIPEK_clean_linker_0, # of connection points: 2
#     Edge 9, Type (0, 0), BuildingBlock: EZIPEK_clean_linker_0, # of connection points: 2
#     Edge 10, Type (0, 0), BuildingBlock: EZIPEK_clean_linker_0, # of connection points: 2
#     Edge 11, Type (0, 0), BuildingBlock: EZIPEK_clean_linker_0, # of connection points: 2
#     Edge 12, Type (0, 0), BuildingBlock: EZIPEK_clean_linker_0, # of connection points: 2
#     Edge 13, Type (0, 0), BuildingBlock: EZIPEK_clean_linker_0, # of connection points: 2
#     Edge 14, Type (0, 0), BuildingBlock: EZIPEK_clean_linker_0, # of connection points: 2
#     Edge 15, Type (0, 0), BuildingBlock: EZIPEK_clean_linker_0, # of connection points: 2
#     Edge 16, Type (0, 0), BuildingBlock: EZIPEK_clean_linker_0, # of connection points: 2
#     Edge 17, Type (0, 0), BuildingBlock: EZIPEK_clean_linker_0, # of connection points: 2
#     Edge 18, Type (0, 0), BuildingBlock: EZIPEK_clean_linker_0, # of connection points: 2
#     Edge 19, Type (0, 0), BuildingBlock: EZIPEK_clean_linker_0, # of connection points: 2
#     Edge 20, Type (0, 0), BuildingBlock: EZIPEK_clean_linker_0, # of connection points: 2
#     Edge 21, Type (0, 0), BuildingBlock: EZIPEK_clean_linker_0, # of connection points: 2
#     Edge 22, Type (0, 0), BuildingBlock: EZIPEK_clean_linker_0, # of connection points: 2
#     Edge 23, Type (0, 0), BuildingBlock: EZIPEK_clean_linker_0, # of connection points: 2
#     Edge 24, Type (0, 0), BuildingBlock: EZIPEK_clean_linker_0, # of connection points: 2
#     Edge 25, Type (0, 0), BuildingBlock: EZIPEK_clean_linker_0, # of connection points: 2
#     Edge 26, Type (0, 0), BuildingBlock: EZIPEK_clean_linker_0, # of connection points: 2
#     Edge 27, Type (0, 0), BuildingBlock: EZIPEK_clean_linker_0, # of connection points: 2
#     Edge 28, Type (0, 0), BuildingBlock: EZIPEK_clean_linker_0, # of connection points: 2
#     Edge 29, Type (0, 0), BuildingBlock: EZIPEK_clean_linker_0, # of connection points: 2
#     Edge 30, Type (0, 0), BuildingBlock: EZIPEK_clean_linker_0, # of connection points: 2
#     Edge 31, Type (0, 0), BuildingBlock: EZIPEK_clean_linker_0, # of connection points: 2
#     Edge 32, Type (0, 0), BuildingBlock: EZIPEK_clean_linker_0, # of connection points: 2
#     Edge 33, Type (0, 0), BuildingBlock: EZIPEK_clean_linker_0, # of connection points: 2
#     Edge 34, Type (0, 0), BuildingBlock: EZIPEK_clean_linker_0, # of connection points: 2
#     Edge 35, Type (0, 0), BuildingBlock: EZIPEK_clean_linker_0, # of connection points: 2
# Relax obj value: 0.175
# Max RMSD: 0.221
# Mean RMSD: 0.221
data_MOF--net-vmn--node1-HICVOG_clean_sbu_0--edge1-EZIPEK_clean_linker_0
_symmetry_space_group_name_H-M    P1
_symmetry_Int_Tables_number       1
_symmetry_cell_setting            triclinic
loop_
_symmetry_equiv_pos_as_xyz
'x, y, z'
_cell_length_a     31.586916
_cell_length_b     23.877556
_cell_length_c     21.214506
_cell_angle_alpha  89.801685
_cell_angle_beta   95.562839
_cell_angle_gamma 89.928301
loop_
_atom_site_label
_atom_site_type_symbol
_atom_site_fract_x
_atom_site_fract_y
_atom_site_fract_z
_atom_type_partial_charge
Zn0 Zn 0.95517 0.37987 0.16988 0.0
C1 C 0.00844 0.35037 0.34793 0.0
N2 N 0.99793 0.40449 0.35563 0.0
C3 C 0.98412 0.42108 0.29673 0.0
N4 N 0.98423 0.37824 0.2552 0.0
N5 N 1.00183 0.33417 0.28615 0.0
C6 C 0.05423 0.16074 0.24837 0.0
O7 O 0.07141 0.17404 0.19641 0.0
O8 O 0.95626 0.4561 0.13495 0.0
Zn9 Zn 0.03957 0.28015 0.24426 0.0
N10 N 0.89678 0.35289 0.16505 0.0
C11 C 0.84951 0.28224 0.19479 0.0
C12 C 0.88905 0.30837 0.20215 0.0
C13 C 0.86646 0.37207 0.11973 0.0
N14 N 0.81978 0.30016 0.14863 0.0
C15 C 0.8271 0.34393 0.10985 0.0
O16 O 0.02728 0.27041 0.14699 0.0
C17 C 1.00721 0.29467 0.09938 0.0
O18 O 0.98209 0.33505 0.10615 0.0
H19 H 0.91401 0.29213 0.23551 0.0
H20 H 0.8737 0.40678 0.08964 0.0
C21 C 0.13465 0.2866 0.2586 0.0
C22 C 0.17244 0.31795 0.25702 0.0
C23 C 0.13195 0.40125 0.24339 0.0
C24 C 0.09478 0.37025 0.24386 0.0
N25 N 0.09643 0.31384 0.25198 0.0
N26 N 0.16989 0.37444 0.24971 0.0
H27 H 0.1357 0.24149 0.26341 0.0
C28 C 0.9938 0.47032 0.12605 0.0
O29 O 0.0246 0.43613 0.14687 0.0
O30 O 0.04012 0.19998 0.28149 0.0
H31 H 0.06456 0.39092 0.23708 0.0
H32 H 0.84292 0.24682 0.22421 0.0
H33 H 0.13065 0.44623 0.23711 0.0
Zn34 Zn 0.56014 0.37699 0.85571 0.0
C35 C 0.5083 0.35018 0.67818 0.0
N36 N 0.51509 0.40552 0.67157 0.0
C37 C 0.52725 0.42235 0.73079 0.0
N38 N 0.53019 0.37819 0.77138 0.0
N39 N 0.51567 0.33302 0.73965 0.0
C40 C 0.46276 0.15739 0.77743 0.0
O41 O 0.44396 0.17159 0.82758 0.0
O42 O 0.55809 0.44998 0.89582 0.0
Zn43 Zn 0.47828 0.27688 0.78091 0.0
N44 N 0.61863 0.35092 0.85805 0.0
C45 C 0.66493 0.27809 0.83123 0.0
C46 C 0.62563 0.30495 0.82305 0.0
C47 C 0.64962 0.37143 0.90122 0.0
N48 N 0.69511 0.2969 0.87604 0.0
C49 C 0.68867 0.34249 0.91236 0.0
O50 O 0.49006 0.26464 0.87796 0.0
C51 C 0.50968 0.28904 0.92549 0.0
O52 O 0.53403 0.32996 0.91806 0.0
H53 H 0.60023 0.28802 0.79096 0.0
H54 H 0.643 0.40765 0.92921 0.0
C55 C 0.38316 0.28357 0.76684 0.0
C56 C 0.34531 0.31464 0.76967 0.0
C57 C 0.38551 0.39758 0.78656 0.0
C58 C 0.42276 0.36688 0.78483 0.0
N59 N 0.42132 0.31074 0.77457 0.0
N60 N 0.34768 0.3708 0.77922 0.0
H61 H 0.38219 0.23868 0.76017 0.0
C62 C 0.52079 0.46039 0.90953 0.0
O63 O 0.48951 0.42692 0.88955 0.0
O64 O 0.478 0.19613 0.74437 0.0
H65 H 0.45279 0.38779 0.79226 0.0
H66 H 0.67093 0.24134 0.80375 0.0
H67 H 0.38667 0.4423 0.79458 0.0
Zn68 Zn 0.97822 0.77415 0.78267 0.0
C69 C 0.03215 0.6319 0.73181 0.0
N70 N 0.01803 0.6477 0.67279 0.0
C71 C 1.00813 0.70218 0.67942 0.0
N72 N 0.01541 0.71929 0.74083 0.0
N73 N 0.03274 0.67544 0.7725 0.0
C74 C 0.02541 0.58473 0.90232 0.0
O75 O 0.99433 0.61824 0.88082 0.0
O76 O 0.97818 0.85428 0.74561 0.0
Zn77 Zn 0.06261 0.67534 0.8572 0.0
N78 N 0.92116 0.74144 0.77533 0.0
C79 C 0.88458 0.65506 0.78561 0.0
C80 C 0.92215 0.68518 0.78481 0.0
C81 C 0.88329 0.76944 0.76777 0.0
N82 N 0.84697 0.68265 0.7784 0.0
C83 C 0.84514 0.73904 0.76977 0.0
O84 O 0.0357 0.71983 0.92126 0.0
C85 C 0.01039 0.76004 0.92774 0.0
O86 O 0.99035 0.78402 0.87994 0.0
H87 H 0.95215 0.664 0.7925 0.0
H88 H 0.88279 0.81446 0.76193 0.0
C89 C 0.15112 0.68595 0.90557 0.0
C90 C 0.18975 0.71572 0.91562 0.0
C91 C 0.16603 0.77652 0.83041 0.0
C92 C 0.12711 0.7488 0.82298 0.0
N93 N 0.12038 0.70404 0.86032 0.0
N94 N 0.19607 0.75987 0.87681 0.0
H95 H 0.14462 0.65098 0.93575 0.0
C96 C 0.9637 0.89326 0.77872 0.0
O97 O 0.94598 0.87959 0.8301 0.0
O98 O 0.06285 0.59942 0.89337 0.0
H99 H 0.10181 0.76408 0.78943 0.0
H100 H 0.88532 0.6102 0.79296 0.0
H101 H 0.17183 0.81223 0.80094 0.0
Zn102 Zn 0.54024 0.77528 0.24862 0.0
C103 C 0.48566 0.63367 0.30026 0.0
N104 N 0.50009 0.6494 0.35898 0.0
C105 C 0.50974 0.7039 0.35189 0.0
N106 N 0.50197 0.72128 0.29059 0.0
N107 N 0.48442 0.67752 0.25951 0.0
C108 C 0.49312 0.5968 0.12151 0.0
O109 O 0.5237 0.6313 0.14171 0.0
O110 O 0.54099 0.85605 0.28444 0.0
Zn111 Zn 0.45384 0.67866 0.17589 0.0
N112 N 0.59676 0.74042 0.25598 0.0
C113 C 0.63184 0.65238 0.24947 0.0
C114 C 0.5948 0.68394 0.24877 0.0
C115 C 0.63512 0.76717 0.26188 0.0
N116 N 0.66992 0.67868 0.25556 0.0
C117 C 0.67274 0.73522 0.26141 0.0
O118 O 0.47985 0.72564 0.1135 0.0
C119 C 0.50643 0.76373 0.10518 0.0
O120 O 0.52868 0.78594 0.15173 0.0
H121 H 0.56448 0.66352 0.24179 0.0
H122 H 0.63641 0.81231 0.26566 0.0
C123 C 0.36518 0.68729 0.12775 0.0
C124 C 0.32619 0.71639 0.11744 0.0
C125 C 0.349 0.77727 0.20244 0.0
C126 C 0.38827 0.75026 0.21009 0.0
N127 N 0.3956 0.70574 0.17305 0.0
N128 N 0.31924 0.76024 0.15603 0.0
H129 H 0.3722 0.65262 0.09769 0.0
C130 C 0.55556 0.89465 0.25058 0.0
O131 O 0.57349 0.88035 0.19967 0.0
O132 O 0.45594 0.60432 0.13759 0.0
H133 H 0.41338 0.76602 0.24343 0.0
H134 H 0.63033 0.60735 0.24417 0.0
H135 H 0.34271 0.81278 0.23168 0.0
Zn136 Zn 0.45394 0.87369 0.6752 0.0
C137 C 0.51074 0.846 0.85126 0.0
N138 N 0.50143 0.9006 0.85844 0.0
C139 C 0.48685 0.91699 0.79988 0.0
N140 N 0.48498 0.8733 0.75914 0.0
N141 N 0.50252 0.82899 0.78994 0.0
C142 C 0.52229 0.66213 0.79125 0.0
O143 O 0.48673 0.6832 0.80846 0.0
O144 O 0.4564 0.94841 0.6367 0.0
Zn145 Zn 0.54272 0.77872 0.74617 0.0
N146 N 0.39553 0.8471 0.67232 0.0
C147 C 0.34902 0.77546 0.70188 0.0
C148 C 0.38829 0.8023 0.7093 0.0
C149 C 0.36506 0.86575 0.62694 0.0
N150 N 0.31917 0.79281 0.65558 0.0
C151 C 0.32605 0.83679 0.61684 0.0
O152 O 0.53006 0.76958 0.64997 0.0
C153 C 0.50642 0.79018 0.60368 0.0
O154 O 0.47895 0.82716 0.61195 0.0
H155 H 0.41351 0.78611 0.74229 0.0
H156 H 0.37205 0.90042 0.59665 0.0
C157 C 0.63654 0.79137 0.75776 0.0
C158 C 0.67352 0.82438 0.75717 0.0
C159 C 0.63106 0.90612 0.74583 0.0
C160 C 0.59461 0.87349 0.7456 0.0
N161 N 0.59771 0.81701 0.75243 0.0
N162 N 0.66965 0.88089 0.75148 0.0
H163 H 0.63862 0.74621 0.76133 0.0
C164 C 0.49318 0.9558 0.61895 0.0
O165 O 0.52378 0.92032 0.63669 0.0
O166 O 0.55019 0.69534 0.77285 0.0
H167 H 0.56387 0.89306 0.7393 0.0
H168 H 0.34283 0.73977 0.73115 0.0
H169 H 0.62869 0.95115 0.7407 0.0
Zn170 Zn 0.97735 0.77987 0.28264 0.0
C171 C 0.03142 0.92163 0.23078 0.0
N172 N 0.01749 0.90576 0.17184 0.0
C173 C 1.00776 0.85127 0.1789 0.0
N174 N 0.01494 0.83421 0.24049 0.0
N175 N 0.0321 0.87811 0.27182 0.0
C176 C 0.02475 0.96899 0.40253 0.0
O177 O 0.9934 0.93585 0.38178 0.0
O178 O 0.97644 0.69986 0.24537 0.0
Zn179 Zn 0.06188 0.87829 0.35661 0.0
N180 N 0.92059 0.81398 0.27605 0.0
C181 C 0.8853 0.90133 0.2868 0.0
C182 C 0.92239 0.87019 0.28531 0.0
C183 C 0.88232 0.78704 0.26932 0.0
N184 N 0.84731 0.87481 0.28036 0.0
C185 C 0.84463 0.81851 0.27196 0.0
O186 O 0.03497 0.83356 0.42061 0.0
C187 C 0.00986 0.79323 0.4274 0.0
O188 O 0.98985 0.76924 0.37981 0.0
H189 H 0.95266 0.89058 0.29234 0.0
H190 H 0.88116 0.74205 0.26364 0.0
C191 C 0.15058 0.86759 0.40511 0.0
C192 C 0.18924 0.83767 0.41542 0.0
C193 C 0.16539 0.77671 0.33097 0.0
C194 C 0.12648 0.80462 0.32328 0.0
N195 N 0.11978 0.8495 0.36014 0.0
N196 N 0.19548 0.79335 0.37711 0.0
H197 H 0.14414 0.90271 0.43488 0.0
C198 C 0.96211 0.66063 0.27852 0.0
O199 O 0.94491 0.67391 0.33039 0.0
O200 O 0.06199 0.95414 0.39257 0.0
H201 H 0.10116 0.78939 0.28991 0.0
H202 H 0.88672 0.94615 0.29401 0.0
H203 H 0.17115 0.74089 0.30189 0.0
Zn204 Zn 0.47697 0.27497 0.28241 0.0
C205 C 0.53253 0.13484 0.22883 0.0
N206 N 0.5179 0.15168 0.17029 0.0
C207 C 0.50759 0.20581 0.17862 0.0
N208 N 0.51506 0.22175 0.24024 0.0
N209 N 0.5332 0.17772 0.27052 0.0
C210 C 0.52188 0.09833 0.41064 0.0
O211 O 0.49253 0.13544 0.39252 0.0
O212 O 0.47578 0.35561 0.24615 0.0
Zn213 Zn 0.56424 0.17747 0.35432 0.0
N214 N 0.42058 0.23992 0.27483 0.0
C215 C 0.3858 0.15169 0.28093 0.0
C216 C 0.42274 0.18338 0.28192 0.0
C217 C 0.38211 0.26655 0.26864 0.0
N218 N 0.34761 0.17789 0.2746 0.0
C219 C 0.34458 0.23446 0.26878 0.0
O220 O 0.54076 0.2271 0.41728 0.0
C221 C 0.51374 0.26485 0.42545 0.0
O222 O 0.48987 0.2852 0.3791 0.0
H223 H 0.45314 0.16298 0.28902 0.0
H224 H 0.38064 0.31172 0.26489 0.0
C225 C 0.65301 0.1838 0.40407 0.0
C226 C 0.69387 0.20829 0.4091 0.0
C227 C 0.67509 0.25722 0.31261 0.0
C228 C 0.63432 0.23464 0.30932 0.0
N229 N 0.6239 0.19869 0.355 0.0
N230 N 0.70358 0.24409 0.3625 0.0
H231 H 0.64384 0.15538 0.44019 0.0
C232 C 0.46112 0.3941 0.27982 0.0
O233 O 0.44331 0.37971 0.33087 0.0
O234 O 0.55901 0.10357 0.39345 0.0
H235 H 0.61081 0.24638 0.27136 0.0
H236 H 0.38748 0.10663 0.28619 0.0
H237 H 0.68377 0.28598 0.27652 0.0
Zn238 Zn 0.04077 0.2736 0.74467 0.0
C239 C 0.98626 0.13246 0.7976 0.0
N240 N 0.9996 0.149 0.85653 0.0
C241 C 0.0096 0.20332 0.84874 0.0
N242 N 1.00307 0.21964 0.78688 0.0
N243 N 0.9862 0.17542 0.75595 0.0
C244 C 0.994 0.08266 0.6266 0.0
O245 O 0.02556 0.1153 0.64778 0.0
O246 O 0.042 0.3533 0.78267 0.0
Zn247 Zn 0.95744 0.17448 0.67091 0.0
N248 N 0.09725 0.23863 0.75137 0.0
C249 C 0.13198 0.15038 0.74433 0.0
C250 C 0.0951 0.18218 0.74415 0.0
C251 C 0.13569 0.26513 0.75716 0.0
N252 N 0.17015 0.17642 0.75034 0.0
C253 C 0.17316 0.23291 0.75644 0.0
O254 O 0.98521 0.21823 0.6069 0.0
C255 C 0.00936 0.25959 0.59997 0.0
O256 O 0.02822 0.28489 0.64756 0.0
H257 H 0.06476 0.16199 0.73769 0.0
H258 H 0.13716 0.31026 0.76117 0.0
C259 C 0.86853 0.18487 0.62352 0.0
C260 C 0.83066 0.2161 0.61081 0.0
C261 C 0.85642 0.28154 0.68965 0.0
C262 C 0.89458 0.25212 0.69954 0.0
N263 N 0.90002 0.20457 0.66638 0.0
N264 N 0.82579 0.26339 0.64514 0.0
H265 H 0.87395 0.14733 0.59697 0.0
C266 C 0.05587 0.39293 0.74962 0.0
O267 O 0.07268 0.38022 0.69725 0.0
O268 O 0.9568 0.0983 0.63577 0.0
H269 H 0.9204 0.26824 0.73145 0.0
H270 H 0.13028 0.10538 0.73887 0.0
H271 H 0.8517 0.31961 0.71557 0.0
C272 C 0.0791 1.00427 0.26263 0.0
C273 C 0.03764 0.98207 0.24814 0.0
C274 C 1.00724 0.07653 0.25853 0.0
C275 C 0.04869 0.09983 0.26298 0.0
N276 N 0.12454 0.08676 0.27414 0.0
N277 N 0.96209 0.99831 0.22519 0.0
C278 C 0.08478 0.06371 0.26726 0.0
C279 C 1.00167 1.01846 0.24491 0.0
N280 N 0.11301 0.96851 0.27084 0.0
N281 N 0.97291 0.10977 0.26648 0.0
H282 H 0.95602 0.95649 0.21437 0.0
H283 H 0.93562 1.02377 0.21411 0.0
H284 H 0.97507 0.15261 0.27482 0.0
H285 H 0.94265 0.09402 0.27126 0.0
H286 H 0.14364 0.98063 0.28762 0.0
H287 H 0.11 0.92544 0.26393 0.0
H288 H 0.15246 0.06442 0.27039 0.0
H289 H 0.12952 0.12942 0.28246 0.0
C290 C 0.4395 1.00009 0.76485 0.0
C291 C 0.48075 0.97794 0.78272 0.0
C292 C 0.51097 0.07317 0.7763 0.0
C293 C 0.46944 0.09607 0.76588 0.0
N294 N 0.39393 0.08237 0.74686 0.0
N295 N 0.5554 0.99516 0.81381 0.0
C296 C 0.43367 0.05957 0.75844 0.0
C297 C 0.51636 1.01493 0.7902 0.0
N298 N 0.4058 0.96423 0.75581 0.0
N299 N 0.54564 0.107 0.77334 0.0
H300 H 0.56188 0.95319 0.82356 0.0
H301 H 0.58098 1.0209 0.8287 0.0
H302 H 0.54361 0.15001 0.76568 0.0
H303 H 0.57647 0.0918 0.7723 0.0
H304 H 0.37549 0.97586 0.73675 0.0
H305 H 0.40858 0.92149 0.76544 0.0
H306 H 0.36576 0.05998 0.74736 0.0
H307 H 0.38909 0.12498 0.73758 0.0
C308 C 0.01627 0.03552 0.78528 0.0
C309 C 0.98026 0.07189 0.78082 0.0
C310 C 0.93336 0.99031 0.7596 0.0
C311 C 0.96947 0.95423 0.7649 0.0
N312 N 0.04548 0.94428 0.76454 0.0
N313 N 0.90509 0.08548 0.75561 0.0
C314 C 0.01093 0.97751 0.77121 0.0
C315 C 0.93895 0.04971 0.76482 0.0
N316 N 0.0556 0.05563 0.8065 0.0
N317 N 0.89364 0.96725 0.75113 0.0
H318 H 0.90795 0.12852 0.7629 0.0
H319 H 0.87467 0.0734 0.73766 0.0
H320 H 0.8888 0.92463 0.74237 0.0
H321 H 0.86558 0.98953 0.75403 0.0
H322 H 0.08193 0.03014 0.81848 0.0
H323 H 0.06153 0.09742 0.81763 0.0
H324 H 0.07589 0.96004 0.76106 0.0
H325 H 0.04346 0.90145 0.75603 0.0
C326 C 0.5855 0.99195 0.2684 0.0
C327 C 0.54946 0.95591 0.26268 0.0
C328 C 0.50266 0.03746 0.24051 0.0
C329 C 0.5386 0.07389 0.24559 0.0
N330 N 0.61397 0.08685 0.26801 0.0
N331 N 0.47333 0.94575 0.25932 0.0
C332 C 0.57994 0.05139 0.26155 0.0
C333 C 0.50797 0.97922 0.25442 0.0
N334 N 0.62517 0.96871 0.27875 0.0
N335 N 0.46338 0.05776 0.21893 0.0
H336 H 0.47534 0.90277 0.26726 0.0
H337 H 0.44269 0.9612 0.26166 0.0
H338 H 0.45723 0.09974 0.20871 0.0
H339 H 0.43718 0.03245 0.20603 0.0
H340 H 0.65343 0.9907 0.27729 0.0
H341 H 0.62985 0.92611 0.2883 0.0
H342 H 0.64458 0.07515 0.28559 0.0
H343 H 0.61122 0.12932 0.25703 0.0
C344 C 0.56075 0.56751 0.7988 0.0
C345 C 0.52482 0.60063 0.77656 0.0
C346 C 0.48981 0.51606 0.73091 0.0
C347 C 0.52691 0.48341 0.74871 0.0
N348 N 0.60131 0.48219 0.78615 0.0
N349 N 0.46159 0.60788 0.70313 0.0
C350 C 0.56355 0.51043 0.77858 0.0
C351 C 0.49116 0.57531 0.73749 0.0
N352 N 0.59161 0.58986 0.84074 0.0
N353 N 0.45247 0.49078 0.70905 0.0
H354 H 0.4627 0.65151 0.70264 0.0
H355 H 0.43902 0.59164 0.66895 0.0
H356 H 0.44921 0.44783 0.70245 0.0
H357 H 0.42355 0.51215 0.70318 0.0
H358 H 0.61627 0.56618 0.86358 0.0
H359 H 0.5904 0.63102 0.85683 0.0
H360 H 0.63003 0.5011 0.8022 0.0
H361 H 0.60432 0.44081 0.77158 0.0
C362 C 0.93677 0.50441 0.26467 0.0
C363 C 0.97811 0.48177 0.27969 0.0
C364 C 0.00886 0.57598 0.2691 0.0
C365 C 0.96748 0.5997 0.26416 0.0
N366 N 0.8916 0.58733 0.25258 0.0
N367 N 0.05364 0.49739 0.30355 0.0
C368 C 0.93129 0.56391 0.25979 0.0
C369 C 0.0142 0.51786 0.28318 0.0
N370 N 0.90277 0.46898 0.25615 0.0
N371 N 0.04334 0.60887 0.26114 0.0
H372 H 0.05955 0.45555 0.31489 0.0
H373 H 0.08013 0.52265 0.31475 0.0
H374 H 0.04133 0.65172 0.25242 0.0
H375 H 0.07356 0.59278 0.25668 0.0
H376 H 0.87226 0.48144 0.23888 0.0
H377 H 0.90562 0.42587 0.26332 0.0
H378 H 0.8636 0.56521 0.25628 0.0
H379 H 0.88677 0.63006 0.2441 0.0
C380 C 0.43194 0.49193 0.26081 0.0
C381 C 0.4677 0.45526 0.26777 0.0
C382 C 0.51498 0.53603 0.28958 0.0
C383 C 0.47934 0.57309 0.28297 0.0
N384 N 0.4043 0.58747 0.25739 0.0
N385 N 0.54385 0.44365 0.27326 0.0
C386 C 0.43794 0.55132 0.2663 0.0
C387 C 0.50935 0.47781 0.27667 0.0
N388 N 0.3921 0.46938 0.25063 0.0
N389 N 0.55431 0.55583 0.31136 0.0
H390 H 0.54168 0.4006 0.26642 0.0
H391 H 0.57465 0.45855 0.27117 0.0
H392 H 0.56083 0.59788 0.3201 0.0
H393 H 0.58015 0.53015 0.32562 0.0
H394 H 0.36404 0.49201 0.25165 0.0
H395 H 0.38706 0.42676 0.24209 0.0
H396 H 0.37381 0.57599 0.2392 0.0
H397 H 0.40733 0.63027 0.26603 0.0
C398 C 0.00875 0.47692 0.76095 0.0
C399 C 0.05026 0.45368 0.76463 0.0
C400 C 0.08029 0.54932 0.76361 0.0
C401 C 0.0387 0.57147 0.7496 0.0
N402 N 0.96313 0.55515 0.72805 0.0
N403 N 0.12606 0.46689 0.77459 0.0
C404 C 1.00288 0.53502 0.74716 0.0
C405 C 0.08621 0.48988 0.76828 0.0
N406 N 0.97466 0.44361 0.76983 0.0
N407 N 0.11408 0.58515 0.7713 0.0
H408 H 0.13122 0.4242 0.7829 0.0
H409 H 0.15384 0.48933 0.77038 0.0
H410 H 0.11085 0.62825 0.76444 0.0
H411 H 0.14484 0.57302 0.78767 0.0
H412 H 0.94444 0.45932 0.77512 0.0
H413 H 0.97704 0.40078 0.77851 0.0
H414 H 0.93668 0.52966 0.71756 0.0
H415 H 0.95685 0.597 0.71715 0.0
C416 C 0.9674 0.527 0.03096 0.0
C417 C 1.00154 0.51111 0.0756 0.0
C418 C 0.05203 0.52849 0.9978 0.0
C419 C 0.01784 0.54419 0.9531 0.0
N420 N 0.94315 0.53475 0.91981 0.0
N421 N 0.07623 0.51994 0.10899 0.0
C422 C 0.97544 0.5362 0.96746 0.0
C423 C 0.04396 0.51897 0.06128 0.0
N424 N 0.92811 0.53744 0.05004 0.0
N425 N 0.09138 0.5184 0.97874 0.0
H426 H 0.07038 0.51794 0.15656 0.0
H427 H 0.10752 0.52986 0.10173 0.0
H428 H 0.09668 0.51711 0.93097 0.0
H429 H 0.11672 0.50312 1.00909 0.0
H430 H 0.90284 0.55285 0.01963 0.0
H431 H 0.92283 0.53887 0.09781 0.0
H432 H 0.91191 0.52475 0.92726 0.0
H433 H 0.94895 0.53634 0.87219 0.0
C434 C 0.53018 0.51786 0.07473 0.0
C435 C 0.49944 0.56129 0.06747 0.0
C436 C 0.48467 0.54137 0.95448 0.0
C437 C 0.51496 0.49777 0.96208 0.0
N438 N 0.56112 0.43716 0.02582 0.0
N439 N 0.45455 0.6234 0.99919 0.0
C440 C 0.53672 0.4845 0.02156 0.0
C441 C 0.47828 0.57537 1.00711 0.0
N442 N 0.55375 0.50999 0.13167 0.0
N443 N 0.46138 0.54924 0.89733 0.0
H444 H 0.44898 0.65029 0.03596 0.0
H445 H 0.44302 0.63959 0.95524 0.0
H446 H 0.46673 0.52661 0.85696 0.0
H447 H 0.43502 0.57554 0.89049 0.0
H448 H 0.58012 0.48379 0.13854 0.0
H449 H 0.54879 0.53274 0.17208 0.0
H450 H 0.57591 0.42016 0.06763 0.0
H451 H 0.57591 0.42016 0.06763 0.0
C452 C 0.48368 1.01886 0.45477 0.0
C453 C 0.51482 0.06138 0.46351 0.0
C454 C 0.52995 0.03667 0.5753 0.0
C455 C 0.49901 0.99386 0.56654 0.0
N456 N 0.45296 0.93554 0.49637 0.0
N457 N 0.56064 0.11994 0.53361 0.0
C458 C 0.47722 0.98283 0.50601 0.0
C459 C 0.53637 0.07265 0.52407 0.0
N460 N 0.4595 1.01398 0.39794 0.0
N461 N 0.55425 0.04162 0.63203 0.0
H462 H 0.56617 0.14807 0.49774 0.0
H463 H 0.57251 0.13432 0.57809 0.0
H464 H 0.54958 1.01723 0.67155 0.0
H465 H 0.58105 0.06699 0.63902 0.0
H466 H 0.43263 0.98874 0.39086 0.0
H467 H 0.46436 0.0383 0.35842 0.0
H468 H 0.44084 0.92145 0.45189 0.0
H469 H 0.44767 0.90707 0.53204 0.0
C470 C 0.97537 1.01937 0.46684 0.0
C471 C 0.01777 1.00931 0.45355 0.0
C472 C 0.0433 0.0319 0.56251 0.0
C473 C 1.00093 0.04212 0.57576 0.0
N474 N 0.92687 1.02062 0.54792 0.0
N475 N 0.0918 0.03098 0.48149 0.0
C476 C 0.96679 0.02874 0.53008 0.0
C477 C 0.05189 1.02269 0.49927 0.0
N478 N 0.94367 1.02252 0.4184 0.0
N479 N 0.07497 0.02855 0.61097 0.0
H480 H 0.09777 0.03291 0.43402 0.0
H481 H 0.11721 0.04447 0.51272 0.0
H482 H 0.06861 0.03053 0.65832 0.0
H483 H 0.10603 1.01677 0.60447 0.0
H484 H 0.9126 0.03422 0.42488 0.0
H485 H 0.94999 1.0204 0.37104 0.0
H486 H 0.90144 1.00709 0.51677 0.0
H487 H 0.92091 1.019 0.59541 0.0
C488 C 0.75123 0.36811 0.07453 0.0
C489 C 0.79317 0.35889 0.05815 0.0
C490 C 0.76551 0.3624 0.94587 0.0
C491 C 0.72319 0.35841 0.96281 0.0
N492 N 0.67642 0.35159 0.04672 0.0
N493 N 0.83948 0.34097 0.97587 0.0
C494 C 0.71602 0.36068 0.02806 0.0
C495 C 0.80035 0.35526 0.9931 0.0
N496 N 0.74505 0.38382 0.13482 0.0
N497 N 0.77239 0.37301 0.88438 0.0
H498 H 0.86576 0.33348 1.00823 0.0
H499 H 0.84489 0.33165 0.92938 0.0
H500 H 0.74752 0.37981 0.84906 0.0
H501 H 0.80245 0.38119 0.87014 0.0
H502 H 0.71553 0.39607 0.14815 0.0
H503 H 0.77029 0.3905 0.16952 0.0
H504 H 0.67075 0.34644 0.09396 0.0
H505 H 0.64971 0.34414 0.0154 0.0
C506 C 0.24995 0.69577 0.08055 0.0
C507 C 0.29243 0.70246 0.06524 0.0
C508 C 0.2663 0.69623 0.95251 0.0
C509 C 0.22374 0.70219 0.96781 0.0
N510 N 0.17592 0.71551 0.04926 0.0
N511 N 0.34017 0.71676 0.9838 0.0
C512 C 0.21558 0.70324 0.03264 0.0
C513 C 0.3006 0.70393 1.00042 0.0
N514 N 0.24241 0.68228 0.14108 0.0
N515 N 0.27396 0.68322 0.892 0.0
H516 H 0.36599 0.72551 0.01646 0.0
H517 H 0.34636 0.72406 0.93713 0.0
H518 H 0.2495 0.67608 0.85621 0.0
H519 H 0.30417 0.67349 0.87931 0.0
H520 H 0.2123 0.67204 0.15376 0.0
H521 H 0.26694 0.67528 0.17689 0.0
H522 H 0.1697 0.72263 0.09591 0.0
H523 H 0.15 0.72399 0.01658 0.0
C524 C 0.3003 0.84871 0.49974 0.0
C525 C 0.29225 0.85084 0.56457 0.0
C526 C 0.21535 0.85069 0.53223 0.0
C527 C 0.22339 0.85118 0.46733 0.0
N528 N 0.2736 0.86888 0.39103 0.0
N529 N 0.24245 0.87198 0.6403 0.0
C530 C 0.26596 0.85645 0.4518 0.0
C531 C 0.24983 0.85809 0.57991 0.0
N532 N 0.33979 0.8352 0.48325 0.0
N533 N 0.17568 0.83897 0.54921 0.0
H534 H 0.26707 0.87882 0.67593 0.0
H535 H 0.21242 0.88267 0.65296 0.0
H536 H 0.14969 0.83047 0.51678 0.0
H537 H 0.16952 0.8323 0.59601 0.0
H538 H 0.34588 0.82737 0.4367 0.0
H539 H 0.36562 0.82645 0.51603 0.0
H540 H 0.30384 0.87807 0.3781 0.0
H541 H 0.24913 0.87611 0.3552 0.0
C542 C 0.75318 0.20136 0.57612 0.0
C543 C 0.79591 0.20078 0.5605 0.0
C544 C 0.76898 0.18391 0.44962 0.0
C545 C 0.72705 0.19743 0.46331 0.0
N546 N 0.68092 0.22797 0.54145 0.0
N547 N 0.84376 0.20016 0.47763 0.0
C548 C 0.71932 0.20783 0.52722 0.0
C549 C 0.80381 0.19359 0.49605 0.0
N550 N 0.74487 0.19573 0.63782 0.0
N551 N 0.7756 0.16179 0.3921 0.0
H552 H 0.8701 0.21053 0.50855 0.0
H553 H 0.84991 0.201 0.43024 0.0
H554 H 0.75065 0.15268 0.35775 0.0
H555 H 0.80511 0.14674 0.38163 0.0
H556 H 0.71418 0.19116 0.65126 0.0
H557 H 0.76887 0.18923 0.67453 0.0
H558 H 0.67553 0.24145 0.58666 0.0
H559 H 0.65582 0.2368 0.50746 0.0
C560 C 0.27677 0.26336 0.20638 0.0
C561 C 0.30162 0.25993 0.26566 0.0
C562 C 0.24076 0.29164 0.32006 0.0
C563 C 0.21524 0.2919 0.2612 0.0
N564 N 0.20653 0.27254 0.14933 0.0
N565 N 0.30713 0.26427 0.37967 0.0
C566 C 0.23258 0.27607 0.20459 0.0
C567 C 0.28358 0.27237 0.32276 0.0
N568 N 0.29581 0.25555 0.15183 0.0
N569 N 0.22422 0.31109 0.37311 0.0
H570 H 0.33914 0.2527 0.38346 0.0
H571 H 0.29457 0.26597 0.4232 0.0
H572 H 0.19239 0.32267 0.37357 0.0
H573 H 0.24233 0.31856 0.41588 0.0
H574 H 0.28082 0.26266 0.10667 0.0
H575 H 0.32803 0.24584 0.15171 0.0
H576 H 0.21591 0.25608 0.10751 0.0
H577 H 0.17421 0.28239 0.14622 0.0
C578 C 0.27675 0.29131 0.70618 0.0
C579 C 0.30262 0.28864 0.76466 0.0
C580 C 0.24133 0.2586 0.81904 0.0
C581 C 0.2161 0.25808 0.76 0.0
N582 N 0.20984 0.26732 0.64628 0.0
N583 N 0.31195 0.264 0.87536 0.0
C584 C 0.23381 0.27273 0.7032 0.0
C585 C 0.28558 0.27047 0.82074 0.0
N586 N 0.29309 0.31285 0.65384 0.0
N587 N 0.22258 0.24893 0.87354 0.0
H588 H 0.34436 0.27314 0.8784 0.0
H589 H 0.30271 0.24572 0.91644 0.0
H590 H 0.19026 0.23999 0.87373 0.0
H591 H 0.23796 0.25392 0.91879 0.0
H592 H 0.27478 0.32246 0.61174 0.0
H593 H 0.32502 0.32392 0.65344 0.0
H594 H 0.22209 0.27082 0.60264 0.0
H595 H 0.17776 0.25619 0.64246 0.0
C596 C 0.78528 0.78179 0.82187 0.0
C597 C 0.80276 0.76618 0.7653 0.0
C598 C 0.73508 0.78805 0.70318 0.0
C599 C 0.71675 0.79977 0.76025 0.0
N600 N 0.72197 0.80265 0.87417 0.0
N601 N 0.79436 0.74893 0.65298 0.0
C602 C 0.74123 0.79524 0.81974 0.0
C603 C 0.77768 0.76793 0.7061 0.0
N604 N 0.81111 0.78445 0.8774 0.0
N605 N 0.71197 0.79743 0.64617 0.0
H606 H 0.82606 0.73658 0.65285 0.0
H607 H 0.77649 0.74259 0.60977 0.0
H608 H 0.68011 0.80973 0.64218 0.0
H609 H 0.7248 0.79613 0.60283 0.0
H610 H 0.80168 0.80073 0.91927 0.0
H611 H 0.84337 0.7742 0.8807 0.0
H612 H 0.73665 0.79451 0.91932 0.0
H613 H 0.68989 0.81313 0.87416 0.0
C614 C 0.7408 0.76306 0.32327 0.0
C615 C 0.71557 0.76082 0.26429 0.0
C616 C 0.77591 0.79374 0.20947 0.0
C617 C 0.80184 0.79269 0.26796 0.0
N618 N 0.81136 0.77089 0.37941 0.0
N619 N 0.70922 0.76757 0.15035 0.0
C620 C 0.78494 0.77566 0.3246 0.0
C621 C 0.73314 0.77451 0.20708 0.0
N622 N 0.72215 0.75426 0.37803 0.0
N623 N 0.79202 0.81436 0.1565 0.0
H624 H 0.67724 0.75598 0.14685 0.0
H625 H 0.72144 0.77025 0.10662 0.0
H626 H 0.82381 0.82597 0.15575 0.0
H627 H 0.77361 0.82278 0.11415 0.0
H628 H 0.73746 0.7605 0.42312 0.0
H629 H 0.68995 0.74471 0.37849 0.0
H630 H 0.80229 0.75348 0.42105 0.0
H631 H 0.84367 0.78064 0.38221 0.0
C632 C 0.05022 0.2479 0.94409 0.0
C633 C 0.01155 0.24084 0.9049 0.0
C634 C 0.97139 0.26246 0.99513 0.0
C635 C 0.00982 0.27373 0.03348 0.0
N636 N 0.08579 0.28791 0.04031 0.0
N637 N 0.93572 0.25453 0.88942 0.0
C638 C 0.04935 0.26967 1.00676 0.0
C639 C 0.97238 0.25316 0.92924 0.0
N640 N 0.08762 0.23198 0.92218 0.0
N641 N 0.93411 0.25659 0.02233 0.0
H642 H 0.93522 0.24712 0.84099 0.0
H643 H 0.90677 0.2684 0.90332 0.0
H644 H 0.9321 0.25973 0.07098 0.0
H645 H 0.90612 0.24218 0.99771 0.0
H646 H 0.11641 0.23003 0.95055 0.0
H647 H 0.08914 0.21772 0.87606 0.0
H648 H 0.11481 0.29098 0.02106 0.0
H649 H 0.08633 0.3044 0.08584 0.0
C650 C 0.53854 0.26724 0.10177 0.0
C651 C 0.5014 0.24355 0.12245 0.0
C652 C 0.46581 0.25749 0.01486 0.0
C653 C 0.50583 0.27002 0.9922 0.0
N654 N 0.58242 0.27016 0.01539 0.0
N655 N 0.42938 0.21267 0.0975 0.0
C656 C 0.54281 0.27061 0.0361 0.0
C657 C 0.4648 0.23782 0.07856 0.0
N658 N 0.57027 0.28552 0.14484 0.0
N659 N 0.42887 0.26615 0.97706 0.0
H660 H 0.42729 0.20069 0.14446 0.0
H661 H 0.40328 0.20155 0.06623 0.0
H662 H 0.428 0.28259 0.9314 0.0
H663 H 0.39893 0.26217 0.99332 0.0
H664 H 0.59716 0.3062 0.13174 0.0
H665 H 0.56658 0.28668 0.19306 0.0
H666 H 0.60989 0.26443 0.04617 0.0
H667 H 0.58752 0.26767 0.96763 0.0
C668 C 0.04616 0.79431 0.03102 0.0
C669 C 1.00776 0.78141 0.99345 0.0
C670 C 0.96752 0.80599 0.08348 0.0
C671 C 1.00628 0.81445 0.12209 0.0
N672 N 0.08251 0.80455 0.13596 0.0
N673 N 0.93211 0.765 0.98767 0.0
C674 C 0.0455 0.80394 0.09692 0.0
C675 C 0.96839 0.78427 0.02077 0.0
N676 N 0.08302 0.80132 1.00299 0.0
N677 N 0.93001 0.8206 0.10595 0.0
H678 H 0.93157 0.74878 0.94201 0.0
H679 H 0.90329 0.76096 1.0073 0.0
H680 H 0.92852 0.83497 0.15203 0.0
H681 H 0.90102 0.82151 0.07803 0.0
H682 H 0.11087 0.81695 0.02686 0.0
H683 H 0.08471 0.79769 0.95431 0.0
H684 H 0.11164 0.79182 0.12164 0.0
H685 H 0.08336 0.81265 0.18425 0.0
C686 C 0.54918 0.78295 1.01155 0.0
C687 C 0.50963 0.7825 0.03859 0.0
C688 C 0.47261 0.79984 0.93331 0.0
C689 C 0.51197 0.80936 0.90828 0.0
N690 N 0.58819 0.81502 0.92491 0.0
N691 N 0.43435 0.80296 0.02637 0.0
C692 C 0.55048 0.802 0.94776 0.0
C693 C 0.47146 0.79389 0.99963 0.0
N694 N 0.58515 0.76364 0.04573 0.0
N695 N 0.43593 0.79822 0.89367 0.0
H696 H 0.43239 0.80261 0.07517 0.0
H697 H 0.40661 0.81728 1.00077 0.0
H698 H 0.43565 0.80344 0.84496 0.0
H699 H 0.40674 0.78621 0.90837 0.0
H700 H 0.61394 0.7581 0.02638 0.0
H701 H 0.58542 0.74855 0.09194 0.0
H702 H 0.61701 0.81686 0.95319 0.0
H703 H 0.58997 0.82694 0.87792 0.0
C704 C 0.47089 0.75681 0.50018 0.0
C705 C 0.50914 0.7706 0.53758 0.0
C706 C 0.54945 0.74985 0.4468 0.0
C707 C 0.51077 0.74043 0.40853 0.0
N708 N 0.43436 0.74821 0.39527 0.0
N709 N 0.58404 0.79267 0.54181 0.0
C710 C 0.47146 0.74912 0.43408 0.0
C711 C 0.54831 0.77087 0.50958 0.0
N712 N 0.4344 0.7471 0.52836 0.0
N713 N 0.58717 0.73676 0.42408 0.0
H714 H 0.58436 0.80948 0.58714 0.0
H715 H 0.61237 0.79867 0.52133 0.0
H716 H 0.58883 0.72257 0.37801 0.0
H717 H 0.61619 0.73671 0.45199 0.0
H718 H 0.40674 0.73133 0.50409 0.0
H719 H 0.43301 0.74848 0.57726 0.0
H720 H 0.4051 0.75962 0.41019 0.0
H721 H 0.43355 0.74131 0.34677 0.0
C722 C 0.96745 0.74685 0.58356 0.0
C723 C 1.00629 0.73894 0.62226 0.0
C724 C 0.04595 0.75935 0.53094 0.0
C725 C 1.00743 0.7718 0.49327 0.0
N726 N 0.93165 0.7875 0.48744 0.0
N727 N 0.08244 0.74972 0.63594 0.0
C728 C 0.96811 0.76857 0.52065 0.0
C729 C 0.04541 0.74985 0.59694 0.0
N730 N 0.93009 0.7317 0.60612 0.0
N731 N 0.08286 0.75265 0.50294 0.0
H732 H 0.08339 0.74168 0.68431 0.0
H733 H 0.11144 0.76277 0.62145 0.0
H734 H 0.08447 0.75613 0.4542 0.0
H735 H 0.11086 0.73738 0.52696 0.0
H736 H 0.90112 0.73042 0.57817 0.0
H737 H 0.92873 0.71721 0.65227 0.0
H738 H 0.90283 0.79126 0.50712 0.0
H739 H 0.93094 0.80373 0.44165 0.0
C740 C 0.46981 0.3037 0.58253 0.0
C741 C 0.50821 0.31402 0.62116 0.0
C742 C 0.54867 0.29869 0.52966 0.0
C743 C 0.51071 0.28427 0.4918 0.0
N744 N 0.43606 0.26066 0.48704 0.0
N745 N 0.58465 0.30855 0.635 0.0
C746 C 0.47144 0.28309 0.5196 0.0
C747 C 0.54773 0.30658 0.59583 0.0
N748 N 0.43181 0.31545 0.60517 0.0
N749 N 0.58521 0.30873 0.50181 0.0
H750 H 0.58512 0.31522 0.68355 0.0
H751 H 0.61421 0.2982 0.62038 0.0
H752 H 0.58692 0.30652 0.45303 0.0
H753 H 0.61253 0.32538 0.52614 0.0
H754 H 0.40285 0.31499 0.57711 0.0
H755 H 0.42977 0.32898 0.65143 0.0
H756 H 0.40774 0.25389 0.50727 0.0
H757 H 0.43605 0.2441 0.44164 0.0
C758 C 0.97409 0.29605 0.42832 0.0
C759 C 0.01249 0.3128 0.40449 0.0
C760 C 0.05102 0.2891 0.50795 0.0
C761 C 0.01155 0.28076 0.53384 0.0
N762 N 0.93508 0.29102 0.52043 0.0
N763 N 0.0875 0.33085 0.4235 0.0
C764 C 0.97295 0.28786 0.49436 0.0
C765 C 0.05108 0.31065 0.44484 0.0
N766 N 0.93817 0.28937 0.38789 0.0
N767 N 0.08825 0.27514 0.54264 0.0
H768 H 0.0886 0.34486 0.37707 0.0
H769 H 0.11569 0.33645 0.45255 0.0
H770 H 0.08942 0.25879 0.58842 0.0
H771 H 0.11761 0.27541 0.52412 0.0
H772 H 0.91018 0.27226 0.40182 0.0
H773 H 0.93794 0.29535 0.33929 0.0
H774 H 0.90664 0.30232 0.49446 0.0
H775 H 0.93276 0.28925 0.5691 0.0
loop_
_geom_bond_atom_site_label_1
_geom_bond_atom_site_label_2
_geom_bond_distance
_geom_bond_site_symmetry_2
_ccdc_geom_bond_type
Zn0 N4 2.020 . S
Zn0 O8 2.019 . S
Zn0 N10 2.119 . S
Zn0 O18 1.975 1_655 S
C1 N2 1.339 . S
C1 N5 1.336 . S
N2 C1 1.339 . S
N2 C3 1.331 1_455 S
C3 N2 1.331 1_655 S
C3 N4 1.336 . S
N4 Zn0 2.020 . S
N4 C3 1.336 . S
N4 N5 1.354 1_655 S
N5 C1 1.336 . S
N5 N4 1.354 1_455 S
N5 Zn9 2.020 . S
C6 O7 1.244 1_455 S
C6 O30 1.257 . S
O7 C6 1.244 1_655 S
O8 Zn0 2.019 . S
O8 C28 1.257 1_655 S
Zn9 N5 2.020 . S
Zn9 O16 1.975 . S
Zn9 N25 2.119 . S
Zn9 O30 2.019 . S
N10 Zn0 2.119 . S
N10 C12 1.334 . S
N10 C13 1.328 . S
C11 C12 1.391 . S
C11 N14 1.329 . S
C11 H32 0.930 . S
C12 N10 1.334 . S
C12 C11 1.391 . S
C12 H19 0.930 . S
C13 N10 1.328 . S
C13 C15 1.392 . S
C13 H20 0.930 . S
N14 C11 1.329 . S
N14 C15 1.331 . S
C15 C13 1.392 . S
C15 N14 1.331 . S
O16 Zn9 1.975 . S
O16 C17 1.252 . S
C17 O16 1.252 . S
C17 O18 1.252 . S
O18 Zn0 1.975 1_455 S
O18 C17 1.252 . S
H19 C12 0.930 . S
H20 C13 0.930 . S
C21 C22 1.392 . S
C21 N25 1.328 . S
C21 H27 0.930 . S
C22 C21 1.392 . S
C22 N26 1.331 . S
C23 C24 1.391 . S
C23 N26 1.329 . S
C23 H33 0.930 . S
C24 C23 1.391 . S
C24 N25 1.334 . S
C24 H31 0.930 . S
N25 Zn9 2.119 . S
N25 C21 1.328 . S
N25 C24 1.334 . S
N26 C22 1.331 . S
N26 C23 1.329 . S
H27 C21 0.930 . S
C28 O8 1.257 1_455 S
C28 O29 1.244 . S
O29 C28 1.244 . S
O30 C6 1.257 . S
O30 Zn9 2.019 . S
H31 C24 0.930 . S
H32 C11 0.930 . S
H33 C23 0.930 . S
Zn34 N38 2.020 . S
Zn34 O42 2.019 . S
Zn34 N44 2.119 . S
Zn34 O52 1.975 . S
C35 N36 1.334 . S
C35 N39 1.336 . S
N36 C35 1.334 . S
N36 C37 1.334 . S
C37 N36 1.334 . S
C37 N38 1.336 . S
N38 Zn34 2.020 . S
N38 C37 1.336 . S
N38 N39 1.354 . S
N39 C35 1.336 . S
N39 N38 1.354 . S
N39 Zn43 2.020 . S
C40 O41 1.244 . S
C40 O64 1.257 . S
O41 C40 1.244 . S
O42 Zn34 2.019 . S
O42 C62 1.257 . S
Zn43 N39 2.020 . S
Zn43 O50 1.975 . S
Zn43 N59 2.119 . S
Zn43 O64 2.019 . S
N44 Zn34 2.119 . S
N44 C46 1.334 . S
N44 C47 1.328 . S
C45 C46 1.391 . S
C45 N48 1.329 . S
C45 H66 0.930 . S
C46 N44 1.334 . S
C46 C45 1.391 . S
C46 H53 0.930 . S
C47 N44 1.328 . S
C47 C49 1.392 . S
C47 H54 0.930 . S
N48 C45 1.329 . S
N48 C49 1.331 . S
C49 C47 1.392 . S
C49 N48 1.331 . S
O50 Zn43 1.975 . S
O50 C51 1.252 . S
C51 O50 1.252 . S
C51 O52 1.252 . S
O52 Zn34 1.975 . S
O52 C51 1.252 . S
H53 C46 0.930 . S
H54 C47 0.930 . S
C55 C56 1.392 . S
C55 N59 1.328 . S
C55 H61 0.930 . S
C56 C55 1.392 . S
C56 N60 1.331 . S
C57 C58 1.391 . S
C57 N60 1.329 . S
C57 H67 0.930 . S
C58 C57 1.391 . S
C58 N59 1.334 . S
C58 H65 0.930 . S
N59 Zn43 2.119 . S
N59 C55 1.328 . S
N59 C58 1.334 . S
N60 C56 1.331 . S
N60 C57 1.329 . S
H61 C55 0.930 . S
C62 O42 1.257 . S
C62 O63 1.244 . S
O63 C62 1.244 . S
O64 C40 1.257 . S
O64 Zn43 2.019 . S
H65 C58 0.930 . S
H66 C45 0.930 . S
H67 C57 0.930 . S
Zn68 N72 2.020 . S
Zn68 O76 2.019 . S
Zn68 N78 2.119 . S
Zn68 O86 1.975 . S
C69 N70 1.331 1_455 S
C69 N73 1.336 . S
N70 C69 1.331 1_655 S
N70 C71 1.339 . S
C71 N70 1.339 . S
C71 N72 1.336 . S
N72 Zn68 2.020 . S
N72 C71 1.336 . S
N72 N73 1.354 1_655 S
N73 C69 1.336 . S
N73 N72 1.354 1_455 S
N73 Zn77 2.020 . S
C74 O75 1.244 . S
C74 O98 1.257 1_655 S
O75 C74 1.244 . S
O76 Zn68 2.019 . S
O76 C96 1.257 . S
Zn77 N73 2.020 . S
Zn77 O84 1.975 1_455 S
Zn77 N93 2.119 . S
Zn77 O98 2.019 . S
N78 Zn68 2.119 . S
N78 C80 1.334 . S
N78 C81 1.328 . S
C79 C80 1.391 . S
C79 N82 1.329 . S
C79 H100 0.930 . S
C80 N78 1.334 . S
C80 C79 1.391 . S
C80 H87 0.930 . S
C81 N78 1.328 . S
C81 C83 1.392 . S
C81 H88 0.930 . S
N82 C79 1.329 . S
N82 C83 1.331 . S
C83 C81 1.392 . S
C83 N82 1.331 . S
O84 Zn77 1.975 1_655 S
O84 C85 1.252 . S
C85 O84 1.252 . S
C85 O86 1.252 . S
O86 Zn68 1.975 . S
O86 C85 1.252 . S
H87 C80 0.930 . S
H88 C81 0.930 . S
C89 C90 1.392 . S
C89 N93 1.328 . S
C89 H95 0.930 . S
C90 C89 1.392 . S
C90 N94 1.331 . S
C91 C92 1.391 . S
C91 N94 1.329 . S
C91 H101 0.930 . S
C92 C91 1.391 . S
C92 N93 1.334 . S
C92 H99 0.930 . S
N93 Zn77 2.119 . S
N93 C89 1.328 . S
N93 C92 1.334 . S
N94 C90 1.331 . S
N94 C91 1.329 . S
H95 C89 0.930 . S
C96 O76 1.257 . S
C96 O97 1.244 1_655 S
O97 C96 1.244 1_455 S
O98 C74 1.257 1_455 S
O98 Zn77 2.019 . S
H99 C92 0.930 . S
H100 C79 0.930 . S
H101 C91 0.930 . S
Zn102 N106 2.020 . S
Zn102 O110 2.019 . S
Zn102 N112 2.119 . S
Zn102 O120 1.975 . S
C103 N104 1.334 . S
C103 N107 1.336 . S
N104 C103 1.334 . S
N104 C105 1.334 . S
C105 N104 1.334 . S
C105 N106 1.336 . S
N106 Zn102 2.020 . S
N106 C105 1.336 . S
N106 N107 1.354 . S
N107 C103 1.336 . S
N107 N106 1.354 . S
N107 Zn111 2.020 . S
C108 O109 1.244 . S
C108 O132 1.257 . S
O109 C108 1.244 . S
O110 Zn102 2.019 . S
O110 C130 1.257 . S
Zn111 N107 2.020 . S
Zn111 O118 1.975 . S
Zn111 N127 2.119 . S
Zn111 O132 2.019 . S
N112 Zn102 2.119 . S
N112 C114 1.334 . S
N112 C115 1.328 . S
C113 C114 1.391 . S
C113 N116 1.329 . S
C113 H134 0.930 . S
C114 N112 1.334 . S
C114 C113 1.391 . S
C114 H121 0.930 . S
C115 N112 1.328 . S
C115 C117 1.392 . S
C115 H122 0.930 . S
N116 C113 1.329 . S
N116 C117 1.331 . S
C117 C115 1.392 . S
C117 N116 1.331 . S
O118 Zn111 1.975 . S
O118 C119 1.252 . S
C119 O118 1.252 . S
C119 O120 1.252 . S
O120 Zn102 1.975 . S
O120 C119 1.252 . S
H121 C114 0.930 . S
H122 C115 0.930 . S
C123 C124 1.392 . S
C123 N127 1.328 . S
C123 H129 0.930 . S
C124 C123 1.392 . S
C124 N128 1.331 . S
C125 C126 1.391 . S
C125 N128 1.329 . S
C125 H135 0.930 . S
C126 C125 1.391 . S
C126 N127 1.334 . S
C126 H133 0.930 . S
N127 Zn111 2.119 . S
N127 C123 1.328 . S
N127 C126 1.334 . S
N128 C124 1.331 . S
N128 C125 1.329 . S
H129 C123 0.930 . S
C130 O110 1.257 . S
C130 O131 1.244 . S
O131 C130 1.244 . S
O132 C108 1.257 . S
O132 Zn111 2.019 . S
H133 C126 0.930 . S
H134 C113 0.930 . S
H135 C125 0.930 . S
Zn136 N140 2.020 . S
Zn136 O144 2.019 . S
Zn136 N146 2.119 . S
Zn136 O154 1.975 . S
C137 N138 1.334 . S
C137 N141 1.336 . S
N138 C137 1.334 . S
N138 C139 1.334 . S
C139 N138 1.334 . S
C139 N140 1.336 . S
N140 Zn136 2.020 . S
N140 C139 1.336 . S
N140 N141 1.354 . S
N141 C137 1.336 . S
N141 N140 1.354 . S
N141 Zn145 2.020 . S
C142 O143 1.244 . S
C142 O166 1.257 . S
O143 C142 1.244 . S
O144 Zn136 2.019 . S
O144 C164 1.257 . S
Zn145 N141 2.020 . S
Zn145 O152 1.975 . S
Zn145 N161 2.119 . S
Zn145 O166 2.019 . S
N146 Zn136 2.119 . S
N146 C148 1.334 . S
N146 C149 1.328 . S
C147 C148 1.391 . S
C147 N150 1.329 . S
C147 H168 0.930 . S
C148 N146 1.334 . S
C148 C147 1.391 . S
C148 H155 0.930 . S
C149 N146 1.328 . S
C149 C151 1.392 . S
C149 H156 0.930 . S
N150 C147 1.329 . S
N150 C151 1.331 . S
C151 C149 1.392 . S
C151 N150 1.331 . S
O152 Zn145 1.975 . S
O152 C153 1.252 . S
C153 O152 1.252 . S
C153 O154 1.252 . S
O154 Zn136 1.975 . S
O154 C153 1.252 . S
H155 C148 0.930 . S
H156 C149 0.930 . S
C157 C158 1.392 . S
C157 N161 1.328 . S
C157 H163 0.930 . S
C158 C157 1.392 . S
C158 N162 1.331 . S
C159 C160 1.391 . S
C159 N162 1.329 . S
C159 H169 0.930 . S
C160 C159 1.391 . S
C160 N161 1.334 . S
C160 H167 0.930 . S
N161 Zn145 2.119 . S
N161 C157 1.328 . S
N161 C160 1.334 . S
N162 C158 1.331 . S
N162 C159 1.329 . S
H163 C157 0.930 . S
C164 O144 1.257 . S
C164 O165 1.244 . S
O165 C164 1.244 . S
O166 C142 1.257 . S
O166 Zn145 2.019 . S
H167 C160 0.930 . S
H168 C147 0.930 . S
H169 C159 0.930 . S
Zn170 N174 2.020 . S
Zn170 O178 2.019 . S
Zn170 N180 2.119 . S
Zn170 O188 1.975 . S
C171 N172 1.331 1_455 S
C171 N175 1.336 . S
N172 C171 1.331 1_655 S
N172 C173 1.339 . S
C173 N172 1.339 . S
C173 N174 1.336 . S
N174 Zn170 2.020 . S
N174 C173 1.336 . S
N174 N175 1.354 1_655 S
N175 C171 1.336 . S
N175 N174 1.354 1_455 S
N175 Zn179 2.020 . S
C176 O177 1.244 . S
C176 O200 1.257 1_655 S
O177 C176 1.244 . S
O178 Zn170 2.019 . S
O178 C198 1.257 . S
Zn179 N175 2.020 . S
Zn179 O186 1.975 1_455 S
Zn179 N195 2.119 . S
Zn179 O200 2.019 . S
N180 Zn170 2.119 . S
N180 C182 1.334 . S
N180 C183 1.328 . S
C181 C182 1.391 . S
C181 N184 1.329 . S
C181 H202 0.930 . S
C182 N180 1.334 . S
C182 C181 1.391 . S
C182 H189 0.930 . S
C183 N180 1.328 . S
C183 C185 1.392 . S
C183 H190 0.930 . S
N184 C181 1.329 . S
N184 C185 1.331 . S
C185 C183 1.392 . S
C185 N184 1.331 . S
O186 Zn179 1.975 1_655 S
O186 C187 1.252 . S
C187 O186 1.252 . S
C187 O188 1.252 . S
O188 Zn170 1.975 . S
O188 C187 1.252 . S
H189 C182 0.930 . S
H190 C183 0.930 . S
C191 C192 1.392 . S
C191 N195 1.328 . S
C191 H197 0.930 . S
C192 C191 1.392 . S
C192 N196 1.331 . S
C193 C194 1.391 . S
C193 N196 1.329 . S
C193 H203 0.930 . S
C194 C193 1.391 . S
C194 N195 1.334 . S
C194 H201 0.930 . S
N195 Zn179 2.119 . S
N195 C191 1.328 . S
N195 C194 1.334 . S
N196 C192 1.331 . S
N196 C193 1.329 . S
H197 C191 0.930 . S
C198 O178 1.257 . S
C198 O199 1.244 1_655 S
O199 C198 1.244 1_455 S
O200 C176 1.257 1_455 S
O200 Zn179 2.019 . S
H201 C194 0.930 . S
H202 C181 0.930 . S
H203 C193 0.930 . S
Zn204 N208 2.020 . S
Zn204 O212 2.019 . S
Zn204 N214 2.119 . S
Zn204 O222 1.975 . S
C205 N206 1.334 . S
C205 N209 1.336 . S
N206 C205 1.334 . S
N206 C207 1.334 . S
C207 N206 1.334 . S
C207 N208 1.336 . S
N208 Zn204 2.020 . S
N208 C207 1.336 . S
N208 N209 1.354 . S
N209 C205 1.336 . S
N209 N208 1.354 . S
N209 Zn213 2.020 . S
C210 O211 1.244 . S
C210 O234 1.257 . S
O211 C210 1.244 . S
O212 Zn204 2.019 . S
O212 C232 1.257 . S
Zn213 N209 2.020 . S
Zn213 O220 1.975 . S
Zn213 N229 2.119 . S
Zn213 O234 2.019 . S
N214 Zn204 2.119 . S
N214 C216 1.334 . S
N214 C217 1.328 . S
C215 C216 1.391 . S
C215 N218 1.329 . S
C215 H236 0.930 . S
C216 N214 1.334 . S
C216 C215 1.391 . S
C216 H223 0.930 . S
C217 N214 1.328 . S
C217 C219 1.392 . S
C217 H224 0.930 . S
N218 C215 1.329 . S
N218 C219 1.331 . S
C219 C217 1.392 . S
C219 N218 1.331 . S
O220 Zn213 1.975 . S
O220 C221 1.252 . S
C221 O220 1.252 . S
C221 O222 1.252 . S
O222 Zn204 1.975 . S
O222 C221 1.252 . S
H223 C216 0.930 . S
H224 C217 0.930 . S
C225 C226 1.392 . S
C225 N229 1.328 . S
C225 H231 0.930 . S
C226 C225 1.392 . S
C226 N230 1.331 . S
C227 C228 1.391 . S
C227 N230 1.329 . S
C227 H237 0.930 . S
C228 C227 1.391 . S
C228 N229 1.334 . S
C228 H235 0.930 . S
N229 Zn213 2.119 . S
N229 C225 1.328 . S
N229 C228 1.334 . S
N230 C226 1.331 . S
N230 C227 1.329 . S
H231 C225 0.930 . S
C232 O212 1.257 . S
C232 O233 1.244 . S
O233 C232 1.244 . S
O234 C210 1.257 . S
O234 Zn213 2.019 . S
H235 C228 0.930 . S
H236 C215 0.930 . S
H237 C227 0.930 . S
Zn238 N242 2.020 . S
Zn238 O246 2.019 . S
Zn238 N248 2.119 . S
Zn238 O256 1.975 . S
C239 N240 1.331 1_655 S
C239 N243 1.336 . S
N240 C239 1.331 1_455 S
N240 C241 1.339 . S
C241 N240 1.339 . S
C241 N242 1.336 . S
N242 Zn238 2.020 . S
N242 C241 1.336 . S
N242 N243 1.354 1_455 S
N243 C239 1.336 . S
N243 N242 1.354 1_655 S
N243 Zn247 2.020 . S
C244 O245 1.244 . S
C244 O268 1.257 1_455 S
O245 C244 1.244 . S
O246 Zn238 2.019 . S
O246 C266 1.257 . S
Zn247 N243 2.020 . S
Zn247 O254 1.975 1_655 S
Zn247 N263 2.119 . S
Zn247 O268 2.019 . S
N248 Zn238 2.119 . S
N248 C250 1.334 . S
N248 C251 1.328 . S
C249 C250 1.391 . S
C249 N252 1.329 . S
C249 H270 0.930 . S
C250 N248 1.334 . S
C250 C249 1.391 . S
C250 H257 0.930 . S
C251 N248 1.328 . S
C251 C253 1.392 . S
C251 H258 0.930 . S
N252 C249 1.329 . S
N252 C253 1.331 . S
C253 C251 1.392 . S
C253 N252 1.331 . S
O254 Zn247 1.975 1_455 S
O254 C255 1.252 . S
C255 O254 1.252 . S
C255 O256 1.252 . S
O256 Zn238 1.975 . S
O256 C255 1.252 . S
H257 C250 0.930 . S
H258 C251 0.930 . S
C259 C260 1.392 . S
C259 N263 1.328 . S
C259 H265 0.930 . S
C260 C259 1.392 . S
C260 N264 1.331 . S
C261 C262 1.391 . S
C261 N264 1.329 . S
C261 H271 0.930 . S
C262 C261 1.391 . S
C262 N263 1.334 . S
C262 H269 0.930 . S
N263 Zn247 2.119 . S
N263 C259 1.328 . S
N263 C262 1.334 . S
N264 C260 1.331 . S
N264 C261 1.329 . S
H265 C259 0.930 . S
C266 O246 1.257 . S
C266 O267 1.244 1_455 S
O267 C266 1.244 1_655 S
O268 C244 1.257 1_655 S
O268 Zn247 2.019 . S
H269 C262 0.930 . S
H270 C249 0.930 . S
H271 C261 0.930 . S
C272 C273 1.363 . S
C272 C278 1.379 1_565 S
C272 N280 1.356 . S
C273 C272 1.363 . S
C273 C279 1.373 1_455 S
C274 C275 1.363 1_655 S
C274 C279 1.362 1_545 S
C274 N281 1.356 . S
C275 C274 1.363 1_455 S
C275 C278 1.363 . S
N276 C278 1.356 . S
N276 H288 0.984 . S
N276 H289 0.985 . S
N277 C279 1.368 . S
N277 H282 0.984 . S
N277 H283 0.985 . S
C278 C272 1.379 1_545 S
C278 C275 1.363 . S
C278 N276 1.356 . S
C279 C273 1.373 1_655 S
C279 C274 1.362 1_565 S
C279 N277 1.368 . S
N280 C272 1.356 . S
N280 H286 0.984 . S
N280 H287 0.984 . S
N281 C274 1.356 . S
N281 H284 0.984 . S
N281 H285 0.985 . S
H282 N277 0.984 . S
H283 N277 0.985 . S
H284 N281 0.984 . S
H285 N281 0.985 . S
H286 N280 0.984 . S
H287 N280 0.984 . S
H288 N276 0.984 . S
H289 N276 0.985 . S
C290 C291 1.363 . S
C290 C296 1.379 1_565 S
C290 N298 1.356 . S
C291 C290 1.363 . S
C291 C297 1.363 . S
C292 C293 1.363 . S
C292 C297 1.379 1_545 S
C292 N299 1.356 . S
C293 C292 1.363 . S
C293 C296 1.363 . S
N294 C296 1.356 . S
N294 H306 0.984 . S
N294 H307 0.985 . S
N295 C297 1.356 . S
N295 H300 0.984 . S
N295 H301 0.985 . S
C296 C290 1.379 1_545 S
C296 C293 1.363 . S
C296 N294 1.356 . S
C297 C291 1.363 . S
C297 C292 1.379 1_565 S
C297 N295 1.356 . S
N298 C290 1.356 . S
N298 H304 0.984 . S
N298 H305 0.984 . S
N299 C292 1.356 . S
N299 H302 0.984 . S
N299 H303 0.985 . S
H300 N295 0.984 . S
H301 N295 0.985 . S
H302 N299 0.984 . S
H303 N299 0.985 . S
H304 N298 0.984 . S
H305 N298 0.984 . S
H306 N294 0.984 . S
H307 N294 0.985 . S
C308 C309 1.351 1_565 S
C308 C314 1.398 . S
C308 N316 1.343 1_565 S
C309 C308 1.351 1_545 S
C309 C315 1.363 . S
C310 C311 1.363 . S
C310 C315 1.379 1_565 S
C310 N317 1.356 . S
C311 C310 1.363 . S
C311 C314 1.363 . S
N312 C314 1.362 . S
N312 H324 0.977 1_655 S
N312 H325 0.987 . S
N313 C315 1.356 . S
N313 H318 0.984 . S
N313 H319 0.985 . S
C314 C308 1.398 . S
C314 C311 1.363 . S
C314 N312 1.362 . S
C315 C309 1.363 . S
C315 C310 1.379 1_545 S
C315 N313 1.356 . S
N316 C308 1.343 1_545 S
N316 H322 0.984 1_655 S
N316 H323 0.984 . S
N317 C310 1.356 . S
N317 H320 0.984 . S
N317 H321 0.985 . S
H318 N313 0.984 . S
H319 N313 0.985 . S
H320 N317 0.984 . S
H321 N317 0.985 . S
H322 N316 0.984 1_455 S
H323 N316 0.984 . S
H324 N312 0.977 1_455 S
H325 N312 0.987 . S
C326 C327 1.363 . S
C326 C332 1.379 1_565 S
C326 N334 1.356 . S
C327 C326 1.363 . S
C327 C333 1.363 . S
C328 C329 1.371 . S
C328 C333 1.364 1_545 S
C328 N335 1.366 . S
C329 C328 1.371 . S
C329 C332 1.363 . S
N330 C332 1.356 . S
N330 H342 0.984 . S
N330 H343 0.985 . S
N331 C333 1.356 . S
N331 H336 0.984 . S
N331 H337 0.985 . S
C332 C326 1.379 1_545 S
C332 C329 1.363 . S
C332 N330 1.356 . S
C333 C327 1.363 . S
C333 C328 1.364 1_565 S
C333 N331 1.356 . S
N334 C326 1.356 . S
N334 H340 0.984 . S
N334 H341 0.984 . S
N335 C328 1.366 . S
N335 H338 0.984 . S
N335 H339 0.985 . S
H336 N331 0.984 . S
H337 N331 0.985 . S
H338 N335 0.984 . S
H339 N335 0.985 . S
H340 N334 0.984 . S
H341 N334 0.984 . S
H342 N330 0.984 . S
H343 N330 0.985 . S
C344 C345 1.363 . S
C344 C350 1.379 . S
C344 N352 1.356 . S
C345 C344 1.363 . S
C345 C351 1.363 . S
C346 C347 1.363 . S
C346 C351 1.379 . S
C346 N353 1.356 . S
C347 C346 1.363 . S
C347 C350 1.363 . S
N348 C350 1.356 . S
N348 H360 0.984 . S
N348 H361 0.985 . S
N349 C351 1.356 . S
N349 H354 0.984 . S
N349 H355 0.985 . S
C350 C344 1.379 . S
C350 C347 1.363 . S
C350 N348 1.356 . S
C351 C345 1.363 . S
C351 C346 1.379 . S
C351 N349 1.356 . S
N352 C344 1.356 . S
N352 H358 0.984 . S
N352 H359 0.984 . S
N353 C346 1.356 . S
N353 H356 0.984 . S
N353 H357 0.985 . S
H354 N349 0.984 . S
H355 N349 0.985 . S
H356 N353 0.984 . S
H357 N353 0.985 . S
H358 N352 0.984 . S
H359 N352 0.984 . S
H360 N348 0.984 . S
H361 N348 0.985 . S
C362 C363 1.363 . S
C362 C368 1.379 . S
C362 N370 1.356 . S
C363 C362 1.363 . S
C363 C369 1.363 1_655 S
C364 C365 1.363 1_455 S
C364 C369 1.379 . S
C364 N371 1.356 . S
C365 C364 1.363 1_655 S
C365 C368 1.363 . S
N366 C368 1.356 . S
N366 H378 0.984 . S
N366 H379 0.985 . S
N367 C369 1.356 . S
N367 H372 0.984 . S
N367 H373 0.985 . S
C368 C362 1.379 . S
C368 C365 1.363 . S
C368 N366 1.356 . S
C369 C363 1.363 1_455 S
C369 C364 1.379 . S
C369 N367 1.356 . S
N370 C362 1.356 . S
N370 H376 0.984 . S
N370 H377 0.984 . S
N371 C364 1.356 . S
N371 H374 0.984 . S
N371 H375 0.985 . S
H372 N367 0.984 . S
H373 N367 0.985 . S
H374 N371 0.984 . S
H375 N371 0.985 . S
H376 N370 0.984 . S
H377 N370 0.984 . S
H378 N366 0.984 . S
H379 N366 0.985 . S
C380 C381 1.363 . S
C380 C386 1.379 . S
C380 N388 1.356 . S
C381 C380 1.363 . S
C381 C387 1.363 . S
C382 C383 1.363 . S
C382 C387 1.379 . S
C382 N389 1.356 . S
C383 C382 1.363 . S
C383 C386 1.363 . S
N384 C386 1.356 . S
N384 H396 0.984 . S
N384 H397 0.985 . S
N385 C387 1.356 . S
N385 H390 0.984 . S
N385 H391 0.985 . S
C386 C380 1.379 . S
C386 C383 1.363 . S
C386 N384 1.356 . S
C387 C381 1.363 . S
C387 C382 1.379 . S
C387 N385 1.356 . S
N388 C380 1.356 . S
N388 H394 0.984 . S
N388 H395 0.984 . S
N389 C382 1.356 . S
N389 H392 0.984 . S
N389 H393 0.985 . S
H390 N385 0.984 . S
H391 N385 0.985 . S
H392 N389 0.984 . S
H393 N389 0.985 . S
H394 N388 0.984 . S
H395 N388 0.984 . S
H396 N384 0.984 . S
H397 N384 0.985 . S
C398 C399 1.363 1_655 S
C398 C404 1.379 . S
C398 N406 1.356 . S
C399 C398 1.363 1_455 S
C399 C405 1.363 . S
C400 C401 1.363 . S
C400 C405 1.379 . S
C400 N407 1.356 . S
C401 C400 1.363 . S
C401 C404 1.363 1_455 S
N402 C404 1.356 . S
N402 H414 0.984 . S
N402 H415 0.985 . S
N403 C405 1.356 . S
N403 H408 0.984 . S
N403 H409 0.985 . S
C404 C398 1.379 . S
C404 C401 1.363 1_655 S
C404 N402 1.356 . S
C405 C399 1.363 . S
C405 C400 1.379 . S
C405 N403 1.356 . S
N406 C398 1.356 . S
N406 H412 0.984 . S
N406 H413 0.984 . S
N407 C400 1.356 . S
N407 H410 0.984 . S
N407 H411 0.985 . S
H408 N403 0.984 . S
H409 N403 0.985 . S
H410 N407 0.984 . S
H411 N407 0.985 . S
H412 N406 0.984 . S
H413 N406 0.984 . S
H414 N402 0.984 . S
H415 N402 0.985 . S
C416 C417 1.363 1_655 S
C416 C422 1.379 1_554 S
C416 N424 1.356 . S
C417 C416 1.363 1_455 S
C417 C423 1.363 . S
C418 C419 1.363 1_455 S
C418 C423 1.379 1_556 S
C418 N425 1.356 . S
C419 C418 1.363 1_655 S
C419 C422 1.363 . S
N420 C422 1.356 . S
N420 H432 0.984 . S
N420 H433 0.985 . S
N421 C423 1.356 . S
N421 H426 0.984 . S
N421 H427 0.985 . S
C422 C416 1.379 1_556 S
C422 C419 1.363 . S
C422 N420 1.356 . S
C423 C417 1.363 . S
C423 C418 1.379 1_554 S
C423 N421 1.356 . S
N424 C416 1.356 . S
N424 H430 0.984 . S
N424 H431 0.984 . S
N425 C418 1.356 . S
N425 H428 0.984 . S
N425 H429 0.985 . S
H426 N421 0.984 . S
H427 N421 0.985 . S
H428 N425 0.984 . S
H429 N425 0.985 . S
H430 N424 0.984 . S
H431 N424 0.984 . S
H432 N420 0.984 . S
H433 N420 0.985 . S
C434 C435 1.363 . S
C434 C440 1.379 1_554 S
C434 N442 1.356 . S
C435 C434 1.363 . S
C435 C441 1.363 . S
C436 C437 1.363 . S
C436 C441 1.379 1_556 S
C436 N443 1.356 . S
C437 C436 1.363 . S
C437 C440 1.363 . S
N438 C440 1.356 . S
N438 H450 0.984 1_556 S
N438 H451 0.985 . S
N439 C441 1.356 . S
N439 H444 0.984 . S
N439 H445 0.985 1_554 S
C440 C434 1.379 1_556 S
C440 C437 1.363 . S
C440 N438 1.356 . S
C441 C435 1.363 . S
C441 C436 1.379 1_554 S
C441 N439 1.356 . S
N442 C434 1.356 . S
N442 H448 0.984 . S
N442 H449 0.984 . S
N443 C436 1.356 . S
N443 H446 0.984 . S
N443 H447 0.985 . S
H444 N439 0.984 . S
H445 N439 0.985 1_556 S
H446 N443 0.984 . S
H447 N443 0.985 . S
H448 N442 0.984 . S
H449 N442 0.984 . S
H450 N438 0.984 1_554 S
H451 N438 0.985 . S
C452 C453 1.363 1_565 S
C452 C458 1.379 . S
C452 N460 1.356 . S
C453 C452 1.363 1_545 S
C453 C459 1.363 . S
C454 C455 1.363 1_545 S
C454 C459 1.379 . S
C454 N461 1.356 . S
C455 C454 1.363 1_565 S
C455 C458 1.363 . S
N456 C458 1.356 . S
N456 H468 0.984 . S
N456 H469 0.985 . S
N457 C459 1.356 . S
N457 H462 0.984 . S
N457 H463 0.985 . S
C458 C452 1.379 . S
C458 C455 1.363 . S
C458 N456 1.356 . S
C459 C453 1.363 . S
C459 C454 1.379 . S
C459 N457 1.356 . S
N460 C452 1.356 . S
N460 H466 0.984 . S
N460 H467 0.989 . S
N461 C454 1.356 . S
N461 H464 0.989 . S
N461 H465 0.985 . S
H462 N457 0.984 . S
H463 N457 0.985 . S
H464 N461 0.989 . S
H465 N461 0.985 . S
H466 N460 0.984 . S
H467 N460 0.989 . S
H468 N456 0.984 . S
H469 N456 0.985 . S
C470 C471 1.363 . S
C470 C476 1.379 1_565 S
C470 N478 1.356 . S
C471 C470 1.363 . S
C471 C477 1.363 1_655 S
C472 C473 1.363 . S
C472 C477 1.379 1_545 S
C472 N479 1.356 . S
C473 C472 1.363 . S
C473 C476 1.363 1_455 S
N474 C476 1.356 . S
N474 H486 0.984 . S
N474 H487 0.985 . S
N475 C477 1.356 . S
N475 H480 0.984 . S
N475 H481 0.985 . S
C476 C470 1.379 1_545 S
C476 C473 1.363 1_655 S
C476 N474 1.356 . S
C477 C471 1.363 1_455 S
C477 C472 1.379 1_565 S
C477 N475 1.356 . S
N478 C470 1.356 . S
N478 H484 0.984 . S
N478 H485 0.984 . S
N479 C472 1.356 . S
N479 H482 0.984 . S
N479 H483 0.985 . S
H480 N475 0.984 . S
H481 N475 0.985 . S
H482 N479 0.984 . S
H483 N479 0.985 . S
H484 N478 0.984 . S
H485 N478 0.984 . S
H486 N474 0.984 . S
H487 N474 0.985 . S
C488 C489 1.363 . S
C488 C494 1.379 . S
C488 N496 1.356 . S
C489 C488 1.363 . S
C489 C495 1.363 1_554 S
C490 C491 1.363 . S
C490 C495 1.379 . S
C490 N497 1.356 . S
C491 C490 1.363 . S
C491 C494 1.363 1_556 S
N492 C494 1.356 . S
N492 H504 0.984 . S
N492 H505 0.985 . S
N493 C495 1.356 . S
N493 H498 0.984 . S
N493 H499 0.985 . S
C494 C488 1.379 . S
C494 C491 1.363 1_554 S
C494 N492 1.356 . S
C495 C489 1.363 1_556 S
C495 C490 1.379 . S
C495 N493 1.356 . S
N496 C488 1.356 . S
N496 H502 0.984 . S
N496 H503 0.984 . S
N497 C490 1.356 . S
N497 H500 0.984 . S
N497 H501 0.985 . S
H498 N493 0.984 . S
H499 N493 0.985 . S
H500 N497 0.984 . S
H501 N497 0.985 . S
H502 N496 0.984 . S
H503 N496 0.984 . S
H504 N492 0.984 . S
H505 N492 0.985 . S
C506 C507 1.363 . S
C506 C512 1.379 . S
C506 N514 1.356 . S
C507 C506 1.363 . S
C507 C513 1.363 1_554 S
C508 C509 1.363 . S
C508 C513 1.379 . S
C508 N515 1.356 . S
C509 C508 1.363 . S
C509 C512 1.363 1_556 S
N510 C512 1.356 . S
N510 H522 0.984 . S
N510 H523 0.985 . S
N511 C513 1.356 . S
N511 H516 0.984 . S
N511 H517 0.985 . S
C512 C506 1.379 . S
C512 C509 1.363 1_554 S
C512 N510 1.356 . S
C513 C507 1.363 1_556 S
C513 C508 1.379 . S
C513 N511 1.356 . S
N514 C506 1.356 . S
N514 H520 0.984 . S
N514 H521 0.984 . S
N515 C508 1.356 . S
N515 H518 0.984 . S
N515 H519 0.985 . S
H516 N511 0.984 . S
H517 N511 0.985 . S
H518 N515 0.984 . S
H519 N515 0.985 . S
H520 N514 0.984 . S
H521 N514 0.984 . S
H522 N510 0.984 . S
H523 N510 0.985 . S
C524 C525 1.363 . S
C524 C530 1.379 . S
C524 N532 1.356 . S
C525 C524 1.363 . S
C525 C531 1.363 . S
C526 C527 1.363 . S
C526 C531 1.379 . S
C526 N533 1.356 . S
C527 C526 1.363 . S
C527 C530 1.363 . S
N528 C530 1.356 . S
N528 H540 0.984 . S
N528 H541 0.985 . S
N529 C531 1.356 . S
N529 H534 0.984 . S
N529 H535 0.985 . S
C530 C524 1.379 . S
C530 C527 1.363 . S
C530 N528 1.356 . S
C531 C525 1.363 . S
C531 C526 1.379 . S
C531 N529 1.356 . S
N532 C524 1.356 . S
N532 H538 0.984 . S
N532 H539 0.984 . S
N533 C526 1.356 . S
N533 H536 0.984 . S
N533 H537 0.985 . S
H534 N529 0.984 . S
H535 N529 0.985 . S
H536 N533 0.984 . S
H537 N533 0.985 . S
H538 N532 0.984 . S
H539 N532 0.984 . S
H540 N528 0.984 . S
H541 N528 0.985 . S
C542 C543 1.363 . S
C542 C548 1.379 . S
C542 N550 1.356 . S
C543 C542 1.363 . S
C543 C549 1.363 . S
C544 C545 1.363 . S
C544 C549 1.379 . S
C544 N551 1.356 . S
C545 C544 1.363 . S
C545 C548 1.363 . S
N546 C548 1.356 . S
N546 H558 0.984 . S
N546 H559 0.985 . S
N547 C549 1.356 . S
N547 H552 0.984 . S
N547 H553 0.985 . S
C548 C542 1.379 . S
C548 C545 1.363 . S
C548 N546 1.356 . S
C549 C543 1.363 . S
C549 C544 1.379 . S
C549 N547 1.356 . S
N550 C542 1.356 . S
N550 H556 0.984 . S
N550 H557 0.984 . S
N551 C544 1.356 . S
N551 H554 0.984 . S
N551 H555 0.985 . S
H552 N547 0.984 . S
H553 N547 0.985 . S
H554 N551 0.984 . S
H555 N551 0.985 . S
H556 N550 0.984 . S
H557 N550 0.984 . S
H558 N546 0.984 . S
H559 N546 0.985 . S
C560 C561 1.363 . S
C560 C566 1.379 . S
C560 N568 1.356 . S
C561 C560 1.363 . S
C561 C567 1.363 . S
C562 C563 1.363 . S
C562 C567 1.379 . S
C562 N569 1.356 . S
C563 C562 1.363 . S
C563 C566 1.363 . S
N564 C566 1.356 . S
N564 H576 0.984 . S
N564 H577 0.985 . S
N565 C567 1.356 . S
N565 H570 0.984 . S
N565 H571 0.985 . S
C566 C560 1.379 . S
C566 C563 1.363 . S
C566 N564 1.356 . S
C567 C561 1.363 . S
C567 C562 1.379 . S
C567 N565 1.356 . S
N568 C560 1.356 . S
N568 H574 0.984 . S
N568 H575 0.984 . S
N569 C562 1.356 . S
N569 H572 0.984 . S
N569 H573 0.985 . S
H570 N565 0.984 . S
H571 N565 0.985 . S
H572 N569 0.984 . S
H573 N569 0.985 . S
H574 N568 0.984 . S
H575 N568 0.984 . S
H576 N564 0.984 . S
H577 N564 0.985 . S
C578 C579 1.363 . S
C578 C584 1.379 . S
C578 N586 1.356 . S
C579 C578 1.363 . S
C579 C585 1.363 . S
C580 C581 1.363 . S
C580 C585 1.379 . S
C580 N587 1.356 . S
C581 C580 1.363 . S
C581 C584 1.363 . S
N582 C584 1.356 . S
N582 H594 0.984 . S
N582 H595 0.985 . S
N583 C585 1.356 . S
N583 H588 0.984 . S
N583 H589 0.985 . S
C584 C578 1.379 . S
C584 C581 1.363 . S
C584 N582 1.356 . S
C585 C579 1.363 . S
C585 C580 1.379 . S
C585 N583 1.356 . S
N586 C578 1.356 . S
N586 H592 0.984 . S
N586 H593 0.984 . S
N587 C580 1.356 . S
N587 H590 0.984 . S
N587 H591 0.985 . S
H588 N583 0.984 . S
H589 N583 0.985 . S
H590 N587 0.984 . S
H591 N587 0.985 . S
H592 N586 0.984 . S
H593 N586 0.984 . S
H594 N582 0.984 . S
H595 N582 0.985 . S
C596 C597 1.363 . S
C596 C602 1.379 . S
C596 N604 1.356 . S
C597 C596 1.363 . S
C597 C603 1.363 . S
C598 C599 1.363 . S
C598 C603 1.379 . S
C598 N605 1.356 . S
C599 C598 1.363 . S
C599 C602 1.363 . S
N600 C602 1.356 . S
N600 H612 0.984 . S
N600 H613 0.985 . S
N601 C603 1.356 . S
N601 H606 0.984 . S
N601 H607 0.985 . S
C602 C596 1.379 . S
C602 C599 1.363 . S
C602 N600 1.356 . S
C603 C597 1.363 . S
C603 C598 1.379 . S
C603 N601 1.356 . S
N604 C596 1.356 . S
N604 H610 0.984 . S
N604 H611 0.984 . S
N605 C598 1.356 . S
N605 H608 0.984 . S
N605 H609 0.985 . S
H606 N601 0.984 . S
H607 N601 0.985 . S
H608 N605 0.984 . S
H609 N605 0.985 . S
H610 N604 0.984 . S
H611 N604 0.984 . S
H612 N600 0.984 . S
H613 N600 0.985 . S
C614 C615 1.363 . S
C614 C620 1.379 . S
C614 N622 1.356 . S
C615 C614 1.363 . S
C615 C621 1.363 . S
C616 C617 1.363 . S
C616 C621 1.379 . S
C616 N623 1.356 . S
C617 C616 1.363 . S
C617 C620 1.363 . S
N618 C620 1.356 . S
N618 H630 0.984 . S
N618 H631 0.985 . S
N619 C621 1.356 . S
N619 H624 0.984 . S
N619 H625 0.985 . S
C620 C614 1.379 . S
C620 C617 1.363 . S
C620 N618 1.356 . S
C621 C615 1.363 . S
C621 C616 1.379 . S
C621 N619 1.356 . S
N622 C614 1.356 . S
N622 H628 0.984 . S
N622 H629 0.984 . S
N623 C616 1.356 . S
N623 H626 0.984 . S
N623 H627 0.985 . S
H624 N619 0.984 . S
H625 N619 0.985 . S
H626 N623 0.984 . S
H627 N623 0.985 . S
H628 N622 0.984 . S
H629 N622 0.984 . S
H630 N618 0.984 . S
H631 N618 0.985 . S
C632 C633 1.363 . S
C632 C638 1.379 . S
C632 N640 1.356 . S
C633 C632 1.363 . S
C633 C639 1.363 1_455 S
C634 C635 1.363 1_655 S
C634 C639 1.379 . S
C634 N641 1.356 1_556 S
C635 C634 1.363 1_455 S
C635 C638 1.363 . S
N636 C638 1.356 . S
N636 H648 0.984 . S
N636 H649 0.985 1_556 S
N637 C639 1.356 . S
N637 H642 0.984 . S
N637 H643 0.985 . S
C638 C632 1.379 . S
C638 C635 1.363 . S
C638 N636 1.356 . S
C639 C633 1.363 1_655 S
C639 C634 1.379 . S
C639 N637 1.356 . S
N640 C632 1.356 . S
N640 H646 0.984 . S
N640 H647 0.984 . S
N641 C634 1.356 1_554 S
N641 H644 0.984 . S
N641 H645 0.985 1_554 S
H642 N637 0.984 . S
H643 N637 0.985 . S
H644 N641 0.984 . S
H645 N641 0.985 1_556 S
H646 N640 0.984 . S
H647 N640 0.984 . S
H648 N636 0.984 . S
H649 N636 0.985 1_554 S
C650 C651 1.363 . S
C650 C656 1.379 . S
C650 N658 1.356 . S
C651 C650 1.363 . S
C651 C657 1.363 . S
C652 C653 1.363 . S
C652 C657 1.379 . S
C652 N659 1.356 1_554 S
C653 C652 1.363 . S
C653 C656 1.363 . S
N654 C656 1.356 . S
N654 H666 0.984 . S
N654 H667 0.985 1_554 S
N655 C657 1.356 . S
N655 H660 0.984 . S
N655 H661 0.985 . S
C656 C650 1.379 . S
C656 C653 1.363 . S
C656 N654 1.356 . S
C657 C651 1.363 . S
C657 C652 1.379 . S
C657 N655 1.356 . S
N658 C650 1.356 . S
N658 H664 0.984 . S
N658 H665 0.984 . S
N659 C652 1.356 1_556 S
N659 H662 0.984 . S
N659 H663 0.985 . S
H660 N655 0.984 . S
H661 N655 0.985 . S
H662 N659 0.984 . S
H663 N659 0.985 . S
H664 N658 0.984 . S
H665 N658 0.984 . S
H666 N654 0.984 . S
H667 N654 0.985 1_556 S
C668 C669 1.363 1_455 S
C668 C674 1.379 . S
C668 N676 1.356 . S
C669 C668 1.363 1_655 S
C669 C675 1.363 . S
C670 C671 1.363 . S
C670 C675 1.379 . S
C670 N677 1.356 . S
C671 C670 1.363 . S
C671 C674 1.363 1_655 S
N672 C674 1.356 . S
N672 H684 0.984 . S
N672 H685 0.985 . S
N673 C675 1.356 . S
N673 H678 0.984 1_554 S
N673 H679 0.985 . S
C674 C668 1.379 . S
C674 C671 1.363 1_455 S
C674 N672 1.356 . S
C675 C669 1.363 . S
C675 C670 1.379 . S
C675 N673 1.356 . S
N676 C668 1.356 . S
N676 H682 0.984 . S
N676 H683 0.984 1_554 S
N677 C670 1.356 . S
N677 H680 0.984 . S
N677 H681 0.985 . S
H678 N673 0.984 1_556 S
H679 N673 0.985 . S
H680 N677 0.984 . S
H681 N677 0.985 . S
H682 N676 0.984 . S
H683 N676 0.984 1_556 S
H684 N672 0.984 . S
H685 N672 0.985 . S
C686 C687 1.363 . S
C686 C692 1.379 . S
C686 N694 1.356 . S
C687 C686 1.363 . S
C687 C693 1.363 . S
C688 C689 1.363 . S
C688 C693 1.379 . S
C688 N695 1.356 . S
C689 C688 1.363 . S
C689 C692 1.363 . S
N690 C692 1.356 . S
N690 H702 0.984 . S
N690 H703 0.985 . S
N691 C693 1.356 . S
N691 H696 0.984 1_556 S
N691 H697 0.985 . S
C692 C686 1.379 . S
C692 C689 1.363 . S
C692 N690 1.356 . S
C693 C687 1.363 . S
C693 C688 1.379 . S
C693 N691 1.356 . S
N694 C686 1.356 . S
N694 H700 0.984 . S
N694 H701 0.984 1_556 S
N695 C688 1.356 . S
N695 H698 0.984 . S
N695 H699 0.985 . S
H696 N691 0.984 1_554 S
H697 N691 0.985 . S
H698 N695 0.984 . S
H699 N695 0.985 . S
H700 N694 0.984 . S
H701 N694 0.984 1_554 S
H702 N690 0.984 . S
H703 N690 0.985 . S
C704 C705 1.363 . S
C704 C710 1.379 . S
C704 N712 1.356 . S
C705 C704 1.363 . S
C705 C711 1.363 . S
C706 C707 1.363 . S
C706 C711 1.379 . S
C706 N713 1.356 . S
C707 C706 1.363 . S
C707 C710 1.363 . S
N708 C710 1.356 . S
N708 H720 0.984 . S
N708 H721 0.985 . S
N709 C711 1.356 . S
N709 H714 0.984 . S
N709 H715 0.985 . S
C710 C704 1.379 . S
C710 C707 1.363 . S
C710 N708 1.356 . S
C711 C705 1.363 . S
C711 C706 1.379 . S
C711 N709 1.356 . S
N712 C704 1.356 . S
N712 H718 0.984 . S
N712 H719 0.984 . S
N713 C706 1.356 . S
N713 H716 0.984 . S
N713 H717 0.985 . S
H714 N709 0.984 . S
H715 N709 0.985 . S
H716 N713 0.984 . S
H717 N713 0.985 . S
H718 N712 0.984 . S
H719 N712 0.984 . S
H720 N708 0.984 . S
H721 N708 0.985 . S
C722 C723 1.363 . S
C722 C728 1.379 . S
C722 N730 1.356 . S
C723 C722 1.363 . S
C723 C729 1.363 1_655 S
C724 C725 1.363 1_455 S
C724 C729 1.379 . S
C724 N731 1.356 . S
C725 C724 1.363 1_655 S
C725 C728 1.363 . S
N726 C728 1.356 . S
N726 H738 0.984 . S
N726 H739 0.985 . S
N727 C729 1.356 . S
N727 H732 0.984 . S
N727 H733 0.985 . S
C728 C722 1.379 . S
C728 C725 1.363 . S
C728 N726 1.356 . S
C729 C723 1.363 1_455 S
C729 C724 1.379 . S
C729 N727 1.356 . S
N730 C722 1.356 . S
N730 H736 0.984 . S
N730 H737 0.984 . S
N731 C724 1.356 . S
N731 H734 0.984 . S
N731 H735 0.985 . S
H732 N727 0.984 . S
H733 N727 0.985 . S
H734 N731 0.984 . S
H735 N731 0.985 . S
H736 N730 0.984 . S
H737 N730 0.984 . S
H738 N726 0.984 . S
H739 N726 0.985 . S
C740 C741 1.363 . S
C740 C746 1.379 . S
C740 N748 1.356 . S
C741 C740 1.363 . S
C741 C747 1.363 . S
C742 C743 1.363 . S
C742 C747 1.379 . S
C742 N749 1.356 . S
C743 C742 1.363 . S
C743 C746 1.363 . S
N744 C746 1.356 . S
N744 H756 0.984 . S
N744 H757 0.985 . S
N745 C747 1.356 . S
N745 H750 0.984 . S
N745 H751 0.985 . S
C746 C740 1.379 . S
C746 C743 1.363 . S
C746 N744 1.356 . S
C747 C741 1.363 . S
C747 C742 1.379 . S
C747 N745 1.356 . S
N748 C740 1.356 . S
N748 H754 0.984 . S
N748 H755 0.984 . S
N749 C742 1.356 . S
N749 H752 0.984 . S
N749 H753 0.985 . S
H750 N745 0.984 . S
H751 N745 0.985 . S
H752 N749 0.984 . S
H753 N749 0.985 . S
H754 N748 0.984 . S
H755 N748 0.984 . S
H756 N744 0.984 . S
H757 N744 0.985 . S
C758 C759 1.363 . S
C758 C764 1.379 . S
C758 N766 1.356 1_455 S
C759 C758 1.363 . S
C759 C765 1.363 . S
C760 C761 1.363 . S
C760 C765 1.379 . S
C760 N767 1.356 . S
C761 C760 1.363 . S
C761 C764 1.363 . S
N762 C764 1.356 1_655 S
N762 H774 0.984 . S
N762 H775 0.985 . S
N763 C765 1.356 . S
N763 H768 0.984 . S
N763 H769 0.985 . S
C764 C758 1.379 . S
C764 C761 1.363 . S
C764 N762 1.356 1_455 S
C765 C759 1.363 . S
C765 C760 1.379 . S
C765 N763 1.356 . S
N766 C758 1.356 1_655 S
N766 H772 0.984 . S
N766 H773 0.987 . S
N767 C760 1.356 . S
N767 H770 0.984 . S
N767 H771 0.985 . S
H768 N763 0.984 . S
H769 N763 0.985 . S
H770 N767 0.984 . S
H771 N767 0.985 . S
H772 N766 0.984 . S
H773 N766 0.987 . S
H774 N762 0.984 . S
H775 N762 0.985 . S
C273 C171 1.903 . S
C275 C6 1.953 . S
C291 C139 1.903 . S
C293 C40 1.953 . S
C309 C239 1.903 . S
C311 C96 1.953 . S
C327 C130 1.953 . S
C329 C205 1.903 . S
C345 C142 1.953 . S
C347 C37 1.903 . S
C363 C3 1.903 . S
C365 C198 1.953 . S
C381 C232 1.953 . S
C383 C103 1.903 . S
C399 C266 1.953 . S
C401 C69 1.903 . S
C417 C28 0.404 . S
C419 C74 0.404 . S
C435 C108 0.404 . S
C437 C62 0.404 . S
C453 C210 0.404 . S
C455 C164 0.404 . S
C471 C176 0.404 . S
C473 C244 0.404 . S
C489 C15 1.982 . S
C491 C49 1.982 . S
C507 C124 1.982 . S
C509 C90 1.982 . S
C525 C151 1.982 . S
C527 C192 1.982 . S
C543 C260 1.982 . S
C545 C226 1.982 . S
C561 C219 1.250 . S
C563 C22 1.250 . S
C579 C56 1.250 . S
C581 C253 1.250 . S
C597 C83 1.250 . S
C599 C158 1.250 . S
C615 C117 1.250 . S
C617 C185 1.250 . S
C633 C241 1.819 . S
C635 C17 1.896 1_556 S
C651 C207 1.819 . S
C653 C51 1.896 1_554 S
C669 C85 1.896 1_554 S
C671 C173 1.819 . S
C687 C119 1.896 1_556 S
C689 C137 1.819 . S
C705 C153 1.896 . S
C707 C105 1.819 . S
C723 C71 1.819 . S
C725 C187 1.896 . S
C741 C35 1.819 . S
C743 C221 1.896 . S
C759 C1 1.819 . S
C761 C255 1.896 . S
