# Generated by pormake.
# Topology pem, (4)-cn, num edge types: 1
# Building blocks:
#     Node 0, Type 0, BuildingBlock: QUQFOY_clean_sbu_3, # of connection points: 4
#     Node 1, Type 0, BuildingBlock: QUQFOY_clean_sbu_3, # of connection points: 4
#     Node 2, Type 0, BuildingBlock: QUQFOY_clean_sbu_3, # of connection points: 4
#     Node 3, Type 0, BuildingBlock: QUQFOY_clean_sbu_3, # of connection points: 4
#     Node 4, Type 0, BuildingBlock: QUQFOY_clean_sbu_3, # of connection points: 4
#     Node 5, Type 0, BuildingBlock: QUQFOY_clean_sbu_3, # of connection points: 4
#     Node 6, Type 0, BuildingBlock: QUQFOY_clean_sbu_3, # of connection points: 4
#     Node 7, Type 0, BuildingBlock: QUQFOY_clean_sbu_3, # of connection points: 4
#     Node 8, Type 0, BuildingBlock: QUQFOY_clean_sbu_3, # of connection points: 4
#     Node 9, Type 0, BuildingBlock: QUQFOY_clean_sbu_3, # of connection points: 4
#     Node 10, Type 0, BuildingBlock: QUQFOY_clean_sbu_3, # of connection points: 4
#     Node 11, Type 0, BuildingBlock: QUQFOY_clean_sbu_3, # of connection points: 4
#     Node 12, Type 0, BuildingBlock: QUQFOY_clean_sbu_3, # of connection points: 4
#     Node 13, Type 0, BuildingBlock: QUQFOY_clean_sbu_3, # of connection points: 4
#     Node 14, Type 0, BuildingBlock: QUQFOY_clean_sbu_3, # of connection points: 4
#     Node 15, Type 0, BuildingBlock: QUQFOY_clean_sbu_3, # of connection points: 4
#     Node 16, Type 0, BuildingBlock: QUQFOY_clean_sbu_3, # of connection points: 4
#     Node 17, Type 0, BuildingBlock: QUQFOY_clean_sbu_3, # of connection points: 4
#     Node 18, Type 0, BuildingBlock: QUQFOY_clean_sbu_3, # of connection points: 4
#     Node 19, Type 0, BuildingBlock: QUQFOY_clean_sbu_3, # of connection points: 4
#     Node 20, Type 0, BuildingBlock: QUQFOY_clean_sbu_3, # of connection points: 4
#     Node 21, Type 0, BuildingBlock: QUQFOY_clean_sbu_3, # of connection points: 4
#     Node 22, Type 0, BuildingBlock: QUQFOY_clean_sbu_3, # of connection points: 4
#     Node 23, Type 0, BuildingBlock: QUQFOY_clean_sbu_3, # of connection points: 4
#     Node 24, Type 0, BuildingBlock: QUQFOY_clean_sbu_3, # of connection points: 4
#     Node 25, Type 0, BuildingBlock: QUQFOY_clean_sbu_3, # of connection points: 4
#     Node 26, Type 0, BuildingBlock: QUQFOY_clean_sbu_3, # of connection points: 4
#     Node 27, Type 0, BuildingBlock: QUQFOY_clean_sbu_3, # of connection points: 4
#     Node 28, Type 0, BuildingBlock: QUQFOY_clean_sbu_3, # of connection points: 4
#     Node 29, Type 0, BuildingBlock: QUQFOY_clean_sbu_3, # of connection points: 4
#     Node 30, Type 0, BuildingBlock: QUQFOY_clean_sbu_3, # of connection points: 4
#     Node 31, Type 0, BuildingBlock: QUQFOY_clean_sbu_3, # of connection points: 4
#     Edge 32, Type (0, 0), BuildingBlock: MIFKUJ_clean_linker_0, # of connection points: 2
#     Edge 33, Type (0, 0), BuildingBlock: MIFKUJ_clean_linker_0, # of connection points: 2
#     Edge 34, Type (0, 0), BuildingBlock: MIFKUJ_clean_linker_0, # of connection points: 2
#     Edge 35, Type (0, 0), BuildingBlock: MIFKUJ_clean_linker_0, # of connection points: 2
#     Edge 36, Type (0, 0), BuildingBlock: MIFKUJ_clean_linker_0, # of connection points: 2
#     Edge 37, Type (0, 0), BuildingBlock: MIFKUJ_clean_linker_0, # of connection points: 2
#     Edge 38, Type (0, 0), BuildingBlock: MIFKUJ_clean_linker_0, # of connection points: 2
#     Edge 39, Type (0, 0), BuildingBlock: MIFKUJ_clean_linker_0, # of connection points: 2
#     Edge 40, Type (0, 0), BuildingBlock: MIFKUJ_clean_linker_0, # of connection points: 2
#     Edge 41, Type (0, 0), BuildingBlock: MIFKUJ_clean_linker_0, # of connection points: 2
#     Edge 42, Type (0, 0), BuildingBlock: MIFKUJ_clean_linker_0, # of connection points: 2
#     Edge 43, Type (0, 0), BuildingBlock: MIFKUJ_clean_linker_0, # of connection points: 2
#     Edge 44, Type (0, 0), BuildingBlock: MIFKUJ_clean_linker_0, # of connection points: 2
#     Edge 45, Type (0, 0), BuildingBlock: MIFKUJ_clean_linker_0, # of connection points: 2
#     Edge 46, Type (0, 0), BuildingBlock: MIFKUJ_clean_linker_0, # of connection points: 2
#     Edge 47, Type (0, 0), BuildingBlock: MIFKUJ_clean_linker_0, # of connection points: 2
#     Edge 48, Type (0, 0), BuildingBlock: MIFKUJ_clean_linker_0, # of connection points: 2
#     Edge 49, Type (0, 0), BuildingBlock: MIFKUJ_clean_linker_0, # of connection points: 2
#     Edge 50, Type (0, 0), BuildingBlock: MIFKUJ_clean_linker_0, # of connection points: 2
#     Edge 51, Type (0, 0), BuildingBlock: MIFKUJ_clean_linker_0, # of connection points: 2
#     Edge 52, Type (0, 0), BuildingBlock: MIFKUJ_clean_linker_0, # of connection points: 2
#     Edge 53, Type (0, 0), BuildingBlock: MIFKUJ_clean_linker_0, # of connection points: 2
#     Edge 54, Type (0, 0), BuildingBlock: MIFKUJ_clean_linker_0, # of connection points: 2
#     Edge 55, Type (0, 0), BuildingBlock: MIFKUJ_clean_linker_0, # of connection points: 2
#     Edge 56, Type (0, 0), BuildingBlock: MIFKUJ_clean_linker_0, # of connection points: 2
#     Edge 57, Type (0, 0), BuildingBlock: MIFKUJ_clean_linker_0, # of connection points: 2
#     Edge 58, Type (0, 0), BuildingBlock: MIFKUJ_clean_linker_0, # of connection points: 2
#     Edge 59, Type (0, 0), BuildingBlock: MIFKUJ_clean_linker_0, # of connection points: 2
#     Edge 60, Type (0, 0), BuildingBlock: MIFKUJ_clean_linker_0, # of connection points: 2
#     Edge 61, Type (0, 0), BuildingBlock: MIFKUJ_clean_linker_0, # of connection points: 2
#     Edge 62, Type (0, 0), BuildingBlock: MIFKUJ_clean_linker_0, # of connection points: 2
#     Edge 63, Type (0, 0), BuildingBlock: MIFKUJ_clean_linker_0, # of connection points: 2
#     Edge 64, Type (0, 0), BuildingBlock: MIFKUJ_clean_linker_0, # of connection points: 2
#     Edge 65, Type (0, 0), BuildingBlock: MIFKUJ_clean_linker_0, # of connection points: 2
#     Edge 66, Type (0, 0), BuildingBlock: MIFKUJ_clean_linker_0, # of connection points: 2
#     Edge 67, Type (0, 0), BuildingBlock: MIFKUJ_clean_linker_0, # of connection points: 2
#     Edge 68, Type (0, 0), BuildingBlock: MIFKUJ_clean_linker_0, # of connection points: 2
#     Edge 69, Type (0, 0), BuildingBlock: MIFKUJ_clean_linker_0, # of connection points: 2
#     Edge 70, Type (0, 0), BuildingBlock: MIFKUJ_clean_linker_0, # of connection points: 2
#     Edge 71, Type (0, 0), BuildingBlock: MIFKUJ_clean_linker_0, # of connection points: 2
#     Edge 72, Type (0, 0), BuildingBlock: MIFKUJ_clean_linker_0, # of connection points: 2
#     Edge 73, Type (0, 0), BuildingBlock: MIFKUJ_clean_linker_0, # of connection points: 2
#     Edge 74, Type (0, 0), BuildingBlock: MIFKUJ_clean_linker_0, # of connection points: 2
#     Edge 75, Type (0, 0), BuildingBlock: MIFKUJ_clean_linker_0, # of connection points: 2
#     Edge 76, Type (0, 0), BuildingBlock: MIFKUJ_clean_linker_0, # of connection points: 2
#     Edge 77, Type (0, 0), BuildingBlock: MIFKUJ_clean_linker_0, # of connection points: 2
#     Edge 78, Type (0, 0), BuildingBlock: MIFKUJ_clean_linker_0, # of connection points: 2
#     Edge 79, Type (0, 0), BuildingBlock: MIFKUJ_clean_linker_0, # of connection points: 2
#     Edge 80, Type (0, 0), BuildingBlock: MIFKUJ_clean_linker_0, # of connection points: 2
#     Edge 81, Type (0, 0), BuildingBlock: MIFKUJ_clean_linker_0, # of connection points: 2
#     Edge 82, Type (0, 0), BuildingBlock: MIFKUJ_clean_linker_0, # of connection points: 2
#     Edge 83, Type (0, 0), BuildingBlock: MIFKUJ_clean_linker_0, # of connection points: 2
#     Edge 84, Type (0, 0), BuildingBlock: MIFKUJ_clean_linker_0, # of connection points: 2
#     Edge 85, Type (0, 0), BuildingBlock: MIFKUJ_clean_linker_0, # of connection points: 2
#     Edge 86, Type (0, 0), BuildingBlock: MIFKUJ_clean_linker_0, # of connection points: 2
#     Edge 87, Type (0, 0), BuildingBlock: MIFKUJ_clean_linker_0, # of connection points: 2
#     Edge 88, Type (0, 0), BuildingBlock: MIFKUJ_clean_linker_0, # of connection points: 2
#     Edge 89, Type (0, 0), BuildingBlock: MIFKUJ_clean_linker_0, # of connection points: 2
#     Edge 90, Type (0, 0), BuildingBlock: MIFKUJ_clean_linker_0, # of connection points: 2
#     Edge 91, Type (0, 0), BuildingBlock: MIFKUJ_clean_linker_0, # of connection points: 2
#     Edge 92, Type (0, 0), BuildingBlock: MIFKUJ_clean_linker_0, # of connection points: 2
#     Edge 93, Type (0, 0), BuildingBlock: MIFKUJ_clean_linker_0, # of connection points: 2
#     Edge 94, Type (0, 0), BuildingBlock: MIFKUJ_clean_linker_0, # of connection points: 2
#     Edge 95, Type (0, 0), BuildingBlock: MIFKUJ_clean_linker_0, # of connection points: 2
# Relax obj value: 0.223
# Max RMSD: 0.159
# Mean RMSD: 0.155
data_MOF--net-pem--node1-QUQFOY_clean_sbu_3--edge1-MIFKUJ_clean_linker_0
_symmetry_space_group_name_H-M    P1
_symmetry_Int_Tables_number       1
_symmetry_cell_setting            triclinic
loop_
_symmetry_equiv_pos_as_xyz
'x, y, z'
_cell_length_a     65.213008
_cell_length_b     53.300857
_cell_length_c     53.013019
_cell_angle_alpha  90.391998
_cell_angle_beta   90.315217
_cell_angle_gamma 90.377276
loop_
_atom_site_label
_atom_site_type_symbol
_atom_site_fract_x
_atom_site_fract_y
_atom_site_fract_z
_atom_type_partial_charge
C0 C 0.09344 0.11867 0.03204 0.0
O1 O 0.09099 0.0973 0.02178 0.0
Cd2 Cd 0.0692 0.06443 0.0341 0.0
O3 O 0.08267 0.12591 0.05061 0.0
Cd4 Cd 0.05222 0.10851 0.07153 0.0
C5 C 0.08211 0.06338 0.09752 0.0
O6 O 0.03764 0.08443 0.03859 0.0
O7 O 0.02784 0.07451 0.07616 0.0
O8 O 0.03376 0.14499 0.05662 0.0
C9 C 0.02556 0.07216 0.05252 0.0
O10 O 0.08157 0.05319 0.07572 0.0
C11 C 0.02286 0.1468 0.07625 0.0
O12 O 0.07354 0.08458 0.10165 0.0
O13 O 0.02776 0.13337 0.09513 0.0
C14 C 0.09545 0.80136 0.35079 0.0
O15 O 0.10102 0.79437 0.32898 0.0
Cd16 Cd 0.1304 0.8067 0.30637 0.0
O17 O 0.10559 0.81751 0.36368 0.0
Cd18 Cd 0.13769 0.84206 0.35774 0.0
C19 C 0.12299 0.87142 0.30299 0.0
O20 O 0.1551 0.80976 0.33822 0.0
O21 O 0.16885 0.84636 0.33285 0.0
O22 O 0.15571 0.82294 0.39236 0.0
C23 C 0.1701 0.8227 0.33069 0.0
O24 O 0.12428 0.8494 0.29367 0.0
C25 C 0.15828 0.8429 0.40494 0.0
O26 O 0.12606 0.87531 0.32665 0.0
O27 O 0.14976 0.86276 0.39669 0.0
C28 C 0.34535 0.8892 0.56472 0.0
O29 O 0.35197 0.91062 0.55826 0.0
Cd30 Cd 0.38221 0.93115 0.56924 0.0
O31 O 0.35567 0.87504 0.57938 0.0
Cd32 Cd 0.3902 0.87878 0.60115 0.0
C33 C 0.37546 0.92924 0.63479 0.0
O34 O 0.40514 0.89822 0.56573 0.0
O35 O 0.42136 0.90499 0.6005 0.0
O36 O 0.39367 0.83641 0.5845 0.0
C37 C 0.42109 0.90616 0.57667 0.0
O38 O 0.37664 0.93955 0.61327 0.0
C39 C 0.41044 0.83201 0.5958 0.0
O40 O 0.3788 0.90573 0.63751 0.0
O41 O 0.41475 0.84639 0.61435 0.0
C42 C 0.3349 0.19963 0.85601 0.0
O43 O 0.32786 0.21006 0.83639 0.0
Cd44 Cd 0.30552 0.19049 0.80654 0.0
O45 O 0.32835 0.17825 0.86304 0.0
Cd46 Cd 0.29926 0.1509 0.85061 0.0
C47 C 0.32661 0.13049 0.80213 0.0
O48 O 0.27643 0.17773 0.82852 0.0
O49 O 0.27573 0.13852 0.81748 0.0
O50 O 0.28329 0.16368 0.88928 0.0
C51 C 0.26772 0.16006 0.81636 0.0
O52 O 0.32112 0.15129 0.79254 0.0
C53 C 0.27459 0.14273 0.89308 0.0
O54 O 0.32264 0.1251 0.82509 0.0
O55 O 0.27995 0.12423 0.87929 0.0
C56 C 0.0904 0.86804 0.43553 0.0
O57 O 0.08702 0.89058 0.44202 0.0
Cd58 Cd 0.06278 0.91987 0.43011 0.0
O59 O 0.07919 0.85675 0.41907 0.0
Cd60 Cd 0.04707 0.86842 0.39546 0.0
C61 C 0.06956 0.91773 0.36542 0.0
O62 O 0.03485 0.89298 0.42851 0.0
O63 O 0.01709 0.89596 0.39433 0.0
O64 O 0.02988 0.83217 0.41136 0.0
C65 C 0.01967 0.9022 0.4172 0.0
O66 O 0.07051 0.9285 0.38687 0.0
C67 C 0.021 0.82623 0.39082 0.0
O68 O 0.06231 0.89551 0.36256 0.0
O69 O 0.02661 0.83786 0.37107 0.0
C70 C 0.34156 0.79903 0.62091 0.0
O71 O 0.33629 0.79073 0.64228 0.0
Cd72 Cd 0.30684 0.79679 0.66584 0.0
O73 O 0.33003 0.8133 0.60779 0.0
Cd74 Cd 0.29559 0.83295 0.61412 0.0
C75 C 0.31323 0.86187 0.66744 0.0
O76 O 0.2825 0.79822 0.63419 0.0
O77 O 0.2652 0.83171 0.64107 0.0
O78 O 0.28428 0.81588 0.57388 0.0
C79 C 0.26718 0.80835 0.6443 0.0
O80 O 0.31211 0.84001 0.67686 0.0
C81 C 0.27132 0.8331 0.57004 0.0
O82 O 0.30933 0.86564 0.64401 0.0
O83 O 0.27252 0.85257 0.58408 0.0
C84 C 0.34201 0.09057 0.92752 0.0
O85 O 0.34866 0.06869 0.93168 0.0
Cd86 Cd 0.37678 0.04653 0.91814 0.0
O87 O 0.35145 0.10549 0.91243 0.0
Cd88 Cd 0.38458 0.09952 0.88594 0.0
C89 C 0.36508 0.04775 0.85446 0.0
O90 O 0.39988 0.07989 0.91985 0.0
O91 O 0.41419 0.07071 0.88475 0.0
O92 O 0.40121 0.13963 0.89883 0.0
C93 C 0.41482 0.07029 0.9086 0.0
O94 O 0.36722 0.03638 0.8753 0.0
C95 C 0.41221 0.14137 0.87922 0.0
O96 O 0.3695 0.07111 0.85229 0.0
O97 O 0.40748 0.12675 0.86099 0.0
C98 C 0.10077 0.179 0.13419 0.0
O99 O 0.10632 0.18397 0.15664 0.0
Cd100 Cd 0.13157 0.16576 0.18188 0.0
O101 O 0.10942 0.16147 0.12147 0.0
Cd102 Cd 0.14025 0.13293 0.13048 0.0
C103 C 0.11828 0.10286 0.1809 0.0
O104 O 0.1588 0.16328 0.15329 0.0
O105 O 0.16781 0.12536 0.16124 0.0
O106 O 0.16016 0.14744 0.09463 0.0
C107 C 0.17171 0.14859 0.16281 0.0
O108 O 0.1201 0.12373 0.19251 0.0
C109 C 0.16692 0.1262 0.08791 0.0
O110 O 0.12356 0.10044 0.15775 0.0
O111 O 0.15892 0.10717 0.09858 0.0
C112 C 0.58849 0.36506 0.93433 0.0
O113 O 0.58603 0.3881 0.93958 0.0
Cd114 Cd 0.56688 0.41965 0.92163 0.0
O115 O 0.57985 0.35455 0.91517 0.0
Cd116 Cd 0.55315 0.36859 0.88309 0.0
C117 C 0.58363 0.41638 0.8597 0.0
O118 O 0.53968 0.39264 0.91449 0.0
O119 O 0.52392 0.39826 0.87939 0.0
O120 O 0.53523 0.3309 0.89553 0.0
C121 C 0.5254 0.40305 0.90273 0.0
O122 O 0.58196 0.42712 0.88107 0.0
C123 C 0.52513 0.32802 0.8752 0.0
O124 O 0.57518 0.39506 0.85488 0.0
O125 O 0.53042 0.34168 0.85668 0.0
C126 C 0.84702 0.29 0.12147 0.0
O127 O 0.84414 0.28593 0.14475 0.0
Cd128 Cd 0.82043 0.30065 0.1742 0.0
O129 O 0.83596 0.30552 0.10926 0.0
Cd130 Cd 0.80462 0.33111 0.11963 0.0
C131 C 0.82546 0.36531 0.16988 0.0
O132 O 0.79173 0.30129 0.14836 0.0
O133 O 0.77287 0.33411 0.14521 0.0
O134 O 0.78787 0.31287 0.08187 0.0
C135 C 0.77642 0.31346 0.156 0.0
O136 O 0.82691 0.3444 0.18115 0.0
C137 C 0.78234 0.33367 0.07274 0.0
O138 O 0.8187 0.36668 0.14711 0.0
O139 O 0.7887 0.35338 0.08413 0.0
C140 C 0.84213 0.59268 0.437 0.0
O141 O 0.84877 0.5713 0.44337 0.0
Cd142 Cd 0.87709 0.54829 0.42996 0.0
O143 O 0.85076 0.60556 0.41966 0.0
Cd144 Cd 0.88113 0.59889 0.39088 0.0
C145 C 0.86262 0.54361 0.36704 0.0
O146 O 0.89956 0.58148 0.42428 0.0
O147 O 0.91416 0.57608 0.38859 0.0
O148 O 0.89096 0.64071 0.40162 0.0
C149 C 0.91474 0.57338 0.41228 0.0
O150 O 0.86758 0.53424 0.38822 0.0
C151 C 0.90099 0.6454 0.38179 0.0
O152 O 0.86402 0.5672 0.36279 0.0
O153 O 0.89868 0.63015 0.3634 0.0
C154 C 0.84799 0.67501 0.34265 0.0
O155 O 0.84199 0.6821 0.32107 0.0
Cd156 Cd 0.81423 0.66711 0.29708 0.0
O157 O 0.83889 0.6573 0.3542 0.0
Cd158 Cd 0.80794 0.63184 0.34446 0.0
C159 C 0.82575 0.60422 0.29163 0.0
O160 O 0.78806 0.66475 0.32735 0.0
O161 O 0.77716 0.62754 0.31814 0.0
O162 O 0.79563 0.64439 0.3855 0.0
C163 C 0.77382 0.65089 0.3189 0.0
O164 O 0.82334 0.6258 0.28199 0.0
C165 C 0.78638 0.62382 0.38931 0.0
O166 O 0.82244 0.60039 0.31504 0.0
O167 O 0.79089 0.60547 0.3749 0.0
C168 C 0.59456 0.2853 0.86492 0.0
O169 O 0.59353 0.28244 0.84118 0.0
Cd170 Cd 0.61439 0.29565 0.80797 0.0
O171 O 0.60883 0.29835 0.87536 0.0
Cd172 Cd 0.63886 0.32334 0.85752 0.0
C173 C 0.61138 0.35973 0.81496 0.0
O174 O 0.647 0.29369 0.82606 0.0
O175 O 0.66213 0.32986 0.82267 0.0
O176 O 0.66922 0.30731 0.87949 0.0
C177 C 0.65991 0.30746 0.81489 0.0
O178 O 0.60739 0.3396 0.80283 0.0
C179 C 0.67202 0.32612 0.8938 0.0
O180 O 0.62199 0.35962 0.83543 0.0
O181 O 0.65867 0.34346 0.8926 0.0
C182 C 0.85227 0.84157 0.95279 0.0
O183 O 0.86817 0.83876 0.96653 0.0
Cd184 Cd 0.90235 0.84724 0.95655 0.0
O185 O 0.85323 0.85048 0.93036 0.0
Cd186 Cd 0.87644 0.86829 0.89692 0.0
C187 C 0.90277 0.8246 0.89554 0.0
O188 O 0.8961 0.88341 0.93246 0.0
O189 O 0.91034 0.88868 0.89609 0.0
O190 O 0.86266 0.91017 0.892 0.0
C191 C 0.91107 0.89154 0.91986 0.0
O192 O 0.89724 0.83533 0.91535 0.0
C193 C 0.85749 0.90763 0.86909 0.0
O194 O 0.89313 0.83047 0.87565 0.0
O195 O 0.85946 0.88589 0.85935 0.0
C196 C 0.84004 0.19543 0.58706 0.0
O197 O 0.82616 0.21145 0.59127 0.0
Cd198 Cd 0.79688 0.20629 0.61742 0.0
O199 O 0.83853 0.173 0.59516 0.0
Cd200 Cd 0.81212 0.14829 0.6181 0.0
C201 C 0.76897 0.16123 0.58551 0.0
O202 O 0.80621 0.1793 0.65045 0.0
O203 O 0.78433 0.1489 0.64703 0.0
O204 O 0.83723 0.12994 0.64534 0.0
C205 C 0.7907 0.16792 0.65916 0.0
O206 O 0.771 0.18301 0.59517 0.0
C207 C 0.82954 0.10804 0.64487 0.0
O208 O 0.78312 0.14485 0.58766 0.0
O209 O 0.81576 0.10362 0.62831 0.0
C210 C 0.58886 0.1305 0.43365 0.0
O211 O 0.57401 0.13408 0.4486 0.0
Cd212 Cd 0.54022 0.11742 0.4454 0.0
O213 O 0.58638 0.11856 0.41282 0.0
Cd214 Cd 0.55695 0.09851 0.38871 0.0
C215 C 0.52155 0.14629 0.3922 0.0
O216 O 0.54507 0.07817 0.42586 0.0
O217 O 0.52636 0.0725 0.39245 0.0
O218 O 0.57958 0.06426 0.37706 0.0
C219 C 0.52975 0.06779 0.41542 0.0
O220 O 0.52166 0.14237 0.41583 0.0
C221 C 0.57438 0.06301 0.35402 0.0
O222 O 0.53363 0.13439 0.37742 0.0
O223 O 0.56249 0.08012 0.34609 0.0
C224 C 0.6018 0.79022 0.10794 0.0
O225 O 0.61657 0.77582 0.10252 0.0
Cd226 Cd 0.6511 0.78011 0.1156 0.0
O227 O 0.60456 0.81076 0.12008 0.0
Cd228 Cd 0.63313 0.8372 0.13773 0.0
C229 C 0.66676 0.83544 0.0878 0.0
O230 O 0.64779 0.80098 0.15421 0.0
O231 O 0.66549 0.83505 0.16068 0.0
O232 O 0.61927 0.84445 0.17929 0.0
C233 C 0.66356 0.81155 0.16344 0.0
O234 O 0.66652 0.81176 0.09048 0.0
C235 C 0.61558 0.86754 0.17676 0.0
O236 O 0.65578 0.8499 0.10157 0.0
O237 O 0.61907 0.87712 0.15521 0.0
C238 C 0.84053 0.11993 0.54854 0.0
O239 O 0.85561 0.12362 0.53398 0.0
Cd240 Cd 0.88908 0.10808 0.53674 0.0
O241 O 0.84299 0.10921 0.57001 0.0
Cd242 Cd 0.87431 0.09207 0.59492 0.0
C243 C 0.91073 0.13981 0.58713 0.0
O244 O 0.8834 0.07016 0.55786 0.0
O245 O 0.90633 0.07026 0.58715 0.0
O246 O 0.85438 0.05591 0.61103 0.0
C247 C 0.90038 0.06229 0.56582 0.0
O248 O 0.90945 0.13484 0.56369 0.0
C249 C 0.86291 0.05507 0.63255 0.0
O250 O 0.89906 0.12875 0.6031 0.0
O251 O 0.87504 0.07314 0.63792 0.0
C252 C 0.60214 0.18878 0.37753 0.0
O253 O 0.6179 0.2022 0.37347 0.0
Cd254 Cd 0.6474 0.19262 0.34987 0.0
O255 O 0.60117 0.16603 0.36953 0.0
Cd256 Cd 0.62588 0.13895 0.34381 0.0
C257 C 0.66828 0.14187 0.38092 0.0
O258 O 0.63434 0.17149 0.31423 0.0
O259 O 0.6564 0.14207 0.31781 0.0
O260 O 0.59925 0.12211 0.3146 0.0
C261 C 0.65023 0.16105 0.30586 0.0
O262 O 0.6696 0.16397 0.3721 0.0
C263 C 0.60788 0.10103 0.3118 0.0
O264 O 0.65222 0.12841 0.37697 0.0
O265 O 0.62261 0.09626 0.32675 0.0
C266 C 0.58315 0.8391 0.04256 0.0
O267 O 0.56873 0.83921 0.02637 0.0
Cd268 Cd 0.5369 0.85964 0.02796 0.0
O269 O 0.58112 0.84949 0.06428 0.0
Cd270 Cd 0.5538 0.87257 0.08861 0.0
C271 C 0.51495 0.82897 0.07814 0.0
O272 O 0.54583 0.89503 0.05202 0.0
O273 O 0.52537 0.90125 0.08314 0.0
O274 O 0.57903 0.90371 0.1036 0.0
C275 C 0.53056 0.90643 0.06082 0.0
O276 O 0.51602 0.83432 0.05486 0.0
C277 C 0.5715 0.90636 0.12546 0.0
O278 O 0.52713 0.8388 0.09459 0.0
O279 O 0.55744 0.89087 0.13152 0.0
C280 C 0.84294 0.79213 0.89029 0.0
O281 O 0.82931 0.77648 0.89681 0.0
Cd282 Cd 0.79581 0.77546 0.87979 0.0
O283 O 0.83841 0.8112 0.87681 0.0
Cd284 Cd 0.80642 0.83123 0.85825 0.0
C285 C 0.77109 0.82551 0.90614 0.0
O286 O 0.79851 0.79185 0.83853 0.0
O287 O 0.77506 0.82039 0.83819 0.0
O288 O 0.8275 0.84521 0.82196 0.0
C289 C 0.78153 0.79957 0.83012 0.0
O290 O 0.77372 0.80209 0.90335 0.0
C291 C 0.81718 0.86469 0.81723 0.0
O292 O 0.78192 0.84148 0.89395 0.0
O293 O 0.80347 0.87037 0.83319 0.0
C294 C 0.35216 0.61274 0.03143 0.0
O295 O 0.36665 0.61911 0.01688 0.0
Cd296 Cd 0.40137 0.60981 0.02388 0.0
O297 O 0.35558 0.60482 0.05384 0.0
Cd298 Cd 0.3859 0.59657 0.0829 0.0
C299 C 0.41785 0.64738 0.07355 0.0
O300 O 0.39654 0.57376 0.04825 0.0
O301 O 0.41808 0.57319 0.07911 0.0
O302 O 0.36416 0.56345 0.10047 0.0
C303 C 0.41271 0.56505 0.0576 0.0
O304 O 0.41799 0.64039 0.05058 0.0
C305 C 0.37326 0.56253 0.12161 0.0
O306 O 0.40635 0.63637 0.08964 0.0
O307 O 0.38635 0.57975 0.12617 0.0
C308 C 0.09591 0.67852 0.85881 0.0
O309 O 0.10769 0.69743 0.85682 0.0
Cd310 Cd 0.14204 0.70289 0.84552 0.0
O311 O 0.10153 0.65625 0.85406 0.0
Cd312 Cd 0.13269 0.63616 0.84077 0.0
C313 C 0.15919 0.66721 0.89287 0.0
O314 O 0.14407 0.66874 0.81796 0.0
O315 O 0.16629 0.63883 0.82108 0.0
O316 O 0.11326 0.62499 0.80373 0.0
C317 C 0.16187 0.66074 0.81357 0.0
O318 O 0.15908 0.68878 0.88279 0.0
C319 C 0.11537 0.60138 0.80512 0.0
O320 O 0.15051 0.64799 0.88213 0.0
O321 O 0.12493 0.59302 0.8245 0.0
C322 C 0.09909 0.35045 0.53523 0.0
O323 O 0.0856 0.35221 0.51801 0.0
Cd324 Cd 0.05325 0.37155 0.51858 0.0
O325 O 0.09544 0.35772 0.55786 0.0
Cd326 Cd 0.06404 0.37573 0.58021 0.0
C327 C 0.02577 0.33573 0.56135 0.0
O328 O 0.05714 0.4046 0.54715 0.0
O329 O 0.03273 0.39908 0.57379 0.0
O330 O 0.08341 0.40952 0.59956 0.0
C331 C 0.03964 0.41089 0.55502 0.0
O332 O 0.02933 0.34519 0.53985 0.0
C333 C 0.07549 0.4083 0.62128 0.0
O334 O 0.0375 0.34066 0.58029 0.0
O335 O 0.06411 0.38928 0.62551 0.0
C336 C 0.0967 0.28505 0.62206 0.0
O337 O 0.11203 0.27114 0.6262 0.0
Cd338 Cd 0.14537 0.28276 0.63794 0.0
O339 O 0.09815 0.30904 0.62401 0.0
Cd340 Cd 0.12708 0.33946 0.63823 0.0
C341 C 0.16018 0.32459 0.59136 0.0
O342 O 0.13909 0.31225 0.67011 0.0
O343 O 0.16129 0.3392 0.65775 0.0
O344 O 0.10421 0.36117 0.66773 0.0
C345 C 0.15631 0.3226 0.67352 0.0
O346 O 0.16147 0.30363 0.60259 0.0
C347 C 0.11385 0.3819 0.66732 0.0
O348 O 0.14789 0.34165 0.59894 0.0
O349 O 0.12746 0.38425 0.65043 0.0
C350 C 0.32996 0.69057 0.09746 0.0
O351 O 0.31508 0.70587 0.09786 0.0
Cd352 Cd 0.28412 0.70254 0.12189 0.0
O353 O 0.32897 0.66979 0.10921 0.0
Cd354 Cd 0.30484 0.64528 0.13536 0.0
C355 C 0.25932 0.64926 0.10037 0.0
O356 O 0.29488 0.68046 0.15766 0.0
O357 O 0.28041 0.64544 0.16879 0.0
O358 O 0.32924 0.63568 0.16843 0.0
C359 C 0.28196 0.66901 0.17119 0.0
O360 O 0.26057 0.67305 0.10243 0.0
C361 C 0.32901 0.61228 0.16418 0.0
O362 O 0.2733 0.63512 0.10956 0.0
O363 O 0.31877 0.6045 0.14505 0.0
C364 C 0.59259 0.61564 0.56855 0.0
O365 O 0.59221 0.59416 0.57843 0.0
Cd366 Cd 0.56747 0.56705 0.55834 0.0
O367 O 0.57613 0.62812 0.56819 0.0
Cd368 Cd 0.5458 0.61034 0.58857 0.0
C369 C 0.55969 0.55581 0.61649 0.0
O370 O 0.53739 0.58914 0.54977 0.0
O371 O 0.51856 0.58091 0.5822 0.0
O372 O 0.52658 0.64559 0.57581 0.0
C373 C 0.52199 0.57792 0.55891 0.0
O374 O 0.55748 0.54564 0.59491 0.0
C375 C 0.51713 0.6487 0.59637 0.0
O376 O 0.5602 0.57972 0.61932 0.0
O377 O 0.52305 0.63593 0.61525 0.0
C378 C 0.84975 0.36676 0.04284 0.0
O379 O 0.85705 0.38694 0.03392 0.0
Cd380 Cd 0.88636 0.41069 0.04316 0.0
O381 O 0.85933 0.35426 0.05971 0.0
Cd382 Cd 0.89308 0.36193 0.08255 0.0
C383 C 0.87355 0.41615 0.10664 0.0
O384 O 0.91131 0.38062 0.04952 0.0
O385 O 0.92155 0.39103 0.0868 0.0
O386 O 0.91022 0.32292 0.07267 0.0
C387 C 0.9242 0.39222 0.0632 0.0
O388 O 0.87681 0.42528 0.08484 0.0
C389 C 0.91818 0.32042 0.09442 0.0
O390 O 0.87703 0.39301 0.11137 0.0
O391 O 0.91152 0.33471 0.11187 0.0
C392 C 0.59041 0.66716 0.6232 0.0
O393 O 0.59276 0.67226 0.64648 0.0
Cd394 Cd 0.62012 0.66563 0.67461 0.0
O395 O 0.60385 0.65487 0.61083 0.0
Cd396 Cd 0.63756 0.63443 0.62137 0.0
C397 C 0.62162 0.60109 0.67516 0.0
O398 O 0.64716 0.66838 0.64632 0.0
O399 O 0.66774 0.63681 0.64815 0.0
O400 O 0.6567 0.65605 0.58885 0.0
C401 C 0.66363 0.65916 0.65455 0.0
O402 O 0.61823 0.6221 0.68579 0.0
C403 C 0.66326 0.6368 0.57744 0.0
O404 O 0.6279 0.59959 0.65223 0.0
O405 O 0.65636 0.61564 0.58491 0.0
C406 C 0.34608 0.34134 0.45129 0.0
O407 O 0.36106 0.34414 0.46646 0.0
Cd408 Cd 0.39403 0.36114 0.45952 0.0
O409 O 0.34787 0.347 0.42794 0.0
Cd410 Cd 0.37598 0.36655 0.401 0.0
C411 C 0.41492 0.3239 0.41294 0.0
O412 O 0.38636 0.39518 0.43327 0.0
O413 O 0.40651 0.39257 0.4013 0.0
O414 O 0.34929 0.39505 0.3854 0.0
C415 C 0.40199 0.40326 0.42186 0.0
O416 O 0.41455 0.3321 0.4355 0.0
C417 C 0.35675 0.39772 0.36356 0.0
O418 O 0.40213 0.33165 0.39626 0.0
O419 O 0.37158 0.38342 0.35779 0.0
C420 C 0.10064 0.61528 0.93867 0.0
O421 O 0.08877 0.61956 0.95715 0.0
Cd422 Cd 0.05278 0.60914 0.96042 0.0
O423 O 0.09367 0.6074 0.91753 0.0
Cd424 Cd 0.06057 0.59571 0.89693 0.0
C425 C 0.02572 0.64297 0.91662 0.0
O426 O 0.05081 0.57432 0.93321 0.0
O427 O 0.03096 0.56876 0.90078 0.0
O428 O 0.0836 0.56345 0.88334 0.0
C429 C 0.03434 0.5654 0.92403 0.0
O430 O 0.02962 0.63734 0.93942 0.0
C431 C 0.07713 0.56137 0.86087 0.0
O432 O 0.03543 0.63281 0.89808 0.0
O433 O 0.06359 0.57709 0.85379 0.0
C434 C 0.33794 0.28537 0.36238 0.0
O435 O 0.32192 0.27205 0.35923 0.0
Cd436 Cd 0.29111 0.28344 0.33914 0.0
O437 O 0.33821 0.30852 0.35614 0.0
Cd438 Cd 0.31351 0.33893 0.33658 0.0
C439 C 0.27363 0.33303 0.3764 0.0
O440 O 0.30256 0.30868 0.30616 0.0
O441 O 0.28252 0.34007 0.31092 0.0
O442 O 0.34312 0.35499 0.31218 0.0
C443 C 0.28671 0.32014 0.29906 0.0
O444 O 0.27207 0.31158 0.36583 0.0
C445 C 0.33463 0.3758 0.30764 0.0
O446 O 0.28926 0.34717 0.37253 0.0
O447 O 0.31806 0.38038 0.31917 0.0
H448 H 0.01744 0.06532 0.0031 0.0
H449 H -0.00343 0.03246 0.98396 0.0
H450 H -0.01866 0.00408 0.05767 0.0
H451 H 0.00261 0.03712 0.07726 0.0
H452 H -0.00372 0.96786 0.02296 0.0
H453 H 0.94421 0.02989 0.02733 0.0
H454 H 0.93076 0.07286 0.02383 0.0
H455 H 0.94274 0.07224 0.94428 0.0
H456 H 0.95647 0.02934 0.94733 0.0
H457 H 0.92144 0.88721 0.96886 0.0
H458 H 0.94245 0.91641 -0.00694 0.0
H459 H 0.95923 0.95477 0.92465 0.0
H460 H 0.93767 0.92557 0.90007 0.0
H461 H 0.94118 0.98531 0.9606 0.0
H462 H -0.00488 0.92414 0.95705 0.0
H463 H 0.00826 0.88102 0.96061 0.0
H464 H -0.00757 0.88007 0.03912 0.0
H465 H -0.02107 0.92308 0.03594 0.0
C466 C 0.00955 0.05223 0.01529 0.0
C467 C 0.0117 0.0535 0.04158 0.0
C468 C -0.00243 0.03362 0.00436 0.0
C469 C -0.01257 0.0162 0.01955 0.0
C470 C -0.01087 0.01759 0.04585 0.0
C471 C 0.00117 0.03637 0.0569 0.0
C472 C -0.02382 -0.00424 0.00727 0.0
C473 C -0.0161 0.97145 0.00972 0.0
C474 C 0.96044 0.00093 -0.01025 0.0
C475 C 0.9514 0.02637 0.98757 0.0
C476 C 0.94399 0.03892 0.00908 0.0
C477 C 0.93632 0.06327 0.00719 0.0
C478 C 0.9359 0.07527 0.98385 0.0
C479 C 0.94304 0.06289 0.96233 0.0
C480 C 0.95071 0.03851 0.96412 0.0
C481 C 0.93006 0.90139 0.95885 0.0
C482 C 0.92785 0.90447 0.93272 0.0
C483 C 0.94208 0.91798 0.9727 0.0
C484 C 0.95221 0.93762 0.96052 0.0
C485 C 0.95137 0.9396 0.93417 0.0
C486 C 0.93928 0.92289 0.92022 0.0
C487 C 0.96166 0.9575 0.97577 0.0
C488 C 0.95346 0.98166 0.97396 0.0
C489 C -0.02311 0.95215 -0.00606 0.0
C490 C -0.01406 0.92678 -0.00377 0.0
C491 C -0.00557 0.91472 0.97507 0.0
C492 C 0.00193 0.8903 0.97701 0.0
C493 C 0.00117 0.87781 7e-05 0.0
C494 C -0.00697 0.88978 0.02128 0.0
C495 C -0.0145 0.9142 0.01943 0.0
H496 H 0.00688 0.85885 0.00151 0.0
H497 H 0.93004 0.09417 0.98243 0.0
H498 H 0.258 0.70481 0.15156 0.0
H499 H 0.23385 0.731 0.1744 0.0
H500 H 0.24597 0.68929 0.2424 0.0
H501 H 0.27025 0.66274 0.21931 0.0
H502 H 0.20402 0.7039 0.23408 0.0
H503 H 0.27373 0.73803 0.23486 0.0
H504 H 0.30548 0.75183 0.21383 0.0
H505 H 0.27136 0.80563 0.17103 0.0
H506 H 0.23936 0.79193 0.19166 0.0
H507 H 0.18988 0.77969 0.33805 0.0
H508 H 0.20482 0.75351 0.30509 0.0
H509 H 0.19432 0.81208 0.25067 0.0
H510 H 0.17983 0.83868 0.28395 0.0
H511 H 0.23063 0.79086 0.24503 0.0
H512 H 0.16157 0.76152 0.25245 0.0
H513 H 0.12985 0.7453 0.27176 0.0
H514 H 0.16231 0.68097 0.2989 0.0
H515 H 0.19425 0.69694 0.28008 0.0
C516 C 0.25551 0.7013 0.17134 0.0
C517 C 0.26627 0.68267 0.18419 0.0
C518 C 0.24156 0.71593 0.18416 0.0
C519 C 0.2386 0.71206 0.20989 0.0
C520 C 0.24827 0.69227 0.2224 0.0
C521 C 0.26211 0.67741 0.20943 0.0
C522 C 0.22749 0.73054 0.22442 0.0
C523 C 0.2097 0.72293 0.2367 0.0
C524 C 0.23492 0.75536 0.22675 0.0
C525 C 0.25417 0.76382 0.2146 0.0
C526 C 0.273 0.75269 0.22085 0.0
C527 C 0.29103 0.76051 0.20903 0.0
C528 C 0.29043 0.77955 0.19106 0.0
C529 C 0.2718 0.79087 0.18493 0.0
C530 C 0.25372 0.78311 0.1967 0.0
C531 C 0.19143 0.78717 0.31918 0.0
C532 C 0.18406 0.81102 0.31326 0.0
C533 C 0.1995 0.77213 0.30038 0.0
C534 C 0.19984 0.7807 0.2755 0.0
C535 C 0.19378 0.80521 0.26984 0.0
C536 C 0.18591 0.82045 0.28879 0.0
C537 C 0.20729 0.76413 0.25567 0.0
C538 C 0.22449 0.77207 0.24217 0.0
C539 C 0.19933 0.73953 0.25241 0.0
C540 C 0.18036 0.73058 0.265 0.0
C541 C 0.16201 0.74411 0.26285 0.0
C542 C 0.14397 0.7349 0.27364 0.0
C543 C 0.14408 0.71216 0.28661 0.0
C544 C 0.16225 0.69861 0.2889 0.0
C545 C 0.18032 0.70773 0.27816 0.0
H546 H 0.13007 0.70499 0.2948 0.0
H547 H 0.3044 0.78558 0.18191 0.0
H548 H 0.44157 0.89573 0.53424 0.0
H549 H 0.45936 0.9259 0.50728 0.0
H550 H 0.44616 0.98524 0.56044 0.0
H551 H 0.42886 0.95482 0.58795 0.0
H552 H 0.43525 -0.00967 0.50222 0.0
H553 H 0.48883 0.97555 0.56379 0.0
H554 H 0.5096 0.94755 0.59033 0.0
H555 H 0.53269 0.91081 0.52407 0.0
H556 H 0.51171 0.93833 0.49714 0.0
H557 H 0.50537 0.08267 0.45336 0.0
H558 H 0.48451 0.05545 0.48043 0.0
H559 H 0.50369 -0.00925 0.4374 0.0
H560 H 0.524 0.0181 0.40981 0.0
H561 H 0.51087 -0.01035 0.49166 0.0
H562 H 0.45891 0.0039 0.42989 0.0
H563 H 0.43696 0.02911 0.40201 0.0
H564 H 0.4099 0.0647 0.46652 0.0
H565 H 0.43201 0.04002 0.49484 0.0
C566 C 0.44297 0.9151 0.54037 0.0
C567 C 0.43445 0.92312 0.56318 0.0
C568 C 0.45286 0.93223 0.52497 0.0
C569 C 0.45383 0.95755 0.53205 0.0
C570 C 0.44542 0.96564 0.55492 0.0
C571 C 0.43592 0.94835 0.57066 0.0
C572 C 0.46396 0.97533 0.51538 0.0
C573 C 0.4518 -0.00928 0.50017 0.0
C574 C 0.4854 0.97483 0.51243 0.0
C575 C 0.49859 0.95886 0.52847 0.0
C576 C 0.49824 0.9614 0.55489 0.0
C577 C 0.51006 0.94563 0.57 0.0
C578 C 0.52244 0.92738 0.55889 0.0
C579 C 0.52309 0.92495 0.53264 0.0
C580 C 0.51125 0.94065 0.51744 0.0
C581 C 0.50473 0.06268 0.44957 0.0
C582 C 0.51596 0.05215 0.42978 0.0
C583 C 0.49291 0.04728 0.46486 0.0
C584 C 0.4927 0.0213 0.46068 0.0
C585 C 0.50371 0.01085 0.44062 0.0
C586 C 0.51515 0.02633 0.42497 0.0
C587 C 0.48222 0.00491 0.47849 0.0
C588 C 0.49434 -0.01037 0.49386 0.0
C589 C 0.46073 0.00547 0.48143 0.0
C590 C 0.44735 0.02035 0.4645 0.0
C591 C 0.44847 0.01732 0.43815 0.0
C592 C 0.43596 0.03147 0.42226 0.0
C593 C 0.4221 0.04857 0.43249 0.0
C594 C 0.42069 0.05149 0.45864 0.0
C595 C 0.43321 0.03742 0.47462 0.0
H596 H 0.41241 0.0595 0.42015 0.0
H597 H 0.53154 0.91515 0.57063 0.0
H598 H 0.23234 0.18487 0.82082 0.0
H599 H 0.2136 0.2049 0.78646 0.0
H600 H 0.25456 0.17144 0.73228 0.0
H601 H 0.27298 0.15058 0.76678 0.0
H602 H 0.2527 0.22746 0.73657 0.0
H603 H 0.20991 0.15572 0.72233 0.0
H604 H 0.18901 0.11987 0.73657 0.0
H605 H 0.14678 0.17034 0.77202 0.0
H606 H 0.16758 0.2065 0.75831 0.0
H607 H 0.19382 0.30946 0.6567 0.0
H608 H 0.21468 0.27559 0.67389 0.0
H609 H 0.17394 0.27023 0.73767 0.0
H610 H 0.15258 0.30324 0.71985 0.0
H611 H 0.17839 0.22612 0.71612 0.0
H612 H 0.22291 0.29424 0.74276 0.0
H613 H 0.24378 0.33228 0.73578 0.0
H614 H 0.28237 0.29143 0.68481 0.0
H615 H 0.26151 0.25319 0.69123 0.0
C616 C 0.23671 0.18101 0.80148 0.0
C617 C 0.25377 0.16626 0.79609 0.0
C618 C 0.22611 0.19238 0.78197 0.0
C619 C 0.23282 0.18944 0.75705 0.0
C620 C 0.24919 0.17355 0.75148 0.0
C621 C 0.25953 0.16164 0.77103 0.0
C622 C 0.22449 0.20622 0.73797 0.0
C623 C 0.23662 0.22689 0.73119 0.0
C624 C 0.20345 0.20547 0.73193 0.0
C625 C 0.1903 0.18385 0.73919 0.0
C626 C 0.19616 0.15919 0.73314 0.0
C627 C 0.18434 0.1388 0.74115 0.0
C628 C 0.16656 0.14282 0.75516 0.0
C629 C 0.16052 0.16725 0.76109 0.0
C630 C 0.17229 0.18771 0.75313 0.0
C631 C 0.18984 0.30161 0.67484 0.0
C632 C 0.17183 0.30879 0.68721 0.0
C633 C 0.2016 0.28218 0.68449 0.0
C634 C 0.19564 0.27034 0.70685 0.0
C635 C 0.17854 0.27898 0.72018 0.0
C636 C 0.16657 0.29798 0.71028 0.0
C637 C 0.20638 0.24799 0.71581 0.0
C638 C 0.19466 0.22635 0.72053 0.0
C639 C 0.22769 0.24816 0.72066 0.0
C640 C 0.24052 0.27095 0.71723 0.0
C641 C 0.23578 0.29341 0.72995 0.0
C642 C 0.24761 0.315 0.72611 0.0
C643 C 0.26435 0.31429 0.7098 0.0
C644 C 0.26937 0.29195 0.6974 0.0
C645 C 0.25756 0.27031 0.70114 0.0
H646 H 0.27347 0.33104 0.70682 0.0
H647 H 0.15749 0.12701 0.76145 0.0
H648 H -0.01915 0.91746 0.40681 0.0
H649 H 0.96218 0.95081 0.42878 0.0
H650 H 0.01643 0.9682 0.47291 0.0
H651 H 0.03421 0.93386 0.45304 0.0
H652 H -0.01373 0.9614 0.50185 0.0
H653 H -0.00297 0.00785 0.42545 0.0
H654 H -0.00431 0.01388 0.37939 0.0
H655 H 0.93004 0.00733 0.38058 0.0
H656 H 0.93101 0.0009 0.4266 0.0
H657 H 0.942 0.06133 0.56837 0.0
H658 H 0.96498 0.04053 0.53864 0.0
H659 H 0.91271 0.01421 0.49534 0.0
H660 H 0.88975 0.03563 0.52442 0.0
H661 H 0.9438 0.02906 0.46524 0.0
H662 H 0.93402 0.97772 0.5402 0.0
H663 H 0.9353 0.96976 0.58598 0.0
H664 H 7e-05 0.98481 0.58676 0.0
H665 H -0.00089 -0.00683 0.54103 0.0
C666 C -0.01131 0.92865 0.42107 0.0
C667 C 0.00885 0.92323 0.4283 0.0
C668 C -0.02183 0.94776 0.43335 0.0
C669 C -0.01189 0.96204 0.45219 0.0
C670 C 0.00857 0.95733 0.45841 0.0
C671 C 0.01872 0.93775 0.44694 0.0
C672 C -0.02326 0.97992 0.46765 0.0
C673 C -0.02264 0.97656 0.49384 0.0
C674 C 0.96476 -0.00086 0.45703 0.0
C675 C 0.96411 0.00378 0.42946 0.0
C676 C -0.01769 0.00763 0.41588 0.0
C677 C -0.01838 0.01111 0.38977 0.0
C678 C 0.96279 0.01097 0.37706 0.0
C679 C 0.94461 0.00745 0.39045 0.0
C680 C 0.94522 0.00393 0.41655 0.0
C681 C 0.9355 0.05111 0.55247 0.0
C682 C 0.91424 0.04964 0.54868 0.0
C683 C 0.94856 0.03949 0.5355 0.0
C684 C 0.94037 0.02583 0.51509 0.0
C685 C 0.91918 0.02487 0.51098 0.0
C686 C 0.90615 0.03682 0.52767 0.0
C687 C 0.95364 0.01057 0.49924 0.0
C688 C 0.95318 0.01425 0.47309 0.0
C689 C 0.96589 -0.0084 0.50983 0.0
C690 C 0.96645 -0.01366 0.53728 0.0
C691 C 0.9485 0.97949 0.55018 0.0
C692 C 0.94917 0.97488 0.57611 0.0
C693 C 0.96774 0.97685 0.58928 0.0
C694 C -0.01431 0.98334 0.57654 0.0
C695 C -0.0149 -0.012 0.55063 0.0
H696 H 0.96823 0.97329 0.60935 0.0
H697 H 0.96229 0.0136 0.35684 0.0
H698 H 0.23532 0.82506 0.67331 0.0
H699 H 0.22068 0.80345 0.70996 0.0
H700 H 0.26398 0.74324 0.69993 0.0
H701 H 0.27747 0.76334 0.66299 0.0
H702 H 0.22597 0.72704 0.70124 0.0
H703 H 0.26847 0.78759 0.74872 0.0
H704 H 0.2789 0.83023 0.76224 0.0
H705 H 0.21776 0.84465 0.788 0.0
H706 H 0.20693 0.8022 0.77442 0.0
H707 H 0.20138 0.6504 0.80064 0.0
H708 H 0.22555 0.67962 0.78088 0.0
H709 H 0.18068 0.73863 0.78586 0.0
H710 H 0.15673 0.7101 0.80493 0.0
H711 H 0.22047 0.75661 0.78988 0.0
H712 H 0.17645 0.70253 0.73823 0.0
H713 H 0.16243 0.66186 0.7235 0.0
H714 H 0.22291 0.63774 0.70341 0.0
H715 H 0.23731 0.67818 0.7184 0.0
C716 C 0.2415 0.80712 0.67896 0.0
C717 C 0.25738 0.79576 0.66535 0.0
C718 C 0.23341 0.7951 0.69998 0.0
C719 C 0.24155 0.77205 0.70756 0.0
C720 C 0.25763 0.7611 0.69425 0.0
C721 C 0.26521 0.77258 0.67306 0.0
C722 C 0.23212 0.75739 0.72746 0.0
C723 C 0.22516 0.73335 0.72073 0.0
C724 C 0.23036 0.76623 0.75249 0.0
C725 C 0.23687 0.79182 0.76033 0.0
C726 C 0.25722 0.79994 0.75705 0.0
C727 C 0.26321 0.82405 0.76478 0.0
C728 C 0.24899 0.84016 0.7759 0.0
C729 C 0.22875 0.83218 0.77936 0.0
C730 C 0.2227 0.80809 0.77167 0.0
C731 C 0.19701 0.6698 0.79813 0.0
C732 C 0.17729 0.67803 0.80424 0.0
C733 C 0.2108 0.68641 0.78721 0.0
C734 C 0.20469 0.71106 0.7822 0.0
C735 C 0.18565 0.71974 0.79008 0.0
C736 C 0.17191 0.70324 0.80073 0.0
C737 C 0.21552 0.72599 0.76375 0.0
C738 C 0.22206 0.7502 0.77052 0.0
C739 C 0.21662 0.71759 0.73852 0.0
C740 C 0.20799 0.69317 0.72981 0.0
C741 C 0.18678 0.68843 0.73095 0.0
C742 C 0.17876 0.66546 0.72251 0.0
C743 C 0.19178 0.64718 0.71264 0.0
C744 C 0.21285 0.65187 0.71116 0.0
C745 C 0.22095 0.6748 0.71964 0.0
H746 H 0.18554 0.62942 0.70605 0.0
H747 H 0.25366 0.8588 0.78191 0.0
H748 H 0.44184 0.03588 0.88964 0.0
H749 H 0.46149 0.00542 0.91438 0.0
H750 H 0.43633 0.03618 0.98307 0.0
H751 H 0.41748 0.06681 0.95896 0.0
H752 H 0.47598 0.03047 0.98683 0.0
H753 H 0.41761 0.98282 0.95843 0.0
H754 H 0.39348 0.96417 0.92751 0.0
H755 H 0.44241 0.92176 0.89463 0.0
H756 H 0.46692 0.94045 0.92513 0.0
H757 H 0.49844 0.9355 0.07478 0.0
H758 H 0.4775 0.96164 0.04707 0.0
H759 H 0.51254 0.93695 0.9828 0.0
H760 H 0.53355 0.9109 0.01016 0.0
H761 H 0.46831 0.93832 0.97584 0.0
H762 H 0.52632 -0.0108 0.00636 0.0
H763 H 0.54818 0.00805 0.03966 0.0
H764 H 0.49567 0.04412 0.07187 0.0
H765 H 0.47348 0.02526 0.03888 0.0
C766 C 0.44081 0.03624 0.91002 0.0
C767 C 0.4282 0.0535 0.92248 0.0
C768 C 0.45179 0.01879 0.92401 0.0
C769 C 0.45004 0.0186 0.95036 0.0
C770 C 0.43778 0.03616 0.96271 0.0
C771 C 0.42705 0.0536 0.94889 0.0
C772 C 0.46129 0.00063 0.9656 0.0
C773 C 0.4742 0.01031 0.98453 0.0
C774 C 0.45887 0.97446 0.96233 0.0
C775 C 0.44418 0.96335 0.94382 0.0
C776 C 0.42329 0.96975 0.94442 0.0
C777 C 0.40952 0.95912 0.92701 0.0
C778 C 0.41643 0.94189 0.90903 0.0
C779 C 0.4371 0.93518 0.9085 0.0
C780 C 0.45093 0.94579 0.92584 0.0
C781 C 0.50154 0.93555 0.05472 0.0
C782 C 0.5176 0.92146 0.04451 0.0
C783 C 0.4896 0.95033 0.03903 0.0
C784 C 0.4937 0.95097 0.01315 0.0
C785 C 0.50928 0.93637 0.00281 0.0
C786 C 0.52129 0.92176 0.01846 0.0
C787 C 0.48275 0.96831 -0.00302 0.0
C788 C 0.47003 0.9585 0.97793 0.0
C789 C 0.4849 -0.00558 0.00044 0.0
C790 C 0.49824 0.00563 0.02033 0.0
C791 C 0.51942 0.00097 0.02068 0.0
C792 C 0.53188 0.0117 0.03946 0.0
C793 C 0.52331 0.02721 0.05791 0.0
C794 C 0.50228 0.03207 0.05759 0.0
C795 C 0.48977 0.02139 0.03885 0.0
H796 H 0.53298 0.03552 0.07242 0.0
H797 H 0.40575 0.93366 0.89559 0.0
H798 H 0.29053 0.29021 0.25847 0.0
H799 H 0.26501 0.25999 0.24267 0.0
H800 H 0.22191 0.2855 0.29859 0.0
H801 H 0.24719 0.31642 0.31397 0.0
H802 H 0.23738 0.22394 0.28622 0.0
H803 H 0.19978 0.29888 0.26031 0.0
H804 H 0.20037 0.34227 0.24441 0.0
H805 H 0.23059 0.31739 0.17706 0.0
H806 H 0.23048 0.27389 0.1928 0.0
H807 H 0.16701 0.14605 0.21297 0.0
H808 H 0.18232 0.17579 0.24321 0.0
H809 H 0.22127 0.2049 0.18444 0.0
H810 H 0.20538 0.17585 0.15413 0.0
H811 H 0.1994 0.24128 0.20688 0.0
H812 H 0.24119 0.17025 0.23226 0.0
H813 H 0.24443 0.12633 0.24602 0.0
H814 H 0.20936 0.1428 0.31237 0.0
H815 H 0.20575 0.18681 0.29881 0.0
C816 C 0.27542 0.28973 0.26687 0.0
C817 C 0.27048 0.30575 0.28689 0.0
C818 C 0.26106 0.2724 0.25816 0.0
C819 C 0.24188 0.27067 0.26978 0.0
C820 C 0.23675 0.28681 0.2896 0.0
C821 C 0.25099 0.30458 0.29799 0.0
C822 C 0.22727 0.25219 0.26012 0.0
C823 C 0.2284 0.22769 0.26939 0.0
C824 C 0.21615 0.2574 0.23798 0.0
C825 C 0.21514 0.28319 0.22774 0.0
C826 C 0.20656 0.30269 0.24212 0.0
C827 C 0.20682 0.32729 0.23315 0.0
C828 C 0.21551 0.33258 0.20973 0.0
C829 C 0.22384 0.31325 0.19517 0.0
C830 C 0.22364 0.28861 0.20408 0.0
C831 C 0.17952 0.15806 0.20699 0.0
C832 C 0.18552 0.15864 0.18168 0.0
C833 C 0.18802 0.17516 0.22407 0.0
C834 C 0.20271 0.19254 0.21584 0.0
C835 C 0.20979 0.19169 0.19093 0.0
C836 C 0.20106 0.17491 0.17382 0.0
C837 C 0.20992 0.21273 0.23255 0.0
C838 C 0.20748 0.23752 0.22439 0.0
C839 C 0.21994 0.2077 0.2556 0.0
C840 C 0.22313 0.18173 0.2645 0.0
C841 C 0.23421 0.16449 0.24981 0.0
C842 C 0.23609 0.13959 0.25755 0.0
C843 C 0.22709 0.13178 0.28005 0.0
C844 C 0.21634 0.1489 0.29496 0.0
C845 C 0.2144 0.17383 0.28729 0.0
H846 H 0.22846 0.11245 0.28594 0.0
H847 H 0.21579 0.35166 0.20287 0.0
H848 H 0.40203 0.54407 0.01325 0.0
H849 H 0.42237 0.51643 0.98727 0.0
H850 H 0.47152 0.51946 0.04217 0.0
H851 H 0.45107 0.54777 0.06868 0.0
H852 H 0.483 0.52882 -0.00832 0.0
H853 H 0.44659 0.46826 0.03903 0.0
H854 H 0.41637 0.44934 0.05933 0.0
H855 H 0.38803 0.43777 0.98685 0.0
H856 H 0.41795 0.45704 0.9661 0.0
H857 H 0.53514 0.42474 0.94711 0.0
H858 H 0.51574 0.45544 0.97024 0.0
H859 H 0.47004 0.45647 0.91104 0.0
H860 H 0.48994 0.4254 0.8869 0.0
H861 H 0.45691 0.44554 0.96312 0.0
H862 H 0.4961 0.5059 0.91646 0.0
H863 H 0.52783 0.52358 0.89856 0.0
H864 H 0.55293 0.53338 0.97305 0.0
H865 H 0.52152 0.51533 -0.00861 0.0
C866 C 0.41714 0.53887 0.01993 0.0
C867 C 0.42513 0.548 0.04285 0.0
C868 C 0.42862 0.52299 0.00515 0.0
C869 C 0.44814 0.5159 0.01318 0.0
C870 C 0.4563 0.52485 0.03604 0.0
C871 C 0.44471 0.54085 0.05102 0.0
C872 C 0.46008 0.49999 -0.00339 0.0
C873 C 0.47759 0.51042 0.98566 0.0
C874 C 0.45239 0.47642 0.98865 0.0
C875 C 0.43449 0.46429 0.001 0.0
C876 C 0.43387 0.46184 0.0274 0.0
C877 C 0.41679 0.45103 0.039 0.0
C878 C 0.40028 0.4424 0.02439 0.0
C879 C 0.40084 0.44447 -0.00186 0.0
C880 C 0.41787 0.45532 0.98645 0.0
C881 C 0.5212 0.43175 0.93858 0.0
C882 C 0.51401 0.42289 0.91513 0.0
C883 C 0.51022 0.44934 0.95184 0.0
C884 C 0.49182 0.45822 0.94198 0.0
C885 C 0.48449 0.44978 0.9185 0.0
C886 C 0.49576 0.43222 0.90486 0.0
C887 C 0.47968 0.47452 0.95791 0.0
C888 C 0.46219 0.46406 0.96894 0.0
C889 C 0.48762 0.49785 0.96628 0.0
C890 C 0.50644 0.50913 0.9553 0.0
C891 C 0.50843 0.51167 0.92903 0.0
C892 C 0.52636 0.52178 0.9188 0.0
C893 C 0.54239 0.52958 0.93465 0.0
C894 C 0.5405 0.52734 0.96078 0.0
C895 C 0.52262 0.5172 0.97111 0.0
H896 H 0.55627 0.53738 0.92669 0.0
H897 H 0.38705 0.43407 0.03341 0.0
H898 H 0.7912 0.28912 0.19705 0.0
H899 H 0.77141 0.26893 0.22985 0.0
H900 H 0.71558 0.29636 0.19585 0.0
H901 H 0.73583 0.32053 0.16599 0.0
H902 H 0.70799 0.28995 0.24022 0.0
H903 H 0.74326 0.23375 0.18027 0.0
H904 H 0.77383 0.21552 0.16003 0.0
H905 H 0.79765 0.19478 0.23258 0.0
H906 H 0.7673 0.21298 0.2532 0.0
H907 H 0.64049 0.19047 0.26634 0.0
H908 H 0.66355 0.21921 0.24423 0.0
H909 H 0.71414 0.19411 0.29037 0.0
H910 H 0.6914 0.16442 0.31137 0.0
H911 H 0.72587 0.19972 0.24444 0.0
H912 H 0.68699 0.25039 0.30296 0.0
H913 H 0.65496 0.26616 0.32171 0.0
H914 H 0.63645 0.29548 0.24991 0.0
H915 H 0.66825 0.27966 0.2307 0.0
C916 C 0.77476 0.29136 0.19693 0.0
C917 C 0.76485 0.30505 0.17799 0.0
C918 C 0.76342 0.27954 0.21554 0.0
C919 C 0.74195 0.27955 0.21422 0.0
C920 C 0.73214 0.29535 0.19685 0.0
C921 C 0.74365 0.30871 0.17935 0.0
C922 C 0.72974 0.26163 0.22919 0.0
C923 C 0.71185 0.27019 0.24095 0.0
C924 C 0.73497 0.23587 0.23076 0.0
C925 C 0.75315 0.22492 0.21825 0.0
C926 C 0.75507 0.22537 0.19187 0.0
C927 C 0.77234 0.21504 0.18034 0.0
C928 C 0.78769 0.20406 0.19501 0.0
C929 C 0.78577 0.20331 0.22124 0.0
C930 C 0.76854 0.21359 0.23284 0.0
C931 C 0.65663 0.19086 0.2713 0.0
C932 C 0.66432 0.17539 0.29032 0.0
C933 C 0.66968 0.20741 0.25898 0.0
C934 C 0.69036 0.20924 0.26626 0.0
C935 C 0.69818 0.19305 0.28464 0.0
C936 C 0.68525 0.17604 0.29648 0.0
C937 C 0.70395 0.22797 0.2547 0.0
C938 C 0.72212 0.21952 0.24377 0.0
C939 C 0.69882 0.25367 0.25364 0.0
C940 C 0.67996 0.26376 0.26539 0.0
C941 C 0.67607 0.26016 0.29118 0.0
C942 C 0.65795 0.2691 0.30188 0.0
C943 C 0.64368 0.2818 0.28701 0.0
C944 C 0.64753 0.28567 0.26142 0.0
C945 C 0.66561 0.27677 0.25063 0.0
H946 H 0.62964 0.28865 0.29531 0.0
H947 H 0.80106 0.1961 0.18607 0.0
H948 H 0.05062 0.43778 0.51414 0.0
H949 H 0.02846 0.46328 0.48769 0.0
H950 H -0.02333 0.44506 0.53465 0.0
H951 H -0.00122 0.41927 0.56134 0.0
H952 H 0.96818 0.4422 0.48254 0.0
H953 H -0.00536 0.49875 0.54331 0.0
H954 H 0.0208 0.51876 0.57064 0.0
H955 H 0.05254 0.54578 0.50537 0.0
H956 H 0.02669 0.52558 0.4776 0.0
H957 H 0.90977 0.55241 0.45809 0.0
H958 H 0.93107 0.52097 0.47791 0.0
H959 H -0.0277 0.52258 0.41461 0.0
H960 H 0.95038 0.55377 0.39374 0.0
H961 H -0.01419 0.53243 0.4731 0.0
H962 H 0.95263 0.4751 0.41326 0.0
H963 H 0.92244 0.45659 0.39179 0.0
H964 H 0.898 0.43371 0.46313 0.0
H965 H 0.92789 0.45247 0.48507 0.0
C966 C 0.03453 0.43921 0.51886 0.0
C967 C 0.02637 0.42676 0.53978 0.0
C968 C 0.02194 0.45368 0.50375 0.0
C969 C 0.0011 0.45593 0.50944 0.0
C970 C -0.00722 0.44332 0.5301 0.0
C971 C 0.00541 0.42886 0.54535 0.0
C972 C -0.01165 0.47239 0.49412 0.0
C973 C -0.0281 0.46195 0.4805 0.0
C974 C -0.00669 0.49807 0.49184 0.0
C975 C 0.00887 0.51042 0.50837 0.0
C976 C 0.00731 0.50877 0.53477 0.0
C977 C 0.02205 0.52018 0.55034 0.0
C978 C 0.03836 0.53347 0.53974 0.0
C979 C 0.03991 0.53544 0.51354 0.0
C980 C 0.02521 0.52403 0.49787 0.0
C981 C 0.92326 0.54603 0.44816 0.0
C982 C 0.92844 0.5554 0.42429 0.0
C983 C 0.93528 0.52798 0.45949 0.0
C984 C 0.95286 0.51943 0.44739 0.0
C985 C 0.95847 0.52895 0.42383 0.0
C986 C 0.9461 0.54672 0.4121 0.0
C987 C 0.96607 0.50211 0.46087 0.0
C988 C -0.01759 0.51254 0.47464 0.0
C989 C 0.96043 0.47671 0.46401 0.0
C990 C 0.94243 0.46543 0.45082 0.0
C991 C 0.94072 0.46638 0.42439 0.0
C992 C 0.92368 0.45578 0.41213 0.0
C993 C 0.90829 0.44404 0.42609 0.0
C994 C 0.90992 0.44284 0.45234 0.0
C995 C 0.92693 0.45343 0.46469 0.0
H996 H 0.89512 0.43582 0.41656 0.0
H997 H 0.04976 0.5423 0.55183 0.0
H998 H 0.75448 0.69353 0.33078 0.0
H999 H 0.73296 0.71815 0.30263 0.0
H1000 H 0.73532 0.65908 0.2466 0.0
H1001 H 0.75677 0.6341 0.27502 0.0
H1002 H 0.75037 0.70702 0.23112 0.0
H1003 H 0.69146 0.6705 0.26917 0.0
H1004 H 0.67034 0.6562 0.30475 0.0
H1005 H 0.66546 0.73205 0.33172 0.0
H1006 H 0.68688 0.74679 0.29652 0.0
H1007 H 0.67688 0.76569 0.15033 0.0
H1008 H 0.69693 0.73742 0.17671 0.0
H1009 H 0.70299 0.79547 0.23348 0.0
H1010 H 0.68336 0.82423 0.20667 0.0
H1011 H 0.68289 0.74641 0.24718 0.0
H1012 H 0.74315 0.78256 0.21093 0.0
H1013 H 0.76457 0.79729 0.17579 0.0
H1014 H 0.76699 0.72235 0.14579 0.0
H1015 H 0.74524 0.70721 0.18055 0.0
C1016 C 0.74982 0.68552 0.31278 0.0
C1017 C 0.75718 0.66218 0.3048 0.0
C1018 C 0.73758 0.6995 0.2968 0.0
C1019 C 0.73275 0.69029 0.27269 0.0
C1020 C 0.73898 0.66626 0.26527 0.0
C1021 C 0.75102 0.65204 0.28147 0.0
C1022 C 0.72339 0.70724 0.25452 0.0
C1023 C 0.73541 0.71526 0.23421 0.0
C1024 C 0.70425 0.7184 0.25938 0.0
C1025 C 0.6909 0.70974 0.28026 0.0
C1026 C 0.68599 0.68414 0.28276 0.0
C1027 C 0.67395 0.67594 0.30286 0.0
C1028 C 0.66659 0.6932 0.32051 0.0
C1029 C 0.67118 0.71871 0.31803 0.0
C1030 C 0.68325 0.727 0.29798 0.0
C1031 C 0.683 0.77256 0.16814 0.0
C1032 C 0.67871 0.79685 0.17675 0.0
C1033 C 0.69437 0.75651 0.18308 0.0
C1034 C 0.70117 0.76457 0.20686 0.0
C1035 C 0.69777 0.78922 0.21503 0.0
C1036 C 0.68677 0.80553 0.19977 0.0
C1037 C 0.70993 0.74623 0.22399 0.0
C1038 C 0.69777 0.73799 0.24402 0.0
C1039 C 0.72893 0.7349 0.21889 0.0
C1040 C 0.74237 0.74379 0.19821 0.0
C1041 C 0.74809 0.76924 0.19673 0.0
C1042 C 0.76032 0.77766 0.1769 0.0
C1043 C 0.76709 0.76077 0.15853 0.0
C1044 C 0.76171 0.73541 0.16002 0.0
C1045 C 0.74944 0.72689 0.1798 0.0
H1046 H 0.77654 0.76734 0.14316 0.0
H1047 H 0.6573 0.68681 0.33609 0.0
H1048 H 0.80015 0.20805 0.68887 0.0
H1049 H 0.77656 0.23125 0.71585 0.0
H1050 H 0.72837 0.17793 0.69838 0.0
H1051 H 0.75184 0.15442 0.67156 0.0
H1052 H 0.71886 0.22963 0.68915 0.0
H1053 H 0.74375 0.17598 0.75368 0.0
H1054 H 0.77064 0.15375 0.77733 0.0
H1055 H 0.79664 0.2242 0.80146 0.0
H1056 H 0.77004 0.24689 0.77762 0.0
H1057 H 0.64908 0.26921 0.78391 0.0
H1058 H 0.67146 0.24713 0.75461 0.0
H1059 H 0.71998 0.30056 0.77027 0.0
H1060 H 0.6975 0.32303 0.79957 0.0
H1061 H 0.72869 0.24806 0.78038 0.0
H1062 H 0.70585 0.30091 0.71125 0.0
H1063 H 0.67938 0.32255 0.68629 0.0
H1064 H 0.64847 0.25234 0.67253 0.0
H1065 H 0.67511 0.23022 0.69695 0.0
C1066 C 0.78463 0.20107 0.69113 0.0
C1067 C 0.77769 0.1797 0.67804 0.0
C1068 C 0.77125 0.21426 0.70648 0.0
C1069 C 0.75088 0.20618 0.70876 0.0
C1070 C 0.7441 0.18431 0.69657 0.0
C1071 C 0.75752 0.17094 0.68143 0.0
C1072 C 0.73642 0.22161 0.72273 0.0
C1073 C 0.72077 0.23342 0.70917 0.0
C1074 C 0.73936 0.22664 0.74863 0.0
C1075 C 0.75499 0.21314 0.76372 0.0
C1076 C 0.75526 0.18675 0.76394 0.0
C1077 C 0.77044 0.17406 0.77738 0.0
C1078 C 0.78536 0.18756 0.79086 0.0
C1079 C 0.78506 0.21378 0.79102 0.0
C1080 C 0.76991 0.22657 0.77757 0.0
C1081 C 0.66436 0.27656 0.78063 0.0
C1082 C 0.6718 0.29751 0.79402 0.0
C1083 C 0.67703 0.26405 0.76389 0.0
C1084 C 0.69723 0.27234 0.76058 0.0
C1085 C 0.70434 0.29412 0.77278 0.0
C1086 C 0.69154 0.30689 0.78931 0.0
C1087 C 0.71141 0.25645 0.74668 0.0
C1088 C 0.72688 0.24434 0.76034 0.0
C1089 C 0.70822 0.25096 0.72094 0.0
C1090 C 0.69237 0.26399 0.70593 0.0
C1091 C 0.69339 0.29013 0.70289 0.0
C1092 C 0.67839 0.30246 0.68882 0.0
C1093 C 0.66215 0.28886 0.67799 0.0
C1094 C 0.66105 0.26285 0.68094 0.0
C1095 C 0.67617 0.25038 0.69472 0.0
H1096 H 0.65047 0.29849 0.66726 0.0
H1097 H 0.79715 0.1777 0.80119 0.0
H1098 H 0.7448 0.81185 0.80981 0.0
H1099 H 0.72502 0.78743 0.77908 0.0
H1100 H 0.77138 0.72997 0.77956 0.0
H1101 H 0.79149 0.75437 0.81012 0.0
H1102 H 0.75769 0.74485 0.73116 0.0
H1103 H 0.73044 0.72119 0.81303 0.0
H1104 H 0.71569 0.73147 0.85457 0.0
H1105 H 0.66431 0.76643 0.81839 0.0
H1106 H 0.67892 0.75675 0.77665 0.0
H1107 H 0.70089 0.64619 0.6735 0.0
H1108 H 0.72154 0.67041 0.70386 0.0
H1109 H 0.67439 0.72681 0.70728 0.0
H1110 H 0.65368 0.70289 0.67726 0.0
H1111 H 0.68858 0.71269 0.75369 0.0
H1112 H 0.7135 0.73841 0.67354 0.0
H1113 H 0.72752 0.73336 0.63075 0.0
H1114 H 0.7819 0.70005 0.66145 0.0
H1115 H 0.76801 0.70442 0.70444 0.0
C1116 C 0.75075 0.79399 0.8034 0.0
C1117 C 0.76951 0.78476 0.81233 0.0
C1118 C 0.7395 0.78019 0.78592 0.0
C1119 C 0.74687 0.75705 0.77751 0.0
C1120 C 0.76567 0.7479 0.7861 0.0
C1121 C 0.77698 0.76171 0.80355 0.0
C1122 C 0.73468 0.74205 0.76004 0.0
C1123 C 0.74272 0.73738 0.73608 0.0
C1124 C 0.71496 0.7334 0.76661 0.0
C1125 C 0.70585 0.73839 0.79172 0.0
C1126 C 0.71604 0.73115 0.81394 0.0
C1127 C 0.70771 0.73688 0.83751 0.0
C1128 C 0.68911 0.74964 0.83907 0.0
C1129 C 0.67873 0.75656 0.81711 0.0
C1130 C 0.68701 0.75094 0.7935 0.0
C1131 C 0.69496 0.66369 0.68085 0.0
C1132 C 0.67585 0.67282 0.6731 0.0
C1133 C 0.70672 0.67744 0.698 0.0
C1134 C 0.69935 0.70026 0.70736 0.0
C1135 C 0.68014 0.70915 0.70004 0.0
C1136 C 0.66845 0.69554 0.68289 0.0
C1137 C 0.7117 0.71509 0.72485 0.0
C1138 C 0.70365 0.71987 0.7488 0.0
C1139 C 0.73124 0.72425 0.71808 0.0
C1140 C 0.73957 0.72138 0.69221 0.0
C1141 C 0.72833 0.72969 0.67117 0.0
C1142 C 0.73627 0.72701 0.64687 0.0
C1143 C 0.75555 0.71629 0.64337 0.0
C1144 C 0.76694 0.70827 0.66418 0.0
C1145 C 0.75903 0.71083 0.68852 0.0
H1146 H 0.76169 0.71428 0.62455 0.0
H1147 H 0.68273 0.75419 0.85726 0.0
H1148 H 0.39389 0.43298 0.46198 0.0
H1149 H 0.41774 0.4612 0.48384 0.0
H1150 H 0.4656 0.441 0.43175 0.0
H1151 H 0.44174 0.41271 0.40951 0.0
H1152 H 0.47569 0.44006 0.4865 0.0
H1153 H 0.44805 0.49322 0.42177 0.0
H1154 H 0.42078 0.51251 0.39614 0.0
H1155 H 0.39424 0.54434 0.46293 0.0
H1156 H 0.42119 0.52493 0.48901 0.0
H1157 H 0.53637 0.552 0.51848 0.0
H1158 H 0.51877 0.51786 0.49577 0.0
H1159 H 0.467 0.52477 0.54561 0.0
H1160 H 0.48458 0.55853 0.56874 0.0
H1161 H 0.46172 0.53148 0.48935 0.0
H1162 H 0.48748 0.4779 0.55439 0.0
H1163 H 0.51355 0.45823 0.58148 0.0
H1164 H 0.54253 0.42653 0.51622 0.0
H1165 H 0.51684 0.44646 0.48864 0.0
C1166 C 0.40948 0.4346 0.45516 0.0
C1167 C 0.41608 0.42082 0.43414 0.0
C1168 C 0.423 0.45063 0.46761 0.0
C1169 C 0.44321 0.45295 0.45919 0.0
C1170 C 0.44995 0.4392 0.43831 0.0
C1171 C 0.43634 0.4233 0.42564 0.0
C1172 C 0.45708 0.47017 0.47231 0.0
C1173 C 0.47304 0.46014 0.4868 0.0
C1174 C 0.45297 0.49609 0.47294 0.0
C1175 C 0.43657 0.5075 0.45734 0.0
C1176 C 0.43628 0.50412 0.43101 0.0
C1177 C 0.42091 0.51512 0.4164 0.0
C1178 C 0.40581 0.52964 0.42791 0.0
C1179 C 0.40597 0.53311 0.45405 0.0
C1180 C 0.4213 0.52214 0.46875 0.0
C1181 C 0.52125 0.54616 0.52457 0.0
C1182 C 0.51157 0.55795 0.545 0.0
C1183 C 0.51144 0.52655 0.51188 0.0
C1184 C 0.49187 0.51895 0.51941 0.0
C1185 C 0.48228 0.53045 0.53995 0.0
C1186 C 0.49219 0.54974 0.55289 0.0
C1187 C 0.48021 0.50141 0.50378 0.0
C1188 C 0.46465 0.51146 0.48879 0.0
C1189 C 0.48465 0.47557 0.5029 0.0
C1190 C 0.50045 0.46411 0.51939 0.0
C1191 C 0.49962 0.46713 0.54575 0.0
C1192 C 0.51428 0.45583 0.56122 0.0
C1193 C 0.52976 0.44126 0.55057 0.0
C1194 C 0.53059 0.43792 0.52443 0.0
C1195 C 0.51599 0.44923 0.50887 0.0
H1196 H 0.54105 0.43245 0.56258 0.0
H1197 H 0.39404 0.53832 0.41655 0.0
H1198 H 0.02646 0.57651 0.97285 0.0
H1199 H 0.00172 0.55552 8e-05 0.0
H1200 H -0.01649 0.50719 0.938 0.0
H1201 H 0.00742 0.52913 0.91039 0.0
H1202 H 0.95182 0.51659 0.96676 0.0
H1203 H 0.02139 0.48942 0.97803 0.0
H1204 H 0.05841 0.49447 0.98658 0.0
H1205 H 0.04529 0.52553 0.05965 0.0
H1206 H 0.00814 0.52088 0.05138 0.0
H1207 H 0.93564 0.39685 0.01471 0.0
H1208 H 0.94931 0.43444 -0.00525 0.0
H1209 H 0.95094 0.47246 0.06692 0.0
H1210 H 0.93744 0.43474 0.08717 0.0
H1211 H -0.01336 0.47578 0.03905 0.0
H1212 H 0.91411 0.48839 0.02573 0.0
H1213 H 0.87928 0.47548 0.01242 0.0
H1214 H 0.90068 0.46235 0.93706 0.0
H1215 H 0.93566 0.47489 0.94995 0.0
C1216 C 0.01696 0.56162 0.96504 0.0
C1217 C 0.01894 0.5539 0.93988 0.0
C1218 C 0.00281 0.54983 0.98047 0.0
C1219 C -0.00884 0.52966 0.97104 0.0
C1220 C -0.00762 0.52283 0.94551 0.0
C1221 C 0.00612 0.5351 0.92989 0.0
C1222 C -0.0202 0.51353 0.9883 0.0
C1223 C 0.9593 0.50773 0.98269 0.0
C1224 C -0.01024 0.50216 0.00899 0.0
C1225 C 0.01204 0.50516 0.01396 0.0
C1226 C 0.02642 0.49753 -0.00417 0.0
C1227 C 0.04741 0.50028 0.00063 0.0
C1228 C 0.0542 0.51042 0.0236 0.0
C1229 C 0.04 0.51776 0.04183 0.0
C1230 C 0.01899 0.51507 0.03711 0.0
C1231 C 0.93914 0.41315 0.02632 0.0
C1232 C 0.93556 0.41305 0.05236 0.0
C1233 C 0.9466 0.43462 0.0149 0.0
C1234 C 0.95039 0.45621 0.0294 0.0
C1235 C 0.94768 0.45591 0.05556 0.0
C1236 C 0.94028 0.43435 0.06706 0.0
C1237 C 0.95879 0.47841 0.01723 0.0
C1238 C -0.02116 0.48534 0.02377 0.0
C1239 C 0.94868 0.48985 -0.00329 0.0
C1240 C 0.92754 0.48258 0.98886 0.0
C1241 C 0.91141 0.48264 0.00635 0.0
C1242 C 0.89163 0.4754 -0.00113 0.0
C1243 C 0.88777 0.4681 0.97391 0.0
C1244 C 0.90367 0.46806 0.95637 0.0
C1245 C 0.92347 0.4753 0.96375 0.0
H1246 H 0.87245 0.46249 0.96816 0.0
H1247 H 0.07046 0.5125 0.0273 0.0
H1248 H 0.10558 0.02072 0.09531 0.0
H1249 H 0.1113 -0.00911 0.12956 0.0
H1250 H 0.08171 0.04168 0.18084 0.0
H1251 H 0.07694 0.0718 0.1478 0.0
H1252 H 0.13081 0.00188 0.18975 0.0
H1253 H 0.03088 0.97648 0.21096 0.0
H1254 H -0.00331 0.95962 0.20016 0.0
H1255 H 0.02413 0.90206 0.15478 0.0
H1256 H 0.05846 0.91864 0.16519 0.0
H1257 H 0.12791 0.92309 0.30877 0.0
H1258 H 0.12015 0.95551 0.2773 0.0
H1259 H 0.09978 0.89812 0.22504 0.0
H1260 H 0.10703 0.86624 0.25594 0.0
H1261 H 0.06954 0.92848 0.22704 0.0
H1262 H 0.14908 0.9343 0.21154 0.0
H1263 H 0.18227 0.93003 0.23375 0.0
H1264 H 0.17018 -0.00293 0.27637 0.0
H1265 H 0.13698 0.00133 0.25482 0.0
C1266 C 0.1008 0.02579 0.11419 0.0
C1267 C 0.09025 0.04841 0.11872 0.0
C1268 C 0.10401 0.00862 0.13372 0.0
C1269 C 0.09617 0.01347 0.15784 0.0
C1270 C 0.08781 0.03722 0.16269 0.0
C1271 C 0.08488 0.05452 0.14349 0.0
C1272 C 0.09549 -0.00693 0.17789 0.0
C1273 C 0.11767 -0.00917 0.19532 0.0
C1274 C 0.06852 0.95948 0.19441 0.0
C1275 C 0.04727 0.94992 0.18748 0.0
C1276 C 0.02966 0.96066 0.19814 0.0
C1277 C 0.01021 0.951 0.19226 0.0
C1278 C 0.0082 0.93009 0.17638 0.0
C1279 C 0.02566 0.91856 0.16666 0.0
C1280 C 0.04512 0.9282 0.17244 0.0
C1281 C 0.12159 0.91752 0.29064 0.0
C1282 C 0.11789 0.89202 0.28513 0.0
C1283 C 0.11737 0.93605 0.2725 0.0
C1284 C 0.10922 0.9294 0.24868 0.0
C1285 C 0.10581 0.90395 0.24326 0.0
C1286 C 0.11003 0.88562 0.26111 0.0
C1287 C 0.10281 0.94824 0.22954 0.0
C1288 C 0.07874 0.94316 0.21863 0.0
C1289 C 0.12034 0.96987 0.21922 0.0
C1290 C 0.14084 0.9686 0.23094 0.0
C1291 C 0.15371 0.94834 0.22534 0.0
C1292 C 0.17246 0.94579 0.23797 0.0
C1293 C 0.17844 0.96342 0.25627 0.0
C1294 C 0.16568 0.9836 0.26196 0.0
C1295 C 0.14692 0.98617 0.2494 0.0
H1296 H 0.19289 0.96133 0.26617 0.0
H1297 H -0.00685 0.9226 0.17188 0.0
H1298 H 0.33279 0.84205 0.54874 0.0
H1299 H 0.30215 0.83284 0.52276 0.0
H1300 H 0.28429 0.91061 0.52894 0.0
H1301 H 0.31363 0.91922 0.55548 0.0
H1302 H 0.25337 0.88647 0.53268 0.0
H1303 H 0.31092 0.88024 0.47542 0.0
H1304 H 0.34281 0.86221 0.45853 0.0
H1305 H 0.31288 0.79071 0.44922 0.0
H1306 H 0.28089 0.80825 0.46645 0.0
H1307 H 0.16164 0.88481 0.44405 0.0
H1308 H 0.19743 0.89845 0.46991 0.0
H1309 H 0.23186 0.82077 0.43823 0.0
H1310 H 0.19461 0.80711 0.41233 0.0
H1311 H 0.25822 0.84737 0.44806 0.0
H1312 H 0.19994 0.86515 0.51789 0.0
H1313 H 0.17368 0.89276 0.53531 0.0
H1314 H 0.21048 0.95705 0.51676 0.0
H1315 H 0.2372 0.92937 0.49943 0.0
C1316 C 0.32188 0.85684 0.54504 0.0
C1317 C 0.32551 0.88136 0.55395 0.0
C1318 C 0.30464 0.85173 0.5298 0.0
C1319 C 0.291 0.87113 0.52347 0.0
C1320 C 0.29439 0.89521 0.53351 0.0
C1321 C 0.31124 0.90017 0.54873 0.0
C1322 C 0.27301 0.86727 0.50656 0.0
C1323 C 0.25443 0.87786 0.5141 0.0
C1324 C 0.2743 0.85611 0.48238 0.0
C1325 C 0.29361 0.84548 0.4725 0.0
C1326 C 0.31121 0.86062 0.47 0.0
C1327 C 0.32929 0.85049 0.46034 0.0
C1328 C 0.32989 0.82531 0.45289 0.0
C1329 C 0.31241 0.81019 0.45508 0.0
C1330 C 0.29431 0.82021 0.4648 0.0
C1331 C 0.17414 0.87156 0.44477 0.0
C1332 C 0.17322 0.84375 0.4257 0.0
C1333 C 0.19728 0.88036 0.4608 0.0
C1334 C 0.21999 0.86223 0.45743 0.0
C1335 C 0.2188 0.83314 0.4393 0.0
C1336 C 0.19502 0.82374 0.42415 0.0
C1337 C 0.2383 0.86683 0.47395 0.0
C1338 C 0.2569 0.85575 0.46664 0.0
C1339 C 0.23742 0.87881 0.49807 0.0
C1340 C 0.22056 0.89498 0.50711 0.0
C1341 C 0.20265 0.88494 0.51778 0.0
C1342 C 0.18756 0.90072 0.5275 0.0
C1343 C 0.19037 0.9267 0.5271 0.0
C1344 C 0.20825 0.93692 0.51691 0.0
C1345 C 0.22333 0.92117 0.50704 0.0
H1346 H 0.1787 0.9389 0.53472 0.0
H1347 H 0.34388 0.81753 0.44534 0.0
H1348 H 0.31282 0.11836 0.75565 0.0
H1349 H 0.32451 0.08447 0.72813 0.0
H1350 H 0.3728 0.06769 0.78098 0.0
H1351 H 0.36013 0.10055 0.80974 0.0
H1352 H 0.38474 0.05918 0.73224 0.0
H1353 H 0.32649 0.04234 0.78339 0.0
H1354 H 0.29183 0.04391 0.80101 0.0
H1355 H 0.26615 0.02543 0.72846 0.0
H1356 H 0.30069 0.02446 0.71009 0.0
H1357 H 0.39127 0.93098 0.68328 0.0
H1358 H 0.386 0.96504 0.7144 0.0
H1359 H 0.34223 -0.00064 0.66436 0.0
H1360 H 0.3476 0.96608 0.63344 0.0
H1361 H 0.32995 -0.00351 0.71553 0.0
H1362 H 0.38415 0.02513 0.66314 0.0
H1363 H 0.41758 0.02224 0.64189 0.0
H1364 H 0.44802 0.01782 0.71375 0.0
H1365 H 0.41464 0.02033 0.73544 0.0
C1366 C 0.32594 0.10738 0.76145 0.0
C1367 C 0.33525 0.11145 0.78509 0.0
C1368 C 0.33264 0.08812 0.74567 0.0
C1369 C 0.34893 0.07274 0.75316 0.0
C1370 C 0.35952 0.07842 0.77563 0.0
C1371 C 0.35236 0.09719 0.79192 0.0
C1372 C 0.35317 0.04921 0.73905 0.0
C1373 C 0.37283 0.04519 0.72911 0.0
C1374 C 0.33746 0.03118 0.73446 0.0
C1375 C 0.31643 0.03342 0.74524 0.0
C1376 C 0.31355 0.03903 0.77098 0.0
C1377 C 0.29384 0.03977 0.78116 0.0
C1378 C 0.27678 0.03482 0.76586 0.0
C1379 C 0.27938 0.02931 0.7403 0.0
C1380 C 0.29906 0.0287 0.72999 0.0
C1381 C 0.38021 0.94552 0.67929 0.0
C1382 C 0.3698 0.94588 0.65602 0.0
C1383 C 0.3774 0.96507 0.69688 0.0
C1384 C 0.36388 0.98482 0.6915 0.0
C1385 C 0.35281 0.98441 0.66882 0.0
C1386 C 0.35584 0.9653 0.65123 0.0
C1387 C 0.36119 0.00638 0.70901 0.0
C1388 C 0.34181 0.01016 0.7194 0.0
C1389 C 0.37688 0.02421 0.71369 0.0
C1390 C 0.39693 0.02255 0.70088 0.0
C1391 C 0.39796 0.02325 0.6744 0.0
C1392 C 0.41689 0.02175 0.66228 0.0
C1393 C 0.43492 0.01975 0.67646 0.0
C1394 C 0.43403 0.0193 0.7028 0.0
C1395 C 0.41512 0.02077 0.71503 0.0
H1396 H 0.44957 0.01862 0.66704 0.0
H1397 H 0.26154 0.03522 0.77383 0.0
H1398 H 0.2395 0.11659 0.88419 0.0
H1399 H 0.20807 0.117 0.90929 0.0
H1400 H 0.23714 0.16701 0.96313 0.0
H1401 H 0.26826 0.16757 0.93742 0.0
H1402 H 0.20035 0.10253 0.95701 0.0
H1403 H 0.2137 0.20371 0.97769 0.0
H1404 H 0.22115 0.24466 0.95796 0.0
H1405 H 0.18692 0.22222 0.89201 0.0
H1406 H 0.1797 0.18103 0.91124 0.0
H1407 H 0.13075 0.11789 0.05262 0.0
H1408 H 0.16224 0.12672 0.02947 0.0
H1409 H 0.1272 0.15895 0.96901 0.0
H1410 H 0.0954 0.14909 -0.00841 0.0
H1411 H 0.16536 0.18279 0.97664 0.0
H1412 H 0.13744 0.10091 0.96162 0.0
H1413 H 0.12144 0.06113 0.97508 0.0
H1414 H 0.17482 0.04409 0.01934 0.0
H1415 H 0.19069 0.08383 0.00663 0.0
C1416 C 0.23918 0.12751 0.90149 0.0
C1417 C 0.25642 0.14154 0.90931 0.0
C1418 C 0.22124 0.1278 0.91573 0.0
C1419 C 0.22022 0.14227 0.93787 0.0
C1420 C 0.23748 0.15616 0.9458 0.0
C1421 C 0.25533 0.15617 0.93136 0.0
C1422 C 0.20113 0.14278 0.95273 0.0
C1423 C 0.19288 0.12009 0.96158 0.0
C1424 C 0.19079 0.16549 0.95773 0.0
C1425 C 0.19659 0.18928 0.9456 0.0
C1426 C 0.20808 0.20746 0.95884 0.0
C1427 C 0.21223 0.23068 0.94776 0.0
C1428 C 0.20464 0.23598 0.92367 0.0
C1429 C 0.193 0.218 0.91053 0.0
C1430 C 0.18902 0.19468 0.92142 0.0
C1431 C 0.1299 0.12817 0.03508 0.0
C1432 C 0.11094 0.13331 0.02389 0.0
C1433 C 0.14783 0.13311 0.02197 0.0
C1434 C 0.14696 0.14347 -0.00217 0.0
C1435 C 0.12809 0.15106 0.98776 0.0
C1436 C 0.11003 0.14566 0.00067 0.0
C1437 C 0.1653 0.14281 0.98189 0.0
C1438 C 0.17318 0.16532 0.97261 0.0
C1439 C 0.17481 0.1198 0.97576 0.0
C1440 C 0.16548 0.09534 0.98292 0.0
C1441 C 0.14578 0.08864 0.97417 0.0
C1442 C 0.13666 0.06611 0.98174 0.0
C1443 C 0.14713 0.05002 -0.00204 0.0
C1444 C 0.16673 0.05645 0.00665 0.0
C1445 C 0.17584 0.07898 -0.00082 0.0
H1446 H 0.14005 0.03261 0.00384 0.0
H1447 H 0.20765 0.25406 0.91525 0.0
H1448 H 0.14165 0.06272 0.19179 0.0
H1449 H 0.13436 0.02982 0.22234 0.0
H1450 H 0.07441 0.06031 0.23504 0.0
H1451 H 0.08281 0.09558 0.20702 0.0
H1452 H 0.10906 0.04688 0.27716 0.0
H1453 H 0.05849 0.01748 0.21282 0.0
H1454 H 0.04625 0.00811 0.16523 0.0
H1455 H 0.09199 0.94226 0.14157 0.0
H1456 H 0.11265 0.93978 0.18602 0.0
H1457 H 0.0451 0.93022 0.32619 0.0
H1458 H 0.05168 0.96318 0.2953 0.0
H1459 H 0.11293 0.97293 0.32551 0.0
H1460 H 0.10566 0.94136 0.35747 0.0
H1461 H 0.07414 0.96609 0.26009 0.0
H1462 H 0.13435 0.02308 0.31472 0.0
H1463 H 0.14124 0.03875 0.35791 0.0
H1464 H 0.07661 0.03951 0.37304 0.0
H1465 H 0.0694 0.02355 0.33002 0.0
C1466 C 0.12665 0.06191 0.20043 0.0
C1467 C 0.11231 0.08084 0.19594 0.0
C1468 C 0.12231 0.04275 0.21755 0.0
C1469 C 0.10289 0.04067 0.22868 0.0
C1470 C 0.08892 0.06037 0.2252 0.0
C1471 C 0.0937 0.08048 0.20921 0.0
C1472 C 0.09871 0.02126 0.24807 0.0
C1473 C 0.10236 0.02856 0.27321 0.0
C1474 C 0.09025 -0.0031 0.24293 0.0
C1475 C 0.08582 -0.01308 0.21639 0.0
C1476 C 0.06629 0.00296 0.20232 0.0
C1477 C 0.05873 -0.00314 0.1723 0.0
C1478 C 0.06841 0.97534 0.15179 0.0
C1479 C 0.08762 0.95483 0.15667 0.0
C1480 C 0.10029 0.95351 0.18462 0.0
C1481 C 0.06004 0.93922 0.32585 0.0
C1482 C 0.07507 0.93304 0.34367 0.0
C1483 C 0.06372 0.9583 0.3085 0.0
C1484 C 0.08265 0.97116 0.30839 0.0
C1485 C 0.09789 0.96425 0.3258 0.0
C1486 C 0.09399 0.94568 0.34357 0.0
C1487 C 0.08723 -0.01017 0.28843 0.0
C1488 C 0.08284 0.98307 0.26344 0.0
C1489 C 0.09723 0.01293 0.29337 0.0
C1490 C 0.10137 0.02205 0.31931 0.0
C1491 C 0.12164 0.02663 0.3273 0.0
C1492 C 0.12559 0.03546 0.35175 0.0
C1493 C 0.10937 0.04009 0.36822 0.0
C1494 C 0.08916 0.03577 0.36032 0.0
C1495 C 0.08513 0.02669 0.33596 0.0
H1496 H 0.11246 0.04706 0.3871 0.0
H1497 H 0.06133 0.97467 0.13331 0.0
H1498 H 0.23259 0.84869 0.57813 0.0
H1499 H 0.20197 0.83886 0.55367 0.0
H1500 H 0.2383 0.79612 0.50099 0.0
H1501 H 0.26904 0.80493 0.52659 0.0
H1502 H 0.19738 0.83453 0.4712 0.0
H1503 H 0.19501 0.76987 0.53703 0.0
H1504 H 0.18684 0.75466 0.5797 0.0
H1505 H 0.1447 0.81537 0.59002 0.0
H1506 H 0.15277 0.83113 0.54762 0.0
H1507 H 0.10724 0.8216 0.42487 0.0
H1508 H 0.13992 0.80559 0.44183 0.0
H1509 H 0.14554 0.87068 0.48997 0.0
H1510 H 0.11316 0.88625 0.47441 0.0
H1511 H 0.1485 0.81223 0.50308 0.0
H1512 H 0.19083 0.90662 0.42543 0.0
H1513 H 0.20048 0.92589 0.38958 0.0
H1514 H 0.22832 0.86061 0.36053 0.0
H1515 H 0.22012 0.83779 0.39471 0.0
C1516 C 0.23404 0.83711 0.56136 0.0
C1517 C 0.25328 0.82829 0.55375 0.0
C1518 C 0.21638 0.83089 0.54767 0.0
C1519 C 0.21757 0.81645 0.52544 0.0
C1520 C 0.23682 0.80703 0.51819 0.0
C1521 C 0.25444 0.81248 0.53251 0.0
C1522 C 0.20012 0.8165 0.50716 0.0
C1523 C 0.20502 0.82705 0.48425 0.0
C1524 C 0.17978 0.81172 0.51381 0.0
C1525 C 0.17447 0.80164 0.53905 0.0
C1526 C 0.184 0.77998 0.54839 0.0
C1527 C 0.1794 0.77127 0.57255 0.0
C1528 C 0.16525 0.78402 0.58754 0.0
C1529 C 0.15561 0.80545 0.57837 0.0
C1530 C 0.16015 0.81424 0.55425 0.0
C1531 C 0.11546 0.83241 0.43909 0.0
C1532 C 0.10819 0.85582 0.4473 0.0
C1533 C 0.1341 0.8234 0.44855 0.0
C1534 C 0.14595 0.83849 0.46499 0.0
C1535 C 0.13732 0.85998 0.47564 0.0
C1536 C 0.11877 0.86875 0.46667 0.0
C1537 C 0.1664 0.83059 0.4743 0.0
C1538 C 0.16391 0.81721 0.49704 0.0
C1539 C 0.18974 0.8382 0.46447 0.0
C1540 C 0.20272 0.86625 0.41973 0.0
C1541 C 0.19881 0.89341 0.41346 0.0
C1542 C 0.20444 0.90629 0.39167 0.0
C1543 C 0.2149 0.89462 0.37268 0.0
C1544 C 0.21997 0.86994 0.37549 0.0
C1545 C 0.21451 0.85674 0.39713 0.0
H1546 H 0.21915 0.90471 0.35583 0.0
H1547 H 0.16176 0.7773 0.60627 0.0
H1548 H 0.32982 0.02081 0.85137 0.0
H1549 H 0.32039 -0.01063 0.81927 0.0
H1550 H 0.37503 0.00799 0.77759 0.0
H1551 H 0.38495 0.03835 0.81052 0.0
H1552 H 0.31075 -0.01287 0.77221 0.0
H1553 H 0.39754 0.96574 0.76011 0.0
H1554 H 0.42709 0.95909 0.78871 0.0
H1555 H 0.38641 0.93337 0.84665 0.0
H1556 H 0.35673 0.94016 0.81851 0.0
H1557 H 0.31929 0.91215 0.65693 0.0
H1558 H 0.32825 0.9455 0.68734 0.0
H1559 H 0.33003 0.89155 0.74731 0.0
H1560 H 0.32116 0.85833 0.71769 0.0
H1561 H 0.36439 0.927 0.74601 0.0
H1562 H 0.28604 0.93578 0.76982 0.0
H1563 H 0.25067 0.93113 0.75347 0.0
H1564 H 0.26782 0.96897 0.68544 0.0
H1565 H 0.30304 0.97389 0.70137 0.0
C1566 C 0.33958 0.01843 0.83506 0.0
C1567 C 0.35775 0.03258 0.83284 0.0
C1568 C 0.33423 0.00041 0.81681 0.0
C1569 C 0.34708 -0.00394 0.7961 0.0
C1570 C 0.365 0.01069 0.79359 0.0
C1571 C 0.37044 0.02848 0.81203 0.0
C1572 C 0.34223 0.9759 0.77739 0.0
C1573 C 0.32274 0.97463 0.76599 0.0
C1574 C 0.357 0.95776 0.77082 0.0
C1575 C 0.37502 0.95347 0.78727 0.0
C1576 C 0.39498 0.95854 0.77888 0.0
C1577 C 0.41172 0.95487 0.79506 0.0
C1578 C 0.40863 0.94582 0.81947 0.0
C1579 C 0.3888 0.94047 0.82779 0.0
C1580 C 0.37204 0.94434 0.8118 0.0
C1581 C 0.3216 0.90742 0.67657 0.0
C1582 C 0.31928 0.88258 0.6848 0.0
C1583 C 0.32676 0.92647 0.69388 0.0
C1584 C 0.32967 0.92096 0.71951 0.0
C1585 C 0.32784 0.89618 0.72761 0.0
C1586 C 0.32269 0.87723 0.71052 0.0
C1587 C 0.33402 0.9409 0.73834 0.0
C1588 C 0.35303 0.94097 0.7509 0.0
C1589 C 0.31847 0.95728 0.7466 0.0
C1590 C 0.29722 0.95513 0.73683 0.0
C1591 C 0.2822 0.94319 0.75143 0.0
C1592 C 0.26217 0.94049 0.74221 0.0
C1593 C 0.25699 0.94975 0.71843 0.0
C1594 C 0.27182 0.96181 0.70387 0.0
C1595 C 0.29185 0.96456 0.71302 0.0
H1596 H 0.2415 0.94757 0.71127 0.0
H1597 H 0.42159 0.94295 0.83194 0.0
H1598 H 0.31738 0.05926 0.95368 0.0
H1599 H 0.28879 0.06916 0.98043 0.0
H1600 H 0.29484 0.14743 0.9617 0.0
H1601 H 0.32455 0.1377 0.93474 0.0
H1602 H 0.28759 0.13818 0.01321 0.0
H1603 H 0.26616 0.10164 0.93415 0.0
H1604 H 0.2587 0.07189 0.90012 0.0
H1605 H 0.22211 0.02766 0.95019 0.0
H1606 H 0.22983 0.05672 0.98495 0.0
H1607 H 0.18787 0.16458 0.06535 0.0
H1608 H 0.21808 0.16199 0.03829 0.0
H1609 H 0.21734 0.08145 0.04495 0.0
H1610 H 0.1869 0.08381 0.07175 0.0
H1611 H 0.22091 0.09683 -0.00363 0.0
H1612 H 0.25294 0.11218 0.07423 0.0
H1613 H 0.26255 0.13213 0.11466 0.0
H1614 H 0.28253 0.19816 0.07564 0.0
H1615 H 0.27267 0.17875 0.0349 0.0
C1616 C 0.31282 0.07873 0.955 0.0
C1617 C 0.32336 0.09773 0.94179 0.0
C1618 C 0.29635 0.08428 0.97046 0.0
C1619 C 0.28934 0.10889 0.97265 0.0
C1620 C 0.29981 0.12818 0.95985 0.0
C1621 C 0.31665 0.12262 0.94433 0.0
C1622 C 0.27075 0.11386 0.98788 0.0
C1623 C 0.27284 0.12941 0.00928 0.0
C1624 C 0.25185 0.10094 0.98351 0.0
C1625 C 0.24833 0.08228 0.96247 0.0
C1626 C 0.25654 0.08576 0.93823 0.0
C1627 C 0.25234 0.06877 0.91866 0.0
C1628 C 0.23979 0.04798 0.92289 0.0
C1629 C 0.23173 0.04391 0.94683 0.0
C1630 C 0.23607 0.06073 0.96652 0.0
C1631 C 0.19407 0.14626 0.06102 0.0
C1632 C 0.18478 0.12433 0.07059 0.0
C1633 C 0.21148 0.14487 0.04568 0.0
C1634 C 0.22008 0.12156 0.03965 0.0
C1635 C 0.21096 0.09968 0.04933 0.0
C1636 C 0.19349 0.10102 0.06458 0.0
C1637 C 0.2379 0.11976 0.02221 0.0
C1638 C 0.23561 0.10527 0.00026 0.0
C1639 C 0.25697 0.13169 0.02704 0.0
C1640 C 0.2616 0.14422 0.05152 0.0
C1641 C 0.25893 0.13118 0.07427 0.0
C1642 C 0.26455 0.14233 0.09725 0.0
C1643 C 0.27301 0.16648 0.09774 0.0
C1644 C 0.27583 0.17953 0.07524 0.0
C1645 C 0.27021 0.16847 0.05219 0.0
H1646 H 0.27749 0.175 0.11553 0.0
H1647 H 0.23639 0.03497 0.90765 0.0
H1648 H 0.86885 0.29935 0.0776 0.0
H1649 H 0.89759 0.274 0.0613 0.0
H1650 H 0.88788 0.22027 0.12054 0.0
H1651 H 0.85956 0.24457 0.13634 0.0
H1652 H 0.92727 0.25188 0.11495 0.0
H1653 H 0.87659 0.20514 0.05971 0.0
H1654 H 0.85561 0.21081 0.02124 0.0
H1655 H 0.9085 0.23784 0.98161 0.0
H1656 H 0.9297 0.2325 0.01986 0.0
H1657 H -0.01433 0.1272 0.08588 0.0
H1658 H 0.95279 0.14921 0.08761 0.0
H1659 H -0.01698 0.21802 0.06632 0.0
H1660 H 0.01522 0.19523 0.06085 0.0
H1661 H 0.93736 0.19024 0.04954 0.0
H1662 H -0.00494 0.20572 0.1613 0.0
H1663 H 0.00535 0.20115 0.20155 0.0
H1664 H 0.94454 0.19864 0.2283 0.0
H1665 H 0.9311 0.20318 0.18933 0.0
C1666 C 0.87277 0.28193 0.0868 0.0
C1667 C 0.86249 0.27439 0.10877 0.0
C1668 C 0.88914 0.26756 0.07754 0.0
C1669 C 0.89513 0.24572 0.09026 0.0
C1670 C 0.88367 0.23729 0.11075 0.0
C1671 C 0.86759 0.2514 0.11989 0.0
C1672 C 0.91476 0.23285 0.0856 0.0
C1673 C 0.92969 0.23454 0.10456 0.0
C1674 C 0.91737 0.21653 0.06576 0.0
C1675 C 0.90472 0.21826 0.04256 0.0
C1676 C 0.88373 0.21217 0.04275 0.0
C1677 C 0.8718 0.21538 0.021 0.0
C1678 C 0.88072 0.22462 -0.00101 0.0
C1679 C 0.90161 0.23058 -0.00137 0.0
C1680 C 0.9136 0.2274 0.0203 0.0
C1681 C -0.0148 0.147 0.08141 0.0
C1682 C 0.00325 0.16016 0.07547 0.0
C1683 C 0.96646 0.15944 0.08224 0.0
C1684 C 0.966 0.18559 0.07926 0.0
C1685 C -0.01655 0.1981 0.07016 0.0
C1686 C 0.00193 0.18522 0.06768 0.0
C1687 C 0.94779 0.2003 0.08764 0.0
C1688 C 0.93437 0.20137 0.06642 0.0
C1689 C 0.94444 0.21455 0.11277 0.0
C1690 C 0.95987 0.20648 0.16419 0.0
C1691 C -0.01821 0.20476 0.17317 0.0
C1692 C -0.01101 0.20185 0.19784 0.0
C1693 C -0.02426 0.19982 0.21762 0.0
C1694 C 0.95514 0.20043 0.21273 0.0
C1695 C 0.94768 0.20333 0.18817 0.0
H1696 H -0.01858 0.19761 0.23669 0.0
H1697 H 0.87145 0.22721 0.98222 0.0
H1698 H 0.49582 0.32405 0.83792 0.0
H1699 H 0.463 0.30151 0.84001 0.0
H1700 H 0.47984 0.27239 0.91289 0.0
H1701 H 0.5119 0.29611 0.91163 0.0
H1702 H 0.45234 0.25457 0.84239 0.0
H1703 H 0.45055 0.26731 0.94591 0.0
H1704 H 0.4555 0.29839 0.98027 0.0
H1705 H 0.43184 0.3564 0.93261 0.0
H1706 H 0.42724 0.3257 0.89785 0.0
H1707 H 0.36911 0.17619 0.87215 0.0
H1708 H 0.40192 0.1964 0.88131 0.0
H1709 H 0.37386 0.26908 0.8773 0.0
H1710 H 0.34098 0.24904 0.86657 0.0
H1711 H 0.40571 0.26579 0.91496 0.0
H1712 H 0.39156 0.24333 0.82638 0.0
H1713 H 0.38353 0.21213 0.79311 0.0
H1714 H 0.4384 0.17183 0.81131 0.0
H1715 H 0.44636 0.2025 0.84502 0.0
C1716 C 0.49255 0.31276 0.85433 0.0
C1717 C 0.50653 0.31182 0.87458 0.0
C1718 C 0.47373 0.29997 0.85558 0.0
C1719 C 0.46859 0.28588 0.877 0.0
C1720 C 0.48295 0.284 0.89668 0.0
C1721 C 0.5015 0.29721 0.89571 0.0
C1722 C 0.44847 0.27262 0.87847 0.0
C1723 C 0.44265 0.25639 0.85872 0.0
C1724 C 0.43497 0.27587 0.89906 0.0
C1725 C 0.43896 0.29444 0.91927 0.0
C1726 C 0.44665 0.28678 0.94275 0.0
C1727 C 0.44941 0.3043 0.96225 0.0
C1728 C 0.4441 0.32939 0.95858 0.0
C1729 C 0.43616 0.33703 0.93534 0.0
C1730 C 0.43364 0.31964 0.91568 0.0
C1731 C 0.36977 0.19643 0.8742 0.0
C1732 C 0.35268 0.21117 0.86855 0.0
C1733 C 0.38854 0.2079 0.87962 0.0
C1734 C 0.39034 0.23412 0.88018 0.0
C1735 C 0.37276 0.24879 0.87704 0.0
C1736 C 0.35407 0.23738 0.87086 0.0
C1737 C 0.41075 0.24626 0.87989 0.0
C1738 C 0.41624 0.26279 0.89946 0.0
C1739 C 0.4242 0.24281 0.85935 0.0
C1740 C 0.41951 0.22504 0.83839 0.0
C1741 C 0.40184 0.22774 0.82337 0.0
C1742 C 0.39727 0.21014 0.80443 0.0
C1743 C 0.41041 0.18996 0.80012 0.0
C1744 C 0.42818 0.1874 0.81468 0.0
C1745 C 0.43271 0.20486 0.83371 0.0
H1746 H 0.40685 0.17635 0.78547 0.0
H1747 H 0.44603 0.34287 0.97377 0.0
H1748 H 0.92056 0.67916 0.34374 0.0
H1749 H 0.95434 0.70546 0.34377 0.0
H1750 H -0.01909 0.679 0.42416 0.0
H1751 H 0.92587 0.64372 0.42538 0.0
H1752 H -0.00535 0.71562 0.41966 0.0
H1753 H -0.00443 0.66625 0.34119 0.0
H1754 H -0.01772 0.65002 0.30045 0.0
H1755 H -0.02711 0.72535 0.27475 0.0
H1756 H -0.01406 0.74197 0.31533 0.0
H1757 H 0.09447 0.76593 0.38704 0.0
H1758 H 0.06529 0.73828 0.39652 0.0
H1759 H 0.02738 0.78118 0.34579 0.0
H1760 H 0.05658 0.80797 0.33583 0.0
H1761 H 0.023 0.73552 0.33602 0.0
H1762 H 0.03285 0.78043 0.41577 0.0
H1763 H 0.0488 0.79161 0.45632 0.0
H1764 H 0.04452 0.71492 0.47995 0.0
H1765 H 0.02841 0.70326 0.43943 0.0
C1766 C 0.92944 0.67859 0.36097 0.0
C1767 C 0.9196 0.66091 0.38445 0.0
C1768 C 0.95246 0.69399 0.36022 0.0
C1769 C -0.02855 0.6946 0.38275 0.0
C1770 C 0.96824 0.67883 0.41058 0.0
C1771 C 0.93295 0.65606 0.41141 0.0
C1772 C -0.00916 0.7096 0.37941 0.0
C1773 C 0.00099 0.7189 0.4012 0.0
C1774 C -0.0006 0.7154 0.35558 0.0
C1775 C -0.00848 0.70528 0.33134 0.0
C1776 C -0.0094 0.67929 0.32686 0.0
C1777 C -0.01689 0.67005 0.3038 0.0
C1778 C -0.0233 0.68664 0.28506 0.0
C1779 C -0.02217 0.71251 0.28927 0.0
C1780 C -0.0147 0.72185 0.31226 0.0
C1781 C 0.07961 0.76984 0.37874 0.0
C1782 C 0.07737 0.78928 0.36128 0.0
C1783 C 0.06302 0.75403 0.38403 0.0
C1784 C 0.04391 0.75803 0.3724 0.0
C1785 C 0.04176 0.77804 0.35548 0.0
C1786 C 0.05836 0.79345 0.34988 0.0
C1787 C 0.02634 0.74069 0.37609 0.0
C1788 C 0.01666 0.73111 0.35437 0.0
C1789 C 0.01888 0.73369 0.40005 0.0
C1790 C 0.0291 0.74101 0.42433 0.0
C1791 C 0.03506 0.76594 0.42954 0.0
C1792 C 0.04426 0.77237 0.45258 0.0
C1793 C 0.04763 0.75401 0.47076 0.0
C1794 C 0.04185 0.72917 0.46588 0.0
C1795 C 0.03264 0.72268 0.44285 0.0
H1796 H 0.05476 0.75901 0.4886 0.0
H1797 H -0.02911 0.67944 0.26725 0.0
H1798 H 0.93293 0.28382 0.06294 0.0
H1799 H 0.9643 0.25939 0.068 0.0
H1800 H -0.02082 0.30111 0.13557 0.0
H1801 H 0.94682 0.32403 0.13201 0.0
H1802 H 0.00898 0.28962 0.08285 0.0
H1803 H 0.95556 0.26316 0.14836 0.0
H1804 H 0.91818 0.23763 0.15933 0.0
H1805 H 0.949 0.15711 0.13241 0.0
H1806 H -0.01343 0.18255 0.12122 0.0
H1807 H 0.08979 0.22551 0.14966 0.0
H1808 H 0.05972 0.24938 0.13743 0.0
H1809 H 0.04396 0.19252 0.08256 0.0
H1810 H 0.07402 0.16802 0.09487 0.0
H1811 H 0.01375 0.20865 0.12744 0.0
H1812 H 0.04928 0.23575 0.05454 0.0
H1813 H 0.07874 0.25261 0.03096 0.0
H1814 H 0.0763 0.32096 0.07416 0.0
H1815 H 0.04695 0.30436 0.09822 0.0
C1816 C 0.94242 0.28714 0.07943 0.0
C1817 C 0.93665 0.30473 0.09796 0.0
C1818 C 0.96049 0.27335 0.08212 0.0
C1819 C -0.02656 0.27749 0.10295 0.0
C1820 C 0.96883 0.29681 0.12005 0.0
C1821 C 0.95025 0.30969 0.11811 0.0
C1822 C -0.00743 0.26297 0.1057 0.0
C1823 C 0.00997 0.27209 0.09307 0.0
C1824 C -0.00643 0.23966 0.11859 0.0
C1825 C -0.02474 0.22693 0.12999 0.0
C1826 C 0.95438 0.24358 0.14371 0.0
C1827 C 0.9309 0.22741 0.15132 0.0
C1828 C 0.9287 0.19428 0.14555 0.0
C1829 C 0.95 0.17729 0.13418 0.0
C1830 C -0.0267 0.19334 0.12658 0.0
C1831 C 0.08002 0.21804 0.13478 0.0
C1832 C 0.08408 0.19454 0.12357 0.0
C1833 C 0.06289 0.23187 0.12774 0.0
C1834 C 0.04936 0.22257 0.10938 0.0
C1835 C 0.05391 0.1998 0.09711 0.0
C1836 C 0.07123 0.1859 0.10401 0.0
C1837 C 0.02957 0.23562 0.10546 0.0
C1838 C 0.01224 0.2264 0.11795 0.0
C1839 C 0.0284 0.25864 0.09268 0.0
C1840 C 0.04609 0.26869 0.07839 0.0
C1841 C 0.05518 0.25426 0.05921 0.0
C1842 C 0.07181 0.2638 0.0457 0.0
C1843 C 0.07944 0.28781 0.05112 0.0
C1844 C 0.0704 0.30235 0.07001 0.0
C1845 C 0.05374 0.2929 0.08357 0.0
H1846 H 0.09231 0.29517 0.04064 0.0
H1847 H 0.91458 0.18452 0.14992 0.0
H1848 H 0.58783 0.68668 0.57537 0.0
H1849 H 0.56077 0.71495 0.56008 0.0
H1850 H 0.52672 0.70221 0.62837 0.0
H1851 H 0.55323 0.6743 0.64345 0.0
H1852 H 0.52056 0.71405 0.55003 0.0
H1853 H 0.51375 0.74318 0.65308 0.0
H1854 H 0.53702 0.75188 0.68913 0.0
H1855 H 0.58295 0.77945 0.6384 0.0
H1856 H 0.56013 0.77028 0.60211 0.0
H1857 H 0.43506 0.80223 0.62904 0.0
H1858 H 0.46753 0.77331 0.62064 0.0
H1859 H 0.47495 0.78456 0.5308 0.0
H1860 H 0.4426 0.81156 0.52377 0.0
H1861 H 0.50141 0.77988 0.6119 0.0
H1862 H 0.51878 0.76753 0.51961 0.0
H1863 H 0.5091 0.76762 0.47455 0.0
H1864 H 0.45747 0.71999 0.4901 0.0
H1865 H 0.46719 0.71887 0.5345 0.0
C1866 C 0.5742 0.68935 0.58663 0.0
C1867 C 0.57259 0.67844 0.61062 0.0
C1868 C 0.55888 0.70565 0.57803 0.0
C1869 C 0.54198 0.71113 0.59342 0.0
C1870 C 0.53986 0.6988 0.6165 0.0
C1871 C 0.55494 0.68264 0.62499 0.0
C1872 C 0.52667 0.73032 0.58645 0.0
C1873 C 0.516 0.72824 0.56363 0.0
C1874 C 0.52191 0.75005 0.6032 0.0
C1875 C 0.5353 0.75609 0.62504 0.0
C1876 C 0.52877 0.75124 0.64972 0.0
C1877 C 0.54193 0.75607 0.67014 0.0
C1878 C 0.56144 0.76623 0.66605 0.0
C1879 C 0.56788 0.77147 0.64154 0.0
C1880 C 0.55491 0.7663 0.62105 0.0
C1881 C 0.43963 0.79924 0.60971 0.0
C1882 C 0.42655 0.81394 0.58569 0.0
C1883 C 0.46086 0.78175 0.60404 0.0
C1884 C 0.47284 0.77626 0.57561 0.0
C1885 C 0.46554 0.78675 0.54712 0.0
C1886 C 0.44504 0.80486 0.54304 0.0
C1887 C 0.49264 0.76177 0.57676 0.0
C1888 C 0.50482 0.76504 0.59854 0.0
C1889 C 0.49967 0.74434 0.55789 0.0
C1890 C 0.49316 0.7442 0.53101 0.0
C1891 C 0.50528 0.7572 0.51344 0.0
C1892 C 0.49985 0.75731 0.48788 0.0
C1893 C 0.48249 0.74416 0.47952 0.0
C1894 C 0.47074 0.73053 0.49664 0.0
C1895 C 0.47619 0.73023 0.52216 0.0
H1896 H 0.47824 0.74431 0.45976 0.0
H1897 H 0.57158 0.77003 0.68188 0.0
H1898 H 0.87611 0.70283 0.31842 0.0
H1899 H 0.90415 0.72688 0.33643 0.0
H1900 H 0.88775 0.70233 0.41111 0.0
H1901 H 0.85859 0.67835 0.39296 0.0
H1902 H 0.89896 0.76416 0.37116 0.0
H1903 H 0.93486 0.7081 0.44644 0.0
H1904 H 0.95164 0.66835 0.46959 0.0
H1905 H -0.02826 0.61781 0.39867 0.0
H1906 H 0.9586 0.64955 0.36193 0.0
H1907 H 0.00218 0.80614 0.4318 0.0
H1908 H -0.02894 0.7805 0.4327 0.0
H1909 H 0.9675 0.78292 0.35151 0.0
H1910 H -0.00151 0.80899 0.3504 0.0
H1911 H 0.96264 0.73453 0.41118 0.0
H1912 H 0.92702 0.79107 0.33431 0.0
H1913 H 0.92214 0.83495 0.32093 0.0
H1914 H 0.92098 0.85885 0.39845 0.0
H1915 H 0.92625 0.81512 0.41218 0.0
C1916 C 0.87836 0.70238 0.33868 0.0
C1917 C 0.86543 0.68834 0.35426 0.0
C1918 C 0.8944 0.71615 0.34895 0.0
C1919 C 0.89835 0.71561 0.37496 0.0
C1920 C 0.88524 0.70221 0.3909 0.0
C1921 C 0.86872 0.68859 0.38054 0.0
C1922 C 0.91514 0.73147 0.3845 0.0
C1923 C 0.91317 0.75717 0.37918 0.0
C1924 C 0.93376 0.72232 0.39509 0.0
C1925 C 0.93859 0.69508 0.40239 0.0
C1926 C 0.94021 0.69275 0.43482 0.0
C1927 C 0.95124 0.66773 0.4492 0.0
C1928 C 0.96199 0.64185 0.43549 0.0
C1929 C 0.96424 0.63498 0.40429 0.0
C1930 C 0.95539 0.65476 0.38153 0.0
C1931 C -0.00507 0.801 0.41406 0.0
C1932 C 0.00311 0.80908 0.39092 0.0
C1933 C -0.02292 0.7865 0.4147 0.0
C1934 C 0.96685 0.78029 0.39225 0.0
C1935 C -0.02499 0.78806 0.3691 0.0
C1936 C -0.00713 0.80261 0.36844 0.0
C1937 C 0.94796 0.76497 0.39267 0.0
C1938 C 0.94904 0.74022 0.40113 0.0
C1939 C 0.92958 0.77374 0.38224 0.0
C1940 C 0.9271 0.80002 0.3742 0.0
C1941 C 0.92577 0.80576 0.34844 0.0
C1942 C 0.92301 0.83056 0.34081 0.0
C1943 C 0.92128 0.84968 0.35883 0.0
C1944 C 0.92247 0.84405 0.38452 0.0
C1945 C 0.92548 0.8193 0.39223 0.0
H1946 H 0.91898 0.86885 0.3529 0.0
H1947 H 0.96822 0.62814 0.44831 0.0
H1948 H 0.42409 0.1804 0.91076 0.0
H1949 H 0.45713 0.2024 0.91197 0.0
H1950 H 0.48009 0.1512 0.85577 0.0
H1951 H 0.44623 0.13247 0.85111 0.0
H1952 H 0.49323 0.19081 0.92506 0.0
H1953 H 0.50448 0.16357 0.82738 0.0
H1954 H 0.49053 0.16376 0.78398 0.0
H1955 H 0.46944 0.2392 0.79495 0.0
H1956 H 0.48346 0.23905 0.83841 0.0
H1957 H 0.59583 0.24836 0.90108 0.0
H1958 H 0.56682 0.21999 0.91049 0.0
H1959 H 0.52691 0.26712 0.86673 0.0
H1960 H 0.5553 0.29517 0.85794 0.0
H1961 H 0.52732 0.22272 0.84831 0.0
H1962 H 0.5184 0.25822 0.93428 0.0
H1963 H 0.53331 0.26883 0.97595 0.0
H1964 H 0.5514 0.19215 0.98563 0.0
H1965 H 0.53659 0.18121 0.94395 0.0
C1966 C 0.43583 0.17487 0.89753 0.0
C1967 C 0.43193 0.15581 0.87956 0.0
C1968 C 0.45497 0.1871 0.89864 0.0
C1969 C 0.47118 0.17952 0.88293 0.0
C1970 C 0.46768 0.15915 0.86644 0.0
C1971 C 0.44822 0.14804 0.86416 0.0
C1972 C 0.49166 0.19256 0.88431 0.0
C1973 C 0.50062 0.1977 0.90817 0.0
C1974 C 0.50193 0.20143 0.8625 0.0
C1975 C 0.49297 0.20045 0.83685 0.0
C1976 C 0.49606 0.17973 0.82085 0.0
C1977 C 0.48846 0.17995 0.79612 0.0
C1978 C 0.47853 0.2012 0.78692 0.0
C1979 C 0.47658 0.22245 0.80226 0.0
C1980 C 0.48408 0.22219 0.827 0.0
C1981 C 0.58054 0.25334 0.8949 0.0
C1982 C 0.57758 0.27422 0.87925 0.0
C1983 C 0.56402 0.23703 0.90005 0.0
C1984 C 0.54455 0.24155 0.88945 0.0
C1985 C 0.54154 0.26357 0.87566 0.0
C1986 C 0.55778 0.27971 0.87074 0.0
C1987 C 0.52789 0.22231 0.88885 0.0
C1988 C 0.51998 0.21551 0.86515 0.0
C1989 C 0.51845 0.2127 0.91065 0.0
C1990 C 0.52644 0.21896 0.93609 0.0
C1991 C 0.52553 0.24368 0.94535 0.0
C1992 C 0.53396 0.24974 0.96894 0.0
C1993 C 0.54331 0.23117 0.98343 0.0
C1994 C 0.54411 0.20649 0.97442 0.0
C1995 C 0.53564 0.20034 0.95086 0.0
H1996 H 0.54993 0.23592 0.00163 0.0
H1997 H 0.47273 0.20139 0.76776 0.0
H1998 H 0.81218 0.06186 0.65327 0.0
H1999 H 0.81606 0.03592 0.69075 0.0
H2000 H 0.85717 0.09131 0.7233 0.0
H2001 H 0.85493 0.11583 0.68505 0.0
H2002 H 0.86988 0.05204 0.73566 0.0
H2003 H 0.80136 0.08288 0.74274 0.0
H2004 H 0.76661 0.09007 0.72555 0.0
H2005 H 0.75899 0.01095 0.71235 0.0
H2006 H 0.79364 0.00334 0.72958 0.0
H2007 H 0.8683 0.95626 0.87644 0.0
H2008 H 0.863 -0.01036 0.85181 0.0
H2009 H 0.82711 0.93999 0.80118 0.0
H2010 H 0.83235 0.90949 0.82966 0.0
H2011 H 0.8085 0.02114 0.77677 0.0
H2012 H 0.8927 0.00493 0.74514 0.0
H2013 H 0.92951 0.01234 0.75296 0.0
H2014 H 0.91511 0.06978 0.80708 0.0
H2015 H 0.87809 0.06251 0.79964 0.0
C2016 C 0.82234 0.06821 0.66825 0.0
C2017 C 0.83346 0.09072 0.66599 0.0
C2018 C 0.82424 0.05361 0.68997 0.0
C2019 C 0.83655 0.06177 0.71035 0.0
C2020 C 0.84771 0.08426 0.70793 0.0
C2021 C 0.84639 0.09837 0.68595 0.0
C2022 C 0.83804 0.04702 0.73416 0.0
C2023 C 0.85688 0.04349 0.74524 0.0
C2024 C 0.82113 0.03793 0.74684 0.0
C2025 C 0.80001 0.04259 0.73737 0.0
C2026 C 0.79221 0.06706 0.73623 0.0
C2027 C 0.77255 0.07119 0.72649 0.0
C2028 C 0.76061 0.05098 0.71786 0.0
C2029 C 0.76822 0.02657 0.71912 0.0
C2030 C 0.78781 0.02233 0.72897 0.0
C2031 C 0.85938 0.95316 0.85935 0.0
C2032 C 0.85189 0.92962 0.8538 0.0
C2033 C 0.85613 0.97321 0.84296 0.0
C2034 C 0.84576 0.97275 0.81729 0.0
C2035 C 0.83692 0.94679 0.81591 0.0
C2036 C 0.83987 0.92709 0.83277 0.0
C2037 C 0.8431 0.01341 0.78051 0.0
C2038 C 0.82368 0.02423 0.76916 0.0
C2039 C 0.86004 0.02894 0.76724 0.0
C2040 C 0.88259 0.03199 0.77309 0.0
C2041 C 0.89737 0.01868 0.75918 0.0
C2042 C 0.91827 0.02298 0.7634 0.0
C2043 C 0.92464 0.04118 0.78087 0.0
C2044 C 0.91013 0.05539 0.79387 0.0
C2045 C 0.88919 0.05116 0.7897 0.0
H2046 H 0.94084 0.0445 0.7841 0.0
H2047 H 0.74545 0.05423 0.71019 0.0
H2048 H 0.62247 0.10082 0.43194 0.0
H2049 H 0.65314 0.10516 0.45847 0.0
H2050 H 0.63228 0.17736 0.48458 0.0
H2051 H 0.60114 0.17255 0.45891 0.0
H2052 H 0.67167 0.17946 0.47875 0.0
H2053 H 0.62596 0.12359 0.51944 0.0
H2054 H 0.60313 0.08703 0.52493 0.0
H2055 H 0.65354 0.03737 0.51142 0.0
H2056 H 0.67664 0.0737 0.50544 0.0
H2057 H 0.7345 0.18968 0.58483 0.0
H2058 H 0.70334 0.18276 0.56047 0.0
H2059 H 0.72782 0.1134 0.53133 0.0
H2060 H 0.75828 0.11901 0.55835 0.0
H2061 H 0.68728 0.11022 0.53773 0.0
H2062 H 0.73387 0.17181 0.50695 0.0
H2063 H 0.75423 0.21057 0.50466 0.0
H2064 H 0.69908 0.25404 0.50456 0.0
H2065 H 0.67832 0.21543 0.5074 0.0
C2066 C 0.62479 0.11799 0.44267 0.0
C2067 C 0.60957 0.13646 0.44327 0.0
C2068 C 0.64223 0.12036 0.45798 0.0
C2069 C 0.64502 0.14153 0.47358 0.0
C2070 C 0.63051 0.16086 0.47271 0.0
C2071 C 0.6128 0.15819 0.45794 0.0
C2072 C 0.66249 0.14298 0.49169 0.0
C2073 C 0.67494 0.16454 0.49196 0.0
C2074 C 0.66686 0.12329 0.50867 0.0
C2075 C 0.65296 0.10137 0.51166 0.0
C2076 C 0.63213 0.10488 0.51734 0.0
C2077 C 0.61915 0.0842 0.52059 0.0
C2078 C 0.62686 0.05989 0.51843 0.0
C2079 C 0.64758 0.05622 0.51301 0.0
C2080 C 0.66062 0.07684 0.50968 0.0
C2081 C 0.73329 0.17279 0.57343 0.0
C2082 C 0.7495 0.15552 0.57216 0.0
C2083 C 0.71538 0.16887 0.55955 0.0
C2084 C 0.71363 0.14817 0.54323 0.0
C2085 C 0.72906 0.12987 0.54335 0.0
C2086 C 0.7467 0.13333 0.55817 0.0
C2087 C 0.69649 0.14674 0.52483 0.0
C2088 C 0.68407 0.12519 0.52455 0.0
C2089 C 0.69184 0.1669 0.5084 0.0
C2090 C 0.70445 0.19042 0.50748 0.0
C2091 C 0.72602 0.18954 0.50675 0.0
C2092 C 0.73767 0.21156 0.50533 0.0
C2093 C 0.72796 0.23479 0.50448 0.0
C2094 C 0.70659 0.23601 0.50519 0.0
C2095 C 0.69487 0.214 0.50671 0.0
H2096 H 0.737 0.25183 0.50325 0.0
H2097 H 0.61679 0.0439 0.52104 0.0
H2098 H 0.63726 0.87216 0.22001 0.0
H2099 H 0.6305 0.90012 0.2558 0.0
H2100 H 0.57461 0.92432 0.21963 0.0
H2101 H 0.58143 0.89565 0.18409 0.0
H2102 H 0.63073 0.94773 0.25557 0.0
H2103 H 0.54238 0.94836 0.25633 0.0
H2104 H 0.51335 0.9186 0.25223 0.0
H2105 H 0.55124 0.8591 0.2799 0.0
H2106 H 0.58049 0.88849 0.28404 0.0
H2107 H 0.56134 0.05095 0.30624 0.0
H2108 H 0.57184 0.01529 0.27999 0.0
H2109 H 0.6059 0.98589 0.34278 0.0
H2110 H 0.5988 0.02371 0.36728 0.0
H2111 H 0.56447 0.96239 0.29841 0.0
H2112 H 0.63618 0.9843 0.32505 0.0
H2113 H 0.66446 0.01474 0.32895 0.0
H2114 H 0.66534 0.02296 0.2485 0.0
H2115 H 0.63661 -0.00693 0.24457 0.0
C2116 C 0.62343 0.88332 0.21992 0.0
C2117 C 0.61019 0.88281 0.19897 0.0
C2118 C 0.61958 0.89929 0.24035 0.0
C2119 C 0.60215 0.91465 0.24045 0.0
C2120 C 0.58815 0.91271 0.22017 0.0
C2121 C 0.59221 0.89692 0.19957 0.0
C2122 C 0.59977 0.93437 0.26032 0.0
C2123 C 0.61636 0.95067 0.26532 0.0
C2124 C 0.58105 0.93831 0.27301 0.0
C2125 C 0.56358 0.92057 0.2704 0.0
C2126 C 0.54447 0.92894 0.2616 0.0
C2127 C 0.52801 0.91212 0.25919 0.0
C2128 C 0.53046 0.88697 0.26577 0.0
C2129 C 0.54939 0.87855 0.2747 0.0
C2130 C 0.56593 0.89525 0.27697 0.0
C2131 C 0.57243 0.03792 0.3137 0.0
C2132 C 0.58057 0.04134 0.33806 0.0
C2133 C 0.57811 0.01728 0.29888 0.0
C2134 C 0.59112 -0.00118 0.30868 0.0
C2135 C 0.59768 0.001 0.33385 0.0
C2136 C 0.59312 0.02244 0.34808 0.0
C2137 C 0.5954 0.97588 0.29355 0.0
C2138 C 0.57902 0.95913 0.28914 0.0
C2139 C 0.61458 0.97129 0.28188 0.0
C2140 C 0.63254 -0.01146 0.28468 0.0
C2141 C 0.64141 -0.00623 0.30837 0.0
C2142 C 0.65793 0.01054 0.31057 0.0
C2143 C 0.66628 0.02149 0.28906 0.0
C2144 C 0.65849 0.01513 0.26528 0.0
C2145 C 0.64192 -0.00149 0.26311 0.0
H2146 H 0.67909 0.03441 0.29076 0.0
H2147 H 0.51768 0.874 0.26399 0.0
H2148 H 0.84482 0.82558 0.00058 0.0
H2149 H 0.81289 0.82867 0.02336 0.0
H2150 H 0.78249 0.85374 0.95561 0.0
H2151 H 0.8145 0.85109 0.93271 0.0
H2152 H 0.77069 0.88049 -0.01096 0.0
H2153 H 0.77681 0.78982 0.98707 0.0
H2154 H 0.79397 0.74943 -0.0061 0.0
H2155 H 0.79879 0.76565 0.07315 0.0
H2156 H 0.78176 0.80633 0.06669 0.0
H2157 H 0.67638 0.8157 0.04259 0.0
H2158 H 0.70685 0.82413 0.01783 0.0
H2159 H 0.72529 0.8812 0.07146 0.0
H2160 H 0.69329 0.87493 0.09471 0.0
H2161 H 0.74395 0.81683 0.04822 0.0
H2162 H 0.73624 0.91091 0.04446 0.0
H2163 H 0.71731 0.94877 0.03214 0.0
H2164 H 0.71428 0.92213 0.9556 0.0
H2165 H 0.73279 0.88387 0.96772 0.0
C2166 C 0.83119 0.83107 -0.00973 0.0
C2167 C 0.83219 0.83812 0.96478 0.0
C2168 C 0.81283 0.83264 0.00337 0.0
C2169 C 0.79494 0.84054 -0.00893 0.0
C2170 C 0.79584 0.84678 0.96538 0.0
C2171 C 0.81422 0.84533 0.95226 0.0
C2172 C 0.77565 0.84399 0.00526 0.0
C2173 C 0.76477 0.86638 0.00178 0.0
C2174 C 0.76811 0.82592 0.0224 0.0
C2175 C 0.77813 0.80127 0.02631 0.0
C2176 C 0.78157 0.78487 0.00591 0.0
C2177 C 0.79128 0.76189 0.00973 0.0
C2178 C 0.79751 0.75499 0.03394 0.0
C2179 C 0.79396 0.77102 0.0544 0.0
C2180 C 0.78424 0.79403 0.05066 0.0
C2181 C 0.68624 0.83123 0.04817 0.0
C2182 C 0.68212 0.84527 0.07009 0.0
C2183 C 0.70369 0.83596 0.03404 0.0
C2184 C 0.71804 0.8539 0.04224 0.0
C2185 C 0.71389 0.86838 0.06386 0.0
C2186 C 0.69569 0.86458 0.07733 0.0
C2187 C 0.73877 0.8529 0.03129 0.0
C2188 C 0.75001 0.83091 0.03551 0.0
C2189 C 0.74628 0.87093 0.01421 0.0
C2190 C 0.73479 0.89378 0.00734 0.0
C2191 C 0.73083 0.91263 0.02526 0.0
C2192 C 0.72045 0.93439 0.01822 0.0
C2193 C 0.71429 0.9377 -0.00682 0.0
C2194 C 0.71881 0.91946 0.97506 0.0
C2195 C 0.72922 0.89773 0.98204 0.0
H2196 H 0.7062 0.95451 0.98777 0.0
H2197 H 0.80506 0.73721 0.03686 0.0
H2198 H 0.88518 0.04226 0.67453 0.0
H2199 H 0.87987 0.0066 0.70242 0.0
H2200 H 0.8264 0.9846 0.65908 0.0
H2201 H 0.83285 0.01891 0.6299 0.0
H2202 H 0.85474 -0.00408 0.73286 0.0
H2203 H 0.81085 0.92673 0.66698 0.0
H2204 H 0.81176 0.91317 0.62238 0.0
H2205 H 0.87524 0.93451 0.61805 0.0
H2206 H 0.87473 0.94808 0.66262 0.0
H2207 H 0.79054 0.89477 0.79129 0.0
H2208 H 0.79891 0.92532 0.75822 0.0
H2209 H 0.86209 0.90228 0.7607 0.0
H2210 H 0.85364 0.8708 0.79268 0.0
H2211 H 0.83164 0.91116 0.708 0.0
H2212 H 0.88203 0.97596 0.77727 0.0
H2213 H 0.88246 0.01165 0.81878 0.0
H2214 H 0.80653 0.00834 0.82171 0.0
H2215 H 0.80604 0.97386 0.77962 0.0
C2216 C 0.87245 0.02962 0.67076 0.0
C2217 C 0.85942 0.03357 0.64998 0.0
C2218 C 0.86933 0.00915 0.68684 0.0
C2219 C 0.85281 -0.00769 0.68304 0.0
C2220 C 0.83972 -0.00357 0.66226 0.0
C2221 C 0.84325 0.01641 0.64567 0.0
C2222 C 0.84845 0.97177 0.70179 0.0
C2223 C 0.84967 0.97754 0.72762 0.0
C2224 C 0.84216 0.94721 0.69472 0.0
C2225 C 0.8427 0.93855 0.66809 0.0
C2226 C 0.82503 0.92837 0.65655 0.0
C2227 C 0.82546 0.92076 0.63126 0.0
C2228 C 0.84353 0.92302 0.61739 0.0
C2229 C 0.86123 0.93285 0.62879 0.0
C2230 C 0.86087 0.94055 0.65404 0.0
C2231 C 0.80613 0.89592 0.78444 0.0
C2232 C 0.82149 0.8806 0.79483 0.0
C2233 C 0.81089 0.91344 0.76565 0.0
C2234 C 0.83127 0.91674 0.75781 0.0
C2235 C 0.8464 0.90055 0.7671 0.0
C2236 C 0.84151 0.88241 0.78519 0.0
C2237 C 0.83674 0.93645 0.73933 0.0
C2238 C 0.83627 0.93002 0.71352 0.0
C2239 C 0.84374 0.96072 0.74662 0.0
C2240 C 0.84412 0.97077 0.77307 0.0
C2241 C 0.86782 0.98254 0.78525 0.0
C2242 C 0.86807 0.0055 0.81046 0.0
C2243 C 0.84427 0.01601 0.82376 0.0
C2244 C 0.8208 0.00253 0.81322 0.0
C2245 C 0.82052 0.98034 0.78741 0.0
H2246 H 0.84433 0.02961 0.83899 0.0
H2247 H 0.84382 0.91714 0.59781 0.0
H2248 H 0.80466 0.09331 0.55565 0.0
H2249 H 0.7745 0.09365 0.52798 0.0
H2250 H 0.8011 0.15484 0.48602 0.0
H2251 H 0.83044 0.15519 0.5142 0.0
H2252 H 0.76609 0.16346 0.48407 0.0
H2253 H 0.79868 0.08498 0.46802 0.0
H2254 H 0.81323 0.04354 0.47784 0.0
H2255 H 0.75468 0.01857 0.50502 0.0
H2256 H 0.73985 0.05999 0.49562 0.0
H2257 H 0.70821 0.15447 0.37467 0.0
H2258 H 0.73693 0.14607 0.40282 0.0
H2259 H 0.69743 0.10127 0.44984 0.0
H2260 H 0.66896 0.10766 0.41969 0.0
H2261 H 0.73666 0.08393 0.45066 0.0
H2262 H 0.70484 0.16466 0.45439 0.0
H2263 H 0.69389 0.20643 0.44062 0.0
H2264 H 0.75668 0.22809 0.42947 0.0
H2265 H 0.76804 0.18623 0.44278 0.0
C2266 C 0.80365 0.10741 0.54109 0.0
C2267 C 0.81994 0.12431 0.53728 0.0
C2268 C 0.78657 0.10723 0.52475 0.0
C2269 C 0.78534 0.12396 0.50426 0.0
C2270 C 0.8012 0.14174 0.50154 0.0
C2271 C 0.81811 0.142 0.51783 0.0
C2272 C 0.7679 0.12316 0.48545 0.0
C2273 C 0.76003 0.14597 0.47651 0.0
C2274 C 0.75938 0.10047 0.47561 0.0
C2275 C 0.76823 0.07563 0.48138 0.0
C2276 C 0.78896 0.07069 0.47624 0.0
C2277 C 0.79724 0.04721 0.48172 0.0
C2278 C 0.7849 0.02846 0.49212 0.0
C2279 C 0.76423 0.03313 0.49701 0.0
C2280 C 0.75587 0.05659 0.4916 0.0
C2281 C 0.70569 0.1424 0.39073 0.0
C2282 C 0.68604 0.13267 0.39579 0.0
C2283 C 0.72216 0.13762 0.40686 0.0
C2284 C 0.71921 0.12398 0.42912 0.0
C2285 C 0.70004 0.11232 0.43307 0.0
C2286 C 0.68368 0.11627 0.41617 0.0
C2287 C 0.73545 0.12417 0.44911 0.0
C2288 C 0.74294 0.10132 0.45824 0.0
C2289 C 0.74424 0.14691 0.45833 0.0
C2290 C 0.73731 0.17205 0.44958 0.0
C2291 C 0.71634 0.17816 0.44875 0.0
C2292 C 0.71005 0.20192 0.44104 0.0
C2293 C 0.72458 0.21992 0.43414 0.0
C2294 C 0.74543 0.21413 0.43484 0.0
C2295 C 0.75179 0.19036 0.4425 0.0
H2296 H 0.71969 0.23836 0.42828 0.0
H2297 H 0.79134 0.01029 0.49634 0.0
H2298 H 0.60327 0.93979 0.11937 0.0
H2299 H 0.61043 0.97803 0.14388 0.0
H2300 H 0.55902 0.96157 0.19197 0.0
H2301 H 0.55117 0.92414 0.16678 0.0
H2302 H 0.56074 0.01059 0.18075 0.0
H2303 H 0.61325 0.94635 0.19889 0.0
H2304 H 0.64258 0.91899 0.18861 0.0
H2305 H 0.67996 0.9839 0.17492 0.0
H2306 H 0.65057 0.01136 0.1844 0.0
H2307 H 0.57134 0.09077 0.28749 0.0
H2308 H 0.56575 0.06249 0.25211 0.0
H2309 H 0.63165 0.05441 0.24489 0.0
H2310 H 0.63625 0.07767 0.28355 0.0
H2311 H 0.61399 0.00981 0.20875 0.0
H2312 H 0.58266 0.08354 0.19684 0.0
H2313 H 0.55573 0.11571 0.19408 0.0
H2314 H 0.5098 0.0603 0.21088 0.0
H2315 H 0.53646 0.02785 0.21408 0.0
C2316 C 0.59358 0.94422 0.13528 0.0
C2317 C 0.57698 0.92844 0.14154 0.0
C2318 C 0.5977 0.96613 0.14931 0.0
C2319 C 0.58562 0.97244 0.17028 0.0
C2320 C 0.56874 0.95704 0.17609 0.0
C2321 C 0.5644 0.93544 0.16183 0.0
C2322 C 0.59035 -0.00525 0.18653 0.0
C2323 C 0.57506 0.01265 0.19109 0.0
C2324 C 0.61093 -0.0005 0.1991 0.0
C2325 C 0.6295 0.98074 0.19132 0.0
C2326 C 0.62756 0.95461 0.19312 0.0
C2327 C 0.6442 0.93913 0.1876 0.0
C2328 C 0.66305 0.94966 0.18094 0.0
C2329 C 0.66529 0.9757 0.17981 0.0
C2330 C 0.64862 -0.00882 0.18511 0.0
C2331 C 0.58448 0.08235 0.27842 0.0
C2332 C 0.60407 0.08532 0.28904 0.0
C2333 C 0.5814 0.06673 0.2572 0.0
C2334 C 0.59817 0.05606 0.24418 0.0
C2335 C 0.61799 0.06128 0.25406 0.0
C2336 C 0.62079 0.07481 0.27646 0.0
C2337 C 0.59581 0.03739 0.22248 0.0
C2338 C 0.61278 0.02204 0.21833 0.0
C2339 C 0.57772 0.03385 0.2073 0.0
C2340 C 0.5616 0.0533 0.2059 0.0
C2341 C 0.56683 0.07825 0.20011 0.0
C2342 C 0.55161 0.09653 0.19846 0.0
C2343 C 0.53108 0.09006 0.20236 0.0
C2344 C 0.52572 0.06529 0.20791 0.0
C2345 C 0.54087 0.04694 0.20963 0.0
H2346 H 0.51932 0.10423 0.20104 0.0
H2347 H 0.67595 0.93766 0.17684 0.0
H2348 H 0.62026 0.8553 0.05999 0.0
H2349 H 0.65192 0.8546 0.0367 0.0
H2350 H 0.6241 0.80658 0.98007 0.0
H2351 H 0.59195 0.80785 0.00318 0.0
H2352 H 0.65938 0.79259 0.98212 0.0
H2353 H 0.63258 0.877 0.97676 0.0
H2354 H 0.61936 0.91618 -0.00447 0.0
H2355 H 0.67616 0.92713 0.03562 0.0
H2356 H 0.68958 0.88802 0.01715 0.0
H2357 H 0.73883 0.85648 0.89483 0.0
H2358 H 0.70596 0.85822 0.91762 0.0
H2359 H 0.7316 0.81272 0.97666 0.0
H2360 H 0.7634 0.80905 0.95285 0.0
H2361 H 0.69533 0.87331 0.96772 0.0
H2362 H 0.7136 0.77509 0.97686 0.0
H2363 H 0.7212 0.7363 0.9531 0.0
H2364 H 0.67381 0.75368 0.89962 0.0
H2365 H 0.66704 0.79343 0.92198 0.0
C2366 C 0.62108 0.8438 0.04309 0.0
C2367 C 0.60357 0.83177 0.03339 0.0
C2368 C 0.63933 0.84347 0.02956 0.0
C2369 C 0.64075 0.83061 0.00636 0.0
C2370 C 0.62366 0.81671 -0.00216 0.0
C2371 C 0.60525 0.81734 0.01116 0.0
C2372 C 0.6596 0.8323 -0.00949 0.0
C2373 C 0.6673 0.81032 0.97938 0.0
C2374 C 0.66979 0.85541 0.98581 0.0
C2375 C 0.66209 0.87965 -0.00441 0.0
C2376 C 0.64227 0.88789 -0.01055 0.0
C2377 C 0.63472 0.91004 7e-05 0.0
C2378 C 0.64693 0.92417 0.01671 0.0
C2379 C 0.66675 0.91625 0.02265 0.0
C2380 C 0.67435 0.89415 0.01205 0.0
C2381 C 0.73749 0.84731 0.91292 0.0
C2382 C 0.75375 0.83292 0.92238 0.0
C2383 C 0.71866 0.84801 0.92574 0.0
C2384 C 0.71602 0.83456 0.94826 0.0
C2385 C 0.73285 0.82204 0.95865 0.0
C2386 C 0.75123 0.82056 0.94546 0.0
C2387 C 0.69592 0.83353 0.9613 0.0
C2388 C 0.68776 0.85565 0.97135 0.0
C2389 C 0.68509 0.81072 0.96462 0.0
C2390 C 0.69038 0.78766 0.95052 0.0
C2391 C 0.70535 0.77109 0.95952 0.0
C2392 C 0.7095 0.74891 0.94629 0.0
C2393 C 0.69829 0.74275 0.92453 0.0
C2394 C 0.68292 0.75877 0.91598 0.0
C2395 C 0.67907 0.78124 0.92878 0.0
H2396 H 0.70131 0.72542 0.9145 0.0
H2397 H 0.64102 0.94123 0.02504 0.0
H2398 H 0.93244 0.82731 0.93618 0.0
H2399 H -0.01311 0.79272 0.92476 0.0
H2400 H 0.95327 0.77111 0.84666 0.0
H2401 H 0.91864 0.7934 0.85466 0.0
H2402 H -0.02855 0.73695 0.85676 0.0
H2403 H 0.00282 0.81731 0.86098 0.0
H2404 H 0.01274 0.85887 0.87801 0.0
H2405 H 0.04248 0.82388 0.94097 0.0
H2406 H 0.0329 0.78211 0.92416 0.0
H2407 H 0.06744 0.67862 0.82265 0.0
H2408 H 0.03699 0.70498 0.82374 0.0
H2409 H 0.04777 0.71917 0.90316 0.0
H2410 H 0.07836 0.69351 0.90164 0.0
H2411 H 0.04246 0.75965 0.88128 0.0
H2412 H 0.01125 0.67578 0.86524 0.0
H2413 H 0.00209 0.63914 0.83938 0.0
H2414 H -0.02649 0.68703 0.78495 0.0
H2415 H -0.0177 0.72411 0.81089 0.0
C2416 C 0.93812 0.81596 0.92048 0.0
C2417 C 0.92208 0.81099 0.89557 0.0
C2418 C -0.02672 0.79439 0.91282 0.0
C2419 C -0.02685 0.77952 0.88389 0.0
C2420 C 0.9521 0.78015 0.8649 0.0
C2421 C 0.92939 0.7942 0.87023 0.0
C2422 C -0.00918 0.76472 0.8753 0.0
C2423 C -0.01301 0.7424 0.86166 0.0
C2424 C 0.0112 0.77162 0.88119 0.0
C2425 C 0.01694 0.79664 0.89145 0.0
C2426 C 0.01143 0.81851 0.87848 0.0
C2427 C 0.01707 0.84208 0.88804 0.0
C2428 C 0.02815 0.84402 0.91062 0.0
C2429 C 0.03385 0.82236 0.92352 0.0
C2430 C 0.02844 0.79873 0.9139 0.0
C2431 C 0.06244 0.68628 0.84057 0.0
C2432 C 0.07455 0.68378 0.86227 0.0
C2433 C 0.04525 0.70152 0.84113 0.0
C2434 C 0.03968 0.71338 0.86372 0.0
C2435 C 0.05135 0.70951 0.88571 0.0
C2436 C 0.06864 0.69465 0.88503 0.0
C2437 C 0.02273 0.73133 0.86466 0.0
C2438 C 0.02681 0.75464 0.87618 0.0
C2439 C 0.00274 0.72572 0.85567 0.0
C2440 C -0.00258 0.70295 0.84034 0.0
C2441 C 0.00278 0.67864 0.84809 0.0
C2442 C -0.00222 0.65771 0.83323 0.0
C2443 C -0.01267 0.66075 0.81042 0.0
C2444 C -0.0183 0.6847 0.80258 0.0
C2445 C -0.01334 0.70568 0.81744 0.0
H2446 H -0.01652 0.64452 0.79891 0.0
H2447 H 0.03236 0.8623 0.91808 0.0
H2448 H 0.43723 0.68104 0.04359 0.0
H2449 H 0.46757 0.70598 0.0534 0.0
H2450 H 0.46603 0.68017 0.13027 0.0
H2451 H 0.43486 0.65557 0.12072 0.0
H2452 H 0.47865 0.72873 0.12767 0.0
H2453 H 0.49791 0.65269 0.0916 0.0
H2454 H 0.49884 0.61659 0.06237 0.0
H2455 H 0.51753 0.66503 0.00223 0.0
H2456 H 0.51638 0.70157 0.03101 0.0
H2457 H 0.58209 0.76784 0.14547 0.0
H2458 H 0.55091 0.74229 0.14261 0.0
H2459 H 0.54486 0.76126 0.06383 0.0
H2460 H 0.57697 0.78569 0.06649 0.0
H2461 H 0.53736 0.71278 0.07133 0.0
H2462 H 0.52288 0.78901 0.11671 0.0
H2463 H 0.52251 0.82048 0.15043 0.0
H2464 H 0.49848 0.76587 0.20167 0.0
H2465 H 0.49815 0.73401 0.16786 0.0
C2466 C 0.44289 0.68116 0.06282 0.0
C2467 C 0.43355 0.66624 0.08137 0.0
C2468 C 0.46045 0.69524 0.06831 0.0
C2469 C 0.46941 0.69439 0.09237 0.0
C2470 C 0.45946 0.68088 0.11148 0.0
C2471 C 0.4416 0.66694 0.10605 0.0
C2472 C 0.48965 0.70674 0.09681 0.0
C2473 C 0.49156 0.72506 0.11574 0.0
C2474 C 0.50664 0.70168 0.08114 0.0
C2475 C 0.50678 0.67996 0.06342 0.0
C2476 C 0.50193 0.65574 0.07205 0.0
C2477 C 0.50256 0.63517 0.05558 0.0
C2478 C 0.50816 0.63853 0.03043 0.0
C2479 C 0.51314 0.66248 0.0217 0.0
C2480 C 0.5125 0.68313 0.03809 0.0
C2481 C 0.57379 0.76691 0.12771 0.0
C2482 C 0.5813 0.77925 0.10639 0.0
C2483 C 0.55613 0.75218 0.12603 0.0
C2484 C 0.54529 0.75031 0.10318 0.0
C2485 C 0.55286 0.7627 0.08174 0.0
C2486 C 0.57093 0.77692 0.08329 0.0
C2487 C 0.52593 0.73568 0.10171 0.0
C2488 C 0.52434 0.71662 0.08339 0.0
C2489 C 0.50947 0.73962 0.11869 0.0
C2490 C 0.51006 0.75901 0.13925 0.0
C2491 C 0.51708 0.78364 0.13487 0.0
C2492 C 0.5171 0.80163 0.15413 0.0
C2493 C 0.5103 0.79527 0.17816 0.0
C2494 C 0.50358 0.77085 0.18296 0.0
C2495 C 0.50336 0.75284 0.16365 0.0
H2496 H 0.51036 0.80921 0.1931 0.0
H2497 H 0.50872 0.62256 0.01774 0.0
H2498 H 0.01332 0.3031 0.59933 0.0
H2499 H -0.01734 0.27569 0.59845 0.0
H2500 H 0.9618 0.31271 0.5313 0.0
H2501 H -0.00671 0.33654 0.52953 0.0
H2502 H 0.94143 0.29406 0.59758 0.0
H2503 H 0.95291 0.28602 0.50169 0.0
H2504 H -0.02483 0.2754 0.46594 0.0
H2505 H -0.01275 0.20348 0.4985 0.0
H2506 H 0.96581 0.21432 0.53485 0.0
H2507 H 0.84739 0.22465 0.54596 0.0
H2508 H 0.87928 0.24806 0.53733 0.0
H2509 H 0.90747 0.21455 0.60256 0.0
H2510 H 0.87656 0.1896 0.6098 0.0
H2511 H 0.9234 0.2306 0.53197 0.0
H2512 H 0.91891 0.25408 0.63418 0.0
H2513 H 0.89296 0.2654 0.66608 0.0
H2514 H 0.85987 0.3076 0.61059 0.0
H2515 H 0.88547 0.29619 0.5784 0.0
C2516 C 0.00271 0.30425 0.58362 0.0
C2517 C 0.00665 0.32056 0.56349 0.0
C2518 C -0.01488 0.28881 0.58322 0.0
C2519 C -0.02925 0.29048 0.56334 0.0
C2520 C -0.02636 0.3088 0.54499 0.0
C2521 C -0.00844 0.32304 0.54456 0.0
C2522 C 0.95144 0.2756 0.56348 0.0
C2523 C 0.93774 0.28001 0.58333 0.0
C2524 C 0.94592 0.25808 0.54413 0.0
C2525 C 0.95932 0.25202 0.52239 0.0
C2526 C 0.96128 0.26861 0.50205 0.0
C2527 C -0.02654 0.26234 0.48133 0.0
C2528 C -0.01694 0.23901 0.48021 0.0
C2529 C -0.01978 0.22179 0.49961 0.0
C2530 C 0.96824 0.22815 0.52045 0.0
C2531 C 0.8608 0.22149 0.55764 0.0
C2532 C 0.85984 0.20491 0.5781 0.0
C2533 C 0.87885 0.23496 0.55286 0.0
C2534 C 0.89574 0.23273 0.56916 0.0
C2535 C 0.89476 0.21603 0.58944 0.0
C2536 C 0.87716 0.20172 0.59348 0.0
C2537 C 0.91406 0.24884 0.56628 0.0
C2538 C 0.92735 0.24472 0.54605 0.0
C2539 C 0.919 0.2672 0.58458 0.0
C2540 C 0.90405 0.27442 0.60408 0.0
C2541 C 0.90614 0.26589 0.62893 0.0
C2542 C 0.89146 0.27221 0.64698 0.0
C2543 C 0.87479 0.28724 0.64038 0.0
C2544 C 0.87275 0.29593 0.61569 0.0
C2545 C 0.88728 0.28948 0.59753 0.0
H2546 H 0.86346 0.29214 0.65438 0.0
H2547 H -0.0076 0.23413 0.46412 0.0
H2548 H -0.01387 0.62819 0.91021 0.0
H2549 H 0.95593 0.65419 0.90837 0.0
H2550 H -0.00503 0.72029 0.91038 0.0
H2551 H 0.02369 0.69367 0.91931 0.0
H2552 H 0.96774 0.73965 0.91817 0.0
H2553 H 0.95655 0.67789 0.84969 0.0
H2554 H 0.95191 0.63532 0.83144 0.0
H2555 H 0.90269 0.62102 0.88289 0.0
H2556 H 0.90719 0.6633 0.90146 0.0
H2557 H 0.8649 0.77575 0.85125 0.0
H2558 H 0.89664 0.7516 0.85266 0.0
H2559 H 0.90013 0.76262 0.93325 0.0
H2560 H 0.86726 0.78529 0.93204 0.0
H2561 H 0.90425 0.70841 0.878 0.0
H2562 H 0.94455 0.76347 0.95317 0.0
H2563 H 0.96334 0.8032 0.97456 0.0
H2564 H -0.02526 0.85589 0.90309 0.0
H2565 H 0.95814 0.82457 0.86758 0.0
C2566 C -0.01197 0.64839 0.90972 0.0
C2567 C 0.00764 0.65909 0.91225 0.0
C2568 C -0.02943 0.6636 0.9078 0.0
C2569 C -0.0278 0.69006 0.90603 0.0
C2570 C -0.00793 0.70037 0.91031 0.0
C2571 C 0.00917 0.68512 0.91451 0.0
C2572 C 0.95371 0.70694 0.9007 0.0
C2573 C 0.9546 0.73257 0.90789 0.0
C2574 C 0.93527 0.69879 0.88834 0.0
C2575 C 0.93244 0.67354 0.87708 0.0
C2576 C 0.94486 0.66555 0.85709 0.0
C2577 C 0.94224 0.64153 0.84673 0.0
C2578 C 0.9271 0.62547 0.85608 0.0
C2579 C 0.91445 0.63345 0.8757 0.0
C2580 C 0.917 0.65743 0.88612 0.0
C2581 C 0.87272 0.77354 0.86918 0.0
C2582 C 0.86417 0.78318 0.89142 0.0
C2583 C 0.89066 0.75945 0.87001 0.0
C2584 C 0.90103 0.75586 0.89294 0.0
C2585 C 0.89263 0.76571 0.91527 0.0
C2586 C 0.87404 0.77883 0.91458 0.0
C2587 C 0.91994 0.74056 0.89351 0.0
C2588 C 0.91859 0.71532 0.88598 0.0
C2589 C 0.93894 0.74997 0.90223 0.0
C2590 C 0.9432 0.77736 0.90932 0.0
C2591 C 0.94836 0.7792 0.94124 0.0
C2592 C 0.96064 0.80421 0.95445 0.0
C2593 C -0.03048 0.83058 0.94005 0.0
C2594 C 0.96816 0.83828 0.90916 0.0
C2595 C 0.95709 0.81883 0.88732 0.0
H2596 H -0.02297 0.84419 0.95223 0.0
H2597 H 0.92513 0.60687 0.84807 0.0
H2598 H 0.34276 0.23557 0.37176 0.0
H2599 H 0.37451 0.21246 0.37295 0.0
H2600 H 0.40876 0.28192 0.36941 0.0
H2601 H 0.37673 0.3052 0.36644 0.0
H2602 H 0.42521 0.25337 0.3402 0.0
H2603 H 0.40288 0.23893 0.42524 0.0
H2604 H 0.3801 0.22565 0.45959 0.0
H2605 H 0.37867 0.15073 0.42935 0.0
H2606 H 0.40142 0.16369 0.39472 0.0
H2607 H 0.5046 0.18528 0.41768 0.0
H2608 H 0.47622 0.21121 0.40521 0.0
H2609 H 0.46982 0.16843 0.33647 0.0
H2610 H 0.501 0.14509 0.3468 0.0
H2611 H 0.43935 0.18148 0.39615 0.0
H2612 H 0.46684 0.20118 0.31141 0.0
H2613 H 0.49284 0.21875 0.28307 0.0
H2614 H 0.48545 0.29123 0.31738 0.0
H2615 H 0.4603 0.27364 0.34698 0.0
C2616 C 0.35702 0.2461 0.3718 0.0
C2617 C 0.35718 0.27236 0.36908 0.0
C2618 C 0.3753 0.23275 0.3727 0.0
C2619 C 0.39424 0.24533 0.37193 0.0
C2620 C 0.39442 0.27169 0.37042 0.0
C2621 C 0.37608 0.28507 0.36893 0.0
C2622 C 0.41375 0.23097 0.37081 0.0
C2623 C 0.42841 0.23785 0.35273 0.0
C2624 C 0.41773 0.21015 0.38655 0.0
C2625 C 0.40379 0.20241 0.40724 0.0
C2626 C 0.39767 0.2197 0.42583 0.0
C2627 C 0.38476 0.2122 0.44538 0.0
C2628 C 0.3779 0.18737 0.44663 0.0
C2629 C 0.38398 0.16998 0.42835 0.0
C2630 C 0.39692 0.17739 0.40878 0.0
C2631 C 0.49849 0.18276 0.39883 0.0
C2632 C 0.50601 0.16402 0.38257 0.0
C2633 C 0.482 0.19756 0.39185 0.0
C2634 C 0.47155 0.193 0.36916 0.0
C2635 C 0.47858 0.17388 0.353 0.0
C2636 C 0.49618 0.16013 0.35921 0.0
C2637 C 0.45105 0.20446 0.36619 0.0
C2638 C 0.43607 0.19695 0.38356 0.0
C2639 C 0.44719 0.22528 0.35045 0.0
C2640 C 0.4626 0.23558 0.33265 0.0
C2641 C 0.4715 0.22048 0.31389 0.0
C2642 C 0.48589 0.23058 0.29727 0.0
C2643 C 0.49103 0.25602 0.29865 0.0
C2644 C 0.48162 0.27146 0.31645 0.0
C2645 C 0.46738 0.26135 0.33324 0.0
H2646 H 0.50213 0.26384 0.28573 0.0
H2647 H 0.36789 0.18159 0.46177 0.0
H2648 H 0.93887 0.13494 0.62567 0.0
H2649 H -0.02956 0.1597 0.63169 0.0
H2650 H 0.95119 0.20981 0.57287 0.0
H2651 H 0.92152 0.18301 0.56423 0.0
H2652 H -0.01156 0.2012 0.56489 0.0
H2653 H 0.95209 0.22384 0.6419 0.0
H2654 H 0.93457 0.21463 0.68198 0.0
H2655 H -0.0117 0.17709 0.70929 0.0
H2656 H 0.00604 0.1859 0.6693 0.0
H2657 H 0.06537 0.29678 0.58891 0.0
H2658 H 0.03388 0.27241 0.58143 0.0
H2659 H 0.05197 0.21982 0.63871 0.0
H2660 H 0.08364 0.24328 0.64533 0.0
H2661 H 0.01517 0.23066 0.64752 0.0
H2662 H 0.04868 0.20328 0.56774 0.0
H2663 H 0.06708 0.21402 0.52857 0.0
H2664 H 0.01888 0.26455 0.50796 0.0
H2665 H 0.00025 0.25384 0.54682 0.0
C2666 C 0.94127 0.15151 0.61433 0.0
C2667 C 0.92734 0.15747 0.59499 0.0
C2668 C 0.95938 0.16574 0.61774 0.0
C2669 C 0.96343 0.18693 0.60265 0.0
C2670 C 0.94892 0.19332 0.5842 0.0
C2671 C 0.93161 0.17833 0.57979 0.0
C2672 C -0.01706 0.202 0.605 0.0
C2673 C -0.00613 0.20815 0.58296 0.0
C2674 C -0.00909 0.21037 0.62853 0.0
C2675 C -0.0197 0.20538 0.6526 0.0
C2676 C 0.96011 0.21356 0.65644 0.0
C2677 C 0.95015 0.20841 0.67914 0.0
C2678 C 0.9603 0.19525 0.69815 0.0
C2679 C -0.01955 0.18727 0.69455 0.0
C2680 C -0.00953 0.19237 0.67191 0.0
C2681 C 0.06242 0.28018 0.60003 0.0
C2682 C 0.07679 0.27215 0.61794 0.0
C2683 C 0.04437 0.26619 0.59579 0.0
C2684 C 0.04002 0.24452 0.60999 0.0
C2685 C 0.05458 0.23662 0.62776 0.0
C2686 C 0.07274 0.25009 0.63152 0.0
C2687 C 0.02021 0.23031 0.60738 0.0
C2688 C 0.00936 0.22419 0.62938 0.0
C2689 C 0.01221 0.22222 0.58384 0.0
C2690 C 0.02298 0.2276 0.55997 0.0
C2691 C 0.04196 0.21649 0.5547 0.0
C2692 C 0.05244 0.22258 0.53258 0.0
C2693 C 0.0441 0.23985 0.51571 0.0
C2694 C 0.02525 0.25102 0.5209 0.0
C2695 C 0.01467 0.24481 0.54286 0.0
H2696 H 0.05228 0.24465 0.49868 0.0
H2697 H 0.95256 0.19125 0.71569 0.0
H2698 H 0.33747 0.73114 0.06748 0.0
H2699 H 0.37051 0.7522 0.06228 0.0
H2700 H 0.40038 0.69172 0.10126 0.0
H2701 H 0.36763 0.67031 0.1061 0.0
H2702 H 0.40812 0.73451 0.12342 0.0
H2703 H 0.4073 0.70545 0.03748 0.0
H2704 H 0.39374 0.69996 -0.00564 0.0
H2705 H 0.39343 0.77983 0.98449 0.0
H2706 H 0.407 0.78583 0.02761 0.0
H2707 H 0.50968 0.78033 0.06487 0.0
H2708 H 0.47881 0.75464 0.07031 0.0
H2709 H 0.44942 0.8169 0.10718 0.0
H2710 H 0.4811 0.84141 0.10464 0.0
H2711 H 0.44137 0.77294 0.0492 0.0
H2712 H 0.43473 0.80077 0.13996 0.0
H2713 H 0.44694 0.80489 0.1837 0.0
H2714 H 0.45562 0.72526 0.18718 0.0
H2715 H 0.44442 0.72101 0.14293 0.0
C2716 C 0.35119 0.72188 0.07413 0.0
C2717 C 0.34989 0.69927 0.08758 0.0
C2718 C 0.37009 0.73393 0.07109 0.0
C2719 C 0.38796 0.72349 0.08134 0.0
C2720 C 0.38686 0.69993 0.09291 0.0
C2721 C 0.36805 0.68773 0.09569 0.0
C2722 C 0.40716 0.73845 0.08307 0.0
C2723 C 0.41555 0.74272 0.10715 0.0
C2724 C 0.41638 0.74975 0.0619 0.0
C2725 C 0.40824 0.74607 0.03587 0.0
C2726 C 0.4044 0.72185 0.02616 0.0
C2727 C 0.39668 0.71865 0.00169 0.0
C2728 C 0.39274 0.73953 0.98668 0.0
C2729 C 0.39654 0.76366 -0.00389 0.0
C2730 C 0.4043 0.76696 0.02055 0.0
C2731 C 0.49701 0.78787 0.07557 0.0
C2732 C 0.49803 0.81231 0.0855 0.0
C2733 C 0.47938 0.77323 0.07867 0.0
C2734 C 0.46215 0.78305 0.09096 0.0
C2735 C 0.463 0.80784 0.10013 0.0
C2736 C 0.48101 0.8221 0.09812 0.0
C2737 C 0.44249 0.7689 0.08962 0.0
C2738 C 0.43396 0.76473 0.0655 0.0
C2739 C 0.43294 0.75793 0.11088 0.0
C2740 C 0.44062 0.76092 0.13718 0.0
C2741 C 0.44055 0.7844 0.14937 0.0
C2742 C 0.44684 0.78668 0.17454 0.0
C2743 C 0.45246 0.76542 0.1881 0.0
C2744 C 0.45159 0.74181 0.17658 0.0
C2745 C 0.4454 0.73952 0.15139 0.0
H2746 H 0.45722 0.76719 0.20762 0.0
H2747 H 0.38672 0.73701 0.96776 0.0
H2748 H 0.57474 0.37799 0.79775 0.0
H2749 H 0.57023 0.41163 0.76648 0.0
H2750 H 0.63581 0.42302 0.76616 0.0
H2751 H 0.63986 0.39201 0.79875 0.0
H2752 H 0.59127 0.45101 0.74217 0.0
H2753 H 0.65683 0.42462 0.71047 0.0
H2754 H 0.67423 0.38358 0.70783 0.0
H2755 H 0.61669 0.34563 0.71868 0.0
H2756 H 0.59905 0.38633 0.72115 0.0
H2757 H 0.59058 0.56227 0.64978 0.0
H2758 H 0.60439 0.53052 0.67771 0.0
H2759 H 0.55594 0.47956 0.65639 0.0
H2760 H 0.54289 0.51055 0.62685 0.0
H2761 H 0.62623 0.44097 0.67545 0.0
H2762 H 0.53986 0.49452 0.69259 0.0
H2763 H 0.51424 0.52644 0.70254 0.0
H2764 H 0.54536 0.54261 0.77233 0.0
H2765 H 0.57178 0.51181 0.76162 0.0
C2766 C 0.58796 0.3888 0.79182 0.0
C2767 C 0.60758 0.38326 0.8014 0.0
C2768 C 0.5854 0.40777 0.77381 0.0
C2769 C 0.6025 0.42058 0.76422 0.0
C2770 C 0.62208 0.41464 0.77379 0.0
C2771 C 0.6245 0.39673 0.79257 0.0
C2772 C 0.59988 0.43987 0.74161 0.0
C2773 C 0.58145 0.46436 0.74195 0.0
C2774 C 0.61603 0.43259 0.71727 0.0
C2775 C 0.62681 0.40842 0.71678 0.0
C2776 C 0.64799 0.40749 0.71251 0.0
C2777 C 0.65786 0.3843 0.71098 0.0
C2778 C 0.6466 0.36203 0.7134 0.0
C2779 C 0.62544 0.36287 0.71715 0.0
C2780 C 0.61553 0.38597 0.71871 0.0
C2781 C 0.58241 0.54466 0.65196 0.0
C2782 C 0.5652 0.53915 0.63714 0.0
C2783 C 0.59022 0.52661 0.66818 0.0
C2784 C 0.5807 0.50315 0.67064 0.0
C2785 C 0.56355 0.49762 0.6554 0.0
C2786 C 0.55587 0.51545 0.63879 0.0
C2787 C 0.58852 0.48424 0.68972 0.0
C2788 C 0.61584 0.44812 0.68998 0.0
C2789 C 0.5759 0.48487 0.71856 0.0
C2790 C 0.55947 0.50305 0.72462 0.0
C2791 C 0.54232 0.50631 0.70886 0.0
C2792 C 0.52722 0.52379 0.71504 0.0
C2793 C 0.52854 0.53731 0.73764 0.0
C2794 C 0.54464 0.53278 0.7544 0.0
C2795 C 0.55978 0.51544 0.74812 0.0
H2796 H 0.5168 0.55074 0.74247 0.0
H2797 H 0.65422 0.34412 0.71227 0.0
H2798 H 0.81962 0.39932 0.03351 0.0
H2799 H 0.78556 0.39082 0.01678 0.0
H2800 H 0.79807 0.31145 0.01639 0.0
H2801 H 0.83278 0.31997 0.03351 0.0
H2802 H 0.78581 0.36009 0.97193 0.0
H2803 H 0.74992 0.30991 0.08977 0.0
H2804 H 0.73283 0.30804 0.12585 0.0
H2805 H 0.69302 0.36666 0.10521 0.0
H2806 H 0.70629 0.36917 0.06625 0.0
H2807 H 0.71182 0.31001 0.88675 0.0
H2808 H 0.74053 0.31276 0.91727 0.0
H2809 H 0.69923 0.34253 0.97201 0.0
H2810 H 0.67195 0.34431 0.9413 0.0
H2811 H 0.72323 0.31576 -0.00759 0.0
H2812 H 0.73419 0.38117 0.933 0.0
H2813 H 0.74098 0.39681 0.89013 0.0
H2814 H 0.79504 0.35143 0.88586 0.0
H2815 H 0.78844 0.33533 0.9286 0.0
C2816 C 0.81506 0.37996 0.03032 0.0
C2817 C 0.8287 0.36021 0.03504 0.0
C2818 C 0.79551 0.37518 0.021 0.0
C2819 C 0.78886 0.35046 0.0167 0.0
C2820 C 0.80265 0.33058 0.02068 0.0
C2821 C 0.82236 0.3354 0.03044 0.0
C2822 C 0.76854 0.34598 0.0041 0.0
C2823 C 0.77145 0.35169 0.9782 0.0
C2824 C 0.74809 0.33731 0.01531 0.0
C2825 C 0.7319 0.33925 0.06678 0.0
C2826 C 0.73767 0.32337 0.08911 0.0
C2827 C 0.72784 0.32185 0.11232 0.0
C2828 C 0.71189 0.33728 0.11822 0.0
C2829 C 0.7056 0.35427 0.10065 0.0
C2830 C 0.71467 0.35526 0.07684 0.0
C2831 C 0.7091 0.31777 0.90537 0.0
C2832 C 0.68956 0.32711 0.91169 0.0
C2833 C 0.72551 0.31925 0.92284 0.0
C2834 C 0.72237 0.32919 0.94723 0.0
C2835 C 0.70244 0.33642 0.95346 0.0
C2836 C 0.68661 0.33677 0.93583 0.0
C2837 C 0.73944 0.33413 0.9662 0.0
C2838 C 0.73668 0.32769 -0.00818 0.0
C2839 C 0.75687 0.34748 0.95975 0.0
C2840 C 0.7607 0.35686 0.93389 0.0
C2841 C 0.74744 0.3744 0.92285 0.0
C2842 C 0.75127 0.38336 0.89858 0.0
C2843 C 0.76839 0.37506 0.88525 0.0
C2844 C 0.78175 0.3578 0.89617 0.0
C2845 C 0.77797 0.34875 0.92041 0.0
H2846 H 0.77135 0.38205 0.86649 0.0
H2847 H 0.70445 0.3361 0.13637 0.0
H2848 H 0.85269 0.60565 0.25297 0.0
H2849 H 0.85868 0.57326 0.22103 0.0
H2850 H 0.81591 0.52419 0.25866 0.0
H2851 H 0.80976 0.55689 0.29053 0.0
H2852 H 0.87443 0.53045 0.22131 0.0
H2853 H 0.79206 0.49002 0.22505 0.0
H2854 H 0.75683 0.50665 0.22824 0.0
H2855 H 0.77587 0.57448 0.1916 0.0
H2856 H 0.81116 0.55837 0.18852 0.0
H2857 H 0.87174 0.4083 0.15774 0.0
H2858 H 0.86218 0.43888 0.19014 0.0
H2859 H 0.84844 0.49328 0.13312 0.0
H2860 H 0.85825 0.46326 0.10044 0.0
H2861 H 0.81759 0.48442 0.17858 0.0
H2862 H 0.89172 0.53202 0.16967 0.0
H2863 H 0.92816 0.52541 0.15926 0.0
H2864 H 0.92666 0.45408 0.1964 0.0
H2865 H 0.89052 0.46044 0.20722 0.0
C2866 C 0.84475 0.58781 0.25453 0.0
C2867 C 0.83109 0.58346 0.27444 0.0
C2868 C 0.8481 0.56936 0.23622 0.0
C2869 C 0.83759 0.54632 0.23719 0.0
C2870 C 0.82389 0.54199 0.25715 0.0
C2871 C 0.82075 0.56038 0.27569 0.0
C2872 C 0.84157 0.52648 0.21797 0.0
C2873 C 0.86193 0.5202 0.21237 0.0
C2874 C 0.82545 0.51378 0.2052 0.0
C2875 C 0.80414 0.52301 0.20658 0.0
C2876 C 0.78864 0.50839 0.21755 0.0
C2877 C 0.76871 0.51778 0.21945 0.0
C2878 C 0.76412 0.54159 0.21012 0.0
C2879 C 0.77944 0.55609 0.1989 0.0
C2880 C 0.7994 0.54689 0.19718 0.0
C2881 C 0.86644 0.42664 0.15205 0.0
C2882 C 0.86594 0.43335 0.1265 0.0
C2883 C 0.86089 0.44402 0.17061 0.0
C2884 C 0.85455 0.46819 0.16404 0.0
C2885 C 0.85329 0.47466 0.13857 0.0
C2886 C 0.85898 0.45746 0.11996 0.0
C2887 C 0.85035 0.48728 0.18364 0.0
C2888 C 0.82996 0.49395 0.18859 0.0
C2889 C 0.8665 0.50086 0.19534 0.0
C2890 C 0.88825 0.49653 0.18884 0.0
C2891 C 0.89918 0.5149 0.17552 0.0
C2892 C 0.91982 0.51122 0.16959 0.0
C2893 C 0.9297 0.48927 0.17702 0.0
C2894 C 0.91898 0.47101 0.19048 0.0
C2895 C 0.89837 0.47463 0.19645 0.0
H2896 H 0.94567 0.48645 0.17244 0.0
H2897 H 0.74869 0.54882 0.21158 0.0
H2898 H 0.77451 0.65356 0.42847 0.0
H2899 H 0.7431 0.65809 0.44564 0.0
H2900 H 0.7198 0.60635 0.38705 0.0
H2901 H 0.75221 0.6011 0.37429 0.0
H2902 H 0.67997 0.62923 0.45163 0.0
H2903 H 0.66765 0.56127 0.43337 0.0
H2904 H 0.67872 0.51723 0.42896 0.0
H2905 H 0.71189 0.52299 0.49891 0.0
H2906 H 0.70136 0.56655 0.50348 0.0
H2907 H 0.5966 0.58322 0.53034 0.0
H2908 H 0.62138 0.58451 0.49625 0.0
H2909 H 0.64425 0.65569 0.52419 0.0
H2910 H 0.61883 0.65466 0.55845 0.0
H2911 H 0.66069 0.58325 0.5009 0.0
H2912 H 0.648 0.68656 0.4851 0.0
H2913 H 0.61806 0.71393 0.47781 0.0
H2914 H 0.58714 0.65397 0.43829 0.0
H2915 H 0.61671 0.62625 0.44577 0.0
C2916 C 0.76233 0.64156 0.42117 0.0
C2917 C 0.76655 0.62423 0.40246 0.0
C2918 C 0.74245 0.64391 0.43098 0.0
C2919 C 0.72412 0.62769 0.4246 0.0
C2920 C 0.73028 0.61553 0.40015 0.0
C2921 C 0.75009 0.61212 0.39135 0.0
C2922 C 0.68611 0.62004 0.4527 0.0
C2923 C 0.668 0.63897 0.45377 0.0
C2924 C 0.67917 0.59546 0.46981 0.0
C2925 C 0.68505 0.56817 0.46763 0.0
C2926 C 0.67764 0.55328 0.44754 0.0
C2927 C 0.68376 0.52827 0.44507 0.0
C2928 C 0.69641 0.51749 0.46332 0.0
C2929 C 0.70251 0.53148 0.48441 0.0
C2930 C 0.69657 0.55648 0.48682 0.0
C2931 C 0.60691 0.59917 0.52918 0.0
C2932 C 0.60637 0.61855 0.54722 0.0
C2933 C 0.62101 0.59984 0.50976 0.0
C2934 C 0.63486 0.61987 0.50814 0.0
C2935 C 0.63364 0.64002 0.52533 0.0
C2936 C 0.61928 0.63945 0.54481 0.0
C2937 C 0.65097 0.61916 0.48885 0.0
C2938 C 0.66373 0.59841 0.4878 0.0
C2939 C 0.6519 0.63755 0.47048 0.0
C2940 C 0.63444 0.65444 0.46603 0.0
C2941 C 0.6348 0.67932 0.47485 0.0
C2942 C 0.61788 0.69483 0.47077 0.0
C2943 C 0.60071 0.6857 0.45761 0.0
C2944 C 0.60039 0.66101 0.44856 0.0
C2945 C 0.61716 0.64538 0.45282 0.0
H2946 H 0.58767 0.69774 0.45441 0.0
H2947 H 0.70125 0.49819 0.46133 0.0
H2948 H 0.62358 0.43085 0.8539 0.0
H2949 H 0.63664 0.46271 0.82424 0.0
H2950 H 0.57566 0.47063 0.79359 0.0
H2951 H 0.56292 0.43853 0.82228 0.0
H2952 H 0.62838 0.46187 0.76402 0.0
H2953 H 0.56898 0.51382 0.80815 0.0
H2954 H 0.55658 0.53058 0.84873 0.0
H2955 H 0.61787 0.55346 0.86863 0.0
H2956 H 0.63066 0.53631 0.82826 0.0
H2957 H 0.58756 0.58689 0.70061 0.0
H2958 H 0.5839 0.55223 0.73024 0.0
H2959 H 0.64767 0.53456 0.721 0.0
H2960 H 0.65081 0.56752 0.68904 0.0
H2961 H 0.60708 0.54907 0.77294 0.0
H2962 H 0.63774 0.50227 0.69608 0.0
H2963 H 0.62775 0.49253 0.64841 0.0
H2964 H 0.57319 0.43297 0.65871 0.0
H2965 H 0.5721 0.43428 0.70977 0.0
C2966 C 0.61321 0.43903 0.84026 0.0
C2967 C 0.59245 0.43167 0.83952 0.0
C2968 C 0.62059 0.45739 0.82368 0.0
C2969 C 0.60709 0.46911 0.80688 0.0
C2970 C 0.58634 0.46186 0.80644 0.0
C2971 C 0.57911 0.44329 0.82255 0.0
C2972 C 0.61411 0.48818 0.78863 0.0
C2973 C 0.62142 0.47983 0.76527 0.0
C2974 C 0.60838 0.51339 0.79124 0.0
C2975 C 0.60079 0.52357 0.81542 0.0
C2976 C 0.57983 0.52226 0.82126 0.0
C2977 C 0.57272 0.53181 0.84421 0.0
C2978 C 0.58644 0.54301 0.86129 0.0
C2979 C 0.60728 0.54465 0.85544 0.0
C2980 C 0.61448 0.53494 0.83258 0.0
C2981 C 0.60049 0.57464 0.70385 0.0
C2982 C 0.61904 0.57859 0.69102 0.0
C2983 C 0.59836 0.55468 0.72076 0.0
C2984 C 0.61487 0.53846 0.72565 0.0
C2985 C 0.63405 0.54458 0.71518 0.0
C2986 C 0.63593 0.56362 0.69716 0.0
C2987 C 0.61333 0.5193 0.74599 0.0
C2988 C 0.60992 0.52917 0.77039 0.0
C2989 C 0.6163 0.49256 0.74304 0.0
C2990 C 0.61184 0.47742 0.71814 0.0
C2991 C 0.62454 0.4906 0.69296 0.0
C2992 C 0.61861 0.48332 0.66261 0.0
C2993 C 0.60044 0.46283 0.65173 0.0
C2994 C 0.58406 0.44494 0.66859 0.0
C2995 C 0.58397 0.4456 0.70065 0.0
H2996 H 0.59923 0.46101 0.63144 0.0
H2997 H 0.5809 0.55046 0.87902 0.0
H2998 H 0.75618 0.28911 0.05029 0.0
H2999 H 0.71561 0.29427 0.03203 0.0
H3000 H 0.72553 0.38822 0.03347 0.0
H3001 H 0.76367 0.38196 0.05463 0.0
H3002 H 0.6842 0.30909 0.03778 0.0
H3003 H 0.67634 0.40887 0.03252 0.0
H3004 H 0.6931 0.45017 0.0273 0.0
H3005 H 0.73263 0.41925 0.97074 0.0
H3006 H 0.71647 0.37818 0.97575 0.0
H3007 H 0.58909 0.3706 0.98459 0.0
H3008 H 0.61789 0.36112 0.01222 0.0
H3009 H 0.64574 0.31809 0.95256 0.0
H3010 H 0.61739 0.32903 0.92394 0.0
H3011 H 0.65948 0.37869 0.98473 0.0
H3012 H 0.64832 0.2822 0.98475 0.0
H3013 H 0.62305 0.24935 -0.00428 0.0
H3014 H 0.61543 0.28281 0.06899 0.0
H3015 H 0.64053 0.31589 0.0583 0.0
C3016 C 0.75039 0.30762 0.04614 0.0
C3017 C 0.76538 0.335 0.054 0.0
C3018 C 0.72471 0.31101 0.03533 0.0
C3019 C 0.71455 0.34223 0.02898 0.0
C3020 C 0.73088 0.36926 0.03479 0.0
C3021 C 0.75541 0.36549 0.04808 0.0
C3022 C 0.69267 0.34466 0.02091 0.0
C3023 C 0.67955 0.32403 0.02536 0.0
C3024 C 0.6845 0.36572 0.00783 0.0
C3025 C 0.69516 0.39013 0.00473 0.0
C3026 C 0.68863 0.41089 0.01901 0.0
C3027 C 0.69807 0.43432 0.01609 0.0
C3028 C 0.71393 0.43733 -0.00127 0.0
C3029 C 0.72031 0.41694 0.98416 0.0
C3030 C 0.71091 0.3935 0.98697 0.0
C3031 C 0.60112 0.35856 0.9775 0.0
C3032 C 0.60148 0.35117 0.95197 0.0
C3033 C 0.61747 0.35314 -0.00664 0.0
C3034 C 0.63413 0.33977 0.98405 0.0
C3035 C 0.6332 0.32923 0.95967 0.0
C3036 C 0.61691 0.33508 0.94348 0.0
C3037 C 0.65369 0.34124 -0.00214 0.0
C3038 C 0.6653 0.36333 -0.004 0.0
C3039 C 0.66018 0.32219 0.01402 0.0
C3040 C 0.64625 0.30137 0.02078 0.0
C3041 C 0.64128 0.28244 0.0032 0.0
C3042 C 0.62698 0.26382 0.00936 0.0
C3043 C 0.61766 0.26397 0.03305 0.0
C3044 C 0.6227 0.28265 0.05069 0.0
C3045 C 0.63699 0.30128 0.04462 0.0
H3046 H 0.60649 0.24965 0.03772 0.0
H3047 H 0.72126 0.45545 -0.00345 0.0
H3048 H 0.88192 0.50118 0.35377 0.0
H3049 H 0.87204 0.47088 0.32096 0.0
H3050 H 0.81781 0.51381 0.30491 0.0
H3051 H 0.82837 0.5453 0.33687 0.0
H3052 H 0.81425 0.4568 0.30378 0.0
H3053 H 0.85869 0.52565 0.27864 0.0
H3054 H 0.8899 0.55121 0.27793 0.0
H3055 H 0.92454 0.48724 0.25396 0.0
H3056 H 0.89347 0.46089 0.25534 0.0
H3057 H 0.80262 0.40825 0.1745 0.0
H3058 H 0.80563 0.43968 0.20876 0.0
H3059 H 0.86009 0.40313 0.23606 0.0
H3060 H 0.85705 0.3718 0.20234 0.0
H3061 H 0.86103 0.45918 0.23056 0.0
H3062 H 0.82905 0.39015 0.26881 0.0
H3063 H 0.80422 0.35589 0.27546 0.0
H3064 H 0.75563 0.40943 0.28238 0.0
H3065 H 0.7802 0.44409 0.27514 0.0
C3066 C 0.86797 0.50426 0.34306 0.0
C3067 C 0.85623 0.52591 0.34709 0.0
C3068 C 0.86222 0.48681 0.32463 0.0
C3069 C 0.84445 0.4905 0.3102 0.0
C3070 C 0.83184 0.51112 0.31548 0.0
C3071 C 0.83795 0.52912 0.33345 0.0
C3072 C 0.84069 0.47476 0.28756 0.0
C3073 C 0.82417 0.45772 0.28745 0.0
C3074 C 0.85448 0.47509 0.26699 0.0
C3075 C 0.87339 0.49113 0.26687 0.0
C3076 C 0.87283 0.51678 0.27341 0.0
C3077 C 0.89061 0.5315 0.27296 0.0
C3078 C 0.90922 0.52089 0.26584 0.0
C3079 C 0.91009 0.49548 0.25942 0.0
C3080 C 0.89235 0.48063 0.26006 0.0
C3081 C 0.81555 0.40746 0.18736 0.0
C3082 C 0.8298 0.38784 0.18552 0.0
C3083 C 0.81703 0.42508 0.20716 0.0
C3084 C 0.83291 0.42343 0.22512 0.0
C3085 C 0.84762 0.40456 0.22256 0.0
C3086 C 0.84601 0.38689 0.2031 0.0
C3087 C 0.83461 0.44145 0.2465 0.0
C3088 C 0.85082 0.45882 0.24649 0.0
C3089 C 0.82146 0.44037 0.26758 0.0
C3090 C 0.80637 0.41969 0.27068 0.0
C3091 C 0.813 0.39462 0.27109 0.0
C3092 C 0.79899 0.37512 0.27514 0.0
C3093 C 0.77832 0.38046 0.27912 0.0
C3094 C 0.77163 0.40533 0.27908 0.0
C3095 C 0.78559 0.42491 0.27495 0.0
H3096 H 0.76752 0.36535 0.28241 0.0
H3097 H 0.92297 0.53236 0.26533 0.0
H3098 H 0.83199 0.64161 0.44847 0.0
H3099 H 0.8028 0.65542 0.47446 0.0
H3100 H 0.78363 0.57835 0.48295 0.0
H3101 H 0.81213 0.56464 0.45718 0.0
H3102 H 0.75555 0.60851 0.46276 0.0
H3103 H 0.7992 0.60508 0.53175 0.0
H3104 H 0.83068 0.6133 0.55629 0.0
H3105 H 0.81576 0.69152 0.56088 0.0
H3106 H 0.78432 0.68388 0.53572 0.0
H3107 H 0.6757 0.60152 0.54322 0.0
H3108 H 0.70497 0.60435 0.5148 0.0
H3109 H 0.71731 0.67971 0.53946 0.0
H3110 H 0.68788 0.67749 0.56792 0.0
H3111 H 0.75036 0.65525 0.54323 0.0
H3112 H 0.71114 0.67211 0.46295 0.0
H3113 H 0.69013 0.66949 0.41521 0.0
H3114 H 0.69975 0.57678 0.41324 0.0
H3115 H 0.72475 0.5805 0.45845 0.0
C3116 C 0.82144 0.62775 0.45589 0.0
C3117 C 0.82421 0.6021 0.45078 0.0
C3118 C 0.80512 0.63557 0.47111 0.0
C3119 C 0.79145 0.61779 0.48112 0.0
C3120 C 0.7943 0.59228 0.47592 0.0
C3121 C 0.81047 0.58453 0.46095 0.0
C3122 C 0.77209 0.62553 0.49309 0.0
C3123 C 0.75423 0.61923 0.48013 0.0
C3124 C 0.77091 0.63925 0.51585 0.0
C3125 C 0.7895 0.64398 0.53149 0.0
C3126 C 0.8027 0.62412 0.53771 0.0
C3127 C 0.82053 0.62865 0.55179 0.0
C3128 C 0.82525 0.65294 0.56007 0.0
C3129 C 0.81209 0.67272 0.55438 0.0
C3130 C 0.79424 0.6683 0.5402 0.0
C3131 C 0.68428 0.61894 0.54216 0.0
C3132 C 0.67935 0.63924 0.55781 0.0
C3133 C 0.70084 0.62058 0.52559 0.0
C3134 C 0.71316 0.64218 0.52435 0.0
C3135 C 0.70793 0.66287 0.53953 0.0
C3136 C 0.69108 0.66151 0.55588 0.0
C3137 C 0.73327 0.64074 0.51104 0.0
C3138 C 0.75142 0.64649 0.52477 0.0
C3139 C 0.73517 0.6282 0.48751 0.0
C3140 C 0.71895 0.62611 0.468 0.0
C3141 C 0.70848 0.65405 0.45402 0.0
C3142 C 0.69568 0.65254 0.42395 0.0
C3143 C 0.6908 0.62263 0.40956 0.0
C3144 C 0.70103 0.59437 0.42344 0.0
C3145 C 0.71617 0.59657 0.45203 0.0
H3146 H 0.68246 0.62158 0.3919 0.0
H3147 H 0.83909 0.65641 0.57095 0.0
H3148 H 0.49801 0.67 0.63738 0.0
H3149 H 0.46689 0.69589 0.63657 0.0
H3150 H 0.4618 0.68434 0.55627 0.0
H3151 H 0.49366 0.66098 0.55643 0.0
H3152 H 0.45965 0.73409 0.5702 0.0
H3153 H 0.42918 0.65792 0.5862 0.0
H3154 H 0.422 0.61694 0.60557 0.0
H3155 H 0.40699 0.65347 0.67544 0.0
H3156 H 0.41446 0.69473 0.65661 0.0
H3157 H 0.34856 0.77347 0.57764 0.0
H3158 H 0.3791 0.74835 0.56895 0.0
H3159 H 0.40776 0.77699 0.63659 0.0
H3160 H 0.37742 0.80189 0.64549 0.0
H3161 H 0.39714 0.71829 0.61893 0.0
H3162 H 0.47523 0.81874 0.58972 0.0
H3163 H 0.45531 0.83285 0.57215 0.0
H3164 H 0.39548 0.8176 0.53377 0.0
H3165 H 0.4035 0.77113 0.548 0.0
C3166 C 0.49044 0.67354 0.61953 0.0
C3167 C 0.49862 0.66431 0.59689 0.0
C3168 C 0.47263 0.68805 0.61909 0.0
C3169 C 0.4625 0.69265 0.59613 0.0
C3170 C 0.47005 0.68221 0.57385 0.0
C3171 C 0.48815 0.66863 0.5741 0.0
C3172 C 0.44466 0.70952 0.59511 0.0
C3173 C 0.4465 0.73201 0.58165 0.0
C3174 C 0.42658 0.70423 0.60833 0.0
C3175 C 0.42271 0.67944 0.62009 0.0
C3176 C 0.42469 0.65723 0.60582 0.0
C3177 C 0.42048 0.63394 0.61668 0.0
C3178 C 0.41414 0.6326 0.64176 0.0
C3179 C 0.41199 0.65455 0.65604 0.0
C3180 C 0.41621 0.67789 0.64528 0.0
C3181 C 0.36196 0.77565 0.58965 0.0
C3182 C 0.36123 0.79049 0.61148 0.0
C3183 C 0.37935 0.76136 0.58474 0.0
C3184 C 0.39664 0.76313 0.60063 0.0
C3185 C 0.39561 0.77762 0.62266 0.0
C3186 C 0.37818 0.79154 0.62785 0.0
C3187 C 0.41384 0.74573 0.59728 0.0
C3188 C 0.41131 0.72238 0.60905 0.0
C3189 C 0.43214 0.7515 0.58356 0.0
C3190 C 0.43551 0.7776 0.57093 0.0
C3191 C 0.45908 0.81815 0.57787 0.0
C3192 C 0.44684 0.84463 0.56376 0.0
C3193 C 0.42409 0.84124 0.54879 0.0
C3194 C 0.40945 0.81508 0.54453 0.0
C3195 C 0.41401 0.78562 0.55412 0.0
H3196 H 0.41801 0.8581 0.5405 0.0
H3197 H 0.41081 0.61455 0.65009 0.0
H3198 H 0.33541 0.56347 0.15773 0.0
H3199 H 0.33957 0.53404 0.18664 0.0
H3200 H 0.34653 0.59312 0.244 0.0
H3201 H 0.34285 0.62125 0.21248 0.0
H3202 H 0.3251 0.54143 0.29956 0.0
H3203 H 0.27684 0.51254 0.26343 0.0
H3204 H 0.24742 0.50275 0.23535 0.0
H3205 H 0.28418 0.45027 0.194 0.0
H3206 H 0.31381 0.46055 0.22111 0.0
H3207 H 0.31855 0.41869 0.36009 0.0
H3208 H 0.30773 0.45329 0.33264 0.0
H3209 H 0.36913 0.45939 0.3037 0.0
H3210 H 0.37997 0.4247 0.33078 0.0
H3211 H 0.31484 0.45589 0.27408 0.0
H3212 H 0.37197 0.50446 0.32381 0.0
H3213 H 0.38466 0.51832 0.36567 0.0
H3214 H 0.32313 0.53567 0.38809 0.0
H3215 H 0.31014 0.52169 0.34638 0.0
C3216 C 0.33806 0.5696 0.177 0.0
C3217 C 0.33729 0.59456 0.1828 0.0
C3218 C 0.34046 0.55179 0.19574 0.0
C3219 C 0.33887 0.55569 0.22362 0.0
C3220 C 0.34377 0.58336 0.22631 0.0
C3221 C 0.34196 0.60154 0.20734 0.0
C3222 C 0.32568 0.52021 0.26206 0.0
C3223 C 0.3263 0.52333 0.29019 0.0
C3224 C 0.31593 0.49418 0.26017 0.0
C3225 C 0.29748 0.487 0.2446 0.0
C3226 C 0.27854 0.49876 0.24851 0.0
C3227 C 0.26187 0.49326 0.23263 0.0
C3228 C 0.26388 0.47578 0.21303 0.0
C3229 C 0.28251 0.46355 0.20939 0.0
C3230 C 0.29918 0.46896 0.22519 0.0
C3231 C 0.32969 0.42735 0.34777 0.0
C3232 C 0.34996 0.41845 0.34697 0.0
C3233 C 0.3235 0.44706 0.33212 0.0
C3234 C 0.33761 0.45871 0.31602 0.0
C3235 C 0.35799 0.45051 0.31588 0.0
C3236 C 0.36412 0.43062 0.33125 0.0
C3237 C 0.33128 0.47959 0.29938 0.0
C3238 C 0.32069 0.47472 0.27724 0.0
C3239 C 0.33264 0.50453 0.3069 0.0
C3240 C 0.34011 0.5117 0.3323 0.0
C3241 C 0.36117 0.51089 0.33786 0.0
C3242 C 0.36841 0.51885 0.36147 0.0
C3243 C 0.35468 0.52774 0.37957 0.0
C3244 C 0.33371 0.52866 0.37409 0.0
C3245 C 0.32641 0.5207 0.3505 0.0
H3246 H 0.36027 0.53404 0.39779 0.0
H3247 H 0.25105 0.47182 0.20056 0.0
H3248 H 0.2464 0.59989 0.09436 0.0
H3249 H 0.22849 0.5828 0.05686 0.0
H3250 H 0.21628 0.65767 0.03178 0.0
H3251 H 0.23458 0.67492 0.06793 0.0
H3252 H 0.18806 0.61243 0.0474 0.0
H3253 H 0.26573 0.65844 0.96605 0.0
H3254 H 0.28295 0.6453 0.92141 0.0
H3255 H 0.24741 0.56654 0.91082 0.0
H3256 H 0.22596 0.56424 0.95364 0.0
H3257 H 0.12482 0.6511 0.96021 0.0
H3258 H 0.15816 0.64444 0.98005 0.0
H3259 H 0.15886 0.56827 0.95195 0.0
H3260 H 0.12585 0.57559 0.93055 0.0
H3261 H 0.19834 0.58551 0.96038 0.0
H3262 H 0.14 0.57597 0.00867 0.0
H3263 H 0.1047 0.58733 0.02049 0.0
H3264 H 0.12616 0.65852 0.04873 0.0
H3265 H 0.16152 0.64776 0.03679 0.0
C3266 C 0.24019 0.61269 0.08056 0.0
C3267 C 0.24346 0.63871 0.08303 0.0
C3268 C 0.2306 0.6029 0.05874 0.0
C3269 C 0.22468 0.61894 0.03897 0.0
C3270 C 0.22398 0.64488 0.04443 0.0
C3271 C 0.23365 0.65471 0.06586 0.0
C3272 C 0.21148 0.60917 0.01829 0.0
C3273 C 0.19117 0.60838 0.02762 0.0
C3274 C 0.21588 0.60261 -0.00831 0.0
C3275 C 0.2363 0.60444 0.97392 0.0
C3276 C 0.26191 0.63977 0.95859 0.0
C3277 C 0.27236 0.63226 0.93001 0.0
C3278 C 0.26604 0.60522 0.9144 0.0
C3279 C 0.24927 0.5822 0.9237 0.0
C3280 C 0.23542 0.58072 0.95093 0.0
C3281 C 0.13244 0.6333 0.95747 0.0
C3282 C 0.1228 0.61388 0.94401 0.0
C3283 C 0.15135 0.62929 0.96906 0.0
C3284 C 0.16068 0.60546 0.96833 0.0
C3285 C 0.15197 0.58667 0.95297 0.0
C3286 C 0.13316 0.59095 0.9407 0.0
C3287 C 0.17762 0.60026 0.98661 0.0
C3288 C 0.19766 0.5944 0.97853 0.0
C3289 C 0.17436 0.60571 0.01201 0.0
C3290 C 0.1535 0.61087 0.02212 0.0
C3291 C 0.13724 0.59388 0.01775 0.0
C3292 C 0.11719 0.60029 0.02433 0.0
C3293 C 0.11321 0.62357 0.03547 0.0
C3294 C 0.12929 0.64041 0.04029 0.0
C3295 C 0.14936 0.63411 0.03374 0.0
H3296 H 0.09766 0.62862 0.04028 0.0
H3297 H 0.27333 0.60241 0.89634 0.0
H3298 H 0.11043 0.53165 0.86857 0.0
H3299 H 0.12101 0.49496 0.84404 0.0
H3300 H 0.06982 0.50534 0.79357 0.0
H3301 H 0.05868 0.54164 0.81851 0.0
H3302 H 0.08068 0.45244 0.81116 0.0
H3303 H 0.13446 0.51396 0.74689 0.0
H3304 H 0.15805 0.5501 0.74917 0.0
H3305 H 0.17151 0.5377 0.82718 0.0
H3306 H 0.14215 0.50395 0.80143 0.0
H3307 H 0.08065 0.39054 0.69713 0.0
H3308 H 0.07817 0.41894 0.73284 0.0
H3309 H 0.14285 0.43631 0.72592 0.0
H3310 H 0.14365 0.41261 0.68673 0.0
H3311 H 0.13419 0.46985 0.74766 0.0
H3312 H 0.11381 0.39233 0.77576 0.0
H3313 H 0.09691 0.35099 0.77909 0.0
H3314 H 0.0386 0.38669 0.78856 0.0
H3315 H 0.05508 0.42826 0.7849 0.0
C3316 C 0.10153 0.52632 0.85205 0.0
C3317 C 0.08409 0.54014 0.84493 0.0
C3318 C 0.10774 0.50543 0.83795 0.0
C3319 C 0.09693 0.49828 0.81613 0.0
C3320 C 0.07879 0.51104 0.80992 0.0
C3321 C 0.07255 0.53197 0.82398 0.0
C3322 C 0.10425 0.47787 0.79928 0.0
C3323 C 0.09244 0.45595 0.7972 0.0
C3324 C 0.12085 0.48142 0.7826 0.0
C3325 C 0.13805 0.5034 0.78744 0.0
C3326 C 0.14244 0.51812 0.76428 0.0
C3327 C 0.15568 0.53869 0.76569 0.0
C3328 C 0.16568 0.54531 0.78816 0.0
C3329 C 0.1631 0.53179 0.8105 0.0
C3330 C 0.14998 0.51108 0.81226 0.0
C3331 C 0.09406 0.40134 0.70271 0.0
C3332 C 0.11205 0.4001 0.68848 0.0
C3333 C 0.09295 0.4169 0.72401 0.0
C3334 C 0.11054 0.42931 0.73368 0.0
C3335 C 0.12874 0.42758 0.71947 0.0
C3336 C 0.1293 0.41378 0.69686 0.0
C3337 C 0.1097 0.4443 0.75801 0.0
C3338 C 0.12261 0.46547 0.76146 0.0
C3339 C 0.09584 0.43835 0.77784 0.0
C3340 C 0.0857 0.41343 0.77994 0.0
C3341 C 0.09737 0.39137 0.77843 0.0
C3342 C 0.08786 0.36789 0.78037 0.0
C3343 C 0.06669 0.36622 0.78401 0.0
C3344 C 0.05499 0.38802 0.78574 0.0
C3345 C 0.06442 0.41156 0.78378 0.0
H3346 H 0.05936 0.34802 0.78551 0.0
H3347 H 0.17581 0.56148 0.7883 0.0
H3348 H 0.16603 0.29665 0.54919 0.0
H3349 H 0.19444 0.29955 0.51975 0.0
H3350 H 0.21823 0.36375 0.56102 0.0
H3351 H 0.1886 0.36204 0.58896 0.0
H3352 H 0.23018 0.37125 0.52021 0.0
H3353 H 0.2358 0.29522 0.56593 0.0
H3354 H 0.22478 0.25447 0.58324 0.0
H3355 H 0.21651 0.22518 0.50817 0.0
H3356 H 0.22738 0.26573 0.49054 0.0
H3357 H 0.33571 0.34389 0.50071 0.0
H3358 H 0.30187 0.34034 0.51923 0.0
H3359 H 0.27625 0.32079 0.4466 0.0
H3360 H 0.3103 0.32569 0.42721 0.0
H3361 H 0.26412 0.29144 0.49716 0.0
H3362 H 0.27725 0.37532 0.46258 0.0
H3363 H 0.29558 0.41544 0.46117 0.0
H3364 H 0.28028 0.42989 0.53849 0.0
H3365 H 0.26182 0.3896 0.54055 0.0
C3366 C 0.17707 0.31179 0.55143 0.0
C3367 C 0.17502 0.32934 0.57105 0.0
C3368 C 0.19359 0.31326 0.5348 0.0
C3369 C 0.20914 0.33145 0.53822 0.0
C3370 C 0.20661 0.34955 0.5575 0.0
C3371 C 0.18961 0.34864 0.57356 0.0
C3372 C 0.22841 0.33091 0.52276 0.0
C3373 C 0.23761 0.35372 0.51551 0.0
C3374 C 0.23851 0.30816 0.51641 0.0
C3375 C 0.23218 0.2836 0.52689 0.0
C3376 C 0.23156 0.28009 0.55314 0.0
C3377 C 0.22535 0.25703 0.56302 0.0
C3378 C 0.21988 0.23727 0.54682 0.0
C3379 C 0.22072 0.2405 0.52071 0.0
C3380 C 0.22694 0.26352 0.51075 0.0
C3381 C 0.32301 0.33858 0.4885 0.0
C3382 C 0.32576 0.33528 0.46232 0.0
C3383 C 0.30363 0.33661 0.49924 0.0
C3384 C 0.28655 0.33087 0.48421 0.0
C3385 C 0.28927 0.32576 0.45838 0.0
C3386 C 0.30871 0.32845 0.44736 0.0
C3387 C 0.26586 0.33164 0.49557 0.0
C3388 C 0.25647 0.30886 0.50191 0.0
C3389 C 0.25678 0.35449 0.50338 0.0
C3390 C 0.26773 0.37917 0.50159 0.0
C3391 C 0.27754 0.38688 0.47931 0.0
C3392 C 0.28808 0.40977 0.4784 0.0
C3393 C 0.28903 0.42528 0.49969 0.0
C3394 C 0.27943 0.41792 0.52194 0.0
C3395 C 0.26885 0.39506 0.52293 0.0
H3396 H 0.29725 0.44296 0.49897 0.0
H3397 H 0.21505 0.21944 0.5545 0.0
H3398 H 0.31069 0.39685 0.27265 0.0
H3399 H 0.32071 0.42352 0.23787 0.0
H3400 H 0.38387 0.4202 0.26176 0.0
H3401 H 0.37412 0.38986 0.29483 0.0
H3402 H 0.35611 0.47432 0.25565 0.0
H3403 H 0.38551 0.4005 0.21398 0.0
H3404 H 0.3834 0.35618 0.20037 0.0
H3405 H 0.32807 0.37146 0.15908 0.0
H3406 H 0.3298 0.41582 0.17266 0.0
H3407 H 0.39491 0.55144 0.16438 0.0
H3408 H 0.38867 0.5171 0.19388 0.0
H3409 H 0.33874 0.49025 0.14707 0.0
H3410 H 0.34479 0.52468 0.11756 0.0
H3411 H 0.36178 0.45204 0.16528 0.0
H3412 H 0.31086 0.51063 0.20393 0.0
H3413 H 0.29045 0.54987 0.23128 0.0
H3414 H 0.35496 0.56597 0.28049 0.0
H3415 H 0.37425 0.52569 0.25469 0.0
C3416 C 0.32675 0.40166 0.27047 0.0
C3417 C 0.34156 0.39214 0.28699 0.0
C3418 C 0.33246 0.4171 0.25064 0.0
C3419 C 0.35286 0.42491 0.24795 0.0
C3420 C 0.36794 0.4148 0.26387 0.0
C3421 C 0.36237 0.39767 0.28275 0.0
C3422 C 0.35769 0.44415 0.22876 0.0
C3423 C 0.35678 0.46954 0.23586 0.0
C3424 C 0.35851 0.43781 0.20294 0.0
C3425 C 0.35778 0.41137 0.19434 0.0
C3426 C 0.37287 0.39435 0.20207 0.0
C3427 C 0.37175 0.36924 0.19435 0.0
C3428 C 0.35561 0.361 0.17887 0.0
C3429 C 0.34059 0.37787 0.17102 0.0
C3430 C 0.34166 0.403 0.17866 0.0
C3431 C 0.38253 0.53833 0.16043 0.0
C3432 C 0.36994 0.54125 0.13905 0.0
C3433 C 0.37907 0.51863 0.17722 0.0
C3434 C 0.36296 0.50147 0.17295 0.0
C3435 C 0.35119 0.50333 0.15077 0.0
C3436 C 0.35458 0.52314 0.13404 0.0
C3437 C 0.3581 0.48229 0.1921 0.0
C3438 C 0.35964 0.45695 0.18498 0.0
C3439 C 0.35447 0.48851 0.21779 0.0
C3440 C 0.34528 0.51275 0.2266 0.0
C3441 C 0.31873 0.52028 0.21922 0.0
C3442 C 0.30612 0.54515 0.23589 0.0
C3443 C 0.31974 0.56271 0.25953 0.0
C3444 C 0.34659 0.5555 0.26615 0.0
C3445 C 0.35871 0.53067 0.24971 0.0
H3446 H 0.3122 0.57774 0.26959 0.0
H3447 H 0.35475 0.34155 0.17295 0.0
H3448 H 0.33315 0.64826 0.00412 0.0
H3449 H 0.29968 0.64547 0.98369 0.0
H3450 H 0.29228 0.56949 0.00989 0.0
H3451 H 0.32602 0.57257 0.03112 0.0
H3452 H 0.27908 0.58723 0.9516 0.0
H3453 H 0.27398 0.67534 0.02295 0.0
H3454 H 0.30094 0.67751 0.05605 0.0
H3455 H 0.29295 0.59906 0.07098 0.0
H3456 H 0.26661 0.59647 0.03828 0.0
H3457 H 0.16961 0.62318 0.91176 0.0
H3458 H 0.19783 0.6147 0.9362 0.0
H3459 H 0.20917 0.69241 0.95258 0.0
H3460 H 0.18067 0.70237 0.92315 0.0
H3461 H 0.24648 0.63968 -0.00276 0.0
H3462 H 0.24352 0.66803 0.91515 0.0
H3463 H 0.23316 0.68274 0.87337 0.0
H3464 H 0.20618 0.61091 0.85666 0.0
H3465 H 0.21601 0.59562 0.89869 0.0
C3466 C 0.32433 0.63104 0.00565 0.0
C3467 C 0.33153 0.61115 0.02024 0.0
C3468 C 0.30537 0.62922 -0.00643 0.0
C3469 C 0.29326 0.60744 -0.00424 0.0
C3470 C 0.30127 0.58655 0.00829 0.0
C3471 C 0.32021 0.58857 0.0209 0.0
C3472 C 0.27131 0.60892 0.98823 0.0
C3473 C 0.26713 0.59962 0.95903 0.0
C3474 C 0.2565 0.63123 0.00246 0.0
C3475 C 0.26759 0.63599 0.02858 0.0
C3476 C 0.27729 0.65894 0.0341 0.0
C3477 C 0.2929 0.66006 0.05246 0.0
C3478 C 0.29884 0.63842 0.06536 0.0
C3479 C 0.28857 0.61587 0.06097 0.0
C3480 C 0.27311 0.61472 0.04285 0.0
C3481 C 0.17706 0.63887 0.92126 0.0
C3482 C 0.17257 0.66339 0.91521 0.0
C3483 C 0.19307 0.63368 0.93719 0.0
C3484 C 0.20515 0.6522 0.94908 0.0
C3485 C 0.19982 0.67735 0.9448 0.0
C3486 C 0.18363 0.68295 0.92772 0.0
C3487 C 0.2258 0.64361 0.95804 0.0
C3488 C 0.23509 0.64772 0.9884 0.0
C3489 C 0.23704 0.62282 0.93726 0.0
C3490 C 0.2316 0.63009 0.90997 0.0
C3491 C 0.23583 0.65498 0.90244 0.0
C3492 C 0.22983 0.66358 0.87877 0.0
C3493 C 0.21933 0.6476 0.86224 0.0
C3494 C 0.2147 0.62305 0.86942 0.0
C3495 C 0.22067 0.61429 0.89318 0.0
H3496 H 0.2146 0.65439 0.84399 0.0
H3497 H 0.31122 0.639 0.07896 0.0
H3498 H 0.05949 0.41352 0.669 0.0
H3499 H 0.06341 0.4492 0.69773 0.0
H3500 H 0.0954 0.48995 0.63951 0.0
H3501 H 0.09445 0.453 0.61285 0.0
H3502 H 0.11282 0.50285 0.67465 0.0
H3503 H 0.0394 0.4993 0.66691 0.0
H3504 H 0.0049 0.48006 0.66844 0.0
H3505 H 0.01315 0.46441 0.74718 0.0
H3506 H 0.04778 0.48328 0.74607 0.0
H3507 H 0.10085 0.61567 0.75876 0.0
H3508 H 0.08974 0.58877 0.72355 0.0
H3509 H 0.1005 0.5236 0.76832 0.0
H3510 H 0.11265 0.55014 0.80367 0.0
H3511 H 0.06031 0.52924 0.73627 0.0
H3512 H 0.14357 0.50979 0.70392 0.0
H3513 H 0.17629 0.5319 0.69692 0.0
H3514 H 0.14403 0.60079 0.68512 0.0
H3515 H 0.11112 0.57888 0.69131 0.0
C3516 C 0.06799 0.42984 0.6628 0.0
C3517 C 0.0775 0.42985 0.63912 0.0
C3518 C 0.06968 0.45074 0.67899 0.0
C3519 C 0.07962 0.47295 0.67116 0.0
C3520 C 0.08814 0.4732 0.6468 0.0
C3521 C 0.08749 0.4519 0.63132 0.0
C3522 C 0.08226 0.49544 0.68833 0.0
C3523 C 0.10096 0.5088 0.68756 0.0
C3524 C 0.06707 0.50377 0.70557 0.0
C3525 C 0.04621 0.49259 0.70635 0.0
C3526 C 0.03387 0.49168 0.68452 0.0
C3527 C 0.0143 0.48083 0.68532 0.0
C3528 C 0.00686 0.471 0.70788 0.0
C3529 C 0.01894 0.47203 0.72972 0.0
C3530 C 0.03852 0.48284 0.72903 0.0
C3531 C 0.10106 0.59552 0.76119 0.0
C3532 C 0.10777 0.58499 0.78416 0.0
C3533 C 0.09495 0.58016 0.74083 0.0
C3534 C 0.09559 0.55397 0.74295 0.0
C3535 C 0.10091 0.54368 0.76624 0.0
C3536 C 0.10752 0.55885 0.78642 0.0
C3537 C 0.09038 0.53666 0.72162 0.0
C3538 C 0.07158 0.52371 0.72235 0.0
C3539 C 0.10502 0.52959 0.70329 0.0
C3540 C 0.12485 0.54306 0.7 0.0
C3541 C 0.14344 0.52977 0.70031 0.0
C3542 C 0.16205 0.5422 0.69618 0.0
C3543 C 0.16228 0.56787 0.69114 0.0
C3544 C 0.14387 0.58104 0.68974 0.0
C3545 C 0.12523 0.56866 0.69383 0.0
H3546 H 0.1767 0.57748 0.68794 0.0
H3547 H -0.00829 0.46259 0.70845 0.0
H3548 H 0.13582 0.37053 0.55113 0.0
H3549 H 0.16817 0.36887 0.52788 0.0
H3550 H 0.14107 0.31587 0.47532 0.0
H3551 H 0.10919 0.317 0.49884 0.0
H3552 H 0.17747 0.30426 0.47901 0.0
H3553 H 0.1453 0.38482 0.4659 0.0
H3554 H 0.13053 0.42483 0.48053 0.0
H3555 H 0.18794 0.44509 0.51544 0.0
H3556 H 0.20297 0.40505 0.5012 0.0
H3557 H 0.23405 0.31879 0.37101 0.0
H3558 H 0.20609 0.32452 0.40053 0.0
H3559 H 0.24484 0.37066 0.44779 0.0
H3560 H 0.27343 0.36545 0.41758 0.0
H3561 H 0.20655 0.38571 0.45138 0.0
H3562 H 0.24001 0.30684 0.45336 0.0
H3563 H 0.25302 0.26674 0.43699 0.0
H3564 H 0.19144 0.242 0.42135 0.0
H3565 H 0.17807 0.28223 0.43711 0.0
C3566 C 0.13707 0.35785 0.53517 0.0
C3567 C 0.11998 0.34389 0.5268 0.0
C3568 C 0.15543 0.35732 0.52149 0.0
C3569 C 0.15703 0.34282 0.49926 0.0
C3570 C 0.14041 0.32734 0.49224 0.0
C3571 C 0.12215 0.32789 0.50581 0.0
C3572 C 0.17537 0.34442 0.48247 0.0
C3573 C 0.18372 0.3221 0.47289 0.0
C3574 C 0.18398 0.36762 0.47476 0.0
C3575 C 0.17519 0.39195 0.48265 0.0
C3576 C 0.15475 0.39783 0.47671 0.0
C3577 C 0.14633 0.42048 0.48495 0.0
C3578 C 0.15828 0.43748 0.49894 0.0
C3579 C 0.1787 0.43191 0.50461 0.0
C3580 C 0.18719 0.40926 0.49644 0.0
C3581 C 0.23675 0.33036 0.3876 0.0
C3582 C 0.25625 0.34085 0.39254 0.0
C3583 C 0.22068 0.33362 0.40448 0.0
C3584 C 0.22382 0.34687 0.4271 0.0
C3585 C 0.24255 0.35958 0.43087 0.0
C3586 C 0.25873 0.35668 0.41364 0.0
C3587 C 0.20817 0.34555 0.44745 0.0
C3588 C 0.20045 0.36787 0.45775 0.0
C3589 C 0.2 0.32225 0.45566 0.0
C3590 C 0.20803 0.29773 0.44649 0.0
C3591 C 0.22923 0.29295 0.44637 0.0
C3592 C 0.23668 0.27017 0.43711 0.0
C3593 C 0.22306 0.25181 0.42814 0.0
C3594 C 0.20198 0.25622 0.42836 0.0
C3595 C 0.19446 0.27904 0.43747 0.0
H3596 H 0.22885 0.23416 0.42101 0.0
H3597 H 0.15172 0.45498 0.50536 0.0
H3598 H 0.42033 0.27564 0.4269 0.0
H3599 H 0.45167 0.25063 0.42345 0.0
H3600 H 0.48142 0.3126 0.386 0.0
H3601 H 0.4493 0.33609 0.38708 0.0
H3602 H 0.49525 0.27488 0.36665 0.0
H3603 H 0.48693 0.29515 0.45436 0.0
H3604 H 0.46879 0.29636 0.49507 0.0
H3605 H 0.46651 0.21584 0.49615 0.0
H3606 H 0.48447 0.21416 0.45534 0.0
H3607 H 0.59445 0.2387 0.37713 0.0
H3608 H 0.56297 0.26 0.38822 0.0
H3609 H 0.53789 0.19057 0.41567 0.0
H3610 H 0.56879 0.16836 0.4024 0.0
H3611 H 0.52228 0.2313 0.44187 0.0
H3612 H 0.52508 0.20711 0.35559 0.0
H3613 H 0.54059 0.20167 0.31364 0.0
H3614 H 0.54795 0.28151 0.30729 0.0
H3615 H 0.53251 0.28736 0.34933 0.0
C3616 C 0.43334 0.28323 0.41692 0.0
C3617 C 0.43217 0.30725 0.40638 0.0
C3618 C 0.4515 0.26934 0.41564 0.0
C3619 C 0.4694 0.2799 0.40526 0.0
C3620 C 0.46802 0.30384 0.39423 0.0
C3621 C 0.44958 0.31725 0.3946 0.0
C3622 C 0.48944 0.2661 0.40545 0.0
C3623 C 0.50073 0.26506 0.38304 0.0
C3624 C 0.49734 0.25353 0.42699 0.0
C3625 C 0.48691 0.25454 0.45173 0.0
C3626 C 0.4825 0.27771 0.46325 0.0
C3627 C 0.47226 0.27848 0.48634 0.0
C3628 C 0.46647 0.25619 0.49817 0.0
C3629 C 0.471 0.23309 0.48697 0.0
C3630 C 0.48124 0.23221 0.46389 0.0
C3631 C 0.58224 0.22776 0.38552 0.0
C3632 C 0.58395 0.20157 0.3882 0.0
C3633 C 0.56418 0.24008 0.39188 0.0
C3634 C 0.54738 0.22666 0.40136 0.0
C3635 C 0.54992 0.20106 0.40678 0.0
C3636 C 0.56779 0.1884 0.39954 0.0
C3637 C 0.52689 0.23901 0.40252 0.0
C3638 C 0.51599 0.24026 0.42526 0.0
C3639 C 0.51865 0.25089 0.38098 0.0
C3640 C 0.52784 0.24764 0.35567 0.0
C3641 C 0.53011 0.22348 0.3453 0.0
C3642 C 0.53886 0.22033 0.3215 0.0
C3643 C 0.54533 0.24123 0.30784 0.0
C3644 C 0.54298 0.26533 0.31793 0.0
C3645 C 0.53418 0.26859 0.34171 0.0
H3646 H 0.55211 0.23876 0.28941 0.0
H3647 H 0.45851 0.25683 0.51602 0.0
loop_
_geom_bond_atom_site_label_1
_geom_bond_atom_site_label_2
_geom_bond_distance
_geom_bond_site_symmetry_2
_ccdc_geom_bond_type
C0 O1 1.306 . S
C0 O3 1.160 . S
O1 C0 1.306 . S
O1 Cd2 2.228 . S
Cd2 O1 2.228 . S
Cd2 O6 2.273 . S
Cd2 O10 2.277 . S
O3 C0 1.160 . S
O3 Cd4 2.203 . S
Cd4 O3 2.203 . S
Cd4 O6 2.411 . S
Cd4 O7 2.333 . S
Cd4 O8 2.352 . S
Cd4 O12 2.277 . S
Cd4 O13 2.356 . S
C5 O10 1.209 . S
C5 O12 1.226 . S
O6 Cd2 2.273 . S
O6 Cd4 2.411 . S
O6 C9 1.320 . S
O7 Cd4 2.333 . S
O7 C9 1.214 . S
O8 Cd4 2.352 . S
O8 C11 1.258 . S
C9 O6 1.320 . S
C9 O7 1.214 . S
O10 Cd2 2.277 . S
O10 C5 1.209 . S
C11 O8 1.258 . S
C11 O13 1.282 . S
O12 Cd4 2.277 . S
O12 C5 1.226 . S
O13 Cd4 2.356 . S
O13 C11 1.282 . S
C14 O15 1.306 . S
C14 O17 1.160 . S
O15 C14 1.306 . S
O15 Cd16 2.228 . S
Cd16 O15 2.228 . S
Cd16 O20 2.273 . S
Cd16 O24 2.277 . S
O17 C14 1.160 . S
O17 Cd18 2.203 . S
Cd18 O17 2.203 . S
Cd18 O20 2.411 . S
Cd18 O21 2.333 . S
Cd18 O22 2.352 . S
Cd18 O26 2.277 . S
Cd18 O27 2.356 . S
C19 O24 1.209 . S
C19 O26 1.226 . S
O20 Cd16 2.273 . S
O20 Cd18 2.411 . S
O20 C23 1.320 . S
O21 Cd18 2.333 . S
O21 C23 1.214 . S
O22 Cd18 2.352 . S
O22 C25 1.258 . S
C23 O20 1.320 . S
C23 O21 1.214 . S
O24 Cd16 2.277 . S
O24 C19 1.209 . S
C25 O22 1.258 . S
C25 O27 1.282 . S
O26 Cd18 2.277 . S
O26 C19 1.226 . S
O27 Cd18 2.356 . S
O27 C25 1.282 . S
C28 O29 1.306 . S
C28 O31 1.160 . S
O29 C28 1.306 . S
O29 Cd30 2.228 . S
Cd30 O29 2.228 . S
Cd30 O34 2.273 . S
Cd30 O38 2.277 . S
O31 C28 1.160 . S
O31 Cd32 2.203 . S
Cd32 O31 2.203 . S
Cd32 O34 2.411 . S
Cd32 O35 2.333 . S
Cd32 O36 2.352 . S
Cd32 O40 2.277 . S
Cd32 O41 2.356 . S
C33 O38 1.209 . S
C33 O40 1.226 . S
O34 Cd30 2.273 . S
O34 Cd32 2.411 . S
O34 C37 1.320 . S
O35 Cd32 2.333 . S
O35 C37 1.214 . S
O36 Cd32 2.352 . S
O36 C39 1.258 . S
C37 O34 1.320 . S
C37 O35 1.214 . S
O38 Cd30 2.277 . S
O38 C33 1.209 . S
C39 O36 1.258 . S
C39 O41 1.282 . S
O40 Cd32 2.277 . S
O40 C33 1.226 . S
O41 Cd32 2.356 . S
O41 C39 1.282 . S
C42 O43 1.306 . S
C42 O45 1.160 . S
O43 C42 1.306 . S
O43 Cd44 2.228 . S
Cd44 O43 2.228 . S
Cd44 O48 2.273 . S
Cd44 O52 2.277 . S
O45 C42 1.160 . S
O45 Cd46 2.203 . S
Cd46 O45 2.203 . S
Cd46 O48 2.411 . S
Cd46 O49 2.333 . S
Cd46 O50 2.352 . S
Cd46 O54 2.277 . S
Cd46 O55 2.356 . S
C47 O52 1.209 . S
C47 O54 1.226 . S
O48 Cd44 2.273 . S
O48 Cd46 2.411 . S
O48 C51 1.320 . S
O49 Cd46 2.333 . S
O49 C51 1.214 . S
O50 Cd46 2.352 . S
O50 C53 1.258 . S
C51 O48 1.320 . S
C51 O49 1.214 . S
O52 Cd44 2.277 . S
O52 C47 1.209 . S
C53 O50 1.258 . S
C53 O55 1.282 . S
O54 Cd46 2.277 . S
O54 C47 1.226 . S
O55 Cd46 2.356 . S
O55 C53 1.282 . S
C56 O57 1.306 . S
C56 O59 1.160 . S
O57 C56 1.306 . S
O57 Cd58 2.228 . S
Cd58 O57 2.228 . S
Cd58 O62 2.273 . S
Cd58 O66 2.277 . S
O59 C56 1.160 . S
O59 Cd60 2.203 . S
Cd60 O59 2.203 . S
Cd60 O62 2.411 . S
Cd60 O63 2.333 . S
Cd60 O64 2.352 . S
Cd60 O68 2.277 . S
Cd60 O69 2.356 . S
C61 O66 1.209 . S
C61 O68 1.226 . S
O62 Cd58 2.273 . S
O62 Cd60 2.411 . S
O62 C65 1.320 . S
O63 Cd60 2.333 . S
O63 C65 1.214 . S
O64 Cd60 2.352 . S
O64 C67 1.258 . S
C65 O62 1.320 . S
C65 O63 1.214 . S
O66 Cd58 2.277 . S
O66 C61 1.209 . S
C67 O64 1.258 . S
C67 O69 1.282 . S
O68 Cd60 2.277 . S
O68 C61 1.226 . S
O69 Cd60 2.356 . S
O69 C67 1.282 . S
C70 O71 1.306 . S
C70 O73 1.160 . S
O71 C70 1.306 . S
O71 Cd72 2.228 . S
Cd72 O71 2.228 . S
Cd72 O76 2.273 . S
Cd72 O80 2.277 . S
O73 C70 1.160 . S
O73 Cd74 2.203 . S
Cd74 O73 2.203 . S
Cd74 O76 2.411 . S
Cd74 O77 2.333 . S
Cd74 O78 2.352 . S
Cd74 O82 2.277 . S
Cd74 O83 2.356 . S
C75 O80 1.209 . S
C75 O82 1.226 . S
O76 Cd72 2.273 . S
O76 Cd74 2.411 . S
O76 C79 1.320 . S
O77 Cd74 2.333 . S
O77 C79 1.214 . S
O78 Cd74 2.352 . S
O78 C81 1.258 . S
C79 O76 1.320 . S
C79 O77 1.214 . S
O80 Cd72 2.277 . S
O80 C75 1.209 . S
C81 O78 1.258 . S
C81 O83 1.282 . S
O82 Cd74 2.277 . S
O82 C75 1.226 . S
O83 Cd74 2.356 . S
O83 C81 1.282 . S
C84 O85 1.306 . S
C84 O87 1.160 . S
O85 C84 1.306 . S
O85 Cd86 2.228 . S
Cd86 O85 2.228 . S
Cd86 O90 2.273 . S
Cd86 O94 2.277 . S
O87 C84 1.160 . S
O87 Cd88 2.203 . S
Cd88 O87 2.203 . S
Cd88 O90 2.411 . S
Cd88 O91 2.333 . S
Cd88 O92 2.352 . S
Cd88 O96 2.277 . S
Cd88 O97 2.356 . S
C89 O94 1.209 . S
C89 O96 1.226 . S
O90 Cd86 2.273 . S
O90 Cd88 2.411 . S
O90 C93 1.320 . S
O91 Cd88 2.333 . S
O91 C93 1.214 . S
O92 Cd88 2.352 . S
O92 C95 1.258 . S
C93 O90 1.320 . S
C93 O91 1.214 . S
O94 Cd86 2.277 . S
O94 C89 1.209 . S
C95 O92 1.258 . S
C95 O97 1.282 . S
O96 Cd88 2.277 . S
O96 C89 1.226 . S
O97 Cd88 2.356 . S
O97 C95 1.282 . S
C98 O99 1.306 . S
C98 O101 1.160 . S
O99 C98 1.306 . S
O99 Cd100 2.228 . S
Cd100 O99 2.228 . S
Cd100 O104 2.273 . S
Cd100 O108 2.277 . S
O101 C98 1.160 . S
O101 Cd102 2.203 . S
Cd102 O101 2.203 . S
Cd102 O104 2.411 . S
Cd102 O105 2.333 . S
Cd102 O106 2.352 . S
Cd102 O110 2.277 . S
Cd102 O111 2.356 . S
C103 O108 1.209 . S
C103 O110 1.226 . S
O104 Cd100 2.273 . S
O104 Cd102 2.411 . S
O104 C107 1.320 . S
O105 Cd102 2.333 . S
O105 C107 1.214 . S
O106 Cd102 2.352 . S
O106 C109 1.258 . S
C107 O104 1.320 . S
C107 O105 1.214 . S
O108 Cd100 2.277 . S
O108 C103 1.209 . S
C109 O106 1.258 . S
C109 O111 1.282 . S
O110 Cd102 2.277 . S
O110 C103 1.226 . S
O111 Cd102 2.356 . S
O111 C109 1.282 . S
C112 O113 1.306 . S
C112 O115 1.160 . S
O113 C112 1.306 . S
O113 Cd114 2.228 . S
Cd114 O113 2.228 . S
Cd114 O118 2.273 . S
Cd114 O122 2.277 . S
O115 C112 1.160 . S
O115 Cd116 2.203 . S
Cd116 O115 2.203 . S
Cd116 O118 2.411 . S
Cd116 O119 2.333 . S
Cd116 O120 2.352 . S
Cd116 O124 2.277 . S
Cd116 O125 2.356 . S
C117 O122 1.209 . S
C117 O124 1.226 . S
O118 Cd114 2.273 . S
O118 Cd116 2.411 . S
O118 C121 1.320 . S
O119 Cd116 2.333 . S
O119 C121 1.214 . S
O120 Cd116 2.352 . S
O120 C123 1.258 . S
C121 O118 1.320 . S
C121 O119 1.214 . S
O122 Cd114 2.277 . S
O122 C117 1.209 . S
C123 O120 1.258 . S
C123 O125 1.282 . S
O124 Cd116 2.277 . S
O124 C117 1.226 . S
O125 Cd116 2.356 . S
O125 C123 1.282 . S
C126 O127 1.306 . S
C126 O129 1.160 . S
O127 C126 1.306 . S
O127 Cd128 2.228 . S
Cd128 O127 2.228 . S
Cd128 O132 2.273 . S
Cd128 O136 2.277 . S
O129 C126 1.160 . S
O129 Cd130 2.203 . S
Cd130 O129 2.203 . S
Cd130 O132 2.411 . S
Cd130 O133 2.333 . S
Cd130 O134 2.352 . S
Cd130 O138 2.277 . S
Cd130 O139 2.356 . S
C131 O136 1.209 . S
C131 O138 1.226 . S
O132 Cd128 2.273 . S
O132 Cd130 2.411 . S
O132 C135 1.320 . S
O133 Cd130 2.333 . S
O133 C135 1.214 . S
O134 Cd130 2.352 . S
O134 C137 1.258 . S
C135 O132 1.320 . S
C135 O133 1.214 . S
O136 Cd128 2.277 . S
O136 C131 1.209 . S
C137 O134 1.258 . S
C137 O139 1.282 . S
O138 Cd130 2.277 . S
O138 C131 1.226 . S
O139 Cd130 2.356 . S
O139 C137 1.282 . S
C140 O141 1.306 . S
C140 O143 1.160 . S
O141 C140 1.306 . S
O141 Cd142 2.228 . S
Cd142 O141 2.228 . S
Cd142 O146 2.273 . S
Cd142 O150 2.277 . S
O143 C140 1.160 . S
O143 Cd144 2.203 . S
Cd144 O143 2.203 . S
Cd144 O146 2.411 . S
Cd144 O147 2.333 . S
Cd144 O148 2.352 . S
Cd144 O152 2.277 . S
Cd144 O153 2.356 . S
C145 O150 1.209 . S
C145 O152 1.226 . S
O146 Cd142 2.273 . S
O146 Cd144 2.411 . S
O146 C149 1.320 . S
O147 Cd144 2.333 . S
O147 C149 1.214 . S
O148 Cd144 2.352 . S
O148 C151 1.258 . S
C149 O146 1.320 . S
C149 O147 1.214 . S
O150 Cd142 2.277 . S
O150 C145 1.209 . S
C151 O148 1.258 . S
C151 O153 1.282 . S
O152 Cd144 2.277 . S
O152 C145 1.226 . S
O153 Cd144 2.356 . S
O153 C151 1.282 . S
C154 O155 1.306 . S
C154 O157 1.160 . S
O155 C154 1.306 . S
O155 Cd156 2.228 . S
Cd156 O155 2.228 . S
Cd156 O160 2.273 . S
Cd156 O164 2.277 . S
O157 C154 1.160 . S
O157 Cd158 2.203 . S
Cd158 O157 2.203 . S
Cd158 O160 2.411 . S
Cd158 O161 2.333 . S
Cd158 O162 2.352 . S
Cd158 O166 2.277 . S
Cd158 O167 2.356 . S
C159 O164 1.209 . S
C159 O166 1.226 . S
O160 Cd156 2.273 . S
O160 Cd158 2.411 . S
O160 C163 1.320 . S
O161 Cd158 2.333 . S
O161 C163 1.214 . S
O162 Cd158 2.352 . S
O162 C165 1.258 . S
C163 O160 1.320 . S
C163 O161 1.214 . S
O164 Cd156 2.277 . S
O164 C159 1.209 . S
C165 O162 1.258 . S
C165 O167 1.282 . S
O166 Cd158 2.277 . S
O166 C159 1.226 . S
O167 Cd158 2.356 . S
O167 C165 1.282 . S
C168 O169 1.306 . S
C168 O171 1.160 . S
O169 C168 1.306 . S
O169 Cd170 2.228 . S
Cd170 O169 2.228 . S
Cd170 O174 2.273 . S
Cd170 O178 2.277 . S
O171 C168 1.160 . S
O171 Cd172 2.203 . S
Cd172 O171 2.203 . S
Cd172 O174 2.411 . S
Cd172 O175 2.333 . S
Cd172 O176 2.352 . S
Cd172 O180 2.277 . S
Cd172 O181 2.356 . S
C173 O178 1.209 . S
C173 O180 1.226 . S
O174 Cd170 2.273 . S
O174 Cd172 2.411 . S
O174 C177 1.320 . S
O175 Cd172 2.333 . S
O175 C177 1.214 . S
O176 Cd172 2.352 . S
O176 C179 1.258 . S
C177 O174 1.320 . S
C177 O175 1.214 . S
O178 Cd170 2.277 . S
O178 C173 1.209 . S
C179 O176 1.258 . S
C179 O181 1.282 . S
O180 Cd172 2.277 . S
O180 C173 1.226 . S
O181 Cd172 2.356 . S
O181 C179 1.282 . S
C182 O183 1.306 . S
C182 O185 1.160 . S
O183 C182 1.306 . S
O183 Cd184 2.228 . S
Cd184 O183 2.228 . S
Cd184 O188 2.273 . S
Cd184 O192 2.277 . S
O185 C182 1.160 . S
O185 Cd186 2.203 . S
Cd186 O185 2.203 . S
Cd186 O188 2.411 . S
Cd186 O189 2.333 . S
Cd186 O190 2.352 . S
Cd186 O194 2.277 . S
Cd186 O195 2.356 . S
C187 O192 1.209 . S
C187 O194 1.226 . S
O188 Cd184 2.273 . S
O188 Cd186 2.411 . S
O188 C191 1.320 . S
O189 Cd186 2.333 . S
O189 C191 1.214 . S
O190 Cd186 2.352 . S
O190 C193 1.258 . S
C191 O188 1.320 . S
C191 O189 1.214 . S
O192 Cd184 2.277 . S
O192 C187 1.209 . S
C193 O190 1.258 . S
C193 O195 1.282 . S
O194 Cd186 2.277 . S
O194 C187 1.226 . S
O195 Cd186 2.356 . S
O195 C193 1.282 . S
C196 O197 1.306 . S
C196 O199 1.160 . S
O197 C196 1.306 . S
O197 Cd198 2.228 . S
Cd198 O197 2.228 . S
Cd198 O202 2.273 . S
Cd198 O206 2.277 . S
O199 C196 1.160 . S
O199 Cd200 2.203 . S
Cd200 O199 2.203 . S
Cd200 O202 2.411 . S
Cd200 O203 2.333 . S
Cd200 O204 2.352 . S
Cd200 O208 2.277 . S
Cd200 O209 2.356 . S
C201 O206 1.209 . S
C201 O208 1.226 . S
O202 Cd198 2.273 . S
O202 Cd200 2.411 . S
O202 C205 1.320 . S
O203 Cd200 2.333 . S
O203 C205 1.214 . S
O204 Cd200 2.352 . S
O204 C207 1.258 . S
C205 O202 1.320 . S
C205 O203 1.214 . S
O206 Cd198 2.277 . S
O206 C201 1.209 . S
C207 O204 1.258 . S
C207 O209 1.282 . S
O208 Cd200 2.277 . S
O208 C201 1.226 . S
O209 Cd200 2.356 . S
O209 C207 1.282 . S
C210 O211 1.306 . S
C210 O213 1.160 . S
O211 C210 1.306 . S
O211 Cd212 2.228 . S
Cd212 O211 2.228 . S
Cd212 O216 2.273 . S
Cd212 O220 2.277 . S
O213 C210 1.160 . S
O213 Cd214 2.203 . S
Cd214 O213 2.203 . S
Cd214 O216 2.411 . S
Cd214 O217 2.333 . S
Cd214 O218 2.352 . S
Cd214 O222 2.277 . S
Cd214 O223 2.356 . S
C215 O220 1.209 . S
C215 O222 1.226 . S
O216 Cd212 2.273 . S
O216 Cd214 2.411 . S
O216 C219 1.320 . S
O217 Cd214 2.333 . S
O217 C219 1.214 . S
O218 Cd214 2.352 . S
O218 C221 1.258 . S
C219 O216 1.320 . S
C219 O217 1.214 . S
O220 Cd212 2.277 . S
O220 C215 1.209 . S
C221 O218 1.258 . S
C221 O223 1.282 . S
O222 Cd214 2.277 . S
O222 C215 1.226 . S
O223 Cd214 2.356 . S
O223 C221 1.282 . S
C224 O225 1.306 . S
C224 O227 1.160 . S
O225 C224 1.306 . S
O225 Cd226 2.228 . S
Cd226 O225 2.228 . S
Cd226 O230 2.273 . S
Cd226 O234 2.277 . S
O227 C224 1.160 . S
O227 Cd228 2.203 . S
Cd228 O227 2.203 . S
Cd228 O230 2.411 . S
Cd228 O231 2.333 . S
Cd228 O232 2.352 . S
Cd228 O236 2.277 . S
Cd228 O237 2.356 . S
C229 O234 1.209 . S
C229 O236 1.226 . S
O230 Cd226 2.273 . S
O230 Cd228 2.411 . S
O230 C233 1.320 . S
O231 Cd228 2.333 . S
O231 C233 1.214 . S
O232 Cd228 2.352 . S
O232 C235 1.258 . S
C233 O230 1.320 . S
C233 O231 1.214 . S
O234 Cd226 2.277 . S
O234 C229 1.209 . S
C235 O232 1.258 . S
C235 O237 1.282 . S
O236 Cd228 2.277 . S
O236 C229 1.226 . S
O237 Cd228 2.356 . S
O237 C235 1.282 . S
C238 O239 1.306 . S
C238 O241 1.160 . S
O239 C238 1.306 . S
O239 Cd240 2.228 . S
Cd240 O239 2.228 . S
Cd240 O244 2.273 . S
Cd240 O248 2.277 . S
O241 C238 1.160 . S
O241 Cd242 2.203 . S
Cd242 O241 2.203 . S
Cd242 O244 2.411 . S
Cd242 O245 2.333 . S
Cd242 O246 2.352 . S
Cd242 O250 2.277 . S
Cd242 O251 2.356 . S
C243 O248 1.209 . S
C243 O250 1.226 . S
O244 Cd240 2.273 . S
O244 Cd242 2.411 . S
O244 C247 1.320 . S
O245 Cd242 2.333 . S
O245 C247 1.214 . S
O246 Cd242 2.352 . S
O246 C249 1.258 . S
C247 O244 1.320 . S
C247 O245 1.214 . S
O248 Cd240 2.277 . S
O248 C243 1.209 . S
C249 O246 1.258 . S
C249 O251 1.282 . S
O250 Cd242 2.277 . S
O250 C243 1.226 . S
O251 Cd242 2.356 . S
O251 C249 1.282 . S
C252 O253 1.306 . S
C252 O255 1.160 . S
O253 C252 1.306 . S
O253 Cd254 2.228 . S
Cd254 O253 2.228 . S
Cd254 O258 2.273 . S
Cd254 O262 2.277 . S
O255 C252 1.160 . S
O255 Cd256 2.203 . S
Cd256 O255 2.203 . S
Cd256 O258 2.411 . S
Cd256 O259 2.333 . S
Cd256 O260 2.352 . S
Cd256 O264 2.277 . S
Cd256 O265 2.356 . S
C257 O262 1.209 . S
C257 O264 1.226 . S
O258 Cd254 2.273 . S
O258 Cd256 2.411 . S
O258 C261 1.320 . S
O259 Cd256 2.333 . S
O259 C261 1.214 . S
O260 Cd256 2.352 . S
O260 C263 1.258 . S
C261 O258 1.320 . S
C261 O259 1.214 . S
O262 Cd254 2.277 . S
O262 C257 1.209 . S
C263 O260 1.258 . S
C263 O265 1.282 . S
O264 Cd256 2.277 . S
O264 C257 1.226 . S
O265 Cd256 2.356 . S
O265 C263 1.282 . S
C266 O267 1.306 . S
C266 O269 1.160 . S
O267 C266 1.306 . S
O267 Cd268 2.228 . S
Cd268 O267 2.228 . S
Cd268 O272 2.273 . S
Cd268 O276 2.277 . S
O269 C266 1.160 . S
O269 Cd270 2.203 . S
Cd270 O269 2.203 . S
Cd270 O272 2.411 . S
Cd270 O273 2.333 . S
Cd270 O274 2.352 . S
Cd270 O278 2.277 . S
Cd270 O279 2.356 . S
C271 O276 1.209 . S
C271 O278 1.226 . S
O272 Cd268 2.273 . S
O272 Cd270 2.411 . S
O272 C275 1.320 . S
O273 Cd270 2.333 . S
O273 C275 1.214 . S
O274 Cd270 2.352 . S
O274 C277 1.258 . S
C275 O272 1.320 . S
C275 O273 1.214 . S
O276 Cd268 2.277 . S
O276 C271 1.209 . S
C277 O274 1.258 . S
C277 O279 1.282 . S
O278 Cd270 2.277 . S
O278 C271 1.226 . S
O279 Cd270 2.356 . S
O279 C277 1.282 . S
C280 O281 1.306 . S
C280 O283 1.160 . S
O281 C280 1.306 . S
O281 Cd282 2.228 . S
Cd282 O281 2.228 . S
Cd282 O286 2.273 . S
Cd282 O290 2.277 . S
O283 C280 1.160 . S
O283 Cd284 2.203 . S
Cd284 O283 2.203 . S
Cd284 O286 2.411 . S
Cd284 O287 2.333 . S
Cd284 O288 2.352 . S
Cd284 O292 2.277 . S
Cd284 O293 2.356 . S
C285 O290 1.209 . S
C285 O292 1.226 . S
O286 Cd282 2.273 . S
O286 Cd284 2.411 . S
O286 C289 1.320 . S
O287 Cd284 2.333 . S
O287 C289 1.214 . S
O288 Cd284 2.352 . S
O288 C291 1.258 . S
C289 O286 1.320 . S
C289 O287 1.214 . S
O290 Cd282 2.277 . S
O290 C285 1.209 . S
C291 O288 1.258 . S
C291 O293 1.282 . S
O292 Cd284 2.277 . S
O292 C285 1.226 . S
O293 Cd284 2.356 . S
O293 C291 1.282 . S
C294 O295 1.306 . S
C294 O297 1.160 . S
O295 C294 1.306 . S
O295 Cd296 2.228 . S
Cd296 O295 2.228 . S
Cd296 O300 2.273 . S
Cd296 O304 2.277 . S
O297 C294 1.160 . S
O297 Cd298 2.203 . S
Cd298 O297 2.203 . S
Cd298 O300 2.411 . S
Cd298 O301 2.333 . S
Cd298 O302 2.352 . S
Cd298 O306 2.277 . S
Cd298 O307 2.356 . S
C299 O304 1.209 . S
C299 O306 1.226 . S
O300 Cd296 2.273 . S
O300 Cd298 2.411 . S
O300 C303 1.320 . S
O301 Cd298 2.333 . S
O301 C303 1.214 . S
O302 Cd298 2.352 . S
O302 C305 1.258 . S
C303 O300 1.320 . S
C303 O301 1.214 . S
O304 Cd296 2.277 . S
O304 C299 1.209 . S
C305 O302 1.258 . S
C305 O307 1.282 . S
O306 Cd298 2.277 . S
O306 C299 1.226 . S
O307 Cd298 2.356 . S
O307 C305 1.282 . S
C308 O309 1.306 . S
C308 O311 1.160 . S
O309 C308 1.306 . S
O309 Cd310 2.228 . S
Cd310 O309 2.228 . S
Cd310 O314 2.273 . S
Cd310 O318 2.277 . S
O311 C308 1.160 . S
O311 Cd312 2.203 . S
Cd312 O311 2.203 . S
Cd312 O314 2.411 . S
Cd312 O315 2.333 . S
Cd312 O316 2.352 . S
Cd312 O320 2.277 . S
Cd312 O321 2.356 . S
C313 O318 1.209 . S
C313 O320 1.226 . S
O314 Cd310 2.273 . S
O314 Cd312 2.411 . S
O314 C317 1.320 . S
O315 Cd312 2.333 . S
O315 C317 1.214 . S
O316 Cd312 2.352 . S
O316 C319 1.258 . S
C317 O314 1.320 . S
C317 O315 1.214 . S
O318 Cd310 2.277 . S
O318 C313 1.209 . S
C319 O316 1.258 . S
C319 O321 1.282 . S
O320 Cd312 2.277 . S
O320 C313 1.226 . S
O321 Cd312 2.356 . S
O321 C319 1.282 . S
C322 O323 1.306 . S
C322 O325 1.160 . S
O323 C322 1.306 . S
O323 Cd324 2.228 . S
Cd324 O323 2.228 . S
Cd324 O328 2.273 . S
Cd324 O332 2.277 . S
O325 C322 1.160 . S
O325 Cd326 2.203 . S
Cd326 O325 2.203 . S
Cd326 O328 2.411 . S
Cd326 O329 2.333 . S
Cd326 O330 2.352 . S
Cd326 O334 2.277 . S
Cd326 O335 2.356 . S
C327 O332 1.209 . S
C327 O334 1.226 . S
O328 Cd324 2.273 . S
O328 Cd326 2.411 . S
O328 C331 1.320 . S
O329 Cd326 2.333 . S
O329 C331 1.214 . S
O330 Cd326 2.352 . S
O330 C333 1.258 . S
C331 O328 1.320 . S
C331 O329 1.214 . S
O332 Cd324 2.277 . S
O332 C327 1.209 . S
C333 O330 1.258 . S
C333 O335 1.282 . S
O334 Cd326 2.277 . S
O334 C327 1.226 . S
O335 Cd326 2.356 . S
O335 C333 1.282 . S
C336 O337 1.306 . S
C336 O339 1.160 . S
O337 C336 1.306 . S
O337 Cd338 2.228 . S
Cd338 O337 2.228 . S
Cd338 O342 2.273 . S
Cd338 O346 2.277 . S
O339 C336 1.160 . S
O339 Cd340 2.203 . S
Cd340 O339 2.203 . S
Cd340 O342 2.411 . S
Cd340 O343 2.333 . S
Cd340 O344 2.352 . S
Cd340 O348 2.277 . S
Cd340 O349 2.356 . S
C341 O346 1.209 . S
C341 O348 1.226 . S
O342 Cd338 2.273 . S
O342 Cd340 2.411 . S
O342 C345 1.320 . S
O343 Cd340 2.333 . S
O343 C345 1.214 . S
O344 Cd340 2.352 . S
O344 C347 1.258 . S
C345 O342 1.320 . S
C345 O343 1.214 . S
O346 Cd338 2.277 . S
O346 C341 1.209 . S
C347 O344 1.258 . S
C347 O349 1.282 . S
O348 Cd340 2.277 . S
O348 C341 1.226 . S
O349 Cd340 2.356 . S
O349 C347 1.282 . S
C350 O351 1.306 . S
C350 O353 1.160 . S
O351 C350 1.306 . S
O351 Cd352 2.228 . S
Cd352 O351 2.228 . S
Cd352 O356 2.273 . S
Cd352 O360 2.277 . S
O353 C350 1.160 . S
O353 Cd354 2.203 . S
Cd354 O353 2.203 . S
Cd354 O356 2.411 . S
Cd354 O357 2.333 . S
Cd354 O358 2.352 . S
Cd354 O362 2.277 . S
Cd354 O363 2.356 . S
C355 O360 1.209 . S
C355 O362 1.226 . S
O356 Cd352 2.273 . S
O356 Cd354 2.411 . S
O356 C359 1.320 . S
O357 Cd354 2.333 . S
O357 C359 1.214 . S
O358 Cd354 2.352 . S
O358 C361 1.258 . S
C359 O356 1.320 . S
C359 O357 1.214 . S
O360 Cd352 2.277 . S
O360 C355 1.209 . S
C361 O358 1.258 . S
C361 O363 1.282 . S
O362 Cd354 2.277 . S
O362 C355 1.226 . S
O363 Cd354 2.356 . S
O363 C361 1.282 . S
C364 O365 1.306 . S
C364 O367 1.160 . S
O365 C364 1.306 . S
O365 Cd366 2.228 . S
Cd366 O365 2.228 . S
Cd366 O370 2.273 . S
Cd366 O374 2.277 . S
O367 C364 1.160 . S
O367 Cd368 2.203 . S
Cd368 O367 2.203 . S
Cd368 O370 2.411 . S
Cd368 O371 2.333 . S
Cd368 O372 2.352 . S
Cd368 O376 2.277 . S
Cd368 O377 2.356 . S
C369 O374 1.209 . S
C369 O376 1.226 . S
O370 Cd366 2.273 . S
O370 Cd368 2.411 . S
O370 C373 1.320 . S
O371 Cd368 2.333 . S
O371 C373 1.214 . S
O372 Cd368 2.352 . S
O372 C375 1.258 . S
C373 O370 1.320 . S
C373 O371 1.214 . S
O374 Cd366 2.277 . S
O374 C369 1.209 . S
C375 O372 1.258 . S
C375 O377 1.282 . S
O376 Cd368 2.277 . S
O376 C369 1.226 . S
O377 Cd368 2.356 . S
O377 C375 1.282 . S
C378 O379 1.306 . S
C378 O381 1.160 . S
O379 C378 1.306 . S
O379 Cd380 2.228 . S
Cd380 O379 2.228 . S
Cd380 O384 2.273 . S
Cd380 O388 2.277 . S
O381 C378 1.160 . S
O381 Cd382 2.203 . S
Cd382 O381 2.203 . S
Cd382 O384 2.411 . S
Cd382 O385 2.333 . S
Cd382 O386 2.352 . S
Cd382 O390 2.277 . S
Cd382 O391 2.356 . S
C383 O388 1.209 . S
C383 O390 1.226 . S
O384 Cd380 2.273 . S
O384 Cd382 2.411 . S
O384 C387 1.320 . S
O385 Cd382 2.333 . S
O385 C387 1.214 . S
O386 Cd382 2.352 . S
O386 C389 1.258 . S
C387 O384 1.320 . S
C387 O385 1.214 . S
O388 Cd380 2.277 . S
O388 C383 1.209 . S
C389 O386 1.258 . S
C389 O391 1.282 . S
O390 Cd382 2.277 . S
O390 C383 1.226 . S
O391 Cd382 2.356 . S
O391 C389 1.282 . S
C392 O393 1.306 . S
C392 O395 1.160 . S
O393 C392 1.306 . S
O393 Cd394 2.228 . S
Cd394 O393 2.228 . S
Cd394 O398 2.273 . S
Cd394 O402 2.277 . S
O395 C392 1.160 . S
O395 Cd396 2.203 . S
Cd396 O395 2.203 . S
Cd396 O398 2.411 . S
Cd396 O399 2.333 . S
Cd396 O400 2.352 . S
Cd396 O404 2.277 . S
Cd396 O405 2.356 . S
C397 O402 1.209 . S
C397 O404 1.226 . S
O398 Cd394 2.273 . S
O398 Cd396 2.411 . S
O398 C401 1.320 . S
O399 Cd396 2.333 . S
O399 C401 1.214 . S
O400 Cd396 2.352 . S
O400 C403 1.258 . S
C401 O398 1.320 . S
C401 O399 1.214 . S
O402 Cd394 2.277 . S
O402 C397 1.209 . S
C403 O400 1.258 . S
C403 O405 1.282 . S
O404 Cd396 2.277 . S
O404 C397 1.226 . S
O405 Cd396 2.356 . S
O405 C403 1.282 . S
C406 O407 1.306 . S
C406 O409 1.160 . S
O407 C406 1.306 . S
O407 Cd408 2.228 . S
Cd408 O407 2.228 . S
Cd408 O412 2.273 . S
Cd408 O416 2.277 . S
O409 C406 1.160 . S
O409 Cd410 2.203 . S
Cd410 O409 2.203 . S
Cd410 O412 2.411 . S
Cd410 O413 2.333 . S
Cd410 O414 2.352 . S
Cd410 O418 2.277 . S
Cd410 O419 2.356 . S
C411 O416 1.209 . S
C411 O418 1.226 . S
O412 Cd408 2.273 . S
O412 Cd410 2.411 . S
O412 C415 1.320 . S
O413 Cd410 2.333 . S
O413 C415 1.214 . S
O414 Cd410 2.352 . S
O414 C417 1.258 . S
C415 O412 1.320 . S
C415 O413 1.214 . S
O416 Cd408 2.277 . S
O416 C411 1.209 . S
C417 O414 1.258 . S
C417 O419 1.282 . S
O418 Cd410 2.277 . S
O418 C411 1.226 . S
O419 Cd410 2.356 . S
O419 C417 1.282 . S
C420 O421 1.306 . S
C420 O423 1.160 . S
O421 C420 1.306 . S
O421 Cd422 2.228 . S
Cd422 O421 2.228 . S
Cd422 O426 2.273 . S
Cd422 O430 2.277 . S
O423 C420 1.160 . S
O423 Cd424 2.203 . S
Cd424 O423 2.203 . S
Cd424 O426 2.411 . S
Cd424 O427 2.333 . S
Cd424 O428 2.352 . S
Cd424 O432 2.277 . S
Cd424 O433 2.356 . S
C425 O430 1.209 . S
C425 O432 1.226 . S
O426 Cd422 2.273 . S
O426 Cd424 2.411 . S
O426 C429 1.320 . S
O427 Cd424 2.333 . S
O427 C429 1.214 . S
O428 Cd424 2.352 . S
O428 C431 1.258 . S
C429 O426 1.320 . S
C429 O427 1.214 . S
O430 Cd422 2.277 . S
O430 C425 1.209 . S
C431 O428 1.258 . S
C431 O433 1.282 . S
O432 Cd424 2.277 . S
O432 C425 1.226 . S
O433 Cd424 2.356 . S
O433 C431 1.282 . S
C434 O435 1.306 . S
C434 O437 1.160 . S
O435 C434 1.306 . S
O435 Cd436 2.228 . S
Cd436 O435 2.228 . S
Cd436 O440 2.273 . S
Cd436 O444 2.277 . S
O437 C434 1.160 . S
O437 Cd438 2.203 . S
Cd438 O437 2.203 . S
Cd438 O440 2.411 . S
Cd438 O441 2.333 . S
Cd438 O442 2.352 . S
Cd438 O446 2.277 . S
Cd438 O447 2.356 . S
C439 O444 1.209 . S
C439 O446 1.226 . S
O440 Cd436 2.273 . S
O440 Cd438 2.411 . S
O440 C443 1.320 . S
O441 Cd438 2.333 . S
O441 C443 1.214 . S
O442 Cd438 2.352 . S
O442 C445 1.258 . S
C443 O440 1.320 . S
C443 O441 1.214 . S
O444 Cd436 2.277 . S
O444 C439 1.209 . S
C445 O442 1.258 . S
C445 O447 1.282 . S
O446 Cd438 2.277 . S
O446 C439 1.226 . S
O447 Cd438 2.356 . S
O447 C445 1.282 . S
H448 C466 0.951 . S
H449 C468 0.951 . S
H450 C470 0.950 . S
H451 C471 0.950 . S
H452 C473 0.950 . S
H453 C476 0.950 . S
H454 C477 0.950 . S
H455 C479 0.950 . S
H456 C480 0.950 . S
H457 C481 0.951 . S
H458 C483 0.951 1_554 S
H459 C485 0.950 . S
H460 C486 0.950 . S
H461 C488 0.950 . S
H462 C491 0.950 . S
H463 C492 0.950 . S
H464 C494 0.950 . S
H465 C495 0.950 . S
C466 H448 0.951 . S
C466 C467 1.366 . S
C466 C468 1.388 . S
C467 C466 1.366 . S
C467 C471 1.385 . S
C468 H449 0.951 . S
C468 C466 1.388 . S
C468 C469 1.366 . S
C469 C468 1.366 . S
C469 C470 1.414 . S
C469 C472 1.499 . S
C470 H450 0.950 . S
C470 C469 1.414 . S
C470 C471 1.374 . S
C471 H451 0.950 . S
C471 C467 1.385 . S
C471 C470 1.374 . S
C472 C469 1.499 . S
C472 C473 1.373 1_545 S
C472 C474 1.389 1_455 S
C473 H452 0.950 . S
C473 C472 1.373 1_565 S
C473 C489 1.377 . S
C474 C472 1.389 1_655 S
C474 C475 1.524 1_554 S
C474 C488 1.377 1_554 S
C475 C474 1.524 1_556 S
C475 C476 1.397 1_556 S
C475 C480 1.363 . S
C476 H453 0.950 . S
C476 C475 1.397 1_554 S
C476 C477 1.334 . S
C477 H454 0.950 . S
C477 C476 1.334 . S
C477 C478 1.246 1_554 S
C478 C477 1.246 1_556 S
C478 C479 1.566 . S
C478 H497 0.915 . S
C479 H455 0.950 . S
C479 C478 1.566 . S
C479 C480 1.415 . S
C480 H456 0.950 . S
C480 C475 1.363 . S
C480 C479 1.415 . S
C481 H457 0.951 . S
C481 C482 1.366 . S
C481 C483 1.388 . S
C482 C481 1.366 . S
C482 C486 1.385 . S
C483 H458 0.951 1_556 S
C483 C481 1.388 . S
C483 C484 1.366 . S
C484 C483 1.366 . S
C484 C485 1.414 . S
C484 C487 1.499 . S
C485 H459 0.950 . S
C485 C484 1.414 . S
C485 C486 1.374 . S
C486 H460 0.950 . S
C486 C482 1.385 . S
C486 C485 1.374 . S
C487 C484 1.499 . S
C487 C488 1.373 1_565 S
C487 C489 1.389 1_656 S
C488 H461 0.950 . S
C488 C474 1.377 1_556 S
C488 C487 1.373 1_545 S
C489 C473 1.377 . S
C489 C487 1.389 1_454 S
C489 C490 1.524 . S
C490 C489 1.524 . S
C490 C491 1.397 1_554 S
C490 C495 1.363 . S
C491 H462 0.950 . S
C491 C490 1.397 1_556 S
C491 C492 1.334 . S
C492 H463 0.950 . S
C492 C491 1.334 . S
C492 C493 1.287 1_556 S
C493 C492 1.287 1_554 S
C493 C494 1.524 . S
C493 H496 0.999 . S
C494 H464 0.950 . S
C494 C493 1.524 . S
C494 C495 1.415 . S
C495 H465 0.950 . S
C495 C490 1.363 . S
C495 C494 1.415 . S
H496 C493 0.999 . S
H497 C478 0.915 . S
H498 C516 0.951 . S
H499 C518 0.951 . S
H500 C520 0.950 . S
H501 C521 0.950 . S
H502 C523 0.950 . S
H503 C526 0.950 . S
H504 C527 0.950 . S
H505 C529 0.950 . S
H506 C530 0.950 . S
H507 C531 0.951 . S
H508 C533 0.951 . S
H509 C535 0.950 . S
H510 C536 0.950 . S
H511 C538 0.950 . S
H512 C541 0.950 . S
H513 C542 0.950 . S
H514 C544 0.950 . S
H515 C545 0.950 . S
C516 H498 0.951 . S
C516 C517 1.366 . S
C516 C518 1.388 . S
C517 C516 1.366 . S
C517 C521 1.385 . S
C518 H499 0.951 . S
C518 C516 1.388 . S
C518 C519 1.366 . S
C519 C518 1.366 . S
C519 C520 1.414 . S
C519 C522 1.499 . S
C520 H500 0.950 . S
C520 C519 1.414 . S
C520 C521 1.374 . S
C521 H501 0.950 . S
C521 C517 1.385 . S
C521 C520 1.374 . S
C522 C519 1.499 . S
C522 C523 1.373 . S
C522 C524 1.389 . S
C523 H502 0.950 . S
C523 C522 1.373 . S
C523 C539 1.377 . S
C524 C522 1.389 . S
C524 C525 1.524 . S
C524 C538 1.377 . S
C525 C524 1.524 . S
C525 C526 1.397 . S
C525 C530 1.363 . S
C526 H503 0.950 . S
C526 C525 1.397 . S
C526 C527 1.334 . S
C527 H504 0.950 . S
C527 C526 1.334 . S
C527 C528 1.287 . S
C528 C527 1.287 . S
C528 C529 1.524 . S
C528 H547 0.913 . S
C529 H505 0.950 . S
C529 C528 1.524 . S
C529 C530 1.415 . S
C530 H506 0.950 . S
C530 C525 1.363 . S
C530 C529 1.415 . S
C531 H507 0.951 . S
C531 C532 1.366 . S
C531 C533 1.388 . S
C532 C531 1.366 . S
C532 C536 1.385 . S
C533 H508 0.951 . S
C533 C531 1.388 . S
C533 C534 1.366 . S
C534 C533 1.366 . S
C534 C535 1.414 . S
C534 C537 1.499 . S
C535 H509 0.950 . S
C535 C534 1.414 . S
C535 C536 1.374 . S
C536 H510 0.950 . S
C536 C532 1.385 . S
C536 C535 1.374 . S
C537 C534 1.499 . S
C537 C538 1.373 . S
C537 C539 1.389 . S
C538 H511 0.950 . S
C538 C524 1.377 . S
C538 C537 1.373 . S
C539 C523 1.377 . S
C539 C537 1.389 . S
C539 C540 1.524 . S
C540 C539 1.524 . S
C540 C541 1.397 . S
C540 C545 1.363 . S
C541 H512 0.950 . S
C541 C540 1.397 . S
C541 C542 1.334 . S
C542 H513 0.950 . S
C542 C541 1.334 . S
C542 C543 1.287 . S
C543 C542 1.287 . S
C543 C544 1.524 . S
C543 H546 0.999 . S
C544 H514 0.950 . S
C544 C543 1.524 . S
C544 C545 1.415 . S
C545 H515 0.950 . S
C545 C540 1.363 . S
C545 C544 1.415 . S
H546 C543 0.999 . S
H547 C528 0.913 . S
H548 C566 0.951 . S
H549 C568 0.951 . S
H550 C570 0.950 . S
H551 C571 0.950 . S
H552 C573 0.950 . S
H553 C576 0.950 . S
H554 C577 0.950 . S
H555 C579 0.950 . S
H556 C580 0.950 . S
H557 C581 0.951 . S
H558 C583 0.951 . S
H559 C585 0.950 . S
H560 C586 0.950 . S
H561 C588 0.950 . S
H562 C591 0.950 . S
H563 C592 0.950 . S
H564 C594 0.950 . S
H565 C595 0.950 . S
C566 H548 0.951 . S
C566 C567 1.366 . S
C566 C568 1.388 . S
C567 C566 1.366 . S
C567 C571 1.385 . S
C568 H549 0.951 . S
C568 C566 1.388 . S
C568 C569 1.366 . S
C569 C568 1.366 . S
C569 C570 1.414 . S
C569 C572 1.499 . S
C570 H550 0.950 . S
C570 C569 1.414 . S
C570 C571 1.374 . S
C571 H551 0.950 . S
C571 C567 1.385 . S
C571 C570 1.374 . S
C572 C569 1.499 . S
C572 C573 1.373 1_565 S
C572 C574 1.389 . S
C573 H552 0.950 . S
C573 C572 1.373 1_545 S
C573 C589 1.377 . S
C574 C572 1.389 . S
C574 C575 1.524 . S
C574 C588 1.377 1_565 S
C575 C574 1.524 . S
C575 C576 1.397 . S
C575 C580 1.363 . S
C576 H553 0.950 . S
C576 C575 1.397 . S
C576 C577 1.334 . S
C577 H554 0.950 . S
C577 C576 1.334 . S
C577 C578 1.287 . S
C578 C577 1.287 . S
C578 C579 1.524 . S
C578 H597 0.913 . S
C579 H555 0.950 . S
C579 C578 1.524 . S
C579 C580 1.415 . S
C580 H556 0.950 . S
C580 C575 1.363 . S
C580 C579 1.415 . S
C581 H557 0.951 . S
C581 C582 1.366 . S
C581 C583 1.388 . S
C582 C581 1.366 . S
C582 C586 1.385 . S
C583 H558 0.951 . S
C583 C581 1.388 . S
C583 C584 1.366 . S
C584 C583 1.366 . S
C584 C585 1.414 . S
C584 C587 1.499 . S
C585 H559 0.950 . S
C585 C584 1.414 . S
C585 C586 1.374 . S
C586 H560 0.950 . S
C586 C582 1.385 . S
C586 C585 1.374 . S
C587 C584 1.499 . S
C587 C588 1.373 . S
C587 C589 1.389 . S
C588 H561 0.950 . S
C588 C574 1.377 1_545 S
C588 C587 1.373 . S
C589 C573 1.377 . S
C589 C587 1.389 . S
C589 C590 1.524 . S
C590 C589 1.524 . S
C590 C591 1.397 . S
C590 C595 1.363 . S
C591 H562 0.950 . S
C591 C590 1.397 . S
C591 C592 1.334 . S
C592 H563 0.950 . S
C592 C591 1.334 . S
C592 C593 1.287 . S
C593 C592 1.287 . S
C593 C594 1.524 . S
C593 H596 0.999 . S
C594 H564 0.950 . S
C594 C593 1.524 . S
C594 C595 1.415 . S
C595 H565 0.950 . S
C595 C590 1.363 . S
C595 C594 1.415 . S
H596 C593 0.999 . S
H597 C578 0.913 . S
H598 C616 0.951 . S
H599 C618 0.951 . S
H600 C620 0.950 . S
H601 C621 0.950 . S
H602 C623 0.950 . S
H603 C626 0.950 . S
H604 C627 0.950 . S
H605 C629 0.950 . S
H606 C630 0.950 . S
H607 C631 0.951 . S
H608 C633 0.951 . S
H609 C635 0.950 . S
H610 C636 0.950 . S
H611 C638 0.950 . S
H612 C641 0.950 . S
H613 C642 0.950 . S
H614 C644 0.950 . S
H615 C645 0.950 . S
C616 H598 0.951 . S
C616 C617 1.366 . S
C616 C618 1.388 . S
C617 C616 1.366 . S
C617 C621 1.385 . S
C618 H599 0.951 . S
C618 C616 1.388 . S
C618 C619 1.366 . S
C619 C618 1.366 . S
C619 C620 1.414 . S
C619 C622 1.499 . S
C620 H600 0.950 . S
C620 C619 1.414 . S
C620 C621 1.374 . S
C621 H601 0.950 . S
C621 C617 1.385 . S
C621 C620 1.374 . S
C622 C619 1.499 . S
C622 C623 1.373 . S
C622 C624 1.389 . S
C623 H602 0.950 . S
C623 C622 1.373 . S
C623 C639 1.377 . S
C624 C622 1.389 . S
C624 C625 1.524 . S
C624 C638 1.377 . S
C625 C624 1.524 . S
C625 C626 1.397 . S
C625 C630 1.363 . S
C626 H603 0.950 . S
C626 C625 1.397 . S
C626 C627 1.334 . S
C627 H604 0.950 . S
C627 C626 1.334 . S
C627 C628 1.287 . S
C628 C627 1.287 . S
C628 C629 1.524 . S
C628 H647 0.913 . S
C629 H605 0.950 . S
C629 C628 1.524 . S
C629 C630 1.415 . S
C630 H606 0.950 . S
C630 C625 1.363 . S
C630 C629 1.415 . S
C631 H607 0.951 . S
C631 C632 1.366 . S
C631 C633 1.388 . S
C632 C631 1.366 . S
C632 C636 1.385 . S
C633 H608 0.951 . S
C633 C631 1.388 . S
C633 C634 1.366 . S
C634 C633 1.366 . S
C634 C635 1.414 . S
C634 C637 1.499 . S
C635 H609 0.950 . S
C635 C634 1.414 . S
C635 C636 1.374 . S
C636 H610 0.950 . S
C636 C632 1.385 . S
C636 C635 1.374 . S
C637 C634 1.499 . S
C637 C638 1.373 . S
C637 C639 1.389 . S
C638 H611 0.950 . S
C638 C624 1.377 . S
C638 C637 1.373 . S
C639 C623 1.377 . S
C639 C637 1.389 . S
C639 C640 1.524 . S
C640 C639 1.524 . S
C640 C641 1.397 . S
C640 C645 1.363 . S
C641 H612 0.950 . S
C641 C640 1.397 . S
C641 C642 1.334 . S
C642 H613 0.950 . S
C642 C641 1.334 . S
C642 C643 1.287 . S
C643 C642 1.287 . S
C643 C644 1.524 . S
C643 H646 0.999 . S
C644 H614 0.950 . S
C644 C643 1.524 . S
C644 C645 1.415 . S
C645 H615 0.950 . S
C645 C640 1.363 . S
C645 C644 1.415 . S
H646 C643 0.999 . S
H647 C628 0.913 . S
H648 C666 0.951 . S
H649 C668 0.906 1_655 S
H650 C670 0.950 . S
H651 C671 0.950 . S
H652 C673 0.950 . S
H653 C676 0.950 . S
H654 C677 0.950 . S
H655 C679 0.950 . S
H656 C680 0.950 . S
H657 C681 0.951 . S
H658 C683 0.951 . S
H659 C685 0.950 . S
H660 C686 0.950 . S
H661 C688 0.950 . S
H662 C691 0.950 . S
H663 C692 0.950 . S
H664 C694 0.950 . S
H665 C695 0.950 1_545 S
C666 H648 0.951 . S
C666 C667 1.366 . S
C666 C668 1.388 . S
C667 C666 1.366 . S
C667 C671 1.385 . S
C668 H649 0.906 1_455 S
C668 C666 1.388 . S
C668 C669 1.366 . S
C669 C668 1.366 . S
C669 C670 1.414 . S
C669 C672 1.499 . S
C670 H650 0.950 . S
C670 C669 1.414 . S
C670 C671 1.374 . S
C671 H651 0.950 . S
C671 C667 1.385 . S
C671 C670 1.374 . S
C672 C669 1.499 . S
C672 C673 1.373 . S
C672 C674 1.389 1_465 S
C673 H652 0.950 . S
C673 C672 1.373 . S
C673 C689 1.383 1_565 S
C674 C672 1.389 1_645 S
C674 C675 1.524 . S
C674 C688 1.377 . S
C675 C674 1.524 . S
C675 C676 1.397 1_655 S
C675 C680 1.363 . S
C676 H653 0.950 . S
C676 C675 1.397 1_455 S
C676 C677 1.334 . S
C677 H654 0.950 . S
C677 C676 1.334 . S
C677 C678 1.287 1_455 S
C678 C677 1.287 1_655 S
C678 C679 1.524 . S
C678 H697 0.913 . S
C679 H655 0.950 . S
C679 C678 1.524 . S
C679 C680 1.415 . S
C680 H656 0.950 . S
C680 C675 1.363 . S
C680 C679 1.415 . S
C681 H657 0.951 . S
C681 C682 1.366 . S
C681 C683 1.388 . S
C682 C681 1.366 . S
C682 C686 1.385 . S
C683 H658 0.951 . S
C683 C681 1.388 . S
C683 C684 1.366 . S
C684 C683 1.366 . S
C684 C685 1.414 . S
C684 C687 1.499 . S
C685 H659 0.950 . S
C685 C684 1.414 . S
C685 C686 1.374 . S
C686 H660 0.950 . S
C686 C682 1.385 . S
C686 C685 1.374 . S
C687 C684 1.499 . S
C687 C688 1.373 . S
C687 C689 1.382 1_655 S
C688 H661 0.950 . S
C688 C674 1.377 . S
C688 C687 1.373 . S
C689 C673 1.383 1_545 S
C689 C687 1.382 1_455 S
C689 C690 1.525 1_545 S
C690 C689 1.525 1_565 S
C690 C691 1.397 1_455 S
C690 C695 1.363 . S
C691 H662 0.950 . S
C691 C690 1.397 1_655 S
C691 C692 1.334 . S
C692 H663 0.950 . S
C692 C691 1.334 . S
C692 C693 1.287 1_655 S
C693 C692 1.287 1_455 S
C693 C694 1.524 . S
C693 H696 0.999 . S
C694 H664 0.950 . S
C694 C693 1.524 . S
C694 C695 1.415 . S
C695 H665 0.950 1_565 S
C695 C690 1.363 . S
C695 C694 1.415 . S
H696 C693 0.999 . S
H697 C678 0.913 . S
H698 C716 0.951 . S
H699 C718 0.951 . S
H700 C720 0.950 . S
H701 C721 0.950 . S
H702 C723 0.950 . S
H703 C726 0.950 . S
H704 C727 0.950 . S
H705 C729 0.950 . S
H706 C730 0.950 . S
H707 C731 0.951 . S
H708 C733 0.951 . S
H709 C735 0.950 . S
H710 C736 0.950 . S
H711 C738 0.950 . S
H712 C741 0.950 . S
H713 C742 0.950 . S
H714 C744 0.950 . S
H715 C745 0.950 . S
C716 H698 0.951 . S
C716 C717 1.366 . S
C716 C718 1.388 . S
C717 C716 1.366 . S
C717 C721 1.385 . S
C718 H699 0.951 . S
C718 C716 1.388 . S
C718 C719 1.366 . S
C719 C718 1.366 . S
C719 C720 1.414 . S
C719 C722 1.499 . S
C720 H700 0.950 . S
C720 C719 1.414 . S
C720 C721 1.374 . S
C721 H701 0.950 . S
C721 C717 1.385 . S
C721 C720 1.374 . S
C722 C719 1.499 . S
C722 C723 1.373 . S
C722 C724 1.389 . S
C723 H702 0.950 . S
C723 C722 1.373 . S
C723 C739 1.377 . S
C724 C722 1.389 . S
C724 C725 1.524 . S
C724 C738 1.377 . S
C725 C724 1.524 . S
C725 C726 1.397 . S
C725 C730 1.363 . S
C726 H703 0.950 . S
C726 C725 1.397 . S
C726 C727 1.334 . S
C727 H704 0.950 . S
C727 C726 1.334 . S
C727 C728 1.287 . S
C728 C727 1.287 . S
C728 C729 1.524 . S
C728 H747 0.913 . S
C729 H705 0.950 . S
C729 C728 1.524 . S
C729 C730 1.415 . S
C730 H706 0.950 . S
C730 C725 1.363 . S
C730 C729 1.415 . S
C731 H707 0.951 . S
C731 C732 1.366 . S
C731 C733 1.388 . S
C732 C731 1.366 . S
C732 C736 1.385 . S
C733 H708 0.951 . S
C733 C731 1.388 . S
C733 C734 1.366 . S
C734 C733 1.366 . S
C734 C735 1.414 . S
C734 C737 1.499 . S
C735 H709 0.950 . S
C735 C734 1.414 . S
C735 C736 1.374 . S
C736 H710 0.950 . S
C736 C732 1.385 . S
C736 C735 1.374 . S
C737 C734 1.499 . S
C737 C738 1.373 . S
C737 C739 1.389 . S
C738 H711 0.950 . S
C738 C724 1.377 . S
C738 C737 1.373 . S
C739 C723 1.377 . S
C739 C737 1.389 . S
C739 C740 1.524 . S
C740 C739 1.524 . S
C740 C741 1.397 . S
C740 C745 1.363 . S
C741 H712 0.950 . S
C741 C740 1.397 . S
C741 C742 1.334 . S
C742 H713 0.950 . S
C742 C741 1.334 . S
C742 C743 1.287 . S
C743 C742 1.287 . S
C743 C744 1.524 . S
C743 H746 0.999 . S
C744 H714 0.950 . S
C744 C743 1.524 . S
C744 C745 1.415 . S
C745 H715 0.950 . S
C745 C740 1.363 . S
C745 C744 1.415 . S
H746 C743 0.999 . S
H747 C728 0.913 . S
H748 C766 0.951 . S
H749 C768 0.951 . S
H750 C770 0.950 . S
H751 C771 0.950 . S
H752 C773 0.950 . S
H753 C776 0.950 . S
H754 C777 0.950 . S
H755 C779 0.950 . S
H756 C780 0.950 . S
H757 C781 0.951 . S
H758 C783 0.951 . S
H759 C785 0.950 1_556 S
H760 C786 0.950 . S
H761 C788 0.950 . S
H762 C791 0.950 . S
H763 C792 0.950 . S
H764 C794 0.950 . S
H765 C795 0.950 . S
C766 H748 0.951 . S
C766 C767 1.366 . S
C766 C768 1.388 . S
C767 C766 1.366 . S
C767 C771 1.385 . S
C768 H749 0.951 . S
C768 C766 1.388 . S
C768 C769 1.366 . S
C769 C768 1.366 . S
C769 C770 1.414 . S
C769 C772 1.499 . S
C770 H750 0.950 . S
C770 C769 1.414 . S
C770 C771 1.374 . S
C771 H751 0.950 . S
C771 C767 1.385 . S
C771 C770 1.374 . S
C772 C769 1.499 . S
C772 C773 1.373 1_556 S
C772 C774 1.389 1_545 S
C773 H752 0.950 . S
C773 C772 1.373 1_554 S
C773 C789 1.377 . S
C774 C772 1.389 1_565 S
C774 C775 1.524 . S
C774 C788 1.377 . S
C775 C774 1.524 . S
C775 C776 1.397 . S
C775 C780 1.363 . S
C776 H753 0.950 . S
C776 C775 1.397 . S
C776 C777 1.334 . S
C777 H754 0.950 . S
C777 C776 1.334 . S
C777 C778 1.287 . S
C778 C777 1.287 . S
C778 C779 1.524 . S
C778 H797 0.913 . S
C779 H755 0.950 . S
C779 C778 1.524 . S
C779 C780 1.415 . S
C780 H756 0.950 . S
C780 C775 1.363 . S
C780 C779 1.415 . S
C781 H757 0.951 . S
C781 C782 1.366 . S
C781 C783 1.388 . S
C782 C781 1.366 . S
C782 C786 1.385 . S
C783 H758 0.951 . S
C783 C781 1.388 . S
C783 C784 1.366 . S
C784 C783 1.366 . S
C784 C785 1.414 . S
C784 C787 1.499 . S
C785 H759 0.950 1_554 S
C785 C784 1.414 . S
C785 C786 1.374 . S
C786 H760 0.950 . S
C786 C782 1.385 . S
C786 C785 1.374 . S
C787 C784 1.499 . S
C787 C788 1.373 1_554 S
C787 C789 1.389 1_565 S
C788 H761 0.950 . S
C788 C774 1.377 . S
C788 C787 1.373 1_556 S
C789 C773 1.377 . S
C789 C787 1.389 1_545 S
C789 C790 1.524 . S
C790 C789 1.524 . S
C790 C791 1.397 . S
C790 C795 1.363 . S
C791 H762 0.950 . S
C791 C790 1.397 . S
C791 C792 1.334 . S
C792 H763 0.950 . S
C792 C791 1.334 . S
C792 C793 1.287 . S
C793 C792 1.287 . S
C793 C794 1.524 . S
C793 H796 0.999 . S
C794 H764 0.950 . S
C794 C793 1.524 . S
C794 C795 1.415 . S
C795 H765 0.950 . S
C795 C790 1.363 . S
C795 C794 1.415 . S
H796 C793 0.999 . S
H797 C778 0.913 . S
H798 C816 0.951 . S
H799 C818 0.951 . S
H800 C820 0.950 . S
H801 C821 0.950 . S
H802 C823 0.950 . S
H803 C826 0.950 . S
H804 C827 0.950 . S
H805 C829 0.950 . S
H806 C830 0.950 . S
H807 C831 0.951 . S
H808 C833 0.951 . S
H809 C835 0.950 . S
H810 C836 0.950 . S
H811 C838 0.950 . S
H812 C841 0.950 . S
H813 C842 0.950 . S
H814 C844 0.950 . S
H815 C845 0.950 . S
C816 H798 0.951 . S
C816 C817 1.366 . S
C816 C818 1.388 . S
C817 C816 1.366 . S
C817 C821 1.385 . S
C818 H799 0.951 . S
C818 C816 1.388 . S
C818 C819 1.366 . S
C819 C818 1.366 . S
C819 C820 1.414 . S
C819 C822 1.499 . S
C820 H800 0.950 . S
C820 C819 1.414 . S
C820 C821 1.374 . S
C821 H801 0.950 . S
C821 C817 1.385 . S
C821 C820 1.374 . S
C822 C819 1.499 . S
C822 C823 1.373 . S
C822 C824 1.389 . S
C823 H802 0.950 . S
C823 C822 1.373 . S
C823 C839 1.377 . S
C824 C822 1.389 . S
C824 C825 1.524 . S
C824 C838 1.377 . S
C825 C824 1.524 . S
C825 C826 1.397 . S
C825 C830 1.363 . S
C826 H803 0.950 . S
C826 C825 1.397 . S
C826 C827 1.334 . S
C827 H804 0.950 . S
C827 C826 1.334 . S
C827 C828 1.287 . S
C828 C827 1.287 . S
C828 C829 1.524 . S
C828 H847 0.913 . S
C829 H805 0.950 . S
C829 C828 1.524 . S
C829 C830 1.415 . S
C830 H806 0.950 . S
C830 C825 1.363 . S
C830 C829 1.415 . S
C831 H807 0.951 . S
C831 C832 1.366 . S
C831 C833 1.388 . S
C832 C831 1.366 . S
C832 C836 1.385 . S
C833 H808 0.951 . S
C833 C831 1.388 . S
C833 C834 1.366 . S
C834 C833 1.366 . S
C834 C835 1.414 . S
C834 C837 1.499 . S
C835 H809 0.950 . S
C835 C834 1.414 . S
C835 C836 1.374 . S
C836 H810 0.950 . S
C836 C832 1.385 . S
C836 C835 1.374 . S
C837 C834 1.499 . S
C837 C838 1.373 . S
C837 C839 1.389 . S
C838 H811 0.950 . S
C838 C824 1.377 . S
C838 C837 1.373 . S
C839 C823 1.377 . S
C839 C837 1.389 . S
C839 C840 1.524 . S
C840 C839 1.524 . S
C840 C841 1.397 . S
C840 C845 1.363 . S
C841 H812 0.950 . S
C841 C840 1.397 . S
C841 C842 1.334 . S
C842 H813 0.950 . S
C842 C841 1.334 . S
C842 C843 1.287 . S
C843 C842 1.287 . S
C843 C844 1.524 . S
C843 H846 0.999 . S
C844 H814 0.950 . S
C844 C843 1.524 . S
C844 C845 1.415 . S
C845 H815 0.950 . S
C845 C840 1.363 . S
C845 C844 1.415 . S
H846 C843 0.999 . S
H847 C828 0.913 . S
H848 C866 0.951 . S
H849 C868 0.951 . S
H850 C870 0.950 . S
H851 C871 0.950 . S
H852 C873 0.950 . S
H853 C876 0.950 . S
H854 C877 0.950 . S
H855 C879 0.950 . S
H856 C880 0.950 1_556 S
H857 C881 0.951 . S
H858 C883 0.951 . S
H859 C885 0.950 . S
H860 C886 0.950 . S
H861 C888 0.950 . S
H862 C891 0.950 . S
H863 C892 0.950 . S
H864 C894 0.950 . S
H865 C895 0.950 1_554 S
C866 H848 0.951 . S
C866 C867 1.366 . S
C866 C868 1.388 . S
C867 C866 1.366 . S
C867 C871 1.385 . S
C868 H849 0.951 . S
C868 C866 1.388 . S
C868 C869 1.366 . S
C869 C868 1.366 . S
C869 C870 1.414 . S
C869 C872 1.499 . S
C870 H850 0.950 . S
C870 C869 1.414 . S
C870 C871 1.374 . S
C871 H851 0.950 . S
C871 C867 1.385 . S
C871 C870 1.374 . S
C872 C869 1.499 . S
C872 C873 1.373 . S
C872 C874 1.389 . S
C873 H852 0.950 . S
C873 C872 1.373 . S
C873 C889 1.377 1_554 S
C874 C872 1.389 . S
C874 C875 1.524 . S
C874 C888 1.377 1_554 S
C875 C874 1.524 . S
C875 C876 1.397 . S
C875 C880 1.363 . S
C876 H853 0.950 . S
C876 C875 1.397 . S
C876 C877 1.334 . S
C877 H854 0.950 . S
C877 C876 1.334 . S
C877 C878 1.287 . S
C878 C877 1.287 . S
C878 C879 1.524 . S
C878 H897 0.913 . S
C879 H855 0.950 . S
C879 C878 1.524 . S
C879 C880 1.415 . S
C880 H856 0.950 1_554 S
C880 C875 1.363 . S
C880 C879 1.415 . S
C881 H857 0.951 . S
C881 C882 1.366 . S
C881 C883 1.388 . S
C882 C881 1.366 . S
C882 C886 1.385 . S
C883 H858 0.951 . S
C883 C881 1.388 . S
C883 C884 1.366 . S
C884 C883 1.366 . S
C884 C885 1.414 . S
C884 C887 1.499 . S
C885 H859 0.950 . S
C885 C884 1.414 . S
C885 C886 1.374 . S
C886 H860 0.950 . S
C886 C882 1.385 . S
C886 C885 1.374 . S
C887 C884 1.499 . S
C887 C888 1.373 . S
C887 C889 1.389 . S
C888 H861 0.950 . S
C888 C874 1.377 1_556 S
C888 C887 1.373 . S
C889 C873 1.377 1_556 S
C889 C887 1.389 . S
C889 C890 1.524 . S
C890 C889 1.524 . S
C890 C891 1.397 . S
C890 C895 1.363 . S
C891 H862 0.950 . S
C891 C890 1.397 . S
C891 C892 1.334 . S
C892 H863 0.950 . S
C892 C891 1.334 . S
C892 C893 1.287 . S
C893 C892 1.287 . S
C893 C894 1.524 . S
C893 H896 0.999 . S
C894 H864 0.950 . S
C894 C893 1.524 . S
C894 C895 1.415 . S
C895 H865 0.950 1_556 S
C895 C890 1.363 . S
C895 C894 1.415 . S
H896 C893 0.999 . S
H897 C878 0.913 . S
H898 C916 0.951 . S
H899 C918 0.951 . S
H900 C920 0.950 . S
H901 C921 0.950 . S
H902 C923 0.950 . S
H903 C926 0.950 . S
H904 C927 0.950 . S
H905 C929 0.950 . S
H906 C930 0.950 . S
H907 C931 0.951 . S
H908 C933 0.951 . S
H909 C935 0.950 . S
H910 C936 0.950 . S
H911 C938 0.950 . S
H912 C941 0.950 . S
H913 C942 0.950 . S
H914 C944 0.950 . S
H915 C945 0.950 . S
C916 H898 0.951 . S
C916 C917 1.366 . S
C916 C918 1.388 . S
C917 C916 1.366 . S
C917 C921 1.385 . S
C918 H899 0.951 . S
C918 C916 1.388 . S
C918 C919 1.366 . S
C919 C918 1.366 . S
C919 C920 1.414 . S
C919 C922 1.499 . S
C920 H900 0.950 . S
C920 C919 1.414 . S
C920 C921 1.374 . S
C921 H901 0.950 . S
C921 C917 1.385 . S
C921 C920 1.374 . S
C922 C919 1.499 . S
C922 C923 1.373 . S
C922 C924 1.389 . S
C923 H902 0.950 . S
C923 C922 1.373 . S
C923 C939 1.377 . S
C924 C922 1.389 . S
C924 C925 1.524 . S
C924 C938 1.377 . S
C925 C924 1.524 . S
C925 C926 1.397 . S
C925 C930 1.363 . S
C926 H903 0.950 . S
C926 C925 1.397 . S
C926 C927 1.334 . S
C927 H904 0.950 . S
C927 C926 1.334 . S
C927 C928 1.287 . S
C928 C927 1.287 . S
C928 C929 1.524 . S
C928 H947 0.913 . S
C929 H905 0.950 . S
C929 C928 1.524 . S
C929 C930 1.415 . S
C930 H906 0.950 . S
C930 C925 1.363 . S
C930 C929 1.415 . S
C931 H907 0.951 . S
C931 C932 1.366 . S
C931 C933 1.388 . S
C932 C931 1.366 . S
C932 C936 1.385 . S
C933 H908 0.951 . S
C933 C931 1.388 . S
C933 C934 1.366 . S
C934 C933 1.366 . S
C934 C935 1.414 . S
C934 C937 1.499 . S
C935 H909 0.950 . S
C935 C934 1.414 . S
C935 C936 1.374 . S
C936 H910 0.950 . S
C936 C932 1.385 . S
C936 C935 1.374 . S
C937 C934 1.499 . S
C937 C938 1.373 . S
C937 C939 1.389 . S
C938 H911 0.950 . S
C938 C924 1.377 . S
C938 C937 1.373 . S
C939 C923 1.377 . S
C939 C937 1.389 . S
C939 C940 1.524 . S
C940 C939 1.524 . S
C940 C941 1.397 . S
C940 C945 1.363 . S
C941 H912 0.950 . S
C941 C940 1.397 . S
C941 C942 1.334 . S
C942 H913 0.950 . S
C942 C941 1.334 . S
C942 C943 1.287 . S
C943 C942 1.287 . S
C943 C944 1.524 . S
C943 H946 0.999 . S
C944 H914 0.950 . S
C944 C943 1.524 . S
C944 C945 1.415 . S
C945 H915 0.950 . S
C945 C940 1.363 . S
C945 C944 1.415 . S
H946 C943 0.999 . S
H947 C928 0.913 . S
H948 C966 0.951 . S
H949 C968 0.951 . S
H950 C970 0.950 . S
H951 C971 0.950 . S
H952 C973 0.950 . S
H953 C976 0.950 . S
H954 C977 0.950 . S
H955 C979 0.950 . S
H956 C980 0.950 . S
H957 C981 0.951 . S
H958 C983 0.951 . S
H959 C985 0.950 1_455 S
H960 C986 0.950 . S
H961 C988 0.950 . S
H962 C991 0.950 . S
H963 C992 0.950 . S
H964 C994 0.950 . S
H965 C995 0.950 . S
C966 H948 0.951 . S
C966 C967 1.366 . S
C966 C968 1.388 . S
C967 C966 1.366 . S
C967 C971 1.385 . S
C968 H949 0.951 . S
C968 C966 1.388 . S
C968 C969 1.366 . S
C969 C968 1.366 . S
C969 C970 1.414 . S
C969 C972 1.499 . S
C970 H950 0.950 . S
C970 C969 1.414 . S
C970 C971 1.374 . S
C971 H951 0.950 . S
C971 C967 1.385 . S
C971 C970 1.374 . S
C972 C969 1.499 . S
C972 C973 1.373 1_455 S
C972 C974 1.389 . S
C973 H952 0.950 . S
C973 C972 1.373 1_655 S
C973 C989 1.377 . S
C974 C972 1.389 . S
C974 C975 1.524 . S
C974 C988 1.377 . S
C975 C974 1.524 . S
C975 C976 1.397 . S
C975 C980 1.363 . S
C976 H953 0.950 . S
C976 C975 1.397 . S
C976 C977 1.334 . S
C977 H954 0.950 . S
C977 C976 1.334 . S
C977 C978 1.287 . S
C978 C977 1.287 . S
C978 C979 1.524 . S
C978 H997 0.913 . S
C979 H955 0.950 . S
C979 C978 1.524 . S
C979 C980 1.415 . S
C980 H956 0.950 . S
C980 C975 1.363 . S
C980 C979 1.415 . S
C981 H957 0.951 . S
C981 C982 1.366 . S
C981 C983 1.388 . S
C982 C981 1.366 . S
C982 C986 1.385 . S
C983 H958 0.951 . S
C983 C981 1.388 . S
C983 C984 1.366 . S
C984 C983 1.366 . S
C984 C985 1.414 . S
C984 C987 1.499 . S
C985 H959 0.950 1_655 S
C985 C984 1.414 . S
C985 C986 1.374 . S
C986 H960 0.950 . S
C986 C982 1.385 . S
C986 C985 1.374 . S
C987 C984 1.499 . S
C987 C988 1.373 1_655 S
C987 C989 1.389 . S
C988 H961 0.950 . S
C988 C974 1.377 . S
C988 C987 1.373 1_455 S
C989 C973 1.377 . S
C989 C987 1.389 . S
C989 C990 1.524 . S
C990 C989 1.524 . S
C990 C991 1.397 . S
C990 C995 1.363 . S
C991 H962 0.950 . S
C991 C990 1.397 . S
C991 C992 1.334 . S
C992 H963 0.950 . S
C992 C991 1.334 . S
C992 C993 1.287 . S
C993 C992 1.287 . S
C993 C994 1.524 . S
C993 H996 0.999 . S
C994 H964 0.950 . S
C994 C993 1.524 . S
C994 C995 1.415 . S
C995 H965 0.950 . S
C995 C990 1.363 . S
C995 C994 1.415 . S
H996 C993 0.999 . S
H997 C978 0.913 . S
H998 C1016 0.951 . S
H999 C1018 0.951 . S
H1000 C1020 0.950 . S
H1001 C1021 0.950 . S
H1002 C1023 0.950 . S
H1003 C1026 0.950 . S
H1004 C1027 0.950 . S
H1005 C1029 0.950 . S
H1006 C1030 0.950 . S
H1007 C1031 0.951 . S
H1008 C1033 0.951 . S
H1009 C1035 0.950 . S
H1010 C1036 0.950 . S
H1011 C1038 0.950 . S
H1012 C1041 0.950 . S
H1013 C1042 0.950 . S
H1014 C1044 0.950 . S
H1015 C1045 0.950 . S
C1016 H998 0.951 . S
C1016 C1017 1.366 . S
C1016 C1018 1.388 . S
C1017 C1016 1.366 . S
C1017 C1021 1.385 . S
C1018 H999 0.951 . S
C1018 C1016 1.388 . S
C1018 C1019 1.366 . S
C1019 C1018 1.366 . S
C1019 C1020 1.414 . S
C1019 C1022 1.499 . S
C1020 H1000 0.950 . S
C1020 C1019 1.414 . S
C1020 C1021 1.374 . S
C1021 H1001 0.950 . S
C1021 C1017 1.385 . S
C1021 C1020 1.374 . S
C1022 C1019 1.499 . S
C1022 C1023 1.373 . S
C1022 C1024 1.389 . S
C1023 H1002 0.950 . S
C1023 C1022 1.373 . S
C1023 C1039 1.377 . S
C1024 C1022 1.389 . S
C1024 C1025 1.524 . S
C1024 C1038 1.377 . S
C1025 C1024 1.524 . S
C1025 C1026 1.397 . S
C1025 C1030 1.363 . S
C1026 H1003 0.950 . S
C1026 C1025 1.397 . S
C1026 C1027 1.334 . S
C1027 H1004 0.950 . S
C1027 C1026 1.334 . S
C1027 C1028 1.287 . S
C1028 C1027 1.287 . S
C1028 C1029 1.524 . S
C1028 H1047 0.913 . S
C1029 H1005 0.950 . S
C1029 C1028 1.524 . S
C1029 C1030 1.415 . S
C1030 H1006 0.950 . S
C1030 C1025 1.363 . S
C1030 C1029 1.415 . S
C1031 H1007 0.951 . S
C1031 C1032 1.366 . S
C1031 C1033 1.388 . S
C1032 C1031 1.366 . S
C1032 C1036 1.385 . S
C1033 H1008 0.951 . S
C1033 C1031 1.388 . S
C1033 C1034 1.366 . S
C1034 C1033 1.366 . S
C1034 C1035 1.414 . S
C1034 C1037 1.499 . S
C1035 H1009 0.950 . S
C1035 C1034 1.414 . S
C1035 C1036 1.374 . S
C1036 H1010 0.950 . S
C1036 C1032 1.385 . S
C1036 C1035 1.374 . S
C1037 C1034 1.499 . S
C1037 C1038 1.373 . S
C1037 C1039 1.389 . S
C1038 H1011 0.950 . S
C1038 C1024 1.377 . S
C1038 C1037 1.373 . S
C1039 C1023 1.377 . S
C1039 C1037 1.389 . S
C1039 C1040 1.524 . S
C1040 C1039 1.524 . S
C1040 C1041 1.397 . S
C1040 C1045 1.363 . S
C1041 H1012 0.950 . S
C1041 C1040 1.397 . S
C1041 C1042 1.334 . S
C1042 H1013 0.950 . S
C1042 C1041 1.334 . S
C1042 C1043 1.287 . S
C1043 C1042 1.287 . S
C1043 C1044 1.524 . S
C1043 H1046 0.999 . S
C1044 H1014 0.950 . S
C1044 C1043 1.524 . S
C1044 C1045 1.415 . S
C1045 H1015 0.950 . S
C1045 C1040 1.363 . S
C1045 C1044 1.415 . S
H1046 C1043 0.999 . S
H1047 C1028 0.913 . S
H1048 C1066 0.951 . S
H1049 C1068 0.951 . S
H1050 C1070 0.950 . S
H1051 C1071 0.950 . S
H1052 C1073 0.950 . S
H1053 C1076 0.950 . S
H1054 C1077 0.950 . S
H1055 C1079 0.950 . S
H1056 C1080 0.950 . S
H1057 C1081 0.951 . S
H1058 C1083 0.951 . S
H1059 C1085 0.950 . S
H1060 C1086 0.950 . S
H1061 C1088 0.950 . S
H1062 C1091 0.950 . S
H1063 C1092 0.950 . S
H1064 C1094 0.950 . S
H1065 C1095 0.950 . S
C1066 H1048 0.951 . S
C1066 C1067 1.366 . S
C1066 C1068 1.388 . S
C1067 C1066 1.366 . S
C1067 C1071 1.385 . S
C1068 H1049 0.951 . S
C1068 C1066 1.388 . S
C1068 C1069 1.366 . S
C1069 C1068 1.366 . S
C1069 C1070 1.414 . S
C1069 C1072 1.499 . S
C1070 H1050 0.950 . S
C1070 C1069 1.414 . S
C1070 C1071 1.374 . S
C1071 H1051 0.950 . S
C1071 C1067 1.385 . S
C1071 C1070 1.374 . S
C1072 C1069 1.499 . S
C1072 C1073 1.373 . S
C1072 C1074 1.389 . S
C1073 H1052 0.950 . S
C1073 C1072 1.373 . S
C1073 C1089 1.377 . S
C1074 C1072 1.389 . S
C1074 C1075 1.524 . S
C1074 C1088 1.377 . S
C1075 C1074 1.524 . S
C1075 C1076 1.397 . S
C1075 C1080 1.363 . S
C1076 H1053 0.950 . S
C1076 C1075 1.397 . S
C1076 C1077 1.334 . S
C1077 H1054 0.950 . S
C1077 C1076 1.334 . S
C1077 C1078 1.287 . S
C1078 C1077 1.287 . S
C1078 C1079 1.524 . S
C1078 H1097 0.913 . S
C1079 H1055 0.950 . S
C1079 C1078 1.524 . S
C1079 C1080 1.415 . S
C1080 H1056 0.950 . S
C1080 C1075 1.363 . S
C1080 C1079 1.415 . S
C1081 H1057 0.951 . S
C1081 C1082 1.366 . S
C1081 C1083 1.388 . S
C1082 C1081 1.366 . S
C1082 C1086 1.385 . S
C1083 H1058 0.951 . S
C1083 C1081 1.388 . S
C1083 C1084 1.366 . S
C1084 C1083 1.366 . S
C1084 C1085 1.414 . S
C1084 C1087 1.499 . S
C1085 H1059 0.950 . S
C1085 C1084 1.414 . S
C1085 C1086 1.374 . S
C1086 H1060 0.950 . S
C1086 C1082 1.385 . S
C1086 C1085 1.374 . S
C1087 C1084 1.499 . S
C1087 C1088 1.373 . S
C1087 C1089 1.389 . S
C1088 H1061 0.950 . S
C1088 C1074 1.377 . S
C1088 C1087 1.373 . S
C1089 C1073 1.377 . S
C1089 C1087 1.389 . S
C1089 C1090 1.524 . S
C1090 C1089 1.524 . S
C1090 C1091 1.397 . S
C1090 C1095 1.363 . S
C1091 H1062 0.950 . S
C1091 C1090 1.397 . S
C1091 C1092 1.334 . S
C1092 H1063 0.950 . S
C1092 C1091 1.334 . S
C1092 C1093 1.287 . S
C1093 C1092 1.287 . S
C1093 C1094 1.524 . S
C1093 H1096 0.999 . S
C1094 H1064 0.950 . S
C1094 C1093 1.524 . S
C1094 C1095 1.415 . S
C1095 H1065 0.950 . S
C1095 C1090 1.363 . S
C1095 C1094 1.415 . S
H1096 C1093 0.999 . S
H1097 C1078 0.913 . S
H1098 C1116 0.951 . S
H1099 C1118 0.951 . S
H1100 C1120 0.950 . S
H1101 C1121 0.950 . S
H1102 C1123 0.950 . S
H1103 C1126 0.950 . S
H1104 C1127 0.950 . S
H1105 C1129 0.950 . S
H1106 C1130 0.950 . S
H1107 C1131 0.951 . S
H1108 C1133 0.951 . S
H1109 C1135 0.950 . S
H1110 C1136 0.950 . S
H1111 C1138 0.950 . S
H1112 C1141 0.950 . S
H1113 C1142 0.950 . S
H1114 C1144 0.950 . S
H1115 C1145 0.950 . S
C1116 H1098 0.951 . S
C1116 C1117 1.366 . S
C1116 C1118 1.388 . S
C1117 C1116 1.366 . S
C1117 C1121 1.385 . S
C1118 H1099 0.951 . S
C1118 C1116 1.388 . S
C1118 C1119 1.366 . S
C1119 C1118 1.366 . S
C1119 C1120 1.414 . S
C1119 C1122 1.499 . S
C1120 H1100 0.950 . S
C1120 C1119 1.414 . S
C1120 C1121 1.374 . S
C1121 H1101 0.950 . S
C1121 C1117 1.385 . S
C1121 C1120 1.374 . S
C1122 C1119 1.499 . S
C1122 C1123 1.373 . S
C1122 C1124 1.389 . S
C1123 H1102 0.950 . S
C1123 C1122 1.373 . S
C1123 C1139 1.377 . S
C1124 C1122 1.389 . S
C1124 C1125 1.524 . S
C1124 C1138 1.377 . S
C1125 C1124 1.524 . S
C1125 C1126 1.397 . S
C1125 C1130 1.363 . S
C1126 H1103 0.950 . S
C1126 C1125 1.397 . S
C1126 C1127 1.334 . S
C1127 H1104 0.950 . S
C1127 C1126 1.334 . S
C1127 C1128 1.287 . S
C1128 C1127 1.287 . S
C1128 C1129 1.524 . S
C1128 H1147 0.913 . S
C1129 H1105 0.950 . S
C1129 C1128 1.524 . S
C1129 C1130 1.415 . S
C1130 H1106 0.950 . S
C1130 C1125 1.363 . S
C1130 C1129 1.415 . S
C1131 H1107 0.951 . S
C1131 C1132 1.366 . S
C1131 C1133 1.388 . S
C1132 C1131 1.366 . S
C1132 C1136 1.385 . S
C1133 H1108 0.951 . S
C1133 C1131 1.388 . S
C1133 C1134 1.366 . S
C1134 C1133 1.366 . S
C1134 C1135 1.414 . S
C1134 C1137 1.499 . S
C1135 H1109 0.950 . S
C1135 C1134 1.414 . S
C1135 C1136 1.374 . S
C1136 H1110 0.950 . S
C1136 C1132 1.385 . S
C1136 C1135 1.374 . S
C1137 C1134 1.499 . S
C1137 C1138 1.373 . S
C1137 C1139 1.389 . S
C1138 H1111 0.950 . S
C1138 C1124 1.377 . S
C1138 C1137 1.373 . S
C1139 C1123 1.377 . S
C1139 C1137 1.389 . S
C1139 C1140 1.524 . S
C1140 C1139 1.524 . S
C1140 C1141 1.397 . S
C1140 C1145 1.363 . S
C1141 H1112 0.950 . S
C1141 C1140 1.397 . S
C1141 C1142 1.334 . S
C1142 H1113 0.950 . S
C1142 C1141 1.334 . S
C1142 C1143 1.287 . S
C1143 C1142 1.287 . S
C1143 C1144 1.524 . S
C1143 H1146 0.999 . S
C1144 H1114 0.950 . S
C1144 C1143 1.524 . S
C1144 C1145 1.415 . S
C1145 H1115 0.950 . S
C1145 C1140 1.363 . S
C1145 C1144 1.415 . S
H1146 C1143 0.999 . S
H1147 C1128 0.913 . S
H1148 C1166 0.951 . S
H1149 C1168 0.951 . S
H1150 C1170 0.950 . S
H1151 C1171 0.950 . S
H1152 C1173 0.950 . S
H1153 C1176 0.950 . S
H1154 C1177 0.950 . S
H1155 C1179 0.950 . S
H1156 C1180 0.950 . S
H1157 C1181 0.951 . S
H1158 C1183 0.951 . S
H1159 C1185 0.950 . S
H1160 C1186 0.950 . S
H1161 C1188 0.950 . S
H1162 C1191 0.950 . S
H1163 C1192 0.950 . S
H1164 C1194 0.950 . S
H1165 C1195 0.950 . S
C1166 H1148 0.951 . S
C1166 C1167 1.366 . S
C1166 C1168 1.388 . S
C1167 C1166 1.366 . S
C1167 C1171 1.385 . S
C1168 H1149 0.951 . S
C1168 C1166 1.388 . S
C1168 C1169 1.366 . S
C1169 C1168 1.366 . S
C1169 C1170 1.414 . S
C1169 C1172 1.499 . S
C1170 H1150 0.950 . S
C1170 C1169 1.414 . S
C1170 C1171 1.374 . S
C1171 H1151 0.950 . S
C1171 C1167 1.385 . S
C1171 C1170 1.374 . S
C1172 C1169 1.499 . S
C1172 C1173 1.373 . S
C1172 C1174 1.389 . S
C1173 H1152 0.950 . S
C1173 C1172 1.373 . S
C1173 C1189 1.377 . S
C1174 C1172 1.389 . S
C1174 C1175 1.524 . S
C1174 C1188 1.377 . S
C1175 C1174 1.524 . S
C1175 C1176 1.397 . S
C1175 C1180 1.363 . S
C1176 H1153 0.950 . S
C1176 C1175 1.397 . S
C1176 C1177 1.334 . S
C1177 H1154 0.950 . S
C1177 C1176 1.334 . S
C1177 C1178 1.287 . S
C1178 C1177 1.287 . S
C1178 C1179 1.524 . S
C1178 H1197 0.913 . S
C1179 H1155 0.950 . S
C1179 C1178 1.524 . S
C1179 C1180 1.415 . S
C1180 H1156 0.950 . S
C1180 C1175 1.363 . S
C1180 C1179 1.415 . S
C1181 H1157 0.951 . S
C1181 C1182 1.366 . S
C1181 C1183 1.388 . S
C1182 C1181 1.366 . S
C1182 C1186 1.385 . S
C1183 H1158 0.951 . S
C1183 C1181 1.388 . S
C1183 C1184 1.366 . S
C1184 C1183 1.366 . S
C1184 C1185 1.414 . S
C1184 C1187 1.499 . S
C1185 H1159 0.950 . S
C1185 C1184 1.414 . S
C1185 C1186 1.374 . S
C1186 H1160 0.950 . S
C1186 C1182 1.385 . S
C1186 C1185 1.374 . S
C1187 C1184 1.499 . S
C1187 C1188 1.373 . S
C1187 C1189 1.389 . S
C1188 H1161 0.950 . S
C1188 C1174 1.377 . S
C1188 C1187 1.373 . S
C1189 C1173 1.377 . S
C1189 C1187 1.389 . S
C1189 C1190 1.524 . S
C1190 C1189 1.524 . S
C1190 C1191 1.397 . S
C1190 C1195 1.363 . S
C1191 H1162 0.950 . S
C1191 C1190 1.397 . S
C1191 C1192 1.334 . S
C1192 H1163 0.950 . S
C1192 C1191 1.334 . S
C1192 C1193 1.287 . S
C1193 C1192 1.287 . S
C1193 C1194 1.524 . S
C1193 H1196 0.999 . S
C1194 H1164 0.950 . S
C1194 C1193 1.524 . S
C1194 C1195 1.415 . S
C1195 H1165 0.950 . S
C1195 C1190 1.363 . S
C1195 C1194 1.415 . S
H1196 C1193 0.999 . S
H1197 C1178 0.913 . S
H1198 C1216 0.951 . S
H1199 C1218 0.951 1_554 S
H1200 C1220 0.950 . S
H1201 C1221 0.950 . S
H1202 C1223 0.950 . S
H1203 C1226 0.950 1_556 S
H1204 C1227 0.950 . S
H1205 C1229 0.950 . S
H1206 C1230 0.950 . S
H1207 C1231 0.951 . S
H1208 C1233 0.951 . S
H1209 C1235 0.950 . S
H1210 C1236 0.950 . S
H1211 C1238 0.950 . S
H1212 C1241 0.950 . S
H1213 C1242 0.950 1_554 S
H1214 C1244 0.950 . S
H1215 C1245 0.950 . S
C1216 H1198 0.951 . S
C1216 C1217 1.366 . S
C1216 C1218 1.388 . S
C1217 C1216 1.366 . S
C1217 C1221 1.385 . S
C1218 H1199 0.951 1_556 S
C1218 C1216 1.388 . S
C1218 C1219 1.366 . S
C1219 C1218 1.366 . S
C1219 C1220 1.414 . S
C1219 C1222 1.499 . S
C1220 H1200 0.950 . S
C1220 C1219 1.414 . S
C1220 C1221 1.374 . S
C1221 H1201 0.950 . S
C1221 C1217 1.385 . S
C1221 C1220 1.374 . S
C1222 C1219 1.499 . S
C1222 C1223 1.373 1_455 S
C1222 C1224 1.389 1_556 S
C1223 H1202 0.950 . S
C1223 C1222 1.373 1_655 S
C1223 C1239 1.377 . S
C1224 C1222 1.389 1_554 S
C1224 C1225 1.524 . S
C1224 C1238 1.377 . S
C1225 C1224 1.524 . S
C1225 C1226 1.397 . S
C1225 C1230 1.363 . S
C1226 H1203 0.950 1_554 S
C1226 C1225 1.397 . S
C1226 C1227 1.334 . S
C1227 H1204 0.950 . S
C1227 C1226 1.334 . S
C1227 C1228 1.287 . S
C1228 C1227 1.287 . S
C1228 C1229 1.524 . S
C1228 H1247 0.913 . S
C1229 H1205 0.950 . S
C1229 C1228 1.524 . S
C1229 C1230 1.415 . S
C1230 H1206 0.950 . S
C1230 C1225 1.363 . S
C1230 C1229 1.415 . S
C1231 H1207 0.951 . S
C1231 C1232 1.366 . S
C1231 C1233 1.388 . S
C1232 C1231 1.366 . S
C1232 C1236 1.385 . S
C1233 H1208 0.951 . S
C1233 C1231 1.388 . S
C1233 C1234 1.366 . S
C1234 C1233 1.366 . S
C1234 C1235 1.414 . S
C1234 C1237 1.499 . S
C1235 H1209 0.950 . S
C1235 C1234 1.414 . S
C1235 C1236 1.374 . S
C1236 H1210 0.950 . S
C1236 C1232 1.385 . S
C1236 C1235 1.374 . S
C1237 C1234 1.499 . S
C1237 C1238 1.373 1_655 S
C1237 C1239 1.389 1_554 S
C1238 H1211 0.950 . S
C1238 C1224 1.377 . S
C1238 C1237 1.373 1_455 S
C1239 C1223 1.377 . S
C1239 C1237 1.389 1_556 S
C1239 C1240 1.524 . S
C1240 C1239 1.524 . S
C1240 C1241 1.397 1_556 S
C1240 C1245 1.363 . S
C1241 H1212 0.950 . S
C1241 C1240 1.397 1_554 S
C1241 C1242 1.334 1_554 S
C1242 H1213 0.950 1_556 S
C1242 C1241 1.334 1_556 S
C1242 C1243 1.287 . S
C1243 C1242 1.287 . S
C1243 C1244 1.524 . S
C1243 H1246 0.999 . S
C1244 H1214 0.950 . S
C1244 C1243 1.524 . S
C1244 C1245 1.415 . S
C1245 H1215 0.950 . S
C1245 C1240 1.363 . S
C1245 C1244 1.415 . S
H1246 C1243 0.999 . S
H1247 C1228 0.913 . S
H1248 C1266 0.951 . S
H1249 C1268 0.951 1_565 S
H1250 C1270 0.950 . S
H1251 C1271 0.950 . S
H1252 C1273 0.950 . S
H1253 C1276 0.950 1_545 S
H1254 C1277 0.950 . S
H1255 C1279 0.950 . S
H1256 C1280 0.950 . S
H1257 C1281 0.951 . S
H1258 C1283 0.951 . S
H1259 C1285 0.950 . S
H1260 C1286 0.950 . S
H1261 C1288 0.950 . S
H1262 C1291 0.950 . S
H1263 C1292 0.950 . S
H1264 C1294 0.950 . S
H1265 C1295 0.950 . S
C1266 H1248 0.951 . S
C1266 C1267 1.366 . S
C1266 C1268 1.388 . S
C1267 C1266 1.366 . S
C1267 C1271 1.385 . S
C1268 H1249 0.951 1_545 S
C1268 C1266 1.388 . S
C1268 C1269 1.366 . S
C1269 C1268 1.366 . S
C1269 C1270 1.414 . S
C1269 C1272 1.495 1_545 S
C1270 H1250 0.950 . S
C1270 C1269 1.414 . S
C1270 C1271 1.374 . S
C1271 H1251 0.950 . S
C1271 C1267 1.385 . S
C1271 C1270 1.374 . S
C1272 C1269 1.495 1_565 S
C1272 C1273 1.372 1_565 S
C1272 C1274 1.394 . S
C1273 H1252 0.950 . S
C1273 C1272 1.372 1_545 S
C1273 C1289 1.377 1_545 S
C1274 C1272 1.394 . S
C1274 C1275 1.524 . S
C1274 C1288 1.377 . S
C1275 C1274 1.524 . S
C1275 C1276 1.397 . S
C1275 C1280 1.363 . S
C1276 H1253 0.950 1_565 S
C1276 C1275 1.397 . S
C1276 C1277 1.334 . S
C1277 H1254 0.950 . S
C1277 C1276 1.334 . S
C1277 C1278 1.287 . S
C1278 C1277 1.287 . S
C1278 C1279 1.524 . S
C1278 H1297 0.913 . S
C1279 H1255 0.950 . S
C1279 C1278 1.524 . S
C1279 C1280 1.415 . S
C1280 H1256 0.950 . S
C1280 C1275 1.363 . S
C1280 C1279 1.415 . S
C1281 H1257 0.951 . S
C1281 C1282 1.366 . S
C1281 C1283 1.388 . S
C1282 C1281 1.366 . S
C1282 C1286 1.385 . S
C1283 H1258 0.951 . S
C1283 C1281 1.388 . S
C1283 C1284 1.366 . S
C1284 C1283 1.366 . S
C1284 C1285 1.414 . S
C1284 C1287 1.499 . S
C1285 H1259 0.950 . S
C1285 C1284 1.414 . S
C1285 C1286 1.374 . S
C1286 H1260 0.950 . S
C1286 C1282 1.385 . S
C1286 C1285 1.374 . S
C1287 C1284 1.499 . S
C1287 C1288 1.373 . S
C1287 C1289 1.389 . S
C1288 H1261 0.950 . S
C1288 C1274 1.377 . S
C1288 C1287 1.373 . S
C1289 C1273 1.377 1_565 S
C1289 C1287 1.389 . S
C1289 C1290 1.524 . S
C1290 C1289 1.524 . S
C1290 C1291 1.397 . S
C1290 C1295 1.363 1_565 S
C1291 H1262 0.950 . S
C1291 C1290 1.397 . S
C1291 C1292 1.334 . S
C1292 H1263 0.950 . S
C1292 C1291 1.334 . S
C1292 C1293 1.249 1_565 S
C1293 C1292 1.249 1_545 S
C1293 C1294 1.555 . S
C1293 H1296 1.010 . S
C1294 H1264 0.950 . S
C1294 C1293 1.555 . S
C1294 C1295 1.415 . S
C1295 H1265 0.950 . S
C1295 C1290 1.363 1_545 S
C1295 C1294 1.415 . S
H1296 C1293 1.010 . S
H1297 C1278 0.913 . S
H1298 C1316 0.951 . S
H1299 C1318 0.951 . S
H1300 C1320 0.950 . S
H1301 C1321 0.950 . S
H1302 C1323 0.950 . S
H1303 C1326 0.950 . S
H1304 C1327 0.950 . S
H1305 C1329 0.950 . S
H1306 C1330 0.950 . S
H1307 C1331 0.951 . S
H1308 C1333 0.951 . S
H1309 C1335 0.950 . S
H1310 C1336 0.950 . S
H1311 C1338 0.950 . S
H1312 C1341 0.950 . S
H1313 C1342 0.950 . S
H1314 C1344 0.950 . S
H1315 C1345 0.950 . S
C1316 H1298 0.951 . S
C1316 C1317 1.366 . S
C1316 C1318 1.388 . S
C1317 C1316 1.366 . S
C1317 C1321 1.385 . S
C1318 H1299 0.951 . S
C1318 C1316 1.388 . S
C1318 C1319 1.366 . S
C1319 C1318 1.366 . S
C1319 C1320 1.414 . S
C1319 C1322 1.499 . S
C1320 H1300 0.950 . S
C1320 C1319 1.414 . S
C1320 C1321 1.374 . S
C1321 H1301 0.950 . S
C1321 C1317 1.385 . S
C1321 C1320 1.374 . S
C1322 C1319 1.499 . S
C1322 C1323 1.373 . S
C1322 C1324 1.389 . S
C1323 H1302 0.950 . S
C1323 C1322 1.373 . S
C1323 C1339 1.377 . S
C1324 C1322 1.389 . S
C1324 C1325 1.524 . S
C1324 C1338 1.377 . S
C1325 C1324 1.524 . S
C1325 C1326 1.397 . S
C1325 C1330 1.363 . S
C1326 H1303 0.950 . S
C1326 C1325 1.397 . S
C1326 C1327 1.334 . S
C1327 H1304 0.950 . S
C1327 C1326 1.334 . S
C1327 C1328 1.287 . S
C1328 C1327 1.287 . S
C1328 C1329 1.524 . S
C1328 H1347 0.913 . S
C1329 H1305 0.950 . S
C1329 C1328 1.524 . S
C1329 C1330 1.415 . S
C1330 H1306 0.950 . S
C1330 C1325 1.363 . S
C1330 C1329 1.415 . S
C1331 H1307 0.951 . S
C1331 C1332 1.366 . S
C1331 C1333 1.388 . S
C1332 C1331 1.366 . S
C1332 C1336 1.385 . S
C1333 H1308 0.951 . S
C1333 C1331 1.388 . S
C1333 C1334 1.366 . S
C1334 C1333 1.366 . S
C1334 C1335 1.414 . S
C1334 C1337 1.499 . S
C1335 H1309 0.950 . S
C1335 C1334 1.414 . S
C1335 C1336 1.374 . S
C1336 H1310 0.950 . S
C1336 C1332 1.385 . S
C1336 C1335 1.374 . S
C1337 C1334 1.499 . S
C1337 C1338 1.373 . S
C1337 C1339 1.389 . S
C1338 H1311 0.950 . S
C1338 C1324 1.377 . S
C1338 C1337 1.373 . S
C1339 C1323 1.377 . S
C1339 C1337 1.389 . S
C1339 C1340 1.524 . S
C1340 C1339 1.524 . S
C1340 C1341 1.397 . S
C1340 C1345 1.363 . S
C1341 H1312 0.950 . S
C1341 C1340 1.397 . S
C1341 C1342 1.334 . S
C1342 H1313 0.950 . S
C1342 C1341 1.334 . S
C1342 C1343 1.287 . S
C1343 C1342 1.287 . S
C1343 C1344 1.524 . S
C1343 H1346 0.999 . S
C1344 H1314 0.950 . S
C1344 C1343 1.524 . S
C1344 C1345 1.415 . S
C1345 H1315 0.950 . S
C1345 C1340 1.363 . S
C1345 C1344 1.415 . S
H1346 C1343 0.999 . S
H1347 C1328 0.913 . S
H1348 C1366 0.951 . S
H1349 C1368 0.951 . S
H1350 C1370 0.950 . S
H1351 C1371 0.950 . S
H1352 C1373 0.950 . S
H1353 C1376 0.950 . S
H1354 C1377 0.950 . S
H1355 C1379 0.950 . S
H1356 C1380 0.950 . S
H1357 C1381 0.951 . S
H1358 C1383 0.951 . S
H1359 C1385 0.950 . S
H1360 C1386 0.950 . S
H1361 C1388 0.950 1_565 S
H1362 C1391 0.950 . S
H1363 C1392 0.950 . S
H1364 C1394 0.950 . S
H1365 C1395 0.950 . S
C1366 H1348 0.951 . S
C1366 C1367 1.366 . S
C1366 C1368 1.388 . S
C1367 C1366 1.366 . S
C1367 C1371 1.385 . S
C1368 H1349 0.951 . S
C1368 C1366 1.388 . S
C1368 C1369 1.366 . S
C1369 C1368 1.366 . S
C1369 C1370 1.414 . S
C1369 C1372 1.499 . S
C1370 H1350 0.950 . S
C1370 C1369 1.414 . S
C1370 C1371 1.374 . S
C1371 H1351 0.950 . S
C1371 C1367 1.385 . S
C1371 C1370 1.374 . S
C1372 C1369 1.499 . S
C1372 C1373 1.373 . S
C1372 C1374 1.389 . S
C1373 H1352 0.950 . S
C1373 C1372 1.373 . S
C1373 C1389 1.377 . S
C1374 C1372 1.389 . S
C1374 C1375 1.524 . S
C1374 C1388 1.377 . S
C1375 C1374 1.524 . S
C1375 C1376 1.397 . S
C1375 C1380 1.363 . S
C1376 H1353 0.950 . S
C1376 C1375 1.397 . S
C1376 C1377 1.334 . S
C1377 H1354 0.950 . S
C1377 C1376 1.334 . S
C1377 C1378 1.287 . S
C1378 C1377 1.287 . S
C1378 C1379 1.524 . S
C1378 H1397 0.913 . S
C1379 H1355 0.950 . S
C1379 C1378 1.524 . S
C1379 C1380 1.415 . S
C1380 H1356 0.950 . S
C1380 C1375 1.363 . S
C1380 C1379 1.415 . S
C1381 H1357 0.951 . S
C1381 C1382 1.366 . S
C1381 C1383 1.388 . S
C1382 C1381 1.366 . S
C1382 C1386 1.385 . S
C1383 H1358 0.951 . S
C1383 C1381 1.388 . S
C1383 C1384 1.366 . S
C1384 C1383 1.366 . S
C1384 C1385 1.414 . S
C1384 C1387 1.499 1_565 S
C1385 H1359 0.950 . S
C1385 C1384 1.414 . S
C1385 C1386 1.374 . S
C1386 H1360 0.950 . S
C1386 C1382 1.385 . S
C1386 C1385 1.374 . S
C1387 C1384 1.499 1_545 S
C1387 C1388 1.373 . S
C1387 C1389 1.389 . S
C1388 H1361 0.950 1_545 S
C1388 C1374 1.377 . S
C1388 C1387 1.373 . S
C1389 C1373 1.377 . S
C1389 C1387 1.389 . S
C1389 C1390 1.524 . S
C1390 C1389 1.524 . S
C1390 C1391 1.397 . S
C1390 C1395 1.363 . S
C1391 H1362 0.950 . S
C1391 C1390 1.397 . S
C1391 C1392 1.334 . S
C1392 H1363 0.950 . S
C1392 C1391 1.334 . S
C1392 C1393 1.287 . S
C1393 C1392 1.287 . S
C1393 C1394 1.524 . S
C1393 H1396 0.999 . S
C1394 H1364 0.950 . S
C1394 C1393 1.524 . S
C1394 C1395 1.415 . S
C1395 H1365 0.950 . S
C1395 C1390 1.363 . S
C1395 C1394 1.415 . S
H1396 C1393 0.999 . S
H1397 C1378 0.913 . S
H1398 C1416 0.951 . S
H1399 C1418 0.951 . S
H1400 C1420 0.950 . S
H1401 C1421 0.950 . S
H1402 C1423 0.950 . S
H1403 C1426 0.950 . S
H1404 C1427 0.950 . S
H1405 C1429 0.950 . S
H1406 C1430 0.950 . S
H1407 C1431 0.951 . S
H1408 C1433 0.951 . S
H1409 C1435 0.947 . S
H1410 C1436 0.950 . S
H1411 C1438 0.950 . S
H1412 C1441 0.950 . S
H1413 C1442 0.950 . S
H1414 C1444 0.950 . S
H1415 C1445 0.950 . S
C1416 H1398 0.951 . S
C1416 C1417 1.366 . S
C1416 C1418 1.388 . S
C1417 C1416 1.366 . S
C1417 C1421 1.385 . S
C1418 H1399 0.951 . S
C1418 C1416 1.388 . S
C1418 C1419 1.366 . S
C1419 C1418 1.366 . S
C1419 C1420 1.414 . S
C1419 C1422 1.499 . S
C1420 H1400 0.950 . S
C1420 C1419 1.414 . S
C1420 C1421 1.374 . S
C1421 H1401 0.950 . S
C1421 C1417 1.385 . S
C1421 C1420 1.374 . S
C1422 C1419 1.499 . S
C1422 C1423 1.373 . S
C1422 C1424 1.389 . S
C1423 H1402 0.950 . S
C1423 C1422 1.373 . S
C1423 C1439 1.377 1_556 S
C1424 C1422 1.389 . S
C1424 C1425 1.524 . S
C1424 C1438 1.377 . S
C1425 C1424 1.524 . S
C1425 C1426 1.397 . S
C1425 C1430 1.363 . S
C1426 H1403 0.950 . S
C1426 C1425 1.397 . S
C1426 C1427 1.334 . S
C1427 H1404 0.950 . S
C1427 C1426 1.334 . S
C1427 C1428 1.287 . S
C1428 C1427 1.287 . S
C1428 C1429 1.524 . S
C1428 H1447 0.913 . S
C1429 H1405 0.950 . S
C1429 C1428 1.524 . S
C1429 C1430 1.415 . S
C1430 H1406 0.950 . S
C1430 C1425 1.363 . S
C1430 C1429 1.415 . S
C1431 H1407 0.951 . S
C1431 C1432 1.366 . S
C1431 C1433 1.388 . S
C1432 C1431 1.366 . S
C1432 C1436 1.385 . S
C1433 H1408 0.951 . S
C1433 C1431 1.388 . S
C1433 C1434 1.366 . S
C1434 C1433 1.366 . S
C1434 C1435 1.414 . S
C1434 C1437 1.499 . S
C1435 H1409 0.947 . S
C1435 C1434 1.414 . S
C1435 C1436 1.374 . S
C1436 H1410 0.950 . S
C1436 C1432 1.385 . S
C1436 C1435 1.374 . S
C1437 C1434 1.499 . S
C1437 C1438 1.373 1_554 S
C1437 C1439 1.389 . S
C1438 H1411 0.950 . S
C1438 C1424 1.377 . S
C1438 C1437 1.373 1_556 S
C1439 C1423 1.377 1_554 S
C1439 C1437 1.389 . S
C1439 C1440 1.524 . S
C1440 C1439 1.524 . S
C1440 C1441 1.397 . S
C1440 C1445 1.363 . S
C1441 H1412 0.950 . S
C1441 C1440 1.397 . S
C1441 C1442 1.334 . S
C1442 H1413 0.950 . S
C1442 C1441 1.334 . S
C1442 C1443 1.287 . S
C1443 C1442 1.287 . S
C1443 C1444 1.524 . S
C1443 H1446 0.999 . S
C1444 H1414 0.950 . S
C1444 C1443 1.524 . S
C1444 C1445 1.415 . S
C1445 H1415 0.950 . S
C1445 C1440 1.363 . S
C1445 C1444 1.415 . S
H1446 C1443 0.999 . S
H1447 C1428 0.913 . S
H1448 C1466 0.951 . S
H1449 C1468 0.951 . S
H1450 C1470 0.950 . S
H1451 C1471 0.950 . S
H1452 C1473 0.950 . S
H1453 C1476 0.950 . S
H1454 C1477 0.950 . S
H1455 C1479 0.950 . S
H1456 C1480 0.950 . S
H1457 C1481 0.951 . S
H1458 C1483 0.951 1_545 S
H1459 C1485 0.950 . S
H1460 C1486 0.950 . S
H1461 C1488 0.950 . S
H1462 C1491 0.950 . S
H1463 C1492 0.950 . S
H1464 C1494 0.950 . S
H1465 C1495 0.950 . S
C1466 H1448 0.951 . S
C1466 C1467 1.366 . S
C1466 C1468 1.388 . S
C1467 C1466 1.366 . S
C1467 C1471 1.385 . S
C1468 H1449 0.951 . S
C1468 C1466 1.388 . S
C1468 C1469 1.366 . S
C1469 C1468 1.366 . S
C1469 C1470 1.414 . S
C1469 C1472 1.499 . S
C1470 H1450 0.950 . S
C1470 C1469 1.414 . S
C1470 C1471 1.374 . S
C1471 H1451 0.950 . S
C1471 C1467 1.385 . S
C1471 C1470 1.374 . S
C1472 C1469 1.499 . S
C1472 C1473 1.373 . S
C1472 C1474 1.389 . S
C1473 H1452 0.950 . S
C1473 C1472 1.373 . S
C1473 C1489 1.377 . S
C1474 C1472 1.389 . S
C1474 C1475 1.524 . S
C1474 C1488 1.377 1_545 S
C1475 C1474 1.524 . S
C1475 C1476 1.397 . S
C1475 C1480 1.363 1_545 S
C1476 H1453 0.950 . S
C1476 C1475 1.397 . S
C1476 C1477 1.334 . S
C1477 H1454 0.950 . S
C1477 C1476 1.334 . S
C1477 C1478 1.287 1_545 S
C1478 C1477 1.287 1_565 S
C1478 C1479 1.524 . S
C1478 H1497 0.913 . S
C1479 H1455 0.950 . S
C1479 C1478 1.524 . S
C1479 C1480 1.415 . S
C1480 H1456 0.950 . S
C1480 C1475 1.363 1_565 S
C1480 C1479 1.415 . S
C1481 H1457 0.951 . S
C1481 C1482 1.366 . S
C1481 C1483 1.388 . S
C1482 C1481 1.366 . S
C1482 C1486 1.385 . S
C1483 H1458 0.951 1_565 S
C1483 C1481 1.388 . S
C1483 C1484 1.366 . S
C1484 C1483 1.366 . S
C1484 C1485 1.414 . S
C1484 C1487 1.485 1_565 S
C1485 H1459 0.950 . S
C1485 C1484 1.414 . S
C1485 C1486 1.374 . S
C1486 H1460 0.950 . S
C1486 C1482 1.385 . S
C1486 C1485 1.374 . S
C1487 C1484 1.485 1_545 S
C1487 C1488 1.369 1_545 S
C1487 C1489 1.408 . S
C1488 H1461 0.950 . S
C1488 C1474 1.377 1_565 S
C1488 C1487 1.369 1_565 S
C1489 C1473 1.377 . S
C1489 C1487 1.408 . S
C1489 C1490 1.524 . S
C1490 C1489 1.524 . S
C1490 C1491 1.397 . S
C1490 C1495 1.363 . S
C1491 H1462 0.950 . S
C1491 C1490 1.397 . S
C1491 C1492 1.334 . S
C1492 H1463 0.950 . S
C1492 C1491 1.334 . S
C1492 C1493 1.287 . S
C1493 C1492 1.287 . S
C1493 C1494 1.524 . S
C1493 H1496 0.999 . S
C1494 H1464 0.950 . S
C1494 C1493 1.524 . S
C1494 C1495 1.415 . S
C1495 H1465 0.950 . S
C1495 C1490 1.363 . S
C1495 C1494 1.415 . S
H1496 C1493 0.999 . S
H1497 C1478 0.913 . S
H1498 C1516 0.951 . S
H1499 C1518 0.951 . S
H1500 C1520 0.950 . S
H1501 C1521 0.950 . S
H1502 C1523 0.950 . S
H1503 C1526 0.950 . S
H1504 C1527 0.950 . S
H1505 C1529 0.950 . S
H1506 C1530 0.950 . S
H1507 C1531 0.951 . S
H1508 C1533 0.951 . S
H1509 C1535 0.950 . S
H1510 C1536 0.950 . S
H1511 C1538 0.950 . S
H1512 C1541 0.950 . S
H1513 C1542 0.950 . S
H1514 C1544 0.950 . S
H1515 C1545 0.950 . S
C1516 H1498 0.951 . S
C1516 C1517 1.366 . S
C1516 C1518 1.388 . S
C1517 C1516 1.366 . S
C1517 C1521 1.385 . S
C1518 H1499 0.951 . S
C1518 C1516 1.388 . S
C1518 C1519 1.366 . S
C1519 C1518 1.366 . S
C1519 C1520 1.414 . S
C1519 C1522 1.499 . S
C1520 H1500 0.950 . S
C1520 C1519 1.414 . S
C1520 C1521 1.374 . S
C1521 H1501 0.950 . S
C1521 C1517 1.385 . S
C1521 C1520 1.374 . S
C1522 C1519 1.499 . S
C1522 C1523 1.373 . S
C1522 C1524 1.389 . S
C1523 H1502 0.950 . S
C1523 C1522 1.373 . S
C1523 C1539 1.377 . S
C1524 C1522 1.389 . S
C1524 C1525 1.524 . S
C1524 C1538 1.377 . S
C1525 C1524 1.524 . S
C1525 C1526 1.397 . S
C1525 C1530 1.363 . S
C1526 H1503 0.950 . S
C1526 C1525 1.397 . S
C1526 C1527 1.334 . S
C1527 H1504 0.950 . S
C1527 C1526 1.334 . S
C1527 C1528 1.287 . S
C1528 C1527 1.287 . S
C1528 C1529 1.524 . S
C1528 H1547 0.913 . S
C1529 H1505 0.950 . S
C1529 C1528 1.524 . S
C1529 C1530 1.415 . S
C1530 H1506 0.950 . S
C1530 C1525 1.363 . S
C1530 C1529 1.415 . S
C1531 H1507 0.951 . S
C1531 C1532 1.366 . S
C1531 C1533 1.388 . S
C1532 C1531 1.366 . S
C1532 C1536 1.385 . S
C1533 H1508 0.951 . S
C1533 C1531 1.388 . S
C1533 C1534 1.366 . S
C1534 C1533 1.366 . S
C1534 C1535 1.414 . S
C1534 C1537 1.499 . S
C1535 H1509 0.950 . S
C1535 C1534 1.414 . S
C1535 C1536 1.374 . S
C1536 H1510 0.950 . S
C1536 C1532 1.385 . S
C1536 C1535 1.374 . S
C1537 C1534 1.499 . S
C1537 C1538 1.373 . S
C1537 C1539 1.389 . S
C1538 H1511 0.950 . S
C1538 C1524 1.377 . S
C1538 C1537 1.373 . S
C1539 C1523 1.377 . S
C1539 C1537 1.389 . S
C1539 C1540 1.524 . S
C1540 C1539 1.524 . S
C1540 C1541 1.397 . S
C1540 C1545 1.363 . S
C1541 H1512 0.950 . S
C1541 C1540 1.397 . S
C1541 C1542 1.334 . S
C1542 H1513 0.950 . S
C1542 C1541 1.334 . S
C1542 C1543 1.287 . S
C1543 C1542 1.287 . S
C1543 C1544 1.524 . S
C1543 H1546 0.999 . S
C1544 H1514 0.950 . S
C1544 C1543 1.524 . S
C1544 C1545 1.415 . S
C1545 H1515 0.950 . S
C1545 C1540 1.363 . S
C1545 C1544 1.415 . S
H1546 C1543 0.999 . S
H1547 C1528 0.913 . S
H1548 C1566 0.951 . S
H1549 C1568 0.951 1_565 S
H1550 C1570 0.950 . S
H1551 C1571 0.950 . S
H1552 C1573 0.950 . S
H1553 C1576 0.950 . S
H1554 C1577 0.950 . S
H1555 C1579 0.950 . S
H1556 C1580 0.950 . S
H1557 C1581 0.951 . S
H1558 C1583 0.951 . S
H1559 C1585 0.950 . S
H1560 C1586 0.950 . S
H1561 C1588 0.950 . S
H1562 C1591 0.950 . S
H1563 C1592 0.950 . S
H1564 C1594 0.950 . S
H1565 C1595 0.950 . S
C1566 H1548 0.951 . S
C1566 C1567 1.366 . S
C1566 C1568 1.388 . S
C1567 C1566 1.366 . S
C1567 C1571 1.385 . S
C1568 H1549 0.951 1_545 S
C1568 C1566 1.388 . S
C1568 C1569 1.366 . S
C1569 C1568 1.366 . S
C1569 C1570 1.414 . S
C1569 C1572 1.489 1_545 S
C1570 H1550 0.950 . S
C1570 C1569 1.414 . S
C1570 C1571 1.374 . S
C1571 H1551 0.950 . S
C1571 C1567 1.385 . S
C1571 C1570 1.374 . S
C1572 C1569 1.489 1_565 S
C1572 C1573 1.370 1_565 S
C1572 C1574 1.403 . S
C1573 H1552 0.950 . S
C1573 C1572 1.370 1_545 S
C1573 C1589 1.377 1_545 S
C1574 C1572 1.403 . S
C1574 C1575 1.524 . S
C1574 C1588 1.377 . S
C1575 C1574 1.524 . S
C1575 C1576 1.397 . S
C1575 C1580 1.363 . S
C1576 H1553 0.950 . S
C1576 C1575 1.397 . S
C1576 C1577 1.334 . S
C1577 H1554 0.950 . S
C1577 C1576 1.334 . S
C1577 C1578 1.287 . S
C1578 C1577 1.287 . S
C1578 C1579 1.524 . S
C1578 H1597 0.913 . S
C1579 H1555 0.950 . S
C1579 C1578 1.524 . S
C1579 C1580 1.415 . S
C1580 H1556 0.950 . S
C1580 C1575 1.363 . S
C1580 C1579 1.415 . S
C1581 H1557 0.951 . S
C1581 C1582 1.366 . S
C1581 C1583 1.388 . S
C1582 C1581 1.366 . S
C1582 C1586 1.385 . S
C1583 H1558 0.951 . S
C1583 C1581 1.388 . S
C1583 C1584 1.366 . S
C1584 C1583 1.366 . S
C1584 C1585 1.414 . S
C1584 C1587 1.499 . S
C1585 H1559 0.950 . S
C1585 C1584 1.414 . S
C1585 C1586 1.374 . S
C1586 H1560 0.950 . S
C1586 C1582 1.385 . S
C1586 C1585 1.374 . S
C1587 C1584 1.499 . S
C1587 C1588 1.373 . S
C1587 C1589 1.389 . S
C1588 H1561 0.950 . S
C1588 C1574 1.377 . S
C1588 C1587 1.373 . S
C1589 C1573 1.377 1_565 S
C1589 C1587 1.389 . S
C1589 C1590 1.524 . S
C1590 C1589 1.524 . S
C1590 C1591 1.397 . S
C1590 C1595 1.363 1_565 S
C1591 H1562 0.950 . S
C1591 C1590 1.397 . S
C1591 C1592 1.334 . S
C1592 H1563 0.950 . S
C1592 C1591 1.334 . S
C1592 C1593 1.287 1_565 S
C1593 C1592 1.287 1_545 S
C1593 C1594 1.524 . S
C1593 H1596 0.999 . S
C1594 H1564 0.950 . S
C1594 C1593 1.524 . S
C1594 C1595 1.415 . S
C1595 H1565 0.950 . S
C1595 C1590 1.363 1_545 S
C1595 C1594 1.415 . S
H1596 C1593 0.999 . S
H1597 C1578 0.913 . S
H1598 C1616 0.951 . S
H1599 C1618 0.951 . S
H1600 C1620 0.950 . S
H1601 C1621 0.950 . S
H1602 C1623 0.950 . S
H1603 C1626 0.950 . S
H1604 C1627 0.950 . S
H1605 C1629 0.950 . S
H1606 C1630 0.950 . S
H1607 C1631 0.951 . S
H1608 C1633 0.951 . S
H1609 C1635 0.950 . S
H1610 C1636 0.950 . S
H1611 C1638 0.950 . S
H1612 C1641 0.950 . S
H1613 C1642 0.950 . S
H1614 C1644 0.950 . S
H1615 C1645 0.950 . S
C1616 H1598 0.951 . S
C1616 C1617 1.366 . S
C1616 C1618 1.388 . S
C1617 C1616 1.366 . S
C1617 C1621 1.385 . S
C1618 H1599 0.951 . S
C1618 C1616 1.388 . S
C1618 C1619 1.366 . S
C1619 C1618 1.366 . S
C1619 C1620 1.414 . S
C1619 C1622 1.499 . S
C1620 H1600 0.950 . S
C1620 C1619 1.414 . S
C1620 C1621 1.374 . S
C1621 H1601 0.950 . S
C1621 C1617 1.385 . S
C1621 C1620 1.374 . S
C1622 C1619 1.499 . S
C1622 C1623 1.373 1_556 S
C1622 C1624 1.389 . S
C1623 H1602 0.950 . S
C1623 C1622 1.373 1_554 S
C1623 C1639 1.377 . S
C1624 C1622 1.389 . S
C1624 C1625 1.524 . S
C1624 C1638 1.377 . S
C1625 C1624 1.524 . S
C1625 C1626 1.397 . S
C1625 C1630 1.363 . S
C1626 H1603 0.950 . S
C1626 C1625 1.397 . S
C1626 C1627 1.334 . S
C1627 H1604 0.950 . S
C1627 C1626 1.334 . S
C1627 C1628 1.287 . S
C1628 C1627 1.287 . S
C1628 C1629 1.524 . S
C1628 H1647 0.913 . S
C1629 H1605 0.950 . S
C1629 C1628 1.524 . S
C1629 C1630 1.415 . S
C1630 H1606 0.950 . S
C1630 C1625 1.363 . S
C1630 C1629 1.415 . S
C1631 H1607 0.951 . S
C1631 C1632 1.366 . S
C1631 C1633 1.388 . S
C1632 C1631 1.366 . S
C1632 C1636 1.385 . S
C1633 H1608 0.951 . S
C1633 C1631 1.388 . S
C1633 C1634 1.366 . S
C1634 C1633 1.366 . S
C1634 C1635 1.414 . S
C1634 C1637 1.499 . S
C1635 H1609 0.950 . S
C1635 C1634 1.414 . S
C1635 C1636 1.374 . S
C1636 H1610 0.950 . S
C1636 C1632 1.385 . S
C1636 C1635 1.374 . S
C1637 C1634 1.499 . S
C1637 C1638 1.373 1_554 S
C1637 C1639 1.389 . S
C1638 H1611 0.950 . S
C1638 C1624 1.377 . S
C1638 C1637 1.373 1_556 S
C1639 C1623 1.377 . S
C1639 C1637 1.389 . S
C1639 C1640 1.524 . S
C1640 C1639 1.524 . S
C1640 C1641 1.397 . S
C1640 C1645 1.363 . S
C1641 H1612 0.950 . S
C1641 C1640 1.397 . S
C1641 C1642 1.334 . S
C1642 H1613 0.950 . S
C1642 C1641 1.334 . S
C1642 C1643 1.287 . S
C1643 C1642 1.287 . S
C1643 C1644 1.524 . S
C1643 H1646 0.999 . S
C1644 H1614 0.950 . S
C1644 C1643 1.524 . S
C1644 C1645 1.415 . S
C1645 H1615 0.950 . S
C1645 C1640 1.363 . S
C1645 C1644 1.415 . S
H1646 C1643 0.999 . S
H1647 C1628 0.913 . S
H1648 C1666 0.951 . S
H1649 C1668 0.951 . S
H1650 C1670 0.950 . S
H1651 C1671 0.950 . S
H1652 C1673 0.950 . S
H1653 C1676 0.950 . S
H1654 C1677 0.950 . S
H1655 C1679 0.950 1_556 S
H1656 C1680 0.950 . S
H1657 C1681 0.951 . S
H1658 C1683 0.951 1_655 S
H1659 C1685 0.950 . S
H1660 C1686 0.950 . S
H1661 C1688 0.950 . S
H1662 C1691 0.950 . S
H1663 C1692 0.950 . S
H1664 C1694 0.950 . S
H1665 C1695 0.950 . S
C1666 H1648 0.951 . S
C1666 C1667 1.366 . S
C1666 C1668 1.388 . S
C1667 C1666 1.366 . S
C1667 C1671 1.385 . S
C1668 H1649 0.951 . S
C1668 C1666 1.388 . S
C1668 C1669 1.366 . S
C1669 C1668 1.366 . S
C1669 C1670 1.414 . S
C1669 C1672 1.499 . S
C1670 H1650 0.950 . S
C1670 C1669 1.414 . S
C1670 C1671 1.374 . S
C1671 H1651 0.950 . S
C1671 C1667 1.385 . S
C1671 C1670 1.374 . S
C1672 C1669 1.499 . S
C1672 C1673 1.373 . S
C1672 C1674 1.389 . S
C1673 H1652 0.950 . S
C1673 C1672 1.373 . S
C1673 C1689 1.377 . S
C1674 C1672 1.389 . S
C1674 C1675 1.524 . S
C1674 C1688 1.377 . S
C1675 C1674 1.524 . S
C1675 C1676 1.397 . S
C1675 C1680 1.363 . S
C1676 H1653 0.950 . S
C1676 C1675 1.397 . S
C1676 C1677 1.334 . S
C1677 H1654 0.950 . S
C1677 C1676 1.334 . S
C1677 C1678 1.287 . S
C1678 C1677 1.287 . S
C1678 C1679 1.524 . S
C1678 H1697 0.948 . S
C1679 H1655 0.950 1_554 S
C1679 C1678 1.524 . S
C1679 C1680 1.415 . S
C1680 H1656 0.950 . S
C1680 C1675 1.363 . S
C1680 C1679 1.415 . S
C1681 H1657 0.951 . S
C1681 C1682 1.366 . S
C1681 C1683 1.388 . S
C1682 C1681 1.366 . S
C1682 C1686 1.385 . S
C1683 H1658 0.951 1_455 S
C1683 C1681 1.388 . S
C1683 C1684 1.366 . S
C1684 C1683 1.366 . S
C1684 C1685 1.414 . S
C1684 C1687 1.499 1_455 S
C1685 H1659 0.950 . S
C1685 C1684 1.414 . S
C1685 C1686 1.374 . S
C1686 H1660 0.950 . S
C1686 C1682 1.385 . S
C1686 C1685 1.374 . S
C1687 C1684 1.499 1_655 S
C1687 C1688 1.373 . S
C1687 C1689 1.389 . S
C1688 H1661 0.950 . S
C1688 C1674 1.377 . S
C1688 C1687 1.373 . S
C1689 C1673 1.377 . S
C1689 C1687 1.389 . S
C1689 C1690 1.524 . S
C1690 C1689 1.524 . S
C1690 C1691 1.397 1_655 S
C1690 C1695 1.363 . S
C1691 H1662 0.950 . S
C1691 C1690 1.397 1_455 S
C1691 C1692 1.334 . S
C1692 H1663 0.950 . S
C1692 C1691 1.334 . S
C1692 C1693 1.287 . S
C1693 C1692 1.287 . S
C1693 C1694 1.524 1_455 S
C1693 H1696 0.999 . S
C1694 H1664 0.950 . S
C1694 C1693 1.524 1_655 S
C1694 C1695 1.415 . S
C1695 H1665 0.950 . S
C1695 C1690 1.363 . S
C1695 C1694 1.415 . S
H1696 C1693 0.999 . S
H1697 C1678 0.948 . S
H1698 C1716 0.951 . S
H1699 C1718 0.951 . S
H1700 C1720 0.950 . S
H1701 C1721 0.950 . S
H1702 C1723 0.950 . S
H1703 C1726 0.950 . S
H1704 C1727 0.950 . S
H1705 C1729 0.950 . S
H1706 C1730 0.950 . S
H1707 C1731 0.951 . S
H1708 C1733 0.951 . S
H1709 C1735 0.950 . S
H1710 C1736 0.950 . S
H1711 C1738 0.950 . S
H1712 C1741 0.950 . S
H1713 C1742 0.950 . S
H1714 C1744 0.950 . S
H1715 C1745 0.950 . S
C1716 H1698 0.951 . S
C1716 C1717 1.366 . S
C1716 C1718 1.388 . S
C1717 C1716 1.366 . S
C1717 C1721 1.385 . S
C1718 H1699 0.951 . S
C1718 C1716 1.388 . S
C1718 C1719 1.366 . S
C1719 C1718 1.366 . S
C1719 C1720 1.414 . S
C1719 C1722 1.499 . S
C1720 H1700 0.950 . S
C1720 C1719 1.414 . S
C1720 C1721 1.374 . S
C1721 H1701 0.950 . S
C1721 C1717 1.385 . S
C1721 C1720 1.374 . S
C1722 C1719 1.499 . S
C1722 C1723 1.373 . S
C1722 C1724 1.389 . S
C1723 H1702 0.950 . S
C1723 C1722 1.373 . S
C1723 C1739 1.377 . S
C1724 C1722 1.389 . S
C1724 C1725 1.524 . S
C1724 C1738 1.377 . S
C1725 C1724 1.524 . S
C1725 C1726 1.397 . S
C1725 C1730 1.363 . S
C1726 H1703 0.950 . S
C1726 C1725 1.397 . S
C1726 C1727 1.334 . S
C1727 H1704 0.950 . S
C1727 C1726 1.334 . S
C1727 C1728 1.287 . S
C1728 C1727 1.287 . S
C1728 C1729 1.524 . S
C1728 H1747 0.913 . S
C1729 H1705 0.950 . S
C1729 C1728 1.524 . S
C1729 C1730 1.415 . S
C1730 H1706 0.950 . S
C1730 C1725 1.363 . S
C1730 C1729 1.415 . S
C1731 H1707 0.951 . S
C1731 C1732 1.366 . S
C1731 C1733 1.388 . S
C1732 C1731 1.366 . S
C1732 C1736 1.385 . S
C1733 H1708 0.951 . S
C1733 C1731 1.388 . S
C1733 C1734 1.366 . S
C1734 C1733 1.366 . S
C1734 C1735 1.414 . S
C1734 C1737 1.499 . S
C1735 H1709 0.950 . S
C1735 C1734 1.414 . S
C1735 C1736 1.374 . S
C1736 H1710 0.950 . S
C1736 C1732 1.385 . S
C1736 C1735 1.374 . S
C1737 C1734 1.499 . S
C1737 C1738 1.373 . S
C1737 C1739 1.389 . S
C1738 H1711 0.950 . S
C1738 C1724 1.377 . S
C1738 C1737 1.373 . S
C1739 C1723 1.377 . S
C1739 C1737 1.389 . S
C1739 C1740 1.524 . S
C1740 C1739 1.524 . S
C1740 C1741 1.397 . S
C1740 C1745 1.363 . S
C1741 H1712 0.950 . S
C1741 C1740 1.397 . S
C1741 C1742 1.334 . S
C1742 H1713 0.950 . S
C1742 C1741 1.334 . S
C1742 C1743 1.287 . S
C1743 C1742 1.287 . S
C1743 C1744 1.524 . S
C1743 H1746 0.999 . S
C1744 H1714 0.950 . S
C1744 C1743 1.524 . S
C1744 C1745 1.415 . S
C1745 H1715 0.950 . S
C1745 C1740 1.363 . S
C1745 C1744 1.415 . S
H1746 C1743 0.999 . S
H1747 C1728 0.913 . S
H1748 C1766 0.951 . S
H1749 C1768 0.951 . S
H1750 C1770 0.950 1_455 S
H1751 C1771 0.950 . S
H1752 C1773 0.950 . S
H1753 C1776 0.950 . S
H1754 C1777 0.950 . S
H1755 C1779 0.950 . S
H1756 C1780 0.948 1_455 S
H1757 C1781 0.951 . S
H1758 C1783 0.951 . S
H1759 C1785 0.950 . S
H1760 C1786 0.950 . S
H1761 C1788 0.950 . S
H1762 C1791 0.950 . S
H1763 C1792 0.950 . S
H1764 C1794 0.950 . S
H1765 C1795 0.950 . S
C1766 H1748 0.951 . S
C1766 C1767 1.366 . S
C1766 C1768 1.388 . S
C1767 C1766 1.366 . S
C1767 C1771 1.385 . S
C1768 H1749 0.951 . S
C1768 C1766 1.388 . S
C1768 C1769 1.366 . S
C1769 C1768 1.366 . S
C1769 C1770 1.414 . S
C1769 C1772 1.499 1_655 S
C1770 H1750 0.950 1_655 S
C1770 C1769 1.414 . S
C1770 C1771 1.374 . S
C1771 H1751 0.950 . S
C1771 C1767 1.385 . S
C1771 C1770 1.374 . S
C1772 C1769 1.499 1_455 S
C1772 C1773 1.373 . S
C1772 C1774 1.389 . S
C1773 H1752 0.950 . S
C1773 C1772 1.373 . S
C1773 C1789 1.377 . S
C1774 C1772 1.389 . S
C1774 C1775 1.524 . S
C1774 C1788 1.377 . S
C1775 C1774 1.524 . S
C1775 C1776 1.397 . S
C1775 C1780 1.356 1_455 S
C1776 H1753 0.950 . S
C1776 C1775 1.397 . S
C1776 C1777 1.334 1_455 S
C1777 H1754 0.950 . S
C1777 C1776 1.334 1_655 S
C1777 C1778 1.287 . S
C1778 C1777 1.287 . S
C1778 C1779 1.524 . S
C1778 H1797 0.913 . S
C1779 H1755 0.950 . S
C1779 C1778 1.524 . S
C1779 C1780 1.425 . S
C1780 H1756 0.948 1_655 S
C1780 C1775 1.356 1_655 S
C1780 C1779 1.425 . S
C1781 H1757 0.951 . S
C1781 C1782 1.366 . S
C1781 C1783 1.388 . S
C1782 C1781 1.366 . S
C1782 C1786 1.385 . S
C1783 H1758 0.951 . S
C1783 C1781 1.388 . S
C1783 C1784 1.366 . S
C1784 C1783 1.366 . S
C1784 C1785 1.414 . S
C1784 C1787 1.499 . S
C1785 H1759 0.950 . S
C1785 C1784 1.414 . S
C1785 C1786 1.374 . S
C1786 H1760 0.950 . S
C1786 C1782 1.385 . S
C1786 C1785 1.374 . S
C1787 C1784 1.499 . S
C1787 C1788 1.373 . S
C1787 C1789 1.389 . S
C1788 H1761 0.950 . S
C1788 C1774 1.377 . S
C1788 C1787 1.373 . S
C1789 C1773 1.377 . S
C1789 C1787 1.389 . S
C1789 C1790 1.524 . S
C1790 C1789 1.524 . S
C1790 C1791 1.397 . S
C1790 C1795 1.363 . S
C1791 H1762 0.950 . S
C1791 C1790 1.397 . S
C1791 C1792 1.334 . S
C1792 H1763 0.950 . S
C1792 C1791 1.334 . S
C1792 C1793 1.287 . S
C1793 C1792 1.287 . S
C1793 C1794 1.524 . S
C1793 H1796 0.999 . S
C1794 H1764 0.950 . S
C1794 C1793 1.524 . S
C1794 C1795 1.415 . S
C1795 H1765 0.950 . S
C1795 C1790 1.363 . S
C1795 C1794 1.415 . S
H1796 C1793 0.999 . S
H1797 C1778 0.913 . S
H1798 C1816 0.951 . S
H1799 C1818 0.951 . S
H1800 C1820 0.950 1_455 S
H1801 C1821 0.950 . S
H1802 C1823 0.950 . S
H1803 C1826 0.950 . S
H1804 C1827 0.950 . S
H1805 C1829 0.950 . S
H1806 C1830 0.950 . S
H1807 C1831 0.951 . S
H1808 C1833 0.951 . S
H1809 C1835 0.950 . S
H1810 C1836 0.950 . S
H1811 C1838 0.950 . S
H1812 C1841 0.950 . S
H1813 C1842 0.950 . S
H1814 C1844 0.950 . S
H1815 C1845 0.950 . S
C1816 H1798 0.951 . S
C1816 C1817 1.366 . S
C1816 C1818 1.388 . S
C1817 C1816 1.366 . S
C1817 C1821 1.385 . S
C1818 H1799 0.951 . S
C1818 C1816 1.388 . S
C1818 C1819 1.366 . S
C1819 C1818 1.366 . S
C1819 C1820 1.414 . S
C1819 C1822 1.499 1_655 S
C1820 H1800 0.950 1_655 S
C1820 C1819 1.414 . S
C1820 C1821 1.374 . S
C1821 H1801 0.950 . S
C1821 C1817 1.385 . S
C1821 C1820 1.374 . S
C1822 C1819 1.499 1_455 S
C1822 C1823 1.373 . S
C1822 C1824 1.389 . S
C1823 H1802 0.950 . S
C1823 C1822 1.373 . S
C1823 C1839 1.377 . S
C1824 C1822 1.389 . S
C1824 C1825 1.524 1_455 S
C1824 C1838 1.377 . S
C1825 C1824 1.524 1_655 S
C1825 C1826 1.397 . S
C1825 C1830 1.363 . S
C1826 H1803 0.950 . S
C1826 C1825 1.397 . S
C1826 C1827 1.334 . S
C1827 H1804 0.950 . S
C1827 C1826 1.334 . S
C1827 C1828 1.287 . S
C1828 C1827 1.287 . S
C1828 C1829 1.524 . S
C1828 H1847 0.913 . S
C1829 H1805 0.950 . S
C1829 C1828 1.524 . S
C1829 C1830 1.415 . S
C1830 H1806 0.950 . S
C1830 C1825 1.363 . S
C1830 C1829 1.415 . S
C1831 H1807 0.951 . S
C1831 C1832 1.366 . S
C1831 C1833 1.388 . S
C1832 C1831 1.366 . S
C1832 C1836 1.385 . S
C1833 H1808 0.951 . S
C1833 C1831 1.388 . S
C1833 C1834 1.366 . S
C1834 C1833 1.366 . S
C1834 C1835 1.414 . S
C1834 C1837 1.499 . S
C1835 H1809 0.950 . S
C1835 C1834 1.414 . S
C1835 C1836 1.374 . S
C1836 H1810 0.950 . S
C1836 C1832 1.385 . S
C1836 C1835 1.374 . S
C1837 C1834 1.499 . S
C1837 C1838 1.373 . S
C1837 C1839 1.389 . S
C1838 H1811 0.950 . S
C1838 C1824 1.377 . S
C1838 C1837 1.373 . S
C1839 C1823 1.377 . S
C1839 C1837 1.389 . S
C1839 C1840 1.524 . S
C1840 C1839 1.524 . S
C1840 C1841 1.397 . S
C1840 C1845 1.363 . S
C1841 H1812 0.950 . S
C1841 C1840 1.397 . S
C1841 C1842 1.334 . S
C1842 H1813 0.950 . S
C1842 C1841 1.334 . S
C1842 C1843 1.287 . S
C1843 C1842 1.287 . S
C1843 C1844 1.524 . S
C1843 H1846 0.999 . S
C1844 H1814 0.950 . S
C1844 C1843 1.524 . S
C1844 C1845 1.415 . S
C1845 H1815 0.950 . S
C1845 C1840 1.363 . S
C1845 C1844 1.415 . S
H1846 C1843 0.999 . S
H1847 C1828 0.913 . S
H1848 C1866 0.951 . S
H1849 C1868 0.951 . S
H1850 C1870 0.950 . S
H1851 C1871 0.950 . S
H1852 C1873 0.950 . S
H1853 C1876 0.950 . S
H1854 C1877 0.950 . S
H1855 C1879 0.950 . S
H1856 C1880 0.950 . S
H1857 C1881 0.951 . S
H1858 C1883 0.951 . S
H1859 C1885 0.950 . S
H1860 C1886 0.950 . S
H1861 C1888 0.950 . S
H1862 C1891 0.950 . S
H1863 C1892 0.950 . S
H1864 C1894 0.950 . S
H1865 C1895 0.950 . S
C1866 H1848 0.951 . S
C1866 C1867 1.366 . S
C1866 C1868 1.388 . S
C1867 C1866 1.366 . S
C1867 C1871 1.385 . S
C1868 H1849 0.951 . S
C1868 C1866 1.388 . S
C1868 C1869 1.366 . S
C1869 C1868 1.366 . S
C1869 C1870 1.414 . S
C1869 C1872 1.499 . S
C1870 H1850 0.950 . S
C1870 C1869 1.414 . S
C1870 C1871 1.374 . S
C1871 H1851 0.950 . S
C1871 C1867 1.385 . S
C1871 C1870 1.374 . S
C1872 C1869 1.499 . S
C1872 C1873 1.373 . S
C1872 C1874 1.389 . S
C1873 H1852 0.950 . S
C1873 C1872 1.373 . S
C1873 C1889 1.377 . S
C1874 C1872 1.389 . S
C1874 C1875 1.524 . S
C1874 C1888 1.377 . S
C1875 C1874 1.524 . S
C1875 C1876 1.397 . S
C1875 C1880 1.363 . S
C1876 H1853 0.950 . S
C1876 C1875 1.397 . S
C1876 C1877 1.334 . S
C1877 H1854 0.950 . S
C1877 C1876 1.334 . S
C1877 C1878 1.287 . S
C1878 C1877 1.287 . S
C1878 C1879 1.524 . S
C1878 H1897 0.913 . S
C1879 H1855 0.950 . S
C1879 C1878 1.524 . S
C1879 C1880 1.415 . S
C1880 H1856 0.950 . S
C1880 C1875 1.363 . S
C1880 C1879 1.415 . S
C1881 H1857 0.951 . S
C1881 C1882 1.366 . S
C1881 C1883 1.388 . S
C1882 C1881 1.366 . S
C1882 C1886 1.385 . S
C1883 H1858 0.951 . S
C1883 C1881 1.388 . S
C1883 C1884 1.366 . S
C1884 C1883 1.366 . S
C1884 C1885 1.414 . S
C1884 C1887 1.499 . S
C1885 H1859 0.950 . S
C1885 C1884 1.414 . S
C1885 C1886 1.374 . S
C1886 H1860 0.950 . S
C1886 C1882 1.385 . S
C1886 C1885 1.374 . S
C1887 C1884 1.499 . S
C1887 C1888 1.373 . S
C1887 C1889 1.389 . S
C1888 H1861 0.950 . S
C1888 C1874 1.377 . S
C1888 C1887 1.373 . S
C1889 C1873 1.377 . S
C1889 C1887 1.389 . S
C1889 C1890 1.524 . S
C1890 C1889 1.524 . S
C1890 C1891 1.397 . S
C1890 C1895 1.363 . S
C1891 H1862 0.950 . S
C1891 C1890 1.397 . S
C1891 C1892 1.334 . S
C1892 H1863 0.950 . S
C1892 C1891 1.334 . S
C1892 C1893 1.287 . S
C1893 C1892 1.287 . S
C1893 C1894 1.524 . S
C1893 H1896 0.999 . S
C1894 H1864 0.950 . S
C1894 C1893 1.524 . S
C1894 C1895 1.415 . S
C1895 H1865 0.950 . S
C1895 C1890 1.363 . S
C1895 C1894 1.415 . S
H1896 C1893 0.999 . S
H1897 C1878 0.913 . S
H1898 C1916 0.951 . S
H1899 C1918 0.951 . S
H1900 C1920 0.950 . S
H1901 C1921 0.950 . S
H1902 C1923 0.950 . S
H1903 C1926 0.950 . S
H1904 C1927 0.950 . S
H1905 C1929 0.950 1_455 S
H1906 C1930 0.958 . S
H1907 C1931 0.951 . S
H1908 C1933 0.951 1_655 S
H1909 C1935 0.950 . S
H1910 C1936 0.950 . S
H1911 C1938 0.950 1_455 S
H1912 C1941 0.950 . S
H1913 C1942 0.950 . S
H1914 C1944 0.950 . S
H1915 C1945 0.950 . S
C1916 H1898 0.951 . S
C1916 C1917 1.366 . S
C1916 C1918 1.388 . S
C1917 C1916 1.366 . S
C1917 C1921 1.385 . S
C1918 H1899 0.951 . S
C1918 C1916 1.388 . S
C1918 C1919 1.366 . S
C1919 C1918 1.366 . S
C1919 C1920 1.414 . S
C1919 C1922 1.499 . S
C1920 H1900 0.950 . S
C1920 C1919 1.414 . S
C1920 C1921 1.374 . S
C1921 H1901 0.950 . S
C1921 C1917 1.385 . S
C1921 C1920 1.374 . S
C1922 C1919 1.499 . S
C1922 C1923 1.373 . S
C1922 C1924 1.389 . S
C1923 H1902 0.950 . S
C1923 C1922 1.373 . S
C1923 C1939 1.377 . S
C1924 C1922 1.389 . S
C1924 C1925 1.524 . S
C1924 C1938 1.377 . S
C1925 C1924 1.524 . S
C1925 C1926 1.397 . S
C1925 C1930 1.363 . S
C1926 H1903 0.950 . S
C1926 C1925 1.397 . S
C1926 C1927 1.334 . S
C1927 H1904 0.950 . S
C1927 C1926 1.334 . S
C1927 C1928 1.287 . S
C1928 C1927 1.287 . S
C1928 C1929 1.524 . S
C1928 H1947 0.913 . S
C1929 H1905 0.950 1_655 S
C1929 C1928 1.524 . S
C1929 C1930 1.415 . S
C1930 H1906 0.958 . S
C1930 C1925 1.363 . S
C1930 C1929 1.415 . S
C1931 H1907 0.951 . S
C1931 C1932 1.366 . S
C1931 C1933 1.388 . S
C1932 C1931 1.366 . S
C1932 C1936 1.385 . S
C1933 H1908 0.951 1_455 S
C1933 C1931 1.388 . S
C1933 C1934 1.366 . S
C1934 C1933 1.366 . S
C1934 C1935 1.414 . S
C1934 C1937 1.499 1_455 S
C1935 H1909 0.950 . S
C1935 C1934 1.414 . S
C1935 C1936 1.374 . S
C1936 H1910 0.950 . S
C1936 C1932 1.385 . S
C1936 C1935 1.374 . S
C1937 C1934 1.499 1_655 S
C1937 C1938 1.373 . S
C1937 C1939 1.389 . S
C1938 H1911 0.950 1_655 S
C1938 C1924 1.377 . S
C1938 C1937 1.373 . S
C1939 C1923 1.377 . S
C1939 C1937 1.389 . S
C1939 C1940 1.524 . S
C1940 C1939 1.524 . S
C1940 C1941 1.397 . S
C1940 C1945 1.363 . S
C1941 H1912 0.950 . S
C1941 C1940 1.397 . S
C1941 C1942 1.334 . S
C1942 H1913 0.950 . S
C1942 C1941 1.334 . S
C1942 C1943 1.287 . S
C1943 C1942 1.287 . S
C1943 C1944 1.524 . S
C1943 H1946 0.999 . S
C1944 H1914 0.950 . S
C1944 C1943 1.524 . S
C1944 C1945 1.415 . S
C1945 H1915 0.950 . S
C1945 C1940 1.363 . S
C1945 C1944 1.415 . S
H1946 C1943 0.999 . S
H1947 C1928 0.913 . S
H1948 C1966 0.951 . S
H1949 C1968 0.951 . S
H1950 C1970 0.950 . S
H1951 C1971 0.950 . S
H1952 C1973 0.950 . S
H1953 C1976 0.950 . S
H1954 C1977 0.950 . S
H1955 C1979 0.950 . S
H1956 C1980 0.950 . S
H1957 C1981 0.951 . S
H1958 C1983 0.951 . S
H1959 C1985 0.950 . S
H1960 C1986 0.950 . S
H1961 C1988 0.950 . S
H1962 C1991 0.950 . S
H1963 C1992 0.950 . S
H1964 C1994 0.950 . S
H1965 C1995 0.950 . S
C1966 H1948 0.951 . S
C1966 C1967 1.366 . S
C1966 C1968 1.388 . S
C1967 C1966 1.366 . S
C1967 C1971 1.385 . S
C1968 H1949 0.951 . S
C1968 C1966 1.388 . S
C1968 C1969 1.366 . S
C1969 C1968 1.366 . S
C1969 C1970 1.414 . S
C1969 C1972 1.499 . S
C1970 H1950 0.950 . S
C1970 C1969 1.414 . S
C1970 C1971 1.374 . S
C1971 H1951 0.950 . S
C1971 C1967 1.385 . S
C1971 C1970 1.374 . S
C1972 C1969 1.499 . S
C1972 C1973 1.373 . S
C1972 C1974 1.389 . S
C1973 H1952 0.950 . S
C1973 C1972 1.373 . S
C1973 C1989 1.377 . S
C1974 C1972 1.389 . S
C1974 C1975 1.524 . S
C1974 C1988 1.377 . S
C1975 C1974 1.524 . S
C1975 C1976 1.397 . S
C1975 C1980 1.363 . S
C1976 H1953 0.950 . S
C1976 C1975 1.397 . S
C1976 C1977 1.334 . S
C1977 H1954 0.950 . S
C1977 C1976 1.334 . S
C1977 C1978 1.287 . S
C1978 C1977 1.287 . S
C1978 C1979 1.524 . S
C1978 H1997 0.913 . S
C1979 H1955 0.950 . S
C1979 C1978 1.524 . S
C1979 C1980 1.415 . S
C1980 H1956 0.950 . S
C1980 C1975 1.363 . S
C1980 C1979 1.415 . S
C1981 H1957 0.951 . S
C1981 C1982 1.366 . S
C1981 C1983 1.388 . S
C1982 C1981 1.366 . S
C1982 C1986 1.385 . S
C1983 H1958 0.951 . S
C1983 C1981 1.388 . S
C1983 C1984 1.366 . S
C1984 C1983 1.366 . S
C1984 C1985 1.414 . S
C1984 C1987 1.499 . S
C1985 H1959 0.950 . S
C1985 C1984 1.414 . S
C1985 C1986 1.374 . S
C1986 H1960 0.950 . S
C1986 C1982 1.385 . S
C1986 C1985 1.374 . S
C1987 C1984 1.499 . S
C1987 C1988 1.373 . S
C1987 C1989 1.389 . S
C1988 H1961 0.950 . S
C1988 C1974 1.377 . S
C1988 C1987 1.373 . S
C1989 C1973 1.377 . S
C1989 C1987 1.389 . S
C1989 C1990 1.524 . S
C1990 C1989 1.524 . S
C1990 C1991 1.397 . S
C1990 C1995 1.363 . S
C1991 H1962 0.950 . S
C1991 C1990 1.397 . S
C1991 C1992 1.334 . S
C1992 H1963 0.950 . S
C1992 C1991 1.334 . S
C1992 C1993 1.287 . S
C1993 C1992 1.287 . S
C1993 C1994 1.524 . S
C1993 H1996 0.999 1_556 S
C1994 H1964 0.950 . S
C1994 C1993 1.524 . S
C1994 C1995 1.415 . S
C1995 H1965 0.950 . S
C1995 C1990 1.363 . S
C1995 C1994 1.415 . S
H1996 C1993 0.999 1_554 S
H1997 C1978 0.913 . S
H1998 C2016 0.951 . S
H1999 C2018 0.951 . S
H2000 C2020 0.950 . S
H2001 C2021 0.950 . S
H2002 C2023 0.950 . S
H2003 C2026 0.950 . S
H2004 C2027 0.950 . S
H2005 C2029 0.947 1_565 S
H2006 C2030 0.959 . S
H2007 C2031 0.951 . S
H2008 C2033 0.951 1_545 S
H2009 C2035 0.950 . S
H2010 C2036 0.950 . S
H2011 C2038 0.923 1_565 S
H2012 C2041 0.950 . S
H2013 C2042 0.950 . S
H2014 C2044 0.950 . S
H2015 C2045 0.950 . S
C2016 H1998 0.951 . S
C2016 C2017 1.366 . S
C2016 C2018 1.388 . S
C2017 C2016 1.366 . S
C2017 C2021 1.385 . S
C2018 H1999 0.951 . S
C2018 C2016 1.388 . S
C2018 C2019 1.366 . S
C2019 C2018 1.366 . S
C2019 C2020 1.414 . S
C2019 C2022 1.499 . S
C2020 H2000 0.950 . S
C2020 C2019 1.414 . S
C2020 C2021 1.374 . S
C2021 H2001 0.950 . S
C2021 C2017 1.385 . S
C2021 C2020 1.374 . S
C2022 C2019 1.499 . S
C2022 C2023 1.373 . S
C2022 C2024 1.389 . S
C2023 H2002 0.950 . S
C2023 C2022 1.373 . S
C2023 C2039 1.377 . S
C2024 C2022 1.389 . S
C2024 C2025 1.524 . S
C2024 C2038 1.406 . S
C2025 C2024 1.524 . S
C2025 C2026 1.397 . S
C2025 C2030 1.354 1_545 S
C2026 H2003 0.950 . S
C2026 C2025 1.397 . S
C2026 C2027 1.334 . S
C2027 H2004 0.950 . S
C2027 C2026 1.334 . S
C2027 C2028 1.287 . S
C2028 C2027 1.287 . S
C2028 C2029 1.527 . S
C2028 H2047 0.913 . S
C2029 H2005 0.947 1_545 S
C2029 C2028 1.527 . S
C2029 C2030 1.415 1_545 S
C2030 H2006 0.959 . S
C2030 C2025 1.354 1_565 S
C2030 C2029 1.415 1_565 S
C2031 H2007 0.951 . S
C2031 C2032 1.366 . S
C2031 C2033 1.388 . S
C2032 C2031 1.366 . S
C2032 C2036 1.385 . S
C2033 H2008 0.951 1_565 S
C2033 C2031 1.388 . S
C2033 C2034 1.366 . S
C2034 C2033 1.366 . S
C2034 C2035 1.414 . S
C2034 C2037 1.510 . S
C2035 H2009 0.950 . S
C2035 C2034 1.414 . S
C2035 C2036 1.374 . S
C2036 H2010 0.950 . S
C2036 C2032 1.385 . S
C2036 C2035 1.374 . S
C2037 C2034 1.510 . S
C2037 C2038 1.372 1_565 S
C2037 C2039 1.377 1_565 S
C2038 H2011 0.923 1_545 S
C2038 C2024 1.406 . S
C2038 C2037 1.372 1_545 S
C2039 C2023 1.377 . S
C2039 C2037 1.377 1_545 S
C2039 C2040 1.524 . S
C2040 C2039 1.524 . S
C2040 C2041 1.397 1_545 S
C2040 C2045 1.363 . S
C2041 H2012 0.950 . S
C2041 C2040 1.397 1_565 S
C2041 C2042 1.334 . S
C2042 H2013 0.950 . S
C2042 C2041 1.334 . S
C2042 C2043 1.287 1_565 S
C2043 C2042 1.287 1_545 S
C2043 C2044 1.524 . S
C2043 H2046 0.999 . S
C2044 H2014 0.950 . S
C2044 C2043 1.524 . S
C2044 C2045 1.415 . S
C2045 H2015 0.950 . S
C2045 C2040 1.363 . S
C2045 C2044 1.415 . S
H2046 C2043 0.999 . S
H2047 C2028 0.913 . S
H2048 C2066 0.951 . S
H2049 C2068 0.951 . S
H2050 C2070 0.950 . S
H2051 C2071 0.950 . S
H2052 C2073 0.950 . S
H2053 C2076 0.950 . S
H2054 C2077 0.950 . S
H2055 C2079 0.950 . S
H2056 C2080 0.950 . S
H2057 C2081 0.951 . S
H2058 C2083 0.951 . S
H2059 C2085 0.950 . S
H2060 C2086 0.950 . S
H2061 C2088 0.950 . S
H2062 C2091 0.950 . S
H2063 C2092 0.950 . S
H2064 C2094 0.950 . S
H2065 C2095 0.950 . S
C2066 H2048 0.951 . S
C2066 C2067 1.366 . S
C2066 C2068 1.388 . S
C2067 C2066 1.366 . S
C2067 C2071 1.385 . S
C2068 H2049 0.951 . S
C2068 C2066 1.388 . S
C2068 C2069 1.366 . S
C2069 C2068 1.366 . S
C2069 C2070 1.414 . S
C2069 C2072 1.499 . S
C2070 H2050 0.950 . S
C2070 C2069 1.414 . S
C2070 C2071 1.374 . S
C2071 H2051 0.950 . S
C2071 C2067 1.385 . S
C2071 C2070 1.374 . S
C2072 C2069 1.499 . S
C2072 C2073 1.373 . S
C2072 C2074 1.389 . S
C2073 H2052 0.950 . S
C2073 C2072 1.373 . S
C2073 C2089 1.377 . S
C2074 C2072 1.389 . S
C2074 C2075 1.524 . S
C2074 C2088 1.377 . S
C2075 C2074 1.524 . S
C2075 C2076 1.397 . S
C2075 C2080 1.363 . S
C2076 H2053 0.950 . S
C2076 C2075 1.397 . S
C2076 C2077 1.334 . S
C2077 H2054 0.950 . S
C2077 C2076 1.334 . S
C2077 C2078 1.287 . S
C2078 C2077 1.287 . S
C2078 C2079 1.524 . S
C2078 H2097 0.913 . S
C2079 H2055 0.950 . S
C2079 C2078 1.524 . S
C2079 C2080 1.415 . S
C2080 H2056 0.950 . S
C2080 C2075 1.363 . S
C2080 C2079 1.415 . S
C2081 H2057 0.951 . S
C2081 C2082 1.366 . S
C2081 C2083 1.388 . S
C2082 C2081 1.366 . S
C2082 C2086 1.385 . S
C2083 H2058 0.951 . S
C2083 C2081 1.388 . S
C2083 C2084 1.366 . S
C2084 C2083 1.366 . S
C2084 C2085 1.414 . S
C2084 C2087 1.499 . S
C2085 H2059 0.950 . S
C2085 C2084 1.414 . S
C2085 C2086 1.374 . S
C2086 H2060 0.950 . S
C2086 C2082 1.385 . S
C2086 C2085 1.374 . S
C2087 C2084 1.499 . S
C2087 C2088 1.373 . S
C2087 C2089 1.389 . S
C2088 H2061 0.950 . S
C2088 C2074 1.377 . S
C2088 C2087 1.373 . S
C2089 C2073 1.377 . S
C2089 C2087 1.389 . S
C2089 C2090 1.524 . S
C2090 C2089 1.524 . S
C2090 C2091 1.397 . S
C2090 C2095 1.363 . S
C2091 H2062 0.950 . S
C2091 C2090 1.397 . S
C2091 C2092 1.334 . S
C2092 H2063 0.950 . S
C2092 C2091 1.334 . S
C2092 C2093 1.287 . S
C2093 C2092 1.287 . S
C2093 C2094 1.524 . S
C2093 H2096 0.999 . S
C2094 H2064 0.950 . S
C2094 C2093 1.524 . S
C2094 C2095 1.415 . S
C2095 H2065 0.950 . S
C2095 C2090 1.363 . S
C2095 C2094 1.415 . S
H2096 C2093 0.999 . S
H2097 C2078 0.913 . S
H2098 C2116 0.951 . S
H2099 C2118 0.951 . S
H2100 C2120 0.950 . S
H2101 C2121 0.950 . S
H2102 C2123 0.950 . S
H2103 C2126 0.950 . S
H2104 C2127 0.950 . S
H2105 C2129 0.950 . S
H2106 C2130 0.950 . S
H2107 C2131 0.951 . S
H2108 C2133 0.951 . S
H2109 C2135 0.950 1_565 S
H2110 C2136 0.950 . S
H2111 C2138 0.950 . S
H2112 C2141 0.950 . S
H2113 C2142 0.950 . S
H2114 C2144 0.950 . S
H2115 C2145 0.950 . S
C2116 H2098 0.951 . S
C2116 C2117 1.366 . S
C2116 C2118 1.388 . S
C2117 C2116 1.366 . S
C2117 C2121 1.385 . S
C2118 H2099 0.951 . S
C2118 C2116 1.388 . S
C2118 C2119 1.366 . S
C2119 C2118 1.366 . S
C2119 C2120 1.414 . S
C2119 C2122 1.499 . S
C2120 H2100 0.950 . S
C2120 C2119 1.414 . S
C2120 C2121 1.374 . S
C2121 H2101 0.950 . S
C2121 C2117 1.385 . S
C2121 C2120 1.374 . S
C2122 C2119 1.499 . S
C2122 C2123 1.373 . S
C2122 C2124 1.389 . S
C2123 H2102 0.950 . S
C2123 C2122 1.373 . S
C2123 C2139 1.377 1_565 S
C2124 C2122 1.389 . S
C2124 C2125 1.524 . S
C2124 C2138 1.377 . S
C2125 C2124 1.524 . S
C2125 C2126 1.397 . S
C2125 C2130 1.363 . S
C2126 H2103 0.950 . S
C2126 C2125 1.397 . S
C2126 C2127 1.334 . S
C2127 H2104 0.950 . S
C2127 C2126 1.334 . S
C2127 C2128 1.287 . S
C2128 C2127 1.287 . S
C2128 C2129 1.524 . S
C2128 H2147 0.913 . S
C2129 H2105 0.950 . S
C2129 C2128 1.524 . S
C2129 C2130 1.415 . S
C2130 H2106 0.950 . S
C2130 C2125 1.363 . S
C2130 C2129 1.415 . S
C2131 H2107 0.951 . S
C2131 C2132 1.366 . S
C2131 C2133 1.388 . S
C2132 C2131 1.366 . S
C2132 C2136 1.385 . S
C2133 H2108 0.951 . S
C2133 C2131 1.388 . S
C2133 C2134 1.366 . S
C2134 C2133 1.366 . S
C2134 C2135 1.414 . S
C2134 C2137 1.475 1_545 S
C2135 H2109 0.950 1_545 S
C2135 C2134 1.414 . S
C2135 C2136 1.374 . S
C2136 H2110 0.950 . S
C2136 C2132 1.385 . S
C2136 C2135 1.374 . S
C2137 C2134 1.475 1_565 S
C2137 C2138 1.401 . S
C2137 C2139 1.386 1_565 S
C2138 H2111 0.950 . S
C2138 C2124 1.377 . S
C2138 C2137 1.401 . S
C2139 C2123 1.377 1_545 S
C2139 C2137 1.386 1_545 S
C2139 C2140 1.524 . S
C2140 C2139 1.524 . S
C2140 C2141 1.397 . S
C2140 C2145 1.363 . S
C2141 H2112 0.950 . S
C2141 C2140 1.397 . S
C2141 C2142 1.334 . S
C2142 H2113 0.950 . S
C2142 C2141 1.334 . S
C2142 C2143 1.287 . S
C2143 C2142 1.287 . S
C2143 C2144 1.524 . S
C2143 H2146 0.999 . S
C2144 H2114 0.950 . S
C2144 C2143 1.524 . S
C2144 C2145 1.415 . S
C2145 H2115 0.950 . S
C2145 C2140 1.363 . S
C2145 C2144 1.415 . S
H2146 C2143 0.999 . S
H2147 C2128 0.913 . S
H2148 C2166 0.951 . S
H2149 C2168 0.951 1_554 S
H2150 C2170 0.950 . S
H2151 C2171 0.950 . S
H2152 C2173 0.950 . S
H2153 C2176 0.924 1_556 S
H2154 C2177 0.950 1_556 S
H2155 C2179 0.950 . S
H2156 C2180 0.950 . S
H2157 C2181 0.951 . S
H2158 C2183 0.951 . S
H2159 C2185 0.950 . S
H2160 C2186 0.950 . S
H2161 C2188 0.950 . S
H2162 C2191 0.950 . S
H2163 C2192 0.950 . S
H2164 C2194 0.950 . S
H2165 C2195 0.950 . S
C2166 H2148 0.951 . S
C2166 C2167 1.366 . S
C2166 C2168 1.388 . S
C2167 C2166 1.366 . S
C2167 C2171 1.385 . S
C2168 H2149 0.951 1_556 S
C2168 C2166 1.388 . S
C2168 C2169 1.366 . S
C2169 C2168 1.366 . S
C2169 C2170 1.414 . S
C2169 C2172 1.499 . S
C2170 H2150 0.950 . S
C2170 C2169 1.414 . S
C2170 C2171 1.374 . S
C2171 H2151 0.950 . S
C2171 C2167 1.385 . S
C2171 C2170 1.374 . S
C2172 C2169 1.499 . S
C2172 C2173 1.373 . S
C2172 C2174 1.389 1_556 S
C2173 H2152 0.950 . S
C2173 C2172 1.373 . S
C2173 C2189 1.377 1_556 S
C2174 C2172 1.389 1_554 S
C2174 C2175 1.524 . S
C2174 C2188 1.377 . S
C2175 C2174 1.524 . S
C2175 C2176 1.417 . S
C2175 C2180 1.363 . S
C2176 H2153 0.924 1_554 S
C2176 C2175 1.417 . S
C2176 C2177 1.339 . S
C2177 H2154 0.950 1_554 S
C2177 C2176 1.339 . S
C2177 C2178 1.287 . S
C2178 C2177 1.287 . S
C2178 C2179 1.524 . S
C2178 H2197 0.913 . S
C2179 H2155 0.950 . S
C2179 C2178 1.524 . S
C2179 C2180 1.415 . S
C2180 H2156 0.950 . S
C2180 C2175 1.363 . S
C2180 C2179 1.415 . S
C2181 H2157 0.951 . S
C2181 C2182 1.366 . S
C2181 C2183 1.388 . S
C2182 C2181 1.366 . S
C2182 C2186 1.385 . S
C2183 H2158 0.951 . S
C2183 C2181 1.388 . S
C2183 C2184 1.366 . S
C2184 C2183 1.366 . S
C2184 C2185 1.414 . S
C2184 C2187 1.499 . S
C2185 H2159 0.950 . S
C2185 C2184 1.414 . S
C2185 C2186 1.374 . S
C2186 H2160 0.950 . S
C2186 C2182 1.385 . S
C2186 C2185 1.374 . S
C2187 C2184 1.499 . S
C2187 C2188 1.373 . S
C2187 C2189 1.389 . S
C2188 H2161 0.950 . S
C2188 C2174 1.377 . S
C2188 C2187 1.373 . S
C2189 C2173 1.377 1_554 S
C2189 C2187 1.389 . S
C2189 C2190 1.524 1_554 S
C2190 C2189 1.524 1_556 S
C2190 C2191 1.397 1_556 S
C2190 C2195 1.363 . S
C2191 H2162 0.950 . S
C2191 C2190 1.397 1_554 S
C2191 C2192 1.334 . S
C2192 H2163 0.950 . S
C2192 C2191 1.334 . S
C2192 C2193 1.287 1_554 S
C2193 C2192 1.287 1_556 S
C2193 C2194 1.524 . S
C2193 H2196 0.999 . S
C2194 H2164 0.950 . S
C2194 C2193 1.524 . S
C2194 C2195 1.415 . S
C2195 H2165 0.950 . S
C2195 C2190 1.363 . S
C2195 C2194 1.415 . S
H2196 C2193 0.999 . S
H2197 C2178 0.913 . S
H2198 C2216 0.951 . S
H2199 C2218 0.951 . S
H2200 C2220 0.950 . S
H2201 C2221 0.950 . S
H2202 C2223 0.950 . S
H2203 C2226 0.950 . S
H2204 C2227 0.950 . S
H2205 C2229 0.950 . S
H2206 C2230 0.950 . S
H2207 C2231 0.951 . S
H2208 C2233 0.951 . S
H2209 C2235 0.950 . S
H2210 C2236 0.950 . S
H2211 C2238 0.950 . S
H2212 C2241 0.950 . S
H2213 C2242 0.966 . S
H2214 C2244 0.950 . S
H2215 C2245 0.950 . S
C2216 H2198 0.951 . S
C2216 C2217 1.366 . S
C2216 C2218 1.388 . S
C2217 C2216 1.366 . S
C2217 C2221 1.385 . S
C2218 H2199 0.951 . S
C2218 C2216 1.388 . S
C2218 C2219 1.366 . S
C2219 C2218 1.366 . S
C2219 C2220 1.414 . S
C2219 C2222 1.475 1_545 S
C2220 H2200 0.950 . S
C2220 C2219 1.414 . S
C2220 C2221 1.374 . S
C2221 H2201 0.950 . S
C2221 C2217 1.385 . S
C2221 C2220 1.374 . S
C2222 C2219 1.475 1_565 S
C2222 C2223 1.364 1_565 S
C2222 C2224 1.423 . S
C2223 H2202 0.950 . S
C2223 C2222 1.364 1_545 S
C2223 C2239 1.377 1_545 S
C2224 C2222 1.423 . S
C2224 C2225 1.524 . S
C2224 C2238 1.377 . S
C2225 C2224 1.524 . S
C2225 C2226 1.397 . S
C2225 C2230 1.363 . S
C2226 H2203 0.950 . S
C2226 C2225 1.397 . S
C2226 C2227 1.334 . S
C2227 H2204 0.950 . S
C2227 C2226 1.334 . S
C2227 C2228 1.287 . S
C2228 C2227 1.287 . S
C2228 C2229 1.524 . S
C2228 H2247 0.913 . S
C2229 H2205 0.950 . S
C2229 C2228 1.524 . S
C2229 C2230 1.415 . S
C2230 H2206 0.950 . S
C2230 C2225 1.363 . S
C2230 C2229 1.415 . S
C2231 H2207 0.951 . S
C2231 C2232 1.366 . S
C2231 C2233 1.388 . S
C2232 C2231 1.366 . S
C2232 C2236 1.385 . S
C2233 H2208 0.951 . S
C2233 C2231 1.388 . S
C2233 C2234 1.366 . S
C2234 C2233 1.366 . S
C2234 C2235 1.414 . S
C2234 C2237 1.499 . S
C2235 H2209 0.950 . S
C2235 C2234 1.414 . S
C2235 C2236 1.374 . S
C2236 H2210 0.950 . S
C2236 C2232 1.385 . S
C2236 C2235 1.374 . S
C2237 C2234 1.499 . S
C2237 C2238 1.373 . S
C2237 C2239 1.389 . S
C2238 H2211 0.950 . S
C2238 C2224 1.377 . S
C2238 C2237 1.373 . S
C2239 C2223 1.377 1_565 S
C2239 C2237 1.389 . S
C2239 C2240 1.524 . S
C2240 C2239 1.524 . S
C2240 C2241 1.397 . S
C2240 C2245 1.363 1_565 S
C2241 H2212 0.950 . S
C2241 C2240 1.397 . S
C2241 C2242 1.349 . S
C2242 H2213 0.966 . S
C2242 C2241 1.349 . S
C2242 C2243 1.257 1_565 S
C2243 C2242 1.257 1_545 S
C2243 C2244 1.524 . S
C2243 H2246 0.999 . S
C2244 H2214 0.950 . S
C2244 C2243 1.524 . S
C2244 C2245 1.415 . S
C2245 H2215 0.950 . S
C2245 C2240 1.363 1_545 S
C2245 C2244 1.415 . S
H2246 C2243 0.999 . S
H2247 C2228 0.913 . S
H2248 C2266 0.951 . S
H2249 C2268 0.951 . S
H2250 C2270 0.950 . S
H2251 C2271 0.950 . S
H2252 C2273 0.950 . S
H2253 C2276 0.950 . S
H2254 C2277 0.950 . S
H2255 C2279 0.950 . S
H2256 C2280 0.950 . S
H2257 C2281 0.951 . S
H2258 C2283 0.951 . S
H2259 C2285 0.950 . S
H2260 C2286 0.950 . S
H2261 C2288 0.950 . S
H2262 C2291 0.950 . S
H2263 C2292 0.950 . S
H2264 C2294 0.950 . S
H2265 C2295 0.950 . S
C2266 H2248 0.951 . S
C2266 C2267 1.366 . S
C2266 C2268 1.388 . S
C2267 C2266 1.366 . S
C2267 C2271 1.385 . S
C2268 H2249 0.951 . S
C2268 C2266 1.388 . S
C2268 C2269 1.366 . S
C2269 C2268 1.366 . S
C2269 C2270 1.414 . S
C2269 C2272 1.499 . S
C2270 H2250 0.950 . S
C2270 C2269 1.414 . S
C2270 C2271 1.374 . S
C2271 H2251 0.950 . S
C2271 C2267 1.385 . S
C2271 C2270 1.374 . S
C2272 C2269 1.499 . S
C2272 C2273 1.373 . S
C2272 C2274 1.389 . S
C2273 H2252 0.950 . S
C2273 C2272 1.373 . S
C2273 C2289 1.377 . S
C2274 C2272 1.389 . S
C2274 C2275 1.524 . S
C2274 C2288 1.377 . S
C2275 C2274 1.524 . S
C2275 C2276 1.397 . S
C2275 C2280 1.363 . S
C2276 H2253 0.950 . S
C2276 C2275 1.397 . S
C2276 C2277 1.334 . S
C2277 H2254 0.950 . S
C2277 C2276 1.334 . S
C2277 C2278 1.287 . S
C2278 C2277 1.287 . S
C2278 C2279 1.524 . S
C2278 H2297 0.913 . S
C2279 H2255 0.950 . S
C2279 C2278 1.524 . S
C2279 C2280 1.415 . S
C2280 H2256 0.950 . S
C2280 C2275 1.363 . S
C2280 C2279 1.415 . S
C2281 H2257 0.951 . S
C2281 C2282 1.366 . S
C2281 C2283 1.388 . S
C2282 C2281 1.366 . S
C2282 C2286 1.385 . S
C2283 H2258 0.951 . S
C2283 C2281 1.388 . S
C2283 C2284 1.366 . S
C2284 C2283 1.366 . S
C2284 C2285 1.414 . S
C2284 C2287 1.499 . S
C2285 H2259 0.950 . S
C2285 C2284 1.414 . S
C2285 C2286 1.374 . S
C2286 H2260 0.950 . S
C2286 C2282 1.385 . S
C2286 C2285 1.374 . S
C2287 C2284 1.499 . S
C2287 C2288 1.373 . S
C2287 C2289 1.389 . S
C2288 H2261 0.950 . S
C2288 C2274 1.377 . S
C2288 C2287 1.373 . S
C2289 C2273 1.377 . S
C2289 C2287 1.389 . S
C2289 C2290 1.524 . S
C2290 C2289 1.524 . S
C2290 C2291 1.397 . S
C2290 C2295 1.363 . S
C2291 H2262 0.950 . S
C2291 C2290 1.397 . S
C2291 C2292 1.334 . S
C2292 H2263 0.950 . S
C2292 C2291 1.334 . S
C2292 C2293 1.287 . S
C2293 C2292 1.287 . S
C2293 C2294 1.524 . S
C2293 H2296 0.999 . S
C2294 H2264 0.950 . S
C2294 C2293 1.524 . S
C2294 C2295 1.415 . S
C2295 H2265 0.950 . S
C2295 C2290 1.363 . S
C2295 C2294 1.415 . S
H2296 C2293 0.999 . S
H2297 C2278 0.913 . S
H2298 C2316 0.951 . S
H2299 C2318 0.951 . S
H2300 C2320 0.950 . S
H2301 C2321 0.950 . S
H2302 C2323 0.950 . S
H2303 C2326 0.950 . S
H2304 C2327 0.950 . S
H2305 C2329 0.950 . S
H2306 C2330 0.950 1_545 S
H2307 C2331 0.951 . S
H2308 C2333 0.951 . S
H2309 C2335 0.950 . S
H2310 C2336 0.950 . S
H2311 C2338 0.950 . S
H2312 C2341 0.950 . S
H2313 C2342 0.950 . S
H2314 C2344 0.950 . S
H2315 C2345 0.950 . S
C2316 H2298 0.951 . S
C2316 C2317 1.366 . S
C2316 C2318 1.388 . S
C2317 C2316 1.366 . S
C2317 C2321 1.385 . S
C2318 H2299 0.951 . S
C2318 C2316 1.388 . S
C2318 C2319 1.366 . S
C2319 C2318 1.366 . S
C2319 C2320 1.414 . S
C2319 C2322 1.524 . S
C2320 H2300 0.950 . S
C2320 C2319 1.414 . S
C2320 C2321 1.374 . S
C2321 H2301 0.950 . S
C2321 C2317 1.385 . S
C2321 C2320 1.374 . S
C2322 C2319 1.524 . S
C2322 C2323 1.347 1_565 S
C2322 C2324 1.389 1_565 S
C2323 H2302 0.950 . S
C2323 C2322 1.347 1_545 S
C2323 C2339 1.377 . S
C2324 C2322 1.389 1_545 S
C2324 C2325 1.522 1_545 S
C2324 C2338 1.379 . S
C2325 C2324 1.522 1_565 S
C2325 C2326 1.397 . S
C2325 C2330 1.363 . S
C2326 H2303 0.950 . S
C2326 C2325 1.397 . S
C2326 C2327 1.334 . S
C2327 H2304 0.950 . S
C2327 C2326 1.334 . S
C2327 C2328 1.287 . S
C2328 C2327 1.287 . S
C2328 C2329 1.524 . S
C2328 H2347 0.913 . S
C2329 H2305 0.950 . S
C2329 C2328 1.524 . S
C2329 C2330 1.415 . S
C2330 H2306 0.950 1_565 S
C2330 C2325 1.363 . S
C2330 C2329 1.415 . S
C2331 H2307 0.951 . S
C2331 C2332 1.366 . S
C2331 C2333 1.388 . S
C2332 C2331 1.366 . S
C2332 C2336 1.385 . S
C2333 H2308 0.951 . S
C2333 C2331 1.388 . S
C2333 C2334 1.366 . S
C2334 C2333 1.366 . S
C2334 C2335 1.414 . S
C2334 C2337 1.499 . S
C2335 H2309 0.950 . S
C2335 C2334 1.414 . S
C2335 C2336 1.374 . S
C2336 H2310 0.950 . S
C2336 C2332 1.385 . S
C2336 C2335 1.374 . S
C2337 C2334 1.499 . S
C2337 C2338 1.373 . S
C2337 C2339 1.389 . S
C2338 H2311 0.950 . S
C2338 C2324 1.379 . S
C2338 C2337 1.373 . S
C2339 C2323 1.377 . S
C2339 C2337 1.389 . S
C2339 C2340 1.524 . S
C2340 C2339 1.524 . S
C2340 C2341 1.397 . S
C2340 C2345 1.363 . S
C2341 H2312 0.950 . S
C2341 C2340 1.397 . S
C2341 C2342 1.334 . S
C2342 H2313 0.950 . S
C2342 C2341 1.334 . S
C2342 C2343 1.287 . S
C2343 C2342 1.287 . S
C2343 C2344 1.524 . S
C2343 H2346 0.999 . S
C2344 H2314 0.950 . S
C2344 C2343 1.524 . S
C2344 C2345 1.415 . S
C2345 H2315 0.950 . S
C2345 C2340 1.363 . S
C2345 C2344 1.415 . S
H2346 C2343 0.999 . S
H2347 C2328 0.913 . S
H2348 C2366 0.951 . S
H2349 C2368 0.951 . S
H2350 C2370 0.950 1_556 S
H2351 C2371 0.950 . S
H2352 C2373 0.950 . S
H2353 C2376 0.950 . S
H2354 C2377 0.950 . S
H2355 C2379 0.950 . S
H2356 C2380 0.950 . S
H2357 C2381 0.951 . S
H2358 C2383 0.951 . S
H2359 C2385 0.950 . S
H2360 C2386 0.950 . S
H2361 C2388 0.950 . S
H2362 C2391 0.950 . S
H2363 C2392 0.950 . S
H2364 C2394 0.950 . S
H2365 C2395 0.950 . S
C2366 H2348 0.951 . S
C2366 C2367 1.366 . S
C2366 C2368 1.388 . S
C2367 C2366 1.366 . S
C2367 C2371 1.385 . S
C2368 H2349 0.951 . S
C2368 C2366 1.388 . S
C2368 C2369 1.366 . S
C2369 C2368 1.366 . S
C2369 C2370 1.414 . S
C2369 C2372 1.499 . S
C2370 H2350 0.950 1_554 S
C2370 C2369 1.414 . S
C2370 C2371 1.374 . S
C2371 H2351 0.950 . S
C2371 C2367 1.385 . S
C2371 C2370 1.374 . S
C2372 C2369 1.499 . S
C2372 C2373 1.373 1_554 S
C2372 C2374 1.389 . S
C2373 H2352 0.950 . S
C2373 C2372 1.373 1_556 S
C2373 C2389 1.377 . S
C2374 C2372 1.389 . S
C2374 C2375 1.524 . S
C2374 C2388 1.377 1_554 S
C2375 C2374 1.524 . S
C2375 C2376 1.397 . S
C2375 C2380 1.363 . S
C2376 H2353 0.950 . S
C2376 C2375 1.397 . S
C2376 C2377 1.334 . S
C2377 H2354 0.950 . S
C2377 C2376 1.334 . S
C2377 C2378 1.287 . S
C2378 C2377 1.287 . S
C2378 C2379 1.524 . S
C2378 H2397 0.913 . S
C2379 H2355 0.950 . S
C2379 C2378 1.524 . S
C2379 C2380 1.415 . S
C2380 H2356 0.950 . S
C2380 C2375 1.363 . S
C2380 C2379 1.415 . S
C2381 H2357 0.951 . S
C2381 C2382 1.366 . S
C2381 C2383 1.388 . S
C2382 C2381 1.366 . S
C2382 C2386 1.385 . S
C2383 H2358 0.951 . S
C2383 C2381 1.388 . S
C2383 C2384 1.366 . S
C2384 C2383 1.366 . S
C2384 C2385 1.414 . S
C2384 C2387 1.499 . S
C2385 H2359 0.950 . S
C2385 C2384 1.414 . S
C2385 C2386 1.374 . S
C2386 H2360 0.950 . S
C2386 C2382 1.385 . S
C2386 C2385 1.374 . S
C2387 C2384 1.499 . S
C2387 C2388 1.373 . S
C2387 C2389 1.389 . S
C2388 H2361 0.950 . S
C2388 C2374 1.377 1_556 S
C2388 C2387 1.373 . S
C2389 C2373 1.377 . S
C2389 C2387 1.389 . S
C2389 C2390 1.524 . S
C2390 C2389 1.524 . S
C2390 C2391 1.397 . S
C2390 C2395 1.363 . S
C2391 H2362 0.950 . S
C2391 C2390 1.397 . S
C2391 C2392 1.334 . S
C2392 H2363 0.950 . S
C2392 C2391 1.334 . S
C2392 C2393 1.287 . S
C2393 C2392 1.287 . S
C2393 C2394 1.524 . S
C2393 H2396 0.999 . S
C2394 H2364 0.950 . S
C2394 C2393 1.524 . S
C2394 C2395 1.415 . S
C2395 H2365 0.950 . S
C2395 C2390 1.363 . S
C2395 C2394 1.415 . S
H2396 C2393 0.999 . S
H2397 C2378 0.913 . S
H2398 C2416 0.951 . S
H2399 C2418 0.951 . S
H2400 C2420 0.950 . S
H2401 C2421 0.950 . S
H2402 C2423 0.950 1_655 S
H2403 C2426 0.950 . S
H2404 C2427 0.950 . S
H2405 C2429 0.950 . S
H2406 C2430 0.950 . S
H2407 C2431 0.951 . S
H2408 C2433 0.951 . S
H2409 C2435 0.950 . S
H2410 C2436 0.950 . S
H2411 C2438 0.950 . S
H2412 C2441 0.950 . S
H2413 C2442 0.950 . S
H2414 C2444 0.950 1_655 S
H2415 C2445 0.950 . S
C2416 H2398 0.951 . S
C2416 C2417 1.366 . S
C2416 C2418 1.388 . S
C2417 C2416 1.366 . S
C2417 C2421 1.385 . S
C2418 H2399 0.951 . S
C2418 C2416 1.388 . S
C2418 C2419 1.366 . S
C2419 C2418 1.366 . S
C2419 C2420 1.414 . S
C2419 C2422 1.499 1_655 S
C2420 H2400 0.950 . S
C2420 C2419 1.414 . S
C2420 C2421 1.374 . S
C2421 H2401 0.950 . S
C2421 C2417 1.385 . S
C2421 C2420 1.374 . S
C2422 C2419 1.499 1_455 S
C2422 C2423 1.373 . S
C2422 C2424 1.389 . S
C2423 H2402 0.950 1_455 S
C2423 C2422 1.373 . S
C2423 C2439 1.377 . S
C2424 C2422 1.389 . S
C2424 C2425 1.524 . S
C2424 C2438 1.377 . S
C2425 C2424 1.524 . S
C2425 C2426 1.397 . S
C2425 C2430 1.363 . S
C2426 H2403 0.950 . S
C2426 C2425 1.397 . S
C2426 C2427 1.334 . S
C2427 H2404 0.950 . S
C2427 C2426 1.334 . S
C2427 C2428 1.287 . S
C2428 C2427 1.287 . S
C2428 C2429 1.524 . S
C2428 H2447 0.913 . S
C2429 H2405 0.950 . S
C2429 C2428 1.524 . S
C2429 C2430 1.415 . S
C2430 H2406 0.950 . S
C2430 C2425 1.363 . S
C2430 C2429 1.415 . S
C2431 H2407 0.951 . S
C2431 C2432 1.366 . S
C2431 C2433 1.388 . S
C2432 C2431 1.366 . S
C2432 C2436 1.385 . S
C2433 H2408 0.951 . S
C2433 C2431 1.388 . S
C2433 C2434 1.366 . S
C2434 C2433 1.366 . S
C2434 C2435 1.414 . S
C2434 C2437 1.499 . S
C2435 H2409 0.950 . S
C2435 C2434 1.414 . S
C2435 C2436 1.374 . S
C2436 H2410 0.950 . S
C2436 C2432 1.385 . S
C2436 C2435 1.374 . S
C2437 C2434 1.499 . S
C2437 C2438 1.373 . S
C2437 C2439 1.389 . S
C2438 H2411 0.950 . S
C2438 C2424 1.377 . S
C2438 C2437 1.373 . S
C2439 C2423 1.377 . S
C2439 C2437 1.389 . S
C2439 C2440 1.524 . S
C2440 C2439 1.524 . S
C2440 C2441 1.397 . S
C2440 C2445 1.363 . S
C2441 H2412 0.950 . S
C2441 C2440 1.397 . S
C2441 C2442 1.334 . S
C2442 H2413 0.950 . S
C2442 C2441 1.334 . S
C2442 C2443 1.287 . S
C2443 C2442 1.287 . S
C2443 C2444 1.524 . S
C2443 H2446 0.999 . S
C2444 H2414 0.950 1_455 S
C2444 C2443 1.524 . S
C2444 C2445 1.415 . S
C2445 H2415 0.950 . S
C2445 C2440 1.363 . S
C2445 C2444 1.415 . S
H2446 C2443 0.999 . S
H2447 C2428 0.913 . S
H2448 C2466 0.951 . S
H2449 C2468 0.951 . S
H2450 C2470 0.950 . S
H2451 C2471 0.950 . S
H2452 C2473 0.950 . S
H2453 C2476 0.950 . S
H2454 C2477 0.950 . S
H2455 C2479 0.950 . S
H2456 C2480 0.950 . S
H2457 C2481 0.951 . S
H2458 C2483 0.951 . S
H2459 C2485 0.950 . S
H2460 C2486 0.950 . S
H2461 C2488 0.950 . S
H2462 C2491 0.950 . S
H2463 C2492 0.950 . S
H2464 C2494 0.950 . S
H2465 C2495 0.950 . S
C2466 H2448 0.951 . S
C2466 C2467 1.366 . S
C2466 C2468 1.388 . S
C2467 C2466 1.366 . S
C2467 C2471 1.385 . S
C2468 H2449 0.951 . S
C2468 C2466 1.388 . S
C2468 C2469 1.366 . S
C2469 C2468 1.366 . S
C2469 C2470 1.414 . S
C2469 C2472 1.499 . S
C2470 H2450 0.950 . S
C2470 C2469 1.414 . S
C2470 C2471 1.374 . S
C2471 H2451 0.950 . S
C2471 C2467 1.385 . S
C2471 C2470 1.374 . S
C2472 C2469 1.499 . S
C2472 C2473 1.373 . S
C2472 C2474 1.389 . S
C2473 H2452 0.950 . S
C2473 C2472 1.373 . S
C2473 C2489 1.377 . S
C2474 C2472 1.389 . S
C2474 C2475 1.524 . S
C2474 C2488 1.377 . S
C2475 C2474 1.524 . S
C2475 C2476 1.397 . S
C2475 C2480 1.363 . S
C2476 H2453 0.950 . S
C2476 C2475 1.397 . S
C2476 C2477 1.334 . S
C2477 H2454 0.950 . S
C2477 C2476 1.334 . S
C2477 C2478 1.287 . S
C2478 C2477 1.287 . S
C2478 C2479 1.524 . S
C2478 H2497 0.913 . S
C2479 H2455 0.950 . S
C2479 C2478 1.524 . S
C2479 C2480 1.415 . S
C2480 H2456 0.950 . S
C2480 C2475 1.363 . S
C2480 C2479 1.415 . S
C2481 H2457 0.951 . S
C2481 C2482 1.366 . S
C2481 C2483 1.388 . S
C2482 C2481 1.366 . S
C2482 C2486 1.385 . S
C2483 H2458 0.951 . S
C2483 C2481 1.388 . S
C2483 C2484 1.366 . S
C2484 C2483 1.366 . S
C2484 C2485 1.414 . S
C2484 C2487 1.499 . S
C2485 H2459 0.950 . S
C2485 C2484 1.414 . S
C2485 C2486 1.374 . S
C2486 H2460 0.950 . S
C2486 C2482 1.385 . S
C2486 C2485 1.374 . S
C2487 C2484 1.499 . S
C2487 C2488 1.373 . S
C2487 C2489 1.389 . S
C2488 H2461 0.950 . S
C2488 C2474 1.377 . S
C2488 C2487 1.373 . S
C2489 C2473 1.377 . S
C2489 C2487 1.389 . S
C2489 C2490 1.524 . S
C2490 C2489 1.524 . S
C2490 C2491 1.397 . S
C2490 C2495 1.363 . S
C2491 H2462 0.950 . S
C2491 C2490 1.397 . S
C2491 C2492 1.334 . S
C2492 H2463 0.950 . S
C2492 C2491 1.334 . S
C2492 C2493 1.287 . S
C2493 C2492 1.287 . S
C2493 C2494 1.524 . S
C2493 H2496 0.999 . S
C2494 H2464 0.950 . S
C2494 C2493 1.524 . S
C2494 C2495 1.415 . S
C2495 H2465 0.950 . S
C2495 C2490 1.363 . S
C2495 C2494 1.415 . S
H2496 C2493 0.999 . S
H2497 C2478 0.913 . S
H2498 C2516 0.951 . S
H2499 C2518 0.951 . S
H2500 C2520 0.950 1_655 S
H2501 C2521 0.950 . S
H2502 C2523 0.950 . S
H2503 C2526 0.950 . S
H2504 C2527 0.950 . S
H2505 C2529 0.950 . S
H2506 C2530 0.950 . S
H2507 C2531 0.951 . S
H2508 C2533 0.951 . S
H2509 C2535 0.950 . S
H2510 C2536 0.950 . S
H2511 C2538 0.950 . S
H2512 C2541 0.950 . S
H2513 C2542 0.950 . S
H2514 C2544 0.950 . S
H2515 C2545 0.950 . S
C2516 H2498 0.951 . S
C2516 C2517 1.366 . S
C2516 C2518 1.388 . S
C2517 C2516 1.366 . S
C2517 C2521 1.385 . S
C2518 H2499 0.951 . S
C2518 C2516 1.388 . S
C2518 C2519 1.366 . S
C2519 C2518 1.366 . S
C2519 C2520 1.414 . S
C2519 C2522 1.499 1_455 S
C2520 H2500 0.950 1_455 S
C2520 C2519 1.414 . S
C2520 C2521 1.374 . S
C2521 H2501 0.950 . S
C2521 C2517 1.385 . S
C2521 C2520 1.374 . S
C2522 C2519 1.499 1_655 S
C2522 C2523 1.373 . S
C2522 C2524 1.389 . S
C2523 H2502 0.950 . S
C2523 C2522 1.373 . S
C2523 C2539 1.377 . S
C2524 C2522 1.389 . S
C2524 C2525 1.524 1_655 S
C2524 C2538 1.377 . S
C2525 C2524 1.524 1_455 S
C2525 C2526 1.397 . S
C2525 C2530 1.363 . S
C2526 H2503 0.950 . S
C2526 C2525 1.397 . S
C2526 C2527 1.334 . S
C2527 H2504 0.950 . S
C2527 C2526 1.334 . S
C2527 C2528 1.287 . S
C2528 C2527 1.287 . S
C2528 C2529 1.524 . S
C2528 H2547 0.913 . S
C2529 H2505 0.950 . S
C2529 C2528 1.524 . S
C2529 C2530 1.415 . S
C2530 H2506 0.950 . S
C2530 C2525 1.363 . S
C2530 C2529 1.415 . S
C2531 H2507 0.951 . S
C2531 C2532 1.366 . S
C2531 C2533 1.388 . S
C2532 C2531 1.366 . S
C2532 C2536 1.385 . S
C2533 H2508 0.951 . S
C2533 C2531 1.388 . S
C2533 C2534 1.366 . S
C2534 C2533 1.366 . S
C2534 C2535 1.414 . S
C2534 C2537 1.499 . S
C2535 H2509 0.950 . S
C2535 C2534 1.414 . S
C2535 C2536 1.374 . S
C2536 H2510 0.950 . S
C2536 C2532 1.385 . S
C2536 C2535 1.374 . S
C2537 C2534 1.499 . S
C2537 C2538 1.373 . S
C2537 C2539 1.389 . S
C2538 H2511 0.950 . S
C2538 C2524 1.377 . S
C2538 C2537 1.373 . S
C2539 C2523 1.377 . S
C2539 C2537 1.389 . S
C2539 C2540 1.524 . S
C2540 C2539 1.524 . S
C2540 C2541 1.397 . S
C2540 C2545 1.363 . S
C2541 H2512 0.950 . S
C2541 C2540 1.397 . S
C2541 C2542 1.334 . S
C2542 H2513 0.950 . S
C2542 C2541 1.334 . S
C2542 C2543 1.287 . S
C2543 C2542 1.287 . S
C2543 C2544 1.524 . S
C2543 H2546 0.999 . S
C2544 H2514 0.950 . S
C2544 C2543 1.524 . S
C2544 C2545 1.415 . S
C2545 H2515 0.950 . S
C2545 C2540 1.363 . S
C2545 C2544 1.415 . S
H2546 C2543 0.999 . S
H2547 C2528 0.913 . S
H2548 C2566 0.951 . S
H2549 C2568 0.951 1_655 S
H2550 C2570 0.950 . S
H2551 C2571 0.950 . S
H2552 C2573 0.950 1_455 S
H2553 C2576 0.950 . S
H2554 C2577 0.950 . S
H2555 C2579 0.950 . S
H2556 C2580 0.950 . S
H2557 C2581 0.951 . S
H2558 C2583 0.951 . S
H2559 C2585 0.950 . S
H2560 C2586 0.950 . S
H2561 C2588 0.950 . S
H2562 C2591 0.950 . S
H2563 C2592 0.950 . S
H2564 C2594 0.950 1_455 S
H2565 C2595 0.950 1_455 S
C2566 H2548 0.951 . S
C2566 C2567 1.366 . S
C2566 C2568 1.388 . S
C2567 C2566 1.366 . S
C2567 C2571 1.385 . S
C2568 H2549 0.951 1_455 S
C2568 C2566 1.388 . S
C2568 C2569 1.366 . S
C2569 C2568 1.366 . S
C2569 C2570 1.414 . S
C2569 C2572 1.499 1_455 S
C2570 H2550 0.950 . S
C2570 C2569 1.414 . S
C2570 C2571 1.374 . S
C2571 H2551 0.950 . S
C2571 C2567 1.385 . S
C2571 C2570 1.374 . S
C2572 C2569 1.499 1_655 S
C2572 C2573 1.373 . S
C2572 C2574 1.389 . S
C2573 H2552 0.950 1_655 S
C2573 C2572 1.373 . S
C2573 C2589 1.377 . S
C2574 C2572 1.389 . S
C2574 C2575 1.524 . S
C2574 C2588 1.377 . S
C2575 C2574 1.524 . S
C2575 C2576 1.397 . S
C2575 C2580 1.363 . S
C2576 H2553 0.950 . S
C2576 C2575 1.397 . S
C2576 C2577 1.334 . S
C2577 H2554 0.950 . S
C2577 C2576 1.334 . S
C2577 C2578 1.287 . S
C2578 C2577 1.287 . S
C2578 C2579 1.524 . S
C2578 H2597 0.913 . S
C2579 H2555 0.950 . S
C2579 C2578 1.524 . S
C2579 C2580 1.415 . S
C2580 H2556 0.950 . S
C2580 C2575 1.363 . S
C2580 C2579 1.415 . S
C2581 H2557 0.951 . S
C2581 C2582 1.366 . S
C2581 C2583 1.388 . S
C2582 C2581 1.366 . S
C2582 C2586 1.385 . S
C2583 H2558 0.951 . S
C2583 C2581 1.388 . S
C2583 C2584 1.366 . S
C2584 C2583 1.366 . S
C2584 C2585 1.414 . S
C2584 C2587 1.499 . S
C2585 H2559 0.950 . S
C2585 C2584 1.414 . S
C2585 C2586 1.374 . S
C2586 H2560 0.950 . S
C2586 C2582 1.385 . S
C2586 C2585 1.374 . S
C2587 C2584 1.499 . S
C2587 C2588 1.373 . S
C2587 C2589 1.389 . S
C2588 H2561 0.950 . S
C2588 C2574 1.377 . S
C2588 C2587 1.373 . S
C2589 C2573 1.377 . S
C2589 C2587 1.389 . S
C2589 C2590 1.524 . S
C2590 C2589 1.524 . S
C2590 C2591 1.397 . S
C2590 C2595 1.363 . S
C2591 H2562 0.950 . S
C2591 C2590 1.397 . S
C2591 C2592 1.334 . S
C2592 H2563 0.950 . S
C2592 C2591 1.334 . S
C2592 C2593 1.287 . S
C2593 C2592 1.287 . S
C2593 C2594 1.524 . S
C2593 H2596 0.999 . S
C2594 H2564 0.950 1_655 S
C2594 C2593 1.524 . S
C2594 C2595 1.415 . S
C2595 H2565 0.950 1_655 S
C2595 C2590 1.363 . S
C2595 C2594 1.415 . S
H2596 C2593 0.999 . S
H2597 C2578 0.913 . S
H2598 C2616 0.951 . S
H2599 C2618 0.951 . S
H2600 C2620 0.950 . S
H2601 C2621 0.950 . S
H2602 C2623 0.950 . S
H2603 C2626 0.950 . S
H2604 C2627 0.950 . S
H2605 C2629 0.950 . S
H2606 C2630 0.950 . S
H2607 C2631 0.951 . S
H2608 C2633 0.951 . S
H2609 C2635 0.950 . S
H2610 C2636 0.950 . S
H2611 C2638 0.950 . S
H2612 C2641 0.950 . S
H2613 C2642 0.950 . S
H2614 C2644 0.950 . S
H2615 C2645 0.950 . S
C2616 H2598 0.951 . S
C2616 C2617 1.366 . S
C2616 C2618 1.388 . S
C2617 C2616 1.366 . S
C2617 C2621 1.385 . S
C2618 H2599 0.951 . S
C2618 C2616 1.388 . S
C2618 C2619 1.366 . S
C2619 C2618 1.366 . S
C2619 C2620 1.414 . S
C2619 C2622 1.499 . S
C2620 H2600 0.950 . S
C2620 C2619 1.414 . S
C2620 C2621 1.374 . S
C2621 H2601 0.950 . S
C2621 C2617 1.385 . S
C2621 C2620 1.374 . S
C2622 C2619 1.499 . S
C2622 C2623 1.373 . S
C2622 C2624 1.389 . S
C2623 H2602 0.950 . S
C2623 C2622 1.373 . S
C2623 C2639 1.377 . S
C2624 C2622 1.389 . S
C2624 C2625 1.524 . S
C2624 C2638 1.377 . S
C2625 C2624 1.524 . S
C2625 C2626 1.397 . S
C2625 C2630 1.363 . S
C2626 H2603 0.950 . S
C2626 C2625 1.397 . S
C2626 C2627 1.334 . S
C2627 H2604 0.950 . S
C2627 C2626 1.334 . S
C2627 C2628 1.287 . S
C2628 C2627 1.287 . S
C2628 C2629 1.524 . S
C2628 H2647 0.913 . S
C2629 H2605 0.950 . S
C2629 C2628 1.524 . S
C2629 C2630 1.415 . S
C2630 H2606 0.950 . S
C2630 C2625 1.363 . S
C2630 C2629 1.415 . S
C2631 H2607 0.951 . S
C2631 C2632 1.366 . S
C2631 C2633 1.388 . S
C2632 C2631 1.366 . S
C2632 C2636 1.385 . S
C2633 H2608 0.951 . S
C2633 C2631 1.388 . S
C2633 C2634 1.366 . S
C2634 C2633 1.366 . S
C2634 C2635 1.414 . S
C2634 C2637 1.499 . S
C2635 H2609 0.950 . S
C2635 C2634 1.414 . S
C2635 C2636 1.374 . S
C2636 H2610 0.950 . S
C2636 C2632 1.385 . S
C2636 C2635 1.374 . S
C2637 C2634 1.499 . S
C2637 C2638 1.373 . S
C2637 C2639 1.389 . S
C2638 H2611 0.950 . S
C2638 C2624 1.377 . S
C2638 C2637 1.373 . S
C2639 C2623 1.377 . S
C2639 C2637 1.389 . S
C2639 C2640 1.524 . S
C2640 C2639 1.524 . S
C2640 C2641 1.397 . S
C2640 C2645 1.363 . S
C2641 H2612 0.950 . S
C2641 C2640 1.397 . S
C2641 C2642 1.334 . S
C2642 H2613 0.950 . S
C2642 C2641 1.334 . S
C2642 C2643 1.287 . S
C2643 C2642 1.287 . S
C2643 C2644 1.524 . S
C2643 H2646 0.999 . S
C2644 H2614 0.950 . S
C2644 C2643 1.524 . S
C2644 C2645 1.415 . S
C2645 H2615 0.950 . S
C2645 C2640 1.363 . S
C2645 C2644 1.415 . S
H2646 C2643 0.999 . S
H2647 C2628 0.913 . S
H2648 C2666 0.951 . S
H2649 C2668 0.908 1_455 S
H2650 C2670 0.950 . S
H2651 C2671 0.950 . S
H2652 C2673 0.950 . S
H2653 C2676 0.950 . S
H2654 C2677 0.950 . S
H2655 C2679 0.950 . S
H2656 C2680 0.950 . S
H2657 C2681 0.951 . S
H2658 C2683 0.951 . S
H2659 C2685 0.950 . S
H2660 C2686 0.950 . S
H2661 C2688 0.950 . S
H2662 C2691 0.950 . S
H2663 C2692 0.950 . S
H2664 C2694 0.950 . S
H2665 C2695 0.950 . S
C2666 H2648 0.951 . S
C2666 C2667 1.366 . S
C2666 C2668 1.388 . S
C2667 C2666 1.366 . S
C2667 C2671 1.385 . S
C2668 H2649 0.908 1_655 S
C2668 C2666 1.388 . S
C2668 C2669 1.366 . S
C2669 C2668 1.366 . S
C2669 C2670 1.414 . S
C2669 C2672 1.499 1_655 S
C2670 H2650 0.950 . S
C2670 C2669 1.414 . S
C2670 C2671 1.374 . S
C2671 H2651 0.950 . S
C2671 C2667 1.385 . S
C2671 C2670 1.374 . S
C2672 C2669 1.499 1_455 S
C2672 C2673 1.373 . S
C2672 C2674 1.389 . S
C2673 H2652 0.950 . S
C2673 C2672 1.373 . S
C2673 C2689 1.377 . S
C2674 C2672 1.389 . S
C2674 C2675 1.524 . S
C2674 C2688 1.377 . S
C2675 C2674 1.524 . S
C2675 C2676 1.397 1_455 S
C2675 C2680 1.363 . S
C2676 H2653 0.950 . S
C2676 C2675 1.397 1_655 S
C2676 C2677 1.334 . S
C2677 H2654 0.950 . S
C2677 C2676 1.334 . S
C2677 C2678 1.287 . S
C2678 C2677 1.287 . S
C2678 C2679 1.524 1_655 S
C2678 H2697 0.913 . S
C2679 H2655 0.950 . S
C2679 C2678 1.524 1_455 S
C2679 C2680 1.415 . S
C2680 H2656 0.950 . S
C2680 C2675 1.363 . S
C2680 C2679 1.415 . S
C2681 H2657 0.951 . S
C2681 C2682 1.366 . S
C2681 C2683 1.388 . S
C2682 C2681 1.366 . S
C2682 C2686 1.385 . S
C2683 H2658 0.951 . S
C2683 C2681 1.388 . S
C2683 C2684 1.366 . S
C2684 C2683 1.366 . S
C2684 C2685 1.414 . S
C2684 C2687 1.499 . S
C2685 H2659 0.950 . S
C2685 C2684 1.414 . S
C2685 C2686 1.374 . S
C2686 H2660 0.950 . S
C2686 C2682 1.385 . S
C2686 C2685 1.374 . S
C2687 C2684 1.499 . S
C2687 C2688 1.373 . S
C2687 C2689 1.389 . S
C2688 H2661 0.950 . S
C2688 C2674 1.377 . S
C2688 C2687 1.373 . S
C2689 C2673 1.377 . S
C2689 C2687 1.389 . S
C2689 C2690 1.524 . S
C2690 C2689 1.524 . S
C2690 C2691 1.397 . S
C2690 C2695 1.363 . S
C2691 H2662 0.950 . S
C2691 C2690 1.397 . S
C2691 C2692 1.334 . S
C2692 H2663 0.950 . S
C2692 C2691 1.334 . S
C2692 C2693 1.287 . S
C2693 C2692 1.287 . S
C2693 C2694 1.524 . S
C2693 H2696 0.999 . S
C2694 H2664 0.950 . S
C2694 C2693 1.524 . S
C2694 C2695 1.415 . S
C2695 H2665 0.950 . S
C2695 C2690 1.363 . S
C2695 C2694 1.415 . S
H2696 C2693 0.999 . S
H2697 C2678 0.913 . S
H2698 C2716 0.951 . S
H2699 C2718 0.951 . S
H2700 C2720 0.950 . S
H2701 C2721 0.950 . S
H2702 C2723 0.950 . S
H2703 C2726 0.950 . S
H2704 C2727 0.950 . S
H2705 C2729 0.950 . S
H2706 C2730 0.950 . S
H2707 C2731 0.951 . S
H2708 C2733 0.951 . S
H2709 C2735 0.950 . S
H2710 C2736 0.950 . S
H2711 C2738 0.950 . S
H2712 C2741 0.950 . S
H2713 C2742 0.950 . S
H2714 C2744 0.950 . S
H2715 C2745 0.950 . S
C2716 H2698 0.951 . S
C2716 C2717 1.366 . S
C2716 C2718 1.388 . S
C2717 C2716 1.366 . S
C2717 C2721 1.385 . S
C2718 H2699 0.951 . S
C2718 C2716 1.388 . S
C2718 C2719 1.366 . S
C2719 C2718 1.366 . S
C2719 C2720 1.414 . S
C2719 C2722 1.499 . S
C2720 H2700 0.950 . S
C2720 C2719 1.414 . S
C2720 C2721 1.374 . S
C2721 H2701 0.950 . S
C2721 C2717 1.385 . S
C2721 C2720 1.374 . S
C2722 C2719 1.499 . S
C2722 C2723 1.373 . S
C2722 C2724 1.389 . S
C2723 H2702 0.950 . S
C2723 C2722 1.373 . S
C2723 C2739 1.377 . S
C2724 C2722 1.389 . S
C2724 C2725 1.524 . S
C2724 C2738 1.377 . S
C2725 C2724 1.524 . S
C2725 C2726 1.397 . S
C2725 C2730 1.363 . S
C2726 H2703 0.950 . S
C2726 C2725 1.397 . S
C2726 C2727 1.334 . S
C2727 H2704 0.950 . S
C2727 C2726 1.334 . S
C2727 C2728 1.287 . S
C2728 C2727 1.287 . S
C2728 C2729 1.524 . S
C2728 H2747 0.913 1_554 S
C2729 H2705 0.950 . S
C2729 C2728 1.524 . S
C2729 C2730 1.415 . S
C2730 H2706 0.950 . S
C2730 C2725 1.363 . S
C2730 C2729 1.415 . S
C2731 H2707 0.951 . S
C2731 C2732 1.366 . S
C2731 C2733 1.388 . S
C2732 C2731 1.366 . S
C2732 C2736 1.385 . S
C2733 H2708 0.951 . S
C2733 C2731 1.388 . S
C2733 C2734 1.366 . S
C2734 C2733 1.366 . S
C2734 C2735 1.414 . S
C2734 C2737 1.499 . S
C2735 H2709 0.950 . S
C2735 C2734 1.414 . S
C2735 C2736 1.374 . S
C2736 H2710 0.950 . S
C2736 C2732 1.385 . S
C2736 C2735 1.374 . S
C2737 C2734 1.499 . S
C2737 C2738 1.373 . S
C2737 C2739 1.389 . S
C2738 H2711 0.950 . S
C2738 C2724 1.377 . S
C2738 C2737 1.373 . S
C2739 C2723 1.377 . S
C2739 C2737 1.389 . S
C2739 C2740 1.524 . S
C2740 C2739 1.524 . S
C2740 C2741 1.397 . S
C2740 C2745 1.363 . S
C2741 H2712 0.950 . S
C2741 C2740 1.397 . S
C2741 C2742 1.334 . S
C2742 H2713 0.950 . S
C2742 C2741 1.334 . S
C2742 C2743 1.287 . S
C2743 C2742 1.287 . S
C2743 C2744 1.524 . S
C2743 H2746 0.999 . S
C2744 H2714 0.950 . S
C2744 C2743 1.524 . S
C2744 C2745 1.415 . S
C2745 H2715 0.950 . S
C2745 C2740 1.363 . S
C2745 C2744 1.415 . S
H2746 C2743 0.999 . S
H2747 C2728 0.913 1_556 S
H2748 C2766 0.951 . S
H2749 C2768 0.951 . S
H2750 C2770 0.950 . S
H2751 C2771 0.950 . S
H2752 C2773 0.950 . S
H2753 C2776 0.950 . S
H2754 C2777 0.950 . S
H2755 C2779 0.950 . S
H2756 C2780 0.950 . S
H2757 C2781 0.951 . S
H2758 C2783 0.951 . S
H2759 C2785 0.950 . S
H2760 C2786 0.950 . S
H2761 C2788 0.950 . S
H2762 C2791 0.950 . S
H2763 C2792 0.950 . S
H2764 C2794 0.950 . S
H2765 C2795 0.950 . S
C2766 H2748 0.951 . S
C2766 C2767 1.366 . S
C2766 C2768 1.388 . S
C2767 C2766 1.366 . S
C2767 C2771 1.385 . S
C2768 H2749 0.951 . S
C2768 C2766 1.388 . S
C2768 C2769 1.366 . S
C2769 C2768 1.366 . S
C2769 C2770 1.414 . S
C2769 C2772 1.499 . S
C2770 H2750 0.950 . S
C2770 C2769 1.414 . S
C2770 C2771 1.374 . S
C2771 H2751 0.950 . S
C2771 C2767 1.385 . S
C2771 C2770 1.374 . S
C2772 C2769 1.499 . S
C2772 C2773 1.373 . S
C2772 C2774 1.389 . S
C2773 H2752 0.950 . S
C2773 C2772 1.373 . S
C2773 C2789 1.377 . S
C2774 C2772 1.389 . S
C2774 C2775 1.524 . S
C2774 C2788 1.377 . S
C2775 C2774 1.524 . S
C2775 C2776 1.397 . S
C2775 C2780 1.363 . S
C2776 H2753 0.950 . S
C2776 C2775 1.397 . S
C2776 C2777 1.334 . S
C2777 H2754 0.950 . S
C2777 C2776 1.334 . S
C2777 C2778 1.287 . S
C2778 C2777 1.287 . S
C2778 C2779 1.524 . S
C2778 H2797 0.913 . S
C2779 H2755 0.950 . S
C2779 C2778 1.524 . S
C2779 C2780 1.415 . S
C2780 H2756 0.950 . S
C2780 C2775 1.363 . S
C2780 C2779 1.415 . S
C2781 H2757 0.951 . S
C2781 C2782 1.366 . S
C2781 C2783 1.388 . S
C2782 C2781 1.366 . S
C2782 C2786 1.385 . S
C2783 H2758 0.951 . S
C2783 C2781 1.388 . S
C2783 C2784 1.366 . S
C2784 C2783 1.366 . S
C2784 C2785 1.414 . S
C2784 C2787 1.499 . S
C2785 H2759 0.950 . S
C2785 C2784 1.414 . S
C2785 C2786 1.374 . S
C2786 H2760 0.950 . S
C2786 C2782 1.385 . S
C2786 C2785 1.374 . S
C2787 C2784 1.499 . S
C2787 C2788 1.373 . S
C2787 C2789 1.389 . S
C2788 H2761 0.950 . S
C2788 C2774 1.377 . S
C2788 C2787 1.373 . S
C2789 C2773 1.377 . S
C2789 C2787 1.389 . S
C2789 C2790 1.524 . S
C2790 C2789 1.524 . S
C2790 C2791 1.397 . S
C2790 C2795 1.363 . S
C2791 H2762 0.950 . S
C2791 C2790 1.397 . S
C2791 C2792 1.334 . S
C2792 H2763 0.950 . S
C2792 C2791 1.334 . S
C2792 C2793 1.287 . S
C2793 C2792 1.287 . S
C2793 C2794 1.524 . S
C2793 H2796 0.999 . S
C2794 H2764 0.950 . S
C2794 C2793 1.524 . S
C2794 C2795 1.415 . S
C2795 H2765 0.950 . S
C2795 C2790 1.363 . S
C2795 C2794 1.415 . S
H2796 C2793 0.999 . S
H2797 C2778 0.913 . S
H2798 C2816 0.951 . S
H2799 C2818 0.951 . S
H2800 C2820 0.950 . S
H2801 C2821 0.950 . S
H2802 C2823 0.950 . S
H2803 C2826 0.950 . S
H2804 C2827 0.950 . S
H2805 C2829 0.950 . S
H2806 C2830 0.950 . S
H2807 C2831 0.951 . S
H2808 C2833 0.951 . S
H2809 C2835 0.950 . S
H2810 C2836 0.950 . S
H2811 C2838 0.950 . S
H2812 C2841 0.950 . S
H2813 C2842 0.950 . S
H2814 C2844 0.950 . S
H2815 C2845 0.950 . S
C2816 H2798 0.951 . S
C2816 C2817 1.366 . S
C2816 C2818 1.388 . S
C2817 C2816 1.366 . S
C2817 C2821 1.385 . S
C2818 H2799 0.951 . S
C2818 C2816 1.388 . S
C2818 C2819 1.366 . S
C2819 C2818 1.366 . S
C2819 C2820 1.414 . S
C2819 C2822 1.499 . S
C2820 H2800 0.950 . S
C2820 C2819 1.414 . S
C2820 C2821 1.374 . S
C2821 H2801 0.950 . S
C2821 C2817 1.385 . S
C2821 C2820 1.374 . S
C2822 C2819 1.499 . S
C2822 C2823 1.373 1_554 S
C2822 C2824 1.389 . S
C2823 H2802 0.950 . S
C2823 C2822 1.373 1_556 S
C2823 C2839 1.377 . S
C2824 C2822 1.389 . S
C2824 C2825 1.524 . S
C2824 C2838 1.377 . S
C2825 C2824 1.524 . S
C2825 C2826 1.397 . S
C2825 C2830 1.363 . S
C2826 H2803 0.950 . S
C2826 C2825 1.397 . S
C2826 C2827 1.334 . S
C2827 H2804 0.950 . S
C2827 C2826 1.334 . S
C2827 C2828 1.287 . S
C2828 C2827 1.287 . S
C2828 C2829 1.524 . S
C2828 H2847 0.913 . S
C2829 H2805 0.950 . S
C2829 C2828 1.524 . S
C2829 C2830 1.415 . S
C2830 H2806 0.950 . S
C2830 C2825 1.363 . S
C2830 C2829 1.415 . S
C2831 H2807 0.951 . S
C2831 C2832 1.366 . S
C2831 C2833 1.388 . S
C2832 C2831 1.366 . S
C2832 C2836 1.385 . S
C2833 H2808 0.951 . S
C2833 C2831 1.388 . S
C2833 C2834 1.366 . S
C2834 C2833 1.366 . S
C2834 C2835 1.414 . S
C2834 C2837 1.499 . S
C2835 H2809 0.950 . S
C2835 C2834 1.414 . S
C2835 C2836 1.374 . S
C2836 H2810 0.950 . S
C2836 C2832 1.385 . S
C2836 C2835 1.374 . S
C2837 C2834 1.499 . S
C2837 C2838 1.373 1_556 S
C2837 C2839 1.389 . S
C2838 H2811 0.950 . S
C2838 C2824 1.377 . S
C2838 C2837 1.373 1_554 S
C2839 C2823 1.377 . S
C2839 C2837 1.389 . S
C2839 C2840 1.524 . S
C2840 C2839 1.524 . S
C2840 C2841 1.397 . S
C2840 C2845 1.363 . S
C2841 H2812 0.950 . S
C2841 C2840 1.397 . S
C2841 C2842 1.334 . S
C2842 H2813 0.950 . S
C2842 C2841 1.334 . S
C2842 C2843 1.287 . S
C2843 C2842 1.287 . S
C2843 C2844 1.524 . S
C2843 H2846 0.999 . S
C2844 H2814 0.950 . S
C2844 C2843 1.524 . S
C2844 C2845 1.415 . S
C2845 H2815 0.950 . S
C2845 C2840 1.363 . S
C2845 C2844 1.415 . S
H2846 C2843 0.999 . S
H2847 C2828 0.913 . S
H2848 C2866 0.951 . S
H2849 C2868 0.951 . S
H2850 C2870 0.950 . S
H2851 C2871 0.950 . S
H2852 C2873 0.950 . S
H2853 C2876 0.950 . S
H2854 C2877 0.950 . S
H2855 C2879 0.950 . S
H2856 C2880 0.950 . S
H2857 C2881 0.951 . S
H2858 C2883 0.951 . S
H2859 C2885 0.950 . S
H2860 C2886 0.950 . S
H2861 C2888 0.950 . S
H2862 C2891 0.950 . S
H2863 C2892 0.950 . S
H2864 C2894 0.950 . S
H2865 C2895 0.950 . S
C2866 H2848 0.951 . S
C2866 C2867 1.366 . S
C2866 C2868 1.388 . S
C2867 C2866 1.366 . S
C2867 C2871 1.385 . S
C2868 H2849 0.951 . S
C2868 C2866 1.388 . S
C2868 C2869 1.366 . S
C2869 C2868 1.366 . S
C2869 C2870 1.414 . S
C2869 C2872 1.499 . S
C2870 H2850 0.950 . S
C2870 C2869 1.414 . S
C2870 C2871 1.374 . S
C2871 H2851 0.950 . S
C2871 C2867 1.385 . S
C2871 C2870 1.374 . S
C2872 C2869 1.499 . S
C2872 C2873 1.373 . S
C2872 C2874 1.389 . S
C2873 H2852 0.950 . S
C2873 C2872 1.373 . S
C2873 C2889 1.377 . S
C2874 C2872 1.389 . S
C2874 C2875 1.524 . S
C2874 C2888 1.377 . S
C2875 C2874 1.524 . S
C2875 C2876 1.397 . S
C2875 C2880 1.363 . S
C2876 H2853 0.950 . S
C2876 C2875 1.397 . S
C2876 C2877 1.334 . S
C2877 H2854 0.950 . S
C2877 C2876 1.334 . S
C2877 C2878 1.287 . S
C2878 C2877 1.287 . S
C2878 C2879 1.524 . S
C2878 H2897 0.913 . S
C2879 H2855 0.950 . S
C2879 C2878 1.524 . S
C2879 C2880 1.415 . S
C2880 H2856 0.950 . S
C2880 C2875 1.363 . S
C2880 C2879 1.415 . S
C2881 H2857 0.951 . S
C2881 C2882 1.366 . S
C2881 C2883 1.388 . S
C2882 C2881 1.366 . S
C2882 C2886 1.385 . S
C2883 H2858 0.951 . S
C2883 C2881 1.388 . S
C2883 C2884 1.366 . S
C2884 C2883 1.366 . S
C2884 C2885 1.414 . S
C2884 C2887 1.499 . S
C2885 H2859 0.950 . S
C2885 C2884 1.414 . S
C2885 C2886 1.374 . S
C2886 H2860 0.950 . S
C2886 C2882 1.385 . S
C2886 C2885 1.374 . S
C2887 C2884 1.499 . S
C2887 C2888 1.373 . S
C2887 C2889 1.389 . S
C2888 H2861 0.950 . S
C2888 C2874 1.377 . S
C2888 C2887 1.373 . S
C2889 C2873 1.377 . S
C2889 C2887 1.389 . S
C2889 C2890 1.524 . S
C2890 C2889 1.524 . S
C2890 C2891 1.397 . S
C2890 C2895 1.363 . S
C2891 H2862 0.950 . S
C2891 C2890 1.397 . S
C2891 C2892 1.334 . S
C2892 H2863 0.950 . S
C2892 C2891 1.334 . S
C2892 C2893 1.287 . S
C2893 C2892 1.287 . S
C2893 C2894 1.524 . S
C2893 H2896 0.999 . S
C2894 H2864 0.950 . S
C2894 C2893 1.524 . S
C2894 C2895 1.415 . S
C2895 H2865 0.950 . S
C2895 C2890 1.363 . S
C2895 C2894 1.415 . S
H2896 C2893 0.999 . S
H2897 C2878 0.913 . S
H2898 C2916 0.951 . S
H2899 C2918 0.951 . S
H2900 C2920 0.950 . S
H2901 C2921 0.950 . S
H2902 C2923 0.950 . S
H2903 C2926 0.950 . S
H2904 C2927 0.950 . S
H2905 C2929 0.950 . S
H2906 C2930 0.950 . S
H2907 C2931 0.951 . S
H2908 C2933 0.951 . S
H2909 C2935 0.950 . S
H2910 C2936 0.950 . S
H2911 C2938 0.950 . S
H2912 C2941 0.950 . S
H2913 C2942 0.950 . S
H2914 C2944 0.950 . S
H2915 C2945 0.950 . S
C2916 H2898 0.951 . S
C2916 C2917 1.366 . S
C2916 C2918 1.388 . S
C2917 C2916 1.366 . S
C2917 C2921 1.385 . S
C2918 H2899 0.951 . S
C2918 C2916 1.388 . S
C2918 C2919 1.366 . S
C2919 C2918 1.366 . S
C2919 C2920 1.414 . S
C2919 C2922 1.499 . S
C2920 H2900 0.950 . S
C2920 C2919 1.414 . S
C2920 C2921 1.374 . S
C2921 H2901 0.950 . S
C2921 C2917 1.385 . S
C2921 C2920 1.374 . S
C2922 C2919 1.499 . S
C2922 C2923 1.373 . S
C2922 C2924 1.389 . S
C2923 H2902 0.950 . S
C2923 C2922 1.373 . S
C2923 C2939 1.377 . S
C2924 C2922 1.389 . S
C2924 C2925 1.524 . S
C2924 C2938 1.377 . S
C2925 C2924 1.524 . S
C2925 C2926 1.397 . S
C2925 C2930 1.363 . S
C2926 H2903 0.950 . S
C2926 C2925 1.397 . S
C2926 C2927 1.334 . S
C2927 H2904 0.950 . S
C2927 C2926 1.334 . S
C2927 C2928 1.287 . S
C2928 C2927 1.287 . S
C2928 C2929 1.524 . S
C2928 H2947 0.913 . S
C2929 H2905 0.950 . S
C2929 C2928 1.524 . S
C2929 C2930 1.415 . S
C2930 H2906 0.950 . S
C2930 C2925 1.363 . S
C2930 C2929 1.415 . S
C2931 H2907 0.951 . S
C2931 C2932 1.366 . S
C2931 C2933 1.388 . S
C2932 C2931 1.366 . S
C2932 C2936 1.385 . S
C2933 H2908 0.951 . S
C2933 C2931 1.388 . S
C2933 C2934 1.366 . S
C2934 C2933 1.366 . S
C2934 C2935 1.414 . S
C2934 C2937 1.499 . S
C2935 H2909 0.950 . S
C2935 C2934 1.414 . S
C2935 C2936 1.374 . S
C2936 H2910 0.950 . S
C2936 C2932 1.385 . S
C2936 C2935 1.374 . S
C2937 C2934 1.499 . S
C2937 C2938 1.373 . S
C2937 C2939 1.389 . S
C2938 H2911 0.950 . S
C2938 C2924 1.377 . S
C2938 C2937 1.373 . S
C2939 C2923 1.377 . S
C2939 C2937 1.389 . S
C2939 C2940 1.524 . S
C2940 C2939 1.524 . S
C2940 C2941 1.397 . S
C2940 C2945 1.363 . S
C2941 H2912 0.950 . S
C2941 C2940 1.397 . S
C2941 C2942 1.334 . S
C2942 H2913 0.950 . S
C2942 C2941 1.334 . S
C2942 C2943 1.287 . S
C2943 C2942 1.287 . S
C2943 C2944 1.524 . S
C2943 H2946 0.999 . S
C2944 H2914 0.950 . S
C2944 C2943 1.524 . S
C2944 C2945 1.415 . S
C2945 H2915 0.950 . S
C2945 C2940 1.363 . S
C2945 C2944 1.415 . S
H2946 C2943 0.999 . S
H2947 C2928 0.913 . S
H2948 C2966 0.951 . S
H2949 C2968 0.951 . S
H2950 C2970 0.950 . S
H2951 C2971 0.950 . S
H2952 C2973 0.950 . S
H2953 C2976 0.950 . S
H2954 C2977 0.950 . S
H2955 C2979 0.950 . S
H2956 C2980 0.950 . S
H2957 C2981 0.951 . S
H2958 C2983 0.951 . S
H2959 C2985 0.950 . S
H2960 C2986 0.950 . S
H2961 C2988 0.950 . S
H2962 C2991 0.950 . S
H2963 C2992 0.950 . S
H2964 C2994 0.950 . S
H2965 C2995 0.950 . S
C2966 H2948 0.951 . S
C2966 C2967 1.366 . S
C2966 C2968 1.388 . S
C2967 C2966 1.366 . S
C2967 C2971 1.385 . S
C2968 H2949 0.951 . S
C2968 C2966 1.388 . S
C2968 C2969 1.366 . S
C2969 C2968 1.366 . S
C2969 C2970 1.414 . S
C2969 C2972 1.499 . S
C2970 H2950 0.950 . S
C2970 C2969 1.414 . S
C2970 C2971 1.374 . S
C2971 H2951 0.950 . S
C2971 C2967 1.385 . S
C2971 C2970 1.374 . S
C2972 C2969 1.499 . S
C2972 C2973 1.373 . S
C2972 C2974 1.389 . S
C2973 H2952 0.950 . S
C2973 C2972 1.373 . S
C2973 C2989 1.377 . S
C2974 C2972 1.389 . S
C2974 C2975 1.524 . S
C2974 C2988 1.377 . S
C2975 C2974 1.524 . S
C2975 C2976 1.397 . S
C2975 C2980 1.363 . S
C2976 H2953 0.950 . S
C2976 C2975 1.397 . S
C2976 C2977 1.334 . S
C2977 H2954 0.950 . S
C2977 C2976 1.334 . S
C2977 C2978 1.287 . S
C2978 C2977 1.287 . S
C2978 C2979 1.524 . S
C2978 H2997 0.913 . S
C2979 H2955 0.950 . S
C2979 C2978 1.524 . S
C2979 C2980 1.415 . S
C2980 H2956 0.950 . S
C2980 C2975 1.363 . S
C2980 C2979 1.415 . S
C2981 H2957 0.951 . S
C2981 C2982 1.366 . S
C2981 C2983 1.388 . S
C2982 C2981 1.366 . S
C2982 C2986 1.385 . S
C2983 H2958 0.951 . S
C2983 C2981 1.388 . S
C2983 C2984 1.366 . S
C2984 C2983 1.366 . S
C2984 C2985 1.414 . S
C2984 C2987 1.499 . S
C2985 H2959 0.950 . S
C2985 C2984 1.414 . S
C2985 C2986 1.374 . S
C2986 H2960 0.950 . S
C2986 C2982 1.385 . S
C2986 C2985 1.374 . S
C2987 C2984 1.499 . S
C2987 C2988 1.373 . S
C2987 C2989 1.389 . S
C2988 H2961 0.950 . S
C2988 C2974 1.377 . S
C2988 C2987 1.373 . S
C2989 C2973 1.377 . S
C2989 C2987 1.389 . S
C2989 C2990 1.524 . S
C2990 C2989 1.524 . S
C2990 C2991 1.397 . S
C2990 C2995 1.363 . S
C2991 H2962 0.950 . S
C2991 C2990 1.397 . S
C2991 C2992 1.334 . S
C2992 H2963 0.950 . S
C2992 C2991 1.334 . S
C2992 C2993 1.287 . S
C2993 C2992 1.287 . S
C2993 C2994 1.524 . S
C2993 H2996 0.999 . S
C2994 H2964 0.950 . S
C2994 C2993 1.524 . S
C2994 C2995 1.415 . S
C2995 H2965 0.950 . S
C2995 C2990 1.363 . S
C2995 C2994 1.415 . S
H2996 C2993 0.999 . S
H2997 C2978 0.913 . S
H2998 C3016 0.951 . S
H2999 C3018 0.951 . S
H3000 C3020 0.950 . S
H3001 C3021 0.950 . S
H3002 C3023 0.950 . S
H3003 C3026 0.926 1_554 S
H3004 C3027 0.950 1_554 S
H3005 C3029 0.950 . S
H3006 C3030 0.950 . S
H3007 C3031 0.951 . S
H3008 C3033 0.951 . S
H3009 C3035 0.950 . S
H3010 C3036 0.950 . S
H3011 C3038 0.950 . S
H3012 C3041 0.950 1_556 S
H3013 C3042 0.950 . S
H3014 C3044 0.950 . S
H3015 C3045 0.950 . S
C3016 H2998 0.951 . S
C3016 C3017 1.366 . S
C3016 C3018 1.388 . S
C3017 C3016 1.366 . S
C3017 C3021 1.385 . S
C3018 H2999 0.951 . S
C3018 C3016 1.388 . S
C3018 C3019 1.366 . S
C3019 C3018 1.366 . S
C3019 C3020 1.414 . S
C3019 C3022 1.499 . S
C3020 H3000 0.950 . S
C3020 C3019 1.414 . S
C3020 C3021 1.374 . S
C3021 H3001 0.950 . S
C3021 C3017 1.385 . S
C3021 C3020 1.374 . S
C3022 C3019 1.499 . S
C3022 C3023 1.373 . S
C3022 C3024 1.389 1_554 S
C3023 H3002 0.950 . S
C3023 C3022 1.373 . S
C3023 C3039 1.377 . S
C3024 C3022 1.389 1_556 S
C3024 C3025 1.524 . S
C3024 C3038 1.377 . S
C3025 C3024 1.524 . S
C3025 C3026 1.411 . S
C3025 C3030 1.363 . S
C3026 H3003 0.926 1_556 S
C3026 C3025 1.411 . S
C3026 C3027 1.343 . S
C3027 H3004 0.950 1_556 S
C3027 C3026 1.343 . S
C3027 C3028 1.287 . S
C3028 C3027 1.287 . S
C3028 C3029 1.524 . S
C3028 H3047 0.913 . S
C3029 H3005 0.950 . S
C3029 C3028 1.524 . S
C3029 C3030 1.415 . S
C3030 H3006 0.950 . S
C3030 C3025 1.363 . S
C3030 C3029 1.415 . S
C3031 H3007 0.951 . S
C3031 C3032 1.366 . S
C3031 C3033 1.388 . S
C3032 C3031 1.366 . S
C3032 C3036 1.385 . S
C3033 H3008 0.951 . S
C3033 C3031 1.388 . S
C3033 C3034 1.366 . S
C3034 C3033 1.366 . S
C3034 C3035 1.414 . S
C3034 C3037 1.499 . S
C3035 H3009 0.950 . S
C3035 C3034 1.414 . S
C3035 C3036 1.374 . S
C3036 H3010 0.950 . S
C3036 C3032 1.385 . S
C3036 C3035 1.374 . S
C3037 C3034 1.499 . S
C3037 C3038 1.373 . S
C3037 C3039 1.389 1_556 S
C3038 H3011 0.950 . S
C3038 C3024 1.377 . S
C3038 C3037 1.373 . S
C3039 C3023 1.377 . S
C3039 C3037 1.389 1_554 S
C3039 C3040 1.524 . S
C3040 C3039 1.524 . S
C3040 C3041 1.397 . S
C3040 C3045 1.363 . S
C3041 H3012 0.950 1_554 S
C3041 C3040 1.397 . S
C3041 C3042 1.334 . S
C3042 H3013 0.950 . S
C3042 C3041 1.334 . S
C3042 C3043 1.287 . S
C3043 C3042 1.287 . S
C3043 C3044 1.524 . S
C3043 H3046 0.999 . S
C3044 H3014 0.950 . S
C3044 C3043 1.524 . S
C3044 C3045 1.415 . S
C3045 H3015 0.950 . S
C3045 C3040 1.363 . S
C3045 C3044 1.415 . S
H3046 C3043 0.999 . S
H3047 C3028 0.913 . S
H3048 C3066 0.951 . S
H3049 C3068 0.951 . S
H3050 C3070 0.950 . S
H3051 C3071 0.950 . S
H3052 C3073 0.950 . S
H3053 C3076 0.950 . S
H3054 C3077 0.950 . S
H3055 C3079 0.950 . S
H3056 C3080 0.950 . S
H3057 C3081 0.951 . S
H3058 C3083 0.951 . S
H3059 C3085 0.950 . S
H3060 C3086 0.950 . S
H3061 C3088 0.950 . S
H3062 C3091 0.950 . S
H3063 C3092 0.950 . S
H3064 C3094 0.950 . S
H3065 C3095 0.950 . S
C3066 H3048 0.951 . S
C3066 C3067 1.366 . S
C3066 C3068 1.388 . S
C3067 C3066 1.366 . S
C3067 C3071 1.385 . S
C3068 H3049 0.951 . S
C3068 C3066 1.388 . S
C3068 C3069 1.366 . S
C3069 C3068 1.366 . S
C3069 C3070 1.414 . S
C3069 C3072 1.499 . S
C3070 H3050 0.950 . S
C3070 C3069 1.414 . S
C3070 C3071 1.374 . S
C3071 H3051 0.950 . S
C3071 C3067 1.385 . S
C3071 C3070 1.374 . S
C3072 C3069 1.499 . S
C3072 C3073 1.373 . S
C3072 C3074 1.389 . S
C3073 H3052 0.950 . S
C3073 C3072 1.373 . S
C3073 C3089 1.377 . S
C3074 C3072 1.389 . S
C3074 C3075 1.524 . S
C3074 C3088 1.377 . S
C3075 C3074 1.524 . S
C3075 C3076 1.397 . S
C3075 C3080 1.363 . S
C3076 H3053 0.950 . S
C3076 C3075 1.397 . S
C3076 C3077 1.334 . S
C3077 H3054 0.950 . S
C3077 C3076 1.334 . S
C3077 C3078 1.287 . S
C3078 C3077 1.287 . S
C3078 C3079 1.524 . S
C3078 H3097 0.913 . S
C3079 H3055 0.950 . S
C3079 C3078 1.524 . S
C3079 C3080 1.415 . S
C3080 H3056 0.950 . S
C3080 C3075 1.363 . S
C3080 C3079 1.415 . S
C3081 H3057 0.951 . S
C3081 C3082 1.366 . S
C3081 C3083 1.388 . S
C3082 C3081 1.366 . S
C3082 C3086 1.385 . S
C3083 H3058 0.951 . S
C3083 C3081 1.388 . S
C3083 C3084 1.366 . S
C3084 C3083 1.366 . S
C3084 C3085 1.414 . S
C3084 C3087 1.499 . S
C3085 H3059 0.950 . S
C3085 C3084 1.414 . S
C3085 C3086 1.374 . S
C3086 H3060 0.950 . S
C3086 C3082 1.385 . S
C3086 C3085 1.374 . S
C3087 C3084 1.499 . S
C3087 C3088 1.373 . S
C3087 C3089 1.389 . S
C3088 H3061 0.950 . S
C3088 C3074 1.377 . S
C3088 C3087 1.373 . S
C3089 C3073 1.377 . S
C3089 C3087 1.389 . S
C3089 C3090 1.524 . S
C3090 C3089 1.524 . S
C3090 C3091 1.397 . S
C3090 C3095 1.363 . S
C3091 H3062 0.950 . S
C3091 C3090 1.397 . S
C3091 C3092 1.334 . S
C3092 H3063 0.950 . S
C3092 C3091 1.334 . S
C3092 C3093 1.287 . S
C3093 C3092 1.287 . S
C3093 C3094 1.524 . S
C3093 H3096 0.999 . S
C3094 H3064 0.950 . S
C3094 C3093 1.524 . S
C3094 C3095 1.415 . S
C3095 H3065 0.950 . S
C3095 C3090 1.363 . S
C3095 C3094 1.415 . S
H3096 C3093 0.999 . S
H3097 C3078 0.913 . S
H3098 C3116 0.951 . S
H3099 C3118 0.951 . S
H3100 C3120 0.950 . S
H3101 C3121 0.950 . S
H3102 C3123 0.950 . S
H3103 C3126 0.950 . S
H3104 C3127 0.950 . S
H3105 C3129 0.950 . S
H3106 C3130 0.950 . S
H3107 C3131 0.951 . S
H3108 C3133 0.951 . S
H3109 C3135 0.950 . S
H3110 C3136 0.950 . S
H3111 C3138 0.950 . S
H3112 C3141 0.950 . S
H3113 C3142 0.950 . S
H3114 C3144 0.950 . S
H3115 C3145 0.950 . S
C3116 H3098 0.951 . S
C3116 C3117 1.366 . S
C3116 C3118 1.388 . S
C3117 C3116 1.366 . S
C3117 C3121 1.385 . S
C3118 H3099 0.951 . S
C3118 C3116 1.388 . S
C3118 C3119 1.366 . S
C3119 C3118 1.366 . S
C3119 C3120 1.414 . S
C3119 C3122 1.499 . S
C3120 H3100 0.950 . S
C3120 C3119 1.414 . S
C3120 C3121 1.374 . S
C3121 H3101 0.950 . S
C3121 C3117 1.385 . S
C3121 C3120 1.374 . S
C3122 C3119 1.499 . S
C3122 C3123 1.373 . S
C3122 C3124 1.389 . S
C3123 H3102 0.950 . S
C3123 C3122 1.373 . S
C3123 C3139 1.377 . S
C3124 C3122 1.389 . S
C3124 C3125 1.524 . S
C3124 C3138 1.377 . S
C3125 C3124 1.524 . S
C3125 C3126 1.397 . S
C3125 C3130 1.363 . S
C3126 H3103 0.950 . S
C3126 C3125 1.397 . S
C3126 C3127 1.334 . S
C3127 H3104 0.950 . S
C3127 C3126 1.334 . S
C3127 C3128 1.287 . S
C3128 C3127 1.287 . S
C3128 C3129 1.524 . S
C3128 H3147 0.913 . S
C3129 H3105 0.950 . S
C3129 C3128 1.524 . S
C3129 C3130 1.415 . S
C3130 H3106 0.950 . S
C3130 C3125 1.363 . S
C3130 C3129 1.415 . S
C3131 H3107 0.951 . S
C3131 C3132 1.366 . S
C3131 C3133 1.388 . S
C3132 C3131 1.366 . S
C3132 C3136 1.385 . S
C3133 H3108 0.951 . S
C3133 C3131 1.388 . S
C3133 C3134 1.366 . S
C3134 C3133 1.366 . S
C3134 C3135 1.414 . S
C3134 C3137 1.499 . S
C3135 H3109 0.950 . S
C3135 C3134 1.414 . S
C3135 C3136 1.374 . S
C3136 H3110 0.950 . S
C3136 C3132 1.385 . S
C3136 C3135 1.374 . S
C3137 C3134 1.499 . S
C3137 C3138 1.373 . S
C3137 C3139 1.389 . S
C3138 H3111 0.950 . S
C3138 C3124 1.377 . S
C3138 C3137 1.373 . S
C3139 C3123 1.377 . S
C3139 C3137 1.389 . S
C3139 C3140 1.524 . S
C3140 C3139 1.524 . S
C3140 C3141 1.397 . S
C3140 C3145 1.363 . S
C3141 H3112 0.950 . S
C3141 C3140 1.397 . S
C3141 C3142 1.334 . S
C3142 H3113 0.950 . S
C3142 C3141 1.334 . S
C3142 C3143 1.287 . S
C3143 C3142 1.287 . S
C3143 C3144 1.524 . S
C3143 H3146 0.999 . S
C3144 H3114 0.950 . S
C3144 C3143 1.524 . S
C3144 C3145 1.415 . S
C3145 H3115 0.950 . S
C3145 C3140 1.363 . S
C3145 C3144 1.415 . S
H3146 C3143 0.999 . S
H3147 C3128 0.913 . S
H3148 C3166 0.951 . S
H3149 C3168 0.951 . S
H3150 C3170 0.950 . S
H3151 C3171 0.950 . S
H3152 C3173 0.950 . S
H3153 C3176 0.950 . S
H3154 C3177 0.950 . S
H3155 C3179 0.950 . S
H3156 C3180 0.950 . S
H3157 C3181 0.951 . S
H3158 C3183 0.951 . S
H3159 C3185 0.950 . S
H3160 C3186 0.950 . S
H3161 C3188 0.950 . S
H3162 C3191 0.950 . S
H3163 C3192 0.950 . S
H3164 C3194 0.950 . S
H3165 C3195 0.950 . S
C3166 H3148 0.951 . S
C3166 C3167 1.366 . S
C3166 C3168 1.388 . S
C3167 C3166 1.366 . S
C3167 C3171 1.385 . S
C3168 H3149 0.951 . S
C3168 C3166 1.388 . S
C3168 C3169 1.366 . S
C3169 C3168 1.366 . S
C3169 C3170 1.414 . S
C3169 C3172 1.499 . S
C3170 H3150 0.950 . S
C3170 C3169 1.414 . S
C3170 C3171 1.374 . S
C3171 H3151 0.950 . S
C3171 C3167 1.385 . S
C3171 C3170 1.374 . S
C3172 C3169 1.499 . S
C3172 C3173 1.373 . S
C3172 C3174 1.389 . S
C3173 H3152 0.950 . S
C3173 C3172 1.373 . S
C3173 C3189 1.377 . S
C3174 C3172 1.389 . S
C3174 C3175 1.524 . S
C3174 C3188 1.377 . S
C3175 C3174 1.524 . S
C3175 C3176 1.397 . S
C3175 C3180 1.363 . S
C3176 H3153 0.950 . S
C3176 C3175 1.397 . S
C3176 C3177 1.334 . S
C3177 H3154 0.950 . S
C3177 C3176 1.334 . S
C3177 C3178 1.287 . S
C3178 C3177 1.287 . S
C3178 C3179 1.524 . S
C3178 H3197 0.913 . S
C3179 H3155 0.950 . S
C3179 C3178 1.524 . S
C3179 C3180 1.415 . S
C3180 H3156 0.950 . S
C3180 C3175 1.363 . S
C3180 C3179 1.415 . S
C3181 H3157 0.951 . S
C3181 C3182 1.366 . S
C3181 C3183 1.388 . S
C3182 C3181 1.366 . S
C3182 C3186 1.385 . S
C3183 H3158 0.951 . S
C3183 C3181 1.388 . S
C3183 C3184 1.366 . S
C3184 C3183 1.366 . S
C3184 C3185 1.414 . S
C3184 C3187 1.499 . S
C3185 H3159 0.950 . S
C3185 C3184 1.414 . S
C3185 C3186 1.374 . S
C3186 H3160 0.950 . S
C3186 C3182 1.385 . S
C3186 C3185 1.374 . S
C3187 C3184 1.499 . S
C3187 C3188 1.373 . S
C3187 C3189 1.389 . S
C3188 H3161 0.950 . S
C3188 C3174 1.377 . S
C3188 C3187 1.373 . S
C3189 C3173 1.377 . S
C3189 C3187 1.389 . S
C3189 C3190 1.524 . S
C3190 C3189 1.524 . S
C3190 C3191 1.397 . S
C3190 C3195 1.363 . S
C3191 H3162 0.950 . S
C3191 C3190 1.397 . S
C3191 C3192 1.334 . S
C3192 H3163 0.950 . S
C3192 C3191 1.334 . S
C3192 C3193 1.287 . S
C3193 C3192 1.287 . S
C3193 C3194 1.524 . S
C3193 H3196 0.999 . S
C3194 H3164 0.950 . S
C3194 C3193 1.524 . S
C3194 C3195 1.415 . S
C3195 H3165 0.950 . S
C3195 C3190 1.363 . S
C3195 C3194 1.415 . S
H3196 C3193 0.999 . S
H3197 C3178 0.913 . S
H3198 C3216 0.951 . S
H3199 C3218 0.951 . S
H3200 C3220 0.950 . S
H3201 C3221 0.950 . S
H3202 C3223 0.950 . S
H3203 C3226 0.950 . S
H3204 C3227 0.950 . S
H3205 C3229 0.950 . S
H3206 C3230 0.950 . S
H3207 C3231 0.951 . S
H3208 C3233 0.951 . S
H3209 C3235 0.950 . S
H3210 C3236 0.950 . S
H3211 C3238 0.950 . S
H3212 C3241 0.950 . S
H3213 C3242 0.950 . S
H3214 C3244 0.950 . S
H3215 C3245 0.950 . S
C3216 H3198 0.951 . S
C3216 C3217 1.366 . S
C3216 C3218 1.388 . S
C3217 C3216 1.366 . S
C3217 C3221 1.385 . S
C3218 H3199 0.951 . S
C3218 C3216 1.388 . S
C3218 C3219 1.366 . S
C3219 C3218 1.366 . S
C3219 C3220 1.414 . S
C3219 C3222 1.499 . S
C3220 H3200 0.950 . S
C3220 C3219 1.414 . S
C3220 C3221 1.374 . S
C3221 H3201 0.950 . S
C3221 C3217 1.385 . S
C3221 C3220 1.374 . S
C3222 C3219 1.499 . S
C3222 C3223 1.373 . S
C3222 C3224 1.389 . S
C3223 H3202 0.950 . S
C3223 C3222 1.373 . S
C3223 C3239 1.377 . S
C3224 C3222 1.389 . S
C3224 C3225 1.524 . S
C3224 C3238 1.377 . S
C3225 C3224 1.524 . S
C3225 C3226 1.397 . S
C3225 C3230 1.363 . S
C3226 H3203 0.950 . S
C3226 C3225 1.397 . S
C3226 C3227 1.334 . S
C3227 H3204 0.950 . S
C3227 C3226 1.334 . S
C3227 C3228 1.287 . S
C3228 C3227 1.287 . S
C3228 C3229 1.524 . S
C3228 H3247 0.913 . S
C3229 H3205 0.950 . S
C3229 C3228 1.524 . S
C3229 C3230 1.415 . S
C3230 H3206 0.950 . S
C3230 C3225 1.363 . S
C3230 C3229 1.415 . S
C3231 H3207 0.951 . S
C3231 C3232 1.366 . S
C3231 C3233 1.388 . S
C3232 C3231 1.366 . S
C3232 C3236 1.385 . S
C3233 H3208 0.951 . S
C3233 C3231 1.388 . S
C3233 C3234 1.366 . S
C3234 C3233 1.366 . S
C3234 C3235 1.414 . S
C3234 C3237 1.499 . S
C3235 H3209 0.950 . S
C3235 C3234 1.414 . S
C3235 C3236 1.374 . S
C3236 H3210 0.950 . S
C3236 C3232 1.385 . S
C3236 C3235 1.374 . S
C3237 C3234 1.499 . S
C3237 C3238 1.373 . S
C3237 C3239 1.389 . S
C3238 H3211 0.950 . S
C3238 C3224 1.377 . S
C3238 C3237 1.373 . S
C3239 C3223 1.377 . S
C3239 C3237 1.389 . S
C3239 C3240 1.524 . S
C3240 C3239 1.524 . S
C3240 C3241 1.397 . S
C3240 C3245 1.363 . S
C3241 H3212 0.950 . S
C3241 C3240 1.397 . S
C3241 C3242 1.334 . S
C3242 H3213 0.950 . S
C3242 C3241 1.334 . S
C3242 C3243 1.287 . S
C3243 C3242 1.287 . S
C3243 C3244 1.524 . S
C3243 H3246 0.999 . S
C3244 H3214 0.950 . S
C3244 C3243 1.524 . S
C3244 C3245 1.415 . S
C3245 H3215 0.950 . S
C3245 C3240 1.363 . S
C3245 C3244 1.415 . S
H3246 C3243 0.999 . S
H3247 C3228 0.913 . S
H3248 C3266 0.951 . S
H3249 C3268 0.951 . S
H3250 C3270 0.950 . S
H3251 C3271 0.950 . S
H3252 C3273 0.950 . S
H3253 C3276 0.950 . S
H3254 C3277 0.950 . S
H3255 C3279 0.950 . S
H3256 C3280 0.950 . S
H3257 C3281 0.951 . S
H3258 C3283 0.951 . S
H3259 C3285 0.950 . S
H3260 C3286 0.950 . S
H3261 C3288 0.950 . S
H3262 C3291 0.950 . S
H3263 C3292 0.950 . S
H3264 C3294 0.950 . S
H3265 C3295 0.950 . S
C3266 H3248 0.951 . S
C3266 C3267 1.366 . S
C3266 C3268 1.388 . S
C3267 C3266 1.366 . S
C3267 C3271 1.385 . S
C3268 H3249 0.951 . S
C3268 C3266 1.388 . S
C3268 C3269 1.366 . S
C3269 C3268 1.366 . S
C3269 C3270 1.414 . S
C3269 C3272 1.499 . S
C3270 H3250 0.950 . S
C3270 C3269 1.414 . S
C3270 C3271 1.374 . S
C3271 H3251 0.950 . S
C3271 C3267 1.385 . S
C3271 C3270 1.374 . S
C3272 C3269 1.499 . S
C3272 C3273 1.373 . S
C3272 C3274 1.389 1_554 S
C3273 H3252 0.950 . S
C3273 C3272 1.373 . S
C3273 C3289 1.377 . S
C3274 C3272 1.389 1_556 S
C3274 C3275 1.524 . S
C3274 C3288 1.377 . S
C3275 C3274 1.524 . S
C3275 C3276 1.397 . S
C3275 C3280 1.363 . S
C3276 H3253 0.950 . S
C3276 C3275 1.397 . S
C3276 C3277 1.334 . S
C3277 H3254 0.950 . S
C3277 C3276 1.334 . S
C3277 C3278 1.287 . S
C3278 C3277 1.287 . S
C3278 C3279 1.524 . S
C3278 H3297 0.913 . S
C3279 H3255 0.950 . S
C3279 C3278 1.524 . S
C3279 C3280 1.415 . S
C3280 H3256 0.950 . S
C3280 C3275 1.363 . S
C3280 C3279 1.415 . S
C3281 H3257 0.951 . S
C3281 C3282 1.366 . S
C3281 C3283 1.388 . S
C3282 C3281 1.366 . S
C3282 C3286 1.385 . S
C3283 H3258 0.951 . S
C3283 C3281 1.388 . S
C3283 C3284 1.366 . S
C3284 C3283 1.366 . S
C3284 C3285 1.414 . S
C3284 C3287 1.499 . S
C3285 H3259 0.950 . S
C3285 C3284 1.414 . S
C3285 C3286 1.374 . S
C3286 H3260 0.950 . S
C3286 C3282 1.385 . S
C3286 C3285 1.374 . S
C3287 C3284 1.499 . S
C3287 C3288 1.373 . S
C3287 C3289 1.389 1_556 S
C3288 H3261 0.950 . S
C3288 C3274 1.377 . S
C3288 C3287 1.373 . S
C3289 C3273 1.377 . S
C3289 C3287 1.389 1_554 S
C3289 C3290 1.524 . S
C3290 C3289 1.524 . S
C3290 C3291 1.397 . S
C3290 C3295 1.363 . S
C3291 H3262 0.950 . S
C3291 C3290 1.397 . S
C3291 C3292 1.334 . S
C3292 H3263 0.950 . S
C3292 C3291 1.334 . S
C3292 C3293 1.287 . S
C3293 C3292 1.287 . S
C3293 C3294 1.524 . S
C3293 H3296 0.999 . S
C3294 H3264 0.950 . S
C3294 C3293 1.524 . S
C3294 C3295 1.415 . S
C3295 H3265 0.950 . S
C3295 C3290 1.363 . S
C3295 C3294 1.415 . S
H3296 C3293 0.999 . S
H3297 C3278 0.913 . S
H3298 C3316 0.951 . S
H3299 C3318 0.951 . S
H3300 C3320 0.950 . S
H3301 C3321 0.950 . S
H3302 C3323 0.950 . S
H3303 C3326 0.950 . S
H3304 C3327 0.950 . S
H3305 C3329 0.950 . S
H3306 C3330 0.950 . S
H3307 C3331 0.951 . S
H3308 C3333 0.951 . S
H3309 C3335 0.950 . S
H3310 C3336 0.950 . S
H3311 C3338 0.950 . S
H3312 C3341 0.950 . S
H3313 C3342 0.950 . S
H3314 C3344 0.950 . S
H3315 C3345 0.950 . S
C3316 H3298 0.951 . S
C3316 C3317 1.366 . S
C3316 C3318 1.388 . S
C3317 C3316 1.366 . S
C3317 C3321 1.385 . S
C3318 H3299 0.951 . S
C3318 C3316 1.388 . S
C3318 C3319 1.366 . S
C3319 C3318 1.366 . S
C3319 C3320 1.414 . S
C3319 C3322 1.499 . S
C3320 H3300 0.950 . S
C3320 C3319 1.414 . S
C3320 C3321 1.374 . S
C3321 H3301 0.950 . S
C3321 C3317 1.385 . S
C3321 C3320 1.374 . S
C3322 C3319 1.499 . S
C3322 C3323 1.373 . S
C3322 C3324 1.389 . S
C3323 H3302 0.950 . S
C3323 C3322 1.373 . S
C3323 C3339 1.377 . S
C3324 C3322 1.389 . S
C3324 C3325 1.524 . S
C3324 C3338 1.377 . S
C3325 C3324 1.524 . S
C3325 C3326 1.397 . S
C3325 C3330 1.363 . S
C3326 H3303 0.950 . S
C3326 C3325 1.397 . S
C3326 C3327 1.334 . S
C3327 H3304 0.950 . S
C3327 C3326 1.334 . S
C3327 C3328 1.287 . S
C3328 C3327 1.287 . S
C3328 C3329 1.524 . S
C3328 H3347 0.913 . S
C3329 H3305 0.950 . S
C3329 C3328 1.524 . S
C3329 C3330 1.415 . S
C3330 H3306 0.950 . S
C3330 C3325 1.363 . S
C3330 C3329 1.415 . S
C3331 H3307 0.951 . S
C3331 C3332 1.366 . S
C3331 C3333 1.388 . S
C3332 C3331 1.366 . S
C3332 C3336 1.385 . S
C3333 H3308 0.951 . S
C3333 C3331 1.388 . S
C3333 C3334 1.366 . S
C3334 C3333 1.366 . S
C3334 C3335 1.414 . S
C3334 C3337 1.499 . S
C3335 H3309 0.950 . S
C3335 C3334 1.414 . S
C3335 C3336 1.374 . S
C3336 H3310 0.950 . S
C3336 C3332 1.385 . S
C3336 C3335 1.374 . S
C3337 C3334 1.499 . S
C3337 C3338 1.373 . S
C3337 C3339 1.389 . S
C3338 H3311 0.950 . S
C3338 C3324 1.377 . S
C3338 C3337 1.373 . S
C3339 C3323 1.377 . S
C3339 C3337 1.389 . S
C3339 C3340 1.524 . S
C3340 C3339 1.524 . S
C3340 C3341 1.397 . S
C3340 C3345 1.363 . S
C3341 H3312 0.950 . S
C3341 C3340 1.397 . S
C3341 C3342 1.334 . S
C3342 H3313 0.950 . S
C3342 C3341 1.334 . S
C3342 C3343 1.287 . S
C3343 C3342 1.287 . S
C3343 C3344 1.524 . S
C3343 H3346 0.999 . S
C3344 H3314 0.950 . S
C3344 C3343 1.524 . S
C3344 C3345 1.415 . S
C3345 H3315 0.950 . S
C3345 C3340 1.363 . S
C3345 C3344 1.415 . S
H3346 C3343 0.999 . S
H3347 C3328 0.913 . S
H3348 C3366 0.951 . S
H3349 C3368 0.951 . S
H3350 C3370 0.950 . S
H3351 C3371 0.950 . S
H3352 C3373 0.950 . S
H3353 C3376 0.950 . S
H3354 C3377 0.950 . S
H3355 C3379 0.950 . S
H3356 C3380 0.950 . S
H3357 C3381 0.951 . S
H3358 C3383 0.951 . S
H3359 C3385 0.950 . S
H3360 C3386 0.950 . S
H3361 C3388 0.950 . S
H3362 C3391 0.950 . S
H3363 C3392 0.950 . S
H3364 C3394 0.950 . S
H3365 C3395 0.950 . S
C3366 H3348 0.951 . S
C3366 C3367 1.366 . S
C3366 C3368 1.388 . S
C3367 C3366 1.366 . S
C3367 C3371 1.385 . S
C3368 H3349 0.951 . S
C3368 C3366 1.388 . S
C3368 C3369 1.366 . S
C3369 C3368 1.366 . S
C3369 C3370 1.414 . S
C3369 C3372 1.499 . S
C3370 H3350 0.950 . S
C3370 C3369 1.414 . S
C3370 C3371 1.374 . S
C3371 H3351 0.950 . S
C3371 C3367 1.385 . S
C3371 C3370 1.374 . S
C3372 C3369 1.499 . S
C3372 C3373 1.373 . S
C3372 C3374 1.389 . S
C3373 H3352 0.950 . S
C3373 C3372 1.373 . S
C3373 C3389 1.377 . S
C3374 C3372 1.389 . S
C3374 C3375 1.524 . S
C3374 C3388 1.377 . S
C3375 C3374 1.524 . S
C3375 C3376 1.397 . S
C3375 C3380 1.363 . S
C3376 H3353 0.950 . S
C3376 C3375 1.397 . S
C3376 C3377 1.334 . S
C3377 H3354 0.950 . S
C3377 C3376 1.334 . S
C3377 C3378 1.287 . S
C3378 C3377 1.287 . S
C3378 C3379 1.524 . S
C3378 H3397 0.913 . S
C3379 H3355 0.950 . S
C3379 C3378 1.524 . S
C3379 C3380 1.415 . S
C3380 H3356 0.950 . S
C3380 C3375 1.363 . S
C3380 C3379 1.415 . S
C3381 H3357 0.951 . S
C3381 C3382 1.366 . S
C3381 C3383 1.388 . S
C3382 C3381 1.366 . S
C3382 C3386 1.385 . S
C3383 H3358 0.951 . S
C3383 C3381 1.388 . S
C3383 C3384 1.366 . S
C3384 C3383 1.366 . S
C3384 C3385 1.414 . S
C3384 C3387 1.499 . S
C3385 H3359 0.950 . S
C3385 C3384 1.414 . S
C3385 C3386 1.374 . S
C3386 H3360 0.950 . S
C3386 C3382 1.385 . S
C3386 C3385 1.374 . S
C3387 C3384 1.499 . S
C3387 C3388 1.373 . S
C3387 C3389 1.389 . S
C3388 H3361 0.950 . S
C3388 C3374 1.377 . S
C3388 C3387 1.373 . S
C3389 C3373 1.377 . S
C3389 C3387 1.389 . S
C3389 C3390 1.524 . S
C3390 C3389 1.524 . S
C3390 C3391 1.397 . S
C3390 C3395 1.363 . S
C3391 H3362 0.950 . S
C3391 C3390 1.397 . S
C3391 C3392 1.334 . S
C3392 H3363 0.950 . S
C3392 C3391 1.334 . S
C3392 C3393 1.287 . S
C3393 C3392 1.287 . S
C3393 C3394 1.524 . S
C3393 H3396 0.999 . S
C3394 H3364 0.950 . S
C3394 C3393 1.524 . S
C3394 C3395 1.415 . S
C3395 H3365 0.950 . S
C3395 C3390 1.363 . S
C3395 C3394 1.415 . S
H3396 C3393 0.999 . S
H3397 C3378 0.913 . S
H3398 C3416 0.951 . S
H3399 C3418 0.951 . S
H3400 C3420 0.950 . S
H3401 C3421 0.950 . S
H3402 C3423 0.950 . S
H3403 C3426 0.950 . S
H3404 C3427 0.950 . S
H3405 C3429 0.950 . S
H3406 C3430 0.950 . S
H3407 C3431 0.951 . S
H3408 C3433 0.951 . S
H3409 C3435 0.950 . S
H3410 C3436 0.950 . S
H3411 C3438 0.950 . S
H3412 C3441 0.950 . S
H3413 C3442 0.950 . S
H3414 C3444 0.950 . S
H3415 C3445 0.950 . S
C3416 H3398 0.951 . S
C3416 C3417 1.366 . S
C3416 C3418 1.388 . S
C3417 C3416 1.366 . S
C3417 C3421 1.385 . S
C3418 H3399 0.951 . S
C3418 C3416 1.388 . S
C3418 C3419 1.366 . S
C3419 C3418 1.366 . S
C3419 C3420 1.414 . S
C3419 C3422 1.499 . S
C3420 H3400 0.950 . S
C3420 C3419 1.414 . S
C3420 C3421 1.374 . S
C3421 H3401 0.950 . S
C3421 C3417 1.385 . S
C3421 C3420 1.374 . S
C3422 C3419 1.499 . S
C3422 C3423 1.373 . S
C3422 C3424 1.389 . S
C3423 H3402 0.950 . S
C3423 C3422 1.373 . S
C3423 C3439 1.377 . S
C3424 C3422 1.389 . S
C3424 C3425 1.524 . S
C3424 C3438 1.377 . S
C3425 C3424 1.524 . S
C3425 C3426 1.397 . S
C3425 C3430 1.363 . S
C3426 H3403 0.950 . S
C3426 C3425 1.397 . S
C3426 C3427 1.334 . S
C3427 H3404 0.950 . S
C3427 C3426 1.334 . S
C3427 C3428 1.287 . S
C3428 C3427 1.287 . S
C3428 C3429 1.524 . S
C3428 H3447 0.913 . S
C3429 H3405 0.950 . S
C3429 C3428 1.524 . S
C3429 C3430 1.415 . S
C3430 H3406 0.950 . S
C3430 C3425 1.363 . S
C3430 C3429 1.415 . S
C3431 H3407 0.951 . S
C3431 C3432 1.366 . S
C3431 C3433 1.388 . S
C3432 C3431 1.366 . S
C3432 C3436 1.385 . S
C3433 H3408 0.951 . S
C3433 C3431 1.388 . S
C3433 C3434 1.366 . S
C3434 C3433 1.366 . S
C3434 C3435 1.414 . S
C3434 C3437 1.499 . S
C3435 H3409 0.950 . S
C3435 C3434 1.414 . S
C3435 C3436 1.374 . S
C3436 H3410 0.950 . S
C3436 C3432 1.385 . S
C3436 C3435 1.374 . S
C3437 C3434 1.499 . S
C3437 C3438 1.373 . S
C3437 C3439 1.389 . S
C3438 H3411 0.950 . S
C3438 C3424 1.377 . S
C3438 C3437 1.373 . S
C3439 C3423 1.377 . S
C3439 C3437 1.389 . S
C3439 C3440 1.524 . S
C3440 C3439 1.524 . S
C3440 C3441 1.397 . S
C3440 C3445 1.363 . S
C3441 H3412 0.950 . S
C3441 C3440 1.397 . S
C3441 C3442 1.334 . S
C3442 H3413 0.950 . S
C3442 C3441 1.334 . S
C3442 C3443 1.287 . S
C3443 C3442 1.287 . S
C3443 C3444 1.524 . S
C3443 H3446 0.999 . S
C3444 H3414 0.950 . S
C3444 C3443 1.524 . S
C3444 C3445 1.415 . S
C3445 H3415 0.950 . S
C3445 C3440 1.363 . S
C3445 C3444 1.415 . S
H3446 C3443 0.999 . S
H3447 C3428 0.913 . S
H3448 C3466 0.951 . S
H3449 C3468 0.951 . S
H3450 C3470 0.950 1_556 S
H3451 C3471 0.950 . S
H3452 C3473 0.950 . S
H3453 C3476 0.950 . S
H3454 C3477 0.950 . S
H3455 C3479 0.950 . S
H3456 C3480 0.950 . S
H3457 C3481 0.951 . S
H3458 C3483 0.951 . S
H3459 C3485 0.950 . S
H3460 C3486 0.950 . S
H3461 C3488 0.961 . S
H3462 C3491 0.950 . S
H3463 C3492 0.950 . S
H3464 C3494 0.950 . S
H3465 C3495 0.950 . S
C3466 H3448 0.951 . S
C3466 C3467 1.366 . S
C3466 C3468 1.388 . S
C3467 C3466 1.366 . S
C3467 C3471 1.385 . S
C3468 H3449 0.951 . S
C3468 C3466 1.388 . S
C3468 C3469 1.366 . S
C3469 C3468 1.366 . S
C3469 C3470 1.414 . S
C3469 C3472 1.499 . S
C3470 H3450 0.950 1_554 S
C3470 C3469 1.414 . S
C3470 C3471 1.374 . S
C3471 H3451 0.950 . S
C3471 C3467 1.385 . S
C3471 C3470 1.374 . S
C3472 C3469 1.499 . S
C3472 C3473 1.373 1_554 S
C3472 C3474 1.389 . S
C3473 H3452 0.950 . S
C3473 C3472 1.373 1_556 S
C3473 C3489 1.377 . S
C3474 C3472 1.389 . S
C3474 C3475 1.524 . S
C3474 C3488 1.393 . S
C3475 C3474 1.524 . S
C3475 C3476 1.397 . S
C3475 C3480 1.363 . S
C3476 H3453 0.950 . S
C3476 C3475 1.397 . S
C3476 C3477 1.334 . S
C3477 H3454 0.950 . S
C3477 C3476 1.334 . S
C3477 C3478 1.287 . S
C3478 C3477 1.287 . S
C3478 C3479 1.524 . S
C3478 H3497 0.913 . S
C3479 H3455 0.950 . S
C3479 C3478 1.524 . S
C3479 C3480 1.415 . S
C3480 H3456 0.950 . S
C3480 C3475 1.363 . S
C3480 C3479 1.415 . S
C3481 H3457 0.951 . S
C3481 C3482 1.366 . S
C3481 C3483 1.388 . S
C3482 C3481 1.366 . S
C3482 C3486 1.385 . S
C3483 H3458 0.951 . S
C3483 C3481 1.388 . S
C3483 C3484 1.366 . S
C3484 C3483 1.366 . S
C3484 C3485 1.414 . S
C3484 C3487 1.499 . S
C3485 H3459 0.950 . S
C3485 C3484 1.414 . S
C3485 C3486 1.374 . S
C3486 H3460 0.950 . S
C3486 C3482 1.385 . S
C3486 C3485 1.374 . S
C3487 C3484 1.499 . S
C3487 C3488 1.347 1_556 S
C3487 C3489 1.389 . S
C3488 H3461 0.961 . S
C3488 C3474 1.393 . S
C3488 C3487 1.347 1_554 S
C3489 C3473 1.377 . S
C3489 C3487 1.389 . S
C3489 C3490 1.524 . S
C3490 C3489 1.524 . S
C3490 C3491 1.397 . S
C3490 C3495 1.363 . S
C3491 H3462 0.950 . S
C3491 C3490 1.397 . S
C3491 C3492 1.334 . S
C3492 H3463 0.950 . S
C3492 C3491 1.334 . S
C3492 C3493 1.287 . S
C3493 C3492 1.287 . S
C3493 C3494 1.524 . S
C3493 H3496 0.999 . S
C3494 H3464 0.950 . S
C3494 C3493 1.524 . S
C3494 C3495 1.415 . S
C3495 H3465 0.950 . S
C3495 C3490 1.363 . S
C3495 C3494 1.415 . S
H3496 C3493 0.999 . S
H3497 C3478 0.913 . S
H3498 C3516 0.951 . S
H3499 C3518 0.951 . S
H3500 C3520 0.950 . S
H3501 C3521 0.950 . S
H3502 C3523 0.950 . S
H3503 C3526 0.950 . S
H3504 C3527 0.950 . S
H3505 C3529 0.950 . S
H3506 C3530 0.950 . S
H3507 C3531 0.951 . S
H3508 C3533 0.951 . S
H3509 C3535 0.950 . S
H3510 C3536 0.950 . S
H3511 C3538 0.950 . S
H3512 C3541 0.950 . S
H3513 C3542 0.950 . S
H3514 C3544 0.950 . S
H3515 C3545 0.950 . S
C3516 H3498 0.951 . S
C3516 C3517 1.366 . S
C3516 C3518 1.388 . S
C3517 C3516 1.366 . S
C3517 C3521 1.385 . S
C3518 H3499 0.951 . S
C3518 C3516 1.388 . S
C3518 C3519 1.366 . S
C3519 C3518 1.366 . S
C3519 C3520 1.414 . S
C3519 C3522 1.499 . S
C3520 H3500 0.950 . S
C3520 C3519 1.414 . S
C3520 C3521 1.374 . S
C3521 H3501 0.950 . S
C3521 C3517 1.385 . S
C3521 C3520 1.374 . S
C3522 C3519 1.499 . S
C3522 C3523 1.373 . S
C3522 C3524 1.389 . S
C3523 H3502 0.950 . S
C3523 C3522 1.373 . S
C3523 C3539 1.377 . S
C3524 C3522 1.389 . S
C3524 C3525 1.524 . S
C3524 C3538 1.377 . S
C3525 C3524 1.524 . S
C3525 C3526 1.397 . S
C3525 C3530 1.363 . S
C3526 H3503 0.950 . S
C3526 C3525 1.397 . S
C3526 C3527 1.334 . S
C3527 H3504 0.950 . S
C3527 C3526 1.334 . S
C3527 C3528 1.287 . S
C3528 C3527 1.287 . S
C3528 C3529 1.524 . S
C3528 H3547 0.913 . S
C3529 H3505 0.950 . S
C3529 C3528 1.524 . S
C3529 C3530 1.415 . S
C3530 H3506 0.950 . S
C3530 C3525 1.363 . S
C3530 C3529 1.415 . S
C3531 H3507 0.951 . S
C3531 C3532 1.366 . S
C3531 C3533 1.388 . S
C3532 C3531 1.366 . S
C3532 C3536 1.385 . S
C3533 H3508 0.951 . S
C3533 C3531 1.388 . S
C3533 C3534 1.366 . S
C3534 C3533 1.366 . S
C3534 C3535 1.414 . S
C3534 C3537 1.499 . S
C3535 H3509 0.950 . S
C3535 C3534 1.414 . S
C3535 C3536 1.374 . S
C3536 H3510 0.950 . S
C3536 C3532 1.385 . S
C3536 C3535 1.374 . S
C3537 C3534 1.499 . S
C3537 C3538 1.373 . S
C3537 C3539 1.389 . S
C3538 H3511 0.950 . S
C3538 C3524 1.377 . S
C3538 C3537 1.373 . S
C3539 C3523 1.377 . S
C3539 C3537 1.389 . S
C3539 C3540 1.524 . S
C3540 C3539 1.524 . S
C3540 C3541 1.397 . S
C3540 C3545 1.363 . S
C3541 H3512 0.950 . S
C3541 C3540 1.397 . S
C3541 C3542 1.334 . S
C3542 H3513 0.950 . S
C3542 C3541 1.334 . S
C3542 C3543 1.287 . S
C3543 C3542 1.287 . S
C3543 C3544 1.524 . S
C3543 H3546 0.999 . S
C3544 H3514 0.950 . S
C3544 C3543 1.524 . S
C3544 C3545 1.415 . S
C3545 H3515 0.950 . S
C3545 C3540 1.363 . S
C3545 C3544 1.415 . S
H3546 C3543 0.999 . S
H3547 C3528 0.913 . S
H3548 C3566 0.951 . S
H3549 C3568 0.951 . S
H3550 C3570 0.950 . S
H3551 C3571 0.950 . S
H3552 C3573 0.950 . S
H3553 C3576 0.950 . S
H3554 C3577 0.950 . S
H3555 C3579 0.950 . S
H3556 C3580 0.950 . S
H3557 C3581 0.951 . S
H3558 C3583 0.951 . S
H3559 C3585 0.950 . S
H3560 C3586 0.950 . S
H3561 C3588 0.950 . S
H3562 C3591 0.950 . S
H3563 C3592 0.950 . S
H3564 C3594 0.950 . S
H3565 C3595 0.950 . S
C3566 H3548 0.951 . S
C3566 C3567 1.366 . S
C3566 C3568 1.388 . S
C3567 C3566 1.366 . S
C3567 C3571 1.385 . S
C3568 H3549 0.951 . S
C3568 C3566 1.388 . S
C3568 C3569 1.366 . S
C3569 C3568 1.366 . S
C3569 C3570 1.414 . S
C3569 C3572 1.499 . S
C3570 H3550 0.950 . S
C3570 C3569 1.414 . S
C3570 C3571 1.374 . S
C3571 H3551 0.950 . S
C3571 C3567 1.385 . S
C3571 C3570 1.374 . S
C3572 C3569 1.499 . S
C3572 C3573 1.373 . S
C3572 C3574 1.389 . S
C3573 H3552 0.950 . S
C3573 C3572 1.373 . S
C3573 C3589 1.377 . S
C3574 C3572 1.389 . S
C3574 C3575 1.524 . S
C3574 C3588 1.377 . S
C3575 C3574 1.524 . S
C3575 C3576 1.397 . S
C3575 C3580 1.363 . S
C3576 H3553 0.950 . S
C3576 C3575 1.397 . S
C3576 C3577 1.334 . S
C3577 H3554 0.950 . S
C3577 C3576 1.334 . S
C3577 C3578 1.287 . S
C3578 C3577 1.287 . S
C3578 C3579 1.524 . S
C3578 H3597 0.913 . S
C3579 H3555 0.950 . S
C3579 C3578 1.524 . S
C3579 C3580 1.415 . S
C3580 H3556 0.950 . S
C3580 C3575 1.363 . S
C3580 C3579 1.415 . S
C3581 H3557 0.951 . S
C3581 C3582 1.366 . S
C3581 C3583 1.388 . S
C3582 C3581 1.366 . S
C3582 C3586 1.385 . S
C3583 H3558 0.951 . S
C3583 C3581 1.388 . S
C3583 C3584 1.366 . S
C3584 C3583 1.366 . S
C3584 C3585 1.414 . S
C3584 C3587 1.499 . S
C3585 H3559 0.950 . S
C3585 C3584 1.414 . S
C3585 C3586 1.374 . S
C3586 H3560 0.950 . S
C3586 C3582 1.385 . S
C3586 C3585 1.374 . S
C3587 C3584 1.499 . S
C3587 C3588 1.373 . S
C3587 C3589 1.389 . S
C3588 H3561 0.950 . S
C3588 C3574 1.377 . S
C3588 C3587 1.373 . S
C3589 C3573 1.377 . S
C3589 C3587 1.389 . S
C3589 C3590 1.524 . S
C3590 C3589 1.524 . S
C3590 C3591 1.397 . S
C3590 C3595 1.363 . S
C3591 H3562 0.950 . S
C3591 C3590 1.397 . S
C3591 C3592 1.334 . S
C3592 H3563 0.950 . S
C3592 C3591 1.334 . S
C3592 C3593 1.287 . S
C3593 C3592 1.287 . S
C3593 C3594 1.524 . S
C3593 H3596 0.999 . S
C3594 H3564 0.950 . S
C3594 C3593 1.524 . S
C3594 C3595 1.415 . S
C3595 H3565 0.950 . S
C3595 C3590 1.363 . S
C3595 C3594 1.415 . S
H3596 C3593 0.999 . S
H3597 C3578 0.913 . S
H3598 C3616 0.951 . S
H3599 C3618 0.951 . S
H3600 C3620 0.950 . S
H3601 C3621 0.950 . S
H3602 C3623 0.950 . S
H3603 C3626 0.950 . S
H3604 C3627 0.950 . S
H3605 C3629 0.950 . S
H3606 C3630 0.950 . S
H3607 C3631 0.951 . S
H3608 C3633 0.951 . S
H3609 C3635 0.950 . S
H3610 C3636 0.950 . S
H3611 C3638 0.950 . S
H3612 C3641 0.950 . S
H3613 C3642 0.950 . S
H3614 C3644 0.950 . S
H3615 C3645 0.950 . S
C3616 H3598 0.951 . S
C3616 C3617 1.366 . S
C3616 C3618 1.388 . S
C3617 C3616 1.366 . S
C3617 C3621 1.385 . S
C3618 H3599 0.951 . S
C3618 C3616 1.388 . S
C3618 C3619 1.366 . S
C3619 C3618 1.366 . S
C3619 C3620 1.414 . S
C3619 C3622 1.499 . S
C3620 H3600 0.950 . S
C3620 C3619 1.414 . S
C3620 C3621 1.374 . S
C3621 H3601 0.950 . S
C3621 C3617 1.385 . S
C3621 C3620 1.374 . S
C3622 C3619 1.499 . S
C3622 C3623 1.373 . S
C3622 C3624 1.389 . S
C3623 H3602 0.950 . S
C3623 C3622 1.373 . S
C3623 C3639 1.377 . S
C3624 C3622 1.389 . S
C3624 C3625 1.524 . S
C3624 C3638 1.377 . S
C3625 C3624 1.524 . S
C3625 C3626 1.397 . S
C3625 C3630 1.363 . S
C3626 H3603 0.950 . S
C3626 C3625 1.397 . S
C3626 C3627 1.334 . S
C3627 H3604 0.950 . S
C3627 C3626 1.334 . S
C3627 C3628 1.287 . S
C3628 C3627 1.287 . S
C3628 C3629 1.524 . S
C3628 H3647 0.913 . S
C3629 H3605 0.950 . S
C3629 C3628 1.524 . S
C3629 C3630 1.415 . S
C3630 H3606 0.950 . S
C3630 C3625 1.363 . S
C3630 C3629 1.415 . S
C3631 H3607 0.951 . S
C3631 C3632 1.366 . S
C3631 C3633 1.388 . S
C3632 C3631 1.366 . S
C3632 C3636 1.385 . S
C3633 H3608 0.951 . S
C3633 C3631 1.388 . S
C3633 C3634 1.366 . S
C3634 C3633 1.366 . S
C3634 C3635 1.414 . S
C3634 C3637 1.499 . S
C3635 H3609 0.950 . S
C3635 C3634 1.414 . S
C3635 C3636 1.374 . S
C3636 H3610 0.950 . S
C3636 C3632 1.385 . S
C3636 C3635 1.374 . S
C3637 C3634 1.499 . S
C3637 C3638 1.373 . S
C3637 C3639 1.389 . S
C3638 H3611 0.950 . S
C3638 C3624 1.377 . S
C3638 C3637 1.373 . S
C3639 C3623 1.377 . S
C3639 C3637 1.389 . S
C3639 C3640 1.524 . S
C3640 C3639 1.524 . S
C3640 C3641 1.397 . S
C3640 C3645 1.363 . S
C3641 H3612 0.950 . S
C3641 C3640 1.397 . S
C3641 C3642 1.334 . S
C3642 H3613 0.950 . S
C3642 C3641 1.334 . S
C3642 C3643 1.287 . S
C3643 C3642 1.287 . S
C3643 C3644 1.524 . S
C3643 H3646 0.999 . S
C3644 H3614 0.950 . S
C3644 C3643 1.524 . S
C3644 C3645 1.415 . S
C3645 H3615 0.950 . S
C3645 C3640 1.363 . S
C3645 C3644 1.415 . S
H3646 C3643 0.999 . S
H3647 C3628 0.913 . S
C467 C9 1.078 . S
C482 C191 1.076 . S
C517 C359 1.076 . S
C532 C23 1.078 . S
C567 C37 1.078 . S
C582 C219 1.076 . S
C617 C51 1.077 . S
C632 C345 1.076 . S
C667 C65 1.077 . S
C682 C247 1.076 . S
C717 C79 1.077 . S
C732 C317 1.077 . S
C767 C93 1.077 . S
C782 C275 1.077 . S
C817 C443 1.076 . S
C832 C107 1.077 . S
C867 C303 1.077 . S
C882 C121 1.077 . S
C917 C135 1.078 . S
C932 C261 1.076 . S
C967 C331 1.077 . S
C982 C149 1.077 . S
C1017 C163 1.078 . S
C1032 C233 1.076 . S
C1067 C205 1.077 . S
C1082 C177 1.077 . S
C1117 C289 1.076 . S
C1132 C401 1.078 . S
C1167 C415 1.077 . S
C1182 C373 1.077 . S
C1217 C429 1.076 . S
C1232 C387 1.077 . S
C1267 C5 1.793 . S
C1282 C19 1.793 . S
C1317 C28 1.407 . S
C1332 C25 1.432 . S
C1367 C47 1.793 . S
C1382 C33 1.793 . S
C1417 C53 1.433 . S
C1432 C0 1.408 . S
C1467 C103 1.792 . S
C1482 C61 1.793 . S
C1517 C81 1.433 . S
C1532 C56 1.407 . S
C1567 C89 1.793 . S
C1582 C75 1.793 . S
C1617 C84 1.407 . S
C1632 C109 1.433 . S
C1667 C126 1.407 . S
C1682 C11 1.433 . S
C1717 C123 1.433 . S
C1732 C42 1.408 . S
C1767 C151 1.433 . S
C1782 C14 1.407 . S
C1817 C389 1.433 . S
C1832 C98 1.407 . S
C1867 C392 1.408 . S
C1882 C39 1.433 . S
C1917 C154 1.407 . S
C1932 C67 1.433 . S
C1967 C95 1.433 . S
C1982 C168 1.407 . S
C2017 C207 1.760 . S
C2032 C193 1.760 . S
C2067 C210 1.466 . S
C2082 C201 1.476 . S
C2117 C235 1.760 . S
C2132 C221 1.760 . S
C2167 C182 1.465 . S
C2182 C229 1.476 . S
C2217 C249 1.760 . S
C2232 C291 1.760 . S
C2267 C238 1.466 . S
C2282 C257 1.476 . S
C2317 C277 1.760 . S
C2332 C263 1.760 . S
C2367 C266 1.465 . S
C2382 C285 1.477 . S
C2417 C187 1.477 . S
C2432 C308 1.465 . S
C2467 C299 1.477 . S
C2482 C224 1.465 . S
C2517 C327 1.476 . S
C2532 C196 1.466 . S
C2567 C425 1.477 . S
C2582 C280 1.465 . S
C2617 C434 1.465 . S
C2632 C215 1.476 . S
C2667 C243 1.476 . S
C2682 C336 1.465 . S
C2717 C350 1.465 . S
C2732 C271 1.476 . S
C2767 C173 1.793 . S
C2782 C369 1.793 . S
C2817 C378 1.407 . S
C2832 C179 1.433 . S
C2867 C159 1.793 . S
C2882 C383 1.793 . S
C2917 C165 1.433 . S
C2932 C364 1.407 . S
C2967 C117 1.793 . S
C2982 C397 1.793 . S
C3017 C137 1.433 . S
C3032 C112 1.407 . S
C3067 C145 1.793 . S
C3082 C131 1.793 . S
C3117 C140 1.408 . S
C3132 C403 1.432 . S
C3167 C375 1.433 . S
C3182 C70 1.407 . S
C3217 C361 1.760 . S
C3232 C417 1.760 . S
C3267 C355 1.476 . S
C3282 C420 1.465 . S
C3317 C431 1.760 . S
C3332 C347 1.760 . S
C3367 C341 1.476 . S
C3382 C406 1.465 . S
C3417 C445 1.760 . S
C3432 C305 1.760 . S
C3467 C294 1.465 . S
C3482 C313 1.477 . S
C3517 C333 1.760 . S
C3532 C319 1.760 . S
C3567 C322 1.466 . S
C3582 C439 1.476 . S
C3617 C411 1.477 . S
C3632 C252 1.465 . S
