# Generated by pormake.
# Topology uof, (4)-cn, num edge types: 1
# Building blocks:
#     Node 0, Type 0, BuildingBlock: QUQFOY_clean_sbu_1, # of connection points: 4
#     Node 1, Type 0, BuildingBlock: QUQFOY_clean_sbu_1, # of connection points: 4
#     Node 2, Type 0, BuildingBlock: QUQFOY_clean_sbu_1, # of connection points: 4
#     Node 3, Type 0, BuildingBlock: QUQFOY_clean_sbu_1, # of connection points: 4
#     Node 4, Type 0, BuildingBlock: QUQFOY_clean_sbu_1, # of connection points: 4
#     Node 5, Type 0, BuildingBlock: QUQFOY_clean_sbu_1, # of connection points: 4
#     Node 6, Type 0, BuildingBlock: QUQFOY_clean_sbu_1, # of connection points: 4
#     Node 7, Type 0, BuildingBlock: QUQFOY_clean_sbu_1, # of connection points: 4
#     Node 8, Type 0, BuildingBlock: QUQFOY_clean_sbu_1, # of connection points: 4
#     Node 9, Type 0, BuildingBlock: QUQFOY_clean_sbu_1, # of connection points: 4
#     Node 10, Type 0, BuildingBlock: QUQFOY_clean_sbu_1, # of connection points: 4
#     Node 11, Type 0, BuildingBlock: QUQFOY_clean_sbu_1, # of connection points: 4
#     Edge 12, Type (0, 0), BuildingBlock: AJUNOK_clean_linker_0, # of connection points: 2
#     Edge 13, Type (0, 0), BuildingBlock: AJUNOK_clean_linker_0, # of connection points: 2
#     Edge 14, Type (0, 0), BuildingBlock: AJUNOK_clean_linker_0, # of connection points: 2
#     Edge 15, Type (0, 0), BuildingBlock: AJUNOK_clean_linker_0, # of connection points: 2
#     Edge 16, Type (0, 0), BuildingBlock: AJUNOK_clean_linker_0, # of connection points: 2
#     Edge 17, Type (0, 0), BuildingBlock: AJUNOK_clean_linker_0, # of connection points: 2
#     Edge 18, Type (0, 0), BuildingBlock: AJUNOK_clean_linker_0, # of connection points: 2
#     Edge 19, Type (0, 0), BuildingBlock: AJUNOK_clean_linker_0, # of connection points: 2
#     Edge 20, Type (0, 0), BuildingBlock: AJUNOK_clean_linker_0, # of connection points: 2
#     Edge 21, Type (0, 0), BuildingBlock: AJUNOK_clean_linker_0, # of connection points: 2
#     Edge 22, Type (0, 0), BuildingBlock: AJUNOK_clean_linker_0, # of connection points: 2
#     Edge 23, Type (0, 0), BuildingBlock: AJUNOK_clean_linker_0, # of connection points: 2
#     Edge 24, Type (0, 0), BuildingBlock: AJUNOK_clean_linker_0, # of connection points: 2
#     Edge 25, Type (0, 0), BuildingBlock: AJUNOK_clean_linker_0, # of connection points: 2
#     Edge 26, Type (0, 0), BuildingBlock: AJUNOK_clean_linker_0, # of connection points: 2
#     Edge 27, Type (0, 0), BuildingBlock: AJUNOK_clean_linker_0, # of connection points: 2
#     Edge 28, Type (0, 0), BuildingBlock: AJUNOK_clean_linker_0, # of connection points: 2
#     Edge 29, Type (0, 0), BuildingBlock: AJUNOK_clean_linker_0, # of connection points: 2
#     Edge 30, Type (0, 0), BuildingBlock: AJUNOK_clean_linker_0, # of connection points: 2
#     Edge 31, Type (0, 0), BuildingBlock: AJUNOK_clean_linker_0, # of connection points: 2
#     Edge 32, Type (0, 0), BuildingBlock: AJUNOK_clean_linker_0, # of connection points: 2
#     Edge 33, Type (0, 0), BuildingBlock: AJUNOK_clean_linker_0, # of connection points: 2
#     Edge 34, Type (0, 0), BuildingBlock: AJUNOK_clean_linker_0, # of connection points: 2
#     Edge 35, Type (0, 0), BuildingBlock: AJUNOK_clean_linker_0, # of connection points: 2
# Relax obj value: 0.141
# Max RMSD: 0.151
# Mean RMSD: 0.151
data_MOF--net-uof--node1-QUQFOY_clean_sbu_1--edge1-AJUNOK_clean_linker_0
_symmetry_space_group_name_H-M    P1
_symmetry_Int_Tables_number       1
_symmetry_cell_setting            triclinic
loop_
_symmetry_equiv_pos_as_xyz
'x, y, z'
_cell_length_a     23.85338
_cell_length_b     23.85173
_cell_length_c     55.054632
_cell_angle_alpha  89.979557
_cell_angle_beta   90.022658
_cell_angle_gamma 120.08406
loop_
_atom_site_label
_atom_site_type_symbol
_atom_site_fract_x
_atom_site_fract_y
_atom_site_fract_z
_atom_type_partial_charge
O0 O 0.34649 0.36957 0.23596 0.0
Cd1 Cd 0.25663 0.29235 0.24461 0.0
Cd2 Cd 0.23474 0.34666 0.20083 0.0
O3 O 0.32925 0.42185 0.20626 0.0
O4 O 0.2814 0.25663 0.27291 0.0
O5 O 0.21495 0.29492 0.27637 0.0
C6 C 0.24631 0.27026 0.28663 0.0
C7 C 0.1388 0.34687 0.19197 0.0
C8 C 0.36737 0.4169 0.22124 0.0
C9 C 0.2158 0.21339 0.1988 0.0
O10 O 0.22897 0.26459 0.18729 0.0
O11 O 0.21691 0.21307 0.22187 0.0
O12 O 0.1852 0.36674 0.17628 0.0
O13 O 0.15038 0.33453 0.2137 0.0
O14 O 0.99492 0.35187 0.56648 0.0
Cd15 Cd 0.97969 0.26312 0.57832 0.0
Cd16 Cd 0.89642 0.23261 0.53617 0.0
O17 O 0.91159 0.3256 0.54204 0.0
O18 O 0.04365 0.29165 0.60562 0.0
O19 O 0.93904 0.22804 0.61128 0.0
C20 C 0.9966 0.25926 0.62039 0.0
C21 C 0.80152 0.13753 0.52446 0.0
C22 C 0.96157 0.36826 0.55339 0.0
C23 C 0.01252 0.21622 0.53374 0.0
O24 O 0.97481 0.23015 0.52239 0.0
O25 O 0.01386 0.21683 0.55677 0.0
O26 O 0.83031 0.18652 0.51001 0.0
O27 O 0.82236 0.14555 0.5466 0.0
O28 O 0.63937 0.97725 0.90197 0.0
Cd29 Cd 0.71797 0.96739 0.91096 0.0
Cd30 Cd 0.6645 0.8911 0.86583 0.0
O31 O 0.58919 0.91 0.87139 0.0
O32 O 0.75406 0.03219 0.93797 0.0
O33 O 0.71849 0.92855 0.94376 0.0
C34 C 0.743 0.9861 0.95273 0.0
C35 C 0.66339 0.79528 0.85524 0.0
C36 C 0.59285 0.9515 0.88687 0.0
C37 C 0.79796 1.00618 0.86513 0.0
O38 O 0.74743 0.96843 0.8532 0.0
O39 O 0.79709 0.0068 0.88819 0.0
O40 O 0.6447 0.82411 0.84016 0.0
O41 O 0.67509 0.81666 0.87734 0.0
O42 O 0.66773 0.63598 0.23497 0.0
Cd43 Cd 0.75687 0.71514 0.24308 0.0
Cd44 Cd 0.7784 0.65858 0.19922 0.0
O45 O 0.68466 0.58297 0.20546 0.0
O46 O 0.73021 0.75266 0.27019 0.0
O47 O 0.79854 0.71731 0.2755 0.0
C48 C 0.76617 0.74222 0.28469 0.0
C49 C 0.87385 0.65871 0.18892 0.0
C50 C 0.64685 0.588 0.22055 0.0
C51 C 0.79514 0.79093 0.1964 0.0
O52 O 0.78199 0.73926 0.18529 0.0
O53 O 0.79515 0.79263 0.21947 0.0
O54 O 0.82571 0.63768 0.174 0.0
O55 O 0.86446 0.67201 0.21082 0.0
O56 O 0.0223 0.66329 0.56479 0.0
Cd57 Cd 0.0416 0.75349 0.57649 0.0
Cd58 Cd 0.12497 0.78073 0.53569 0.0
O59 O 0.10802 0.68724 0.54209 0.0
O60 O 0.98076 0.72896 0.60471 0.0
O61 O 0.0865 0.78891 0.60871 0.0
C62 C 0.02999 0.76006 0.61875 0.0
C63 C 0.22063 0.87567 0.52462 0.0
C64 C 0.05574 0.64549 0.5525 0.0
C65 C 0.01161 0.80078 0.53171 0.0
O66 O 0.04792 0.78402 0.52095 0.0
O67 O 0.01015 0.80193 0.55473 0.0
O68 O 0.19288 0.82669 0.51012 0.0
O69 O 0.19842 0.86757 0.54656 0.0
O70 O 0.37318 0.03142 0.90187 0.0
Cd71 Cd 0.29509 0.0425 0.91045 0.0
Cd72 Cd 0.35075 0.1209 0.86669 0.0
O73 O 0.42585 0.10173 0.87238 0.0
O74 O 0.25946 0.98151 0.93868 0.0
O75 O 0.29628 0.08607 0.94223 0.0
C76 C 0.27206 0.02995 0.95243 0.0
C77 C 0.35189 0.21686 0.85626 0.0
C78 C 0.42081 0.05848 0.8873 0.0
C79 C 0.21753 1.00531 0.86429 0.0
O80 O 0.26891 0.04429 0.8531 0.0
O81 O 0.21648 1.00268 0.88736 0.0
O82 O 0.37165 0.18881 0.84127 0.0
O83 O 0.33924 0.19475 0.87825 0.0
O84 O 0.64492 0.66585 0.44098 0.0
Cd85 Cd 0.72344 0.75412 0.43134 0.0
Cd86 Cd 0.67213 0.78134 0.47607 0.0
O87 O 0.59743 0.68599 0.47171 0.0
O88 O 0.75654 0.72682 0.40295 0.0
O89 O 0.72178 0.79618 0.39953 0.0
C90 C 0.74489 0.76342 0.38926 0.0
C91 C 0.66985 0.8751 0.48725 0.0
C92 C 0.59984 0.64654 0.45667 0.0
C93 C 0.80596 0.79922 0.47638 0.0
O94 O 0.75645 0.78973 0.48823 0.0
O95 O 0.80396 0.79313 0.45343 0.0
O96 O 0.65311 0.8278 0.5023 0.0
O97 O 0.67994 0.86553 0.46493 0.0
O98 O 0.97808 0.63525 0.77559 0.0
Cd99 Cd 0.96943 0.71395 0.76548 0.0
Cd100 Cd 0.8922 0.66446 0.81082 0.0
O101 O 0.91172 0.58913 0.8068 0.0
O102 O 0.03335 0.74712 0.73812 0.0
O103 O 0.93012 0.71384 0.73266 0.0
C104 C 0.98727 0.73685 0.72349 0.0
C105 C 0.79608 0.66323 0.82101 0.0
C106 C 0.95289 0.59086 0.79157 0.0
C107 C 1.00932 0.79736 0.81052 0.0
O108 O 0.96936 0.74847 0.82273 0.0
O109 O 0.01139 0.79455 0.78752 0.0
O110 O 0.82576 0.64666 0.83654 0.0
O111 O 0.81692 0.67296 0.79884 0.0
O112 O 0.34745 0.97966 0.10875 0.0
Cd113 Cd 0.25935 0.96999 0.09899 0.0
Cd114 Cd 0.23232 0.89039 0.14367 0.0
O115 O 0.32756 0.91129 0.13922 0.0
O116 O 0.28828 0.03389 0.07163 0.0
O117 O 0.21941 0.9302 0.06633 0.0
C118 C 0.25247 0.98747 0.0571 0.0
C119 C 0.13827 0.7935 0.15404 0.0
C120 C 0.36695 0.95377 0.12431 0.0
C121 C 0.21447 1.00609 0.14451 0.0
O122 O 0.22435 0.96619 0.15626 0.0
O123 O 0.21975 0.00994 0.12153 0.0
O124 O 0.185 0.82338 0.16939 0.0
O125 O 0.14852 0.81454 0.13189 0.0
O126 O 0.37882 0.3483 0.44202 0.0
Cd127 Cd 0.29853 0.26072 0.43288 0.0
Cd128 Cd 0.35211 0.23353 0.4773 0.0
O129 O 0.42762 0.32811 0.47229 0.0
O130 O 0.26345 0.29009 0.40576 0.0
O131 O 0.29578 0.21944 0.4003 0.0
C132 C 0.27234 0.25325 0.3912 0.0
C133 C 0.35306 0.13876 0.48801 0.0
C134 C 0.42487 0.36746 0.45728 0.0
C135 C 0.2194 0.21783 0.4789 0.0
O136 O 0.26958 0.22751 0.49031 0.0
O137 O 0.21984 0.22249 0.4559 0.0
O138 O 0.37155 0.18625 0.5031 0.0
O139 O 0.34175 0.14851 0.46587 0.0
O140 O 0.03572 0.37443 0.77706 0.0
Cd141 Cd 0.0473 0.29724 0.76748 0.0
Cd142 Cd 0.12344 0.34836 0.8121 0.0
O143 O 0.10341 0.4233 0.80766 0.0
O144 O 0.98763 0.26423 0.73884 0.0
O145 O 0.09228 0.30104 0.73575 0.0
C146 C 0.0366 0.27772 0.72527 0.0
C147 C 0.21962 0.34952 0.82202 0.0
C148 C 0.06113 0.4199 0.79259 0.0
C149 C 1.00789 0.21468 0.81244 0.0
O150 O 0.04683 0.26456 0.82441 0.0
O151 O 1.00569 0.21634 0.78941 0.0
O152 O 0.19068 0.36689 0.83758 0.0
O153 O 0.19813 0.33924 0.79993 0.0
O154 O 0.6658 0.03594 0.10884 0.0
Cd155 Cd 0.75336 0.04433 0.09925 0.0
Cd156 Cd 0.77983 0.11802 0.1455 0.0
O157 O 0.68512 0.09897 0.14105 0.0
O158 O 0.72425 0.98368 0.07088 0.0
O159 O 0.79601 0.08721 0.06734 0.0
C160 C 0.76196 0.03135 0.05715 0.0
C161 C 0.87379 0.21328 0.15755 0.0
C162 C 0.64624 0.05984 0.12516 0.0
C163 C 0.79436 1.00019 0.14382 0.0
O164 O 0.78618 0.0399 0.15648 0.0
O165 O 0.78957 0.99947 0.12085 0.0
O166 O 0.82618 0.18155 0.17236 0.0
O167 O 0.86465 0.19508 0.13505 0.0
C168 C 0.99262 0.28972 0.15054 0.0
C169 C 0.93988 0.2612 0.16674 0.0
C170 C 0.05697 0.3224 0.15895 0.0
C171 C 0.07158 0.32764 0.18397 0.0
H172 H 0.98445 0.2836 0.13112 0.0
H173 H 0.09544 0.33985 0.1456 0.0
S174 S 0.95148 0.27153 0.23412 0.0
N175 N 0.907 0.2484 0.2092 0.0
N176 N 0.02756 0.30895 0.22488 0.0
C177 C 0.01939 0.30426 0.20039 0.0
C178 C 0.95376 0.27134 0.19182 0.0
C179 C 0.72859 0.01767 0.53061 0.0
C180 C 0.75402 0.07165 0.51497 0.0
C181 C 0.69635 0.95398 0.52153 0.0
C182 C 0.68846 0.94128 0.49636 0.0
H183 H 0.73682 0.02446 0.55001 0.0
H184 H 0.68134 0.91461 0.53437 0.0
S185 S 0.73618 0.06489 0.44775 0.0
N186 N 0.76119 0.10752 0.47307 0.0
N187 N 0.70148 0.98821 0.45612 0.0
C188 C 0.7088 0.99457 0.48063 0.0
C189 C 0.74127 0.05953 0.48989 0.0
C190 C 0.71004 0.72281 0.86278 0.0
C191 C 0.68189 0.7473 0.84653 0.0
C192 C 0.74211 0.69059 0.85441 0.0
C193 C 0.74795 0.68177 0.8294 0.0
H194 H 0.71081 0.7319 0.88208 0.0
H195 H 0.7662 0.6764 0.86768 0.0
S196 S 0.67289 0.72617 0.77946 0.0
N197 N 0.65427 0.75213 0.80428 0.0
N198 N 0.71505 0.69246 0.78867 0.0
C199 C 0.71523 0.70095 0.81309 0.0
C200 C 0.6821 0.7334 0.82161 0.0
C201 C 0.99341 0.70726 0.19623 0.0
C202 C 0.94047 0.67788 0.18013 0.0
C203 C 0.05764 0.73981 0.1877 0.0
C204 C 0.07189 0.74496 0.16266 0.0
H205 H 0.98533 0.70855 0.21553 0.0
H206 H 0.09612 0.76481 0.20085 0.0
S207 S 0.95167 0.66708 0.11309 0.0
N208 N 0.90741 0.64866 0.13801 0.0
N209 N 0.02773 0.71039 0.1221 0.0
C210 C 0.01975 0.71117 0.14652 0.0
C211 C 0.95425 0.67752 0.15521 0.0
C212 C 0.32607 0.05925 0.52211 0.0
C213 C 0.33412 0.07237 0.49697 0.0
C214 C 0.29368 0.99541 0.53105 0.0
C215 C 0.26834 0.94169 0.51529 0.0
H216 H 0.34103 0.09843 0.53504 0.0
H217 H 0.2853 0.98829 0.55043 0.0
S218 S 0.28656 0.94959 0.44809 0.0
N219 N 0.32126 0.02613 0.45663 0.0
N220 N 0.26138 0.90653 0.47331 0.0
C221 C 0.28126 0.95423 0.49024 0.0
C222 C 0.3138 0.01935 0.48112 0.0
C223 C 0.3058 0.28984 0.86374 0.0
C224 C 0.33337 0.2648 0.84749 0.0
C225 C 0.27389 0.32225 0.85537 0.0
C226 C 0.26759 0.33066 0.83035 0.0
H227 H 0.30546 0.28115 0.88306 0.0
H228 H 0.2503 0.33694 0.86866 0.0
S229 S 0.34046 0.28408 0.78034 0.0
N230 N 0.35956 0.25856 0.80518 0.0
N231 N 0.29907 0.31855 0.78958 0.0
C232 C 0.29957 0.31072 0.81401 0.0
C233 C 0.33256 0.27811 0.82254 0.0
C234 C 0.54088 0.52073 0.19892 0.0
C235 C 0.57636 0.54091 0.22075 0.0
C236 C 0.47271 0.48314 0.19908 0.0
C237 C 0.43799 0.46351 0.22108 0.0
H238 H 0.56581 0.53553 0.18164 0.0
H239 H 0.44718 0.46805 0.18192 0.0
S240 S 0.50827 0.50295 0.28308 0.0
N241 N 0.57158 0.53874 0.26484 0.0
N242 N 0.44432 0.46671 0.26514 0.0
C243 C 0.47311 0.48291 0.24295 0.0
C244 C 0.54202 0.52196 0.24278 0.0
C245 C 0.07442 0.55094 0.55192 0.0
C246 C 0.03162 0.57504 0.55034 0.0
C247 C 0.05103 0.48392 0.55257 0.0
C248 C 0.98412 0.43846 0.55105 0.0
H249 H 0.12606 0.58399 0.55359 0.0
H250 H 0.08578 0.46757 0.55445 0.0
S251 S 0.85252 0.47705 0.54453 0.0
N252 N 0.9194 0.54847 0.546 0.0
N253 N 0.87593 0.42272 0.5465 0.0
C254 C 0.94113 0.46202 0.54834 0.0
C255 C 0.96477 0.53022 0.54821 0.0
C256 C 0.48886 0.02147 0.86524 0.0
C257 C 0.4677 0.03489 0.88722 0.0
C258 C 0.52673 0.99128 0.86508 0.0
C259 C 0.54566 0.97469 0.88691 0.0
H260 H 0.47473 0.03291 0.84806 0.0
H261 H 0.54268 0.98242 0.84782 0.0
S262 S 0.50352 1.00025 0.94921 0.0
N263 N 0.46824 0.02888 0.93127 0.0
N264 N 0.54062 0.97424 0.93099 0.0
C265 C 0.52517 0.9884 0.90893 0.0
C266 C 0.4859 0.01792 0.90908 0.0
C267 C 0.53244 0.54037 0.43595 0.0
C268 C 0.55257 0.57605 0.4577 0.0
C269 C 0.49251 0.47282 0.43609 0.0
C270 C 0.47271 0.4378 0.45799 0.0
H271 H 0.54746 0.56498 0.4186 0.0
H272 H 0.47706 0.4477 0.41885 0.0
S273 S 0.51316 0.50782 0.51999 0.0
N274 N 0.54993 0.57129 0.50181 0.0
N275 N 0.47612 0.44383 0.50208 0.0
C276 C 0.49313 0.47263 0.47992 0.0
C277 C 0.5326 0.54185 0.47977 0.0
C278 C 0.99229 0.52398 0.77109 0.0
C279 C 0.97648 0.54402 0.79279 0.0
C280 C 0.02109 0.48524 0.77134 0.0
C281 C 0.03714 0.46644 0.79329 0.0
H282 H 0.9822 0.53833 0.7537 0.0
H283 H 0.0311 0.47 0.75413 0.0
S284 S 1.007 0.50682 0.85518 0.0
N285 N 0.9791 0.54225 0.83691 0.0
N286 N 0.03479 0.47046 0.83736 0.0
C287 C 0.0223 0.4866 0.81517 0.0
C288 C 0.99143 0.52496 0.81492 0.0
C289 C 0.47393 0.99702 0.10376 0.0
C290 C 0.43757 0.97766 0.12538 0.0
C291 C 0.54149 0.02518 0.10403 0.0
C292 C 0.57588 0.03702 0.12597 0.0
H293 H 0.44987 0.99001 0.0864 0.0
H294 H 0.56711 0.03784 0.08685 0.0
S295 S 0.50405 0.99673 0.18769 0.0
N296 N 0.44109 0.97261 0.16942 0.0
N297 N 0.56858 0.02709 0.16994 0.0
C298 C 0.5404 0.01878 0.14778 0.0
C299 C 0.47116 0.98858 0.14748 0.0
C300 C 0.21476 0.11046 0.14648 0.0
C301 C 0.20355 0.05321 0.15801 0.0
C302 C 0.21542 0.16071 0.1597 0.0
C303 C 0.20487 0.15567 0.18498 0.0
H304 H 0.22629 0.11806 0.1273 0.0
H305 H 0.22712 0.2049 0.1501 0.0
S306 S 0.16142 0.01083 0.22295 0.0
N307 N 0.17293 0.99058 0.19551 0.0
N308 N 0.17438 0.08536 0.22045 0.0
C309 C 0.18876 0.09673 0.19642 0.0
C310 C 0.18806 0.04543 0.18291 0.0
C311 C 0.06307 0.21339 0.49449 0.0
C312 C 0.05968 0.20589 0.51991 0.0
C313 C 0.1131 0.21381 0.48117 0.0
C314 C 0.16174 0.20679 0.49276 0.0
H315 H 0.02838 0.22172 0.4848 0.0
H316 H 0.11509 0.22265 0.46181 0.0
S317 S 0.16913 0.17472 0.55839 0.0
N318 N 0.10496 0.18335 0.55578 0.0
N319 N 0.19898 0.1839 0.53071 0.0
C320 C 0.15639 0.19452 0.51792 0.0
C321 C 0.10536 0.1941 0.53151 0.0
C322 C 0.90438 0.10925 0.8136 0.0
C323 C 0.96019 0.15622 0.82567 0.0
C324 C 0.85351 0.05901 0.82643 0.0
C325 C 0.85648 0.05373 0.85182 0.0
H326 H 0.89836 0.11289 0.79427 0.0
H327 H 0.81044 0.02573 0.81638 0.0
S328 S 0.99711 0.15786 0.89131 0.0
N329 N 0.01933 0.18957 0.86393 0.0
N330 N 0.92344 0.09508 0.8881 0.0
C331 C 0.91407 0.09759 0.86385 0.0
C332 C 0.96598 0.14885 0.85076 0.0
C333 C 0.8077 0.9516 0.1819 0.0
C334 C 0.80428 0.95101 0.15636 0.0
C335 C 0.80793 0.90113 0.19464 0.0
C336 C 0.80474 0.84793 0.18237 0.0
H337 H 0.80786 0.99022 0.19231 0.0
H338 H 0.80803 0.90282 0.2143 0.0
S339 S 0.80478 0.82747 0.11544 0.0
N340 N 0.80464 0.89604 0.11913 0.0
N341 N 0.80542 0.80111 0.1431 0.0
C342 C 0.80572 0.84873 0.15678 0.0
C343 C 0.80543 0.90026 0.14377 0.0
C344 C 0.9094 0.79768 0.47875 0.0
C345 C 0.86444 0.81122 0.48981 0.0
C346 C 0.95914 0.79796 0.49224 0.0
C347 C 0.9658 0.81184 0.51729 0.0
H348 H 0.90431 0.78346 0.45983 0.0
H349 H 0.99063 0.78418 0.48311 0.0
S350 S 0.86797 0.86278 0.5537 0.0
N351 N 0.83506 0.84792 0.52639 0.0
N352 N 0.92862 0.84831 0.55182 0.0
C353 C 0.9243 0.83055 0.52812 0.0
C354 C 0.87357 0.83024 0.51436 0.0
C355 C 0.10861 0.90594 0.86224 0.0
C356 C 0.16022 0.95845 0.85025 0.0
C357 C 0.05835 0.85574 0.84919 0.0
C358 C 0.05763 0.85596 0.82361 0.0
H359 H 0.10821 0.90195 0.88185 0.0
H360 H 0.02116 0.81522 0.85933 0.0
S361 S 0.17599 0.98767 0.78363 0.0
N362 N 0.20357 0.01178 0.8114 0.0
N363 N 0.10907 0.91702 0.78684 0.0
C364 C 0.10652 0.91041 0.81142 0.0
C365 C 0.15782 0.96172 0.82474 0.0
C366 C 0.2825 0.22406 0.34834 0.0
C367 C 0.25916 0.25269 0.36477 0.0
C368 C 0.27619 0.22833 0.32318 0.0
C369 C 0.24585 0.26098 0.31335 0.0
H370 H 0.30765 0.19978 0.35489 0.0
H371 H 0.29659 0.20688 0.31134 0.0
S372 S 0.17152 0.33973 0.34856 0.0
N373 N 0.20081 0.31158 0.3694 0.0
N374 N 0.18888 0.31928 0.32217 0.0
C375 C 0.21987 0.28752 0.32958 0.0
C376 C 0.2266 0.28351 0.35524 0.0
C377 C 0.95581 0.23346 0.66321 0.0
C378 C 1.00836 0.26024 0.64697 0.0
C379 C 0.96564 0.23799 0.68842 0.0
C380 C 0.02843 0.26916 0.6985 0.0
H381 H 0.90653 0.21005 0.65646 0.0
H382 H 0.92339 0.21767 0.70008 0.0
S383 S 0.18273 0.34395 0.66392 0.0
N384 N 0.12586 0.31661 0.64284 0.0
N385 N 0.14406 0.32485 0.69015 0.0
C386 C 0.08147 0.29435 0.68249 0.0
C387 C 0.0715 0.29 0.65677 0.0
C388 C 0.72938 0.95826 0.0209 0.0
C389 C 0.76338 0.02151 0.03054 0.0
C390 C 0.72516 0.94708 0.99579 0.0
C391 C 0.75433 0.99871 0.97921 0.0
H392 H 0.70464 0.91676 0.03283 0.0
H393 H 0.69702 0.89764 0.98935 0.0
S394 S 0.8534 0.17335 0.99492 0.0
N395 N 0.83012 0.1363 0.02142 0.0
N396 N 0.82202 0.1155 0.97425 0.0
C397 C 0.79045 0.06213 0.98857 0.0
C398 C 0.79506 0.07347 0.01419 0.0
C399 C 0.79044 0.72641 0.32759 0.0
C400 C 0.76651 0.7545 0.31116 0.0
C401 C 0.78476 0.73122 0.35275 0.0
C402 C 0.75532 0.76472 0.36259 0.0
H403 H 0.81186 0.69858 0.321 0.0
H404 H 0.8025 0.70717 0.36456 0.0
S405 S 0.69016 0.85229 0.32742 0.0
N406 N 0.71607 0.82092 0.30656 0.0
N407 N 0.70572 0.8301 0.35381 0.0
C408 C 0.73371 0.79548 0.34639 0.0
C409 C 0.73917 0.7903 0.32072 0.0
C410 C 0.95792 0.72795 0.65535 0.0
C411 C 0.021 0.75973 0.64551 0.0
C412 C 0.94741 0.72251 0.68053 0.0
C413 C 0.99953 0.7483 0.69697 0.0
H414 H 0.91598 0.70591 0.64353 0.0
H415 H 0.89798 0.69634 0.6871 0.0
S416 S 0.1743 0.84049 0.68075 0.0
N417 N 0.13639 0.82058 0.65435 0.0
N418 N 0.11684 0.81033 0.70158 0.0
C419 C 0.06291 0.78204 0.68741 0.0
C420 C 0.07359 0.78778 0.66174 0.0
C421 C 0.22732 0.94732 0.01418 0.0
C422 C 0.25232 0.99946 0.0306 0.0
C423 C 0.23229 0.95778 0.989 0.0
C424 C 0.26207 0.02081 0.97914 0.0
H425 H 0.20545 0.89798 0.02078 0.0
H426 H 0.21374 0.91589 0.9772 0.0
S427 S 0.33023 0.17392 0.0143 0.0
N428 N 0.30432 0.11658 0.03517 0.0
N429 N 0.31336 0.13603 0.98792 0.0
C430 C 0.28487 0.07332 0.99534 0.0
C431 C 0.28013 0.0627 0.02102 0.0
loop_
_geom_bond_atom_site_label_1
_geom_bond_atom_site_label_2
_geom_bond_distance
_geom_bond_site_symmetry_2
_ccdc_geom_bond_type
O0 Cd1 2.223 . S
O0 C8 1.315 . S
Cd1 O0 2.223 . S
Cd1 O4 2.297 . S
Cd1 O5 2.439 . S
Cd1 O11 2.240 . S
Cd2 O3 2.240 . S
Cd2 O10 2.223 . S
Cd2 O12 2.297 . S
Cd2 O13 2.439 . S
O3 Cd2 2.240 . S
O3 C8 1.279 . S
O4 Cd1 2.297 . S
O4 C6 1.247 . S
O5 Cd1 2.439 . S
O5 C6 1.208 . S
C6 O4 1.247 . S
C6 O5 1.208 . S
C7 O12 1.247 . S
C7 O13 1.208 . S
C8 O0 1.315 . S
C8 O3 1.279 . S
C9 O10 1.315 . S
C9 O11 1.279 . S
O10 Cd2 2.223 . S
O10 C9 1.315 . S
O11 Cd1 2.240 . S
O11 C9 1.279 . S
O12 Cd2 2.297 . S
O12 C7 1.247 . S
O13 Cd2 2.439 . S
O13 C7 1.208 . S
O14 Cd15 2.223 . S
O14 C22 1.315 1_455 S
Cd15 O14 2.223 . S
Cd15 O18 2.297 . S
Cd15 O19 2.439 1_455 S
Cd15 O25 2.240 . S
Cd16 O17 2.240 . S
Cd16 O24 2.223 1_655 S
Cd16 O26 2.297 . S
Cd16 O27 2.439 . S
O17 Cd16 2.240 . S
O17 C22 1.279 . S
O18 Cd15 2.297 . S
O18 C20 1.247 1_455 S
O19 Cd15 2.439 1_655 S
O19 C20 1.208 . S
C20 O18 1.247 1_655 S
C20 O19 1.208 . S
C21 O26 1.247 . S
C21 O27 1.208 . S
C22 O14 1.315 1_655 S
C22 O17 1.279 . S
C23 O24 1.315 . S
C23 O25 1.279 . S
O24 Cd16 2.223 1_455 S
O24 C23 1.315 . S
O25 Cd15 2.240 . S
O25 C23 1.279 . S
O26 Cd16 2.297 . S
O26 C21 1.247 . S
O27 Cd16 2.439 . S
O27 C21 1.208 . S
O28 Cd29 2.223 . S
O28 C36 1.315 1_545 S
Cd29 O28 2.223 . S
Cd29 O32 2.297 . S
Cd29 O33 2.439 1_545 S
Cd29 O39 2.240 . S
Cd30 O31 2.240 . S
Cd30 O38 2.223 1_565 S
Cd30 O40 2.297 . S
Cd30 O41 2.439 . S
O31 Cd30 2.240 . S
O31 C36 1.279 . S
O32 Cd29 2.297 . S
O32 C34 1.247 1_545 S
O33 Cd29 2.439 1_565 S
O33 C34 1.208 . S
C34 O32 1.247 1_565 S
C34 O33 1.208 . S
C35 O40 1.247 . S
C35 O41 1.208 . S
C36 O28 1.315 1_565 S
C36 O31 1.279 . S
C37 O38 1.315 . S
C37 O39 1.279 . S
O38 Cd30 2.223 1_545 S
O38 C37 1.315 . S
O39 Cd29 2.240 . S
O39 C37 1.279 . S
O40 Cd30 2.297 . S
O40 C35 1.247 . S
O41 Cd30 2.439 . S
O41 C35 1.208 . S
O42 Cd43 2.223 . S
O42 C50 1.315 . S
Cd43 O42 2.223 . S
Cd43 O46 2.297 . S
Cd43 O47 2.439 . S
Cd43 O53 2.240 . S
Cd44 O45 2.240 . S
Cd44 O52 2.223 . S
Cd44 O54 2.297 . S
Cd44 O55 2.439 . S
O45 Cd44 2.240 . S
O45 C50 1.279 . S
O46 Cd43 2.297 . S
O46 C48 1.247 . S
O47 Cd43 2.439 . S
O47 C48 1.208 . S
C48 O46 1.247 . S
C48 O47 1.208 . S
C49 O54 1.247 . S
C49 O55 1.208 . S
C50 O42 1.315 . S
C50 O45 1.279 . S
C51 O52 1.315 . S
C51 O53 1.279 . S
O52 Cd44 2.223 . S
O52 C51 1.315 . S
O53 Cd43 2.240 . S
O53 C51 1.279 . S
O54 Cd44 2.297 . S
O54 C49 1.247 . S
O55 Cd44 2.439 . S
O55 C49 1.208 . S
O56 Cd57 2.223 . S
O56 C64 1.315 1_655 S
Cd57 O56 2.223 . S
Cd57 O60 2.297 . S
Cd57 O61 2.439 1_655 S
Cd57 O67 2.240 . S
Cd58 O59 2.240 . S
Cd58 O66 2.223 1_455 S
Cd58 O68 2.297 . S
Cd58 O69 2.439 . S
O59 Cd58 2.240 . S
O59 C64 1.279 . S
O60 Cd57 2.297 . S
O60 C62 1.247 1_655 S
O61 Cd57 2.439 1_455 S
O61 C62 1.208 . S
C62 O60 1.247 1_455 S
C62 O61 1.208 . S
C63 O68 1.247 . S
C63 O69 1.208 . S
C64 O56 1.315 1_455 S
C64 O59 1.279 . S
C65 O66 1.315 . S
C65 O67 1.279 . S
O66 Cd58 2.223 1_655 S
O66 C65 1.315 . S
O67 Cd57 2.240 . S
O67 C65 1.279 . S
O68 Cd58 2.297 . S
O68 C63 1.247 . S
O69 Cd58 2.439 . S
O69 C63 1.208 . S
O70 Cd71 2.223 . S
O70 C78 1.315 1_565 S
Cd71 O70 2.223 . S
Cd71 O74 2.297 . S
Cd71 O75 2.439 1_565 S
Cd71 O81 2.240 . S
Cd72 O73 2.240 . S
Cd72 O80 2.223 1_545 S
Cd72 O82 2.297 . S
Cd72 O83 2.439 . S
O73 Cd72 2.240 . S
O73 C78 1.279 . S
O74 Cd71 2.297 . S
O74 C76 1.247 1_565 S
O75 Cd71 2.439 1_545 S
O75 C76 1.208 . S
C76 O74 1.247 1_545 S
C76 O75 1.208 . S
C77 O82 1.247 . S
C77 O83 1.208 . S
C78 O70 1.315 1_545 S
C78 O73 1.279 . S
C79 O80 1.315 . S
C79 O81 1.279 . S
O80 Cd72 2.223 1_565 S
O80 C79 1.315 . S
O81 Cd71 2.240 . S
O81 C79 1.279 . S
O82 Cd72 2.297 . S
O82 C77 1.247 . S
O83 Cd72 2.439 . S
O83 C77 1.208 . S
O84 Cd85 2.223 . S
O84 C92 1.315 . S
Cd85 O84 2.223 . S
Cd85 O88 2.297 . S
Cd85 O89 2.439 . S
Cd85 O95 2.240 . S
Cd86 O87 2.240 . S
Cd86 O94 2.223 . S
Cd86 O96 2.297 . S
Cd86 O97 2.439 . S
O87 Cd86 2.240 . S
O87 C92 1.279 . S
O88 Cd85 2.297 . S
O88 C90 1.247 . S
O89 Cd85 2.439 . S
O89 C90 1.208 . S
C90 O88 1.247 . S
C90 O89 1.208 . S
C91 O96 1.247 . S
C91 O97 1.208 . S
C92 O84 1.315 . S
C92 O87 1.279 . S
C93 O94 1.315 . S
C93 O95 1.279 . S
O94 Cd86 2.223 . S
O94 C93 1.315 . S
O95 Cd85 2.240 . S
O95 C93 1.279 . S
O96 Cd86 2.297 . S
O96 C91 1.247 . S
O97 Cd86 2.439 . S
O97 C91 1.208 . S
O98 Cd99 2.223 . S
O98 C106 1.315 1_455 S
Cd99 O98 2.223 . S
Cd99 O102 2.297 . S
Cd99 O103 2.439 1_455 S
Cd99 O109 2.240 . S
Cd100 O101 2.240 . S
Cd100 O108 2.223 1_655 S
Cd100 O110 2.297 . S
Cd100 O111 2.439 . S
O101 Cd100 2.240 . S
O101 C106 1.279 . S
O102 Cd99 2.297 . S
O102 C104 1.247 1_455 S
O103 Cd99 2.439 1_655 S
O103 C104 1.208 . S
C104 O102 1.247 1_655 S
C104 O103 1.208 . S
C105 O110 1.247 . S
C105 O111 1.208 . S
C106 O98 1.315 1_655 S
C106 O101 1.279 . S
C107 O108 1.315 . S
C107 O109 1.279 . S
O108 Cd100 2.223 1_455 S
O108 C107 1.315 . S
O109 Cd99 2.240 . S
O109 C107 1.279 . S
O110 Cd100 2.297 . S
O110 C105 1.247 . S
O111 Cd100 2.439 . S
O111 C105 1.208 . S
O112 Cd113 2.223 . S
O112 C120 1.315 1_545 S
Cd113 O112 2.223 . S
Cd113 O116 2.297 . S
Cd113 O117 2.439 1_545 S
Cd113 O123 2.240 . S
Cd114 O115 2.240 . S
Cd114 O122 2.223 1_565 S
Cd114 O124 2.297 . S
Cd114 O125 2.439 . S
O115 Cd114 2.240 . S
O115 C120 1.279 . S
O116 Cd113 2.297 . S
O116 C118 1.247 1_545 S
O117 Cd113 2.439 1_565 S
O117 C118 1.208 . S
C118 O116 1.247 1_565 S
C118 O117 1.208 . S
C119 O124 1.247 . S
C119 O125 1.208 . S
C120 O112 1.315 1_565 S
C120 O115 1.279 . S
C121 O122 1.315 . S
C121 O123 1.279 . S
O122 Cd114 2.223 1_545 S
O122 C121 1.315 . S
O123 Cd113 2.240 . S
O123 C121 1.279 . S
O124 Cd114 2.297 . S
O124 C119 1.247 . S
O125 Cd114 2.439 . S
O125 C119 1.208 . S
O126 Cd127 2.223 . S
O126 C134 1.315 . S
Cd127 O126 2.223 . S
Cd127 O130 2.297 . S
Cd127 O131 2.439 . S
Cd127 O137 2.240 . S
Cd128 O129 2.240 . S
Cd128 O136 2.223 . S
Cd128 O138 2.297 . S
Cd128 O139 2.439 . S
O129 Cd128 2.240 . S
O129 C134 1.279 . S
O130 Cd127 2.297 . S
O130 C132 1.247 . S
O131 Cd127 2.439 . S
O131 C132 1.208 . S
C132 O130 1.247 . S
C132 O131 1.208 . S
C133 O138 1.247 . S
C133 O139 1.208 . S
C134 O126 1.315 . S
C134 O129 1.279 . S
C135 O136 1.315 . S
C135 O137 1.279 . S
O136 Cd128 2.223 . S
O136 C135 1.315 . S
O137 Cd127 2.240 . S
O137 C135 1.279 . S
O138 Cd128 2.297 . S
O138 C133 1.247 . S
O139 Cd128 2.439 . S
O139 C133 1.208 . S
O140 Cd141 2.223 . S
O140 C148 1.315 1_655 S
Cd141 O140 2.223 . S
Cd141 O144 2.297 . S
Cd141 O145 2.439 1_655 S
Cd141 O151 2.240 . S
Cd142 O143 2.240 . S
Cd142 O150 2.223 1_455 S
Cd142 O152 2.297 . S
Cd142 O153 2.439 . S
O143 Cd142 2.240 . S
O143 C148 1.279 . S
O144 Cd141 2.297 . S
O144 C146 1.247 1_655 S
O145 Cd141 2.439 1_455 S
O145 C146 1.208 . S
C146 O144 1.247 1_455 S
C146 O145 1.208 . S
C147 O152 1.247 . S
C147 O153 1.208 . S
C148 O140 1.315 1_455 S
C148 O143 1.279 . S
C149 O150 1.315 . S
C149 O151 1.279 . S
O150 Cd142 2.223 1_655 S
O150 C149 1.315 . S
O151 Cd141 2.240 . S
O151 C149 1.279 . S
O152 Cd142 2.297 . S
O152 C147 1.247 . S
O153 Cd142 2.439 . S
O153 C147 1.208 . S
O154 Cd155 2.223 . S
O154 C162 1.315 1_565 S
Cd155 O154 2.223 . S
Cd155 O158 2.297 . S
Cd155 O159 2.439 1_565 S
Cd155 O165 2.240 . S
Cd156 O157 2.240 . S
Cd156 O164 2.223 1_545 S
Cd156 O166 2.297 . S
Cd156 O167 2.439 . S
O157 Cd156 2.240 . S
O157 C162 1.279 . S
O158 Cd155 2.297 . S
O158 C160 1.247 1_565 S
O159 Cd155 2.439 1_545 S
O159 C160 1.208 . S
C160 O158 1.247 1_545 S
C160 O159 1.208 . S
C161 O166 1.247 . S
C161 O167 1.208 . S
C162 O154 1.315 1_545 S
C162 O157 1.279 . S
C163 O164 1.315 . S
C163 O165 1.279 . S
O164 Cd156 2.223 1_565 S
O164 C163 1.315 . S
O165 Cd155 2.240 . S
O165 C163 1.279 . S
O166 Cd156 2.297 . S
O166 C161 1.247 . S
O167 Cd156 2.439 . S
O167 C161 1.208 . S
C168 C169 1.369 1_455 S
C168 C170 1.419 . S
C168 H172 0.930 . S
C169 C168 1.369 1_655 S
C169 C178 1.429 . S
C170 C168 1.419 . S
C170 C171 1.363 . S
C170 H173 0.929 . S
C171 C170 1.363 . S
C171 C177 1.428 1_455 S
H172 C168 0.930 . S
H173 C170 0.929 . S
S174 N175 1.613 . S
S174 N176 1.610 . S
N175 S174 1.613 . S
N175 C178 1.350 . S
N176 S174 1.610 . S
N176 C177 1.351 . S
C177 C171 1.428 1_655 S
C177 N176 1.351 . S
C177 C178 1.434 . S
C178 C169 1.429 . S
C178 N175 1.350 . S
C178 C177 1.434 . S
C179 C180 1.368 . S
C179 C181 1.420 1_545 S
C179 H183 0.930 1_545 S
C180 C179 1.368 . S
C180 C189 1.429 . S
C181 C179 1.420 1_565 S
C181 C182 1.363 . S
C181 H184 0.929 . S
C182 C181 1.363 . S
C182 C188 1.428 1_565 S
H183 C179 0.930 1_565 S
H184 C181 0.929 . S
S185 N186 1.613 . S
S185 N187 1.610 . S
N186 S185 1.613 . S
N186 C189 1.350 . S
N187 S185 1.610 . S
N187 C188 1.351 . S
C188 C182 1.428 1_545 S
C188 N187 1.351 . S
C188 C189 1.434 . S
C189 C180 1.429 . S
C189 N186 1.350 . S
C189 C188 1.434 . S
C190 C191 1.369 . S
C190 C192 1.419 . S
C190 H194 0.930 . S
C191 C190 1.369 . S
C191 C200 1.429 . S
C192 C190 1.419 . S
C192 C193 1.363 . S
C192 H195 0.929 . S
C193 C192 1.363 . S
C193 C199 1.428 . S
H194 C190 0.930 . S
H195 C192 0.929 . S
S196 N197 1.613 . S
S196 N198 1.610 . S
N197 S196 1.613 . S
N197 C200 1.350 . S
N198 S196 1.610 . S
N198 C199 1.351 . S
C199 C193 1.428 . S
C199 N198 1.351 . S
C199 C200 1.434 . S
C200 C191 1.429 . S
C200 N197 1.350 . S
C200 C199 1.434 . S
C201 C202 1.361 1_455 S
C201 C203 1.427 . S
C201 H205 0.929 . S
C202 C201 1.361 1_655 S
C202 C211 1.429 . S
C203 C201 1.427 . S
C203 C204 1.363 . S
C203 H206 0.929 . S
C204 C203 1.363 . S
C204 C210 1.428 1_455 S
H205 C201 0.929 . S
H206 C203 0.929 . S
S207 N208 1.613 . S
S207 N209 1.610 . S
N208 S207 1.613 . S
N208 C211 1.350 . S
N209 S207 1.610 . S
N209 C210 1.351 . S
C210 C204 1.428 1_655 S
C210 N209 1.351 . S
C210 C211 1.434 . S
C211 C202 1.429 . S
C211 N208 1.350 . S
C211 C210 1.434 . S
C212 C213 1.369 . S
C212 C214 1.423 . S
C212 H216 0.930 . S
C213 C212 1.369 . S
C213 C222 1.429 1_545 S
C214 C212 1.423 . S
C214 C215 1.358 1_545 S
C214 H217 0.930 . S
C215 C214 1.358 1_565 S
C215 C221 1.428 . S
H216 C212 0.930 . S
H217 C214 0.930 . S
S218 N219 1.613 . S
S218 N220 1.610 . S
N219 S218 1.613 . S
N219 C222 1.350 . S
N220 S218 1.610 . S
N220 C221 1.351 . S
C221 C215 1.428 . S
C221 N220 1.351 . S
C221 C222 1.434 . S
C222 C213 1.429 1_565 S
C222 N219 1.350 . S
C222 C221 1.434 . S
C223 C224 1.369 . S
C223 C225 1.419 . S
C223 H227 0.930 . S
C224 C223 1.369 . S
C224 C233 1.429 . S
C225 C223 1.419 . S
C225 C226 1.363 . S
C225 H228 0.929 . S
C226 C225 1.363 . S
C226 C232 1.428 . S
H227 C223 0.930 . S
H228 C225 0.929 . S
S229 N230 1.613 . S
S229 N231 1.610 . S
N230 S229 1.613 . S
N230 C233 1.350 . S
N231 S229 1.610 . S
N231 C232 1.351 . S
C232 C226 1.428 . S
C232 N231 1.351 . S
C232 C233 1.434 . S
C233 C224 1.429 . S
C233 N230 1.350 . S
C233 C232 1.434 . S
C234 C235 1.369 . S
C234 C236 1.419 . S
C234 H238 0.930 . S
C235 C234 1.369 . S
C235 C244 1.429 . S
C236 C234 1.419 . S
C236 C237 1.363 . S
C236 H239 0.929 . S
C237 C236 1.363 . S
C237 C243 1.428 . S
H238 C234 0.930 . S
H239 C236 0.929 . S
S240 N241 1.613 . S
S240 N242 1.610 . S
N241 S240 1.613 . S
N241 C244 1.350 . S
N242 S240 1.610 . S
N242 C243 1.351 . S
C243 C237 1.428 . S
C243 N242 1.351 . S
C243 C244 1.434 . S
C244 C235 1.429 . S
C244 N241 1.350 . S
C244 C243 1.434 . S
C245 C246 1.369 . S
C245 C247 1.419 . S
C245 H249 0.930 . S
C246 C245 1.369 . S
C246 C255 1.429 1_455 S
C247 C245 1.419 . S
C247 C248 1.363 1_455 S
C247 H250 0.929 . S
C248 C247 1.363 1_655 S
C248 C254 1.428 . S
H249 C245 0.930 . S
H250 C247 0.929 . S
S251 N252 1.613 . S
S251 N253 1.610 . S
N252 S251 1.613 . S
N252 C255 1.350 . S
N253 S251 1.610 . S
N253 C254 1.351 . S
C254 C248 1.428 . S
C254 N253 1.351 . S
C254 C255 1.434 . S
C255 C246 1.429 1_655 S
C255 N252 1.350 . S
C255 C254 1.434 . S
C256 C257 1.369 . S
C256 C258 1.419 . S
C256 H260 0.930 . S
C257 C256 1.369 . S
C257 C266 1.429 1_545 S
C258 C256 1.419 . S
C258 C259 1.363 1_545 S
C258 H261 0.929 . S
C259 C258 1.363 1_565 S
C259 C265 1.428 . S
H260 C256 0.930 . S
H261 C258 0.929 . S
S262 N263 1.613 . S
S262 N264 1.610 . S
N263 S262 1.613 . S
N263 C266 1.350 . S
N264 S262 1.610 . S
N264 C265 1.351 . S
C265 C259 1.428 . S
C265 N264 1.351 . S
C265 C266 1.434 . S
C266 C257 1.429 1_565 S
C266 N263 1.350 . S
C266 C265 1.434 . S
C267 C268 1.369 . S
C267 C269 1.419 . S
C267 H271 0.930 . S
C268 C267 1.369 . S
C268 C277 1.429 . S
C269 C267 1.419 . S
C269 C270 1.363 . S
C269 H272 0.929 . S
C270 C269 1.363 . S
C270 C276 1.428 . S
H271 C267 0.930 . S
H272 C269 0.929 . S
S273 N274 1.613 . S
S273 N275 1.610 . S
N274 S273 1.613 . S
N274 C277 1.350 . S
N275 S273 1.610 . S
N275 C276 1.351 . S
C276 C270 1.428 . S
C276 N275 1.351 . S
C276 C277 1.434 . S
C277 C268 1.429 . S
C277 N274 1.350 . S
C277 C276 1.434 . S
C278 C279 1.369 1_455 S
C278 C280 1.419 . S
C278 H282 0.930 . S
C279 C278 1.369 1_655 S
C279 C288 1.429 . S
C280 C278 1.419 . S
C280 C281 1.363 . S
C280 H283 0.929 . S
C281 C280 1.363 . S
C281 C287 1.428 1_455 S
H282 C278 0.930 . S
H283 C280 0.929 . S
S284 N285 1.613 . S
S284 N286 1.610 . S
N285 S284 1.613 . S
N285 C288 1.350 . S
N286 S284 1.610 . S
N286 C287 1.351 . S
C287 C281 1.428 1_655 S
C287 N286 1.351 . S
C287 C288 1.434 . S
C288 C279 1.429 . S
C288 N285 1.350 . S
C288 C287 1.434 . S
C289 C290 1.369 1_545 S
C289 C291 1.419 . S
C289 H293 0.930 . S
C290 C289 1.369 1_565 S
C290 C299 1.429 . S
C291 C289 1.419 . S
C291 C292 1.363 . S
C291 H294 0.929 . S
C292 C291 1.363 . S
C292 C298 1.428 1_545 S
H293 C289 0.930 . S
H294 C291 0.929 . S
S295 N296 1.613 . S
S295 N297 1.610 . S
N296 S295 1.613 . S
N296 C299 1.350 . S
N297 S295 1.610 . S
N297 C298 1.351 . S
C298 C292 1.428 1_565 S
C298 N297 1.351 . S
C298 C299 1.434 . S
C299 C290 1.429 . S
C299 N296 1.350 . S
C299 C298 1.434 . S
C300 C301 1.369 . S
C300 C302 1.419 . S
C300 H304 0.930 . S
C301 C300 1.369 . S
C301 C310 1.429 . S
C302 C300 1.419 . S
C302 C303 1.363 . S
C302 H305 0.929 . S
C303 C302 1.363 . S
C303 C309 1.428 . S
H304 C300 0.930 . S
H305 C302 0.929 . S
S306 N307 1.613 . S
S306 N308 1.610 . S
N307 S306 1.613 . S
N307 C310 1.350 . S
N308 S306 1.610 . S
N308 C309 1.351 . S
C309 C303 1.428 . S
C309 N308 1.351 . S
C309 C310 1.434 . S
C310 C301 1.429 . S
C310 N307 1.350 . S
C310 C309 1.434 . S
C311 C312 1.369 . S
C311 C313 1.419 . S
C311 H315 0.930 . S
C312 C311 1.369 . S
C312 C321 1.429 . S
C313 C311 1.419 . S
C313 C314 1.363 . S
C313 H316 0.929 . S
C314 C313 1.363 . S
C314 C320 1.428 . S
H315 C311 0.930 . S
H316 C313 0.929 . S
S317 N318 1.613 . S
S317 N319 1.610 . S
N318 S317 1.613 . S
N318 C321 1.350 . S
N319 S317 1.610 . S
N319 C320 1.351 . S
C320 C314 1.428 . S
C320 N319 1.351 . S
C320 C321 1.434 . S
C321 C312 1.429 . S
C321 N318 1.350 . S
C321 C320 1.434 . S
C322 C323 1.369 . S
C322 C324 1.419 . S
C322 H326 0.930 . S
C323 C322 1.369 . S
C323 C332 1.429 . S
C324 C322 1.419 . S
C324 C325 1.363 . S
C324 H327 0.929 . S
C325 C324 1.363 . S
C325 C331 1.428 . S
H326 C322 0.930 . S
H327 C324 0.929 . S
S328 N329 1.613 . S
S328 N330 1.610 . S
N329 S328 1.613 . S
N329 C332 1.350 . S
N330 S328 1.610 . S
N330 C331 1.351 . S
C331 C325 1.428 . S
C331 N330 1.351 . S
C331 C332 1.434 . S
C332 C323 1.429 . S
C332 N329 1.350 . S
C332 C331 1.434 . S
C333 C334 1.369 . S
C333 C335 1.419 . S
C333 H337 0.930 . S
C334 C333 1.369 . S
C334 C343 1.429 . S
C335 C333 1.419 . S
C335 C336 1.363 . S
C335 H338 0.929 . S
C336 C335 1.363 . S
C336 C342 1.428 . S
H337 C333 0.930 . S
H338 C335 0.929 . S
S339 N340 1.613 . S
S339 N341 1.610 . S
N340 S339 1.613 . S
N340 C343 1.350 . S
N341 S339 1.610 . S
N341 C342 1.351 . S
C342 C336 1.428 . S
C342 N341 1.351 . S
C342 C343 1.434 . S
C343 C334 1.429 . S
C343 N340 1.350 . S
C343 C342 1.434 . S
C344 C345 1.369 . S
C344 C346 1.419 . S
C344 H348 0.930 . S
C345 C344 1.369 . S
C345 C354 1.429 . S
C346 C344 1.419 . S
C346 C347 1.363 . S
C346 H349 0.929 . S
C347 C346 1.363 . S
C347 C353 1.428 . S
H348 C344 0.930 . S
H349 C346 0.929 . S
S350 N351 1.613 . S
S350 N352 1.610 . S
N351 S350 1.613 . S
N351 C354 1.350 . S
N352 S350 1.610 . S
N352 C353 1.351 . S
C353 C347 1.428 . S
C353 N352 1.351 . S
C353 C354 1.434 . S
C354 C345 1.429 . S
C354 N351 1.350 . S
C354 C353 1.434 . S
C355 C356 1.369 . S
C355 C357 1.419 . S
C355 H359 0.930 . S
C356 C355 1.369 . S
C356 C365 1.429 . S
C357 C355 1.419 . S
C357 C358 1.363 . S
C357 H360 0.929 . S
C358 C357 1.363 . S
C358 C364 1.428 . S
H359 C355 0.930 . S
H360 C357 0.929 . S
S361 N362 1.613 . S
S361 N363 1.610 . S
N362 S361 1.613 . S
N362 C365 1.350 . S
N363 S361 1.610 . S
N363 C364 1.351 . S
C364 C358 1.428 . S
C364 N363 1.351 . S
C364 C365 1.434 . S
C365 C356 1.429 . S
C365 N362 1.350 . S
C365 C364 1.434 . S
C366 C367 1.369 . S
C366 C368 1.419 . S
C366 H370 0.930 . S
C367 C366 1.369 . S
C367 C376 1.429 . S
C368 C366 1.419 . S
C368 C369 1.363 . S
C368 H371 0.929 . S
C369 C368 1.363 . S
C369 C375 1.428 . S
H370 C366 0.930 . S
H371 C368 0.929 . S
S372 N373 1.613 . S
S372 N374 1.610 . S
N373 S372 1.613 . S
N373 C376 1.350 . S
N374 S372 1.610 . S
N374 C375 1.351 . S
C375 C369 1.428 . S
C375 N374 1.351 . S
C375 C376 1.434 . S
C376 C367 1.429 . S
C376 N373 1.350 . S
C376 C375 1.434 . S
C377 C378 1.369 . S
C377 C379 1.419 1_655 S
C377 H381 0.930 . S
C378 C377 1.369 . S
C378 C387 1.429 . S
C379 C377 1.419 1_455 S
C379 C380 1.363 . S
C379 H382 0.929 . S
C380 C379 1.363 . S
C380 C386 1.428 . S
H381 C377 0.930 . S
H382 C379 0.929 . S
S383 N384 1.613 1_455 S
S383 N385 1.610 . S
N384 S383 1.613 1_655 S
N384 C387 1.350 . S
N385 S383 1.610 . S
N385 C386 1.351 . S
C386 C380 1.428 . S
C386 N385 1.351 . S
C386 C387 1.434 1_455 S
C387 C378 1.429 . S
C387 N384 1.350 . S
C387 C386 1.434 1_655 S
C388 C389 1.369 1_565 S
C388 C390 1.419 1_554 S
C388 H392 0.930 . S
C389 C388 1.369 1_545 S
C389 C398 1.429 . S
C390 C388 1.419 1_556 S
C390 C391 1.363 . S
C390 H393 0.929 . S
C391 C390 1.363 . S
C391 C397 1.428 1_565 S
H392 C388 0.930 . S
H393 C390 0.929 . S
S394 N395 1.613 1_556 S
S394 N396 1.610 . S
N395 S394 1.613 1_554 S
N395 C398 1.350 . S
N396 S394 1.610 . S
N396 C397 1.351 . S
C397 C391 1.428 1_545 S
C397 N396 1.351 . S
C397 C398 1.434 1_556 S
C398 C389 1.429 . S
C398 N395 1.350 . S
C398 C397 1.434 1_554 S
C399 C400 1.369 . S
C399 C401 1.419 . S
C399 H403 0.930 . S
C400 C399 1.369 . S
C400 C409 1.429 . S
C401 C399 1.419 . S
C401 C402 1.363 . S
C401 H404 0.929 . S
C402 C401 1.363 . S
C402 C408 1.428 . S
H403 C399 0.930 . S
H404 C401 0.929 . S
S405 N406 1.613 . S
S405 N407 1.610 . S
N406 S405 1.613 . S
N406 C409 1.350 . S
N407 S405 1.610 . S
N407 C408 1.351 . S
C408 C402 1.428 . S
C408 N407 1.351 . S
C408 C409 1.434 . S
C409 C400 1.429 . S
C409 N406 1.350 . S
C409 C408 1.434 . S
C410 C411 1.367 . S
C410 C412 1.413 1_455 S
C410 H414 0.938 1_455 S
C411 C410 1.367 . S
C411 C420 1.429 . S
C412 C410 1.413 1_655 S
C412 C413 1.363 . S
C412 H415 0.929 . S
C413 C412 1.363 . S
C413 C419 1.430 1_655 S
H414 C410 0.938 1_655 S
H415 C412 0.929 . S
S416 N417 1.613 . S
S416 N418 1.610 . S
N417 S416 1.613 . S
N417 C420 1.350 . S
N418 S416 1.610 . S
N418 C419 1.345 . S
C419 C413 1.430 1_455 S
C419 N418 1.345 . S
C419 C420 1.440 . S
C420 C411 1.429 . S
C420 N417 1.350 . S
C420 C419 1.440 . S
C421 C422 1.369 . S
C421 C423 1.419 1_554 S
C421 H425 0.930 . S
C422 C421 1.369 . S
C422 C431 1.429 1_565 S
C423 C421 1.419 1_556 S
C423 C424 1.363 1_565 S
C423 H426 0.929 . S
C424 C423 1.363 1_545 S
C424 C430 1.428 . S
H425 C421 0.930 . S
H426 C423 0.929 . S
S427 N428 1.613 . S
S427 N429 1.610 1_554 S
N428 S427 1.613 . S
N428 C431 1.350 . S
N429 S427 1.610 1_556 S
N429 C430 1.351 . S
C430 C424 1.428 . S
C430 N429 1.351 . S
C430 C431 1.434 1_556 S
C431 C422 1.429 1_545 S
C431 N428 1.350 . S
C431 C430 1.434 1_554 S
C169 C161 1.518 . S
C171 C7 1.525 . S
C180 C21 1.518 . S
C182 C91 1.525 . S
C191 C35 1.521 . S
C193 C105 1.523 . S
C202 C49 1.519 . S
C204 C119 1.525 . S
C213 C133 1.526 . S
C215 C63 1.519 . S
C224 C77 1.518 . S
C226 C147 1.525 . S
C235 C50 1.224 . S
C237 C8 1.224 . S
C246 C64 1.223 . S
C248 C22 1.226 . S
C257 C78 1.223 . S
C259 C36 1.224 . S
C268 C92 1.230 . S
C270 C134 1.231 . S
C279 C106 1.232 . S
C281 C148 1.230 . S
C290 C120 1.232 . S
C292 C162 1.230 . S
C301 C121 1.225 . S
C303 C9 1.226 . S
C312 C23 1.231 . S
C314 C135 1.232 . S
C323 C149 1.230 . S
C325 C37 1.229 . S
C334 C163 1.233 . S
C336 C51 1.232 . S
C345 C93 1.227 . S
C347 C65 1.227 . S
C356 C79 1.234 . S
C358 C107 1.232 . S
C367 C132 1.585 . S
C369 C6 1.590 . S
C378 C20 1.585 . S
C380 C146 1.590 . S
C389 C160 1.593 . S
C391 C34 1.584 . S
C400 C48 1.588 . S
C402 C90 1.588 . S
C411 C62 1.591 . S
C413 C104 1.586 . S
C422 C118 1.585 . S
C424 C76 1.591 . S
