# Generated by pormake.
# Topology una, (4)-cn, num edge types: 1
# Building blocks:
#     Node 0, Type 0, BuildingBlock: TATPOV_clean_sbu_0, # of connection points: 4
#     Node 1, Type 0, BuildingBlock: TATPOV_clean_sbu_0, # of connection points: 4
#     Node 2, Type 0, BuildingBlock: TATPOV_clean_sbu_0, # of connection points: 4
#     Node 3, Type 0, BuildingBlock: TATPOV_clean_sbu_0, # of connection points: 4
#     Node 4, Type 0, BuildingBlock: TATPOV_clean_sbu_0, # of connection points: 4
#     Node 5, Type 0, BuildingBlock: TATPOV_clean_sbu_0, # of connection points: 4
#     Node 6, Type 0, BuildingBlock: TATPOV_clean_sbu_0, # of connection points: 4
#     Node 7, Type 0, BuildingBlock: TATPOV_clean_sbu_0, # of connection points: 4
#     Node 8, Type 0, BuildingBlock: TATPOV_clean_sbu_0, # of connection points: 4
#     Node 9, Type 0, BuildingBlock: TATPOV_clean_sbu_0, # of connection points: 4
#     Node 10, Type 0, BuildingBlock: TATPOV_clean_sbu_0, # of connection points: 4
#     Node 11, Type 0, BuildingBlock: TATPOV_clean_sbu_0, # of connection points: 4
#     Edge 12, Type (0, 0), BuildingBlock: EZIPEK_clean_linker_0, # of connection points: 2
#     Edge 13, Type (0, 0), BuildingBlock: EZIPEK_clean_linker_0, # of connection points: 2
#     Edge 14, Type (0, 0), BuildingBlock: EZIPEK_clean_linker_0, # of connection points: 2
#     Edge 15, Type (0, 0), BuildingBlock: EZIPEK_clean_linker_0, # of connection points: 2
#     Edge 16, Type (0, 0), BuildingBlock: EZIPEK_clean_linker_0, # of connection points: 2
#     Edge 17, Type (0, 0), BuildingBlock: EZIPEK_clean_linker_0, # of connection points: 2
#     Edge 18, Type (0, 0), BuildingBlock: EZIPEK_clean_linker_0, # of connection points: 2
#     Edge 19, Type (0, 0), BuildingBlock: EZIPEK_clean_linker_0, # of connection points: 2
#     Edge 20, Type (0, 0), BuildingBlock: EZIPEK_clean_linker_0, # of connection points: 2
#     Edge 21, Type (0, 0), BuildingBlock: EZIPEK_clean_linker_0, # of connection points: 2
#     Edge 22, Type (0, 0), BuildingBlock: EZIPEK_clean_linker_0, # of connection points: 2
#     Edge 23, Type (0, 0), BuildingBlock: EZIPEK_clean_linker_0, # of connection points: 2
#     Edge 24, Type (0, 0), BuildingBlock: EZIPEK_clean_linker_0, # of connection points: 2
#     Edge 25, Type (0, 0), BuildingBlock: EZIPEK_clean_linker_0, # of connection points: 2
#     Edge 26, Type (0, 0), BuildingBlock: EZIPEK_clean_linker_0, # of connection points: 2
#     Edge 27, Type (0, 0), BuildingBlock: EZIPEK_clean_linker_0, # of connection points: 2
#     Edge 28, Type (0, 0), BuildingBlock: EZIPEK_clean_linker_0, # of connection points: 2
#     Edge 29, Type (0, 0), BuildingBlock: EZIPEK_clean_linker_0, # of connection points: 2
#     Edge 30, Type (0, 0), BuildingBlock: EZIPEK_clean_linker_0, # of connection points: 2
#     Edge 31, Type (0, 0), BuildingBlock: EZIPEK_clean_linker_0, # of connection points: 2
#     Edge 32, Type (0, 0), BuildingBlock: EZIPEK_clean_linker_0, # of connection points: 2
#     Edge 33, Type (0, 0), BuildingBlock: EZIPEK_clean_linker_0, # of connection points: 2
#     Edge 34, Type (0, 0), BuildingBlock: EZIPEK_clean_linker_0, # of connection points: 2
#     Edge 35, Type (0, 0), BuildingBlock: EZIPEK_clean_linker_0, # of connection points: 2
# Relax obj value: 0.135
# Max RMSD: 0.158
# Mean RMSD: 0.158
data_MOF--net-una--node1-TATPOV_clean_sbu_0--edge1-EZIPEK_clean_linker_0
_symmetry_space_group_name_H-M    P1
_symmetry_Int_Tables_number       1
_symmetry_cell_setting            triclinic
loop_
_symmetry_equiv_pos_as_xyz
'x, y, z'
_cell_length_a     43.032972
_cell_length_b     42.935026
_cell_length_c     14.947953
_cell_angle_alpha  89.652345
_cell_angle_beta   90.001368
_cell_angle_gamma 119.79146
loop_
_atom_site_label
_atom_site_type_symbol
_atom_site_fract_x
_atom_site_fract_y
_atom_site_fract_z
_atom_type_partial_charge
Zn0 Zn 0.18094 0.47788 0.12983 0.0
Zn1 Zn 0.12149 0.42676 0.05662 0.0
O2 O 0.15598 0.44196 0.95146 0.0
O3 O 0.20687 0.4811 0.0145 0.0
O4 O 0.07493 0.38946 0.00416 0.0
O5 O 0.15961 0.50969 0.1472 0.0
O6 O 0.10957 0.46625 0.091 0.0
C7 C 0.18968 0.46301 0.94713 0.0
C8 C 0.1588 0.40987 0.20952 0.0
O9 O 0.135 0.39925 0.14874 0.0
O10 O 0.17962 0.44306 0.22181 0.0
C11 C 0.07049 0.36123 0.96583 0.0
O12 O 0.09682 0.35408 0.96292 0.0
C13 C 0.12763 0.49785 0.12228 0.0
Zn14 Zn 0.72009 0.20246 0.24707 0.0
Zn15 Zn 0.69987 0.13711 0.18806 0.0
O16 O 0.71878 0.1669 0.07382 0.0
O17 O 0.73906 0.22182 0.12436 0.0
O18 O 0.68241 0.08667 0.14633 0.0
O19 O 0.67031 0.18961 0.28125 0.0
O20 O 0.65339 0.13467 0.23603 0.0
C21 C 0.73505 0.20071 0.06108 0.0
C22 C 0.76092 0.17383 0.32393 0.0
O23 O 0.74255 0.14783 0.27134 0.0
O24 O 0.75428 0.19927 0.33164 0.0
C25 C 0.70305 0.07765 0.10791 0.0
O26 O 0.73713 0.10131 0.09729 0.0
C27 C 0.64597 0.15757 0.26885 0.0
Zn28 Zn 0.52593 0.70677 0.45661 0.0
Zn29 Zn 0.57451 0.69541 0.37784 0.0
O30 O 0.56032 0.71722 0.27524 0.0
O31 O 0.52266 0.73037 0.34268 0.0
O32 O 0.60884 0.68172 0.32362 0.0
O33 O 0.49234 0.65462 0.47865 0.0
O34 O 0.53349 0.64536 0.4169 0.0
C35 C 0.54015 0.73111 0.27383 0.0
C36 C 0.59513 0.74925 0.53127 0.0
O37 O 0.60445 0.73553 0.46869 0.0
O38 O 0.56237 0.73856 0.54573 0.0
C39 C 0.63069 0.69836 0.26036 0.0
O40 O 0.63359 0.72824 0.22824 0.0
C41 C 0.50273 0.63334 0.45273 0.0
Zn42 Zn 0.82884 0.52182 0.62385 0.0
Zn43 Zn 0.88511 0.57487 0.54624 0.0
O44 O 0.84944 0.55841 0.44377 0.0
O45 O 0.80059 0.51738 0.51238 0.0
O46 O 0.93095 0.61357 0.49168 0.0
O47 O 0.85194 0.49174 0.6391 0.0
O48 O 0.90005 0.53723 0.57993 0.0
C49 C 0.81598 0.53603 0.44352 0.0
C50 C 0.84687 0.58794 0.70335 0.0
O51 O 0.86958 0.60015 0.6395 0.0
O52 O 0.82883 0.55452 0.7181 0.0
C53 C 0.93436 0.63986 0.44478 0.0
O54 O 0.90686 0.64478 0.43294 0.0
C55 C 0.88395 0.5055 0.61228 0.0
Zn56 Zn 0.29756 0.81832 0.73714 0.0
Zn57 Zn 0.30846 0.87972 0.66731 0.0
O58 O 0.29011 0.84677 0.55933 0.0
O59 O 0.27588 0.7944 0.62034 0.0
O60 O 0.32021 0.92822 0.61831 0.0
O61 O 0.34965 0.8375 0.76085 0.0
O62 O 0.35839 0.88961 0.71074 0.0
C63 C 0.27631 0.81287 0.55357 0.0
C64 C 0.25205 0.84091 0.81491 0.0
O65 O 0.26618 0.8656 0.75565 0.0
O66 O 0.26364 0.8193 0.82701 0.0
C67 C 0.30294 0.93379 0.55722 0.0
O68 O 0.27377 0.90682 0.52409 0.0
C69 C 0.37059 0.87018 0.74236 0.0
Zn70 Zn 0.45286 0.272 0.06786 0.0
Zn71 Zn 0.41817 0.29267 0.9471 0.0
O72 O 0.42934 0.25354 0.89789 0.0
O73 O 0.46508 0.24435 -0.01229 0.0
O74 O 0.38463 0.29656 0.85953 0.0
O75 O 0.48676 0.32803 0.05835 0.0
O76 O 0.46325 0.33975 0.94053 0.0
C77 C 0.44816 0.23855 0.91497 0.0
C78 C 0.38828 0.25931 0.11272 0.0
O79 O 0.3975 0.28887 0.07409 0.0
O80 O 0.39776 0.23974 0.07355 0.0
C81 C 0.37374 0.31856 0.87591 0.0
O82 O 0.38292 0.33654 0.95117 0.0
C83 C 0.48823 0.34961 -0.0026 0.0
Zn84 Zn 0.52325 0.82006 0.78421 0.0
Zn85 Zn 0.57186 0.88124 0.85714 0.0
O86 O 0.55798 0.84645 0.96274 0.0
O87 O 0.52074 0.79467 0.90005 0.0
O88 O 0.60664 0.92927 0.90884 0.0
O89 O 0.48951 0.83866 0.76134 0.0
O90 O 0.53115 0.89038 0.81492 0.0
C91 C 0.53836 0.81244 0.96729 0.0
C92 C 0.59263 0.84657 0.70738 0.0
O93 O 0.60188 0.87044 0.76753 0.0
O94 O 0.55991 0.82397 0.69518 0.0
C95 C 0.63092 0.93438 0.96476 0.0
O96 O 0.63545 0.90753 -0.01024 0.0
C97 C 0.50006 0.87088 0.78203 0.0
Zn98 Zn 0.70101 0.50634 0.96497 0.0
Zn99 Zn 0.6858 0.55328 0.03661 0.0
O100 O 0.70993 0.54366 0.14184 0.0
O101 O 0.72749 0.50869 0.07823 0.0
O102 O 0.67184 0.58843 0.08401 0.0
O103 O 0.64924 0.46897 0.95296 0.0
O104 O 0.63654 0.50909 0.00609 0.0
C105 C 0.72684 0.52634 0.14505 0.0
C106 C 0.73917 0.57383 0.87958 0.0
O107 O 0.72454 0.58253 0.9412 0.0
O108 O 0.73022 0.54125 0.86816 0.0
C109 C 0.69442 0.61893 0.11485 0.0
O110 O 0.72864 0.62892 0.11538 0.0
C111 C 0.62639 0.47753 0.97756 0.0
Zn112 Zn 0.17716 0.69984 0.07801 0.0
Zn113 Zn 0.1202 0.69334 0.16303 0.0
O114 O 0.1584 0.71702 0.25824 0.0
O115 O 0.20695 0.72647 0.18505 0.0
O116 O 0.07465 0.68473 0.22261 0.0
O117 O 0.15662 0.6467 0.06982 0.0
O118 O 0.10869 0.64127 0.1375 0.0
C119 C 0.19216 0.72979 0.25475 0.0
C120 C 0.15127 0.74228 -0.00263 0.0
O121 O 0.12987 0.73103 0.06391 0.0
O122 O 0.17183 0.72969 0.98249 0.0
C123 C 0.07131 0.70754 0.26927 0.0
O124 O 0.09856 0.74015 0.27853 0.0
C125 C 0.12592 0.62716 0.1035 0.0
Zn126 Zn 0.49988 0.20758 0.447 0.0
Zn127 Zn 0.44515 0.14368 0.41851 0.0
O128 O 0.44452 0.15198 0.55276 0.0
O129 O 0.49455 0.20214 0.57814 0.0
O130 O 0.40563 0.09211 0.41243 0.0
O131 O 0.53362 0.19601 0.38097 0.0
O132 O 0.48874 0.1405 0.37275 0.0
C133 C 0.46551 0.17608 0.60644 0.0
C134 C 0.443 0.20967 0.35111 0.0
O135 O 0.42993 0.17566 0.34717 0.0
O136 O 0.47186 0.2286 0.39288 0.0
C137 C 0.3744 0.08182 0.44275 0.0
O138 O 0.36538 0.10577 0.46549 0.0
C139 C 0.52162 0.1635 0.36042 0.0
Zn140 Zn 0.29925 0.48132 0.46068 0.0
Zn141 Zn 0.31035 0.43256 0.54496 0.0
O142 O 0.2869 0.44734 0.64085 0.0
O143 O 0.27471 0.4855 0.57134 0.0
O144 O 0.32319 0.39986 0.61212 0.0
O145 O 0.35179 0.5142 0.44172 0.0
O146 O 0.36056 0.47306 0.50688 0.0
C147 C 0.27318 0.46765 0.64054 0.0
C148 C 0.25826 0.41039 0.38829 0.0
O149 O 0.27192 0.40137 0.45201 0.0
O150 O 0.2682 0.44311 0.3737 0.0
C151 C 0.30249 0.36731 0.63423 0.0
O152 O 0.26884 0.35084 0.60892 0.0
C153 C 0.3728 0.50375 0.46984 0.0
Zn154 Zn 0.8362 0.30683 0.57496 0.0
Zn155 Zn 0.89137 0.31174 0.66597 0.0
O156 O 0.85127 0.28836 0.7575 0.0
O157 O 0.80415 0.28026 0.67998 0.0
O158 O 0.93509 0.31885 0.73138 0.0
O159 O 0.85825 0.36015 0.56614 0.0
O160 O 0.90498 0.36425 0.63708 0.0
C161 C 0.81772 0.27644 0.75147 0.0
C162 C 0.86314 0.26417 0.50032 0.0
O163 O 0.88324 0.27456 0.56888 0.0
O164 O 0.84316 0.27724 0.48262 0.0
C165 C 0.9363 0.29561 0.78197 0.0
O166 O 0.90793 0.26368 0.79172 0.0
C167 C 0.88876 0.37906 0.60078 0.0
C168 C 0.16609 0.37965 0.34382 0.0
C169 C 0.16946 0.38517 0.25038 0.0
C170 C 0.22473 0.38237 0.25026 0.0
C171 C 0.22475 0.38397 0.34441 0.0
N172 N 0.18938 0.36647 0.47841 0.0
N173 N 0.19197 0.3756 0.11246 0.0
C174 C 0.19279 0.37574 0.39018 0.0
C175 C 0.19512 0.3802 0.20279 0.0
N176 N 0.13894 0.38082 0.38783 0.0
N177 N 0.25435 0.38603 0.20742 0.0
H178 H 0.20906 0.37059 0.07358 0.0
H179 H 0.1698 0.37336 0.07843 0.0
H180 H 0.27565 0.38694 0.24317 0.0
H181 H 0.25806 0.38892 0.13842 0.0
H182 H 0.13688 0.38072 0.45725 0.0
H183 H 0.11889 0.38277 0.35313 0.0
H184 H 0.16619 0.35885 0.51556 0.0
H185 H 0.20896 0.36314 0.5112 0.0
C186 C 0.85583 0.23124 0.36068 0.0
C187 C 0.85447 0.23039 0.45489 0.0
C188 C 0.79742 0.17451 0.4533 0.0
C189 C 0.79524 0.17993 0.36091 0.0
N190 N 0.82635 0.20246 0.22167 0.0
N191 N 0.83471 0.1933 0.5865 0.0
C192 C 0.82641 0.20415 0.31271 0.0
C193 C 0.82918 0.19865 0.49939 0.0
N194 N 0.88363 0.25981 0.31887 0.0
N195 N 0.76822 0.14828 0.49698 0.0
H196 H 0.85829 0.21113 0.61942 0.0
H197 H 0.81789 0.17006 0.62245 0.0
H198 H 0.74526 0.13017 0.46224 0.0
H199 H 0.76654 0.14511 0.56624 0.0
H200 H 0.88511 0.26438 0.25015 0.0
H201 H 0.90516 0.27932 0.35542 0.0
H202 H 0.84846 0.2186 0.18167 0.0
H203 H 0.80447 0.18246 0.18736 0.0
C204 C 0.6272 0.81486 0.52571 0.0
C205 C 0.621 0.78359 0.57273 0.0
C206 C 0.6261 0.81411 0.71328 0.0
C207 C 0.6189 0.83845 0.66586 0.0
N208 N 0.61994 0.86757 0.52802 0.0
N209 N 0.62245 0.7557 0.71036 0.0
C210 C 0.62297 0.84131 0.57207 0.0
C211 C 0.62424 0.78451 0.66664 0.0
N212 N 0.63467 0.81767 0.4365 0.0
N213 N 0.63242 0.81842 0.8029 0.0
H214 H 0.62173 0.73439 0.67519 0.0
H215 H 0.62089 0.75265 0.77965 0.0
H216 H 0.63443 0.84069 0.83589 0.0
H217 H 0.63901 0.80231 0.84161 0.0
H218 H 0.64063 0.84031 0.39816 0.0
H219 H 0.63822 0.79827 0.4037 0.0
H220 H 0.61892 0.86918 0.45865 0.0
H221 H 0.61762 0.88735 0.56285 0.0
C222 C 0.80627 0.61254 0.69714 0.0
C223 C 0.83331 0.61001 0.74499 0.0
C224 C 0.80491 0.61139 0.88469 0.0
C225 C 0.77288 0.60096 0.83657 0.0
N226 N 0.7439 0.59783 0.69745 0.0
N227 N 0.86283 0.61427 0.88366 0.0
C228 C 0.77412 0.60452 0.74258 0.0
C229 C 0.83456 0.6129 0.83895 0.0
N230 N 0.81086 0.6206 0.60814 0.0
N231 N 0.80602 0.61801 0.974 0.0
H232 H 0.88491 0.61626 0.84935 0.0
H233 H 0.8639 0.61251 0.95298 0.0
H234 H 0.78461 0.61805 0.00652 0.0
H235 H 0.82898 0.62704 0.01272 0.0
H236 H 0.79271 0.62414 0.56944 0.0
H237 H 0.83498 0.62743 0.57611 0.0
H238 H 0.7417 0.5962 0.62805 0.0
H239 H 0.72065 0.593 0.73127 0.0
C240 C 0.2148 0.83446 0.94836 0.0
C241 C 0.2169 0.83073 0.85521 0.0
C242 C 0.15872 0.77586 0.8565 0.0
C243 C 0.1601 0.77617 0.95075 0.0
N244 N 0.17831 0.81229 0.08302 0.0
N245 N 0.18514 0.80799 0.71755 0.0
C246 C 0.18411 0.80821 -0.00464 0.0
C247 C 0.18635 0.80512 0.80816 0.0
N248 N 0.24319 0.8615 -0.00834 0.0
N249 N 0.13263 0.74629 0.81452 0.0
H250 H 0.20528 0.8299 0.68299 0.0
H251 H 0.16313 0.79099 0.67878 0.0
H252 H 0.11201 0.72529 0.85072 0.0
H253 H 0.13186 0.74231 0.74574 0.0
H254 H 0.24521 0.86368 0.06102 0.0
H255 H 0.26525 0.88128 0.95651 0.0
H256 H 0.1941 0.83564 0.11894 0.0
H257 H 0.15525 0.79333 0.11639 0.0
C258 C 0.38601 0.20987 0.30816 0.0
C259 C 0.42419 0.22759 0.31027 0.0
C260 C 0.42473 0.28012 0.24469 0.0
C261 C 0.39025 0.25782 0.21098 0.0
N262 N 0.3344 0.20338 0.22568 0.0
N263 N 0.48031 0.28099 0.26752 0.0
C264 C 0.36932 0.22361 0.2503 0.0
C265 C 0.44394 0.26364 0.2772 0.0
N266 N 0.36592 0.18101 0.36234 0.0
N267 N 0.44021 0.31636 0.23541 0.0
H268 H 0.49563 0.26861 0.27633 0.0
H269 H 0.49467 0.30642 0.23838 0.0
H270 H 0.42592 0.3281 0.20925 0.0
H271 H 0.46527 0.33402 0.26215 0.0
H272 H 0.33812 0.1687 0.36637 0.0
H273 H 0.37726 0.17232 0.41108 0.0
H274 H 0.31845 0.17643 0.24327 0.0
H275 H 0.32235 0.21395 0.18403 0.0
C276 C 0.11154 0.53914 0.19934 0.0
C277 C 0.1137 0.52319 0.11879 0.0
C278 C 0.10671 0.56814 0.03278 0.0
C279 C 0.11265 0.58818 0.11186 0.0
N280 N 0.11986 0.59298 0.27235 0.0
N281 N 0.11292 0.52186 0.95701 0.0
C282 C 0.11385 0.57334 0.19618 0.0
C283 C 0.11015 0.53689 0.03484 0.0
N284 N 0.10771 0.52157 0.27862 0.0
N285 N 0.09828 0.5795 0.95569 0.0
H286 H 0.11498 0.49871 0.95491 0.0
H287 H 0.1152 0.53346 0.89423 0.0
H288 H 0.09565 0.6024 0.95347 0.0
H289 H 0.09052 0.56458 0.89705 0.0
H290 H 0.10291 0.53011 0.33948 0.0
H291 H 0.10589 0.49641 0.28171 0.0
H292 H 0.12559 0.5856 0.33399 0.0
H293 H 0.12097 0.61777 0.27339 0.0
C294 C 0.59195 0.15981 0.21802 0.0
C295 C 0.60848 0.14863 0.28308 0.0
C296 C 0.56219 0.13867 0.39271 0.0
C297 C 0.54708 0.15217 0.32956 0.0
N298 N 0.54097 0.16678 0.17756 0.0
N299 N 0.60542 0.119 0.42228 0.0
C300 C 0.5598 0.15974 0.24035 0.0
C301 C 0.59206 0.135 0.36711 0.0
N302 N 0.60797 0.1719 0.13638 0.0
N303 N 0.54918 0.1313 0.47833 0.0
H304 H 0.62746 0.11636 0.40461 0.0
H305 H 0.59319 0.10582 0.48163 0.0
H306 H 0.52665 0.13262 0.49846 0.0
H307 H 0.56141 0.12538 0.53058 0.0
H308 H 0.59992 0.18443 0.08945 0.0
H309 H 0.63047 0.17045 0.11648 0.0
H310 H 0.54695 0.16976 0.10953 0.0
H311 H 0.51728 0.16675 0.19286 0.0
C312 C 0.42846 0.54179 0.38293 0.0
C313 C 0.4117 0.52945 0.46719 0.0
C314 C 0.46411 0.57804 0.54083 0.0
C315 C 0.47693 0.5944 0.45628 0.0
N316 N 0.47236 0.59208 0.2951 0.0
N317 N 0.41331 0.53478 0.62816 0.0
C318 C 0.45997 0.57593 0.37653 0.0
C319 C 0.42985 0.54671 0.54703 0.0
N320 N 0.41384 0.52083 0.30929 0.0
N321 N 0.48473 0.59287 0.61492 0.0
H322 H 0.38854 0.51158 0.63593 0.0
H323 H 0.42322 0.54886 0.68747 0.0
H324 H 0.50998 0.61583 0.61114 0.0
H325 H 0.47851 0.58075 0.67788 0.0
H326 H 0.42624 0.52667 0.24681 0.0
H327 H 0.39076 0.49566 0.3132 0.0
H328 H 0.45855 0.582 0.23549 0.0
H329 H 0.49572 0.61673 0.28721 0.0
C330 C 0.90363 0.46732 0.69141 0.0
C331 C 0.90042 0.48237 0.60995 0.0
C332 C 0.90845 0.43786 0.52678 0.0
C333 C 0.90286 0.4182 0.60709 0.0
N334 N 0.89695 0.41448 0.76813 0.0
N335 N 0.9016 0.48359 0.44828 0.0
C336 C 0.90207 0.43347 0.69055 0.0
C337 C 0.90446 0.4688 0.52691 0.0
N338 N 0.9075 0.48533 0.76934 0.0
N339 N 0.9169 0.42632 0.45045 0.0
H340 H 0.89949 0.5067 0.44514 0.0
H341 H 0.89964 0.47203 0.38601 0.0
H342 H 0.91991 0.40364 0.44992 0.0
H343 H 0.92424 0.44086 0.39072 0.0
H344 H 0.91292 0.47749 0.83071 0.0
H345 H 0.90872 0.51024 0.77045 0.0
H346 H 0.89146 0.42212 0.82945 0.0
H347 H 0.8965 0.39002 0.7709 0.0
C348 C 0.43068 0.88867 0.67597 0.0
C349 C 0.40956 0.88435 0.75294 0.0
C350 C 0.45703 0.88737 0.84957 0.0
C351 C 0.47459 0.88444 0.77234 0.0
N352 N 0.4817 0.88652 0.61266 0.0
N353 N 0.40321 0.88386 0.91262 0.0
C354 C 0.46281 0.88712 0.68557 0.0
C355 C 0.42335 0.88576 0.83984 0.0
N356 N 0.41948 0.89333 0.59392 0.0
N357 N 0.47217 0.89074 0.93194 0.0
H358 H 0.37953 0.88485 0.90675 0.0
H359 H 0.40918 0.88056 0.97818 0.0
H360 H 0.49641 0.89126 0.94135 0.0
H361 H 0.4623 0.8956 -0.00948 0.0
H362 H 0.43463 0.8992 0.53565 0.0
H363 H 0.3958 0.89396 0.5847 0.0
H364 H 0.47292 0.88419 0.54695 0.0
H365 H 0.50638 0.88758 0.61849 0.0
C366 C 0.54117 0.39507 0.90756 0.0
C367 C 0.5209 0.3854 -0.01171 0.0
C368 C 0.56857 0.4388 0.06123 0.0
C369 C 0.58802 0.4493 0.97922 0.0
N370 N 0.58819 0.44276 0.81942 0.0
N371 N 0.51084 0.40301 0.13326 0.0
C372 C 0.57268 0.42916 0.90071 0.0
C373 C 0.53319 0.40891 0.06238 0.0
N374 N 0.53194 0.37092 0.83952 0.0
N375 N 0.58446 0.45565 0.13923 0.0
H376 H 0.48448 0.38187 0.1349 0.0
H377 H 0.51715 0.42111 0.18551 0.0
H378 H 0.6105 0.47718 0.14272 0.0
H379 H 0.57283 0.44624 0.20189 0.0
H380 H 0.54809 0.37535 0.78358 0.0
H381 H 0.51003 0.34501 0.84233 0.0
H382 H 0.57634 0.43083 0.75893 0.0
H383 H 0.61101 0.46797 0.81227 0.0
C384 C 0.22307 0.43343 0.74817 0.0
C385 C 0.25145 0.4669 0.71767 0.0
C386 C 0.23436 0.49795 0.82685 0.0
C387 C 0.20957 0.46432 0.86541 0.0
N388 N 0.18609 0.40005 0.87343 0.0
N389 N 0.28786 0.53096 0.73659 0.0
C390 C 0.20538 0.432 0.82899 0.0
C391 C 0.25814 0.49925 0.75919 0.0
N392 N 0.21193 0.40313 0.69835 0.0
N393 N 0.23438 0.52845 0.8526 0.0
H394 H 0.30635 0.53285 0.68868 0.0
H395 H 0.29593 0.55474 0.77125 0.0
H396 H 0.21649 0.52835 0.89985 0.0
H397 H 0.24954 0.55314 0.82057 0.0
H398 H 0.18889 0.37892 0.71332 0.0
H399 H 0.22327 0.40305 0.63688 0.0
H400 H 0.18571 0.37659 0.85403 0.0
H401 H 0.17352 0.39755 0.93461 0.0
C402 C 0.74636 0.24264 0.93319 0.0
C403 C 0.75233 0.21623 0.97434 0.0
C404 C 0.79554 0.22468 0.85738 0.0
C405 C 0.79403 0.25509 0.82574 0.0
N406 N 0.77109 0.296 0.84012 0.0
N407 N 0.78736 0.18621 0.98366 0.0
C408 C 0.77006 0.2648 0.86486 0.0
C409 C 0.77797 0.20804 0.93834 0.0
N410 N 0.71765 0.24603 0.9583 0.0
N411 N 0.81292 0.21101 0.80891 0.0
H412 H 0.77606 0.1739 0.04449 0.0
H413 H 0.80893 0.18301 0.96493 0.0
H414 H 0.82542 0.22189 0.74783 0.0
H415 H 0.81162 0.1867 0.82452 0.0
H416 H 0.71008 0.26256 0.9249 0.0
H417 H 0.69922 0.22949 0.00665 0.0
H418 H 0.75681 0.3062 0.8733 0.0
H419 H 0.78868 0.31345 0.79174 0.0
C420 C 0.50654 0.74374 0.15552 0.0
C421 C 0.53966 0.75142 0.19435 0.0
C422 C 0.57194 0.79772 0.08097 0.0
C423 C 0.53884 0.79284 0.04831 0.0
N424 N 0.47483 0.76597 0.06547 0.0
N425 N 0.60351 0.79172 0.2071 0.0
C426 C 0.50612 0.76718 0.08873 0.0
C427 C 0.57229 0.7801 0.16086 0.0
N428 N 0.4757 0.7134 0.17999 0.0
N429 N 0.60293 0.8177 0.03374 0.0
H430 H 0.60509 0.7803 0.26733 0.0
H431 H 0.62714 0.81508 0.19035 0.0
H432 H 0.60406 0.8304 0.97336 0.0
H433 H 0.62693 0.81861 0.0499 0.0
H434 H 0.45137 0.70464 0.14744 0.0
H435 H 0.47512 0.69505 0.22696 0.0
H436 H 0.45072 0.75018 0.09904 0.0
H437 H 0.47366 0.78342 0.01847 0.0
C438 C 0.7703 0.49988 0.32791 0.0
C439 C 0.79402 0.5338 0.36543 0.0
C440 C 0.775 0.56315 0.25515 0.0
C441 C 0.74846 0.52894 0.22424 0.0
N442 N 0.71597 0.46458 0.24353 0.0
N443 N 0.81289 0.59695 0.37782 0.0
C444 C 0.74469 0.49719 0.26416 0.0
C445 C 0.79474 0.56527 0.33278 0.0
N446 N 0.77309 0.47048 0.35064 0.0
N447 N 0.78274 0.59363 0.2084 0.0
H448 H 0.82729 0.59988 0.43607 0.0
H449 H 0.8107 0.61948 0.36227 0.0
H450 H 0.76952 0.59362 0.15016 0.0
H451 H 0.80471 0.61864 0.22263 0.0
H452 H 0.75881 0.44584 0.31865 0.0
H453 H 0.79233 0.47164 0.39509 0.0
H454 H 0.71006 0.44093 0.27715 0.0
H455 H 0.69599 0.46168 0.19921 0.0
C456 C 0.21149 0.78137 0.3587 0.0
C457 C 0.21474 0.7518 0.32908 0.0
C458 C 0.2642 0.76806 0.43327 0.0
C459 C 0.25717 0.79406 0.47177 0.0
N460 N 0.21844 0.81995 0.48222 0.0
N461 N 0.24049 0.71339 0.34737 0.0
C462 C 0.22938 0.7994 0.43742 0.0
C463 C 0.24021 0.74417 0.36858 0.0
N464 N 0.1924 0.79318 0.31013 0.0
N465 N 0.29426 0.76683 0.45679 0.0
H466 H 0.22261 0.69464 0.30215 0.0
H467 H 0.2561 0.70477 0.38099 0.0
H468 H 0.31299 0.78469 0.50213 0.0
H469 H 0.30246 0.75065 0.42464 0.0
H470 H 0.19245 0.81695 0.32423 0.0
H471 H 0.17969 0.78148 0.25028 0.0
H472 H 0.19559 0.82112 0.46474 0.0
H473 H 0.22975 0.83293 0.54193 0.0
C474 C 0.41847 0.18973 0.80296 0.0
C475 C 0.44997 0.21399 0.84917 0.0
C476 C 0.48308 0.19205 0.7628 0.0
C477 C 0.45503 0.17749 0.69979 0.0
N478 N 0.39428 0.16295 0.66074 0.0
N479 N 0.51453 0.24075 0.86516 0.0
C480 C 0.42177 0.17549 0.72068 0.0
C481 C 0.48291 0.21533 0.82886 0.0
N482 N 0.38553 0.18014 0.8377 0.0
N483 N 0.51075 0.18522 0.75573 0.0
H484 H 0.5169 0.26106 0.90708 0.0
H485 H 0.53925 0.2442 0.84511 0.0
H486 H 0.51105 0.16809 0.7068 0.0
H487 H 0.53085 0.19333 0.80369 0.0
H488 H 0.36178 0.16022 0.80968 0.0
H489 H 0.38223 0.18893 0.90006 0.0
H490 H 0.37183 0.16583 0.66994 0.0
H491 H 0.39426 0.15158 0.59976 0.0
C492 C 0.03524 0.33541 0.82519 0.0
C493 C 0.03621 0.33806 0.91988 0.0
C494 C 0.97071 0.30847 0.92571 0.0
C495 C 0.96975 0.30552 0.8311 0.0
N496 N 0.9996 0.30718 0.69342 0.0
N497 N 0.00546 0.31935 0.06145 0.0
C498 C 1.00162 0.31607 0.78173 0.0
C499 C 0.00404 0.32199 0.97052 0.0
N500 N 0.06615 0.3532 0.77629 0.0
N501 N 0.94026 0.30045 0.97233 0.0
H502 H 0.02954 0.32878 0.09597 0.0
H503 H 0.98288 0.30485 0.10152 0.0
H504 H 0.91526 0.29042 0.94231 0.0
H505 H 0.94014 0.30615 0.03989 0.0
H506 H 0.0666 0.35577 0.70691 0.0
H507 H 0.09141 0.36783 0.80509 0.0
H508 H 0.02163 0.31101 0.65586 0.0
H509 H 0.97526 0.2927 0.66001 0.0
C510 C 0.67392 1.00001 0.94573 0.0
C511 C 0.65302 0.97053 0.00346 0.0
C512 C 0.67156 0.01111 0.13176 0.0
C513 C 0.68816 0.04088 0.07233 0.0
N514 N 0.70155 0.06413 0.92116 0.0
N515 N 0.62818 0.94803 0.15021 0.0
C516 C 0.6887 0.03552 0.97885 0.0
C517 C 0.65106 0.97598 0.09641 0.0
N518 N 0.68028 0.99401 0.85969 0.0
N519 N 0.67609 0.01639 0.22202 0.0
H520 H 0.61241 0.9219 0.12716 0.0
H521 H 0.62256 0.95127 0.21617 0.0
H522 H 0.69125 0.04176 0.25017 0.0
H523 H 0.66778 0.99551 0.26834 0.0
H524 H 0.69828 0.01424 0.8171 0.0
H525 H 0.6702 0.96829 0.83357 0.0
H526 H 0.69883 0.06145 0.85198 0.0
H527 H 0.71229 0.0906 0.9423 0.0
C528 C 0.66301 0.6542 0.09223 0.0
C529 C 0.68184 0.64299 0.14979 0.0
C530 C 0.67394 0.67558 0.27378 0.0
C531 C 0.65078 0.68226 0.21959 0.0
N532 N 0.6193 0.67384 0.08001 0.0
N533 N 0.70203 0.63938 0.29824 0.0
C534 C 0.64447 0.6708 0.1292 0.0
C535 C 0.68679 0.65298 0.24127 0.0
N536 N 0.66353 0.64973 0.00186 0.0
N537 N 0.68422 0.69147 0.35565 0.0
H538 H 0.71154 0.6225 0.27749 0.0
H539 H 0.70259 0.6424 0.36739 0.0
H540 H 0.67559 0.70849 0.38101 0.0
H541 H 0.70386 0.69059 0.3945 0.0
H542 H 0.65343 0.66069 0.95576 0.0
H543 H 0.67725 0.63809 0.9723 0.0
H544 H 0.61065 0.66214 0.01747 0.0
H545 H 0.6047 0.68538 0.10448 0.0
C546 C 0.03453 0.69514 0.40952 0.0
C547 C 0.03671 0.69643 0.31467 0.0
C548 C 0.97122 0.66377 0.30436 0.0
C549 C 0.96901 0.66311 0.39922 0.0
N550 N 0.99777 0.68582 0.541 0.0
N551 N 0.00804 0.69073 0.17258 0.0
C552 C 1.00049 0.68134 0.45143 0.0
C553 C 0.00527 0.68357 0.26236 0.0
N554 N 0.06456 0.70503 0.45963 0.0
N555 N 0.94122 0.64371 0.25437 0.0
H556 H 0.03265 0.70553 0.14004 0.0
H557 H 0.98616 0.68518 0.13228 0.0
H558 H 0.91572 0.6285 0.282 0.0
H559 H 0.94194 0.63982 0.18586 0.0
H560 H 0.06391 0.70065 0.52837 0.0
H561 H 0.09002 0.71513 0.4319 0.0
H562 H 0.01969 0.70186 0.5812 0.0
H563 H 0.97317 0.67631 0.57337 0.0
C564 C 0.34353 0.03457 0.56157 0.0
C565 C 0.35167 0.0437 0.46965 0.0
C566 C 0.32616 0.98002 0.43305 0.0
C567 C 0.31621 0.97093 0.52422 0.0
N568 N 0.3067 0.98874 0.66965 0.0
N569 N 0.34409 0.0251 0.31574 0.0
C570 C 0.32208 0.99799 0.58663 0.0
C571 C 0.34081 0.01636 0.40463 0.0
N572 N 0.35823 0.06041 0.62585 0.0
N573 N 0.32365 0.95448 0.37468 0.0
H574 H 0.35462 0.05148 0.29293 0.0
H575 H 0.33339 0.00608 0.26515 0.0
H576 H 0.31359 0.92767 0.39273 0.0
H577 H 0.33428 0.9604 0.3102 0.0
H578 H 0.35624 0.05455 0.69405 0.0
H579 H 0.37552 0.08742 0.6116 0.0
H580 H 0.30716 0.00737 0.71476 0.0
H581 H 0.29024 0.96212 0.68976 0.0
C582 C 0.34794 0.3483 0.66126 0.0
C583 C 0.31689 0.34888 0.69057 0.0
C584 C 0.31874 0.3209 0.83248 0.0
C585 C 0.35283 0.3259 0.80872 0.0
N586 N 0.40232 0.34868 0.70417 0.0
N587 N 0.27458 0.33936 0.8086 0.0
C588 C 0.36799 0.34039 0.72366 0.0
C589 C 0.30243 0.33573 0.77703 0.0
N590 N 0.35795 0.3548 0.57329 0.0
N591 N 0.30169 0.30145 0.90736 0.0
H592 H 0.26208 0.3505 0.77111 0.0
H593 H 0.26576 0.33404 0.87474 0.0
H594 H 0.31278 0.28993 0.94893 0.0
H595 H 0.27527 0.29379 0.92328 0.0
H596 H 0.37833 0.35135 0.54616 0.0
H597 H 0.34344 0.36003 0.52546 0.0
H598 H 0.41606 0.36311 0.64733 0.0
H599 H 0.41836 0.34404 0.74827 0.0
loop_
_geom_bond_atom_site_label_1
_geom_bond_atom_site_label_2
_geom_bond_distance
_geom_bond_site_symmetry_2
_ccdc_geom_bond_type
Zn0 O3 2.031 . S
Zn0 O5 2.049 . S
Zn0 O10 2.067 . S
Zn1 O2 1.962 1_554 S
Zn1 O4 1.986 . S
Zn1 O6 1.996 . S
Zn1 O9 1.943 . S
O2 Zn1 1.962 1_556 S
O2 C7 1.254 . S
O3 Zn0 2.031 . S
O3 C7 1.269 1_554 S
O4 Zn1 1.986 . S
O4 C11 1.263 . S
O5 Zn0 2.049 . S
O5 C13 1.260 . S
O6 Zn1 1.996 . S
O6 C13 1.257 . S
C7 O2 1.254 . S
C7 O3 1.269 1_556 S
C8 O9 1.249 . S
C8 O10 1.270 . S
O9 Zn1 1.943 . S
O9 C8 1.249 . S
O10 Zn0 2.067 . S
O10 C8 1.270 . S
C11 O4 1.263 . S
C11 O12 1.232 1_554 S
O12 C11 1.232 1_556 S
C13 O5 1.260 . S
C13 O6 1.257 . S
Zn14 O17 2.031 . S
Zn14 O19 2.049 . S
Zn14 O24 2.067 . S
Zn15 O16 1.962 . S
Zn15 O18 1.986 . S
Zn15 O20 1.996 . S
Zn15 O23 1.943 . S
O16 Zn15 1.962 . S
O16 C21 1.254 . S
O17 Zn14 2.031 . S
O17 C21 1.269 . S
O18 Zn15 1.986 . S
O18 C25 1.262 . S
O19 Zn14 2.049 . S
O19 C27 1.260 . S
O20 Zn15 1.996 . S
O20 C27 1.257 . S
C21 O16 1.254 . S
C21 O17 1.269 . S
C22 O23 1.249 . S
C22 O24 1.270 . S
O23 Zn15 1.943 . S
O23 C22 1.249 . S
O24 Zn14 2.067 . S
O24 C22 1.270 . S
C25 O18 1.262 . S
C25 O26 1.232 . S
O26 C25 1.232 . S
C27 O19 1.260 . S
C27 O20 1.257 . S
Zn28 O31 2.031 . S
Zn28 O33 2.049 . S
Zn28 O38 2.067 . S
Zn29 O30 1.962 . S
Zn29 O32 1.986 . S
Zn29 O34 1.996 . S
Zn29 O37 1.943 . S
O30 Zn29 1.962 . S
O30 C35 1.254 . S
O31 Zn28 2.031 . S
O31 C35 1.269 . S
O32 Zn29 1.986 . S
O32 C39 1.262 . S
O33 Zn28 2.049 . S
O33 C41 1.260 . S
O34 Zn29 1.996 . S
O34 C41 1.257 . S
C35 O30 1.254 . S
C35 O31 1.269 . S
C36 O37 1.249 . S
C36 O38 1.270 . S
O37 Zn29 1.943 . S
O37 C36 1.249 . S
O38 Zn28 2.067 . S
O38 C36 1.270 . S
C39 O32 1.262 . S
C39 O40 1.232 . S
O40 C39 1.232 . S
C41 O33 1.260 . S
C41 O34 1.257 . S
Zn42 O45 2.031 . S
Zn42 O47 2.049 . S
Zn42 O52 2.067 . S
Zn43 O44 1.962 . S
Zn43 O46 1.986 . S
Zn43 O48 1.996 . S
Zn43 O51 1.943 . S
O44 Zn43 1.962 . S
O44 C49 1.254 . S
O45 Zn42 2.031 . S
O45 C49 1.269 . S
O46 Zn43 1.986 . S
O46 C53 1.262 . S
O47 Zn42 2.049 . S
O47 C55 1.260 . S
O48 Zn43 1.996 . S
O48 C55 1.257 . S
C49 O44 1.254 . S
C49 O45 1.269 . S
C50 O51 1.249 . S
C50 O52 1.270 . S
O51 Zn43 1.943 . S
O51 C50 1.249 . S
O52 Zn42 2.067 . S
O52 C50 1.270 . S
C53 O46 1.262 . S
C53 O54 1.232 . S
O54 C53 1.232 . S
C55 O47 1.260 . S
C55 O48 1.257 . S
Zn56 O59 2.031 . S
Zn56 O61 2.049 . S
Zn56 O66 2.067 . S
Zn57 O58 1.962 . S
Zn57 O60 1.986 . S
Zn57 O62 1.996 . S
Zn57 O65 1.943 . S
O58 Zn57 1.962 . S
O58 C63 1.254 . S
O59 Zn56 2.031 . S
O59 C63 1.269 . S
O60 Zn57 1.986 . S
O60 C67 1.262 . S
O61 Zn56 2.049 . S
O61 C69 1.260 . S
O62 Zn57 1.996 . S
O62 C69 1.257 . S
C63 O58 1.254 . S
C63 O59 1.269 . S
C64 O65 1.249 . S
C64 O66 1.270 . S
O65 Zn57 1.943 . S
O65 C64 1.249 . S
O66 Zn56 2.067 . S
O66 C64 1.270 . S
C67 O60 1.262 . S
C67 O68 1.232 . S
O68 C67 1.232 . S
C69 O61 1.260 . S
C69 O62 1.257 . S
Zn70 O73 2.031 . S
Zn70 O75 2.049 . S
Zn70 O80 2.067 1_556 S
Zn71 O72 1.962 . S
Zn71 O74 1.986 . S
Zn71 O76 1.996 . S
Zn71 O79 1.943 . S
O72 Zn71 1.962 . S
O72 C77 1.254 . S
O73 Zn70 2.031 . S
O73 C77 1.269 . S
O74 Zn71 1.986 . S
O74 C81 1.262 . S
O75 Zn70 2.049 . S
O75 C83 1.260 . S
O76 Zn71 1.996 . S
O76 C83 1.257 . S
C77 O72 1.254 . S
C77 O73 1.269 . S
C78 O79 1.249 1_554 S
C78 O80 1.270 . S
O79 Zn71 1.943 . S
O79 C78 1.249 1_556 S
O80 Zn70 2.067 1_554 S
O80 C78 1.270 . S
C81 O74 1.262 . S
C81 O82 1.232 . S
O82 C81 1.232 . S
C83 O75 1.260 . S
C83 O76 1.257 . S
Zn84 O87 2.031 . S
Zn84 O89 2.049 . S
Zn84 O94 2.067 . S
Zn85 O86 1.962 1_556 S
Zn85 O88 1.986 . S
Zn85 O90 1.996 . S
Zn85 O93 1.943 . S
O86 Zn85 1.962 1_554 S
O86 C91 1.254 . S
O87 Zn84 2.031 . S
O87 C91 1.269 1_556 S
O88 Zn85 1.986 . S
O88 C95 1.262 . S
O89 Zn84 2.049 . S
O89 C97 1.260 . S
O90 Zn85 1.996 . S
O90 C97 1.257 . S
C91 O86 1.254 . S
C91 O87 1.269 1_554 S
C92 O93 1.249 . S
C92 O94 1.270 . S
O93 Zn85 1.943 . S
O93 C92 1.249 . S
O94 Zn84 2.067 . S
O94 C92 1.270 . S
C95 O88 1.262 . S
C95 O96 1.232 . S
O96 C95 1.232 . S
C97 O89 1.260 . S
C97 O90 1.257 . S
Zn98 O101 2.031 . S
Zn98 O103 2.049 1_554 S
Zn98 O108 2.067 1_554 S
Zn99 O100 1.962 . S
Zn99 O102 1.986 . S
Zn99 O104 1.996 . S
Zn99 O107 1.943 1_554 S
O100 Zn99 1.962 . S
O100 C105 1.254 . S
O101 Zn98 2.031 . S
O101 C105 1.269 . S
O102 Zn99 1.986 . S
O102 C109 1.262 . S
O103 Zn98 2.049 1_556 S
O103 C111 1.260 1_556 S
O104 Zn99 1.996 . S
O104 C111 1.257 . S
C105 O100 1.254 . S
C105 O101 1.269 . S
C106 O107 1.249 . S
C106 O108 1.270 . S
O107 Zn99 1.943 1_556 S
O107 C106 1.249 . S
O108 Zn98 2.067 1_556 S
O108 C106 1.270 . S
C109 O102 1.262 . S
C109 O110 1.232 . S
O110 C109 1.232 . S
C111 O103 1.260 1_554 S
C111 O104 1.257 . S
Zn112 O115 2.031 . S
Zn112 O117 2.049 . S
Zn112 O122 2.067 . S
Zn113 O114 1.962 . S
Zn113 O116 1.986 . S
Zn113 O118 1.996 . S
Zn113 O121 1.943 . S
O114 Zn113 1.962 . S
O114 C119 1.254 . S
O115 Zn112 2.031 . S
O115 C119 1.269 . S
O116 Zn113 1.986 . S
O116 C123 1.262 . S
O117 Zn112 2.049 . S
O117 C125 1.260 . S
O118 Zn113 1.996 . S
O118 C125 1.257 . S
C119 O114 1.254 . S
C119 O115 1.269 . S
C120 O121 1.249 . S
C120 O122 1.270 . S
O121 Zn113 1.943 . S
O121 C120 1.249 . S
O122 Zn112 2.067 . S
O122 C120 1.270 . S
C123 O116 1.262 . S
C123 O124 1.232 . S
O124 C123 1.232 . S
C125 O117 1.260 . S
C125 O118 1.257 . S
Zn126 O129 2.031 . S
Zn126 O131 2.049 . S
Zn126 O136 2.067 . S
Zn127 O128 1.962 . S
Zn127 O130 1.986 . S
Zn127 O132 1.996 . S
Zn127 O135 1.943 . S
O128 Zn127 1.962 . S
O128 C133 1.254 . S
O129 Zn126 2.031 . S
O129 C133 1.269 . S
O130 Zn127 1.986 . S
O130 C137 1.262 . S
O131 Zn126 2.049 . S
O131 C139 1.260 . S
O132 Zn127 1.996 . S
O132 C139 1.257 . S
C133 O128 1.254 . S
C133 O129 1.269 . S
C134 O135 1.249 . S
C134 O136 1.270 . S
O135 Zn127 1.943 . S
O135 C134 1.249 . S
O136 Zn126 2.067 . S
O136 C134 1.270 . S
C137 O130 1.262 . S
C137 O138 1.232 . S
O138 C137 1.232 . S
C139 O131 1.260 . S
C139 O132 1.257 . S
Zn140 O143 2.031 . S
Zn140 O145 2.049 . S
Zn140 O150 2.067 . S
Zn141 O142 1.962 . S
Zn141 O144 1.986 . S
Zn141 O146 1.996 . S
Zn141 O149 1.943 . S
O142 Zn141 1.962 . S
O142 C147 1.254 . S
O143 Zn140 2.031 . S
O143 C147 1.269 . S
O144 Zn141 1.986 . S
O144 C151 1.262 . S
O145 Zn140 2.049 . S
O145 C153 1.260 . S
O146 Zn141 1.996 . S
O146 C153 1.257 . S
C147 O142 1.254 . S
C147 O143 1.269 . S
C148 O149 1.249 . S
C148 O150 1.270 . S
O149 Zn141 1.943 . S
O149 C148 1.249 . S
O150 Zn140 2.067 . S
O150 C148 1.270 . S
C151 O144 1.262 . S
C151 O152 1.232 . S
O152 C151 1.232 . S
C153 O145 1.260 . S
C153 O146 1.257 . S
Zn154 O157 2.031 . S
Zn154 O159 2.049 . S
Zn154 O164 2.067 . S
Zn155 O156 1.962 . S
Zn155 O158 1.986 . S
Zn155 O160 1.996 . S
Zn155 O163 1.943 . S
O156 Zn155 1.962 . S
O156 C161 1.254 . S
O157 Zn154 2.031 . S
O157 C161 1.269 . S
O158 Zn155 1.986 . S
O158 C165 1.262 . S
O159 Zn154 2.049 . S
O159 C167 1.260 . S
O160 Zn155 1.996 . S
O160 C167 1.257 . S
C161 O156 1.254 . S
C161 O157 1.269 . S
C162 O163 1.249 . S
C162 O164 1.270 . S
O163 Zn155 1.943 . S
O163 C162 1.249 . S
O164 Zn154 2.067 . S
O164 C162 1.270 . S
C165 O158 1.262 . S
C165 O166 1.232 . S
O166 C165 1.232 . S
C167 O159 1.260 . S
C167 O160 1.257 . S
C168 C169 1.363 . S
C168 C174 1.379 . S
C168 N176 1.356 . S
C169 C168 1.363 . S
C169 C175 1.363 . S
C170 C171 1.363 . S
C170 C175 1.379 . S
C170 N177 1.356 . S
C171 C170 1.363 . S
C171 C174 1.363 . S
N172 C174 1.356 . S
N172 H184 0.984 . S
N172 H185 0.985 . S
N173 C175 1.356 . S
N173 H178 0.984 . S
N173 H179 0.985 . S
C174 C168 1.379 . S
C174 C171 1.363 . S
C174 N172 1.356 . S
C175 C169 1.363 . S
C175 C170 1.379 . S
C175 N173 1.356 . S
N176 C168 1.356 . S
N176 H182 0.984 . S
N176 H183 0.984 . S
N177 C170 1.356 . S
N177 H180 0.984 . S
N177 H181 0.985 . S
H178 N173 0.984 . S
H179 N173 0.985 . S
H180 N177 0.984 . S
H181 N177 0.985 . S
H182 N176 0.984 . S
H183 N176 0.984 . S
H184 N172 0.984 . S
H185 N172 0.985 . S
C186 C187 1.363 . S
C186 C192 1.379 . S
C186 N194 1.356 . S
C187 C186 1.363 . S
C187 C193 1.363 . S
C188 C189 1.363 . S
C188 C193 1.379 . S
C188 N195 1.356 . S
C189 C188 1.363 . S
C189 C192 1.363 . S
N190 C192 1.356 . S
N190 H202 0.984 . S
N190 H203 0.985 . S
N191 C193 1.356 . S
N191 H196 0.984 . S
N191 H197 0.985 . S
C192 C186 1.379 . S
C192 C189 1.363 . S
C192 N190 1.356 . S
C193 C187 1.363 . S
C193 C188 1.379 . S
C193 N191 1.356 . S
N194 C186 1.356 . S
N194 H200 0.984 . S
N194 H201 0.984 . S
N195 C188 1.356 . S
N195 H198 0.984 . S
N195 H199 0.985 . S
H196 N191 0.984 . S
H197 N191 0.985 . S
H198 N195 0.984 . S
H199 N195 0.985 . S
H200 N194 0.984 . S
H201 N194 0.984 . S
H202 N190 0.984 . S
H203 N190 0.985 . S
C204 C205 1.363 . S
C204 C210 1.379 . S
C204 N212 1.356 . S
C205 C204 1.363 . S
C205 C211 1.363 . S
C206 C207 1.363 . S
C206 C211 1.379 . S
C206 N213 1.356 . S
C207 C206 1.363 . S
C207 C210 1.363 . S
N208 C210 1.356 . S
N208 H220 0.984 . S
N208 H221 0.985 . S
N209 C211 1.356 . S
N209 H214 0.984 . S
N209 H215 0.985 . S
C210 C204 1.379 . S
C210 C207 1.363 . S
C210 N208 1.356 . S
C211 C205 1.363 . S
C211 C206 1.379 . S
C211 N209 1.356 . S
N212 C204 1.356 . S
N212 H218 0.984 . S
N212 H219 0.984 . S
N213 C206 1.356 . S
N213 H216 0.984 . S
N213 H217 0.985 . S
H214 N209 0.984 . S
H215 N209 0.985 . S
H216 N213 0.984 . S
H217 N213 0.985 . S
H218 N212 0.984 . S
H219 N212 0.984 . S
H220 N208 0.984 . S
H221 N208 0.985 . S
C222 C223 1.363 . S
C222 C228 1.379 . S
C222 N230 1.356 . S
C223 C222 1.363 . S
C223 C229 1.363 . S
C224 C225 1.363 . S
C224 C229 1.379 . S
C224 N231 1.356 . S
C225 C224 1.363 . S
C225 C228 1.363 . S
N226 C228 1.356 . S
N226 H238 0.984 . S
N226 H239 0.985 . S
N227 C229 1.356 . S
N227 H232 0.984 . S
N227 H233 0.985 . S
C228 C222 1.379 . S
C228 C225 1.363 . S
C228 N226 1.356 . S
C229 C223 1.363 . S
C229 C224 1.379 . S
C229 N227 1.356 . S
N230 C222 1.356 . S
N230 H236 0.984 . S
N230 H237 0.984 . S
N231 C224 1.356 . S
N231 H234 0.984 . S
N231 H235 0.985 . S
H232 N227 0.984 . S
H233 N227 0.985 . S
H234 N231 0.984 . S
H235 N231 0.985 . S
H236 N230 0.984 . S
H237 N230 0.984 . S
H238 N226 0.984 . S
H239 N226 0.985 . S
C240 C241 1.363 . S
C240 C246 1.379 1_556 S
C240 N248 1.356 1_556 S
C241 C240 1.363 . S
C241 C247 1.363 . S
C242 C243 1.363 1_556 S
C242 C247 1.379 . S
C242 N249 1.356 . S
C243 C242 1.363 1_554 S
C243 C246 1.363 . S
N244 C246 1.356 . S
N244 H256 0.984 . S
N244 H257 0.985 . S
N245 C247 1.356 . S
N245 H250 0.984 . S
N245 H251 0.985 . S
C246 C240 1.379 1_554 S
C246 C243 1.363 . S
C246 N244 1.356 . S
C247 C241 1.363 . S
C247 C242 1.379 . S
C247 N245 1.356 . S
N248 C240 1.356 1_554 S
N248 H254 0.984 . S
N248 H255 0.984 1_554 S
N249 C242 1.356 . S
N249 H252 0.984 . S
N249 H253 0.985 . S
H250 N245 0.984 . S
H251 N245 0.985 . S
H252 N249 0.984 . S
H253 N249 0.985 . S
H254 N248 0.984 . S
H255 N248 0.984 1_556 S
H256 N244 0.984 . S
H257 N244 0.985 . S
C258 C259 1.363 . S
C258 C264 1.379 . S
C258 N266 1.356 . S
C259 C258 1.363 . S
C259 C265 1.363 . S
C260 C261 1.363 . S
C260 C265 1.379 . S
C260 N267 1.356 . S
C261 C260 1.363 . S
C261 C264 1.363 . S
N262 C264 1.356 . S
N262 H274 0.984 . S
N262 H275 0.985 . S
N263 C265 1.356 . S
N263 H268 0.984 . S
N263 H269 0.985 . S
C264 C258 1.379 . S
C264 C261 1.363 . S
C264 N262 1.356 . S
C265 C259 1.363 . S
C265 C260 1.379 . S
C265 N263 1.356 . S
N266 C258 1.356 . S
N266 H272 0.984 . S
N266 H273 0.984 . S
N267 C260 1.356 . S
N267 H270 0.984 . S
N267 H271 0.985 . S
H268 N263 0.984 . S
H269 N263 0.985 . S
H270 N267 0.984 . S
H271 N267 0.985 . S
H272 N266 0.984 . S
H273 N266 0.984 . S
H274 N262 0.984 . S
H275 N262 0.985 . S
C276 C277 1.363 . S
C276 C282 1.379 . S
C276 N284 1.356 . S
C277 C276 1.363 . S
C277 C283 1.363 . S
C278 C279 1.363 . S
C278 C283 1.379 . S
C278 N285 1.356 . S
C279 C278 1.363 . S
C279 C282 1.363 . S
N280 C282 1.356 . S
N280 H292 0.984 . S
N280 H293 0.985 . S
N281 C283 1.356 . S
N281 H286 0.984 . S
N281 H287 0.985 1_554 S
C282 C276 1.379 . S
C282 C279 1.363 . S
C282 N280 1.356 . S
C283 C277 1.363 . S
C283 C278 1.379 . S
C283 N281 1.356 . S
N284 C276 1.356 . S
N284 H290 0.984 . S
N284 H291 0.984 . S
N285 C278 1.356 . S
N285 H288 0.984 . S
N285 H289 0.985 . S
H286 N281 0.984 . S
H287 N281 0.985 1_556 S
H288 N285 0.984 . S
H289 N285 0.985 . S
H290 N284 0.984 . S
H291 N284 0.984 . S
H292 N280 0.984 . S
H293 N280 0.985 . S
C294 C295 1.363 . S
C294 C300 1.379 . S
C294 N302 1.356 . S
C295 C294 1.363 . S
C295 C301 1.363 . S
C296 C297 1.363 . S
C296 C301 1.379 . S
C296 N303 1.356 . S
C297 C296 1.363 . S
C297 C300 1.363 . S
N298 C300 1.356 . S
N298 H310 0.984 . S
N298 H311 0.985 . S
N299 C301 1.356 . S
N299 H304 0.984 . S
N299 H305 0.985 . S
C300 C294 1.379 . S
C300 C297 1.363 . S
C300 N298 1.356 . S
C301 C295 1.363 . S
C301 C296 1.379 . S
C301 N299 1.356 . S
N302 C294 1.356 . S
N302 H308 0.984 . S
N302 H309 0.984 . S
N303 C296 1.356 . S
N303 H306 0.984 . S
N303 H307 0.985 . S
H304 N299 0.984 . S
H305 N299 0.985 . S
H306 N303 0.984 . S
H307 N303 0.985 . S
H308 N302 0.984 . S
H309 N302 0.984 . S
H310 N298 0.984 . S
H311 N298 0.985 . S
C312 C313 1.363 . S
C312 C318 1.379 . S
C312 N320 1.356 . S
C313 C312 1.363 . S
C313 C319 1.363 . S
C314 C315 1.363 . S
C314 C319 1.379 . S
C314 N321 1.356 . S
C315 C314 1.363 . S
C315 C318 1.363 . S
N316 C318 1.356 . S
N316 H328 0.984 . S
N316 H329 0.985 . S
N317 C319 1.356 . S
N317 H322 0.984 . S
N317 H323 0.985 . S
C318 C312 1.379 . S
C318 C315 1.363 . S
C318 N316 1.356 . S
C319 C313 1.363 . S
C319 C314 1.379 . S
C319 N317 1.356 . S
N320 C312 1.356 . S
N320 H326 0.984 . S
N320 H327 0.984 . S
N321 C314 1.356 . S
N321 H324 0.984 . S
N321 H325 0.985 . S
H322 N317 0.984 . S
H323 N317 0.985 . S
H324 N321 0.984 . S
H325 N321 0.985 . S
H326 N320 0.984 . S
H327 N320 0.984 . S
H328 N316 0.984 . S
H329 N316 0.985 . S
C330 C331 1.363 . S
C330 C336 1.379 . S
C330 N338 1.356 . S
C331 C330 1.363 . S
C331 C337 1.363 . S
C332 C333 1.363 . S
C332 C337 1.379 . S
C332 N339 1.356 . S
C333 C332 1.363 . S
C333 C336 1.363 . S
N334 C336 1.356 . S
N334 H346 0.984 . S
N334 H347 0.985 . S
N335 C337 1.356 . S
N335 H340 0.984 . S
N335 H341 0.985 . S
C336 C330 1.379 . S
C336 C333 1.363 . S
C336 N334 1.356 . S
C337 C331 1.363 . S
C337 C332 1.379 . S
C337 N335 1.356 . S
N338 C330 1.356 . S
N338 H344 0.984 . S
N338 H345 0.984 . S
N339 C332 1.356 . S
N339 H342 0.984 . S
N339 H343 0.985 . S
H340 N335 0.984 . S
H341 N335 0.985 . S
H342 N339 0.984 . S
H343 N339 0.985 . S
H344 N338 0.984 . S
H345 N338 0.984 . S
H346 N334 0.984 . S
H347 N334 0.985 . S
C348 C349 1.363 . S
C348 C354 1.379 . S
C348 N356 1.356 . S
C349 C348 1.363 . S
C349 C355 1.363 . S
C350 C351 1.363 . S
C350 C355 1.379 . S
C350 N357 1.356 . S
C351 C350 1.363 . S
C351 C354 1.363 . S
N352 C354 1.356 . S
N352 H364 0.984 . S
N352 H365 0.985 . S
N353 C355 1.356 . S
N353 H358 0.984 . S
N353 H359 0.985 . S
C354 C348 1.379 . S
C354 C351 1.363 . S
C354 N352 1.356 . S
C355 C349 1.363 . S
C355 C350 1.379 . S
C355 N353 1.356 . S
N356 C348 1.356 . S
N356 H362 0.984 . S
N356 H363 0.984 . S
N357 C350 1.356 . S
N357 H360 0.984 . S
N357 H361 0.985 . S
H358 N353 0.984 . S
H359 N353 0.985 . S
H360 N357 0.984 . S
H361 N357 0.985 . S
H362 N356 0.984 . S
H363 N356 0.984 . S
H364 N352 0.984 . S
H365 N352 0.985 . S
C366 C367 1.363 . S
C366 C372 1.379 . S
C366 N374 1.356 . S
C367 C366 1.363 . S
C367 C373 1.363 1_556 S
C368 C369 1.363 1_554 S
C368 C373 1.379 . S
C368 N375 1.356 . S
C369 C368 1.363 1_556 S
C369 C372 1.363 . S
N370 C372 1.356 . S
N370 H382 0.984 . S
N370 H383 0.985 . S
N371 C373 1.356 . S
N371 H376 0.984 . S
N371 H377 0.985 . S
C372 C366 1.379 . S
C372 C369 1.363 . S
C372 N370 1.356 . S
C373 C367 1.363 1_554 S
C373 C368 1.379 . S
C373 N371 1.356 . S
N374 C366 1.356 . S
N374 H380 0.984 . S
N374 H381 0.984 . S
N375 C368 1.356 . S
N375 H378 0.984 . S
N375 H379 0.985 . S
H376 N371 0.984 . S
H377 N371 0.985 . S
H378 N375 0.984 . S
H379 N375 0.985 . S
H380 N374 0.984 . S
H381 N374 0.984 . S
H382 N370 0.984 . S
H383 N370 0.985 . S
C384 C385 1.363 . S
C384 C390 1.379 . S
C384 N392 1.356 . S
C385 C384 1.363 . S
C385 C391 1.363 . S
C386 C387 1.363 . S
C386 C391 1.379 . S
C386 N393 1.356 . S
C387 C386 1.363 . S
C387 C390 1.363 . S
N388 C390 1.356 . S
N388 H400 0.984 . S
N388 H401 0.985 . S
N389 C391 1.356 . S
N389 H394 0.984 . S
N389 H395 0.985 . S
C390 C384 1.379 . S
C390 C387 1.363 . S
C390 N388 1.356 . S
C391 C385 1.363 . S
C391 C386 1.379 . S
C391 N389 1.356 . S
N392 C384 1.356 . S
N392 H398 0.984 . S
N392 H399 0.984 . S
N393 C386 1.356 . S
N393 H396 0.984 . S
N393 H397 0.985 . S
H394 N389 0.984 . S
H395 N389 0.985 . S
H396 N393 0.984 . S
H397 N393 0.985 . S
H398 N392 0.984 . S
H399 N392 0.984 . S
H400 N388 0.984 . S
H401 N388 0.985 . S
C402 C403 1.363 . S
C402 C408 1.379 1_554 S
C402 N410 1.356 . S
C403 C402 1.363 . S
C403 C409 1.363 1_554 S
C404 C405 1.363 . S
C404 C409 1.379 . S
C404 N411 1.356 . S
C405 C404 1.363 . S
C405 C408 1.363 . S
N406 C408 1.356 . S
N406 H418 0.984 . S
N406 H419 0.985 . S
N407 C409 1.356 1_554 S
N407 H412 0.984 . S
N407 H413 0.985 . S
C408 C402 1.379 1_556 S
C408 C405 1.363 . S
C408 N406 1.356 . S
C409 C403 1.363 1_556 S
C409 C404 1.379 . S
C409 N407 1.356 1_556 S
N410 C402 1.356 . S
N410 H416 0.984 . S
N410 H417 0.984 . S
N411 C404 1.356 . S
N411 H414 0.984 . S
N411 H415 0.985 . S
H412 N407 0.984 . S
H413 N407 0.985 . S
H414 N411 0.984 . S
H415 N411 0.985 . S
H416 N410 0.984 . S
H417 N410 0.984 . S
H418 N406 0.984 . S
H419 N406 0.985 . S
C420 C421 1.363 . S
C420 C426 1.379 . S
C420 N428 1.356 . S
C421 C420 1.363 . S
C421 C427 1.363 . S
C422 C423 1.363 . S
C422 C427 1.379 . S
C422 N429 1.356 . S
C423 C422 1.363 . S
C423 C426 1.363 . S
N424 C426 1.356 1_556 S
N424 H436 0.984 . S
N424 H437 0.985 . S
N425 C427 1.356 . S
N425 H430 0.984 . S
N425 H431 0.985 . S
C426 C420 1.379 . S
C426 C423 1.363 . S
C426 N424 1.356 1_554 S
C427 C421 1.363 . S
C427 C422 1.379 . S
C427 N425 1.356 . S
N428 C420 1.356 . S
N428 H434 0.984 . S
N428 H435 0.984 . S
N429 C422 1.356 . S
N429 H432 0.984 . S
N429 H433 0.985 . S
H430 N425 0.984 . S
H431 N425 0.985 . S
H432 N429 0.984 . S
H433 N429 0.985 . S
H434 N428 0.984 . S
H435 N428 0.984 . S
H436 N424 0.984 . S
H437 N424 0.985 . S
C438 C439 1.363 . S
C438 C444 1.379 . S
C438 N446 1.356 . S
C439 C438 1.363 . S
C439 C445 1.363 . S
C440 C441 1.363 . S
C440 C445 1.379 . S
C440 N447 1.356 . S
C441 C440 1.363 . S
C441 C444 1.363 . S
N442 C444 1.356 . S
N442 H454 0.984 . S
N442 H455 0.985 . S
N443 C445 1.356 . S
N443 H448 0.984 . S
N443 H449 0.985 . S
C444 C438 1.379 . S
C444 C441 1.363 . S
C444 N442 1.356 . S
C445 C439 1.363 . S
C445 C440 1.379 . S
C445 N443 1.356 . S
N446 C438 1.356 . S
N446 H452 0.984 . S
N446 H453 0.984 . S
N447 C440 1.356 . S
N447 H450 0.984 . S
N447 H451 0.985 . S
H448 N443 0.984 . S
H449 N443 0.985 . S
H450 N447 0.984 . S
H451 N447 0.985 . S
H452 N446 0.984 . S
H453 N446 0.984 . S
H454 N442 0.984 . S
H455 N442 0.985 . S
C456 C457 1.363 . S
C456 C462 1.379 . S
C456 N464 1.356 . S
C457 C456 1.363 . S
C457 C463 1.363 . S
C458 C459 1.363 . S
C458 C463 1.379 . S
C458 N465 1.356 . S
C459 C458 1.363 . S
C459 C462 1.363 . S
N460 C462 1.356 . S
N460 H472 0.984 . S
N460 H473 0.985 . S
N461 C463 1.356 . S
N461 H466 0.984 . S
N461 H467 0.985 . S
C462 C456 1.379 . S
C462 C459 1.363 . S
C462 N460 1.356 . S
C463 C457 1.363 . S
C463 C458 1.379 . S
C463 N461 1.356 . S
N464 C456 1.356 . S
N464 H470 0.984 . S
N464 H471 0.984 . S
N465 C458 1.356 . S
N465 H468 0.984 . S
N465 H469 0.985 . S
H466 N461 0.984 . S
H467 N461 0.985 . S
H468 N465 0.984 . S
H469 N465 0.985 . S
H470 N464 0.984 . S
H471 N464 0.984 . S
H472 N460 0.984 . S
H473 N460 0.985 . S
C474 C475 1.363 . S
C474 C480 1.379 . S
C474 N482 1.356 . S
C475 C474 1.363 . S
C475 C481 1.363 . S
C476 C477 1.363 . S
C476 C481 1.379 . S
C476 N483 1.356 . S
C477 C476 1.363 . S
C477 C480 1.363 . S
N478 C480 1.356 . S
N478 H490 0.984 . S
N478 H491 0.985 . S
N479 C481 1.356 . S
N479 H484 0.984 . S
N479 H485 0.985 . S
C480 C474 1.379 . S
C480 C477 1.363 . S
C480 N478 1.356 . S
C481 C475 1.363 . S
C481 C476 1.379 . S
C481 N479 1.356 . S
N482 C474 1.356 . S
N482 H488 0.984 . S
N482 H489 0.984 . S
N483 C476 1.356 . S
N483 H486 0.984 . S
N483 H487 0.985 . S
H484 N479 0.984 . S
H485 N479 0.985 . S
H486 N483 0.984 . S
H487 N483 0.985 . S
H488 N482 0.984 . S
H489 N482 0.984 . S
H490 N478 0.984 . S
H491 N478 0.985 . S
C492 C493 1.363 . S
C492 C498 1.389 . S
C492 N500 1.356 . S
C493 C492 1.363 . S
C493 C499 1.358 1_455 S
C494 C495 1.363 . S
C494 C499 1.389 . S
C494 N501 1.356 . S
C495 C494 1.363 . S
C495 C498 1.358 1_655 S
N496 C498 1.349 1_655 S
N496 H508 0.984 1_655 S
N496 H509 0.985 . S
N497 C499 1.349 1_454 S
N497 H502 0.984 . S
N497 H503 0.985 1_455 S
C498 C492 1.389 . S
C498 C495 1.358 1_455 S
C498 N496 1.349 1_455 S
C499 C493 1.358 1_655 S
C499 C494 1.389 . S
C499 N497 1.349 1_656 S
N500 C492 1.356 . S
N500 H506 0.984 . S
N500 H507 0.984 . S
N501 C494 1.356 . S
N501 H504 0.984 . S
N501 H505 0.985 . S
H502 N497 0.984 . S
H503 N497 0.985 1_655 S
H504 N501 0.984 . S
H505 N501 0.985 . S
H506 N500 0.984 . S
H507 N500 0.984 . S
H508 N496 0.984 1_455 S
H509 N496 0.985 . S
C510 C511 1.363 1_545 S
C510 C516 1.379 1_556 S
C510 N518 1.356 . S
C511 C510 1.363 1_565 S
C511 C517 1.363 1_556 S
C512 C513 1.363 1_565 S
C512 C517 1.379 . S
C512 N519 1.356 . S
C513 C512 1.363 1_545 S
C513 C516 1.363 . S
N514 C516 1.356 . S
N514 H526 0.984 1_554 S
N514 H527 0.985 . S
N515 C517 1.356 . S
N515 H520 0.984 . S
N515 H521 0.985 . S
C516 C510 1.379 1_554 S
C516 C513 1.363 . S
C516 N514 1.356 . S
C517 C511 1.363 1_554 S
C517 C512 1.379 . S
C517 N515 1.356 . S
N518 C510 1.356 . S
N518 H524 0.984 . S
N518 H525 0.984 1_545 S
N519 C512 1.356 . S
N519 H522 0.984 1_565 S
N519 H523 0.985 . S
H520 N515 0.984 . S
H521 N515 0.985 . S
H522 N519 0.984 1_545 S
H523 N519 0.985 . S
H524 N518 0.984 . S
H525 N518 0.984 1_565 S
H526 N514 0.984 1_556 S
H527 N514 0.985 . S
C528 C529 1.363 . S
C528 C534 1.379 . S
C528 N536 1.356 . S
C529 C528 1.363 . S
C529 C535 1.363 . S
C530 C531 1.363 . S
C530 C535 1.379 . S
C530 N537 1.356 . S
C531 C530 1.363 . S
C531 C534 1.363 . S
N532 C534 1.356 . S
N532 H544 0.984 . S
N532 H545 0.985 . S
N533 C535 1.356 . S
N533 H538 0.984 . S
N533 H539 0.985 . S
C534 C528 1.379 . S
C534 C531 1.363 . S
C534 N532 1.356 . S
C535 C529 1.363 . S
C535 C530 1.379 . S
C535 N533 1.356 . S
N536 C528 1.356 . S
N536 H542 0.984 . S
N536 H543 0.984 . S
N537 C530 1.356 . S
N537 H540 0.984 . S
N537 H541 0.985 . S
H538 N533 0.984 . S
H539 N533 0.985 . S
H540 N537 0.984 . S
H541 N537 0.985 . S
H542 N536 0.984 . S
H543 N536 0.984 . S
H544 N532 0.984 . S
H545 N532 0.985 . S
C546 C547 1.363 . S
C546 C552 1.379 . S
C546 N554 1.356 . S
C547 C546 1.363 . S
C547 C553 1.363 1_455 S
C548 C549 1.363 . S
C548 C553 1.379 . S
C548 N555 1.356 . S
C549 C548 1.363 . S
C549 C552 1.363 1_655 S
N550 C552 1.356 . S
N550 H562 0.984 . S
N550 H563 0.985 1_455 S
N551 C553 1.356 . S
N551 H556 0.984 1_655 S
N551 H557 0.985 . S
C552 C546 1.379 . S
C552 C549 1.363 1_455 S
C552 N550 1.356 . S
C553 C547 1.363 1_655 S
C553 C548 1.379 . S
C553 N551 1.356 . S
N554 C546 1.356 . S
N554 H560 0.984 . S
N554 H561 0.984 . S
N555 C548 1.356 . S
N555 H558 0.984 . S
N555 H559 0.985 . S
H556 N551 0.984 1_455 S
H557 N551 0.985 . S
H558 N555 0.984 . S
H559 N555 0.985 . S
H560 N554 0.984 . S
H561 N554 0.984 . S
H562 N550 0.984 . S
H563 N550 0.985 1_655 S
C564 C565 1.363 . S
C564 C570 1.379 . S
C564 N572 1.356 . S
C565 C564 1.363 . S
C565 C571 1.363 1_545 S
C566 C567 1.363 . S
C566 C571 1.379 . S
C566 N573 1.356 . S
C567 C566 1.363 . S
C567 C570 1.363 1_565 S
N568 C570 1.356 . S
N568 H580 0.984 . S
N568 H581 0.985 1_545 S
N569 C571 1.356 . S
N569 H574 0.984 1_565 S
N569 H575 0.985 . S
C570 C564 1.379 . S
C570 C567 1.363 1_545 S
C570 N568 1.356 . S
C571 C565 1.363 1_565 S
C571 C566 1.379 . S
C571 N569 1.356 . S
N572 C564 1.356 . S
N572 H578 0.984 . S
N572 H579 0.984 . S
N573 C566 1.356 . S
N573 H576 0.984 . S
N573 H577 0.985 . S
H574 N569 0.984 1_545 S
H575 N569 0.985 . S
H576 N573 0.984 . S
H577 N573 0.985 . S
H578 N572 0.984 . S
H579 N572 0.984 . S
H580 N568 0.984 . S
H581 N568 0.985 1_565 S
C582 C583 1.363 . S
C582 C588 1.379 . S
C582 N590 1.356 . S
C583 C582 1.363 . S
C583 C589 1.363 . S
C584 C585 1.363 . S
C584 C589 1.379 . S
C584 N591 1.356 . S
C585 C584 1.363 . S
C585 C588 1.363 . S
N586 C588 1.356 . S
N586 H598 0.984 . S
N586 H599 0.985 . S
N587 C589 1.356 . S
N587 H592 0.984 . S
N587 H593 0.985 . S
C588 C582 1.379 . S
C588 C585 1.363 . S
C588 N586 1.356 . S
C589 C583 1.363 . S
C589 C584 1.379 . S
C589 N587 1.356 . S
N590 C582 1.356 . S
N590 H596 0.984 . S
N590 H597 0.984 . S
N591 C584 1.356 . S
N591 H594 0.984 . S
N591 H595 0.985 . S
H592 N587 0.984 . S
H593 N587 0.985 . S
H594 N591 0.984 . S
H595 N591 0.985 . S
H596 N590 0.984 . S
H597 N590 0.984 . S
H598 N586 0.984 . S
H599 N586 0.985 . S
C169 C8 1.440 . S
C171 C148 1.440 . S
C187 C162 1.440 . S
C189 C22 1.440 . S
C205 C36 1.440 . S
C207 C92 1.440 . S
C223 C50 1.440 . S
C225 C106 1.440 . S
C241 C64 1.440 . S
C243 C120 1.440 . S
C259 C134 1.440 . S
C261 C78 1.440 . S
C277 C13 1.458 . S
C279 C125 1.458 . S
C295 C27 1.459 . S
C297 C139 1.458 . S
C313 C153 1.459 . S
C315 C41 1.458 . S
C331 C55 1.459 . S
C333 C167 1.459 . S
C349 C69 1.458 . S
C351 C97 1.458 . S
C367 C83 1.458 . S
C369 C111 1.458 1_556 S
C385 C147 1.015 . S
C387 C7 1.015 . S
C403 C21 1.015 . S
C405 C161 1.015 . S
C421 C35 1.015 . S
C423 C91 1.015 . S
C439 C49 1.015 . S
C441 C105 1.015 . S
C457 C119 1.015 . S
C459 C63 1.015 . S
C475 C77 1.015 . S
C477 C133 1.015 . S
C493 C11 1.520 1_556 S
C495 C165 1.521 . S
C511 C95 1.521 . S
C513 C25 1.521 . S
C529 C109 1.521 . S
C531 C39 1.521 . S
C547 C123 1.521 . S
C549 C53 1.521 . S
C565 C137 1.521 . S
C567 C67 1.521 . S
C583 C151 1.521 . S
C585 C81 1.521 . S
