# Generated by pormake.
# Topology nbo, (4)-cn, num edge types: 1
# Building blocks:
#     Node 0, Type 0, BuildingBlock: KOZSID_clean_sbu_0, # of connection points: 4
#     Node 1, Type 0, BuildingBlock: KOZSID_clean_sbu_0, # of connection points: 4
#     Node 2, Type 0, BuildingBlock: KOZSID_clean_sbu_0, # of connection points: 4
#     Node 3, Type 0, BuildingBlock: KOZSID_clean_sbu_0, # of connection points: 4
#     Node 4, Type 0, BuildingBlock: KOZSID_clean_sbu_0, # of connection points: 4
#     Node 5, Type 0, BuildingBlock: KOZSID_clean_sbu_0, # of connection points: 4
#     Edge 6, Type (0, 0), BuildingBlock: OJICUG_clean_linker_0, # of connection points: 2
#     Edge 7, Type (0, 0), BuildingBlock: OJICUG_clean_linker_0, # of connection points: 2
#     Edge 8, Type (0, 0), BuildingBlock: OJICUG_clean_linker_0, # of connection points: 2
#     Edge 9, Type (0, 0), BuildingBlock: OJICUG_clean_linker_0, # of connection points: 2
#     Edge 10, Type (0, 0), BuildingBlock: OJICUG_clean_linker_0, # of connection points: 2
#     Edge 11, Type (0, 0), BuildingBlock: OJICUG_clean_linker_0, # of connection points: 2
#     Edge 12, Type (0, 0), BuildingBlock: OJICUG_clean_linker_0, # of connection points: 2
#     Edge 13, Type (0, 0), BuildingBlock: OJICUG_clean_linker_0, # of connection points: 2
#     Edge 14, Type (0, 0), BuildingBlock: OJICUG_clean_linker_0, # of connection points: 2
#     Edge 15, Type (0, 0), BuildingBlock: OJICUG_clean_linker_0, # of connection points: 2
#     Edge 16, Type (0, 0), BuildingBlock: OJICUG_clean_linker_0, # of connection points: 2
#     Edge 17, Type (0, 0), BuildingBlock: OJICUG_clean_linker_0, # of connection points: 2
# Relax obj value: 0.000
# Max RMSD: 0.000
# Mean RMSD: 0.000
data_MOF--net-nbo--node1-KOZSID_clean_sbu_0--edge1-OJICUG_clean_linker_0
_symmetry_space_group_name_H-M    P1
_symmetry_Int_Tables_number       1
_symmetry_cell_setting            triclinic
loop_
_symmetry_equiv_pos_as_xyz
'x, y, z'
_cell_length_a     25.219239
_cell_length_b     30.923708
_cell_length_c     28.17753
_cell_angle_alpha  106.24271
_cell_angle_beta   107.56146
_cell_angle_gamma 107.06073
loop_
_atom_site_label
_atom_site_type_symbol
_atom_site_fract_x
_atom_site_fract_y
_atom_site_fract_z
_atom_type_partial_charge
C0 C 0.86344 0.97573 0.45044 0.0
C1 C 0.81096 0.94838 0.4022 0.0
C2 C 0.82964 0.93729 0.36147 0.0
C3 C 0.8921 0.95799 0.38706 0.0
N4 N 0.91459 0.98099 0.44178 0.0
Co5 Co 1.00273 0.01553 0.49465 0.0
N6 N 0.03034 1.00353 0.43411 0.0
C7 C 0.9942 0.97981 0.38007 0.0
C8 C 0.02554 0.97497 0.34829 0.0
C9 C 0.08541 0.9966 0.384 0.0
C10 C 0.08727 1.01393 0.43591 0.0
N11 N 0.09088 0.04994 0.5475 0.0
C12 C 0.14215 0.05701 0.53863 0.0
C13 C 0.19453 0.08374 0.58702 0.0
C14 C 0.17575 0.09264 0.62794 0.0
C15 C 0.11327 0.07137 0.60238 0.0
N16 N 0.97499 0.02792 0.55509 0.0
C17 C 0.01098 0.0512 0.60918 0.0
C18 C 0.97958 0.05745 0.64073 0.0
C19 C 0.91994 0.03757 0.60476 0.0
C20 C 0.91823 0.01972 0.55299 0.0
N21 N 1.00185 0.95147 0.49794 0.0
C22 C 1.00362 0.86157 0.50293 0.0
C23 C 0.02333 0.90329 0.55022 0.0
C24 C 0.02276 0.94756 0.54687 0.0
C25 C 0.98267 0.86548 0.4531 0.0
C26 C 0.98146 0.9101 0.4515 0.0
N27 N 1.00368 0.07946 0.49156 0.0
C28 C 0.02508 0.16568 0.53753 0.0
C29 C 1.00126 0.16941 0.48802 0.0
C30 C 0.97927 0.12755 0.44016 0.0
C31 C 0.98021 0.08311 0.44283 0.0
C32 C 0.02661 0.12104 0.53838 0.0
H33 H 0.96119 0.05207 0.40498 0.0
H34 H 0.04637 0.12112 0.57751 0.0
H35 H 0.03997 0.97817 0.58457 0.0
H36 H 0.96394 0.91011 0.41212 0.0
C37 C 0.93074 0.95913 0.36059 0.0
C38 C 0.86221 0.99751 0.50302 0.0
C39 C 0.14374 0.0377 0.48564 0.0
C40 C 0.07452 0.07059 0.62882 0.0
H41 H 0.76402 0.93833 0.39686 0.0
H42 H 0.80112 0.91756 0.31823 0.0
H43 H 0.00694 0.95641 0.30443 0.0
H44 H 0.12296 0.99798 0.37267 0.0
H45 H 0.24153 0.09507 0.59224 0.0
H46 H 0.20424 0.11197 0.67121 0.0
H47 H 0.99811 0.07608 0.68457 0.0
H48 H 0.88245 0.03775 0.61574 0.0
H49 H 0.0404 0.90213 0.58983 0.0
H50 H 0.96639 0.83394 0.41531 0.0
H51 H 0.04324 0.19738 0.57564 0.0
H52 H 0.96015 0.12876 0.40083 0.0
C53 C 0.56723 0.04974 0.13429 0.0
C54 C 0.62377 0.07232 0.17838 0.0
C55 C 0.66661 0.083 0.1583 0.0
C56 C 0.63398 0.06652 0.10335 0.0
N57 N 0.57277 0.04635 0.08703 0.0
Co58 Co 0.50857 0.01668 0.0104 0.0
N59 N 0.57187 0.02921 0.98041 0.0
C60 C 0.63324 0.05036 0.00916 0.0
C61 C 0.66517 0.05562 0.978 0.0
C62 C 0.62173 0.03713 0.9262 0.0
C63 C 0.56547 0.02137 0.92869 0.0
N64 N 0.44437 0.98712 0.93384 0.0
C65 C 0.44994 0.98344 0.88654 0.0
C66 C 0.39336 0.96075 0.84245 0.0
C67 C 0.35051 0.95052 0.86261 0.0
C68 C 0.38315 0.96723 0.9176 0.0
N69 N 0.44531 1.00401 0.04044 0.0
C70 C 0.38394 0.9829 0.01178 0.0
C71 C 0.35212 0.97772 0.04307 0.0
C72 C 0.39568 0.99615 0.09485 0.0
C73 C 0.45182 1.01165 0.09215 0.0
N74 N 0.50863 0.08271 0.01797 0.0
C75 C 0.50765 0.17469 0.02056 0.0
C76 C 0.45352 0.13357 0.00369 0.0
C77 C 0.45502 0.08845 0.00244 0.0
C78 C 0.56247 0.16908 0.03772 0.0
C79 C 0.56194 0.12343 0.03662 0.0
N80 N 0.5084 0.95061 0.0026 0.0
C81 C 0.45394 0.8635 0.9793 0.0
C82 C 0.50859 0.85764 0.99623 0.0
C83 C 0.56307 0.89919 0.01532 0.0
C84 C 0.56195 0.94482 0.01846 0.0
C85 C 0.45488 0.90967 0.98237 0.0
H86 H 0.60511 0.97496 0.03424 0.0
H87 H 0.41166 0.91138 0.96874 0.0
H88 H 0.41203 0.05863 0.98817 0.0
H89 H 0.60526 0.12187 0.05031 0.0
C90 C 0.65948 0.06718 0.06579 0.0
C91 C 0.5098 0.03141 0.13946 0.0
C92 C 0.50746 1.0014 0.88129 0.0
C93 C 0.35763 0.96641 0.95516 0.0
H94 H 0.63303 0.07971 0.22062 0.0
H95 H 0.71574 0.09988 0.18093 0.0
H96 H 0.71422 0.07208 0.99154 0.0
H97 H 0.63065 0.0364 0.89082 0.0
H98 H 0.38402 0.95288 0.80013 0.0
H99 H 0.30138 0.93357 0.83998 0.0
H100 H 0.30309 0.96149 0.02965 0.0
H101 H 0.38706 0.99719 0.13043 0.0
H102 H 0.40978 0.1359 0.99134 0.0
H103 H 0.60585 0.19937 0.05084 0.0
H104 H 0.41034 0.83293 0.96475 0.0
H105 H 0.60675 0.89678 0.02786 0.0
C106 C 0.14349 0.5519 0.04931 0.0
C107 C 0.19715 0.59447 0.08105 0.0
C108 C 0.18054 0.63291 0.09326 0.0
C109 C 0.11802 0.61168 0.06885 0.0
N110 N 0.09355 0.56187 0.04252 0.0
Co111 Co 0.00467 0.51613 0.00229 0.0
N112 N 0.98018 0.57303 0.01772 0.0
C113 C 0.01785 0.62171 0.04515 0.0
C114 C 0.98807 0.65189 0.05231 0.0
C115 C 0.92775 0.62072 0.0287 0.0
C116 C 0.92411 0.57302 0.00791 0.0
N117 N 0.9158 0.47041 0.9621 0.0
C118 C 0.8659 0.48034 0.95608 0.0
C119 C 0.81219 0.4378 0.92449 0.0
C120 C 0.82874 0.39939 0.9116 0.0
C121 C 0.89128 0.42063 0.93551 0.0
N122 N 0.02914 0.45922 0.98689 0.0
C123 C 0.99144 0.41057 0.95916 0.0
C124 C 0.02122 0.38036 0.95231 0.0
C125 C 0.08159 0.41146 0.97654 0.0
C126 C 0.08527 0.45917 0.99737 0.0
N127 N 1.00293 0.51102 0.07078 0.0
C128 C 0.99781 0.50443 0.16754 0.0
C129 C 0.97229 0.46207 0.11939 0.0
C130 C 0.97519 0.46618 0.07189 0.0
C131 C 0.0263 0.55004 0.16638 0.0
C132 C 0.02842 0.55245 0.11816 0.0
N133 N 0.00639 0.52125 0.93373 0.0
C134 C 0.9827 0.48232 0.83801 0.0
C135 C 0.01097 0.52795 0.8368 0.0
C136 C 0.03666 0.57026 0.88503 0.0
C137 C 0.03405 0.5661 0.93259 0.0
C138 C 0.98086 0.47985 0.8863 0.0
H139 H 0.05513 0.59967 0.96802 0.0
H140 H 0.95858 0.44391 0.88413 0.0
H141 H 0.95422 0.43259 0.03646 0.0
H142 H 0.0508 0.58837 0.1203 0.0
C143 C 0.08115 0.63763 0.06827 0.0
C144 C 0.14258 0.5034 0.0241 0.0
C145 C 0.86699 0.52873 0.98206 0.0
C146 C 0.92814 0.39466 0.93595 0.0
H147 H 0.24356 0.59752 0.09309 0.0
H148 H 0.21047 0.67179 0.11628 0.0
H149 H 0.00801 0.69167 0.07419 0.0
H150 H 0.89111 0.6321 0.02861 0.0
H151 H 0.76581 0.43474 0.91312 0.0
H152 H 0.79877 0.36051 0.88866 0.0
H153 H 1.00128 0.34058 0.93042 0.0
H154 H 0.11829 0.40004 0.97713 0.0
H155 H 0.94918 0.42586 0.11798 0.0
H156 H 0.04765 0.58392 0.20275 0.0
H157 H 0.96126 0.44846 0.8016 0.0
H158 H 0.05966 0.60649 0.88644 0.0
C159 C 0.58794 0.51119 0.94498 0.0
C160 C 0.58551 0.49326 0.89293 0.0
C161 C 0.52553 0.47218 0.85756 0.0
C162 C 0.49473 0.47788 0.88972 0.0
N163 N 0.53137 0.50176 0.94366 0.0
Co164 Co 0.50497 0.51452 0.00488 0.0
N165 N 0.41659 0.48 0.95269 0.0
C166 C 0.39333 0.45758 0.89782 0.0
C167 C 0.33083 0.43654 0.87294 0.0
C168 C 0.31294 0.44674 0.91431 0.0
C169 C 0.36589 0.47394 0.96219 0.0
N170 N 0.47854 0.52717 0.06611 0.0
C171 C 0.42197 0.51792 0.06476 0.0
C172 C 0.42434 0.53546 0.11682 0.0
C173 C 0.48429 0.55619 0.15222 0.0
C174 C 0.51515 0.55064 0.12008 0.0
N175 N 0.59337 0.54919 0.05708 0.0
C176 C 0.61661 0.57172 0.11195 0.0
C177 C 0.67911 0.5931 0.1368 0.0
C178 C 0.69702 0.58307 0.09542 0.0
C179 C 0.6441 0.55563 0.04755 0.0
N180 N 0.50578 0.57818 1.0015 0.0
C181 C 0.50701 0.66892 0.99742 0.0
C182 C 0.53005 0.66497 0.04706 0.0
C183 C 0.52941 0.61996 0.04813 0.0
C184 C 0.48287 0.62623 0.94975 0.0
C185 C 0.48235 0.58164 0.9527 0.0
N186 N 0.50427 0.4509 0.00835 0.0
C187 C 0.52961 0.40381 0.06057 0.0
C188 C 0.50501 0.36081 0.0132 0.0
C189 C 0.48001 0.36398 0.96336 0.0
C190 C 0.47975 0.40874 0.96191 0.0
C191 C 0.52914 0.448 0.05723 0.0
H192 H 0.45977 0.40829 0.92263 0.0
H193 H 0.54928 0.47934 0.09483 0.0
H194 H 0.54809 0.61997 0.08735 0.0
H195 H 0.46275 0.55048 0.91495 0.0
C196 C 0.4313 0.45807 0.87068 0.0
C197 C 0.64458 0.5348 0.99446 0.0
C198 C 0.36548 0.49506 0.01525 0.0
C199 C 0.57862 0.57084 0.13914 0.0
H200 H 0.62278 0.49397 0.88134 0.0
H201 H 0.50649 0.45342 0.8137 0.0
H202 H 0.30175 0.41681 0.8298 0.0
H203 H 0.26618 0.43613 0.90968 0.0
H204 H 0.38708 0.53483 0.12839 0.0
H205 H 0.5033 0.57479 0.1961 0.0
H206 H 0.70818 0.61294 0.17992 0.0
H207 H 0.7438 0.59401 0.10004 0.0
H208 H 0.548 0.69632 0.08537 0.0
H209 H 0.46496 0.62708 0.91009 0.0
H210 H 0.54876 0.40355 0.10039 0.0
H211 H 0.46132 0.33226 0.92523 0.0
C212 C 0.06689 0.55234 0.62595 0.0
C213 C 0.12438 0.57465 0.66878 0.0
C214 C 0.16565 0.58361 0.64678 0.0
C215 C 0.13118 0.56646 0.59204 0.0
N216 N 0.0703 0.54755 0.5777 0.0
Co217 Co 1.00376 0.51728 0.5022 0.0
N218 N 0.06461 0.52666 0.46935 0.0
C219 C 0.12619 0.54669 0.49621 0.0
C220 C 0.15607 0.54945 0.46311 0.0
C221 C 0.11098 0.53052 0.412 0.0
C222 C 0.05593 0.51714 0.41692 0.0
N223 N 0.93721 0.4871 0.42675 0.0
C224 C 0.94063 0.48179 0.37842 0.0
C225 C 0.88313 0.45971 0.33563 0.0
C226 C 0.84186 0.45139 0.35773 0.0
C227 C 0.87633 0.46868 0.41249 0.0
N228 N 0.94293 0.50775 0.5351 0.0
C229 C 0.88135 0.48775 0.50827 0.0
C230 C 0.85149 0.48444 0.54132 0.0
C231 C 0.89658 0.50289 0.59234 0.0
C232 C 0.95161 0.51656 0.58743 0.0
N233 N 0.00557 0.58385 0.50869 0.0
C234 C 0.00679 0.67627 0.51075 0.0
C235 C 0.95254 0.63678 0.49708 0.0
C236 C 0.95285 0.59122 0.49578 0.0
C237 C 0.06063 0.66909 0.52454 0.0
C238 C 0.05915 0.62327 0.52404 0.0
N239 N 1.00189 0.45073 0.4955 0.0
C240 C 0.94603 0.36459 0.47584 0.0
C241 C 0.99974 0.35723 0.48931 0.0
C242 C 0.05447 0.39726 0.50539 0.0
C243 C 0.05462 0.44339 0.50879 0.0
C244 C 0.948 0.411 0.47847 0.0
H245 H 0.09808 0.47266 0.52281 0.0
H246 H 0.90531 0.41383 0.46675 0.0
H247 H 0.90965 0.56235 0.48343 0.0
H248 H 0.10192 0.62058 0.53581 0.0
C249 C 0.15458 0.56485 0.55288 0.0
C250 C 0.01061 0.53541 0.63318 0.0
C251 C 0.99693 0.49793 0.37106 0.0
C252 C 0.85294 0.47009 0.45165 0.0
H253 H 0.13528 0.58287 0.7114 0.0
H254 H 0.21492 0.59964 0.66799 0.0
H255 H 0.20486 0.56457 0.47491 0.0
H256 H 0.11797 0.5279 0.37543 0.0
H257 H 0.87224 0.4511 0.29294 0.0
H258 H 0.79259 0.43547 0.33653 0.0
H259 H 0.8027 0.46923 0.52952 0.0
H260 H 0.88961 0.50498 0.62883 0.0
H261 H 0.90962 0.64057 0.4859 0.0
H262 H 0.10392 0.69888 0.53611 0.0
H263 H 0.90245 0.33446 0.46273 0.0
H264 H 0.09731 0.39335 0.51665 0.0
C265 C 0.64026 0.04964 0.54374 0.0
C266 C 0.69444 0.091 0.57857 0.0
C267 C 0.67874 0.12686 0.60373 0.0
C268 C 0.61619 0.10538 0.58314 0.0
N269 N 0.59152 0.0583 0.54665 0.0
Co270 Co 0.50326 1.01349 0.50801 0.0
N271 N 0.4793 0.07005 0.52465 0.0
C272 C 0.51653 0.11636 0.56236 0.0
C273 C 0.48749 0.14738 0.5675 0.0
C274 C 0.42787 0.11874 0.53165 0.0
C275 C 0.42376 0.07152 0.50638 0.0
N276 N 0.41492 0.96835 0.4692 0.0
C277 C 0.36523 0.9785 0.45364 0.0
C278 C 0.31195 0.93526 0.42526 0.0
C279 C 0.32869 0.89703 0.42528 0.0
C280 C 0.39105 0.91882 0.45283 0.0
N281 N 0.52771 0.95729 0.49199 0.0
C282 C 0.49165 0.90922 0.47509 0.0
C283 C 0.52029 0.87867 0.46417 0.0
C284 C 0.57803 0.90936 0.47495 0.0
C285 C 0.58167 0.95724 0.49264 0.0
N286 N 0.50353 1.0084 0.57616 0.0
C287 C 0.5052 1.00435 0.67515 0.0
C288 C 0.55183 1.00021 0.65932 0.0
C289 C 0.55019 1.00238 0.60987 0.0
C290 C 0.45735 1.0097 0.63976 0.0
C291 C 0.45732 1.01152 0.5908 0.0
N292 N 0.5031 0.01852 0.43994 0.0
C293 C 0.47808 0.979 0.34442 0.0
C294 C 0.50649 0.02465 0.34296 0.0
C295 C 0.53256 0.06732 0.39123 0.0
C296 C 0.53051 0.06345 0.43914 0.0
C297 C 0.47677 0.97676 0.39297 0.0
H298 H 0.55174 0.09683 0.47569 0.0
H299 H 0.45469 0.94098 0.39237 0.0
H300 H 0.58704 0.99962 0.59917 0.0
H301 H 0.41974 0.01571 0.56505 0.0
C302 C 0.57911 0.13024 0.58958 0.0
C303 C 0.63702 1.00198 0.51124 0.0
C304 C 0.36538 0.02794 0.47257 0.0
C305 C 0.42874 0.89363 0.4585 0.0
H306 H 0.74044 0.09482 0.58521 0.0
H307 H 0.70916 0.16463 0.63196 0.0
H308 H 0.50719 0.18612 0.59437 0.0
H309 H 0.39136 0.13101 0.52667 0.0
H310 H 0.26556 0.93192 0.4083 0.0
H311 H 0.29898 0.85801 0.40683 0.0
H312 H 0.50044 0.83865 0.447 0.0
H313 H 0.6127 0.89741 0.46924 0.0
H314 H 0.59003 0.99632 0.6854 0.0
H315 H 0.41965 1.01212 0.64953 0.0
H316 H 0.45638 0.94503 0.30812 0.0
H317 H 0.5555 0.10344 0.39237 0.0
C318 C 0.02618 0.23933 0.45799 0.0
C319 C 0.99926 0.2167 0.48673 0.0
H320 H 0.04837 0.30204 0.4371 0.0
C321 C 0.97169 0.2402 0.51552 0.0
H322 H 0.048 0.22213 0.43572 0.0
C323 C 0.97085 0.28529 0.51545 0.0
C324 C 0.99884 0.30846 0.48766 0.0
H325 H 0.9505 0.2235 0.5379 0.0
H326 H 0.94937 0.3026 0.53807 0.0
C327 C 0.02665 0.28507 0.45902 0.0
C328 C 0.77624 0.9727 0.53116 0.0
C329 C 0.80412 0.99819 0.50503 0.0
H330 H 0.70269 0.95569 0.55564 0.0
C331 C 0.77607 0.02383 0.47985 0.0
H332 H 0.79686 0.95238 0.55045 0.0
C333 C 0.72102 0.024 0.48084 0.0
C334 C 0.69345 0.99891 0.50742 0.0
H335 H 0.79687 0.04373 0.45947 0.0
H336 H 0.70019 0.04412 0.46133 0.0
C337 C 0.72208 0.97398 0.53338 0.0
C338 C 0.03428 0.74566 0.48038 0.0
C339 C 0.00693 0.72422 0.50967 0.0
H340 H 0.05379 0.8054 0.45461 0.0
C341 C 0.97885 0.74848 0.53707 0.0
H342 H 0.05593 0.72765 0.45861 0.0
C343 C 0.97858 0.79339 0.53557 0.0
C344 C 0.00505 0.8144 0.50554 0.0
H345 H 0.95759 0.73291 0.56009 0.0
H346 H 0.95672 0.8113 0.55716 0.0
C347 C 0.03274 0.78995 0.47783 0.0
C348 C 0.28252 1.00862 0.50486 0.0
C349 C 0.30883 0.03151 0.47597 0.0
H350 H 0.20873 0.99157 0.52898 0.0
C351 C 0.28172 0.05797 0.45154 0.0
H352 H 0.30314 0.98868 0.52485 0.0
C353 C 0.229 0.06128 0.45585 0.0
C354 C 0.20154 0.03675 0.483 0.0
H355 H 0.30155 0.07623 0.42948 0.0
H356 H 0.20907 0.08232 0.43728 0.0
C357 C 0.22893 1.01058 0.50762 0.0
C358 C 0.51976 0.99173 0.25665 0.0
C359 C 0.50891 0.0274 0.29143 0.0
H360 H 0.52884 0.96545 0.1816 0.0
C361 C 0.49953 0.0651 0.27606 0.0
H362 H 0.52807 0.96261 0.26743 0.0
C363 C 0.50009 0.06659 0.22689 0.0
C364 C 0.51035 0.03062 0.19229 0.0
H365 H 0.49051 0.0929 0.30148 0.0
H366 H 0.49209 0.09561 0.21564 0.0
C367 C 0.52059 0.99341 0.20769 0.0
C368 C 0.98369 0.53665 0.25329 0.0
C369 C 0.99509 0.50135 0.21868 0.0
H370 H 0.97503 0.56279 0.3285 0.0
C371 C 0.0051 0.4638 0.23395 0.0
H372 H 0.97489 0.56561 0.24244 0.0
C373 C 0.00489 0.46223 0.28309 0.0
C374 C 0.99449 0.49803 0.31771 0.0
H375 H 0.01456 0.43631 0.20856 0.0
H376 H 0.01366 0.4335 0.2945 0.0
C377 C 0.98332 0.53495 0.30228 0.0
C378 C 0.52472 0.97073 0.74771 0.0
C379 C 0.50634 1.00358 0.72823 0.0
H380 H 0.53874 0.94396 0.81118 0.0
C381 C 0.48834 0.03556 0.75969 0.0
H382 H 0.53815 0.94521 0.72431 0.0
C383 C 0.48864 0.03466 0.80916 0.0
C384 C 0.5069 1.00182 0.82832 0.0
H385 H 0.4747 0.0618 0.74642 0.0
H386 H 0.4749 0.05983 0.8327 0.0
C387 C 0.52477 0.96975 0.79717 0.0
C388 C 0.0244 0.49786 0.70154 0.0
C389 C 0.01315 0.53491 0.68645 0.0
H390 H 0.03321 0.46688 0.76112 0.0
C391 C 1.00295 0.5706 0.72143 0.0
H392 H 0.03258 0.47011 0.67506 0.0
C393 C 1.00306 0.56882 0.77058 0.0
C394 C 0.0132 0.53116 0.78554 0.0
H395 H 0.99413 0.59945 0.71032 0.0
H396 H 0.99378 0.59624 0.79625 0.0
C397 C 0.02434 0.49593 0.75055 0.0
C398 C 0.22689 0.52431 0.99417 0.0
C399 C 0.19924 0.50018 0.02139 0.0
H400 H 0.30235 0.54247 0.97226 0.0
C401 C 0.22658 0.4745 0.04705 0.0
H402 H 0.20653 0.54443 0.97426 0.0
C403 C 0.2801 0.47202 0.04437 0.0
C404 C 0.30828 0.49693 0.01797 0.0
H405 H 0.20632 0.45621 0.06887 0.0
H406 H 0.29987 0.45112 0.06333 0.0
C407 C 0.28133 0.52312 0.99295 0.0
C408 C 0.55401 0.31275 0.05625 0.0
C409 C 0.50547 0.3132 0.01562 0.0
H410 H 0.59219 0.26957 0.09074 0.0
C411 C 0.45747 0.26763 0.97704 0.0
H412 H 0.5923 0.34688 0.0863 0.0
C413 C 0.45832 0.22302 0.97862 0.0
C414 C 0.50674 0.22253 0.01933 0.0
H415 H 0.41875 0.2662 0.94558 0.0
H416 H 0.42115 0.18887 0.94728 0.0
C417 C 0.55445 0.26813 0.05828 0.0
C418 C 0.78238 0.55718 0.96097 0.0
C419 C 0.81079 0.53178 0.98617 0.0
H420 H 0.70829 0.5797 0.94578 0.0
C421 C 0.78448 0.50753 0.01401 0.0
H422 H 0.80155 0.5755 0.93862 0.0
C423 C 0.73023 0.50827 0.01622 0.0
C424 C 0.70212 0.53407 0.99152 0.0
H425 H 0.80567 0.48758 0.03353 0.0
H426 H 0.71012 0.48872 0.03722 0.0
C427 C 0.72905 0.55919 0.96461 0.0
C428 C 0.55613 0.76211 0.03572 0.0
C429 C 0.50812 0.7171 0.9958 0.0
H430 H 0.59322 0.84096 0.0682 0.0
C431 C 0.46089 0.71877 0.95509 0.0
H432 H 0.594 0.76262 0.06721 0.0
C433 C 0.46145 0.76408 0.95465 0.0
C434 C 0.50889 0.80909 0.99526 0.0
H435 H 0.42274 0.6851 0.92393 0.0
H436 H 0.42458 0.76366 0.92227 0.0
C437 C 0.55626 0.80734 0.03571 0.0
loop_
_geom_bond_atom_site_label_1
_geom_bond_atom_site_label_2
_geom_bond_distance
_geom_bond_site_symmetry_2
_ccdc_geom_bond_type
C0 C1 1.443 . S
C0 N4 1.376 . S
C0 C38 1.389 . S
C1 C0 1.443 . S
C1 C2 1.340 . S
C1 H41 0.951 . S
C2 C1 1.340 . S
C2 C3 1.439 . S
C2 H42 0.950 . S
C3 C2 1.439 . S
C3 N4 1.374 . S
C3 C37 1.395 . S
N4 C0 1.376 . S
N4 C3 1.374 . S
N4 Co5 2.000 1_665 S
Co5 N4 2.000 1_445 S
Co5 N6 2.003 1_545 S
Co5 N11 2.016 . S
Co5 N16 1.987 1_455 S
Co5 N21 2.285 1_445 S
Co5 N27 2.280 . S
N6 Co5 2.003 1_565 S
N6 C7 1.376 . S
N6 C10 1.383 . S
C7 N6 1.376 . S
C7 C8 1.444 . S
C7 C37 1.393 1_455 S
C8 C7 1.444 . S
C8 C9 1.339 . S
C8 H43 0.949 . S
C9 C8 1.339 . S
C9 C10 1.439 . S
C9 H44 0.950 . S
C10 N6 1.383 . S
C10 C9 1.439 . S
C10 C39 1.392 1_565 S
N11 Co5 2.016 . S
N11 C12 1.376 . S
N11 C15 1.374 . S
C12 N11 1.376 . S
C12 C13 1.443 . S
C12 C39 1.389 . S
C13 C12 1.443 . S
C13 C14 1.340 . S
C13 H45 0.951 . S
C14 C13 1.340 . S
C14 C15 1.439 . S
C14 H46 0.950 . S
C15 N11 1.374 . S
C15 C14 1.439 . S
C15 C40 1.395 . S
N16 Co5 1.987 1_655 S
N16 C17 1.376 1_655 S
N16 C20 1.383 . S
C17 N16 1.376 1_455 S
C17 C18 1.446 1_455 S
C17 C40 1.391 . S
C18 C17 1.446 1_655 S
C18 C19 1.339 . S
C18 H47 0.949 . S
C19 C18 1.339 . S
C19 C20 1.439 . S
C19 H48 0.950 . S
C20 N16 1.383 . S
C20 C19 1.439 . S
C20 C38 1.393 1_545 S
N21 Co5 2.285 1_665 S
N21 C24 1.332 . S
N21 C26 1.332 . S
C22 C23 1.395 1_655 S
C22 C25 1.388 . S
C23 C22 1.395 1_455 S
C23 C24 1.382 1_455 S
C23 H49 0.950 . S
C24 N21 1.332 . S
C24 C23 1.382 1_655 S
C24 H35 0.952 1_655 S
C25 C22 1.388 . S
C25 C26 1.382 . S
C25 H50 0.950 . S
C26 N21 1.332 . S
C26 C25 1.382 . S
C26 H36 0.948 . S
N27 Co5 2.280 . S
N27 C31 1.332 . S
N27 C32 1.332 . S
C28 C29 1.388 . S
C28 C32 1.382 . S
C28 H51 0.950 . S
C29 C28 1.388 . S
C29 C30 1.386 1_455 S
C30 C29 1.386 1_655 S
C30 C31 1.382 1_655 S
C30 H52 0.950 . S
C31 N27 1.332 . S
C31 C30 1.382 1_455 S
C31 H33 0.952 1_455 S
C32 N27 1.332 . S
C32 C28 1.382 . S
C32 H34 0.948 . S
H33 C31 0.952 1_655 S
H34 C32 0.948 . S
H35 C24 0.952 1_455 S
H36 C26 0.948 . S
C37 C3 1.395 . S
C37 C7 1.393 1_655 S
C38 C0 1.389 . S
C38 C20 1.393 1_565 S
C39 C10 1.392 1_545 S
C39 C12 1.389 . S
C40 C15 1.395 . S
C40 C17 1.391 . S
H41 C1 0.951 . S
H42 C2 0.950 . S
H43 C8 0.949 . S
H44 C9 0.950 . S
H45 C13 0.951 . S
H46 C14 0.950 . S
H47 C18 0.949 . S
H48 C19 0.950 . S
H49 C23 0.950 . S
H50 C25 0.950 . S
H51 C28 0.950 . S
H52 C30 0.950 . S
C53 C54 1.443 . S
C53 N57 1.376 . S
C53 C91 1.389 . S
C54 C53 1.443 . S
C54 C55 1.340 . S
C54 H94 0.951 . S
C55 C54 1.340 . S
C55 C56 1.439 . S
C55 H95 0.950 . S
C56 C55 1.439 . S
C56 N57 1.374 . S
C56 C90 1.395 . S
N57 C53 1.376 . S
N57 C56 1.374 . S
N57 Co58 2.008 . S
Co58 N57 2.008 . S
Co58 N59 1.995 1_554 S
Co58 N64 2.008 1_544 S
Co58 N69 1.995 1_545 S
Co58 N74 2.282 . S
Co58 N80 2.282 1_544 S
N59 Co58 1.995 1_556 S
N59 C60 1.376 1_556 S
N59 C63 1.383 . S
C60 N59 1.376 1_554 S
C60 C61 1.446 1_554 S
C60 C90 1.391 . S
C61 C60 1.446 1_556 S
C61 C62 1.339 . S
C61 H96 0.949 . S
C62 C61 1.339 . S
C62 C63 1.439 . S
C62 H97 0.950 . S
C63 N59 1.383 . S
C63 C62 1.439 . S
C63 C92 1.394 1_545 S
N64 Co58 2.008 1_566 S
N64 C65 1.376 . S
N64 C68 1.374 . S
C65 N64 1.376 . S
C65 C66 1.443 . S
C65 C92 1.389 . S
C66 C65 1.443 . S
C66 C67 1.340 . S
C66 H98 0.951 . S
C67 C66 1.340 . S
C67 C68 1.439 . S
C67 H99 0.950 . S
C68 N64 1.374 . S
C68 C67 1.439 . S
C68 C93 1.395 . S
N69 Co58 1.995 1_565 S
N69 C70 1.378 . S
N69 C73 1.383 . S
C70 N69 1.378 . S
C70 C71 1.463 . S
C70 C93 1.374 1_554 S
C71 C70 1.463 . S
C71 C72 1.339 . S
C71 H100 0.949 . S
C72 C71 1.339 . S
C72 C73 1.439 . S
C72 H101 0.950 . S
C73 N69 1.383 . S
C73 C72 1.439 . S
C73 C91 1.392 1_565 S
N74 Co58 2.282 . S
N74 C77 1.332 . S
N74 C79 1.332 . S
C75 C76 1.386 1_554 S
C75 C78 1.388 . S
C76 C75 1.386 1_556 S
C76 C77 1.382 1_556 S
C76 H102 0.950 . S
C77 N74 1.332 . S
C77 C76 1.382 1_554 S
C77 H88 0.952 1_554 S
C78 C75 1.388 . S
C78 C79 1.382 . S
C78 H103 0.950 . S
C79 N74 1.332 . S
C79 C78 1.382 . S
C79 H89 0.948 . S
N80 Co58 2.282 1_566 S
N80 C84 1.333 1_556 S
N80 C85 1.332 . S
C81 C82 1.388 . S
C81 C85 1.382 . S
C81 H104 0.950 . S
C82 C81 1.388 . S
C82 C83 1.386 1_556 S
C83 C82 1.386 1_554 S
C83 C84 1.387 . S
C83 H105 0.950 . S
C84 N80 1.333 1_554 S
C84 C83 1.387 . S
C84 H86 0.945 . S
C85 N80 1.332 . S
C85 C81 1.382 . S
C85 H87 0.948 . S
H86 C84 0.945 . S
H87 C85 0.948 . S
H88 C77 0.952 1_556 S
H89 C79 0.948 . S
C90 C56 1.395 . S
C90 C60 1.391 . S
C91 C53 1.389 . S
C91 C73 1.392 1_545 S
C92 C63 1.394 1_565 S
C92 C65 1.389 . S
C93 C68 1.395 . S
C93 C70 1.374 1_556 S
H94 C54 0.951 . S
H95 C55 0.950 . S
H96 C61 0.949 . S
H97 C62 0.950 . S
H98 C66 0.951 . S
H99 C67 0.950 . S
H100 C71 0.949 . S
H101 C72 0.950 . S
H102 C76 0.950 . S
H103 C78 0.950 . S
H104 C81 0.950 . S
H105 C83 0.950 . S
C106 C107 1.443 . S
C106 N110 1.376 . S
C106 C144 1.389 . S
C107 C106 1.443 . S
C107 C108 1.340 . S
C107 H147 0.951 . S
C108 C107 1.340 . S
C108 C109 1.439 . S
C108 H148 0.950 . S
C109 C108 1.439 . S
C109 N110 1.374 . S
C109 C143 1.395 . S
N110 C106 1.376 . S
N110 C109 1.374 . S
N110 Co111 2.017 . S
Co111 N110 2.017 . S
Co111 N112 1.986 1_455 S
Co111 N117 2.000 1_454 S
Co111 N122 2.003 1_554 S
Co111 N127 2.280 . S
Co111 N133 2.285 1_454 S
N112 Co111 1.986 1_655 S
N112 C113 1.376 1_655 S
N112 C116 1.383 . S
C113 N112 1.376 1_455 S
C113 C114 1.446 1_455 S
C113 C143 1.391 . S
C114 C113 1.446 1_655 S
C114 C115 1.339 . S
C114 H149 0.949 . S
C115 C114 1.339 . S
C115 C116 1.439 . S
C115 H150 0.950 . S
C116 N112 1.383 . S
C116 C115 1.439 . S
C116 C145 1.395 1_554 S
N117 Co111 2.000 1_656 S
N117 C118 1.376 . S
N117 C121 1.374 . S
C118 N117 1.376 . S
C118 C119 1.443 . S
C118 C145 1.390 . S
C119 C118 1.443 . S
C119 C120 1.340 . S
C119 H151 0.951 . S
C120 C119 1.340 . S
C120 C121 1.439 . S
C120 H152 0.950 . S
C121 N117 1.374 . S
C121 C120 1.439 . S
C121 C146 1.395 . S
N122 Co111 2.003 1_556 S
N122 C123 1.376 . S
N122 C126 1.383 . S
C123 N122 1.376 . S
C123 C124 1.445 . S
C123 C146 1.392 1_455 S
C124 C123 1.445 . S
C124 C125 1.339 . S
C124 H153 0.949 . S
C125 C124 1.339 . S
C125 C126 1.439 . S
C125 H154 0.950 . S
C126 N122 1.383 . S
C126 C125 1.439 . S
C126 C144 1.392 1_556 S
N127 Co111 2.280 . S
N127 C130 1.332 . S
N127 C132 1.332 . S
C128 C129 1.386 1_455 S
C128 C131 1.388 . S
C129 C128 1.386 1_655 S
C129 C130 1.382 1_655 S
C129 H155 0.950 . S
C130 N127 1.332 . S
C130 C129 1.382 1_455 S
C130 H141 0.952 1_455 S
C131 C128 1.388 . S
C131 C132 1.382 . S
C131 H156 0.950 . S
C132 N127 1.332 . S
C132 C131 1.382 . S
C132 H142 0.948 . S
N133 Co111 2.285 1_656 S
N133 C137 1.332 . S
N133 C138 1.332 . S
C134 C135 1.388 . S
C134 C138 1.382 . S
C134 H157 0.950 . S
C135 C134 1.388 . S
C135 C136 1.395 1_655 S
C136 C135 1.395 1_455 S
C136 C137 1.382 1_455 S
C136 H158 0.950 . S
C137 N133 1.332 . S
C137 C136 1.382 1_655 S
C137 H139 0.951 1_655 S
C138 N133 1.332 . S
C138 C134 1.382 . S
C138 H140 0.948 . S
H139 C137 0.951 1_455 S
H140 C138 0.948 . S
H141 C130 0.952 1_655 S
H142 C132 0.948 . S
C143 C109 1.395 . S
C143 C113 1.391 . S
C144 C106 1.389 . S
C144 C126 1.392 1_554 S
C145 C116 1.395 1_556 S
C145 C118 1.390 . S
C146 C121 1.395 . S
C146 C123 1.392 1_655 S
H147 C107 0.951 . S
H148 C108 0.950 . S
H149 C114 0.949 . S
H150 C115 0.950 . S
H151 C119 0.951 . S
H152 C120 0.950 . S
H153 C124 0.949 . S
H154 C125 0.950 . S
H155 C129 0.950 . S
H156 C131 0.950 . S
H157 C134 0.950 . S
H158 C136 0.950 . S
C159 C160 1.443 . S
C159 N163 1.376 . S
C159 C197 1.380 1_556 S
C160 C159 1.443 . S
C160 C161 1.340 . S
C160 H200 0.951 . S
C161 C160 1.340 . S
C161 C162 1.439 . S
C161 H201 0.950 . S
C162 C161 1.439 . S
C162 N163 1.374 . S
C162 C196 1.395 . S
N163 C159 1.376 . S
N163 C162 1.374 . S
N163 Co164 2.008 1_556 S
Co164 N163 2.008 1_554 S
Co164 N165 1.995 1_554 S
Co164 N170 2.008 . S
Co164 N175 1.995 . S
Co164 N180 2.282 1_554 S
Co164 N186 2.282 . S
N165 Co164 1.995 1_556 S
N165 C166 1.376 . S
N165 C169 1.383 . S
C166 N165 1.376 . S
C166 C167 1.446 . S
C166 C196 1.391 . S
C167 C166 1.446 . S
C167 C168 1.339 . S
C167 H202 0.949 . S
C168 C167 1.339 . S
C168 C169 1.439 . S
C168 H203 0.950 . S
C169 N165 1.383 . S
C169 C168 1.439 . S
C169 C198 1.392 1_556 S
N170 Co164 2.008 . S
N170 C171 1.376 . S
N170 C174 1.374 . S
C171 N170 1.376 . S
C171 C172 1.443 . S
C171 C198 1.389 . S
C172 C171 1.443 . S
C172 C173 1.340 . S
C172 H204 0.951 . S
C173 C172 1.340 . S
C173 C174 1.439 . S
C173 H205 0.950 . S
C174 N170 1.374 . S
C174 C173 1.439 . S
C174 C199 1.395 . S
N175 Co164 1.995 . S
N175 C176 1.376 . S
N175 C179 1.383 . S
C176 N175 1.376 . S
C176 C177 1.446 . S
C176 C199 1.391 . S
C177 C176 1.446 . S
C177 C178 1.339 . S
C177 H206 0.949 . S
C178 C177 1.339 . S
C178 C179 1.439 . S
C178 H207 0.950 . S
C179 N175 1.383 . S
C179 C178 1.439 . S
C179 C197 1.404 . S
N180 Co164 2.282 1_556 S
N180 C183 1.332 1_556 S
N180 C185 1.332 . S
C181 C182 1.399 . S
C181 C184 1.380 1_554 S
C182 C181 1.399 . S
C182 C183 1.382 . S
C182 H208 0.950 . S
C183 N180 1.332 1_554 S
C183 C182 1.382 . S
C183 H194 0.952 . S
C184 C181 1.380 1_556 S
C184 C185 1.382 . S
C184 H209 0.950 . S
C185 N180 1.332 . S
C185 C184 1.382 . S
C185 H195 0.948 . S
N186 Co164 2.282 . S
N186 C190 1.332 1_554 S
N186 C191 1.332 . S
C187 C188 1.388 . S
C187 C191 1.382 . S
C187 H210 0.950 . S
C188 C187 1.388 . S
C188 C189 1.386 1_554 S
C189 C188 1.386 1_556 S
C189 C190 1.382 . S
C189 H211 0.950 . S
C190 N186 1.332 1_556 S
C190 C189 1.382 . S
C190 H192 0.952 . S
C191 N186 1.332 . S
C191 C187 1.382 . S
C191 H193 0.948 . S
H192 C190 0.952 . S
H193 C191 0.948 . S
H194 C183 0.952 . S
H195 C185 0.948 . S
C196 C162 1.395 . S
C196 C166 1.391 . S
C197 C159 1.380 1_554 S
C197 C179 1.404 . S
C198 C169 1.392 1_554 S
C198 C171 1.389 . S
C199 C174 1.395 . S
C199 C176 1.391 . S
H200 C160 0.951 . S
H201 C161 0.950 . S
H202 C167 0.949 . S
H203 C168 0.950 . S
H204 C172 0.951 . S
H205 C173 0.950 . S
H206 C177 0.949 . S
H207 C178 0.950 . S
H208 C182 0.950 . S
H209 C184 0.950 . S
H210 C187 0.950 . S
H211 C189 0.950 . S
C212 C213 1.443 . S
C212 N216 1.376 . S
C212 C250 1.389 . S
C213 C212 1.443 . S
C213 C214 1.340 . S
C213 H253 0.951 . S
C214 C213 1.340 . S
C214 C215 1.439 . S
C214 H254 0.950 . S
C215 C214 1.439 . S
C215 N216 1.374 . S
C215 C249 1.395 . S
N216 C212 1.376 . S
N216 C215 1.374 . S
N216 Co217 2.013 . S
Co217 N216 2.013 . S
Co217 N218 2.005 . S
Co217 N223 2.003 1_455 S
Co217 N228 1.984 1_455 S
Co217 N233 2.279 . S
Co217 N239 2.286 1_455 S
N218 Co217 2.005 . S
N218 C219 1.376 . S
N218 C222 1.383 . S
C219 N218 1.376 . S
C219 C220 1.446 . S
C219 C249 1.391 . S
C220 C219 1.446 . S
C220 C221 1.339 . S
C220 H255 0.949 . S
C221 C220 1.339 . S
C221 C222 1.439 . S
C221 H256 0.950 . S
C222 N218 1.383 . S
C222 C221 1.439 . S
C222 C251 1.391 1_455 S
N223 Co217 2.003 1_655 S
N223 C224 1.376 . S
N223 C227 1.374 . S
C224 N223 1.376 . S
C224 C225 1.443 . S
C224 C251 1.391 . S
C225 C224 1.443 . S
C225 C226 1.340 . S
C225 H257 0.951 . S
C226 C225 1.340 . S
C226 C227 1.439 . S
C226 H258 0.950 . S
C227 N223 1.374 . S
C227 C226 1.439 . S
C227 C252 1.395 . S
N228 Co217 1.984 1_655 S
N228 C229 1.376 . S
N228 C232 1.383 . S
C229 N228 1.376 . S
C229 C230 1.446 . S
C229 C252 1.391 . S
C230 C229 1.446 . S
C230 C231 1.339 . S
C230 H259 0.949 . S
C231 C230 1.339 . S
C231 C232 1.439 . S
C231 H260 0.950 . S
C232 N228 1.383 . S
C232 C231 1.439 . S
C232 C250 1.392 1_655 S
N233 Co217 2.279 . S
N233 C236 1.332 1_455 S
N233 C238 1.332 . S
C234 C235 1.386 1_455 S
C234 C237 1.388 . S
C235 C234 1.386 1_655 S
C235 C236 1.382 . S
C235 H261 0.950 . S
C236 N233 1.332 1_655 S
C236 C235 1.382 . S
C236 H247 0.952 . S
C237 C234 1.388 . S
C237 C238 1.382 . S
C237 H262 0.950 . S
C238 N233 1.332 . S
C238 C237 1.382 . S
C238 H248 0.948 . S
N239 Co217 2.286 1_655 S
N239 C243 1.332 1_655 S
N239 C244 1.332 . S
C240 C241 1.387 . S
C240 C244 1.382 . S
C240 H263 0.950 . S
C241 C240 1.387 . S
C241 C242 1.386 1_655 S
C242 C241 1.386 1_455 S
C242 C243 1.382 . S
C242 H264 0.950 . S
C243 N239 1.332 1_455 S
C243 C242 1.382 . S
C243 H245 0.952 . S
C244 N239 1.332 . S
C244 C240 1.382 . S
C244 H246 0.948 . S
H245 C243 0.952 . S
H246 C244 0.948 . S
H247 C236 0.952 . S
H248 C238 0.948 . S
C249 C215 1.395 . S
C249 C219 1.391 . S
C250 C212 1.389 . S
C250 C232 1.392 1_455 S
C251 C222 1.391 1_655 S
C251 C224 1.391 . S
C252 C227 1.395 . S
C252 C229 1.391 . S
H253 C213 0.951 . S
H254 C214 0.950 . S
H255 C220 0.949 . S
H256 C221 0.950 . S
H257 C225 0.951 . S
H258 C226 0.950 . S
H259 C230 0.949 . S
H260 C231 0.950 . S
H261 C235 0.950 . S
H262 C237 0.950 . S
H263 C240 0.950 . S
H264 C242 0.950 . S
C265 C266 1.443 . S
C265 N269 1.376 . S
C265 C303 1.389 . S
C266 C265 1.443 . S
C266 C267 1.340 . S
C266 H306 0.951 . S
C267 C266 1.340 . S
C267 C268 1.439 . S
C267 H307 0.950 . S
C268 C267 1.439 . S
C268 N269 1.374 . S
C268 C302 1.395 . S
N269 C265 1.376 . S
N269 C268 1.374 . S
N269 Co270 2.008 . S
Co270 N269 2.008 . S
Co270 N271 1.995 . S
Co270 N276 2.008 1_545 S
Co270 N281 1.995 1_545 S
Co270 N286 2.282 . S
Co270 N292 2.282 1_545 S
N271 Co270 1.995 . S
N271 C272 1.376 . S
N271 C275 1.383 . S
C272 N271 1.376 . S
C272 C273 1.446 . S
C272 C302 1.391 . S
C273 C272 1.446 . S
C273 C274 1.339 . S
C273 H308 0.949 . S
C274 C273 1.339 . S
C274 C275 1.439 . S
C274 H309 0.950 . S
C275 N271 1.383 . S
C275 C274 1.439 . S
C275 C304 1.406 . S
N276 Co270 2.008 1_565 S
N276 C277 1.376 . S
N276 C280 1.374 . S
C277 N276 1.376 . S
C277 C278 1.443 . S
C277 C304 1.370 1_565 S
C278 C277 1.443 . S
C278 C279 1.340 . S
C278 H310 0.951 . S
C279 C278 1.340 . S
C279 C280 1.439 . S
C279 H311 0.950 . S
C280 N276 1.374 . S
C280 C279 1.439 . S
C280 C305 1.395 . S
N281 Co270 1.995 1_565 S
N281 C282 1.376 . S
N281 C285 1.383 . S
C282 N281 1.376 . S
C282 C283 1.446 . S
C282 C305 1.391 . S
C283 C282 1.446 . S
C283 C284 1.339 . S
C283 H312 0.949 . S
C284 C283 1.339 . S
C284 C285 1.439 . S
C284 H313 0.950 . S
C285 N281 1.383 . S
C285 C284 1.439 . S
C285 C303 1.392 1_565 S
N286 Co270 2.282 . S
N286 C289 1.332 1_545 S
N286 C291 1.332 . S
C287 C288 1.386 1_545 S
C287 C290 1.388 . S
C288 C287 1.386 1_565 S
C288 C289 1.382 . S
C288 H314 0.950 . S
C289 N286 1.332 1_565 S
C289 C288 1.382 . S
C289 H300 0.952 . S
C290 C287 1.388 . S
C290 C291 1.382 . S
C290 H315 0.950 . S
C291 N286 1.332 . S
C291 C290 1.382 . S
C291 H301 0.948 . S
N292 Co270 2.282 1_565 S
N292 C296 1.332 1_565 S
N292 C297 1.332 . S
C293 C294 1.366 1_565 S
C293 C297 1.382 . S
C293 H316 0.950 . S
C294 C293 1.366 1_545 S
C294 C295 1.401 . S
C295 C294 1.401 . S
C295 C296 1.382 . S
C295 H317 0.950 . S
C296 N292 1.332 1_545 S
C296 C295 1.382 . S
C296 H298 0.952 . S
C297 N292 1.332 . S
C297 C293 1.382 . S
C297 H299 0.948 . S
H298 C296 0.952 . S
H299 C297 0.948 . S
H300 C289 0.952 . S
H301 C291 0.948 . S
C302 C268 1.395 . S
C302 C272 1.391 . S
C303 C265 1.389 . S
C303 C285 1.392 1_545 S
C304 C275 1.406 . S
C304 C277 1.370 1_545 S
C305 C280 1.395 . S
C305 C282 1.391 . S
H306 C266 0.951 . S
H307 C267 0.950 . S
H308 C273 0.949 . S
H309 C274 0.950 . S
H310 C278 0.951 . S
H311 C279 0.950 . S
H312 C283 0.949 . S
H313 C284 0.950 . S
H314 C288 0.950 . S
H315 C290 0.950 . S
H316 C293 0.950 . S
H317 C295 0.950 . S
C318 C319 1.398 . S
C318 H322 0.950 . S
C318 C327 1.390 . S
C319 C318 1.398 . S
C319 C321 1.372 1_455 S
H320 C327 0.950 . S
C321 C319 1.372 1_655 S
C321 C323 1.390 . S
C321 H325 0.950 . S
H322 C318 0.950 . S
C323 C321 1.390 . S
C323 C324 1.383 1_655 S
C323 H326 0.950 . S
C324 C323 1.383 1_455 S
C324 C327 1.394 . S
H325 C321 0.950 . S
H326 C323 0.950 . S
C327 C318 1.390 . S
C327 H320 0.950 . S
C327 C324 1.394 . S
C328 C329 1.387 1_565 S
C328 H332 0.950 . S
C328 C337 1.390 . S
C329 C328 1.387 1_545 S
C329 C331 1.387 . S
H330 C337 0.950 . S
C331 C329 1.387 . S
C331 C333 1.390 . S
C331 H335 0.950 . S
H332 C328 0.950 . S
C333 C331 1.390 . S
C333 C334 1.387 . S
C333 H336 0.950 . S
C334 C333 1.387 . S
C334 C337 1.387 1_545 S
H335 C331 0.950 . S
H336 C333 0.950 . S
C337 C328 1.390 . S
C337 H330 0.950 . S
C337 C334 1.387 1_565 S
C338 C339 1.396 . S
C338 H342 0.950 . S
C338 C347 1.390 . S
C339 C338 1.396 . S
C339 C341 1.374 1_455 S
H340 C347 0.950 . S
C341 C339 1.374 1_655 S
C341 C343 1.390 . S
C341 H345 0.950 . S
H342 C338 0.950 . S
C343 C341 1.390 . S
C343 C344 1.385 1_655 S
C343 H346 0.950 . S
C344 C343 1.385 1_455 S
C344 C347 1.391 . S
H345 C341 0.950 . S
H346 C343 0.950 . S
C347 C338 1.390 . S
C347 H340 0.950 . S
C347 C344 1.391 . S
C348 C349 1.387 1_565 S
C348 H352 0.950 . S
C348 C357 1.390 . S
C349 C348 1.387 1_545 S
C349 C351 1.387 . S
H350 C357 0.950 . S
C351 C349 1.387 . S
C351 C353 1.390 . S
C351 H355 0.950 . S
H352 C348 0.950 . S
C353 C351 1.390 . S
C353 C354 1.387 . S
C353 H356 0.950 . S
C354 C353 1.387 . S
C354 C357 1.387 1_545 S
H355 C351 0.950 . S
H356 C353 0.950 . S
C357 C348 1.390 . S
C357 H350 0.950 . S
C357 C354 1.387 1_565 S
C358 C359 1.387 1_565 S
C358 H362 0.950 . S
C358 C367 1.390 . S
C359 C358 1.387 1_545 S
C359 C361 1.387 . S
H360 C367 0.950 . S
C361 C359 1.387 . S
C361 C363 1.390 . S
C361 H365 0.950 . S
H362 C358 0.950 . S
C363 C361 1.390 . S
C363 C364 1.387 . S
C363 H366 0.950 . S
C364 C363 1.387 . S
C364 C367 1.387 1_545 S
H365 C361 0.950 . S
H366 C363 0.950 . S
C367 C358 1.390 . S
C367 H360 0.950 . S
C367 C364 1.387 1_565 S
C368 C369 1.369 1_655 S
C368 H372 0.953 . S
C368 C377 1.395 . S
C369 C368 1.369 1_455 S
C369 C371 1.392 . S
H370 C377 0.950 . S
C371 C369 1.392 . S
C371 C373 1.390 . S
C371 H375 0.950 . S
H372 C368 0.953 . S
C373 C371 1.390 . S
C373 C374 1.390 . S
C373 H376 0.950 . S
C374 C373 1.390 . S
C374 C377 1.386 1_455 S
H375 C371 0.950 . S
H376 C373 0.950 . S
C377 C368 1.395 . S
C377 H370 0.950 . S
C377 C374 1.386 1_655 S
C378 C379 1.387 1_565 S
C378 H382 0.950 . S
C378 C387 1.390 . S
C379 C378 1.387 1_545 S
C379 C381 1.387 . S
H380 C387 0.950 . S
C381 C379 1.387 . S
C381 C383 1.390 . S
C381 H385 0.950 . S
H382 C378 0.950 . S
C383 C381 1.390 . S
C383 C384 1.387 . S
C383 H386 0.950 . S
C384 C383 1.387 . S
C384 C387 1.387 1_545 S
H385 C381 0.950 . S
H386 C383 0.950 . S
C387 C378 1.390 . S
C387 H380 0.950 . S
C387 C384 1.387 1_565 S
C388 C389 1.389 . S
C388 H392 0.950 . S
C388 C397 1.390 . S
C389 C388 1.389 . S
C389 C391 1.384 1_455 S
H390 C397 0.950 . S
C391 C389 1.384 1_655 S
C391 C393 1.390 . S
C391 H395 0.950 . S
H392 C388 0.950 . S
C393 C391 1.390 . S
C393 C394 1.381 1_655 S
C393 H396 0.950 . S
C394 C393 1.381 1_455 S
C394 C397 1.400 . S
H395 C391 0.950 . S
H396 C393 0.950 . S
C397 C388 1.390 . S
C397 H390 0.950 . S
C397 C394 1.400 . S
C398 C399 1.387 1_556 S
C398 H402 0.950 . S
C398 C407 1.390 . S
C399 C398 1.387 1_554 S
C399 C401 1.387 . S
H400 C407 0.950 . S
C401 C399 1.387 . S
C401 C403 1.390 . S
C401 H405 0.950 . S
H402 C398 0.950 . S
C403 C401 1.390 . S
C403 C404 1.387 . S
C403 H406 0.950 . S
C404 C403 1.387 . S
C404 C407 1.387 1_554 S
H405 C401 0.950 . S
H406 C403 0.950 . S
C407 C398 1.390 . S
C407 H400 0.950 . S
C407 C404 1.387 1_556 S
C408 C409 1.387 . S
C408 H412 0.950 . S
C408 C417 1.390 . S
C409 C408 1.387 . S
C409 C411 1.387 1_554 S
H410 C417 0.950 . S
C411 C409 1.387 1_556 S
C411 C413 1.390 . S
C411 H415 0.950 . S
H412 C408 0.950 . S
C413 C411 1.390 . S
C413 C414 1.387 1_556 S
C413 H416 0.950 . S
C414 C413 1.387 1_554 S
C414 C417 1.387 . S
H415 C411 0.950 . S
H416 C413 0.950 . S
C417 C408 1.390 . S
C417 H410 0.950 . S
C417 C414 1.387 . S
C418 C419 1.387 1_556 S
C418 H422 0.950 . S
C418 C427 1.390 . S
C419 C418 1.387 1_554 S
C419 C421 1.387 . S
H420 C427 0.950 . S
C421 C419 1.387 . S
C421 C423 1.390 . S
C421 H425 0.950 . S
H422 C418 0.950 . S
C423 C421 1.390 . S
C423 C424 1.387 . S
C423 H426 0.950 . S
C424 C423 1.387 . S
C424 C427 1.387 1_554 S
H425 C421 0.950 . S
H426 C423 0.950 . S
C427 C418 1.390 . S
C427 H420 0.950 . S
C427 C424 1.387 1_556 S
C428 C429 1.387 . S
C428 H432 0.950 . S
C428 C437 1.390 . S
C429 C428 1.387 . S
C429 C431 1.387 1_554 S
H430 C437 0.950 . S
C431 C429 1.387 1_556 S
C431 C433 1.390 . S
C431 H435 0.950 . S
H432 C428 0.950 . S
C433 C431 1.390 . S
C433 C434 1.387 1_556 S
C433 H436 0.950 . S
C434 C433 1.387 1_554 S
C434 C437 1.387 . S
H435 C431 0.950 . S
H436 C433 0.950 . S
C437 C428 1.390 . S
C437 H430 0.950 . S
C437 C434 1.387 . S
C319 C29 1.505 . S
C324 C241 1.498 1_455 S
C329 C38 1.497 1_545 S
C334 C303 1.499 . S
C339 C234 1.505 . S
C344 C22 1.491 1_455 S
C349 C304 1.505 . S
C354 C39 1.499 . S
C359 C294 1.507 . S
C364 C91 1.500 . S
C369 C128 1.506 . S
C374 C251 1.497 1_455 S
C379 C287 1.500 . S
C384 C92 1.497 1_545 S
C389 C250 1.501 . S
C394 C135 1.487 1_455 S
C399 C144 1.499 . S
C404 C198 1.499 . S
C409 C188 1.500 . S
C414 C75 1.500 . S
C419 C145 1.495 1_554 S
C424 C197 1.496 . S
C429 C181 1.495 . S
C434 C82 1.499 1_554 S
