# Generated by pormake.
# Topology xfx, (5)-cn, num edge types: 1
# Building blocks:
#     Node 0, Type 0, BuildingBlock: BEQFEK_clean_sbu_0, # of connection points: 5
#     Node 1, Type 0, BuildingBlock: BEQFEK_clean_sbu_0, # of connection points: 5
#     Node 2, Type 0, BuildingBlock: BEQFEK_clean_sbu_0, # of connection points: 5
#     Node 3, Type 0, BuildingBlock: BEQFEK_clean_sbu_0, # of connection points: 5
#     Node 4, Type 0, BuildingBlock: BEQFEK_clean_sbu_0, # of connection points: 5
#     Node 5, Type 0, BuildingBlock: BEQFEK_clean_sbu_0, # of connection points: 5
#     Node 6, Type 0, BuildingBlock: BEQFEK_clean_sbu_0, # of connection points: 5
#     Node 7, Type 0, BuildingBlock: BEQFEK_clean_sbu_0, # of connection points: 5
#     Edge 8, Type (0, 0), BuildingBlock: XIVTED_clean_linker_0, # of connection points: 2
#     Edge 9, Type (0, 0), BuildingBlock: XIVTED_clean_linker_0, # of connection points: 2
#     Edge 10, Type (0, 0), BuildingBlock: XIVTED_clean_linker_0, # of connection points: 2
#     Edge 11, Type (0, 0), BuildingBlock: XIVTED_clean_linker_0, # of connection points: 2
#     Edge 12, Type (0, 0), BuildingBlock: XIVTED_clean_linker_0, # of connection points: 2
#     Edge 13, Type (0, 0), BuildingBlock: XIVTED_clean_linker_0, # of connection points: 2
#     Edge 14, Type (0, 0), BuildingBlock: XIVTED_clean_linker_0, # of connection points: 2
#     Edge 15, Type (0, 0), BuildingBlock: XIVTED_clean_linker_0, # of connection points: 2
#     Edge 16, Type (0, 0), BuildingBlock: XIVTED_clean_linker_0, # of connection points: 2
#     Edge 17, Type (0, 0), BuildingBlock: XIVTED_clean_linker_0, # of connection points: 2
#     Edge 18, Type (0, 0), BuildingBlock: XIVTED_clean_linker_0, # of connection points: 2
#     Edge 19, Type (0, 0), BuildingBlock: XIVTED_clean_linker_0, # of connection points: 2
#     Edge 20, Type (0, 0), BuildingBlock: XIVTED_clean_linker_0, # of connection points: 2
#     Edge 21, Type (0, 0), BuildingBlock: XIVTED_clean_linker_0, # of connection points: 2
#     Edge 22, Type (0, 0), BuildingBlock: XIVTED_clean_linker_0, # of connection points: 2
#     Edge 23, Type (0, 0), BuildingBlock: XIVTED_clean_linker_0, # of connection points: 2
#     Edge 24, Type (0, 0), BuildingBlock: XIVTED_clean_linker_0, # of connection points: 2
#     Edge 25, Type (0, 0), BuildingBlock: XIVTED_clean_linker_0, # of connection points: 2
#     Edge 26, Type (0, 0), BuildingBlock: XIVTED_clean_linker_0, # of connection points: 2
#     Edge 27, Type (0, 0), BuildingBlock: XIVTED_clean_linker_0, # of connection points: 2
# Relax obj value: 0.375
# Max RMSD: 0.212
# Mean RMSD: 0.212
data_MOF--net-xfx--node1-BEQFEK_clean_sbu_0--edge1-XIVTED_clean_linker_0
_symmetry_space_group_name_H-M    P1
_symmetry_Int_Tables_number       1
_symmetry_cell_setting            triclinic
loop_
_symmetry_equiv_pos_as_xyz
'x, y, z'
_cell_length_a     39.848523
_cell_length_b     39.657001
_cell_length_c     33.805012
_cell_angle_alpha  89.581933
_cell_angle_beta   90.13074
_cell_angle_gamma 77.546193
loop_
_atom_site_label
_atom_site_type_symbol
_atom_site_fract_x
_atom_site_fract_y
_atom_site_fract_z
_atom_type_partial_charge
Co0 Co 0.34188 0.04827 0.39608 0.0
Co1 Co 0.33394 0.98041 0.43968 0.0
C2 C 0.35213 0.98024 0.35383 0.0
O3 O 0.35166 0.01233 0.35531 0.0
O4 O 0.34514 0.96399 0.38428 0.0
C5 C 0.32276 0.09696 0.33541 0.0
O6 O 0.30507 0.07419 0.32449 0.0
C7 C 0.30179 0.92149 0.45379 0.0
C8 C 0.30807 0.91261 0.51817 0.0
C9 C 0.29307 0.90185 0.48482 0.0
N10 N 0.32022 0.94339 0.46829 0.0
N11 N 0.32425 0.93763 0.50675 0.0
C12 C 0.29429 0.91878 0.41063 0.0
H13 H 0.31894 0.91224 0.39448 0.0
H14 H 0.27979 0.9441 0.39932 0.0
H15 H 0.2801 0.89832 0.40423 0.0
C16 C 0.27213 0.07378 0.42654 0.0
N17 N 0.30041 0.04855 0.4222 0.0
N18 N 0.29611 0.02034 0.44038 0.0
C19 C 0.26428 0.0269 0.45655 0.0
C20 C 0.24801 0.0609 0.44785 0.0
C21 C 0.26927 0.11046 0.41344 0.0
H22 H 0.29446 0.11779 0.41639 0.0
H23 H 0.26106 0.11316 0.382 0.0
H24 H 0.25004 0.12845 0.43125 0.0
O25 O 0.38036 0.04072 0.43355 0.0
O26 O 0.37791 0.99103 0.46331 0.0
H27 H 0.26611 0.99102 0.50442 0.0
H28 H 0.22303 0.01224 0.4896 0.0
C29 C 0.24931 0.00099 0.47887 0.0
H30 H 0.24805 0.97904 0.45925 0.0
H31 H 0.3371 0.95152 0.52541 0.0
O32 O 0.34017 0.09185 0.36724 0.0
C33 C 0.3926 0.01645 0.45779 0.0
Co34 Co 0.99294 0.69138 0.5799 0.0
Co35 Co 0.05588 0.6976 0.52772 0.0
C36 C 0.06285 0.68171 0.61525 0.0
O37 O 0.03068 0.68427 0.61901 0.0
O38 O 0.076 0.68561 0.58169 0.0
C39 C 0.94521 0.70833 0.64255 0.0
O40 O 0.96771 0.7254 0.65576 0.0
C41 C 0.11254 0.7309 0.51078 0.0
C42 C 0.12218 0.72172 0.44711 0.0
C43 C 0.13258 0.73807 0.47964 0.0
N44 N 0.09143 0.71119 0.49741 0.0
N45 N 0.09755 0.70546 0.45937 0.0
C46 C 0.11041 0.74583 0.55149 0.0
H47 H 0.08416 0.74816 0.5636 0.0
H48 H 0.11704 0.77161 0.55124 0.0
H49 H 0.12882 0.72836 0.57115 0.0
C50 C 0.96485 0.76083 0.54753 0.0
N51 N 0.99017 0.73239 0.55096 0.0
N52 N 0.01632 0.73579 0.52876 0.0
C53 C 0.00827 0.76705 0.51049 0.0
C54 C 0.97553 0.78405 0.52228 0.0
C55 C 0.9299 0.76451 0.56541 0.0
H56 H 0.92143 0.73973 0.56348 0.0
H57 H 0.93105 0.77155 0.59699 0.0
H58 H 0.91059 0.78479 0.55014 0.0
O59 O -0.0009 0.65135 0.54432 0.0
O60 O 0.04391 0.65394 0.50616 0.0
H61 H 0.04068 0.76141 0.45952 0.0
H62 H 0.01876 0.80552 0.46915 0.0
C63 C 0.03164 0.78062 0.48294 0.0
H64 H 0.05435 0.78473 0.49964 0.0
H65 H 0.08418 0.69143 0.44152 0.0
O66 O 0.95067 0.69248 0.60991 0.0
C67 C 0.01992 0.639 0.51691 0.0
Co68 Co 0.68724 0.98718 0.39613 0.0
Co69 Co 0.69538 0.05396 0.44006 0.0
C70 C 0.67529 0.05637 0.35481 0.0
O71 O 0.67599 0.0242 0.35606 0.0
O72 O 0.68315 0.07199 0.38509 0.0
C73 C 0.70548 0.93963 0.33483 0.0
O74 O 0.72279 0.96265 0.32336 0.0
C75 C 0.72782 0.11219 0.45408 0.0
C76 C 0.7199 0.12188 0.51795 0.0
C77 C 0.73535 0.1325 0.48474 0.0
N78 N 0.70882 0.09067 0.46845 0.0
N79 N 0.70381 0.09688 0.50659 0.0
C80 C 0.74179 0.11024 0.41289 0.0
H81 H 0.7439 0.08391 0.40086 0.0
H82 H 0.76741 0.11697 0.41221 0.0
H83 H 0.72397 0.12881 0.39373 0.0
C84 C 0.75762 0.96131 0.42548 0.0
N85 N 0.72919 0.98653 0.42161 0.0
N86 N 0.73352 0.01429 0.44027 0.0
C87 C 0.76547 0.00741 0.45646 0.0
C88 C 0.78185 0.97372 0.44707 0.0
C89 C 0.76049 0.92496 0.41181 0.0
H90 H 0.73547 0.91733 0.41503 0.0
H91 H 0.76807 0.92318 0.38023 0.0
H92 H 0.78017 0.9066 0.42909 0.0
O93 O 0.6495 0.99329 0.43417 0.0
O94 O 0.65186 0.04261 0.46392 0.0
H95 H 0.76255 0.0431 0.50413 0.0
H96 H 0.80586 0.02069 0.49227 0.0
C97 C 0.78028 0.03265 0.47979 0.0
H98 H 0.78313 0.0544 0.46028 0.0
H99 H 0.69049 0.08322 0.52513 0.0
O100 O 0.68871 0.94428 0.36695 0.0
C101 C 0.63736 0.0171 0.45851 0.0
Co102 Co 0.03934 0.34175 0.58316 0.0
Co103 Co 0.97529 0.3351 0.53219 0.0
C104 C 0.9702 0.35024 0.61972 0.0
O105 O 0.00235 0.3482 0.6229 0.0
O106 O 0.95655 0.34642 0.58644 0.0
C107 C 0.08783 0.32452 0.64533 0.0
O108 O 0.06578 0.30665 0.65812 0.0
C109 C 0.91808 0.30169 0.51605 0.0
C110 C 0.90972 0.30909 0.45172 0.0
C111 C 0.89909 0.29308 0.48458 0.0
N112 N 0.93949 0.32104 0.50225 0.0
N113 N 0.93405 0.32574 0.46382 0.0
C114 C 0.9153 0.29309 0.559 0.0
H115 H 0.90735 0.3174 0.57574 0.0
H116 H 0.94083 0.27949 0.57037 0.0
H117 H 0.89592 0.27745 0.56472 0.0
C118 C 0.06721 0.27258 0.55121 0.0
N119 N 0.04179 0.30086 0.55473 0.0
N120 N 0.01518 0.29726 0.53331 0.0
C121 C 0.023 0.26599 0.51565 0.0
C122 C 0.05611 0.24926 0.52683 0.0
C123 C 0.10256 0.26917 0.56818 0.0
H124 H 0.11055 0.2942 0.56604 0.0
H125 H 0.10236 0.26151 0.59978 0.0
H126 H 0.12168 0.24938 0.55242 0.0
O127 O 0.03205 0.38192 0.547 0.0
O128 O 0.98659 0.37906 0.50981 0.0
H129 H 0.99034 0.27033 0.46476 0.0
H130 H 0.01118 0.22637 0.47746 0.0
C131 C -0.00102 0.252 0.48951 0.0
H132 H 0.97612 0.24928 0.5068 0.0
H133 H 0.94767 0.3394 0.44565 0.0
O134 O 0.08202 0.34093 0.61276 0.0
C135 C 0.01063 0.39419 0.5198 0.0
Co136 Co 0.83918 0.53743 0.88374 0.0
Co137 Co 0.83264 0.47624 0.93987 0.0
C138 C 0.8486 0.46703 0.852 0.0
O139 O 0.84563 0.4992 0.84632 0.0
O140 O 0.84519 0.45485 0.88639 0.0
C141 C 0.82653 0.58354 0.81822 0.0
O142 O 0.8122 0.55949 0.80343 0.0
C143 C 0.79112 0.42669 0.95958 0.0
C144 C 0.81282 0.40354 0.01609 0.0
C145 C 0.78735 0.40241 -0.01172 0.0
N146 N 0.81714 0.44148 0.9702 0.0
N147 N 0.83001 0.42758 0.00408 0.0
C148 C 0.77167 0.43486 0.92148 0.0
H149 H 0.78547 0.4487 0.9007 0.0
H150 H 0.74635 0.45206 0.92736 0.0
H151 H 0.76743 0.41085 0.90757 0.0
C152 C 0.77097 0.56763 0.91523 0.0
N153 N 0.79832 0.54122 0.91213 0.0
N154 N 0.79573 0.51687 0.93781 0.0
C155 C 0.76666 0.52776 0.95909 0.0
C156 C 0.75004 0.56031 0.94535 0.0
C157 C 0.76507 0.59931 0.88953 0.0
H158 H 0.76657 0.59147 0.85812 0.0
H159 H 0.73946 0.61632 0.89429 0.0
H160 H 0.78538 0.6139 0.89534 0.0
O161 O 0.87906 0.53089 0.92039 0.0
O162 O 0.87605 0.48769 0.96176 0.0
H163 H 0.74108 0.52781 0.01531 0.0
H164 H 0.74169 0.49058 0.98513 0.0
C165 C 0.75697 0.50937 -0.00534 0.0
H166 H 0.78035 0.49517 0.01024 0.0
H167 H 0.85062 0.4343 0.01882 0.0
O168 O 0.83905 0.57973 0.85295 0.0
C169 C 0.89117 0.51109 0.94927 0.0
Co170 Co 0.48366 0.18741 0.07653 0.0
Co171 Co 0.55018 0.19649 0.03273 0.0
C172 C 0.55221 0.17642 0.11814 0.0
O173 O 0.52025 0.17689 0.11677 0.0
O174 O 0.56791 0.18426 0.08782 0.0
C175 C 0.43614 0.20613 0.13743 0.0
O176 O 0.459 0.22377 0.14812 0.0
C177 C 0.60811 0.22922 0.01852 0.0
C178 C 0.61701 0.2225 0.95436 0.0
C179 C 0.62794 0.23737 -0.01234 0.0
N180 N 0.58653 0.21041 0.00417 0.0
N181 N 0.59229 0.2061 0.96586 0.0
C182 C 0.60661 0.24258 0.05993 0.0
H183 H 0.58037 0.24508 0.07212 0.0
H184 H 0.61392 0.26802 0.06098 0.0
H185 H 0.62483 0.22404 0.07871 0.0
C186 C 0.45715 0.25768 0.04597 0.0
N187 N 0.48264 0.22954 0.05054 0.0
N188 N 0.51035 0.23435 0.03223 0.0
C189 C 0.50319 0.26635 0.01567 0.0
C190 C 0.46932 0.28225 0.02434 0.0
C191 C 0.42079 0.25981 0.05881 0.0
H192 H 0.41401 0.23427 0.05603 0.0
H193 H 0.41808 0.26797 0.09016 0.0
H194 H 0.40251 0.27889 0.0407 0.0
O195 O 0.49076 0.14917 0.03901 0.0
O196 O 0.53944 0.15275 0.00881 0.0
H197 H 0.5383 0.26449 0.96758 0.0
H198 H 0.51659 0.30777 0.98109 0.0
C199 C 0.52833 0.28163 -0.0074 0.0
H200 H 0.55026 0.28362 0.01197 0.0
H201 H 0.57846 0.19309 0.9473 0.0
O202 O 0.44083 0.18871 0.10577 0.0
C203 C 0.51456 0.13748 0.0145 0.0
Co204 Co 0.18723 0.49377 0.88906 0.0
Co205 Co 0.19355 0.55701 0.94105 0.0
C206 C 0.17851 0.56418 0.85354 0.0
O207 O 0.18066 0.53191 0.84998 0.0
O208 O 0.18239 0.57738 0.88701 0.0
C209 C 0.20474 0.44608 0.82649 0.0
O210 O 0.22227 0.46858 0.81403 0.0
C211 C 0.22674 0.61376 0.95901 0.0
C212 C 0.21752 0.62214 0.02289 0.0
C213 C 0.23395 0.63315 -0.00933 0.0
N214 N 0.20697 0.59239 0.97183 0.0
N215 N 0.2012 0.5978 0.00999 0.0
C216 C 0.24176 0.61234 0.91834 0.0
H217 H 0.24414 0.58618 0.90574 0.0
H218 H 0.26741 0.61901 0.91883 0.0
H219 H 0.22444 0.63116 0.89896 0.0
C220 C 0.25586 0.46501 0.92234 0.0
N221 N 0.22783 0.49071 0.91835 0.0
N222 N 0.23126 0.51701 0.94035 0.0
C223 C 0.26212 0.50869 0.95897 0.0
C224 C 0.27884 0.47559 0.94773 0.0
C225 C 0.25924 0.42979 0.90499 0.0
H226 H 0.23427 0.42183 0.90646 0.0
H227 H 0.26699 0.43049 0.87356 0.0
H228 H 0.27879 0.41024 0.92094 0.0
O229 O 0.14711 0.50015 0.92445 0.0
O230 O 0.14974 0.54529 0.96214 0.0
H231 H 0.25667 0.54087 0.01009 0.0
H232 H 0.30061 0.51941 -0.0003 0.0
C233 C 0.27563 0.53216 -0.01367 0.0
H234 H 0.27932 0.5552 0.96961 0.0
H235 H 0.18715 0.58406 0.0275 0.0
O236 O 0.18834 0.45143 0.8588 0.0
C237 C 0.13476 0.52128 0.95159 0.0
Co238 Co 0.54161 0.8441 0.08116 0.0
Co239 Co 0.47611 0.83584 0.03417 0.0
C240 C 0.47226 0.85912 0.11887 0.0
O241 O 0.50442 0.85736 0.11926 0.0
O242 O 0.45734 0.85074 0.08825 0.0
C243 C 0.58721 0.82869 0.14501 0.0
O244 O 0.56295 0.81351 0.15758 0.0
C245 C 0.423 0.79685 0.01897 0.0
C246 C 0.40276 0.81572 0.96021 0.0
C247 C 0.39923 0.79254 -0.00987 0.0
N248 N 0.43982 0.82092 0.00635 0.0
N249 N 0.42756 0.83214 0.9712 0.0
C250 C 0.42912 0.77945 0.05862 0.0
H251 H 0.44293 0.79378 0.07863 0.0
H252 H 0.44544 0.75322 0.05511 0.0
H253 H 0.4044 0.77712 0.07223 0.0
C254 C 0.56793 0.77362 0.0534 0.0
N255 N 0.54207 0.80137 0.05768 0.0
N256 N 0.51566 0.79777 0.03596 0.0
C257 C 0.52443 0.76742 0.01641 0.0
C258 C 0.55772 0.75105 0.02724 0.0
C259 C 0.60278 0.76996 0.07183 0.0
H260 H 0.6133 0.79295 0.06453 0.0
H261 H 0.60037 0.7683 0.10437 0.0
H262 H 0.62105 0.74634 0.06205 0.0
O263 O 0.5363 0.88082 0.04082 0.0
O264 O 0.48813 0.87837 0.00841 0.0
H265 H 0.49078 0.77916 0.96618 0.0
H266 H 0.5196 0.73706 0.96468 0.0
C267 C 0.50346 0.75644 0.98412 0.0
H268 H 0.48332 0.7446 -0.00259 0.0
H269 H 0.43618 0.85091 0.95467 0.0
O270 O 0.58414 0.84312 0.11113 0.0
C271 C 0.51364 0.8926 0.01467 0.0
H272 H 0.61036 0.96079 0.47403 0.0
H273 H 0.41978 0.07238 0.47377 0.0
H274 H 0.58604 0.07191 0.4811 0.0
H275 H 0.44402 0.96113 0.48003 0.0
H276 H 0.47991 0.07267 0.48719 0.0
H277 H 0.55027 0.9602 0.48701 0.0
C278 C 0.59249 0.98509 0.47919 0.0
C279 C 0.6033 0.0165 0.47609 0.0
C280 C 0.4721 0.04817 0.48641 0.0
C281 C 0.53392 0.01603 0.49018 0.0
C282 C 0.43766 0.04796 0.47883 0.0
C283 C 0.42681 0.01664 0.47539 0.0
C284 C 0.49624 0.01678 0.49001 0.0
C285 C 0.45116 0.98587 0.48243 0.0
C286 C 0.55807 0.98472 0.48651 0.0
C287 C 0.57895 0.04711 0.48324 0.0
N288 N 0.48482 0.98669 0.48866 0.0
N289 N 0.54531 0.04614 0.4892 0.0
H290 H 0.96244 0.61283 0.50875 0.0
H291 H 0.06783 0.42042 0.50934 0.0
H292 H 0.07203 0.58657 0.4908 0.0
H293 H 0.9578 0.44665 0.49414 0.0
H294 H 0.07006 0.48051 0.49602 0.0
H295 H 0.95984 0.55276 0.49687 0.0
C296 C 0.98591 0.59451 0.50148 0.0
C297 C 0.01755 0.60474 0.50102 0.0
C298 C 0.04546 0.47312 0.49479 0.0
C299 C 0.01487 0.53546 0.48828 0.0
C300 C 0.04415 0.43874 0.50238 0.0
C301 C 0.01253 0.42849 0.5031 0.0
C302 C 0.01483 0.4978 0.48872 0.0
C303 C 0.98273 0.45336 0.49379 0.0
C304 C 0.9844 0.56014 0.49472 0.0
C305 C 0.04709 0.57988 0.49136 0.0
N306 N 0.98453 0.48698 0.48777 0.0
N307 N 0.04513 0.54627 0.48616 0.0
H308 H 0.91741 0.56897 0.95393 0.0
H309 H 0.10855 0.46377 0.96164 0.0
H310 H 0.94293 0.4597 0.97923 0.0
H311 H 0.08238 0.5743 0.97555 0.0
H312 H 0.04858 0.46156 0.97342 0.0
H313 H 0.97703 0.57193 0.96699 0.0
C314 C 0.93547 0.54567 0.96301 0.0
C315 C 0.92518 0.51398 0.96526 0.0
C316 C 0.05597 0.48625 0.97473 0.0
C317 C 0.99392 0.51705 0.97939 0.0
C318 C 0.09026 0.48754 0.96802 0.0
C319 C 0.10049 0.51931 0.96741 0.0
C320 C 0.03138 0.51705 0.97996 0.0
C321 C 0.07567 0.54926 0.97588 0.0
C322 C 0.96956 0.54739 0.97048 0.0
C323 C 0.9497 0.48467 0.97724 0.0
N324 N 0.04214 0.54748 0.981 0.0
N325 N 0.98307 0.48678 0.98307 0.0
H326 H 0.57083 0.91791 0.0004 0.0
H327 H 0.56841 0.09162 0.97985 0.0
H328 H 0.46053 0.94461 -0.01136 0.0
H329 H 0.46116 0.1045 0.00951 0.0
H330 H 0.57023 0.03106 0.96447 0.0
H331 H 0.57314 0.97755 -0.01307 0.0
C332 C 0.54709 0.93624 -0.00626 0.0
C333 C 0.51541 0.92619 -0.00408 0.0
C334 C 0.54627 0.047 0.97442 0.0
C335 C 0.51771 0.99538 0.98038 0.0
C336 C 0.54513 0.08187 0.98262 0.0
C337 C 0.51481 0.10311 -0.00313 0.0
C338 C 0.51692 0.0332 0.98085 0.0
C339 C 0.48536 0.089 -0.00056 0.0
C340 C 0.54841 0.97055 -0.01417 0.0
C341 C 0.48553 0.95111 -0.01286 0.0
N342 N 0.48728 0.05499 -0.00793 0.0
N343 N 0.48736 0.98466 0.98062 0.0
H344 H 0.08792 0.19671 0.57489 0.0
H345 H 0.19821 0.09538 0.39854 0.0
H346 H 0.07175 0.22504 0.45197 0.0
H347 H 0.21987 0.07192 0.52179 0.0
H348 H 0.14547 0.13629 0.41703 0.0
H349 H 0.12971 0.14465 0.55565 0.0
C350 C 0.09278 0.19153 0.54376 0.0
C351 C 0.07651 0.21508 0.51492 0.0
C352 C 0.16139 0.12184 0.44008 0.0
C353 C 0.1245 0.15589 0.49262 0.0
C354 C 0.1914 0.09844 0.42952 0.0
C355 C 0.2133 0.0804 0.45874 0.0
C356 C 0.15332 0.12747 0.48025 0.0
C357 C 0.20347 0.0852 0.49842 0.0
C358 C 0.11666 0.16191 0.53279 0.0
C359 C 0.08359 0.20733 0.47504 0.0
N360 N 0.17437 0.10859 0.50807 0.0
N361 N 0.10735 0.17856 0.46506 0.0
H362 H 0.30023 0.8413 0.52635 0.0
H363 H 0.13921 0.78628 0.42404 0.0
H364 H 0.23213 0.90709 0.44477 0.0
H365 H 0.18242 0.7419 0.53455 0.0
H366 H 0.17855 0.82603 0.42535 0.0
H367 H 0.26183 0.80043 0.52529 0.0
C368 C 0.27741 0.84695 0.50791 0.0
C369 C 0.27011 0.87694 0.48437 0.0
C370 C 0.17938 0.80764 0.44936 0.0
C371 C 0.22613 0.83051 0.48306 0.0
C372 C 0.1571 0.78484 0.44849 0.0
C373 C 0.15729 0.76114 0.4795 0.0
C374 C 0.2025 0.80626 0.48108 0.0
C375 C 0.18101 0.76028 0.51046 0.0
C376 C 0.25553 0.82368 0.50734 0.0
C377 C 0.23977 0.88343 0.46173 0.0
N378 N 0.20275 0.78246 0.51044 0.0
N379 N 0.21909 0.86028 0.46134 0.0
H380 H 0.83117 0.94114 0.39686 0.0
H381 H 0.94607 0.83657 0.57055 0.0
H382 H 0.81096 0.96028 0.52071 0.0
H383 H 0.95726 0.80879 0.4476 0.0
H384 H 0.90375 0.88887 0.55216 0.0
H385 H 0.88432 0.89986 0.41419 0.0
C386 C 0.83838 0.93708 0.42773 0.0
C387 C 0.81678 0.95405 0.45744 0.0
C388 C 0.91583 0.87169 0.52909 0.0
C389 C 0.87726 0.90656 0.4776 0.0
C390 C 0.94005 0.84195 0.53956 0.0
C391 C 0.95508 0.81846 0.5105 0.0
C392 C 0.90645 0.87795 0.4892 0.0
C393 C 0.94645 0.82645 0.47082 0.0
C394 C 0.86862 0.91345 0.43762 0.0
C395 C 0.82713 0.94793 0.49696 0.0
N396 N 0.92243 0.85537 0.46134 0.0
N397 N 0.85649 0.92439 0.50594 0.0
H398 H 0.73868 0.18253 0.42915 0.0
H399 H 0.90615 0.23053 0.52238 0.0
H400 H 0.78404 0.13905 0.53909 0.0
H401 H 0.83879 0.29987 0.44334 0.0
H402 H 0.8654 0.19249 0.52304 0.0
H403 H 0.77865 0.22181 0.42813 0.0
C404 C 0.75719 0.18115 0.45294 0.0
C405 C 0.75836 0.15729 0.48405 0.0
C406 C 0.85931 0.21621 0.50589 0.0
C407 C 0.804 0.20202 0.48308 0.0
C408 C 0.88237 0.23816 0.50586 0.0
C409 C 0.87504 0.26925 0.48426 0.0
C410 C 0.82908 0.22483 0.48322 0.0
C411 C 0.84502 0.27651 0.4611 0.0
C412 C 0.77979 0.20368 0.45247 0.0
C413 C 0.78231 0.15706 0.51456 0.0
N414 N 0.82305 0.25452 0.46125 0.0
N415 N 0.80439 0.17884 0.51314 0.0
H416 H 0.61181 0.7527 0.98 0.0
H417 H 0.68447 0.55071 0.95858 0.0
H418 H 0.55681 0.68215 0.03396 0.0
H419 H 0.74781 0.62555 0.96989 0.0
H420 H 0.63371 0.59596 0.97629 0.0
H421 H 0.65754 0.70384 0.96134 0.0
C422 C 0.60912 0.72672 -0.0129 0.0
C423 C 0.58083 0.72125 0.00867 0.0
C424 C 0.65884 0.60222 0.9751 0.0
C425 C 0.6331 0.66529 -0.01201 0.0
C426 C 0.68769 0.57649 0.96532 0.0
C427 C 0.72011 0.58474 0.96213 0.0
C428 C 0.66273 0.63621 0.98108 0.0
C429 C 0.72311 0.61837 0.97122 0.0
C430 C 0.63532 0.69893 0.97689 0.0
C431 C 0.57839 0.68719 0.01729 0.0
N432 N 0.69478 0.64295 0.97964 0.0
N433 N 0.60443 0.66028 0.00711 0.0
H434 H 0.72101 0.41275 0.95833 0.0
H435 H 0.67945 0.23844 0.04131 0.0
H436 H 0.79681 0.33855 0.02315 0.0
H437 H 0.63221 0.28889 0.9355 0.0
H438 H 0.71841 0.27878 0.04263 0.0
H439 H 0.68367 0.37173 0.95726 0.0
C440 C 0.73034 0.38763 0.97153 0.0
C441 C 0.763 0.37868 -0.01073 0.0
C442 C 0.69954 0.28093 0.01913 0.0
C443 C 0.7191 0.33208 -0.00991 0.0
C444 C 0.67723 0.2581 0.01848 0.0
C445 C 0.65247 0.26059 -0.0116 0.0
C446 C 0.69661 0.30673 -0.01014 0.0
C447 C 0.65099 0.28612 0.95915 0.0
C448 C 0.70864 0.36432 0.97137 0.0
C449 C 0.77213 0.34643 0.00854 0.0
N450 N 0.67251 0.30843 0.96082 0.0
N451 N 0.75034 0.32427 0.00843 0.0
H452 H 0.45791 0.31053 0.94997 0.0
H453 H 0.3022 0.4589 0.02314 0.0
H454 H 0.43384 0.33168 0.07269 0.0
H455 H 0.33145 0.44377 0.90088 0.0
H456 H 0.35445 0.41696 0.04245 0.0
H457 H 0.41631 0.36352 0.93156 0.0
C458 C 0.44445 0.32684 0.97303 0.0
C459 C 0.44921 0.31688 0.01284 0.0
C460 C 0.34978 0.42318 0.0114 0.0
C461 C 0.40104 0.37691 -0.0078 0.0
C462 C 0.3201 0.44732 0.00047 0.0
C463 C 0.31267 0.45474 0.96043 0.0
C464 C 0.37197 0.40613 0.98201 0.0
C465 C 0.3363 0.43855 0.9321 0.0
C466 C 0.42051 0.35692 0.96258 0.0
C467 C 0.43071 0.3385 0.04162 0.0
N468 N 0.36469 0.41475 0.94337 0.0
N469 N 0.40719 0.36727 0.03074 0.0
H470 H 0.28244 0.63744 0.04625 0.0
H471 H 0.33761 0.80214 0.95136 0.0
H472 H 0.2382 0.68462 0.93745 0.0
H473 H 0.40483 0.72839 0.02629 0.0
H474 H 0.29655 0.76419 0.95132 0.0
H475 H 0.32263 0.67638 0.04617 0.0
C476 C 0.28112 0.65613 0.02245 0.0
C477 C 0.25731 0.65758 -0.00844 0.0
C478 C 0.32021 0.75659 0.96806 0.0
C479 C 0.30287 0.70235 -0.00857 0.0
C480 C 0.3437 0.77821 0.96813 0.0
C481 C 0.37441 0.76926 -0.00997 0.0
C482 C 0.32733 0.7258 -0.00978 0.0
C483 C 0.38096 0.7376 0.0107 0.0
C484 C 0.30415 0.67817 0.02229 0.0
C485 C 0.25661 0.68228 0.96144 0.0
N486 N 0.35754 0.71723 0.01054 0.0
N487 N 0.279 0.7038 0.96217 0.0
H488 H 0.35404 0.15059 0.35009 0.0
H489 H 0.38191 0.17595 0.12254 0.0
H490 H 0.30085 0.1071 0.2587 0.0
H491 H 0.42647 0.22835 0.21374 0.0
H492 H 0.34265 0.16048 0.17124 0.0
H493 H 0.37099 0.18901 0.30099 0.0
C494 C 0.34543 0.14953 0.3198 0.0
C495 C 0.32682 0.12499 0.30821 0.0
C496 C 0.36058 0.1759 0.18052 0.0
C497 C 0.34645 0.16854 0.25181 0.0
C498 C 0.38306 0.18467 0.15271 0.0
C499 C 0.40807 0.20265 0.16439 0.0
C500 C 0.36352 0.18475 0.22034 0.0
C501 C 0.40799 0.2139 0.20363 0.0
C502 C 0.35507 0.17153 0.29175 0.0
C503 C 0.31577 0.1252 0.26877 0.0
N504 N 0.38653 0.20414 0.23042 0.0
N505 N 0.32638 0.14613 0.24178 0.0
H506 H 0.12963 0.64547 0.61638 0.0
H507 H 0.14354 0.63167 0.85206 0.0
H508 H 0.0469 0.69306 0.6933 0.0
H509 H 0.18956 0.54787 0.77553 0.0
H510 H 0.11951 0.66561 0.79359 0.0
H511 H 0.16323 0.62086 0.67475 0.0
C512 C 0.11883 0.65132 0.64555 0.0
C513 C 0.08533 0.67107 0.65005 0.0
C514 C 0.13532 0.63998 0.78971 0.0
C515 C 0.12368 0.64342 0.7166 0.0
C516 C 0.14917 0.62069 0.82295 0.0
C517 C 0.1683 0.5868 0.8186 0.0
C518 C 0.1413 0.62554 0.75192 0.0
C519 C 0.17466 0.57378 0.78018 0.0
C520 C 0.13792 0.63713 0.67872 0.0
C521 C 0.07251 0.67769 0.68853 0.0
N522 N 0.16115 0.59315 0.74829 0.0
N523 N 0.09168 0.66386 0.72035 0.0
H524 H 0.72742 0.92911 0.25837 0.0
H525 H 0.59849 0.80561 0.2213 0.0
H526 H 0.67371 0.88647 0.35045 0.0
H527 H 0.64063 0.85992 0.12914 0.0
H528 H 0.63908 0.82131 0.26818 0.0
H529 H 0.70935 0.89029 0.21099 0.0
C530 C 0.71239 0.91112 0.2688 0.0
C531 C 0.70119 0.91167 0.30813 0.0
C532 C 0.63982 0.8293 0.23755 0.0
C533 C 0.68032 0.86746 0.25415 0.0
C534 C 0.61665 0.82036 0.21076 0.0
C535 C 0.61557 0.83232 0.17154 0.0
C536 C 0.66187 0.85048 0.22502 0.0
C537 C 0.64008 0.85082 0.15935 0.0
C538 C 0.70205 0.889 0.24172 0.0
C539 C 0.68221 0.88746 0.32015 0.0
N540 N 0.66186 0.85986 0.18619 0.0
N541 N 0.67185 0.86673 0.29309 0.0
H542 H 0.98873 0.34124 0.69769 0.0
H543 H 0.8328 0.47969 0.77411 0.0
H544 H 0.90189 0.38164 0.62185 0.0
H545 H 0.88954 0.40194 0.85313 0.0
H546 H 0.85813 0.44512 0.71768 0.0
H547 H 0.95397 0.36379 0.75518 0.0
C548 C 0.96222 0.35452 0.69318 0.0
C549 C 0.94824 0.35982 0.6549 0.0
C550 C 0.86457 0.43531 0.74734 0.0
C551 C 0.90861 0.3861 0.72045 0.0
C552 C 0.85019 0.45504 0.77954 0.0
C553 C 0.85921 0.44367 0.8183 0.0
C554 C 0.88889 0.40446 0.75393 0.0
C555 C 0.88184 0.41155 0.8237 0.0
C556 C 0.94239 0.36722 0.726 0.0
C557 C 0.9137 0.37702 0.65081 0.0
N558 N 0.89649 0.39335 0.79183 0.0
N559 N 0.89525 0.39013 0.68313 0.0
H560 H 0.68109 0.12185 0.33074 0.0
H561 H 0.53027 0.14086 0.17825 0.0
H562 H 0.63751 0.03563 0.29652 0.0
H563 H 0.61788 0.18102 0.1414 0.0
H564 H 0.56295 0.11375 0.23524 0.0
H565 H 0.65307 0.15432 0.27249 0.0
C566 C 0.66593 0.10969 0.31096 0.0
C567 C 0.66159 0.07598 0.3186 0.0
C568 C 0.57489 0.12875 0.21482 0.0
C569 C 0.6292 0.11303 0.25319 0.0
C570 C 0.55626 0.14442 0.18232 0.0
C571 C 0.57142 0.16309 0.15468 0.0
C572 C 0.60879 0.13219 0.22045 0.0
C573 C 0.60531 0.16663 0.16181 0.0
C574 C 0.65014 0.12815 0.27784 0.0
C575 C 0.6417 0.06146 0.29195 0.0
N576 N 0.62298 0.15131 0.19419 0.0
N577 N 0.62586 0.08022 0.2609 0.0
H578 H 0.10091 0.30383 0.72231 0.0
H579 H 0.22531 0.43378 0.74973 0.0
H580 H 0.13958 0.35709 0.62654 0.0
H581 H 0.17392 0.39289 0.84528 0.0
H582 H 0.20768 0.39274 0.70485 0.0
H583 H 0.14096 0.32291 0.76736 0.0
C584 C 0.11826 0.31898 0.7106 0.0
C585 C 0.11629 0.32971 0.67088 0.0
C586 C 0.20077 0.39237 0.73579 0.0
C587 C 0.16192 0.35174 0.7222 0.0
C588 C 0.21086 0.41576 0.76144 0.0
C589 C 0.20024 0.41735 0.80103 0.0
C590 C 0.17989 0.37056 0.74991 0.0
C591 C 0.18196 0.39308 0.81473 0.0
C592 C 0.14108 0.32991 0.73634 0.0
C593 C 0.1397 0.34892 0.65718 0.0
N594 N 0.17187 0.37105 0.78905 0.0
N595 N 0.16117 0.35982 0.68296 0.0
H596 H 0.34967 0.91342 0.33245 0.0
H597 H 0.48991 0.90429 0.17026 0.0
H598 H 0.38258 0.00427 0.2908 0.0
H599 H 0.40892 0.85042 0.14591 0.0
H600 H 0.45686 0.93295 0.22553 0.0
H601 H 0.37569 0.88239 0.2733 0.0
C602 C 0.36199 0.92694 0.31087 0.0
C603 C 0.36414 0.96148 0.31689 0.0
C604 C 0.44635 0.91478 0.20816 0.0
C605 C 0.3942 0.92607 0.25007 0.0
C606 C 0.46525 0.8982 0.17675 0.0
C607 C 0.45214 0.87489 0.15336 0.0
C608 C 0.4143 0.90763 0.21709 0.0
C609 C 0.41984 0.86833 0.16314 0.0
C610 C 0.37664 0.90925 0.27716 0.0
C611 C 0.38034 0.9777 0.28773 0.0
N612 N 0.402 0.88447 0.19466 0.0
N613 N 0.39519 0.95971 0.25606 0.0
H614 H 0.93292 0.72645 0.72005 0.0
H615 H 0.80761 0.59715 0.74091 0.0
H616 H 0.89185 0.6789 0.62189 0.0
H617 H 0.85614 0.63691 0.83929 0.0
H618 H 0.82525 0.63963 0.69762 0.0
H619 H 0.89216 0.70698 0.7639 0.0
C620 C 0.91489 0.7125 0.70758 0.0
C621 C 0.91641 0.70337 0.66754 0.0
C622 C 0.83156 0.63943 0.72881 0.0
C623 C 0.87001 0.68086 0.71743 0.0
C624 C 0.82151 0.61517 0.75354 0.0
C625 C 0.8313 0.61287 0.79349 0.0
C626 C 0.85174 0.66131 0.74415 0.0
C627 C 0.84875 0.63726 0.80843 0.0
C628 C 0.89165 0.70135 0.73263 0.0
C629 C 0.89213 0.68572 0.65282 0.0
N630 N 0.85897 0.66008 0.78358 0.0
N631 N 0.87032 0.6745 0.67792 0.0
loop_
_geom_bond_atom_site_label_1
_geom_bond_atom_site_label_2
_geom_bond_distance
_geom_bond_site_symmetry_2
_ccdc_geom_bond_type
Co0 O3 1.970 . S
Co0 N17 1.989 . S
Co0 O25 1.967 . S
Co0 O32 1.920 . S
Co1 O4 1.966 . S
Co1 N10 2.022 . S
Co1 N18 1.993 1_565 S
Co1 O26 1.941 . S
C2 O3 1.258 1_565 S
C2 O4 1.263 . S
O3 Co0 1.970 . S
O3 C2 1.258 1_545 S
O4 Co1 1.966 . S
O4 C2 1.263 . S
C5 O6 1.235 . S
C5 O32 1.289 . S
O6 C5 1.235 . S
C7 C9 1.400 . S
C7 N10 1.351 . S
C7 C12 1.501 . S
C8 C9 1.387 . S
C8 N11 1.341 . S
C9 C7 1.400 . S
C9 C8 1.387 . S
N10 Co1 2.022 . S
N10 C7 1.351 . S
N10 N11 1.365 . S
N11 C8 1.341 . S
N11 N10 1.365 . S
N11 H31 0.862 . S
C12 C7 1.501 . S
C12 H13 0.961 . S
C12 H14 0.961 . S
C12 H15 0.960 . S
H13 C12 0.961 . S
H14 C12 0.961 . S
H15 C12 0.960 . S
C16 N17 1.342 . S
C16 C20 1.401 . S
C16 C21 1.499 . S
N17 Co0 1.989 . S
N17 C16 1.342 . S
N17 N18 1.388 . S
N18 Co1 1.993 1_545 S
N18 N17 1.388 . S
N18 C19 1.346 . S
C19 N18 1.346 . S
C19 C20 1.396 . S
C19 C29 1.510 . S
C20 C16 1.401 . S
C20 C19 1.396 . S
C21 C16 1.499 . S
C21 H22 0.959 . S
C21 H23 0.960 . S
C21 H24 0.961 . S
H22 C21 0.959 . S
H23 C21 0.960 . S
H24 C21 0.961 . S
O25 Co0 1.967 . S
O25 C33 1.258 . S
O26 Co1 1.941 . S
O26 C33 1.266 1_565 S
H27 C29 0.959 . S
H28 C29 0.961 . S
C29 C19 1.510 . S
C29 H27 0.959 . S
C29 H28 0.961 . S
C29 H30 0.960 . S
H30 C29 0.960 . S
H31 N11 0.862 . S
O32 Co0 1.920 . S
O32 C5 1.289 . S
C33 O25 1.258 . S
C33 O26 1.266 1_545 S
Co34 O37 1.970 1_655 S
Co34 N51 1.989 . S
Co34 O59 1.967 1_655 S
Co34 O66 1.920 . S
Co35 O38 1.966 . S
Co35 N44 2.022 . S
Co35 N52 1.993 . S
Co35 O60 1.941 . S
C36 O37 1.258 . S
C36 O38 1.263 . S
O37 Co34 1.970 1_455 S
O37 C36 1.258 . S
O38 Co35 1.966 . S
O38 C36 1.263 . S
C39 O40 1.235 . S
C39 O66 1.289 . S
O40 C39 1.235 . S
C41 C43 1.400 . S
C41 N44 1.351 . S
C41 C46 1.501 . S
C42 C43 1.387 . S
C42 N45 1.341 . S
C43 C41 1.400 . S
C43 C42 1.387 . S
N44 Co35 2.022 . S
N44 C41 1.351 . S
N44 N45 1.365 . S
N45 C42 1.341 . S
N45 N44 1.365 . S
N45 H65 0.862 . S
C46 C41 1.501 . S
C46 H47 0.961 . S
C46 H48 0.961 . S
C46 H49 0.960 . S
H47 C46 0.961 . S
H48 C46 0.961 . S
H49 C46 0.960 . S
C50 N51 1.342 . S
C50 C54 1.401 . S
C50 C55 1.499 . S
N51 Co34 1.989 . S
N51 C50 1.342 . S
N51 N52 1.388 1_655 S
N52 Co35 1.993 . S
N52 N51 1.388 1_455 S
N52 C53 1.346 1_455 S
C53 N52 1.346 1_655 S
C53 C54 1.396 . S
C53 C63 1.510 1_655 S
C54 C50 1.401 . S
C54 C53 1.396 . S
C55 C50 1.499 . S
C55 H56 0.959 . S
C55 H57 0.960 . S
C55 H58 0.961 . S
H56 C55 0.959 . S
H57 C55 0.960 . S
H58 C55 0.961 . S
O59 Co34 1.967 1_455 S
O59 C67 1.258 . S
O60 Co35 1.941 . S
O60 C67 1.266 . S
H61 C63 0.959 . S
H62 C63 0.961 . S
C63 C53 1.510 1_455 S
C63 H61 0.959 . S
C63 H62 0.961 . S
C63 H64 0.960 . S
H64 C63 0.960 . S
H65 N45 0.862 . S
O66 Co34 1.920 . S
O66 C39 1.289 . S
C67 O59 1.258 . S
C67 O60 1.266 . S
Co68 O71 1.970 1_565 S
Co68 N85 1.989 . S
Co68 O93 1.967 1_565 S
Co68 O100 1.920 . S
Co69 O72 1.966 . S
Co69 N78 2.022 . S
Co69 N86 1.993 . S
Co69 O94 1.941 . S
C70 O71 1.258 . S
C70 O72 1.263 . S
O71 Co68 1.970 1_545 S
O71 C70 1.258 . S
O72 Co69 1.966 . S
O72 C70 1.263 . S
C73 O74 1.235 . S
C73 O100 1.289 . S
O74 C73 1.235 . S
C75 C77 1.400 . S
C75 N78 1.351 . S
C75 C80 1.501 . S
C76 C77 1.387 . S
C76 N79 1.341 . S
C77 C75 1.400 . S
C77 C76 1.387 . S
N78 Co69 2.022 . S
N78 C75 1.351 . S
N78 N79 1.365 . S
N79 C76 1.341 . S
N79 N78 1.365 . S
N79 H99 0.862 . S
C80 C75 1.501 . S
C80 H81 0.961 . S
C80 H82 0.961 . S
C80 H83 0.960 . S
H81 C80 0.961 . S
H82 C80 0.961 . S
H83 C80 0.960 . S
C84 N85 1.342 . S
C84 C88 1.401 . S
C84 C89 1.499 . S
N85 Co68 1.989 . S
N85 C84 1.342 . S
N85 N86 1.388 1_565 S
N86 Co69 1.993 . S
N86 N85 1.388 1_545 S
N86 C87 1.346 1_545 S
C87 N86 1.346 1_565 S
C87 C88 1.396 . S
C87 C97 1.510 1_565 S
C88 C84 1.401 . S
C88 C87 1.396 . S
C89 C84 1.499 . S
C89 H90 0.959 . S
C89 H91 0.960 . S
C89 H92 0.961 . S
H90 C89 0.959 . S
H91 C89 0.960 . S
H92 C89 0.961 . S
O93 Co68 1.967 1_545 S
O93 C101 1.258 . S
O94 Co69 1.941 . S
O94 C101 1.266 . S
H95 C97 0.959 . S
H96 C97 0.961 . S
C97 C87 1.510 1_545 S
C97 H95 0.959 . S
C97 H96 0.961 . S
C97 H98 0.960 . S
H98 C97 0.960 . S
H99 N79 0.862 . S
O100 Co68 1.920 . S
O100 C73 1.289 . S
C101 O93 1.258 . S
C101 O94 1.266 . S
Co102 O105 1.970 . S
Co102 N119 1.989 . S
Co102 O127 1.967 . S
Co102 O134 1.920 . S
Co103 O106 1.966 . S
Co103 N112 2.022 . S
Co103 N120 1.993 1_655 S
Co103 O128 1.941 . S
C104 O105 1.258 1_655 S
C104 O106 1.263 . S
O105 Co102 1.970 . S
O105 C104 1.258 1_455 S
O106 Co103 1.966 . S
O106 C104 1.263 . S
C107 O108 1.235 . S
C107 O134 1.289 . S
O108 C107 1.235 . S
C109 C111 1.400 . S
C109 N112 1.351 . S
C109 C114 1.501 . S
C110 C111 1.387 . S
C110 N113 1.341 . S
C111 C109 1.400 . S
C111 C110 1.387 . S
N112 Co103 2.022 . S
N112 C109 1.351 . S
N112 N113 1.365 . S
N113 C110 1.341 . S
N113 N112 1.365 . S
N113 H133 0.862 . S
C114 C109 1.501 . S
C114 H115 0.961 . S
C114 H116 0.961 . S
C114 H117 0.960 . S
H115 C114 0.961 . S
H116 C114 0.961 . S
H117 C114 0.960 . S
C118 N119 1.342 . S
C118 C122 1.401 . S
C118 C123 1.499 . S
N119 Co102 1.989 . S
N119 C118 1.342 . S
N119 N120 1.388 . S
N120 Co103 1.993 1_455 S
N120 N119 1.388 . S
N120 C121 1.346 . S
C121 N120 1.346 . S
C121 C122 1.396 . S
C121 C131 1.510 . S
C122 C118 1.401 . S
C122 C121 1.396 . S
C123 C118 1.499 . S
C123 H124 0.959 . S
C123 H125 0.960 . S
C123 H126 0.961 . S
H124 C123 0.959 . S
H125 C123 0.960 . S
H126 C123 0.961 . S
O127 Co102 1.967 . S
O127 C135 1.258 . S
O128 Co103 1.941 . S
O128 C135 1.266 1_655 S
H129 C131 0.959 . S
H130 C131 0.961 . S
C131 C121 1.510 . S
C131 H129 0.959 . S
C131 H130 0.961 . S
C131 H132 0.960 . S
H132 C131 0.960 . S
H133 N113 0.862 . S
O134 Co102 1.920 . S
O134 C107 1.289 . S
C135 O127 1.258 . S
C135 O128 1.266 1_455 S
Co136 O139 1.970 . S
Co136 N153 1.989 . S
Co136 O161 1.967 . S
Co136 O168 1.920 . S
Co137 O140 1.966 . S
Co137 N146 2.022 . S
Co137 N154 1.993 . S
Co137 O162 1.941 . S
C138 O139 1.258 . S
C138 O140 1.263 . S
O139 Co136 1.970 . S
O139 C138 1.258 . S
O140 Co137 1.966 . S
O140 C138 1.263 . S
C141 O142 1.235 . S
C141 O168 1.289 . S
O142 C141 1.235 . S
C143 C145 1.400 1_556 S
C143 N146 1.351 . S
C143 C148 1.501 . S
C144 C145 1.387 . S
C144 N147 1.341 . S
C145 C143 1.400 1_554 S
C145 C144 1.387 . S
N146 Co137 2.022 . S
N146 C143 1.351 . S
N146 N147 1.365 1_556 S
N147 C144 1.341 . S
N147 N146 1.365 1_554 S
N147 H167 0.862 . S
C148 C143 1.501 . S
C148 H149 0.961 . S
C148 H150 0.961 . S
C148 H151 0.960 . S
H149 C148 0.961 . S
H150 C148 0.961 . S
H151 C148 0.960 . S
C152 N153 1.342 . S
C152 C156 1.401 . S
C152 C157 1.499 . S
N153 Co136 1.989 . S
N153 C152 1.342 . S
N153 N154 1.388 . S
N154 Co137 1.993 . S
N154 N153 1.388 . S
N154 C155 1.346 . S
C155 N154 1.346 . S
C155 C156 1.396 . S
C155 C165 1.510 . S
C156 C152 1.401 . S
C156 C155 1.396 . S
C157 C152 1.499 . S
C157 H158 0.959 . S
C157 H159 0.960 . S
C157 H160 0.961 . S
H158 C157 0.959 . S
H159 C157 0.960 . S
H160 C157 0.961 . S
O161 Co136 1.967 . S
O161 C169 1.258 . S
O162 Co137 1.941 . S
O162 C169 1.266 . S
H163 C165 0.959 1_554 S
H164 C165 0.961 . S
C165 C155 1.510 . S
C165 H163 0.959 1_556 S
C165 H164 0.961 . S
C165 H166 0.960 . S
H166 C165 0.960 . S
H167 N147 0.862 . S
O168 Co136 1.920 . S
O168 C141 1.289 . S
C169 O161 1.258 . S
C169 O162 1.266 . S
Co170 O173 1.970 . S
Co170 N187 1.989 . S
Co170 O195 1.967 . S
Co170 O202 1.920 . S
Co171 O174 1.966 . S
Co171 N180 2.022 . S
Co171 N188 1.993 . S
Co171 O196 1.941 . S
C172 O173 1.258 . S
C172 O174 1.263 . S
O173 Co170 1.970 . S
O173 C172 1.258 . S
O174 Co171 1.966 . S
O174 C172 1.263 . S
C175 O176 1.235 . S
C175 O202 1.289 . S
O176 C175 1.235 . S
C177 C179 1.400 1_554 S
C177 N180 1.351 . S
C177 C182 1.501 . S
C178 C179 1.387 . S
C178 N181 1.341 . S
C179 C177 1.400 1_556 S
C179 C178 1.387 . S
N180 Co171 2.022 . S
N180 C177 1.351 . S
N180 N181 1.365 1_554 S
N181 C178 1.341 . S
N181 N180 1.365 1_556 S
N181 H201 0.862 . S
C182 C177 1.501 . S
C182 H183 0.961 . S
C182 H184 0.961 . S
C182 H185 0.960 . S
H183 C182 0.961 . S
H184 C182 0.961 . S
H185 C182 0.960 . S
C186 N187 1.342 . S
C186 C190 1.401 . S
C186 C191 1.499 . S
N187 Co170 1.989 . S
N187 C186 1.342 . S
N187 N188 1.388 . S
N188 Co171 1.993 . S
N188 N187 1.388 . S
N188 C189 1.346 . S
C189 N188 1.346 . S
C189 C190 1.396 . S
C189 C199 1.510 . S
C190 C186 1.401 . S
C190 C189 1.396 . S
C191 C186 1.499 . S
C191 H192 0.959 . S
C191 H193 0.960 . S
C191 H194 0.961 . S
H192 C191 0.959 . S
H193 C191 0.960 . S
H194 C191 0.961 . S
O195 Co170 1.967 . S
O195 C203 1.258 . S
O196 Co171 1.941 . S
O196 C203 1.266 . S
H197 C199 0.959 1_556 S
H198 C199 0.961 . S
C199 C189 1.510 . S
C199 H197 0.959 1_554 S
C199 H198 0.961 . S
C199 H200 0.960 . S
H200 C199 0.960 . S
H201 N181 0.862 . S
O202 Co170 1.920 . S
O202 C175 1.289 . S
C203 O195 1.258 . S
C203 O196 1.266 . S
Co204 O207 1.970 . S
Co204 N221 1.989 . S
Co204 O229 1.967 . S
Co204 O236 1.920 . S
Co205 O208 1.966 . S
Co205 N214 2.022 . S
Co205 N222 1.993 . S
Co205 O230 1.941 . S
C206 O207 1.258 . S
C206 O208 1.263 . S
O207 Co204 1.970 . S
O207 C206 1.258 . S
O208 Co205 1.966 . S
O208 C206 1.263 . S
C209 O210 1.235 . S
C209 O236 1.289 . S
O210 C209 1.235 . S
C211 C213 1.400 1_556 S
C211 N214 1.351 . S
C211 C216 1.501 . S
C212 C213 1.387 . S
C212 N215 1.341 . S
C213 C211 1.400 1_554 S
C213 C212 1.387 . S
N214 Co205 2.022 . S
N214 C211 1.351 . S
N214 N215 1.365 1_556 S
N215 C212 1.341 . S
N215 N214 1.365 1_554 S
N215 H235 0.862 . S
C216 C211 1.501 . S
C216 H217 0.961 . S
C216 H218 0.961 . S
C216 H219 0.960 . S
H217 C216 0.961 . S
H218 C216 0.961 . S
H219 C216 0.960 . S
C220 N221 1.342 . S
C220 C224 1.401 . S
C220 C225 1.499 . S
N221 Co204 1.989 . S
N221 C220 1.342 . S
N221 N222 1.388 . S
N222 Co205 1.993 . S
N222 N221 1.388 . S
N222 C223 1.346 . S
C223 N222 1.346 . S
C223 C224 1.396 . S
C223 C233 1.510 . S
C224 C220 1.401 . S
C224 C223 1.396 . S
C225 C220 1.499 . S
C225 H226 0.959 . S
C225 H227 0.960 . S
C225 H228 0.961 . S
H226 C225 0.959 . S
H227 C225 0.960 . S
H228 C225 0.961 . S
O229 Co204 1.967 . S
O229 C237 1.258 . S
O230 Co205 1.941 . S
O230 C237 1.266 . S
H231 C233 0.959 1_554 S
H232 C233 0.961 . S
C233 C223 1.510 . S
C233 H231 0.959 1_556 S
C233 H232 0.961 . S
C233 H234 0.960 . S
H234 C233 0.960 . S
H235 N215 0.862 . S
O236 Co204 1.920 . S
O236 C209 1.289 . S
C237 O229 1.258 . S
C237 O230 1.266 . S
Co238 O241 1.970 . S
Co238 N255 1.989 . S
Co238 O263 1.967 . S
Co238 O270 1.920 . S
Co239 O242 1.966 . S
Co239 N248 2.022 . S
Co239 N256 1.993 . S
Co239 O264 1.941 . S
C240 O241 1.258 . S
C240 O242 1.263 . S
O241 Co238 1.970 . S
O241 C240 1.258 . S
O242 Co239 1.966 . S
O242 C240 1.263 . S
C243 O244 1.235 . S
C243 O270 1.289 . S
O244 C243 1.235 . S
C245 C247 1.400 1_554 S
C245 N248 1.351 . S
C245 C250 1.501 . S
C246 C247 1.387 . S
C246 N249 1.341 . S
C247 C245 1.400 1_556 S
C247 C246 1.387 . S
N248 Co239 2.022 . S
N248 C245 1.351 . S
N248 N249 1.365 1_554 S
N249 C246 1.341 . S
N249 N248 1.365 1_556 S
N249 H269 0.862 . S
C250 C245 1.501 . S
C250 H251 0.961 . S
C250 H252 0.961 . S
C250 H253 0.960 . S
H251 C250 0.961 . S
H252 C250 0.961 . S
H253 C250 0.960 . S
C254 N255 1.342 . S
C254 C258 1.401 . S
C254 C259 1.499 . S
N255 Co238 1.989 . S
N255 C254 1.342 . S
N255 N256 1.388 . S
N256 Co239 1.993 . S
N256 N255 1.388 . S
N256 C257 1.346 . S
C257 N256 1.346 . S
C257 C258 1.396 . S
C257 C267 1.510 . S
C258 C254 1.401 . S
C258 C257 1.396 . S
C259 C254 1.499 . S
C259 H260 0.959 . S
C259 H261 0.960 . S
C259 H262 0.961 . S
H260 C259 0.959 . S
H261 C259 0.960 . S
H262 C259 0.961 . S
O263 Co238 1.967 . S
O263 C271 1.258 . S
O264 Co239 1.941 . S
O264 C271 1.266 . S
H265 C267 0.959 1_556 S
H266 C267 0.961 . S
C267 C257 1.510 . S
C267 H265 0.959 1_554 S
C267 H266 0.961 . S
C267 H268 0.960 . S
H268 C267 0.960 . S
H269 N249 0.862 . S
O270 Co238 1.920 . S
O270 C243 1.289 . S
C271 O263 1.258 . S
C271 O264 1.266 . S
H272 C278 0.930 1_565 S
H273 C282 0.930 . S
H274 C287 0.929 . S
H275 C285 0.929 . S
H276 C280 0.929 . S
H277 C286 0.929 1_565 S
C278 H272 0.930 1_545 S
C278 C279 1.367 . S
C278 C286 1.378 . S
C279 C278 1.367 . S
C279 C287 1.433 . S
C280 H276 0.929 . S
C280 C282 1.378 . S
C280 C284 1.350 . S
C281 C284 1.463 . S
C281 C286 1.350 . S
C281 N289 1.427 . S
C282 H273 0.930 . S
C282 C280 1.378 . S
C282 C283 1.367 . S
C283 C282 1.367 . S
C283 C285 1.433 1_545 S
C284 C280 1.350 . S
C284 C281 1.463 . S
C284 N288 1.427 1_545 S
C285 H275 0.929 . S
C285 C283 1.433 1_565 S
C285 N288 1.384 . S
C286 H277 0.929 1_545 S
C286 C278 1.378 . S
C286 C281 1.350 . S
C287 H274 0.929 . S
C287 C279 1.433 . S
C287 N289 1.384 . S
N288 C284 1.427 1_565 S
N288 C285 1.384 . S
N289 C281 1.427 . S
N289 C287 1.384 . S
H290 C296 0.917 1_655 S
H291 C300 0.930 . S
H292 C305 0.929 . S
H293 C303 0.929 . S
H294 C298 0.929 . S
H295 C304 0.929 . S
C296 H290 0.917 1_455 S
C296 C297 1.389 . S
C296 C304 1.369 1_455 S
C297 C296 1.389 . S
C297 C305 1.433 . S
C298 H294 0.929 . S
C298 C300 1.378 . S
C298 C302 1.350 . S
C299 C302 1.463 . S
C299 C304 1.350 1_455 S
C299 N307 1.427 . S
C300 H291 0.930 . S
C300 C298 1.378 . S
C300 C301 1.367 . S
C301 C300 1.367 . S
C301 C303 1.433 1_455 S
C302 C298 1.350 . S
C302 C299 1.463 . S
C302 N306 1.427 1_455 S
C303 H293 0.929 . S
C303 C301 1.433 1_655 S
C303 N306 1.384 . S
C304 H295 0.929 . S
C304 C296 1.369 1_655 S
C304 C299 1.350 1_655 S
C305 H292 0.929 . S
C305 C297 1.433 . S
C305 N307 1.384 . S
N306 C302 1.427 1_655 S
N306 C303 1.384 . S
N307 C299 1.427 . S
N307 C305 1.384 . S
H308 C314 0.930 . S
H309 C318 0.930 . S
H310 C323 0.929 . S
H311 C321 0.929 . S
H312 C316 0.929 . S
H313 C322 0.929 . S
C314 H308 0.930 . S
C314 C315 1.367 . S
C314 C322 1.378 . S
C315 C314 1.367 . S
C315 C323 1.433 1_556 S
C316 H312 0.929 . S
C316 C318 1.378 . S
C316 C320 1.350 1_554 S
C317 C320 1.484 . S
C317 C322 1.338 1_455 S
C317 N325 1.419 1_456 S
C318 H309 0.930 . S
C318 C316 1.378 . S
C318 C319 1.367 1_554 S
C319 C318 1.367 1_556 S
C319 C321 1.433 . S
C320 C316 1.350 1_556 S
C320 C317 1.484 . S
C320 N324 1.427 . S
C321 H311 0.929 . S
C321 C319 1.433 . S
C321 N324 1.384 . S
C322 H313 0.929 . S
C322 C314 1.378 . S
C322 C317 1.338 1_655 S
C323 H310 0.929 . S
C323 C315 1.433 1_554 S
C323 N325 1.384 . S
N324 C320 1.427 . S
N324 C321 1.384 . S
N325 C317 1.419 1_654 S
N325 C323 1.384 . S
H326 C332 0.930 . S
H327 C336 0.930 . S
H328 C341 0.929 . S
H329 C339 0.929 . S
H330 C334 0.929 . S
H331 C340 0.929 . S
C332 H326 0.930 . S
C332 C333 1.367 1_556 S
C332 C340 1.378 . S
C333 C332 1.367 1_554 S
C333 C341 1.433 . S
C334 H330 0.929 . S
C334 C336 1.378 . S
C334 C338 1.350 . S
C335 C338 1.486 . S
C335 C340 1.337 1_544 S
C335 N343 1.418 1_545 S
C336 H327 0.930 . S
C336 C334 1.378 . S
C336 C337 1.367 . S
C337 C336 1.367 . S
C337 C339 1.433 1_554 S
C338 C334 1.350 . S
C338 C335 1.486 . S
C338 N342 1.427 1_554 S
C339 H329 0.929 . S
C339 C337 1.433 1_556 S
C339 N342 1.384 . S
C340 H331 0.929 . S
C340 C332 1.378 . S
C340 C335 1.337 1_566 S
C341 H328 0.929 . S
C341 C333 1.433 . S
C341 N343 1.384 . S
N342 C338 1.427 1_556 S
N342 C339 1.384 . S
N343 C335 1.418 1_565 S
N343 C341 1.384 . S
H344 C350 0.930 . S
H345 C354 0.930 . S
H346 C359 0.929 . S
H347 C357 0.929 . S
H348 C352 0.929 . S
H349 C358 0.929 . S
C350 H344 0.930 . S
C350 C351 1.367 . S
C350 C358 1.378 . S
C351 C350 1.367 . S
C351 C359 1.433 . S
C352 H348 0.929 . S
C352 C354 1.378 . S
C352 C356 1.350 . S
C353 C356 1.463 . S
C353 C358 1.350 . S
C353 N361 1.427 . S
C354 H345 0.930 . S
C354 C352 1.378 . S
C354 C355 1.367 . S
C355 C354 1.367 . S
C355 C357 1.433 . S
C356 C352 1.350 . S
C356 C353 1.463 . S
C356 N360 1.427 . S
C357 H347 0.929 . S
C357 C355 1.433 . S
C357 N360 1.384 . S
C358 H349 0.929 . S
C358 C350 1.378 . S
C358 C353 1.350 . S
C359 H346 0.929 . S
C359 C351 1.433 . S
C359 N361 1.384 . S
N360 C356 1.427 . S
N360 C357 1.384 . S
N361 C353 1.427 . S
N361 C359 1.384 . S
H362 C368 0.930 . S
H363 C372 0.930 . S
H364 C377 0.929 . S
H365 C375 0.929 . S
H366 C370 0.929 . S
H367 C376 0.929 . S
C368 H362 0.930 . S
C368 C369 1.367 . S
C368 C376 1.378 . S
C369 C368 1.367 . S
C369 C377 1.433 . S
C370 H366 0.929 . S
C370 C372 1.378 . S
C370 C374 1.350 . S
C371 C374 1.463 . S
C371 C376 1.350 . S
C371 N379 1.427 . S
C372 H363 0.930 . S
C372 C370 1.378 . S
C372 C373 1.367 . S
C373 C372 1.367 . S
C373 C375 1.433 . S
C374 C370 1.350 . S
C374 C371 1.463 . S
C374 N378 1.427 . S
C375 H365 0.929 . S
C375 C373 1.433 . S
C375 N378 1.384 . S
C376 H367 0.929 . S
C376 C368 1.378 . S
C376 C371 1.350 . S
C377 H364 0.929 . S
C377 C369 1.433 . S
C377 N379 1.384 . S
N378 C374 1.427 . S
N378 C375 1.384 . S
N379 C371 1.427 . S
N379 C377 1.384 . S
H380 C386 0.930 . S
H381 C390 0.930 . S
H382 C395 0.929 . S
H383 C393 0.929 . S
H384 C388 0.929 . S
H385 C394 0.929 . S
C386 H380 0.930 . S
C386 C387 1.367 . S
C386 C394 1.378 . S
C387 C386 1.367 . S
C387 C395 1.433 . S
C388 H384 0.929 . S
C388 C390 1.378 . S
C388 C392 1.350 . S
C389 C392 1.463 . S
C389 C394 1.350 . S
C389 N397 1.427 . S
C390 H381 0.930 . S
C390 C388 1.378 . S
C390 C391 1.367 . S
C391 C390 1.367 . S
C391 C393 1.433 . S
C392 C388 1.350 . S
C392 C389 1.463 . S
C392 N396 1.427 . S
C393 H383 0.929 . S
C393 C391 1.433 . S
C393 N396 1.384 . S
C394 H385 0.929 . S
C394 C386 1.378 . S
C394 C389 1.350 . S
C395 H382 0.929 . S
C395 C387 1.433 . S
C395 N397 1.384 . S
N396 C392 1.427 . S
N396 C393 1.384 . S
N397 C389 1.427 . S
N397 C395 1.384 . S
H398 C404 0.930 . S
H399 C408 0.930 . S
H400 C413 0.929 . S
H401 C411 0.929 . S
H402 C406 0.929 . S
H403 C412 0.929 . S
C404 H398 0.930 . S
C404 C405 1.367 . S
C404 C412 1.378 . S
C405 C404 1.367 . S
C405 C413 1.433 . S
C406 H402 0.929 . S
C406 C408 1.378 . S
C406 C410 1.350 . S
C407 C410 1.463 . S
C407 C412 1.350 . S
C407 N415 1.427 . S
C408 H399 0.930 . S
C408 C406 1.378 . S
C408 C409 1.367 . S
C409 C408 1.367 . S
C409 C411 1.433 . S
C410 C406 1.350 . S
C410 C407 1.463 . S
C410 N414 1.427 . S
C411 H401 0.929 . S
C411 C409 1.433 . S
C411 N414 1.384 . S
C412 H403 0.929 . S
C412 C404 1.378 . S
C412 C407 1.350 . S
C413 H400 0.929 . S
C413 C405 1.433 . S
C413 N415 1.384 . S
N414 C410 1.427 . S
N414 C411 1.384 . S
N415 C407 1.427 . S
N415 C413 1.384 . S
H416 C422 0.930 . S
H417 C426 0.930 . S
H418 C431 0.929 . S
H419 C429 0.929 . S
H420 C424 0.929 1_554 S
H421 C430 0.929 1_556 S
C422 H416 0.930 . S
C422 C423 1.367 . S
C422 C430 1.378 . S
C423 C422 1.367 . S
C423 C431 1.433 . S
C424 H420 0.929 1_556 S
C424 C426 1.378 . S
C424 C428 1.350 . S
C425 C428 1.463 1_554 S
C425 C430 1.350 . S
C425 N433 1.427 . S
C426 H417 0.930 . S
C426 C424 1.378 . S
C426 C427 1.367 . S
C427 C426 1.367 . S
C427 C429 1.433 . S
C428 C424 1.350 . S
C428 C425 1.463 1_556 S
C428 N432 1.427 . S
C429 H419 0.929 . S
C429 C427 1.433 . S
C429 N432 1.384 . S
C430 H421 0.929 1_554 S
C430 C422 1.378 . S
C430 C425 1.350 . S
C431 H418 0.929 . S
C431 C423 1.433 . S
C431 N433 1.384 . S
N432 C428 1.427 . S
N432 C429 1.384 . S
N433 C425 1.427 . S
N433 C431 1.384 . S
H434 C440 0.930 . S
H435 C444 0.930 . S
H436 C449 0.929 . S
H437 C447 0.929 . S
H438 C442 0.929 . S
H439 C448 0.929 . S
C440 H434 0.930 . S
C440 C441 1.367 1_556 S
C440 C448 1.378 . S
C441 C440 1.367 1_554 S
C441 C449 1.433 . S
C442 H438 0.929 . S
C442 C444 1.378 . S
C442 C446 1.346 1_554 S
C443 C446 1.462 1_554 S
C443 C448 1.346 1_554 S
C443 N451 1.432 . S
C444 H435 0.930 . S
C444 C442 1.378 . S
C444 C445 1.367 1_554 S
C445 C444 1.367 1_556 S
C445 C447 1.433 . S
C446 C442 1.346 1_556 S
C446 C443 1.462 1_556 S
C446 N450 1.431 . S
C447 H437 0.929 . S
C447 C445 1.433 . S
C447 N450 1.384 . S
C448 H439 0.929 . S
C448 C440 1.378 . S
C448 C443 1.346 1_556 S
C449 H436 0.929 . S
C449 C441 1.433 . S
C449 N451 1.384 . S
N450 C446 1.431 . S
N450 C447 1.384 . S
N451 C443 1.432 . S
N451 C449 1.384 . S
H452 C458 0.930 . S
H453 C462 0.930 . S
H454 C467 0.929 . S
H455 C465 0.929 . S
H456 C460 0.929 . S
H457 C466 0.929 . S
C458 H452 0.930 . S
C458 C459 1.367 1_556 S
C458 C466 1.378 . S
C459 C458 1.367 1_554 S
C459 C467 1.433 . S
C460 H456 0.929 . S
C460 C462 1.378 . S
C460 C464 1.350 1_554 S
C461 C464 1.463 1_554 S
C461 C466 1.350 1_554 S
C461 N469 1.427 . S
C462 H453 0.930 . S
C462 C460 1.378 . S
C462 C463 1.367 1_554 S
C463 C462 1.367 1_556 S
C463 C465 1.433 . S
C464 C460 1.350 1_556 S
C464 C461 1.463 1_556 S
C464 N468 1.427 . S
C465 H455 0.929 . S
C465 C463 1.433 . S
C465 N468 1.384 . S
C466 H457 0.929 . S
C466 C458 1.378 . S
C466 C461 1.350 1_556 S
C467 H454 0.929 . S
C467 C459 1.433 . S
C467 N469 1.384 . S
N468 C464 1.427 . S
N468 C465 1.384 . S
N469 C461 1.427 . S
N469 C467 1.384 . S
H470 C476 0.930 . S
H471 C480 0.930 . S
H472 C485 0.929 . S
H473 C483 0.929 . S
H474 C478 0.929 . S
H475 C484 0.929 . S
C476 H470 0.930 . S
C476 C477 1.367 . S
C476 C484 1.378 . S
C477 C476 1.367 . S
C477 C485 1.433 1_554 S
C478 H474 0.929 . S
C478 C480 1.378 . S
C478 C482 1.350 . S
C479 C482 1.463 1_554 S
C479 C484 1.350 . S
C479 N487 1.427 1_554 S
C480 H471 0.930 . S
C480 C478 1.378 . S
C480 C481 1.367 . S
C481 C480 1.367 . S
C481 C483 1.433 1_556 S
C482 C478 1.350 . S
C482 C479 1.463 1_556 S
C482 N486 1.427 1_556 S
C483 H473 0.929 . S
C483 C481 1.433 1_554 S
C483 N486 1.384 . S
C484 H475 0.929 . S
C484 C476 1.378 . S
C484 C479 1.350 . S
C485 H472 0.929 . S
C485 C477 1.433 1_556 S
C485 N487 1.384 . S
N486 C482 1.427 1_554 S
N486 C483 1.384 . S
N487 C479 1.427 1_556 S
N487 C485 1.384 . S
H488 C494 0.930 . S
H489 C498 0.930 . S
H490 C503 0.929 . S
H491 C501 0.929 . S
H492 C496 0.929 . S
H493 C502 0.929 . S
C494 H488 0.930 . S
C494 C495 1.367 . S
C494 C502 1.378 . S
C495 C494 1.367 . S
C495 C503 1.433 . S
C496 H492 0.929 . S
C496 C498 1.378 . S
C496 C500 1.350 . S
C497 C500 1.463 . S
C497 C502 1.350 . S
C497 N505 1.427 . S
C498 H489 0.930 . S
C498 C496 1.378 . S
C498 C499 1.367 . S
C499 C498 1.367 . S
C499 C501 1.433 . S
C500 C496 1.350 . S
C500 C497 1.463 . S
C500 N504 1.427 . S
C501 H491 0.929 . S
C501 C499 1.433 . S
C501 N504 1.384 . S
C502 H493 0.929 . S
C502 C494 1.378 . S
C502 C497 1.350 . S
C503 H490 0.929 . S
C503 C495 1.433 . S
C503 N505 1.384 . S
N504 C500 1.427 . S
N504 C501 1.384 . S
N505 C497 1.427 . S
N505 C503 1.384 . S
H506 C512 0.930 . S
H507 C516 0.930 . S
H508 C521 0.929 . S
H509 C519 0.929 . S
H510 C514 0.929 . S
H511 C520 0.929 . S
C512 H506 0.930 . S
C512 C513 1.367 . S
C512 C520 1.378 . S
C513 C512 1.367 . S
C513 C521 1.433 . S
C514 H510 0.929 . S
C514 C516 1.378 . S
C514 C518 1.350 . S
C515 C518 1.463 . S
C515 C520 1.350 . S
C515 N523 1.427 . S
C516 H507 0.930 . S
C516 C514 1.378 . S
C516 C517 1.367 . S
C517 C516 1.367 . S
C517 C519 1.433 . S
C518 C514 1.350 . S
C518 C515 1.463 . S
C518 N522 1.427 . S
C519 H509 0.929 . S
C519 C517 1.433 . S
C519 N522 1.384 . S
C520 H511 0.929 . S
C520 C512 1.378 . S
C520 C515 1.350 . S
C521 H508 0.929 . S
C521 C513 1.433 . S
C521 N523 1.384 . S
N522 C518 1.427 . S
N522 C519 1.384 . S
N523 C515 1.427 . S
N523 C521 1.384 . S
H524 C530 0.930 . S
H525 C534 0.930 . S
H526 C539 0.929 . S
H527 C537 0.929 . S
H528 C532 0.929 . S
H529 C538 0.929 . S
C530 H524 0.930 . S
C530 C531 1.367 . S
C530 C538 1.378 . S
C531 C530 1.367 . S
C531 C539 1.433 . S
C532 H528 0.929 . S
C532 C534 1.378 . S
C532 C536 1.350 . S
C533 C536 1.463 . S
C533 C538 1.350 . S
C533 N541 1.427 . S
C534 H525 0.930 . S
C534 C532 1.378 . S
C534 C535 1.367 . S
C535 C534 1.367 . S
C535 C537 1.433 . S
C536 C532 1.350 . S
C536 C533 1.463 . S
C536 N540 1.427 . S
C537 H527 0.929 . S
C537 C535 1.433 . S
C537 N540 1.384 . S
C538 H529 0.929 . S
C538 C530 1.378 . S
C538 C533 1.350 . S
C539 H526 0.929 . S
C539 C531 1.433 . S
C539 N541 1.384 . S
N540 C536 1.427 . S
N540 C537 1.384 . S
N541 C533 1.427 . S
N541 C539 1.384 . S
H542 C548 0.930 . S
H543 C552 0.930 . S
H544 C557 0.929 . S
H545 C555 0.929 . S
H546 C550 0.929 . S
H547 C556 0.929 . S
C548 H542 0.930 . S
C548 C549 1.367 . S
C548 C556 1.378 . S
C549 C548 1.367 . S
C549 C557 1.433 . S
C550 H546 0.929 . S
C550 C552 1.378 . S
C550 C554 1.350 . S
C551 C554 1.463 . S
C551 C556 1.350 . S
C551 N559 1.427 . S
C552 H543 0.930 . S
C552 C550 1.378 . S
C552 C553 1.367 . S
C553 C552 1.367 . S
C553 C555 1.433 . S
C554 C550 1.350 . S
C554 C551 1.463 . S
C554 N558 1.427 . S
C555 H545 0.929 . S
C555 C553 1.433 . S
C555 N558 1.384 . S
C556 H547 0.929 . S
C556 C548 1.378 . S
C556 C551 1.350 . S
C557 H544 0.929 . S
C557 C549 1.433 . S
C557 N559 1.384 . S
N558 C554 1.427 . S
N558 C555 1.384 . S
N559 C551 1.427 . S
N559 C557 1.384 . S
H560 C566 0.930 . S
H561 C570 0.930 . S
H562 C575 0.929 . S
H563 C573 0.929 . S
H564 C568 0.929 . S
H565 C574 0.929 . S
C566 H560 0.930 . S
C566 C567 1.367 . S
C566 C574 1.378 . S
C567 C566 1.367 . S
C567 C575 1.433 . S
C568 H564 0.929 . S
C568 C570 1.378 . S
C568 C572 1.350 . S
C569 C572 1.463 . S
C569 C574 1.350 . S
C569 N577 1.427 . S
C570 H561 0.930 . S
C570 C568 1.378 . S
C570 C571 1.367 . S
C571 C570 1.367 . S
C571 C573 1.433 . S
C572 C568 1.350 . S
C572 C569 1.463 . S
C572 N576 1.427 . S
C573 H563 0.929 . S
C573 C571 1.433 . S
C573 N576 1.384 . S
C574 H565 0.929 . S
C574 C566 1.378 . S
C574 C569 1.350 . S
C575 H562 0.929 . S
C575 C567 1.433 . S
C575 N577 1.384 . S
N576 C572 1.427 . S
N576 C573 1.384 . S
N577 C569 1.427 . S
N577 C575 1.384 . S
H578 C584 0.930 . S
H579 C588 0.930 . S
H580 C593 0.929 . S
H581 C591 0.929 . S
H582 C586 0.929 . S
H583 C592 0.929 . S
C584 H578 0.930 . S
C584 C585 1.367 . S
C584 C592 1.378 . S
C585 C584 1.367 . S
C585 C593 1.433 . S
C586 H582 0.929 . S
C586 C588 1.378 . S
C586 C590 1.350 . S
C587 C590 1.463 . S
C587 C592 1.350 . S
C587 N595 1.427 . S
C588 H579 0.930 . S
C588 C586 1.378 . S
C588 C589 1.367 . S
C589 C588 1.367 . S
C589 C591 1.433 . S
C590 C586 1.350 . S
C590 C587 1.463 . S
C590 N594 1.427 . S
C591 H581 0.929 . S
C591 C589 1.433 . S
C591 N594 1.384 . S
C592 H583 0.929 . S
C592 C584 1.378 . S
C592 C587 1.350 . S
C593 H580 0.929 . S
C593 C585 1.433 . S
C593 N595 1.384 . S
N594 C590 1.427 . S
N594 C591 1.384 . S
N595 C587 1.427 . S
N595 C593 1.384 . S
H596 C602 0.930 . S
H597 C606 0.930 . S
H598 C611 0.929 . S
H599 C609 0.929 . S
H600 C604 0.929 . S
H601 C610 0.929 . S
C602 H596 0.930 . S
C602 C603 1.367 . S
C602 C610 1.378 . S
C603 C602 1.367 . S
C603 C611 1.433 . S
C604 H600 0.929 . S
C604 C606 1.378 . S
C604 C608 1.350 . S
C605 C608 1.463 . S
C605 C610 1.350 . S
C605 N613 1.427 . S
C606 H597 0.930 . S
C606 C604 1.378 . S
C606 C607 1.367 . S
C607 C606 1.367 . S
C607 C609 1.433 . S
C608 C604 1.350 . S
C608 C605 1.463 . S
C608 N612 1.427 . S
C609 H599 0.929 . S
C609 C607 1.433 . S
C609 N612 1.384 . S
C610 H601 0.929 . S
C610 C602 1.378 . S
C610 C605 1.350 . S
C611 H598 0.929 . S
C611 C603 1.433 . S
C611 N613 1.384 . S
N612 C608 1.427 . S
N612 C609 1.384 . S
N613 C605 1.427 . S
N613 C611 1.384 . S
H614 C620 0.930 . S
H615 C624 0.930 . S
H616 C629 0.929 . S
H617 C627 0.929 . S
H618 C622 0.929 . S
H619 C628 0.929 . S
C620 H614 0.930 . S
C620 C621 1.367 . S
C620 C628 1.378 . S
C621 C620 1.367 . S
C621 C629 1.433 . S
C622 H618 0.929 . S
C622 C624 1.378 . S
C622 C626 1.350 . S
C623 C626 1.463 . S
C623 C628 1.350 . S
C623 N631 1.427 . S
C624 H615 0.930 . S
C624 C622 1.378 . S
C624 C625 1.367 . S
C625 C624 1.367 . S
C625 C627 1.433 . S
C626 C622 1.350 . S
C626 C623 1.463 . S
C626 N630 1.427 . S
C627 H617 0.929 . S
C627 C625 1.433 . S
C627 N630 1.384 . S
C628 H619 0.929 . S
C628 C620 1.378 . S
C628 C623 1.350 . S
C629 H616 0.929 . S
C629 C621 1.433 . S
C629 N631 1.384 . S
N630 C626 1.427 . S
N630 C627 1.384 . S
N631 C623 1.427 . S
N631 C629 1.384 . S
C279 C101 1.062 . S
C283 C33 1.049 . S
C297 C67 1.054 . S
C301 C135 1.054 . S
C315 C169 1.048 . S
C319 C237 1.065 . S
C333 C271 1.066 . S
C337 C203 1.048 . S
C351 C122 1.550 . S
C355 C20 1.549 . S
C369 C9 1.759 . S
C373 C43 1.760 . S
C387 C88 1.551 . S
C391 C54 1.550 . S
C405 C77 1.759 . S
C409 C111 1.759 . S
C423 C258 1.552 . S
C427 C156 1.553 . S
C441 C145 1.760 . S
C445 C179 1.759 . S
C459 C190 1.554 . S
C463 C224 1.554 . S
C477 C213 1.759 . S
C481 C247 1.759 . S
C495 C5 0.570 . S
C499 C175 0.570 . S
C513 C36 1.327 . S
C517 C206 1.329 . S
C531 C73 0.527 . S
C535 C243 0.536 . S
C549 C104 1.326 . S
C553 C138 1.320 . S
C567 C70 1.331 . S
C571 C172 1.320 . S
C585 C107 0.529 . S
C589 C209 0.525 . S
C603 C2 1.332 . S
C607 C240 1.322 . S
C621 C39 0.542 . S
C625 C141 0.531 . S
