# Generated by pormake.
# Topology pcb, (4)-cn, num edge types: 1
# Building blocks:
#     Node 0, Type 0, BuildingBlock: CEKHIL_clean_sbu_0, # of connection points: 4
#     Node 1, Type 0, BuildingBlock: CEKHIL_clean_sbu_0, # of connection points: 4
#     Node 2, Type 0, BuildingBlock: CEKHIL_clean_sbu_0, # of connection points: 4
#     Node 3, Type 0, BuildingBlock: CEKHIL_clean_sbu_0, # of connection points: 4
#     Node 4, Type 0, BuildingBlock: CEKHIL_clean_sbu_0, # of connection points: 4
#     Node 5, Type 0, BuildingBlock: CEKHIL_clean_sbu_0, # of connection points: 4
#     Node 6, Type 0, BuildingBlock: CEKHIL_clean_sbu_0, # of connection points: 4
#     Node 7, Type 0, BuildingBlock: CEKHIL_clean_sbu_0, # of connection points: 4
#     Node 8, Type 0, BuildingBlock: CEKHIL_clean_sbu_0, # of connection points: 4
#     Node 9, Type 0, BuildingBlock: CEKHIL_clean_sbu_0, # of connection points: 4
#     Node 10, Type 0, BuildingBlock: CEKHIL_clean_sbu_0, # of connection points: 4
#     Node 11, Type 0, BuildingBlock: CEKHIL_clean_sbu_0, # of connection points: 4
#     Node 12, Type 0, BuildingBlock: CEKHIL_clean_sbu_0, # of connection points: 4
#     Node 13, Type 0, BuildingBlock: CEKHIL_clean_sbu_0, # of connection points: 4
#     Node 14, Type 0, BuildingBlock: CEKHIL_clean_sbu_0, # of connection points: 4
#     Node 15, Type 0, BuildingBlock: CEKHIL_clean_sbu_0, # of connection points: 4
#     Edge 16, Type (0, 0), BuildingBlock: XIVTED_clean_linker_0, # of connection points: 2
#     Edge 17, Type (0, 0), BuildingBlock: XIVTED_clean_linker_0, # of connection points: 2
#     Edge 18, Type (0, 0), BuildingBlock: XIVTED_clean_linker_0, # of connection points: 2
#     Edge 19, Type (0, 0), BuildingBlock: XIVTED_clean_linker_0, # of connection points: 2
#     Edge 20, Type (0, 0), BuildingBlock: XIVTED_clean_linker_0, # of connection points: 2
#     Edge 21, Type (0, 0), BuildingBlock: XIVTED_clean_linker_0, # of connection points: 2
#     Edge 22, Type (0, 0), BuildingBlock: XIVTED_clean_linker_0, # of connection points: 2
#     Edge 23, Type (0, 0), BuildingBlock: XIVTED_clean_linker_0, # of connection points: 2
#     Edge 24, Type (0, 0), BuildingBlock: XIVTED_clean_linker_0, # of connection points: 2
#     Edge 25, Type (0, 0), BuildingBlock: XIVTED_clean_linker_0, # of connection points: 2
#     Edge 26, Type (0, 0), BuildingBlock: XIVTED_clean_linker_0, # of connection points: 2
#     Edge 27, Type (0, 0), BuildingBlock: XIVTED_clean_linker_0, # of connection points: 2
#     Edge 28, Type (0, 0), BuildingBlock: XIVTED_clean_linker_0, # of connection points: 2
#     Edge 29, Type (0, 0), BuildingBlock: XIVTED_clean_linker_0, # of connection points: 2
#     Edge 30, Type (0, 0), BuildingBlock: XIVTED_clean_linker_0, # of connection points: 2
#     Edge 31, Type (0, 0), BuildingBlock: XIVTED_clean_linker_0, # of connection points: 2
#     Edge 32, Type (0, 0), BuildingBlock: XIVTED_clean_linker_0, # of connection points: 2
#     Edge 33, Type (0, 0), BuildingBlock: XIVTED_clean_linker_0, # of connection points: 2
#     Edge 34, Type (0, 0), BuildingBlock: XIVTED_clean_linker_0, # of connection points: 2
#     Edge 35, Type (0, 0), BuildingBlock: XIVTED_clean_linker_0, # of connection points: 2
#     Edge 36, Type (0, 0), BuildingBlock: XIVTED_clean_linker_0, # of connection points: 2
#     Edge 37, Type (0, 0), BuildingBlock: XIVTED_clean_linker_0, # of connection points: 2
#     Edge 38, Type (0, 0), BuildingBlock: XIVTED_clean_linker_0, # of connection points: 2
#     Edge 39, Type (0, 0), BuildingBlock: XIVTED_clean_linker_0, # of connection points: 2
#     Edge 40, Type (0, 0), BuildingBlock: XIVTED_clean_linker_0, # of connection points: 2
#     Edge 41, Type (0, 0), BuildingBlock: XIVTED_clean_linker_0, # of connection points: 2
#     Edge 42, Type (0, 0), BuildingBlock: XIVTED_clean_linker_0, # of connection points: 2
#     Edge 43, Type (0, 0), BuildingBlock: XIVTED_clean_linker_0, # of connection points: 2
#     Edge 44, Type (0, 0), BuildingBlock: XIVTED_clean_linker_0, # of connection points: 2
#     Edge 45, Type (0, 0), BuildingBlock: XIVTED_clean_linker_0, # of connection points: 2
#     Edge 46, Type (0, 0), BuildingBlock: XIVTED_clean_linker_0, # of connection points: 2
#     Edge 47, Type (0, 0), BuildingBlock: XIVTED_clean_linker_0, # of connection points: 2
# Relax obj value: 0.234
# Max RMSD: 0.083
# Mean RMSD: 0.083
data_MOF--net-pcb--node1-CEKHIL_clean_sbu_0--edge1-XIVTED_clean_linker_0
_symmetry_space_group_name_H-M    P1
_symmetry_Int_Tables_number       1
_symmetry_cell_setting            triclinic
loop_
_symmetry_equiv_pos_as_xyz
'x, y, z'
_cell_length_a     56.808153
_cell_length_b     36.8007
_cell_length_c     36.805811
_cell_angle_alpha  89.997146
_cell_angle_beta   89.996481
_cell_angle_gamma 90.002702
loop_
_atom_site_label
_atom_site_type_symbol
_atom_site_fract_x
_atom_site_fract_y
_atom_site_fract_z
_atom_type_partial_charge
Co0 Co 0.13708 0.19408 0.19469 0.0
O1 O 0.17024 0.19026 0.18428 0.0
O2 O 0.15356 0.23683 0.21216 0.0
C3 C 0.13358 0.13685 0.21637 0.0
O4 O 0.10344 0.20724 0.2109 0.0
Co5 Co 0.10014 0.1434 0.15785 0.0
O6 O 0.07964 0.1602 0.19786 0.0
C7 C 0.11966 0.20672 0.1177 0.0
C8 C 0.17268 0.22151 0.20012 0.0
C9 C 0.08354 0.19045 0.21345 0.0
O10 O 0.13156 0.21731 0.14556 0.0
O11 O 0.10722 0.1777 0.11707 0.0
O12 O 0.14125 0.16256 0.23745 0.0
O13 O 0.12978 0.14594 0.1831 0.0
Co14 Co 0.86869 0.2064 0.19007 0.0
O15 O 0.83551 0.19646 0.18678 0.0
O16 O 0.85346 0.21579 0.23645 0.0
C17 C 0.87013 0.23831 0.13776 0.0
O18 O 0.90273 0.22023 0.20325 0.0
Co19 Co 0.90345 0.17985 0.13023 0.0
O20 O 0.92513 0.21511 0.15309 0.0
C21 C 0.88635 0.12856 0.18696 0.0
C22 C 0.83391 0.20659 0.2204 0.0
C23 C 0.92221 0.22522 0.18585 0.0
O24 O 0.87499 0.15394 0.20354 0.0
O25 O 0.89745 0.13339 0.15703 0.0
O26 O 0.86365 0.25428 0.16756 0.0
O27 O 0.87408 0.20395 0.14 0.0
Co28 Co 0.87231 0.80491 0.1911 0.0
O29 O 0.83913 0.80886 0.18085 0.0
O30 O 0.8555 0.76423 0.21219 0.0
C31 C 0.87677 0.86358 0.20785 0.0
O32 O 0.90576 0.79205 0.20818 0.0
Co33 Co 0.90987 0.85063 0.14983 0.0
O34 O 0.92993 0.8375 0.19171 0.0
C35 C 0.8888 0.78556 0.11495 0.0
C36 C 0.83649 0.779 0.19914 0.0
C37 C 0.92569 0.80882 0.20983 0.0
O38 O 0.87713 0.77764 0.14392 0.0
O39 O 0.90178 0.81383 0.11176 0.0
O40 O 0.86883 0.84001 0.23111 0.0
O41 O 0.88026 0.8516 0.17541 0.0
Co42 Co 0.13986 0.79781 0.19421 0.0
O43 O 0.17301 0.8079 0.19068 0.0
O44 O 0.15562 0.78449 0.23909 0.0
C45 C 0.13748 0.77047 0.13942 0.0
O46 O 0.10606 0.78281 0.20742 0.0
Co47 Co 0.10419 0.82961 0.1383 0.0
O48 O 0.08285 0.79254 0.15885 0.0
C49 C 0.12205 0.87554 0.19883 0.0
C50 C 0.17498 0.79496 0.2233 0.0
C51 C 0.08636 0.77931 0.19033 0.0
O52 O 0.13388 0.84892 0.2124 0.0
O53 O 0.11028 0.87339 0.16921 0.0
O54 O 0.14448 0.75206 0.16749 0.0
O55 O 0.13364 0.80453 0.14472 0.0
Co56 Co 0.13582 0.80693 0.80447 0.0
O57 O 0.16904 0.81103 0.81423 0.0
O58 O 0.15221 0.76387 0.78756 0.0
C59 C 0.13201 0.86362 0.78169 0.0
O60 O 0.10211 0.79343 0.78901 0.0
Co61 Co 0.09922 0.85792 0.8415 0.0
O62 O 0.07844 0.84064 0.80203 0.0
C63 C 0.11953 0.79587 0.88242 0.0
C64 C 0.1714 0.77945 0.79902 0.0
C65 C 0.08223 0.8103 0.78656 0.0
O66 O 0.13078 0.78468 0.85415 0.0
O67 O 0.10711 0.82492 0.88304 0.0
O68 O 0.13961 0.83753 0.76102 0.0
O69 O 0.12853 0.85525 0.81525 0.0
Co70 Co 0.13724 0.2007 0.80328 0.0
O71 O 0.17033 0.18984 0.80718 0.0
O72 O 0.15357 0.21608 0.7597 0.0
C73 C 0.1342 0.22489 0.85956 0.0
O74 O 0.10382 0.21721 0.7896 0.0
Co75 Co 0.10004 0.16725 0.85585 0.0
O76 O 0.07977 0.20659 0.83693 0.0
C77 C 0.11882 0.12376 0.79416 0.0
C78 C 0.1727 0.20452 0.77533 0.0
C79 C 0.08395 0.22093 0.80617 0.0
O80 O 0.13109 0.15072 0.78224 0.0
O81 O 0.10651 0.12486 0.8233 0.0
O82 O 0.14196 0.24468 0.83291 0.0
O83 O 0.13 0.19137 0.85195 0.0
Co84 Co 0.87082 0.19814 0.80812 0.0
O85 O 0.83772 0.19399 0.81883 0.0
O86 O 0.85388 0.23906 0.78784 0.0
C87 C 0.87524 0.13972 0.79051 0.0
O88 O 0.90412 0.21139 0.7907 0.0
Co89 Co 0.90872 0.15207 0.84816 0.0
O90 O 0.92856 0.16599 0.80627 0.0
C91 C 0.88773 0.21651 0.88431 0.0
C92 C 0.83495 0.22409 0.80097 0.0
C93 C 0.9241 0.19488 0.7886 0.0
O94 O 0.87593 0.2248 0.85557 0.0
O95 O 0.90073 0.1882 0.88694 0.0
O96 O 0.86712 0.16358 0.7677 0.0
O97 O 0.87894 0.15126 0.82305 0.0
Co98 Co 0.8674 0.79721 0.80864 0.0
O99 O 0.83424 0.80725 0.81224 0.0
O100 O 0.85192 0.78711 0.76266 0.0
C101 C 0.86924 0.76607 0.86144 0.0
O102 O 0.90132 0.78299 0.79513 0.0
Co103 Co 0.90258 0.82483 0.86751 0.0
O104 O 0.92422 0.7896 0.84459 0.0
C105 C 0.88509 0.87515 0.81024 0.0
C106 C 0.83246 0.79654 0.77881 0.0
C107 C 0.92097 0.77855 0.81222 0.0
O108 O 0.87366 0.84946 0.79422 0.0
O109 O 0.89635 0.87084 0.84009 0.0
O110 O 0.86243 0.74972 0.83202 0.0
O111 O 0.8732 0.80039 0.85858 0.0
Co112 Co 0.6358 0.69509 0.69685 0.0
O113 O 0.66892 0.69132 0.68606 0.0
O114 O 0.6522 0.73841 0.71302 0.0
C115 C 0.63264 0.63839 0.72005 0.0
O116 O 0.60225 0.70839 0.71334 0.0
Co117 Co 0.5988 0.64318 0.66192 0.0
O118 O 0.57846 0.66096 0.70169 0.0
C119 C 0.61796 0.70546 0.61974 0.0
C120 C 0.67132 0.72297 0.70113 0.0
C121 C 0.58242 0.69153 0.7166 0.0
O122 O 0.62989 0.717 0.6472 0.0
O123 O 0.60567 0.67627 0.62008 0.0
O124 O 0.64036 0.66469 0.74034 0.0
O125 O 0.62859 0.6466 0.68662 0.0
Co126 Co 0.36795 0.70347 0.6931 0.0
O127 O 0.3348 0.6934 0.68903 0.0
O128 O 0.35205 0.71485 0.73842 0.0
C129 C 0.3704 0.73312 0.63948 0.0
O130 O 0.40174 0.71805 0.70707 0.0
Co131 Co 0.40374 0.67411 0.63592 0.0
O132 O 0.42523 0.70975 0.65852 0.0
C133 C 0.38556 0.62548 0.69411 0.0
C134 C 0.33274 0.70502 0.72212 0.0
C135 C 0.4216 0.72187 0.6904 0.0
O136 O 0.374 0.65162 0.70912 0.0
O137 O 0.39716 0.62891 0.66446 0.0
O138 O 0.36324 0.75027 0.66824 0.0
O139 O 0.37431 0.69889 0.64343 0.0
Co140 Co 0.37089 0.30373 0.69411 0.0
O141 O 0.33769 0.30761 0.6839 0.0
O142 O 0.35431 0.26211 0.71364 0.0
C143 C 0.37504 0.3618 0.71302 0.0
O144 O 0.40433 0.29055 0.71089 0.0
Co145 Co 0.40832 0.35132 0.65471 0.0
O146 O 0.42861 0.33629 0.69567 0.0
C147 C 0.38753 0.28742 0.6173 0.0
C148 C 0.33521 0.27708 0.70113 0.0
C149 C 0.42431 0.30709 0.71291 0.0
O150 O 0.37595 0.27825 0.64599 0.0
O151 O 0.40032 0.31601 0.61519 0.0
O152 O 0.36716 0.33731 0.73535 0.0
O153 O 0.37865 0.35107 0.68018 0.0
Co154 Co 0.63748 0.30136 0.6968 0.0
O155 O 0.67051 0.31234 0.69238 0.0
O156 O 0.65411 0.28611 0.74017 0.0
C157 C 0.63414 0.27704 0.64063 0.0
O158 O 0.60413 0.28481 0.71089 0.0
Co159 Co 0.60004 0.33485 0.64471 0.0
O160 O 0.58001 0.2952 0.6636 0.0
C161 C 0.61917 0.37837 0.70609 0.0
C162 C 0.67311 0.29777 0.72422 0.0
C163 C 0.58426 0.28093 0.69437 0.0
O164 O 0.63144 0.35135 0.71786 0.0
O165 O 0.6067 0.37731 0.67712 0.0
O166 O 0.64207 0.25734 0.66722 0.0
O167 O 0.62998 0.31059 0.6482 0.0
Co168 Co 0.63703 0.30457 0.3053 0.0
O169 O 0.67017 0.3086 0.31574 0.0
O170 O 0.65357 0.26167 0.28832 0.0
C171 C 0.63343 0.36153 0.28291 0.0
O172 O 0.60342 0.29117 0.28915 0.0
Co173 Co 0.60002 0.35551 0.34155 0.0
O174 O 0.57971 0.33853 0.30139 0.0
C175 C 0.61946 0.29257 0.38235 0.0
C176 C 0.67266 0.27719 0.30023 0.0
C177 C 0.58358 0.30808 0.28619 0.0
O178 O 0.63148 0.28183 0.35467 0.0
O179 O 0.60696 0.32153 0.38265 0.0
O180 O 0.64118 0.33558 0.26219 0.0
O181 O 0.62965 0.35284 0.3163 0.0
Co182 Co 0.63919 0.69791 0.30345 0.0
O183 O 0.67233 0.68758 0.30778 0.0
O184 O 0.65584 0.71515 0.26083 0.0
C185 C 0.63532 0.72004 0.36045 0.0
O186 O 0.60571 0.71419 0.28972 0.0
Co187 Co 0.60193 0.66139 0.35377 0.0
O188 O 0.58173 0.70163 0.33666 0.0
C189 C 0.62174 0.62085 0.29101 0.0
C190 C 0.6749 0.70333 0.2765 0.0
C191 C 0.58584 0.71718 0.30647 0.0
O192 O 0.63379 0.64858 0.28047 0.0
O193 O 0.60906 0.62041 0.31977 0.0
O194 O 0.64318 0.7409 0.33469 0.0
O195 O 0.63158 0.68667 0.35158 0.0
Co196 Co 0.37221 0.69522 0.30836 0.0
O197 O 0.3391 0.69105 0.31909 0.0
O198 O 0.35528 0.7364 0.28855 0.0
C199 C 0.37655 0.63698 0.29011 0.0
O200 O 0.40554 0.7085 0.29101 0.0
Co201 Co 0.41001 0.64849 0.34798 0.0
O202 O 0.42993 0.66292 0.30637 0.0
C203 C 0.38921 0.71275 0.38468 0.0
C204 C 0.33635 0.72134 0.30157 0.0
C205 C 0.42551 0.69192 0.28886 0.0
O206 O 0.37738 0.72138 0.35608 0.0
O207 O 0.40216 0.68437 0.38703 0.0
O208 O 0.36843 0.6611 0.26758 0.0
O209 O 0.38025 0.64815 0.32278 0.0
Co210 Co 0.36874 0.29506 0.30926 0.0
O211 O 0.33557 0.30507 0.31259 0.0
O212 O 0.35334 0.28434 0.26334 0.0
C213 C 0.37044 0.26467 0.36247 0.0
O214 O 0.40272 0.2808 0.2961 0.0
Co215 Co 0.40382 0.32332 0.36786 0.0
O216 O 0.42536 0.28736 0.34582 0.0
C217 C 0.38648 0.37294 0.30984 0.0
C218 C 0.33385 0.29398 0.27929 0.0
C219 C 0.42227 0.27625 0.31343 0.0
O220 O 0.37497 0.34712 0.29421 0.0
O221 O 0.39779 0.36897 0.33971 0.0
O222 O 0.3638 0.24787 0.33322 0.0
O223 O 0.37439 0.29895 0.3592 0.0
H224 H 0.29215 0.32268 0.30206 0.0
H225 H 0.21448 0.19895 0.17115 0.0
H226 H 0.32206 0.25555 0.2178 0.0
H227 H 0.18493 0.27987 0.24266 0.0
H228 H 0.25388 0.22132 0.18554 0.0
H229 H 0.2529 0.30978 0.27845 0.0
C230 C 0.29048 0.30551 0.2783 0.0
C231 C 0.31043 0.28997 0.26201 0.0
C232 C 0.2388 0.23446 0.19782 0.0
C233 C 0.26536 0.27467 0.23505 0.0
C234 C 0.21626 0.22167 0.18965 0.0
C235 C 0.19636 0.2374 0.20593 0.0
C236 C 0.24155 0.263 0.22278 0.0
C237 C 0.19976 0.26686 0.22955 0.0
C238 C 0.26801 0.29816 0.26482 0.0
C239 C 0.30717 0.26808 0.2312 0.0
N240 N 0.22193 0.27845 0.23755 0.0
N241 N 0.28504 0.26072 0.21898 0.0
H242 H 0.7144 0.29995 0.3293 0.0
H243 H 0.79232 0.1776 0.19764 0.0
H244 H 0.68506 0.21879 0.25786 0.0
H245 H 0.82214 0.2441 0.28246 0.0
H246 H 0.75306 0.18986 0.22158 0.0
H247 H 0.75386 0.27782 0.3149 0.0
C248 C 0.71624 0.27722 0.31081 0.0
C249 C 0.69637 0.26136 0.29454 0.0
C250 C 0.76816 0.20147 0.23528 0.0
C251 C 0.74163 0.23605 0.27768 0.0
C252 C 0.79062 0.19448 0.22161 0.0
C253 C 0.81055 0.21006 0.23795 0.0
C254 C 0.76547 0.22465 0.26529 0.0
C255 C 0.80727 0.23156 0.26902 0.0
C256 C 0.73881 0.26456 0.30265 0.0
C257 C 0.69986 0.23189 0.27096 0.0
N258 N 0.78513 0.2386 0.28141 0.0
N259 N 0.72205 0.22046 0.26294 0.0
H260 H 0.79458 0.80128 0.17029 0.0
H261 H 0.71679 0.67604 0.30061 0.0
H262 H 0.82424 0.72245 0.24401 0.0
H263 H 0.68717 0.74489 0.21746 0.0
H264 H 0.75619 0.69074 0.27854 0.0
H265 H 0.75522 0.77929 0.18541 0.0
C266 C 0.79283 0.77915 0.1895 0.0
C267 C 0.81275 0.76381 0.20607 0.0
C268 C 0.7411 0.70242 0.26489 0.0
C269 C 0.76762 0.73861 0.22372 0.0
C270 C 0.71856 0.69404 0.27748 0.0
C271 C 0.69863 0.70942 0.26097 0.0
C272 C 0.74382 0.72665 0.23571 0.0
C273 C 0.70203 0.73245 0.23104 0.0
C274 C 0.77032 0.76658 0.1981 0.0
C275 C 0.80939 0.73512 0.23064 0.0
N276 N 0.72419 0.74062 0.21958 0.0
N277 N 0.78724 0.72365 0.23894 0.0
H278 H 0.29454 0.69844 0.3304 0.0
H279 H 0.21673 0.82347 0.20047 0.0
H280 H 0.32393 0.77887 0.25816 0.0
H281 H 0.18689 0.75483 0.28359 0.0
H282 H 0.25601 0.80973 0.22343 0.0
H283 H 0.2551 0.72058 0.31586 0.0
C284 C 0.29272 0.72097 0.31167 0.0
C285 C 0.31258 0.73668 0.29527 0.0
C286 C 0.2409 0.79792 0.23694 0.0
C287 C 0.26738 0.76204 0.27831 0.0
C288 C 0.21842 0.80576 0.22383 0.0
C289 C 0.19848 0.79008 0.24 0.0
C290 C 0.24357 0.77386 0.26625 0.0
C291 C 0.20177 0.76748 0.27028 0.0
C292 C 0.27016 0.73363 0.30342 0.0
C293 C 0.30913 0.76588 0.27135 0.0
N294 N 0.22391 0.75972 0.28219 0.0
N295 N 0.28696 0.77738 0.26334 0.0
H296 H 0.291 0.67709 0.69834 0.0
H297 H 0.2132 0.80201 0.82791 0.0
H298 H 0.32066 0.74359 0.78331 0.0
H299 H 0.18356 0.72071 0.75693 0.0
H300 H 0.25256 0.77924 0.81391 0.0
H301 H 0.25163 0.69057 0.72127 0.0
C302 C 0.28925 0.69424 0.72211 0.0
C303 C 0.30917 0.70943 0.73881 0.0
C304 C 0.23746 0.7661 0.80165 0.0
C305 C 0.264 0.72538 0.76499 0.0
C306 C 0.21495 0.77913 0.80958 0.0
C307 C 0.19504 0.76339 0.79336 0.0
C308 C 0.24018 0.73733 0.77695 0.0
C309 C 0.1984 0.73371 0.76999 0.0
C310 C 0.26672 0.70192 0.7352 0.0
C311 C 0.3058 0.73132 0.76959 0.0
N312 N 0.22055 0.7219 0.76218 0.0
N313 N 0.28363 0.739 0.78142 0.0
H314 H 0.18446 0.24433 0.71493 0.0
H315 H 0.32347 0.21889 0.74409 0.0
H316 H 0.2148 0.17786 0.7994 0.0
H317 H 0.29306 0.29975 0.67334 0.0
H318 H 0.28382 0.19695 0.75834 0.0
H319 H 0.22417 0.2582 0.69295 0.0
C320 C 0.19945 0.23231 0.72859 0.0
C321 C 0.19631 0.21011 0.7592 0.0
C322 C 0.28584 0.21934 0.73951 0.0
C323 C 0.24179 0.22595 0.73431 0.0
C324 C 0.30848 0.23181 0.73129 0.0
C325 C 0.31158 0.26137 0.7077 0.0
C326 C 0.26616 0.23645 0.72389 0.0
C327 C 0.2915 0.27705 0.69188 0.0
C328 C 0.22212 0.24035 0.71613 0.0
C329 C 0.21639 0.19531 0.77585 0.0
N330 N 0.26967 0.2645 0.70037 0.0
N331 N 0.23825 0.20363 0.76331 0.0
H332 H 0.79322 0.20167 0.83034 0.0
H333 H 0.71481 0.32553 0.69987 0.0
H334 H 0.82247 0.28085 0.75657 0.0
H335 H 0.68556 0.25755 0.78406 0.0
H336 H 0.75429 0.31162 0.7221 0.0
H337 H 0.75377 0.22359 0.81566 0.0
C338 C 0.79136 0.22387 0.81123 0.0
C339 C 0.81119 0.23931 0.79448 0.0
C340 C 0.73926 0.29999 0.73596 0.0
C341 C 0.76596 0.26441 0.77734 0.0
C342 C 0.71668 0.30792 0.72328 0.0
C343 C 0.69684 0.2925 0.74001 0.0
C344 C 0.74211 0.27614 0.76543 0.0
C345 C 0.70035 0.26999 0.7703 0.0
C346 C 0.7688 0.23641 0.80289 0.0
C347 C 0.80769 0.26809 0.77006 0.0
N348 N 0.72256 0.26221 0.78182 0.0
N349 N 0.7855 0.27949 0.76199 0.0
H350 H 0.79076 0.82504 0.80188 0.0
H351 H 0.71309 0.70039 0.67204 0.0
H352 H 0.82063 0.75839 0.71721 0.0
H353 H 0.68351 0.78201 0.74271 0.0
H354 H 0.75248 0.72319 0.68593 0.0
H355 H 0.75147 0.81199 0.77843 0.0
C356 C 0.78907 0.80796 0.77805 0.0
C357 C 0.80902 0.79258 0.76161 0.0
C358 C 0.73739 0.7364 0.69811 0.0
C359 C 0.76393 0.77709 0.73484 0.0
C360 C 0.71486 0.72336 0.69024 0.0
C361 C 0.69496 0.73916 0.70645 0.0
C362 C 0.74012 0.76523 0.72274 0.0
C363 C 0.69834 0.76895 0.72967 0.0
C364 C 0.76659 0.80052 0.76466 0.0
C365 C 0.80574 0.7708 0.73073 0.0
N366 N 0.7205 0.78075 0.73743 0.0
N367 N 0.7836 0.76332 0.71861 0.0
H368 H 0.16377 0.26557 0.90228 0.0
H369 H 0.08291 0.22369 0.0745 0.0
H370 H 0.09574 0.21382 0.90126 0.0
H371 H 0.15814 0.23617 0.08316 0.0
H372 H 0.08486 0.24342 0.01137 0.0
H373 H 0.15938 0.27575 0.9683 0.0
C374 C 0.14762 0.2575 0.9157 0.0
C375 C 0.13006 0.23881 0.89648 0.0
C376 C 0.10093 0.24258 0.02718 0.0
C377 C 0.12489 0.25048 0.97106 0.0
C378 C 0.0998 0.23146 0.06323 0.0
C379 C 0.12044 0.22778 0.0837 0.0
C380 C 0.12292 0.24934 0.01117 0.0
C381 C 0.14186 0.23852 0.06804 0.0
C382 C 0.14521 0.26308 0.95324 0.0
C383 C 0.10967 0.2283 0.915 0.0
N384 N 0.14267 0.24805 0.03225 0.0
N385 N 0.10769 0.23415 0.95118 0.0
H386 H 0.8479 0.24834 0.91187 0.0
H387 H 0.90977 0.26333 0.1051 0.0
H388 H 0.92204 0.23413 0.93239 0.0
H389 H 0.83497 0.25222 0.09007 0.0
H390 H 0.91424 0.27466 0.03997 0.0
H391 H 0.843 0.27094 0.97428 0.0
C392 C 0.86324 0.25111 0.92913 0.0
C393 C 0.88533 0.23885 0.91735 0.0
C394 C 0.89674 0.27076 0.05098 0.0
C395 C 0.87991 0.26435 0.98835 0.0
C396 C 0.89422 0.26451 0.08816 0.0
C397 C 0.87201 0.25683 0.10264 0.0
C398 C 0.87694 0.26854 0.02817 0.0
C399 C 0.85237 0.25831 0.07969 0.0
C400 C 0.86043 0.26376 0.96476 0.0
C401 C 0.90464 0.24279 0.94073 0.0
N402 N 0.85531 0.26334 0.04336 0.0
N403 N 0.90144 0.25475 0.97523 0.0
H404 H 0.8342 0.7458 0.90732 0.0
H405 H 0.92358 0.76291 0.07009 0.0
H406 H 0.90962 0.74789 0.89629 0.0
H407 H 0.8484 0.75833 0.08485 0.0
H408 H 0.91881 0.74057 0.00821 0.0
H409 H 0.83876 0.73398 0.97262 0.0
C410 C 0.85171 0.7424 0.91851 0.0
C411 C 0.8716 0.74792 0.89672 0.0
C412 C 0.90331 0.74363 0.02506 0.0
C413 C 0.87701 0.7355 0.97107 0.0
C414 C 0.90608 0.75626 0.06046 0.0
C415 C 0.88633 0.76282 0.08227 0.0
C416 C 0.88056 0.73856 0.01096 0.0
C417 C 0.86404 0.75365 0.06871 0.0
C418 C 0.85433 0.73596 0.95577 0.0
C419 C 0.89389 0.74403 0.91234 0.0
N420 N 0.86168 0.74283 0.0335 0.0
N421 N 0.896 0.73857 0.94866 0.0
H422 H 0.09671 0.7527 0.1054 0.0
H423 H 0.15833 0.7617 0.91096 0.0
H424 H 0.17185 0.75523 0.09052 0.0
H425 H 0.08529 0.78513 0.93257 0.0
H426 H 0.16271 0.74035 0.97397 0.0
H427 H 0.09166 0.74456 0.04 0.0
C428 C 0.11216 0.75054 0.08838 0.0
C429 C 0.13469 0.75476 0.10307 0.0
C430 C 0.14562 0.74942 0.9646 0.0
C431 C 0.12916 0.7465 0.02823 0.0
C432 C 0.1431 0.76139 0.92867 0.0
C433 C 0.12152 0.77566 0.91689 0.0
C434 C 0.12633 0.75143 0.98848 0.0
C435 C 0.10233 0.77485 0.94084 0.0
C436 C 0.10931 0.74604 0.05103 0.0
C437 C 0.15419 0.75183 0.07997 0.0
N438 N 0.10525 0.76333 0.97554 0.0
N439 N 0.151 0.7485 0.04347 0.0
H440 H 0.06882 0.25985 0.20054 0.0
H441 H 0.93755 0.2032 0.25268 0.0
H442 H 0.04984 0.16187 0.25754 0.0
H443 H 0.95644 0.27111 0.16187 0.0
H444 H 0.97852 0.20572 0.27387 0.0
H445 H 0.02802 0.28116 0.20639 0.0
C446 C 0.05634 0.24361 0.21577 0.0
C447 C 0.0626 0.20898 0.2284 0.0
C448 C 0.97349 0.22107 0.24999 0.0
C449 C 0.01601 0.23285 0.23474 0.0
C450 C 0.95007 0.21994 0.23811 0.0
C451 C 0.94371 0.23675 0.20534 0.0
C452 C 0.99047 0.23944 0.22912 0.0
C453 C 0.96073 0.25759 0.18715 0.0
C454 C 0.03301 0.25558 0.21874 0.0
C455 C 0.04563 0.18869 0.2473 0.0
N456 N 0.9834 0.25794 0.19898 0.0
N457 N 0.02303 0.20066 0.24945 0.0
H458 H 0.91302 0.90426 0.18345 0.0
H459 H 0.85257 0.09264 0.22747 0.0
H460 H 0.85122 0.91008 0.25113 0.0
H461 H 0.92187 0.08003 0.18126 0.0
H462 H 0.85258 0.02743 0.24288 0.0
H463 H 0.91789 0.96937 0.18879 0.0
C464 C 0.90066 0.91928 0.20001 0.0
C465 C 0.88169 0.90183 0.21682 0.0
C466 C 0.86792 0.0392 0.22998 0.0
C467 C 0.8866 0.97716 0.22212 0.0
C468 C 0.86792 0.07635 0.22125 0.0
C469 C 0.88704 0.09148 0.20236 0.0
C470 C 0.8872 0.01746 0.21975 0.0
C471 C 0.90652 0.06931 0.19503 0.0
C472 C 0.9034 0.95664 0.20305 0.0
C473 C 0.86616 0.92269 0.2379 0.0
N474 N 0.90598 0.0335 0.20337 0.0
N475 N 0.86865 0.95955 0.23938 0.0
H476 H 0.95714 0.84013 0.25573 0.0
H477 H 0.05462 0.73007 0.16541 0.0
H478 H 0.94189 0.73974 0.20041 0.0
H479 H 0.06933 0.8001 0.25636 0.0
H480 H 0.01377 0.72505 0.1856 0.0
H481 H 0.99754 0.81957 0.26555 0.0
C482 C 0.96211 0.81309 0.24694 0.0
C483 C 0.94626 0.79161 0.22717 0.0
C484 C 0.02604 0.74052 0.20197 0.0
C485 C 0.99274 0.76854 0.23673 0.0
C486 C 0.0494 0.74321 0.19051 0.0
C487 C 0.06527 0.76558 0.20923 0.0
C488 C 0.01831 0.76144 0.2316 0.0
C489 C 0.05763 0.78243 0.2413 0.0
C490 C 0.98522 0.80139 0.25237 0.0
C491 C 0.95359 0.75701 0.21594 0.0
N492 N 0.03449 0.78091 0.2509 0.0
N493 N 0.97653 0.74696 0.2199 0.0
H494 H 0.16123 0.094 0.26018 0.0
H495 H 0.08464 0.91992 0.20707 0.0
H496 H 0.0967 0.09407 0.19863 0.0
H497 H 0.15863 0.91208 0.23188 0.0
H498 H 0.08522 0.98362 0.22489 0.0
H499 H 0.15703 0.02771 0.26873 0.0
C500 C 0.14586 0.08026 0.24946 0.0
C501 C 0.1293 0.09933 0.22857 0.0
C502 C 0.1013 0.96795 0.22701 0.0
C503 C 0.12433 0.02442 0.23837 0.0
C504 C 0.10096 0.93158 0.2169 0.0
C505 C 0.12172 0.91105 0.21736 0.0
C506 C 0.12266 0.98426 0.23703 0.0
C507 C 0.14231 0.92723 0.23091 0.0
C508 C 0.14357 0.04257 0.25412 0.0
C509 C 0.10989 0.08042 0.21478 0.0
N510 N 0.14242 0.96329 0.23952 0.0
N511 N 0.108 0.0441 0.21982 0.0
H512 H 0.93659 0.79991 0.74537 0.0
H513 H 0.06704 0.74112 0.79953 0.0
H514 H 0.95445 0.73152 0.8363 0.0
H515 H 0.04902 0.83913 0.74186 0.0
H516 H 0.02619 0.72024 0.79289 0.0
H517 H 0.9776 0.79637 0.7245 0.0
C518 C 0.94888 0.78282 0.76 0.0
C519 C 0.94224 0.76619 0.79272 0.0
C520 C 0.03141 0.74573 0.78058 0.0
C521 C 0.98905 0.76238 0.76937 0.0
C522 C 0.05476 0.75746 0.78401 0.0
C523 C 0.06129 0.79198 0.77142 0.0
C524 C 0.01466 0.7686 0.76416 0.0
C525 C 0.04459 0.8124 0.7521 0.0
C526 C 0.97232 0.78112 0.74832 0.0
C527 C 0.95896 0.7449 0.81103 0.0
N528 N 0.02196 0.80067 0.74951 0.0
N529 N 0.98167 0.74402 0.79942 0.0
H530 H 0.15924 0.90519 0.73615 0.0
H531 H 0.08154 0.08005 0.78184 0.0
H532 H 0.09534 0.90696 0.79923 0.0
H533 H 0.15633 0.08757 0.76343 0.0
H534 H 0.08275 0.01607 0.76487 0.0
H535 H 0.15481 0.97113 0.72539 0.0
C536 C 0.14396 0.91923 0.74676 0.0
C537 C 0.12763 0.90083 0.76868 0.0
C538 C 0.09886 0.03181 0.76381 0.0
C539 C 0.12235 0.97526 0.75621 0.0
C540 C 0.09816 0.06832 0.77338 0.0
C541 C 0.11894 0.08878 0.77465 0.0
C542 C 0.12055 0.01538 0.75602 0.0
C543 C 0.13996 0.07249 0.76298 0.0
C544 C 0.14154 0.95671 0.74081 0.0
C545 C 0.10833 0.92012 0.78228 0.0
N546 N 0.14037 0.03632 0.75489 0.0
N547 N 0.10626 0.95621 0.77589 0.0
H548 H 0.06804 0.20288 0.73877 0.0
H549 H 0.93932 0.26449 0.79785 0.0
H550 H 0.05206 0.26981 0.83156 0.0
H551 H 0.95606 0.16447 0.74278 0.0
H552 H 0.97995 0.28517 0.78813 0.0
H553 H 0.02696 0.20851 0.71878 0.0
C554 C 0.05618 0.22025 0.75392 0.0
C555 C 0.0633 0.23573 0.78695 0.0
C556 C 0.97444 0.2593 0.77696 0.0
C557 C 0.01646 0.24189 0.76462 0.0
C558 C 0.95123 0.24765 0.78217 0.0
C559 C 0.94449 0.21265 0.77129 0.0
C560 C 0.99079 0.23586 0.76044 0.0
C561 C 0.96069 0.19159 0.75172 0.0
C562 C 0.0327 0.22313 0.74273 0.0
C563 C 0.04714 0.25737 0.80599 0.0
N564 N 0.98321 0.20327 0.74737 0.0
N565 N 0.02436 0.25935 0.79488 0.0
H566 H 0.85054 0.91105 0.77133 0.0
H567 H 0.91193 0.09894 0.81309 0.0
H568 H 0.92101 0.92317 0.81326 0.0
H569 H 0.84908 0.09358 0.74776 0.0
H570 H 0.91677 0.03387 0.80696 0.0
H571 H 0.85038 0.97626 0.75583 0.0
C572 C 0.86612 0.92723 0.77652 0.0
C573 C 0.88563 0.91199 0.7943 0.0
C574 C 0.90205 0.0467 0.79337 0.0
C575 C 0.88558 0.986 0.77686 0.0
C576 C 0.89933 0.08404 0.79687 0.0
C577 C 0.88009 0.10159 0.78095 0.0
C578 C 0.88496 0.02631 0.77479 0.0
C579 C 0.86423 0.08088 0.76028 0.0
C580 C 0.86601 0.96437 0.76776 0.0
C581 C 0.90537 0.934 0.80037 0.0
N582 N 0.86672 0.04404 0.75839 0.0
N583 N 0.90472 0.96982 0.79206 0.0
H584 H 0.66205 0.76512 0.40337 0.0
H585 H 0.58139 0.71829 0.57472 0.0
H586 H 0.59801 0.70232 0.40242 0.0
H587 H 0.65603 0.73661 0.58544 0.0
H588 H 0.5837 0.73595 0.51101 0.0
H589 H 0.65658 0.7755 0.46921 0.0
C590 C 0.64653 0.75449 0.41677 0.0
C591 C 0.63045 0.73277 0.39761 0.0
C592 C 0.59953 0.73684 0.5274 0.0
C593 C 0.62399 0.74484 0.47189 0.0
C594 C 0.5982 0.72688 0.56376 0.0
C595 C 0.61863 0.72538 0.58503 0.0
C596 C 0.62151 0.74476 0.51192 0.0
C597 C 0.63992 0.73722 0.56971 0.0
C598 C 0.64351 0.76023 0.45418 0.0
C599 C 0.61083 0.71914 0.4161 0.0
N600 N 0.64096 0.74567 0.53366 0.0
N601 N 0.60819 0.72534 0.45212 0.0
H602 H 0.33599 0.75667 0.59381 0.0
H603 H 0.42442 0.73367 0.42953 0.0
H604 H 0.41119 0.74604 0.60354 0.0
H605 H 0.34923 0.74058 0.41575 0.0
H606 H 0.42024 0.75563 0.49164 0.0
H607 H 0.34066 0.76761 0.5283 0.0
C608 C 0.35353 0.75798 0.5823 0.0
C609 C 0.37327 0.75033 0.6038 0.0
C610 C 0.40462 0.7531 0.47497 0.0
C611 C 0.37875 0.76192 0.52931 0.0
C612 C 0.40704 0.74069 0.43945 0.0
C613 C 0.38711 0.73492 0.41782 0.0
C614 C 0.38201 0.75881 0.48937 0.0
C615 C 0.36501 0.74461 0.43175 0.0
C616 C 0.35619 0.76392 0.54495 0.0
C617 C 0.39556 0.75157 0.58777 0.0
N618 N 0.36296 0.75527 0.46706 0.0
N619 N 0.39768 0.75676 0.55143 0.0
H620 H 0.41035 0.24193 0.39594 0.0
H621 H 0.34793 0.2554 0.5891 0.0
H622 H 0.33536 0.25057 0.41035 0.0
H623 H 0.42198 0.27131 0.56896 0.0
H624 H 0.34331 0.23335 0.52641 0.0
H625 H 0.41481 0.23155 0.46121 0.0
C626 C 0.39477 0.24048 0.4128 0.0
C627 C 0.3725 0.24712 0.39807 0.0
C628 C 0.36066 0.24082 0.53607 0.0
C629 C 0.37739 0.23647 0.47272 0.0
C630 C 0.36331 0.25315 0.57184 0.0
C631 C 0.38529 0.26566 0.58385 0.0
C632 C 0.38019 0.24078 0.51256 0.0
C633 C 0.40466 0.26242 0.56047 0.0
C634 C 0.39729 0.23476 0.45006 0.0
C635 C 0.35282 0.24527 0.42092 0.0
N636 N 0.40161 0.25071 0.52585 0.0
N637 N 0.35573 0.24075 0.45734 0.0
H638 H 0.58265 0.27612 0.42566 0.0
H639 H 0.66318 0.23494 0.59841 0.0
H640 H 0.65786 0.26322 0.41718 0.0
H641 H 0.59593 0.28911 0.59864 0.0
H642 H 0.65867 0.22404 0.53252 0.0
H643 H 0.58455 0.2571 0.48902 0.0
C644 C 0.59953 0.26841 0.43703 0.0
C645 C 0.62018 0.2718 0.41654 0.0
C646 C 0.64469 0.23742 0.54739 0.0
C647 C 0.6226 0.25102 0.48928 0.0
C648 C 0.64717 0.24343 0.58485 0.0
C649 C 0.62988 0.26299 0.60379 0.0
C650 C 0.62456 0.25045 0.52939 0.0
C651 C 0.60966 0.27398 0.58511 0.0
C652 C 0.60063 0.25768 0.47319 0.0
C653 C 0.64158 0.26111 0.43231 0.0
N654 N 0.6076 0.26766 0.54901 0.0
N655 N 0.64235 0.25196 0.4682 0.0
H656 H 0.56725 0.76057 0.70292 0.0
H657 H 0.437 0.70169 0.75771 0.0
H658 H 0.54943 0.66343 0.7622 0.0
H659 H 0.45481 0.76919 0.6661 0.0
H660 H 0.47793 0.70596 0.77882 0.0
H661 H 0.52642 0.7815 0.70948 0.0
C662 C 0.55503 0.74446 0.71878 0.0
C663 C 0.5616 0.71013 0.73183 0.0
C664 C 0.47265 0.72089 0.7548 0.0
C665 C 0.51498 0.73354 0.73898 0.0
C666 C 0.44925 0.71878 0.74298 0.0
C667 C 0.44264 0.73492 0.71001 0.0
C668 C 0.48936 0.73953 0.73362 0.0
C669 C 0.45931 0.7562 0.69157 0.0
C670 C 0.53168 0.75621 0.72217 0.0
C671 C 0.54497 0.69 0.75159 0.0
N672 N 0.48198 0.75746 0.70331 0.0
N673 N 0.52233 0.70172 0.75409 0.0
H674 H 0.34992 0.58984 0.73076 0.0
H675 H 0.41233 0.40259 0.69294 0.0
H676 H 0.42186 0.57815 0.69525 0.0
H677 H 0.34811 0.4075 0.75504 0.0
H678 H 0.41719 0.46753 0.70014 0.0
H679 H 0.34943 0.52476 0.74673 0.0
C680 C 0.36574 0.5738 0.72717 0.0
C681 C 0.38581 0.58907 0.71097 0.0
C682 C 0.40217 0.45462 0.71284 0.0
C683 C 0.38538 0.51521 0.72889 0.0
C684 C 0.39944 0.41735 0.70874 0.0
C685 C 0.37983 0.39971 0.72344 0.0
C686 C 0.3847 0.47489 0.7307 0.0
C687 C 0.36357 0.42026 0.7435 0.0
C688 C 0.36545 0.53673 0.73619 0.0
C689 C 0.40585 0.56725 0.7069 0.0
N690 N 0.36607 0.45707 0.74591 0.0
N691 N 0.40502 0.53147 0.71535 0.0
H692 H 0.56841 0.29891 0.76184 0.0
H693 H 0.4396 0.23761 0.70282 0.0
H694 H 0.55238 0.23197 0.66907 0.0
H695 H 0.45642 0.33715 0.75868 0.0
H696 H 0.48026 0.21686 0.71219 0.0
H697 H 0.52734 0.29326 0.78189 0.0
C698 C 0.55654 0.28153 0.7467 0.0
C699 C 0.56364 0.26606 0.71366 0.0
C700 C 0.47477 0.24264 0.72359 0.0
C701 C 0.51681 0.25991 0.73604 0.0
C702 C 0.45154 0.25432 0.71857 0.0
C703 C 0.44481 0.28921 0.7298 0.0
C704 C 0.49114 0.26594 0.74027 0.0
C705 C 0.46104 0.31012 0.74947 0.0
C706 C 0.53307 0.27865 0.75792 0.0
C707 C 0.54748 0.24442 0.69464 0.0
N708 N 0.48357 0.29841 0.75363 0.0
N709 N 0.5247 0.24244 0.70577 0.0
H710 H 0.6609 0.5963 0.76362 0.0
H711 H 0.58207 0.4223 0.71902 0.0
H712 H 0.59525 0.59561 0.70496 0.0
H713 H 0.65694 0.41425 0.73638 0.0
H714 H 0.58351 0.48607 0.73665 0.0
H715 H 0.65654 0.53027 0.77401 0.0
C716 C 0.64527 0.58249 0.75396 0.0
C717 C 0.6284 0.60124 0.73335 0.0
C718 C 0.59959 0.47028 0.73729 0.0
C719 C 0.62323 0.52669 0.74532 0.0
C720 C 0.59877 0.43388 0.72734 0.0
C721 C 0.61949 0.41332 0.72564 0.0
C722 C 0.62137 0.48654 0.74498 0.0
C723 C 0.64061 0.42941 0.73716 0.0
C724 C 0.64288 0.54496 0.75968 0.0
C725 C 0.60866 0.58223 0.72091 0.0
N726 N 0.64115 0.4655 0.7456 0.0
N727 N 0.60666 0.54609 0.727 0.0
H728 H 0.43775 0.29676 0.24622 0.0
H729 H 0.5685 0.23902 0.29996 0.0
H730 H 0.45607 0.23007 0.3382 0.0
H731 H 0.55025 0.33632 0.24127 0.0
H732 H 0.52763 0.2181 0.29407 0.0
H733 H 0.47871 0.29314 0.22514 0.0
C734 C 0.45014 0.28003 0.26108 0.0
C735 C 0.44363 0.26391 0.29412 0.0
C736 C 0.53279 0.24342 0.28136 0.0
C737 C 0.49038 0.25998 0.27048 0.0
C738 C 0.55617 0.25516 0.28435 0.0
C739 C 0.56265 0.28953 0.27126 0.0
C740 C 0.51597 0.26611 0.26487 0.0
C741 C 0.54586 0.30971 0.25187 0.0
C742 C 0.47355 0.27828 0.24926 0.0
C743 C 0.46047 0.24307 0.31269 0.0
N744 N 0.52321 0.29798 0.24972 0.0
N745 N 0.48315 0.24211 0.30091 0.0
H746 H 0.59721 0.4049 0.30243 0.0
H747 H 0.58477 0.58214 0.26608 0.0
H748 H 0.65965 0.40318 0.23592 0.0
H749 H 0.66054 0.58135 0.27098 0.0
H750 H 0.58524 0.51783 0.24955 0.0
H751 H 0.59249 0.46906 0.28975 0.0
C752 C 0.60963 0.4179 0.28434 0.0
C753 C 0.62872 0.39869 0.26996 0.0
C754 C 0.6018 0.53181 0.25367 0.0
C755 C 0.62362 0.47274 0.25548 0.0
C756 C 0.60154 0.56852 0.2627 0.0
C757 C 0.62262 0.58669 0.27033 0.0
C758 C 0.62327 0.5129 0.25344 0.0
C759 C 0.64392 0.56805 0.26541 0.0
C760 C 0.60683 0.45462 0.27683 0.0
C761 C 0.64452 0.41712 0.24712 0.0
N762 N 0.64372 0.53174 0.25807 0.0
N763 N 0.64197 0.45353 0.24127 0.0
H764 H 0.55511 0.76695 0.33317 0.0
H765 H 0.45624 0.66194 0.24097 0.0
H766 H 0.56855 0.6997 0.23973 0.0
H767 H 0.44214 0.76043 0.30026 0.0
H768 H 0.49663 0.68233 0.23083 0.0
H769 H 0.51423 0.77381 0.31369 0.0
C770 C 0.54963 0.75491 0.30767 0.0
C771 C 0.56513 0.73271 0.28802 0.0
C772 C 0.48457 0.70019 0.24497 0.0
C773 C 0.51811 0.73884 0.26646 0.0
C774 C 0.46145 0.68859 0.25057 0.0
C775 C 0.44593 0.70953 0.27151 0.0
C776 C 0.49244 0.73234 0.26162 0.0
C777 C 0.45358 0.7436 0.28381 0.0
C778 C 0.52624 0.75861 0.29662 0.0
C779 C 0.55714 0.71722 0.25548 0.0
N780 N 0.47653 0.75349 0.27963 0.0
N781 N 0.53397 0.71965 0.24627 0.0
H782 H 0.35171 0.40868 0.27134 0.0
H783 H 0.41359 0.59628 0.31146 0.0
H784 H 0.42261 0.42064 0.31149 0.0
H785 H 0.35008 0.59101 0.24766 0.0
H786 H 0.41849 0.53129 0.30485 0.0
H787 H 0.35154 0.47377 0.25543 0.0
C788 C 0.36737 0.42479 0.27603 0.0
C789 C 0.38702 0.40957 0.29346 0.0
C790 C 0.40361 0.54413 0.29168 0.0
C791 C 0.38696 0.48345 0.27556 0.0
C792 C 0.40086 0.58143 0.29544 0.0
C793 C 0.38142 0.59898 0.28011 0.0
C794 C 0.38634 0.52375 0.27348 0.0
C795 C 0.36539 0.57831 0.25973 0.0
C796 C 0.36726 0.46187 0.26703 0.0
C797 C 0.40688 0.43149 0.29888 0.0
N798 N 0.36791 0.54149 0.25762 0.0
N799 N 0.40623 0.46726 0.29038 0.0
loop_
_geom_bond_atom_site_label_1
_geom_bond_atom_site_label_2
_geom_bond_distance
_geom_bond_site_symmetry_2
_ccdc_geom_bond_type
Co0 O1 2.216 . S
Co0 O2 2.091 . S
Co0 O4 2.004 . S
Co0 O10 2.021 . S
Co0 O12 2.137 . S
Co0 O13 2.244 . S
O1 Co0 2.216 . S
O1 C8 1.247 . S
O2 Co0 2.091 . S
O2 C8 1.261 . S
C3 O12 1.247 . S
C3 O13 1.272 . S
O4 Co0 2.004 . S
O4 C9 1.259 . S
Co5 O6 2.061 . S
Co5 O11 2.052 . S
Co5 O13 2.135 . S
O6 Co5 2.061 . S
O6 C9 1.235 . S
C7 O10 1.238 . S
C7 O11 1.241 . S
C8 O1 1.247 . S
C8 O2 1.261 . S
C9 O4 1.259 . S
C9 O6 1.235 . S
O10 Co0 2.021 . S
O10 C7 1.238 . S
O11 Co5 2.052 . S
O11 C7 1.241 . S
O12 Co0 2.137 . S
O12 C3 1.247 . S
O13 Co0 2.244 . S
O13 C3 1.272 . S
O13 Co5 2.135 . S
Co14 O15 2.216 . S
Co14 O16 2.091 . S
Co14 O18 2.004 . S
Co14 O24 2.021 . S
Co14 O26 2.137 . S
Co14 O27 2.244 . S
O15 Co14 2.216 . S
O15 C22 1.247 . S
O16 Co14 2.091 . S
O16 C22 1.261 . S
C17 O26 1.247 . S
C17 O27 1.272 . S
O18 Co14 2.004 . S
O18 C23 1.259 . S
Co19 O20 2.061 . S
Co19 O25 2.052 . S
Co19 O27 2.135 . S
O20 Co19 2.061 . S
O20 C23 1.235 . S
C21 O24 1.238 . S
C21 O25 1.241 . S
C22 O15 1.247 . S
C22 O16 1.261 . S
C23 O18 1.259 . S
C23 O20 1.235 . S
O24 Co14 2.021 . S
O24 C21 1.238 . S
O25 Co19 2.052 . S
O25 C21 1.241 . S
O26 Co14 2.137 . S
O26 C17 1.247 . S
O27 Co14 2.244 . S
O27 C17 1.272 . S
O27 Co19 2.135 . S
Co28 O29 2.216 . S
Co28 O30 2.091 . S
Co28 O32 2.004 . S
Co28 O38 2.021 . S
Co28 O40 2.137 . S
Co28 O41 2.244 . S
O29 Co28 2.216 . S
O29 C36 1.247 . S
O30 Co28 2.091 . S
O30 C36 1.261 . S
C31 O40 1.247 . S
C31 O41 1.272 . S
O32 Co28 2.004 . S
O32 C37 1.259 . S
Co33 O34 2.061 . S
Co33 O39 2.052 . S
Co33 O41 2.135 . S
O34 Co33 2.061 . S
O34 C37 1.235 . S
C35 O38 1.238 . S
C35 O39 1.241 . S
C36 O29 1.247 . S
C36 O30 1.261 . S
C37 O32 1.259 . S
C37 O34 1.235 . S
O38 Co28 2.021 . S
O38 C35 1.238 . S
O39 Co33 2.052 . S
O39 C35 1.241 . S
O40 Co28 2.137 . S
O40 C31 1.247 . S
O41 Co28 2.244 . S
O41 C31 1.272 . S
O41 Co33 2.135 . S
Co42 O43 2.216 . S
Co42 O44 2.091 . S
Co42 O46 2.004 . S
Co42 O52 2.021 . S
Co42 O54 2.137 . S
Co42 O55 2.244 . S
O43 Co42 2.216 . S
O43 C50 1.247 . S
O44 Co42 2.091 . S
O44 C50 1.261 . S
C45 O54 1.247 . S
C45 O55 1.272 . S
O46 Co42 2.004 . S
O46 C51 1.259 . S
Co47 O48 2.061 . S
Co47 O53 2.052 . S
Co47 O55 2.135 . S
O48 Co47 2.061 . S
O48 C51 1.235 . S
C49 O52 1.238 . S
C49 O53 1.241 . S
C50 O43 1.247 . S
C50 O44 1.261 . S
C51 O46 1.259 . S
C51 O48 1.235 . S
O52 Co42 2.021 . S
O52 C49 1.238 . S
O53 Co47 2.052 . S
O53 C49 1.241 . S
O54 Co42 2.137 . S
O54 C45 1.247 . S
O55 Co42 2.244 . S
O55 C45 1.272 . S
O55 Co47 2.135 . S
Co56 O57 2.216 . S
Co56 O58 2.091 . S
Co56 O60 2.004 . S
Co56 O66 2.021 . S
Co56 O68 2.137 . S
Co56 O69 2.244 . S
O57 Co56 2.216 . S
O57 C64 1.247 . S
O58 Co56 2.091 . S
O58 C64 1.261 . S
C59 O68 1.247 . S
C59 O69 1.272 . S
O60 Co56 2.004 . S
O60 C65 1.259 . S
Co61 O62 2.061 . S
Co61 O67 2.052 . S
Co61 O69 2.135 . S
O62 Co61 2.061 . S
O62 C65 1.235 . S
C63 O66 1.238 . S
C63 O67 1.241 . S
C64 O57 1.247 . S
C64 O58 1.261 . S
C65 O60 1.259 . S
C65 O62 1.235 . S
O66 Co56 2.021 . S
O66 C63 1.238 . S
O67 Co61 2.052 . S
O67 C63 1.241 . S
O68 Co56 2.137 . S
O68 C59 1.247 . S
O69 Co56 2.244 . S
O69 C59 1.272 . S
O69 Co61 2.135 . S
Co70 O71 2.216 . S
Co70 O72 2.091 . S
Co70 O74 2.004 . S
Co70 O80 2.021 . S
Co70 O82 2.137 . S
Co70 O83 2.244 . S
O71 Co70 2.216 . S
O71 C78 1.247 . S
O72 Co70 2.091 . S
O72 C78 1.261 . S
C73 O82 1.247 . S
C73 O83 1.272 . S
O74 Co70 2.004 . S
O74 C79 1.259 . S
Co75 O76 2.061 . S
Co75 O81 2.052 . S
Co75 O83 2.135 . S
O76 Co75 2.061 . S
O76 C79 1.235 . S
C77 O80 1.238 . S
C77 O81 1.241 . S
C78 O71 1.247 . S
C78 O72 1.261 . S
C79 O74 1.259 . S
C79 O76 1.235 . S
O80 Co70 2.021 . S
O80 C77 1.238 . S
O81 Co75 2.052 . S
O81 C77 1.241 . S
O82 Co70 2.137 . S
O82 C73 1.247 . S
O83 Co70 2.244 . S
O83 C73 1.272 . S
O83 Co75 2.135 . S
Co84 O85 2.216 . S
Co84 O86 2.091 . S
Co84 O88 2.004 . S
Co84 O94 2.021 . S
Co84 O96 2.137 . S
Co84 O97 2.244 . S
O85 Co84 2.216 . S
O85 C92 1.247 . S
O86 Co84 2.091 . S
O86 C92 1.261 . S
C87 O96 1.247 . S
C87 O97 1.272 . S
O88 Co84 2.004 . S
O88 C93 1.259 . S
Co89 O90 2.061 . S
Co89 O95 2.052 . S
Co89 O97 2.135 . S
O90 Co89 2.061 . S
O90 C93 1.235 . S
C91 O94 1.238 . S
C91 O95 1.241 . S
C92 O85 1.247 . S
C92 O86 1.261 . S
C93 O88 1.259 . S
C93 O90 1.235 . S
O94 Co84 2.021 . S
O94 C91 1.238 . S
O95 Co89 2.052 . S
O95 C91 1.241 . S
O96 Co84 2.137 . S
O96 C87 1.247 . S
O97 Co84 2.244 . S
O97 C87 1.272 . S
O97 Co89 2.135 . S
Co98 O99 2.216 . S
Co98 O100 2.091 . S
Co98 O102 2.004 . S
Co98 O108 2.021 . S
Co98 O110 2.137 . S
Co98 O111 2.244 . S
O99 Co98 2.216 . S
O99 C106 1.247 . S
O100 Co98 2.091 . S
O100 C106 1.261 . S
C101 O110 1.247 . S
C101 O111 1.272 . S
O102 Co98 2.004 . S
O102 C107 1.259 . S
Co103 O104 2.061 . S
Co103 O109 2.052 . S
Co103 O111 2.135 . S
O104 Co103 2.061 . S
O104 C107 1.235 . S
C105 O108 1.238 . S
C105 O109 1.241 . S
C106 O99 1.247 . S
C106 O100 1.261 . S
C107 O102 1.259 . S
C107 O104 1.235 . S
O108 Co98 2.021 . S
O108 C105 1.238 . S
O109 Co103 2.052 . S
O109 C105 1.241 . S
O110 Co98 2.137 . S
O110 C101 1.247 . S
O111 Co98 2.244 . S
O111 C101 1.272 . S
O111 Co103 2.135 . S
Co112 O113 2.216 . S
Co112 O114 2.091 . S
Co112 O116 2.004 . S
Co112 O122 2.021 . S
Co112 O124 2.137 . S
Co112 O125 2.244 . S
O113 Co112 2.216 . S
O113 C120 1.247 . S
O114 Co112 2.091 . S
O114 C120 1.261 . S
C115 O124 1.247 . S
C115 O125 1.272 . S
O116 Co112 2.004 . S
O116 C121 1.259 . S
Co117 O118 2.061 . S
Co117 O123 2.052 . S
Co117 O125 2.135 . S
O118 Co117 2.061 . S
O118 C121 1.235 . S
C119 O122 1.238 . S
C119 O123 1.241 . S
C120 O113 1.247 . S
C120 O114 1.261 . S
C121 O116 1.259 . S
C121 O118 1.235 . S
O122 Co112 2.021 . S
O122 C119 1.238 . S
O123 Co117 2.052 . S
O123 C119 1.241 . S
O124 Co112 2.137 . S
O124 C115 1.247 . S
O125 Co112 2.244 . S
O125 C115 1.272 . S
O125 Co117 2.135 . S
Co126 O127 2.216 . S
Co126 O128 2.091 . S
Co126 O130 2.004 . S
Co126 O136 2.021 . S
Co126 O138 2.137 . S
Co126 O139 2.244 . S
O127 Co126 2.216 . S
O127 C134 1.247 . S
O128 Co126 2.091 . S
O128 C134 1.261 . S
C129 O138 1.247 . S
C129 O139 1.272 . S
O130 Co126 2.004 . S
O130 C135 1.259 . S
Co131 O132 2.061 . S
Co131 O137 2.052 . S
Co131 O139 2.135 . S
O132 Co131 2.061 . S
O132 C135 1.235 . S
C133 O136 1.238 . S
C133 O137 1.241 . S
C134 O127 1.247 . S
C134 O128 1.261 . S
C135 O130 1.259 . S
C135 O132 1.235 . S
O136 Co126 2.021 . S
O136 C133 1.238 . S
O137 Co131 2.052 . S
O137 C133 1.241 . S
O138 Co126 2.137 . S
O138 C129 1.247 . S
O139 Co126 2.244 . S
O139 C129 1.272 . S
O139 Co131 2.135 . S
Co140 O141 2.216 . S
Co140 O142 2.091 . S
Co140 O144 2.004 . S
Co140 O150 2.021 . S
Co140 O152 2.137 . S
Co140 O153 2.244 . S
O141 Co140 2.216 . S
O141 C148 1.247 . S
O142 Co140 2.091 . S
O142 C148 1.261 . S
C143 O152 1.247 . S
C143 O153 1.272 . S
O144 Co140 2.004 . S
O144 C149 1.259 . S
Co145 O146 2.061 . S
Co145 O151 2.052 . S
Co145 O153 2.135 . S
O146 Co145 2.061 . S
O146 C149 1.235 . S
C147 O150 1.238 . S
C147 O151 1.241 . S
C148 O141 1.247 . S
C148 O142 1.261 . S
C149 O144 1.259 . S
C149 O146 1.235 . S
O150 Co140 2.021 . S
O150 C147 1.238 . S
O151 Co145 2.052 . S
O151 C147 1.241 . S
O152 Co140 2.137 . S
O152 C143 1.247 . S
O153 Co140 2.244 . S
O153 C143 1.272 . S
O153 Co145 2.135 . S
Co154 O155 2.216 . S
Co154 O156 2.091 . S
Co154 O158 2.004 . S
Co154 O164 2.021 . S
Co154 O166 2.137 . S
Co154 O167 2.244 . S
O155 Co154 2.216 . S
O155 C162 1.247 . S
O156 Co154 2.091 . S
O156 C162 1.261 . S
C157 O166 1.247 . S
C157 O167 1.272 . S
O158 Co154 2.004 . S
O158 C163 1.259 . S
Co159 O160 2.061 . S
Co159 O165 2.052 . S
Co159 O167 2.135 . S
O160 Co159 2.061 . S
O160 C163 1.235 . S
C161 O164 1.238 . S
C161 O165 1.241 . S
C162 O155 1.247 . S
C162 O156 1.261 . S
C163 O158 1.259 . S
C163 O160 1.235 . S
O164 Co154 2.021 . S
O164 C161 1.238 . S
O165 Co159 2.052 . S
O165 C161 1.241 . S
O166 Co154 2.137 . S
O166 C157 1.247 . S
O167 Co154 2.244 . S
O167 C157 1.272 . S
O167 Co159 2.135 . S
Co168 O169 2.216 . S
Co168 O170 2.091 . S
Co168 O172 2.004 . S
Co168 O178 2.021 . S
Co168 O180 2.137 . S
Co168 O181 2.244 . S
O169 Co168 2.216 . S
O169 C176 1.247 . S
O170 Co168 2.091 . S
O170 C176 1.261 . S
C171 O180 1.247 . S
C171 O181 1.272 . S
O172 Co168 2.004 . S
O172 C177 1.259 . S
Co173 O174 2.061 . S
Co173 O179 2.052 . S
Co173 O181 2.135 . S
O174 Co173 2.061 . S
O174 C177 1.235 . S
C175 O178 1.238 . S
C175 O179 1.241 . S
C176 O169 1.247 . S
C176 O170 1.261 . S
C177 O172 1.259 . S
C177 O174 1.235 . S
O178 Co168 2.021 . S
O178 C175 1.238 . S
O179 Co173 2.052 . S
O179 C175 1.241 . S
O180 Co168 2.137 . S
O180 C171 1.247 . S
O181 Co168 2.244 . S
O181 C171 1.272 . S
O181 Co173 2.135 . S
Co182 O183 2.216 . S
Co182 O184 2.091 . S
Co182 O186 2.004 . S
Co182 O192 2.021 . S
Co182 O194 2.137 . S
Co182 O195 2.244 . S
O183 Co182 2.216 . S
O183 C190 1.247 . S
O184 Co182 2.091 . S
O184 C190 1.261 . S
C185 O194 1.247 . S
C185 O195 1.272 . S
O186 Co182 2.004 . S
O186 C191 1.259 . S
Co187 O188 2.061 . S
Co187 O193 2.052 . S
Co187 O195 2.135 . S
O188 Co187 2.061 . S
O188 C191 1.235 . S
C189 O192 1.238 . S
C189 O193 1.241 . S
C190 O183 1.247 . S
C190 O184 1.261 . S
C191 O186 1.259 . S
C191 O188 1.235 . S
O192 Co182 2.021 . S
O192 C189 1.238 . S
O193 Co187 2.052 . S
O193 C189 1.241 . S
O194 Co182 2.137 . S
O194 C185 1.247 . S
O195 Co182 2.244 . S
O195 C185 1.272 . S
O195 Co187 2.135 . S
Co196 O197 2.216 . S
Co196 O198 2.091 . S
Co196 O200 2.004 . S
Co196 O206 2.021 . S
Co196 O208 2.137 . S
Co196 O209 2.244 . S
O197 Co196 2.216 . S
O197 C204 1.247 . S
O198 Co196 2.091 . S
O198 C204 1.261 . S
C199 O208 1.247 . S
C199 O209 1.272 . S
O200 Co196 2.004 . S
O200 C205 1.259 . S
Co201 O202 2.061 . S
Co201 O207 2.052 . S
Co201 O209 2.135 . S
O202 Co201 2.061 . S
O202 C205 1.235 . S
C203 O206 1.238 . S
C203 O207 1.241 . S
C204 O197 1.247 . S
C204 O198 1.261 . S
C205 O200 1.259 . S
C205 O202 1.235 . S
O206 Co196 2.021 . S
O206 C203 1.238 . S
O207 Co201 2.052 . S
O207 C203 1.241 . S
O208 Co196 2.137 . S
O208 C199 1.247 . S
O209 Co196 2.244 . S
O209 C199 1.272 . S
O209 Co201 2.135 . S
Co210 O211 2.216 . S
Co210 O212 2.091 . S
Co210 O214 2.004 . S
Co210 O220 2.021 . S
Co210 O222 2.137 . S
Co210 O223 2.244 . S
O211 Co210 2.216 . S
O211 C218 1.247 . S
O212 Co210 2.091 . S
O212 C218 1.261 . S
C213 O222 1.247 . S
C213 O223 1.272 . S
O214 Co210 2.004 . S
O214 C219 1.259 . S
Co215 O216 2.061 . S
Co215 O221 2.052 . S
Co215 O223 2.135 . S
O216 Co215 2.061 . S
O216 C219 1.235 . S
C217 O220 1.238 . S
C217 O221 1.241 . S
C218 O211 1.247 . S
C218 O212 1.261 . S
C219 O214 1.259 . S
C219 O216 1.235 . S
O220 Co210 2.021 . S
O220 C217 1.238 . S
O221 Co215 2.052 . S
O221 C217 1.241 . S
O222 Co210 2.137 . S
O222 C213 1.247 . S
O223 Co210 2.244 . S
O223 C213 1.272 . S
O223 Co215 2.135 . S
H224 C230 0.930 . S
H225 C234 0.930 . S
H226 C239 0.929 . S
H227 C237 0.929 . S
H228 C232 0.929 . S
H229 C238 0.929 . S
C230 H224 0.930 . S
C230 C231 1.367 . S
C230 C238 1.378 . S
C231 C230 1.367 . S
C231 C239 1.433 . S
C232 H228 0.929 . S
C232 C234 1.378 . S
C232 C236 1.350 . S
C233 C236 1.463 . S
C233 C238 1.350 . S
C233 N241 1.427 . S
C234 H225 0.930 . S
C234 C232 1.378 . S
C234 C235 1.367 . S
C235 C234 1.367 . S
C235 C237 1.433 . S
C236 C232 1.350 . S
C236 C233 1.463 . S
C236 N240 1.427 . S
C237 H227 0.929 . S
C237 C235 1.433 . S
C237 N240 1.384 . S
C238 H229 0.929 . S
C238 C230 1.378 . S
C238 C233 1.350 . S
C239 H226 0.929 . S
C239 C231 1.433 . S
C239 N241 1.384 . S
N240 C236 1.427 . S
N240 C237 1.384 . S
N241 C233 1.427 . S
N241 C239 1.384 . S
H242 C248 0.930 . S
H243 C252 0.930 . S
H244 C257 0.929 . S
H245 C255 0.929 . S
H246 C250 0.929 . S
H247 C256 0.929 . S
C248 H242 0.930 . S
C248 C249 1.367 . S
C248 C256 1.378 . S
C249 C248 1.367 . S
C249 C257 1.433 . S
C250 H246 0.929 . S
C250 C252 1.378 . S
C250 C254 1.350 . S
C251 C254 1.463 . S
C251 C256 1.350 . S
C251 N259 1.427 . S
C252 H243 0.930 . S
C252 C250 1.378 . S
C252 C253 1.367 . S
C253 C252 1.367 . S
C253 C255 1.433 . S
C254 C250 1.350 . S
C254 C251 1.463 . S
C254 N258 1.427 . S
C255 H245 0.929 . S
C255 C253 1.433 . S
C255 N258 1.384 . S
C256 H247 0.929 . S
C256 C248 1.378 . S
C256 C251 1.350 . S
C257 H244 0.929 . S
C257 C249 1.433 . S
C257 N259 1.384 . S
N258 C254 1.427 . S
N258 C255 1.384 . S
N259 C251 1.427 . S
N259 C257 1.384 . S
H260 C266 0.930 . S
H261 C270 0.930 . S
H262 C275 0.929 . S
H263 C273 0.929 . S
H264 C268 0.929 . S
H265 C274 0.929 . S
C266 H260 0.930 . S
C266 C267 1.367 . S
C266 C274 1.378 . S
C267 C266 1.367 . S
C267 C275 1.433 . S
C268 H264 0.929 . S
C268 C270 1.378 . S
C268 C272 1.350 . S
C269 C272 1.463 . S
C269 C274 1.350 . S
C269 N277 1.427 . S
C270 H261 0.930 . S
C270 C268 1.378 . S
C270 C271 1.367 . S
C271 C270 1.367 . S
C271 C273 1.433 . S
C272 C268 1.350 . S
C272 C269 1.463 . S
C272 N276 1.427 . S
C273 H263 0.929 . S
C273 C271 1.433 . S
C273 N276 1.384 . S
C274 H265 0.929 . S
C274 C266 1.378 . S
C274 C269 1.350 . S
C275 H262 0.929 . S
C275 C267 1.433 . S
C275 N277 1.384 . S
N276 C272 1.427 . S
N276 C273 1.384 . S
N277 C269 1.427 . S
N277 C275 1.384 . S
H278 C284 0.930 . S
H279 C288 0.930 . S
H280 C293 0.929 . S
H281 C291 0.929 . S
H282 C286 0.929 . S
H283 C292 0.929 . S
C284 H278 0.930 . S
C284 C285 1.367 . S
C284 C292 1.378 . S
C285 C284 1.367 . S
C285 C293 1.433 . S
C286 H282 0.929 . S
C286 C288 1.378 . S
C286 C290 1.350 . S
C287 C290 1.463 . S
C287 C292 1.350 . S
C287 N295 1.427 . S
C288 H279 0.930 . S
C288 C286 1.378 . S
C288 C289 1.367 . S
C289 C288 1.367 . S
C289 C291 1.433 . S
C290 C286 1.350 . S
C290 C287 1.463 . S
C290 N294 1.427 . S
C291 H281 0.929 . S
C291 C289 1.433 . S
C291 N294 1.384 . S
C292 H283 0.929 . S
C292 C284 1.378 . S
C292 C287 1.350 . S
C293 H280 0.929 . S
C293 C285 1.433 . S
C293 N295 1.384 . S
N294 C290 1.427 . S
N294 C291 1.384 . S
N295 C287 1.427 . S
N295 C293 1.384 . S
H296 C302 0.930 . S
H297 C306 0.930 . S
H298 C311 0.929 . S
H299 C309 0.929 . S
H300 C304 0.929 . S
H301 C310 0.929 . S
C302 H296 0.930 . S
C302 C303 1.367 . S
C302 C310 1.378 . S
C303 C302 1.367 . S
C303 C311 1.433 . S
C304 H300 0.929 . S
C304 C306 1.378 . S
C304 C308 1.350 . S
C305 C308 1.463 . S
C305 C310 1.350 . S
C305 N313 1.427 . S
C306 H297 0.930 . S
C306 C304 1.378 . S
C306 C307 1.367 . S
C307 C306 1.367 . S
C307 C309 1.433 . S
C308 C304 1.350 . S
C308 C305 1.463 . S
C308 N312 1.427 . S
C309 H299 0.929 . S
C309 C307 1.433 . S
C309 N312 1.384 . S
C310 H301 0.929 . S
C310 C302 1.378 . S
C310 C305 1.350 . S
C311 H298 0.929 . S
C311 C303 1.433 . S
C311 N313 1.384 . S
N312 C308 1.427 . S
N312 C309 1.384 . S
N313 C305 1.427 . S
N313 C311 1.384 . S
H314 C320 0.930 . S
H315 C324 0.930 . S
H316 C329 0.929 . S
H317 C327 0.929 . S
H318 C322 0.929 . S
H319 C328 0.929 . S
C320 H314 0.930 . S
C320 C321 1.367 . S
C320 C328 1.378 . S
C321 C320 1.367 . S
C321 C329 1.433 . S
C322 H318 0.929 . S
C322 C324 1.378 . S
C322 C326 1.350 . S
C323 C326 1.463 . S
C323 C328 1.350 . S
C323 N331 1.427 . S
C324 H315 0.930 . S
C324 C322 1.378 . S
C324 C325 1.367 . S
C325 C324 1.367 . S
C325 C327 1.433 . S
C326 C322 1.350 . S
C326 C323 1.463 . S
C326 N330 1.427 . S
C327 H317 0.929 . S
C327 C325 1.433 . S
C327 N330 1.384 . S
C328 H319 0.929 . S
C328 C320 1.378 . S
C328 C323 1.350 . S
C329 H316 0.929 . S
C329 C321 1.433 . S
C329 N331 1.384 . S
N330 C326 1.427 . S
N330 C327 1.384 . S
N331 C323 1.427 . S
N331 C329 1.384 . S
H332 C338 0.930 . S
H333 C342 0.930 . S
H334 C347 0.929 . S
H335 C345 0.929 . S
H336 C340 0.929 . S
H337 C346 0.929 . S
C338 H332 0.930 . S
C338 C339 1.367 . S
C338 C346 1.378 . S
C339 C338 1.367 . S
C339 C347 1.433 . S
C340 H336 0.929 . S
C340 C342 1.378 . S
C340 C344 1.350 . S
C341 C344 1.463 . S
C341 C346 1.350 . S
C341 N349 1.427 . S
C342 H333 0.930 . S
C342 C340 1.378 . S
C342 C343 1.367 . S
C343 C342 1.367 . S
C343 C345 1.433 . S
C344 C340 1.350 . S
C344 C341 1.463 . S
C344 N348 1.427 . S
C345 H335 0.929 . S
C345 C343 1.433 . S
C345 N348 1.384 . S
C346 H337 0.929 . S
C346 C338 1.378 . S
C346 C341 1.350 . S
C347 H334 0.929 . S
C347 C339 1.433 . S
C347 N349 1.384 . S
N348 C344 1.427 . S
N348 C345 1.384 . S
N349 C341 1.427 . S
N349 C347 1.384 . S
H350 C356 0.930 . S
H351 C360 0.930 . S
H352 C365 0.929 . S
H353 C363 0.929 . S
H354 C358 0.929 . S
H355 C364 0.929 . S
C356 H350 0.930 . S
C356 C357 1.367 . S
C356 C364 1.378 . S
C357 C356 1.367 . S
C357 C365 1.433 . S
C358 H354 0.929 . S
C358 C360 1.378 . S
C358 C362 1.350 . S
C359 C362 1.463 . S
C359 C364 1.350 . S
C359 N367 1.427 . S
C360 H351 0.930 . S
C360 C358 1.378 . S
C360 C361 1.367 . S
C361 C360 1.367 . S
C361 C363 1.433 . S
C362 C358 1.350 . S
C362 C359 1.463 . S
C362 N366 1.427 . S
C363 H353 0.929 . S
C363 C361 1.433 . S
C363 N366 1.384 . S
C364 H355 0.929 . S
C364 C356 1.378 . S
C364 C359 1.350 . S
C365 H352 0.929 . S
C365 C357 1.433 . S
C365 N367 1.384 . S
N366 C362 1.427 . S
N366 C363 1.384 . S
N367 C359 1.427 . S
N367 C365 1.384 . S
H368 C374 0.930 . S
H369 C378 0.930 . S
H370 C383 0.929 . S
H371 C381 0.929 . S
H372 C376 0.929 . S
H373 C382 0.929 . S
C374 H368 0.930 . S
C374 C375 1.367 . S
C374 C382 1.378 . S
C375 C374 1.367 . S
C375 C383 1.433 . S
C376 H372 0.929 . S
C376 C378 1.378 . S
C376 C380 1.350 . S
C377 C380 1.463 1_556 S
C377 C382 1.350 . S
C377 N385 1.427 . S
C378 H369 0.930 . S
C378 C376 1.378 . S
C378 C379 1.367 . S
C379 C378 1.367 . S
C379 C381 1.433 . S
C380 C376 1.350 . S
C380 C377 1.463 1_554 S
C380 N384 1.427 . S
C381 H371 0.929 . S
C381 C379 1.433 . S
C381 N384 1.384 . S
C382 H373 0.929 . S
C382 C374 1.378 . S
C382 C377 1.350 . S
C383 H370 0.929 . S
C383 C375 1.433 . S
C383 N385 1.384 . S
N384 C380 1.427 . S
N384 C381 1.384 . S
N385 C377 1.427 . S
N385 C383 1.384 . S
H386 C392 0.930 . S
H387 C396 0.930 . S
H388 C401 0.929 . S
H389 C399 0.929 . S
H390 C394 0.929 . S
H391 C400 0.929 . S
C392 H386 0.930 . S
C392 C393 1.367 . S
C392 C400 1.378 . S
C393 C392 1.367 . S
C393 C401 1.433 . S
C394 H390 0.929 . S
C394 C396 1.378 . S
C394 C398 1.350 . S
C395 C398 1.463 1_556 S
C395 C400 1.350 . S
C395 N403 1.427 . S
C396 H387 0.930 . S
C396 C394 1.378 . S
C396 C397 1.367 . S
C397 C396 1.367 . S
C397 C399 1.433 . S
C398 C394 1.350 . S
C398 C395 1.463 1_554 S
C398 N402 1.427 . S
C399 H389 0.929 . S
C399 C397 1.433 . S
C399 N402 1.384 . S
C400 H391 0.929 . S
C400 C392 1.378 . S
C400 C395 1.350 . S
C401 H388 0.929 . S
C401 C393 1.433 . S
C401 N403 1.384 . S
N402 C398 1.427 . S
N402 C399 1.384 . S
N403 C395 1.427 . S
N403 C401 1.384 . S
H404 C410 0.930 . S
H405 C414 0.930 . S
H406 C419 0.929 . S
H407 C417 0.929 . S
H408 C412 0.929 . S
H409 C418 0.929 . S
C410 H404 0.930 . S
C410 C411 1.367 . S
C410 C418 1.378 . S
C411 C410 1.367 . S
C411 C419 1.433 . S
C412 H408 0.929 . S
C412 C414 1.378 . S
C412 C416 1.350 . S
C413 C416 1.463 1_556 S
C413 C418 1.350 . S
C413 N421 1.427 . S
C414 H405 0.930 . S
C414 C412 1.378 . S
C414 C415 1.367 . S
C415 C414 1.367 . S
C415 C417 1.433 . S
C416 C412 1.350 . S
C416 C413 1.463 1_554 S
C416 N420 1.427 . S
C417 H407 0.929 . S
C417 C415 1.433 . S
C417 N420 1.384 . S
C418 H409 0.929 . S
C418 C410 1.378 . S
C418 C413 1.350 . S
C419 H406 0.929 . S
C419 C411 1.433 . S
C419 N421 1.384 . S
N420 C416 1.427 . S
N420 C417 1.384 . S
N421 C413 1.427 . S
N421 C419 1.384 . S
H422 C428 0.930 . S
H423 C432 0.930 . S
H424 C437 0.929 . S
H425 C435 0.929 . S
H426 C430 0.929 . S
H427 C436 0.929 . S
C428 H422 0.930 . S
C428 C429 1.367 . S
C428 C436 1.378 . S
C429 C428 1.367 . S
C429 C437 1.433 . S
C430 H426 0.929 . S
C430 C432 1.378 . S
C430 C434 1.350 . S
C431 C434 1.463 1_554 S
C431 C436 1.350 . S
C431 N439 1.427 . S
C432 H423 0.930 . S
C432 C430 1.378 . S
C432 C433 1.367 . S
C433 C432 1.367 . S
C433 C435 1.433 . S
C434 C430 1.350 . S
C434 C431 1.463 1_556 S
C434 N438 1.427 . S
C435 H425 0.929 . S
C435 C433 1.433 . S
C435 N438 1.384 . S
C436 H427 0.929 . S
C436 C428 1.378 . S
C436 C431 1.350 . S
C437 H424 0.929 . S
C437 C429 1.433 . S
C437 N439 1.384 . S
N438 C434 1.427 . S
N438 C435 1.384 . S
N439 C431 1.427 . S
N439 C437 1.384 . S
H440 C446 0.930 . S
H441 C450 0.930 . S
H442 C455 0.929 . S
H443 C453 0.929 . S
H444 C448 0.929 . S
H445 C454 0.929 . S
C446 H440 0.930 . S
C446 C447 1.367 . S
C446 C454 1.378 . S
C447 C446 1.367 . S
C447 C455 1.433 . S
C448 H444 0.929 . S
C448 C450 1.378 . S
C448 C452 1.350 . S
C449 C452 1.463 1_455 S
C449 C454 1.350 . S
C449 N457 1.427 . S
C450 H441 0.930 . S
C450 C448 1.378 . S
C450 C451 1.367 . S
C451 C450 1.367 . S
C451 C453 1.433 . S
C452 C448 1.350 . S
C452 C449 1.463 1_655 S
C452 N456 1.427 . S
C453 H443 0.929 . S
C453 C451 1.433 . S
C453 N456 1.384 . S
C454 H445 0.929 . S
C454 C446 1.378 . S
C454 C449 1.350 . S
C455 H442 0.929 . S
C455 C447 1.433 . S
C455 N457 1.384 . S
N456 C452 1.427 . S
N456 C453 1.384 . S
N457 C449 1.427 . S
N457 C455 1.384 . S
H458 C464 0.930 . S
H459 C468 0.930 . S
H460 C473 0.929 . S
H461 C471 0.929 . S
H462 C466 0.929 . S
H463 C472 0.929 . S
C464 H458 0.930 . S
C464 C465 1.367 . S
C464 C472 1.378 . S
C465 C464 1.367 . S
C465 C473 1.433 . S
C466 H462 0.929 . S
C466 C468 1.378 . S
C466 C470 1.350 . S
C467 C470 1.463 1_565 S
C467 C472 1.350 . S
C467 N475 1.427 . S
C468 H459 0.930 . S
C468 C466 1.378 . S
C468 C469 1.367 . S
C469 C468 1.367 . S
C469 C471 1.433 . S
C470 C466 1.350 . S
C470 C467 1.463 1_545 S
C470 N474 1.427 . S
C471 H461 0.929 . S
C471 C469 1.433 . S
C471 N474 1.384 . S
C472 H463 0.929 . S
C472 C464 1.378 . S
C472 C467 1.350 . S
C473 H460 0.929 . S
C473 C465 1.433 . S
C473 N475 1.384 . S
N474 C470 1.427 . S
N474 C471 1.384 . S
N475 C467 1.427 . S
N475 C473 1.384 . S
H476 C482 0.930 . S
H477 C486 0.930 . S
H478 C491 0.929 . S
H479 C489 0.929 . S
H480 C484 0.929 . S
H481 C490 0.929 . S
C482 H476 0.930 . S
C482 C483 1.367 . S
C482 C490 1.378 . S
C483 C482 1.367 . S
C483 C491 1.433 . S
C484 H480 0.929 . S
C484 C486 1.378 . S
C484 C488 1.350 . S
C485 C488 1.463 1_655 S
C485 C490 1.350 . S
C485 N493 1.427 . S
C486 H477 0.930 . S
C486 C484 1.378 . S
C486 C487 1.367 . S
C487 C486 1.367 . S
C487 C489 1.433 . S
C488 C484 1.350 . S
C488 C485 1.463 1_455 S
C488 N492 1.427 . S
C489 H479 0.929 . S
C489 C487 1.433 . S
C489 N492 1.384 . S
C490 H481 0.929 . S
C490 C482 1.378 . S
C490 C485 1.350 . S
C491 H478 0.929 . S
C491 C483 1.433 . S
C491 N493 1.384 . S
N492 C488 1.427 . S
N492 C489 1.384 . S
N493 C485 1.427 . S
N493 C491 1.384 . S
H494 C500 0.930 . S
H495 C504 0.930 . S
H496 C509 0.929 . S
H497 C507 0.929 . S
H498 C502 0.929 . S
H499 C508 0.929 . S
C500 H494 0.930 . S
C500 C501 1.367 . S
C500 C508 1.378 . S
C501 C500 1.367 . S
C501 C509 1.433 . S
C502 H498 0.929 . S
C502 C504 1.378 . S
C502 C506 1.350 . S
C503 C506 1.463 1_545 S
C503 C508 1.350 . S
C503 N511 1.427 . S
C504 H495 0.930 . S
C504 C502 1.378 . S
C504 C505 1.367 . S
C505 C504 1.367 . S
C505 C507 1.433 . S
C506 C502 1.350 . S
C506 C503 1.463 1_565 S
C506 N510 1.427 . S
C507 H497 0.929 . S
C507 C505 1.433 . S
C507 N510 1.384 . S
C508 H499 0.929 . S
C508 C500 1.378 . S
C508 C503 1.350 . S
C509 H496 0.929 . S
C509 C501 1.433 . S
C509 N511 1.384 . S
N510 C506 1.427 . S
N510 C507 1.384 . S
N511 C503 1.427 . S
N511 C509 1.384 . S
H512 C518 0.930 . S
H513 C522 0.930 . S
H514 C527 0.929 . S
H515 C525 0.929 . S
H516 C520 0.929 . S
H517 C526 0.929 . S
C518 H512 0.930 . S
C518 C519 1.367 . S
C518 C526 1.378 . S
C519 C518 1.367 . S
C519 C527 1.433 . S
C520 H516 0.929 . S
C520 C522 1.378 . S
C520 C524 1.350 . S
C521 C524 1.463 1_655 S
C521 C526 1.350 . S
C521 N529 1.427 . S
C522 H513 0.930 . S
C522 C520 1.378 . S
C522 C523 1.367 . S
C523 C522 1.367 . S
C523 C525 1.433 . S
C524 C520 1.350 . S
C524 C521 1.463 1_455 S
C524 N528 1.427 . S
C525 H515 0.929 . S
C525 C523 1.433 . S
C525 N528 1.384 . S
C526 H517 0.929 . S
C526 C518 1.378 . S
C526 C521 1.350 . S
C527 H514 0.929 . S
C527 C519 1.433 . S
C527 N529 1.384 . S
N528 C524 1.427 . S
N528 C525 1.384 . S
N529 C521 1.427 . S
N529 C527 1.384 . S
H530 C536 0.930 . S
H531 C540 0.930 . S
H532 C545 0.929 . S
H533 C543 0.929 . S
H534 C538 0.929 . S
H535 C544 0.929 . S
C536 H530 0.930 . S
C536 C537 1.367 . S
C536 C544 1.378 . S
C537 C536 1.367 . S
C537 C545 1.433 . S
C538 H534 0.929 . S
C538 C540 1.378 . S
C538 C542 1.350 . S
C539 C542 1.463 1_565 S
C539 C544 1.350 . S
C539 N547 1.427 . S
C540 H531 0.930 . S
C540 C538 1.378 . S
C540 C541 1.367 . S
C541 C540 1.367 . S
C541 C543 1.433 . S
C542 C538 1.350 . S
C542 C539 1.463 1_545 S
C542 N546 1.427 . S
C543 H533 0.929 . S
C543 C541 1.433 . S
C543 N546 1.384 . S
C544 H535 0.929 . S
C544 C536 1.378 . S
C544 C539 1.350 . S
C545 H532 0.929 . S
C545 C537 1.433 . S
C545 N547 1.384 . S
N546 C542 1.427 . S
N546 C543 1.384 . S
N547 C539 1.427 . S
N547 C545 1.384 . S
H548 C554 0.930 . S
H549 C558 0.930 . S
H550 C563 0.929 . S
H551 C561 0.929 . S
H552 C556 0.929 . S
H553 C562 0.929 . S
C554 H548 0.930 . S
C554 C555 1.367 . S
C554 C562 1.378 . S
C555 C554 1.367 . S
C555 C563 1.433 . S
C556 H552 0.929 . S
C556 C558 1.378 . S
C556 C560 1.350 . S
C557 C560 1.463 1_455 S
C557 C562 1.350 . S
C557 N565 1.427 . S
C558 H549 0.930 . S
C558 C556 1.378 . S
C558 C559 1.367 . S
C559 C558 1.367 . S
C559 C561 1.433 . S
C560 C556 1.350 . S
C560 C557 1.463 1_655 S
C560 N564 1.427 . S
C561 H551 0.929 . S
C561 C559 1.433 . S
C561 N564 1.384 . S
C562 H553 0.929 . S
C562 C554 1.378 . S
C562 C557 1.350 . S
C563 H550 0.929 . S
C563 C555 1.433 . S
C563 N565 1.384 . S
N564 C560 1.427 . S
N564 C561 1.384 . S
N565 C557 1.427 . S
N565 C563 1.384 . S
H566 C572 0.930 . S
H567 C576 0.930 . S
H568 C581 0.929 . S
H569 C579 0.929 . S
H570 C574 0.929 . S
H571 C580 0.929 . S
C572 H566 0.930 . S
C572 C573 1.367 . S
C572 C580 1.378 . S
C573 C572 1.367 . S
C573 C581 1.433 . S
C574 H570 0.929 . S
C574 C576 1.378 . S
C574 C578 1.350 . S
C575 C578 1.463 1_565 S
C575 C580 1.350 . S
C575 N583 1.427 . S
C576 H567 0.930 . S
C576 C574 1.378 . S
C576 C577 1.367 . S
C577 C576 1.367 . S
C577 C579 1.433 . S
C578 C574 1.350 . S
C578 C575 1.463 1_545 S
C578 N582 1.427 . S
C579 H569 0.929 . S
C579 C577 1.433 . S
C579 N582 1.384 . S
C580 H571 0.929 . S
C580 C572 1.378 . S
C580 C575 1.350 . S
C581 H568 0.929 . S
C581 C573 1.433 . S
C581 N583 1.384 . S
N582 C578 1.427 . S
N582 C579 1.384 . S
N583 C575 1.427 . S
N583 C581 1.384 . S
H584 C590 0.930 . S
H585 C594 0.930 . S
H586 C599 0.929 . S
H587 C597 0.929 . S
H588 C592 0.929 . S
H589 C598 0.929 . S
C590 H584 0.930 . S
C590 C591 1.367 . S
C590 C598 1.378 . S
C591 C590 1.367 . S
C591 C599 1.433 . S
C592 H588 0.929 . S
C592 C594 1.378 . S
C592 C596 1.350 . S
C593 C596 1.463 . S
C593 C598 1.350 . S
C593 N601 1.427 . S
C594 H585 0.930 . S
C594 C592 1.378 . S
C594 C595 1.367 . S
C595 C594 1.367 . S
C595 C597 1.433 . S
C596 C592 1.350 . S
C596 C593 1.463 . S
C596 N600 1.427 . S
C597 H587 0.929 . S
C597 C595 1.433 . S
C597 N600 1.384 . S
C598 H589 0.929 . S
C598 C590 1.378 . S
C598 C593 1.350 . S
C599 H586 0.929 . S
C599 C591 1.433 . S
C599 N601 1.384 . S
N600 C596 1.427 . S
N600 C597 1.384 . S
N601 C593 1.427 . S
N601 C599 1.384 . S
H602 C608 0.930 . S
H603 C612 0.930 . S
H604 C617 0.929 . S
H605 C615 0.929 . S
H606 C610 0.929 . S
H607 C616 0.929 . S
C608 H602 0.930 . S
C608 C609 1.367 . S
C608 C616 1.378 . S
C609 C608 1.367 . S
C609 C617 1.433 . S
C610 H606 0.929 . S
C610 C612 1.378 . S
C610 C614 1.350 . S
C611 C614 1.463 . S
C611 C616 1.350 . S
C611 N619 1.427 . S
C612 H603 0.930 . S
C612 C610 1.378 . S
C612 C613 1.367 . S
C613 C612 1.367 . S
C613 C615 1.433 . S
C614 C610 1.350 . S
C614 C611 1.463 . S
C614 N618 1.427 . S
C615 H605 0.929 . S
C615 C613 1.433 . S
C615 N618 1.384 . S
C616 H607 0.929 . S
C616 C608 1.378 . S
C616 C611 1.350 . S
C617 H604 0.929 . S
C617 C609 1.433 . S
C617 N619 1.384 . S
N618 C614 1.427 . S
N618 C615 1.384 . S
N619 C611 1.427 . S
N619 C617 1.384 . S
H620 C626 0.930 . S
H621 C630 0.930 . S
H622 C635 0.929 . S
H623 C633 0.929 . S
H624 C628 0.929 . S
H625 C634 0.929 . S
C626 H620 0.930 . S
C626 C627 1.367 . S
C626 C634 1.378 . S
C627 C626 1.367 . S
C627 C635 1.433 . S
C628 H624 0.929 . S
C628 C630 1.378 . S
C628 C632 1.350 . S
C629 C632 1.463 . S
C629 C634 1.350 . S
C629 N637 1.427 . S
C630 H621 0.930 . S
C630 C628 1.378 . S
C630 C631 1.367 . S
C631 C630 1.367 . S
C631 C633 1.433 . S
C632 C628 1.350 . S
C632 C629 1.463 . S
C632 N636 1.427 . S
C633 H623 0.929 . S
C633 C631 1.433 . S
C633 N636 1.384 . S
C634 H625 0.929 . S
C634 C626 1.378 . S
C634 C629 1.350 . S
C635 H622 0.929 . S
C635 C627 1.433 . S
C635 N637 1.384 . S
N636 C632 1.427 . S
N636 C633 1.384 . S
N637 C629 1.427 . S
N637 C635 1.384 . S
H638 C644 0.930 . S
H639 C648 0.930 . S
H640 C653 0.929 . S
H641 C651 0.929 . S
H642 C646 0.929 . S
H643 C652 0.929 . S
C644 H638 0.930 . S
C644 C645 1.367 . S
C644 C652 1.378 . S
C645 C644 1.367 . S
C645 C653 1.433 . S
C646 H642 0.929 . S
C646 C648 1.378 . S
C646 C650 1.350 . S
C647 C650 1.463 . S
C647 C652 1.350 . S
C647 N655 1.427 . S
C648 H639 0.930 . S
C648 C646 1.378 . S
C648 C649 1.367 . S
C649 C648 1.367 . S
C649 C651 1.433 . S
C650 C646 1.350 . S
C650 C647 1.463 . S
C650 N654 1.427 . S
C651 H641 0.929 . S
C651 C649 1.433 . S
C651 N654 1.384 . S
C652 H643 0.929 . S
C652 C644 1.378 . S
C652 C647 1.350 . S
C653 H640 0.929 . S
C653 C645 1.433 . S
C653 N655 1.384 . S
N654 C650 1.427 . S
N654 C651 1.384 . S
N655 C647 1.427 . S
N655 C653 1.384 . S
H656 C662 0.930 . S
H657 C666 0.930 . S
H658 C671 0.929 . S
H659 C669 0.929 . S
H660 C664 0.929 . S
H661 C670 0.929 . S
C662 H656 0.930 . S
C662 C663 1.367 . S
C662 C670 1.378 . S
C663 C662 1.367 . S
C663 C671 1.433 . S
C664 H660 0.929 . S
C664 C666 1.378 . S
C664 C668 1.350 . S
C665 C668 1.463 . S
C665 C670 1.350 . S
C665 N673 1.427 . S
C666 H657 0.930 . S
C666 C664 1.378 . S
C666 C667 1.367 . S
C667 C666 1.367 . S
C667 C669 1.433 . S
C668 C664 1.350 . S
C668 C665 1.463 . S
C668 N672 1.427 . S
C669 H659 0.929 . S
C669 C667 1.433 . S
C669 N672 1.384 . S
C670 H661 0.929 . S
C670 C662 1.378 . S
C670 C665 1.350 . S
C671 H658 0.929 . S
C671 C663 1.433 . S
C671 N673 1.384 . S
N672 C668 1.427 . S
N672 C669 1.384 . S
N673 C665 1.427 . S
N673 C671 1.384 . S
H674 C680 0.930 . S
H675 C684 0.930 . S
H676 C689 0.929 . S
H677 C687 0.929 . S
H678 C682 0.929 . S
H679 C688 0.929 . S
C680 H674 0.930 . S
C680 C681 1.367 . S
C680 C688 1.378 . S
C681 C680 1.367 . S
C681 C689 1.433 . S
C682 H678 0.929 . S
C682 C684 1.378 . S
C682 C686 1.350 . S
C683 C686 1.463 . S
C683 C688 1.350 . S
C683 N691 1.427 . S
C684 H675 0.930 . S
C684 C682 1.378 . S
C684 C685 1.367 . S
C685 C684 1.367 . S
C685 C687 1.433 . S
C686 C682 1.350 . S
C686 C683 1.463 . S
C686 N690 1.427 . S
C687 H677 0.929 . S
C687 C685 1.433 . S
C687 N690 1.384 . S
C688 H679 0.929 . S
C688 C680 1.378 . S
C688 C683 1.350 . S
C689 H676 0.929 . S
C689 C681 1.433 . S
C689 N691 1.384 . S
N690 C686 1.427 . S
N690 C687 1.384 . S
N691 C683 1.427 . S
N691 C689 1.384 . S
H692 C698 0.930 . S
H693 C702 0.930 . S
H694 C707 0.929 . S
H695 C705 0.929 . S
H696 C700 0.929 . S
H697 C706 0.929 . S
C698 H692 0.930 . S
C698 C699 1.367 . S
C698 C706 1.378 . S
C699 C698 1.367 . S
C699 C707 1.433 . S
C700 H696 0.929 . S
C700 C702 1.378 . S
C700 C704 1.350 . S
C701 C704 1.463 . S
C701 C706 1.350 . S
C701 N709 1.427 . S
C702 H693 0.930 . S
C702 C700 1.378 . S
C702 C703 1.367 . S
C703 C702 1.367 . S
C703 C705 1.433 . S
C704 C700 1.350 . S
C704 C701 1.463 . S
C704 N708 1.427 . S
C705 H695 0.929 . S
C705 C703 1.433 . S
C705 N708 1.384 . S
C706 H697 0.929 . S
C706 C698 1.378 . S
C706 C701 1.350 . S
C707 H694 0.929 . S
C707 C699 1.433 . S
C707 N709 1.384 . S
N708 C704 1.427 . S
N708 C705 1.384 . S
N709 C701 1.427 . S
N709 C707 1.384 . S
H710 C716 0.930 . S
H711 C720 0.930 . S
H712 C725 0.929 . S
H713 C723 0.929 . S
H714 C718 0.929 . S
H715 C724 0.929 . S
C716 H710 0.930 . S
C716 C717 1.367 . S
C716 C724 1.378 . S
C717 C716 1.367 . S
C717 C725 1.433 . S
C718 H714 0.929 . S
C718 C720 1.378 . S
C718 C722 1.350 . S
C719 C722 1.463 . S
C719 C724 1.350 . S
C719 N727 1.427 . S
C720 H711 0.930 . S
C720 C718 1.378 . S
C720 C721 1.367 . S
C721 C720 1.367 . S
C721 C723 1.433 . S
C722 C718 1.350 . S
C722 C719 1.463 . S
C722 N726 1.427 . S
C723 H713 0.929 . S
C723 C721 1.433 . S
C723 N726 1.384 . S
C724 H715 0.929 . S
C724 C716 1.378 . S
C724 C719 1.350 . S
C725 H712 0.929 . S
C725 C717 1.433 . S
C725 N727 1.384 . S
N726 C722 1.427 . S
N726 C723 1.384 . S
N727 C719 1.427 . S
N727 C725 1.384 . S
H728 C734 0.930 . S
H729 C738 0.930 . S
H730 C743 0.929 . S
H731 C741 0.929 . S
H732 C736 0.929 . S
H733 C742 0.929 . S
C734 H728 0.930 . S
C734 C735 1.367 . S
C734 C742 1.378 . S
C735 C734 1.367 . S
C735 C743 1.433 . S
C736 H732 0.929 . S
C736 C738 1.378 . S
C736 C740 1.350 . S
C737 C740 1.463 . S
C737 C742 1.350 . S
C737 N745 1.427 . S
C738 H729 0.930 . S
C738 C736 1.378 . S
C738 C739 1.367 . S
C739 C738 1.367 . S
C739 C741 1.433 . S
C740 C736 1.350 . S
C740 C737 1.463 . S
C740 N744 1.427 . S
C741 H731 0.929 . S
C741 C739 1.433 . S
C741 N744 1.384 . S
C742 H733 0.929 . S
C742 C734 1.378 . S
C742 C737 1.350 . S
C743 H730 0.929 . S
C743 C735 1.433 . S
C743 N745 1.384 . S
N744 C740 1.427 . S
N744 C741 1.384 . S
N745 C737 1.427 . S
N745 C743 1.384 . S
H746 C752 0.930 . S
H747 C756 0.930 . S
H748 C761 0.929 . S
H749 C759 0.929 . S
H750 C754 0.929 . S
H751 C760 0.929 . S
C752 H746 0.930 . S
C752 C753 1.367 . S
C752 C760 1.378 . S
C753 C752 1.367 . S
C753 C761 1.433 . S
C754 H750 0.929 . S
C754 C756 1.378 . S
C754 C758 1.350 . S
C755 C758 1.463 . S
C755 C760 1.350 . S
C755 N763 1.427 . S
C756 H747 0.930 . S
C756 C754 1.378 . S
C756 C757 1.367 . S
C757 C756 1.367 . S
C757 C759 1.433 . S
C758 C754 1.350 . S
C758 C755 1.463 . S
C758 N762 1.427 . S
C759 H749 0.929 . S
C759 C757 1.433 . S
C759 N762 1.384 . S
C760 H751 0.929 . S
C760 C752 1.378 . S
C760 C755 1.350 . S
C761 H748 0.929 . S
C761 C753 1.433 . S
C761 N763 1.384 . S
N762 C758 1.427 . S
N762 C759 1.384 . S
N763 C755 1.427 . S
N763 C761 1.384 . S
H764 C770 0.930 . S
H765 C774 0.930 . S
H766 C779 0.929 . S
H767 C777 0.929 . S
H768 C772 0.929 . S
H769 C778 0.929 . S
C770 H764 0.930 . S
C770 C771 1.367 . S
C770 C778 1.378 . S
C771 C770 1.367 . S
C771 C779 1.433 . S
C772 H768 0.929 . S
C772 C774 1.378 . S
C772 C776 1.350 . S
C773 C776 1.463 . S
C773 C778 1.350 . S
C773 N781 1.427 . S
C774 H765 0.930 . S
C774 C772 1.378 . S
C774 C775 1.367 . S
C775 C774 1.367 . S
C775 C777 1.433 . S
C776 C772 1.350 . S
C776 C773 1.463 . S
C776 N780 1.427 . S
C777 H767 0.929 . S
C777 C775 1.433 . S
C777 N780 1.384 . S
C778 H769 0.929 . S
C778 C770 1.378 . S
C778 C773 1.350 . S
C779 H766 0.929 . S
C779 C771 1.433 . S
C779 N781 1.384 . S
N780 C776 1.427 . S
N780 C777 1.384 . S
N781 C773 1.427 . S
N781 C779 1.384 . S
H782 C788 0.930 . S
H783 C792 0.930 . S
H784 C797 0.929 . S
H785 C795 0.929 . S
H786 C790 0.929 . S
H787 C796 0.929 . S
C788 H782 0.930 . S
C788 C789 1.367 . S
C788 C796 1.378 . S
C789 C788 1.367 . S
C789 C797 1.433 . S
C790 H786 0.929 . S
C790 C792 1.378 . S
C790 C794 1.350 . S
C791 C794 1.463 . S
C791 C796 1.350 . S
C791 N799 1.427 . S
C792 H783 0.930 . S
C792 C790 1.378 . S
C792 C793 1.367 . S
C793 C792 1.367 . S
C793 C795 1.433 . S
C794 C790 1.350 . S
C794 C791 1.463 . S
C794 N798 1.427 . S
C795 H785 0.929 . S
C795 C793 1.433 . S
C795 N798 1.384 . S
C796 H787 0.929 . S
C796 C788 1.378 . S
C796 C791 1.350 . S
C797 H784 0.929 . S
C797 C789 1.433 . S
C797 N799 1.384 . S
N798 C794 1.427 . S
N798 C795 1.384 . S
N799 C791 1.427 . S
N799 C797 1.384 . S
C231 C218 1.251 . S
C235 C8 1.254 . S
C249 C176 1.249 . S
C253 C22 1.251 . S
C267 C36 1.251 . S
C271 C190 1.254 . S
C285 C204 1.250 . S
C289 C50 1.249 . S
C303 C134 1.252 . S
C307 C64 1.255 . S
C321 C78 1.257 . S
C325 C148 1.254 . S
C339 C92 1.249 . S
C343 C162 1.249 . S
C357 C106 1.249 . S
C361 C120 1.250 . S
C375 C73 1.656 . S
C379 C7 1.575 . S
C393 C91 1.577 . S
C397 C17 1.656 . S
C411 C101 1.656 . S
C415 C35 1.573 . S
C429 C45 1.660 . S
C433 C63 1.565 . S
C447 C9 1.262 . S
C451 C23 1.245 . S
C465 C31 1.656 . S
C469 C21 1.576 . S
C483 C37 1.259 . S
C487 C51 1.247 . S
C501 C3 1.656 . S
C505 C49 1.574 . S
C519 C107 1.262 . S
C523 C65 1.245 . S
C537 C59 1.656 . S
C541 C77 1.571 . S
C555 C79 1.259 . S
C559 C93 1.250 . S
C573 C105 1.577 . S
C577 C87 1.656 . S
C591 C185 1.656 . S
C595 C119 1.573 . S
C609 C129 1.656 . S
C613 C203 1.573 . S
C627 C213 1.660 . S
C631 C147 1.568 . S
C645 C175 1.560 . S
C649 C157 1.660 . S
C663 C121 1.246 . S
C667 C135 1.262 . S
C681 C133 1.577 . S
C685 C143 1.656 . S
C699 C163 1.262 . S
C703 C149 1.246 . S
C717 C115 1.660 . S
C721 C161 1.561 . S
C735 C219 1.259 . S
C739 C177 1.249 . S
C753 C171 1.656 . S
C757 C189 1.576 . S
C771 C191 1.249 . S
C775 C205 1.256 . S
C789 C217 1.574 . S
C793 C199 1.657 . S
