# Generated by pormake.
# Topology gie, (4)-cn, num edge types: 1
# Building blocks:
#     Node 0, Type 0, BuildingBlock: NAWXER_clean_sbu_0, # of connection points: 4
#     Node 1, Type 0, BuildingBlock: NAWXER_clean_sbu_0, # of connection points: 4
#     Node 2, Type 0, BuildingBlock: NAWXER_clean_sbu_0, # of connection points: 4
#     Node 3, Type 0, BuildingBlock: NAWXER_clean_sbu_0, # of connection points: 4
#     Node 4, Type 0, BuildingBlock: NAWXER_clean_sbu_0, # of connection points: 4
#     Node 5, Type 0, BuildingBlock: NAWXER_clean_sbu_0, # of connection points: 4
#     Node 6, Type 0, BuildingBlock: NAWXER_clean_sbu_0, # of connection points: 4
#     Node 7, Type 0, BuildingBlock: NAWXER_clean_sbu_0, # of connection points: 4
#     Node 8, Type 0, BuildingBlock: NAWXER_clean_sbu_0, # of connection points: 4
#     Node 9, Type 0, BuildingBlock: NAWXER_clean_sbu_0, # of connection points: 4
#     Node 10, Type 0, BuildingBlock: NAWXER_clean_sbu_0, # of connection points: 4
#     Node 11, Type 0, BuildingBlock: NAWXER_clean_sbu_0, # of connection points: 4
#     Node 12, Type 0, BuildingBlock: NAWXER_clean_sbu_0, # of connection points: 4
#     Node 13, Type 0, BuildingBlock: NAWXER_clean_sbu_0, # of connection points: 4
#     Node 14, Type 0, BuildingBlock: NAWXER_clean_sbu_0, # of connection points: 4
#     Node 15, Type 0, BuildingBlock: NAWXER_clean_sbu_0, # of connection points: 4
#     Node 16, Type 0, BuildingBlock: NAWXER_clean_sbu_0, # of connection points: 4
#     Node 17, Type 0, BuildingBlock: NAWXER_clean_sbu_0, # of connection points: 4
#     Node 18, Type 0, BuildingBlock: NAWXER_clean_sbu_0, # of connection points: 4
#     Node 19, Type 0, BuildingBlock: NAWXER_clean_sbu_0, # of connection points: 4
#     Node 20, Type 0, BuildingBlock: NAWXER_clean_sbu_0, # of connection points: 4
#     Node 21, Type 0, BuildingBlock: NAWXER_clean_sbu_0, # of connection points: 4
#     Node 22, Type 0, BuildingBlock: NAWXER_clean_sbu_0, # of connection points: 4
#     Node 23, Type 0, BuildingBlock: NAWXER_clean_sbu_0, # of connection points: 4
#     Node 24, Type 0, BuildingBlock: NAWXER_clean_sbu_0, # of connection points: 4
#     Node 25, Type 0, BuildingBlock: NAWXER_clean_sbu_0, # of connection points: 4
#     Node 26, Type 0, BuildingBlock: NAWXER_clean_sbu_0, # of connection points: 4
#     Node 27, Type 0, BuildingBlock: NAWXER_clean_sbu_0, # of connection points: 4
#     Node 28, Type 0, BuildingBlock: NAWXER_clean_sbu_0, # of connection points: 4
#     Node 29, Type 0, BuildingBlock: NAWXER_clean_sbu_0, # of connection points: 4
#     Node 30, Type 0, BuildingBlock: NAWXER_clean_sbu_0, # of connection points: 4
#     Node 31, Type 0, BuildingBlock: NAWXER_clean_sbu_0, # of connection points: 4
#     Node 32, Type 0, BuildingBlock: NAWXER_clean_sbu_0, # of connection points: 4
#     Node 33, Type 0, BuildingBlock: NAWXER_clean_sbu_0, # of connection points: 4
#     Node 34, Type 0, BuildingBlock: NAWXER_clean_sbu_0, # of connection points: 4
#     Node 35, Type 0, BuildingBlock: NAWXER_clean_sbu_0, # of connection points: 4
#     Node 36, Type 0, BuildingBlock: NAWXER_clean_sbu_0, # of connection points: 4
#     Node 37, Type 0, BuildingBlock: NAWXER_clean_sbu_0, # of connection points: 4
#     Node 38, Type 0, BuildingBlock: NAWXER_clean_sbu_0, # of connection points: 4
#     Node 39, Type 0, BuildingBlock: NAWXER_clean_sbu_0, # of connection points: 4
#     Node 40, Type 0, BuildingBlock: NAWXER_clean_sbu_0, # of connection points: 4
#     Node 41, Type 0, BuildingBlock: NAWXER_clean_sbu_0, # of connection points: 4
#     Node 42, Type 0, BuildingBlock: NAWXER_clean_sbu_0, # of connection points: 4
#     Node 43, Type 0, BuildingBlock: NAWXER_clean_sbu_0, # of connection points: 4
#     Node 44, Type 0, BuildingBlock: NAWXER_clean_sbu_0, # of connection points: 4
#     Node 45, Type 0, BuildingBlock: NAWXER_clean_sbu_0, # of connection points: 4
#     Node 46, Type 0, BuildingBlock: NAWXER_clean_sbu_0, # of connection points: 4
#     Node 47, Type 0, BuildingBlock: NAWXER_clean_sbu_0, # of connection points: 4
#     Node 48, Type 0, BuildingBlock: NAWXER_clean_sbu_0, # of connection points: 4
#     Node 49, Type 0, BuildingBlock: NAWXER_clean_sbu_0, # of connection points: 4
#     Node 50, Type 0, BuildingBlock: NAWXER_clean_sbu_0, # of connection points: 4
#     Node 51, Type 0, BuildingBlock: NAWXER_clean_sbu_0, # of connection points: 4
#     Node 52, Type 0, BuildingBlock: NAWXER_clean_sbu_0, # of connection points: 4
#     Node 53, Type 0, BuildingBlock: NAWXER_clean_sbu_0, # of connection points: 4
#     Node 54, Type 0, BuildingBlock: NAWXER_clean_sbu_0, # of connection points: 4
#     Node 55, Type 0, BuildingBlock: NAWXER_clean_sbu_0, # of connection points: 4
#     Node 56, Type 0, BuildingBlock: NAWXER_clean_sbu_0, # of connection points: 4
#     Node 57, Type 0, BuildingBlock: NAWXER_clean_sbu_0, # of connection points: 4
#     Node 58, Type 0, BuildingBlock: NAWXER_clean_sbu_0, # of connection points: 4
#     Node 59, Type 0, BuildingBlock: NAWXER_clean_sbu_0, # of connection points: 4
#     Node 60, Type 0, BuildingBlock: NAWXER_clean_sbu_0, # of connection points: 4
#     Node 61, Type 0, BuildingBlock: NAWXER_clean_sbu_0, # of connection points: 4
#     Node 62, Type 0, BuildingBlock: NAWXER_clean_sbu_0, # of connection points: 4
#     Node 63, Type 0, BuildingBlock: NAWXER_clean_sbu_0, # of connection points: 4
#     Node 64, Type 0, BuildingBlock: NAWXER_clean_sbu_0, # of connection points: 4
#     Node 65, Type 0, BuildingBlock: NAWXER_clean_sbu_0, # of connection points: 4
#     Node 66, Type 0, BuildingBlock: NAWXER_clean_sbu_0, # of connection points: 4
#     Node 67, Type 0, BuildingBlock: NAWXER_clean_sbu_0, # of connection points: 4
#     Node 68, Type 0, BuildingBlock: NAWXER_clean_sbu_0, # of connection points: 4
#     Node 69, Type 0, BuildingBlock: NAWXER_clean_sbu_0, # of connection points: 4
#     Node 70, Type 0, BuildingBlock: NAWXER_clean_sbu_0, # of connection points: 4
#     Node 71, Type 0, BuildingBlock: NAWXER_clean_sbu_0, # of connection points: 4
#     Node 72, Type 0, BuildingBlock: NAWXER_clean_sbu_0, # of connection points: 4
#     Node 73, Type 0, BuildingBlock: NAWXER_clean_sbu_0, # of connection points: 4
#     Node 74, Type 0, BuildingBlock: NAWXER_clean_sbu_0, # of connection points: 4
#     Node 75, Type 0, BuildingBlock: NAWXER_clean_sbu_0, # of connection points: 4
#     Node 76, Type 0, BuildingBlock: NAWXER_clean_sbu_0, # of connection points: 4
#     Node 77, Type 0, BuildingBlock: NAWXER_clean_sbu_0, # of connection points: 4
#     Node 78, Type 0, BuildingBlock: NAWXER_clean_sbu_0, # of connection points: 4
#     Node 79, Type 0, BuildingBlock: NAWXER_clean_sbu_0, # of connection points: 4
#     Node 80, Type 0, BuildingBlock: NAWXER_clean_sbu_0, # of connection points: 4
#     Node 81, Type 0, BuildingBlock: NAWXER_clean_sbu_0, # of connection points: 4
#     Node 82, Type 0, BuildingBlock: NAWXER_clean_sbu_0, # of connection points: 4
#     Node 83, Type 0, BuildingBlock: NAWXER_clean_sbu_0, # of connection points: 4
#     Node 84, Type 0, BuildingBlock: NAWXER_clean_sbu_0, # of connection points: 4
#     Node 85, Type 0, BuildingBlock: NAWXER_clean_sbu_0, # of connection points: 4
#     Node 86, Type 0, BuildingBlock: NAWXER_clean_sbu_0, # of connection points: 4
#     Node 87, Type 0, BuildingBlock: NAWXER_clean_sbu_0, # of connection points: 4
#     Node 88, Type 0, BuildingBlock: NAWXER_clean_sbu_0, # of connection points: 4
#     Node 89, Type 0, BuildingBlock: NAWXER_clean_sbu_0, # of connection points: 4
#     Node 90, Type 0, BuildingBlock: NAWXER_clean_sbu_0, # of connection points: 4
#     Node 91, Type 0, BuildingBlock: NAWXER_clean_sbu_0, # of connection points: 4
#     Node 92, Type 0, BuildingBlock: NAWXER_clean_sbu_0, # of connection points: 4
#     Node 93, Type 0, BuildingBlock: NAWXER_clean_sbu_0, # of connection points: 4
#     Node 94, Type 0, BuildingBlock: NAWXER_clean_sbu_0, # of connection points: 4
#     Node 95, Type 0, BuildingBlock: NAWXER_clean_sbu_0, # of connection points: 4
#     Edge 96, Type (0, 0), BuildingBlock: OJICUG_clean_linker_0, # of connection points: 2
#     Edge 97, Type (0, 0), BuildingBlock: OJICUG_clean_linker_0, # of connection points: 2
#     Edge 98, Type (0, 0), BuildingBlock: OJICUG_clean_linker_0, # of connection points: 2
#     Edge 99, Type (0, 0), BuildingBlock: OJICUG_clean_linker_0, # of connection points: 2
#     Edge 100, Type (0, 0), BuildingBlock: OJICUG_clean_linker_0, # of connection points: 2
#     Edge 101, Type (0, 0), BuildingBlock: OJICUG_clean_linker_0, # of connection points: 2
#     Edge 102, Type (0, 0), BuildingBlock: OJICUG_clean_linker_0, # of connection points: 2
#     Edge 103, Type (0, 0), BuildingBlock: OJICUG_clean_linker_0, # of connection points: 2
#     Edge 104, Type (0, 0), BuildingBlock: OJICUG_clean_linker_0, # of connection points: 2
#     Edge 105, Type (0, 0), BuildingBlock: OJICUG_clean_linker_0, # of connection points: 2
#     Edge 106, Type (0, 0), BuildingBlock: OJICUG_clean_linker_0, # of connection points: 2
#     Edge 107, Type (0, 0), BuildingBlock: OJICUG_clean_linker_0, # of connection points: 2
#     Edge 108, Type (0, 0), BuildingBlock: OJICUG_clean_linker_0, # of connection points: 2
#     Edge 109, Type (0, 0), BuildingBlock: OJICUG_clean_linker_0, # of connection points: 2
#     Edge 110, Type (0, 0), BuildingBlock: OJICUG_clean_linker_0, # of connection points: 2
#     Edge 111, Type (0, 0), BuildingBlock: OJICUG_clean_linker_0, # of connection points: 2
#     Edge 112, Type (0, 0), BuildingBlock: OJICUG_clean_linker_0, # of connection points: 2
#     Edge 113, Type (0, 0), BuildingBlock: OJICUG_clean_linker_0, # of connection points: 2
#     Edge 114, Type (0, 0), BuildingBlock: OJICUG_clean_linker_0, # of connection points: 2
#     Edge 115, Type (0, 0), BuildingBlock: OJICUG_clean_linker_0, # of connection points: 2
#     Edge 116, Type (0, 0), BuildingBlock: OJICUG_clean_linker_0, # of connection points: 2
#     Edge 117, Type (0, 0), BuildingBlock: OJICUG_clean_linker_0, # of connection points: 2
#     Edge 118, Type (0, 0), BuildingBlock: OJICUG_clean_linker_0, # of connection points: 2
#     Edge 119, Type (0, 0), BuildingBlock: OJICUG_clean_linker_0, # of connection points: 2
#     Edge 120, Type (0, 0), BuildingBlock: OJICUG_clean_linker_0, # of connection points: 2
#     Edge 121, Type (0, 0), BuildingBlock: OJICUG_clean_linker_0, # of connection points: 2
#     Edge 122, Type (0, 0), BuildingBlock: OJICUG_clean_linker_0, # of connection points: 2
#     Edge 123, Type (0, 0), BuildingBlock: OJICUG_clean_linker_0, # of connection points: 2
#     Edge 124, Type (0, 0), BuildingBlock: OJICUG_clean_linker_0, # of connection points: 2
#     Edge 125, Type (0, 0), BuildingBlock: OJICUG_clean_linker_0, # of connection points: 2
#     Edge 126, Type (0, 0), BuildingBlock: OJICUG_clean_linker_0, # of connection points: 2
#     Edge 127, Type (0, 0), BuildingBlock: OJICUG_clean_linker_0, # of connection points: 2
#     Edge 128, Type (0, 0), BuildingBlock: OJICUG_clean_linker_0, # of connection points: 2
#     Edge 129, Type (0, 0), BuildingBlock: OJICUG_clean_linker_0, # of connection points: 2
#     Edge 130, Type (0, 0), BuildingBlock: OJICUG_clean_linker_0, # of connection points: 2
#     Edge 131, Type (0, 0), BuildingBlock: OJICUG_clean_linker_0, # of connection points: 2
#     Edge 132, Type (0, 0), BuildingBlock: OJICUG_clean_linker_0, # of connection points: 2
#     Edge 133, Type (0, 0), BuildingBlock: OJICUG_clean_linker_0, # of connection points: 2
#     Edge 134, Type (0, 0), BuildingBlock: OJICUG_clean_linker_0, # of connection points: 2
#     Edge 135, Type (0, 0), BuildingBlock: OJICUG_clean_linker_0, # of connection points: 2
#     Edge 136, Type (0, 0), BuildingBlock: OJICUG_clean_linker_0, # of connection points: 2
#     Edge 137, Type (0, 0), BuildingBlock: OJICUG_clean_linker_0, # of connection points: 2
#     Edge 138, Type (0, 0), BuildingBlock: OJICUG_clean_linker_0, # of connection points: 2
#     Edge 139, Type (0, 0), BuildingBlock: OJICUG_clean_linker_0, # of connection points: 2
#     Edge 140, Type (0, 0), BuildingBlock: OJICUG_clean_linker_0, # of connection points: 2
#     Edge 141, Type (0, 0), BuildingBlock: OJICUG_clean_linker_0, # of connection points: 2
#     Edge 142, Type (0, 0), BuildingBlock: OJICUG_clean_linker_0, # of connection points: 2
#     Edge 143, Type (0, 0), BuildingBlock: OJICUG_clean_linker_0, # of connection points: 2
#     Edge 144, Type (0, 0), BuildingBlock: OJICUG_clean_linker_0, # of connection points: 2
#     Edge 145, Type (0, 0), BuildingBlock: OJICUG_clean_linker_0, # of connection points: 2
#     Edge 146, Type (0, 0), BuildingBlock: OJICUG_clean_linker_0, # of connection points: 2
#     Edge 147, Type (0, 0), BuildingBlock: OJICUG_clean_linker_0, # of connection points: 2
#     Edge 148, Type (0, 0), BuildingBlock: OJICUG_clean_linker_0, # of connection points: 2
#     Edge 149, Type (0, 0), BuildingBlock: OJICUG_clean_linker_0, # of connection points: 2
#     Edge 150, Type (0, 0), BuildingBlock: OJICUG_clean_linker_0, # of connection points: 2
#     Edge 151, Type (0, 0), BuildingBlock: OJICUG_clean_linker_0, # of connection points: 2
#     Edge 152, Type (0, 0), BuildingBlock: OJICUG_clean_linker_0, # of connection points: 2
#     Edge 153, Type (0, 0), BuildingBlock: OJICUG_clean_linker_0, # of connection points: 2
#     Edge 154, Type (0, 0), BuildingBlock: OJICUG_clean_linker_0, # of connection points: 2
#     Edge 155, Type (0, 0), BuildingBlock: OJICUG_clean_linker_0, # of connection points: 2
#     Edge 156, Type (0, 0), BuildingBlock: OJICUG_clean_linker_0, # of connection points: 2
#     Edge 157, Type (0, 0), BuildingBlock: OJICUG_clean_linker_0, # of connection points: 2
#     Edge 158, Type (0, 0), BuildingBlock: OJICUG_clean_linker_0, # of connection points: 2
#     Edge 159, Type (0, 0), BuildingBlock: OJICUG_clean_linker_0, # of connection points: 2
#     Edge 160, Type (0, 0), BuildingBlock: OJICUG_clean_linker_0, # of connection points: 2
#     Edge 161, Type (0, 0), BuildingBlock: OJICUG_clean_linker_0, # of connection points: 2
#     Edge 162, Type (0, 0), BuildingBlock: OJICUG_clean_linker_0, # of connection points: 2
#     Edge 163, Type (0, 0), BuildingBlock: OJICUG_clean_linker_0, # of connection points: 2
#     Edge 164, Type (0, 0), BuildingBlock: OJICUG_clean_linker_0, # of connection points: 2
#     Edge 165, Type (0, 0), BuildingBlock: OJICUG_clean_linker_0, # of connection points: 2
#     Edge 166, Type (0, 0), BuildingBlock: OJICUG_clean_linker_0, # of connection points: 2
#     Edge 167, Type (0, 0), BuildingBlock: OJICUG_clean_linker_0, # of connection points: 2
#     Edge 168, Type (0, 0), BuildingBlock: OJICUG_clean_linker_0, # of connection points: 2
#     Edge 169, Type (0, 0), BuildingBlock: OJICUG_clean_linker_0, # of connection points: 2
#     Edge 170, Type (0, 0), BuildingBlock: OJICUG_clean_linker_0, # of connection points: 2
#     Edge 171, Type (0, 0), BuildingBlock: OJICUG_clean_linker_0, # of connection points: 2
#     Edge 172, Type (0, 0), BuildingBlock: OJICUG_clean_linker_0, # of connection points: 2
#     Edge 173, Type (0, 0), BuildingBlock: OJICUG_clean_linker_0, # of connection points: 2
#     Edge 174, Type (0, 0), BuildingBlock: OJICUG_clean_linker_0, # of connection points: 2
#     Edge 175, Type (0, 0), BuildingBlock: OJICUG_clean_linker_0, # of connection points: 2
#     Edge 176, Type (0, 0), BuildingBlock: OJICUG_clean_linker_0, # of connection points: 2
#     Edge 177, Type (0, 0), BuildingBlock: OJICUG_clean_linker_0, # of connection points: 2
#     Edge 178, Type (0, 0), BuildingBlock: OJICUG_clean_linker_0, # of connection points: 2
#     Edge 179, Type (0, 0), BuildingBlock: OJICUG_clean_linker_0, # of connection points: 2
#     Edge 180, Type (0, 0), BuildingBlock: OJICUG_clean_linker_0, # of connection points: 2
#     Edge 181, Type (0, 0), BuildingBlock: OJICUG_clean_linker_0, # of connection points: 2
#     Edge 182, Type (0, 0), BuildingBlock: OJICUG_clean_linker_0, # of connection points: 2
#     Edge 183, Type (0, 0), BuildingBlock: OJICUG_clean_linker_0, # of connection points: 2
#     Edge 184, Type (0, 0), BuildingBlock: OJICUG_clean_linker_0, # of connection points: 2
#     Edge 185, Type (0, 0), BuildingBlock: OJICUG_clean_linker_0, # of connection points: 2
#     Edge 186, Type (0, 0), BuildingBlock: OJICUG_clean_linker_0, # of connection points: 2
#     Edge 187, Type (0, 0), BuildingBlock: OJICUG_clean_linker_0, # of connection points: 2
#     Edge 188, Type (0, 0), BuildingBlock: OJICUG_clean_linker_0, # of connection points: 2
#     Edge 189, Type (0, 0), BuildingBlock: OJICUG_clean_linker_0, # of connection points: 2
#     Edge 190, Type (0, 0), BuildingBlock: OJICUG_clean_linker_0, # of connection points: 2
#     Edge 191, Type (0, 0), BuildingBlock: OJICUG_clean_linker_0, # of connection points: 2
#     Edge 192, Type (0, 0), BuildingBlock: OJICUG_clean_linker_0, # of connection points: 2
#     Edge 193, Type (0, 0), BuildingBlock: OJICUG_clean_linker_0, # of connection points: 2
#     Edge 194, Type (0, 0), BuildingBlock: OJICUG_clean_linker_0, # of connection points: 2
#     Edge 195, Type (0, 0), BuildingBlock: OJICUG_clean_linker_0, # of connection points: 2
#     Edge 196, Type (0, 0), BuildingBlock: OJICUG_clean_linker_0, # of connection points: 2
#     Edge 197, Type (0, 0), BuildingBlock: OJICUG_clean_linker_0, # of connection points: 2
#     Edge 198, Type (0, 0), BuildingBlock: OJICUG_clean_linker_0, # of connection points: 2
#     Edge 199, Type (0, 0), BuildingBlock: OJICUG_clean_linker_0, # of connection points: 2
#     Edge 200, Type (0, 0), BuildingBlock: OJICUG_clean_linker_0, # of connection points: 2
#     Edge 201, Type (0, 0), BuildingBlock: OJICUG_clean_linker_0, # of connection points: 2
#     Edge 202, Type (0, 0), BuildingBlock: OJICUG_clean_linker_0, # of connection points: 2
#     Edge 203, Type (0, 0), BuildingBlock: OJICUG_clean_linker_0, # of connection points: 2
#     Edge 204, Type (0, 0), BuildingBlock: OJICUG_clean_linker_0, # of connection points: 2
#     Edge 205, Type (0, 0), BuildingBlock: OJICUG_clean_linker_0, # of connection points: 2
#     Edge 206, Type (0, 0), BuildingBlock: OJICUG_clean_linker_0, # of connection points: 2
#     Edge 207, Type (0, 0), BuildingBlock: OJICUG_clean_linker_0, # of connection points: 2
#     Edge 208, Type (0, 0), BuildingBlock: OJICUG_clean_linker_0, # of connection points: 2
#     Edge 209, Type (0, 0), BuildingBlock: OJICUG_clean_linker_0, # of connection points: 2
#     Edge 210, Type (0, 0), BuildingBlock: OJICUG_clean_linker_0, # of connection points: 2
#     Edge 211, Type (0, 0), BuildingBlock: OJICUG_clean_linker_0, # of connection points: 2
#     Edge 212, Type (0, 0), BuildingBlock: OJICUG_clean_linker_0, # of connection points: 2
#     Edge 213, Type (0, 0), BuildingBlock: OJICUG_clean_linker_0, # of connection points: 2
#     Edge 214, Type (0, 0), BuildingBlock: OJICUG_clean_linker_0, # of connection points: 2
#     Edge 215, Type (0, 0), BuildingBlock: OJICUG_clean_linker_0, # of connection points: 2
#     Edge 216, Type (0, 0), BuildingBlock: OJICUG_clean_linker_0, # of connection points: 2
#     Edge 217, Type (0, 0), BuildingBlock: OJICUG_clean_linker_0, # of connection points: 2
#     Edge 218, Type (0, 0), BuildingBlock: OJICUG_clean_linker_0, # of connection points: 2
#     Edge 219, Type (0, 0), BuildingBlock: OJICUG_clean_linker_0, # of connection points: 2
#     Edge 220, Type (0, 0), BuildingBlock: OJICUG_clean_linker_0, # of connection points: 2
#     Edge 221, Type (0, 0), BuildingBlock: OJICUG_clean_linker_0, # of connection points: 2
#     Edge 222, Type (0, 0), BuildingBlock: OJICUG_clean_linker_0, # of connection points: 2
#     Edge 223, Type (0, 0), BuildingBlock: OJICUG_clean_linker_0, # of connection points: 2
#     Edge 224, Type (0, 0), BuildingBlock: OJICUG_clean_linker_0, # of connection points: 2
#     Edge 225, Type (0, 0), BuildingBlock: OJICUG_clean_linker_0, # of connection points: 2
#     Edge 226, Type (0, 0), BuildingBlock: OJICUG_clean_linker_0, # of connection points: 2
#     Edge 227, Type (0, 0), BuildingBlock: OJICUG_clean_linker_0, # of connection points: 2
#     Edge 228, Type (0, 0), BuildingBlock: OJICUG_clean_linker_0, # of connection points: 2
#     Edge 229, Type (0, 0), BuildingBlock: OJICUG_clean_linker_0, # of connection points: 2
#     Edge 230, Type (0, 0), BuildingBlock: OJICUG_clean_linker_0, # of connection points: 2
#     Edge 231, Type (0, 0), BuildingBlock: OJICUG_clean_linker_0, # of connection points: 2
#     Edge 232, Type (0, 0), BuildingBlock: OJICUG_clean_linker_0, # of connection points: 2
#     Edge 233, Type (0, 0), BuildingBlock: OJICUG_clean_linker_0, # of connection points: 2
#     Edge 234, Type (0, 0), BuildingBlock: OJICUG_clean_linker_0, # of connection points: 2
#     Edge 235, Type (0, 0), BuildingBlock: OJICUG_clean_linker_0, # of connection points: 2
#     Edge 236, Type (0, 0), BuildingBlock: OJICUG_clean_linker_0, # of connection points: 2
#     Edge 237, Type (0, 0), BuildingBlock: OJICUG_clean_linker_0, # of connection points: 2
#     Edge 238, Type (0, 0), BuildingBlock: OJICUG_clean_linker_0, # of connection points: 2
#     Edge 239, Type (0, 0), BuildingBlock: OJICUG_clean_linker_0, # of connection points: 2
#     Edge 240, Type (0, 0), BuildingBlock: OJICUG_clean_linker_0, # of connection points: 2
#     Edge 241, Type (0, 0), BuildingBlock: OJICUG_clean_linker_0, # of connection points: 2
#     Edge 242, Type (0, 0), BuildingBlock: OJICUG_clean_linker_0, # of connection points: 2
#     Edge 243, Type (0, 0), BuildingBlock: OJICUG_clean_linker_0, # of connection points: 2
#     Edge 244, Type (0, 0), BuildingBlock: OJICUG_clean_linker_0, # of connection points: 2
#     Edge 245, Type (0, 0), BuildingBlock: OJICUG_clean_linker_0, # of connection points: 2
#     Edge 246, Type (0, 0), BuildingBlock: OJICUG_clean_linker_0, # of connection points: 2
#     Edge 247, Type (0, 0), BuildingBlock: OJICUG_clean_linker_0, # of connection points: 2
#     Edge 248, Type (0, 0), BuildingBlock: OJICUG_clean_linker_0, # of connection points: 2
#     Edge 249, Type (0, 0), BuildingBlock: OJICUG_clean_linker_0, # of connection points: 2
#     Edge 250, Type (0, 0), BuildingBlock: OJICUG_clean_linker_0, # of connection points: 2
#     Edge 251, Type (0, 0), BuildingBlock: OJICUG_clean_linker_0, # of connection points: 2
#     Edge 252, Type (0, 0), BuildingBlock: OJICUG_clean_linker_0, # of connection points: 2
#     Edge 253, Type (0, 0), BuildingBlock: OJICUG_clean_linker_0, # of connection points: 2
#     Edge 254, Type (0, 0), BuildingBlock: OJICUG_clean_linker_0, # of connection points: 2
#     Edge 255, Type (0, 0), BuildingBlock: OJICUG_clean_linker_0, # of connection points: 2
#     Edge 256, Type (0, 0), BuildingBlock: OJICUG_clean_linker_0, # of connection points: 2
#     Edge 257, Type (0, 0), BuildingBlock: OJICUG_clean_linker_0, # of connection points: 2
#     Edge 258, Type (0, 0), BuildingBlock: OJICUG_clean_linker_0, # of connection points: 2
#     Edge 259, Type (0, 0), BuildingBlock: OJICUG_clean_linker_0, # of connection points: 2
#     Edge 260, Type (0, 0), BuildingBlock: OJICUG_clean_linker_0, # of connection points: 2
#     Edge 261, Type (0, 0), BuildingBlock: OJICUG_clean_linker_0, # of connection points: 2
#     Edge 262, Type (0, 0), BuildingBlock: OJICUG_clean_linker_0, # of connection points: 2
#     Edge 263, Type (0, 0), BuildingBlock: OJICUG_clean_linker_0, # of connection points: 2
#     Edge 264, Type (0, 0), BuildingBlock: OJICUG_clean_linker_0, # of connection points: 2
#     Edge 265, Type (0, 0), BuildingBlock: OJICUG_clean_linker_0, # of connection points: 2
#     Edge 266, Type (0, 0), BuildingBlock: OJICUG_clean_linker_0, # of connection points: 2
#     Edge 267, Type (0, 0), BuildingBlock: OJICUG_clean_linker_0, # of connection points: 2
#     Edge 268, Type (0, 0), BuildingBlock: OJICUG_clean_linker_0, # of connection points: 2
#     Edge 269, Type (0, 0), BuildingBlock: OJICUG_clean_linker_0, # of connection points: 2
#     Edge 270, Type (0, 0), BuildingBlock: OJICUG_clean_linker_0, # of connection points: 2
#     Edge 271, Type (0, 0), BuildingBlock: OJICUG_clean_linker_0, # of connection points: 2
#     Edge 272, Type (0, 0), BuildingBlock: OJICUG_clean_linker_0, # of connection points: 2
#     Edge 273, Type (0, 0), BuildingBlock: OJICUG_clean_linker_0, # of connection points: 2
#     Edge 274, Type (0, 0), BuildingBlock: OJICUG_clean_linker_0, # of connection points: 2
#     Edge 275, Type (0, 0), BuildingBlock: OJICUG_clean_linker_0, # of connection points: 2
#     Edge 276, Type (0, 0), BuildingBlock: OJICUG_clean_linker_0, # of connection points: 2
#     Edge 277, Type (0, 0), BuildingBlock: OJICUG_clean_linker_0, # of connection points: 2
#     Edge 278, Type (0, 0), BuildingBlock: OJICUG_clean_linker_0, # of connection points: 2
#     Edge 279, Type (0, 0), BuildingBlock: OJICUG_clean_linker_0, # of connection points: 2
#     Edge 280, Type (0, 0), BuildingBlock: OJICUG_clean_linker_0, # of connection points: 2
#     Edge 281, Type (0, 0), BuildingBlock: OJICUG_clean_linker_0, # of connection points: 2
#     Edge 282, Type (0, 0), BuildingBlock: OJICUG_clean_linker_0, # of connection points: 2
#     Edge 283, Type (0, 0), BuildingBlock: OJICUG_clean_linker_0, # of connection points: 2
#     Edge 284, Type (0, 0), BuildingBlock: OJICUG_clean_linker_0, # of connection points: 2
#     Edge 285, Type (0, 0), BuildingBlock: OJICUG_clean_linker_0, # of connection points: 2
#     Edge 286, Type (0, 0), BuildingBlock: OJICUG_clean_linker_0, # of connection points: 2
#     Edge 287, Type (0, 0), BuildingBlock: OJICUG_clean_linker_0, # of connection points: 2
# Relax obj value: 0.074
# Max RMSD: 0.230
# Mean RMSD: 0.230
data_MOF--net-gie--node1-NAWXER_clean_sbu_0--edge1-OJICUG_clean_linker_0
_symmetry_space_group_name_H-M    P1
_symmetry_Int_Tables_number       1
_symmetry_cell_setting            triclinic
loop_
_symmetry_equiv_pos_as_xyz
'x, y, z'
_cell_length_a     64.115957
_cell_length_b     64.118998
_cell_length_c     64.117859
_cell_angle_alpha  89.998595
_cell_angle_beta   90.00183
_cell_angle_gamma 89.998579
loop_
_atom_site_label
_atom_site_type_symbol
_atom_site_fract_x
_atom_site_fract_y
_atom_site_fract_z
_atom_type_partial_charge
C0 C 0.99375 0.10095 0.39338 0.0
C1 C 0.03903 0.16073 0.38419 0.0
O2 O 0.99092 0.11408 0.40822 0.0
Zn3 Zn 0.00519 0.14341 0.41738 0.0
O4 O 0.00779 0.10445 0.37993 0.0
Zn5 Zn 0.017 0.13082 0.39017 0.0
O6 O 0.03486 0.12326 0.41794 0.0
O7 O 0.01779 0.138 0.4438 0.0
O8 O 0.03706 0.14444 0.37315 0.0
O9 O 0.02837 0.16255 0.40109 0.0
O10 O 0.98167 0.16141 0.41826 0.0
O11 O 0.98989 0.1513 0.3864 0.0
C12 C 0.03312 0.12725 0.43749 0.0
C13 C 0.97814 0.16182 0.3988 0.0
C14 C 0.09113 0.72816 0.64864 0.0
C15 C 0.12583 0.78296 0.68744 0.0
O16 O 0.10167 0.73992 0.63627 0.0
Zn17 Zn 0.12221 0.76696 0.64009 0.0
O18 O 0.09157 0.73162 0.66811 0.0
Zn19 Zn 0.10962 0.75511 0.66729 0.0
O20 O 0.09051 0.77836 0.65107 0.0
O21 O 0.10861 0.7871 0.62314 0.0
O22 O 0.11507 0.76763 0.69373 0.0
O23 O 0.12981 0.78473 0.66789 0.0
O24 O 0.14856 0.75772 0.62981 0.0
O25 O 0.13891 0.7408 0.65808 0.0
C26 C 0.09232 0.78906 0.6342 0.0
C27 C 0.15204 0.74365 0.64323 0.0
C28 C 0.47031 0.87579 0.93709 0.0
C29 C 0.52515 0.84106 0.89835 0.0
O30 O 0.46857 0.87977 0.91754 0.0
Zn31 Zn 0.48636 0.87213 0.88975 0.0
O32 O 0.48561 0.865 0.9434 0.0
Zn33 Zn 0.49816 0.85954 0.91698 0.0
O34 O 0.51245 0.88885 0.9078 0.0
O35 O 0.49561 0.89848 0.87948 0.0
O36 O 0.52165 0.8415 0.91782 0.0
O37 O 0.5134 0.85159 0.88597 0.0
O38 O 0.46622 0.85853 0.87279 0.0
O39 O 0.4749 0.84046 0.90077 0.0
C40 C 0.50964 0.90198 0.89294 0.0
C41 C 0.46421 0.84227 0.88389 0.0
C42 C 0.41202 0.2751 0.14871 0.0
C43 C 0.37735 0.22016 0.18736 0.0
O44 O 0.40151 0.26336 0.13631 0.0
Zn45 Zn 0.38101 0.23627 0.14004 0.0
O46 O 0.41159 0.27158 0.16818 0.0
Zn47 Zn 0.39358 0.24806 0.16729 0.0
O48 O 0.41272 0.22486 0.15103 0.0
O49 O 0.39465 0.21619 0.12306 0.0
O50 O 0.38813 0.23546 0.19369 0.0
O51 O 0.37339 0.21844 0.1678 0.0
O52 O 0.35466 0.2455 0.12978 0.0
O53 O 0.36426 0.26233 0.15812 0.0
C54 C 0.41092 0.2142 0.13413 0.0
C55 C 0.35114 0.25951 0.14325 0.0
C56 C 0.0328 0.87571 0.06613 0.0
C57 C 0.97791 0.84108 0.10487 0.0
O58 O 0.03455 0.8797 0.08567 0.0
Zn59 Zn 0.01676 0.87209 0.11347 0.0
O60 O 0.0175 0.86492 0.05983 0.0
Zn61 Zn 0.00494 0.8595 0.08626 0.0
O62 O 0.9907 0.88885 0.09541 0.0
O63 O 0.00756 0.89844 0.12374 0.0
O64 O 0.98143 0.8415 0.08541 0.0
O65 O 0.98967 0.8516 0.11726 0.0
O66 O 0.03687 0.85848 0.13044 0.0
O67 O 0.02818 0.84039 0.10249 0.0
C68 C 0.99354 0.90197 0.11027 0.0
C69 C 0.03887 0.84221 0.11937 0.0
C70 C 0.41213 0.72788 0.35426 0.0
C71 C 0.3774 0.78275 0.31554 0.0
O72 O 0.40157 0.73961 0.36663 0.0
Zn73 Zn 0.38102 0.76664 0.36285 0.0
O74 O 0.41173 0.73138 0.33479 0.0
Zn75 Zn 0.39365 0.75486 0.33564 0.0
O76 O 0.41271 0.7781 0.35192 0.0
O77 O 0.39458 0.78675 0.37986 0.0
O78 O 0.38818 0.76745 0.30921 0.0
O79 O 0.37341 0.78447 0.33509 0.0
O80 O 0.35468 0.75737 0.37309 0.0
O81 O 0.36436 0.74049 0.34481 0.0
C82 C 0.41087 0.78877 0.36881 0.0
C83 C 0.35122 0.74331 0.35965 0.0
C84 C 0.4705 0.12753 0.56565 0.0
C85 C 0.52547 0.1621 0.60439 0.0
O86 O 0.46879 0.12352 0.58519 0.0
Zn87 Zn 0.48664 0.13106 0.61296 0.0
O88 O 0.48581 0.13831 0.55933 0.0
Zn89 Zn 0.49844 0.1437 0.58575 0.0
O90 O 0.51274 0.11437 0.59488 0.0
O91 O 0.49587 0.10469 0.62316 0.0
O92 O 0.52195 0.16173 0.58492 0.0
O93 O 0.51373 0.15155 0.61675 0.0
O94 O 0.46657 0.14463 0.63 0.0
O95 O 0.47524 0.16279 0.60208 0.0
C96 C 0.50991 0.10122 0.60971 0.0
C97 C 0.46459 0.16094 0.61898 0.0
C98 C 0.09136 0.27525 0.85435 0.0
C99 C 0.12603 0.2203 0.8157 0.0
O100 O 0.10189 0.26351 0.86675 0.0
Zn101 Zn 0.1224 0.23643 0.863 0.0
O102 O 0.09178 0.27172 0.83489 0.0
Zn103 Zn 0.10981 0.24821 0.83577 0.0
O104 O 0.09069 0.22502 0.85205 0.0
O105 O 0.1088 0.21635 0.88001 0.0
O106 O 0.11526 0.2356 0.80936 0.0
O107 O 0.13 0.21859 0.83525 0.0
O108 O 0.14875 0.24566 0.87325 0.0
O109 O 0.13913 0.26251 0.84493 0.0
C110 C 0.09251 0.21436 0.86896 0.0
C111 C 0.15225 0.25969 0.85979 0.0
C112 C 0.43768 0.03291 0.12732 0.0
C113 C 0.39898 0.97798 0.16195 0.0
O114 O 0.41813 0.03463 0.12332 0.0
Zn115 Zn 0.39036 0.01679 0.1309 0.0
O116 O 0.444 0.01761 0.1381 0.0
Zn117 Zn 0.41759 0.00501 0.14351 0.0
O118 O 0.40846 0.99073 0.11417 0.0
O119 O 0.38014 0.00757 0.10454 0.0
O120 O 0.41844 0.9815 0.16154 0.0
O121 O 0.38659 0.98972 0.15141 0.0
O122 O 0.37335 0.03688 0.14448 0.0
O123 O 0.40129 0.02821 0.16261 0.0
C124 C 0.39362 0.99356 0.10103 0.0
C125 C 0.38439 0.03887 0.16078 0.0
C126 C 0.22027 0.18723 0.37722 0.0
C127 C 0.27523 0.14861 0.41193 0.0
O128 O 0.21854 0.16767 0.37328 0.0
Zn129 Zn 0.23638 0.13991 0.38093 0.0
O130 O 0.23559 0.19357 0.38797 0.0
Zn131 Zn 0.24819 0.16717 0.39345 0.0
O132 O 0.26245 0.15795 0.36414 0.0
O133 O 0.2456 0.12961 0.35459 0.0
O134 O 0.27171 0.16808 0.41146 0.0
O135 O 0.26347 0.1362 0.40144 0.0
O136 O 0.2163 0.12294 0.39459 0.0
O137 O 0.225 0.15093 0.41263 0.0
C138 C 0.25962 0.14307 0.35105 0.0
C139 C 0.21434 0.13403 0.41086 0.0
C140 C 0.06556 0.97033 0.62737 0.0
C141 C 0.10432 0.02517 0.66209 0.0
O142 O 0.08511 0.96858 0.62341 0.0
Zn143 Zn 0.1129 0.98636 0.63103 0.0
O144 O 0.05924 0.98564 0.63815 0.0
Zn145 Zn 0.08568 0.9982 0.64361 0.0
O146 O 0.09489 0.0125 0.61432 0.0
O147 O 0.12318 0.99559 0.60469 0.0
O148 O 0.08485 0.0217 0.66166 0.0
O149 O 0.11669 0.01341 0.65156 0.0
O150 O 0.12985 0.96624 0.64463 0.0
O151 O 0.10191 0.97496 0.66273 0.0
C152 C 0.10975 0.00966 0.6012 0.0
C153 C 0.11879 0.96427 0.66091 0.0
C154 C 0.2433 0.86005 0.85127 0.0
C155 C 0.28867 0.8693 0.91097 0.0
O156 O 0.24048 0.84522 0.86442 0.0
Zn157 Zn 0.25477 0.83612 0.89376 0.0
O158 O 0.25732 0.87352 0.85475 0.0
Zn159 Zn 0.26655 0.86332 0.88112 0.0
O160 O 0.28439 0.83552 0.87356 0.0
O161 O 0.26735 0.80969 0.88838 0.0
O162 O 0.28665 0.88034 0.89468 0.0
O163 O 0.278 0.85241 0.91283 0.0
O164 O 0.23127 0.83528 0.91179 0.0
O165 O 0.23948 0.86712 0.90162 0.0
C166 C 0.28265 0.81598 0.87759 0.0
C167 C 0.22774 0.85474 0.91217 0.0
C168 C 0.43741 0.97031 0.37591 0.0
C169 C 0.39873 0.02517 0.34117 0.0
O170 O 0.41785 0.96858 0.37988 0.0
Zn171 Zn 0.39009 0.9864 0.37225 0.0
O172 O 0.44374 0.98561 0.36514 0.0
Zn173 Zn 0.41733 0.99819 0.35967 0.0
O174 O 0.40815 0.01251 0.38896 0.0
O175 O 0.37983 0.99567 0.3986 0.0
O176 O 0.41819 0.02167 0.34161 0.0
O177 O 0.38633 0.01343 0.3517 0.0
O178 O 0.37311 0.96627 0.35864 0.0
O179 O 0.40109 0.97494 0.34057 0.0
C180 C 0.39329 0.0097 0.40208 0.0
C181 C 0.3842 0.96427 0.34238 0.0
C182 C 0.24376 0.14322 0.65223 0.0
C183 C 0.28912 0.13418 0.59247 0.0
O184 O 0.24094 0.15809 0.63912 0.0
Zn185 Zn 0.25524 0.16731 0.60982 0.0
O186 O 0.25781 0.12978 0.64872 0.0
Zn187 Zn 0.26705 0.14007 0.62238 0.0
O188 O 0.28489 0.16783 0.63 0.0
O189 O 0.26783 0.19372 0.6153 0.0
O190 O 0.28714 0.12309 0.60874 0.0
O191 O 0.27845 0.15107 0.59068 0.0
O192 O 0.23173 0.16819 0.59179 0.0
O193 O 0.23997 0.13632 0.60186 0.0
C194 C 0.28315 0.18738 0.62604 0.0
C195 C 0.22822 0.14872 0.59135 0.0
C196 C 0.10958 0.99359 0.90213 0.0
C197 C 0.11885 0.03892 0.84239 0.0
O198 O 0.09473 0.9908 0.889 0.0
Zn199 Zn 0.08562 0.0051 0.85967 0.0
O200 O 0.12309 0.00758 0.89863 0.0
Zn201 Zn 0.11287 0.01684 0.87228 0.0
O202 O 0.08514 0.0347 0.87988 0.0
O203 O 0.05923 0.01774 0.8651 0.0
O204 O 0.1299 0.03691 0.85868 0.0
O205 O 0.10194 0.02829 0.84057 0.0
O206 O 0.08473 0.98159 0.84164 0.0
O207 O 0.11659 0.98976 0.85177 0.0
C208 C 0.06558 0.03302 0.8759 0.0
C209 C 0.10419 0.97804 0.84123 0.0
C210 C 0.22044 0.81611 0.12573 0.0
C211 C 0.2753 0.85481 0.091 0.0
O212 O 0.21871 0.83566 0.12972 0.0
Zn213 Zn 0.23652 0.86344 0.12208 0.0
O214 O 0.23573 0.8098 0.11493 0.0
Zn215 Zn 0.24829 0.83621 0.10947 0.0
O216 O 0.26262 0.84536 0.13877 0.0
O217 O 0.24579 0.87369 0.14842 0.0
O218 O 0.27177 0.83535 0.09141 0.0
O219 O 0.26357 0.8672 0.10154 0.0
O220 O 0.21639 0.88043 0.10851 0.0
O221 O 0.22503 0.85246 0.0904 0.0
C222 C 0.25982 0.86022 0.15191 0.0
C223 C 0.21436 0.86935 0.09224 0.0
C224 C 0.16218 0.39878 0.978 0.0
C225 C 0.12752 0.4375 0.03288 0.0
O226 O 0.15163 0.3864 0.98973 0.0
Zn227 Zn 0.1311 0.39018 0.01679 0.0
O228 O 0.16179 0.41825 0.98153 0.0
Zn229 Zn 0.14374 0.41739 0.00501 0.0
O230 O 0.16282 0.4011 0.02824 0.0
O231 O 0.14467 0.37317 0.03689 0.0
O232 O 0.13832 0.44381 0.01759 0.0
O233 O 0.12352 0.41796 0.03461 0.0
O234 O 0.10475 0.37996 0.00753 0.0
O235 O 0.11444 0.40826 0.99068 0.0
C236 C 0.16097 0.3842 0.0389 0.0
C237 C 0.10129 0.39342 0.99349 0.0
C238 C 0.66212 0.10437 0.02512 0.0
C239 C 0.62744 0.06567 0.97022 0.0
O240 O 0.65161 0.11675 0.01336 0.0
Zn241 Zn 0.6311 0.11299 0.98629 0.0
O242 O 0.66169 0.0849 0.02162 0.0
Zn243 Zn 0.64367 0.08576 0.99811 0.0
O244 O 0.66282 0.10201 0.97491 0.0
O245 O 0.64474 0.12996 0.96619 0.0
O246 O 0.63821 0.05934 0.98553 0.0
O247 O 0.62348 0.08522 0.96848 0.0
O248 O 0.60476 0.12328 0.99551 0.0
O249 O 0.61437 0.09498 0.0124 0.0
C250 C 0.66102 0.11889 0.96423 0.0
C251 C 0.60125 0.10984 0.00956 0.0
C252 C 0.14859 0.41199 0.27512 0.0
C253 C 0.1873 0.3773 0.22025 0.0
O254 O 0.1362 0.40149 0.26336 0.0
Zn255 Zn 0.13996 0.38098 0.23628 0.0
O256 O 0.16806 0.41156 0.27162 0.0
Zn257 Zn 0.1672 0.39354 0.24811 0.0
O258 O 0.15098 0.41269 0.22489 0.0
O259 O 0.12301 0.39463 0.21617 0.0
O260 O 0.19362 0.38808 0.23555 0.0
O261 O 0.16775 0.37334 0.21849 0.0
O262 O 0.12967 0.35464 0.24551 0.0
O263 O 0.158 0.36423 0.26237 0.0
C264 C 0.1341 0.4109 0.2142 0.0
C265 C 0.14313 0.35112 0.25954 0.0
C266 C 0.84112 0.89874 0.52506 0.0
C267 C 0.87589 0.93738 0.47019 0.0
O268 O 0.85163 0.88633 0.51332 0.0
Zn269 Zn 0.87217 0.89006 0.48626 0.0
O270 O 0.84157 0.9182 0.52155 0.0
Zn271 Zn 0.85961 0.91731 0.49806 0.0
O272 O 0.84048 0.90109 0.47484 0.0
O273 O 0.85854 0.87311 0.46615 0.0
O274 O 0.86511 0.94372 0.48549 0.0
O275 O 0.87984 0.91782 0.46845 0.0
O276 O 0.8985 0.87976 0.49553 0.0
O277 O 0.8889 0.9081 0.51236 0.0
C278 C 0.84227 0.88419 0.46417 0.0
C279 C 0.90201 0.89322 0.50956 0.0
C280 C 0.86895 0.09239 0.21443 0.0
C281 C 0.85973 0.1521 0.25978 0.0
O282 O 0.85206 0.09055 0.22509 0.0
Zn283 Zn 0.83576 0.10964 0.24829 0.0
O284 O 0.87998 0.10869 0.2164 0.0
Zn285 Zn 0.86297 0.12228 0.23649 0.0
O286 O 0.86676 0.10176 0.26355 0.0
O287 O 0.83492 0.0916 0.27179 0.0
O288 O 0.87318 0.14864 0.24573 0.0
O289 O 0.8449 0.13896 0.26261 0.0
O290 O 0.80933 0.11506 0.2357 0.0
O291 O 0.83519 0.12984 0.21867 0.0
C292 C 0.85439 0.09121 0.27529 0.0
C293 C 0.81564 0.12584 0.22039 0.0
C294 C 0.34143 0.60436 0.47822 0.0
C295 C 0.37621 0.56585 0.53319 0.0
O296 O 0.35192 0.61679 0.48995 0.0
Zn297 Zn 0.37244 0.61313 0.51703 0.0
O298 O 0.34189 0.5849 0.48177 0.0
Zn299 Zn 0.35992 0.58585 0.50527 0.0
O300 O 0.34075 0.60211 0.52844 0.0
O301 O 0.35877 0.63012 0.5371 0.0
O302 O 0.36545 0.55948 0.5179 0.0
O303 O 0.38013 0.58541 0.5349 0.0
O304 O 0.39877 0.62344 0.50776 0.0
O305 O 0.3892 0.59508 0.49096 0.0
C306 C 0.34251 0.61902 0.53908 0.0
C307 C 0.40229 0.60997 0.49375 0.0
C308 C 0.14372 0.65212 0.24359 0.0
C309 C 0.1343 0.59231 0.28879 0.0
O310 O 0.15852 0.63895 0.24075 0.0
Zn311 Zn 0.16757 0.60957 0.25499 0.0
O312 O 0.13023 0.64864 0.2576 0.0
Zn313 Zn 0.14038 0.62223 0.26679 0.0
O314 O 0.16816 0.62968 0.28466 0.0
O315 O 0.19399 0.61487 0.26762 0.0
O316 O 0.1233 0.60864 0.28683 0.0
O317 O 0.1512 0.59046 0.27814 0.0
O318 O 0.1684 0.59159 0.23145 0.0
O319 O 0.13657 0.60179 0.23967 0.0
C320 C 0.1877 0.62563 0.28294 0.0
C321 C 0.14893 0.59124 0.22792 0.0
C322 C 0.35469 0.412 0.72809 0.0
C323 C 0.31589 0.3773 0.78289 0.0
O324 O 0.36706 0.40149 0.73988 0.0
Zn325 Zn 0.36325 0.38097 0.76693 0.0
O326 O 0.33521 0.41154 0.73154 0.0
Zn327 Zn 0.33602 0.39352 0.75505 0.0
O328 O 0.35218 0.41265 0.77831 0.0
O329 O 0.38014 0.39461 0.78708 0.0
O330 O 0.30958 0.38805 0.76757 0.0
O331 O 0.33544 0.37335 0.78467 0.0
O332 O 0.37356 0.35462 0.75773 0.0
O333 O 0.34525 0.3642 0.74082 0.0
C334 C 0.36904 0.41087 0.78904 0.0
C335 C 0.36012 0.3511 0.74368 0.0
C336 C 0.96416 0.84237 0.61898 0.0
C337 C 0.00945 0.90216 0.60988 0.0
O338 O 0.96613 0.85865 0.63004 0.0
Zn339 Zn 0.98622 0.87228 0.61307 0.0
O340 O 0.97485 0.84056 0.6021 0.0
Zn341 Zn 0.99806 0.8597 0.58586 0.0
O342 O 0.02159 0.8417 0.58501 0.0
O343 O 0.01332 0.8518 0.61686 0.0
O344 O 0.0123 0.88903 0.59503 0.0
O345 O 0.99541 0.89865 0.62332 0.0
O346 O 0.96841 0.87984 0.58528 0.0
O347 O 0.9855 0.86511 0.55942 0.0
C348 C 0.02509 0.84129 0.60448 0.0
C349 C 0.97017 0.87586 0.56573 0.0
C350 C 0.87727 0.22017 0.31599 0.0
C351 C 0.91206 0.275 0.35466 0.0
O352 O 0.88804 0.23547 0.30967 0.0
Zn353 Zn 0.89355 0.24801 0.33609 0.0
O354 O 0.87333 0.21841 0.33555 0.0
Zn355 Zn 0.88101 0.2362 0.36332 0.0
O356 O 0.85468 0.24545 0.37364 0.0
O357 O 0.86426 0.26232 0.34532 0.0
O358 O 0.90155 0.26325 0.36707 0.0
O359 O 0.91159 0.2715 0.3352 0.0
O360 O 0.91269 0.22477 0.35228 0.0
O361 O 0.89464 0.21607 0.38026 0.0
C362 C 0.85117 0.2595 0.3602 0.0
C363 C 0.9109 0.21409 0.36917 0.0
C364 C 0.47815 0.16197 0.1044 0.0
C365 C 0.53311 0.12736 0.06571 0.0
O366 O 0.48167 0.16155 0.08494 0.0
Zn367 Zn 0.5052 0.14355 0.08581 0.0
O368 O 0.48991 0.15145 0.11679 0.0
Zn369 Zn 0.51701 0.13097 0.11303 0.0
O370 O 0.53709 0.1446 0.13003 0.0
O371 O 0.52838 0.1627 0.10208 0.0
O372 O 0.53484 0.12338 0.08526 0.0
O373 O 0.5178 0.13812 0.05939 0.0
O374 O 0.49094 0.11422 0.09498 0.0
O375 O 0.50781 0.10461 0.12329 0.0
C376 C 0.53905 0.16089 0.11898 0.0
C377 C 0.49378 0.1011 0.10984 0.0
C378 C 0.62582 0.78267 0.81541 0.0
C379 C 0.59108 0.72783 0.85415 0.0
O380 O 0.61506 0.76736 0.80908 0.0
Zn381 Zn 0.60958 0.75478 0.83551 0.0
O382 O 0.62978 0.7844 0.83497 0.0
Zn383 Zn 0.62217 0.76661 0.86274 0.0
O384 O 0.6485 0.75736 0.87302 0.0
O385 O 0.63888 0.74045 0.84473 0.0
O386 O 0.60161 0.73958 0.86652 0.0
O387 O 0.59152 0.73129 0.83468 0.0
O388 O 0.59047 0.77803 0.85175 0.0
O389 O 0.60857 0.78673 0.8797 0.0
C390 C 0.65199 0.74329 0.85959 0.0
C391 C 0.59229 0.78871 0.86863 0.0
C392 C 0.96441 0.16111 0.88435 0.0
C393 C 0.00963 0.10129 0.89347 0.0
O394 O 0.96634 0.14481 0.87332 0.0
Zn395 Zn 0.98644 0.13119 0.89029 0.0
O396 O 0.97511 0.16293 0.90123 0.0
Zn397 Zn 0.99831 0.14378 0.91748 0.0
O398 O 0.02185 0.16176 0.91829 0.0
O399 O 0.01354 0.15164 0.88646 0.0
O400 O 0.01252 0.11442 0.90831 0.0
O401 O 0.99559 0.10482 0.88004 0.0
O402 O 0.96865 0.12364 0.9181 0.0
O403 O 0.98575 0.1384 0.94393 0.0
C404 C 0.02533 0.16215 0.89882 0.0
C405 C 0.97042 0.12764 0.93764 0.0
C406 C 0.62625 0.22017 0.68757 0.0
C407 C 0.59151 0.27512 0.64898 0.0
O408 O 0.61546 0.23546 0.69391 0.0
Zn409 Zn 0.60999 0.24808 0.66751 0.0
O410 O 0.63022 0.21847 0.66801 0.0
Zn411 Zn 0.62258 0.23633 0.64027 0.0
O412 O 0.64892 0.24561 0.63002 0.0
O413 O 0.63928 0.26242 0.65835 0.0
O414 O 0.60204 0.2634 0.63656 0.0
O415 O 0.59194 0.27156 0.66844 0.0
O416 O 0.59088 0.22489 0.65121 0.0
O417 O 0.60898 0.21626 0.62324 0.0
C418 C 0.65241 0.25963 0.64349 0.0
C419 C 0.59269 0.21425 0.63429 0.0
C420 C 0.53881 0.84234 0.38412 0.0
C421 C 0.49346 0.90207 0.39327 0.0
O422 O 0.53683 0.85863 0.37307 0.0
Zn423 Zn 0.51672 0.87222 0.39005 0.0
O424 O 0.52814 0.84052 0.40101 0.0
Zn425 Zn 0.50491 0.85961 0.41727 0.0
O426 O 0.48141 0.84158 0.41811 0.0
O427 O 0.48967 0.8517 0.38626 0.0
O428 O 0.49063 0.88893 0.40812 0.0
O429 O 0.50748 0.89857 0.37981 0.0
O430 O 0.53451 0.87984 0.41784 0.0
O431 O 0.51748 0.86505 0.4437 0.0
C432 C 0.47791 0.84116 0.39864 0.0
C433 C 0.53277 0.87586 0.43739 0.0
C434 C 0.87708 0.78272 0.18767 0.0
C435 C 0.91191 0.72793 0.14896 0.0
O436 O 0.88783 0.7674 0.194 0.0
Zn437 Zn 0.89334 0.75485 0.16758 0.0
O438 O 0.87314 0.78447 0.16811 0.0
Zn439 Zn 0.8808 0.76668 0.14034 0.0
O440 O 0.85448 0.75742 0.13002 0.0
O441 O 0.86407 0.74053 0.15832 0.0
O442 O 0.90139 0.73968 0.13658 0.0
O443 O 0.91142 0.73138 0.16844 0.0
O444 O 0.91247 0.77812 0.15139 0.0
O445 O 0.89441 0.78683 0.12341 0.0
C446 C 0.85097 0.74337 0.14344 0.0
C447 C 0.91067 0.78881 0.13451 0.0
C448 C 0.60991 0.00952 0.90208 0.0
C449 C 0.61904 0.96419 0.84232 0.0
O450 O 0.62334 0.99546 0.8986 0.0
Zn451 Zn 0.61311 0.98626 0.87222 0.0
O452 O 0.59507 0.01238 0.88894 0.0
Zn453 Zn 0.58592 0.99812 0.8596 0.0
O454 O 0.55947 0.98556 0.86499 0.0
O455 O 0.58531 0.96846 0.87974 0.0
O456 O 0.60216 0.97489 0.8405 0.0
O457 O 0.63009 0.96615 0.85861 0.0
O458 O 0.61695 0.01334 0.85173 0.0
O459 O 0.58512 0.02164 0.84158 0.0
C460 C 0.56576 0.97022 0.87574 0.0
C461 C 0.6046 0.02511 0.8412 0.0
C462 C 0.72785 0.85453 0.59104 0.0
C463 C 0.78274 0.81581 0.62571 0.0
O464 O 0.73135 0.83506 0.59146 0.0
Zn465 Zn 0.75486 0.83591 0.60949 0.0
O466 O 0.7396 0.86691 0.60157 0.0
Zn467 Zn 0.76667 0.86314 0.62208 0.0
O468 O 0.78677 0.88011 0.60847 0.0
O469 O 0.77808 0.85216 0.59038 0.0
O470 O 0.78448 0.83536 0.62968 0.0
O471 O 0.76744 0.80949 0.61493 0.0
O472 O 0.74059 0.84507 0.63881 0.0
O473 O 0.75744 0.87339 0.64843 0.0
C474 C 0.78876 0.86905 0.59219 0.0
C475 C 0.74342 0.85993 0.65193 0.0
C476 C 0.89345 0.99351 0.40206 0.0
C477 C 0.88427 0.03889 0.34238 0.0
O478 O 0.88001 0.00755 0.39859 0.0
Zn479 Zn 0.89024 0.01679 0.37224 0.0
O480 O 0.90829 0.99067 0.38892 0.0
Zn481 Zn 0.91744 0.00498 0.35961 0.0
O482 O 0.94388 0.01755 0.36503 0.0
O483 O 0.91803 0.03459 0.37983 0.0
O484 O 0.90116 0.02822 0.34053 0.0
O485 O 0.87324 0.0369 0.35867 0.0
O486 O 0.88644 0.98973 0.35172 0.0
O487 O 0.91828 0.98149 0.34156 0.0
C488 C 0.93757 0.03285 0.37584 0.0
C489 C 0.89881 0.97798 0.34117 0.0
C490 C 0.77523 0.14874 0.09135 0.0
C491 C 0.72023 0.18741 0.1259 0.0
O492 O 0.7717 0.1682 0.09176 0.0
Zn493 Zn 0.74815 0.16732 0.10973 0.0
O494 O 0.76347 0.13634 0.10185 0.0
Zn495 Zn 0.73634 0.14009 0.1223 0.0
O496 O 0.71628 0.12309 0.10864 0.0
O497 O 0.72499 0.15105 0.09056 0.0
O498 O 0.7185 0.16786 0.12988 0.0
O499 O 0.73556 0.19373 0.11515 0.0
O500 O 0.76239 0.15815 0.13907 0.0
O501 O 0.74553 0.12983 0.14867 0.0
C502 C 0.71433 0.13415 0.09235 0.0
C503 C 0.75955 0.14329 0.15219 0.0
C504 C 0.6193 0.03902 0.66088 0.0
C505 C 0.61011 0.99371 0.60112 0.0
O506 O 0.63037 0.03703 0.6446 0.0
Zn507 Zn 0.61335 0.01696 0.63097 0.0
O508 O 0.60239 0.02838 0.66268 0.0
Zn509 Zn 0.5861 0.00521 0.64355 0.0
O510 O 0.58517 0.9817 0.66156 0.0
O511 O 0.61705 0.98987 0.65148 0.0
O512 O 0.59525 0.99092 0.61423 0.0
O513 O 0.62361 0.0077 0.60462 0.0
O514 O 0.58561 0.03482 0.62333 0.0
O515 O 0.55971 0.01782 0.63809 0.0
C516 C 0.60463 0.97815 0.66199 0.0
C517 C 0.56605 0.03311 0.62729 0.0
C518 C 0.71408 0.8691 0.41077 0.0
C519 C 0.75947 0.85999 0.35107 0.0
O520 O 0.71609 0.88016 0.3945 0.0
Zn521 Zn 0.7362 0.86319 0.3809 0.0
O522 O 0.72475 0.85221 0.41259 0.0
Zn523 Zn 0.74798 0.83596 0.3935 0.0
O524 O 0.77148 0.83508 0.41153 0.0
O525 O 0.76327 0.86694 0.40142 0.0
O526 O 0.76229 0.84513 0.36419 0.0
O527 O 0.74545 0.87345 0.35456 0.0
O528 O 0.71839 0.83542 0.37327 0.0
O529 O 0.73542 0.80954 0.38803 0.0
C530 C 0.77501 0.85454 0.41195 0.0
C531 C 0.72013 0.81586 0.37724 0.0
C532 C 0.89886 0.0252 0.16225 0.0
C533 C 0.93758 0.97029 0.12761 0.0
O534 O 0.91832 0.02168 0.16188 0.0
Zn535 Zn 0.91749 0.9982 0.14381 0.0
O536 O 0.88649 0.01347 0.15169 0.0
Zn537 Zn 0.89027 0.98643 0.13116 0.0
O538 O 0.87325 0.96633 0.14471 0.0
O539 O 0.90118 0.97496 0.16286 0.0
O540 O 0.91803 0.96859 0.1236 0.0
O541 O 0.94391 0.98558 0.1384 0.0
O542 O 0.90838 0.01253 0.1145 0.0
O543 O 0.88008 0.9957 0.1048 0.0
C544 C 0.88429 0.96431 0.161 0.0
C545 C 0.89355 0.00973 0.10134 0.0
C546 C 0.78925 0.13424 0.91107 0.0
C547 C 0.74396 0.14326 0.85126 0.0
O548 O 0.78731 0.12317 0.89479 0.0
Zn549 Zn 0.7672 0.14012 0.88114 0.0
O550 O 0.77855 0.15111 0.91287 0.0
Zn551 Zn 0.75533 0.16733 0.89371 0.0
O552 O 0.7318 0.16816 0.9117 0.0
O553 O 0.7401 0.13631 0.90161 0.0
O554 O 0.7411 0.15811 0.86438 0.0
O555 O 0.75802 0.12983 0.85478 0.0
O556 O 0.78498 0.16792 0.87355 0.0
O557 O 0.76788 0.19376 0.88828 0.0
C558 C 0.72831 0.14869 0.91211 0.0
C559 C 0.78321 0.18747 0.87752 0.0
C560 C 0.8763 0.56616 0.97024 0.0
C561 C 0.84143 0.60467 0.02514 0.0
O562 O 0.86557 0.55979 0.98556 0.0
Zn563 Zn 0.85999 0.58618 0.99813 0.0
O564 O 0.88018 0.58573 0.96849 0.0
Zn565 Zn 0.87244 0.61347 0.98633 0.0
O566 O 0.89875 0.62385 0.9956 0.0
O567 O 0.88925 0.59549 0.01243 0.0
O568 O 0.85189 0.61712 0.0134 0.0
O569 O 0.84196 0.58521 0.02163 0.0
O570 O 0.84078 0.60234 0.97492 0.0
O571 O 0.85873 0.63039 0.96624 0.0
C572 C 0.90231 0.6104 0.00962 0.0
C573 C 0.8425 0.61924 0.96426 0.0
C574 C 0.37621 0.9376 0.03273 0.0
C575 C 0.34131 0.89901 0.97789 0.0
O576 O 0.36545 0.94396 0.01743 0.0
Zn577 Zn 0.3599 0.91756 0.00484 0.0
O578 O 0.38012 0.91803 0.03446 0.0
Zn579 Zn 0.37242 0.8903 0.01663 0.0
O580 O 0.39873 0.87996 0.00734 0.0
O581 O 0.38916 0.90829 0.99049 0.0
O582 O 0.35183 0.88659 0.98962 0.0
O583 O 0.34182 0.91848 0.98137 0.0
O584 O 0.34077 0.90135 0.02808 0.0
O585 O 0.35879 0.87335 0.03675 0.0
C586 C 0.40224 0.8934 0.9933 0.0
C587 C 0.34254 0.88446 0.03874 0.0
C588 C 0.85444 0.59134 0.72797 0.0
C589 C 0.81569 0.62582 0.78295 0.0
O590 O 0.83498 0.59169 0.7315 0.0
Zn591 Zn 0.83581 0.60971 0.75501 0.0
O592 O 0.86681 0.6019 0.73971 0.0
Zn593 Zn 0.863 0.62239 0.76679 0.0
O594 O 0.88008 0.60883 0.78685 0.0
O595 O 0.85218 0.59064 0.7782 0.0
O596 O 0.83523 0.62987 0.78467 0.0
O597 O 0.80939 0.61505 0.76764 0.0
O598 O 0.84487 0.63906 0.74071 0.0
O599 O 0.87315 0.64878 0.75757 0.0
C600 C 0.86908 0.59251 0.78884 0.0
C601 C 0.85968 0.65223 0.74354 0.0
C602 C 0.12742 0.06579 0.53309 0.0
C603 C 0.16216 0.1044 0.47816 0.0
O604 O 0.13821 0.05945 0.5178 0.0
Zn605 Zn 0.14369 0.08584 0.5052 0.0
O606 O 0.12346 0.08534 0.5348 0.0
Zn607 Zn 0.13112 0.11309 0.51697 0.0
O608 O 0.10478 0.12337 0.5077 0.0
O609 O 0.1144 0.09503 0.49088 0.0
O610 O 0.15164 0.11681 0.48989 0.0
O611 O 0.16173 0.08494 0.4817 0.0
O612 O 0.16282 0.1021 0.52841 0.0
O613 O 0.14475 0.13008 0.53706 0.0
C614 C 0.10129 0.1099 0.49367 0.0
C615 C 0.16102 0.11901 0.53906 0.0
C616 C 0.1872 0.87737 0.78304 0.0
C617 C 0.14851 0.91198 0.7281 0.0
O618 O 0.19352 0.88813 0.76773 0.0
Zn619 Zn 0.16711 0.89355 0.75513 0.0
O620 O 0.16765 0.87337 0.78476 0.0
Zn621 Zn 0.13988 0.88094 0.76691 0.0
O622 O 0.12967 0.85457 0.75767 0.0
O623 O 0.15798 0.86423 0.74084 0.0
O624 O 0.13612 0.90144 0.73984 0.0
O625 O 0.16797 0.91158 0.73162 0.0
O626 O 0.15082 0.91265 0.77832 0.0
O627 O 0.12286 0.89455 0.78699 0.0
C628 C 0.14314 0.85109 0.74365 0.0
C629 C 0.13392 0.91084 0.78898 0.0
C630 C 0.62748 0.43749 0.47053 0.0
C631 C 0.66219 0.39881 0.52542 0.0
O632 O 0.63826 0.44382 0.48583 0.0
Zn633 Zn 0.6437 0.41741 0.49843 0.0
O634 O 0.62349 0.41794 0.46881 0.0
Zn635 Zn 0.63109 0.39018 0.48666 0.0
O636 O 0.60474 0.37995 0.49594 0.0
O637 O 0.61442 0.40825 0.51279 0.0
O638 O 0.65164 0.38642 0.5137 0.0
O639 O 0.66178 0.41828 0.5219 0.0
O640 O 0.66279 0.40112 0.47521 0.0
O641 O 0.64467 0.37317 0.46656 0.0
C642 C 0.60128 0.3934 0.50999 0.0
C643 C 0.66095 0.38422 0.46455 0.0
C644 C 0.86007 0.35137 0.75979 0.0
C645 C 0.86921 0.41111 0.71445 0.0
O646 O 0.87354 0.35487 0.74577 0.0
Zn647 Zn 0.86329 0.38122 0.73654 0.0
O648 O 0.84522 0.3645 0.76262 0.0
Zn649 Zn 0.83607 0.39383 0.74835 0.0
O650 O 0.80964 0.3884 0.73577 0.0
O651 O 0.83551 0.37362 0.71874 0.0
O652 O 0.85232 0.41293 0.72513 0.0
O653 O 0.88027 0.39483 0.71643 0.0
O654 O 0.86708 0.40173 0.7636 0.0
O655 O 0.83524 0.41186 0.77186 0.0
C656 C 0.81596 0.3776 0.72047 0.0
C657 C 0.8547 0.41227 0.77536 0.0
C658 C 0.63427 0.59225 0.21446 0.0
C659 C 0.6434 0.65209 0.25964 0.0
O660 O 0.62319 0.60852 0.21643 0.0
Zn661 Zn 0.6402 0.62218 0.23647 0.0
O662 O 0.65118 0.59047 0.22511 0.0
Zn663 Zn 0.66745 0.60965 0.24827 0.0
O664 O 0.66834 0.59167 0.27182 0.0
O665 O 0.63647 0.60172 0.26358 0.0
O666 O 0.65827 0.63899 0.26249 0.0
O667 O 0.62993 0.64855 0.24563 0.0
O668 O 0.66794 0.62975 0.21858 0.0
O669 O 0.69385 0.61507 0.23563 0.0
C670 C 0.64888 0.59123 0.27534 0.0
C671 C 0.68749 0.62579 0.2203 0.0
C672 C 0.49321 0.60123 0.89342 0.0
C673 C 0.53863 0.66087 0.8841 0.0
O674 O 0.49042 0.61439 0.90826 0.0
Zn675 Zn 0.50478 0.6437 0.91735 0.0
O676 O 0.50724 0.60468 0.87995 0.0
Zn677 Zn 0.51652 0.63103 0.89014 0.0
O678 O 0.53438 0.62345 0.9179 0.0
O679 O 0.5174 0.63828 0.94376 0.0
O680 O 0.5366 0.64457 0.87308 0.0
O681 O 0.528 0.66274 0.901 0.0
O682 O 0.4813 0.66177 0.91821 0.0
O683 O 0.48946 0.65157 0.88637 0.0
C684 C 0.53268 0.62747 0.93744 0.0
C685 C 0.47774 0.66214 0.89875 0.0
C686 C 0.59125 0.2281 0.14879 0.0
C687 C 0.62593 0.28297 0.18753 0.0
O688 O 0.60178 0.23985 0.13642 0.0
Zn689 Zn 0.6223 0.26692 0.1402 0.0
O690 O 0.59166 0.2316 0.16826 0.0
Zn691 Zn 0.6097 0.2551 0.16742 0.0
O692 O 0.59058 0.27832 0.15116 0.0
O693 O 0.60869 0.28702 0.12322 0.0
O694 O 0.61515 0.26767 0.19384 0.0
O695 O 0.62991 0.28472 0.16798 0.0
O696 O 0.64865 0.25767 0.12994 0.0
O697 O 0.639 0.24079 0.15823 0.0
C698 C 0.5924 0.28899 0.13427 0.0
C699 C 0.65213 0.24361 0.14338 0.0
C700 C 0.97043 0.37575 0.43748 0.0
C701 C 0.02533 0.34114 0.39871 0.0
O702 O 0.96866 0.37971 0.41793 0.0
Zn703 Zn 0.98645 0.37212 0.39013 0.0
O704 O 0.98576 0.36501 0.44379 0.0
Zn705 Zn 0.99832 0.35957 0.41735 0.0
O706 O 0.01253 0.38892 0.40814 0.0
O707 O 0.99562 0.39847 0.37983 0.0
O708 O 0.02186 0.34158 0.41819 0.0
O709 O 0.01354 0.35164 0.38634 0.0
O710 O 0.96635 0.35846 0.37319 0.0
O711 O 0.9751 0.3404 0.40115 0.0
C712 C 0.00965 0.40202 0.39327 0.0
C713 C 0.9644 0.34219 0.38427 0.0
C714 C 0.91179 0.77523 0.64865 0.0
C715 C 0.87709 0.72035 0.68735 0.0
O716 O 0.90128 0.76348 0.63626 0.0
Zn717 Zn 0.88075 0.73641 0.64002 0.0
O718 O 0.91136 0.77172 0.66812 0.0
Zn719 Zn 0.89333 0.74822 0.66725 0.0
O720 O 0.91246 0.72501 0.651 0.0
O721 O 0.89436 0.71631 0.62305 0.0
O722 O 0.88787 0.73566 0.69367 0.0
O723 O 0.87313 0.7186 0.6678 0.0
O724 O 0.85441 0.74565 0.62975 0.0
O725 O 0.86402 0.76252 0.65806 0.0
C726 C 0.91064 0.71434 0.63411 0.0
C727 C 0.8509 0.75968 0.6432 0.0
C728 C 0.5332 0.37596 0.56624 0.0
C729 C 0.47826 0.34132 0.60491 0.0
O730 O 0.53496 0.37991 0.58579 0.0
Zn731 Zn 0.51713 0.37228 0.61358 0.0
O732 O 0.51787 0.36522 0.55992 0.0
Zn733 Zn 0.5053 0.35976 0.58633 0.0
O734 O 0.49108 0.3891 0.59555 0.0
O735 O 0.50794 0.39864 0.62389 0.0
O736 O 0.48177 0.34178 0.58544 0.0
O737 O 0.49003 0.3518 0.61732 0.0
O738 O 0.53723 0.35861 0.63053 0.0
O739 O 0.52851 0.34059 0.60254 0.0
C740 C 0.49393 0.40219 0.61043 0.0
C741 C 0.53919 0.34235 0.61943 0.0
C742 C 0.91215 0.22828 0.85456 0.0
C743 C 0.8774 0.28312 0.81584 0.0
O744 O 0.90162 0.24002 0.86694 0.0
Zn745 Zn 0.88107 0.26706 0.86317 0.0
O746 O 0.91171 0.23176 0.83509 0.0
Zn747 Zn 0.89365 0.25524 0.83594 0.0
O748 O 0.91275 0.27849 0.85215 0.0
O749 O 0.89469 0.28719 0.88012 0.0
O750 O 0.88816 0.2678 0.80952 0.0
O751 O 0.87344 0.28486 0.8354 0.0
O752 O 0.85473 0.2578 0.87345 0.0
O753 O 0.86437 0.24092 0.84516 0.0
C754 C 0.91096 0.28918 0.86903 0.0
C755 C 0.85125 0.24374 0.86002 0.0
C756 C 0.97052 0.62779 0.06576 0.0
C757 C 0.02549 0.66225 0.10456 0.0
O758 O 0.9688 0.62373 0.08529 0.0
Zn759 Zn 0.98665 0.63121 0.11309 0.0
O760 O 0.98583 0.63857 0.05946 0.0
Zn761 Zn 0.99844 0.64389 0.0859 0.0
O762 O 0.01272 0.61452 0.09496 0.0
O763 O 0.99586 0.60482 0.12324 0.0
O764 O 0.02196 0.66191 0.0851 0.0
O765 O 0.01374 0.65169 0.11692 0.0
O766 O 0.96657 0.64476 0.13014 0.0
O767 O 0.97522 0.66295 0.10224 0.0
C768 C 0.00988 0.60135 0.10977 0.0
C769 C 0.96456 0.66107 0.11913 0.0
C770 C 0.5911 0.77519 0.35433 0.0
C771 C 0.62584 0.72033 0.31564 0.0
O772 O 0.60165 0.76346 0.36672 0.0
Zn773 Zn 0.62219 0.73642 0.36295 0.0
O774 O 0.59152 0.77168 0.33487 0.0
Zn775 Zn 0.60958 0.7482 0.33572 0.0
O776 O 0.5905 0.72496 0.35199 0.0
O777 O 0.60862 0.71631 0.37994 0.0
O778 O 0.61504 0.73561 0.30931 0.0
O779 O 0.62982 0.71861 0.33519 0.0
O780 O 0.64853 0.74568 0.3732 0.0
O781 O 0.63888 0.76252 0.34489 0.0
C782 C 0.59234 0.71429 0.36889 0.0
C783 C 0.65201 0.75971 0.35974 0.0
C784 C 0.89889 0.47822 0.66205 0.0
C785 C 0.9375 0.5331 0.62724 0.0
O786 O 0.88648 0.48993 0.65151 0.0
Zn787 Zn 0.8902 0.51696 0.63094 0.0
O788 O 0.91835 0.48175 0.66161 0.0
Zn789 Zn 0.91745 0.50522 0.64354 0.0
O790 O 0.90117 0.52845 0.66262 0.0
O791 O 0.8732 0.53707 0.64452 0.0
O792 O 0.94385 0.51783 0.63805 0.0
O793 O 0.91794 0.5348 0.62328 0.0
O794 O 0.87995 0.50766 0.60461 0.0
O795 O 0.90829 0.49086 0.61426 0.0
C796 C 0.88426 0.53909 0.66079 0.0
C797 C 0.89343 0.49364 0.60113 0.0
C798 C 0.75956 0.64308 0.85119 0.0
C799 C 0.71419 0.63398 0.91092 0.0
O800 O 0.76235 0.65797 0.86428 0.0
Zn801 Zn 0.74802 0.66716 0.89358 0.0
O802 O 0.74556 0.62959 0.85471 0.0
Zn803 Zn 0.7363 0.63989 0.88103 0.0
O804 O 0.71842 0.66762 0.87335 0.0
O805 O 0.7354 0.69354 0.88807 0.0
O806 O 0.71622 0.62289 0.89467 0.0
O807 O 0.72482 0.6509 0.91271 0.0
O808 O 0.77152 0.66811 0.91162 0.0
O809 O 0.76339 0.63622 0.90155 0.0
C810 C 0.72012 0.68718 0.87729 0.0
C811 C 0.7751 0.64866 0.91206 0.0
C812 C 0.60454 0.52507 0.16218 0.0
C813 C 0.56584 0.47018 0.12752 0.0
O814 O 0.61693 0.51335 0.15163 0.0
Zn815 Zn 0.61316 0.48629 0.1311 0.0
O816 O 0.58508 0.52155 0.16177 0.0
Zn817 Zn 0.58594 0.49807 0.14372 0.0
O818 O 0.60224 0.47486 0.16281 0.0
O819 O 0.63018 0.46619 0.14469 0.0
O820 O 0.55953 0.48548 0.13831 0.0
O821 O 0.58539 0.46845 0.12352 0.0
O822 O 0.62337 0.49556 0.10473 0.0
O823 O 0.59506 0.51239 0.11441 0.0
C824 C 0.61914 0.4642 0.16099 0.0
C825 C 0.6099 0.50958 0.10126 0.0
C826 C 0.78299 0.31564 0.37764 0.0
C827 C 0.72808 0.35439 0.41225 0.0
O828 O 0.78473 0.33518 0.37365 0.0
Zn829 Zn 0.76691 0.36297 0.38121 0.0
O830 O 0.76767 0.30933 0.3884 0.0
Zn831 Zn 0.75509 0.33576 0.39381 0.0
O832 O 0.74082 0.34492 0.36448 0.0
O833 O 0.7577 0.37321 0.35485 0.0
O834 O 0.73158 0.33492 0.41184 0.0
O835 O 0.73984 0.36676 0.40172 0.0
O836 O 0.78702 0.37995 0.39482 0.0
O837 O 0.77832 0.35202 0.41293 0.0
C838 C 0.74367 0.35977 0.35135 0.0
C839 C 0.78899 0.3689 0.41111 0.0
C840 C 0.88456 0.4646 0.84244 0.0
C841 C 0.89381 0.51003 0.90209 0.0
O842 O 0.90145 0.47527 0.84058 0.0
Zn843 Zn 0.91776 0.49851 0.85963 0.0
O844 O 0.87353 0.4666 0.85874 0.0
Zn845 Zn 0.89055 0.48672 0.87229 0.0
O846 O 0.88674 0.51374 0.85174 0.0
O847 O 0.91856 0.52199 0.84155 0.0
O848 O 0.88036 0.49598 0.89865 0.0
O849 O 0.90863 0.51286 0.88894 0.0
O850 O 0.94419 0.48592 0.86504 0.0
O851 O 0.91833 0.4689 0.87984 0.0
C852 C 0.89909 0.52548 0.84116 0.0
C853 C 0.93787 0.47062 0.87583 0.0
C854 C 0.78281 0.68726 0.12582 0.0
C855 C 0.7279 0.64861 0.09109 0.0
O856 O 0.78454 0.66771 0.12976 0.0
Zn857 Zn 0.76673 0.63994 0.12211 0.0
O858 O 0.76751 0.69361 0.11505 0.0
Zn859 Zn 0.75493 0.66719 0.10956 0.0
O860 O 0.74066 0.65798 0.13887 0.0
O861 O 0.7575 0.62964 0.14844 0.0
O862 O 0.73141 0.66807 0.09153 0.0
O863 O 0.73965 0.63621 0.10159 0.0
O864 O 0.78684 0.62299 0.10846 0.0
O865 O 0.77817 0.65099 0.09044 0.0
C866 C 0.74348 0.64311 0.15197 0.0
C867 C 0.78884 0.6341 0.09222 0.0
C868 C 0.56596 0.5329 0.37604 0.0
C869 C 0.60469 0.478 0.34139 0.0
O870 O 0.58551 0.53464 0.38002 0.0
Zn871 Zn 0.6133 0.51682 0.37242 0.0
O872 O 0.55965 0.51758 0.36527 0.0
Zn873 Zn 0.58608 0.50501 0.35984 0.0
O874 O 0.59525 0.49073 0.38916 0.0
O875 O 0.62356 0.5076 0.39878 0.0
O876 O 0.58522 0.4815 0.34181 0.0
O877 O 0.61708 0.48975 0.35191 0.0
O878 O 0.63028 0.53693 0.35881 0.0
O879 O 0.60233 0.52823 0.34072 0.0
C880 C 0.6101 0.49356 0.40228 0.0
C881 C 0.61921 0.53891 0.34253 0.0
C882 C 0.75985 0.36001 0.65233 0.0
C883 C 0.71453 0.36908 0.59257 0.0
O884 O 0.76269 0.34515 0.63922 0.0
Zn885 Zn 0.74842 0.33595 0.60991 0.0
O886 O 0.7458 0.37345 0.64882 0.0
Zn887 Zn 0.7366 0.36317 0.62247 0.0
O888 O 0.71878 0.33539 0.63007 0.0
O889 O 0.73586 0.30953 0.61535 0.0
O890 O 0.71651 0.38015 0.60885 0.0
O891 O 0.72521 0.35219 0.59076 0.0
O892 O 0.77194 0.33508 0.59189 0.0
O893 O 0.76368 0.36694 0.60197 0.0
C894 C 0.72053 0.31584 0.6261 0.0
C895 C 0.77544 0.35454 0.59146 0.0
C896 C 0.66175 0.89885 0.4779 0.0
C897 C 0.62724 0.9376 0.53285 0.0
O898 O 0.65123 0.88647 0.48967 0.0
Zn899 Zn 0.63075 0.89027 0.51676 0.0
O900 O 0.66134 0.91831 0.4814 0.0
Zn901 Zn 0.64335 0.91747 0.50492 0.0
O902 O 0.66249 0.9012 0.52811 0.0
O903 O 0.64437 0.87327 0.53684 0.0
O904 O 0.63796 0.9439 0.5175 0.0
O905 O 0.62324 0.91806 0.5346 0.0
O906 O 0.60438 0.88004 0.50758 0.0
O907 O 0.61401 0.90831 0.49067 0.0
C908 C 0.66067 0.88431 0.53879 0.0
C909 C 0.60088 0.89347 0.49353 0.0
C910 C 0.16185 0.60454 0.52498 0.0
C911 C 0.12711 0.56588 0.47009 0.0
O912 O 0.15137 0.61695 0.51321 0.0
Zn913 Zn 0.13086 0.61321 0.48613 0.0
O914 O 0.16136 0.58507 0.52151 0.0
Zn915 Zn 0.14335 0.58596 0.49798 0.0
O916 O 0.16255 0.60213 0.47478 0.0
O917 O 0.14455 0.63013 0.46603 0.0
O918 O 0.13785 0.55955 0.48543 0.0
O919 O 0.1232 0.58544 0.46833 0.0
O920 O 0.10452 0.62356 0.49534 0.0
O921 O 0.11406 0.59524 0.51223 0.0
C922 C 0.1608 0.61902 0.46409 0.0
C923 C 0.10098 0.61012 0.50939 0.0
C924 C 0.63417 0.91086 0.71425 0.0
C925 C 0.64321 0.85099 0.75945 0.0
O926 O 0.65107 0.91262 0.72493 0.0
Zn927 Zn 0.66729 0.89343 0.74811 0.0
O928 O 0.62308 0.8946 0.7162 0.0
Zn929 Zn 0.64003 0.88091 0.73627 0.0
O930 O 0.6363 0.90137 0.76338 0.0
O931 O 0.66817 0.9114 0.77166 0.0
O932 O 0.62974 0.85455 0.74544 0.0
O933 O 0.65808 0.86408 0.7623 0.0
O934 O 0.6937 0.88799 0.73551 0.0
O935 O 0.6678 0.87332 0.71844 0.0
C936 C 0.6487 0.91185 0.77516 0.0
C937 C 0.68736 0.87726 0.72018 0.0
C938 C 0.34116 0.39873 0.02535 0.0
C939 C 0.37572 0.43755 0.97048 0.0
O940 O 0.3517 0.38638 0.01359 0.0
Zn941 Zn 0.3722 0.39021 0.98652 0.0
O942 O 0.34155 0.4182 0.02186 0.0
Zn943 Zn 0.35957 0.4174 0.99836 0.0
O944 O 0.34048 0.40114 0.97512 0.0
O945 O 0.35862 0.37322 0.96641 0.0
O946 O 0.36496 0.44384 0.9858 0.0
O947 O 0.37974 0.41801 0.96873 0.0
O948 O 0.39858 0.37999 0.99573 0.0
O949 O 0.38891 0.40826 0.01263 0.0
C950 C 0.34233 0.38426 0.96443 0.0
C951 C 0.40206 0.39343 0.00978 0.0
C952 C 0.31543 0.62582 0.72026 0.0
C953 C 0.35404 0.59124 0.77528 0.0
O954 O 0.33497 0.62985 0.71859 0.0
Zn955 Zn 0.3627 0.62231 0.7365 0.0
O956 O 0.30909 0.61503 0.73554 0.0
Zn957 Zn 0.33548 0.60965 0.74822 0.0
O958 O 0.34454 0.63898 0.76256 0.0
O959 O 0.37286 0.64868 0.74576 0.0
O960 O 0.33459 0.59161 0.77172 0.0
O961 O 0.36644 0.6018 0.76358 0.0
O962 O 0.3798 0.60876 0.71646 0.0
O963 O 0.35188 0.59057 0.72506 0.0
C964 C 0.35936 0.65214 0.75977 0.0
C965 C 0.36881 0.59244 0.71445 0.0
C966 C 0.84151 0.1046 0.97832 0.0
C967 C 0.8762 0.06592 0.03321 0.0
O968 O 0.852 0.117 0.99008 0.0
Zn969 Zn 0.87251 0.11325 0.01716 0.0
O970 O 0.84195 0.08513 0.98182 0.0
Zn971 Zn 0.85997 0.08602 0.00533 0.0
O972 O 0.8408 0.10223 0.02854 0.0
O973 O 0.85884 0.1302 0.03727 0.0
O974 O 0.86545 0.0596 0.01789 0.0
O975 O 0.88014 0.08548 0.03497 0.0
O976 O 0.89885 0.12356 0.00794 0.0
O977 O 0.88926 0.09526 0.99106 0.0
C978 C 0.84258 0.11911 0.03922 0.0
C979 C 0.90236 0.11013 0.99389 0.0
C980 C 0.64378 0.15203 0.7437 0.0
C981 C 0.63455 0.09228 0.78902 0.0
O982 O 0.65862 0.13889 0.74087 0.0
Zn983 Zn 0.66775 0.10956 0.75517 0.0
O984 O 0.63032 0.14855 0.75774 0.0
Zn985 Zn 0.64054 0.12218 0.76696 0.0
O986 O 0.66831 0.12974 0.7848 0.0
O987 O 0.69418 0.11496 0.76778 0.0
O988 O 0.62352 0.10859 0.78704 0.0
O989 O 0.65144 0.09044 0.77835 0.0
O990 O 0.6686 0.09154 0.73165 0.0
O991 O 0.63676 0.1017 0.73988 0.0
C992 C 0.68786 0.12574 0.78308 0.0
C993 C 0.64914 0.09116 0.72813 0.0
C994 C 0.85975 0.85101 0.24368 0.0
C995 C 0.86897 0.9108 0.28894 0.0
O996 O 0.84492 0.86416 0.24083 0.0
Zn997 Zn 0.83581 0.89351 0.25506 0.0
O998 O 0.87322 0.85451 0.2577 0.0
Zn999 Zn 0.86301 0.88089 0.26689 0.0
O1000 O 0.83521 0.87336 0.2847 0.0
O1001 O 0.80937 0.88814 0.26763 0.0
O1002 O 0.88001 0.8945 0.28699 0.0
O1003 O 0.85209 0.91263 0.27826 0.0
O1004 O 0.83498 0.91151 0.23153 0.0
O1005 O 0.86682 0.90138 0.23981 0.0
C1006 C 0.81567 0.87737 0.28295 0.0
C1007 C 0.85445 0.91191 0.22804 0.0
C1008 C 0.52518 0.34122 0.10452 0.0
C1009 C 0.47026 0.37594 0.06586 0.0
O1010 O 0.52167 0.34165 0.08505 0.0
Zn1011 Zn 0.49816 0.35968 0.08593 0.0
O1012 O 0.51343 0.35173 0.11691 0.0
Zn1013 Zn 0.48635 0.37224 0.11317 0.0
O1014 O 0.46626 0.35861 0.13014 0.0
O1015 O 0.47495 0.34055 0.10217 0.0
O1016 O 0.46853 0.37988 0.08542 0.0
O1017 O 0.48557 0.36517 0.05952 0.0
O1018 O 0.51246 0.38897 0.09515 0.0
O1019 O 0.4956 0.39858 0.12346 0.0
C1020 C 0.46428 0.34234 0.11906 0.0
C1021 C 0.50964 0.40208 0.11002 0.0
C1022 C 0.37677 0.72032 0.81588 0.0
C1023 C 0.41164 0.7752 0.85441 0.0
O1024 O 0.38752 0.73562 0.80953 0.0
Zn1025 Zn 0.39308 0.7482 0.83591 0.0
O1026 O 0.37286 0.71858 0.83545 0.0
Zn1027 Zn 0.38057 0.73643 0.86318 0.0
O1028 O 0.35427 0.74572 0.87353 0.0
O1029 O 0.36382 0.76255 0.84518 0.0
O1030 O 0.40114 0.76348 0.86685 0.0
O1031 O 0.41113 0.77168 0.83495 0.0
O1032 O 0.41224 0.72499 0.85213 0.0
O1033 O 0.39422 0.71634 0.88015 0.0
C1034 C 0.35075 0.75975 0.86008 0.0
C1035 C 0.41047 0.71434 0.86904 0.0
C1036 C 0.97787 0.66216 0.60428 0.0
C1037 C 0.03281 0.62763 0.56551 0.0
O1038 O 0.98137 0.66178 0.58482 0.0
Zn1039 Zn 0.00491 0.64378 0.58564 0.0
O1040 O 0.98964 0.65164 0.61665 0.0
Zn1041 Zn 0.01674 0.63117 0.61285 0.0
O1042 O 0.03683 0.64478 0.62984 0.0
O1043 O 0.02811 0.66291 0.60192 0.0
O1044 O 0.03455 0.62362 0.58506 0.0
O1045 O 0.01749 0.63839 0.55921 0.0
O1046 O 0.99066 0.61443 0.5948 0.0
O1047 O 0.00757 0.60481 0.62308 0.0
C1048 C 0.03879 0.66108 0.6188 0.0
C1049 C 0.99353 0.6013 0.60964 0.0
C1050 C 0.12586 0.28283 0.3156 0.0
C1051 C 0.09125 0.22791 0.35434 0.0
O1052 O 0.1151 0.26751 0.30928 0.0
Zn1053 Zn 0.10969 0.25491 0.33571 0.0
O1054 O 0.12987 0.28456 0.33514 0.0
Zn1055 Zn 0.12232 0.26672 0.36292 0.0
O1056 O 0.14869 0.25747 0.37313 0.0
O1057 O 0.13901 0.24059 0.34486 0.0
O1058 O 0.1018 0.23966 0.36671 0.0
O1059 O 0.09164 0.23142 0.33487 0.0
O1060 O 0.0906 0.27813 0.352 0.0
O1061 O 0.10874 0.28681 0.37993 0.0
C1062 C 0.15215 0.24341 0.35969 0.0
C1063 C 0.09244 0.2888 0.36889 0.0
C1064 C 0.52527 0.66193 0.39871 0.0
C1065 C 0.47039 0.62735 0.43751 0.0
O1066 O 0.52177 0.66155 0.41818 0.0
Zn1067 Zn 0.49828 0.64351 0.41736 0.0
O1068 O 0.51353 0.65138 0.38635 0.0
Zn1069 Zn 0.48646 0.63086 0.39017 0.0
O1070 O 0.46636 0.64443 0.37315 0.0
O1071 O 0.47506 0.66259 0.40105 0.0
O1072 O 0.46865 0.62333 0.41797 0.0
O1073 O 0.48571 0.63814 0.44379 0.0
O1074 O 0.51259 0.61419 0.40825 0.0
O1075 O 0.49571 0.60448 0.37998 0.0
C1076 C 0.46439 0.66074 0.38416 0.0
C1077 C 0.50976 0.60103 0.39342 0.0
C1078 C 0.12637 0.7204 0.18757 0.0
C1079 C 0.09149 0.77524 0.14898 0.0
O1080 O 0.11561 0.7357 0.19392 0.0
Zn1081 Zn 0.11007 0.74828 0.16752 0.0
O1082 O 0.1303 0.71867 0.16801 0.0
Zn1083 Zn 0.12262 0.7365 0.14027 0.0
O1084 O 0.14893 0.7458 0.12996 0.0
O1085 O 0.13932 0.76266 0.15827 0.0
O1086 O 0.10201 0.76352 0.13656 0.0
O1087 O 0.09199 0.77173 0.16845 0.0
O1088 O 0.09095 0.72504 0.15128 0.0
O1089 O 0.10902 0.71639 0.1233 0.0
C1090 C 0.15242 0.75986 0.14339 0.0
C1091 C 0.09275 0.71439 0.13438 0.0
C1092 C 0.97819 0.34146 0.89863 0.0
C1093 C 0.03317 0.37603 0.93729 0.0
O1094 O 0.98172 0.34189 0.91809 0.0
Zn1095 Zn 0.00526 0.35986 0.9172 0.0
O1096 O 0.98996 0.35195 0.88622 0.0
Zn1097 Zn 0.01708 0.37241 0.88997 0.0
O1098 O 0.03715 0.35875 0.87298 0.0
O1099 O 0.02844 0.34069 0.90095 0.0
O1100 O 0.03492 0.38 0.91774 0.0
O1101 O 0.01785 0.36528 0.94361 0.0
O1102 O 0.99104 0.38921 0.90803 0.0
O1103 O 0.00789 0.39878 0.8797 0.0
C1104 C 0.03911 0.34248 0.88405 0.0
C1105 C 0.99388 0.40232 0.89317 0.0
C1106 C 0.37755 0.28284 0.68766 0.0
C1107 C 0.41227 0.22801 0.6489 0.0
O1108 O 0.38831 0.26753 0.69398 0.0
Zn1109 Zn 0.39378 0.25497 0.66755 0.0
O1110 O 0.37358 0.28458 0.66811 0.0
Zn1111 Zn 0.3812 0.2668 0.64032 0.0
O1112 O 0.35485 0.25755 0.63005 0.0
O1113 O 0.36448 0.24067 0.65835 0.0
O1114 O 0.40174 0.23977 0.63653 0.0
O1115 O 0.41183 0.23147 0.66838 0.0
O1116 O 0.41288 0.27822 0.65135 0.0
O1117 O 0.39482 0.28694 0.62338 0.0
C1118 C 0.35136 0.2435 0.64349 0.0
C1119 C 0.41108 0.28892 0.63447 0.0
C1120 C 0.10969 0.50973 0.40195 0.0
C1121 C 0.11885 0.46432 0.34226 0.0
O1122 O 0.12315 0.4957 0.39847 0.0
Zn1123 Zn 0.11292 0.48643 0.37213 0.0
O1124 O 0.09484 0.51254 0.38881 0.0
Zn1125 Zn 0.08568 0.49822 0.35951 0.0
O1126 O 0.05927 0.48561 0.36496 0.0
O1127 O 0.08516 0.46861 0.37973 0.0
O1128 O 0.10196 0.47499 0.34043 0.0
O1129 O 0.12991 0.46632 0.35854 0.0
O1130 O 0.11669 0.51346 0.35159 0.0
O1131 O 0.08485 0.52171 0.34144 0.0
C1132 C 0.06561 0.47032 0.37575 0.0
C1133 C 0.10432 0.52521 0.34103 0.0
C1134 C 0.22802 0.35434 0.09128 0.0
C1135 C 0.2829 0.31559 0.12594 0.0
O1136 O 0.23151 0.33487 0.0917 0.0
Zn1137 Zn 0.255 0.33571 0.10975 0.0
O1138 O 0.23977 0.36671 0.10183 0.0
Zn1139 Zn 0.26681 0.36292 0.12237 0.0
O1140 O 0.28692 0.37991 0.10879 0.0
O1141 O 0.27823 0.35198 0.09065 0.0
O1142 O 0.28463 0.33514 0.12994 0.0
O1143 O 0.26758 0.30928 0.11517 0.0
O1144 O 0.24068 0.34487 0.13905 0.0
O1145 O 0.25757 0.37315 0.14872 0.0
C1146 C 0.2889 0.36887 0.09249 0.0
C1147 C 0.24351 0.35971 0.15219 0.0
C1148 C 0.38378 0.53899 0.8425 0.0
C1149 C 0.39296 0.4937 0.90227 0.0
O1150 O 0.37271 0.53699 0.85877 0.0
Zn1151 Zn 0.38973 0.51694 0.87241 0.0
O1152 O 0.4007 0.52835 0.8407 0.0
Zn1153 Zn 0.41698 0.50518 0.85984 0.0
O1154 O 0.41792 0.48167 0.84184 0.0
O1155 O 0.38603 0.48984 0.85191 0.0
O1156 O 0.40783 0.4909 0.88916 0.0
O1157 O 0.37948 0.5077 0.89876 0.0
O1158 O 0.41748 0.53482 0.88001 0.0
O1159 O 0.44337 0.51778 0.86529 0.0
C1160 C 0.39846 0.47811 0.84141 0.0
C1161 C 0.43703 0.53309 0.87605 0.0
C1162 C 0.27514 0.64876 0.59113 0.0
C1163 C 0.22015 0.68746 0.62569 0.0
O1164 O 0.27161 0.66822 0.59153 0.0
Zn1165 Zn 0.24807 0.66736 0.60951 0.0
O1166 O 0.26336 0.63637 0.60163 0.0
Zn1167 Zn 0.23624 0.64013 0.62207 0.0
O1168 O 0.21616 0.62316 0.60842 0.0
O1169 O 0.22488 0.65111 0.59035 0.0
O1170 O 0.21841 0.66791 0.62966 0.0
O1171 O 0.23548 0.69378 0.61494 0.0
O1172 O 0.26229 0.65817 0.63886 0.0
O1173 O 0.24541 0.62986 0.64843 0.0
C1174 C 0.2142 0.63422 0.59214 0.0
C1175 C 0.25944 0.64331 0.65197 0.0
C1176 C 0.11914 0.53903 0.16072 0.0
C1177 C 0.11003 0.49367 0.101 0.0
O1178 O 0.13022 0.53702 0.14445 0.0
Zn1179 Zn 0.11322 0.51694 0.13084 0.0
O1180 O 0.10223 0.52838 0.16252 0.0
Zn1181 Zn 0.08596 0.50518 0.1434 0.0
O1182 O 0.08505 0.48168 0.16144 0.0
O1183 O 0.11693 0.48987 0.15137 0.0
O1184 O 0.09516 0.49086 0.11411 0.0
O1185 O 0.1235 0.50769 0.10451 0.0
O1186 O 0.08548 0.5348 0.1232 0.0
O1187 O 0.05957 0.51779 0.13791 0.0
C1188 C 0.10451 0.47814 0.16189 0.0
C1189 C 0.06592 0.53309 0.12715 0.0
C1190 C 0.2144 0.36904 0.91079 0.0
C1191 C 0.25975 0.35992 0.85106 0.0
O1192 O 0.21638 0.3801 0.89451 0.0
Zn1193 Zn 0.23649 0.36313 0.88091 0.0
O1194 O 0.22507 0.35215 0.9126 0.0
Zn1195 Zn 0.24829 0.3359 0.89349 0.0
O1196 O 0.2718 0.33504 0.91153 0.0
O1197 O 0.26354 0.3669 0.90144 0.0
O1198 O 0.26258 0.34507 0.86419 0.0
O1199 O 0.24573 0.37339 0.85456 0.0
O1200 O 0.21868 0.33535 0.87329 0.0
O1201 O 0.23572 0.30948 0.88805 0.0
C1202 C 0.27529 0.35451 0.91197 0.0
C1203 C 0.22042 0.3158 0.87726 0.0
C1204 C 0.43788 0.47047 0.62776 0.0
C1205 C 0.39898 0.52534 0.6623 0.0
O1206 O 0.44417 0.48579 0.63854 0.0
Zn1207 Zn 0.41771 0.49837 0.6439 0.0
O1208 O 0.41834 0.46874 0.62372 0.0
Zn1209 Zn 0.39054 0.48652 0.63123 0.0
O1210 O 0.38035 0.49573 0.60485 0.0
O1211 O 0.4086 0.51265 0.61456 0.0
O1212 O 0.38666 0.51357 0.65173 0.0
O1213 O 0.41846 0.52188 0.66195 0.0
O1214 O 0.40142 0.47512 0.66296 0.0
O1215 O 0.37354 0.4664 0.64477 0.0
C1216 C 0.39379 0.50979 0.60139 0.0
C1217 C 0.38455 0.46443 0.66109 0.0
C1218 C 0.28914 0.63391 0.41095 0.0
C1219 C 0.24384 0.64293 0.35115 0.0
O1220 O 0.28716 0.62281 0.3947 0.0
Zn1221 Zn 0.26708 0.63977 0.38102 0.0
O1222 O 0.27848 0.65081 0.41271 0.0
Zn1223 Zn 0.25529 0.66704 0.39354 0.0
O1224 O 0.23177 0.66797 0.41154 0.0
O1225 O 0.23997 0.63609 0.4015 0.0
O1226 O 0.24102 0.65781 0.36424 0.0
O1227 O 0.25785 0.62946 0.35468 0.0
O1228 O 0.28492 0.66753 0.37335 0.0
O1229 O 0.26788 0.69343 0.38804 0.0
C1230 C 0.22822 0.64851 0.41198 0.0
C1231 C 0.28318 0.68709 0.37728 0.0
C1232 C 0.376 0.06585 0.47028 0.0
C1233 C 0.34139 0.10453 0.52523 0.0
O1234 O 0.36528 0.05953 0.48562 0.0
Zn1235 Zn 0.35983 0.08595 0.4982 0.0
O1236 O 0.37996 0.08541 0.46853 0.0
Zn1237 Zn 0.37236 0.11318 0.48636 0.0
O1238 O 0.39872 0.12348 0.49555 0.0
O1239 O 0.38916 0.09517 0.51244 0.0
O1240 O 0.35188 0.11693 0.51346 0.0
O1241 O 0.34184 0.08507 0.52173 0.0
O1242 O 0.34065 0.10216 0.47499 0.0
O1243 O 0.35869 0.13014 0.46627 0.0
C1244 C 0.40226 0.11004 0.50959 0.0
C1245 C 0.34243 0.11905 0.46431 0.0
C1246 C 0.87611 0.43742 0.53301 0.0
C1247 C 0.8414 0.39866 0.47819 0.0
O1248 O 0.86535 0.44372 0.51768 0.0
Zn1249 Zn 0.85989 0.41729 0.50515 0.0
O1250 O 0.88009 0.41788 0.53477 0.0
Zn1251 Zn 0.87248 0.39008 0.51699 0.0
O1252 O 0.89883 0.3798 0.50774 0.0
O1253 O 0.88919 0.40808 0.49084 0.0
O1254 O 0.85193 0.38628 0.48994 0.0
O1255 O 0.84184 0.41813 0.48167 0.0
O1256 O 0.84079 0.40107 0.52841 0.0
O1257 O 0.85888 0.37312 0.53712 0.0
C1258 C 0.90231 0.39323 0.49368 0.0
C1259 C 0.84261 0.3842 0.5391 0.0
C1260 C 0.3157 0.12571 0.28281 0.0
C1261 C 0.35448 0.09112 0.2279 0.0
O1262 O 0.30939 0.11495 0.26749 0.0
Zn1263 Zn 0.33583 0.10955 0.2549 0.0
O1264 O 0.33524 0.12971 0.28455 0.0
Zn1265 Zn 0.36303 0.12216 0.26673 0.0
O1266 O 0.37326 0.14852 0.25752 0.0
O1267 O 0.34498 0.13887 0.24063 0.0
O1268 O 0.36685 0.10166 0.23967 0.0
O1269 O 0.33501 0.09152 0.23139 0.0
O1270 O 0.3521 0.09044 0.27812 0.0
O1271 O 0.38002 0.10857 0.28683 0.0
C1272 C 0.35982 0.15201 0.24347 0.0
C1273 C 0.36898 0.09227 0.2888 0.0
C1274 C 0.62708 0.56568 0.03298 0.0
C1275 C 0.66172 0.60432 0.97801 0.0
O1276 O 0.63778 0.55935 0.01763 0.0
Zn1277 Zn 0.64324 0.58575 0.00502 0.0
O1278 O 0.62313 0.58524 0.03472 0.0
Zn1279 Zn 0.6307 0.61299 0.01684 0.0
O1280 O 0.60435 0.62328 0.00763 0.0
O1281 O 0.61393 0.59497 0.99073 0.0
O1282 O 0.65122 0.61673 0.98976 0.0
O1283 O 0.66126 0.58486 0.98151 0.0
O1284 O 0.66241 0.60201 0.02821 0.0
O1285 O 0.64436 0.62998 0.03691 0.0
C1286 C 0.60083 0.60985 0.99358 0.0
C1287 C 0.66064 0.61891 0.03887 0.0
C1288 C 0.68762 0.37724 0.28311 0.0
C1289 C 0.64895 0.41195 0.22818 0.0
O1290 O 0.69396 0.38801 0.2678 0.0
Zn1291 Zn 0.66755 0.39349 0.2552 0.0
O1292 O 0.66806 0.37329 0.28483 0.0
Zn1293 Zn 0.6403 0.38092 0.267 0.0
O1294 O 0.63003 0.35458 0.25776 0.0
O1295 O 0.65834 0.36419 0.2409 0.0
O1296 O 0.63656 0.40143 0.23993 0.0
O1297 O 0.66842 0.41152 0.23169 0.0
O1298 O 0.6513 0.41262 0.27841 0.0
O1299 O 0.62333 0.39455 0.2871 0.0
C1300 C 0.64347 0.35107 0.24372 0.0
C1301 C 0.6344 0.41082 0.28908 0.0
C1302 C 0.12686 0.93757 0.97042 0.0
C1303 C 0.16172 0.89897 0.02527 0.0
O1304 O 0.13761 0.94392 0.98574 0.0
Zn1305 Zn 0.14315 0.91752 0.99831 0.0
O1306 O 0.12294 0.91801 0.96869 0.0
Zn1307 Zn 0.13062 0.89027 0.98652 0.0
O1308 O 0.10431 0.87994 0.9958 0.0
O1309 O 0.1139 0.90826 0.01267 0.0
O1310 O 0.15121 0.88656 0.01354 0.0
O1311 O 0.16122 0.91844 0.02178 0.0
O1312 O 0.16228 0.90131 0.97507 0.0
O1313 O 0.14424 0.87332 0.9664 0.0
C1314 C 0.10081 0.89337 0.00986 0.0
C1315 C 0.1605 0.88442 0.9644 0.0
C1316 C 0.36921 0.91086 0.2143 0.0
C1317 C 0.35999 0.85103 0.25953 0.0
O1318 O 0.38026 0.89457 0.21628 0.0
Zn1319 Zn 0.36324 0.88094 0.23633 0.0
O1320 O 0.3523 0.91267 0.22495 0.0
Zn1321 Zn 0.33601 0.89352 0.24813 0.0
O1322 O 0.33512 0.9115 0.27166 0.0
O1323 O 0.36699 0.90141 0.26344 0.0
O1324 O 0.34514 0.86416 0.26237 0.0
O1325 O 0.37346 0.85456 0.24552 0.0
O1326 O 0.33548 0.87342 0.21844 0.0
O1327 O 0.3096 0.88813 0.23551 0.0
C1328 C 0.35458 0.91192 0.2752 0.0
C1329 C 0.31593 0.87741 0.22017 0.0
C1330 C 0.13421 0.0923 0.71435 0.0
C1331 C 0.14344 0.15207 0.75964 0.0
O1332 O 0.12319 0.10862 0.71631 0.0
Zn1333 Zn 0.1402 0.1222 0.7364 0.0
O1334 O 0.1511 0.09046 0.72503 0.0
Zn1335 Zn 0.1674 0.10957 0.74823 0.0
O1336 O 0.16821 0.09156 0.77175 0.0
O1337 O 0.13638 0.10172 0.76348 0.0
O1338 O 0.15827 0.13892 0.76249 0.0
O1339 O 0.12999 0.14858 0.7456 0.0
O1340 O 0.168 0.12974 0.71859 0.0
O1341 O 0.19383 0.11494 0.73564 0.0
C1342 C 0.14874 0.09118 0.77525 0.0
C1343 C 0.18754 0.12573 0.72033 0.0
C1344 C 0.05976 0.17814 0.35624 0.0
C1345 C 0.05295 0.1777 0.37706 0.0
H1346 H 0.07701 0.19435 0.33279 0.0
C1347 C 0.0593 0.19372 0.39064 0.0
H1348 H 0.05512 0.16608 0.34535 0.0
C1349 C 0.07216 0.20987 0.38346 0.0
C1350 C 0.07856 0.21047 0.36249 0.0
H1351 H 0.05435 0.19376 0.40679 0.0
H1352 H 0.07673 0.22209 0.39419 0.0
C1353 C 0.07226 0.1944 0.34901 0.0
C1354 C 0.04315 0.82215 0.63356 0.0
C1355 C 0.04257 0.82863 0.61261 0.0
H1356 H 0.05926 0.80426 0.65684 0.0
C1357 C 0.05867 0.82242 0.59913 0.0
H1358 H 0.0309 0.82665 0.64429 0.0
C1359 C 0.07494 0.80991 0.60632 0.0
C1360 C 0.07536 0.80302 0.62712 0.0
H1361 H 0.05873 0.82723 0.58293 0.0
H1362 H 0.08701 0.80534 0.59543 0.0
C1363 C 0.05932 0.80928 0.64071 0.0
C1364 C 0.43092 0.79324 0.8834 0.0
C1365 C 0.42441 0.79263 0.86247 0.0
H1366 H 0.44891 0.80933 0.90662 0.0
C1367 C 0.43068 0.80866 0.84893 0.0
H1368 H 0.42637 0.78105 0.89417 0.0
C1369 C 0.44328 0.82489 0.85606 0.0
C1370 C 0.4502 0.82534 0.87685 0.0
H1371 H 0.42585 0.8087 0.83273 0.0
H1372 H 0.4479 0.83691 0.84513 0.0
C1373 C 0.44387 0.80937 0.89049 0.0
C1374 C 0.44461 0.18091 0.09902 0.0
C1375 C 0.46068 0.17465 0.11252 0.0
H1376 H 0.4163 0.19804 0.09531 0.0
C1377 C 0.46007 0.18108 0.13348 0.0
H1378 H 0.44458 0.17614 0.08281 0.0
C1379 C 0.44391 0.19395 0.14063 0.0
C1380 C 0.4279 0.20026 0.12704 0.0
H1381 H 0.47229 0.17654 0.14423 0.0
H1382 H 0.44394 0.19893 0.15678 0.0
C1383 C 0.42835 0.19342 0.10622 0.0
C1384 C 0.05923 0.80931 0.11283 0.0
C1385 C 0.05287 0.82529 0.12644 0.0
H1386 H 0.07678 0.78101 0.10919 0.0
C1387 C 0.05977 0.82487 0.14724 0.0
H1388 H 0.05421 0.80925 0.0967 0.0
C1389 C 0.07238 0.80867 0.15441 0.0
C1390 C 0.07869 0.79264 0.14089 0.0
H1391 H 0.05512 0.8369 0.15816 0.0
H1392 H 0.07719 0.80873 0.1706 0.0
C1393 C 0.0722 0.79321 0.11995 0.0
C1394 C 0.4438 0.8091 0.36235 0.0
C1395 C 0.42779 0.80274 0.37593 0.0
H1396 H 0.47215 0.82659 0.35881 0.0
C1397 C 0.42819 0.80959 0.39675 0.0
H1398 H 0.44387 0.80413 0.34621 0.0
C1399 C 0.44442 0.82214 0.40397 0.0
C1400 C 0.46049 0.82844 0.39049 0.0
H1401 H 0.41614 0.80494 0.40763 0.0
H1402 H 0.44435 0.82691 0.42018 0.0
C1403 C 0.45992 0.82201 0.36953 0.0
C1404 C 0.43141 0.21004 0.61978 0.0
C1405 C 0.425 0.21059 0.64074 0.0
H1406 H 0.44925 0.19399 0.59642 0.0
C1407 C 0.43131 0.19451 0.6542 0.0
H1408 H 0.42683 0.22227 0.60906 0.0
C1409 C 0.44384 0.17828 0.64695 0.0
C1410 C 0.45065 0.17789 0.62613 0.0
H1411 H 0.42655 0.19443 0.67042 0.0
H1412 H 0.44849 0.16622 0.65783 0.0
C1413 C 0.4443 0.19391 0.61257 0.0
C1414 C 0.07515 0.19358 0.89689 0.0
C1415 C 0.07555 0.20042 0.87608 0.0
H1416 H 0.05896 0.1763 0.92033 0.0
C1417 C 0.05952 0.19411 0.86251 0.0
H1418 H 0.08722 0.19819 0.90778 0.0
C1419 C 0.04336 0.18125 0.8697 0.0
C1420 C 0.04279 0.17482 0.89066 0.0
H1421 H 0.05945 0.19909 0.84637 0.0
H1422 H 0.03112 0.17671 0.85898 0.0
C1423 C 0.05889 0.18108 0.90413 0.0
C1424 C 0.39081 0.05914 0.19376 0.0
C1425 C 0.37725 0.05281 0.17773 0.0
H1426 H 0.39433 0.07657 0.22214 0.0
C1427 C 0.35643 0.05964 0.17813 0.0
H1428 H 0.40696 0.05417 0.19383 0.0
C1429 C 0.34919 0.07215 0.19437 0.0
C1430 C 0.36265 0.07843 0.21046 0.0
H1431 H 0.34555 0.05501 0.16606 0.0
H1432 H 0.33297 0.07691 0.1943 0.0
C1433 C 0.38361 0.07201 0.2099 0.0
C1434 C 0.18126 0.13345 0.46003 0.0
C1435 C 0.17484 0.11249 0.46068 0.0
H1436 H 0.19908 0.15673 0.44384 0.0
C1437 C 0.1811 0.09896 0.44463 0.0
H1438 H 0.17671 0.14421 0.47223 0.0
C1439 C 0.19359 0.10614 0.42834 0.0
C1440 C 0.20042 0.12696 0.42785 0.0
H1441 H 0.17634 0.08275 0.44463 0.0
H1442 H 0.19821 0.09522 0.41631 0.0
C1443 C 0.19411 0.14058 0.44384 0.0
C1444 C 0.11228 0.944 0.69388 0.0
C1445 C 0.12587 0.95031 0.67787 0.0
H1446 H 0.10869 0.92657 0.72226 0.0
C1447 C 0.14668 0.94345 0.67831 0.0
H1448 H 0.09614 0.94899 0.69393 0.0
C1449 C 0.15388 0.93093 0.69457 0.0
C1450 C 0.14038 0.92467 0.71064 0.0
H1451 H 0.15759 0.94806 0.66626 0.0
H1452 H 0.17009 0.92614 0.69452 0.0
C1453 C 0.11943 0.93112 0.71004 0.0
C1454 C 0.30906 0.86281 0.94387 0.0
C1455 C 0.30268 0.8764 0.92788 0.0
H1456 H 0.32663 0.85921 0.97215 0.0
C1457 C 0.30955 0.89721 0.92828 0.0
H1458 H 0.30406 0.84667 0.94394 0.0
C1459 C 0.32216 0.9044 0.94446 0.0
C1460 C 0.32851 0.8909 0.9605 0.0
H1461 H 0.30488 0.90811 0.91624 0.0
H1462 H 0.32696 0.9206 0.94438 0.0
C1463 C 0.32203 0.86996 0.95995 0.0
C1464 C 0.35634 0.9434 0.32498 0.0
C1465 C 0.37714 0.95028 0.32543 0.0
H1466 H 0.33297 0.92605 0.30876 0.0
C1467 C 0.39075 0.94397 0.30944 0.0
H1468 H 0.34542 0.948 0.33703 0.0
C1469 C 0.38363 0.93107 0.29328 0.0
C1470 C 0.36269 0.92461 0.29267 0.0
H1471 H 0.40689 0.94898 0.3094 0.0
H1472 H 0.39439 0.92654 0.28107 0.0
C1473 C 0.34917 0.93086 0.30873 0.0
C1474 C 0.30994 0.1063 0.57504 0.0
C1475 C 0.30307 0.12711 0.57549 0.0
H1476 H 0.32726 0.08292 0.55881 0.0
C1477 C 0.30936 0.14072 0.55948 0.0
H1478 H 0.30535 0.09539 0.58709 0.0
C1479 C 0.32223 0.13358 0.54331 0.0
C1480 C 0.3287 0.11264 0.5427 0.0
H1481 H 0.30435 0.15685 0.55945 0.0
H1482 H 0.32676 0.14433 0.53109 0.0
C1483 C 0.32246 0.09912 0.55877 0.0
C1484 C 0.14681 0.05968 0.82502 0.0
C1485 C 0.12599 0.05287 0.82544 0.0
H1486 H 0.17026 0.07695 0.80884 0.0
C1487 C 0.11242 0.05922 0.80942 0.0
H1488 H 0.1577 0.05504 0.83708 0.0
C1489 C 0.11961 0.07209 0.79328 0.0
C1490 C 0.14058 0.07849 0.7927 0.0
H1491 H 0.09627 0.05426 0.80936 0.0
H1492 H 0.10889 0.07666 0.78105 0.0
C1493 C 0.15405 0.0722 0.80878 0.0
C1494 C 0.19344 0.89722 0.07492 0.0
C1495 C 0.20034 0.87643 0.07533 0.0
H1496 H 0.17601 0.92059 0.05878 0.0
C1497 C 0.19398 0.86282 0.05935 0.0
H1498 H 0.19809 0.90814 0.08695 0.0
C1499 C 0.18101 0.86994 0.04325 0.0
C1500 C 0.17452 0.89088 0.04268 0.0
H1501 H 0.199 0.84669 0.05929 0.0
H1502 H 0.17643 0.85919 0.03105 0.0
C1503 C 0.18083 0.90439 0.05872 0.0
C1504 C 0.21003 0.38346 0.07213 0.0
C1505 C 0.21059 0.3625 0.07856 0.0
H1506 H 0.19398 0.40679 0.05426 0.0
C1507 C 0.19452 0.34902 0.07225 0.0
H1508 H 0.22226 0.39418 0.07672 0.0
C1509 C 0.1783 0.35626 0.0597 0.0
C1510 C 0.1779 0.37707 0.05287 0.0
H1511 H 0.19445 0.33281 0.07701 0.0
H1512 H 0.16624 0.34537 0.05505 0.0
C1513 C 0.19391 0.39064 0.05923 0.0
C1514 C 0.67844 0.14681 0.94346 0.0
C1515 C 0.67801 0.126 0.95031 0.0
H1516 H 0.69468 0.17023 0.9262 0.0
C1517 C 0.69405 0.11242 0.94404 0.0
H1518 H 0.66637 0.1577 0.94804 0.0
C1519 C 0.71024 0.11959 0.93121 0.0
C1520 C 0.71083 0.14054 0.92477 0.0
H1521 H 0.69409 0.09628 0.94903 0.0
H1522 H 0.72248 0.10886 0.9267 0.0
C1523 C 0.69473 0.15402 0.93099 0.0
C1524 C 0.14066 0.44387 0.19394 0.0
C1525 C 0.12704 0.42788 0.20025 0.0
H1526 H 0.14431 0.47224 0.17652 0.0
C1527 C 0.10623 0.42835 0.19338 0.0
H1528 H 0.1568 0.44388 0.19894 0.0
C1529 C 0.09907 0.44462 0.18086 0.0
C1530 C 0.1126 0.46067 0.1746 0.0
H1531 H 0.0953 0.41632 0.19799 0.0
H1532 H 0.08286 0.44461 0.17606 0.0
C1533 C 0.13354 0.46004 0.18106 0.0
C1534 C 0.80854 0.84913 0.43088 0.0
C1535 C 0.79249 0.86265 0.42463 0.0
H1536 H 0.83687 0.84539 0.44799 0.0
C1537 C 0.79312 0.8836 0.43106 0.0
H1538 H 0.80857 0.83292 0.42611 0.0
C1539 C 0.8093 0.89074 0.44392 0.0
C1540 C 0.82529 0.87712 0.45023 0.0
H1541 H 0.78091 0.89436 0.42652 0.0
H1542 H 0.80928 0.90688 0.4489 0.0
C1543 C 0.82482 0.85631 0.44338 0.0
C1544 C 0.89694 0.07497 0.19375 0.0
C1545 C 0.8761 0.07542 0.20051 0.0
H1546 H 0.92041 0.05875 0.17655 0.0
C1547 C 0.86252 0.05942 0.19415 0.0
H1548 H 0.90783 0.08702 0.19841 0.0
C1549 C 0.86972 0.04326 0.1813 0.0
C1550 C 0.8907 0.04265 0.17494 0.0
H1551 H 0.84636 0.05939 0.19907 0.0
H1552 H 0.85899 0.03104 0.17671 0.0
C1553 C 0.90418 0.05871 0.18126 0.0
C1554 C 0.29329 0.61967 0.5721 0.0
C1555 C 0.29264 0.64064 0.57849 0.0
H1556 H 0.3095 0.59636 0.55433 0.0
C1557 C 0.30871 0.65414 0.57225 0.0
H1558 H 0.28108 0.60892 0.57663 0.0
C1559 C 0.32502 0.64694 0.55979 0.0
C1560 C 0.32551 0.62612 0.55298 0.0
H1561 H 0.30872 0.67036 0.57699 0.0
H1562 H 0.33706 0.65786 0.55518 0.0
C1563 C 0.3095 0.61251 0.55928 0.0
C1564 C 0.10628 0.57493 0.30946 0.0
C1565 C 0.12712 0.57536 0.3027 0.0
H1566 H 0.08279 0.55875 0.32668 0.0
C1567 C 0.14068 0.55934 0.30909 0.0
H1568 H 0.09541 0.58699 0.30479 0.0
C1569 C 0.13346 0.54321 0.32195 0.0
C1570 C 0.11248 0.54263 0.32832 0.0
H1571 H 0.15684 0.55929 0.30417 0.0
H1572 H 0.14418 0.53099 0.32656 0.0
C1573 C 0.09902 0.55869 0.32197 0.0
C1574 C 0.40394 0.44456 0.82253 0.0
C1575 C 0.3904 0.46063 0.82871 0.0
H1576 H 0.40776 0.41625 0.80543 0.0
C1577 C 0.36948 0.46001 0.82217 0.0
H1578 H 0.42013 0.44453 0.82739 0.0
C1579 C 0.3624 0.44384 0.80927 0.0
C1580 C 0.37605 0.42784 0.80303 0.0
H1581 H 0.35871 0.47222 0.82665 0.0
H1582 H 0.34629 0.44386 0.8042 0.0
C1583 C 0.39682 0.42829 0.80998 0.0
C1584 C 0.93076 0.80875 0.65404 0.0
C1585 C 0.92451 0.79267 0.64054 0.0
H1586 H 0.9479 0.83705 0.65776 0.0
C1587 C 0.931 0.79325 0.6196 0.0
H1588 H 0.92594 0.80881 0.67024 0.0
C1589 C 0.9439 0.8094 0.61246 0.0
C1590 C 0.9502 0.82541 0.62606 0.0
H1591 H 0.92647 0.78103 0.60886 0.0
H1592 H 0.94892 0.80934 0.59633 0.0
C1593 C 0.9433 0.82499 0.64685 0.0
C1594 C 0.96004 0.18096 0.36974 0.0
C1595 C 0.96066 0.17449 0.39069 0.0
H1596 H 0.9439 0.19884 0.34648 0.0
C1597 C 0.94459 0.18072 0.4042 0.0
H1598 H 0.97226 0.17643 0.35899 0.0
C1599 C 0.92832 0.19324 0.39703 0.0
C1600 C 0.92787 0.20012 0.37623 0.0
H1601 H 0.94456 0.17592 0.4204 0.0
H1602 H 0.91627 0.19783 0.40794 0.0
C1603 C 0.94387 0.19383 0.36261 0.0
C1604 C 0.55928 0.19389 0.11251 0.0
C1605 C 0.55297 0.17787 0.12609 0.0
H1606 H 0.57669 0.22228 0.10896 0.0
C1607 C 0.55979 0.1783 0.14691 0.0
H1608 H 0.55432 0.19393 0.09637 0.0
C1609 C 0.57229 0.19457 0.15414 0.0
C1610 C 0.57856 0.21065 0.14065 0.0
H1611 H 0.55517 0.16624 0.15781 0.0
H1612 H 0.57705 0.19452 0.17035 0.0
C1613 C 0.57214 0.21005 0.11969 0.0
C1614 C 0.55932 0.80899 0.86212 0.0
C1615 C 0.57533 0.80268 0.87572 0.0
H1616 H 0.53095 0.82644 0.85854 0.0
C1617 C 0.57491 0.80954 0.89652 0.0
H1618 H 0.55927 0.804 0.84599 0.0
C1619 C 0.55866 0.82208 0.90372 0.0
C1620 C 0.54259 0.82835 0.89023 0.0
H1621 H 0.58696 0.80493 0.90742 0.0
H1622 H 0.55872 0.82687 0.91992 0.0
C1623 C 0.54318 0.82189 0.86928 0.0
C1624 C 0.94365 0.17851 0.85643 0.0
C1625 C 0.95049 0.17809 0.87724 0.0
H1626 H 0.92635 0.1947 0.833 0.0
C1627 C 0.94418 0.19411 0.89082 0.0
H1628 H 0.94826 0.16645 0.84553 0.0
C1629 C 0.93131 0.21026 0.88365 0.0
C1630 C 0.92486 0.21084 0.86269 0.0
H1631 H 0.94916 0.19416 0.90696 0.0
H1632 H 0.92676 0.22249 0.89438 0.0
C1633 C 0.93113 0.19476 0.84921 0.0
C1634 C 0.55901 0.18108 0.59907 0.0
C1635 C 0.54294 0.17477 0.61255 0.0
H1636 H 0.58733 0.19821 0.59543 0.0
C1637 C 0.54355 0.18113 0.63353 0.0
H1638 H 0.55905 0.17636 0.58284 0.0
C1639 C 0.55971 0.19397 0.64073 0.0
C1640 C 0.57572 0.20033 0.62715 0.0
H1641 H 0.53133 0.17655 0.64426 0.0
H1642 H 0.55968 0.1989 0.65689 0.0
C1643 C 0.57528 0.19356 0.60631 0.0
C1644 C 0.55958 0.82495 0.35619 0.0
C1645 C 0.55276 0.82539 0.37701 0.0
H1646 H 0.57686 0.80875 0.33276 0.0
C1647 C 0.5591 0.80938 0.3906 0.0
H1648 H 0.55495 0.837 0.34529 0.0
C1649 C 0.57198 0.79323 0.38343 0.0
C1650 C 0.57839 0.79264 0.36246 0.0
H1651 H 0.55414 0.80934 0.40675 0.0
H1652 H 0.57655 0.78102 0.39416 0.0
C1653 C 0.5721 0.8087 0.34897 0.0
C1654 C 0.94365 0.80906 0.14106 0.0
C1655 C 0.92764 0.80278 0.12745 0.0
H1656 H 0.97205 0.82645 0.14468 0.0
C1657 C 0.92809 0.80967 0.10665 0.0
H1658 H 0.94369 0.80404 0.15719 0.0
C1659 C 0.94436 0.82218 0.09948 0.0
C1660 C 0.96043 0.82841 0.11299 0.0
H1661 H 0.91603 0.80508 0.09574 0.0
H1662 H 0.94432 0.82699 0.08328 0.0
C1663 C 0.95982 0.82193 0.13393 0.0
C1664 C 0.6469 0.94331 0.82495 0.0
C1665 C 0.62611 0.95022 0.82537 0.0
H1666 H 0.67028 0.92595 0.80877 0.0
C1667 C 0.61252 0.94395 0.80934 0.0
H1668 H 0.65781 0.94789 0.83702 0.0
C1669 C 0.61965 0.93105 0.79319 0.0
C1670 C 0.64059 0.92455 0.79262 0.0
H1671 H 0.59639 0.94898 0.80928 0.0
H1672 H 0.60891 0.92654 0.78096 0.0
C1673 C 0.65409 0.93077 0.8087 0.0
C1674 C 0.82212 0.90414 0.55856 0.0
C1675 C 0.8284 0.89063 0.5425 0.0
H1676 H 0.80495 0.90785 0.58685 0.0
C1677 C 0.82194 0.86968 0.5431 0.0
H1678 H 0.8269 0.92034 0.5586 0.0
C1679 C 0.80904 0.86253 0.55924 0.0
C1680 C 0.80272 0.87614 0.57524 0.0
H1681 H 0.8265 0.85893 0.53089 0.0
H1682 H 0.80405 0.8464 0.5592 0.0
C1683 C 0.80958 0.89694 0.5748 0.0
C1684 C 0.89071 0.05919 0.30941 0.0
C1685 C 0.87714 0.05285 0.32544 0.0
H1686 H 0.89423 0.07665 0.28105 0.0
C1687 C 0.85632 0.05968 0.32504 0.0
H1688 H 0.90685 0.05422 0.30934 0.0
C1689 C 0.84908 0.07221 0.30881 0.0
C1690 C 0.86255 0.0785 0.29273 0.0
H1691 H 0.84544 0.05504 0.3371 0.0
H1692 H 0.83287 0.07698 0.30888 0.0
C1693 C 0.88351 0.07208 0.29328 0.0
C1694 C 0.68108 0.099 0.05866 0.0
C1695 C 0.67482 0.1125 0.04258 0.0
H1696 H 0.6982 0.09532 0.08698 0.0
C1697 C 0.68124 0.13346 0.04318 0.0
H1698 H 0.67632 0.08279 0.0587 0.0
C1699 C 0.6941 0.14062 0.05935 0.0
C1700 C 0.70041 0.12704 0.07537 0.0
H1701 H 0.67669 0.14419 0.03096 0.0
H1702 H 0.69907 0.15677 0.05931 0.0
C1703 C 0.69358 0.10622 0.07492 0.0
C1704 C 0.61284 0.05927 0.69387 0.0
C1705 C 0.62643 0.05294 0.67785 0.0
H1706 H 0.60929 0.07666 0.72226 0.0
C1707 C 0.64725 0.05974 0.6783 0.0
H1708 H 0.59669 0.05432 0.6939 0.0
C1709 C 0.65448 0.07222 0.69458 0.0
C1710 C 0.64099 0.0785 0.71065 0.0
H1711 H 0.65815 0.05511 0.66625 0.0
H1712 H 0.6707 0.07696 0.69455 0.0
C1713 C 0.62002 0.07211 0.71004 0.0
C1714 C 0.69322 0.89699 0.42812 0.0
C1715 C 0.70011 0.87619 0.42771 0.0
H1716 H 0.67588 0.92039 0.44429 0.0
C1717 C 0.6938 0.8626 0.44373 0.0
H1718 H 0.69783 0.90788 0.41605 0.0
C1719 C 0.6809 0.86976 0.45987 0.0
C1720 C 0.67444 0.89071 0.46044 0.0
H1721 H 0.69881 0.84647 0.4438 0.0
H1722 H 0.67637 0.85903 0.47211 0.0
C1723 C 0.68068 0.90419 0.44436 0.0
C1724 C 0.85636 0.94345 0.1783 0.0
C1725 C 0.87717 0.95032 0.17792 0.0
H1726 H 0.83293 0.92611 0.19444 0.0
C1727 C 0.89074 0.94397 0.19394 0.0
H1728 H 0.84548 0.94808 0.16624 0.0
C1729 C 0.88356 0.93106 0.21006 0.0
C1730 C 0.86261 0.92461 0.21061 0.0
H1731 H 0.90688 0.94896 0.19402 0.0
H1732 H 0.89428 0.9265 0.22229 0.0
C1733 C 0.84914 0.9309 0.19452 0.0
C1734 C 0.8226 0.0992 0.94477 0.0
C1735 C 0.82881 0.1127 0.96085 0.0
H1736 H 0.80551 0.09547 0.91644 0.0
C1737 C 0.82233 0.13364 0.96025 0.0
H1738 H 0.82741 0.083 0.94472 0.0
C1739 C 0.80946 0.14078 0.94407 0.0
C1740 C 0.80319 0.12717 0.92805 0.0
H1741 H 0.82684 0.14439 0.97247 0.0
H1742 H 0.80444 0.15691 0.94411 0.0
C1743 C 0.81008 0.10638 0.9285 0.0
C1744 C 0.80862 0.6542 0.931 0.0
C1745 C 0.79261 0.64062 0.92474 0.0
H1746 H 0.83693 0.65803 0.9481 0.0
C1747 C 0.79332 0.61967 0.93117 0.0
H1748 H 0.80858 0.6704 0.92623 0.0
C1749 C 0.80954 0.61259 0.94402 0.0
C1750 C 0.82549 0.62626 0.95033 0.0
H1751 H 0.78115 0.60886 0.92663 0.0
H1752 H 0.80959 0.59644 0.949 0.0
C1753 C 0.82493 0.64707 0.94349 0.0
C1754 C 0.29341 0.88388 0.07189 0.0
C1755 C 0.29277 0.86292 0.07831 0.0
H1756 H 0.30958 0.90716 0.05405 0.0
C1757 C 0.30881 0.84939 0.07203 0.0
H1758 H 0.28121 0.89464 0.07645 0.0
C1759 C 0.32509 0.85657 0.05952 0.0
C1760 C 0.32557 0.87739 0.05269 0.0
H1761 H 0.30883 0.83318 0.0768 0.0
H1762 H 0.33712 0.84565 0.0549 0.0
C1763 C 0.30958 0.89101 0.05902 0.0
C1764 C 0.86993 0.54345 0.82207 0.0
C1765 C 0.89091 0.54289 0.82844 0.0
H1766 H 0.84655 0.5595 0.80426 0.0
C1767 C 0.90437 0.55895 0.82207 0.0
H1768 H 0.85922 0.53123 0.82669 0.0
C1769 C 0.8971 0.57517 0.80954 0.0
C1770 C 0.87626 0.57557 0.80278 0.0
H1771 H 0.9206 0.55903 0.82679 0.0
H1772 H 0.90797 0.58723 0.80486 0.0
C1773 C 0.86271 0.55956 0.80918 0.0
C1774 C 0.17844 0.14692 0.55984 0.0
C1775 C 0.17799 0.1261 0.55301 0.0
H1776 H 0.19467 0.17032 0.57713 0.0
C1777 C 0.19398 0.1125 0.55934 0.0
H1778 H 0.1664 0.15783 0.55521 0.0
C1779 C 0.21014 0.11965 0.57222 0.0
C1780 C 0.21076 0.14061 0.57865 0.0
H1781 H 0.19401 0.09635 0.55437 0.0
H1782 H 0.22235 0.1089 0.57678 0.0
C1783 C 0.1947 0.15411 0.57236 0.0
C1784 C 0.14042 0.94378 0.80928 0.0
C1785 C 0.12681 0.9278 0.80292 0.0
H1786 H 0.14402 0.97214 0.82673 0.0
C1787 C 0.10598 0.92828 0.80971 0.0
H1788 H 0.15658 0.9438 0.80433 0.0
C1789 C 0.09878 0.94454 0.82222 0.0
C1790 C 0.1123 0.96058 0.82854 0.0
H1791 H 0.09507 0.91625 0.80506 0.0
H1792 H 0.08256 0.94452 0.82696 0.0
C1793 C 0.13327 0.95994 0.82215 0.0
C1794 C 0.69391 0.39068 0.44425 0.0
C1795 C 0.6779 0.3771 0.45059 0.0
H1796 H 0.72227 0.39423 0.4268 0.0
C1797 C 0.67832 0.35628 0.44377 0.0
H1798 H 0.69396 0.40682 0.44922 0.0
C1799 C 0.69456 0.34905 0.43124 0.0
C1800 C 0.71063 0.36254 0.42495 0.0
H1801 H 0.66627 0.34539 0.44841 0.0
H1802 H 0.69451 0.33284 0.42648 0.0
C1803 C 0.71005 0.3835 0.43136 0.0
C1804 C 0.86983 0.46018 0.68123 0.0
C1805 C 0.89079 0.46079 0.67479 0.0
H1806 H 0.84655 0.44407 0.69911 0.0
C1807 C 0.9043 0.44475 0.6811 0.0
H1808 H 0.85908 0.47238 0.67665 0.0
C1809 C 0.89712 0.42851 0.69365 0.0
C1810 C 0.8763 0.42806 0.70048 0.0
H1811 H 0.92051 0.44471 0.67632 0.0
H1812 H 0.90803 0.41648 0.69829 0.0
C1813 C 0.86269 0.44404 0.69413 0.0
C1814 C 0.64079 0.55932 0.19413 0.0
C1815 C 0.62717 0.57527 0.20054 0.0
H1816 H 0.6444 0.531 0.17663 0.0
C1817 C 0.60633 0.57478 0.19378 0.0
H1818 H 0.65695 0.55933 0.19905 0.0
C1819 C 0.59913 0.55852 0.18125 0.0
C1820 C 0.61266 0.54252 0.17489 0.0
H1821 H 0.5954 0.58678 0.19847 0.0
H1822 H 0.5829 0.55853 0.17655 0.0
C1823 C 0.63364 0.54317 0.18125 0.0
C1824 C 0.57198 0.69436 0.84886 0.0
C1825 C 0.57833 0.71043 0.86232 0.0
H1826 H 0.55475 0.6661 0.84524 0.0
C1827 C 0.57191 0.70989 0.88328 0.0
H1828 H 0.57674 0.69427 0.83264 0.0
C1829 C 0.55899 0.6938 0.89049 0.0
C1830 C 0.55261 0.67778 0.87694 0.0
H1831 H 0.57652 0.72212 0.89399 0.0
H1832 H 0.55404 0.69388 0.90664 0.0
C1833 C 0.55942 0.67816 0.85611 0.0
C1834 C 0.54325 0.3221 0.1336 0.0
C1835 C 0.54264 0.32853 0.11264 0.0
H1836 H 0.55938 0.30427 0.1569 0.0
C1837 C 0.55871 0.32226 0.09914 0.0
H1838 H 0.53103 0.32665 0.14434 0.0
C1839 C 0.57498 0.30976 0.10635 0.0
C1840 C 0.57543 0.30293 0.12717 0.0
H1841 H 0.55875 0.32703 0.08293 0.0
H1842 H 0.58704 0.30515 0.09545 0.0
C1843 C 0.55942 0.30924 0.14076 0.0
C1844 C 0.94417 0.30921 0.39083 0.0
C1845 C 0.95045 0.32521 0.37721 0.0
H1846 H 0.92674 0.28083 0.39445 0.0
C1847 C 0.94356 0.32477 0.35641 0.0
H1848 H 0.94918 0.30917 0.40696 0.0
C1849 C 0.93103 0.30851 0.34924 0.0
C1850 C 0.92478 0.29245 0.36276 0.0
H1851 H 0.94816 0.33682 0.3455 0.0
H1852 H 0.92621 0.30856 0.33305 0.0
C1853 C 0.93127 0.29305 0.3837 0.0
C1854 C 0.95981 0.68125 0.63339 0.0
C1855 C 0.9604 0.67482 0.61243 0.0
H1856 H 0.9437 0.69908 0.65671 0.0
C1857 C 0.94431 0.68107 0.59896 0.0
H1858 H 0.97205 0.67672 0.64412 0.0
C1859 C 0.92804 0.69356 0.60618 0.0
C1860 C 0.92761 0.7004 0.62699 0.0
H1861 H 0.94425 0.6763 0.58275 0.0
H1862 H 0.91597 0.69816 0.59529 0.0
C1863 C 0.94365 0.6941 0.64057 0.0
C1864 C 0.56 0.32488 0.64729 0.0
C1865 C 0.55314 0.32537 0.62648 0.0
H1866 H 0.57731 0.30862 0.67065 0.0
C1867 C 0.55946 0.3094 0.61284 0.0
H1868 H 0.55538 0.3369 0.65822 0.0
C1869 C 0.57235 0.29323 0.61995 0.0
C1870 C 0.5788 0.29258 0.6409 0.0
H1871 H 0.55446 0.3094 0.59671 0.0
H1872 H 0.5769 0.28104 0.60918 0.0
C1873 C 0.57253 0.30861 0.65444 0.0
C1874 C 0.96008 0.32232 0.86959 0.0
C1875 C 0.96071 0.32879 0.89053 0.0
H1876 H 0.94394 0.30443 0.84633 0.0
C1877 C 0.94465 0.32255 0.90405 0.0
H1878 H 0.9723 0.32685 0.85883 0.0
C1879 C 0.92838 0.31003 0.89689 0.0
C1880 C 0.92792 0.30315 0.87609 0.0
H1881 H 0.94462 0.32735 0.92026 0.0
H1882 H 0.91634 0.30543 0.90781 0.0
C1883 C 0.94391 0.30944 0.86247 0.0
C1884 C 0.94369 0.67833 0.14707 0.0
C1885 C 0.95056 0.67797 0.12626 0.0
H1886 H 0.92627 0.69439 0.17049 0.0
C1887 C 0.94417 0.69398 0.1127 0.0
H1888 H 0.94835 0.66627 0.15795 0.0
C1889 C 0.9312 0.71005 0.11988 0.0
C1890 C 0.92472 0.71056 0.14082 0.0
H1891 H 0.94917 0.69408 0.09656 0.0
H1892 H 0.92659 0.72227 0.10916 0.0
C1893 C 0.93107 0.6945 0.15429 0.0
C1894 C 0.54327 0.68107 0.3696 0.0
C1895 C 0.54271 0.67463 0.39056 0.0
H1896 H 0.55933 0.69895 0.34628 0.0
C1897 C 0.55878 0.68093 0.40404 0.0
H1898 H 0.53104 0.6765 0.35888 0.0
C1899 C 0.57501 0.69347 0.39681 0.0
C1900 C 0.57541 0.70032 0.376 0.0
H1901 H 0.55885 0.67616 0.42024 0.0
H1902 H 0.58707 0.69811 0.4077 0.0
C1903 C 0.5594 0.69397 0.36242 0.0
C1904 C 0.88356 0.57227 0.7099 0.0
C1905 C 0.86259 0.57867 0.7105 0.0
H1906 H 0.90689 0.55445 0.69378 0.0
C1907 C 0.8491 0.57237 0.69444 0.0
H1908 H 0.8943 0.57685 0.72211 0.0
C1909 C 0.85632 0.55986 0.67818 0.0
C1910 C 0.87715 0.55305 0.67774 0.0
H1911 H 0.83288 0.57712 0.6944 0.0
H1912 H 0.84543 0.55522 0.66613 0.0
C1913 C 0.89074 0.55941 0.69374 0.0
C1914 C 0.69384 0.64052 0.94384 0.0
C1915 C 0.7002 0.6269 0.92786 0.0
H1916 H 0.67633 0.64414 0.97216 0.0
C1917 C 0.69334 0.60609 0.9283 0.0
H1918 H 0.69882 0.65666 0.94387 0.0
C1919 C 0.68077 0.59891 0.94453 0.0
C1920 C 0.67446 0.61243 0.96057 0.0
H1921 H 0.69799 0.59518 0.91628 0.0
H1922 H 0.67599 0.58271 0.94449 0.0
C1923 C 0.68091 0.63338 0.95997 0.0
C1924 C 0.61985 0.43105 0.21011 0.0
C1925 C 0.64082 0.42465 0.21072 0.0
H1926 H 0.59653 0.44887 0.19399 0.0
C1927 C 0.65431 0.43095 0.19466 0.0
H1928 H 0.60911 0.42648 0.22233 0.0
C1929 C 0.64709 0.44345 0.1784 0.0
C1930 C 0.62626 0.45026 0.17795 0.0
H1931 H 0.67053 0.4262 0.19462 0.0
H1932 H 0.65799 0.44809 0.16635 0.0
C1933 C 0.61268 0.44392 0.19396 0.0
C1934 C 0.80929 0.36242 0.44407 0.0
C1935 C 0.80296 0.376 0.42805 0.0
H1936 H 0.82675 0.35884 0.47243 0.0
C1937 C 0.80984 0.3968 0.42846 0.0
H1938 H 0.80429 0.34628 0.44413 0.0
C1939 C 0.82239 0.40401 0.44468 0.0
C1940 C 0.82867 0.39052 0.46076 0.0
H1941 H 0.80522 0.4077 0.4164 0.0
H1942 H 0.82719 0.42021 0.44461 0.0
C1943 C 0.8222 0.36958 0.4602 0.0
C1944 C 0.84938 0.43127 0.80887 0.0
C1945 C 0.86286 0.42497 0.79279 0.0
H1946 H 0.84573 0.44845 0.83716 0.0
C1947 C 0.88382 0.43139 0.79336 0.0
H1948 H 0.83317 0.42651 0.80894 0.0
C1949 C 0.891 0.44429 0.80949 0.0
C1950 C 0.87743 0.45064 0.82551 0.0
H1951 H 0.89454 0.42682 0.78114 0.0
H1952 H 0.90715 0.44926 0.80943 0.0
C1953 C 0.85662 0.44381 0.8251 0.0
C1954 C 0.80977 0.60629 0.07482 0.0
C1955 C 0.80285 0.62708 0.07528 0.0
H1956 H 0.82721 0.58297 0.05862 0.0
C1957 C 0.80918 0.64073 0.05931 0.0
H1958 H 0.80515 0.59535 0.08684 0.0
C1959 C 0.82213 0.63365 0.04319 0.0
C1960 C 0.82865 0.61272 0.04257 0.0
H1961 H 0.80414 0.65685 0.05929 0.0
H1962 H 0.82668 0.64443 0.031 0.0
C1963 C 0.82237 0.59917 0.05859 0.0
C1964 C 0.65428 0.57229 0.30888 0.0
C1965 C 0.64077 0.57854 0.29281 0.0
H1966 H 0.65801 0.55515 0.33719 0.0
C1967 C 0.61983 0.57207 0.29341 0.0
H1968 H 0.67048 0.57709 0.30892 0.0
C1969 C 0.61269 0.55918 0.30956 0.0
C1970 C 0.62629 0.55288 0.32557 0.0
H1971 H 0.60908 0.57661 0.28119 0.0
H1972 H 0.59655 0.55418 0.30952 0.0
C1973 C 0.6471 0.55976 0.32513 0.0
C1974 C 0.68135 0.36974 0.54346 0.0
C1975 C 0.67492 0.39069 0.54286 0.0
H1976 H 0.69922 0.34644 0.55957 0.0
C1977 C 0.68121 0.4042 0.55892 0.0
H1978 H 0.67678 0.35899 0.53125 0.0
C1979 C 0.69375 0.39699 0.57516 0.0
C1980 C 0.70058 0.37618 0.5756 0.0
H1981 H 0.67644 0.4204 0.55896 0.0
H1982 H 0.69838 0.4079 0.5872 0.0
C1983 C 0.69424 0.36258 0.55961 0.0
C1984 C 0.70981 0.88362 0.57191 0.0
C1985 C 0.7104 0.86266 0.57835 0.0
H1986 H 0.69371 0.90693 0.55406 0.0
C1987 C 0.69432 0.84917 0.57208 0.0
H1988 H 0.72204 0.89435 0.57646 0.0
C1989 C 0.67807 0.85639 0.55957 0.0
C1990 C 0.67764 0.8772 0.55272 0.0
H1991 H 0.69427 0.83297 0.57686 0.0
H1992 H 0.66601 0.84549 0.55495 0.0
C1993 C 0.69366 0.89078 0.55904 0.0
C1994 C 0.21002 0.6195 0.43108 0.0
C1995 C 0.21071 0.64045 0.42463 0.0
H1996 H 0.19378 0.59626 0.44891 0.0
C1997 C 0.19465 0.654 0.43084 0.0
H1998 H 0.22223 0.60872 0.42658 0.0
C1999 C 0.17834 0.64685 0.44331 0.0
C2000 C 0.17782 0.62605 0.45017 0.0
H2001 H 0.19467 0.6702 0.42605 0.0
H2002 H 0.1663 0.65779 0.44788 0.0
C2003 C 0.19381 0.6124 0.44391 0.0
C2004 C 0.64076 0.94384 0.69402 0.0
C2005 C 0.62713 0.92785 0.70031 0.0
H2006 H 0.64443 0.97222 0.67662 0.0
C2007 C 0.60632 0.92834 0.69344 0.0
H2008 H 0.6569 0.94384 0.69902 0.0
C2009 C 0.59917 0.94462 0.68093 0.0
C2010 C 0.61271 0.96067 0.67469 0.0
H2011 H 0.59539 0.91631 0.69804 0.0
H2012 H 0.58296 0.94461 0.67613 0.0
C2013 C 0.63365 0.96002 0.68115 0.0
C2014 C 0.325 0.35636 0.94356 0.0
C2015 C 0.3254 0.37716 0.95044 0.0
H2016 H 0.30886 0.33296 0.92619 0.0
C2017 C 0.30938 0.39074 0.94411 0.0
H2018 H 0.33706 0.34547 0.94819 0.0
C2019 C 0.29327 0.38359 0.93118 0.0
C2020 C 0.29271 0.36264 0.92471 0.0
H2021 H 0.30931 0.40688 0.94912 0.0
H2022 H 0.28104 0.39432 0.92662 0.0
C2023 C 0.30878 0.34916 0.93099 0.0
C2024 C 0.36977 0.54331 0.68131 0.0
C2025 C 0.39076 0.54277 0.67498 0.0
H2026 H 0.34634 0.55937 0.69905 0.0
C2027 C 0.40419 0.55886 0.68133 0.0
H2028 H 0.35908 0.53107 0.6767 0.0
C2029 C 0.39688 0.5751 0.69381 0.0
C2030 C 0.37602 0.57549 0.70055 0.0
H2031 H 0.42042 0.55895 0.67664 0.0
H2032 H 0.40772 0.58718 0.69849 0.0
C2033 C 0.36251 0.55945 0.69415 0.0
C2034 C 0.80881 0.15416 0.07249 0.0
C2035 C 0.79274 0.14064 0.07871 0.0
H2036 H 0.83716 0.1579 0.05543 0.0
C2037 C 0.79338 0.11969 0.07226 0.0
H2038 H 0.80882 0.17036 0.07728 0.0
C2039 C 0.80958 0.11256 0.05942 0.0
C2040 C 0.82558 0.12618 0.05315 0.0
H2041 H 0.78116 0.10893 0.07677 0.0
H2042 H 0.80957 0.09642 0.05443 0.0
C2043 C 0.82511 0.14698 0.06001 0.0
C2044 C 0.59932 0.05867 0.82226 0.0
C2045 C 0.61278 0.04256 0.82852 0.0
H2046 H 0.59571 0.08701 0.80515 0.0
C2047 C 0.63374 0.04312 0.8221 0.0
H2048 H 0.58311 0.05875 0.82702 0.0
C2049 C 0.64095 0.05927 0.80925 0.0
C2050 C 0.6274 0.07532 0.80294 0.0
H2051 H 0.64445 0.03086 0.82665 0.0
H2052 H 0.65709 0.05919 0.80428 0.0
C2053 C 0.60658 0.07492 0.80977 0.0
C2054 C 0.90414 0.94445 0.3222 0.0
C2055 C 0.89066 0.96053 0.32848 0.0
H2056 H 0.9078 0.91613 0.30508 0.0
C2057 C 0.8697 0.95995 0.32206 0.0
H2058 H 0.92035 0.94439 0.32697 0.0
C2059 C 0.86252 0.94379 0.30919 0.0
C2060 C 0.87609 0.92777 0.30287 0.0
H2061 H 0.85897 0.97218 0.32661 0.0
H2062 H 0.84637 0.94384 0.30423 0.0
C2063 C 0.89691 0.92819 0.3097 0.0
C2064 C 0.44402 0.30937 0.11252 0.0
C2065 C 0.45033 0.32537 0.12613 0.0
H2066 H 0.42661 0.28099 0.1089 0.0
C2067 C 0.44347 0.3249 0.14694 0.0
H2068 H 0.44901 0.30935 0.09638 0.0
C2069 C 0.43096 0.30863 0.15413 0.0
C2070 C 0.4247 0.29258 0.14061 0.0
H2071 H 0.44808 0.33695 0.15786 0.0
H2072 H 0.42618 0.30866 0.17033 0.0
C2073 C 0.43115 0.2932 0.11966 0.0
C2074 C 0.42795 0.69361 0.89696 0.0
C2075 C 0.42745 0.7004 0.87613 0.0
H2076 H 0.44422 0.67638 0.92037 0.0
C2077 C 0.44343 0.69405 0.86251 0.0
H2078 H 0.41592 0.69825 0.90788 0.0
C2079 C 0.45961 0.6812 0.86966 0.0
C2080 C 0.46027 0.67482 0.89063 0.0
H2081 H 0.44343 0.69899 0.84636 0.0
H2082 H 0.4718 0.67662 0.8589 0.0
C2083 C 0.44423 0.68112 0.90415 0.0
C2084 C 0.05906 0.69406 0.61235 0.0
C2085 C 0.05274 0.67803 0.62592 0.0
H2086 H 0.07651 0.72243 0.60882 0.0
C2087 C 0.0596 0.67842 0.64673 0.0
H2088 H 0.05406 0.69413 0.59622 0.0
C2089 C 0.07213 0.69465 0.65396 0.0
C2090 C 0.07841 0.71074 0.64049 0.0
H2091 H 0.05498 0.66635 0.65761 0.0
H2092 H 0.07692 0.69457 0.67016 0.0
C2093 C 0.07195 0.71019 0.61954 0.0
C2094 C 0.07511 0.30964 0.39682 0.0
C2095 C 0.0755 0.30277 0.37601 0.0
H2096 H 0.05895 0.32696 0.42024 0.0
C2097 C 0.05947 0.30908 0.36244 0.0
H2098 H 0.08718 0.30502 0.4077 0.0
C2099 C 0.04333 0.32198 0.36962 0.0
C2100 C 0.04278 0.32844 0.39057 0.0
H2101 H 0.05939 0.30409 0.3463 0.0
H2102 H 0.03109 0.32652 0.35889 0.0
C2103 C 0.05887 0.32217 0.40404 0.0
C2104 C 0.43123 0.70986 0.38339 0.0
C2105 C 0.42485 0.71044 0.36241 0.0
H2106 H 0.44904 0.69376 0.40674 0.0
C2107 C 0.43116 0.69437 0.34894 0.0
H2108 H 0.42665 0.72208 0.39411 0.0
C2109 C 0.44367 0.67812 0.35618 0.0
C2110 C 0.45046 0.6777 0.37702 0.0
H2111 H 0.42643 0.69432 0.33272 0.0
H2112 H 0.44832 0.66607 0.3453 0.0
C2113 C 0.4441 0.69371 0.39058 0.0
C2114 C 0.04359 0.68129 0.13368 0.0
C2115 C 0.04297 0.6749 0.11271 0.0
H2116 H 0.05974 0.69908 0.15701 0.0
C2117 C 0.05905 0.68116 0.09923 0.0
H2118 H 0.03136 0.67674 0.14442 0.0
C2119 C 0.07532 0.69364 0.10645 0.0
C2120 C 0.07578 0.70045 0.12727 0.0
H2121 H 0.05908 0.67642 0.08301 0.0
H2122 H 0.08738 0.69827 0.09555 0.0
C2123 C 0.05976 0.69413 0.14086 0.0
C2124 C 0.07239 0.30877 0.84896 0.0
C2125 C 0.07866 0.29271 0.86246 0.0
H2126 H 0.05526 0.33708 0.84524 0.0
C2127 C 0.07223 0.29333 0.88342 0.0
H2128 H 0.07716 0.3088 0.83275 0.0
C2129 C 0.05936 0.30949 0.89057 0.0
C2130 C 0.05304 0.32549 0.87696 0.0
H2131 H 0.07679 0.28112 0.89417 0.0
H2132 H 0.05438 0.30947 0.90671 0.0
C2133 C 0.05988 0.32503 0.85615 0.0
C2134 C 0.4602 0.32209 0.63393 0.0
C2135 C 0.4608 0.32861 0.613 0.0
H2136 H 0.44409 0.30414 0.65717 0.0
C2137 C 0.44472 0.32239 0.59949 0.0
H2138 H 0.47242 0.3266 0.64469 0.0
C2139 C 0.42847 0.30984 0.60664 0.0
C2140 C 0.42804 0.30291 0.62743 0.0
H2141 H 0.44467 0.32723 0.5833 0.0
H2142 H 0.41641 0.30527 0.59572 0.0
C2143 C 0.44405 0.30919 0.64104 0.0
C2144 C 0.11236 0.44404 0.3093 0.0
C2145 C 0.12595 0.45035 0.32531 0.0
H2146 H 0.10878 0.4266 0.28093 0.0
C2147 C 0.14676 0.44349 0.32489 0.0
H2148 H 0.09622 0.44903 0.30925 0.0
C2149 C 0.15396 0.43096 0.30864 0.0
C2150 C 0.14047 0.4247 0.29257 0.0
H2151 H 0.15766 0.44811 0.33695 0.0
H2152 H 0.17016 0.42617 0.3087 0.0
C2153 C 0.11951 0.43115 0.29315 0.0
C2154 C 0.3222 0.40404 0.05889 0.0
C2155 C 0.32847 0.39057 0.0428 0.0
H2156 H 0.30506 0.4077 0.0872 0.0
C2157 C 0.32205 0.36961 0.04337 0.0
H2158 H 0.32696 0.42026 0.05896 0.0
C2159 C 0.30918 0.36243 0.05951 0.0
C2160 C 0.30285 0.376 0.07554 0.0
H2161 H 0.3266 0.35889 0.03113 0.0
H2162 H 0.3042 0.34628 0.05945 0.0
C2163 C 0.30968 0.39681 0.07513 0.0
C2164 C 0.39029 0.55931 0.80956 0.0
C2165 C 0.37667 0.55292 0.82553 0.0
H2166 H 0.3939 0.57679 0.78122 0.0
C2167 C 0.35584 0.55969 0.82503 0.0
H2168 H 0.40645 0.55439 0.80957 0.0
C2169 C 0.34863 0.5722 0.80877 0.0
C2170 C 0.36216 0.57855 0.79275 0.0
H2171 H 0.34492 0.55502 0.83705 0.0
H2172 H 0.33241 0.57692 0.80877 0.0
C2173 C 0.38313 0.57218 0.7934 0.0
C2174 C 0.19337 0.60634 0.57474 0.0
C2175 C 0.20025 0.62714 0.57517 0.0
H2176 H 0.17602 0.58295 0.55856 0.0
C2177 C 0.19395 0.64074 0.55916 0.0
H2178 H 0.19797 0.59543 0.5868 0.0
C2179 C 0.18105 0.6336 0.54301 0.0
C2180 C 0.17457 0.61265 0.54243 0.0
H2181 H 0.19896 0.65687 0.55911 0.0
H2182 H 0.17652 0.64434 0.53079 0.0
C2183 C 0.18083 0.59915 0.5585 0.0
C2184 C 0.11982 0.57217 0.20985 0.0
C2185 C 0.14079 0.57859 0.21044 0.0
H2186 H 0.09651 0.55433 0.19373 0.0
C2187 C 0.15427 0.57232 0.19437 0.0
H2188 H 0.10909 0.57672 0.22207 0.0
C2189 C 0.14706 0.55982 0.17811 0.0
C2190 C 0.12624 0.55298 0.17768 0.0
H2191 H 0.17049 0.57709 0.19432 0.0
H2192 H 0.15796 0.55519 0.16605 0.0
C2193 C 0.11265 0.55931 0.19369 0.0
C2194 C 0.18112 0.40416 0.94447 0.0
C2195 C 0.17486 0.39066 0.96053 0.0
H2196 H 0.19825 0.40786 0.91615 0.0
C2197 C 0.18127 0.3697 0.95992 0.0
H2198 H 0.17636 0.42037 0.94443 0.0
C2199 C 0.19413 0.36254 0.94376 0.0
C2200 C 0.20046 0.37613 0.92775 0.0
H2201 H 0.17672 0.35895 0.97214 0.0
H2202 H 0.19911 0.34639 0.94379 0.0
C2203 C 0.19363 0.39695 0.9282 0.0
C2204 C 0.35663 0.44354 0.67836 0.0
C2205 C 0.37743 0.45045 0.67801 0.0
H2206 H 0.33321 0.42616 0.69445 0.0
C2207 C 0.39098 0.44415 0.69407 0.0
H2208 H 0.34576 0.44814 0.66627 0.0
C2209 C 0.38379 0.43123 0.71018 0.0
C2210 C 0.36285 0.42473 0.71068 0.0
H2211 H 0.4071 0.44918 0.69418 0.0
H2212 H 0.3945 0.4267 0.72244 0.0
C2213 C 0.3494 0.43098 0.69457 0.0
C2214 C 0.32228 0.63338 0.46008 0.0
C2215 C 0.32872 0.61243 0.46075 0.0
H2216 H 0.30443 0.65664 0.4439 0.0
C2217 C 0.32244 0.59888 0.44472 0.0
H2218 H 0.32684 0.64416 0.47227 0.0
C2219 C 0.30991 0.60604 0.42844 0.0
C2220 C 0.30308 0.62685 0.42794 0.0
H2221 H 0.32721 0.58267 0.44472 0.0
H2222 H 0.30529 0.5951 0.41643 0.0
C2223 C 0.3094 0.64049 0.44391 0.0
C2224 C 0.325 0.14689 0.44344 0.0
C2225 C 0.32545 0.1261 0.45034 0.0
H2226 H 0.30878 0.17025 0.42607 0.0
C2227 C 0.30945 0.11248 0.44405 0.0
H2228 H 0.33704 0.15782 0.44803 0.0
C2229 C 0.2933 0.11959 0.43115 0.0
C2230 C 0.29269 0.14053 0.42465 0.0
H2231 H 0.30943 0.09635 0.44908 0.0
H2232 H 0.28109 0.10883 0.42662 0.0
C2233 C 0.30874 0.15405 0.43089 0.0
C2234 C 0.80965 0.39073 0.55938 0.0
C2235 C 0.82566 0.37713 0.55308 0.0
H2236 H 0.78127 0.39434 0.57681 0.0
C2237 C 0.82523 0.35633 0.55998 0.0
H2238 H 0.8096 0.40686 0.55436 0.0
C2239 C 0.80898 0.34915 0.57252 0.0
C2240 C 0.7929 0.36266 0.57876 0.0
H2241 H 0.83728 0.34542 0.55538 0.0
H2242 H 0.80903 0.33295 0.57733 0.0
C2243 C 0.7935 0.3836 0.57228 0.0
C2244 C 0.4041 0.05866 0.32216 0.0
C2245 C 0.3906 0.0426 0.32844 0.0
H2246 H 0.40779 0.08695 0.30499 0.0
C2247 C 0.36965 0.04318 0.32199 0.0
H2248 H 0.4203 0.05872 0.32694 0.0
C2249 C 0.36249 0.05932 0.3091 0.0
C2250 C 0.37608 0.07533 0.30276 0.0
H2251 H 0.35891 0.03097 0.32656 0.0
H2252 H 0.34635 0.05927 0.30411 0.0
C2253 C 0.39689 0.0749 0.30962 0.0
C2254 C 0.6781 0.64682 0.05962 0.0
C2255 C 0.67763 0.626 0.05279 0.0
H2256 H 0.69436 0.67022 0.07688 0.0
C2257 C 0.69363 0.61239 0.05911 0.0
H2258 H 0.66606 0.65773 0.055 0.0
C2259 C 0.7098 0.61954 0.07197 0.0
C2260 C 0.71043 0.6405 0.07839 0.0
H2261 H 0.69364 0.59624 0.05414 0.0
H2262 H 0.72201 0.60878 0.07652 0.0
C2263 C 0.69438 0.65401 0.07212 0.0
C2264 C 0.59931 0.44448 0.32241 0.0
C2265 C 0.61281 0.46054 0.32869 0.0
H2266 H 0.59559 0.41619 0.30526 0.0
C2267 C 0.63377 0.45993 0.32225 0.0
H2268 H 0.5831 0.44444 0.32718 0.0
C2269 C 0.64092 0.44378 0.30937 0.0
C2270 C 0.62732 0.42778 0.30304 0.0
H2271 H 0.64452 0.47214 0.32681 0.0
H2272 H 0.65706 0.44381 0.30439 0.0
C2273 C 0.6065 0.42823 0.30988 0.0
C2274 C 0.17793 0.85654 0.9436 0.0
C2275 C 0.17746 0.87735 0.95045 0.0
H2276 H 0.19417 0.83314 0.92632 0.0
C2277 C 0.19346 0.89096 0.94413 0.0
H2278 H 0.16589 0.84562 0.94822 0.0
C2279 C 0.20963 0.88382 0.93126 0.0
C2280 C 0.21026 0.86286 0.92484 0.0
H2281 H 0.19348 0.9071 0.94911 0.0
H2282 H 0.22184 0.89457 0.92672 0.0
C2283 C 0.1942 0.84935 0.93109 0.0
C2284 C 0.36272 0.94382 0.194 0.0
C2285 C 0.37632 0.92782 0.20035 0.0
H2286 H 0.35914 0.97216 0.17652 0.0
C2287 C 0.39714 0.92825 0.19352 0.0
H2288 H 0.34658 0.94386 0.19897 0.0
C2289 C 0.40434 0.94449 0.18098 0.0
C2290 C 0.39085 0.96054 0.17467 0.0
H2291 H 0.40804 0.91621 0.19817 0.0
H2292 H 0.42056 0.94444 0.17622 0.0
C2293 C 0.36989 0.95995 0.1811 0.0
C2294 C 0.14063 0.0593 0.6941 0.0
C2295 C 0.12707 0.07535 0.70042 0.0
H2296 H 0.14415 0.03092 0.67668 0.0
C2297 C 0.10626 0.07495 0.69358 0.0
H2298 H 0.15678 0.05923 0.69908 0.0
C2299 C 0.09901 0.0587 0.68107 0.0
C2300 C 0.11248 0.04261 0.6748 0.0
H2301 H 0.09538 0.08702 0.6982 0.0
H2302 H 0.08281 0.05878 0.6763 0.0
C2303 C 0.13344 0.04316 0.68123 0.0
C2304 C 0.0497 0.12917 0.4727 0.0
C2305 C 0.04956 0.12084 0.45242 0.0
H2306 H 0.06612 0.13223 0.50155 0.0
C2307 C 0.06586 0.10748 0.44634 0.0
H2308 H 0.0374 0.13949 0.47793 0.0
C2309 C 0.0823 0.1031 0.46008 0.0
C2310 C 0.08286 0.11226 0.47999 0.0
H2311 H 0.06616 0.10076 0.43085 0.0
H2312 H 0.09495 0.09322 0.4548 0.0
C2313 C 0.06622 0.12505 0.48626 0.0
C2314 C 0.12806 0.816 0.73624 0.0
C2315 C 0.14081 0.83266 0.72998 0.0
H2316 H 0.11364 0.78717 0.72791 0.0
C2317 C 0.14997 0.83212 0.71006 0.0
H2318 H 0.12088 0.81589 0.75154 0.0
C2319 C 0.1456 0.81569 0.69632 0.0
C2320 C 0.13226 0.79937 0.70239 0.0
H2321 H 0.15983 0.84478 0.70478 0.0
H2322 H 0.15231 0.816 0.68082 0.0
C2323 C 0.12395 0.79949 0.72268 0.0
C2324 C 0.43727 0.87816 0.98588 0.0
C2325 C 0.42065 0.89098 0.97961 0.0
H2326 H 0.46604 0.86363 0.97756 0.0
C2327 C 0.42122 0.90011 0.95968 0.0
H2328 H 0.43735 0.871 1.00119 0.0
C2329 C 0.43763 0.89567 0.94594 0.0
C2330 C 0.45391 0.88227 0.95202 0.0
H2331 H 0.40859 0.91001 0.9544 0.0
H2332 H 0.43734 0.90236 0.93044 0.0
C2333 C 0.45376 0.87397 0.97232 0.0
C2334 C 0.3791 0.20361 0.22259 0.0
C2335 C 0.37087 0.20374 0.20227 0.0
H2336 H 0.38205 0.1872 0.25146 0.0
C2337 C 0.35754 0.18743 0.19615 0.0
H2338 H 0.3894 0.21593 0.22787 0.0
C2339 C 0.35311 0.171 0.20986 0.0
C2340 C 0.36219 0.17045 0.22982 0.0
H2341 H 0.35089 0.18712 0.18062 0.0
H2342 H 0.34326 0.15834 0.20455 0.0
C2343 C 0.37493 0.1871 0.23613 0.0
C2344 C 0.06545 0.89561 0.05724 0.0
C2345 C 0.04919 0.88219 0.05118 0.0
H2346 H 0.09447 0.90999 0.04875 0.0
C2347 C 0.04934 0.87388 0.03089 0.0
H2348 H 0.06575 0.90231 0.07274 0.0
C2349 C 0.06581 0.87809 0.01731 0.0
C2350 C 0.08241 0.89093 0.02356 0.0
H2351 H 0.03706 0.86352 0.02567 0.0
H2352 H 0.06572 0.87092 0.00201 0.0
C2353 C 0.08185 0.90007 0.04349 0.0
C2354 C 0.37925 0.79938 0.28034 0.0
C2355 C 0.37094 0.79919 0.30063 0.0
H2356 H 0.38228 0.81587 0.25153 0.0
C2357 C 0.35758 0.81548 0.30675 0.0
H2358 H 0.38957 0.78709 0.27508 0.0
C2359 C 0.35319 0.83195 0.29306 0.0
C2360 C 0.36234 0.83256 0.27315 0.0
H2361 H 0.35088 0.81574 0.32226 0.0
H2362 H 0.34331 0.84458 0.29838 0.0
C2363 C 0.37511 0.81592 0.26683 0.0
C2364 C 0.4373 0.12529 0.51695 0.0
C2365 C 0.42072 0.11245 0.52323 0.0
H2366 H 0.4661 0.13982 0.52523 0.0
C2367 C 0.42135 0.10326 0.54313 0.0
H2368 H 0.43734 0.1325 0.50166 0.0
C2369 C 0.43781 0.10767 0.55683 0.0
C2370 C 0.45406 0.1211 0.55074 0.0
H2371 H 0.40875 0.09333 0.54842 0.0
H2372 H 0.43756 0.10093 0.57232 0.0
C2373 C 0.45383 0.12945 0.53047 0.0
C2374 C 0.15021 0.1711 0.79322 0.0
C2375 C 0.1411 0.17053 0.77328 0.0
H2376 H 0.15249 0.18726 0.82244 0.0
C2377 C 0.12836 0.18718 0.76696 0.0
H2378 H 0.16006 0.15844 0.79853 0.0
C2379 C 0.12422 0.20371 0.78049 0.0
C2380 C 0.13248 0.20386 0.80079 0.0
H2381 H 0.12122 0.18726 0.75164 0.0
H2382 H 0.11392 0.21602 0.77521 0.0
C2383 C 0.14582 0.18755 0.80692 0.0
C2384 C 0.46021 0.08206 0.10307 0.0
C2385 C 0.48013 0.08265 0.11221 0.0
H2386 H 0.43099 0.06589 0.10078 0.0
C2387 C 0.48643 0.06603 0.12501 0.0
H2388 H 0.45491 0.09469 0.09318 0.0
C2389 C 0.47289 0.04951 0.12917 0.0
C2390 C 0.4526 0.04934 0.12086 0.0
H2391 H 0.50173 0.06596 0.13217 0.0
H2392 H 0.47815 0.03722 0.1395 0.0
C2393 C 0.4465 0.06562 0.10748 0.0
C2394 C 0.18751 0.19603 0.35744 0.0
C2395 C 0.20385 0.20215 0.37075 0.0
H2396 H 0.15841 0.20445 0.34319 0.0
C2397 C 0.20375 0.22248 0.37895 0.0
H2398 H 0.18718 0.18049 0.35082 0.0
C2399 C 0.18726 0.23604 0.37478 0.0
C2400 C 0.17058 0.22973 0.36206 0.0
H2401 H 0.21609 0.22776 0.38922 0.0
H2402 H 0.18739 0.25138 0.38187 0.0
C2403 C 0.17109 0.20976 0.35301 0.0
C2404 C 0.0168 0.93724 0.62504 0.0
C2405 C 0.0231 0.92061 0.61225 0.0
H2406 H 0.02509 0.96604 0.63953 0.0
C2407 C 0.04302 0.9212 0.60311 0.0
H2408 H 1.0015 0.93731 0.63221 0.0
C2409 C 0.05673 0.93764 0.60753 0.0
C2410 C 0.05063 0.95392 0.62091 0.0
H2411 H 0.04832 0.90856 0.59323 0.0
H2412 H 0.07224 0.93736 0.60083 0.0
C2413 C 0.03034 0.95375 0.6292 0.0
C2414 C 0.31576 0.76723 0.8754 0.0
C2415 C 0.33233 0.77345 0.8625 0.0
H2416 H 0.28702 0.77559 0.88997 0.0
C2417 C 0.33172 0.79333 0.85328 0.0
H2418 H 0.31571 0.75196 0.88264 0.0
C2419 C 0.3153 0.80707 0.85769 0.0
C2420 C 0.29907 0.80104 0.87116 0.0
H2421 H 0.34431 0.79857 0.84331 0.0
H2422 H 0.31556 0.82255 0.85092 0.0
C2423 C 0.29927 0.78079 0.87957 0.0
C2424 C 0.45989 0.9211 0.40006 0.0
C2425 C 0.47982 0.92052 0.39094 0.0
H2426 H 0.43068 0.93727 0.40237 0.0
C2427 C 0.48614 0.93718 0.3782 0.0
H2428 H 0.45458 0.90844 0.40991 0.0
C2429 C 0.47262 0.95372 0.37408 0.0
C2430 C 0.45232 0.95387 0.38236 0.0
H2431 H 0.50145 0.93726 0.37105 0.0
H2432 H 0.47789 0.96604 0.36379 0.0
C2433 C 0.44619 0.93756 0.39569 0.0
C2434 C 0.29975 0.2226 0.6242 0.0
C2435 C 0.29959 0.2023 0.63248 0.0
H2436 H 0.31618 0.25144 0.6212 0.0
C2437 C 0.31591 0.19618 0.64583 0.0
H2438 H 0.28744 0.22786 0.6139 0.0
C2439 C 0.33235 0.2099 0.65023 0.0
C2440 C 0.33292 0.22983 0.64111 0.0
H2441 H 0.3162 0.18067 0.65251 0.0
H2442 H 0.345 0.20459 0.66009 0.0
C2443 C 0.31627 0.23613 0.62835 0.0
C2444 C 0.05686 0.06574 0.89575 0.0
C2445 C 0.0507 0.04946 0.88239 0.0
H2446 H 0.04853 0.09484 0.91005 0.0
C2447 C 0.03039 0.04966 0.87414 0.0
H2448 H 0.07238 0.066 0.90241 0.0
C2449 C 0.01689 0.06619 0.87833 0.0
C2450 C 0.02324 0.08282 0.89109 0.0
H2451 H 0.02509 0.03737 0.86383 0.0
H2452 H 1.00156 0.06614 0.8712 0.0
C2453 C 0.04318 0.08221 0.90019 0.0
C2454 C 0.20392 0.78086 0.12397 0.0
C2455 C 0.20405 0.80117 0.13223 0.0
H2456 H 0.18756 0.75197 0.12104 0.0
C2457 C 0.18776 0.80726 0.1456 0.0
H2458 H 0.21622 0.77561 0.11364 0.0
C2459 C 0.17136 0.79351 0.15006 0.0
C2460 C 0.17082 0.77356 0.14097 0.0
H2461 H 0.18744 0.82277 0.15227 0.0
H2462 H 0.15871 0.79879 0.15995 0.0
C2463 C 0.18745 0.76729 0.12817 0.0
C2464 C 0.12936 0.47273 0.04944 0.0
C2465 C 0.12106 0.45243 0.04929 0.0
H2466 H 0.13237 0.50158 0.06586 0.0
C2467 C 0.10768 0.44635 0.06558 0.0
H2468 H 0.13969 0.47797 0.03714 0.0
C2469 C 0.10327 0.46008 0.082 0.0
C2470 C 0.11241 0.48 0.08257 0.0
H2471 H 0.10098 0.43084 0.06587 0.0
H2472 H 0.09338 0.45479 0.09464 0.0
C2473 C 0.1252 0.48628 0.06594 0.0
C2474 C 0.62504 0.01688 0.93717 0.0
C2475 C 0.61228 0.02318 0.92052 0.0
H2476 H 0.63951 0.02516 0.96599 0.0
C2477 C 0.60319 0.04313 0.92106 0.0
H2478 H 0.63216 1.00156 0.93727 0.0
C2479 C 0.60762 0.05686 0.9375 0.0
C2480 C 0.62096 0.05074 0.9538 0.0
H2481 H 0.59334 0.04844 0.90841 0.0
H2482 H 0.60096 0.07238 0.93718 0.0
C2483 C 0.62921 0.03043 0.95367 0.0
C2484 C 0.22256 0.37903 0.20375 0.0
C2485 C 0.20224 0.37081 0.20385 0.0
H2486 H 0.25145 0.38196 0.18738 0.0
C2487 C 0.19613 0.35746 0.18754 0.0
H2488 H 0.22782 0.38933 0.21607 0.0
C2489 C 0.20987 0.35302 0.17113 0.0
C2490 C 0.22983 0.3621 0.17061 0.0
H2491 H 0.1806 0.35082 0.18721 0.0
H2492 H 0.20458 0.34317 0.15847 0.0
C2493 C 0.23613 0.37484 0.18726 0.0
C2494 C 0.8957 0.94616 0.43745 0.0
C2495 C 0.88239 0.95229 0.45378 0.0
H2496 H 0.90996 0.95455 0.40835 0.0
C2497 C 0.8742 0.97263 0.45367 0.0
H2498 H 0.90232 0.93062 0.43713 0.0
C2499 C 0.87838 0.98617 0.43717 0.0
C2500 C 0.89109 0.97984 0.4205 0.0
H2501 H 0.86393 0.97791 0.466 0.0
H2502 H 0.87129 1.00151 0.43729 0.0
C2503 C 0.90014 0.95988 0.42102 0.0
C2504 C 0.80681 0.14568 0.18769 0.0
C2505 C 0.80072 0.13228 0.20396 0.0
H2506 H 0.79839 0.15999 0.15862 0.0
C2507 C 0.78044 0.12396 0.20378 0.0
H2508 H 0.82231 0.1524 0.18743 0.0
C2509 C 0.76691 0.12811 0.18726 0.0
C2510 C 0.77319 0.14092 0.17064 0.0
H2511 H 0.7752 0.11361 0.21606 0.0
H2512 H 0.75161 0.12092 0.18732 0.0
C2513 C 0.7931 0.15009 0.17125 0.0
C2514 C 0.37458 0.5306 0.54973 0.0
C2515 C 0.38272 0.55096 0.54963 0.0
H2516 H 0.37172 0.50172 0.56612 0.0
C2517 C 0.39599 0.55714 0.56598 0.0
H2518 H 0.36435 0.52528 0.53738 0.0
C2519 C 0.40043 0.54343 0.58242 0.0
C2520 C 0.39143 0.52344 0.58294 0.0
H2521 H 0.40256 0.57269 0.56631 0.0
H2522 H 0.41021 0.54879 0.59511 0.0
C2523 C 0.37877 0.51707 0.56624 0.0
C2524 C 0.2103 0.6498 0.33209 0.0
C2525 C 0.23018 0.64056 0.33271 0.0
H2526 H 0.18111 0.65222 0.3159 0.0
C2527 C 0.23641 0.62769 0.31612 0.0
H2528 H 0.20504 0.65974 0.3447 0.0
C2529 C 0.22287 0.62358 0.29959 0.0
C2530 C 0.20262 0.632 0.29939 0.0
H2531 H 0.25168 0.62045 0.31607 0.0
H2532 H 0.22808 0.61321 0.28732 0.0
C2533 C 0.19658 0.64543 0.31565 0.0
C2534 C 0.29332 0.35311 0.83205 0.0
C2535 C 0.2734 0.36227 0.83262 0.0
H2536 H 0.32254 0.35078 0.8159 0.0
C2537 C 0.26712 0.37504 0.81597 0.0
H2538 H 0.29861 0.34324 0.84469 0.0
C2539 C 0.28066 0.37917 0.79945 0.0
C2540 C 0.30095 0.37086 0.7993 0.0
H2541 H 0.25182 0.38222 0.81589 0.0
H2542 H 0.27542 0.38949 0.78715 0.0
C2543 C 0.30704 0.35749 0.8156 0.0
C2544 C 0.92101 0.90003 0.54313 0.0
C2545 C 0.92044 0.89085 0.52323 0.0
H2546 H 0.93716 0.90239 0.57235 0.0
C2547 C 0.93706 0.87805 0.51697 0.0
H2548 H 0.90838 0.90993 0.5484 0.0
C2549 C 0.95358 0.87392 0.53052 0.0
C2550 C 0.95374 0.88227 0.55079 0.0
H2551 H 0.93714 0.87085 0.50168 0.0
H2552 H 0.96587 0.86358 0.5253 0.0
C2553 C 0.93745 0.89565 0.55686 0.0
C2554 C 0.87898 0.20369 0.28072 0.0
C2555 C 0.87077 0.20378 0.30105 0.0
H2556 H 0.88191 0.18733 0.25182 0.0
C2557 C 0.85746 0.18745 0.30717 0.0
H2558 H 0.88925 0.21602 0.27546 0.0
C2559 C 0.85303 0.17103 0.29343 0.0
C2560 C 0.86209 0.17052 0.27346 0.0
H2561 H 0.85083 0.1871 0.3227 0.0
H2562 H 0.84321 0.15835 0.29873 0.0
C2563 C 0.87481 0.1872 0.26716 0.0
C2564 C 0.54969 0.1292 0.0305 0.0
C2565 C 0.54954 0.12091 0.05079 0.0
H2566 H 0.56612 0.1322 0.00164 0.0
C2567 C 0.56582 0.10753 0.05689 0.0
H2568 H 0.5374 0.13953 0.02525 0.0
C2569 C 0.58225 0.10311 0.04316 0.0
C2570 C 0.58282 0.11224 0.02323 0.0
H2571 H 0.56611 0.10083 0.07239 0.0
H2572 H 0.59489 0.09322 0.04845 0.0
C2573 C 0.5662 0.12503 0.01695 0.0
C2574 C 0.64566 0.81537 0.80663 0.0
C2575 C 0.63226 0.79912 0.80051 0.0
H2576 H 0.65995 0.84447 0.79826 0.0
C2577 C 0.62391 0.79934 0.78024 0.0
H2578 H 0.65239 0.81561 0.82212 0.0
C2579 C 0.62804 0.8159 0.76674 0.0
C2580 C 0.64085 0.8325 0.77305 0.0
H2581 H 0.61356 0.78707 0.77498 0.0
H2582 H 0.62083 0.81588 0.75146 0.0
C2583 C 0.65004 0.83185 0.79295 0.0
C2584 C 0.93738 0.12539 0.98644 0.0
C2585 C 0.92078 0.11254 0.9802 0.0
H2586 H 0.96614 0.13993 0.97807 0.0
C2587 C 0.92135 0.10336 0.9603 0.0
H2588 H 0.93745 0.13259 0.00173 0.0
C2589 C 0.93776 0.10778 0.94655 0.0
C2590 C 0.95402 0.1212 0.95259 0.0
H2591 H 0.90874 0.09343 0.95504 0.0
H2592 H 0.93747 0.10104 0.93106 0.0
C2593 C 0.95386 0.12956 0.97287 0.0
C2594 C 0.65048 0.171 0.71008 0.0
C2595 C 0.64142 0.17047 0.73004 0.0
H2596 H 0.65269 0.18711 0.68082 0.0
C2597 C 0.62869 0.18713 0.73636 0.0
H2598 H 0.66031 0.15833 0.70476 0.0
C2599 C 0.62452 0.20364 0.72281 0.0
C2600 C 0.63273 0.20375 0.70248 0.0
H2601 H 0.62159 0.18724 0.75169 0.0
H2602 H 0.61424 0.21596 0.72809 0.0
C2603 C 0.64605 0.18743 0.69635 0.0
C2604 C 0.54931 0.8741 0.47263 0.0
C2605 C 0.54917 0.88236 0.45232 0.0
H2606 H 0.56572 0.87117 0.5015 0.0
C2607 C 0.56545 0.89574 0.44621 0.0
H2608 H 0.53702 0.86378 0.47789 0.0
C2609 C 0.58187 0.90019 0.45994 0.0
C2610 C 0.58243 0.89109 0.47988 0.0
H2611 H 0.56575 0.9024 0.43069 0.0
H2612 H 0.59451 0.91007 0.45463 0.0
C2613 C 0.56581 0.8783 0.48618 0.0
C2614 C 0.85294 0.83195 0.21013 0.0
C2615 C 0.86207 0.83253 0.23006 0.0
H2616 H 0.85062 0.81576 0.18093 0.0
C2617 C 0.87479 0.81587 0.23639 0.0
H2618 H 0.8431 0.84461 0.20481 0.0
C2619 C 0.8789 0.79932 0.22288 0.0
C2620 C 0.87063 0.79916 0.20258 0.0
H2621 H 0.88195 0.8158 0.2517 0.0
H2622 H 0.88919 0.787 0.22815 0.0
C2623 C 0.8573 0.81548 0.19644 0.0
C2624 C 0.5569 0.93748 0.89549 0.0
C2625 C 0.55083 0.95377 0.88211 0.0
H2626 H 0.54845 0.90838 0.90973 0.0
C2627 C 0.53057 0.95359 0.87373 0.0
H2628 H 0.57237 0.9372 0.90226 0.0
C2629 C 0.51703 0.93706 0.87781 0.0
C2630 C 0.52329 0.92042 0.89061 0.0
H2631 H 0.52535 0.96589 0.86339 0.0
H2632 H 0.50176 0.93712 0.87058 0.0
C2633 C 0.54318 0.92102 0.89983 0.0
C2634 C 0.81583 0.76705 0.62804 0.0
C2635 C 0.83246 0.77334 0.64082 0.0
H2636 H 0.78701 0.77533 0.61357 0.0
C2637 C 0.8319 0.79327 0.64994 0.0
H2638 H 0.81574 0.75174 0.62089 0.0
C2639 C 0.81546 0.80699 0.64553 0.0
C2640 C 0.79916 0.80089 0.63217 0.0
H2641 H 0.84454 0.79857 0.65982 0.0
H2642 H 0.81575 0.8225 0.65222 0.0
C2643 C 0.79931 0.78059 0.62389 0.0
C2644 C 0.94643 0.06553 0.3957 0.0
C2645 C 0.95251 0.04925 0.38231 0.0
H2646 H 0.95487 0.09459 0.41002 0.0
C2647 C 0.97281 0.0494 0.37402 0.0
H2648 H 0.93092 0.06583 0.40239 0.0
C2649 C 0.98637 0.06589 0.3782 0.0
C2650 C 0.98009 0.08252 0.391 0.0
H2651 H 0.97805 0.0371 0.36369 0.0
H2652 H 0.00167 0.06581 0.37104 0.0
C2653 C 0.96016 0.08195 0.40013 0.0
C2654 C 0.6872 0.23621 0.12823 0.0
C2655 C 0.67054 0.22993 0.141 0.0
H2656 H 0.71601 0.22789 0.11377 0.0
C2657 C 0.67108 0.20999 0.15011 0.0
H2658 H 0.6873 0.25152 0.12109 0.0
C2659 C 0.6875 0.19625 0.14569 0.0
C2660 C 0.70381 0.20234 0.13234 0.0
H2661 H 0.65842 0.2047 0.15997 0.0
H2662 H 0.68719 0.18073 0.15237 0.0
C2663 C 0.70369 0.22265 0.12408 0.0
C2664 C 0.55728 0.06585 0.60748 0.0
C2665 C 0.55114 0.04952 0.62079 0.0
H2666 H 0.54888 0.09495 0.59322 0.0
C2667 C 0.5308 0.04962 0.62897 0.0
H2668 H 0.57282 0.06618 0.60087 0.0
C2669 C 0.51725 0.06611 0.62478 0.0
C2670 C 0.52358 0.08279 0.61207 0.0
H2671 H 0.52551 0.03729 0.63923 0.0
H2672 H 0.5019 0.06599 0.63186 0.0
C2673 C 0.54355 0.08227 0.60304 0.0
C2674 C 0.67097 0.79333 0.35301 0.0
C2675 C 0.67044 0.77338 0.3621 0.0
H2676 H 0.68708 0.82258 0.35077 0.0
C2677 C 0.6871 0.76707 0.37483 0.0
H2678 H 0.6583 0.79863 0.34317 0.0
C2679 C 0.7036 0.78062 0.37899 0.0
C2680 C 0.70372 0.80094 0.37076 0.0
H2681 H 0.68722 0.75175 0.38195 0.0
H2682 H 0.71593 0.77536 0.38928 0.0
C2683 C 0.6874 0.80705 0.35742 0.0
C2684 C 0.98625 0.93707 0.12539 0.0
C2685 C 0.97994 0.92045 0.11261 0.0
H2686 H 0.97802 0.96591 0.13984 0.0
C2687 C 0.96003 0.92108 0.10343 0.0
H2688 H 1.00155 0.93711 0.13258 0.0
C2689 C 0.94635 0.93756 0.1078 0.0
C2690 C 0.95247 0.95384 0.12118 0.0
H2691 H 0.95472 0.90845 0.09355 0.0
H2692 H 0.93086 0.93731 0.10108 0.0
C2693 C 0.97275 0.95363 0.12951 0.0
C2694 C 0.81621 0.23629 0.87521 0.0
C2695 C 0.83285 0.23004 0.86242 0.0
H2696 H 0.78742 0.22794 0.88969 0.0
C2697 C 0.83232 0.21011 0.85329 0.0
H2698 H 0.8161 0.2516 0.88237 0.0
C2699 C 0.81591 0.19635 0.85771 0.0
C2700 C 0.79961 0.20242 0.87108 0.0
H2701 H 0.84496 0.20484 0.8434 0.0
H2702 H 0.81623 0.18085 0.85101 0.0
C2703 C 0.79972 0.22271 0.87937 0.0
C2704 C 0.89602 0.55743 0.93743 0.0
C2705 C 0.8828 0.55126 0.95381 0.0
H2706 H 0.91019 0.54906 0.90828 0.0
C2707 C 0.87468 0.53089 0.95376 0.0
H2708 H 0.90258 0.573 0.93706 0.0
C2709 C 0.87885 0.51735 0.93725 0.0
C2710 C 0.89147 0.52371 0.92052 0.0
H2711 H 0.86448 0.52558 0.96613 0.0
H2712 H 0.87182 0.50199 0.93741 0.0
C2713 C 0.90044 0.54371 0.92099 0.0
C2714 C 0.39598 0.94631 0.06551 0.0
C2715 C 0.38269 0.95248 0.04918 0.0
H2716 H 0.41018 0.95464 0.09466 0.0
C2717 C 0.37447 0.97281 0.04933 0.0
H2718 H 0.40261 0.93078 0.0658 0.0
C2719 C 0.3786 0.98631 0.06588 0.0
C2720 C 0.39129 0.97994 0.08255 0.0
H2721 H 0.36421 0.97811 0.037 0.0
H2722 H 0.3715 0.00164 0.06579 0.0
C2723 C 0.40037 0.95999 0.08199 0.0
C2724 C 0.79311 0.64995 0.83214 0.0
C2725 C 0.77322 0.64073 0.83274 0.0
H2726 H 0.8223 0.65237 0.81595 0.0
C2727 C 0.76697 0.62791 0.81613 0.0
H2728 H 0.79837 0.65987 0.84476 0.0
C2729 C 0.78051 0.62381 0.7996 0.0
C2730 C 0.80077 0.6322 0.79941 0.0
H2731 H 0.7517 0.62068 0.81607 0.0
H2732 H 0.77529 0.61346 0.78731 0.0
C2733 C 0.80683 0.6456 0.81568 0.0
C2734 C 0.12912 0.03055 0.54963 0.0
C2735 C 0.12091 0.05088 0.5495 0.0
H2736 H 0.13201 0.00167 0.56603 0.0
C2737 C 0.10757 0.05701 0.5658 0.0
H2738 H 0.13941 0.02527 0.53732 0.0
C2739 C 0.10311 0.04329 0.58223 0.0
C2740 C 0.11216 0.02333 0.58277 0.0
H2741 H 0.10094 0.07254 0.56611 0.0
H2742 H 0.09326 0.04861 0.59488 0.0
C2743 C 0.12491 0.017 0.56613 0.0
C2744 C 0.23595 0.87511 0.81615 0.0
C2745 C 0.22965 0.86237 0.83282 0.0
H2746 H 0.22767 0.88952 0.7873 0.0
C2747 C 0.20972 0.85324 0.83226 0.0
H2748 H 0.25126 0.88226 0.81606 0.0
C2749 C 0.19601 0.85761 0.81581 0.0
C2750 C 0.20211 0.87094 0.79948 0.0
H2751 H 0.20442 0.8434 0.84493 0.0
H2752 H 0.1805 0.85093 0.81611 0.0
C2753 C 0.22241 0.87922 0.79963 0.0
C2754 C 0.60331 0.45999 0.42132 0.0
C2755 C 0.61246 0.47992 0.42074 0.0
H2756 H 0.601 0.43078 0.4375 0.0
C2757 C 0.62522 0.48622 0.43738 0.0
H2758 H 0.59345 0.45469 0.40867 0.0
C2759 C 0.62935 0.47269 0.45391 0.0
C2760 C 0.62105 0.4524 0.45408 0.0
H2761 H 0.63238 0.50152 0.43746 0.0
H2762 H 0.63965 0.47795 0.46622 0.0
C2763 C 0.6077 0.44629 0.43778 0.0
C2764 C 0.7672 0.37522 0.68739 0.0
C2765 C 0.7735 0.36241 0.67077 0.0
H2766 H 0.77549 0.38975 0.71618 0.0
C2767 C 0.79343 0.35329 0.67136 0.0
H2768 H 0.75189 0.38237 0.68746 0.0
C2769 C 0.80715 0.35773 0.68779 0.0
C2770 C 0.80104 0.37112 0.70406 0.0
H2771 H 0.79873 0.34339 0.65874 0.0
H2772 H 0.82266 0.35104 0.68752 0.0
C2773 C 0.78074 0.37941 0.70389 0.0
C2774 C 0.70994 0.64991 0.17105 0.0
C2775 C 0.72985 0.64075 0.17044 0.0
H2776 H 0.68076 0.65226 0.18727 0.0
C2777 C 0.73617 0.62797 0.18707 0.0
H2778 H 0.70463 0.65979 0.15841 0.0
C2779 C 0.72266 0.62386 0.20362 0.0
C2780 C 0.70238 0.63219 0.20382 0.0
H2781 H 0.75146 0.62079 0.18712 0.0
H2782 H 0.72793 0.61354 0.21592 0.0
C2783 C 0.69626 0.64554 0.18753 0.0
C2784 C 0.54929 0.62929 0.97265 0.0
C2785 C 0.54911 0.62099 0.95236 0.0
H2786 H 0.56573 0.63225 1.0015 0.0
C2787 C 0.56537 0.60758 0.94626 0.0
H2788 H 0.53701 0.63964 0.9779 0.0
C2789 C 0.5818 0.60313 0.95998 0.0
C2790 C 0.58239 0.61226 0.97991 0.0
H2791 H 0.56564 0.60088 0.93076 0.0
H2792 H 0.59441 0.59322 0.95469 0.0
C2793 C 0.56579 0.62509 0.9862 0.0
C2794 C 0.64578 0.31567 0.19638 0.0
C2795 C 0.6324 0.29938 0.20247 0.0
H2796 H 0.66009 0.34473 0.20483 0.0
C2797 C 0.62411 0.29952 0.22277 0.0
H2798 H 0.65247 0.31597 0.18087 0.0
C2799 C 0.62829 0.31602 0.23632 0.0
C2800 C 0.64108 0.33265 0.23005 0.0
H2801 H 0.61378 0.28723 0.22801 0.0
H2802 H 0.62113 0.31593 0.25163 0.0
C2803 C 0.65021 0.33209 0.21011 0.0
C2804 C 0.93771 0.39556 0.44633 0.0
C2805 C 0.95401 0.38219 0.45242 0.0
H2806 H 0.90864 0.40985 0.45478 0.0
C2807 C 0.95387 0.3739 0.47271 0.0
H2808 H 0.93741 0.40226 0.43083 0.0
C2809 C 0.93737 0.37806 0.48627 0.0
C2810 C 0.92074 0.39084 0.48 0.0
H2811 H 0.96618 0.36358 0.47795 0.0
H2812 H 0.93747 0.3709 0.50158 0.0
C2813 C 0.92129 0.39997 0.46007 0.0
C2814 C 0.85292 0.67118 0.70992 0.0
C2815 C 0.862 0.67067 0.72987 0.0
H2816 H 0.85067 0.68727 0.68065 0.0
C2817 C 0.87471 0.68735 0.73617 0.0
H2818 H 0.8431 0.65849 0.70461 0.0
C2819 C 0.87885 0.70385 0.72261 0.0
C2820 C 0.87062 0.70395 0.70229 0.0
H2821 H 0.88182 0.68748 0.7515 0.0
H2822 H 0.88912 0.71619 0.72787 0.0
C2823 C 0.85732 0.68761 0.69618 0.0
C2824 C 0.54971 0.37416 0.53099 0.0
C2825 C 0.54962 0.3824 0.5513 0.0
H2826 H 0.56606 0.37118 0.50209 0.0
C2827 C 0.56595 0.39572 0.55739 0.0
H2828 H 0.53737 0.36387 0.52574 0.0
C2829 C 0.58237 0.40013 0.54364 0.0
C2830 C 0.58287 0.39104 0.52369 0.0
H2831 H 0.56629 0.40238 0.57291 0.0
H2832 H 0.59504 0.40997 0.54893 0.0
C2833 C 0.5662 0.3783 0.51742 0.0
C2834 C 0.85326 0.33233 0.79335 0.0
C2835 C 0.8624 0.33291 0.77343 0.0
H2836 H 0.85093 0.31616 0.82256 0.0
C2837 C 0.87514 0.31625 0.76711 0.0
H2838 H 0.84341 0.34499 0.79866 0.0
C2839 C 0.87925 0.29971 0.78064 0.0
C2840 C 0.87096 0.29955 0.80093 0.0
H2841 H 0.8823 0.31617 0.75181 0.0
H2842 H 0.88955 0.2874 0.77537 0.0
C2843 C 0.85763 0.31587 0.80705 0.0
C2844 C 0.9373 0.62574 0.01706 0.0
C2845 C 0.92074 0.61282 0.02328 0.0
H2846 H 0.96607 0.64028 0.0254 0.0
C2847 C 0.92139 0.60355 0.04315 0.0
H2848 H 0.93732 0.63301 0.00181 0.0
C2849 C 0.93784 0.60793 0.05687 0.0
C2850 C 0.95407 0.62141 0.05083 0.0
H2851 H 0.90882 0.59357 0.04839 0.0
H2852 H 0.93762 0.60112 0.07232 0.0
C2853 C 0.95382 0.62986 0.0306 0.0
C2854 C 0.65017 0.6712 0.29317 0.0
C2855 C 0.64102 0.67057 0.27325 0.0
H2856 H 0.65244 0.6874 0.32236 0.0
C2857 C 0.62821 0.68717 0.26693 0.0
H2858 H 0.66007 0.65858 0.29848 0.0
C2859 C 0.62403 0.7037 0.28045 0.0
C2860 C 0.63233 0.7039 0.30074 0.0
H2861 H 0.62104 0.68721 0.25163 0.0
H2862 H 0.61368 0.71597 0.27518 0.0
C2863 C 0.64574 0.68765 0.30686 0.0
C2864 C 0.97272 0.54968 0.62895 0.0
C2865 C 0.9524 0.54952 0.62073 0.0
H2866 H 1.00157 0.56612 0.63188 0.0
C2867 C 0.94625 0.56581 0.60738 0.0
H2868 H 0.97801 0.53738 0.63926 0.0
C2869 C 0.95994 0.58226 0.60294 0.0
C2870 C 0.9799 0.58284 0.61201 0.0
H2871 H 0.93072 0.5661 0.60074 0.0
H2872 H 0.95461 0.5949 0.59308 0.0
C2873 C 0.98624 0.5662 0.62476 0.0
C2874 C 0.67096 0.70964 0.85298 0.0
C2875 C 0.67042 0.72962 0.86201 0.0
H2876 H 0.68707 0.68039 0.85083 0.0
C2877 C 0.68707 0.73596 0.87474 0.0
H2878 H 0.6583 0.70432 0.84314 0.0
C2879 C 0.70357 0.72241 0.87896 0.0
C2880 C 0.7037 0.70208 0.87077 0.0
H2881 H 0.68718 0.7513 0.88182 0.0
H2882 H 0.71588 0.72771 0.88924 0.0
C2883 C 0.68739 0.69593 0.85744 0.0
C2884 C 0.55699 0.43748 0.10769 0.0
C2885 C 0.55091 0.45376 0.12107 0.0
H2886 H 0.54853 0.40842 0.09338 0.0
C2887 C 0.53061 0.45362 0.12937 0.0
H2888 H 0.57249 0.43718 0.10099 0.0
C2889 C 0.51705 0.43713 0.12521 0.0
C2890 C 0.52332 0.4205 0.11241 0.0
H2891 H 0.52537 0.46592 0.1397 0.0
H2892 H 0.50175 0.43722 0.13237 0.0
C2893 C 0.54325 0.42106 0.10327 0.0
C2894 C 0.7996 0.28044 0.37956 0.0
C2895 C 0.79942 0.30071 0.37122 0.0
H2896 H 0.81605 0.2516 0.38261 0.0
C2897 C 0.8157 0.30679 0.35782 0.0
H2898 H 0.78732 0.2752 0.38991 0.0
C2899 C 0.83214 0.29307 0.35342 0.0
C2900 C 0.83273 0.27316 0.3626 0.0
H2901 H 0.81597 0.32228 0.35109 0.0
H2902 H 0.84477 0.29835 0.34352 0.0
C2903 C 0.81612 0.26689 0.37542 0.0
C2904 C 0.94668 0.4379 0.89564 0.0
C2905 C 0.95278 0.45417 0.88225 0.0
H2906 H 0.95507 0.40881 0.90992 0.0
C2907 C 0.97305 0.45396 0.8739 0.0
H2908 H 0.9312 0.43765 0.90239 0.0
C2909 C 0.98657 0.43741 0.87802 0.0
C2910 C 0.98027 0.4208 0.89082 0.0
H2911 H 0.9783 0.46624 0.86355 0.0
H2912 H 0.00185 0.43745 0.87081 0.0
C2913 C 0.96037 0.42143 0.90002 0.0
C2914 C 0.81553 0.69604 0.14567 0.0
C2915 C 0.79924 0.70217 0.13231 0.0
H2916 H 0.8446 0.70444 0.15999 0.0
C2917 C 0.7994 0.72248 0.12405 0.0
H2918 H 0.81582 0.68052 0.15233 0.0
C2919 C 0.81591 0.73602 0.12824 0.0
C2920 C 0.83254 0.7297 0.14102 0.0
H2921 H 0.7871 0.72775 0.11374 0.0
H2922 H 0.81583 0.75134 0.12112 0.0
C2923 C 0.83196 0.70975 0.15011 0.0
C2924 C 0.51716 0.56593 0.37834 0.0
C2925 C 0.52344 0.5826 0.39108 0.0
H2926 H 0.52547 0.5371 0.36392 0.0
C2927 C 0.54338 0.58207 0.40019 0.0
H2928 H 0.50185 0.56581 0.3712 0.0
C2929 C 0.55712 0.56564 0.3958 0.0
C2930 C 0.55103 0.54931 0.38248 0.0
H2931 H 0.54867 0.59474 0.41004 0.0
H2932 H 0.57264 0.56597 0.40248 0.0
C2933 C 0.53072 0.54943 0.37421 0.0
C2934 C 0.67136 0.29325 0.65027 0.0
C2935 C 0.67083 0.27332 0.64114 0.0
H2936 H 0.68747 0.32249 0.65257 0.0
C2937 C 0.68749 0.26704 0.62838 0.0
H2938 H 0.6587 0.29853 0.66013 0.0
C2939 C 0.70399 0.28061 0.62425 0.0
C2940 C 0.70411 0.3009 0.63254 0.0
H2941 H 0.6876 0.25174 0.62123 0.0
H2942 H 0.71631 0.27537 0.61395 0.0
C2943 C 0.68779 0.30699 0.64588 0.0
C2944 C 0.6293 0.97277 0.5495 0.0
C2945 C 0.62088 0.95253 0.5493 0.0
H2946 H 0.6325 1.00156 0.56598 0.0
C2947 C 0.60749 0.94648 0.56559 0.0
H2948 H 0.63965 0.97798 0.5372 0.0
C2949 C 0.60317 0.96019 0.58205 0.0
C2950 C 0.61242 0.98006 0.58266 0.0
H2951 H 0.6007 0.93101 0.56585 0.0
H2952 H 0.59326 0.95493 0.59469 0.0
C2953 C 0.62524 0.9863 0.56604 0.0
C2954 C 0.12888 0.53064 0.45357 0.0
C2955 C 0.12065 0.55096 0.45368 0.0
H2956 H 0.13184 0.50176 0.43719 0.0
C2957 C 0.10736 0.55708 0.43733 0.0
H2958 H 0.13914 0.52536 0.46592 0.0
C2959 C 0.10296 0.54336 0.42089 0.0
C2960 C 0.11203 0.5234 0.42038 0.0
H2961 H 0.10072 0.57261 0.437 0.0
H2962 H 0.09314 0.54867 0.40821 0.0
C2963 C 0.12473 0.51709 0.43707 0.0
C2964 C 0.72255 0.87914 0.70357 0.0
C2965 C 0.70226 0.87084 0.70373 0.0
H2966 H 0.75138 0.88219 0.68711 0.0
C2967 C 0.69615 0.85751 0.68742 0.0
H2968 H 0.72782 0.88944 0.71588 0.0
C2969 C 0.70985 0.85313 0.67096 0.0
C2970 C 0.72977 0.86227 0.67039 0.0
H2971 H 0.68064 0.85081 0.68714 0.0
H2972 H 0.70454 0.84327 0.65831 0.0
C2973 C 0.73608 0.87502 0.68704 0.0
C2974 C 0.37783 0.4863 0.93735 0.0
C2975 C 0.39064 0.48005 0.92072 0.0
H2976 H 0.36339 0.47797 0.96617 0.0
C2977 C 0.39985 0.46016 0.92131 0.0
H2978 H 0.3706 0.50157 0.93742 0.0
C2979 C 0.39551 0.44644 0.93776 0.0
C2980 C 0.38212 0.45249 0.95405 0.0
H2981 H 0.40976 0.45489 0.90868 0.0
H2982 H 0.40227 0.43096 0.93749 0.0
C2983 C 0.37374 0.47275 0.95388 0.0
C2984 C 0.28025 0.62396 0.70359 0.0
C2985 C 0.30054 0.63227 0.7038 0.0
H2986 H 0.25144 0.62095 0.68709 0.0
C2987 C 0.30667 0.64566 0.68753 0.0
H2988 H 0.27498 0.61362 0.71587 0.0
C2989 C 0.29298 0.65007 0.67106 0.0
C2990 C 0.27306 0.64092 0.67044 0.0
H2991 H 0.32217 0.65237 0.68728 0.0
H2992 H 0.2983 0.65996 0.65844 0.0
C2993 C 0.26674 0.62812 0.68705 0.0
C2994 C 0.87442 0.03067 0.04971 0.0
C2995 C 0.88265 0.05099 0.04963 0.0
H2996 H 0.87143 0.00178 0.06608 0.0
C2997 C 0.89593 0.0571 0.06599 0.0
H2998 H 0.86417 0.02541 0.03736 0.0
C2999 C 0.90031 0.04336 0.08242 0.0
C3000 C 0.89124 0.02341 0.08292 0.0
H3001 H 0.90258 0.07263 0.06634 0.0
H3002 H 0.91012 0.04866 0.09511 0.0
C3003 C 0.87855 0.01711 0.06622 0.0
C3004 C 0.7366 0.12803 0.81622 0.0
C3005 C 0.73031 0.14086 0.83282 0.0
H3006 H 0.72831 0.11351 0.78742 0.0
C3007 C 0.7104 0.15002 0.83221 0.0
H3008 H 0.75189 0.12085 0.81616 0.0
C3009 C 0.69668 0.1456 0.81577 0.0
C3010 C 0.70278 0.13219 0.79951 0.0
H3011 H 0.7051 0.15993 0.84483 0.0
H3012 H 0.68119 0.15231 0.81604 0.0
C3013 C 0.72306 0.12387 0.7997 0.0
C3014 C 0.78045 0.87928 0.29951 0.0
C3015 C 0.80073 0.87095 0.29936 0.0
H3016 H 0.7516 0.88234 0.31592 0.0
C3017 C 0.80679 0.85756 0.31565 0.0
H3018 H 0.77522 0.88962 0.28721 0.0
C3019 C 0.79306 0.85318 0.33208 0.0
C3020 C 0.77315 0.86235 0.33264 0.0
H3021 H 0.82229 0.85084 0.31595 0.0
H3022 H 0.79833 0.84328 0.34472 0.0
C3023 C 0.76689 0.87515 0.31601 0.0
C3024 C 0.45369 0.37418 0.03063 0.0
C3025 C 0.45383 0.38241 0.05095 0.0
H3026 H 0.43727 0.37123 0.00177 0.0
C3027 C 0.43751 0.39573 0.05709 0.0
H3028 H 0.46601 0.3639 0.02535 0.0
C3029 C 0.42106 0.40015 0.04338 0.0
C3030 C 0.42051 0.39107 0.02343 0.0
H3031 H 0.43721 0.40238 0.07261 0.0
H3032 H 0.4084 0.40998 0.0487 0.0
C3033 C 0.43717 0.37834 0.0171 0.0
C3034 C 0.35265 0.67107 0.79341 0.0
C3035 C 0.36166 0.67059 0.77343 0.0
H3036 H 0.35046 0.68715 0.82268 0.0
C3037 C 0.37429 0.68732 0.76708 0.0
H3038 H 0.34289 0.65835 0.79875 0.0
C3039 C 0.37842 0.70383 0.78062 0.0
C3040 C 0.37028 0.7039 0.80097 0.0
H3041 H 0.38134 0.68747 0.75173 0.0
H3042 H 0.38863 0.7162 0.77532 0.0
C3043 C 0.35704 0.68752 0.80713 0.0
C3044 C 0.08192 0.60334 0.54294 0.0
C3045 C 0.08254 0.61254 0.52304 0.0
H3046 H 0.06573 0.601 0.57214 0.0
C3047 C 0.06596 0.62541 0.51678 0.0
H3048 H 0.09452 0.5934 0.54821 0.0
C3049 C 0.04945 0.62957 0.53032 0.0
C3050 C 0.04924 0.6212 0.55059 0.0
H3051 H 0.06592 0.63263 0.5015 0.0
H3052 H 0.03718 0.63995 0.5251 0.0
C3053 C 0.06548 0.60776 0.55666 0.0
C3054 C 0.12387 0.29949 0.28043 0.0
C3055 C 0.13225 0.29929 0.30068 0.0
H3056 H 0.12074 0.31599 0.25163 0.0
C3057 C 0.14564 0.31557 0.30677 0.0
H3058 H 0.11352 0.28721 0.27519 0.0
C3059 C 0.14999 0.33204 0.29307 0.0
C3060 C 0.14078 0.33266 0.27318 0.0
H3061 H 0.1524 0.31582 0.32225 0.0
H3062 H 0.1599 0.34466 0.29835 0.0
C3063 C 0.12797 0.31604 0.2669 0.0
C3064 C 0.45382 0.62932 0.47272 0.0
C3065 C 0.45398 0.62094 0.45246 0.0
H3066 H 0.4374 0.63241 0.50157 0.0
C3067 C 0.43771 0.60753 0.44642 0.0
H3068 H 0.4661 0.63968 0.47793 0.0
C3069 C 0.42128 0.60314 0.46017 0.0
C3070 C 0.42071 0.61235 0.48006 0.0
H3071 H 0.43742 0.60077 0.43094 0.0
H3072 H 0.40866 0.59322 0.45492 0.0
C3073 C 0.43732 0.62519 0.48629 0.0
C3074 C 0.14612 0.68761 0.19632 0.0
C3075 C 0.13284 0.70396 0.20247 0.0
H3076 H 0.1603 0.65846 0.20468 0.0
C3077 C 0.12463 0.70383 0.2228 0.0
H3078 H 0.15276 0.6873 0.18079 0.0
C3079 C 0.12875 0.68729 0.23632 0.0
C3080 C 0.14142 0.6706 0.22997 0.0
H3081 H 0.11438 0.71617 0.2281 0.0
H3082 H 0.12164 0.68739 0.25165 0.0
C3083 C 0.1505 0.67115 0.21002 0.0
C3084 C 0.06619 0.37835 0.9861 0.0
C3085 C 0.08286 0.39108 0.97981 0.0
H3086 H 0.03736 0.36393 0.97779 0.0
C3087 C 0.08235 0.40018 0.95987 0.0
H3088 H 0.06607 0.37122 1.00142 0.0
C3089 C 0.06592 0.39579 0.94613 0.0
C3090 C 0.04959 0.38247 0.95222 0.0
H3091 H 0.09502 0.41002 0.95458 0.0
H3092 H 0.06625 0.40245 0.93061 0.0
C3093 C 0.04969 0.37421 0.97254 0.0
C3094 C 0.35772 0.31555 0.69646 0.0
C3095 C 0.3711 0.29928 0.70257 0.0
H3096 H 0.34343 0.34463 0.70485 0.0
C3097 C 0.37944 0.29948 0.72285 0.0
H3098 H 0.35099 0.3158 0.68097 0.0
C3099 C 0.3753 0.31602 0.73636 0.0
C3100 C 0.3625 0.33263 0.73006 0.0
H3101 H 0.38978 0.2872 0.7281 0.0
H3102 H 0.38249 0.31598 0.75165 0.0
C3103 C 0.35332 0.33201 0.71015 0.0
C3104 C 0.03043 0.45364 0.3739 0.0
C3105 C 0.05072 0.45387 0.38221 0.0
H3106 H 1.00163 0.43712 0.37089 0.0
C3107 C 0.05685 0.43762 0.39562 0.0
H3108 H 0.02515 0.46591 0.36355 0.0
C3109 C 0.04317 0.42114 0.40003 0.0
C3110 C 0.02326 0.4205 0.39088 0.0
H3111 H 0.07235 0.43738 0.40233 0.0
H3112 H 0.0485 0.40854 0.40994 0.0
C3113 C 0.01693 0.43709 0.37807 0.0
C3114 C 0.31563 0.30676 0.14573 0.0
C3115 C 0.29934 0.30067 0.13236 0.0
H3116 H 0.34473 0.29834 0.15998 0.0
C3117 C 0.29951 0.2804 0.12402 0.0
H3118 H 0.3159 0.32225 0.15246 0.0
C3119 C 0.31605 0.26686 0.12813 0.0
C3120 C 0.33268 0.27315 0.14091 0.0
H3121 H 0.28721 0.27515 0.11369 0.0
H3122 H 0.31599 0.25158 0.12093 0.0
C3123 C 0.33209 0.29305 0.1501 0.0
C3124 C 0.44583 0.56588 0.89577 0.0
C3125 C 0.45195 0.54952 0.8825 0.0
H3126 H 0.45425 0.59501 0.90996 0.0
C3127 C 0.47228 0.5496 0.87429 0.0
H3128 H 0.43029 0.56623 0.9024 0.0
C3129 C 0.48584 0.56611 0.87842 0.0
C3130 C 0.47953 0.58281 0.8911 0.0
H3131 H 0.47756 0.53725 0.86404 0.0
H3132 H 0.50117 0.56596 0.87132 0.0
C3133 C 0.45956 0.58232 0.90016 0.0
C3134 C 0.18743 0.69629 0.6455 0.0
C3135 C 0.20373 0.70238 0.63214 0.0
H3136 H 0.15836 0.70473 0.65981 0.0
C3137 C 0.20359 0.72269 0.62387 0.0
H3138 H 0.18713 0.68078 0.65218 0.0
C3139 C 0.18709 0.73625 0.62804 0.0
C3140 C 0.17046 0.72996 0.64082 0.0
H3141 H 0.2159 0.72794 0.61355 0.0
H3142 H 0.18719 0.75156 0.6209 0.0
C3143 C 0.17101 0.71002 0.64993 0.0
C3144 C 0.03069 0.54966 0.12889 0.0
C3145 C 0.05102 0.54954 0.12068 0.0
H3146 H 0.00184 0.56608 0.13185 0.0
C3147 C 0.05718 0.56588 0.1074 0.0
H3148 H 0.02539 0.53731 0.13913 0.0
C3149 C 0.04348 0.58235 0.10302 0.0
C3150 C 0.02352 0.58289 0.11208 0.0
H3151 H 0.07271 0.5662 0.10078 0.0
H3152 H 0.04882 0.59503 0.09322 0.0
C3153 C 0.01717 0.56619 0.12475 0.0
C3154 C 0.20385 0.28058 0.87907 0.0
C3155 C 0.204 0.30088 0.8708 0.0
H3156 H 0.18743 0.25173 0.88206 0.0
C3157 C 0.1877 0.30699 0.85744 0.0
H3158 H 0.21616 0.27532 0.88937 0.0
C3159 C 0.17126 0.29327 0.85303 0.0
C3160 C 0.1707 0.27334 0.86215 0.0
H3161 H 0.1874 0.32251 0.85076 0.0
H3162 H 0.15861 0.29858 0.84317 0.0
C3163 C 0.18734 0.26704 0.87491 0.0
C3164 C 0.44674 0.4378 0.6079 0.0
C3165 C 0.45281 0.45403 0.62136 0.0
H3166 H 0.45517 0.40874 0.59358 0.0
C3167 C 0.47304 0.45378 0.62979 0.0
H3168 H 0.43128 0.43758 0.6011 0.0
C3169 C 0.48656 0.43723 0.62568 0.0
C3170 C 0.4803 0.42066 0.6128 0.0
H3171 H 0.47826 0.46603 0.64019 0.0
H3172 H 0.50182 0.43724 0.63294 0.0
C3173 C 0.46044 0.42133 0.60354 0.0
C3174 C 0.29965 0.72236 0.37893 0.0
C3175 C 0.29958 0.70201 0.37077 0.0
H3176 H 0.31598 0.75128 0.3818 0.0
C3177 C 0.31593 0.69588 0.35748 0.0
H3178 H 0.28731 0.72764 0.38919 0.0
C3179 C 0.33234 0.70962 0.35303 0.0
C3180 C 0.33282 0.72961 0.36204 0.0
H3181 H 0.31629 0.68033 0.35089 0.0
H3182 H 0.34502 0.70431 0.34322 0.0
C3183 C 0.31613 0.73593 0.37473 0.0
C3184 C 0.3741 0.03064 0.45371 0.0
C3185 C 0.38241 0.05093 0.45384 0.0
H3186 H 0.37104 0.00179 0.43728 0.0
C3187 C 0.39573 0.05702 0.43751 0.0
H3188 H 0.36381 0.02539 0.46603 0.0
C3189 C 0.40009 0.0433 0.42106 0.0
C3190 C 0.39095 0.02337 0.42052 0.0
H3191 H 0.40243 0.07253 0.4372 0.0
H3192 H 0.40994 0.04859 0.40839 0.0
C3193 C 0.37821 0.01709 0.43718 0.0
C3194 C 0.87424 0.47266 0.54953 0.0
C3195 C 0.88254 0.45237 0.54942 0.0
H3196 H 0.87118 0.50153 0.56592 0.0
C3197 C 0.89588 0.44629 0.56575 0.0
H3198 H 0.86394 0.47789 0.53721 0.0
C3199 C 0.90024 0.46003 0.58218 0.0
C3200 C 0.8911 0.47996 0.58271 0.0
H3201 H 0.90257 0.43079 0.56607 0.0
H3202 H 0.9101 0.45476 0.59485 0.0
C3203 C 0.87835 0.48622 0.56604 0.0
C3204 C 0.28052 0.12374 0.29946 0.0
C3205 C 0.30078 0.13212 0.29925 0.0
H3206 H 0.25172 0.12063 0.31596 0.0
C3207 C 0.30685 0.14553 0.31551 0.0
H3208 H 0.27529 0.11337 0.28719 0.0
C3209 C 0.29315 0.14991 0.33197 0.0
C3210 C 0.27326 0.1407 0.33259 0.0
H3211 H 0.32233 0.15229 0.31576 0.0
H3212 H 0.29843 0.15983 0.34458 0.0
C3213 C 0.26699 0.12786 0.31599 0.0
C3214 C 0.6074 0.55688 0.06579 0.0
C3215 C 0.6207 0.55077 0.04944 0.0
H3216 H 0.59324 0.54847 0.09494 0.0
C3217 C 0.629 0.53048 0.04959 0.0
H3218 H 0.6007 0.57238 0.0661 0.0
C3219 C 0.62493 0.51695 0.06613 0.0
C3220 C 0.61221 0.52324 0.08281 0.0
H3221 H 0.63927 0.52522 0.03725 0.0
H3222 H 0.63209 0.50164 0.06603 0.0
C3223 C 0.60307 0.54317 0.08226 0.0
C3224 C 0.72283 0.37904 0.29971 0.0
C3225 C 0.70252 0.37078 0.29955 0.0
H3226 H 0.75167 0.38202 0.31617 0.0
C3227 C 0.69639 0.35744 0.31585 0.0
H3228 H 0.72811 0.38934 0.28741 0.0
C3229 C 0.71009 0.35303 0.33231 0.0
C3230 C 0.73003 0.36213 0.33289 0.0
H3231 H 0.68087 0.35077 0.31613 0.0
H3232 H 0.70477 0.34317 0.34496 0.0
C3233 C 0.73635 0.37488 0.31624 0.0
C3234 C 0.10278 0.96002 0.92115 0.0
C3235 C 0.11188 0.97996 0.9206 0.0
H3236 H 0.10049 0.9308 0.93731 0.0
C3237 C 0.12455 0.98631 0.9373 0.0
H3238 H 0.09299 0.95469 0.90846 0.0
C3239 C 0.12865 0.97279 0.95385 0.0
C3240 C 0.12042 0.95247 0.95398 0.0
H3241 H 0.13167 0.00163 0.9374 0.0
H3242 H 0.1389 0.97808 0.96619 0.0
C3243 C 0.10714 0.94633 0.93762 0.0
C3244 C 0.28074 0.87938 0.20354 0.0
C3245 C 0.30101 0.87104 0.2037 0.0
H3246 H 0.25191 0.8825 0.18709 0.0
C3247 C 0.3071 0.8577 0.18738 0.0
H3248 H 0.2755 0.88969 0.21586 0.0
C3249 C 0.29339 0.85337 0.17092 0.0
C3250 C 0.27348 0.86254 0.17035 0.0
H3251 H 0.3226 0.85097 0.18709 0.0
H3252 H 0.29867 0.8435 0.15826 0.0
C3253 C 0.2672 0.8753 0.187 0.0
C3254 C 0.22276 0.12382 0.70375 0.0
C3255 C 0.20248 0.13216 0.70391 0.0
H3256 H 0.25162 0.12079 0.68734 0.0
C3257 C 0.19643 0.14557 0.68765 0.0
H3258 H 0.22798 0.11346 0.71603 0.0
C3259 C 0.21017 0.14999 0.67123 0.0
C3260 C 0.23008 0.14082 0.67065 0.0
H3261 H 0.18094 0.15231 0.68736 0.0
H3262 H 0.2049 0.15991 0.65861 0.0
C3263 C 0.23633 0.12798 0.68726 0.0
loop_
_geom_bond_atom_site_label_1
_geom_bond_atom_site_label_2
_geom_bond_distance
_geom_bond_site_symmetry_2
_ccdc_geom_bond_type
C0 O2 1.247 . S
C0 O4 1.258 . S
C1 O8 1.247 . S
C1 O9 1.258 . S
O2 C0 1.247 . S
O2 Zn3 2.028 1_655 S
Zn3 O2 2.028 1_455 S
Zn3 O7 2.035 . S
Zn3 O9 2.035 . S
Zn3 O10 2.028 1_455 S
O4 C0 1.258 . S
O4 Zn5 2.035 1_655 S
Zn5 O4 2.035 1_455 S
Zn5 O6 2.028 . S
Zn5 O8 2.028 . S
Zn5 O11 2.035 1_455 S
O6 Zn5 2.028 . S
O6 C12 1.247 . S
O7 Zn3 2.035 . S
O7 C12 1.258 . S
O8 C1 1.247 . S
O8 Zn5 2.028 . S
O9 C1 1.258 . S
O9 Zn3 2.035 . S
O10 Zn3 2.028 1_655 S
O10 C13 1.247 . S
O11 Zn5 2.035 1_655 S
O11 C13 1.258 . S
C12 O6 1.247 . S
C12 O7 1.258 . S
C13 O10 1.247 . S
C13 O11 1.258 . S
C14 O16 1.247 . S
C14 O18 1.258 . S
C15 O22 1.247 . S
C15 O23 1.258 . S
O16 C14 1.247 . S
O16 Zn17 2.028 . S
Zn17 O16 2.028 . S
Zn17 O21 2.035 . S
Zn17 O23 2.035 . S
Zn17 O24 2.028 . S
O18 C14 1.258 . S
O18 Zn19 2.035 . S
Zn19 O18 2.035 . S
Zn19 O20 2.028 . S
Zn19 O22 2.028 . S
Zn19 O25 2.035 . S
O20 Zn19 2.028 . S
O20 C26 1.247 . S
O21 Zn17 2.035 . S
O21 C26 1.258 . S
O22 C15 1.247 . S
O22 Zn19 2.028 . S
O23 C15 1.258 . S
O23 Zn17 2.035 . S
O24 Zn17 2.028 . S
O24 C27 1.247 . S
O25 Zn19 2.035 . S
O25 C27 1.258 . S
C26 O20 1.247 . S
C26 O21 1.258 . S
C27 O24 1.247 . S
C27 O25 1.258 . S
C28 O30 1.247 . S
C28 O32 1.258 . S
C29 O36 1.247 . S
C29 O37 1.258 . S
O30 C28 1.247 . S
O30 Zn31 2.028 . S
Zn31 O30 2.028 . S
Zn31 O35 2.035 . S
Zn31 O37 2.035 . S
Zn31 O38 2.028 . S
O32 C28 1.258 . S
O32 Zn33 2.035 . S
Zn33 O32 2.035 . S
Zn33 O34 2.028 . S
Zn33 O36 2.028 . S
Zn33 O39 2.035 . S
O34 Zn33 2.028 . S
O34 C40 1.247 . S
O35 Zn31 2.035 . S
O35 C40 1.258 . S
O36 C29 1.247 . S
O36 Zn33 2.028 . S
O37 C29 1.258 . S
O37 Zn31 2.035 . S
O38 Zn31 2.028 . S
O38 C41 1.247 . S
O39 Zn33 2.035 . S
O39 C41 1.258 . S
C40 O34 1.247 . S
C40 O35 1.258 . S
C41 O38 1.247 . S
C41 O39 1.258 . S
C42 O44 1.247 . S
C42 O46 1.258 . S
C43 O50 1.247 . S
C43 O51 1.258 . S
O44 C42 1.247 . S
O44 Zn45 2.028 . S
Zn45 O44 2.028 . S
Zn45 O49 2.035 . S
Zn45 O51 2.035 . S
Zn45 O52 2.028 . S
O46 C42 1.258 . S
O46 Zn47 2.035 . S
Zn47 O46 2.035 . S
Zn47 O48 2.028 . S
Zn47 O50 2.028 . S
Zn47 O53 2.035 . S
O48 Zn47 2.028 . S
O48 C54 1.247 . S
O49 Zn45 2.035 . S
O49 C54 1.258 . S
O50 C43 1.247 . S
O50 Zn47 2.028 . S
O51 C43 1.258 . S
O51 Zn45 2.035 . S
O52 Zn45 2.028 . S
O52 C55 1.247 . S
O53 Zn47 2.035 . S
O53 C55 1.258 . S
C54 O48 1.247 . S
C54 O49 1.258 . S
C55 O52 1.247 . S
C55 O53 1.258 . S
C56 O58 1.247 . S
C56 O60 1.258 . S
C57 O64 1.247 . S
C57 O65 1.258 . S
O58 C56 1.247 . S
O58 Zn59 2.028 . S
Zn59 O58 2.028 . S
Zn59 O63 2.035 1_455 S
Zn59 O65 2.035 1_455 S
Zn59 O66 2.028 . S
O60 C56 1.258 . S
O60 Zn61 2.035 . S
Zn61 O60 2.035 . S
Zn61 O62 2.028 1_455 S
Zn61 O64 2.028 1_455 S
Zn61 O67 2.035 . S
O62 Zn61 2.028 1_655 S
O62 C68 1.247 . S
O63 Zn59 2.035 1_655 S
O63 C68 1.258 . S
O64 C57 1.247 . S
O64 Zn61 2.028 1_655 S
O65 C57 1.258 . S
O65 Zn59 2.035 1_655 S
O66 Zn59 2.028 . S
O66 C69 1.247 . S
O67 Zn61 2.035 . S
O67 C69 1.258 . S
C68 O62 1.247 . S
C68 O63 1.258 . S
C69 O66 1.247 . S
C69 O67 1.258 . S
C70 O72 1.247 . S
C70 O74 1.258 . S
C71 O78 1.247 . S
C71 O79 1.258 . S
O72 C70 1.247 . S
O72 Zn73 2.028 . S
Zn73 O72 2.028 . S
Zn73 O77 2.035 . S
Zn73 O79 2.035 . S
Zn73 O80 2.028 . S
O74 C70 1.258 . S
O74 Zn75 2.035 . S
Zn75 O74 2.035 . S
Zn75 O76 2.028 . S
Zn75 O78 2.028 . S
Zn75 O81 2.035 . S
O76 Zn75 2.028 . S
O76 C82 1.247 . S
O77 Zn73 2.035 . S
O77 C82 1.258 . S
O78 C71 1.247 . S
O78 Zn75 2.028 . S
O79 C71 1.258 . S
O79 Zn73 2.035 . S
O80 Zn73 2.028 . S
O80 C83 1.247 . S
O81 Zn75 2.035 . S
O81 C83 1.258 . S
C82 O76 1.247 . S
C82 O77 1.258 . S
C83 O80 1.247 . S
C83 O81 1.258 . S
C84 O86 1.247 . S
C84 O88 1.258 . S
C85 O92 1.247 . S
C85 O93 1.258 . S
O86 C84 1.247 . S
O86 Zn87 2.028 . S
Zn87 O86 2.028 . S
Zn87 O91 2.035 . S
Zn87 O93 2.035 . S
Zn87 O94 2.028 . S
O88 C84 1.258 . S
O88 Zn89 2.035 . S
Zn89 O88 2.035 . S
Zn89 O90 2.028 . S
Zn89 O92 2.028 . S
Zn89 O95 2.035 . S
O90 Zn89 2.028 . S
O90 C96 1.247 . S
O91 Zn87 2.035 . S
O91 C96 1.258 . S
O92 C85 1.247 . S
O92 Zn89 2.028 . S
O93 C85 1.258 . S
O93 Zn87 2.035 . S
O94 Zn87 2.028 . S
O94 C97 1.247 . S
O95 Zn89 2.035 . S
O95 C97 1.258 . S
C96 O90 1.247 . S
C96 O91 1.258 . S
C97 O94 1.247 . S
C97 O95 1.258 . S
C98 O100 1.247 . S
C98 O102 1.258 . S
C99 O106 1.247 . S
C99 O107 1.258 . S
O100 C98 1.247 . S
O100 Zn101 2.028 . S
Zn101 O100 2.028 . S
Zn101 O105 2.035 . S
Zn101 O107 2.035 . S
Zn101 O108 2.028 . S
O102 C98 1.258 . S
O102 Zn103 2.035 . S
Zn103 O102 2.035 . S
Zn103 O104 2.028 . S
Zn103 O106 2.028 . S
Zn103 O109 2.035 . S
O104 Zn103 2.028 . S
O104 C110 1.247 . S
O105 Zn101 2.035 . S
O105 C110 1.258 . S
O106 C99 1.247 . S
O106 Zn103 2.028 . S
O107 C99 1.258 . S
O107 Zn101 2.035 . S
O108 Zn101 2.028 . S
O108 C111 1.247 . S
O109 Zn103 2.035 . S
O109 C111 1.258 . S
C110 O104 1.247 . S
C110 O105 1.258 . S
C111 O108 1.247 . S
C111 O109 1.258 . S
C112 O114 1.247 . S
C112 O116 1.258 . S
C113 O120 1.247 . S
C113 O121 1.258 . S
O114 C112 1.247 . S
O114 Zn115 2.028 . S
Zn115 O114 2.028 . S
Zn115 O119 2.035 1_545 S
Zn115 O121 2.035 1_545 S
Zn115 O122 2.028 . S
O116 C112 1.258 . S
O116 Zn117 2.035 . S
Zn117 O116 2.035 . S
Zn117 O118 2.028 1_545 S
Zn117 O120 2.028 1_545 S
Zn117 O123 2.035 . S
O118 Zn117 2.028 1_565 S
O118 C124 1.247 . S
O119 Zn115 2.035 1_565 S
O119 C124 1.258 . S
O120 C113 1.247 . S
O120 Zn117 2.028 1_565 S
O121 C113 1.258 . S
O121 Zn115 2.035 1_565 S
O122 Zn115 2.028 . S
O122 C125 1.247 . S
O123 Zn117 2.035 . S
O123 C125 1.258 . S
C124 O118 1.247 . S
C124 O119 1.258 . S
C125 O122 1.247 . S
C125 O123 1.258 . S
C126 O128 1.247 . S
C126 O130 1.258 . S
C127 O134 1.247 . S
C127 O135 1.258 . S
O128 C126 1.247 . S
O128 Zn129 2.028 . S
Zn129 O128 2.028 . S
Zn129 O133 2.035 . S
Zn129 O135 2.035 . S
Zn129 O136 2.028 . S
O130 C126 1.258 . S
O130 Zn131 2.035 . S
Zn131 O130 2.035 . S
Zn131 O132 2.028 . S
Zn131 O134 2.028 . S
Zn131 O137 2.035 . S
O132 Zn131 2.028 . S
O132 C138 1.247 . S
O133 Zn129 2.035 . S
O133 C138 1.258 . S
O134 C127 1.247 . S
O134 Zn131 2.028 . S
O135 C127 1.258 . S
O135 Zn129 2.035 . S
O136 Zn129 2.028 . S
O136 C139 1.247 . S
O137 Zn131 2.035 . S
O137 C139 1.258 . S
C138 O132 1.247 . S
C138 O133 1.258 . S
C139 O136 1.247 . S
C139 O137 1.258 . S
C140 O142 1.247 . S
C140 O144 1.258 . S
C141 O148 1.247 . S
C141 O149 1.258 . S
O142 C140 1.247 . S
O142 Zn143 2.028 . S
Zn143 O142 2.028 . S
Zn143 O147 2.035 1_565 S
Zn143 O149 2.035 1_565 S
Zn143 O150 2.028 . S
O144 C140 1.258 . S
O144 Zn145 2.035 . S
Zn145 O144 2.035 . S
Zn145 O146 2.028 1_565 S
Zn145 O148 2.028 1_565 S
Zn145 O151 2.035 . S
O146 Zn145 2.028 1_545 S
O146 C152 1.247 . S
O147 Zn143 2.035 1_545 S
O147 C152 1.258 . S
O148 C141 1.247 . S
O148 Zn145 2.028 1_545 S
O149 C141 1.258 . S
O149 Zn143 2.035 1_545 S
O150 Zn143 2.028 . S
O150 C153 1.247 . S
O151 Zn145 2.035 . S
O151 C153 1.258 . S
C152 O146 1.247 . S
C152 O147 1.258 . S
C153 O150 1.247 . S
C153 O151 1.258 . S
C154 O156 1.247 . S
C154 O158 1.258 . S
C155 O162 1.247 . S
C155 O163 1.258 . S
O156 C154 1.247 . S
O156 Zn157 2.028 . S
Zn157 O156 2.028 . S
Zn157 O161 2.035 . S
Zn157 O163 2.035 . S
Zn157 O164 2.028 . S
O158 C154 1.258 . S
O158 Zn159 2.035 . S
Zn159 O158 2.035 . S
Zn159 O160 2.028 . S
Zn159 O162 2.028 . S
Zn159 O165 2.035 . S
O160 Zn159 2.028 . S
O160 C166 1.247 . S
O161 Zn157 2.035 . S
O161 C166 1.258 . S
O162 C155 1.247 . S
O162 Zn159 2.028 . S
O163 C155 1.258 . S
O163 Zn157 2.035 . S
O164 Zn157 2.028 . S
O164 C167 1.247 . S
O165 Zn159 2.035 . S
O165 C167 1.258 . S
C166 O160 1.247 . S
C166 O161 1.258 . S
C167 O164 1.247 . S
C167 O165 1.258 . S
C168 O170 1.247 . S
C168 O172 1.258 . S
C169 O176 1.247 . S
C169 O177 1.258 . S
O170 C168 1.247 . S
O170 Zn171 2.028 . S
Zn171 O170 2.028 . S
Zn171 O175 2.035 1_565 S
Zn171 O177 2.035 1_565 S
Zn171 O178 2.028 . S
O172 C168 1.258 . S
O172 Zn173 2.035 . S
Zn173 O172 2.035 . S
Zn173 O174 2.028 1_565 S
Zn173 O176 2.028 1_565 S
Zn173 O179 2.035 . S
O174 Zn173 2.028 1_545 S
O174 C180 1.247 . S
O175 Zn171 2.035 1_545 S
O175 C180 1.258 . S
O176 C169 1.247 . S
O176 Zn173 2.028 1_545 S
O177 C169 1.258 . S
O177 Zn171 2.035 1_545 S
O178 Zn171 2.028 . S
O178 C181 1.247 . S
O179 Zn173 2.035 . S
O179 C181 1.258 . S
C180 O174 1.247 . S
C180 O175 1.258 . S
C181 O178 1.247 . S
C181 O179 1.258 . S
C182 O184 1.247 . S
C182 O186 1.258 . S
C183 O190 1.247 . S
C183 O191 1.258 . S
O184 C182 1.247 . S
O184 Zn185 2.028 . S
Zn185 O184 2.028 . S
Zn185 O189 2.035 . S
Zn185 O191 2.035 . S
Zn185 O192 2.028 . S
O186 C182 1.258 . S
O186 Zn187 2.035 . S
Zn187 O186 2.035 . S
Zn187 O188 2.028 . S
Zn187 O190 2.028 . S
Zn187 O193 2.035 . S
O188 Zn187 2.028 . S
O188 C194 1.247 . S
O189 Zn185 2.035 . S
O189 C194 1.258 . S
O190 C183 1.247 . S
O190 Zn187 2.028 . S
O191 C183 1.258 . S
O191 Zn185 2.035 . S
O192 Zn185 2.028 . S
O192 C195 1.247 . S
O193 Zn187 2.035 . S
O193 C195 1.258 . S
C194 O188 1.247 . S
C194 O189 1.258 . S
C195 O192 1.247 . S
C195 O193 1.258 . S
C196 O198 1.247 . S
C196 O200 1.258 . S
C197 O204 1.247 . S
C197 O205 1.258 . S
O198 C196 1.247 . S
O198 Zn199 2.028 1_565 S
Zn199 O198 2.028 1_545 S
Zn199 O203 2.035 . S
Zn199 O205 2.035 . S
Zn199 O206 2.028 1_545 S
O200 C196 1.258 . S
O200 Zn201 2.035 1_565 S
Zn201 O200 2.035 1_545 S
Zn201 O202 2.028 . S
Zn201 O204 2.028 . S
Zn201 O207 2.035 1_545 S
O202 Zn201 2.028 . S
O202 C208 1.247 . S
O203 Zn199 2.035 . S
O203 C208 1.258 . S
O204 C197 1.247 . S
O204 Zn201 2.028 . S
O205 C197 1.258 . S
O205 Zn199 2.035 . S
O206 Zn199 2.028 1_565 S
O206 C209 1.247 . S
O207 Zn201 2.035 1_565 S
O207 C209 1.258 . S
C208 O202 1.247 . S
C208 O203 1.258 . S
C209 O206 1.247 . S
C209 O207 1.258 . S
C210 O212 1.247 . S
C210 O214 1.258 . S
C211 O218 1.247 . S
C211 O219 1.258 . S
O212 C210 1.247 . S
O212 Zn213 2.028 . S
Zn213 O212 2.028 . S
Zn213 O217 2.035 . S
Zn213 O219 2.035 . S
Zn213 O220 2.028 . S
O214 C210 1.258 . S
O214 Zn215 2.035 . S
Zn215 O214 2.035 . S
Zn215 O216 2.028 . S
Zn215 O218 2.028 . S
Zn215 O221 2.035 . S
O216 Zn215 2.028 . S
O216 C222 1.247 . S
O217 Zn213 2.035 . S
O217 C222 1.258 . S
O218 C211 1.247 . S
O218 Zn215 2.028 . S
O219 C211 1.258 . S
O219 Zn213 2.035 . S
O220 Zn213 2.028 . S
O220 C223 1.247 . S
O221 Zn215 2.035 . S
O221 C223 1.258 . S
C222 O216 1.247 . S
C222 O217 1.258 . S
C223 O220 1.247 . S
C223 O221 1.258 . S
C224 O226 1.247 . S
C224 O228 1.258 . S
C225 O232 1.247 . S
C225 O233 1.258 . S
O226 C224 1.247 . S
O226 Zn227 2.028 1_556 S
Zn227 O226 2.028 1_554 S
Zn227 O231 2.035 . S
Zn227 O233 2.035 . S
Zn227 O234 2.028 1_554 S
O228 C224 1.258 . S
O228 Zn229 2.035 1_556 S
Zn229 O228 2.035 1_554 S
Zn229 O230 2.028 . S
Zn229 O232 2.028 . S
Zn229 O235 2.035 1_554 S
O230 Zn229 2.028 . S
O230 C236 1.247 . S
O231 Zn227 2.035 . S
O231 C236 1.258 . S
O232 C225 1.247 . S
O232 Zn229 2.028 . S
O233 C225 1.258 . S
O233 Zn227 2.035 . S
O234 Zn227 2.028 1_556 S
O234 C237 1.247 . S
O235 Zn229 2.035 1_556 S
O235 C237 1.258 . S
C236 O230 1.247 . S
C236 O231 1.258 . S
C237 O234 1.247 . S
C237 O235 1.258 . S
C238 O240 1.247 . S
C238 O242 1.258 . S
C239 O246 1.247 . S
C239 O247 1.258 . S
O240 C238 1.247 . S
O240 Zn241 2.028 1_554 S
Zn241 O240 2.028 1_556 S
Zn241 O245 2.035 . S
Zn241 O247 2.035 . S
Zn241 O248 2.028 1_556 S
O242 C238 1.258 . S
O242 Zn243 2.035 1_554 S
Zn243 O242 2.035 1_556 S
Zn243 O244 2.028 . S
Zn243 O246 2.028 . S
Zn243 O249 2.035 1_556 S
O244 Zn243 2.028 . S
O244 C250 1.247 . S
O245 Zn241 2.035 . S
O245 C250 1.258 . S
O246 C239 1.247 . S
O246 Zn243 2.028 . S
O247 C239 1.258 . S
O247 Zn241 2.035 . S
O248 Zn241 2.028 1_554 S
O248 C251 1.247 . S
O249 Zn243 2.035 1_554 S
O249 C251 1.258 . S
C250 O244 1.247 . S
C250 O245 1.258 . S
C251 O248 1.247 . S
C251 O249 1.258 . S
C252 O254 1.247 . S
C252 O256 1.258 . S
C253 O260 1.247 . S
C253 O261 1.258 . S
O254 C252 1.247 . S
O254 Zn255 2.028 . S
Zn255 O254 2.028 . S
Zn255 O259 2.035 . S
Zn255 O261 2.035 . S
Zn255 O262 2.028 . S
O256 C252 1.258 . S
O256 Zn257 2.035 . S
Zn257 O256 2.035 . S
Zn257 O258 2.028 . S
Zn257 O260 2.028 . S
Zn257 O263 2.035 . S
O258 Zn257 2.028 . S
O258 C264 1.247 . S
O259 Zn255 2.035 . S
O259 C264 1.258 . S
O260 C253 1.247 . S
O260 Zn257 2.028 . S
O261 C253 1.258 . S
O261 Zn255 2.035 . S
O262 Zn255 2.028 . S
O262 C265 1.247 . S
O263 Zn257 2.035 . S
O263 C265 1.258 . S
C264 O258 1.247 . S
C264 O259 1.258 . S
C265 O262 1.247 . S
C265 O263 1.258 . S
C266 O268 1.247 . S
C266 O270 1.258 . S
C267 O274 1.247 . S
C267 O275 1.258 . S
O268 C266 1.247 . S
O268 Zn269 2.028 . S
Zn269 O268 2.028 . S
Zn269 O273 2.035 . S
Zn269 O275 2.035 . S
Zn269 O276 2.028 . S
O270 C266 1.258 . S
O270 Zn271 2.035 . S
Zn271 O270 2.035 . S
Zn271 O272 2.028 . S
Zn271 O274 2.028 . S
Zn271 O277 2.035 . S
O272 Zn271 2.028 . S
O272 C278 1.247 . S
O273 Zn269 2.035 . S
O273 C278 1.258 . S
O274 C267 1.247 . S
O274 Zn271 2.028 . S
O275 C267 1.258 . S
O275 Zn269 2.035 . S
O276 Zn269 2.028 . S
O276 C279 1.247 . S
O277 Zn271 2.035 . S
O277 C279 1.258 . S
C278 O272 1.247 . S
C278 O273 1.258 . S
C279 O276 1.247 . S
C279 O277 1.258 . S
C280 O282 1.247 . S
C280 O284 1.258 . S
C281 O288 1.247 . S
C281 O289 1.258 . S
O282 C280 1.247 . S
O282 Zn283 2.028 . S
Zn283 O282 2.028 . S
Zn283 O287 2.035 . S
Zn283 O289 2.035 . S
Zn283 O290 2.028 . S
O284 C280 1.258 . S
O284 Zn285 2.035 . S
Zn285 O284 2.035 . S
Zn285 O286 2.028 . S
Zn285 O288 2.028 . S
Zn285 O291 2.035 . S
O286 Zn285 2.028 . S
O286 C292 1.247 . S
O287 Zn283 2.035 . S
O287 C292 1.258 . S
O288 C281 1.247 . S
O288 Zn285 2.028 . S
O289 C281 1.258 . S
O289 Zn283 2.035 . S
O290 Zn283 2.028 . S
O290 C293 1.247 . S
O291 Zn285 2.035 . S
O291 C293 1.258 . S
C292 O286 1.247 . S
C292 O287 1.258 . S
C293 O290 1.247 . S
C293 O291 1.258 . S
C294 O296 1.247 . S
C294 O298 1.258 . S
C295 O302 1.247 . S
C295 O303 1.258 . S
O296 C294 1.247 . S
O296 Zn297 2.028 . S
Zn297 O296 2.028 . S
Zn297 O301 2.035 . S
Zn297 O303 2.035 . S
Zn297 O304 2.028 . S
O298 C294 1.258 . S
O298 Zn299 2.035 . S
Zn299 O298 2.035 . S
Zn299 O300 2.028 . S
Zn299 O302 2.028 . S
Zn299 O305 2.035 . S
O300 Zn299 2.028 . S
O300 C306 1.247 . S
O301 Zn297 2.035 . S
O301 C306 1.258 . S
O302 C295 1.247 . S
O302 Zn299 2.028 . S
O303 C295 1.258 . S
O303 Zn297 2.035 . S
O304 Zn297 2.028 . S
O304 C307 1.247 . S
O305 Zn299 2.035 . S
O305 C307 1.258 . S
C306 O300 1.247 . S
C306 O301 1.258 . S
C307 O304 1.247 . S
C307 O305 1.258 . S
C308 O310 1.247 . S
C308 O312 1.258 . S
C309 O316 1.247 . S
C309 O317 1.258 . S
O310 C308 1.247 . S
O310 Zn311 2.028 . S
Zn311 O310 2.028 . S
Zn311 O315 2.035 . S
Zn311 O317 2.035 . S
Zn311 O318 2.028 . S
O312 C308 1.258 . S
O312 Zn313 2.035 . S
Zn313 O312 2.035 . S
Zn313 O314 2.028 . S
Zn313 O316 2.028 . S
Zn313 O319 2.035 . S
O314 Zn313 2.028 . S
O314 C320 1.247 . S
O315 Zn311 2.035 . S
O315 C320 1.258 . S
O316 C309 1.247 . S
O316 Zn313 2.028 . S
O317 C309 1.258 . S
O317 Zn311 2.035 . S
O318 Zn311 2.028 . S
O318 C321 1.247 . S
O319 Zn313 2.035 . S
O319 C321 1.258 . S
C320 O314 1.247 . S
C320 O315 1.258 . S
C321 O318 1.247 . S
C321 O319 1.258 . S
C322 O324 1.247 . S
C322 O326 1.258 . S
C323 O330 1.247 . S
C323 O331 1.258 . S
O324 C322 1.247 . S
O324 Zn325 2.028 . S
Zn325 O324 2.028 . S
Zn325 O329 2.035 . S
Zn325 O331 2.035 . S
Zn325 O332 2.028 . S
O326 C322 1.258 . S
O326 Zn327 2.035 . S
Zn327 O326 2.035 . S
Zn327 O328 2.028 . S
Zn327 O330 2.028 . S
Zn327 O333 2.035 . S
O328 Zn327 2.028 . S
O328 C334 1.247 . S
O329 Zn325 2.035 . S
O329 C334 1.258 . S
O330 C323 1.247 . S
O330 Zn327 2.028 . S
O331 C323 1.258 . S
O331 Zn325 2.035 . S
O332 Zn325 2.028 . S
O332 C335 1.247 . S
O333 Zn327 2.035 . S
O333 C335 1.258 . S
C334 O328 1.247 . S
C334 O329 1.258 . S
C335 O332 1.247 . S
C335 O333 1.258 . S
C336 O338 1.247 . S
C336 O340 1.258 . S
C337 O344 1.247 . S
C337 O345 1.258 . S
O338 C336 1.247 . S
O338 Zn339 2.028 . S
Zn339 O338 2.028 . S
Zn339 O343 2.035 1_655 S
Zn339 O345 2.035 1_655 S
Zn339 O346 2.028 . S
O340 C336 1.258 . S
O340 Zn341 2.035 . S
Zn341 O340 2.035 . S
Zn341 O342 2.028 1_655 S
Zn341 O344 2.028 1_655 S
Zn341 O347 2.035 . S
O342 Zn341 2.028 1_455 S
O342 C348 1.247 . S
O343 Zn339 2.035 1_455 S
O343 C348 1.258 . S
O344 C337 1.247 . S
O344 Zn341 2.028 1_455 S
O345 C337 1.258 . S
O345 Zn339 2.035 1_455 S
O346 Zn339 2.028 . S
O346 C349 1.247 . S
O347 Zn341 2.035 . S
O347 C349 1.258 . S
C348 O342 1.247 . S
C348 O343 1.258 . S
C349 O346 1.247 . S
C349 O347 1.258 . S
C350 O352 1.247 . S
C350 O354 1.258 . S
C351 O358 1.247 . S
C351 O359 1.258 . S
O352 C350 1.247 . S
O352 Zn353 2.028 . S
Zn353 O352 2.028 . S
Zn353 O357 2.035 . S
Zn353 O359 2.035 . S
Zn353 O360 2.028 . S
O354 C350 1.258 . S
O354 Zn355 2.035 . S
Zn355 O354 2.035 . S
Zn355 O356 2.028 . S
Zn355 O358 2.028 . S
Zn355 O361 2.035 . S
O356 Zn355 2.028 . S
O356 C362 1.247 . S
O357 Zn353 2.035 . S
O357 C362 1.258 . S
O358 C351 1.247 . S
O358 Zn355 2.028 . S
O359 C351 1.258 . S
O359 Zn353 2.035 . S
O360 Zn353 2.028 . S
O360 C363 1.247 . S
O361 Zn355 2.035 . S
O361 C363 1.258 . S
C362 O356 1.247 . S
C362 O357 1.258 . S
C363 O360 1.247 . S
C363 O361 1.258 . S
C364 O366 1.247 . S
C364 O368 1.258 . S
C365 O372 1.247 . S
C365 O373 1.258 . S
O366 C364 1.247 . S
O366 Zn367 2.028 . S
Zn367 O366 2.028 . S
Zn367 O371 2.035 . S
Zn367 O373 2.035 . S
Zn367 O374 2.028 . S
O368 C364 1.258 . S
O368 Zn369 2.035 . S
Zn369 O368 2.035 . S
Zn369 O370 2.028 . S
Zn369 O372 2.028 . S
Zn369 O375 2.035 . S
O370 Zn369 2.028 . S
O370 C376 1.247 . S
O371 Zn367 2.035 . S
O371 C376 1.258 . S
O372 C365 1.247 . S
O372 Zn369 2.028 . S
O373 C365 1.258 . S
O373 Zn367 2.035 . S
O374 Zn367 2.028 . S
O374 C377 1.247 . S
O375 Zn369 2.035 . S
O375 C377 1.258 . S
C376 O370 1.247 . S
C376 O371 1.258 . S
C377 O374 1.247 . S
C377 O375 1.258 . S
C378 O380 1.247 . S
C378 O382 1.258 . S
C379 O386 1.247 . S
C379 O387 1.258 . S
O380 C378 1.247 . S
O380 Zn381 2.028 . S
Zn381 O380 2.028 . S
Zn381 O385 2.035 . S
Zn381 O387 2.035 . S
Zn381 O388 2.028 . S
O382 C378 1.258 . S
O382 Zn383 2.035 . S
Zn383 O382 2.035 . S
Zn383 O384 2.028 . S
Zn383 O386 2.028 . S
Zn383 O389 2.035 . S
O384 Zn383 2.028 . S
O384 C390 1.247 . S
O385 Zn381 2.035 . S
O385 C390 1.258 . S
O386 C379 1.247 . S
O386 Zn383 2.028 . S
O387 C379 1.258 . S
O387 Zn381 2.035 . S
O388 Zn381 2.028 . S
O388 C391 1.247 . S
O389 Zn383 2.035 . S
O389 C391 1.258 . S
C390 O384 1.247 . S
C390 O385 1.258 . S
C391 O388 1.247 . S
C391 O389 1.258 . S
C392 O394 1.247 . S
C392 O396 1.258 . S
C393 O400 1.247 . S
C393 O401 1.258 . S
O394 C392 1.247 . S
O394 Zn395 2.028 . S
Zn395 O394 2.028 . S
Zn395 O399 2.035 1_655 S
Zn395 O401 2.035 1_655 S
Zn395 O402 2.028 . S
O396 C392 1.258 . S
O396 Zn397 2.035 . S
Zn397 O396 2.035 . S
Zn397 O398 2.028 1_655 S
Zn397 O400 2.028 1_655 S
Zn397 O403 2.035 . S
O398 Zn397 2.028 1_455 S
O398 C404 1.247 . S
O399 Zn395 2.035 1_455 S
O399 C404 1.258 . S
O400 C393 1.247 . S
O400 Zn397 2.028 1_455 S
O401 C393 1.258 . S
O401 Zn395 2.035 1_455 S
O402 Zn395 2.028 . S
O402 C405 1.247 . S
O403 Zn397 2.035 . S
O403 C405 1.258 . S
C404 O398 1.247 . S
C404 O399 1.258 . S
C405 O402 1.247 . S
C405 O403 1.258 . S
C406 O408 1.247 . S
C406 O410 1.258 . S
C407 O414 1.247 . S
C407 O415 1.258 . S
O408 C406 1.247 . S
O408 Zn409 2.028 . S
Zn409 O408 2.028 . S
Zn409 O413 2.035 . S
Zn409 O415 2.035 . S
Zn409 O416 2.028 . S
O410 C406 1.258 . S
O410 Zn411 2.035 . S
Zn411 O410 2.035 . S
Zn411 O412 2.028 . S
Zn411 O414 2.028 . S
Zn411 O417 2.035 . S
O412 Zn411 2.028 . S
O412 C418 1.247 . S
O413 Zn409 2.035 . S
O413 C418 1.258 . S
O414 C407 1.247 . S
O414 Zn411 2.028 . S
O415 C407 1.258 . S
O415 Zn409 2.035 . S
O416 Zn409 2.028 . S
O416 C419 1.247 . S
O417 Zn411 2.035 . S
O417 C419 1.258 . S
C418 O412 1.247 . S
C418 O413 1.258 . S
C419 O416 1.247 . S
C419 O417 1.258 . S
C420 O422 1.247 . S
C420 O424 1.258 . S
C421 O428 1.247 . S
C421 O429 1.258 . S
O422 C420 1.247 . S
O422 Zn423 2.028 . S
Zn423 O422 2.028 . S
Zn423 O427 2.035 . S
Zn423 O429 2.035 . S
Zn423 O430 2.028 . S
O424 C420 1.258 . S
O424 Zn425 2.035 . S
Zn425 O424 2.035 . S
Zn425 O426 2.028 . S
Zn425 O428 2.028 . S
Zn425 O431 2.035 . S
O426 Zn425 2.028 . S
O426 C432 1.247 . S
O427 Zn423 2.035 . S
O427 C432 1.258 . S
O428 C421 1.247 . S
O428 Zn425 2.028 . S
O429 C421 1.258 . S
O429 Zn423 2.035 . S
O430 Zn423 2.028 . S
O430 C433 1.247 . S
O431 Zn425 2.035 . S
O431 C433 1.258 . S
C432 O426 1.247 . S
C432 O427 1.258 . S
C433 O430 1.247 . S
C433 O431 1.258 . S
C434 O436 1.247 . S
C434 O438 1.258 . S
C435 O442 1.247 . S
C435 O443 1.258 . S
O436 C434 1.247 . S
O436 Zn437 2.028 . S
Zn437 O436 2.028 . S
Zn437 O441 2.035 . S
Zn437 O443 2.035 . S
Zn437 O444 2.028 . S
O438 C434 1.258 . S
O438 Zn439 2.035 . S
Zn439 O438 2.035 . S
Zn439 O440 2.028 . S
Zn439 O442 2.028 . S
Zn439 O445 2.035 . S
O440 Zn439 2.028 . S
O440 C446 1.247 . S
O441 Zn437 2.035 . S
O441 C446 1.258 . S
O442 C435 1.247 . S
O442 Zn439 2.028 . S
O443 C435 1.258 . S
O443 Zn437 2.035 . S
O444 Zn437 2.028 . S
O444 C447 1.247 . S
O445 Zn439 2.035 . S
O445 C447 1.258 . S
C446 O440 1.247 . S
C446 O441 1.258 . S
C447 O444 1.247 . S
C447 O445 1.258 . S
C448 O450 1.247 . S
C448 O452 1.258 . S
C449 O456 1.247 . S
C449 O457 1.258 . S
O450 C448 1.247 . S
O450 Zn451 2.028 1_545 S
Zn451 O450 2.028 1_565 S
Zn451 O455 2.035 . S
Zn451 O457 2.035 . S
Zn451 O458 2.028 1_565 S
O452 C448 1.258 . S
O452 Zn453 2.035 1_545 S
Zn453 O452 2.035 1_565 S
Zn453 O454 2.028 . S
Zn453 O456 2.028 . S
Zn453 O459 2.035 1_565 S
O454 Zn453 2.028 . S
O454 C460 1.247 . S
O455 Zn451 2.035 . S
O455 C460 1.258 . S
O456 C449 1.247 . S
O456 Zn453 2.028 . S
O457 C449 1.258 . S
O457 Zn451 2.035 . S
O458 Zn451 2.028 1_545 S
O458 C461 1.247 . S
O459 Zn453 2.035 1_545 S
O459 C461 1.258 . S
C460 O454 1.247 . S
C460 O455 1.258 . S
C461 O458 1.247 . S
C461 O459 1.258 . S
C462 O464 1.247 . S
C462 O466 1.258 . S
C463 O470 1.247 . S
C463 O471 1.258 . S
O464 C462 1.247 . S
O464 Zn465 2.028 . S
Zn465 O464 2.028 . S
Zn465 O469 2.035 . S
Zn465 O471 2.035 . S
Zn465 O472 2.028 . S
O466 C462 1.258 . S
O466 Zn467 2.035 . S
Zn467 O466 2.035 . S
Zn467 O468 2.028 . S
Zn467 O470 2.028 . S
Zn467 O473 2.035 . S
O468 Zn467 2.028 . S
O468 C474 1.247 . S
O469 Zn465 2.035 . S
O469 C474 1.258 . S
O470 C463 1.247 . S
O470 Zn467 2.028 . S
O471 C463 1.258 . S
O471 Zn465 2.035 . S
O472 Zn465 2.028 . S
O472 C475 1.247 . S
O473 Zn467 2.035 . S
O473 C475 1.258 . S
C474 O468 1.247 . S
C474 O469 1.258 . S
C475 O472 1.247 . S
C475 O473 1.258 . S
C476 O478 1.247 . S
C476 O480 1.258 . S
C477 O484 1.247 . S
C477 O485 1.258 . S
O478 C476 1.247 . S
O478 Zn479 2.028 1_565 S
Zn479 O478 2.028 1_545 S
Zn479 O483 2.035 . S
Zn479 O485 2.035 . S
Zn479 O486 2.028 1_545 S
O480 C476 1.258 . S
O480 Zn481 2.035 1_565 S
Zn481 O480 2.035 1_545 S
Zn481 O482 2.028 . S
Zn481 O484 2.028 . S
Zn481 O487 2.035 1_545 S
O482 Zn481 2.028 . S
O482 C488 1.247 . S
O483 Zn479 2.035 . S
O483 C488 1.258 . S
O484 C477 1.247 . S
O484 Zn481 2.028 . S
O485 C477 1.258 . S
O485 Zn479 2.035 . S
O486 Zn479 2.028 1_565 S
O486 C489 1.247 . S
O487 Zn481 2.035 1_565 S
O487 C489 1.258 . S
C488 O482 1.247 . S
C488 O483 1.258 . S
C489 O486 1.247 . S
C489 O487 1.258 . S
C490 O492 1.247 . S
C490 O494 1.258 . S
C491 O498 1.247 . S
C491 O499 1.258 . S
O492 C490 1.247 . S
O492 Zn493 2.028 . S
Zn493 O492 2.028 . S
Zn493 O497 2.035 . S
Zn493 O499 2.035 . S
Zn493 O500 2.028 . S
O494 C490 1.258 . S
O494 Zn495 2.035 . S
Zn495 O494 2.035 . S
Zn495 O496 2.028 . S
Zn495 O498 2.028 . S
Zn495 O501 2.035 . S
O496 Zn495 2.028 . S
O496 C502 1.247 . S
O497 Zn493 2.035 . S
O497 C502 1.258 . S
O498 C491 1.247 . S
O498 Zn495 2.028 . S
O499 C491 1.258 . S
O499 Zn493 2.035 . S
O500 Zn493 2.028 . S
O500 C503 1.247 . S
O501 Zn495 2.035 . S
O501 C503 1.258 . S
C502 O496 1.247 . S
C502 O497 1.258 . S
C503 O500 1.247 . S
C503 O501 1.258 . S
C504 O506 1.247 . S
C504 O508 1.258 . S
C505 O512 1.247 . S
C505 O513 1.258 . S
O506 C504 1.247 . S
O506 Zn507 2.028 . S
Zn507 O506 2.028 . S
Zn507 O511 2.035 1_545 S
Zn507 O513 2.035 1_545 S
Zn507 O514 2.028 . S
O508 C504 1.258 . S
O508 Zn509 2.035 . S
Zn509 O508 2.035 . S
Zn509 O510 2.028 1_545 S
Zn509 O512 2.028 1_545 S
Zn509 O515 2.035 . S
O510 Zn509 2.028 1_565 S
O510 C516 1.247 . S
O511 Zn507 2.035 1_565 S
O511 C516 1.258 . S
O512 C505 1.247 . S
O512 Zn509 2.028 1_565 S
O513 C505 1.258 . S
O513 Zn507 2.035 1_565 S
O514 Zn507 2.028 . S
O514 C517 1.247 . S
O515 Zn509 2.035 . S
O515 C517 1.258 . S
C516 O510 1.247 . S
C516 O511 1.258 . S
C517 O514 1.247 . S
C517 O515 1.258 . S
C518 O520 1.247 . S
C518 O522 1.258 . S
C519 O526 1.247 . S
C519 O527 1.258 . S
O520 C518 1.247 . S
O520 Zn521 2.028 . S
Zn521 O520 2.028 . S
Zn521 O525 2.035 . S
Zn521 O527 2.035 . S
Zn521 O528 2.028 . S
O522 C518 1.258 . S
O522 Zn523 2.035 . S
Zn523 O522 2.035 . S
Zn523 O524 2.028 . S
Zn523 O526 2.028 . S
Zn523 O529 2.035 . S
O524 Zn523 2.028 . S
O524 C530 1.247 . S
O525 Zn521 2.035 . S
O525 C530 1.258 . S
O526 C519 1.247 . S
O526 Zn523 2.028 . S
O527 C519 1.258 . S
O527 Zn521 2.035 . S
O528 Zn521 2.028 . S
O528 C531 1.247 . S
O529 Zn523 2.035 . S
O529 C531 1.258 . S
C530 O524 1.247 . S
C530 O525 1.258 . S
C531 O528 1.247 . S
C531 O529 1.258 . S
C532 O534 1.247 . S
C532 O536 1.258 . S
C533 O540 1.247 . S
C533 O541 1.258 . S
O534 C532 1.247 . S
O534 Zn535 2.028 1_545 S
Zn535 O534 2.028 1_565 S
Zn535 O539 2.035 . S
Zn535 O541 2.035 . S
Zn535 O542 2.028 1_565 S
O536 C532 1.258 . S
O536 Zn537 2.035 1_545 S
Zn537 O536 2.035 1_565 S
Zn537 O538 2.028 . S
Zn537 O540 2.028 . S
Zn537 O543 2.035 1_565 S
O538 Zn537 2.028 . S
O538 C544 1.247 . S
O539 Zn535 2.035 . S
O539 C544 1.258 . S
O540 C533 1.247 . S
O540 Zn537 2.028 . S
O541 C533 1.258 . S
O541 Zn535 2.035 . S
O542 Zn535 2.028 1_545 S
O542 C545 1.247 . S
O543 Zn537 2.035 1_545 S
O543 C545 1.258 . S
C544 O538 1.247 . S
C544 O539 1.258 . S
C545 O542 1.247 . S
C545 O543 1.258 . S
C546 O548 1.247 . S
C546 O550 1.258 . S
C547 O554 1.247 . S
C547 O555 1.258 . S
O548 C546 1.247 . S
O548 Zn549 2.028 . S
Zn549 O548 2.028 . S
Zn549 O553 2.035 . S
Zn549 O555 2.035 . S
Zn549 O556 2.028 . S
O550 C546 1.258 . S
O550 Zn551 2.035 . S
Zn551 O550 2.035 . S
Zn551 O552 2.028 . S
Zn551 O554 2.028 . S
Zn551 O557 2.035 . S
O552 Zn551 2.028 . S
O552 C558 1.247 . S
O553 Zn549 2.035 . S
O553 C558 1.258 . S
O554 C547 1.247 . S
O554 Zn551 2.028 . S
O555 C547 1.258 . S
O555 Zn549 2.035 . S
O556 Zn549 2.028 . S
O556 C559 1.247 . S
O557 Zn551 2.035 . S
O557 C559 1.258 . S
C558 O552 1.247 . S
C558 O553 1.258 . S
C559 O556 1.247 . S
C559 O557 1.258 . S
C560 O562 1.247 . S
C560 O564 1.258 . S
C561 O568 1.247 . S
C561 O569 1.258 . S
O562 C560 1.247 . S
O562 Zn563 2.028 . S
Zn563 O562 2.028 . S
Zn563 O567 2.035 1_556 S
Zn563 O569 2.035 1_556 S
Zn563 O570 2.028 . S
O564 C560 1.258 . S
O564 Zn565 2.035 . S
Zn565 O564 2.035 . S
Zn565 O566 2.028 1_556 S
Zn565 O568 2.028 1_556 S
Zn565 O571 2.035 . S
O566 Zn565 2.028 1_554 S
O566 C572 1.247 . S
O567 Zn563 2.035 1_554 S
O567 C572 1.258 . S
O568 C561 1.247 . S
O568 Zn565 2.028 1_554 S
O569 C561 1.258 . S
O569 Zn563 2.035 1_554 S
O570 Zn563 2.028 . S
O570 C573 1.247 . S
O571 Zn565 2.035 . S
O571 C573 1.258 . S
C572 O566 1.247 . S
C572 O567 1.258 . S
C573 O570 1.247 . S
C573 O571 1.258 . S
C574 O576 1.247 . S
C574 O578 1.258 . S
C575 O582 1.247 . S
C575 O583 1.258 . S
O576 C574 1.247 . S
O576 Zn577 2.028 . S
Zn577 O576 2.028 . S
Zn577 O581 2.035 1_554 S
Zn577 O583 2.035 1_554 S
Zn577 O584 2.028 . S
O578 C574 1.258 . S
O578 Zn579 2.035 . S
Zn579 O578 2.035 . S
Zn579 O580 2.028 1_554 S
Zn579 O582 2.028 1_554 S
Zn579 O585 2.035 . S
O580 Zn579 2.028 1_556 S
O580 C586 1.247 . S
O581 Zn577 2.035 1_556 S
O581 C586 1.258 . S
O582 C575 1.247 . S
O582 Zn579 2.028 1_556 S
O583 C575 1.258 . S
O583 Zn577 2.035 1_556 S
O584 Zn577 2.028 . S
O584 C587 1.247 . S
O585 Zn579 2.035 . S
O585 C587 1.258 . S
C586 O580 1.247 . S
C586 O581 1.258 . S
C587 O584 1.247 . S
C587 O585 1.258 . S
C588 O590 1.247 . S
C588 O592 1.258 . S
C589 O596 1.247 . S
C589 O597 1.258 . S
O590 C588 1.247 . S
O590 Zn591 2.028 . S
Zn591 O590 2.028 . S
Zn591 O595 2.035 . S
Zn591 O597 2.035 . S
Zn591 O598 2.028 . S
O592 C588 1.258 . S
O592 Zn593 2.035 . S
Zn593 O592 2.035 . S
Zn593 O594 2.028 . S
Zn593 O596 2.028 . S
Zn593 O599 2.035 . S
O594 Zn593 2.028 . S
O594 C600 1.247 . S
O595 Zn591 2.035 . S
O595 C600 1.258 . S
O596 C589 1.247 . S
O596 Zn593 2.028 . S
O597 C589 1.258 . S
O597 Zn591 2.035 . S
O598 Zn591 2.028 . S
O598 C601 1.247 . S
O599 Zn593 2.035 . S
O599 C601 1.258 . S
C600 O594 1.247 . S
C600 O595 1.258 . S
C601 O598 1.247 . S
C601 O599 1.258 . S
C602 O604 1.247 . S
C602 O606 1.258 . S
C603 O610 1.247 . S
C603 O611 1.258 . S
O604 C602 1.247 . S
O604 Zn605 2.028 . S
Zn605 O604 2.028 . S
Zn605 O609 2.035 . S
Zn605 O611 2.035 . S
Zn605 O612 2.028 . S
O606 C602 1.258 . S
O606 Zn607 2.035 . S
Zn607 O606 2.035 . S
Zn607 O608 2.028 . S
Zn607 O610 2.028 . S
Zn607 O613 2.035 . S
O608 Zn607 2.028 . S
O608 C614 1.247 . S
O609 Zn605 2.035 . S
O609 C614 1.258 . S
O610 C603 1.247 . S
O610 Zn607 2.028 . S
O611 C603 1.258 . S
O611 Zn605 2.035 . S
O612 Zn605 2.028 . S
O612 C615 1.247 . S
O613 Zn607 2.035 . S
O613 C615 1.258 . S
C614 O608 1.247 . S
C614 O609 1.258 . S
C615 O612 1.247 . S
C615 O613 1.258 . S
C616 O618 1.247 . S
C616 O620 1.258 . S
C617 O624 1.247 . S
C617 O625 1.258 . S
O618 C616 1.247 . S
O618 Zn619 2.028 . S
Zn619 O618 2.028 . S
Zn619 O623 2.035 . S
Zn619 O625 2.035 . S
Zn619 O626 2.028 . S
O620 C616 1.258 . S
O620 Zn621 2.035 . S
Zn621 O620 2.035 . S
Zn621 O622 2.028 . S
Zn621 O624 2.028 . S
Zn621 O627 2.035 . S
O622 Zn621 2.028 . S
O622 C628 1.247 . S
O623 Zn619 2.035 . S
O623 C628 1.258 . S
O624 C617 1.247 . S
O624 Zn621 2.028 . S
O625 C617 1.258 . S
O625 Zn619 2.035 . S
O626 Zn619 2.028 . S
O626 C629 1.247 . S
O627 Zn621 2.035 . S
O627 C629 1.258 . S
C628 O622 1.247 . S
C628 O623 1.258 . S
C629 O626 1.247 . S
C629 O627 1.258 . S
C630 O632 1.247 . S
C630 O634 1.258 . S
C631 O638 1.247 . S
C631 O639 1.258 . S
O632 C630 1.247 . S
O632 Zn633 2.028 . S
Zn633 O632 2.028 . S
Zn633 O637 2.035 . S
Zn633 O639 2.035 . S
Zn633 O640 2.028 . S
O634 C630 1.258 . S
O634 Zn635 2.035 . S
Zn635 O634 2.035 . S
Zn635 O636 2.028 . S
Zn635 O638 2.028 . S
Zn635 O641 2.035 . S
O636 Zn635 2.028 . S
O636 C642 1.247 . S
O637 Zn633 2.035 . S
O637 C642 1.258 . S
O638 C631 1.247 . S
O638 Zn635 2.028 . S
O639 C631 1.258 . S
O639 Zn633 2.035 . S
O640 Zn633 2.028 . S
O640 C643 1.247 . S
O641 Zn635 2.035 . S
O641 C643 1.258 . S
C642 O636 1.247 . S
C642 O637 1.258 . S
C643 O640 1.247 . S
C643 O641 1.258 . S
C644 O646 1.247 . S
C644 O648 1.258 . S
C645 O652 1.247 . S
C645 O653 1.258 . S
O646 C644 1.247 . S
O646 Zn647 2.028 . S
Zn647 O646 2.028 . S
Zn647 O651 2.035 . S
Zn647 O653 2.035 . S
Zn647 O654 2.028 . S
O648 C644 1.258 . S
O648 Zn649 2.035 . S
Zn649 O648 2.035 . S
Zn649 O650 2.028 . S
Zn649 O652 2.028 . S
Zn649 O655 2.035 . S
O650 Zn649 2.028 . S
O650 C656 1.247 . S
O651 Zn647 2.035 . S
O651 C656 1.258 . S
O652 C645 1.247 . S
O652 Zn649 2.028 . S
O653 C645 1.258 . S
O653 Zn647 2.035 . S
O654 Zn647 2.028 . S
O654 C657 1.247 . S
O655 Zn649 2.035 . S
O655 C657 1.258 . S
C656 O650 1.247 . S
C656 O651 1.258 . S
C657 O654 1.247 . S
C657 O655 1.258 . S
C658 O660 1.247 . S
C658 O662 1.258 . S
C659 O666 1.247 . S
C659 O667 1.258 . S
O660 C658 1.247 . S
O660 Zn661 2.028 . S
Zn661 O660 2.028 . S
Zn661 O665 2.035 . S
Zn661 O667 2.035 . S
Zn661 O668 2.028 . S
O662 C658 1.258 . S
O662 Zn663 2.035 . S
Zn663 O662 2.035 . S
Zn663 O664 2.028 . S
Zn663 O666 2.028 . S
Zn663 O669 2.035 . S
O664 Zn663 2.028 . S
O664 C670 1.247 . S
O665 Zn661 2.035 . S
O665 C670 1.258 . S
O666 C659 1.247 . S
O666 Zn663 2.028 . S
O667 C659 1.258 . S
O667 Zn661 2.035 . S
O668 Zn661 2.028 . S
O668 C671 1.247 . S
O669 Zn663 2.035 . S
O669 C671 1.258 . S
C670 O664 1.247 . S
C670 O665 1.258 . S
C671 O668 1.247 . S
C671 O669 1.258 . S
C672 O674 1.247 . S
C672 O676 1.258 . S
C673 O680 1.247 . S
C673 O681 1.258 . S
O674 C672 1.247 . S
O674 Zn675 2.028 . S
Zn675 O674 2.028 . S
Zn675 O679 2.035 . S
Zn675 O681 2.035 . S
Zn675 O682 2.028 . S
O676 C672 1.258 . S
O676 Zn677 2.035 . S
Zn677 O676 2.035 . S
Zn677 O678 2.028 . S
Zn677 O680 2.028 . S
Zn677 O683 2.035 . S
O678 Zn677 2.028 . S
O678 C684 1.247 . S
O679 Zn675 2.035 . S
O679 C684 1.258 . S
O680 C673 1.247 . S
O680 Zn677 2.028 . S
O681 C673 1.258 . S
O681 Zn675 2.035 . S
O682 Zn675 2.028 . S
O682 C685 1.247 . S
O683 Zn677 2.035 . S
O683 C685 1.258 . S
C684 O678 1.247 . S
C684 O679 1.258 . S
C685 O682 1.247 . S
C685 O683 1.258 . S
C686 O688 1.247 . S
C686 O690 1.258 . S
C687 O694 1.247 . S
C687 O695 1.258 . S
O688 C686 1.247 . S
O688 Zn689 2.028 . S
Zn689 O688 2.028 . S
Zn689 O693 2.035 . S
Zn689 O695 2.035 . S
Zn689 O696 2.028 . S
O690 C686 1.258 . S
O690 Zn691 2.035 . S
Zn691 O690 2.035 . S
Zn691 O692 2.028 . S
Zn691 O694 2.028 . S
Zn691 O697 2.035 . S
O692 Zn691 2.028 . S
O692 C698 1.247 . S
O693 Zn689 2.035 . S
O693 C698 1.258 . S
O694 C687 1.247 . S
O694 Zn691 2.028 . S
O695 C687 1.258 . S
O695 Zn689 2.035 . S
O696 Zn689 2.028 . S
O696 C699 1.247 . S
O697 Zn691 2.035 . S
O697 C699 1.258 . S
C698 O692 1.247 . S
C698 O693 1.258 . S
C699 O696 1.247 . S
C699 O697 1.258 . S
C700 O702 1.247 . S
C700 O704 1.258 . S
C701 O708 1.247 . S
C701 O709 1.258 . S
O702 C700 1.247 . S
O702 Zn703 2.028 . S
Zn703 O702 2.028 . S
Zn703 O707 2.035 1_655 S
Zn703 O709 2.035 1_655 S
Zn703 O710 2.028 . S
O704 C700 1.258 . S
O704 Zn705 2.035 . S
Zn705 O704 2.035 . S
Zn705 O706 2.028 1_655 S
Zn705 O708 2.028 1_655 S
Zn705 O711 2.035 . S
O706 Zn705 2.028 1_455 S
O706 C712 1.247 . S
O707 Zn703 2.035 1_455 S
O707 C712 1.258 . S
O708 C701 1.247 . S
O708 Zn705 2.028 1_455 S
O709 C701 1.258 . S
O709 Zn703 2.035 1_455 S
O710 Zn703 2.028 . S
O710 C713 1.247 . S
O711 Zn705 2.035 . S
O711 C713 1.258 . S
C712 O706 1.247 . S
C712 O707 1.258 . S
C713 O710 1.247 . S
C713 O711 1.258 . S
C714 O716 1.247 . S
C714 O718 1.258 . S
C715 O722 1.247 . S
C715 O723 1.258 . S
O716 C714 1.247 . S
O716 Zn717 2.028 . S
Zn717 O716 2.028 . S
Zn717 O721 2.035 . S
Zn717 O723 2.035 . S
Zn717 O724 2.028 . S
O718 C714 1.258 . S
O718 Zn719 2.035 . S
Zn719 O718 2.035 . S
Zn719 O720 2.028 . S
Zn719 O722 2.028 . S
Zn719 O725 2.035 . S
O720 Zn719 2.028 . S
O720 C726 1.247 . S
O721 Zn717 2.035 . S
O721 C726 1.258 . S
O722 C715 1.247 . S
O722 Zn719 2.028 . S
O723 C715 1.258 . S
O723 Zn717 2.035 . S
O724 Zn717 2.028 . S
O724 C727 1.247 . S
O725 Zn719 2.035 . S
O725 C727 1.258 . S
C726 O720 1.247 . S
C726 O721 1.258 . S
C727 O724 1.247 . S
C727 O725 1.258 . S
C728 O730 1.247 . S
C728 O732 1.258 . S
C729 O736 1.247 . S
C729 O737 1.258 . S
O730 C728 1.247 . S
O730 Zn731 2.028 . S
Zn731 O730 2.028 . S
Zn731 O735 2.035 . S
Zn731 O737 2.035 . S
Zn731 O738 2.028 . S
O732 C728 1.258 . S
O732 Zn733 2.035 . S
Zn733 O732 2.035 . S
Zn733 O734 2.028 . S
Zn733 O736 2.028 . S
Zn733 O739 2.035 . S
O734 Zn733 2.028 . S
O734 C740 1.247 . S
O735 Zn731 2.035 . S
O735 C740 1.258 . S
O736 C729 1.247 . S
O736 Zn733 2.028 . S
O737 C729 1.258 . S
O737 Zn731 2.035 . S
O738 Zn731 2.028 . S
O738 C741 1.247 . S
O739 Zn733 2.035 . S
O739 C741 1.258 . S
C740 O734 1.247 . S
C740 O735 1.258 . S
C741 O738 1.247 . S
C741 O739 1.258 . S
C742 O744 1.247 . S
C742 O746 1.258 . S
C743 O750 1.247 . S
C743 O751 1.258 . S
O744 C742 1.247 . S
O744 Zn745 2.028 . S
Zn745 O744 2.028 . S
Zn745 O749 2.035 . S
Zn745 O751 2.035 . S
Zn745 O752 2.028 . S
O746 C742 1.258 . S
O746 Zn747 2.035 . S
Zn747 O746 2.035 . S
Zn747 O748 2.028 . S
Zn747 O750 2.028 . S
Zn747 O753 2.035 . S
O748 Zn747 2.028 . S
O748 C754 1.247 . S
O749 Zn745 2.035 . S
O749 C754 1.258 . S
O750 C743 1.247 . S
O750 Zn747 2.028 . S
O751 C743 1.258 . S
O751 Zn745 2.035 . S
O752 Zn745 2.028 . S
O752 C755 1.247 . S
O753 Zn747 2.035 . S
O753 C755 1.258 . S
C754 O748 1.247 . S
C754 O749 1.258 . S
C755 O752 1.247 . S
C755 O753 1.258 . S
C756 O758 1.247 . S
C756 O760 1.258 . S
C757 O764 1.247 . S
C757 O765 1.258 . S
O758 C756 1.247 . S
O758 Zn759 2.028 . S
Zn759 O758 2.028 . S
Zn759 O763 2.035 1_655 S
Zn759 O765 2.035 1_655 S
Zn759 O766 2.028 . S
O760 C756 1.258 . S
O760 Zn761 2.035 . S
Zn761 O760 2.035 . S
Zn761 O762 2.028 1_655 S
Zn761 O764 2.028 1_655 S
Zn761 O767 2.035 . S
O762 Zn761 2.028 1_455 S
O762 C768 1.247 . S
O763 Zn759 2.035 1_455 S
O763 C768 1.258 . S
O764 C757 1.247 . S
O764 Zn761 2.028 1_455 S
O765 C757 1.258 . S
O765 Zn759 2.035 1_455 S
O766 Zn759 2.028 . S
O766 C769 1.247 . S
O767 Zn761 2.035 . S
O767 C769 1.258 . S
C768 O762 1.247 . S
C768 O763 1.258 . S
C769 O766 1.247 . S
C769 O767 1.258 . S
C770 O772 1.247 . S
C770 O774 1.258 . S
C771 O778 1.247 . S
C771 O779 1.258 . S
O772 C770 1.247 . S
O772 Zn773 2.028 . S
Zn773 O772 2.028 . S
Zn773 O777 2.035 . S
Zn773 O779 2.035 . S
Zn773 O780 2.028 . S
O774 C770 1.258 . S
O774 Zn775 2.035 . S
Zn775 O774 2.035 . S
Zn775 O776 2.028 . S
Zn775 O778 2.028 . S
Zn775 O781 2.035 . S
O776 Zn775 2.028 . S
O776 C782 1.247 . S
O777 Zn773 2.035 . S
O777 C782 1.258 . S
O778 C771 1.247 . S
O778 Zn775 2.028 . S
O779 C771 1.258 . S
O779 Zn773 2.035 . S
O780 Zn773 2.028 . S
O780 C783 1.247 . S
O781 Zn775 2.035 . S
O781 C783 1.258 . S
C782 O776 1.247 . S
C782 O777 1.258 . S
C783 O780 1.247 . S
C783 O781 1.258 . S
C784 O786 1.247 . S
C784 O788 1.258 . S
C785 O792 1.247 . S
C785 O793 1.258 . S
O786 C784 1.247 . S
O786 Zn787 2.028 . S
Zn787 O786 2.028 . S
Zn787 O791 2.035 . S
Zn787 O793 2.035 . S
Zn787 O794 2.028 . S
O788 C784 1.258 . S
O788 Zn789 2.035 . S
Zn789 O788 2.035 . S
Zn789 O790 2.028 . S
Zn789 O792 2.028 . S
Zn789 O795 2.035 . S
O790 Zn789 2.028 . S
O790 C796 1.247 . S
O791 Zn787 2.035 . S
O791 C796 1.258 . S
O792 C785 1.247 . S
O792 Zn789 2.028 . S
O793 C785 1.258 . S
O793 Zn787 2.035 . S
O794 Zn787 2.028 . S
O794 C797 1.247 . S
O795 Zn789 2.035 . S
O795 C797 1.258 . S
C796 O790 1.247 . S
C796 O791 1.258 . S
C797 O794 1.247 . S
C797 O795 1.258 . S
C798 O800 1.247 . S
C798 O802 1.258 . S
C799 O806 1.247 . S
C799 O807 1.258 . S
O800 C798 1.247 . S
O800 Zn801 2.028 . S
Zn801 O800 2.028 . S
Zn801 O805 2.035 . S
Zn801 O807 2.035 . S
Zn801 O808 2.028 . S
O802 C798 1.258 . S
O802 Zn803 2.035 . S
Zn803 O802 2.035 . S
Zn803 O804 2.028 . S
Zn803 O806 2.028 . S
Zn803 O809 2.035 . S
O804 Zn803 2.028 . S
O804 C810 1.247 . S
O805 Zn801 2.035 . S
O805 C810 1.258 . S
O806 C799 1.247 . S
O806 Zn803 2.028 . S
O807 C799 1.258 . S
O807 Zn801 2.035 . S
O808 Zn801 2.028 . S
O808 C811 1.247 . S
O809 Zn803 2.035 . S
O809 C811 1.258 . S
C810 O804 1.247 . S
C810 O805 1.258 . S
C811 O808 1.247 . S
C811 O809 1.258 . S
C812 O814 1.247 . S
C812 O816 1.258 . S
C813 O820 1.247 . S
C813 O821 1.258 . S
O814 C812 1.247 . S
O814 Zn815 2.028 . S
Zn815 O814 2.028 . S
Zn815 O819 2.035 . S
Zn815 O821 2.035 . S
Zn815 O822 2.028 . S
O816 C812 1.258 . S
O816 Zn817 2.035 . S
Zn817 O816 2.035 . S
Zn817 O818 2.028 . S
Zn817 O820 2.028 . S
Zn817 O823 2.035 . S
O818 Zn817 2.028 . S
O818 C824 1.247 . S
O819 Zn815 2.035 . S
O819 C824 1.258 . S
O820 C813 1.247 . S
O820 Zn817 2.028 . S
O821 C813 1.258 . S
O821 Zn815 2.035 . S
O822 Zn815 2.028 . S
O822 C825 1.247 . S
O823 Zn817 2.035 . S
O823 C825 1.258 . S
C824 O818 1.247 . S
C824 O819 1.258 . S
C825 O822 1.247 . S
C825 O823 1.258 . S
C826 O828 1.247 . S
C826 O830 1.258 . S
C827 O834 1.247 . S
C827 O835 1.258 . S
O828 C826 1.247 . S
O828 Zn829 2.028 . S
Zn829 O828 2.028 . S
Zn829 O833 2.035 . S
Zn829 O835 2.035 . S
Zn829 O836 2.028 . S
O830 C826 1.258 . S
O830 Zn831 2.035 . S
Zn831 O830 2.035 . S
Zn831 O832 2.028 . S
Zn831 O834 2.028 . S
Zn831 O837 2.035 . S
O832 Zn831 2.028 . S
O832 C838 1.247 . S
O833 Zn829 2.035 . S
O833 C838 1.258 . S
O834 C827 1.247 . S
O834 Zn831 2.028 . S
O835 C827 1.258 . S
O835 Zn829 2.035 . S
O836 Zn829 2.028 . S
O836 C839 1.247 . S
O837 Zn831 2.035 . S
O837 C839 1.258 . S
C838 O832 1.247 . S
C838 O833 1.258 . S
C839 O836 1.247 . S
C839 O837 1.258 . S
C840 O842 1.247 . S
C840 O844 1.258 . S
C841 O848 1.247 . S
C841 O849 1.258 . S
O842 C840 1.247 . S
O842 Zn843 2.028 . S
Zn843 O842 2.028 . S
Zn843 O847 2.035 . S
Zn843 O849 2.035 . S
Zn843 O850 2.028 . S
O844 C840 1.258 . S
O844 Zn845 2.035 . S
Zn845 O844 2.035 . S
Zn845 O846 2.028 . S
Zn845 O848 2.028 . S
Zn845 O851 2.035 . S
O846 Zn845 2.028 . S
O846 C852 1.247 . S
O847 Zn843 2.035 . S
O847 C852 1.258 . S
O848 C841 1.247 . S
O848 Zn845 2.028 . S
O849 C841 1.258 . S
O849 Zn843 2.035 . S
O850 Zn843 2.028 . S
O850 C853 1.247 . S
O851 Zn845 2.035 . S
O851 C853 1.258 . S
C852 O846 1.247 . S
C852 O847 1.258 . S
C853 O850 1.247 . S
C853 O851 1.258 . S
C854 O856 1.247 . S
C854 O858 1.258 . S
C855 O862 1.247 . S
C855 O863 1.258 . S
O856 C854 1.247 . S
O856 Zn857 2.028 . S
Zn857 O856 2.028 . S
Zn857 O861 2.035 . S
Zn857 O863 2.035 . S
Zn857 O864 2.028 . S
O858 C854 1.258 . S
O858 Zn859 2.035 . S
Zn859 O858 2.035 . S
Zn859 O860 2.028 . S
Zn859 O862 2.028 . S
Zn859 O865 2.035 . S
O860 Zn859 2.028 . S
O860 C866 1.247 . S
O861 Zn857 2.035 . S
O861 C866 1.258 . S
O862 C855 1.247 . S
O862 Zn859 2.028 . S
O863 C855 1.258 . S
O863 Zn857 2.035 . S
O864 Zn857 2.028 . S
O864 C867 1.247 . S
O865 Zn859 2.035 . S
O865 C867 1.258 . S
C866 O860 1.247 . S
C866 O861 1.258 . S
C867 O864 1.247 . S
C867 O865 1.258 . S
C868 O870 1.247 . S
C868 O872 1.258 . S
C869 O876 1.247 . S
C869 O877 1.258 . S
O870 C868 1.247 . S
O870 Zn871 2.028 . S
Zn871 O870 2.028 . S
Zn871 O875 2.035 . S
Zn871 O877 2.035 . S
Zn871 O878 2.028 . S
O872 C868 1.258 . S
O872 Zn873 2.035 . S
Zn873 O872 2.035 . S
Zn873 O874 2.028 . S
Zn873 O876 2.028 . S
Zn873 O879 2.035 . S
O874 Zn873 2.028 . S
O874 C880 1.247 . S
O875 Zn871 2.035 . S
O875 C880 1.258 . S
O876 C869 1.247 . S
O876 Zn873 2.028 . S
O877 C869 1.258 . S
O877 Zn871 2.035 . S
O878 Zn871 2.028 . S
O878 C881 1.247 . S
O879 Zn873 2.035 . S
O879 C881 1.258 . S
C880 O874 1.247 . S
C880 O875 1.258 . S
C881 O878 1.247 . S
C881 O879 1.258 . S
C882 O884 1.247 . S
C882 O886 1.258 . S
C883 O890 1.247 . S
C883 O891 1.258 . S
O884 C882 1.247 . S
O884 Zn885 2.028 . S
Zn885 O884 2.028 . S
Zn885 O889 2.035 . S
Zn885 O891 2.035 . S
Zn885 O892 2.028 . S
O886 C882 1.258 . S
O886 Zn887 2.035 . S
Zn887 O886 2.035 . S
Zn887 O888 2.028 . S
Zn887 O890 2.028 . S
Zn887 O893 2.035 . S
O888 Zn887 2.028 . S
O888 C894 1.247 . S
O889 Zn885 2.035 . S
O889 C894 1.258 . S
O890 C883 1.247 . S
O890 Zn887 2.028 . S
O891 C883 1.258 . S
O891 Zn885 2.035 . S
O892 Zn885 2.028 . S
O892 C895 1.247 . S
O893 Zn887 2.035 . S
O893 C895 1.258 . S
C894 O888 1.247 . S
C894 O889 1.258 . S
C895 O892 1.247 . S
C895 O893 1.258 . S
C896 O898 1.247 . S
C896 O900 1.258 . S
C897 O904 1.247 . S
C897 O905 1.258 . S
O898 C896 1.247 . S
O898 Zn899 2.028 . S
Zn899 O898 2.028 . S
Zn899 O903 2.035 . S
Zn899 O905 2.035 . S
Zn899 O906 2.028 . S
O900 C896 1.258 . S
O900 Zn901 2.035 . S
Zn901 O900 2.035 . S
Zn901 O902 2.028 . S
Zn901 O904 2.028 . S
Zn901 O907 2.035 . S
O902 Zn901 2.028 . S
O902 C908 1.247 . S
O903 Zn899 2.035 . S
O903 C908 1.258 . S
O904 C897 1.247 . S
O904 Zn901 2.028 . S
O905 C897 1.258 . S
O905 Zn899 2.035 . S
O906 Zn899 2.028 . S
O906 C909 1.247 . S
O907 Zn901 2.035 . S
O907 C909 1.258 . S
C908 O902 1.247 . S
C908 O903 1.258 . S
C909 O906 1.247 . S
C909 O907 1.258 . S
C910 O912 1.247 . S
C910 O914 1.258 . S
C911 O918 1.247 . S
C911 O919 1.258 . S
O912 C910 1.247 . S
O912 Zn913 2.028 . S
Zn913 O912 2.028 . S
Zn913 O917 2.035 . S
Zn913 O919 2.035 . S
Zn913 O920 2.028 . S
O914 C910 1.258 . S
O914 Zn915 2.035 . S
Zn915 O914 2.035 . S
Zn915 O916 2.028 . S
Zn915 O918 2.028 . S
Zn915 O921 2.035 . S
O916 Zn915 2.028 . S
O916 C922 1.247 . S
O917 Zn913 2.035 . S
O917 C922 1.258 . S
O918 C911 1.247 . S
O918 Zn915 2.028 . S
O919 C911 1.258 . S
O919 Zn913 2.035 . S
O920 Zn913 2.028 . S
O920 C923 1.247 . S
O921 Zn915 2.035 . S
O921 C923 1.258 . S
C922 O916 1.247 . S
C922 O917 1.258 . S
C923 O920 1.247 . S
C923 O921 1.258 . S
C924 O926 1.247 . S
C924 O928 1.258 . S
C925 O932 1.247 . S
C925 O933 1.258 . S
O926 C924 1.247 . S
O926 Zn927 2.028 . S
Zn927 O926 2.028 . S
Zn927 O931 2.035 . S
Zn927 O933 2.035 . S
Zn927 O934 2.028 . S
O928 C924 1.258 . S
O928 Zn929 2.035 . S
Zn929 O928 2.035 . S
Zn929 O930 2.028 . S
Zn929 O932 2.028 . S
Zn929 O935 2.035 . S
O930 Zn929 2.028 . S
O930 C936 1.247 . S
O931 Zn927 2.035 . S
O931 C936 1.258 . S
O932 C925 1.247 . S
O932 Zn929 2.028 . S
O933 C925 1.258 . S
O933 Zn927 2.035 . S
O934 Zn927 2.028 . S
O934 C937 1.247 . S
O935 Zn929 2.035 . S
O935 C937 1.258 . S
C936 O930 1.247 . S
C936 O931 1.258 . S
C937 O934 1.247 . S
C937 O935 1.258 . S
C938 O940 1.247 . S
C938 O942 1.258 . S
C939 O946 1.247 . S
C939 O947 1.258 . S
O940 C938 1.247 . S
O940 Zn941 2.028 1_554 S
Zn941 O940 2.028 1_556 S
Zn941 O945 2.035 . S
Zn941 O947 2.035 . S
Zn941 O948 2.028 1_556 S
O942 C938 1.258 . S
O942 Zn943 2.035 1_554 S
Zn943 O942 2.035 1_556 S
Zn943 O944 2.028 . S
Zn943 O946 2.028 . S
Zn943 O949 2.035 1_556 S
O944 Zn943 2.028 . S
O944 C950 1.247 . S
O945 Zn941 2.035 . S
O945 C950 1.258 . S
O946 C939 1.247 . S
O946 Zn943 2.028 . S
O947 C939 1.258 . S
O947 Zn941 2.035 . S
O948 Zn941 2.028 1_554 S
O948 C951 1.247 . S
O949 Zn943 2.035 1_554 S
O949 C951 1.258 . S
C950 O944 1.247 . S
C950 O945 1.258 . S
C951 O948 1.247 . S
C951 O949 1.258 . S
C952 O954 1.247 . S
C952 O956 1.258 . S
C953 O960 1.247 . S
C953 O961 1.258 . S
O954 C952 1.247 . S
O954 Zn955 2.028 . S
Zn955 O954 2.028 . S
Zn955 O959 2.035 . S
Zn955 O961 2.035 . S
Zn955 O962 2.028 . S
O956 C952 1.258 . S
O956 Zn957 2.035 . S
Zn957 O956 2.035 . S
Zn957 O958 2.028 . S
Zn957 O960 2.028 . S
Zn957 O963 2.035 . S
O958 Zn957 2.028 . S
O958 C964 1.247 . S
O959 Zn955 2.035 . S
O959 C964 1.258 . S
O960 C953 1.247 . S
O960 Zn957 2.028 . S
O961 C953 1.258 . S
O961 Zn955 2.035 . S
O962 Zn955 2.028 . S
O962 C965 1.247 . S
O963 Zn957 2.035 . S
O963 C965 1.258 . S
C964 O958 1.247 . S
C964 O959 1.258 . S
C965 O962 1.247 . S
C965 O963 1.258 . S
C966 O968 1.247 . S
C966 O970 1.258 . S
C967 O974 1.247 . S
C967 O975 1.258 . S
O968 C966 1.247 . S
O968 Zn969 2.028 1_556 S
Zn969 O968 2.028 1_554 S
Zn969 O973 2.035 . S
Zn969 O975 2.035 . S
Zn969 O976 2.028 1_554 S
O970 C966 1.258 . S
O970 Zn971 2.035 1_556 S
Zn971 O970 2.035 1_554 S
Zn971 O972 2.028 . S
Zn971 O974 2.028 . S
Zn971 O977 2.035 1_554 S
O972 Zn971 2.028 . S
O972 C978 1.247 . S
O973 Zn969 2.035 . S
O973 C978 1.258 . S
O974 C967 1.247 . S
O974 Zn971 2.028 . S
O975 C967 1.258 . S
O975 Zn969 2.035 . S
O976 Zn969 2.028 1_556 S
O976 C979 1.247 . S
O977 Zn971 2.035 1_556 S
O977 C979 1.258 . S
C978 O972 1.247 . S
C978 O973 1.258 . S
C979 O976 1.247 . S
C979 O977 1.258 . S
C980 O982 1.247 . S
C980 O984 1.258 . S
C981 O988 1.247 . S
C981 O989 1.258 . S
O982 C980 1.247 . S
O982 Zn983 2.028 . S
Zn983 O982 2.028 . S
Zn983 O987 2.035 . S
Zn983 O989 2.035 . S
Zn983 O990 2.028 . S
O984 C980 1.258 . S
O984 Zn985 2.035 . S
Zn985 O984 2.035 . S
Zn985 O986 2.028 . S
Zn985 O988 2.028 . S
Zn985 O991 2.035 . S
O986 Zn985 2.028 . S
O986 C992 1.247 . S
O987 Zn983 2.035 . S
O987 C992 1.258 . S
O988 C981 1.247 . S
O988 Zn985 2.028 . S
O989 C981 1.258 . S
O989 Zn983 2.035 . S
O990 Zn983 2.028 . S
O990 C993 1.247 . S
O991 Zn985 2.035 . S
O991 C993 1.258 . S
C992 O986 1.247 . S
C992 O987 1.258 . S
C993 O990 1.247 . S
C993 O991 1.258 . S
C994 O996 1.247 . S
C994 O998 1.258 . S
C995 O1002 1.247 . S
C995 O1003 1.258 . S
O996 C994 1.247 . S
O996 Zn997 2.028 . S
Zn997 O996 2.028 . S
Zn997 O1001 2.035 . S
Zn997 O1003 2.035 . S
Zn997 O1004 2.028 . S
O998 C994 1.258 . S
O998 Zn999 2.035 . S
Zn999 O998 2.035 . S
Zn999 O1000 2.028 . S
Zn999 O1002 2.028 . S
Zn999 O1005 2.035 . S
O1000 Zn999 2.028 . S
O1000 C1006 1.247 . S
O1001 Zn997 2.035 . S
O1001 C1006 1.258 . S
O1002 C995 1.247 . S
O1002 Zn999 2.028 . S
O1003 C995 1.258 . S
O1003 Zn997 2.035 . S
O1004 Zn997 2.028 . S
O1004 C1007 1.247 . S
O1005 Zn999 2.035 . S
O1005 C1007 1.258 . S
C1006 O1000 1.247 . S
C1006 O1001 1.258 . S
C1007 O1004 1.247 . S
C1007 O1005 1.258 . S
C1008 O1010 1.247 . S
C1008 O1012 1.258 . S
C1009 O1016 1.247 . S
C1009 O1017 1.258 . S
O1010 C1008 1.247 . S
O1010 Zn1011 2.028 . S
Zn1011 O1010 2.028 . S
Zn1011 O1015 2.035 . S
Zn1011 O1017 2.035 . S
Zn1011 O1018 2.028 . S
O1012 C1008 1.258 . S
O1012 Zn1013 2.035 . S
Zn1013 O1012 2.035 . S
Zn1013 O1014 2.028 . S
Zn1013 O1016 2.028 . S
Zn1013 O1019 2.035 . S
O1014 Zn1013 2.028 . S
O1014 C1020 1.247 . S
O1015 Zn1011 2.035 . S
O1015 C1020 1.258 . S
O1016 C1009 1.247 . S
O1016 Zn1013 2.028 . S
O1017 C1009 1.258 . S
O1017 Zn1011 2.035 . S
O1018 Zn1011 2.028 . S
O1018 C1021 1.247 . S
O1019 Zn1013 2.035 . S
O1019 C1021 1.258 . S
C1020 O1014 1.247 . S
C1020 O1015 1.258 . S
C1021 O1018 1.247 . S
C1021 O1019 1.258 . S
C1022 O1024 1.247 . S
C1022 O1026 1.258 . S
C1023 O1030 1.247 . S
C1023 O1031 1.258 . S
O1024 C1022 1.247 . S
O1024 Zn1025 2.028 . S
Zn1025 O1024 2.028 . S
Zn1025 O1029 2.035 . S
Zn1025 O1031 2.035 . S
Zn1025 O1032 2.028 . S
O1026 C1022 1.258 . S
O1026 Zn1027 2.035 . S
Zn1027 O1026 2.035 . S
Zn1027 O1028 2.028 . S
Zn1027 O1030 2.028 . S
Zn1027 O1033 2.035 . S
O1028 Zn1027 2.028 . S
O1028 C1034 1.247 . S
O1029 Zn1025 2.035 . S
O1029 C1034 1.258 . S
O1030 C1023 1.247 . S
O1030 Zn1027 2.028 . S
O1031 C1023 1.258 . S
O1031 Zn1025 2.035 . S
O1032 Zn1025 2.028 . S
O1032 C1035 1.247 . S
O1033 Zn1027 2.035 . S
O1033 C1035 1.258 . S
C1034 O1028 1.247 . S
C1034 O1029 1.258 . S
C1035 O1032 1.247 . S
C1035 O1033 1.258 . S
C1036 O1038 1.247 . S
C1036 O1040 1.258 . S
C1037 O1044 1.247 . S
C1037 O1045 1.258 . S
O1038 C1036 1.247 . S
O1038 Zn1039 2.028 1_655 S
Zn1039 O1038 2.028 1_455 S
Zn1039 O1043 2.035 . S
Zn1039 O1045 2.035 . S
Zn1039 O1046 2.028 1_455 S
O1040 C1036 1.258 . S
O1040 Zn1041 2.035 1_655 S
Zn1041 O1040 2.035 1_455 S
Zn1041 O1042 2.028 . S
Zn1041 O1044 2.028 . S
Zn1041 O1047 2.035 1_455 S
O1042 Zn1041 2.028 . S
O1042 C1048 1.247 . S
O1043 Zn1039 2.035 . S
O1043 C1048 1.258 . S
O1044 C1037 1.247 . S
O1044 Zn1041 2.028 . S
O1045 C1037 1.258 . S
O1045 Zn1039 2.035 . S
O1046 Zn1039 2.028 1_655 S
O1046 C1049 1.247 . S
O1047 Zn1041 2.035 1_655 S
O1047 C1049 1.258 . S
C1048 O1042 1.247 . S
C1048 O1043 1.258 . S
C1049 O1046 1.247 . S
C1049 O1047 1.258 . S
C1050 O1052 1.247 . S
C1050 O1054 1.258 . S
C1051 O1058 1.247 . S
C1051 O1059 1.258 . S
O1052 C1050 1.247 . S
O1052 Zn1053 2.028 . S
Zn1053 O1052 2.028 . S
Zn1053 O1057 2.035 . S
Zn1053 O1059 2.035 . S
Zn1053 O1060 2.028 . S
O1054 C1050 1.258 . S
O1054 Zn1055 2.035 . S
Zn1055 O1054 2.035 . S
Zn1055 O1056 2.028 . S
Zn1055 O1058 2.028 . S
Zn1055 O1061 2.035 . S
O1056 Zn1055 2.028 . S
O1056 C1062 1.247 . S
O1057 Zn1053 2.035 . S
O1057 C1062 1.258 . S
O1058 C1051 1.247 . S
O1058 Zn1055 2.028 . S
O1059 C1051 1.258 . S
O1059 Zn1053 2.035 . S
O1060 Zn1053 2.028 . S
O1060 C1063 1.247 . S
O1061 Zn1055 2.035 . S
O1061 C1063 1.258 . S
C1062 O1056 1.247 . S
C1062 O1057 1.258 . S
C1063 O1060 1.247 . S
C1063 O1061 1.258 . S
C1064 O1066 1.247 . S
C1064 O1068 1.258 . S
C1065 O1072 1.247 . S
C1065 O1073 1.258 . S
O1066 C1064 1.247 . S
O1066 Zn1067 2.028 . S
Zn1067 O1066 2.028 . S
Zn1067 O1071 2.035 . S
Zn1067 O1073 2.035 . S
Zn1067 O1074 2.028 . S
O1068 C1064 1.258 . S
O1068 Zn1069 2.035 . S
Zn1069 O1068 2.035 . S
Zn1069 O1070 2.028 . S
Zn1069 O1072 2.028 . S
Zn1069 O1075 2.035 . S
O1070 Zn1069 2.028 . S
O1070 C1076 1.247 . S
O1071 Zn1067 2.035 . S
O1071 C1076 1.258 . S
O1072 C1065 1.247 . S
O1072 Zn1069 2.028 . S
O1073 C1065 1.258 . S
O1073 Zn1067 2.035 . S
O1074 Zn1067 2.028 . S
O1074 C1077 1.247 . S
O1075 Zn1069 2.035 . S
O1075 C1077 1.258 . S
C1076 O1070 1.247 . S
C1076 O1071 1.258 . S
C1077 O1074 1.247 . S
C1077 O1075 1.258 . S
C1078 O1080 1.247 . S
C1078 O1082 1.258 . S
C1079 O1086 1.247 . S
C1079 O1087 1.258 . S
O1080 C1078 1.247 . S
O1080 Zn1081 2.028 . S
Zn1081 O1080 2.028 . S
Zn1081 O1085 2.035 . S
Zn1081 O1087 2.035 . S
Zn1081 O1088 2.028 . S
O1082 C1078 1.258 . S
O1082 Zn1083 2.035 . S
Zn1083 O1082 2.035 . S
Zn1083 O1084 2.028 . S
Zn1083 O1086 2.028 . S
Zn1083 O1089 2.035 . S
O1084 Zn1083 2.028 . S
O1084 C1090 1.247 . S
O1085 Zn1081 2.035 . S
O1085 C1090 1.258 . S
O1086 C1079 1.247 . S
O1086 Zn1083 2.028 . S
O1087 C1079 1.258 . S
O1087 Zn1081 2.035 . S
O1088 Zn1081 2.028 . S
O1088 C1091 1.247 . S
O1089 Zn1083 2.035 . S
O1089 C1091 1.258 . S
C1090 O1084 1.247 . S
C1090 O1085 1.258 . S
C1091 O1088 1.247 . S
C1091 O1089 1.258 . S
C1092 O1094 1.247 . S
C1092 O1096 1.258 . S
C1093 O1100 1.247 . S
C1093 O1101 1.258 . S
O1094 C1092 1.247 . S
O1094 Zn1095 2.028 1_655 S
Zn1095 O1094 2.028 1_455 S
Zn1095 O1099 2.035 . S
Zn1095 O1101 2.035 . S
Zn1095 O1102 2.028 1_455 S
O1096 C1092 1.258 . S
O1096 Zn1097 2.035 1_655 S
Zn1097 O1096 2.035 1_455 S
Zn1097 O1098 2.028 . S
Zn1097 O1100 2.028 . S
Zn1097 O1103 2.035 1_455 S
O1098 Zn1097 2.028 . S
O1098 C1104 1.247 . S
O1099 Zn1095 2.035 . S
O1099 C1104 1.258 . S
O1100 C1093 1.247 . S
O1100 Zn1097 2.028 . S
O1101 C1093 1.258 . S
O1101 Zn1095 2.035 . S
O1102 Zn1095 2.028 1_655 S
O1102 C1105 1.247 . S
O1103 Zn1097 2.035 1_655 S
O1103 C1105 1.258 . S
C1104 O1098 1.247 . S
C1104 O1099 1.258 . S
C1105 O1102 1.247 . S
C1105 O1103 1.258 . S
C1106 O1108 1.247 . S
C1106 O1110 1.258 . S
C1107 O1114 1.247 . S
C1107 O1115 1.258 . S
O1108 C1106 1.247 . S
O1108 Zn1109 2.028 . S
Zn1109 O1108 2.028 . S
Zn1109 O1113 2.035 . S
Zn1109 O1115 2.035 . S
Zn1109 O1116 2.028 . S
O1110 C1106 1.258 . S
O1110 Zn1111 2.035 . S
Zn1111 O1110 2.035 . S
Zn1111 O1112 2.028 . S
Zn1111 O1114 2.028 . S
Zn1111 O1117 2.035 . S
O1112 Zn1111 2.028 . S
O1112 C1118 1.247 . S
O1113 Zn1109 2.035 . S
O1113 C1118 1.258 . S
O1114 C1107 1.247 . S
O1114 Zn1111 2.028 . S
O1115 C1107 1.258 . S
O1115 Zn1109 2.035 . S
O1116 Zn1109 2.028 . S
O1116 C1119 1.247 . S
O1117 Zn1111 2.035 . S
O1117 C1119 1.258 . S
C1118 O1112 1.247 . S
C1118 O1113 1.258 . S
C1119 O1116 1.247 . S
C1119 O1117 1.258 . S
C1120 O1122 1.247 . S
C1120 O1124 1.258 . S
C1121 O1128 1.247 . S
C1121 O1129 1.258 . S
O1122 C1120 1.247 . S
O1122 Zn1123 2.028 . S
Zn1123 O1122 2.028 . S
Zn1123 O1127 2.035 . S
Zn1123 O1129 2.035 . S
Zn1123 O1130 2.028 . S
O1124 C1120 1.258 . S
O1124 Zn1125 2.035 . S
Zn1125 O1124 2.035 . S
Zn1125 O1126 2.028 . S
Zn1125 O1128 2.028 . S
Zn1125 O1131 2.035 . S
O1126 Zn1125 2.028 . S
O1126 C1132 1.247 . S
O1127 Zn1123 2.035 . S
O1127 C1132 1.258 . S
O1128 C1121 1.247 . S
O1128 Zn1125 2.028 . S
O1129 C1121 1.258 . S
O1129 Zn1123 2.035 . S
O1130 Zn1123 2.028 . S
O1130 C1133 1.247 . S
O1131 Zn1125 2.035 . S
O1131 C1133 1.258 . S
C1132 O1126 1.247 . S
C1132 O1127 1.258 . S
C1133 O1130 1.247 . S
C1133 O1131 1.258 . S
C1134 O1136 1.247 . S
C1134 O1138 1.258 . S
C1135 O1142 1.247 . S
C1135 O1143 1.258 . S
O1136 C1134 1.247 . S
O1136 Zn1137 2.028 . S
Zn1137 O1136 2.028 . S
Zn1137 O1141 2.035 . S
Zn1137 O1143 2.035 . S
Zn1137 O1144 2.028 . S
O1138 C1134 1.258 . S
O1138 Zn1139 2.035 . S
Zn1139 O1138 2.035 . S
Zn1139 O1140 2.028 . S
Zn1139 O1142 2.028 . S
Zn1139 O1145 2.035 . S
O1140 Zn1139 2.028 . S
O1140 C1146 1.247 . S
O1141 Zn1137 2.035 . S
O1141 C1146 1.258 . S
O1142 C1135 1.247 . S
O1142 Zn1139 2.028 . S
O1143 C1135 1.258 . S
O1143 Zn1137 2.035 . S
O1144 Zn1137 2.028 . S
O1144 C1147 1.247 . S
O1145 Zn1139 2.035 . S
O1145 C1147 1.258 . S
C1146 O1140 1.247 . S
C1146 O1141 1.258 . S
C1147 O1144 1.247 . S
C1147 O1145 1.258 . S
C1148 O1150 1.247 . S
C1148 O1152 1.258 . S
C1149 O1156 1.247 . S
C1149 O1157 1.258 . S
O1150 C1148 1.247 . S
O1150 Zn1151 2.028 . S
Zn1151 O1150 2.028 . S
Zn1151 O1155 2.035 . S
Zn1151 O1157 2.035 . S
Zn1151 O1158 2.028 . S
O1152 C1148 1.258 . S
O1152 Zn1153 2.035 . S
Zn1153 O1152 2.035 . S
Zn1153 O1154 2.028 . S
Zn1153 O1156 2.028 . S
Zn1153 O1159 2.035 . S
O1154 Zn1153 2.028 . S
O1154 C1160 1.247 . S
O1155 Zn1151 2.035 . S
O1155 C1160 1.258 . S
O1156 C1149 1.247 . S
O1156 Zn1153 2.028 . S
O1157 C1149 1.258 . S
O1157 Zn1151 2.035 . S
O1158 Zn1151 2.028 . S
O1158 C1161 1.247 . S
O1159 Zn1153 2.035 . S
O1159 C1161 1.258 . S
C1160 O1154 1.247 . S
C1160 O1155 1.258 . S
C1161 O1158 1.247 . S
C1161 O1159 1.258 . S
C1162 O1164 1.247 . S
C1162 O1166 1.258 . S
C1163 O1170 1.247 . S
C1163 O1171 1.258 . S
O1164 C1162 1.247 . S
O1164 Zn1165 2.028 . S
Zn1165 O1164 2.028 . S
Zn1165 O1169 2.035 . S
Zn1165 O1171 2.035 . S
Zn1165 O1172 2.028 . S
O1166 C1162 1.258 . S
O1166 Zn1167 2.035 . S
Zn1167 O1166 2.035 . S
Zn1167 O1168 2.028 . S
Zn1167 O1170 2.028 . S
Zn1167 O1173 2.035 . S
O1168 Zn1167 2.028 . S
O1168 C1174 1.247 . S
O1169 Zn1165 2.035 . S
O1169 C1174 1.258 . S
O1170 C1163 1.247 . S
O1170 Zn1167 2.028 . S
O1171 C1163 1.258 . S
O1171 Zn1165 2.035 . S
O1172 Zn1165 2.028 . S
O1172 C1175 1.247 . S
O1173 Zn1167 2.035 . S
O1173 C1175 1.258 . S
C1174 O1168 1.247 . S
C1174 O1169 1.258 . S
C1175 O1172 1.247 . S
C1175 O1173 1.258 . S
C1176 O1178 1.247 . S
C1176 O1180 1.258 . S
C1177 O1184 1.247 . S
C1177 O1185 1.258 . S
O1178 C1176 1.247 . S
O1178 Zn1179 2.028 . S
Zn1179 O1178 2.028 . S
Zn1179 O1183 2.035 . S
Zn1179 O1185 2.035 . S
Zn1179 O1186 2.028 . S
O1180 C1176 1.258 . S
O1180 Zn1181 2.035 . S
Zn1181 O1180 2.035 . S
Zn1181 O1182 2.028 . S
Zn1181 O1184 2.028 . S
Zn1181 O1187 2.035 . S
O1182 Zn1181 2.028 . S
O1182 C1188 1.247 . S
O1183 Zn1179 2.035 . S
O1183 C1188 1.258 . S
O1184 C1177 1.247 . S
O1184 Zn1181 2.028 . S
O1185 C1177 1.258 . S
O1185 Zn1179 2.035 . S
O1186 Zn1179 2.028 . S
O1186 C1189 1.247 . S
O1187 Zn1181 2.035 . S
O1187 C1189 1.258 . S
C1188 O1182 1.247 . S
C1188 O1183 1.258 . S
C1189 O1186 1.247 . S
C1189 O1187 1.258 . S
C1190 O1192 1.247 . S
C1190 O1194 1.258 . S
C1191 O1198 1.247 . S
C1191 O1199 1.258 . S
O1192 C1190 1.247 . S
O1192 Zn1193 2.028 . S
Zn1193 O1192 2.028 . S
Zn1193 O1197 2.035 . S
Zn1193 O1199 2.035 . S
Zn1193 O1200 2.028 . S
O1194 C1190 1.258 . S
O1194 Zn1195 2.035 . S
Zn1195 O1194 2.035 . S
Zn1195 O1196 2.028 . S
Zn1195 O1198 2.028 . S
Zn1195 O1201 2.035 . S
O1196 Zn1195 2.028 . S
O1196 C1202 1.247 . S
O1197 Zn1193 2.035 . S
O1197 C1202 1.258 . S
O1198 C1191 1.247 . S
O1198 Zn1195 2.028 . S
O1199 C1191 1.258 . S
O1199 Zn1193 2.035 . S
O1200 Zn1193 2.028 . S
O1200 C1203 1.247 . S
O1201 Zn1195 2.035 . S
O1201 C1203 1.258 . S
C1202 O1196 1.247 . S
C1202 O1197 1.258 . S
C1203 O1200 1.247 . S
C1203 O1201 1.258 . S
C1204 O1206 1.247 . S
C1204 O1208 1.258 . S
C1205 O1212 1.247 . S
C1205 O1213 1.258 . S
O1206 C1204 1.247 . S
O1206 Zn1207 2.028 . S
Zn1207 O1206 2.028 . S
Zn1207 O1211 2.035 . S
Zn1207 O1213 2.035 . S
Zn1207 O1214 2.028 . S
O1208 C1204 1.258 . S
O1208 Zn1209 2.035 . S
Zn1209 O1208 2.035 . S
Zn1209 O1210 2.028 . S
Zn1209 O1212 2.028 . S
Zn1209 O1215 2.035 . S
O1210 Zn1209 2.028 . S
O1210 C1216 1.247 . S
O1211 Zn1207 2.035 . S
O1211 C1216 1.258 . S
O1212 C1205 1.247 . S
O1212 Zn1209 2.028 . S
O1213 C1205 1.258 . S
O1213 Zn1207 2.035 . S
O1214 Zn1207 2.028 . S
O1214 C1217 1.247 . S
O1215 Zn1209 2.035 . S
O1215 C1217 1.258 . S
C1216 O1210 1.247 . S
C1216 O1211 1.258 . S
C1217 O1214 1.247 . S
C1217 O1215 1.258 . S
C1218 O1220 1.247 . S
C1218 O1222 1.258 . S
C1219 O1226 1.247 . S
C1219 O1227 1.258 . S
O1220 C1218 1.247 . S
O1220 Zn1221 2.028 . S
Zn1221 O1220 2.028 . S
Zn1221 O1225 2.035 . S
Zn1221 O1227 2.035 . S
Zn1221 O1228 2.028 . S
O1222 C1218 1.258 . S
O1222 Zn1223 2.035 . S
Zn1223 O1222 2.035 . S
Zn1223 O1224 2.028 . S
Zn1223 O1226 2.028 . S
Zn1223 O1229 2.035 . S
O1224 Zn1223 2.028 . S
O1224 C1230 1.247 . S
O1225 Zn1221 2.035 . S
O1225 C1230 1.258 . S
O1226 C1219 1.247 . S
O1226 Zn1223 2.028 . S
O1227 C1219 1.258 . S
O1227 Zn1221 2.035 . S
O1228 Zn1221 2.028 . S
O1228 C1231 1.247 . S
O1229 Zn1223 2.035 . S
O1229 C1231 1.258 . S
C1230 O1224 1.247 . S
C1230 O1225 1.258 . S
C1231 O1228 1.247 . S
C1231 O1229 1.258 . S
C1232 O1234 1.247 . S
C1232 O1236 1.258 . S
C1233 O1240 1.247 . S
C1233 O1241 1.258 . S
O1234 C1232 1.247 . S
O1234 Zn1235 2.028 . S
Zn1235 O1234 2.028 . S
Zn1235 O1239 2.035 . S
Zn1235 O1241 2.035 . S
Zn1235 O1242 2.028 . S
O1236 C1232 1.258 . S
O1236 Zn1237 2.035 . S
Zn1237 O1236 2.035 . S
Zn1237 O1238 2.028 . S
Zn1237 O1240 2.028 . S
Zn1237 O1243 2.035 . S
O1238 Zn1237 2.028 . S
O1238 C1244 1.247 . S
O1239 Zn1235 2.035 . S
O1239 C1244 1.258 . S
O1240 C1233 1.247 . S
O1240 Zn1237 2.028 . S
O1241 C1233 1.258 . S
O1241 Zn1235 2.035 . S
O1242 Zn1235 2.028 . S
O1242 C1245 1.247 . S
O1243 Zn1237 2.035 . S
O1243 C1245 1.258 . S
C1244 O1238 1.247 . S
C1244 O1239 1.258 . S
C1245 O1242 1.247 . S
C1245 O1243 1.258 . S
C1246 O1248 1.247 . S
C1246 O1250 1.258 . S
C1247 O1254 1.247 . S
C1247 O1255 1.258 . S
O1248 C1246 1.247 . S
O1248 Zn1249 2.028 . S
Zn1249 O1248 2.028 . S
Zn1249 O1253 2.035 . S
Zn1249 O1255 2.035 . S
Zn1249 O1256 2.028 . S
O1250 C1246 1.258 . S
O1250 Zn1251 2.035 . S
Zn1251 O1250 2.035 . S
Zn1251 O1252 2.028 . S
Zn1251 O1254 2.028 . S
Zn1251 O1257 2.035 . S
O1252 Zn1251 2.028 . S
O1252 C1258 1.247 . S
O1253 Zn1249 2.035 . S
O1253 C1258 1.258 . S
O1254 C1247 1.247 . S
O1254 Zn1251 2.028 . S
O1255 C1247 1.258 . S
O1255 Zn1249 2.035 . S
O1256 Zn1249 2.028 . S
O1256 C1259 1.247 . S
O1257 Zn1251 2.035 . S
O1257 C1259 1.258 . S
C1258 O1252 1.247 . S
C1258 O1253 1.258 . S
C1259 O1256 1.247 . S
C1259 O1257 1.258 . S
C1260 O1262 1.247 . S
C1260 O1264 1.258 . S
C1261 O1268 1.247 . S
C1261 O1269 1.258 . S
O1262 C1260 1.247 . S
O1262 Zn1263 2.028 . S
Zn1263 O1262 2.028 . S
Zn1263 O1267 2.035 . S
Zn1263 O1269 2.035 . S
Zn1263 O1270 2.028 . S
O1264 C1260 1.258 . S
O1264 Zn1265 2.035 . S
Zn1265 O1264 2.035 . S
Zn1265 O1266 2.028 . S
Zn1265 O1268 2.028 . S
Zn1265 O1271 2.035 . S
O1266 Zn1265 2.028 . S
O1266 C1272 1.247 . S
O1267 Zn1263 2.035 . S
O1267 C1272 1.258 . S
O1268 C1261 1.247 . S
O1268 Zn1265 2.028 . S
O1269 C1261 1.258 . S
O1269 Zn1263 2.035 . S
O1270 Zn1263 2.028 . S
O1270 C1273 1.247 . S
O1271 Zn1265 2.035 . S
O1271 C1273 1.258 . S
C1272 O1266 1.247 . S
C1272 O1267 1.258 . S
C1273 O1270 1.247 . S
C1273 O1271 1.258 . S
C1274 O1276 1.247 . S
C1274 O1278 1.258 . S
C1275 O1282 1.247 . S
C1275 O1283 1.258 . S
O1276 C1274 1.247 . S
O1276 Zn1277 2.028 . S
Zn1277 O1276 2.028 . S
Zn1277 O1281 2.035 1_554 S
Zn1277 O1283 2.035 1_554 S
Zn1277 O1284 2.028 . S
O1278 C1274 1.258 . S
O1278 Zn1279 2.035 . S
Zn1279 O1278 2.035 . S
Zn1279 O1280 2.028 1_554 S
Zn1279 O1282 2.028 1_554 S
Zn1279 O1285 2.035 . S
O1280 Zn1279 2.028 1_556 S
O1280 C1286 1.247 . S
O1281 Zn1277 2.035 1_556 S
O1281 C1286 1.258 . S
O1282 C1275 1.247 . S
O1282 Zn1279 2.028 1_556 S
O1283 C1275 1.258 . S
O1283 Zn1277 2.035 1_556 S
O1284 Zn1277 2.028 . S
O1284 C1287 1.247 . S
O1285 Zn1279 2.035 . S
O1285 C1287 1.258 . S
C1286 O1280 1.247 . S
C1286 O1281 1.258 . S
C1287 O1284 1.247 . S
C1287 O1285 1.258 . S
C1288 O1290 1.247 . S
C1288 O1292 1.258 . S
C1289 O1296 1.247 . S
C1289 O1297 1.258 . S
O1290 C1288 1.247 . S
O1290 Zn1291 2.028 . S
Zn1291 O1290 2.028 . S
Zn1291 O1295 2.035 . S
Zn1291 O1297 2.035 . S
Zn1291 O1298 2.028 . S
O1292 C1288 1.258 . S
O1292 Zn1293 2.035 . S
Zn1293 O1292 2.035 . S
Zn1293 O1294 2.028 . S
Zn1293 O1296 2.028 . S
Zn1293 O1299 2.035 . S
O1294 Zn1293 2.028 . S
O1294 C1300 1.247 . S
O1295 Zn1291 2.035 . S
O1295 C1300 1.258 . S
O1296 C1289 1.247 . S
O1296 Zn1293 2.028 . S
O1297 C1289 1.258 . S
O1297 Zn1291 2.035 . S
O1298 Zn1291 2.028 . S
O1298 C1301 1.247 . S
O1299 Zn1293 2.035 . S
O1299 C1301 1.258 . S
C1300 O1294 1.247 . S
C1300 O1295 1.258 . S
C1301 O1298 1.247 . S
C1301 O1299 1.258 . S
C1302 O1304 1.247 . S
C1302 O1306 1.258 . S
C1303 O1310 1.247 . S
C1303 O1311 1.258 . S
O1304 C1302 1.247 . S
O1304 Zn1305 2.028 . S
Zn1305 O1304 2.028 . S
Zn1305 O1309 2.035 1_556 S
Zn1305 O1311 2.035 1_556 S
Zn1305 O1312 2.028 . S
O1306 C1302 1.258 . S
O1306 Zn1307 2.035 . S
Zn1307 O1306 2.035 . S
Zn1307 O1308 2.028 1_556 S
Zn1307 O1310 2.028 1_556 S
Zn1307 O1313 2.035 . S
O1308 Zn1307 2.028 1_554 S
O1308 C1314 1.247 . S
O1309 Zn1305 2.035 1_554 S
O1309 C1314 1.258 . S
O1310 C1303 1.247 . S
O1310 Zn1307 2.028 1_554 S
O1311 C1303 1.258 . S
O1311 Zn1305 2.035 1_554 S
O1312 Zn1305 2.028 . S
O1312 C1315 1.247 . S
O1313 Zn1307 2.035 . S
O1313 C1315 1.258 . S
C1314 O1308 1.247 . S
C1314 O1309 1.258 . S
C1315 O1312 1.247 . S
C1315 O1313 1.258 . S
C1316 O1318 1.247 . S
C1316 O1320 1.258 . S
C1317 O1324 1.247 . S
C1317 O1325 1.258 . S
O1318 C1316 1.247 . S
O1318 Zn1319 2.028 . S
Zn1319 O1318 2.028 . S
Zn1319 O1323 2.035 . S
Zn1319 O1325 2.035 . S
Zn1319 O1326 2.028 . S
O1320 C1316 1.258 . S
O1320 Zn1321 2.035 . S
Zn1321 O1320 2.035 . S
Zn1321 O1322 2.028 . S
Zn1321 O1324 2.028 . S
Zn1321 O1327 2.035 . S
O1322 Zn1321 2.028 . S
O1322 C1328 1.247 . S
O1323 Zn1319 2.035 . S
O1323 C1328 1.258 . S
O1324 C1317 1.247 . S
O1324 Zn1321 2.028 . S
O1325 C1317 1.258 . S
O1325 Zn1319 2.035 . S
O1326 Zn1319 2.028 . S
O1326 C1329 1.247 . S
O1327 Zn1321 2.035 . S
O1327 C1329 1.258 . S
C1328 O1322 1.247 . S
C1328 O1323 1.258 . S
C1329 O1326 1.247 . S
C1329 O1327 1.258 . S
C1330 O1332 1.247 . S
C1330 O1334 1.258 . S
C1331 O1338 1.247 . S
C1331 O1339 1.258 . S
O1332 C1330 1.247 . S
O1332 Zn1333 2.028 . S
Zn1333 O1332 2.028 . S
Zn1333 O1337 2.035 . S
Zn1333 O1339 2.035 . S
Zn1333 O1340 2.028 . S
O1334 C1330 1.258 . S
O1334 Zn1335 2.035 . S
Zn1335 O1334 2.035 . S
Zn1335 O1336 2.028 . S
Zn1335 O1338 2.028 . S
Zn1335 O1341 2.035 . S
O1336 Zn1335 2.028 . S
O1336 C1342 1.247 . S
O1337 Zn1333 2.035 . S
O1337 C1342 1.258 . S
O1338 C1331 1.247 . S
O1338 Zn1335 2.028 . S
O1339 C1331 1.258 . S
O1339 Zn1333 2.035 . S
O1340 Zn1333 2.028 . S
O1340 C1343 1.247 . S
O1341 Zn1335 2.035 . S
O1341 C1343 1.258 . S
C1342 O1336 1.247 . S
C1342 O1337 1.258 . S
C1343 O1340 1.247 . S
C1343 O1341 1.258 . S
C1344 C1345 1.387 . S
C1344 H1348 0.950 . S
C1344 C1353 1.390 . S
C1345 C1344 1.387 . S
C1345 C1347 1.387 . S
H1346 C1353 0.950 . S
C1347 C1345 1.387 . S
C1347 C1349 1.390 . S
C1347 H1351 0.950 . S
H1348 C1344 0.950 . S
C1349 C1347 1.390 . S
C1349 C1350 1.387 . S
C1349 H1352 0.950 . S
C1350 C1349 1.387 . S
C1350 C1353 1.387 . S
H1351 C1347 0.950 . S
H1352 C1349 0.950 . S
C1353 C1344 1.390 . S
C1353 H1346 0.950 . S
C1353 C1350 1.387 . S
C1354 C1355 1.387 . S
C1354 H1358 0.950 . S
C1354 C1363 1.390 . S
C1355 C1354 1.387 . S
C1355 C1357 1.387 . S
H1356 C1363 0.950 . S
C1357 C1355 1.387 . S
C1357 C1359 1.390 . S
C1357 H1361 0.950 . S
H1358 C1354 0.950 . S
C1359 C1357 1.390 . S
C1359 C1360 1.387 . S
C1359 H1362 0.950 . S
C1360 C1359 1.387 . S
C1360 C1363 1.387 . S
H1361 C1357 0.950 . S
H1362 C1359 0.950 . S
C1363 C1354 1.390 . S
C1363 H1356 0.950 . S
C1363 C1360 1.387 . S
C1364 C1365 1.387 . S
C1364 H1368 0.950 . S
C1364 C1373 1.390 . S
C1365 C1364 1.387 . S
C1365 C1367 1.387 . S
H1366 C1373 0.950 . S
C1367 C1365 1.387 . S
C1367 C1369 1.390 . S
C1367 H1371 0.950 . S
H1368 C1364 0.950 . S
C1369 C1367 1.390 . S
C1369 C1370 1.387 . S
C1369 H1372 0.950 . S
C1370 C1369 1.387 . S
C1370 C1373 1.387 . S
H1371 C1367 0.950 . S
H1372 C1369 0.950 . S
C1373 C1364 1.390 . S
C1373 H1366 0.950 . S
C1373 C1370 1.387 . S
C1374 C1375 1.387 . S
C1374 H1378 0.950 . S
C1374 C1383 1.390 . S
C1375 C1374 1.387 . S
C1375 C1377 1.387 . S
H1376 C1383 0.950 . S
C1377 C1375 1.387 . S
C1377 C1379 1.390 . S
C1377 H1381 0.950 . S
H1378 C1374 0.950 . S
C1379 C1377 1.390 . S
C1379 C1380 1.387 . S
C1379 H1382 0.950 . S
C1380 C1379 1.387 . S
C1380 C1383 1.387 . S
H1381 C1377 0.950 . S
H1382 C1379 0.950 . S
C1383 C1374 1.390 . S
C1383 H1376 0.950 . S
C1383 C1380 1.387 . S
C1384 C1385 1.387 . S
C1384 H1388 0.950 . S
C1384 C1393 1.390 . S
C1385 C1384 1.387 . S
C1385 C1387 1.387 . S
H1386 C1393 0.950 . S
C1387 C1385 1.387 . S
C1387 C1389 1.390 . S
C1387 H1391 0.950 . S
H1388 C1384 0.950 . S
C1389 C1387 1.390 . S
C1389 C1390 1.387 . S
C1389 H1392 0.950 . S
C1390 C1389 1.387 . S
C1390 C1393 1.387 . S
H1391 C1387 0.950 . S
H1392 C1389 0.950 . S
C1393 C1384 1.390 . S
C1393 H1386 0.950 . S
C1393 C1390 1.387 . S
C1394 C1395 1.387 . S
C1394 H1398 0.950 . S
C1394 C1403 1.390 . S
C1395 C1394 1.387 . S
C1395 C1397 1.387 . S
H1396 C1403 0.950 . S
C1397 C1395 1.387 . S
C1397 C1399 1.390 . S
C1397 H1401 0.950 . S
H1398 C1394 0.950 . S
C1399 C1397 1.390 . S
C1399 C1400 1.387 . S
C1399 H1402 0.950 . S
C1400 C1399 1.387 . S
C1400 C1403 1.387 . S
H1401 C1397 0.950 . S
H1402 C1399 0.950 . S
C1403 C1394 1.390 . S
C1403 H1396 0.950 . S
C1403 C1400 1.387 . S
C1404 C1405 1.387 . S
C1404 H1408 0.950 . S
C1404 C1413 1.390 . S
C1405 C1404 1.387 . S
C1405 C1407 1.387 . S
H1406 C1413 0.950 . S
C1407 C1405 1.387 . S
C1407 C1409 1.390 . S
C1407 H1411 0.950 . S
H1408 C1404 0.950 . S
C1409 C1407 1.390 . S
C1409 C1410 1.387 . S
C1409 H1412 0.950 . S
C1410 C1409 1.387 . S
C1410 C1413 1.387 . S
H1411 C1407 0.950 . S
H1412 C1409 0.950 . S
C1413 C1404 1.390 . S
C1413 H1406 0.950 . S
C1413 C1410 1.387 . S
C1414 C1415 1.387 . S
C1414 H1418 0.950 . S
C1414 C1423 1.390 . S
C1415 C1414 1.387 . S
C1415 C1417 1.387 . S
H1416 C1423 0.950 . S
C1417 C1415 1.387 . S
C1417 C1419 1.390 . S
C1417 H1421 0.950 . S
H1418 C1414 0.950 . S
C1419 C1417 1.390 . S
C1419 C1420 1.387 . S
C1419 H1422 0.950 . S
C1420 C1419 1.387 . S
C1420 C1423 1.387 . S
H1421 C1417 0.950 . S
H1422 C1419 0.950 . S
C1423 C1414 1.390 . S
C1423 H1416 0.950 . S
C1423 C1420 1.387 . S
C1424 C1425 1.387 . S
C1424 H1428 0.950 . S
C1424 C1433 1.390 . S
C1425 C1424 1.387 . S
C1425 C1427 1.387 . S
H1426 C1433 0.950 . S
C1427 C1425 1.387 . S
C1427 C1429 1.390 . S
C1427 H1431 0.950 . S
H1428 C1424 0.950 . S
C1429 C1427 1.390 . S
C1429 C1430 1.387 . S
C1429 H1432 0.950 . S
C1430 C1429 1.387 . S
C1430 C1433 1.387 . S
H1431 C1427 0.950 . S
H1432 C1429 0.950 . S
C1433 C1424 1.390 . S
C1433 H1426 0.950 . S
C1433 C1430 1.387 . S
C1434 C1435 1.387 . S
C1434 H1438 0.950 . S
C1434 C1443 1.390 . S
C1435 C1434 1.387 . S
C1435 C1437 1.387 . S
H1436 C1443 0.950 . S
C1437 C1435 1.387 . S
C1437 C1439 1.390 . S
C1437 H1441 0.950 . S
H1438 C1434 0.950 . S
C1439 C1437 1.390 . S
C1439 C1440 1.387 . S
C1439 H1442 0.950 . S
C1440 C1439 1.387 . S
C1440 C1443 1.387 . S
H1441 C1437 0.950 . S
H1442 C1439 0.950 . S
C1443 C1434 1.390 . S
C1443 H1436 0.950 . S
C1443 C1440 1.387 . S
C1444 C1445 1.387 . S
C1444 H1448 0.950 . S
C1444 C1453 1.390 . S
C1445 C1444 1.387 . S
C1445 C1447 1.387 . S
H1446 C1453 0.950 . S
C1447 C1445 1.387 . S
C1447 C1449 1.390 . S
C1447 H1451 0.950 . S
H1448 C1444 0.950 . S
C1449 C1447 1.390 . S
C1449 C1450 1.387 . S
C1449 H1452 0.950 . S
C1450 C1449 1.387 . S
C1450 C1453 1.387 . S
H1451 C1447 0.950 . S
H1452 C1449 0.950 . S
C1453 C1444 1.390 . S
C1453 H1446 0.950 . S
C1453 C1450 1.387 . S
C1454 C1455 1.387 . S
C1454 H1458 0.950 . S
C1454 C1463 1.390 . S
C1455 C1454 1.387 . S
C1455 C1457 1.387 . S
H1456 C1463 0.950 . S
C1457 C1455 1.387 . S
C1457 C1459 1.390 . S
C1457 H1461 0.950 . S
H1458 C1454 0.950 . S
C1459 C1457 1.390 . S
C1459 C1460 1.387 . S
C1459 H1462 0.950 . S
C1460 C1459 1.387 . S
C1460 C1463 1.387 . S
H1461 C1457 0.950 . S
H1462 C1459 0.950 . S
C1463 C1454 1.390 . S
C1463 H1456 0.950 . S
C1463 C1460 1.387 . S
C1464 C1465 1.387 . S
C1464 H1468 0.950 . S
C1464 C1473 1.390 . S
C1465 C1464 1.387 . S
C1465 C1467 1.387 . S
H1466 C1473 0.950 . S
C1467 C1465 1.387 . S
C1467 C1469 1.390 . S
C1467 H1471 0.950 . S
H1468 C1464 0.950 . S
C1469 C1467 1.390 . S
C1469 C1470 1.387 . S
C1469 H1472 0.950 . S
C1470 C1469 1.387 . S
C1470 C1473 1.387 . S
H1471 C1467 0.950 . S
H1472 C1469 0.950 . S
C1473 C1464 1.390 . S
C1473 H1466 0.950 . S
C1473 C1470 1.387 . S
C1474 C1475 1.387 . S
C1474 H1478 0.950 . S
C1474 C1483 1.390 . S
C1475 C1474 1.387 . S
C1475 C1477 1.387 . S
H1476 C1483 0.950 . S
C1477 C1475 1.387 . S
C1477 C1479 1.390 . S
C1477 H1481 0.950 . S
H1478 C1474 0.950 . S
C1479 C1477 1.390 . S
C1479 C1480 1.387 . S
C1479 H1482 0.950 . S
C1480 C1479 1.387 . S
C1480 C1483 1.387 . S
H1481 C1477 0.950 . S
H1482 C1479 0.950 . S
C1483 C1474 1.390 . S
C1483 H1476 0.950 . S
C1483 C1480 1.387 . S
C1484 C1485 1.387 . S
C1484 H1488 0.950 . S
C1484 C1493 1.390 . S
C1485 C1484 1.387 . S
C1485 C1487 1.387 . S
H1486 C1493 0.950 . S
C1487 C1485 1.387 . S
C1487 C1489 1.390 . S
C1487 H1491 0.950 . S
H1488 C1484 0.950 . S
C1489 C1487 1.390 . S
C1489 C1490 1.387 . S
C1489 H1492 0.950 . S
C1490 C1489 1.387 . S
C1490 C1493 1.387 . S
H1491 C1487 0.950 . S
H1492 C1489 0.950 . S
C1493 C1484 1.390 . S
C1493 H1486 0.950 . S
C1493 C1490 1.387 . S
C1494 C1495 1.387 . S
C1494 H1498 0.950 . S
C1494 C1503 1.390 . S
C1495 C1494 1.387 . S
C1495 C1497 1.387 . S
H1496 C1503 0.950 . S
C1497 C1495 1.387 . S
C1497 C1499 1.390 . S
C1497 H1501 0.950 . S
H1498 C1494 0.950 . S
C1499 C1497 1.390 . S
C1499 C1500 1.387 . S
C1499 H1502 0.950 . S
C1500 C1499 1.387 . S
C1500 C1503 1.387 . S
H1501 C1497 0.950 . S
H1502 C1499 0.950 . S
C1503 C1494 1.390 . S
C1503 H1496 0.950 . S
C1503 C1500 1.387 . S
C1504 C1505 1.387 . S
C1504 H1508 0.950 . S
C1504 C1513 1.390 . S
C1505 C1504 1.387 . S
C1505 C1507 1.387 . S
H1506 C1513 0.950 . S
C1507 C1505 1.387 . S
C1507 C1509 1.390 . S
C1507 H1511 0.950 . S
H1508 C1504 0.950 . S
C1509 C1507 1.390 . S
C1509 C1510 1.387 . S
C1509 H1512 0.950 . S
C1510 C1509 1.387 . S
C1510 C1513 1.387 . S
H1511 C1507 0.950 . S
H1512 C1509 0.950 . S
C1513 C1504 1.390 . S
C1513 H1506 0.950 . S
C1513 C1510 1.387 . S
C1514 C1515 1.387 . S
C1514 H1518 0.950 . S
C1514 C1523 1.390 . S
C1515 C1514 1.387 . S
C1515 C1517 1.387 . S
H1516 C1523 0.950 . S
C1517 C1515 1.387 . S
C1517 C1519 1.390 . S
C1517 H1521 0.950 . S
H1518 C1514 0.950 . S
C1519 C1517 1.390 . S
C1519 C1520 1.387 . S
C1519 H1522 0.950 . S
C1520 C1519 1.387 . S
C1520 C1523 1.387 . S
H1521 C1517 0.950 . S
H1522 C1519 0.950 . S
C1523 C1514 1.390 . S
C1523 H1516 0.950 . S
C1523 C1520 1.387 . S
C1524 C1525 1.387 . S
C1524 H1528 0.950 . S
C1524 C1533 1.390 . S
C1525 C1524 1.387 . S
C1525 C1527 1.387 . S
H1526 C1533 0.950 . S
C1527 C1525 1.387 . S
C1527 C1529 1.390 . S
C1527 H1531 0.950 . S
H1528 C1524 0.950 . S
C1529 C1527 1.390 . S
C1529 C1530 1.387 . S
C1529 H1532 0.950 . S
C1530 C1529 1.387 . S
C1530 C1533 1.387 . S
H1531 C1527 0.950 . S
H1532 C1529 0.950 . S
C1533 C1524 1.390 . S
C1533 H1526 0.950 . S
C1533 C1530 1.387 . S
C1534 C1535 1.387 . S
C1534 H1538 0.950 . S
C1534 C1543 1.390 . S
C1535 C1534 1.387 . S
C1535 C1537 1.387 . S
H1536 C1543 0.950 . S
C1537 C1535 1.387 . S
C1537 C1539 1.390 . S
C1537 H1541 0.950 . S
H1538 C1534 0.950 . S
C1539 C1537 1.390 . S
C1539 C1540 1.387 . S
C1539 H1542 0.950 . S
C1540 C1539 1.387 . S
C1540 C1543 1.387 . S
H1541 C1537 0.950 . S
H1542 C1539 0.950 . S
C1543 C1534 1.390 . S
C1543 H1536 0.950 . S
C1543 C1540 1.387 . S
C1544 C1545 1.387 . S
C1544 H1548 0.950 . S
C1544 C1553 1.390 . S
C1545 C1544 1.387 . S
C1545 C1547 1.387 . S
H1546 C1553 0.950 . S
C1547 C1545 1.387 . S
C1547 C1549 1.390 . S
C1547 H1551 0.950 . S
H1548 C1544 0.950 . S
C1549 C1547 1.390 . S
C1549 C1550 1.387 . S
C1549 H1552 0.950 . S
C1550 C1549 1.387 . S
C1550 C1553 1.387 . S
H1551 C1547 0.950 . S
H1552 C1549 0.950 . S
C1553 C1544 1.390 . S
C1553 H1546 0.950 . S
C1553 C1550 1.387 . S
C1554 C1555 1.387 . S
C1554 H1558 0.950 . S
C1554 C1563 1.390 . S
C1555 C1554 1.387 . S
C1555 C1557 1.387 . S
H1556 C1563 0.950 . S
C1557 C1555 1.387 . S
C1557 C1559 1.390 . S
C1557 H1561 0.950 . S
H1558 C1554 0.950 . S
C1559 C1557 1.390 . S
C1559 C1560 1.387 . S
C1559 H1562 0.950 . S
C1560 C1559 1.387 . S
C1560 C1563 1.387 . S
H1561 C1557 0.950 . S
H1562 C1559 0.950 . S
C1563 C1554 1.390 . S
C1563 H1556 0.950 . S
C1563 C1560 1.387 . S
C1564 C1565 1.387 . S
C1564 H1568 0.950 . S
C1564 C1573 1.390 . S
C1565 C1564 1.387 . S
C1565 C1567 1.387 . S
H1566 C1573 0.950 . S
C1567 C1565 1.387 . S
C1567 C1569 1.390 . S
C1567 H1571 0.950 . S
H1568 C1564 0.950 . S
C1569 C1567 1.390 . S
C1569 C1570 1.387 . S
C1569 H1572 0.950 . S
C1570 C1569 1.387 . S
C1570 C1573 1.387 . S
H1571 C1567 0.950 . S
H1572 C1569 0.950 . S
C1573 C1564 1.390 . S
C1573 H1566 0.950 . S
C1573 C1570 1.387 . S
C1574 C1575 1.387 . S
C1574 H1578 0.950 . S
C1574 C1583 1.390 . S
C1575 C1574 1.387 . S
C1575 C1577 1.387 . S
H1576 C1583 0.950 . S
C1577 C1575 1.387 . S
C1577 C1579 1.390 . S
C1577 H1581 0.950 . S
H1578 C1574 0.950 . S
C1579 C1577 1.390 . S
C1579 C1580 1.387 . S
C1579 H1582 0.950 . S
C1580 C1579 1.387 . S
C1580 C1583 1.387 . S
H1581 C1577 0.950 . S
H1582 C1579 0.950 . S
C1583 C1574 1.390 . S
C1583 H1576 0.950 . S
C1583 C1580 1.387 . S
C1584 C1585 1.387 . S
C1584 H1588 0.950 . S
C1584 C1593 1.390 . S
C1585 C1584 1.387 . S
C1585 C1587 1.387 . S
H1586 C1593 0.950 . S
C1587 C1585 1.387 . S
C1587 C1589 1.390 . S
C1587 H1591 0.950 . S
H1588 C1584 0.950 . S
C1589 C1587 1.390 . S
C1589 C1590 1.387 . S
C1589 H1592 0.950 . S
C1590 C1589 1.387 . S
C1590 C1593 1.387 . S
H1591 C1587 0.950 . S
H1592 C1589 0.950 . S
C1593 C1584 1.390 . S
C1593 H1586 0.950 . S
C1593 C1590 1.387 . S
C1594 C1595 1.387 . S
C1594 H1598 0.950 . S
C1594 C1603 1.390 . S
C1595 C1594 1.387 . S
C1595 C1597 1.387 . S
H1596 C1603 0.950 . S
C1597 C1595 1.387 . S
C1597 C1599 1.390 . S
C1597 H1601 0.950 . S
H1598 C1594 0.950 . S
C1599 C1597 1.390 . S
C1599 C1600 1.387 . S
C1599 H1602 0.950 . S
C1600 C1599 1.387 . S
C1600 C1603 1.387 . S
H1601 C1597 0.950 . S
H1602 C1599 0.950 . S
C1603 C1594 1.390 . S
C1603 H1596 0.950 . S
C1603 C1600 1.387 . S
C1604 C1605 1.387 . S
C1604 H1608 0.950 . S
C1604 C1613 1.390 . S
C1605 C1604 1.387 . S
C1605 C1607 1.387 . S
H1606 C1613 0.950 . S
C1607 C1605 1.387 . S
C1607 C1609 1.390 . S
C1607 H1611 0.950 . S
H1608 C1604 0.950 . S
C1609 C1607 1.390 . S
C1609 C1610 1.387 . S
C1609 H1612 0.950 . S
C1610 C1609 1.387 . S
C1610 C1613 1.387 . S
H1611 C1607 0.950 . S
H1612 C1609 0.950 . S
C1613 C1604 1.390 . S
C1613 H1606 0.950 . S
C1613 C1610 1.387 . S
C1614 C1615 1.387 . S
C1614 H1618 0.950 . S
C1614 C1623 1.390 . S
C1615 C1614 1.387 . S
C1615 C1617 1.387 . S
H1616 C1623 0.950 . S
C1617 C1615 1.387 . S
C1617 C1619 1.390 . S
C1617 H1621 0.950 . S
H1618 C1614 0.950 . S
C1619 C1617 1.390 . S
C1619 C1620 1.387 . S
C1619 H1622 0.950 . S
C1620 C1619 1.387 . S
C1620 C1623 1.387 . S
H1621 C1617 0.950 . S
H1622 C1619 0.950 . S
C1623 C1614 1.390 . S
C1623 H1616 0.950 . S
C1623 C1620 1.387 . S
C1624 C1625 1.387 . S
C1624 H1628 0.950 . S
C1624 C1633 1.390 . S
C1625 C1624 1.387 . S
C1625 C1627 1.387 . S
H1626 C1633 0.950 . S
C1627 C1625 1.387 . S
C1627 C1629 1.390 . S
C1627 H1631 0.950 . S
H1628 C1624 0.950 . S
C1629 C1627 1.390 . S
C1629 C1630 1.387 . S
C1629 H1632 0.950 . S
C1630 C1629 1.387 . S
C1630 C1633 1.387 . S
H1631 C1627 0.950 . S
H1632 C1629 0.950 . S
C1633 C1624 1.390 . S
C1633 H1626 0.950 . S
C1633 C1630 1.387 . S
C1634 C1635 1.387 . S
C1634 H1638 0.950 . S
C1634 C1643 1.390 . S
C1635 C1634 1.387 . S
C1635 C1637 1.387 . S
H1636 C1643 0.950 . S
C1637 C1635 1.387 . S
C1637 C1639 1.390 . S
C1637 H1641 0.950 . S
H1638 C1634 0.950 . S
C1639 C1637 1.390 . S
C1639 C1640 1.387 . S
C1639 H1642 0.950 . S
C1640 C1639 1.387 . S
C1640 C1643 1.387 . S
H1641 C1637 0.950 . S
H1642 C1639 0.950 . S
C1643 C1634 1.390 . S
C1643 H1636 0.950 . S
C1643 C1640 1.387 . S
C1644 C1645 1.387 . S
C1644 H1648 0.950 . S
C1644 C1653 1.390 . S
C1645 C1644 1.387 . S
C1645 C1647 1.387 . S
H1646 C1653 0.950 . S
C1647 C1645 1.387 . S
C1647 C1649 1.390 . S
C1647 H1651 0.950 . S
H1648 C1644 0.950 . S
C1649 C1647 1.390 . S
C1649 C1650 1.387 . S
C1649 H1652 0.950 . S
C1650 C1649 1.387 . S
C1650 C1653 1.387 . S
H1651 C1647 0.950 . S
H1652 C1649 0.950 . S
C1653 C1644 1.390 . S
C1653 H1646 0.950 . S
C1653 C1650 1.387 . S
C1654 C1655 1.387 . S
C1654 H1658 0.950 . S
C1654 C1663 1.390 . S
C1655 C1654 1.387 . S
C1655 C1657 1.387 . S
H1656 C1663 0.950 . S
C1657 C1655 1.387 . S
C1657 C1659 1.390 . S
C1657 H1661 0.950 . S
H1658 C1654 0.950 . S
C1659 C1657 1.390 . S
C1659 C1660 1.387 . S
C1659 H1662 0.950 . S
C1660 C1659 1.387 . S
C1660 C1663 1.387 . S
H1661 C1657 0.950 . S
H1662 C1659 0.950 . S
C1663 C1654 1.390 . S
C1663 H1656 0.950 . S
C1663 C1660 1.387 . S
C1664 C1665 1.387 . S
C1664 H1668 0.950 . S
C1664 C1673 1.390 . S
C1665 C1664 1.387 . S
C1665 C1667 1.387 . S
H1666 C1673 0.950 . S
C1667 C1665 1.387 . S
C1667 C1669 1.390 . S
C1667 H1671 0.950 . S
H1668 C1664 0.950 . S
C1669 C1667 1.390 . S
C1669 C1670 1.387 . S
C1669 H1672 0.950 . S
C1670 C1669 1.387 . S
C1670 C1673 1.387 . S
H1671 C1667 0.950 . S
H1672 C1669 0.950 . S
C1673 C1664 1.390 . S
C1673 H1666 0.950 . S
C1673 C1670 1.387 . S
C1674 C1675 1.387 . S
C1674 H1678 0.950 . S
C1674 C1683 1.390 . S
C1675 C1674 1.387 . S
C1675 C1677 1.387 . S
H1676 C1683 0.950 . S
C1677 C1675 1.387 . S
C1677 C1679 1.390 . S
C1677 H1681 0.950 . S
H1678 C1674 0.950 . S
C1679 C1677 1.390 . S
C1679 C1680 1.387 . S
C1679 H1682 0.950 . S
C1680 C1679 1.387 . S
C1680 C1683 1.387 . S
H1681 C1677 0.950 . S
H1682 C1679 0.950 . S
C1683 C1674 1.390 . S
C1683 H1676 0.950 . S
C1683 C1680 1.387 . S
C1684 C1685 1.387 . S
C1684 H1688 0.950 . S
C1684 C1693 1.390 . S
C1685 C1684 1.387 . S
C1685 C1687 1.387 . S
H1686 C1693 0.950 . S
C1687 C1685 1.387 . S
C1687 C1689 1.390 . S
C1687 H1691 0.950 . S
H1688 C1684 0.950 . S
C1689 C1687 1.390 . S
C1689 C1690 1.387 . S
C1689 H1692 0.950 . S
C1690 C1689 1.387 . S
C1690 C1693 1.387 . S
H1691 C1687 0.950 . S
H1692 C1689 0.950 . S
C1693 C1684 1.390 . S
C1693 H1686 0.950 . S
C1693 C1690 1.387 . S
C1694 C1695 1.387 . S
C1694 H1698 0.950 . S
C1694 C1703 1.390 . S
C1695 C1694 1.387 . S
C1695 C1697 1.387 . S
H1696 C1703 0.950 . S
C1697 C1695 1.387 . S
C1697 C1699 1.390 . S
C1697 H1701 0.950 . S
H1698 C1694 0.950 . S
C1699 C1697 1.390 . S
C1699 C1700 1.387 . S
C1699 H1702 0.950 . S
C1700 C1699 1.387 . S
C1700 C1703 1.387 . S
H1701 C1697 0.950 . S
H1702 C1699 0.950 . S
C1703 C1694 1.390 . S
C1703 H1696 0.950 . S
C1703 C1700 1.387 . S
C1704 C1705 1.387 . S
C1704 H1708 0.950 . S
C1704 C1713 1.390 . S
C1705 C1704 1.387 . S
C1705 C1707 1.387 . S
H1706 C1713 0.950 . S
C1707 C1705 1.387 . S
C1707 C1709 1.390 . S
C1707 H1711 0.950 . S
H1708 C1704 0.950 . S
C1709 C1707 1.390 . S
C1709 C1710 1.387 . S
C1709 H1712 0.950 . S
C1710 C1709 1.387 . S
C1710 C1713 1.387 . S
H1711 C1707 0.950 . S
H1712 C1709 0.950 . S
C1713 C1704 1.390 . S
C1713 H1706 0.950 . S
C1713 C1710 1.387 . S
C1714 C1715 1.387 . S
C1714 H1718 0.950 . S
C1714 C1723 1.390 . S
C1715 C1714 1.387 . S
C1715 C1717 1.387 . S
H1716 C1723 0.950 . S
C1717 C1715 1.387 . S
C1717 C1719 1.390 . S
C1717 H1721 0.950 . S
H1718 C1714 0.950 . S
C1719 C1717 1.390 . S
C1719 C1720 1.387 . S
C1719 H1722 0.950 . S
C1720 C1719 1.387 . S
C1720 C1723 1.387 . S
H1721 C1717 0.950 . S
H1722 C1719 0.950 . S
C1723 C1714 1.390 . S
C1723 H1716 0.950 . S
C1723 C1720 1.387 . S
C1724 C1725 1.387 . S
C1724 H1728 0.950 . S
C1724 C1733 1.390 . S
C1725 C1724 1.387 . S
C1725 C1727 1.387 . S
H1726 C1733 0.950 . S
C1727 C1725 1.387 . S
C1727 C1729 1.390 . S
C1727 H1731 0.950 . S
H1728 C1724 0.950 . S
C1729 C1727 1.390 . S
C1729 C1730 1.387 . S
C1729 H1732 0.950 . S
C1730 C1729 1.387 . S
C1730 C1733 1.387 . S
H1731 C1727 0.950 . S
H1732 C1729 0.950 . S
C1733 C1724 1.390 . S
C1733 H1726 0.950 . S
C1733 C1730 1.387 . S
C1734 C1735 1.387 . S
C1734 H1738 0.950 . S
C1734 C1743 1.390 . S
C1735 C1734 1.387 . S
C1735 C1737 1.387 . S
H1736 C1743 0.950 . S
C1737 C1735 1.387 . S
C1737 C1739 1.390 . S
C1737 H1741 0.950 . S
H1738 C1734 0.950 . S
C1739 C1737 1.390 . S
C1739 C1740 1.387 . S
C1739 H1742 0.950 . S
C1740 C1739 1.387 . S
C1740 C1743 1.387 . S
H1741 C1737 0.950 . S
H1742 C1739 0.950 . S
C1743 C1734 1.390 . S
C1743 H1736 0.950 . S
C1743 C1740 1.387 . S
C1744 C1745 1.387 . S
C1744 H1748 0.950 . S
C1744 C1753 1.390 . S
C1745 C1744 1.387 . S
C1745 C1747 1.387 . S
H1746 C1753 0.950 . S
C1747 C1745 1.387 . S
C1747 C1749 1.390 . S
C1747 H1751 0.950 . S
H1748 C1744 0.950 . S
C1749 C1747 1.390 . S
C1749 C1750 1.387 . S
C1749 H1752 0.950 . S
C1750 C1749 1.387 . S
C1750 C1753 1.387 . S
H1751 C1747 0.950 . S
H1752 C1749 0.950 . S
C1753 C1744 1.390 . S
C1753 H1746 0.950 . S
C1753 C1750 1.387 . S
C1754 C1755 1.387 . S
C1754 H1758 0.950 . S
C1754 C1763 1.390 . S
C1755 C1754 1.387 . S
C1755 C1757 1.387 . S
H1756 C1763 0.950 . S
C1757 C1755 1.387 . S
C1757 C1759 1.390 . S
C1757 H1761 0.950 . S
H1758 C1754 0.950 . S
C1759 C1757 1.390 . S
C1759 C1760 1.387 . S
C1759 H1762 0.950 . S
C1760 C1759 1.387 . S
C1760 C1763 1.387 . S
H1761 C1757 0.950 . S
H1762 C1759 0.950 . S
C1763 C1754 1.390 . S
C1763 H1756 0.950 . S
C1763 C1760 1.387 . S
C1764 C1765 1.387 . S
C1764 H1768 0.950 . S
C1764 C1773 1.390 . S
C1765 C1764 1.387 . S
C1765 C1767 1.387 . S
H1766 C1773 0.950 . S
C1767 C1765 1.387 . S
C1767 C1769 1.390 . S
C1767 H1771 0.950 . S
H1768 C1764 0.950 . S
C1769 C1767 1.390 . S
C1769 C1770 1.387 . S
C1769 H1772 0.950 . S
C1770 C1769 1.387 . S
C1770 C1773 1.387 . S
H1771 C1767 0.950 . S
H1772 C1769 0.950 . S
C1773 C1764 1.390 . S
C1773 H1766 0.950 . S
C1773 C1770 1.387 . S
C1774 C1775 1.387 . S
C1774 H1778 0.950 . S
C1774 C1783 1.390 . S
C1775 C1774 1.387 . S
C1775 C1777 1.387 . S
H1776 C1783 0.950 . S
C1777 C1775 1.387 . S
C1777 C1779 1.390 . S
C1777 H1781 0.950 . S
H1778 C1774 0.950 . S
C1779 C1777 1.390 . S
C1779 C1780 1.387 . S
C1779 H1782 0.950 . S
C1780 C1779 1.387 . S
C1780 C1783 1.387 . S
H1781 C1777 0.950 . S
H1782 C1779 0.950 . S
C1783 C1774 1.390 . S
C1783 H1776 0.950 . S
C1783 C1780 1.387 . S
C1784 C1785 1.387 . S
C1784 H1788 0.950 . S
C1784 C1793 1.390 . S
C1785 C1784 1.387 . S
C1785 C1787 1.387 . S
H1786 C1793 0.950 . S
C1787 C1785 1.387 . S
C1787 C1789 1.390 . S
C1787 H1791 0.950 . S
H1788 C1784 0.950 . S
C1789 C1787 1.390 . S
C1789 C1790 1.387 . S
C1789 H1792 0.950 . S
C1790 C1789 1.387 . S
C1790 C1793 1.387 . S
H1791 C1787 0.950 . S
H1792 C1789 0.950 . S
C1793 C1784 1.390 . S
C1793 H1786 0.950 . S
C1793 C1790 1.387 . S
C1794 C1795 1.387 . S
C1794 H1798 0.950 . S
C1794 C1803 1.390 . S
C1795 C1794 1.387 . S
C1795 C1797 1.387 . S
H1796 C1803 0.950 . S
C1797 C1795 1.387 . S
C1797 C1799 1.390 . S
C1797 H1801 0.950 . S
H1798 C1794 0.950 . S
C1799 C1797 1.390 . S
C1799 C1800 1.387 . S
C1799 H1802 0.950 . S
C1800 C1799 1.387 . S
C1800 C1803 1.387 . S
H1801 C1797 0.950 . S
H1802 C1799 0.950 . S
C1803 C1794 1.390 . S
C1803 H1796 0.950 . S
C1803 C1800 1.387 . S
C1804 C1805 1.387 . S
C1804 H1808 0.950 . S
C1804 C1813 1.390 . S
C1805 C1804 1.387 . S
C1805 C1807 1.387 . S
H1806 C1813 0.950 . S
C1807 C1805 1.387 . S
C1807 C1809 1.390 . S
C1807 H1811 0.950 . S
H1808 C1804 0.950 . S
C1809 C1807 1.390 . S
C1809 C1810 1.387 . S
C1809 H1812 0.950 . S
C1810 C1809 1.387 . S
C1810 C1813 1.387 . S
H1811 C1807 0.950 . S
H1812 C1809 0.950 . S
C1813 C1804 1.390 . S
C1813 H1806 0.950 . S
C1813 C1810 1.387 . S
C1814 C1815 1.387 . S
C1814 H1818 0.950 . S
C1814 C1823 1.390 . S
C1815 C1814 1.387 . S
C1815 C1817 1.387 . S
H1816 C1823 0.950 . S
C1817 C1815 1.387 . S
C1817 C1819 1.390 . S
C1817 H1821 0.950 . S
H1818 C1814 0.950 . S
C1819 C1817 1.390 . S
C1819 C1820 1.387 . S
C1819 H1822 0.950 . S
C1820 C1819 1.387 . S
C1820 C1823 1.387 . S
H1821 C1817 0.950 . S
H1822 C1819 0.950 . S
C1823 C1814 1.390 . S
C1823 H1816 0.950 . S
C1823 C1820 1.387 . S
C1824 C1825 1.387 . S
C1824 H1828 0.950 . S
C1824 C1833 1.390 . S
C1825 C1824 1.387 . S
C1825 C1827 1.387 . S
H1826 C1833 0.950 . S
C1827 C1825 1.387 . S
C1827 C1829 1.390 . S
C1827 H1831 0.950 . S
H1828 C1824 0.950 . S
C1829 C1827 1.390 . S
C1829 C1830 1.387 . S
C1829 H1832 0.950 . S
C1830 C1829 1.387 . S
C1830 C1833 1.387 . S
H1831 C1827 0.950 . S
H1832 C1829 0.950 . S
C1833 C1824 1.390 . S
C1833 H1826 0.950 . S
C1833 C1830 1.387 . S
C1834 C1835 1.387 . S
C1834 H1838 0.950 . S
C1834 C1843 1.390 . S
C1835 C1834 1.387 . S
C1835 C1837 1.387 . S
H1836 C1843 0.950 . S
C1837 C1835 1.387 . S
C1837 C1839 1.390 . S
C1837 H1841 0.950 . S
H1838 C1834 0.950 . S
C1839 C1837 1.390 . S
C1839 C1840 1.387 . S
C1839 H1842 0.950 . S
C1840 C1839 1.387 . S
C1840 C1843 1.387 . S
H1841 C1837 0.950 . S
H1842 C1839 0.950 . S
C1843 C1834 1.390 . S
C1843 H1836 0.950 . S
C1843 C1840 1.387 . S
C1844 C1845 1.387 . S
C1844 H1848 0.950 . S
C1844 C1853 1.390 . S
C1845 C1844 1.387 . S
C1845 C1847 1.387 . S
H1846 C1853 0.950 . S
C1847 C1845 1.387 . S
C1847 C1849 1.390 . S
C1847 H1851 0.950 . S
H1848 C1844 0.950 . S
C1849 C1847 1.390 . S
C1849 C1850 1.387 . S
C1849 H1852 0.950 . S
C1850 C1849 1.387 . S
C1850 C1853 1.387 . S
H1851 C1847 0.950 . S
H1852 C1849 0.950 . S
C1853 C1844 1.390 . S
C1853 H1846 0.950 . S
C1853 C1850 1.387 . S
C1854 C1855 1.387 . S
C1854 H1858 0.950 . S
C1854 C1863 1.390 . S
C1855 C1854 1.387 . S
C1855 C1857 1.387 . S
H1856 C1863 0.950 . S
C1857 C1855 1.387 . S
C1857 C1859 1.390 . S
C1857 H1861 0.950 . S
H1858 C1854 0.950 . S
C1859 C1857 1.390 . S
C1859 C1860 1.387 . S
C1859 H1862 0.950 . S
C1860 C1859 1.387 . S
C1860 C1863 1.387 . S
H1861 C1857 0.950 . S
H1862 C1859 0.950 . S
C1863 C1854 1.390 . S
C1863 H1856 0.950 . S
C1863 C1860 1.387 . S
C1864 C1865 1.387 . S
C1864 H1868 0.950 . S
C1864 C1873 1.390 . S
C1865 C1864 1.387 . S
C1865 C1867 1.387 . S
H1866 C1873 0.950 . S
C1867 C1865 1.387 . S
C1867 C1869 1.390 . S
C1867 H1871 0.950 . S
H1868 C1864 0.950 . S
C1869 C1867 1.390 . S
C1869 C1870 1.387 . S
C1869 H1872 0.950 . S
C1870 C1869 1.387 . S
C1870 C1873 1.387 . S
H1871 C1867 0.950 . S
H1872 C1869 0.950 . S
C1873 C1864 1.390 . S
C1873 H1866 0.950 . S
C1873 C1870 1.387 . S
C1874 C1875 1.387 . S
C1874 H1878 0.950 . S
C1874 C1883 1.390 . S
C1875 C1874 1.387 . S
C1875 C1877 1.387 . S
H1876 C1883 0.950 . S
C1877 C1875 1.387 . S
C1877 C1879 1.390 . S
C1877 H1881 0.950 . S
H1878 C1874 0.950 . S
C1879 C1877 1.390 . S
C1879 C1880 1.387 . S
C1879 H1882 0.950 . S
C1880 C1879 1.387 . S
C1880 C1883 1.387 . S
H1881 C1877 0.950 . S
H1882 C1879 0.950 . S
C1883 C1874 1.390 . S
C1883 H1876 0.950 . S
C1883 C1880 1.387 . S
C1884 C1885 1.387 . S
C1884 H1888 0.950 . S
C1884 C1893 1.390 . S
C1885 C1884 1.387 . S
C1885 C1887 1.387 . S
H1886 C1893 0.950 . S
C1887 C1885 1.387 . S
C1887 C1889 1.390 . S
C1887 H1891 0.950 . S
H1888 C1884 0.950 . S
C1889 C1887 1.390 . S
C1889 C1890 1.387 . S
C1889 H1892 0.950 . S
C1890 C1889 1.387 . S
C1890 C1893 1.387 . S
H1891 C1887 0.950 . S
H1892 C1889 0.950 . S
C1893 C1884 1.390 . S
C1893 H1886 0.950 . S
C1893 C1890 1.387 . S
C1894 C1895 1.387 . S
C1894 H1898 0.950 . S
C1894 C1903 1.390 . S
C1895 C1894 1.387 . S
C1895 C1897 1.387 . S
H1896 C1903 0.950 . S
C1897 C1895 1.387 . S
C1897 C1899 1.390 . S
C1897 H1901 0.950 . S
H1898 C1894 0.950 . S
C1899 C1897 1.390 . S
C1899 C1900 1.387 . S
C1899 H1902 0.950 . S
C1900 C1899 1.387 . S
C1900 C1903 1.387 . S
H1901 C1897 0.950 . S
H1902 C1899 0.950 . S
C1903 C1894 1.390 . S
C1903 H1896 0.950 . S
C1903 C1900 1.387 . S
C1904 C1905 1.387 . S
C1904 H1908 0.950 . S
C1904 C1913 1.390 . S
C1905 C1904 1.387 . S
C1905 C1907 1.387 . S
H1906 C1913 0.950 . S
C1907 C1905 1.387 . S
C1907 C1909 1.390 . S
C1907 H1911 0.950 . S
H1908 C1904 0.950 . S
C1909 C1907 1.390 . S
C1909 C1910 1.387 . S
C1909 H1912 0.950 . S
C1910 C1909 1.387 . S
C1910 C1913 1.387 . S
H1911 C1907 0.950 . S
H1912 C1909 0.950 . S
C1913 C1904 1.390 . S
C1913 H1906 0.950 . S
C1913 C1910 1.387 . S
C1914 C1915 1.387 . S
C1914 H1918 0.950 . S
C1914 C1923 1.390 . S
C1915 C1914 1.387 . S
C1915 C1917 1.387 . S
H1916 C1923 0.950 . S
C1917 C1915 1.387 . S
C1917 C1919 1.390 . S
C1917 H1921 0.950 . S
H1918 C1914 0.950 . S
C1919 C1917 1.390 . S
C1919 C1920 1.387 . S
C1919 H1922 0.950 . S
C1920 C1919 1.387 . S
C1920 C1923 1.387 . S
H1921 C1917 0.950 . S
H1922 C1919 0.950 . S
C1923 C1914 1.390 . S
C1923 H1916 0.950 . S
C1923 C1920 1.387 . S
C1924 C1925 1.387 . S
C1924 H1928 0.950 . S
C1924 C1933 1.390 . S
C1925 C1924 1.387 . S
C1925 C1927 1.387 . S
H1926 C1933 0.950 . S
C1927 C1925 1.387 . S
C1927 C1929 1.390 . S
C1927 H1931 0.950 . S
H1928 C1924 0.950 . S
C1929 C1927 1.390 . S
C1929 C1930 1.387 . S
C1929 H1932 0.950 . S
C1930 C1929 1.387 . S
C1930 C1933 1.387 . S
H1931 C1927 0.950 . S
H1932 C1929 0.950 . S
C1933 C1924 1.390 . S
C1933 H1926 0.950 . S
C1933 C1930 1.387 . S
C1934 C1935 1.387 . S
C1934 H1938 0.950 . S
C1934 C1943 1.390 . S
C1935 C1934 1.387 . S
C1935 C1937 1.387 . S
H1936 C1943 0.950 . S
C1937 C1935 1.387 . S
C1937 C1939 1.390 . S
C1937 H1941 0.950 . S
H1938 C1934 0.950 . S
C1939 C1937 1.390 . S
C1939 C1940 1.387 . S
C1939 H1942 0.950 . S
C1940 C1939 1.387 . S
C1940 C1943 1.387 . S
H1941 C1937 0.950 . S
H1942 C1939 0.950 . S
C1943 C1934 1.390 . S
C1943 H1936 0.950 . S
C1943 C1940 1.387 . S
C1944 C1945 1.387 . S
C1944 H1948 0.950 . S
C1944 C1953 1.390 . S
C1945 C1944 1.387 . S
C1945 C1947 1.387 . S
H1946 C1953 0.950 . S
C1947 C1945 1.387 . S
C1947 C1949 1.390 . S
C1947 H1951 0.950 . S
H1948 C1944 0.950 . S
C1949 C1947 1.390 . S
C1949 C1950 1.387 . S
C1949 H1952 0.950 . S
C1950 C1949 1.387 . S
C1950 C1953 1.387 . S
H1951 C1947 0.950 . S
H1952 C1949 0.950 . S
C1953 C1944 1.390 . S
C1953 H1946 0.950 . S
C1953 C1950 1.387 . S
C1954 C1955 1.387 . S
C1954 H1958 0.950 . S
C1954 C1963 1.390 . S
C1955 C1954 1.387 . S
C1955 C1957 1.387 . S
H1956 C1963 0.950 . S
C1957 C1955 1.387 . S
C1957 C1959 1.390 . S
C1957 H1961 0.950 . S
H1958 C1954 0.950 . S
C1959 C1957 1.390 . S
C1959 C1960 1.387 . S
C1959 H1962 0.950 . S
C1960 C1959 1.387 . S
C1960 C1963 1.387 . S
H1961 C1957 0.950 . S
H1962 C1959 0.950 . S
C1963 C1954 1.390 . S
C1963 H1956 0.950 . S
C1963 C1960 1.387 . S
C1964 C1965 1.387 . S
C1964 H1968 0.950 . S
C1964 C1973 1.390 . S
C1965 C1964 1.387 . S
C1965 C1967 1.387 . S
H1966 C1973 0.950 . S
C1967 C1965 1.387 . S
C1967 C1969 1.390 . S
C1967 H1971 0.950 . S
H1968 C1964 0.950 . S
C1969 C1967 1.390 . S
C1969 C1970 1.387 . S
C1969 H1972 0.950 . S
C1970 C1969 1.387 . S
C1970 C1973 1.387 . S
H1971 C1967 0.950 . S
H1972 C1969 0.950 . S
C1973 C1964 1.390 . S
C1973 H1966 0.950 . S
C1973 C1970 1.387 . S
C1974 C1975 1.387 . S
C1974 H1978 0.950 . S
C1974 C1983 1.390 . S
C1975 C1974 1.387 . S
C1975 C1977 1.387 . S
H1976 C1983 0.950 . S
C1977 C1975 1.387 . S
C1977 C1979 1.390 . S
C1977 H1981 0.950 . S
H1978 C1974 0.950 . S
C1979 C1977 1.390 . S
C1979 C1980 1.387 . S
C1979 H1982 0.950 . S
C1980 C1979 1.387 . S
C1980 C1983 1.387 . S
H1981 C1977 0.950 . S
H1982 C1979 0.950 . S
C1983 C1974 1.390 . S
C1983 H1976 0.950 . S
C1983 C1980 1.387 . S
C1984 C1985 1.387 . S
C1984 H1988 0.950 . S
C1984 C1993 1.390 . S
C1985 C1984 1.387 . S
C1985 C1987 1.387 . S
H1986 C1993 0.950 . S
C1987 C1985 1.387 . S
C1987 C1989 1.390 . S
C1987 H1991 0.950 . S
H1988 C1984 0.950 . S
C1989 C1987 1.390 . S
C1989 C1990 1.387 . S
C1989 H1992 0.950 . S
C1990 C1989 1.387 . S
C1990 C1993 1.387 . S
H1991 C1987 0.950 . S
H1992 C1989 0.950 . S
C1993 C1984 1.390 . S
C1993 H1986 0.950 . S
C1993 C1990 1.387 . S
C1994 C1995 1.387 . S
C1994 H1998 0.950 . S
C1994 C2003 1.390 . S
C1995 C1994 1.387 . S
C1995 C1997 1.387 . S
H1996 C2003 0.950 . S
C1997 C1995 1.387 . S
C1997 C1999 1.390 . S
C1997 H2001 0.950 . S
H1998 C1994 0.950 . S
C1999 C1997 1.390 . S
C1999 C2000 1.387 . S
C1999 H2002 0.950 . S
C2000 C1999 1.387 . S
C2000 C2003 1.387 . S
H2001 C1997 0.950 . S
H2002 C1999 0.950 . S
C2003 C1994 1.390 . S
C2003 H1996 0.950 . S
C2003 C2000 1.387 . S
C2004 C2005 1.387 . S
C2004 H2008 0.950 . S
C2004 C2013 1.390 . S
C2005 C2004 1.387 . S
C2005 C2007 1.387 . S
H2006 C2013 0.950 . S
C2007 C2005 1.387 . S
C2007 C2009 1.390 . S
C2007 H2011 0.950 . S
H2008 C2004 0.950 . S
C2009 C2007 1.390 . S
C2009 C2010 1.387 . S
C2009 H2012 0.950 . S
C2010 C2009 1.387 . S
C2010 C2013 1.387 . S
H2011 C2007 0.950 . S
H2012 C2009 0.950 . S
C2013 C2004 1.390 . S
C2013 H2006 0.950 . S
C2013 C2010 1.387 . S
C2014 C2015 1.387 . S
C2014 H2018 0.950 . S
C2014 C2023 1.390 . S
C2015 C2014 1.387 . S
C2015 C2017 1.387 . S
H2016 C2023 0.950 . S
C2017 C2015 1.387 . S
C2017 C2019 1.390 . S
C2017 H2021 0.950 . S
H2018 C2014 0.950 . S
C2019 C2017 1.390 . S
C2019 C2020 1.387 . S
C2019 H2022 0.950 . S
C2020 C2019 1.387 . S
C2020 C2023 1.387 . S
H2021 C2017 0.950 . S
H2022 C2019 0.950 . S
C2023 C2014 1.390 . S
C2023 H2016 0.950 . S
C2023 C2020 1.387 . S
C2024 C2025 1.387 . S
C2024 H2028 0.950 . S
C2024 C2033 1.390 . S
C2025 C2024 1.387 . S
C2025 C2027 1.387 . S
H2026 C2033 0.950 . S
C2027 C2025 1.387 . S
C2027 C2029 1.390 . S
C2027 H2031 0.950 . S
H2028 C2024 0.950 . S
C2029 C2027 1.390 . S
C2029 C2030 1.387 . S
C2029 H2032 0.950 . S
C2030 C2029 1.387 . S
C2030 C2033 1.387 . S
H2031 C2027 0.950 . S
H2032 C2029 0.950 . S
C2033 C2024 1.390 . S
C2033 H2026 0.950 . S
C2033 C2030 1.387 . S
C2034 C2035 1.387 . S
C2034 H2038 0.950 . S
C2034 C2043 1.390 . S
C2035 C2034 1.387 . S
C2035 C2037 1.387 . S
H2036 C2043 0.950 . S
C2037 C2035 1.387 . S
C2037 C2039 1.390 . S
C2037 H2041 0.950 . S
H2038 C2034 0.950 . S
C2039 C2037 1.390 . S
C2039 C2040 1.387 . S
C2039 H2042 0.950 . S
C2040 C2039 1.387 . S
C2040 C2043 1.387 . S
H2041 C2037 0.950 . S
H2042 C2039 0.950 . S
C2043 C2034 1.390 . S
C2043 H2036 0.950 . S
C2043 C2040 1.387 . S
C2044 C2045 1.387 . S
C2044 H2048 0.950 . S
C2044 C2053 1.390 . S
C2045 C2044 1.387 . S
C2045 C2047 1.387 . S
H2046 C2053 0.950 . S
C2047 C2045 1.387 . S
C2047 C2049 1.390 . S
C2047 H2051 0.950 . S
H2048 C2044 0.950 . S
C2049 C2047 1.390 . S
C2049 C2050 1.387 . S
C2049 H2052 0.950 . S
C2050 C2049 1.387 . S
C2050 C2053 1.387 . S
H2051 C2047 0.950 . S
H2052 C2049 0.950 . S
C2053 C2044 1.390 . S
C2053 H2046 0.950 . S
C2053 C2050 1.387 . S
C2054 C2055 1.387 . S
C2054 H2058 0.950 . S
C2054 C2063 1.390 . S
C2055 C2054 1.387 . S
C2055 C2057 1.387 . S
H2056 C2063 0.950 . S
C2057 C2055 1.387 . S
C2057 C2059 1.390 . S
C2057 H2061 0.950 . S
H2058 C2054 0.950 . S
C2059 C2057 1.390 . S
C2059 C2060 1.387 . S
C2059 H2062 0.950 . S
C2060 C2059 1.387 . S
C2060 C2063 1.387 . S
H2061 C2057 0.950 . S
H2062 C2059 0.950 . S
C2063 C2054 1.390 . S
C2063 H2056 0.950 . S
C2063 C2060 1.387 . S
C2064 C2065 1.387 . S
C2064 H2068 0.950 . S
C2064 C2073 1.390 . S
C2065 C2064 1.387 . S
C2065 C2067 1.387 . S
H2066 C2073 0.950 . S
C2067 C2065 1.387 . S
C2067 C2069 1.390 . S
C2067 H2071 0.950 . S
H2068 C2064 0.950 . S
C2069 C2067 1.390 . S
C2069 C2070 1.387 . S
C2069 H2072 0.950 . S
C2070 C2069 1.387 . S
C2070 C2073 1.387 . S
H2071 C2067 0.950 . S
H2072 C2069 0.950 . S
C2073 C2064 1.390 . S
C2073 H2066 0.950 . S
C2073 C2070 1.387 . S
C2074 C2075 1.387 . S
C2074 H2078 0.950 . S
C2074 C2083 1.390 . S
C2075 C2074 1.387 . S
C2075 C2077 1.387 . S
H2076 C2083 0.950 . S
C2077 C2075 1.387 . S
C2077 C2079 1.390 . S
C2077 H2081 0.950 . S
H2078 C2074 0.950 . S
C2079 C2077 1.390 . S
C2079 C2080 1.387 . S
C2079 H2082 0.950 . S
C2080 C2079 1.387 . S
C2080 C2083 1.387 . S
H2081 C2077 0.950 . S
H2082 C2079 0.950 . S
C2083 C2074 1.390 . S
C2083 H2076 0.950 . S
C2083 C2080 1.387 . S
C2084 C2085 1.387 . S
C2084 H2088 0.950 . S
C2084 C2093 1.390 . S
C2085 C2084 1.387 . S
C2085 C2087 1.387 . S
H2086 C2093 0.950 . S
C2087 C2085 1.387 . S
C2087 C2089 1.390 . S
C2087 H2091 0.950 . S
H2088 C2084 0.950 . S
C2089 C2087 1.390 . S
C2089 C2090 1.387 . S
C2089 H2092 0.950 . S
C2090 C2089 1.387 . S
C2090 C2093 1.387 . S
H2091 C2087 0.950 . S
H2092 C2089 0.950 . S
C2093 C2084 1.390 . S
C2093 H2086 0.950 . S
C2093 C2090 1.387 . S
C2094 C2095 1.387 . S
C2094 H2098 0.950 . S
C2094 C2103 1.390 . S
C2095 C2094 1.387 . S
C2095 C2097 1.387 . S
H2096 C2103 0.950 . S
C2097 C2095 1.387 . S
C2097 C2099 1.390 . S
C2097 H2101 0.950 . S
H2098 C2094 0.950 . S
C2099 C2097 1.390 . S
C2099 C2100 1.387 . S
C2099 H2102 0.950 . S
C2100 C2099 1.387 . S
C2100 C2103 1.387 . S
H2101 C2097 0.950 . S
H2102 C2099 0.950 . S
C2103 C2094 1.390 . S
C2103 H2096 0.950 . S
C2103 C2100 1.387 . S
C2104 C2105 1.387 . S
C2104 H2108 0.950 . S
C2104 C2113 1.390 . S
C2105 C2104 1.387 . S
C2105 C2107 1.387 . S
H2106 C2113 0.950 . S
C2107 C2105 1.387 . S
C2107 C2109 1.390 . S
C2107 H2111 0.950 . S
H2108 C2104 0.950 . S
C2109 C2107 1.390 . S
C2109 C2110 1.387 . S
C2109 H2112 0.950 . S
C2110 C2109 1.387 . S
C2110 C2113 1.387 . S
H2111 C2107 0.950 . S
H2112 C2109 0.950 . S
C2113 C2104 1.390 . S
C2113 H2106 0.950 . S
C2113 C2110 1.387 . S
C2114 C2115 1.387 . S
C2114 H2118 0.950 . S
C2114 C2123 1.390 . S
C2115 C2114 1.387 . S
C2115 C2117 1.387 . S
H2116 C2123 0.950 . S
C2117 C2115 1.387 . S
C2117 C2119 1.390 . S
C2117 H2121 0.950 . S
H2118 C2114 0.950 . S
C2119 C2117 1.390 . S
C2119 C2120 1.387 . S
C2119 H2122 0.950 . S
C2120 C2119 1.387 . S
C2120 C2123 1.387 . S
H2121 C2117 0.950 . S
H2122 C2119 0.950 . S
C2123 C2114 1.390 . S
C2123 H2116 0.950 . S
C2123 C2120 1.387 . S
C2124 C2125 1.387 . S
C2124 H2128 0.950 . S
C2124 C2133 1.390 . S
C2125 C2124 1.387 . S
C2125 C2127 1.387 . S
H2126 C2133 0.950 . S
C2127 C2125 1.387 . S
C2127 C2129 1.390 . S
C2127 H2131 0.950 . S
H2128 C2124 0.950 . S
C2129 C2127 1.390 . S
C2129 C2130 1.387 . S
C2129 H2132 0.950 . S
C2130 C2129 1.387 . S
C2130 C2133 1.387 . S
H2131 C2127 0.950 . S
H2132 C2129 0.950 . S
C2133 C2124 1.390 . S
C2133 H2126 0.950 . S
C2133 C2130 1.387 . S
C2134 C2135 1.387 . S
C2134 H2138 0.950 . S
C2134 C2143 1.390 . S
C2135 C2134 1.387 . S
C2135 C2137 1.387 . S
H2136 C2143 0.950 . S
C2137 C2135 1.387 . S
C2137 C2139 1.390 . S
C2137 H2141 0.950 . S
H2138 C2134 0.950 . S
C2139 C2137 1.390 . S
C2139 C2140 1.387 . S
C2139 H2142 0.950 . S
C2140 C2139 1.387 . S
C2140 C2143 1.387 . S
H2141 C2137 0.950 . S
H2142 C2139 0.950 . S
C2143 C2134 1.390 . S
C2143 H2136 0.950 . S
C2143 C2140 1.387 . S
C2144 C2145 1.387 . S
C2144 H2148 0.950 . S
C2144 C2153 1.390 . S
C2145 C2144 1.387 . S
C2145 C2147 1.387 . S
H2146 C2153 0.950 . S
C2147 C2145 1.387 . S
C2147 C2149 1.390 . S
C2147 H2151 0.950 . S
H2148 C2144 0.950 . S
C2149 C2147 1.390 . S
C2149 C2150 1.387 . S
C2149 H2152 0.950 . S
C2150 C2149 1.387 . S
C2150 C2153 1.387 . S
H2151 C2147 0.950 . S
H2152 C2149 0.950 . S
C2153 C2144 1.390 . S
C2153 H2146 0.950 . S
C2153 C2150 1.387 . S
C2154 C2155 1.387 . S
C2154 H2158 0.950 . S
C2154 C2163 1.390 . S
C2155 C2154 1.387 . S
C2155 C2157 1.387 . S
H2156 C2163 0.950 . S
C2157 C2155 1.387 . S
C2157 C2159 1.390 . S
C2157 H2161 0.950 . S
H2158 C2154 0.950 . S
C2159 C2157 1.390 . S
C2159 C2160 1.387 . S
C2159 H2162 0.950 . S
C2160 C2159 1.387 . S
C2160 C2163 1.387 . S
H2161 C2157 0.950 . S
H2162 C2159 0.950 . S
C2163 C2154 1.390 . S
C2163 H2156 0.950 . S
C2163 C2160 1.387 . S
C2164 C2165 1.387 . S
C2164 H2168 0.950 . S
C2164 C2173 1.390 . S
C2165 C2164 1.387 . S
C2165 C2167 1.387 . S
H2166 C2173 0.950 . S
C2167 C2165 1.387 . S
C2167 C2169 1.390 . S
C2167 H2171 0.950 . S
H2168 C2164 0.950 . S
C2169 C2167 1.390 . S
C2169 C2170 1.387 . S
C2169 H2172 0.950 . S
C2170 C2169 1.387 . S
C2170 C2173 1.387 . S
H2171 C2167 0.950 . S
H2172 C2169 0.950 . S
C2173 C2164 1.390 . S
C2173 H2166 0.950 . S
C2173 C2170 1.387 . S
C2174 C2175 1.387 . S
C2174 H2178 0.950 . S
C2174 C2183 1.390 . S
C2175 C2174 1.387 . S
C2175 C2177 1.387 . S
H2176 C2183 0.950 . S
C2177 C2175 1.387 . S
C2177 C2179 1.390 . S
C2177 H2181 0.950 . S
H2178 C2174 0.950 . S
C2179 C2177 1.390 . S
C2179 C2180 1.387 . S
C2179 H2182 0.950 . S
C2180 C2179 1.387 . S
C2180 C2183 1.387 . S
H2181 C2177 0.950 . S
H2182 C2179 0.950 . S
C2183 C2174 1.390 . S
C2183 H2176 0.950 . S
C2183 C2180 1.387 . S
C2184 C2185 1.387 . S
C2184 H2188 0.950 . S
C2184 C2193 1.390 . S
C2185 C2184 1.387 . S
C2185 C2187 1.387 . S
H2186 C2193 0.950 . S
C2187 C2185 1.387 . S
C2187 C2189 1.390 . S
C2187 H2191 0.950 . S
H2188 C2184 0.950 . S
C2189 C2187 1.390 . S
C2189 C2190 1.387 . S
C2189 H2192 0.950 . S
C2190 C2189 1.387 . S
C2190 C2193 1.387 . S
H2191 C2187 0.950 . S
H2192 C2189 0.950 . S
C2193 C2184 1.390 . S
C2193 H2186 0.950 . S
C2193 C2190 1.387 . S
C2194 C2195 1.387 . S
C2194 H2198 0.950 . S
C2194 C2203 1.390 . S
C2195 C2194 1.387 . S
C2195 C2197 1.387 . S
H2196 C2203 0.950 . S
C2197 C2195 1.387 . S
C2197 C2199 1.390 . S
C2197 H2201 0.950 . S
H2198 C2194 0.950 . S
C2199 C2197 1.390 . S
C2199 C2200 1.387 . S
C2199 H2202 0.950 . S
C2200 C2199 1.387 . S
C2200 C2203 1.387 . S
H2201 C2197 0.950 . S
H2202 C2199 0.950 . S
C2203 C2194 1.390 . S
C2203 H2196 0.950 . S
C2203 C2200 1.387 . S
C2204 C2205 1.387 . S
C2204 H2208 0.950 . S
C2204 C2213 1.390 . S
C2205 C2204 1.387 . S
C2205 C2207 1.387 . S
H2206 C2213 0.950 . S
C2207 C2205 1.387 . S
C2207 C2209 1.390 . S
C2207 H2211 0.950 . S
H2208 C2204 0.950 . S
C2209 C2207 1.390 . S
C2209 C2210 1.387 . S
C2209 H2212 0.950 . S
C2210 C2209 1.387 . S
C2210 C2213 1.387 . S
H2211 C2207 0.950 . S
H2212 C2209 0.950 . S
C2213 C2204 1.390 . S
C2213 H2206 0.950 . S
C2213 C2210 1.387 . S
C2214 C2215 1.387 . S
C2214 H2218 0.950 . S
C2214 C2223 1.390 . S
C2215 C2214 1.387 . S
C2215 C2217 1.387 . S
H2216 C2223 0.950 . S
C2217 C2215 1.387 . S
C2217 C2219 1.390 . S
C2217 H2221 0.950 . S
H2218 C2214 0.950 . S
C2219 C2217 1.390 . S
C2219 C2220 1.387 . S
C2219 H2222 0.950 . S
C2220 C2219 1.387 . S
C2220 C2223 1.387 . S
H2221 C2217 0.950 . S
H2222 C2219 0.950 . S
C2223 C2214 1.390 . S
C2223 H2216 0.950 . S
C2223 C2220 1.387 . S
C2224 C2225 1.387 . S
C2224 H2228 0.950 . S
C2224 C2233 1.390 . S
C2225 C2224 1.387 . S
C2225 C2227 1.387 . S
H2226 C2233 0.950 . S
C2227 C2225 1.387 . S
C2227 C2229 1.390 . S
C2227 H2231 0.950 . S
H2228 C2224 0.950 . S
C2229 C2227 1.390 . S
C2229 C2230 1.387 . S
C2229 H2232 0.950 . S
C2230 C2229 1.387 . S
C2230 C2233 1.387 . S
H2231 C2227 0.950 . S
H2232 C2229 0.950 . S
C2233 C2224 1.390 . S
C2233 H2226 0.950 . S
C2233 C2230 1.387 . S
C2234 C2235 1.387 . S
C2234 H2238 0.950 . S
C2234 C2243 1.390 . S
C2235 C2234 1.387 . S
C2235 C2237 1.387 . S
H2236 C2243 0.950 . S
C2237 C2235 1.387 . S
C2237 C2239 1.390 . S
C2237 H2241 0.950 . S
H2238 C2234 0.950 . S
C2239 C2237 1.390 . S
C2239 C2240 1.387 . S
C2239 H2242 0.950 . S
C2240 C2239 1.387 . S
C2240 C2243 1.387 . S
H2241 C2237 0.950 . S
H2242 C2239 0.950 . S
C2243 C2234 1.390 . S
C2243 H2236 0.950 . S
C2243 C2240 1.387 . S
C2244 C2245 1.387 . S
C2244 H2248 0.950 . S
C2244 C2253 1.390 . S
C2245 C2244 1.387 . S
C2245 C2247 1.387 . S
H2246 C2253 0.950 . S
C2247 C2245 1.387 . S
C2247 C2249 1.390 . S
C2247 H2251 0.950 . S
H2248 C2244 0.950 . S
C2249 C2247 1.390 . S
C2249 C2250 1.387 . S
C2249 H2252 0.950 . S
C2250 C2249 1.387 . S
C2250 C2253 1.387 . S
H2251 C2247 0.950 . S
H2252 C2249 0.950 . S
C2253 C2244 1.390 . S
C2253 H2246 0.950 . S
C2253 C2250 1.387 . S
C2254 C2255 1.387 . S
C2254 H2258 0.950 . S
C2254 C2263 1.390 . S
C2255 C2254 1.387 . S
C2255 C2257 1.387 . S
H2256 C2263 0.950 . S
C2257 C2255 1.387 . S
C2257 C2259 1.390 . S
C2257 H2261 0.950 . S
H2258 C2254 0.950 . S
C2259 C2257 1.390 . S
C2259 C2260 1.387 . S
C2259 H2262 0.950 . S
C2260 C2259 1.387 . S
C2260 C2263 1.387 . S
H2261 C2257 0.950 . S
H2262 C2259 0.950 . S
C2263 C2254 1.390 . S
C2263 H2256 0.950 . S
C2263 C2260 1.387 . S
C2264 C2265 1.387 . S
C2264 H2268 0.950 . S
C2264 C2273 1.390 . S
C2265 C2264 1.387 . S
C2265 C2267 1.387 . S
H2266 C2273 0.950 . S
C2267 C2265 1.387 . S
C2267 C2269 1.390 . S
C2267 H2271 0.950 . S
H2268 C2264 0.950 . S
C2269 C2267 1.390 . S
C2269 C2270 1.387 . S
C2269 H2272 0.950 . S
C2270 C2269 1.387 . S
C2270 C2273 1.387 . S
H2271 C2267 0.950 . S
H2272 C2269 0.950 . S
C2273 C2264 1.390 . S
C2273 H2266 0.950 . S
C2273 C2270 1.387 . S
C2274 C2275 1.387 . S
C2274 H2278 0.950 . S
C2274 C2283 1.390 . S
C2275 C2274 1.387 . S
C2275 C2277 1.387 . S
H2276 C2283 0.950 . S
C2277 C2275 1.387 . S
C2277 C2279 1.390 . S
C2277 H2281 0.950 . S
H2278 C2274 0.950 . S
C2279 C2277 1.390 . S
C2279 C2280 1.387 . S
C2279 H2282 0.950 . S
C2280 C2279 1.387 . S
C2280 C2283 1.387 . S
H2281 C2277 0.950 . S
H2282 C2279 0.950 . S
C2283 C2274 1.390 . S
C2283 H2276 0.950 . S
C2283 C2280 1.387 . S
C2284 C2285 1.387 . S
C2284 H2288 0.950 . S
C2284 C2293 1.390 . S
C2285 C2284 1.387 . S
C2285 C2287 1.387 . S
H2286 C2293 0.950 . S
C2287 C2285 1.387 . S
C2287 C2289 1.390 . S
C2287 H2291 0.950 . S
H2288 C2284 0.950 . S
C2289 C2287 1.390 . S
C2289 C2290 1.387 . S
C2289 H2292 0.950 . S
C2290 C2289 1.387 . S
C2290 C2293 1.387 . S
H2291 C2287 0.950 . S
H2292 C2289 0.950 . S
C2293 C2284 1.390 . S
C2293 H2286 0.950 . S
C2293 C2290 1.387 . S
C2294 C2295 1.387 . S
C2294 H2298 0.950 . S
C2294 C2303 1.390 . S
C2295 C2294 1.387 . S
C2295 C2297 1.387 . S
H2296 C2303 0.950 . S
C2297 C2295 1.387 . S
C2297 C2299 1.390 . S
C2297 H2301 0.950 . S
H2298 C2294 0.950 . S
C2299 C2297 1.390 . S
C2299 C2300 1.387 . S
C2299 H2302 0.950 . S
C2300 C2299 1.387 . S
C2300 C2303 1.387 . S
H2301 C2297 0.950 . S
H2302 C2299 0.950 . S
C2303 C2294 1.390 . S
C2303 H2296 0.950 . S
C2303 C2300 1.387 . S
C2304 C2305 1.387 . S
C2304 H2308 0.950 . S
C2304 C2313 1.390 . S
C2305 C2304 1.387 . S
C2305 C2307 1.387 . S
H2306 C2313 0.950 . S
C2307 C2305 1.387 . S
C2307 C2309 1.390 . S
C2307 H2311 0.950 . S
H2308 C2304 0.950 . S
C2309 C2307 1.390 . S
C2309 C2310 1.387 . S
C2309 H2312 0.950 . S
C2310 C2309 1.387 . S
C2310 C2313 1.387 . S
H2311 C2307 0.950 . S
H2312 C2309 0.950 . S
C2313 C2304 1.390 . S
C2313 H2306 0.950 . S
C2313 C2310 1.387 . S
C2314 C2315 1.387 . S
C2314 H2318 0.950 . S
C2314 C2323 1.390 . S
C2315 C2314 1.387 . S
C2315 C2317 1.387 . S
H2316 C2323 0.950 . S
C2317 C2315 1.387 . S
C2317 C2319 1.390 . S
C2317 H2321 0.950 . S
H2318 C2314 0.950 . S
C2319 C2317 1.390 . S
C2319 C2320 1.387 . S
C2319 H2322 0.950 . S
C2320 C2319 1.387 . S
C2320 C2323 1.387 . S
H2321 C2317 0.950 . S
H2322 C2319 0.950 . S
C2323 C2314 1.390 . S
C2323 H2316 0.950 . S
C2323 C2320 1.387 . S
C2324 C2325 1.387 . S
C2324 H2328 0.950 . S
C2324 C2333 1.390 . S
C2325 C2324 1.387 . S
C2325 C2327 1.387 . S
H2326 C2333 0.950 . S
C2327 C2325 1.387 . S
C2327 C2329 1.390 . S
C2327 H2331 0.950 . S
H2328 C2324 0.950 . S
C2329 C2327 1.390 . S
C2329 C2330 1.387 . S
C2329 H2332 0.950 . S
C2330 C2329 1.387 . S
C2330 C2333 1.387 . S
H2331 C2327 0.950 . S
H2332 C2329 0.950 . S
C2333 C2324 1.390 . S
C2333 H2326 0.950 . S
C2333 C2330 1.387 . S
C2334 C2335 1.387 . S
C2334 H2338 0.950 . S
C2334 C2343 1.390 . S
C2335 C2334 1.387 . S
C2335 C2337 1.387 . S
H2336 C2343 0.950 . S
C2337 C2335 1.387 . S
C2337 C2339 1.390 . S
C2337 H2341 0.950 . S
H2338 C2334 0.950 . S
C2339 C2337 1.390 . S
C2339 C2340 1.387 . S
C2339 H2342 0.950 . S
C2340 C2339 1.387 . S
C2340 C2343 1.387 . S
H2341 C2337 0.950 . S
H2342 C2339 0.950 . S
C2343 C2334 1.390 . S
C2343 H2336 0.950 . S
C2343 C2340 1.387 . S
C2344 C2345 1.387 . S
C2344 H2348 0.950 . S
C2344 C2353 1.390 . S
C2345 C2344 1.387 . S
C2345 C2347 1.387 . S
H2346 C2353 0.950 . S
C2347 C2345 1.387 . S
C2347 C2349 1.390 . S
C2347 H2351 0.950 . S
H2348 C2344 0.950 . S
C2349 C2347 1.390 . S
C2349 C2350 1.387 . S
C2349 H2352 0.950 . S
C2350 C2349 1.387 . S
C2350 C2353 1.387 . S
H2351 C2347 0.950 . S
H2352 C2349 0.950 . S
C2353 C2344 1.390 . S
C2353 H2346 0.950 . S
C2353 C2350 1.387 . S
C2354 C2355 1.387 . S
C2354 H2358 0.950 . S
C2354 C2363 1.390 . S
C2355 C2354 1.387 . S
C2355 C2357 1.387 . S
H2356 C2363 0.950 . S
C2357 C2355 1.387 . S
C2357 C2359 1.390 . S
C2357 H2361 0.950 . S
H2358 C2354 0.950 . S
C2359 C2357 1.390 . S
C2359 C2360 1.387 . S
C2359 H2362 0.950 . S
C2360 C2359 1.387 . S
C2360 C2363 1.387 . S
H2361 C2357 0.950 . S
H2362 C2359 0.950 . S
C2363 C2354 1.390 . S
C2363 H2356 0.950 . S
C2363 C2360 1.387 . S
C2364 C2365 1.387 . S
C2364 H2368 0.950 . S
C2364 C2373 1.390 . S
C2365 C2364 1.387 . S
C2365 C2367 1.387 . S
H2366 C2373 0.950 . S
C2367 C2365 1.387 . S
C2367 C2369 1.390 . S
C2367 H2371 0.950 . S
H2368 C2364 0.950 . S
C2369 C2367 1.390 . S
C2369 C2370 1.387 . S
C2369 H2372 0.950 . S
C2370 C2369 1.387 . S
C2370 C2373 1.387 . S
H2371 C2367 0.950 . S
H2372 C2369 0.950 . S
C2373 C2364 1.390 . S
C2373 H2366 0.950 . S
C2373 C2370 1.387 . S
C2374 C2375 1.387 . S
C2374 H2378 0.950 . S
C2374 C2383 1.390 . S
C2375 C2374 1.387 . S
C2375 C2377 1.387 . S
H2376 C2383 0.950 . S
C2377 C2375 1.387 . S
C2377 C2379 1.390 . S
C2377 H2381 0.950 . S
H2378 C2374 0.950 . S
C2379 C2377 1.390 . S
C2379 C2380 1.387 . S
C2379 H2382 0.950 . S
C2380 C2379 1.387 . S
C2380 C2383 1.387 . S
H2381 C2377 0.950 . S
H2382 C2379 0.950 . S
C2383 C2374 1.390 . S
C2383 H2376 0.950 . S
C2383 C2380 1.387 . S
C2384 C2385 1.387 . S
C2384 H2388 0.950 . S
C2384 C2393 1.390 . S
C2385 C2384 1.387 . S
C2385 C2387 1.387 . S
H2386 C2393 0.950 . S
C2387 C2385 1.387 . S
C2387 C2389 1.390 . S
C2387 H2391 0.950 . S
H2388 C2384 0.950 . S
C2389 C2387 1.390 . S
C2389 C2390 1.387 . S
C2389 H2392 0.950 . S
C2390 C2389 1.387 . S
C2390 C2393 1.387 . S
H2391 C2387 0.950 . S
H2392 C2389 0.950 . S
C2393 C2384 1.390 . S
C2393 H2386 0.950 . S
C2393 C2390 1.387 . S
C2394 C2395 1.387 . S
C2394 H2398 0.950 . S
C2394 C2403 1.390 . S
C2395 C2394 1.387 . S
C2395 C2397 1.387 . S
H2396 C2403 0.950 . S
C2397 C2395 1.387 . S
C2397 C2399 1.390 . S
C2397 H2401 0.950 . S
H2398 C2394 0.950 . S
C2399 C2397 1.390 . S
C2399 C2400 1.387 . S
C2399 H2402 0.950 . S
C2400 C2399 1.387 . S
C2400 C2403 1.387 . S
H2401 C2397 0.950 . S
H2402 C2399 0.950 . S
C2403 C2394 1.390 . S
C2403 H2396 0.950 . S
C2403 C2400 1.387 . S
C2404 C2405 1.387 . S
C2404 H2408 0.950 . S
C2404 C2413 1.390 . S
C2405 C2404 1.387 . S
C2405 C2407 1.387 . S
H2406 C2413 0.950 . S
C2407 C2405 1.387 . S
C2407 C2409 1.390 . S
C2407 H2411 0.950 . S
H2408 C2404 0.950 . S
C2409 C2407 1.390 . S
C2409 C2410 1.387 . S
C2409 H2412 0.950 . S
C2410 C2409 1.387 . S
C2410 C2413 1.387 . S
H2411 C2407 0.950 . S
H2412 C2409 0.950 . S
C2413 C2404 1.390 . S
C2413 H2406 0.950 . S
C2413 C2410 1.387 . S
C2414 C2415 1.387 . S
C2414 H2418 0.950 . S
C2414 C2423 1.390 . S
C2415 C2414 1.387 . S
C2415 C2417 1.387 . S
H2416 C2423 0.950 . S
C2417 C2415 1.387 . S
C2417 C2419 1.390 . S
C2417 H2421 0.950 . S
H2418 C2414 0.950 . S
C2419 C2417 1.390 . S
C2419 C2420 1.387 . S
C2419 H2422 0.950 . S
C2420 C2419 1.387 . S
C2420 C2423 1.387 . S
H2421 C2417 0.950 . S
H2422 C2419 0.950 . S
C2423 C2414 1.390 . S
C2423 H2416 0.950 . S
C2423 C2420 1.387 . S
C2424 C2425 1.387 . S
C2424 H2428 0.950 . S
C2424 C2433 1.390 . S
C2425 C2424 1.387 . S
C2425 C2427 1.387 . S
H2426 C2433 0.950 . S
C2427 C2425 1.387 . S
C2427 C2429 1.390 . S
C2427 H2431 0.950 . S
H2428 C2424 0.950 . S
C2429 C2427 1.390 . S
C2429 C2430 1.387 . S
C2429 H2432 0.950 . S
C2430 C2429 1.387 . S
C2430 C2433 1.387 . S
H2431 C2427 0.950 . S
H2432 C2429 0.950 . S
C2433 C2424 1.390 . S
C2433 H2426 0.950 . S
C2433 C2430 1.387 . S
C2434 C2435 1.387 . S
C2434 H2438 0.950 . S
C2434 C2443 1.390 . S
C2435 C2434 1.387 . S
C2435 C2437 1.387 . S
H2436 C2443 0.950 . S
C2437 C2435 1.387 . S
C2437 C2439 1.390 . S
C2437 H2441 0.950 . S
H2438 C2434 0.950 . S
C2439 C2437 1.390 . S
C2439 C2440 1.387 . S
C2439 H2442 0.950 . S
C2440 C2439 1.387 . S
C2440 C2443 1.387 . S
H2441 C2437 0.950 . S
H2442 C2439 0.950 . S
C2443 C2434 1.390 . S
C2443 H2436 0.950 . S
C2443 C2440 1.387 . S
C2444 C2445 1.387 . S
C2444 H2448 0.950 . S
C2444 C2453 1.390 . S
C2445 C2444 1.387 . S
C2445 C2447 1.387 . S
H2446 C2453 0.950 . S
C2447 C2445 1.387 . S
C2447 C2449 1.390 . S
C2447 H2451 0.950 . S
H2448 C2444 0.950 . S
C2449 C2447 1.390 . S
C2449 C2450 1.387 . S
C2449 H2452 0.950 . S
C2450 C2449 1.387 . S
C2450 C2453 1.387 . S
H2451 C2447 0.950 . S
H2452 C2449 0.950 . S
C2453 C2444 1.390 . S
C2453 H2446 0.950 . S
C2453 C2450 1.387 . S
C2454 C2455 1.387 . S
C2454 H2458 0.950 . S
C2454 C2463 1.390 . S
C2455 C2454 1.387 . S
C2455 C2457 1.387 . S
H2456 C2463 0.950 . S
C2457 C2455 1.387 . S
C2457 C2459 1.390 . S
C2457 H2461 0.950 . S
H2458 C2454 0.950 . S
C2459 C2457 1.390 . S
C2459 C2460 1.387 . S
C2459 H2462 0.950 . S
C2460 C2459 1.387 . S
C2460 C2463 1.387 . S
H2461 C2457 0.950 . S
H2462 C2459 0.950 . S
C2463 C2454 1.390 . S
C2463 H2456 0.950 . S
C2463 C2460 1.387 . S
C2464 C2465 1.387 . S
C2464 H2468 0.950 . S
C2464 C2473 1.390 . S
C2465 C2464 1.387 . S
C2465 C2467 1.387 . S
H2466 C2473 0.950 . S
C2467 C2465 1.387 . S
C2467 C2469 1.390 . S
C2467 H2471 0.950 . S
H2468 C2464 0.950 . S
C2469 C2467 1.390 . S
C2469 C2470 1.387 . S
C2469 H2472 0.950 . S
C2470 C2469 1.387 . S
C2470 C2473 1.387 . S
H2471 C2467 0.950 . S
H2472 C2469 0.950 . S
C2473 C2464 1.390 . S
C2473 H2466 0.950 . S
C2473 C2470 1.387 . S
C2474 C2475 1.387 . S
C2474 H2478 0.950 . S
C2474 C2483 1.390 . S
C2475 C2474 1.387 . S
C2475 C2477 1.387 . S
H2476 C2483 0.950 . S
C2477 C2475 1.387 . S
C2477 C2479 1.390 . S
C2477 H2481 0.950 . S
H2478 C2474 0.950 . S
C2479 C2477 1.390 . S
C2479 C2480 1.387 . S
C2479 H2482 0.950 . S
C2480 C2479 1.387 . S
C2480 C2483 1.387 . S
H2481 C2477 0.950 . S
H2482 C2479 0.950 . S
C2483 C2474 1.390 . S
C2483 H2476 0.950 . S
C2483 C2480 1.387 . S
C2484 C2485 1.387 . S
C2484 H2488 0.950 . S
C2484 C2493 1.390 . S
C2485 C2484 1.387 . S
C2485 C2487 1.387 . S
H2486 C2493 0.950 . S
C2487 C2485 1.387 . S
C2487 C2489 1.390 . S
C2487 H2491 0.950 . S
H2488 C2484 0.950 . S
C2489 C2487 1.390 . S
C2489 C2490 1.387 . S
C2489 H2492 0.950 . S
C2490 C2489 1.387 . S
C2490 C2493 1.387 . S
H2491 C2487 0.950 . S
H2492 C2489 0.950 . S
C2493 C2484 1.390 . S
C2493 H2486 0.950 . S
C2493 C2490 1.387 . S
C2494 C2495 1.387 . S
C2494 H2498 0.950 . S
C2494 C2503 1.390 . S
C2495 C2494 1.387 . S
C2495 C2497 1.387 . S
H2496 C2503 0.950 . S
C2497 C2495 1.387 . S
C2497 C2499 1.390 . S
C2497 H2501 0.950 . S
H2498 C2494 0.950 . S
C2499 C2497 1.390 . S
C2499 C2500 1.387 . S
C2499 H2502 0.950 . S
C2500 C2499 1.387 . S
C2500 C2503 1.387 . S
H2501 C2497 0.950 . S
H2502 C2499 0.950 . S
C2503 C2494 1.390 . S
C2503 H2496 0.950 . S
C2503 C2500 1.387 . S
C2504 C2505 1.387 . S
C2504 H2508 0.950 . S
C2504 C2513 1.390 . S
C2505 C2504 1.387 . S
C2505 C2507 1.387 . S
H2506 C2513 0.950 . S
C2507 C2505 1.387 . S
C2507 C2509 1.390 . S
C2507 H2511 0.950 . S
H2508 C2504 0.950 . S
C2509 C2507 1.390 . S
C2509 C2510 1.387 . S
C2509 H2512 0.950 . S
C2510 C2509 1.387 . S
C2510 C2513 1.387 . S
H2511 C2507 0.950 . S
H2512 C2509 0.950 . S
C2513 C2504 1.390 . S
C2513 H2506 0.950 . S
C2513 C2510 1.387 . S
C2514 C2515 1.387 . S
C2514 H2518 0.950 . S
C2514 C2523 1.390 . S
C2515 C2514 1.387 . S
C2515 C2517 1.387 . S
H2516 C2523 0.950 . S
C2517 C2515 1.387 . S
C2517 C2519 1.390 . S
C2517 H2521 0.950 . S
H2518 C2514 0.950 . S
C2519 C2517 1.390 . S
C2519 C2520 1.387 . S
C2519 H2522 0.950 . S
C2520 C2519 1.387 . S
C2520 C2523 1.387 . S
H2521 C2517 0.950 . S
H2522 C2519 0.950 . S
C2523 C2514 1.390 . S
C2523 H2516 0.950 . S
C2523 C2520 1.387 . S
C2524 C2525 1.387 . S
C2524 H2528 0.950 . S
C2524 C2533 1.390 . S
C2525 C2524 1.387 . S
C2525 C2527 1.387 . S
H2526 C2533 0.950 . S
C2527 C2525 1.387 . S
C2527 C2529 1.390 . S
C2527 H2531 0.950 . S
H2528 C2524 0.950 . S
C2529 C2527 1.390 . S
C2529 C2530 1.387 . S
C2529 H2532 0.950 . S
C2530 C2529 1.387 . S
C2530 C2533 1.387 . S
H2531 C2527 0.950 . S
H2532 C2529 0.950 . S
C2533 C2524 1.390 . S
C2533 H2526 0.950 . S
C2533 C2530 1.387 . S
C2534 C2535 1.387 . S
C2534 H2538 0.950 . S
C2534 C2543 1.390 . S
C2535 C2534 1.387 . S
C2535 C2537 1.387 . S
H2536 C2543 0.950 . S
C2537 C2535 1.387 . S
C2537 C2539 1.390 . S
C2537 H2541 0.950 . S
H2538 C2534 0.950 . S
C2539 C2537 1.390 . S
C2539 C2540 1.387 . S
C2539 H2542 0.950 . S
C2540 C2539 1.387 . S
C2540 C2543 1.387 . S
H2541 C2537 0.950 . S
H2542 C2539 0.950 . S
C2543 C2534 1.390 . S
C2543 H2536 0.950 . S
C2543 C2540 1.387 . S
C2544 C2545 1.387 . S
C2544 H2548 0.950 . S
C2544 C2553 1.390 . S
C2545 C2544 1.387 . S
C2545 C2547 1.387 . S
H2546 C2553 0.950 . S
C2547 C2545 1.387 . S
C2547 C2549 1.390 . S
C2547 H2551 0.950 . S
H2548 C2544 0.950 . S
C2549 C2547 1.390 . S
C2549 C2550 1.387 . S
C2549 H2552 0.950 . S
C2550 C2549 1.387 . S
C2550 C2553 1.387 . S
H2551 C2547 0.950 . S
H2552 C2549 0.950 . S
C2553 C2544 1.390 . S
C2553 H2546 0.950 . S
C2553 C2550 1.387 . S
C2554 C2555 1.387 . S
C2554 H2558 0.950 . S
C2554 C2563 1.390 . S
C2555 C2554 1.387 . S
C2555 C2557 1.387 . S
H2556 C2563 0.950 . S
C2557 C2555 1.387 . S
C2557 C2559 1.390 . S
C2557 H2561 0.950 . S
H2558 C2554 0.950 . S
C2559 C2557 1.390 . S
C2559 C2560 1.387 . S
C2559 H2562 0.950 . S
C2560 C2559 1.387 . S
C2560 C2563 1.387 . S
H2561 C2557 0.950 . S
H2562 C2559 0.950 . S
C2563 C2554 1.390 . S
C2563 H2556 0.950 . S
C2563 C2560 1.387 . S
C2564 C2565 1.387 . S
C2564 H2568 0.950 . S
C2564 C2573 1.390 . S
C2565 C2564 1.387 . S
C2565 C2567 1.387 . S
H2566 C2573 0.950 . S
C2567 C2565 1.387 . S
C2567 C2569 1.390 . S
C2567 H2571 0.950 . S
H2568 C2564 0.950 . S
C2569 C2567 1.390 . S
C2569 C2570 1.387 . S
C2569 H2572 0.950 . S
C2570 C2569 1.387 . S
C2570 C2573 1.387 . S
H2571 C2567 0.950 . S
H2572 C2569 0.950 . S
C2573 C2564 1.390 . S
C2573 H2566 0.950 . S
C2573 C2570 1.387 . S
C2574 C2575 1.387 . S
C2574 H2578 0.950 . S
C2574 C2583 1.390 . S
C2575 C2574 1.387 . S
C2575 C2577 1.387 . S
H2576 C2583 0.950 . S
C2577 C2575 1.387 . S
C2577 C2579 1.390 . S
C2577 H2581 0.950 . S
H2578 C2574 0.950 . S
C2579 C2577 1.390 . S
C2579 C2580 1.387 . S
C2579 H2582 0.950 . S
C2580 C2579 1.387 . S
C2580 C2583 1.387 . S
H2581 C2577 0.950 . S
H2582 C2579 0.950 . S
C2583 C2574 1.390 . S
C2583 H2576 0.950 . S
C2583 C2580 1.387 . S
C2584 C2585 1.387 . S
C2584 H2588 0.950 . S
C2584 C2593 1.390 . S
C2585 C2584 1.387 . S
C2585 C2587 1.387 . S
H2586 C2593 0.950 . S
C2587 C2585 1.387 . S
C2587 C2589 1.390 . S
C2587 H2591 0.950 . S
H2588 C2584 0.950 . S
C2589 C2587 1.390 . S
C2589 C2590 1.387 . S
C2589 H2592 0.950 . S
C2590 C2589 1.387 . S
C2590 C2593 1.387 . S
H2591 C2587 0.950 . S
H2592 C2589 0.950 . S
C2593 C2584 1.390 . S
C2593 H2586 0.950 . S
C2593 C2590 1.387 . S
C2594 C2595 1.387 . S
C2594 H2598 0.950 . S
C2594 C2603 1.390 . S
C2595 C2594 1.387 . S
C2595 C2597 1.387 . S
H2596 C2603 0.950 . S
C2597 C2595 1.387 . S
C2597 C2599 1.390 . S
C2597 H2601 0.950 . S
H2598 C2594 0.950 . S
C2599 C2597 1.390 . S
C2599 C2600 1.387 . S
C2599 H2602 0.950 . S
C2600 C2599 1.387 . S
C2600 C2603 1.387 . S
H2601 C2597 0.950 . S
H2602 C2599 0.950 . S
C2603 C2594 1.390 . S
C2603 H2596 0.950 . S
C2603 C2600 1.387 . S
C2604 C2605 1.387 . S
C2604 H2608 0.950 . S
C2604 C2613 1.390 . S
C2605 C2604 1.387 . S
C2605 C2607 1.387 . S
H2606 C2613 0.950 . S
C2607 C2605 1.387 . S
C2607 C2609 1.390 . S
C2607 H2611 0.950 . S
H2608 C2604 0.950 . S
C2609 C2607 1.390 . S
C2609 C2610 1.387 . S
C2609 H2612 0.950 . S
C2610 C2609 1.387 . S
C2610 C2613 1.387 . S
H2611 C2607 0.950 . S
H2612 C2609 0.950 . S
C2613 C2604 1.390 . S
C2613 H2606 0.950 . S
C2613 C2610 1.387 . S
C2614 C2615 1.387 . S
C2614 H2618 0.950 . S
C2614 C2623 1.390 . S
C2615 C2614 1.387 . S
C2615 C2617 1.387 . S
H2616 C2623 0.950 . S
C2617 C2615 1.387 . S
C2617 C2619 1.390 . S
C2617 H2621 0.950 . S
H2618 C2614 0.950 . S
C2619 C2617 1.390 . S
C2619 C2620 1.387 . S
C2619 H2622 0.950 . S
C2620 C2619 1.387 . S
C2620 C2623 1.387 . S
H2621 C2617 0.950 . S
H2622 C2619 0.950 . S
C2623 C2614 1.390 . S
C2623 H2616 0.950 . S
C2623 C2620 1.387 . S
C2624 C2625 1.387 . S
C2624 H2628 0.950 . S
C2624 C2633 1.390 . S
C2625 C2624 1.387 . S
C2625 C2627 1.387 . S
H2626 C2633 0.950 . S
C2627 C2625 1.387 . S
C2627 C2629 1.390 . S
C2627 H2631 0.950 . S
H2628 C2624 0.950 . S
C2629 C2627 1.390 . S
C2629 C2630 1.387 . S
C2629 H2632 0.950 . S
C2630 C2629 1.387 . S
C2630 C2633 1.387 . S
H2631 C2627 0.950 . S
H2632 C2629 0.950 . S
C2633 C2624 1.390 . S
C2633 H2626 0.950 . S
C2633 C2630 1.387 . S
C2634 C2635 1.387 . S
C2634 H2638 0.950 . S
C2634 C2643 1.390 . S
C2635 C2634 1.387 . S
C2635 C2637 1.387 . S
H2636 C2643 0.950 . S
C2637 C2635 1.387 . S
C2637 C2639 1.390 . S
C2637 H2641 0.950 . S
H2638 C2634 0.950 . S
C2639 C2637 1.390 . S
C2639 C2640 1.387 . S
C2639 H2642 0.950 . S
C2640 C2639 1.387 . S
C2640 C2643 1.387 . S
H2641 C2637 0.950 . S
H2642 C2639 0.950 . S
C2643 C2634 1.390 . S
C2643 H2636 0.950 . S
C2643 C2640 1.387 . S
C2644 C2645 1.387 . S
C2644 H2648 0.950 . S
C2644 C2653 1.390 . S
C2645 C2644 1.387 . S
C2645 C2647 1.387 . S
H2646 C2653 0.950 . S
C2647 C2645 1.387 . S
C2647 C2649 1.390 . S
C2647 H2651 0.950 . S
H2648 C2644 0.950 . S
C2649 C2647 1.390 . S
C2649 C2650 1.387 . S
C2649 H2652 0.950 . S
C2650 C2649 1.387 . S
C2650 C2653 1.387 . S
H2651 C2647 0.950 . S
H2652 C2649 0.950 . S
C2653 C2644 1.390 . S
C2653 H2646 0.950 . S
C2653 C2650 1.387 . S
C2654 C2655 1.387 . S
C2654 H2658 0.950 . S
C2654 C2663 1.390 . S
C2655 C2654 1.387 . S
C2655 C2657 1.387 . S
H2656 C2663 0.950 . S
C2657 C2655 1.387 . S
C2657 C2659 1.390 . S
C2657 H2661 0.950 . S
H2658 C2654 0.950 . S
C2659 C2657 1.390 . S
C2659 C2660 1.387 . S
C2659 H2662 0.950 . S
C2660 C2659 1.387 . S
C2660 C2663 1.387 . S
H2661 C2657 0.950 . S
H2662 C2659 0.950 . S
C2663 C2654 1.390 . S
C2663 H2656 0.950 . S
C2663 C2660 1.387 . S
C2664 C2665 1.387 . S
C2664 H2668 0.950 . S
C2664 C2673 1.390 . S
C2665 C2664 1.387 . S
C2665 C2667 1.387 . S
H2666 C2673 0.950 . S
C2667 C2665 1.387 . S
C2667 C2669 1.390 . S
C2667 H2671 0.950 . S
H2668 C2664 0.950 . S
C2669 C2667 1.390 . S
C2669 C2670 1.387 . S
C2669 H2672 0.950 . S
C2670 C2669 1.387 . S
C2670 C2673 1.387 . S
H2671 C2667 0.950 . S
H2672 C2669 0.950 . S
C2673 C2664 1.390 . S
C2673 H2666 0.950 . S
C2673 C2670 1.387 . S
C2674 C2675 1.387 . S
C2674 H2678 0.950 . S
C2674 C2683 1.390 . S
C2675 C2674 1.387 . S
C2675 C2677 1.387 . S
H2676 C2683 0.950 . S
C2677 C2675 1.387 . S
C2677 C2679 1.390 . S
C2677 H2681 0.950 . S
H2678 C2674 0.950 . S
C2679 C2677 1.390 . S
C2679 C2680 1.387 . S
C2679 H2682 0.950 . S
C2680 C2679 1.387 . S
C2680 C2683 1.387 . S
H2681 C2677 0.950 . S
H2682 C2679 0.950 . S
C2683 C2674 1.390 . S
C2683 H2676 0.950 . S
C2683 C2680 1.387 . S
C2684 C2685 1.387 . S
C2684 H2688 0.950 . S
C2684 C2693 1.390 . S
C2685 C2684 1.387 . S
C2685 C2687 1.387 . S
H2686 C2693 0.950 . S
C2687 C2685 1.387 . S
C2687 C2689 1.390 . S
C2687 H2691 0.950 . S
H2688 C2684 0.950 . S
C2689 C2687 1.390 . S
C2689 C2690 1.387 . S
C2689 H2692 0.950 . S
C2690 C2689 1.387 . S
C2690 C2693 1.387 . S
H2691 C2687 0.950 . S
H2692 C2689 0.950 . S
C2693 C2684 1.390 . S
C2693 H2686 0.950 . S
C2693 C2690 1.387 . S
C2694 C2695 1.387 . S
C2694 H2698 0.950 . S
C2694 C2703 1.390 . S
C2695 C2694 1.387 . S
C2695 C2697 1.387 . S
H2696 C2703 0.950 . S
C2697 C2695 1.387 . S
C2697 C2699 1.390 . S
C2697 H2701 0.950 . S
H2698 C2694 0.950 . S
C2699 C2697 1.390 . S
C2699 C2700 1.387 . S
C2699 H2702 0.950 . S
C2700 C2699 1.387 . S
C2700 C2703 1.387 . S
H2701 C2697 0.950 . S
H2702 C2699 0.950 . S
C2703 C2694 1.390 . S
C2703 H2696 0.950 . S
C2703 C2700 1.387 . S
C2704 C2705 1.387 . S
C2704 H2708 0.950 . S
C2704 C2713 1.390 . S
C2705 C2704 1.387 . S
C2705 C2707 1.387 . S
H2706 C2713 0.950 . S
C2707 C2705 1.387 . S
C2707 C2709 1.390 . S
C2707 H2711 0.950 . S
H2708 C2704 0.950 . S
C2709 C2707 1.390 . S
C2709 C2710 1.387 . S
C2709 H2712 0.950 . S
C2710 C2709 1.387 . S
C2710 C2713 1.387 . S
H2711 C2707 0.950 . S
H2712 C2709 0.950 . S
C2713 C2704 1.390 . S
C2713 H2706 0.950 . S
C2713 C2710 1.387 . S
C2714 C2715 1.387 . S
C2714 H2718 0.950 . S
C2714 C2723 1.390 . S
C2715 C2714 1.387 . S
C2715 C2717 1.387 . S
H2716 C2723 0.950 . S
C2717 C2715 1.387 . S
C2717 C2719 1.390 . S
C2717 H2721 0.950 . S
H2718 C2714 0.950 . S
C2719 C2717 1.390 . S
C2719 C2720 1.387 . S
C2719 H2722 0.950 . S
C2720 C2719 1.387 . S
C2720 C2723 1.387 . S
H2721 C2717 0.950 . S
H2722 C2719 0.950 . S
C2723 C2714 1.390 . S
C2723 H2716 0.950 . S
C2723 C2720 1.387 . S
C2724 C2725 1.387 . S
C2724 H2728 0.950 . S
C2724 C2733 1.390 . S
C2725 C2724 1.387 . S
C2725 C2727 1.387 . S
H2726 C2733 0.950 . S
C2727 C2725 1.387 . S
C2727 C2729 1.390 . S
C2727 H2731 0.950 . S
H2728 C2724 0.950 . S
C2729 C2727 1.390 . S
C2729 C2730 1.387 . S
C2729 H2732 0.950 . S
C2730 C2729 1.387 . S
C2730 C2733 1.387 . S
H2731 C2727 0.950 . S
H2732 C2729 0.950 . S
C2733 C2724 1.390 . S
C2733 H2726 0.950 . S
C2733 C2730 1.387 . S
C2734 C2735 1.387 . S
C2734 H2738 0.950 . S
C2734 C2743 1.390 . S
C2735 C2734 1.387 . S
C2735 C2737 1.387 . S
H2736 C2743 0.950 . S
C2737 C2735 1.387 . S
C2737 C2739 1.390 . S
C2737 H2741 0.950 . S
H2738 C2734 0.950 . S
C2739 C2737 1.390 . S
C2739 C2740 1.387 . S
C2739 H2742 0.950 . S
C2740 C2739 1.387 . S
C2740 C2743 1.387 . S
H2741 C2737 0.950 . S
H2742 C2739 0.950 . S
C2743 C2734 1.390 . S
C2743 H2736 0.950 . S
C2743 C2740 1.387 . S
C2744 C2745 1.387 . S
C2744 H2748 0.950 . S
C2744 C2753 1.390 . S
C2745 C2744 1.387 . S
C2745 C2747 1.387 . S
H2746 C2753 0.950 . S
C2747 C2745 1.387 . S
C2747 C2749 1.390 . S
C2747 H2751 0.950 . S
H2748 C2744 0.950 . S
C2749 C2747 1.390 . S
C2749 C2750 1.387 . S
C2749 H2752 0.950 . S
C2750 C2749 1.387 . S
C2750 C2753 1.387 . S
H2751 C2747 0.950 . S
H2752 C2749 0.950 . S
C2753 C2744 1.390 . S
C2753 H2746 0.950 . S
C2753 C2750 1.387 . S
C2754 C2755 1.387 . S
C2754 H2758 0.950 . S
C2754 C2763 1.390 . S
C2755 C2754 1.387 . S
C2755 C2757 1.387 . S
H2756 C2763 0.950 . S
C2757 C2755 1.387 . S
C2757 C2759 1.390 . S
C2757 H2761 0.950 . S
H2758 C2754 0.950 . S
C2759 C2757 1.390 . S
C2759 C2760 1.387 . S
C2759 H2762 0.950 . S
C2760 C2759 1.387 . S
C2760 C2763 1.387 . S
H2761 C2757 0.950 . S
H2762 C2759 0.950 . S
C2763 C2754 1.390 . S
C2763 H2756 0.950 . S
C2763 C2760 1.387 . S
C2764 C2765 1.387 . S
C2764 H2768 0.950 . S
C2764 C2773 1.390 . S
C2765 C2764 1.387 . S
C2765 C2767 1.387 . S
H2766 C2773 0.950 . S
C2767 C2765 1.387 . S
C2767 C2769 1.390 . S
C2767 H2771 0.950 . S
H2768 C2764 0.950 . S
C2769 C2767 1.390 . S
C2769 C2770 1.387 . S
C2769 H2772 0.950 . S
C2770 C2769 1.387 . S
C2770 C2773 1.387 . S
H2771 C2767 0.950 . S
H2772 C2769 0.950 . S
C2773 C2764 1.390 . S
C2773 H2766 0.950 . S
C2773 C2770 1.387 . S
C2774 C2775 1.387 . S
C2774 H2778 0.950 . S
C2774 C2783 1.390 . S
C2775 C2774 1.387 . S
C2775 C2777 1.387 . S
H2776 C2783 0.950 . S
C2777 C2775 1.387 . S
C2777 C2779 1.390 . S
C2777 H2781 0.950 . S
H2778 C2774 0.950 . S
C2779 C2777 1.390 . S
C2779 C2780 1.387 . S
C2779 H2782 0.950 . S
C2780 C2779 1.387 . S
C2780 C2783 1.387 . S
H2781 C2777 0.950 . S
H2782 C2779 0.950 . S
C2783 C2774 1.390 . S
C2783 H2776 0.950 . S
C2783 C2780 1.387 . S
C2784 C2785 1.387 . S
C2784 H2788 0.950 . S
C2784 C2793 1.390 . S
C2785 C2784 1.387 . S
C2785 C2787 1.387 . S
H2786 C2793 0.950 . S
C2787 C2785 1.387 . S
C2787 C2789 1.390 . S
C2787 H2791 0.950 . S
H2788 C2784 0.950 . S
C2789 C2787 1.390 . S
C2789 C2790 1.387 . S
C2789 H2792 0.950 . S
C2790 C2789 1.387 . S
C2790 C2793 1.387 . S
H2791 C2787 0.950 . S
H2792 C2789 0.950 . S
C2793 C2784 1.390 . S
C2793 H2786 0.950 . S
C2793 C2790 1.387 . S
C2794 C2795 1.387 . S
C2794 H2798 0.950 . S
C2794 C2803 1.390 . S
C2795 C2794 1.387 . S
C2795 C2797 1.387 . S
H2796 C2803 0.950 . S
C2797 C2795 1.387 . S
C2797 C2799 1.390 . S
C2797 H2801 0.950 . S
H2798 C2794 0.950 . S
C2799 C2797 1.390 . S
C2799 C2800 1.387 . S
C2799 H2802 0.950 . S
C2800 C2799 1.387 . S
C2800 C2803 1.387 . S
H2801 C2797 0.950 . S
H2802 C2799 0.950 . S
C2803 C2794 1.390 . S
C2803 H2796 0.950 . S
C2803 C2800 1.387 . S
C2804 C2805 1.387 . S
C2804 H2808 0.950 . S
C2804 C2813 1.390 . S
C2805 C2804 1.387 . S
C2805 C2807 1.387 . S
H2806 C2813 0.950 . S
C2807 C2805 1.387 . S
C2807 C2809 1.390 . S
C2807 H2811 0.950 . S
H2808 C2804 0.950 . S
C2809 C2807 1.390 . S
C2809 C2810 1.387 . S
C2809 H2812 0.950 . S
C2810 C2809 1.387 . S
C2810 C2813 1.387 . S
H2811 C2807 0.950 . S
H2812 C2809 0.950 . S
C2813 C2804 1.390 . S
C2813 H2806 0.950 . S
C2813 C2810 1.387 . S
C2814 C2815 1.387 . S
C2814 H2818 0.950 . S
C2814 C2823 1.390 . S
C2815 C2814 1.387 . S
C2815 C2817 1.387 . S
H2816 C2823 0.950 . S
C2817 C2815 1.387 . S
C2817 C2819 1.390 . S
C2817 H2821 0.950 . S
H2818 C2814 0.950 . S
C2819 C2817 1.390 . S
C2819 C2820 1.387 . S
C2819 H2822 0.950 . S
C2820 C2819 1.387 . S
C2820 C2823 1.387 . S
H2821 C2817 0.950 . S
H2822 C2819 0.950 . S
C2823 C2814 1.390 . S
C2823 H2816 0.950 . S
C2823 C2820 1.387 . S
C2824 C2825 1.387 . S
C2824 H2828 0.950 . S
C2824 C2833 1.390 . S
C2825 C2824 1.387 . S
C2825 C2827 1.387 . S
H2826 C2833 0.950 . S
C2827 C2825 1.387 . S
C2827 C2829 1.390 . S
C2827 H2831 0.950 . S
H2828 C2824 0.950 . S
C2829 C2827 1.390 . S
C2829 C2830 1.387 . S
C2829 H2832 0.950 . S
C2830 C2829 1.387 . S
C2830 C2833 1.387 . S
H2831 C2827 0.950 . S
H2832 C2829 0.950 . S
C2833 C2824 1.390 . S
C2833 H2826 0.950 . S
C2833 C2830 1.387 . S
C2834 C2835 1.387 . S
C2834 H2838 0.950 . S
C2834 C2843 1.390 . S
C2835 C2834 1.387 . S
C2835 C2837 1.387 . S
H2836 C2843 0.950 . S
C2837 C2835 1.387 . S
C2837 C2839 1.390 . S
C2837 H2841 0.950 . S
H2838 C2834 0.950 . S
C2839 C2837 1.390 . S
C2839 C2840 1.387 . S
C2839 H2842 0.950 . S
C2840 C2839 1.387 . S
C2840 C2843 1.387 . S
H2841 C2837 0.950 . S
H2842 C2839 0.950 . S
C2843 C2834 1.390 . S
C2843 H2836 0.950 . S
C2843 C2840 1.387 . S
C2844 C2845 1.387 . S
C2844 H2848 0.950 . S
C2844 C2853 1.390 . S
C2845 C2844 1.387 . S
C2845 C2847 1.387 . S
H2846 C2853 0.950 . S
C2847 C2845 1.387 . S
C2847 C2849 1.390 . S
C2847 H2851 0.950 . S
H2848 C2844 0.950 . S
C2849 C2847 1.390 . S
C2849 C2850 1.387 . S
C2849 H2852 0.950 . S
C2850 C2849 1.387 . S
C2850 C2853 1.387 . S
H2851 C2847 0.950 . S
H2852 C2849 0.950 . S
C2853 C2844 1.390 . S
C2853 H2846 0.950 . S
C2853 C2850 1.387 . S
C2854 C2855 1.387 . S
C2854 H2858 0.950 . S
C2854 C2863 1.390 . S
C2855 C2854 1.387 . S
C2855 C2857 1.387 . S
H2856 C2863 0.950 . S
C2857 C2855 1.387 . S
C2857 C2859 1.390 . S
C2857 H2861 0.950 . S
H2858 C2854 0.950 . S
C2859 C2857 1.390 . S
C2859 C2860 1.387 . S
C2859 H2862 0.950 . S
C2860 C2859 1.387 . S
C2860 C2863 1.387 . S
H2861 C2857 0.950 . S
H2862 C2859 0.950 . S
C2863 C2854 1.390 . S
C2863 H2856 0.950 . S
C2863 C2860 1.387 . S
C2864 C2865 1.387 . S
C2864 H2868 0.950 . S
C2864 C2873 1.390 . S
C2865 C2864 1.387 . S
C2865 C2867 1.387 . S
H2866 C2873 0.950 . S
C2867 C2865 1.387 . S
C2867 C2869 1.390 . S
C2867 H2871 0.950 . S
H2868 C2864 0.950 . S
C2869 C2867 1.390 . S
C2869 C2870 1.387 . S
C2869 H2872 0.950 . S
C2870 C2869 1.387 . S
C2870 C2873 1.387 . S
H2871 C2867 0.950 . S
H2872 C2869 0.950 . S
C2873 C2864 1.390 . S
C2873 H2866 0.950 . S
C2873 C2870 1.387 . S
C2874 C2875 1.387 . S
C2874 H2878 0.950 . S
C2874 C2883 1.390 . S
C2875 C2874 1.387 . S
C2875 C2877 1.387 . S
H2876 C2883 0.950 . S
C2877 C2875 1.387 . S
C2877 C2879 1.390 . S
C2877 H2881 0.950 . S
H2878 C2874 0.950 . S
C2879 C2877 1.390 . S
C2879 C2880 1.387 . S
C2879 H2882 0.950 . S
C2880 C2879 1.387 . S
C2880 C2883 1.387 . S
H2881 C2877 0.950 . S
H2882 C2879 0.950 . S
C2883 C2874 1.390 . S
C2883 H2876 0.950 . S
C2883 C2880 1.387 . S
C2884 C2885 1.387 . S
C2884 H2888 0.950 . S
C2884 C2893 1.390 . S
C2885 C2884 1.387 . S
C2885 C2887 1.387 . S
H2886 C2893 0.950 . S
C2887 C2885 1.387 . S
C2887 C2889 1.390 . S
C2887 H2891 0.950 . S
H2888 C2884 0.950 . S
C2889 C2887 1.390 . S
C2889 C2890 1.387 . S
C2889 H2892 0.950 . S
C2890 C2889 1.387 . S
C2890 C2893 1.387 . S
H2891 C2887 0.950 . S
H2892 C2889 0.950 . S
C2893 C2884 1.390 . S
C2893 H2886 0.950 . S
C2893 C2890 1.387 . S
C2894 C2895 1.387 . S
C2894 H2898 0.950 . S
C2894 C2903 1.390 . S
C2895 C2894 1.387 . S
C2895 C2897 1.387 . S
H2896 C2903 0.950 . S
C2897 C2895 1.387 . S
C2897 C2899 1.390 . S
C2897 H2901 0.950 . S
H2898 C2894 0.950 . S
C2899 C2897 1.390 . S
C2899 C2900 1.387 . S
C2899 H2902 0.950 . S
C2900 C2899 1.387 . S
C2900 C2903 1.387 . S
H2901 C2897 0.950 . S
H2902 C2899 0.950 . S
C2903 C2894 1.390 . S
C2903 H2896 0.950 . S
C2903 C2900 1.387 . S
C2904 C2905 1.387 . S
C2904 H2908 0.950 . S
C2904 C2913 1.390 . S
C2905 C2904 1.387 . S
C2905 C2907 1.387 . S
H2906 C2913 0.950 . S
C2907 C2905 1.387 . S
C2907 C2909 1.390 . S
C2907 H2911 0.950 . S
H2908 C2904 0.950 . S
C2909 C2907 1.390 . S
C2909 C2910 1.387 . S
C2909 H2912 0.950 . S
C2910 C2909 1.387 . S
C2910 C2913 1.387 . S
H2911 C2907 0.950 . S
H2912 C2909 0.950 . S
C2913 C2904 1.390 . S
C2913 H2906 0.950 . S
C2913 C2910 1.387 . S
C2914 C2915 1.387 . S
C2914 H2918 0.950 . S
C2914 C2923 1.390 . S
C2915 C2914 1.387 . S
C2915 C2917 1.387 . S
H2916 C2923 0.950 . S
C2917 C2915 1.387 . S
C2917 C2919 1.390 . S
C2917 H2921 0.950 . S
H2918 C2914 0.950 . S
C2919 C2917 1.390 . S
C2919 C2920 1.387 . S
C2919 H2922 0.950 . S
C2920 C2919 1.387 . S
C2920 C2923 1.387 . S
H2921 C2917 0.950 . S
H2922 C2919 0.950 . S
C2923 C2914 1.390 . S
C2923 H2916 0.950 . S
C2923 C2920 1.387 . S
C2924 C2925 1.387 . S
C2924 H2928 0.950 . S
C2924 C2933 1.390 . S
C2925 C2924 1.387 . S
C2925 C2927 1.387 . S
H2926 C2933 0.950 . S
C2927 C2925 1.387 . S
C2927 C2929 1.390 . S
C2927 H2931 0.950 . S
H2928 C2924 0.950 . S
C2929 C2927 1.390 . S
C2929 C2930 1.387 . S
C2929 H2932 0.950 . S
C2930 C2929 1.387 . S
C2930 C2933 1.387 . S
H2931 C2927 0.950 . S
H2932 C2929 0.950 . S
C2933 C2924 1.390 . S
C2933 H2926 0.950 . S
C2933 C2930 1.387 . S
C2934 C2935 1.387 . S
C2934 H2938 0.950 . S
C2934 C2943 1.390 . S
C2935 C2934 1.387 . S
C2935 C2937 1.387 . S
H2936 C2943 0.950 . S
C2937 C2935 1.387 . S
C2937 C2939 1.390 . S
C2937 H2941 0.950 . S
H2938 C2934 0.950 . S
C2939 C2937 1.390 . S
C2939 C2940 1.387 . S
C2939 H2942 0.950 . S
C2940 C2939 1.387 . S
C2940 C2943 1.387 . S
H2941 C2937 0.950 . S
H2942 C2939 0.950 . S
C2943 C2934 1.390 . S
C2943 H2936 0.950 . S
C2943 C2940 1.387 . S
C2944 C2945 1.387 . S
C2944 H2948 0.950 . S
C2944 C2953 1.390 . S
C2945 C2944 1.387 . S
C2945 C2947 1.387 . S
H2946 C2953 0.950 . S
C2947 C2945 1.387 . S
C2947 C2949 1.390 . S
C2947 H2951 0.950 . S
H2948 C2944 0.950 . S
C2949 C2947 1.390 . S
C2949 C2950 1.387 . S
C2949 H2952 0.950 . S
C2950 C2949 1.387 . S
C2950 C2953 1.387 . S
H2951 C2947 0.950 . S
H2952 C2949 0.950 . S
C2953 C2944 1.390 . S
C2953 H2946 0.950 . S
C2953 C2950 1.387 . S
C2954 C2955 1.387 . S
C2954 H2958 0.950 . S
C2954 C2963 1.390 . S
C2955 C2954 1.387 . S
C2955 C2957 1.387 . S
H2956 C2963 0.950 . S
C2957 C2955 1.387 . S
C2957 C2959 1.390 . S
C2957 H2961 0.950 . S
H2958 C2954 0.950 . S
C2959 C2957 1.390 . S
C2959 C2960 1.387 . S
C2959 H2962 0.950 . S
C2960 C2959 1.387 . S
C2960 C2963 1.387 . S
H2961 C2957 0.950 . S
H2962 C2959 0.950 . S
C2963 C2954 1.390 . S
C2963 H2956 0.950 . S
C2963 C2960 1.387 . S
C2964 C2965 1.387 . S
C2964 H2968 0.950 . S
C2964 C2973 1.390 . S
C2965 C2964 1.387 . S
C2965 C2967 1.387 . S
H2966 C2973 0.950 . S
C2967 C2965 1.387 . S
C2967 C2969 1.390 . S
C2967 H2971 0.950 . S
H2968 C2964 0.950 . S
C2969 C2967 1.390 . S
C2969 C2970 1.387 . S
C2969 H2972 0.950 . S
C2970 C2969 1.387 . S
C2970 C2973 1.387 . S
H2971 C2967 0.950 . S
H2972 C2969 0.950 . S
C2973 C2964 1.390 . S
C2973 H2966 0.950 . S
C2973 C2970 1.387 . S
C2974 C2975 1.387 . S
C2974 H2978 0.950 . S
C2974 C2983 1.390 . S
C2975 C2974 1.387 . S
C2975 C2977 1.387 . S
H2976 C2983 0.950 . S
C2977 C2975 1.387 . S
C2977 C2979 1.390 . S
C2977 H2981 0.950 . S
H2978 C2974 0.950 . S
C2979 C2977 1.390 . S
C2979 C2980 1.387 . S
C2979 H2982 0.950 . S
C2980 C2979 1.387 . S
C2980 C2983 1.387 . S
H2981 C2977 0.950 . S
H2982 C2979 0.950 . S
C2983 C2974 1.390 . S
C2983 H2976 0.950 . S
C2983 C2980 1.387 . S
C2984 C2985 1.387 . S
C2984 H2988 0.950 . S
C2984 C2993 1.390 . S
C2985 C2984 1.387 . S
C2985 C2987 1.387 . S
H2986 C2993 0.950 . S
C2987 C2985 1.387 . S
C2987 C2989 1.390 . S
C2987 H2991 0.950 . S
H2988 C2984 0.950 . S
C2989 C2987 1.390 . S
C2989 C2990 1.387 . S
C2989 H2992 0.950 . S
C2990 C2989 1.387 . S
C2990 C2993 1.387 . S
H2991 C2987 0.950 . S
H2992 C2989 0.950 . S
C2993 C2984 1.390 . S
C2993 H2986 0.950 . S
C2993 C2990 1.387 . S
C2994 C2995 1.387 . S
C2994 H2998 0.950 . S
C2994 C3003 1.390 . S
C2995 C2994 1.387 . S
C2995 C2997 1.387 . S
H2996 C3003 0.950 . S
C2997 C2995 1.387 . S
C2997 C2999 1.390 . S
C2997 H3001 0.950 . S
H2998 C2994 0.950 . S
C2999 C2997 1.390 . S
C2999 C3000 1.387 . S
C2999 H3002 0.950 . S
C3000 C2999 1.387 . S
C3000 C3003 1.387 . S
H3001 C2997 0.950 . S
H3002 C2999 0.950 . S
C3003 C2994 1.390 . S
C3003 H2996 0.950 . S
C3003 C3000 1.387 . S
C3004 C3005 1.387 . S
C3004 H3008 0.950 . S
C3004 C3013 1.390 . S
C3005 C3004 1.387 . S
C3005 C3007 1.387 . S
H3006 C3013 0.950 . S
C3007 C3005 1.387 . S
C3007 C3009 1.390 . S
C3007 H3011 0.950 . S
H3008 C3004 0.950 . S
C3009 C3007 1.390 . S
C3009 C3010 1.387 . S
C3009 H3012 0.950 . S
C3010 C3009 1.387 . S
C3010 C3013 1.387 . S
H3011 C3007 0.950 . S
H3012 C3009 0.950 . S
C3013 C3004 1.390 . S
C3013 H3006 0.950 . S
C3013 C3010 1.387 . S
C3014 C3015 1.387 . S
C3014 H3018 0.950 . S
C3014 C3023 1.390 . S
C3015 C3014 1.387 . S
C3015 C3017 1.387 . S
H3016 C3023 0.950 . S
C3017 C3015 1.387 . S
C3017 C3019 1.390 . S
C3017 H3021 0.950 . S
H3018 C3014 0.950 . S
C3019 C3017 1.390 . S
C3019 C3020 1.387 . S
C3019 H3022 0.950 . S
C3020 C3019 1.387 . S
C3020 C3023 1.387 . S
H3021 C3017 0.950 . S
H3022 C3019 0.950 . S
C3023 C3014 1.390 . S
C3023 H3016 0.950 . S
C3023 C3020 1.387 . S
C3024 C3025 1.387 . S
C3024 H3028 0.950 . S
C3024 C3033 1.390 . S
C3025 C3024 1.387 . S
C3025 C3027 1.387 . S
H3026 C3033 0.950 . S
C3027 C3025 1.387 . S
C3027 C3029 1.390 . S
C3027 H3031 0.950 . S
H3028 C3024 0.950 . S
C3029 C3027 1.390 . S
C3029 C3030 1.387 . S
C3029 H3032 0.950 . S
C3030 C3029 1.387 . S
C3030 C3033 1.387 . S
H3031 C3027 0.950 . S
H3032 C3029 0.950 . S
C3033 C3024 1.390 . S
C3033 H3026 0.950 . S
C3033 C3030 1.387 . S
C3034 C3035 1.387 . S
C3034 H3038 0.950 . S
C3034 C3043 1.390 . S
C3035 C3034 1.387 . S
C3035 C3037 1.387 . S
H3036 C3043 0.950 . S
C3037 C3035 1.387 . S
C3037 C3039 1.390 . S
C3037 H3041 0.950 . S
H3038 C3034 0.950 . S
C3039 C3037 1.390 . S
C3039 C3040 1.387 . S
C3039 H3042 0.950 . S
C3040 C3039 1.387 . S
C3040 C3043 1.387 . S
H3041 C3037 0.950 . S
H3042 C3039 0.950 . S
C3043 C3034 1.390 . S
C3043 H3036 0.950 . S
C3043 C3040 1.387 . S
C3044 C3045 1.387 . S
C3044 H3048 0.950 . S
C3044 C3053 1.390 . S
C3045 C3044 1.387 . S
C3045 C3047 1.387 . S
H3046 C3053 0.950 . S
C3047 C3045 1.387 . S
C3047 C3049 1.390 . S
C3047 H3051 0.950 . S
H3048 C3044 0.950 . S
C3049 C3047 1.390 . S
C3049 C3050 1.387 . S
C3049 H3052 0.950 . S
C3050 C3049 1.387 . S
C3050 C3053 1.387 . S
H3051 C3047 0.950 . S
H3052 C3049 0.950 . S
C3053 C3044 1.390 . S
C3053 H3046 0.950 . S
C3053 C3050 1.387 . S
C3054 C3055 1.387 . S
C3054 H3058 0.950 . S
C3054 C3063 1.390 . S
C3055 C3054 1.387 . S
C3055 C3057 1.387 . S
H3056 C3063 0.950 . S
C3057 C3055 1.387 . S
C3057 C3059 1.390 . S
C3057 H3061 0.950 . S
H3058 C3054 0.950 . S
C3059 C3057 1.390 . S
C3059 C3060 1.387 . S
C3059 H3062 0.950 . S
C3060 C3059 1.387 . S
C3060 C3063 1.387 . S
H3061 C3057 0.950 . S
H3062 C3059 0.950 . S
C3063 C3054 1.390 . S
C3063 H3056 0.950 . S
C3063 C3060 1.387 . S
C3064 C3065 1.387 . S
C3064 H3068 0.950 . S
C3064 C3073 1.390 . S
C3065 C3064 1.387 . S
C3065 C3067 1.387 . S
H3066 C3073 0.950 . S
C3067 C3065 1.387 . S
C3067 C3069 1.390 . S
C3067 H3071 0.950 . S
H3068 C3064 0.950 . S
C3069 C3067 1.390 . S
C3069 C3070 1.387 . S
C3069 H3072 0.950 . S
C3070 C3069 1.387 . S
C3070 C3073 1.387 . S
H3071 C3067 0.950 . S
H3072 C3069 0.950 . S
C3073 C3064 1.390 . S
C3073 H3066 0.950 . S
C3073 C3070 1.387 . S
C3074 C3075 1.387 . S
C3074 H3078 0.950 . S
C3074 C3083 1.390 . S
C3075 C3074 1.387 . S
C3075 C3077 1.387 . S
H3076 C3083 0.950 . S
C3077 C3075 1.387 . S
C3077 C3079 1.390 . S
C3077 H3081 0.950 . S
H3078 C3074 0.950 . S
C3079 C3077 1.390 . S
C3079 C3080 1.387 . S
C3079 H3082 0.950 . S
C3080 C3079 1.387 . S
C3080 C3083 1.387 . S
H3081 C3077 0.950 . S
H3082 C3079 0.950 . S
C3083 C3074 1.390 . S
C3083 H3076 0.950 . S
C3083 C3080 1.387 . S
C3084 C3085 1.387 . S
C3084 H3088 0.950 . S
C3084 C3093 1.390 . S
C3085 C3084 1.387 . S
C3085 C3087 1.387 . S
H3086 C3093 0.950 . S
C3087 C3085 1.387 . S
C3087 C3089 1.390 . S
C3087 H3091 0.950 . S
H3088 C3084 0.950 . S
C3089 C3087 1.390 . S
C3089 C3090 1.387 . S
C3089 H3092 0.950 . S
C3090 C3089 1.387 . S
C3090 C3093 1.387 . S
H3091 C3087 0.950 . S
H3092 C3089 0.950 . S
C3093 C3084 1.390 . S
C3093 H3086 0.950 . S
C3093 C3090 1.387 . S
C3094 C3095 1.387 . S
C3094 H3098 0.950 . S
C3094 C3103 1.390 . S
C3095 C3094 1.387 . S
C3095 C3097 1.387 . S
H3096 C3103 0.950 . S
C3097 C3095 1.387 . S
C3097 C3099 1.390 . S
C3097 H3101 0.950 . S
H3098 C3094 0.950 . S
C3099 C3097 1.390 . S
C3099 C3100 1.387 . S
C3099 H3102 0.950 . S
C3100 C3099 1.387 . S
C3100 C3103 1.387 . S
H3101 C3097 0.950 . S
H3102 C3099 0.950 . S
C3103 C3094 1.390 . S
C3103 H3096 0.950 . S
C3103 C3100 1.387 . S
C3104 C3105 1.387 . S
C3104 H3108 0.950 . S
C3104 C3113 1.390 . S
C3105 C3104 1.387 . S
C3105 C3107 1.387 . S
H3106 C3113 0.950 . S
C3107 C3105 1.387 . S
C3107 C3109 1.390 . S
C3107 H3111 0.950 . S
H3108 C3104 0.950 . S
C3109 C3107 1.390 . S
C3109 C3110 1.387 . S
C3109 H3112 0.950 . S
C3110 C3109 1.387 . S
C3110 C3113 1.387 . S
H3111 C3107 0.950 . S
H3112 C3109 0.950 . S
C3113 C3104 1.390 . S
C3113 H3106 0.950 . S
C3113 C3110 1.387 . S
C3114 C3115 1.387 . S
C3114 H3118 0.950 . S
C3114 C3123 1.390 . S
C3115 C3114 1.387 . S
C3115 C3117 1.387 . S
H3116 C3123 0.950 . S
C3117 C3115 1.387 . S
C3117 C3119 1.390 . S
C3117 H3121 0.950 . S
H3118 C3114 0.950 . S
C3119 C3117 1.390 . S
C3119 C3120 1.387 . S
C3119 H3122 0.950 . S
C3120 C3119 1.387 . S
C3120 C3123 1.387 . S
H3121 C3117 0.950 . S
H3122 C3119 0.950 . S
C3123 C3114 1.390 . S
C3123 H3116 0.950 . S
C3123 C3120 1.387 . S
C3124 C3125 1.387 . S
C3124 H3128 0.950 . S
C3124 C3133 1.390 . S
C3125 C3124 1.387 . S
C3125 C3127 1.387 . S
H3126 C3133 0.950 . S
C3127 C3125 1.387 . S
C3127 C3129 1.390 . S
C3127 H3131 0.950 . S
H3128 C3124 0.950 . S
C3129 C3127 1.390 . S
C3129 C3130 1.387 . S
C3129 H3132 0.950 . S
C3130 C3129 1.387 . S
C3130 C3133 1.387 . S
H3131 C3127 0.950 . S
H3132 C3129 0.950 . S
C3133 C3124 1.390 . S
C3133 H3126 0.950 . S
C3133 C3130 1.387 . S
C3134 C3135 1.387 . S
C3134 H3138 0.950 . S
C3134 C3143 1.390 . S
C3135 C3134 1.387 . S
C3135 C3137 1.387 . S
H3136 C3143 0.950 . S
C3137 C3135 1.387 . S
C3137 C3139 1.390 . S
C3137 H3141 0.950 . S
H3138 C3134 0.950 . S
C3139 C3137 1.390 . S
C3139 C3140 1.387 . S
C3139 H3142 0.950 . S
C3140 C3139 1.387 . S
C3140 C3143 1.387 . S
H3141 C3137 0.950 . S
H3142 C3139 0.950 . S
C3143 C3134 1.390 . S
C3143 H3136 0.950 . S
C3143 C3140 1.387 . S
C3144 C3145 1.387 . S
C3144 H3148 0.950 . S
C3144 C3153 1.390 . S
C3145 C3144 1.387 . S
C3145 C3147 1.387 . S
H3146 C3153 0.950 . S
C3147 C3145 1.387 . S
C3147 C3149 1.390 . S
C3147 H3151 0.950 . S
H3148 C3144 0.950 . S
C3149 C3147 1.390 . S
C3149 C3150 1.387 . S
C3149 H3152 0.950 . S
C3150 C3149 1.387 . S
C3150 C3153 1.387 . S
H3151 C3147 0.950 . S
H3152 C3149 0.950 . S
C3153 C3144 1.390 . S
C3153 H3146 0.950 . S
C3153 C3150 1.387 . S
C3154 C3155 1.387 . S
C3154 H3158 0.950 . S
C3154 C3163 1.390 . S
C3155 C3154 1.387 . S
C3155 C3157 1.387 . S
H3156 C3163 0.950 . S
C3157 C3155 1.387 . S
C3157 C3159 1.390 . S
C3157 H3161 0.950 . S
H3158 C3154 0.950 . S
C3159 C3157 1.390 . S
C3159 C3160 1.387 . S
C3159 H3162 0.950 . S
C3160 C3159 1.387 . S
C3160 C3163 1.387 . S
H3161 C3157 0.950 . S
H3162 C3159 0.950 . S
C3163 C3154 1.390 . S
C3163 H3156 0.950 . S
C3163 C3160 1.387 . S
C3164 C3165 1.387 . S
C3164 H3168 0.950 . S
C3164 C3173 1.390 . S
C3165 C3164 1.387 . S
C3165 C3167 1.387 . S
H3166 C3173 0.950 . S
C3167 C3165 1.387 . S
C3167 C3169 1.390 . S
C3167 H3171 0.950 . S
H3168 C3164 0.950 . S
C3169 C3167 1.390 . S
C3169 C3170 1.387 . S
C3169 H3172 0.950 . S
C3170 C3169 1.387 . S
C3170 C3173 1.387 . S
H3171 C3167 0.950 . S
H3172 C3169 0.950 . S
C3173 C3164 1.390 . S
C3173 H3166 0.950 . S
C3173 C3170 1.387 . S
C3174 C3175 1.387 . S
C3174 H3178 0.950 . S
C3174 C3183 1.390 . S
C3175 C3174 1.387 . S
C3175 C3177 1.387 . S
H3176 C3183 0.950 . S
C3177 C3175 1.387 . S
C3177 C3179 1.390 . S
C3177 H3181 0.950 . S
H3178 C3174 0.950 . S
C3179 C3177 1.390 . S
C3179 C3180 1.387 . S
C3179 H3182 0.950 . S
C3180 C3179 1.387 . S
C3180 C3183 1.387 . S
H3181 C3177 0.950 . S
H3182 C3179 0.950 . S
C3183 C3174 1.390 . S
C3183 H3176 0.950 . S
C3183 C3180 1.387 . S
C3184 C3185 1.387 . S
C3184 H3188 0.950 . S
C3184 C3193 1.390 . S
C3185 C3184 1.387 . S
C3185 C3187 1.387 . S
H3186 C3193 0.950 . S
C3187 C3185 1.387 . S
C3187 C3189 1.390 . S
C3187 H3191 0.950 . S
H3188 C3184 0.950 . S
C3189 C3187 1.390 . S
C3189 C3190 1.387 . S
C3189 H3192 0.950 . S
C3190 C3189 1.387 . S
C3190 C3193 1.387 . S
H3191 C3187 0.950 . S
H3192 C3189 0.950 . S
C3193 C3184 1.390 . S
C3193 H3186 0.950 . S
C3193 C3190 1.387 . S
C3194 C3195 1.387 . S
C3194 H3198 0.950 . S
C3194 C3203 1.390 . S
C3195 C3194 1.387 . S
C3195 C3197 1.387 . S
H3196 C3203 0.950 . S
C3197 C3195 1.387 . S
C3197 C3199 1.390 . S
C3197 H3201 0.950 . S
H3198 C3194 0.950 . S
C3199 C3197 1.390 . S
C3199 C3200 1.387 . S
C3199 H3202 0.950 . S
C3200 C3199 1.387 . S
C3200 C3203 1.387 . S
H3201 C3197 0.950 . S
H3202 C3199 0.950 . S
C3203 C3194 1.390 . S
C3203 H3196 0.950 . S
C3203 C3200 1.387 . S
C3204 C3205 1.387 . S
C3204 H3208 0.950 . S
C3204 C3213 1.390 . S
C3205 C3204 1.387 . S
C3205 C3207 1.387 . S
H3206 C3213 0.950 . S
C3207 C3205 1.387 . S
C3207 C3209 1.390 . S
C3207 H3211 0.950 . S
H3208 C3204 0.950 . S
C3209 C3207 1.390 . S
C3209 C3210 1.387 . S
C3209 H3212 0.950 . S
C3210 C3209 1.387 . S
C3210 C3213 1.387 . S
H3211 C3207 0.950 . S
H3212 C3209 0.950 . S
C3213 C3204 1.390 . S
C3213 H3206 0.950 . S
C3213 C3210 1.387 . S
C3214 C3215 1.387 . S
C3214 H3218 0.950 . S
C3214 C3223 1.390 . S
C3215 C3214 1.387 . S
C3215 C3217 1.387 . S
H3216 C3223 0.950 . S
C3217 C3215 1.387 . S
C3217 C3219 1.390 . S
C3217 H3221 0.950 . S
H3218 C3214 0.950 . S
C3219 C3217 1.390 . S
C3219 C3220 1.387 . S
C3219 H3222 0.950 . S
C3220 C3219 1.387 . S
C3220 C3223 1.387 . S
H3221 C3217 0.950 . S
H3222 C3219 0.950 . S
C3223 C3214 1.390 . S
C3223 H3216 0.950 . S
C3223 C3220 1.387 . S
C3224 C3225 1.387 . S
C3224 H3228 0.950 . S
C3224 C3233 1.390 . S
C3225 C3224 1.387 . S
C3225 C3227 1.387 . S
H3226 C3233 0.950 . S
C3227 C3225 1.387 . S
C3227 C3229 1.390 . S
C3227 H3231 0.950 . S
H3228 C3224 0.950 . S
C3229 C3227 1.390 . S
C3229 C3230 1.387 . S
C3229 H3232 0.950 . S
C3230 C3229 1.387 . S
C3230 C3233 1.387 . S
H3231 C3227 0.950 . S
H3232 C3229 0.950 . S
C3233 C3224 1.390 . S
C3233 H3226 0.950 . S
C3233 C3230 1.387 . S
C3234 C3235 1.387 . S
C3234 H3238 0.950 . S
C3234 C3243 1.390 . S
C3235 C3234 1.387 . S
C3235 C3237 1.387 . S
H3236 C3243 0.950 . S
C3237 C3235 1.387 . S
C3237 C3239 1.390 . S
C3237 H3241 0.950 . S
H3238 C3234 0.950 . S
C3239 C3237 1.390 . S
C3239 C3240 1.387 . S
C3239 H3242 0.950 . S
C3240 C3239 1.387 . S
C3240 C3243 1.387 . S
H3241 C3237 0.950 . S
H3242 C3239 0.950 . S
C3243 C3234 1.390 . S
C3243 H3236 0.950 . S
C3243 C3240 1.387 . S
C3244 C3245 1.387 . S
C3244 H3248 0.950 . S
C3244 C3253 1.390 . S
C3245 C3244 1.387 . S
C3245 C3247 1.387 . S
H3246 C3253 0.950 . S
C3247 C3245 1.387 . S
C3247 C3249 1.390 . S
C3247 H3251 0.950 . S
H3248 C3244 0.950 . S
C3249 C3247 1.390 . S
C3249 C3250 1.387 . S
C3249 H3252 0.950 . S
C3250 C3249 1.387 . S
C3250 C3253 1.387 . S
H3251 C3247 0.950 . S
H3252 C3249 0.950 . S
C3253 C3244 1.390 . S
C3253 H3246 0.950 . S
C3253 C3250 1.387 . S
C3254 C3255 1.387 . S
C3254 H3258 0.950 . S
C3254 C3263 1.390 . S
C3255 C3254 1.387 . S
C3255 C3257 1.387 . S
H3256 C3263 0.950 . S
C3257 C3255 1.387 . S
C3257 C3259 1.390 . S
C3257 H3261 0.950 . S
H3258 C3254 0.950 . S
C3259 C3257 1.390 . S
C3259 C3260 1.387 . S
C3259 H3262 0.950 . S
C3260 C3259 1.387 . S
C3260 C3263 1.387 . S
H3261 C3257 0.950 . S
H3262 C3259 0.950 . S
C3263 C3254 1.390 . S
C3263 H3256 0.950 . S
C3263 C3260 1.387 . S
C1345 C1 1.680 . S
C1350 C1051 1.668 . S
C1355 C348 1.669 . S
C1360 C26 1.681 . S
C1365 C1023 1.670 . S
C1370 C41 1.679 . S
C1375 C364 1.667 . S
C1380 C54 1.681 . S
C1385 C69 1.680 . S
C1390 C1079 1.670 . S
C1395 C82 1.682 . S
C1400 C432 1.668 . S
C1405 C1107 1.670 . S
C1410 C97 1.680 . S
C1415 C110 1.681 . S
C1420 C404 1.667 . S
C1425 C125 1.679 . S
C1430 C1261 1.670 . S
C1435 C603 1.670 . S
C1440 C139 1.680 . S
C1445 C153 1.680 . S
C1450 C617 1.669 . S
C1455 C155 1.680 . S
C1460 C575 1.670 . S
C1465 C181 1.680 . S
C1470 C1328 1.667 . S
C1475 C183 1.680 . S
C1480 C1233 1.668 . S
C1485 C197 1.680 . S
C1490 C1342 1.667 . S
C1495 C223 1.680 . S
C1500 C1303 1.668 . S
C1505 C1134 1.669 . S
C1510 C236 1.682 . S
C1515 C250 1.681 . S
C1520 C558 1.667 . S
C1525 C264 1.681 . S
C1530 C1188 1.669 . S
C1535 C530 1.667 . S
C1540 C278 1.682 . S
C1545 C280 1.681 . S
C1550 C532 1.668 . S
C1555 C1162 1.669 . S
C1560 C306 1.682 . S
C1565 C309 1.679 . S
C1570 C1133 1.669 . S
C1575 C1160 1.668 . S
C1580 C334 1.682 . S
C1585 C714 1.669 . S
C1590 C336 1.679 . S
C1595 C13 1.667 . S
C1600 C363 1.681 . S
C1605 C376 1.680 . S
C1610 C686 1.668 . S
C1615 C391 1.681 . S
C1620 C29 1.667 . S
C1625 C392 1.680 . S
C1630 C742 1.670 . S
C1635 C85 1.668 . S
C1640 C419 1.682 . S
C1645 C420 1.680 . S
C1650 C770 1.669 . S
C1655 C447 1.681 . S
C1660 C57 1.667 . S
C1665 C449 1.681 . S
C1670 C936 1.670 . S
C1675 C266 1.670 . S
C1680 C474 1.680 . S
C1685 C477 1.682 . S
C1690 C292 1.668 . S
C1695 C238 1.670 . S
C1700 C502 1.680 . S
C1705 C504 1.681 . S
C1710 C993 1.667 . S
C1715 C518 1.679 . S
C1720 C896 1.670 . S
C1725 C544 1.679 . S
C1730 C1007 1.669 . S
C1735 C966 1.670 . S
C1740 C546 1.679 . S
C1745 C811 1.669 . S
C1750 C573 1.682 . S
C1755 C211 1.668 . S
C1760 C587 1.681 . S
C1765 C852 1.668 . S
C1770 C600 1.679 . S
C1775 C615 1.682 . S
C1780 C195 1.668 . S
C1785 C629 1.681 . S
C1790 C209 1.667 . S
C1795 C643 1.681 . S
C1800 C827 1.667 . S
C1805 C784 1.668 . S
C1810 C645 1.682 . S
C1815 C658 1.679 . S
C1820 C812 1.669 . S
C1825 C379 1.668 . S
C1830 C673 1.680 . S
C1835 C1008 1.668 . S
C1840 C698 1.682 . S
C1845 C713 1.680 . S
C1850 C351 1.670 . S
C1855 C1036 1.669 . S
C1860 C726 1.682 . S
C1865 C741 1.680 . S
C1870 C407 1.668 . S
C1875 C1092 1.668 . S
C1880 C754 1.682 . S
C1885 C769 1.680 . S
C1890 C435 1.668 . S
C1895 C1064 1.669 . S
C1900 C782 1.682 . S
C1905 C588 1.669 . S
C1910 C796 1.682 . S
C1915 C799 1.680 . S
C1920 C1275 1.669 . S
C1925 C1289 1.669 . S
C1930 C824 1.682 . S
C1935 C839 1.679 . S
C1940 C1247 1.670 . S
C1945 C657 1.668 . S
C1950 C840 1.681 . S
C1955 C867 1.679 . S
C1960 C561 1.668 . S
C1965 C670 1.667 . S
C1970 C881 1.680 . S
C1975 C631 1.670 . S
C1980 C883 1.680 . S
C1985 C462 1.669 . S
C1990 C908 1.681 . S
C1995 C1230 1.668 . S
C2000 C922 1.682 . S
C2005 C924 1.681 . S
C2010 C516 1.668 . S
C2015 C950 1.681 . S
C2020 C1202 1.667 . S
C2025 C1205 1.670 . S
C2030 C965 1.679 . S
C2035 C490 1.667 . S
C2040 C978 1.681 . S
C2045 C461 1.668 . S
C2050 C981 1.681 . S
C2055 C489 1.668 . S
C2060 C995 1.680 . S
C2065 C1020 1.681 . S
C2070 C42 1.668 . S
C2075 C1035 1.682 . S
C2080 C685 1.669 . S
C2085 C1048 1.680 . S
C2090 C14 1.668 . S
C2095 C1063 1.682 . S
C2100 C701 1.669 . S
C2105 C70 1.668 . S
C2110 C1076 1.680 . S
C2115 C757 1.667 . S
C2120 C1091 1.681 . S
C2125 C98 1.669 . S
C2130 C1104 1.679 . S
C2135 C729 1.667 . S
C2140 C1119 1.681 . S
C2145 C1121 1.682 . S
C2150 C252 1.668 . S
C2155 C938 1.670 . S
C2160 C1146 1.680 . S
C2165 C1148 1.679 . S
C2170 C953 1.668 . S
C2175 C1174 1.680 . S
C2180 C910 1.670 . S
C2185 C321 1.667 . S
C2190 C1176 1.681 . S
C2195 C224 1.670 . S
C2200 C1190 1.680 . S
C2205 C1217 1.681 . S
C2210 C322 1.669 . S
C2215 C294 1.668 . S
C2220 C1218 1.679 . S
C2225 C1245 1.681 . S
C2230 C127 1.668 . S
C2235 C1259 1.681 . S
C2240 C895 1.667 . S
C2245 C169 1.669 . S
C2250 C1273 1.681 . S
C2255 C1287 1.682 . S
C2260 C855 1.668 . S
C2265 C869 1.668 . S
C2270 C1301 1.682 . S
C2275 C1315 1.682 . S
C2280 C167 1.669 . S
C2285 C1316 1.680 . S
C2290 C113 1.667 . S
C2295 C1330 1.681 . S
C2300 C141 1.667 . S
C2305 C12 1.614 . S
C2310 C614 1.620 . S
C2315 C628 1.620 . S
C2320 C15 1.613 . S
C2325 C586 1.620 . S
C2330 C28 1.614 . S
C2335 C43 1.612 . S
C2340 C1272 1.620 . S
C2345 C56 1.613 . S
C2350 C1314 1.620 . S
C2355 C71 1.612 . S
C2360 C1317 1.621 . S
C2365 C1244 1.620 . S
C2370 C84 1.615 . S
C2375 C1331 1.621 . S
C2380 C99 1.611 . S
C2385 C377 1.621 . S
C2390 C112 1.613 . S
C2395 C126 1.614 . S
C2400 C1062 1.619 . S
C2405 C337 1.621 . S
C2410 C140 1.615 . S
C2415 C1034 1.619 . S
C2420 C166 1.615 . S
C2425 C421 1.620 . S
C2430 C168 1.614 . S
C2435 C194 1.614 . S
C2440 C1118 1.620 . S
C2445 C208 1.615 . S
C2450 C393 1.620 . S
C2455 C210 1.614 . S
C2460 C1090 1.620 . S
C2465 C225 1.612 . S
C2470 C1177 1.621 . S
C2475 C448 1.620 . S
C2480 C239 1.611 . S
C2485 C253 1.613 . S
C2490 C1147 1.621 . S
C2495 C267 1.613 . S
C2500 C476 1.619 . S
C2505 C293 1.611 . S
C2510 C503 1.621 . S
C2515 C295 1.611 . S
C2520 C1216 1.620 . S
C2525 C1219 1.621 . S
C2530 C320 1.613 . S
C2535 C1191 1.620 . S
C2540 C323 1.612 . S
C2545 C279 1.620 . S
C2550 C349 1.614 . S
C2555 C350 1.613 . S
C2560 C281 1.619 . S
C2565 C365 1.613 . S
C2570 C251 1.619 . S
C2575 C378 1.613 . S
C2580 C925 1.619 . S
C2585 C979 1.620 . S
C2590 C405 1.613 . S
C2595 C980 1.621 . S
C2600 C406 1.612 . S
C2605 C433 1.614 . S
C2610 C909 1.619 . S
C2615 C994 1.621 . S
C2620 C434 1.613 . S
C2625 C460 1.613 . S
C2630 C40 1.621 . S
C2635 C727 1.619 . S
C2640 C463 1.613 . S
C2645 C488 1.613 . S
C2650 C0 1.621 . S
C2655 C699 1.619 . S
C2660 C491 1.613 . S
C2665 C517 1.615 . S
C2670 C96 1.621 . S
C2675 C783 1.620 . S
C2680 C531 1.614 . S
C2685 C68 1.621 . S
C2690 C533 1.613 . S
C2695 C755 1.620 . S
C2700 C559 1.613 . S
C2705 C560 1.611 . S
C2710 C841 1.620 . S
C2715 C574 1.612 . S
C2720 C124 1.621 . S
C2725 C798 1.621 . S
C2730 C589 1.615 . S
C2735 C602 1.613 . S
C2740 C152 1.620 . S
C2745 C154 1.621 . S
C2750 C616 1.611 . S
C2755 C880 1.621 . S
C2760 C630 1.613 . S
C2765 C882 1.621 . S
C2770 C656 1.611 . S
C2775 C866 1.621 . S
C2780 C671 1.614 . S
C2785 C684 1.614 . S
C2790 C1286 1.620 . S
C2795 C687 1.611 . S
C2800 C1300 1.620 . S
C2805 C700 1.613 . S
C2810 C1258 1.620 . S
C2815 C601 1.620 . S
C2820 C715 1.612 . S
C2825 C728 1.614 . S
C2830 C642 1.620 . S
C2835 C644 1.619 . S
C2840 C743 1.612 . S
C2845 C572 1.620 . S
C2850 C756 1.614 . S
C2855 C659 1.621 . S
C2860 C771 1.611 . S
C2865 C785 1.613 . S
C2870 C1049 1.621 . S
C2875 C390 1.620 . S
C2880 C810 1.613 . S
C2885 C813 1.611 . S
C2890 C1021 1.621 . S
C2895 C826 1.614 . S
C2900 C362 1.620 . S
C2905 C853 1.613 . S
C2910 C1105 1.620 . S
C2915 C854 1.613 . S
C2920 C446 1.620 . S
C2925 C1077 1.621 . S
C2930 C868 1.615 . S
C2935 C418 1.620 . S
C2940 C894 1.613 . S
C2945 C897 1.613 . S
C2950 C505 1.620 . S
C2955 C911 1.611 . S
C2960 C1120 1.620 . S
C2965 C937 1.613 . S
C2970 C475 1.621 . S
C2975 C1149 1.621 . S
C2980 C939 1.612 . S
C2985 C952 1.613 . S
C2990 C1175 1.621 . S
C2995 C967 1.613 . S
C3000 C545 1.621 . S
C3005 C547 1.621 . S
C3010 C992 1.614 . S
C3015 C1006 1.614 . S
C3020 C519 1.621 . S
C3025 C1009 1.614 . S
C3030 C951 1.619 . S
C3035 C964 1.621 . S
C3040 C1022 1.611 . S
C3045 C923 1.620 . S
C3050 C1037 1.614 . S
C3055 C1050 1.611 . S
C3060 C265 1.620 . S
C3065 C1065 1.613 . S
C3070 C307 1.620 . S
C3075 C1078 1.612 . S
C3080 C308 1.621 . S
C3085 C237 1.619 . S
C3090 C1093 1.615 . S
C3095 C1106 1.612 . S
C3100 C335 1.620 . S
C3105 C1132 1.611 . S
C3110 C712 1.621 . S
C3115 C1135 1.614 . S
C3120 C55 1.620 . S
C3125 C1161 1.613 . S
C3130 C672 1.621 . S
C3135 C1163 1.614 . S
C3140 C27 1.620 . S
C3145 C1189 1.614 . S
C3150 C768 1.620 . S
C3155 C1203 1.613 . S
C3160 C111 1.620 . S
C3165 C1204 1.613 . S
C3170 C740 1.621 . S
C3175 C1231 1.615 . S
C3180 C83 1.619 . S
C3185 C1232 1.613 . S
C3190 C180 1.620 . S
C3195 C1246 1.612 . S
C3200 C797 1.619 . S
C3205 C1260 1.611 . S
C3210 C138 1.621 . S
C3215 C1274 1.613 . S
C3220 C825 1.619 . S
C3225 C1288 1.611 . S
C3230 C838 1.621 . S
C3235 C196 1.621 . S
C3240 C1302 1.611 . S
C3245 C1329 1.613 . S
C3250 C222 1.621 . S
C3255 C1343 1.613 . S
C3260 C182 1.621 . S
