# Generated by pormake.
# Topology umb, (4)-cn, num edge types: 1
# Building blocks:
#     Node 0, Type 0, BuildingBlock: ICAMEG_clean_sbu_1, # of connection points: 4
#     Node 1, Type 0, BuildingBlock: ICAMEG_clean_sbu_1, # of connection points: 4
#     Node 2, Type 0, BuildingBlock: ICAMEG_clean_sbu_1, # of connection points: 4
#     Node 3, Type 0, BuildingBlock: ICAMEG_clean_sbu_1, # of connection points: 4
#     Node 4, Type 0, BuildingBlock: ICAMEG_clean_sbu_1, # of connection points: 4
#     Node 5, Type 0, BuildingBlock: ICAMEG_clean_sbu_1, # of connection points: 4
#     Node 6, Type 0, BuildingBlock: ICAMEG_clean_sbu_1, # of connection points: 4
#     Node 7, Type 0, BuildingBlock: ICAMEG_clean_sbu_1, # of connection points: 4
#     Node 8, Type 0, BuildingBlock: ICAMEG_clean_sbu_1, # of connection points: 4
#     Node 9, Type 0, BuildingBlock: ICAMEG_clean_sbu_1, # of connection points: 4
#     Node 10, Type 0, BuildingBlock: ICAMEG_clean_sbu_1, # of connection points: 4
#     Node 11, Type 0, BuildingBlock: ICAMEG_clean_sbu_1, # of connection points: 4
#     Edge 12, Type (0, 0), BuildingBlock: EZIPEK_clean_linker_0, # of connection points: 2
#     Edge 13, Type (0, 0), BuildingBlock: EZIPEK_clean_linker_0, # of connection points: 2
#     Edge 14, Type (0, 0), BuildingBlock: EZIPEK_clean_linker_0, # of connection points: 2
#     Edge 15, Type (0, 0), BuildingBlock: EZIPEK_clean_linker_0, # of connection points: 2
#     Edge 16, Type (0, 0), BuildingBlock: EZIPEK_clean_linker_0, # of connection points: 2
#     Edge 17, Type (0, 0), BuildingBlock: EZIPEK_clean_linker_0, # of connection points: 2
#     Edge 18, Type (0, 0), BuildingBlock: EZIPEK_clean_linker_0, # of connection points: 2
#     Edge 19, Type (0, 0), BuildingBlock: EZIPEK_clean_linker_0, # of connection points: 2
#     Edge 20, Type (0, 0), BuildingBlock: EZIPEK_clean_linker_0, # of connection points: 2
#     Edge 21, Type (0, 0), BuildingBlock: EZIPEK_clean_linker_0, # of connection points: 2
#     Edge 22, Type (0, 0), BuildingBlock: EZIPEK_clean_linker_0, # of connection points: 2
#     Edge 23, Type (0, 0), BuildingBlock: EZIPEK_clean_linker_0, # of connection points: 2
#     Edge 24, Type (0, 0), BuildingBlock: EZIPEK_clean_linker_0, # of connection points: 2
#     Edge 25, Type (0, 0), BuildingBlock: EZIPEK_clean_linker_0, # of connection points: 2
#     Edge 26, Type (0, 0), BuildingBlock: EZIPEK_clean_linker_0, # of connection points: 2
#     Edge 27, Type (0, 0), BuildingBlock: EZIPEK_clean_linker_0, # of connection points: 2
#     Edge 28, Type (0, 0), BuildingBlock: EZIPEK_clean_linker_0, # of connection points: 2
#     Edge 29, Type (0, 0), BuildingBlock: EZIPEK_clean_linker_0, # of connection points: 2
#     Edge 30, Type (0, 0), BuildingBlock: EZIPEK_clean_linker_0, # of connection points: 2
#     Edge 31, Type (0, 0), BuildingBlock: EZIPEK_clean_linker_0, # of connection points: 2
#     Edge 32, Type (0, 0), BuildingBlock: EZIPEK_clean_linker_0, # of connection points: 2
#     Edge 33, Type (0, 0), BuildingBlock: EZIPEK_clean_linker_0, # of connection points: 2
#     Edge 34, Type (0, 0), BuildingBlock: EZIPEK_clean_linker_0, # of connection points: 2
#     Edge 35, Type (0, 0), BuildingBlock: EZIPEK_clean_linker_0, # of connection points: 2
# Relax obj value: 0.157
# Max RMSD: 0.178
# Mean RMSD: 0.178
data_MOF--net-umb--node1-ICAMEG_clean_sbu_1--edge1-EZIPEK_clean_linker_0
_symmetry_space_group_name_H-M    P1
_symmetry_Int_Tables_number       1
_symmetry_cell_setting            triclinic
loop_
_symmetry_equiv_pos_as_xyz
'x, y, z'
_cell_length_a     38.147574
_cell_length_b     38.059115
_cell_length_c     30.382264
_cell_angle_alpha  90.045217
_cell_angle_beta   89.829251
_cell_angle_gamma 119.90752
loop_
_atom_site_label
_atom_site_type_symbol
_atom_site_fract_x
_atom_site_fract_y
_atom_site_fract_z
_atom_type_partial_charge
Co0 Co 0.52393 0.20194 0.36811 0.0
Co1 Co 0.55117 0.1286 0.35386 0.0
O2 O 0.51809 0.1532 0.34005 0.0
C3 C 0.53562 0.22497 0.27357 0.0
O4 O 0.56061 0.21074 0.27202 0.0
C5 C 0.46755 0.06206 0.36913 0.0
O6 O 0.45942 0.08669 0.39144 0.0
O7 O 0.54346 0.13177 0.41815 0.0
O8 O 0.53194 0.18341 0.42762 0.0
H9 H 0.65683 0.11263 0.43562 0.0
H10 H 0.45308 0.15167 0.31189 0.0
O11 O 0.51663 0.22226 0.30921 0.0
H12 H 0.39652 0.15429 0.45721 0.0
H13 H 0.49417 0.31588 0.38628 0.0
H14 H 0.58137 0.26121 0.43234 0.0
H15 H 0.47018 0.19163 0.44457 0.0
H16 H 0.48098 0.2491 0.35976 0.0
O17 O 0.50206 0.07438 0.35167 0.0
H18 H 0.61761 0.14597 0.41651 0.0
H19 H 0.55176 0.05521 0.32093 0.0
H20 H 0.59547 0.32791 0.45987 0.0
H21 H 0.37912 0.11413 0.32285 0.0
H22 H 0.55256 0.35629 0.43557 0.0
H23 H 0.3504 0.11522 0.396 0.0
O24 O 0.58319 0.2304 0.35893 0.0
H25 H 0.50759 0.09694 0.19591 0.0
H26 H 0.62335 0.15031 0.29764 0.0
H27 H 0.63487 0.14756 0.21811 0.0
H28 H 0.57668 0.12051 0.16665 0.0
H29 H 0.49773 0.10156 0.27555 0.0
H30 H 0.59019 0.02099 0.33892 0.0
H31 H 0.6432 0.04962 0.39676 0.0
O32 O 0.60103 0.18214 0.35683 0.0
C33 C 0.53814 0.1557 0.44308 0.0
C34 C 0.63394 0.09992 0.41028 0.0
C35 C 0.5965 0.04841 0.35613 0.0
N36 N 0.58273 0.10281 0.36732 0.0
C37 C 0.61173 0.11874 0.39921 0.0
C38 C 0.57482 0.06796 0.34604 0.0
C39 C 0.62623 0.06452 0.38851 0.0
C40 C 0.44077 0.1525 0.34371 0.0
N41 N 0.46592 0.17384 0.37759 0.0
C42 C 0.39889 0.13109 0.34977 0.0
C43 C 0.3828 0.13167 0.39083 0.0
C44 C 0.40866 0.15355 0.4252 0.0
C45 C 0.45038 0.17453 0.41793 0.0
C46 C 0.51324 0.30393 0.39685 0.0
C47 C 0.5618 0.27277 0.42269 0.0
C48 C 0.50575 0.26601 0.3822 0.0
N49 N 0.53018 0.25109 0.39478 0.0
C50 C 0.57013 0.31072 0.43812 0.0
C51 C 0.54599 0.32658 0.42453 0.0
C52 C 0.60925 0.21881 0.35791 0.0
C53 C 0.53318 0.10866 0.218 0.0
C54 C 0.59791 0.13875 0.27543 0.0
C55 C 0.60461 0.13715 0.23044 0.0
C56 C 0.57195 0.12194 0.20159 0.0
N57 N 0.55981 0.12584 0.29125 0.0
C58 C 0.5277 0.11113 0.26315 0.0
Co59 Co 0.32032 0.5424 0.69721 0.0
Co60 Co 0.41957 0.56729 0.67777 0.0
O61 O 0.36104 0.5328 0.66956 0.0
C62 C 0.29463 0.52045 0.6013 0.0
O63 O 0.32328 0.51151 0.595 0.0
C64 C 0.40368 0.48558 0.70055 0.0
O65 O 0.37201 0.47955 0.72354 0.0
O66 O 0.41292 0.56473 0.7429 0.0
O67 O 0.35114 0.55702 0.75484 0.0
H68 H 0.54701 0.67301 0.75132 0.0
H69 H 0.29475 0.462 0.65427 0.0
O70 O 0.28855 0.53035 0.63974 0.0
H71 H 0.24729 0.4306 0.80765 0.0
H72 H 0.17934 0.5157 0.72765 0.0
H73 H 0.32458 0.60656 0.75538 0.0
H74 H 0.28345 0.50128 0.78162 0.0
H75 H 0.23016 0.50073 0.69614 0.0
O76 O 0.42511 0.51835 0.67963 0.0
H77 H 0.47347 0.6328 0.73973 0.0
H78 H 0.49075 0.56835 0.6358 0.0
H79 H 0.27541 0.62229 0.78821 0.0
H80 H 0.25831 0.39109 0.67863 0.0
H81 H 0.20169 0.57687 0.77393 0.0
H82 H 0.23428 0.37482 0.75595 0.0
O83 O 0.35037 0.59969 0.67867 0.0
H84 H 0.39946 0.50876 0.52528 0.0
H85 H 0.46071 0.63468 0.61253 0.0
H86 H 0.46717 0.63868 0.53177 0.0
H87 H 0.43652 0.57542 0.48753 0.0
H88 H 0.3928 0.50611 0.60607 0.0
H89 H 0.56443 0.60763 0.64634 0.0
H90 H 0.59317 0.66054 0.70441 0.0
O91 O 0.41624 0.61798 0.67678 0.0
C92 C 0.38575 0.56369 0.76826 0.0
C93 C 0.53496 0.65053 0.72543 0.0
C94 C 0.54475 0.61378 0.66663 0.0
N95 N 0.47776 0.59961 0.6857 0.0
C96 C 0.49328 0.62801 0.71833 0.0
C97 C 0.50293 0.59184 0.66057 0.0
C98 C 0.56082 0.64342 0.69921 0.0
C99 C 0.28386 0.45548 0.68756 0.0
N100 N 0.29063 0.48602 0.71601 0.0
C101 C 0.26345 0.41509 0.70138 0.0
C102 C 0.25007 0.40598 0.74478 0.0
C103 C 0.25736 0.43724 0.77379 0.0
C104 C 0.27789 0.47726 0.7588 0.0
C105 C 0.21118 0.53574 0.73399 0.0
C106 C 0.29281 0.58633 0.74962 0.0
C107 C 0.24005 0.52746 0.71616 0.0
N108 N 0.28027 0.55266 0.72411 0.0
C109 C 0.2649 0.5955 0.7681 0.0
C110 C 0.2238 0.57012 0.75999 0.0
C111 C 0.38766 0.62602 0.67489 0.0
C112 C 0.41295 0.53655 0.54419 0.0
C113 C 0.44675 0.60698 0.59359 0.0
C114 C 0.4508 0.60945 0.54782 0.0
C115 C 0.43369 0.57395 0.52303 0.0
N116 N 0.42602 0.57017 0.61413 0.0
C117 C 0.40946 0.53524 0.59002 0.0
Co118 Co 0.78647 0.30056 0.03466 0.0
Co119 Co 0.84253 0.4016 1.00268 0.0
O120 O 0.8294 0.34519 1.00117 0.0
C121 C 0.77524 0.27603 0.93798 0.0
O122 O 0.81008 0.30793 0.92856 0.0
C123 C 0.91835 0.40648 0.03338 0.0
O124 O 0.89803 0.37587 0.06021 0.0
O125 O 0.83797 0.4002 0.06837 0.0
O126 O 0.80683 0.33456 0.0901 0.0
H127 H 0.82028 0.51984 0.0336 0.0
H128 H 0.84474 0.2875 0.97885 0.0
O129 O 0.76332 0.26755 0.9781 0.0
H130 H 0.85511 0.24433 0.12851 0.0
H131 H 0.69129 0.15274 0.0661 0.0
H132 H 0.73862 0.29173 0.11761 0.0
H133 H 0.80847 0.26981 0.11294 0.0
H134 H 0.74573 0.21081 0.02675 0.0
O135 O 0.90056 0.41877 1.00773 0.0
H136 H 0.80084 0.44826 0.03019 0.0
H137 H 0.91366 0.47883 0.97109 0.0
H138 H 0.68425 0.23481 0.15774 0.0
H139 H 0.89135 0.26206 0.99279 0.0
H140 H 0.65986 0.16445 0.13204 0.0
H141 H 0.89696 0.24019 0.06815 0.0
O142 O 0.74869 0.32168 0.02639 0.0
H143 H 0.89346 0.3827 0.85666 0.0
H144 H 0.80858 0.42883 0.93103 0.0
H145 H 0.81316 0.43103 0.85005 0.0
H146 H 0.85585 0.40782 0.8123 0.0
H147 H 0.88721 0.3801 0.93755 0.0
H148 H 0.9342 0.55088 0.9741 0.0
H149 H 0.88759 0.57211 1.00576 0.0
O150 O 0.78463 0.38487 0.99886 0.0
C151 C 0.82372 0.3728 0.09829 0.0
C152 C 0.84127 0.51108 0.02066 0.0
C153 C 0.90512 0.52848 0.98725 0.0
N154 N 0.85689 0.45868 1.00325 0.0
C155 C 0.83062 0.47026 1.01925 0.0
C156 C 0.89339 0.48737 0.98627 0.0
C157 C 0.87895 0.54037 1.0049 0.0
C158 C 0.84614 0.27753 1.01145 0.0
N159 N 0.82291 0.27941 0.04466 0.0
C160 C 0.873 0.26334 0.0193 0.0
C161 C 0.87621 0.25116 0.06159 0.0
C162 C 0.85273 0.25345 0.09543 0.0
C163 C 0.82625 0.26783 0.08633 0.0
C164 C 0.70106 0.1833 0.07714 0.0
C165 C 0.72774 0.26173 0.10509 0.0
C166 C 0.73162 0.21647 0.05457 0.0
N167 N 0.74417 0.25527 0.06803 0.0
C168 C 0.6971 0.22932 0.12851 0.0
C169 C 0.68352 0.18986 0.11419 0.0
C170 C 0.75187 0.35475 1.01253 0.0
C171 C 0.87464 0.39276 0.87271 0.0
C172 C 0.82674 0.41813 0.91486 0.0
C173 C 0.82948 0.41976 0.86898 0.0
C174 C 0.8535 0.40681 0.84783 0.0
N175 N 0.84699 0.40365 0.939 0.0
C176 C 0.87116 0.39157 0.91854 0.0
Co177 Co 0.48182 0.81463 0.35731 0.0
Co178 Co 0.39569 0.81895 0.32867 0.0
O179 O 0.45307 0.83564 0.32157 0.0
C180 C 0.48475 0.78928 0.2651 0.0
O181 O 0.45094 0.78954 0.25926 0.0
C182 C 0.43484 0.90587 0.34744 0.0
O183 O 0.46157 0.90182 0.37062 0.0
O184 O 0.40127 0.82298 0.39365 0.0
O185 O 0.45922 0.82509 0.41327 0.0
H186 H 0.26381 0.75119 0.40967 0.0
H187 H 0.52715 0.87737 0.28985 0.0
O188 O 0.50336 0.8011 0.30188 0.0
H189 H 0.5932 0.93824 0.43097 0.0
H190 H 0.60021 0.79637 0.39474 0.0
H191 H 0.46371 0.76626 0.43969 0.0
H192 H 0.53437 0.86901 0.42851 0.0
H193 H 0.56298 0.82158 0.35095 0.0
O194 O 0.40781 0.8762 0.32596 0.0
H195 H 0.33031 0.76096 0.38759 0.0
H196 H 0.33996 0.8434 0.28774 0.0
H197 H 0.49993 0.74068 0.48455 0.0
H198 H 0.58621 0.94662 0.29067 0.0
H199 H 0.56869 0.75563 0.46211 0.0
H200 H 0.61992 0.97719 0.3616 0.0
O201 O 0.43566 0.75816 0.3557 0.0
H202 H 0.4352 0.86433 0.17201 0.0
H203 H 0.33531 0.75651 0.26849 0.0
H204 H 0.32724 0.74889 0.18794 0.0
H205 H 0.37733 0.80316 0.1391 0.0
H206 H 0.44248 0.87017 0.25287 0.0
H207 H 0.27256 0.83273 0.30735 0.0
H208 H 0.23499 0.78787 0.37022 0.0
O209 O 0.38198 0.76194 0.3316 0.0
C210 C 0.42649 0.82531 0.42246 0.0
C211 C 0.27987 0.77063 0.38219 0.0
C212 C 0.28497 0.81675 0.32501 0.0
N213 N 0.3392 0.80299 0.3367 0.0
C214 C 0.31759 0.77639 0.36957 0.0
C215 C 0.32297 0.82239 0.31383 0.0
C216 C 0.26379 0.7914 0.36011 0.0
C217 C 0.54169 0.8906 0.32078 0.0
N218 N 0.52758 0.86919 0.35902 0.0
C219 C 0.57503 0.92979 0.32108 0.0
C220 C 0.59384 0.947 0.3609 0.0
C221 C 0.57892 0.92513 0.39984 0.0
C222 C 0.54553 0.88602 0.39827 0.0
C223 C 0.57021 0.78953 0.40477 0.0
C224 C 0.4936 0.77294 0.42966 0.0
C225 C 0.54888 0.80355 0.37998 0.0
N226 N 0.51102 0.7951 0.39249 0.0
C227 C 0.51397 0.75834 0.45522 0.0
C228 C 0.55253 0.76672 0.4426 0.0
C229 C 0.39909 0.74208 0.3433 0.0
C230 C 0.41301 0.84062 0.19295 0.0
C231 C 0.35724 0.78025 0.24745 0.0
C232 C 0.35248 0.77578 0.20186 0.0
C233 C 0.38059 0.80624 0.1745 0.0
N234 N 0.38907 0.8141 0.26529 0.0
C235 C 0.41681 0.844 0.2387 0.0
Co236 Co 0.64696 0.46606 0.68165 0.0
Co237 Co 0.55247 0.37972 0.67379 0.0
O238 O 0.59363 0.434 0.65436 0.0
C239 C 0.66331 0.45487 0.58773 0.0
O240 O 0.62817 0.42142 0.58714 0.0
C241 C 0.51375 0.43148 0.67508 0.0
O242 O 0.548 0.46317 0.66341 0.0
O243 O 0.5649 0.3942 0.73657 0.0
O244 O 0.62111 0.45454 0.74256 0.0
H245 H 0.50051 0.25647 0.76991 0.0
H246 H 0.62726 0.50508 0.60864 0.0
O247 O 0.67468 0.47749 0.62192 0.0
H248 H 0.64485 0.58901 0.73946 0.0
H249 H 0.78647 0.58779 0.6943 0.0
H250 H 0.69138 0.45277 0.75418 0.0
H251 H 0.65353 0.52917 0.74469 0.0
H252 H 0.71836 0.54712 0.66264 0.0
O253 O 0.51032 0.39654 0.67854 0.0
H254 H 0.55284 0.32047 0.73681 0.0
H255 H 0.46506 0.32409 0.65421 0.0
H256 H 0.75908 0.49232 0.78692 0.0
H257 H 0.61933 0.56533 0.60168 0.0
H258 H 0.80718 0.56054 0.75711 0.0
H259 H 0.6281 0.60771 0.6675 0.0
O260 O 0.65348 0.41762 0.68639 0.0
H261 H 0.51091 0.39272 0.52029 0.0
H262 H 0.54198 0.31011 0.62033 0.0
H263 H 0.51813 0.28549 0.54503 0.0
H264 H 0.50025 0.32599 0.49548 0.0
H265 H 0.53541 0.41629 0.59537 0.0
H266 H 0.41162 0.26045 0.687 0.0
H267 H 0.42907 0.22682 0.74611 0.0
O268 O 0.59342 0.3622 0.67148 0.0
C269 C 0.58977 0.42421 0.75946 0.0
C270 C 0.49247 0.2711 0.74451 0.0
C271 C 0.44257 0.27337 0.69802 0.0
N272 N 0.51203 0.32608 0.69363 0.0
C273 C 0.52205 0.30711 0.72527 0.0
C274 C 0.47298 0.30931 0.67944 0.0
C275 C 0.45238 0.25452 0.7312 0.0
C276 C 0.63165 0.52368 0.63724 0.0
N277 N 0.64089 0.51361 0.67697 0.0
C278 C 0.62682 0.55759 0.63319 0.0
C279 C 0.63158 0.58126 0.67016 0.0
C280 C 0.64098 0.57078 0.71056 0.0
C281 C 0.64559 0.53669 0.71337 0.0
C282 C 0.76562 0.55834 0.70798 0.0
C283 C 0.71181 0.48258 0.74142 0.0
C284 C 0.72689 0.53524 0.69036 0.0
N285 N 0.7002 0.49817 0.70769 0.0
C286 C 0.75027 0.50478 0.75993 0.0
C287 C 0.77725 0.54301 0.74315 0.0
C288 C 0.63109 0.37976 0.67983 0.0
C289 C 0.51764 0.37436 0.54204 0.0
C290 C 0.5353 0.3283 0.59841 0.0
C291 C 0.52174 0.3142 0.5559 0.0
C292 C 0.51211 0.33711 0.52793 0.0
N293 N 0.53878 0.36393 0.61276 0.0
C294 C 0.53133 0.38748 0.58475 0.0
Co295 Co 0.18171 0.66814 0.02076 0.0
Co296 Co 0.16999 0.57144 1.01251 0.0
O297 O 0.15806 0.61378 0.99435 0.0
C298 C 0.19082 0.6785 0.92103 0.0
O299 O 0.16381 0.64017 0.91558 0.0
C300 C 0.0796 0.53319 1.00837 0.0
O301 O 0.08284 0.56621 0.99107 0.0
O302 O 0.16584 0.58251 0.07514 0.0
O303 O 0.17084 0.64362 0.08283 0.0
H304 H 0.24223 0.51785 0.10444 0.0
H305 H 0.11516 0.64849 0.95372 0.0
O306 O 0.1969 0.6944 0.95959 0.0
H307 H 0.06417 0.66962 0.09417 0.0
H308 H 0.2017 0.80884 0.03371 0.0
H309 H 0.24465 0.71449 0.08816 0.0
H310 H 0.13232 0.67827 0.08955 0.0
H311 H 0.17207 0.7398 1.00332 0.0
O312 O 0.11077 0.52988 1.01567 0.0
H313 H 0.22775 0.57005 0.07637 0.0
H314 H 0.13834 0.48415 0.99058 0.0
H315 H 0.27464 0.78283 0.12024 0.0
H316 H 0.04754 0.64038 0.95672 0.0
H317 H 0.2531 0.83066 0.09298 0.0
H318 H 0.02108 0.65047 0.02746 0.0
O319 O 0.23617 0.67396 0.02091 0.0
H320 H 0.12167 0.53359 0.8558 0.0
H321 H 0.23045 0.56127 0.96106 0.0
H322 H 0.23476 0.5404 0.88545 0.0
H323 H 0.1791 0.52447 0.83295 0.0
H324 H 0.11905 0.55545 0.93107 0.0
H325 H 0.15126 0.43076 1.01839 0.0
H326 H 0.20324 0.44743 0.07605 0.0
O327 O 0.22862 0.61185 1.0116 0.0
C328 C 0.16545 0.6099 0.09861 0.0
C329 C 0.21933 0.51016 0.0795 0.0
C330 C 0.16822 0.46128 0.03124 0.0
N331 N 0.18228 0.53016 0.03176 0.0
C332 C 0.2112 0.53965 0.06321 0.0
C333 C 0.161 0.4916 1.01563 0.0
C334 C 0.1974 0.47065 0.0636 0.0
C335 C 0.10472 0.65339 0.98451 0.0
N336 N 0.12816 0.66326 0.0214 0.0
C337 C 0.06595 0.64858 0.98608 0.0
C338 C 0.0511 0.65419 0.02576 0.0
C339 C 0.0752 0.66483 0.06317 0.0
C340 C 0.11379 0.66934 0.06034 0.0
C341 C 0.21087 0.7881 0.04639 0.0
C342 C 0.23419 0.7345 0.07724 0.0
C343 C 0.19406 0.74887 0.02943 0.0
N344 N 0.20515 0.7223 0.04555 0.0
C345 C 0.25171 0.77347 0.09502 0.0
C346 C 0.23973 0.80033 0.0796 0.0
C347 C 0.25009 0.65011 1.0158 0.0
C348 C 0.14569 0.53965 0.87874 0.0
C349 C 0.20664 0.55563 0.93808 0.0
C350 C 0.20919 0.54356 0.89533 0.0
C351 C 0.17813 0.53493 0.86576 0.0
N352 N 0.17401 0.55889 0.95117 0.0
C353 C 0.14423 0.55186 0.92173 0.0
Co354 Co 0.77697 0.44758 0.34556 0.0
Co355 Co 0.84888 0.42128 0.37458 0.0
O356 O 0.82469 0.45605 0.37808 0.0
C357 C 0.7669 0.46699 0.44046 0.0
O358 O 0.80383 0.47516 0.44926 0.0
C359 C 0.91434 0.50181 0.34889 0.0
O360 O 0.88853 0.50583 0.32397 0.0
O361 O 0.84832 0.4219 0.30947 0.0
O362 O 0.79821 0.43382 0.29026 0.0
H363 H 0.8588 0.29323 0.38991 0.0
H364 H 0.83209 0.52605 0.39152 0.0
O365 O 0.75319 0.45838 0.40102 0.0
H366 H 0.81833 0.56385 0.24034 0.0
H367 H 0.66407 0.47391 0.30449 0.0
H368 H 0.72381 0.38669 0.27984 0.0
H369 H 0.7831 0.49223 0.2631 0.0
H370 H 0.72631 0.48734 0.34328 0.0
O371 O 0.90302 0.47094 0.37348 0.0
H372 H 0.82503 0.33284 0.39533 0.0
H373 H 0.92633 0.43358 0.33571 0.0
H374 H 0.66187 0.37241 0.24004 0.0
H375 H 0.8674 0.59781 0.3704 0.0
H376 H 0.63149 0.41607 0.25237 0.0
H377 H 0.86082 0.61733 0.29421 0.0
O378 O 0.74793 0.39015 0.36182 0.0
H379 H 0.89116 0.48656 0.52404 0.0
H380 H 0.80727 0.35767 0.44722 0.0
H381 H 0.80994 0.35829 0.52713 0.0
H382 H 0.8522 0.42295 0.56673 0.0
H383 H 0.88776 0.48489 0.44377 0.0
H384 H 0.96077 0.39446 0.32972 0.0
H385 H 0.92751 0.32371 0.35729 0.0
O386 O 0.79453 0.3714 0.3734 0.0
C387 C 0.82522 0.42404 0.28081 0.0
C388 C 0.87429 0.32454 0.37925 0.0
C389 C 0.93144 0.38124 0.34552 0.0
N390 N 0.87475 0.38775 0.37026 0.0
C391 C 0.8555 0.3479 0.38318 0.0
C392 C 0.91178 0.4037 0.35 0.0
C393 C 0.91271 0.34153 0.36075 0.0
C394 C 0.82838 0.53393 0.35861 0.0
N395 N 0.80494 0.50461 0.3289 0.0
C396 C 0.84878 0.57483 0.34668 0.0
C397 C 0.84515 0.58576 0.30392 0.0
C398 C 0.82133 0.55579 0.27371 0.0
C399 C 0.80142 0.51522 0.28685 0.0
C400 C 0.67704 0.45467 0.29882 0.0
C401 C 0.71107 0.40613 0.28507 0.0
C402 C 0.71219 0.46205 0.32084 0.0
N403 N 0.7289 0.43804 0.31363 0.0
C404 C 0.67586 0.39777 0.26255 0.0
C405 C 0.6588 0.42227 0.26953 0.0
C406 C 0.75822 0.36386 0.36951 0.0
C407 C 0.8735 0.45794 0.50718 0.0
C408 C 0.82722 0.38591 0.46293 0.0
C409 C 0.82802 0.38607 0.5089 0.0
C410 C 0.85156 0.42233 0.53111 0.0
N411 N 0.84989 0.42073 0.43922 0.0
C412 C 0.87203 0.4566 0.46124 0.0
Co413 Co 0.30393 0.78367 0.67248 0.0
Co414 Co 0.40469 0.85452 0.68734 0.0
O415 O 0.34737 0.83198 0.69979 0.0
C416 C 0.29146 0.76571 0.76902 0.0
O417 O 0.33034 0.77886 0.77217 0.0
C418 C 0.39067 0.92299 0.6697 0.0
O419 O 0.35806 0.89892 0.64719 0.0
O420 O 0.39496 0.85094 0.623 0.0
O421 O 0.33138 0.80058 0.61256 0.0
H422 H 0.52587 0.8648 0.60917 0.0
H423 H 0.28509 0.83698 0.72672 0.0
O424 O 0.27598 0.76562 0.73178 0.0
H425 H 0.22956 0.83465 0.57968 0.0
H426 H 0.15887 0.67333 0.66144 0.0
H427 H 0.29761 0.72122 0.60893 0.0
H428 H 0.26344 0.79509 0.59465 0.0
H429 H 0.21451 0.74047 0.68325 0.0
O430 O 0.41156 0.90968 0.68828 0.0
H431 H 0.45327 0.834 0.62686 0.0
H432 H 0.47909 0.92688 0.72028 0.0
H433 H 0.24316 0.65376 0.58646 0.0
H434 H 0.25116 0.87675 0.71338 0.0
H435 H 0.17325 0.6289 0.61385 0.0
H436 H 0.22321 0.87581 0.63936 0.0
O437 O 0.33283 0.75301 0.68259 0.0
H438 H 0.38734 0.88512 0.84423 0.0
H439 H 0.45398 0.83311 0.74565 0.0
H440 H 0.46572 0.83553 0.82569 0.0
H441 H 0.4323 0.86174 0.87557 0.0
H442 H 0.37623 0.88178 0.76406 0.0
H443 H 0.55172 0.9586 0.70363 0.0
H444 H 0.57572 0.92764 0.64766 0.0
O445 O 0.3991 0.79995 0.68551 0.0
C446 C 0.36607 0.82751 0.59762 0.0
C447 C 0.51587 0.87853 0.63372 0.0
C448 C 0.53044 0.93126 0.68662 0.0
N449 N 0.46199 0.87836 0.67492 0.0
C450 C 0.47482 0.86114 0.644 0.0
C451 C 0.4892 0.91313 0.69593 0.0
C452 C 0.54382 0.91382 0.65527 0.0
C453 C 0.27268 0.83617 0.69455 0.0
N454 N 0.27608 0.81365 0.66152 0.0
C455 C 0.25365 0.85885 0.68714 0.0
C456 C 0.23802 0.85836 0.64558 0.0
C457 C 0.2416 0.83529 0.61207 0.0
C458 C 0.2609 0.81304 0.62068 0.0
C459 C 0.18926 0.68367 0.6496 0.0
C460 C 0.26732 0.71106 0.62009 0.0
C461 C 0.22088 0.72181 0.66155 0.0
N462 N 0.2595 0.73485 0.64734 0.0
C463 C 0.23656 0.67266 0.60759 0.0
C464 C 0.19736 0.65872 0.62301 0.0
C465 C 0.37022 0.76353 0.68383 0.0
C466 C 0.40221 0.87379 0.82285 0.0
C467 C 0.43937 0.84458 0.76717 0.0
C468 C 0.44615 0.8459 0.81244 0.0
C469 C 0.42739 0.86061 0.84041 0.0
N470 N 0.41462 0.85753 0.7502 0.0
C471 C 0.39617 0.87202 0.77741 0.0
Co472 Co 0.52921 0.32266 0.02098 0.0
Co473 Co 0.57115 0.4263 0.03171 0.0
O474 O 0.53072 0.37046 0.04625 0.0
C475 C 0.53341 0.31258 0.11726 0.0
O476 O 0.5572 0.35195 0.11883 0.0
C477 C 0.49295 0.42175 1.01736 0.0
O478 O 0.47967 0.38662 0.9979 0.0
O479 O 0.56141 0.41441 0.96779 0.0
O480 O 0.54284 0.34839 0.96033 0.0
H481 H 0.67987 0.53837 0.94058 0.0
H482 H 0.4594 0.31269 0.07364 0.0
O483 O 0.51655 0.29583 0.08097 0.0
H484 H 0.40456 0.25893 0.92648 0.0
H485 H 0.47959 0.17357 1.01465 0.0
H486 H 0.5817 0.30841 0.95983 0.0
H487 H 0.47681 0.28542 0.94263 0.0
H488 H 0.47471 0.23407 0.03293 0.0
O489 O 0.5284 0.44121 0.03303 0.0
H490 H 0.63236 0.46752 0.96061 0.0
H491 H 0.58927 0.50617 0.06863 0.0
H492 H 0.58773 0.24861 0.94067 0.0
H493 H 0.38684 0.28616 0.0591 0.0
H494 H 0.53753 0.18094 0.97028 0.0
H495 H 0.35905 0.25915 0.985 0.0
O496 O 0.58745 0.34533 0.03302 0.0
H497 H 0.52887 0.42473 0.18896 0.0
H498 H 0.64461 0.46428 0.08883 0.0
H499 H 0.6566 0.47638 0.16854 0.0
H500 H 0.5985 0.45682 0.21914 0.0
H501 H 0.51807 0.41206 0.10923 0.0
H502 H 0.63589 0.57756 0.04939 0.0
H503 H 0.68192 0.59412 0.98515 0.0
O504 O 0.61574 0.41311 0.02944 0.0
C505 C 0.55343 0.3835 0.9444 0.0
C506 C 0.66058 0.53159 0.96921 0.0
C507 C 0.63588 0.55357 0.03022 0.0
N508 N 0.60962 0.48246 1.01728 0.0
C509 C 0.63399 0.4914 0.98112 0.0
C510 C 0.60974 0.51301 0.04117 0.0
C511 C 0.66162 0.56284 0.99412 0.0
C512 C 0.44737 0.30059 0.04149 0.0
N513 N 0.47217 0.30043 1.00907 0.0
C514 C 0.40633 0.28577 0.03338 0.0
C515 C 0.39078 0.27069 0.99177 0.0
C516 C 0.4163 0.27058 0.95891 0.0
C517 C 0.45718 0.28568 0.9682 0.0
C518 C 0.50189 0.20297 1.00209 0.0
C519 C 0.55885 0.2788 0.97118 0.0
C520 C 0.49912 0.2373 1.01202 0.0
N521 N 0.52792 0.27472 0.99746 0.0
C522 C 0.56263 0.24512 0.9606 0.0
C523 C 0.53435 0.20714 0.97699 0.0
C524 C 0.61804 0.38092 0.0323 0.0
C525 C 0.55444 0.43356 0.1672 0.0
C526 C 0.6191 0.45525 0.11065 0.0
C527 C 0.62611 0.4624 0.15575 0.0
C528 C 0.59351 0.45145 0.18413 0.0
N529 N 0.58066 0.43753 0.09429 0.0
C530 C 0.54854 0.42671 0.12196 0.0
Co531 Co 0.18211 0.52275 0.35731 0.0
Co532 Co 0.16843 0.60653 0.36252 0.0
O533 O 0.15755 0.55301 0.38281 0.0
C534 C 0.20412 0.53045 0.45229 0.0
O535 O 0.20448 0.56504 0.45216 0.0
C536 C 0.08049 0.5565 0.35254 0.0
O537 O 0.08691 0.5288 0.33473 0.0
O538 O 0.16091 0.58848 0.29978 0.0
O539 O 0.17432 0.53733 0.29499 0.0
H540 H 0.22486 0.72559 0.25901 0.0
H541 H 0.11579 0.48199 0.42207 0.0
O542 O 0.19246 0.50781 0.41818 0.0
H543 H 0.06461 0.40268 0.28538 0.0
H544 H 0.20421 0.40322 0.34482 0.0
H545 H 0.24457 0.53987 0.28948 0.0
H546 H 0.13357 0.46174 0.28847 0.0
H547 H 0.17322 0.44161 0.37505 0.0
O548 O 0.10982 0.58925 0.36684 0.0
H549 H 0.21784 0.66307 0.29085 0.0
H550 H 0.13762 0.66201 0.38847 0.0
H551 H 0.27606 0.50254 0.25778 0.0
H552 H 0.04673 0.42282 0.42061 0.0
H553 H 0.25584 0.43359 0.28553 0.0
H554 H 0.02077 0.38277 0.35186 0.0
O555 O 0.23673 0.57156 0.35964 0.0
H556 H 0.1292 0.59784 0.52174 0.0
H557 H 0.2294 0.68051 0.40856 0.0
H558 H 0.23403 0.70908 0.48272 0.0
H559 H 0.18229 0.66853 0.53878 0.0
H560 H 0.12597 0.57074 0.44696 0.0
H561 H 0.14309 0.72427 0.35722 0.0
H562 H 0.1864 0.75612 0.29153 0.0
O563 O 0.22729 0.62555 0.35868 0.0
C564 C 0.16545 0.56256 0.27756 0.0
C565 C 0.20575 0.71193 0.28755 0.0
C566 C 0.15983 0.71113 0.3426 0.0
N567 N 0.17786 0.65897 0.34185 0.0
C568 C 0.20214 0.67672 0.3061 0.0
C569 C 0.15703 0.67595 0.36028 0.0
C570 C 0.18406 0.72894 0.3057 0.0
C571 C 0.10477 0.46443 0.39219 0.0
N572 N 0.1287 0.47512 0.35551 0.0
C573 C 0.06562 0.4311 0.39149 0.0
C574 C 0.05103 0.40869 0.35287 0.0
C575 C 0.07562 0.41984 0.31556 0.0
C576 C 0.1146 0.45337 0.31747 0.0
C577 C 0.21299 0.43307 0.33215 0.0
C578 C 0.23508 0.50966 0.30097 0.0
C579 C 0.19549 0.45491 0.34907 0.0
N580 N 0.20621 0.4925 0.33299 0.0
C581 C 0.25326 0.48877 0.28325 0.0
C582 C 0.24198 0.45014 0.29891 0.0
C583 C 0.24976 0.60954 0.35981 0.0
C584 C 0.15121 0.61631 0.49702 0.0
C585 C 0.20743 0.66243 0.43334 0.0
C586 C 0.21026 0.67866 0.47522 0.0
C587 C 0.18137 0.65569 0.50687 0.0
N588 N 0.17609 0.62494 0.423 0.0
C589 C 0.1492 0.60127 0.45462 0.0
Co590 Co 0.65148 0.16999 0.69494 0.0
Co591 Co 0.55973 0.16735 0.71046 0.0
O592 O 0.59892 0.15001 0.72493 0.0
C593 C 0.67081 0.19266 0.78951 0.0
O594 O 0.63749 0.19447 0.79142 0.0
C595 C 0.51376 0.08004 0.69219 0.0
O596 O 0.54614 0.08368 0.67272 0.0
O597 O 0.56729 0.16282 0.64683 0.0
O598 O 0.62445 0.16065 0.63535 0.0
H599 H 0.50724 0.23863 0.61621 0.0
H600 H 0.62477 0.10531 0.76227 0.0
O601 O 0.68041 0.18142 0.75396 0.0
H602 H 0.64552 0.04669 0.62661 0.0
H603 H 0.78989 0.18591 0.67627 0.0
H604 H 0.68994 0.21785 0.61376 0.0
H605 H 0.65672 0.11636 0.62699 0.0
H606 H 0.72382 0.16157 0.71243 0.0
O607 O 0.51449 0.11013 0.71104 0.0
H608 H 0.56002 0.227 0.64771 0.0
H609 H 0.47525 0.14234 0.73863 0.0
H610 H 0.7555 0.24261 0.57647 0.0
H611 H 0.61355 0.03556 0.76355 0.0
H612 H 0.80611 0.22674 0.60775 0.0
H613 H 0.6246 0.00613 0.69544 0.0
O614 O 0.66264 0.22711 0.69522 0.0
H615 H 0.53273 0.11944 0.86708 0.0
H616 H 0.5548 0.22954 0.76527 0.0
H617 H 0.5395 0.2339 0.84339 0.0
H618 H 0.5266 0.17759 0.89407 0.0
H619 H 0.549 0.11691 0.78883 0.0
H620 H 0.42186 0.15401 0.70882 0.0
H621 H 0.43748 0.20156 0.64623 0.0
O622 O 0.6035 0.22449 0.7099 0.0
C623 C 0.59246 0.1601 0.62168 0.0
C624 C 0.50018 0.21806 0.6436 0.0
C625 C 0.45215 0.17024 0.69531 0.0
N626 N 0.52072 0.18382 0.69477 0.0
C627 C 0.52995 0.21138 0.66166 0.0
C628 C 0.48259 0.16399 0.71226 0.0
C629 C 0.46094 0.19697 0.66024 0.0
C630 C 0.62951 0.09259 0.73257 0.0
N631 N 0.6417 0.11492 0.69474 0.0
C632 C 0.62303 0.05309 0.73344 0.0
C633 C 0.62906 0.03652 0.69518 0.0
C634 C 0.64091 0.05931 0.65656 0.0
C635 C 0.64709 0.09868 0.65694 0.0
C636 C 0.76819 0.19325 0.66246 0.0
C637 C 0.71178 0.21096 0.62778 0.0
C638 C 0.7308 0.17977 0.68296 0.0
N639 N 0.70319 0.18884 0.66569 0.0
C640 C 0.74888 0.22501 0.60642 0.0
C641 C 0.77725 0.2161 0.62399 0.0
C642 C 0.64149 0.24382 0.70311 0.0
C643 C 0.53744 0.14368 0.84492 0.0
C644 C 0.55007 0.2054 0.78755 0.0
C645 C 0.54135 0.20801 0.83165 0.0
C646 C 0.53444 0.17658 0.86023 0.0
N647 N 0.5515 0.17231 0.77244 0.0
C648 C 0.54624 0.14216 0.80062 0.0
Co649 Co 0.48259 0.67425 0.0221 0.0
Co650 Co 0.39673 0.5794 0.03735 0.0
O651 O 0.45173 0.62188 0.05249 0.0
C652 C 0.48779 0.69122 0.12067 0.0
O653 O 0.47394 0.65263 0.12844 0.0
C654 C 0.4472 0.53967 0.0438 0.0
O655 O 0.47849 0.57379 0.05647 0.0
O656 O 0.40983 0.58644 0.97385 0.0
O657 O 0.46686 0.64554 0.96277 0.0
H658 H 0.26894 0.5213 0.94873 0.0
H659 H 0.52995 0.65699 0.09118 0.0
O660 O 0.49625 0.7047 0.08102 0.0
H661 H 0.5983 0.66824 0.9502 0.0
H662 H 0.60311 0.81312 0.99863 0.0
H663 H 0.46591 0.7148 0.94795 0.0
H664 H 0.53983 0.67873 0.95346 0.0
H665 H 0.56427 0.74634 0.03447 0.0
O666 O 0.41274 0.53658 0.03785 0.0
H667 H 0.33635 0.57466 0.97285 0.0
H668 H 0.34061 0.49471 0.06736 0.0
H669 H 0.50365 0.78101 0.91085 0.0
H670 H 0.58855 0.64726 0.08949 0.0
H671 H 0.57289 0.83075 0.93612 0.0
H672 H 0.62315 0.6523 1.01853 0.0
O673 O 0.43471 0.6814 0.02017 0.0
H674 H 0.4139 0.55648 0.1978 0.0
H675 H 0.32907 0.57571 0.08941 0.0
H676 H 0.30926 0.56624 0.16755 0.0
H677 H 0.35166 0.55629 0.22242 0.0
H678 H 0.43299 0.5668 0.11964 0.0
H679 H 0.27331 0.44035 0.04396 0.0
H680 H 0.2373 0.45338 0.98379 0.0
O681 O 0.37998 0.62055 0.03414 0.0
C682 C 0.43748 0.61192 0.94863 0.0
C683 C 0.28439 0.51525 0.97487 0.0
C684 C 0.28691 0.46977 0.02824 0.0
N685 N 0.34238 0.53783 0.02156 0.0
C686 C 0.32249 0.5454 0.98885 0.0
C687 C 0.32499 0.50066 0.04138 0.0
C688 C 0.2667 0.47712 0.99452 0.0
C689 C 0.54455 0.65988 0.06026 0.0
N690 N 0.5305 0.66802 0.02252 0.0
C691 C 0.57795 0.65408 0.05944 0.0
C692 C 0.59733 0.65686 0.01965 0.0
C693 C 0.58334 0.66569 0.98133 0.0
C694 C 0.54988 0.6713 0.98342 0.0
C695 C 0.57309 0.79162 0.9871 0.0
C696 C 0.49609 0.73606 0.95887 0.0
C697 C 0.55096 0.75375 1.00727 0.0
N698 N 0.51315 0.72629 0.9927 0.0
C699 C 0.5173 0.77361 0.93784 0.0
C700 C 0.55611 0.80151 0.95206 0.0
C701 C 0.39701 0.6582 0.0258 0.0
C702 C 0.39505 0.56057 0.17417 0.0
C703 C 0.34797 0.57173 0.11299 0.0
C704 C 0.33642 0.56618 0.15725 0.0
C705 C 0.36017 0.56052 0.18799 0.0
N706 N 0.38221 0.57162 0.09954 0.0
C707 C 0.40565 0.56621 0.12961 0.0
C708 C 0.54494 0.11932 0.51016 0.0
C709 C 0.54574 0.15432 0.49187 0.0
C710 C 0.58407 0.19383 0.55611 0.0
C711 C 0.58399 0.15946 0.57385 0.0
N712 N 0.5692 0.09068 0.56601 0.0
N713 N 0.54845 0.21746 0.51106 0.0
C714 C 0.56588 0.1225 0.55025 0.0
C715 C 0.56053 0.18974 0.51841 0.0
N716 N 0.52071 0.08231 0.49142 0.0
N717 N 0.60707 0.2308 0.57544 0.0
H718 H 0.52463 0.21175 0.49028 0.0
H719 H 0.5565 0.24246 0.53126 0.0
H720 H 0.62477 0.23465 0.60308 0.0
H721 H 0.61178 0.25782 0.56145 0.0
H722 H 0.5159 0.05496 0.50437 0.0
H723 H 0.50117 0.07844 0.46566 0.0
H724 H 0.56017 0.0639 0.54877 0.0
H725 H 0.58431 0.09245 0.59517 0.0
C726 C 0.39601 0.54608 0.84552 0.0
C727 C 0.39729 0.57495 0.81524 0.0
C728 C 0.43657 0.62964 0.86785 0.0
C729 C 0.43216 0.60091 0.90029 0.0
N730 N 0.41721 0.53266 0.91588 0.0
N731 N 0.40895 0.64223 0.80238 0.0
C732 C 0.41436 0.55919 0.88787 0.0
C733 C 0.41462 0.61607 0.82789 0.0
N734 N 0.37522 0.50593 0.83448 0.0
N735 N 0.46422 0.66968 0.87309 0.0
H736 H 0.39291 0.6334 0.77297 0.0
H737 H 0.41624 0.67114 0.81298 0.0
H738 H 0.48627 0.67984 0.89731 0.0
H739 H 0.47014 0.69149 0.84906 0.0
H740 H 0.36972 0.48236 0.85578 0.0
H741 H 0.36047 0.49581 0.8044 0.0
H742 H 0.40804 0.50264 0.90841 0.0
H743 H 0.43241 0.5418 0.94573 0.0
C744 C 0.82471 0.43439 0.19888 0.0
C745 C 0.82902 0.41274 0.23422 0.0
C746 C 0.83851 0.37003 0.17947 0.0
C747 C 0.82591 0.38655 0.1452 0.0
N748 N 0.79929 0.43139 0.12739 0.0
N749 N 0.83382 0.35368 0.25665 0.0
C750 C 0.81689 0.41767 0.15619 0.0
C751 C 0.83444 0.37889 0.22425 0.0
N752 N 0.82838 0.47148 0.20557 0.0
N753 N 0.85616 0.34736 0.16959 0.0
H754 H 0.82951 0.35688 0.28984 0.0
H755 H 0.83317 0.3265 0.24989 0.0
H756 H 0.86195 0.34217 0.13744 0.0
H757 H 0.8695 0.33801 0.19328 0.0
H758 H 0.82463 0.48788 0.18027 0.0
H759 H 0.83979 0.48734 0.23487 0.0
H760 H 0.78837 0.41846 0.09672 0.0
H761 H 0.78837 0.41846 0.09672 0.0
C762 C 0.37896 0.7907 0.48496 0.0
C763 C 0.41417 0.82543 0.4691 0.0
C764 C 0.41134 0.86444 0.5321 0.0
C765 C 0.37672 0.82911 0.54909 0.0
N766 N 0.31835 0.76524 0.5288 0.0
N767 N 0.46759 0.89387 0.48028 0.0
C768 C 0.35783 0.79392 0.52204 0.0
C769 C 0.43149 0.86188 0.49355 0.0
N770 N 0.36622 0.75413 0.46498 0.0
N771 N 0.42255 0.90124 0.55064 0.0
H772 H 0.48275 0.89283 0.45217 0.0
H773 H 0.48425 0.91999 0.49888 0.0
H774 H 0.40556 0.90455 0.57544 0.0
H775 H 0.44505 0.9288 0.53812 0.0
H776 H 0.34349 0.72674 0.47771 0.0
H777 H 0.38142 0.75074 0.43816 0.0
H778 H 0.30266 0.73993 0.50876 0.0
H779 H 0.29922 0.77005 0.54917 0.0
C780 C 0.53068 0.39093 0.86877 0.0
C781 C 0.56044 0.39061 0.89616 0.0
C782 C 0.6114 0.42597 0.83884 0.0
C783 C 0.58109 0.42082 0.80837 0.0
N784 N 0.51013 0.39757 0.79547 0.0
N785 N 0.62646 0.39776 0.90227 0.0
C786 C 0.54015 0.40305 0.82379 0.0
C787 C 0.5999 0.40487 0.87953 0.0
N788 N 0.49343 0.3799 0.88583 0.0
N789 N 0.65107 0.45292 0.83073 0.0
H790 H 0.61852 0.38136 0.93162 0.0
H791 H 0.65426 0.40396 0.88915 0.0
H792 H 0.65992 0.47435 0.8058 0.0
H793 H 0.67398 0.45887 0.85321 0.0
H794 H 0.47199 0.38449 0.86971 0.0
H795 H 0.48467 0.36772 0.91733 0.0
H796 H 0.47944 0.3798 0.80262 0.0
H797 H 0.5159 0.40989 0.76404 0.0
C798 C 0.19848 0.59313 0.20615 0.0
C799 C 0.16328 0.56525 0.22855 0.0
C800 C 0.12526 0.5653 0.16324 0.0
C801 C 0.16037 0.60068 0.147 0.0
N802 N 0.2263 0.6553 0.16615 0.0
N803 N 0.09158 0.52044 0.22576 0.0
C804 C 0.19567 0.61693 0.17263 0.0
C805 C 0.12584 0.55019 0.20643 0.0
N806 N 0.23377 0.59343 0.21264 0.0
N807 N 0.09211 0.54576 0.13703 0.0
H808 H 0.09251 0.50689 0.25524 0.0
H809 H 0.0627 0.50996 0.21313 0.0
H810 H 0.09125 0.55685 0.10604 0.0
H811 H 0.06692 0.51797 0.14484 0.0
H812 H 0.25945 0.61137 0.19356 0.0
H813 H 0.23548 0.57313 0.23427 0.0
H814 H 0.25232 0.66807 0.18554 0.0
H815 H 0.2227 0.67497 0.14543 0.0
C816 C 0.70298 0.30369 0.40709 0.0
C817 C 0.72561 0.32169 0.36842 0.0
C818 C 0.67484 0.26701 0.3231 0.0
C819 C 0.65168 0.25002 0.36162 0.0
N820 N 0.64736 0.24425 0.44068 0.0
N821 N 0.73771 0.31847 0.29096 0.0
C822 C 0.6671 0.26575 0.40387 0.0
C823 C 0.71316 0.30234 0.32686 0.0
N824 N 0.71457 0.32397 0.44625 0.0
N825 N 0.65926 0.25037 0.28296 0.0
H826 H 0.76473 0.34581 0.29227 0.0
H827 H 0.73269 0.30408 0.26062 0.0
H828 H 0.63228 0.22309 0.27959 0.0
H829 H 0.67208 0.26388 0.25295 0.0
H830 H 0.69681 0.31474 0.4746 0.0
H831 H 0.74115 0.35166 0.44967 0.0
H832 H 0.65878 0.25239 0.47243 0.0
H833 H 0.6211 0.21605 0.43906 0.0
C834 C 0.37476 0.71226 0.63671 0.0
C835 C 0.38134 0.73205 0.67799 0.0
C836 C 0.41514 0.69615 0.70328 0.0
C837 C 0.39709 0.66818 0.66854 0.0
N838 N 0.36286 0.65139 0.59874 0.0
N839 N 0.40717 0.74167 0.75212 0.0
C840 C 0.37804 0.67695 0.6339 0.0
C841 C 0.40183 0.72407 0.71171 0.0
N842 N 0.36772 0.72836 0.60001 0.0
N843 N 0.44584 0.69716 0.72689 0.0
H844 H 0.39574 0.76069 0.76008 0.0
H845 H 0.41944 0.73415 0.77865 0.0
H846 H 0.45814 0.67909 0.71856 0.0
H847 H 0.46198 0.71925 0.75054 0.0
H848 H 0.36588 0.71675 0.56848 0.0
H849 H 0.36817 0.7559 0.60075 0.0
H850 H 0.34457 0.65387 0.57496 0.0
H851 H 0.36766 0.62689 0.59459 0.0
C852 C 0.68411 0.39908 0.99683 0.0
C853 C 0.65807 0.38369 0.03365 0.0
C854 C 0.6986 0.35519 0.06102 0.0
C855 C 0.71748 0.36176 1.01897 0.0
N856 N 0.72224 0.38464 0.94389 0.0
N857 N 0.64237 0.34918 0.10342 0.0
C858 C 0.70846 0.38214 0.9859 0.0
C859 C 0.66562 0.3619 0.06635 0.0
N860 N 0.68761 0.43133 0.97387 0.0
N861 N 0.7143 0.34636 0.09682 0.0
H862 H 0.62311 0.36006 0.11181 0.0
H863 H 0.64229 0.32798 0.12521 0.0
H864 H 0.74168 0.34687 0.09562 0.0
H865 H 0.7036 0.34455 0.1288 0.0
H866 H 0.70864 0.44527 0.94857 0.0
H867 H 0.67392 0.44746 0.98455 0.0
H868 H 0.7139 0.39706 0.91817 0.0
H869 H 0.73815 0.37027 0.93404 0.0
C870 C 0.34817 0.68263 0.30502 0.0
C871 C 0.37342 0.69781 0.34191 0.0
C872 C 0.321 0.64651 0.38873 0.0
C873 C 0.29339 0.63671 0.35334 0.0
N874 N 0.28009 0.64892 0.27913 0.0
N875 N 0.3912 0.68346 0.4124 0.0
C876 C 0.30703 0.65484 0.31146 0.0
C877 C 0.36225 0.67602 0.38182 0.0
N878 N 0.36345 0.69685 0.26411 0.0
N879 N 0.30722 0.63047 0.42949 0.0
H880 H 0.4217 0.70281 0.40557 0.0
H881 H 0.38583 0.66728 0.44162 0.0
H882 H 0.27695 0.60987 0.43559 0.0
H883 H 0.32499 0.63936 0.4577 0.0
H884 H 0.34756 0.68423 0.23511 0.0
H885 H 0.39345 0.71914 0.25951 0.0
H886 H 0.28762 0.66683 0.25095 0.0
H887 H 0.24947 0.62839 0.28248 0.0
C888 C 0.66065 0.33794 0.65334 0.0
C889 C 0.6482 0.35359 0.68856 0.0
C890 C 0.65198 0.30633 0.73965 0.0
C891 C 0.66052 0.28834 0.70345 0.0
N892 N 0.6929 0.29931 0.63302 0.0
N893 N 0.64267 0.36097 0.76689 0.0
C894 C 0.67186 0.30854 0.66263 0.0
C895 C 0.64811 0.34097 0.73249 0.0
N896 N 0.65953 0.34927 0.61101 0.0
N897 N 0.6447 0.28826 0.77999 0.0
H898 H 0.63754 0.38517 0.76254 0.0
H899 H 0.64587 0.3555 0.79977 0.0
H900 H 0.64932 0.26397 0.78591 0.0
H901 H 0.6331 0.29624 0.80681 0.0
H902 H 0.66445 0.33558 0.5838 0.0
H903 H 0.65103 0.37056 0.6031 0.0
H904 H 0.70401 0.31478 0.60339 0.0
H905 H 0.70349 0.27971 0.64117 0.0
C906 C 0.31488 0.67125 0.97748 0.0
C907 C 0.29398 0.66727 1.01724 0.0
C908 C 0.35365 0.68093 0.05945 0.0
C909 C 0.37009 0.67464 0.02072 0.0
N910 N 0.36876 0.66551 0.94211 0.0
N911 N 0.2926 0.66884 0.09642 0.0
C912 C 0.35201 0.67144 0.97918 0.0
C913 C 0.31351 0.67342 0.05843 0.0
N914 N 0.29876 0.67413 0.93853 0.0
N915 N 0.37593 0.69215 0.09724 0.0
H916 H 0.26284 0.66266 0.09604 0.0
H917 H 0.30365 0.66851 0.12762 0.0
H918 H 0.40554 0.6974 0.09801 0.0
H919 H 0.36671 0.69986 0.1262 0.0
H920 H 0.31376 0.67969 0.90844 0.0
H921 H 0.27189 0.67502 0.93734 0.0
H922 H 0.35447 0.65811 0.91161 0.0
H923 H 0.39636 0.66607 0.94252 0.0
C924 C 0.43094 -0.00688 0.40196 0.0
C925 C 0.43847 0.01848 0.36506 0.0
C926 C 0.43361 0.96607 0.31539 0.0
C927 C 0.43126 0.94246 0.35259 0.0
N928 N 0.41157 0.92576 0.42865 0.0
N929 N 0.42897 0.02364 0.28817 0.0
C930 C 0.42472 0.95349 0.39524 0.0
C931 C 0.43301 0.00255 0.32217 0.0
N932 N 0.43157 0.00759 0.44321 0.0
N933 N 0.43924 0.95529 0.27421 0.0
H934 H 0.4283 0.0504 0.29374 0.0
H935 H 0.42233 0.01278 0.25603 0.0
H936 H 0.44064 0.92913 0.268 0.0
H937 H 0.44536 0.9737 0.24663 0.0
H938 H 0.43203 0.99293 0.47194 0.0
H939 H 0.43201 0.03489 0.44836 0.0
H940 H 0.40353 0.93096 0.45973 0.0
H941 H 0.40485 0.8959 0.42387 0.0
C942 C 0.45304 0.47105 0.73449 0.0
C943 C 0.42064 0.45872 0.70486 0.0
C944 C 0.44312 0.41844 0.66351 0.0
C945 C 0.47972 0.43726 0.68803 0.0
N946 N 0.52039 0.48228 0.74669 0.0
N947 N 0.38186 0.4193 0.64328 0.0
C948 C 0.48474 0.46336 0.72395 0.0
C949 C 0.41425 0.43112 0.67058 0.0
N950 N 0.45366 0.491 0.77216 0.0
N951 N 0.43665 0.38973 0.63258 0.0
H952 H 0.35953 0.42694 0.64946 0.0
H953 H 0.37764 0.40326 0.61418 0.0
H954 H 0.45822 0.38177 0.62405 0.0
H955 H 0.40908 0.37211 0.61688 0.0
H956 H 0.47456 0.49789 0.79733 0.0
H957 H 0.43057 0.49709 0.78001 0.0
H958 H 0.52753 0.50542 0.76932 0.0
H959 H 0.54414 0.47661 0.74146 0.0
C960 C -0.01067 0.42644 1.01686 0.0
C961 C 0.96173 0.43437 0.03941 0.0
C962 C 0.01288 0.50599 0.04719 0.0
C963 C 0.03909 0.49909 0.01952 0.0
N964 N 0.05016 0.45407 0.97266 0.0
N965 N 0.94587 0.47933 0.07906 0.0
C966 C 0.02712 0.4595 1.00353 0.0
C967 C 0.97346 0.47343 0.05614 0.0
N968 N 0.97878 0.38729 1.00741 0.0
N969 N 0.02566 0.54343 0.06521 0.0
H970 H 0.91807 0.45529 0.08933 0.0
H971 H 0.94955 0.50759 0.08684 0.0
H972 H 0.05347 0.56889 0.05832 0.0
H973 H 0.00992 0.54926 0.08942 0.0
H974 H -0.00123 0.37883 0.99441 0.0
H975 H 0.95086 0.36282 1.01667 0.0
H976 H 0.04125 0.42666 0.95679 0.0
H977 H 0.07647 0.47789 0.95931 0.0
C978 C 0.01939 0.55365 0.38841 0.0
C979 C 0.03999 0.55242 0.34997 0.0
C980 C 0.97895 0.52999 0.30626 0.0
C981 C 0.95805 0.5296 0.34508 0.0
N982 N 0.96105 0.55528 0.41788 0.0
N983 N 0.04425 0.55718 0.27089 0.0
C984 C 0.97944 0.54658 0.3844 0.0
C985 C 0.02132 0.54629 0.3083 0.0
N986 N 0.03674 0.55898 0.42885 0.0
N987 N 0.95842 0.51258 0.26835 0.0
H988 H 0.07576 0.57151 0.27183 0.0
H989 H 0.03248 0.55639 0.23975 0.0
H990 H 0.92738 0.50078 0.26495 0.0
H991 H 0.97207 0.5078 0.24099 0.0
H992 H 0.02124 0.55568 0.45823 0.0
H993 H 0.06571 0.56363 0.43319 0.0
H994 H 0.97596 0.57045 0.44645 0.0
H995 H 0.93199 0.55118 0.4145 0.0
C996 C 0.45256 0.01938 0.72324 0.0
C997 C 0.47445 0.04285 0.68622 0.0
C998 C 0.42462 0.99197 0.63643 0.0
C999 C 0.40603 0.96686 0.67337 0.0
N1000 N 0.39006 0.96214 0.74998 0.0
N1001 N 0.4743 0.05859 0.6093 0.0
C1002 C 0.41576 0.98293 0.71622 0.0
C1003 C 0.45819 0.03142 0.64316 0.0
N1004 N 0.46816 0.03028 0.76462 0.0
N1005 N 0.411 0.97747 0.59521 0.0
H1006 H 0.49794 0.08818 0.61379 0.0
H1007 H 0.46227 0.05324 0.5777 0.0
H1008 H 0.38378 0.95068 0.59016 0.0
H1009 H 0.42636 0.99168 0.56641 0.0
H1010 H 0.45543 0.01205 0.79224 0.0
H1011 H 0.49566 0.05623 0.7709 0.0
H1012 H 0.39371 0.97317 0.78201 0.0
H1013 H 0.36271 0.93552 0.74424 0.0
C1014 C 0.43228 0.46847 0.05663 0.0
C1015 C 0.4529 0.5053 0.0324 0.0
C1016 C 0.4852 0.47677 0.98649 0.0
C1017 C 0.47026 0.44332 1.0153 0.0
N1018 N 0.42895 0.40494 0.07643 0.0
N1019 N 0.50046 0.54577 0.97522 0.0
C1020 C 0.44282 0.43798 0.04944 0.0
C1021 C 0.4795 0.50972 0.99726 0.0
N1022 N 0.40376 0.46324 0.08729 0.0
N1023 N 0.50508 0.47681 0.94894 0.0
H1024 H 0.49596 0.57033 0.98019 0.0
H1025 H 0.52404 0.55226 0.95343 0.0
H1026 H 0.50936 0.4526 0.94054 0.0
H1027 H 0.51367 0.49857 0.92426 0.0
H1028 H 0.38472 0.43568 0.10257 0.0
H1029 H 0.39762 0.48607 0.09619 0.0
H1030 H 0.41277 0.40126 0.10533 0.0
H1031 H 0.435 0.38146 0.0704 0.0
C1032 C 0.52712 0.22823 0.19162 0.0
C1033 C 0.53094 0.2456 0.23393 0.0
C1034 C 0.52609 0.30136 0.19947 0.0
C1035 C 0.52962 0.2877 0.15702 0.0
N1036 N 0.54479 0.24271 0.11491 0.0
N1037 N 0.54425 0.305 0.27608 0.0
C1038 C 0.53304 0.25223 0.15351 0.0
C1039 C 0.53302 0.28386 0.23747 0.0
N1040 N 0.51697 0.18855 0.18759 0.0
N1041 N 0.51529 0.33043 0.20376 0.0
H1042 H 0.55303 0.29514 0.3037 0.0
H1043 H 0.54964 0.33459 0.27886 0.0
H1044 H 0.50762 0.34224 0.17687 0.0
H1045 H 0.50934 0.3391 0.23417 0.0
H1046 H 0.51085 0.17374 0.15731 0.0
H1047 H 0.50985 0.16938 0.21471 0.0
H1048 H 0.55081 0.21891 0.11225 0.0
H1049 H 0.55363 0.26138 0.08727 0.0
C1050 C 0.2664 0.53384 0.48404 0.0
C1051 C 0.22503 0.52223 0.48892 0.0
C1052 C 0.22739 0.50247 0.56547 0.0
C1053 C 0.27021 0.52049 0.5626 0.0
N1054 N 0.33107 0.56202 0.5202 0.0
N1055 N 0.16664 0.49903 0.53585 0.0
C1056 C 0.28991 0.53833 0.52207 0.0
C1057 C 0.20569 0.50774 0.53021 0.0
N1058 N 0.2835 0.54071 0.44311 0.0
N1059 N 0.2071 0.47841 0.60056 0.0
H1060 H 0.14938 0.50073 0.51021 0.0
H1061 H 0.15241 0.49268 0.56648 0.0
H1062 H 0.22153 0.47122 0.62509 0.0
H1063 H 0.17567 0.46183 0.60265 0.0
H1064 H 0.3125 0.5454 0.43755 0.0
H1065 H 0.2675 0.53801 0.41438 0.0
H1066 H 0.34636 0.57894 0.4925 0.0
H1067 H 0.3497 0.5688 0.54758 0.0
C1068 C 0.74189 0.27519 0.86661 0.0
C1069 C 0.74799 0.25309 0.90054 0.0
C1070 C 0.70356 0.18971 0.86085 0.0
C1071 C 0.7009 0.21252 0.82538 0.0
N1072 N 0.72673 0.27737 0.78983 0.0
N1073 N 0.74084 0.18969 0.92558 0.0
C1074 C 0.72302 0.25539 0.82682 0.0
C1075 C 0.73044 0.21033 0.89658 0.0
N1076 N 0.75212 0.31472 0.87315 0.0
N1077 N 0.68004 0.14847 0.86072 0.0
H1078 H 0.76145 0.20399 0.95099 0.0
H1079 H 0.73201 0.15917 0.922 0.0
H1080 H 0.66137 0.13258 0.83434 0.0
H1081 H 0.67721 0.13041 0.88774 0.0
H1082 H 0.7447 0.33095 0.85112 0.0
H1083 H 0.76375 0.32985 0.90277 0.0
H1084 H 0.74565 0.30867 0.78793 0.0
H1085 H 0.71424 0.26379 0.75974 0.0
C1086 C 0.46185 0.70121 0.19349 0.0
C1087 C 0.4907 0.71801 0.1587 0.0
C1088 C 0.52063 0.78405 0.19686 0.0
C1089 C 0.49419 0.76541 0.23305 0.0
N1090 N 0.45116 0.70326 0.27153 0.0
N1091 N 0.5547 0.77426 0.13447 0.0
C1092 C 0.4689 0.72294 0.23331 0.0
C1093 C 0.52229 0.75923 0.1623 0.0
N1094 N 0.42591 0.66619 0.18769 0.0
N1095 N 0.54376 0.82525 0.19522 0.0
H1096 H 0.55869 0.75634 0.11137 0.0
H1097 H 0.57981 0.80312 0.13788 0.0
H1098 H 0.54435 0.84374 0.22095 0.0
H1099 H 0.56038 0.84081 0.16748 0.0
H1100 H 0.40317 0.65478 0.21157 0.0
H1101 H 0.4164 0.652 0.15722 0.0
H1102 H 0.43432 0.67173 0.27372 0.0
H1103 H 0.45702 0.71848 0.30154 0.0
C1104 C 0.68939 0.47912 0.51062 0.0
C1105 C 0.69232 0.46229 0.55119 0.0
C1106 C 0.73976 0.44452 0.51736 0.0
C1107 C 0.74032 0.46504 0.47796 0.0
N1108 N 0.72208 0.50991 0.44135 0.0
N1109 N 0.72815 0.43823 0.59597 0.0
C1110 C 0.71678 0.48452 0.47563 0.0
C1111 C 0.72018 0.44817 0.55548 0.0
N1112 N 0.66039 0.48982 0.5054 0.0
N1113 N 0.75561 0.41928 0.51785 0.0
H1114 H 0.71427 0.44017 0.62475 0.0
H1115 H 0.75119 0.43158 0.60139 0.0
H1116 H 0.76776 0.4133 0.49004 0.0
H1117 H 0.75227 0.40052 0.54441 0.0
H1118 H 0.65384 0.49804 0.47514 0.0
H1119 H 0.64105 0.48784 0.53085 0.0
H1120 H 0.70843 0.52772 0.43994 0.0
H1121 H 0.74348 0.51652 0.41662 0.0
C1122 C 0.2293 0.74383 0.8755 0.0
C1123 C 0.21662 0.70205 0.88217 0.0
C1124 C 0.24689 0.7017 0.8105 0.0
C1125 C 0.2645 0.74421 0.80718 0.0
N1126 N 0.27679 0.80712 0.83945 0.0
N1127 N 0.22475 0.64521 0.86002 0.0
C1128 C 0.25721 0.76576 0.84075 0.0
C1129 C 0.22831 0.68197 0.85063 0.0
N1130 N 0.21299 0.76206 0.90032 0.0
N1131 N 0.24776 0.6798 0.77534 0.0
H1132 H 0.21654 0.63155 0.89085 0.0
H1133 H 0.2354 0.63089 0.83919 0.0
H1134 H 0.26269 0.69293 0.7459 0.0
H1135 H 0.22979 0.64841 0.77413 0.0
H1136 H 0.21856 0.79135 0.89434 0.0
H1137 H 0.19025 0.74647 0.92349 0.0
H1138 H 0.27604 0.8247 0.86534 0.0
H1139 H 0.29622 0.82386 0.81379 0.0
loop_
_geom_bond_atom_site_label_1
_geom_bond_atom_site_label_2
_geom_bond_distance
_geom_bond_site_symmetry_2
_ccdc_geom_bond_type
Co0 O2 2.143 . S
Co0 O8 2.074 . S
Co0 O11 2.093 . S
Co0 O24 2.097 . S
Co0 N41 2.151 . S
Co0 N49 2.214 . S
Co1 O2 2.160 . S
Co1 O7 2.058 . S
Co1 O17 2.057 . S
Co1 O32 2.037 . S
Co1 N36 2.145 . S
Co1 N57 2.257 . S
O2 Co0 2.143 . S
O2 Co1 2.160 . S
C3 O4 1.278 . S
C3 O11 1.224 . S
O4 C3 1.278 . S
C5 O6 1.245 . S
C5 O17 1.232 . S
O6 C5 1.245 . S
O7 Co1 2.058 . S
O7 C33 1.269 . S
O8 Co0 2.074 . S
O8 C33 1.257 . S
H9 C34 0.930 . S
H10 C40 0.930 . S
O11 Co0 2.093 . S
O11 C3 1.224 . S
H12 C44 0.929 . S
H13 C46 0.930 . S
H14 C47 0.930 . S
H15 C45 0.929 . S
H16 C48 0.928 . S
O17 Co1 2.057 . S
O17 C5 1.232 . S
H18 C37 0.929 . S
H19 C38 0.929 . S
H20 C50 0.931 . S
H21 C42 0.929 . S
H22 C51 0.930 . S
H23 C43 0.931 . S
O24 Co0 2.097 . S
O24 C52 1.214 . S
H25 C53 0.929 . S
H26 C54 0.929 . S
H27 C55 0.930 . S
H28 C56 0.929 . S
H29 C58 0.930 . S
H30 C35 0.930 . S
H31 C39 0.930 . S
O32 Co1 2.037 . S
O32 C52 1.234 . S
C33 O7 1.269 . S
C33 O8 1.257 . S
C34 H9 0.930 . S
C34 C37 1.388 . S
C34 C39 1.418 . S
C35 H30 0.930 . S
C35 C38 1.404 . S
C35 C39 1.353 . S
N36 Co1 2.145 . S
N36 C37 1.397 . S
N36 C38 1.334 . S
C37 H18 0.929 . S
C37 C34 1.388 . S
C37 N36 1.397 . S
C38 H19 0.929 . S
C38 C35 1.404 . S
C38 N36 1.334 . S
C39 H31 0.930 . S
C39 C34 1.418 . S
C39 C35 1.353 . S
C40 H10 0.930 . S
C40 N41 1.330 . S
C40 C42 1.446 . S
N41 Co0 2.151 . S
N41 C40 1.330 . S
N41 C45 1.418 . S
C42 H21 0.929 . S
C42 C40 1.446 . S
C42 C43 1.332 . S
C43 H23 0.931 . S
C43 C42 1.332 . S
C43 C44 1.267 . S
C44 H12 0.929 . S
C44 C43 1.267 . S
C44 C45 1.251 . S
C45 H15 0.929 . S
C45 N41 1.418 . S
C45 C44 1.251 . S
C46 H13 0.930 . S
C46 C48 1.406 . S
C46 C51 1.261 . S
C47 H14 0.930 . S
C47 N49 1.325 . S
C47 C50 1.357 . S
C48 H16 0.928 . S
C48 C46 1.406 . S
C48 N49 1.261 . S
N49 Co0 2.214 . S
N49 C47 1.325 . S
N49 C48 1.261 . S
C50 H20 0.931 . S
C50 C47 1.357 . S
C50 C51 1.312 . S
C51 H22 0.930 . S
C51 C46 1.261 . S
C51 C50 1.312 . S
C52 O24 1.214 . S
C52 O32 1.234 . S
C53 H25 0.929 . S
C53 C56 1.391 . S
C53 C58 1.391 . S
C54 H26 0.929 . S
C54 C55 1.390 . S
C54 N57 1.391 . S
C55 H27 0.930 . S
C55 C54 1.390 . S
C55 C56 1.392 . S
C56 H28 0.929 . S
C56 C53 1.391 . S
C56 C55 1.392 . S
N57 Co1 2.257 . S
N57 C54 1.391 . S
N57 C58 1.388 . S
C58 H29 0.930 . S
C58 C53 1.391 . S
C58 N57 1.388 . S
Co59 O61 2.143 . S
Co59 O67 2.074 . S
Co59 O70 2.093 . S
Co59 O83 2.097 . S
Co59 N100 2.151 . S
Co59 N108 2.214 . S
Co60 O61 2.160 . S
Co60 O66 2.058 . S
Co60 O76 2.057 . S
Co60 O91 2.037 . S
Co60 N95 2.145 . S
Co60 N116 2.257 . S
O61 Co59 2.143 . S
O61 Co60 2.160 . S
C62 O63 1.278 . S
C62 O70 1.224 . S
O63 C62 1.278 . S
C64 O65 1.245 . S
C64 O76 1.232 . S
O65 C64 1.245 . S
O66 Co60 2.058 . S
O66 C92 1.269 . S
O67 Co59 2.074 . S
O67 C92 1.257 . S
H68 C93 0.930 . S
H69 C99 0.930 . S
O70 Co59 2.093 . S
O70 C62 1.224 . S
H71 C103 0.929 . S
H72 C105 0.930 . S
H73 C106 0.930 . S
H74 C104 0.929 . S
H75 C107 0.928 . S
O76 Co60 2.057 . S
O76 C64 1.232 . S
H77 C96 0.929 . S
H78 C97 0.929 . S
H79 C109 0.931 . S
H80 C101 0.929 . S
H81 C110 0.930 . S
H82 C102 0.931 . S
O83 Co59 2.097 . S
O83 C111 1.214 . S
H84 C112 0.929 . S
H85 C113 0.929 . S
H86 C114 0.930 . S
H87 C115 0.929 . S
H88 C117 0.930 . S
H89 C94 0.930 . S
H90 C98 0.930 . S
O91 Co60 2.037 . S
O91 C111 1.234 . S
C92 O66 1.269 . S
C92 O67 1.257 . S
C93 H68 0.930 . S
C93 C96 1.388 . S
C93 C98 1.418 . S
C94 H89 0.930 . S
C94 C97 1.404 . S
C94 C98 1.353 . S
N95 Co60 2.145 . S
N95 C96 1.397 . S
N95 C97 1.334 . S
C96 H77 0.929 . S
C96 C93 1.388 . S
C96 N95 1.397 . S
C97 H78 0.929 . S
C97 C94 1.404 . S
C97 N95 1.334 . S
C98 H90 0.930 . S
C98 C93 1.418 . S
C98 C94 1.353 . S
C99 H69 0.930 . S
C99 N100 1.330 . S
C99 C101 1.446 . S
N100 Co59 2.151 . S
N100 C99 1.330 . S
N100 C104 1.418 . S
C101 H80 0.929 . S
C101 C99 1.446 . S
C101 C102 1.332 . S
C102 H82 0.931 . S
C102 C101 1.332 . S
C102 C103 1.267 . S
C103 H71 0.929 . S
C103 C102 1.267 . S
C103 C104 1.251 . S
C104 H74 0.929 . S
C104 N100 1.418 . S
C104 C103 1.251 . S
C105 H72 0.930 . S
C105 C107 1.406 . S
C105 C110 1.261 . S
C106 H73 0.930 . S
C106 N108 1.325 . S
C106 C109 1.357 . S
C107 H75 0.928 . S
C107 C105 1.406 . S
C107 N108 1.261 . S
N108 Co59 2.214 . S
N108 C106 1.325 . S
N108 C107 1.261 . S
C109 H79 0.931 . S
C109 C106 1.357 . S
C109 C110 1.312 . S
C110 H81 0.930 . S
C110 C105 1.261 . S
C110 C109 1.312 . S
C111 O83 1.214 . S
C111 O91 1.234 . S
C112 H84 0.929 . S
C112 C115 1.391 . S
C112 C117 1.391 . S
C113 H85 0.929 . S
C113 C114 1.390 . S
C113 N116 1.391 . S
C114 H86 0.930 . S
C114 C113 1.390 . S
C114 C115 1.392 . S
C115 H87 0.929 . S
C115 C112 1.391 . S
C115 C114 1.392 . S
N116 Co60 2.257 . S
N116 C113 1.391 . S
N116 C117 1.388 . S
C117 H88 0.930 . S
C117 C112 1.391 . S
C117 N116 1.388 . S
Co118 O120 2.143 1_554 S
Co118 O126 2.074 . S
Co118 O129 2.093 1_554 S
Co118 O142 2.097 1_554 S
Co118 N159 2.151 . S
Co118 N167 2.214 . S
Co119 O120 2.160 1_554 S
Co119 O125 2.058 . S
Co119 O135 2.057 1_554 S
Co119 O150 2.037 . S
Co119 N154 2.145 . S
Co119 N175 2.257 1_554 S
O120 Co118 2.143 1_556 S
O120 Co119 2.160 1_556 S
C121 O122 1.278 . S
C121 O129 1.224 . S
O122 C121 1.278 . S
C123 O124 1.245 . S
C123 O135 1.232 . S
O124 C123 1.245 . S
O125 Co119 2.058 . S
O125 C151 1.269 . S
O126 Co118 2.074 . S
O126 C151 1.257 . S
H127 C152 0.930 . S
H128 C158 0.930 . S
O129 Co118 2.093 1_556 S
O129 C121 1.224 . S
H130 C162 0.929 . S
H131 C164 0.930 . S
H132 C165 0.930 . S
H133 C163 0.929 . S
H134 C166 0.928 . S
O135 Co119 2.057 1_556 S
O135 C123 1.232 . S
H136 C155 0.929 . S
H137 C156 0.929 . S
H138 C168 0.931 . S
H139 C160 0.929 . S
H140 C169 0.930 . S
H141 C161 0.931 . S
O142 Co118 2.097 1_556 S
O142 C170 1.214 1_556 S
H143 C171 0.929 . S
H144 C172 0.929 . S
H145 C173 0.930 . S
H146 C174 0.929 . S
H147 C176 0.930 . S
H148 C153 0.930 . S
H149 C157 0.930 . S
O150 Co119 2.037 . S
O150 C170 1.234 . S
C151 O125 1.269 . S
C151 O126 1.257 . S
C152 H127 0.930 . S
C152 C155 1.388 . S
C152 C157 1.418 . S
C153 H148 0.930 . S
C153 C156 1.404 . S
C153 C157 1.353 . S
N154 Co119 2.145 . S
N154 C155 1.397 . S
N154 C156 1.334 . S
C155 H136 0.929 . S
C155 C152 1.388 . S
C155 N154 1.397 . S
C156 H137 0.929 . S
C156 C153 1.404 . S
C156 N154 1.334 . S
C157 H149 0.930 . S
C157 C152 1.418 . S
C157 C153 1.353 . S
C158 H128 0.930 . S
C158 N159 1.330 1_556 S
C158 C160 1.446 . S
N159 Co118 2.151 . S
N159 C158 1.330 1_554 S
N159 C163 1.418 . S
C160 H139 0.929 . S
C160 C158 1.446 . S
C160 C161 1.332 1_556 S
C161 H141 0.931 . S
C161 C160 1.332 1_554 S
C161 C162 1.267 . S
C162 H130 0.929 . S
C162 C161 1.267 . S
C162 C163 1.251 . S
C163 H133 0.929 . S
C163 N159 1.418 . S
C163 C162 1.251 . S
C164 H131 0.930 . S
C164 C166 1.406 . S
C164 C169 1.261 . S
C165 H132 0.930 . S
C165 N167 1.325 . S
C165 C168 1.357 . S
C166 H134 0.928 . S
C166 C164 1.406 . S
C166 N167 1.261 . S
N167 Co118 2.214 . S
N167 C165 1.325 . S
N167 C166 1.261 . S
C168 H138 0.931 . S
C168 C165 1.357 . S
C168 C169 1.312 . S
C169 H140 0.930 . S
C169 C164 1.261 . S
C169 C168 1.312 . S
C170 O142 1.214 1_554 S
C170 O150 1.234 . S
C171 H143 0.929 . S
C171 C174 1.391 . S
C171 C176 1.391 . S
C172 H144 0.929 . S
C172 C173 1.390 . S
C172 N175 1.391 . S
C173 H145 0.930 . S
C173 C172 1.390 . S
C173 C174 1.392 . S
C174 H146 0.929 . S
C174 C171 1.391 . S
C174 C173 1.392 . S
N175 Co119 2.257 1_556 S
N175 C172 1.391 . S
N175 C176 1.388 . S
C176 H147 0.930 . S
C176 C171 1.391 . S
C176 N175 1.388 . S
Co177 O179 2.143 . S
Co177 O185 2.074 . S
Co177 O188 2.093 . S
Co177 O201 2.097 . S
Co177 N218 2.151 . S
Co177 N226 2.214 . S
Co178 O179 2.160 . S
Co178 O184 2.058 . S
Co178 O194 2.057 . S
Co178 O209 2.037 . S
Co178 N213 2.145 . S
Co178 N234 2.257 . S
O179 Co177 2.143 . S
O179 Co178 2.160 . S
C180 O181 1.278 . S
C180 O188 1.224 . S
O181 C180 1.278 . S
C182 O183 1.245 . S
C182 O194 1.232 . S
O183 C182 1.245 . S
O184 Co178 2.058 . S
O184 C210 1.269 . S
O185 Co177 2.074 . S
O185 C210 1.257 . S
H186 C211 0.930 . S
H187 C217 0.930 . S
O188 Co177 2.093 . S
O188 C180 1.224 . S
H189 C221 0.929 . S
H190 C223 0.930 . S
H191 C224 0.930 . S
H192 C222 0.929 . S
H193 C225 0.928 . S
O194 Co178 2.057 . S
O194 C182 1.232 . S
H195 C214 0.929 . S
H196 C215 0.929 . S
H197 C227 0.931 . S
H198 C219 0.929 . S
H199 C228 0.930 . S
H200 C220 0.931 . S
O201 Co177 2.097 . S
O201 C229 1.214 . S
H202 C230 0.929 . S
H203 C231 0.929 . S
H204 C232 0.930 . S
H205 C233 0.929 . S
H206 C235 0.930 . S
H207 C212 0.930 . S
H208 C216 0.930 . S
O209 Co178 2.037 . S
O209 C229 1.234 . S
C210 O184 1.269 . S
C210 O185 1.257 . S
C211 H186 0.930 . S
C211 C214 1.388 . S
C211 C216 1.418 . S
C212 H207 0.930 . S
C212 C215 1.404 . S
C212 C216 1.353 . S
N213 Co178 2.145 . S
N213 C214 1.397 . S
N213 C215 1.334 . S
C214 H195 0.929 . S
C214 C211 1.388 . S
C214 N213 1.397 . S
C215 H196 0.929 . S
C215 C212 1.404 . S
C215 N213 1.334 . S
C216 H208 0.930 . S
C216 C211 1.418 . S
C216 C212 1.353 . S
C217 H187 0.930 . S
C217 N218 1.330 . S
C217 C219 1.446 . S
N218 Co177 2.151 . S
N218 C217 1.330 . S
N218 C222 1.418 . S
C219 H198 0.929 . S
C219 C217 1.446 . S
C219 C220 1.332 . S
C220 H200 0.931 . S
C220 C219 1.332 . S
C220 C221 1.267 . S
C221 H189 0.929 . S
C221 C220 1.267 . S
C221 C222 1.251 . S
C222 H192 0.929 . S
C222 N218 1.418 . S
C222 C221 1.251 . S
C223 H190 0.930 . S
C223 C225 1.406 . S
C223 C228 1.261 . S
C224 H191 0.930 . S
C224 N226 1.325 . S
C224 C227 1.357 . S
C225 H193 0.928 . S
C225 C223 1.406 . S
C225 N226 1.261 . S
N226 Co177 2.214 . S
N226 C224 1.325 . S
N226 C225 1.261 . S
C227 H197 0.931 . S
C227 C224 1.357 . S
C227 C228 1.312 . S
C228 H199 0.930 . S
C228 C223 1.261 . S
C228 C227 1.312 . S
C229 O201 1.214 . S
C229 O209 1.234 . S
C230 H202 0.929 . S
C230 C233 1.391 . S
C230 C235 1.391 . S
C231 H203 0.929 . S
C231 C232 1.390 . S
C231 N234 1.391 . S
C232 H204 0.930 . S
C232 C231 1.390 . S
C232 C233 1.392 . S
C233 H205 0.929 . S
C233 C230 1.391 . S
C233 C232 1.392 . S
N234 Co178 2.257 . S
N234 C231 1.391 . S
N234 C235 1.388 . S
C235 H206 0.930 . S
C235 C230 1.391 . S
C235 N234 1.388 . S
Co236 O238 2.143 . S
Co236 O244 2.074 . S
Co236 O247 2.093 . S
Co236 O260 2.097 . S
Co236 N277 2.151 . S
Co236 N285 2.214 . S
Co237 O238 2.160 . S
Co237 O243 2.058 . S
Co237 O253 2.057 . S
Co237 O268 2.037 . S
Co237 N272 2.145 . S
Co237 N293 2.257 . S
O238 Co236 2.143 . S
O238 Co237 2.160 . S
C239 O240 1.278 . S
C239 O247 1.224 . S
O240 C239 1.278 . S
C241 O242 1.245 . S
C241 O253 1.232 . S
O242 C241 1.245 . S
O243 Co237 2.058 . S
O243 C269 1.269 . S
O244 Co236 2.074 . S
O244 C269 1.257 . S
H245 C270 0.930 . S
H246 C276 0.930 . S
O247 Co236 2.093 . S
O247 C239 1.224 . S
H248 C280 0.929 . S
H249 C282 0.930 . S
H250 C283 0.930 . S
H251 C281 0.929 . S
H252 C284 0.928 . S
O253 Co237 2.057 . S
O253 C241 1.232 . S
H254 C273 0.929 . S
H255 C274 0.929 . S
H256 C286 0.931 . S
H257 C278 0.929 . S
H258 C287 0.930 . S
H259 C279 0.931 . S
O260 Co236 2.097 . S
O260 C288 1.214 . S
H261 C289 0.929 . S
H262 C290 0.929 . S
H263 C291 0.930 . S
H264 C292 0.929 . S
H265 C294 0.930 . S
H266 C271 0.930 . S
H267 C275 0.930 . S
O268 Co237 2.037 . S
O268 C288 1.234 . S
C269 O243 1.269 . S
C269 O244 1.257 . S
C270 H245 0.930 . S
C270 C273 1.388 . S
C270 C275 1.418 . S
C271 H266 0.930 . S
C271 C274 1.404 . S
C271 C275 1.353 . S
N272 Co237 2.145 . S
N272 C273 1.397 . S
N272 C274 1.334 . S
C273 H254 0.929 . S
C273 C270 1.388 . S
C273 N272 1.397 . S
C274 H255 0.929 . S
C274 C271 1.404 . S
C274 N272 1.334 . S
C275 H267 0.930 . S
C275 C270 1.418 . S
C275 C271 1.353 . S
C276 H246 0.930 . S
C276 N277 1.330 . S
C276 C278 1.446 . S
N277 Co236 2.151 . S
N277 C276 1.330 . S
N277 C281 1.418 . S
C278 H257 0.929 . S
C278 C276 1.446 . S
C278 C279 1.332 . S
C279 H259 0.931 . S
C279 C278 1.332 . S
C279 C280 1.267 . S
C280 H248 0.929 . S
C280 C279 1.267 . S
C280 C281 1.251 . S
C281 H251 0.929 . S
C281 N277 1.418 . S
C281 C280 1.251 . S
C282 H249 0.930 . S
C282 C284 1.406 . S
C282 C287 1.261 . S
C283 H250 0.930 . S
C283 N285 1.325 . S
C283 C286 1.357 . S
C284 H252 0.928 . S
C284 C282 1.406 . S
C284 N285 1.261 . S
N285 Co236 2.214 . S
N285 C283 1.325 . S
N285 C284 1.261 . S
C286 H256 0.931 . S
C286 C283 1.357 . S
C286 C287 1.312 . S
C287 H258 0.930 . S
C287 C282 1.261 . S
C287 C286 1.312 . S
C288 O260 1.214 . S
C288 O268 1.234 . S
C289 H261 0.929 . S
C289 C292 1.391 . S
C289 C294 1.391 . S
C290 H262 0.929 . S
C290 C291 1.390 . S
C290 N293 1.391 . S
C291 H263 0.930 . S
C291 C290 1.390 . S
C291 C292 1.392 . S
C292 H264 0.929 . S
C292 C289 1.391 . S
C292 C291 1.392 . S
N293 Co237 2.257 . S
N293 C290 1.391 . S
N293 C294 1.388 . S
C294 H265 0.930 . S
C294 C289 1.391 . S
C294 N293 1.388 . S
Co295 O297 2.143 1_554 S
Co295 O303 2.074 . S
Co295 O306 2.093 1_554 S
Co295 O319 2.097 1_554 S
Co295 N336 2.151 . S
Co295 N344 2.214 . S
Co296 O297 2.160 1_554 S
Co296 O302 2.058 . S
Co296 O312 2.057 1_554 S
Co296 O327 2.037 . S
Co296 N331 2.145 . S
Co296 N352 2.257 1_554 S
O297 Co295 2.143 1_556 S
O297 Co296 2.160 1_556 S
C298 O299 1.278 . S
C298 O306 1.224 . S
O299 C298 1.278 . S
C300 O301 1.245 . S
C300 O312 1.232 . S
O301 C300 1.245 . S
O302 Co296 2.058 . S
O302 C328 1.269 . S
O303 Co295 2.074 . S
O303 C328 1.257 . S
H304 C329 0.930 . S
H305 C335 0.930 . S
O306 Co295 2.093 1_556 S
O306 C298 1.224 . S
H307 C339 0.929 . S
H308 C341 0.930 . S
H309 C342 0.930 . S
H310 C340 0.929 . S
H311 C343 0.928 . S
O312 Co296 2.057 1_556 S
O312 C300 1.232 . S
H313 C332 0.929 . S
H314 C333 0.929 . S
H315 C345 0.931 . S
H316 C337 0.929 . S
H317 C346 0.930 . S
H318 C338 0.931 . S
O319 Co295 2.097 1_556 S
O319 C347 1.214 1_556 S
H320 C348 0.929 . S
H321 C349 0.929 . S
H322 C350 0.930 . S
H323 C351 0.929 . S
H324 C353 0.930 . S
H325 C330 0.930 . S
H326 C334 0.930 . S
O327 Co296 2.037 . S
O327 C347 1.234 . S
C328 O302 1.269 . S
C328 O303 1.257 . S
C329 H304 0.930 . S
C329 C332 1.388 . S
C329 C334 1.418 . S
C330 H325 0.930 . S
C330 C333 1.404 . S
C330 C334 1.353 . S
N331 Co296 2.145 . S
N331 C332 1.397 . S
N331 C333 1.334 . S
C332 H313 0.929 . S
C332 C329 1.388 . S
C332 N331 1.397 . S
C333 H314 0.929 . S
C333 C330 1.404 . S
C333 N331 1.334 . S
C334 H326 0.930 . S
C334 C329 1.418 . S
C334 C330 1.353 . S
C335 H305 0.930 . S
C335 N336 1.330 1_556 S
C335 C337 1.446 . S
N336 Co295 2.151 . S
N336 C335 1.330 1_554 S
N336 C340 1.418 . S
C337 H316 0.929 . S
C337 C335 1.446 . S
C337 C338 1.332 1_556 S
C338 H318 0.931 . S
C338 C337 1.332 1_554 S
C338 C339 1.267 . S
C339 H307 0.929 . S
C339 C338 1.267 . S
C339 C340 1.251 . S
C340 H310 0.929 . S
C340 N336 1.418 . S
C340 C339 1.251 . S
C341 H308 0.930 . S
C341 C343 1.406 . S
C341 C346 1.261 . S
C342 H309 0.930 . S
C342 N344 1.325 . S
C342 C345 1.357 . S
C343 H311 0.928 . S
C343 C341 1.406 . S
C343 N344 1.261 . S
N344 Co295 2.214 . S
N344 C342 1.325 . S
N344 C343 1.261 . S
C345 H315 0.931 . S
C345 C342 1.357 . S
C345 C346 1.312 . S
C346 H317 0.930 . S
C346 C341 1.261 . S
C346 C345 1.312 . S
C347 O319 1.214 1_554 S
C347 O327 1.234 . S
C348 H320 0.929 . S
C348 C351 1.391 . S
C348 C353 1.391 . S
C349 H321 0.929 . S
C349 C350 1.390 . S
C349 N352 1.391 . S
C350 H322 0.930 . S
C350 C349 1.390 . S
C350 C351 1.392 . S
C351 H323 0.929 . S
C351 C348 1.391 . S
C351 C350 1.392 . S
N352 Co296 2.257 1_556 S
N352 C349 1.391 . S
N352 C353 1.388 . S
C353 H324 0.930 . S
C353 C348 1.391 . S
C353 N352 1.388 . S
Co354 O356 2.143 . S
Co354 O362 2.074 . S
Co354 O365 2.093 . S
Co354 O378 2.097 . S
Co354 N395 2.151 . S
Co354 N403 2.214 . S
Co355 O356 2.160 . S
Co355 O361 2.058 . S
Co355 O371 2.057 . S
Co355 O386 2.037 . S
Co355 N390 2.145 . S
Co355 N411 2.257 . S
O356 Co354 2.143 . S
O356 Co355 2.160 . S
C357 O358 1.278 . S
C357 O365 1.224 . S
O358 C357 1.278 . S
C359 O360 1.245 . S
C359 O371 1.232 . S
O360 C359 1.245 . S
O361 Co355 2.058 . S
O361 C387 1.269 . S
O362 Co354 2.074 . S
O362 C387 1.257 . S
H363 C388 0.930 . S
H364 C394 0.930 . S
O365 Co354 2.093 . S
O365 C357 1.224 . S
H366 C398 0.929 . S
H367 C400 0.930 . S
H368 C401 0.930 . S
H369 C399 0.929 . S
H370 C402 0.928 . S
O371 Co355 2.057 . S
O371 C359 1.232 . S
H372 C391 0.929 . S
H373 C392 0.929 . S
H374 C404 0.931 . S
H375 C396 0.929 . S
H376 C405 0.930 . S
H377 C397 0.931 . S
O378 Co354 2.097 . S
O378 C406 1.214 . S
H379 C407 0.929 . S
H380 C408 0.929 . S
H381 C409 0.930 . S
H382 C410 0.929 . S
H383 C412 0.930 . S
H384 C389 0.930 . S
H385 C393 0.930 . S
O386 Co355 2.037 . S
O386 C406 1.234 . S
C387 O361 1.269 . S
C387 O362 1.257 . S
C388 H363 0.930 . S
C388 C391 1.388 . S
C388 C393 1.418 . S
C389 H384 0.930 . S
C389 C392 1.404 . S
C389 C393 1.353 . S
N390 Co355 2.145 . S
N390 C391 1.397 . S
N390 C392 1.334 . S
C391 H372 0.929 . S
C391 C388 1.388 . S
C391 N390 1.397 . S
C392 H373 0.929 . S
C392 C389 1.404 . S
C392 N390 1.334 . S
C393 H385 0.930 . S
C393 C388 1.418 . S
C393 C389 1.353 . S
C394 H364 0.930 . S
C394 N395 1.330 . S
C394 C396 1.446 . S
N395 Co354 2.151 . S
N395 C394 1.330 . S
N395 C399 1.418 . S
C396 H375 0.929 . S
C396 C394 1.446 . S
C396 C397 1.332 . S
C397 H377 0.931 . S
C397 C396 1.332 . S
C397 C398 1.267 . S
C398 H366 0.929 . S
C398 C397 1.267 . S
C398 C399 1.251 . S
C399 H369 0.929 . S
C399 N395 1.418 . S
C399 C398 1.251 . S
C400 H367 0.930 . S
C400 C402 1.406 . S
C400 C405 1.261 . S
C401 H368 0.930 . S
C401 N403 1.325 . S
C401 C404 1.357 . S
C402 H370 0.928 . S
C402 C400 1.406 . S
C402 N403 1.261 . S
N403 Co354 2.214 . S
N403 C401 1.325 . S
N403 C402 1.261 . S
C404 H374 0.931 . S
C404 C401 1.357 . S
C404 C405 1.312 . S
C405 H376 0.930 . S
C405 C400 1.261 . S
C405 C404 1.312 . S
C406 O378 1.214 . S
C406 O386 1.234 . S
C407 H379 0.929 . S
C407 C410 1.391 . S
C407 C412 1.391 . S
C408 H380 0.929 . S
C408 C409 1.390 . S
C408 N411 1.391 . S
C409 H381 0.930 . S
C409 C408 1.390 . S
C409 C410 1.392 . S
C410 H382 0.929 . S
C410 C407 1.391 . S
C410 C409 1.392 . S
N411 Co355 2.257 . S
N411 C408 1.391 . S
N411 C412 1.388 . S
C412 H383 0.930 . S
C412 C407 1.391 . S
C412 N411 1.388 . S
Co413 O415 2.143 . S
Co413 O421 2.074 . S
Co413 O424 2.093 . S
Co413 O437 2.097 . S
Co413 N454 2.151 . S
Co413 N462 2.214 . S
Co414 O415 2.160 . S
Co414 O420 2.058 . S
Co414 O430 2.057 . S
Co414 O445 2.037 . S
Co414 N449 2.145 . S
Co414 N470 2.257 . S
O415 Co413 2.143 . S
O415 Co414 2.160 . S
C416 O417 1.278 . S
C416 O424 1.224 . S
O417 C416 1.278 . S
C418 O419 1.245 . S
C418 O430 1.232 . S
O419 C418 1.245 . S
O420 Co414 2.058 . S
O420 C446 1.269 . S
O421 Co413 2.074 . S
O421 C446 1.257 . S
H422 C447 0.930 . S
H423 C453 0.930 . S
O424 Co413 2.093 . S
O424 C416 1.224 . S
H425 C457 0.929 . S
H426 C459 0.930 . S
H427 C460 0.930 . S
H428 C458 0.929 . S
H429 C461 0.928 . S
O430 Co414 2.057 . S
O430 C418 1.232 . S
H431 C450 0.929 . S
H432 C451 0.929 . S
H433 C463 0.931 . S
H434 C455 0.929 . S
H435 C464 0.930 . S
H436 C456 0.931 . S
O437 Co413 2.097 . S
O437 C465 1.214 . S
H438 C466 0.929 . S
H439 C467 0.929 . S
H440 C468 0.930 . S
H441 C469 0.929 . S
H442 C471 0.930 . S
H443 C448 0.930 . S
H444 C452 0.930 . S
O445 Co414 2.037 . S
O445 C465 1.234 . S
C446 O420 1.269 . S
C446 O421 1.257 . S
C447 H422 0.930 . S
C447 C450 1.388 . S
C447 C452 1.418 . S
C448 H443 0.930 . S
C448 C451 1.404 . S
C448 C452 1.353 . S
N449 Co414 2.145 . S
N449 C450 1.397 . S
N449 C451 1.334 . S
C450 H431 0.929 . S
C450 C447 1.388 . S
C450 N449 1.397 . S
C451 H432 0.929 . S
C451 C448 1.404 . S
C451 N449 1.334 . S
C452 H444 0.930 . S
C452 C447 1.418 . S
C452 C448 1.353 . S
C453 H423 0.930 . S
C453 N454 1.330 . S
C453 C455 1.446 . S
N454 Co413 2.151 . S
N454 C453 1.330 . S
N454 C458 1.418 . S
C455 H434 0.929 . S
C455 C453 1.446 . S
C455 C456 1.332 . S
C456 H436 0.931 . S
C456 C455 1.332 . S
C456 C457 1.267 . S
C457 H425 0.929 . S
C457 C456 1.267 . S
C457 C458 1.251 . S
C458 H428 0.929 . S
C458 N454 1.418 . S
C458 C457 1.251 . S
C459 H426 0.930 . S
C459 C461 1.406 . S
C459 C464 1.261 . S
C460 H427 0.930 . S
C460 N462 1.325 . S
C460 C463 1.357 . S
C461 H429 0.928 . S
C461 C459 1.406 . S
C461 N462 1.261 . S
N462 Co413 2.214 . S
N462 C460 1.325 . S
N462 C461 1.261 . S
C463 H433 0.931 . S
C463 C460 1.357 . S
C463 C464 1.312 . S
C464 H435 0.930 . S
C464 C459 1.261 . S
C464 C463 1.312 . S
C465 O437 1.214 . S
C465 O445 1.234 . S
C466 H438 0.929 . S
C466 C469 1.391 . S
C466 C471 1.391 . S
C467 H439 0.929 . S
C467 C468 1.390 . S
C467 N470 1.391 . S
C468 H440 0.930 . S
C468 C467 1.390 . S
C468 C469 1.392 . S
C469 H441 0.929 . S
C469 C466 1.391 . S
C469 C468 1.392 . S
N470 Co414 2.257 . S
N470 C467 1.391 . S
N470 C471 1.388 . S
C471 H442 0.930 . S
C471 C466 1.391 . S
C471 N470 1.388 . S
Co472 O474 2.150 . S
Co472 O480 2.055 1_554 S
Co472 O483 2.111 . S
Co472 O496 2.101 . S
Co472 N513 2.147 1_554 S
Co472 N521 2.206 1_554 S
Co473 O474 2.160 1_556 S
Co473 O479 2.058 . S
Co473 O489 2.057 1_556 S
Co473 O504 2.037 . S
Co473 N508 2.145 . S
Co473 N529 2.257 1_556 S
O474 Co472 2.150 . S
O474 Co473 2.160 1_554 S
C475 O476 1.278 . S
C475 O483 1.224 . S
O476 C475 1.278 . S
C477 O478 1.245 . S
C477 O489 1.232 . S
O478 C477 1.245 . S
O479 Co473 2.058 . S
O479 C505 1.269 . S
O480 Co472 2.055 1_556 S
O480 C505 1.257 . S
H481 C506 0.930 . S
H482 C512 0.930 . S
O483 Co472 2.111 . S
O483 C475 1.224 . S
H484 C516 0.929 . S
H485 C518 0.930 . S
H486 C519 0.930 . S
H487 C517 0.929 . S
H488 C520 0.928 1_554 S
O489 Co473 2.057 1_554 S
O489 C477 1.232 . S
H490 C509 0.929 . S
H491 C510 0.929 1_554 S
H492 C522 0.931 . S
H493 C514 0.929 . S
H494 C523 0.930 . S
H495 C515 0.931 . S
O496 Co472 2.101 . S
O496 C524 1.214 . S
H497 C525 0.929 . S
H498 C526 0.929 . S
H499 C527 0.930 . S
H500 C528 0.929 . S
H501 C530 0.930 . S
H502 C507 0.930 . S
H503 C511 0.930 . S
O504 Co473 2.037 . S
O504 C524 1.234 1_556 S
C505 O479 1.269 . S
C505 O480 1.257 . S
C506 H481 0.930 . S
C506 C509 1.388 . S
C506 C511 1.418 . S
C507 H502 0.930 . S
C507 C510 1.404 . S
C507 C511 1.353 . S
N508 Co473 2.145 . S
N508 C509 1.397 . S
N508 C510 1.334 . S
C509 H490 0.929 . S
C509 C506 1.388 . S
C509 N508 1.397 . S
C510 H491 0.929 1_556 S
C510 C507 1.404 . S
C510 N508 1.334 . S
C511 H503 0.930 . S
C511 C506 1.418 . S
C511 C507 1.353 . S
C512 H482 0.930 . S
C512 N513 1.330 1_554 S
C512 C514 1.446 . S
N513 Co472 2.147 1_556 S
N513 C512 1.330 1_556 S
N513 C517 1.418 . S
C514 H493 0.929 . S
C514 C512 1.446 . S
C514 C515 1.332 1_554 S
C515 H495 0.931 . S
C515 C514 1.332 1_556 S
C515 C516 1.267 . S
C516 H484 0.929 . S
C516 C515 1.267 . S
C516 C517 1.251 . S
C517 H487 0.929 . S
C517 N513 1.418 . S
C517 C516 1.251 . S
C518 H485 0.930 . S
C518 C520 1.406 . S
C518 C523 1.261 . S
C519 H486 0.930 . S
C519 N521 1.325 . S
C519 C522 1.357 . S
C520 H488 0.928 1_556 S
C520 C518 1.406 . S
C520 N521 1.261 . S
N521 Co472 2.206 1_556 S
N521 C519 1.325 . S
N521 C520 1.261 . S
C522 H492 0.931 . S
C522 C519 1.357 . S
C522 C523 1.312 . S
C523 H494 0.930 . S
C523 C518 1.261 . S
C523 C522 1.312 . S
C524 O496 1.214 . S
C524 O504 1.234 1_554 S
C525 H497 0.929 . S
C525 C528 1.391 . S
C525 C530 1.391 . S
C526 H498 0.929 . S
C526 C527 1.390 . S
C526 N529 1.391 . S
C527 H499 0.930 . S
C527 C526 1.390 . S
C527 C528 1.392 . S
C528 H500 0.929 . S
C528 C525 1.391 . S
C528 C527 1.392 . S
N529 Co473 2.257 1_554 S
N529 C526 1.391 . S
N529 C530 1.388 . S
C530 H501 0.930 . S
C530 C525 1.391 . S
C530 N529 1.388 . S
Co531 O533 2.143 . S
Co531 O539 2.074 . S
Co531 O542 2.093 . S
Co531 O555 2.097 . S
Co531 N572 2.151 . S
Co531 N580 2.214 . S
Co532 O533 2.160 . S
Co532 O538 2.058 . S
Co532 O548 2.057 . S
Co532 O563 2.037 . S
Co532 N567 2.145 . S
Co532 N588 2.257 . S
O533 Co531 2.143 . S
O533 Co532 2.160 . S
C534 O535 1.278 . S
C534 O542 1.224 . S
O535 C534 1.278 . S
C536 O537 1.245 . S
C536 O548 1.232 . S
O537 C536 1.245 . S
O538 Co532 2.058 . S
O538 C564 1.269 . S
O539 Co531 2.074 . S
O539 C564 1.257 . S
H540 C565 0.930 . S
H541 C571 0.930 . S
O542 Co531 2.093 . S
O542 C534 1.224 . S
H543 C575 0.929 . S
H544 C577 0.930 . S
H545 C578 0.930 . S
H546 C576 0.929 . S
H547 C579 0.928 . S
O548 Co532 2.057 . S
O548 C536 1.232 . S
H549 C568 0.929 . S
H550 C569 0.929 . S
H551 C581 0.931 . S
H552 C573 0.929 . S
H553 C582 0.930 . S
H554 C574 0.931 . S
O555 Co531 2.097 . S
O555 C583 1.214 . S
H556 C584 0.929 . S
H557 C585 0.929 . S
H558 C586 0.930 . S
H559 C587 0.929 . S
H560 C589 0.930 . S
H561 C566 0.930 . S
H562 C570 0.930 . S
O563 Co532 2.037 . S
O563 C583 1.234 . S
C564 O538 1.269 . S
C564 O539 1.257 . S
C565 H540 0.930 . S
C565 C568 1.388 . S
C565 C570 1.418 . S
C566 H561 0.930 . S
C566 C569 1.404 . S
C566 C570 1.353 . S
N567 Co532 2.145 . S
N567 C568 1.397 . S
N567 C569 1.334 . S
C568 H549 0.929 . S
C568 C565 1.388 . S
C568 N567 1.397 . S
C569 H550 0.929 . S
C569 C566 1.404 . S
C569 N567 1.334 . S
C570 H562 0.930 . S
C570 C565 1.418 . S
C570 C566 1.353 . S
C571 H541 0.930 . S
C571 N572 1.330 . S
C571 C573 1.446 . S
N572 Co531 2.151 . S
N572 C571 1.330 . S
N572 C576 1.418 . S
C573 H552 0.929 . S
C573 C571 1.446 . S
C573 C574 1.332 . S
C574 H554 0.931 . S
C574 C573 1.332 . S
C574 C575 1.267 . S
C575 H543 0.929 . S
C575 C574 1.267 . S
C575 C576 1.251 . S
C576 H546 0.929 . S
C576 N572 1.418 . S
C576 C575 1.251 . S
C577 H544 0.930 . S
C577 C579 1.406 . S
C577 C582 1.261 . S
C578 H545 0.930 . S
C578 N580 1.325 . S
C578 C581 1.357 . S
C579 H547 0.928 . S
C579 C577 1.406 . S
C579 N580 1.261 . S
N580 Co531 2.214 . S
N580 C578 1.325 . S
N580 C579 1.261 . S
C581 H551 0.931 . S
C581 C578 1.357 . S
C581 C582 1.312 . S
C582 H553 0.930 . S
C582 C577 1.261 . S
C582 C581 1.312 . S
C583 O555 1.214 . S
C583 O563 1.234 . S
C584 H556 0.929 . S
C584 C587 1.391 . S
C584 C589 1.391 . S
C585 H557 0.929 . S
C585 C586 1.390 . S
C585 N588 1.391 . S
C586 H558 0.930 . S
C586 C585 1.390 . S
C586 C587 1.392 . S
C587 H559 0.929 . S
C587 C584 1.391 . S
C587 C586 1.392 . S
N588 Co532 2.257 . S
N588 C585 1.391 . S
N588 C589 1.388 . S
C589 H560 0.930 . S
C589 C584 1.391 . S
C589 N588 1.388 . S
Co590 O592 2.143 . S
Co590 O598 2.074 . S
Co590 O601 2.093 . S
Co590 O614 2.097 . S
Co590 N631 2.151 . S
Co590 N639 2.214 . S
Co591 O592 2.160 . S
Co591 O597 2.058 . S
Co591 O607 2.057 . S
Co591 O622 2.037 . S
Co591 N626 2.145 . S
Co591 N647 2.257 . S
O592 Co590 2.143 . S
O592 Co591 2.160 . S
C593 O594 1.278 . S
C593 O601 1.224 . S
O594 C593 1.278 . S
C595 O596 1.245 . S
C595 O607 1.232 . S
O596 C595 1.245 . S
O597 Co591 2.058 . S
O597 C623 1.269 . S
O598 Co590 2.074 . S
O598 C623 1.257 . S
H599 C624 0.930 . S
H600 C630 0.930 . S
O601 Co590 2.093 . S
O601 C593 1.224 . S
H602 C634 0.929 . S
H603 C636 0.930 . S
H604 C637 0.930 . S
H605 C635 0.929 . S
H606 C638 0.928 . S
O607 Co591 2.057 . S
O607 C595 1.232 . S
H608 C627 0.929 . S
H609 C628 0.929 . S
H610 C640 0.931 . S
H611 C632 0.929 . S
H612 C641 0.930 . S
H613 C633 0.931 . S
O614 Co590 2.097 . S
O614 C642 1.214 . S
H615 C643 0.929 . S
H616 C644 0.929 . S
H617 C645 0.930 . S
H618 C646 0.929 . S
H619 C648 0.930 . S
H620 C625 0.930 . S
H621 C629 0.930 . S
O622 Co591 2.037 . S
O622 C642 1.234 . S
C623 O597 1.269 . S
C623 O598 1.257 . S
C624 H599 0.930 . S
C624 C627 1.388 . S
C624 C629 1.418 . S
C625 H620 0.930 . S
C625 C628 1.404 . S
C625 C629 1.353 . S
N626 Co591 2.145 . S
N626 C627 1.397 . S
N626 C628 1.334 . S
C627 H608 0.929 . S
C627 C624 1.388 . S
C627 N626 1.397 . S
C628 H609 0.929 . S
C628 C625 1.404 . S
C628 N626 1.334 . S
C629 H621 0.930 . S
C629 C624 1.418 . S
C629 C625 1.353 . S
C630 H600 0.930 . S
C630 N631 1.330 . S
C630 C632 1.446 . S
N631 Co590 2.151 . S
N631 C630 1.330 . S
N631 C635 1.418 . S
C632 H611 0.929 . S
C632 C630 1.446 . S
C632 C633 1.332 . S
C633 H613 0.931 . S
C633 C632 1.332 . S
C633 C634 1.267 . S
C634 H602 0.929 . S
C634 C633 1.267 . S
C634 C635 1.251 . S
C635 H605 0.929 . S
C635 N631 1.418 . S
C635 C634 1.251 . S
C636 H603 0.930 . S
C636 C638 1.406 . S
C636 C641 1.261 . S
C637 H604 0.930 . S
C637 N639 1.325 . S
C637 C640 1.357 . S
C638 H606 0.928 . S
C638 C636 1.406 . S
C638 N639 1.261 . S
N639 Co590 2.214 . S
N639 C637 1.325 . S
N639 C638 1.261 . S
C640 H610 0.931 . S
C640 C637 1.357 . S
C640 C641 1.312 . S
C641 H612 0.930 . S
C641 C636 1.261 . S
C641 C640 1.312 . S
C642 O614 1.214 . S
C642 O622 1.234 . S
C643 H615 0.929 . S
C643 C646 1.391 . S
C643 C648 1.391 . S
C644 H616 0.929 . S
C644 C645 1.390 . S
C644 N647 1.391 . S
C645 H617 0.930 . S
C645 C644 1.390 . S
C645 C646 1.392 . S
C646 H618 0.929 . S
C646 C643 1.391 . S
C646 C645 1.392 . S
N647 Co591 2.257 . S
N647 C644 1.391 . S
N647 C648 1.388 . S
C648 H619 0.930 . S
C648 C643 1.391 . S
C648 N647 1.388 . S
Co649 O651 2.150 . S
Co649 O657 2.055 1_554 S
Co649 O660 2.111 . S
Co649 O673 2.101 . S
Co649 N690 2.147 1_554 S
Co649 N698 2.206 1_554 S
Co650 O651 2.160 1_556 S
Co650 O656 2.058 . S
Co650 O666 2.057 1_556 S
Co650 O681 2.037 . S
Co650 N685 2.145 . S
Co650 N706 2.257 1_556 S
O651 Co649 2.150 . S
O651 Co650 2.160 1_554 S
C652 O653 1.278 . S
C652 O660 1.224 . S
O653 C652 1.278 . S
C654 O655 1.245 . S
C654 O666 1.232 . S
O655 C654 1.245 . S
O656 Co650 2.058 . S
O656 C682 1.269 . S
O657 Co649 2.055 1_556 S
O657 C682 1.257 . S
H658 C683 0.930 . S
H659 C689 0.930 . S
O660 Co649 2.111 . S
O660 C652 1.224 . S
H661 C693 0.929 . S
H662 C695 0.930 . S
H663 C696 0.930 . S
H664 C694 0.929 . S
H665 C697 0.928 1_554 S
O666 Co650 2.057 1_554 S
O666 C654 1.232 . S
H667 C686 0.929 . S
H668 C687 0.929 1_554 S
H669 C699 0.931 . S
H670 C691 0.929 . S
H671 C700 0.930 . S
H672 C692 0.931 . S
O673 Co649 2.101 . S
O673 C701 1.214 . S
H674 C702 0.929 . S
H675 C703 0.929 . S
H676 C704 0.930 . S
H677 C705 0.929 . S
H678 C707 0.930 . S
H679 C684 0.930 . S
H680 C688 0.930 . S
O681 Co650 2.037 . S
O681 C701 1.234 1_556 S
C682 O656 1.269 . S
C682 O657 1.257 . S
C683 H658 0.930 . S
C683 C686 1.388 . S
C683 C688 1.418 . S
C684 H679 0.930 . S
C684 C687 1.404 . S
C684 C688 1.353 . S
N685 Co650 2.145 . S
N685 C686 1.397 . S
N685 C687 1.334 . S
C686 H667 0.929 . S
C686 C683 1.388 . S
C686 N685 1.397 . S
C687 H668 0.929 1_556 S
C687 C684 1.404 . S
C687 N685 1.334 . S
C688 H680 0.930 . S
C688 C683 1.418 . S
C688 C684 1.353 . S
C689 H659 0.930 . S
C689 N690 1.330 1_554 S
C689 C691 1.446 . S
N690 Co649 2.147 1_556 S
N690 C689 1.330 1_556 S
N690 C694 1.418 . S
C691 H670 0.929 . S
C691 C689 1.446 . S
C691 C692 1.332 1_554 S
C692 H672 0.931 . S
C692 C691 1.332 1_556 S
C692 C693 1.267 . S
C693 H661 0.929 . S
C693 C692 1.267 . S
C693 C694 1.251 . S
C694 H664 0.929 . S
C694 N690 1.418 . S
C694 C693 1.251 . S
C695 H662 0.930 . S
C695 C697 1.406 . S
C695 C700 1.261 . S
C696 H663 0.930 . S
C696 N698 1.325 . S
C696 C699 1.357 . S
C697 H665 0.928 1_556 S
C697 C695 1.406 . S
C697 N698 1.261 . S
N698 Co649 2.206 1_556 S
N698 C696 1.325 . S
N698 C697 1.261 . S
C699 H669 0.931 . S
C699 C696 1.357 . S
C699 C700 1.312 . S
C700 H671 0.930 . S
C700 C695 1.261 . S
C700 C699 1.312 . S
C701 O673 1.214 . S
C701 O681 1.234 1_554 S
C702 H674 0.929 . S
C702 C705 1.391 . S
C702 C707 1.391 . S
C703 H675 0.929 . S
C703 C704 1.390 . S
C703 N706 1.391 . S
C704 H676 0.930 . S
C704 C703 1.390 . S
C704 C705 1.392 . S
C705 H677 0.929 . S
C705 C702 1.391 . S
C705 C704 1.392 . S
N706 Co650 2.257 1_554 S
N706 C703 1.391 . S
N706 C707 1.388 . S
C707 H678 0.930 . S
C707 C702 1.391 . S
C707 N706 1.388 . S
C708 C709 1.363 . S
C708 C714 1.379 . S
C708 N716 1.356 . S
C709 C708 1.363 . S
C709 C715 1.363 . S
C710 C711 1.363 . S
C710 C715 1.379 . S
C710 N717 1.356 . S
C711 C710 1.363 . S
C711 C714 1.363 . S
N712 C714 1.356 . S
N712 H724 0.984 . S
N712 H725 0.985 . S
N713 C715 1.356 . S
N713 H718 0.984 . S
N713 H719 0.985 . S
C714 C708 1.379 . S
C714 C711 1.363 . S
C714 N712 1.356 . S
C715 C709 1.363 . S
C715 C710 1.379 . S
C715 N713 1.356 . S
N716 C708 1.356 . S
N716 H722 0.984 . S
N716 H723 0.984 . S
N717 C710 1.356 . S
N717 H720 0.984 . S
N717 H721 0.985 . S
H718 N713 0.984 . S
H719 N713 0.985 . S
H720 N717 0.984 . S
H721 N717 0.985 . S
H722 N716 0.984 . S
H723 N716 0.984 . S
H724 N712 0.984 . S
H725 N712 0.985 . S
C726 C727 1.363 . S
C726 C732 1.379 . S
C726 N734 1.356 . S
C727 C726 1.363 . S
C727 C733 1.363 . S
C728 C729 1.363 . S
C728 C733 1.379 . S
C728 N735 1.356 . S
C729 C728 1.363 . S
C729 C732 1.363 . S
N730 C732 1.356 . S
N730 H742 0.984 . S
N730 H743 0.985 . S
N731 C733 1.356 . S
N731 H736 0.984 . S
N731 H737 0.985 . S
C732 C726 1.379 . S
C732 C729 1.363 . S
C732 N730 1.356 . S
C733 C727 1.363 . S
C733 C728 1.379 . S
C733 N731 1.356 . S
N734 C726 1.356 . S
N734 H740 0.984 . S
N734 H741 0.984 . S
N735 C728 1.356 . S
N735 H738 0.984 . S
N735 H739 0.985 . S
H736 N731 0.984 . S
H737 N731 0.985 . S
H738 N735 0.984 . S
H739 N735 0.985 . S
H740 N734 0.984 . S
H741 N734 0.984 . S
H742 N730 0.984 . S
H743 N730 0.985 . S
C744 C745 1.363 . S
C744 C750 1.379 . S
C744 N752 1.356 . S
C745 C744 1.363 . S
C745 C751 1.363 . S
C746 C747 1.363 . S
C746 C751 1.379 . S
C746 N753 1.356 . S
C747 C746 1.363 . S
C747 C750 1.363 . S
N748 C750 1.356 . S
N748 H760 0.984 . S
N748 H761 0.985 . S
N749 C751 1.356 . S
N749 H754 0.984 . S
N749 H755 0.985 . S
C750 C744 1.379 . S
C750 C747 1.363 . S
C750 N748 1.356 . S
C751 C745 1.363 . S
C751 C746 1.379 . S
C751 N749 1.356 . S
N752 C744 1.356 . S
N752 H758 0.984 . S
N752 H759 0.984 . S
N753 C746 1.356 . S
N753 H756 0.984 . S
N753 H757 0.985 . S
H754 N749 0.984 . S
H755 N749 0.985 . S
H756 N753 0.984 . S
H757 N753 0.985 . S
H758 N752 0.984 . S
H759 N752 0.984 . S
H760 N748 0.984 . S
H761 N748 0.985 . S
C762 C763 1.363 . S
C762 C768 1.379 . S
C762 N770 1.356 . S
C763 C762 1.363 . S
C763 C769 1.363 . S
C764 C765 1.363 . S
C764 C769 1.379 . S
C764 N771 1.356 . S
C765 C764 1.363 . S
C765 C768 1.363 . S
N766 C768 1.356 . S
N766 H778 0.984 . S
N766 H779 0.985 . S
N767 C769 1.356 . S
N767 H772 0.984 . S
N767 H773 0.985 . S
C768 C762 1.379 . S
C768 C765 1.363 . S
C768 N766 1.356 . S
C769 C763 1.363 . S
C769 C764 1.379 . S
C769 N767 1.356 . S
N770 C762 1.356 . S
N770 H776 0.984 . S
N770 H777 0.984 . S
N771 C764 1.356 . S
N771 H774 0.984 . S
N771 H775 0.985 . S
H772 N767 0.984 . S
H773 N767 0.985 . S
H774 N771 0.984 . S
H775 N771 0.985 . S
H776 N770 0.984 . S
H777 N770 0.984 . S
H778 N766 0.984 . S
H779 N766 0.985 . S
C780 C781 1.363 . S
C780 C786 1.379 . S
C780 N788 1.356 . S
C781 C780 1.363 . S
C781 C787 1.363 . S
C782 C783 1.363 . S
C782 C787 1.379 . S
C782 N789 1.356 . S
C783 C782 1.363 . S
C783 C786 1.363 . S
N784 C786 1.356 . S
N784 H796 0.984 . S
N784 H797 0.985 . S
N785 C787 1.356 . S
N785 H790 0.984 . S
N785 H791 0.985 . S
C786 C780 1.379 . S
C786 C783 1.363 . S
C786 N784 1.356 . S
C787 C781 1.363 . S
C787 C782 1.379 . S
C787 N785 1.356 . S
N788 C780 1.356 . S
N788 H794 0.984 . S
N788 H795 0.984 . S
N789 C782 1.356 . S
N789 H792 0.984 . S
N789 H793 0.985 . S
H790 N785 0.984 . S
H791 N785 0.985 . S
H792 N789 0.984 . S
H793 N789 0.985 . S
H794 N788 0.984 . S
H795 N788 0.984 . S
H796 N784 0.984 . S
H797 N784 0.985 . S
C798 C799 1.363 . S
C798 C804 1.379 . S
C798 N806 1.356 . S
C799 C798 1.363 . S
C799 C805 1.363 . S
C800 C801 1.363 . S
C800 C805 1.379 . S
C800 N807 1.356 . S
C801 C800 1.363 . S
C801 C804 1.363 . S
N802 C804 1.356 . S
N802 H814 0.984 . S
N802 H815 0.985 . S
N803 C805 1.356 . S
N803 H808 0.984 . S
N803 H809 0.985 . S
C804 C798 1.379 . S
C804 C801 1.363 . S
C804 N802 1.356 . S
C805 C799 1.363 . S
C805 C800 1.379 . S
C805 N803 1.356 . S
N806 C798 1.356 . S
N806 H812 0.984 . S
N806 H813 0.984 . S
N807 C800 1.356 . S
N807 H810 0.984 . S
N807 H811 0.985 . S
H808 N803 0.984 . S
H809 N803 0.985 . S
H810 N807 0.984 . S
H811 N807 0.985 . S
H812 N806 0.984 . S
H813 N806 0.984 . S
H814 N802 0.984 . S
H815 N802 0.985 . S
C816 C817 1.363 . S
C816 C822 1.379 . S
C816 N824 1.356 . S
C817 C816 1.363 . S
C817 C823 1.363 . S
C818 C819 1.363 . S
C818 C823 1.379 . S
C818 N825 1.356 . S
C819 C818 1.363 . S
C819 C822 1.363 . S
N820 C822 1.356 . S
N820 H832 0.984 . S
N820 H833 0.985 . S
N821 C823 1.356 . S
N821 H826 0.984 . S
N821 H827 0.985 . S
C822 C816 1.379 . S
C822 C819 1.363 . S
C822 N820 1.356 . S
C823 C817 1.363 . S
C823 C818 1.379 . S
C823 N821 1.356 . S
N824 C816 1.356 . S
N824 H830 0.984 . S
N824 H831 0.984 . S
N825 C818 1.356 . S
N825 H828 0.984 . S
N825 H829 0.985 . S
H826 N821 0.984 . S
H827 N821 0.985 . S
H828 N825 0.984 . S
H829 N825 0.985 . S
H830 N824 0.984 . S
H831 N824 0.984 . S
H832 N820 0.984 . S
H833 N820 0.985 . S
C834 C835 1.363 . S
C834 C840 1.379 . S
C834 N842 1.356 . S
C835 C834 1.363 . S
C835 C841 1.363 . S
C836 C837 1.363 . S
C836 C841 1.379 . S
C836 N843 1.356 . S
C837 C836 1.363 . S
C837 C840 1.363 . S
N838 C840 1.356 . S
N838 H850 0.984 . S
N838 H851 0.985 . S
N839 C841 1.356 . S
N839 H844 0.984 . S
N839 H845 0.985 . S
C840 C834 1.379 . S
C840 C837 1.363 . S
C840 N838 1.356 . S
C841 C835 1.363 . S
C841 C836 1.379 . S
C841 N839 1.356 . S
N842 C834 1.356 . S
N842 H848 0.984 . S
N842 H849 0.984 . S
N843 C836 1.356 . S
N843 H846 0.984 . S
N843 H847 0.985 . S
H844 N839 0.984 . S
H845 N839 0.985 . S
H846 N843 0.984 . S
H847 N843 0.985 . S
H848 N842 0.984 . S
H849 N842 0.984 . S
H850 N838 0.984 . S
H851 N838 0.985 . S
C852 C853 1.360 1_556 S
C852 C858 1.379 . S
C852 N860 1.356 . S
C853 C852 1.360 1_554 S
C853 C859 1.366 . S
C854 C855 1.363 . S
C854 C859 1.379 . S
C854 N861 1.356 . S
C855 C854 1.363 . S
C855 C858 1.363 1_554 S
N856 C858 1.356 . S
N856 H868 0.984 . S
N856 H869 0.985 . S
N857 C859 1.356 . S
N857 H862 0.984 . S
N857 H863 0.985 . S
C858 C852 1.379 . S
C858 C855 1.363 1_556 S
C858 N856 1.356 . S
C859 C853 1.366 . S
C859 C854 1.379 . S
C859 N857 1.356 . S
N860 C852 1.356 . S
N860 H866 0.984 . S
N860 H867 0.984 . S
N861 C854 1.356 . S
N861 H864 0.984 . S
N861 H865 0.985 . S
H862 N857 0.984 . S
H863 N857 0.985 . S
H864 N861 0.984 . S
H865 N861 0.985 . S
H866 N860 0.984 . S
H867 N860 0.984 . S
H868 N856 0.984 . S
H869 N856 0.985 . S
C870 C871 1.363 . S
C870 C876 1.379 . S
C870 N878 1.356 . S
C871 C870 1.363 . S
C871 C877 1.363 . S
C872 C873 1.363 . S
C872 C877 1.379 . S
C872 N879 1.356 . S
C873 C872 1.363 . S
C873 C876 1.363 . S
N874 C876 1.356 . S
N874 H886 0.984 . S
N874 H887 0.985 . S
N875 C877 1.356 . S
N875 H880 0.984 . S
N875 H881 0.985 . S
C876 C870 1.379 . S
C876 C873 1.363 . S
C876 N874 1.356 . S
C877 C871 1.363 . S
C877 C872 1.379 . S
C877 N875 1.356 . S
N878 C870 1.356 . S
N878 H884 0.984 . S
N878 H885 0.984 . S
N879 C872 1.356 . S
N879 H882 0.984 . S
N879 H883 0.985 . S
H880 N875 0.984 . S
H881 N875 0.985 . S
H882 N879 0.984 . S
H883 N879 0.985 . S
H884 N878 0.984 . S
H885 N878 0.984 . S
H886 N874 0.984 . S
H887 N874 0.985 . S
C888 C889 1.363 . S
C888 C894 1.379 . S
C888 N896 1.356 . S
C889 C888 1.363 . S
C889 C895 1.363 . S
C890 C891 1.363 . S
C890 C895 1.379 . S
C890 N897 1.356 . S
C891 C890 1.363 . S
C891 C894 1.363 . S
N892 C894 1.356 . S
N892 H904 0.984 . S
N892 H905 0.985 . S
N893 C895 1.356 . S
N893 H898 0.984 . S
N893 H899 0.985 . S
C894 C888 1.379 . S
C894 C891 1.363 . S
C894 N892 1.356 . S
C895 C889 1.363 . S
C895 C890 1.379 . S
C895 N893 1.356 . S
N896 C888 1.356 . S
N896 H902 0.984 . S
N896 H903 0.984 . S
N897 C890 1.356 . S
N897 H900 0.984 . S
N897 H901 0.985 . S
H898 N893 0.984 . S
H899 N893 0.985 . S
H900 N897 0.984 . S
H901 N897 0.985 . S
H902 N896 0.984 . S
H903 N896 0.984 . S
H904 N892 0.984 . S
H905 N892 0.985 . S
C906 C907 1.363 1_556 S
C906 C912 1.379 . S
C906 N914 1.356 . S
C907 C906 1.363 1_554 S
C907 C913 1.363 . S
C908 C909 1.366 . S
C908 C913 1.379 . S
C908 N915 1.356 . S
C909 C908 1.366 . S
C909 C912 1.360 1_554 S
N910 C912 1.356 . S
N910 H922 0.984 . S
N910 H923 0.985 . S
N911 C913 1.356 . S
N911 H916 0.984 . S
N911 H917 0.985 . S
C912 C906 1.379 . S
C912 C909 1.360 1_556 S
C912 N910 1.356 . S
C913 C907 1.363 . S
C913 C908 1.379 . S
C913 N911 1.356 . S
N914 C906 1.356 . S
N914 H920 0.984 . S
N914 H921 0.984 . S
N915 C908 1.356 . S
N915 H918 0.984 . S
N915 H919 0.985 . S
H916 N911 0.984 . S
H917 N911 0.985 . S
H918 N915 0.984 . S
H919 N915 0.985 . S
H920 N914 0.984 . S
H921 N914 0.984 . S
H922 N910 0.984 . S
H923 N910 0.985 . S
C924 C925 1.363 . S
C924 C930 1.379 1_545 S
C924 N932 1.356 . S
C925 C924 1.363 . S
C925 C931 1.363 . S
C926 C927 1.363 . S
C926 C931 1.379 1_565 S
C926 N933 1.356 . S
C927 C926 1.363 . S
C927 C930 1.363 . S
N928 C930 1.356 . S
N928 H940 0.984 . S
N928 H941 0.985 . S
N929 C931 1.356 . S
N929 H934 0.984 . S
N929 H935 0.985 . S
C930 C924 1.379 1_565 S
C930 C927 1.363 . S
C930 N928 1.356 . S
C931 C925 1.363 . S
C931 C926 1.379 1_545 S
C931 N929 1.356 . S
N932 C924 1.356 . S
N932 H938 0.984 . S
N932 H939 0.984 . S
N933 C926 1.356 . S
N933 H936 0.984 . S
N933 H937 0.985 . S
H934 N929 0.984 . S
H935 N929 0.985 . S
H936 N933 0.984 . S
H937 N933 0.985 . S
H938 N932 0.984 . S
H939 N932 0.984 . S
H940 N928 0.984 . S
H941 N928 0.985 . S
C942 C943 1.363 . S
C942 C948 1.379 . S
C942 N950 1.356 . S
C943 C942 1.363 . S
C943 C949 1.363 . S
C944 C945 1.363 . S
C944 C949 1.379 . S
C944 N951 1.356 . S
C945 C944 1.363 . S
C945 C948 1.363 . S
N946 C948 1.356 . S
N946 H958 0.984 . S
N946 H959 0.985 . S
N947 C949 1.356 . S
N947 H952 0.984 . S
N947 H953 0.985 . S
C948 C942 1.379 . S
C948 C945 1.363 . S
C948 N946 1.356 . S
C949 C943 1.363 . S
C949 C944 1.379 . S
C949 N947 1.356 . S
N950 C942 1.356 . S
N950 H956 0.984 . S
N950 H957 0.984 . S
N951 C944 1.356 . S
N951 H954 0.984 . S
N951 H955 0.985 . S
H952 N947 0.984 . S
H953 N947 0.985 . S
H954 N951 0.984 . S
H955 N951 0.985 . S
H956 N950 0.984 . S
H957 N950 0.984 . S
H958 N946 0.984 . S
H959 N946 0.985 . S
C960 C961 1.363 . S
C960 C966 1.379 1_655 S
C960 N968 1.356 . S
C961 C960 1.363 . S
C961 C967 1.363 1_556 S
C962 C963 1.363 1_554 S
C962 C967 1.379 1_455 S
C962 N969 1.356 . S
C963 C962 1.363 1_556 S
C963 C966 1.363 . S
N964 C966 1.356 . S
N964 H976 0.984 . S
N964 H977 0.985 . S
N965 C967 1.356 . S
N965 H970 0.984 . S
N965 H971 0.985 . S
C966 C960 1.379 1_455 S
C966 C963 1.363 . S
C966 N964 1.356 . S
C967 C961 1.363 1_554 S
C967 C962 1.379 1_655 S
C967 N965 1.356 . S
N968 C960 1.356 . S
N968 H974 0.984 . S
N968 H975 0.984 . S
N969 C962 1.356 . S
N969 H972 0.984 . S
N969 H973 0.985 . S
H970 N965 0.984 . S
H971 N965 0.985 . S
H972 N969 0.984 . S
H973 N969 0.985 . S
H974 N968 0.984 . S
H975 N968 0.984 . S
H976 N964 0.984 . S
H977 N964 0.985 . S
C978 C979 1.363 . S
C978 C984 1.379 1_455 S
C978 N986 1.356 . S
C979 C978 1.363 . S
C979 C985 1.363 . S
C980 C981 1.363 . S
C980 C985 1.379 1_655 S
C980 N987 1.356 . S
C981 C980 1.363 . S
C981 C984 1.363 . S
N982 C984 1.356 . S
N982 H994 0.984 . S
N982 H995 0.985 . S
N983 C985 1.356 . S
N983 H988 0.984 . S
N983 H989 0.985 . S
C984 C978 1.379 1_655 S
C984 C981 1.363 . S
C984 N982 1.356 . S
C985 C979 1.363 . S
C985 C980 1.379 1_455 S
C985 N983 1.356 . S
N986 C978 1.356 . S
N986 H992 0.984 . S
N986 H993 0.984 . S
N987 C980 1.356 . S
N987 H990 0.984 . S
N987 H991 0.985 . S
H988 N983 0.984 . S
H989 N983 0.985 . S
H990 N987 0.984 . S
H991 N987 0.985 . S
H992 N986 0.984 . S
H993 N986 0.984 . S
H994 N982 0.984 . S
H995 N982 0.985 . S
C996 C997 1.363 . S
C996 C1002 1.379 1_545 S
C996 N1004 1.356 . S
C997 C996 1.363 . S
C997 C1003 1.363 . S
C998 C999 1.363 . S
C998 C1003 1.379 1_565 S
C998 N1005 1.356 . S
C999 C998 1.363 . S
C999 C1002 1.363 . S
N1000 C1002 1.356 . S
N1000 H1012 0.984 . S
N1000 H1013 0.985 . S
N1001 C1003 1.356 . S
N1001 H1006 0.984 . S
N1001 H1007 0.985 . S
C1002 C996 1.379 1_565 S
C1002 C999 1.363 . S
C1002 N1000 1.356 . S
C1003 C997 1.363 . S
C1003 C998 1.379 1_545 S
C1003 N1001 1.356 . S
N1004 C996 1.356 . S
N1004 H1010 0.984 . S
N1004 H1011 0.984 . S
N1005 C998 1.356 . S
N1005 H1008 0.984 . S
N1005 H1009 0.985 . S
H1006 N1001 0.984 . S
H1007 N1001 0.985 . S
H1008 N1005 0.984 . S
H1009 N1005 0.985 . S
H1010 N1004 0.984 . S
H1011 N1004 0.984 . S
H1012 N1000 0.984 . S
H1013 N1000 0.985 . S
C1014 C1015 1.363 . S
C1014 C1020 1.379 . S
C1014 N1022 1.356 . S
C1015 C1014 1.363 . S
C1015 C1021 1.363 1_554 S
C1016 C1017 1.363 1_556 S
C1016 C1021 1.379 . S
C1016 N1023 1.356 . S
C1017 C1016 1.363 1_554 S
C1017 C1020 1.363 . S
N1018 C1020 1.356 . S
N1018 H1030 0.984 . S
N1018 H1031 0.985 . S
N1019 C1021 1.356 . S
N1019 H1024 0.984 . S
N1019 H1025 0.985 . S
C1020 C1014 1.379 . S
C1020 C1017 1.363 . S
C1020 N1018 1.356 . S
C1021 C1015 1.363 1_556 S
C1021 C1016 1.379 . S
C1021 N1019 1.356 . S
N1022 C1014 1.356 . S
N1022 H1028 0.984 . S
N1022 H1029 0.984 . S
N1023 C1016 1.356 . S
N1023 H1026 0.984 . S
N1023 H1027 0.985 . S
H1024 N1019 0.984 . S
H1025 N1019 0.985 . S
H1026 N1023 0.984 . S
H1027 N1023 0.985 . S
H1028 N1022 0.984 . S
H1029 N1022 0.984 . S
H1030 N1018 0.984 . S
H1031 N1018 0.985 . S
C1032 C1033 1.363 . S
C1032 C1038 1.379 . S
C1032 N1040 1.356 . S
C1033 C1032 1.363 . S
C1033 C1039 1.363 . S
C1034 C1035 1.363 . S
C1034 C1039 1.379 . S
C1034 N1041 1.356 . S
C1035 C1034 1.363 . S
C1035 C1038 1.363 . S
N1036 C1038 1.356 . S
N1036 H1048 0.984 . S
N1036 H1049 0.985 . S
N1037 C1039 1.356 . S
N1037 H1042 0.984 . S
N1037 H1043 0.985 . S
C1038 C1032 1.379 . S
C1038 C1035 1.363 . S
C1038 N1036 1.356 . S
C1039 C1033 1.363 . S
C1039 C1034 1.379 . S
C1039 N1037 1.356 . S
N1040 C1032 1.356 . S
N1040 H1046 0.984 . S
N1040 H1047 0.984 . S
N1041 C1034 1.356 . S
N1041 H1044 0.984 . S
N1041 H1045 0.985 . S
H1042 N1037 0.984 . S
H1043 N1037 0.985 . S
H1044 N1041 0.984 . S
H1045 N1041 0.985 . S
H1046 N1040 0.984 . S
H1047 N1040 0.984 . S
H1048 N1036 0.984 . S
H1049 N1036 0.985 . S
C1050 C1051 1.363 . S
C1050 C1056 1.379 . S
C1050 N1058 1.356 . S
C1051 C1050 1.363 . S
C1051 C1057 1.363 . S
C1052 C1053 1.363 . S
C1052 C1057 1.379 . S
C1052 N1059 1.356 . S
C1053 C1052 1.363 . S
C1053 C1056 1.363 . S
N1054 C1056 1.356 . S
N1054 H1066 0.984 . S
N1054 H1067 0.985 . S
N1055 C1057 1.356 . S
N1055 H1060 0.984 . S
N1055 H1061 0.985 . S
C1056 C1050 1.379 . S
C1056 C1053 1.363 . S
C1056 N1054 1.356 . S
C1057 C1051 1.363 . S
C1057 C1052 1.379 . S
C1057 N1055 1.356 . S
N1058 C1050 1.356 . S
N1058 H1064 0.984 . S
N1058 H1065 0.984 . S
N1059 C1052 1.356 . S
N1059 H1062 0.984 . S
N1059 H1063 0.985 . S
H1060 N1055 0.984 . S
H1061 N1055 0.985 . S
H1062 N1059 0.984 . S
H1063 N1059 0.985 . S
H1064 N1058 0.984 . S
H1065 N1058 0.984 . S
H1066 N1054 0.984 . S
H1067 N1054 0.985 . S
C1068 C1069 1.363 . S
C1068 C1074 1.379 . S
C1068 N1076 1.356 . S
C1069 C1068 1.363 . S
C1069 C1075 1.363 . S
C1070 C1071 1.363 . S
C1070 C1075 1.379 . S
C1070 N1077 1.356 . S
C1071 C1070 1.363 . S
C1071 C1074 1.363 . S
N1072 C1074 1.356 . S
N1072 H1084 0.984 . S
N1072 H1085 0.985 . S
N1073 C1075 1.356 . S
N1073 H1078 0.984 . S
N1073 H1079 0.985 . S
C1074 C1068 1.379 . S
C1074 C1071 1.363 . S
C1074 N1072 1.356 . S
C1075 C1069 1.363 . S
C1075 C1070 1.379 . S
C1075 N1073 1.356 . S
N1076 C1068 1.356 . S
N1076 H1082 0.984 . S
N1076 H1083 0.984 . S
N1077 C1070 1.356 . S
N1077 H1080 0.984 . S
N1077 H1081 0.985 . S
H1078 N1073 0.984 . S
H1079 N1073 0.985 . S
H1080 N1077 0.984 . S
H1081 N1077 0.985 . S
H1082 N1076 0.984 . S
H1083 N1076 0.984 . S
H1084 N1072 0.984 . S
H1085 N1072 0.985 . S
C1086 C1087 1.363 . S
C1086 C1092 1.379 . S
C1086 N1094 1.356 . S
C1087 C1086 1.363 . S
C1087 C1093 1.363 . S
C1088 C1089 1.363 . S
C1088 C1093 1.379 . S
C1088 N1095 1.356 . S
C1089 C1088 1.363 . S
C1089 C1092 1.363 . S
N1090 C1092 1.356 . S
N1090 H1102 0.984 . S
N1090 H1103 0.985 . S
N1091 C1093 1.356 . S
N1091 H1096 0.984 . S
N1091 H1097 0.985 . S
C1092 C1086 1.379 . S
C1092 C1089 1.363 . S
C1092 N1090 1.356 . S
C1093 C1087 1.363 . S
C1093 C1088 1.379 . S
C1093 N1091 1.356 . S
N1094 C1086 1.356 . S
N1094 H1100 0.984 . S
N1094 H1101 0.984 . S
N1095 C1088 1.356 . S
N1095 H1098 0.984 . S
N1095 H1099 0.985 . S
H1096 N1091 0.984 . S
H1097 N1091 0.985 . S
H1098 N1095 0.984 . S
H1099 N1095 0.985 . S
H1100 N1094 0.984 . S
H1101 N1094 0.984 . S
H1102 N1090 0.984 . S
H1103 N1090 0.985 . S
C1104 C1105 1.363 . S
C1104 C1110 1.379 . S
C1104 N1112 1.356 . S
C1105 C1104 1.363 . S
C1105 C1111 1.363 . S
C1106 C1107 1.363 . S
C1106 C1111 1.379 . S
C1106 N1113 1.356 . S
C1107 C1106 1.363 . S
C1107 C1110 1.363 . S
N1108 C1110 1.356 . S
N1108 H1120 0.984 . S
N1108 H1121 0.985 . S
N1109 C1111 1.356 . S
N1109 H1114 0.984 . S
N1109 H1115 0.985 . S
C1110 C1104 1.379 . S
C1110 C1107 1.363 . S
C1110 N1108 1.356 . S
C1111 C1105 1.363 . S
C1111 C1106 1.379 . S
C1111 N1109 1.356 . S
N1112 C1104 1.356 . S
N1112 H1118 0.984 . S
N1112 H1119 0.984 . S
N1113 C1106 1.356 . S
N1113 H1116 0.984 . S
N1113 H1117 0.985 . S
H1114 N1109 0.984 . S
H1115 N1109 0.985 . S
H1116 N1113 0.984 . S
H1117 N1113 0.985 . S
H1118 N1112 0.984 . S
H1119 N1112 0.984 . S
H1120 N1108 0.984 . S
H1121 N1108 0.985 . S
C1122 C1123 1.363 . S
C1122 C1128 1.379 . S
C1122 N1130 1.356 . S
C1123 C1122 1.363 . S
C1123 C1129 1.363 . S
C1124 C1125 1.363 . S
C1124 C1129 1.379 . S
C1124 N1131 1.356 . S
C1125 C1124 1.363 . S
C1125 C1128 1.363 . S
N1126 C1128 1.356 . S
N1126 H1138 0.984 . S
N1126 H1139 0.985 . S
N1127 C1129 1.356 . S
N1127 H1132 0.984 . S
N1127 H1133 0.985 . S
C1128 C1122 1.379 . S
C1128 C1125 1.363 . S
C1128 N1126 1.356 . S
C1129 C1123 1.363 . S
C1129 C1124 1.379 . S
C1129 N1127 1.356 . S
N1130 C1122 1.356 . S
N1130 H1136 0.984 . S
N1130 H1137 0.984 . S
N1131 C1124 1.356 . S
N1131 H1134 0.984 . S
N1131 H1135 0.985 . S
H1132 N1127 0.984 . S
H1133 N1127 0.985 . S
H1134 N1131 0.984 . S
H1135 N1131 0.985 . S
H1136 N1130 0.984 . S
H1137 N1130 0.984 . S
H1138 N1126 0.984 . S
H1139 N1126 0.985 . S
C709 C33 1.834 . S
C711 C623 1.834 . S
C727 C92 1.834 . S
C729 C682 1.834 . S
C745 C387 1.834 . S
C747 C151 1.834 . S
C763 C210 1.834 . S
C765 C446 1.834 . S
C781 C505 1.834 . S
C783 C269 1.834 . S
C799 C564 1.834 . S
C801 C328 1.834 . S
C817 C406 0.851 . S
C819 C52 0.851 . S
C835 C465 0.851 . S
C837 C111 0.851 . S
C853 C524 0.851 . S
C855 C170 0.851 . S
C871 C229 0.851 . S
C873 C583 0.851 . S
C889 C288 0.851 . S
C891 C642 0.851 . S
C907 C347 0.851 . S
C909 C701 0.851 . S
C925 C5 1.548 . S
C927 C182 1.548 . S
C943 C64 1.549 . S
C945 C241 1.549 . S
C961 C123 1.548 . S
C963 C300 1.548 . S
C979 C536 1.549 . S
C981 C359 1.549 . S
C997 C595 1.549 . S
C999 C418 1.549 . S
C1015 C654 1.548 . S
C1017 C477 1.548 . S
C1033 C3 1.433 . S
C1035 C475 1.433 . S
C1051 C534 1.434 . S
C1053 C62 1.434 . S
C1069 C121 1.434 . S
C1071 C593 1.434 . S
C1087 C652 1.433 . S
C1089 C180 1.433 . S
C1105 C239 1.434 . S
C1107 C357 1.434 . S
C1123 C298 1.434 . S
C1125 C416 1.434 . S
