# Generated by pormake.
# Topology acs-a, (4)-cn, num edge types: 1
# Building blocks:
#     Node 0, Type 0, BuildingBlock: QUQFOY_clean_sbu_1, # of connection points: 4
#     Node 1, Type 0, BuildingBlock: QUQFOY_clean_sbu_1, # of connection points: 4
#     Node 2, Type 0, BuildingBlock: QUQFOY_clean_sbu_1, # of connection points: 4
#     Node 3, Type 0, BuildingBlock: QUQFOY_clean_sbu_1, # of connection points: 4
#     Node 4, Type 0, BuildingBlock: QUQFOY_clean_sbu_1, # of connection points: 4
#     Node 5, Type 0, BuildingBlock: QUQFOY_clean_sbu_1, # of connection points: 4
#     Node 6, Type 0, BuildingBlock: QUQFOY_clean_sbu_1, # of connection points: 4
#     Node 7, Type 0, BuildingBlock: QUQFOY_clean_sbu_1, # of connection points: 4
#     Node 8, Type 0, BuildingBlock: QUQFOY_clean_sbu_1, # of connection points: 4
#     Node 9, Type 0, BuildingBlock: QUQFOY_clean_sbu_1, # of connection points: 4
#     Node 10, Type 0, BuildingBlock: QUQFOY_clean_sbu_1, # of connection points: 4
#     Node 11, Type 0, BuildingBlock: QUQFOY_clean_sbu_1, # of connection points: 4
#     Edge 12, Type (0, 0), BuildingBlock: XUDNAN_clean_linker_2, # of connection points: 2
#     Edge 13, Type (0, 0), BuildingBlock: XUDNAN_clean_linker_2, # of connection points: 2
#     Edge 14, Type (0, 0), BuildingBlock: XUDNAN_clean_linker_2, # of connection points: 2
#     Edge 15, Type (0, 0), BuildingBlock: XUDNAN_clean_linker_2, # of connection points: 2
#     Edge 16, Type (0, 0), BuildingBlock: XUDNAN_clean_linker_2, # of connection points: 2
#     Edge 17, Type (0, 0), BuildingBlock: XUDNAN_clean_linker_2, # of connection points: 2
#     Edge 18, Type (0, 0), BuildingBlock: XUDNAN_clean_linker_2, # of connection points: 2
#     Edge 19, Type (0, 0), BuildingBlock: XUDNAN_clean_linker_2, # of connection points: 2
#     Edge 20, Type (0, 0), BuildingBlock: XUDNAN_clean_linker_2, # of connection points: 2
#     Edge 21, Type (0, 0), BuildingBlock: XUDNAN_clean_linker_2, # of connection points: 2
#     Edge 22, Type (0, 0), BuildingBlock: XUDNAN_clean_linker_2, # of connection points: 2
#     Edge 23, Type (0, 0), BuildingBlock: XUDNAN_clean_linker_2, # of connection points: 2
#     Edge 24, Type (0, 0), BuildingBlock: XUDNAN_clean_linker_2, # of connection points: 2
#     Edge 25, Type (0, 0), BuildingBlock: XUDNAN_clean_linker_2, # of connection points: 2
#     Edge 26, Type (0, 0), BuildingBlock: XUDNAN_clean_linker_2, # of connection points: 2
#     Edge 27, Type (0, 0), BuildingBlock: XUDNAN_clean_linker_2, # of connection points: 2
#     Edge 28, Type (0, 0), BuildingBlock: XUDNAN_clean_linker_2, # of connection points: 2
#     Edge 29, Type (0, 0), BuildingBlock: XUDNAN_clean_linker_2, # of connection points: 2
#     Edge 30, Type (0, 0), BuildingBlock: XUDNAN_clean_linker_2, # of connection points: 2
#     Edge 31, Type (0, 0), BuildingBlock: XUDNAN_clean_linker_2, # of connection points: 2
#     Edge 32, Type (0, 0), BuildingBlock: XUDNAN_clean_linker_2, # of connection points: 2
#     Edge 33, Type (0, 0), BuildingBlock: XUDNAN_clean_linker_2, # of connection points: 2
#     Edge 34, Type (0, 0), BuildingBlock: XUDNAN_clean_linker_2, # of connection points: 2
#     Edge 35, Type (0, 0), BuildingBlock: XUDNAN_clean_linker_2, # of connection points: 2
# Relax obj value: 0.480
# Max RMSD: 0.267
# Mean RMSD: 0.242
data_MOF--net-acs-a--node1-QUQFOY_clean_sbu_1--edge1-XUDNAN_clean_linker_2
_symmetry_space_group_name_H-M    P1
_symmetry_Int_Tables_number       1
_symmetry_cell_setting            triclinic
loop_
_symmetry_equiv_pos_as_xyz
'x, y, z'
_cell_length_a     46.802767
_cell_length_b     46.925932
_cell_length_c     51.799954
_cell_angle_alpha  90.053975
_cell_angle_beta   89.94429
_cell_angle_gamma 114.02829
loop_
_atom_site_label
_atom_site_type_symbol
_atom_site_fract_x
_atom_site_fract_y
_atom_site_fract_z
_atom_type_partial_charge
O0 O 0.56861 0.16145 0.08687 0.0
Cd1 Cd 0.58812 0.13086 0.07772 0.0
Cd2 Cd 0.58869 0.1244 0.13484 0.0
O3 O 0.56311 0.15077 0.12849 0.0
O4 O 0.57972 0.12287 0.04034 0.0
O5 O 0.55998 0.08637 0.07031 0.0
C6 C 0.5621 0.09442 0.04628 0.0
C7 C 0.58174 0.10736 0.17806 0.0
C8 C 0.55879 0.16488 0.10897 0.0
C9 C 0.65016 0.14916 0.10309 0.0
O10 O 0.63546 0.14177 0.12439 0.0
O11 O 0.63552 0.14597 0.08193 0.0
O12 O 0.59609 0.13609 0.17169 0.0
O13 O 0.57136 0.0872 0.15968 0.0
O14 O 0.35945 0.53399 0.55308 0.0
Cd15 Cd 0.40715 0.55809 0.55186 0.0
Cd16 Cd 0.40337 0.56557 0.60437 0.0
O17 O 0.35738 0.53737 0.59545 0.0
O18 O 0.42388 0.54384 0.52181 0.0
O19 O 0.4367 0.53935 0.56243 0.0
C20 C 0.43999 0.53554 0.53803 0.0
C21 C 0.41558 0.55964 0.64755 0.0
C22 C 0.34385 0.52796 0.57391 0.0
C23 C 0.42721 0.62313 0.56944 0.0
O24 O 0.42109 0.61163 0.59204 0.0
O25 O 0.42336 0.6055 0.55 0.0
O26 O 0.39692 0.57234 0.64133 0.0
O27 O 0.42812 0.55027 0.62906 0.0
O28 O 0.84018 0.42477 0.1054 0.0
Cd29 Cd 0.8656 0.39867 0.11356 0.0
Cd30 Cd 0.86014 0.39023 0.06143 0.0
O31 O 0.83164 0.41359 0.06405 0.0
O32 O 0.91144 0.41748 0.12392 0.0
O33 O 0.872 0.40708 0.15107 0.0
C34 C 0.90164 0.4174 0.14722 0.0
C35 C 0.90184 0.4128 0.03371 0.0
C36 C 0.82769 0.42697 0.08417 0.0
C37 C 0.8358 0.33245 0.09284 0.0
O38 O 0.84163 0.34355 0.07015 0.0
O39 O 0.84291 0.3505 0.11232 0.0
O40 O 0.87442 0.39515 0.02513 0.0
O41 O 0.90587 0.41617 0.05841 0.0
O42 O 0.39187 0.82566 0.55455 0.0
Cd43 Cd 0.37386 0.85848 0.55816 0.0
Cd44 Cd 0.38557 0.85684 0.60897 0.0
O45 O 0.4076 0.82963 0.59496 0.0
O46 O 0.38132 0.88025 0.52465 0.0
O47 O 0.40484 0.90239 0.5612 0.0
C48 C 0.40197 0.90394 0.53645 0.0
C49 C 0.408 0.8849 0.64646 0.0
C50 C 0.40614 0.8184 0.57243 0.0
C51 C 0.31798 0.83475 0.59118 0.0
O52 O 0.33721 0.83765 0.60934 0.0
O53 O 0.32777 0.84338 0.56843 0.0
O54 O 0.39466 0.85496 0.64606 0.0
O55 O 0.40893 0.89966 0.62527 0.0
O56 O 0.61994 0.44608 0.08538 0.0
Cd57 Cd 0.57241 0.42598 0.08964 0.0
Cd58 Cd 0.58478 0.43061 0.13973 0.0
O59 O 0.63046 0.45365 0.1269 0.0
O60 O 0.55438 0.4361 0.05825 0.0
O61 O 0.55026 0.45327 0.09745 0.0
C62 C 0.54486 0.45273 0.07294 0.0
C63 C 0.56683 0.44907 0.17529 0.0
C64 C 0.63966 0.45623 0.10357 0.0
C65 C 0.55262 0.36595 0.1172 0.0
O66 O 0.56506 0.38256 0.13687 0.0
O67 O 0.5521 0.37867 0.09568 0.0
O68 O 0.58824 0.43863 0.17751 0.0
O69 O 0.55628 0.4504 0.15252 0.0
O70 O 0.13969 0.55046 0.60286 0.0
Cd71 Cd 0.11628 0.57687 0.61602 0.0
Cd72 Cd 0.11839 0.5861 0.56282 0.0
O73 O 0.14767 0.56347 0.56182 0.0
O74 O 0.07664 0.5567 0.6378 0.0
O75 O 0.12464 0.57336 0.65301 0.0
C76 C 0.09508 0.56037 0.65718 0.0
C77 C 0.07024 0.56254 0.54351 0.0
C78 C 0.15164 0.54893 0.58115 0.0
C79 C 0.14253 0.64351 0.59369 0.0
O80 O 0.13696 0.63265 0.57093 0.0
O81 O 0.13622 0.62523 0.61299 0.0
O82 O 0.09501 0.57796 0.53005 0.0
O83 O 0.07292 0.56113 0.56829 0.0
O84 O 0.83463 0.40643 0.38587 0.0
Cd85 Cd 0.86916 0.39507 0.40109 0.0
Cd86 Cd 0.86998 0.37531 0.35131 0.0
O87 O 0.83275 0.38766 0.34662 0.0
O88 O 0.87269 0.41221 0.43651 0.0
O89 O 0.91178 0.42851 0.40855 0.0
C90 C 0.90121 0.43033 0.43126 0.0
C91 C 0.90803 0.39409 0.31948 0.0
C92 C 0.82261 0.40091 0.36348 0.0
C93 C 0.85658 0.32734 0.39281 0.0
O94 O 0.86077 0.33304 0.3688 0.0
O95 O 0.85905 0.34891 0.4086 0.0
O96 O 0.88234 0.36999 0.31567 0.0
O97 O 0.9129 0.40735 0.34186 0.0
O98 O 0.34804 0.85344 0.91762 0.0
Cd99 Cd 0.39552 0.8724 0.92246 0.0
Cd100 Cd 0.39961 0.87495 0.86943 0.0
O101 O 0.3515 0.85394 0.87514 0.0
O102 O 0.40823 0.89744 0.95436 0.0
O103 O 0.421 0.91717 0.91487 0.0
C104 C 0.42303 0.92114 0.93964 0.0
C105 C 0.4141 0.89757 0.8285 0.0
C106 C 0.33503 0.84728 0.89561 0.0
C107 C 0.43064 0.83928 0.9003 0.0
O108 O 0.42714 0.85149 0.87934 0.0
O109 O 0.41789 0.84298 0.9209 0.0
O110 O 0.40091 0.86795 0.8319 0.0
O111 O 0.41854 0.91528 0.84847 0.0
O112 O 0.599 0.39662 0.36576 0.0
Cd113 Cd 0.55338 0.38647 0.37597 0.0
Cd114 Cd 0.5795 0.41263 0.41944 0.0
O115 O 0.62083 0.42686 0.39909 0.0
O116 O 0.5389 0.42039 0.3683 0.0
O117 O 0.53038 0.3798 0.34276 0.0
C118 C 0.52858 0.40613 0.34672 0.0
C119 C 0.56534 0.44619 0.44382 0.0
C120 C 0.6233 0.41509 0.37753 0.0
C121 C 0.54097 0.34368 0.42028 0.0
O122 O 0.56099 0.36719 0.43183 0.0
O123 O 0.53179 0.34654 0.39772 0.0
O124 O 0.58699 0.43783 0.45152 0.0
O125 O 0.55286 0.43668 0.42146 0.0
O126 O 0.16069 0.58467 0.9341 0.0
Cd127 Cd 0.12779 0.60244 0.92944 0.0
Cd128 Cd 0.13298 0.59543 0.87871 0.0
O129 O 0.16098 0.57425 0.89268 0.0
O130 O 0.09783 0.58781 0.95837 0.0
O131 O 0.08608 0.57234 0.91766 0.0
C132 C 0.07799 0.57001 0.94171 0.0
C133 C 0.1074 0.57381 0.84009 0.0
C134 C 0.17025 0.57318 0.91557 0.0
C135 C 0.15189 0.66109 0.90015 0.0
O136 O 0.14956 0.64355 0.88083 0.0
O137 O 0.14344 0.64941 0.92244 0.0
O138 O 0.13722 0.58896 0.84138 0.0
O139 O 0.09134 0.5709 0.86092 0.0
O140 O 0.66654 0.141 0.45446 0.0
Cd141 Cd 0.61931 0.12729 0.45888 0.0
Cd142 Cd 0.61562 0.13348 0.40709 0.0
O143 O 0.66347 0.15001 0.41303 0.0
O144 O 0.59948 0.09442 0.48493 0.0
O145 O 0.58954 0.08821 0.44279 0.0
C146 C 0.58332 0.07741 0.46604 0.0
C147 C 0.60015 0.11441 0.36524 0.0
C148 C 0.67975 0.15068 0.43286 0.0
C149 C 0.58923 0.16806 0.44373 0.0
O150 O 0.59066 0.15784 0.42125 0.0
O151 O 0.60221 0.16088 0.46263 0.0
O152 O 0.61503 0.14363 0.37009 0.0
O153 O 0.59402 0.09521 0.38434 0.0
O154 O 0.37964 0.56517 0.89295 0.0
Cd155 Cd 0.42491 0.58623 0.87887 0.0
Cd156 Cd 0.43478 0.58975 0.93513 0.0
O157 O 0.38707 0.56843 0.9351 0.0
O158 O 0.4136 0.58812 0.8422 0.0
O159 O 0.44241 0.56333 0.8541 0.0
C160 C 0.42886 0.57184 0.83586 0.0
C161 C 0.45869 0.57047 0.96562 0.0
C162 C 0.36884 0.56043 0.91582 0.0
C163 C 0.45848 0.64965 0.90544 0.0
O164 O 0.45457 0.63663 0.92739 0.0
O165 O 0.44939 0.63357 0.88495 0.0
O166 O 0.44462 0.58791 0.97213 0.0
O167 O 0.45991 0.56448 0.94139 0.0
H168 H 0.59829 0.15077 0.32551 0.0
H169 H 0.58131 0.0552 0.34435 0.0
H170 H 0.57015 0.04071 0.29809 0.0
H171 H 0.53871 0.13304 0.27531 0.0
H172 H 0.56299 0.16627 0.2563 0.0
H173 H 0.56644 0.16753 0.29096 0.0
H174 H 0.62585 0.18119 0.28687 0.0
H175 H 0.62258 0.17988 0.25229 0.0
H176 H 0.63865 0.15581 0.26859 0.0
H177 H 0.56513 0.03872 0.24803 0.0
H178 H 0.56706 0.04962 0.20088 0.0
H179 H 0.58747 0.14653 0.21767 0.0
C180 C 0.5919 0.12665 0.32007 0.0
C181 C 0.59078 0.10412 0.33844 0.0
C182 C 0.58219 0.07281 0.3305 0.0
C183 C 0.57582 0.06442 0.30431 0.0
C184 C 0.57779 0.08757 0.28657 0.0
C185 C 0.58539 0.11799 0.29435 0.0
C186 C 0.58762 0.13916 0.27188 0.0
C187 C 0.56243 0.15226 0.27373 0.0
C188 C 0.62063 0.16554 0.26979 0.0
C189 C 0.58102 0.11624 0.24998 0.0
C190 C 0.57502 0.08646 0.25856 0.0
C191 C 0.56953 0.06193 0.24121 0.0
C192 C 0.57064 0.06827 0.21452 0.0
C193 C 0.57757 0.09892 0.20568 0.0
C194 C 0.58226 0.12285 0.22377 0.0
H195 H 0.38633 0.57179 0.68851 0.0
H196 H 0.45855 0.53981 0.66902 0.0
H197 H 0.46873 0.53633 0.71576 0.0
H198 H 0.42519 0.62 0.74025 0.0
H199 H 0.39014 0.6109 0.75906 0.0
H200 H 0.3879 0.60882 0.72442 0.0
H201 H 0.34723 0.55137 0.7272 0.0
H202 H 0.34937 0.55327 0.76191 0.0
H203 H 0.3567 0.52335 0.74497 0.0
H204 H 0.4718 0.53893 0.76583 0.0
H205 H 0.46793 0.54808 0.81275 0.0
H206 H 0.39352 0.57818 0.79685 0.0
C207 C 0.40423 0.56386 0.69392 0.0
C208 C 0.42172 0.55614 0.67513 0.0
C209 C 0.44485 0.54582 0.68315 0.0
C210 C 0.45074 0.54375 0.70962 0.0
C211 C 0.4331 0.55187 0.72766 0.0
C212 C 0.41025 0.56161 0.71997 0.0
C213 C 0.39495 0.56999 0.74264 0.0
C214 C 0.39986 0.60446 0.74152 0.0
C215 C 0.36 0.54819 0.74427 0.0
C216 C 0.41312 0.56411 0.76447 0.0
C217 C 0.43488 0.5534 0.75572 0.0
C218 C 0.4547 0.54716 0.77281 0.0
C219 C 0.45233 0.55236 0.79939 0.0
C220 C 0.43051 0.56392 0.80842 0.0
C221 C 0.41055 0.56943 0.79062 0.0
H222 H 0.90124 0.45498 0.18632 0.0
H223 H 0.94665 0.3968 0.15909 0.0
H224 H 0.96768 0.39676 0.20286 0.0
H225 H 0.96353 0.49785 0.24035 0.0
H226 H 0.93242 0.49822 0.26071 0.0
H227 H 0.93056 0.50263 0.22624 0.0
H228 H 0.87628 0.45613 0.22545 0.0
H229 H 0.87805 0.45138 0.25956 0.0
H230 H 0.87228 0.41899 0.23837 0.0
H231 H 0.96658 0.38739 0.2499 0.0
H232 H 0.94815 0.37434 0.29488 0.0
H233 H 0.90828 0.44263 0.29266 0.0
C234 C 0.9172 0.44387 0.1894 0.0
C235 C 0.92273 0.42621 0.16957 0.0
C236 C 0.94283 0.41103 0.17404 0.0
C237 C 0.95478 0.41087 0.19888 0.0
C238 C 0.94714 0.42681 0.21866 0.0
C239 C 0.92967 0.44403 0.21394 0.0
C240 C 0.92044 0.45499 0.23883 0.0
C241 C 0.93779 0.49054 0.2417 0.0
C242 C 0.88468 0.44471 0.24064 0.0
C243 C 0.93215 0.43825 0.25831 0.0
C244 C 0.94826 0.42276 0.2464 0.0
C245 C 0.95554 0.40064 0.25966 0.0
C246 C 0.94506 0.39335 0.28521 0.0
C247 C 0.92804 0.40852 0.29726 0.0
C248 C 0.92278 0.4321 0.28408 0.0
H249 H 0.43617 0.87119 0.7922 0.0
H250 H 0.41264 0.95011 0.80568 0.0
H251 H 0.41922 0.96268 0.75884 0.0
H252 H 0.49263 0.90632 0.7366 0.0
H253 H 0.47896 0.86879 0.72096 0.0
H254 H 0.47988 0.87122 0.75571 0.0
H255 H 0.42096 0.83424 0.75734 0.0
H256 H 0.41981 0.83182 0.72281 0.0
H257 H 0.3933 0.84446 0.73967 0.0
H258 H 0.41805 0.95944 0.70948 0.0
H259 H 0.40873 0.94055 0.66416 0.0
H260 H 0.43322 0.8639 0.68455 0.0
C261 C 0.43345 0.89177 0.7854 0.0
C262 C 0.42395 0.90974 0.80231 0.0
C263 C 0.4203 0.93632 0.7929 0.0
C264 C 0.42402 0.94357 0.76638 0.0
C265 C 0.43207 0.92438 0.74988 0.0
C266 C 0.43728 0.8993 0.75927 0.0
C267 C 0.44172 0.87973 0.73781 0.0
C268 C 0.4753 0.88165 0.73777 0.0
C269 C 0.4175 0.84559 0.73952 0.0
C270 C 0.43602 0.89627 0.71474 0.0
C271 C 0.43135 0.9225 0.72182 0.0
C272 C 0.42246 0.93942 0.70371 0.0
C273 C 0.41727 0.92862 0.67803 0.0
C274 C 0.4204 0.90088 0.67105 0.0
C275 C 0.43096 0.88535 0.68943 0.0
H276 H 0.57073 0.45608 0.32351 0.0
H277 H 0.47456 0.38937 0.31884 0.0
H278 H 0.47089 0.4074 0.27457 0.0
H279 H 0.56757 0.51735 0.27441 0.0
H280 H 0.60503 0.52182 0.26172 0.0
H281 H 0.59655 0.51395 0.2956 0.0
H282 H 0.61035 0.46594 0.29197 0.0
H283 H 0.61856 0.47343 0.25831 0.0
H284 H 0.59006 0.43593 0.26866 0.0
H285 H 0.48095 0.42339 0.2286 0.0
H286 H 0.50472 0.42903 0.18525 0.0
H287 H 0.59643 0.47953 0.21839 0.0
C288 C 0.54838 0.44689 0.31365 0.0
C289 C 0.52251 0.42245 0.32471 0.0
C290 C 0.49418 0.40901 0.31087 0.0
C291 C 0.49198 0.41917 0.28574 0.0
C292 C 0.51859 0.44221 0.27462 0.0
C293 C 0.54641 0.45581 0.28821 0.0
C294 C 0.57356 0.47356 0.27042 0.0
C295 C 0.58642 0.50876 0.27586 0.0
C296 C 0.5996 0.46145 0.27246 0.0
C297 C 0.55724 0.46586 0.24454 0.0
C298 C 0.52528 0.44926 0.24741 0.0
C299 C 0.50579 0.43697 0.22615 0.0
C300 C 0.51945 0.44036 0.20157 0.0
C301 C 0.55229 0.45493 0.1987 0.0
C302 C 0.57119 0.46884 0.22023 0.0
H303 H 0.12527 0.54408 0.69455 0.0
H304 H 0.04046 0.55736 0.67976 0.0
H305 H 0.0285 0.55229 0.7267 0.0
H306 H 0.09556 0.49007 0.75196 0.0
H307 H 0.13329 0.50802 0.7673 0.0
H308 H 0.13061 0.50511 0.7326 0.0
H309 H 0.16255 0.5649 0.72906 0.0
H310 H 0.1651 0.56805 0.76355 0.0
H311 H 0.14884 0.5908 0.74558 0.0
H312 H 0.03172 0.55561 0.77607 0.0
H313 H 0.05 0.56748 0.82143 0.0
H314 H 0.13305 0.55279 0.80219 0.0
C315 C 0.10362 0.5449 0.70109 0.0
C316 C 0.08375 0.55107 0.68371 0.0
C317 C 0.05578 0.55226 0.69286 0.0
C318 C 0.04886 0.54941 0.71946 0.0
C319 C 0.06988 0.54477 0.73634 0.0
C320 C 0.09648 0.54203 0.7273 0.0
C321 C 0.11755 0.54113 0.74903 0.0
C322 C 0.11934 0.50918 0.7503 0.0
C323 C 0.15041 0.56781 0.74665 0.0
C324 C 0.0998 0.54584 0.77176 0.0
C325 C 0.07192 0.54704 0.76435 0.0
C326 C 0.05315 0.55401 0.78209 0.0
C327 C 0.06364 0.5607 0.80778 0.0
C328 C 0.09288 0.561 0.8151 0.0
C329 C 0.11052 0.55255 0.79704 0.0
H330 H 0.51869 0.03439 0.05278 0.0
H331 H 0.56415 0.10456 0.99424 0.0
H332 H 0.53198 0.06855 0.96061 0.0
H333 H 0.51307 0.96811 0.01492 0.0
H334 H 0.47531 0.94309 0.02768 0.0
H335 H 0.50202 0.97451 0.04704 0.0
H336 H 0.45953 -0.00383 0.05295 0.0
H337 H 0.43279 0.96497 0.03339 0.0
H338 H 0.44187 0.00496 0.02487 0.0
H339 H 0.49502 0.02488 0.93333 0.0
H340 H 0.45721 0.97572 0.91422 0.0
H341 H 0.43566 0.93471 0.99076 0.0
C342 C 0.522 0.04214 0.03288 0.0
C343 C 0.54393 0.07224 0.02612 0.0
C344 C 0.54748 0.08156 -0.00013 0.0
C345 C 0.52927 0.06133 0.98063 0.0
C346 C 0.50761 0.03194 0.98798 0.0
C347 C 0.50397 0.02231 0.01344 0.0
C348 C 0.47918 0.98946 0.01618 0.0
C349 C 0.49325 0.9675 0.02709 0.0
C350 C 0.45172 0.98887 0.03283 0.0
C351 C 0.46961 0.98207 0.98826 0.0
C352 C 0.48618 0.0069 0.97229 0.0
C353 C 0.48181 0.00529 0.94563 0.0
C354 C 0.46026 0.97732 0.93497 0.0
C355 C 0.44343 0.95145 0.951 0.0
C356 C 0.44798 0.95413 0.97799 0.0
H357 H 0.44546 0.51708 0.48896 0.0
H358 H 0.48508 0.5259 0.56583 0.0
H359 H 0.52395 0.50713 0.54932 0.0
H360 H 0.45278 0.44647 0.47235 0.0
H361 H 0.46206 0.45722 0.439 0.0
H362 H 0.43826 0.47232 0.45687 0.0
H363 H 0.4769 0.5287 0.44548 0.0
H364 H 0.50101 0.51377 0.42778 0.0
H365 H 0.51773 0.54151 0.45349 0.0
H366 H 0.55835 0.48744 0.52432 0.0
H367 H 0.58294 0.46397 0.49365 0.0
H368 H 0.5199 0.46727 0.43341 0.0
C369 C 0.46234 0.51513 0.50235 0.0
C370 C 0.46237 0.52303 0.52866 0.0
C371 C 0.48464 0.5199 0.5456 0.0
C372 C 0.50689 0.50945 0.53637 0.0
C373 C 0.50639 0.50215 0.51024 0.0
C374 C 0.4845 0.50457 0.49353 0.0
C375 C 0.48815 0.49412 0.46655 0.0
C376 C 0.45856 0.46585 0.45821 0.0
C377 C 0.49645 0.52114 0.44719 0.0
C378 C 0.51542 0.48522 0.47071 0.0
C379 C 0.52583 0.49034 0.49596 0.0
C380 C 0.55044 0.48337 0.5045 0.0
C381 C 0.56432 0.47014 0.48689 0.0
C382 C 0.55335 0.46381 0.46113 0.0
C383 C 0.52891 0.47196 0.45292 0.0
H384 H 0.05782 0.5552 0.99137 0.0
H385 H 0.03107 0.52891 0.9117 0.0
H386 H 0.98386 0.48423 0.92668 0.0
H387 H 0.03444 0.47833 0.01572 0.0
H388 H 0.02031 0.48638 0.04605 0.0
H389 H 0.05127 0.51712 0.02917 0.0
H390 H 0.01897 0.55078 0.02923 0.0
H391 H 0.98816 0.52038 0.04651 0.0
H392 H 0.97976 0.53467 0.01643 0.0
H393 H 0.94039 0.44186 0.95044 0.0
H394 H 0.90171 0.40687 0.9812 0.0
H395 H 0.95795 0.46056 0.04517 0.0
C396 C 0.04185 0.54034 0.97702 0.0
C397 C 0.04802 0.54558 0.95036 0.0
C398 C 0.02669 0.52539 0.93223 0.0
C399 C -7e-05 0.49988 0.94055 0.0
C400 C 0.99499 0.49495 0.967 0.0
C401 C 0.01521 0.51476 0.98496 0.0
C402 C 0.00475 0.50421 0.01226 0.0
C403 C 0.02915 0.49602 0.02664 0.0
C404 C -0.00253 0.52898 0.02696 0.0
C405 C 0.97537 0.47538 0.00687 0.0
C406 C 0.97021 0.47037 0.98066 0.0
C407 C 0.94418 0.44552 0.971 0.0
C408 C 0.92242 0.42573 0.98863 0.0
C409 C 0.92691 0.43095 0.01556 0.0
C410 C 0.95405 0.45577 0.02471 0.0
H411 H 0.56211 0.05064 0.51301 0.0
H412 H 0.5422 0.03857 0.43087 0.0
H413 H 0.49221 0.99402 0.44019 0.0
H414 H 0.52831 0.96803 0.52958 0.0
H415 H 0.51333 0.97466 0.56001 0.0
H416 H 0.54815 0.0044 0.54648 0.0
H417 H 0.52227 0.04377 0.54924 0.0
H418 H 0.4871 0.01397 0.56223 0.0
H419 H 0.48526 0.03477 0.53348 0.0
H420 H 0.44337 0.95273 0.45856 0.0
H421 H 0.40152 0.91354 0.48445 0.0
H422 H 0.45345 0.95318 0.55453 0.0
C423 C 0.54753 0.03832 0.49693 0.0
C424 C 0.55604 0.04802 0.47121 0.0
C425 C 0.53619 0.03143 0.45073 0.0
C426 C 0.50768 0.00624 0.45582 0.0
C427 C 0.49951 -0.002 0.48146 0.0
C428 C 0.51904 0.01323 0.50165 0.0
C429 C 0.50471 -0.0001 0.52746 0.0
C430 C 0.52482 0.98591 0.54171 0.0
C431 C 0.49953 0.02458 0.54407 0.0
C432 C 0.47398 0.97484 0.51864 0.0
C433 C 0.47136 0.97424 0.49205 0.0
C434 C 0.44517 0.95289 0.47939 0.0
C435 C 0.42146 0.93085 0.49428 0.0
C436 C 0.42422 0.93037 0.5215 0.0
C437 C 0.45053 0.95312 0.53379 0.0
H438 H 0.48526 0.52852 0.95902 0.0
H439 H 0.46101 0.58129 0.0175 0.0
H440 H 0.47975 0.55635 0.05144 0.0
H441 H 0.46175 0.45772 0.99485 0.0
H442 H 0.49339 0.44846 0.98351 0.0
H443 H 0.47892 0.47111 0.96359 0.0
H444 H 0.53472 0.5152 0.96068 0.0
H445 H 0.5494 0.49256 0.9804 0.0
H446 H 0.55583 0.53165 0.98995 0.0
H447 H 0.50007 0.52502 0.07911 0.0
H448 H 0.52264 0.49069 0.09845 0.0
H449 H 0.53318 0.45827 0.02193 0.0
C450 C 0.48413 0.53502 0.97894 0.0
C451 C 0.47172 0.55685 0.98562 0.0
C452 C 0.47046 0.56462 0.01193 0.0
C453 C 0.48099 0.55056 0.03137 0.0
C454 C 0.49269 0.52881 0.02417 0.0
C455 C 0.49449 0.52117 -0.00139 0.0
C456 C 0.50788 0.49691 0.99611 0.0
C457 C 0.48406 0.46677 0.98379 0.0
C458 C 0.53879 0.50987 0.98089 0.0
C459 C 0.51326 0.49209 0.02426 0.0
C460 C 0.50432 0.51067 0.04013 0.0
C461 C 0.5072 0.51035 0.06689 0.0
C462 C 0.51995 0.49075 0.07769 0.0
C463 C 0.52959 0.4718 0.06171 0.0
C464 C 0.52592 0.47239 0.03468 0.0
H465 H 0.96199 0.47296 0.42632 0.0
H466 H 0.88533 0.43591 0.48112 0.0
H467 H 0.91919 0.46937 0.5152 0.0
H468 H 0.0211 0.47532 0.46843 0.0
H469 H 0.05041 0.51127 0.45613 0.0
H470 H 0.01933 0.48664 0.43541 0.0
H471 H 0.00409 0.53287 0.42585 0.0
H472 H 0.03519 0.55769 0.44657 0.0
H473 H -0.00441 0.55322 0.45228 0.0
H474 H 0.96251 0.50276 0.54425 0.0
H475 H 0.01235 0.53485 0.56592 0.0
H476 H 0.06013 0.55115 0.49198 0.0
C477 C 0.95221 0.47222 0.44539 0.0
C478 C 0.92108 0.45185 0.45107 0.0
C479 C 0.90915 0.45139 0.47631 0.0
C480 C 0.92815 0.47036 0.49581 0.0
C481 C 0.95888 0.48986 0.48968 0.0
C482 C 0.9708 0.49113 0.46506 0.0
C483 C 0.00505 0.51295 0.46389 0.0
C484 C 0.02514 0.49549 0.45548 0.0
C485 C 0.01028 0.54084 0.44609 0.0
C486 C 0.01073 0.52297 0.49185 0.0
C487 C 0.98377 0.50959 0.50639 0.0
C488 C 0.9837 0.51379 0.53302 0.0
C489 C 0.01209 0.53196 0.54516 0.0
C490 C 0.03999 0.54562 0.53059 0.0
C491 C 0.03908 0.54139 0.50357 0.0
H492 H 0.55522 0.20686 0.07376 0.0
H493 H 0.53322 0.17637 0.15321 0.0
H494 H 0.51992 0.2211 0.16189 0.0
H495 H 0.5944 0.28315 0.08664 0.0
H496 H 0.58102 0.29813 0.05933 0.0
H497 H 0.5819 0.26029 0.05754 0.0
H498 H 0.52295 0.23546 0.04596 0.0
H499 H 0.52191 0.27342 0.0475 0.0
H500 H 0.49519 0.24181 0.06676 0.0
H501 H 0.51995 0.27382 0.16446 0.0
H502 H 0.53088 0.32969 0.16003 0.0
H503 H 0.55104 0.32569 0.07872 0.0
C504 C 0.54649 0.20893 0.09273 0.0
C505 C 0.54524 0.18807 0.11278 0.0
C506 C 0.53433 0.19198 0.1375 0.0
C507 C 0.52657 0.21728 0.1426 0.0
C508 C 0.52942 0.23822 0.12271 0.0
C509 C 0.53866 0.23407 0.09813 0.0
C510 C 0.54348 0.26184 0.08106 0.0
C511 C 0.57719 0.27672 0.07055 0.0
C512 C 0.51944 0.25257 0.05902 0.0
C513 C 0.53732 0.28299 0.10029 0.0
C514 C 0.52875 0.26873 0.1241 0.0
C515 C 0.5257 0.28494 0.14575 0.0
C516 C 0.53211 0.31668 0.1431 0.0
C517 C 0.54134 0.33177 0.11897 0.0
C518 C 0.54312 0.31446 0.0972 0.0
H519 H 0.30747 0.53841 0.53759 0.0
H520 H 0.30344 0.49086 0.61001 0.0
H521 H 0.24771 0.48096 0.61459 0.0
H522 H 0.27019 0.58032 0.55869 0.0
H523 H 0.24869 0.58018 0.52979 0.0
H524 H 0.28446 0.57488 0.52753 0.0
H525 H 0.25587 0.52263 0.50327 0.0
H526 H 0.21988 0.52797 0.50509 0.0
H527 H 0.22149 0.4927 0.51731 0.0
H528 H 0.19777 0.48681 0.61656 0.0
H529 H 0.1574 0.50782 0.6159 0.0
H530 H 0.19375 0.55343 0.54285 0.0
C531 C 0.2943 0.52439 0.55363 0.0
C532 C 0.30941 0.51479 0.57319 0.0
C533 C 0.29203 0.49792 0.59464 0.0
C534 C 0.26036 0.49215 0.59734 0.0
C535 C 0.2465 0.50351 0.57847 0.0
C536 C 0.26282 0.51906 0.55685 0.0
C537 C 0.24451 0.53381 0.54191 0.0
C538 C 0.26307 0.56938 0.53936 0.0
C539 C 0.23486 0.51834 0.51532 0.0
C540 C 0.21635 0.52589 0.55937 0.0
C541 C 0.21754 0.50766 0.57995 0.0
C542 C 0.19613 0.50038 0.6002 0.0
C543 C 0.17337 0.51261 0.59973 0.0
C544 C 0.17235 0.53217 0.57926 0.0
C545 C 0.19356 0.53804 0.55848 0.0
H546 H 0.79896 0.29048 0.05751 0.0
H547 H 0.82997 0.29869 0.13709 0.0
H548 H 0.79183 0.24485 0.14541 0.0
H549 H 0.7231 0.25769 0.07036 0.0
H550 H 0.71085 0.23168 0.04303 0.0
H551 H 0.74611 0.26657 0.04117 0.0
H552 H 0.77753 0.23389 0.02942 0.0
H553 H 0.74212 0.19869 0.03117 0.0
H554 H 0.77566 0.2024 0.05023 0.0
H555 H 0.74401 0.19591 0.14766 0.0
H556 H 0.68946 0.15735 0.14424 0.0
H557 H 0.6884 0.18084 0.06335 0.0
C558 C 0.79867 0.28044 0.07638 0.0
C559 C 0.81758 0.29861 0.09659 0.0
C560 C 0.81581 0.28508 0.12128 0.0
C561 C 0.79435 0.25443 0.12613 0.0
C562 C 0.77495 0.23757 0.10607 0.0
C563 C 0.77708 0.25004 0.08159 0.0
C564 C 0.75022 0.22944 0.06466 0.0
C565 C 0.73148 0.24742 0.05423 0.0
C566 C 0.7621 0.21526 0.04256 0.0
C567 C 0.73145 0.20468 0.08397 0.0
C568 C 0.74663 0.2092 0.1075 0.0
C569 C 0.73224 0.19164 0.12918 0.0
C570 C 0.70115 0.16983 0.12706 0.0
C571 C 0.68464 0.16604 0.1035 0.0
C572 C 0.70054 0.18276 0.08148 0.0
H573 H 0.41828 0.78163 0.6077 0.0
H574 H 0.42205 0.80179 0.52575 0.0
H575 H 0.4376 0.75838 0.51695 0.0
H576 H 0.48266 0.75287 0.60909 0.0
H577 H 0.4615 0.72279 0.63204 0.0
H578 H 0.45735 0.75934 0.63245 0.0
H579 H 0.39723 0.72956 0.62808 0.0
H580 H 0.40119 0.69308 0.62761 0.0
H581 H 0.38144 0.70293 0.60149 0.0
H582 H 0.44494 0.7088 0.51639 0.0
H583 H 0.44075 0.65538 0.52378 0.0
H584 H 0.43089 0.6666 0.60608 0.0
C585 C 0.42343 0.77757 0.588 0.0
C586 C 0.41928 0.7952 0.56742 0.0
C587 C 0.42524 0.7886 0.5418 0.0
C588 C 0.4343 0.76415 0.53664 0.0
C589 C 0.43729 0.74657 0.55731 0.0
C590 C 0.43207 0.753 0.58251 0.0
C591 C 0.43258 0.72809 0.60083 0.0
C592 C 0.46017 0.74159 0.61971 0.0
C593 C 0.40125 0.7125 0.61533 0.0
C594 C 0.43738 0.7059 0.58185 0.0
C595 C 0.44083 0.71736 0.55694 0.0
C596 C 0.44284 0.69982 0.53586 0.0
C597 C 0.44036 0.66944 0.54025 0.0
C598 C 0.43551 0.65678 0.56552 0.0
C599 C 0.43499 0.6757 0.58659 0.0
H600 H 0.68625 0.45879 0.13641 0.0
H601 H 0.66823 0.47493 0.05683 0.0
H602 H 0.72081 0.47953 0.04464 0.0
H603 H 0.77497 0.50822 0.13534 0.0
H604 H 0.7814 0.48011 0.15551 0.0
H605 H 0.74631 0.4868 0.15929 0.0
H606 H 0.71292 0.42774 0.15276 0.0
H607 H 0.74767 0.42091 0.14859 0.0
H608 H 0.71805 0.40892 0.12383 0.0
H609 H 0.76857 0.46993 0.03925 0.0
H610 H 0.8094 0.44944 0.04151 0.0
H611 H 0.79729 0.43987 0.12455 0.0
C612 C 0.69396 0.46481 0.11667 0.0
C613 C 0.67326 0.4667 0.0976 0.0
C614 C 0.68378 0.47354 0.07178 0.0
C615 C 0.71367 0.47631 0.06469 0.0
C616 C 0.73287 0.47247 0.08367 0.0
C617 C 0.72366 0.46737 0.10926 0.0
C618 C 0.74658 0.45941 0.12515 0.0
C619 C 0.76331 0.48518 0.14499 0.0
C620 C 0.73032 0.42735 0.13832 0.0
C621 C 0.76887 0.45875 0.1042 0.0
C622 C 0.76095 0.46701 0.08052 0.0
C623 C 0.77563 0.46433 0.05778 0.0
C624 C 0.79862 0.45246 0.05923 0.0
C625 C 0.80665 0.44334 0.08323 0.0
C626 C 0.79214 0.44737 0.10603 0.0
H627 H 0.16964 0.68839 0.55709 0.0
H628 H 0.15408 0.67522 0.63961 0.0
H629 H 0.18974 0.73014 0.6469 0.0
H630 H 0.2463 0.7273 0.55991 0.0
H631 H 0.25078 0.75417 0.5338 0.0
H632 H 0.21768 0.71731 0.53438 0.0
H633 H 0.18028 0.74552 0.53194 0.0
H634 H 0.2135 0.7827 0.53134 0.0
H635 H 0.1835 0.775 0.55548 0.0
H636 H 0.23531 0.78085 0.64621 0.0
H637 H 0.28737 0.82243 0.63756 0.0
H638 H 0.27342 0.80384 0.55549 0.0
C639 C 0.17274 0.6974 0.57661 0.0
C640 C 0.15905 0.67754 0.59776 0.0
C641 C 0.16427 0.69001 0.62308 0.0
C642 C 0.18432 0.72128 0.62741 0.0
C643 C 0.19867 0.7399 0.6062 0.0
C644 C 0.19283 0.72851 0.58123 0.0
C645 C 0.21486 0.75149 0.5622 0.0
C646 C 0.2335 0.73668 0.5467 0.0
C647 C 0.19696 0.76445 0.54418 0.0
C648 C 0.23563 0.7764 0.58057 0.0
C649 C 0.22531 0.76977 0.60579 0.0
C650 C 0.24311 0.78685 0.6265 0.0
C651 C 0.27273 0.81038 0.62142 0.0
C652 C 0.28429 0.81647 0.59584 0.0
C653 C 0.26483 0.80025 0.57516 0.0
H654 H 0.79514 0.42862 0.39558 0.0
H655 H 0.78827 0.3895 0.31868 0.0
H656 H 0.73957 0.39684 0.31136 0.0
H657 H 0.71792 0.39135 0.41103 0.0
H658 H 0.71521 0.42303 0.42906 0.0
H659 H 0.7521 0.41991 0.42649 0.0
H660 H 0.77751 0.47594 0.40779 0.0
H661 H 0.74056 0.47926 0.41034 0.0
H662 H 0.76061 0.48579 0.37975 0.0
H663 H 0.688 0.40099 0.31493 0.0
H664 H 0.63778 0.40129 0.32918 0.0
H665 H 0.67889 0.43834 0.40353 0.0
C666 C 0.78388 0.4223 0.37694 0.0
C667 C 0.79556 0.40851 0.35769 0.0
C668 C 0.77983 0.40021 0.33369 0.0
C669 C 0.75222 0.40441 0.32931 0.0
C670 C 0.74089 0.41729 0.349 0.0
C671 C 0.7564 0.42635 0.37226 0.0
C672 C 0.73787 0.43662 0.39124 0.0
C673 C 0.73033 0.41652 0.41589 0.0
C674 C 0.75517 0.47148 0.39765 0.0
C675 C 0.7088 0.43052 0.37547 0.0
C676 C 0.71119 0.41989 0.351 0.0
C677 C 0.6861 0.4099 0.33384 0.0
C678 C 0.65764 0.41007 0.34214 0.0
C679 C 0.65449 0.42001 0.36742 0.0
C680 C 0.68073 0.4312 0.38393 0.0
H681 H 0.29506 0.81425 0.9339 0.0
H682 H 0.29836 0.83716 0.85254 0.0
H683 H 0.24433 0.79789 0.84734 0.0
H684 H 0.26203 0.73754 0.92666 0.0
H685 H 0.23737 0.72806 0.95491 0.0
H686 H 0.27221 0.76345 0.95411 0.0
H687 H 0.2397 0.7956 0.96387 0.0
H688 H 0.20456 0.76009 0.96485 0.0
H689 H 0.20698 0.79132 0.94352 0.0
H690 H 0.19644 0.7491 0.84848 0.0
H691 H 0.15852 0.69499 0.85602 0.0
H692 H 0.18509 0.70337 0.93673 0.0
C693 C 0.28392 0.81198 0.91525 0.0
C694 C 0.30086 0.82888 0.89367 0.0
C695 C 0.28579 0.82457 0.86939 0.0
C696 C 0.25501 0.80242 0.86628 0.0
C697 C 0.23946 0.78496 0.88767 0.0
C698 C 0.25326 0.78977 0.91181 0.0
C699 C 0.23365 0.76479 0.93068 0.0
C700 C 0.25243 0.74745 0.94223 0.0
C701 C 0.22043 0.7788 0.95199 0.0
C702 C 0.20792 0.74395 0.91294 0.0
C703 C 0.21123 0.75644 0.88837 0.0
C704 C 0.19297 0.73952 0.8678 0.0
C705 C 0.17157 0.70874 0.87223 0.0
C706 C 0.16865 0.69519 0.89702 0.0
C707 C 0.18618 0.71348 0.91777 0.0
H708 H 0.55954 0.18783 0.40706 0.0
H709 H 0.58331 0.19668 0.4885 0.0
H710 H 0.56124 0.23607 0.49316 0.0
H711 H 0.58327 0.26458 0.39505 0.0
H712 H 0.55294 0.26111 0.37225 0.0
H713 H 0.56414 0.22917 0.37671 0.0
H714 H 0.50661 0.19276 0.38733 0.0
H715 H 0.49528 0.22487 0.38309 0.0
H716 H 0.48644 0.20315 0.41287 0.0
H717 H 0.54633 0.28079 0.48728 0.0
H718 H 0.54222 0.32834 0.47097 0.0
H719 H 0.52656 0.28964 0.39366 0.0
C720 C 0.55935 0.19739 0.42606 0.0
C721 C 0.57313 0.18914 0.44742 0.0
C722 C 0.5728 0.20256 0.47186 0.0
C723 C 0.56009 0.22479 0.47473 0.0
C724 C 0.54741 0.23299 0.45308 0.0
C725 C 0.54676 0.21952 0.42923 0.0
C726 C 0.53573 0.23517 0.40833 0.0
C727 C 0.5605 0.24829 0.38685 0.0
C728 C 0.50413 0.21264 0.39726 0.0
C729 C 0.53222 0.26091 0.42382 0.0
C730 C 0.53829 0.25878 0.44973 0.0
C731 C 0.54067 0.28225 0.46721 0.0
C732 C 0.53829 0.30918 0.45778 0.0
C733 C 0.53368 0.31243 0.43112 0.0
C734 C 0.52908 0.28734 0.41424 0.0
H735 H 0.20687 0.56138 0.87978 0.0
H736 H 0.18797 0.55764 0.96202 0.0
H737 H 0.23222 0.54303 0.97009 0.0
H738 H 0.23735 0.49806 0.87794 0.0
H739 H 0.26674 0.5195 0.85451 0.0
H740 H 0.22954 0.52252 0.85466 0.0
H741 H 0.25806 0.58268 0.85851 0.0
H742 H 0.29515 0.57984 0.85838 0.0
H743 H 0.2852 0.59934 0.88465 0.0
H744 H 0.28294 0.53779 0.96991 0.0
H745 H 0.33731 0.54494 0.96182 0.0
H746 H 0.32372 0.55274 0.87967 0.0
C747 C 0.21135 0.55643 0.89942 0.0
C748 C 0.19387 0.56042 0.92026 0.0
C749 C 0.20101 0.5546 0.94575 0.0
C750 C 0.22595 0.54607 0.95049 0.0
C751 C 0.24338 0.54331 0.92955 0.0
C752 C 0.23632 0.54821 0.90448 0.0
C753 C 0.26119 0.54823 0.88577 0.0
C754 C 0.24791 0.52041 0.86712 0.0
C755 C 0.27575 0.57937 0.87099 0.0
C756 C 0.28423 0.54436 0.90439 0.0
C757 C 0.27315 0.54071 0.92947 0.0
C758 C 0.29161 0.53996 0.95032 0.0
C759 C 0.32253 0.54414 0.94552 0.0
C760 C 0.33478 0.54936 0.92009 0.0
C761 C 0.31492 0.54828 0.89926 0.0
H762 H 0.71498 0.1697 0.38923 0.0
H763 H 0.72208 0.16945 0.47267 0.0
H764 H 0.77699 0.20741 0.46986 0.0
H765 H 0.802 0.18743 0.37488 0.0
H766 H 0.80157 0.21189 0.3482 0.0
H767 H 0.76688 0.1777 0.35608 0.0
H768 H 0.73538 0.21192 0.35957 0.0
H769 H 0.76972 0.24597 0.3519 0.0
H770 H 0.74865 0.2448 0.38132 0.0
H771 H 0.82373 0.25501 0.4593 0.0
H772 H 0.85826 0.30644 0.44183 0.0
H773 H 0.82257 0.2755 0.36499 0.0
C774 C 0.72851 0.1766 0.40685 0.0
C775 C 0.71424 0.16669 0.43115 0.0
C776 C 0.73254 0.17655 0.4538 0.0
C777 C 0.76385 0.19808 0.45237 0.0
C778 C 0.77667 0.209 0.42814 0.0
C779 C 0.75972 0.19805 0.40569 0.0
C780 C 0.77673 0.217 0.38248 0.0
C781 C 0.78744 0.19733 0.36434 0.0
C782 C 0.75642 0.23074 0.36802 0.0
C783 C 0.80441 0.2421 0.39566 0.0
C784 C 0.8045 0.23658 0.42191 0.0
C785 C 0.82462 0.25905 0.43869 0.0
C786 C 0.84411 0.28827 0.42862 0.0
C787 C 0.84329 0.29475 0.40202 0.0
C788 C 0.82436 0.27083 0.38525 0.0
H789 H 0.45176 0.6882 0.94188 0.0
H790 H 0.48686 0.68734 0.86455 0.0
H791 H 0.49366 0.74188 0.85842 0.0
H792 H 0.40451 0.72235 0.92572 0.0
H793 H 0.40926 0.74572 0.95434 0.0
H794 H 0.41572 0.7106 0.95584 0.0
H795 H 0.47163 0.74157 0.97359 0.0
H796 H 0.46523 0.77694 0.97247 0.0
H797 H 0.49839 0.77499 0.9561 0.0
H798 H 0.48654 0.79123 0.85728 0.0
H799 H 0.46547 0.83133 0.86078 0.0
H800 H 0.433 0.79977 0.93842 0.0
C801 C 0.46233 0.70004 0.92415 0.0
C802 C 0.46927 0.68382 0.90382 0.0
C803 C 0.48175 0.69954 0.88045 0.0
C804 C 0.4858 0.73054 0.87685 0.0
C805 C 0.47721 0.74543 0.89681 0.0
C806 C 0.46593 0.73077 0.92012 0.0
C807 C 0.45343 0.74973 0.93673 0.0
C808 C 0.41869 0.73098 0.94352 0.0
C809 C 0.47337 0.76151 0.96117 0.0
C810 C 0.4577 0.77637 0.91852 0.0
C811 C 0.47225 0.77389 0.8959 0.0
C812 C 0.47581 0.79386 0.87512 0.0
C813 C 0.46357 0.81647 0.87726 0.0
C814 C 0.44762 0.81873 0.89992 0.0
C815 C 0.44552 0.79896 0.92104 0.0
loop_
_geom_bond_atom_site_label_1
_geom_bond_atom_site_label_2
_geom_bond_distance
_geom_bond_site_symmetry_2
_ccdc_geom_bond_type
O0 Cd1 2.223 . S
O0 C8 1.315 . S
Cd1 O0 2.223 . S
Cd1 O4 2.297 . S
Cd1 O5 2.439 . S
Cd1 O11 2.240 . S
Cd2 O3 2.240 . S
Cd2 O10 2.223 . S
Cd2 O12 2.297 . S
Cd2 O13 2.439 . S
O3 Cd2 2.240 . S
O3 C8 1.279 . S
O4 Cd1 2.297 . S
O4 C6 1.247 . S
O5 Cd1 2.439 . S
O5 C6 1.208 . S
C6 O4 1.247 . S
C6 O5 1.208 . S
C7 O12 1.247 . S
C7 O13 1.208 . S
C8 O0 1.315 . S
C8 O3 1.279 . S
C9 O10 1.315 . S
C9 O11 1.279 . S
O10 Cd2 2.223 . S
O10 C9 1.315 . S
O11 Cd1 2.240 . S
O11 C9 1.279 . S
O12 Cd2 2.297 . S
O12 C7 1.247 . S
O13 Cd2 2.439 . S
O13 C7 1.208 . S
O14 Cd15 2.223 . S
O14 C22 1.315 . S
Cd15 O14 2.223 . S
Cd15 O18 2.297 . S
Cd15 O19 2.439 . S
Cd15 O25 2.240 . S
Cd16 O17 2.240 . S
Cd16 O24 2.223 . S
Cd16 O26 2.297 . S
Cd16 O27 2.439 . S
O17 Cd16 2.240 . S
O17 C22 1.279 . S
O18 Cd15 2.297 . S
O18 C20 1.247 . S
O19 Cd15 2.439 . S
O19 C20 1.208 . S
C20 O18 1.247 . S
C20 O19 1.208 . S
C21 O26 1.247 . S
C21 O27 1.208 . S
C22 O14 1.315 . S
C22 O17 1.279 . S
C23 O24 1.315 . S
C23 O25 1.279 . S
O24 Cd16 2.223 . S
O24 C23 1.315 . S
O25 Cd15 2.240 . S
O25 C23 1.279 . S
O26 Cd16 2.297 . S
O26 C21 1.247 . S
O27 Cd16 2.439 . S
O27 C21 1.208 . S
O28 Cd29 2.223 . S
O28 C36 1.315 . S
Cd29 O28 2.223 . S
Cd29 O32 2.297 . S
Cd29 O33 2.439 . S
Cd29 O39 2.240 . S
Cd30 O31 2.240 . S
Cd30 O38 2.223 . S
Cd30 O40 2.297 . S
Cd30 O41 2.439 . S
O31 Cd30 2.240 . S
O31 C36 1.279 . S
O32 Cd29 2.297 . S
O32 C34 1.247 . S
O33 Cd29 2.439 . S
O33 C34 1.208 . S
C34 O32 1.247 . S
C34 O33 1.208 . S
C35 O40 1.247 . S
C35 O41 1.208 . S
C36 O28 1.315 . S
C36 O31 1.279 . S
C37 O38 1.315 . S
C37 O39 1.279 . S
O38 Cd30 2.223 . S
O38 C37 1.315 . S
O39 Cd29 2.240 . S
O39 C37 1.279 . S
O40 Cd30 2.297 . S
O40 C35 1.247 . S
O41 Cd30 2.439 . S
O41 C35 1.208 . S
O42 Cd43 2.223 . S
O42 C50 1.315 . S
Cd43 O42 2.223 . S
Cd43 O46 2.297 . S
Cd43 O47 2.439 . S
Cd43 O53 2.240 . S
Cd44 O45 2.240 . S
Cd44 O52 2.223 . S
Cd44 O54 2.297 . S
Cd44 O55 2.439 . S
O45 Cd44 2.240 . S
O45 C50 1.279 . S
O46 Cd43 2.297 . S
O46 C48 1.247 . S
O47 Cd43 2.439 . S
O47 C48 1.208 . S
C48 O46 1.247 . S
C48 O47 1.208 . S
C49 O54 1.247 . S
C49 O55 1.208 . S
C50 O42 1.315 . S
C50 O45 1.279 . S
C51 O52 1.315 . S
C51 O53 1.279 . S
O52 Cd44 2.223 . S
O52 C51 1.315 . S
O53 Cd43 2.240 . S
O53 C51 1.279 . S
O54 Cd44 2.297 . S
O54 C49 1.247 . S
O55 Cd44 2.439 . S
O55 C49 1.208 . S
O56 Cd57 2.223 . S
O56 C64 1.315 . S
Cd57 O56 2.223 . S
Cd57 O60 2.297 . S
Cd57 O61 2.439 . S
Cd57 O67 2.240 . S
Cd58 O59 2.240 . S
Cd58 O66 2.223 . S
Cd58 O68 2.297 . S
Cd58 O69 2.439 . S
O59 Cd58 2.240 . S
O59 C64 1.279 . S
O60 Cd57 2.297 . S
O60 C62 1.247 . S
O61 Cd57 2.439 . S
O61 C62 1.208 . S
C62 O60 1.247 . S
C62 O61 1.208 . S
C63 O68 1.247 . S
C63 O69 1.208 . S
C64 O56 1.315 . S
C64 O59 1.279 . S
C65 O66 1.315 . S
C65 O67 1.279 . S
O66 Cd58 2.223 . S
O66 C65 1.315 . S
O67 Cd57 2.240 . S
O67 C65 1.279 . S
O68 Cd58 2.297 . S
O68 C63 1.247 . S
O69 Cd58 2.439 . S
O69 C63 1.208 . S
O70 Cd71 2.223 . S
O70 C78 1.315 . S
Cd71 O70 2.223 . S
Cd71 O74 2.297 . S
Cd71 O75 2.439 . S
Cd71 O81 2.240 . S
Cd72 O73 2.240 . S
Cd72 O80 2.223 . S
Cd72 O82 2.297 . S
Cd72 O83 2.439 . S
O73 Cd72 2.240 . S
O73 C78 1.279 . S
O74 Cd71 2.297 . S
O74 C76 1.247 . S
O75 Cd71 2.439 . S
O75 C76 1.208 . S
C76 O74 1.247 . S
C76 O75 1.208 . S
C77 O82 1.247 . S
C77 O83 1.208 . S
C78 O70 1.315 . S
C78 O73 1.279 . S
C79 O80 1.315 . S
C79 O81 1.279 . S
O80 Cd72 2.223 . S
O80 C79 1.315 . S
O81 Cd71 2.240 . S
O81 C79 1.279 . S
O82 Cd72 2.297 . S
O82 C77 1.247 . S
O83 Cd72 2.439 . S
O83 C77 1.208 . S
O84 Cd85 2.223 . S
O84 C92 1.315 . S
Cd85 O84 2.223 . S
Cd85 O88 2.297 . S
Cd85 O89 2.439 . S
Cd85 O95 2.240 . S
Cd86 O87 2.240 . S
Cd86 O94 2.223 . S
Cd86 O96 2.297 . S
Cd86 O97 2.439 . S
O87 Cd86 2.240 . S
O87 C92 1.279 . S
O88 Cd85 2.297 . S
O88 C90 1.247 . S
O89 Cd85 2.439 . S
O89 C90 1.208 . S
C90 O88 1.247 . S
C90 O89 1.208 . S
C91 O96 1.247 . S
C91 O97 1.208 . S
C92 O84 1.315 . S
C92 O87 1.279 . S
C93 O94 1.315 . S
C93 O95 1.279 . S
O94 Cd86 2.223 . S
O94 C93 1.315 . S
O95 Cd85 2.240 . S
O95 C93 1.279 . S
O96 Cd86 2.297 . S
O96 C91 1.247 . S
O97 Cd86 2.439 . S
O97 C91 1.208 . S
O98 Cd99 2.223 . S
O98 C106 1.315 . S
Cd99 O98 2.223 . S
Cd99 O102 2.297 . S
Cd99 O103 2.439 . S
Cd99 O109 2.240 . S
Cd100 O101 2.240 . S
Cd100 O108 2.223 . S
Cd100 O110 2.297 . S
Cd100 O111 2.439 . S
O101 Cd100 2.240 . S
O101 C106 1.279 . S
O102 Cd99 2.297 . S
O102 C104 1.247 . S
O103 Cd99 2.439 . S
O103 C104 1.208 . S
C104 O102 1.247 . S
C104 O103 1.208 . S
C105 O110 1.247 . S
C105 O111 1.208 . S
C106 O98 1.315 . S
C106 O101 1.279 . S
C107 O108 1.315 . S
C107 O109 1.279 . S
O108 Cd100 2.223 . S
O108 C107 1.315 . S
O109 Cd99 2.240 . S
O109 C107 1.279 . S
O110 Cd100 2.297 . S
O110 C105 1.247 . S
O111 Cd100 2.439 . S
O111 C105 1.208 . S
O112 Cd113 2.223 . S
O112 C120 1.315 . S
Cd113 O112 2.223 . S
Cd113 O116 2.297 . S
Cd113 O117 2.439 . S
Cd113 O123 2.240 . S
Cd114 O115 2.240 . S
Cd114 O122 2.223 . S
Cd114 O124 2.297 . S
Cd114 O125 2.439 . S
O115 Cd114 2.240 . S
O115 C120 1.279 . S
O116 Cd113 2.297 . S
O116 C118 1.247 . S
O117 Cd113 2.439 . S
O117 C118 1.208 . S
C118 O116 1.247 . S
C118 O117 1.208 . S
C119 O124 1.247 . S
C119 O125 1.208 . S
C120 O112 1.315 . S
C120 O115 1.279 . S
C121 O122 1.315 . S
C121 O123 1.279 . S
O122 Cd114 2.223 . S
O122 C121 1.315 . S
O123 Cd113 2.240 . S
O123 C121 1.279 . S
O124 Cd114 2.297 . S
O124 C119 1.247 . S
O125 Cd114 2.439 . S
O125 C119 1.208 . S
O126 Cd127 2.223 . S
O126 C134 1.315 . S
Cd127 O126 2.223 . S
Cd127 O130 2.297 . S
Cd127 O131 2.439 . S
Cd127 O137 2.240 . S
Cd128 O129 2.240 . S
Cd128 O136 2.223 . S
Cd128 O138 2.297 . S
Cd128 O139 2.439 . S
O129 Cd128 2.240 . S
O129 C134 1.279 . S
O130 Cd127 2.297 . S
O130 C132 1.247 . S
O131 Cd127 2.439 . S
O131 C132 1.208 . S
C132 O130 1.247 . S
C132 O131 1.208 . S
C133 O138 1.247 . S
C133 O139 1.208 . S
C134 O126 1.315 . S
C134 O129 1.279 . S
C135 O136 1.315 . S
C135 O137 1.279 . S
O136 Cd128 2.223 . S
O136 C135 1.315 . S
O137 Cd127 2.240 . S
O137 C135 1.279 . S
O138 Cd128 2.297 . S
O138 C133 1.247 . S
O139 Cd128 2.439 . S
O139 C133 1.208 . S
O140 Cd141 2.223 . S
O140 C148 1.315 . S
Cd141 O140 2.223 . S
Cd141 O144 2.297 . S
Cd141 O145 2.439 . S
Cd141 O151 2.240 . S
Cd142 O143 2.240 . S
Cd142 O150 2.223 . S
Cd142 O152 2.297 . S
Cd142 O153 2.439 . S
O143 Cd142 2.240 . S
O143 C148 1.279 . S
O144 Cd141 2.297 . S
O144 C146 1.247 . S
O145 Cd141 2.439 . S
O145 C146 1.208 . S
C146 O144 1.247 . S
C146 O145 1.208 . S
C147 O152 1.247 . S
C147 O153 1.208 . S
C148 O140 1.315 . S
C148 O143 1.279 . S
C149 O150 1.315 . S
C149 O151 1.279 . S
O150 Cd142 2.223 . S
O150 C149 1.315 . S
O151 Cd141 2.240 . S
O151 C149 1.279 . S
O152 Cd142 2.297 . S
O152 C147 1.247 . S
O153 Cd142 2.439 . S
O153 C147 1.208 . S
O154 Cd155 2.223 . S
O154 C162 1.315 . S
Cd155 O154 2.223 . S
Cd155 O158 2.297 . S
Cd155 O159 2.439 . S
Cd155 O165 2.240 . S
Cd156 O157 2.240 . S
Cd156 O164 2.223 . S
Cd156 O166 2.297 . S
Cd156 O167 2.439 . S
O157 Cd156 2.240 . S
O157 C162 1.279 . S
O158 Cd155 2.297 . S
O158 C160 1.247 . S
O159 Cd155 2.439 . S
O159 C160 1.208 . S
C160 O158 1.247 . S
C160 O159 1.208 . S
C161 O166 1.247 . S
C161 O167 1.208 . S
C162 O154 1.315 . S
C162 O157 1.279 . S
C163 O164 1.315 . S
C163 O165 1.279 . S
O164 Cd156 2.223 . S
O164 C163 1.315 . S
O165 Cd155 2.240 . S
O165 C163 1.279 . S
O166 Cd156 2.297 . S
O166 C161 1.247 . S
O167 Cd156 2.439 . S
O167 C161 1.208 . S
H168 C180 0.930 . S
H169 C182 0.930 . S
H170 C183 0.930 . S
H171 C187 0.959 . S
H172 C187 0.959 . S
H173 C187 0.961 . S
H174 C188 0.960 . S
H175 C188 0.961 . S
H176 C188 0.959 . S
H177 C191 0.929 . S
H178 C192 0.931 . S
H179 C194 0.930 . S
C180 H168 0.930 . S
C180 C181 1.399 . S
C180 C185 1.399 . S
C181 C180 1.399 . S
C181 C182 1.376 . S
C182 H169 0.930 . S
C182 C181 1.376 . S
C182 C183 1.388 . S
C183 H170 0.930 . S
C183 C182 1.388 . S
C183 C184 1.390 . S
C184 C183 1.390 . S
C184 C185 1.394 . S
C184 C190 1.465 . S
C185 C180 1.399 . S
C185 C184 1.394 . S
C185 C186 1.516 . S
C186 C185 1.516 . S
C186 C187 1.502 . S
C186 C188 1.561 . S
C186 C189 1.526 . S
C187 H171 0.959 . S
C187 H172 0.959 . S
C187 H173 0.961 . S
C187 C186 1.502 . S
C188 H174 0.960 . S
C188 H175 0.961 . S
C188 H176 0.959 . S
C188 C186 1.561 . S
C189 C186 1.526 . S
C189 C190 1.396 . S
C189 C194 1.390 . S
C190 C184 1.465 . S
C190 C189 1.396 . S
C190 C191 1.399 . S
C191 H177 0.929 . S
C191 C190 1.399 . S
C191 C192 1.385 . S
C192 H178 0.931 . S
C192 C191 1.385 . S
C192 C193 1.389 . S
C193 C192 1.389 . S
C193 C194 1.387 . S
C194 H179 0.930 . S
C194 C189 1.390 . S
C194 C193 1.387 . S
H195 C207 0.930 . S
H196 C209 0.930 . S
H197 C210 0.930 . S
H198 C214 0.959 . S
H199 C214 0.959 . S
H200 C214 0.961 . S
H201 C215 0.960 . S
H202 C215 0.961 . S
H203 C215 0.959 . S
H204 C218 0.929 . S
H205 C219 0.931 . S
H206 C221 0.930 . S
C207 H195 0.930 . S
C207 C208 1.399 . S
C207 C212 1.399 . S
C208 C207 1.399 . S
C208 C209 1.376 . S
C209 H196 0.930 . S
C209 C208 1.376 . S
C209 C210 1.388 . S
C210 H197 0.930 . S
C210 C209 1.388 . S
C210 C211 1.390 . S
C211 C210 1.390 . S
C211 C212 1.394 . S
C211 C217 1.465 . S
C212 C207 1.399 . S
C212 C211 1.394 . S
C212 C213 1.516 . S
C213 C212 1.516 . S
C213 C214 1.502 . S
C213 C215 1.561 . S
C213 C216 1.526 . S
C214 H198 0.959 . S
C214 H199 0.959 . S
C214 H200 0.961 . S
C214 C213 1.502 . S
C215 H201 0.960 . S
C215 H202 0.961 . S
C215 H203 0.959 . S
C215 C213 1.561 . S
C216 C213 1.526 . S
C216 C217 1.396 . S
C216 C221 1.390 . S
C217 C211 1.465 . S
C217 C216 1.396 . S
C217 C218 1.399 . S
C218 H204 0.929 . S
C218 C217 1.399 . S
C218 C219 1.385 . S
C219 H205 0.931 . S
C219 C218 1.385 . S
C219 C220 1.389 . S
C220 C219 1.389 . S
C220 C221 1.387 . S
C221 H206 0.930 . S
C221 C216 1.390 . S
C221 C220 1.387 . S
H222 C234 0.930 . S
H223 C236 0.930 . S
H224 C237 0.930 . S
H225 C241 0.959 . S
H226 C241 0.959 . S
H227 C241 0.961 . S
H228 C242 0.960 . S
H229 C242 0.961 . S
H230 C242 0.959 . S
H231 C245 0.929 . S
H232 C246 0.931 . S
H233 C248 0.930 . S
C234 H222 0.930 . S
C234 C235 1.399 . S
C234 C239 1.399 . S
C235 C234 1.399 . S
C235 C236 1.376 . S
C236 H223 0.930 . S
C236 C235 1.376 . S
C236 C237 1.388 . S
C237 H224 0.930 . S
C237 C236 1.388 . S
C237 C238 1.390 . S
C238 C237 1.390 . S
C238 C239 1.394 . S
C238 C244 1.465 . S
C239 C234 1.399 . S
C239 C238 1.394 . S
C239 C240 1.516 . S
C240 C239 1.516 . S
C240 C241 1.502 . S
C240 C242 1.561 . S
C240 C243 1.526 . S
C241 H225 0.959 . S
C241 H226 0.959 . S
C241 H227 0.961 . S
C241 C240 1.502 . S
C242 H228 0.960 . S
C242 H229 0.961 . S
C242 H230 0.959 . S
C242 C240 1.561 . S
C243 C240 1.526 . S
C243 C244 1.396 . S
C243 C248 1.390 . S
C244 C238 1.465 . S
C244 C243 1.396 . S
C244 C245 1.399 . S
C245 H231 0.929 . S
C245 C244 1.399 . S
C245 C246 1.385 . S
C246 H232 0.931 . S
C246 C245 1.385 . S
C246 C247 1.389 . S
C247 C246 1.389 . S
C247 C248 1.387 . S
C248 H233 0.930 . S
C248 C243 1.390 . S
C248 C247 1.387 . S
H249 C261 0.930 . S
H250 C263 0.930 . S
H251 C264 0.930 . S
H252 C268 0.959 . S
H253 C268 0.959 . S
H254 C268 0.961 . S
H255 C269 0.960 . S
H256 C269 0.961 . S
H257 C269 0.959 . S
H258 C272 0.929 . S
H259 C273 0.931 . S
H260 C275 0.930 . S
C261 H249 0.930 . S
C261 C262 1.399 . S
C261 C266 1.399 . S
C262 C261 1.399 . S
C262 C263 1.376 . S
C263 H250 0.930 . S
C263 C262 1.376 . S
C263 C264 1.388 . S
C264 H251 0.930 . S
C264 C263 1.388 . S
C264 C265 1.390 . S
C265 C264 1.390 . S
C265 C266 1.394 . S
C265 C271 1.465 . S
C266 C261 1.399 . S
C266 C265 1.394 . S
C266 C267 1.516 . S
C267 C266 1.516 . S
C267 C268 1.502 . S
C267 C269 1.561 . S
C267 C270 1.526 . S
C268 H252 0.959 . S
C268 H253 0.959 . S
C268 H254 0.961 . S
C268 C267 1.502 . S
C269 H255 0.960 . S
C269 H256 0.961 . S
C269 H257 0.959 . S
C269 C267 1.561 . S
C270 C267 1.526 . S
C270 C271 1.396 . S
C270 C275 1.390 . S
C271 C265 1.465 . S
C271 C270 1.396 . S
C271 C272 1.399 . S
C272 H258 0.929 . S
C272 C271 1.399 . S
C272 C273 1.385 . S
C273 H259 0.931 . S
C273 C272 1.385 . S
C273 C274 1.389 . S
C274 C273 1.389 . S
C274 C275 1.387 . S
C275 H260 0.930 . S
C275 C270 1.390 . S
C275 C274 1.387 . S
H276 C288 0.930 . S
H277 C290 0.930 . S
H278 C291 0.930 . S
H279 C295 0.959 . S
H280 C295 0.959 . S
H281 C295 0.961 . S
H282 C296 0.960 . S
H283 C296 0.961 . S
H284 C296 0.959 . S
H285 C299 0.929 . S
H286 C300 0.931 . S
H287 C302 0.930 . S
C288 H276 0.930 . S
C288 C289 1.399 . S
C288 C293 1.399 . S
C289 C288 1.399 . S
C289 C290 1.376 . S
C290 H277 0.930 . S
C290 C289 1.376 . S
C290 C291 1.388 . S
C291 H278 0.930 . S
C291 C290 1.388 . S
C291 C292 1.390 . S
C292 C291 1.390 . S
C292 C293 1.394 . S
C292 C298 1.465 . S
C293 C288 1.399 . S
C293 C292 1.394 . S
C293 C294 1.516 . S
C294 C293 1.516 . S
C294 C295 1.502 . S
C294 C296 1.561 . S
C294 C297 1.526 . S
C295 H279 0.959 . S
C295 H280 0.959 . S
C295 H281 0.961 . S
C295 C294 1.502 . S
C296 H282 0.960 . S
C296 H283 0.961 . S
C296 H284 0.959 . S
C296 C294 1.561 . S
C297 C294 1.526 . S
C297 C298 1.396 . S
C297 C302 1.390 . S
C298 C292 1.465 . S
C298 C297 1.396 . S
C298 C299 1.399 . S
C299 H285 0.929 . S
C299 C298 1.399 . S
C299 C300 1.385 . S
C300 H286 0.931 . S
C300 C299 1.385 . S
C300 C301 1.389 . S
C301 C300 1.389 . S
C301 C302 1.387 . S
C302 H287 0.930 . S
C302 C297 1.390 . S
C302 C301 1.387 . S
H303 C315 0.930 . S
H304 C317 0.930 . S
H305 C318 0.930 . S
H306 C322 0.959 . S
H307 C322 0.959 . S
H308 C322 0.961 . S
H309 C323 0.960 . S
H310 C323 0.961 . S
H311 C323 0.959 . S
H312 C326 0.929 . S
H313 C327 0.931 . S
H314 C329 0.930 . S
C315 H303 0.930 . S
C315 C316 1.399 . S
C315 C320 1.399 . S
C316 C315 1.399 . S
C316 C317 1.376 . S
C317 H304 0.930 . S
C317 C316 1.376 . S
C317 C318 1.388 . S
C318 H305 0.930 . S
C318 C317 1.388 . S
C318 C319 1.390 . S
C319 C318 1.390 . S
C319 C320 1.394 . S
C319 C325 1.465 . S
C320 C315 1.399 . S
C320 C319 1.394 . S
C320 C321 1.516 . S
C321 C320 1.516 . S
C321 C322 1.502 . S
C321 C323 1.561 . S
C321 C324 1.526 . S
C322 H306 0.959 . S
C322 H307 0.959 . S
C322 H308 0.961 . S
C322 C321 1.502 . S
C323 H309 0.960 . S
C323 H310 0.961 . S
C323 H311 0.959 . S
C323 C321 1.561 . S
C324 C321 1.526 . S
C324 C325 1.396 . S
C324 C329 1.390 . S
C325 C319 1.465 . S
C325 C324 1.396 . S
C325 C326 1.399 . S
C326 H312 0.929 . S
C326 C325 1.399 . S
C326 C327 1.385 . S
C327 H313 0.931 . S
C327 C326 1.385 . S
C327 C328 1.389 . S
C328 C327 1.389 . S
C328 C329 1.387 . S
C329 H314 0.930 . S
C329 C324 1.390 . S
C329 C328 1.387 . S
H330 C342 0.930 . S
H331 C344 0.930 . S
H332 C345 0.930 1_556 S
H333 C349 0.959 1_556 S
H334 C349 0.959 . S
H335 C349 0.961 . S
H336 C350 0.960 . S
H337 C350 0.961 . S
H338 C350 0.959 . S
H339 C353 0.929 . S
H340 C354 0.931 . S
H341 C356 0.930 . S
C342 H330 0.930 . S
C342 C343 1.399 . S
C342 C347 1.399 . S
C343 C342 1.399 . S
C343 C344 1.376 . S
C344 H331 0.930 . S
C344 C343 1.376 . S
C344 C345 1.388 . S
C345 H332 0.930 1_554 S
C345 C344 1.388 . S
C345 C346 1.390 . S
C346 C345 1.390 . S
C346 C347 1.394 . S
C346 C352 1.465 1_554 S
C347 C342 1.399 . S
C347 C346 1.394 . S
C347 C348 1.516 1_545 S
C348 C347 1.516 1_565 S
C348 C349 1.502 . S
C348 C350 1.561 . S
C348 C351 1.526 1_554 S
C349 H333 0.959 1_554 S
C349 H334 0.959 . S
C349 H335 0.961 . S
C349 C348 1.502 . S
C350 H336 0.960 . S
C350 H337 0.961 . S
C350 H338 0.959 . S
C350 C348 1.561 . S
C351 C348 1.526 1_556 S
C351 C352 1.396 1_565 S
C351 C356 1.390 . S
C352 C346 1.465 1_556 S
C352 C351 1.396 1_545 S
C352 C353 1.399 . S
C353 H339 0.929 . S
C353 C352 1.399 . S
C353 C354 1.385 1_545 S
C354 H340 0.931 . S
C354 C353 1.385 1_565 S
C354 C355 1.389 . S
C355 C354 1.389 . S
C355 C356 1.387 . S
C356 H341 0.930 . S
C356 C351 1.390 . S
C356 C355 1.387 . S
H357 C369 0.930 . S
H358 C371 0.930 . S
H359 C372 0.930 . S
H360 C376 0.959 . S
H361 C376 0.959 . S
H362 C376 0.961 . S
H363 C377 0.960 . S
H364 C377 0.961 . S
H365 C377 0.959 . S
H366 C380 0.929 . S
H367 C381 0.931 . S
H368 C383 0.930 . S
C369 H357 0.930 . S
C369 C370 1.399 . S
C369 C374 1.399 . S
C370 C369 1.399 . S
C370 C371 1.376 . S
C371 H358 0.930 . S
C371 C370 1.376 . S
C371 C372 1.388 . S
C372 H359 0.930 . S
C372 C371 1.388 . S
C372 C373 1.390 . S
C373 C372 1.390 . S
C373 C374 1.394 . S
C373 C379 1.465 . S
C374 C369 1.399 . S
C374 C373 1.394 . S
C374 C375 1.516 . S
C375 C374 1.516 . S
C375 C376 1.502 . S
C375 C377 1.561 . S
C375 C378 1.526 . S
C376 H360 0.959 . S
C376 H361 0.959 . S
C376 H362 0.961 . S
C376 C375 1.502 . S
C377 H363 0.960 . S
C377 H364 0.961 . S
C377 H365 0.959 . S
C377 C375 1.561 . S
C378 C375 1.526 . S
C378 C379 1.396 . S
C378 C383 1.390 . S
C379 C373 1.465 . S
C379 C378 1.396 . S
C379 C380 1.399 . S
C380 H366 0.929 . S
C380 C379 1.399 . S
C380 C381 1.385 . S
C381 H367 0.931 . S
C381 C380 1.385 . S
C381 C382 1.389 . S
C382 C381 1.389 . S
C382 C383 1.387 . S
C383 H368 0.930 . S
C383 C378 1.390 . S
C383 C382 1.387 . S
H384 C396 0.930 . S
H385 C398 0.930 . S
H386 C399 0.935 . S
H387 C403 0.959 . S
H388 C403 0.959 . S
H389 C403 0.961 . S
H390 C404 0.960 . S
H391 C404 0.961 1_655 S
H392 C404 0.959 1_655 S
H393 C407 0.929 . S
H394 C408 0.931 . S
H395 C410 0.930 . S
C396 H384 0.930 . S
C396 C397 1.399 . S
C396 C401 1.399 . S
C397 C396 1.399 . S
C397 C398 1.376 . S
C398 H385 0.930 . S
C398 C397 1.376 . S
C398 C399 1.388 . S
C399 H386 0.935 . S
C399 C398 1.388 . S
C399 C400 1.390 . S
C400 C399 1.390 . S
C400 C401 1.394 . S
C400 C406 1.465 1_455 S
C401 C396 1.399 . S
C401 C400 1.394 . S
C401 C402 1.516 1_556 S
C402 C401 1.516 1_554 S
C402 C403 1.502 . S
C402 C404 1.561 . S
C402 C405 1.526 1_455 S
C403 H387 0.959 . S
C403 H388 0.959 . S
C403 H389 0.961 . S
C403 C402 1.502 . S
C404 H390 0.960 . S
C404 H391 0.961 1_455 S
C404 H392 0.959 1_455 S
C404 C402 1.561 . S
C405 C402 1.526 1_655 S
C405 C406 1.396 1_554 S
C405 C410 1.390 . S
C406 C400 1.465 1_655 S
C406 C405 1.396 1_556 S
C406 C407 1.399 . S
C407 H393 0.929 . S
C407 C406 1.399 . S
C407 C408 1.385 1_556 S
C408 H394 0.931 . S
C408 C407 1.385 1_554 S
C408 C409 1.389 . S
C409 C408 1.389 . S
C409 C410 1.387 . S
C410 H395 0.930 . S
C410 C405 1.390 . S
C410 C409 1.387 . S
H411 C423 0.930 . S
H412 C425 0.930 . S
H413 C426 0.930 . S
H414 C430 0.959 . S
H415 C430 0.959 . S
H416 C430 0.961 1_545 S
H417 C431 0.960 . S
H418 C431 0.961 . S
H419 C431 0.959 . S
H420 C434 0.929 . S
H421 C435 0.931 . S
H422 C437 0.930 . S
C423 H411 0.930 . S
C423 C424 1.399 . S
C423 C428 1.399 . S
C424 C423 1.399 . S
C424 C425 1.376 . S
C425 H412 0.930 . S
C425 C424 1.376 . S
C425 C426 1.388 . S
C426 H413 0.930 . S
C426 C425 1.388 . S
C426 C427 1.390 . S
C427 C426 1.390 . S
C427 C428 1.394 . S
C427 C433 1.465 1_545 S
C428 C423 1.399 . S
C428 C427 1.394 . S
C428 C429 1.516 . S
C429 C428 1.516 . S
C429 C430 1.502 1_545 S
C429 C431 1.561 . S
C429 C432 1.526 1_545 S
C430 H414 0.959 . S
C430 H415 0.959 . S
C430 H416 0.961 1_565 S
C430 C429 1.502 1_565 S
C431 H417 0.960 . S
C431 H418 0.961 . S
C431 H419 0.959 . S
C431 C429 1.561 . S
C432 C429 1.526 1_565 S
C432 C433 1.396 . S
C432 C437 1.390 . S
C433 C427 1.465 1_565 S
C433 C432 1.396 . S
C433 C434 1.399 . S
C434 H420 0.929 . S
C434 C433 1.399 . S
C434 C435 1.385 . S
C435 H421 0.931 . S
C435 C434 1.385 . S
C435 C436 1.389 . S
C436 C435 1.389 . S
C436 C437 1.387 . S
C437 H422 0.930 . S
C437 C432 1.390 . S
C437 C436 1.387 . S
H438 C450 0.930 . S
H439 C452 0.930 . S
H440 C453 0.930 . S
H441 C457 0.959 . S
H442 C457 0.959 . S
H443 C457 0.961 1_556 S
H444 C458 0.960 . S
H445 C458 0.961 . S
H446 C458 0.959 . S
H447 C461 0.929 . S
H448 C462 0.931 . S
H449 C464 0.930 . S
C450 H438 0.930 . S
C450 C451 1.399 . S
C450 C455 1.399 . S
C451 C450 1.399 . S
C451 C452 1.376 . S
C452 H439 0.930 . S
C452 C451 1.376 . S
C452 C453 1.388 . S
C453 H440 0.930 . S
C453 C452 1.388 . S
C453 C454 1.390 . S
C454 C453 1.390 . S
C454 C455 1.394 . S
C454 C460 1.465 1_556 S
C455 C450 1.399 . S
C455 C454 1.394 . S
C455 C456 1.516 . S
C456 C455 1.516 . S
C456 C457 1.502 1_556 S
C456 C458 1.561 . S
C456 C459 1.526 1_556 S
C457 H441 0.959 . S
C457 H442 0.959 . S
C457 H443 0.961 1_554 S
C457 C456 1.502 1_554 S
C458 H444 0.960 . S
C458 H445 0.961 . S
C458 H446 0.959 . S
C458 C456 1.561 . S
C459 C456 1.526 1_554 S
C459 C460 1.396 . S
C459 C464 1.390 . S
C460 C454 1.465 1_554 S
C460 C459 1.396 . S
C460 C461 1.399 . S
C461 H447 0.929 . S
C461 C460 1.399 . S
C461 C462 1.385 . S
C462 H448 0.931 . S
C462 C461 1.385 . S
C462 C463 1.389 . S
C463 C462 1.389 . S
C463 C464 1.387 . S
C464 H449 0.930 . S
C464 C459 1.390 . S
C464 C463 1.387 . S
H465 C477 0.930 . S
H466 C479 0.930 . S
H467 C480 0.930 . S
H468 C484 0.959 . S
H469 C484 0.959 . S
H470 C484 0.961 . S
H471 C485 0.960 . S
H472 C485 0.961 . S
H473 C485 0.943 1_655 S
H474 C488 0.940 . S
H475 C489 0.931 . S
H476 C491 0.930 . S
C477 H465 0.930 . S
C477 C478 1.399 . S
C477 C482 1.399 . S
C478 C477 1.399 . S
C478 C479 1.376 . S
C479 H466 0.930 . S
C479 C478 1.376 . S
C479 C480 1.388 . S
C480 H467 0.930 . S
C480 C479 1.388 . S
C480 C481 1.390 . S
C481 C480 1.390 . S
C481 C482 1.394 . S
C481 C487 1.465 . S
C482 C477 1.399 . S
C482 C481 1.394 . S
C482 C483 1.516 1_655 S
C483 C482 1.516 1_455 S
C483 C484 1.502 . S
C483 C485 1.561 . S
C483 C486 1.526 . S
C484 H468 0.959 . S
C484 H469 0.959 . S
C484 H470 0.961 . S
C484 C483 1.502 . S
C485 H471 0.960 . S
C485 H472 0.961 . S
C485 H473 0.943 1_455 S
C485 C483 1.561 . S
C486 C483 1.526 . S
C486 C487 1.396 1_455 S
C486 C491 1.390 . S
C487 C481 1.465 . S
C487 C486 1.396 1_655 S
C487 C488 1.399 . S
C488 H474 0.940 . S
C488 C487 1.399 . S
C488 C489 1.374 1_655 S
C489 H475 0.931 . S
C489 C488 1.374 1_455 S
C489 C490 1.389 . S
C490 C489 1.389 . S
C490 C491 1.387 . S
C491 H476 0.930 . S
C491 C486 1.390 . S
C491 C490 1.387 . S
H492 C504 0.930 . S
H493 C506 0.930 . S
H494 C507 0.930 . S
H495 C511 0.959 . S
H496 C511 0.959 . S
H497 C511 0.961 . S
H498 C512 0.960 . S
H499 C512 0.961 . S
H500 C512 0.959 . S
H501 C515 0.929 . S
H502 C516 0.931 . S
H503 C518 0.930 . S
C504 H492 0.930 . S
C504 C505 1.399 . S
C504 C509 1.399 . S
C505 C504 1.399 . S
C505 C506 1.376 . S
C506 H493 0.930 . S
C506 C505 1.376 . S
C506 C507 1.388 . S
C507 H494 0.930 . S
C507 C506 1.388 . S
C507 C508 1.390 . S
C508 C507 1.390 . S
C508 C509 1.394 . S
C508 C514 1.465 . S
C509 C504 1.399 . S
C509 C508 1.394 . S
C509 C510 1.516 . S
C510 C509 1.516 . S
C510 C511 1.502 . S
C510 C512 1.561 . S
C510 C513 1.526 . S
C511 H495 0.959 . S
C511 H496 0.959 . S
C511 H497 0.961 . S
C511 C510 1.502 . S
C512 H498 0.960 . S
C512 H499 0.961 . S
C512 H500 0.959 . S
C512 C510 1.561 . S
C513 C510 1.526 . S
C513 C514 1.396 . S
C513 C518 1.390 . S
C514 C508 1.465 . S
C514 C513 1.396 . S
C514 C515 1.399 . S
C515 H501 0.929 . S
C515 C514 1.399 . S
C515 C516 1.385 . S
C516 H502 0.931 . S
C516 C515 1.385 . S
C516 C517 1.389 . S
C517 C516 1.389 . S
C517 C518 1.387 . S
C518 H503 0.930 . S
C518 C513 1.390 . S
C518 C517 1.387 . S
H519 C531 0.930 . S
H520 C533 0.930 . S
H521 C534 0.930 . S
H522 C538 0.959 . S
H523 C538 0.959 . S
H524 C538 0.961 . S
H525 C539 0.960 . S
H526 C539 0.961 . S
H527 C539 0.959 . S
H528 C542 0.929 . S
H529 C543 0.931 . S
H530 C545 0.930 . S
C531 H519 0.930 . S
C531 C532 1.399 . S
C531 C536 1.399 . S
C532 C531 1.399 . S
C532 C533 1.376 . S
C533 H520 0.930 . S
C533 C532 1.376 . S
C533 C534 1.388 . S
C534 H521 0.930 . S
C534 C533 1.388 . S
C534 C535 1.390 . S
C535 C534 1.390 . S
C535 C536 1.394 . S
C535 C541 1.465 . S
C536 C531 1.399 . S
C536 C535 1.394 . S
C536 C537 1.516 . S
C537 C536 1.516 . S
C537 C538 1.502 . S
C537 C539 1.561 . S
C537 C540 1.526 . S
C538 H522 0.959 . S
C538 H523 0.959 . S
C538 H524 0.961 . S
C538 C537 1.502 . S
C539 H525 0.960 . S
C539 H526 0.961 . S
C539 H527 0.959 . S
C539 C537 1.561 . S
C540 C537 1.526 . S
C540 C541 1.396 . S
C540 C545 1.390 . S
C541 C535 1.465 . S
C541 C540 1.396 . S
C541 C542 1.399 . S
C542 H528 0.929 . S
C542 C541 1.399 . S
C542 C543 1.385 . S
C543 H529 0.931 . S
C543 C542 1.385 . S
C543 C544 1.389 . S
C544 C543 1.389 . S
C544 C545 1.387 . S
C545 H530 0.930 . S
C545 C540 1.390 . S
C545 C544 1.387 . S
H546 C558 0.930 . S
H547 C560 0.930 . S
H548 C561 0.930 . S
H549 C565 0.959 . S
H550 C565 0.959 . S
H551 C565 0.961 . S
H552 C566 0.960 . S
H553 C566 0.961 . S
H554 C566 0.959 . S
H555 C569 0.929 . S
H556 C570 0.931 . S
H557 C572 0.930 . S
C558 H546 0.930 . S
C558 C559 1.399 . S
C558 C563 1.399 . S
C559 C558 1.399 . S
C559 C560 1.376 . S
C560 H547 0.930 . S
C560 C559 1.376 . S
C560 C561 1.388 . S
C561 H548 0.930 . S
C561 C560 1.388 . S
C561 C562 1.390 . S
C562 C561 1.390 . S
C562 C563 1.394 . S
C562 C568 1.465 . S
C563 C558 1.399 . S
C563 C562 1.394 . S
C563 C564 1.516 . S
C564 C563 1.516 . S
C564 C565 1.502 . S
C564 C566 1.561 . S
C564 C567 1.526 . S
C565 H549 0.959 . S
C565 H550 0.959 . S
C565 H551 0.961 . S
C565 C564 1.502 . S
C566 H552 0.960 . S
C566 H553 0.961 . S
C566 H554 0.959 . S
C566 C564 1.561 . S
C567 C564 1.526 . S
C567 C568 1.396 . S
C567 C572 1.390 . S
C568 C562 1.465 . S
C568 C567 1.396 . S
C568 C569 1.399 . S
C569 H555 0.929 . S
C569 C568 1.399 . S
C569 C570 1.385 . S
C570 H556 0.931 . S
C570 C569 1.385 . S
C570 C571 1.389 . S
C571 C570 1.389 . S
C571 C572 1.387 . S
C572 H557 0.930 . S
C572 C567 1.390 . S
C572 C571 1.387 . S
H573 C585 0.930 . S
H574 C587 0.930 . S
H575 C588 0.930 . S
H576 C592 0.959 . S
H577 C592 0.959 . S
H578 C592 0.961 . S
H579 C593 0.960 . S
H580 C593 0.961 . S
H581 C593 0.959 . S
H582 C596 0.929 . S
H583 C597 0.931 . S
H584 C599 0.930 . S
C585 H573 0.930 . S
C585 C586 1.399 . S
C585 C590 1.399 . S
C586 C585 1.399 . S
C586 C587 1.376 . S
C587 H574 0.930 . S
C587 C586 1.376 . S
C587 C588 1.388 . S
C588 H575 0.930 . S
C588 C587 1.388 . S
C588 C589 1.390 . S
C589 C588 1.390 . S
C589 C590 1.394 . S
C589 C595 1.465 . S
C590 C585 1.399 . S
C590 C589 1.394 . S
C590 C591 1.516 . S
C591 C590 1.516 . S
C591 C592 1.502 . S
C591 C593 1.561 . S
C591 C594 1.526 . S
C592 H576 0.959 . S
C592 H577 0.959 . S
C592 H578 0.961 . S
C592 C591 1.502 . S
C593 H579 0.960 . S
C593 H580 0.961 . S
C593 H581 0.959 . S
C593 C591 1.561 . S
C594 C591 1.526 . S
C594 C595 1.396 . S
C594 C599 1.390 . S
C595 C589 1.465 . S
C595 C594 1.396 . S
C595 C596 1.399 . S
C596 H582 0.929 . S
C596 C595 1.399 . S
C596 C597 1.385 . S
C597 H583 0.931 . S
C597 C596 1.385 . S
C597 C598 1.389 . S
C598 C597 1.389 . S
C598 C599 1.387 . S
C599 H584 0.930 . S
C599 C594 1.390 . S
C599 C598 1.387 . S
H600 C612 0.930 . S
H601 C614 0.930 . S
H602 C615 0.930 . S
H603 C619 0.959 . S
H604 C619 0.959 . S
H605 C619 0.961 . S
H606 C620 0.960 . S
H607 C620 0.961 . S
H608 C620 0.959 . S
H609 C623 0.929 . S
H610 C624 0.931 . S
H611 C626 0.930 . S
C612 H600 0.930 . S
C612 C613 1.399 . S
C612 C617 1.399 . S
C613 C612 1.399 . S
C613 C614 1.376 . S
C614 H601 0.930 . S
C614 C613 1.376 . S
C614 C615 1.388 . S
C615 H602 0.930 . S
C615 C614 1.388 . S
C615 C616 1.390 . S
C616 C615 1.390 . S
C616 C617 1.394 . S
C616 C622 1.465 . S
C617 C612 1.399 . S
C617 C616 1.394 . S
C617 C618 1.516 . S
C618 C617 1.516 . S
C618 C619 1.502 . S
C618 C620 1.561 . S
C618 C621 1.526 . S
C619 H603 0.959 . S
C619 H604 0.959 . S
C619 H605 0.961 . S
C619 C618 1.502 . S
C620 H606 0.960 . S
C620 H607 0.961 . S
C620 H608 0.959 . S
C620 C618 1.561 . S
C621 C618 1.526 . S
C621 C622 1.396 . S
C621 C626 1.390 . S
C622 C616 1.465 . S
C622 C621 1.396 . S
C622 C623 1.399 . S
C623 H609 0.929 . S
C623 C622 1.399 . S
C623 C624 1.385 . S
C624 H610 0.931 . S
C624 C623 1.385 . S
C624 C625 1.389 . S
C625 C624 1.389 . S
C625 C626 1.387 . S
C626 H611 0.930 . S
C626 C621 1.390 . S
C626 C625 1.387 . S
H627 C639 0.930 . S
H628 C641 0.930 . S
H629 C642 0.930 . S
H630 C646 0.959 . S
H631 C646 0.959 . S
H632 C646 0.961 . S
H633 C647 0.960 . S
H634 C647 0.961 . S
H635 C647 0.959 . S
H636 C650 0.929 . S
H637 C651 0.931 . S
H638 C653 0.930 . S
C639 H627 0.930 . S
C639 C640 1.399 . S
C639 C644 1.399 . S
C640 C639 1.399 . S
C640 C641 1.376 . S
C641 H628 0.930 . S
C641 C640 1.376 . S
C641 C642 1.388 . S
C642 H629 0.930 . S
C642 C641 1.388 . S
C642 C643 1.390 . S
C643 C642 1.390 . S
C643 C644 1.394 . S
C643 C649 1.465 . S
C644 C639 1.399 . S
C644 C643 1.394 . S
C644 C645 1.516 . S
C645 C644 1.516 . S
C645 C646 1.502 . S
C645 C647 1.561 . S
C645 C648 1.526 . S
C646 H630 0.959 . S
C646 H631 0.959 . S
C646 H632 0.961 . S
C646 C645 1.502 . S
C647 H633 0.960 . S
C647 H634 0.961 . S
C647 H635 0.959 . S
C647 C645 1.561 . S
C648 C645 1.526 . S
C648 C649 1.396 . S
C648 C653 1.390 . S
C649 C643 1.465 . S
C649 C648 1.396 . S
C649 C650 1.399 . S
C650 H636 0.929 . S
C650 C649 1.399 . S
C650 C651 1.385 . S
C651 H637 0.931 . S
C651 C650 1.385 . S
C651 C652 1.389 . S
C652 C651 1.389 . S
C652 C653 1.387 . S
C653 H638 0.930 . S
C653 C648 1.390 . S
C653 C652 1.387 . S
H654 C666 0.930 . S
H655 C668 0.930 . S
H656 C669 0.930 . S
H657 C673 0.959 . S
H658 C673 0.959 . S
H659 C673 0.961 . S
H660 C674 0.960 . S
H661 C674 0.961 . S
H662 C674 0.959 . S
H663 C677 0.929 . S
H664 C678 0.931 . S
H665 C680 0.930 . S
C666 H654 0.930 . S
C666 C667 1.399 . S
C666 C671 1.399 . S
C667 C666 1.399 . S
C667 C668 1.376 . S
C668 H655 0.930 . S
C668 C667 1.376 . S
C668 C669 1.388 . S
C669 H656 0.930 . S
C669 C668 1.388 . S
C669 C670 1.390 . S
C670 C669 1.390 . S
C670 C671 1.394 . S
C670 C676 1.465 . S
C671 C666 1.399 . S
C671 C670 1.394 . S
C671 C672 1.516 . S
C672 C671 1.516 . S
C672 C673 1.502 . S
C672 C674 1.561 . S
C672 C675 1.526 . S
C673 H657 0.959 . S
C673 H658 0.959 . S
C673 H659 0.961 . S
C673 C672 1.502 . S
C674 H660 0.960 . S
C674 H661 0.961 . S
C674 H662 0.959 . S
C674 C672 1.561 . S
C675 C672 1.526 . S
C675 C676 1.396 . S
C675 C680 1.390 . S
C676 C670 1.465 . S
C676 C675 1.396 . S
C676 C677 1.399 . S
C677 H663 0.929 . S
C677 C676 1.399 . S
C677 C678 1.385 . S
C678 H664 0.931 . S
C678 C677 1.385 . S
C678 C679 1.389 . S
C679 C678 1.389 . S
C679 C680 1.387 . S
C680 H665 0.930 . S
C680 C675 1.390 . S
C680 C679 1.387 . S
H681 C693 0.930 . S
H682 C695 0.930 . S
H683 C696 0.930 . S
H684 C700 0.959 . S
H685 C700 0.959 . S
H686 C700 0.961 . S
H687 C701 0.960 . S
H688 C701 0.961 . S
H689 C701 0.959 . S
H690 C704 0.929 . S
H691 C705 0.931 . S
H692 C707 0.930 . S
C693 H681 0.930 . S
C693 C694 1.399 . S
C693 C698 1.399 . S
C694 C693 1.399 . S
C694 C695 1.376 . S
C695 H682 0.930 . S
C695 C694 1.376 . S
C695 C696 1.388 . S
C696 H683 0.930 . S
C696 C695 1.388 . S
C696 C697 1.390 . S
C697 C696 1.390 . S
C697 C698 1.394 . S
C697 C703 1.465 . S
C698 C693 1.399 . S
C698 C697 1.394 . S
C698 C699 1.516 . S
C699 C698 1.516 . S
C699 C700 1.502 . S
C699 C701 1.561 . S
C699 C702 1.526 . S
C700 H684 0.959 . S
C700 H685 0.959 . S
C700 H686 0.961 . S
C700 C699 1.502 . S
C701 H687 0.960 . S
C701 H688 0.961 . S
C701 H689 0.959 . S
C701 C699 1.561 . S
C702 C699 1.526 . S
C702 C703 1.396 . S
C702 C707 1.390 . S
C703 C697 1.465 . S
C703 C702 1.396 . S
C703 C704 1.399 . S
C704 H690 0.929 . S
C704 C703 1.399 . S
C704 C705 1.385 . S
C705 H691 0.931 . S
C705 C704 1.385 . S
C705 C706 1.389 . S
C706 C705 1.389 . S
C706 C707 1.387 . S
C707 H692 0.930 . S
C707 C702 1.390 . S
C707 C706 1.387 . S
H708 C720 0.930 . S
H709 C722 0.930 . S
H710 C723 0.930 . S
H711 C727 0.959 . S
H712 C727 0.959 . S
H713 C727 0.961 . S
H714 C728 0.960 . S
H715 C728 0.961 . S
H716 C728 0.959 . S
H717 C731 0.929 . S
H718 C732 0.931 . S
H719 C734 0.930 . S
C720 H708 0.930 . S
C720 C721 1.399 . S
C720 C725 1.399 . S
C721 C720 1.399 . S
C721 C722 1.376 . S
C722 H709 0.930 . S
C722 C721 1.376 . S
C722 C723 1.388 . S
C723 H710 0.930 . S
C723 C722 1.388 . S
C723 C724 1.390 . S
C724 C723 1.390 . S
C724 C725 1.394 . S
C724 C730 1.465 . S
C725 C720 1.399 . S
C725 C724 1.394 . S
C725 C726 1.516 . S
C726 C725 1.516 . S
C726 C727 1.502 . S
C726 C728 1.561 . S
C726 C729 1.526 . S
C727 H711 0.959 . S
C727 H712 0.959 . S
C727 H713 0.961 . S
C727 C726 1.502 . S
C728 H714 0.960 . S
C728 H715 0.961 . S
C728 H716 0.959 . S
C728 C726 1.561 . S
C729 C726 1.526 . S
C729 C730 1.396 . S
C729 C734 1.390 . S
C730 C724 1.465 . S
C730 C729 1.396 . S
C730 C731 1.399 . S
C731 H717 0.929 . S
C731 C730 1.399 . S
C731 C732 1.385 . S
C732 H718 0.931 . S
C732 C731 1.385 . S
C732 C733 1.389 . S
C733 C732 1.389 . S
C733 C734 1.387 . S
C734 H719 0.930 . S
C734 C729 1.390 . S
C734 C733 1.387 . S
H735 C747 0.930 . S
H736 C749 0.930 . S
H737 C750 0.930 . S
H738 C754 0.959 . S
H739 C754 0.959 . S
H740 C754 0.961 . S
H741 C755 0.960 . S
H742 C755 0.961 . S
H743 C755 0.959 . S
H744 C758 0.929 . S
H745 C759 0.931 . S
H746 C761 0.930 . S
C747 H735 0.930 . S
C747 C748 1.399 . S
C747 C752 1.399 . S
C748 C747 1.399 . S
C748 C749 1.376 . S
C749 H736 0.930 . S
C749 C748 1.376 . S
C749 C750 1.388 . S
C750 H737 0.930 . S
C750 C749 1.388 . S
C750 C751 1.390 . S
C751 C750 1.390 . S
C751 C752 1.394 . S
C751 C757 1.465 . S
C752 C747 1.399 . S
C752 C751 1.394 . S
C752 C753 1.516 . S
C753 C752 1.516 . S
C753 C754 1.502 . S
C753 C755 1.561 . S
C753 C756 1.526 . S
C754 H738 0.959 . S
C754 H739 0.959 . S
C754 H740 0.961 . S
C754 C753 1.502 . S
C755 H741 0.960 . S
C755 H742 0.961 . S
C755 H743 0.959 . S
C755 C753 1.561 . S
C756 C753 1.526 . S
C756 C757 1.396 . S
C756 C761 1.390 . S
C757 C751 1.465 . S
C757 C756 1.396 . S
C757 C758 1.399 . S
C758 H744 0.929 . S
C758 C757 1.399 . S
C758 C759 1.385 . S
C759 H745 0.931 . S
C759 C758 1.385 . S
C759 C760 1.389 . S
C760 C759 1.389 . S
C760 C761 1.387 . S
C761 H746 0.930 . S
C761 C756 1.390 . S
C761 C760 1.387 . S
H762 C774 0.930 . S
H763 C776 0.930 . S
H764 C777 0.930 . S
H765 C781 0.959 . S
H766 C781 0.959 . S
H767 C781 0.961 . S
H768 C782 0.960 . S
H769 C782 0.961 . S
H770 C782 0.959 . S
H771 C785 0.929 . S
H772 C786 0.931 . S
H773 C788 0.930 . S
C774 H762 0.930 . S
C774 C775 1.399 . S
C774 C779 1.399 . S
C775 C774 1.399 . S
C775 C776 1.376 . S
C776 H763 0.930 . S
C776 C775 1.376 . S
C776 C777 1.388 . S
C777 H764 0.930 . S
C777 C776 1.388 . S
C777 C778 1.390 . S
C778 C777 1.390 . S
C778 C779 1.394 . S
C778 C784 1.465 . S
C779 C774 1.399 . S
C779 C778 1.394 . S
C779 C780 1.516 . S
C780 C779 1.516 . S
C780 C781 1.502 . S
C780 C782 1.561 . S
C780 C783 1.526 . S
C781 H765 0.959 . S
C781 H766 0.959 . S
C781 H767 0.961 . S
C781 C780 1.502 . S
C782 H768 0.960 . S
C782 H769 0.961 . S
C782 H770 0.959 . S
C782 C780 1.561 . S
C783 C780 1.526 . S
C783 C784 1.396 . S
C783 C788 1.390 . S
C784 C778 1.465 . S
C784 C783 1.396 . S
C784 C785 1.399 . S
C785 H771 0.929 . S
C785 C784 1.399 . S
C785 C786 1.385 . S
C786 H772 0.931 . S
C786 C785 1.385 . S
C786 C787 1.389 . S
C787 C786 1.389 . S
C787 C788 1.387 . S
C788 H773 0.930 . S
C788 C783 1.390 . S
C788 C787 1.387 . S
H789 C801 0.930 . S
H790 C803 0.930 . S
H791 C804 0.930 . S
H792 C808 0.959 . S
H793 C808 0.959 . S
H794 C808 0.961 . S
H795 C809 0.960 . S
H796 C809 0.961 . S
H797 C809 0.959 . S
H798 C812 0.929 . S
H799 C813 0.931 . S
H800 C815 0.930 . S
C801 H789 0.930 . S
C801 C802 1.399 . S
C801 C806 1.399 . S
C802 C801 1.399 . S
C802 C803 1.376 . S
C803 H790 0.930 . S
C803 C802 1.376 . S
C803 C804 1.388 . S
C804 H791 0.930 . S
C804 C803 1.388 . S
C804 C805 1.390 . S
C805 C804 1.390 . S
C805 C806 1.394 . S
C805 C811 1.465 . S
C806 C801 1.399 . S
C806 C805 1.394 . S
C806 C807 1.516 . S
C807 C806 1.516 . S
C807 C808 1.502 . S
C807 C809 1.561 . S
C807 C810 1.526 . S
C808 H792 0.959 . S
C808 H793 0.959 . S
C808 H794 0.961 . S
C808 C807 1.502 . S
C809 H795 0.960 . S
C809 H796 0.961 . S
C809 H797 0.959 . S
C809 C807 1.561 . S
C810 C807 1.526 . S
C810 C811 1.396 . S
C810 C815 1.390 . S
C811 C805 1.465 . S
C811 C810 1.396 . S
C811 C812 1.399 . S
C812 H798 0.929 . S
C812 C811 1.399 . S
C812 C813 1.385 . S
C813 H799 0.931 . S
C813 C812 1.385 . S
C813 C814 1.389 . S
C814 C813 1.389 . S
C814 C815 1.387 . S
C815 H800 0.930 . S
C815 C810 1.390 . S
C815 C814 1.387 . S
C181 C147 1.491 . S
C193 C7 1.530 . S
C208 C21 1.422 . S
C220 C160 1.340 . S
C235 C34 1.448 . S
C247 C91 1.454 . S
C262 C105 1.484 . S
C274 C49 1.529 . S
C289 C118 1.319 . S
C301 C63 1.353 . S
C316 C76 1.447 . S
C328 C133 1.455 . S
C343 C6 1.013 . S
C355 C104 1.043 . S
C370 C20 0.875 . S
C382 C119 0.830 . S
C397 C132 1.043 . S
C409 C35 0.963 . S
C424 C146 0.918 . S
C436 C48 0.976 . S
C451 C161 0.944 . S
C463 C62 0.938 . S
C478 C90 0.980 . S
C490 C77 1.009 . S
C505 C8 1.177 . S
C517 C65 1.182 . S
C532 C22 1.305 . S
C544 C78 1.317 . S
C559 C37 1.143 . S
C571 C9 1.163 . S
C586 C50 1.148 . S
C598 C23 1.155 . S
C613 C64 1.231 . S
C625 C36 1.298 . S
C640 C79 1.131 . S
C652 C51 1.156 . S
C667 C92 1.121 . S
C679 C120 1.137 . S
C694 C106 1.165 . S
C706 C135 1.176 . S
C721 C149 1.318 . S
C733 C121 1.288 . S
C748 C134 1.190 . S
C760 C162 1.189 . S
C775 C148 1.134 . S
C787 C93 1.170 . S
C802 C163 1.286 . S
C814 C107 1.310 . S
