# Generated by pormake.
# Topology wgb, (5)-cn, num edge types: 1
# Building blocks:
#     Node 0, Type 0, BuildingBlock: XOMCOT_clean_sbu_0, # of connection points: 5
#     Node 1, Type 0, BuildingBlock: XOMCOT_clean_sbu_0, # of connection points: 5
#     Node 2, Type 0, BuildingBlock: XOMCOT_clean_sbu_0, # of connection points: 5
#     Node 3, Type 0, BuildingBlock: XOMCOT_clean_sbu_0, # of connection points: 5
#     Node 4, Type 0, BuildingBlock: XOMCOT_clean_sbu_0, # of connection points: 5
#     Node 5, Type 0, BuildingBlock: XOMCOT_clean_sbu_0, # of connection points: 5
#     Node 6, Type 0, BuildingBlock: XOMCOT_clean_sbu_0, # of connection points: 5
#     Node 7, Type 0, BuildingBlock: XOMCOT_clean_sbu_0, # of connection points: 5
#     Node 8, Type 0, BuildingBlock: XOMCOT_clean_sbu_0, # of connection points: 5
#     Node 9, Type 0, BuildingBlock: XOMCOT_clean_sbu_0, # of connection points: 5
#     Node 10, Type 0, BuildingBlock: XOMCOT_clean_sbu_0, # of connection points: 5
#     Node 11, Type 0, BuildingBlock: XOMCOT_clean_sbu_0, # of connection points: 5
#     Node 12, Type 0, BuildingBlock: XOMCOT_clean_sbu_0, # of connection points: 5
#     Node 13, Type 0, BuildingBlock: XOMCOT_clean_sbu_0, # of connection points: 5
#     Node 14, Type 0, BuildingBlock: XOMCOT_clean_sbu_0, # of connection points: 5
#     Node 15, Type 0, BuildingBlock: XOMCOT_clean_sbu_0, # of connection points: 5
#     Edge 16, Type (0, 0), BuildingBlock: TEMPAE_clean_linker_10, # of connection points: 2
#     Edge 17, Type (0, 0), BuildingBlock: TEMPAE_clean_linker_10, # of connection points: 2
#     Edge 18, Type (0, 0), BuildingBlock: TEMPAE_clean_linker_10, # of connection points: 2
#     Edge 19, Type (0, 0), BuildingBlock: TEMPAE_clean_linker_10, # of connection points: 2
#     Edge 20, Type (0, 0), BuildingBlock: TEMPAE_clean_linker_10, # of connection points: 2
#     Edge 21, Type (0, 0), BuildingBlock: TEMPAE_clean_linker_10, # of connection points: 2
#     Edge 22, Type (0, 0), BuildingBlock: TEMPAE_clean_linker_10, # of connection points: 2
#     Edge 23, Type (0, 0), BuildingBlock: TEMPAE_clean_linker_10, # of connection points: 2
#     Edge 24, Type (0, 0), BuildingBlock: TEMPAE_clean_linker_10, # of connection points: 2
#     Edge 25, Type (0, 0), BuildingBlock: TEMPAE_clean_linker_10, # of connection points: 2
#     Edge 26, Type (0, 0), BuildingBlock: TEMPAE_clean_linker_10, # of connection points: 2
#     Edge 27, Type (0, 0), BuildingBlock: TEMPAE_clean_linker_10, # of connection points: 2
#     Edge 28, Type (0, 0), BuildingBlock: TEMPAE_clean_linker_10, # of connection points: 2
#     Edge 29, Type (0, 0), BuildingBlock: TEMPAE_clean_linker_10, # of connection points: 2
#     Edge 30, Type (0, 0), BuildingBlock: TEMPAE_clean_linker_10, # of connection points: 2
#     Edge 31, Type (0, 0), BuildingBlock: TEMPAE_clean_linker_10, # of connection points: 2
#     Edge 32, Type (0, 0), BuildingBlock: TEMPAE_clean_linker_10, # of connection points: 2
#     Edge 33, Type (0, 0), BuildingBlock: TEMPAE_clean_linker_10, # of connection points: 2
#     Edge 34, Type (0, 0), BuildingBlock: TEMPAE_clean_linker_10, # of connection points: 2
#     Edge 35, Type (0, 0), BuildingBlock: TEMPAE_clean_linker_10, # of connection points: 2
#     Edge 36, Type (0, 0), BuildingBlock: TEMPAE_clean_linker_10, # of connection points: 2
#     Edge 37, Type (0, 0), BuildingBlock: TEMPAE_clean_linker_10, # of connection points: 2
#     Edge 38, Type (0, 0), BuildingBlock: TEMPAE_clean_linker_10, # of connection points: 2
#     Edge 39, Type (0, 0), BuildingBlock: TEMPAE_clean_linker_10, # of connection points: 2
#     Edge 40, Type (0, 0), BuildingBlock: TEMPAE_clean_linker_10, # of connection points: 2
#     Edge 41, Type (0, 0), BuildingBlock: TEMPAE_clean_linker_10, # of connection points: 2
#     Edge 42, Type (0, 0), BuildingBlock: TEMPAE_clean_linker_10, # of connection points: 2
#     Edge 43, Type (0, 0), BuildingBlock: TEMPAE_clean_linker_10, # of connection points: 2
#     Edge 44, Type (0, 0), BuildingBlock: TEMPAE_clean_linker_10, # of connection points: 2
#     Edge 45, Type (0, 0), BuildingBlock: TEMPAE_clean_linker_10, # of connection points: 2
#     Edge 46, Type (0, 0), BuildingBlock: TEMPAE_clean_linker_10, # of connection points: 2
#     Edge 47, Type (0, 0), BuildingBlock: TEMPAE_clean_linker_10, # of connection points: 2
#     Edge 48, Type (0, 0), BuildingBlock: TEMPAE_clean_linker_10, # of connection points: 2
#     Edge 49, Type (0, 0), BuildingBlock: TEMPAE_clean_linker_10, # of connection points: 2
#     Edge 50, Type (0, 0), BuildingBlock: TEMPAE_clean_linker_10, # of connection points: 2
#     Edge 51, Type (0, 0), BuildingBlock: TEMPAE_clean_linker_10, # of connection points: 2
#     Edge 52, Type (0, 0), BuildingBlock: TEMPAE_clean_linker_10, # of connection points: 2
#     Edge 53, Type (0, 0), BuildingBlock: TEMPAE_clean_linker_10, # of connection points: 2
#     Edge 54, Type (0, 0), BuildingBlock: TEMPAE_clean_linker_10, # of connection points: 2
#     Edge 55, Type (0, 0), BuildingBlock: TEMPAE_clean_linker_10, # of connection points: 2
# Relax obj value: 0.087
# Max RMSD: 0.116
# Mean RMSD: 0.116
data_MOF--net-wgb--node1-XOMCOT_clean_sbu_0--edge1-TEMPAE_clean_linker_10
_symmetry_space_group_name_H-M    P1
_symmetry_Int_Tables_number       1
_symmetry_cell_setting            triclinic
loop_
_symmetry_equiv_pos_as_xyz
'x, y, z'
_cell_length_a     58.282419
_cell_length_b     58.298209
_cell_length_c     27.780723
_cell_angle_alpha  90.05113
_cell_angle_beta   89.964653
_cell_angle_gamma 90.014732
loop_
_atom_site_label
_atom_site_type_symbol
_atom_site_fract_x
_atom_site_fract_y
_atom_site_fract_z
_atom_type_partial_charge
Co0 Co 0.33739 0.10292 0.19187 0.0
C1 C 0.33517 0.15299 0.17452 0.0
C2 C 0.32151 0.14373 0.24368 0.0
C3 C 0.3194 0.16705 0.23815 0.0
N4 N 0.33114 0.13492 0.20362 0.0
N5 N 0.32802 0.1728 0.19481 0.0
H6 H 0.34283 0.15166 0.13912 0.0
H7 H 0.31645 0.13395 0.27493 0.0
C8 C 0.29818 0.07716 0.23961 0.0
O9 O 0.29848 0.0607 0.20734 0.0
N10 N 0.34373 0.07053 0.18108 0.0
C11 C 0.33998 0.05778 0.14117 0.0
C12 C 0.3453 0.0353 0.15084 0.0
C13 C 0.3515 0.05547 0.21432 0.0
N14 N 0.35248 0.03389 0.19676 0.0
C15 C 0.3302 0.10663 0.09027 0.0
C16 C 0.28281 0.10706 0.09138 0.0
C17 C 0.2942 0.10745 0.04682 0.0
C18 C 0.31823 0.10763 0.04683 0.0
C19 C 0.29549 0.10594 0.13421 0.0
N20 N 0.31891 0.10477 0.13324 0.0
H21 H 0.34869 0.10647 0.08906 0.0
H22 H 0.2863 0.10622 0.16786 0.0
H23 H 0.33312 0.06376 0.10751 0.0
H24 H 0.35545 0.05999 0.25118 0.0
O25 O 0.36736 0.11074 0.16579 0.0
O26 O 0.35988 0.10373 0.24255 0.0
O27 O 0.31075 0.09492 0.23473 0.0
C28 C 0.37476 0.10938 0.20989 0.0
H29 H 0.31235 0.17895 0.2642 0.0
H30 H 0.34383 0.02103 0.12609 0.0
H31 H 0.26425 0.10728 0.09316 0.0
H32 H 0.32778 0.10855 0.01343 0.0
Co33 Co 0.09956 0.66935 0.82796 0.0
C34 C 0.14984 0.67162 0.84337 0.0
C35 C 0.14036 0.67893 0.77024 0.0
C36 C 0.1638 0.68072 0.77426 0.0
N37 N 0.13167 0.67338 0.81356 0.0
N38 N 0.16975 0.67619 0.82025 0.0
H39 H 0.14843 0.66759 0.88128 0.0
H40 H 0.13032 0.68151 0.73796 0.0
C41 C 0.07994 0.69616 0.75042 0.0
O42 O 0.0692 0.67702 0.73989 0.0
N43 N 0.06689 0.66586 0.84137 0.0
C44 C 0.05371 0.68157 0.86396 0.0
C45 C 0.03104 0.67607 0.85761 0.0
C46 C 0.05177 0.65107 0.82109 0.0
N47 N 0.02973 0.65712 0.82985 0.0
C48 C 0.09767 0.678 0.92899 0.0
C49 C 0.1129 0.72295 0.92593 0.0
C50 C 0.10616 0.71358 0.97025 0.0
C51 C 0.09869 0.69074 0.97152 0.0
C52 C 0.11119 0.70973 0.88395 0.0
N53 N 0.1032 0.68772 0.88585 0.0
H54 H 0.09164 0.66048 0.9303 0.0
H55 H 0.11624 0.71718 0.84996 0.0
H56 H 0.05992 0.69702 0.88107 0.0
H57 H 0.05663 0.63743 0.7968 0.0
O58 O 0.10628 0.63935 0.85451 0.0
O59 O 0.09806 0.64637 0.77802 0.0
O60 O 0.09257 0.6971 0.78788 0.0
C61 C 0.10379 0.6316 0.81087 0.0
H62 H 0.17557 0.68482 0.74537 0.0
H63 H 0.01665 0.68603 0.8706 0.0
H64 H 0.1189 0.7405 0.9236 0.0
H65 H 0.09364 0.68281 1.00514 0.0
Co66 Co 0.67179 0.9034 0.18796 0.0
C67 C 0.67572 0.85337 0.16925 0.0
C68 C 0.68372 0.86235 0.24233 0.0
C69 C 0.6856 0.83898 0.23746 0.0
N70 N 0.67771 0.87135 0.19959 0.0
N71 N 0.68061 0.83332 0.19153 0.0
H72 H 0.6708 0.85494 0.13185 0.0
H73 H 0.68607 0.87207 0.27511 0.0
C74 C 0.7112 0.9287 0.23565 0.0
O75 O 0.71069 0.94535 0.20388 0.0
N76 N 0.66569 0.9359 0.1777 0.0
C77 C 0.66938 0.94876 0.13797 0.0
C78 C 0.66417 0.97124 0.14812 0.0
C79 C 0.65806 0.9509 0.2113 0.0
N80 N 0.6571 0.97254 0.19417 0.0
C81 C 0.67878 0.89998 0.0861 0.0
C82 C 0.72617 0.89903 0.08685 0.0
C83 C 0.71476 0.8989 0.04233 0.0
C84 C 0.69071 0.899 0.04252 0.0
C85 C 0.71354 0.90012 0.12978 0.0
N86 N 0.69012 0.90152 0.12903 0.0
H87 H 0.66028 0.90033 0.08508 0.0
H88 H 0.72277 0.89963 0.16334 0.0
H89 H 0.67612 0.94284 0.1041 0.0
H90 H 0.65417 0.94628 0.24813 0.0
O91 O 0.64164 0.89583 0.16239 0.0
O92 O 0.64952 0.90277 0.23902 0.0
O93 O 0.69865 0.91093 0.23052 0.0
C94 C 0.63447 0.89717 0.20671 0.0
H95 H 0.6897 0.82703 0.26598 0.0
H96 H 0.66561 0.98558 0.12358 0.0
H97 H 0.74472 0.89863 0.08856 0.0
H98 H 0.68111 0.89828 1.00918 0.0
Co99 Co 0.906 0.33789 0.82953 0.0
C100 C 0.8557 0.33381 0.84504 0.0
C101 C 0.86556 0.32713 0.77186 0.0
C102 C 0.84211 0.32528 0.77528 0.0
N103 N 0.87406 0.33229 0.81557 0.0
N104 N 0.83589 0.32945 0.82127 0.0
H105 H 0.85683 0.33798 0.88291 0.0
H106 H 0.87568 0.32534 0.73947 0.0
C107 C 0.93167 0.29891 0.7805 0.0
O108 O 0.94824 0.29922 0.81247 0.0
N109 N 0.93842 0.34375 0.84212 0.0
C110 C 0.95093 0.33903 0.88187 0.0
C111 C 0.97344 0.34485 0.87353 0.0
C112 C 0.9537 0.3525 0.81032 0.0
N113 N 0.97515 0.3533 0.82858 0.0
C114 C 0.90146 0.32983 0.93068 0.0
C115 C 0.90102 0.28247 0.92824 0.0
C116 C 0.90069 0.29356 0.97317 0.0
C117 C 0.90045 0.31758 0.97378 0.0
C118 C 0.90215 0.29543 0.88569 0.0
N119 N 0.9033 0.31886 0.88734 0.0
H120 H 0.90173 0.3483 0.93252 0.0
H121 H 0.90205 0.28648 0.85175 0.0
H122 H 0.94473 0.33121 0.91446 0.0
H123 H 0.94943 0.3574 0.77385 0.0
O124 O 0.89792 0.36754 0.85665 0.0
O125 O 0.90639 0.3611 0.7801 0.0
O126 O 0.91395 0.31153 0.78575 0.0
C127 C 0.90032 0.37558 0.81327 0.0
H128 H 0.8305 0.32173 0.74582 0.0
H129 H 0.98753 0.34291 0.89858 0.0
H130 H 0.90086 0.26392 0.92594 0.0
H131 H 0.89957 0.32693 1.00744 0.0
Co132 Co 0.34288 0.40397 0.08537 0.0
C133 C 0.33764 0.35377 0.09698 0.0
C134 C 0.32385 0.36567 0.02992 0.0
C135 C 0.32134 0.34229 0.03198 0.0
N136 N 0.33391 0.37286 0.07077 0.0
N137 N 0.33014 0.33463 0.07407 0.0
H138 H 0.34608 0.35407 0.13159 0.0
H139 H 0.31897 0.37657 1.00017 0.0
C140 C 0.30037 0.42825 0.04558 0.0
O141 O 0.29539 0.4384 0.08648 0.0
N142 N 0.35245 0.43544 0.09804 0.0
C143 C 0.36891 0.44226 0.12925 0.0
C144 C 0.37479 0.46459 0.11973 0.0
C145 C 0.34919 0.45378 0.06896 0.0
N146 N 0.36246 0.47176 0.08173 0.0
C147 C 0.33252 0.40866 0.18629 0.0
C148 C 0.28702 0.3956 0.18171 0.0
C149 C 0.29609 0.40257 0.22618 0.0
C150 C 0.31923 0.40888 0.22812 0.0
C151 C 0.3009 0.39608 0.14032 0.0
N152 N 0.32317 0.40346 0.14258 0.0
H153 H 0.35051 0.41217 0.1896 0.0
H154 H 0.2937 0.39055 0.1064 0.0
H155 H 0.37776 0.43137 0.15454 0.0
H156 H 0.33897 0.45348 0.03653 0.0
O157 O 0.37126 0.39256 0.11323 0.0
O158 O 0.36626 0.40218 0.03672 0.0
O159 O 0.31769 0.41504 0.04171 0.0
C160 C 0.37991 0.39467 0.07015 0.0
H161 H 0.31362 0.33193 1.00409 0.0
H162 H 0.38799 0.47441 0.13783 0.0
H163 H 0.26931 0.39013 0.17883 0.0
H164 H 0.32716 0.41348 0.26205 0.0
Co165 Co 0.40044 0.66595 0.93657 0.0
C166 C 0.35014 0.67404 0.9217 0.0
C167 C 0.36136 0.68251 0.99288 0.0
C168 C 0.33795 0.68514 0.99091 0.0
N169 N 0.36918 0.67607 0.94917 0.0
N170 N 0.33089 0.67973 0.94615 0.0
H171 H 0.35002 0.66772 0.88533 0.0
H172 H 0.37188 0.68423 0.02473 0.0
C173 C 0.40536 0.71261 0.97975 0.0
O174 O 0.38961 0.71989 0.94956 0.0
N175 N 0.43131 0.65534 0.92583 0.0
C176 C 0.43882 0.64353 0.88723 0.0
C177 C 0.46101 0.63655 0.8958 0.0
C178 C 0.44893 0.65555 0.95726 0.0
N179 N 0.46728 0.64415 0.93973 0.0
C180 C 0.39008 0.67702 0.83784 0.0
C181 C 0.42057 0.71306 0.82922 0.0
C182 C 0.40651 0.70765 0.78985 0.0
C183 C 0.39138 0.68905 0.7944 0.0
C184 C 0.41868 0.70056 0.872 0.0
N185 N 0.40259 0.68364 0.87697 0.0
H186 H 0.37939 0.66196 0.83941 0.0
H187 H 0.43055 0.7043 0.90074 0.0
H188 H 0.42862 0.63967 0.85573 0.0
H189 H 0.44803 0.66299 0.99293 0.0
O190 O 0.38877 0.63716 0.91133 0.0
O191 O 0.39702 0.64412 0.9879 0.0
O192 O 0.41258 0.69196 0.97716 0.0
C193 C 0.3896 0.62981 0.95557 0.0
H194 H 0.32688 0.68955 0.02081 0.0
H195 H 0.47167 0.62647 0.87186 0.0
H196 H 0.43332 0.72652 0.82672 0.0
H197 H 0.38056 0.68378 0.7647 0.0
Co198 Co 0.66116 0.60163 0.08555 0.0
C199 C 0.66942 0.65234 0.09786 0.0
C200 C 0.67613 0.64017 0.02649 0.0
C201 C 0.67928 0.66351 0.02706 0.0
N202 N 0.67045 0.63297 0.07109 0.0
N203 N 0.67502 0.67117 0.07194 0.0
H204 H 0.66416 0.65302 0.13493 0.0
H205 H 0.67725 0.62921 0.99514 0.0
C206 C 0.70793 0.59796 0.04316 0.0
O207 O 0.71453 0.61392 0.07362 0.0
N208 N 0.6514 0.57057 0.09764 0.0
C209 C 0.63983 0.56309 0.13656 0.0
C210 C 0.63314 0.54074 0.12855 0.0
C211 C 0.65175 0.55277 0.06657 0.0
N212 N 0.64066 0.53434 0.08462 0.0
C213 C 0.67218 0.61381 0.18356 0.0
C214 C 0.70897 0.58437 0.19393 0.0
C215 C 0.70355 0.59921 0.23204 0.0
C216 C 0.68457 0.61377 0.2267 0.0
C217 C 0.69619 0.5851 0.15131 0.0
N218 N 0.67891 0.60071 0.14532 0.0
H219 H 0.65682 0.62405 0.18143 0.0
H220 H 0.70017 0.5729 0.12327 0.0
H221 H 0.63586 0.57342 0.16782 0.0
H222 H 0.65898 0.55362 0.03071 0.0
O223 O 0.63203 0.61277 0.11021 0.0
O224 O 0.63922 0.60385 0.03403 0.0
O225 O 0.68758 0.5899 0.04559 0.0
C226 C 0.62473 0.61129 0.066 0.0
H227 H 0.68347 0.67412 0.99634 0.0
H228 H 0.62325 0.53009 0.15281 0.0
H229 H 0.7231 0.57238 0.19677 0.0
H230 H 0.67899 0.62468 0.25602 0.0
Co231 Co 0.60479 0.33769 0.94382 0.0
C232 C 0.65496 0.33362 0.92646 0.0
C233 C 0.64544 0.32479 0.99882 0.0
C234 C 0.66883 0.3227 0.99445 0.0
N235 N 0.63675 0.33144 0.95618 0.0
N236 N 0.67483 0.32823 0.94899 0.0
H237 H 0.65368 0.33897 0.88929 0.0
H238 H 0.63549 0.32209 0.03117 0.0
C239 C 0.57863 0.29855 0.99056 0.0
O240 O 0.56257 0.29919 0.95747 0.0
N241 N 0.57246 0.34418 0.93276 0.0
C242 C 0.56024 0.34227 0.89163 0.0
C243 C 0.53756 0.34677 0.90134 0.0
C244 C 0.55694 0.35025 0.96673 0.0
N245 N 0.53552 0.35171 0.94849 0.0
C246 C 0.60958 0.33037 0.8421 0.0
C247 C 0.60749 0.28305 0.84246 0.0
C248 C 0.60918 0.29442 0.79803 0.0
C249 C 0.61059 0.31842 0.79848 0.0
C250 C 0.60666 0.29569 0.88546 0.0
N251 N 0.60671 0.31915 0.8849 0.0
H252 H 0.61027 0.34884 0.84107 0.0
H253 H 0.60629 0.28637 0.91888 0.0
H254 H 0.56681 0.33738 0.8569 0.0
H255 H 0.56105 0.35251 1.00443 0.0
O256 O 0.61279 0.36771 0.91805 0.0
O257 O 0.60536 0.36027 0.99457 0.0
O258 O 0.59659 0.31099 0.98666 0.0
C259 C 0.61118 0.37517 0.96211 0.0
H260 H 0.68058 0.31803 0.02296 0.0
H261 H 0.52357 0.34631 0.87574 0.0
H262 H 0.60714 0.26449 0.84409 0.0
H263 H 0.61191 0.32803 0.76526 0.0
Co264 Co 0.84054 0.59777 0.68588 0.0
C265 C 0.83589 0.64904 0.67484 0.0
C266 C 0.83204 0.63738 0.74749 0.0
C267 C 0.83047 0.66088 0.74728 0.0
N268 N 0.83504 0.62981 0.70201 0.0
N269 N 0.83291 0.66822 0.70159 0.0
H270 H 0.83888 0.64932 0.63665 0.0
H271 H 0.83144 0.62648 0.77895 0.0
C272 C 0.79462 0.59899 0.73292 0.0
O273 O 0.78933 0.61628 0.70468 0.0
N274 N 0.84649 0.56589 0.67228 0.0
C275 C 0.84955 0.55578 0.62908 0.0
C276 C 0.85431 0.53288 0.63638 0.0
C277 C 0.84983 0.54925 0.70518 0.0
N278 N 0.85459 0.52894 0.68418 0.0
C279 C 0.82976 0.61123 0.58844 0.0
C280 C 0.78958 0.58639 0.5804 0.0
C281 C 0.79672 0.59963 0.54098 0.0
C282 C 0.8173 0.61198 0.54537 0.0
C283 C 0.80248 0.58624 0.62282 0.0
N284 N 0.82177 0.59944 0.62746 0.0
H285 H 0.84618 0.61974 0.58992 0.0
H286 H 0.79727 0.57479 0.65127 0.0
H287 H 0.84881 0.56445 0.59474 0.0
H288 H 0.849 0.552 0.74369 0.0
O289 O 0.87047 0.60588 0.6599 0.0
O290 O 0.86326 0.59694 0.73589 0.0
O291 O 0.81374 0.58859 0.7275 0.0
C292 C 0.87815 0.60305 0.7036 0.0
H293 H 0.82842 0.67176 0.77858 0.0
H294 H 0.85807 0.52027 0.60884 0.0
H295 H 0.77447 0.57563 0.57813 0.0
H296 H 0.82386 0.62212 0.51579 0.0
Co297 Co 0.59939 0.16244 0.33743 0.0
C298 C 0.64953 0.16688 0.35005 0.0
C299 C 0.6383 0.18004 0.2818 0.0
C300 C 0.66169 0.18267 0.28479 0.0
N301 N 0.63071 0.17038 0.32287 0.0
N302 N 0.66867 0.17433 0.32756 0.0
H303 H 0.64922 0.15918 0.3855 0.0
H304 H 0.62769 0.18459 0.25139 0.0
C305 C 0.57254 0.20202 0.29164 0.0
O306 O 0.55772 0.20363 0.32712 0.0
N307 N 0.56782 0.15415 0.35059 0.0
C308 C 0.55931 0.14391 0.39036 0.0
C309 C 0.53722 0.13681 0.3812 0.0
C310 C 0.55086 0.15273 0.31758 0.0
N311 N 0.532 0.14244 0.33553 0.0
C312 C 0.6031 0.17117 0.43873 0.0
C313 C 0.60353 0.21848 0.43508 0.0
C314 C 0.60472 0.20774 0.48026 0.0
C315 C 0.6047 0.18371 0.48146 0.0
C316 C 0.60207 0.2052 0.39295 0.0
N317 N 0.60091 0.18179 0.39515 0.0
H318 H 0.60395 0.15274 0.44098 0.0
H319 H 0.60251 0.21392 0.35879 0.0
H320 H 0.56868 0.14045 0.42295 0.0
H321 H 0.55271 0.15791 0.28038 0.0
O322 O 0.60964 0.13342 0.36435 0.0
O323 O 0.60024 0.13921 0.28813 0.0
O324 O 0.58931 0.18802 0.29384 0.0
C325 C 0.60733 0.12512 0.3211 0.0
H326 H 0.6728 0.1897 0.25725 0.0
H327 H 0.52604 0.12769 0.40574 0.0
H328 H 0.60431 0.23699 0.43216 0.0
H329 H 0.6058 0.17455 0.51528 0.0
Co330 Co 0.16577 0.40978 0.6884 0.0
C331 C 0.17088 0.35867 0.67962 0.0
C332 C 0.17114 0.37057 0.75263 0.0
C333 C 0.17285 0.34708 0.753 0.0
N334 N 0.17027 0.37794 0.70663 0.0
N335 N 0.17264 0.33962 0.70708 0.0
H336 H 0.16994 0.35829 0.64093 0.0
H337 H 0.17037 0.38162 0.7839 0.0
C338 C 0.21033 0.40786 0.74137 0.0
O339 O 0.21541 0.38921 0.71699 0.0
N340 N 0.16072 0.44158 0.67255 0.0
C341 C 0.15947 0.45151 0.6288 0.0
C342 C 0.15445 0.47445 0.63487 0.0
C343 C 0.15615 0.45841 0.70443 0.0
N344 N 0.15222 0.47862 0.68239 0.0
C345 C 0.17587 0.39582 0.59145 0.0
C346 C 0.21834 0.41648 0.5833 0.0
C347 C 0.20924 0.4051 0.54308 0.0
C348 C 0.18767 0.39475 0.54767 0.0
C349 C 0.2058 0.41743 0.62641 0.0
N350 N 0.18509 0.40652 0.63077 0.0
H351 H 0.15897 0.38833 0.59325 0.0
H352 H 0.21247 0.42777 0.65537 0.0
H353 H 0.16152 0.44272 0.59481 0.0
H354 H 0.15544 0.45585 0.743 0.0
O355 O 0.13618 0.40172 0.66104 0.0
O356 O 0.14205 0.4118 0.73685 0.0
O357 O 0.1922 0.41922 0.73128 0.0
C358 C 0.12773 0.40518 0.70381 0.0
H359 H 0.17356 0.33628 0.78463 0.0
H360 H 0.15178 0.48692 0.60656 0.0
H361 H 0.23462 0.42536 0.5809 0.0
H362 H 0.17984 0.38596 0.51748 0.0
Co363 Co 0.41074 0.84384 0.33634 0.0
C364 C 0.35985 0.83737 0.34693 0.0
C365 C 0.37195 0.83138 0.27522 0.0
C366 C 0.3485 0.82901 0.27538 0.0
N367 N 0.37921 0.8361 0.32029 0.0
N368 N 0.34093 0.83284 0.32048 0.0
H369 H 0.35924 0.84205 0.38436 0.0
H370 H 0.38297 0.83035 0.24394 0.0
C371 C 0.41263 0.79771 0.29094 0.0
O372 O 0.39636 0.79148 0.32102 0.0
N373 N 0.442 0.8521 0.35006 0.0
C374 C 0.44986 0.86231 0.39031 0.0
C375 C 0.47223 0.86899 0.38254 0.0
C376 C 0.45953 0.85257 0.31846 0.0
N377 N 0.47819 0.86285 0.33741 0.0
C378 C 0.39777 0.83207 0.43331 0.0
C379 C 0.42575 0.79408 0.44218 0.0
C380 C 0.41131 0.79992 0.48071 0.0
C381 C 0.39749 0.81947 0.47608 0.0
C382 C 0.42543 0.80717 0.39999 0.0
N383 N 0.41053 0.82512 0.39474 0.0
H384 H 0.38817 0.84785 0.43188 0.0
H385 H 0.43748 0.80297 0.37181 0.0
H386 H 0.43971 0.86555 0.42221 0.0
H387 H 0.45824 0.84674 0.28155 0.0
O388 O 0.40042 0.87278 0.36306 0.0
O389 O 0.40996 0.8669 0.28677 0.0
O390 O 0.42165 0.81763 0.29462 0.0
C391 C 0.40277 0.88101 0.31978 0.0
H392 H 0.33778 0.82565 0.24437 0.0
H393 H 0.48312 0.87812 0.40764 0.0
H394 H 0.43718 0.77948 0.44444 0.0
H395 H 0.38696 0.82537 0.50575 0.0
Co396 Co 0.84624 0.89919 0.58145 0.0
C397 C 0.83882 0.84986 0.60161 0.0
C398 C 0.82831 0.85923 0.53017 0.0
C399 C 0.82472 0.8361 0.5361 0.0
N400 N 0.83699 0.86782 0.57128 0.0
N401 N 0.83133 0.83021 0.58098 0.0
H402 H 0.84551 0.85119 0.63783 0.0
H403 H 0.82526 0.86899 0.49772 0.0
C404 C 0.80636 0.92597 0.53808 0.0
O405 O 0.80538 0.94048 0.57423 0.0
N406 N 0.85595 0.93084 0.59026 0.0
C407 C 0.86861 0.93947 0.62675 0.0
C408 C 0.87498 0.96155 0.61572 0.0
C409 C 0.85544 0.94774 0.5569 0.0
N410 N 0.86661 0.96671 0.57193 0.0
C411 C 0.83865 0.90025 0.68367 0.0
C412 C 0.79137 0.89734 0.68136 0.0
C413 C 0.80233 0.89918 0.72619 0.0
C414 C 0.82634 0.90034 0.72684 0.0
C415 C 0.80439 0.89744 0.63889 0.0
N416 N 0.82771 0.89994 0.64021 0.0
H417 H 0.85709 0.89969 0.68548 0.0
H418 H 0.79561 0.89491 0.60515 0.0
H419 H 0.87418 0.9302 0.65813 0.0
H420 H 0.84807 0.94588 0.52138 0.0
O421 O 0.8754 0.88879 0.60758 0.0
O422 O 0.86834 0.89603 0.53063 0.0
O423 O 0.82029 0.90912 0.53876 0.0
C424 C 0.8828 0.88943 0.56331 0.0
H425 H 0.81838 0.8244 0.5089 0.0
H426 H 0.88534 0.97283 0.63779 0.0
H427 H 0.77288 0.89586 0.67902 0.0
H428 H 0.83565 0.90069 0.76057 0.0
Co429 Co 0.90082 0.16306 0.4353 0.0
C430 C 0.85062 0.16737 0.42115 0.0
C431 C 0.86232 0.18646 0.48246 0.0
C432 C 0.83899 0.18889 0.47905 0.0
N433 N 0.86965 0.17308 0.44605 0.0
N434 N 0.83147 0.17673 0.44074 0.0
H435 H 0.85085 0.15618 0.39011 0.0
H436 H 0.87299 0.19378 0.51027 0.0
C437 C 0.92854 0.20255 0.47888 0.0
O438 O 0.94288 0.20361 0.44243 0.0
N439 N 0.9322 0.15272 0.42616 0.0
C440 C 0.94074 0.13998 0.38967 0.0
C441 C 0.96273 0.13336 0.40093 0.0
C442 C 0.94899 0.153 0.45969 0.0
N443 N 0.96786 0.14166 0.44484 0.0
C444 C 0.90192 0.17072 0.33328 0.0
C445 C 0.89974 0.21802 0.33542 0.0
C446 C 0.90132 0.20697 0.29057 0.0
C447 C 0.90213 0.18295 0.29006 0.0
C448 C 0.89975 0.20506 0.37801 0.0
N449 N 0.90185 0.1817 0.37673 0.0
H450 H 0.90113 0.1523 0.33145 0.0
H451 H 0.89751 0.2139 0.4118 0.0
H452 H 0.93148 0.1346 0.35809 0.0
H453 H 0.94711 0.16035 0.49524 0.0
O454 O 0.88983 0.13429 0.40842 0.0
O455 O 0.89719 0.14061 0.48556 0.0
O456 O 0.91168 0.1886 0.47834 0.0
C457 C 0.89043 0.12646 0.45229 0.0
H458 H 0.82853 0.19898 0.50323 0.0
H459 H 0.97398 0.12295 0.37889 0.0
H460 H 0.89854 0.23653 0.33766 0.0
H461 H 0.90228 0.17358 0.25638 0.0
Co462 Co 0.16337 0.10913 0.58606 0.0
C463 C 0.17091 0.15823 0.60702 0.0
C464 C 0.18222 0.14902 0.53597 0.0
C465 C 0.18587 0.17211 0.54246 0.0
N466 N 0.17301 0.14037 0.57651 0.0
N467 N 0.17873 0.17788 0.58707 0.0
H468 H 0.16374 0.15685 0.64285 0.0
H469 H 0.18557 0.13935 0.50349 0.0
C470 C 0.20248 0.08174 0.54143 0.0
O471 O 0.20294 0.06698 0.57714 0.0
N472 N 0.15328 0.07764 0.59423 0.0
C473 C 0.14106 0.06874 0.6311 0.0
C474 C 0.13406 0.04696 0.61907 0.0
C475 C 0.15291 0.06127 0.55976 0.0
N476 N 0.14162 0.04233 0.57434 0.0
C477 C 0.17117 0.10778 0.68798 0.0
C478 C 0.2185 0.10967 0.68532 0.0
C479 C 0.20752 0.10805 0.7302 0.0
C480 C 0.18351 0.10741 0.73103 0.0
C481 C 0.20544 0.10985 0.64293 0.0
N482 N 0.18206 0.10786 0.64444 0.0
H483 H 0.15275 0.10872 0.68998 0.0
H484 H 0.21423 0.11218 0.60913 0.0
H485 H 0.13624 0.07763 0.66352 0.0
H486 H 0.15976 0.06352 0.52387 0.0
O487 O 0.13452 0.11972 0.61322 0.0
O488 O 0.141 0.11284 0.53587 0.0
O489 O 0.18905 0.09901 0.54265 0.0
C490 C 0.12678 0.1193 0.56925 0.0
H491 H 0.19255 0.18388 0.5158 0.0
H492 H 0.12386 0.03554 0.64112 0.0
H493 H 0.23701 0.11076 0.68291 0.0
H494 H 0.17423 0.10725 0.76483 0.0
Co495 Co 0.10823 0.84786 0.42581 0.0
C496 C 0.15865 0.84017 0.40988 0.0
C497 C 0.14825 0.83592 0.48334 0.0
C498 C 0.17156 0.83278 0.48073 0.0
N499 N 0.14002 0.84011 0.43883 0.0
N500 N 0.17807 0.83549 0.43456 0.0
H501 H 0.15836 0.84386 0.37193 0.0
H502 H 0.13796 0.83556 0.51576 0.0
C503 C 0.10723 0.80142 0.47097 0.0
O504 O 0.124 0.7952 0.44213 0.0
N505 N 0.07668 0.85598 0.41498 0.0
C506 C 0.06803 0.86685 0.37628 0.0
C507 C 0.04545 0.87229 0.38556 0.0
C508 C 0.0594 0.85482 0.44714 0.0
N509 N 0.04013 0.86469 0.43006 0.0
C510 C 0.11883 0.83834 0.32662 0.0
C511 C 0.09387 0.7982 0.31891 0.0
C512 C 0.10647 0.8058 0.27904 0.0
C513 C 0.11866 0.82642 0.28292 0.0
C514 C 0.09417 0.81091 0.36166 0.0
N515 N 0.10769 0.82997 0.36618 0.0
H516 H 0.12783 0.85449 0.32839 0.0
H517 H 0.08314 0.8055 0.39067 0.0
H518 H 0.07769 0.8712 0.34431 0.0
H519 H 0.06119 0.84791 0.4831 0.0
O520 O 0.11772 0.87739 0.40049 0.0
O521 O 0.10982 0.87 0.47705 0.0
O522 O 0.09806 0.8212 0.46662 0.0
C523 C 0.11625 0.88473 0.44467 0.0
H524 H 0.18294 0.82955 0.51074 0.0
H525 H 0.0339 0.88138 0.36177 0.0
H526 H 0.08343 0.78286 0.31669 0.0
H527 H 0.12813 0.83319 0.25254 0.0
C528 C 0.28913 0.08906 0.32372 0.0
C529 C 0.28417 0.075 0.284 0.0
C530 C 0.27633 0.08771 0.36629 0.0
C531 C 0.25793 0.07196 0.36943 0.0
C532 C 0.25311 0.05728 0.32999 0.0
C533 C 0.26638 0.0589 0.28772 0.0
C534 C 0.28216 0.10362 0.40749 0.0
C535 C 0.23352 0.04038 0.33194 0.0
C536 C 0.2342 0.06195 0.49566 0.0
C537 C 0.21634 0.07806 0.49726 0.0
C538 C 0.24749 0.05913 0.45368 0.0
C539 C 0.24263 0.07257 0.41241 0.0
C540 C 0.22415 0.08827 0.41346 0.0
C541 C 0.21134 0.09086 0.45575 0.0
C542 C 0.26715 0.0423 0.45394 0.0
C543 C 0.21828 0.10289 0.37029 0.0
H544 H 0.30318 0.10119 0.32175 0.0
H545 H 0.26256 0.04786 0.25736 0.0
H546 H 0.26777 0.11573 0.41367 0.0
H547 H 0.28456 0.09368 0.44114 0.0
H548 H 0.29797 0.11374 0.40053 0.0
H549 H 0.23311 0.02897 0.2999 0.0
H550 H 0.23482 0.02964 0.36478 0.0
H551 H 0.217 0.04979 0.33402 0.0
H552 H 0.23808 0.0519 0.52742 0.0
H553 H 0.19733 0.10308 0.45618 0.0
H554 H 0.28363 0.05171 0.45075 0.0
H555 H 0.26594 0.03061 0.42251 0.0
H556 H 0.26757 0.03186 0.48736 0.0
H557 H 0.23259 0.11492 0.36271 0.0
H558 H 0.20238 0.11306 0.37584 0.0
H559 H 0.21601 0.09196 0.33793 0.0
C560 C 0.08463 0.79434 0.54619 0.0
C561 C 0.10043 0.78651 0.51167 0.0
C562 C 0.07953 0.78126 0.58721 0.0
C563 C 0.0904 0.75979 0.59374 0.0
C564 C 0.10595 0.75156 0.55854 0.0
C565 C 0.1108 0.76503 0.51797 0.0
C566 C 0.06285 0.79057 0.62395 0.0
C567 C 0.11772 0.72863 0.56405 0.0
C568 C 0.09688 0.73224 0.71675 0.0
C569 C 0.08027 0.71487 0.7145 0.0
C570 C 0.09971 0.74772 0.67849 0.0
C571 C 0.08557 0.74576 0.63722 0.0
C572 C 0.0679 0.72914 0.63607 0.0
C573 C 0.06546 0.71391 0.67473 0.0
C574 C 0.11863 0.76537 0.68114 0.0
C575 C 0.05237 0.72659 0.59289 0.0
H576 H 0.07656 0.81095 0.54172 0.0
H577 H 0.123 0.75884 0.49153 0.0
H578 H 0.0487 0.77817 0.62986 0.0
H579 H 0.07169 0.79292 0.65897 0.0
H580 H 0.05536 0.80727 0.61283 0.0
H581 H 0.12911 0.72457 0.5331 0.0
H582 H 0.12815 0.72852 0.59745 0.0
H583 H 0.10474 0.71481 0.56747 0.0
H584 H 0.10839 0.73309 0.74734 0.0
H585 H 0.05244 0.70066 0.67292 0.0
H586 H 0.1119 0.78262 0.67193 0.0
H587 H 0.13214 0.76113 0.65444 0.0
H588 H 0.12662 0.76614 0.71741 0.0
H589 H 0.0449 0.74341 0.58282 0.0
H590 H 0.03817 0.71427 0.5995 0.0
H591 H 0.06251 0.72043 0.56163 0.0
C592 C 0.79877 0.91786 0.45152 0.0
C593 C 0.79255 0.92949 0.49387 0.0
C594 C 0.78598 0.92013 0.40917 0.0
C595 C 0.76627 0.93425 0.40895 0.0
C596 C 0.76017 0.94657 0.45111 0.0
C597 C 0.77349 0.94415 0.49312 0.0
C598 C 0.79322 0.90679 0.36503 0.0
C599 C 0.73916 0.96168 0.45226 0.0
C600 C 0.74177 0.94813 0.28518 0.0
C601 C 0.7253 0.93076 0.27993 0.0
C602 C 0.75483 0.95001 0.32764 0.0
C603 C 0.75114 0.93429 0.36577 0.0
C604 C 0.73415 0.91711 0.36103 0.0
C605 C 0.72156 0.91551 0.31825 0.0
C606 C 0.77295 0.96842 0.33127 0.0
C607 C 0.72958 0.90004 0.4008 0.0
H608 H 0.81371 0.9068 0.45134 0.0
H609 H 0.76867 0.95328 0.52558 0.0
H610 H 0.78004 0.89369 0.35636 0.0
H611 H 0.79461 0.91838 0.33352 0.0
H612 H 0.80994 0.89795 0.37007 0.0
H613 H 0.73777 0.97152 0.48641 0.0
H614 H 0.73947 0.97392 0.42171 0.0
H615 H 0.72355 0.95096 0.44814 0.0
H616 H 0.74466 0.96008 0.25594 0.0
H617 H 0.70864 0.90225 0.31504 0.0
H618 H 0.79017 0.96037 0.33335 0.0
H619 H 0.77053 0.97857 0.36469 0.0
H620 H 0.77265 0.98026 0.29995 0.0
H621 H 0.74493 0.88909 0.40626 0.0
H622 H 0.7147 0.88875 0.39276 0.0
H623 H 0.72623 0.90914 0.43519 0.0
C624 C 0.9184 0.2884 0.69787 0.0
C625 C 0.93364 0.28472 0.73623 0.0
C626 C 0.91987 0.27561 0.65525 0.0
C627 C 0.9369 0.25846 0.65068 0.0
C628 C 0.95261 0.25482 0.68886 0.0
C629 C 0.95087 0.26808 0.73114 0.0
C630 C 0.90281 0.28015 0.61544 0.0
C631 C 0.97087 0.23654 0.68549 0.0
C632 C 0.9204 0.21049 0.56541 0.0
C633 C 0.93212 0.21647 0.52303 0.0
C634 C 0.92259 0.2235 0.60755 0.0
C635 C 0.93678 0.24318 0.6076 0.0
C636 C 0.94921 0.24903 0.56544 0.0
C637 C 0.94682 0.23552 0.52361 0.0
C638 C 0.90912 0.21651 0.65169 0.0
C639 C 0.96442 0.26996 0.56407 0.0
H640 H 0.90524 0.30143 0.70095 0.0
H641 H 0.96281 0.26519 0.76041 0.0
H642 H 0.91192 0.28334 0.58102 0.0
H643 H 0.89177 0.26485 0.61014 0.0
H644 H 0.8916 0.29511 0.62334 0.0
H645 H 0.9827 0.23685 0.71683 0.0
H646 H 0.96268 0.21939 0.68357 0.0
H647 H 0.98106 0.23877 0.65207 0.0
H648 H 0.90929 0.19558 0.56575 0.0
H649 H 0.95602 0.24018 0.49115 0.0
H650 H 0.89612 0.22982 0.66012 0.0
H651 H 0.92067 0.21515 0.68328 0.0
H652 H 0.90016 0.19985 0.64678 0.0
H653 H 0.95377 0.28563 0.56801 0.0
H654 H 0.97427 0.2712 0.52993 0.0
H655 H 0.97665 0.26969 0.59464 0.0
C656 C 0.26214 0.42889 1.00464 0.0
C657 C 0.28599 0.4315 1.00242 0.0
C658 C 0.24901 0.42746 0.96218 0.0
C659 C 0.26001 0.42928 0.91673 0.0
C660 C 0.28389 0.4336 0.91474 0.0
C661 C 0.29662 0.43428 0.95754 0.0
C662 C 0.22368 0.4224 0.96591 0.0
C663 C 0.29625 0.43626 0.86728 0.0
C664 C 0.23587 0.39675 0.80946 0.0
C665 C 0.22388 0.41392 0.7847 0.0
C666 C 0.24726 0.4015 0.85283 0.0
C667 C 0.24722 0.42414 0.87143 0.0
C668 C 0.23551 0.44168 0.8461 0.0
C669 C 0.22369 0.43629 0.80336 0.0
C670 C 0.25915 0.38217 0.87906 0.0
C671 C 0.2356 0.46613 0.864 0.0
H672 H 0.25398 0.42646 0.03935 0.0
H673 H 0.3151 0.43638 0.9559 0.0
H674 H 0.2137 0.43433 0.94297 0.0
H675 H 0.22031 0.40475 0.95262 0.0
H676 H 0.21732 0.42373 1.00352 0.0
H677 H 0.31406 0.44269 0.87205 0.0
H678 H 0.29705 0.41943 0.84869 0.0
H679 H 0.28683 0.44825 0.84344 0.0
H680 H 0.23579 0.37935 0.79568 0.0
H681 H 0.21441 0.44961 0.78437 0.0
H682 H 0.25251 0.38091 0.91642 0.0
H683 H 0.27782 0.38568 0.88144 0.0
H684 H 0.25668 0.36535 0.86096 0.0
H685 H 0.22788 0.46701 0.90044 0.0
H686 H 0.22599 0.47784 0.83977 0.0
H687 H 0.25353 0.47238 0.86712 0.0
C688 C 0.43292 0.79097 0.2125 0.0
C689 C 0.41733 0.78351 0.24774 0.0
C690 C 0.43469 0.77962 0.16799 0.0
C691 C 0.42043 0.76049 0.15845 0.0
C692 C 0.40562 0.75214 0.19487 0.0
C693 C 0.40433 0.76368 0.23909 0.0
C694 C 0.45096 0.78881 0.13036 0.0
C695 C 0.39014 0.73176 0.18621 0.0
C696 C 0.39973 0.74701 0.03222 0.0
C697 C 0.41198 0.72693 0.02161 0.0
C698 C 0.40315 0.75873 0.07577 0.0
C699 C 0.41936 0.7503 0.10934 0.0
C700 C 0.43284 0.73091 0.0975 0.0
C701 C 0.42892 0.71939 0.05384 0.0
C702 C 0.38841 0.77936 0.08702 0.0
C703 C 0.45055 0.72161 0.13197 0.0
H704 H 0.44315 0.8062 0.21892 0.0
H705 H 0.39231 0.75771 0.26609 0.0
H706 H 0.46109 0.77466 0.11415 0.0
H707 H 0.441 0.79695 0.10097 0.0
H708 H 0.46296 0.80176 0.14543 0.0
H709 H 0.38078 0.72648 0.21923 0.0
H710 H 0.37738 0.73606 0.158 0.0
H711 H 0.40027 0.71694 0.17294 0.0
H712 H 0.38665 0.75301 1.00756 0.0
H713 H 0.43862 0.70399 0.04577 0.0
H714 H 0.39925 0.79401 0.09849 0.0
H715 H 0.37669 0.77525 0.11733 0.0
H716 H 0.37789 0.78479 0.05569 0.0
H717 H 0.46148 0.73567 0.1461 0.0
H718 H 0.46173 0.70852 0.11479 0.0
H719 H 0.44179 0.71361 0.16319 0.0
C720 C 0.71455 0.57719 0.96535 0.0
C721 C 0.72238 0.59252 1.00072 0.0
C722 C 0.72616 0.57481 0.92131 0.0
C723 C 0.74601 0.58814 0.91242 0.0
C724 C 0.75475 0.60261 0.94906 0.0
C725 C 0.74287 0.60457 0.9928 0.0
C726 C 0.71648 0.55898 0.88338 0.0
C727 C 0.77594 0.61703 0.94109 0.0
C728 C 0.78674 0.57672 0.80829 0.0
C729 C 0.78017 0.59382 0.77549 0.0
C730 C 0.77513 0.57392 0.85222 0.0
C731 C 0.75659 0.58861 0.86365 0.0
C732 C 0.74916 0.6051 0.82965 0.0
C733 C 0.761 0.60747 0.78596 0.0
C734 C 0.78341 0.55599 0.88732 0.0
C735 C 0.72938 0.62106 0.8404 0.0
H736 H 0.69881 0.56768 0.97122 0.0
H737 H 0.74913 0.61638 0.01993 0.0
H738 H 0.70917 0.5693 0.85358 0.0
H739 H 0.73022 0.54808 0.86785 0.0
H740 H 0.70276 0.54771 0.89795 0.0
H741 H 0.78152 0.626 0.9744 0.0
H742 H 0.79029 0.60621 0.92797 0.0
H743 H 0.77244 0.6301 0.91301 0.0
H744 H 0.80147 0.566 0.80046 0.0
H745 H 0.75574 0.62067 0.76084 0.0
H746 H 0.76879 0.54568 0.90094 0.0
H747 H 0.79143 0.56453 0.9188 0.0
H748 H 0.79622 0.54424 0.87089 0.0
H749 H 0.71405 0.6111 0.8515 0.0
H750 H 0.72475 0.63186 0.80895 0.0
H751 H 0.734 0.63251 0.87083 0.0
C752 C 0.55718 0.23622 0.24623 0.0
C753 C 0.57015 0.21597 0.24723 0.0
C754 C 0.55635 0.24987 0.20439 0.0
C755 C 0.56856 0.24294 0.16263 0.0
C756 C 0.5809 0.22207 0.16306 0.0
C757 C 0.58157 0.20893 0.2052 0.0
C758 C 0.54305 0.27207 0.20532 0.0
C759 C 0.59404 0.21389 0.11937 0.0
C760 C 0.55723 0.26891 0.03893 0.0
C761 C 0.57571 0.28421 0.03436 0.0
C762 C 0.55426 0.25577 0.081 0.0
C763 C 0.57003 0.25811 0.11951 0.0
C764 C 0.58845 0.27381 0.11536 0.0
C765 C 0.5911 0.28655 0.07293 0.0
C766 C 0.53453 0.23906 0.08389 0.0
C767 C 0.60566 0.27688 0.15552 0.0
H768 H 0.54825 0.24172 0.27846 0.0
H769 H 0.59126 0.19306 0.2052 0.0
H770 H 0.55508 0.28673 0.20175 0.0
H771 H 0.53106 0.27285 0.17437 0.0
H772 H 0.53311 0.27421 0.23916 0.0
H773 H 0.60153 0.19655 0.12459 0.0
H774 H 0.58264 0.21344 0.08743 0.0
H775 H 0.60818 0.22605 0.1113 0.0
H776 H 0.54516 0.26707 1.00952 0.0
H777 H 0.60528 0.29849 0.0702 0.0
H778 H 0.52427 0.2423 0.11686 0.0
H779 H 0.54124 0.2213 0.08641 0.0
H780 H 0.52303 0.24018 0.05209 0.0
H781 H 0.59669 0.28094 0.18971 0.0
H782 H 0.6182 0.29077 0.14782 0.0
H783 H 0.61525 0.26067 0.16114 0.0
C784 C 0.32543 0.29285 0.05933 0.0
C785 C 0.33146 0.31101 0.09029 0.0
C786 C 0.32574 0.26998 0.07491 0.0
C787 C 0.33265 0.26489 0.12245 0.0
C788 C 0.33944 0.28287 0.15358 0.0
C789 C 0.33859 0.30567 0.13733 0.0
C790 C 0.31811 0.25128 0.04076 0.0
C791 C 0.34722 0.27805 0.20442 0.0
C792 C 0.31043 0.21044 0.18073 0.0
C793 C 0.32904 0.1955 0.17492 0.0
C794 C 0.3113 0.23296 0.16326 0.0
C795 C 0.33151 0.24089 0.14038 0.0
C796 C 0.35041 0.22585 0.13444 0.0
C797 C 0.34882 0.20318 0.1513 0.0
C798 C 0.29058 0.24825 0.16924 0.0
C799 C 0.37239 0.23382 0.11108 0.0
H800 H 0.32026 0.29629 0.02273 0.0
H801 H 0.34326 0.31921 0.16202 0.0
H802 H 0.3318 0.23821 0.03683 0.0
H803 H 0.3028 0.24246 0.05563 0.0
H804 H 0.31377 0.25801 1.0045 0.0
H805 H 0.35366 0.29369 0.22286 0.0
H806 H 0.33272 0.27099 0.22564 0.0
H807 H 0.36103 0.26495 0.20434 0.0
H808 H 0.29508 0.20433 0.19863 0.0
H809 H 0.36326 0.19162 0.14737 0.0
H810 H 0.28487 0.25465 0.13359 0.0
H811 H 0.29511 0.26344 0.19136 0.0
H812 H 0.27599 0.23923 0.18669 0.0
H813 H 0.36894 0.23989 0.07396 0.0
H814 H 0.38554 0.22004 0.10948 0.0
H815 H 0.37955 0.24856 0.13146 0.0
C816 C 0.20938 0.69109 0.82017 0.0
C817 C 0.19261 0.67667 0.84015 0.0
C818 C 0.23184 0.69148 0.83823 0.0
C819 C 0.23775 0.6771 0.87731 0.0
C820 C 0.22089 0.66263 0.89798 0.0
C821 C 0.19849 0.66263 0.8792 0.0
C822 C 0.24927 0.70728 0.81539 0.0
C823 C 0.22657 0.64702 0.93962 0.0
C824 C 0.30106 0.66335 0.89293 0.0
C825 C 0.3075 0.67881 0.92923 0.0
C826 C 0.27834 0.66237 0.87621 0.0
C827 C 0.26164 0.67721 0.89623 0.0
C828 C 0.26796 0.69271 0.93315 0.0
C829 C 0.29079 0.69333 0.94917 0.0
C830 C 0.27225 0.64555 0.83687 0.0
C831 C 0.25068 0.70889 0.95527 0.0
H832 H 0.20488 0.70229 0.79058 0.0
H833 H 0.1857 0.65129 0.89449 0.0
H834 H 0.25625 0.71924 0.84279 0.0
H835 H 0.26388 0.69713 0.80118 0.0
H836 H 0.24186 0.7175 0.78546 0.0
H837 H 0.21145 0.63702 0.95199 0.0
H838 H 0.24031 0.63486 0.92894 0.0
H839 H 0.2332 0.65723 0.97031 0.0
H840 H 0.31371 0.65178 0.87792 0.0
H841 H 0.29567 0.70548 0.97683 0.0
H842 H 0.26593 0.65494 0.80479 0.0
H843 H 0.25818 0.63412 0.84908 0.0
H844 H 0.28711 0.63479 0.82595 0.0
H845 H 0.24385 0.7206 0.92727 0.0
H846 H 0.25818 0.71938 0.98472 0.0
H847 H 0.23593 0.69907 0.96988 0.0
C848 C 0.69414 0.79324 0.19111 0.0
C849 C 0.6801 0.81045 0.17167 0.0
C850 C 0.6932 0.77063 0.174 0.0
C851 C 0.67786 0.76502 0.13634 0.0
C852 C 0.66387 0.78233 0.11595 0.0
C853 C 0.66517 0.80486 0.13383 0.0
C854 C 0.70853 0.75272 0.19649 0.0
C855 C 0.6473 0.77698 0.07572 0.0
C856 C 0.69038 0.71052 0.06604 0.0
C857 C 0.67548 0.69472 0.08787 0.0
C858 C 0.69108 0.73352 0.08092 0.0
C859 C 0.6765 0.74095 0.11859 0.0
C860 C 0.66128 0.72517 0.14055 0.0
C861 C 0.66097 0.70224 0.12498 0.0
C862 C 0.70766 0.74978 0.05681 0.0
C863 C 0.64542 0.73247 0.18074 0.0
H864 H 0.70601 0.79749 0.21973 0.0
H865 H 0.65412 0.81799 0.11895 0.0
H866 H 0.69794 0.7388 0.21226 0.0
H867 H 0.71962 0.74482 0.16855 0.0
H868 H 0.71966 0.75994 0.2252 0.0
H869 H 0.63793 0.79245 0.06318 0.0
H870 H 0.65665 0.76941 0.04474 0.0
H871 H 0.6346 0.76406 0.08801 0.0
H872 H 0.70183 0.70478 0.03778 0.0
H873 H 0.64916 0.69026 0.14149 0.0
H874 H 0.72015 0.75634 0.0836 0.0
H875 H 0.69829 0.7648 0.04222 0.0
H876 H 0.71728 0.74147 0.027 0.0
H877 H 0.65563 0.73868 0.21183 0.0
H878 H 0.63416 0.71827 0.1931 0.0
H879 H 0.63448 0.74693 0.16866 0.0
C880 C 0.8068 0.34352 0.8792 0.0
C881 C 0.81279 0.3295 0.84009 0.0
C882 C 0.78419 0.34401 0.89687 0.0
C883 C 0.76719 0.33008 0.87504 0.0
C884 C 0.77315 0.31587 0.83568 0.0
C885 C 0.79583 0.31575 0.81874 0.0
C886 C 0.77848 0.35944 0.93887 0.0
C887 C 0.7556 0.30061 0.81164 0.0
C888 C 0.71454 0.31361 0.94789 0.0
C889 C 0.6978 0.32854 0.9296 0.0
C890 C 0.73716 0.31403 0.93064 0.0
C891 C 0.7433 0.32981 0.89416 0.0
C892 C 0.72649 0.3449 0.87533 0.0
C893 C 0.70392 0.34403 0.89317 0.0
C894 C 0.75449 0.29749 0.95134 0.0
C895 C 0.73239 0.36201 0.83648 0.0
H896 H 0.81971 0.35439 0.8955 0.0
H897 H 0.80037 0.3046 0.78903 0.0
H898 H 0.76461 0.37152 0.92866 0.0
H899 H 0.77201 0.34902 0.96941 0.0
H900 H 0.79355 0.36949 0.9513 0.0
H901 H 0.76292 0.29088 0.78086 0.0
H902 H 0.74859 0.28821 0.83811 0.0
H903 H 0.74102 0.31107 0.79839 0.0
H904 H 0.70988 0.30135 0.97547 0.0
H905 H 0.69116 0.35578 0.87927 0.0
H906 H 0.76919 0.30709 0.96677 0.0
H907 H 0.76137 0.28632 0.92239 0.0
H908 H 0.74701 0.28645 0.97989 0.0
H909 H 0.74636 0.37347 0.84903 0.0
H910 H 0.71743 0.3727 0.82603 0.0
H911 H 0.73879 0.3529 0.80407 0.0
C912 C 0.81494 0.79127 0.5856 0.0
C913 C 0.83118 0.80742 0.60115 0.0
C914 C 0.81518 0.76867 0.60283 0.0
C915 C 0.83211 0.76198 0.63651 0.0
C916 C 0.84836 0.77826 0.653 0.0
C917 C 0.84767 0.80082 0.63519 0.0
C918 C 0.79743 0.75189 0.58465 0.0
C919 C 0.86668 0.77176 0.68886 0.0
C920 C 0.82034 0.70845 0.71044 0.0
C921 C 0.8329 0.69173 0.68535 0.0
C922 C 0.82016 0.73141 0.69532 0.0
C923 C 0.83284 0.73787 0.65405 0.0
C924 C 0.84567 0.72113 0.62867 0.0
C925 C 0.84552 0.69827 0.64459 0.0
C926 C 0.80616 0.74872 0.72319 0.0
C927 C 0.85946 0.72736 0.58455 0.0
H928 H 0.80192 0.79635 0.55994 0.0
H929 H 0.86041 0.81312 0.64697 0.0
H930 H 0.80603 0.73732 0.56632 0.0
H931 H 0.78757 0.74471 0.61531 0.0
H932 H 0.78521 0.75992 0.55904 0.0
H933 H 0.87772 0.78655 0.69886 0.0
H934 H 0.85867 0.7648 0.72202 0.0
H935 H 0.87769 0.75804 0.6736 0.0
H936 H 0.81031 0.7035 0.74156 0.0
H937 H 0.85555 0.68556 0.62545 0.0
H938 H 0.79271 0.75612 0.69961 0.0
H939 H 0.81726 0.76308 0.73522 0.0
H940 H 0.79775 0.74105 0.75526 0.0
H941 H 0.84794 0.73429 0.55632 0.0
H942 H 0.8689 0.71244 0.56948 0.0
H943 H 0.87202 0.74102 0.59352 0.0
C944 C 0.80268 0.16551 0.37921 0.0
C945 C 0.80791 0.17417 0.42514 0.0
C946 C 0.77986 0.16371 0.36339 0.0
C947 C 0.76184 0.17117 0.39376 0.0
C948 C 0.76688 0.17951 0.44033 0.0
C949 C 0.78975 0.18063 0.45562 0.0
C950 C 0.77507 0.15431 0.31374 0.0
C951 C 0.74814 0.18789 0.47361 0.0
C952 C 0.70682 0.19176 0.33552 0.0
C953 C 0.69188 0.17348 0.34477 0.0
C954 C 0.72964 0.19118 0.35122 0.0
C955 C 0.73782 0.17161 0.37597 0.0
C956 C 0.72285 0.15295 0.38499 0.0
C957 C 0.69992 0.15423 0.36971 0.0
C958 C 0.74491 0.21164 0.34189 0.0
C959 C 0.73109 0.13162 0.41046 0.0
H960 H 0.81635 0.16051 0.35506 0.0
H961 H 0.79324 0.18676 0.49158 0.0
H962 H 0.76193 0.14055 0.31566 0.0
H963 H 0.76805 0.16809 0.29053 0.0
H964 H 0.79073 0.14728 0.29633 0.0
H965 H 0.75488 0.19341 0.50918 0.0
H966 H 0.73909 0.20261 0.45689 0.0
H967 H 0.73525 0.17418 0.47944 0.0
H968 H 0.70046 0.20671 0.3166 0.0
H969 H 0.68838 0.13999 0.37624 0.0
H970 H 0.76008 0.20637 0.32047 0.0
H971 H 0.75133 0.21863 0.37652 0.0
H972 H 0.73584 0.22554 0.32227 0.0
H973 H 0.74599 0.12423 0.39099 0.0
H974 H 0.71749 0.11834 0.41321 0.0
H975 H 0.737 0.13602 0.44728 0.0
C976 C 0.16231 0.30941 0.6487 0.0
C977 C 0.17353 0.31614 0.69105 0.0
C978 C 0.16296 0.28655 0.6329 0.0
C979 C 0.17522 0.27006 0.66001 0.0
C980 C 0.18655 0.27672 0.70283 0.0
C981 C 0.18553 0.29967 0.71787 0.0
C982 C 0.15055 0.28005 0.58717 0.0
C983 C 0.19995 0.25965 0.73248 0.0
C984 C 0.16115 0.20713 0.63978 0.0
C985 C 0.17845 0.20059 0.60748 0.0
C986 C 0.15999 0.22965 0.65759 0.0
C987 C 0.17661 0.24593 0.64292 0.0
C988 C 0.1944 0.23929 0.61115 0.0
C989 C 0.19507 0.21671 0.59379 0.0
C990 C 0.14072 0.23615 0.69129 0.0
C991 C 0.21257 0.25609 0.59504 0.0
H992 H 0.15273 0.32197 0.62824 0.0
H993 H 0.19446 0.30484 0.75029 0.0
H994 H 0.16294 0.27313 0.56054 0.0
H995 H 0.13786 0.26632 0.5947 0.0
H996 H 0.14146 0.29485 0.57075 0.0
H997 H 0.20748 0.26753 0.7653 0.0
H998 H 0.18866 0.24527 0.74352 0.0
H999 H 0.21403 0.25224 0.71053 0.0
H1000 H 0.14812 0.19482 0.65004 0.0
H1001 H 0.20868 0.21164 0.56943 0.0
H1002 H 0.13002 0.24972 0.67461 0.0
H1003 H 0.1478 0.2433 0.72519 0.0
H1004 H 0.12954 0.22132 0.70024 0.0
H1005 H 0.20446 0.27051 0.57532 0.0
H1006 H 0.22559 0.24802 0.57124 0.0
H1007 H 0.22142 0.2635 0.62679 0.0
C1008 C 0.30121 0.81861 0.31467 0.0
C1009 C 0.3174 0.83312 0.3363 0.0
C1010 C 0.2782 0.8187 0.32948 0.0
C1011 C 0.27119 0.83377 0.36664 0.0
C1012 C 0.28742 0.84855 0.38847 0.0
C1013 C 0.31035 0.848 0.37312 0.0
C1014 C 0.26143 0.80254 0.30563 0.0
C1015 C 0.28054 0.86498 0.42799 0.0
C1016 C 0.20795 0.84862 0.37791 0.0
C1017 C 0.20118 0.83458 0.41632 0.0
C1018 C 0.23069 0.84848 0.36119 0.0
C1019 C 0.24695 0.83383 0.38323 0.0
C1020 C 0.24012 0.81936 0.42152 0.0
C1021 C 0.21733 0.81997 0.43767 0.0
C1022 C 0.23739 0.86426 0.32045 0.0
C1023 C 0.25691 0.80334 0.44562 0.0
H1024 H 0.30665 0.80691 0.2866 0.0
H1025 H 0.32271 0.8595 0.38941 0.0
H1026 H 0.25389 0.79085 0.33289 0.0
H1027 H 0.24708 0.8124 0.28951 0.0
H1028 H 0.2696 0.79203 0.277 0.0
H1029 H 0.29518 0.87556 0.44076 0.0
H1030 H 0.2668 0.87659 0.41497 0.0
H1031 H 0.27349 0.8553 0.45902 0.0
H1032 H 0.1956 0.86015 0.36172 0.0
H1033 H 0.21208 0.80886 0.46689 0.0
H1034 H 0.2447 0.85416 0.29026 0.0
H1035 H 0.25089 0.87633 0.33275 0.0
H1036 H 0.22261 0.87436 0.30676 0.0
H1037 H 0.26458 0.7916 0.41857 0.0
H1038 H 0.24873 0.79287 0.4743 0.0
H1039 H 0.27116 0.81333 0.4618 0.0
C1040 C 0.28851 0.09351 0.96213 0.0
C1041 C 0.2813 0.10749 1.00045 0.0
C1042 C 0.27682 0.09345 0.9179 0.0
C1043 C 0.25746 0.1078 0.91156 0.0
C1044 C 0.25006 0.12194 0.95009 0.0
C1045 C 0.26201 0.12155 0.99411 0.0
C1046 C 0.28515 0.07794 0.87799 0.0
C1047 C 0.22958 0.13758 0.94473 0.0
C1048 C 0.23935 0.12262 0.78337 0.0
C1049 C 0.22078 0.10768 0.77611 0.0
C1050 C 0.25139 0.12291 0.82727 0.0
C1051 C 0.24482 0.10779 0.86477 0.0
C1052 C 0.22625 0.09251 0.85744 0.0
C1053 C 0.21445 0.09268 0.81334 0.0
C1054 C 0.27101 0.13953 0.83369 0.0
C1055 C 0.21884 0.07595 0.89621 0.0
H1056 H 0.30319 0.08234 0.96693 0.0
H1057 H 0.25647 0.13257 0.02333 0.0
H1058 H 0.27132 0.06586 0.86743 0.0
H1059 H 0.28951 0.08826 0.84572 0.0
H1060 H 0.3005 0.06784 0.88863 0.0
H1061 H 0.22612 0.14764 0.97793 0.0
H1062 H 0.23245 0.14967 0.91449 0.0
H1063 H 0.2141 0.12734 0.9359 0.0
H1064 H 0.24418 0.13445 0.75505 0.0
H1065 H 0.20031 0.08089 0.80783 0.0
H1066 H 0.28701 0.13004 0.84204 0.0
H1067 H 0.26747 0.15107 0.8646 0.0
H1068 H 0.27397 0.15018 0.80112 0.0
H1069 H 0.23336 0.06459 0.90608 0.0
H1070 H 0.20414 0.06511 0.88478 0.0
H1071 H 0.21384 0.08552 0.92912 0.0
C1072 C 0.11179 0.76903 0.23373 0.0
C1073 C 0.10656 0.7925 0.23342 0.0
C1074 C 0.11229 0.75626 0.1908 0.0
C1075 C 0.10692 0.76711 0.14659 0.0
C1076 C 0.10141 0.79079 0.14619 0.0
C1077 C 0.10154 0.80324 0.18955 0.0
C1078 C 0.11867 0.73118 0.19272 0.0
C1079 C 0.09509 0.80289 0.10005 0.0
C1080 C 0.12617 0.73957 0.02878 0.0
C1081 C 0.1064 0.72758 0.01493 0.0
C1082 C 0.12666 0.75237 0.07172 0.0
C1083 C 0.10674 0.75361 0.1009 0.0
C1084 C 0.08661 0.74182 0.08655 0.0
C1085 C 0.08677 0.72877 0.04403 0.0
C1086 C 0.14859 0.76431 0.08621 0.0
C1087 C 0.06487 0.74305 0.11603 0.0
H1088 H 0.11587 0.76075 0.26759 0.0
H1089 H 0.0973 0.82135 0.18931 0.0
H1090 H 0.10421 0.72056 0.17946 0.0
H1091 H 0.13354 0.72784 0.16875 0.0
H1092 H 0.12312 0.7255 0.22972 0.0
H1093 H 0.09099 0.82129 0.10592 0.0
H1094 H 0.10943 0.80167 0.0739 0.0
H1095 H 0.07999 0.79441 0.08342 0.0
H1096 H 0.14141 0.73853 1.00648 0.0
H1097 H 0.0714 0.71968 0.0331 0.0
H1098 H 0.15424 0.75806 0.12201 0.0
H1099 H 0.14559 0.78303 0.08954 0.0
H1100 H 0.16266 0.76142 0.0599 0.0
H1101 H 0.06794 0.73591 0.15245 0.0
H1102 H 0.0505 0.73347 0.09914 0.0
H1103 H 0.05961 0.76121 0.12072 0.0
C1104 C 0.72052 0.9128 0.95756 0.0
C1105 C 0.72768 0.89885 0.9959 0.0
C1106 C 0.73234 0.91295 0.91344 0.0
C1107 C 0.75183 0.89875 0.90721 0.0
C1108 C 0.75916 0.8846 0.94573 0.0
C1109 C 0.74706 0.88487 0.9896 0.0
C1110 C 0.72404 0.92845 0.87355 0.0
C1111 C 0.77977 0.86912 0.94052 0.0
C1112 C 0.77058 0.88416 0.77914 0.0
C1113 C 0.78904 0.89928 0.77217 0.0
C1114 C 0.75838 0.88375 0.82288 0.0
C1115 C 0.76466 0.89889 0.86058 0.0
C1116 C 0.78315 0.91431 0.85359 0.0
C1117 C 0.79511 0.91428 0.80963 0.0
C1118 C 0.73885 0.86697 0.8289 0.0
C1119 C 0.79029 0.9309 0.89259 0.0
H1120 H 0.70577 0.92391 0.96229 0.0
H1121 H 0.75258 0.87385 0.01877 0.0
H1122 H 0.73781 0.94067 0.86335 0.0
H1123 H 0.71994 0.91813 0.8411 0.0
H1124 H 0.70856 0.93838 0.88402 0.0
H1125 H 0.78317 0.85903 0.97366 0.0
H1126 H 0.77711 0.85705 0.91012 0.0
H1127 H 0.79522 0.87947 0.93203 0.0
H1128 H 0.76593 0.87232 0.75069 0.0
H1129 H 0.80915 0.92621 0.80437 0.0
H1130 H 0.72274 0.87635 0.83705 0.0
H1131 H 0.74234 0.85545 0.8598 0.0
H1132 H 0.7361 0.85632 0.79623 0.0
H1133 H 0.77566 0.94217 0.90226 0.0
H1134 H 0.80498 0.94183 0.88148 0.0
H1135 H 0.79519 0.92134 0.92553 0.0
C1136 C 0.91634 0.21368 0.20686 0.0
C1137 C 0.9015 0.2201 0.24438 0.0
C1138 C 0.91632 0.22533 0.16255 0.0
C1139 C 0.901 0.24385 0.1552 0.0
C1140 C 0.88602 0.25049 0.19296 0.0
C1141 C 0.88651 0.23862 0.23708 0.0
C1142 C 0.93277 0.21783 0.12358 0.0
C1143 C 0.86934 0.27006 0.1866 0.0
C1144 C 0.91501 0.28758 0.05753 0.0
C1145 C 0.90092 0.28043 0.01935 0.0
C1146 C 0.91522 0.27585 0.10172 0.0
C1147 C 0.90091 0.25646 0.10826 0.0
C1148 C 0.8867 0.24907 0.06983 0.0
C1149 C 0.88695 0.26106 0.02581 0.0
C1150 C 0.93084 0.28418 0.1414 0.0
C1151 C 0.87109 0.22858 0.07535 0.0
H1152 H 0.92818 0.19958 0.21232 0.0
H1153 H 0.87479 0.24354 0.26557 0.0
H1154 H 0.92311 0.21281 0.09084 0.0
H1155 H 0.94415 0.23231 0.11349 0.0
H1156 H 0.94361 0.20313 0.13495 0.0
H1157 H 0.85873 0.27302 0.21924 0.0
H1158 H 0.8788 0.28607 0.17812 0.0
H1159 H 0.85778 0.26647 0.15579 0.0
H1160 H 0.92612 0.30231 0.05267 0.0
H1161 H 0.87587 0.25553 0.99671 0.0
H1162 H 0.94288 0.27033 0.15194 0.0
H1163 H 0.92058 0.28862 0.17375 0.0
H1164 H 0.94098 0.29947 0.13057 0.0
H1165 H 0.88135 0.21312 0.0842 0.0
H1166 H 0.86101 0.22507 0.04222 0.0
H1167 H 0.85901 0.23146 0.10564 0.0
C1168 C 0.245 0.39898 0.49382 0.0
C1169 C 0.22165 0.40471 0.49605 0.0
C1170 C 0.25673 0.39815 0.4495 0.0
C1171 C 0.24497 0.4036 0.40631 0.0
C1172 C 0.22143 0.40962 0.40847 0.0
C1173 C 0.21005 0.40992 0.45315 0.0
C1174 C 0.28171 0.39132 0.44885 0.0
C1175 C 0.20833 0.41603 0.36359 0.0
C1176 C 0.28149 0.4228 0.2997 0.0
C1177 C 0.2819 0.40305 0.27082 0.0
C1178 C 0.26919 0.42334 0.34327 0.0
C1179 C 0.25739 0.40347 0.35907 0.0
C1180 C 0.25767 0.38349 0.32988 0.0
C1181 C 0.26971 0.3836 0.28586 0.0
C1182 C 0.26895 0.44518 0.37253 0.0
C1183 C 0.24567 0.36182 0.34568 0.0
H1184 H 0.25402 0.39475 0.52676 0.0
H1185 H 0.19207 0.41463 0.45465 0.0
H1186 H 0.28419 0.37633 0.42476 0.0
H1187 H 0.29225 0.40555 0.43425 0.0
H1188 H 0.2882 0.38689 0.48526 0.0
H1189 H 0.19014 0.42039 0.37133 0.0
H1190 H 0.2166 0.43098 0.34598 0.0
H1191 H 0.20873 0.40164 0.33745 0.0
H1192 H 0.29078 0.43792 0.28802 0.0
H1193 H 0.27018 0.36824 0.26386 0.0
H1194 H 0.2771 0.44215 0.40803 0.0
H1195 H 0.251 0.45062 0.3794 0.0
H1196 H 0.27816 0.45942 0.35428 0.0
H1197 H 0.25284 0.35596 0.38056 0.0
H1198 H 0.24747 0.34775 0.31895 0.0
H1199 H 0.22714 0.36522 0.35145 0.0
C1200 C 0.39017 0.78135 0.54919 0.0
C1201 C 0.41101 0.78612 0.52588 0.0
C1202 C 0.38953 0.76849 0.59192 0.0
C1203 C 0.41024 0.76017 0.61203 0.0
C1204 C 0.43134 0.76487 0.58869 0.0
C1205 C 0.43147 0.77776 0.54593 0.0
C1206 C 0.36667 0.76376 0.61552 0.0
C1207 C 0.4538 0.75642 0.60908 0.0
C1208 C 0.4103 0.74499 0.74533 0.0
C1209 C 0.40793 0.72103 0.74416 0.0
C1210 C 0.41127 0.7579 0.70267 0.0
C1211 C 0.40979 0.74663 0.6576 0.0
C1212 C 0.40756 0.72244 0.6561 0.0
C1213 C 0.40669 0.70995 0.69932 0.0
C1214 C 0.41364 0.78365 0.70585 0.0
C1215 C 0.40599 0.70976 0.6088 0.0
H1216 H 0.37425 0.78747 0.53365 0.0
H1217 H 0.44768 0.78161 0.52859 0.0
H1218 H 0.36385 0.74499 0.61828 0.0
H1219 H 0.36657 0.77075 0.65267 0.0
H1220 H 0.35213 0.77143 0.59531 0.0
H1221 H 0.4687 0.76132 0.58636 0.0
H1222 H 0.45636 0.76354 0.64574 0.0
H1223 H 0.45345 0.73746 0.61248 0.0
H1224 H 0.41098 0.75375 0.77973 0.0
H1225 H 0.40525 0.69143 0.69795 0.0
H1226 H 0.39852 0.79199 0.6891 0.0
H1227 H 0.42902 0.78935 0.68555 0.0
H1228 H 0.41515 0.78975 0.74361 0.0
H1229 H 0.3909 0.7159 0.58818 0.0
H1230 H 0.40443 0.69092 0.61377 0.0
H1231 H 0.42143 0.71332 0.58666 0.0
C1232 C 0.72329 0.62008 0.29956 0.0
C1233 C 0.7173 0.59928 0.27736 0.0
C1234 C 0.73635 0.62049 0.34211 0.0
C1235 C 0.74351 0.5996 0.36333 0.0
C1236 C 0.73747 0.57854 0.34118 0.0
C1237 C 0.72452 0.57864 0.29845 0.0
C1238 C 0.74258 0.64332 0.36426 0.0
C1239 C 0.74456 0.55588 0.36282 0.0
C1240 C 0.79413 0.6001 0.45028 0.0
C1241 C 0.78312 0.5999 0.4953 0.0
C1242 C 0.78148 0.60014 0.40715 0.0
C1243 C 0.75719 0.59977 0.40884 0.0
C1244 C 0.74596 0.59955 0.45406 0.0
C1245 C 0.75902 0.59972 0.49661 0.0
C1246 C 0.79414 0.60045 0.35972 0.0
C1247 C 0.72011 0.59911 0.45752 0.0
H1248 H 0.71803 0.63611 0.28321 0.0
H1249 H 0.71974 0.56249 0.28192 0.0
H1250 H 0.73569 0.64439 0.40142 0.0
H1251 H 0.76151 0.64495 0.36677 0.0
H1252 H 0.73582 0.65803 0.34319 0.0
H1253 H 0.73856 0.54102 0.34115 0.0
H1254 H 0.76352 0.55504 0.36582 0.0
H1255 H 0.73749 0.55431 0.39976 0.0
H1256 H 0.8127 0.59986 0.44863 0.0
H1257 H 0.75028 0.59992 0.53105 0.0
H1258 H 0.78867 0.61549 0.33814 0.0
H1259 H 0.78983 0.58487 0.33862 0.0
H1260 H 0.81305 0.60119 0.3645 0.0
H1261 H 0.71282 0.61448 0.43967 0.0
H1262 H 0.71399 0.59869 0.49539 0.0
H1263 H 0.71329 0.58385 0.43842 0.0
C1264 C 0.59426 0.26298 0.7441 0.0
C1265 C 0.60928 0.28149 0.75147 0.0
C1266 C 0.59357 0.25122 0.69982 0.0
C1267 C 0.60834 0.25799 0.66183 0.0
C1268 C 0.62368 0.27652 0.66916 0.0
C1269 C 0.62395 0.28803 0.71372 0.0
C1270 C 0.57688 0.23164 0.69356 0.0
C1271 C 0.63986 0.2842 0.62988 0.0
C1272 C 0.62106 0.21425 0.56309 0.0
C1273 C 0.60631 0.22127 0.52594 0.0
C1274 C 0.62203 0.22612 0.60716 0.0
C1275 C 0.60787 0.24555 0.6146 0.0
C1276 C 0.59316 0.25294 0.57705 0.0
C1277 C 0.5926 0.24078 0.53321 0.0
C1278 C 0.63811 0.21775 0.64593 0.0
C1279 C 0.57772 0.2735 0.58346 0.0
H1280 H 0.58266 0.25796 0.77272 0.0
H1281 H 0.63583 0.30209 0.71915 0.0
H1282 H 0.56505 0.23535 0.66327 0.0
H1283 H 0.5863 0.21569 0.68434 0.0
H1284 H 0.56653 0.22849 0.72649 0.0
H1285 H 0.65075 0.29887 0.64123 0.0
H1286 H 0.65118 0.26978 0.61913 0.0
H1287 H 0.62996 0.28932 0.59753 0.0
H1288 H 0.63201 0.19945 0.55765 0.0
H1289 H 0.581 0.24622 0.50498 0.0
H1290 H 0.62819 0.21303 0.67855 0.0
H1291 H 0.65012 0.23166 0.65638 0.0
H1292 H 0.64829 0.20263 0.63426 0.0
H1293 H 0.56572 0.27048 0.61382 0.0
H1294 H 0.56755 0.27729 0.55061 0.0
H1295 H 0.5881 0.28884 0.59269 0.0
C1296 C 0.37772 0.01325 0.25329 0.0
C1297 C 0.359 0.0133 0.22169 0.0
C1298 C 0.38549 0.99271 0.27418 0.0
C1299 C 0.37395 0.97189 0.26372 0.0
C1300 C 0.35437 0.97211 0.23361 0.0
C1301 C 0.34726 0.99278 0.21269 0.0
C1302 C 0.40658 0.99313 0.30566 0.0
C1303 C 0.34132 0.95038 0.22221 0.0
C1304 C 0.40479 0.91467 0.26483 0.0
C1305 C 0.39694 0.905 0.30794 0.0
C1306 C 0.39826 0.93688 0.25118 0.0
C1307 C 0.38319 0.94958 0.28101 0.0
C1308 C 0.37569 0.94013 0.32527 0.0
C1309 C 0.38281 0.91797 0.33841 0.0
C1310 C 0.40692 0.94644 0.20403 0.0
C1311 C 0.35939 0.95303 0.35773 0.0
H1312 H 0.38684 0.02914 0.26002 0.0
H1313 H 0.33254 0.99291 0.18888 0.0
H1314 H 0.40314 0.98429 0.34026 0.0
H1315 H 0.4207 0.98371 0.28754 0.0
H1316 H 0.41247 0.01088 0.31336 0.0
H1317 H 0.32541 0.95378 0.20141 0.0
H1318 H 0.35236 0.93865 0.20089 0.0
H1319 H 0.33665 0.94131 0.25592 0.0
H1320 H 0.41591 0.90478 0.24139 0.0
H1321 H 0.37665 0.9105 0.37173 0.0
H1322 H 0.41449 0.9637 0.20963 0.0
H1323 H 0.39238 0.94841 0.17859 0.0
H1324 H 0.42003 0.93521 0.18707 0.0
H1325 H 0.366 0.97053 0.36502 0.0
H1326 H 0.35663 0.94412 0.39258 0.0
H1327 H 0.34257 0.95496 0.3395 0.0
C1328 C 0.90909 0.60441 0.76533 0.0
C1329 C 0.90227 0.60761 0.71737 0.0
C1330 C 0.9311 0.61061 0.78089 0.0
C1331 C 0.94682 0.62013 0.74765 0.0
C1332 C 0.94047 0.62239 0.69863 0.0
C1333 C 0.91819 0.61616 0.68405 0.0
C1334 C 0.93708 0.60802 0.83352 0.0
C1335 C 0.95686 0.63225 0.66203 0.0
C1336 C 0.98968 0.66158 0.8021 0.0
C1337 C 0.00926 0.6478 0.80785 0.0
C1338 C 0.96953 0.6529 0.78151 0.0
C1339 C 0.96887 0.62986 0.76554 0.0
C1340 C 0.98869 0.61597 0.76982 0.0
C1341 C 0.00863 0.62507 0.79113 0.0
C1342 C 0.94875 0.66831 0.77782 0.0
C1343 C 0.98869 0.59138 0.75282 0.0
H1344 H 0.89696 0.59766 0.79131 0.0
H1345 H 0.91307 0.61856 0.64689 0.0
H1346 H 0.95355 0.59869 0.8376 0.0
H1347 H 0.93935 0.62523 0.84995 0.0
H1348 H 0.9236 0.5987 0.85394 0.0
H1349 H 0.95038 0.63034 0.62464 0.0
H1350 H 0.9595 0.65077 0.66941 0.0
H1351 H 0.97385 0.62377 0.66473 0.0
H1352 H 0.99003 0.67933 0.81346 0.0
H1353 H 0.02358 0.61424 0.79542 0.0
H1354 H 0.9345 0.66113 0.79962 0.0
H1355 H 0.94275 0.66916 0.73999 0.0
H1356 H 0.95231 0.68603 0.79055 0.0
H1357 H 0.97679 0.58111 0.77534 0.0
H1358 H 0.00602 0.5835 0.75472 0.0
H1359 H 0.98243 0.59034 0.71517 0.0
C1360 C 0.63224 0.99297 0.25203 0.0
C1361 C 0.65067 0.99308 0.21961 0.0
C1362 C 0.62461 0.01343 0.27365 0.0
C1363 C 0.63596 0.03433 0.26311 0.0
C1364 C 0.65526 0.03427 0.23211 0.0
C1365 C 0.66224 0.01369 0.21048 0.0
C1366 C 0.60383 0.01282 0.30605 0.0
C1367 C 0.6681 0.05609 0.22051 0.0
C1368 C 0.60485 0.09141 0.26626 0.0
C1369 C 0.61306 0.10109 0.30911 0.0
C1370 C 0.61135 0.06925 0.25211 0.0
C1371 C 0.62676 0.05658 0.28113 0.0
C1372 C 0.63461 0.066 0.32518 0.0
C1373 C 0.62751 0.08813 0.33886 0.0
C1374 C 0.60232 0.05973 0.20522 0.0
C1375 C 0.65125 0.05313 0.35681 0.0
H1376 H 0.62324 0.97704 0.25888 0.0
H1377 H 0.67674 0.01369 0.18606 0.0
H1378 H 0.60754 0.02159 0.34063 0.0
H1379 H 0.58949 0.02221 0.28871 0.0
H1380 H 0.59809 0.99502 0.31374 0.0
H1381 H 0.68383 0.05281 0.19898 0.0
H1382 H 0.65682 0.06783 0.19986 0.0
H1383 H 0.67304 0.06508 0.25416 0.0
H1384 H 0.59349 0.10129 0.24337 0.0
H1385 H 0.63393 0.0956 0.37196 0.0
H1386 H 0.5949 0.04242 0.21092 0.0
H1387 H 0.61662 0.0579 0.17913 0.0
H1388 H 0.58898 0.07092 0.18897 0.0
H1389 H 0.64482 0.03556 0.36408 0.0
H1390 H 0.65423 0.06198 0.39168 0.0
H1391 H 0.66793 0.05137 0.3379 0.0
C1392 C 0.09032 0.38578 0.6862 0.0
C1393 C 0.10349 0.4002 0.71568 0.0
C1394 C 0.06824 0.37872 0.70032 0.0
C1395 C 0.05904 0.38656 0.7446 0.0
C1396 C 0.07185 0.40206 0.77323 0.0
C1397 C 0.09398 0.40854 0.75861 0.0
C1398 C 0.05525 0.36199 0.66903 0.0
C1399 C 0.06257 0.41111 0.82032 0.0
C1400 C 0.99547 0.37966 0.77348 0.0
C1401 C 0.99582 0.36088 0.80495 0.0
C1402 C 0.01585 0.38804 0.75274 0.0
C1403 C 0.03698 0.37711 0.76322 0.0
C1404 C 0.03726 0.35765 0.79367 0.0
C1405 C 0.01672 0.34989 0.81439 0.0
C1406 C 0.01487 0.40898 0.72091 0.0
C1407 C 0.05934 0.34524 0.80518 0.0
H1408 H 0.09765 0.3792 0.65307 0.0
H1409 H 0.10402 0.41984 0.78135 0.0
H1410 H 0.05379 0.34528 0.68788 0.0
H1411 H 0.03757 0.36826 0.6624 0.0
H1412 H 0.06385 0.35911 0.63383 0.0
H1413 H 0.07368 0.42468 0.83597 0.0
H1414 H 0.04508 0.41821 0.81517 0.0
H1415 H 0.06119 0.39687 0.84664 0.0
H1416 H 0.97934 0.38826 0.7664 0.0
H1417 H 0.01698 0.33512 0.83804 0.0
H1418 H 0.02326 0.40541 0.68586 0.0
H1419 H 0.02444 0.42325 0.7381 0.0
H1420 H 0.99698 0.41471 0.71417 0.0
H1421 H 0.06823 0.34024 0.77144 0.0
H1422 H 0.05642 0.3296 0.82714 0.0
H1423 H 0.07101 0.35683 0.82527 0.0
C1424 C 0.3822 0.58865 0.93478 0.0
C1425 C 0.38271 0.60631 0.96904 0.0
C1426 C 0.37743 0.56593 0.94853 0.0
C1427 C 0.37271 0.56094 0.99746 0.0
C1428 C 0.37221 0.57894 0.03168 0.0
C1429 C 0.37742 0.60135 0.01712 0.0
C1430 C 0.37842 0.54715 0.91115 0.0
C1431 C 0.36691 0.57444 0.08406 0.0
C1432 C 0.34601 0.50453 0.03746 0.0
C1433 C 0.36511 0.49321 0.05672 0.0
C1434 C 0.34825 0.52635 0.01644 0.0
C1435 C 0.37017 0.53682 0.01406 0.0
C1436 C 0.38964 0.5249 0.03137 0.0
C1437 C 0.38684 0.50332 0.05276 0.0
C1438 C 0.32707 0.53861 0.99879 0.0
C1439 C 0.41338 0.53525 0.02879 0.0
H1440 H 0.38632 0.59245 0.89758 0.0
H1441 H 0.37754 0.61502 0.04361 0.0
H1442 H 0.39314 0.53566 0.91887 0.0
H1443 H 0.36265 0.53652 0.91259 0.0
H1444 H 0.38041 0.55405 0.87412 0.0
H1445 H 0.36527 0.59054 0.1052 0.0
H1446 H 0.35072 0.56456 0.08747 0.0
H1447 H 0.38079 0.56392 0.10016 0.0
H1448 H 0.32922 0.49668 0.04058 0.0
H1449 H 0.40169 0.49435 0.06669 0.0
H1450 H 0.32974 0.54509 0.96168 0.0
H1451 H 0.32364 0.5537 0.02209 0.0
H1452 H 0.31169 0.52734 0.99912 0.0
H1453 H 0.41712 0.54109 0.99161 0.0
H1454 H 0.42691 0.52295 0.03998 0.0
H1455 H 0.4143 0.55051 0.0526 0.0
C1456 C 0.59692 0.62535 1.005 0.0
C1457 C 0.60122 0.61789 0.05204 0.0
C1458 C 0.57464 0.63089 0.99 0.0
C1459 C 0.55609 0.62828 0.02247 0.0
C1460 C 0.56037 0.62098 0.07029 0.0
C1461 C 0.58299 0.61616 0.08474 0.0
C1462 C 0.57092 0.63915 0.93908 0.0
C1463 C 0.54099 0.61748 0.10559 0.0
C1464 C 0.4999 0.65742 0.98882 0.0
C1465 C 0.48873 0.63986 0.96359 0.0
C1466 C 0.52169 0.65382 1.00918 0.0
C1467 C 0.53218 0.63197 1.00518 0.0
C1468 C 0.52043 0.61393 0.98153 0.0
C1469 C 0.49899 0.61819 0.96048 0.0
C1470 C 0.53386 0.67363 0.03313 0.0
C1471 C 0.53074 0.59024 0.97748 0.0
H1472 H 0.61106 0.62694 0.97983 0.0
H1473 H 0.58631 0.61028 0.12108 0.0
H1474 H 0.56073 0.62631 0.91877 0.0
H1475 H 0.56101 0.6554 0.93921 0.0
H1476 H 0.58734 0.64203 0.91966 0.0
H1477 H 0.54726 0.61271 0.14199 0.0
H1478 H 0.53054 0.63331 0.10862 0.0
H1479 H 0.52948 0.60369 0.09234 0.0
H1480 H 0.49195 0.67419 0.99092 0.0
H1481 H 0.49014 0.60456 0.94153 0.0
H1482 H 0.54945 0.6781 0.01219 0.0
H1483 H 0.53956 0.66874 0.06978 0.0
H1484 H 0.52281 0.68911 0.03585 0.0
H1485 H 0.54622 0.59084 0.95426 0.0
H1486 H 0.51851 0.57763 0.96192 0.0
H1487 H 0.53624 0.58406 0.01343 0.0
C1488 C 0.65403 0.50162 0.03577 0.0
C1489 C 0.63648 0.51273 0.06115 0.0
C1490 C 0.65059 0.47969 0.01587 0.0
C1491 C 0.62887 0.46895 0.02045 0.0
C1492 C 0.6108 0.48064 0.04418 0.0
C1493 C 0.61492 0.50224 0.06479 0.0
C1494 C 0.67044 0.46763 0.99186 0.0
C1495 C 0.58723 0.47009 0.04886 0.0
C1496 C 0.61405 0.41709 0.94252 0.0
C1497 C 0.61645 0.39914 0.97563 0.0
C1498 C 0.61816 0.43997 0.95637 0.0
C1499 C 0.62544 0.44483 1.004 0.0
C1500 C 0.62857 0.42659 0.03698 0.0
C1501 C 0.62373 0.40404 0.02259 0.0
C1502 C 0.61411 0.45898 0.92052 0.0
C1503 C 0.63682 0.43091 0.08773 0.0
H1504 H 0.67072 0.50975 0.03322 0.0
H1505 H 0.60127 0.51102 0.08383 0.0
H1506 H 0.67519 0.45222 0.01309 0.0
H1507 H 0.66547 0.46164 0.95543 0.0
H1508 H 0.68578 0.47884 0.98861 0.0
H1509 H 0.57453 0.48229 0.06414 0.0
H1510 H 0.58102 0.4642 0.01318 0.0
H1511 H 0.58808 0.45483 0.07261 0.0
H1512 H 0.60834 0.41332 0.90623 0.0
H1513 H 0.62586 0.39016 0.04813 0.0
H1514 H 0.62981 0.46954 0.91646 0.0
H1515 H 0.60034 0.47048 0.93393 0.0
H1516 H 0.60905 0.45233 0.88457 0.0
H1517 H 0.65297 0.44098 0.08712 0.0
H1518 H 0.6399 0.41473 0.10782 0.0
H1519 H 0.6239 0.44116 0.10767 0.0
C1520 C 0.41676 0.3742 0.08844 0.0
C1521 C 0.40408 0.38907 0.05907 0.0
C1522 C 0.43924 0.36771 0.0758 0.0
C1523 C 0.44931 0.37666 0.03331 0.0
C1524 C 0.43684 0.3924 1.00471 0.0
C1525 C 0.41434 0.39823 0.01769 0.0
C1526 C 0.45186 0.35065 0.10684 0.0
C1527 C 0.44703 0.40264 0.95956 0.0
C1528 C 0.51353 0.37389 1.00855 0.0
C1529 C 0.5145 0.3565 0.97377 0.0
C1530 C 0.49251 0.38018 0.02975 0.0
C1531 C 0.47216 0.36846 0.01642 0.0
C1532 C 0.47337 0.35006 0.98321 0.0
C1533 C 0.49447 0.34447 0.96199 0.0
C1534 C 0.49191 0.40008 0.0645 0.0
C1535 C 0.4522 0.33682 0.96863 0.0
H1536 H 0.40885 0.36706 0.12042 0.0
H1537 H 0.40469 0.40994 0.99516 0.0
H1538 H 0.4545 0.33451 0.08638 0.0
H1539 H 0.46907 0.35734 0.1165 0.0
H1540 H 0.44236 0.3466 0.14045 0.0
H1541 H 0.4358 0.41599 0.9435 0.0
H1542 H 0.46399 0.4104 0.96751 0.0
H1543 H 0.4498 0.38895 0.9324 0.0
H1544 H 0.52903 0.38323 0.01747 0.0
H1545 H 0.49533 0.33076 0.93568 0.0
H1546 H 0.4825 0.39529 0.09772 0.0
H1547 H 0.48256 0.41464 0.04787 0.0
H1548 H 0.50939 0.40599 0.07453 0.0
H1549 H 0.44269 0.33099 1.001 0.0
H1550 H 0.4564 0.32161 0.94615 0.0
H1551 H 0.44055 0.34813 0.94784 0.0
C1552 C 0.90665 0.41011 0.76258 0.0
C1553 C 0.89522 0.39962 0.80106 0.0
C1554 C 0.9006 0.4322 0.74724 0.0
C1555 C 0.88217 0.44376 0.77001 0.0
C1556 C 0.8709 0.43342 0.80965 0.0
C1557 C 0.8778 0.41154 0.82517 0.0
C1558 C 0.91349 0.44288 0.70575 0.0
C1559 C 0.85086 0.44496 0.83415 0.0
C1560 C 0.87551 0.50772 0.74693 0.0
C1561 C 0.86044 0.50779 0.70767 0.0
C1562 C 0.8826 0.48702 0.76808 0.0
C1563 C 0.87388 0.46599 0.75022 0.0
C1564 C 0.858 0.46609 0.71161 0.0
C1565 C 0.85174 0.48699 0.69036 0.0
C1566 C 0.89999 0.48761 0.80829 0.0
C1567 C 0.84788 0.44409 0.69226 0.0
H1568 H 0.92026 0.40092 0.74417 0.0
H1569 H 0.86882 0.40329 0.85466 0.0
H1570 H 0.90201 0.44433 0.67408 0.0
H1571 H 0.91915 0.46048 0.71533 0.0
H1572 H 0.92878 0.43265 0.69522 0.0
H1573 H 0.84477 0.43523 0.86608 0.0
H1574 H 0.85561 0.46254 0.84568 0.0
H1575 H 0.83643 0.44659 0.80833 0.0
H1576 H 0.8824 0.52386 0.75987 0.0
H1577 H 0.83993 0.48716 0.66025 0.0
H1578 H 0.91591 0.47875 0.79661 0.0
H1579 H 0.89337 0.47829 0.84018 0.0
H1580 H 0.90443 0.5054 0.81921 0.0
H1581 H 0.8616 0.43348 0.6758 0.0
H1582 H 0.83445 0.44726 0.6647 0.0
H1583 H 0.84025 0.43394 0.72202 0.0
C1584 C 0.50032 0.15408 0.28246 0.0
C1585 C 0.51105 0.13731 0.31056 0.0
C1586 C 0.47876 0.14996 0.26155 0.0
C1587 C 0.46809 0.12833 0.26796 0.0
C1588 C 0.47954 0.11094 0.29419 0.0
C1589 C 0.50074 0.11577 0.31578 0.0
C1590 C 0.46689 0.16912 0.23484 0.0
C1591 C 0.46905 0.08746 0.30082 0.0
C1592 C 0.40327 0.12327 0.26947 0.0
C1593 C 0.39862 0.11488 0.22324 0.0
C1594 C 0.42573 0.12844 0.28373 0.0
C1595 C 0.44411 0.12449 0.25142 0.0
C1596 C 0.43951 0.11608 0.20451 0.0
C1597 C 0.41671 0.11168 0.19069 0.0
C1598 C 0.4298 0.13793 0.33363 0.0
C1599 C 0.45871 0.11112 0.16953 0.0
H1600 H 0.50836 0.17075 0.27874 0.0
H1601 H 0.50929 0.10274 0.337 0.0
H1602 H 0.46103 0.16312 0.19902 0.0
H1603 H 0.45144 0.17456 0.25521 0.0
H1604 H 0.47821 0.18427 0.22986 0.0
H1605 H 0.48125 0.07515 0.31741 0.0
H1606 H 0.4537 0.08875 0.3243 0.0
H1607 H 0.46331 0.08046 0.26567 0.0
H1608 H 0.38925 0.12602 0.29449 0.0
H1609 H 0.41309 0.10511 0.15497 0.0
H1610 H 0.43991 0.15403 0.33152 0.0
H1611 H 0.43992 0.1255 0.35512 0.0
H1612 H 0.41352 0.14153 0.35305 0.0
H1613 H 0.46937 0.12667 0.16412 0.0
H1614 H 0.45223 0.10525 0.13399 0.0
H1615 H 0.47007 0.09764 0.18456 0.0
C1616 C 0.15432 0.52066 0.68828 0.0
C1617 C 0.14535 0.49981 0.70461 0.0
C1618 C 0.1474 0.54153 0.70892 0.0
C1619 C 0.13062 0.54153 0.74587 0.0
C1620 C 0.1215 0.52045 0.76248 0.0
C1621 C 0.1292 0.4998 0.74202 0.0
C1622 C 0.15794 0.56359 0.69096 0.0
C1623 C 0.10318 0.51975 0.80089 0.0
C1624 C 0.12566 0.59529 0.82286 0.0
C1625 C 0.10876 0.60757 0.79801 0.0
C1626 C 0.13272 0.57353 0.80684 0.0
C1627 C 0.12214 0.56367 0.76582 0.0
C1628 C 0.10423 0.57559 0.74218 0.0
C1629 C 0.098 0.59756 0.75814 0.0
C1630 C 0.15221 0.56161 0.83238 0.0
C1631 C 0.09208 0.56542 0.69917 0.0
H1632 H 0.16694 0.52056 0.65963 0.0
H1633 H 0.12209 0.48364 0.75418 0.0
H1634 H 0.14455 0.57443 0.67407 0.0
H1635 H 0.1652 0.57345 0.72156 0.0
H1636 H 0.17175 0.56052 0.66414 0.0
H1637 H 0.09813 0.50194 0.81033 0.0
H1638 H 0.10928 0.52853 0.83393 0.0
H1639 H 0.08773 0.52911 0.78827 0.0
H1640 H 0.13416 0.60316 0.85341 0.0
H1641 H 0.08483 0.60705 0.73908 0.0
H1642 H 0.16705 0.55996 0.80757 0.0
H1643 H 0.14705 0.54401 0.84299 0.0
H1644 H 0.15785 0.57105 0.86504 0.0
H1645 H 0.10417 0.56414 0.66844 0.0
H1646 H 0.07711 0.57589 0.68781 0.0
H1647 H 0.08608 0.5478 0.70748 0.0
C1648 C 0.6068 0.8823 0.26684 0.0
C1649 C 0.61079 0.89139 0.22094 0.0
C1650 C 0.58456 0.87692 0.28222 0.0
C1651 C 0.56574 0.88137 0.25144 0.0
C1652 C 0.56967 0.89046 0.20483 0.0
C1653 C 0.59227 0.89505 0.1898 0.0
C1654 C 0.58121 0.8667 0.33169 0.0
C1655 C 0.54998 0.89593 0.1715 0.0
C1656 C 0.50985 0.85148 0.28375 0.0
C1657 C 0.49939 0.86793 0.31322 0.0
C1658 C 0.53122 0.85579 0.26215 0.0
C1659 C 0.54201 0.87731 0.26933 0.0
C1660 C 0.53094 0.89435 0.29733 0.0
C1661 C 0.5099 0.88933 0.31946 0.0
C1662 C 0.5427 0.837 0.23352 0.0
C1663 C 0.5416 0.91768 0.30496 0.0
H1664 H 0.62117 0.87918 0.29073 0.0
H1665 H 0.5954 0.90216 0.15435 0.0
H1666 H 0.57142 0.8788 0.3547 0.0
H1667 H 0.57105 0.85064 0.32915 0.0
H1668 H 0.59775 0.86281 0.34975 0.0
H1669 H 0.55595 0.90229 0.13595 0.0
H1670 H 0.53922 0.88048 0.16578 0.0
H1671 H 0.53887 0.90919 0.18818 0.0
H1672 H 0.50166 0.83493 0.27913 0.0
H1673 H 0.50155 0.90216 0.3416 0.0
H1674 H 0.55853 0.83142 0.25232 0.0
H1675 H 0.5479 0.84344 0.19759 0.0
H1676 H 0.53137 0.82185 0.2286 0.0
H1677 H 0.55736 0.91597 0.32704 0.0
H1678 H 0.52974 0.92973 0.32347 0.0
H1679 H 0.54672 0.92525 0.26993 0.0
C1680 C 0.88659 0.08504 0.42984 0.0
C1681 C 0.88434 0.10254 0.46416 0.0
C1682 C 0.88281 0.06197 0.44242 0.0
C1683 C 0.87614 0.05644 0.49008 0.0
C1684 C 0.87284 0.07424 0.52414 0.0
C1685 C 0.87727 0.09702 0.51092 0.0
C1686 C 0.88694 0.04348 0.40537 0.0
C1687 C 0.86526 0.06916 0.57503 0.0
C1688 C 0.85102 0.9982 0.52267 0.0
C1689 C 0.86954 0.98802 0.54664 0.0
C1690 C 0.85303 0.02025 0.50262 0.0
C1691 C 0.87423 0.03208 0.50578 0.0
C1692 C 0.89331 0.02126 0.52769 0.0
C1693 C 0.89064 0.99949 0.54835 0.0
C1694 C 0.83219 0.03133 0.48034 0.0
C1695 C 0.91636 0.03301 0.53085 0.0
H1696 H 0.89218 0.08929 0.39371 0.0
H1697 H 0.87531 0.11056 0.53739 0.0
H1698 H 0.90183 0.03287 0.41645 0.0
H1699 H 0.87188 0.0319 0.403 0.0
H1700 H 0.89046 0.05067 0.36909 0.0
H1701 H 0.86148 0.08503 0.59574 0.0
H1702 H 0.84969 0.05821 0.57477 0.0
H1703 H 0.87892 0.05953 0.5941 0.0
H1704 H 0.83468 0.98932 0.52169 0.0
H1705 H 0.90502 0.99143 0.56635 0.0
H1706 H 0.83638 0.03826 0.44423 0.0
H1707 H 0.82663 0.046 0.50301 0.0
H1708 H 0.81762 0.01915 0.47685 0.0
H1709 H 0.92161 0.03948 0.49493 0.0
H1710 H 0.92996 0.02139 0.5446 0.0
H1711 H 0.91514 0.04803 0.55527 0.0
C1712 C 0.08518 0.12207 0.59068 0.0
C1713 C 0.10288 0.1252 0.55718 0.0
C1714 C 0.06214 0.12546 0.57741 0.0
C1715 C 0.05688 0.13262 0.52995 0.0
C1716 C 0.07486 0.13683 0.49682 0.0
C1717 C 0.09761 0.1328 0.51068 0.0
C1718 C 0.04342 0.12039 0.61342 0.0
C1719 C 0.07005 0.14495 0.4462 0.0
C1720 C 1.00088 0.11788 0.46808 0.0
C1721 C 0.98907 0.13876 0.47048 0.0
C1722 C 0.02244 0.1153 0.48973 0.0
C1723 C 0.03266 0.13424 0.5134 0.0
C1724 C 0.02048 0.15519 0.51723 0.0
C1725 C 0.99867 0.15712 0.49609 0.0
C1726 C 0.03463 0.09251 0.48576 0.0
C1727 C 0.03094 0.1759 0.5414 0.0
H1728 H 0.08926 0.11606 0.62658 0.0
H1729 H 0.11133 0.13543 0.48488 0.0
H1730 H 0.03143 0.13511 0.61617 0.0
H1731 H 0.0333 0.10538 0.60104 0.0
H1732 H 0.05037 0.1166 0.64978 0.0
H1733 H 0.08601 0.14933 0.42633 0.0
H1734 H 0.06088 0.13134 0.42596 0.0
H1735 H 0.05877 0.16028 0.44695 0.0
H1736 H 0.99325 0.10361 0.44888 0.0
H1737 H 0.98954 0.17329 0.49763 0.0
H1738 H 0.04083 0.08692 0.52164 0.0
H1739 H 0.04987 0.09431 0.46211 0.0
H1740 H 0.02339 0.0789 0.47067 0.0
H1741 H 0.03755 0.17132 0.57756 0.0
H1742 H 0.01846 0.19019 0.54525 0.0
H1743 H 0.04574 0.18205 0.51984 0.0
C1744 C 0.129 0.91346 0.50499 0.0
C1745 C 0.12169 0.90858 0.45809 0.0
C1746 C 0.13337 0.93604 0.51957 0.0
C1747 C 0.12975 0.95426 0.48677 0.0
C1748 C 0.12267 0.9494 0.43905 0.0
C1749 C 0.119 0.92651 0.42505 0.0
C1750 C 0.14141 0.94043 0.57045 0.0
C1751 C 0.11817 0.9684 0.40342 0.0
C1752 C 0.11674 0.01037 0.54983 0.0
C1753 C 0.138 0.0215 0.54779 0.0
C1754 C 0.11346 0.98904 0.52757 0.0
C1755 C 0.13211 0.97834 0.50377 0.0
C1756 C 0.15345 0.98987 0.50028 0.0
C1757 C 0.15605 0.0115 0.52194 0.0
C1758 C 0.09028 0.97758 0.53111 0.0
C1759 C 0.17385 0.97885 0.47606 0.0
H1760 H 0.13134 0.89955 0.53041 0.0
H1761 H 0.11324 0.92271 0.3888 0.0
H1762 H 0.15711 0.95119 0.57017 0.0
H1763 H 0.12803 0.95 0.59057 0.0
H1764 H 0.14516 0.92429 0.59015 0.0
H1765 H 0.11396 0.96172 0.36702 0.0
H1766 H 0.10363 0.97908 0.41625 0.0
H1767 H 0.13335 0.9798 0.40058 0.0
H1768 H 0.10274 0.01834 0.56932 0.0
H1769 H 0.17252 0.02013 0.52071 0.0
H1770 H 0.09152 0.96227 0.55466 0.0
H1771 H 0.08459 0.97161 0.49511 0.0
H1772 H 0.07699 0.98923 0.54612 0.0
H1773 H 0.17949 0.96379 0.4974 0.0
H1774 H 0.18855 0.99088 0.47257 0.0
H1775 H 0.16913 0.97252 0.43974 0.0
C1776 C 0.00661 0.88835 0.45073 0.0
C1777 C 0.01874 0.86773 0.45507 0.0
C1778 C 0.98533 0.89135 0.47346 0.0
C1779 C 0.97569 0.87306 0.50023 0.0
C1780 C 0.98811 0.85233 0.50554 0.0
C1781 C 0.00965 0.85001 0.48329 0.0
C1782 C 0.9729 0.91392 0.46778 0.0
C1783 C 0.97822 0.83227 0.53291 0.0
C1784 C 0.92484 0.8872 0.5812 0.0
C1785 C 0.90646 0.8832 0.54985 0.0
C1786 C 0.94759 0.88351 0.56604 0.0
C1787 C 0.95184 0.8751 0.51897 0.0
C1788 C 0.93317 0.86998 0.4882 0.0
C1789 C 0.91075 0.8744 0.5038 0.0
C1790 C 0.96705 0.8896 0.5995 0.0
C1791 C 0.9369 0.86049 0.43819 0.0
H1792 H 0.01386 0.90217 0.42956 0.0
H1793 H 0.01905 0.83405 0.48643 0.0
H1794 H 0.95713 0.91135 0.44608 0.0
H1795 H 0.96751 0.92057 0.50348 0.0
H1796 H 0.98367 0.92709 0.44977 0.0
H1797 H 0.99073 0.818 0.53671 0.0
H1798 H 0.97261 0.83774 0.5693 0.0
H1799 H 0.96284 0.82572 0.51381 0.0
H1800 H 0.92149 0.89416 0.61672 0.0
H1801 H 0.89649 0.87109 0.4797 0.0
H1802 H 0.97685 0.90423 0.58432 0.0
H1803 H 0.97913 0.87499 0.60285 0.0
H1804 H 0.96089 0.89442 0.63598 0.0
H1805 H 0.9455 0.87355 0.41545 0.0
H1806 H 0.92054 0.85549 0.42054 0.0
H1807 H 0.9483 0.84526 0.43958 0.0
loop_
_geom_bond_atom_site_label_1
_geom_bond_atom_site_label_2
_geom_bond_distance
_geom_bond_site_symmetry_2
_ccdc_geom_bond_type
Co0 N4 2.148 . S
Co0 N10 2.128 . S
Co0 N20 2.194 . S
Co0 O25 2.351 . S
Co0 O26 2.155 . S
Co0 O27 2.096 . S
C1 N4 1.301 . S
C1 N5 1.328 . S
C1 H6 0.930 . S
C2 C3 1.333 . S
C2 N4 1.317 . S
C2 H7 0.930 . S
C3 C2 1.333 . S
C3 N5 1.350 . S
C3 H29 0.931 . S
N4 Co0 2.148 . S
N4 C1 1.301 . S
N4 C2 1.317 . S
N5 C1 1.328 . S
N5 C3 1.350 . S
H6 C1 0.930 . S
H7 C2 0.930 . S
C8 O9 1.224 . S
C8 O27 1.247 . S
O9 C8 1.224 . S
N10 Co0 2.128 . S
N10 C11 1.355 . S
N10 C13 1.311 . S
C11 N10 1.355 . S
C11 C12 1.363 . S
C11 H23 0.929 . S
C12 C11 1.363 . S
C12 N14 1.375 . S
C12 H30 0.931 . S
C13 N10 1.311 . S
C13 N14 1.347 . S
C13 H24 0.929 . S
N14 C12 1.375 . S
N14 C13 1.347 . S
C15 C18 1.365 . S
C15 N20 1.328 . S
C15 H21 0.929 . S
C16 C17 1.362 . S
C16 C19 1.378 . S
C16 H31 0.929 . S
C17 C16 1.362 . S
C17 C18 1.366 . S
C18 C15 1.365 . S
C18 C17 1.366 . S
C18 H32 0.930 . S
C19 C16 1.378 . S
C19 N20 1.315 . S
C19 H22 0.930 . S
N20 Co0 2.194 . S
N20 C15 1.328 . S
N20 C19 1.315 . S
H21 C15 0.929 . S
H22 C19 0.930 . S
H23 C11 0.929 . S
H24 C13 0.929 . S
O25 Co0 2.351 . S
O25 C28 1.244 . S
O26 Co0 2.155 . S
O26 C28 1.240 . S
O27 Co0 2.096 . S
O27 C8 1.247 . S
C28 O25 1.244 . S
C28 O26 1.240 . S
H29 C3 0.931 . S
H30 C12 0.931 . S
H31 C16 0.929 . S
H32 C18 0.930 . S
Co33 N37 2.148 . S
Co33 N43 2.128 . S
Co33 N53 2.194 . S
Co33 O58 2.351 . S
Co33 O59 2.155 . S
Co33 O60 2.096 . S
C34 N37 1.301 . S
C34 N38 1.328 . S
C34 H39 0.930 . S
C35 C36 1.333 . S
C35 N37 1.317 . S
C35 H40 0.930 . S
C36 C35 1.333 . S
C36 N38 1.350 . S
C36 H62 0.931 . S
N37 Co33 2.148 . S
N37 C34 1.301 . S
N37 C35 1.317 . S
N38 C34 1.328 . S
N38 C36 1.350 . S
H39 C34 0.930 . S
H40 C35 0.930 . S
C41 O42 1.224 . S
C41 O60 1.247 . S
O42 C41 1.224 . S
N43 Co33 2.128 . S
N43 C44 1.355 . S
N43 C46 1.311 . S
C44 N43 1.355 . S
C44 C45 1.363 . S
C44 H56 0.929 . S
C45 C44 1.363 . S
C45 N47 1.375 . S
C45 H63 0.931 . S
C46 N43 1.311 . S
C46 N47 1.347 . S
C46 H57 0.929 . S
N47 C45 1.375 . S
N47 C46 1.347 . S
C48 C51 1.365 . S
C48 N53 1.328 . S
C48 H54 0.929 . S
C49 C50 1.362 . S
C49 C52 1.378 . S
C49 H64 0.929 . S
C50 C49 1.362 . S
C50 C51 1.366 . S
C51 C48 1.365 . S
C51 C50 1.366 . S
C51 H65 0.930 . S
C52 C49 1.378 . S
C52 N53 1.315 . S
C52 H55 0.930 . S
N53 Co33 2.194 . S
N53 C48 1.328 . S
N53 C52 1.315 . S
H54 C48 0.929 . S
H55 C52 0.930 . S
H56 C44 0.929 . S
H57 C46 0.929 . S
O58 Co33 2.351 . S
O58 C61 1.244 . S
O59 Co33 2.155 . S
O59 C61 1.240 . S
O60 Co33 2.096 . S
O60 C41 1.247 . S
C61 O58 1.244 . S
C61 O59 1.240 . S
H62 C36 0.931 . S
H63 C45 0.931 . S
H64 C49 0.929 . S
H65 C51 0.930 . S
Co66 N70 2.148 . S
Co66 N76 2.128 . S
Co66 N86 2.194 . S
Co66 O91 2.351 . S
Co66 O92 2.155 . S
Co66 O93 2.096 . S
C67 N70 1.301 . S
C67 N71 1.328 . S
C67 H72 0.930 . S
C68 C69 1.333 . S
C68 N70 1.317 . S
C68 H73 0.930 . S
C69 C68 1.333 . S
C69 N71 1.350 . S
C69 H95 0.931 . S
N70 Co66 2.148 . S
N70 C67 1.301 . S
N70 C68 1.317 . S
N71 C67 1.328 . S
N71 C69 1.350 . S
H72 C67 0.930 . S
H73 C68 0.930 . S
C74 O75 1.224 . S
C74 O93 1.247 . S
O75 C74 1.224 . S
N76 Co66 2.128 . S
N76 C77 1.355 . S
N76 C79 1.311 . S
C77 N76 1.355 . S
C77 C78 1.363 . S
C77 H89 0.929 . S
C78 C77 1.363 . S
C78 N80 1.375 . S
C78 H96 0.931 . S
C79 N76 1.311 . S
C79 N80 1.347 . S
C79 H90 0.929 . S
N80 C78 1.375 . S
N80 C79 1.347 . S
C81 C84 1.365 . S
C81 N86 1.328 . S
C81 H87 0.929 . S
C82 C83 1.362 . S
C82 C85 1.378 . S
C82 H97 0.929 . S
C83 C82 1.362 . S
C83 C84 1.366 . S
C84 C81 1.365 . S
C84 C83 1.366 . S
C84 H98 0.930 . S
C85 C82 1.378 . S
C85 N86 1.315 . S
C85 H88 0.930 . S
N86 Co66 2.194 . S
N86 C81 1.328 . S
N86 C85 1.315 . S
H87 C81 0.929 . S
H88 C85 0.930 . S
H89 C77 0.929 . S
H90 C79 0.929 . S
O91 Co66 2.351 . S
O91 C94 1.244 . S
O92 Co66 2.155 . S
O92 C94 1.240 . S
O93 Co66 2.096 . S
O93 C74 1.247 . S
C94 O91 1.244 . S
C94 O92 1.240 . S
H95 C69 0.931 . S
H96 C78 0.931 . S
H97 C82 0.929 . S
H98 C84 0.930 . S
Co99 N103 2.148 . S
Co99 N109 2.128 . S
Co99 N119 2.194 . S
Co99 O124 2.351 . S
Co99 O125 2.155 . S
Co99 O126 2.096 . S
C100 N103 1.301 . S
C100 N104 1.328 . S
C100 H105 0.930 . S
C101 C102 1.333 . S
C101 N103 1.317 . S
C101 H106 0.930 . S
C102 C101 1.333 . S
C102 N104 1.350 . S
C102 H128 0.931 . S
N103 Co99 2.148 . S
N103 C100 1.301 . S
N103 C101 1.317 . S
N104 C100 1.328 . S
N104 C102 1.350 . S
H105 C100 0.930 . S
H106 C101 0.930 . S
C107 O108 1.224 . S
C107 O126 1.247 . S
O108 C107 1.224 . S
N109 Co99 2.128 . S
N109 C110 1.355 . S
N109 C112 1.311 . S
C110 N109 1.355 . S
C110 C111 1.363 . S
C110 H122 0.929 . S
C111 C110 1.363 . S
C111 N113 1.375 . S
C111 H129 0.931 . S
C112 N109 1.311 . S
C112 N113 1.347 . S
C112 H123 0.929 . S
N113 C111 1.375 . S
N113 C112 1.347 . S
C114 C117 1.365 . S
C114 N119 1.328 . S
C114 H120 0.929 . S
C115 C116 1.362 . S
C115 C118 1.378 . S
C115 H130 0.929 . S
C116 C115 1.362 . S
C116 C117 1.366 . S
C117 C114 1.365 . S
C117 C116 1.366 . S
C117 H131 0.930 . S
C118 C115 1.378 . S
C118 N119 1.315 . S
C118 H121 0.930 . S
N119 Co99 2.194 . S
N119 C114 1.328 . S
N119 C118 1.315 . S
H120 C114 0.929 . S
H121 C118 0.930 . S
H122 C110 0.929 . S
H123 C112 0.929 . S
O124 Co99 2.351 . S
O124 C127 1.244 . S
O125 Co99 2.155 . S
O125 C127 1.240 . S
O126 Co99 2.096 . S
O126 C107 1.247 . S
C127 O124 1.244 . S
C127 O125 1.240 . S
H128 C102 0.931 . S
H129 C111 0.931 . S
H130 C115 0.929 . S
H131 C117 0.930 . S
Co132 N136 2.148 . S
Co132 N142 2.128 . S
Co132 N152 2.194 . S
Co132 O157 2.351 . S
Co132 O158 2.155 . S
Co132 O159 2.096 1_554 S
C133 N136 1.301 . S
C133 N137 1.328 . S
C133 H138 0.930 . S
C134 C135 1.333 . S
C134 N136 1.317 . S
C134 H139 0.930 . S
C135 C134 1.333 . S
C135 N137 1.350 . S
C135 H161 0.931 . S
N136 Co132 2.148 . S
N136 C133 1.301 . S
N136 C134 1.317 . S
N137 C133 1.328 . S
N137 C135 1.350 . S
H138 C133 0.930 . S
H139 C134 0.930 . S
C140 O141 1.224 . S
C140 O159 1.247 1_554 S
O141 C140 1.224 . S
N142 Co132 2.128 . S
N142 C143 1.355 . S
N142 C145 1.311 . S
C143 N142 1.355 . S
C143 C144 1.363 . S
C143 H155 0.929 . S
C144 C143 1.363 . S
C144 N146 1.375 . S
C144 H162 0.931 . S
C145 N142 1.311 . S
C145 N146 1.347 . S
C145 H156 0.929 . S
N146 C144 1.375 . S
N146 C145 1.347 . S
C147 C150 1.365 . S
C147 N152 1.328 . S
C147 H153 0.929 . S
C148 C149 1.362 . S
C148 C151 1.378 . S
C148 H163 0.929 . S
C149 C148 1.362 . S
C149 C150 1.366 . S
C150 C147 1.365 . S
C150 C149 1.366 . S
C150 H164 0.930 . S
C151 C148 1.378 . S
C151 N152 1.315 . S
C151 H154 0.930 . S
N152 Co132 2.194 . S
N152 C147 1.328 . S
N152 C151 1.315 . S
H153 C147 0.929 . S
H154 C151 0.930 . S
H155 C143 0.929 . S
H156 C145 0.929 . S
O157 Co132 2.351 . S
O157 C160 1.244 . S
O158 Co132 2.155 . S
O158 C160 1.240 . S
O159 Co132 2.096 1_556 S
O159 C140 1.247 1_556 S
C160 O157 1.244 . S
C160 O158 1.240 . S
H161 C135 0.931 . S
H162 C144 0.931 . S
H163 C148 0.929 . S
H164 C150 0.930 . S
Co165 N169 2.148 . S
Co165 N175 2.128 . S
Co165 N185 2.194 . S
Co165 O190 2.351 . S
Co165 O191 2.155 . S
Co165 O192 2.096 1_556 S
C166 N169 1.301 . S
C166 N170 1.328 . S
C166 H171 0.930 . S
C167 C168 1.333 . S
C167 N169 1.317 . S
C167 H172 0.930 . S
C168 C167 1.333 . S
C168 N170 1.350 . S
C168 H194 0.931 . S
N169 Co165 2.148 . S
N169 C166 1.301 . S
N169 C167 1.317 . S
N170 C166 1.328 . S
N170 C168 1.350 . S
H171 C166 0.930 . S
H172 C167 0.930 . S
C173 O174 1.224 . S
C173 O192 1.247 1_556 S
O174 C173 1.224 . S
N175 Co165 2.128 . S
N175 C176 1.355 . S
N175 C178 1.311 . S
C176 N175 1.355 . S
C176 C177 1.363 . S
C176 H188 0.929 . S
C177 C176 1.363 . S
C177 N179 1.375 . S
C177 H195 0.931 . S
C178 N175 1.311 . S
C178 N179 1.347 . S
C178 H189 0.929 . S
N179 C177 1.375 . S
N179 C178 1.347 . S
C180 C183 1.365 . S
C180 N185 1.328 . S
C180 H186 0.929 . S
C181 C182 1.362 . S
C181 C184 1.378 . S
C181 H196 0.929 . S
C182 C181 1.362 . S
C182 C183 1.366 . S
C183 C180 1.365 . S
C183 C182 1.366 . S
C183 H197 0.930 . S
C184 C181 1.378 . S
C184 N185 1.315 . S
C184 H187 0.930 . S
N185 Co165 2.194 . S
N185 C180 1.328 . S
N185 C184 1.315 . S
H186 C180 0.929 . S
H187 C184 0.930 . S
H188 C176 0.929 . S
H189 C178 0.929 . S
O190 Co165 2.351 . S
O190 C193 1.244 . S
O191 Co165 2.155 . S
O191 C193 1.240 . S
O192 Co165 2.096 1_554 S
O192 C173 1.247 1_554 S
C193 O190 1.244 . S
C193 O191 1.240 . S
H194 C168 0.931 . S
H195 C177 0.931 . S
H196 C181 0.929 . S
H197 C183 0.930 . S
Co198 N202 2.148 . S
Co198 N208 2.128 . S
Co198 N218 2.194 . S
Co198 O223 2.351 . S
Co198 O224 2.155 . S
Co198 O225 2.096 1_554 S
C199 N202 1.301 . S
C199 N203 1.328 . S
C199 H204 0.930 . S
C200 C201 1.333 . S
C200 N202 1.317 . S
C200 H205 0.930 . S
C201 C200 1.333 . S
C201 N203 1.350 . S
C201 H227 0.931 . S
N202 Co198 2.148 . S
N202 C199 1.301 . S
N202 C200 1.317 . S
N203 C199 1.328 . S
N203 C201 1.350 . S
H204 C199 0.930 . S
H205 C200 0.930 . S
C206 O207 1.224 . S
C206 O225 1.247 1_554 S
O207 C206 1.224 . S
N208 Co198 2.128 . S
N208 C209 1.355 . S
N208 C211 1.311 . S
C209 N208 1.355 . S
C209 C210 1.363 . S
C209 H221 0.929 . S
C210 C209 1.363 . S
C210 N212 1.375 . S
C210 H228 0.931 . S
C211 N208 1.311 . S
C211 N212 1.347 . S
C211 H222 0.929 . S
N212 C210 1.375 . S
N212 C211 1.347 . S
C213 C216 1.365 . S
C213 N218 1.328 . S
C213 H219 0.929 . S
C214 C215 1.362 . S
C214 C217 1.378 . S
C214 H229 0.929 . S
C215 C214 1.362 . S
C215 C216 1.366 . S
C216 C213 1.365 . S
C216 C215 1.366 . S
C216 H230 0.930 . S
C217 C214 1.378 . S
C217 N218 1.315 . S
C217 H220 0.930 . S
N218 Co198 2.194 . S
N218 C213 1.328 . S
N218 C217 1.315 . S
H219 C213 0.929 . S
H220 C217 0.930 . S
H221 C209 0.929 . S
H222 C211 0.929 . S
O223 Co198 2.351 . S
O223 C226 1.244 . S
O224 Co198 2.155 . S
O224 C226 1.240 . S
O225 Co198 2.096 1_556 S
O225 C206 1.247 1_556 S
C226 O223 1.244 . S
C226 O224 1.240 . S
H227 C201 0.931 . S
H228 C210 0.931 . S
H229 C214 0.929 . S
H230 C216 0.930 . S
Co231 N235 2.148 . S
Co231 N241 2.128 . S
Co231 N251 2.194 . S
Co231 O256 2.351 . S
Co231 O257 2.155 . S
Co231 O258 2.096 1_556 S
C232 N235 1.301 . S
C232 N236 1.328 . S
C232 H237 0.930 . S
C233 C234 1.333 . S
C233 N235 1.317 . S
C233 H238 0.930 . S
C234 C233 1.333 . S
C234 N236 1.350 . S
C234 H260 0.931 . S
N235 Co231 2.148 . S
N235 C232 1.301 . S
N235 C233 1.317 . S
N236 C232 1.328 . S
N236 C234 1.350 . S
H237 C232 0.930 . S
H238 C233 0.930 . S
C239 O240 1.224 . S
C239 O258 1.247 1_556 S
O240 C239 1.224 . S
N241 Co231 2.128 . S
N241 C242 1.355 . S
N241 C244 1.311 . S
C242 N241 1.355 . S
C242 C243 1.363 . S
C242 H254 0.929 . S
C243 C242 1.363 . S
C243 N245 1.375 . S
C243 H261 0.931 . S
C244 N241 1.311 . S
C244 N245 1.347 . S
C244 H255 0.929 . S
N245 C243 1.375 . S
N245 C244 1.347 . S
C246 C249 1.365 . S
C246 N251 1.328 . S
C246 H252 0.929 . S
C247 C248 1.362 . S
C247 C250 1.378 . S
C247 H262 0.929 . S
C248 C247 1.362 . S
C248 C249 1.366 . S
C249 C246 1.365 . S
C249 C248 1.366 . S
C249 H263 0.930 . S
C250 C247 1.378 . S
C250 N251 1.315 . S
C250 H253 0.930 . S
N251 Co231 2.194 . S
N251 C246 1.328 . S
N251 C250 1.315 . S
H252 C246 0.929 . S
H253 C250 0.930 . S
H254 C242 0.929 . S
H255 C244 0.929 . S
O256 Co231 2.351 . S
O256 C259 1.244 . S
O257 Co231 2.155 . S
O257 C259 1.240 . S
O258 Co231 2.096 1_554 S
O258 C239 1.247 1_554 S
C259 O256 1.244 . S
C259 O257 1.240 . S
H260 C234 0.931 . S
H261 C243 0.931 . S
H262 C247 0.929 . S
H263 C249 0.930 . S
Co264 N268 2.148 . S
Co264 N274 2.128 . S
Co264 N284 2.194 . S
Co264 O289 2.351 . S
Co264 O290 2.155 . S
Co264 O291 2.096 . S
C265 N268 1.301 . S
C265 N269 1.328 . S
C265 H270 0.930 . S
C266 C267 1.333 . S
C266 N268 1.317 . S
C266 H271 0.930 . S
C267 C266 1.333 . S
C267 N269 1.350 . S
C267 H293 0.931 . S
N268 Co264 2.148 . S
N268 C265 1.301 . S
N268 C266 1.317 . S
N269 C265 1.328 . S
N269 C267 1.350 . S
H270 C265 0.930 . S
H271 C266 0.930 . S
C272 O273 1.224 . S
C272 O291 1.247 . S
O273 C272 1.224 . S
N274 Co264 2.128 . S
N274 C275 1.355 . S
N274 C277 1.311 . S
C275 N274 1.355 . S
C275 C276 1.363 . S
C275 H287 0.929 . S
C276 C275 1.363 . S
C276 N278 1.375 . S
C276 H294 0.931 . S
C277 N274 1.311 . S
C277 N278 1.347 . S
C277 H288 0.929 . S
N278 C276 1.375 . S
N278 C277 1.347 . S
C279 C282 1.365 . S
C279 N284 1.328 . S
C279 H285 0.929 . S
C280 C281 1.362 . S
C280 C283 1.378 . S
C280 H295 0.929 . S
C281 C280 1.362 . S
C281 C282 1.366 . S
C282 C279 1.365 . S
C282 C281 1.366 . S
C282 H296 0.930 . S
C283 C280 1.378 . S
C283 N284 1.315 . S
C283 H286 0.930 . S
N284 Co264 2.194 . S
N284 C279 1.328 . S
N284 C283 1.315 . S
H285 C279 0.929 . S
H286 C283 0.930 . S
H287 C275 0.929 . S
H288 C277 0.929 . S
O289 Co264 2.351 . S
O289 C292 1.244 . S
O290 Co264 2.155 . S
O290 C292 1.240 . S
O291 Co264 2.096 . S
O291 C272 1.247 . S
C292 O289 1.244 . S
C292 O290 1.240 . S
H293 C267 0.931 . S
H294 C276 0.931 . S
H295 C280 0.929 . S
H296 C282 0.930 . S
Co297 N301 2.148 . S
Co297 N307 2.128 . S
Co297 N317 2.194 . S
Co297 O322 2.351 . S
Co297 O323 2.155 . S
Co297 O324 2.096 . S
C298 N301 1.301 . S
C298 N302 1.328 . S
C298 H303 0.930 . S
C299 C300 1.333 . S
C299 N301 1.317 . S
C299 H304 0.930 . S
C300 C299 1.333 . S
C300 N302 1.350 . S
C300 H326 0.931 . S
N301 Co297 2.148 . S
N301 C298 1.301 . S
N301 C299 1.317 . S
N302 C298 1.328 . S
N302 C300 1.350 . S
H303 C298 0.930 . S
H304 C299 0.930 . S
C305 O306 1.224 . S
C305 O324 1.247 . S
O306 C305 1.224 . S
N307 Co297 2.128 . S
N307 C308 1.355 . S
N307 C310 1.311 . S
C308 N307 1.355 . S
C308 C309 1.363 . S
C308 H320 0.929 . S
C309 C308 1.363 . S
C309 N311 1.375 . S
C309 H327 0.931 . S
C310 N307 1.311 . S
C310 N311 1.347 . S
C310 H321 0.929 . S
N311 C309 1.375 . S
N311 C310 1.347 . S
C312 C315 1.365 . S
C312 N317 1.328 . S
C312 H318 0.929 . S
C313 C314 1.362 . S
C313 C316 1.378 . S
C313 H328 0.929 . S
C314 C313 1.362 . S
C314 C315 1.366 . S
C315 C312 1.365 . S
C315 C314 1.366 . S
C315 H329 0.930 . S
C316 C313 1.378 . S
C316 N317 1.315 . S
C316 H319 0.930 . S
N317 Co297 2.194 . S
N317 C312 1.328 . S
N317 C316 1.315 . S
H318 C312 0.929 . S
H319 C316 0.930 . S
H320 C308 0.929 . S
H321 C310 0.929 . S
O322 Co297 2.351 . S
O322 C325 1.244 . S
O323 Co297 2.155 . S
O323 C325 1.240 . S
O324 Co297 2.096 . S
O324 C305 1.247 . S
C325 O322 1.244 . S
C325 O323 1.240 . S
H326 C300 0.931 . S
H327 C309 0.931 . S
H328 C313 0.929 . S
H329 C315 0.930 . S
Co330 N334 2.148 . S
Co330 N340 2.128 . S
Co330 N350 2.194 . S
Co330 O355 2.351 . S
Co330 O356 2.155 . S
Co330 O357 2.096 . S
C331 N334 1.301 . S
C331 N335 1.328 . S
C331 H336 0.930 . S
C332 C333 1.333 . S
C332 N334 1.317 . S
C332 H337 0.930 . S
C333 C332 1.333 . S
C333 N335 1.350 . S
C333 H359 0.931 . S
N334 Co330 2.148 . S
N334 C331 1.301 . S
N334 C332 1.317 . S
N335 C331 1.328 . S
N335 C333 1.350 . S
H336 C331 0.930 . S
H337 C332 0.930 . S
C338 O339 1.224 . S
C338 O357 1.247 . S
O339 C338 1.224 . S
N340 Co330 2.128 . S
N340 C341 1.355 . S
N340 C343 1.311 . S
C341 N340 1.355 . S
C341 C342 1.363 . S
C341 H353 0.929 . S
C342 C341 1.363 . S
C342 N344 1.375 . S
C342 H360 0.931 . S
C343 N340 1.311 . S
C343 N344 1.347 . S
C343 H354 0.929 . S
N344 C342 1.375 . S
N344 C343 1.347 . S
C345 C348 1.365 . S
C345 N350 1.328 . S
C345 H351 0.929 . S
C346 C347 1.362 . S
C346 C349 1.378 . S
C346 H361 0.929 . S
C347 C346 1.362 . S
C347 C348 1.366 . S
C348 C345 1.365 . S
C348 C347 1.366 . S
C348 H362 0.930 . S
C349 C346 1.378 . S
C349 N350 1.315 . S
C349 H352 0.930 . S
N350 Co330 2.194 . S
N350 C345 1.328 . S
N350 C349 1.315 . S
H351 C345 0.929 . S
H352 C349 0.930 . S
H353 C341 0.929 . S
H354 C343 0.929 . S
O355 Co330 2.351 . S
O355 C358 1.244 . S
O356 Co330 2.155 . S
O356 C358 1.240 . S
O357 Co330 2.096 . S
O357 C338 1.247 . S
C358 O355 1.244 . S
C358 O356 1.240 . S
H359 C333 0.931 . S
H360 C342 0.931 . S
H361 C346 0.929 . S
H362 C348 0.930 . S
Co363 N367 2.148 . S
Co363 N373 2.128 . S
Co363 N383 2.194 . S
Co363 O388 2.351 . S
Co363 O389 2.155 . S
Co363 O390 2.096 . S
C364 N367 1.301 . S
C364 N368 1.328 . S
C364 H369 0.930 . S
C365 C366 1.333 . S
C365 N367 1.317 . S
C365 H370 0.930 . S
C366 C365 1.333 . S
C366 N368 1.350 . S
C366 H392 0.931 . S
N367 Co363 2.148 . S
N367 C364 1.301 . S
N367 C365 1.317 . S
N368 C364 1.328 . S
N368 C366 1.350 . S
H369 C364 0.930 . S
H370 C365 0.930 . S
C371 O372 1.224 . S
C371 O390 1.247 . S
O372 C371 1.224 . S
N373 Co363 2.128 . S
N373 C374 1.355 . S
N373 C376 1.311 . S
C374 N373 1.355 . S
C374 C375 1.363 . S
C374 H386 0.929 . S
C375 C374 1.363 . S
C375 N377 1.375 . S
C375 H393 0.931 . S
C376 N373 1.311 . S
C376 N377 1.347 . S
C376 H387 0.929 . S
N377 C375 1.375 . S
N377 C376 1.347 . S
C378 C381 1.365 . S
C378 N383 1.328 . S
C378 H384 0.929 . S
C379 C380 1.362 . S
C379 C382 1.378 . S
C379 H394 0.929 . S
C380 C379 1.362 . S
C380 C381 1.366 . S
C381 C378 1.365 . S
C381 C380 1.366 . S
C381 H395 0.930 . S
C382 C379 1.378 . S
C382 N383 1.315 . S
C382 H385 0.930 . S
N383 Co363 2.194 . S
N383 C378 1.328 . S
N383 C382 1.315 . S
H384 C378 0.929 . S
H385 C382 0.930 . S
H386 C374 0.929 . S
H387 C376 0.929 . S
O388 Co363 2.351 . S
O388 C391 1.244 . S
O389 Co363 2.155 . S
O389 C391 1.240 . S
O390 Co363 2.096 . S
O390 C371 1.247 . S
C391 O388 1.244 . S
C391 O389 1.240 . S
H392 C366 0.931 . S
H393 C375 0.931 . S
H394 C379 0.929 . S
H395 C381 0.930 . S
Co396 N400 2.148 . S
Co396 N406 2.128 . S
Co396 N416 2.194 . S
Co396 O421 2.351 . S
Co396 O422 2.155 . S
Co396 O423 2.096 . S
C397 N400 1.301 . S
C397 N401 1.328 . S
C397 H402 0.930 . S
C398 C399 1.333 . S
C398 N400 1.317 . S
C398 H403 0.930 . S
C399 C398 1.333 . S
C399 N401 1.350 . S
C399 H425 0.931 . S
N400 Co396 2.148 . S
N400 C397 1.301 . S
N400 C398 1.317 . S
N401 C397 1.328 . S
N401 C399 1.350 . S
H402 C397 0.930 . S
H403 C398 0.930 . S
C404 O405 1.224 . S
C404 O423 1.247 . S
O405 C404 1.224 . S
N406 Co396 2.128 . S
N406 C407 1.355 . S
N406 C409 1.311 . S
C407 N406 1.355 . S
C407 C408 1.363 . S
C407 H419 0.929 . S
C408 C407 1.363 . S
C408 N410 1.375 . S
C408 H426 0.931 . S
C409 N406 1.311 . S
C409 N410 1.347 . S
C409 H420 0.929 . S
N410 C408 1.375 . S
N410 C409 1.347 . S
C411 C414 1.365 . S
C411 N416 1.328 . S
C411 H417 0.929 . S
C412 C413 1.362 . S
C412 C415 1.378 . S
C412 H427 0.929 . S
C413 C412 1.362 . S
C413 C414 1.366 . S
C414 C411 1.365 . S
C414 C413 1.366 . S
C414 H428 0.930 . S
C415 C412 1.378 . S
C415 N416 1.315 . S
C415 H418 0.930 . S
N416 Co396 2.194 . S
N416 C411 1.328 . S
N416 C415 1.315 . S
H417 C411 0.929 . S
H418 C415 0.930 . S
H419 C407 0.929 . S
H420 C409 0.929 . S
O421 Co396 2.351 . S
O421 C424 1.244 . S
O422 Co396 2.155 . S
O422 C424 1.240 . S
O423 Co396 2.096 . S
O423 C404 1.247 . S
C424 O421 1.244 . S
C424 O422 1.240 . S
H425 C399 0.931 . S
H426 C408 0.931 . S
H427 C412 0.929 . S
H428 C414 0.930 . S
Co429 N433 2.148 . S
Co429 N439 2.128 . S
Co429 N449 2.194 . S
Co429 O454 2.351 . S
Co429 O455 2.155 . S
Co429 O456 2.096 . S
C430 N433 1.301 . S
C430 N434 1.328 . S
C430 H435 0.930 . S
C431 C432 1.333 . S
C431 N433 1.317 . S
C431 H436 0.930 . S
C432 C431 1.333 . S
C432 N434 1.350 . S
C432 H458 0.931 . S
N433 Co429 2.148 . S
N433 C430 1.301 . S
N433 C431 1.317 . S
N434 C430 1.328 . S
N434 C432 1.350 . S
H435 C430 0.930 . S
H436 C431 0.930 . S
C437 O438 1.224 . S
C437 O456 1.247 . S
O438 C437 1.224 . S
N439 Co429 2.128 . S
N439 C440 1.355 . S
N439 C442 1.311 . S
C440 N439 1.355 . S
C440 C441 1.363 . S
C440 H452 0.929 . S
C441 C440 1.363 . S
C441 N443 1.375 . S
C441 H459 0.931 . S
C442 N439 1.311 . S
C442 N443 1.347 . S
C442 H453 0.929 . S
N443 C441 1.375 . S
N443 C442 1.347 . S
C444 C447 1.365 . S
C444 N449 1.328 . S
C444 H450 0.929 . S
C445 C446 1.362 . S
C445 C448 1.378 . S
C445 H460 0.929 . S
C446 C445 1.362 . S
C446 C447 1.366 . S
C447 C444 1.365 . S
C447 C446 1.366 . S
C447 H461 0.930 . S
C448 C445 1.378 . S
C448 N449 1.315 . S
C448 H451 0.930 . S
N449 Co429 2.194 . S
N449 C444 1.328 . S
N449 C448 1.315 . S
H450 C444 0.929 . S
H451 C448 0.930 . S
H452 C440 0.929 . S
H453 C442 0.929 . S
O454 Co429 2.351 . S
O454 C457 1.244 . S
O455 Co429 2.155 . S
O455 C457 1.240 . S
O456 Co429 2.096 . S
O456 C437 1.247 . S
C457 O454 1.244 . S
C457 O455 1.240 . S
H458 C432 0.931 . S
H459 C441 0.931 . S
H460 C445 0.929 . S
H461 C447 0.930 . S
Co462 N466 2.148 . S
Co462 N472 2.128 . S
Co462 N482 2.194 . S
Co462 O487 2.351 . S
Co462 O488 2.155 . S
Co462 O489 2.096 . S
C463 N466 1.301 . S
C463 N467 1.328 . S
C463 H468 0.930 . S
C464 C465 1.333 . S
C464 N466 1.317 . S
C464 H469 0.930 . S
C465 C464 1.333 . S
C465 N467 1.350 . S
C465 H491 0.931 . S
N466 Co462 2.148 . S
N466 C463 1.301 . S
N466 C464 1.317 . S
N467 C463 1.328 . S
N467 C465 1.350 . S
H468 C463 0.930 . S
H469 C464 0.930 . S
C470 O471 1.224 . S
C470 O489 1.247 . S
O471 C470 1.224 . S
N472 Co462 2.128 . S
N472 C473 1.355 . S
N472 C475 1.311 . S
C473 N472 1.355 . S
C473 C474 1.363 . S
C473 H485 0.929 . S
C474 C473 1.363 . S
C474 N476 1.375 . S
C474 H492 0.931 . S
C475 N472 1.311 . S
C475 N476 1.347 . S
C475 H486 0.929 . S
N476 C474 1.375 . S
N476 C475 1.347 . S
C477 C480 1.365 . S
C477 N482 1.328 . S
C477 H483 0.929 . S
C478 C479 1.362 . S
C478 C481 1.378 . S
C478 H493 0.929 . S
C479 C478 1.362 . S
C479 C480 1.366 . S
C480 C477 1.365 . S
C480 C479 1.366 . S
C480 H494 0.930 . S
C481 C478 1.378 . S
C481 N482 1.315 . S
C481 H484 0.930 . S
N482 Co462 2.194 . S
N482 C477 1.328 . S
N482 C481 1.315 . S
H483 C477 0.929 . S
H484 C481 0.930 . S
H485 C473 0.929 . S
H486 C475 0.929 . S
O487 Co462 2.351 . S
O487 C490 1.244 . S
O488 Co462 2.155 . S
O488 C490 1.240 . S
O489 Co462 2.096 . S
O489 C470 1.247 . S
C490 O487 1.244 . S
C490 O488 1.240 . S
H491 C465 0.931 . S
H492 C474 0.931 . S
H493 C478 0.929 . S
H494 C480 0.930 . S
Co495 N499 2.148 . S
Co495 N505 2.128 . S
Co495 N515 2.194 . S
Co495 O520 2.351 . S
Co495 O521 2.155 . S
Co495 O522 2.096 . S
C496 N499 1.301 . S
C496 N500 1.328 . S
C496 H501 0.930 . S
C497 C498 1.333 . S
C497 N499 1.317 . S
C497 H502 0.930 . S
C498 C497 1.333 . S
C498 N500 1.350 . S
C498 H524 0.931 . S
N499 Co495 2.148 . S
N499 C496 1.301 . S
N499 C497 1.317 . S
N500 C496 1.328 . S
N500 C498 1.350 . S
H501 C496 0.930 . S
H502 C497 0.930 . S
C503 O504 1.224 . S
C503 O522 1.247 . S
O504 C503 1.224 . S
N505 Co495 2.128 . S
N505 C506 1.355 . S
N505 C508 1.311 . S
C506 N505 1.355 . S
C506 C507 1.363 . S
C506 H518 0.929 . S
C507 C506 1.363 . S
C507 N509 1.375 . S
C507 H525 0.931 . S
C508 N505 1.311 . S
C508 N509 1.347 . S
C508 H519 0.929 . S
N509 C507 1.375 . S
N509 C508 1.347 . S
C510 C513 1.365 . S
C510 N515 1.328 . S
C510 H516 0.929 . S
C511 C512 1.362 . S
C511 C514 1.378 . S
C511 H526 0.929 . S
C512 C511 1.362 . S
C512 C513 1.366 . S
C513 C510 1.365 . S
C513 C512 1.366 . S
C513 H527 0.930 . S
C514 C511 1.378 . S
C514 N515 1.315 . S
C514 H517 0.930 . S
N515 Co495 2.194 . S
N515 C510 1.328 . S
N515 C514 1.315 . S
H516 C510 0.929 . S
H517 C514 0.930 . S
H518 C506 0.929 . S
H519 C508 0.929 . S
O520 Co495 2.351 . S
O520 C523 1.244 . S
O521 Co495 2.155 . S
O521 C523 1.240 . S
O522 Co495 2.096 . S
O522 C503 1.247 . S
C523 O520 1.244 . S
C523 O521 1.240 . S
H524 C498 0.931 . S
H525 C507 0.931 . S
H526 C511 0.929 . S
H527 C513 0.930 . S
C528 C529 1.391 . S
C528 C530 1.394 . S
C528 H544 0.931 . S
C529 C528 1.391 . S
C529 C533 1.376 . S
C530 C528 1.394 . S
C530 C531 1.369 . S
C530 C534 1.531 . S
C531 C530 1.369 . S
C531 C532 1.410 . S
C531 C539 1.503 . S
C532 C531 1.410 . S
C532 C533 1.392 . S
C532 C535 1.511 . S
C533 C529 1.376 . S
C533 C532 1.392 . S
C533 H545 0.929 . S
C534 C530 1.531 . S
C534 H546 0.960 . S
C534 H547 0.962 . S
C534 H548 0.960 . S
C535 C532 1.511 . S
C535 H549 0.961 . S
C535 H550 0.961 . S
C535 H551 0.961 . S
C536 C537 1.370 . S
C536 C538 1.363 . S
C536 H552 0.931 . S
C537 C536 1.370 . S
C537 C541 1.408 . S
C538 C536 1.363 . S
C538 C539 1.370 . S
C538 C542 1.524 . S
C539 C531 1.503 . S
C539 C538 1.370 . S
C539 C540 1.403 . S
C540 C539 1.403 . S
C540 C541 1.404 . S
C540 C543 1.539 . S
C541 C537 1.408 . S
C541 C540 1.404 . S
C541 H553 0.930 . S
C542 C538 1.524 . S
C542 H554 0.956 . S
C542 H555 0.961 . S
C542 H556 0.961 . S
C543 C540 1.539 . S
C543 H557 0.958 . S
C543 H558 0.961 . S
C543 H559 0.960 . S
H544 C528 0.931 . S
H545 C533 0.929 . S
H546 C534 0.960 . S
H547 C534 0.962 . S
H548 C534 0.960 . S
H549 C535 0.961 . S
H550 C535 0.961 . S
H551 C535 0.961 . S
H552 C536 0.931 . S
H553 C541 0.930 . S
H554 C542 0.956 . S
H555 C542 0.961 . S
H556 C542 0.961 . S
H557 C543 0.958 . S
H558 C543 0.961 . S
H559 C543 0.960 . S
C560 C561 1.391 . S
C560 C562 1.394 . S
C560 H576 0.931 . S
C561 C560 1.391 . S
C561 C565 1.376 . S
C562 C560 1.394 . S
C562 C563 1.369 . S
C562 C566 1.531 . S
C563 C562 1.369 . S
C563 C564 1.410 . S
C563 C571 1.503 . S
C564 C563 1.410 . S
C564 C565 1.392 . S
C564 C567 1.511 . S
C565 C561 1.376 . S
C565 C564 1.392 . S
C565 H577 0.929 . S
C566 C562 1.531 . S
C566 H578 0.960 . S
C566 H579 0.962 . S
C566 H580 0.960 . S
C567 C564 1.511 . S
C567 H581 0.961 . S
C567 H582 0.961 . S
C567 H583 0.961 . S
C568 C569 1.370 . S
C568 C570 1.363 . S
C568 H584 0.931 . S
C569 C568 1.370 . S
C569 C573 1.408 . S
C570 C568 1.363 . S
C570 C571 1.370 . S
C570 C574 1.524 . S
C571 C563 1.503 . S
C571 C570 1.370 . S
C571 C572 1.403 . S
C572 C571 1.403 . S
C572 C573 1.404 . S
C572 C575 1.539 . S
C573 C569 1.408 . S
C573 C572 1.404 . S
C573 H585 0.930 . S
C574 C570 1.524 . S
C574 H586 0.956 . S
C574 H587 0.961 . S
C574 H588 0.961 . S
C575 C572 1.539 . S
C575 H589 0.958 . S
C575 H590 0.961 . S
C575 H591 0.960 . S
H576 C560 0.931 . S
H577 C565 0.929 . S
H578 C566 0.960 . S
H579 C566 0.962 . S
H580 C566 0.960 . S
H581 C567 0.961 . S
H582 C567 0.961 . S
H583 C567 0.961 . S
H584 C568 0.931 . S
H585 C573 0.930 . S
H586 C574 0.956 . S
H587 C574 0.961 . S
H588 C574 0.961 . S
H589 C575 0.958 . S
H590 C575 0.961 . S
H591 C575 0.960 . S
C592 C593 1.391 . S
C592 C594 1.394 . S
C592 H608 0.931 . S
C593 C592 1.391 . S
C593 C597 1.376 . S
C594 C592 1.394 . S
C594 C595 1.369 . S
C594 C598 1.531 . S
C595 C594 1.369 . S
C595 C596 1.410 . S
C595 C603 1.503 . S
C596 C595 1.410 . S
C596 C597 1.392 . S
C596 C599 1.511 . S
C597 C593 1.376 . S
C597 C596 1.392 . S
C597 H609 0.929 . S
C598 C594 1.531 . S
C598 H610 0.960 . S
C598 H611 0.962 . S
C598 H612 0.960 . S
C599 C596 1.511 . S
C599 H613 0.961 . S
C599 H614 0.961 . S
C599 H615 0.961 . S
C600 C601 1.370 . S
C600 C602 1.363 . S
C600 H616 0.931 . S
C601 C600 1.370 . S
C601 C605 1.408 . S
C602 C600 1.363 . S
C602 C603 1.370 . S
C602 C606 1.524 . S
C603 C595 1.503 . S
C603 C602 1.370 . S
C603 C604 1.403 . S
C604 C603 1.403 . S
C604 C605 1.404 . S
C604 C607 1.539 . S
C605 C601 1.408 . S
C605 C604 1.404 . S
C605 H617 0.930 . S
C606 C602 1.524 . S
C606 H618 0.956 . S
C606 H619 0.961 . S
C606 H620 0.961 . S
C607 C604 1.539 . S
C607 H621 0.958 . S
C607 H622 0.961 . S
C607 H623 0.960 . S
H608 C592 0.931 . S
H609 C597 0.929 . S
H610 C598 0.960 . S
H611 C598 0.962 . S
H612 C598 0.960 . S
H613 C599 0.961 . S
H614 C599 0.961 . S
H615 C599 0.961 . S
H616 C600 0.931 . S
H617 C605 0.930 . S
H618 C606 0.956 . S
H619 C606 0.961 . S
H620 C606 0.961 . S
H621 C607 0.958 . S
H622 C607 0.961 . S
H623 C607 0.960 . S
C624 C625 1.391 . S
C624 C626 1.394 . S
C624 H640 0.931 . S
C625 C624 1.391 . S
C625 C629 1.376 . S
C626 C624 1.394 . S
C626 C627 1.369 . S
C626 C630 1.531 . S
C627 C626 1.369 . S
C627 C628 1.410 . S
C627 C635 1.503 . S
C628 C627 1.410 . S
C628 C629 1.392 . S
C628 C631 1.511 . S
C629 C625 1.376 . S
C629 C628 1.392 . S
C629 H641 0.929 . S
C630 C626 1.531 . S
C630 H642 0.960 . S
C630 H643 0.962 . S
C630 H644 0.960 . S
C631 C628 1.511 . S
C631 H645 0.961 . S
C631 H646 0.961 . S
C631 H647 0.961 . S
C632 C633 1.370 . S
C632 C634 1.363 . S
C632 H648 0.931 . S
C633 C632 1.370 . S
C633 C637 1.408 . S
C634 C632 1.363 . S
C634 C635 1.370 . S
C634 C638 1.524 . S
C635 C627 1.503 . S
C635 C634 1.370 . S
C635 C636 1.403 . S
C636 C635 1.403 . S
C636 C637 1.404 . S
C636 C639 1.539 . S
C637 C633 1.408 . S
C637 C636 1.404 . S
C637 H649 0.930 . S
C638 C634 1.524 . S
C638 H650 0.956 . S
C638 H651 0.961 . S
C638 H652 0.961 . S
C639 C636 1.539 . S
C639 H653 0.958 . S
C639 H654 0.961 . S
C639 H655 0.960 . S
H640 C624 0.931 . S
H641 C629 0.929 . S
H642 C630 0.960 . S
H643 C630 0.962 . S
H644 C630 0.960 . S
H645 C631 0.961 . S
H646 C631 0.961 . S
H647 C631 0.961 . S
H648 C632 0.931 . S
H649 C637 0.930 . S
H650 C638 0.956 . S
H651 C638 0.961 . S
H652 C638 0.961 . S
H653 C639 0.958 . S
H654 C639 0.961 . S
H655 C639 0.960 . S
C656 C657 1.391 . S
C656 C658 1.394 . S
C656 H672 0.931 1_556 S
C657 C656 1.391 . S
C657 C661 1.376 . S
C658 C656 1.394 . S
C658 C659 1.369 . S
C658 C662 1.531 . S
C659 C658 1.369 . S
C659 C660 1.410 . S
C659 C667 1.503 . S
C660 C659 1.410 . S
C660 C661 1.392 . S
C660 C663 1.511 . S
C661 C657 1.376 . S
C661 C660 1.392 . S
C661 H673 0.929 . S
C662 C658 1.531 . S
C662 H674 0.960 . S
C662 H675 0.962 . S
C662 H676 0.960 . S
C663 C660 1.511 . S
C663 H677 0.961 . S
C663 H678 0.961 . S
C663 H679 0.961 . S
C664 C665 1.370 . S
C664 C666 1.363 . S
C664 H680 0.931 . S
C665 C664 1.370 . S
C665 C669 1.408 . S
C666 C664 1.363 . S
C666 C667 1.370 . S
C666 C670 1.524 . S
C667 C659 1.503 . S
C667 C666 1.370 . S
C667 C668 1.403 . S
C668 C667 1.403 . S
C668 C669 1.404 . S
C668 C671 1.539 . S
C669 C665 1.408 . S
C669 C668 1.404 . S
C669 H681 0.930 . S
C670 C666 1.524 . S
C670 H682 0.956 . S
C670 H683 0.961 . S
C670 H684 0.961 . S
C671 C668 1.539 . S
C671 H685 0.958 . S
C671 H686 0.961 . S
C671 H687 0.960 . S
H672 C656 0.931 1_554 S
H673 C661 0.929 . S
H674 C662 0.960 . S
H675 C662 0.962 . S
H676 C662 0.960 . S
H677 C663 0.961 . S
H678 C663 0.961 . S
H679 C663 0.961 . S
H680 C664 0.931 . S
H681 C669 0.930 . S
H682 C670 0.956 . S
H683 C670 0.961 . S
H684 C670 0.961 . S
H685 C671 0.958 . S
H686 C671 0.961 . S
H687 C671 0.960 . S
C688 C689 1.391 . S
C688 C690 1.394 . S
C688 H704 0.931 . S
C689 C688 1.391 . S
C689 C693 1.376 . S
C690 C688 1.394 . S
C690 C691 1.369 . S
C690 C694 1.531 . S
C691 C690 1.369 . S
C691 C692 1.410 . S
C691 C699 1.503 . S
C692 C691 1.410 . S
C692 C693 1.392 . S
C692 C695 1.511 . S
C693 C689 1.376 . S
C693 C692 1.392 . S
C693 H705 0.929 . S
C694 C690 1.531 . S
C694 H706 0.960 . S
C694 H707 0.962 . S
C694 H708 0.960 . S
C695 C692 1.511 . S
C695 H709 0.961 . S
C695 H710 0.961 . S
C695 H711 0.961 . S
C696 C697 1.370 . S
C696 C698 1.363 . S
C696 H712 0.931 . S
C697 C696 1.370 . S
C697 C701 1.408 . S
C698 C696 1.363 . S
C698 C699 1.370 . S
C698 C702 1.524 . S
C699 C691 1.503 . S
C699 C698 1.370 . S
C699 C700 1.403 . S
C700 C699 1.403 . S
C700 C701 1.404 . S
C700 C703 1.539 . S
C701 C697 1.408 . S
C701 C700 1.404 . S
C701 H713 0.930 . S
C702 C698 1.524 . S
C702 H714 0.956 . S
C702 H715 0.961 . S
C702 H716 0.961 . S
C703 C700 1.539 . S
C703 H717 0.958 . S
C703 H718 0.961 . S
C703 H719 0.960 . S
H704 C688 0.931 . S
H705 C693 0.929 . S
H706 C694 0.960 . S
H707 C694 0.962 . S
H708 C694 0.960 . S
H709 C695 0.961 . S
H710 C695 0.961 . S
H711 C695 0.961 . S
H712 C696 0.931 . S
H713 C701 0.930 . S
H714 C702 0.956 . S
H715 C702 0.961 . S
H716 C702 0.961 . S
H717 C703 0.958 . S
H718 C703 0.961 . S
H719 C703 0.960 . S
C720 C721 1.391 . S
C720 C722 1.394 . S
C720 H736 0.931 . S
C721 C720 1.391 . S
C721 C725 1.376 . S
C722 C720 1.394 . S
C722 C723 1.369 . S
C722 C726 1.531 . S
C723 C722 1.369 . S
C723 C724 1.410 . S
C723 C731 1.503 . S
C724 C723 1.410 . S
C724 C725 1.392 . S
C724 C727 1.511 . S
C725 C721 1.376 . S
C725 C724 1.392 . S
C725 H737 0.929 . S
C726 C722 1.531 . S
C726 H738 0.960 . S
C726 H739 0.962 . S
C726 H740 0.960 . S
C727 C724 1.511 . S
C727 H741 0.961 . S
C727 H742 0.961 . S
C727 H743 0.961 . S
C728 C729 1.370 . S
C728 C730 1.363 . S
C728 H744 0.931 . S
C729 C728 1.370 . S
C729 C733 1.408 . S
C730 C728 1.363 . S
C730 C731 1.370 . S
C730 C734 1.524 . S
C731 C723 1.503 . S
C731 C730 1.370 . S
C731 C732 1.403 . S
C732 C731 1.403 . S
C732 C733 1.404 . S
C732 C735 1.539 . S
C733 C729 1.408 . S
C733 C732 1.404 . S
C733 H745 0.930 . S
C734 C730 1.524 . S
C734 H746 0.956 . S
C734 H747 0.961 . S
C734 H748 0.961 . S
C735 C732 1.539 . S
C735 H749 0.958 . S
C735 H750 0.961 . S
C735 H751 0.960 . S
H736 C720 0.931 . S
H737 C725 0.929 . S
H738 C726 0.960 . S
H739 C726 0.962 . S
H740 C726 0.960 . S
H741 C727 0.961 . S
H742 C727 0.961 . S
H743 C727 0.961 . S
H744 C728 0.931 . S
H745 C733 0.930 . S
H746 C734 0.956 . S
H747 C734 0.961 . S
H748 C734 0.961 . S
H749 C735 0.958 . S
H750 C735 0.961 . S
H751 C735 0.960 . S
C752 C753 1.391 . S
C752 C754 1.394 . S
C752 H768 0.931 . S
C753 C752 1.391 . S
C753 C757 1.376 . S
C754 C752 1.394 . S
C754 C755 1.369 . S
C754 C758 1.531 . S
C755 C754 1.369 . S
C755 C756 1.410 . S
C755 C763 1.503 . S
C756 C755 1.410 . S
C756 C757 1.392 . S
C756 C759 1.511 . S
C757 C753 1.376 . S
C757 C756 1.392 . S
C757 H769 0.929 . S
C758 C754 1.531 . S
C758 H770 0.960 . S
C758 H771 0.962 . S
C758 H772 0.960 . S
C759 C756 1.511 . S
C759 H773 0.961 . S
C759 H774 0.961 . S
C759 H775 0.961 . S
C760 C761 1.370 . S
C760 C762 1.363 . S
C760 H776 0.931 . S
C761 C760 1.370 . S
C761 C765 1.408 . S
C762 C760 1.363 . S
C762 C763 1.370 . S
C762 C766 1.524 . S
C763 C755 1.503 . S
C763 C762 1.370 . S
C763 C764 1.403 . S
C764 C763 1.403 . S
C764 C765 1.404 . S
C764 C767 1.539 . S
C765 C761 1.408 . S
C765 C764 1.404 . S
C765 H777 0.930 . S
C766 C762 1.524 . S
C766 H778 0.956 . S
C766 H779 0.961 . S
C766 H780 0.961 . S
C767 C764 1.539 . S
C767 H781 0.958 . S
C767 H782 0.961 . S
C767 H783 0.960 . S
H768 C752 0.931 . S
H769 C757 0.929 . S
H770 C758 0.960 . S
H771 C758 0.962 . S
H772 C758 0.960 . S
H773 C759 0.961 . S
H774 C759 0.961 . S
H775 C759 0.961 . S
H776 C760 0.931 . S
H777 C765 0.930 . S
H778 C766 0.956 . S
H779 C766 0.961 . S
H780 C766 0.961 . S
H781 C767 0.958 . S
H782 C767 0.961 . S
H783 C767 0.960 . S
C784 C785 1.391 . S
C784 C786 1.394 . S
C784 H800 0.931 . S
C785 C784 1.391 . S
C785 C789 1.376 . S
C786 C784 1.394 . S
C786 C787 1.369 . S
C786 C790 1.531 . S
C787 C786 1.369 . S
C787 C788 1.410 . S
C787 C795 1.503 . S
C788 C787 1.410 . S
C788 C789 1.392 . S
C788 C791 1.511 . S
C789 C785 1.376 . S
C789 C788 1.392 . S
C789 H801 0.929 . S
C790 C786 1.531 . S
C790 H802 0.960 . S
C790 H803 0.962 . S
C790 H804 0.960 . S
C791 C788 1.511 . S
C791 H805 0.961 . S
C791 H806 0.961 . S
C791 H807 0.961 . S
C792 C793 1.370 . S
C792 C794 1.363 . S
C792 H808 0.931 . S
C793 C792 1.370 . S
C793 C797 1.408 . S
C794 C792 1.363 . S
C794 C795 1.370 . S
C794 C798 1.524 . S
C795 C787 1.503 . S
C795 C794 1.370 . S
C795 C796 1.403 . S
C796 C795 1.403 . S
C796 C797 1.404 . S
C796 C799 1.539 . S
C797 C793 1.408 . S
C797 C796 1.404 . S
C797 H809 0.930 . S
C798 C794 1.524 . S
C798 H810 0.956 . S
C798 H811 0.961 . S
C798 H812 0.961 . S
C799 C796 1.539 . S
C799 H813 0.958 . S
C799 H814 0.961 . S
C799 H815 0.960 . S
H800 C784 0.931 . S
H801 C789 0.929 . S
H802 C790 0.960 . S
H803 C790 0.962 . S
H804 C790 0.960 . S
H805 C791 0.961 . S
H806 C791 0.961 . S
H807 C791 0.961 . S
H808 C792 0.931 . S
H809 C797 0.930 . S
H810 C798 0.956 . S
H811 C798 0.961 . S
H812 C798 0.961 . S
H813 C799 0.958 . S
H814 C799 0.961 . S
H815 C799 0.960 . S
C816 C817 1.391 . S
C816 C818 1.394 . S
C816 H832 0.931 . S
C817 C816 1.391 . S
C817 C821 1.376 . S
C818 C816 1.394 . S
C818 C819 1.369 . S
C818 C822 1.531 . S
C819 C818 1.369 . S
C819 C820 1.410 . S
C819 C827 1.503 . S
C820 C819 1.410 . S
C820 C821 1.392 . S
C820 C823 1.511 . S
C821 C817 1.376 . S
C821 C820 1.392 . S
C821 H833 0.929 . S
C822 C818 1.531 . S
C822 H834 0.960 . S
C822 H835 0.962 . S
C822 H836 0.960 . S
C823 C820 1.511 . S
C823 H837 0.961 . S
C823 H838 0.961 . S
C823 H839 0.961 . S
C824 C825 1.370 . S
C824 C826 1.363 . S
C824 H840 0.931 . S
C825 C824 1.370 . S
C825 C829 1.408 . S
C826 C824 1.363 . S
C826 C827 1.370 . S
C826 C830 1.524 . S
C827 C819 1.503 . S
C827 C826 1.370 . S
C827 C828 1.403 . S
C828 C827 1.403 . S
C828 C829 1.404 . S
C828 C831 1.539 . S
C829 C825 1.408 . S
C829 C828 1.404 . S
C829 H841 0.930 . S
C830 C826 1.524 . S
C830 H842 0.956 . S
C830 H843 0.961 . S
C830 H844 0.961 . S
C831 C828 1.539 . S
C831 H845 0.958 . S
C831 H846 0.961 1_556 S
C831 H847 0.960 . S
H832 C816 0.931 . S
H833 C821 0.929 . S
H834 C822 0.960 . S
H835 C822 0.962 . S
H836 C822 0.960 . S
H837 C823 0.961 . S
H838 C823 0.961 . S
H839 C823 0.961 . S
H840 C824 0.931 . S
H841 C829 0.930 . S
H842 C830 0.956 . S
H843 C830 0.961 . S
H844 C830 0.961 . S
H845 C831 0.958 . S
H846 C831 0.961 1_554 S
H847 C831 0.960 . S
C848 C849 1.391 . S
C848 C850 1.394 . S
C848 H864 0.931 . S
C849 C848 1.391 . S
C849 C853 1.376 . S
C850 C848 1.394 . S
C850 C851 1.369 . S
C850 C854 1.531 . S
C851 C850 1.369 . S
C851 C852 1.410 . S
C851 C859 1.503 . S
C852 C851 1.410 . S
C852 C853 1.392 . S
C852 C855 1.511 . S
C853 C849 1.376 . S
C853 C852 1.392 . S
C853 H865 0.929 . S
C854 C850 1.531 . S
C854 H866 0.960 . S
C854 H867 0.962 . S
C854 H868 0.960 . S
C855 C852 1.511 . S
C855 H869 0.961 . S
C855 H870 0.961 . S
C855 H871 0.961 . S
C856 C857 1.370 . S
C856 C858 1.363 . S
C856 H872 0.931 . S
C857 C856 1.370 . S
C857 C861 1.408 . S
C858 C856 1.363 . S
C858 C859 1.370 . S
C858 C862 1.524 . S
C859 C851 1.503 . S
C859 C858 1.370 . S
C859 C860 1.403 . S
C860 C859 1.403 . S
C860 C861 1.404 . S
C860 C863 1.539 . S
C861 C857 1.408 . S
C861 C860 1.404 . S
C861 H873 0.930 . S
C862 C858 1.524 . S
C862 H874 0.956 . S
C862 H875 0.961 . S
C862 H876 0.961 . S
C863 C860 1.539 . S
C863 H877 0.958 . S
C863 H878 0.961 . S
C863 H879 0.960 . S
H864 C848 0.931 . S
H865 C853 0.929 . S
H866 C854 0.960 . S
H867 C854 0.962 . S
H868 C854 0.960 . S
H869 C855 0.961 . S
H870 C855 0.961 . S
H871 C855 0.961 . S
H872 C856 0.931 . S
H873 C861 0.930 . S
H874 C862 0.956 . S
H875 C862 0.961 . S
H876 C862 0.961 . S
H877 C863 0.958 . S
H878 C863 0.961 . S
H879 C863 0.960 . S
C880 C881 1.391 . S
C880 C882 1.394 . S
C880 H896 0.931 . S
C881 C880 1.391 . S
C881 C885 1.376 . S
C882 C880 1.394 . S
C882 C883 1.369 . S
C882 C886 1.531 . S
C883 C882 1.369 . S
C883 C884 1.410 . S
C883 C891 1.503 . S
C884 C883 1.410 . S
C884 C885 1.392 . S
C884 C887 1.511 . S
C885 C881 1.376 . S
C885 C884 1.392 . S
C885 H897 0.929 . S
C886 C882 1.531 . S
C886 H898 0.960 . S
C886 H899 0.962 . S
C886 H900 0.960 . S
C887 C884 1.511 . S
C887 H901 0.961 . S
C887 H902 0.961 . S
C887 H903 0.961 . S
C888 C889 1.370 . S
C888 C890 1.363 . S
C888 H904 0.931 . S
C889 C888 1.370 . S
C889 C893 1.408 . S
C890 C888 1.363 . S
C890 C891 1.370 . S
C890 C894 1.524 . S
C891 C883 1.503 . S
C891 C890 1.370 . S
C891 C892 1.403 . S
C892 C891 1.403 . S
C892 C893 1.404 . S
C892 C895 1.539 . S
C893 C889 1.408 . S
C893 C892 1.404 . S
C893 H905 0.930 . S
C894 C890 1.524 . S
C894 H906 0.956 . S
C894 H907 0.961 . S
C894 H908 0.961 . S
C895 C892 1.539 . S
C895 H909 0.958 . S
C895 H910 0.961 . S
C895 H911 0.960 . S
H896 C880 0.931 . S
H897 C885 0.929 . S
H898 C886 0.960 . S
H899 C886 0.962 . S
H900 C886 0.960 . S
H901 C887 0.961 . S
H902 C887 0.961 . S
H903 C887 0.961 . S
H904 C888 0.931 . S
H905 C893 0.930 . S
H906 C894 0.956 . S
H907 C894 0.961 . S
H908 C894 0.961 . S
H909 C895 0.958 . S
H910 C895 0.961 . S
H911 C895 0.960 . S
C912 C913 1.391 . S
C912 C914 1.394 . S
C912 H928 0.931 . S
C913 C912 1.391 . S
C913 C917 1.376 . S
C914 C912 1.394 . S
C914 C915 1.369 . S
C914 C918 1.531 . S
C915 C914 1.369 . S
C915 C916 1.410 . S
C915 C923 1.503 . S
C916 C915 1.410 . S
C916 C917 1.392 . S
C916 C919 1.511 . S
C917 C913 1.376 . S
C917 C916 1.392 . S
C917 H929 0.929 . S
C918 C914 1.531 . S
C918 H930 0.960 . S
C918 H931 0.962 . S
C918 H932 0.960 . S
C919 C916 1.511 . S
C919 H933 0.961 . S
C919 H934 0.961 . S
C919 H935 0.961 . S
C920 C921 1.370 . S
C920 C922 1.363 . S
C920 H936 0.931 . S
C921 C920 1.370 . S
C921 C925 1.408 . S
C922 C920 1.363 . S
C922 C923 1.370 . S
C922 C926 1.524 . S
C923 C915 1.503 . S
C923 C922 1.370 . S
C923 C924 1.403 . S
C924 C923 1.403 . S
C924 C925 1.404 . S
C924 C927 1.539 . S
C925 C921 1.408 . S
C925 C924 1.404 . S
C925 H937 0.930 . S
C926 C922 1.524 . S
C926 H938 0.956 . S
C926 H939 0.961 . S
C926 H940 0.961 . S
C927 C924 1.539 . S
C927 H941 0.958 . S
C927 H942 0.961 . S
C927 H943 0.960 . S
H928 C912 0.931 . S
H929 C917 0.929 . S
H930 C918 0.960 . S
H931 C918 0.962 . S
H932 C918 0.960 . S
H933 C919 0.961 . S
H934 C919 0.961 . S
H935 C919 0.961 . S
H936 C920 0.931 . S
H937 C925 0.930 . S
H938 C926 0.956 . S
H939 C926 0.961 . S
H940 C926 0.961 . S
H941 C927 0.958 . S
H942 C927 0.961 . S
H943 C927 0.960 . S
C944 C945 1.391 . S
C944 C946 1.394 . S
C944 H960 0.931 . S
C945 C944 1.391 . S
C945 C949 1.376 . S
C946 C944 1.394 . S
C946 C947 1.369 . S
C946 C950 1.531 . S
C947 C946 1.369 . S
C947 C948 1.410 . S
C947 C955 1.503 . S
C948 C947 1.410 . S
C948 C949 1.392 . S
C948 C951 1.511 . S
C949 C945 1.376 . S
C949 C948 1.392 . S
C949 H961 0.929 . S
C950 C946 1.531 . S
C950 H962 0.960 . S
C950 H963 0.962 . S
C950 H964 0.960 . S
C951 C948 1.511 . S
C951 H965 0.961 . S
C951 H966 0.961 . S
C951 H967 0.961 . S
C952 C953 1.370 . S
C952 C954 1.363 . S
C952 H968 0.931 . S
C953 C952 1.370 . S
C953 C957 1.408 . S
C954 C952 1.363 . S
C954 C955 1.370 . S
C954 C958 1.524 . S
C955 C947 1.503 . S
C955 C954 1.370 . S
C955 C956 1.403 . S
C956 C955 1.403 . S
C956 C957 1.404 . S
C956 C959 1.539 . S
C957 C953 1.408 . S
C957 C956 1.404 . S
C957 H969 0.930 . S
C958 C954 1.524 . S
C958 H970 0.956 . S
C958 H971 0.961 . S
C958 H972 0.961 . S
C959 C956 1.539 . S
C959 H973 0.958 . S
C959 H974 0.961 . S
C959 H975 0.960 . S
H960 C944 0.931 . S
H961 C949 0.929 . S
H962 C950 0.960 . S
H963 C950 0.962 . S
H964 C950 0.960 . S
H965 C951 0.961 . S
H966 C951 0.961 . S
H967 C951 0.961 . S
H968 C952 0.931 . S
H969 C957 0.930 . S
H970 C958 0.956 . S
H971 C958 0.961 . S
H972 C958 0.961 . S
H973 C959 0.958 . S
H974 C959 0.961 . S
H975 C959 0.960 . S
C976 C977 1.391 . S
C976 C978 1.394 . S
C976 H992 0.931 . S
C977 C976 1.391 . S
C977 C981 1.376 . S
C978 C976 1.394 . S
C978 C979 1.369 . S
C978 C982 1.531 . S
C979 C978 1.369 . S
C979 C980 1.410 . S
C979 C987 1.503 . S
C980 C979 1.410 . S
C980 C981 1.392 . S
C980 C983 1.511 . S
C981 C977 1.376 . S
C981 C980 1.392 . S
C981 H993 0.929 . S
C982 C978 1.531 . S
C982 H994 0.960 . S
C982 H995 0.962 . S
C982 H996 0.960 . S
C983 C980 1.511 . S
C983 H997 0.961 . S
C983 H998 0.961 . S
C983 H999 0.961 . S
C984 C985 1.370 . S
C984 C986 1.363 . S
C984 H1000 0.931 . S
C985 C984 1.370 . S
C985 C989 1.408 . S
C986 C984 1.363 . S
C986 C987 1.370 . S
C986 C990 1.524 . S
C987 C979 1.503 . S
C987 C986 1.370 . S
C987 C988 1.403 . S
C988 C987 1.403 . S
C988 C989 1.404 . S
C988 C991 1.539 . S
C989 C985 1.408 . S
C989 C988 1.404 . S
C989 H1001 0.930 . S
C990 C986 1.524 . S
C990 H1002 0.956 . S
C990 H1003 0.961 . S
C990 H1004 0.961 . S
C991 C988 1.539 . S
C991 H1005 0.958 . S
C991 H1006 0.961 . S
C991 H1007 0.960 . S
H992 C976 0.931 . S
H993 C981 0.929 . S
H994 C982 0.960 . S
H995 C982 0.962 . S
H996 C982 0.960 . S
H997 C983 0.961 . S
H998 C983 0.961 . S
H999 C983 0.961 . S
H1000 C984 0.931 . S
H1001 C989 0.930 . S
H1002 C990 0.956 . S
H1003 C990 0.961 . S
H1004 C990 0.961 . S
H1005 C991 0.958 . S
H1006 C991 0.961 . S
H1007 C991 0.960 . S
C1008 C1009 1.391 . S
C1008 C1010 1.394 . S
C1008 H1024 0.931 . S
C1009 C1008 1.391 . S
C1009 C1013 1.376 . S
C1010 C1008 1.394 . S
C1010 C1011 1.369 . S
C1010 C1014 1.531 . S
C1011 C1010 1.369 . S
C1011 C1012 1.410 . S
C1011 C1019 1.503 . S
C1012 C1011 1.410 . S
C1012 C1013 1.392 . S
C1012 C1015 1.511 . S
C1013 C1009 1.376 . S
C1013 C1012 1.392 . S
C1013 H1025 0.929 . S
C1014 C1010 1.531 . S
C1014 H1026 0.960 . S
C1014 H1027 0.962 . S
C1014 H1028 0.960 . S
C1015 C1012 1.511 . S
C1015 H1029 0.961 . S
C1015 H1030 0.961 . S
C1015 H1031 0.961 . S
C1016 C1017 1.370 . S
C1016 C1018 1.363 . S
C1016 H1032 0.931 . S
C1017 C1016 1.370 . S
C1017 C1021 1.408 . S
C1018 C1016 1.363 . S
C1018 C1019 1.370 . S
C1018 C1022 1.524 . S
C1019 C1011 1.503 . S
C1019 C1018 1.370 . S
C1019 C1020 1.403 . S
C1020 C1019 1.403 . S
C1020 C1021 1.404 . S
C1020 C1023 1.539 . S
C1021 C1017 1.408 . S
C1021 C1020 1.404 . S
C1021 H1033 0.930 . S
C1022 C1018 1.524 . S
C1022 H1034 0.956 . S
C1022 H1035 0.961 . S
C1022 H1036 0.961 . S
C1023 C1020 1.539 . S
C1023 H1037 0.958 . S
C1023 H1038 0.961 . S
C1023 H1039 0.960 . S
H1024 C1008 0.931 . S
H1025 C1013 0.929 . S
H1026 C1014 0.960 . S
H1027 C1014 0.962 . S
H1028 C1014 0.960 . S
H1029 C1015 0.961 . S
H1030 C1015 0.961 . S
H1031 C1015 0.961 . S
H1032 C1016 0.931 . S
H1033 C1021 0.930 . S
H1034 C1022 0.956 . S
H1035 C1022 0.961 . S
H1036 C1022 0.961 . S
H1037 C1023 0.958 . S
H1038 C1023 0.961 . S
H1039 C1023 0.960 . S
C1040 C1041 1.391 . S
C1040 C1042 1.394 . S
C1040 H1056 0.931 . S
C1041 C1040 1.391 . S
C1041 C1045 1.376 . S
C1042 C1040 1.394 . S
C1042 C1043 1.369 . S
C1042 C1046 1.531 . S
C1043 C1042 1.369 . S
C1043 C1044 1.410 . S
C1043 C1051 1.503 . S
C1044 C1043 1.410 . S
C1044 C1045 1.392 . S
C1044 C1047 1.511 . S
C1045 C1041 1.376 . S
C1045 C1044 1.392 . S
C1045 H1057 0.929 . S
C1046 C1042 1.531 . S
C1046 H1058 0.960 . S
C1046 H1059 0.962 . S
C1046 H1060 0.960 . S
C1047 C1044 1.511 . S
C1047 H1061 0.961 . S
C1047 H1062 0.961 . S
C1047 H1063 0.961 . S
C1048 C1049 1.370 . S
C1048 C1050 1.363 . S
C1048 H1064 0.931 . S
C1049 C1048 1.370 . S
C1049 C1053 1.408 . S
C1050 C1048 1.363 . S
C1050 C1051 1.370 . S
C1050 C1054 1.524 . S
C1051 C1043 1.503 . S
C1051 C1050 1.370 . S
C1051 C1052 1.403 . S
C1052 C1051 1.403 . S
C1052 C1053 1.404 . S
C1052 C1055 1.539 . S
C1053 C1049 1.408 . S
C1053 C1052 1.404 . S
C1053 H1065 0.930 . S
C1054 C1050 1.524 . S
C1054 H1066 0.956 . S
C1054 H1067 0.961 . S
C1054 H1068 0.961 . S
C1055 C1052 1.539 . S
C1055 H1069 0.958 . S
C1055 H1070 0.961 . S
C1055 H1071 0.960 . S
H1056 C1040 0.931 . S
H1057 C1045 0.929 . S
H1058 C1046 0.960 . S
H1059 C1046 0.962 . S
H1060 C1046 0.960 . S
H1061 C1047 0.961 . S
H1062 C1047 0.961 . S
H1063 C1047 0.961 . S
H1064 C1048 0.931 . S
H1065 C1053 0.930 . S
H1066 C1054 0.956 . S
H1067 C1054 0.961 . S
H1068 C1054 0.961 . S
H1069 C1055 0.958 . S
H1070 C1055 0.961 . S
H1071 C1055 0.960 . S
C1072 C1073 1.391 . S
C1072 C1074 1.394 . S
C1072 H1088 0.931 . S
C1073 C1072 1.391 . S
C1073 C1077 1.376 . S
C1074 C1072 1.394 . S
C1074 C1075 1.369 . S
C1074 C1078 1.531 . S
C1075 C1074 1.369 . S
C1075 C1076 1.410 . S
C1075 C1083 1.503 . S
C1076 C1075 1.410 . S
C1076 C1077 1.392 . S
C1076 C1079 1.511 . S
C1077 C1073 1.376 . S
C1077 C1076 1.392 . S
C1077 H1089 0.929 . S
C1078 C1074 1.531 . S
C1078 H1090 0.960 . S
C1078 H1091 0.962 . S
C1078 H1092 0.960 . S
C1079 C1076 1.511 . S
C1079 H1093 0.961 . S
C1079 H1094 0.961 . S
C1079 H1095 0.961 . S
C1080 C1081 1.370 . S
C1080 C1082 1.363 . S
C1080 H1096 0.931 . S
C1081 C1080 1.370 . S
C1081 C1085 1.408 . S
C1082 C1080 1.363 . S
C1082 C1083 1.370 . S
C1082 C1086 1.524 . S
C1083 C1075 1.503 . S
C1083 C1082 1.370 . S
C1083 C1084 1.403 . S
C1084 C1083 1.403 . S
C1084 C1085 1.404 . S
C1084 C1087 1.539 . S
C1085 C1081 1.408 . S
C1085 C1084 1.404 . S
C1085 H1097 0.930 . S
C1086 C1082 1.524 . S
C1086 H1098 0.956 . S
C1086 H1099 0.961 . S
C1086 H1100 0.961 . S
C1087 C1084 1.539 . S
C1087 H1101 0.958 . S
C1087 H1102 0.961 . S
C1087 H1103 0.960 . S
H1088 C1072 0.931 . S
H1089 C1077 0.929 . S
H1090 C1078 0.960 . S
H1091 C1078 0.962 . S
H1092 C1078 0.960 . S
H1093 C1079 0.961 . S
H1094 C1079 0.961 . S
H1095 C1079 0.961 . S
H1096 C1080 0.931 . S
H1097 C1085 0.930 . S
H1098 C1086 0.956 . S
H1099 C1086 0.961 . S
H1100 C1086 0.961 . S
H1101 C1087 0.958 . S
H1102 C1087 0.961 . S
H1103 C1087 0.960 . S
C1104 C1105 1.391 . S
C1104 C1106 1.394 . S
C1104 H1120 0.931 . S
C1105 C1104 1.391 . S
C1105 C1109 1.376 . S
C1106 C1104 1.394 . S
C1106 C1107 1.369 . S
C1106 C1110 1.531 . S
C1107 C1106 1.369 . S
C1107 C1108 1.410 . S
C1107 C1115 1.503 . S
C1108 C1107 1.410 . S
C1108 C1109 1.392 . S
C1108 C1111 1.511 . S
C1109 C1105 1.376 . S
C1109 C1108 1.392 . S
C1109 H1121 0.929 1_556 S
C1110 C1106 1.531 . S
C1110 H1122 0.960 . S
C1110 H1123 0.962 . S
C1110 H1124 0.960 . S
C1111 C1108 1.511 . S
C1111 H1125 0.961 . S
C1111 H1126 0.961 . S
C1111 H1127 0.961 . S
C1112 C1113 1.370 . S
C1112 C1114 1.363 . S
C1112 H1128 0.931 . S
C1113 C1112 1.370 . S
C1113 C1117 1.408 . S
C1114 C1112 1.363 . S
C1114 C1115 1.370 . S
C1114 C1118 1.524 . S
C1115 C1107 1.503 . S
C1115 C1114 1.370 . S
C1115 C1116 1.403 . S
C1116 C1115 1.403 . S
C1116 C1117 1.404 . S
C1116 C1119 1.539 . S
C1117 C1113 1.408 . S
C1117 C1116 1.404 . S
C1117 H1129 0.930 . S
C1118 C1114 1.524 . S
C1118 H1130 0.956 . S
C1118 H1131 0.961 . S
C1118 H1132 0.961 . S
C1119 C1116 1.539 . S
C1119 H1133 0.958 . S
C1119 H1134 0.961 . S
C1119 H1135 0.960 . S
H1120 C1104 0.931 . S
H1121 C1109 0.929 1_554 S
H1122 C1110 0.960 . S
H1123 C1110 0.962 . S
H1124 C1110 0.960 . S
H1125 C1111 0.961 . S
H1126 C1111 0.961 . S
H1127 C1111 0.961 . S
H1128 C1112 0.931 . S
H1129 C1117 0.930 . S
H1130 C1118 0.956 . S
H1131 C1118 0.961 . S
H1132 C1118 0.961 . S
H1133 C1119 0.958 . S
H1134 C1119 0.961 . S
H1135 C1119 0.960 . S
C1136 C1137 1.391 . S
C1136 C1138 1.394 . S
C1136 H1152 0.931 . S
C1137 C1136 1.391 . S
C1137 C1141 1.376 . S
C1138 C1136 1.394 . S
C1138 C1139 1.369 . S
C1138 C1142 1.531 . S
C1139 C1138 1.369 . S
C1139 C1140 1.410 . S
C1139 C1147 1.503 . S
C1140 C1139 1.410 . S
C1140 C1141 1.392 . S
C1140 C1143 1.511 . S
C1141 C1137 1.376 . S
C1141 C1140 1.392 . S
C1141 H1153 0.929 . S
C1142 C1138 1.531 . S
C1142 H1154 0.960 . S
C1142 H1155 0.962 . S
C1142 H1156 0.960 . S
C1143 C1140 1.511 . S
C1143 H1157 0.961 . S
C1143 H1158 0.961 . S
C1143 H1159 0.961 . S
C1144 C1145 1.370 . S
C1144 C1146 1.363 . S
C1144 H1160 0.931 . S
C1145 C1144 1.370 . S
C1145 C1149 1.408 . S
C1146 C1144 1.363 . S
C1146 C1147 1.370 . S
C1146 C1150 1.524 . S
C1147 C1139 1.503 . S
C1147 C1146 1.370 . S
C1147 C1148 1.403 . S
C1148 C1147 1.403 . S
C1148 C1149 1.404 . S
C1148 C1151 1.539 . S
C1149 C1145 1.408 . S
C1149 C1148 1.404 . S
C1149 H1161 0.936 . S
C1150 C1146 1.524 . S
C1150 H1162 0.956 . S
C1150 H1163 0.961 . S
C1150 H1164 0.961 . S
C1151 C1148 1.539 . S
C1151 H1165 0.958 . S
C1151 H1166 0.961 . S
C1151 H1167 0.960 . S
H1152 C1136 0.931 . S
H1153 C1141 0.929 . S
H1154 C1142 0.960 . S
H1155 C1142 0.962 . S
H1156 C1142 0.960 . S
H1157 C1143 0.961 . S
H1158 C1143 0.961 . S
H1159 C1143 0.961 . S
H1160 C1144 0.931 . S
H1161 C1149 0.936 . S
H1162 C1150 0.956 . S
H1163 C1150 0.961 . S
H1164 C1150 0.961 . S
H1165 C1151 0.958 . S
H1166 C1151 0.961 . S
H1167 C1151 0.960 . S
C1168 C1169 1.391 . S
C1168 C1170 1.394 . S
C1168 H1184 0.931 . S
C1169 C1168 1.391 . S
C1169 C1173 1.376 . S
C1170 C1168 1.394 . S
C1170 C1171 1.369 . S
C1170 C1174 1.531 . S
C1171 C1170 1.369 . S
C1171 C1172 1.410 . S
C1171 C1179 1.503 . S
C1172 C1171 1.410 . S
C1172 C1173 1.392 . S
C1172 C1175 1.511 . S
C1173 C1169 1.376 . S
C1173 C1172 1.392 . S
C1173 H1185 0.929 . S
C1174 C1170 1.531 . S
C1174 H1186 0.960 . S
C1174 H1187 0.962 . S
C1174 H1188 0.960 . S
C1175 C1172 1.511 . S
C1175 H1189 0.961 . S
C1175 H1190 0.961 . S
C1175 H1191 0.961 . S
C1176 C1177 1.370 . S
C1176 C1178 1.363 . S
C1176 H1192 0.931 . S
C1177 C1176 1.370 . S
C1177 C1181 1.408 . S
C1178 C1176 1.363 . S
C1178 C1179 1.370 . S
C1178 C1182 1.524 . S
C1179 C1171 1.503 . S
C1179 C1178 1.370 . S
C1179 C1180 1.403 . S
C1180 C1179 1.403 . S
C1180 C1181 1.404 . S
C1180 C1183 1.539 . S
C1181 C1177 1.408 . S
C1181 C1180 1.404 . S
C1181 H1193 0.930 . S
C1182 C1178 1.524 . S
C1182 H1194 0.956 . S
C1182 H1195 0.961 . S
C1182 H1196 0.961 . S
C1183 C1180 1.539 . S
C1183 H1197 0.958 . S
C1183 H1198 0.961 . S
C1183 H1199 0.960 . S
H1184 C1168 0.931 . S
H1185 C1173 0.929 . S
H1186 C1174 0.960 . S
H1187 C1174 0.962 . S
H1188 C1174 0.960 . S
H1189 C1175 0.961 . S
H1190 C1175 0.961 . S
H1191 C1175 0.961 . S
H1192 C1176 0.931 . S
H1193 C1181 0.930 . S
H1194 C1182 0.956 . S
H1195 C1182 0.961 . S
H1196 C1182 0.961 . S
H1197 C1183 0.958 . S
H1198 C1183 0.961 . S
H1199 C1183 0.960 . S
C1200 C1201 1.391 . S
C1200 C1202 1.394 . S
C1200 H1216 0.931 . S
C1201 C1200 1.391 . S
C1201 C1205 1.376 . S
C1202 C1200 1.394 . S
C1202 C1203 1.369 . S
C1202 C1206 1.531 . S
C1203 C1202 1.369 . S
C1203 C1204 1.410 . S
C1203 C1211 1.503 . S
C1204 C1203 1.410 . S
C1204 C1205 1.392 . S
C1204 C1207 1.511 . S
C1205 C1201 1.376 . S
C1205 C1204 1.392 . S
C1205 H1217 0.929 . S
C1206 C1202 1.531 . S
C1206 H1218 0.960 . S
C1206 H1219 0.962 . S
C1206 H1220 0.960 . S
C1207 C1204 1.511 . S
C1207 H1221 0.961 . S
C1207 H1222 0.961 . S
C1207 H1223 0.961 . S
C1208 C1209 1.370 . S
C1208 C1210 1.363 . S
C1208 H1224 0.931 . S
C1209 C1208 1.370 . S
C1209 C1213 1.408 . S
C1210 C1208 1.363 . S
C1210 C1211 1.370 . S
C1210 C1214 1.524 . S
C1211 C1203 1.503 . S
C1211 C1210 1.370 . S
C1211 C1212 1.403 . S
C1212 C1211 1.403 . S
C1212 C1213 1.404 . S
C1212 C1215 1.539 . S
C1213 C1209 1.408 . S
C1213 C1212 1.404 . S
C1213 H1225 0.930 . S
C1214 C1210 1.524 . S
C1214 H1226 0.956 . S
C1214 H1227 0.961 . S
C1214 H1228 0.961 . S
C1215 C1212 1.539 . S
C1215 H1229 0.958 . S
C1215 H1230 0.961 . S
C1215 H1231 0.960 . S
H1216 C1200 0.931 . S
H1217 C1205 0.929 . S
H1218 C1206 0.960 . S
H1219 C1206 0.962 . S
H1220 C1206 0.960 . S
H1221 C1207 0.961 . S
H1222 C1207 0.961 . S
H1223 C1207 0.961 . S
H1224 C1208 0.931 . S
H1225 C1213 0.930 . S
H1226 C1214 0.956 . S
H1227 C1214 0.961 . S
H1228 C1214 0.961 . S
H1229 C1215 0.958 . S
H1230 C1215 0.961 . S
H1231 C1215 0.960 . S
C1232 C1233 1.391 . S
C1232 C1234 1.394 . S
C1232 H1248 0.931 . S
C1233 C1232 1.391 . S
C1233 C1237 1.376 . S
C1234 C1232 1.394 . S
C1234 C1235 1.369 . S
C1234 C1238 1.531 . S
C1235 C1234 1.369 . S
C1235 C1236 1.410 . S
C1235 C1243 1.503 . S
C1236 C1235 1.410 . S
C1236 C1237 1.392 . S
C1236 C1239 1.511 . S
C1237 C1233 1.376 . S
C1237 C1236 1.392 . S
C1237 H1249 0.929 . S
C1238 C1234 1.531 . S
C1238 H1250 0.960 . S
C1238 H1251 0.962 . S
C1238 H1252 0.960 . S
C1239 C1236 1.511 . S
C1239 H1253 0.961 . S
C1239 H1254 0.961 . S
C1239 H1255 0.961 . S
C1240 C1241 1.370 . S
C1240 C1242 1.363 . S
C1240 H1256 0.931 . S
C1241 C1240 1.370 . S
C1241 C1245 1.408 . S
C1242 C1240 1.363 . S
C1242 C1243 1.370 . S
C1242 C1246 1.524 . S
C1243 C1235 1.503 . S
C1243 C1242 1.370 . S
C1243 C1244 1.403 . S
C1244 C1243 1.403 . S
C1244 C1245 1.404 . S
C1244 C1247 1.539 . S
C1245 C1241 1.408 . S
C1245 C1244 1.404 . S
C1245 H1257 0.930 . S
C1246 C1242 1.524 . S
C1246 H1258 0.956 . S
C1246 H1259 0.961 . S
C1246 H1260 0.961 . S
C1247 C1244 1.539 . S
C1247 H1261 0.958 . S
C1247 H1262 0.961 . S
C1247 H1263 0.960 . S
H1248 C1232 0.931 . S
H1249 C1237 0.929 . S
H1250 C1238 0.960 . S
H1251 C1238 0.962 . S
H1252 C1238 0.960 . S
H1253 C1239 0.961 . S
H1254 C1239 0.961 . S
H1255 C1239 0.961 . S
H1256 C1240 0.931 . S
H1257 C1245 0.930 . S
H1258 C1246 0.956 . S
H1259 C1246 0.961 . S
H1260 C1246 0.961 . S
H1261 C1247 0.958 . S
H1262 C1247 0.961 . S
H1263 C1247 0.960 . S
C1264 C1265 1.391 . S
C1264 C1266 1.394 . S
C1264 H1280 0.931 . S
C1265 C1264 1.391 . S
C1265 C1269 1.376 . S
C1266 C1264 1.394 . S
C1266 C1267 1.369 . S
C1266 C1270 1.531 . S
C1267 C1266 1.369 . S
C1267 C1268 1.410 . S
C1267 C1275 1.503 . S
C1268 C1267 1.410 . S
C1268 C1269 1.392 . S
C1268 C1271 1.511 . S
C1269 C1265 1.376 . S
C1269 C1268 1.392 . S
C1269 H1281 0.929 . S
C1270 C1266 1.531 . S
C1270 H1282 0.960 . S
C1270 H1283 0.962 . S
C1270 H1284 0.960 . S
C1271 C1268 1.511 . S
C1271 H1285 0.961 . S
C1271 H1286 0.961 . S
C1271 H1287 0.961 . S
C1272 C1273 1.370 . S
C1272 C1274 1.363 . S
C1272 H1288 0.931 . S
C1273 C1272 1.370 . S
C1273 C1277 1.408 . S
C1274 C1272 1.363 . S
C1274 C1275 1.370 . S
C1274 C1278 1.524 . S
C1275 C1267 1.503 . S
C1275 C1274 1.370 . S
C1275 C1276 1.403 . S
C1276 C1275 1.403 . S
C1276 C1277 1.404 . S
C1276 C1279 1.539 . S
C1277 C1273 1.408 . S
C1277 C1276 1.404 . S
C1277 H1289 0.930 . S
C1278 C1274 1.524 . S
C1278 H1290 0.956 . S
C1278 H1291 0.961 . S
C1278 H1292 0.961 . S
C1279 C1276 1.539 . S
C1279 H1293 0.958 . S
C1279 H1294 0.961 . S
C1279 H1295 0.960 . S
H1280 C1264 0.931 . S
H1281 C1269 0.929 . S
H1282 C1270 0.960 . S
H1283 C1270 0.962 . S
H1284 C1270 0.960 . S
H1285 C1271 0.961 . S
H1286 C1271 0.961 . S
H1287 C1271 0.961 . S
H1288 C1272 0.931 . S
H1289 C1277 0.930 . S
H1290 C1278 0.956 . S
H1291 C1278 0.961 . S
H1292 C1278 0.961 . S
H1293 C1279 0.958 . S
H1294 C1279 0.961 . S
H1295 C1279 0.960 . S
C1296 C1297 1.391 . S
C1296 C1298 1.394 1_545 S
C1296 H1312 0.931 . S
C1297 C1296 1.391 . S
C1297 C1301 1.376 1_545 S
C1298 C1296 1.394 1_565 S
C1298 C1299 1.369 . S
C1298 C1302 1.531 . S
C1299 C1298 1.369 . S
C1299 C1300 1.410 . S
C1299 C1307 1.503 . S
C1300 C1299 1.410 . S
C1300 C1301 1.392 . S
C1300 C1303 1.511 . S
C1301 C1297 1.376 1_565 S
C1301 C1300 1.392 . S
C1301 H1313 0.929 . S
C1302 C1298 1.531 . S
C1302 H1314 0.960 . S
C1302 H1315 0.962 . S
C1302 H1316 0.960 . S
C1303 C1300 1.511 . S
C1303 H1317 0.961 . S
C1303 H1318 0.961 . S
C1303 H1319 0.961 . S
C1304 C1305 1.370 . S
C1304 C1306 1.363 . S
C1304 H1320 0.931 . S
C1305 C1304 1.370 . S
C1305 C1309 1.408 . S
C1306 C1304 1.363 . S
C1306 C1307 1.370 . S
C1306 C1310 1.524 . S
C1307 C1299 1.503 . S
C1307 C1306 1.370 . S
C1307 C1308 1.403 . S
C1308 C1307 1.403 . S
C1308 C1309 1.404 . S
C1308 C1311 1.539 . S
C1309 C1305 1.408 . S
C1309 C1308 1.404 . S
C1309 H1321 0.930 . S
C1310 C1306 1.524 . S
C1310 H1322 0.956 . S
C1310 H1323 0.961 . S
C1310 H1324 0.961 . S
C1311 C1308 1.539 . S
C1311 H1325 0.958 . S
C1311 H1326 0.961 . S
C1311 H1327 0.960 . S
H1312 C1296 0.931 . S
H1313 C1301 0.929 . S
H1314 C1302 0.960 . S
H1315 C1302 0.962 . S
H1316 C1302 0.960 . S
H1317 C1303 0.961 . S
H1318 C1303 0.961 . S
H1319 C1303 0.961 . S
H1320 C1304 0.931 . S
H1321 C1309 0.930 . S
H1322 C1310 0.956 . S
H1323 C1310 0.961 . S
H1324 C1310 0.961 . S
H1325 C1311 0.958 . S
H1326 C1311 0.961 . S
H1327 C1311 0.960 . S
C1328 C1329 1.391 . S
C1328 C1330 1.394 . S
C1328 H1344 0.931 . S
C1329 C1328 1.391 . S
C1329 C1333 1.376 . S
C1330 C1328 1.394 . S
C1330 C1331 1.369 . S
C1330 C1334 1.531 . S
C1331 C1330 1.369 . S
C1331 C1332 1.410 . S
C1331 C1339 1.503 . S
C1332 C1331 1.410 . S
C1332 C1333 1.392 . S
C1332 C1335 1.511 . S
C1333 C1329 1.376 . S
C1333 C1332 1.392 . S
C1333 H1345 0.929 . S
C1334 C1330 1.531 . S
C1334 H1346 0.960 . S
C1334 H1347 0.962 . S
C1334 H1348 0.960 . S
C1335 C1332 1.511 . S
C1335 H1349 0.961 . S
C1335 H1350 0.961 . S
C1335 H1351 0.961 . S
C1336 C1337 1.370 1_655 S
C1336 C1338 1.363 . S
C1336 H1352 0.931 . S
C1337 C1336 1.370 1_455 S
C1337 C1341 1.408 . S
C1338 C1336 1.363 . S
C1338 C1339 1.370 . S
C1338 C1342 1.524 . S
C1339 C1331 1.503 . S
C1339 C1338 1.370 . S
C1339 C1340 1.403 . S
C1340 C1339 1.403 . S
C1340 C1341 1.404 1_655 S
C1340 C1343 1.539 . S
C1341 C1337 1.408 . S
C1341 C1340 1.404 1_455 S
C1341 H1353 0.930 . S
C1342 C1338 1.524 . S
C1342 H1354 0.956 . S
C1342 H1355 0.961 . S
C1342 H1356 0.961 . S
C1343 C1340 1.539 . S
C1343 H1357 0.958 . S
C1343 H1358 0.959 1_655 S
C1343 H1359 0.960 . S
H1344 C1328 0.931 . S
H1345 C1333 0.929 . S
H1346 C1334 0.960 . S
H1347 C1334 0.962 . S
H1348 C1334 0.960 . S
H1349 C1335 0.961 . S
H1350 C1335 0.961 . S
H1351 C1335 0.961 . S
H1352 C1336 0.931 . S
H1353 C1341 0.930 . S
H1354 C1342 0.956 . S
H1355 C1342 0.961 . S
H1356 C1342 0.961 . S
H1357 C1343 0.958 . S
H1358 C1343 0.959 1_455 S
H1359 C1343 0.960 . S
C1360 C1361 1.391 . S
C1360 C1362 1.394 1_565 S
C1360 H1376 0.931 . S
C1361 C1360 1.391 . S
C1361 C1365 1.376 1_565 S
C1362 C1360 1.394 1_545 S
C1362 C1363 1.369 . S
C1362 C1366 1.531 . S
C1363 C1362 1.369 . S
C1363 C1364 1.410 . S
C1363 C1371 1.503 . S
C1364 C1363 1.410 . S
C1364 C1365 1.392 . S
C1364 C1367 1.511 . S
C1365 C1361 1.376 1_545 S
C1365 C1364 1.392 . S
C1365 H1377 0.929 . S
C1366 C1362 1.531 . S
C1366 H1378 0.960 . S
C1366 H1379 0.962 . S
C1366 H1380 0.960 . S
C1367 C1364 1.511 . S
C1367 H1381 0.961 . S
C1367 H1382 0.961 . S
C1367 H1383 0.961 . S
C1368 C1369 1.370 . S
C1368 C1370 1.363 . S
C1368 H1384 0.931 . S
C1369 C1368 1.370 . S
C1369 C1373 1.408 . S
C1370 C1368 1.363 . S
C1370 C1371 1.370 . S
C1370 C1374 1.524 . S
C1371 C1363 1.503 . S
C1371 C1370 1.370 . S
C1371 C1372 1.403 . S
C1372 C1371 1.403 . S
C1372 C1373 1.404 . S
C1372 C1375 1.539 . S
C1373 C1369 1.408 . S
C1373 C1372 1.404 . S
C1373 H1385 0.930 . S
C1374 C1370 1.524 . S
C1374 H1386 0.956 . S
C1374 H1387 0.961 . S
C1374 H1388 0.961 . S
C1375 C1372 1.539 . S
C1375 H1389 0.958 . S
C1375 H1390 0.961 . S
C1375 H1391 0.960 . S
H1376 C1360 0.931 . S
H1377 C1365 0.929 . S
H1378 C1366 0.960 . S
H1379 C1366 0.962 . S
H1380 C1366 0.960 . S
H1381 C1367 0.961 . S
H1382 C1367 0.961 . S
H1383 C1367 0.961 . S
H1384 C1368 0.931 . S
H1385 C1373 0.930 . S
H1386 C1374 0.956 . S
H1387 C1374 0.961 . S
H1388 C1374 0.961 . S
H1389 C1375 0.958 . S
H1390 C1375 0.961 . S
H1391 C1375 0.960 . S
C1392 C1393 1.391 . S
C1392 C1394 1.394 . S
C1392 H1408 0.931 . S
C1393 C1392 1.391 . S
C1393 C1397 1.376 . S
C1394 C1392 1.394 . S
C1394 C1395 1.369 . S
C1394 C1398 1.531 . S
C1395 C1394 1.369 . S
C1395 C1396 1.410 . S
C1395 C1403 1.503 . S
C1396 C1395 1.410 . S
C1396 C1397 1.392 . S
C1396 C1399 1.511 . S
C1397 C1393 1.376 . S
C1397 C1396 1.392 . S
C1397 H1409 0.929 . S
C1398 C1394 1.531 . S
C1398 H1410 0.960 . S
C1398 H1411 0.962 . S
C1398 H1412 0.960 . S
C1399 C1396 1.511 . S
C1399 H1413 0.961 . S
C1399 H1414 0.961 . S
C1399 H1415 0.961 . S
C1400 C1401 1.367 1_455 S
C1400 C1402 1.392 . S
C1400 H1416 0.905 1_455 S
C1401 C1400 1.367 1_655 S
C1401 C1405 1.408 1_655 S
C1402 C1400 1.392 . S
C1402 C1403 1.370 . S
C1402 C1406 1.524 . S
C1403 C1395 1.503 . S
C1403 C1402 1.370 . S
C1403 C1404 1.403 . S
C1404 C1403 1.403 . S
C1404 C1405 1.404 . S
C1404 C1407 1.539 . S
C1405 C1401 1.408 1_455 S
C1405 C1404 1.404 . S
C1405 H1417 0.930 . S
C1406 C1402 1.524 . S
C1406 H1418 0.956 . S
C1406 H1419 0.961 . S
C1406 H1420 0.961 . S
C1407 C1404 1.539 . S
C1407 H1421 0.958 . S
C1407 H1422 0.961 . S
C1407 H1423 0.960 . S
H1408 C1392 0.931 . S
H1409 C1397 0.929 . S
H1410 C1398 0.960 . S
H1411 C1398 0.962 . S
H1412 C1398 0.960 . S
H1413 C1399 0.961 . S
H1414 C1399 0.961 . S
H1415 C1399 0.961 . S
H1416 C1400 0.905 1_655 S
H1417 C1405 0.930 . S
H1418 C1406 0.956 . S
H1419 C1406 0.961 . S
H1420 C1406 0.961 . S
H1421 C1407 0.958 . S
H1422 C1407 0.961 . S
H1423 C1407 0.960 . S
C1424 C1425 1.391 . S
C1424 C1426 1.394 . S
C1424 H1440 0.931 . S
C1425 C1424 1.391 . S
C1425 C1429 1.376 . S
C1426 C1424 1.394 . S
C1426 C1427 1.369 . S
C1426 C1430 1.531 . S
C1427 C1426 1.369 . S
C1427 C1428 1.410 1_556 S
C1427 C1435 1.500 1_556 S
C1428 C1427 1.410 1_554 S
C1428 C1429 1.392 1_554 S
C1428 C1431 1.511 . S
C1429 C1425 1.376 . S
C1429 C1428 1.392 1_556 S
C1429 H1441 0.929 1_556 S
C1430 C1426 1.531 . S
C1430 H1442 0.960 . S
C1430 H1443 0.962 . S
C1430 H1444 0.960 . S
C1431 C1428 1.511 . S
C1431 H1445 0.961 . S
C1431 H1446 0.961 . S
C1431 H1447 0.961 . S
C1432 C1433 1.384 . S
C1432 C1434 1.357 1_554 S
C1432 H1448 0.924 1_554 S
C1433 C1432 1.384 . S
C1433 C1437 1.408 . S
C1434 C1432 1.357 1_556 S
C1434 C1435 1.367 1_556 S
C1434 C1438 1.524 . S
C1435 C1427 1.500 1_554 S
C1435 C1434 1.367 1_554 S
C1435 C1436 1.409 . S
C1436 C1435 1.409 . S
C1436 C1437 1.404 . S
C1436 C1439 1.539 . S
C1437 C1433 1.408 . S
C1437 C1436 1.404 . S
C1437 H1449 0.930 . S
C1438 C1434 1.524 . S
C1438 H1450 0.956 . S
C1438 H1451 0.961 . S
C1438 H1452 0.961 . S
C1439 C1436 1.539 . S
C1439 H1453 0.958 . S
C1439 H1454 0.961 . S
C1439 H1455 0.960 . S
H1440 C1424 0.931 . S
H1441 C1429 0.929 1_554 S
H1442 C1430 0.960 . S
H1443 C1430 0.962 . S
H1444 C1430 0.960 . S
H1445 C1431 0.961 . S
H1446 C1431 0.961 . S
H1447 C1431 0.961 . S
H1448 C1432 0.924 1_556 S
H1449 C1437 0.930 . S
H1450 C1438 0.956 . S
H1451 C1438 0.961 . S
H1452 C1438 0.961 . S
H1453 C1439 0.958 . S
H1454 C1439 0.961 . S
H1455 C1439 0.960 . S
C1456 C1457 1.391 . S
C1456 C1458 1.394 1_554 S
C1456 H1472 0.931 1_554 S
C1457 C1456 1.391 . S
C1457 C1461 1.376 . S
C1458 C1456 1.394 1_556 S
C1458 C1459 1.369 1_556 S
C1458 C1462 1.531 . S
C1459 C1458 1.369 1_554 S
C1459 C1460 1.410 . S
C1459 C1467 1.503 . S
C1460 C1459 1.410 . S
C1460 C1461 1.392 . S
C1460 C1463 1.511 . S
C1461 C1457 1.376 . S
C1461 C1460 1.392 . S
C1461 H1473 0.929 . S
C1462 C1458 1.531 . S
C1462 H1474 0.960 . S
C1462 H1475 0.962 . S
C1462 H1476 0.960 . S
C1463 C1460 1.511 . S
C1463 H1477 0.961 . S
C1463 H1478 0.961 . S
C1463 H1479 0.961 . S
C1464 C1465 1.370 . S
C1464 C1466 1.363 . S
C1464 H1480 0.931 . S
C1465 C1464 1.370 . S
C1465 C1469 1.408 . S
C1466 C1464 1.363 . S
C1466 C1467 1.370 1_556 S
C1466 C1470 1.524 1_556 S
C1467 C1459 1.503 . S
C1467 C1466 1.370 1_554 S
C1467 C1468 1.403 1_554 S
C1468 C1467 1.403 1_556 S
C1468 C1469 1.404 . S
C1468 C1471 1.539 1_556 S
C1469 C1465 1.408 . S
C1469 C1468 1.404 . S
C1469 H1481 0.930 . S
C1470 C1466 1.524 1_554 S
C1470 H1482 0.956 1_554 S
C1470 H1483 0.961 . S
C1470 H1484 0.961 . S
C1471 C1468 1.539 1_554 S
C1471 H1485 0.958 1_554 S
C1471 H1486 0.961 . S
C1471 H1487 0.960 . S
H1472 C1456 0.931 1_556 S
H1473 C1461 0.929 . S
H1474 C1462 0.960 . S
H1475 C1462 0.962 . S
H1476 C1462 0.960 . S
H1477 C1463 0.961 . S
H1478 C1463 0.961 . S
H1479 C1463 0.961 . S
H1480 C1464 0.931 . S
H1481 C1469 0.930 . S
H1482 C1470 0.956 1_556 S
H1483 C1470 0.961 . S
H1484 C1470 0.961 . S
H1485 C1471 0.958 1_556 S
H1486 C1471 0.961 . S
H1487 C1471 0.960 . S
C1488 C1489 1.391 . S
C1488 C1490 1.394 . S
C1488 H1504 0.931 . S
C1489 C1488 1.391 . S
C1489 C1493 1.376 . S
C1490 C1488 1.394 . S
C1490 C1491 1.369 . S
C1490 C1494 1.531 . S
C1491 C1490 1.369 . S
C1491 C1492 1.410 . S
C1491 C1499 1.503 1_554 S
C1492 C1491 1.410 . S
C1492 C1493 1.392 . S
C1492 C1495 1.511 . S
C1493 C1489 1.376 . S
C1493 C1492 1.392 . S
C1493 H1505 0.929 . S
C1494 C1490 1.531 . S
C1494 H1506 0.960 . S
C1494 H1507 0.962 1_554 S
C1494 H1508 0.960 . S
C1495 C1492 1.511 . S
C1495 H1509 0.961 . S
C1495 H1510 0.961 1_554 S
C1495 H1511 0.961 . S
C1496 C1497 1.370 . S
C1496 C1498 1.363 . S
C1496 H1512 0.931 . S
C1497 C1496 1.370 . S
C1497 C1501 1.408 . S
C1498 C1496 1.363 . S
C1498 C1499 1.370 . S
C1498 C1502 1.524 . S
C1499 C1491 1.503 1_556 S
C1499 C1498 1.370 . S
C1499 C1500 1.403 1_556 S
C1500 C1499 1.403 1_554 S
C1500 C1501 1.404 1_554 S
C1500 C1503 1.539 . S
C1501 C1497 1.408 . S
C1501 C1500 1.404 1_556 S
C1501 H1513 0.930 1_556 S
C1502 C1498 1.524 . S
C1502 H1514 0.956 . S
C1502 H1515 0.961 . S
C1502 H1516 0.961 . S
C1503 C1500 1.539 . S
C1503 H1517 0.958 . S
C1503 H1518 0.961 . S
C1503 H1519 0.960 . S
H1504 C1488 0.931 . S
H1505 C1493 0.929 . S
H1506 C1494 0.960 . S
H1507 C1494 0.962 1_556 S
H1508 C1494 0.960 . S
H1509 C1495 0.961 . S
H1510 C1495 0.961 1_556 S
H1511 C1495 0.961 . S
H1512 C1496 0.931 . S
H1513 C1501 0.930 1_554 S
H1514 C1502 0.956 . S
H1515 C1502 0.961 . S
H1516 C1502 0.961 . S
H1517 C1503 0.958 . S
H1518 C1503 0.961 . S
H1519 C1503 0.960 . S
C1520 C1521 1.391 . S
C1520 C1522 1.394 . S
C1520 H1536 0.931 . S
C1521 C1520 1.391 . S
C1521 C1525 1.376 . S
C1522 C1520 1.394 . S
C1522 C1523 1.369 . S
C1522 C1526 1.531 . S
C1523 C1522 1.369 . S
C1523 C1524 1.410 1_554 S
C1523 C1531 1.503 . S
C1524 C1523 1.410 1_556 S
C1524 C1525 1.392 1_556 S
C1524 C1527 1.511 . S
C1525 C1521 1.376 . S
C1525 C1524 1.392 1_554 S
C1525 H1537 0.929 1_554 S
C1526 C1522 1.531 . S
C1526 H1538 0.960 . S
C1526 H1539 0.962 . S
C1526 H1540 0.960 . S
C1527 C1524 1.511 . S
C1527 H1541 0.961 . S
C1527 H1542 0.961 . S
C1527 H1543 0.961 . S
C1528 C1529 1.370 . S
C1528 C1530 1.363 1_556 S
C1528 H1544 0.931 . S
C1529 C1528 1.370 . S
C1529 C1533 1.408 . S
C1530 C1528 1.363 1_554 S
C1530 C1531 1.370 . S
C1530 C1534 1.524 . S
C1531 C1523 1.503 . S
C1531 C1530 1.370 . S
C1531 C1532 1.403 1_554 S
C1532 C1531 1.403 1_556 S
C1532 C1533 1.404 . S
C1532 C1535 1.539 . S
C1533 C1529 1.408 . S
C1533 C1532 1.404 . S
C1533 H1545 0.930 . S
C1534 C1530 1.524 . S
C1534 H1546 0.956 . S
C1534 H1547 0.961 . S
C1534 H1548 0.961 . S
C1535 C1532 1.539 . S
C1535 H1549 0.958 . S
C1535 H1550 0.961 . S
C1535 H1551 0.960 . S
H1536 C1520 0.931 . S
H1537 C1525 0.929 1_556 S
H1538 C1526 0.960 . S
H1539 C1526 0.962 . S
H1540 C1526 0.960 . S
H1541 C1527 0.961 . S
H1542 C1527 0.961 . S
H1543 C1527 0.961 . S
H1544 C1528 0.931 . S
H1545 C1533 0.930 . S
H1546 C1534 0.956 . S
H1547 C1534 0.961 . S
H1548 C1534 0.961 . S
H1549 C1535 0.958 . S
H1550 C1535 0.961 . S
H1551 C1535 0.960 . S
C1552 C1553 1.391 . S
C1552 C1554 1.394 . S
C1552 H1568 0.931 . S
C1553 C1552 1.391 . S
C1553 C1557 1.376 . S
C1554 C1552 1.394 . S
C1554 C1555 1.369 . S
C1554 C1558 1.531 . S
C1555 C1554 1.369 . S
C1555 C1556 1.410 . S
C1555 C1563 1.503 . S
C1556 C1555 1.410 . S
C1556 C1557 1.392 . S
C1556 C1559 1.511 . S
C1557 C1553 1.376 . S
C1557 C1556 1.392 . S
C1557 H1569 0.929 . S
C1558 C1554 1.531 . S
C1558 H1570 0.960 . S
C1558 H1571 0.962 . S
C1558 H1572 0.960 . S
C1559 C1556 1.511 . S
C1559 H1573 0.961 . S
C1559 H1574 0.961 . S
C1559 H1575 0.961 . S
C1560 C1561 1.370 . S
C1560 C1562 1.363 . S
C1560 H1576 0.931 . S
C1561 C1560 1.370 . S
C1561 C1565 1.408 . S
C1562 C1560 1.363 . S
C1562 C1563 1.370 . S
C1562 C1566 1.524 . S
C1563 C1555 1.503 . S
C1563 C1562 1.370 . S
C1563 C1564 1.403 . S
C1564 C1563 1.403 . S
C1564 C1565 1.404 . S
C1564 C1567 1.539 . S
C1565 C1561 1.408 . S
C1565 C1564 1.404 . S
C1565 H1577 0.930 . S
C1566 C1562 1.524 . S
C1566 H1578 0.956 . S
C1566 H1579 0.961 . S
C1566 H1580 0.961 . S
C1567 C1564 1.539 . S
C1567 H1581 0.958 . S
C1567 H1582 0.961 . S
C1567 H1583 0.960 . S
H1568 C1552 0.931 . S
H1569 C1557 0.929 . S
H1570 C1558 0.960 . S
H1571 C1558 0.962 . S
H1572 C1558 0.960 . S
H1573 C1559 0.961 . S
H1574 C1559 0.961 . S
H1575 C1559 0.961 . S
H1576 C1560 0.931 . S
H1577 C1565 0.930 . S
H1578 C1566 0.956 . S
H1579 C1566 0.961 . S
H1580 C1566 0.961 . S
H1581 C1567 0.958 . S
H1582 C1567 0.961 . S
H1583 C1567 0.960 . S
C1584 C1585 1.391 . S
C1584 C1586 1.394 . S
C1584 H1600 0.931 . S
C1585 C1584 1.391 . S
C1585 C1589 1.376 . S
C1586 C1584 1.394 . S
C1586 C1587 1.369 . S
C1586 C1590 1.531 . S
C1587 C1586 1.369 . S
C1587 C1588 1.410 . S
C1587 C1595 1.503 . S
C1588 C1587 1.410 . S
C1588 C1589 1.392 . S
C1588 C1591 1.511 . S
C1589 C1585 1.376 . S
C1589 C1588 1.392 . S
C1589 H1601 0.929 . S
C1590 C1586 1.531 . S
C1590 H1602 0.960 . S
C1590 H1603 0.962 . S
C1590 H1604 0.960 . S
C1591 C1588 1.511 . S
C1591 H1605 0.961 . S
C1591 H1606 0.961 . S
C1591 H1607 0.961 . S
C1592 C1593 1.370 . S
C1592 C1594 1.363 . S
C1592 H1608 0.931 . S
C1593 C1592 1.370 . S
C1593 C1597 1.408 . S
C1594 C1592 1.363 . S
C1594 C1595 1.370 . S
C1594 C1598 1.524 . S
C1595 C1587 1.503 . S
C1595 C1594 1.370 . S
C1595 C1596 1.403 . S
C1596 C1595 1.403 . S
C1596 C1597 1.404 . S
C1596 C1599 1.539 . S
C1597 C1593 1.408 . S
C1597 C1596 1.404 . S
C1597 H1609 0.930 . S
C1598 C1594 1.524 . S
C1598 H1610 0.956 . S
C1598 H1611 0.961 . S
C1598 H1612 0.961 . S
C1599 C1596 1.539 . S
C1599 H1613 0.958 . S
C1599 H1614 0.961 . S
C1599 H1615 0.960 . S
H1600 C1584 0.931 . S
H1601 C1589 0.929 . S
H1602 C1590 0.960 . S
H1603 C1590 0.962 . S
H1604 C1590 0.960 . S
H1605 C1591 0.961 . S
H1606 C1591 0.961 . S
H1607 C1591 0.961 . S
H1608 C1592 0.931 . S
H1609 C1597 0.930 . S
H1610 C1598 0.956 . S
H1611 C1598 0.961 . S
H1612 C1598 0.961 . S
H1613 C1599 0.958 . S
H1614 C1599 0.961 . S
H1615 C1599 0.960 . S
C1616 C1617 1.391 . S
C1616 C1618 1.394 . S
C1616 H1632 0.931 . S
C1617 C1616 1.391 . S
C1617 C1621 1.376 . S
C1618 C1616 1.394 . S
C1618 C1619 1.369 . S
C1618 C1622 1.531 . S
C1619 C1618 1.369 . S
C1619 C1620 1.410 . S
C1619 C1627 1.503 . S
C1620 C1619 1.410 . S
C1620 C1621 1.392 . S
C1620 C1623 1.511 . S
C1621 C1617 1.376 . S
C1621 C1620 1.392 . S
C1621 H1633 0.929 . S
C1622 C1618 1.531 . S
C1622 H1634 0.960 . S
C1622 H1635 0.962 . S
C1622 H1636 0.960 . S
C1623 C1620 1.511 . S
C1623 H1637 0.961 . S
C1623 H1638 0.961 . S
C1623 H1639 0.961 . S
C1624 C1625 1.370 . S
C1624 C1626 1.363 . S
C1624 H1640 0.931 . S
C1625 C1624 1.370 . S
C1625 C1629 1.408 . S
C1626 C1624 1.363 . S
C1626 C1627 1.370 . S
C1626 C1630 1.524 . S
C1627 C1619 1.503 . S
C1627 C1626 1.370 . S
C1627 C1628 1.403 . S
C1628 C1627 1.403 . S
C1628 C1629 1.404 . S
C1628 C1631 1.539 . S
C1629 C1625 1.408 . S
C1629 C1628 1.404 . S
C1629 H1641 0.930 . S
C1630 C1626 1.524 . S
C1630 H1642 0.956 . S
C1630 H1643 0.961 . S
C1630 H1644 0.961 . S
C1631 C1628 1.539 . S
C1631 H1645 0.958 . S
C1631 H1646 0.961 . S
C1631 H1647 0.960 . S
H1632 C1616 0.931 . S
H1633 C1621 0.929 . S
H1634 C1622 0.960 . S
H1635 C1622 0.962 . S
H1636 C1622 0.960 . S
H1637 C1623 0.961 . S
H1638 C1623 0.961 . S
H1639 C1623 0.961 . S
H1640 C1624 0.931 . S
H1641 C1629 0.930 . S
H1642 C1630 0.956 . S
H1643 C1630 0.961 . S
H1644 C1630 0.961 . S
H1645 C1631 0.958 . S
H1646 C1631 0.961 . S
H1647 C1631 0.960 . S
C1648 C1649 1.391 . S
C1648 C1650 1.394 . S
C1648 H1664 0.931 . S
C1649 C1648 1.391 . S
C1649 C1653 1.376 . S
C1650 C1648 1.394 . S
C1650 C1651 1.369 . S
C1650 C1654 1.531 . S
C1651 C1650 1.369 . S
C1651 C1652 1.410 . S
C1651 C1659 1.503 . S
C1652 C1651 1.410 . S
C1652 C1653 1.392 . S
C1652 C1655 1.511 . S
C1653 C1649 1.376 . S
C1653 C1652 1.392 . S
C1653 H1665 0.929 . S
C1654 C1650 1.531 . S
C1654 H1666 0.960 . S
C1654 H1667 0.962 . S
C1654 H1668 0.960 . S
C1655 C1652 1.511 . S
C1655 H1669 0.961 . S
C1655 H1670 0.961 . S
C1655 H1671 0.961 . S
C1656 C1657 1.370 . S
C1656 C1658 1.363 . S
C1656 H1672 0.931 . S
C1657 C1656 1.370 . S
C1657 C1661 1.408 . S
C1658 C1656 1.363 . S
C1658 C1659 1.370 . S
C1658 C1662 1.524 . S
C1659 C1651 1.503 . S
C1659 C1658 1.370 . S
C1659 C1660 1.403 . S
C1660 C1659 1.403 . S
C1660 C1661 1.404 . S
C1660 C1663 1.539 . S
C1661 C1657 1.408 . S
C1661 C1660 1.404 . S
C1661 H1673 0.930 . S
C1662 C1658 1.524 . S
C1662 H1674 0.956 . S
C1662 H1675 0.961 . S
C1662 H1676 0.961 . S
C1663 C1660 1.539 . S
C1663 H1677 0.958 . S
C1663 H1678 0.961 . S
C1663 H1679 0.960 . S
H1664 C1648 0.931 . S
H1665 C1653 0.929 . S
H1666 C1654 0.960 . S
H1667 C1654 0.962 . S
H1668 C1654 0.960 . S
H1669 C1655 0.961 . S
H1670 C1655 0.961 . S
H1671 C1655 0.961 . S
H1672 C1656 0.931 . S
H1673 C1661 0.930 . S
H1674 C1662 0.956 . S
H1675 C1662 0.961 . S
H1676 C1662 0.961 . S
H1677 C1663 0.958 . S
H1678 C1663 0.961 . S
H1679 C1663 0.960 . S
C1680 C1681 1.391 . S
C1680 C1682 1.394 . S
C1680 H1696 0.931 . S
C1681 C1680 1.391 . S
C1681 C1685 1.376 . S
C1682 C1680 1.394 . S
C1682 C1683 1.369 . S
C1682 C1686 1.531 . S
C1683 C1682 1.369 . S
C1683 C1684 1.410 . S
C1683 C1691 1.503 . S
C1684 C1683 1.410 . S
C1684 C1685 1.392 . S
C1684 C1687 1.511 . S
C1685 C1681 1.376 . S
C1685 C1684 1.392 . S
C1685 H1697 0.929 . S
C1686 C1682 1.531 . S
C1686 H1698 0.960 . S
C1686 H1699 0.962 . S
C1686 H1700 0.960 . S
C1687 C1684 1.511 . S
C1687 H1701 0.961 . S
C1687 H1702 0.961 . S
C1687 H1703 0.961 . S
C1688 C1689 1.370 1_545 S
C1688 C1690 1.363 . S
C1688 H1704 0.931 . S
C1689 C1688 1.370 1_565 S
C1689 C1693 1.407 1_565 S
C1690 C1688 1.363 . S
C1690 C1691 1.370 . S
C1690 C1694 1.524 . S
C1691 C1683 1.503 . S
C1691 C1690 1.370 . S
C1691 C1692 1.403 . S
C1692 C1691 1.403 . S
C1692 C1693 1.415 . S
C1692 C1695 1.539 . S
C1693 C1689 1.407 1_545 S
C1693 C1692 1.415 . S
C1693 H1705 0.920 1_545 S
C1694 C1690 1.524 . S
C1694 H1706 0.956 . S
C1694 H1707 0.961 . S
C1694 H1708 0.961 . S
C1695 C1692 1.539 . S
C1695 H1709 0.958 . S
C1695 H1710 0.961 . S
C1695 H1711 0.960 . S
H1696 C1680 0.931 . S
H1697 C1685 0.929 . S
H1698 C1686 0.960 . S
H1699 C1686 0.962 . S
H1700 C1686 0.960 . S
H1701 C1687 0.961 . S
H1702 C1687 0.961 . S
H1703 C1687 0.961 . S
H1704 C1688 0.931 . S
H1705 C1693 0.920 1_565 S
H1706 C1694 0.956 . S
H1707 C1694 0.961 . S
H1708 C1694 0.961 . S
H1709 C1695 0.958 . S
H1710 C1695 0.961 . S
H1711 C1695 0.960 . S
C1712 C1713 1.391 . S
C1712 C1714 1.394 . S
C1712 H1728 0.931 . S
C1713 C1712 1.391 . S
C1713 C1717 1.376 . S
C1714 C1712 1.394 . S
C1714 C1715 1.369 . S
C1714 C1718 1.531 . S
C1715 C1714 1.369 . S
C1715 C1716 1.410 . S
C1715 C1723 1.503 . S
C1716 C1715 1.410 . S
C1716 C1717 1.392 . S
C1716 C1719 1.511 . S
C1717 C1713 1.376 . S
C1717 C1716 1.392 . S
C1717 H1729 0.929 . S
C1718 C1714 1.531 . S
C1718 H1730 0.960 . S
C1718 H1731 0.962 . S
C1718 H1732 0.960 . S
C1719 C1716 1.511 . S
C1719 H1733 0.961 . S
C1719 H1734 0.961 . S
C1719 H1735 0.961 . S
C1720 C1721 1.370 1_455 S
C1720 C1722 1.363 . S
C1720 H1736 0.931 . S
C1721 C1720 1.370 1_655 S
C1721 C1725 1.408 1_655 S
C1722 C1720 1.363 . S
C1722 C1723 1.370 . S
C1722 C1726 1.524 . S
C1723 C1715 1.503 . S
C1723 C1722 1.370 . S
C1723 C1724 1.403 . S
C1724 C1723 1.403 . S
C1724 C1725 1.404 . S
C1724 C1727 1.539 . S
C1725 C1721 1.408 1_455 S
C1725 C1724 1.404 . S
C1725 H1737 0.923 1_455 S
C1726 C1722 1.524 . S
C1726 H1738 0.956 . S
C1726 H1739 0.961 . S
C1726 H1740 0.961 . S
C1727 C1724 1.539 . S
C1727 H1741 0.958 . S
C1727 H1742 0.961 . S
C1727 H1743 0.960 . S
H1728 C1712 0.931 . S
H1729 C1717 0.929 . S
H1730 C1718 0.960 . S
H1731 C1718 0.962 . S
H1732 C1718 0.960 . S
H1733 C1719 0.961 . S
H1734 C1719 0.961 . S
H1735 C1719 0.961 . S
H1736 C1720 0.931 . S
H1737 C1725 0.923 1_655 S
H1738 C1726 0.956 . S
H1739 C1726 0.961 . S
H1740 C1726 0.961 . S
H1741 C1727 0.958 . S
H1742 C1727 0.961 . S
H1743 C1727 0.960 . S
C1744 C1745 1.391 . S
C1744 C1746 1.394 . S
C1744 H1760 0.931 . S
C1745 C1744 1.391 . S
C1745 C1749 1.376 . S
C1746 C1744 1.394 . S
C1746 C1747 1.369 . S
C1746 C1750 1.531 . S
C1747 C1746 1.369 . S
C1747 C1748 1.410 . S
C1747 C1755 1.503 . S
C1748 C1747 1.410 . S
C1748 C1749 1.392 . S
C1748 C1751 1.511 . S
C1749 C1745 1.376 . S
C1749 C1748 1.392 . S
C1749 H1761 0.929 . S
C1750 C1746 1.531 . S
C1750 H1762 0.960 . S
C1750 H1763 0.962 . S
C1750 H1764 0.960 . S
C1751 C1748 1.511 . S
C1751 H1765 0.961 . S
C1751 H1766 0.961 . S
C1751 H1767 0.961 . S
C1752 C1753 1.370 1_565 S
C1752 C1754 1.363 . S
C1752 H1768 0.931 1_565 S
C1753 C1752 1.370 1_545 S
C1753 C1757 1.408 1_545 S
C1754 C1752 1.363 . S
C1754 C1755 1.370 . S
C1754 C1758 1.524 . S
C1755 C1747 1.503 . S
C1755 C1754 1.370 . S
C1755 C1756 1.403 . S
C1756 C1755 1.403 . S
C1756 C1757 1.404 . S
C1756 C1759 1.539 . S
C1757 C1753 1.408 1_565 S
C1757 C1756 1.404 . S
C1757 H1769 0.930 . S
C1758 C1754 1.524 . S
C1758 H1770 0.956 . S
C1758 H1771 0.961 . S
C1758 H1772 0.961 . S
C1759 C1756 1.539 . S
C1759 H1773 0.958 . S
C1759 H1774 0.961 . S
C1759 H1775 0.960 . S
H1760 C1744 0.931 . S
H1761 C1749 0.929 . S
H1762 C1750 0.960 . S
H1763 C1750 0.962 . S
H1764 C1750 0.960 . S
H1765 C1751 0.961 . S
H1766 C1751 0.961 . S
H1767 C1751 0.961 . S
H1768 C1752 0.931 1_545 S
H1769 C1757 0.930 . S
H1770 C1758 0.956 . S
H1771 C1758 0.961 . S
H1772 C1758 0.961 . S
H1773 C1759 0.958 . S
H1774 C1759 0.961 . S
H1775 C1759 0.960 . S
C1776 C1777 1.391 1_655 S
C1776 C1778 1.394 . S
C1776 H1792 0.931 1_655 S
C1777 C1776 1.391 1_455 S
C1777 C1781 1.376 1_455 S
C1778 C1776 1.394 . S
C1778 C1779 1.369 . S
C1778 C1782 1.531 . S
C1779 C1778 1.369 . S
C1779 C1780 1.410 . S
C1779 C1787 1.503 . S
C1780 C1779 1.410 . S
C1780 C1781 1.392 . S
C1780 C1783 1.511 . S
C1781 C1777 1.376 1_655 S
C1781 C1780 1.392 . S
C1781 H1793 0.929 . S
C1782 C1778 1.531 . S
C1782 H1794 0.960 . S
C1782 H1795 0.962 . S
C1782 H1796 0.960 . S
C1783 C1780 1.511 . S
C1783 H1797 0.961 . S
C1783 H1798 0.961 . S
C1783 H1799 0.961 . S
C1784 C1785 1.370 . S
C1784 C1786 1.363 . S
C1784 H1800 0.931 . S
C1785 C1784 1.370 . S
C1785 C1789 1.408 . S
C1786 C1784 1.363 . S
C1786 C1787 1.370 . S
C1786 C1790 1.524 . S
C1787 C1779 1.503 . S
C1787 C1786 1.370 . S
C1787 C1788 1.403 . S
C1788 C1787 1.403 . S
C1788 C1789 1.404 . S
C1788 C1791 1.539 . S
C1789 C1785 1.408 . S
C1789 C1788 1.404 . S
C1789 H1801 0.930 . S
C1790 C1786 1.524 . S
C1790 H1802 0.956 . S
C1790 H1803 0.961 . S
C1790 H1804 0.961 . S
C1791 C1788 1.539 . S
C1791 H1805 0.958 . S
C1791 H1806 0.961 . S
C1791 H1807 0.960 . S
H1792 C1776 0.931 1_455 S
H1793 C1781 0.929 . S
H1794 C1782 0.960 . S
H1795 C1782 0.962 . S
H1796 C1782 0.960 . S
H1797 C1783 0.961 . S
H1798 C1783 0.961 . S
H1799 C1783 0.961 . S
H1800 C1784 0.931 . S
H1801 C1789 0.930 . S
H1802 C1790 0.956 . S
H1803 C1790 0.961 . S
H1804 C1790 0.961 . S
H1805 C1791 0.958 . S
H1806 C1791 0.961 . S
H1807 C1791 0.960 . S
C529 C8 0.979 . S
C537 C470 0.986 . S
C561 C503 0.992 . S
C569 C41 0.989 . S
C593 C404 0.979 . S
C601 C74 0.986 . S
C625 C107 0.989 . S
C633 C437 0.987 . S
C657 C140 0.993 1_556 S
C665 C338 0.989 . S
C689 C371 0.992 . S
C697 C173 0.989 1_554 S
C721 C206 0.991 1_556 S
C729 C272 0.987 . S
C753 C305 0.979 . S
C761 C239 0.985 1_554 S
C785 N137 1.345 . S
C793 N5 1.344 . S
C817 N38 1.348 . S
C825 N170 1.331 . S
C849 N71 1.339 . S
C857 N203 1.346 . S
C881 N104 1.344 . S
C889 N236 1.346 . S
C913 N401 1.328 . S
C921 N269 1.347 . S
C945 N434 1.336 . S
C953 N302 1.347 . S
C977 N335 1.335 . S
C985 N467 1.331 . S
C1009 N368 1.332 . S
C1017 N500 1.330 . S
C1041 C17 1.546 1_556 S
C1049 C479 1.566 . S
C1073 C512 1.565 . S
C1081 C50 1.568 1_554 S
C1105 C83 1.561 1_556 S
C1113 C413 1.569 . S
C1137 C446 1.553 . S
C1145 C116 1.553 1_554 S
C1169 C347 1.541 . S
C1177 C149 1.555 . S
C1201 C380 1.551 . S
C1209 C182 1.569 . S
C1233 C215 1.564 . S
C1241 C281 1.554 . S
C1265 C248 1.576 . S
C1273 C314 1.559 . S
C1297 N14 1.583 . S
C1305 C391 1.607 . S
C1329 C292 1.615 . S
C1337 N47 1.552 . S
C1361 N80 1.569 . S
C1369 C325 1.611 . S
C1393 C358 1.588 . S
C1401 N113 1.559 . S
C1425 C193 1.598 . S
C1433 N146 1.544 . S
C1457 C226 1.607 . S
C1465 N179 1.545 . S
C1489 N212 1.542 . S
C1497 C259 1.600 . S
C1521 C160 1.593 . S
C1529 N245 1.565 . S
C1553 C127 1.587 . S
C1561 N278 1.560 . S
C1585 N311 1.559 . S
C1593 C28 1.613 . S
C1617 N344 1.523 . S
C1625 C61 1.605 . S
C1649 C94 1.588 . S
C1657 N377 1.547 . S
C1681 C457 1.602 . S
C1689 N410 1.543 . S
C1713 C490 1.610 . S
C1721 N443 1.569 . S
C1745 C523 1.605 . S
C1753 N476 1.569 . S
C1777 N509 1.552 . S
C1785 C424 1.600 . S
