# Generated by pormake.
# Topology smn, (6)-cn, num edge types: 1
# Building blocks:
#     Node 0, Type 0, BuildingBlock: VOLQOD_clean_sbu_1, # of connection points: 6
#     Node 1, Type 0, BuildingBlock: VOLQOD_clean_sbu_1, # of connection points: 6
#     Node 2, Type 0, BuildingBlock: VOLQOD_clean_sbu_1, # of connection points: 6
#     Node 3, Type 0, BuildingBlock: VOLQOD_clean_sbu_1, # of connection points: 6
#     Node 4, Type 0, BuildingBlock: VOLQOD_clean_sbu_1, # of connection points: 6
#     Node 5, Type 0, BuildingBlock: VOLQOD_clean_sbu_1, # of connection points: 6
#     Node 6, Type 0, BuildingBlock: VOLQOD_clean_sbu_1, # of connection points: 6
#     Node 7, Type 0, BuildingBlock: VOLQOD_clean_sbu_1, # of connection points: 6
#     Node 8, Type 0, BuildingBlock: VOLQOD_clean_sbu_1, # of connection points: 6
#     Node 9, Type 0, BuildingBlock: VOLQOD_clean_sbu_1, # of connection points: 6
#     Node 10, Type 0, BuildingBlock: VOLQOD_clean_sbu_1, # of connection points: 6
#     Node 11, Type 0, BuildingBlock: VOLQOD_clean_sbu_1, # of connection points: 6
#     Node 12, Type 0, BuildingBlock: VOLQOD_clean_sbu_1, # of connection points: 6
#     Node 13, Type 0, BuildingBlock: VOLQOD_clean_sbu_1, # of connection points: 6
#     Node 14, Type 0, BuildingBlock: VOLQOD_clean_sbu_1, # of connection points: 6
#     Node 15, Type 0, BuildingBlock: VOLQOD_clean_sbu_1, # of connection points: 6
#     Node 16, Type 0, BuildingBlock: VOLQOD_clean_sbu_1, # of connection points: 6
#     Node 17, Type 0, BuildingBlock: VOLQOD_clean_sbu_1, # of connection points: 6
#     Edge 18, Type (0, 0), BuildingBlock: ZUJKAS_clean_linker_0, # of connection points: 2
#     Edge 19, Type (0, 0), BuildingBlock: ZUJKAS_clean_linker_0, # of connection points: 2
#     Edge 20, Type (0, 0), BuildingBlock: ZUJKAS_clean_linker_0, # of connection points: 2
#     Edge 21, Type (0, 0), BuildingBlock: ZUJKAS_clean_linker_0, # of connection points: 2
#     Edge 22, Type (0, 0), BuildingBlock: ZUJKAS_clean_linker_0, # of connection points: 2
#     Edge 23, Type (0, 0), BuildingBlock: ZUJKAS_clean_linker_0, # of connection points: 2
#     Edge 24, Type (0, 0), BuildingBlock: ZUJKAS_clean_linker_0, # of connection points: 2
#     Edge 25, Type (0, 0), BuildingBlock: ZUJKAS_clean_linker_0, # of connection points: 2
#     Edge 26, Type (0, 0), BuildingBlock: ZUJKAS_clean_linker_0, # of connection points: 2
#     Edge 27, Type (0, 0), BuildingBlock: ZUJKAS_clean_linker_0, # of connection points: 2
#     Edge 28, Type (0, 0), BuildingBlock: ZUJKAS_clean_linker_0, # of connection points: 2
#     Edge 29, Type (0, 0), BuildingBlock: ZUJKAS_clean_linker_0, # of connection points: 2
#     Edge 30, Type (0, 0), BuildingBlock: ZUJKAS_clean_linker_0, # of connection points: 2
#     Edge 31, Type (0, 0), BuildingBlock: ZUJKAS_clean_linker_0, # of connection points: 2
#     Edge 32, Type (0, 0), BuildingBlock: ZUJKAS_clean_linker_0, # of connection points: 2
#     Edge 33, Type (0, 0), BuildingBlock: ZUJKAS_clean_linker_0, # of connection points: 2
#     Edge 34, Type (0, 0), BuildingBlock: ZUJKAS_clean_linker_0, # of connection points: 2
#     Edge 35, Type (0, 0), BuildingBlock: ZUJKAS_clean_linker_0, # of connection points: 2
#     Edge 36, Type (0, 0), BuildingBlock: ZUJKAS_clean_linker_0, # of connection points: 2
#     Edge 37, Type (0, 0), BuildingBlock: ZUJKAS_clean_linker_0, # of connection points: 2
#     Edge 38, Type (0, 0), BuildingBlock: ZUJKAS_clean_linker_0, # of connection points: 2
#     Edge 39, Type (0, 0), BuildingBlock: ZUJKAS_clean_linker_0, # of connection points: 2
#     Edge 40, Type (0, 0), BuildingBlock: ZUJKAS_clean_linker_0, # of connection points: 2
#     Edge 41, Type (0, 0), BuildingBlock: ZUJKAS_clean_linker_0, # of connection points: 2
#     Edge 42, Type (0, 0), BuildingBlock: ZUJKAS_clean_linker_0, # of connection points: 2
#     Edge 43, Type (0, 0), BuildingBlock: ZUJKAS_clean_linker_0, # of connection points: 2
#     Edge 44, Type (0, 0), BuildingBlock: ZUJKAS_clean_linker_0, # of connection points: 2
#     Edge 45, Type (0, 0), BuildingBlock: ZUJKAS_clean_linker_0, # of connection points: 2
#     Edge 46, Type (0, 0), BuildingBlock: ZUJKAS_clean_linker_0, # of connection points: 2
#     Edge 47, Type (0, 0), BuildingBlock: ZUJKAS_clean_linker_0, # of connection points: 2
#     Edge 48, Type (0, 0), BuildingBlock: ZUJKAS_clean_linker_0, # of connection points: 2
#     Edge 49, Type (0, 0), BuildingBlock: ZUJKAS_clean_linker_0, # of connection points: 2
#     Edge 50, Type (0, 0), BuildingBlock: ZUJKAS_clean_linker_0, # of connection points: 2
#     Edge 51, Type (0, 0), BuildingBlock: ZUJKAS_clean_linker_0, # of connection points: 2
#     Edge 52, Type (0, 0), BuildingBlock: ZUJKAS_clean_linker_0, # of connection points: 2
#     Edge 53, Type (0, 0), BuildingBlock: ZUJKAS_clean_linker_0, # of connection points: 2
#     Edge 54, Type (0, 0), BuildingBlock: ZUJKAS_clean_linker_0, # of connection points: 2
#     Edge 55, Type (0, 0), BuildingBlock: ZUJKAS_clean_linker_0, # of connection points: 2
#     Edge 56, Type (0, 0), BuildingBlock: ZUJKAS_clean_linker_0, # of connection points: 2
#     Edge 57, Type (0, 0), BuildingBlock: ZUJKAS_clean_linker_0, # of connection points: 2
#     Edge 58, Type (0, 0), BuildingBlock: ZUJKAS_clean_linker_0, # of connection points: 2
#     Edge 59, Type (0, 0), BuildingBlock: ZUJKAS_clean_linker_0, # of connection points: 2
#     Edge 60, Type (0, 0), BuildingBlock: ZUJKAS_clean_linker_0, # of connection points: 2
#     Edge 61, Type (0, 0), BuildingBlock: ZUJKAS_clean_linker_0, # of connection points: 2
#     Edge 62, Type (0, 0), BuildingBlock: ZUJKAS_clean_linker_0, # of connection points: 2
#     Edge 63, Type (0, 0), BuildingBlock: ZUJKAS_clean_linker_0, # of connection points: 2
#     Edge 64, Type (0, 0), BuildingBlock: ZUJKAS_clean_linker_0, # of connection points: 2
#     Edge 65, Type (0, 0), BuildingBlock: ZUJKAS_clean_linker_0, # of connection points: 2
#     Edge 66, Type (0, 0), BuildingBlock: ZUJKAS_clean_linker_0, # of connection points: 2
#     Edge 67, Type (0, 0), BuildingBlock: ZUJKAS_clean_linker_0, # of connection points: 2
#     Edge 68, Type (0, 0), BuildingBlock: ZUJKAS_clean_linker_0, # of connection points: 2
#     Edge 69, Type (0, 0), BuildingBlock: ZUJKAS_clean_linker_0, # of connection points: 2
#     Edge 70, Type (0, 0), BuildingBlock: ZUJKAS_clean_linker_0, # of connection points: 2
#     Edge 71, Type (0, 0), BuildingBlock: ZUJKAS_clean_linker_0, # of connection points: 2
# Relax obj value: 0.237
# Max RMSD: 0.243
# Mean RMSD: 0.242
data_MOF--net-smn--node1-VOLQOD_clean_sbu_1--edge1-ZUJKAS_clean_linker_0
_symmetry_space_group_name_H-M    P1
_symmetry_Int_Tables_number       1
_symmetry_cell_setting            triclinic
loop_
_symmetry_equiv_pos_as_xyz
'x, y, z'
_cell_length_a     80.402262
_cell_length_b     80.396568
_cell_length_c     27.04325
_cell_angle_alpha  89.984505
_cell_angle_beta   90.014542
_cell_angle_gamma 119.9879
loop_
_atom_site_label
_atom_site_type_symbol
_atom_site_fract_x
_atom_site_fract_y
_atom_site_fract_z
_atom_type_partial_charge
O0 O 0.01742 0.24317 0.6857 0.0
Zn1 Zn -0.00251 0.21834 0.71626 0.0
O2 O 0.00986 0.20934 0.76286 0.0
Zn3 Zn 0.00646 0.18458 0.74164 0.0
Zn4 Zn 0.03703 0.22815 0.76851 0.0
Zn5 Zn -0.00139 0.20642 0.82747 0.0
O6 O 0.98882 0.16286 0.78761 0.0
O7 O 0.98191 0.17886 0.84322 0.0
O8 O 0.98435 0.19921 0.66039 0.0
O9 O 0.99296 0.1775 0.67671 0.0
O10 O 0.03204 0.18607 0.72948 0.0
O11 O 0.05224 0.21737 0.73804 0.0
O12 O 0.04577 0.23336 0.8398 0.0
O13 O 0.97876 0.22429 0.75176 0.0
O14 O 0.01842 0.21686 0.88076 0.0
O15 O 0.98225 0.21856 0.83039 0.0
C16 C 0.03473 0.25548 0.69641 0.0
C17 C 0.97972 0.16322 0.82581 0.0
C18 C 0.0489 0.20063 0.72647 0.0
C19 C 0.98459 0.18391 0.64924 0.0
C20 C 0.03661 0.22725 0.88034 0.0
C21 C 0.97492 0.22429 0.79754 0.0
O22 O 0.04379 0.2524 0.73061 0.0
O23 O 0.77285 0.79592 0.67841 0.0
Zn24 Zn 0.79765 0.80006 0.70788 0.0
O25 O 0.80772 0.82204 0.75302 0.0
Zn26 Zn 0.83307 0.84238 0.73183 0.0
Zn27 Zn 0.79021 0.832 0.75831 0.0
Zn28 Zn 0.80996 0.81365 0.81786 0.0
O29 O 0.85437 0.84459 0.7771 0.0
O30 O 0.83711 0.82194 0.83213 0.0
O31 O 0.81633 0.80502 0.65108 0.0
O32 O 0.83883 0.83517 0.66646 0.0
O33 O 0.83364 0.86766 0.72042 0.0
O34 O 0.80273 0.8583 0.72993 0.0
O35 O 0.78493 0.83583 0.82939 0.0
O36 O 0.79085 0.77533 0.74485 0.0
O37 O 0.80161 0.82523 0.87046 0.0
O38 O 0.79539 0.7852 0.82295 0.0
C39 C 0.76186 0.8028 0.68661 0.0
C40 C 0.85323 0.83448 0.81469 0.0
C41 C 0.81976 0.87107 0.71863 0.0
C42 C 0.8318 0.8203 0.6392 0.0
C43 C 0.79153 0.83335 0.86986 0.0
C44 C 0.78966 0.77179 0.79114 0.0
O45 O 0.76618 0.81612 0.71822 0.0
O46 O 0.21748 0.99577 0.67713 0.0
Zn47 Zn 0.21264 0.01573 0.70851 0.0
O48 O 0.19154 0.00289 0.75613 0.0
Zn49 Zn 0.17019 0.007 0.73962 0.0
Zn50 Zn 0.18245 0.97556 0.76025 0.0
Zn51 Zn 0.20114 0.01336 0.82031 0.0
O52 O 0.16759 0.02467 0.78916 0.0
O53 O 0.19198 0.03115 0.83941 0.0
O54 O 0.20566 0.02872 0.6539 0.0
O55 O 0.17597 0.02087 0.67553 0.0
O56 O 0.1454 0.98181 0.72739 0.0
O57 O 0.15602 0.96113 0.73294 0.0
O58 O 0.17971 0.9661 0.83093 0.0
O59 O 0.23777 0.03481 0.74254 0.0
O60 O 0.19151 0.99337 0.87255 0.0
O61 O 0.22961 0.02784 0.82152 0.0
C62 C 0.21138 0.978 0.6852 0.0
C63 C 0.17832 0.03374 0.82577 0.0
C64 C 0.14271 0.96482 0.72348 0.0
C65 C 0.19008 0.02885 0.64583 0.0
C66 C 0.18337 0.97518 0.87175 0.0
C67 C 0.24223 0.03649 0.7883 0.0
O68 O 0.19863 0.96861 0.71784 0.0
O69 O 0.0301 0.80056 0.24187 0.0
Zn70 Zn 0.01156 0.80641 0.27902 0.0
O71 O -0.00038 0.8166 0.23453 0.0
Zn72 Zn 0.00364 0.84126 0.25857 0.0
Zn73 Zn 0.01091 0.82015 0.16999 0.0
Zn74 Zn 0.97235 0.7985 0.22758 0.0
O75 O 0.97832 0.84042 0.27143 0.0
O76 O 0.9577 0.80934 0.26071 0.0
O77 O 0.0245 0.82428 0.33744 0.0
O78 O 0.0165 0.84664 0.32418 0.0
O79 O 0.0223 0.86354 0.2152 0.0
O80 O 0.02868 0.84774 0.15774 0.0
O81 O 0.99137 0.81149 0.11634 0.0
O82 O 0.99109 0.78119 0.30645 0.0
O83 O 0.96376 0.79481 0.15607 0.0
O84 O 0.96486 0.77349 0.26234 0.0
C85 C 0.03341 0.80062 0.19569 0.0
C86 C 0.96134 0.82601 0.27401 0.0
C87 C 0.03148 0.86335 0.17696 0.0
C88 C 0.02439 0.83946 0.35071 0.0
C89 C 0.97315 0.80153 0.11607 0.0
C90 C 0.97367 0.76944 0.29521 0.0
O91 O 0.02607 0.80685 0.16422 0.0
O92 O 0.21643 0.24856 0.25309 0.0
Zn93 Zn 0.20998 0.22409 0.29038 0.0
O94 O 0.19957 0.20199 0.24598 0.0
Zn95 Zn 0.17363 0.18263 0.26544 0.0
Zn96 Zn 0.19891 0.21078 0.18054 0.0
Zn97 Zn 0.21587 0.19069 0.2436 0.0
O98 O 0.17137 0.15656 0.2772 0.0
O99 O 0.20223 0.16495 0.27516 0.0
O100 O 0.19178 0.2195 0.34779 0.0
O101 O 0.16816 0.19 0.33101 0.0
O102 O 0.15346 0.18233 0.21899 0.0
O103 O 0.17237 0.20464 0.16503 0.0
O104 O 0.20606 0.19759 0.12943 0.0
O105 O 0.23496 0.22824 0.31858 0.0
O106 O 0.22047 0.18522 0.17355 0.0
O107 O 0.24031 0.20655 0.28196 0.0
C108 C 0.21958 0.25237 0.20707 0.0
C109 C 0.18476 0.15261 0.28366 0.0
C110 C 0.15575 0.19297 0.18163 0.0
C111 C 0.17588 0.20463 0.3591 0.0
C112 C 0.21475 0.18806 0.13211 0.0
C113 C 0.24541 0.22066 0.31143 0.0
O114 O 0.21532 0.23919 0.17522 0.0
O115 O 0.76753 0.98902 0.25289 0.0
Zn116 Zn 0.79238 0.00718 0.28902 0.0
O117 O 0.81416 0.0191 0.24358 0.0
Zn118 Zn 0.83436 0.01369 0.2633 0.0
Zn119 Zn 0.80528 0.0088 0.17898 0.0
Zn120 Zn 0.82419 0.04658 0.23881 0.0
O121 O 0.85942 0.03839 0.27768 0.0
O122 O 0.84992 0.05995 0.27065 0.0
O123 O 0.79754 0.99369 0.34555 0.0
O124 O 0.82695 -0.00036 0.32738 0.0
O125 O 0.83666 0.99534 0.21527 0.0
O126 O 0.81299 0.98962 0.16317 0.0
O127 O 0.81711 0.02868 0.12672 0.0
O128 O 0.78809 0.02775 0.31793 0.0
O129 O 0.82917 0.05606 0.16791 0.0
O130 O 0.80735 0.05437 0.27599 0.0
C131 C 0.76371 0.98773 0.20677 0.0
C132 C 0.86261 0.05556 0.28193 0.0
C133 C 0.82599 0.9863 0.1785 0.0
C134 C 0.81237 0.99242 0.35566 0.0
C135 C 0.8261 0.0469 0.12737 0.0
C136 C 0.79426 0.0454 0.3082 0.0
O137 O 0.77689 0.99597 0.1746 0.0
O138 O 0.68321 0.57483 0.01397 0.0
Zn139 Zn 0.66346 0.54987 0.04417 0.0
O140 O 0.67623 0.54143 0.09114 0.0
Zn141 Zn 0.67307 0.51664 0.07156 0.0
Zn142 Zn 0.70334 0.5604 0.09691 0.0
Zn143 Zn 0.66497 0.53887 0.15519 0.0
O144 O 0.65512 0.49507 0.11772 0.0
O145 O 0.64774 0.51147 0.17085 0.0
O146 O 0.65069 0.53046 0.98844 0.0
O147 O 0.65997 0.50936 0.00619 0.0
O148 O 0.69878 0.51822 0.06057 0.0
O149 O 0.71857 0.54971 0.06639 0.0
O150 O 0.71217 0.56551 0.16849 0.0
O151 O 0.6445 0.55574 0.07895 0.0
O152 O 0.68462 0.54885 0.20846 0.0
O153 O 0.64932 0.55168 0.15782 0.0
C154 C 0.70049 0.58735 0.02439 0.0
C155 C 0.64562 0.49569 0.15472 0.0
C156 C 0.71549 0.53295 0.05624 0.0
C157 C 0.65145 0.51538 0.97797 0.0
C158 C 0.70281 0.55915 0.2087 0.0
C159 C 0.64145 0.55675 0.12487 0.0
O160 O 0.70978 0.58448 0.05843 0.0
O161 O 0.43788 0.1304 0.00767 0.0
Zn162 Zn 0.46286 0.13438 0.03486 0.0
O163 O 0.47246 0.15508 0.08343 0.0
Zn164 Zn 0.49788 0.17615 0.06595 0.0
Zn165 Zn 0.45489 0.16474 0.09187 0.0
Zn166 Zn 0.47454 0.14498 0.14556 0.0
O167 O 0.51908 0.17739 0.11015 0.0
O168 O 0.5014 0.1515 0.15585 0.0
O169 O 0.48184 0.1412 0.97787 0.0
O170 O 0.50416 0.17083 0.9988 0.0
O171 O 0.49813 0.20141 0.05913 0.0
O172 O 0.46691 0.19123 0.06424 0.0
O173 O 0.45072 0.16794 0.16434 0.0
O174 O 0.45632 0.10889 0.06703 0.0
O175 O 0.46738 0.15636 0.20153 0.0
O176 O 0.45944 0.11652 0.14682 0.0
C177 C 0.42636 0.13632 0.01927 0.0
C178 C 0.51767 0.1649 0.14155 0.0
C179 C 0.48405 0.20445 0.05557 0.0
C180 C 0.49735 0.15684 0.96859 0.0
C181 C 0.45764 0.16486 0.20346 0.0
C182 C 0.45451 0.10409 0.11256 0.0
O183 O 0.43036 0.14877 0.05328 0.0
O184 O 0.88666 0.33249 0.01683 0.0
Zn185 Zn 0.88239 0.353 0.04619 0.0
O186 O 0.86098 0.34106 0.09285 0.0
Zn187 Zn 0.83979 0.34453 0.07082 0.0
Zn188 Zn 0.8524 0.31391 0.10085 0.0
Zn189 Zn 0.86949 0.35289 0.15651 0.0
O190 O 0.83623 0.36298 0.11506 0.0
O191 O 0.85963 0.37061 0.16967 0.0
O192 O 0.8767 0.36619 0.9896 0.0
O193 O 0.84625 0.35732 0.00493 0.0
O194 O 0.81547 0.31895 0.06038 0.0
O195 O 0.82633 0.29863 0.07103 0.0
O196 O 0.84884 0.30582 0.17296 0.0
O197 O 0.90733 0.37141 0.08142 0.0
O198 O 0.85943 0.33371 0.21102 0.0
O199 O 0.89797 0.36799 0.15984 0.0
C200 C 0.88157 0.31524 0.02866 0.0
C201 C 0.84617 0.37274 0.15199 0.0
C202 C 0.813 0.30199 0.05884 0.0
C203 C 0.86108 0.36568 0.97767 0.0
C204 C 0.85169 0.31554 0.21246 0.0
C205 C 0.91116 0.37496 0.12732 0.0
O206 O 0.8696 0.3066 0.06352 0.0
O207 O 0.69712 0.13745 0.58065 0.0
Zn208 Zn 0.67854 0.14299 0.61844 0.0
O209 O 0.66707 0.15408 0.5752 0.0
Zn210 Zn 0.67203 0.17894 0.60017 0.0
Zn211 Zn 0.67816 0.15761 0.51032 0.0
Zn212 Zn 0.63957 0.13692 0.56894 0.0
O213 O 0.64739 0.17966 0.61116 0.0
O214 O 0.62577 0.14884 0.60097 0.0
O215 O 0.69129 0.16003 0.67849 0.0
O216 O 0.68376 0.18283 0.66678 0.0
O217 O 0.69189 0.20113 0.55855 0.0
O218 O 0.69674 0.18512 0.49862 0.0
O219 O 0.65847 0.14977 0.45726 0.0
O220 O 0.65773 0.1174 0.64342 0.0
O221 O 0.63094 0.13343 0.4976 0.0
O222 O 0.63108 0.11183 0.60432 0.0
C223 C 0.70011 0.13739 0.53433 0.0
C224 C 0.6301 0.1658 0.61338 0.0
C225 C 0.70058 0.20081 0.51944 0.0
C226 C 0.69111 0.17504 0.69304 0.0
C227 C 0.64024 0.14018 0.45749 0.0
C228 C 0.63992 0.10664 0.63414 0.0
O229 O 0.69263 0.14361 0.50325 0.0
O230 O 0.87965 0.58238 0.57685 0.0
Zn231 Zn 0.87425 0.55812 0.61353 0.0
O232 O 0.864 0.53601 0.56898 0.0
Zn233 Zn 0.83948 0.5153 0.59333 0.0
Zn234 Zn 0.86013 0.54377 0.50471 0.0
Zn235 Zn 0.88211 0.52682 0.56171 0.0
O236 O 0.84039 0.49086 0.60594 0.0
O237 O 0.87149 0.50139 0.59539 0.0
O238 O 0.85668 0.55311 0.67265 0.0
O239 O 0.83445 0.52272 0.65931 0.0
O240 O 0.81697 0.51166 0.55075 0.0
O241 O 0.83244 0.53363 0.49263 0.0
O242 O 0.86898 0.53318 0.45089 0.0
O243 O 0.89979 0.56331 0.63945 0.0
O244 O 0.88559 0.52198 0.48991 0.0
O245 O 0.90726 0.54454 0.59569 0.0
C246 C 0.87929 0.58571 0.53084 0.0
C247 C 0.85483 0.48835 0.60879 0.0
C248 C 0.81694 0.52085 0.51236 0.0
C249 C 0.84167 0.53771 0.68609 0.0
C250 C 0.8789 0.52488 0.45014 0.0
C251 C 0.91152 0.55765 0.62792 0.0
O252 O 0.87304 0.57223 0.49911 0.0
O253 O 0.4344 0.31919 0.58222 0.0
Zn254 Zn 0.45879 0.33841 0.61811 0.0
O255 O 0.4807 0.35052 0.57304 0.0
Zn256 Zn 0.50103 0.34545 0.59341 0.0
Zn257 Zn 0.47198 0.34007 0.5083 0.0
Zn258 Zn 0.49081 0.37801 0.56874 0.0
O259 O 0.52632 0.37015 0.60495 0.0
O260 O 0.51654 0.39154 0.60082 0.0
O261 O 0.46444 0.32606 0.67664 0.0
O262 O 0.49423 0.33293 0.65941 0.0
O263 O 0.50287 0.3262 0.54784 0.0
O264 O 0.48019 0.32115 0.49313 0.0
O265 O 0.48347 0.36004 0.45598 0.0
O266 O 0.45348 0.3587 0.64442 0.0
O267 O 0.49568 0.38734 0.49779 0.0
O268 O 0.47393 0.38575 0.60567 0.0
C269 C 0.43046 0.31754 0.53615 0.0
C270 C 0.52943 0.38724 0.61054 0.0
C271 C 0.49268 0.31739 0.51021 0.0
C272 C 0.47973 0.32581 0.68797 0.0
C273 C 0.49247 0.37828 0.45703 0.0
C274 C 0.46007 0.37649 0.63571 0.0
O275 O 0.44348 0.32628 0.50382 0.0
O276 O 0.34916 0.90869 0.33878 0.0
Zn277 Zn 0.32978 0.88417 0.3718 0.0
O278 O 0.34308 0.87627 0.41841 0.0
Zn279 Zn 0.33963 0.85123 0.40004 0.0
Zn280 Zn 0.37016 0.89541 0.42216 0.0
Zn281 Zn 0.3327 0.87464 0.48321 0.0
O282 O 0.3225 0.83044 0.44914 0.0
O283 O 0.31533 0.84742 0.50092 0.0
O284 O 0.31643 0.86422 0.31795 0.0
O285 O 0.32546 0.84295 0.33602 0.0
O286 O 0.36531 0.8528 0.38734 0.0
O287 O 0.3852 0.88431 0.39314 0.0
O288 O 0.3798 0.90161 0.49268 0.0
O289 O 0.31108 0.89026 0.40726 0.0
O290 O 0.35293 0.88483 0.53518 0.0
O291 O 0.31776 0.88819 0.48602 0.0
C292 C 0.36654 0.92131 0.34773 0.0
C293 C 0.31322 0.83147 0.48616 0.0
C294 C 0.38205 0.8675 0.38336 0.0
C295 C 0.31674 0.84885 0.30814 0.0
C296 C 0.37107 0.89542 0.53372 0.0
C297 C 0.30921 0.89251 0.45323 0.0
O298 O 0.37616 0.91892 0.38174 0.0
O299 O 0.10783 0.46258 0.35029 0.0
Zn300 Zn 0.13266 0.46794 0.38195 0.0
O301 O 0.14039 0.48853 0.43063 0.0
Zn302 Zn 0.16502 0.51085 0.41271 0.0
Zn303 Zn 0.12087 0.49596 0.43619 0.0
Zn304 Zn 0.14281 0.4794 0.49449 0.0
O305 O 0.18624 0.51559 0.46137 0.0
O306 O 0.17017 0.49114 0.51292 0.0
O307 O 0.15285 0.47548 0.32773 0.0
O308 O 0.17371 0.50557 0.34876 0.0
O309 O 0.16246 0.53434 0.40006 0.0
O310 O 0.13092 0.52197 0.40672 0.0
O311 O 0.11495 0.49865 0.50758 0.0
O312 O 0.12698 0.44291 0.41524 0.0
O313 O 0.13107 0.48723 0.54792 0.0
O314 O 0.13181 0.45106 0.49468 0.0
C315 C 0.09494 0.46678 0.36123 0.0
C316 C 0.18573 0.50557 0.49848 0.0
C317 C 0.14748 0.53589 0.39609 0.0
C318 C 0.16819 0.4914 0.31947 0.0
C319 C 0.1206 0.49493 0.54798 0.0
C320 C 0.12674 0.43852 0.46069 0.0
O321 O 0.09728 0.4783 0.39648 0.0
O322 O 0.55367 0.66641 0.34276 0.0
Zn323 Zn 0.54873 0.68616 0.37482 0.0
O324 O 0.52766 0.67312 0.42215 0.0
Zn325 Zn 0.50628 0.67715 0.40551 0.0
Zn326 Zn 0.519 0.64594 0.42599 0.0
Zn327 Zn 0.537 0.68331 0.48664 0.0
O328 O 0.50411 0.69537 0.45413 0.0
O329 O 0.52846 0.70165 0.50432 0.0
O330 O 0.54183 0.69935 0.32053 0.0
O331 O 0.5118 0.69071 0.3408 0.0
O332 O 0.48152 0.65177 0.39491 0.0
O333 O 0.49261 0.6314 0.39847 0.0
O334 O 0.51584 0.6363 0.49646 0.0
O335 O 0.57376 0.70495 0.40974 0.0
O336 O 0.52656 0.66324 0.539 0.0
O337 O 0.56548 0.69741 0.48847 0.0
C338 C 0.54823 0.64883 0.35145 0.0
C339 C 0.51505 0.70458 0.49032 0.0
C340 C 0.47906 0.63487 0.39037 0.0
C341 C 0.52609 0.69909 0.31173 0.0
C342 C 0.51868 0.64507 0.53753 0.0
C343 C 0.57818 0.70629 0.4555 0.0
O344 O 0.53579 0.63937 0.38472 0.0
O345 O 0.36228 0.46626 0.91845 0.0
Zn346 Zn 0.34445 0.47277 0.95682 0.0
O347 O 0.33237 0.48306 0.91342 0.0
Zn348 Zn 0.33906 0.5091 0.93247 0.0
Zn349 Zn 0.34121 0.4834 0.8476 0.0
Zn350 Zn 0.30478 0.46668 0.91246 0.0
O351 O 0.31521 0.51106 0.94776 0.0
O352 O 0.293 0.4801 0.94666 0.0
O353 O 0.35827 0.49105 0.01386 0.0
O354 O 0.35315 0.51513 0.99637 0.0
O355 O 0.35802 0.52907 0.8839 0.0
O356 O 0.36137 0.50983 0.83089 0.0
O357 O 0.32053 0.47618 0.79767 0.0
O358 O 0.32393 0.44777 0.98539 0.0
O359 O 0.29408 0.46244 0.84304 0.0
O360 O 0.29663 0.44205 0.94957 0.0
C361 C 0.36227 0.46274 0.87242 0.0
C362 C 0.29806 0.49751 0.95577 0.0
C363 C 0.36618 0.52656 0.84642 0.0
C364 C 0.35999 0.50731 0.02442 0.0
C365 C 0.30237 0.46788 0.80122 0.0
C366 C 0.30592 0.4371 0.97853 0.0
O367 O 0.35296 0.46683 0.84138 0.0
O368 O 0.54975 0.91863 0.91141 0.0
Zn369 Zn 0.54398 0.89439 0.94922 0.0
O370 O 0.53389 0.87202 0.90569 0.0
Zn371 Zn 0.50811 0.85226 0.92588 0.0
Zn372 Zn 0.53291 0.88039 0.83995 0.0
Zn373 Zn 0.55074 0.86128 0.9039 0.0
O374 O 0.50679 0.82672 0.9405 0.0
O375 O 0.53781 0.83582 0.93712 0.0
O376 O 0.52586 0.88958 0.00677 0.0
O377 O 0.50223 0.86004 0.99045 0.0
O378 O 0.48759 0.85064 0.87835 0.0
O379 O 0.50608 0.87275 0.82341 0.0
O380 O 0.5413 0.86815 0.78945 0.0
O381 O 0.56921 0.89931 0.97736 0.0
O382 O 0.55561 0.8558 0.834 0.0
O383 O 0.57514 0.87786 0.94169 0.0
C384 C 0.55239 0.92217 0.86518 0.0
C385 C 0.52053 0.8233 0.94716 0.0
C386 C 0.48958 0.86074 0.84 0.0
C387 C 0.50992 0.87478 0.01818 0.0
C388 C 0.55024 0.85888 0.79234 0.0
C389 C 0.57997 0.89208 0.97062 0.0
O390 O 0.54815 0.90884 0.83384 0.0
O391 O 0.09939 0.65109 0.90682 0.0
Zn392 Zn 0.12331 0.66886 0.94655 0.0
O393 O 0.14606 0.68098 0.9042 0.0
Zn394 Zn 0.16589 0.67587 0.92888 0.0
Zn395 Zn 0.13901 0.67067 0.8386 0.0
Zn396 Zn 0.156 0.70845 0.89951 0.0
O397 O 0.19098 0.70055 0.94231 0.0
O398 O 0.1815 0.72203 0.9327 0.0
O399 O 0.12717 0.65518 0.00515 0.0
O400 O 0.15768 0.66325 0.9944 0.0
O401 O 0.16846 0.65639 0.88605 0.0
O402 O 0.14745 0.65175 0.82671 0.0
O403 O 0.15162 0.69088 0.78696 0.0
O404 O 0.11859 0.6893 0.97425 0.0
O405 O 0.16162 0.71791 0.82884 0.0
O406 O 0.13888 0.71628 0.93515 0.0
C407 C 0.0967 0.64894 0.86018 0.0
C408 C 0.19415 0.71774 0.94534 0.0
C409 C 0.15926 0.64775 0.84706 0.0
C410 C 0.14233 0.65532 0.01984 0.0
C411 C 0.15987 0.7091 0.78831 0.0
C412 C 0.12516 0.7071 0.96564 0.0
O413 O 0.11066 0.6568 0.82996 0.0
H414 H 0.04653 0.16903 0.6809 0.0
H415 H 0.07116 0.16818 0.62968 0.0
H416 H 0.11105 0.22712 0.66752 0.0
H417 H 0.08676 0.22805 0.71931 0.0
H418 H 0.08541 0.1923 0.54919 0.0
H419 H 0.14528 0.20315 0.67202 0.0
H420 H 0.12139 0.19544 0.69491 0.0
H421 H 0.13753 0.22035 0.68125 0.0
C422 C 0.06071 0.18164 0.67952 0.0
C423 C 0.06459 0.19867 0.70376 0.0
C424 C 0.07476 0.18113 0.6502 0.0
C425 C 0.09295 0.19756 0.64502 0.0
C426 C 0.09724 0.21417 0.67167 0.0
H427 H 0.18284 0.2344 0.42199 0.0
H428 H 0.16372 0.23294 0.49454 0.0
C429 C 0.08323 0.21471 0.70097 0.0
C430 C 0.10632 0.19829 0.60637 0.0
H431 H 0.15216 0.20781 0.58535 0.0
C432 C 0.09993 0.19549 0.55719 0.0
C433 C 0.12536 0.20278 0.61688 0.0
C434 C 0.13278 0.20544 0.66918 0.0
C435 C 0.1121 0.19723 0.51811 0.0
C436 C 0.13109 0.20162 0.52855 0.0
C437 C 0.13759 0.20451 0.57764 0.0
C438 C 0.14397 0.20239 0.48859 0.0
C439 C 0.10464 0.19465 0.46579 0.0
C440 C 0.13942 0.18564 0.4624 0.0
C441 C 0.15013 0.18643 0.42113 0.0
C442 C 0.16573 0.20401 0.40531 0.0
C443 C 0.17086 0.22068 0.43307 0.0
C444 C 0.16001 0.21987 0.47451 0.0
H445 H 0.09152 0.19592 0.46336 0.0
H446 H 0.11572 0.20542 0.44069 0.0
H447 H 0.10094 0.18015 0.45244 0.0
H448 H 0.12724 0.17199 0.47319 0.0
H449 H 0.14593 0.17323 0.40115 0.0
H450 H 0.83988 0.98372 0.38148 0.0
H451 H 0.84129 0.96716 0.45519 0.0
H452 H 0.78845 0.96247 0.50765 0.0
H453 H 0.78665 0.97882 0.43293 0.0
H454 H 0.84282 0.97612 0.55439 0.0
H455 H 0.77691 0.90702 0.50952 0.0
H456 H 0.7884 0.92625 0.46518 0.0
H457 H 0.77375 0.92757 0.51347 0.0
C458 C 0.82849 0.9792 0.40855 0.0
C459 C 0.81303 0.98247 0.40105 0.0
C460 C 0.8294 0.96979 0.45083 0.0
C461 C 0.81491 0.96344 0.48663 0.0
C462 C 0.79963 0.96699 0.47999 0.0
H463 H 0.79684 0.88663 0.73168 0.0
H464 H 0.79709 0.91239 0.68347 0.0
C465 C 0.79863 0.97635 0.43735 0.0
C466 C 0.81573 0.95257 0.52983 0.0
H467 H 0.79334 0.90803 0.58215 0.0
C468 C 0.83192 0.96127 0.56082 0.0
C469 C 0.80153 0.93321 0.53793 0.0
C470 C 0.78423 0.92285 0.50462 0.0
C471 C 0.83442 0.951 0.59931 0.0
C472 C 0.82045 0.93153 0.60654 0.0
C473 C 0.804 0.92302 0.57655 0.0
C474 C 0.82289 0.91916 0.64289 0.0
C475 C 0.852 0.96099 0.63166 0.0
C476 C 0.83776 0.91493 0.63732 0.0
C477 C 0.83771 0.9002 0.66503 0.0
C478 C 0.82263 0.88936 0.69813 0.0
C479 C 0.80856 0.8946 0.70608 0.0
C480 C 0.80868 0.90933 0.67865 0.0
H481 H 0.85834 0.97684 0.63066 0.0
H482 H 0.84856 0.95603 0.67058 0.0
H483 H 0.86301 0.95761 0.61812 0.0
H484 H 0.84869 0.92213 0.60931 0.0
H485 H 0.84867 0.89642 0.65792 0.0
H486 H 0.12846 0.92635 0.73249 0.0
H487 H 0.10368 0.90111 0.68134 0.0
H488 H 0.09199 0.94264 0.61296 0.0
H489 H 0.11677 0.9681 0.6644 0.0
H490 H 0.05817 0.90309 0.63198 0.0
H491 H 0.1194 0.90454 0.53172 0.0
H492 H 0.11871 0.90115 0.59756 0.0
H493 H 0.12254 0.92354 0.57296 0.0
C494 C 0.1203 0.93007 0.70745 0.0
C495 C 0.12477 0.94927 0.70185 0.0
C496 C 0.10617 0.91562 0.67827 0.0
C497 C 0.09634 0.92014 0.64284 0.0
C498 C 0.09954 0.93895 0.64008 0.0
H499 H 0.02684 0.87212 0.38776 0.0
H500 H 0.04256 0.88911 0.46313 0.0
C501 C 0.11365 0.95345 0.66955 0.0
C502 C 0.08459 0.90584 0.60487 0.0
H503 H 0.08841 0.88293 0.50302 0.0
C504 C 0.06471 0.89855 0.60391 0.0
C505 C 0.09323 0.89994 0.56856 0.0
C506 C 0.11465 0.90775 0.56726 0.0
C507 C 0.05319 0.88556 0.5671 0.0
C508 C 0.06193 0.88012 0.52985 0.0
C509 C 0.08175 0.88704 0.53172 0.0
C510 C 0.05119 0.86875 0.48607 0.0
C511 C 0.0318 0.87778 0.56847 0.0
C512 C 0.05125 0.85185 0.47309 0.0
C513 C 0.04241 0.84211 0.42933 0.0
C514 C 0.03351 0.84923 0.39773 0.0
C515 C 0.03346 0.86613 0.41118 0.0
C516 C 0.04228 0.8758 0.45467 0.0
H517 H 0.02678 0.87792 0.60667 0.0
H518 H 0.02827 0.88699 0.54526 0.0
H519 H 0.02379 0.86288 0.55395 0.0
H520 H 0.05828 0.84631 0.4966 0.0
H521 H 0.04271 0.82916 0.42008 0.0
H522 H 0.18557 0.04311 0.92227 0.0
H523 H 0.18801 0.07117 0.96342 0.0
H524 H 0.16936 0.08652 0.83013 0.0
H525 H 0.16682 0.05812 0.7883 0.0
H526 H 0.20517 0.11612 0.87153 0.0
H527 H 0.14783 0.0847 0.01286 0.0
H528 H 0.16181 0.07294 0.01079 0.0
H529 H 0.14761 0.07175 0.958 0.0
C530 C 0.18154 0.05219 0.902 0.0
C531 C 0.176 0.04848 0.85215 0.0
C532 C 0.18287 0.06817 0.92562 0.0
C533 C 0.17873 0.08081 0.8999 0.0
C534 C 0.17247 0.07681 0.8506 0.0
H535 H 0.20222 0.18911 0.03854 0.0
H536 H 0.19428 0.16509 0.97368 0.0
C537 C 0.1709 0.06057 0.82693 0.0
C538 C 0.18291 0.09899 0.92394 0.0
H539 H 0.17493 0.11597 0.03152 0.0
C540 C 0.19825 0.11624 0.90584 0.0
C541 C 0.17387 0.09904 0.96867 0.0
C542 C 0.15673 0.08113 0.98848 0.0
C543 C 0.20563 0.13332 0.93328 0.0
C544 C 0.1974 0.13298 0.97959 0.0
C545 C 0.18135 0.11603 0.99618 0.0
C546 C 0.20574 0.14966 0.01313 0.0
C547 C 0.22277 0.15137 0.91425 0.0
C548 C 0.21548 0.14926 0.05572 0.0
C549 C 0.22009 0.16295 0.09284 0.0
C550 C 0.21481 0.17711 0.08814 0.0
C551 C 0.20642 0.17834 0.04351 0.0
C552 C 0.20186 0.16465 0.00634 0.0
H553 H 0.22784 0.14914 0.87796 0.0
H554 H 0.219 0.16284 0.91021 0.0
H555 H 0.23471 0.15651 0.94135 0.0
H556 H 0.21856 0.13773 0.0614 0.0
H557 H 0.22658 0.16157 0.12656 0.0
H558 H 0.84959 0.08571 0.11437 0.0
H559 H 0.87196 0.10131 0.0459 0.0
H560 H 0.84828 0.04713 0.96957 0.0
H561 H 0.8257 0.0314 0.03719 0.0
H562 H 0.88986 0.06714 0.99705 0.0
H563 H 0.86759 0.11263 0.89386 0.0
H564 H 0.86631 0.11329 0.96024 0.0
H565 H 0.85079 0.09143 0.92784 0.0
C566 C 0.84867 0.07721 0.08234 0.0
C567 C 0.83601 0.05726 0.08165 0.0
C568 C 0.86146 0.08615 0.04322 0.0
C569 C 0.86174 0.0753 0.00295 0.0
C570 C 0.84821 0.0557 0.0004 0.0
H571 H 0.95281 0.1309 0.77864 0.0
H572 H 0.92304 0.1052 0.81571 0.0
C573 C 0.83531 0.04677 0.03917 0.0
C574 C 0.87789 0.08382 0.96769 0.0
H575 H 0.89986 0.11947 0.88222 0.0
C576 C 0.89189 0.07831 0.97114 0.0
C577 C 0.88038 0.09829 0.93401 0.0
C578 C 0.86543 0.10423 0.92826 0.0
C579 C 0.90895 0.08777 0.94377 0.0
C580 C 0.91191 0.10295 0.91215 0.0
C581 C 0.89743 0.10771 0.90648 0.0
C582 C 0.93089 0.1159 0.89042 0.0
C583 C 0.92411 0.08215 0.95035 0.0
C584 C 0.94518 0.12992 0.92056 0.0
C585 C 0.96193 0.1446 0.8996 0.0
C586 C 0.96474 0.14531 0.84825 0.0
C587 C 0.95106 0.13045 0.81842 0.0
C588 C 0.93405 0.1159 0.83941 0.0
H589 H 0.91829 0.06793 0.96859 0.0
H590 H 0.93035 0.08175 0.91404 0.0
H591 H 0.93589 0.09306 0.97363 0.0
H592 H 0.94287 0.13016 0.95997 0.0
H593 H 0.97225 0.15598 0.92322 0.0
H594 H 0.88803 0.84545 0.77054 0.0
H595 H 0.91394 0.8409 0.80455 0.0
H596 H 0.88295 0.82123 0.94197 0.0
H597 H 0.85727 0.82568 0.90878 0.0
H598 H 0.93342 0.85393 0.91941 0.0
H599 H 0.89255 0.77693 0.86515 0.0
H600 H 0.89138 0.79557 0.83051 0.0
H601 H 0.87888 0.78746 0.88825 0.0
C602 C 0.88705 0.84065 0.80841 0.0
C603 C 0.87059 0.83577 0.83693 0.0
C604 C 0.90174 0.83796 0.82758 0.0
C605 C 0.90009 0.83051 0.87539 0.0
C606 C 0.88431 0.82684 0.90483 0.0
H607 H 0.93448 0.78661 0.10315 0.0
H608 H 0.91889 0.79256 0.03335 0.0
C609 C 0.86969 0.82942 0.8858 0.0
C610 C 0.91395 0.82521 0.89473 0.0
H611 H 0.91639 0.7855 0.92751 0.0
C612 C 0.93014 0.8391 0.92007 0.0
C613 C 0.90937 0.80581 0.8956 0.0
C614 C 0.89216 0.79051 0.8682 0.0
C615 C 0.94121 0.83384 0.94927 0.0
C616 C 0.93593 0.81422 0.95256 0.0
C617 C 0.92039 0.80051 0.92476 0.0
C618 C 0.94479 0.80751 0.98958 0.0
C619 C 0.95759 0.8491 0.9792 0.0
C620 C 0.96428 0.81305 0.98679 0.0
C621 C 0.97326 0.80967 0.02663 0.0
C622 C 0.96285 0.80069 0.0699 0.0
C623 C 0.94295 0.79365 0.07061 0.0
C624 C 0.93401 0.79706 0.03074 0.0
H625 H 0.9581 0.86315 0.97757 0.0
H626 H 0.95635 0.84461 0.0185 0.0
H627 H 0.97139 0.85111 0.96471 0.0
H628 H 0.97274 0.82084 0.95488 0.0
H629 H 0.98858 0.8151 0.02457 0.0
H630 H 0.86297 0.85163 0.60065 0.0
H631 H 0.88214 0.85316 0.52951 0.0
H632 H 0.84438 0.79278 0.50255 0.0
H633 H 0.8248 0.79101 0.57432 0.0
H634 H 0.90016 0.83011 0.52349 0.0
H635 H 0.85212 0.81937 0.36375 0.0
H636 H 0.84884 0.82734 0.42356 0.0
H637 H 0.84207 0.80266 0.41432 0.0
C638 C 0.85853 0.83863 0.57954 0.0
C639 C 0.84238 0.82112 0.59354 0.0
C640 C 0.86952 0.83959 0.53872 0.0
C641 C 0.8646 0.82314 0.51069 0.0
C642 C 0.84822 0.8057 0.52344 0.0
H643 H 0.92355 0.79858 0.28258 0.0
H644 H 0.89961 0.79933 0.33624 0.0
C645 C 0.83713 0.80469 0.56455 0.0
C646 C 0.87773 0.82415 0.47105 0.0
H647 H 0.88201 0.82159 0.34608 0.0
C648 C 0.89624 0.82831 0.48466 0.0
C649 C 0.87247 0.82173 0.42061 0.0
C650 C 0.85284 0.81764 0.40432 0.0
C651 C 0.90965 0.8299 0.44919 0.0
C652 C 0.90454 0.82776 0.39855 0.0
C653 C 0.88595 0.82348 0.38488 0.0
C654 C 0.918 0.82868 0.35988 0.0
C655 C 0.92897 0.83331 0.46645 0.0
C656 C 0.936 0.84527 0.35354 0.0
C657 C 0.94986 0.84489 0.32307 0.0
C658 C 0.94585 0.82791 0.29825 0.0
C659 C 0.92724 0.81184 0.30162 0.0
C660 C 0.91347 0.81223 0.33218 0.0
H661 H 0.9289 0.83009 0.50643 0.0
H662 H 0.93342 0.82436 0.44522 0.0
H663 H 0.93991 0.84862 0.46056 0.0
H664 H 0.93961 0.85825 0.37386 0.0
H665 H 0.96397 0.85756 0.32098 0.0
H666 H 0.21725 0.05039 0.57551 0.0
H667 H 0.21333 0.06751 0.50517 0.0
H668 H 0.15419 0.04594 0.54571 0.0
H669 H 0.15784 0.02899 0.61557 0.0
H670 H 0.18375 0.05243 0.42332 0.0
H671 H 0.18042 0.10602 0.54691 0.0
H672 H 0.19022 0.09123 0.56676 0.0
H673 H 0.16469 0.08123 0.56266 0.0
C674 C 0.2034 0.04923 0.56926 0.0
C675 C 0.18795 0.03851 0.60158 0.0
C676 C 0.20117 0.05895 0.52905 0.0
C677 C 0.18353 0.0581 0.52079 0.0
C678 C 0.16797 0.04693 0.55191 0.0
H679 H 0.15266 0.127 0.33536 0.0
H680 H 0.14941 0.10048 0.38703 0.0
C681 C 0.17015 0.03727 0.5919 0.0
C682 C 0.18142 0.06955 0.48113 0.0
H683 H 0.17457 0.10763 0.46225 0.0
C684 C 0.18176 0.06452 0.43165 0.0
C685 C 0.17861 0.08514 0.49237 0.0
C686 C 0.17859 0.09139 0.545 0.0
C687 C 0.17933 0.07475 0.39286 0.0
C688 C 0.17686 0.09057 0.4041 0.0
C689 C 0.17626 0.09537 0.4537 0.0
C690 C 0.17678 0.10362 0.36554 0.0
C691 C 0.17929 0.06844 0.34033 0.0
C692 C 0.19295 0.11377 0.33533 0.0
C693 C 0.19481 0.12882 0.30586 0.0
C694 C 0.18061 0.13418 0.30634 0.0
C695 C 0.16381 0.1232 0.33408 0.0
C696 C 0.16197 0.10808 0.36372 0.0
H697 H 0.17471 0.05292 0.33852 0.0
H698 H 0.16964 0.07114 0.3165 0.0
H699 H 0.19406 0.0766 0.32515 0.0
H700 H 0.20472 0.11087 0.33683 0.0
H701 H 0.20789 0.13693 0.2847 0.0
H702 H 0.88729 0.05084 0.34271 0.0
H703 H 0.91227 0.07554 0.39547 0.0
H704 H 0.90289 0.11868 0.3276 0.0
H705 H 0.87797 0.09425 0.27512 0.0
H706 H 0.94721 0.11486 0.37608 0.0
H707 H 0.88724 0.11525 0.47795 0.0
H708 H 0.88349 0.096 0.43682 0.0
H709 H 0.88765 0.11848 0.41208 0.0
C710 C 0.89094 0.06566 0.33807 0.0
C711 C 0.88046 0.07056 0.30536 0.0
C712 C 0.90516 0.07973 0.36826 0.0
C713 C 0.9091 0.0988 0.36586 0.0
C714 C 0.89983 0.10397 0.33034 0.0
H715 H 0.96549 0.1926 0.57849 0.0
H716 H 0.9489 0.17367 0.505 0.0
C717 C 0.8856 0.08998 0.30043 0.0
C718 C 0.92121 0.11285 0.40389 0.0
H719 H 0.91858 0.13699 0.5046 0.0
C720 C 0.94103 0.11977 0.40417 0.0
C721 C 0.91301 0.11923 0.44022 0.0
C722 C 0.89167 0.11181 0.44226 0.0
C723 C 0.95295 0.13303 0.44003 0.0
C724 C 0.94469 0.13913 0.47697 0.0
C725 C 0.92489 0.13239 0.47609 0.0
C726 C 0.95599 0.15142 0.51896 0.0
C727 C 0.97428 0.14049 0.43775 0.0
C728 C 0.96529 0.14509 0.55128 0.0
C729 C 0.97473 0.15581 0.59307 0.0
C730 C 0.97491 0.17304 0.60385 0.0
C731 C 0.96563 0.17942 0.5713 0.0
C732 C 0.95619 0.16865 0.52927 0.0
H733 H 0.97892 0.13949 0.39969 0.0
H734 H 0.98257 0.15566 0.45021 0.0
H735 H 0.97787 0.13167 0.46232 0.0
H736 H 0.96485 0.13158 0.54487 0.0
H737 H 0.98163 0.15036 0.61735 0.0
H738 H 0.819 0.97622 0.08232 0.0
H739 H 0.81531 0.94718 0.04374 0.0
H740 H 0.83182 0.93159 0.18015 0.0
H741 H 0.83567 0.96099 0.21938 0.0
H742 H 0.84247 0.93228 0.03675 0.0
H743 H 0.77532 0.88655 0.14338 0.0
H744 H 0.78484 0.91208 0.13646 0.0
H745 H 0.79676 0.90342 0.17599 0.0
C746 C 0.82221 0.96681 0.10392 0.0
C747 C 0.82754 0.97078 0.15387 0.0
C748 C 0.82009 0.95024 0.08184 0.0
C749 C 0.82305 0.93719 0.10934 0.0
C750 C 0.82933 0.94149 0.15857 0.0
H751 H 0.80548 0.83258 0.96167 0.0
H752 H 0.81219 0.8555 0.02861 0.0
C753 C 0.83169 0.95831 0.18072 0.0
C754 C 0.81835 0.91871 0.08623 0.0
H755 H 0.78199 0.87217 0.07631 0.0
C756 C 0.82951 0.91901 0.04608 0.0
C757 C 0.80129 0.90153 0.09832 0.0
C758 C 0.78873 0.9007 0.14075 0.0
C759 C 0.82364 0.90273 0.0164 0.0
C760 C 0.80614 0.88585 0.02706 0.0
C761 C 0.79538 0.88522 0.06846 0.0
C762 C 0.79836 0.8694 0.99278 0.0
C763 C 0.83568 0.90386 0.97232 0.0
C764 C 0.7876 0.86918 0.95174 0.0
C765 C 0.78375 0.85615 0.91326 0.0
C766 C 0.79072 0.84323 0.91528 0.0
C767 C 0.8 0.84241 0.95869 0.0
C768 C 0.80386 0.85548 0.99707 0.0
H769 H 0.84947 0.91768 0.97079 0.0
H770 H 0.83882 0.8919 0.97353 0.0
H771 H 0.82754 0.90228 0.93779 0.0
H772 H 0.78327 0.8799 0.94801 0.0
H773 H 0.77652 0.85716 0.88056 0.0
H774 H 0.15758 0.93684 0.88325 0.0
H775 H 0.13649 0.92214 0.95436 0.0
H776 H 0.1678 0.97495 0.03614 0.0
H777 H 0.18903 0.98984 0.9654 0.0
H778 H 0.14148 0.91904 0.06383 0.0
H779 H 0.11207 0.96627 0.00953 0.0
H780 H 0.12708 0.96173 0.96853 0.0
H781 H 0.13747 0.97732 0.02076 0.0
C782 C 0.16044 0.94515 0.91687 0.0
C783 C 0.17473 0.96464 0.91822 0.0
C784 C 0.14834 0.93673 0.95747 0.0
C785 C 0.1504 0.94764 -0.00011 0.0
C786 C 0.16588 0.96643 0.00336 0.0
H787 H 0.05935 0.89413 0.22734 0.0
H788 H 0.0902 0.91891 0.19254 0.0
C789 C 0.178 0.97487 0.96286 0.0
C790 C 0.13482 0.9402 0.03687 0.0
H791 H 0.0949 0.94249 0.06877 0.0
C792 C 0.13154 0.92443 0.06596 0.0
C793 C 0.12185 0.94727 0.03906 0.0
C794 C 0.12461 0.96402 0.00774 0.0
C795 C 0.1151 0.91499 0.09575 0.0
C796 C 0.10169 0.92148 0.09599 0.0
C797 C 0.1054 0.93778 0.06875 0.0
C798 C 0.08235 0.90945 0.11694 0.0
C799 C 0.11147 0.89737 0.12437 0.0
C800 C 0.06767 0.89664 0.08553 0.0
C801 C 0.05027 0.88255 0.10514 0.0
C802 C 0.04721 0.88123 0.15642 0.0
C803 C 0.06132 0.89508 0.18761 0.0
C804 C 0.07893 0.90909 0.16791 0.0
H805 H 0.12361 0.89452 0.12147 0.0
H806 H 0.10907 0.89915 0.16397 0.0
H807 H 0.09826 0.88465 0.11029 0.0
H808 H 0.07012 0.89678 0.04608 0.0
H809 H 0.03962 0.87197 0.08046 0.0
H810 H 0.02182 0.21412 0.97259 0.0
H811 H 0.03864 0.21025 0.04289 0.0
H812 H 0.09211 0.2401 0.96297 0.0
H813 H 0.07552 0.24422 0.89277 0.0
H814 H 0.05622 0.18894 0.03315 0.0
H815 H 0.10873 0.26123 0.10136 0.0
H816 H 0.08836 0.25685 0.06367 0.0
H817 H 0.10998 0.25983 0.03541 0.0
C818 C 0.03726 0.22041 0.97047 0.0
C819 C 0.04729 0.2293 0.92671 0.0
C820 C 0.04683 0.21814 0.01075 0.0
C821 C 0.06661 0.22491 0.00825 0.0
C822 C 0.07689 0.23505 0.96611 0.0
H823 H 0.15442 0.20622 0.09043 0.0
H824 H 0.12988 0.21237 0.05725 0.0
C825 C 0.06734 0.23732 0.9258 0.0
C826 C 0.07606 0.219 0.04578 0.0
H827 H 0.11701 0.23626 0.11421 0.0
C828 C 0.06922 0.19926 0.05207 0.0
C829 C 0.09295 0.23247 0.07056 0.0
C830 C 0.10031 0.25377 0.06781 0.0
C831 C 0.07971 0.19271 0.07921 0.0
C832 C 0.09735 0.20626 0.10064 0.0
C833 C 0.10349 0.22592 0.09735 0.0
C834 C 0.11095 0.20062 0.12025 0.0
C835 C 0.07264 0.17147 0.08192 0.0
C836 C 0.1081 0.19141 0.16614 0.0
C837 C 0.12217 0.18774 0.18533 0.0
C838 C 0.13925 0.1934 0.15887 0.0
C839 C 0.14151 0.20181 0.11194 0.0
C840 C 0.12753 0.2054 0.09293 0.0
H841 H 0.05892 0.16282 0.06166 0.0
H842 H 0.0836 0.16843 0.06619 0.0
H843 H 0.07044 0.16681 0.12116 0.0
H844 H 0.09535 0.18766 0.18771 0.0
H845 H 0.1201 0.18137 0.22172 0.0
H846 H 0.84849 0.56738 0.74921 0.0
H847 H 0.82995 0.56554 0.82328 0.0
H848 H 0.79443 0.50439 0.8031 0.0
H849 H 0.81257 0.506 0.72961 0.0
H850 H 0.77458 0.52546 0.80891 0.0
H851 H 0.82591 0.54198 0.96425 0.0
H852 H 0.83442 0.55797 0.91197 0.0
H853 H 0.82896 0.53357 0.90481 0.0
C854 C 0.8369 0.55352 0.76099 0.0
C855 C 0.8319 0.53689 0.73317 0.0
C856 C 0.82642 0.55248 0.80342 0.0
C857 C 0.81094 0.53479 0.81868 0.0
C858 C 0.80637 0.51815 0.79194 0.0
H859 H 0.71392 0.50071 0.01671 0.0
H860 H 0.73828 0.49967 0.96461 0.0
C861 C 0.81674 0.51916 0.74976 0.0
C862 C 0.79815 0.5337 0.85927 0.0
H863 H 0.79574 0.53887 0.9839 0.0
C864 C 0.77914 0.52828 0.84724 0.0
C865 C 0.80427 0.53748 0.90901 0.0
C866 C 0.82446 0.54296 0.92365 0.0
C867 C 0.76608 0.52681 0.88356 0.0
C868 C 0.77209 0.5304 0.93352 0.0
C869 C 0.79114 0.53587 0.94564 0.0
C870 C 0.75904 0.52989 0.97276 0.0
C871 C 0.74615 0.52205 0.86781 0.0
C872 C 0.7632 0.54692 0.99707 0.0
C873 C 0.74943 0.54753 0.02716 0.0
C874 C 0.73122 0.53111 0.03335 0.0
C875 C 0.7277 0.51366 0.01229 0.0
C876 C 0.74156 0.51305 0.98232 0.0
H877 H 0.74532 0.52407 0.82742 0.0
H878 H 0.73586 0.50681 0.87666 0.0
H879 H 0.74154 0.53114 0.88776 0.0
H880 H 0.77666 0.56003 0.99045 0.0
H881 H 0.75275 0.56117 0.04334 0.0
H882 H 0.51652 0.23336 0.01218 0.0
H883 H 0.51862 0.25974 0.9623 0.0
H884 H 0.46018 0.2428 0.00043 0.0
H885 H 0.45805 0.21678 0.05097 0.0
H886 H 0.49513 0.25084 0.88225 0.0
H887 H 0.48522 0.30079 0.00325 0.0
H888 H 0.49201 0.28401 0.02702 0.0
H889 H 0.46729 0.27613 0.01285 0.0
C890 C 0.50433 0.23565 0.01131 0.0
C891 C 0.48703 0.2228 0.035 0.0
C892 C 0.50555 0.25071 0.98274 0.0
C893 C 0.48958 0.25327 0.97781 0.0
C894 C 0.4728 0.24134 0.00439 0.0
H895 H 0.4507 0.30305 0.75271 0.0
H896 H 0.45335 0.28666 0.82654 0.0
C897 C 0.47157 0.22632 0.03294 0.0
C898 C 0.48925 0.26604 0.93888 0.0
H899 H 0.47944 0.3021 0.91641 0.0
C900 C 0.49198 0.26223 0.88984 0.0
C901 C 0.48481 0.28067 0.94882 0.0
C902 C 0.48234 0.28578 0.00091 0.0
C903 C 0.49002 0.27237 0.85035 0.0
C904 C 0.48548 0.2869 0.8602 0.0
C905 C 0.48283 0.29086 0.90916 0.0
C906 C 0.48402 0.29838 0.81963 0.0
C907 C 0.49244 0.26719 0.79821 0.0
C908 C 0.50044 0.31067 0.79243 0.0
C909 C 0.49898 0.31986 0.75042 0.0
C910 C 0.48104 0.31704 0.73485 0.0
C911 C 0.46468 0.30542 0.76359 0.0
C912 C 0.46618 0.29612 0.80576 0.0
H913 H 0.49166 0.253 0.79645 0.0
H914 H 0.48127 0.26687 0.77344 0.0
H915 H 0.50668 0.2782 0.7839 0.0
H916 H 0.51435 0.31273 0.80299 0.0
H917 H 0.51194 0.32895 0.72968 0.0
H918 H 0.78351 0.304 0.01353 0.0
H919 H 0.75775 0.27894 0.96384 0.0
H920 H 0.77708 0.2394 0.00341 0.0
H921 H 0.8025 0.26408 0.0538 0.0
H922 H 0.76701 0.2644 0.88416 0.0
H923 H 0.71922 0.20485 0.00916 0.0
H924 H 0.73551 0.2288 0.03137 0.0
H925 H 0.7442 0.21259 0.01757 0.0
C926 C 0.78193 0.28981 0.01289 0.0
C927 C 0.79522 0.28613 0.03717 0.0
C928 C 0.76721 0.27551 0.98444 0.0
C929 C 0.76545 0.25729 0.98013 0.0
C930 C 0.77792 0.25322 0.00691 0.0
H931 H 0.71604 0.16952 0.7514 0.0
H932 H 0.73306 0.18802 0.82539 0.0
C933 C 0.79259 0.26746 0.03538 0.0
C934 C 0.75271 0.24364 0.94207 0.0
H935 H 0.71695 0.19738 0.92262 0.0
C936 C 0.75593 0.24982 0.89269 0.0
C937 C 0.73846 0.22454 0.95325 0.0
C938 C 0.734 0.21733 0.00578 0.0
C939 C 0.74547 0.23738 0.8541 0.0
C940 C 0.73128 0.21831 0.8652 0.0
C941 C 0.72797 0.21202 0.91445 0.0
C942 C 0.71923 0.2052 0.82564 0.0
C943 C 0.74974 0.24465 0.80152 0.0
C944 C 0.70558 0.20849 0.80254 0.0
C945 C 0.69602 0.19815 0.76049 0.0
C946 C 0.69989 0.18423 0.74075 0.0
C947 C 0.71283 0.18019 0.76561 0.0
C948 C 0.7225 0.19068 0.80784 0.0
H949 H 0.76345 0.2585 0.79854 0.0
H950 H 0.7505 0.23395 0.77706 0.0
H951 H 0.73798 0.24686 0.78778 0.0
H952 H 0.70284 0.21959 0.81604 0.0
H953 H 0.68593 0.20145 0.74276 0.0
H954 H 0.89571 0.50291 0.43433 0.0
H955 H 0.89006 0.48164 0.36412 0.0
H956 H 0.85772 0.504 0.29091 0.0
H957 H 0.86331 0.52539 0.36068 0.0
H958 H 0.83722 0.46382 0.30892 0.0
H959 H 0.90708 0.48652 0.21776 0.0
H960 H 0.9081 0.48567 0.28402 0.0
H961 H 0.90273 0.50261 0.25519 0.0
C962 C 0.88793 0.50378 0.40267 0.0
C963 C 0.87976 0.51569 0.4035 0.0
C964 C 0.88477 0.49164 0.36245 0.0
C965 C 0.87348 0.49129 0.32239 0.0
C966 C 0.86649 0.50412 0.32147 0.0
H967 H 0.83855 0.39792 0.10278 0.0
H968 H 0.84228 0.42808 0.13641 0.0
C969 C 0.86974 0.51634 0.36147 0.0
C970 C 0.86666 0.4756 0.28574 0.0
H971 H 0.88244 0.4534 0.20683 0.0
C972 C 0.84702 0.46178 0.28553 0.0
C973 C 0.87945 0.47303 0.25527 0.0
C974 C 0.9005 0.48784 0.2526 0.0
C975 C 0.8401 0.44473 0.25837 0.0
C976 C 0.85313 0.4416 0.23073 0.0
C977 C 0.87251 0.45596 0.22815 0.0
C978 C 0.84767 0.42245 0.21118 0.0
C979 C 0.81916 0.42962 0.26159 0.0
C980 C 0.84894 0.40929 0.24259 0.0
C981 C 0.847 0.39232 0.22361 0.0
C982 C 0.84357 0.38816 0.17298 0.0
C983 C 0.84096 0.40073 0.14206 0.0
C984 C 0.84321 0.41796 0.16106 0.0
H985 H 0.8104 0.4353 0.27847 0.0
H986 H 0.81344 0.42392 0.2242 0.0
H987 H 0.81764 0.41747 0.28446 0.0
H988 H 0.85241 0.41262 0.28137 0.0
H989 H 0.8491 0.38285 0.24812 0.0
H990 H 0.48999 0.36343 0.36452 0.0
H991 H 0.51223 0.37902 0.29597 0.0
H992 H 0.53973 0.4322 0.37742 0.0
H993 H 0.51761 0.41682 0.44633 0.0
H994 H 0.53535 0.43488 0.26858 0.0
H995 H 0.56896 0.39158 0.32471 0.0
H996 H 0.54358 0.37906 0.31216 0.0
H997 H 0.55274 0.39463 0.36482 0.0
C998 C 0.50044 0.37858 0.36748 0.0
C999 C 0.50225 0.3888 0.41139 0.0
C1000 C 0.51315 0.38742 0.32825 0.0
C1001 C 0.52779 0.40659 0.33224 0.0
C1002 C 0.52854 0.41732 0.37394 0.0
H1003 H 0.63588 0.49018 0.25125 0.0
H1004 H 0.6061 0.46454 0.28651 0.0
C1005 C 0.51586 0.4085 0.41327 0.0
C1006 C 0.54365 0.41497 0.29605 0.0
H1007 H 0.58534 0.41583 0.26589 0.0
C1008 C 0.54605 0.43045 0.267 0.0
C1009 C 0.5576 0.40914 0.29447 0.0
C1010 C 0.55578 0.39276 0.32578 0.0
C1011 C 0.56253 0.44081 0.23788 0.0
C1012 C 0.57691 0.4356 0.23835 0.0
C1013 C 0.57411 0.41957 0.26543 0.0
C1014 C 0.59611 0.44868 0.21809 0.0
C1015 C 0.5651 0.458 0.20905 0.0
C1016 C 0.6006 0.44763 0.16848 0.0
C1017 C 0.61781 0.4622 0.14828 0.0
C1018 C 0.63042 0.47797 0.17754 0.0
C1019 C 0.62637 0.47818 0.22796 0.0
C1020 C 0.60939 0.4636 0.2481 0.0
H1021 H 0.55177 0.45893 0.20817 0.0
H1022 H 0.57671 0.47131 0.22619 0.0
H1023 H 0.56951 0.45737 0.17051 0.0
H1024 H 0.59041 0.43615 0.14494 0.0
H1025 H 0.62054 0.46186 0.10918 0.0
H1026 H 0.65522 0.15298 0.36518 0.0
H1027 H 0.63961 0.15968 0.29654 0.0
H1028 H 0.58652 0.13428 0.37833 0.0
H1029 H 0.60188 0.1275 0.44722 0.0
H1030 H 0.60276 0.13486 0.24025 0.0
H1031 H 0.60413 0.19323 0.35298 0.0
H1032 H 0.61933 0.18312 0.3659 0.0
H1033 H 0.59454 0.17054 0.38431 0.0
C1034 C 0.64009 0.1484 0.3682 0.0
C1035 C 0.62986 0.13993 0.41205 0.0
C1036 C 0.63125 0.15229 0.32894 0.0
C1037 C 0.61211 0.14784 0.33306 0.0
C1038 C 0.60144 0.13806 0.37501 0.0
H1039 H 0.51892 0.13446 0.17934 0.0
H1040 H 0.54612 0.13357 0.21497 0.0
C1041 C 0.61021 0.13409 0.41418 0.0
C1042 C 0.6035 0.15452 0.29541 0.0
H1043 H 0.5834 0.18289 0.2825 0.0
C1044 C 0.59882 0.14561 0.24898 0.0
C1045 C 0.5989 0.16893 0.30654 0.0
C1046 C 0.60463 0.17968 0.35497 0.0
C1047 C 0.58817 0.14964 0.21482 0.0
C1048 C 0.58199 0.16273 0.2279 0.0
C1049 C 0.5881 0.17281 0.27264 0.0
C1050 C 0.56647 0.16348 0.20057 0.0
C1051 C 0.5829 0.13926 0.16589 0.0
C1052 C 0.56884 0.18075 0.18113 0.0
C1053 C 0.55313 0.18136 0.16051 0.0
C1054 C 0.53486 0.16479 0.16034 0.0
C1055 C 0.53275 0.14755 0.1793 0.0
C1056 C 0.54836 0.14692 0.19913 0.0
H1057 H 0.59378 0.13536 0.15434 0.0
H1058 H 0.56892 0.12577 0.16963 0.0
H1059 H 0.58152 0.14814 0.13647 0.0
H1060 H 0.58272 0.19375 0.18265 0.0
H1061 H 0.55515 0.19482 0.14613 0.0
H1062 H 0.49267 0.12899 0.90156 0.0
H1063 H 0.51354 0.13294 0.8308 0.0
H1064 H 0.54753 0.19352 0.86152 0.0
H1065 H 0.52704 0.18984 0.93174 0.0
H1066 H 0.5267 0.16141 0.74345 0.0
H1067 H 0.58419 0.16999 0.87337 0.0
H1068 H 0.5593 0.15897 0.89158 0.0
H1069 H 0.57349 0.18458 0.88542 0.0
C1070 C 0.50444 0.14318 0.89283 0.0
C1071 C 0.50835 0.15903 0.92277 0.0
C1072 C 0.5163 0.14541 0.85241 0.0
C1073 C 0.53214 0.16349 0.84152 0.0
C1074 C 0.53547 0.17944 0.86976 0.0
H1075 H 0.63414 0.19729 0.6637 0.0
H1076 H 0.6095 0.19912 0.71279 0.0
C1077 C 0.52374 0.17725 0.90999 0.0
C1078 C 0.54613 0.16563 0.80315 0.0
H1079 H 0.59197 0.17449 0.78878 0.0
C1080 C 0.54098 0.16425 0.75315 0.0
C1081 C 0.56476 0.16952 0.81618 0.0
C1082 C 0.57083 0.17074 0.86952 0.0
C1083 C 0.55412 0.16675 0.71559 0.0
C1084 C 0.57268 0.17035 0.72869 0.0
C1085 C 0.57781 0.17192 0.77878 0.0
C1086 C 0.58656 0.17092 0.69176 0.0
C1087 C 0.54807 0.16571 0.66236 0.0
C1088 C 0.58171 0.15469 0.66272 0.0
C1089 C 0.59569 0.15362 0.63464 0.0
C1090 C 0.61489 0.1687 0.63543 0.0
C1091 C 0.6195 0.18544 0.66225 0.0
C1092 C 0.60545 0.18649 0.69038 0.0
H1093 H 0.53652 0.16938 0.65849 0.0
H1094 H 0.56037 0.17554 0.63864 0.0
H1095 H 0.54236 0.15083 0.64862 0.0
H1096 H 0.56736 0.14233 0.66397 0.0
H1097 H 0.59159 0.14054 0.61425 0.0
H1098 H 0.82935 0.36503 0.93992 0.0
H1099 H 0.82729 0.38229 0.86849 0.0
H1100 H 0.88769 0.40554 0.84029 0.0
H1101 H 0.88997 0.38812 0.91215 0.0
H1102 H 0.84893 0.4228 0.86033 0.0
H1103 H 0.86181 0.38635 0.70246 0.0
H1104 H 0.85451 0.37542 0.76283 0.0
H1105 H 0.87889 0.39392 0.7523 0.0
C1106 C 0.84224 0.37365 0.91844 0.0
C1107 C 0.8599 0.37527 0.93206 0.0
C1108 C 0.84097 0.38347 0.87748 0.0
C1109 C 0.85727 0.39505 0.84894 0.0
C1110 C 0.87487 0.39641 0.86147 0.0
H1111 H 0.88259 0.47857 0.6207 0.0
H1112 H 0.88163 0.45399 0.67527 0.0
C1113 C 0.87617 0.38655 0.90268 0.0
C1114 C 0.85598 0.40687 0.80882 0.0
H1115 H 0.85982 0.41415 0.68396 0.0
C1116 C 0.8512 0.42085 0.82171 0.0
C1117 C 0.85902 0.40428 0.75863 0.0
C1118 C 0.86371 0.3891 0.7429 0.0
C1119 C 0.8497 0.43262 0.78585 0.0
C1120 C 0.85259 0.42998 0.73549 0.0
C1121 C 0.85739 0.41597 0.72253 0.0
C1122 C 0.85195 0.44258 0.69647 0.0
C1123 C 0.84565 0.44818 0.80247 0.0
C1124 C 0.83529 0.44372 0.68847 0.0
C1125 C 0.83579 0.45791 0.65746 0.0
C1126 C 0.85297 0.47107 0.6337 0.0
C1127 C 0.86917 0.46883 0.63881 0.0
C1128 C 0.86866 0.45473 0.66993 0.0
H1129 H 0.8483 0.45117 0.84268 0.0
H1130 H 0.85468 0.46173 0.78188 0.0
H1131 H 0.83036 0.44354 0.79517 0.0
H1132 H 0.82211 0.43416 0.70783 0.0
H1133 H 0.82301 0.4591 0.65404 0.0
H1134 H 0.62849 0.52053 0.91126 0.0
H1135 H 0.61157 0.50013 0.83986 0.0
H1136 H 0.63653 0.46468 0.87113 0.0
H1137 H 0.6533 0.48469 0.94209 0.0
H1138 H 0.62688 0.48817 0.75361 0.0
H1139 H 0.57691 0.42809 0.87562 0.0
H1140 H 0.59088 0.45252 0.89741 0.0
H1141 H 0.60204 0.43817 0.88885 0.0
C1142 C 0.63046 0.50847 0.90272 0.0
C1143 C 0.64206 0.50413 0.93281 0.0
C1144 C 0.62085 0.49689 0.8619 0.0
C1145 C 0.62268 0.48082 0.85078 0.0
C1146 C 0.63477 0.47689 0.87957 0.0
H1147 H 0.55678 0.38245 0.65898 0.0
H1148 H 0.58272 0.40612 0.71123 0.0
C1149 C 0.64433 0.48837 0.92019 0.0
C1150 C 0.61127 0.4675 0.81067 0.0
H1151 H 0.57471 0.42188 0.7901 0.0
C1152 C 0.61545 0.47367 0.76141 0.0
C1153 C 0.59653 0.44857 0.82117 0.0
C1154 C 0.59115 0.44141 0.87359 0.0
C1155 C 0.60524 0.4613 0.72214 0.0
C1156 C 0.59028 0.44244 0.7327 0.0
C1157 C 0.58631 0.43626 0.78203 0.0
C1158 C 0.57736 0.42932 0.69394 0.0
C1159 C 0.61068 0.46846 0.66979 0.0
C1160 C 0.56611 0.43466 0.66592 0.0
C1161 C 0.55137 0.42123 0.63605 0.0
C1162 C 0.54742 0.4021 0.63396 0.0
C1163 C 0.55946 0.39706 0.65968 0.0
C1164 C 0.57425 0.41055 0.68966 0.0
H1165 H 0.62588 0.48017 0.66742 0.0
H1166 H 0.60854 0.4567 0.64438 0.0
H1167 H 0.60152 0.47433 0.65698 0.0
H1168 H 0.56795 0.4489 0.66937 0.0
H1169 H 0.54243 0.42564 0.61658 0.0
H1170 H 0.44164 0.18747 0.22061 0.0
H1171 H 0.44841 0.20919 0.29043 0.0
H1172 H 0.48027 0.18594 0.36194 0.0
H1173 H 0.47367 0.16415 0.29229 0.0
H1174 H 0.44425 0.20487 0.3987 0.0
H1175 H 0.52007 0.2437 0.33216 0.0
H1176 H 0.50066 0.22629 0.29435 0.0
H1177 H 0.50942 0.21846 0.3451 0.0
C1178 C 0.44965 0.18657 0.2517 0.0
C1179 C 0.45739 0.17428 0.25035 0.0
C1180 C 0.45352 0.19902 0.29159 0.0
C1181 C 0.46516 0.1994 0.33071 0.0
C1182 C 0.47149 0.18603 0.33165 0.0
H1183 H 0.50256 0.29263 0.55368 0.0
H1184 H 0.49812 0.26249 0.51779 0.0
C1185 C 0.46762 0.17353 0.29183 0.0
C1186 C 0.4723 0.21519 0.36718 0.0
H1187 H 0.51171 0.25852 0.39424 0.0
C1188 C 0.45909 0.21639 0.39868 0.0
C1189 C 0.49168 0.23023 0.3667 0.0
C1190 C 0.50634 0.2298 0.33267 0.0
C1191 C 0.4646 0.23267 0.42822 0.0
C1192 C 0.4837 0.24808 0.42576 0.0
C1193 C 0.49714 0.24651 0.39623 0.0
C1194 C 0.48886 0.26702 0.44648 0.0
C1195 C 0.44977 0.2339 0.45969 0.0
C1196 C 0.48569 0.27961 0.41756 0.0
C1197 C 0.48814 0.29661 0.43773 0.0
C1198 C 0.49392 0.3014 0.4872 0.0
C1199 C 0.49824 0.28933 0.51535 0.0
C1200 C 0.49561 0.27212 0.4951 0.0
H1201 H 0.43616 0.21994 0.46196 0.0
H1202 H 0.45544 0.23868 0.49764 0.0
H1203 H 0.44662 0.24476 0.44374 0.0
H1204 H 0.48055 0.27588 0.37989 0.0
H1205 H 0.4848 0.30567 0.41508 0.0
H1206 H 0.85386 0.33185 0.30266 0.0
H1207 H 0.83314 0.3165 0.37384 0.0
H1208 H 0.80853 0.26165 0.30039 0.0
H1209 H 0.82916 0.27683 0.22884 0.0
H1210 H 0.79321 0.29835 0.35953 0.0
H1211 H 0.81384 0.24865 0.44508 0.0
H1212 H 0.83004 0.26866 0.40665 0.0
H1213 H 0.81193 0.24667 0.37892 0.0
C1214 C 0.84446 0.31642 0.30209 0.0
C1215 C 0.84299 0.3056 0.25964 0.0
C1216 C 0.83262 0.30769 0.34291 0.0
C1217 C 0.81933 0.28798 0.34239 0.0
C1218 C 0.8189 0.27687 0.30182 0.0
H1219 H 0.70885 0.20974 0.42299 0.0
H1220 H 0.73904 0.2351 0.3885 0.0
C1221 C 0.83068 0.28559 0.26081 0.0
C1222 C 0.80397 0.27954 0.3801 0.0
H1223 H 0.78133 0.2417 0.45942 0.0
C1224 C 0.79087 0.28627 0.38235 0.0
C1225 C 0.80099 0.26386 0.40991 0.0
C1226 C 0.81505 0.25663 0.41047 0.0
C1227 C 0.77414 0.27682 0.41101 0.0
C1228 C 0.77054 0.26036 0.43807 0.0
C1229 C 0.78422 0.25439 0.43853 0.0
C1230 C 0.75146 0.24745 0.45945 0.0
C1231 C 0.75987 0.28378 0.41022 0.0
C1232 C 0.74833 0.24652 0.51067 0.0
C1233 C 0.73087 0.23223 0.53046 0.0
C1234 C 0.71666 0.21855 0.49916 0.0
C1235 C 0.71957 0.22018 0.4478 0.0
C1236 C 0.73679 0.23459 0.42811 0.0
H1237 H 0.76622 0.29855 0.39497 0.0
H1238 H 0.74742 0.27399 0.38688 0.0
H1239 H 0.75442 0.28355 0.44811 0.0
H1240 H 0.75962 0.25633 0.53529 0.0
H1241 H 0.72904 0.23106 0.57024 0.0
H1242 H 0.78692 0.51932 0.56322 0.0
H1243 H 0.76176 0.52472 0.52798 0.0
H1244 H 0.78203 0.52353 0.38116 0.0
H1245 H 0.80734 0.51866 0.41602 0.0
H1246 H 0.77677 0.56043 0.45302 0.0
H1247 H 0.71901 0.48942 0.38602 0.0
H1248 H 0.73388 0.49196 0.43895 0.0
H1249 H 0.7434 0.49466 0.37762 0.0
C1250 C 0.78549 0.5195 0.52342 0.0
C1251 C 0.79892 0.5185 0.49217 0.0
C1252 C 0.77127 0.52274 0.50343 0.0
C1253 C 0.77015 0.52451 0.4521 0.0
C1254 C 0.78266 0.52208 0.42086 0.0
H1255 H 0.74157 0.57449 0.22268 0.0
H1256 H 0.75691 0.56857 0.29318 0.0
C1257 C 0.79703 0.51923 0.44074 0.0
C1258 C 0.75767 0.53121 0.43055 0.0
H1259 H 0.71993 0.51715 0.35174 0.0
C1260 C 0.76405 0.55095 0.43179 0.0
C1261 C 0.7412 0.51878 0.40297 0.0
C1262 C 0.7338 0.49747 0.40134 0.0
C1263 C 0.75495 0.55876 0.40357 0.0
C1264 C 0.73917 0.54646 0.3735 0.0
C1265 C 0.73208 0.52656 0.3748 0.0
C1266 C 0.7309 0.5539 0.33671 0.0
C1267 C 0.76261 0.58012 0.40483 0.0
C1268 C 0.71137 0.5482 0.33863 0.0
C1269 C 0.70256 0.55163 0.29852 0.0
C1270 C 0.7131 0.56053 0.25536 0.0
C1271 C 0.73302 0.56761 0.25523 0.0
C1272 C 0.74183 0.56426 0.29558 0.0
H1273 H 0.77107 0.58672 0.43895 0.0
H1274 H 0.77219 0.58687 0.37256 0.0
H1275 H 0.75074 0.58338 0.40261 0.0
H1276 H 0.70271 0.54018 0.37006 0.0
H1277 H 0.68722 0.54609 0.30012 0.0
H1278 H 0.42031 0.8926 0.39308 0.0
H1279 H 0.44623 0.89347 0.34411 0.0
H1280 H 0.40601 0.83975 0.27555 0.0
H1281 H 0.37989 0.83861 0.32499 0.0
H1282 H 0.44458 0.84539 0.29634 0.0
H1283 H 0.44519 0.90604 0.19517 0.0
H1284 H 0.44826 0.90878 0.26105 0.0
H1285 H 0.42585 0.89046 0.23592 0.0
C1286 C 0.41702 0.88074 0.36836 0.0
C1287 C 0.39801 0.86569 0.3622 0.0
C1288 C 0.43185 0.88129 0.34044 0.0
C1289 C 0.4279 0.8669 0.30558 0.0
C1290 C 0.40926 0.85104 0.3022 0.0
H1291 H 0.47641 0.84515 0.05328 0.0
H1292 H 0.45926 0.84412 0.12815 0.0
C1293 C 0.39438 0.85039 0.33047 0.0
C1294 C 0.44263 0.8695 0.26895 0.0
H1295 H 0.46685 0.89642 0.1685 0.0
C1296 C 0.44959 0.85661 0.26857 0.0
C1297 C 0.44915 0.88423 0.23297 0.0
C1298 C 0.44167 0.89811 0.2308 0.0
C1299 C 0.46278 0.85794 0.23258 0.0
C1300 C 0.4688 0.87229 0.19563 0.0
C1301 C 0.46228 0.88552 0.19703 0.0
C1302 C 0.48025 0.8727 0.15235 0.0
C1303 C 0.47008 0.84393 0.2343 0.0
C1304 C 0.49757 0.88935 0.14035 0.0
C1305 C 0.50742 0.89011 0.09694 0.0
C1306 C 0.49997 0.87427 0.0647 0.0
C1307 C 0.48264 0.85763 0.07718 0.0
C1308 C 0.47287 0.8569 0.12037 0.0
H1309 H 0.46943 0.83849 0.27243 0.0
H1310 H 0.4609 0.83143 0.21041 0.0
H1311 H 0.4851 0.85061 0.22074 0.0
H1312 H 0.50336 0.9018 0.16434 0.0
H1313 H 0.52072 0.90313 0.08844 0.0
H1314 H 0.11862 0.54409 0.38379 0.0
H1315 H 0.11877 0.56833 0.3294 0.0
H1316 H 0.17908 0.59114 0.30087 0.0
H1317 H 0.17906 0.56661 0.35455 0.0
H1318 H 0.13974 0.60894 0.31943 0.0
H1319 H 0.153 0.57115 0.16563 0.0
H1320 H 0.1465 0.56115 0.22699 0.0
H1321 H 0.17073 0.57958 0.21382 0.0
C1322 C 0.13205 0.55446 0.36675 0.0
C1323 C 0.14875 0.55313 0.37264 0.0
C1324 C 0.13209 0.56836 0.3358 0.0
C1325 C 0.14881 0.58119 0.31032 0.0
C1326 C 0.16593 0.58107 0.31958 0.0
H1327 H 0.17336 0.65712 0.06521 0.0
H1328 H 0.17406 0.64033 0.13916 0.0
C1329 C 0.16591 0.5671 0.35043 0.0
C1330 C 0.14772 0.59306 0.27011 0.0
H1331 H 0.15189 0.59906 0.14498 0.0
C1332 C 0.14241 0.60684 0.28126 0.0
C1333 C 0.15086 0.58998 0.22031 0.0
C1334 C 0.15541 0.57455 0.20571 0.0
C1335 C 0.1407 0.61803 0.24381 0.0
C1336 C 0.14421 0.61514 0.19427 0.0
C1337 C 0.14928 0.60123 0.18316 0.0
C1338 C 0.14356 0.62686 0.15306 0.0
C1339 C 0.13554 0.63308 0.25735 0.0
C1340 C 0.12612 0.62495 0.13666 0.0
C1341 C 0.1256 0.63454 0.0939 0.0
C1342 C 0.14252 0.64604 0.06696 0.0
C1343 C 0.16 0.64826 0.08464 0.0
C1344 C 0.16048 0.63875 0.1271 0.0
H1345 H 0.1362 0.63555 0.2979 0.0
H1346 H 0.14537 0.64688 0.23867 0.0
H1347 H 0.12073 0.62839 0.24453 0.0
H1348 H 0.11286 0.61558 0.15596 0.0
H1349 H 0.11194 0.63255 0.08128 0.0
H1350 H 0.36859 0.54326 0.05249 0.0
H1351 H 0.38463 0.56045 0.12748 0.0
H1352 H 0.38929 0.51191 0.17672 0.0
H1353 H 0.3734 0.49451 0.10074 0.0
H1354 H 0.37477 0.55141 0.22665 0.0
H1355 H 0.44472 0.55643 0.18151 0.0
H1356 H 0.42578 0.54919 0.13647 0.0
H1357 H 0.42424 0.53262 0.18326 0.0
C1358 C 0.37301 0.53615 0.07908 0.0
C1359 C 0.36983 0.51752 0.07034 0.0
C1360 C 0.38211 0.54601 0.12211 0.0
C1361 C 0.38826 0.53752 0.15743 0.0
C1362 C 0.38488 0.51881 0.14948 0.0
H1363 H 0.46501 0.5966 0.40242 0.0
H1364 H 0.43948 0.57067 0.35468 0.0
C1365 C 0.3758 0.5089 0.10611 0.0
C1366 C 0.39878 0.54877 0.20149 0.0
H1367 H 0.44322 0.57145 0.25422 0.0
C1368 C 0.38969 0.55565 0.23311 0.0
C1369 C 0.41822 0.55427 0.20964 0.0
C1370 C 0.42893 0.54791 0.17582 0.0
C1371 C 0.39968 0.56823 0.27214 0.0
C1372 C 0.41928 0.5742 0.27924 0.0
C1373 C 0.42815 0.56678 0.24872 0.0
C1374 C 0.43141 0.58907 0.31575 0.0
C1375 C 0.38925 0.57514 0.30513 0.0
C1376 C 0.43482 0.60793 0.31108 0.0
C1377 C 0.44939 0.62284 0.33861 0.0
C1378 C 0.46089 0.61907 0.37054 0.0
C1379 C 0.45649 0.59997 0.3777 0.0
C1380 C 0.44189 0.58512 0.35053 0.0
H1381 H 0.37349 0.56509 0.30457 0.0
H1382 H 0.39443 0.57685 0.34389 0.0
H1383 H 0.39192 0.58931 0.29174 0.0
H1384 H 0.42713 0.61135 0.28379 0.0
H1385 H 0.45254 0.63743 0.33212 0.0
H1386 H 0.53953 0.86156 0.69792 0.0
H1387 H 0.53386 0.83936 0.62986 0.0
H1388 H 0.55694 0.81082 0.71755 0.0
H1389 H 0.5628 0.83297 0.78579 0.0
H1390 H 0.56668 0.81487 0.61325 0.0
H1391 H 0.48833 0.78363 0.64911 0.0
H1392 H 0.50213 0.80895 0.63627 0.0
H1393 H 0.50633 0.79967 0.69232 0.0
C1394 C 0.54384 0.85086 0.70241 0.0
C1395 C 0.55131 0.84882 0.7477 0.0
C1396 C 0.54048 0.83814 0.6635 0.0
C1397 C 0.54456 0.82323 0.66928 0.0
C1398 C 0.55357 0.82219 0.71266 0.0
H1399 H 0.52469 0.71654 0.58466 0.0
H1400 H 0.53004 0.74668 0.6201 0.0
C1401 C 0.55694 0.83489 0.75161 0.0
C1402 C 0.53786 0.80757 0.63262 0.0
H1403 H 0.49742 0.76703 0.5942 0.0
C1404 C 0.55154 0.80463 0.60821 0.0
C1405 C 0.51805 0.79425 0.62623 0.0
C1406 C 0.50278 0.7966 0.65247 0.0
C1407 C 0.54596 0.7882 0.57934 0.0
C1408 C 0.52625 0.77435 0.57544 0.0
C1409 C 0.51249 0.77779 0.59732 0.0
C1410 C 0.52016 0.75509 0.55552 0.0
C1411 C 0.56119 0.78526 0.55514 0.0
C1412 C 0.51188 0.74949 0.50841 0.0
C1413 C 0.50865 0.73209 0.48801 0.0
C1414 C 0.51378 0.7203 0.51465 0.0
C1415 C 0.52076 0.72543 0.56315 0.0
C1416 C 0.52388 0.74264 0.58339 0.0
H1417 H 0.57504 0.79895 0.55172 0.0
H1418 H 0.56367 0.77521 0.57794 0.0
H1419 H 0.5565 0.77881 0.51782 0.0
H1420 H 0.50883 0.75897 0.48665 0.0
H1421 H 0.50337 0.7285 0.45044 0.0
H1422 H 0.30374 0.82803 0.58285 0.0
H1423 H 0.27586 0.8016 0.62258 0.0
H1424 H 0.2612 0.76933 0.48653 0.0
H1425 H 0.28944 0.79596 0.44621 0.0
H1426 H 0.23124 0.77496 0.53049 0.0
H1427 H 0.26301 0.74713 0.666 0.0
H1428 H 0.27461 0.77287 0.66582 0.0
H1429 H 0.27578 0.76051 0.61163 0.0
C1430 C 0.29486 0.81512 0.56168 0.0
C1431 C 0.29871 0.81399 0.51152 0.0
C1432 C 0.27898 0.80001 0.58446 0.0
C1433 C 0.26658 0.7835 0.55754 0.0
C1434 C 0.27074 0.78194 0.5079 0.0
H1435 H 0.16042 0.69507 0.69643 0.0
H1436 H 0.18419 0.7118 0.63146 0.0
C1437 C 0.28688 0.79706 0.48509 0.0
C1438 C 0.24844 0.76902 0.58077 0.0
H1439 H 0.23148 0.742 0.68537 0.0
C1440 C 0.23115 0.76731 0.56363 0.0
C1441 C 0.24843 0.75916 0.62399 0.0
C1442 C 0.26644 0.75984 0.64271 0.0
C1443 C 0.21405 0.75696 0.59066 0.0
C1444 C 0.21441 0.74823 0.63554 0.0
C1445 C 0.23141 0.74897 0.65108 0.0
C1446 C 0.1977 0.73921 0.66886 0.0
C1447 C 0.19592 0.75618 0.5728 0.0
C1448 C 0.1971 0.74937 0.71028 0.0
C1449 C 0.18357 0.73992 0.74752 0.0
C1450 C 0.17056 0.72008 0.74404 0.0
C1451 C 0.17029 0.71033 0.70047 0.0
C1452 C 0.18384 0.71983 0.66325 0.0
H1453 H 0.19787 0.76331 0.53635 0.0
H1454 H 0.18426 0.74099 0.56971 0.0
H1455 H 0.19125 0.7633 0.60021 0.0
H1456 H 0.20779 0.76437 0.71506 0.0
H1457 H 0.18418 0.74788 0.78042 0.0
H1458 H 0.19003 0.50244 0.59624 0.0
H1459 H 0.21615 0.50061 0.63657 0.0
H1460 H 0.24705 0.51401 0.49844 0.0
H1461 H 0.22071 0.51599 0.45761 0.0
H1462 H 0.23974 0.47893 0.54366 0.0
H1463 H 0.27145 0.53878 0.67785 0.0
H1464 H 0.24569 0.52618 0.67962 0.0
H1465 H 0.258 0.53888 0.62438 0.0
C1466 C 0.20268 0.50564 0.57482 0.0
C1467 C 0.20344 0.50939 0.52395 0.0
C1468 C 0.21762 0.50465 0.59791 0.0
C1469 C 0.23357 0.50731 0.57054 0.0
C1470 C 0.23489 0.51209 0.52018 0.0
H1471 H 0.31527 0.47874 0.70648 0.0
H1472 H 0.2997 0.48745 0.64192 0.0
C1473 C 0.21997 0.51335 0.49705 0.0
C1474 C 0.24723 0.50247 0.59382 0.0
H1475 H 0.27352 0.51056 0.69908 0.0
C1476 C 0.24761 0.48613 0.57689 0.0
C1477 C 0.25739 0.51188 0.63715 0.0
C1478 C 0.25828 0.53003 0.65554 0.0
C1479 C 0.25677 0.47818 0.60431 0.0
C1480 C 0.26568 0.48684 0.64942 0.0
C1481 C 0.26636 0.50383 0.66469 0.0
C1482 C 0.27347 0.47801 0.68313 0.0
C1483 C 0.25599 0.46002 0.58669 0.0
C1484 C 0.26347 0.46914 0.72661 0.0
C1485 C 0.27224 0.46407 0.76356 0.0
C1486 C 0.29127 0.46807 0.75774 0.0
C1487 C 0.30064 0.47555 0.7123 0.0
C1488 C 0.2918 0.48056 0.67532 0.0
H1489 H 0.24818 0.45485 0.55106 0.0
H1490 H 0.2708 0.46258 0.58194 0.0
H1491 H 0.24879 0.44858 0.61496 0.0
H1492 H 0.24926 0.46708 0.73306 0.0
H1493 H 0.2646 0.45832 0.79796 0.0
H1494 H 0.20136 0.5235 0.29244 0.0
H1495 H 0.22218 0.5276 0.22272 0.0
H1496 H 0.18375 0.46926 0.17706 0.0
H1497 H 0.16254 0.46493 0.24712 0.0
H1498 H 0.23981 0.50517 0.20744 0.0
H1499 H 0.1944 0.50135 0.04806 0.0
H1500 H 0.18993 0.50622 0.1104 0.0
H1501 H 0.18311 0.48215 0.09227 0.0
C1502 C 0.19715 0.5115 0.26751 0.0
C1503 C 0.18025 0.49381 0.27558 0.0
C1504 C 0.2091 0.51394 0.22756 0.0
C1505 C 0.20441 0.49883 0.19452 0.0
C1506 C 0.18744 0.48121 0.20178 0.0
H1507 H 0.25955 0.47331 0.96361 0.0
H1508 H 0.23726 0.47651 0.01811 0.0
C1509 C 0.17542 0.47872 0.24198 0.0
C1510 C 0.21807 0.50121 0.15477 0.0
H1511 H 0.22324 0.50125 0.02951 0.0
C1512 C 0.23629 0.5045 0.16849 0.0
C1513 C 0.21337 0.50034 0.10415 0.0
C1514 C 0.1942 0.49748 0.08759 0.0
C1515 C 0.24976 0.50626 0.13293 0.0
C1516 C 0.24503 0.50519 0.08216 0.0
C1517 C 0.2269 0.50226 0.06842 0.0
C1518 C 0.25794 0.50503 0.04331 0.0
C1519 C 0.26858 0.50835 0.15019 0.0
C1520 C 0.27679 0.52042 0.03755 0.0
C1521 C 0.28973 0.5186 0.00648 0.0
C1522 C 0.28393 0.50138 0.98063 0.0
C1523 C 0.2646 0.48667 0.98354 0.0
C1524 C 0.25177 0.48849 0.01456 0.0
H1525 H 0.26824 0.50482 0.19004 0.0
H1526 H 0.27226 0.49888 0.12857 0.0
H1527 H 0.2802 0.52342 0.14473 0.0
H1528 H 0.2817 0.53351 0.05863 0.0
H1529 H 0.30447 0.53023 0.0048 0.0
H1530 H 0.49422 0.70021 0.28255 0.0
H1531 H 0.49074 0.71722 0.21254 0.0
H1532 H 0.54948 0.73731 0.17041 0.0
H1533 H 0.55317 0.72012 0.24076 0.0
H1534 H 0.51314 0.75724 0.19875 0.0
H1535 H 0.5188 0.71673 0.03937 0.0
H1536 H 0.51342 0.70705 0.10135 0.0
H1537 H 0.53759 0.72452 0.08473 0.0
C1538 C 0.50643 0.70809 0.25833 0.0
C1539 C 0.52404 0.70884 0.26751 0.0
C1540 C 0.50436 0.71778 0.21821 0.0
C1541 C 0.51976 0.72835 0.18607 0.0
C1542 C 0.5373 0.72894 0.19439 0.0
H1543 H 0.54552 0.80989 0.95571 0.0
H1544 H 0.54281 0.78458 0.0102 0.0
C1545 C 0.53943 0.71923 0.23476 0.0
C1546 C 0.51773 0.73984 0.14623 0.0
H1547 H 0.51865 0.74556 0.02099 0.0
C1548 C 0.51418 0.75461 0.15983 0.0
C1549 C 0.5191 0.73631 0.09563 0.0
C1550 C 0.52228 0.7202 0.07913 0.0
C1551 C 0.51254 0.7664 0.12424 0.0
C1552 C 0.51402 0.76298 0.07351 0.0
C1553 C 0.51732 0.74801 0.05986 0.0
C1554 C 0.51401 0.77599 0.03467 0.0
C1555 C 0.51007 0.7829 0.14146 0.0
C1556 C 0.49834 0.77897 0.0285 0.0
C1557 C 0.49988 0.79363 0.99745 0.0
C1558 C 0.51709 0.80542 0.97197 0.0
C1559 C 0.53213 0.80128 0.9753 0.0
C1560 C 0.5306 0.78674 0.00633 0.0
H1561 H 0.51342 0.78602 0.1814 0.0
H1562 H 0.51945 0.79613 0.12009 0.0
H1563 H 0.49494 0.77921 0.13566 0.0
H1564 H 0.48523 0.77051 0.04926 0.0
H1565 H 0.48798 0.79635 0.99546 0.0
H1566 H 0.31338 0.81477 0.27945 0.0
H1567 H 0.29634 0.79522 0.20813 0.0
H1568 H 0.28064 0.8371 0.16412 0.0
H1569 H 0.29747 0.85679 0.23633 0.0
H1570 H 0.25018 0.80047 0.16591 0.0
H1571 H 0.3103 0.80175 0.06268 0.0
H1572 H 0.30922 0.79452 0.12591 0.0
H1573 H 0.31406 0.81843 0.11198 0.0
C1574 C 0.30646 0.81999 0.2545 0.0
C1575 C 0.3068 0.83739 0.26371 0.0
C1576 C 0.29688 0.80883 0.21339 0.0
C1577 C 0.28758 0.8149 0.18025 0.0
C1578 C 0.28792 0.83228 0.18905 0.0
H1579 H 0.20927 0.7564 0.93787 0.0
H1580 H 0.23415 0.78107 0.98995 0.0
C1581 C 0.29749 0.84348 0.23037 0.0
C1582 C 0.2762 0.80225 0.13888 0.0
H1583 H 0.27854 0.77726 0.0394 0.0
C1584 C 0.25643 0.79561 0.13785 0.0
C1585 C 0.28439 0.79583 0.10253 0.0
C1586 C 0.30569 0.80315 0.10045 0.0
C1587 C 0.2445 0.78228 0.10237 0.0
C1588 C 0.25262 0.77562 0.06658 0.0
C1589 C 0.27241 0.7824 0.06705 0.0
C1590 C 0.24047 0.7614 0.02893 0.0
C1591 C 0.22317 0.77499 0.10428 0.0
C1592 C 0.2366 0.74236 0.03187 0.0
C1593 C 0.22241 0.72816 0.0019 0.0
C1594 C 0.21189 0.73288 0.96886 0.0
C1595 C 0.21693 0.75225 0.96345 0.0
C1596 C 0.23113 0.76639 0.99314 0.0
H1597 H 0.21878 0.7786 0.1398 0.0
H1598 H 0.21923 0.78164 0.07386 0.0
H1599 H 0.21491 0.75917 0.09917 0.0
H1600 H 0.24376 0.73831 0.05927 0.0
H1601 H 0.21885 0.71338 0.00691 0.0
H1602 H 0.16353 0.62064 0.89801 0.0
H1603 H 0.15696 0.58929 0.86557 0.0
H1604 H 0.14994 0.60618 0.71926 0.0
H1605 H 0.15623 0.6372 0.75116 0.0
H1606 H 0.11641 0.56746 0.78658 0.0
H1607 H 0.18778 0.57697 0.73573 0.0
H1608 H 0.18452 0.58866 0.78897 0.0
H1609 H 0.18385 0.59704 0.72799 0.0
C1610 C 0.16121 0.61785 0.8587 0.0
C1611 C 0.16034 0.63127 0.82702 0.0
C1612 C 0.15731 0.59994 0.84039 0.0
C1613 C 0.15285 0.59552 0.79022 0.0
C1614 C 0.15333 0.60941 0.75811 0.0
H1615 H 0.10495 0.51803 0.56187 0.0
H1616 H 0.10991 0.53846 0.63333 0.0
C1617 C 0.15698 0.62711 0.77634 0.0
C1618 C 0.14588 0.57597 0.77107 0.0
H1619 H 0.16034 0.55037 0.70089 0.0
C1620 C 0.12598 0.56342 0.76887 0.0
C1621 C 0.15844 0.57085 0.74831 0.0
C1622 C 0.17989 0.58398 0.7503 0.0
C1623 C 0.11823 0.54629 0.74164 0.0
C1624 C 0.13076 0.54186 0.71559 0.0
C1625 C 0.15072 0.5538 0.72083 0.0
C1626 C 0.12372 0.52645 0.67791 0.0
C1627 C 0.09673 0.53346 0.73958 0.0
C1628 C 0.12927 0.51248 0.67979 0.0
C1629 C 0.12647 0.50077 0.63886 0.0
C1630 C 0.11832 0.50303 0.59505 0.0
C1631 C 0.11127 0.51589 0.5949 0.0
C1632 C 0.11404 0.52757 0.63591 0.0
H1633 H 0.08979 0.53507 0.77333 0.0
H1634 H 0.09103 0.53757 0.70731 0.0
H1635 H 0.09266 0.51814 0.73553 0.0
H1636 H 0.13676 0.5114 0.71184 0.0
H1637 H 0.13197 0.49092 0.64046 0.0
H1638 H 0.37932 0.52728 0.75386 0.0
H1639 H 0.40965 0.55142 0.71812 0.0
H1640 H 0.4213 0.58698 0.8473 0.0
H1641 H 0.39065 0.56258 0.88406 0.0
H1642 H 0.42904 0.60524 0.74204 0.0
H1643 H 0.46244 0.56075 0.7821 0.0
H1644 H 0.43877 0.54783 0.75572 0.0
H1645 H 0.44199 0.55841 0.816 0.0
C1646 C 0.38816 0.54031 0.7746 0.0
C1647 C 0.38269 0.54294 0.82206 0.0
C1648 C 0.40552 0.55405 0.75414 0.0
C1649 C 0.41781 0.57069 0.78061 0.0
C1650 C 0.41199 0.57406 0.82668 0.0
H1651 H 0.52192 0.65893 0.63165 0.0
H1652 H 0.50065 0.64229 0.70127 0.0
C1653 C 0.39448 0.56021 0.84739 0.0
C1654 C 0.43688 0.58401 0.75969 0.0
H1655 H 0.47743 0.58473 0.71913 0.0
C1656 C 0.43992 0.60112 0.73806 0.0
C1657 C 0.45092 0.57843 0.75464 0.0
C1658 C 0.4485 0.56042 0.7787 0.0
C1659 C 0.45607 0.61215 0.70824 0.0
C1660 C 0.46957 0.60594 0.70075 0.0
C1661 C 0.46706 0.58942 0.72494 0.0
C1662 C 0.48495 0.61508 0.66329 0.0
C1663 C 0.45786 0.62959 0.68221 0.0
C1664 C 0.48399 0.6049 0.62023 0.0
C1665 C 0.49621 0.61428 0.58045 0.0
C1666 C 0.50956 0.63405 0.58312 0.0
C1667 C 0.51164 0.64375 0.6281 0.0
C1668 C 0.49943 0.63432 0.66788 0.0
H1669 H 0.44466 0.63065 0.68591 0.0
H1670 H 0.47001 0.64274 0.69838 0.0
H1671 H 0.46088 0.62925 0.64227 0.0
H1672 H 0.47298 0.58997 0.61619 0.0
H1673 H 0.49426 0.60634 0.54654 0.0
H1674 H 0.4098 0.90965 0.54229 0.0
H1675 H 0.42618 0.90444 0.61144 0.0
H1676 H 0.374 0.87994 0.69709 0.0
H1677 H 0.35736 0.88487 0.62795 0.0
H1678 H 0.43174 0.91368 0.71438 0.0
H1679 H 0.38495 0.83523 0.67965 0.0
H1680 H 0.38649 0.85314 0.63675 0.0
H1681 H 0.37311 0.84866 0.69311 0.0
C1682 C 0.4019 0.90365 0.57625 0.0
C1683 C 0.38217 0.89734 0.57918 0.0
C1684 C 0.41129 0.90064 0.61574 0.0
C1685 C 0.40113 0.89134 0.65877 0.0
C1686 C 0.38195 0.88674 0.66371 0.0
H1687 H 0.45438 0.85069 0.88056 0.0
H1688 H 0.42982 0.85674 0.84396 0.0
C1689 C 0.37252 0.88969 0.6242 0.0
C1690 C 0.41018 0.88478 0.69571 0.0
H1691 H 0.41028 0.8445 0.73582 0.0
C1692 C 0.42684 0.89856 0.71989 0.0
C1693 C 0.40373 0.865 0.7027 0.0
C1694 C 0.38617 0.84958 0.67655 0.0
C1695 C 0.43769 0.89309 0.74919 0.0
C1696 C 0.4318 0.8734 0.75392 0.0
C1697 C 0.41461 0.85956 0.73215 0.0
C1698 C 0.4449 0.86732 0.77463 0.0
C1699 C 0.45591 0.90841 0.77303 0.0
C1700 C 0.46088 0.87049 0.74676 0.0
C1701 C 0.47472 0.867 0.76719 0.0
C1702 C 0.47284 0.86024 0.81597 0.0
C1703 C 0.45614 0.85581 0.84281 0.0
C1704 C 0.44221 0.85938 0.82217 0.0
H1705 H 0.45623 0.92237 0.77527 0.0
H1706 H 0.45752 0.90399 0.81083 0.0
H1707 H 0.46841 0.91052 0.75074 0.0
H1708 H 0.46301 0.87638 0.70974 0.0
H1709 H 0.48734 0.87039 0.74541 0.0
H1710 H 0.06864 0.28817 0.71782 0.0
H1711 H 0.08463 0.31786 0.66949 0.0
H1712 H 0.03964 0.29283 0.56011 0.0
H1713 H 0.02328 0.26339 0.60877 0.0
H1714 H 0.09893 0.32474 0.57606 0.0
H1715 H 0.04048 0.34225 0.59004 0.0
H1716 H 0.04089 0.32383 0.62718 0.0
H1717 H 0.03286 0.31902 0.56398 0.0
C1718 C 0.0621 0.28903 0.68361 0.0
C1719 C 0.04458 0.2735 0.66746 0.0
C1720 C 0.07128 0.30598 0.65598 0.0
C1721 C 0.06315 0.30768 0.61164 0.0
C1722 C 0.04591 0.29204 0.59485 0.0
H1723 H 0.10242 0.40573 0.40967 0.0
H1724 H 0.08769 0.37254 0.44016 0.0
C1725 C 0.03661 0.27518 0.62269 0.0
C1726 C 0.07277 0.3258 0.58294 0.0
H1727 H 0.06651 0.36194 0.53748 0.0
C1728 C 0.09182 0.33285 0.56755 0.0
C1729 C 0.06346 0.33636 0.5718 0.0
C1730 C 0.04337 0.3301 0.58948 0.0
C1731 C 0.10186 0.35026 0.5417 0.0
C1732 C 0.09259 0.36082 0.53105 0.0
C1733 C 0.07344 0.35361 0.54532 0.0
C1734 C 0.10304 0.38032 0.5097 0.0
C1735 C 0.12236 0.35739 0.52633 0.0
C1736 C 0.11658 0.39551 0.53866 0.0
C1737 C 0.12479 0.41436 0.52173 0.0
C1738 C 0.11969 0.41837 0.47535 0.0
C1739 C 0.1067 0.40305 0.44542 0.0
C1740 C 0.09826 0.38414 0.46277 0.0
H1741 H 0.12604 0.34578 0.52747 0.0
H1742 H 0.12498 0.36349 0.48841 0.0
H1743 H 0.13214 0.36896 0.55192 0.0
H1744 H 0.12025 0.39283 0.57522 0.0
H1745 H 0.13481 0.42586 0.54555 0.0
H1746 H 0.74222 0.76838 0.63903 0.0
H1747 H 0.71271 0.75622 0.59102 0.0
H1748 H 0.71194 0.80871 0.61862 0.0
H1749 H 0.74106 0.82061 0.66866 0.0
H1750 H 0.67812 0.77999 0.63207 0.0
H1751 H 0.70372 0.76776 0.45415 0.0
H1752 H 0.70794 0.75505 0.5024 0.0
H1753 H 0.71995 0.78093 0.50395 0.0
C1754 C 0.73581 0.77738 0.63469 0.0
C1755 C 0.74395 0.79545 0.65762 0.0
C1756 C 0.71905 0.7705 0.60671 0.0
C1757 C 0.71036 0.78175 0.59995 0.0
C1758 C 0.71847 0.79982 0.6229 0.0
H1759 H 0.60843 0.73563 0.40521 0.0
H1760 H 0.64116 0.75661 0.43656 0.0
C1761 C 0.73506 0.80658 0.65166 0.0
C1762 C 0.69204 0.77401 0.57213 0.0
H1763 H 0.66921 0.74961 0.46718 0.0
C1764 C 0.67631 0.77366 0.59563 0.0
C1765 C 0.68966 0.76616 0.52399 0.0
C1766 C 0.70631 0.76771 0.4945 0.0
C1767 C 0.65807 0.76467 0.57375 0.0
C1768 C 0.65532 0.75515 0.52789 0.0
C1769 C 0.67125 0.75656 0.50283 0.0
C1770 C 0.63584 0.74245 0.50766 0.0
C1771 C 0.64189 0.76528 0.6004 0.0
C1772 C 0.62227 0.72723 0.53655 0.0
C1773 C 0.60369 0.71545 0.51909 0.0
C1774 C 0.59832 0.71836 0.47181 0.0
C1775 C 0.61214 0.73309 0.44185 0.0
C1776 C 0.63079 0.74509 0.45973 0.0
H1777 H 0.64739 0.77835 0.62377 0.0
H1778 H 0.63117 0.76505 0.57406 0.0
H1779 H 0.63456 0.75263 0.62516 0.0
H1780 H 0.62602 0.72448 0.57292 0.0
H1781 H 0.59352 0.70402 0.54281 0.0
H1782 H 0.24584 0.99357 0.63752 0.0
H1783 H 0.25847 0.97678 0.58879 0.0
H1784 H 0.20615 0.92309 0.61375 0.0
H1785 H 0.19386 0.9397 0.66464 0.0
H1786 H 0.23467 0.91814 0.62829 0.0
H1787 H 0.24833 0.95697 0.45148 0.0
H1788 H 0.26068 0.97363 0.50049 0.0
H1789 H 0.23479 0.95979 0.5007 0.0
C1790 C 0.237 0.9782 0.63236 0.0
C1791 C 0.2189 0.96793 0.65497 0.0
C1792 C 0.24414 0.96864 0.60398 0.0
C1793 C 0.23308 0.94872 0.59645 0.0
C1794 C 0.21491 0.93848 0.61872 0.0
H1795 H 0.28038 0.89406 0.40226 0.0
H1796 H 0.25937 0.9058 0.43338 0.0
C1797 C 0.20793 0.94797 0.64795 0.0
C1798 C 0.24114 0.93839 0.5689 0.0
H1799 H 0.26633 0.94049 0.46512 0.0
C1800 C 0.24128 0.92285 0.59221 0.0
C1801 C 0.24938 0.94413 0.52123 0.0
C1802 C 0.24808 0.9594 0.49186 0.0
C1803 C 0.25037 0.91367 0.57057 0.0
C1804 C 0.26024 0.92068 0.52525 0.0
C1805 C 0.25911 0.9354 0.50039 0.0
C1806 C 0.27294 0.91387 0.50532 0.0
C1807 C 0.24942 0.89665 0.59685 0.0
C1808 C 0.28782 0.91504 0.53486 0.0
C1809 C 0.29958 0.90819 0.51756 0.0
C1810 C 0.29701 0.90038 0.46981 0.0
C1811 C 0.28262 0.89993 0.43929 0.0
C1812 C 0.27063 0.9066 0.45701 0.0
H1813 H 0.23614 0.88899 0.61944 0.0
H1814 H 0.24981 0.88631 0.57035 0.0
H1815 H 0.26184 0.90174 0.62235 0.0
H1816 H 0.29033 0.92123 0.57157 0.0
H1817 H 0.31075 0.9091 0.5417 0.0
H1818 H 0.27143 0.06823 0.74239 0.0
H1819 H 0.30397 0.08929 0.77471 0.0
H1820 H 0.2908 0.05234 0.90189 0.0
H1821 H 0.25838 0.0319 0.87103 0.0
H1822 H 0.30685 0.08871 0.92923 0.0
H1823 H 0.34993 0.08189 0.77809 0.0
H1824 H 0.33417 0.09052 0.75924 0.0
H1825 H 0.32426 0.06644 0.78241 0.0
C1826 C 0.27562 0.06457 0.77696 0.0
C1827 C 0.26238 0.0485 0.80432 0.0
C1828 C 0.29421 0.07655 0.79531 0.0
C1829 C 0.29987 0.07233 0.84062 0.0
C1830 C 0.28674 0.05598 0.86705 0.0
H1831 H 0.40779 0.10266 0.96843 0.0
H1832 H 0.37757 0.08963 0.92329 0.0
C1833 C 0.2682 0.04428 0.8493 0.0
C1834 C 0.31913 0.08501 0.86227 0.0
H1835 H 0.367 0.10196 0.84498 0.0
C1836 C 0.32004 0.09172 0.91071 0.0
C1837 C 0.33628 0.08887 0.83805 0.0
C1838 C 0.3362 0.08145 0.78675 0.0
C1839 C 0.33746 0.10137 0.93653 0.0
C1840 C 0.35462 0.1051 0.91251 0.0
C1841 C 0.35383 0.09913 0.86328 0.0
C1842 C 0.37325 0.11361 0.93905 0.0
C1843 C 0.33708 0.10645 0.99012 0.0
C1844 C 0.38098 0.13151 0.96278 0.0
C1845 C 0.3981 0.13881 0.98963 0.0
C1846 C 0.40802 0.12856 0.99209 0.0
C1847 C 0.40049 0.1109 0.96724 0.0
C1848 C 0.38325 0.10347 0.94124 0.0
H1849 H 0.32242 0.09827 0.00613 0.0
H1850 H 0.34689 0.10358 0.01277 0.0
H1851 H 0.34181 0.12196 0.993 0.0
H1852 H 0.37379 0.13983 0.96055 0.0
H1853 H 0.40371 0.1526 0.00776 0.0
H1854 H 0.9638 0.24635 0.74506 0.0
H1855 H 0.94531 0.26095 0.77605 0.0
H1856 H 0.93906 0.23357 0.91726 0.0
H1857 H 0.95751 0.21905 0.88711 0.0
H1858 H 0.90331 0.23365 0.8634 0.0
H1859 H 0.97046 0.30333 0.8971 0.0
H1860 H 0.96761 0.29056 0.84003 0.0
H1861 H 0.97045 0.28086 0.89696 0.0
C1862 C 0.95827 0.24324 0.78248 0.0
C1863 C 0.96226 0.23168 0.81377 0.0
C1864 C 0.94775 0.25159 0.80006 0.0
C1865 C 0.94095 0.24832 0.84887 0.0
C1866 C 0.94422 0.2362 0.87946 0.0
H1867 H 0.87872 0.28054 0.04985 0.0
H1868 H 0.89218 0.26405 0.00284 0.0
C1869 C 0.95484 0.22801 0.86217 0.0
C1870 C 0.93151 0.25846 0.86957 0.0
H1871 H 0.94149 0.30075 0.92356 0.0
C1872 C 0.91156 0.24838 0.87618 0.0
C1873 C 0.94241 0.27763 0.88603 0.0
C1874 C 0.96395 0.28885 0.87997 0.0
C1875 C 0.90215 0.25702 0.89935 0.0
C1876 C 0.91315 0.27602 0.91749 0.0
C1877 C 0.93309 0.28618 0.9098 0.0
C1878 C 0.90441 0.28562 0.94529 0.0
C1879 C 0.88056 0.24578 0.90372 0.0
C1880 C 0.90729 0.30347 0.92938 0.0
C1881 C 0.89992 0.31308 0.95659 0.0
C1882 C 0.88948 0.305 0.00032 0.0
C1883 C 0.88659 0.28709 0.0162 0.0
C1884 C 0.89413 0.27756 0.98912 0.0
H1885 H 0.87406 0.23431 0.87525 0.0
H1886 H 0.87658 0.23879 0.94057 0.0
H1887 H 0.87429 0.25528 0.89995 0.0
H1888 H 0.91528 0.31 0.89584 0.0
H1889 H 0.90237 0.32681 0.94314 0.0
H1890 H 0.77424 0.73836 0.73671 0.0
H1891 H 0.75872 0.70534 0.76873 0.0
H1892 H 0.77037 0.72709 0.91792 0.0
H1893 H 0.78577 0.75985 0.88686 0.0
H1894 H 0.77449 0.68777 0.83923 0.0
H1895 H 0.71068 0.69002 0.90893 0.0
H1896 H 0.72658 0.70643 0.86252 0.0
H1897 H 0.73338 0.71019 0.9266 0.0
C1898 C 0.77357 0.7361 0.77631 0.0
C1899 C 0.78111 0.75176 0.80918 0.0
C1900 C 0.76474 0.71726 0.79447 0.0
C1901 C 0.76323 0.71388 0.84562 0.0
C1902 C 0.77119 0.72945 0.87832 0.0
H1903 H 0.73728 0.61763 0.03382 0.0
H1904 H 0.75244 0.64746 0.98594 0.0
C1905 C 0.78001 0.74818 0.86037 0.0
C1906 C 0.75304 0.69416 0.86563 0.0
H1907 H 0.71483 0.66437 0.93779 0.0
C1908 C 0.76133 0.6825 0.86032 0.0
C1909 C 0.73581 0.68736 0.89269 0.0
C1910 C 0.72595 0.69905 0.89778 0.0
C1911 C 0.75313 0.66439 0.88307 0.0
C1912 C 0.73641 0.658 0.91219 0.0
C1913 C 0.72777 0.6694 0.91586 0.0
C1914 C 0.72763 0.63963 0.93967 0.0
C1915 C 0.76242 0.65226 0.87579 0.0
C1916 C 0.70855 0.62555 0.93019 0.0
C1917 C 0.6998 0.60861 0.95771 0.0
C1918 C 0.70993 0.60543 0.99552 0.0
C1919 C 0.72908 0.61959 0.00494 0.0
C1920 C 0.73783 0.63657 0.97733 0.0
H1921 H 0.77177 0.65676 0.84251 0.0
H1922 H 0.77148 0.65388 0.90843 0.0
H1923 H 0.75143 0.63684 0.87212 0.0
H1924 H 0.70041 0.62772 0.90152 0.0
H1925 H 0.68504 0.59804 0.94935 0.0
H1926 H 0.87506 0.59713 0.4391 0.0
H1927 H 0.89031 0.62979 0.40647 0.0
H1928 H 0.91642 0.65212 0.54827 0.0
H1929 H 0.90114 0.61935 0.58175 0.0
H1930 H 0.89193 0.6682 0.46569 0.0
H1931 H 0.95799 0.66532 0.41848 0.0
H1932 H 0.9347 0.64382 0.41655 0.0
H1933 H 0.94494 0.65466 0.47486 0.0
C1934 C 0.88388 0.60895 0.46365 0.0
C1935 C 0.88701 0.60563 0.51298 0.0
C1936 C 0.8925 0.62758 0.44492 0.0
C1937 C 0.90444 0.6432 0.47503 0.0
C1938 C 0.90716 0.64012 0.52468 0.0
H1939 H 0.98611 0.75839 0.37607 0.0
H1940 H 0.96889 0.7285 0.42255 0.0
C1941 C 0.89843 0.62143 0.54366 0.0
C1942 C 0.91505 0.66253 0.45312 0.0
H1943 H 0.9565 0.69235 0.39188 0.0
C1944 C 0.90611 0.67364 0.44987 0.0
C1945 C 0.93349 0.66941 0.43275 0.0
C1946 C 0.94349 0.65779 0.4356 0.0
C1947 C 0.91521 0.69158 0.42615 0.0
C1948 C 0.93346 0.69823 0.40424 0.0
C1949 C 0.94248 0.68719 0.40848 0.0
C1950 C 0.94349 0.71654 0.37652 0.0
C1951 C 0.90528 0.7033 0.42523 0.0
C1952 C 0.93502 0.71964 0.33475 0.0
C1953 C 0.9448 0.73679 0.30811 0.0
C1954 C 0.96334 0.75104 0.32242 0.0
C1955 C 0.97187 0.74773 0.36389 0.0
C1956 C 0.96204 0.73066 0.39063 0.0
H1957 H 0.8945 0.69899 0.45536 0.0
H1958 H 0.91577 0.71887 0.42887 0.0
H1959 H 0.89763 0.70094 0.3895 0.0
H1960 H 0.92092 0.70871 0.32241 0.0
H1961 H 0.93786 0.73883 0.2762 0.0
H1962 H 0.2656 0.20236 0.33128 0.0
H1963 H 0.29525 0.21461 0.37922 0.0
H1964 H 0.29636 0.26838 0.39986 0.0
H1965 H 0.26636 0.25595 0.35394 0.0
H1966 H 0.32939 0.24268 0.36197 0.0
H1967 H 0.30584 0.25864 0.53826 0.0
H1968 H 0.2891 0.24484 0.48997 0.0
H1969 H 0.30158 0.27073 0.48846 0.0
C1970 C 0.27213 0.21676 0.3463 0.0
C1971 C 0.26361 0.22817 0.33907 0.0
C1972 C 0.28903 0.22371 0.37383 0.0
C1973 C 0.29781 0.24225 0.39425 0.0
C1974 C 0.28951 0.25379 0.38612 0.0
H1975 H 0.41585 0.31841 0.44624 0.0
H1976 H 0.38332 0.29802 0.4161 0.0
C1977 C 0.27246 0.24674 0.35936 0.0
C1978 C 0.3163 0.25006 0.42116 0.0
H1979 H 0.34019 0.27572 0.52359 0.0
C1980 C 0.33164 0.24961 0.3977 0.0
C1981 C 0.3192 0.25869 0.46842 0.0
C1982 C 0.30296 0.25805 0.49792 0.0
C1983 C 0.35002 0.25852 0.41878 0.0
C1984 C 0.35331 0.26876 0.46366 0.0
C1985 C 0.33775 0.26821 0.48866 0.0
C1986 C 0.37296 0.28121 0.4832 0.0
C1987 C 0.36573 0.25697 0.39241 0.0
C1988 C 0.37775 0.27919 0.53193 0.0
C1989 C 0.39638 0.29117 0.54978 0.0
C1990 C 0.41047 0.30528 0.51902 0.0
C1991 C 0.40544 0.30748 0.47066 0.0
C1992 C 0.38686 0.29572 0.45318 0.0
H1993 H 0.35975 0.2435 0.37051 0.0
H1994 H 0.37314 0.26916 0.36628 0.0
H1995 H 0.37649 0.25732 0.4188 0.0
H1996 H 0.36715 0.26822 0.55592 0.0
H1997 H 0.39983 0.28917 0.58725 0.0
H1998 H 0.76612 0.03076 0.37865 0.0
H1999 H 0.75185 0.04721 0.42188 0.0
H2000 H 0.78902 0.09938 0.34267 0.0
H2001 H 0.8036 0.08311 0.29924 0.0
H2002 H 0.78536 0.10377 0.44855 0.0
H2003 H 0.71521 0.06226 0.3521 0.0
H2004 H 0.72403 0.04809 0.38129 0.0
H2005 H 0.73688 0.06328 0.32993 0.0
C2006 C 0.77133 0.04574 0.37033 0.0
C2007 C 0.78591 0.05557 0.33507 0.0
C2008 C 0.76312 0.05509 0.39509 0.0
C2009 C 0.76926 0.07441 0.385 0.0
C2010 C 0.78409 0.08443 0.3508 0.0
H2011 H 0.71078 0.13705 0.43886 0.0
H2012 H 0.72873 0.1225 0.40612 0.0
C2013 C 0.79233 0.07508 0.32591 0.0
C2014 C 0.75976 0.08395 0.4091 0.0
H2015 H 0.71698 0.08309 0.41602 0.0
C2016 C 0.77041 0.09928 0.44158 0.0
C2017 C 0.74031 0.07808 0.3995 0.0
C2018 C 0.72842 0.06213 0.36352 0.0
C2019 C 0.76203 0.1089 0.46498 0.0
C2020 C 0.74252 0.10287 0.45574 0.0
C2021 C 0.73191 0.08755 0.42323 0.0
C2022 C 0.73296 0.11284 0.47717 0.0
C2023 C 0.77415 0.12568 0.49844 0.0
C2024 C 0.72951 0.11232 0.52818 0.0
C2025 C 0.71918 0.12065 0.54725 0.0
C2026 C 0.71208 0.12952 0.51545 0.0
C2027 C 0.71594 0.13028 0.46449 0.0
C2028 C 0.72622 0.12199 0.44561 0.0
H2029 H 0.78971 0.13073 0.49447 0.0
H2030 H 0.7717 0.13784 0.49047 0.0
H2031 H 0.77 0.1213 0.53746 0.0
H2032 H 0.73438 0.10507 0.55303 0.0
H2033 H 0.71641 0.11977 0.58663 0.0
H2034 H 0.59995 0.92743 0.01342 0.0
H2035 H 0.63011 0.94076 0.05918 0.0
H2036 H 0.63089 0.88794 0.03845 0.0
H2037 H 0.60108 0.87477 0.99087 0.0
H2038 H 0.63962 0.92995 0.143 0.0
H2039 H 0.68307 0.92636 0.98815 0.0
H2040 H 0.65905 0.92216 0.97941 0.0
H2041 H 0.66284 0.90355 0.00426 0.0
C2042 C 0.6066 0.91868 0.01836 0.0
C2043 C 0.59827 0.90014 0.99806 0.0
C2044 C 0.62379 0.92629 0.04469 0.0
C2045 C 0.63291 0.91546 0.05163 0.0
C2046 C 0.62438 0.89675 0.03245 0.0
H2047 H 0.73261 0.95801 0.25319 0.0
H2048 H 0.70001 0.93866 0.21961 0.0
C2049 C 0.60733 0.88923 0.00538 0.0
C2050 C 0.65145 0.92398 0.07845 0.0
H2051 H 0.69852 0.93671 0.06523 0.0
C2052 C 0.65252 0.93141 0.12611 0.0
C2053 C 0.66825 0.92593 0.05617 0.0
C2054 C 0.66835 0.91925 0.00404 0.0
C2055 C 0.67004 0.94121 0.1516 0.0
C2056 C 0.68682 0.94313 0.1293 0.0
C2057 C 0.68561 0.93515 0.08233 0.0
C2058 C 0.70613 0.95486 0.15146 0.0
C2059 C 0.67056 0.95014 0.20107 0.0
C2060 C 0.7204 0.97016 0.12411 0.0
C2061 C 0.73896 0.98088 0.14263 0.0
C2062 C 0.74367 0.97668 0.18924 0.0
C2063 C 0.72932 0.96163 0.21731 0.0
C2064 C 0.7107 0.95064 0.19827 0.0
H2065 H 0.65747 0.95122 0.20743 0.0
H2066 H 0.6714 0.94111 0.23089 0.0
H2067 H 0.68334 0.96473 0.20404 0.0
H2068 H 0.71719 0.97374 0.08804 0.0
H2069 H 0.74965 0.99249 0.12027 0.0
H2070 H 0.04505 0.80096 0.10088 0.0
H2071 H 0.06224 0.78557 0.06838 0.0
H2072 H 0.06611 0.76672 0.21498 0.0
H2073 H 0.0488 0.7822 0.24839 0.0
H2074 H 0.1015 0.78292 0.15118 0.0
H2075 H 0.03528 0.72523 0.06288 0.0
H2076 H 0.04035 0.74928 0.05023 0.0
H2077 H 0.03473 0.74009 0.11222 0.0
C2078 C 0.04961 0.79367 0.1265 0.0
C2079 C 0.04533 0.79264 0.17727 0.0
C2080 C 0.05944 0.78487 0.10774 0.0
C2081 C 0.06516 0.77483 0.13921 0.0
C2082 C 0.06168 0.77438 0.19017 0.0
H2083 H 0.09618 0.69209 0.03372 0.0
H2084 H 0.08268 0.70874 0.0793 0.0
C2085 C 0.05179 0.7832 0.20912 0.0
C2086 C 0.07401 0.76416 0.11802 0.0
H2087 H 0.06468 0.72723 0.0398 0.0
C2088 C 0.09348 0.77065 0.12713 0.0
C2089 C 0.06339 0.74808 0.08711 0.0
C2090 C 0.04223 0.7401 0.07773 0.0
C2091 C 0.10277 0.76172 0.10481 0.0
C2092 C 0.09231 0.74611 0.07227 0.0
C2093 C 0.07271 0.73932 0.0644 0.0
C2094 C 0.10129 0.73644 0.04602 0.0
C2095 C 0.12364 0.76898 0.11642 0.0
C2096 C 0.11612 0.74649 0.01177 0.0
C2097 C 0.1239 0.73701 0.98545 0.0
C2098 C 0.11687 0.71727 0.99276 0.0
C2099 C 0.10195 0.70728 0.02705 0.0
C2100 C 0.09422 0.71677 0.05328 0.0
H2101 H 0.12813 0.77753 0.1511 0.0
H2102 H 0.12652 0.75688 0.12004 0.0
H2103 H 0.13263 0.77836 0.08582 0.0
H2104 H 0.12149 0.7616 0.00485 0.0
H2105 H 0.13534 0.74512 0.95929 0.0
H2106 H 0.2212 0.28318 0.25546 0.0
H2107 H 0.23315 0.31565 0.2225 0.0
H2108 H 0.24922 0.29915 0.08683 0.0
H2109 H 0.23687 0.26675 0.11861 0.0
H2110 H 0.26791 0.34293 0.19177 0.0
H2111 H 0.21751 0.3211 0.03458 0.0
H2112 H 0.21451 0.30492 0.08446 0.0
H2113 H 0.23046 0.30832 0.03377 0.0
C2114 C 0.22729 0.28652 0.21862 0.0
C2115 C 0.22788 0.27236 0.18939 0.0
C2116 C 0.23406 0.30503 0.19982 0.0
C2117 C 0.24157 0.30964 0.15168 0.0
C2118 C 0.24287 0.29573 0.12338 0.0
H2119 H 0.32115 0.41706 0.02178 0.0
H2120 H 0.30425 0.38696 0.06748 0.0
C2121 C 0.23592 0.27724 0.14179 0.0
C2122 C 0.24853 0.32907 0.13094 0.0
H2123 H 0.24621 0.35207 0.02742 0.0
C2124 C 0.26298 0.34499 0.15619 0.0
C2125 C 0.24174 0.33184 0.08513 0.0
C2126 C 0.22504 0.31564 0.05825 0.0
C2127 C 0.27159 0.36346 0.13549 0.0
C2128 C 0.26599 0.36591 0.08761 0.0
C2129 C 0.25078 0.35016 0.0637 0.0
C2130 C 0.27622 0.38441 0.06064 0.0
C2131 C 0.28659 0.38009 0.1652 0.0
C2132 C 0.266 0.39261 0.03966 0.0
C2133 C 0.27558 0.40961 0.01236 0.0
C2134 C 0.29559 0.41877 0.00586 0.0
C2135 C 0.30576 0.41047 0.02662 0.0
C2136 C 0.29614 0.39335 0.05322 0.0
H2137 H 0.2842 0.37725 0.20553 0.0
H2138 H 0.30098 0.38214 0.15641 0.0
H2139 H 0.28661 0.39362 0.15672 0.0
H2140 H 0.2506 0.38587 0.04451 0.0
H2141 H 0.26736 0.4157 0.99694 0.0
H2142 H 0.94423 0.3909 0.0714 0.0
H2143 H 0.97747 0.40803 0.10196 0.0
H2144 H 0.95676 0.40237 0.25146 0.0
H2145 H 0.92377 0.38546 0.22185 0.0
H2146 H 0.99629 0.44334 0.1731 0.0
H2147 H 0.99173 0.37597 0.24167 0.0
H2148 H 0.97625 0.37622 0.19353 0.0
H2149 H 0.97177 0.37924 0.25699 0.0
C2150 C 0.94677 0.39347 0.11072 0.0
C2151 C 0.93131 0.38666 0.14418 0.0
C2152 C 0.96573 0.40325 0.12803 0.0
C2153 C 0.96942 0.40622 0.1789 0.0
C2154 C 0.95411 0.40002 0.21209 0.0
H2155 H 0.06469 0.47329 0.37006 0.0
H2156 H 0.03534 0.45933 0.32048 0.0
C2157 C 0.93525 0.39036 0.19497 0.0
C2158 C 0.98918 0.41516 0.19833 0.0
H2159 H 0.01819 0.40529 0.26956 0.0
C2160 C 0.00124 0.43506 0.19366 0.0
C2161 C 0.99554 0.40421 0.22472 0.0
C2162 C 0.98325 0.38269 0.22936 0.0
C2163 C 0.01934 0.44444 0.21656 0.0
C2164 C 0.02529 0.43359 0.24514 0.0
C2165 C 0.01351 0.41358 0.24796 0.0
C2166 C 0.04341 0.44269 0.27368 0.0
C2167 C 0.03189 0.46585 0.21025 0.0
C2168 C 0.05744 0.43759 0.26451 0.0
C2169 C 0.07415 0.4454 0.29299 0.0
C2170 C 0.07709 0.45837 0.33149 0.0
C2171 C 0.06293 0.46338 0.34069 0.0
C2172 C 0.04622 0.45556 0.3121 0.0
H2173 H 0.02776 0.47109 0.17701 0.0
H2174 H 0.03027 0.47321 0.24306 0.0
H2175 H 0.04725 0.46998 0.20709 0.0
H2176 H 0.05545 0.42754 0.23529 0.0
H2177 H 0.08473 0.44121 0.28484 0.0
H2178 H 0.62953 0.55751 0.2186 0.0
H2179 H 0.61184 0.57283 0.24771 0.0
H2180 H 0.60794 0.58946 0.09849 0.0
H2181 H 0.62575 0.574 0.0685 0.0
H2182 H 0.62541 0.61322 0.23186 0.0
H2183 H 0.55198 0.56502 0.15754 0.0
H2184 H 0.56929 0.55715 0.16558 0.0
H2185 H 0.57194 0.57296 0.11563 0.0
C2186 C 0.62481 0.56424 0.19167 0.0
C2187 C 0.62919 0.56463 0.14116 0.0
C2188 C 0.61466 0.57298 0.20848 0.0
C2189 C 0.60858 0.58221 0.17525 0.0
C2190 C 0.61238 0.58221 0.12459 0.0
H2191 H 0.57507 0.66433 0.27774 0.0
H2192 H 0.58925 0.64863 0.23046 0.0
C2193 C 0.62258 0.57343 0.10759 0.0
C2194 C 0.59943 0.59284 0.19481 0.0
H2195 H 0.55656 0.59172 0.2045 0.0
C2196 C 0.6104 0.60867 0.22555 0.0
C2197 C 0.57984 0.58667 0.18669 0.0
C2198 C 0.56743 0.56946 0.15481 0.0
C2199 C 0.60221 0.61834 0.24927 0.0
C2200 C 0.58258 0.61213 0.24144 0.0
C2201 C 0.57164 0.59646 0.21011 0.0
C2202 C 0.57305 0.62125 0.26748 0.0
C2203 C 0.61445 0.63469 0.28388 0.0
C2204 C 0.55894 0.61088 0.30312 0.0
C2205 C 0.55078 0.61979 0.33027 0.0
C2206 C 0.55655 0.63922 0.32204 0.0
C2207 C 0.57039 0.6494 0.28536 0.0
C2208 C 0.57853 0.64048 0.25827 0.0
H2209 H 0.6281 0.63511 0.29345 0.0
H2210 H 0.61807 0.64849 0.26588 0.0
H2211 H 0.60655 0.63351 0.31858 0.0
H2212 H 0.55454 0.59601 0.31066 0.0
H2213 H 0.54009 0.61148 0.35799 0.0
H2214 H 0.40011 0.95477 0.36597 0.0
H2215 H 0.41481 0.98396 0.3156 0.0
H2216 H 0.36904 0.95654 0.20896 0.0
H2217 H 0.35395 0.92757 0.25971 0.0
H2218 H 0.42826 0.99051 0.22127 0.0
H2219 H 0.36779 0.00503 0.2376 0.0
H2220 H 0.36941 0.98738 0.27522 0.0
H2221 H 0.36104 0.98187 0.2124 0.0
C2222 C 0.39314 0.95498 0.3319 0.0
C2223 C 0.37574 0.93893 0.31718 0.0
C2224 C 0.40157 0.97165 0.30309 0.0
C2225 C 0.39283 0.97254 0.25898 0.0
C2226 C 0.37576 0.95635 0.24351 0.0
H2227 H 0.43098 0.07169 0.05879 0.0
H2228 H 0.41621 0.03817 0.0871 0.0
C2229 C 0.3672 0.93978 0.27253 0.0
C2230 C 0.40158 0.99046 0.22944 0.0
H2231 H 0.39351 0.02566 0.18565 0.0
C2232 C 0.42062 -0.00187 0.21326 0.0
C2233 C 0.39156 0.00037 0.21892 0.0
C2234 C 0.37139 0.99337 0.23728 0.0
C2235 C 0.43003 0.01565 0.18771 0.0
C2236 C 0.42012 0.02566 0.1781 0.0
C2237 C 0.40092 0.01774 0.19271 0.0
C2238 C 0.43009 0.04545 0.15865 0.0
C2239 C 0.45063 0.0236 0.17198 0.0
C2240 C 0.44269 0.06043 0.18962 0.0
C2241 C 0.45085 0.07942 0.17399 0.0
C2242 C 0.44668 0.0838 0.12687 0.0
C2243 C 0.43449 0.06872 0.09519 0.0
C2244 C 0.42606 0.04963 0.11126 0.0
H2245 H 0.45494 0.01245 0.17268 0.0
H2246 H 0.45293 0.02975 0.13416 0.0
H2247 H 0.46014 0.03531 0.1976 0.0
H2248 H 0.44579 0.05744 0.2265 0.0
H2249 H 0.4603 0.09071 0.19913 0.0
H2250 H 0.55395 0.95318 0.91253 0.0
H2251 H 0.56562 0.98546 0.87838 0.0
H2252 H 0.58099 0.96821 0.74279 0.0
H2253 H 0.56889 0.93604 0.77571 0.0
H2254 H 0.60006 0.01245 0.84714 0.0
H2255 H 0.5499 0.99052 0.6896 0.0
H2256 H 0.54679 0.97436 0.73965 0.0
H2257 H 0.56269 0.97758 0.68893 0.0
C2258 C 0.55979 0.95631 0.87541 0.0
C2259 C 0.56028 0.94201 0.8466 0.0
C2260 C 0.5664 0.97472 0.85593 0.0
C2261 C 0.57366 0.97908 0.80749 0.0
C2262 C 0.57479 0.965 0.77953 0.0
H2263 H 0.65454 0.08611 0.67766 0.0
H2264 H 0.63711 0.05589 0.72273 0.0
C2265 C 0.568 0.94663 0.79862 0.0
C2266 C 0.58075 -0.00152 0.78624 0.0
H2267 H 0.57901 0.02123 0.68152 0.0
C2268 C 0.59525 0.01443 0.81128 0.0
C2269 C 0.57414 0.00118 0.74005 0.0
C2270 C 0.55736 0.985 0.71335 0.0
C2271 C 0.6041 0.03282 0.79004 0.0
C2272 C 0.59872 0.03516 0.74176 0.0
C2273 C 0.58344 0.01941 0.71805 0.0
C2274 C 0.60923 0.05356 0.71433 0.0
C2275 C 0.6191 0.0495 0.81965 0.0
C2276 C 0.59927 0.06188 0.69243 0.0
C2277 C 0.60917 0.07893 0.66543 0.0
C2278 C 0.62922 0.08805 0.66018 0.0
C2279 C 0.63911 0.07956 0.68155 0.0
C2280 C 0.62919 0.06237 0.70782 0.0
H2281 H 0.61652 0.04683 0.86 0.0
H2282 H 0.63345 0.05133 0.81155 0.0
H2283 H 0.61932 0.06307 0.81045 0.0
H2284 H 0.58385 0.05524 0.69654 0.0
H2285 H 0.60115 0.08516 0.64951 0.0
H2286 H 0.06232 0.63203 0.91047 0.0
H2287 H 0.02995 0.61488 0.87469 0.0
H2288 H 0.05434 0.62299 0.72866 0.0
H2289 H 0.08651 0.64012 0.76356 0.0
H2290 H 0.02664 0.63461 0.7395 0.0
H2291 H 0.00086 0.56063 0.80994 0.0
H2292 H 0.01069 0.57958 0.85514 0.0
H2293 H 0.026 0.5787 0.80819 0.0
C2294 C 0.06078 0.62999 0.8708 0.0
C2295 C 0.07703 0.63752 0.83991 0.0
C2296 C 0.04229 0.62013 0.85048 0.0
C2297 C 0.03982 0.6176 0.79911 0.0
C2298 C 0.05598 0.6248 0.76841 0.0
H2299 H 0.9402 0.54888 0.61642 0.0
H2300 H 0.97114 0.56338 0.65942 0.0
C2301 C 0.07437 0.6346 0.78853 0.0
C2302 C 0.02051 0.60844 0.77651 0.0
H2303 H 0.97867 0.56578 0.76449 0.0
C2304 C 0.01611 0.61958 0.74504 0.0
C2305 C 0.00696 0.58879 0.78353 0.0
C2306 C 0.01132 0.57611 0.81572 0.0
C2307 C -0.00153 0.61159 0.72026 0.0
C2308 C 0.98481 0.592 0.72772 0.0
C2309 C 0.98919 0.58082 0.75912 0.0
C2310 C 0.96593 0.58291 0.70282 0.0
C2311 C 0.99476 0.62406 0.68547 0.0
C2312 C 0.95276 0.58901 0.71345 0.0
C2313 C 0.93515 0.58085 0.68893 0.0
C2314 C 0.93033 0.56634 0.65341 0.0
C2315 C 0.94349 0.56009 0.64333 0.0
C2316 C 0.96113 0.56828 0.66797 0.0
H2317 H 0.00823 0.63733 0.67515 0.0
H2318 H 0.98756 0.6161 0.65119 0.0
H2319 H 0.98514 0.62837 0.70379 0.0
H2320 H 0.95612 0.60011 0.74076 0.0
H2321 H 0.92534 0.58594 0.69792 0.0
H2322 H 0.42495 0.36061 0.67991 0.0
H2323 H 0.41091 0.37712 0.72399 0.0
H2324 H 0.46225 0.4315 0.69765 0.0
H2325 H 0.47612 0.41512 0.6517 0.0
H2326 H 0.42177 0.39835 0.80575 0.0
H2327 H 0.42201 0.44285 0.64842 0.0
H2328 H 0.42711 0.42358 0.64059 0.0
H2329 H 0.44534 0.44655 0.66357 0.0
C2330 C 0.43322 0.37611 0.68322 0.0
C2331 C 0.45157 0.38659 0.66192 0.0
C2332 C 0.4252 0.38552 0.70858 0.0
C2333 C 0.43541 0.40558 0.71355 0.0
C2334 C 0.4539 0.41607 0.69318 0.0
H2335 H 0.39303 0.46242 0.91571 0.0
H2336 H 0.4124 0.44953 0.88043 0.0
C2337 C 0.46183 0.40668 0.66708 0.0
C2338 C 0.42653 0.41533 0.74007 0.0
H2339 H 0.41211 0.44838 0.72578 0.0
C2340 C 0.41967 0.40932 0.78834 0.0
C2341 C 0.42371 0.42955 0.71715 0.0
C2342 C 0.42976 0.43591 0.66444 0.0
C2343 C 0.40967 0.41681 0.81389 0.0
C2344 C 0.40697 0.43111 0.79104 0.0
C2345 C 0.41428 0.43748 0.74332 0.0
C2346 C 0.39527 0.43862 0.81392 0.0
C2347 C 0.40141 0.40874 0.86414 0.0
C2348 C 0.37945 0.43705 0.78798 0.0
C2349 C 0.36866 0.44468 0.80751 0.0
C2350 C 0.37335 0.45392 0.8537 0.0
C2351 C 0.38899 0.45521 0.88024 0.0
C2352 C 0.40001 0.44779 0.86022 0.0
H2353 H 0.40063 0.39473 0.87083 0.0
H2354 H 0.41072 0.4189 0.89311 0.0
H2355 H 0.38678 0.40673 0.86823 0.0
H2356 H 0.37548 0.42999 0.7523 0.0
H2357 H 0.35663 0.44334 0.78626 0.0
loop_
_geom_bond_atom_site_label_1
_geom_bond_atom_site_label_2
_geom_bond_distance
_geom_bond_site_symmetry_2
_ccdc_geom_bond_type
O0 Zn1 1.953 1_455 S
O0 C16 1.225 . S
Zn1 O0 1.953 1_655 S
Zn1 O2 1.949 1_655 S
Zn1 O8 1.919 . S
Zn1 O13 1.924 . S
O2 Zn1 1.949 1_455 S
O2 Zn3 1.923 . S
O2 Zn4 1.950 . S
O2 Zn5 1.947 1_455 S
Zn3 O2 1.923 . S
Zn3 O6 1.933 1_455 S
Zn3 O9 1.941 1_455 S
Zn3 O10 1.965 . S
Zn4 O2 1.950 . S
Zn4 O11 1.938 . S
Zn4 O12 1.906 . S
Zn4 O22 1.953 . S
Zn5 O2 1.947 1_655 S
Zn5 O7 1.932 . S
Zn5 O14 1.981 1_655 S
Zn5 O15 1.905 . S
O6 Zn3 1.933 1_655 S
O6 C17 1.226 . S
O7 Zn5 1.932 . S
O7 C17 1.307 . S
O8 Zn1 1.919 . S
O8 C19 1.253 . S
O9 Zn3 1.941 1_655 S
O9 C19 1.283 . S
O10 Zn3 1.965 . S
O10 C18 1.303 . S
O11 Zn4 1.938 . S
O11 C18 1.247 . S
O12 Zn4 1.906 . S
O12 C20 1.304 . S
O13 Zn1 1.924 . S
O13 C21 1.311 . S
O14 Zn5 1.981 1_455 S
O14 C20 1.272 . S
O15 Zn5 1.905 . S
O15 C21 1.231 . S
C16 O0 1.225 . S
C16 O22 1.298 . S
C17 O6 1.226 . S
C17 O7 1.307 . S
C18 O10 1.303 . S
C18 O11 1.247 . S
C19 O8 1.253 . S
C19 O9 1.283 . S
C20 O12 1.304 . S
C20 O14 1.272 . S
C21 O13 1.311 . S
C21 O15 1.231 . S
O22 Zn4 1.953 . S
O22 C16 1.298 . S
O23 Zn24 1.953 . S
O23 C39 1.225 . S
Zn24 O23 1.953 . S
Zn24 O25 1.949 . S
Zn24 O31 1.919 . S
Zn24 O36 1.924 . S
O25 Zn24 1.949 . S
O25 Zn26 1.923 . S
O25 Zn27 1.950 . S
O25 Zn28 1.945 . S
Zn26 O25 1.923 . S
Zn26 O29 1.933 . S
Zn26 O32 1.941 . S
Zn26 O33 1.965 . S
Zn27 O25 1.950 . S
Zn27 O34 1.938 . S
Zn27 O35 1.906 . S
Zn27 O45 1.953 . S
Zn28 O25 1.945 . S
Zn28 O30 1.932 . S
Zn28 O37 1.977 . S
Zn28 O38 1.910 . S
O29 Zn26 1.933 . S
O29 C40 1.226 . S
O30 Zn28 1.932 . S
O30 C40 1.307 . S
O31 Zn24 1.919 . S
O31 C42 1.253 . S
O32 Zn26 1.941 . S
O32 C42 1.283 . S
O33 Zn26 1.965 . S
O33 C41 1.303 . S
O34 Zn27 1.938 . S
O34 C41 1.247 . S
O35 Zn27 1.906 . S
O35 C43 1.304 . S
O36 Zn24 1.924 . S
O36 C44 1.311 . S
O37 Zn28 1.977 . S
O37 C43 1.272 . S
O38 Zn28 1.910 . S
O38 C44 1.231 . S
C39 O23 1.225 . S
C39 O45 1.298 . S
C40 O29 1.226 . S
C40 O30 1.307 . S
C41 O33 1.303 . S
C41 O34 1.247 . S
C42 O31 1.253 . S
C42 O32 1.283 . S
C43 O35 1.304 . S
C43 O37 1.272 . S
C44 O36 1.311 . S
C44 O38 1.231 . S
O45 Zn27 1.953 . S
O45 C39 1.298 . S
O46 Zn47 1.953 . S
O46 C62 1.225 1_545 S
Zn47 O46 1.953 . S
Zn47 O48 1.949 . S
Zn47 O54 1.919 . S
Zn47 O59 1.924 . S
O48 Zn47 1.949 . S
O48 Zn49 1.923 . S
O48 Zn50 1.950 1_545 S
O48 Zn51 1.945 . S
Zn49 O48 1.923 . S
Zn49 O52 1.933 . S
Zn49 O55 1.941 . S
Zn49 O56 1.965 1_545 S
Zn50 O48 1.950 1_565 S
Zn50 O57 1.938 . S
Zn50 O58 1.906 . S
Zn50 O68 1.953 . S
Zn51 O48 1.945 . S
Zn51 O53 1.932 . S
Zn51 O60 1.977 1_545 S
Zn51 O61 1.910 . S
O52 Zn49 1.933 . S
O52 C63 1.226 . S
O53 Zn51 1.932 . S
O53 C63 1.307 . S
O54 Zn47 1.919 . S
O54 C65 1.253 . S
O55 Zn49 1.941 . S
O55 C65 1.283 . S
O56 Zn49 1.965 1_565 S
O56 C64 1.303 . S
O57 Zn50 1.938 . S
O57 C64 1.247 . S
O58 Zn50 1.906 . S
O58 C66 1.304 . S
O59 Zn47 1.924 . S
O59 C67 1.311 . S
O60 Zn51 1.977 1_565 S
O60 C66 1.272 . S
O61 Zn51 1.910 . S
O61 C67 1.231 . S
C62 O46 1.225 1_565 S
C62 O68 1.298 . S
C63 O52 1.226 . S
C63 O53 1.307 . S
C64 O56 1.303 . S
C64 O57 1.247 . S
C65 O54 1.253 . S
C65 O55 1.283 . S
C66 O58 1.304 . S
C66 O60 1.272 . S
C67 O59 1.311 . S
C67 O61 1.231 . S
O68 Zn50 1.953 . S
O68 C62 1.298 . S
O69 Zn70 1.953 . S
O69 C85 1.225 . S
Zn70 O69 1.953 . S
Zn70 O71 1.949 . S
Zn70 O77 1.919 . S
Zn70 O82 1.924 . S
O71 Zn70 1.949 . S
O71 Zn72 1.923 . S
O71 Zn73 1.950 . S
O71 Zn74 1.945 1_455 S
Zn72 O71 1.923 . S
Zn72 O75 1.933 . S
Zn72 O78 1.941 . S
Zn72 O79 1.965 . S
Zn73 O71 1.950 . S
Zn73 O80 1.938 . S
Zn73 O81 1.906 1_455 S
Zn73 O91 1.953 . S
Zn74 O71 1.945 1_655 S
Zn74 O76 1.932 . S
Zn74 O83 1.977 . S
Zn74 O84 1.910 . S
O75 Zn72 1.933 . S
O75 C86 1.226 1_455 S
O76 Zn74 1.932 . S
O76 C86 1.307 . S
O77 Zn70 1.919 . S
O77 C88 1.253 . S
O78 Zn72 1.941 . S
O78 C88 1.283 . S
O79 Zn72 1.965 . S
O79 C87 1.303 . S
O80 Zn73 1.938 . S
O80 C87 1.247 . S
O81 Zn73 1.906 1_655 S
O81 C89 1.304 . S
O82 Zn70 1.924 . S
O82 C90 1.311 1_455 S
O83 Zn74 1.977 . S
O83 C89 1.272 . S
O84 Zn74 1.910 . S
O84 C90 1.231 . S
C85 O69 1.225 . S
C85 O91 1.298 . S
C86 O75 1.226 1_655 S
C86 O76 1.307 . S
C87 O79 1.303 . S
C87 O80 1.247 . S
C88 O77 1.253 . S
C88 O78 1.283 . S
C89 O81 1.304 . S
C89 O83 1.272 . S
C90 O82 1.311 1_655 S
C90 O84 1.231 . S
O91 Zn73 1.953 . S
O91 C85 1.298 . S
O92 Zn93 1.953 . S
O92 C108 1.225 . S
Zn93 O92 1.953 . S
Zn93 O94 1.949 . S
Zn93 O100 1.919 . S
Zn93 O105 1.924 . S
O94 Zn93 1.949 . S
O94 Zn95 1.923 . S
O94 Zn96 1.950 . S
O94 Zn97 1.945 . S
Zn95 O94 1.923 . S
Zn95 O98 1.933 . S
Zn95 O101 1.941 . S
Zn95 O102 1.965 . S
Zn96 O94 1.950 . S
Zn96 O103 1.938 . S
Zn96 O104 1.906 . S
Zn96 O114 1.953 . S
Zn97 O94 1.945 . S
Zn97 O99 1.932 . S
Zn97 O106 1.977 . S
Zn97 O107 1.910 . S
O98 Zn95 1.933 . S
O98 C109 1.226 . S
O99 Zn97 1.932 . S
O99 C109 1.307 . S
O100 Zn93 1.919 . S
O100 C111 1.253 . S
O101 Zn95 1.941 . S
O101 C111 1.283 . S
O102 Zn95 1.965 . S
O102 C110 1.303 . S
O103 Zn96 1.938 . S
O103 C110 1.247 . S
O104 Zn96 1.906 . S
O104 C112 1.304 . S
O105 Zn93 1.924 . S
O105 C113 1.311 . S
O106 Zn97 1.977 . S
O106 C112 1.272 . S
O107 Zn97 1.910 . S
O107 C113 1.231 . S
C108 O92 1.225 . S
C108 O114 1.298 . S
C109 O98 1.226 . S
C109 O99 1.307 . S
C110 O102 1.303 . S
C110 O103 1.247 . S
C111 O100 1.253 . S
C111 O101 1.283 . S
C112 O104 1.304 . S
C112 O106 1.272 . S
C113 O105 1.311 . S
C113 O107 1.231 . S
O114 Zn96 1.953 . S
O114 C108 1.298 . S
O115 Zn116 1.953 . S
O115 C131 1.225 . S
Zn116 O115 1.953 . S
Zn116 O117 1.949 1_565 S
Zn116 O123 1.919 . S
Zn116 O128 1.924 1_565 S
O117 Zn116 1.949 1_545 S
O117 Zn118 1.923 . S
O117 Zn119 1.950 . S
O117 Zn120 1.945 . S
Zn118 O117 1.923 . S
Zn118 O121 1.933 . S
Zn118 O124 1.941 1_545 S
Zn118 O125 1.965 1_545 S
Zn119 O117 1.950 . S
Zn119 O126 1.938 1_545 S
Zn119 O127 1.906 . S
Zn119 O137 1.953 1_545 S
Zn120 O117 1.945 . S
Zn120 O122 1.932 . S
Zn120 O129 1.977 . S
Zn120 O130 1.910 . S
O121 Zn118 1.933 . S
O121 C132 1.226 . S
O122 Zn120 1.932 . S
O122 C132 1.307 . S
O123 Zn116 1.919 . S
O123 C134 1.253 . S
O124 Zn118 1.941 1_565 S
O124 C134 1.283 . S
O125 Zn118 1.965 1_565 S
O125 C133 1.303 . S
O126 Zn119 1.938 1_565 S
O126 C133 1.247 . S
O127 Zn119 1.906 . S
O127 C135 1.304 . S
O128 Zn116 1.924 1_545 S
O128 C136 1.311 . S
O129 Zn120 1.977 . S
O129 C135 1.272 . S
O130 Zn120 1.910 . S
O130 C136 1.231 . S
C131 O115 1.225 . S
C131 O137 1.298 . S
C132 O121 1.226 . S
C132 O122 1.307 . S
C133 O125 1.303 . S
C133 O126 1.247 . S
C134 O123 1.253 . S
C134 O124 1.283 . S
C135 O127 1.304 . S
C135 O129 1.272 . S
C136 O128 1.311 . S
C136 O130 1.231 . S
O137 Zn119 1.953 1_565 S
O137 C131 1.298 . S
O138 Zn139 1.953 . S
O138 C154 1.225 . S
Zn139 O138 1.953 . S
Zn139 O140 1.949 . S
Zn139 O146 1.919 . S
Zn139 O151 1.924 . S
O140 Zn139 1.949 . S
O140 Zn141 1.923 . S
O140 Zn142 1.950 . S
O140 Zn143 1.945 . S
Zn141 O140 1.923 . S
Zn141 O144 1.933 . S
Zn141 O147 1.941 . S
Zn141 O148 1.965 . S
Zn142 O140 1.950 . S
Zn142 O149 1.938 . S
Zn142 O150 1.906 . S
Zn142 O160 1.953 . S
Zn143 O140 1.945 . S
Zn143 O145 1.932 . S
Zn143 O152 1.977 . S
Zn143 O153 1.910 . S
O144 Zn141 1.933 . S
O144 C155 1.226 . S
O145 Zn143 1.932 . S
O145 C155 1.307 . S
O146 Zn139 1.919 . S
O146 C157 1.253 1_554 S
O147 Zn141 1.941 . S
O147 C157 1.283 1_554 S
O148 Zn141 1.965 . S
O148 C156 1.303 . S
O149 Zn142 1.938 . S
O149 C156 1.247 . S
O150 Zn142 1.906 . S
O150 C158 1.304 . S
O151 Zn139 1.924 . S
O151 C159 1.311 . S
O152 Zn143 1.977 . S
O152 C158 1.272 . S
O153 Zn143 1.910 . S
O153 C159 1.231 . S
C154 O138 1.225 . S
C154 O160 1.298 . S
C155 O144 1.226 . S
C155 O145 1.307 . S
C156 O148 1.303 . S
C156 O149 1.247 . S
C157 O146 1.253 1_556 S
C157 O147 1.283 1_556 S
C158 O150 1.304 . S
C158 O152 1.272 . S
C159 O151 1.311 . S
C159 O153 1.231 . S
O160 Zn142 1.953 . S
O160 C154 1.298 . S
O161 Zn162 1.953 . S
O161 C177 1.225 . S
Zn162 O161 1.953 . S
Zn162 O163 1.949 . S
Zn162 O169 1.919 . S
Zn162 O174 1.924 . S
O163 Zn162 1.949 . S
O163 Zn164 1.923 . S
O163 Zn165 1.950 . S
O163 Zn166 1.945 . S
Zn164 O163 1.923 . S
Zn164 O167 1.933 . S
Zn164 O170 1.941 . S
Zn164 O171 1.965 . S
Zn165 O163 1.950 . S
Zn165 O172 1.938 . S
Zn165 O173 1.906 . S
Zn165 O183 1.953 . S
Zn166 O163 1.945 . S
Zn166 O168 1.932 . S
Zn166 O175 1.977 . S
Zn166 O176 1.910 . S
O167 Zn164 1.933 . S
O167 C178 1.226 . S
O168 Zn166 1.932 . S
O168 C178 1.307 . S
O169 Zn162 1.919 . S
O169 C180 1.253 1_554 S
O170 Zn164 1.941 . S
O170 C180 1.283 1_554 S
O171 Zn164 1.965 . S
O171 C179 1.303 . S
O172 Zn165 1.938 . S
O172 C179 1.247 . S
O173 Zn165 1.906 . S
O173 C181 1.304 . S
O174 Zn162 1.924 . S
O174 C182 1.311 . S
O175 Zn166 1.977 . S
O175 C181 1.272 . S
O176 Zn166 1.910 . S
O176 C182 1.231 . S
C177 O161 1.225 . S
C177 O183 1.298 . S
C178 O167 1.226 . S
C178 O168 1.307 . S
C179 O171 1.303 . S
C179 O172 1.247 . S
C180 O169 1.253 1_556 S
C180 O170 1.283 1_556 S
C181 O173 1.304 . S
C181 O175 1.272 . S
C182 O174 1.311 . S
C182 O176 1.231 . S
O183 Zn165 1.953 . S
O183 C177 1.298 . S
O184 Zn185 1.953 . S
O184 C200 1.225 . S
Zn185 O184 1.953 . S
Zn185 O186 1.949 . S
Zn185 O192 1.919 . S
Zn185 O197 1.924 . S
O186 Zn185 1.949 . S
O186 Zn187 1.923 . S
O186 Zn188 1.950 . S
O186 Zn189 1.945 . S
Zn187 O186 1.923 . S
Zn187 O190 1.933 . S
Zn187 O193 1.941 . S
Zn187 O194 1.965 . S
Zn188 O186 1.950 . S
Zn188 O195 1.938 . S
Zn188 O196 1.906 . S
Zn188 O206 1.953 . S
Zn189 O186 1.945 . S
Zn189 O191 1.932 . S
Zn189 O198 1.977 . S
Zn189 O199 1.910 . S
O190 Zn187 1.933 . S
O190 C201 1.226 . S
O191 Zn189 1.932 . S
O191 C201 1.307 . S
O192 Zn185 1.919 . S
O192 C203 1.253 1_554 S
O193 Zn187 1.941 . S
O193 C203 1.283 1_554 S
O194 Zn187 1.965 . S
O194 C202 1.303 . S
O195 Zn188 1.938 . S
O195 C202 1.247 . S
O196 Zn188 1.906 . S
O196 C204 1.304 . S
O197 Zn185 1.924 . S
O197 C205 1.311 . S
O198 Zn189 1.977 . S
O198 C204 1.272 . S
O199 Zn189 1.910 . S
O199 C205 1.231 . S
C200 O184 1.225 . S
C200 O206 1.298 . S
C201 O190 1.226 . S
C201 O191 1.307 . S
C202 O194 1.303 . S
C202 O195 1.247 . S
C203 O192 1.253 1_556 S
C203 O193 1.283 1_556 S
C204 O196 1.304 . S
C204 O198 1.272 . S
C205 O197 1.311 . S
C205 O199 1.231 . S
O206 Zn188 1.953 . S
O206 C200 1.298 . S
O207 Zn208 1.953 . S
O207 C223 1.225 . S
Zn208 O207 1.953 . S
Zn208 O209 1.949 . S
Zn208 O215 1.919 . S
Zn208 O220 1.924 . S
O209 Zn208 1.949 . S
O209 Zn210 1.923 . S
O209 Zn211 1.950 . S
O209 Zn212 1.945 . S
Zn210 O209 1.923 . S
Zn210 O213 1.933 . S
Zn210 O216 1.941 . S
Zn210 O217 1.965 . S
Zn211 O209 1.950 . S
Zn211 O218 1.938 . S
Zn211 O219 1.906 . S
Zn211 O229 1.953 . S
Zn212 O209 1.945 . S
Zn212 O214 1.932 . S
Zn212 O221 1.977 . S
Zn212 O222 1.910 . S
O213 Zn210 1.933 . S
O213 C224 1.226 . S
O214 Zn212 1.932 . S
O214 C224 1.307 . S
O215 Zn208 1.919 . S
O215 C226 1.253 . S
O216 Zn210 1.941 . S
O216 C226 1.283 . S
O217 Zn210 1.965 . S
O217 C225 1.303 . S
O218 Zn211 1.938 . S
O218 C225 1.247 . S
O219 Zn211 1.906 . S
O219 C227 1.304 . S
O220 Zn208 1.924 . S
O220 C228 1.311 . S
O221 Zn212 1.977 . S
O221 C227 1.272 . S
O222 Zn212 1.910 . S
O222 C228 1.231 . S
C223 O207 1.225 . S
C223 O229 1.298 . S
C224 O213 1.226 . S
C224 O214 1.307 . S
C225 O217 1.303 . S
C225 O218 1.247 . S
C226 O215 1.253 . S
C226 O216 1.283 . S
C227 O219 1.304 . S
C227 O221 1.272 . S
C228 O220 1.311 . S
C228 O222 1.231 . S
O229 Zn211 1.953 . S
O229 C223 1.298 . S
O230 Zn231 1.953 . S
O230 C246 1.225 . S
Zn231 O230 1.953 . S
Zn231 O232 1.949 . S
Zn231 O238 1.919 . S
Zn231 O243 1.924 . S
O232 Zn231 1.949 . S
O232 Zn233 1.923 . S
O232 Zn234 1.950 . S
O232 Zn235 1.945 . S
Zn233 O232 1.923 . S
Zn233 O236 1.933 . S
Zn233 O239 1.941 . S
Zn233 O240 1.965 . S
Zn234 O232 1.950 . S
Zn234 O241 1.938 . S
Zn234 O242 1.906 . S
Zn234 O252 1.953 . S
Zn235 O232 1.945 . S
Zn235 O237 1.932 . S
Zn235 O244 1.977 . S
Zn235 O245 1.910 . S
O236 Zn233 1.933 . S
O236 C247 1.226 . S
O237 Zn235 1.932 . S
O237 C247 1.307 . S
O238 Zn231 1.919 . S
O238 C249 1.253 . S
O239 Zn233 1.941 . S
O239 C249 1.283 . S
O240 Zn233 1.965 . S
O240 C248 1.303 . S
O241 Zn234 1.938 . S
O241 C248 1.247 . S
O242 Zn234 1.906 . S
O242 C250 1.304 . S
O243 Zn231 1.924 . S
O243 C251 1.311 . S
O244 Zn235 1.977 . S
O244 C250 1.272 . S
O245 Zn235 1.910 . S
O245 C251 1.231 . S
C246 O230 1.225 . S
C246 O252 1.298 . S
C247 O236 1.226 . S
C247 O237 1.307 . S
C248 O240 1.303 . S
C248 O241 1.247 . S
C249 O238 1.253 . S
C249 O239 1.283 . S
C250 O242 1.304 . S
C250 O244 1.272 . S
C251 O243 1.311 . S
C251 O245 1.231 . S
O252 Zn234 1.953 . S
O252 C246 1.298 . S
O253 Zn254 1.953 . S
O253 C269 1.225 . S
Zn254 O253 1.953 . S
Zn254 O255 1.949 . S
Zn254 O261 1.919 . S
Zn254 O266 1.924 . S
O255 Zn254 1.949 . S
O255 Zn256 1.923 . S
O255 Zn257 1.950 . S
O255 Zn258 1.945 . S
Zn256 O255 1.923 . S
Zn256 O259 1.933 . S
Zn256 O262 1.941 . S
Zn256 O263 1.965 . S
Zn257 O255 1.950 . S
Zn257 O264 1.938 . S
Zn257 O265 1.906 . S
Zn257 O275 1.953 . S
Zn258 O255 1.945 . S
Zn258 O260 1.932 . S
Zn258 O267 1.977 . S
Zn258 O268 1.910 . S
O259 Zn256 1.933 . S
O259 C270 1.226 . S
O260 Zn258 1.932 . S
O260 C270 1.307 . S
O261 Zn254 1.919 . S
O261 C272 1.253 . S
O262 Zn256 1.941 . S
O262 C272 1.283 . S
O263 Zn256 1.965 . S
O263 C271 1.303 . S
O264 Zn257 1.938 . S
O264 C271 1.247 . S
O265 Zn257 1.906 . S
O265 C273 1.304 . S
O266 Zn254 1.924 . S
O266 C274 1.311 . S
O267 Zn258 1.977 . S
O267 C273 1.272 . S
O268 Zn258 1.910 . S
O268 C274 1.231 . S
C269 O253 1.225 . S
C269 O275 1.298 . S
C270 O259 1.226 . S
C270 O260 1.307 . S
C271 O263 1.303 . S
C271 O264 1.247 . S
C272 O261 1.253 . S
C272 O262 1.283 . S
C273 O265 1.304 . S
C273 O267 1.272 . S
C274 O266 1.311 . S
C274 O268 1.231 . S
O275 Zn257 1.953 . S
O275 C269 1.298 . S
O276 Zn277 1.953 . S
O276 C292 1.225 . S
Zn277 O276 1.953 . S
Zn277 O278 1.949 . S
Zn277 O284 1.919 . S
Zn277 O289 1.924 . S
O278 Zn277 1.949 . S
O278 Zn279 1.923 . S
O278 Zn280 1.950 . S
O278 Zn281 1.945 . S
Zn279 O278 1.923 . S
Zn279 O282 1.933 . S
Zn279 O285 1.941 . S
Zn279 O286 1.965 . S
Zn280 O278 1.950 . S
Zn280 O287 1.938 . S
Zn280 O288 1.906 . S
Zn280 O298 1.953 . S
Zn281 O278 1.945 . S
Zn281 O283 1.932 . S
Zn281 O290 1.977 . S
Zn281 O291 1.910 . S
O282 Zn279 1.933 . S
O282 C293 1.226 . S
O283 Zn281 1.932 . S
O283 C293 1.307 . S
O284 Zn277 1.919 . S
O284 C295 1.253 . S
O285 Zn279 1.941 . S
O285 C295 1.283 . S
O286 Zn279 1.965 . S
O286 C294 1.303 . S
O287 Zn280 1.938 . S
O287 C294 1.247 . S
O288 Zn280 1.906 . S
O288 C296 1.304 . S
O289 Zn277 1.924 . S
O289 C297 1.311 . S
O290 Zn281 1.977 . S
O290 C296 1.272 . S
O291 Zn281 1.910 . S
O291 C297 1.231 . S
C292 O276 1.225 . S
C292 O298 1.298 . S
C293 O282 1.226 . S
C293 O283 1.307 . S
C294 O286 1.303 . S
C294 O287 1.247 . S
C295 O284 1.253 . S
C295 O285 1.283 . S
C296 O288 1.304 . S
C296 O290 1.272 . S
C297 O289 1.311 . S
C297 O291 1.231 . S
O298 Zn280 1.953 . S
O298 C292 1.298 . S
O299 Zn300 1.953 . S
O299 C315 1.225 . S
Zn300 O299 1.953 . S
Zn300 O301 1.949 . S
Zn300 O307 1.919 . S
Zn300 O312 1.924 . S
O301 Zn300 1.949 . S
O301 Zn302 1.923 . S
O301 Zn303 1.950 . S
O301 Zn304 1.945 . S
Zn302 O301 1.923 . S
Zn302 O305 1.933 . S
Zn302 O308 1.941 . S
Zn302 O309 1.965 . S
Zn303 O301 1.950 . S
Zn303 O310 1.938 . S
Zn303 O311 1.906 . S
Zn303 O321 1.953 . S
Zn304 O301 1.945 . S
Zn304 O306 1.932 . S
Zn304 O313 1.977 . S
Zn304 O314 1.910 . S
O305 Zn302 1.933 . S
O305 C316 1.226 . S
O306 Zn304 1.932 . S
O306 C316 1.307 . S
O307 Zn300 1.919 . S
O307 C318 1.253 . S
O308 Zn302 1.941 . S
O308 C318 1.283 . S
O309 Zn302 1.965 . S
O309 C317 1.303 . S
O310 Zn303 1.938 . S
O310 C317 1.247 . S
O311 Zn303 1.906 . S
O311 C319 1.304 . S
O312 Zn300 1.924 . S
O312 C320 1.311 . S
O313 Zn304 1.977 . S
O313 C319 1.272 . S
O314 Zn304 1.910 . S
O314 C320 1.231 . S
C315 O299 1.225 . S
C315 O321 1.298 . S
C316 O305 1.226 . S
C316 O306 1.307 . S
C317 O309 1.303 . S
C317 O310 1.247 . S
C318 O307 1.253 . S
C318 O308 1.283 . S
C319 O311 1.304 . S
C319 O313 1.272 . S
C320 O312 1.311 . S
C320 O314 1.231 . S
O321 Zn303 1.953 . S
O321 C315 1.298 . S
O322 Zn323 1.953 . S
O322 C338 1.225 . S
Zn323 O322 1.953 . S
Zn323 O324 1.949 . S
Zn323 O330 1.919 . S
Zn323 O335 1.924 . S
O324 Zn323 1.949 . S
O324 Zn325 1.923 . S
O324 Zn326 1.950 . S
O324 Zn327 1.945 . S
Zn325 O324 1.923 . S
Zn325 O328 1.933 . S
Zn325 O331 1.941 . S
Zn325 O332 1.965 . S
Zn326 O324 1.950 . S
Zn326 O333 1.938 . S
Zn326 O334 1.906 . S
Zn326 O344 1.953 . S
Zn327 O324 1.945 . S
Zn327 O329 1.932 . S
Zn327 O336 1.977 . S
Zn327 O337 1.910 . S
O328 Zn325 1.933 . S
O328 C339 1.226 . S
O329 Zn327 1.932 . S
O329 C339 1.307 . S
O330 Zn323 1.919 . S
O330 C341 1.253 . S
O331 Zn325 1.941 . S
O331 C341 1.283 . S
O332 Zn325 1.965 . S
O332 C340 1.303 . S
O333 Zn326 1.938 . S
O333 C340 1.247 . S
O334 Zn326 1.906 . S
O334 C342 1.304 . S
O335 Zn323 1.924 . S
O335 C343 1.311 . S
O336 Zn327 1.977 . S
O336 C342 1.272 . S
O337 Zn327 1.910 . S
O337 C343 1.231 . S
C338 O322 1.225 . S
C338 O344 1.298 . S
C339 O328 1.226 . S
C339 O329 1.307 . S
C340 O332 1.303 . S
C340 O333 1.247 . S
C341 O330 1.253 . S
C341 O331 1.283 . S
C342 O334 1.304 . S
C342 O336 1.272 . S
C343 O335 1.311 . S
C343 O337 1.231 . S
O344 Zn326 1.953 . S
O344 C338 1.298 . S
O345 Zn346 1.953 . S
O345 C361 1.225 . S
Zn346 O345 1.953 . S
Zn346 O347 1.949 . S
Zn346 O353 1.919 . S
Zn346 O358 1.924 . S
O347 Zn346 1.949 . S
O347 Zn348 1.923 . S
O347 Zn349 1.950 . S
O347 Zn350 1.945 . S
Zn348 O347 1.923 . S
Zn348 O351 1.933 . S
Zn348 O354 1.941 . S
Zn348 O355 1.965 . S
Zn349 O347 1.950 . S
Zn349 O356 1.938 . S
Zn349 O357 1.906 . S
Zn349 O367 1.953 . S
Zn350 O347 1.945 . S
Zn350 O352 1.932 . S
Zn350 O359 1.977 . S
Zn350 O360 1.910 . S
O351 Zn348 1.933 . S
O351 C362 1.226 . S
O352 Zn350 1.932 . S
O352 C362 1.307 . S
O353 Zn346 1.919 . S
O353 C364 1.253 1_556 S
O354 Zn348 1.941 . S
O354 C364 1.283 1_556 S
O355 Zn348 1.965 . S
O355 C363 1.303 . S
O356 Zn349 1.938 . S
O356 C363 1.247 . S
O357 Zn349 1.906 . S
O357 C365 1.304 . S
O358 Zn346 1.924 . S
O358 C366 1.311 . S
O359 Zn350 1.977 . S
O359 C365 1.272 . S
O360 Zn350 1.910 . S
O360 C366 1.231 . S
C361 O345 1.225 . S
C361 O367 1.298 . S
C362 O351 1.226 . S
C362 O352 1.307 . S
C363 O355 1.303 . S
C363 O356 1.247 . S
C364 O353 1.253 1_554 S
C364 O354 1.283 1_554 S
C365 O357 1.304 . S
C365 O359 1.272 . S
C366 O358 1.311 . S
C366 O360 1.231 . S
O367 Zn349 1.953 . S
O367 C361 1.298 . S
O368 Zn369 1.953 . S
O368 C384 1.225 . S
Zn369 O368 1.953 . S
Zn369 O370 1.949 . S
Zn369 O376 1.919 . S
Zn369 O381 1.924 . S
O370 Zn369 1.949 . S
O370 Zn371 1.923 . S
O370 Zn372 1.950 . S
O370 Zn373 1.945 . S
Zn371 O370 1.923 . S
Zn371 O374 1.933 . S
Zn371 O377 1.941 . S
Zn371 O378 1.965 . S
Zn372 O370 1.950 . S
Zn372 O379 1.938 . S
Zn372 O380 1.906 . S
Zn372 O390 1.953 . S
Zn373 O370 1.945 . S
Zn373 O375 1.932 . S
Zn373 O382 1.977 . S
Zn373 O383 1.910 . S
O374 Zn371 1.933 . S
O374 C385 1.226 . S
O375 Zn373 1.932 . S
O375 C385 1.307 . S
O376 Zn369 1.919 . S
O376 C387 1.253 1_556 S
O377 Zn371 1.941 . S
O377 C387 1.283 1_556 S
O378 Zn371 1.965 . S
O378 C386 1.303 . S
O379 Zn372 1.938 . S
O379 C386 1.247 . S
O380 Zn372 1.906 . S
O380 C388 1.304 . S
O381 Zn369 1.924 . S
O381 C389 1.311 . S
O382 Zn373 1.977 . S
O382 C388 1.272 . S
O383 Zn373 1.910 . S
O383 C389 1.231 . S
C384 O368 1.225 . S
C384 O390 1.298 . S
C385 O374 1.226 . S
C385 O375 1.307 . S
C386 O378 1.303 . S
C386 O379 1.247 . S
C387 O376 1.253 1_554 S
C387 O377 1.283 1_554 S
C388 O380 1.304 . S
C388 O382 1.272 . S
C389 O381 1.311 . S
C389 O383 1.231 . S
O390 Zn372 1.953 . S
O390 C384 1.298 . S
O391 Zn392 1.953 . S
O391 C407 1.225 . S
Zn392 O391 1.953 . S
Zn392 O393 1.949 . S
Zn392 O399 1.919 . S
Zn392 O404 1.924 . S
O393 Zn392 1.949 . S
O393 Zn394 1.923 . S
O393 Zn395 1.950 . S
O393 Zn396 1.945 . S
Zn394 O393 1.923 . S
Zn394 O397 1.933 . S
Zn394 O400 1.941 . S
Zn394 O401 1.965 . S
Zn395 O393 1.950 . S
Zn395 O402 1.938 . S
Zn395 O403 1.906 . S
Zn395 O413 1.953 . S
Zn396 O393 1.945 . S
Zn396 O398 1.932 . S
Zn396 O405 1.977 . S
Zn396 O406 1.910 . S
O397 Zn394 1.933 . S
O397 C408 1.226 . S
O398 Zn396 1.932 . S
O398 C408 1.307 . S
O399 Zn392 1.919 . S
O399 C410 1.253 1_556 S
O400 Zn394 1.941 . S
O400 C410 1.283 1_556 S
O401 Zn394 1.965 . S
O401 C409 1.303 . S
O402 Zn395 1.938 . S
O402 C409 1.247 . S
O403 Zn395 1.906 . S
O403 C411 1.304 . S
O404 Zn392 1.924 . S
O404 C412 1.311 . S
O405 Zn396 1.977 . S
O405 C411 1.272 . S
O406 Zn396 1.910 . S
O406 C412 1.231 . S
C407 O391 1.225 . S
C407 O413 1.298 . S
C408 O397 1.226 . S
C408 O398 1.307 . S
C409 O401 1.303 . S
C409 O402 1.247 . S
C410 O399 1.253 1_554 S
C410 O400 1.283 1_554 S
C411 O403 1.304 . S
C411 O405 1.272 . S
C412 O404 1.311 . S
C412 O406 1.231 . S
O413 Zn395 1.953 . S
O413 C407 1.298 . S
H414 C422 0.929 . S
H415 C424 0.930 . S
H416 C426 0.930 . S
H417 C429 0.929 . S
H418 C432 0.930 . S
H419 C434 0.960 . S
H420 C434 0.960 . S
H421 C434 0.960 . S
C422 H414 0.929 . S
C422 C423 1.377 . S
C422 C424 1.384 . S
C423 C422 1.377 . S
C423 C429 1.390 . S
C424 H415 0.930 . S
C424 C422 1.384 . S
C424 C425 1.372 . S
C425 C424 1.372 . S
C425 C426 1.400 . S
C425 C430 1.490 . S
C426 H416 0.930 . S
C426 C425 1.400 . S
C426 C429 1.386 . S
H427 C443 0.930 . S
H428 C444 0.931 . S
C429 H417 0.929 . S
C429 C423 1.390 . S
C429 C426 1.386 . S
C430 C425 1.490 . S
C430 C432 1.395 . S
C430 C433 1.403 . S
H431 C437 0.930 . S
C432 H418 0.930 . S
C432 C430 1.395 . S
C432 C435 1.403 . S
C433 C430 1.403 . S
C433 C434 1.524 . S
C433 C437 1.400 . S
C434 H419 0.960 . S
C434 H420 0.960 . S
C434 H421 0.960 . S
C434 C433 1.524 . S
C435 C432 1.403 . S
C435 C436 1.392 . S
C435 C439 1.495 . S
C436 C435 1.392 . S
C436 C437 1.385 . S
C436 C438 1.478 . S
C437 H431 0.930 . S
C437 C433 1.400 . S
C437 C436 1.385 . S
C438 C436 1.478 . S
C438 C440 1.381 . S
C438 C444 1.383 . S
C439 C435 1.495 . S
C439 H445 0.959 . S
C439 H446 0.961 . S
C439 H447 0.960 . S
C440 C438 1.381 . S
C440 C441 1.394 . S
C440 H448 0.930 . S
C441 C440 1.394 . S
C441 C442 1.383 . S
C441 H449 0.929 . S
C442 C441 1.383 . S
C442 C443 1.377 . S
C443 H427 0.930 . S
C443 C442 1.377 . S
C443 C444 1.379 . S
C444 H428 0.931 . S
C444 C438 1.383 . S
C444 C443 1.379 . S
H445 C439 0.959 . S
H446 C439 0.961 . S
H447 C439 0.960 . S
H448 C440 0.930 . S
H449 C441 0.929 . S
H450 C458 0.929 . S
H451 C460 0.930 . S
H452 C462 0.930 . S
H453 C465 0.929 . S
H454 C468 0.930 . S
H455 C470 0.960 . S
H456 C470 0.960 . S
H457 C470 0.960 . S
C458 H450 0.929 . S
C458 C459 1.377 . S
C458 C460 1.384 . S
C459 C458 1.377 . S
C459 C465 1.390 . S
C460 H451 0.930 . S
C460 C458 1.384 . S
C460 C461 1.372 . S
C461 C460 1.372 . S
C461 C462 1.400 . S
C461 C466 1.490 . S
C462 H452 0.930 . S
C462 C461 1.400 . S
C462 C465 1.386 . S
H463 C479 0.930 . S
H464 C480 0.931 . S
C465 H453 0.929 . S
C465 C459 1.390 . S
C465 C462 1.386 . S
C466 C461 1.490 . S
C466 C468 1.395 . S
C466 C469 1.403 . S
H467 C473 0.930 . S
C468 H454 0.930 . S
C468 C466 1.395 . S
C468 C471 1.403 . S
C469 C466 1.403 . S
C469 C470 1.524 . S
C469 C473 1.400 . S
C470 H455 0.960 . S
C470 H456 0.960 . S
C470 H457 0.960 . S
C470 C469 1.524 . S
C471 C468 1.403 . S
C471 C472 1.392 . S
C471 C475 1.495 . S
C472 C471 1.392 . S
C472 C473 1.385 . S
C472 C474 1.478 . S
C473 H467 0.930 . S
C473 C469 1.400 . S
C473 C472 1.385 . S
C474 C472 1.478 . S
C474 C476 1.381 . S
C474 C480 1.383 . S
C475 C471 1.495 . S
C475 H481 0.959 . S
C475 H482 0.961 . S
C475 H483 0.960 . S
C476 C474 1.381 . S
C476 C477 1.394 . S
C476 H484 0.930 . S
C477 C476 1.394 . S
C477 C478 1.383 . S
C477 H485 0.929 . S
C478 C477 1.383 . S
C478 C479 1.377 . S
C479 H463 0.930 . S
C479 C478 1.377 . S
C479 C480 1.379 . S
C480 H464 0.931 . S
C480 C474 1.383 . S
C480 C479 1.379 . S
H481 C475 0.959 . S
H482 C475 0.961 . S
H483 C475 0.960 . S
H484 C476 0.930 . S
H485 C477 0.929 . S
H486 C494 0.929 . S
H487 C496 0.930 . S
H488 C498 0.930 . S
H489 C501 0.929 . S
H490 C504 0.930 . S
H491 C506 0.960 . S
H492 C506 0.960 . S
H493 C506 0.960 . S
C494 H486 0.929 . S
C494 C495 1.377 . S
C494 C496 1.384 . S
C495 C494 1.377 . S
C495 C501 1.390 . S
C496 H487 0.930 . S
C496 C494 1.384 . S
C496 C497 1.372 . S
C497 C496 1.372 . S
C497 C498 1.400 . S
C497 C502 1.490 . S
C498 H488 0.930 . S
C498 C497 1.400 . S
C498 C501 1.386 . S
H499 C515 0.930 . S
H500 C516 0.931 . S
C501 H489 0.929 . S
C501 C495 1.390 . S
C501 C498 1.386 . S
C502 C497 1.490 . S
C502 C504 1.395 . S
C502 C505 1.403 . S
H503 C509 0.930 . S
C504 H490 0.930 . S
C504 C502 1.395 . S
C504 C507 1.403 . S
C505 C502 1.403 . S
C505 C506 1.524 . S
C505 C509 1.400 . S
C506 H491 0.960 . S
C506 H492 0.960 . S
C506 H493 0.960 . S
C506 C505 1.524 . S
C507 C504 1.403 . S
C507 C508 1.392 . S
C507 C511 1.495 . S
C508 C507 1.392 . S
C508 C509 1.385 . S
C508 C510 1.478 . S
C509 H503 0.930 . S
C509 C505 1.400 . S
C509 C508 1.385 . S
C510 C508 1.478 . S
C510 C512 1.381 . S
C510 C516 1.383 . S
C511 C507 1.495 . S
C511 H517 0.959 . S
C511 H518 0.961 . S
C511 H519 0.960 . S
C512 C510 1.381 . S
C512 C513 1.394 . S
C512 H520 0.930 . S
C513 C512 1.394 . S
C513 C514 1.383 . S
C513 H521 0.929 . S
C514 C513 1.383 . S
C514 C515 1.377 . S
C515 H499 0.930 . S
C515 C514 1.377 . S
C515 C516 1.379 . S
C516 H500 0.931 . S
C516 C510 1.383 . S
C516 C515 1.379 . S
H517 C511 0.959 . S
H518 C511 0.961 . S
H519 C511 0.960 . S
H520 C512 0.930 . S
H521 C513 0.929 . S
H522 C530 0.929 . S
H523 C532 0.930 . S
H524 C534 0.930 . S
H525 C537 0.929 . S
H526 C540 0.930 . S
H527 C542 0.960 . S
H528 C542 0.960 . S
H529 C542 0.960 . S
C530 H522 0.929 . S
C530 C531 1.377 . S
C530 C532 1.384 . S
C531 C530 1.377 . S
C531 C537 1.390 . S
C532 H523 0.930 . S
C532 C530 1.384 . S
C532 C533 1.372 . S
C533 C532 1.372 . S
C533 C534 1.400 . S
C533 C538 1.490 . S
C534 H524 0.930 . S
C534 C533 1.400 . S
C534 C537 1.386 . S
H535 C551 0.930 . S
H536 C552 0.931 . S
C537 H525 0.929 . S
C537 C531 1.390 . S
C537 C534 1.386 . S
C538 C533 1.490 . S
C538 C540 1.395 . S
C538 C541 1.403 1_556 S
H539 C545 0.930 . S
C540 H526 0.930 . S
C540 C538 1.395 . S
C540 C543 1.403 . S
C541 C538 1.403 1_554 S
C541 C542 1.524 . S
C541 C545 1.400 . S
C542 H527 0.960 . S
C542 H528 0.960 . S
C542 H529 0.960 . S
C542 C541 1.524 . S
C543 C540 1.403 . S
C543 C544 1.392 1_556 S
C543 C547 1.495 . S
C544 C543 1.392 1_554 S
C544 C545 1.385 . S
C544 C546 1.478 . S
C545 H539 0.930 . S
C545 C541 1.400 . S
C545 C544 1.385 . S
C546 C544 1.478 . S
C546 C548 1.381 . S
C546 C552 1.383 . S
C547 C543 1.495 . S
C547 H553 0.959 . S
C547 H554 0.961 . S
C547 H555 0.960 . S
C548 C546 1.381 . S
C548 C549 1.394 . S
C548 H556 0.930 . S
C549 C548 1.394 . S
C549 C550 1.383 . S
C549 H557 0.929 . S
C550 C549 1.383 . S
C550 C551 1.377 . S
C551 H535 0.930 . S
C551 C550 1.377 . S
C551 C552 1.379 . S
C552 H536 0.931 . S
C552 C546 1.383 . S
C552 C551 1.379 . S
H553 C547 0.959 . S
H554 C547 0.961 . S
H555 C547 0.960 . S
H556 C548 0.930 . S
H557 C549 0.929 . S
H558 C566 0.929 . S
H559 C568 0.930 . S
H560 C570 0.930 . S
H561 C573 0.929 . S
H562 C576 0.930 . S
H563 C578 0.960 1_556 S
H564 C578 0.960 . S
H565 C578 0.960 1_556 S
C566 H558 0.929 . S
C566 C567 1.377 . S
C566 C568 1.384 . S
C567 C566 1.377 . S
C567 C573 1.390 . S
C568 H559 0.930 . S
C568 C566 1.384 . S
C568 C569 1.372 . S
C569 C568 1.372 . S
C569 C570 1.400 . S
C569 C574 1.490 . S
C570 H560 0.930 . S
C570 C569 1.400 . S
C570 C573 1.386 . S
H571 C587 0.930 . S
H572 C588 0.931 . S
C573 H561 0.929 . S
C573 C567 1.390 . S
C573 C570 1.386 . S
C574 C569 1.490 . S
C574 C576 1.395 . S
C574 C577 1.403 1_554 S
H575 C581 0.930 . S
C576 H562 0.930 . S
C576 C574 1.395 . S
C576 C579 1.403 1_554 S
C577 C574 1.403 1_556 S
C577 C578 1.524 1_556 S
C577 C581 1.400 . S
C578 H563 0.960 1_554 S
C578 H564 0.960 . S
C578 H565 0.960 1_554 S
C578 C577 1.524 1_554 S
C579 C576 1.403 1_556 S
C579 C580 1.392 . S
C579 C583 1.495 . S
C580 C579 1.392 . S
C580 C581 1.385 . S
C580 C582 1.478 . S
C581 H575 0.930 . S
C581 C577 1.400 . S
C581 C580 1.385 . S
C582 C580 1.478 . S
C582 C584 1.381 . S
C582 C588 1.383 . S
C583 C579 1.495 . S
C583 H589 0.959 1_556 S
C583 H590 0.961 . S
C583 H591 0.960 . S
C584 C582 1.381 . S
C584 C585 1.394 . S
C584 H592 0.930 . S
C585 C584 1.394 . S
C585 C586 1.383 . S
C585 H593 0.929 . S
C586 C585 1.383 . S
C586 C587 1.377 . S
C587 H571 0.930 . S
C587 C586 1.377 . S
C587 C588 1.379 . S
C588 H572 0.931 . S
C588 C582 1.383 . S
C588 C587 1.379 . S
H589 C583 0.959 1_554 S
H590 C583 0.961 . S
H591 C583 0.960 . S
H592 C584 0.930 . S
H593 C585 0.929 . S
H594 C602 0.929 . S
H595 C604 0.930 . S
H596 C606 0.930 . S
H597 C609 0.929 . S
H598 C612 0.930 . S
H599 C614 0.960 . S
H600 C614 0.960 . S
H601 C614 0.960 . S
C602 H594 0.929 . S
C602 C603 1.377 . S
C602 C604 1.384 . S
C603 C602 1.377 . S
C603 C609 1.390 . S
C604 H595 0.930 . S
C604 C602 1.384 . S
C604 C605 1.372 . S
C605 C604 1.372 . S
C605 C606 1.400 . S
C605 C610 1.490 . S
C606 H596 0.930 . S
C606 C605 1.400 . S
C606 C609 1.386 . S
H607 C623 0.930 . S
H608 C624 0.931 . S
C609 H597 0.929 . S
C609 C603 1.390 . S
C609 C606 1.386 . S
C610 C605 1.490 . S
C610 C612 1.395 . S
C610 C613 1.403 . S
H611 C617 0.930 1_554 S
C612 H598 0.930 . S
C612 C610 1.395 . S
C612 C615 1.403 1_556 S
C613 C610 1.403 . S
C613 C614 1.524 . S
C613 C617 1.400 . S
C614 H599 0.960 . S
C614 H600 0.960 . S
C614 H601 0.960 . S
C614 C613 1.524 . S
C615 C612 1.403 1_554 S
C615 C616 1.392 . S
C615 C619 1.495 . S
C616 C615 1.392 . S
C616 C617 1.385 1_554 S
C616 C618 1.478 . S
C617 H611 0.930 1_556 S
C617 C613 1.400 . S
C617 C616 1.385 1_556 S
C618 C616 1.478 . S
C618 C620 1.381 . S
C618 C624 1.383 . S
C619 C615 1.495 . S
C619 H625 0.959 . S
C619 H626 0.961 . S
C619 H627 0.960 . S
C620 C618 1.381 . S
C620 C621 1.394 . S
C620 H628 0.930 . S
C621 C620 1.394 . S
C621 C622 1.383 . S
C621 H629 0.929 . S
C622 C621 1.383 . S
C622 C623 1.377 . S
C623 H607 0.930 . S
C623 C622 1.377 . S
C623 C624 1.379 . S
C624 H608 0.931 . S
C624 C618 1.383 . S
C624 C623 1.379 . S
H625 C619 0.959 . S
H626 C619 0.961 . S
H627 C619 0.960 . S
H628 C620 0.930 . S
H629 C621 0.929 . S
H630 C638 0.929 . S
H631 C640 0.930 . S
H632 C642 0.930 . S
H633 C645 0.929 . S
H634 C648 0.930 . S
H635 C650 0.960 . S
H636 C650 0.960 . S
H637 C650 0.960 . S
C638 H630 0.929 . S
C638 C639 1.377 . S
C638 C640 1.384 . S
C639 C638 1.377 . S
C639 C645 1.390 . S
C640 H631 0.930 . S
C640 C638 1.384 . S
C640 C641 1.372 . S
C641 C640 1.372 . S
C641 C642 1.400 . S
C641 C646 1.490 . S
C642 H632 0.930 . S
C642 C641 1.400 . S
C642 C645 1.386 . S
H643 C659 0.930 . S
H644 C660 0.931 . S
C645 H633 0.929 . S
C645 C639 1.390 . S
C645 C642 1.386 . S
C646 C641 1.490 . S
C646 C648 1.395 . S
C646 C649 1.403 . S
H647 C653 0.930 . S
C648 H634 0.930 . S
C648 C646 1.395 . S
C648 C651 1.403 . S
C649 C646 1.403 . S
C649 C650 1.524 . S
C649 C653 1.400 . S
C650 H635 0.960 . S
C650 H636 0.960 . S
C650 H637 0.960 . S
C650 C649 1.524 . S
C651 C648 1.403 . S
C651 C652 1.392 . S
C651 C655 1.495 . S
C652 C651 1.392 . S
C652 C653 1.385 . S
C652 C654 1.478 . S
C653 H647 0.930 . S
C653 C649 1.400 . S
C653 C652 1.385 . S
C654 C652 1.478 . S
C654 C656 1.381 . S
C654 C660 1.383 . S
C655 C651 1.495 . S
C655 H661 0.959 . S
C655 H662 0.961 . S
C655 H663 0.960 . S
C656 C654 1.381 . S
C656 C657 1.394 . S
C656 H664 0.930 . S
C657 C656 1.394 . S
C657 C658 1.383 . S
C657 H665 0.929 . S
C658 C657 1.383 . S
C658 C659 1.377 . S
C659 H643 0.930 . S
C659 C658 1.377 . S
C659 C660 1.379 . S
C660 H644 0.931 . S
C660 C654 1.383 . S
C660 C659 1.379 . S
H661 C655 0.959 . S
H662 C655 0.961 . S
H663 C655 0.960 . S
H664 C656 0.930 . S
H665 C657 0.929 . S
H666 C674 0.929 . S
H667 C676 0.930 . S
H668 C678 0.930 . S
H669 C681 0.929 . S
H670 C684 0.930 . S
H671 C686 0.960 . S
H672 C686 0.960 . S
H673 C686 0.960 . S
C674 H666 0.929 . S
C674 C675 1.377 . S
C674 C676 1.384 . S
C675 C674 1.377 . S
C675 C681 1.390 . S
C676 H667 0.930 . S
C676 C674 1.384 . S
C676 C677 1.372 . S
C677 C676 1.372 . S
C677 C678 1.400 . S
C677 C682 1.490 . S
C678 H668 0.930 . S
C678 C677 1.400 . S
C678 C681 1.386 . S
H679 C695 0.930 . S
H680 C696 0.931 . S
C681 H669 0.929 . S
C681 C675 1.390 . S
C681 C678 1.386 . S
C682 C677 1.490 . S
C682 C684 1.395 . S
C682 C685 1.403 . S
H683 C689 0.930 . S
C684 H670 0.930 . S
C684 C682 1.395 . S
C684 C687 1.403 . S
C685 C682 1.403 . S
C685 C686 1.524 . S
C685 C689 1.400 . S
C686 H671 0.960 . S
C686 H672 0.960 . S
C686 H673 0.960 . S
C686 C685 1.524 . S
C687 C684 1.403 . S
C687 C688 1.392 . S
C687 C691 1.495 . S
C688 C687 1.392 . S
C688 C689 1.385 . S
C688 C690 1.478 . S
C689 H683 0.930 . S
C689 C685 1.400 . S
C689 C688 1.385 . S
C690 C688 1.478 . S
C690 C692 1.381 . S
C690 C696 1.383 . S
C691 C687 1.495 . S
C691 H697 0.959 . S
C691 H698 0.961 . S
C691 H699 0.960 . S
C692 C690 1.381 . S
C692 C693 1.394 . S
C692 H700 0.930 . S
C693 C692 1.394 . S
C693 C694 1.383 . S
C693 H701 0.929 . S
C694 C693 1.383 . S
C694 C695 1.377 . S
C695 H679 0.930 . S
C695 C694 1.377 . S
C695 C696 1.379 . S
C696 H680 0.931 . S
C696 C690 1.383 . S
C696 C695 1.379 . S
H697 C691 0.959 . S
H698 C691 0.961 . S
H699 C691 0.960 . S
H700 C692 0.930 . S
H701 C693 0.929 . S
H702 C710 0.929 . S
H703 C712 0.930 . S
H704 C714 0.930 . S
H705 C717 0.929 . S
H706 C720 0.930 . S
H707 C722 0.960 . S
H708 C722 0.960 . S
H709 C722 0.960 . S
C710 H702 0.929 . S
C710 C711 1.377 . S
C710 C712 1.384 . S
C711 C710 1.377 . S
C711 C717 1.390 . S
C712 H703 0.930 . S
C712 C710 1.384 . S
C712 C713 1.372 . S
C713 C712 1.372 . S
C713 C714 1.400 . S
C713 C718 1.490 . S
C714 H704 0.930 . S
C714 C713 1.400 . S
C714 C717 1.386 . S
H715 C731 0.930 . S
H716 C732 0.931 . S
C717 H705 0.929 . S
C717 C711 1.390 . S
C717 C714 1.386 . S
C718 C713 1.490 . S
C718 C720 1.395 . S
C718 C721 1.403 . S
H719 C725 0.930 . S
C720 H706 0.930 . S
C720 C718 1.395 . S
C720 C723 1.403 . S
C721 C718 1.403 . S
C721 C722 1.524 . S
C721 C725 1.400 . S
C722 H707 0.960 . S
C722 H708 0.960 . S
C722 H709 0.960 . S
C722 C721 1.524 . S
C723 C720 1.403 . S
C723 C724 1.392 . S
C723 C727 1.495 . S
C724 C723 1.392 . S
C724 C725 1.385 . S
C724 C726 1.478 . S
C725 H719 0.930 . S
C725 C721 1.400 . S
C725 C724 1.385 . S
C726 C724 1.478 . S
C726 C728 1.381 . S
C726 C732 1.383 . S
C727 C723 1.495 . S
C727 H733 0.959 . S
C727 H734 0.961 . S
C727 H735 0.960 . S
C728 C726 1.381 . S
C728 C729 1.394 . S
C728 H736 0.930 . S
C729 C728 1.394 . S
C729 C730 1.383 . S
C729 H737 0.929 . S
C730 C729 1.383 . S
C730 C731 1.377 . S
C731 H715 0.930 . S
C731 C730 1.377 . S
C731 C732 1.379 . S
C732 H716 0.931 . S
C732 C726 1.383 . S
C732 C731 1.379 . S
H733 C727 0.959 . S
H734 C727 0.961 . S
H735 C727 0.960 . S
H736 C728 0.930 . S
H737 C729 0.929 . S
H738 C746 0.929 . S
H739 C748 0.930 . S
H740 C750 0.930 . S
H741 C753 0.929 . S
H742 C756 0.930 . S
H743 C758 0.960 . S
H744 C758 0.960 . S
H745 C758 0.960 . S
C746 H738 0.929 . S
C746 C747 1.377 . S
C746 C748 1.384 . S
C747 C746 1.377 . S
C747 C753 1.390 . S
C748 H739 0.930 . S
C748 C746 1.384 . S
C748 C749 1.372 . S
C749 C748 1.372 . S
C749 C750 1.400 . S
C749 C754 1.490 . S
C750 H740 0.930 . S
C750 C749 1.400 . S
C750 C753 1.386 . S
H751 C767 0.930 . S
H752 C768 0.931 . S
C753 H741 0.929 . S
C753 C747 1.390 . S
C753 C750 1.386 . S
C754 C749 1.490 . S
C754 C756 1.395 . S
C754 C757 1.403 . S
H755 C761 0.930 . S
C756 H742 0.930 . S
C756 C754 1.395 . S
C756 C759 1.403 1_554 S
C757 C754 1.403 . S
C757 C758 1.524 . S
C757 C761 1.400 . S
C758 H743 0.960 . S
C758 H744 0.960 . S
C758 H745 0.960 . S
C758 C757 1.524 . S
C759 C756 1.403 1_556 S
C759 C760 1.392 . S
C759 C763 1.495 . S
C760 C759 1.392 . S
C760 C761 1.385 1_556 S
C760 C762 1.478 . S
C761 H755 0.930 . S
C761 C757 1.400 . S
C761 C760 1.385 1_554 S
C762 C760 1.478 . S
C762 C764 1.381 . S
C762 C768 1.383 . S
C763 C759 1.495 . S
C763 H769 0.959 . S
C763 H770 0.961 . S
C763 H771 0.960 . S
C764 C762 1.381 . S
C764 C765 1.394 . S
C764 H772 0.930 . S
C765 C764 1.394 . S
C765 C766 1.383 . S
C765 H773 0.929 . S
C766 C765 1.383 . S
C766 C767 1.377 . S
C767 H751 0.930 . S
C767 C766 1.377 . S
C767 C768 1.379 . S
C768 H752 0.931 . S
C768 C762 1.383 . S
C768 C767 1.379 . S
H769 C763 0.959 . S
H770 C763 0.961 . S
H771 C763 0.960 . S
H772 C764 0.930 . S
H773 C765 0.929 . S
H774 C782 0.929 . S
H775 C784 0.930 . S
H776 C786 0.930 . S
H777 C789 0.929 . S
H778 C792 0.930 . S
H779 C794 0.960 . S
H780 C794 0.960 . S
H781 C794 0.960 . S
C782 H774 0.929 . S
C782 C783 1.377 . S
C782 C784 1.384 . S
C783 C782 1.377 . S
C783 C789 1.390 . S
C784 H775 0.930 . S
C784 C782 1.384 . S
C784 C785 1.372 . S
C785 C784 1.372 . S
C785 C786 1.400 . S
C785 C790 1.490 . S
C786 H776 0.930 . S
C786 C785 1.400 . S
C786 C789 1.386 . S
H787 C803 0.930 . S
H788 C804 0.931 . S
C789 H777 0.929 . S
C789 C783 1.390 . S
C789 C786 1.386 . S
C790 C785 1.490 . S
C790 C792 1.395 . S
C790 C793 1.403 1_556 S
H791 C797 0.930 . S
C792 H778 0.930 . S
C792 C790 1.395 . S
C792 C795 1.403 . S
C793 C790 1.403 1_554 S
C793 C794 1.524 . S
C793 C797 1.400 . S
C794 H779 0.960 . S
C794 H780 0.960 . S
C794 H781 0.960 . S
C794 C793 1.524 . S
C795 C792 1.403 . S
C795 C796 1.392 1_556 S
C795 C799 1.495 . S
C796 C795 1.392 1_554 S
C796 C797 1.385 . S
C796 C798 1.478 . S
C797 H791 0.930 . S
C797 C793 1.400 . S
C797 C796 1.385 . S
C798 C796 1.478 . S
C798 C800 1.381 . S
C798 C804 1.383 . S
C799 C795 1.495 . S
C799 H805 0.959 . S
C799 H806 0.961 . S
C799 H807 0.960 . S
C800 C798 1.381 . S
C800 C801 1.394 . S
C800 H808 0.930 . S
C801 C800 1.394 . S
C801 C802 1.383 . S
C801 H809 0.929 . S
C802 C801 1.383 . S
C802 C803 1.377 . S
C803 H787 0.930 . S
C803 C802 1.377 . S
C803 C804 1.379 . S
C804 H788 0.931 . S
C804 C798 1.383 . S
C804 C803 1.379 . S
H805 C799 0.959 . S
H806 C799 0.961 . S
H807 C799 0.960 . S
H808 C800 0.930 . S
H809 C801 0.929 . S
H810 C818 0.929 . S
H811 C820 0.930 . S
H812 C822 0.930 . S
H813 C825 0.929 . S
H814 C828 0.930 . S
H815 C830 0.960 . S
H816 C830 0.960 . S
H817 C830 0.960 . S
C818 H810 0.929 . S
C818 C819 1.377 . S
C818 C820 1.384 . S
C819 C818 1.377 . S
C819 C825 1.390 . S
C820 H811 0.930 . S
C820 C818 1.384 . S
C820 C821 1.372 . S
C821 C820 1.372 . S
C821 C822 1.400 . S
C821 C826 1.490 . S
C822 H812 0.930 . S
C822 C821 1.400 . S
C822 C825 1.386 . S
H823 C839 0.930 . S
H824 C840 0.931 . S
C825 H813 0.929 . S
C825 C819 1.390 . S
C825 C822 1.386 . S
C826 C821 1.490 . S
C826 C828 1.395 . S
C826 C829 1.403 1_556 S
H827 C833 0.930 . S
C828 H814 0.930 . S
C828 C826 1.395 . S
C828 C831 1.403 . S
C829 C826 1.403 1_554 S
C829 C830 1.524 . S
C829 C833 1.400 . S
C830 H815 0.960 . S
C830 H816 0.960 . S
C830 H817 0.960 . S
C830 C829 1.524 . S
C831 C828 1.403 . S
C831 C832 1.392 1_556 S
C831 C835 1.495 . S
C832 C831 1.392 1_554 S
C832 C833 1.385 . S
C832 C834 1.478 . S
C833 H827 0.930 . S
C833 C829 1.400 . S
C833 C832 1.385 . S
C834 C832 1.478 . S
C834 C836 1.381 . S
C834 C840 1.383 . S
C835 C831 1.495 . S
C835 H841 0.959 . S
C835 H842 0.961 . S
C835 H843 0.960 . S
C836 C834 1.381 . S
C836 C837 1.394 . S
C836 H844 0.930 . S
C837 C836 1.394 . S
C837 C838 1.383 . S
C837 H845 0.929 . S
C838 C837 1.383 . S
C838 C839 1.377 . S
C839 H823 0.930 . S
C839 C838 1.377 . S
C839 C840 1.379 . S
C840 H824 0.931 . S
C840 C834 1.383 . S
C840 C839 1.379 . S
H841 C835 0.959 . S
H842 C835 0.961 . S
H843 C835 0.960 . S
H844 C836 0.930 . S
H845 C837 0.929 . S
H846 C854 0.929 . S
H847 C856 0.930 . S
H848 C858 0.930 . S
H849 C861 0.929 . S
H850 C864 0.930 . S
H851 C866 0.960 . S
H852 C866 0.960 . S
H853 C866 0.960 . S
C854 H846 0.929 . S
C854 C855 1.377 . S
C854 C856 1.384 . S
C855 C854 1.377 . S
C855 C861 1.390 . S
C856 H847 0.930 . S
C856 C854 1.384 . S
C856 C857 1.372 . S
C857 C856 1.372 . S
C857 C858 1.400 . S
C857 C862 1.490 . S
C858 H848 0.930 . S
C858 C857 1.400 . S
C858 C861 1.386 . S
H859 C875 0.930 1_554 S
H860 C876 0.931 . S
C861 H849 0.929 . S
C861 C855 1.390 . S
C861 C858 1.386 . S
C862 C857 1.490 . S
C862 C864 1.395 . S
C862 C865 1.403 . S
H863 C869 0.930 . S
C864 H850 0.930 . S
C864 C862 1.395 . S
C864 C867 1.403 . S
C865 C862 1.403 . S
C865 C866 1.524 . S
C865 C869 1.400 . S
C866 H851 0.960 . S
C866 H852 0.960 . S
C866 H853 0.960 . S
C866 C865 1.524 . S
C867 C864 1.403 . S
C867 C868 1.392 . S
C867 C871 1.495 . S
C868 C867 1.392 . S
C868 C869 1.385 . S
C868 C870 1.478 . S
C869 H863 0.930 . S
C869 C865 1.400 . S
C869 C868 1.385 . S
C870 C868 1.478 . S
C870 C872 1.381 . S
C870 C876 1.383 . S
C871 C867 1.495 . S
C871 H877 0.959 . S
C871 H878 0.961 . S
C871 H879 0.960 . S
C872 C870 1.381 . S
C872 C873 1.394 . S
C872 H880 0.930 . S
C873 C872 1.394 . S
C873 C874 1.383 . S
C873 H881 0.929 . S
C874 C873 1.383 . S
C874 C875 1.377 . S
C875 H859 0.930 1_556 S
C875 C874 1.377 . S
C875 C876 1.379 . S
C876 H860 0.931 . S
C876 C870 1.383 . S
C876 C875 1.379 . S
H877 C871 0.959 . S
H878 C871 0.961 . S
H879 C871 0.960 . S
H880 C872 0.930 . S
H881 C873 0.929 . S
H882 C890 0.929 . S
H883 C892 0.930 . S
H884 C894 0.930 . S
H885 C897 0.929 . S
H886 C900 0.930 . S
H887 C902 0.960 . S
H888 C902 0.960 . S
H889 C902 0.960 . S
C890 H882 0.929 . S
C890 C891 1.377 . S
C890 C892 1.384 . S
C891 C890 1.377 . S
C891 C897 1.390 . S
C892 H883 0.930 . S
C892 C890 1.384 . S
C892 C893 1.372 . S
C893 C892 1.372 . S
C893 C894 1.400 . S
C893 C898 1.490 . S
C894 H884 0.930 . S
C894 C893 1.400 . S
C894 C897 1.386 . S
H895 C911 0.930 . S
H896 C912 0.931 . S
C897 H885 0.929 . S
C897 C891 1.390 . S
C897 C894 1.386 . S
C898 C893 1.490 . S
C898 C900 1.395 . S
C898 C901 1.403 . S
H899 C905 0.930 . S
C900 H886 0.930 . S
C900 C898 1.395 . S
C900 C903 1.403 . S
C901 C898 1.403 . S
C901 C902 1.524 . S
C901 C905 1.400 . S
C902 H887 0.960 . S
C902 H888 0.960 . S
C902 H889 0.960 . S
C902 C901 1.524 . S
C903 C900 1.403 . S
C903 C904 1.392 . S
C903 C907 1.495 . S
C904 C903 1.392 . S
C904 C905 1.385 . S
C904 C906 1.478 . S
C905 H899 0.930 . S
C905 C901 1.400 . S
C905 C904 1.385 . S
C906 C904 1.478 . S
C906 C908 1.381 . S
C906 C912 1.383 . S
C907 C903 1.495 . S
C907 H913 0.959 . S
C907 H914 0.961 . S
C907 H915 0.960 . S
C908 C906 1.381 . S
C908 C909 1.394 . S
C908 H916 0.930 . S
C909 C908 1.394 . S
C909 C910 1.383 . S
C909 H917 0.929 . S
C910 C909 1.383 . S
C910 C911 1.377 . S
C911 H895 0.930 . S
C911 C910 1.377 . S
C911 C912 1.379 . S
C912 H896 0.931 . S
C912 C906 1.383 . S
C912 C911 1.379 . S
H913 C907 0.959 . S
H914 C907 0.961 . S
H915 C907 0.960 . S
H916 C908 0.930 . S
H917 C909 0.929 . S
H918 C926 0.929 . S
H919 C928 0.930 . S
H920 C930 0.930 . S
H921 C933 0.929 . S
H922 C936 0.930 . S
H923 C938 0.960 . S
H924 C938 0.960 . S
H925 C938 0.960 . S
C926 H918 0.929 . S
C926 C927 1.377 . S
C926 C928 1.384 . S
C927 C926 1.377 . S
C927 C933 1.390 . S
C928 H919 0.930 . S
C928 C926 1.384 . S
C928 C929 1.372 . S
C929 C928 1.372 . S
C929 C930 1.400 . S
C929 C934 1.490 . S
C930 H920 0.930 . S
C930 C929 1.400 . S
C930 C933 1.386 . S
H931 C947 0.930 . S
H932 C948 0.931 . S
C933 H921 0.929 . S
C933 C927 1.390 . S
C933 C930 1.386 . S
C934 C929 1.490 . S
C934 C936 1.395 . S
C934 C937 1.403 . S
H935 C941 0.930 . S
C936 H922 0.930 . S
C936 C934 1.395 . S
C936 C939 1.403 . S
C937 C934 1.403 . S
C937 C938 1.524 . S
C937 C941 1.400 . S
C938 H923 0.960 . S
C938 H924 0.960 . S
C938 H925 0.960 . S
C938 C937 1.524 . S
C939 C936 1.403 . S
C939 C940 1.392 . S
C939 C943 1.495 . S
C940 C939 1.392 . S
C940 C941 1.385 . S
C940 C942 1.478 . S
C941 H935 0.930 . S
C941 C937 1.400 . S
C941 C940 1.385 . S
C942 C940 1.478 . S
C942 C944 1.381 . S
C942 C948 1.383 . S
C943 C939 1.495 . S
C943 H949 0.959 . S
C943 H950 0.961 . S
C943 H951 0.960 . S
C944 C942 1.381 . S
C944 C945 1.394 . S
C944 H952 0.930 . S
C945 C944 1.394 . S
C945 C946 1.383 . S
C945 H953 0.929 . S
C946 C945 1.383 . S
C946 C947 1.377 . S
C947 H931 0.930 . S
C947 C946 1.377 . S
C947 C948 1.379 . S
C948 H932 0.931 . S
C948 C942 1.383 . S
C948 C947 1.379 . S
H949 C943 0.959 . S
H950 C943 0.961 . S
H951 C943 0.960 . S
H952 C944 0.930 . S
H953 C945 0.929 . S
H954 C962 0.929 . S
H955 C964 0.930 . S
H956 C966 0.930 . S
H957 C969 0.929 . S
H958 C972 0.930 . S
H959 C974 0.960 . S
H960 C974 0.960 . S
H961 C974 0.960 . S
C962 H954 0.929 . S
C962 C963 1.377 . S
C962 C964 1.384 . S
C963 C962 1.377 . S
C963 C969 1.390 . S
C964 H955 0.930 . S
C964 C962 1.384 . S
C964 C965 1.372 . S
C965 C964 1.372 . S
C965 C966 1.400 . S
C965 C970 1.490 . S
C966 H956 0.930 . S
C966 C965 1.400 . S
C966 C969 1.386 . S
H967 C983 0.930 . S
H968 C984 0.931 . S
C969 H957 0.929 . S
C969 C963 1.390 . S
C969 C966 1.386 . S
C970 C965 1.490 . S
C970 C972 1.395 . S
C970 C973 1.403 . S
H971 C977 0.930 . S
C972 H958 0.930 . S
C972 C970 1.395 . S
C972 C975 1.403 . S
C973 C970 1.403 . S
C973 C974 1.524 . S
C973 C977 1.400 . S
C974 H959 0.960 . S
C974 H960 0.960 . S
C974 H961 0.960 . S
C974 C973 1.524 . S
C975 C972 1.403 . S
C975 C976 1.392 . S
C975 C979 1.495 . S
C976 C975 1.392 . S
C976 C977 1.385 . S
C976 C978 1.478 . S
C977 H971 0.930 . S
C977 C973 1.400 . S
C977 C976 1.385 . S
C978 C976 1.478 . S
C978 C980 1.381 . S
C978 C984 1.383 . S
C979 C975 1.495 . S
C979 H985 0.959 . S
C979 H986 0.961 . S
C979 H987 0.960 . S
C980 C978 1.381 . S
C980 C981 1.394 . S
C980 H988 0.930 . S
C981 C980 1.394 . S
C981 C982 1.383 . S
C981 H989 0.929 . S
C982 C981 1.383 . S
C982 C983 1.377 . S
C983 H967 0.930 . S
C983 C982 1.377 . S
C983 C984 1.379 . S
C984 H968 0.931 . S
C984 C978 1.383 . S
C984 C983 1.379 . S
H985 C979 0.959 . S
H986 C979 0.961 . S
H987 C979 0.960 . S
H988 C980 0.930 . S
H989 C981 0.929 . S
H990 C998 0.929 . S
H991 C1000 0.930 . S
H992 C1002 0.930 . S
H993 C1005 0.929 . S
H994 C1008 0.930 . S
H995 C1010 0.960 . S
H996 C1010 0.960 . S
H997 C1010 0.960 . S
C998 H990 0.929 . S
C998 C999 1.377 . S
C998 C1000 1.384 . S
C999 C998 1.377 . S
C999 C1005 1.390 . S
C1000 H991 0.930 . S
C1000 C998 1.384 . S
C1000 C1001 1.372 . S
C1001 C1000 1.372 . S
C1001 C1002 1.400 . S
C1001 C1006 1.490 . S
C1002 H992 0.930 . S
C1002 C1001 1.400 . S
C1002 C1005 1.386 . S
H1003 C1019 0.930 . S
H1004 C1020 0.931 . S
C1005 H993 0.929 . S
C1005 C999 1.390 . S
C1005 C1002 1.386 . S
C1006 C1001 1.490 . S
C1006 C1008 1.395 . S
C1006 C1009 1.403 . S
H1007 C1013 0.930 . S
C1008 H994 0.930 . S
C1008 C1006 1.395 . S
C1008 C1011 1.403 . S
C1009 C1006 1.403 . S
C1009 C1010 1.524 . S
C1009 C1013 1.400 . S
C1010 H995 0.960 . S
C1010 H996 0.960 . S
C1010 H997 0.960 . S
C1010 C1009 1.524 . S
C1011 C1008 1.403 . S
C1011 C1012 1.392 . S
C1011 C1015 1.495 . S
C1012 C1011 1.392 . S
C1012 C1013 1.385 . S
C1012 C1014 1.478 . S
C1013 H1007 0.930 . S
C1013 C1009 1.400 . S
C1013 C1012 1.385 . S
C1014 C1012 1.478 . S
C1014 C1016 1.381 . S
C1014 C1020 1.383 . S
C1015 C1011 1.495 . S
C1015 H1021 0.959 . S
C1015 H1022 0.961 . S
C1015 H1023 0.960 . S
C1016 C1014 1.381 . S
C1016 C1017 1.394 . S
C1016 H1024 0.930 . S
C1017 C1016 1.394 . S
C1017 C1018 1.383 . S
C1017 H1025 0.929 . S
C1018 C1017 1.383 . S
C1018 C1019 1.377 . S
C1019 H1003 0.930 . S
C1019 C1018 1.377 . S
C1019 C1020 1.379 . S
C1020 H1004 0.931 . S
C1020 C1014 1.383 . S
C1020 C1019 1.379 . S
H1021 C1015 0.959 . S
H1022 C1015 0.961 . S
H1023 C1015 0.960 . S
H1024 C1016 0.930 . S
H1025 C1017 0.929 . S
H1026 C1034 0.929 . S
H1027 C1036 0.930 . S
H1028 C1038 0.930 . S
H1029 C1041 0.929 . S
H1030 C1044 0.930 . S
H1031 C1046 0.960 . S
H1032 C1046 0.960 . S
H1033 C1046 0.960 . S
C1034 H1026 0.929 . S
C1034 C1035 1.377 . S
C1034 C1036 1.384 . S
C1035 C1034 1.377 . S
C1035 C1041 1.390 . S
C1036 H1027 0.930 . S
C1036 C1034 1.384 . S
C1036 C1037 1.372 . S
C1037 C1036 1.372 . S
C1037 C1038 1.400 . S
C1037 C1042 1.490 . S
C1038 H1028 0.930 . S
C1038 C1037 1.400 . S
C1038 C1041 1.386 . S
H1039 C1055 0.930 . S
H1040 C1056 0.931 . S
C1041 H1029 0.929 . S
C1041 C1035 1.390 . S
C1041 C1038 1.386 . S
C1042 C1037 1.490 . S
C1042 C1044 1.395 . S
C1042 C1045 1.403 . S
H1043 C1049 0.930 . S
C1044 H1030 0.930 . S
C1044 C1042 1.395 . S
C1044 C1047 1.403 . S
C1045 C1042 1.403 . S
C1045 C1046 1.524 . S
C1045 C1049 1.400 . S
C1046 H1031 0.960 . S
C1046 H1032 0.960 . S
C1046 H1033 0.960 . S
C1046 C1045 1.524 . S
C1047 C1044 1.403 . S
C1047 C1048 1.392 . S
C1047 C1051 1.495 . S
C1048 C1047 1.392 . S
C1048 C1049 1.385 . S
C1048 C1050 1.478 . S
C1049 H1043 0.930 . S
C1049 C1045 1.400 . S
C1049 C1048 1.385 . S
C1050 C1048 1.478 . S
C1050 C1052 1.381 . S
C1050 C1056 1.383 . S
C1051 C1047 1.495 . S
C1051 H1057 0.959 . S
C1051 H1058 0.961 . S
C1051 H1059 0.960 . S
C1052 C1050 1.381 . S
C1052 C1053 1.394 . S
C1052 H1060 0.930 . S
C1053 C1052 1.394 . S
C1053 C1054 1.383 . S
C1053 H1061 0.929 . S
C1054 C1053 1.383 . S
C1054 C1055 1.377 . S
C1055 H1039 0.930 . S
C1055 C1054 1.377 . S
C1055 C1056 1.379 . S
C1056 H1040 0.931 . S
C1056 C1050 1.383 . S
C1056 C1055 1.379 . S
H1057 C1051 0.959 . S
H1058 C1051 0.961 . S
H1059 C1051 0.960 . S
H1060 C1052 0.930 . S
H1061 C1053 0.929 . S
H1062 C1070 0.929 . S
H1063 C1072 0.930 . S
H1064 C1074 0.930 . S
H1065 C1077 0.929 1_554 S
H1066 C1080 0.930 . S
H1067 C1082 0.960 . S
H1068 C1082 0.960 . S
H1069 C1082 0.960 . S
C1070 H1062 0.929 . S
C1070 C1071 1.377 . S
C1070 C1072 1.384 . S
C1071 C1070 1.377 . S
C1071 C1077 1.390 . S
C1072 H1063 0.930 . S
C1072 C1070 1.384 . S
C1072 C1073 1.372 . S
C1073 C1072 1.372 . S
C1073 C1074 1.400 . S
C1073 C1078 1.490 . S
C1074 H1064 0.930 . S
C1074 C1073 1.400 . S
C1074 C1077 1.386 . S
H1075 C1091 0.930 . S
H1076 C1092 0.931 . S
C1077 H1065 0.929 1_556 S
C1077 C1071 1.390 . S
C1077 C1074 1.386 . S
C1078 C1073 1.490 . S
C1078 C1080 1.395 . S
C1078 C1081 1.403 . S
H1079 C1085 0.930 . S
C1080 H1066 0.930 . S
C1080 C1078 1.395 . S
C1080 C1083 1.403 . S
C1081 C1078 1.403 . S
C1081 C1082 1.524 . S
C1081 C1085 1.400 . S
C1082 H1067 0.960 . S
C1082 H1068 0.960 . S
C1082 H1069 0.960 . S
C1082 C1081 1.524 . S
C1083 C1080 1.403 . S
C1083 C1084 1.392 . S
C1083 C1087 1.495 . S
C1084 C1083 1.392 . S
C1084 C1085 1.385 . S
C1084 C1086 1.478 . S
C1085 H1079 0.930 . S
C1085 C1081 1.400 . S
C1085 C1084 1.385 . S
C1086 C1084 1.478 . S
C1086 C1088 1.381 . S
C1086 C1092 1.383 . S
C1087 C1083 1.495 . S
C1087 H1093 0.959 . S
C1087 H1094 0.961 . S
C1087 H1095 0.960 . S
C1088 C1086 1.381 . S
C1088 C1089 1.394 . S
C1088 H1096 0.930 . S
C1089 C1088 1.394 . S
C1089 C1090 1.383 . S
C1089 H1097 0.929 . S
C1090 C1089 1.383 . S
C1090 C1091 1.377 . S
C1091 H1075 0.930 . S
C1091 C1090 1.377 . S
C1091 C1092 1.379 . S
C1092 H1076 0.931 . S
C1092 C1086 1.383 . S
C1092 C1091 1.379 . S
H1093 C1087 0.959 . S
H1094 C1087 0.961 . S
H1095 C1087 0.960 . S
H1096 C1088 0.930 . S
H1097 C1089 0.929 . S
H1098 C1106 0.929 . S
H1099 C1108 0.930 . S
H1100 C1110 0.930 . S
H1101 C1113 0.929 . S
H1102 C1116 0.930 . S
H1103 C1118 0.960 . S
H1104 C1118 0.960 . S
H1105 C1118 0.960 . S
C1106 H1098 0.929 . S
C1106 C1107 1.377 . S
C1106 C1108 1.384 . S
C1107 C1106 1.377 . S
C1107 C1113 1.390 . S
C1108 H1099 0.930 . S
C1108 C1106 1.384 . S
C1108 C1109 1.372 . S
C1109 C1108 1.372 . S
C1109 C1110 1.400 . S
C1109 C1114 1.490 . S
C1110 H1100 0.930 . S
C1110 C1109 1.400 . S
C1110 C1113 1.386 . S
H1111 C1127 0.930 . S
H1112 C1128 0.931 . S
C1113 H1101 0.929 . S
C1113 C1107 1.390 . S
C1113 C1110 1.386 . S
C1114 C1109 1.490 . S
C1114 C1116 1.395 . S
C1114 C1117 1.403 . S
H1115 C1121 0.930 . S
C1116 H1102 0.930 . S
C1116 C1114 1.395 . S
C1116 C1119 1.403 . S
C1117 C1114 1.403 . S
C1117 C1118 1.524 . S
C1117 C1121 1.400 . S
C1118 H1103 0.960 . S
C1118 H1104 0.960 . S
C1118 H1105 0.960 . S
C1118 C1117 1.524 . S
C1119 C1116 1.403 . S
C1119 C1120 1.392 . S
C1119 C1123 1.495 . S
C1120 C1119 1.392 . S
C1120 C1121 1.385 . S
C1120 C1122 1.478 . S
C1121 H1115 0.930 . S
C1121 C1117 1.400 . S
C1121 C1120 1.385 . S
C1122 C1120 1.478 . S
C1122 C1124 1.381 . S
C1122 C1128 1.383 . S
C1123 C1119 1.495 . S
C1123 H1129 0.959 . S
C1123 H1130 0.961 . S
C1123 H1131 0.960 . S
C1124 C1122 1.381 . S
C1124 C1125 1.394 . S
C1124 H1132 0.930 . S
C1125 C1124 1.394 . S
C1125 C1126 1.383 . S
C1125 H1133 0.929 . S
C1126 C1125 1.383 . S
C1126 C1127 1.377 . S
C1127 H1111 0.930 . S
C1127 C1126 1.377 . S
C1127 C1128 1.379 . S
C1128 H1112 0.931 . S
C1128 C1122 1.383 . S
C1128 C1127 1.379 . S
H1129 C1123 0.959 . S
H1130 C1123 0.961 . S
H1131 C1123 0.960 . S
H1132 C1124 0.930 . S
H1133 C1125 0.929 . S
H1134 C1142 0.929 . S
H1135 C1144 0.930 . S
H1136 C1146 0.930 . S
H1137 C1149 0.929 1_554 S
H1138 C1152 0.930 . S
H1139 C1154 0.960 . S
H1140 C1154 0.960 . S
H1141 C1154 0.960 . S
C1142 H1134 0.929 . S
C1142 C1143 1.377 . S
C1142 C1144 1.384 . S
C1143 C1142 1.377 . S
C1143 C1149 1.390 . S
C1144 H1135 0.930 . S
C1144 C1142 1.384 . S
C1144 C1145 1.372 . S
C1145 C1144 1.372 . S
C1145 C1146 1.400 . S
C1145 C1150 1.490 . S
C1146 H1136 0.930 . S
C1146 C1145 1.400 . S
C1146 C1149 1.386 . S
H1147 C1163 0.930 . S
H1148 C1164 0.931 . S
C1149 H1137 0.929 1_556 S
C1149 C1143 1.390 . S
C1149 C1146 1.386 . S
C1150 C1145 1.490 . S
C1150 C1152 1.395 . S
C1150 C1153 1.403 . S
H1151 C1157 0.930 . S
C1152 H1138 0.930 . S
C1152 C1150 1.395 . S
C1152 C1155 1.403 . S
C1153 C1150 1.403 . S
C1153 C1154 1.524 . S
C1153 C1157 1.400 . S
C1154 H1139 0.960 . S
C1154 H1140 0.960 . S
C1154 H1141 0.960 . S
C1154 C1153 1.524 . S
C1155 C1152 1.403 . S
C1155 C1156 1.392 . S
C1155 C1159 1.495 . S
C1156 C1155 1.392 . S
C1156 C1157 1.385 . S
C1156 C1158 1.478 . S
C1157 H1151 0.930 . S
C1157 C1153 1.400 . S
C1157 C1156 1.385 . S
C1158 C1156 1.478 . S
C1158 C1160 1.381 . S
C1158 C1164 1.383 . S
C1159 C1155 1.495 . S
C1159 H1165 0.959 . S
C1159 H1166 0.961 . S
C1159 H1167 0.960 . S
C1160 C1158 1.381 . S
C1160 C1161 1.394 . S
C1160 H1168 0.930 . S
C1161 C1160 1.394 . S
C1161 C1162 1.383 . S
C1161 H1169 0.929 . S
C1162 C1161 1.383 . S
C1162 C1163 1.377 . S
C1163 H1147 0.930 . S
C1163 C1162 1.377 . S
C1163 C1164 1.379 . S
C1164 H1148 0.931 . S
C1164 C1158 1.383 . S
C1164 C1163 1.379 . S
H1165 C1159 0.959 . S
H1166 C1159 0.961 . S
H1167 C1159 0.960 . S
H1168 C1160 0.930 . S
H1169 C1161 0.929 . S
H1170 C1178 0.929 . S
H1171 C1180 0.930 . S
H1172 C1182 0.930 . S
H1173 C1185 0.929 . S
H1174 C1188 0.930 . S
H1175 C1190 0.960 . S
H1176 C1190 0.960 . S
H1177 C1190 0.960 . S
C1178 H1170 0.929 . S
C1178 C1179 1.377 . S
C1178 C1180 1.384 . S
C1179 C1178 1.377 . S
C1179 C1185 1.390 . S
C1180 H1171 0.930 . S
C1180 C1178 1.384 . S
C1180 C1181 1.372 . S
C1181 C1180 1.372 . S
C1181 C1182 1.400 . S
C1181 C1186 1.490 . S
C1182 H1172 0.930 . S
C1182 C1181 1.400 . S
C1182 C1185 1.386 . S
H1183 C1199 0.930 . S
H1184 C1200 0.931 . S
C1185 H1173 0.929 . S
C1185 C1179 1.390 . S
C1185 C1182 1.386 . S
C1186 C1181 1.490 . S
C1186 C1188 1.395 . S
C1186 C1189 1.403 . S
H1187 C1193 0.930 . S
C1188 H1174 0.930 . S
C1188 C1186 1.395 . S
C1188 C1191 1.403 . S
C1189 C1186 1.403 . S
C1189 C1190 1.524 . S
C1189 C1193 1.400 . S
C1190 H1175 0.960 . S
C1190 H1176 0.960 . S
C1190 H1177 0.960 . S
C1190 C1189 1.524 . S
C1191 C1188 1.403 . S
C1191 C1192 1.392 . S
C1191 C1195 1.495 . S
C1192 C1191 1.392 . S
C1192 C1193 1.385 . S
C1192 C1194 1.478 . S
C1193 H1187 0.930 . S
C1193 C1189 1.400 . S
C1193 C1192 1.385 . S
C1194 C1192 1.478 . S
C1194 C1196 1.381 . S
C1194 C1200 1.383 . S
C1195 C1191 1.495 . S
C1195 H1201 0.959 . S
C1195 H1202 0.961 . S
C1195 H1203 0.960 . S
C1196 C1194 1.381 . S
C1196 C1197 1.394 . S
C1196 H1204 0.930 . S
C1197 C1196 1.394 . S
C1197 C1198 1.383 . S
C1197 H1205 0.929 . S
C1198 C1197 1.383 . S
C1198 C1199 1.377 . S
C1199 H1183 0.930 . S
C1199 C1198 1.377 . S
C1199 C1200 1.379 . S
C1200 H1184 0.931 . S
C1200 C1194 1.383 . S
C1200 C1199 1.379 . S
H1201 C1195 0.959 . S
H1202 C1195 0.961 . S
H1203 C1195 0.960 . S
H1204 C1196 0.930 . S
H1205 C1197 0.929 . S
H1206 C1214 0.929 . S
H1207 C1216 0.930 . S
H1208 C1218 0.930 . S
H1209 C1221 0.929 . S
H1210 C1224 0.930 . S
H1211 C1226 0.960 . S
H1212 C1226 0.960 . S
H1213 C1226 0.960 . S
C1214 H1206 0.929 . S
C1214 C1215 1.377 . S
C1214 C1216 1.384 . S
C1215 C1214 1.377 . S
C1215 C1221 1.390 . S
C1216 H1207 0.930 . S
C1216 C1214 1.384 . S
C1216 C1217 1.372 . S
C1217 C1216 1.372 . S
C1217 C1218 1.400 . S
C1217 C1222 1.490 . S
C1218 H1208 0.930 . S
C1218 C1217 1.400 . S
C1218 C1221 1.386 . S
H1219 C1235 0.930 . S
H1220 C1236 0.931 . S
C1221 H1209 0.929 . S
C1221 C1215 1.390 . S
C1221 C1218 1.386 . S
C1222 C1217 1.490 . S
C1222 C1224 1.395 . S
C1222 C1225 1.403 . S
H1223 C1229 0.930 . S
C1224 H1210 0.930 . S
C1224 C1222 1.395 . S
C1224 C1227 1.403 . S
C1225 C1222 1.403 . S
C1225 C1226 1.524 . S
C1225 C1229 1.400 . S
C1226 H1211 0.960 . S
C1226 H1212 0.960 . S
C1226 H1213 0.960 . S
C1226 C1225 1.524 . S
C1227 C1224 1.403 . S
C1227 C1228 1.392 . S
C1227 C1231 1.495 . S
C1228 C1227 1.392 . S
C1228 C1229 1.385 . S
C1228 C1230 1.478 . S
C1229 H1223 0.930 . S
C1229 C1225 1.400 . S
C1229 C1228 1.385 . S
C1230 C1228 1.478 . S
C1230 C1232 1.381 . S
C1230 C1236 1.383 . S
C1231 C1227 1.495 . S
C1231 H1237 0.959 . S
C1231 H1238 0.961 . S
C1231 H1239 0.960 . S
C1232 C1230 1.381 . S
C1232 C1233 1.394 . S
C1232 H1240 0.930 . S
C1233 C1232 1.394 . S
C1233 C1234 1.383 . S
C1233 H1241 0.929 . S
C1234 C1233 1.383 . S
C1234 C1235 1.377 . S
C1235 H1219 0.930 . S
C1235 C1234 1.377 . S
C1235 C1236 1.379 . S
C1236 H1220 0.931 . S
C1236 C1230 1.383 . S
C1236 C1235 1.379 . S
H1237 C1231 0.959 . S
H1238 C1231 0.961 . S
H1239 C1231 0.960 . S
H1240 C1232 0.930 . S
H1241 C1233 0.929 . S
H1242 C1250 0.929 . S
H1243 C1252 0.930 . S
H1244 C1254 0.930 . S
H1245 C1257 0.929 . S
H1246 C1260 0.930 . S
H1247 C1262 0.960 . S
H1248 C1262 0.960 . S
H1249 C1262 0.960 . S
C1250 H1242 0.929 . S
C1250 C1251 1.377 . S
C1250 C1252 1.384 . S
C1251 C1250 1.377 . S
C1251 C1257 1.390 . S
C1252 H1243 0.930 . S
C1252 C1250 1.384 . S
C1252 C1253 1.372 . S
C1253 C1252 1.372 . S
C1253 C1254 1.400 . S
C1253 C1258 1.490 . S
C1254 H1244 0.930 . S
C1254 C1253 1.400 . S
C1254 C1257 1.386 . S
H1255 C1271 0.930 . S
H1256 C1272 0.931 . S
C1257 H1245 0.929 . S
C1257 C1251 1.390 . S
C1257 C1254 1.386 . S
C1258 C1253 1.490 . S
C1258 C1260 1.395 . S
C1258 C1261 1.403 . S
H1259 C1265 0.930 . S
C1260 H1246 0.930 . S
C1260 C1258 1.395 . S
C1260 C1263 1.403 . S
C1261 C1258 1.403 . S
C1261 C1262 1.524 . S
C1261 C1265 1.400 . S
C1262 H1247 0.960 . S
C1262 H1248 0.960 . S
C1262 H1249 0.960 . S
C1262 C1261 1.524 . S
C1263 C1260 1.403 . S
C1263 C1264 1.392 . S
C1263 C1267 1.495 . S
C1264 C1263 1.392 . S
C1264 C1265 1.385 . S
C1264 C1266 1.478 . S
C1265 H1259 0.930 . S
C1265 C1261 1.400 . S
C1265 C1264 1.385 . S
C1266 C1264 1.478 . S
C1266 C1268 1.381 . S
C1266 C1272 1.383 . S
C1267 C1263 1.495 . S
C1267 H1273 0.959 . S
C1267 H1274 0.961 . S
C1267 H1275 0.960 . S
C1268 C1266 1.381 . S
C1268 C1269 1.394 . S
C1268 H1276 0.930 . S
C1269 C1268 1.394 . S
C1269 C1270 1.383 . S
C1269 H1277 0.929 . S
C1270 C1269 1.383 . S
C1270 C1271 1.377 . S
C1271 H1255 0.930 . S
C1271 C1270 1.377 . S
C1271 C1272 1.379 . S
C1272 H1256 0.931 . S
C1272 C1266 1.383 . S
C1272 C1271 1.379 . S
H1273 C1267 0.959 . S
H1274 C1267 0.961 . S
H1275 C1267 0.960 . S
H1276 C1268 0.930 . S
H1277 C1269 0.929 . S
H1278 C1286 0.929 . S
H1279 C1288 0.930 . S
H1280 C1290 0.930 . S
H1281 C1293 0.929 . S
H1282 C1296 0.930 . S
H1283 C1298 0.960 . S
H1284 C1298 0.960 . S
H1285 C1298 0.960 . S
C1286 H1278 0.929 . S
C1286 C1287 1.377 . S
C1286 C1288 1.384 . S
C1287 C1286 1.377 . S
C1287 C1293 1.390 . S
C1288 H1279 0.930 . S
C1288 C1286 1.384 . S
C1288 C1289 1.372 . S
C1289 C1288 1.372 . S
C1289 C1290 1.400 . S
C1289 C1294 1.490 . S
C1290 H1280 0.930 . S
C1290 C1289 1.400 . S
C1290 C1293 1.386 . S
H1291 C1307 0.930 1_556 S
H1292 C1308 0.931 . S
C1293 H1281 0.929 . S
C1293 C1287 1.390 . S
C1293 C1290 1.386 . S
C1294 C1289 1.490 . S
C1294 C1296 1.395 . S
C1294 C1297 1.403 . S
H1295 C1301 0.930 . S
C1296 H1282 0.930 . S
C1296 C1294 1.395 . S
C1296 C1299 1.403 . S
C1297 C1294 1.403 . S
C1297 C1298 1.524 . S
C1297 C1301 1.400 . S
C1298 H1283 0.960 . S
C1298 H1284 0.960 . S
C1298 H1285 0.960 . S
C1298 C1297 1.524 . S
C1299 C1296 1.403 . S
C1299 C1300 1.392 . S
C1299 C1303 1.495 . S
C1300 C1299 1.392 . S
C1300 C1301 1.385 . S
C1300 C1302 1.478 . S
C1301 H1295 0.930 . S
C1301 C1297 1.400 . S
C1301 C1300 1.385 . S
C1302 C1300 1.478 . S
C1302 C1304 1.381 . S
C1302 C1308 1.383 . S
C1303 C1299 1.495 . S
C1303 H1309 0.959 . S
C1303 H1310 0.961 . S
C1303 H1311 0.960 . S
C1304 C1302 1.381 . S
C1304 C1305 1.394 . S
C1304 H1312 0.930 . S
C1305 C1304 1.394 . S
C1305 C1306 1.383 . S
C1305 H1313 0.929 . S
C1306 C1305 1.383 . S
C1306 C1307 1.377 . S
C1307 H1291 0.930 1_554 S
C1307 C1306 1.377 . S
C1307 C1308 1.379 . S
C1308 H1292 0.931 . S
C1308 C1302 1.383 . S
C1308 C1307 1.379 . S
H1309 C1303 0.959 . S
H1310 C1303 0.961 . S
H1311 C1303 0.960 . S
H1312 C1304 0.930 . S
H1313 C1305 0.929 . S
H1314 C1322 0.929 . S
H1315 C1324 0.930 . S
H1316 C1326 0.930 . S
H1317 C1329 0.929 . S
H1318 C1332 0.930 . S
H1319 C1334 0.960 . S
H1320 C1334 0.960 . S
H1321 C1334 0.960 . S
C1322 H1314 0.929 . S
C1322 C1323 1.377 . S
C1322 C1324 1.384 . S
C1323 C1322 1.377 . S
C1323 C1329 1.390 . S
C1324 H1315 0.930 . S
C1324 C1322 1.384 . S
C1324 C1325 1.372 . S
C1325 C1324 1.372 . S
C1325 C1326 1.400 . S
C1325 C1330 1.490 . S
C1326 H1316 0.930 . S
C1326 C1325 1.400 . S
C1326 C1329 1.386 . S
H1327 C1343 0.930 . S
H1328 C1344 0.931 . S
C1329 H1317 0.929 . S
C1329 C1323 1.390 . S
C1329 C1326 1.386 . S
C1330 C1325 1.490 . S
C1330 C1332 1.395 . S
C1330 C1333 1.403 . S
H1331 C1337 0.930 . S
C1332 H1318 0.930 . S
C1332 C1330 1.395 . S
C1332 C1335 1.403 . S
C1333 C1330 1.403 . S
C1333 C1334 1.524 . S
C1333 C1337 1.400 . S
C1334 H1319 0.960 . S
C1334 H1320 0.960 . S
C1334 H1321 0.960 . S
C1334 C1333 1.524 . S
C1335 C1332 1.403 . S
C1335 C1336 1.392 . S
C1335 C1339 1.495 . S
C1336 C1335 1.392 . S
C1336 C1337 1.385 . S
C1336 C1338 1.478 . S
C1337 H1331 0.930 . S
C1337 C1333 1.400 . S
C1337 C1336 1.385 . S
C1338 C1336 1.478 . S
C1338 C1340 1.381 . S
C1338 C1344 1.383 . S
C1339 C1335 1.495 . S
C1339 H1345 0.959 . S
C1339 H1346 0.961 . S
C1339 H1347 0.960 . S
C1340 C1338 1.381 . S
C1340 C1341 1.394 . S
C1340 H1348 0.930 . S
C1341 C1340 1.394 . S
C1341 C1342 1.383 . S
C1341 H1349 0.929 . S
C1342 C1341 1.383 . S
C1342 C1343 1.377 . S
C1343 H1327 0.930 . S
C1343 C1342 1.377 . S
C1343 C1344 1.379 . S
C1344 H1328 0.931 . S
C1344 C1338 1.383 . S
C1344 C1343 1.379 . S
H1345 C1339 0.959 . S
H1346 C1339 0.961 . S
H1347 C1339 0.960 . S
H1348 C1340 0.930 . S
H1349 C1341 0.929 . S
H1350 C1358 0.929 . S
H1351 C1360 0.930 . S
H1352 C1362 0.930 . S
H1353 C1365 0.929 . S
H1354 C1368 0.930 . S
H1355 C1370 0.960 . S
H1356 C1370 0.960 . S
H1357 C1370 0.960 . S
C1358 H1350 0.929 . S
C1358 C1359 1.377 . S
C1358 C1360 1.384 . S
C1359 C1358 1.377 . S
C1359 C1365 1.390 . S
C1360 H1351 0.930 . S
C1360 C1358 1.384 . S
C1360 C1361 1.372 . S
C1361 C1360 1.372 . S
C1361 C1362 1.400 . S
C1361 C1366 1.490 . S
C1362 H1352 0.930 . S
C1362 C1361 1.400 . S
C1362 C1365 1.386 . S
H1363 C1379 0.930 . S
H1364 C1380 0.931 . S
C1365 H1353 0.929 . S
C1365 C1359 1.390 . S
C1365 C1362 1.386 . S
C1366 C1361 1.490 . S
C1366 C1368 1.395 . S
C1366 C1369 1.403 . S
H1367 C1373 0.930 . S
C1368 H1354 0.930 . S
C1368 C1366 1.395 . S
C1368 C1371 1.403 . S
C1369 C1366 1.403 . S
C1369 C1370 1.524 . S
C1369 C1373 1.400 . S
C1370 H1355 0.960 . S
C1370 H1356 0.960 . S
C1370 H1357 0.960 . S
C1370 C1369 1.524 . S
C1371 C1368 1.403 . S
C1371 C1372 1.392 . S
C1371 C1375 1.495 . S
C1372 C1371 1.392 . S
C1372 C1373 1.385 . S
C1372 C1374 1.478 . S
C1373 H1367 0.930 . S
C1373 C1369 1.400 . S
C1373 C1372 1.385 . S
C1374 C1372 1.478 . S
C1374 C1376 1.381 . S
C1374 C1380 1.383 . S
C1375 C1371 1.495 . S
C1375 H1381 0.959 . S
C1375 H1382 0.961 . S
C1375 H1383 0.960 . S
C1376 C1374 1.381 . S
C1376 C1377 1.394 . S
C1376 H1384 0.930 . S
C1377 C1376 1.394 . S
C1377 C1378 1.383 . S
C1377 H1385 0.929 . S
C1378 C1377 1.383 . S
C1378 C1379 1.377 . S
C1379 H1363 0.930 . S
C1379 C1378 1.377 . S
C1379 C1380 1.379 . S
C1380 H1364 0.931 . S
C1380 C1374 1.383 . S
C1380 C1379 1.379 . S
H1381 C1375 0.959 . S
H1382 C1375 0.961 . S
H1383 C1375 0.960 . S
H1384 C1376 0.930 . S
H1385 C1377 0.929 . S
H1386 C1394 0.929 . S
H1387 C1396 0.930 . S
H1388 C1398 0.930 . S
H1389 C1401 0.929 . S
H1390 C1404 0.930 . S
H1391 C1406 0.960 . S
H1392 C1406 0.960 . S
H1393 C1406 0.960 . S
C1394 H1386 0.929 . S
C1394 C1395 1.377 . S
C1394 C1396 1.384 . S
C1395 C1394 1.377 . S
C1395 C1401 1.390 . S
C1396 H1387 0.930 . S
C1396 C1394 1.384 . S
C1396 C1397 1.372 . S
C1397 C1396 1.372 . S
C1397 C1398 1.400 . S
C1397 C1402 1.490 . S
C1398 H1388 0.930 . S
C1398 C1397 1.400 . S
C1398 C1401 1.386 . S
H1399 C1415 0.930 . S
H1400 C1416 0.931 . S
C1401 H1389 0.929 . S
C1401 C1395 1.390 . S
C1401 C1398 1.386 . S
C1402 C1397 1.490 . S
C1402 C1404 1.395 . S
C1402 C1405 1.403 . S
H1403 C1409 0.930 . S
C1404 H1390 0.930 . S
C1404 C1402 1.395 . S
C1404 C1407 1.403 . S
C1405 C1402 1.403 . S
C1405 C1406 1.524 . S
C1405 C1409 1.400 . S
C1406 H1391 0.960 . S
C1406 H1392 0.960 . S
C1406 H1393 0.960 . S
C1406 C1405 1.524 . S
C1407 C1404 1.403 . S
C1407 C1408 1.392 . S
C1407 C1411 1.495 . S
C1408 C1407 1.392 . S
C1408 C1409 1.385 . S
C1408 C1410 1.478 . S
C1409 H1403 0.930 . S
C1409 C1405 1.400 . S
C1409 C1408 1.385 . S
C1410 C1408 1.478 . S
C1410 C1412 1.381 . S
C1410 C1416 1.383 . S
C1411 C1407 1.495 . S
C1411 H1417 0.959 . S
C1411 H1418 0.961 . S
C1411 H1419 0.960 . S
C1412 C1410 1.381 . S
C1412 C1413 1.394 . S
C1412 H1420 0.930 . S
C1413 C1412 1.394 . S
C1413 C1414 1.383 . S
C1413 H1421 0.929 . S
C1414 C1413 1.383 . S
C1414 C1415 1.377 . S
C1415 H1399 0.930 . S
C1415 C1414 1.377 . S
C1415 C1416 1.379 . S
C1416 H1400 0.931 . S
C1416 C1410 1.383 . S
C1416 C1415 1.379 . S
H1417 C1411 0.959 . S
H1418 C1411 0.961 . S
H1419 C1411 0.960 . S
H1420 C1412 0.930 . S
H1421 C1413 0.929 . S
H1422 C1430 0.929 . S
H1423 C1432 0.930 . S
H1424 C1434 0.930 . S
H1425 C1437 0.929 . S
H1426 C1440 0.930 . S
H1427 C1442 0.960 . S
H1428 C1442 0.960 . S
H1429 C1442 0.960 . S
C1430 H1422 0.929 . S
C1430 C1431 1.377 . S
C1430 C1432 1.384 . S
C1431 C1430 1.377 . S
C1431 C1437 1.390 . S
C1432 H1423 0.930 . S
C1432 C1430 1.384 . S
C1432 C1433 1.372 . S
C1433 C1432 1.372 . S
C1433 C1434 1.400 . S
C1433 C1438 1.490 . S
C1434 H1424 0.930 . S
C1434 C1433 1.400 . S
C1434 C1437 1.386 . S
H1435 C1451 0.930 . S
H1436 C1452 0.931 . S
C1437 H1425 0.929 . S
C1437 C1431 1.390 . S
C1437 C1434 1.386 . S
C1438 C1433 1.490 . S
C1438 C1440 1.395 . S
C1438 C1441 1.403 . S
H1439 C1445 0.930 . S
C1440 H1426 0.930 . S
C1440 C1438 1.395 . S
C1440 C1443 1.403 . S
C1441 C1438 1.403 . S
C1441 C1442 1.524 . S
C1441 C1445 1.400 . S
C1442 H1427 0.960 . S
C1442 H1428 0.960 . S
C1442 H1429 0.960 . S
C1442 C1441 1.524 . S
C1443 C1440 1.403 . S
C1443 C1444 1.392 . S
C1443 C1447 1.495 . S
C1444 C1443 1.392 . S
C1444 C1445 1.385 . S
C1444 C1446 1.478 . S
C1445 H1439 0.930 . S
C1445 C1441 1.400 . S
C1445 C1444 1.385 . S
C1446 C1444 1.478 . S
C1446 C1448 1.381 . S
C1446 C1452 1.383 . S
C1447 C1443 1.495 . S
C1447 H1453 0.959 . S
C1447 H1454 0.961 . S
C1447 H1455 0.960 . S
C1448 C1446 1.381 . S
C1448 C1449 1.394 . S
C1448 H1456 0.930 . S
C1449 C1448 1.394 . S
C1449 C1450 1.383 . S
C1449 H1457 0.929 . S
C1450 C1449 1.383 . S
C1450 C1451 1.377 . S
C1451 H1435 0.930 . S
C1451 C1450 1.377 . S
C1451 C1452 1.379 . S
C1452 H1436 0.931 . S
C1452 C1446 1.383 . S
C1452 C1451 1.379 . S
H1453 C1447 0.959 . S
H1454 C1447 0.961 . S
H1455 C1447 0.960 . S
H1456 C1448 0.930 . S
H1457 C1449 0.929 . S
H1458 C1466 0.929 . S
H1459 C1468 0.930 . S
H1460 C1470 0.930 . S
H1461 C1473 0.929 . S
H1462 C1476 0.930 . S
H1463 C1478 0.960 . S
H1464 C1478 0.960 . S
H1465 C1478 0.960 . S
C1466 H1458 0.929 . S
C1466 C1467 1.377 . S
C1466 C1468 1.384 . S
C1467 C1466 1.377 . S
C1467 C1473 1.390 . S
C1468 H1459 0.930 . S
C1468 C1466 1.384 . S
C1468 C1469 1.372 . S
C1469 C1468 1.372 . S
C1469 C1470 1.400 . S
C1469 C1474 1.490 . S
C1470 H1460 0.930 . S
C1470 C1469 1.400 . S
C1470 C1473 1.386 . S
H1471 C1487 0.930 . S
H1472 C1488 0.931 . S
C1473 H1461 0.929 . S
C1473 C1467 1.390 . S
C1473 C1470 1.386 . S
C1474 C1469 1.490 . S
C1474 C1476 1.395 . S
C1474 C1477 1.403 . S
H1475 C1481 0.930 . S
C1476 H1462 0.930 . S
C1476 C1474 1.395 . S
C1476 C1479 1.403 . S
C1477 C1474 1.403 . S
C1477 C1478 1.524 . S
C1477 C1481 1.400 . S
C1478 H1463 0.960 . S
C1478 H1464 0.960 . S
C1478 H1465 0.960 . S
C1478 C1477 1.524 . S
C1479 C1476 1.403 . S
C1479 C1480 1.392 . S
C1479 C1483 1.495 . S
C1480 C1479 1.392 . S
C1480 C1481 1.385 . S
C1480 C1482 1.478 . S
C1481 H1475 0.930 . S
C1481 C1477 1.400 . S
C1481 C1480 1.385 . S
C1482 C1480 1.478 . S
C1482 C1484 1.381 . S
C1482 C1488 1.383 . S
C1483 C1479 1.495 . S
C1483 H1489 0.959 . S
C1483 H1490 0.961 . S
C1483 H1491 0.960 . S
C1484 C1482 1.381 . S
C1484 C1485 1.394 . S
C1484 H1492 0.930 . S
C1485 C1484 1.394 . S
C1485 C1486 1.383 . S
C1485 H1493 0.929 . S
C1486 C1485 1.383 . S
C1486 C1487 1.377 . S
C1487 H1471 0.930 . S
C1487 C1486 1.377 . S
C1487 C1488 1.379 . S
C1488 H1472 0.931 . S
C1488 C1482 1.383 . S
C1488 C1487 1.379 . S
H1489 C1483 0.959 . S
H1490 C1483 0.961 . S
H1491 C1483 0.960 . S
H1492 C1484 0.930 . S
H1493 C1485 0.929 . S
H1494 C1502 0.929 . S
H1495 C1504 0.930 . S
H1496 C1506 0.930 . S
H1497 C1509 0.929 . S
H1498 C1512 0.930 . S
H1499 C1514 0.960 . S
H1500 C1514 0.960 . S
H1501 C1514 0.960 . S
C1502 H1494 0.929 . S
C1502 C1503 1.377 . S
C1502 C1504 1.384 . S
C1503 C1502 1.377 . S
C1503 C1509 1.390 . S
C1504 H1495 0.930 . S
C1504 C1502 1.384 . S
C1504 C1505 1.372 . S
C1505 C1504 1.372 . S
C1505 C1506 1.400 . S
C1505 C1510 1.490 . S
C1506 H1496 0.930 . S
C1506 C1505 1.400 . S
C1506 C1509 1.386 . S
H1507 C1523 0.930 . S
H1508 C1524 0.931 . S
C1509 H1497 0.929 . S
C1509 C1503 1.390 . S
C1509 C1506 1.386 . S
C1510 C1505 1.490 . S
C1510 C1512 1.395 . S
C1510 C1513 1.403 . S
H1511 C1517 0.930 . S
C1512 H1498 0.930 . S
C1512 C1510 1.395 . S
C1512 C1515 1.403 . S
C1513 C1510 1.403 . S
C1513 C1514 1.524 . S
C1513 C1517 1.400 . S
C1514 H1499 0.960 . S
C1514 H1500 0.960 . S
C1514 H1501 0.960 . S
C1514 C1513 1.524 . S
C1515 C1512 1.403 . S
C1515 C1516 1.392 . S
C1515 C1519 1.495 . S
C1516 C1515 1.392 . S
C1516 C1517 1.385 . S
C1516 C1518 1.478 . S
C1517 H1511 0.930 . S
C1517 C1513 1.400 . S
C1517 C1516 1.385 . S
C1518 C1516 1.478 . S
C1518 C1520 1.381 . S
C1518 C1524 1.383 . S
C1519 C1515 1.495 . S
C1519 H1525 0.959 . S
C1519 H1526 0.961 . S
C1519 H1527 0.960 . S
C1520 C1518 1.381 . S
C1520 C1521 1.394 . S
C1520 H1528 0.930 . S
C1521 C1520 1.394 . S
C1521 C1522 1.383 . S
C1521 H1529 0.929 . S
C1522 C1521 1.383 . S
C1522 C1523 1.377 . S
C1523 H1507 0.930 . S
C1523 C1522 1.377 . S
C1523 C1524 1.379 . S
C1524 H1508 0.931 . S
C1524 C1518 1.383 . S
C1524 C1523 1.379 . S
H1525 C1519 0.959 . S
H1526 C1519 0.961 . S
H1527 C1519 0.960 . S
H1528 C1520 0.930 . S
H1529 C1521 0.929 . S
H1530 C1538 0.929 . S
H1531 C1540 0.930 . S
H1532 C1542 0.930 . S
H1533 C1545 0.929 . S
H1534 C1548 0.930 . S
H1535 C1550 0.960 . S
H1536 C1550 0.960 . S
H1537 C1550 0.960 . S
C1538 H1530 0.929 . S
C1538 C1539 1.377 . S
C1538 C1540 1.384 . S
C1539 C1538 1.377 . S
C1539 C1545 1.390 . S
C1540 H1531 0.930 . S
C1540 C1538 1.384 . S
C1540 C1541 1.372 . S
C1541 C1540 1.372 . S
C1541 C1542 1.400 . S
C1541 C1546 1.490 . S
C1542 H1532 0.930 . S
C1542 C1541 1.400 . S
C1542 C1545 1.386 . S
H1543 C1559 0.930 1_556 S
H1544 C1560 0.931 . S
C1545 H1533 0.929 . S
C1545 C1539 1.390 . S
C1545 C1542 1.386 . S
C1546 C1541 1.490 . S
C1546 C1548 1.395 . S
C1546 C1549 1.403 . S
H1547 C1553 0.930 . S
C1548 H1534 0.930 . S
C1548 C1546 1.395 . S
C1548 C1551 1.403 . S
C1549 C1546 1.403 . S
C1549 C1550 1.524 . S
C1549 C1553 1.400 . S
C1550 H1535 0.960 . S
C1550 H1536 0.960 . S
C1550 H1537 0.960 . S
C1550 C1549 1.524 . S
C1551 C1548 1.403 . S
C1551 C1552 1.392 . S
C1551 C1555 1.495 . S
C1552 C1551 1.392 . S
C1552 C1553 1.385 . S
C1552 C1554 1.478 . S
C1553 H1547 0.930 . S
C1553 C1549 1.400 . S
C1553 C1552 1.385 . S
C1554 C1552 1.478 . S
C1554 C1556 1.381 . S
C1554 C1560 1.383 . S
C1555 C1551 1.495 . S
C1555 H1561 0.959 . S
C1555 H1562 0.961 . S
C1555 H1563 0.960 . S
C1556 C1554 1.381 . S
C1556 C1557 1.394 . S
C1556 H1564 0.930 . S
C1557 C1556 1.394 . S
C1557 C1558 1.383 . S
C1557 H1565 0.929 . S
C1558 C1557 1.383 . S
C1558 C1559 1.377 . S
C1559 H1543 0.930 1_554 S
C1559 C1558 1.377 . S
C1559 C1560 1.379 . S
C1560 H1544 0.931 . S
C1560 C1554 1.383 . S
C1560 C1559 1.379 . S
H1561 C1555 0.959 . S
H1562 C1555 0.961 . S
H1563 C1555 0.960 . S
H1564 C1556 0.930 . S
H1565 C1557 0.929 . S
H1566 C1574 0.929 . S
H1567 C1576 0.930 . S
H1568 C1578 0.930 . S
H1569 C1581 0.929 . S
H1570 C1584 0.930 . S
H1571 C1586 0.960 . S
H1572 C1586 0.960 . S
H1573 C1586 0.960 . S
C1574 H1566 0.929 . S
C1574 C1575 1.377 . S
C1574 C1576 1.384 . S
C1575 C1574 1.377 . S
C1575 C1581 1.390 . S
C1576 H1567 0.930 . S
C1576 C1574 1.384 . S
C1576 C1577 1.372 . S
C1577 C1576 1.372 . S
C1577 C1578 1.400 . S
C1577 C1582 1.490 . S
C1578 H1568 0.930 . S
C1578 C1577 1.400 . S
C1578 C1581 1.386 . S
H1579 C1595 0.930 1_556 S
H1580 C1596 0.931 . S
C1581 H1569 0.929 . S
C1581 C1575 1.390 . S
C1581 C1578 1.386 . S
C1582 C1577 1.490 . S
C1582 C1584 1.395 . S
C1582 C1585 1.403 . S
H1583 C1589 0.930 . S
C1584 H1570 0.930 . S
C1584 C1582 1.395 . S
C1584 C1587 1.403 . S
C1585 C1582 1.403 . S
C1585 C1586 1.524 . S
C1585 C1589 1.400 . S
C1586 H1571 0.960 . S
C1586 H1572 0.960 . S
C1586 H1573 0.960 . S
C1586 C1585 1.524 . S
C1587 C1584 1.403 . S
C1587 C1588 1.392 . S
C1587 C1591 1.495 . S
C1588 C1587 1.392 . S
C1588 C1589 1.385 . S
C1588 C1590 1.478 . S
C1589 H1583 0.930 . S
C1589 C1585 1.400 . S
C1589 C1588 1.385 . S
C1590 C1588 1.478 . S
C1590 C1592 1.381 . S
C1590 C1596 1.383 . S
C1591 C1587 1.495 . S
C1591 H1597 0.959 . S
C1591 H1598 0.961 . S
C1591 H1599 0.960 . S
C1592 C1590 1.381 . S
C1592 C1593 1.394 . S
C1592 H1600 0.930 . S
C1593 C1592 1.394 . S
C1593 C1594 1.383 . S
C1593 H1601 0.929 . S
C1594 C1593 1.383 . S
C1594 C1595 1.377 . S
C1595 H1579 0.930 1_554 S
C1595 C1594 1.377 . S
C1595 C1596 1.379 . S
C1596 H1580 0.931 . S
C1596 C1590 1.383 . S
C1596 C1595 1.379 . S
H1597 C1591 0.959 . S
H1598 C1591 0.961 . S
H1599 C1591 0.960 . S
H1600 C1592 0.930 . S
H1601 C1593 0.929 . S
H1602 C1610 0.929 . S
H1603 C1612 0.930 . S
H1604 C1614 0.930 . S
H1605 C1617 0.929 . S
H1606 C1620 0.930 . S
H1607 C1622 0.960 . S
H1608 C1622 0.960 . S
H1609 C1622 0.960 . S
C1610 H1602 0.929 . S
C1610 C1611 1.377 . S
C1610 C1612 1.384 . S
C1611 C1610 1.377 . S
C1611 C1617 1.390 . S
C1612 H1603 0.930 . S
C1612 C1610 1.384 . S
C1612 C1613 1.372 . S
C1613 C1612 1.372 . S
C1613 C1614 1.400 . S
C1613 C1618 1.490 . S
C1614 H1604 0.930 . S
C1614 C1613 1.400 . S
C1614 C1617 1.386 . S
H1615 C1631 0.930 . S
H1616 C1632 0.931 . S
C1617 H1605 0.929 . S
C1617 C1611 1.390 . S
C1617 C1614 1.386 . S
C1618 C1613 1.490 . S
C1618 C1620 1.395 . S
C1618 C1621 1.403 . S
H1619 C1625 0.930 . S
C1620 H1606 0.930 . S
C1620 C1618 1.395 . S
C1620 C1623 1.403 . S
C1621 C1618 1.403 . S
C1621 C1622 1.524 . S
C1621 C1625 1.400 . S
C1622 H1607 0.960 . S
C1622 H1608 0.960 . S
C1622 H1609 0.960 . S
C1622 C1621 1.524 . S
C1623 C1620 1.403 . S
C1623 C1624 1.392 . S
C1623 C1627 1.495 . S
C1624 C1623 1.392 . S
C1624 C1625 1.385 . S
C1624 C1626 1.478 . S
C1625 H1619 0.930 . S
C1625 C1621 1.400 . S
C1625 C1624 1.385 . S
C1626 C1624 1.478 . S
C1626 C1628 1.381 . S
C1626 C1632 1.383 . S
C1627 C1623 1.495 . S
C1627 H1633 0.959 . S
C1627 H1634 0.961 . S
C1627 H1635 0.960 . S
C1628 C1626 1.381 . S
C1628 C1629 1.394 . S
C1628 H1636 0.930 . S
C1629 C1628 1.394 . S
C1629 C1630 1.383 . S
C1629 H1637 0.929 . S
C1630 C1629 1.383 . S
C1630 C1631 1.377 . S
C1631 H1615 0.930 . S
C1631 C1630 1.377 . S
C1631 C1632 1.379 . S
C1632 H1616 0.931 . S
C1632 C1626 1.383 . S
C1632 C1631 1.379 . S
H1633 C1627 0.959 . S
H1634 C1627 0.961 . S
H1635 C1627 0.960 . S
H1636 C1628 0.930 . S
H1637 C1629 0.929 . S
H1638 C1646 0.929 . S
H1639 C1648 0.930 . S
H1640 C1650 0.930 . S
H1641 C1653 0.929 . S
H1642 C1656 0.930 . S
H1643 C1658 0.960 . S
H1644 C1658 0.960 . S
H1645 C1658 0.960 . S
C1646 H1638 0.929 . S
C1646 C1647 1.377 . S
C1646 C1648 1.384 . S
C1647 C1646 1.377 . S
C1647 C1653 1.390 . S
C1648 H1639 0.930 . S
C1648 C1646 1.384 . S
C1648 C1649 1.372 . S
C1649 C1648 1.372 . S
C1649 C1650 1.400 . S
C1649 C1654 1.490 . S
C1650 H1640 0.930 . S
C1650 C1649 1.400 . S
C1650 C1653 1.386 . S
H1651 C1667 0.930 . S
H1652 C1668 0.931 . S
C1653 H1641 0.929 . S
C1653 C1647 1.390 . S
C1653 C1650 1.386 . S
C1654 C1649 1.490 . S
C1654 C1656 1.395 . S
C1654 C1657 1.403 . S
H1655 C1661 0.930 . S
C1656 H1642 0.930 . S
C1656 C1654 1.395 . S
C1656 C1659 1.403 . S
C1657 C1654 1.403 . S
C1657 C1658 1.524 . S
C1657 C1661 1.400 . S
C1658 H1643 0.960 . S
C1658 H1644 0.960 . S
C1658 H1645 0.960 . S
C1658 C1657 1.524 . S
C1659 C1656 1.403 . S
C1659 C1660 1.392 . S
C1659 C1663 1.495 . S
C1660 C1659 1.392 . S
C1660 C1661 1.385 . S
C1660 C1662 1.478 . S
C1661 H1655 0.930 . S
C1661 C1657 1.400 . S
C1661 C1660 1.385 . S
C1662 C1660 1.478 . S
C1662 C1664 1.381 . S
C1662 C1668 1.383 . S
C1663 C1659 1.495 . S
C1663 H1669 0.959 . S
C1663 H1670 0.961 . S
C1663 H1671 0.960 . S
C1664 C1662 1.381 . S
C1664 C1665 1.394 . S
C1664 H1672 0.930 . S
C1665 C1664 1.394 . S
C1665 C1666 1.383 . S
C1665 H1673 0.929 . S
C1666 C1665 1.383 . S
C1666 C1667 1.377 . S
C1667 H1651 0.930 . S
C1667 C1666 1.377 . S
C1667 C1668 1.379 . S
C1668 H1652 0.931 . S
C1668 C1662 1.383 . S
C1668 C1667 1.379 . S
H1669 C1663 0.959 . S
H1670 C1663 0.961 . S
H1671 C1663 0.960 . S
H1672 C1664 0.930 . S
H1673 C1665 0.929 . S
H1674 C1682 0.929 . S
H1675 C1684 0.930 . S
H1676 C1686 0.930 . S
H1677 C1689 0.929 . S
H1678 C1692 0.930 . S
H1679 C1694 0.960 . S
H1680 C1694 0.960 . S
H1681 C1694 0.960 . S
C1682 H1674 0.929 . S
C1682 C1683 1.377 . S
C1682 C1684 1.384 . S
C1683 C1682 1.377 . S
C1683 C1689 1.390 . S
C1684 H1675 0.930 . S
C1684 C1682 1.384 . S
C1684 C1685 1.372 . S
C1685 C1684 1.372 . S
C1685 C1686 1.400 . S
C1685 C1690 1.490 . S
C1686 H1676 0.930 . S
C1686 C1685 1.400 . S
C1686 C1689 1.386 . S
H1687 C1703 0.930 . S
H1688 C1704 0.931 . S
C1689 H1677 0.929 . S
C1689 C1683 1.390 . S
C1689 C1686 1.386 . S
C1690 C1685 1.490 . S
C1690 C1692 1.395 . S
C1690 C1693 1.403 . S
H1691 C1697 0.930 . S
C1692 H1678 0.930 . S
C1692 C1690 1.395 . S
C1692 C1695 1.403 . S
C1693 C1690 1.403 . S
C1693 C1694 1.524 . S
C1693 C1697 1.400 . S
C1694 H1679 0.960 . S
C1694 H1680 0.960 . S
C1694 H1681 0.960 . S
C1694 C1693 1.524 . S
C1695 C1692 1.403 . S
C1695 C1696 1.392 . S
C1695 C1699 1.495 . S
C1696 C1695 1.392 . S
C1696 C1697 1.385 . S
C1696 C1698 1.478 . S
C1697 H1691 0.930 . S
C1697 C1693 1.400 . S
C1697 C1696 1.385 . S
C1698 C1696 1.478 . S
C1698 C1700 1.381 . S
C1698 C1704 1.383 . S
C1699 C1695 1.495 . S
C1699 H1705 0.959 . S
C1699 H1706 0.961 . S
C1699 H1707 0.960 . S
C1700 C1698 1.381 . S
C1700 C1701 1.394 . S
C1700 H1708 0.930 . S
C1701 C1700 1.394 . S
C1701 C1702 1.383 . S
C1701 H1709 0.929 . S
C1702 C1701 1.383 . S
C1702 C1703 1.377 . S
C1703 H1687 0.930 . S
C1703 C1702 1.377 . S
C1703 C1704 1.379 . S
C1704 H1688 0.931 . S
C1704 C1698 1.383 . S
C1704 C1703 1.379 . S
H1705 C1699 0.959 . S
H1706 C1699 0.961 . S
H1707 C1699 0.960 . S
H1708 C1700 0.930 . S
H1709 C1701 0.929 . S
H1710 C1718 0.929 . S
H1711 C1720 0.930 . S
H1712 C1722 0.930 . S
H1713 C1725 0.929 . S
H1714 C1728 0.930 . S
H1715 C1730 0.960 . S
H1716 C1730 0.960 . S
H1717 C1730 0.960 . S
C1718 H1710 0.929 . S
C1718 C1719 1.377 . S
C1718 C1720 1.384 . S
C1719 C1718 1.377 . S
C1719 C1725 1.390 . S
C1720 H1711 0.930 . S
C1720 C1718 1.384 . S
C1720 C1721 1.372 . S
C1721 C1720 1.372 . S
C1721 C1722 1.400 . S
C1721 C1726 1.490 . S
C1722 H1712 0.930 . S
C1722 C1721 1.400 . S
C1722 C1725 1.386 . S
H1723 C1739 0.930 . S
H1724 C1740 0.931 . S
C1725 H1713 0.929 . S
C1725 C1719 1.390 . S
C1725 C1722 1.386 . S
C1726 C1721 1.490 . S
C1726 C1728 1.395 . S
C1726 C1729 1.403 . S
H1727 C1733 0.930 . S
C1728 H1714 0.930 . S
C1728 C1726 1.395 . S
C1728 C1731 1.403 . S
C1729 C1726 1.403 . S
C1729 C1730 1.524 . S
C1729 C1733 1.400 . S
C1730 H1715 0.960 . S
C1730 H1716 0.960 . S
C1730 H1717 0.960 . S
C1730 C1729 1.524 . S
C1731 C1728 1.403 . S
C1731 C1732 1.392 . S
C1731 C1735 1.495 . S
C1732 C1731 1.392 . S
C1732 C1733 1.385 . S
C1732 C1734 1.478 . S
C1733 H1727 0.930 . S
C1733 C1729 1.400 . S
C1733 C1732 1.385 . S
C1734 C1732 1.478 . S
C1734 C1736 1.381 . S
C1734 C1740 1.383 . S
C1735 C1731 1.495 . S
C1735 H1741 0.959 . S
C1735 H1742 0.961 . S
C1735 H1743 0.960 . S
C1736 C1734 1.381 . S
C1736 C1737 1.394 . S
C1736 H1744 0.930 . S
C1737 C1736 1.394 . S
C1737 C1738 1.383 . S
C1737 H1745 0.929 . S
C1738 C1737 1.383 . S
C1738 C1739 1.377 . S
C1739 H1723 0.930 . S
C1739 C1738 1.377 . S
C1739 C1740 1.379 . S
C1740 H1724 0.931 . S
C1740 C1734 1.383 . S
C1740 C1739 1.379 . S
H1741 C1735 0.959 . S
H1742 C1735 0.961 . S
H1743 C1735 0.960 . S
H1744 C1736 0.930 . S
H1745 C1737 0.929 . S
H1746 C1754 0.929 . S
H1747 C1756 0.930 . S
H1748 C1758 0.930 . S
H1749 C1761 0.929 . S
H1750 C1764 0.930 . S
H1751 C1766 0.960 . S
H1752 C1766 0.960 . S
H1753 C1766 0.960 . S
C1754 H1746 0.929 . S
C1754 C1755 1.377 . S
C1754 C1756 1.384 . S
C1755 C1754 1.377 . S
C1755 C1761 1.390 . S
C1756 H1747 0.930 . S
C1756 C1754 1.384 . S
C1756 C1757 1.372 . S
C1757 C1756 1.372 . S
C1757 C1758 1.400 . S
C1757 C1762 1.490 . S
C1758 H1748 0.930 . S
C1758 C1757 1.400 . S
C1758 C1761 1.386 . S
H1759 C1775 0.930 . S
H1760 C1776 0.931 . S
C1761 H1749 0.929 . S
C1761 C1755 1.390 . S
C1761 C1758 1.386 . S
C1762 C1757 1.490 . S
C1762 C1764 1.395 . S
C1762 C1765 1.403 . S
H1763 C1769 0.930 . S
C1764 H1750 0.930 . S
C1764 C1762 1.395 . S
C1764 C1767 1.403 . S
C1765 C1762 1.403 . S
C1765 C1766 1.524 . S
C1765 C1769 1.400 . S
C1766 H1751 0.960 . S
C1766 H1752 0.960 . S
C1766 H1753 0.960 . S
C1766 C1765 1.524 . S
C1767 C1764 1.403 . S
C1767 C1768 1.392 . S
C1767 C1771 1.495 . S
C1768 C1767 1.392 . S
C1768 C1769 1.385 . S
C1768 C1770 1.478 . S
C1769 H1763 0.930 . S
C1769 C1765 1.400 . S
C1769 C1768 1.385 . S
C1770 C1768 1.478 . S
C1770 C1772 1.381 . S
C1770 C1776 1.383 . S
C1771 C1767 1.495 . S
C1771 H1777 0.959 . S
C1771 H1778 0.961 . S
C1771 H1779 0.960 . S
C1772 C1770 1.381 . S
C1772 C1773 1.394 . S
C1772 H1780 0.930 . S
C1773 C1772 1.394 . S
C1773 C1774 1.383 . S
C1773 H1781 0.929 . S
C1774 C1773 1.383 . S
C1774 C1775 1.377 . S
C1775 H1759 0.930 . S
C1775 C1774 1.377 . S
C1775 C1776 1.379 . S
C1776 H1760 0.931 . S
C1776 C1770 1.383 . S
C1776 C1775 1.379 . S
H1777 C1771 0.959 . S
H1778 C1771 0.961 . S
H1779 C1771 0.960 . S
H1780 C1772 0.930 . S
H1781 C1773 0.929 . S
H1782 C1790 0.929 1_545 S
H1783 C1792 0.930 . S
H1784 C1794 0.930 . S
H1785 C1797 0.929 . S
H1786 C1800 0.930 . S
H1787 C1802 0.960 . S
H1788 C1802 0.960 . S
H1789 C1802 0.960 . S
C1790 H1782 0.929 1_565 S
C1790 C1791 1.377 . S
C1790 C1792 1.384 . S
C1791 C1790 1.377 . S
C1791 C1797 1.390 . S
C1792 H1783 0.930 . S
C1792 C1790 1.384 . S
C1792 C1793 1.372 . S
C1793 C1792 1.372 . S
C1793 C1794 1.400 . S
C1793 C1798 1.490 . S
C1794 H1784 0.930 . S
C1794 C1793 1.400 . S
C1794 C1797 1.386 . S
H1795 C1811 0.930 . S
H1796 C1812 0.931 . S
C1797 H1785 0.929 . S
C1797 C1791 1.390 . S
C1797 C1794 1.386 . S
C1798 C1793 1.490 . S
C1798 C1800 1.395 . S
C1798 C1801 1.403 . S
H1799 C1805 0.930 . S
C1800 H1786 0.930 . S
C1800 C1798 1.395 . S
C1800 C1803 1.403 . S
C1801 C1798 1.403 . S
C1801 C1802 1.524 . S
C1801 C1805 1.400 . S
C1802 H1787 0.960 . S
C1802 H1788 0.960 . S
C1802 H1789 0.960 . S
C1802 C1801 1.524 . S
C1803 C1800 1.403 . S
C1803 C1804 1.392 . S
C1803 C1807 1.495 . S
C1804 C1803 1.392 . S
C1804 C1805 1.385 . S
C1804 C1806 1.478 . S
C1805 H1799 0.930 . S
C1805 C1801 1.400 . S
C1805 C1804 1.385 . S
C1806 C1804 1.478 . S
C1806 C1808 1.381 . S
C1806 C1812 1.383 . S
C1807 C1803 1.495 . S
C1807 H1813 0.959 . S
C1807 H1814 0.961 . S
C1807 H1815 0.960 . S
C1808 C1806 1.381 . S
C1808 C1809 1.394 . S
C1808 H1816 0.930 . S
C1809 C1808 1.394 . S
C1809 C1810 1.383 . S
C1809 H1817 0.929 . S
C1810 C1809 1.383 . S
C1810 C1811 1.377 . S
C1811 H1795 0.930 . S
C1811 C1810 1.377 . S
C1811 C1812 1.379 . S
C1812 H1796 0.931 . S
C1812 C1806 1.383 . S
C1812 C1811 1.379 . S
H1813 C1807 0.959 . S
H1814 C1807 0.961 . S
H1815 C1807 0.960 . S
H1816 C1808 0.930 . S
H1817 C1809 0.929 . S
H1818 C1826 0.929 . S
H1819 C1828 0.930 . S
H1820 C1830 0.930 . S
H1821 C1833 0.929 . S
H1822 C1836 0.930 . S
H1823 C1838 0.960 . S
H1824 C1838 0.960 . S
H1825 C1838 0.960 . S
C1826 H1818 0.929 . S
C1826 C1827 1.377 . S
C1826 C1828 1.384 . S
C1827 C1826 1.377 . S
C1827 C1833 1.390 . S
C1828 H1819 0.930 . S
C1828 C1826 1.384 . S
C1828 C1829 1.372 . S
C1829 C1828 1.372 . S
C1829 C1830 1.400 . S
C1829 C1834 1.490 . S
C1830 H1820 0.930 . S
C1830 C1829 1.400 . S
C1830 C1833 1.386 . S
H1831 C1847 0.930 . S
H1832 C1848 0.931 . S
C1833 H1821 0.929 . S
C1833 C1827 1.390 . S
C1833 C1830 1.386 . S
C1834 C1829 1.490 . S
C1834 C1836 1.395 . S
C1834 C1837 1.403 . S
H1835 C1841 0.930 . S
C1836 H1822 0.930 . S
C1836 C1834 1.395 . S
C1836 C1839 1.403 . S
C1837 C1834 1.403 . S
C1837 C1838 1.524 . S
C1837 C1841 1.400 . S
C1838 H1823 0.960 . S
C1838 H1824 0.960 . S
C1838 H1825 0.960 . S
C1838 C1837 1.524 . S
C1839 C1836 1.403 . S
C1839 C1840 1.392 . S
C1839 C1843 1.495 1_556 S
C1840 C1839 1.392 . S
C1840 C1841 1.385 . S
C1840 C1842 1.478 . S
C1841 H1835 0.930 . S
C1841 C1837 1.400 . S
C1841 C1840 1.385 . S
C1842 C1840 1.478 . S
C1842 C1844 1.381 . S
C1842 C1848 1.383 . S
C1843 C1839 1.495 1_554 S
C1843 H1849 0.959 . S
C1843 H1850 0.961 . S
C1843 H1851 0.960 . S
C1844 C1842 1.381 . S
C1844 C1845 1.394 . S
C1844 H1852 0.930 . S
C1845 C1844 1.394 . S
C1845 C1846 1.383 1_556 S
C1845 H1853 0.927 1_556 S
C1846 C1845 1.383 1_554 S
C1846 C1847 1.377 1_554 S
C1847 H1831 0.930 . S
C1847 C1846 1.377 1_556 S
C1847 C1848 1.379 . S
C1848 H1832 0.931 . S
C1848 C1842 1.383 . S
C1848 C1847 1.379 . S
H1849 C1843 0.959 . S
H1850 C1843 0.961 . S
H1851 C1843 0.960 . S
H1852 C1844 0.930 . S
H1853 C1845 0.927 1_554 S
H1854 C1862 0.929 . S
H1855 C1864 0.930 . S
H1856 C1866 0.930 . S
H1857 C1869 0.929 . S
H1858 C1872 0.930 . S
H1859 C1874 0.960 . S
H1860 C1874 0.960 . S
H1861 C1874 0.960 . S
C1862 H1854 0.929 . S
C1862 C1863 1.377 . S
C1862 C1864 1.384 . S
C1863 C1862 1.377 . S
C1863 C1869 1.390 . S
C1864 H1855 0.930 . S
C1864 C1862 1.384 . S
C1864 C1865 1.372 . S
C1865 C1864 1.372 . S
C1865 C1866 1.400 . S
C1865 C1870 1.490 . S
C1866 H1856 0.930 . S
C1866 C1865 1.400 . S
C1866 C1869 1.386 . S
H1867 C1883 0.930 . S
H1868 C1884 0.931 . S
C1869 H1857 0.929 . S
C1869 C1863 1.390 . S
C1869 C1866 1.386 . S
C1870 C1865 1.490 . S
C1870 C1872 1.395 . S
C1870 C1873 1.403 . S
H1871 C1877 0.930 . S
C1872 H1858 0.930 . S
C1872 C1870 1.395 . S
C1872 C1875 1.403 . S
C1873 C1870 1.403 . S
C1873 C1874 1.524 . S
C1873 C1877 1.400 . S
C1874 H1859 0.960 . S
C1874 H1860 0.960 . S
C1874 H1861 0.960 . S
C1874 C1873 1.524 . S
C1875 C1872 1.403 . S
C1875 C1876 1.392 . S
C1875 C1879 1.495 . S
C1876 C1875 1.392 . S
C1876 C1877 1.385 . S
C1876 C1878 1.478 . S
C1877 H1871 0.930 . S
C1877 C1873 1.400 . S
C1877 C1876 1.385 . S
C1878 C1876 1.478 . S
C1878 C1880 1.381 . S
C1878 C1884 1.383 1_556 S
C1879 C1875 1.495 . S
C1879 H1885 0.959 . S
C1879 H1886 0.961 . S
C1879 H1887 0.960 . S
C1880 C1878 1.381 . S
C1880 C1881 1.394 . S
C1880 H1888 0.930 . S
C1881 C1880 1.394 . S
C1881 C1882 1.383 . S
C1881 H1889 0.929 . S
C1882 C1881 1.383 . S
C1882 C1883 1.377 1_556 S
C1883 H1867 0.930 . S
C1883 C1882 1.377 1_554 S
C1883 C1884 1.379 . S
C1884 H1868 0.931 . S
C1884 C1878 1.383 1_554 S
C1884 C1883 1.379 . S
H1885 C1879 0.959 . S
H1886 C1879 0.961 . S
H1887 C1879 0.960 . S
H1888 C1880 0.930 . S
H1889 C1881 0.929 . S
H1890 C1898 0.929 . S
H1891 C1900 0.930 . S
H1892 C1902 0.930 . S
H1893 C1905 0.929 . S
H1894 C1908 0.930 . S
H1895 C1910 0.960 1_554 S
H1896 C1910 0.960 . S
H1897 C1910 0.960 . S
C1898 H1890 0.929 . S
C1898 C1899 1.377 . S
C1898 C1900 1.384 . S
C1899 C1898 1.377 . S
C1899 C1905 1.390 . S
C1900 H1891 0.930 . S
C1900 C1898 1.384 . S
C1900 C1901 1.372 . S
C1901 C1900 1.372 . S
C1901 C1902 1.400 . S
C1901 C1906 1.490 . S
C1902 H1892 0.930 . S
C1902 C1901 1.400 . S
C1902 C1905 1.386 . S
H1903 C1919 0.930 1_554 S
H1904 C1920 0.931 . S
C1905 H1893 0.929 . S
C1905 C1899 1.390 . S
C1905 C1902 1.386 . S
C1906 C1901 1.490 . S
C1906 C1908 1.395 . S
C1906 C1909 1.403 . S
H1907 C1913 0.930 . S
C1908 H1894 0.930 . S
C1908 C1906 1.395 . S
C1908 C1911 1.403 . S
C1909 C1906 1.403 . S
C1909 C1910 1.524 . S
C1909 C1913 1.400 . S
C1910 H1895 0.960 1_556 S
C1910 H1896 0.960 . S
C1910 H1897 0.960 . S
C1910 C1909 1.524 . S
C1911 C1908 1.403 . S
C1911 C1912 1.392 . S
C1911 C1915 1.495 . S
C1912 C1911 1.392 . S
C1912 C1913 1.385 . S
C1912 C1914 1.478 . S
C1913 H1907 0.930 . S
C1913 C1909 1.400 . S
C1913 C1912 1.385 . S
C1914 C1912 1.478 . S
C1914 C1916 1.381 . S
C1914 C1920 1.383 . S
C1915 C1911 1.495 . S
C1915 H1921 0.959 . S
C1915 H1922 0.961 . S
C1915 H1923 0.960 . S
C1916 C1914 1.381 . S
C1916 C1917 1.394 . S
C1916 H1924 0.930 . S
C1917 C1916 1.394 . S
C1917 C1918 1.383 . S
C1917 H1925 0.929 . S
C1918 C1917 1.383 . S
C1918 C1919 1.377 . S
C1919 H1903 0.930 1_556 S
C1919 C1918 1.377 . S
C1919 C1920 1.379 . S
C1920 H1904 0.931 . S
C1920 C1914 1.383 . S
C1920 C1919 1.379 . S
H1921 C1915 0.959 . S
H1922 C1915 0.961 . S
H1923 C1915 0.960 . S
H1924 C1916 0.930 . S
H1925 C1917 0.929 . S
H1926 C1934 0.929 . S
H1927 C1936 0.930 . S
H1928 C1938 0.930 . S
H1929 C1941 0.929 . S
H1930 C1944 0.930 . S
H1931 C1946 0.960 . S
H1932 C1946 0.960 . S
H1933 C1946 0.960 . S
C1934 H1926 0.929 . S
C1934 C1935 1.377 . S
C1934 C1936 1.384 . S
C1935 C1934 1.377 . S
C1935 C1941 1.390 . S
C1936 H1927 0.930 . S
C1936 C1934 1.384 . S
C1936 C1937 1.372 . S
C1937 C1936 1.372 . S
C1937 C1938 1.400 . S
C1937 C1942 1.490 . S
C1938 H1928 0.930 . S
C1938 C1937 1.400 . S
C1938 C1941 1.386 . S
H1939 C1955 0.930 . S
H1940 C1956 0.931 . S
C1941 H1929 0.929 . S
C1941 C1935 1.390 . S
C1941 C1938 1.386 . S
C1942 C1937 1.490 . S
C1942 C1944 1.395 . S
C1942 C1945 1.403 . S
H1943 C1949 0.930 . S
C1944 H1930 0.930 . S
C1944 C1942 1.395 . S
C1944 C1947 1.403 . S
C1945 C1942 1.403 . S
C1945 C1946 1.524 . S
C1945 C1949 1.400 . S
C1946 H1931 0.960 . S
C1946 H1932 0.960 . S
C1946 H1933 0.960 . S
C1946 C1945 1.524 . S
C1947 C1944 1.403 . S
C1947 C1948 1.392 . S
C1947 C1951 1.495 . S
C1948 C1947 1.392 . S
C1948 C1949 1.385 . S
C1948 C1950 1.478 . S
C1949 H1943 0.930 . S
C1949 C1945 1.400 . S
C1949 C1948 1.385 . S
C1950 C1948 1.478 . S
C1950 C1952 1.381 . S
C1950 C1956 1.383 . S
C1951 C1947 1.495 . S
C1951 H1957 0.959 . S
C1951 H1958 0.961 . S
C1951 H1959 0.960 . S
C1952 C1950 1.381 . S
C1952 C1953 1.394 . S
C1952 H1960 0.930 . S
C1953 C1952 1.394 . S
C1953 C1954 1.383 . S
C1953 H1961 0.929 . S
C1954 C1953 1.383 . S
C1954 C1955 1.377 . S
C1955 H1939 0.930 . S
C1955 C1954 1.377 . S
C1955 C1956 1.379 . S
C1956 H1940 0.931 . S
C1956 C1950 1.383 . S
C1956 C1955 1.379 . S
H1957 C1951 0.959 . S
H1958 C1951 0.961 . S
H1959 C1951 0.960 . S
H1960 C1952 0.930 . S
H1961 C1953 0.929 . S
H1962 C1970 0.929 . S
H1963 C1972 0.930 . S
H1964 C1974 0.930 . S
H1965 C1977 0.929 . S
H1966 C1980 0.930 . S
H1967 C1982 0.960 . S
H1968 C1982 0.960 . S
H1969 C1982 0.960 . S
C1970 H1962 0.929 . S
C1970 C1971 1.377 . S
C1970 C1972 1.384 . S
C1971 C1970 1.377 . S
C1971 C1977 1.390 . S
C1972 H1963 0.930 . S
C1972 C1970 1.384 . S
C1972 C1973 1.372 . S
C1973 C1972 1.372 . S
C1973 C1974 1.400 . S
C1973 C1978 1.490 . S
C1974 H1964 0.930 . S
C1974 C1973 1.400 . S
C1974 C1977 1.386 . S
H1975 C1991 0.930 . S
H1976 C1992 0.931 . S
C1977 H1965 0.929 . S
C1977 C1971 1.390 . S
C1977 C1974 1.386 . S
C1978 C1973 1.490 . S
C1978 C1980 1.395 . S
C1978 C1981 1.403 . S
H1979 C1985 0.930 . S
C1980 H1966 0.930 . S
C1980 C1978 1.395 . S
C1980 C1983 1.403 . S
C1981 C1978 1.403 . S
C1981 C1982 1.524 . S
C1981 C1985 1.400 . S
C1982 H1967 0.960 . S
C1982 H1968 0.960 . S
C1982 H1969 0.960 . S
C1982 C1981 1.524 . S
C1983 C1980 1.403 . S
C1983 C1984 1.392 . S
C1983 C1987 1.495 . S
C1984 C1983 1.392 . S
C1984 C1985 1.385 . S
C1984 C1986 1.478 . S
C1985 H1979 0.930 . S
C1985 C1981 1.400 . S
C1985 C1984 1.385 . S
C1986 C1984 1.478 . S
C1986 C1988 1.381 . S
C1986 C1992 1.383 . S
C1987 C1983 1.495 . S
C1987 H1993 0.959 . S
C1987 H1994 0.961 . S
C1987 H1995 0.960 . S
C1988 C1986 1.381 . S
C1988 C1989 1.394 . S
C1988 H1996 0.930 . S
C1989 C1988 1.394 . S
C1989 C1990 1.383 . S
C1989 H1997 0.929 . S
C1990 C1989 1.383 . S
C1990 C1991 1.377 . S
C1991 H1975 0.930 . S
C1991 C1990 1.377 . S
C1991 C1992 1.379 . S
C1992 H1976 0.931 . S
C1992 C1986 1.383 . S
C1992 C1991 1.379 . S
H1993 C1987 0.959 . S
H1994 C1987 0.961 . S
H1995 C1987 0.960 . S
H1996 C1988 0.930 . S
H1997 C1989 0.929 . S
H1998 C2006 0.929 . S
H1999 C2008 0.930 . S
H2000 C2010 0.930 . S
H2001 C2013 0.929 . S
H2002 C2016 0.930 . S
H2003 C2018 0.960 . S
H2004 C2018 0.960 . S
H2005 C2018 0.960 . S
C2006 H1998 0.929 . S
C2006 C2007 1.377 . S
C2006 C2008 1.384 . S
C2007 C2006 1.377 . S
C2007 C2013 1.390 . S
C2008 H1999 0.930 . S
C2008 C2006 1.384 . S
C2008 C2009 1.372 . S
C2009 C2008 1.372 . S
C2009 C2010 1.400 . S
C2009 C2014 1.490 . S
C2010 H2000 0.930 . S
C2010 C2009 1.400 . S
C2010 C2013 1.386 . S
H2011 C2027 0.930 . S
H2012 C2028 0.931 . S
C2013 H2001 0.929 . S
C2013 C2007 1.390 . S
C2013 C2010 1.386 . S
C2014 C2009 1.490 . S
C2014 C2016 1.395 . S
C2014 C2017 1.403 . S
H2015 C2021 0.930 . S
C2016 H2002 0.930 . S
C2016 C2014 1.395 . S
C2016 C2019 1.403 . S
C2017 C2014 1.403 . S
C2017 C2018 1.524 . S
C2017 C2021 1.400 . S
C2018 H2003 0.960 . S
C2018 H2004 0.960 . S
C2018 H2005 0.960 . S
C2018 C2017 1.524 . S
C2019 C2016 1.403 . S
C2019 C2020 1.392 . S
C2019 C2023 1.495 . S
C2020 C2019 1.392 . S
C2020 C2021 1.385 . S
C2020 C2022 1.478 . S
C2021 H2015 0.930 . S
C2021 C2017 1.400 . S
C2021 C2020 1.385 . S
C2022 C2020 1.478 . S
C2022 C2024 1.381 . S
C2022 C2028 1.383 . S
C2023 C2019 1.495 . S
C2023 H2029 0.959 . S
C2023 H2030 0.961 . S
C2023 H2031 0.960 . S
C2024 C2022 1.381 . S
C2024 C2025 1.394 . S
C2024 H2032 0.930 . S
C2025 C2024 1.394 . S
C2025 C2026 1.383 . S
C2025 H2033 0.929 . S
C2026 C2025 1.383 . S
C2026 C2027 1.377 . S
C2027 H2011 0.930 . S
C2027 C2026 1.377 . S
C2027 C2028 1.379 . S
C2028 H2012 0.931 . S
C2028 C2022 1.383 . S
C2028 C2027 1.379 . S
H2029 C2023 0.959 . S
H2030 C2023 0.961 . S
H2031 C2023 0.960 . S
H2032 C2024 0.930 . S
H2033 C2025 0.929 . S
H2034 C2042 0.929 . S
H2035 C2044 0.930 . S
H2036 C2046 0.930 . S
H2037 C2049 0.929 1_556 S
H2038 C2052 0.930 . S
H2039 C2054 0.960 . S
H2040 C2054 0.960 . S
H2041 C2054 0.960 . S
C2042 H2034 0.929 . S
C2042 C2043 1.377 . S
C2042 C2044 1.384 1_556 S
C2043 C2042 1.377 . S
C2043 C2049 1.390 1_556 S
C2044 H2035 0.930 . S
C2044 C2042 1.384 1_554 S
C2044 C2045 1.372 . S
C2045 C2044 1.372 . S
C2045 C2046 1.400 . S
C2045 C2050 1.490 . S
C2046 H2036 0.930 . S
C2046 C2045 1.400 . S
C2046 C2049 1.386 . S
H2047 C2063 0.930 . S
H2048 C2064 0.931 . S
C2049 H2037 0.929 1_554 S
C2049 C2043 1.390 1_554 S
C2049 C2046 1.386 . S
C2050 C2045 1.490 . S
C2050 C2052 1.395 . S
C2050 C2053 1.403 . S
H2051 C2057 0.930 . S
C2052 H2038 0.930 . S
C2052 C2050 1.395 . S
C2052 C2055 1.403 . S
C2053 C2050 1.403 . S
C2053 C2054 1.524 1_554 S
C2053 C2057 1.400 . S
C2054 H2039 0.960 . S
C2054 H2040 0.960 . S
C2054 H2041 0.960 . S
C2054 C2053 1.524 1_556 S
C2055 C2052 1.403 . S
C2055 C2056 1.392 . S
C2055 C2059 1.495 . S
C2056 C2055 1.392 . S
C2056 C2057 1.385 . S
C2056 C2058 1.478 . S
C2057 H2051 0.930 . S
C2057 C2053 1.400 . S
C2057 C2056 1.385 . S
C2058 C2056 1.478 . S
C2058 C2060 1.381 . S
C2058 C2064 1.383 . S
C2059 C2055 1.495 . S
C2059 H2065 0.959 . S
C2059 H2066 0.961 . S
C2059 H2067 0.960 . S
C2060 C2058 1.381 . S
C2060 C2061 1.394 . S
C2060 H2068 0.930 . S
C2061 C2060 1.394 . S
C2061 C2062 1.383 . S
C2061 H2069 0.929 1_565 S
C2062 C2061 1.383 . S
C2062 C2063 1.377 . S
C2063 H2047 0.930 . S
C2063 C2062 1.377 . S
C2063 C2064 1.379 . S
C2064 H2048 0.931 . S
C2064 C2058 1.383 . S
C2064 C2063 1.379 . S
H2065 C2059 0.959 . S
H2066 C2059 0.961 . S
H2067 C2059 0.960 . S
H2068 C2060 0.930 . S
H2069 C2061 0.929 1_545 S
H2070 C2078 0.929 . S
H2071 C2080 0.930 . S
H2072 C2082 0.930 . S
H2073 C2085 0.929 . S
H2074 C2088 0.930 . S
H2075 C2090 0.960 . S
H2076 C2090 0.960 . S
H2077 C2090 0.960 . S
C2078 H2070 0.929 . S
C2078 C2079 1.377 . S
C2078 C2080 1.384 . S
C2079 C2078 1.377 . S
C2079 C2085 1.390 . S
C2080 H2071 0.930 . S
C2080 C2078 1.384 . S
C2080 C2081 1.372 . S
C2081 C2080 1.372 . S
C2081 C2082 1.400 . S
C2081 C2086 1.490 . S
C2082 H2072 0.930 . S
C2082 C2081 1.400 . S
C2082 C2085 1.386 . S
H2083 C2099 0.930 . S
H2084 C2100 0.931 . S
C2085 H2073 0.929 . S
C2085 C2079 1.390 . S
C2085 C2082 1.386 . S
C2086 C2081 1.490 . S
C2086 C2088 1.395 . S
C2086 C2089 1.403 . S
H2087 C2093 0.930 . S
C2088 H2074 0.930 . S
C2088 C2086 1.395 . S
C2088 C2091 1.403 . S
C2089 C2086 1.403 . S
C2089 C2090 1.524 . S
C2089 C2093 1.400 . S
C2090 H2075 0.960 . S
C2090 H2076 0.960 . S
C2090 H2077 0.960 . S
C2090 C2089 1.524 . S
C2091 C2088 1.403 . S
C2091 C2092 1.392 . S
C2091 C2095 1.495 . S
C2092 C2091 1.392 . S
C2092 C2093 1.385 . S
C2092 C2094 1.478 . S
C2093 H2087 0.930 . S
C2093 C2089 1.400 . S
C2093 C2092 1.385 . S
C2094 C2092 1.478 . S
C2094 C2096 1.381 1_554 S
C2094 C2100 1.383 . S
C2095 C2091 1.495 . S
C2095 H2101 0.959 . S
C2095 H2102 0.961 . S
C2095 H2103 0.960 . S
C2096 C2094 1.381 1_556 S
C2096 C2097 1.394 . S
C2096 H2104 0.930 . S
C2097 C2096 1.394 . S
C2097 C2098 1.383 . S
C2097 H2105 0.929 . S
C2098 C2097 1.383 . S
C2098 C2099 1.377 1_556 S
C2099 H2083 0.930 . S
C2099 C2098 1.377 1_554 S
C2099 C2100 1.379 . S
C2100 H2084 0.931 . S
C2100 C2094 1.383 . S
C2100 C2099 1.379 . S
H2101 C2095 0.959 . S
H2102 C2095 0.961 . S
H2103 C2095 0.960 . S
H2104 C2096 0.930 . S
H2105 C2097 0.929 . S
H2106 C2114 0.929 . S
H2107 C2116 0.930 . S
H2108 C2118 0.930 . S
H2109 C2121 0.929 . S
H2110 C2124 0.930 . S
H2111 C2126 0.960 1_556 S
H2112 C2126 0.960 . S
H2113 C2126 0.960 . S
C2114 H2106 0.929 . S
C2114 C2115 1.377 . S
C2114 C2116 1.384 . S
C2115 C2114 1.377 . S
C2115 C2121 1.390 . S
C2116 H2107 0.930 . S
C2116 C2114 1.384 . S
C2116 C2117 1.372 . S
C2117 C2116 1.372 . S
C2117 C2118 1.400 . S
C2117 C2122 1.490 . S
C2118 H2108 0.930 . S
C2118 C2117 1.400 . S
C2118 C2121 1.386 . S
H2119 C2135 0.930 1_556 S
H2120 C2136 0.931 . S
C2121 H2109 0.929 . S
C2121 C2115 1.390 . S
C2121 C2118 1.386 . S
C2122 C2117 1.490 . S
C2122 C2124 1.395 . S
C2122 C2125 1.403 . S
H2123 C2129 0.935 . S
C2124 H2110 0.930 . S
C2124 C2122 1.395 . S
C2124 C2127 1.403 . S
C2125 C2122 1.403 . S
C2125 C2126 1.524 . S
C2125 C2129 1.400 . S
C2126 H2111 0.960 1_554 S
C2126 H2112 0.960 . S
C2126 H2113 0.960 . S
C2126 C2125 1.524 . S
C2127 C2124 1.403 . S
C2127 C2128 1.392 . S
C2127 C2131 1.495 . S
C2128 C2127 1.392 . S
C2128 C2129 1.385 . S
C2128 C2130 1.478 . S
C2129 H2123 0.935 . S
C2129 C2125 1.400 . S
C2129 C2128 1.385 . S
C2130 C2128 1.478 . S
C2130 C2132 1.381 . S
C2130 C2136 1.383 . S
C2131 C2127 1.495 . S
C2131 H2137 0.959 . S
C2131 H2138 0.961 . S
C2131 H2139 0.960 . S
C2132 C2130 1.381 . S
C2132 C2133 1.394 . S
C2132 H2140 0.930 . S
C2133 C2132 1.394 . S
C2133 C2134 1.383 1_554 S
C2133 H2141 0.929 . S
C2134 C2133 1.383 1_556 S
C2134 C2135 1.377 1_556 S
C2135 H2119 0.930 1_554 S
C2135 C2134 1.377 1_554 S
C2135 C2136 1.379 . S
C2136 H2120 0.931 . S
C2136 C2130 1.383 . S
C2136 C2135 1.379 . S
H2137 C2131 0.959 . S
H2138 C2131 0.961 . S
H2139 C2131 0.960 . S
H2140 C2132 0.930 . S
H2141 C2133 0.929 . S
H2142 C2150 0.929 . S
H2143 C2152 0.930 . S
H2144 C2154 0.930 . S
H2145 C2157 0.929 . S
H2146 C2160 0.930 . S
H2147 C2162 0.960 . S
H2148 C2162 0.960 . S
H2149 C2162 0.960 . S
C2150 H2142 0.929 . S
C2150 C2151 1.377 . S
C2150 C2152 1.384 . S
C2151 C2150 1.377 . S
C2151 C2157 1.390 . S
C2152 H2143 0.930 . S
C2152 C2150 1.384 . S
C2152 C2153 1.372 . S
C2153 C2152 1.372 . S
C2153 C2154 1.400 . S
C2153 C2158 1.490 . S
C2154 H2144 0.930 . S
C2154 C2153 1.400 . S
C2154 C2157 1.386 . S
H2155 C2171 0.930 . S
H2156 C2172 0.931 . S
C2157 H2145 0.929 . S
C2157 C2151 1.390 . S
C2157 C2154 1.386 . S
C2158 C2153 1.490 . S
C2158 C2160 1.395 1_655 S
C2158 C2161 1.403 . S
H2159 C2165 0.930 . S
C2160 H2146 0.930 . S
C2160 C2158 1.395 1_455 S
C2160 C2163 1.403 . S
C2161 C2158 1.403 . S
C2161 C2162 1.524 . S
C2161 C2165 1.400 1_655 S
C2162 H2147 0.960 . S
C2162 H2148 0.960 . S
C2162 H2149 0.960 . S
C2162 C2161 1.524 . S
C2163 C2160 1.403 . S
C2163 C2164 1.392 . S
C2163 C2167 1.495 . S
C2164 C2163 1.392 . S
C2164 C2165 1.385 . S
C2164 C2166 1.478 . S
C2165 H2159 0.930 . S
C2165 C2161 1.400 1_455 S
C2165 C2164 1.385 . S
C2166 C2164 1.478 . S
C2166 C2168 1.381 . S
C2166 C2172 1.383 . S
C2167 C2163 1.495 . S
C2167 H2173 0.959 . S
C2167 H2174 0.961 . S
C2167 H2175 0.960 . S
C2168 C2166 1.381 . S
C2168 C2169 1.394 . S
C2168 H2176 0.930 . S
C2169 C2168 1.394 . S
C2169 C2170 1.383 . S
C2169 H2177 0.929 . S
C2170 C2169 1.383 . S
C2170 C2171 1.377 . S
C2171 H2155 0.930 . S
C2171 C2170 1.377 . S
C2171 C2172 1.379 . S
C2172 H2156 0.931 . S
C2172 C2166 1.383 . S
C2172 C2171 1.379 . S
H2173 C2167 0.959 . S
H2174 C2167 0.961 . S
H2175 C2167 0.960 . S
H2176 C2168 0.930 . S
H2177 C2169 0.929 . S
H2178 C2186 0.929 . S
H2179 C2188 0.930 . S
H2180 C2190 0.930 . S
H2181 C2193 0.929 . S
H2182 C2196 0.930 . S
H2183 C2198 0.960 . S
H2184 C2198 0.960 . S
H2185 C2198 0.960 . S
C2186 H2178 0.929 . S
C2186 C2187 1.377 . S
C2186 C2188 1.384 . S
C2187 C2186 1.377 . S
C2187 C2193 1.390 . S
C2188 H2179 0.930 . S
C2188 C2186 1.384 . S
C2188 C2189 1.372 . S
C2189 C2188 1.372 . S
C2189 C2190 1.400 . S
C2189 C2194 1.490 . S
C2190 H2180 0.930 . S
C2190 C2189 1.400 . S
C2190 C2193 1.386 . S
H2191 C2207 0.930 . S
H2192 C2208 0.931 . S
C2193 H2181 0.929 . S
C2193 C2187 1.390 . S
C2193 C2190 1.386 . S
C2194 C2189 1.490 . S
C2194 C2196 1.395 . S
C2194 C2197 1.403 . S
H2195 C2201 0.930 . S
C2196 H2182 0.930 . S
C2196 C2194 1.395 . S
C2196 C2199 1.403 . S
C2197 C2194 1.403 . S
C2197 C2198 1.524 . S
C2197 C2201 1.400 . S
C2198 H2183 0.960 . S
C2198 H2184 0.960 . S
C2198 H2185 0.960 . S
C2198 C2197 1.524 . S
C2199 C2196 1.403 . S
C2199 C2200 1.392 . S
C2199 C2203 1.495 . S
C2200 C2199 1.392 . S
C2200 C2201 1.385 . S
C2200 C2202 1.478 . S
C2201 H2195 0.930 . S
C2201 C2197 1.400 . S
C2201 C2200 1.385 . S
C2202 C2200 1.478 . S
C2202 C2204 1.381 . S
C2202 C2208 1.383 . S
C2203 C2199 1.495 . S
C2203 H2209 0.959 . S
C2203 H2210 0.961 . S
C2203 H2211 0.960 . S
C2204 C2202 1.381 . S
C2204 C2205 1.394 . S
C2204 H2212 0.930 . S
C2205 C2204 1.394 . S
C2205 C2206 1.383 . S
C2205 H2213 0.929 . S
C2206 C2205 1.383 . S
C2206 C2207 1.377 . S
C2207 H2191 0.930 . S
C2207 C2206 1.377 . S
C2207 C2208 1.379 . S
C2208 H2192 0.931 . S
C2208 C2202 1.383 . S
C2208 C2207 1.379 . S
H2209 C2203 0.959 . S
H2210 C2203 0.961 . S
H2211 C2203 0.960 . S
H2212 C2204 0.930 . S
H2213 C2205 0.929 . S
H2214 C2222 0.929 . S
H2215 C2224 0.930 . S
H2216 C2226 0.930 . S
H2217 C2229 0.929 . S
H2218 C2232 0.930 . S
H2219 C2234 0.960 . S
H2220 C2234 0.960 . S
H2221 C2234 0.960 . S
C2222 H2214 0.929 . S
C2222 C2223 1.377 . S
C2222 C2224 1.384 . S
C2223 C2222 1.377 . S
C2223 C2229 1.390 . S
C2224 H2215 0.930 . S
C2224 C2222 1.384 . S
C2224 C2225 1.372 . S
C2225 C2224 1.372 . S
C2225 C2226 1.400 . S
C2225 C2230 1.490 . S
C2226 H2216 0.930 . S
C2226 C2225 1.400 . S
C2226 C2229 1.386 . S
H2227 C2243 0.930 . S
H2228 C2244 0.931 . S
C2229 H2217 0.929 . S
C2229 C2223 1.390 . S
C2229 C2226 1.386 . S
C2230 C2225 1.490 . S
C2230 C2232 1.395 1_565 S
C2230 C2233 1.403 1_565 S
H2231 C2237 0.930 . S
C2232 H2218 0.930 . S
C2232 C2230 1.395 1_545 S
C2232 C2235 1.403 . S
C2233 C2230 1.403 1_545 S
C2233 C2234 1.524 1_545 S
C2233 C2237 1.400 . S
C2234 H2219 0.960 . S
C2234 H2220 0.960 . S
C2234 H2221 0.960 . S
C2234 C2233 1.524 1_565 S
C2235 C2232 1.403 . S
C2235 C2236 1.392 . S
C2235 C2239 1.495 . S
C2236 C2235 1.392 . S
C2236 C2237 1.385 . S
C2236 C2238 1.478 . S
C2237 H2231 0.930 . S
C2237 C2233 1.400 . S
C2237 C2236 1.385 . S
C2238 C2236 1.478 . S
C2238 C2240 1.381 . S
C2238 C2244 1.383 . S
C2239 C2235 1.495 . S
C2239 H2245 0.959 . S
C2239 H2246 0.961 . S
C2239 H2247 0.960 . S
C2240 C2238 1.381 . S
C2240 C2241 1.394 . S
C2240 H2248 0.930 . S
C2241 C2240 1.394 . S
C2241 C2242 1.383 . S
C2241 H2249 0.929 . S
C2242 C2241 1.383 . S
C2242 C2243 1.377 . S
C2243 H2227 0.930 . S
C2243 C2242 1.377 . S
C2243 C2244 1.379 . S
C2244 H2228 0.931 . S
C2244 C2238 1.383 . S
C2244 C2243 1.379 . S
H2245 C2239 0.959 . S
H2246 C2239 0.961 . S
H2247 C2239 0.960 . S
H2248 C2240 0.930 . S
H2249 C2241 0.929 . S
H2250 C2258 0.929 . S
H2251 C2260 0.930 . S
H2252 C2262 0.930 . S
H2253 C2265 0.929 . S
H2254 C2268 0.930 . S
H2255 C2270 0.960 . S
H2256 C2270 0.960 . S
H2257 C2270 0.960 . S
C2258 H2250 0.929 . S
C2258 C2259 1.377 . S
C2258 C2260 1.384 . S
C2259 C2258 1.377 . S
C2259 C2265 1.390 . S
C2260 H2251 0.930 . S
C2260 C2258 1.384 . S
C2260 C2261 1.372 . S
C2261 C2260 1.372 . S
C2261 C2262 1.400 . S
C2261 C2266 1.490 . S
C2262 H2252 0.930 . S
C2262 C2261 1.400 . S
C2262 C2265 1.386 . S
H2263 C2279 0.930 . S
H2264 C2280 0.931 . S
C2265 H2253 0.929 . S
C2265 C2259 1.390 . S
C2265 C2262 1.386 . S
C2266 C2261 1.490 . S
C2266 C2268 1.395 1_565 S
C2266 C2269 1.403 1_565 S
H2267 C2273 0.930 . S
C2268 H2254 0.930 . S
C2268 C2266 1.395 1_545 S
C2268 C2271 1.403 . S
C2269 C2266 1.403 1_545 S
C2269 C2270 1.524 1_545 S
C2269 C2273 1.400 . S
C2270 H2255 0.960 . S
C2270 H2256 0.960 . S
C2270 H2257 0.960 . S
C2270 C2269 1.524 1_565 S
C2271 C2268 1.403 . S
C2271 C2272 1.392 . S
C2271 C2275 1.495 . S
C2272 C2271 1.392 . S
C2272 C2273 1.385 . S
C2272 C2274 1.478 . S
C2273 H2267 0.930 . S
C2273 C2269 1.400 . S
C2273 C2272 1.385 . S
C2274 C2272 1.478 . S
C2274 C2276 1.381 . S
C2274 C2280 1.383 . S
C2275 C2271 1.495 . S
C2275 H2281 0.959 . S
C2275 H2282 0.961 . S
C2275 H2283 0.960 . S
C2276 C2274 1.381 . S
C2276 C2277 1.394 . S
C2276 H2284 0.930 . S
C2277 C2276 1.394 . S
C2277 C2278 1.383 . S
C2277 H2285 0.929 . S
C2278 C2277 1.383 . S
C2278 C2279 1.377 . S
C2279 H2263 0.930 . S
C2279 C2278 1.377 . S
C2279 C2280 1.379 . S
C2280 H2264 0.931 . S
C2280 C2274 1.383 . S
C2280 C2279 1.379 . S
H2281 C2275 0.959 . S
H2282 C2275 0.961 . S
H2283 C2275 0.960 . S
H2284 C2276 0.930 . S
H2285 C2277 0.929 . S
H2286 C2294 0.929 . S
H2287 C2296 0.930 . S
H2288 C2298 0.930 . S
H2289 C2301 0.929 . S
H2290 C2304 0.930 . S
H2291 C2306 0.960 . S
H2292 C2306 0.960 . S
H2293 C2306 0.960 . S
C2294 H2286 0.929 . S
C2294 C2295 1.377 . S
C2294 C2296 1.384 . S
C2295 C2294 1.377 . S
C2295 C2301 1.390 . S
C2296 H2287 0.930 . S
C2296 C2294 1.384 . S
C2296 C2297 1.372 . S
C2297 C2296 1.372 . S
C2297 C2298 1.400 . S
C2297 C2302 1.490 . S
C2298 H2288 0.930 . S
C2298 C2297 1.400 . S
C2298 C2301 1.386 . S
H2299 C2315 0.930 . S
H2300 C2316 0.931 . S
C2301 H2289 0.929 . S
C2301 C2295 1.390 . S
C2301 C2298 1.386 . S
C2302 C2297 1.490 . S
C2302 C2304 1.395 . S
C2302 C2305 1.403 . S
H2303 C2309 0.930 . S
C2304 H2290 0.930 . S
C2304 C2302 1.395 . S
C2304 C2307 1.403 1_455 S
C2305 C2302 1.403 . S
C2305 C2306 1.524 . S
C2305 C2309 1.400 1_455 S
C2306 H2291 0.960 . S
C2306 H2292 0.960 . S
C2306 H2293 0.960 . S
C2306 C2305 1.524 . S
C2307 C2304 1.403 1_655 S
C2307 C2308 1.392 . S
C2307 C2311 1.495 . S
C2308 C2307 1.392 . S
C2308 C2309 1.385 . S
C2308 C2310 1.478 . S
C2309 H2303 0.930 . S
C2309 C2305 1.400 1_655 S
C2309 C2308 1.385 . S
C2310 C2308 1.478 . S
C2310 C2312 1.381 . S
C2310 C2316 1.383 . S
C2311 C2307 1.495 . S
C2311 H2317 0.959 . S
C2311 H2318 0.961 . S
C2311 H2319 0.960 . S
C2312 C2310 1.381 . S
C2312 C2313 1.394 . S
C2312 H2320 0.930 . S
C2313 C2312 1.394 . S
C2313 C2314 1.383 . S
C2313 H2321 0.929 . S
C2314 C2313 1.383 . S
C2314 C2315 1.377 . S
C2315 H2299 0.930 . S
C2315 C2314 1.377 . S
C2315 C2316 1.379 . S
C2316 H2300 0.931 . S
C2316 C2310 1.383 . S
C2316 C2315 1.379 . S
H2317 C2311 0.959 . S
H2318 C2311 0.961 . S
H2319 C2311 0.960 . S
H2320 C2312 0.930 . S
H2321 C2313 0.929 . S
H2322 C2330 0.929 . S
H2323 C2332 0.930 . S
H2324 C2334 0.930 . S
H2325 C2337 0.929 . S
H2326 C2340 0.930 . S
H2327 C2342 0.960 . S
H2328 C2342 0.960 . S
H2329 C2342 0.960 . S
C2330 H2322 0.929 . S
C2330 C2331 1.377 . S
C2330 C2332 1.384 . S
C2331 C2330 1.377 . S
C2331 C2337 1.390 . S
C2332 H2323 0.930 . S
C2332 C2330 1.384 . S
C2332 C2333 1.372 . S
C2333 C2332 1.372 . S
C2333 C2334 1.400 . S
C2333 C2338 1.490 . S
C2334 H2324 0.930 . S
C2334 C2333 1.400 . S
C2334 C2337 1.386 . S
H2335 C2351 0.930 . S
H2336 C2352 0.931 . S
C2337 H2325 0.929 . S
C2337 C2331 1.390 . S
C2337 C2334 1.386 . S
C2338 C2333 1.490 . S
C2338 C2340 1.395 . S
C2338 C2341 1.403 . S
H2339 C2345 0.930 . S
C2340 H2326 0.930 . S
C2340 C2338 1.395 . S
C2340 C2343 1.403 . S
C2341 C2338 1.403 . S
C2341 C2342 1.524 . S
C2341 C2345 1.400 . S
C2342 H2327 0.960 . S
C2342 H2328 0.960 . S
C2342 H2329 0.960 . S
C2342 C2341 1.524 . S
C2343 C2340 1.403 . S
C2343 C2344 1.392 . S
C2343 C2347 1.495 . S
C2344 C2343 1.392 . S
C2344 C2345 1.385 . S
C2344 C2346 1.478 . S
C2345 H2339 0.930 . S
C2345 C2341 1.400 . S
C2345 C2344 1.385 . S
C2346 C2344 1.478 . S
C2346 C2348 1.381 . S
C2346 C2352 1.383 . S
C2347 C2343 1.495 . S
C2347 H2353 0.959 . S
C2347 H2354 0.961 . S
C2347 H2355 0.960 . S
C2348 C2346 1.381 . S
C2348 C2349 1.394 . S
C2348 H2356 0.930 . S
C2349 C2348 1.394 . S
C2349 C2350 1.383 . S
C2349 H2357 0.929 . S
C2350 C2349 1.383 . S
C2350 C2351 1.377 . S
C2351 H2335 0.930 . S
C2351 C2350 1.377 . S
C2351 C2352 1.379 . S
C2352 H2336 0.931 . S
C2352 C2346 1.383 . S
C2352 C2351 1.379 . S
H2353 C2347 0.959 . S
H2354 C2347 0.961 . S
H2355 C2347 0.960 . S
H2356 C2348 0.930 . S
H2357 C2349 0.929 . S
C423 C18 1.270 . S
C442 C111 1.253 . S
C459 C134 1.259 . S
C478 C41 1.287 . S
C495 C64 1.271 . S
C514 C88 1.269 . S
C531 C63 1.547 . S
C550 C112 1.593 . S
C567 C135 1.604 . S
C586 C17 1.573 . S
C603 C40 1.553 . S
C622 C89 1.590 . S
C639 C42 1.630 . S
C658 C86 1.610 . S
C675 C65 1.638 . S
C694 C109 1.630 . S
C711 C132 1.632 . S
C730 C19 1.615 . S
C747 C133 1.224 . S
C766 C43 1.220 . S
C783 C66 1.226 . S
C802 C87 1.204 . S
C819 C20 1.227 . S
C838 C110 1.202 . S
C855 C249 1.264 . S
C874 C156 1.295 1_556 S
C891 C179 1.275 1_556 S
C910 C272 1.233 . S
C927 C202 1.272 1_556 S
C946 C226 1.238 . S
C963 C250 1.605 . S
C982 C201 1.564 . S
C999 C273 1.602 . S
C1018 C155 1.527 . S
C1035 C227 1.602 . S
C1054 C178 1.568 . S
C1071 C180 1.637 . S
C1090 C224 1.649 . S
C1107 C203 1.629 . S
C1126 C247 1.652 . S
C1143 C157 1.637 . S
C1162 C270 1.651 . S
C1179 C181 1.226 . S
C1198 C271 1.232 . S
C1215 C204 1.227 . S
C1234 C225 1.202 . S
C1251 C248 1.221 . S
C1270 C158 1.235 . S
C1287 C294 1.271 . S
C1306 C387 1.270 . S
C1323 C317 1.273 . S
C1342 C410 1.283 . S
C1359 C364 1.258 . S
C1378 C340 1.270 . S
C1395 C388 1.601 . S
C1414 C339 1.523 . S
C1431 C293 1.548 . S
C1450 C411 1.599 . S
C1467 C316 1.550 . S
C1486 C365 1.605 . S
C1503 C318 1.627 . S
C1522 C362 1.634 1_554 S
C1539 C341 1.628 . S
C1558 C385 1.619 1_554 S
C1575 C295 1.631 . S
C1594 C408 1.609 1_554 S
C1611 C409 1.224 . S
C1630 C319 1.222 . S
C1647 C363 1.218 . S
C1666 C342 1.218 . S
C1683 C296 1.225 . S
C1702 C386 1.224 . S
C1719 C16 1.300 . S
C1738 C320 1.264 . S
C1755 C39 1.301 . S
C1774 C343 1.281 . S
C1791 C62 1.301 . S
C1810 C297 1.286 . S
C1827 C67 1.281 . S
C1846 C177 1.298 . S
C1863 C21 1.287 . S
C1882 C200 1.308 1_556 S
C1899 C44 1.288 . S
C1918 C154 1.303 1_556 S
C1935 C246 1.386 . S
C1954 C90 1.370 . S
C1971 C113 1.369 . S
C1990 C269 1.389 . S
C2007 C136 1.374 . S
C2026 C223 1.381 . S
C2043 C389 1.376 . S
C2062 C131 1.374 . S
C2079 C85 1.388 . S
C2098 C412 1.353 . S
C2115 C108 1.388 . S
C2134 C366 1.354 . S
C2151 C205 1.288 . S
C2170 C315 1.302 . S
C2187 C159 1.280 . S
C2206 C338 1.291 . S
C2223 C292 1.300 . S
C2242 C182 1.266 . S
C2259 C384 1.388 . S
C2278 C228 1.354 . S
C2295 C407 1.386 . S
C2314 C251 1.377 . S
C2331 C274 1.375 . S
C2350 C361 1.375 . S
