# Generated by pormake.
# Topology ukd, (4)-cn, num edge types: 1
# Building blocks:
#     Node 0, Type 0, BuildingBlock: ICAMEG_clean_sbu_1, # of connection points: 4
#     Node 1, Type 0, BuildingBlock: ICAMEG_clean_sbu_1, # of connection points: 4
#     Node 2, Type 0, BuildingBlock: ICAMEG_clean_sbu_1, # of connection points: 4
#     Node 3, Type 0, BuildingBlock: ICAMEG_clean_sbu_1, # of connection points: 4
#     Node 4, Type 0, BuildingBlock: ICAMEG_clean_sbu_1, # of connection points: 4
#     Node 5, Type 0, BuildingBlock: ICAMEG_clean_sbu_1, # of connection points: 4
#     Node 6, Type 0, BuildingBlock: ICAMEG_clean_sbu_1, # of connection points: 4
#     Node 7, Type 0, BuildingBlock: ICAMEG_clean_sbu_1, # of connection points: 4
#     Node 8, Type 0, BuildingBlock: ICAMEG_clean_sbu_1, # of connection points: 4
#     Node 9, Type 0, BuildingBlock: ICAMEG_clean_sbu_1, # of connection points: 4
#     Node 10, Type 0, BuildingBlock: ICAMEG_clean_sbu_1, # of connection points: 4
#     Node 11, Type 0, BuildingBlock: ICAMEG_clean_sbu_1, # of connection points: 4
#     Node 12, Type 0, BuildingBlock: ICAMEG_clean_sbu_1, # of connection points: 4
#     Node 13, Type 0, BuildingBlock: ICAMEG_clean_sbu_1, # of connection points: 4
#     Node 14, Type 0, BuildingBlock: ICAMEG_clean_sbu_1, # of connection points: 4
#     Node 15, Type 0, BuildingBlock: ICAMEG_clean_sbu_1, # of connection points: 4
#     Node 16, Type 0, BuildingBlock: ICAMEG_clean_sbu_1, # of connection points: 4
#     Node 17, Type 0, BuildingBlock: ICAMEG_clean_sbu_1, # of connection points: 4
#     Node 18, Type 0, BuildingBlock: ICAMEG_clean_sbu_1, # of connection points: 4
#     Node 19, Type 0, BuildingBlock: ICAMEG_clean_sbu_1, # of connection points: 4
#     Node 20, Type 0, BuildingBlock: ICAMEG_clean_sbu_1, # of connection points: 4
#     Node 21, Type 0, BuildingBlock: ICAMEG_clean_sbu_1, # of connection points: 4
#     Node 22, Type 0, BuildingBlock: ICAMEG_clean_sbu_1, # of connection points: 4
#     Node 23, Type 0, BuildingBlock: ICAMEG_clean_sbu_1, # of connection points: 4
#     Node 24, Type 0, BuildingBlock: ICAMEG_clean_sbu_1, # of connection points: 4
#     Node 25, Type 0, BuildingBlock: ICAMEG_clean_sbu_1, # of connection points: 4
#     Node 26, Type 0, BuildingBlock: ICAMEG_clean_sbu_1, # of connection points: 4
#     Node 27, Type 0, BuildingBlock: ICAMEG_clean_sbu_1, # of connection points: 4
#     Node 28, Type 0, BuildingBlock: ICAMEG_clean_sbu_1, # of connection points: 4
#     Node 29, Type 0, BuildingBlock: ICAMEG_clean_sbu_1, # of connection points: 4
#     Node 30, Type 0, BuildingBlock: ICAMEG_clean_sbu_1, # of connection points: 4
#     Node 31, Type 0, BuildingBlock: ICAMEG_clean_sbu_1, # of connection points: 4
#     Edge 32, Type (0, 0), BuildingBlock: OJICUG_clean_linker_0, # of connection points: 2
#     Edge 33, Type (0, 0), BuildingBlock: OJICUG_clean_linker_0, # of connection points: 2
#     Edge 34, Type (0, 0), BuildingBlock: OJICUG_clean_linker_0, # of connection points: 2
#     Edge 35, Type (0, 0), BuildingBlock: OJICUG_clean_linker_0, # of connection points: 2
#     Edge 36, Type (0, 0), BuildingBlock: OJICUG_clean_linker_0, # of connection points: 2
#     Edge 37, Type (0, 0), BuildingBlock: OJICUG_clean_linker_0, # of connection points: 2
#     Edge 38, Type (0, 0), BuildingBlock: OJICUG_clean_linker_0, # of connection points: 2
#     Edge 39, Type (0, 0), BuildingBlock: OJICUG_clean_linker_0, # of connection points: 2
#     Edge 40, Type (0, 0), BuildingBlock: OJICUG_clean_linker_0, # of connection points: 2
#     Edge 41, Type (0, 0), BuildingBlock: OJICUG_clean_linker_0, # of connection points: 2
#     Edge 42, Type (0, 0), BuildingBlock: OJICUG_clean_linker_0, # of connection points: 2
#     Edge 43, Type (0, 0), BuildingBlock: OJICUG_clean_linker_0, # of connection points: 2
#     Edge 44, Type (0, 0), BuildingBlock: OJICUG_clean_linker_0, # of connection points: 2
#     Edge 45, Type (0, 0), BuildingBlock: OJICUG_clean_linker_0, # of connection points: 2
#     Edge 46, Type (0, 0), BuildingBlock: OJICUG_clean_linker_0, # of connection points: 2
#     Edge 47, Type (0, 0), BuildingBlock: OJICUG_clean_linker_0, # of connection points: 2
#     Edge 48, Type (0, 0), BuildingBlock: OJICUG_clean_linker_0, # of connection points: 2
#     Edge 49, Type (0, 0), BuildingBlock: OJICUG_clean_linker_0, # of connection points: 2
#     Edge 50, Type (0, 0), BuildingBlock: OJICUG_clean_linker_0, # of connection points: 2
#     Edge 51, Type (0, 0), BuildingBlock: OJICUG_clean_linker_0, # of connection points: 2
#     Edge 52, Type (0, 0), BuildingBlock: OJICUG_clean_linker_0, # of connection points: 2
#     Edge 53, Type (0, 0), BuildingBlock: OJICUG_clean_linker_0, # of connection points: 2
#     Edge 54, Type (0, 0), BuildingBlock: OJICUG_clean_linker_0, # of connection points: 2
#     Edge 55, Type (0, 0), BuildingBlock: OJICUG_clean_linker_0, # of connection points: 2
#     Edge 56, Type (0, 0), BuildingBlock: OJICUG_clean_linker_0, # of connection points: 2
#     Edge 57, Type (0, 0), BuildingBlock: OJICUG_clean_linker_0, # of connection points: 2
#     Edge 58, Type (0, 0), BuildingBlock: OJICUG_clean_linker_0, # of connection points: 2
#     Edge 59, Type (0, 0), BuildingBlock: OJICUG_clean_linker_0, # of connection points: 2
#     Edge 60, Type (0, 0), BuildingBlock: OJICUG_clean_linker_0, # of connection points: 2
#     Edge 61, Type (0, 0), BuildingBlock: OJICUG_clean_linker_0, # of connection points: 2
#     Edge 62, Type (0, 0), BuildingBlock: OJICUG_clean_linker_0, # of connection points: 2
#     Edge 63, Type (0, 0), BuildingBlock: OJICUG_clean_linker_0, # of connection points: 2
#     Edge 64, Type (0, 0), BuildingBlock: OJICUG_clean_linker_0, # of connection points: 2
#     Edge 65, Type (0, 0), BuildingBlock: OJICUG_clean_linker_0, # of connection points: 2
#     Edge 66, Type (0, 0), BuildingBlock: OJICUG_clean_linker_0, # of connection points: 2
#     Edge 67, Type (0, 0), BuildingBlock: OJICUG_clean_linker_0, # of connection points: 2
#     Edge 68, Type (0, 0), BuildingBlock: OJICUG_clean_linker_0, # of connection points: 2
#     Edge 69, Type (0, 0), BuildingBlock: OJICUG_clean_linker_0, # of connection points: 2
#     Edge 70, Type (0, 0), BuildingBlock: OJICUG_clean_linker_0, # of connection points: 2
#     Edge 71, Type (0, 0), BuildingBlock: OJICUG_clean_linker_0, # of connection points: 2
#     Edge 72, Type (0, 0), BuildingBlock: OJICUG_clean_linker_0, # of connection points: 2
#     Edge 73, Type (0, 0), BuildingBlock: OJICUG_clean_linker_0, # of connection points: 2
#     Edge 74, Type (0, 0), BuildingBlock: OJICUG_clean_linker_0, # of connection points: 2
#     Edge 75, Type (0, 0), BuildingBlock: OJICUG_clean_linker_0, # of connection points: 2
#     Edge 76, Type (0, 0), BuildingBlock: OJICUG_clean_linker_0, # of connection points: 2
#     Edge 77, Type (0, 0), BuildingBlock: OJICUG_clean_linker_0, # of connection points: 2
#     Edge 78, Type (0, 0), BuildingBlock: OJICUG_clean_linker_0, # of connection points: 2
#     Edge 79, Type (0, 0), BuildingBlock: OJICUG_clean_linker_0, # of connection points: 2
#     Edge 80, Type (0, 0), BuildingBlock: OJICUG_clean_linker_0, # of connection points: 2
#     Edge 81, Type (0, 0), BuildingBlock: OJICUG_clean_linker_0, # of connection points: 2
#     Edge 82, Type (0, 0), BuildingBlock: OJICUG_clean_linker_0, # of connection points: 2
#     Edge 83, Type (0, 0), BuildingBlock: OJICUG_clean_linker_0, # of connection points: 2
#     Edge 84, Type (0, 0), BuildingBlock: OJICUG_clean_linker_0, # of connection points: 2
#     Edge 85, Type (0, 0), BuildingBlock: OJICUG_clean_linker_0, # of connection points: 2
#     Edge 86, Type (0, 0), BuildingBlock: OJICUG_clean_linker_0, # of connection points: 2
#     Edge 87, Type (0, 0), BuildingBlock: OJICUG_clean_linker_0, # of connection points: 2
#     Edge 88, Type (0, 0), BuildingBlock: OJICUG_clean_linker_0, # of connection points: 2
#     Edge 89, Type (0, 0), BuildingBlock: OJICUG_clean_linker_0, # of connection points: 2
#     Edge 90, Type (0, 0), BuildingBlock: OJICUG_clean_linker_0, # of connection points: 2
#     Edge 91, Type (0, 0), BuildingBlock: OJICUG_clean_linker_0, # of connection points: 2
#     Edge 92, Type (0, 0), BuildingBlock: OJICUG_clean_linker_0, # of connection points: 2
#     Edge 93, Type (0, 0), BuildingBlock: OJICUG_clean_linker_0, # of connection points: 2
#     Edge 94, Type (0, 0), BuildingBlock: OJICUG_clean_linker_0, # of connection points: 2
#     Edge 95, Type (0, 0), BuildingBlock: OJICUG_clean_linker_0, # of connection points: 2
# Relax obj value: 0.006
# Max RMSD: 0.024
# Mean RMSD: 0.024
data_MOF--net-ukd--node1-ICAMEG_clean_sbu_1--edge1-OJICUG_clean_linker_0
_symmetry_space_group_name_H-M    P1
_symmetry_Int_Tables_number       1
_symmetry_cell_setting            triclinic
loop_
_symmetry_equiv_pos_as_xyz
'x, y, z'
_cell_length_a     35.890391
_cell_length_b     35.88826
_cell_length_c     59.161477
_cell_angle_alpha  89.993708
_cell_angle_beta   89.996788
_cell_angle_gamma 89.997717
loop_
_atom_site_label
_atom_site_type_symbol
_atom_site_fract_x
_atom_site_fract_y
_atom_site_fract_z
_atom_type_partial_charge
Co0 Co 0.16613 0.18498 0.32369 0.0
Co1 Co 0.21088 0.17769 0.37507 0.0
O2 O 0.2103 0.17268 0.3419 0.0
C3 C 0.22269 0.22978 0.29819 0.0
O4 O 0.23207 0.2467 0.31703 0.0
C5 C 0.2417 0.10136 0.36752 0.0
O6 O 0.21836 0.09683 0.35068 0.0
O7 O 0.16508 0.1466 0.37798 0.0
O8 O 0.13229 0.1655 0.34782 0.0
H9 H 0.15375 0.20122 0.45131 0.0
H10 H 0.22649 0.13977 0.30343 0.0
O11 O 0.1982 0.20415 0.29844 0.0
H12 H 0.11421 0.06092 0.29908 0.0
H13 H 0.09086 0.19358 0.25194 0.0
H14 H 0.09288 0.21931 0.3338 0.0
H15 H 0.11093 0.12407 0.31532 0.0
H16 H 0.14591 0.17739 0.27486 0.0
O17 O 0.24261 0.13191 0.37841 0.0
H18 H 0.15383 0.19487 0.40981 0.0
H19 H 0.26956 0.17022 0.41057 0.0
H20 H 0.03714 0.23564 0.31154 0.0
H21 H 0.23098 0.07697 0.2867 0.0
H22 H 0.03589 0.22282 0.2703 0.0
H23 H 0.17458 0.03701 0.28454 0.0
O24 O 0.16357 0.23588 0.33742 0.0
H25 H 0.33828 0.20875 0.34544 0.0
H26 H 0.23456 0.25137 0.39362 0.0
H27 H 0.29015 0.29111 0.38923 0.0
H28 H 0.34255 0.26981 0.36503 0.0
H29 H 0.28201 0.17 0.35016 0.0
H30 H 0.27068 0.17596 0.45211 0.0
H31 H 0.21251 0.19174 0.47275 0.0
O32 O 0.17944 0.22348 0.37334 0.0
C33 C 0.13475 0.14886 0.36683 0.0
C34 C 0.17932 0.19451 0.44251 0.0
C35 C 0.24493 0.18028 0.44295 0.0
N36 N 0.21173 0.18264 0.40774 0.0
C37 C 0.17956 0.19102 0.41899 0.0
C38 C 0.24411 0.17702 0.41943 0.0
C39 C 0.21228 0.18914 0.45452 0.0
C40 C 0.20176 0.12266 0.30238 0.0
N41 N 0.16849 0.13554 0.31045 0.0
C42 C 0.20451 0.08707 0.29296 0.0
C43 C 0.17287 0.06464 0.29179 0.0
C44 C 0.13901 0.07801 0.29998 0.0
C45 C 0.13734 0.11373 0.30931 0.0
C46 C 0.09106 0.19929 0.2699 0.0
C47 C 0.09251 0.21346 0.31588 0.0
C48 C 0.12221 0.19028 0.28296 0.0
N49 N 0.12259 0.19724 0.30568 0.0
C50 C 0.06088 0.22285 0.30335 0.0
C51 C 0.06021 0.21567 0.28021 0.0
C52 C 0.16581 0.24488 0.35825 0.0
C53 C 0.31569 0.21828 0.35608 0.0
C54 C 0.25721 0.24194 0.38301 0.0
C55 C 0.28864 0.26454 0.38063 0.0
C56 C 0.31804 0.25256 0.36706 0.0
N57 N 0.25518 0.20829 0.37225 0.0
C58 C 0.28383 0.1964 0.35888 0.0
Co59 Co 0.07051 0.91505 0.57345 0.0
Co60 Co 0.07896 0.9603 0.62459 0.0
O61 O 0.08378 0.95926 0.59139 0.0
C62 C 0.0269 0.97239 0.54793 0.0
O63 O 0.01085 0.98266 0.56689 0.0
C64 C 0.15514 0.99157 0.61637 0.0
O65 O 0.15907 0.96944 0.5989 0.0
O66 O 0.10951 0.91414 0.62758 0.0
O67 O 0.08946 0.88121 0.59776 0.0
H68 H 0.05523 0.90414 0.70108 0.0
H69 H 0.11664 0.97401 0.55243 0.0
O70 O 0.05173 0.94709 0.54808 0.0
H71 H 0.19332 0.86014 0.54894 0.0
H72 H 0.05992 0.83879 0.50218 0.0
H73 H 0.03477 0.84268 0.58408 0.0
H74 H 0.13034 0.85853 0.5655 0.0
H75 H 0.07738 0.89389 0.52472 0.0
O76 O 0.12511 0.99153 0.62779 0.0
H77 H 0.06128 0.90378 0.65957 0.0
H78 H 0.08729 0.01923 0.65988 0.0
H79 H 0.01715 0.78694 0.56221 0.0
H80 H 0.17927 0.97681 0.53533 0.0
H81 H 0.02969 0.78473 0.52095 0.0
H82 H 0.21814 0.91961 0.5336 0.0
O83 O 0.01968 0.91374 0.58727 0.0
H84 H 0.0493 0.08774 0.59448 0.0
H85 H 0.00574 0.98518 0.64327 0.0
H86 H 0.96671 0.04124 0.63877 0.0
H87 H 0.98849 0.09307 0.61427 0.0
H88 H 0.08732 0.03101 0.59932 0.0
H89 H 0.08186 0.02077 0.70143 0.0
H90 H 0.06556 0.96297 0.7223 0.0
O91 O 0.03273 0.92945 0.6231 0.0
C92 C 0.10647 0.88365 0.61665 0.0
C93 C 0.06219 0.92955 0.69217 0.0
C94 C 0.07718 0.995 0.69237 0.0
N95 N 0.0742 0.96152 0.65727 0.0
C96 C 0.06552 0.92955 0.66865 0.0
C97 C 0.08027 0.99393 0.66884 0.0
C98 C 0.06803 0.96256 0.70407 0.0
C99 C 0.13327 0.94894 0.55157 0.0
N100 N 0.11989 0.91617 0.56007 0.0
C101 C 0.16877 0.95073 0.54194 0.0
C102 C 0.19058 0.91864 0.54102 0.0
C103 C 0.1767 0.88529 0.54965 0.0
C104 C 0.14109 0.88457 0.55916 0.0
C105 C 0.05433 0.8394 0.52015 0.0
C106 C 0.0405 0.8419 0.56615 0.0
C107 C 0.06407 0.87058 0.533 0.0
N108 N 0.05727 0.87147 0.55573 0.0
C109 C 0.03038 0.81027 0.55384 0.0
C110 C 0.03739 0.80907 0.53069 0.0
C111 C 0.0109 0.91623 0.60811 0.0
C112 C 0.03957 0.0654 0.60526 0.0
C113 C 0.01538 0.00757 0.63253 0.0
C114 C 0.99318 0.03928 0.63009 0.0
C115 C 0.00543 0.06835 0.61635 0.0
N116 N 0.0489 0.00496 0.62167 0.0
C117 C 0.06104 0.03329 0.60813 0.0
Co118 Co 0.33966 0.82087 0.82335 0.0
Co119 Co 0.29471 0.82769 0.87471 0.0
O120 O 0.29541 0.83287 0.84156 0.0
C121 C 0.28335 0.77585 0.79783 0.0
O122 O 0.27397 0.75891 0.81667 0.0
C123 C 0.2641 0.90409 0.86733 0.0
O124 O 0.2877 0.90875 0.85064 0.0
O125 O 0.34045 0.85885 0.87775 0.0
O126 O 0.37334 0.84052 0.8475 0.0
H127 H 0.35155 0.80383 0.95099 0.0
H128 H 0.279 0.86576 0.80317 0.0
O129 O 0.30775 0.80155 0.79808 0.0
H130 H 0.39078 0.94532 0.79882 0.0
H131 H 0.41504 0.8129 0.75161 0.0
H132 H 0.41312 0.78698 0.83346 0.0
H133 H 0.39449 0.88213 0.81498 0.0
H134 H 0.35987 0.82871 0.77453 0.0
O135 O 0.26292 0.8734 0.87808 0.0
H136 H 0.35165 0.81044 0.90951 0.0
H137 H 0.23587 0.83485 0.91013 0.0
H138 H 0.46898 0.77104 0.8112 0.0
H139 H 0.27408 0.92859 0.78652 0.0
H140 H 0.47018 0.78397 0.76997 0.0
H141 H 0.33022 0.96891 0.78437 0.0
O142 O 0.34254 0.76994 0.83704 0.0
H143 H 0.16748 0.79659 0.84484 0.0
H144 H 0.27109 0.75384 0.89306 0.0
H145 H 0.2156 0.71402 0.8885 0.0
H146 H 0.16326 0.73538 0.86428 0.0
H147 H 0.22366 0.83542 0.84974 0.0
H148 H 0.23457 0.82884 0.95166 0.0
H149 H 0.29267 0.81304 0.97236 0.0
O150 O 0.32624 0.78197 0.87293 0.0
C151 C 0.37077 0.85694 0.86657 0.0
C152 C 0.32601 0.81054 0.94216 0.0
C153 C 0.26037 0.82463 0.94253 0.0
N154 N 0.29373 0.82256 0.90737 0.0
C155 C 0.32587 0.81418 0.91866 0.0
C156 C 0.26129 0.82805 0.91902 0.0
C157 C 0.29298 0.81576 0.95414 0.0
C158 C 0.30362 0.88303 0.80213 0.0
N159 N 0.33698 0.87033 0.81015 0.0
C160 C 0.30063 0.91863 0.79276 0.0
C161 C 0.33212 0.94126 0.79158 0.0
C162 C 0.36609 0.92807 0.79973 0.0
C163 C 0.368 0.89233 0.809 0.0
C164 C 0.41487 0.80715 0.76957 0.0
C165 C 0.41347 0.79287 0.81554 0.0
C166 C 0.38365 0.81594 0.78263 0.0
N167 N 0.3833 0.80893 0.80534 0.0
C168 C 0.44516 0.78371 0.80302 0.0
C169 C 0.44581 0.79094 0.77988 0.0
C170 C 0.34014 0.76076 0.85783 0.0
C171 C 0.19005 0.78703 0.8555 0.0
C172 C 0.24847 0.7633 0.88245 0.0
C173 C 0.21709 0.74066 0.87997 0.0
C174 C 0.18772 0.75267 0.86638 0.0
N175 N 0.25048 0.79703 0.87177 0.0
C176 C 0.22185 0.80895 0.85839 0.0
Co177 Co 0.43602 0.0911 0.07374 0.0
Co178 Co 0.42776 0.04559 0.1248 0.0
O179 O 0.42277 0.04682 0.09162 0.0
C180 C 0.47928 0.03372 0.04805 0.0
O181 O 0.49532 0.02327 0.06697 0.0
C182 C 0.35132 0.01501 0.11676 0.0
O183 O 0.3473 0.03771 0.09956 0.0
O184 O 0.39733 0.0918 0.12794 0.0
O185 O 0.41727 0.12484 0.09814 0.0
H186 H 0.45202 0.1012 0.20136 0.0
H187 H 0.38963 0.03231 0.05276 0.0
O188 O 0.45459 0.05915 0.04827 0.0
H189 H 0.31314 0.14634 0.04964 0.0
H190 H 0.44632 0.16771 1.00258 0.0
H191 H 0.47197 0.16333 0.08442 0.0
H192 H 0.37626 0.14777 0.06602 0.0
H193 H 0.42888 0.11253 0.02507 0.0
O194 O 0.38154 0.01446 0.128 0.0
H195 H 0.44573 0.10185 0.15987 0.0
H196 H 0.41945 0.98646 0.15998 0.0
H197 H 0.48958 0.21914 0.06261 0.0
H198 H 0.32685 0.02969 0.03585 0.0
H199 H 0.47678 0.22161 0.02138 0.0
H200 H 0.28807 0.08697 0.03432 0.0
O201 O 0.48692 0.09225 0.08745 0.0
H202 H 0.45693 0.91823 0.09439 0.0
H203 H 0.50102 0.02044 0.14327 0.0
H204 H 0.5399 0.9643 0.13857 0.0
H205 H 0.51785 0.91266 0.11402 0.0
H206 H 0.41906 0.97502 0.09943 0.0
H207 H 0.42512 0.98463 0.20151 0.0
H208 H 0.44168 0.04225 0.22247 0.0
O209 O 0.47405 0.07633 0.12328 0.0
C210 C 0.40035 0.12233 0.11706 0.0
C211 C 0.44495 0.07586 0.19241 0.0
C212 C 0.4298 0.01045 0.19249 0.0
N213 N 0.43267 0.04415 0.15747 0.0
C214 C 0.44149 0.07603 0.1689 0.0
C215 C 0.42659 0.01168 0.16898 0.0
C216 C 0.43911 0.04279 0.20425 0.0
C217 C 0.37304 0.05742 0.05197 0.0
N218 N 0.38656 0.09014 0.06047 0.0
C219 C 0.33746 0.05573 0.04246 0.0
C220 C 0.31569 0.08786 0.04164 0.0
C221 C 0.32971 0.12116 0.05027 0.0
C222 C 0.3654 0.12177 0.05967 0.0
C223 C 0.45201 0.167 0.02054 0.0
C224 C 0.46613 0.16422 0.0665 0.0
C225 C 0.4423 0.13577 0.03335 0.0
N226 N 0.44924 0.13474 0.05607 0.0
C227 C 0.47624 0.19589 0.05423 0.0
C228 C 0.46908 0.19723 0.0311 0.0
C229 C 0.49581 0.08963 0.10827 0.0
C230 C 0.46678 0.94049 0.10519 0.0
C231 C 0.49127 0.99812 0.13251 0.0
C232 C 0.51338 0.96638 0.12996 0.0
C233 C 0.50098 0.93741 0.11619 0.0
N234 N 0.45769 1.00087 0.12173 0.0
C235 C 0.4454 0.97264 0.10817 0.0
Co236 Co 0.16627 0.82109 0.18564 0.0
Co237 Co 0.21121 0.82837 0.13432 0.0
O238 O 0.21048 0.83343 0.16748 0.0
C239 C 0.22264 0.77628 0.21128 0.0
O240 O 0.23196 0.75914 0.1925 0.0
C241 C 0.24174 0.90479 0.14188 0.0
O242 O 0.21829 0.90926 0.15867 0.0
O243 O 0.16534 0.85934 0.13132 0.0
O244 O 0.13249 0.84048 0.16146 0.0
H245 H 0.15447 0.80457 0.058 0.0
H246 H 0.22648 0.86642 0.20595 0.0
O247 O 0.19828 0.80202 0.21094 0.0
H248 H 0.11407 0.94512 0.21011 0.0
H249 H 0.09077 0.81246 0.2573 0.0
H250 H 0.09311 0.78663 0.17546 0.0
H251 H 0.11094 0.88193 0.19391 0.0
H252 H 0.14587 0.82872 0.23444 0.0
O253 O 0.24282 0.87423 0.131 0.0
H254 H 0.15435 0.81098 0.0995 0.0
H255 H 0.27002 0.83597 0.09889 0.0
H256 H 0.03732 0.77023 0.19766 0.0
H257 H 0.23082 0.92925 0.22265 0.0
H258 H 0.03591 0.78311 0.23889 0.0
H259 H 0.17435 0.96914 0.22471 0.0
O260 O 0.16383 0.77017 0.17193 0.0
H261 H 0.3386 0.79774 0.16413 0.0
H262 H 0.23519 0.75474 0.11584 0.0
H263 H 0.29089 0.71517 0.12031 0.0
H264 H 0.34314 0.73667 0.14456 0.0
H265 H 0.28222 0.8363 0.15932 0.0
H266 H 0.27132 0.83018 0.05736 0.0
H267 H 0.21328 0.8142 0.03664 0.0
O268 O 0.1799 0.78249 0.13603 0.0
C269 C 0.13498 0.85707 0.14244 0.0
C270 C 0.17998 0.81138 0.06684 0.0
C271 C 0.24554 0.82579 0.06648 0.0
N272 N 0.21221 0.82338 0.10165 0.0
C273 C 0.18011 0.81489 0.09035 0.0
C274 C 0.24462 0.82908 0.09 0.0
C275 C 0.21297 0.81682 0.05487 0.0
C276 C 0.20173 0.8835 0.20696 0.0
N277 N 0.16851 0.87056 0.19886 0.0
C278 C 0.20438 0.9191 0.21635 0.0
C279 C 0.17271 0.94149 0.21747 0.0
C280 C 0.1389 0.92805 0.20925 0.0
C281 C 0.13732 0.89232 0.19995 0.0
C282 C 0.09103 0.80673 0.23934 0.0
C283 C 0.09267 0.7925 0.19338 0.0
C284 C 0.12221 0.81577 0.22632 0.0
N285 N 0.12268 0.80879 0.2036 0.0
C286 C 0.06101 0.78308 0.20587 0.0
C287 C 0.06025 0.79029 0.229 0.0
C288 C 0.16622 0.7611 0.15111 0.0
C289 C 0.31607 0.78812 0.15346 0.0
C290 C 0.25777 0.76425 0.12647 0.0
C291 C 0.28927 0.74175 0.1289 0.0
C292 C 0.31858 0.75384 0.1425 0.0
N293 N 0.25559 0.7979 0.13721 0.0
C294 C 0.28415 0.80989 0.15061 0.0
Co295 Co 0.4364 0.91495 0.43561 0.0
Co296 Co 0.42777 0.96055 0.38461 0.0
O297 O 0.42291 0.95925 0.4178 0.0
C298 C 0.47959 0.9723 0.4614 0.0
O299 O 0.49573 0.98277 0.44251 0.0
C300 C 0.35138 0.99129 0.39281 0.0
O301 O 0.34747 0.96883 0.41014 0.0
O302 O 0.39738 0.9143 0.3815 0.0
O303 O 0.41774 0.88122 0.41118 0.0
H304 H 0.45178 0.90507 0.30798 0.0
H305 H 0.38981 0.97342 0.45677 0.0
O306 O 0.45488 0.94688 0.46112 0.0
H307 H 0.31384 0.85904 0.45973 0.0
H308 H 0.44723 0.83809 0.50665 0.0
H309 H 0.47265 0.84292 0.42479 0.0
H310 H 0.37691 0.85798 0.44327 0.0
H311 H 0.42949 0.89329 0.48426 0.0
O312 O 0.38151 0.99164 0.38148 0.0
H313 H 0.44565 0.90435 0.34949 0.0
H314 H 0.41929 0.01973 0.34948 0.0
H315 H 0.49057 0.7871 0.4465 0.0
H316 H 0.32708 0.97566 0.47376 0.0
H317 H 0.47789 0.78441 0.48774 0.0
H318 H 0.28857 0.9182 0.47522 0.0
O319 O 0.48727 0.91406 0.42184 0.0
H320 H 0.45692 0.08787 0.41507 0.0
H321 H 0.50093 0.98583 0.36604 0.0
H322 H 0.53975 0.042 0.37071 0.0
H323 H 0.51775 0.09356 0.39533 0.0
H324 H 0.41911 0.03105 0.41005 0.0
H325 H 0.42479 0.02162 0.30794 0.0
H326 H 0.44132 0.96403 0.28692 0.0
O327 O 0.47412 0.92986 0.38604 0.0
C328 C 0.40063 0.88374 0.39233 0.0
C329 C 0.44473 0.93039 0.31696 0.0
C330 C 0.42953 0.99578 0.31693 0.0
N331 N 0.43256 0.96204 0.35194 0.0
C332 C 0.44135 0.93018 0.34047 0.0
C333 C 0.42641 0.99452 0.34046 0.0
C334 C 0.43881 0.96347 0.30515 0.0
C335 C 0.37333 0.94824 0.45752 0.0
N336 N 0.38697 0.91563 0.44893 0.0
C337 C 0.33778 0.94971 0.46708 0.0
C338 C 0.31616 0.91747 0.46786 0.0
C339 C 0.3303 0.88429 0.45913 0.0
C340 C 0.36596 0.88389 0.44969 0.0
C341 C 0.45288 0.83891 0.48868 0.0
C342 C 0.46686 0.84193 0.44271 0.0
C343 C 0.44299 0.87014 0.47592 0.0
N344 N 0.44986 0.87129 0.4532 0.0
C345 C 0.47715 0.81025 0.45493 0.0
C346 C 0.47006 0.80879 0.47806 0.0
C347 C 0.49603 0.91665 0.401 0.0
C348 C 0.46675 0.06565 0.40423 0.0
C349 C 0.49119 0.00811 0.37682 0.0
C350 C 0.51327 0.03988 0.37937 0.0
C351 C 0.5009 0.0688 0.39318 0.0
N352 N 0.45766 0.00529 0.38766 0.0
C353 C 0.4454 0.03348 0.40127 0.0
Co354 Co 0.33951 0.18559 0.68582 0.0
Co355 Co 0.29467 0.17866 0.63445 0.0
O356 O 0.2953 0.17352 0.66761 0.0
C357 C 0.2831 0.2305 0.71134 0.0
O358 O 0.27371 0.24743 0.6925 0.0
C359 C 0.26406 0.10227 0.64184 0.0
O360 O 0.28765 0.09763 0.65854 0.0
O361 O 0.34042 0.1475 0.63146 0.0
O362 O 0.37325 0.16603 0.66168 0.0
H363 H 0.35167 0.20242 0.5582 0.0
H364 H 0.27895 0.14057 0.706 0.0
O365 O 0.30754 0.20483 0.71109 0.0
H366 H 0.3909 0.06123 0.71032 0.0
H367 H 0.41483 0.19369 0.75758 0.0
H368 H 0.41289 0.21966 0.67574 0.0
H369 H 0.39447 0.12444 0.69417 0.0
H370 H 0.35971 0.17776 0.73464 0.0
O371 O 0.26289 0.13294 0.63108 0.0
H372 H 0.35169 0.19586 0.59968 0.0
H373 H 0.2359 0.17145 0.59899 0.0
H374 H 0.4687 0.23572 0.69801 0.0
H375 H 0.27417 0.07771 0.72264 0.0
H376 H 0.4699 0.22278 0.73924 0.0
H377 H 0.3304 0.03751 0.72478 0.0
O378 O 0.34228 0.23652 0.67214 0.0
H379 H 0.16737 0.20978 0.6642 0.0
H380 H 0.27108 0.25248 0.61604 0.0
H381 H 0.21557 0.2923 0.62054 0.0
H382 H 0.16318 0.27097 0.64473 0.0
H383 H 0.22356 0.17096 0.65937 0.0
H384 H 0.2347 0.17741 0.55746 0.0
H385 H 0.29284 0.19318 0.53679 0.0
O386 O 0.32619 0.22439 0.63623 0.0
C387 C 0.37074 0.14952 0.64263 0.0
C388 C 0.32611 0.19572 0.56701 0.0
C389 C 0.26048 0.18163 0.5666 0.0
N390 N 0.29376 0.18374 0.60179 0.0
C391 C 0.32592 0.19211 0.59052 0.0
C392 C 0.26135 0.17824 0.59012 0.0
C393 C 0.29311 0.19048 0.55501 0.0
C394 C 0.3036 0.12334 0.70704 0.0
N395 N 0.33694 0.13612 0.69902 0.0
C396 C 0.30069 0.08773 0.7164 0.0
C397 C 0.33224 0.06517 0.71757 0.0
C398 C 0.36617 0.07843 0.70942 0.0
C399 C 0.368 0.11418 0.70015 0.0
C400 C 0.41465 0.19945 0.73962 0.0
C401 C 0.41324 0.21376 0.69365 0.0
C402 C 0.38347 0.19059 0.72655 0.0
N403 N 0.38311 0.19762 0.70384 0.0
C404 C 0.44491 0.22299 0.70618 0.0
C405 C 0.44555 0.21575 0.72932 0.0
C406 C 0.33998 0.24565 0.65133 0.0
C407 C 0.18996 0.21933 0.65356 0.0
C408 C 0.24844 0.24303 0.62664 0.0
C409 C 0.21705 0.26567 0.62909 0.0
C410 C 0.18765 0.25368 0.64266 0.0
N411 N 0.25043 0.20932 0.63734 0.0
C412 C 0.22178 0.19741 0.6507 0.0
Co413 Co 0.07061 0.09123 0.93586 0.0
Co414 Co 0.07892 0.04594 0.88472 0.0
O415 O 0.08384 0.04701 0.91791 0.0
C416 C 0.02707 0.03384 0.96138 0.0
O417 O 0.01109 0.02353 0.94241 0.0
C418 C 0.15516 0.01474 0.89286 0.0
O419 O 0.1591 0.03687 0.91034 0.0
O420 O 0.10942 0.09213 0.88168 0.0
O421 O 0.08953 0.12506 0.91154 0.0
H422 H 0.0549 0.102 0.80824 0.0
H423 H 0.11675 0.03224 0.95685 0.0
O424 O 0.05185 0.05919 0.96124 0.0
H425 H 0.19346 0.14608 0.9603 0.0
H426 H 0.06015 0.16748 0.00714 0.0
H427 H 0.03488 0.1636 0.92525 0.0
H428 H 0.13046 0.14772 0.94377 0.0
H429 H 0.07756 0.11238 0.98458 0.0
O430 O 0.1251 0.01475 0.88147 0.0
H431 H 0.06107 0.10241 0.84974 0.0
H432 H 0.08722 0.98698 0.84943 0.0
H433 H 0.0173 0.21934 0.94714 0.0
H434 H 0.17941 0.02942 0.97391 0.0
H435 H 0.0299 0.22155 0.98839 0.0
H436 H 0.21829 0.08661 0.97562 0.0
O437 O 0.01975 0.09255 0.92208 0.0
H438 H 0.04951 0.91849 0.9149 0.0
H439 H 0.00568 0.02096 0.86613 0.0
H440 H 0.96673 0.96486 0.8707 0.0
H441 H 0.98864 0.91308 0.89519 0.0
H442 H 0.08745 0.97526 0.91 0.0
H443 H 0.08167 0.9854 0.80789 0.0
H444 H 0.06523 0.04317 0.78702 0.0
O445 O 0.03266 0.07673 0.88625 0.0
C446 C 0.10644 0.12261 0.89262 0.0
C447 C 0.06191 0.0766 0.81715 0.0
C448 C 0.07698 0.01118 0.81695 0.0
N449 N 0.07406 0.04468 0.85204 0.0
C450 C 0.06531 0.07663 0.84066 0.0
C451 C 0.08014 0.01227 0.84048 0.0
C452 C 0.06775 0.0436 0.80525 0.0
C453 C 0.13339 0.05731 0.9577 0.0
N454 N 0.12001 0.09009 0.94921 0.0
C455 C 0.1689 0.05551 0.9673 0.0
C456 C 0.19073 0.08759 0.96822 0.0
C457 C 0.17684 0.12095 0.95959 0.0
C458 C 0.14122 0.12167 0.9501 0.0
C459 C 0.05454 0.16687 0.98917 0.0
C460 C 0.04063 0.16438 0.94318 0.0
C461 C 0.06424 0.13569 0.97631 0.0
N462 N 0.05741 0.13481 0.95359 0.0
C463 C 0.03054 0.19601 0.95549 0.0
C464 C 0.03759 0.19721 0.97864 0.0
C465 C 0.01088 0.08999 0.90126 0.0
C466 C 0.03972 0.94081 0.90413 0.0
C467 C 0.01537 0.99859 0.87686 0.0
C468 C 0.99322 0.96686 0.87935 0.0
C469 C 0.00554 0.93781 0.89309 0.0
N470 N 0.04893 1.00125 0.88768 0.0
C471 C 0.06114 0.97294 0.90122 0.0
Co472 Co 0.84021 0.8212 0.6857 0.0
Co473 Co 0.79536 0.82882 0.63439 0.0
O474 O 0.79603 0.83378 0.66756 0.0
C475 C 0.78357 0.77673 0.71134 0.0
O476 O 0.77408 0.75972 0.69254 0.0
C477 C 0.76438 0.90507 0.64213 0.0
O478 O 0.78745 0.90947 0.65911 0.0
O479 O 0.84123 0.85981 0.63148 0.0
O480 O 0.87406 0.84041 0.6615 0.0
H481 H 0.85231 0.80533 0.55809 0.0
H482 H 0.78031 0.86681 0.70614 0.0
O483 O 0.80813 0.80228 0.71101 0.0
H484 H 0.89316 0.9449 0.71016 0.0
H485 H 0.91578 0.8121 0.75731 0.0
H486 H 0.91316 0.78635 0.67546 0.0
H487 H 0.89587 0.88175 0.69389 0.0
H488 H 0.86072 0.82867 0.73449 0.0
O489 O 0.76371 0.87466 0.63109 0.0
H490 H 0.85231 0.81155 0.59959 0.0
H491 H 0.73664 0.83652 0.59892 0.0
H492 H 0.9689 0.76964 0.69762 0.0
H493 H 0.77639 0.92961 0.72292 0.0
H494 H 0.97045 0.78248 0.73885 0.0
H495 H 0.83308 0.96919 0.72492 0.0
O496 O 0.84234 0.77028 0.67197 0.0
H497 H 0.66793 0.79802 0.66408 0.0
H498 H 0.77143 0.75526 0.61577 0.0
H499 H 0.71574 0.71567 0.62015 0.0
H500 H 0.66345 0.73704 0.64441 0.0
H501 H 0.72431 0.83661 0.65937 0.0
H502 H 0.73546 0.83091 0.55738 0.0
H503 H 0.79356 0.81504 0.53669 0.0
O504 O 0.82669 0.78293 0.63606 0.0
C505 C 0.87161 0.85722 0.64255 0.0
C506 C 0.82677 0.81209 0.56692 0.0
C507 C 0.7612 0.8265 0.56652 0.0
N508 N 0.79444 0.82394 0.60171 0.0
C509 C 0.82657 0.8155 0.59043 0.0
C510 C 0.76206 0.82968 0.59004 0.0
C511 C 0.79381 0.81759 0.55492 0.0
C512 C 0.80516 0.88376 0.70712 0.0
N513 N 0.83827 0.87066 0.69893 0.0
C514 C 0.80274 0.91935 0.71656 0.0
C515 C 0.83454 0.94156 0.71764 0.0
C516 C 0.86823 0.92797 0.70933 0.0
C517 C 0.86958 0.89226 0.69999 0.0
C518 C 0.91545 0.80639 0.73935 0.0
C519 C 0.91366 0.7922 0.69338 0.0
C520 C 0.8843 0.81561 0.72635 0.0
N521 N 0.88375 0.80864 0.70363 0.0
C522 C 0.94529 0.7826 0.70585 0.0
C523 C 0.94612 0.78979 0.72899 0.0
C524 C 0.84012 0.76138 0.65113 0.0
C525 C 0.69048 0.78846 0.65341 0.0
C526 C 0.74884 0.76472 0.62641 0.0
C527 C 0.71734 0.74221 0.62878 0.0
C528 C 0.688 0.75422 0.64239 0.0
N529 N 0.75099 0.79832 0.63721 0.0
C530 C 0.7224 0.81024 0.65062 0.0
Co531 Co 0.93604 0.09072 0.43593 0.0
Co532 Co 0.92755 0.04525 0.38486 0.0
O533 O 0.92276 0.04644 0.41806 0.0
C534 C 0.97973 0.03347 0.46149 0.0
O535 O 0.99573 0.02315 0.44253 0.0
C536 C 0.85136 0.01399 0.39316 0.0
O537 O 0.84749 0.03609 0.41066 0.0
O538 O 0.897 0.09141 0.38182 0.0
O539 O 0.91701 0.12446 0.4116 0.0
H540 H 0.95122 0.10107 0.30828 0.0
H541 H 0.89 0.03181 0.45708 0.0
O542 O 0.9549 0.05877 0.46133 0.0
H543 H 0.81328 0.14565 0.46049 0.0
H544 H 0.9468 0.16722 0.5071 0.0
H545 H 0.97171 0.16307 0.42518 0.0
H546 H 0.87621 0.14723 0.44386 0.0
H547 H 0.92929 0.11205 0.48464 0.0
O548 O 0.88137 0.01403 0.38171 0.0
H549 H 0.9452 0.10162 0.34979 0.0
H550 H 0.91917 0.98617 0.34967 0.0
H551 H 0.98938 0.21888 0.44696 0.0
H552 H 0.82742 0.02905 0.47426 0.0
H553 H 0.97696 0.22123 0.48823 0.0
H554 H 0.78853 0.08623 0.47594 0.0
O555 O 0.98684 0.09202 0.42208 0.0
H556 H 0.95718 0.91793 0.41517 0.0
H557 H 1.00074 0.02026 0.3662 0.0
H558 H 0.03975 0.9642 0.37079 0.0
H559 H 0.01798 0.9125 0.39538 0.0
H560 H 0.91917 0.97465 0.41024 0.0
H561 H 0.92457 0.98445 0.30812 0.0
H562 H 0.94087 0.04216 0.28716 0.0
O563 O 0.97379 0.07608 0.38629 0.0
C564 C 0.9 0.12193 0.39271 0.0
C565 C 0.94426 0.0757 0.31723 0.0
C566 C 0.92926 0.01026 0.31714 0.0
N567 N 0.93228 0.04389 0.35219 0.0
C568 C 0.94095 0.07581 0.34075 0.0
C569 C 0.92619 0.01143 0.34067 0.0
C570 C 0.93841 0.04265 0.30539 0.0
C571 C 0.87336 0.05687 0.45792 0.0
N572 N 0.8867 0.08962 0.44936 0.0
C573 C 0.83789 0.05511 0.46759 0.0
C574 C 0.81606 0.08719 0.4685 0.0
C575 C 0.8299 0.12051 0.4598 0.0
C576 C 0.86548 0.12121 0.45025 0.0
C577 C 0.95233 0.16656 0.48912 0.0
C578 C 0.96603 0.16391 0.44311 0.0
C579 C 0.94257 0.13534 0.47632 0.0
N580 N 0.9493 0.13437 0.45358 0.0
C581 C 0.97618 0.19558 0.45537 0.0
C582 C 0.96923 0.19686 0.47853 0.0
C583 C 0.99562 0.08942 0.40124 0.0
C584 C 0.96691 0.94022 0.40435 0.0
C585 C 0.9911 0.99792 0.37698 0.0
C586 C 0.01329 0.96621 0.37947 0.0
C587 C 1.00104 0.93721 0.39327 0.0
N588 N 0.95759 1.00059 0.38784 0.0
C589 C 0.94545 0.97233 0.40144 0.0
Co590 Co 0.6665 0.18517 0.18557 0.0
Co591 Co 0.71109 0.1781 0.13415 0.0
O592 O 0.71063 0.17299 0.16731 0.0
C593 C 0.72291 0.22999 0.21119 0.0
O594 O 0.73213 0.24725 0.19242 0.0
C595 C 0.74195 0.10178 0.14156 0.0
O596 O 0.71855 0.09715 0.15836 0.0
O597 O 0.66534 0.14693 0.13126 0.0
O598 O 0.63262 0.1658 0.16145 0.0
H599 H 0.65369 0.20178 0.058 0.0
H600 H 0.72693 0.13988 0.20569 0.0
O601 O 0.6986 0.20421 0.21084 0.0
H602 H 0.61471 0.06095 0.21002 0.0
H603 H 0.59137 0.19336 0.25741 0.0
H604 H 0.59322 0.21954 0.17559 0.0
H605 H 0.61134 0.12419 0.19391 0.0
H606 H 0.64638 0.1773 0.23441 0.0
O607 O 0.7429 0.1324 0.13073 0.0
H608 H 0.65391 0.19529 0.09948 0.0
H609 H 0.76968 0.17085 0.09856 0.0
H610 H 0.53752 0.23574 0.19793 0.0
H611 H 0.73151 0.07699 0.22229 0.0
H612 H 0.53636 0.22269 0.23915 0.0
H613 H 0.67514 0.03699 0.22444 0.0
O614 O 0.66388 0.23613 0.17192 0.0
H615 H 0.83854 0.20931 0.16364 0.0
H616 H 0.73458 0.25189 0.11564 0.0
H617 H 0.79011 0.29172 0.11999 0.0
H618 H 0.84263 0.27044 0.1441 0.0
H619 H 0.78232 0.17047 0.15895 0.0
H620 H 0.77066 0.17673 0.05703 0.0
H621 H 0.7124 0.19248 0.03648 0.0
O622 O 0.67957 0.22383 0.13596 0.0
C623 C 0.63504 0.14918 0.14244 0.0
C624 C 0.6793 0.19508 0.06676 0.0
C625 C 0.74493 0.18097 0.06622 0.0
N626 N 0.71184 0.18315 0.10148 0.0
C627 C 0.67962 0.19152 0.09027 0.0
C628 C 0.74419 0.17763 0.08974 0.0
C629 C 0.71224 0.18981 0.0547 0.0
C630 C 0.70222 0.12275 0.20673 0.0
N631 N 0.66892 0.13566 0.19873 0.0
C632 C 0.70501 0.08711 0.21608 0.0
C633 C 0.67339 0.06466 0.21724 0.0
C634 C 0.6395 0.07806 0.20912 0.0
C635 C 0.63778 0.11383 0.19987 0.0
C636 C 0.59153 0.19917 0.23946 0.0
C637 C 0.59289 0.21359 0.1935 0.0
C638 C 0.62266 0.19024 0.22635 0.0
N639 N 0.62299 0.19732 0.20365 0.0
C640 C 0.56128 0.22291 0.20607 0.0
C641 C 0.56067 0.2156 0.2292 0.0
C642 C 0.66599 0.24518 0.1511 0.0
C643 C 0.81589 0.21883 0.15303 0.0
C644 C 0.75728 0.24247 0.12621 0.0
C645 C 0.78868 0.26511 0.12857 0.0
C646 C 0.81815 0.25315 0.14209 0.0
N647 N 0.75534 0.20878 0.13693 0.0
C648 C 0.78406 0.19691 0.15026 0.0
Co649 Co 0.56909 0.91541 0.93574 0.0
Co650 Co 0.57771 0.96119 0.8848 0.0
O651 O 0.58252 0.95977 0.91798 0.0
C652 C 0.52578 0.97272 0.96147 0.0
O653 O 0.50984 0.98328 0.94253 0.0
C654 C 0.65415 0.99167 0.89302 0.0
O655 O 0.65807 0.96894 0.91022 0.0
O656 O 0.60812 0.91497 0.88163 0.0
O657 O 0.58792 0.88179 0.91131 0.0
H658 H 0.55384 0.90604 0.80807 0.0
H659 H 0.61546 0.97399 0.95696 0.0
O660 O 0.55043 0.94725 0.96124 0.0
H661 H 0.69172 0.8598 0.95997 0.0
H662 H 0.55821 0.8384 0.00671 0.0
H663 H 0.53309 0.8433 0.92483 0.0
H664 H 0.6287 0.85858 0.94345 0.0
H665 H 0.57588 0.89368 0.98439 0.0
O666 O 0.62397 0.99229 0.88174 0.0
H667 H 0.55992 0.90514 0.84958 0.0
H668 H 0.58621 0.02053 0.84977 0.0
H669 H 0.51525 0.78739 0.94648 0.0
H670 H 0.67814 0.97638 0.97401 0.0
H671 H 0.52777 0.78467 0.98773 0.0
H672 H 0.7168 0.91902 0.9755 0.0
O673 O 0.51826 0.91441 0.92192 0.0
H674 H 0.54847 0.08839 0.91543 0.0
H675 H 0.50455 0.98651 0.86625 0.0
H676 H 0.46568 0.04264 0.87101 0.0
H677 H 0.48764 0.09411 0.89571 0.0
H678 H 0.58633 0.0316 0.91033 0.0
H679 H 0.58075 0.02261 0.80824 0.0
H680 H 0.56428 0.96511 0.78711 0.0
O681 O 0.53138 0.93047 0.88616 0.0
C682 C 0.60499 0.88439 0.89245 0.0
C683 C 0.56087 0.93132 0.81709 0.0
C684 C 0.57601 0.99673 0.81718 0.0
N685 N 0.57297 0.96282 0.85213 0.0
C686 C 0.56421 0.93101 0.8406 0.0
C687 C 0.57912 0.99536 0.8407 0.0
C688 C 0.56677 0.96446 0.80534 0.0
C689 C 0.632 0.94884 0.95772 0.0
N690 N 0.61847 0.9162 0.94912 0.0
C691 C 0.66753 0.9504 0.96731 0.0
C692 C 0.68922 0.91822 0.96811 0.0
C693 C 0.67519 0.88501 0.95937 0.0
C694 C 0.63956 0.88452 0.94989 0.0
C695 C 0.55263 0.83923 0.98874 0.0
C696 C 0.53881 0.8423 0.94276 0.0
C697 C 0.56248 0.87051 0.97602 0.0
N698 N 0.55569 0.87168 0.95329 0.0
C699 C 0.52857 0.81057 0.95494 0.0
C700 C 0.53557 0.80908 0.97808 0.0
C701 C 0.50951 0.9171 0.90109 0.0
C702 C 0.53866 0.0662 0.90456 0.0
C703 C 0.51426 0.00875 0.87707 0.0
C704 C 0.49216 0.0405 0.87966 0.0
C705 C 0.50451 0.06937 0.89352 0.0
N706 N 0.54779 0.00592 0.8879 0.0
C707 C 0.56004 0.03406 0.90155 0.0
Co708 Co 0.83981 0.18491 0.82395 0.0
Co709 Co 0.79527 0.17756 0.87538 0.0
O710 O 0.79572 0.17252 0.84221 0.0
C711 C 0.78327 0.22957 0.79831 0.0
O712 O 0.77403 0.24686 0.81706 0.0
C713 C 0.76436 0.10127 0.86786 0.0
O714 O 0.78761 0.09674 0.85097 0.0
O715 O 0.8411 0.14649 0.87822 0.0
O716 O 0.87377 0.16568 0.84808 0.0
H717 H 0.85273 0.20119 0.95151 0.0
H718 H 0.77962 0.13939 0.80377 0.0
O719 O 0.80762 0.20382 0.79868 0.0
H720 H 0.8922 0.06094 0.79952 0.0
H721 H 0.91493 0.19348 0.75213 0.0
H722 H 0.91293 0.2196 0.83395 0.0
H723 H 0.89524 0.12418 0.81565 0.0
H724 H 0.85998 0.17717 0.77511 0.0
O725 O 0.76356 0.13179 0.87878 0.0
H726 H 0.85246 0.19482 0.91002 0.0
H727 H 0.73675 0.17008 0.91099 0.0
H728 H 0.96857 0.23604 0.81163 0.0
H729 H 0.77536 0.0765 0.78714 0.0
H730 H 0.96982 0.22302 0.77041 0.0
H731 H 0.83191 0.03675 0.78503 0.0
O732 O 0.84218 0.23587 0.83761 0.0
H733 H 0.66772 0.20856 0.84596 0.0
H734 H 0.77163 0.25123 0.89396 0.0
H735 H 0.71599 0.29094 0.88968 0.0
H736 H 0.6635 0.26962 0.86557 0.0
H737 H 0.72404 0.16985 0.85058 0.0
H738 H 0.73583 0.17584 0.95252 0.0
H739 H 0.79408 0.19167 0.97306 0.0
O740 O 0.82668 0.22337 0.87358 0.0
C741 C 0.87142 0.14896 0.86706 0.0
C742 C 0.82712 0.19445 0.94275 0.0
C743 C 0.76153 0.18017 0.94332 0.0
N744 N 0.79456 0.18254 0.90805 0.0
C745 C 0.82677 0.19095 0.91924 0.0
C746 C 0.76224 0.1769 0.9198 0.0
C747 C 0.79422 0.18906 0.95483 0.0
C748 C 0.80441 0.12236 0.80274 0.0
N749 N 0.83763 0.1354 0.81078 0.0
C750 C 0.8018 0.08673 0.79338 0.0
C751 C 0.83352 0.06442 0.79224 0.0
C752 C 0.86733 0.07795 0.8004 0.0
C753 C 0.86887 0.11371 0.80967 0.0
C754 C 0.91474 0.19928 0.77008 0.0
C755 C 0.91329 0.21367 0.81604 0.0
C756 C 0.88365 0.19021 0.78318 0.0
N757 N 0.88327 0.19727 0.80589 0.0
C758 C 0.94487 0.22312 0.80348 0.0
C759 C 0.94553 0.21583 0.78035 0.0
C760 C 0.8401 0.24485 0.85845 0.0
C761 C 0.69036 0.21811 0.85657 0.0
C762 C 0.74894 0.2418 0.8834 0.0
C763 C 0.71748 0.26437 0.88107 0.0
C764 C 0.68803 0.25238 0.86755 0.0
N765 N 0.75095 0.20815 0.87263 0.0
C766 C 0.72225 0.19625 0.8593 0.0
Co767 Co 0.56932 0.09028 0.57385 0.0
Co768 Co 0.57745 0.04478 0.62491 0.0
O769 O 0.58243 0.04598 0.59174 0.0
C770 C 0.52579 0.03312 0.54809 0.0
O771 O 0.50953 0.02281 0.56698 0.0
C772 C 0.65397 0.0145 0.61701 0.0
O773 O 0.65811 0.03757 0.6 0.0
O774 O 0.60797 0.09094 0.62806 0.0
O775 O 0.58815 0.12399 0.59823 0.0
H776 H 0.5533 0.10043 0.70148 0.0
H777 H 0.61557 0.0313 0.55295 0.0
O778 O 0.55068 0.05836 0.54837 0.0
H779 H 0.6924 0.14508 0.54978 0.0
H780 H 0.5593 0.16686 0.50266 0.0
H781 H 0.53357 0.16263 0.58449 0.0
H782 H 0.62924 0.14677 0.56609 0.0
H783 H 0.57655 0.11165 0.52517 0.0
O784 O 0.62361 0.01358 0.62809 0.0
H785 H 0.55963 0.10109 0.65999 0.0
H786 H 0.58563 0.98563 0.66008 0.0
H787 H 0.51614 0.21848 0.56265 0.0
H788 H 0.6784 0.02843 0.53613 0.0
H789 H 0.52898 0.22086 0.52143 0.0
H790 H 0.71735 0.08559 0.53456 0.0
O791 O 0.51841 0.09161 0.58756 0.0
H792 H 0.54803 0.91747 0.59454 0.0
H793 H 0.50411 0.01981 0.64337 0.0
H794 H 0.46511 0.96377 0.63868 0.0
H795 H 0.48707 0.91206 0.61415 0.0
H796 H 0.58602 0.97418 0.59958 0.0
H797 H 0.57992 0.98379 0.70161 0.0
H798 H 0.56346 0.04145 0.72259 0.0
O799 O 0.53123 0.07564 0.62339 0.0
C800 C 0.60505 0.12146 0.61715 0.0
C801 C 0.56031 0.07508 0.69253 0.0
C802 C 0.5753 0.00963 0.6926 0.0
N803 N 0.57254 0.04336 0.65758 0.0
C804 C 0.56379 0.07525 0.66902 0.0
C805 C 0.57854 0.01086 0.66909 0.0
C806 C 0.56606 0.04199 0.70436 0.0
C807 C 0.63224 0.05635 0.55216 0.0
N808 N 0.61878 0.08914 0.56059 0.0
C809 C 0.66784 0.05453 0.54269 0.0
C810 C 0.6897 0.08659 0.54185 0.0
C811 C 0.67575 0.11996 0.55042 0.0
C812 C 0.64003 0.12071 0.55977 0.0
C813 C 0.55358 0.16618 0.52062 0.0
C814 C 0.53942 0.16348 0.56658 0.0
C815 C 0.5632 0.13493 0.53344 0.0
N816 N 0.55624 0.13395 0.55616 0.0
C817 C 0.52941 0.19518 0.55429 0.0
C818 C 0.53659 0.19648 0.53116 0.0
C819 C 0.50952 0.08904 0.60839 0.0
C820 C 0.53822 0.93976 0.60533 0.0
C821 C 0.51382 0.99747 0.63263 0.0
C822 C 0.49165 0.96577 0.63007 0.0
C823 C 0.50399 0.93676 0.61631 0.0
N824 N 0.54742 1.00013 0.62186 0.0
C825 C 0.55967 0.97186 0.6083 0.0
Co826 Co 0.66632 0.82093 0.3234 0.0
Co827 Co 0.71098 0.82752 0.37484 0.0
O828 O 0.7105 0.83279 0.34168 0.0
C829 C 0.72252 0.77587 0.29776 0.0
O830 O 0.73164 0.75854 0.31652 0.0
C831 C 0.74196 0.90381 0.36758 0.0
O832 O 0.71845 0.90861 0.35086 0.0
O833 O 0.66533 0.85884 0.3778 0.0
O834 O 0.63254 0.84044 0.34754 0.0
H835 H 0.65358 0.80364 0.45096 0.0
H836 H 0.72706 0.86592 0.30338 0.0
O837 O 0.69833 0.80177 0.29812 0.0
H838 H 0.61533 0.94555 0.29908 0.0
H839 H 0.59122 0.81345 0.25153 0.0
H840 H 0.59281 0.787 0.33331 0.0
H841 H 0.61154 0.88227 0.31509 0.0
H842 H 0.64631 0.82908 0.27456 0.0
O843 O 0.74294 0.8731 0.37832 0.0
H844 H 0.65376 0.81038 0.40949 0.0
H845 H 0.76962 0.83438 0.4104 0.0
H846 H 0.53703 0.77123 0.31094 0.0
H847 H 0.73206 0.92884 0.28688 0.0
H848 H 0.536 0.78442 0.26974 0.0
H849 H 0.67594 0.9692 0.28474 0.0
O850 O 0.66337 0.76993 0.33698 0.0
H851 H 0.83827 0.79599 0.34522 0.0
H852 H 0.7342 0.75355 0.39318 0.0
H853 H 0.78956 0.71352 0.38871 0.0
H854 H 0.84213 0.73472 0.36461 0.0
H855 H 0.78221 0.83502 0.35002 0.0
H856 H 0.77064 0.82825 0.45192 0.0
H857 H 0.71235 0.81259 0.47247 0.0
O858 O 0.67929 0.78193 0.37295 0.0
C859 C 0.63504 0.85689 0.3666 0.0
C860 C 0.6792 0.81029 0.4422 0.0
C861 C 0.74488 0.82416 0.44273 0.0
N862 N 0.71173 0.82231 0.40749 0.0
C863 C 0.6795 0.814 0.4187 0.0
C864 C 0.74412 0.82765 0.41922 0.0
C865 C 0.71217 0.81537 0.45425 0.0
C866 C 0.70246 0.8832 0.30234 0.0
N867 N 0.66906 0.87047 0.3103 0.0
C868 C 0.70549 0.91886 0.29305 0.0
C869 C 0.674 0.94151 0.2919 0.0
C870 C 0.64001 0.92828 0.29997 0.0
C871 C 0.63806 0.89249 0.30917 0.0
C872 C 0.59132 0.80758 0.26947 0.0
C873 C 0.59254 0.793 0.31541 0.0
C874 C 0.62249 0.81627 0.2826 0.0
N875 N 0.62275 0.80911 0.3053 0.0
C876 C 0.56089 0.78393 0.30282 0.0
C877 C 0.56034 0.79132 0.2797 0.0
C878 C 0.66553 0.76074 0.35779 0.0
C879 C 0.81559 0.78649 0.35581 0.0
C880 C 0.75692 0.76294 0.38262 0.0
C881 C 0.78823 0.74018 0.38019 0.0
C882 C 0.81772 0.7521 0.36668 0.0
N883 N 0.75511 0.7967 0.37197 0.0
C884 C 0.78386 0.80853 0.35866 0.0
Co885 Co 0.93637 0.91531 0.07333 0.0
Co886 Co 0.92786 0.96079 0.12438 0.0
O887 O 0.92305 0.95959 0.0912 0.0
C888 C 0.97991 0.97265 0.04778 0.0
O889 O 0.99583 0.98303 0.06675 0.0
C890 C 0.85157 0.99171 0.11617 0.0
O891 O 0.84764 0.96932 0.09882 0.0
O892 O 0.89736 0.91461 0.12745 0.0
O893 O 0.91741 0.88157 0.09767 0.0
H894 H 0.95165 0.90506 0.20098 0.0
H895 H 0.89021 0.97417 0.05222 0.0
O896 O 0.95516 0.94727 0.04792 0.0
H897 H 0.81362 0.86024 0.04889 0.0
H898 H 0.94712 0.83879 1.00217 0.0
H899 H 0.97213 0.84301 0.08408 0.0
H900 H 0.8766 0.85872 0.06545 0.0
H901 H 0.92958 0.89396 0.02462 0.0
O902 O 0.88167 0.99197 0.12752 0.0
H903 H 0.94556 0.90446 0.15947 0.0
H904 H 0.91948 0.0199 0.15956 0.0
H905 H 0.98983 0.7872 0.06229 0.0
H906 H 0.82757 0.97687 0.03512 0.0
H907 H 0.97737 0.78482 0.02103 0.0
H908 H 0.78875 0.91963 0.03347 0.0
O909 O 0.98718 0.91408 0.08716 0.0
H910 H 0.95736 0.08811 0.09404 0.0
H911 H 1.00107 0.98584 0.143 0.0
H912 H 0.04004 0.04191 0.13837 0.0
H913 H 0.01819 0.09359 0.11378 0.0
H914 H 0.91939 0.03138 0.09901 0.0
H915 H 0.92494 0.02168 0.2011 0.0
H916 H 0.94131 0.96401 0.22208 0.0
O917 O 0.97412 0.92998 0.12295 0.0
C918 C 0.9004 0.88409 0.11656 0.0
C919 C 0.94467 0.93042 0.19202 0.0
C920 C 0.92963 0.99585 0.19209 0.0
N921 N 0.93262 0.96218 0.15706 0.0
C922 C 0.94132 0.93028 0.16851 0.0
C923 C 0.92653 0.99466 0.16857 0.0
C924 C 0.93882 0.96349 0.20385 0.0
C925 C 0.87359 0.94909 0.05139 0.0
N926 N 0.88701 0.91635 0.05993 0.0
C927 C 0.8381 0.95081 0.04177 0.0
C928 C 0.8163 0.91871 0.04088 0.0
C929 C 0.83021 0.88539 0.04956 0.0
C930 C 0.86582 0.88474 0.05907 0.0
C931 C 0.95267 0.83947 0.02014 0.0
C932 C 0.96643 0.84216 0.06614 0.0
C933 C 0.94289 0.87069 0.03294 0.0
N934 N 0.94966 0.87167 0.05568 0.0
C935 C 0.9766 0.81049 0.05389 0.0
C936 C 0.96962 0.80919 0.03073 0.0
C937 C 0.99596 0.91666 0.10799 0.0
C938 C 0.96712 0.06584 0.10486 0.0
C939 C 0.9914 0.00817 0.13223 0.0
C940 C 0.01356 0.03988 0.12971 0.0
C941 C 1.00128 0.06887 0.11592 0.0
N942 N 0.95787 0.00547 0.12138 0.0
C943 C 0.94568 0.03372 0.10779 0.0
Co944 Co 0.66657 0.68568 0.82369 0.0
Co945 Co 0.71113 0.67896 0.87515 0.0
O946 O 0.71071 0.67373 0.842 0.0
C947 C 0.72288 0.73066 0.79809 0.0
O948 O 0.73205 0.74792 0.81687 0.0
C949 C 0.7419 0.60259 0.86796 0.0
O950 O 0.71829 0.59781 0.85128 0.0
O951 O 0.66545 0.64769 0.87808 0.0
O952 O 0.63273 0.66623 0.84782 0.0
H953 H 0.65364 0.7028 0.95126 0.0
H954 H 0.72726 0.64059 0.80371 0.0
O955 O 0.69864 0.70481 0.79843 0.0
H956 H 0.6154 0.56116 0.79937 0.0
H957 H 0.59157 0.69335 0.7518 0.0
H958 H 0.59312 0.71976 0.83358 0.0
H959 H 0.6117 0.62446 0.81536 0.0
H960 H 0.64659 0.67759 0.77485 0.0
O961 O 0.74303 0.63334 0.87864 0.0
H962 H 0.65387 0.69609 0.90978 0.0
H963 H 0.76972 0.67202 0.91075 0.0
H964 H 0.5374 0.73566 0.81119 0.0
H965 H 0.73218 0.57765 0.78723 0.0
H966 H 0.53638 0.72249 0.76999 0.0
H967 H 0.67599 0.5374 0.78507 0.0
O968 O 0.6637 0.73668 0.83728 0.0
H969 H 0.83851 0.71039 0.84563 0.0
H970 H 0.73439 0.7529 0.89352 0.0
H971 H 0.78979 0.79288 0.88909 0.0
H972 H 0.84239 0.77164 0.86503 0.0
H973 H 0.78241 0.6714 0.85039 0.0
H974 H 0.77068 0.67811 0.95227 0.0
H975 H 0.71237 0.69379 0.97279 0.0
O976 O 0.67948 0.72459 0.87326 0.0
C977 C 0.63517 0.64973 0.86687 0.0
C978 C 0.67926 0.69613 0.9425 0.0
C979 C 0.74494 0.68223 0.94307 0.0
N980 N 0.71184 0.68414 0.90781 0.0
C981 C 0.6796 0.69245 0.919 0.0
C982 C 0.74421 0.67876 0.91956 0.0
C983 C 0.71221 0.69103 0.95457 0.0
C984 C 0.70263 0.62335 0.80267 0.0
N985 N 0.66924 0.63615 0.8106 0.0
C986 C 0.70561 0.58769 0.79339 0.0
C987 C 0.67409 0.56509 0.79222 0.0
C988 C 0.64011 0.57839 0.80027 0.0
C989 C 0.6382 0.61418 0.80945 0.0
C990 C 0.59166 0.69921 0.76974 0.0
C991 C 0.59285 0.71376 0.81568 0.0
C992 C 0.62279 0.69045 0.78288 0.0
N993 N 0.62305 0.6976 0.80558 0.0
C994 C 0.56123 0.72291 0.80308 0.0
C995 C 0.5607 0.71553 0.77996 0.0
C996 C 0.66579 0.74581 0.8581 0.0
C997 C 0.81582 0.7199 0.85621 0.0
C998 C 0.75712 0.74349 0.88298 0.0
C999 C 0.78846 0.76622 0.88058 0.0
C1000 C 0.81796 0.75428 0.86708 0.0
N1001 N 0.7553 0.70974 0.87232 0.0
C1002 C 0.78406 0.69789 0.85903 0.0
Co1003 Co 0.56967 0.41511 0.07345 0.0
Co1004 Co 0.57848 0.46075 0.12442 0.0
O1005 O 0.5832 0.45942 0.09122 0.0
C1006 C 0.5263 0.47243 0.04774 0.0
O1007 O 0.51026 0.4829 0.06666 0.0
C1008 C 0.65478 0.49163 0.11606 0.0
O1009 O 0.65862 0.46928 0.09868 0.0
O1010 O 0.60892 0.41453 0.1275 0.0
O1011 O 0.58851 0.3814 0.09785 0.0
H1012 H 0.55488 0.40531 0.20111 0.0
H1013 H 0.61607 0.47363 0.05219 0.0
O1014 O 0.55101 0.44702 0.04797 0.0
H1015 H 0.69214 0.35933 0.04905 0.0
H1016 H 0.55852 0.33823 1.00245 0.0
H1017 H 0.53359 0.34303 0.08436 0.0
H1018 H 0.62919 0.3582 0.06567 0.0
H1019 H 0.57632 0.39345 0.02478 0.0
O1020 O 0.62474 0.49187 0.12747 0.0
H1021 H 0.5608 0.40457 0.15959 0.0
H1022 H 0.58708 0.51996 0.15951 0.0
H1023 H 0.51562 0.28718 0.06269 0.0
H1024 H 0.67868 0.47593 0.03504 0.0
H1025 H 0.52805 0.28451 0.02143 0.0
H1026 H 0.71725 0.41851 0.03349 0.0
O1027 O 0.51887 0.41416 0.08732 0.0
H1028 H 0.5491 0.58803 0.09395 0.0
H1029 H 0.5054 0.486 0.1431 0.0
H1030 H 0.46651 0.54214 0.13847 0.0
H1031 H 0.48836 0.59369 0.11378 0.0
H1032 H 0.58698 0.53123 0.09893 0.0
H1033 H 0.58178 0.52188 0.20106 0.0
H1034 H 0.5654 0.46429 0.22213 0.0
O1035 O 0.53216 0.43003 0.12309 0.0
C1036 C 0.60568 0.38396 0.11668 0.0
C1037 C 0.56187 0.43062 0.19211 0.0
C1038 C 0.57701 0.49603 0.19208 0.0
N1039 N 0.57384 0.46226 0.1571 0.0
C1040 C 0.56512 0.43041 0.16859 0.0
C1041 C 0.58003 0.49476 0.16856 0.0
C1042 C 0.56782 0.46372 0.2039 0.0
C1043 C 0.63257 0.44846 0.0514 0.0
N1044 N 0.61902 0.41584 0.06002 0.0
C1045 C 0.66806 0.44997 0.04175 0.0
C1046 C 0.6897 0.41776 0.04092 0.0
C1047 C 0.67566 0.38457 0.04969 0.0
C1048 C 0.64006 0.38413 0.05922 0.0
C1049 C 0.55298 0.33904 0.02042 0.0
C1050 C 0.53927 0.34205 0.06642 0.0
C1051 C 0.56291 0.37029 0.03315 0.0
N1052 N 0.55617 0.37143 0.05589 0.0
C1053 C 0.52896 0.31036 0.05424 0.0
C1054 C 0.53591 0.3089 0.03108 0.0
C1055 C 0.5102 0.41678 0.10817 0.0
C1056 C 0.53934 0.56581 0.10481 0.0
C1057 C 0.51507 0.50828 0.13229 0.0
C1058 C 0.49295 0.54003 0.12977 0.0
C1059 C 0.50524 0.56895 0.11592 0.0
N1060 N 0.54855 0.50548 0.1214 0.0
C1061 C 0.56073 0.53366 0.10775 0.0
Co1062 Co 0.83986 0.32069 0.32365 0.0
Co1063 Co 0.79491 0.32806 0.37496 0.0
O1064 O 0.79564 0.33306 0.34179 0.0
C1065 C 0.78346 0.27594 0.29799 0.0
O1066 O 0.77407 0.25882 0.31677 0.0
C1067 C 0.76416 0.4044 0.36733 0.0
O1068 O 0.78751 0.40888 0.35049 0.0
O1069 O 0.84073 0.35911 0.37792 0.0
O1070 O 0.87363 0.34007 0.34784 0.0
H1071 H 0.85172 0.3045 0.45128 0.0
H1072 H 0.77971 0.36604 0.30329 0.0
O1073 O 0.80788 0.30163 0.29834 0.0
H1074 H 0.89218 0.44465 0.29914 0.0
H1075 H 0.91546 0.31195 0.25202 0.0
H1076 H 0.91299 0.28618 0.33388 0.0
H1077 H 0.89524 0.38148 0.31537 0.0
H1078 H 0.86034 0.32827 0.27485 0.0
O1079 O 0.76322 0.37387 0.37825 0.0
H1080 H 0.85181 0.31082 0.40979 0.0
H1081 H 0.7361 0.33561 0.41038 0.0
H1082 H 0.9688 0.26973 0.31172 0.0
H1083 H 0.77543 0.42886 0.28655 0.0
H1084 H 0.97027 0.28257 0.27048 0.0
H1085 H 0.83193 0.46869 0.28449 0.0
O1086 O 0.84225 0.26977 0.33738 0.0
H1087 H 0.66758 0.29714 0.34517 0.0
H1088 H 0.77107 0.25442 0.3935 0.0
H1089 H 0.71544 0.21475 0.38906 0.0
H1090 H 0.66316 0.2361 0.36478 0.0
H1091 H 0.72389 0.33581 0.34995 0.0
H1092 H 0.73482 0.3299 0.45192 0.0
H1093 H 0.79289 0.31406 0.47264 0.0
O1094 O 0.82631 0.28222 0.37328 0.0
C1095 C 0.87111 0.35676 0.36682 0.0
C1096 C 0.82619 0.31124 0.44244 0.0
C1097 C 0.7606 0.32555 0.4428 0.0
N1098 N 0.79393 0.32312 0.40763 0.0
C1099 C 0.82604 0.31471 0.41893 0.0
C1100 C 0.76151 0.32879 0.41927 0.0
C1101 C 0.79319 0.31665 0.45441 0.0
C1102 C 0.80447 0.3831 0.30229 0.0
N1103 N 0.83767 0.37015 0.31041 0.0
C1104 C 0.80185 0.4187 0.29286 0.0
C1105 C 0.83354 0.44105 0.29175 0.0
C1106 C 0.86734 0.4276 0.3 0.0
C1107 C 0.86888 0.39188 0.30932 0.0
C1108 C 0.91516 0.30623 0.26999 0.0
C1109 C 0.91346 0.29204 0.31596 0.0
C1110 C 0.88397 0.31531 0.283 0.0
N1111 N 0.88347 0.30834 0.30571 0.0
C1112 C 0.94512 0.28258 0.30349 0.0
C1113 C 0.94592 0.28977 0.28035 0.0
C1114 C 0.83994 0.26078 0.35821 0.0
C1115 C 0.69013 0.28759 0.35585 0.0
C1116 C 0.74847 0.26387 0.38286 0.0
C1117 C 0.71701 0.24131 0.38045 0.0
C1118 C 0.68768 0.25332 0.36683 0.0
N1119 N 0.75059 0.2975 0.37209 0.0
C1120 C 0.72201 0.30942 0.35867 0.0
Co1121 Co 0.93577 0.5912 0.57335 0.0
Co1122 Co 0.9269 0.54562 0.62435 0.0
O1123 O 0.92219 0.54691 0.59115 0.0
C1124 C 0.97901 0.53364 0.54783 0.0
O1125 O 0.99466 0.52302 0.56684 0.0
C1126 C 0.85085 0.51398 0.61583 0.0
O1127 O 0.84719 0.53555 0.59807 0.0
O1128 O 0.89647 0.59184 0.6274 0.0
O1129 O 0.91686 0.62493 0.59772 0.0
H1130 H 0.9505 0.60123 0.70099 0.0
H1131 H 0.88947 0.5327 0.55199 0.0
O1132 O 0.95452 0.55926 0.54793 0.0
H1133 H 0.81341 0.647 0.54876 0.0
H1134 H 0.94716 0.66796 0.5023 0.0
H1135 H 0.9718 0.6633 0.58425 0.0
H1136 H 0.87626 0.64809 0.56551 0.0
H1137 H 0.92927 0.61278 0.52466 0.0
O1138 O 0.88064 0.51449 0.62748 0.0
H1139 H 0.94461 0.60187 0.65948 0.0
H1140 H 0.91831 0.48648 0.65951 0.0
H1141 H 0.98984 0.71911 0.56257 0.0
H1142 H 0.82698 0.53043 0.53468 0.0
H1143 H 0.97756 0.72172 0.52129 0.0
H1144 H 0.78842 0.58785 0.53308 0.0
O1145 O 0.98653 0.59214 0.58723 0.0
H1146 H 0.9563 0.41831 0.59395 0.0
H1147 H 0.99997 0.52037 0.64308 0.0
H1148 H 0.03885 0.46422 0.63849 0.0
H1149 H 0.01702 0.41265 0.61381 0.0
H1150 H 0.91844 0.47512 0.59889 0.0
H1151 H 0.92359 0.48467 0.70106 0.0
H1152 H 0.93996 0.5423 0.72208 0.0
O1153 O 0.97324 0.57633 0.62301 0.0
C1154 C 0.89971 0.6224 0.61656 0.0
C1155 C 0.94352 0.57589 0.69202 0.0
C1156 C 0.92836 0.51049 0.69206 0.0
N1157 N 0.93156 0.54417 0.65704 0.0
C1158 C 0.94028 0.57605 0.6685 0.0
C1159 C 0.92536 0.5117 0.66853 0.0
C1160 C 0.93755 0.54283 0.70384 0.0
C1161 C 0.87297 0.55786 0.55118 0.0
N1162 N 0.88645 0.59046 0.55987 0.0
C1163 C 0.83755 0.55638 0.54144 0.0
C1164 C 0.81591 0.58858 0.54059 0.0
C1165 C 0.82989 0.62176 0.54941 0.0
C1166 C 0.86542 0.62217 0.55904 0.0
C1167 C 0.95263 0.66719 0.52029 0.0
C1168 C 0.96618 0.66425 0.56631 0.0
C1169 C 0.94266 0.63596 0.53303 0.0
N1170 N 0.94932 0.63485 0.55577 0.0
C1171 C 0.97654 0.69592 0.55411 0.0
C1172 C 0.96967 0.69734 0.53095 0.0
C1173 C 0.99521 0.58953 0.60808 0.0
C1174 C 0.96606 0.44054 0.60481 0.0
C1175 C 0.99031 0.49809 0.63227 0.0
C1176 C 0.01241 0.46633 0.62977 0.0
C1177 C 1.00014 0.4374 0.61593 0.0
N1178 N 0.95684 0.50088 0.62137 0.0
C1179 C 0.94467 0.47269 0.60773 0.0
Co1180 Co 0.66646 0.32034 0.68578 0.0
Co1181 Co 0.71118 0.32696 0.63436 0.0
O1182 O 0.71066 0.33225 0.66751 0.0
C1183 C 0.72265 0.27535 0.71148 0.0
O1184 O 0.7318 0.25799 0.69273 0.0
C1185 C 0.74195 0.40334 0.64153 0.0
O1186 O 0.7183 0.40816 0.65819 0.0
O1187 O 0.66551 0.35823 0.63136 0.0
O1188 O 0.63269 0.33976 0.6616 0.0
H1189 H 0.65393 0.30297 0.55821 0.0
H1190 H 0.7271 0.36545 0.70579 0.0
O1191 O 0.69846 0.30125 0.71108 0.0
H1192 H 0.61523 0.44491 0.70997 0.0
H1193 H 0.59125 0.3128 0.7576 0.0
H1194 H 0.59302 0.28627 0.67583 0.0
H1195 H 0.61157 0.38159 0.69401 0.0
H1196 H 0.64635 0.3285 0.73459 0.0
O1197 O 0.7431 0.37257 0.63088 0.0
H1198 H 0.65403 0.30977 0.59968 0.0
H1199 H 0.76988 0.33383 0.59882 0.0
H1200 H 0.53723 0.27043 0.69818 0.0
H1201 H 0.73197 0.42842 0.72224 0.0
H1202 H 0.53611 0.28366 0.73938 0.0
H1203 H 0.67578 0.46869 0.72431 0.0
O1204 O 0.66361 0.26932 0.67221 0.0
H1205 H 0.83846 0.29557 0.66406 0.0
H1206 H 0.73451 0.25299 0.61606 0.0
H1207 H 0.78989 0.21301 0.62059 0.0
H1208 H 0.84241 0.23429 0.6447 0.0
H1209 H 0.78238 0.33456 0.6592 0.0
H1210 H 0.77097 0.32763 0.55731 0.0
H1211 H 0.71273 0.31192 0.53673 0.0
O1212 O 0.67954 0.28133 0.63625 0.0
C1213 C 0.63519 0.35623 0.64254 0.0
C1214 C 0.67953 0.30965 0.56699 0.0
C1215 C 0.7452 0.32355 0.56648 0.0
N1216 N 0.712 0.32172 0.60171 0.0
C1217 C 0.67979 0.31339 0.59049 0.0
C1218 C 0.7444 0.32706 0.58999 0.0
C1219 C 0.71252 0.31472 0.55495 0.0
C1220 C 0.70246 0.3827 0.7068 0.0
N1221 N 0.6691 0.36989 0.69884 0.0
C1222 C 0.70542 0.41838 0.71606 0.0
C1223 C 0.6739 0.44098 0.71718 0.0
C1224 C 0.63994 0.42768 0.7091 0.0
C1225 C 0.63806 0.39187 0.69994 0.0
C1226 C 0.59139 0.30692 0.73966 0.0
C1227 C 0.59271 0.29229 0.69373 0.0
C1228 C 0.62257 0.31564 0.72655 0.0
N1229 N 0.62288 0.30846 0.70386 0.0
C1230 C 0.56105 0.28318 0.70631 0.0
C1231 C 0.56045 0.29059 0.72943 0.0
C1232 C 0.66579 0.26014 0.65141 0.0
C1233 C 0.81581 0.28605 0.65345 0.0
C1234 C 0.75721 0.26241 0.62663 0.0
C1235 C 0.78853 0.23968 0.62909 0.0
C1236 C 0.81799 0.25164 0.64261 0.0
N1237 N 0.75534 0.29618 0.63726 0.0
C1238 C 0.78407 0.30806 0.65058 0.0
Co1239 Co 0.93592 0.41501 0.93613 0.0
Co1240 Co 0.92702 0.46061 0.88513 0.0
O1241 O 0.92232 0.4593 0.91834 0.0
C1242 C 0.97929 0.47243 0.9617 0.0
O1243 O 0.99511 0.48293 0.94272 0.0
C1244 C 0.8509 0.49206 0.89363 0.0
O1245 O 0.84721 0.47033 0.91131 0.0
O1246 O 0.8966 0.41437 0.88209 0.0
O1247 O 0.91705 0.38128 0.91175 0.0
H1248 H 0.95061 0.40505 0.80848 0.0
H1249 H 0.88957 0.47348 0.95749 0.0
O1250 O 0.95464 0.44695 0.96156 0.0
H1251 H 0.81357 0.35914 0.96066 0.0
H1252 H 0.94732 0.33821 0.00716 0.0
H1253 H 0.972 0.34293 0.92522 0.0
H1254 H 0.87644 0.35808 0.94393 0.0
H1255 H 0.92942 0.3934 0.98481 0.0
O1256 O 0.88075 0.49172 0.88203 0.0
H1257 H 0.94471 0.40438 0.84999 0.0
H1258 H 0.91841 0.51977 0.84999 0.0
H1259 H 0.99007 0.28711 0.94689 0.0
H1260 H 0.82705 0.4757 0.97477 0.0
H1261 H 0.97776 0.28449 0.98817 0.0
H1262 H 0.78852 0.41826 0.97633 0.0
O1263 O 0.98669 0.41409 0.92224 0.0
H1264 H 0.95638 0.58791 0.91555 0.0
H1265 H 1.00008 0.48587 0.86641 0.0
H1266 H 0.03894 0.54203 0.87101 0.0
H1267 H 0.01709 0.59359 0.89569 0.0
H1268 H 0.91853 0.5311 0.91061 0.0
H1269 H 0.9237 0.52162 0.80845 0.0
H1270 H 0.94007 0.464 0.78741 0.0
O1271 O 0.97336 0.4299 0.88647 0.0
C1272 C 0.89988 0.38381 0.89291 0.0
C1273 C 0.94362 0.43038 0.81745 0.0
C1274 C 0.92847 0.49579 0.81744 0.0
N1275 N 0.93166 0.46207 0.85245 0.0
C1276 C 0.94038 0.4302 0.84098 0.0
C1277 C 0.92547 0.49455 0.84097 0.0
C1278 C 0.93766 0.46345 0.80565 0.0
C1279 C 0.87309 0.4483 0.95828 0.0
N1280 N 0.8866 0.41571 0.9496 0.0
C1281 C 0.83765 0.44976 0.968 0.0
C1282 C 0.81602 0.41754 0.96884 0.0
C1283 C 0.83004 0.38438 0.96002 0.0
C1284 C 0.86558 0.38399 0.95041 0.0
C1285 C 0.9528 0.339 0.98917 0.0
C1286 C 0.96637 0.34197 0.94316 0.0
C1287 C 0.94282 0.37023 0.97644 0.0
N1288 N 0.94949 0.37135 0.95369 0.0
C1289 C 0.97674 0.31029 0.95535 0.0
C1290 C 0.96986 0.30886 0.97851 0.0
C1291 C 0.99534 0.4167 0.90139 0.0
C1292 C 0.96614 0.56569 0.90469 0.0
C1293 C 0.99041 0.50815 0.87722 0.0
C1294 C 0.01251 0.53991 0.87972 0.0
C1295 C 1.00023 0.56884 0.89356 0.0
N1296 N 0.95694 0.50534 0.88812 0.0
C1297 C 0.94477 0.53353 0.90176 0.0
Co1298 Co 0.83974 0.68522 0.18538 0.0
Co1299 Co 0.79521 0.67806 0.13395 0.0
O1300 O 0.79565 0.67295 0.16711 0.0
C1301 C 0.78324 0.72996 0.21099 0.0
O1302 O 0.77405 0.74723 0.19222 0.0
C1303 C 0.76445 0.60169 0.14135 0.0
O1304 O 0.78785 0.59709 0.15816 0.0
O1305 O 0.84102 0.64695 0.13108 0.0
O1306 O 0.87368 0.66593 0.16126 0.0
H1307 H 0.85268 0.70179 0.05782 0.0
H1308 H 0.7794 0.63981 0.20549 0.0
O1309 O 0.80757 0.70419 0.21064 0.0
H1310 H 0.89179 0.56109 0.2098 0.0
H1311 H 0.91479 0.69354 0.25723 0.0
H1312 H 0.91297 0.71974 0.17542 0.0
H1313 H 0.89502 0.62435 0.1937 0.0
H1314 H 0.85983 0.67739 0.23423 0.0
O1315 O 0.76348 0.6323 0.13052 0.0
H1316 H 0.85242 0.69531 0.09931 0.0
H1317 H 0.73669 0.6707 0.09834 0.0
H1318 H 0.96862 0.73603 0.19777 0.0
H1319 H 0.77495 0.5769 0.22208 0.0
H1320 H 0.96977 0.72296 0.23899 0.0
H1321 H 0.83141 0.53701 0.22422 0.0
O1322 O 0.84227 0.73619 0.17173 0.0
H1323 H 0.66768 0.70909 0.16339 0.0
H1324 H 0.77164 0.75179 0.11542 0.0
H1325 H 0.71604 0.79155 0.11974 0.0
H1326 H 0.66353 0.77021 0.14384 0.0
H1327 H 0.72397 0.67034 0.15873 0.0
H1328 H 0.73576 0.67657 0.05681 0.0
H1329 H 0.79402 0.6924 0.03627 0.0
O1330 O 0.82666 0.72383 0.13577 0.0
C1331 C 0.87132 0.64928 0.14226 0.0
C1332 C 0.82707 0.69505 0.06658 0.0
C1333 C 0.76147 0.68085 0.06601 0.0
N1334 N 0.79451 0.68309 0.10128 0.0
C1335 C 0.82673 0.69149 0.09008 0.0
C1336 C 0.76218 0.67751 0.08953 0.0
C1337 C 0.79416 0.68974 0.0545 0.0
C1338 C 0.80415 0.62272 0.20653 0.0
N1339 N 0.83742 0.6357 0.19853 0.0
C1340 C 0.80143 0.58707 0.21587 0.0
C1341 C 0.8331 0.56469 0.21703 0.0
C1342 C 0.86696 0.57816 0.20891 0.0
C1343 C 0.86861 0.61393 0.19967 0.0
C1344 C 0.91464 0.69935 0.23928 0.0
C1345 C 0.91329 0.71378 0.19333 0.0
C1346 C 0.88354 0.69037 0.22617 0.0
N1347 N 0.88321 0.69746 0.20347 0.0
C1348 C 0.94487 0.72315 0.20591 0.0
C1349 C 0.94549 0.71584 0.22904 0.0
C1350 C 0.84017 0.74523 0.15091 0.0
C1351 C 0.69034 0.71864 0.15279 0.0
C1352 C 0.74894 0.74235 0.12597 0.0
C1353 C 0.7175 0.76495 0.12832 0.0
C1354 C 0.68804 0.75295 0.14184 0.0
N1355 N 0.75092 0.70867 0.13671 0.0
C1356 C 0.7222 0.69676 0.15003 0.0
Co1357 Co 0.56962 0.59067 0.43546 0.0
Co1358 Co 0.57801 0.54512 0.38444 0.0
O1359 O 0.58299 0.54639 0.41761 0.0
C1360 C 0.52643 0.53334 0.46127 0.0
O1361 O 0.51022 0.52293 0.44239 0.0
C1362 C 0.65445 0.51451 0.3925 0.0
O1363 O 0.65844 0.53711 0.40975 0.0
O1364 O 0.60839 0.59137 0.38128 0.0
O1365 O 0.58822 0.62442 0.41102 0.0
H1366 H 0.55367 0.60065 0.30785 0.0
H1367 H 0.61622 0.5321 0.45651 0.0
O1368 O 0.55119 0.55871 0.46098 0.0
H1369 H 0.69234 0.64637 0.45942 0.0
H1370 H 0.55914 0.6674 0.50655 0.0
H1371 H 0.53341 0.66276 0.42473 0.0
H1372 H 0.62921 0.64755 0.44307 0.0
H1373 H 0.57673 0.61223 0.48411 0.0
O1374 O 0.62426 0.51403 0.38124 0.0
H1375 H 0.55997 0.60134 0.34935 0.0
H1376 H 0.58638 0.48597 0.34928 0.0
H1377 H 0.51564 0.71856 0.4465 0.0
H1378 H 0.67903 0.52974 0.47339 0.0
H1379 H 0.52848 0.72116 0.48772 0.0
H1380 H 0.71762 0.58715 0.47483 0.0
O1381 O 0.5187 0.59163 0.42176 0.0
H1382 H 0.54897 0.41776 0.4149 0.0
H1383 H 0.50478 0.51986 0.36596 0.0
H1384 H 0.46597 0.46369 0.37068 0.0
H1385 H 0.48807 0.4121 0.39526 0.0
H1386 H 0.58677 0.47459 0.40984 0.0
H1387 H 0.58069 0.48411 0.30775 0.0
H1388 H 0.56405 0.5417 0.28676 0.0
O1389 O 0.53167 0.57581 0.38594 0.0
C1390 C 0.60522 0.62192 0.39213 0.0
C1391 C 0.56077 0.57533 0.31681 0.0
C1392 C 0.57598 0.50993 0.31675 0.0
N1393 N 0.57309 0.54366 0.35177 0.0
C1394 C 0.56424 0.57552 0.34032 0.0
C1395 C 0.57921 0.51118 0.34027 0.0
C1396 C 0.56664 0.54226 0.30499 0.0
C1397 C 0.63273 0.55726 0.45725 0.0
N1398 N 0.61909 0.5899 0.44871 0.0
C1399 C 0.66832 0.55572 0.46675 0.0
C1400 C 0.68998 0.58792 0.46751 0.0
C1401 C 0.67585 0.62114 0.45884 0.0
C1402 C 0.64014 0.62161 0.44945 0.0
C1403 C 0.55343 0.66663 0.4886 0.0
C1404 C 0.53926 0.6637 0.44264 0.0
C1405 C 0.56323 0.63541 0.47581 0.0
N1406 N 0.55627 0.63431 0.4531 0.0
C1407 C 0.52906 0.69537 0.45489 0.0
C1408 C 0.53624 0.69679 0.47802 0.0
C1409 C 0.50984 0.58903 0.40094 0.0
C1410 C 0.5391 0.44 0.40409 0.0
C1411 C 0.51455 0.49757 0.37673 0.0
C1412 C 0.49249 0.4658 0.3793 0.0
C1413 C 0.50491 0.43686 0.39309 0.0
N1414 N 0.54813 0.50037 0.38752 0.0
C1415 C 0.56044 0.47217 0.4011 0.0
Co1416 Co 0.34007 0.32121 0.18605 0.0
Co1417 Co 0.29514 0.32825 0.13471 0.0
O1418 O 0.29584 0.33338 0.16787 0.0
C1419 C 0.28362 0.27637 0.2116 0.0
O1420 O 0.2742 0.25946 0.19275 0.0
C1421 C 0.26437 0.4046 0.1422 0.0
O1422 O 0.28778 0.40918 0.159 0.0
O1423 O 0.34091 0.35936 0.13169 0.0
O1424 O 0.3738 0.34074 0.16188 0.0
H1425 H 0.35199 0.30449 0.05842 0.0
H1426 H 0.27964 0.3663 0.20632 0.0
O1427 O 0.3081 0.302 0.21134 0.0
H1428 H 0.39172 0.44545 0.21054 0.0
H1429 H 0.4155 0.31292 0.25775 0.0
H1430 H 0.41339 0.28706 0.17591 0.0
H1431 H 0.39513 0.38227 0.19435 0.0
H1432 H 0.36036 0.32894 0.23486 0.0
O1433 O 0.26339 0.374 0.13135 0.0
H1434 H 0.35207 0.311 0.09991 0.0
H1435 H 0.23632 0.33556 0.09928 0.0
H1436 H 0.46922 0.2709 0.19814 0.0
H1437 H 0.27501 0.42912 0.22301 0.0
H1438 H 0.47051 0.2838 0.23937 0.0
H1439 H 0.33131 0.46923 0.2251 0.0
O1440 O 0.34273 0.27028 0.17236 0.0
H1441 H 0.16785 0.29725 0.16455 0.0
H1442 H 0.27143 0.25449 0.1163 0.0
H1443 H 0.21588 0.21473 0.12082 0.0
H1444 H 0.16355 0.23611 0.14505 0.0
H1445 H 0.22409 0.33601 0.15969 0.0
H1446 H 0.23505 0.32967 0.05775 0.0
H1447 H 0.29315 0.31385 0.03705 0.0
O1448 O 0.32661 0.28249 0.13646 0.0
C1449 C 0.37126 0.35726 0.14283 0.0
C1450 C 0.32645 0.31122 0.06725 0.0
C1451 C 0.26083 0.3254 0.06688 0.0
N1452 N 0.29417 0.32319 0.10204 0.0
C1453 C 0.3263 0.31479 0.09076 0.0
C1454 C 0.26174 0.32875 0.09039 0.0
C1455 C 0.29344 0.31652 0.05527 0.0
C1456 C 0.30432 0.38348 0.20734 0.0
N1457 N 0.3376 0.37067 0.19926 0.0
C1458 C 0.3015 0.41908 0.21673 0.0
C1459 C 0.33308 0.44159 0.21787 0.0
C1460 C 0.36696 0.42829 0.20967 0.0
C1461 C 0.3687 0.39256 0.20037 0.0
C1462 C 0.41529 0.30718 0.23979 0.0
C1463 C 0.41378 0.29294 0.19382 0.0
C1464 C 0.38409 0.31609 0.22675 0.0
N1465 N 0.38368 0.3091 0.20403 0.0
C1466 C 0.44546 0.28365 0.20633 0.0
C1467 C 0.44615 0.29086 0.22947 0.0
C1468 C 0.34038 0.26119 0.15155 0.0
C1469 C 0.19042 0.28769 0.15389 0.0
C1470 C 0.24881 0.26395 0.12692 0.0
C1471 C 0.2174 0.24135 0.12937 0.0
C1472 C 0.18804 0.25336 0.14297 0.0
N1473 N 0.25087 0.29764 0.13762 0.0
C1474 C 0.22225 0.30957 0.15101 0.0
Co1475 Co 0.43624 0.59067 0.93547 0.0
Co1476 Co 0.42827 0.54533 0.88433 0.0
O1477 O 0.42323 0.54642 0.9175 0.0
C1478 C 0.47985 0.53345 0.96113 0.0
O1479 O 0.4961 0.52323 0.94223 0.0
C1480 C 0.35174 0.51505 0.89216 0.0
O1481 O 0.34757 0.5381 0.90918 0.0
O1482 O 0.39776 0.59151 0.88121 0.0
O1483 O 0.41735 0.62445 0.91113 0.0
H1484 H 0.4526 0.60123 0.80784 0.0
H1485 H 0.3901 0.53149 0.95624 0.0
O1486 O 0.45493 0.55867 0.9609 0.0
H1487 H 0.31302 0.64509 0.95961 0.0
H1488 H 0.44603 0.66694 0.00678 0.0
H1489 H 0.47185 0.66314 0.92495 0.0
H1490 H 0.3762 0.64699 0.94332 0.0
H1491 H 0.42892 0.61179 0.98418 0.0
O1492 O 0.38211 0.51415 0.88109 0.0
H1493 H 0.4462 0.60174 0.84934 0.0
H1494 H 0.42013 0.4863 0.84909 0.0
H1495 H 0.48913 0.71893 0.94688 0.0
H1496 H 0.32726 0.52839 0.97304 0.0
H1497 H 0.47625 0.72109 0.9881 0.0
H1498 H 0.28819 0.58546 0.97471 0.0
O1499 O 0.48716 0.59216 0.92177 0.0
H1500 H 0.4576 0.41791 0.91459 0.0
H1501 H 0.50164 0.5204 0.8659 0.0
H1502 H 0.54061 0.46433 0.87056 0.0
H1503 H 0.5186 0.41254 0.89501 0.0
H1504 H 0.41964 0.47465 0.90959 0.0
H1505 H 0.42592 0.48461 0.80756 0.0
H1506 H 0.44244 0.54233 0.78667 0.0
O1507 O 0.47449 0.57616 0.88593 0.0
C1508 C 0.40057 0.62198 0.89217 0.0
C1509 C 0.44556 0.57585 0.81676 0.0
C1510 C 0.43053 0.51042 0.81661 0.0
N1511 N 0.43325 0.54402 0.85167 0.0
C1512 C 0.44204 0.57594 0.84027 0.0
C1513 C 0.42725 0.51157 0.84012 0.0
C1514 C 0.43981 0.54281 0.80489 0.0
C1515 C 0.37338 0.5565 0.95708 0.0
N1516 N 0.38677 0.58937 0.94871 0.0
C1517 C 0.33777 0.55455 0.96653 0.0
C1518 C 0.31584 0.58656 0.96743 0.0
C1519 C 0.32973 0.62001 0.95893 0.0
C1520 C 0.36545 0.62089 0.94958 0.0
C1521 C 0.45176 0.66635 0.98882 0.0
C1522 C 0.46598 0.6639 0.94287 0.0
C1523 C 0.44223 0.63515 0.97594 0.0
N1524 N 0.44921 0.63428 0.95323 0.0
C1525 C 0.4759 0.69556 0.9552 0.0
C1526 C 0.46869 0.69673 0.97834 0.0
C1527 C 0.49613 0.58958 0.90096 0.0
C1528 C 0.46744 0.44023 0.90383 0.0
C1529 C 0.4919 0.49803 0.87662 0.0
C1530 C 0.51406 0.46631 0.87915 0.0
C1531 C 0.50168 0.43726 0.89287 0.0
N1532 N 0.45828 0.50066 0.88737 0.0
C1533 C 0.44601 0.47235 0.90088 0.0
Co1534 Co 0.16581 0.68466 0.68572 0.0
Co1535 Co 0.21069 0.67708 0.6344 0.0
O1536 O 0.20999 0.67213 0.66758 0.0
C1537 C 0.2225 0.72922 0.71124 0.0
O1538 O 0.23205 0.74603 0.69238 0.0
C1539 C 0.24171 0.60083 0.64216 0.0
O1540 O 0.21871 0.59644 0.65918 0.0
O1541 O 0.16481 0.64611 0.63149 0.0
O1542 O 0.13198 0.66528 0.66157 0.0
H1543 H 0.15378 0.70062 0.5581 0.0
H1544 H 0.22586 0.63925 0.70616 0.0
O1545 O 0.19787 0.70374 0.711 0.0
H1546 H 0.11321 0.56092 0.71041 0.0
H1547 H 0.09031 0.6938 0.75737 0.0
H1548 H 0.09276 0.71929 0.67549 0.0
H1549 H 0.1103 0.62401 0.69406 0.0
H1550 H 0.14538 0.67728 0.73454 0.0
O1551 O 0.24232 0.63122 0.6311 0.0
H1552 H 0.15376 0.69439 0.5996 0.0
H1553 H 0.26942 0.66937 0.59894 0.0
H1554 H 0.03701 0.73595 0.69765 0.0
H1555 H 0.22997 0.57651 0.72302 0.0
H1556 H 0.03555 0.72324 0.7389 0.0
H1557 H 0.17338 0.53681 0.72513 0.0
O1558 O 0.16354 0.73554 0.67196 0.0
H1559 H 0.3381 0.70783 0.66412 0.0
H1560 H 0.23465 0.75064 0.61579 0.0
H1561 H 0.29036 0.79021 0.62017 0.0
H1562 H 0.34262 0.76882 0.64445 0.0
H1563 H 0.28171 0.66926 0.65939 0.0
H1564 H 0.27062 0.67499 0.5574 0.0
H1565 H 0.21254 0.69089 0.53671 0.0
O1566 O 0.17938 0.72298 0.63606 0.0
C1567 C 0.13444 0.64854 0.64259 0.0
C1568 C 0.17931 0.69385 0.56693 0.0
C1569 C 0.24487 0.67941 0.56653 0.0
N1570 N 0.21162 0.68197 0.60173 0.0
C1571 C 0.1795 0.69042 0.59044 0.0
C1572 C 0.244 0.67622 0.59006 0.0
C1573 C 0.21227 0.68834 0.55493 0.0
C1574 C 0.20106 0.62225 0.70719 0.0
N1575 N 0.1679 0.63524 0.69902 0.0
C1576 C 0.20358 0.5867 0.71668 0.0
C1577 C 0.17184 0.56441 0.71782 0.0
C1578 C 0.13809 0.5779 0.70953 0.0
C1579 C 0.13664 0.61358 0.70014 0.0
C1580 C 0.0906 0.69946 0.7394 0.0
C1581 C 0.09229 0.71349 0.69341 0.0
C1582 C 0.12176 0.69026 0.72639 0.0
N1583 N 0.12226 0.69716 0.70367 0.0
C1584 C 0.06066 0.72306 0.70588 0.0
C1585 C 0.05988 0.71595 0.72903 0.0
C1586 C 0.16586 0.7445 0.65112 0.0
C1587 C 0.31556 0.7174 0.65344 0.0
C1588 C 0.25724 0.74117 0.62642 0.0
C1589 C 0.28874 0.76367 0.6288 0.0
C1590 C 0.31806 0.75164 0.64242 0.0
N1591 N 0.25506 0.70756 0.63722 0.0
C1592 C 0.28364 0.69563 0.65064 0.0
Co1593 Co 0.06967 0.41482 0.43599 0.0
Co1594 Co 0.07826 0.46041 0.38497 0.0
O1595 O 0.08305 0.45913 0.41816 0.0
C1596 C 0.02628 0.47227 0.46151 0.0
O1597 O 0.01058 0.48283 0.4425 0.0
C1598 C 0.15444 0.49162 0.39332 0.0
O1599 O 0.15828 0.4695 0.41081 0.0
O1600 O 0.10877 0.41423 0.38189 0.0
O1601 O 0.08864 0.38112 0.41162 0.0
H1602 H 0.05457 0.40482 0.30833 0.0
H1603 H 0.11582 0.47356 0.45722 0.0
O1604 O 0.05085 0.44673 0.46141 0.0
H1605 H 0.19232 0.35956 0.46048 0.0
H1606 H 0.05874 0.33812 0.50708 0.0
H1607 H 0.03387 0.34258 0.42516 0.0
H1608 H 0.1294 0.35816 0.44383 0.0
H1609 H 0.07637 0.39333 0.48468 0.0
O1610 O 0.12447 0.4916 0.38185 0.0
H1611 H 0.06059 0.40415 0.34984 0.0
H1612 H 0.08668 0.51959 0.34983 0.0
H1613 H 0.01608 0.28673 0.44688 0.0
H1614 H 0.17839 0.47613 0.4744 0.0
H1615 H 0.02848 0.28423 0.48815 0.0
H1616 H 0.21717 0.41886 0.47601 0.0
O1617 O 0.01887 0.41367 0.42214 0.0
H1618 H 0.04872 0.58766 0.41539 0.0
H1619 H 0.00509 0.48551 0.36633 0.0
H1620 H 0.96611 0.54158 0.37098 0.0
H1621 H 0.98792 0.59319 0.39562 0.0
H1622 H 0.08669 0.53093 0.41041 0.0
H1623 H 0.08127 0.52144 0.30829 0.0
H1624 H 0.06494 0.4638 0.28726 0.0
O1625 O 0.03199 0.4296 0.38636 0.0
C1626 C 0.10569 0.38368 0.39275 0.0
C1627 C 0.06154 0.43016 0.3173 0.0
C1628 C 0.07657 0.4956 0.31728 0.0
N1629 N 0.07354 0.46186 0.35229 0.0
C1630 C 0.06485 0.42998 0.34082 0.0
C1631 C 0.07964 0.49436 0.3408 0.0
C1632 C 0.0674 0.46325 0.30549 0.0
C1633 C 0.13241 0.44846 0.45803 0.0
N1634 N 0.11901 0.41577 0.44942 0.0
C1635 C 0.16788 0.45012 0.4677 0.0
C1636 C 0.18964 0.41799 0.46857 0.0
C1637 C 0.17574 0.38473 0.45982 0.0
C1638 C 0.14017 0.38414 0.45026 0.0
C1639 C 0.05322 0.33885 0.4891 0.0
C1640 C 0.03953 0.34167 0.44309 0.0
C1641 C 0.06304 0.37009 0.47633 0.0
N1642 N 0.05632 0.37114 0.4536 0.0
C1643 C 0.02932 0.30998 0.45532 0.0
C1644 C 0.03626 0.30862 0.47848 0.0
C1645 C 0.01013 0.41629 0.4013 0.0
C1646 C 0.03898 0.56542 0.40455 0.0
C1647 C 0.01474 0.50781 0.37713 0.0
C1648 C 0.99258 0.53952 0.37965 0.0
C1649 C 0.00484 0.56848 0.39347 0.0
N1650 N 0.04826 0.50508 0.38798 0.0
C1651 C 0.06042 0.5333 0.4016 0.0
Co1652 Co 0.33927 0.68481 0.32362 0.0
Co1653 Co 0.29477 0.67817 0.37512 0.0
O1654 O 0.29514 0.67296 0.34196 0.0
C1655 C 0.28309 0.73002 0.29805 0.0
O1656 O 0.27407 0.74739 0.31681 0.0
C1657 C 0.26384 0.60189 0.36787 0.0
O1658 O 0.28738 0.59713 0.35115 0.0
O1659 O 0.34043 0.64685 0.37802 0.0
O1660 O 0.37311 0.66526 0.34771 0.0
H1661 H 0.35239 0.70196 0.45119 0.0
H1662 H 0.27842 0.63991 0.30368 0.0
O1663 O 0.30719 0.70403 0.29839 0.0
H1664 H 0.39007 0.56018 0.2992 0.0
H1665 H 0.41413 0.69233 0.25166 0.0
H1666 H 0.41282 0.7187 0.33346 0.0
H1667 H 0.39397 0.62345 0.31522 0.0
H1668 H 0.35912 0.6767 0.27476 0.0
O1669 O 0.26283 0.63258 0.37861 0.0
H1670 H 0.35208 0.69529 0.40971 0.0
H1671 H 0.23623 0.67123 0.41075 0.0
H1672 H 0.46854 0.73447 0.31102 0.0
H1673 H 0.27331 0.57699 0.28717 0.0
H1674 H 0.46942 0.72132 0.26981 0.0
H1675 H 0.32939 0.53659 0.28495 0.0
O1676 O 0.34229 0.73579 0.33723 0.0
H1677 H 0.16737 0.70974 0.34568 0.0
H1678 H 0.2716 0.75211 0.39353 0.0
H1679 H 0.21622 0.79214 0.38915 0.0
H1680 H 0.16356 0.77097 0.36512 0.0
H1681 H 0.22345 0.67071 0.35039 0.0
H1682 H 0.23535 0.67729 0.45227 0.0
H1683 H 0.29369 0.69294 0.47276 0.0
O1684 O 0.32645 0.72377 0.37321 0.0
C1685 C 0.37068 0.6488 0.36678 0.0
C1686 C 0.32674 0.6953 0.44245 0.0
C1687 C 0.26107 0.68141 0.44306 0.0
N1688 N 0.29411 0.68333 0.40778 0.0
C1689 C 0.32637 0.69164 0.41895 0.0
C1690 C 0.26176 0.67796 0.41954 0.0
C1691 C 0.29381 0.69019 0.45454 0.0
C1692 C 0.30301 0.6226 0.3026 0.0
N1693 N 0.33644 0.6353 0.31051 0.0
C1694 C 0.29991 0.58695 0.29331 0.0
C1695 C 0.33137 0.56428 0.2921 0.0
C1696 C 0.36541 0.57747 0.30013 0.0
C1697 C 0.36742 0.61325 0.30933 0.0
C1698 C 0.41409 0.69818 0.26961 0.0
C1699 C 0.41303 0.71272 0.31555 0.0
C1700 C 0.38296 0.68949 0.28277 0.0
N1701 N 0.38278 0.69663 0.30547 0.0
C1702 C 0.44465 0.72178 0.30292 0.0
C1703 C 0.44511 0.71442 0.2798 0.0
C1704 C 0.34018 0.74496 0.35804 0.0
C1705 C 0.19008 0.71922 0.35625 0.0
C1706 C 0.24884 0.74274 0.383 0.0
C1707 C 0.21752 0.7655 0.38062 0.0
C1708 C 0.18798 0.75359 0.36714 0.0
N1709 N 0.25063 0.709 0.37232 0.0
C1710 C 0.22183 0.69718 0.35904 0.0
Co1711 Co 0.07039 0.59073 0.07357 0.0
Co1712 Co 0.07848 0.54553 0.12476 0.0
O1713 O 0.08344 0.54652 0.09158 0.0
C1714 C 0.02661 0.53348 0.0481 0.0
O1715 O 0.01054 0.52329 0.06707 0.0
C1716 C 0.15484 0.51471 0.11678 0.0
O1717 O 0.15891 0.53729 0.09953 0.0
O1718 O 0.10904 0.59167 0.12779 0.0
O1719 O 0.08944 0.62456 0.09784 0.0
H1720 H 0.05444 0.6017 0.2012 0.0
H1721 H 0.11633 0.53145 0.05274 0.0
O1722 O 0.05152 0.55869 0.04823 0.0
H1723 H 0.19353 0.64494 0.0491 0.0
H1724 H 0.06032 0.66679 1.00218 0.0
H1725 H 0.03495 0.66329 0.08407 0.0
H1726 H 0.13048 0.64695 0.06556 0.0
H1727 H 0.07749 0.6117 0.02482 0.0
O1728 O 0.12462 0.5143 0.12802 0.0
H1729 H 0.06068 0.60206 0.1597 0.0
H1730 H 0.08668 0.4866 0.16008 0.0
H1731 H 0.01762 0.71903 0.0621 0.0
H1732 H 0.17903 0.52825 0.03576 0.0
H1733 H 0.03027 0.72104 0.02085 0.0
H1734 H 0.21816 0.58526 0.03396 0.0
O1735 O 0.01954 0.59232 0.08734 0.0
H1736 H 0.04894 0.41805 0.09468 0.0
H1737 H 0.00516 0.52071 0.14332 0.0
H1738 H 0.96613 0.46465 0.13877 0.0
H1739 H 0.98802 0.41279 0.11435 0.0
H1740 H 0.08696 0.47477 0.09956 0.0
H1741 H 0.08105 0.48507 0.20162 0.0
H1742 H 0.06465 0.54288 0.22245 0.0
O1743 O 0.03228 0.57639 0.12318 0.0
C1744 C 0.10626 0.62211 0.11679 0.0
C1745 C 0.06143 0.57629 0.19231 0.0
C1746 C 0.07642 0.51085 0.19254 0.0
N1747 N 0.07359 0.54432 0.15743 0.0
C1748 C 0.06487 0.57629 0.1688 0.0
C1749 C 0.07961 0.51191 0.16902 0.0
C1750 C 0.06721 0.54329 0.20422 0.0
C1751 C 0.13308 0.55644 0.05185 0.0
N1752 N 0.1198 0.58933 0.06024 0.0
C1753 C 0.16861 0.55443 0.04229 0.0
C1754 C 0.19058 0.58641 0.04132 0.0
C1755 C 0.1768 0.61988 0.04984 0.0
C1756 C 0.14115 0.62082 0.05929 0.0
C1757 C 0.05469 0.66627 0.02015 0.0
C1758 C 0.04072 0.66398 0.06614 0.0
C1759 C 0.06425 0.6351 0.03306 0.0
N1760 N 0.05739 0.63431 0.05578 0.0
C1761 C 0.03077 0.69562 0.05378 0.0
C1762 C 0.03785 0.69671 0.03064 0.0
C1763 C 0.01061 0.58977 0.10816 0.0
C1764 C 0.03916 0.44041 0.10543 0.0
C1765 C 0.01485 0.49829 0.13261 0.0
C1766 C 0.99265 0.46659 0.13014 0.0
C1767 C 0.00496 0.4375 0.11644 0.0
N1768 N 0.04843 0.50088 0.12182 0.0
C1769 C 0.06063 0.47252 0.10832 0.0
Co1770 Co 0.16567 0.3216 0.82353 0.0
Co1771 Co 0.21075 0.32912 0.87479 0.0
O1772 O 0.20992 0.33411 0.84162 0.0
C1773 C 0.22232 0.27708 0.79796 0.0
O1774 O 0.23195 0.26032 0.81682 0.0
C1775 C 0.24155 0.40544 0.86703 0.0
O1776 O 0.21841 0.40982 0.85007 0.0
O1777 O 0.16485 0.36005 0.87779 0.0
O1778 O 0.13193 0.34096 0.84773 0.0
H1779 H 0.1542 0.30547 0.95117 0.0
H1780 H 0.22566 0.36701 0.80302 0.0
O1781 O 0.19764 0.30252 0.79821 0.0
H1782 H 0.113 0.44536 0.79894 0.0
H1783 H 0.08993 0.31251 0.75198 0.0
H1784 H 0.09265 0.28697 0.83385 0.0
H1785 H 0.11014 0.38225 0.81528 0.0
H1786 H 0.14508 0.329 0.77474 0.0
O1787 O 0.24233 0.37501 0.87805 0.0
H1788 H 0.15399 0.31174 0.90967 0.0
H1789 H 0.26963 0.33685 0.91015 0.0
H1790 H 0.03682 0.27035 0.81176 0.0
H1791 H 0.22972 0.42976 0.78618 0.0
H1792 H 0.03522 0.28308 0.77051 0.0
H1793 H 0.17313 0.46947 0.78416 0.0
O1794 O 0.16344 0.2707 0.83729 0.0
H1795 H 0.33807 0.29854 0.84485 0.0
H1796 H 0.23487 0.25556 0.89332 0.0
H1797 H 0.2906 0.21605 0.88883 0.0
H1798 H 0.34274 0.23753 0.86448 0.0
H1799 H 0.28166 0.33705 0.84969 0.0
H1800 H 0.27102 0.33119 0.95169 0.0
H1801 H 0.21305 0.31522 0.97247 0.0
O1802 O 0.17948 0.2832 0.87316 0.0
C1803 C 0.13445 0.35765 0.86672 0.0
C1804 C 0.17969 0.31227 0.94231 0.0
C1805 C 0.24524 0.32675 0.94259 0.0
N1806 N 0.21183 0.3242 0.90746 0.0
C1807 C 0.17977 0.31572 0.91879 0.0
C1808 C 0.24426 0.32997 0.91907 0.0
C1809 C 0.2127 0.31779 0.95425 0.0
C1810 C 0.20085 0.38401 0.80203 0.0
N1811 N 0.16772 0.37102 0.81024 0.0
C1812 C 0.20335 0.41957 0.79255 0.0
C1813 C 0.17161 0.44186 0.79146 0.0
C1814 C 0.13788 0.42838 0.79979 0.0
C1815 C 0.13646 0.39269 0.80917 0.0
C1816 C 0.09028 0.30685 0.76994 0.0
C1817 C 0.09213 0.29278 0.81593 0.0
C1818 C 0.12149 0.31602 0.78291 0.0
N1819 N 0.12206 0.30911 0.80564 0.0
C1820 C 0.06045 0.28323 0.8035 0.0
C1821 C 0.05958 0.29035 0.78035 0.0
C1822 C 0.16587 0.26171 0.85811 0.0
C1823 C 0.31559 0.28893 0.85556 0.0
C1824 C 0.2574 0.26507 0.88266 0.0
C1825 C 0.28892 0.2426 0.88021 0.0
C1826 C 0.31817 0.25468 0.86656 0.0
N1827 N 0.25515 0.29869 0.87188 0.0
C1828 C 0.28366 0.31068 0.85842 0.0
Co1829 Co 0.43654 0.41547 0.57372 0.0
Co1830 Co 0.42849 0.46091 0.62481 0.0
O1831 O 0.42351 0.45977 0.59164 0.0
C1832 C 0.48025 0.47253 0.54798 0.0
O1833 O 0.4966 0.48274 0.56686 0.0
C1834 C 0.35201 0.49136 0.61692 0.0
O1835 O 0.34783 0.46833 0.5999 0.0
O1836 O 0.39788 0.4148 0.62793 0.0
O1837 O 0.41759 0.38176 0.59808 0.0
H1838 H 0.45253 0.40509 0.70135 0.0
H1839 H 0.39044 0.47462 0.55287 0.0
O1840 O 0.45527 0.44739 0.54827 0.0
H1841 H 0.31335 0.36103 0.54955 0.0
H1842 H 0.44643 0.339 0.50249 0.0
H1843 H 0.47209 0.34301 0.58433 0.0
H1844 H 0.37649 0.35915 0.56588 0.0
H1845 H 0.42929 0.39421 0.52503 0.0
O1846 O 0.38237 0.49218 0.62801 0.0
H1847 H 0.44622 0.40452 0.65986 0.0
H1848 H 0.42039 0.52001 0.66001 0.0
H1849 H 0.48939 0.28715 0.56247 0.0
H1850 H 0.32764 0.4777 0.53603 0.0
H1851 H 0.47659 0.28488 0.52124 0.0
H1852 H 0.28856 0.42064 0.53439 0.0
O1853 O 0.48743 0.41398 0.58745 0.0
H1854 H 0.45812 0.58822 0.5945 0.0
H1855 H 0.50185 0.48573 0.64329 0.0
H1856 H 0.54095 0.54172 0.63862 0.0
H1857 H 0.51908 0.5935 0.61411 0.0
H1858 H 0.42004 0.53157 0.5995 0.0
H1859 H 0.42608 0.52176 0.70154 0.0
H1860 H 0.44243 0.46405 0.72249 0.0
O1861 O 0.47466 0.42999 0.62328 0.0
C1862 C 0.40072 0.3843 0.617 0.0
C1863 C 0.44556 0.43047 0.69242 0.0
C1864 C 0.43066 0.49593 0.69252 0.0
N1865 N 0.43339 0.46227 0.65748 0.0
C1866 C 0.44208 0.43034 0.6689 0.0
C1867 C 0.42743 0.49475 0.669 0.0
C1868 C 0.43985 0.46354 0.70426 0.0
C1869 C 0.37372 0.44961 0.55205 0.0
N1870 N 0.38709 0.41676 0.56045 0.0
C1871 C 0.33813 0.45155 0.54257 0.0
C1872 C 0.3162 0.41954 0.54168 0.0
C1873 C 0.33006 0.38611 0.55022 0.0
C1874 C 0.36576 0.38524 0.55959 0.0
C1875 C 0.45213 0.33964 0.52045 0.0
C1876 C 0.46625 0.3422 0.56641 0.0
C1877 C 0.44258 0.37088 0.53329 0.0
N1878 N 0.44952 0.3718 0.55601 0.0
C1879 C 0.47619 0.31051 0.55411 0.0
C1880 C 0.46903 0.30927 0.53098 0.0
C1881 C 0.49634 0.41654 0.60827 0.0
C1882 C 0.4679 0.5659 0.60527 0.0
C1883 C 0.49218 0.50811 0.63255 0.0
C1884 C 0.51441 0.53977 0.63001 0.0
C1885 C 0.50212 0.56882 0.61626 0.0
N1886 N 0.45858 0.50552 0.62178 0.0
C1887 C 0.44639 0.53383 0.60823 0.0
C1888 C 0.12338 0.31682 0.3969 0.0
C1889 C 0.12171 0.34883 0.38326 0.0
H1890 H 0.13843 0.25973 0.39976 0.0
C1891 C 0.13421 0.34634 0.36071 0.0
H1892 H 0.11353 0.31716 0.41419 0.0
C1893 C 0.14804 0.31246 0.35216 0.0
C1894 C 0.15024 0.28084 0.36615 0.0
H1895 H 0.13294 0.37035 0.34965 0.0
H1896 H 0.15752 0.31115 0.33479 0.0
C1897 C 0.13769 0.28357 0.38857 0.0
C1898 C 0.94341 0.89831 0.6019 0.0
C1899 C 0.97468 0.90142 0.61612 0.0
H1900 H 0.88572 0.88263 0.59915 0.0
C1901 C 0.9714 0.89024 0.63878 0.0
H1902 H 0.94512 0.90672 0.58435 0.0
C1903 C 0.93803 0.87617 0.64709 0.0
C1904 C 0.90644 0.87341 0.63316 0.0
H1905 H 0.99492 0.89176 0.6502 0.0
H1906 H 0.93729 0.86726 0.66455 0.0
C1907 C 0.90941 0.88474 0.61042 0.0
C1908 C 0.3723 0.65947 0.86011 0.0
C1909 C 0.38449 0.65683 0.88271 0.0
H1910 H 0.34916 0.69477 0.83419 0.0
C1911 C 0.38243 0.68869 0.89646 0.0
H1912 H 0.37387 0.63557 0.84898 0.0
C1913 C 0.36804 0.72193 0.88817 0.0
C1914 C 0.3558 0.72482 0.8657 0.0
H1915 H 0.39203 0.68823 0.91379 0.0
H1916 H 0.367 0.74565 0.89944 0.0
C1917 C 0.35838 0.69335 0.8516 0.0
C1918 C 0.53553 0.11527 0.13894 0.0
C1919 C 0.53206 0.10445 0.11624 0.0
H1920 H 0.56974 0.13816 0.16468 0.0
C1921 C 0.56314 0.10802 0.1019 0.0
H1922 H 0.51217 0.11338 0.15046 0.0
C1923 C 0.59713 0.12175 0.11034 0.0
C1924 C 0.60026 0.13277 0.13312 0.0
H1925 H 0.56129 0.0999 0.0843 0.0
H1926 H 0.62066 0.12425 0.09898 0.0
C1927 C 0.56887 0.1295 0.14718 0.0
C1928 C 0.14814 0.69365 0.15735 0.0
C1929 C 0.1508 0.72507 0.14322 0.0
H1930 H 0.13267 0.63587 0.16003 0.0
C1931 C 0.13881 0.72207 0.12071 0.0
H1932 H 0.15718 0.69515 0.1748 0.0
C1933 C 0.12453 0.68878 0.11242 0.0
C1934 C 0.12235 0.65698 0.12622 0.0
H1935 H 0.13994 0.74574 0.10939 0.0
H1936 H 0.11509 0.68824 0.09506 0.0
C1937 C 0.13434 0.65972 0.14885 0.0
C1938 C 0.53576 0.89146 0.37018 0.0
C1939 C 0.53226 0.9019 0.39295 0.0
H1940 H 0.56991 0.86877 0.34434 0.0
C1941 C 0.56329 0.89792 0.4073 0.0
H1942 H 0.51245 0.89367 0.35865 0.0
C1943 C 0.59722 0.88413 0.39881 0.0
C1944 C 0.60036 0.87344 0.37596 0.0
H1945 H 0.56143 0.90574 0.42494 0.0
H1946 H 0.6207 0.88129 0.41017 0.0
C1947 C 0.56904 0.87716 0.36189 0.0
C1948 C 0.3582 0.31307 0.65754 0.0
C1949 C 0.35569 0.28157 0.64347 0.0
H1950 H 0.37372 0.37084 0.66015 0.0
C1951 C 0.36808 0.28439 0.62103 0.0
H1952 H 0.34886 0.3117 0.67493 0.0
C1953 C 0.38255 0.31759 0.61274 0.0
C1954 C 0.38455 0.34949 0.62646 0.0
H1955 H 0.3671 0.26063 0.60977 0.0
H1956 H 0.39228 0.318 0.59543 0.0
C1957 C 0.37221 0.34692 0.64903 0.0
C1958 C 0.97114 0.11568 0.87061 0.0
C1959 C 0.97461 0.10474 0.8933 0.0
H1960 H 0.93686 0.1385 0.84487 0.0
C1961 C 0.94346 0.10805 0.90761 0.0
H1962 H 0.99456 0.114 0.85912 0.0
C1963 C 0.90942 0.12161 0.89915 0.0
C1964 C 0.90627 0.13273 0.87638 0.0
H1965 H 0.94531 0.09982 0.92519 0.0
H1966 H 0.88583 0.12389 0.91049 0.0
C1967 C 0.93773 0.12975 0.86236 0.0
C1968 C 0.8823 0.68934 0.61244 0.0
C1969 C 0.88379 0.65729 0.62606 0.0
H1970 H 0.86751 0.74651 0.60962 0.0
C1971 C 0.87124 0.65979 0.64859 0.0
H1972 H 0.8922 0.689 0.59517 0.0
C1973 C 0.85753 0.6937 0.65716 0.0
C1974 C 0.85552 0.72537 0.6432 0.0
H1975 H 0.87237 0.63574 0.65963 0.0
H1976 H 0.84802 0.69501 0.67452 0.0
C1977 C 0.86811 0.72264 0.62079 0.0
C1978 C 0.09692 0.12153 0.399 0.0
C1979 C 0.1 0.13248 0.37619 0.0
H1980 H 0.06117 0.09978 0.42511 0.0
C1981 C 0.06856 0.12916 0.36218 0.0
H1982 H 0.12049 0.12406 0.41033 0.0
C1983 C 0.03524 0.11496 0.37047 0.0
C1984 C 0.03184 0.10422 0.3932 0.0
H1985 H 0.06939 0.13776 0.34466 0.0
H1986 H 0.01184 0.11303 0.35899 0.0
C1987 C 0.06296 0.10784 0.4075 0.0
C1988 C 0.62304 0.317 0.11258 0.0
C1989 C 0.62167 0.34909 0.12617 0.0
H1990 H 0.63791 0.25986 0.10974 0.0
C1991 C 0.63448 0.34666 0.14866 0.0
H1992 H 0.61293 0.31729 0.09535 0.0
C1993 C 0.64837 0.31279 0.1572 0.0
C1994 C 0.6503 0.28111 0.14324 0.0
H1995 H 0.63345 0.37073 0.15968 0.0
H1996 H 0.65812 0.31154 0.17451 0.0
C1997 C 0.6374 0.28376 0.1209 0.0
C1998 C 0.4423 0.89816 0.90732 0.0
C1999 C 0.47334 0.90225 0.893 0.0
H2000 H 0.38494 0.88134 0.91016 0.0
C2001 C 0.46994 0.8918 0.87023 0.0
H2002 H 0.44409 0.90597 0.92497 0.0
C2003 C 0.43673 0.87738 0.86191 0.0
C2004 C 0.40539 0.87356 0.87596 0.0
H2005 H 0.49327 0.89409 0.85872 0.0
H2006 H 0.43592 0.869 0.84436 0.0
C2007 C 0.40844 0.88426 0.89881 0.0
C2008 C 0.88265 0.31682 0.89702 0.0
C2009 C 0.88398 0.3489 0.88342 0.0
H2010 H 0.86795 0.25963 0.89985 0.0
C2011 C 0.87125 0.34644 0.86093 0.0
H2012 H 0.89269 0.31714 0.91426 0.0
C2013 C 0.85749 0.31252 0.85237 0.0
C2014 C 0.85563 0.28083 0.86633 0.0
H2015 H 0.87225 0.3705 0.8499 0.0
H2016 H 0.84782 0.31124 0.83505 0.0
C2017 C 0.86843 0.28353 0.88869 0.0
C2018 C 0.40843 0.12188 0.6105 0.0
C2019 C 0.4054 0.13292 0.63329 0.0
H2020 H 0.44409 0.09979 0.58445 0.0
C2021 C 0.43678 0.12941 0.64733 0.0
H2022 H 0.38491 0.12456 0.59915 0.0
C2023 C 0.47 0.11492 0.63908 0.0
C2024 C 0.47337 0.10409 0.61637 0.0
H2025 H 0.43599 0.13806 0.66484 0.0
H2026 H 0.49336 0.11286 0.65059 0.0
C2027 C 0.44231 0.10791 0.60204 0.0
C2028 C 0.63682 0.72215 0.38793 0.0
C2029 C 0.64973 0.72483 0.36559 0.0
H2030 H 0.6124 0.68858 0.41347 0.0
C2031 C 0.64779 0.69318 0.35162 0.0
H2032 H 0.63735 0.74603 0.3991 0.0
C2033 C 0.63391 0.65929 0.36014 0.0
C2034 C 0.62113 0.65682 0.38263 0.0
H2035 H 0.65755 0.69445 0.33431 0.0
H2036 H 0.63288 0.63523 0.34911 0.0
C2037 C 0.62248 0.6889 0.39624 0.0
C2038 C 0.06877 0.8767 0.14704 0.0
C2039 C 0.10025 0.87345 0.13306 0.0
H2040 H 0.01204 0.89282 0.1502 0.0
C2041 C 0.09724 0.88451 0.11027 0.0
H2042 H 0.06954 0.86802 0.16455 0.0
C2043 C 0.06331 0.89825 0.10176 0.0
C2044 C 0.03215 0.90181 0.11603 0.0
H2045 H 0.12084 0.88203 0.09896 0.0
H2046 H 0.06156 0.9064 0.08416 0.0
C2047 C 0.03548 0.89095 0.13874 0.0
C2048 C 0.64795 0.81336 0.85196 0.0
C2049 C 0.64991 0.78168 0.86591 0.0
H2050 H 0.63289 0.87127 0.84947 0.0
C2051 C 0.6369 0.78427 0.88823 0.0
H2052 H 0.65779 0.81215 0.83466 0.0
C2053 C 0.62242 0.81746 0.89653 0.0
C2054 C 0.62104 0.84956 0.88295 0.0
H2055 H 0.63743 0.76036 0.89938 0.0
H2056 H 0.61225 0.8177 0.91375 0.0
C2057 C 0.63393 0.84719 0.86048 0.0
C2058 C 0.44287 0.3982 0.10201 0.0
C2059 C 0.474 0.40203 0.11628 0.0
H2060 H 0.38539 0.38175 0.09926 0.0
C2061 C 0.47064 0.3915 0.13905 0.0
H2062 H 0.44462 0.40609 0.08437 0.0
C2063 C 0.43737 0.37727 0.1474 0.0
C2064 C 0.40594 0.37371 0.13341 0.0
H2065 H 0.49404 0.3936 0.15052 0.0
H2066 H 0.43659 0.36882 0.16495 0.0
C2067 C 0.40896 0.38447 0.11057 0.0
C2068 C 0.88207 0.18872 0.39693 0.0
C2069 C 0.88394 0.15678 0.38324 0.0
H2070 H 0.86688 0.24577 0.39982 0.0
C2071 C 0.87163 0.15935 0.36066 0.0
H2072 H 0.89177 0.18832 0.41424 0.0
C2073 C 0.8578 0.19323 0.35211 0.0
C2074 C 0.85543 0.22479 0.36614 0.0
H2075 H 0.87305 0.13539 0.34957 0.0
H2076 H 0.8485 0.1946 0.33471 0.0
C2077 C 0.86776 0.22198 0.38859 0.0
C2078 C 0.09664 0.6212 0.61042 0.0
C2079 C 0.09966 0.63225 0.63321 0.0
H2080 H 0.06091 0.59948 0.5843 0.0
C2081 C 0.06815 0.62913 0.64718 0.0
H2082 H 0.12026 0.62358 0.59913 0.0
C2083 C 0.03481 0.61502 0.63887 0.0
C2084 C 0.03146 0.6042 0.61615 0.0
H2085 H 0.06893 0.63782 0.66469 0.0
H2086 H 0.01134 0.61324 0.65031 0.0
C2087 C 0.06266 0.60761 0.6019 0.0
C2088 C 0.62286 0.18826 0.61293 0.0
C2089 C 0.62114 0.1563 0.62662 0.0
H2090 H 0.6381 0.24528 0.60999 0.0
C2091 C 0.6337 0.15882 0.64914 0.0
H2092 H 0.61296 0.1879 0.59566 0.0
C2093 C 0.6477 0.19267 0.65764 0.0
C2094 C 0.64998 0.22423 0.6436 0.0
H2095 H 0.63239 0.13484 0.66023 0.0
H2096 H 0.65725 0.194 0.67499 0.0
C2097 C 0.63732 0.22148 0.62121 0.0
C2098 C 0.06816 0.37706 0.86221 0.0
C2099 C 0.09971 0.37393 0.87615 0.0
H2100 H 0.01135 0.39295 0.85914 0.0
C2101 C 0.09676 0.38498 0.89894 0.0
H2102 H 0.06888 0.36837 0.84471 0.0
C2103 C 0.0628 0.39858 0.9075 0.0
C2104 C 0.03156 0.40201 0.89328 0.0
H2105 H 0.12041 0.3826 0.91021 0.0
H2106 H 0.0611 0.40673 0.9251 0.0
C2107 C 0.03484 0.39117 0.87057 0.0
C2108 C 0.87183 0.84667 0.14856 0.0
C2109 C 0.88436 0.84922 0.12602 0.0
H2110 H 0.84845 0.81143 0.17443 0.0
C2111 C 0.8827 0.81725 0.11235 0.0
H2112 H 0.87308 0.87066 0.15964 0.0
C2113 C 0.86836 0.78399 0.12065 0.0
C2114 C 0.85577 0.7812 0.14305 0.0
H2115 H 0.89257 0.81764 0.09507 0.0
H2116 H 0.86763 0.76018 0.10942 0.0
C2117 C 0.85795 0.81278 0.15707 0.0
C2118 C 0.46997 0.61423 0.37018 0.0
C2119 C 0.47357 0.60379 0.39295 0.0
H2120 H 0.4357 0.63691 0.3444 0.0
C2121 C 0.44261 0.60776 0.40735 0.0
H2122 H 0.49323 0.61202 0.35861 0.0
C2123 C 0.40864 0.62155 0.39892 0.0
C2124 C 0.4054 0.63224 0.37608 0.0
H2125 H 0.44454 0.59994 0.42499 0.0
H2126 H 0.38521 0.62439 0.41033 0.0
C2127 C 0.43665 0.62853 0.36196 0.0
C2128 C 0.37201 0.15974 0.14912 0.0
C2129 C 0.38441 0.15721 0.12656 0.0
H2130 H 0.3488 0.19498 0.17505 0.0
C2131 C 0.3827 0.1892 0.1129 0.0
H2132 H 0.37332 0.13575 0.1602 0.0
C2133 C 0.36844 0.22246 0.12123 0.0
C2134 C 0.35597 0.22523 0.14366 0.0
H2135 H 0.39248 0.18882 0.0956 0.0
H2136 H 0.36765 0.24628 0.11002 0.0
C2137 C 0.35821 0.19364 0.15768 0.0
C2138 C 0.56335 0.60836 0.90739 0.0
C2139 C 0.53234 0.60457 0.89303 0.0
H2140 H 0.62078 0.62489 0.91035 0.0
C2141 C 0.53583 0.61534 0.87031 0.0
H2142 H 0.56148 0.60028 0.925 0.0
C2143 C 0.56912 0.62971 0.86209 0.0
C2144 C 0.60045 0.6332 0.87617 0.0
H2145 H 0.51251 0.61329 0.85877 0.0
H2146 H 0.56999 0.63832 0.84458 0.0
C2147 C 0.59729 0.62223 0.89897 0.0
C2148 C 0.14821 0.81209 0.65725 0.0
C2149 C 0.15056 0.78057 0.64319 0.0
H2150 H 0.13314 0.86998 0.65983 0.0
C2151 C 0.13841 0.7835 0.62071 0.0
H2152 H 0.15738 0.81064 0.67467 0.0
C2153 C 0.12428 0.81684 0.61238 0.0
C2154 C 0.12242 0.84874 0.62611 0.0
H2155 H 0.1393 0.75975 0.60945 0.0
H2156 H 0.1147 0.81734 0.59504 0.0
C2157 C 0.13456 0.84606 0.64871 0.0
C2158 C 0.97064 0.39056 0.37055 0.0
C2159 C 0.97394 0.40146 0.39325 0.0
H2160 H 0.9366 0.36759 0.34475 0.0
C2161 C 0.94275 0.39797 0.40751 0.0
H2162 H 0.9941 0.39238 0.3591 0.0
C2163 C 0.90882 0.38425 0.39899 0.0
C2164 C 0.90584 0.37314 0.37621 0.0
H2165 H 0.94447 0.40616 0.42509 0.0
H2166 H 0.88519 0.38183 0.41028 0.0
C2167 C 0.93735 0.37633 0.36224 0.0
C2168 C 0.35784 0.81254 0.35187 0.0
C2169 C 0.35602 0.78086 0.36583 0.0
H2170 H 0.3727 0.8705 0.34937 0.0
C2171 C 0.36908 0.78349 0.38813 0.0
H2172 H 0.34797 0.8113 0.33459 0.0
C2173 C 0.38346 0.81673 0.39643 0.0
C2174 C 0.3847 0.84884 0.38284 0.0
H2175 H 0.36865 0.75958 0.39928 0.0
H2176 H 0.39367 0.81701 0.41363 0.0
C2177 C 0.37177 0.84642 0.36038 0.0
C2178 C 0.94328 0.60811 0.10176 0.0
C2179 C 0.97438 0.60467 0.11609 0.0
H2180 H 0.88572 0.62419 0.09884 0.0
C2181 C 0.97091 0.61563 0.13878 0.0
H2182 H 0.94512 0.59988 0.08418 0.0
C2183 C 0.93755 0.62983 0.147 0.0
C2184 C 0.90613 0.63295 0.13295 0.0
H2185 H 0.9943 0.61384 0.15028 0.0
H2186 H 0.93668 0.63858 0.16449 0.0
C2187 C 0.90927 0.62181 0.11019 0.0
C2188 C 0.13851 0.22271 0.88855 0.0
C2189 C 0.15057 0.22565 0.86605 0.0
H2190 H 0.11485 0.18888 0.91424 0.0
C2191 C 0.14812 0.19415 0.85198 0.0
H2192 H 0.13947 0.24645 0.89982 0.0
C2193 C 0.13446 0.1602 0.86053 0.0
C2194 C 0.1224 0.15751 0.88315 0.0
H2195 H 0.15722 0.19561 0.83455 0.0
H2196 H 0.13296 0.13629 0.8494 0.0
C2197 C 0.12437 0.18939 0.89689 0.0
C2198 C 0.56355 0.39767 0.60192 0.0
C2199 C 0.53249 0.4015 0.61625 0.0
H2200 H 0.62097 0.38106 0.59904 0.0
C2201 C 0.53589 0.39072 0.63898 0.0
H2202 H 0.56176 0.40575 0.58432 0.0
C2203 C 0.56914 0.3763 0.64723 0.0
C2204 C 0.60051 0.37278 0.63319 0.0
H2205 H 0.51254 0.3928 0.65048 0.0
H2206 H 0.56994 0.36769 0.66475 0.0
C2207 C 0.59745 0.38375 0.61039 0.0
C2208 C 0.27827 0.28269 0.25382 0.0
C2209 C 0.2675 0.2647 0.23367 0.0
H2210 H 0.27294 0.28578 0.28987 0.0
C2211 C 0.2422 0.23493 0.23502 0.0
H2212 H 0.29775 0.30572 0.25348 0.0
C2213 C 0.22807 0.22344 0.25596 0.0
C2214 C 0.23883 0.24143 0.27612 0.0
H2215 H 0.23339 0.22034 0.21991 0.0
H2216 H 0.20858 0.2004 0.2563 0.0
C2217 C 0.26413 0.27119 0.27477 0.0
C2218 C 0.03199 0.97673 0.50559 0.0
C2219 C 0.01511 0.98855 0.52589 0.0
H2220 H 0.03405 0.98127 0.46948 0.0
C2221 C 0.98631 0.01497 0.52472 0.0
H2222 H 0.05425 0.95636 0.50579 0.0
C2223 C 0.97467 0.02917 0.50382 0.0
C2224 C 0.99154 0.01734 0.48353 0.0
H2225 H 0.9726 0.02463 0.53994 0.0
H2226 H 0.9524 0.04954 0.50363 0.0
C2227 C 0.02034 0.99092 0.4847 0.0
C2228 C 0.22781 0.72291 0.75347 0.0
C2229 C 0.23864 0.74086 0.73331 0.0
H2230 H 0.23306 0.71986 0.78952 0.0
C2231 C 0.26399 0.77058 0.73465 0.0
H2232 H 0.20829 0.69991 0.75313 0.0
C2233 C 0.2781 0.78209 0.7556 0.0
C2234 C 0.26726 0.76415 0.77576 0.0
H2235 H 0.27285 0.78514 0.71954 0.0
H2236 H 0.29762 0.80509 0.75593 0.0
C2237 C 0.24193 0.73441 0.77441 0.0
C2238 C 0.51949 0.99095 0.02473 0.0
C2239 C 0.4909 0.01759 0.02597 0.0
H2240 H 0.55306 0.95621 1.00355 0.0
C2241 C 0.47407 0.02964 0.00571 0.0
H2242 H 0.53316 0.98111 0.03992 0.0
C2243 C 0.48555 0.01546 0.98478 0.0
C2244 C 0.51414 0.98882 0.98355 0.0
H2245 H 0.45197 0.05019 0.00596 0.0
H2246 H 0.47188 0.0253 0.96959 0.0
C2247 C 0.53096 0.97676 1.0038 0.0
C2248 C 0.24217 0.7717 0.27446 0.0
C2249 C 0.26706 0.7416 0.27594 0.0
H2250 H 0.209 0.80641 0.25303 0.0
C2251 C 0.27755 0.7232 0.25587 0.0
H2252 H 0.23359 0.78661 0.2895 0.0
C2253 C 0.26356 0.73463 0.23487 0.0
C2254 C 0.23867 0.76472 0.23339 0.0
H2255 H 0.29671 0.6999 0.2563 0.0
H2256 H 0.27215 0.71972 0.21983 0.0
C2257 C 0.22817 0.78312 0.25347 0.0
C2258 C 0.47405 0.97647 0.50372 0.0
C2259 C 0.49113 0.98838 0.48351 0.0
H2260 H 0.4716 0.98088 0.53983 0.0
C2261 C 0.51988 0.01483 0.48482 0.0
H2262 H 0.45182 0.95607 0.50341 0.0
C2263 C 0.53129 0.02896 0.50577 0.0
C2264 C 0.51422 0.01705 0.52599 0.0
H2265 H 0.53374 0.02456 0.46966 0.0
H2266 H 0.55353 0.04935 0.50608 0.0
C2267 C 0.48546 0.99061 0.52468 0.0
C2268 C 0.26381 0.23575 0.77453 0.0
C2269 C 0.23842 0.26544 0.77588 0.0
H2270 H 0.29746 0.20128 0.75324 0.0
C2271 C 0.22753 0.28336 0.75573 0.0
H2272 H 0.27272 0.22122 0.78964 0.0
C2273 C 0.24163 0.27187 0.73478 0.0
C2274 C 0.26701 0.24218 0.73342 0.0
H2275 H 0.20797 0.30633 0.75607 0.0
H2276 H 0.23272 0.2864 0.71966 0.0
C2277 C 0.2779 0.22426 0.75358 0.0
C2278 C 0.98658 0.99114 0.98455 0.0
C2279 C 0.01529 0.01766 0.98341 0.0
H2280 H 0.95274 0.95646 0.00562 0.0
C2281 C 0.03207 0.02955 1.00371 0.0
H2282 H 0.97294 0.98143 0.96932 0.0
C2283 C 0.02042 0.01533 0.0246 0.0
C2284 C 0.99171 0.98881 0.02574 0.0
H2285 H 0.05426 0.05 1.00353 0.0
H2286 H 0.03406 0.02504 0.03983 0.0
C2287 C 0.97493 0.97691 0.00544 0.0
C2288 C 0.74233 0.73535 0.73491 0.0
C2289 C 0.76748 0.76523 0.73345 0.0
H2290 H 0.70892 0.70084 0.75631 0.0
C2291 C 0.77816 0.78347 0.75354 0.0
H2292 H 0.73359 0.72057 0.71985 0.0
C2293 C 0.76409 0.7721 0.77453 0.0
C2294 C 0.73895 0.74221 0.77599 0.0
H2295 H 0.79752 0.8066 0.75312 0.0
H2296 H 0.77283 0.78688 0.78958 0.0
C2297 C 0.72828 0.72397 0.75589 0.0
C2298 C 0.76404 0.27143 0.2348 0.0
C2299 C 0.73897 0.24148 0.23331 0.0
H2300 H 0.79737 0.30595 0.25624 0.0
C2301 C 0.72834 0.22315 0.25338 0.0
H2302 H 0.77274 0.28627 0.21976 0.0
C2303 C 0.74236 0.2345 0.27438 0.0
C2304 C 0.76743 0.26444 0.27587 0.0
H2305 H 0.70904 0.19997 0.25294 0.0
H2306 H 0.73366 0.21965 0.28942 0.0
C2307 C 0.77807 0.28277 0.25579 0.0
C2308 C 0.7422 0.27102 0.77466 0.0
C2309 C 0.76717 0.24099 0.77618 0.0
H2310 H 0.70894 0.30557 0.75319 0.0
C2311 C 0.77768 0.22254 0.75613 0.0
H2312 H 0.73358 0.28596 0.78968 0.0
C2313 C 0.76365 0.23384 0.73513 0.0
C2314 C 0.73869 0.26387 0.73361 0.0
H2315 H 0.79691 0.19929 0.7566 0.0
H2316 H 0.77226 0.21889 0.72011 0.0
C2317 C 0.72816 0.28232 0.75366 0.0
C2318 C 0.76354 0.73432 0.27415 0.0
C2319 C 0.73859 0.76436 0.27565 0.0
H2320 H 0.79683 0.69973 0.25272 0.0
C2321 C 0.7281 0.78279 0.25558 0.0
H2322 H 0.77213 0.71939 0.28919 0.0
C2323 C 0.74216 0.77145 0.23459 0.0
C2324 C 0.76712 0.74142 0.2331 0.0
H2325 H 0.70889 0.80604 0.25602 0.0
H2326 H 0.73358 0.78638 0.21955 0.0
C2327 C 0.77761 0.72298 0.25316 0.0
C2328 C 0.53171 0.47669 0.00541 0.0
C2329 C 0.51468 0.48854 0.02565 0.0
H2330 H 0.53406 0.4812 0.9693 0.0
C2331 C 0.48591 0.51499 0.02439 0.0
H2332 H 0.55395 0.4563 0.00568 0.0
C2333 C 0.47444 0.52917 1.00345 0.0
C2334 C 0.49147 0.51732 0.98321 0.0
H2335 H 0.47209 0.52467 0.03957 0.0
H2336 H 0.4522 0.54956 1.00319 0.0
C2337 C 0.52024 0.49088 0.98448 0.0
C2338 C 0.98604 0.51532 0.48461 0.0
C2339 C 0.01444 0.48846 0.48352 0.0
H2340 H 0.95244 0.55032 0.50561 0.0
C2341 C 0.03089 0.47629 0.50386 0.0
H2342 H 0.97267 0.52526 0.46934 0.0
C2343 C 0.01923 0.49057 0.52473 0.0
C2344 C 0.99083 0.51744 0.52582 0.0
H2345 H 0.05284 0.45558 0.50373 0.0
H2346 H 0.03261 0.48063 0.53999 0.0
C2347 C 0.97438 0.52961 0.50547 0.0
C2348 C 0.03154 0.52923 0.00576 0.0
C2349 C 0.01477 0.51733 0.02607 0.0
H2350 H 0.03347 0.52476 0.96964 0.0
C2351 C 0.98602 0.49085 0.02493 0.0
H2352 H 0.05375 0.54965 0.00593 0.0
C2353 C 0.97434 0.47665 1.00404 0.0
C2354 C 0.99111 0.48855 0.98374 0.0
H2355 H 0.97239 0.48113 0.04017 0.0
H2356 H 0.95213 0.45622 1.00387 0.0
C2357 C 0.01984 0.51505 0.98488 0.0
C2358 C 0.53209 0.52906 0.50358 0.0
C2359 C 0.51492 0.51725 0.48338 0.0
H2360 H 0.53462 0.52458 0.53969 0.0
C2361 C 0.48607 0.4909 0.48471 0.0
H2362 H 0.5544 0.54938 0.50326 0.0
C2363 C 0.47466 0.47678 0.50567 0.0
C2364 C 0.49183 0.48859 0.52588 0.0
H2365 H 0.47213 0.48125 0.46957 0.0
H2366 H 0.45235 0.45647 0.50599 0.0
C2367 C 0.52069 0.51493 0.52455 0.0
C2368 C 0.28634 0.05043 0.35734 0.0
C2369 C 0.2678 0.07131 0.37394 0.0
H2370 H 0.3282 0.00924 0.35042 0.0
C2371 C 0.2757 0.06449 0.39686 0.0
H2372 H 0.2809 0.05534 0.33958 0.0
C2373 C 0.30174 0.03727 0.40309 0.0
C2374 C 0.32132 0.01742 0.38647 0.0
H2375 H 0.26173 0.08028 0.40998 0.0
H2376 H 0.30756 0.03273 0.42084 0.0
C2377 C 0.31339 0.02421 0.36355 0.0
C2378 C 0.20419 0.03822 0.60616 0.0
C2379 C 0.18502 0.01788 0.62274 0.0
H2380 H 0.24366 0.08174 0.59935 0.0
C2381 C 0.19315 0.02437 0.64567 0.0
H2382 H 0.1982 0.03392 0.5884 0.0
C2383 C 0.22 0.05077 0.65191 0.0
C2384 C 0.23812 0.07212 0.63536 0.0
H2385 H 0.17866 0.00903 0.65877 0.0
H2386 H 0.22562 0.05544 0.66968 0.0
C2387 C 0.23001 0.0656 0.61243 0.0
C2388 C 0.23006 0.94073 0.89676 0.0
C2389 C 0.23815 0.93422 0.87383 0.0
H2390 H 0.19825 0.97239 0.92081 0.0
C2391 C 0.22002 0.95559 0.85729 0.0
H2392 H 0.24372 0.92458 0.90983 0.0
C2393 C 0.19316 0.98198 0.86355 0.0
C2394 C 0.18504 0.98845 0.88647 0.0
H2395 H 0.22562 0.95094 0.83952 0.0
H2396 H 0.17865 0.99732 0.85046 0.0
C2397 C 0.20423 0.9681 0.90305 0.0
C2398 C 0.28636 0.95566 0.15214 0.0
C2399 C 0.26778 0.9349 0.13551 0.0
H2400 H 0.32825 0.99679 0.15913 0.0
C2401 C 0.27562 0.94187 0.1126 0.0
H2402 H 0.28097 0.95062 0.1699 0.0
C2403 C 0.30164 0.96914 0.10642 0.0
C2404 C 0.32127 0.98886 0.12307 0.0
H2405 H 0.26163 0.92617 0.09946 0.0
H2406 H 0.30742 0.9738 0.08867 0.0
C2407 C 0.3134 0.98192 0.14598 0.0
C2408 C 0.73067 0.94237 0.61286 0.0
C2409 C 0.73813 0.93502 0.63578 0.0
H2410 H 0.69895 0.97438 0.58893 0.0
C2411 C 0.71892 0.95519 0.65242 0.0
H2412 H 0.74514 0.92712 0.59972 0.0
C2413 C 0.69166 0.98121 0.64625 0.0
C2414 C 0.68417 0.98852 0.62334 0.0
H2415 H 0.724 0.94984 0.67018 0.0
H2416 H 0.67635 0.99561 0.6594 0.0
C2417 C 0.70441 0.96941 0.60669 0.0
C2418 C 0.80219 0.96743 0.40333 0.0
C2419 C 0.82141 0.98777 0.38677 0.0
H2420 H 0.76255 0.92404 0.4101 0.0
C2421 C 0.81322 0.98141 0.36384 0.0
H2422 H 0.80822 0.97164 0.42109 0.0
C2423 C 0.78625 0.95514 0.35757 0.0
C2424 C 0.76807 0.9338 0.3741 0.0
H2425 H 0.82775 0.99675 0.35076 0.0
H2426 H 0.78059 0.95058 0.3398 0.0
C2427 C 0.77625 0.94018 0.39703 0.0
C2428 C 0.77604 0.06508 0.11218 0.0
C2429 C 0.76806 0.07176 0.1351 0.0
H2430 H 0.80794 0.03342 0.08817 0.0
C2431 C 0.78649 0.05074 0.15168 0.0
H2432 H 0.76215 0.08098 0.09908 0.0
C2433 C 0.81353 0.02452 0.14545 0.0
C2434 C 0.82154 0.01786 0.12253 0.0
H2435 H 0.78099 0.05555 0.16945 0.0
H2436 H 0.82826 0.00944 0.15857 0.0
C2437 C 0.80205 0.03786 0.10593 0.0
C2438 C 0.7041 0.03728 0.90335 0.0
C2439 C 0.68432 0.01768 0.88671 0.0
H2440 H 0.74441 0.07998 0.9103 0.0
C2441 C 0.69221 0.02458 0.8638 0.0
H2442 H 0.69832 0.03264 0.92111 0.0
C2443 C 0.71941 0.05067 0.85762 0.0
C2444 C 0.73814 0.07131 0.87425 0.0
H2445 H 0.67726 0.0098 0.85065 0.0
H2446 H 0.7248 0.05568 0.83986 0.0
C2447 C 0.73029 0.06437 0.89716 0.0
C2448 C 0.77628 0.56637 0.89744 0.0
C2449 C 0.76789 0.57252 0.87451 0.0
H2450 H 0.80832 0.53502 0.92153 0.0
C2451 C 0.78573 0.55082 0.85802 0.0
H2452 H 0.76284 0.58277 0.91048 0.0
C2453 C 0.81258 0.52445 0.8643 0.0
C2454 C 0.821 0.51833 0.88723 0.0
H2455 H 0.77989 0.55518 0.84025 0.0
H2456 H 0.82686 0.50884 0.85124 0.0
C2457 C 0.80211 0.53902 0.90377 0.0
C2458 C 0.72 0.55059 0.1515 0.0
C2459 C 0.73835 0.57166 0.13491 0.0
H2460 H 0.67828 0.50926 0.15843 0.0
C2461 C 0.73028 0.56502 0.112 0.0
H2462 H 0.72557 0.55537 0.16927 0.0
C2463 C 0.70425 0.53779 0.10577 0.0
C2464 C 0.68485 0.51776 0.12239 0.0
H2465 H 0.74411 0.58094 0.09889 0.0
H2466 H 0.69829 0.53339 0.08802 0.0
C2467 C 0.69295 0.52437 0.1453 0.0
C2468 C 0.71941 0.4552 0.35709 0.0
C2469 C 0.73806 0.43446 0.37371 0.0
H2470 H 0.67745 0.49627 0.35012 0.0
C2471 C 0.73025 0.44144 0.39663 0.0
H2472 H 0.72478 0.45016 0.33933 0.0
C2473 C 0.7042 0.46866 0.40282 0.0
C2474 C 0.68451 0.48837 0.38618 0.0
H2475 H 0.7443 0.42576 0.40976 0.0
H2476 H 0.69846 0.47333 0.42057 0.0
C2477 C 0.69235 0.48142 0.36326 0.0
C2478 C 0.80222 0.46683 0.6057 0.0
C2479 C 0.82098 0.48766 0.62223 0.0
H2480 H 0.76308 0.42297 0.59901 0.0
C2481 C 0.81248 0.48164 0.64516 0.0
H2482 H 0.80851 0.47076 0.58795 0.0
C2483 C 0.78565 0.45524 0.65145 0.0
C2484 C 0.76793 0.43342 0.63497 0.0
H2485 H 0.82665 0.49735 0.65822 0.0
H2486 H 0.77974 0.45096 0.66922 0.0
C2487 C 0.77642 0.43946 0.61204 0.0
C2488 C 0.2045 0.46872 0.10657 0.0
C2489 C 0.18485 0.48856 0.12316 0.0
H2490 H 0.24453 0.42571 0.09972 0.0
C2491 C 0.19268 0.48175 0.14609 0.0
H2492 H 0.19876 0.47329 0.0888 0.0
C2493 C 0.2197 0.45552 0.15233 0.0
C2494 C 0.23831 0.43465 0.13575 0.0
H2495 H 0.17781 0.4967 0.1592 0.0
H2496 H 0.22507 0.45058 0.1701 0.0
C2497 C 0.2305 0.44149 0.11282 0.0
C2498 C 0.30138 0.46987 0.90246 0.0
C2499 C 0.32158 0.48904 0.88582 0.0
H2500 H 0.26074 0.42749 0.90943 0.0
C2501 C 0.3141 0.48174 0.8629 0.0
H2502 H 0.30683 0.47483 0.92022 0.0
C2503 C 0.28689 0.45567 0.85673 0.0
C2504 C 0.26773 0.43544 0.87337 0.0
H2505 H 0.32938 0.49619 0.84976 0.0
H2506 H 0.28181 0.45032 0.83897 0.0
C2507 C 0.27518 0.44279 0.89629 0.0
C2508 C 0.30159 0.5365 0.60666 0.0
C2509 C 0.32185 0.51736 0.62329 0.0
H2510 H 0.26086 0.57882 0.59973 0.0
C2511 C 0.31441 0.52466 0.64621 0.0
H2512 H 0.30701 0.53155 0.5889 0.0
C2513 C 0.28717 0.55069 0.65241 0.0
C2514 C 0.26794 0.57088 0.63578 0.0
H2515 H 0.32974 0.51023 0.65934 0.0
H2516 H 0.28213 0.55602 0.67017 0.0
C2517 C 0.27536 0.56355 0.61286 0.0
C2518 C 0.19266 0.52424 0.36404 0.0
C2519 C 0.18441 0.51785 0.38696 0.0
H2520 H 0.22534 0.5551 0.34004 0.0
C2521 C 0.20355 0.5382 0.40355 0.0
H2522 H 0.17819 0.50889 0.35094 0.0
C2523 C 0.2295 0.56548 0.39728 0.0
C2524 C 0.23774 0.57188 0.37436 0.0
H2525 H 0.19747 0.53398 0.4213 0.0
H2526 H 0.24314 0.58162 0.41036 0.0
C2527 C 0.21963 0.55053 0.35781 0.0
loop_
_geom_bond_atom_site_label_1
_geom_bond_atom_site_label_2
_geom_bond_distance
_geom_bond_site_symmetry_2
_ccdc_geom_bond_type
Co0 O2 2.143 . S
Co0 O8 2.074 . S
Co0 O11 2.093 . S
Co0 O24 2.097 . S
Co0 N41 2.151 . S
Co0 N49 2.214 . S
Co1 O2 2.160 . S
Co1 O7 2.058 . S
Co1 O17 2.057 . S
Co1 O32 2.037 . S
Co1 N36 2.145 . S
Co1 N57 2.257 . S
O2 Co0 2.143 . S
O2 Co1 2.160 . S
C3 O4 1.278 . S
C3 O11 1.224 . S
O4 C3 1.278 . S
C5 O6 1.245 . S
C5 O17 1.232 . S
O6 C5 1.245 . S
O7 Co1 2.058 . S
O7 C33 1.269 . S
O8 Co0 2.074 . S
O8 C33 1.257 . S
H9 C34 0.930 . S
H10 C40 0.930 . S
O11 Co0 2.093 . S
O11 C3 1.224 . S
H12 C44 0.929 . S
H13 C46 0.930 . S
H14 C47 0.930 . S
H15 C45 0.929 . S
H16 C48 0.928 . S
O17 Co1 2.057 . S
O17 C5 1.232 . S
H18 C37 0.929 . S
H19 C38 0.929 . S
H20 C50 0.931 . S
H21 C42 0.929 . S
H22 C51 0.930 . S
H23 C43 0.931 . S
O24 Co0 2.097 . S
O24 C52 1.214 . S
H25 C53 0.929 . S
H26 C54 0.929 . S
H27 C55 0.930 . S
H28 C56 0.929 . S
H29 C58 0.930 . S
H30 C35 0.930 . S
H31 C39 0.930 . S
O32 Co1 2.037 . S
O32 C52 1.234 . S
C33 O7 1.269 . S
C33 O8 1.257 . S
C34 H9 0.930 . S
C34 C37 1.388 . S
C34 C39 1.418 . S
C35 H30 0.930 . S
C35 C38 1.404 . S
C35 C39 1.353 . S
N36 Co1 2.145 . S
N36 C37 1.397 . S
N36 C38 1.334 . S
C37 H18 0.929 . S
C37 C34 1.388 . S
C37 N36 1.397 . S
C38 H19 0.929 . S
C38 C35 1.404 . S
C38 N36 1.334 . S
C39 H31 0.930 . S
C39 C34 1.418 . S
C39 C35 1.353 . S
C40 H10 0.930 . S
C40 N41 1.330 . S
C40 C42 1.446 . S
N41 Co0 2.151 . S
N41 C40 1.330 . S
N41 C45 1.418 . S
C42 H21 0.929 . S
C42 C40 1.446 . S
C42 C43 1.332 . S
C43 H23 0.931 . S
C43 C42 1.332 . S
C43 C44 1.267 . S
C44 H12 0.929 . S
C44 C43 1.267 . S
C44 C45 1.251 . S
C45 H15 0.929 . S
C45 N41 1.418 . S
C45 C44 1.251 . S
C46 H13 0.930 . S
C46 C48 1.406 . S
C46 C51 1.261 . S
C47 H14 0.930 . S
C47 N49 1.325 . S
C47 C50 1.357 . S
C48 H16 0.928 . S
C48 C46 1.406 . S
C48 N49 1.261 . S
N49 Co0 2.214 . S
N49 C47 1.325 . S
N49 C48 1.261 . S
C50 H20 0.931 . S
C50 C47 1.357 . S
C50 C51 1.312 . S
C51 H22 0.930 . S
C51 C46 1.261 . S
C51 C50 1.312 . S
C52 O24 1.214 . S
C52 O32 1.234 . S
C53 H25 0.929 . S
C53 C56 1.391 . S
C53 C58 1.391 . S
C54 H26 0.929 . S
C54 C55 1.390 . S
C54 N57 1.391 . S
C55 H27 0.930 . S
C55 C54 1.390 . S
C55 C56 1.392 . S
C56 H28 0.929 . S
C56 C53 1.391 . S
C56 C55 1.392 . S
N57 Co1 2.257 . S
N57 C54 1.391 . S
N57 C58 1.388 . S
C58 H29 0.930 . S
C58 C53 1.391 . S
C58 N57 1.388 . S
Co59 O61 2.143 . S
Co59 O67 2.074 . S
Co59 O70 2.093 . S
Co59 O83 2.097 . S
Co59 N100 2.151 . S
Co59 N108 2.214 . S
Co60 O61 2.160 . S
Co60 O66 2.058 . S
Co60 O76 2.060 . S
Co60 O91 2.037 . S
Co60 N95 2.145 . S
Co60 N116 2.257 1_565 S
O61 Co59 2.143 . S
O61 Co60 2.160 . S
C62 O63 1.281 . S
C62 O70 1.224 . S
O63 C62 1.281 . S
C64 O65 1.245 1_545 S
C64 O76 1.231 1_545 S
O65 C64 1.245 1_565 S
O66 Co60 2.058 . S
O66 C92 1.269 . S
O67 Co59 2.074 . S
O67 C92 1.257 . S
H68 C93 0.930 . S
H69 C99 0.930 . S
O70 Co59 2.093 . S
O70 C62 1.224 . S
H71 C103 0.929 . S
H72 C105 0.930 . S
H73 C106 0.930 . S
H74 C104 0.929 . S
H75 C107 0.928 . S
O76 Co60 2.060 . S
O76 C64 1.231 1_565 S
H77 C96 0.929 . S
H78 C97 0.929 1_545 S
H79 C109 0.931 1_655 S
H80 C101 0.929 . S
H81 C110 0.930 1_655 S
H82 C102 0.931 . S
O83 Co59 2.097 . S
O83 C111 1.214 1_455 S
H84 C112 0.929 . S
H85 C113 0.929 1_565 S
H86 C114 0.930 . S
H87 C115 0.929 . S
H88 C117 0.930 . S
H89 C94 0.930 1_545 S
H90 C98 0.930 . S
O91 Co60 2.037 . S
O91 C111 1.234 1_455 S
C92 O66 1.269 . S
C92 O67 1.257 . S
C93 H68 0.930 . S
C93 C96 1.388 . S
C93 C98 1.418 . S
C94 H89 0.930 1_565 S
C94 C97 1.404 . S
C94 C98 1.353 . S
N95 Co60 2.145 . S
N95 C96 1.397 . S
N95 C97 1.334 . S
C96 H77 0.929 . S
C96 C93 1.388 . S
C96 N95 1.397 . S
C97 H78 0.929 1_565 S
C97 C94 1.404 . S
C97 N95 1.334 . S
C98 H90 0.930 . S
C98 C93 1.418 . S
C98 C94 1.353 . S
C99 H69 0.930 . S
C99 N100 1.330 . S
C99 C101 1.446 . S
N100 Co59 2.151 . S
N100 C99 1.330 . S
N100 C104 1.418 . S
C101 H80 0.929 . S
C101 C99 1.446 . S
C101 C102 1.332 . S
C102 H82 0.931 . S
C102 C101 1.332 . S
C102 C103 1.267 . S
C103 H71 0.929 . S
C103 C102 1.267 . S
C103 C104 1.251 . S
C104 H74 0.929 . S
C104 N100 1.418 . S
C104 C103 1.251 . S
C105 H72 0.930 . S
C105 C107 1.406 . S
C105 C110 1.261 . S
C106 H73 0.930 . S
C106 N108 1.325 . S
C106 C109 1.357 . S
C107 H75 0.928 . S
C107 C105 1.406 . S
C107 N108 1.261 . S
N108 Co59 2.214 . S
N108 C106 1.325 . S
N108 C107 1.261 . S
C109 H79 0.931 1_455 S
C109 C106 1.357 . S
C109 C110 1.312 . S
C110 H81 0.930 1_455 S
C110 C105 1.261 . S
C110 C109 1.312 . S
C111 O83 1.214 1_655 S
C111 O91 1.234 1_655 S
C112 H84 0.929 . S
C112 C115 1.391 1_455 S
C112 C117 1.391 . S
C113 H85 0.929 1_545 S
C113 C114 1.390 . S
C113 N116 1.391 1_655 S
C114 H86 0.930 . S
C114 C113 1.390 . S
C114 C115 1.392 . S
C115 H87 0.929 . S
C115 C112 1.391 1_655 S
C115 C114 1.392 . S
N116 Co60 2.257 1_545 S
N116 C113 1.391 1_455 S
N116 C117 1.388 . S
C117 H88 0.930 . S
C117 C112 1.391 . S
C117 N116 1.388 . S
Co118 O120 2.143 . S
Co118 O126 2.074 . S
Co118 O129 2.093 . S
Co118 O142 2.097 . S
Co118 N159 2.151 . S
Co118 N167 2.214 . S
Co119 O120 2.160 . S
Co119 O125 2.058 . S
Co119 O135 2.057 . S
Co119 O150 2.037 . S
Co119 N154 2.145 . S
Co119 N175 2.257 . S
O120 Co118 2.143 . S
O120 Co119 2.160 . S
C121 O122 1.278 . S
C121 O129 1.224 . S
O122 C121 1.278 . S
C123 O124 1.245 . S
C123 O135 1.232 . S
O124 C123 1.245 . S
O125 Co119 2.058 . S
O125 C151 1.269 . S
O126 Co118 2.074 . S
O126 C151 1.257 . S
H127 C152 0.930 . S
H128 C158 0.930 . S
O129 Co118 2.093 . S
O129 C121 1.224 . S
H130 C162 0.929 . S
H131 C164 0.930 . S
H132 C165 0.930 . S
H133 C163 0.929 . S
H134 C166 0.928 . S
O135 Co119 2.057 . S
O135 C123 1.232 . S
H136 C155 0.929 . S
H137 C156 0.929 . S
H138 C168 0.931 . S
H139 C160 0.929 . S
H140 C169 0.930 . S
H141 C161 0.931 . S
O142 Co118 2.097 . S
O142 C170 1.214 . S
H143 C171 0.929 . S
H144 C172 0.929 . S
H145 C173 0.930 . S
H146 C174 0.929 . S
H147 C176 0.930 . S
H148 C153 0.930 . S
H149 C157 0.930 . S
O150 Co119 2.037 . S
O150 C170 1.234 . S
C151 O125 1.269 . S
C151 O126 1.257 . S
C152 H127 0.930 . S
C152 C155 1.388 . S
C152 C157 1.418 . S
C153 H148 0.930 . S
C153 C156 1.404 . S
C153 C157 1.353 . S
N154 Co119 2.145 . S
N154 C155 1.397 . S
N154 C156 1.334 . S
C155 H136 0.929 . S
C155 C152 1.388 . S
C155 N154 1.397 . S
C156 H137 0.929 . S
C156 C153 1.404 . S
C156 N154 1.334 . S
C157 H149 0.930 . S
C157 C152 1.418 . S
C157 C153 1.353 . S
C158 H128 0.930 . S
C158 N159 1.330 . S
C158 C160 1.446 . S
N159 Co118 2.151 . S
N159 C158 1.330 . S
N159 C163 1.418 . S
C160 H139 0.929 . S
C160 C158 1.446 . S
C160 C161 1.332 . S
C161 H141 0.931 . S
C161 C160 1.332 . S
C161 C162 1.267 . S
C162 H130 0.929 . S
C162 C161 1.267 . S
C162 C163 1.251 . S
C163 H133 0.929 . S
C163 N159 1.418 . S
C163 C162 1.251 . S
C164 H131 0.930 . S
C164 C166 1.406 . S
C164 C169 1.261 . S
C165 H132 0.930 . S
C165 N167 1.325 . S
C165 C168 1.357 . S
C166 H134 0.928 . S
C166 C164 1.406 . S
C166 N167 1.261 . S
N167 Co118 2.214 . S
N167 C165 1.325 . S
N167 C166 1.261 . S
C168 H138 0.931 . S
C168 C165 1.357 . S
C168 C169 1.312 . S
C169 H140 0.930 . S
C169 C164 1.261 . S
C169 C168 1.312 . S
C170 O142 1.214 . S
C170 O150 1.234 . S
C171 H143 0.929 . S
C171 C174 1.391 . S
C171 C176 1.391 . S
C172 H144 0.929 . S
C172 C173 1.390 . S
C172 N175 1.391 . S
C173 H145 0.930 . S
C173 C172 1.390 . S
C173 C174 1.392 . S
C174 H146 0.929 . S
C174 C171 1.391 . S
C174 C173 1.392 . S
N175 Co119 2.257 . S
N175 C172 1.391 . S
N175 C176 1.388 . S
C176 H147 0.930 . S
C176 C171 1.391 . S
C176 N175 1.388 . S
Co177 O179 2.143 . S
Co177 O185 2.074 . S
Co177 O188 2.093 . S
Co177 O201 2.097 . S
Co177 N218 2.151 . S
Co177 N226 2.214 . S
Co178 O179 2.160 . S
Co178 O184 2.058 . S
Co178 O194 2.060 . S
Co178 O209 2.037 . S
Co178 N213 2.145 . S
Co178 N234 2.257 1_545 S
O179 Co177 2.143 . S
O179 Co178 2.160 . S
C180 O181 1.281 . S
C180 O188 1.224 . S
O181 C180 1.281 . S
C182 O183 1.245 1_565 S
C182 O194 1.231 1_565 S
O183 C182 1.245 1_545 S
O184 Co178 2.058 . S
O184 C210 1.269 . S
O185 Co177 2.074 . S
O185 C210 1.257 . S
H186 C211 0.930 . S
H187 C217 0.930 . S
O188 Co177 2.093 . S
O188 C180 1.224 . S
H189 C221 0.929 . S
H190 C223 0.930 . S
H191 C224 0.930 . S
H192 C222 0.929 . S
H193 C225 0.928 . S
O194 Co178 2.060 . S
O194 C182 1.231 1_545 S
H195 C214 0.929 . S
H196 C215 0.929 1_565 S
H197 C227 0.931 . S
H198 C219 0.929 . S
H199 C228 0.930 . S
H200 C220 0.931 . S
O201 Co177 2.097 . S
O201 C229 1.214 . S
H202 C230 0.929 . S
H203 C231 0.929 1_545 S
H204 C232 0.930 . S
H205 C233 0.929 . S
H206 C235 0.930 . S
H207 C212 0.930 1_565 S
H208 C216 0.930 . S
O209 Co178 2.037 . S
O209 C229 1.234 . S
C210 O184 1.269 . S
C210 O185 1.257 . S
C211 H186 0.930 . S
C211 C214 1.388 . S
C211 C216 1.418 . S
C212 H207 0.930 1_545 S
C212 C215 1.404 . S
C212 C216 1.353 . S
N213 Co178 2.145 . S
N213 C214 1.397 . S
N213 C215 1.334 . S
C214 H195 0.929 . S
C214 C211 1.388 . S
C214 N213 1.397 . S
C215 H196 0.929 1_545 S
C215 C212 1.404 . S
C215 N213 1.334 . S
C216 H208 0.930 . S
C216 C211 1.418 . S
C216 C212 1.353 . S
C217 H187 0.930 . S
C217 N218 1.330 . S
C217 C219 1.446 . S
N218 Co177 2.151 . S
N218 C217 1.330 . S
N218 C222 1.418 . S
C219 H198 0.929 . S
C219 C217 1.446 . S
C219 C220 1.332 . S
C220 H200 0.931 . S
C220 C219 1.332 . S
C220 C221 1.267 . S
C221 H189 0.929 . S
C221 C220 1.267 . S
C221 C222 1.251 . S
C222 H192 0.929 . S
C222 N218 1.418 . S
C222 C221 1.251 . S
C223 H190 0.930 . S
C223 C225 1.406 . S
C223 C228 1.261 . S
C224 H191 0.930 . S
C224 N226 1.325 . S
C224 C227 1.357 . S
C225 H193 0.928 . S
C225 C223 1.406 . S
C225 N226 1.261 . S
N226 Co177 2.214 . S
N226 C224 1.325 . S
N226 C225 1.261 . S
C227 H197 0.931 . S
C227 C224 1.357 . S
C227 C228 1.312 . S
C228 H199 0.930 . S
C228 C223 1.261 . S
C228 C227 1.312 . S
C229 O201 1.214 . S
C229 O209 1.234 . S
C230 H202 0.929 . S
C230 C233 1.391 . S
C230 C235 1.391 . S
C231 H203 0.929 1_565 S
C231 C232 1.390 . S
C231 N234 1.391 . S
C232 H204 0.930 . S
C232 C231 1.390 . S
C232 C233 1.392 . S
C233 H205 0.929 . S
C233 C230 1.391 . S
C233 C232 1.392 . S
N234 Co178 2.257 1_565 S
N234 C231 1.391 . S
N234 C235 1.388 . S
C235 H206 0.930 . S
C235 C230 1.391 . S
C235 N234 1.388 . S
Co236 O238 2.143 . S
Co236 O244 2.074 . S
Co236 O247 2.093 . S
Co236 O260 2.097 . S
Co236 N277 2.151 . S
Co236 N285 2.214 . S
Co237 O238 2.160 . S
Co237 O243 2.058 . S
Co237 O253 2.057 . S
Co237 O268 2.037 . S
Co237 N272 2.145 . S
Co237 N293 2.257 . S
O238 Co236 2.143 . S
O238 Co237 2.160 . S
C239 O240 1.278 . S
C239 O247 1.224 . S
O240 C239 1.278 . S
C241 O242 1.245 . S
C241 O253 1.232 . S
O242 C241 1.245 . S
O243 Co237 2.058 . S
O243 C269 1.269 . S
O244 Co236 2.074 . S
O244 C269 1.257 . S
H245 C270 0.930 . S
H246 C276 0.930 . S
O247 Co236 2.093 . S
O247 C239 1.224 . S
H248 C280 0.929 . S
H249 C282 0.930 . S
H250 C283 0.930 . S
H251 C281 0.929 . S
H252 C284 0.928 . S
O253 Co237 2.057 . S
O253 C241 1.232 . S
H254 C273 0.929 . S
H255 C274 0.929 . S
H256 C286 0.931 . S
H257 C278 0.929 . S
H258 C287 0.930 . S
H259 C279 0.931 . S
O260 Co236 2.097 . S
O260 C288 1.214 . S
H261 C289 0.929 . S
H262 C290 0.929 . S
H263 C291 0.930 . S
H264 C292 0.929 . S
H265 C294 0.930 . S
H266 C271 0.930 . S
H267 C275 0.930 . S
O268 Co237 2.037 . S
O268 C288 1.234 . S
C269 O243 1.269 . S
C269 O244 1.257 . S
C270 H245 0.930 . S
C270 C273 1.388 . S
C270 C275 1.418 . S
C271 H266 0.930 . S
C271 C274 1.404 . S
C271 C275 1.353 . S
N272 Co237 2.145 . S
N272 C273 1.397 . S
N272 C274 1.334 . S
C273 H254 0.929 . S
C273 C270 1.388 . S
C273 N272 1.397 . S
C274 H255 0.929 . S
C274 C271 1.404 . S
C274 N272 1.334 . S
C275 H267 0.930 . S
C275 C270 1.418 . S
C275 C271 1.353 . S
C276 H246 0.930 . S
C276 N277 1.330 . S
C276 C278 1.446 . S
N277 Co236 2.151 . S
N277 C276 1.330 . S
N277 C281 1.418 . S
C278 H257 0.929 . S
C278 C276 1.446 . S
C278 C279 1.332 . S
C279 H259 0.931 . S
C279 C278 1.332 . S
C279 C280 1.267 . S
C280 H248 0.929 . S
C280 C279 1.267 . S
C280 C281 1.251 . S
C281 H251 0.929 . S
C281 N277 1.418 . S
C281 C280 1.251 . S
C282 H249 0.930 . S
C282 C284 1.406 . S
C282 C287 1.261 . S
C283 H250 0.930 . S
C283 N285 1.325 . S
C283 C286 1.357 . S
C284 H252 0.928 . S
C284 C282 1.406 . S
C284 N285 1.261 . S
N285 Co236 2.214 . S
N285 C283 1.325 . S
N285 C284 1.261 . S
C286 H256 0.931 . S
C286 C283 1.357 . S
C286 C287 1.312 . S
C287 H258 0.930 . S
C287 C282 1.261 . S
C287 C286 1.312 . S
C288 O260 1.214 . S
C288 O268 1.234 . S
C289 H261 0.929 . S
C289 C292 1.391 . S
C289 C294 1.391 . S
C290 H262 0.929 . S
C290 C291 1.390 . S
C290 N293 1.391 . S
C291 H263 0.930 . S
C291 C290 1.390 . S
C291 C292 1.392 . S
C292 H264 0.929 . S
C292 C289 1.391 . S
C292 C291 1.392 . S
N293 Co237 2.257 . S
N293 C290 1.391 . S
N293 C294 1.388 . S
C294 H265 0.930 . S
C294 C289 1.391 . S
C294 N293 1.388 . S
Co295 O297 2.143 . S
Co295 O303 2.074 . S
Co295 O306 2.093 . S
Co295 O319 2.097 . S
Co295 N336 2.151 . S
Co295 N344 2.214 . S
Co296 O297 2.160 . S
Co296 O302 2.058 . S
Co296 O312 2.060 . S
Co296 O327 2.037 . S
Co296 N331 2.145 . S
Co296 N352 2.257 1_565 S
O297 Co295 2.143 . S
O297 Co296 2.160 . S
C298 O299 1.281 . S
C298 O306 1.224 . S
O299 C298 1.281 . S
C300 O301 1.245 1_545 S
C300 O312 1.231 1_545 S
O301 C300 1.245 1_565 S
O302 Co296 2.058 . S
O302 C328 1.269 . S
O303 Co295 2.074 . S
O303 C328 1.257 . S
H304 C329 0.930 . S
H305 C335 0.930 . S
O306 Co295 2.093 . S
O306 C298 1.224 . S
H307 C339 0.929 . S
H308 C341 0.930 . S
H309 C342 0.930 . S
H310 C340 0.929 . S
H311 C343 0.928 . S
O312 Co296 2.060 . S
O312 C300 1.231 1_565 S
H313 C332 0.929 . S
H314 C333 0.929 1_545 S
H315 C345 0.931 . S
H316 C337 0.929 . S
H317 C346 0.930 . S
H318 C338 0.931 . S
O319 Co295 2.097 . S
O319 C347 1.214 . S
H320 C348 0.929 . S
H321 C349 0.929 1_565 S
H322 C350 0.930 . S
H323 C351 0.929 . S
H324 C353 0.930 . S
H325 C330 0.930 1_545 S
H326 C334 0.930 . S
O327 Co296 2.037 . S
O327 C347 1.234 . S
C328 O302 1.269 . S
C328 O303 1.257 . S
C329 H304 0.930 . S
C329 C332 1.388 . S
C329 C334 1.418 . S
C330 H325 0.930 1_565 S
C330 C333 1.404 . S
C330 C334 1.353 . S
N331 Co296 2.145 . S
N331 C332 1.397 . S
N331 C333 1.334 . S
C332 H313 0.929 . S
C332 C329 1.388 . S
C332 N331 1.397 . S
C333 H314 0.929 1_565 S
C333 C330 1.404 . S
C333 N331 1.334 . S
C334 H326 0.930 . S
C334 C329 1.418 . S
C334 C330 1.353 . S
C335 H305 0.930 . S
C335 N336 1.330 . S
C335 C337 1.446 . S
N336 Co295 2.151 . S
N336 C335 1.330 . S
N336 C340 1.418 . S
C337 H316 0.929 . S
C337 C335 1.446 . S
C337 C338 1.332 . S
C338 H318 0.931 . S
C338 C337 1.332 . S
C338 C339 1.267 . S
C339 H307 0.929 . S
C339 C338 1.267 . S
C339 C340 1.251 . S
C340 H310 0.929 . S
C340 N336 1.418 . S
C340 C339 1.251 . S
C341 H308 0.930 . S
C341 C343 1.406 . S
C341 C346 1.261 . S
C342 H309 0.930 . S
C342 N344 1.325 . S
C342 C345 1.357 . S
C343 H311 0.928 . S
C343 C341 1.406 . S
C343 N344 1.261 . S
N344 Co295 2.214 . S
N344 C342 1.325 . S
N344 C343 1.261 . S
C345 H315 0.931 . S
C345 C342 1.357 . S
C345 C346 1.312 . S
C346 H317 0.930 . S
C346 C341 1.261 . S
C346 C345 1.312 . S
C347 O319 1.214 . S
C347 O327 1.234 . S
C348 H320 0.929 . S
C348 C351 1.391 . S
C348 C353 1.391 . S
C349 H321 0.929 1_545 S
C349 C350 1.390 . S
C349 N352 1.391 . S
C350 H322 0.930 . S
C350 C349 1.390 . S
C350 C351 1.392 . S
C351 H323 0.929 . S
C351 C348 1.391 . S
C351 C350 1.392 . S
N352 Co296 2.257 1_545 S
N352 C349 1.391 . S
N352 C353 1.388 . S
C353 H324 0.930 . S
C353 C348 1.391 . S
C353 N352 1.388 . S
Co354 O356 2.143 . S
Co354 O362 2.074 . S
Co354 O365 2.093 . S
Co354 O378 2.097 . S
Co354 N395 2.151 . S
Co354 N403 2.214 . S
Co355 O356 2.160 . S
Co355 O361 2.058 . S
Co355 O371 2.057 . S
Co355 O386 2.037 . S
Co355 N390 2.145 . S
Co355 N411 2.257 . S
O356 Co354 2.143 . S
O356 Co355 2.160 . S
C357 O358 1.278 . S
C357 O365 1.224 . S
O358 C357 1.278 . S
C359 O360 1.245 . S
C359 O371 1.232 . S
O360 C359 1.245 . S
O361 Co355 2.058 . S
O361 C387 1.269 . S
O362 Co354 2.074 . S
O362 C387 1.257 . S
H363 C388 0.930 . S
H364 C394 0.930 . S
O365 Co354 2.093 . S
O365 C357 1.224 . S
H366 C398 0.929 . S
H367 C400 0.930 . S
H368 C401 0.930 . S
H369 C399 0.929 . S
H370 C402 0.928 . S
O371 Co355 2.057 . S
O371 C359 1.232 . S
H372 C391 0.929 . S
H373 C392 0.929 . S
H374 C404 0.931 . S
H375 C396 0.929 . S
H376 C405 0.930 . S
H377 C397 0.931 . S
O378 Co354 2.097 . S
O378 C406 1.214 . S
H379 C407 0.929 . S
H380 C408 0.929 . S
H381 C409 0.930 . S
H382 C410 0.929 . S
H383 C412 0.930 . S
H384 C389 0.930 . S
H385 C393 0.930 . S
O386 Co355 2.037 . S
O386 C406 1.234 . S
C387 O361 1.269 . S
C387 O362 1.257 . S
C388 H363 0.930 . S
C388 C391 1.388 . S
C388 C393 1.418 . S
C389 H384 0.930 . S
C389 C392 1.404 . S
C389 C393 1.353 . S
N390 Co355 2.145 . S
N390 C391 1.397 . S
N390 C392 1.334 . S
C391 H372 0.929 . S
C391 C388 1.388 . S
C391 N390 1.397 . S
C392 H373 0.929 . S
C392 C389 1.404 . S
C392 N390 1.334 . S
C393 H385 0.930 . S
C393 C388 1.418 . S
C393 C389 1.353 . S
C394 H364 0.930 . S
C394 N395 1.330 . S
C394 C396 1.446 . S
N395 Co354 2.151 . S
N395 C394 1.330 . S
N395 C399 1.418 . S
C396 H375 0.929 . S
C396 C394 1.446 . S
C396 C397 1.332 . S
C397 H377 0.931 . S
C397 C396 1.332 . S
C397 C398 1.267 . S
C398 H366 0.929 . S
C398 C397 1.267 . S
C398 C399 1.251 . S
C399 H369 0.929 . S
C399 N395 1.418 . S
C399 C398 1.251 . S
C400 H367 0.930 . S
C400 C402 1.406 . S
C400 C405 1.261 . S
C401 H368 0.930 . S
C401 N403 1.325 . S
C401 C404 1.357 . S
C402 H370 0.928 . S
C402 C400 1.406 . S
C402 N403 1.261 . S
N403 Co354 2.214 . S
N403 C401 1.325 . S
N403 C402 1.261 . S
C404 H374 0.931 . S
C404 C401 1.357 . S
C404 C405 1.312 . S
C405 H376 0.930 . S
C405 C400 1.261 . S
C405 C404 1.312 . S
C406 O378 1.214 . S
C406 O386 1.234 . S
C407 H379 0.929 . S
C407 C410 1.391 . S
C407 C412 1.391 . S
C408 H380 0.929 . S
C408 C409 1.390 . S
C408 N411 1.391 . S
C409 H381 0.930 . S
C409 C408 1.390 . S
C409 C410 1.392 . S
C410 H382 0.929 . S
C410 C407 1.391 . S
C410 C409 1.392 . S
N411 Co355 2.257 . S
N411 C408 1.391 . S
N411 C412 1.388 . S
C412 H383 0.930 . S
C412 C407 1.391 . S
C412 N411 1.388 . S
Co413 O415 2.143 . S
Co413 O421 2.074 . S
Co413 O424 2.093 . S
Co413 O437 2.097 . S
Co413 N454 2.151 . S
Co413 N462 2.214 . S
Co414 O415 2.160 . S
Co414 O420 2.058 . S
Co414 O430 2.060 . S
Co414 O445 2.037 . S
Co414 N449 2.145 . S
Co414 N470 2.257 1_545 S
O415 Co413 2.143 . S
O415 Co414 2.160 . S
C416 O417 1.281 . S
C416 O424 1.224 . S
O417 C416 1.281 . S
C418 O419 1.245 1_565 S
C418 O430 1.231 1_565 S
O419 C418 1.245 1_545 S
O420 Co414 2.058 . S
O420 C446 1.269 . S
O421 Co413 2.074 . S
O421 C446 1.257 . S
H422 C447 0.930 . S
H423 C453 0.930 . S
O424 Co413 2.093 . S
O424 C416 1.224 . S
H425 C457 0.929 . S
H426 C459 0.930 . S
H427 C460 0.930 . S
H428 C458 0.929 . S
H429 C461 0.928 . S
O430 Co414 2.060 . S
O430 C418 1.231 1_545 S
H431 C450 0.929 . S
H432 C451 0.929 1_565 S
H433 C463 0.931 1_655 S
H434 C455 0.929 . S
H435 C464 0.930 1_655 S
H436 C456 0.931 . S
O437 Co413 2.097 . S
O437 C465 1.214 1_455 S
H438 C466 0.929 . S
H439 C467 0.929 1_545 S
H440 C468 0.930 . S
H441 C469 0.929 . S
H442 C471 0.930 . S
H443 C448 0.930 1_565 S
H444 C452 0.930 . S
O445 Co414 2.037 . S
O445 C465 1.234 1_455 S
C446 O420 1.269 . S
C446 O421 1.257 . S
C447 H422 0.930 . S
C447 C450 1.388 . S
C447 C452 1.418 . S
C448 H443 0.930 1_545 S
C448 C451 1.404 . S
C448 C452 1.353 . S
N449 Co414 2.145 . S
N449 C450 1.397 . S
N449 C451 1.334 . S
C450 H431 0.929 . S
C450 C447 1.388 . S
C450 N449 1.397 . S
C451 H432 0.929 1_545 S
C451 C448 1.404 . S
C451 N449 1.334 . S
C452 H444 0.930 . S
C452 C447 1.418 . S
C452 C448 1.353 . S
C453 H423 0.930 . S
C453 N454 1.330 . S
C453 C455 1.446 . S
N454 Co413 2.151 . S
N454 C453 1.330 . S
N454 C458 1.418 . S
C455 H434 0.929 . S
C455 C453 1.446 . S
C455 C456 1.332 . S
C456 H436 0.931 . S
C456 C455 1.332 . S
C456 C457 1.267 . S
C457 H425 0.929 . S
C457 C456 1.267 . S
C457 C458 1.251 . S
C458 H428 0.929 . S
C458 N454 1.418 . S
C458 C457 1.251 . S
C459 H426 0.930 . S
C459 C461 1.406 . S
C459 C464 1.261 . S
C460 H427 0.930 . S
C460 N462 1.325 . S
C460 C463 1.357 . S
C461 H429 0.928 . S
C461 C459 1.406 . S
C461 N462 1.261 . S
N462 Co413 2.214 . S
N462 C460 1.325 . S
N462 C461 1.261 . S
C463 H433 0.931 1_455 S
C463 C460 1.357 . S
C463 C464 1.312 . S
C464 H435 0.930 1_455 S
C464 C459 1.261 . S
C464 C463 1.312 . S
C465 O437 1.214 1_655 S
C465 O445 1.234 1_655 S
C466 H438 0.929 . S
C466 C469 1.391 1_455 S
C466 C471 1.391 . S
C467 H439 0.929 1_565 S
C467 C468 1.390 . S
C467 N470 1.391 1_655 S
C468 H440 0.930 . S
C468 C467 1.390 . S
C468 C469 1.392 . S
C469 H441 0.929 . S
C469 C466 1.391 1_655 S
C469 C468 1.392 . S
N470 Co414 2.257 1_565 S
N470 C467 1.391 1_455 S
N470 C471 1.388 . S
C471 H442 0.930 . S
C471 C466 1.391 . S
C471 N470 1.388 . S
Co472 O474 2.143 . S
Co472 O480 2.074 . S
Co472 O483 2.093 . S
Co472 O496 2.097 . S
Co472 N513 2.151 . S
Co472 N521 2.214 . S
Co473 O474 2.160 . S
Co473 O479 2.058 . S
Co473 O489 2.057 . S
Co473 O504 2.037 . S
Co473 N508 2.145 . S
Co473 N529 2.257 . S
O474 Co472 2.143 . S
O474 Co473 2.160 . S
C475 O476 1.278 . S
C475 O483 1.224 . S
O476 C475 1.278 . S
C477 O478 1.245 . S
C477 O489 1.232 . S
O478 C477 1.245 . S
O479 Co473 2.058 . S
O479 C505 1.269 . S
O480 Co472 2.074 . S
O480 C505 1.257 . S
H481 C506 0.930 . S
H482 C512 0.930 . S
O483 Co472 2.093 . S
O483 C475 1.224 . S
H484 C516 0.929 . S
H485 C518 0.930 . S
H486 C519 0.930 . S
H487 C517 0.929 . S
H488 C520 0.928 . S
O489 Co473 2.057 . S
O489 C477 1.232 . S
H490 C509 0.929 . S
H491 C510 0.929 . S
H492 C522 0.931 . S
H493 C514 0.929 . S
H494 C523 0.930 . S
H495 C515 0.931 . S
O496 Co472 2.097 . S
O496 C524 1.214 . S
H497 C525 0.929 . S
H498 C526 0.929 . S
H499 C527 0.930 . S
H500 C528 0.929 . S
H501 C530 0.930 . S
H502 C507 0.930 . S
H503 C511 0.930 . S
O504 Co473 2.037 . S
O504 C524 1.234 . S
C505 O479 1.269 . S
C505 O480 1.257 . S
C506 H481 0.930 . S
C506 C509 1.388 . S
C506 C511 1.418 . S
C507 H502 0.930 . S
C507 C510 1.404 . S
C507 C511 1.353 . S
N508 Co473 2.145 . S
N508 C509 1.397 . S
N508 C510 1.334 . S
C509 H490 0.929 . S
C509 C506 1.388 . S
C509 N508 1.397 . S
C510 H491 0.929 . S
C510 C507 1.404 . S
C510 N508 1.334 . S
C511 H503 0.930 . S
C511 C506 1.418 . S
C511 C507 1.353 . S
C512 H482 0.930 . S
C512 N513 1.330 . S
C512 C514 1.446 . S
N513 Co472 2.151 . S
N513 C512 1.330 . S
N513 C517 1.418 . S
C514 H493 0.929 . S
C514 C512 1.446 . S
C514 C515 1.332 . S
C515 H495 0.931 . S
C515 C514 1.332 . S
C515 C516 1.267 . S
C516 H484 0.929 . S
C516 C515 1.267 . S
C516 C517 1.251 . S
C517 H487 0.929 . S
C517 N513 1.418 . S
C517 C516 1.251 . S
C518 H485 0.930 . S
C518 C520 1.406 . S
C518 C523 1.261 . S
C519 H486 0.930 . S
C519 N521 1.325 . S
C519 C522 1.357 . S
C520 H488 0.928 . S
C520 C518 1.406 . S
C520 N521 1.261 . S
N521 Co472 2.214 . S
N521 C519 1.325 . S
N521 C520 1.261 . S
C522 H492 0.931 . S
C522 C519 1.357 . S
C522 C523 1.312 . S
C523 H494 0.930 . S
C523 C518 1.261 . S
C523 C522 1.312 . S
C524 O496 1.214 . S
C524 O504 1.234 . S
C525 H497 0.929 . S
C525 C528 1.391 . S
C525 C530 1.391 . S
C526 H498 0.929 . S
C526 C527 1.390 . S
C526 N529 1.391 . S
C527 H499 0.930 . S
C527 C526 1.390 . S
C527 C528 1.392 . S
C528 H500 0.929 . S
C528 C525 1.391 . S
C528 C527 1.392 . S
N529 Co473 2.257 . S
N529 C526 1.391 . S
N529 C530 1.388 . S
C530 H501 0.930 . S
C530 C525 1.391 . S
C530 N529 1.388 . S
Co531 O533 2.143 . S
Co531 O539 2.074 . S
Co531 O542 2.093 . S
Co531 O555 2.097 . S
Co531 N572 2.151 . S
Co531 N580 2.214 . S
Co532 O533 2.160 . S
Co532 O538 2.058 . S
Co532 O548 2.060 . S
Co532 O563 2.037 . S
Co532 N567 2.145 . S
Co532 N588 2.257 1_545 S
O533 Co531 2.143 . S
O533 Co532 2.160 . S
C534 O535 1.281 . S
C534 O542 1.224 . S
O535 C534 1.281 . S
C536 O537 1.245 1_565 S
C536 O548 1.231 1_565 S
O537 C536 1.245 1_545 S
O538 Co532 2.058 . S
O538 C564 1.269 . S
O539 Co531 2.074 . S
O539 C564 1.257 . S
H540 C565 0.930 . S
H541 C571 0.930 . S
O542 Co531 2.093 . S
O542 C534 1.224 . S
H543 C575 0.929 . S
H544 C577 0.930 . S
H545 C578 0.930 . S
H546 C576 0.929 . S
H547 C579 0.928 . S
O548 Co532 2.060 . S
O548 C536 1.231 1_545 S
H549 C568 0.929 . S
H550 C569 0.929 1_565 S
H551 C581 0.931 1_455 S
H552 C573 0.929 . S
H553 C582 0.930 1_455 S
H554 C574 0.931 . S
O555 Co531 2.097 . S
O555 C583 1.214 1_655 S
H556 C584 0.929 . S
H557 C585 0.929 1_545 S
H558 C586 0.930 . S
H559 C587 0.929 . S
H560 C589 0.930 . S
H561 C566 0.930 1_565 S
H562 C570 0.930 . S
O563 Co532 2.037 . S
O563 C583 1.234 1_655 S
C564 O538 1.269 . S
C564 O539 1.257 . S
C565 H540 0.930 . S
C565 C568 1.388 . S
C565 C570 1.418 . S
C566 H561 0.930 1_545 S
C566 C569 1.404 . S
C566 C570 1.353 . S
N567 Co532 2.145 . S
N567 C568 1.397 . S
N567 C569 1.334 . S
C568 H549 0.929 . S
C568 C565 1.388 . S
C568 N567 1.397 . S
C569 H550 0.929 1_545 S
C569 C566 1.404 . S
C569 N567 1.334 . S
C570 H562 0.930 . S
C570 C565 1.418 . S
C570 C566 1.353 . S
C571 H541 0.930 . S
C571 N572 1.330 . S
C571 C573 1.446 . S
N572 Co531 2.151 . S
N572 C571 1.330 . S
N572 C576 1.418 . S
C573 H552 0.929 . S
C573 C571 1.446 . S
C573 C574 1.332 . S
C574 H554 0.931 . S
C574 C573 1.332 . S
C574 C575 1.267 . S
C575 H543 0.929 . S
C575 C574 1.267 . S
C575 C576 1.251 . S
C576 H546 0.929 . S
C576 N572 1.418 . S
C576 C575 1.251 . S
C577 H544 0.930 . S
C577 C579 1.406 . S
C577 C582 1.261 . S
C578 H545 0.930 . S
C578 N580 1.325 . S
C578 C581 1.357 . S
C579 H547 0.928 . S
C579 C577 1.406 . S
C579 N580 1.261 . S
N580 Co531 2.214 . S
N580 C578 1.325 . S
N580 C579 1.261 . S
C581 H551 0.931 1_655 S
C581 C578 1.357 . S
C581 C582 1.312 . S
C582 H553 0.930 1_655 S
C582 C577 1.261 . S
C582 C581 1.312 . S
C583 O555 1.214 1_455 S
C583 O563 1.234 1_455 S
C584 H556 0.929 . S
C584 C587 1.391 1_655 S
C584 C589 1.391 . S
C585 H557 0.929 1_565 S
C585 C586 1.390 . S
C585 N588 1.391 1_455 S
C586 H558 0.930 . S
C586 C585 1.390 . S
C586 C587 1.392 . S
C587 H559 0.929 . S
C587 C584 1.391 1_455 S
C587 C586 1.392 . S
N588 Co532 2.257 1_565 S
N588 C585 1.391 1_655 S
N588 C589 1.388 . S
C589 H560 0.930 . S
C589 C584 1.391 . S
C589 N588 1.388 . S
Co590 O592 2.143 . S
Co590 O598 2.074 . S
Co590 O601 2.093 . S
Co590 O614 2.097 . S
Co590 N631 2.151 . S
Co590 N639 2.214 . S
Co591 O592 2.160 . S
Co591 O597 2.058 . S
Co591 O607 2.057 . S
Co591 O622 2.037 . S
Co591 N626 2.145 . S
Co591 N647 2.257 . S
O592 Co590 2.143 . S
O592 Co591 2.160 . S
C593 O594 1.278 . S
C593 O601 1.224 . S
O594 C593 1.278 . S
C595 O596 1.245 . S
C595 O607 1.232 . S
O596 C595 1.245 . S
O597 Co591 2.058 . S
O597 C623 1.269 . S
O598 Co590 2.074 . S
O598 C623 1.257 . S
H599 C624 0.930 . S
H600 C630 0.930 . S
O601 Co590 2.093 . S
O601 C593 1.224 . S
H602 C634 0.929 . S
H603 C636 0.930 . S
H604 C637 0.930 . S
H605 C635 0.929 . S
H606 C638 0.928 . S
O607 Co591 2.057 . S
O607 C595 1.232 . S
H608 C627 0.929 . S
H609 C628 0.929 . S
H610 C640 0.931 . S
H611 C632 0.929 . S
H612 C641 0.930 . S
H613 C633 0.931 . S
O614 Co590 2.097 . S
O614 C642 1.214 . S
H615 C643 0.929 . S
H616 C644 0.929 . S
H617 C645 0.930 . S
H618 C646 0.929 . S
H619 C648 0.930 . S
H620 C625 0.930 . S
H621 C629 0.930 . S
O622 Co591 2.037 . S
O622 C642 1.234 . S
C623 O597 1.269 . S
C623 O598 1.257 . S
C624 H599 0.930 . S
C624 C627 1.388 . S
C624 C629 1.418 . S
C625 H620 0.930 . S
C625 C628 1.404 . S
C625 C629 1.353 . S
N626 Co591 2.145 . S
N626 C627 1.397 . S
N626 C628 1.334 . S
C627 H608 0.929 . S
C627 C624 1.388 . S
C627 N626 1.397 . S
C628 H609 0.929 . S
C628 C625 1.404 . S
C628 N626 1.334 . S
C629 H621 0.930 . S
C629 C624 1.418 . S
C629 C625 1.353 . S
C630 H600 0.930 . S
C630 N631 1.330 . S
C630 C632 1.446 . S
N631 Co590 2.151 . S
N631 C630 1.330 . S
N631 C635 1.418 . S
C632 H611 0.929 . S
C632 C630 1.446 . S
C632 C633 1.332 . S
C633 H613 0.931 . S
C633 C632 1.332 . S
C633 C634 1.267 . S
C634 H602 0.929 . S
C634 C633 1.267 . S
C634 C635 1.251 . S
C635 H605 0.929 . S
C635 N631 1.418 . S
C635 C634 1.251 . S
C636 H603 0.930 . S
C636 C638 1.406 . S
C636 C641 1.261 . S
C637 H604 0.930 . S
C637 N639 1.325 . S
C637 C640 1.357 . S
C638 H606 0.928 . S
C638 C636 1.406 . S
C638 N639 1.261 . S
N639 Co590 2.214 . S
N639 C637 1.325 . S
N639 C638 1.261 . S
C640 H610 0.931 . S
C640 C637 1.357 . S
C640 C641 1.312 . S
C641 H612 0.930 . S
C641 C636 1.261 . S
C641 C640 1.312 . S
C642 O614 1.214 . S
C642 O622 1.234 . S
C643 H615 0.929 . S
C643 C646 1.391 . S
C643 C648 1.391 . S
C644 H616 0.929 . S
C644 C645 1.390 . S
C644 N647 1.391 . S
C645 H617 0.930 . S
C645 C644 1.390 . S
C645 C646 1.392 . S
C646 H618 0.929 . S
C646 C643 1.391 . S
C646 C645 1.392 . S
N647 Co591 2.257 . S
N647 C644 1.391 . S
N647 C648 1.388 . S
C648 H619 0.930 . S
C648 C643 1.391 . S
C648 N647 1.388 . S
Co649 O651 2.143 . S
Co649 O657 2.074 . S
Co649 O660 2.093 . S
Co649 O673 2.097 . S
Co649 N690 2.151 . S
Co649 N698 2.214 . S
Co650 O651 2.160 . S
Co650 O656 2.058 . S
Co650 O666 2.060 . S
Co650 O681 2.037 . S
Co650 N685 2.145 . S
Co650 N706 2.257 1_565 S
O651 Co649 2.143 . S
O651 Co650 2.160 . S
C652 O653 1.281 . S
C652 O660 1.224 . S
O653 C652 1.281 . S
C654 O655 1.245 1_545 S
C654 O666 1.231 1_545 S
O655 C654 1.245 1_565 S
O656 Co650 2.058 . S
O656 C682 1.269 . S
O657 Co649 2.074 . S
O657 C682 1.257 . S
H658 C683 0.930 . S
H659 C689 0.930 . S
O660 Co649 2.093 . S
O660 C652 1.224 . S
H661 C693 0.929 . S
H662 C695 0.930 . S
H663 C696 0.930 . S
H664 C694 0.929 . S
H665 C697 0.928 . S
O666 Co650 2.060 . S
O666 C654 1.231 1_565 S
H667 C686 0.929 . S
H668 C687 0.929 1_545 S
H669 C699 0.931 . S
H670 C691 0.929 . S
H671 C700 0.930 . S
H672 C692 0.931 . S
O673 Co649 2.097 . S
O673 C701 1.214 . S
H674 C702 0.929 . S
H675 C703 0.929 1_565 S
H676 C704 0.930 . S
H677 C705 0.929 . S
H678 C707 0.930 . S
H679 C684 0.930 1_545 S
H680 C688 0.930 . S
O681 Co650 2.037 . S
O681 C701 1.234 . S
C682 O656 1.269 . S
C682 O657 1.257 . S
C683 H658 0.930 . S
C683 C686 1.388 . S
C683 C688 1.418 . S
C684 H679 0.930 1_565 S
C684 C687 1.404 . S
C684 C688 1.353 . S
N685 Co650 2.145 . S
N685 C686 1.397 . S
N685 C687 1.334 . S
C686 H667 0.929 . S
C686 C683 1.388 . S
C686 N685 1.397 . S
C687 H668 0.929 1_565 S
C687 C684 1.404 . S
C687 N685 1.334 . S
C688 H680 0.930 . S
C688 C683 1.418 . S
C688 C684 1.353 . S
C689 H659 0.930 . S
C689 N690 1.330 . S
C689 C691 1.446 . S
N690 Co649 2.151 . S
N690 C689 1.330 . S
N690 C694 1.418 . S
C691 H670 0.929 . S
C691 C689 1.446 . S
C691 C692 1.332 . S
C692 H672 0.931 . S
C692 C691 1.332 . S
C692 C693 1.267 . S
C693 H661 0.929 . S
C693 C692 1.267 . S
C693 C694 1.251 . S
C694 H664 0.929 . S
C694 N690 1.418 . S
C694 C693 1.251 . S
C695 H662 0.930 . S
C695 C697 1.406 . S
C695 C700 1.261 . S
C696 H663 0.930 . S
C696 N698 1.325 . S
C696 C699 1.357 . S
C697 H665 0.928 . S
C697 C695 1.406 . S
C697 N698 1.261 . S
N698 Co649 2.214 . S
N698 C696 1.325 . S
N698 C697 1.261 . S
C699 H669 0.931 . S
C699 C696 1.357 . S
C699 C700 1.312 . S
C700 H671 0.930 . S
C700 C695 1.261 . S
C700 C699 1.312 . S
C701 O673 1.214 . S
C701 O681 1.234 . S
C702 H674 0.929 . S
C702 C705 1.391 . S
C702 C707 1.391 . S
C703 H675 0.929 1_545 S
C703 C704 1.390 . S
C703 N706 1.391 . S
C704 H676 0.930 . S
C704 C703 1.390 . S
C704 C705 1.392 . S
C705 H677 0.929 . S
C705 C702 1.391 . S
C705 C704 1.392 . S
N706 Co650 2.257 1_545 S
N706 C703 1.391 . S
N706 C707 1.388 . S
C707 H678 0.930 . S
C707 C702 1.391 . S
C707 N706 1.388 . S
Co708 O710 2.143 . S
Co708 O716 2.074 . S
Co708 O719 2.093 . S
Co708 O732 2.097 . S
Co708 N749 2.151 . S
Co708 N757 2.214 . S
Co709 O710 2.160 . S
Co709 O715 2.058 . S
Co709 O725 2.057 . S
Co709 O740 2.037 . S
Co709 N744 2.145 . S
Co709 N765 2.257 . S
O710 Co708 2.143 . S
O710 Co709 2.160 . S
C711 O712 1.278 . S
C711 O719 1.224 . S
O712 C711 1.278 . S
C713 O714 1.245 . S
C713 O725 1.232 . S
O714 C713 1.245 . S
O715 Co709 2.058 . S
O715 C741 1.269 . S
O716 Co708 2.074 . S
O716 C741 1.257 . S
H717 C742 0.930 . S
H718 C748 0.930 . S
O719 Co708 2.093 . S
O719 C711 1.224 . S
H720 C752 0.929 . S
H721 C754 0.930 . S
H722 C755 0.930 . S
H723 C753 0.929 . S
H724 C756 0.928 . S
O725 Co709 2.057 . S
O725 C713 1.232 . S
H726 C745 0.929 . S
H727 C746 0.929 . S
H728 C758 0.931 . S
H729 C750 0.929 . S
H730 C759 0.930 . S
H731 C751 0.931 . S
O732 Co708 2.097 . S
O732 C760 1.214 . S
H733 C761 0.929 . S
H734 C762 0.929 . S
H735 C763 0.930 . S
H736 C764 0.929 . S
H737 C766 0.930 . S
H738 C743 0.930 . S
H739 C747 0.930 . S
O740 Co709 2.037 . S
O740 C760 1.234 . S
C741 O715 1.269 . S
C741 O716 1.257 . S
C742 H717 0.930 . S
C742 C745 1.388 . S
C742 C747 1.418 . S
C743 H738 0.930 . S
C743 C746 1.404 . S
C743 C747 1.353 . S
N744 Co709 2.145 . S
N744 C745 1.397 . S
N744 C746 1.334 . S
C745 H726 0.929 . S
C745 C742 1.388 . S
C745 N744 1.397 . S
C746 H727 0.929 . S
C746 C743 1.404 . S
C746 N744 1.334 . S
C747 H739 0.930 . S
C747 C742 1.418 . S
C747 C743 1.353 . S
C748 H718 0.930 . S
C748 N749 1.330 . S
C748 C750 1.446 . S
N749 Co708 2.151 . S
N749 C748 1.330 . S
N749 C753 1.418 . S
C750 H729 0.929 . S
C750 C748 1.446 . S
C750 C751 1.332 . S
C751 H731 0.931 . S
C751 C750 1.332 . S
C751 C752 1.267 . S
C752 H720 0.929 . S
C752 C751 1.267 . S
C752 C753 1.251 . S
C753 H723 0.929 . S
C753 N749 1.418 . S
C753 C752 1.251 . S
C754 H721 0.930 . S
C754 C756 1.406 . S
C754 C759 1.261 . S
C755 H722 0.930 . S
C755 N757 1.325 . S
C755 C758 1.357 . S
C756 H724 0.928 . S
C756 C754 1.406 . S
C756 N757 1.261 . S
N757 Co708 2.214 . S
N757 C755 1.325 . S
N757 C756 1.261 . S
C758 H728 0.931 . S
C758 C755 1.357 . S
C758 C759 1.312 . S
C759 H730 0.930 . S
C759 C754 1.261 . S
C759 C758 1.312 . S
C760 O732 1.214 . S
C760 O740 1.234 . S
C761 H733 0.929 . S
C761 C764 1.391 . S
C761 C766 1.391 . S
C762 H734 0.929 . S
C762 C763 1.390 . S
C762 N765 1.391 . S
C763 H735 0.930 . S
C763 C762 1.390 . S
C763 C764 1.392 . S
C764 H736 0.929 . S
C764 C761 1.391 . S
C764 C763 1.392 . S
N765 Co709 2.257 . S
N765 C762 1.391 . S
N765 C766 1.388 . S
C766 H737 0.930 . S
C766 C761 1.391 . S
C766 N765 1.388 . S
Co767 O769 2.143 . S
Co767 O775 2.074 . S
Co767 O778 2.093 . S
Co767 O791 2.097 . S
Co767 N808 2.151 . S
Co767 N816 2.214 . S
Co768 O769 2.160 . S
Co768 O774 2.058 . S
Co768 O784 2.060 . S
Co768 O799 2.037 . S
Co768 N803 2.145 . S
Co768 N824 2.257 1_545 S
O769 Co767 2.143 . S
O769 Co768 2.160 . S
C770 O771 1.281 . S
C770 O778 1.224 . S
O771 C770 1.281 . S
C772 O773 1.245 1_565 S
C772 O784 1.231 1_565 S
O773 C772 1.245 1_545 S
O774 Co768 2.058 . S
O774 C800 1.269 . S
O775 Co767 2.074 . S
O775 C800 1.257 . S
H776 C801 0.930 . S
H777 C807 0.930 . S
O778 Co767 2.093 . S
O778 C770 1.224 . S
H779 C811 0.929 . S
H780 C813 0.930 . S
H781 C814 0.930 . S
H782 C812 0.929 . S
H783 C815 0.928 . S
O784 Co768 2.060 . S
O784 C772 1.231 1_545 S
H785 C804 0.929 . S
H786 C805 0.929 1_565 S
H787 C817 0.931 . S
H788 C809 0.929 . S
H789 C818 0.930 . S
H790 C810 0.931 . S
O791 Co767 2.097 . S
O791 C819 1.214 . S
H792 C820 0.929 . S
H793 C821 0.929 1_545 S
H794 C822 0.930 . S
H795 C823 0.929 . S
H796 C825 0.930 . S
H797 C802 0.930 1_565 S
H798 C806 0.930 . S
O799 Co768 2.037 . S
O799 C819 1.234 . S
C800 O774 1.269 . S
C800 O775 1.257 . S
C801 H776 0.930 . S
C801 C804 1.388 . S
C801 C806 1.418 . S
C802 H797 0.930 1_545 S
C802 C805 1.404 . S
C802 C806 1.353 . S
N803 Co768 2.145 . S
N803 C804 1.397 . S
N803 C805 1.334 . S
C804 H785 0.929 . S
C804 C801 1.388 . S
C804 N803 1.397 . S
C805 H786 0.929 1_545 S
C805 C802 1.404 . S
C805 N803 1.334 . S
C806 H798 0.930 . S
C806 C801 1.418 . S
C806 C802 1.353 . S
C807 H777 0.930 . S
C807 N808 1.330 . S
C807 C809 1.446 . S
N808 Co767 2.151 . S
N808 C807 1.330 . S
N808 C812 1.418 . S
C809 H788 0.929 . S
C809 C807 1.446 . S
C809 C810 1.332 . S
C810 H790 0.931 . S
C810 C809 1.332 . S
C810 C811 1.267 . S
C811 H779 0.929 . S
C811 C810 1.267 . S
C811 C812 1.251 . S
C812 H782 0.929 . S
C812 N808 1.418 . S
C812 C811 1.251 . S
C813 H780 0.930 . S
C813 C815 1.406 . S
C813 C818 1.261 . S
C814 H781 0.930 . S
C814 N816 1.325 . S
C814 C817 1.357 . S
C815 H783 0.928 . S
C815 C813 1.406 . S
C815 N816 1.261 . S
N816 Co767 2.214 . S
N816 C814 1.325 . S
N816 C815 1.261 . S
C817 H787 0.931 . S
C817 C814 1.357 . S
C817 C818 1.312 . S
C818 H789 0.930 . S
C818 C813 1.261 . S
C818 C817 1.312 . S
C819 O791 1.214 . S
C819 O799 1.234 . S
C820 H792 0.929 . S
C820 C823 1.391 . S
C820 C825 1.391 . S
C821 H793 0.929 1_565 S
C821 C822 1.390 . S
C821 N824 1.391 . S
C822 H794 0.930 . S
C822 C821 1.390 . S
C822 C823 1.392 . S
C823 H795 0.929 . S
C823 C820 1.391 . S
C823 C822 1.392 . S
N824 Co768 2.257 1_565 S
N824 C821 1.391 . S
N824 C825 1.388 . S
C825 H796 0.930 . S
C825 C820 1.391 . S
C825 N824 1.388 . S
Co826 O828 2.143 . S
Co826 O834 2.074 . S
Co826 O837 2.093 . S
Co826 O850 2.097 . S
Co826 N867 2.151 . S
Co826 N875 2.214 . S
Co827 O828 2.160 . S
Co827 O833 2.058 . S
Co827 O843 2.057 . S
Co827 O858 2.037 . S
Co827 N862 2.145 . S
Co827 N883 2.257 . S
O828 Co826 2.143 . S
O828 Co827 2.160 . S
C829 O830 1.278 . S
C829 O837 1.224 . S
O830 C829 1.278 . S
C831 O832 1.245 . S
C831 O843 1.232 . S
O832 C831 1.245 . S
O833 Co827 2.058 . S
O833 C859 1.269 . S
O834 Co826 2.074 . S
O834 C859 1.257 . S
H835 C860 0.930 . S
H836 C866 0.930 . S
O837 Co826 2.093 . S
O837 C829 1.224 . S
H838 C870 0.929 . S
H839 C872 0.930 . S
H840 C873 0.930 . S
H841 C871 0.929 . S
H842 C874 0.928 . S
O843 Co827 2.057 . S
O843 C831 1.232 . S
H844 C863 0.929 . S
H845 C864 0.929 . S
H846 C876 0.931 . S
H847 C868 0.929 . S
H848 C877 0.930 . S
H849 C869 0.931 . S
O850 Co826 2.097 . S
O850 C878 1.214 . S
H851 C879 0.929 . S
H852 C880 0.929 . S
H853 C881 0.930 . S
H854 C882 0.929 . S
H855 C884 0.930 . S
H856 C861 0.930 . S
H857 C865 0.930 . S
O858 Co827 2.037 . S
O858 C878 1.234 . S
C859 O833 1.269 . S
C859 O834 1.257 . S
C860 H835 0.930 . S
C860 C863 1.388 . S
C860 C865 1.418 . S
C861 H856 0.930 . S
C861 C864 1.404 . S
C861 C865 1.353 . S
N862 Co827 2.145 . S
N862 C863 1.397 . S
N862 C864 1.334 . S
C863 H844 0.929 . S
C863 C860 1.388 . S
C863 N862 1.397 . S
C864 H845 0.929 . S
C864 C861 1.404 . S
C864 N862 1.334 . S
C865 H857 0.930 . S
C865 C860 1.418 . S
C865 C861 1.353 . S
C866 H836 0.930 . S
C866 N867 1.330 . S
C866 C868 1.446 . S
N867 Co826 2.151 . S
N867 C866 1.330 . S
N867 C871 1.418 . S
C868 H847 0.929 . S
C868 C866 1.446 . S
C868 C869 1.332 . S
C869 H849 0.931 . S
C869 C868 1.332 . S
C869 C870 1.267 . S
C870 H838 0.929 . S
C870 C869 1.267 . S
C870 C871 1.251 . S
C871 H841 0.929 . S
C871 N867 1.418 . S
C871 C870 1.251 . S
C872 H839 0.930 . S
C872 C874 1.406 . S
C872 C877 1.261 . S
C873 H840 0.930 . S
C873 N875 1.325 . S
C873 C876 1.357 . S
C874 H842 0.928 . S
C874 C872 1.406 . S
C874 N875 1.261 . S
N875 Co826 2.214 . S
N875 C873 1.325 . S
N875 C874 1.261 . S
C876 H846 0.931 . S
C876 C873 1.357 . S
C876 C877 1.312 . S
C877 H848 0.930 . S
C877 C872 1.261 . S
C877 C876 1.312 . S
C878 O850 1.214 . S
C878 O858 1.234 . S
C879 H851 0.929 . S
C879 C882 1.391 . S
C879 C884 1.391 . S
C880 H852 0.929 . S
C880 C881 1.390 . S
C880 N883 1.391 . S
C881 H853 0.930 . S
C881 C880 1.390 . S
C881 C882 1.392 . S
C882 H854 0.929 . S
C882 C879 1.391 . S
C882 C881 1.392 . S
N883 Co827 2.257 . S
N883 C880 1.391 . S
N883 C884 1.388 . S
C884 H855 0.930 . S
C884 C879 1.391 . S
C884 N883 1.388 . S
Co885 O887 2.143 . S
Co885 O893 2.074 . S
Co885 O896 2.093 . S
Co885 O909 2.097 . S
Co885 N926 2.151 . S
Co885 N934 2.214 . S
Co886 O887 2.160 . S
Co886 O892 2.058 . S
Co886 O902 2.060 . S
Co886 O917 2.037 . S
Co886 N921 2.145 . S
Co886 N942 2.257 1_565 S
O887 Co885 2.143 . S
O887 Co886 2.160 . S
C888 O889 1.281 . S
C888 O896 1.224 . S
O889 C888 1.281 . S
C890 O891 1.245 1_545 S
C890 O902 1.231 1_545 S
O891 C890 1.245 1_565 S
O892 Co886 2.058 . S
O892 C918 1.269 . S
O893 Co885 2.074 . S
O893 C918 1.257 . S
H894 C919 0.930 . S
H895 C925 0.930 . S
O896 Co885 2.093 . S
O896 C888 1.224 . S
H897 C929 0.929 . S
H898 C931 0.930 . S
H899 C932 0.930 . S
H900 C930 0.929 . S
H901 C933 0.928 . S
O902 Co886 2.060 . S
O902 C890 1.231 1_565 S
H903 C922 0.929 . S
H904 C923 0.929 1_545 S
H905 C935 0.931 1_455 S
H906 C927 0.929 . S
H907 C936 0.930 1_455 S
H908 C928 0.931 . S
O909 Co885 2.097 . S
O909 C937 1.214 1_655 S
H910 C938 0.929 . S
H911 C939 0.929 1_565 S
H912 C940 0.930 . S
H913 C941 0.929 . S
H914 C943 0.930 . S
H915 C920 0.930 1_545 S
H916 C924 0.930 . S
O917 Co886 2.037 . S
O917 C937 1.234 1_655 S
C918 O892 1.269 . S
C918 O893 1.257 . S
C919 H894 0.930 . S
C919 C922 1.388 . S
C919 C924 1.418 . S
C920 H915 0.930 1_565 S
C920 C923 1.404 . S
C920 C924 1.353 . S
N921 Co886 2.145 . S
N921 C922 1.397 . S
N921 C923 1.334 . S
C922 H903 0.929 . S
C922 C919 1.388 . S
C922 N921 1.397 . S
C923 H904 0.929 1_565 S
C923 C920 1.404 . S
C923 N921 1.334 . S
C924 H916 0.930 . S
C924 C919 1.418 . S
C924 C920 1.353 . S
C925 H895 0.930 . S
C925 N926 1.330 . S
C925 C927 1.446 . S
N926 Co885 2.151 . S
N926 C925 1.330 . S
N926 C930 1.418 . S
C927 H906 0.929 . S
C927 C925 1.446 . S
C927 C928 1.332 . S
C928 H908 0.931 . S
C928 C927 1.332 . S
C928 C929 1.267 . S
C929 H897 0.929 . S
C929 C928 1.267 . S
C929 C930 1.251 . S
C930 H900 0.929 . S
C930 N926 1.418 . S
C930 C929 1.251 . S
C931 H898 0.930 . S
C931 C933 1.406 . S
C931 C936 1.261 . S
C932 H899 0.930 . S
C932 N934 1.325 . S
C932 C935 1.357 . S
C933 H901 0.928 . S
C933 C931 1.406 . S
C933 N934 1.261 . S
N934 Co885 2.214 . S
N934 C932 1.325 . S
N934 C933 1.261 . S
C935 H905 0.931 1_655 S
C935 C932 1.357 . S
C935 C936 1.312 . S
C936 H907 0.930 1_655 S
C936 C931 1.261 . S
C936 C935 1.312 . S
C937 O909 1.214 1_455 S
C937 O917 1.234 1_455 S
C938 H910 0.929 . S
C938 C941 1.391 1_655 S
C938 C943 1.391 . S
C939 H911 0.929 1_545 S
C939 C940 1.390 . S
C939 N942 1.391 1_455 S
C940 H912 0.930 . S
C940 C939 1.390 . S
C940 C941 1.392 . S
C941 H913 0.929 . S
C941 C938 1.391 1_455 S
C941 C940 1.392 . S
N942 Co886 2.257 1_545 S
N942 C939 1.391 1_655 S
N942 C943 1.388 . S
C943 H914 0.930 . S
C943 C938 1.391 . S
C943 N942 1.388 . S
Co944 O946 2.143 . S
Co944 O952 2.074 . S
Co944 O955 2.093 . S
Co944 O968 2.097 . S
Co944 N985 2.151 . S
Co944 N993 2.214 . S
Co945 O946 2.160 . S
Co945 O951 2.058 . S
Co945 O961 2.057 . S
Co945 O976 2.037 . S
Co945 N980 2.145 . S
Co945 N1001 2.257 . S
O946 Co944 2.143 . S
O946 Co945 2.160 . S
C947 O948 1.278 . S
C947 O955 1.224 . S
O948 C947 1.278 . S
C949 O950 1.245 . S
C949 O961 1.232 . S
O950 C949 1.245 . S
O951 Co945 2.058 . S
O951 C977 1.269 . S
O952 Co944 2.074 . S
O952 C977 1.257 . S
H953 C978 0.930 . S
H954 C984 0.930 . S
O955 Co944 2.093 . S
O955 C947 1.224 . S
H956 C988 0.929 . S
H957 C990 0.930 . S
H958 C991 0.930 . S
H959 C989 0.929 . S
H960 C992 0.928 . S
O961 Co945 2.057 . S
O961 C949 1.232 . S
H962 C981 0.929 . S
H963 C982 0.929 . S
H964 C994 0.931 . S
H965 C986 0.929 . S
H966 C995 0.930 . S
H967 C987 0.931 . S
O968 Co944 2.097 . S
O968 C996 1.214 . S
H969 C997 0.929 . S
H970 C998 0.929 . S
H971 C999 0.930 . S
H972 C1000 0.929 . S
H973 C1002 0.930 . S
H974 C979 0.930 . S
H975 C983 0.930 . S
O976 Co945 2.037 . S
O976 C996 1.234 . S
C977 O951 1.269 . S
C977 O952 1.257 . S
C978 H953 0.930 . S
C978 C981 1.388 . S
C978 C983 1.418 . S
C979 H974 0.930 . S
C979 C982 1.404 . S
C979 C983 1.353 . S
N980 Co945 2.145 . S
N980 C981 1.397 . S
N980 C982 1.334 . S
C981 H962 0.929 . S
C981 C978 1.388 . S
C981 N980 1.397 . S
C982 H963 0.929 . S
C982 C979 1.404 . S
C982 N980 1.334 . S
C983 H975 0.930 . S
C983 C978 1.418 . S
C983 C979 1.353 . S
C984 H954 0.930 . S
C984 N985 1.330 . S
C984 C986 1.446 . S
N985 Co944 2.151 . S
N985 C984 1.330 . S
N985 C989 1.418 . S
C986 H965 0.929 . S
C986 C984 1.446 . S
C986 C987 1.332 . S
C987 H967 0.931 . S
C987 C986 1.332 . S
C987 C988 1.267 . S
C988 H956 0.929 . S
C988 C987 1.267 . S
C988 C989 1.251 . S
C989 H959 0.929 . S
C989 N985 1.418 . S
C989 C988 1.251 . S
C990 H957 0.930 . S
C990 C992 1.406 . S
C990 C995 1.261 . S
C991 H958 0.930 . S
C991 N993 1.325 . S
C991 C994 1.357 . S
C992 H960 0.928 . S
C992 C990 1.406 . S
C992 N993 1.261 . S
N993 Co944 2.214 . S
N993 C991 1.325 . S
N993 C992 1.261 . S
C994 H964 0.931 . S
C994 C991 1.357 . S
C994 C995 1.312 . S
C995 H966 0.930 . S
C995 C990 1.261 . S
C995 C994 1.312 . S
C996 O968 1.214 . S
C996 O976 1.234 . S
C997 H969 0.929 . S
C997 C1000 1.391 . S
C997 C1002 1.391 . S
C998 H970 0.929 . S
C998 C999 1.390 . S
C998 N1001 1.391 . S
C999 H971 0.930 . S
C999 C998 1.390 . S
C999 C1000 1.392 . S
C1000 H972 0.929 . S
C1000 C997 1.391 . S
C1000 C999 1.392 . S
N1001 Co945 2.257 . S
N1001 C998 1.391 . S
N1001 C1002 1.388 . S
C1002 H973 0.930 . S
C1002 C997 1.391 . S
C1002 N1001 1.388 . S
Co1003 O1005 2.143 . S
Co1003 O1011 2.074 . S
Co1003 O1014 2.093 . S
Co1003 O1027 2.097 . S
Co1003 N1044 2.151 . S
Co1003 N1052 2.214 . S
Co1004 O1005 2.160 . S
Co1004 O1010 2.058 . S
Co1004 O1020 2.057 . S
Co1004 O1035 2.037 . S
Co1004 N1039 2.145 . S
Co1004 N1060 2.257 . S
O1005 Co1003 2.143 . S
O1005 Co1004 2.160 . S
C1006 O1007 1.278 . S
C1006 O1014 1.224 . S
O1007 C1006 1.278 . S
C1008 O1009 1.245 . S
C1008 O1020 1.232 . S
O1009 C1008 1.245 . S
O1010 Co1004 2.058 . S
O1010 C1036 1.269 . S
O1011 Co1003 2.074 . S
O1011 C1036 1.257 . S
H1012 C1037 0.930 . S
H1013 C1043 0.930 . S
O1014 Co1003 2.093 . S
O1014 C1006 1.224 . S
H1015 C1047 0.929 . S
H1016 C1049 0.930 . S
H1017 C1050 0.930 . S
H1018 C1048 0.929 . S
H1019 C1051 0.928 . S
O1020 Co1004 2.057 . S
O1020 C1008 1.232 . S
H1021 C1040 0.929 . S
H1022 C1041 0.929 . S
H1023 C1053 0.931 . S
H1024 C1045 0.929 . S
H1025 C1054 0.930 . S
H1026 C1046 0.931 . S
O1027 Co1003 2.097 . S
O1027 C1055 1.214 . S
H1028 C1056 0.929 . S
H1029 C1057 0.929 . S
H1030 C1058 0.930 . S
H1031 C1059 0.929 . S
H1032 C1061 0.930 . S
H1033 C1038 0.930 . S
H1034 C1042 0.930 . S
O1035 Co1004 2.037 . S
O1035 C1055 1.234 . S
C1036 O1010 1.269 . S
C1036 O1011 1.257 . S
C1037 H1012 0.930 . S
C1037 C1040 1.388 . S
C1037 C1042 1.418 . S
C1038 H1033 0.930 . S
C1038 C1041 1.404 . S
C1038 C1042 1.353 . S
N1039 Co1004 2.145 . S
N1039 C1040 1.397 . S
N1039 C1041 1.334 . S
C1040 H1021 0.929 . S
C1040 C1037 1.388 . S
C1040 N1039 1.397 . S
C1041 H1022 0.929 . S
C1041 C1038 1.404 . S
C1041 N1039 1.334 . S
C1042 H1034 0.930 . S
C1042 C1037 1.418 . S
C1042 C1038 1.353 . S
C1043 H1013 0.930 . S
C1043 N1044 1.330 . S
C1043 C1045 1.446 . S
N1044 Co1003 2.151 . S
N1044 C1043 1.330 . S
N1044 C1048 1.418 . S
C1045 H1024 0.929 . S
C1045 C1043 1.446 . S
C1045 C1046 1.332 . S
C1046 H1026 0.931 . S
C1046 C1045 1.332 . S
C1046 C1047 1.267 . S
C1047 H1015 0.929 . S
C1047 C1046 1.267 . S
C1047 C1048 1.251 . S
C1048 H1018 0.929 . S
C1048 N1044 1.418 . S
C1048 C1047 1.251 . S
C1049 H1016 0.930 . S
C1049 C1051 1.406 . S
C1049 C1054 1.261 . S
C1050 H1017 0.930 . S
C1050 N1052 1.325 . S
C1050 C1053 1.357 . S
C1051 H1019 0.928 . S
C1051 C1049 1.406 . S
C1051 N1052 1.261 . S
N1052 Co1003 2.214 . S
N1052 C1050 1.325 . S
N1052 C1051 1.261 . S
C1053 H1023 0.931 . S
C1053 C1050 1.357 . S
C1053 C1054 1.312 . S
C1054 H1025 0.930 . S
C1054 C1049 1.261 . S
C1054 C1053 1.312 . S
C1055 O1027 1.214 . S
C1055 O1035 1.234 . S
C1056 H1028 0.929 . S
C1056 C1059 1.391 . S
C1056 C1061 1.391 . S
C1057 H1029 0.929 . S
C1057 C1058 1.390 . S
C1057 N1060 1.391 . S
C1058 H1030 0.930 . S
C1058 C1057 1.390 . S
C1058 C1059 1.392 . S
C1059 H1031 0.929 . S
C1059 C1056 1.391 . S
C1059 C1058 1.392 . S
N1060 Co1004 2.257 . S
N1060 C1057 1.391 . S
N1060 C1061 1.388 . S
C1061 H1032 0.930 . S
C1061 C1056 1.391 . S
C1061 N1060 1.388 . S
Co1062 O1064 2.143 . S
Co1062 O1070 2.074 . S
Co1062 O1073 2.093 . S
Co1062 O1086 2.097 . S
Co1062 N1103 2.151 . S
Co1062 N1111 2.214 . S
Co1063 O1064 2.160 . S
Co1063 O1069 2.058 . S
Co1063 O1079 2.057 . S
Co1063 O1094 2.037 . S
Co1063 N1098 2.145 . S
Co1063 N1119 2.257 . S
O1064 Co1062 2.143 . S
O1064 Co1063 2.160 . S
C1065 O1066 1.278 . S
C1065 O1073 1.224 . S
O1066 C1065 1.278 . S
C1067 O1068 1.245 . S
C1067 O1079 1.232 . S
O1068 C1067 1.245 . S
O1069 Co1063 2.058 . S
O1069 C1095 1.269 . S
O1070 Co1062 2.074 . S
O1070 C1095 1.257 . S
H1071 C1096 0.930 . S
H1072 C1102 0.930 . S
O1073 Co1062 2.093 . S
O1073 C1065 1.224 . S
H1074 C1106 0.929 . S
H1075 C1108 0.930 . S
H1076 C1109 0.930 . S
H1077 C1107 0.929 . S
H1078 C1110 0.928 . S
O1079 Co1063 2.057 . S
O1079 C1067 1.232 . S
H1080 C1099 0.929 . S
H1081 C1100 0.929 . S
H1082 C1112 0.931 . S
H1083 C1104 0.929 . S
H1084 C1113 0.930 . S
H1085 C1105 0.931 . S
O1086 Co1062 2.097 . S
O1086 C1114 1.214 . S
H1087 C1115 0.929 . S
H1088 C1116 0.929 . S
H1089 C1117 0.930 . S
H1090 C1118 0.929 . S
H1091 C1120 0.930 . S
H1092 C1097 0.930 . S
H1093 C1101 0.930 . S
O1094 Co1063 2.037 . S
O1094 C1114 1.234 . S
C1095 O1069 1.269 . S
C1095 O1070 1.257 . S
C1096 H1071 0.930 . S
C1096 C1099 1.388 . S
C1096 C1101 1.418 . S
C1097 H1092 0.930 . S
C1097 C1100 1.404 . S
C1097 C1101 1.353 . S
N1098 Co1063 2.145 . S
N1098 C1099 1.397 . S
N1098 C1100 1.334 . S
C1099 H1080 0.929 . S
C1099 C1096 1.388 . S
C1099 N1098 1.397 . S
C1100 H1081 0.929 . S
C1100 C1097 1.404 . S
C1100 N1098 1.334 . S
C1101 H1093 0.930 . S
C1101 C1096 1.418 . S
C1101 C1097 1.353 . S
C1102 H1072 0.930 . S
C1102 N1103 1.330 . S
C1102 C1104 1.446 . S
N1103 Co1062 2.151 . S
N1103 C1102 1.330 . S
N1103 C1107 1.418 . S
C1104 H1083 0.929 . S
C1104 C1102 1.446 . S
C1104 C1105 1.332 . S
C1105 H1085 0.931 . S
C1105 C1104 1.332 . S
C1105 C1106 1.267 . S
C1106 H1074 0.929 . S
C1106 C1105 1.267 . S
C1106 C1107 1.251 . S
C1107 H1077 0.929 . S
C1107 N1103 1.418 . S
C1107 C1106 1.251 . S
C1108 H1075 0.930 . S
C1108 C1110 1.406 . S
C1108 C1113 1.261 . S
C1109 H1076 0.930 . S
C1109 N1111 1.325 . S
C1109 C1112 1.357 . S
C1110 H1078 0.928 . S
C1110 C1108 1.406 . S
C1110 N1111 1.261 . S
N1111 Co1062 2.214 . S
N1111 C1109 1.325 . S
N1111 C1110 1.261 . S
C1112 H1082 0.931 . S
C1112 C1109 1.357 . S
C1112 C1113 1.312 . S
C1113 H1084 0.930 . S
C1113 C1108 1.261 . S
C1113 C1112 1.312 . S
C1114 O1086 1.214 . S
C1114 O1094 1.234 . S
C1115 H1087 0.929 . S
C1115 C1118 1.391 . S
C1115 C1120 1.391 . S
C1116 H1088 0.929 . S
C1116 C1117 1.390 . S
C1116 N1119 1.391 . S
C1117 H1089 0.930 . S
C1117 C1116 1.390 . S
C1117 C1118 1.392 . S
C1118 H1090 0.929 . S
C1118 C1115 1.391 . S
C1118 C1117 1.392 . S
N1119 Co1063 2.257 . S
N1119 C1116 1.391 . S
N1119 C1120 1.388 . S
C1120 H1091 0.930 . S
C1120 C1115 1.391 . S
C1120 N1119 1.388 . S
Co1121 O1123 2.143 . S
Co1121 O1129 2.074 . S
Co1121 O1132 2.093 . S
Co1121 O1145 2.097 . S
Co1121 N1162 2.151 . S
Co1121 N1170 2.214 . S
Co1122 O1123 2.160 . S
Co1122 O1128 2.058 . S
Co1122 O1138 2.057 . S
Co1122 O1153 2.037 . S
Co1122 N1157 2.145 . S
Co1122 N1178 2.257 . S
O1123 Co1121 2.143 . S
O1123 Co1122 2.160 . S
C1124 O1125 1.278 . S
C1124 O1132 1.224 . S
O1125 C1124 1.278 . S
C1126 O1127 1.245 . S
C1126 O1138 1.232 . S
O1127 C1126 1.245 . S
O1128 Co1122 2.058 . S
O1128 C1154 1.269 . S
O1129 Co1121 2.074 . S
O1129 C1154 1.257 . S
H1130 C1155 0.930 . S
H1131 C1161 0.930 . S
O1132 Co1121 2.093 . S
O1132 C1124 1.224 . S
H1133 C1165 0.929 . S
H1134 C1167 0.930 . S
H1135 C1168 0.930 . S
H1136 C1166 0.929 . S
H1137 C1169 0.928 . S
O1138 Co1122 2.057 . S
O1138 C1126 1.232 . S
H1139 C1158 0.929 . S
H1140 C1159 0.929 . S
H1141 C1171 0.931 1_455 S
H1142 C1163 0.929 . S
H1143 C1172 0.930 1_455 S
H1144 C1164 0.931 . S
O1145 Co1121 2.097 . S
O1145 C1173 1.214 1_655 S
H1146 C1174 0.929 . S
H1147 C1175 0.929 . S
H1148 C1176 0.930 . S
H1149 C1177 0.929 . S
H1150 C1179 0.930 . S
H1151 C1156 0.930 . S
H1152 C1160 0.930 . S
O1153 Co1122 2.037 . S
O1153 C1173 1.234 1_655 S
C1154 O1128 1.269 . S
C1154 O1129 1.257 . S
C1155 H1130 0.930 . S
C1155 C1158 1.388 . S
C1155 C1160 1.418 . S
C1156 H1151 0.930 . S
C1156 C1159 1.404 . S
C1156 C1160 1.353 . S
N1157 Co1122 2.145 . S
N1157 C1158 1.397 . S
N1157 C1159 1.334 . S
C1158 H1139 0.929 . S
C1158 C1155 1.388 . S
C1158 N1157 1.397 . S
C1159 H1140 0.929 . S
C1159 C1156 1.404 . S
C1159 N1157 1.334 . S
C1160 H1152 0.930 . S
C1160 C1155 1.418 . S
C1160 C1156 1.353 . S
C1161 H1131 0.930 . S
C1161 N1162 1.330 . S
C1161 C1163 1.446 . S
N1162 Co1121 2.151 . S
N1162 C1161 1.330 . S
N1162 C1166 1.418 . S
C1163 H1142 0.929 . S
C1163 C1161 1.446 . S
C1163 C1164 1.332 . S
C1164 H1144 0.931 . S
C1164 C1163 1.332 . S
C1164 C1165 1.267 . S
C1165 H1133 0.929 . S
C1165 C1164 1.267 . S
C1165 C1166 1.251 . S
C1166 H1136 0.929 . S
C1166 N1162 1.418 . S
C1166 C1165 1.251 . S
C1167 H1134 0.930 . S
C1167 C1169 1.406 . S
C1167 C1172 1.261 . S
C1168 H1135 0.930 . S
C1168 N1170 1.325 . S
C1168 C1171 1.357 . S
C1169 H1137 0.928 . S
C1169 C1167 1.406 . S
C1169 N1170 1.261 . S
N1170 Co1121 2.214 . S
N1170 C1168 1.325 . S
N1170 C1169 1.261 . S
C1171 H1141 0.931 1_655 S
C1171 C1168 1.357 . S
C1171 C1172 1.312 . S
C1172 H1143 0.930 1_655 S
C1172 C1167 1.261 . S
C1172 C1171 1.312 . S
C1173 O1145 1.214 1_455 S
C1173 O1153 1.234 1_455 S
C1174 H1146 0.929 . S
C1174 C1177 1.391 1_655 S
C1174 C1179 1.391 . S
C1175 H1147 0.929 . S
C1175 C1176 1.390 . S
C1175 N1178 1.391 1_455 S
C1176 H1148 0.930 . S
C1176 C1175 1.390 . S
C1176 C1177 1.392 . S
C1177 H1149 0.929 . S
C1177 C1174 1.391 1_455 S
C1177 C1176 1.392 . S
N1178 Co1122 2.257 . S
N1178 C1175 1.391 1_655 S
N1178 C1179 1.388 . S
C1179 H1150 0.930 . S
C1179 C1174 1.391 . S
C1179 N1178 1.388 . S
Co1180 O1182 2.143 . S
Co1180 O1188 2.074 . S
Co1180 O1191 2.093 . S
Co1180 O1204 2.097 . S
Co1180 N1221 2.151 . S
Co1180 N1229 2.214 . S
Co1181 O1182 2.160 . S
Co1181 O1187 2.058 . S
Co1181 O1197 2.057 . S
Co1181 O1212 2.037 . S
Co1181 N1216 2.145 . S
Co1181 N1237 2.257 . S
O1182 Co1180 2.143 . S
O1182 Co1181 2.160 . S
C1183 O1184 1.278 . S
C1183 O1191 1.224 . S
O1184 C1183 1.278 . S
C1185 O1186 1.245 . S
C1185 O1197 1.232 . S
O1186 C1185 1.245 . S
O1187 Co1181 2.058 . S
O1187 C1213 1.269 . S
O1188 Co1180 2.074 . S
O1188 C1213 1.257 . S
H1189 C1214 0.930 . S
H1190 C1220 0.930 . S
O1191 Co1180 2.093 . S
O1191 C1183 1.224 . S
H1192 C1224 0.929 . S
H1193 C1226 0.930 . S
H1194 C1227 0.930 . S
H1195 C1225 0.929 . S
H1196 C1228 0.928 . S
O1197 Co1181 2.057 . S
O1197 C1185 1.232 . S
H1198 C1217 0.929 . S
H1199 C1218 0.929 . S
H1200 C1230 0.931 . S
H1201 C1222 0.929 . S
H1202 C1231 0.930 . S
H1203 C1223 0.931 . S
O1204 Co1180 2.097 . S
O1204 C1232 1.214 . S
H1205 C1233 0.929 . S
H1206 C1234 0.929 . S
H1207 C1235 0.930 . S
H1208 C1236 0.929 . S
H1209 C1238 0.930 . S
H1210 C1215 0.930 . S
H1211 C1219 0.930 . S
O1212 Co1181 2.037 . S
O1212 C1232 1.234 . S
C1213 O1187 1.269 . S
C1213 O1188 1.257 . S
C1214 H1189 0.930 . S
C1214 C1217 1.388 . S
C1214 C1219 1.418 . S
C1215 H1210 0.930 . S
C1215 C1218 1.404 . S
C1215 C1219 1.353 . S
N1216 Co1181 2.145 . S
N1216 C1217 1.397 . S
N1216 C1218 1.334 . S
C1217 H1198 0.929 . S
C1217 C1214 1.388 . S
C1217 N1216 1.397 . S
C1218 H1199 0.929 . S
C1218 C1215 1.404 . S
C1218 N1216 1.334 . S
C1219 H1211 0.930 . S
C1219 C1214 1.418 . S
C1219 C1215 1.353 . S
C1220 H1190 0.930 . S
C1220 N1221 1.330 . S
C1220 C1222 1.446 . S
N1221 Co1180 2.151 . S
N1221 C1220 1.330 . S
N1221 C1225 1.418 . S
C1222 H1201 0.929 . S
C1222 C1220 1.446 . S
C1222 C1223 1.332 . S
C1223 H1203 0.931 . S
C1223 C1222 1.332 . S
C1223 C1224 1.267 . S
C1224 H1192 0.929 . S
C1224 C1223 1.267 . S
C1224 C1225 1.251 . S
C1225 H1195 0.929 . S
C1225 N1221 1.418 . S
C1225 C1224 1.251 . S
C1226 H1193 0.930 . S
C1226 C1228 1.406 . S
C1226 C1231 1.261 . S
C1227 H1194 0.930 . S
C1227 N1229 1.325 . S
C1227 C1230 1.357 . S
C1228 H1196 0.928 . S
C1228 C1226 1.406 . S
C1228 N1229 1.261 . S
N1229 Co1180 2.214 . S
N1229 C1227 1.325 . S
N1229 C1228 1.261 . S
C1230 H1200 0.931 . S
C1230 C1227 1.357 . S
C1230 C1231 1.312 . S
C1231 H1202 0.930 . S
C1231 C1226 1.261 . S
C1231 C1230 1.312 . S
C1232 O1204 1.214 . S
C1232 O1212 1.234 . S
C1233 H1205 0.929 . S
C1233 C1236 1.391 . S
C1233 C1238 1.391 . S
C1234 H1206 0.929 . S
C1234 C1235 1.390 . S
C1234 N1237 1.391 . S
C1235 H1207 0.930 . S
C1235 C1234 1.390 . S
C1235 C1236 1.392 . S
C1236 H1208 0.929 . S
C1236 C1233 1.391 . S
C1236 C1235 1.392 . S
N1237 Co1181 2.257 . S
N1237 C1234 1.391 . S
N1237 C1238 1.388 . S
C1238 H1209 0.930 . S
C1238 C1233 1.391 . S
C1238 N1237 1.388 . S
Co1239 O1241 2.143 . S
Co1239 O1247 2.074 . S
Co1239 O1250 2.093 . S
Co1239 O1263 2.097 . S
Co1239 N1280 2.151 . S
Co1239 N1288 2.214 . S
Co1240 O1241 2.160 . S
Co1240 O1246 2.058 . S
Co1240 O1256 2.057 . S
Co1240 O1271 2.037 . S
Co1240 N1275 2.145 . S
Co1240 N1296 2.257 . S
O1241 Co1239 2.143 . S
O1241 Co1240 2.160 . S
C1242 O1243 1.278 . S
C1242 O1250 1.224 . S
O1243 C1242 1.278 . S
C1244 O1245 1.245 . S
C1244 O1256 1.232 . S
O1245 C1244 1.245 . S
O1246 Co1240 2.058 . S
O1246 C1272 1.269 . S
O1247 Co1239 2.074 . S
O1247 C1272 1.257 . S
H1248 C1273 0.930 . S
H1249 C1279 0.930 . S
O1250 Co1239 2.093 . S
O1250 C1242 1.224 . S
H1251 C1283 0.929 . S
H1252 C1285 0.930 . S
H1253 C1286 0.930 . S
H1254 C1284 0.929 . S
H1255 C1287 0.928 . S
O1256 Co1240 2.057 . S
O1256 C1244 1.232 . S
H1257 C1276 0.929 . S
H1258 C1277 0.929 . S
H1259 C1289 0.931 1_455 S
H1260 C1281 0.929 . S
H1261 C1290 0.930 1_455 S
H1262 C1282 0.931 . S
O1263 Co1239 2.097 . S
O1263 C1291 1.214 1_655 S
H1264 C1292 0.929 . S
H1265 C1293 0.929 . S
H1266 C1294 0.930 . S
H1267 C1295 0.929 . S
H1268 C1297 0.930 . S
H1269 C1274 0.930 . S
H1270 C1278 0.930 . S
O1271 Co1240 2.037 . S
O1271 C1291 1.234 1_655 S
C1272 O1246 1.269 . S
C1272 O1247 1.257 . S
C1273 H1248 0.930 . S
C1273 C1276 1.388 . S
C1273 C1278 1.418 . S
C1274 H1269 0.930 . S
C1274 C1277 1.404 . S
C1274 C1278 1.353 . S
N1275 Co1240 2.145 . S
N1275 C1276 1.397 . S
N1275 C1277 1.334 . S
C1276 H1257 0.929 . S
C1276 C1273 1.388 . S
C1276 N1275 1.397 . S
C1277 H1258 0.929 . S
C1277 C1274 1.404 . S
C1277 N1275 1.334 . S
C1278 H1270 0.930 . S
C1278 C1273 1.418 . S
C1278 C1274 1.353 . S
C1279 H1249 0.930 . S
C1279 N1280 1.330 . S
C1279 C1281 1.446 . S
N1280 Co1239 2.151 . S
N1280 C1279 1.330 . S
N1280 C1284 1.418 . S
C1281 H1260 0.929 . S
C1281 C1279 1.446 . S
C1281 C1282 1.332 . S
C1282 H1262 0.931 . S
C1282 C1281 1.332 . S
C1282 C1283 1.267 . S
C1283 H1251 0.929 . S
C1283 C1282 1.267 . S
C1283 C1284 1.251 . S
C1284 H1254 0.929 . S
C1284 N1280 1.418 . S
C1284 C1283 1.251 . S
C1285 H1252 0.930 . S
C1285 C1287 1.406 . S
C1285 C1290 1.261 . S
C1286 H1253 0.930 . S
C1286 N1288 1.325 . S
C1286 C1289 1.357 . S
C1287 H1255 0.928 . S
C1287 C1285 1.406 . S
C1287 N1288 1.261 . S
N1288 Co1239 2.214 . S
N1288 C1286 1.325 . S
N1288 C1287 1.261 . S
C1289 H1259 0.931 1_655 S
C1289 C1286 1.357 . S
C1289 C1290 1.312 . S
C1290 H1261 0.930 1_655 S
C1290 C1285 1.261 . S
C1290 C1289 1.312 . S
C1291 O1263 1.214 1_455 S
C1291 O1271 1.234 1_455 S
C1292 H1264 0.929 . S
C1292 C1295 1.391 1_655 S
C1292 C1297 1.391 . S
C1293 H1265 0.929 . S
C1293 C1294 1.390 . S
C1293 N1296 1.391 1_455 S
C1294 H1266 0.930 . S
C1294 C1293 1.390 . S
C1294 C1295 1.392 . S
C1295 H1267 0.929 . S
C1295 C1292 1.391 1_455 S
C1295 C1294 1.392 . S
N1296 Co1240 2.257 . S
N1296 C1293 1.391 1_655 S
N1296 C1297 1.388 . S
C1297 H1268 0.930 . S
C1297 C1292 1.391 . S
C1297 N1296 1.388 . S
Co1298 O1300 2.143 . S
Co1298 O1306 2.074 . S
Co1298 O1309 2.093 . S
Co1298 O1322 2.097 . S
Co1298 N1339 2.151 . S
Co1298 N1347 2.214 . S
Co1299 O1300 2.160 . S
Co1299 O1305 2.058 . S
Co1299 O1315 2.057 . S
Co1299 O1330 2.037 . S
Co1299 N1334 2.145 . S
Co1299 N1355 2.257 . S
O1300 Co1298 2.143 . S
O1300 Co1299 2.160 . S
C1301 O1302 1.278 . S
C1301 O1309 1.224 . S
O1302 C1301 1.278 . S
C1303 O1304 1.245 . S
C1303 O1315 1.232 . S
O1304 C1303 1.245 . S
O1305 Co1299 2.058 . S
O1305 C1331 1.269 . S
O1306 Co1298 2.074 . S
O1306 C1331 1.257 . S
H1307 C1332 0.930 . S
H1308 C1338 0.930 . S
O1309 Co1298 2.093 . S
O1309 C1301 1.224 . S
H1310 C1342 0.929 . S
H1311 C1344 0.930 . S
H1312 C1345 0.930 . S
H1313 C1343 0.929 . S
H1314 C1346 0.928 . S
O1315 Co1299 2.057 . S
O1315 C1303 1.232 . S
H1316 C1335 0.929 . S
H1317 C1336 0.929 . S
H1318 C1348 0.931 . S
H1319 C1340 0.929 . S
H1320 C1349 0.930 . S
H1321 C1341 0.931 . S
O1322 Co1298 2.097 . S
O1322 C1350 1.214 . S
H1323 C1351 0.929 . S
H1324 C1352 0.929 . S
H1325 C1353 0.930 . S
H1326 C1354 0.929 . S
H1327 C1356 0.930 . S
H1328 C1333 0.930 . S
H1329 C1337 0.930 . S
O1330 Co1299 2.037 . S
O1330 C1350 1.234 . S
C1331 O1305 1.269 . S
C1331 O1306 1.257 . S
C1332 H1307 0.930 . S
C1332 C1335 1.388 . S
C1332 C1337 1.418 . S
C1333 H1328 0.930 . S
C1333 C1336 1.404 . S
C1333 C1337 1.353 . S
N1334 Co1299 2.145 . S
N1334 C1335 1.397 . S
N1334 C1336 1.334 . S
C1335 H1316 0.929 . S
C1335 C1332 1.388 . S
C1335 N1334 1.397 . S
C1336 H1317 0.929 . S
C1336 C1333 1.404 . S
C1336 N1334 1.334 . S
C1337 H1329 0.930 . S
C1337 C1332 1.418 . S
C1337 C1333 1.353 . S
C1338 H1308 0.930 . S
C1338 N1339 1.330 . S
C1338 C1340 1.446 . S
N1339 Co1298 2.151 . S
N1339 C1338 1.330 . S
N1339 C1343 1.418 . S
C1340 H1319 0.929 . S
C1340 C1338 1.446 . S
C1340 C1341 1.332 . S
C1341 H1321 0.931 . S
C1341 C1340 1.332 . S
C1341 C1342 1.267 . S
C1342 H1310 0.929 . S
C1342 C1341 1.267 . S
C1342 C1343 1.251 . S
C1343 H1313 0.929 . S
C1343 N1339 1.418 . S
C1343 C1342 1.251 . S
C1344 H1311 0.930 . S
C1344 C1346 1.406 . S
C1344 C1349 1.261 . S
C1345 H1312 0.930 . S
C1345 N1347 1.325 . S
C1345 C1348 1.357 . S
C1346 H1314 0.928 . S
C1346 C1344 1.406 . S
C1346 N1347 1.261 . S
N1347 Co1298 2.214 . S
N1347 C1345 1.325 . S
N1347 C1346 1.261 . S
C1348 H1318 0.931 . S
C1348 C1345 1.357 . S
C1348 C1349 1.312 . S
C1349 H1320 0.930 . S
C1349 C1344 1.261 . S
C1349 C1348 1.312 . S
C1350 O1322 1.214 . S
C1350 O1330 1.234 . S
C1351 H1323 0.929 . S
C1351 C1354 1.391 . S
C1351 C1356 1.391 . S
C1352 H1324 0.929 . S
C1352 C1353 1.390 . S
C1352 N1355 1.391 . S
C1353 H1325 0.930 . S
C1353 C1352 1.390 . S
C1353 C1354 1.392 . S
C1354 H1326 0.929 . S
C1354 C1351 1.391 . S
C1354 C1353 1.392 . S
N1355 Co1299 2.257 . S
N1355 C1352 1.391 . S
N1355 C1356 1.388 . S
C1356 H1327 0.930 . S
C1356 C1351 1.391 . S
C1356 N1355 1.388 . S
Co1357 O1359 2.143 . S
Co1357 O1365 2.074 . S
Co1357 O1368 2.093 . S
Co1357 O1381 2.097 . S
Co1357 N1398 2.151 . S
Co1357 N1406 2.214 . S
Co1358 O1359 2.160 . S
Co1358 O1364 2.058 . S
Co1358 O1374 2.057 . S
Co1358 O1389 2.037 . S
Co1358 N1393 2.145 . S
Co1358 N1414 2.257 . S
O1359 Co1357 2.143 . S
O1359 Co1358 2.160 . S
C1360 O1361 1.278 . S
C1360 O1368 1.224 . S
O1361 C1360 1.278 . S
C1362 O1363 1.245 . S
C1362 O1374 1.232 . S
O1363 C1362 1.245 . S
O1364 Co1358 2.058 . S
O1364 C1390 1.269 . S
O1365 Co1357 2.074 . S
O1365 C1390 1.257 . S
H1366 C1391 0.930 . S
H1367 C1397 0.930 . S
O1368 Co1357 2.093 . S
O1368 C1360 1.224 . S
H1369 C1401 0.929 . S
H1370 C1403 0.930 . S
H1371 C1404 0.930 . S
H1372 C1402 0.929 . S
H1373 C1405 0.928 . S
O1374 Co1358 2.057 . S
O1374 C1362 1.232 . S
H1375 C1394 0.929 . S
H1376 C1395 0.929 . S
H1377 C1407 0.931 . S
H1378 C1399 0.929 . S
H1379 C1408 0.930 . S
H1380 C1400 0.931 . S
O1381 Co1357 2.097 . S
O1381 C1409 1.214 . S
H1382 C1410 0.929 . S
H1383 C1411 0.929 . S
H1384 C1412 0.930 . S
H1385 C1413 0.929 . S
H1386 C1415 0.930 . S
H1387 C1392 0.930 . S
H1388 C1396 0.930 . S
O1389 Co1358 2.037 . S
O1389 C1409 1.234 . S
C1390 O1364 1.269 . S
C1390 O1365 1.257 . S
C1391 H1366 0.930 . S
C1391 C1394 1.388 . S
C1391 C1396 1.418 . S
C1392 H1387 0.930 . S
C1392 C1395 1.404 . S
C1392 C1396 1.353 . S
N1393 Co1358 2.145 . S
N1393 C1394 1.397 . S
N1393 C1395 1.334 . S
C1394 H1375 0.929 . S
C1394 C1391 1.388 . S
C1394 N1393 1.397 . S
C1395 H1376 0.929 . S
C1395 C1392 1.404 . S
C1395 N1393 1.334 . S
C1396 H1388 0.930 . S
C1396 C1391 1.418 . S
C1396 C1392 1.353 . S
C1397 H1367 0.930 . S
C1397 N1398 1.330 . S
C1397 C1399 1.446 . S
N1398 Co1357 2.151 . S
N1398 C1397 1.330 . S
N1398 C1402 1.418 . S
C1399 H1378 0.929 . S
C1399 C1397 1.446 . S
C1399 C1400 1.332 . S
C1400 H1380 0.931 . S
C1400 C1399 1.332 . S
C1400 C1401 1.267 . S
C1401 H1369 0.929 . S
C1401 C1400 1.267 . S
C1401 C1402 1.251 . S
C1402 H1372 0.929 . S
C1402 N1398 1.418 . S
C1402 C1401 1.251 . S
C1403 H1370 0.930 . S
C1403 C1405 1.406 . S
C1403 C1408 1.261 . S
C1404 H1371 0.930 . S
C1404 N1406 1.325 . S
C1404 C1407 1.357 . S
C1405 H1373 0.928 . S
C1405 C1403 1.406 . S
C1405 N1406 1.261 . S
N1406 Co1357 2.214 . S
N1406 C1404 1.325 . S
N1406 C1405 1.261 . S
C1407 H1377 0.931 . S
C1407 C1404 1.357 . S
C1407 C1408 1.312 . S
C1408 H1379 0.930 . S
C1408 C1403 1.261 . S
C1408 C1407 1.312 . S
C1409 O1381 1.214 . S
C1409 O1389 1.234 . S
C1410 H1382 0.929 . S
C1410 C1413 1.391 . S
C1410 C1415 1.391 . S
C1411 H1383 0.929 . S
C1411 C1412 1.390 . S
C1411 N1414 1.391 . S
C1412 H1384 0.930 . S
C1412 C1411 1.390 . S
C1412 C1413 1.392 . S
C1413 H1385 0.929 . S
C1413 C1410 1.391 . S
C1413 C1412 1.392 . S
N1414 Co1358 2.257 . S
N1414 C1411 1.391 . S
N1414 C1415 1.388 . S
C1415 H1386 0.930 . S
C1415 C1410 1.391 . S
C1415 N1414 1.388 . S
Co1416 O1418 2.143 . S
Co1416 O1424 2.074 . S
Co1416 O1427 2.093 . S
Co1416 O1440 2.097 . S
Co1416 N1457 2.151 . S
Co1416 N1465 2.214 . S
Co1417 O1418 2.160 . S
Co1417 O1423 2.058 . S
Co1417 O1433 2.057 . S
Co1417 O1448 2.037 . S
Co1417 N1452 2.145 . S
Co1417 N1473 2.257 . S
O1418 Co1416 2.143 . S
O1418 Co1417 2.160 . S
C1419 O1420 1.278 . S
C1419 O1427 1.224 . S
O1420 C1419 1.278 . S
C1421 O1422 1.245 . S
C1421 O1433 1.232 . S
O1422 C1421 1.245 . S
O1423 Co1417 2.058 . S
O1423 C1449 1.269 . S
O1424 Co1416 2.074 . S
O1424 C1449 1.257 . S
H1425 C1450 0.930 . S
H1426 C1456 0.930 . S
O1427 Co1416 2.093 . S
O1427 C1419 1.224 . S
H1428 C1460 0.929 . S
H1429 C1462 0.930 . S
H1430 C1463 0.930 . S
H1431 C1461 0.929 . S
H1432 C1464 0.928 . S
O1433 Co1417 2.057 . S
O1433 C1421 1.232 . S
H1434 C1453 0.929 . S
H1435 C1454 0.929 . S
H1436 C1466 0.931 . S
H1437 C1458 0.929 . S
H1438 C1467 0.930 . S
H1439 C1459 0.931 . S
O1440 Co1416 2.097 . S
O1440 C1468 1.214 . S
H1441 C1469 0.929 . S
H1442 C1470 0.929 . S
H1443 C1471 0.930 . S
H1444 C1472 0.929 . S
H1445 C1474 0.930 . S
H1446 C1451 0.930 . S
H1447 C1455 0.930 . S
O1448 Co1417 2.037 . S
O1448 C1468 1.234 . S
C1449 O1423 1.269 . S
C1449 O1424 1.257 . S
C1450 H1425 0.930 . S
C1450 C1453 1.388 . S
C1450 C1455 1.418 . S
C1451 H1446 0.930 . S
C1451 C1454 1.404 . S
C1451 C1455 1.353 . S
N1452 Co1417 2.145 . S
N1452 C1453 1.397 . S
N1452 C1454 1.334 . S
C1453 H1434 0.929 . S
C1453 C1450 1.388 . S
C1453 N1452 1.397 . S
C1454 H1435 0.929 . S
C1454 C1451 1.404 . S
C1454 N1452 1.334 . S
C1455 H1447 0.930 . S
C1455 C1450 1.418 . S
C1455 C1451 1.353 . S
C1456 H1426 0.930 . S
C1456 N1457 1.330 . S
C1456 C1458 1.446 . S
N1457 Co1416 2.151 . S
N1457 C1456 1.330 . S
N1457 C1461 1.418 . S
C1458 H1437 0.929 . S
C1458 C1456 1.446 . S
C1458 C1459 1.332 . S
C1459 H1439 0.931 . S
C1459 C1458 1.332 . S
C1459 C1460 1.267 . S
C1460 H1428 0.929 . S
C1460 C1459 1.267 . S
C1460 C1461 1.251 . S
C1461 H1431 0.929 . S
C1461 N1457 1.418 . S
C1461 C1460 1.251 . S
C1462 H1429 0.930 . S
C1462 C1464 1.406 . S
C1462 C1467 1.261 . S
C1463 H1430 0.930 . S
C1463 N1465 1.325 . S
C1463 C1466 1.357 . S
C1464 H1432 0.928 . S
C1464 C1462 1.406 . S
C1464 N1465 1.261 . S
N1465 Co1416 2.214 . S
N1465 C1463 1.325 . S
N1465 C1464 1.261 . S
C1466 H1436 0.931 . S
C1466 C1463 1.357 . S
C1466 C1467 1.312 . S
C1467 H1438 0.930 . S
C1467 C1462 1.261 . S
C1467 C1466 1.312 . S
C1468 O1440 1.214 . S
C1468 O1448 1.234 . S
C1469 H1441 0.929 . S
C1469 C1472 1.391 . S
C1469 C1474 1.391 . S
C1470 H1442 0.929 . S
C1470 C1471 1.390 . S
C1470 N1473 1.391 . S
C1471 H1443 0.930 . S
C1471 C1470 1.390 . S
C1471 C1472 1.392 . S
C1472 H1444 0.929 . S
C1472 C1469 1.391 . S
C1472 C1471 1.392 . S
N1473 Co1417 2.257 . S
N1473 C1470 1.391 . S
N1473 C1474 1.388 . S
C1474 H1445 0.930 . S
C1474 C1469 1.391 . S
C1474 N1473 1.388 . S
Co1475 O1477 2.143 . S
Co1475 O1483 2.074 . S
Co1475 O1486 2.093 . S
Co1475 O1499 2.097 . S
Co1475 N1516 2.151 . S
Co1475 N1524 2.214 . S
Co1476 O1477 2.160 . S
Co1476 O1482 2.058 . S
Co1476 O1492 2.057 . S
Co1476 O1507 2.037 . S
Co1476 N1511 2.145 . S
Co1476 N1532 2.257 . S
O1477 Co1475 2.143 . S
O1477 Co1476 2.160 . S
C1478 O1479 1.278 . S
C1478 O1486 1.224 . S
O1479 C1478 1.278 . S
C1480 O1481 1.245 . S
C1480 O1492 1.232 . S
O1481 C1480 1.245 . S
O1482 Co1476 2.058 . S
O1482 C1508 1.269 . S
O1483 Co1475 2.074 . S
O1483 C1508 1.257 . S
H1484 C1509 0.930 . S
H1485 C1515 0.930 . S
O1486 Co1475 2.093 . S
O1486 C1478 1.224 . S
H1487 C1519 0.929 . S
H1488 C1521 0.930 . S
H1489 C1522 0.930 . S
H1490 C1520 0.929 . S
H1491 C1523 0.928 . S
O1492 Co1476 2.057 . S
O1492 C1480 1.232 . S
H1493 C1512 0.929 . S
H1494 C1513 0.929 . S
H1495 C1525 0.931 . S
H1496 C1517 0.929 . S
H1497 C1526 0.930 . S
H1498 C1518 0.931 . S
O1499 Co1475 2.097 . S
O1499 C1527 1.214 . S
H1500 C1528 0.929 . S
H1501 C1529 0.929 . S
H1502 C1530 0.930 . S
H1503 C1531 0.929 . S
H1504 C1533 0.930 . S
H1505 C1510 0.930 . S
H1506 C1514 0.930 . S
O1507 Co1476 2.037 . S
O1507 C1527 1.234 . S
C1508 O1482 1.269 . S
C1508 O1483 1.257 . S
C1509 H1484 0.930 . S
C1509 C1512 1.388 . S
C1509 C1514 1.418 . S
C1510 H1505 0.930 . S
C1510 C1513 1.404 . S
C1510 C1514 1.353 . S
N1511 Co1476 2.145 . S
N1511 C1512 1.397 . S
N1511 C1513 1.334 . S
C1512 H1493 0.929 . S
C1512 C1509 1.388 . S
C1512 N1511 1.397 . S
C1513 H1494 0.929 . S
C1513 C1510 1.404 . S
C1513 N1511 1.334 . S
C1514 H1506 0.930 . S
C1514 C1509 1.418 . S
C1514 C1510 1.353 . S
C1515 H1485 0.930 . S
C1515 N1516 1.330 . S
C1515 C1517 1.446 . S
N1516 Co1475 2.151 . S
N1516 C1515 1.330 . S
N1516 C1520 1.418 . S
C1517 H1496 0.929 . S
C1517 C1515 1.446 . S
C1517 C1518 1.332 . S
C1518 H1498 0.931 . S
C1518 C1517 1.332 . S
C1518 C1519 1.267 . S
C1519 H1487 0.929 . S
C1519 C1518 1.267 . S
C1519 C1520 1.251 . S
C1520 H1490 0.929 . S
C1520 N1516 1.418 . S
C1520 C1519 1.251 . S
C1521 H1488 0.930 . S
C1521 C1523 1.406 . S
C1521 C1526 1.261 . S
C1522 H1489 0.930 . S
C1522 N1524 1.325 . S
C1522 C1525 1.357 . S
C1523 H1491 0.928 . S
C1523 C1521 1.406 . S
C1523 N1524 1.261 . S
N1524 Co1475 2.214 . S
N1524 C1522 1.325 . S
N1524 C1523 1.261 . S
C1525 H1495 0.931 . S
C1525 C1522 1.357 . S
C1525 C1526 1.312 . S
C1526 H1497 0.930 . S
C1526 C1521 1.261 . S
C1526 C1525 1.312 . S
C1527 O1499 1.214 . S
C1527 O1507 1.234 . S
C1528 H1500 0.929 . S
C1528 C1531 1.391 . S
C1528 C1533 1.391 . S
C1529 H1501 0.929 . S
C1529 C1530 1.390 . S
C1529 N1532 1.391 . S
C1530 H1502 0.930 . S
C1530 C1529 1.390 . S
C1530 C1531 1.392 . S
C1531 H1503 0.929 . S
C1531 C1528 1.391 . S
C1531 C1530 1.392 . S
N1532 Co1476 2.257 . S
N1532 C1529 1.391 . S
N1532 C1533 1.388 . S
C1533 H1504 0.930 . S
C1533 C1528 1.391 . S
C1533 N1532 1.388 . S
Co1534 O1536 2.143 . S
Co1534 O1542 2.074 . S
Co1534 O1545 2.093 . S
Co1534 O1558 2.097 . S
Co1534 N1575 2.151 . S
Co1534 N1583 2.214 . S
Co1535 O1536 2.160 . S
Co1535 O1541 2.058 . S
Co1535 O1551 2.057 . S
Co1535 O1566 2.037 . S
Co1535 N1570 2.145 . S
Co1535 N1591 2.257 . S
O1536 Co1534 2.143 . S
O1536 Co1535 2.160 . S
C1537 O1538 1.278 . S
C1537 O1545 1.224 . S
O1538 C1537 1.278 . S
C1539 O1540 1.245 . S
C1539 O1551 1.232 . S
O1540 C1539 1.245 . S
O1541 Co1535 2.058 . S
O1541 C1567 1.269 . S
O1542 Co1534 2.074 . S
O1542 C1567 1.257 . S
H1543 C1568 0.930 . S
H1544 C1574 0.930 . S
O1545 Co1534 2.093 . S
O1545 C1537 1.224 . S
H1546 C1578 0.929 . S
H1547 C1580 0.930 . S
H1548 C1581 0.930 . S
H1549 C1579 0.929 . S
H1550 C1582 0.928 . S
O1551 Co1535 2.057 . S
O1551 C1539 1.232 . S
H1552 C1571 0.929 . S
H1553 C1572 0.929 . S
H1554 C1584 0.931 . S
H1555 C1576 0.929 . S
H1556 C1585 0.930 . S
H1557 C1577 0.931 . S
O1558 Co1534 2.097 . S
O1558 C1586 1.214 . S
H1559 C1587 0.929 . S
H1560 C1588 0.929 . S
H1561 C1589 0.930 . S
H1562 C1590 0.929 . S
H1563 C1592 0.930 . S
H1564 C1569 0.930 . S
H1565 C1573 0.930 . S
O1566 Co1535 2.037 . S
O1566 C1586 1.234 . S
C1567 O1541 1.269 . S
C1567 O1542 1.257 . S
C1568 H1543 0.930 . S
C1568 C1571 1.388 . S
C1568 C1573 1.418 . S
C1569 H1564 0.930 . S
C1569 C1572 1.404 . S
C1569 C1573 1.353 . S
N1570 Co1535 2.145 . S
N1570 C1571 1.397 . S
N1570 C1572 1.334 . S
C1571 H1552 0.929 . S
C1571 C1568 1.388 . S
C1571 N1570 1.397 . S
C1572 H1553 0.929 . S
C1572 C1569 1.404 . S
C1572 N1570 1.334 . S
C1573 H1565 0.930 . S
C1573 C1568 1.418 . S
C1573 C1569 1.353 . S
C1574 H1544 0.930 . S
C1574 N1575 1.330 . S
C1574 C1576 1.446 . S
N1575 Co1534 2.151 . S
N1575 C1574 1.330 . S
N1575 C1579 1.418 . S
C1576 H1555 0.929 . S
C1576 C1574 1.446 . S
C1576 C1577 1.332 . S
C1577 H1557 0.931 . S
C1577 C1576 1.332 . S
C1577 C1578 1.267 . S
C1578 H1546 0.929 . S
C1578 C1577 1.267 . S
C1578 C1579 1.251 . S
C1579 H1549 0.929 . S
C1579 N1575 1.418 . S
C1579 C1578 1.251 . S
C1580 H1547 0.930 . S
C1580 C1582 1.406 . S
C1580 C1585 1.261 . S
C1581 H1548 0.930 . S
C1581 N1583 1.325 . S
C1581 C1584 1.357 . S
C1582 H1550 0.928 . S
C1582 C1580 1.406 . S
C1582 N1583 1.261 . S
N1583 Co1534 2.214 . S
N1583 C1581 1.325 . S
N1583 C1582 1.261 . S
C1584 H1554 0.931 . S
C1584 C1581 1.357 . S
C1584 C1585 1.312 . S
C1585 H1556 0.930 . S
C1585 C1580 1.261 . S
C1585 C1584 1.312 . S
C1586 O1558 1.214 . S
C1586 O1566 1.234 . S
C1587 H1559 0.929 . S
C1587 C1590 1.391 . S
C1587 C1592 1.391 . S
C1588 H1560 0.929 . S
C1588 C1589 1.390 . S
C1588 N1591 1.391 . S
C1589 H1561 0.930 . S
C1589 C1588 1.390 . S
C1589 C1590 1.392 . S
C1590 H1562 0.929 . S
C1590 C1587 1.391 . S
C1590 C1589 1.392 . S
N1591 Co1535 2.257 . S
N1591 C1588 1.391 . S
N1591 C1592 1.388 . S
C1592 H1563 0.930 . S
C1592 C1587 1.391 . S
C1592 N1591 1.388 . S
Co1593 O1595 2.143 . S
Co1593 O1601 2.074 . S
Co1593 O1604 2.093 . S
Co1593 O1617 2.097 . S
Co1593 N1634 2.151 . S
Co1593 N1642 2.214 . S
Co1594 O1595 2.160 . S
Co1594 O1600 2.058 . S
Co1594 O1610 2.057 . S
Co1594 O1625 2.037 . S
Co1594 N1629 2.145 . S
Co1594 N1650 2.257 . S
O1595 Co1593 2.143 . S
O1595 Co1594 2.160 . S
C1596 O1597 1.278 . S
C1596 O1604 1.224 . S
O1597 C1596 1.278 . S
C1598 O1599 1.245 . S
C1598 O1610 1.232 . S
O1599 C1598 1.245 . S
O1600 Co1594 2.058 . S
O1600 C1626 1.269 . S
O1601 Co1593 2.074 . S
O1601 C1626 1.257 . S
H1602 C1627 0.930 . S
H1603 C1633 0.930 . S
O1604 Co1593 2.093 . S
O1604 C1596 1.224 . S
H1605 C1637 0.929 . S
H1606 C1639 0.930 . S
H1607 C1640 0.930 . S
H1608 C1638 0.929 . S
H1609 C1641 0.928 . S
O1610 Co1594 2.057 . S
O1610 C1598 1.232 . S
H1611 C1630 0.929 . S
H1612 C1631 0.929 . S
H1613 C1643 0.931 1_655 S
H1614 C1635 0.929 . S
H1615 C1644 0.930 1_655 S
H1616 C1636 0.931 . S
O1617 Co1593 2.097 . S
O1617 C1645 1.214 1_455 S
H1618 C1646 0.929 . S
H1619 C1647 0.929 . S
H1620 C1648 0.930 . S
H1621 C1649 0.929 . S
H1622 C1651 0.930 . S
H1623 C1628 0.930 . S
H1624 C1632 0.930 . S
O1625 Co1594 2.037 . S
O1625 C1645 1.234 1_455 S
C1626 O1600 1.269 . S
C1626 O1601 1.257 . S
C1627 H1602 0.930 . S
C1627 C1630 1.388 . S
C1627 C1632 1.418 . S
C1628 H1623 0.930 . S
C1628 C1631 1.404 . S
C1628 C1632 1.353 . S
N1629 Co1594 2.145 . S
N1629 C1630 1.397 . S
N1629 C1631 1.334 . S
C1630 H1611 0.929 . S
C1630 C1627 1.388 . S
C1630 N1629 1.397 . S
C1631 H1612 0.929 . S
C1631 C1628 1.404 . S
C1631 N1629 1.334 . S
C1632 H1624 0.930 . S
C1632 C1627 1.418 . S
C1632 C1628 1.353 . S
C1633 H1603 0.930 . S
C1633 N1634 1.330 . S
C1633 C1635 1.446 . S
N1634 Co1593 2.151 . S
N1634 C1633 1.330 . S
N1634 C1638 1.418 . S
C1635 H1614 0.929 . S
C1635 C1633 1.446 . S
C1635 C1636 1.332 . S
C1636 H1616 0.931 . S
C1636 C1635 1.332 . S
C1636 C1637 1.267 . S
C1637 H1605 0.929 . S
C1637 C1636 1.267 . S
C1637 C1638 1.251 . S
C1638 H1608 0.929 . S
C1638 N1634 1.418 . S
C1638 C1637 1.251 . S
C1639 H1606 0.930 . S
C1639 C1641 1.406 . S
C1639 C1644 1.261 . S
C1640 H1607 0.930 . S
C1640 N1642 1.325 . S
C1640 C1643 1.357 . S
C1641 H1609 0.928 . S
C1641 C1639 1.406 . S
C1641 N1642 1.261 . S
N1642 Co1593 2.214 . S
N1642 C1640 1.325 . S
N1642 C1641 1.261 . S
C1643 H1613 0.931 1_455 S
C1643 C1640 1.357 . S
C1643 C1644 1.312 . S
C1644 H1615 0.930 1_455 S
C1644 C1639 1.261 . S
C1644 C1643 1.312 . S
C1645 O1617 1.214 1_655 S
C1645 O1625 1.234 1_655 S
C1646 H1618 0.929 . S
C1646 C1649 1.391 1_455 S
C1646 C1651 1.391 . S
C1647 H1619 0.929 . S
C1647 C1648 1.390 . S
C1647 N1650 1.391 1_655 S
C1648 H1620 0.930 . S
C1648 C1647 1.390 . S
C1648 C1649 1.392 . S
C1649 H1621 0.929 . S
C1649 C1646 1.391 1_655 S
C1649 C1648 1.392 . S
N1650 Co1594 2.257 . S
N1650 C1647 1.391 1_455 S
N1650 C1651 1.388 . S
C1651 H1622 0.930 . S
C1651 C1646 1.391 . S
C1651 N1650 1.388 . S
Co1652 O1654 2.143 . S
Co1652 O1660 2.074 . S
Co1652 O1663 2.093 . S
Co1652 O1676 2.097 . S
Co1652 N1693 2.151 . S
Co1652 N1701 2.214 . S
Co1653 O1654 2.160 . S
Co1653 O1659 2.058 . S
Co1653 O1669 2.057 . S
Co1653 O1684 2.037 . S
Co1653 N1688 2.145 . S
Co1653 N1709 2.257 . S
O1654 Co1652 2.143 . S
O1654 Co1653 2.160 . S
C1655 O1656 1.278 . S
C1655 O1663 1.224 . S
O1656 C1655 1.278 . S
C1657 O1658 1.245 . S
C1657 O1669 1.232 . S
O1658 C1657 1.245 . S
O1659 Co1653 2.058 . S
O1659 C1685 1.269 . S
O1660 Co1652 2.074 . S
O1660 C1685 1.257 . S
H1661 C1686 0.930 . S
H1662 C1692 0.930 . S
O1663 Co1652 2.093 . S
O1663 C1655 1.224 . S
H1664 C1696 0.929 . S
H1665 C1698 0.930 . S
H1666 C1699 0.930 . S
H1667 C1697 0.929 . S
H1668 C1700 0.928 . S
O1669 Co1653 2.057 . S
O1669 C1657 1.232 . S
H1670 C1689 0.929 . S
H1671 C1690 0.929 . S
H1672 C1702 0.931 . S
H1673 C1694 0.929 . S
H1674 C1703 0.930 . S
H1675 C1695 0.931 . S
O1676 Co1652 2.097 . S
O1676 C1704 1.214 . S
H1677 C1705 0.929 . S
H1678 C1706 0.929 . S
H1679 C1707 0.930 . S
H1680 C1708 0.929 . S
H1681 C1710 0.930 . S
H1682 C1687 0.930 . S
H1683 C1691 0.930 . S
O1684 Co1653 2.037 . S
O1684 C1704 1.234 . S
C1685 O1659 1.269 . S
C1685 O1660 1.257 . S
C1686 H1661 0.930 . S
C1686 C1689 1.388 . S
C1686 C1691 1.418 . S
C1687 H1682 0.930 . S
C1687 C1690 1.404 . S
C1687 C1691 1.353 . S
N1688 Co1653 2.145 . S
N1688 C1689 1.397 . S
N1688 C1690 1.334 . S
C1689 H1670 0.929 . S
C1689 C1686 1.388 . S
C1689 N1688 1.397 . S
C1690 H1671 0.929 . S
C1690 C1687 1.404 . S
C1690 N1688 1.334 . S
C1691 H1683 0.930 . S
C1691 C1686 1.418 . S
C1691 C1687 1.353 . S
C1692 H1662 0.930 . S
C1692 N1693 1.330 . S
C1692 C1694 1.446 . S
N1693 Co1652 2.151 . S
N1693 C1692 1.330 . S
N1693 C1697 1.418 . S
C1694 H1673 0.929 . S
C1694 C1692 1.446 . S
C1694 C1695 1.332 . S
C1695 H1675 0.931 . S
C1695 C1694 1.332 . S
C1695 C1696 1.267 . S
C1696 H1664 0.929 . S
C1696 C1695 1.267 . S
C1696 C1697 1.251 . S
C1697 H1667 0.929 . S
C1697 N1693 1.418 . S
C1697 C1696 1.251 . S
C1698 H1665 0.930 . S
C1698 C1700 1.406 . S
C1698 C1703 1.261 . S
C1699 H1666 0.930 . S
C1699 N1701 1.325 . S
C1699 C1702 1.357 . S
C1700 H1668 0.928 . S
C1700 C1698 1.406 . S
C1700 N1701 1.261 . S
N1701 Co1652 2.214 . S
N1701 C1699 1.325 . S
N1701 C1700 1.261 . S
C1702 H1672 0.931 . S
C1702 C1699 1.357 . S
C1702 C1703 1.312 . S
C1703 H1674 0.930 . S
C1703 C1698 1.261 . S
C1703 C1702 1.312 . S
C1704 O1676 1.214 . S
C1704 O1684 1.234 . S
C1705 H1677 0.929 . S
C1705 C1708 1.391 . S
C1705 C1710 1.391 . S
C1706 H1678 0.929 . S
C1706 C1707 1.390 . S
C1706 N1709 1.391 . S
C1707 H1679 0.930 . S
C1707 C1706 1.390 . S
C1707 C1708 1.392 . S
C1708 H1680 0.929 . S
C1708 C1705 1.391 . S
C1708 C1707 1.392 . S
N1709 Co1653 2.257 . S
N1709 C1706 1.391 . S
N1709 C1710 1.388 . S
C1710 H1681 0.930 . S
C1710 C1705 1.391 . S
C1710 N1709 1.388 . S
Co1711 O1713 2.143 . S
Co1711 O1719 2.074 . S
Co1711 O1722 2.093 . S
Co1711 O1735 2.097 . S
Co1711 N1752 2.151 . S
Co1711 N1760 2.214 . S
Co1712 O1713 2.160 . S
Co1712 O1718 2.058 . S
Co1712 O1728 2.057 . S
Co1712 O1743 2.037 . S
Co1712 N1747 2.145 . S
Co1712 N1768 2.257 . S
O1713 Co1711 2.143 . S
O1713 Co1712 2.160 . S
C1714 O1715 1.278 . S
C1714 O1722 1.224 . S
O1715 C1714 1.278 . S
C1716 O1717 1.245 . S
C1716 O1728 1.232 . S
O1717 C1716 1.245 . S
O1718 Co1712 2.058 . S
O1718 C1744 1.269 . S
O1719 Co1711 2.074 . S
O1719 C1744 1.257 . S
H1720 C1745 0.930 . S
H1721 C1751 0.930 . S
O1722 Co1711 2.093 . S
O1722 C1714 1.224 . S
H1723 C1755 0.929 . S
H1724 C1757 0.930 . S
H1725 C1758 0.930 . S
H1726 C1756 0.929 . S
H1727 C1759 0.928 . S
O1728 Co1712 2.057 . S
O1728 C1716 1.232 . S
H1729 C1748 0.929 . S
H1730 C1749 0.929 . S
H1731 C1761 0.931 1_655 S
H1732 C1753 0.929 . S
H1733 C1762 0.930 1_655 S
H1734 C1754 0.931 . S
O1735 Co1711 2.097 . S
O1735 C1763 1.214 1_455 S
H1736 C1764 0.929 . S
H1737 C1765 0.929 . S
H1738 C1766 0.930 . S
H1739 C1767 0.929 . S
H1740 C1769 0.930 . S
H1741 C1746 0.930 . S
H1742 C1750 0.930 . S
O1743 Co1712 2.037 . S
O1743 C1763 1.234 1_455 S
C1744 O1718 1.269 . S
C1744 O1719 1.257 . S
C1745 H1720 0.930 . S
C1745 C1748 1.388 . S
C1745 C1750 1.418 . S
C1746 H1741 0.930 . S
C1746 C1749 1.404 . S
C1746 C1750 1.353 . S
N1747 Co1712 2.145 . S
N1747 C1748 1.397 . S
N1747 C1749 1.334 . S
C1748 H1729 0.929 . S
C1748 C1745 1.388 . S
C1748 N1747 1.397 . S
C1749 H1730 0.929 . S
C1749 C1746 1.404 . S
C1749 N1747 1.334 . S
C1750 H1742 0.930 . S
C1750 C1745 1.418 . S
C1750 C1746 1.353 . S
C1751 H1721 0.930 . S
C1751 N1752 1.330 . S
C1751 C1753 1.446 . S
N1752 Co1711 2.151 . S
N1752 C1751 1.330 . S
N1752 C1756 1.418 . S
C1753 H1732 0.929 . S
C1753 C1751 1.446 . S
C1753 C1754 1.332 . S
C1754 H1734 0.931 . S
C1754 C1753 1.332 . S
C1754 C1755 1.267 . S
C1755 H1723 0.929 . S
C1755 C1754 1.267 . S
C1755 C1756 1.251 . S
C1756 H1726 0.929 . S
C1756 N1752 1.418 . S
C1756 C1755 1.251 . S
C1757 H1724 0.930 . S
C1757 C1759 1.406 . S
C1757 C1762 1.261 . S
C1758 H1725 0.930 . S
C1758 N1760 1.325 . S
C1758 C1761 1.357 . S
C1759 H1727 0.928 . S
C1759 C1757 1.406 . S
C1759 N1760 1.261 . S
N1760 Co1711 2.214 . S
N1760 C1758 1.325 . S
N1760 C1759 1.261 . S
C1761 H1731 0.931 1_455 S
C1761 C1758 1.357 . S
C1761 C1762 1.312 . S
C1762 H1733 0.930 1_455 S
C1762 C1757 1.261 . S
C1762 C1761 1.312 . S
C1763 O1735 1.214 1_655 S
C1763 O1743 1.234 1_655 S
C1764 H1736 0.929 . S
C1764 C1767 1.391 1_455 S
C1764 C1769 1.391 . S
C1765 H1737 0.929 . S
C1765 C1766 1.390 . S
C1765 N1768 1.391 1_655 S
C1766 H1738 0.930 . S
C1766 C1765 1.390 . S
C1766 C1767 1.392 . S
C1767 H1739 0.929 . S
C1767 C1764 1.391 1_655 S
C1767 C1766 1.392 . S
N1768 Co1712 2.257 . S
N1768 C1765 1.391 1_455 S
N1768 C1769 1.388 . S
C1769 H1740 0.930 . S
C1769 C1764 1.391 . S
C1769 N1768 1.388 . S
Co1770 O1772 2.143 . S
Co1770 O1778 2.074 . S
Co1770 O1781 2.093 . S
Co1770 O1794 2.097 . S
Co1770 N1811 2.151 . S
Co1770 N1819 2.214 . S
Co1771 O1772 2.160 . S
Co1771 O1777 2.058 . S
Co1771 O1787 2.057 . S
Co1771 O1802 2.037 . S
Co1771 N1806 2.145 . S
Co1771 N1827 2.257 . S
O1772 Co1770 2.143 . S
O1772 Co1771 2.160 . S
C1773 O1774 1.278 . S
C1773 O1781 1.224 . S
O1774 C1773 1.278 . S
C1775 O1776 1.245 . S
C1775 O1787 1.232 . S
O1776 C1775 1.245 . S
O1777 Co1771 2.058 . S
O1777 C1803 1.269 . S
O1778 Co1770 2.074 . S
O1778 C1803 1.257 . S
H1779 C1804 0.930 . S
H1780 C1810 0.930 . S
O1781 Co1770 2.093 . S
O1781 C1773 1.224 . S
H1782 C1814 0.929 . S
H1783 C1816 0.930 . S
H1784 C1817 0.930 . S
H1785 C1815 0.929 . S
H1786 C1818 0.928 . S
O1787 Co1771 2.057 . S
O1787 C1775 1.232 . S
H1788 C1807 0.929 . S
H1789 C1808 0.929 . S
H1790 C1820 0.931 . S
H1791 C1812 0.929 . S
H1792 C1821 0.930 . S
H1793 C1813 0.931 . S
O1794 Co1770 2.097 . S
O1794 C1822 1.214 . S
H1795 C1823 0.929 . S
H1796 C1824 0.929 . S
H1797 C1825 0.930 . S
H1798 C1826 0.929 . S
H1799 C1828 0.930 . S
H1800 C1805 0.930 . S
H1801 C1809 0.930 . S
O1802 Co1771 2.037 . S
O1802 C1822 1.234 . S
C1803 O1777 1.269 . S
C1803 O1778 1.257 . S
C1804 H1779 0.930 . S
C1804 C1807 1.388 . S
C1804 C1809 1.418 . S
C1805 H1800 0.930 . S
C1805 C1808 1.404 . S
C1805 C1809 1.353 . S
N1806 Co1771 2.145 . S
N1806 C1807 1.397 . S
N1806 C1808 1.334 . S
C1807 H1788 0.929 . S
C1807 C1804 1.388 . S
C1807 N1806 1.397 . S
C1808 H1789 0.929 . S
C1808 C1805 1.404 . S
C1808 N1806 1.334 . S
C1809 H1801 0.930 . S
C1809 C1804 1.418 . S
C1809 C1805 1.353 . S
C1810 H1780 0.930 . S
C1810 N1811 1.330 . S
C1810 C1812 1.446 . S
N1811 Co1770 2.151 . S
N1811 C1810 1.330 . S
N1811 C1815 1.418 . S
C1812 H1791 0.929 . S
C1812 C1810 1.446 . S
C1812 C1813 1.332 . S
C1813 H1793 0.931 . S
C1813 C1812 1.332 . S
C1813 C1814 1.267 . S
C1814 H1782 0.929 . S
C1814 C1813 1.267 . S
C1814 C1815 1.251 . S
C1815 H1785 0.929 . S
C1815 N1811 1.418 . S
C1815 C1814 1.251 . S
C1816 H1783 0.930 . S
C1816 C1818 1.406 . S
C1816 C1821 1.261 . S
C1817 H1784 0.930 . S
C1817 N1819 1.325 . S
C1817 C1820 1.357 . S
C1818 H1786 0.928 . S
C1818 C1816 1.406 . S
C1818 N1819 1.261 . S
N1819 Co1770 2.214 . S
N1819 C1817 1.325 . S
N1819 C1818 1.261 . S
C1820 H1790 0.931 . S
C1820 C1817 1.357 . S
C1820 C1821 1.312 . S
C1821 H1792 0.930 . S
C1821 C1816 1.261 . S
C1821 C1820 1.312 . S
C1822 O1794 1.214 . S
C1822 O1802 1.234 . S
C1823 H1795 0.929 . S
C1823 C1826 1.391 . S
C1823 C1828 1.391 . S
C1824 H1796 0.929 . S
C1824 C1825 1.390 . S
C1824 N1827 1.391 . S
C1825 H1797 0.930 . S
C1825 C1824 1.390 . S
C1825 C1826 1.392 . S
C1826 H1798 0.929 . S
C1826 C1823 1.391 . S
C1826 C1825 1.392 . S
N1827 Co1771 2.257 . S
N1827 C1824 1.391 . S
N1827 C1828 1.388 . S
C1828 H1799 0.930 . S
C1828 C1823 1.391 . S
C1828 N1827 1.388 . S
Co1829 O1831 2.143 . S
Co1829 O1837 2.074 . S
Co1829 O1840 2.093 . S
Co1829 O1853 2.097 . S
Co1829 N1870 2.151 . S
Co1829 N1878 2.214 . S
Co1830 O1831 2.160 . S
Co1830 O1836 2.058 . S
Co1830 O1846 2.057 . S
Co1830 O1861 2.037 . S
Co1830 N1865 2.145 . S
Co1830 N1886 2.257 . S
O1831 Co1829 2.143 . S
O1831 Co1830 2.160 . S
C1832 O1833 1.278 . S
C1832 O1840 1.224 . S
O1833 C1832 1.278 . S
C1834 O1835 1.245 . S
C1834 O1846 1.232 . S
O1835 C1834 1.245 . S
O1836 Co1830 2.058 . S
O1836 C1862 1.269 . S
O1837 Co1829 2.074 . S
O1837 C1862 1.257 . S
H1838 C1863 0.930 . S
H1839 C1869 0.930 . S
O1840 Co1829 2.093 . S
O1840 C1832 1.224 . S
H1841 C1873 0.929 . S
H1842 C1875 0.930 . S
H1843 C1876 0.930 . S
H1844 C1874 0.929 . S
H1845 C1877 0.928 . S
O1846 Co1830 2.057 . S
O1846 C1834 1.232 . S
H1847 C1866 0.929 . S
H1848 C1867 0.929 . S
H1849 C1879 0.931 . S
H1850 C1871 0.929 . S
H1851 C1880 0.930 . S
H1852 C1872 0.931 . S
O1853 Co1829 2.097 . S
O1853 C1881 1.214 . S
H1854 C1882 0.929 . S
H1855 C1883 0.929 . S
H1856 C1884 0.930 . S
H1857 C1885 0.929 . S
H1858 C1887 0.930 . S
H1859 C1864 0.930 . S
H1860 C1868 0.930 . S
O1861 Co1830 2.037 . S
O1861 C1881 1.234 . S
C1862 O1836 1.269 . S
C1862 O1837 1.257 . S
C1863 H1838 0.930 . S
C1863 C1866 1.388 . S
C1863 C1868 1.418 . S
C1864 H1859 0.930 . S
C1864 C1867 1.404 . S
C1864 C1868 1.353 . S
N1865 Co1830 2.145 . S
N1865 C1866 1.397 . S
N1865 C1867 1.334 . S
C1866 H1847 0.929 . S
C1866 C1863 1.388 . S
C1866 N1865 1.397 . S
C1867 H1848 0.929 . S
C1867 C1864 1.404 . S
C1867 N1865 1.334 . S
C1868 H1860 0.930 . S
C1868 C1863 1.418 . S
C1868 C1864 1.353 . S
C1869 H1839 0.930 . S
C1869 N1870 1.330 . S
C1869 C1871 1.446 . S
N1870 Co1829 2.151 . S
N1870 C1869 1.330 . S
N1870 C1874 1.418 . S
C1871 H1850 0.929 . S
C1871 C1869 1.446 . S
C1871 C1872 1.332 . S
C1872 H1852 0.931 . S
C1872 C1871 1.332 . S
C1872 C1873 1.267 . S
C1873 H1841 0.929 . S
C1873 C1872 1.267 . S
C1873 C1874 1.251 . S
C1874 H1844 0.929 . S
C1874 N1870 1.418 . S
C1874 C1873 1.251 . S
C1875 H1842 0.930 . S
C1875 C1877 1.406 . S
C1875 C1880 1.261 . S
C1876 H1843 0.930 . S
C1876 N1878 1.325 . S
C1876 C1879 1.357 . S
C1877 H1845 0.928 . S
C1877 C1875 1.406 . S
C1877 N1878 1.261 . S
N1878 Co1829 2.214 . S
N1878 C1876 1.325 . S
N1878 C1877 1.261 . S
C1879 H1849 0.931 . S
C1879 C1876 1.357 . S
C1879 C1880 1.312 . S
C1880 H1851 0.930 . S
C1880 C1875 1.261 . S
C1880 C1879 1.312 . S
C1881 O1853 1.214 . S
C1881 O1861 1.234 . S
C1882 H1854 0.929 . S
C1882 C1885 1.391 . S
C1882 C1887 1.391 . S
C1883 H1855 0.929 . S
C1883 C1884 1.390 . S
C1883 N1886 1.391 . S
C1884 H1856 0.930 . S
C1884 C1883 1.390 . S
C1884 C1885 1.392 . S
C1885 H1857 0.929 . S
C1885 C1882 1.391 . S
C1885 C1884 1.392 . S
N1886 Co1830 2.257 . S
N1886 C1883 1.391 . S
N1886 C1887 1.388 . S
C1887 H1858 0.930 . S
C1887 C1882 1.391 . S
C1887 N1886 1.388 . S
C1888 C1889 1.387 . S
C1888 H1892 0.950 . S
C1888 C1897 1.390 . S
C1889 C1888 1.387 . S
C1889 C1891 1.387 . S
H1890 C1897 0.950 . S
C1891 C1889 1.387 . S
C1891 C1893 1.390 . S
C1891 H1895 0.950 . S
H1892 C1888 0.950 . S
C1893 C1891 1.390 . S
C1893 C1894 1.387 . S
C1893 H1896 0.950 . S
C1894 C1893 1.387 . S
C1894 C1897 1.387 . S
H1895 C1891 0.950 . S
H1896 C1893 0.950 . S
C1897 C1888 1.390 . S
C1897 H1890 0.950 . S
C1897 C1894 1.387 . S
C1898 C1899 1.387 . S
C1898 H1902 0.950 . S
C1898 C1907 1.390 . S
C1899 C1898 1.387 . S
C1899 C1901 1.387 . S
H1900 C1907 0.950 . S
C1901 C1899 1.387 . S
C1901 C1903 1.390 . S
C1901 H1905 0.950 . S
H1902 C1898 0.950 . S
C1903 C1901 1.390 . S
C1903 C1904 1.387 . S
C1903 H1906 0.950 . S
C1904 C1903 1.387 . S
C1904 C1907 1.387 . S
H1905 C1901 0.950 . S
H1906 C1903 0.950 . S
C1907 C1898 1.390 . S
C1907 H1900 0.950 . S
C1907 C1904 1.387 . S
C1908 C1909 1.387 . S
C1908 H1912 0.950 . S
C1908 C1917 1.390 . S
C1909 C1908 1.387 . S
C1909 C1911 1.387 . S
H1910 C1917 0.950 . S
C1911 C1909 1.387 . S
C1911 C1913 1.390 . S
C1911 H1915 0.950 . S
H1912 C1908 0.950 . S
C1913 C1911 1.390 . S
C1913 C1914 1.387 . S
C1913 H1916 0.950 . S
C1914 C1913 1.387 . S
C1914 C1917 1.387 . S
H1915 C1911 0.950 . S
H1916 C1913 0.950 . S
C1917 C1908 1.390 . S
C1917 H1910 0.950 . S
C1917 C1914 1.387 . S
C1918 C1919 1.387 . S
C1918 H1922 0.950 . S
C1918 C1927 1.390 . S
C1919 C1918 1.387 . S
C1919 C1921 1.387 . S
H1920 C1927 0.950 . S
C1921 C1919 1.387 . S
C1921 C1923 1.390 . S
C1921 H1925 0.950 . S
H1922 C1918 0.950 . S
C1923 C1921 1.390 . S
C1923 C1924 1.387 . S
C1923 H1926 0.950 . S
C1924 C1923 1.387 . S
C1924 C1927 1.387 . S
H1925 C1921 0.950 . S
H1926 C1923 0.950 . S
C1927 C1918 1.390 . S
C1927 H1920 0.950 . S
C1927 C1924 1.387 . S
C1928 C1929 1.387 . S
C1928 H1932 0.950 . S
C1928 C1937 1.390 . S
C1929 C1928 1.387 . S
C1929 C1931 1.387 . S
H1930 C1937 0.950 . S
C1931 C1929 1.387 . S
C1931 C1933 1.390 . S
C1931 H1935 0.950 . S
H1932 C1928 0.950 . S
C1933 C1931 1.390 . S
C1933 C1934 1.387 . S
C1933 H1936 0.950 . S
C1934 C1933 1.387 . S
C1934 C1937 1.387 . S
H1935 C1931 0.950 . S
H1936 C1933 0.950 . S
C1937 C1928 1.390 . S
C1937 H1930 0.950 . S
C1937 C1934 1.387 . S
C1938 C1939 1.387 . S
C1938 H1942 0.950 . S
C1938 C1947 1.390 . S
C1939 C1938 1.387 . S
C1939 C1941 1.387 . S
H1940 C1947 0.950 . S
C1941 C1939 1.387 . S
C1941 C1943 1.390 . S
C1941 H1945 0.950 . S
H1942 C1938 0.950 . S
C1943 C1941 1.390 . S
C1943 C1944 1.387 . S
C1943 H1946 0.950 . S
C1944 C1943 1.387 . S
C1944 C1947 1.387 . S
H1945 C1941 0.950 . S
H1946 C1943 0.950 . S
C1947 C1938 1.390 . S
C1947 H1940 0.950 . S
C1947 C1944 1.387 . S
C1948 C1949 1.387 . S
C1948 H1952 0.950 . S
C1948 C1957 1.390 . S
C1949 C1948 1.387 . S
C1949 C1951 1.387 . S
H1950 C1957 0.950 . S
C1951 C1949 1.387 . S
C1951 C1953 1.390 . S
C1951 H1955 0.950 . S
H1952 C1948 0.950 . S
C1953 C1951 1.390 . S
C1953 C1954 1.387 . S
C1953 H1956 0.950 . S
C1954 C1953 1.387 . S
C1954 C1957 1.387 . S
H1955 C1951 0.950 . S
H1956 C1953 0.950 . S
C1957 C1948 1.390 . S
C1957 H1950 0.950 . S
C1957 C1954 1.387 . S
C1958 C1959 1.387 . S
C1958 H1962 0.950 . S
C1958 C1967 1.390 . S
C1959 C1958 1.387 . S
C1959 C1961 1.387 . S
H1960 C1967 0.950 . S
C1961 C1959 1.387 . S
C1961 C1963 1.390 . S
C1961 H1965 0.950 . S
H1962 C1958 0.950 . S
C1963 C1961 1.390 . S
C1963 C1964 1.387 . S
C1963 H1966 0.950 . S
C1964 C1963 1.387 . S
C1964 C1967 1.387 . S
H1965 C1961 0.950 . S
H1966 C1963 0.950 . S
C1967 C1958 1.390 . S
C1967 H1960 0.950 . S
C1967 C1964 1.387 . S
C1968 C1969 1.387 . S
C1968 H1972 0.950 . S
C1968 C1977 1.390 . S
C1969 C1968 1.387 . S
C1969 C1971 1.387 . S
H1970 C1977 0.950 . S
C1971 C1969 1.387 . S
C1971 C1973 1.390 . S
C1971 H1975 0.950 . S
H1972 C1968 0.950 . S
C1973 C1971 1.390 . S
C1973 C1974 1.387 . S
C1973 H1976 0.950 . S
C1974 C1973 1.387 . S
C1974 C1977 1.387 . S
H1975 C1971 0.950 . S
H1976 C1973 0.950 . S
C1977 C1968 1.390 . S
C1977 H1970 0.950 . S
C1977 C1974 1.387 . S
C1978 C1979 1.387 . S
C1978 H1982 0.950 . S
C1978 C1987 1.390 . S
C1979 C1978 1.387 . S
C1979 C1981 1.387 . S
H1980 C1987 0.950 . S
C1981 C1979 1.387 . S
C1981 C1983 1.390 . S
C1981 H1985 0.950 . S
H1982 C1978 0.950 . S
C1983 C1981 1.390 . S
C1983 C1984 1.387 . S
C1983 H1986 0.950 . S
C1984 C1983 1.387 . S
C1984 C1987 1.387 . S
H1985 C1981 0.950 . S
H1986 C1983 0.950 . S
C1987 C1978 1.390 . S
C1987 H1980 0.950 . S
C1987 C1984 1.387 . S
C1988 C1989 1.387 . S
C1988 H1992 0.950 . S
C1988 C1997 1.390 . S
C1989 C1988 1.387 . S
C1989 C1991 1.387 . S
H1990 C1997 0.950 . S
C1991 C1989 1.387 . S
C1991 C1993 1.390 . S
C1991 H1995 0.950 . S
H1992 C1988 0.950 . S
C1993 C1991 1.390 . S
C1993 C1994 1.387 . S
C1993 H1996 0.950 . S
C1994 C1993 1.387 . S
C1994 C1997 1.387 . S
H1995 C1991 0.950 . S
H1996 C1993 0.950 . S
C1997 C1988 1.390 . S
C1997 H1990 0.950 . S
C1997 C1994 1.387 . S
C1998 C1999 1.387 . S
C1998 H2002 0.950 . S
C1998 C2007 1.390 . S
C1999 C1998 1.387 . S
C1999 C2001 1.387 . S
H2000 C2007 0.950 . S
C2001 C1999 1.387 . S
C2001 C2003 1.390 . S
C2001 H2005 0.950 . S
H2002 C1998 0.950 . S
C2003 C2001 1.390 . S
C2003 C2004 1.387 . S
C2003 H2006 0.950 . S
C2004 C2003 1.387 . S
C2004 C2007 1.387 . S
H2005 C2001 0.950 . S
H2006 C2003 0.950 . S
C2007 C1998 1.390 . S
C2007 H2000 0.950 . S
C2007 C2004 1.387 . S
C2008 C2009 1.387 . S
C2008 H2012 0.950 . S
C2008 C2017 1.390 . S
C2009 C2008 1.387 . S
C2009 C2011 1.387 . S
H2010 C2017 0.950 . S
C2011 C2009 1.387 . S
C2011 C2013 1.390 . S
C2011 H2015 0.950 . S
H2012 C2008 0.950 . S
C2013 C2011 1.390 . S
C2013 C2014 1.387 . S
C2013 H2016 0.950 . S
C2014 C2013 1.387 . S
C2014 C2017 1.387 . S
H2015 C2011 0.950 . S
H2016 C2013 0.950 . S
C2017 C2008 1.390 . S
C2017 H2010 0.950 . S
C2017 C2014 1.387 . S
C2018 C2019 1.387 . S
C2018 H2022 0.950 . S
C2018 C2027 1.390 . S
C2019 C2018 1.387 . S
C2019 C2021 1.387 . S
H2020 C2027 0.950 . S
C2021 C2019 1.387 . S
C2021 C2023 1.390 . S
C2021 H2025 0.950 . S
H2022 C2018 0.950 . S
C2023 C2021 1.390 . S
C2023 C2024 1.387 . S
C2023 H2026 0.950 . S
C2024 C2023 1.387 . S
C2024 C2027 1.387 . S
H2025 C2021 0.950 . S
H2026 C2023 0.950 . S
C2027 C2018 1.390 . S
C2027 H2020 0.950 . S
C2027 C2024 1.387 . S
C2028 C2029 1.387 . S
C2028 H2032 0.950 . S
C2028 C2037 1.390 . S
C2029 C2028 1.387 . S
C2029 C2031 1.387 . S
H2030 C2037 0.950 . S
C2031 C2029 1.387 . S
C2031 C2033 1.390 . S
C2031 H2035 0.950 . S
H2032 C2028 0.950 . S
C2033 C2031 1.390 . S
C2033 C2034 1.387 . S
C2033 H2036 0.950 . S
C2034 C2033 1.387 . S
C2034 C2037 1.387 . S
H2035 C2031 0.950 . S
H2036 C2033 0.950 . S
C2037 C2028 1.390 . S
C2037 H2030 0.950 . S
C2037 C2034 1.387 . S
C2038 C2039 1.387 . S
C2038 H2042 0.950 . S
C2038 C2047 1.390 . S
C2039 C2038 1.387 . S
C2039 C2041 1.387 . S
H2040 C2047 0.950 . S
C2041 C2039 1.387 . S
C2041 C2043 1.390 . S
C2041 H2045 0.950 . S
H2042 C2038 0.950 . S
C2043 C2041 1.390 . S
C2043 C2044 1.387 . S
C2043 H2046 0.950 . S
C2044 C2043 1.387 . S
C2044 C2047 1.387 . S
H2045 C2041 0.950 . S
H2046 C2043 0.950 . S
C2047 C2038 1.390 . S
C2047 H2040 0.950 . S
C2047 C2044 1.387 . S
C2048 C2049 1.387 . S
C2048 H2052 0.950 . S
C2048 C2057 1.390 . S
C2049 C2048 1.387 . S
C2049 C2051 1.387 . S
H2050 C2057 0.950 . S
C2051 C2049 1.387 . S
C2051 C2053 1.390 . S
C2051 H2055 0.950 . S
H2052 C2048 0.950 . S
C2053 C2051 1.390 . S
C2053 C2054 1.387 . S
C2053 H2056 0.950 . S
C2054 C2053 1.387 . S
C2054 C2057 1.387 . S
H2055 C2051 0.950 . S
H2056 C2053 0.950 . S
C2057 C2048 1.390 . S
C2057 H2050 0.950 . S
C2057 C2054 1.387 . S
C2058 C2059 1.387 . S
C2058 H2062 0.950 . S
C2058 C2067 1.390 . S
C2059 C2058 1.387 . S
C2059 C2061 1.387 . S
H2060 C2067 0.950 . S
C2061 C2059 1.387 . S
C2061 C2063 1.390 . S
C2061 H2065 0.950 . S
H2062 C2058 0.950 . S
C2063 C2061 1.390 . S
C2063 C2064 1.387 . S
C2063 H2066 0.950 . S
C2064 C2063 1.387 . S
C2064 C2067 1.387 . S
H2065 C2061 0.950 . S
H2066 C2063 0.950 . S
C2067 C2058 1.390 . S
C2067 H2060 0.950 . S
C2067 C2064 1.387 . S
C2068 C2069 1.387 . S
C2068 H2072 0.950 . S
C2068 C2077 1.390 . S
C2069 C2068 1.387 . S
C2069 C2071 1.387 . S
H2070 C2077 0.950 . S
C2071 C2069 1.387 . S
C2071 C2073 1.390 . S
C2071 H2075 0.950 . S
H2072 C2068 0.950 . S
C2073 C2071 1.390 . S
C2073 C2074 1.387 . S
C2073 H2076 0.950 . S
C2074 C2073 1.387 . S
C2074 C2077 1.387 . S
H2075 C2071 0.950 . S
H2076 C2073 0.950 . S
C2077 C2068 1.390 . S
C2077 H2070 0.950 . S
C2077 C2074 1.387 . S
C2078 C2079 1.387 . S
C2078 H2082 0.950 . S
C2078 C2087 1.390 . S
C2079 C2078 1.387 . S
C2079 C2081 1.387 . S
H2080 C2087 0.950 . S
C2081 C2079 1.387 . S
C2081 C2083 1.390 . S
C2081 H2085 0.950 . S
H2082 C2078 0.950 . S
C2083 C2081 1.390 . S
C2083 C2084 1.387 . S
C2083 H2086 0.950 . S
C2084 C2083 1.387 . S
C2084 C2087 1.387 . S
H2085 C2081 0.950 . S
H2086 C2083 0.950 . S
C2087 C2078 1.390 . S
C2087 H2080 0.950 . S
C2087 C2084 1.387 . S
C2088 C2089 1.387 . S
C2088 H2092 0.950 . S
C2088 C2097 1.390 . S
C2089 C2088 1.387 . S
C2089 C2091 1.387 . S
H2090 C2097 0.950 . S
C2091 C2089 1.387 . S
C2091 C2093 1.390 . S
C2091 H2095 0.950 . S
H2092 C2088 0.950 . S
C2093 C2091 1.390 . S
C2093 C2094 1.387 . S
C2093 H2096 0.950 . S
C2094 C2093 1.387 . S
C2094 C2097 1.387 . S
H2095 C2091 0.950 . S
H2096 C2093 0.950 . S
C2097 C2088 1.390 . S
C2097 H2090 0.950 . S
C2097 C2094 1.387 . S
C2098 C2099 1.387 . S
C2098 H2102 0.950 . S
C2098 C2107 1.390 . S
C2099 C2098 1.387 . S
C2099 C2101 1.387 . S
H2100 C2107 0.950 . S
C2101 C2099 1.387 . S
C2101 C2103 1.390 . S
C2101 H2105 0.950 . S
H2102 C2098 0.950 . S
C2103 C2101 1.390 . S
C2103 C2104 1.387 . S
C2103 H2106 0.950 . S
C2104 C2103 1.387 . S
C2104 C2107 1.387 . S
H2105 C2101 0.950 . S
H2106 C2103 0.950 . S
C2107 C2098 1.390 . S
C2107 H2100 0.950 . S
C2107 C2104 1.387 . S
C2108 C2109 1.387 . S
C2108 H2112 0.950 . S
C2108 C2117 1.390 . S
C2109 C2108 1.387 . S
C2109 C2111 1.387 . S
H2110 C2117 0.950 . S
C2111 C2109 1.387 . S
C2111 C2113 1.390 . S
C2111 H2115 0.950 . S
H2112 C2108 0.950 . S
C2113 C2111 1.390 . S
C2113 C2114 1.387 . S
C2113 H2116 0.950 . S
C2114 C2113 1.387 . S
C2114 C2117 1.387 . S
H2115 C2111 0.950 . S
H2116 C2113 0.950 . S
C2117 C2108 1.390 . S
C2117 H2110 0.950 . S
C2117 C2114 1.387 . S
C2118 C2119 1.387 . S
C2118 H2122 0.950 . S
C2118 C2127 1.390 . S
C2119 C2118 1.387 . S
C2119 C2121 1.387 . S
H2120 C2127 0.950 . S
C2121 C2119 1.387 . S
C2121 C2123 1.390 . S
C2121 H2125 0.950 . S
H2122 C2118 0.950 . S
C2123 C2121 1.390 . S
C2123 C2124 1.387 . S
C2123 H2126 0.950 . S
C2124 C2123 1.387 . S
C2124 C2127 1.387 . S
H2125 C2121 0.950 . S
H2126 C2123 0.950 . S
C2127 C2118 1.390 . S
C2127 H2120 0.950 . S
C2127 C2124 1.387 . S
C2128 C2129 1.387 . S
C2128 H2132 0.950 . S
C2128 C2137 1.390 . S
C2129 C2128 1.387 . S
C2129 C2131 1.387 . S
H2130 C2137 0.950 . S
C2131 C2129 1.387 . S
C2131 C2133 1.390 . S
C2131 H2135 0.950 . S
H2132 C2128 0.950 . S
C2133 C2131 1.390 . S
C2133 C2134 1.387 . S
C2133 H2136 0.950 . S
C2134 C2133 1.387 . S
C2134 C2137 1.387 . S
H2135 C2131 0.950 . S
H2136 C2133 0.950 . S
C2137 C2128 1.390 . S
C2137 H2130 0.950 . S
C2137 C2134 1.387 . S
C2138 C2139 1.387 . S
C2138 H2142 0.950 . S
C2138 C2147 1.390 . S
C2139 C2138 1.387 . S
C2139 C2141 1.387 . S
H2140 C2147 0.950 . S
C2141 C2139 1.387 . S
C2141 C2143 1.390 . S
C2141 H2145 0.950 . S
H2142 C2138 0.950 . S
C2143 C2141 1.390 . S
C2143 C2144 1.387 . S
C2143 H2146 0.950 . S
C2144 C2143 1.387 . S
C2144 C2147 1.387 . S
H2145 C2141 0.950 . S
H2146 C2143 0.950 . S
C2147 C2138 1.390 . S
C2147 H2140 0.950 . S
C2147 C2144 1.387 . S
C2148 C2149 1.387 . S
C2148 H2152 0.950 . S
C2148 C2157 1.390 . S
C2149 C2148 1.387 . S
C2149 C2151 1.387 . S
H2150 C2157 0.950 . S
C2151 C2149 1.387 . S
C2151 C2153 1.390 . S
C2151 H2155 0.950 . S
H2152 C2148 0.950 . S
C2153 C2151 1.390 . S
C2153 C2154 1.387 . S
C2153 H2156 0.950 . S
C2154 C2153 1.387 . S
C2154 C2157 1.387 . S
H2155 C2151 0.950 . S
H2156 C2153 0.950 . S
C2157 C2148 1.390 . S
C2157 H2150 0.950 . S
C2157 C2154 1.387 . S
C2158 C2159 1.387 . S
C2158 H2162 0.950 . S
C2158 C2167 1.390 . S
C2159 C2158 1.387 . S
C2159 C2161 1.387 . S
H2160 C2167 0.950 . S
C2161 C2159 1.387 . S
C2161 C2163 1.390 . S
C2161 H2165 0.950 . S
H2162 C2158 0.950 . S
C2163 C2161 1.390 . S
C2163 C2164 1.387 . S
C2163 H2166 0.950 . S
C2164 C2163 1.387 . S
C2164 C2167 1.387 . S
H2165 C2161 0.950 . S
H2166 C2163 0.950 . S
C2167 C2158 1.390 . S
C2167 H2160 0.950 . S
C2167 C2164 1.387 . S
C2168 C2169 1.387 . S
C2168 H2172 0.950 . S
C2168 C2177 1.390 . S
C2169 C2168 1.387 . S
C2169 C2171 1.387 . S
H2170 C2177 0.950 . S
C2171 C2169 1.387 . S
C2171 C2173 1.390 . S
C2171 H2175 0.950 . S
H2172 C2168 0.950 . S
C2173 C2171 1.390 . S
C2173 C2174 1.387 . S
C2173 H2176 0.950 . S
C2174 C2173 1.387 . S
C2174 C2177 1.387 . S
H2175 C2171 0.950 . S
H2176 C2173 0.950 . S
C2177 C2168 1.390 . S
C2177 H2170 0.950 . S
C2177 C2174 1.387 . S
C2178 C2179 1.387 . S
C2178 H2182 0.950 . S
C2178 C2187 1.390 . S
C2179 C2178 1.387 . S
C2179 C2181 1.387 . S
H2180 C2187 0.950 . S
C2181 C2179 1.387 . S
C2181 C2183 1.390 . S
C2181 H2185 0.950 . S
H2182 C2178 0.950 . S
C2183 C2181 1.390 . S
C2183 C2184 1.387 . S
C2183 H2186 0.950 . S
C2184 C2183 1.387 . S
C2184 C2187 1.387 . S
H2185 C2181 0.950 . S
H2186 C2183 0.950 . S
C2187 C2178 1.390 . S
C2187 H2180 0.950 . S
C2187 C2184 1.387 . S
C2188 C2189 1.387 . S
C2188 H2192 0.950 . S
C2188 C2197 1.390 . S
C2189 C2188 1.387 . S
C2189 C2191 1.387 . S
H2190 C2197 0.950 . S
C2191 C2189 1.387 . S
C2191 C2193 1.390 . S
C2191 H2195 0.950 . S
H2192 C2188 0.950 . S
C2193 C2191 1.390 . S
C2193 C2194 1.387 . S
C2193 H2196 0.950 . S
C2194 C2193 1.387 . S
C2194 C2197 1.387 . S
H2195 C2191 0.950 . S
H2196 C2193 0.950 . S
C2197 C2188 1.390 . S
C2197 H2190 0.950 . S
C2197 C2194 1.387 . S
C2198 C2199 1.387 . S
C2198 H2202 0.950 . S
C2198 C2207 1.390 . S
C2199 C2198 1.387 . S
C2199 C2201 1.387 . S
H2200 C2207 0.950 . S
C2201 C2199 1.387 . S
C2201 C2203 1.390 . S
C2201 H2205 0.950 . S
H2202 C2198 0.950 . S
C2203 C2201 1.390 . S
C2203 C2204 1.387 . S
C2203 H2206 0.950 . S
C2204 C2203 1.387 . S
C2204 C2207 1.387 . S
H2205 C2201 0.950 . S
H2206 C2203 0.950 . S
C2207 C2198 1.390 . S
C2207 H2200 0.950 . S
C2207 C2204 1.387 . S
C2208 C2209 1.387 . S
C2208 H2212 0.950 . S
C2208 C2217 1.390 . S
C2209 C2208 1.387 . S
C2209 C2211 1.387 . S
H2210 C2217 0.950 . S
C2211 C2209 1.387 . S
C2211 C2213 1.390 . S
C2211 H2215 0.950 . S
H2212 C2208 0.950 . S
C2213 C2211 1.390 . S
C2213 C2214 1.387 . S
C2213 H2216 0.950 . S
C2214 C2213 1.387 . S
C2214 C2217 1.387 . S
H2215 C2211 0.950 . S
H2216 C2213 0.950 . S
C2217 C2208 1.390 . S
C2217 H2210 0.950 . S
C2217 C2214 1.387 . S
C2218 C2219 1.387 . S
C2218 H2222 0.950 . S
C2218 C2227 1.390 1_565 S
C2219 C2218 1.387 . S
C2219 C2221 1.387 1_455 S
H2220 C2227 0.950 . S
C2221 C2219 1.387 1_655 S
C2221 C2223 1.390 1_565 S
C2221 H2225 0.950 . S
H2222 C2218 0.950 . S
C2223 C2221 1.390 1_545 S
C2223 C2224 1.387 . S
C2223 H2226 0.950 . S
C2224 C2223 1.387 . S
C2224 C2227 1.387 1_655 S
H2225 C2221 0.950 . S
H2226 C2223 0.950 . S
C2227 C2218 1.390 1_545 S
C2227 H2220 0.950 . S
C2227 C2224 1.387 1_455 S
C2228 C2229 1.387 . S
C2228 H2232 0.950 . S
C2228 C2237 1.390 . S
C2229 C2228 1.387 . S
C2229 C2231 1.387 . S
H2230 C2237 0.950 . S
C2231 C2229 1.387 . S
C2231 C2233 1.390 . S
C2231 H2235 0.950 . S
H2232 C2228 0.950 . S
C2233 C2231 1.390 . S
C2233 C2234 1.387 . S
C2233 H2236 0.950 . S
C2234 C2233 1.387 . S
C2234 C2237 1.387 . S
H2235 C2231 0.950 . S
H2236 C2233 0.950 . S
C2237 C2228 1.390 . S
C2237 H2230 0.950 . S
C2237 C2234 1.387 . S
C2238 C2239 1.387 1_565 S
C2238 H2242 0.950 . S
C2238 C2247 1.390 1_554 S
C2239 C2238 1.387 1_545 S
C2239 C2241 1.387 . S
H2240 C2247 0.950 . S
C2241 C2239 1.387 . S
C2241 C2243 1.390 1_554 S
C2241 H2245 0.950 . S
H2242 C2238 0.950 . S
C2243 C2241 1.390 1_556 S
C2243 C2244 1.387 1_545 S
C2243 H2246 0.950 . S
C2244 C2243 1.387 1_565 S
C2244 C2247 1.387 . S
H2245 C2241 0.950 . S
H2246 C2243 0.950 . S
C2247 C2238 1.390 1_556 S
C2247 H2240 0.950 . S
C2247 C2244 1.387 . S
C2248 C2249 1.387 . S
C2248 H2252 0.950 . S
C2248 C2257 1.390 . S
C2249 C2248 1.387 . S
C2249 C2251 1.387 . S
H2250 C2257 0.950 . S
C2251 C2249 1.387 . S
C2251 C2253 1.390 . S
C2251 H2255 0.950 . S
H2252 C2248 0.950 . S
C2253 C2251 1.390 . S
C2253 C2254 1.387 . S
C2253 H2256 0.950 . S
C2254 C2253 1.387 . S
C2254 C2257 1.387 . S
H2255 C2251 0.950 . S
H2256 C2253 0.950 . S
C2257 C2248 1.390 . S
C2257 H2250 0.950 . S
C2257 C2254 1.387 . S
C2258 C2259 1.387 . S
C2258 H2262 0.950 . S
C2258 C2267 1.390 . S
C2259 C2258 1.387 . S
C2259 C2261 1.387 1_565 S
H2260 C2267 0.950 . S
C2261 C2259 1.387 1_545 S
C2261 C2263 1.390 . S
C2261 H2265 0.950 . S
H2262 C2258 0.950 . S
C2263 C2261 1.390 . S
C2263 C2264 1.387 . S
C2263 H2266 0.950 . S
C2264 C2263 1.387 . S
C2264 C2267 1.387 1_545 S
H2265 C2261 0.950 . S
H2266 C2263 0.950 . S
C2267 C2258 1.390 . S
C2267 H2260 0.950 . S
C2267 C2264 1.387 1_565 S
C2268 C2269 1.387 . S
C2268 H2272 0.950 . S
C2268 C2277 1.390 . S
C2269 C2268 1.387 . S
C2269 C2271 1.387 . S
H2270 C2277 0.950 . S
C2271 C2269 1.387 . S
C2271 C2273 1.390 . S
C2271 H2275 0.950 . S
H2272 C2268 0.950 . S
C2273 C2271 1.390 . S
C2273 C2274 1.387 . S
C2273 H2276 0.950 . S
C2274 C2273 1.387 . S
C2274 C2277 1.387 . S
H2275 C2271 0.950 . S
H2276 C2273 0.950 . S
C2277 C2268 1.390 . S
C2277 H2270 0.950 . S
C2277 C2274 1.387 . S
C2278 C2279 1.387 1_565 S
C2278 H2282 0.950 . S
C2278 C2287 1.390 1_456 S
C2279 C2278 1.387 1_545 S
C2279 C2281 1.387 . S
H2280 C2287 0.950 . S
C2281 C2279 1.387 . S
C2281 C2283 1.390 1_456 S
C2281 H2285 0.950 . S
H2282 C2278 0.950 . S
C2283 C2281 1.390 1_654 S
C2283 C2284 1.387 1_545 S
C2283 H2286 0.950 . S
C2284 C2283 1.387 1_565 S
C2284 C2287 1.387 . S
H2285 C2281 0.950 . S
H2286 C2283 0.950 . S
C2287 C2278 1.390 1_654 S
C2287 H2280 0.950 . S
C2287 C2284 1.387 . S
C2288 C2289 1.387 . S
C2288 H2292 0.950 . S
C2288 C2297 1.390 . S
C2289 C2288 1.387 . S
C2289 C2291 1.387 . S
H2290 C2297 0.950 . S
C2291 C2289 1.387 . S
C2291 C2293 1.390 . S
C2291 H2295 0.950 . S
H2292 C2288 0.950 . S
C2293 C2291 1.390 . S
C2293 C2294 1.387 . S
C2293 H2296 0.950 . S
C2294 C2293 1.387 . S
C2294 C2297 1.387 . S
H2295 C2291 0.950 . S
H2296 C2293 0.950 . S
C2297 C2288 1.390 . S
C2297 H2290 0.950 . S
C2297 C2294 1.387 . S
C2298 C2299 1.387 . S
C2298 H2302 0.950 . S
C2298 C2307 1.390 . S
C2299 C2298 1.387 . S
C2299 C2301 1.387 . S
H2300 C2307 0.950 . S
C2301 C2299 1.387 . S
C2301 C2303 1.390 . S
C2301 H2305 0.950 . S
H2302 C2298 0.950 . S
C2303 C2301 1.390 . S
C2303 C2304 1.387 . S
C2303 H2306 0.950 . S
C2304 C2303 1.387 . S
C2304 C2307 1.387 . S
H2305 C2301 0.950 . S
H2306 C2303 0.950 . S
C2307 C2298 1.390 . S
C2307 H2300 0.950 . S
C2307 C2304 1.387 . S
C2308 C2309 1.387 . S
C2308 H2312 0.950 . S
C2308 C2317 1.390 . S
C2309 C2308 1.387 . S
C2309 C2311 1.387 . S
H2310 C2317 0.950 . S
C2311 C2309 1.387 . S
C2311 C2313 1.390 . S
C2311 H2315 0.950 . S
H2312 C2308 0.950 . S
C2313 C2311 1.390 . S
C2313 C2314 1.387 . S
C2313 H2316 0.950 . S
C2314 C2313 1.387 . S
C2314 C2317 1.387 . S
H2315 C2311 0.950 . S
H2316 C2313 0.950 . S
C2317 C2308 1.390 . S
C2317 H2310 0.950 . S
C2317 C2314 1.387 . S
C2318 C2319 1.387 . S
C2318 H2322 0.950 . S
C2318 C2327 1.390 . S
C2319 C2318 1.387 . S
C2319 C2321 1.387 . S
H2320 C2327 0.950 . S
C2321 C2319 1.387 . S
C2321 C2323 1.390 . S
C2321 H2325 0.950 . S
H2322 C2318 0.950 . S
C2323 C2321 1.390 . S
C2323 C2324 1.387 . S
C2323 H2326 0.950 . S
C2324 C2323 1.387 . S
C2324 C2327 1.387 . S
H2325 C2321 0.950 . S
H2326 C2323 0.950 . S
C2327 C2318 1.390 . S
C2327 H2320 0.950 . S
C2327 C2324 1.387 . S
C2328 C2329 1.387 . S
C2328 H2332 0.950 . S
C2328 C2337 1.390 1_554 S
C2329 C2328 1.387 . S
C2329 C2331 1.387 . S
H2330 C2337 0.950 . S
C2331 C2329 1.387 . S
C2331 C2333 1.390 1_554 S
C2331 H2335 0.950 . S
H2332 C2328 0.950 . S
C2333 C2331 1.390 1_556 S
C2333 C2334 1.387 . S
C2333 H2336 0.950 . S
C2334 C2333 1.387 . S
C2334 C2337 1.387 . S
H2335 C2331 0.950 . S
H2336 C2333 0.950 . S
C2337 C2328 1.390 1_556 S
C2337 H2330 0.950 . S
C2337 C2334 1.387 . S
C2338 C2339 1.387 . S
C2338 H2342 0.950 . S
C2338 C2347 1.390 1_455 S
C2339 C2338 1.387 . S
C2339 C2341 1.387 . S
H2340 C2347 0.950 . S
C2341 C2339 1.387 . S
C2341 C2343 1.390 1_455 S
C2341 H2345 0.950 . S
H2342 C2338 0.950 . S
C2343 C2341 1.390 1_655 S
C2343 C2344 1.387 . S
C2343 H2346 0.950 . S
C2344 C2343 1.387 . S
C2344 C2347 1.387 . S
H2345 C2341 0.950 . S
H2346 C2343 0.950 . S
C2347 C2338 1.390 1_655 S
C2347 H2340 0.950 . S
C2347 C2344 1.387 . S
C2348 C2349 1.387 . S
C2348 H2352 0.950 . S
C2348 C2357 1.390 1_554 S
C2349 C2348 1.387 . S
C2349 C2351 1.387 1_455 S
H2350 C2357 0.950 . S
C2351 C2349 1.387 1_655 S
C2351 C2353 1.390 1_554 S
C2351 H2355 0.950 . S
H2352 C2348 0.950 . S
C2353 C2351 1.390 1_556 S
C2353 C2354 1.387 . S
C2353 H2356 0.950 . S
C2354 C2353 1.387 . S
C2354 C2357 1.387 1_655 S
H2355 C2351 0.950 . S
H2356 C2353 0.950 . S
C2357 C2348 1.390 1_556 S
C2357 H2350 0.950 . S
C2357 C2354 1.387 1_455 S
C2358 C2359 1.387 . S
C2358 H2362 0.950 . S
C2358 C2367 1.390 . S
C2359 C2358 1.387 . S
C2359 C2361 1.387 . S
H2360 C2367 0.950 . S
C2361 C2359 1.387 . S
C2361 C2363 1.390 . S
C2361 H2365 0.950 . S
H2362 C2358 0.950 . S
C2363 C2361 1.390 . S
C2363 C2364 1.387 . S
C2363 H2366 0.950 . S
C2364 C2363 1.387 . S
C2364 C2367 1.387 . S
H2365 C2361 0.950 . S
H2366 C2363 0.950 . S
C2367 C2358 1.390 . S
C2367 H2360 0.950 . S
C2367 C2364 1.387 . S
C2368 C2369 1.387 . S
C2368 H2372 0.950 . S
C2368 C2377 1.390 . S
C2369 C2368 1.387 . S
C2369 C2371 1.387 . S
H2370 C2377 0.950 . S
C2371 C2369 1.387 . S
C2371 C2373 1.390 . S
C2371 H2375 0.950 . S
H2372 C2368 0.950 . S
C2373 C2371 1.390 . S
C2373 C2374 1.387 . S
C2373 H2376 0.950 . S
C2374 C2373 1.387 . S
C2374 C2377 1.387 . S
H2375 C2371 0.950 . S
H2376 C2373 0.950 . S
C2377 C2368 1.390 . S
C2377 H2370 0.950 . S
C2377 C2374 1.387 . S
C2378 C2379 1.387 . S
C2378 H2382 0.950 . S
C2378 C2387 1.390 . S
C2379 C2378 1.387 . S
C2379 C2381 1.387 . S
H2380 C2387 0.950 . S
C2381 C2379 1.387 . S
C2381 C2383 1.390 . S
C2381 H2385 0.950 . S
H2382 C2378 0.950 . S
C2383 C2381 1.390 . S
C2383 C2384 1.387 . S
C2383 H2386 0.950 . S
C2384 C2383 1.387 . S
C2384 C2387 1.387 . S
H2385 C2381 0.950 . S
H2386 C2383 0.950 . S
C2387 C2378 1.390 . S
C2387 H2380 0.950 . S
C2387 C2384 1.387 . S
C2388 C2389 1.387 . S
C2388 H2392 0.950 . S
C2388 C2397 1.390 . S
C2389 C2388 1.387 . S
C2389 C2391 1.387 . S
H2390 C2397 0.950 . S
C2391 C2389 1.387 . S
C2391 C2393 1.390 . S
C2391 H2395 0.950 . S
H2392 C2388 0.950 . S
C2393 C2391 1.390 . S
C2393 C2394 1.387 . S
C2393 H2396 0.950 . S
C2394 C2393 1.387 . S
C2394 C2397 1.387 . S
H2395 C2391 0.950 . S
H2396 C2393 0.950 . S
C2397 C2388 1.390 . S
C2397 H2390 0.950 . S
C2397 C2394 1.387 . S
C2398 C2399 1.387 . S
C2398 H2402 0.950 . S
C2398 C2407 1.390 . S
C2399 C2398 1.387 . S
C2399 C2401 1.387 . S
H2400 C2407 0.950 . S
C2401 C2399 1.387 . S
C2401 C2403 1.390 . S
C2401 H2405 0.950 . S
H2402 C2398 0.950 . S
C2403 C2401 1.390 . S
C2403 C2404 1.387 . S
C2403 H2406 0.950 . S
C2404 C2403 1.387 . S
C2404 C2407 1.387 . S
H2405 C2401 0.950 . S
H2406 C2403 0.950 . S
C2407 C2398 1.390 . S
C2407 H2400 0.950 . S
C2407 C2404 1.387 . S
C2408 C2409 1.387 . S
C2408 H2412 0.950 . S
C2408 C2417 1.390 . S
C2409 C2408 1.387 . S
C2409 C2411 1.387 . S
H2410 C2417 0.950 . S
C2411 C2409 1.387 . S
C2411 C2413 1.390 . S
C2411 H2415 0.950 . S
H2412 C2408 0.950 . S
C2413 C2411 1.390 . S
C2413 C2414 1.387 . S
C2413 H2416 0.950 . S
C2414 C2413 1.387 . S
C2414 C2417 1.387 . S
H2415 C2411 0.950 . S
H2416 C2413 0.950 . S
C2417 C2408 1.390 . S
C2417 H2410 0.950 . S
C2417 C2414 1.387 . S
C2418 C2419 1.387 . S
C2418 H2422 0.950 . S
C2418 C2427 1.390 . S
C2419 C2418 1.387 . S
C2419 C2421 1.387 . S
H2420 C2427 0.950 . S
C2421 C2419 1.387 . S
C2421 C2423 1.390 . S
C2421 H2425 0.950 . S
H2422 C2418 0.950 . S
C2423 C2421 1.390 . S
C2423 C2424 1.387 . S
C2423 H2426 0.950 . S
C2424 C2423 1.387 . S
C2424 C2427 1.387 . S
H2425 C2421 0.950 . S
H2426 C2423 0.950 . S
C2427 C2418 1.390 . S
C2427 H2420 0.950 . S
C2427 C2424 1.387 . S
C2428 C2429 1.387 . S
C2428 H2432 0.950 . S
C2428 C2437 1.390 . S
C2429 C2428 1.387 . S
C2429 C2431 1.387 . S
H2430 C2437 0.950 . S
C2431 C2429 1.387 . S
C2431 C2433 1.390 . S
C2431 H2435 0.950 . S
H2432 C2428 0.950 . S
C2433 C2431 1.390 . S
C2433 C2434 1.387 . S
C2433 H2436 0.950 . S
C2434 C2433 1.387 . S
C2434 C2437 1.387 . S
H2435 C2431 0.950 . S
H2436 C2433 0.950 . S
C2437 C2428 1.390 . S
C2437 H2430 0.950 . S
C2437 C2434 1.387 . S
C2438 C2439 1.387 . S
C2438 H2442 0.950 . S
C2438 C2447 1.390 . S
C2439 C2438 1.387 . S
C2439 C2441 1.387 . S
H2440 C2447 0.950 . S
C2441 C2439 1.387 . S
C2441 C2443 1.390 . S
C2441 H2445 0.950 . S
H2442 C2438 0.950 . S
C2443 C2441 1.390 . S
C2443 C2444 1.387 . S
C2443 H2446 0.950 . S
C2444 C2443 1.387 . S
C2444 C2447 1.387 . S
H2445 C2441 0.950 . S
H2446 C2443 0.950 . S
C2447 C2438 1.390 . S
C2447 H2440 0.950 . S
C2447 C2444 1.387 . S
C2448 C2449 1.387 . S
C2448 H2452 0.950 . S
C2448 C2457 1.390 . S
C2449 C2448 1.387 . S
C2449 C2451 1.387 . S
H2450 C2457 0.950 . S
C2451 C2449 1.387 . S
C2451 C2453 1.390 . S
C2451 H2455 0.950 . S
H2452 C2448 0.950 . S
C2453 C2451 1.390 . S
C2453 C2454 1.387 . S
C2453 H2456 0.950 . S
C2454 C2453 1.387 . S
C2454 C2457 1.387 . S
H2455 C2451 0.950 . S
H2456 C2453 0.950 . S
C2457 C2448 1.390 . S
C2457 H2450 0.950 . S
C2457 C2454 1.387 . S
C2458 C2459 1.387 . S
C2458 H2462 0.950 . S
C2458 C2467 1.390 . S
C2459 C2458 1.387 . S
C2459 C2461 1.387 . S
H2460 C2467 0.950 . S
C2461 C2459 1.387 . S
C2461 C2463 1.390 . S
C2461 H2465 0.950 . S
H2462 C2458 0.950 . S
C2463 C2461 1.390 . S
C2463 C2464 1.387 . S
C2463 H2466 0.950 . S
C2464 C2463 1.387 . S
C2464 C2467 1.387 . S
H2465 C2461 0.950 . S
H2466 C2463 0.950 . S
C2467 C2458 1.390 . S
C2467 H2460 0.950 . S
C2467 C2464 1.387 . S
C2468 C2469 1.387 . S
C2468 H2472 0.950 . S
C2468 C2477 1.390 . S
C2469 C2468 1.387 . S
C2469 C2471 1.387 . S
H2470 C2477 0.950 . S
C2471 C2469 1.387 . S
C2471 C2473 1.390 . S
C2471 H2475 0.950 . S
H2472 C2468 0.950 . S
C2473 C2471 1.390 . S
C2473 C2474 1.387 . S
C2473 H2476 0.950 . S
C2474 C2473 1.387 . S
C2474 C2477 1.387 . S
H2475 C2471 0.950 . S
H2476 C2473 0.950 . S
C2477 C2468 1.390 . S
C2477 H2470 0.950 . S
C2477 C2474 1.387 . S
C2478 C2479 1.387 . S
C2478 H2482 0.950 . S
C2478 C2487 1.390 . S
C2479 C2478 1.387 . S
C2479 C2481 1.387 . S
H2480 C2487 0.950 . S
C2481 C2479 1.387 . S
C2481 C2483 1.390 . S
C2481 H2485 0.950 . S
H2482 C2478 0.950 . S
C2483 C2481 1.390 . S
C2483 C2484 1.387 . S
C2483 H2486 0.950 . S
C2484 C2483 1.387 . S
C2484 C2487 1.387 . S
H2485 C2481 0.950 . S
H2486 C2483 0.950 . S
C2487 C2478 1.390 . S
C2487 H2480 0.950 . S
C2487 C2484 1.387 . S
C2488 C2489 1.387 . S
C2488 H2492 0.950 . S
C2488 C2497 1.390 . S
C2489 C2488 1.387 . S
C2489 C2491 1.387 . S
H2490 C2497 0.950 . S
C2491 C2489 1.387 . S
C2491 C2493 1.390 . S
C2491 H2495 0.950 . S
H2492 C2488 0.950 . S
C2493 C2491 1.390 . S
C2493 C2494 1.387 . S
C2493 H2496 0.950 . S
C2494 C2493 1.387 . S
C2494 C2497 1.387 . S
H2495 C2491 0.950 . S
H2496 C2493 0.950 . S
C2497 C2488 1.390 . S
C2497 H2490 0.950 . S
C2497 C2494 1.387 . S
C2498 C2499 1.387 . S
C2498 H2502 0.950 . S
C2498 C2507 1.390 . S
C2499 C2498 1.387 . S
C2499 C2501 1.387 . S
H2500 C2507 0.950 . S
C2501 C2499 1.387 . S
C2501 C2503 1.390 . S
C2501 H2505 0.950 . S
H2502 C2498 0.950 . S
C2503 C2501 1.390 . S
C2503 C2504 1.387 . S
C2503 H2506 0.950 . S
C2504 C2503 1.387 . S
C2504 C2507 1.387 . S
H2505 C2501 0.950 . S
H2506 C2503 0.950 . S
C2507 C2498 1.390 . S
C2507 H2500 0.950 . S
C2507 C2504 1.387 . S
C2508 C2509 1.387 . S
C2508 H2512 0.950 . S
C2508 C2517 1.390 . S
C2509 C2508 1.387 . S
C2509 C2511 1.387 . S
H2510 C2517 0.950 . S
C2511 C2509 1.387 . S
C2511 C2513 1.390 . S
C2511 H2515 0.950 . S
H2512 C2508 0.950 . S
C2513 C2511 1.390 . S
C2513 C2514 1.387 . S
C2513 H2516 0.950 . S
C2514 C2513 1.387 . S
C2514 C2517 1.387 . S
H2515 C2511 0.950 . S
H2516 C2513 0.950 . S
C2517 C2508 1.390 . S
C2517 H2510 0.950 . S
C2517 C2514 1.387 . S
C2518 C2519 1.387 . S
C2518 H2522 0.950 . S
C2518 C2527 1.390 . S
C2519 C2518 1.387 . S
C2519 C2521 1.387 . S
H2520 C2527 0.950 . S
C2521 C2519 1.387 . S
C2521 C2523 1.390 . S
C2521 H2525 0.950 . S
H2522 C2518 0.950 . S
C2523 C2521 1.390 . S
C2523 C2524 1.387 . S
C2523 H2526 0.950 . S
C2524 C2523 1.387 . S
C2524 C2527 1.387 . S
H2525 C2521 0.950 . S
H2526 C2523 0.950 . S
C2527 C2518 1.390 . S
C2527 H2520 0.950 . S
C2527 C2524 1.387 . S
C1889 C1626 1.464 . S
C1894 C52 1.464 . S
C1899 C111 1.464 . S
C1904 C505 1.463 . S
C1909 C1508 1.463 . S
C1914 C170 1.463 . S
C1919 C229 1.464 . S
C1924 C623 1.464 . S
C1929 C288 1.463 . S
C1934 C1744 1.463 . S
C1939 C347 1.464 . S
C1944 C859 1.464 . S
C1949 C406 1.463 . S
C1954 C1862 1.463 . S
C1959 C465 1.464 . S
C1964 C741 1.464 . S
C1969 C1154 1.463 . S
C1974 C524 1.464 . S
C1979 C33 1.464 . S
C1984 C583 1.464 . S
C1989 C1036 1.463 . S
C1994 C642 1.463 . S
C1999 C701 1.464 . S
C2004 C151 1.464 . S
C2009 C1272 1.463 . S
C2014 C760 1.464 . S
C2019 C387 1.464 . S
C2024 C819 1.464 . S
C2029 C878 1.464 . S
C2034 C1390 1.463 . S
C2039 C269 1.463 . S
C2044 C937 1.463 . S
C2049 C996 1.464 . S
C2054 C682 1.463 . S
C2059 C1055 1.463 . S
C2064 C1449 1.463 . S
C2069 C564 1.464 . S
C2074 C1114 1.464 . S
C2079 C1567 1.463 . S
C2084 C1173 1.464 . S
C2089 C800 1.464 . S
C2094 C1232 1.464 . S
C2099 C1803 1.463 . S
C2104 C1291 1.464 . S
C2109 C918 1.463 . S
C2114 C1350 1.464 . S
C2119 C1409 1.464 . S
C2124 C1685 1.464 . S
C2129 C210 1.464 . S
C2134 C1468 1.464 . S
C2139 C1527 1.464 . S
C2144 C977 1.463 . S
C2149 C1586 1.464 . S
C2154 C92 1.464 . S
C2159 C1645 1.464 . S
C2164 C1095 1.463 . S
C2169 C1704 1.464 . S
C2174 C328 1.463 . S
C2179 C1763 1.464 . S
C2184 C1331 1.464 . S
C2189 C1822 1.463 . S
C2194 C446 1.463 . S
C2199 C1881 1.464 . S
C2204 C1213 1.463 . S
C2209 C1419 1.496 . S
C2214 C3 1.496 . S
C2219 C62 1.498 . S
C2224 C534 1.498 . S
C2229 C1537 1.496 . S
C2234 C121 1.496 . S
C2239 C180 1.496 . S
C2244 C652 1.496 . S
C2249 C1655 1.497 . S
C2254 C239 1.497 . S
C2259 C298 1.497 . S
C2264 C770 1.497 . S
C2269 C1773 1.497 . S
C2274 C357 1.497 . S
C2279 C416 1.496 . S
C2284 C888 1.496 . S
C2289 C475 1.498 . S
C2294 C947 1.498 . S
C2299 C593 1.498 . S
C2304 C1065 1.498 . S
C2309 C711 1.498 . S
C2314 C1183 1.498 . S
C2319 C829 1.498 . S
C2324 C1301 1.498 . S
C2329 C1006 1.498 . S
C2334 C1478 1.498 . S
C2339 C1596 1.498 . S
C2344 C1124 1.498 . S
C2349 C1714 1.496 . S
C2354 C1242 1.496 . S
C2359 C1360 1.497 . S
C2364 C1832 1.497 . S
C2369 C5 1.596 . S
C2374 C300 1.596 . S
C2379 C64 1.596 . S
C2384 C359 1.596 . S
C2389 C123 1.596 . S
C2394 C418 1.596 . S
C2399 C241 1.596 . S
C2404 C182 1.596 . S
C2409 C477 1.596 . S
C2414 C772 1.596 . S
C2419 C536 1.596 . S
C2424 C831 1.596 . S
C2429 C595 1.596 . S
C2434 C890 1.596 . S
C2439 C654 1.596 . S
C2444 C713 1.596 . S
C2449 C949 1.596 . S
C2454 C1244 1.596 . S
C2459 C1303 1.596 . S
C2464 C1008 1.596 . S
C2469 C1067 1.596 . S
C2474 C1362 1.596 . S
C2479 C1126 1.596 . S
C2484 C1185 1.596 . S
C2489 C1716 1.596 . S
C2494 C1421 1.596 . S
C2499 C1480 1.596 . S
C2504 C1775 1.596 . S
C2509 C1834 1.596 . S
C2514 C1539 1.596 . S
C2519 C1598 1.596 . S
C2524 C1657 1.596 . S
