# Generated by pormake.
# Topology sxc, (6)-cn, num edge types: 1
# Building blocks:
#     Node 0, Type 0, BuildingBlock: BETDIP_clean_sbu_0, # of connection points: 6
#     Node 1, Type 0, BuildingBlock: BETDIP_clean_sbu_0, # of connection points: 6
#     Node 2, Type 0, BuildingBlock: BETDIP_clean_sbu_0, # of connection points: 6
#     Edge 3, Type (0, 0), BuildingBlock: TEMPAE_clean_linker_10, # of connection points: 2
#     Edge 4, Type (0, 0), BuildingBlock: TEMPAE_clean_linker_10, # of connection points: 2
#     Edge 5, Type (0, 0), BuildingBlock: TEMPAE_clean_linker_10, # of connection points: 2
#     Edge 6, Type (0, 0), BuildingBlock: TEMPAE_clean_linker_10, # of connection points: 2
#     Edge 7, Type (0, 0), BuildingBlock: TEMPAE_clean_linker_10, # of connection points: 2
#     Edge 8, Type (0, 0), BuildingBlock: TEMPAE_clean_linker_10, # of connection points: 2
#     Edge 9, Type (0, 0), BuildingBlock: TEMPAE_clean_linker_10, # of connection points: 2
#     Edge 10, Type (0, 0), BuildingBlock: TEMPAE_clean_linker_10, # of connection points: 2
#     Edge 11, Type (0, 0), BuildingBlock: TEMPAE_clean_linker_10, # of connection points: 2
# Relax obj value: 0.539
# Max RMSD: 0.067
# Mean RMSD: 0.058
data_MOF--net-sxc--node1-BETDIP_clean_sbu_0--edge1-TEMPAE_clean_linker_10
_symmetry_space_group_name_H-M    P1
_symmetry_Int_Tables_number       1
_symmetry_cell_setting            triclinic
loop_
_symmetry_equiv_pos_as_xyz
'x, y, z'
_cell_length_a     16.1796
_cell_length_b     16.06172
_cell_length_c     44.99689
_cell_angle_alpha  91.781832
_cell_angle_beta   88.748041
_cell_angle_gamma 119.84734
loop_
_atom_site_label
_atom_site_type_symbol
_atom_site_fract_x
_atom_site_fract_y
_atom_site_fract_z
_atom_type_partial_charge
Tb0 Tb 0.30798 1.10717 0.96583 0.0
Tb1 Tb 1.20918 0.20738 0.96733 0.0
C2 C 0.42541 1.05362 0.97722 0.0
C3 C 0.49483 1.08192 0.00132 0.0
C4 C 0.56824 1.06028 -0.00098 0.0
C5 C 0.61679 1.06157 0.02449 0.0
C6 C 0.58786 1.07829 0.05299 0.0
C7 C 0.5286 1.1199 0.0538 0.0
C8 C 0.48141 1.12025 0.02821 0.0
C9 C 1.25003 1.11357 0.91126 0.0
C10 C 1.08557 0.97707 0.96428 0.0
C11 C 1.10612 0.28321 0.96799 0.0
C12 C 1.11496 0.36119 0.98843 0.0
C13 C 1.16586 0.4566 0.9793 0.0
C14 C 1.19794 0.53187 0.00021 0.0
C15 C 1.17871 0.51354 0.03076 0.0
C16 C 1.12013 0.41843 0.03957 0.0
C17 C 1.0883 0.34296 0.01861 0.0
C18 C 1.27218 0.19968 0.02115 0.0
C19 C 0.42956 0.33741 0.96622 0.0
O20 O 0.44204 1.11885 0.9578 0.0
O21 O 0.3363 1.00831 0.98579 0.0
O22 O 0.28124 1.18098 0.93066 0.0
O23 O 1.25665 1.04337 0.92187 0.0
O24 O 1.16548 0.97855 0.97127 0.0
O25 O 1.09004 1.05908 0.95743 0.0
O26 O 1.17616 0.30619 0.949 0.0
O27 O 1.08136 0.20169 0.98039 0.0
O28 O 1.23502 1.13232 0.00201 0.0
O29 O 1.27372 0.27362 0.01029 0.0
O30 O 0.35013 0.33266 0.95711 0.0
O31 O 0.42391 0.25764 0.97595 0.0
H32 H 0.58288 1.03495 0.97805 0.0
H33 H 0.66815 1.03761 0.02173 0.0
H34 H 0.50879 1.14154 0.07447 0.0
H35 H 0.42805 1.14212 0.03006 0.0
H36 H 1.18711 0.47302 0.95625 0.0
H37 H 1.24367 0.60407 0.9925 0.0
H38 H 1.10243 0.40198 0.06279 0.0
H39 H 1.04797 0.27016 0.02644 0.0
Tb40 Tb 1.18139 1.116 0.30423 0.0
Tb41 Tb 0.37832 0.21503 0.29489 0.0
C42 C 1.02461 1.01463 0.33011 0.0
C43 C 0.98329 1.03546 0.3566 0.0
C44 C 0.89214 0.9691 0.36686 0.0
C45 C 0.85093 0.9944 0.39057 0.0
C46 C 0.90082 1.08624 0.40422 0.0
C47 C 0.99516 1.149 0.39531 0.0
C48 C 1.03555 1.12402 0.37155 0.0
C49 C 1.22237 1.14511 0.24651 0.0
C50 C 1.27118 0.33624 0.29806 0.0
C51 C 0.55012 0.33365 0.28432 0.0
C52 C 0.62039 0.4005 0.30596 0.0
C53 C 0.59134 0.43864 0.3299 0.0
C54 C 0.64706 0.47441 0.35547 0.0
C55 C 0.73151 0.47029 0.35783 0.0
C56 C 0.76524 0.44268 0.33223 0.0
C57 C 0.71017 0.40825 0.30661 0.0
C58 C 0.33064 0.18825 0.35269 0.0
C59 C 0.28684 0.99116 0.29412 0.0
O60 O 1.1017 1.01075 0.33528 0.0
O61 O 1.03419 1.06566 0.3068 0.0
O62 O 1.26654 1.12381 0.26496 0.0
O63 O 1.14846 1.14095 0.25968 0.0
O64 O 1.20502 0.26266 0.31298 0.0
O65 O 0.33867 0.3255 0.28434 0.0
O66 O 0.51918 0.24342 0.2894 0.0
O67 O 0.48052 0.34889 0.27819 0.0
O68 O 0.29338 0.21262 0.33307 0.0
O69 O 0.40004 1.18267 0.34036 0.0
O70 O 0.36178 1.0716 0.28504 0.0
O71 O 1.21028 0.99397 0.30376 0.0
H72 H 0.85142 0.8998 0.35573 0.0
H73 H 0.77785 0.94501 0.39689 0.0
H74 H 1.03462 0.22104 0.40477 0.0
H75 H 1.10583 1.17581 0.36374 0.0
H76 H 0.52194 0.43343 0.32994 0.0
H77 H 0.61977 0.4976 0.37419 0.0
H78 H 0.82922 0.43727 0.33269 0.0
H79 H 0.73361 0.37882 0.28846 0.0
Tb80 Tb 1.21103 1.08517 0.63133 0.0
Tb81 Tb 0.30918 0.28455 0.63361 0.0
C82 C 1.15647 0.91225 0.64136 0.0
C83 C 1.18144 0.8663 0.66455 0.0
C84 C 1.16223 0.77186 0.66041 0.0
C85 C 1.15991 0.71907 0.68485 0.0
C86 C 1.17046 0.75836 0.71409 0.0
C87 C 1.20982 0.85909 0.71683 0.0
C88 C 1.21382 0.91221 0.6923 0.0
C89 C 1.22374 1.15411 0.57712 0.0
C90 C 1.0805 1.17828 0.6302 0.0
C91 C 0.38392 0.46379 0.63485 0.0
C92 C 0.46076 0.53159 0.65497 0.0
C93 C 0.55577 0.57544 0.6452 0.0
C94 C 0.62981 0.61631 0.66568 0.0
C95 C 0.61057 0.61539 0.69642 0.0
C96 C 0.51597 0.58003 0.70591 0.0
C97 C 0.44175 0.53881 0.68539 0.0
C98 C 0.29689 0.21037 0.68701 0.0
C99 C 0.43975 0.19325 0.632 0.0
O100 O 1.22304 0.96223 0.62207 0.0
O101 O 1.11157 0.95673 0.65088 0.0
O102 O 0.28819 0.18815 0.59667 0.0
O103 O 1.15257 1.07702 0.5874 0.0
O104 O 1.08197 1.09916 0.63683 0.0
O105 O 1.16247 0.25638 0.62375 0.0
O106 O 0.40736 0.41716 0.61522 0.0
O107 O 0.30274 0.40683 0.6477 0.0
O108 O 1.23164 1.1813 0.66795 0.0
O109 O 0.37111 0.28336 0.67634 0.0
O110 O 0.43536 0.26885 0.62328 0.0
O111 O 0.35972 1.11837 0.64143 0.0
H112 H 1.14159 0.73648 0.63876 0.0
H113 H 1.13834 0.64445 0.68071 0.0
H114 H 1.22663 0.89604 0.7382 0.0
H115 H 1.2337 0.98696 0.69563 0.0
H116 H 0.57278 0.5716 0.62195 0.0
H117 H 0.70169 0.64209 0.65745 0.0
H118 H 0.49891 0.58003 0.72932 0.0
H119 H 0.36925 0.50692 0.6937 0.0
C120 C 1.24804 0.68521 0.04663 0.0
C121 C 1.22932 0.59279 0.05299 0.0
C122 C 0.31828 0.76555 0.06198 0.0
C123 C 0.36818 0.75284 0.08549 0.0
C124 C 0.33894 0.65884 0.09495 0.0
C125 C 1.27105 0.57969 0.07821 0.0
C126 C 0.34547 0.86346 0.05045 0.0
C127 C 0.38227 0.64016 0.12148 0.0
C128 C 0.61264 0.94982 0.07378 0.0
C129 C 0.58953 1.02263 0.07925 0.0
C130 C 0.54434 0.85446 0.07973 0.0
C131 C 0.46025 0.83646 0.09529 0.0
C132 C 0.45997 0.9132 0.11134 0.0
C133 C 0.5266 1.00755 0.10335 0.0
C134 C 0.55522 0.77429 0.06535 0.0
C135 C 0.38088 0.89548 0.13297 0.0
H136 H 1.21276 0.69527 0.028 0.0
H137 H 1.25586 0.50827 0.08383 0.0
H138 H 0.34331 0.91072 0.06852 0.0
H139 H 0.41891 0.89717 0.04129 0.0
H140 H 0.29762 0.85989 0.03251 0.0
H141 H 0.42403 0.60558 0.11393 0.0
H142 H 0.4288 0.70629 0.13466 0.0
H143 H 0.32463 0.58855 0.1362 0.0
H144 H 0.67325 0.96323 0.05991 0.0
H145 H 0.51826 1.06599 0.11252 0.0
H146 H 0.49981 0.73651 0.04811 0.0
H147 H 0.54554 0.72138 0.08225 0.0
H148 H 0.62629 0.80083 0.05469 0.0
H149 H 0.4026 0.95719 0.14881 0.0
H150 H 0.35957 0.82927 0.14555 0.0
H151 H 0.31762 0.88493 0.12067 0.0
C152 C 0.7094 0.42759 0.4119 0.0
C153 C 0.77128 0.47048 0.38756 0.0
C154 C 0.7307 0.37842 0.43298 0.0
C155 C 0.81124 0.36739 0.42811 0.0
C156 C 0.88405 0.43098 0.4086 0.0
C157 C 0.86407 0.48519 0.38923 0.0
C158 C 0.65987 0.32662 0.45744 0.0
C159 C 0.97655 0.43018 0.40448 0.0
C160 C 0.89151 0.1921 0.44476 0.0
C161 C 0.84918 1.12772 0.42068 0.0
C162 C 0.86696 0.26313 0.4515 0.0
C163 C 0.80284 0.27204 0.43271 0.0
C164 C 0.7485 0.19667 0.41184 0.0
C165 C 0.77136 1.1243 0.40663 0.0
C166 C 0.91629 0.33268 0.47697 0.0
C167 C 0.67568 0.19862 0.39176 0.0
H168 H 0.63945 0.42094 0.4127 0.0
H169 H 0.91614 0.5268 0.37237 0.0
H170 H 0.68515 0.29115 0.47272 0.0
H171 H 0.64699 0.37889 0.47051 0.0
H172 H 0.5905 0.27231 0.44781 0.0
H173 H 1.0261 0.48597 0.38895 0.0
H174 H 1.0127 0.44322 0.42615 0.0
H175 H 0.96234 0.35908 0.39554 0.0
H176 H 0.94951 0.19252 0.45653 0.0
H177 H 0.73701 1.07319 0.38845 0.0
H178 H 0.89145 0.38543 0.48044 0.0
H179 H 0.99454 0.37125 0.47316 0.0
H180 H 0.90299 0.29197 0.49771 0.0
H181 H 0.64069 1.13417 0.3768 0.0
H182 H 0.71033 0.26285 0.37765 0.0
H183 H 0.61909 0.20169 0.40519 0.0
C184 C 1.09553 0.73804 0.76493 0.0
C185 C 1.11116 0.69503 0.73923 0.0
C186 C 1.0018 0.71218 0.77348 0.0
C187 C 0.92589 0.63985 0.75673 0.0
C188 C 0.94321 0.57544 0.73915 0.0
C189 C 1.03771 0.60161 0.73196 0.0
C190 C 0.98478 0.77171 0.79667 0.0
C191 C 0.86344 0.4885 0.72385 0.0
C192 C 0.67318 0.58189 0.74255 0.0
C193 C 0.68807 0.64009 0.71803 0.0
C194 C 0.75053 0.5889 0.75832 0.0
C195 C 0.84449 0.65301 0.74859 0.0
C196 C 0.8591 0.71932 0.72604 0.0
C197 C 0.78053 0.71306 0.71158 0.0
C198 C 0.73001 0.52309 0.78402 0.0
C199 C 0.95726 0.79021 0.71454 0.0
H200 H 1.15397 0.80103 0.77515 0.0
H201 H 1.05035 0.55677 0.71625 0.0
H202 H 0.98322 0.83205 0.78588 0.0
H203 H 0.91518 0.72798 0.80805 0.0
H204 H 1.04266 0.80247 0.81338 0.0
H205 H 0.80585 0.44624 0.73996 0.0
H206 H 0.83295 0.51176 0.70619 0.0
H207 H 0.88827 0.44104 0.71351 0.0
H208 H 0.60171 0.52618 0.74826 0.0
H209 H 0.792 0.76088 0.69351 0.0
H210 H 0.67924 0.52942 0.79966 0.0
H211 H 0.79494 0.53898 0.79643 0.0
H212 H 0.69437 0.44743 0.77574 0.0
H213 H 1.00376 0.83553 0.73294 0.0
H214 H 0.95546 0.8387 0.6978 0.0
H215 H 0.9901 0.75047 0.70386 0.0
C216 C 0.89894 1.0989 0.6224 0.0
C217 C 0.98652 1.18044 0.63013 0.0
C218 C 0.81157 1.10092 0.62179 0.0
C219 C 0.80792 1.18531 0.63073 0.0
C220 C 0.89624 0.26715 0.63935 0.0
C221 C 0.98324 0.2644 0.63817 0.0
C222 C 0.72353 1.01126 0.61123 0.0
C223 C 0.90023 0.35887 0.65022 0.0
C224 C 0.60591 0.24112 0.61032 0.0
C225 C 0.53441 0.19253 0.63191 0.0
C226 C 0.69244 0.23739 0.60916 0.0
C227 C 0.71316 0.18804 0.63113 0.0
C228 C 0.64192 1.14128 0.65355 0.0
C229 C 0.55386 1.14187 0.65314 0.0
C230 C 0.76058 0.28642 0.58379 0.0
C231 C 0.65765 1.09013 0.67846 0.0
H232 H 0.89873 1.03318 0.616 0.0
H233 H 1.04908 0.32828 0.64447 0.0
H234 H 0.69141 0.96213 0.63013 0.0
H235 H 0.66943 1.02666 0.60218 0.0
H236 H 0.74197 0.97264 0.59377 0.0
H237 H 0.96099 0.40022 0.66556 0.0
H238 H 0.91099 0.40464 0.63095 0.0
H239 H 0.83351 0.3449 0.66187 0.0
H240 H 0.59312 0.28024 0.59352 0.0
H241 H 0.50065 1.10398 0.67013 0.0
H242 H 0.80769 0.25583 0.57884 0.0
H243 H 0.80552 0.36386 0.58951 0.0
H244 H 0.72106 0.28106 0.56327 0.0
H245 H 0.6311 1.01418 0.67157 0.0
H246 H 0.61741 1.09025 0.69877 0.0
H247 H 0.73415 1.12322 0.68418 0.0
C248 C 0.98066 0.79451 0.95511 0.0
C249 C 0.98945 0.88322 0.96436 0.0
C250 C 0.89095 0.70728 0.95455 0.0
C251 C 0.8059 0.70504 0.96515 0.0
C252 C 0.81537 0.79444 0.97542 0.0
C253 C 0.90504 0.88134 0.97408 0.0
C254 C 0.88886 0.61782 0.94227 0.0
C255 C 0.73107 0.79957 0.98828 0.0
C256 C 0.5459 0.50374 0.9453 0.0
C257 C 0.52494 0.43212 0.96622 0.0
C258 C 0.63612 0.59017 0.9442 0.0
C259 C 0.70832 0.61055 0.96555 0.0
C260 C 0.68602 0.53931 0.98731 0.0
C261 C 0.59708 0.45136 0.98687 0.0
C262 C 0.65304 0.6588 0.91963 0.0
C263 C 0.7557 0.55508 0.01152 0.0
H264 H 1.04407 0.79337 0.94742 0.0
H265 H 0.90939 0.94818 0.98161 0.0
H266 H 0.90631 0.58365 0.96028 0.0
H267 H 0.8182 0.56498 0.93309 0.0
H268 H 0.94344 0.6357 0.92447 0.0
H269 H 0.75414 0.86141 0.00416 0.0
H270 H 0.69224 0.80983 0.97005 0.0
H271 H 0.68089 0.73292 -4e-05 0.0
H272 H 0.49235 0.49111 0.92898 0.0
H273 H 0.58328 0.39804 0.00334 0.0
H274 H 0.7296 0.70212 0.91361 0.0
H275 H 0.62697 0.70827 0.92697 0.0
H276 H 0.61271 0.61959 0.89938 0.0
H277 H 0.80512 0.53029 0.00332 0.0
H278 H 0.71853 0.51321 0.03151 0.0
H279 H 0.79843 0.63204 0.01822 0.0
C280 C 0.30771 0.49074 0.27221 0.0
C281 C 1.27192 0.43149 0.29713 0.0
C282 C 0.30904 0.57994 0.2709 0.0
C283 C 0.27793 0.61515 0.29563 0.0
C284 C 1.24336 0.55622 0.32109 0.0
C285 C 1.23885 0.46524 0.32127 0.0
C286 C 0.34243 0.63593 0.24264 0.0
C287 C 1.21189 0.58961 0.34853 0.0
C288 C 0.36779 0.89014 0.30028 0.0
C289 C 0.2863 0.89584 0.29328 0.0
C290 C 0.36562 0.80045 0.3017 0.0
C291 C 0.28101 0.7125 0.29473 0.0
C292 C 1.19929 0.7184 0.28687 0.0
C293 C 1.20232 0.8086 0.28694 0.0
C294 C 0.45376 0.79975 0.31156 0.0
C295 C 1.10795 0.62906 0.27819 0.0
H296 H 0.33303 0.46622 0.25326 0.0
H297 H 1.21161 0.42145 0.34081 0.0
H298 H 0.28716 0.65151 0.2347 0.0
H299 H 0.40771 0.70584 0.24695 0.0
H300 H 0.3582 0.59672 0.22468 0.0
H301 H 1.20092 0.54375 0.36787 0.0
H302 H 1.26548 0.66488 0.35452 0.0
H303 H 1.14392 0.58787 0.34409 0.0
H304 H 0.4329 0.956 0.30572 0.0
H305 H 1.13856 0.81089 0.2815 0.0
H306 H 0.47992 0.77018 0.29346 0.0
H307 H 0.43636 0.75235 0.33089 0.0
H308 H 0.5121 0.87266 0.31789 0.0
H309 H 1.12257 0.586 0.26132 0.0
H310 H 1.0549 0.64597 0.26904 0.0
H311 H 1.07595 0.58375 0.29789 0.0
C312 C 0.31756 1.15453 0.19981 0.0
C313 C 1.2356 1.1481 0.21339 0.0
C314 C 0.33012 1.16002 0.16851 0.0
C315 C 1.25882 1.15835 0.15018 0.0
C316 C 1.17531 1.14999 0.16387 0.0
C317 C 1.16521 1.14584 0.19509 0.0
C318 C 0.42067 1.16973 0.1551 0.0
C319 C 1.0964 1.14601 0.14548 0.0
C320 C 0.31205 0.26926 0.07305 0.0
C321 C 0.27745 0.18842 0.05385 0.0
C322 C 0.31026 0.26081 0.1042 0.0
C323 C 1.2721 1.16894 0.11687 0.0
C324 C 1.24042 1.08725 0.09751 0.0
C325 C 1.24369 1.09795 0.06632 0.0
C326 C 0.34665 0.35039 0.1236 0.0
C327 C 1.1986 0.98771 0.10965 0.0
H328 H 0.37259 1.15674 0.21368 0.0
H329 H 1.10145 1.14065 0.20521 0.0
H330 H 0.40422 1.11755 0.13632 0.0
H331 H 0.46418 0.24265 0.146 0.0
H332 H 0.46387 1.15842 0.17165 0.0
H333 H 1.034 1.13476 0.15926 0.0
H334 H 1.12318 0.21393 0.13338 0.0
H335 H 1.07241 1.0869 0.12858 0.0
H336 H 0.33903 0.33963 0.0637 0.0
H337 H 1.21707 1.03502 0.05174 0.0
H338 H 0.39823 0.35309 0.13999 0.0
H339 H 0.28654 0.34922 0.13629 0.0
H340 H 0.38183 0.4169 0.11045 0.0
H341 H 1.24029 0.98717 0.12881 0.0
H342 H 1.19566 0.93513 0.09246 0.0
H343 H 1.12501 0.96378 0.11772 0.0
C344 C 0.34707 1.14374 0.40427 0.0
C345 C 0.31668 0.19144 0.38558 0.0
C346 C 0.33419 1.14407 0.43538 0.0
C347 C 0.29082 0.1945 0.4485 0.0
C348 C 1.26247 0.24526 0.42975 0.0
C349 C 0.2756 0.243 0.3986 0.0
C350 C 0.36572 1.08888 0.45419 0.0
C351 C 1.21798 0.30181 0.44257 0.0
C352 C 1.1693 1.1085 0.52422 0.0
C353 C 1.23989 1.1707 0.54437 0.0
C354 C 1.18424 1.11686 0.4932 0.0
C355 C 1.27175 0.19016 0.4816 0.0
C356 C 0.3422 0.25541 0.50182 0.0
C357 C 0.32566 0.24475 0.53288 0.0
C358 C 1.10705 1.04513 0.4728 0.0
C359 C 0.43525 0.33658 0.49062 0.0
H360 H 0.37981 1.10457 0.39445 0.0
H361 H 1.25494 0.28284 0.38446 0.0
H362 H 0.41661 1.13727 0.47134 0.0
H363 H 0.30325 1.03161 0.46601 0.0
H364 H 0.40037 1.05534 0.44078 0.0
H365 H 1.14809 0.25235 0.45287 0.0
H366 H 1.26378 0.35209 0.46034 0.0
H367 H 1.20681 0.34349 0.42543 0.0
H368 H 1.10247 1.05129 0.53272 0.0
H369 H 0.38032 0.29377 0.54816 0.0
H370 H 1.13426 1.00422 0.45957 0.0
H371 H 1.08652 1.08289 0.45686 0.0
H372 H 1.04231 0.99348 0.48518 0.0
H373 H 0.4684 0.30928 0.47412 0.0
H374 H 0.48659 0.37507 0.50888 0.0
H375 H 0.42158 0.38863 0.47913 0.0
C376 C 0.36363 0.22978 0.73817 0.0
C377 C 0.28374 0.1903 0.71955 0.0
C378 C 0.3544 0.21687 0.76917 0.0
C379 C 1.26266 1.16409 0.78235 0.0
C380 C 1.18152 1.12325 0.76358 0.0
C381 C 1.19303 1.13639 0.73248 0.0
C382 C 0.44335 0.25948 0.78781 0.0
C383 C 1.0822 1.06755 0.7764 0.0
C384 C 1.24686 1.05606 0.85845 0.0
C385 C 1.24757 1.12559 0.87841 0.0
C386 C 1.25031 1.06713 0.8274 0.0
C387 C 1.2527 1.149 0.81552 0.0
C388 C 1.25016 0.21803 0.83552 0.0
C389 C 1.24861 0.20607 0.86665 0.0
C390 C 1.25404 0.99212 0.80726 0.0
C391 C 1.24988 0.30506 0.82401 0.0
H392 H 0.43408 0.27122 0.72842 0.0
H393 H 1.13081 1.10594 0.71836 0.0
H394 H 0.44235 0.31116 0.80454 0.0
H395 H 0.44579 0.20195 0.80013 0.0
H396 H 0.50941 0.29729 0.77421 0.0
H397 H 1.02772 1.03007 0.75886 0.0
H398 H 1.07729 1.01373 0.79224 0.0
H399 H 1.06512 1.11767 0.78899 0.0
H400 H 1.24586 0.99336 0.86712 0.0
H401 H 1.24851 0.25988 0.88177 0.0
H402 H 0.32354 1.02433 0.79534 0.0
H403 H 1.19763 0.96653 0.79019 0.0
H404 H 1.24503 0.92938 0.81967 0.0
H405 H 0.31758 0.35091 0.81199 0.0
H406 H 1.24136 0.34878 0.84215 0.0
H407 H 1.19112 0.2825 0.80789 0.0
loop_
_geom_bond_atom_site_label_1
_geom_bond_atom_site_label_2
_geom_bond_distance
_geom_bond_site_symmetry_2
_ccdc_geom_bond_type
Tb0 C2 2.813 . S
Tb0 O20 2.499 . S
Tb0 O21 2.433 1_554 S
Tb0 O22 2.647 1_564 S
Tb0 O23 2.384 1_554 S
Tb0 O24 2.375 1_454 S
Tb0 O28 2.343 . S
Tb0 O31 2.343 1_565 S
Tb1 C11 2.809 1_655 S
Tb1 O22 2.325 1_654 S
Tb1 O25 2.341 1_545 S
Tb1 O26 2.484 1_654 S
Tb1 O27 2.440 . S
Tb1 O28 2.658 1_645 S
Tb1 O29 2.409 1_655 S
Tb1 O30 2.378 1_655 S
C2 Tb0 2.813 . S
C2 C3 1.514 . S
C2 O20 1.248 . S
C2 O21 1.266 1_554 S
C3 C2 1.514 . S
C3 C4 1.359 . S
C3 C8 1.348 1_554 S
C4 C3 1.359 . S
C4 C5 1.380 . S
C4 H32 0.929 . S
C5 C4 1.380 . S
C5 C6 1.347 . S
C5 H33 0.931 1_455 S
C6 C5 1.347 . S
C6 C7 1.369 1_554 S
C7 C6 1.369 1_556 S
C7 C8 1.408 . S
C7 H34 0.930 . S
C8 C3 1.348 1_556 S
C8 C7 1.408 . S
C8 H35 0.930 . S
C9 O22 1.281 1_565 S
C9 O23 1.254 . S
C10 O24 1.236 . S
C10 O25 1.266 1_556 S
C11 Tb1 2.809 1_455 S
C11 C12 1.514 . S
C11 O26 1.248 1_554 S
C11 O27 1.266 1_455 S
C12 C11 1.514 . S
C12 C13 1.359 1_554 S
C12 C17 1.348 . S
C13 C12 1.359 1_556 S
C13 C14 1.380 . S
C13 H36 0.929 . S
C14 C13 1.380 . S
C14 C15 1.359 . S
C14 H37 0.931 . S
C15 C14 1.359 . S
C15 C16 1.354 1_556 S
C16 C15 1.354 1_554 S
C16 C17 1.408 . S
C16 H38 0.930 . S
C17 C12 1.348 . S
C17 C16 1.408 . S
C17 H39 0.930 . S
C18 O28 1.281 1_545 S
C18 O29 1.254 . S
C19 O30 1.236 . S
C19 O31 1.266 . S
O20 Tb0 2.499 . S
O20 C2 1.248 . S
O21 Tb0 2.433 1_556 S
O21 C2 1.266 1_556 S
O22 Tb0 2.647 1_546 S
O22 Tb1 2.325 1_456 S
O22 C9 1.281 1_545 S
O23 Tb0 2.384 1_556 S
O23 C9 1.254 . S
O24 Tb0 2.375 1_656 S
O24 C10 1.236 . S
O25 Tb1 2.341 1_565 S
O25 C10 1.266 1_554 S
O26 Tb1 2.484 1_456 S
O26 C11 1.248 1_556 S
O27 Tb1 2.440 . S
O27 C11 1.266 1_655 S
O28 Tb0 2.343 . S
O28 Tb1 2.658 1_465 S
O28 C18 1.281 1_565 S
O29 Tb1 2.409 1_455 S
O29 C18 1.254 . S
O30 Tb1 2.378 1_455 S
O30 C19 1.236 . S
O31 Tb0 2.343 1_545 S
O31 C19 1.266 . S
H32 C4 0.929 . S
H33 C5 0.931 1_655 S
H34 C7 0.930 . S
H35 C8 0.930 . S
H36 C13 0.929 . S
H37 C14 0.931 . S
H38 C16 0.930 . S
H39 C17 0.930 . S
Tb40 C42 2.809 . S
Tb40 O60 2.484 1_565 S
Tb40 O61 2.440 . S
Tb40 O62 2.658 1_665 S
Tb40 O63 2.409 . S
Tb40 O64 2.378 1_565 S
Tb40 O68 2.325 1_665 S
Tb40 O71 2.341 . S
Tb41 C51 2.809 . S
Tb41 O62 2.325 . S
Tb41 O65 2.341 . S
Tb41 O66 2.484 . S
Tb41 O67 2.440 . S
Tb41 O68 2.658 . S
Tb41 O69 2.409 . S
Tb41 O70 2.378 1_545 S
C42 Tb40 2.809 . S
C42 C43 1.514 1_565 S
C42 O60 1.248 1_565 S
C42 O61 1.266 . S
C43 C42 1.514 1_545 S
C43 C44 1.359 . S
C43 C48 1.348 . S
C44 C43 1.359 . S
C44 C45 1.380 . S
C44 H72 0.929 . S
C45 C44 1.380 . S
C45 C46 1.347 . S
C45 H73 0.931 . S
C46 C45 1.347 . S
C46 C47 1.369 . S
C47 C46 1.369 . S
C47 C48 1.408 . S
C47 H74 0.930 . S
C48 C43 1.348 . S
C48 C47 1.408 . S
C48 H75 0.930 1_545 S
C49 O62 1.281 . S
C49 O63 1.254 1_445 S
C50 O64 1.236 1_455 S
C50 O65 1.266 . S
C51 Tb41 2.809 . S
C51 C52 1.514 . S
C51 O66 1.248 . S
C51 O67 1.266 . S
C52 C51 1.514 . S
C52 C53 1.359 1_545 S
C52 C57 1.348 . S
C53 C52 1.359 1_565 S
C53 C54 1.380 . S
C53 H76 0.929 . S
C54 C53 1.380 . S
C54 C55 1.347 . S
C54 H77 0.931 . S
C55 C54 1.347 . S
C55 C56 1.369 1_565 S
C56 C55 1.369 1_545 S
C56 C57 1.408 . S
C56 H78 0.930 . S
C57 C52 1.348 . S
C57 C56 1.408 . S
C57 H79 0.930 . S
C58 O68 1.281 . S
C58 O69 1.254 . S
C59 O70 1.236 . S
C59 O71 1.266 1_455 S
O60 Tb40 2.484 1_545 S
O60 C42 1.248 1_545 S
O61 Tb40 2.440 . S
O61 C42 1.266 . S
O62 Tb40 2.658 1_445 S
O62 Tb41 2.325 . S
O62 C49 1.281 . S
O63 Tb40 2.409 . S
O63 C49 1.254 1_665 S
O64 Tb40 2.378 1_545 S
O64 C50 1.236 1_655 S
O65 Tb41 2.341 . S
O65 C50 1.266 . S
O66 Tb41 2.484 . S
O66 C51 1.248 . S
O67 Tb41 2.440 . S
O67 C51 1.266 . S
O68 Tb40 2.325 1_445 S
O68 Tb41 2.658 . S
O68 C58 1.281 . S
O69 Tb41 2.409 . S
O69 C58 1.254 . S
O70 Tb41 2.378 1_565 S
O70 C59 1.236 . S
O71 Tb40 2.341 . S
O71 C59 1.266 1_655 S
H72 C44 0.929 . S
H73 C45 0.931 . S
H74 C47 0.930 . S
H75 C48 0.930 1_565 S
H76 C53 0.929 . S
H77 C54 0.931 . S
H78 C56 0.930 . S
H79 C57 0.930 . S
Tb80 C82 2.809 . S
Tb80 O100 2.484 . S
Tb80 O101 2.440 . S
Tb80 O102 2.658 1_665 S
Tb80 O103 2.409 . S
Tb80 O104 2.378 . S
Tb80 O108 2.325 1_565 S
Tb80 O111 2.341 1_655 S
Tb81 C91 2.809 . S
Tb81 O102 2.325 . S
Tb81 O105 2.341 1_455 S
Tb81 O106 2.484 . S
Tb81 O107 2.440 . S
Tb81 O108 2.658 1_455 S
Tb81 O109 2.409 . S
Tb81 O110 2.378 . S
C82 Tb80 2.809 . S
C82 C83 1.514 . S
C82 O100 1.248 . S
C82 O101 1.266 . S
C83 C82 1.514 . S
C83 C84 1.359 . S
C83 C88 1.348 . S
C84 C83 1.359 . S
C84 C85 1.380 . S
C84 H112 0.929 . S
C85 C84 1.380 . S
C85 C86 1.347 . S
C85 H113 0.931 . S
C86 C85 1.347 . S
C86 C87 1.369 . S
C87 C86 1.369 . S
C87 C88 1.408 . S
C87 H114 0.930 . S
C88 C83 1.348 . S
C88 C87 1.408 . S
C88 H115 0.930 . S
C89 O102 1.283 . S
C89 O103 1.253 1_445 S
C90 O104 1.236 1_545 S
C90 O105 1.266 . S
C91 Tb81 2.809 . S
C91 C92 1.514 . S
C91 O106 1.248 . S
C91 O107 1.266 . S
C92 C91 1.514 . S
C92 C93 1.359 . S
C92 C97 1.348 . S
C93 C92 1.359 . S
C93 C94 1.380 . S
C93 H116 0.929 . S
C94 C93 1.380 . S
C94 C95 1.347 . S
C94 H117 0.931 . S
C95 C94 1.347 . S
C95 C96 1.369 . S
C96 C95 1.369 . S
C96 C97 1.408 . S
C96 H118 0.930 . S
C97 C92 1.348 . S
C97 C96 1.408 . S
C97 H119 0.930 . S
C98 O108 1.281 1_455 S
C98 O109 1.254 . S
C99 O110 1.236 . S
C99 O111 1.266 1_545 S
O100 Tb80 2.484 . S
O100 C82 1.248 . S
O101 Tb80 2.440 . S
O101 C82 1.266 . S
O102 Tb80 2.658 1_445 S
O102 Tb81 2.325 . S
O102 C89 1.283 . S
O103 Tb80 2.409 . S
O103 C89 1.253 1_665 S
O104 Tb80 2.378 . S
O104 C90 1.236 1_565 S
O105 Tb81 2.341 1_655 S
O105 C90 1.266 . S
O106 Tb81 2.484 . S
O106 C91 1.248 . S
O107 Tb81 2.440 . S
O107 C91 1.266 . S
O108 Tb80 2.325 1_545 S
O108 Tb81 2.658 1_655 S
O108 C98 1.281 1_655 S
O109 Tb81 2.409 . S
O109 C98 1.254 . S
O110 Tb81 2.378 . S
O110 C99 1.236 . S
O111 Tb80 2.341 1_455 S
O111 C99 1.266 1_565 S
H112 C84 0.929 . S
H113 C85 0.931 . S
H114 C87 0.930 . S
H115 C88 0.930 . S
H116 C93 0.929 . S
H117 C94 0.931 . S
H118 C96 0.930 . S
H119 C97 0.930 . S
C120 C121 1.391 . S
C120 C122 1.394 . S
C120 H136 0.931 . S
C121 C120 1.391 . S
C121 C125 1.376 1_556 S
C122 C120 1.394 . S
C122 C123 1.401 . S
C122 C126 1.531 . S
C123 C122 1.401 . S
C123 C124 1.382 1_556 S
C123 C131 1.497 1_556 S
C124 C123 1.382 1_554 S
C124 C125 1.392 . S
C124 C127 1.511 1_455 S
C125 C121 1.376 1_554 S
C125 C124 1.392 . S
C125 H137 0.929 . S
C126 C122 1.531 . S
C126 H138 0.960 . S
C126 H139 0.962 . S
C126 H140 0.960 . S
C127 C124 1.511 1_655 S
C127 H141 0.967 . S
C127 H142 0.961 . S
C127 H143 0.961 . S
C128 C129 1.370 1_455 S
C128 C130 1.363 . S
C128 H144 0.931 . S
C129 C128 1.370 1_655 S
C129 C133 1.408 . S
C130 C128 1.363 . S
C130 C131 1.370 . S
C130 C134 1.524 . S
C131 C123 1.497 1_554 S
C131 C130 1.370 . S
C131 C132 1.403 1_454 S
C132 C131 1.403 1_656 S
C132 C133 1.404 1_556 S
C132 C135 1.539 . S
C133 C129 1.408 . S
C133 C132 1.404 1_554 S
C133 H145 0.930 1_554 S
C134 C130 1.524 . S
C134 H146 0.956 . S
C134 H147 0.961 . S
C134 H148 0.961 . S
C135 C132 1.539 . S
C135 H149 0.958 . S
C135 H150 0.961 . S
C135 H151 0.960 . S
H136 C120 0.931 . S
H137 C125 0.929 . S
H138 C126 0.960 . S
H139 C126 0.962 . S
H140 C126 0.960 . S
H141 C127 0.967 . S
H142 C127 0.961 . S
H143 C127 0.961 . S
H144 C128 0.931 . S
H145 C133 0.930 1_556 S
H146 C134 0.956 . S
H147 C134 0.961 . S
H148 C134 0.961 . S
H149 C135 0.958 . S
H150 C135 0.961 . S
H151 C135 0.960 . S
C152 C153 1.391 1_545 S
C152 C154 1.394 . S
C152 H168 0.931 . S
C153 C152 1.391 1_565 S
C153 C157 1.376 . S
C154 C152 1.394 . S
C154 C155 1.369 1_545 S
C154 C158 1.531 . S
C155 C154 1.369 1_565 S
C155 C156 1.410 . S
C155 C163 1.503 1_565 S
C156 C155 1.410 . S
C156 C157 1.392 . S
C156 C159 1.511 . S
C157 C153 1.376 . S
C157 C156 1.392 . S
C157 H169 0.929 . S
C158 C154 1.531 . S
C158 H170 0.960 . S
C158 H171 0.962 . S
C158 H172 0.960 . S
C159 C156 1.511 . S
C159 H173 0.961 . S
C159 H174 0.961 . S
C159 H175 0.961 . S
C160 C161 1.370 . S
C160 C162 1.363 . S
C160 H176 0.931 . S
C161 C160 1.370 . S
C161 C165 1.408 . S
C162 C160 1.363 . S
C162 C163 1.370 . S
C162 C166 1.524 . S
C163 C155 1.503 1_545 S
C163 C162 1.370 . S
C163 C164 1.403 . S
C164 C163 1.403 . S
C164 C165 1.404 . S
C164 C167 1.539 1_545 S
C165 C161 1.408 . S
C165 C164 1.404 . S
C165 H177 0.930 . S
C166 C162 1.524 . S
C166 H178 0.956 . S
C166 H179 0.961 . S
C166 H180 0.961 . S
C167 C164 1.539 1_565 S
C167 H181 0.958 . S
C167 H182 0.961 . S
C167 H183 0.960 . S
H168 C152 0.931 . S
H169 C157 0.929 . S
H170 C158 0.960 . S
H171 C158 0.962 . S
H172 C158 0.960 . S
H173 C159 0.961 . S
H174 C159 0.961 . S
H175 C159 0.961 . S
H176 C160 0.931 . S
H177 C165 0.930 . S
H178 C166 0.956 . S
H179 C166 0.961 . S
H180 C166 0.961 . S
H181 C167 0.958 . S
H182 C167 0.961 . S
H183 C167 0.960 . S
C184 C185 1.391 . S
C184 C186 1.394 . S
C184 H200 0.931 . S
C185 C184 1.391 . S
C185 C189 1.376 . S
C186 C184 1.394 . S
C186 C187 1.369 . S
C186 C190 1.531 . S
C187 C186 1.369 . S
C187 C188 1.410 . S
C187 C195 1.503 . S
C188 C187 1.410 . S
C188 C189 1.392 . S
C188 C191 1.511 . S
C189 C185 1.376 . S
C189 C188 1.392 . S
C189 H201 0.929 . S
C190 C186 1.531 . S
C190 H202 0.960 . S
C190 H203 0.962 . S
C190 H204 0.960 . S
C191 C188 1.511 . S
C191 H205 0.961 . S
C191 H206 0.961 . S
C191 H207 0.961 . S
C192 C193 1.370 . S
C192 C194 1.363 . S
C192 H208 0.931 . S
C193 C192 1.370 . S
C193 C197 1.408 . S
C194 C192 1.363 . S
C194 C195 1.370 . S
C194 C198 1.524 . S
C195 C187 1.503 . S
C195 C194 1.370 . S
C195 C196 1.403 . S
C196 C195 1.403 . S
C196 C197 1.404 . S
C196 C199 1.539 . S
C197 C193 1.408 . S
C197 C196 1.404 . S
C197 H209 0.930 . S
C198 C194 1.524 . S
C198 H210 0.956 . S
C198 H211 0.961 . S
C198 H212 0.961 . S
C199 C196 1.539 . S
C199 H213 0.958 . S
C199 H214 0.961 . S
C199 H215 0.960 . S
H200 C184 0.931 . S
H201 C189 0.929 . S
H202 C190 0.960 . S
H203 C190 0.962 . S
H204 C190 0.960 . S
H205 C191 0.961 . S
H206 C191 0.961 . S
H207 C191 0.961 . S
H208 C192 0.931 . S
H209 C197 0.930 . S
H210 C198 0.956 . S
H211 C198 0.961 . S
H212 C198 0.961 . S
H213 C199 0.958 . S
H214 C199 0.961 . S
H215 C199 0.960 . S
C216 C217 1.391 1_565 S
C216 C218 1.394 . S
C216 H232 0.931 . S
C217 C216 1.391 1_545 S
C217 C221 1.376 . S
C218 C216 1.394 . S
C218 C219 1.369 1_565 S
C218 C222 1.531 . S
C219 C218 1.369 1_545 S
C219 C220 1.410 . S
C219 C227 1.503 . S
C220 C219 1.410 . S
C220 C221 1.392 . S
C220 C223 1.511 . S
C221 C217 1.376 . S
C221 C220 1.392 . S
C221 H233 0.929 . S
C222 C218 1.531 . S
C222 H234 0.960 . S
C222 H235 0.962 . S
C222 H236 0.960 . S
C223 C220 1.511 . S
C223 H237 0.961 . S
C223 H238 0.961 . S
C223 H239 0.961 . S
C224 C225 1.370 . S
C224 C226 1.363 . S
C224 H240 0.931 . S
C225 C224 1.370 . S
C225 C229 1.408 1_545 S
C226 C224 1.363 . S
C226 C227 1.370 . S
C226 C230 1.524 . S
C227 C219 1.503 . S
C227 C226 1.370 . S
C227 C228 1.403 1_545 S
C228 C227 1.403 1_565 S
C228 C229 1.404 . S
C228 C231 1.539 . S
C229 C225 1.408 1_565 S
C229 C228 1.404 . S
C229 H241 0.930 . S
C230 C226 1.524 . S
C230 H242 0.956 . S
C230 H243 0.961 . S
C230 H244 0.961 . S
C231 C228 1.539 . S
C231 H245 0.958 . S
C231 H246 0.961 . S
C231 H247 0.960 . S
H232 C216 0.931 . S
H233 C221 0.929 . S
H234 C222 0.960 . S
H235 C222 0.962 . S
H236 C222 0.960 . S
H237 C223 0.961 . S
H238 C223 0.961 . S
H239 C223 0.961 . S
H240 C224 0.931 . S
H241 C229 0.930 . S
H242 C230 0.956 . S
H243 C230 0.961 . S
H244 C230 0.961 . S
H245 C231 0.958 . S
H246 C231 0.961 . S
H247 C231 0.960 . S
C248 C249 1.391 1_556 S
C248 C250 1.394 . S
C248 H264 0.931 . S
C249 C248 1.391 1_554 S
C249 C253 1.376 . S
C250 C248 1.394 . S
C250 C251 1.369 1_556 S
C250 C254 1.531 . S
C251 C250 1.369 1_554 S
C251 C252 1.410 . S
C251 C259 1.503 . S
C252 C251 1.410 . S
C252 C253 1.392 . S
C252 C255 1.511 . S
C253 C249 1.376 . S
C253 C252 1.392 . S
C253 H265 0.929 . S
C254 C250 1.531 . S
C254 H266 0.960 . S
C254 H267 0.962 . S
C254 H268 0.960 . S
C255 C252 1.511 . S
C255 H269 0.961 . S
C255 H270 0.961 . S
C255 H271 0.961 . S
C256 C257 1.370 1_556 S
C256 C258 1.363 . S
C256 H272 0.931 . S
C257 C256 1.370 1_554 S
C257 C261 1.408 . S
C258 C256 1.363 . S
C258 C259 1.370 1_556 S
C258 C262 1.524 . S
C259 C251 1.503 . S
C259 C258 1.370 1_554 S
C259 C260 1.403 . S
C260 C259 1.403 . S
C260 C261 1.404 . S
C260 C263 1.539 . S
C261 C257 1.408 . S
C261 C260 1.404 . S
C261 H273 0.930 . S
C262 C258 1.524 . S
C262 H274 0.956 . S
C262 H275 0.961 . S
C262 H276 0.961 . S
C263 C260 1.539 . S
C263 H277 0.958 . S
C263 H278 0.961 . S
C263 H279 0.960 . S
H264 C248 0.931 . S
H265 C253 0.929 . S
H266 C254 0.960 . S
H267 C254 0.962 . S
H268 C254 0.960 . S
H269 C255 0.961 . S
H270 C255 0.961 . S
H271 C255 0.961 . S
H272 C256 0.931 . S
H273 C261 0.930 . S
H274 C262 0.956 . S
H275 C262 0.961 . S
H276 C262 0.961 . S
H277 C263 0.958 . S
H278 C263 0.961 . S
H279 C263 0.960 . S
C280 C281 1.391 . S
C280 C282 1.394 . S
C280 H296 0.931 . S
C281 C280 1.391 . S
C281 C285 1.376 . S
C282 C280 1.394 . S
C282 C283 1.369 . S
C282 C286 1.531 . S
C283 C282 1.369 . S
C283 C284 1.410 . S
C283 C291 1.503 . S
C284 C283 1.410 . S
C284 C285 1.392 . S
C284 C287 1.511 1_455 S
C285 C281 1.376 . S
C285 C284 1.392 . S
C285 H297 0.929 . S
C286 C282 1.531 . S
C286 H298 0.960 . S
C286 H299 0.962 . S
C286 H300 0.960 . S
C287 C284 1.511 1_655 S
C287 H301 0.961 1_655 S
C287 H302 0.961 1_655 S
C287 H303 0.961 . S
C288 C289 1.370 . S
C288 C290 1.363 . S
C288 H304 0.931 . S
C289 C288 1.370 . S
C289 C293 1.408 1_455 S
C290 C288 1.363 . S
C290 C291 1.370 . S
C290 C294 1.524 . S
C291 C283 1.503 . S
C291 C290 1.370 . S
C291 C292 1.403 1_455 S
C292 C291 1.403 1_655 S
C292 C293 1.404 . S
C292 C295 1.539 . S
C293 C289 1.408 1_655 S
C293 C292 1.404 . S
C293 H305 0.930 . S
C294 C290 1.524 . S
C294 H306 0.956 . S
C294 H307 0.961 . S
C294 H308 0.961 . S
C295 C292 1.539 . S
C295 H309 0.958 . S
C295 H310 0.961 . S
C295 H311 0.960 . S
H296 C280 0.931 . S
H297 C285 0.929 . S
H298 C286 0.960 . S
H299 C286 0.962 . S
H300 C286 0.960 . S
H301 C287 0.961 1_455 S
H302 C287 0.961 1_455 S
H303 C287 0.961 . S
H304 C288 0.931 . S
H305 C293 0.930 . S
H306 C294 0.956 . S
H307 C294 0.961 . S
H308 C294 0.961 . S
H309 C295 0.958 . S
H310 C295 0.961 . S
H311 C295 0.960 . S
C312 C313 1.391 1_565 S
C312 C314 1.394 . S
C312 H328 0.931 . S
C313 C312 1.391 1_545 S
C313 C317 1.376 . S
C314 C312 1.394 . S
C314 C315 1.369 . S
C314 C318 1.531 . S
C315 C314 1.369 . S
C315 C316 1.410 1_565 S
C315 C323 1.503 . S
C316 C315 1.410 1_545 S
C316 C317 1.392 . S
C316 C319 1.511 1_455 S
C317 C313 1.376 . S
C317 C316 1.392 . S
C317 H329 0.929 1_455 S
C318 C314 1.531 . S
C318 H330 0.960 . S
C318 H331 0.962 . S
C318 H332 0.960 . S
C319 C316 1.511 1_655 S
C319 H333 0.961 . S
C319 H334 0.961 . S
C319 H335 0.961 . S
C320 C321 1.370 . S
C320 C322 1.363 . S
C320 H336 0.931 . S
C321 C320 1.370 . S
C321 C325 1.408 1_445 S
C322 C320 1.363 . S
C322 C323 1.370 1_545 S
C322 C326 1.524 . S
C323 C315 1.503 . S
C323 C322 1.370 1_565 S
C323 C324 1.403 1_455 S
C324 C323 1.403 1_655 S
C324 C325 1.404 . S
C324 C327 1.539 . S
C325 C321 1.408 1_665 S
C325 C324 1.404 . S
C325 H337 0.930 . S
C326 C322 1.524 . S
C326 H338 0.956 . S
C326 H339 0.961 . S
C326 H340 0.961 . S
C327 C324 1.539 . S
C327 H341 0.958 . S
C327 H342 0.961 . S
C327 H343 0.960 . S
H328 C312 0.931 . S
H329 C317 0.929 1_655 S
H330 C318 0.960 . S
H331 C318 0.962 . S
H332 C318 0.960 . S
H333 C319 0.961 . S
H334 C319 0.961 . S
H335 C319 0.961 . S
H336 C320 0.931 . S
H337 C325 0.930 . S
H338 C326 0.956 . S
H339 C326 0.961 . S
H340 C326 0.961 . S
H341 C327 0.958 . S
H342 C327 0.961 . S
H343 C327 0.960 . S
C344 C345 1.391 . S
C344 C346 1.394 . S
C344 H360 0.931 . S
C345 C344 1.391 . S
C345 C349 1.376 1_445 S
C346 C344 1.394 . S
C346 C347 1.369 . S
C346 C350 1.531 . S
C347 C346 1.369 . S
C347 C348 1.410 1_445 S
C347 C355 1.503 . S
C348 C347 1.410 1_665 S
C348 C349 1.392 . S
C348 C351 1.511 . S
C349 C345 1.376 1_665 S
C349 C348 1.392 . S
C349 H361 0.929 . S
C350 C346 1.531 . S
C350 H362 0.960 . S
C350 H363 0.962 . S
C350 H364 0.960 . S
C351 C348 1.511 . S
C351 H365 0.961 . S
C351 H366 0.961 . S
C351 H367 0.961 . S
C352 C353 1.370 1_565 S
C352 C354 1.363 . S
C352 H368 0.931 . S
C353 C352 1.370 1_545 S
C353 C357 1.408 1_455 S
C354 C352 1.363 . S
C354 C355 1.370 1_565 S
C354 C358 1.524 . S
C355 C347 1.503 . S
C355 C354 1.370 1_545 S
C355 C356 1.403 1_455 S
C356 C355 1.403 1_655 S
C356 C357 1.404 . S
C356 C359 1.539 . S
C357 C353 1.408 1_655 S
C357 C356 1.404 . S
C357 H369 0.930 . S
C358 C354 1.524 . S
C358 H370 0.956 . S
C358 H371 0.961 . S
C358 H372 0.961 . S
C359 C356 1.539 . S
C359 H373 0.958 . S
C359 H374 0.961 . S
C359 H375 0.960 . S
H360 C344 0.931 . S
H361 C349 0.929 . S
H362 C350 0.960 . S
H363 C350 0.962 . S
H364 C350 0.960 . S
H365 C351 0.961 . S
H366 C351 0.961 . S
H367 C351 0.961 . S
H368 C352 0.931 . S
H369 C357 0.930 . S
H370 C358 0.956 . S
H371 C358 0.961 . S
H372 C358 0.961 . S
H373 C359 0.958 . S
H374 C359 0.961 . S
H375 C359 0.960 . S
C376 C377 1.391 . S
C376 C378 1.394 . S
C376 H392 0.931 . S
C377 C376 1.391 . S
C377 C381 1.376 1_445 S
C378 C376 1.394 . S
C378 C379 1.369 . S
C378 C382 1.531 . S
C379 C378 1.369 . S
C379 C380 1.410 1_445 S
C379 C387 1.503 . S
C380 C379 1.410 1_665 S
C380 C381 1.392 . S
C380 C383 1.511 . S
C381 C377 1.376 1_665 S
C381 C380 1.392 . S
C381 H393 0.929 . S
C382 C378 1.531 . S
C382 H394 0.960 . S
C382 H395 0.962 . S
C382 H396 0.960 . S
C383 C380 1.511 . S
C383 H397 0.961 . S
C383 H398 0.961 . S
C383 H399 0.961 . S
C384 C385 1.370 1_565 S
C384 C386 1.363 . S
C384 H400 0.931 . S
C385 C384 1.370 1_545 S
C385 C389 1.408 . S
C386 C384 1.363 . S
C386 C387 1.370 1_565 S
C386 C390 1.524 . S
C387 C379 1.503 . S
C387 C386 1.370 1_545 S
C387 C388 1.403 . S
C388 C387 1.403 . S
C388 C389 1.404 . S
C388 C391 1.539 . S
C389 C385 1.408 . S
C389 C388 1.404 . S
C389 H401 0.930 . S
C390 C386 1.524 . S
C390 H402 0.956 . S
C390 H403 0.961 1_455 S
C390 H404 0.961 . S
C391 C388 1.539 . S
C391 H405 0.958 . S
C391 H406 0.961 1_455 S
C391 H407 0.960 1_455 S
H392 C376 0.931 . S
H393 C381 0.929 . S
H394 C382 0.960 . S
H395 C382 0.962 . S
H396 C382 0.960 . S
H397 C383 0.961 . S
H398 C383 0.961 . S
H399 C383 0.961 . S
H400 C384 0.931 . S
H401 C389 0.930 . S
H402 C390 0.956 . S
H403 C390 0.961 1_655 S
H404 C390 0.961 . S
H405 C391 0.958 . S
H406 C391 0.961 1_655 S
H407 C391 0.960 1_655 S
C121 C15 1.035 . S
C129 C6 1.051 1_655 S
C153 C55 1.069 . S
C161 C46 1.037 . S
C185 C86 1.036 . S
C193 C95 1.056 . S
C217 C90 4.847 . S
C225 C99 4.847 . S
C249 C10 4.856 1_554 S
C257 C19 4.858 . S
C281 C50 4.839 . S
C289 C59 4.842 . S
C313 C49 1.422 . S
C321 C18 1.434 . S
C345 C58 1.464 . S
C353 C89 1.459 . S
C377 C98 1.437 . S
C385 C9 1.476 1_545 S
