# Generated by pormake.
# Topology whz, (6)-cn, num edge types: 1
# Building blocks:
#     Node 0, Type 0, BuildingBlock: BETDEL_clean_sbu_0, # of connection points: 6
#     Node 1, Type 0, BuildingBlock: BETDEL_clean_sbu_0, # of connection points: 6
#     Node 2, Type 0, BuildingBlock: BETDEL_clean_sbu_0, # of connection points: 6
#     Node 3, Type 0, BuildingBlock: BETDEL_clean_sbu_0, # of connection points: 6
#     Node 4, Type 0, BuildingBlock: BETDEL_clean_sbu_0, # of connection points: 6
#     Node 5, Type 0, BuildingBlock: BETDEL_clean_sbu_0, # of connection points: 6
#     Node 6, Type 0, BuildingBlock: BETDEL_clean_sbu_0, # of connection points: 6
#     Node 7, Type 0, BuildingBlock: BETDEL_clean_sbu_0, # of connection points: 6
#     Node 8, Type 0, BuildingBlock: BETDEL_clean_sbu_0, # of connection points: 6
#     Node 9, Type 0, BuildingBlock: BETDEL_clean_sbu_0, # of connection points: 6
#     Node 10, Type 0, BuildingBlock: BETDEL_clean_sbu_0, # of connection points: 6
#     Node 11, Type 0, BuildingBlock: BETDEL_clean_sbu_0, # of connection points: 6
#     Node 12, Type 0, BuildingBlock: BETDEL_clean_sbu_0, # of connection points: 6
#     Node 13, Type 0, BuildingBlock: BETDEL_clean_sbu_0, # of connection points: 6
#     Node 14, Type 0, BuildingBlock: BETDEL_clean_sbu_0, # of connection points: 6
#     Node 15, Type 0, BuildingBlock: BETDEL_clean_sbu_0, # of connection points: 6
#     Edge 16, Type (0, 0), BuildingBlock: OJICUG_clean_linker_0, # of connection points: 2
#     Edge 17, Type (0, 0), BuildingBlock: OJICUG_clean_linker_0, # of connection points: 2
#     Edge 18, Type (0, 0), BuildingBlock: OJICUG_clean_linker_0, # of connection points: 2
#     Edge 19, Type (0, 0), BuildingBlock: OJICUG_clean_linker_0, # of connection points: 2
#     Edge 20, Type (0, 0), BuildingBlock: OJICUG_clean_linker_0, # of connection points: 2
#     Edge 21, Type (0, 0), BuildingBlock: OJICUG_clean_linker_0, # of connection points: 2
#     Edge 22, Type (0, 0), BuildingBlock: OJICUG_clean_linker_0, # of connection points: 2
#     Edge 23, Type (0, 0), BuildingBlock: OJICUG_clean_linker_0, # of connection points: 2
#     Edge 24, Type (0, 0), BuildingBlock: OJICUG_clean_linker_0, # of connection points: 2
#     Edge 25, Type (0, 0), BuildingBlock: OJICUG_clean_linker_0, # of connection points: 2
#     Edge 26, Type (0, 0), BuildingBlock: OJICUG_clean_linker_0, # of connection points: 2
#     Edge 27, Type (0, 0), BuildingBlock: OJICUG_clean_linker_0, # of connection points: 2
#     Edge 28, Type (0, 0), BuildingBlock: OJICUG_clean_linker_0, # of connection points: 2
#     Edge 29, Type (0, 0), BuildingBlock: OJICUG_clean_linker_0, # of connection points: 2
#     Edge 30, Type (0, 0), BuildingBlock: OJICUG_clean_linker_0, # of connection points: 2
#     Edge 31, Type (0, 0), BuildingBlock: OJICUG_clean_linker_0, # of connection points: 2
#     Edge 32, Type (0, 0), BuildingBlock: OJICUG_clean_linker_0, # of connection points: 2
#     Edge 33, Type (0, 0), BuildingBlock: OJICUG_clean_linker_0, # of connection points: 2
#     Edge 34, Type (0, 0), BuildingBlock: OJICUG_clean_linker_0, # of connection points: 2
#     Edge 35, Type (0, 0), BuildingBlock: OJICUG_clean_linker_0, # of connection points: 2
#     Edge 36, Type (0, 0), BuildingBlock: OJICUG_clean_linker_0, # of connection points: 2
#     Edge 37, Type (0, 0), BuildingBlock: OJICUG_clean_linker_0, # of connection points: 2
#     Edge 38, Type (0, 0), BuildingBlock: OJICUG_clean_linker_0, # of connection points: 2
#     Edge 39, Type (0, 0), BuildingBlock: OJICUG_clean_linker_0, # of connection points: 2
#     Edge 40, Type (0, 0), BuildingBlock: OJICUG_clean_linker_0, # of connection points: 2
#     Edge 41, Type (0, 0), BuildingBlock: OJICUG_clean_linker_0, # of connection points: 2
#     Edge 42, Type (0, 0), BuildingBlock: OJICUG_clean_linker_0, # of connection points: 2
#     Edge 43, Type (0, 0), BuildingBlock: OJICUG_clean_linker_0, # of connection points: 2
#     Edge 44, Type (0, 0), BuildingBlock: OJICUG_clean_linker_0, # of connection points: 2
#     Edge 45, Type (0, 0), BuildingBlock: OJICUG_clean_linker_0, # of connection points: 2
#     Edge 46, Type (0, 0), BuildingBlock: OJICUG_clean_linker_0, # of connection points: 2
#     Edge 47, Type (0, 0), BuildingBlock: OJICUG_clean_linker_0, # of connection points: 2
#     Edge 48, Type (0, 0), BuildingBlock: OJICUG_clean_linker_0, # of connection points: 2
#     Edge 49, Type (0, 0), BuildingBlock: OJICUG_clean_linker_0, # of connection points: 2
#     Edge 50, Type (0, 0), BuildingBlock: OJICUG_clean_linker_0, # of connection points: 2
#     Edge 51, Type (0, 0), BuildingBlock: OJICUG_clean_linker_0, # of connection points: 2
#     Edge 52, Type (0, 0), BuildingBlock: OJICUG_clean_linker_0, # of connection points: 2
#     Edge 53, Type (0, 0), BuildingBlock: OJICUG_clean_linker_0, # of connection points: 2
#     Edge 54, Type (0, 0), BuildingBlock: OJICUG_clean_linker_0, # of connection points: 2
#     Edge 55, Type (0, 0), BuildingBlock: OJICUG_clean_linker_0, # of connection points: 2
#     Edge 56, Type (0, 0), BuildingBlock: OJICUG_clean_linker_0, # of connection points: 2
#     Edge 57, Type (0, 0), BuildingBlock: OJICUG_clean_linker_0, # of connection points: 2
#     Edge 58, Type (0, 0), BuildingBlock: OJICUG_clean_linker_0, # of connection points: 2
#     Edge 59, Type (0, 0), BuildingBlock: OJICUG_clean_linker_0, # of connection points: 2
#     Edge 60, Type (0, 0), BuildingBlock: OJICUG_clean_linker_0, # of connection points: 2
#     Edge 61, Type (0, 0), BuildingBlock: OJICUG_clean_linker_0, # of connection points: 2
#     Edge 62, Type (0, 0), BuildingBlock: OJICUG_clean_linker_0, # of connection points: 2
#     Edge 63, Type (0, 0), BuildingBlock: OJICUG_clean_linker_0, # of connection points: 2
# Relax obj value: 0.525
# Max RMSD: 0.280
# Mean RMSD: 0.280
data_MOF--net-whz--node1-BETDEL_clean_sbu_0--edge1-OJICUG_clean_linker_0
_symmetry_space_group_name_H-M    P1
_symmetry_Int_Tables_number       1
_symmetry_cell_setting            triclinic
loop_
_symmetry_equiv_pos_as_xyz
'x, y, z'
_cell_length_a     24.491622
_cell_length_b     24.514513
_cell_length_c     40.989443
_cell_angle_alpha  90.259917
_cell_angle_beta   90.526726
_cell_angle_gamma 90.278387
loop_
_atom_site_label
_atom_site_type_symbol
_atom_site_fract_x
_atom_site_fract_y
_atom_site_fract_z
_atom_type_partial_charge
Dy0 Dy 0.32976 0.19544 0.17097 0.0
C1 C 0.28069 0.13491 0.03995 0.0
C2 C 0.33239 0.23044 0.23358 0.0
Dy3 Dy 0.30546 0.14677 0.107 0.0
O4 O 0.34448 0.25985 0.2085 0.0
O5 O 0.32387 0.18036 0.22448 0.0
O6 O 0.32633 0.27504 0.14599 0.0
O7 O 0.26798 0.2165 0.13382 0.0
C8 C 0.28022 0.26674 0.1313 0.0
C9 C 0.34693 0.0781 0.15372 0.0
O10 O 0.38833 0.19314 0.10039 0.0
O11 O 0.41496 0.19567 0.15449 0.0
O12 O 0.30126 0.09764 0.0591 0.0
O13 O 0.27395 0.17852 0.05765 0.0
O14 O 0.30984 0.06326 0.13239 0.0
O15 O 0.36173 0.12554 0.14663 0.0
O16 O 0.25402 0.14802 0.18359 0.0
O17 O 0.22587 0.12379 0.13142 0.0
C18 C 0.42627 0.20355 0.1235 0.0
C19 C 0.21811 0.12492 0.16354 0.0
Dy20 Dy 0.6036 0.55599 0.42478 0.0
C21 C 0.65793 0.53491 0.29244 0.0
C22 C 0.59365 0.56571 0.4895 0.0
Dy23 Dy 0.64163 0.5623 0.3579 0.0
O24 O 0.56349 0.53451 0.47107 0.0
O25 O 0.62743 0.59437 0.47248 0.0
O26 O 0.54949 0.4875 0.41188 0.0
O27 O 0.55767 0.55129 0.37823 0.0
C28 C 0.53318 0.50623 0.38401 0.0
C29 C 0.71217 0.59829 0.40651 0.0
O30 O 0.58845 0.63788 0.35671 0.0
O31 O 0.57768 0.64178 0.41256 0.0
O32 O 0.6817 0.57535 0.30794 0.0
O33 O 0.62595 0.51039 0.31281 0.0
O34 O 0.70535 0.62472 0.37924 0.0
O35 O 0.68302 0.55704 0.40471 0.0
O36 O 0.6559 0.48329 0.42761 0.0
O37 O 0.66323 0.47365 0.37203 0.0
C38 C 0.5712 0.66376 0.38325 0.0
C39 C 0.66877 0.45346 0.40212 0.0
Dy40 Dy 0.2393 0.85737 0.67103 0.0
C41 C 0.26161 0.91619 0.53924 0.0
C42 C 0.23071 0.81313 0.73059 0.0
Dy43 Dy 0.23643 0.90222 0.60513 0.0
O44 O 0.23308 0.78601 0.70356 0.0
O45 O 0.23014 0.86522 0.72493 0.0
O46 O 0.31666 0.8187 0.658 0.0
O47 O 0.25288 0.81777 0.62373 0.0
C48 C 0.30004 0.7986 0.63053 0.0
C49 C 0.19004 0.96399 0.65367 0.0
O50 O 0.16128 0.84856 0.60096 0.0
O51 O 0.15225 0.8404 0.65658 0.0
O52 O 0.23316 0.94982 0.55707 0.0
O53 O 0.27698 0.87621 0.55776 0.0
O54 O 0.16796 0.95973 0.62459 0.0
O55 O 0.23302 0.93795 0.65343 0.0
O56 O 0.30935 0.91226 0.67982 0.0
O57 O 0.32018 0.9333 0.62511 0.0
C58 C 0.13362 0.83146 0.62661 0.0
C59 C 0.338 0.93445 0.65624 0.0
Dy60 Dy 0.94588 0.48836 0.91724 0.0
C61 C 0.87506 0.51103 0.79058 0.0
C62 C 0.98798 0.4762 0.97718 0.0
Dy63 Dy 0.89779 0.48487 0.85542 0.0
O64 O 0.93627 0.47437 0.9703 0.0
O65 O 1.01626 0.48218 0.951 0.0
O66 O 0.99297 0.56035 0.90226 0.0
O67 O 0.98633 0.49453 0.8697 0.0
C68 C 1.01071 0.54006 0.8753 0.0
C69 C 0.83219 0.44981 0.90603 0.0
O70 O 0.94802 0.4075 0.85094 0.0
O71 O 0.95292 0.3992 0.90623 0.0
O72 O 0.91077 0.53427 0.80967 0.0
O73 O 0.85018 0.47319 0.8072 0.0
O74 O 0.83541 0.42352 0.87836 0.0
O75 O 0.86196 0.49044 0.90378 0.0
O76 O 0.90077 0.56418 0.92634 0.0
O77 O 0.87789 0.57334 0.87211 0.0
C78 C 0.96125 0.37848 0.87699 0.0
C79 C 0.88034 0.59369 0.90251 0.0
Dy80 Dy 0.7347 0.90452 0.96321 0.0
C81 C 0.70317 0.82 0.83702 0.0
C82 C 0.76165 0.91544 1.02986 0.0
Dy83 Dy 0.70776 0.855 0.89969 0.0
O84 O 0.74018 0.95298 1.01125 0.0
O85 O 0.76837 0.87226 1.01182 0.0
O86 O 0.72948 0.9879 0.93799 0.0
O87 O 0.67729 0.92583 0.92373 0.0
C88 C 0.69262 0.97323 0.91647 0.0
C89 C 0.75997 0.78493 0.93911 0.0
O90 O 0.78298 0.90262 0.88631 0.0
O91 O 0.81315 0.92661 0.93819 0.0
O92 O 0.69274 0.79033 0.86226 0.0
O93 O 0.71101 0.87016 0.8461 0.0
O94 O 0.71353 0.77567 0.92498 0.0
O95 O 0.77141 0.83516 0.93586 0.0
O96 O 0.65498 0.85569 0.97185 0.0
O97 O 0.62382 0.85365 0.91864 0.0
C98 C 0.81937 0.92578 0.90602 0.0
C99 C 0.61561 0.84485 0.94993 0.0
Dy100 Dy 0.40506 0.49027 0.71577 0.0
C101 C 0.55405 0.51998 0.61793 0.0
C102 C 0.37743 0.51448 0.78037 0.0
Dy103 Dy 0.47474 0.49976 0.66131 0.0
O104 O 0.35692 0.47423 0.76302 0.0
O105 O 0.41039 0.54151 0.76182 0.0
O106 O 0.34687 0.43191 0.68783 0.0
O107 O 0.38705 0.49285 0.66243 0.0
C108 C 0.35689 0.45186 0.65888 0.0
C109 C 0.52482 0.55051 0.72371 0.0
O110 O 0.42678 0.57256 0.64768 0.0
O111 O 0.3766 0.57321 0.69518 0.0
O112 O 0.52814 0.55708 0.63411 0.0
O113 O 0.53646 0.47156 0.62541 0.0
O114 O 0.49472 0.51113 0.71289 0.0
O115 O 0.49475 0.51103 0.71195 0.0
O116 O 0.45387 0.4102 0.71714 0.0
O117 O 0.47229 0.40987 0.66224 0.0
C118 C 0.39124 0.59639 0.66699 0.0
C119 C 0.47244 0.38468 0.69063 0.0
Dy120 Dy 0.80969 0.14416 0.46251 0.0
C121 C 0.85789 0.18221 0.33017 0.0
C122 C 0.78844 0.13987 0.52976 0.0
Dy123 Dy 0.83992 0.17626 0.39535 0.0
O124 O 0.81777 0.10549 0.51311 0.0
O125 O 0.76987 0.17602 0.50935 0.0
O126 O 0.81218 0.05667 0.44181 0.0
O127 O 0.86812 0.11359 0.42689 0.0
C128 C 0.85241 0.06566 0.42195 0.0
C129 C 0.79201 0.25906 0.42722 0.0
O130 O 0.76092 0.13156 0.38521 0.0
O131 O 0.73025 0.11994 0.43821 0.0
O132 O 0.83121 0.14346 0.34441 0.0
O133 O 0.87584 0.21678 0.35182 0.0
O134 O 0.83396 0.26327 0.40849 0.0
O135 O 0.77829 0.20911 0.42919 0.0
O136 O 0.8864 0.19826 0.46886 0.0
O137 O 0.9219 0.18075 0.41827 0.0
C138 C 0.72349 0.11496 0.40609 0.0
C139 C 0.92771 0.20097 0.44796 0.0
Dy140 Dy 0.14618 0.56924 0.21518 0.0
C141 C 0.06287 0.58074 0.09086 0.0
C142 C 0.16509 0.54258 0.28045 0.0
Dy143 Dy 0.101 0.56772 0.15163 0.0
O144 O 0.19141 0.57999 0.26425 0.0
O145 O 0.12985 0.52 0.26073 0.0
O146 O 0.21061 0.62953 0.19346 0.0
O147 O 0.18352 0.5633 0.16744 0.0
C148 C 0.21439 0.60315 0.16585 0.0
C149 C 0.03266 0.5191 0.19283 0.0
O150 O 0.14413 0.49045 0.14357 0.0
O151 O 0.16445 0.48039 0.19817 0.0
O152 O 0.11423 0.57965 0.09866 0.0
O153 O 0.033 0.5775 0.11659 0.0
O154 O 0.05024 0.49796 0.16605 0.0
O155 O 0.05868 0.56351 0.19865 0.0
O156 O 0.09709 0.64753 0.21813 0.0
O157 O 0.09678 0.65706 0.16274 0.0
C158 C 0.16274 0.46031 0.16765 0.0
C159 C 0.08689 0.67741 0.1919 0.0
Dy160 Dy 0.83256 0.69888 0.6717 0.0
C161 C 0.79079 0.63829 0.54013 0.0
C162 C 0.83081 0.73211 0.7346 0.0
Dy163 Dy 0.81148 0.65085 0.60715 0.0
O164 O 0.84405 0.76241 0.71009 0.0
O165 O 0.82353 0.68216 0.72488 0.0
O166 O 0.83476 0.7784 0.64669 0.0
O167 O 0.77522 0.722 0.63273 0.0
C168 C 0.78998 0.77149 0.63031 0.0
C169 C 0.84773 0.58142 0.65492 0.0
O170 O 0.89438 0.69741 0.60245 0.0
O171 O 0.91833 0.69699 0.65693 0.0
O172 O 0.81119 0.6014 0.55957 0.0
O173 O 0.78222 0.68191 0.55745 0.0
O174 O 0.81103 0.56767 0.63312 0.0
O175 O 0.86437 0.62827 0.64804 0.0
O176 O 0.75327 0.65586 0.68136 0.0
O177 O 0.72848 0.63283 0.62843 0.0
C178 C 0.93121 0.70654 0.62634 0.0
C179 C 0.71785 0.63523 0.66013 0.0
Dy180 Dy 0.09048 0.05543 0.91457 0.0
C181 C 0.15324 0.03758 0.78687 0.0
C182 C 0.04958 0.07027 0.97382 0.0
Dy183 Dy 0.13743 0.06127 0.85289 0.0
O184 O 1.02176 0.05329 0.94883 0.0
O185 O 0.10019 0.07902 0.96655 0.0
O186 O 0.04529 0.9829 0.89763 0.0
O187 O 0.04984 0.05068 0.86686 0.0
C188 C 0.02647 1.00454 0.8712 0.0
C189 C 0.20204 0.0981 0.90472 0.0
O190 O 0.08899 0.14001 0.84934 0.0
O191 O 0.07882 0.14424 0.90457 0.0
O192 O 0.11461 1.01892 0.80518 0.0
O193 O 0.18494 0.06856 0.80502 0.0
O194 O 0.19722 0.12493 0.87736 0.0
O195 O 0.17411 0.05619 0.9015 0.0
O196 O 0.1384 0.98187 0.92381 0.0
O197 O 0.15986 0.97286 0.8695 0.0
C198 C 0.0731 0.16689 0.87568 0.0
C199 C 0.15882 0.95264 0.89994 0.0
Dy200 Dy 0.74082 0.34423 0.16743 0.0
C201 C 0.7505 0.41547 0.03881 0.0
C202 C 0.77564 0.28384 0.21824 0.0
Dy203 Dy 0.73441 0.40195 0.1061 0.0
O204 O 0.78551 0.33533 0.21437 0.0
O205 O 0.74368 0.26528 0.19519 0.0
O206 O 0.78555 0.33142 0.12237 0.0
O207 O 0.78501 0.33135 0.12325 0.0
C208 C 0.79688 0.28355 0.1117 0.0
C209 C 0.68915 0.45668 0.15803 0.0
O210 O 0.65718 0.34756 0.10249 0.0
O211 O 0.65906 0.3105 0.15465 0.0
O212 O 0.73182 0.45248 0.05889 0.0
O213 O 0.75915 0.37161 0.05561 0.0
O214 O 0.71474 0.48049 0.13406 0.0
O215 O 0.68489 0.40654 0.15155 0.0
O216 O 0.78965 0.41597 0.18301 0.0
O217 O 0.81229 0.43714 0.12988 0.0
C218 C 0.63588 0.31504 0.12539 0.0
C219 C 0.8211 0.44157 0.16205 0.0
Dy220 Dy 0.44752 0.98857 0.41764 0.0
C221 C 0.37827 1.00747 0.28938 0.0
C222 C 0.49179 0.98292 0.47747 0.0
Dy223 Dy 0.39974 0.9827 0.35472 0.0
O224 O 0.51906 0.983 0.45066 0.0
O225 O 0.43975 0.98263 0.47142 0.0
O226 O 0.49374 0.06011 0.40079 0.0
O227 O 0.48753 0.99247 0.36983 0.0
C228 C 0.51164 0.03832 0.37432 0.0
C229 C 0.33462 0.94804 0.40516 0.0
O230 O 0.449 0.90413 0.35294 0.0
O231 O 0.45257 0.8987 0.40859 0.0
O232 O 0.352 0.97119 0.30648 0.0
O233 O 0.41505 0.0297 0.3082 0.0
O234 O 0.33766 0.9215 0.37757 0.0
O235 O 0.36408 0.98892 0.40293 0.0
O236 O 0.40095 0.06362 0.42555 0.0
O237 O 0.37909 0.07149 0.37104 0.0
C238 C 0.46075 0.8762 0.37977 0.0
C239 C 0.3809 0.09248 0.40135 0.0
Dy240 Dy 0.23435 0.40387 0.46234 0.0
C241 C 0.20677 0.32237 0.33556 0.0
C242 C 0.26121 0.41749 0.52842 0.0
Dy243 Dy 0.2104 0.35625 0.39843 0.0
O244 O 0.24232 0.45513 0.50901 0.0
O245 O 0.26455 0.37252 0.51169 0.0
O246 O 0.22671 0.48744 0.43771 0.0
O247 O 0.17604 0.42433 0.42331 0.0
C248 C 0.18958 0.47234 0.41656 0.0
C249 C 0.26288 0.28542 0.43698 0.0
O250 O 0.2853 0.40599 0.38637 0.0
O251 O 0.31383 0.42593 0.43904 0.0
O252 O 0.1952 0.29261 0.36055 0.0
O253 O 0.2153 0.37231 0.3449 0.0
O254 O 0.21715 0.276 0.42219 0.0
O255 O 0.27382 0.33602 0.43477 0.0
O256 O 0.15688 0.35166 0.47047 0.0
O257 O 0.1265 0.3495 0.41712 0.0
C258 C 0.32117 0.42757 0.40707 0.0
C259 C 0.11873 0.33866 0.44821 0.0
Dy260 Dy 0.8992 0.98398 0.21955 0.0
C261 C 0.9876 1.00735 0.09902 0.0
C262 C 0.87924 1.00019 0.28575 0.0
Dy263 Dy 0.94712 1.00251 0.15881 0.0
O264 O 0.85026 0.96861 0.2664 0.0
O265 O 0.91756 1.02242 0.26863 0.0
O266 O 0.84457 0.9194 0.19212 0.0
O267 O 0.86375 0.99211 0.17076 0.0
C268 C 0.83921 0.94851 0.16565 0.0
C269 C 1.0089 0.04905 0.20471 0.0
O270 O 0.89105 0.07187 0.1538 0.0
O271 O 0.86963 0.07183 0.20832 0.0
O272 O 1.01266 1.02475 0.12486 0.0
O273 O 0.94072 0.98575 0.10575 0.0
O274 O 0.98566 0.07517 0.18118 0.0
O275 O 0.98706 1.00155 0.20655 0.0
O276 O 0.95177 0.90864 0.22039 0.0
O277 O 0.96916 0.91398 0.1656 0.0
C278 C 0.86877 0.09578 0.17908 0.0
C279 C 0.97265 0.88731 0.19355 0.0
Dy280 Dy 0.30848 0.64407 0.9646 0.0
C281 C 0.33982 0.72411 0.83961 0.0
C282 C 0.28634 0.63384 1.0313 0.0
Dy283 Dy 0.33248 0.6911 0.9019 0.0
O284 O 0.31026 0.59748 1.01301 0.0
O285 O 0.27409 0.67506 1.01288 0.0
O286 O 0.31538 0.56067 0.93897 0.0
O287 O 0.36729 0.62317 0.92646 0.0
C288 C 0.35332 0.57552 0.9187 0.0
C289 C 0.27915 0.76249 0.93935 0.0
O290 O 0.2571 0.64223 0.88828 0.0
O291 O 0.22945 0.61874 0.94021 0.0
O292 O 0.35022 0.75421 0.86489 0.0
O293 O 0.32955 0.67449 0.84847 0.0
O294 O 0.32533 0.77172 0.92559 0.0
O295 O 0.26846 0.7118 0.93708 0.0
O296 O 0.3847 0.69856 0.97362 0.0
O297 O 0.41642 0.69769 0.92118 0.0
C298 C 0.22163 0.6189 0.90809 0.0
C299 C 0.42357 0.71039 0.95212 0.0
Dy300 Dy 0.65657 0.07354 0.71394 0.0
C301 C 0.57906 0.09058 0.58733 0.0
C302 C 0.67296 0.04529 0.77961 0.0
Dy303 Dy 0.61608 0.07418 0.64821 0.0
O304 O 0.6997 0.08312 0.76395 0.0
O305 O 0.63862 1.02317 0.75912 0.0
O306 O 0.71926 0.13769 0.69386 0.0
O307 O 0.69677 0.07135 0.66688 0.0
C308 C 0.72616 0.11221 0.66617 0.0
C309 C 0.54801 1.01912 0.68628 0.0
O310 O 0.6629 0.99924 0.64066 0.0
O311 O 0.67661 0.98595 0.69586 0.0
O312 O 0.54935 0.09054 0.6132 0.0
O313 O 0.63012 0.08441 0.59505 0.0
O314 O 0.56714 1.00173 0.65896 0.0
O315 O 0.57124 0.06423 0.6941 0.0
O316 O 0.60266 0.14845 0.71683 0.0
O317 O 0.60953 0.1622 0.66194 0.0
C318 C 0.67864 0.96791 0.66493 0.0
C319 C 0.59406 0.17951 0.69091 0.0
C320 C 0.27613 0.21993 0.28281 0.0
C321 C 0.30533 0.25402 0.2618 0.0
H322 H 0.21908 0.21519 0.3217 0.0
C323 C 0.29863 0.31078 0.2637 0.0
H324 H 0.27982 0.17596 0.28132 0.0
C325 C 0.26286 0.33317 0.28619 0.0
C326 C 0.23367 0.29906 0.3072 0.0
H327 H 0.31985 0.33784 0.24721 0.0
H328 H 0.2592 0.37714 0.28774 0.0
C329 C 0.24031 0.24229 0.30524 0.0
C330 C 0.59476 0.48938 0.56695 0.0
C331 C 0.5855 0.53185 0.58902 0.0
H332 H 0.60333 0.46802 0.51683 0.0
C333 C 0.59272 0.58637 0.57942 0.0
H334 H 0.59045 0.44707 0.5741 0.0
C335 C 0.60036 0.59834 0.54659 0.0
C336 C 0.60028 0.55563 0.52394 0.0
H337 H 0.5867 0.61961 0.5965 0.0
H338 H 0.60099 0.64044 0.53867 0.0
C339 C 0.60136 0.50131 0.53428 0.0
C340 C 0.27344 0.82464 0.78459 0.0
C341 C 0.25141 0.78995 0.76063 0.0
H342 H 0.32229 0.83078 0.82768 0.0
C343 C 0.26087 0.73361 0.76195 0.0
H344 H 0.26734 0.86836 0.78363 0.0
C345 C 0.29328 0.71225 0.78664 0.0
C346 C 0.31622 0.74707 0.81024 0.0
H347 H 0.24481 0.70632 0.74329 0.0
H348 H 0.29955 0.66854 0.78761 0.0
C349 C 0.30614 0.80334 0.80913 0.0
C350 C 0.97072 0.51248 1.03163 0.0
C351 C 1.00826 0.49613 1.00806 0.0
H352 H 0.9585 0.5567 0.07567 0.0
C353 C 0.0633 0.51153 1.01066 0.0
H354 H 0.9278 0.50186 1.02959 0.0
C355 C 0.08055 0.54404 0.03644 0.0
C356 C 0.04295 0.56054 0.05995 0.0
H357 H 0.09258 0.50004 0.99221 0.0
H358 H 0.12347 0.55463 0.03855 0.0
C359 C 0.9879 0.54517 0.0573 0.0
C360 C 0.73838 0.74069 0.80648 0.0
C361 C 0.72995 0.79721 0.80845 0.0
H362 H 0.77973 0.67568 0.78226 0.0
C363 C 0.75753 0.83219 0.78718 0.0
H364 H 0.71839 0.71299 0.82313 0.0
C365 C 0.79376 0.81101 0.76456 0.0
C366 C 0.80242 0.75454 0.76269 0.0
H367 H 0.75244 0.87602 0.78868 0.0
H368 H 0.81389 0.83879 0.74801 0.0
C369 C 0.77451 0.71949 0.78377 0.0
C370 C 0.84939 0.27294 0.25878 0.0
C371 C 0.80339 0.25097 0.24281 0.0
H372 H 0.90528 0.26585 0.29868 0.0
C373 C 0.78448 0.19884 0.25104 0.0
H374 H 0.86597 0.31228 0.25192 0.0
C375 C 0.80738 0.17195 0.27779 0.0
C376 C 0.84924 0.19728 0.29613 0.0
H377 H 0.75 0.18064 0.23824 0.0
H378 H 0.78912 0.13401 0.28579 0.0
C379 C 0.8725 0.24601 0.28514 0.0
C380 C 0.05459 0.04799 0.06263 0.0
C381 C 1.0035 1.02336 0.06696 0.0
H382 H 0.10881 0.08485 1.02882 0.0
C383 C 0.96535 1.02037 0.04147 0.0
H384 H 0.08393 0.05144 0.08251 0.0
C385 C 0.97892 0.04067 1.01127 0.0
C386 C 0.03094 0.06301 1.00652 0.0
H387 H 0.92516 1.00269 0.04488 0.0
H388 H 0.94973 0.03651 0.99136 0.0
C389 C 0.06832 0.06796 1.03235 0.0
C390 C 0.47945 0.0287 0.53 0.0
C391 C 0.51469 1.00635 0.5069 0.0
H392 H 0.47255 0.07754 0.57273 0.0
C393 C 0.57087 1.01738 0.50843 0.0
H394 H 0.43574 1.02181 0.52866 0.0
C395 C 0.5918 0.05021 0.53317 0.0
C396 C 0.55663 0.0717 0.55662 0.0
H397 H 0.59844 1.00148 0.4902 0.0
H398 H 0.63555 0.05671 0.53476 0.0
C399 C 0.50027 0.06185 0.55453 0.0
C400 C 0.23097 0.16424 0.95127 0.0
C401 C 0.22982 0.11169 0.93708 0.0
H402 H 0.24694 0.21289 0.99458 0.0
C403 C 0.24782 0.06804 0.95685 0.0
H404 H 0.21633 0.1988 0.93742 0.0
C405 C 0.26547 0.07598 0.98941 0.0
C406 C 0.26505 0.12792 1.00412 0.0
H407 H 0.24699 0.02677 0.94727 0.0
H408 H 0.27801 0.04079 1.00344 0.0
C409 C 0.24802 0.17214 0.98433 0.0
C410 C 0.6964 0.54789 0.23499 0.0
C411 C 0.66562 0.51736 0.25748 0.0
H412 H 0.72746 0.55362 0.1859 0.0
C413 C 0.64148 0.46838 0.24631 0.0
H414 H 0.71564 0.58578 0.2426 0.0
C415 C 0.6484 0.44995 0.21408 0.0
C416 C 0.67916 0.48008 0.19152 0.0
H417 H 0.61756 0.44356 0.26272 0.0
H418 H 0.62984 0.41149 0.20688 0.0
C419 C 0.70287 0.52962 0.20237 0.0
C420 C 0.2676 0.97178 0.48737 0.0
C421 C 0.27494 0.92191 0.50353 0.0
H422 H 0.28016 1.01835 0.44382 0.0
C423 C 0.29657 0.87794 0.48533 0.0
H424 H 0.2513 1.00657 0.50036 0.0
C425 C 0.31177 0.88422 0.45225 0.0
C426 C 0.30641 0.93492 0.43662 0.0
H427 H 0.30284 0.83881 0.49689 0.0
H428 H 0.3306 0.85041 0.4396 0.0
C429 C 0.28373 0.97831 0.45471 0.0
C430 C 0.81948 0.51929 0.7022 0.0
C431 C 0.85542 0.55785 0.68844 0.0
H432 H 0.79697 0.47393 0.74527 0.0
C433 C 0.89774 0.57877 0.70838 0.0
H434 H 0.78602 0.50274 0.68776 0.0
C435 C 0.90343 0.56312 0.74106 0.0
C436 C 0.86735 0.52545 0.75522 0.0
H437 H 0.92625 0.60848 0.69886 0.0
H438 H 0.93632 0.5811 0.75539 0.0
C439 C 0.82551 0.50311 0.73524 0.0
C440 C 0.80985 0.88367 0.11843 0.0
C441 C 0.81327 0.93614 0.1326 0.0
H442 H 0.79191 0.83582 0.07506 0.0
C443 C 0.79767 0.98055 0.11273 0.0
H444 H 0.82234 0.84843 0.13241 0.0
C445 C 0.77988 0.97348 0.08019 0.0
C446 C 0.77787 0.92159 0.06556 0.0
H447 H 0.80028 1.02167 0.12224 0.0
H448 H 0.76909 1.00923 0.06615 0.0
C449 C 0.79282 0.87659 0.08532 0.0
C450 C 0.32533 0.51541 0.86948 0.0
C451 C 0.36072 0.55408 0.88438 0.0
H452 H 0.30227 0.47214 0.8252 0.0
C453 C 0.40156 0.57738 0.86483 0.0
H454 H 0.29295 0.49693 0.88352 0.0
C455 C 0.40603 0.56425 0.83156 0.0
C456 C 0.37044 0.5265 0.81631 0.0
H457 H 0.42955 0.60734 0.87509 0.0
H458 H 0.43772 0.5842 0.81765 0.0
C459 C 0.33036 0.50154 0.83591 0.0
C460 C 0.79547 0.09269 0.58458 0.0
C461 C 0.77777 0.13762 0.56613 0.0
H462 H 0.79426 0.0508 0.63045 0.0
C463 C 0.74905 0.17906 0.58286 0.0
H464 H 0.81743 0.05983 0.5729 0.0
C465 C 0.73679 0.1745 0.6166 0.0
C466 C 0.75295 0.12833 0.63463 0.0
H467 H 0.73457 0.21435 0.56963 0.0
H468 H 0.71171 0.20534 0.62797 0.0
C469 C 0.78284 0.08795 0.61794 0.0
C470 C 0.14121 0.47292 0.36225 0.0
C471 C 0.18184 0.49538 0.38285 0.0
H472 H 0.10469 0.46959 0.31458 0.0
C473 C 0.21687 0.5353 0.36961 0.0
H474 H 0.11363 0.44194 0.37134 0.0
C475 C 0.21172 0.55136 0.33653 0.0
C476 C 0.17155 0.52776 0.31589 0.0
H477 H 0.24911 0.55307 0.38453 0.0
H478 H 0.23963 0.58163 0.32702 0.0
C479 C 0.13624 0.48866 0.32946 0.0
C480 C 0.77911 0.57887 0.48986 0.0
C481 C 0.77633 0.63075 0.50443 0.0
H482 H 0.76221 0.52894 0.44785 0.0
C483 C 0.75754 0.67431 0.48477 0.0
H484 H 0.79309 0.54426 0.50392 0.0
C485 C 0.74054 0.66569 0.45189 0.0
C486 C 0.74138 0.6131 0.43792 0.0
H487 H 0.75466 0.71494 0.49507 0.0
H488 H 0.72399 0.69948 0.43812 0.0
C489 C 0.76163 0.57021 0.45743 0.0
C490 C 0.11779 0.99635 0.7335 0.0
C491 C 0.15908 1.02496 0.75101 0.0
H492 H 0.09364 0.95624 0.68849 0.0
C493 C 0.20636 0.03979 0.73401 0.0
H494 H 0.08067 0.98421 0.74571 0.0
C495 C 0.21345 1.02402 0.70123 0.0
C496 C 0.17312 0.99391 0.68394 0.0
H497 H 0.23904 0.06165 0.74644 0.0
H498 H 0.25209 0.03316 0.68974 0.0
C499 C 0.12464 0.98111 0.70041 0.0
C500 C 0.77992 0.3778 0.98331 0.0
C501 C 0.76487 0.42264 1.0032 0.0
H502 H 0.81132 0.35005 0.93687 0.0
C503 C 0.76702 0.47474 0.98912 0.0
H504 H 0.77905 0.33694 0.99322 0.0
C505 C 0.78581 0.4821 0.95701 0.0
C506 C 0.80223 0.43769 0.93729 0.0
H507 H 0.75619 0.51031 1.00338 0.0
H508 H 0.78909 0.52337 0.94784 0.0
C509 C 0.79797 0.38513 0.95077 0.0
C510 C 0.39825 0.07636 0.20699 0.0
C511 C 0.35593 0.05478 0.18728 0.0
H512 H 0.43786 0.0789 0.25377 0.0
C513 C 0.32098 1.01555 0.2013 0.0
H514 H 0.42595 0.10669 0.1973 0.0
C515 C 0.32792 0.99934 0.23428 0.0
C516 C 0.36986 1.02209 0.25401 0.0
H517 H 0.28749 0.99848 0.18709 0.0
H518 H 0.30002 0.96968 0.24444 0.0
C519 C 0.40501 0.06046 0.23962 0.0
C520 C 0.31337 0.3889 0.61583 0.0
C521 C 0.32581 0.44167 0.6275 0.0
H522 H 0.28426 0.33967 0.57537 0.0
C523 C 0.31386 0.48606 0.60682 0.0
H524 H 0.32265 0.35371 0.63073 0.0
C525 C 0.29108 0.47821 0.57547 0.0
C526 C 0.28065 0.42552 0.56317 0.0
H527 H 0.323 0.52736 0.61474 0.0
H528 H 0.2834 0.51355 0.56038 0.0
C529 C 0.29168 0.38092 0.58395 0.0
C530 C 0.82548 0.99461 0.33923 0.0
C531 C 0.87235 1.01032 0.32173 0.0
H532 H 0.78197 0.99891 0.3849 0.0
C533 C 0.91385 0.03854 0.33885 0.0
H534 H 0.79265 0.97284 0.3269 0.0
C535 C 0.90816 0.05258 0.37183 0.0
C536 C 0.86059 0.03936 0.38914 0.0
H537 H 0.95069 0.05115 0.32649 0.0
H538 H 0.94047 0.0761 0.38353 0.0
C539 C 0.81957 1.0091 0.37259 0.0
C540 C 0.23901 0.66725 0.11893 0.0
C541 C 0.24294 0.61624 0.13441 0.0
H542 H 0.24879 0.71276 0.07432 0.0
C543 C 0.26389 0.57235 0.11598 0.0
H544 H 0.22146 0.70154 0.13179 0.0
C545 C 0.27947 0.57858 0.08321 0.0
C546 C 0.27362 0.62879 0.0672 0.0
H547 H 0.2663 0.53207 0.12668 0.0
H548 H 0.29422 0.5433 0.07003 0.0
C549 C 0.25394 0.67335 0.08573 0.0
C550 C 0.718 0.05247 0.83646 0.0
C551 C 0.67823 0.02964 0.81519 0.0
H552 H 0.75398 0.05329 0.88488 0.0
C553 C 0.64226 0.99061 0.82832 0.0
H554 H 0.74647 0.08262 0.82742 0.0
C555 C 0.64609 0.97439 0.86119 0.0
C556 C 0.68631 0.99615 0.8824 0.0
H557 H 0.61096 0.97203 0.81303 0.0
H558 H 0.6179 0.94363 0.86987 0.0
C559 C 0.72206 0.03589 0.86956 0.0
C560 C 0.49232 0.26978 0.09595 0.0
C561 C 0.48242 0.22514 0.11673 0.0
H562 H 0.54865 0.33375 0.08207 0.0
C563 C 0.52542 0.2077 0.13706 0.0
H564 H 0.45988 0.28498 0.0804 0.0
C565 C 0.57528 0.23569 0.13839 0.0
C566 C 0.58451 0.28244 0.11939 0.0
H567 H 0.51952 0.1736 0.15342 0.0
H568 H 0.60622 0.22145 0.15534 0.0
C569 C 0.54306 0.29806 0.09716 0.0
C570 C 0.53331 0.74513 0.35111 0.0
C571 C 0.54186 0.71757 0.38092 0.0
H572 H 0.50093 0.81636 0.32695 0.0
C573 C 0.52137 0.74197 0.40943 0.0
H574 H 0.54819 0.72776 0.32857 0.0
C575 C 0.4942 0.79208 0.40846 0.0
C576 C 0.48625 0.82037 0.37895 0.0
H577 H 0.52646 0.72246 0.43291 0.0
H578 H 0.47987 0.80894 0.43128 0.0
C579 C 0.50589 0.79591 0.35014 0.0
C580 C 1.02598 0.72529 0.64588 0.0
C581 C 0.98625 0.73192 0.62119 0.0
H582 H 0.10176 0.75124 0.66692 0.0
C583 C 0.99746 0.76923 0.59599 0.0
H584 H 1.01951 0.69668 0.66557 0.0
C585 C 0.04609 0.80092 0.59666 0.0
C586 C 0.08365 0.79644 0.62286 0.0
H587 H 0.96765 0.77588 0.57676 0.0
H588 H 0.0531 0.83044 0.57756 0.0
C589 C 0.07332 0.75713 0.64685 0.0
C590 C 1.0042 0.29909 0.84514 0.0
C591 C 0.98874 0.32376 0.87485 0.0
H592 H 0.04316 0.23049 0.82165 0.0
C593 C 1.00238 0.29656 0.90395 0.0
H594 H 0.99485 0.31883 0.82219 0.0
C595 C 0.03026 0.24697 0.90365 0.0
C596 C 0.04577 0.22178 0.87423 0.0
H597 H 0.99179 0.3137 0.92744 0.0
H598 H 0.03938 0.22824 0.92694 0.0
C599 C 0.0323 0.24858 0.84483 0.0
C600 C 0.56018 0.77265 0.97951 0.0
C601 C 0.56281 0.81819 0.95861 0.0
H602 H 0.51343 0.70191 0.99427 0.0
C603 C 0.51614 0.83139 0.94018 0.0
H604 H 0.59581 0.76081 0.99357 0.0
C605 C 0.46974 0.79807 0.94055 0.0
C606 C 0.4682 0.75032 0.95937 0.0
H607 H 0.5167 0.86591 0.92375 0.0
H608 H 0.43592 0.80807 0.92446 0.0
C609 C 0.51313 0.7388 0.97984 0.0
C610 C 0.51312 0.30382 0.72181 0.0
C611 C 0.50005 0.33018 0.69222 0.0
H612 H 0.55328 0.2357 0.74502 0.0
C613 C 0.51809 0.30609 0.66304 0.0
H614 H 0.50035 0.32124 0.74481 0.0
C615 C 0.54886 0.25832 0.6632 0.0
C616 C 0.56274 0.23196 0.69253 0.0
H617 H 0.50916 0.32457 0.63965 0.0
H618 H 0.56161 0.242 0.63989 0.0
C619 C 0.54394 0.25504 0.72195 0.0
C620 C 0.07244 0.25055 0.43749 0.0
C621 C 0.0737 0.29959 0.45532 0.0
H622 H 0.02655 0.18064 0.42218 0.0
C623 C 0.02879 0.31231 0.47511 0.0
H624 H 0.10635 0.23954 0.42202 0.0
C625 C 0.98205 0.27802 0.47516 0.0
C626 C 0.9798 0.23075 0.45536 0.0
H627 H 0.0284 0.35015 0.48885 0.0
H628 H 0.94656 0.29039 0.48885 0.0
C629 C 0.0265 0.21668 0.43759 0.0
C630 C 0.05283 0.76303 0.16512 0.0
C631 C 0.06026 0.73246 0.19384 0.0
H632 H 1.01989 0.83413 0.14247 0.0
C633 C 0.03875 0.75371 0.22303 0.0
H634 H 0.06851 0.74847 0.14206 0.0
C635 C 1.01014 0.80372 0.22323 0.0
C636 C 1.0023 0.83372 0.19425 0.0
H637 H 0.04322 0.73134 0.24561 0.0
H638 H 0.99401 0.8187 0.24607 0.0
C639 C 1.0245 0.81254 0.16532 0.0
C640 C 0.22388 0.31752 0.17152 0.0
C641 C 0.23958 0.30926 0.13878 0.0
H642 H 0.18844 0.37201 0.20676 0.0
C643 C 0.2271 0.34924 0.11579 0.0
H644 H 0.23431 0.28764 0.18993 0.0
C645 C 0.20062 0.39712 0.12536 0.0
C646 C 0.18718 0.4069 0.15838 0.0
H647 H 0.24011 0.34468 0.09073 0.0
H648 H 0.19292 0.42763 0.10687 0.0
C649 C 0.19834 0.36606 0.1813 0.0
C650 C 0.40504 0.42589 0.37238 0.0
C651 C 0.37106 0.45376 0.39422 0.0
H652 H 0.48486 0.42192 0.35111 0.0
C653 C 0.38693 0.50566 0.40543 0.0
H654 H 0.39349 0.38584 0.36332 0.0
C655 C 0.43772 0.52762 0.39693 0.0
C656 C 0.47439 0.49722 0.37798 0.0
H657 H 0.36109 0.5282 0.42199 0.0
H658 H 0.45077 0.56563 0.40822 0.0
C659 C 0.45683 0.44699 0.36485 0.0
C660 C 0.28362 0.70331 0.64731 0.0
C661 C 0.31361 0.74028 0.62811 0.0
H662 H 0.28532 0.6303 0.67632 0.0
C663 C 0.36725 0.72681 0.61974 0.0
H664 H 0.24254 0.71324 0.65479 0.0
C665 C 0.39162 0.67958 0.63206 0.0
C666 C 0.36346 0.64536 0.65377 0.0
H667 H 0.39194 0.75523 0.606 0.0
H668 H 0.43376 0.67143 0.62593 0.0
C669 C 0.30857 0.65673 0.66047 0.0
C670 C 0.10527 0.51854 0.89234 0.0
C671 C 0.0703 0.54873 0.87184 0.0
H672 H 0.17918 0.51817 0.92114 0.0
C673 C 0.08906 0.59929 0.8602 0.0
H674 H 0.09156 0.48013 0.90244 0.0
C675 C 0.13983 0.62066 0.87048 0.0
C676 C 0.17181 0.59296 0.89372 0.0
H677 H 0.06247 0.62441 0.84535 0.0
H678 H 0.15211 0.66073 0.86215 0.0
C679 C 0.1549 0.54087 0.90369 0.0
C680 C 0.8144 0.70332 0.95455 0.0
C681 C 0.801 0.74298 0.93153 0.0
H682 H 0.85018 0.6256 0.96339 0.0
C683 C 0.81653 0.73502 0.89876 0.0
H684 H 0.80156 0.70774 0.97965 0.0
C685 C 0.84285 0.68699 0.88895 0.0
C686 C 0.85496 0.64645 0.91189 0.0
H687 H 0.80539 0.76468 0.88037 0.0
H688 H 0.85267 0.68118 0.86346 0.0
C689 C 0.84169 0.65596 0.94494 0.0
C690 C 0.63327 0.64814 0.69297 0.0
C691 C 0.66554 0.61436 0.67321 0.0
H692 H 0.56288 0.65437 0.72374 0.0
C693 C 0.65126 0.55905 0.67006 0.0
H694 H 0.64439 0.69059 0.69662 0.0
C695 C 0.60557 0.538 0.6864 0.0
C696 C 0.57195 0.57233 0.7051 0.0
H697 H 0.67657 0.5317 0.65598 0.0
H698 H 0.5966 0.49479 0.68448 0.0
C699 C 0.58686 0.6274 0.7086 0.0
C700 C 0.7414 0.33992 0.44762 0.0
C701 C 0.75115 0.30229 0.42273 0.0
H702 H 0.70768 0.41696 0.46057 0.0
C703 C 0.73081 0.31274 0.39107 0.0
H704 H 0.75777 0.33336 0.47193 0.0
C705 C 0.7032 0.36134 0.3841 0.0
C706 C 0.69505 0.40011 0.40878 0.0
H707 H 0.73884 0.28444 0.37132 0.0
H708 H 0.68939 0.36902 0.35937 0.0
C709 C 0.71321 0.38809 0.44081 0.0
C710 C 0.88963 0.51886 0.16231 0.0
C711 C 0.87053 0.46962 0.17532 0.0
H712 H 0.95515 0.57713 0.1609 0.0
C713 C 0.90077 0.44508 0.20069 0.0
H714 H 0.86691 0.53905 0.14309 0.0
C715 C 0.95182 0.46611 0.21034 0.0
C716 C 0.97279 0.51336 0.19581 0.0
H717 H 0.887 0.40707 0.21129 0.0
H718 H 0.97691 0.44278 0.22708 0.0
C719 C 0.93968 0.54116 0.17302 0.0
C720 C 0.7477 0.85905 0.61435 0.0
C721 C 0.75068 0.81549 0.63606 0.0
H722 H 0.72273 0.94115 0.60661 0.0
C723 C 0.7279 0.82113 0.6674 0.0
H724 H 0.76657 0.85629 0.5906 0.0
C725 C 0.70445 0.87054 0.67729 0.0
C726 C 0.70263 0.9147 0.65573 0.0
H727 H 0.73139 0.78836 0.68496 0.0
H728 H 0.68855 0.87438 0.70176 0.0
C729 C 0.7233 0.90786 0.62391 0.0
C730 C 0.88469 1.00414 0.90065 0.0
C731 C 0.86803 0.95149 0.89125 0.0
H732 H 0.94713 0.06549 0.89826 0.0
C733 C 0.89847 0.92344 0.86766 0.0
H734 H 0.86123 0.02711 0.91823 0.0
C735 C 0.94811 0.94503 0.85658 0.0
C736 C 0.96703 0.996 0.86787 0.0
H737 H 0.886 0.88303 0.85966 0.0
H738 H 0.97401 0.91977 0.84153 0.0
C739 C 0.93312 0.02667 0.88851 0.0
C740 C 0.86586 0.19692 0.17632 0.0
C741 C 0.8392 0.14661 0.17185 0.0
H742 H 0.87272 0.28034 0.1608 0.0
C743 C 0.79475 0.14359 0.1499 0.0
H744 H 0.90148 0.19994 0.19211 0.0
C745 C 0.77973 0.1887 0.13104 0.0
C746 C 0.80792 0.23821 0.13444 0.0
H747 H 0.7743 0.10502 0.14543 0.0
H748 H 0.74729 0.18437 0.11305 0.0
C749 C 0.85006 0.24252 0.15794 0.0
C750 C 0.60581 1.01614 0.39155 0.0
C751 C 0.57116 0.04648 0.37094 0.0
H752 H 0.67982 1.0154 0.42024 0.0
C753 C 0.59021 0.09677 0.35912 0.0
H754 H 0.59184 0.97787 0.40169 0.0
C755 C 0.64109 0.11778 0.36932 0.0
C756 C 0.67276 0.08998 0.39262 0.0
H757 H 0.56383 0.12191 0.34415 0.0
H758 H 0.65386 0.15755 0.36075 0.0
C759 C 0.65556 0.03817 0.40282 0.0
C760 C 0.31962 0.23507 0.39692 0.0
C761 C 0.30436 0.24377 0.4297 0.0
H762 H 0.35451 0.18001 0.36178 0.0
C763 C 0.31699 0.20409 0.45283 0.0
H764 H 0.30884 0.26464 0.3784 0.0
C765 C 0.34311 0.15601 0.44336 0.0
C766 C 0.35605 0.14575 0.41033 0.0
H767 H 0.30417 0.20894 0.4779 0.0
H768 H 0.35095 0.12573 0.46196 0.0
C769 C 0.34485 0.18632 0.38725 0.0
C770 C 0.09083 0.10734 0.21546 0.0
C771 C 0.06909 0.05752 0.20403 0.0
H772 H 0.15498 0.16718 0.21193 0.0
C773 C 0.0998 0.02758 0.1812 0.0
H774 H 0.06756 0.13232 0.23214 0.0
C775 C 0.14804 0.04928 0.16792 0.0
C776 C 0.16802 0.10046 0.17813 0.0
H777 H 0.08377 0.98968 0.17126 0.0
H778 H 0.16912 0.02652 0.1492 0.0
C779 C 0.14025 0.12794 0.20321 0.0
C780 C 0.19687 0.8588 0.88718 0.0
C781 C 0.18492 0.90026 0.90964 0.0
H782 H 0.23394 0.7805 0.87973 0.0
C783 C 0.198 0.89171 0.94295 0.0
H784 H 0.1872 0.86378 0.86153 0.0
C785 C 0.22459 0.84442 0.95331 0.0
C786 C 0.23771 0.80374 0.93084 0.0
H787 H 0.18972 0.92271 0.96113 0.0
H788 H 0.23726 0.84089 0.97861 0.0
C789 C 0.22269 0.81082 0.89775 0.0
C790 C 0.40574 1.01219 0.65484 0.0
C791 C 0.38987 0.96092 0.66648 0.0
H792 H 0.46761 0.07443 0.65521 0.0
C793 C 0.42201 0.93594 0.69083 0.0
H794 H 0.381 0.03303 0.6368 0.0
C795 C 0.47136 0.95938 0.7013 0.0
C796 C 0.48886 1.00927 0.6885 0.0
H797 H 0.41023 0.89668 0.70066 0.0
H798 H 0.49781 0.93647 0.71749 0.0
C799 C 0.4544 0.03655 0.66617 0.0
loop_
_geom_bond_atom_site_label_1
_geom_bond_atom_site_label_2
_geom_bond_distance
_geom_bond_site_symmetry_2
_ccdc_geom_bond_type
Dy0 O4 2.398 . S
Dy0 O5 2.491 . S
Dy0 O6 2.403 . S
Dy0 O7 2.664 . S
Dy0 O11 2.326 . S
Dy0 O15 2.310 . S
Dy0 O16 2.351 . S
C1 O12 1.185 . S
C1 O13 1.355 . S
C2 O4 1.185 . S
C2 O5 1.355 . S
Dy3 O7 2.310 . S
Dy3 O10 2.351 . S
Dy3 O12 2.398 . S
Dy3 O13 2.491 . S
Dy3 O14 2.403 . S
Dy3 O15 2.664 . S
Dy3 O17 2.326 . S
O4 Dy0 2.398 . S
O4 C2 1.185 . S
O5 Dy0 2.491 . S
O5 C2 1.355 . S
O6 Dy0 2.403 . S
O6 C8 1.254 . S
O7 Dy0 2.664 . S
O7 Dy3 2.310 . S
O7 C8 1.268 . S
C8 O6 1.254 . S
C8 O7 1.268 . S
C9 O14 1.254 . S
C9 O15 1.268 . S
O10 Dy3 2.351 . S
O10 C18 1.249 . S
O11 Dy0 2.326 . S
O11 C18 1.267 . S
O12 C1 1.185 . S
O12 Dy3 2.398 . S
O13 C1 1.355 . S
O13 Dy3 2.491 . S
O14 Dy3 2.403 . S
O14 C9 1.254 . S
O15 Dy0 2.310 . S
O15 Dy3 2.664 . S
O15 C9 1.268 . S
O16 Dy0 2.351 . S
O16 C19 1.249 . S
O17 Dy3 2.326 . S
O17 C19 1.267 . S
C18 O10 1.249 . S
C18 O11 1.267 . S
C19 O16 1.249 . S
C19 O17 1.267 . S
Dy20 O24 2.398 . S
Dy20 O25 2.491 . S
Dy20 O26 2.403 . S
Dy20 O27 2.664 . S
Dy20 O31 2.326 . S
Dy20 O35 2.310 . S
Dy20 O36 2.351 . S
C21 O32 1.185 . S
C21 O33 1.355 . S
C22 O24 1.185 . S
C22 O25 1.355 . S
Dy23 O27 2.310 . S
Dy23 O30 2.351 . S
Dy23 O32 2.398 . S
Dy23 O33 2.491 . S
Dy23 O34 2.403 . S
Dy23 O35 2.664 . S
Dy23 O37 2.326 . S
O24 Dy20 2.398 . S
O24 C22 1.185 . S
O25 Dy20 2.491 . S
O25 C22 1.355 . S
O26 Dy20 2.403 . S
O26 C28 1.254 . S
O27 Dy20 2.664 . S
O27 Dy23 2.310 . S
O27 C28 1.268 . S
C28 O26 1.254 . S
C28 O27 1.268 . S
C29 O34 1.254 . S
C29 O35 1.268 . S
O30 Dy23 2.351 . S
O30 C38 1.249 . S
O31 Dy20 2.326 . S
O31 C38 1.267 . S
O32 C21 1.185 . S
O32 Dy23 2.398 . S
O33 C21 1.355 . S
O33 Dy23 2.491 . S
O34 Dy23 2.403 . S
O34 C29 1.254 . S
O35 Dy20 2.310 . S
O35 Dy23 2.664 . S
O35 C29 1.268 . S
O36 Dy20 2.351 . S
O36 C39 1.249 . S
O37 Dy23 2.326 . S
O37 C39 1.267 . S
C38 O30 1.249 . S
C38 O31 1.267 . S
C39 O36 1.249 . S
C39 O37 1.267 . S
Dy40 O44 2.398 . S
Dy40 O45 2.491 . S
Dy40 O46 2.403 . S
Dy40 O47 2.664 . S
Dy40 O51 2.326 . S
Dy40 O55 2.310 . S
Dy40 O56 2.351 . S
C41 O52 1.185 . S
C41 O53 1.355 . S
C42 O44 1.185 . S
C42 O45 1.355 . S
Dy43 O47 2.310 . S
Dy43 O50 2.351 . S
Dy43 O52 2.398 . S
Dy43 O53 2.491 . S
Dy43 O54 2.403 . S
Dy43 O55 2.664 . S
Dy43 O57 2.326 . S
O44 Dy40 2.398 . S
O44 C42 1.185 . S
O45 Dy40 2.491 . S
O45 C42 1.355 . S
O46 Dy40 2.403 . S
O46 C48 1.254 . S
O47 Dy40 2.664 . S
O47 Dy43 2.310 . S
O47 C48 1.268 . S
C48 O46 1.254 . S
C48 O47 1.268 . S
C49 O54 1.254 . S
C49 O55 1.268 . S
O50 Dy43 2.351 . S
O50 C58 1.249 . S
O51 Dy40 2.326 . S
O51 C58 1.267 . S
O52 C41 1.185 . S
O52 Dy43 2.398 . S
O53 C41 1.355 . S
O53 Dy43 2.491 . S
O54 Dy43 2.403 . S
O54 C49 1.254 . S
O55 Dy40 2.310 . S
O55 Dy43 2.664 . S
O55 C49 1.268 . S
O56 Dy40 2.351 . S
O56 C59 1.249 . S
O57 Dy43 2.326 . S
O57 C59 1.267 . S
C58 O50 1.249 . S
C58 O51 1.267 . S
C59 O56 1.249 . S
C59 O57 1.267 . S
Dy60 O64 2.398 1_655 S
Dy60 O65 2.491 . S
Dy60 O66 2.388 1_655 S
Dy60 O67 2.664 . S
Dy60 O71 2.326 . S
Dy60 O75 2.310 . S
Dy60 O76 2.351 . S
C61 O72 1.185 . S
C61 O73 1.355 . S
C62 O64 1.185 1_655 S
C62 O65 1.355 . S
Dy63 O67 2.310 . S
Dy63 O70 2.351 . S
Dy63 O72 2.398 . S
Dy63 O73 2.491 . S
Dy63 O74 2.403 . S
Dy63 O75 2.664 . S
Dy63 O77 2.326 . S
O64 Dy60 2.398 1_455 S
O64 C62 1.185 1_455 S
O65 Dy60 2.491 . S
O65 C62 1.355 . S
O66 Dy60 2.388 1_455 S
O66 C68 1.246 1_455 S
O67 Dy60 2.664 . S
O67 Dy63 2.310 . S
O67 C68 1.268 . S
C68 O66 1.246 1_655 S
C68 O67 1.268 . S
C69 O74 1.254 . S
C69 O75 1.268 . S
O70 Dy63 2.351 . S
O70 C78 1.249 . S
O71 Dy60 2.326 . S
O71 C78 1.267 . S
O72 C61 1.185 . S
O72 Dy63 2.398 . S
O73 C61 1.355 . S
O73 Dy63 2.491 . S
O74 Dy63 2.403 . S
O74 C69 1.254 . S
O75 Dy60 2.310 . S
O75 Dy63 2.664 . S
O75 C69 1.268 . S
O76 Dy60 2.351 . S
O76 C79 1.249 . S
O77 Dy63 2.326 . S
O77 C79 1.267 . S
C78 O70 1.249 . S
C78 O71 1.267 . S
C79 O76 1.249 . S
C79 O77 1.267 . S
Dy80 O84 2.398 . S
Dy80 O85 2.491 . S
Dy80 O86 2.403 . S
Dy80 O87 2.664 . S
Dy80 O91 2.326 . S
Dy80 O95 2.310 . S
Dy80 O96 2.351 . S
C81 O92 1.185 . S
C81 O93 1.355 . S
C82 O84 1.185 . S
C82 O85 1.355 . S
Dy83 O87 2.310 . S
Dy83 O90 2.351 . S
Dy83 O92 2.398 . S
Dy83 O93 2.491 . S
Dy83 O94 2.403 . S
Dy83 O95 2.664 . S
Dy83 O97 2.326 . S
O84 Dy80 2.398 . S
O84 C82 1.185 . S
O85 Dy80 2.491 . S
O85 C82 1.355 . S
O86 Dy80 2.403 . S
O86 C88 1.254 . S
O87 Dy80 2.664 . S
O87 Dy83 2.310 . S
O87 C88 1.268 . S
C88 O86 1.254 . S
C88 O87 1.268 . S
C89 O94 1.254 . S
C89 O95 1.268 . S
O90 Dy83 2.351 . S
O90 C98 1.249 . S
O91 Dy80 2.326 . S
O91 C98 1.267 . S
O92 C81 1.185 . S
O92 Dy83 2.398 . S
O93 C81 1.355 . S
O93 Dy83 2.491 . S
O94 Dy83 2.403 . S
O94 C89 1.254 . S
O95 Dy80 2.310 . S
O95 Dy83 2.664 . S
O95 C89 1.268 . S
O96 Dy80 2.351 . S
O96 C99 1.249 . S
O97 Dy83 2.326 . S
O97 C99 1.267 . S
C98 O90 1.249 . S
C98 O91 1.267 . S
C99 O96 1.249 . S
C99 O97 1.267 . S
Dy100 O104 2.398 . S
Dy100 O105 2.491 . S
Dy100 O106 2.403 . S
Dy100 O107 2.664 . S
Dy100 O111 2.326 . S
Dy100 O115 2.310 . S
Dy100 O116 2.351 . S
C101 O112 1.185 . S
C101 O113 1.355 . S
C102 O104 1.185 . S
C102 O105 1.355 . S
Dy103 O107 2.310 . S
Dy103 O110 2.351 . S
Dy103 O112 2.398 . S
Dy103 O113 2.491 . S
Dy103 O114 2.403 . S
Dy103 O115 2.664 . S
Dy103 O117 2.326 . S
O104 Dy100 2.398 . S
O104 C102 1.185 . S
O105 Dy100 2.491 . S
O105 C102 1.355 . S
O106 Dy100 2.403 . S
O106 C108 1.254 . S
O107 Dy100 2.664 . S
O107 Dy103 2.310 . S
O107 C108 1.268 . S
C108 O106 1.254 . S
C108 O107 1.268 . S
C109 O114 1.254 . S
C109 O115 1.268 . S
O110 Dy103 2.351 . S
O110 C118 1.249 . S
O111 Dy100 2.326 . S
O111 C118 1.267 . S
O112 C101 1.185 . S
O112 Dy103 2.398 . S
O113 C101 1.355 . S
O113 Dy103 2.491 . S
O114 Dy103 2.403 . S
O114 C109 1.254 . S
O115 Dy100 2.310 . S
O115 Dy103 2.664 . S
O115 C109 1.268 . S
O116 Dy100 2.351 . S
O116 C119 1.249 . S
O117 Dy103 2.326 . S
O117 C119 1.267 . S
C118 O110 1.249 . S
C118 O111 1.267 . S
C119 O116 1.249 . S
C119 O117 1.267 . S
Dy120 O124 2.398 . S
Dy120 O125 2.491 . S
Dy120 O126 2.403 . S
Dy120 O127 2.664 . S
Dy120 O131 2.326 . S
Dy120 O135 2.310 . S
Dy120 O136 2.351 . S
C121 O132 1.185 . S
C121 O133 1.355 . S
C122 O124 1.185 . S
C122 O125 1.355 . S
Dy123 O127 2.310 . S
Dy123 O130 2.351 . S
Dy123 O132 2.398 . S
Dy123 O133 2.491 . S
Dy123 O134 2.403 . S
Dy123 O135 2.664 . S
Dy123 O137 2.326 . S
O124 Dy120 2.398 . S
O124 C122 1.185 . S
O125 Dy120 2.491 . S
O125 C122 1.355 . S
O126 Dy120 2.403 . S
O126 C128 1.254 . S
O127 Dy120 2.664 . S
O127 Dy123 2.310 . S
O127 C128 1.268 . S
C128 O126 1.254 . S
C128 O127 1.268 . S
C129 O134 1.254 . S
C129 O135 1.268 . S
O130 Dy123 2.351 . S
O130 C138 1.249 . S
O131 Dy120 2.326 . S
O131 C138 1.267 . S
O132 C121 1.185 . S
O132 Dy123 2.398 . S
O133 C121 1.355 . S
O133 Dy123 2.491 . S
O134 Dy123 2.403 . S
O134 C129 1.254 . S
O135 Dy120 2.310 . S
O135 Dy123 2.664 . S
O135 C129 1.268 . S
O136 Dy120 2.351 . S
O136 C139 1.249 . S
O137 Dy123 2.326 . S
O137 C139 1.267 . S
C138 O130 1.249 . S
C138 O131 1.267 . S
C139 O136 1.249 . S
C139 O137 1.267 . S
Dy140 O144 2.398 . S
Dy140 O145 2.491 . S
Dy140 O146 2.403 . S
Dy140 O147 2.664 . S
Dy140 O151 2.326 . S
Dy140 O155 2.310 . S
Dy140 O156 2.351 . S
C141 O152 1.185 1_455 S
C141 O153 1.355 . S
C142 O144 1.185 . S
C142 O145 1.355 . S
Dy143 O147 2.310 . S
Dy143 O150 2.351 . S
Dy143 O152 2.398 1_455 S
Dy143 O153 2.491 . S
Dy143 O154 2.388 1_455 S
Dy143 O155 2.664 . S
Dy143 O157 2.326 . S
O144 Dy140 2.398 . S
O144 C142 1.185 . S
O145 Dy140 2.491 . S
O145 C142 1.355 . S
O146 Dy140 2.403 . S
O146 C148 1.254 . S
O147 Dy140 2.664 . S
O147 Dy143 2.310 . S
O147 C148 1.268 . S
C148 O146 1.254 . S
C148 O147 1.268 . S
C149 O154 1.246 1_455 S
C149 O155 1.268 . S
O150 Dy143 2.351 . S
O150 C158 1.249 . S
O151 Dy140 2.326 . S
O151 C158 1.267 . S
O152 C141 1.185 1_655 S
O152 Dy143 2.398 1_655 S
O153 C141 1.355 . S
O153 Dy143 2.491 . S
O154 Dy143 2.388 1_655 S
O154 C149 1.246 1_655 S
O155 Dy140 2.310 . S
O155 Dy143 2.664 . S
O155 C149 1.268 . S
O156 Dy140 2.351 . S
O156 C159 1.249 . S
O157 Dy143 2.326 . S
O157 C159 1.267 . S
C158 O150 1.249 . S
C158 O151 1.267 . S
C159 O156 1.249 . S
C159 O157 1.267 . S
Dy160 O164 2.398 . S
Dy160 O165 2.491 . S
Dy160 O166 2.403 . S
Dy160 O167 2.664 . S
Dy160 O171 2.326 . S
Dy160 O175 2.310 . S
Dy160 O176 2.351 . S
C161 O172 1.185 . S
C161 O173 1.355 . S
C162 O164 1.185 . S
C162 O165 1.355 . S
Dy163 O167 2.310 . S
Dy163 O170 2.351 . S
Dy163 O172 2.398 . S
Dy163 O173 2.491 . S
Dy163 O174 2.403 . S
Dy163 O175 2.664 . S
Dy163 O177 2.326 . S
O164 Dy160 2.398 . S
O164 C162 1.185 . S
O165 Dy160 2.491 . S
O165 C162 1.355 . S
O166 Dy160 2.403 . S
O166 C168 1.254 . S
O167 Dy160 2.664 . S
O167 Dy163 2.310 . S
O167 C168 1.268 . S
C168 O166 1.254 . S
C168 O167 1.268 . S
C169 O174 1.254 . S
C169 O175 1.268 . S
O170 Dy163 2.351 . S
O170 C178 1.249 . S
O171 Dy160 2.326 . S
O171 C178 1.267 . S
O172 C161 1.185 . S
O172 Dy163 2.398 . S
O173 C161 1.355 . S
O173 Dy163 2.491 . S
O174 Dy163 2.403 . S
O174 C169 1.254 . S
O175 Dy160 2.310 . S
O175 Dy163 2.664 . S
O175 C169 1.268 . S
O176 Dy160 2.351 . S
O176 C179 1.249 . S
O177 Dy163 2.326 . S
O177 C179 1.267 . S
C178 O170 1.249 . S
C178 O171 1.267 . S
C179 O176 1.249 . S
C179 O177 1.267 . S
Dy180 O184 2.400 1_455 S
Dy180 O185 2.501 . S
Dy180 O186 2.384 1_445 S
Dy180 O187 2.665 . S
Dy180 O191 2.338 . S
Dy180 O195 2.318 . S
Dy180 O196 2.341 1_545 S
C181 O192 1.185 . S
C181 O193 1.355 1_545 S
C182 O184 1.185 1_455 S
C182 O185 1.355 . S
Dy183 O187 2.310 . S
Dy183 O190 2.351 . S
Dy183 O192 2.398 . S
Dy183 O193 2.491 1_545 S
Dy183 O194 2.403 . S
Dy183 O195 2.664 . S
Dy183 O197 2.326 1_545 S
O184 Dy180 2.400 1_655 S
O184 C182 1.185 1_655 S
O185 Dy180 2.501 . S
O185 C182 1.355 . S
O186 Dy180 2.384 1_665 S
O186 C188 1.246 1_655 S
O187 Dy180 2.665 . S
O187 Dy183 2.310 . S
O187 C188 1.268 1_545 S
C188 O186 1.246 1_455 S
C188 O187 1.268 1_565 S
C189 O194 1.254 . S
C189 O195 1.268 . S
O190 Dy183 2.351 . S
O190 C198 1.249 . S
O191 Dy180 2.338 . S
O191 C198 1.267 . S
O192 C181 1.185 . S
O192 Dy183 2.398 . S
O193 C181 1.355 1_565 S
O193 Dy183 2.491 1_565 S
O194 Dy183 2.403 . S
O194 C189 1.254 . S
O195 Dy180 2.318 . S
O195 Dy183 2.664 . S
O195 C189 1.268 . S
O196 Dy180 2.341 1_565 S
O196 C199 1.249 . S
O197 Dy183 2.326 1_565 S
O197 C199 1.267 . S
C198 O190 1.249 . S
C198 O191 1.267 . S
C199 O196 1.249 . S
C199 O197 1.267 . S
Dy200 O204 2.398 . S
Dy200 O205 2.491 . S
Dy200 O206 2.403 . S
Dy200 O207 2.664 . S
Dy200 O211 2.326 . S
Dy200 O215 2.310 . S
Dy200 O216 2.351 . S
C201 O212 1.185 . S
C201 O213 1.355 . S
C202 O204 1.185 . S
C202 O205 1.355 . S
Dy203 O207 2.310 . S
Dy203 O210 2.351 . S
Dy203 O212 2.398 . S
Dy203 O213 2.491 . S
Dy203 O214 2.403 . S
Dy203 O215 2.664 . S
Dy203 O217 2.326 . S
O204 Dy200 2.398 . S
O204 C202 1.185 . S
O205 Dy200 2.491 . S
O205 C202 1.355 . S
O206 Dy200 2.403 . S
O206 C208 1.254 . S
O207 Dy200 2.664 . S
O207 Dy203 2.310 . S
O207 C208 1.268 . S
C208 O206 1.254 . S
C208 O207 1.268 . S
C209 O214 1.254 . S
C209 O215 1.268 . S
O210 Dy203 2.351 . S
O210 C218 1.249 . S
O211 Dy200 2.326 . S
O211 C218 1.267 . S
O212 C201 1.185 . S
O212 Dy203 2.398 . S
O213 C201 1.355 . S
O213 Dy203 2.491 . S
O214 Dy203 2.403 . S
O214 C209 1.254 . S
O215 Dy200 2.310 . S
O215 Dy203 2.664 . S
O215 C209 1.268 . S
O216 Dy200 2.351 . S
O216 C219 1.249 . S
O217 Dy203 2.326 . S
O217 C219 1.267 . S
C218 O210 1.249 . S
C218 O211 1.267 . S
C219 O216 1.249 . S
C219 O217 1.267 . S
Dy220 O224 2.400 . S
Dy220 O225 2.501 . S
Dy220 O226 2.399 1_565 S
Dy220 O227 2.665 . S
Dy220 O231 2.338 . S
Dy220 O235 2.318 . S
Dy220 O236 2.341 1_565 S
C221 O232 1.185 . S
C221 O233 1.355 1_565 S
C222 O224 1.185 . S
C222 O225 1.355 . S
Dy223 O227 2.310 . S
Dy223 O230 2.351 . S
Dy223 O232 2.398 . S
Dy223 O233 2.491 1_565 S
Dy223 O234 2.403 . S
Dy223 O235 2.664 . S
Dy223 O237 2.326 1_565 S
O224 Dy220 2.400 . S
O224 C222 1.185 . S
O225 Dy220 2.501 . S
O225 C222 1.355 . S
O226 Dy220 2.399 1_545 S
O226 C228 1.254 . S
O227 Dy220 2.665 . S
O227 Dy223 2.310 . S
O227 C228 1.268 1_565 S
C228 O226 1.254 . S
C228 O227 1.268 1_545 S
C229 O234 1.254 . S
C229 O235 1.268 . S
O230 Dy223 2.351 . S
O230 C238 1.249 . S
O231 Dy220 2.338 . S
O231 C238 1.267 . S
O232 C221 1.185 . S
O232 Dy223 2.398 . S
O233 C221 1.355 1_545 S
O233 Dy223 2.491 1_545 S
O234 Dy223 2.403 . S
O234 C229 1.254 . S
O235 Dy220 2.318 . S
O235 Dy223 2.664 . S
O235 C229 1.268 . S
O236 Dy220 2.341 1_545 S
O236 C239 1.249 . S
O237 Dy223 2.326 1_545 S
O237 C239 1.267 . S
C238 O230 1.249 . S
C238 O231 1.267 . S
C239 O236 1.249 . S
C239 O237 1.267 . S
Dy240 O244 2.398 . S
Dy240 O245 2.491 . S
Dy240 O246 2.403 . S
Dy240 O247 2.664 . S
Dy240 O251 2.326 . S
Dy240 O255 2.310 . S
Dy240 O256 2.351 . S
C241 O252 1.185 . S
C241 O253 1.355 . S
C242 O244 1.185 . S
C242 O245 1.355 . S
Dy243 O247 2.310 . S
Dy243 O250 2.351 . S
Dy243 O252 2.398 . S
Dy243 O253 2.491 . S
Dy243 O254 2.403 . S
Dy243 O255 2.664 . S
Dy243 O257 2.326 . S
O244 Dy240 2.398 . S
O244 C242 1.185 . S
O245 Dy240 2.491 . S
O245 C242 1.355 . S
O246 Dy240 2.403 . S
O246 C248 1.254 . S
O247 Dy240 2.664 . S
O247 Dy243 2.310 . S
O247 C248 1.268 . S
C248 O246 1.254 . S
C248 O247 1.268 . S
C249 O254 1.254 . S
C249 O255 1.268 . S
O250 Dy243 2.351 . S
O250 C258 1.249 . S
O251 Dy240 2.326 . S
O251 C258 1.267 . S
O252 C241 1.185 . S
O252 Dy243 2.398 . S
O253 C241 1.355 . S
O253 Dy243 2.491 . S
O254 Dy243 2.403 . S
O254 C249 1.254 . S
O255 Dy240 2.310 . S
O255 Dy243 2.664 . S
O255 C249 1.268 . S
O256 Dy240 2.351 . S
O256 C259 1.249 . S
O257 Dy243 2.326 . S
O257 C259 1.267 . S
C258 O250 1.249 . S
C258 O251 1.267 . S
C259 O256 1.249 . S
C259 O257 1.267 . S
Dy260 O264 2.398 . S
Dy260 O265 2.491 1_565 S
Dy260 O266 2.403 . S
Dy260 O267 2.664 . S
Dy260 O271 2.326 1_565 S
Dy260 O275 2.310 . S
Dy260 O276 2.351 . S
C261 O272 1.185 1_655 S
C261 O273 1.355 . S
C262 O264 1.185 . S
C262 O265 1.355 1_565 S
Dy263 O267 2.318 . S
Dy263 O270 2.341 1_565 S
Dy263 O272 2.400 1_655 S
Dy263 O273 2.501 . S
Dy263 O274 2.384 1_665 S
Dy263 O275 2.665 . S
Dy263 O277 2.338 . S
O264 Dy260 2.398 . S
O264 C262 1.185 . S
O265 Dy260 2.491 1_545 S
O265 C262 1.355 1_545 S
O266 Dy260 2.403 . S
O266 C268 1.254 . S
O267 Dy260 2.664 . S
O267 Dy263 2.318 . S
O267 C268 1.268 . S
C268 O266 1.254 . S
C268 O267 1.268 . S
C269 O274 1.246 1_655 S
C269 O275 1.268 1_545 S
O270 Dy263 2.341 1_545 S
O270 C278 1.249 . S
O271 Dy260 2.326 1_545 S
O271 C278 1.267 . S
O272 C261 1.185 1_455 S
O272 Dy263 2.400 1_455 S
O273 C261 1.355 . S
O273 Dy263 2.501 . S
O274 Dy263 2.384 1_445 S
O274 C269 1.246 1_455 S
O275 Dy260 2.310 . S
O275 Dy263 2.665 . S
O275 C269 1.268 1_565 S
O276 Dy260 2.351 . S
O276 C279 1.249 . S
O277 Dy263 2.338 . S
O277 C279 1.267 . S
C278 O270 1.249 . S
C278 O271 1.267 . S
C279 O276 1.249 . S
C279 O277 1.267 . S
Dy280 O284 2.398 . S
Dy280 O285 2.491 . S
Dy280 O286 2.403 . S
Dy280 O287 2.664 . S
Dy280 O291 2.326 . S
Dy280 O295 2.310 . S
Dy280 O296 2.351 . S
C281 O292 1.185 . S
C281 O293 1.355 . S
C282 O284 1.185 . S
C282 O285 1.355 . S
Dy283 O287 2.310 . S
Dy283 O290 2.351 . S
Dy283 O292 2.398 . S
Dy283 O293 2.491 . S
Dy283 O294 2.403 . S
Dy283 O295 2.664 . S
Dy283 O297 2.326 . S
O284 Dy280 2.398 . S
O284 C282 1.185 . S
O285 Dy280 2.491 . S
O285 C282 1.355 . S
O286 Dy280 2.403 . S
O286 C288 1.254 . S
O287 Dy280 2.664 . S
O287 Dy283 2.310 . S
O287 C288 1.268 . S
C288 O286 1.254 . S
C288 O287 1.268 . S
C289 O294 1.254 . S
C289 O295 1.268 . S
O290 Dy283 2.351 . S
O290 C298 1.249 . S
O291 Dy280 2.326 . S
O291 C298 1.267 . S
O292 C281 1.185 . S
O292 Dy283 2.398 . S
O293 C281 1.355 . S
O293 Dy283 2.491 . S
O294 Dy283 2.403 . S
O294 C289 1.254 . S
O295 Dy280 2.310 . S
O295 Dy283 2.664 . S
O295 C289 1.268 . S
O296 Dy280 2.351 . S
O296 C299 1.249 . S
O297 Dy283 2.326 . S
O297 C299 1.267 . S
C298 O290 1.249 . S
C298 O291 1.267 . S
C299 O296 1.249 . S
C299 O297 1.267 . S
Dy300 O304 2.398 . S
Dy300 O305 2.491 1_545 S
Dy300 O306 2.403 . S
Dy300 O307 2.664 . S
Dy300 O311 2.326 1_545 S
Dy300 O315 2.310 . S
Dy300 O316 2.351 . S
C301 O312 1.185 . S
C301 O313 1.355 . S
C302 O304 1.185 . S
C302 O305 1.355 1_545 S
Dy303 O307 2.318 . S
Dy303 O310 2.341 1_545 S
Dy303 O312 2.400 . S
Dy303 O313 2.501 . S
Dy303 O314 2.399 1_545 S
Dy303 O315 2.665 . S
Dy303 O317 2.338 . S
O304 Dy300 2.398 . S
O304 C302 1.185 . S
O305 Dy300 2.491 1_565 S
O305 C302 1.355 1_565 S
O306 Dy300 2.403 . S
O306 C308 1.254 . S
O307 Dy300 2.664 . S
O307 Dy303 2.318 . S
O307 C308 1.268 . S
C308 O306 1.254 . S
C308 O307 1.268 . S
C309 O314 1.254 . S
C309 O315 1.268 1_565 S
O310 Dy303 2.341 1_565 S
O310 C318 1.249 . S
O311 Dy300 2.326 1_565 S
O311 C318 1.267 . S
O312 C301 1.185 . S
O312 Dy303 2.400 . S
O313 C301 1.355 . S
O313 Dy303 2.501 . S
O314 Dy303 2.399 1_565 S
O314 C309 1.254 . S
O315 Dy300 2.310 . S
O315 Dy303 2.665 . S
O315 C309 1.268 1_545 S
O316 Dy300 2.351 . S
O316 C319 1.249 . S
O317 Dy303 2.338 . S
O317 C319 1.267 . S
C318 O310 1.249 . S
C318 O311 1.267 . S
C319 O316 1.249 . S
C319 O317 1.267 . S
C320 C321 1.387 . S
C320 H324 0.950 . S
C320 C329 1.390 . S
C321 C320 1.387 . S
C321 C323 1.387 . S
H322 C329 0.950 . S
C323 C321 1.387 . S
C323 C325 1.390 . S
C323 H327 0.950 . S
H324 C320 0.950 . S
C325 C323 1.390 . S
C325 C326 1.387 . S
C325 H328 0.950 . S
C326 C325 1.387 . S
C326 C329 1.387 . S
H327 C323 0.950 . S
H328 C325 0.950 . S
C329 C320 1.390 . S
C329 H322 0.950 . S
C329 C326 1.387 . S
C330 C331 1.387 . S
C330 H334 0.950 . S
C330 C339 1.390 . S
C331 C330 1.387 . S
C331 C333 1.387 . S
H332 C339 0.950 . S
C333 C331 1.387 . S
C333 C335 1.390 . S
C333 H337 0.950 . S
H334 C330 0.950 . S
C335 C333 1.390 . S
C335 C336 1.387 . S
C335 H338 0.950 . S
C336 C335 1.387 . S
C336 C339 1.387 . S
H337 C333 0.950 . S
H338 C335 0.950 . S
C339 C330 1.390 . S
C339 H332 0.950 . S
C339 C336 1.387 . S
C340 C341 1.387 . S
C340 H344 0.950 . S
C340 C349 1.390 . S
C341 C340 1.387 . S
C341 C343 1.387 . S
H342 C349 0.950 . S
C343 C341 1.387 . S
C343 C345 1.390 . S
C343 H347 0.950 . S
H344 C340 0.950 . S
C345 C343 1.390 . S
C345 C346 1.387 . S
C345 H348 0.950 . S
C346 C345 1.387 . S
C346 C349 1.387 . S
H347 C343 0.950 . S
H348 C345 0.950 . S
C349 C340 1.390 . S
C349 H342 0.950 . S
C349 C346 1.387 . S
C350 C351 1.387 1_554 S
C350 H354 0.950 . S
C350 C359 1.390 . S
C351 C350 1.387 1_556 S
C351 C353 1.387 1_655 S
H352 C359 0.950 . S
C353 C351 1.387 1_455 S
C353 C355 1.390 . S
C353 H357 0.950 . S
H354 C350 0.950 . S
C355 C353 1.390 . S
C355 C356 1.387 1_556 S
C355 H358 0.950 . S
C356 C355 1.387 1_554 S
C356 C359 1.387 1_455 S
H357 C353 0.950 . S
H358 C355 0.950 . S
C359 C350 1.390 . S
C359 H352 0.950 . S
C359 C356 1.387 1_655 S
C360 C361 1.387 . S
C360 H364 0.950 . S
C360 C369 1.390 . S
C361 C360 1.387 . S
C361 C363 1.387 . S
H362 C369 0.950 . S
C363 C361 1.387 . S
C363 C365 1.390 . S
C363 H367 0.950 . S
H364 C360 0.950 . S
C365 C363 1.390 . S
C365 C366 1.387 . S
C365 H368 0.950 . S
C366 C365 1.387 . S
C366 C369 1.387 . S
H367 C363 0.950 . S
H368 C365 0.950 . S
C369 C360 1.390 . S
C369 H362 0.950 . S
C369 C366 1.387 . S
C370 C371 1.387 . S
C370 H374 0.950 . S
C370 C379 1.390 . S
C371 C370 1.387 . S
C371 C373 1.387 . S
H372 C379 0.950 . S
C373 C371 1.387 . S
C373 C375 1.390 . S
C373 H377 0.950 . S
H374 C370 0.950 . S
C375 C373 1.390 . S
C375 C376 1.387 . S
C375 H378 0.950 . S
C376 C375 1.387 . S
C376 C379 1.387 . S
H377 C373 0.950 . S
H378 C375 0.950 . S
C379 C370 1.390 . S
C379 H372 0.950 . S
C379 C376 1.387 . S
C380 C381 1.387 1_455 S
C380 H384 0.950 . S
C380 C389 1.390 1_564 S
C381 C380 1.387 1_655 S
C381 C383 1.387 . S
H382 C389 0.950 . S
C383 C381 1.387 . S
C383 C385 1.390 1_564 S
C383 H387 0.950 . S
H384 C380 0.950 . S
C385 C383 1.390 1_546 S
C385 C386 1.387 1_655 S
C385 H388 0.950 . S
C386 C385 1.387 1_455 S
C386 C389 1.387 . S
H387 C383 0.950 . S
H388 C385 0.950 . S
C389 C380 1.390 1_546 S
C389 H382 0.950 . S
C389 C386 1.387 . S
C390 C391 1.387 . S
C390 H394 0.950 . S
C390 C399 1.390 1_565 S
C391 C390 1.387 . S
C391 C393 1.387 . S
H392 C399 0.950 . S
C393 C391 1.387 . S
C393 C395 1.390 1_565 S
C393 H397 0.950 . S
H394 C390 0.950 . S
C395 C393 1.390 1_545 S
C395 C396 1.387 . S
C395 H398 0.950 . S
C396 C395 1.387 . S
C396 C399 1.387 . S
H397 C393 0.950 . S
H398 C395 0.950 . S
C399 C390 1.390 1_545 S
C399 H392 0.950 . S
C399 C396 1.387 . S
C400 C401 1.387 . S
C400 H404 0.950 . S
C400 C409 1.427 . S
C401 C400 1.387 . S
C401 C403 1.387 . S
H402 C409 0.926 1_554 S
C403 C401 1.387 . S
C403 C405 1.390 . S
C403 H407 0.950 1_545 S
H404 C400 0.950 . S
C405 C403 1.390 . S
C405 C406 1.387 1_556 S
C405 H408 0.950 1_545 S
C406 C405 1.387 1_554 S
C406 C409 1.375 1_554 S
H407 C403 0.950 1_565 S
H408 C405 0.950 1_565 S
C409 C400 1.427 . S
C409 H402 0.926 1_556 S
C409 C406 1.375 1_556 S
C410 C411 1.387 . S
C410 H414 0.950 . S
C410 C419 1.390 . S
C411 C410 1.387 . S
C411 C413 1.387 . S
H412 C419 0.950 . S
C413 C411 1.387 . S
C413 C415 1.390 . S
C413 H417 0.950 . S
H414 C410 0.950 . S
C415 C413 1.390 . S
C415 C416 1.387 . S
C415 H418 0.950 . S
C416 C415 1.387 . S
C416 C419 1.387 . S
H417 C413 0.950 . S
H418 C415 0.950 . S
C419 C410 1.390 . S
C419 H412 0.950 . S
C419 C416 1.387 . S
C420 C421 1.387 . S
C420 H424 0.950 . S
C420 C429 1.390 . S
C421 C420 1.387 . S
C421 C423 1.387 . S
H422 C429 0.950 . S
C423 C421 1.387 . S
C423 C425 1.390 . S
C423 H427 0.950 . S
H424 C420 0.950 . S
C425 C423 1.390 . S
C425 C426 1.387 . S
C425 H428 0.950 . S
C426 C425 1.387 . S
C426 C429 1.387 . S
H427 C423 0.950 . S
H428 C425 0.950 . S
C429 C420 1.390 . S
C429 H422 0.950 . S
C429 C426 1.387 . S
C430 C431 1.387 . S
C430 H434 0.950 . S
C430 C439 1.390 . S
C431 C430 1.387 . S
C431 C433 1.387 . S
H432 C439 0.950 . S
C433 C431 1.387 . S
C433 C435 1.390 . S
C433 H437 0.950 . S
H434 C430 0.950 . S
C435 C433 1.390 . S
C435 C436 1.387 . S
C435 H438 0.950 . S
C436 C435 1.387 . S
C436 C439 1.387 . S
H437 C433 0.950 . S
H438 C435 0.950 . S
C439 C430 1.390 . S
C439 H432 0.950 . S
C439 C436 1.387 . S
C440 C441 1.387 . S
C440 H444 0.950 . S
C440 C449 1.390 . S
C441 C440 1.387 . S
C441 C443 1.387 . S
H442 C449 0.950 1_556 S
C443 C441 1.387 . S
C443 C445 1.390 . S
C443 H447 0.950 1_565 S
H444 C440 0.950 . S
C445 C443 1.390 . S
C445 C446 1.387 1_554 S
C445 H448 0.950 1_564 S
C446 C445 1.387 1_556 S
C446 C449 1.387 1_556 S
H447 C443 0.950 1_545 S
H448 C445 0.950 1_546 S
C449 C440 1.390 . S
C449 H442 0.950 1_554 S
C449 C446 1.387 1_554 S
C450 C451 1.387 . S
C450 H454 0.950 . S
C450 C459 1.390 . S
C451 C450 1.387 . S
C451 C453 1.387 . S
H452 C459 0.950 . S
C453 C451 1.387 . S
C453 C455 1.390 . S
C453 H457 0.950 . S
H454 C450 0.950 . S
C455 C453 1.390 . S
C455 C456 1.387 . S
C455 H458 0.950 . S
C456 C455 1.387 . S
C456 C459 1.387 . S
H457 C453 0.950 . S
H458 C455 0.950 . S
C459 C450 1.390 . S
C459 H452 0.950 . S
C459 C456 1.387 . S
C460 C461 1.387 . S
C460 H464 0.950 1_545 S
C460 C469 1.390 . S
C461 C460 1.387 . S
C461 C463 1.387 . S
H462 C469 0.950 1_565 S
C463 C461 1.387 . S
C463 C465 1.390 . S
C463 H467 0.950 . S
H464 C460 0.950 1_565 S
C465 C463 1.390 . S
C465 C466 1.387 . S
C465 H468 0.950 . S
C466 C465 1.387 . S
C466 C469 1.387 . S
H467 C463 0.950 . S
H468 C465 0.950 . S
C469 C460 1.390 . S
C469 H462 0.950 1_545 S
C469 C466 1.387 . S
C470 C471 1.387 . S
C470 H474 0.950 . S
C470 C479 1.390 . S
C471 C470 1.387 . S
C471 C473 1.387 . S
H472 C479 0.950 . S
C473 C471 1.387 . S
C473 C475 1.390 . S
C473 H477 0.950 . S
H474 C470 0.950 . S
C475 C473 1.390 . S
C475 C476 1.387 . S
C475 H478 0.950 . S
C476 C475 1.387 . S
C476 C479 1.387 . S
H477 C473 0.950 . S
H478 C475 0.950 . S
C479 C470 1.390 . S
C479 H472 0.950 . S
C479 C476 1.387 . S
C480 C481 1.387 . S
C480 H484 0.950 . S
C480 C489 1.390 . S
C481 C480 1.387 . S
C481 C483 1.387 . S
H482 C489 0.950 . S
C483 C481 1.387 . S
C483 C485 1.390 . S
C483 H487 0.950 . S
H484 C480 0.950 . S
C485 C483 1.390 . S
C485 C486 1.387 . S
C485 H488 0.950 . S
C486 C485 1.387 . S
C486 C489 1.387 . S
H487 C483 0.950 . S
H488 C485 0.950 . S
C489 C480 1.390 . S
C489 H482 0.950 . S
C489 C486 1.387 . S
C490 C491 1.387 1_545 S
C490 H494 0.950 . S
C490 C499 1.390 . S
C491 C490 1.387 1_565 S
C491 C493 1.387 . S
H492 C499 0.950 . S
C493 C491 1.387 . S
C493 C495 1.390 . S
C493 H497 0.950 . S
H494 C490 0.950 . S
C495 C493 1.390 . S
C495 C496 1.387 . S
C495 H498 0.950 . S
C496 C495 1.387 . S
C496 C499 1.387 1_565 S
H497 C493 0.950 . S
H498 C495 0.950 . S
C499 C490 1.390 . S
C499 H492 0.950 . S
C499 C496 1.387 1_545 S
C500 C501 1.387 1_556 S
C500 H504 0.950 1_556 S
C500 C509 1.390 . S
C501 C500 1.387 1_554 S
C501 C503 1.387 1_554 S
H502 C509 0.950 . S
C503 C501 1.387 1_556 S
C503 C505 1.390 . S
C503 H507 0.950 . S
H504 C500 0.950 1_554 S
C505 C503 1.390 . S
C505 C506 1.387 . S
C505 H508 0.950 . S
C506 C505 1.387 . S
C506 C509 1.387 . S
H507 C503 0.950 . S
H508 C505 0.950 . S
C509 C500 1.390 . S
C509 H502 0.950 . S
C509 C506 1.387 . S
C510 C511 1.387 . S
C510 H514 0.950 . S
C510 C519 1.390 . S
C511 C510 1.387 . S
C511 C513 1.387 1_545 S
H512 C519 0.950 . S
C513 C511 1.387 1_565 S
C513 C515 1.390 . S
C513 H517 0.950 . S
H514 C510 0.950 . S
C515 C513 1.390 . S
C515 C516 1.387 1_565 S
C515 H518 0.950 . S
C516 C515 1.387 1_545 S
C516 C519 1.387 . S
H517 C513 0.950 . S
H518 C515 0.950 . S
C519 C510 1.390 . S
C519 H512 0.950 . S
C519 C516 1.387 . S
C520 C521 1.387 . S
C520 H524 0.950 . S
C520 C529 1.390 . S
C521 C520 1.387 . S
C521 C523 1.387 . S
H522 C529 0.950 . S
C523 C521 1.387 . S
C523 C525 1.390 . S
C523 H527 0.950 . S
H524 C520 0.950 . S
C525 C523 1.390 . S
C525 C526 1.387 . S
C525 H528 0.950 . S
C526 C525 1.387 . S
C526 C529 1.387 . S
H527 C523 0.950 . S
H528 C525 0.950 . S
C529 C520 1.390 . S
C529 H522 0.950 . S
C529 C526 1.387 . S
C530 C531 1.387 1_565 S
C530 H534 0.950 . S
C530 C539 1.390 . S
C531 C530 1.387 1_545 S
C531 C533 1.387 . S
H532 C539 0.950 . S
C533 C531 1.387 . S
C533 C535 1.390 . S
C533 H537 0.950 . S
H534 C530 0.950 . S
C535 C533 1.390 . S
C535 C536 1.387 . S
C535 H538 0.950 . S
C536 C535 1.387 . S
C536 C539 1.387 1_545 S
H537 C533 0.950 . S
H538 C535 0.950 . S
C539 C530 1.390 . S
C539 H532 0.950 . S
C539 C536 1.387 1_565 S
C540 C541 1.387 . S
C540 H544 0.950 . S
C540 C549 1.390 . S
C541 C540 1.387 . S
C541 C543 1.387 . S
H542 C549 0.950 1_556 S
C543 C541 1.387 . S
C543 C545 1.390 . S
C543 H547 0.950 . S
H544 C540 0.950 . S
C545 C543 1.390 . S
C545 C546 1.387 1_554 S
C545 H548 0.950 1_554 S
C546 C545 1.387 1_556 S
C546 C549 1.387 1_556 S
H547 C543 0.950 . S
H548 C545 0.950 1_556 S
C549 C540 1.390 . S
C549 H542 0.950 1_554 S
C549 C546 1.387 1_554 S
C550 C551 1.387 1_545 S
C550 H554 0.950 . S
C550 C559 1.390 . S
C551 C550 1.387 1_565 S
C551 C553 1.387 . S
H552 C559 0.950 . S
C553 C551 1.387 . S
C553 C555 1.390 . S
C553 H557 0.950 . S
H554 C550 0.950 . S
C555 C553 1.390 . S
C555 C556 1.387 . S
C555 H558 0.950 . S
C556 C555 1.387 . S
C556 C559 1.387 1_565 S
H557 C553 0.950 . S
H558 C555 0.950 . S
C559 C550 1.390 . S
C559 H552 0.950 . S
C559 C556 1.387 1_545 S
C560 C561 1.387 . S
C560 H564 0.950 . S
C560 C569 1.390 . S
C561 C560 1.387 . S
C561 C563 1.387 . S
H562 C569 0.950 . S
C563 C561 1.387 . S
C563 C565 1.390 . S
C563 H567 0.950 . S
H564 C560 0.950 . S
C565 C563 1.390 . S
C565 C566 1.387 . S
C565 H568 0.950 . S
C566 C565 1.387 . S
C566 C569 1.387 . S
H567 C563 0.950 . S
H568 C565 0.950 . S
C569 C560 1.390 . S
C569 H562 0.950 . S
C569 C566 1.387 . S
C570 C571 1.387 . S
C570 H574 0.950 . S
C570 C579 1.390 . S
C571 C570 1.387 . S
C571 C573 1.387 . S
H572 C579 0.950 . S
C573 C571 1.387 . S
C573 C575 1.390 . S
C573 H577 0.950 . S
H574 C570 0.950 . S
C575 C573 1.390 . S
C575 C576 1.387 . S
C575 H578 0.950 . S
C576 C575 1.387 . S
C576 C579 1.387 . S
H577 C573 0.950 . S
H578 C575 0.950 . S
C579 C570 1.390 . S
C579 H572 0.950 . S
C579 C576 1.387 . S
C580 C581 1.387 . S
C580 H584 0.950 . S
C580 C589 1.390 1_655 S
C581 C580 1.387 . S
C581 C583 1.387 . S
H582 C589 0.950 . S
C583 C581 1.387 . S
C583 C585 1.390 1_655 S
C583 H587 0.950 . S
H584 C580 0.950 . S
C585 C583 1.390 1_455 S
C585 C586 1.387 . S
C585 H588 0.950 . S
C586 C585 1.387 . S
C586 C589 1.387 . S
H587 C583 0.950 . S
H588 C585 0.950 . S
C589 C580 1.390 1_455 S
C589 H582 0.950 . S
C589 C586 1.387 . S
C590 C591 1.387 . S
C590 H594 0.950 . S
C590 C599 1.390 1_655 S
C591 C590 1.387 . S
C591 C593 1.387 . S
H592 C599 0.950 . S
C593 C591 1.387 . S
C593 C595 1.390 1_655 S
C593 H597 0.950 . S
H594 C590 0.950 . S
C595 C593 1.390 1_455 S
C595 C596 1.387 . S
C595 H598 0.950 . S
C596 C595 1.387 . S
C596 C599 1.387 . S
H597 C593 0.950 . S
H598 C595 0.950 . S
C599 C590 1.390 1_455 S
C599 H592 0.950 . S
C599 C596 1.387 . S
C600 C601 1.387 . S
C600 H604 0.950 . S
C600 C609 1.390 . S
C601 C600 1.387 . S
C601 C603 1.387 . S
H602 C609 0.950 . S
C603 C601 1.387 . S
C603 C605 1.390 . S
C603 H607 0.950 . S
H604 C600 0.950 . S
C605 C603 1.390 . S
C605 C606 1.387 . S
C605 H608 0.950 . S
C606 C605 1.387 . S
C606 C609 1.387 . S
H607 C603 0.950 . S
H608 C605 0.950 . S
C609 C600 1.390 . S
C609 H602 0.950 . S
C609 C606 1.387 . S
C610 C611 1.387 . S
C610 H614 0.950 . S
C610 C619 1.390 . S
C611 C610 1.387 . S
C611 C613 1.387 . S
H612 C619 0.950 . S
C613 C611 1.387 . S
C613 C615 1.390 . S
C613 H617 0.950 . S
H614 C610 0.950 . S
C615 C613 1.390 . S
C615 C616 1.387 . S
C615 H618 0.950 . S
C616 C615 1.387 . S
C616 C619 1.387 . S
H617 C613 0.950 . S
H618 C615 0.950 . S
C619 C610 1.390 . S
C619 H612 0.950 . S
C619 C616 1.387 . S
C620 C621 1.387 . S
C620 H624 0.950 . S
C620 C629 1.390 1_455 S
C621 C620 1.387 . S
C621 C623 1.387 . S
H622 C629 0.950 . S
C623 C621 1.387 . S
C623 C625 1.390 1_455 S
C623 H627 0.950 . S
H624 C620 0.950 . S
C625 C623 1.390 1_655 S
C625 C626 1.387 . S
C625 H628 0.950 . S
C626 C625 1.387 . S
C626 C629 1.387 . S
H627 C623 0.950 . S
H628 C625 0.950 . S
C629 C620 1.390 1_655 S
C629 H622 0.950 . S
C629 C626 1.387 . S
C630 C631 1.387 . S
C630 H634 0.950 . S
C630 C639 1.390 1_455 S
C631 C630 1.387 . S
C631 C633 1.387 . S
H632 C639 0.950 . S
C633 C631 1.387 . S
C633 C635 1.390 1_455 S
C633 H637 0.950 . S
H634 C630 0.950 . S
C635 C633 1.390 1_655 S
C635 C636 1.387 . S
C635 H638 0.950 . S
C636 C635 1.387 . S
C636 C639 1.387 . S
H637 C633 0.950 . S
H638 C635 0.950 . S
C639 C630 1.390 1_655 S
C639 H632 0.950 . S
C639 C636 1.387 . S
C640 C641 1.387 . S
C640 H644 0.950 . S
C640 C649 1.390 . S
C641 C640 1.387 . S
C641 C643 1.387 . S
H642 C649 0.950 . S
C643 C641 1.387 . S
C643 C645 1.390 . S
C643 H647 0.950 . S
H644 C640 0.950 . S
C645 C643 1.390 . S
C645 C646 1.387 . S
C645 H648 0.950 . S
C646 C645 1.387 . S
C646 C649 1.387 . S
H647 C643 0.950 . S
H648 C645 0.950 . S
C649 C640 1.390 . S
C649 H642 0.950 . S
C649 C646 1.387 . S
C650 C651 1.387 . S
C650 H654 0.950 . S
C650 C659 1.390 . S
C651 C650 1.387 . S
C651 C653 1.387 . S
H652 C659 0.950 . S
C653 C651 1.387 . S
C653 C655 1.390 . S
C653 H657 0.950 . S
H654 C650 0.950 . S
C655 C653 1.390 . S
C655 C656 1.387 . S
C655 H658 0.950 . S
C656 C655 1.387 . S
C656 C659 1.387 . S
H657 C653 0.950 . S
H658 C655 0.950 . S
C659 C650 1.390 . S
C659 H652 0.950 . S
C659 C656 1.387 . S
C660 C661 1.387 . S
C660 H664 0.950 . S
C660 C669 1.390 . S
C661 C660 1.387 . S
C661 C663 1.387 . S
H662 C669 0.950 . S
C663 C661 1.387 . S
C663 C665 1.390 . S
C663 H667 0.950 . S
H664 C660 0.950 . S
C665 C663 1.390 . S
C665 C666 1.387 . S
C665 H668 0.950 . S
C666 C665 1.387 . S
C666 C669 1.387 . S
H667 C663 0.950 . S
H668 C665 0.950 . S
C669 C660 1.390 . S
C669 H662 0.950 . S
C669 C666 1.387 . S
C670 C671 1.387 . S
C670 H674 0.950 . S
C670 C679 1.390 . S
C671 C670 1.387 . S
C671 C673 1.387 . S
H672 C679 0.950 . S
C673 C671 1.387 . S
C673 C675 1.390 . S
C673 H677 0.950 . S
H674 C670 0.950 . S
C675 C673 1.390 . S
C675 C676 1.387 . S
C675 H678 0.950 . S
C676 C675 1.387 . S
C676 C679 1.387 . S
H677 C673 0.950 . S
H678 C675 0.950 . S
C679 C670 1.390 . S
C679 H672 0.950 . S
C679 C676 1.387 . S
C680 C681 1.387 . S
C680 H684 0.950 . S
C680 C689 1.390 . S
C681 C680 1.387 . S
C681 C683 1.387 . S
H682 C689 0.950 . S
C683 C681 1.387 . S
C683 C685 1.390 . S
C683 H687 0.950 . S
H684 C680 0.950 . S
C685 C683 1.390 . S
C685 C686 1.387 . S
C685 H688 0.950 . S
C686 C685 1.387 . S
C686 C689 1.387 . S
H687 C683 0.950 . S
H688 C685 0.950 . S
C689 C680 1.390 . S
C689 H682 0.950 . S
C689 C686 1.387 . S
C690 C691 1.387 . S
C690 H694 0.950 . S
C690 C699 1.390 . S
C691 C690 1.387 . S
C691 C693 1.387 . S
H692 C699 0.950 . S
C693 C691 1.387 . S
C693 C695 1.390 . S
C693 H697 0.950 . S
H694 C690 0.950 . S
C695 C693 1.390 . S
C695 C696 1.387 . S
C695 H698 0.950 . S
C696 C695 1.387 . S
C696 C699 1.387 . S
H697 C693 0.950 . S
H698 C695 0.950 . S
C699 C690 1.390 . S
C699 H692 0.950 . S
C699 C696 1.387 . S
C700 C701 1.387 . S
C700 H704 0.950 . S
C700 C709 1.390 . S
C701 C700 1.387 . S
C701 C703 1.387 . S
H702 C709 0.950 . S
C703 C701 1.387 . S
C703 C705 1.390 . S
C703 H707 0.950 . S
H704 C700 0.950 . S
C705 C703 1.390 . S
C705 C706 1.387 . S
C705 H708 0.950 . S
C706 C705 1.387 . S
C706 C709 1.387 . S
H707 C703 0.950 . S
H708 C705 0.950 . S
C709 C700 1.390 . S
C709 H702 0.950 . S
C709 C706 1.387 . S
C710 C711 1.387 . S
C710 H714 0.950 . S
C710 C719 1.390 . S
C711 C710 1.387 . S
C711 C713 1.387 . S
H712 C719 0.950 . S
C713 C711 1.387 . S
C713 C715 1.390 . S
C713 H717 0.950 . S
H714 C710 0.950 . S
C715 C713 1.390 . S
C715 C716 1.387 . S
C715 H718 0.950 . S
C716 C715 1.387 . S
C716 C719 1.387 . S
H717 C713 0.950 . S
H718 C715 0.950 . S
C719 C710 1.390 . S
C719 H712 0.950 . S
C719 C716 1.387 . S
C720 C721 1.387 . S
C720 H724 0.950 . S
C720 C729 1.390 . S
C721 C720 1.387 . S
C721 C723 1.387 . S
H722 C729 0.950 . S
C723 C721 1.387 . S
C723 C725 1.390 . S
C723 H727 0.950 . S
H724 C720 0.950 . S
C725 C723 1.390 . S
C725 C726 1.387 . S
C725 H728 0.950 . S
C726 C725 1.387 . S
C726 C729 1.387 . S
H727 C723 0.950 . S
H728 C725 0.950 . S
C729 C720 1.390 . S
C729 H722 0.950 . S
C729 C726 1.387 . S
C730 C731 1.387 . S
C730 H734 0.950 1_565 S
C730 C739 1.397 . S
C731 C730 1.387 . S
C731 C733 1.387 . S
H732 C739 0.932 1_545 S
C733 C731 1.387 . S
C733 C735 1.390 . S
C733 H737 0.950 . S
H734 C730 0.950 1_545 S
C735 C733 1.390 . S
C735 C736 1.387 . S
C735 H738 0.950 . S
C736 C735 1.387 . S
C736 C739 1.399 . S
H737 C733 0.950 . S
H738 C735 0.950 . S
C739 C730 1.397 . S
C739 H732 0.932 1_565 S
C739 C736 1.399 . S
C740 C741 1.387 . S
C740 H744 0.950 . S
C740 C749 1.390 . S
C741 C740 1.387 . S
C741 C743 1.387 . S
H742 C749 0.950 . S
C743 C741 1.387 . S
C743 C745 1.390 . S
C743 H747 0.950 . S
H744 C740 0.950 . S
C745 C743 1.390 . S
C745 C746 1.387 . S
C745 H748 0.950 . S
C746 C745 1.387 . S
C746 C749 1.387 . S
H747 C743 0.950 . S
H748 C745 0.950 . S
C749 C740 1.390 . S
C749 H742 0.950 . S
C749 C746 1.387 . S
C750 C751 1.387 . S
C750 H754 0.950 1_545 S
C750 C759 1.390 . S
C751 C750 1.387 . S
C751 C753 1.387 . S
H752 C759 0.950 . S
C753 C751 1.387 . S
C753 C755 1.390 . S
C753 H757 0.950 . S
H754 C750 0.950 1_565 S
C755 C753 1.390 . S
C755 C756 1.387 . S
C755 H758 0.950 . S
C756 C755 1.387 . S
C756 C759 1.387 . S
H757 C753 0.950 . S
H758 C755 0.950 . S
C759 C750 1.390 . S
C759 H752 0.950 . S
C759 C756 1.387 . S
C760 C761 1.387 . S
C760 H764 0.950 . S
C760 C769 1.390 . S
C761 C760 1.387 . S
C761 C763 1.387 . S
H762 C769 0.950 . S
C763 C761 1.387 . S
C763 C765 1.390 . S
C763 H767 0.950 . S
H764 C760 0.950 . S
C765 C763 1.390 . S
C765 C766 1.387 . S
C765 H768 0.950 . S
C766 C765 1.387 . S
C766 C769 1.387 . S
H767 C763 0.950 . S
H768 C765 0.950 . S
C769 C760 1.390 . S
C769 H762 0.950 . S
C769 C766 1.387 . S
C770 C771 1.387 . S
C770 H774 0.950 . S
C770 C779 1.390 . S
C771 C770 1.387 . S
C771 C773 1.387 . S
H772 C779 0.950 . S
C773 C771 1.387 . S
C773 C775 1.390 . S
C773 H777 0.950 1_545 S
H774 C770 0.950 . S
C775 C773 1.390 . S
C775 C776 1.387 . S
C775 H778 0.950 . S
C776 C775 1.387 . S
C776 C779 1.387 . S
H777 C773 0.950 1_565 S
H778 C775 0.950 . S
C779 C770 1.390 . S
C779 H772 0.950 . S
C779 C776 1.387 . S
C780 C781 1.387 . S
C780 H784 0.950 . S
C780 C789 1.390 . S
C781 C780 1.387 . S
C781 C783 1.387 . S
H782 C789 0.950 . S
C783 C781 1.387 . S
C783 C785 1.390 . S
C783 H787 0.950 . S
H784 C780 0.950 . S
C785 C783 1.390 . S
C785 C786 1.387 . S
C785 H788 0.950 . S
C786 C785 1.387 . S
C786 C789 1.387 . S
H787 C783 0.950 . S
H788 C785 0.950 . S
C789 C780 1.390 . S
C789 H782 0.950 . S
C789 C786 1.387 . S
C790 C791 1.387 . S
C790 H794 0.950 . S
C790 C799 1.390 . S
C791 C790 1.387 . S
C791 C793 1.387 . S
H792 C799 0.950 1_545 S
C793 C791 1.387 . S
C793 C795 1.390 . S
C793 H797 0.950 . S
H794 C790 0.950 . S
C795 C793 1.390 . S
C795 C796 1.387 . S
C795 H798 0.950 . S
C796 C795 1.387 . S
C796 C799 1.387 . S
H797 C793 0.950 . S
H798 C795 0.950 . S
C799 C790 1.390 . S
C799 H792 0.950 1_565 S
C799 C796 1.387 . S
C321 C2 0.742 . S
C326 C241 0.742 . S
C331 C101 0.752 . S
C336 C22 0.752 . S
C341 C42 0.742 . S
C346 C281 0.742 . S
C351 C62 0.744 . S
C356 C141 0.744 . S
C361 C81 0.742 . S
C366 C162 0.742 . S
C371 C202 0.753 . S
C376 C121 0.753 . S
C381 C261 0.743 . S
C386 C182 0.743 . S
C391 C222 0.744 . S
C396 C301 0.744 . S
C401 C189 1.905 . S
C406 C1 1.846 . S
C411 C21 1.844 . S
C416 C209 1.904 . S
C421 C41 1.846 . S
C426 C229 1.905 . S
C431 C169 1.904 . S
C436 C61 1.845 . S
C441 C268 1.904 . S
C446 C82 1.845 . S
C451 C288 1.905 . S
C456 C102 1.846 . S
C461 C122 1.845 . S
C466 C308 1.905 . S
C471 C248 1.904 . S
C476 C142 1.843 . S
C481 C161 1.845 . S
C486 C29 1.904 . S
C491 C181 1.844 1_565 S
C496 C49 1.904 . S
C501 C201 1.846 . S
C506 C69 1.905 . S
C511 C9 1.905 . S
C516 C221 1.846 1_545 S
C521 C108 1.904 . S
C526 C242 1.844 . S
C531 C262 1.846 1_545 S
C536 C128 1.905 . S
C541 C148 1.904 . S
C546 C282 1.845 . S
C551 C302 1.846 1_565 S
C556 C88 1.905 . S
C561 C18 2.288 . S
C566 C218 2.288 . S
C571 C38 2.289 . S
C576 C238 2.289 . S
C581 C178 2.288 . S
C586 C58 2.288 . S
C591 C78 2.289 . S
C596 C198 2.289 . S
C601 C99 2.288 . S
C606 C299 2.288 . S
C611 C119 2.288 . S
C616 C319 2.288 . S
C621 C259 2.288 . S
C626 C139 2.288 . S
C631 C159 2.289 . S
C636 C279 2.289 . S
C641 C8 1.429 . S
C646 C158 1.649 . S
C651 C258 1.649 . S
C656 C28 1.429 . S
C661 C48 1.426 . S
C666 C118 1.647 . S
C671 C68 1.428 1_455 S
C676 C298 1.648 . S
C681 C89 1.429 . S
C686 C79 1.649 . S
C691 C179 1.649 . S
C696 C109 1.428 . S
C701 C129 1.429 . S
C706 C39 1.649 . S
C711 C219 1.649 . S
C716 C149 1.430 1_655 S
C721 C168 1.428 . S
C726 C318 1.648 . S
C731 C98 1.647 . S
C736 C188 1.426 1_655 S
C741 C278 1.648 . S
C746 C208 1.428 . S
C751 C228 1.426 . S
C756 C138 1.648 . S
C761 C249 1.428 . S
C766 C239 1.648 . S
C771 C269 1.426 1_455 S
C776 C19 1.647 . S
C781 C199 1.648 . S
C786 C289 1.427 . S
C791 C59 1.649 . S
C796 C309 1.430 . S
