# Generated by pormake.
# Topology yfa, (5)-cn, num edge types: 1
# Building blocks:
#     Node 0, Type 0, BuildingBlock: BEQFEK_clean_sbu_0, # of connection points: 5
#     Node 1, Type 0, BuildingBlock: BEQFEK_clean_sbu_0, # of connection points: 5
#     Node 2, Type 0, BuildingBlock: BEQFEK_clean_sbu_0, # of connection points: 5
#     Node 3, Type 0, BuildingBlock: BEQFEK_clean_sbu_0, # of connection points: 5
#     Node 4, Type 0, BuildingBlock: BEQFEK_clean_sbu_0, # of connection points: 5
#     Node 5, Type 0, BuildingBlock: BEQFEK_clean_sbu_0, # of connection points: 5
#     Node 6, Type 0, BuildingBlock: BEQFEK_clean_sbu_0, # of connection points: 5
#     Node 7, Type 0, BuildingBlock: BEQFEK_clean_sbu_0, # of connection points: 5
#     Node 8, Type 0, BuildingBlock: BEQFEK_clean_sbu_0, # of connection points: 5
#     Node 9, Type 0, BuildingBlock: BEQFEK_clean_sbu_0, # of connection points: 5
#     Node 10, Type 0, BuildingBlock: BEQFEK_clean_sbu_0, # of connection points: 5
#     Node 11, Type 0, BuildingBlock: BEQFEK_clean_sbu_0, # of connection points: 5
#     Node 12, Type 0, BuildingBlock: BEQFEK_clean_sbu_0, # of connection points: 5
#     Node 13, Type 0, BuildingBlock: BEQFEK_clean_sbu_0, # of connection points: 5
#     Node 14, Type 0, BuildingBlock: BEQFEK_clean_sbu_0, # of connection points: 5
#     Node 15, Type 0, BuildingBlock: BEQFEK_clean_sbu_0, # of connection points: 5
#     Edge 16, Type (0, 0), BuildingBlock: ZUJKAS_clean_linker_0, # of connection points: 2
#     Edge 17, Type (0, 0), BuildingBlock: ZUJKAS_clean_linker_0, # of connection points: 2
#     Edge 18, Type (0, 0), BuildingBlock: ZUJKAS_clean_linker_0, # of connection points: 2
#     Edge 19, Type (0, 0), BuildingBlock: ZUJKAS_clean_linker_0, # of connection points: 2
#     Edge 20, Type (0, 0), BuildingBlock: ZUJKAS_clean_linker_0, # of connection points: 2
#     Edge 21, Type (0, 0), BuildingBlock: ZUJKAS_clean_linker_0, # of connection points: 2
#     Edge 22, Type (0, 0), BuildingBlock: ZUJKAS_clean_linker_0, # of connection points: 2
#     Edge 23, Type (0, 0), BuildingBlock: ZUJKAS_clean_linker_0, # of connection points: 2
#     Edge 24, Type (0, 0), BuildingBlock: ZUJKAS_clean_linker_0, # of connection points: 2
#     Edge 25, Type (0, 0), BuildingBlock: ZUJKAS_clean_linker_0, # of connection points: 2
#     Edge 26, Type (0, 0), BuildingBlock: ZUJKAS_clean_linker_0, # of connection points: 2
#     Edge 27, Type (0, 0), BuildingBlock: ZUJKAS_clean_linker_0, # of connection points: 2
#     Edge 28, Type (0, 0), BuildingBlock: ZUJKAS_clean_linker_0, # of connection points: 2
#     Edge 29, Type (0, 0), BuildingBlock: ZUJKAS_clean_linker_0, # of connection points: 2
#     Edge 30, Type (0, 0), BuildingBlock: ZUJKAS_clean_linker_0, # of connection points: 2
#     Edge 31, Type (0, 0), BuildingBlock: ZUJKAS_clean_linker_0, # of connection points: 2
#     Edge 32, Type (0, 0), BuildingBlock: ZUJKAS_clean_linker_0, # of connection points: 2
#     Edge 33, Type (0, 0), BuildingBlock: ZUJKAS_clean_linker_0, # of connection points: 2
#     Edge 34, Type (0, 0), BuildingBlock: ZUJKAS_clean_linker_0, # of connection points: 2
#     Edge 35, Type (0, 0), BuildingBlock: ZUJKAS_clean_linker_0, # of connection points: 2
#     Edge 36, Type (0, 0), BuildingBlock: ZUJKAS_clean_linker_0, # of connection points: 2
#     Edge 37, Type (0, 0), BuildingBlock: ZUJKAS_clean_linker_0, # of connection points: 2
#     Edge 38, Type (0, 0), BuildingBlock: ZUJKAS_clean_linker_0, # of connection points: 2
#     Edge 39, Type (0, 0), BuildingBlock: ZUJKAS_clean_linker_0, # of connection points: 2
#     Edge 40, Type (0, 0), BuildingBlock: ZUJKAS_clean_linker_0, # of connection points: 2
#     Edge 41, Type (0, 0), BuildingBlock: ZUJKAS_clean_linker_0, # of connection points: 2
#     Edge 42, Type (0, 0), BuildingBlock: ZUJKAS_clean_linker_0, # of connection points: 2
#     Edge 43, Type (0, 0), BuildingBlock: ZUJKAS_clean_linker_0, # of connection points: 2
#     Edge 44, Type (0, 0), BuildingBlock: ZUJKAS_clean_linker_0, # of connection points: 2
#     Edge 45, Type (0, 0), BuildingBlock: ZUJKAS_clean_linker_0, # of connection points: 2
#     Edge 46, Type (0, 0), BuildingBlock: ZUJKAS_clean_linker_0, # of connection points: 2
#     Edge 47, Type (0, 0), BuildingBlock: ZUJKAS_clean_linker_0, # of connection points: 2
#     Edge 48, Type (0, 0), BuildingBlock: ZUJKAS_clean_linker_0, # of connection points: 2
#     Edge 49, Type (0, 0), BuildingBlock: ZUJKAS_clean_linker_0, # of connection points: 2
#     Edge 50, Type (0, 0), BuildingBlock: ZUJKAS_clean_linker_0, # of connection points: 2
#     Edge 51, Type (0, 0), BuildingBlock: ZUJKAS_clean_linker_0, # of connection points: 2
#     Edge 52, Type (0, 0), BuildingBlock: ZUJKAS_clean_linker_0, # of connection points: 2
#     Edge 53, Type (0, 0), BuildingBlock: ZUJKAS_clean_linker_0, # of connection points: 2
#     Edge 54, Type (0, 0), BuildingBlock: ZUJKAS_clean_linker_0, # of connection points: 2
#     Edge 55, Type (0, 0), BuildingBlock: ZUJKAS_clean_linker_0, # of connection points: 2
# Relax obj value: 0.768
# Max RMSD: 0.298
# Mean RMSD: 0.298
data_MOF--net-yfa--node1-BEQFEK_clean_sbu_0--edge1-ZUJKAS_clean_linker_0
_symmetry_space_group_name_H-M    P1
_symmetry_Int_Tables_number       1
_symmetry_cell_setting            triclinic
loop_
_symmetry_equiv_pos_as_xyz
'x, y, z'
_cell_length_a     63.537151
_cell_length_b     63.536793
_cell_length_c     37.636686
_cell_angle_alpha  90.015101
_cell_angle_beta   89.99634
_cell_angle_gamma 90.000726
loop_
_atom_site_label
_atom_site_type_symbol
_atom_site_fract_x
_atom_site_fract_y
_atom_site_fract_z
_atom_type_partial_charge
Co0 Co 0.63057 0.04124 0.11739 0.0
Co1 Co 0.64294 0.07922 0.0688 0.0
C2 C 0.67508 0.05185 0.10577 0.0
O3 O 0.66104 0.03974 0.11826 0.0
O4 O 0.67029 0.06763 0.08649 0.0
C5 C 0.62901 -0.00067 0.14674 0.0
O6 O 0.64803 0.9973 0.13347 0.0
C7 C 0.65749 0.09469 0.00039 0.0
C8 C 0.64826 0.12818 0.00205 0.0
C9 C 0.6569 0.11293 0.97999 0.0
N10 N 0.64934 0.09899 0.0325 0.0
N11 N 0.64426 0.11913 0.03364 0.0
C12 C 0.6636 0.07297 0.98889 0.0
H13 H 0.65843 0.0611 0.00866 0.0
H14 H 0.65667 0.06928 0.96254 0.0
H15 H 0.68098 0.07205 0.98661 0.0
C16 C 0.60499 0.03008 0.056 0.0
N17 N 0.6202 0.04182 0.07086 0.0
N18 N 0.62375 0.05851 0.05111 0.0
C19 C 0.61006 0.05835 0.02363 0.0
C20 C 0.598 0.04011 0.02554 0.0
C21 C 0.59474 0.01179 0.07425 0.0
H22 H 0.58727 0.01728 0.09923 0.0
H23 H 0.6069 -5e-05 0.08108 0.0
H24 H 0.58258 0.00417 0.05753 0.0
O25 O 0.62178 0.06691 0.14363 0.0
O26 O 0.6299 0.09416 0.10921 0.0
H27 H 0.60867 0.0916 0.01355 0.0
H28 H 0.59059 0.07607 0.98709 0.0
C29 C 0.60653 0.07655 -0.00092 0.0
H30 H 0.61817 0.07585 0.9772 0.0
H31 H 0.63718 0.12645 0.05542 0.0
O32 O 0.61925 0.01666 0.14311 0.0
C33 C 0.62233 0.08669 0.1379 0.0
Co34 Co 0.45543 0.63575 0.12602 0.0
Co35 Co 0.4204 0.6471 0.07105 0.0
C36 C 0.44645 0.68001 0.10824 0.0
O37 O 0.45749 0.6661 0.12359 0.0
O38 O 0.43141 0.67498 0.08753 0.0
C39 C 0.49719 0.63303 0.15355 0.0
O40 O 0.50144 0.64669 0.12834 0.0
C41 C 0.40878 0.65923 -0.00071 0.0
C42 C 0.37526 0.65022 0.99661 0.0
C43 C 0.39176 0.65791 0.97627 0.0
N44 N 0.40272 0.65218 0.03131 0.0
N45 N 0.38256 0.64719 0.02979 0.0
C46 C 0.43045 0.66731 0.99154 0.0
H47 H 0.43697 0.67525 0.01537 0.0
H48 H 0.44102 0.65399 0.98502 0.0
H49 H 0.43022 0.67843 0.96879 0.0
C50 C 0.46878 0.60723 0.06936 0.0
N51 N 0.45698 0.62341 0.08089 0.0
N52 N 0.44159 0.62692 0.05827 0.0
C53 C 0.4427 0.61235 0.03212 0.0
C54 C 0.46028 0.5998 0.03792 0.0
C55 C 0.48536 0.59661 0.09132 0.0
H56 H 0.47909 0.59328 0.11822 0.0
H57 H 0.4991 0.60725 0.09392 0.0
H58 H 0.49079 0.58161 0.07938 0.0
O59 O 0.42848 0.62801 0.14915 0.0
O60 O 0.40321 0.63566 0.11035 0.0
H61 H 0.41001 0.61128 0.01754 0.0
H62 H 0.42628 0.59202 0.99513 0.0
C63 C 0.42566 0.60836 0.00545 0.0
H64 H 0.42768 0.61914 0.98259 0.0
H65 H 0.37402 0.64094 0.051 0.0
O66 O 0.47851 0.62618 0.157 0.0
C67 C 0.40908 0.6287 0.14051 0.0
Co68 Co 0.86423 0.45805 0.12216 0.0
Co69 Co 0.8534 0.4208 0.07107 0.0
C70 C 0.8201 0.44721 0.10656 0.0
O71 O 0.83379 0.45918 0.12043 0.0
O72 O 0.82539 0.43165 0.08716 0.0
C73 C 0.86443 0.50007 0.15006 0.0
O74 O 0.84792 0.50271 0.12952 0.0
C75 C 0.84078 0.40535 0.00139 0.0
C76 C 0.85097 0.37214 0.00336 0.0
C77 C 0.84235 0.3872 0.98093 0.0
N78 N 0.84837 0.40119 0.03395 0.0
N79 N 0.85401 0.38121 0.03523 0.0
C80 C 0.83425 0.4269 0.98964 0.0
H81 H 0.83884 0.43889 0.00961 0.0
H82 H 0.84142 0.43076 0.96355 0.0
H83 H 0.81689 0.42732 0.98664 0.0
C84 C 0.89173 0.47015 0.06366 0.0
N85 N 0.87603 0.45826 0.07663 0.0
N86 N 0.87283 0.44203 0.05562 0.0
C87 C 0.88714 0.44271 0.02907 0.0
C88 C 0.89931 0.46077 0.033 0.0
C89 C 0.90173 0.48786 0.08385 0.0
H90 H 0.90716 0.48202 0.11006 0.0
H91 H 0.88986 0.50035 0.08844 0.0
H92 H 0.91533 0.49477 0.06957 0.0
O93 O 0.87274 0.43219 0.148 0.0
O94 O 0.86567 0.40549 0.11174 0.0
H95 H 0.88898 0.40973 0.01688 0.0
H96 H 0.90702 0.42601 0.99169 0.0
C97 C 0.89103 0.42511 0.00341 0.0
H98 H 0.8795 0.42616 0.9814 0.0
H99 H 0.86081 0.37403 0.05737 0.0
O100 O 0.87376 0.48237 0.15044 0.0
C101 C 0.87255 0.41252 0.14124 0.0
Co102 Co 0.04309 0.86246 0.12834 0.0
Co103 Co 0.07898 0.85148 0.07475 0.0
C104 C 0.05249 0.81828 0.1095 0.0
O105 O 0.04134 0.83213 0.12476 0.0
O106 O 0.06788 0.82337 0.08963 0.0
C107 C 0.00057 0.86487 0.15257 0.0
O108 O 0.99653 0.85336 0.12438 0.0
C109 C 0.09349 0.83846 0.00471 0.0
C110 C 0.12676 0.84854 0.00521 0.0
C111 C 0.11147 0.83954 0.98366 0.0
N112 N 0.09801 0.84663 0.03673 0.0
N113 N 0.11801 0.85227 0.03712 0.0
C114 C 0.07183 0.83161 0.99418 0.0
H115 H 0.06005 0.83698 0.01397 0.0
H116 H 0.06773 0.83787 0.96754 0.0
H117 H 0.0713 0.81417 0.99304 0.0
C118 C 0.03055 0.89133 0.07155 0.0
N119 N 0.04234 0.87527 0.08354 0.0
N120 N 0.05775 0.87152 0.06104 0.0
C121 C 0.05646 0.8856 0.03418 0.0
C122 C 0.0389 0.89825 0.03968 0.0
C123 C 0.01397 0.90221 0.09318 0.0
H124 H 0.01943 0.90399 0.12098 0.0
H125 H -0.00055 0.89254 0.09307 0.0
H126 H 0.01008 0.91801 0.08256 0.0
O127 O 0.06937 0.87026 0.15326 0.0
O128 O 0.09519 0.86283 0.11543 0.0
H129 H 0.08881 0.88666 0.01785 0.0
H130 H 0.07166 0.90418 0.9933 0.0
C131 C 0.07291 0.88852 0.00614 0.0
H132 H 0.0708 0.87639 0.98531 0.0
H133 H 0.12547 0.85934 0.05877 0.0
O134 O 0.01929 0.87089 0.15865 0.0
C135 C 0.08888 0.86966 0.14542 0.0
Co136 Co 0.64006 0.45757 0.3714 0.0
Co137 Co 0.6512 0.42177 0.42497 0.0
C138 C 0.68412 0.44882 0.38935 0.0
O139 O 0.67031 0.46041 0.37492 0.0
O140 O 0.67893 0.43324 0.40876 0.0
C141 C 0.63607 0.49959 0.34499 0.0
O142 O 0.64837 0.50443 0.37182 0.0
C143 C 0.66353 0.41037 0.49661 0.0
C144 C 0.65607 0.37646 0.4991 0.0
C145 C 0.66307 0.39325 0.5195 0.0
N146 N 0.6567 0.40407 0.46458 0.0
N147 N 0.65261 0.38371 0.46599 0.0
C148 C 0.67064 0.43235 0.50451 0.0
H149 H 0.65689 0.44224 0.51153 0.0
H150 H 0.68194 0.43253 0.527 0.0
H151 H 0.67806 0.43937 0.4806 0.0
C152 C 0.61054 0.46949 0.42762 0.0
N153 N 0.62707 0.4582 0.41607 0.0
N154 N 0.63063 0.4425 0.43806 0.0
C155 C 0.61581 0.44294 0.46384 0.0
C156 C 0.60298 0.46036 0.45847 0.0
C157 C 0.59978 0.48618 0.40608 0.0
H158 H 0.59722 0.4804 0.37863 0.0
H159 H 0.60997 0.50032 0.40497 0.0
H160 H 0.58437 0.49081 0.41745 0.0
O161 O 0.63343 0.43069 0.34704 0.0
O162 O 0.64024 0.40474 0.385 0.0
H163 H 0.61535 0.41004 0.47709 0.0
H164 H 0.59553 0.42555 0.49962 0.0
C165 C 0.61196 0.42544 0.48972 0.0
H166 H 0.6225 0.42738 0.51292 0.0
H167 H 0.64674 0.37493 0.44473 0.0
O168 O 0.63039 0.48061 0.34044 0.0
C169 C 0.63398 0.41113 0.35468 0.0
Co170 Co 0.03666 0.63546 0.37487 0.0
Co171 Co 0.07459 0.64632 0.4245 0.0
C172 C 0.04764 0.67956 0.38966 0.0
O173 O 0.03542 0.6659 0.37631 0.0
O174 O 0.06335 0.67422 0.40868 0.0
C175 C 0.99452 0.6346 0.34661 0.0
O176 O 0.99162 0.65168 0.36566 0.0
C177 C 0.09062 0.6587 0.49397 0.0
C178 C 0.12395 0.64904 0.49074 0.0
C179 C 0.109 0.65721 0.51385 0.0
N180 N 0.09454 0.65148 0.46109 0.0
N181 N 0.1146 0.64616 0.45905 0.0
C182 C 0.06911 0.66479 0.50658 0.0
H183 H 0.05698 0.66033 0.48676 0.0
H184 H 0.06559 0.65721 0.53247 0.0
H185 H 0.0685 0.68209 0.5103 0.0
C186 C 0.02526 0.60814 0.43393 0.0
N187 N 0.03703 0.62377 0.42046 0.0
N188 N 0.05366 0.62679 0.44063 0.0
C189 C 0.05338 0.61238 0.46704 0.0
C190 C 0.03515 0.60038 0.46398 0.0
C191 C 0.0071 0.59834 0.41461 0.0
H192 H 0.99495 0.6105 0.40962 0.0
H193 H -0.00013 0.58523 0.4297 0.0
H194 H 0.0126 0.59224 0.38859 0.0
O195 O 0.06226 0.62709 0.34824 0.0
O196 O 0.08952 0.63428 0.38318 0.0
H197 H 0.07089 0.59198 0.50243 0.0
H198 H 0.07067 0.61928 0.51426 0.0
C199 C 0.07145 0.6082 0.49158 0.0
H200 H 0.08658 0.61065 0.47749 0.0
H201 H 0.12164 0.63965 0.43653 0.0
O202 O 0.01229 0.62541 0.34728 0.0
C203 C 0.08203 0.62741 0.35401 0.0
Co204 Co 0.86159 0.04115 0.37124 0.0
Co205 Co 0.8499 0.07757 0.42319 0.0
C206 C 0.81731 0.05153 0.38473 0.0
O207 O 0.83119 0.03952 0.37154 0.0
O208 O 0.82233 0.067 0.40451 0.0
C209 C 0.8643 -0.00098 0.34463 0.0
O210 O 0.84969 0.995 0.36839 0.0
C211 C 0.83543 0.09055 0.493 0.0
C212 C 0.84415 0.12418 0.49467 0.0
C213 C 0.83567 0.10808 0.51501 0.0
N214 N 0.84376 0.09597 0.46153 0.0
N215 N 0.8486 0.11618 0.46241 0.0
C216 C 0.82706 0.06905 0.50112 0.0
H217 H 0.84007 0.05868 0.50995 0.0
H218 H 0.815 0.06976 0.52243 0.0
H219 H 0.82018 0.06196 0.47681 0.0
C220 C 0.88829 0.02823 0.4306 0.0
N221 N 0.87274 0.0402 0.41728 0.0
N222 N 0.86908 0.05612 0.43876 0.0
C223 C 0.88292 0.05517 0.46601 0.0
C224 C 0.89517 0.03718 0.46207 0.0
C225 C 0.89896 0.01095 0.41028 0.0
H226 H 0.90338 0.01672 0.38351 0.0
H227 H 0.88788 0.99761 0.40714 0.0
H228 H 0.91334 0.00513 0.42375 0.0
O229 O 0.87032 0.06756 0.3473 0.0
O230 O 0.86308 0.09383 0.38436 0.0
H231 H 0.9025 0.07182 0.50386 0.0
H232 H 0.87502 0.07122 0.51413 0.0
C233 C 0.88651 0.07259 0.49214 0.0
H234 H 0.88428 0.08807 0.47906 0.0
H235 H 0.85561 0.12432 0.44143 0.0
O236 O 0.87162 0.01755 0.34191 0.0
C237 C 0.87029 0.08713 0.35485 0.0
Co238 Co 0.45982 0.86166 0.37853 0.0
Co239 Co 0.42122 0.85091 0.42668 0.0
C240 C 0.44773 0.81761 0.39103 0.0
O241 O 0.46041 0.8312 0.37876 0.0
O242 O 0.4319 0.823 0.40975 0.0
C243 C 0.49315 0.86166 0.32715 0.0
O244 O 0.48449 0.84402 0.31628 0.0
C245 C 0.40403 0.83853 0.49534 0.0
C246 C 0.37089 0.84864 0.49072 0.0
C247 C 0.38539 0.84032 0.51447 0.0
N248 N 0.40067 0.84577 0.46229 0.0
N249 N 0.38072 0.85132 0.45941 0.0
C250 C 0.42527 0.83214 0.50879 0.0
H251 H 0.43771 0.83617 0.48929 0.0
H252 H 0.42864 0.83987 0.53462 0.0
H253 H 0.42549 0.81486 0.51295 0.0
C254 C 0.47138 0.88754 0.43908 0.0
N255 N 0.45931 0.87244 0.42473 0.0
N256 N 0.44239 0.86968 0.44425 0.0
C257 C 0.44269 0.88391 0.47096 0.0
C258 C 0.46128 0.89542 0.46886 0.0
C259 C 0.49006 0.89692 0.42063 0.0
H260 H 0.50099 0.88419 0.41252 0.0
H261 H 0.49866 0.90824 0.43772 0.0
H262 H 0.4847 0.90524 0.39634 0.0
O263 O 0.4347 0.8712 0.35134 0.0
O264 O 0.40716 0.86408 0.38573 0.0
H265 H 0.425 0.90483 0.50524 0.0
H266 H 0.42455 0.87761 0.51752 0.0
C267 C 0.42431 0.88856 0.49461 0.0
H268 H 0.40936 0.88628 0.47991 0.0
H269 H 0.3741 0.85793 0.43662 0.0
O270 O 0.48504 0.87157 0.35307 0.0
C271 C 0.4149 0.87127 0.35697 0.0
Co272 Co 0.35835 0.96094 0.87908 0.0
Co273 Co 0.34813 0.9223 0.9274 0.0
C274 C 0.31451 0.94873 0.89195 0.0
O275 O 0.32788 0.96165 0.87964 0.0
O276 O 0.32019 0.93296 0.91056 0.0
C277 C 0.35929 0.99318 0.82579 0.0
O278 O 0.34233 0.98375 0.81368 0.0
C279 C 0.33602 0.90587 0.99663 0.0
C280 C 0.34553 0.87252 0.99271 0.0
C281 C 0.33761 0.88738 0.01626 0.0
N282 N 0.34299 0.90208 0.96356 0.0
N283 N 0.3482 0.88202 0.9611 0.0
C284 C 0.33001 0.92735 0.0095 0.0
H285 H 0.33402 0.93951 0.98948 0.0
H286 H 0.338 0.93095 0.035 0.0
H287 H 0.31276 0.92788 0.01398 0.0
C288 C 0.38472 0.97253 0.93903 0.0
N289 N 0.36948 0.96048 0.92504 0.0
N290 N 0.36699 0.94349 0.94447 0.0
C291 C 0.3815 0.94372 0.97071 0.0
C292 C 0.39297 0.96233 0.96842 0.0
C293 C 0.39386 0.9913 0.9205 0.0
H294 H 0.40223 0.986 0.89622 0.0
H295 H 0.38099 0.00207 0.9124 0.0
H296 H 0.40507 3e-05 0.93757 0.0
O297 O 0.36756 0.93569 0.85195 0.0
O298 O 0.36109 0.90803 0.88642 0.0
H299 H 0.38396 0.91036 0.97928 0.0
H300 H 0.40275 0.92592 0.00423 0.0
C301 C 0.38638 0.92527 0.99406 0.0
H302 H 0.37566 0.92543 0.01727 0.0
H303 H 0.35454 0.87507 0.93836 0.0
O304 O 0.3684 0.98596 0.85324 0.0
C305 C 0.36787 0.91588 0.85747 0.0
Co306 Co 0.53869 0.36345 0.87915 0.0
Co307 Co 0.57584 0.34967 0.92843 0.0
C308 C 0.54837 0.31862 0.88886 0.0
O309 O 0.53657 0.33305 0.87678 0.0
O310 O 0.56406 0.32284 0.90872 0.0
C311 C 0.49702 0.36648 0.84968 0.0
O312 O 0.49416 0.34794 0.86436 0.0
C313 C 0.5893 0.33403 -0.00278 0.0
C314 C 0.62318 0.34171 -0.002 0.0
C315 C 0.60704 0.33363 0.01874 0.0
N316 N 0.59464 0.34237 0.96571 0.0
N317 N 0.61499 0.34659 0.96606 0.0
C318 C 0.5676 0.32637 0.00585 0.0
H319 H 0.55994 0.32009 0.98157 0.0
H320 H 0.55786 0.33966 0.01556 0.0
H321 H 0.56812 0.31402 0.02668 0.0
C322 C 0.52727 0.38843 0.94107 0.0
N323 N 0.5388 0.37308 0.92613 0.0
N324 N 0.55523 0.36898 0.94618 0.0
C325 C 0.55517 0.38248 0.97396 0.0
C326 C 0.53719 0.39493 0.97196 0.0
C327 C 0.50949 0.39936 0.92252 0.0
H328 H 0.51542 0.40673 0.89775 0.0
H329 H 0.49729 0.38764 0.91532 0.0
H330 H 0.50215 0.41174 0.93916 0.0
O331 O 0.56493 0.37221 0.85453 0.0
O332 O 0.5917 0.36304 0.88931 0.0
H333 H 0.58844 0.38318 0.9842 0.0
H334 H 0.57328 0.40168 0.01041 0.0
C335 C 0.57342 0.3857 -0.00142 0.0
H336 H 0.57247 0.3742 0.02062 0.0
H337 H 0.62311 0.35352 0.94498 0.0
O338 O 0.51476 0.37556 0.85271 0.0
C339 C 0.58464 0.37123 0.8608 0.0
Co340 Co 0.13811 0.53683 0.87193 0.0
Co341 Co 0.15032 0.57416 0.92187 0.0
C342 C 0.18247 0.54801 0.8822 0.0
O343 O 0.16853 0.53566 0.87012 0.0
O344 O 0.17763 0.56356 0.90198 0.0
C345 C 0.13706 0.49613 0.83773 0.0
O346 O 0.15669 0.4944 0.84823 0.0
C347 C 0.16463 0.58727 0.99149 0.0
C348 C 0.15575 0.62084 0.9932 0.0
C349 C 0.1639 0.60467 0.0138 0.0
N350 N 0.1568 0.59281 0.95972 0.0
N351 N 0.15191 0.613 0.9606 0.0
C352 C 0.17268 0.56566 -0.00027 0.0
H353 H 0.15939 0.55531 0.00739 0.0
H354 H 0.18423 0.56614 0.02184 0.0
H355 H 0.18008 0.55872 0.97573 0.0
C356 C 0.11299 0.52434 0.93294 0.0
N357 N 0.12823 0.5363 0.91869 0.0
N358 N 0.13156 0.55283 0.9389 0.0
C359 C 0.11758 0.55243 0.96597 0.0
C360 C 0.10563 0.53414 0.96339 0.0
C361 C 0.10291 0.50623 0.91392 0.0
H362 H 0.09468 0.51216 0.88992 0.0
H363 H 0.11525 0.49498 0.90533 0.0
H364 H 0.09139 0.4978 0.93082 0.0
O365 O 0.12865 0.56298 0.84768 0.0
O366 O 0.13641 0.58985 0.88322 0.0
H367 H 0.11568 0.5857 0.97586 0.0
H368 H 0.0973 0.57007 0.00149 0.0
C369 C 0.11343 0.57065 0.99027 0.0
H370 H 0.12463 0.57012 0.01278 0.0
H371 H 0.14508 0.62117 0.93949 0.0
O372 O 0.12678 0.51276 0.84487 0.0
C373 C 0.12872 0.58268 0.8544 0.0
Co374 Co 0.95821 0.13706 0.87424 0.0
Co375 Co 0.92156 0.14877 0.92595 0.0
C376 C 0.94926 0.18139 0.89153 0.0
O377 O 0.96066 0.16741 0.87711 0.0
O378 O 0.93358 0.17646 0.9109 0.0
C379 C 0.00065 0.13346 0.84845 0.0
O380 O 0.00517 0.14725 0.87333 0.0
C381 C 0.90652 0.16181 0.99572 0.0
C382 C 0.87307 0.15244 0.99387 0.0
C383 C 0.88834 0.16076 0.0162 0.0
N384 N 0.90217 0.15421 0.96324 0.0
N385 N 0.88206 0.14905 0.96202 0.0
C386 C 0.92822 0.1679 0.00737 0.0
H387 H 0.9401 0.16276 0.98758 0.0
H388 H 0.93187 0.16094 0.03369 0.0
H389 H 0.92909 0.18528 0.00981 0.0
C390 C 0.96944 0.10843 0.93202 0.0
N391 N 0.95799 0.12452 0.91927 0.0
N392 N 0.94208 0.12833 0.94072 0.0
C393 C 0.94263 0.11417 0.96753 0.0
C394 C 0.96024 0.10143 0.96319 0.0
C395 C 0.98662 0.0977 0.91159 0.0
H396 H 0.98113 0.09431 0.88422 0.0
H397 H 0.00042 0.10833 0.91 0.0
H398 H 0.99163 0.08272 0.92406 0.0
O399 O 0.93207 0.12996 0.84839 0.0
O400 O 0.90563 0.13775 0.88473 0.0
H401 H 0.90989 0.11382 0.98177 0.0
H402 H 0.92597 0.09536 0.00644 0.0
C403 C 0.92547 0.11127 0.99434 0.0
H404 H 0.92748 0.12294 0.01594 0.0
H405 H 0.87469 0.14237 0.93994 0.0
O406 O 0.98184 0.12702 0.84496 0.0
C407 C 0.91243 0.13091 0.85506 0.0
Co408 Co 0.36032 0.53328 0.60853 0.0
Co409 Co 0.3508 0.57299 0.56234 0.0
C410 C 0.31666 0.54598 0.59481 0.0
O411 O 0.32981 0.5327 0.60669 0.0
O412 O 0.32266 0.56213 0.57749 0.0
C413 C 0.36075 0.50121 0.66135 0.0
O414 O 0.34445 0.51159 0.67377 0.0
C415 C 0.33765 0.59149 0.49523 0.0
C416 C 0.34833 0.62442 0.50051 0.0
C417 C 0.33892 0.61047 0.47696 0.0
N418 N 0.34604 0.59416 0.52765 0.0
N419 N 0.35206 0.61396 0.53094 0.0
C420 C 0.33056 0.57056 0.4814 0.0
H421 H 0.33566 0.5577 0.49937 0.0
H422 H 0.3369 0.56782 0.45431 0.0
H423 H 0.31313 0.57034 0.47996 0.0
C424 C 0.38755 0.52305 0.54888 0.0
N425 N 0.37214 0.53479 0.56312 0.0
N426 N 0.36958 0.55201 0.5443 0.0
C427 C 0.38403 0.55213 0.51797 0.0
C428 C 0.39572 0.53363 0.51977 0.0
C429 C 0.39683 0.50422 0.56704 0.0
H430 H 0.40441 0.50929 0.59219 0.0
H431 H 0.38411 0.49294 0.57369 0.0
H432 H 0.40873 0.49613 0.5504 0.0
O433 O 0.36912 0.55778 0.63775 0.0
O434 O 0.36332 0.58621 0.60479 0.0
H435 H 0.38748 0.58544 0.51048 0.0
H436 H 0.40408 0.56957 0.48182 0.0
C437 C 0.38842 0.57073 0.49469 0.0
H438 H 0.37635 0.57148 0.47348 0.0
H439 H 0.3594 0.62012 0.55347 0.0
O440 O 0.36983 0.50772 0.63338 0.0
C441 C 0.36957 0.57769 0.63354 0.0
Co442 Co 0.95862 0.36203 0.61782 0.0
Co443 Co 0.92069 0.34963 0.5693 0.0
C444 C 0.94776 0.31754 0.60689 0.0
O445 O 0.95997 0.33163 0.61892 0.0
O446 O 0.93192 0.32224 0.58771 0.0
C447 C 0.00052 0.36344 0.64686 0.0
O448 O 0.00328 0.34561 0.62982 0.0
C449 C 0.9047 0.33552 0.50075 0.0
C450 C 0.87125 0.34477 0.50368 0.0
C451 C 0.88626 0.33639 0.48091 0.0
N452 N 0.90074 0.3433 0.53325 0.0
N453 N 0.88061 0.34834 0.53514 0.0
C454 C 0.92626 0.32947 0.48836 0.0
H455 H 0.93835 0.33419 0.50806 0.0
H456 H 0.92974 0.3368 0.46225 0.0
H457 H 0.927 0.31213 0.48511 0.0
C458 C 0.97004 0.38746 0.55652 0.0
N459 N 0.95828 0.37224 0.57126 0.0
N460 N 0.94162 0.36868 0.55144 0.0
C461 C 0.94182 0.3824 0.524 0.0
C462 C 0.96006 0.39445 0.52601 0.0
C463 C 0.98822 0.39777 0.57502 0.0
H464 H 0.00018 0.38568 0.58159 0.0
H465 H 0.9957 0.41016 0.5586 0.0
H466 H 0.98265 0.40495 0.60019 0.0
O467 O 0.93296 0.37119 0.64364 0.0
O468 O 0.90573 0.36311 0.60922 0.0
H469 H 0.92394 0.40217 0.48814 0.0
H470 H 0.92441 0.37475 0.47722 0.0
C471 C 0.92359 0.38608 0.49955 0.0
H472 H 0.90854 0.38364 0.51389 0.0
H473 H 0.87352 0.3552 0.55733 0.0
O474 O 0.98294 0.37289 0.64466 0.0
C475 C 0.9132 0.37083 0.63779 0.0
Co476 Co 0.13331 0.95336 0.62677 0.0
Co477 Co 0.1439 0.91684 0.57414 0.0
C478 C 0.17741 0.94271 0.60951 0.0
O479 O 0.16373 0.95437 0.62412 0.0
O480 O 0.1721 0.92733 0.58976 0.0
C481 C 0.13124 0.99614 0.65066 0.0
O482 O 0.14299 0.00012 0.62274 0.0
C483 C 0.15725 0.90136 0.50478 0.0
C484 C 0.14647 0.86832 0.50602 0.0
C485 C 0.15601 0.88317 0.48427 0.0
N486 N 0.14867 0.89737 0.5367 0.0
N487 N 0.14261 0.87751 0.53754 0.0
C488 C 0.16466 0.92275 0.49377 0.0
H489 H 0.15934 0.93486 0.51302 0.0
H490 H 0.15876 0.92667 0.46682 0.0
H491 H 0.18211 0.9229 0.49312 0.0
C492 C 0.1052 0.9661 0.56899 0.0
N493 N 0.12095 0.95412 0.58155 0.0
N494 N 0.12455 0.93845 0.55947 0.0
C495 C 0.11066 0.93978 0.53233 0.0
C496 C 0.09831 0.95761 0.53718 0.0
C497 C 0.09444 0.98298 0.59012 0.0
H498 H 0.09228 0.97768 0.61793 0.0
H499 H 0.10439 0.99731 0.59012 0.0
H500 H 0.07881 0.98716 0.57904 0.0
O501 O 0.12465 0.92742 0.65193 0.0
O502 O 0.13173 0.90121 0.6147 0.0
H503 H 0.10885 0.90728 0.51705 0.0
H504 H 0.09202 0.92461 0.49147 0.0
C505 C 0.10753 0.92308 0.50477 0.0
H506 H 0.1199 0.9246 0.4842 0.0
H507 H 0.13518 0.87043 0.55921 0.0
O508 O 0.12503 0.97746 0.65657 0.0
C509 C 0.12481 0.90786 0.64442 0.0
Co510 Co 0.54107 0.13158 0.62036 0.0
Co511 Co 0.57832 0.14516 0.57102 0.0
C512 C 0.55081 0.17647 0.60945 0.0
O513 O 0.53927 0.16203 0.62219 0.0
O514 O 0.56642 0.17224 0.58942 0.0
C515 C 0.49909 0.1292 0.64874 0.0
O516 O 0.4967 0.14786 0.63429 0.0
C517 C 0.59353 0.15969 0.50227 0.0
C518 C 0.62704 0.15058 0.50398 0.0
C519 C 0.61171 0.1589 0.48177 0.0
N520 N 0.59792 0.1519 0.5346 0.0
N521 N 0.61809 0.14696 0.53578 0.0
C522 C 0.57178 0.16556 0.49059 0.0
H523 H 0.55995 0.16073 0.51068 0.0
H524 H 0.56806 0.15821 0.46459 0.0
H525 H 0.57086 0.18289 0.48738 0.0
C526 C 0.52964 0.10655 0.55843 0.0
N527 N 0.54133 0.12175 0.57344 0.0
N528 N 0.55778 0.12573 0.55333 0.0
C529 C 0.55754 0.11228 0.52549 0.0
C530 C 0.53945 0.10003 0.52748 0.0
C531 C 0.51162 0.09586 0.57677 0.0
H532 H 0.51731 0.08853 0.60173 0.0
H533 H 0.49949 0.10772 0.58359 0.0
H534 H 0.50427 0.0835 0.5601 0.0
O535 O 0.56703 0.12262 0.64565 0.0
O536 O 0.59368 0.132 0.6108 0.0
H537 H 0.57549 0.09292 0.48913 0.0
H538 H 0.57436 0.12033 0.47828 0.0
C539 C 0.57562 0.10901 0.50056 0.0
H540 H 0.59075 0.11172 0.51452 0.0
H541 H 0.62547 0.14007 0.55766 0.0
O542 O 0.51672 0.11987 0.64621 0.0
C543 C 0.58673 0.12374 0.63931 0.0
H544 H 0.64512 0.96014 0.16076 0.0
H545 H 0.62665 0.93015 0.18754 0.0
H546 H 0.57056 0.96788 0.19777 0.0
H547 H 0.58867 0.99771 0.17102 0.0
H548 H 0.60691 0.92779 0.25516 0.0
H549 H 0.55003 0.91456 0.14614 0.0
H550 H 0.57382 0.92977 0.1404 0.0
H551 H 0.55083 0.94158 0.16 0.0
C552 C 0.62884 0.96201 0.16867 0.0
C553 C 0.61833 0.98128 0.16367 0.0
C554 C 0.61834 0.94488 0.1839 0.0
C555 C 0.59717 0.94674 0.19395 0.0
C556 C 0.58678 0.96602 0.18944 0.0
H557 H 0.51491 0.89722 0.34421 0.0
H558 H 0.54348 0.91354 0.31111 0.0
C559 C 0.59722 0.9831 0.17439 0.0
C560 C 0.58583 0.92893 0.21038 0.0
H561 H 0.5401 0.90119 0.20373 0.0
C562 C 0.59252 0.92161 0.24366 0.0
C563 C 0.56734 0.92059 0.19495 0.0
C564 C 0.56019 0.92686 0.15822 0.0
C565 C 0.58028 0.90733 0.26316 0.0
C566 C 0.56077 0.90054 0.24913 0.0
C567 C 0.55494 0.9066 0.21467 0.0
C568 C 0.54511 0.88917 0.27099 0.0
C569 C 0.58807 0.9001 0.29899 0.0
C570 C 0.53631 0.87016 0.25915 0.0
C571 C 0.51974 0.86084 0.27789 0.0
C572 C 0.51161 0.87053 0.30856 0.0
C573 C 0.5208 0.88933 0.32071 0.0
C574 C 0.53731 0.89859 0.30201 0.0
H575 H 0.60554 0.90037 0.30023 0.0
H576 H 0.58208 0.91095 0.31978 0.0
H577 H 0.58251 0.88394 0.3052 0.0
H578 H 0.54199 0.86277 0.23504 0.0
H579 H 0.513 0.84635 0.26788 0.0
H580 H 0.62342 0.49595 0.27646 0.0
H581 H 0.60461 0.52205 0.24096 0.0
H582 H 0.60772 0.566 0.32831 0.0
H583 H 0.62754 0.54025 0.36321 0.0
H584 H 0.56759 0.53577 0.25523 0.0
H585 H 0.62027 0.60491 0.24814 0.0
H586 H 0.62929 0.57948 0.26312 0.0
H587 H 0.61577 0.59693 0.29318 0.0
C588 C 0.62048 0.51137 0.28774 0.0
C589 C 0.62688 0.51614 0.3225 0.0
C590 C 0.60975 0.52626 0.26748 0.0
C591 C 0.60489 0.54609 0.2818 0.0
C592 C 0.61178 0.55107 0.31627 0.0
H593 H 0.49374 0.61391 0.21783 0.0
H594 H 0.52101 0.59454 0.24981 0.0
C595 C 0.62296 0.5363 0.3363 0.0
C596 C 0.59057 0.5604 0.26222 0.0
H597 H 0.5838 0.61111 0.23436 0.0
C598 C 0.5713 0.55218 0.25036 0.0
C599 C 0.59543 0.58178 0.25551 0.0
C600 C 0.61642 0.59123 0.26533 0.0
C601 C 0.55663 0.56474 0.23253 0.0
C602 C 0.56094 0.58639 0.22768 0.0
C603 C 0.58039 0.59459 0.23873 0.0
C604 C 0.54538 0.60058 0.21091 0.0
C605 C 0.53681 0.55453 0.21857 0.0
C606 C 0.55041 0.61149 0.17963 0.0
C607 C 0.53494 0.62297 0.16169 0.0
C608 C 0.51421 0.6235 0.17468 0.0
C609 C 0.50952 0.61348 0.20696 0.0
C610 C 0.52505 0.60234 0.22515 0.0
H611 H 0.53892 0.53731 0.21474 0.0
H612 H 0.52391 0.55681 0.23807 0.0
H613 H 0.53191 0.56155 0.19286 0.0
H614 H 0.56607 0.61045 0.16836 0.0
H615 H 0.53897 0.63059 0.13685 0.0
H616 H 0.85194 0.5414 0.14943 0.0
H617 H 0.86733 0.57065 0.18326 0.0
H618 H 0.91107 0.52771 0.23241 0.0
H619 H 0.89593 0.49853 0.19899 0.0
H620 H 0.88934 0.5584 0.2798 0.0
H621 H 0.92878 0.59317 0.16104 0.0
H622 H 0.90109 0.58717 0.15883 0.0
H623 H 0.91987 0.56618 0.16147 0.0
C624 C 0.86475 0.53819 0.16762 0.0
C625 C 0.87281 0.51769 0.17139 0.0
C626 C 0.8735 0.5549 0.18684 0.0
C627 C 0.89034 0.55125 0.21011 0.0
C628 C 0.89803 0.53076 0.21457 0.0
H629 H 0.99667 0.6014 0.30112 0.0
H630 H 0.96803 0.58526 0.26779 0.0
C631 C 0.88941 0.51414 0.19533 0.0
C632 C 0.90087 0.56868 0.22893 0.0
H633 H 0.93859 0.6062 0.21693 0.0
C634 C 0.89973 0.56927 0.26613 0.0
C635 C 0.91442 0.58266 0.21079 0.0
C636 C 0.9163 0.58237 0.17083 0.0
C637 C 0.91274 0.58273 0.28588 0.0
C638 C 0.92714 0.59585 0.2678 0.0
C639 C 0.9274 0.59614 0.23055 0.0
C640 C 0.9442 0.60675 0.28696 0.0
C641 C 0.91211 0.58181 0.32592 0.0
C642 C 0.94021 0.62431 0.30851 0.0
C643 C 0.95662 0.63365 0.32767 0.0
C644 C 0.97716 0.62547 0.32556 0.0
C645 C 0.98103 0.60806 0.30346 0.0
C646 C 0.96471 0.59885 0.28428 0.0
H647 H 0.90089 0.56974 0.33584 0.0
H648 H 0.92802 0.57821 0.33652 0.0
H649 H 0.90732 0.59737 0.33659 0.0
H650 H 0.92443 0.63064 0.31068 0.0
H651 H 0.95316 0.64707 0.34444 0.0
H652 H 0.00243 0.87313 0.2231 0.0
H653 H 0.97547 0.88986 0.25975 0.0
H654 H 0.93382 0.89226 0.16918 0.0
H655 H 0.9604 0.87442 0.13301 0.0
H656 H 0.96292 0.92757 0.25048 0.0
H657 H 0.8924 0.87686 0.24396 0.0
H658 H 0.91797 0.86791 0.22952 0.0
H659 H 0.90162 0.88334 0.20032 0.0
C660 C 0.98731 0.8768 0.21132 0.0
C661 C 0.98343 0.87259 0.17532 0.0
C662 C 0.97191 0.88631 0.23224 0.0
C663 C 0.95251 0.89219 0.21737 0.0
C664 C 0.94839 0.88736 0.18159 0.0
H665 H 0.88584 0.00257 0.28266 0.0
H666 H 0.90549 0.9751 0.25176 0.0
C667 C 0.96364 0.87734 0.16084 0.0
C668 C 0.93796 0.90579 0.23791 0.0
H669 H 0.88647 0.91309 0.26095 0.0
C670 C 0.94627 0.92417 0.25315 0.0
C671 C 0.91625 0.90134 0.24178 0.0
C672 C 0.9066 0.88116 0.22834 0.0
C673 C 0.93345 0.93848 0.27125 0.0
C674 C 0.91153 0.93477 0.27299 0.0
C675 C 0.90323 0.91607 0.25892 0.0
C676 C 0.89716 0.95045 0.28888 0.0
C677 C 0.9436 0.95741 0.2885 0.0
C678 C 0.88495 0.94537 0.31874 0.0
C679 C 0.87336 0.961 0.33613 0.0
C680 C 0.87401 0.9819 0.32395 0.0
C681 C 0.88534 0.98665 0.29293 0.0
C682 C 0.89661 0.97101 0.27534 0.0
H683 H 0.96051 0.95455 0.29425 0.0
H684 H 0.9426 0.97104 0.27015 0.0
H685 H 0.93557 0.96164 0.31371 0.0
H686 H 0.88508 0.92953 0.32941 0.0
H687 H 0.86472 0.95692 0.35995 0.0
H688 H 0.39357 0.01628 0.84508 0.0
H689 H 0.41053 0.04436 0.8117 0.0
H690 H 0.36297 0.03957 0.73034 0.0
H691 H 0.34592 0.01107 0.76348 0.0
H692 H 0.40269 0.03793 0.70359 0.0
H693 H 0.39615 0.10571 0.79481 0.0
H694 H 0.40652 0.08305 0.81717 0.0
H695 H 0.38016 0.08236 0.79956 0.0
C696 C 0.38651 0.02134 0.82033 0.0
C697 C 0.36844 0.01137 0.80685 0.0
C698 C 0.39612 0.03757 0.80144 0.0
C699 C 0.3878 0.04431 0.76887 0.0
C700 C 0.3695 0.03472 0.75563 0.0
H701 H 0.45901 0.14407 0.65884 0.0
H702 H 0.42901 0.12503 0.68439 0.0
C703 C 0.35982 0.01844 0.77456 0.0
C704 C 0.39962 0.05971 0.7472 0.0
H705 H 0.42509 0.10688 0.75264 0.0
C706 C 0.40722 0.05321 0.71396 0.0
C707 C 0.40524 0.07977 0.76046 0.0
C708 C 0.39639 0.08822 0.7948 0.0
C709 C 0.42153 0.06558 0.69486 0.0
C710 C 0.42864 0.08474 0.70971 0.0
C711 C 0.41986 0.092 0.74162 0.0
C712 C 0.44651 0.09641 0.69415 0.0
C713 C 0.4294 0.05773 0.65942 0.0
C714 C 0.4663 0.08673 0.69197 0.0
C715 C 0.48339 0.0975 0.67759 0.0
C716 C 0.48106 0.11825 0.66526 0.0
C717 C 0.46128 0.12808 0.66803 0.0
C718 C 0.44414 0.11725 0.68255 0.0
H719 H 0.41793 0.04682 0.64688 0.0
H720 H 0.43249 0.07099 0.64091 0.0
H721 H 0.44433 0.04898 0.66342 0.0
H722 H 0.46854 0.0708 0.70154 0.0
H723 H 0.4984 0.08947 0.67596 0.0
H724 H 0.39425 0.47676 0.64262 0.0
H725 H 0.41083 0.44908 0.67752 0.0
H726 H 0.36379 0.45664 0.75918 0.0
H727 H 0.34718 0.48472 0.72455 0.0
H728 H 0.40348 0.45852 0.78524 0.0
H729 H 0.39592 0.38843 0.69932 0.0
H730 H 0.4066 0.41034 0.67531 0.0
H731 H 0.38025 0.41184 0.69282 0.0
C732 C 0.3872 0.47236 0.66775 0.0
C733 C 0.36945 0.48302 0.68091 0.0
C734 C 0.3966 0.45636 0.68752 0.0
C735 C 0.38834 0.45056 0.72067 0.0
C736 C 0.37028 0.46077 0.73349 0.0
H737 H 0.45666 0.35242 0.83943 0.0
H738 H 0.4275 0.37151 0.8114 0.0
C739 C 0.36084 0.47681 0.7137 0.0
C740 C 0.40006 0.43561 0.74339 0.0
H741 H 0.42461 0.38785 0.74189 0.0
C742 C 0.40774 0.44289 0.7761 0.0
C743 C 0.40535 0.41511 0.73172 0.0
C744 C 0.39639 0.40589 0.69803 0.0
C745 C 0.42174 0.43078 0.79631 0.0
C746 C 0.42847 0.41107 0.78309 0.0
C747 C 0.41966 0.40313 0.75165 0.0
C748 C 0.44588 0.39936 0.80001 0.0
C749 C 0.42963 0.43944 0.83119 0.0
C750 C 0.46588 0.40858 0.80215 0.0
C751 C 0.4825 0.39779 0.81801 0.0
C752 C 0.47946 0.37747 0.83185 0.0
C753 C 0.45948 0.36808 0.8291 0.0
C754 C 0.44281 0.37893 0.81315 0.0
H755 H 0.41836 0.45097 0.84267 0.0
H756 H 0.4323 0.42666 0.8508 0.0
H757 H 0.44478 0.44771 0.82672 0.0
H758 H 0.46866 0.42415 0.79142 0.0
H759 H 0.4977 0.40545 0.81953 0.0
H760 H 0.04119 0.34947 0.65389 0.0
H761 H 0.06937 0.3655 0.68944 0.0
H762 H 0.02669 0.41438 0.72303 0.0
H763 H -0.00138 0.39864 0.68794 0.0
H764 H 0.08498 0.40816 0.68334 0.0
H765 H 0.05225 0.39166 0.81673 0.0
H766 H 0.04417 0.3774 0.77747 0.0
H767 H 0.03319 0.40288 0.78706 0.0
C768 C 0.03781 0.36357 0.66902 0.0
C769 C 0.01765 0.37274 0.66822 0.0
C770 C 0.0539 0.37266 0.68926 0.0
C771 C 0.04994 0.39086 0.70926 0.0
C772 C 0.0299 0.40007 0.70833 0.0
H773 H 0.09585 0.49371 0.8184 0.0
H774 H 0.0781 0.46483 0.78813 0.0
C775 C 0.01391 0.39111 0.68806 0.0
C776 C 0.06676 0.40111 0.73006 0.0
H777 H 0.07662 0.42071 0.8127 0.0
C778 C 0.08355 0.4105 0.71178 0.0
C779 C 0.06483 0.40395 0.76715 0.0
C780 C 0.04775 0.39325 0.78833 0.0
C781 C 0.09752 0.42413 0.72928 0.0
C782 C 0.09458 0.42819 0.76586 0.0
C783 C 0.07869 0.41763 0.78457 0.0
C784 C 0.1059 0.44533 0.78413 0.0
C785 C 0.11439 0.43522 0.7082 0.0
C786 C 0.12743 0.44381 0.79192 0.0
C787 C 0.1377 0.46037 0.80929 0.0
C788 C 0.12653 0.47861 0.81903 0.0
C789 C 0.10495 0.47994 0.81115 0.0
C790 C 0.09475 0.46344 0.79396 0.0
H791 H 0.11343 0.43163 0.67935 0.0
H792 H 0.11311 0.45251 0.71192 0.0
H793 H 0.13011 0.43029 0.718 0.0
H794 H 0.13621 0.42983 0.78475 0.0
H795 H 0.15432 0.45886 0.8151 0.0
H796 H 0.12248 0.03662 0.63165 0.0
H797 H 0.10503 0.06335 0.66812 0.0
H798 H 0.10615 0.02107 0.7579 0.0
H799 H 0.12251 0.99402 0.72099 0.0
H800 H 0.06866 0.03461 0.74818 0.0
H801 H 0.1214 0.10378 0.74416 0.0
H802 H 0.11474 0.09498 0.70033 0.0
H803 H 0.12969 0.07807 0.7293 0.0
C804 C 0.11935 0.03326 0.65937 0.0
C805 C 0.12366 0.01329 0.67355 0.0
C806 C 0.10955 0.04859 0.68029 0.0
C807 C 0.10449 0.04434 0.71593 0.0
C808 C 0.10988 0.02472 0.73049 0.0
H809 H 0.04276 0.13122 0.86345 0.0
H810 H 0.06939 0.11072 0.83126 0.0
C811 C 0.11919 0.00927 0.70941 0.0
C812 C 0.09121 0.05906 0.73671 0.0
H813 H 0.08554 0.11038 0.76211 0.0
C814 C 0.07256 0.05112 0.75156 0.0
C815 C 0.09631 0.08057 0.74145 0.0
C816 C 0.11675 0.08979 0.72828 0.0
C817 C 0.05868 0.06408 0.7703 0.0
C818 C 0.06312 0.08582 0.77313 0.0
C819 C 0.08203 0.09376 0.75929 0.0
C820 C 0.04799 0.10038 0.79006 0.0
C821 C 0.03945 0.05427 0.7871 0.0
C822 C 0.02745 0.10196 0.77673 0.0
C823 C 0.01223 0.11332 0.79523 0.0
C824 C 0.01741 0.12368 0.82701 0.0
C825 C 0.03835 0.12332 0.83906 0.0
C826 C 0.05355 0.11166 0.82073 0.0
H827 H 0.04167 0.03714 0.79177 0.0
H828 H 0.03559 0.0619 0.81283 0.0
H829 H 0.0258 0.05618 0.76898 0.0
H830 H 0.023 0.0938 0.75259 0.0
H831 H 0.99629 0.11361 0.78503 0.0
H832 H 0.79659 0.01644 0.36282 0.0
H833 H 0.77079 0.01585 0.31467 0.0
H834 H 0.76604 0.08349 0.31944 0.0
H835 H 0.79141 0.08415 0.36824 0.0
H836 H 0.7285 0.06344 0.29811 0.0
H837 H 0.79781 0.03575 0.22115 0.0
H838 H 0.79076 0.01902 0.2577 0.0
H839 H 0.79987 0.04535 0.26613 0.0
C840 C 0.78926 0.03108 0.35475 0.0
C841 C 0.79622 0.05037 0.36876 0.0
C842 C 0.77475 0.03075 0.32697 0.0
C843 C 0.76727 0.04969 0.31268 0.0
C844 C 0.77195 0.06873 0.32983 0.0
H845 H 0.70264 0.08385 0.11841 0.0
H846 H 0.72891 0.08373 0.16593 0.0
C847 C 0.78629 0.06906 0.35798 0.0
C848 C 0.75702 0.0499 0.27745 0.0
H849 H 0.7654 0.03774 0.19008 0.0
C850 C 0.73655 0.0579 0.27448 0.0
C851 C 0.7678 0.04296 0.2466 0.0
C852 C 0.79035 0.03548 0.24785 0.0
C853 C 0.7263 0.05854 0.24151 0.0
C854 C 0.73693 0.05117 0.2109 0.0
C855 C 0.75744 0.04339 0.21372 0.0
C856 C 0.72621 0.05037 0.17624 0.0
C857 C 0.70402 0.0667 0.2396 0.0
C858 C 0.71737 0.03135 0.16482 0.0
C859 C 0.70241 0.03134 0.13772 0.0
C860 C 0.69617 0.05038 0.12181 0.0
C861 C 0.70716 0.06894 0.13012 0.0
C862 C 0.72202 0.06895 0.15748 0.0
H863 H 0.69722 0.06961 0.26635 0.0
H864 H 0.70379 0.0817 0.2245 0.0
H865 H 0.69383 0.05531 0.22527 0.0
H866 H 0.72061 0.01685 0.17895 0.0
H867 H 0.69426 0.0168 0.13167 0.0
H868 H 0.48153 0.69979 0.13236 0.0
H869 H 0.48136 0.72611 0.17966 0.0
H870 H 0.41442 0.73396 0.16682 0.0
H871 H 0.41445 0.7077 0.11927 0.0
H872 H 0.46117 0.77005 0.19393 0.0
H873 H 0.42766 0.70069 0.26489 0.0
H874 H 0.44161 0.69815 0.22331 0.0
H875 H 0.41541 0.70865 0.2239 0.0
C876 C 0.46697 0.70794 0.13831 0.0
C877 C 0.44795 0.70148 0.12264 0.0
C878 C 0.46688 0.72288 0.16546 0.0
C879 C 0.4478 0.73146 0.17712 0.0
C880 C 0.42925 0.72726 0.15822 0.0
H881 H 0.41457 0.7927 0.37312 0.0
H882 H 0.41484 0.76851 0.32268 0.0
C883 C 0.42934 0.71242 0.13081 0.0
C884 C 0.44687 0.74143 0.21243 0.0
H885 H 0.43403 0.73109 0.29882 0.0
C886 C 0.45517 0.76165 0.21688 0.0
C887 C 0.43913 0.73022 0.24218 0.0
C888 C 0.43053 0.70817 0.23865 0.0
C889 C 0.45574 0.77113 0.25051 0.0
C890 C 0.44838 0.75975 0.28046 0.0
C891 C 0.43987 0.7396 0.27587 0.0
C892 C 0.44869 0.76905 0.31644 0.0
C893 C 0.46385 0.79341 0.25356 0.0
C894 C 0.46775 0.77564 0.33154 0.0
C895 C 0.46765 0.78945 0.36034 0.0
C896 C 0.44847 0.79665 0.37445 0.0
C897 C 0.42959 0.78742 0.36279 0.0
C898 C 0.4297 0.77377 0.33369 0.0
H899 H 0.46392 0.80157 0.22746 0.0
H900 H 0.45415 0.80272 0.27242 0.0
H901 H 0.48025 0.7931 0.26366 0.0
H902 H 0.48261 0.77159 0.31917 0.0
H903 H 0.48243 0.79621 0.36905 0.0
H904 H 0.79466 0.41457 0.1242 0.0
H905 H 0.76964 0.41562 0.17318 0.0
H906 H 0.7731 0.48344 0.17441 0.0
H907 H 0.79876 0.48238 0.12614 0.0
H908 H 0.7867 0.46665 0.23556 0.0
H909 H 0.71031 0.43029 0.20018 0.0
H910 H 0.73224 0.41408 0.18793 0.0
H911 H 0.72873 0.43931 0.16698 0.0
C912 C 0.78918 0.42975 0.13351 0.0
C913 C 0.79881 0.44839 0.12174 0.0
C914 C 0.77491 0.43034 0.16172 0.0
C915 C 0.7697 0.44961 0.17774 0.0
C916 C 0.77707 0.4684 0.16262 0.0
H917 H 0.70426 0.48392 0.36593 0.0
H918 H 0.7301 0.48387 0.31798 0.0
C919 C 0.79156 0.4678 0.13479 0.0
C920 C 0.76011 0.44996 0.21359 0.0
H921 H 0.71831 0.43262 0.26223 0.0
C922 C 0.77162 0.45939 0.2413 0.0
C923 C 0.74064 0.44022 0.22115 0.0
C924 C 0.72718 0.43058 0.19241 0.0
C925 C 0.76421 0.45925 0.27638 0.0
C926 C 0.74486 0.4494 0.28389 0.0
C927 C 0.73337 0.43989 0.25633 0.0
C928 C 0.73516 0.45022 0.31947 0.0
C929 C 0.77715 0.46945 0.30524 0.0
C930 C 0.73064 0.43151 0.33769 0.0
C931 C 0.71608 0.43153 0.36551 0.0
C932 C 0.70553 0.45022 0.37461 0.0
C933 C 0.71215 0.4693 0.35937 0.0
C934 C 0.72686 0.46929 0.33186 0.0
H935 H 0.79365 0.47221 0.29666 0.0
H936 H 0.77006 0.48486 0.31224 0.0
H937 H 0.77723 0.45954 0.32955 0.0
H938 H 0.73698 0.41665 0.32843 0.0
H939 H 0.71121 0.41658 0.37663 0.0
H940 H 0.01296 0.69988 0.36483 0.0
H941 H 0.01365 0.72549 0.31644 0.0
H942 H 0.08081 0.7318 0.32836 0.0
H943 H 0.0803 0.70628 0.37695 0.0
H944 H 0.03565 0.76907 0.3017 0.0
H945 H 0.06562 0.69817 0.23052 0.0
H946 H 0.05146 0.6963 0.27201 0.0
H947 H 0.07814 0.70548 0.27164 0.0
C948 C 0.02772 0.70753 0.35838 0.0
C949 C 0.04663 0.70082 0.37417 0.0
C950 C 0.02809 0.72204 0.3306 0.0
C951 C 0.04734 0.72999 0.31846 0.0
C952 C 0.06585 0.72557 0.33732 0.0
H953 H 0.08432 0.79146 0.12573 0.0
H954 H 0.0824 0.76607 0.17437 0.0
C955 C 0.06548 0.71116 0.36533 0.0
C956 C 0.04841 0.73978 0.28304 0.0
H957 H 0.06086 0.72894 0.19664 0.0
C958 C 0.04118 0.76039 0.2787 0.0
C959 C 0.05557 0.72821 0.25325 0.0
C960 C 0.06306 0.70576 0.25676 0.0
C961 C 0.04117 0.76996 0.24514 0.0
C962 C 0.04802 0.75828 0.21515 0.0
C963 C 0.05539 0.73768 0.21961 0.0
C964 C 0.04852 0.76782 0.17937 0.0
C965 C 0.03428 0.79264 0.24222 0.0
C966 C 0.02994 0.77548 0.16399 0.0
C967 C 0.031 0.78999 0.13626 0.0
C968 C 0.05065 0.79678 0.1235 0.0
C969 C 0.06897 0.78646 0.13503 0.0
C970 C 0.06792 0.77212 0.16312 0.0
H971 H 0.03432 0.80067 0.26846 0.0
H972 H 0.04469 0.80152 0.22386 0.0
H973 H 0.01801 0.79325 0.23155 0.0
H974 H 0.01478 0.77183 0.17564 0.0
H975 H 0.01665 0.79765 0.12763 0.0
H976 H 0.19874 0.97807 0.62786 0.0
H977 H 0.22488 0.97954 0.67534 0.0
H978 H 0.22874 0.91175 0.67508 0.0
H979 H 0.20319 0.91028 0.62685 0.0
H980 H 0.21165 0.96273 0.73703 0.0
H981 H 0.2883 0.92719 0.70056 0.0
H982 H 0.2696 0.93602 0.66766 0.0
H983 H 0.26637 0.91083 0.68881 0.0
C984 C 0.20613 0.96358 0.63652 0.0
C985 C 0.19886 0.94406 0.62399 0.0
C986 C 0.22089 0.96441 0.66389 0.0
C987 C 0.22851 0.94575 0.67911 0.0
C988 C 0.22326 0.92636 0.66353 0.0
H989 H 0.289 0.9153 0.87796 0.0
H990 H 0.26355 0.91421 0.82933 0.0
C991 C 0.20869 0.92554 0.63575 0.0
C992 C 0.23835 0.94638 0.71474 0.0
H993 H 0.28083 0.93007 0.76269 0.0
C994 C 0.22689 0.95576 0.74255 0.0
C995 C 0.25803 0.93699 0.72201 0.0
C996 C 0.27137 0.92737 0.69311 0.0
C997 C 0.23457 0.95595 0.77745 0.0
C998 C 0.25418 0.94653 0.78467 0.0
C999 C 0.26561 0.93703 0.75702 0.0
C1000 C 0.26414 0.94779 0.82002 0.0
C1001 C 0.22163 0.96605 0.80642 0.0
C1002 C 0.27171 0.9672 0.83225 0.0
C1003 C 0.28621 0.96789 0.86003 0.0
C1004 C 0.29341 0.94914 0.87573 0.0
C1005 C 0.28371 0.93001 0.8665 0.0
C1006 C 0.26933 0.92933 0.83845 0.0
H1007 H 0.20494 0.96809 0.79833 0.0
H1008 H 0.22219 0.95649 0.8311 0.0
H1009 H 0.22822 0.98181 0.81255 0.0
H1010 H 0.26796 0.9816 0.81821 0.0
H1011 H 0.29342 0.98284 0.86665 0.0
H1012 H 0.51503 0.19512 0.63337 0.0
H1013 H 0.51366 0.22165 0.68032 0.0
H1014 H 0.58075 0.23047 0.67197 0.0
H1015 H 0.58224 0.20411 0.62463 0.0
H1016 H 0.56187 0.21231 0.74018 0.0
H1017 H 0.5256 0.28735 0.69444 0.0
H1018 H 0.51437 0.26308 0.67851 0.0
H1019 H 0.5404 0.27043 0.66497 0.0
C1020 C 0.52933 0.20348 0.6403 0.0
C1021 C 0.54877 0.19746 0.62563 0.0
C1022 C 0.52853 0.21856 0.6672 0.0
C1023 C 0.54714 0.22776 0.67969 0.0
C1024 C 0.56624 0.22347 0.66251 0.0
H1025 H 0.58013 0.29162 0.87273 0.0
H1026 H 0.57908 0.26592 0.8247 0.0
C1027 C 0.56703 0.20856 0.63525 0.0
C1028 C 0.54707 0.23866 0.71425 0.0
H1029 H 0.53066 0.28319 0.75614 0.0
C1030 C 0.55518 0.22787 0.74379 0.0
C1031 C 0.53795 0.25868 0.71868 0.0
C1032 C 0.52914 0.27072 0.68754 0.0
C1033 C 0.55424 0.2366 0.77798 0.0
C1034 C 0.5454 0.25684 0.78245 0.0
C1035 C 0.53728 0.26758 0.75275 0.0
C1036 C 0.54534 0.26786 0.81711 0.0
C1037 C 0.56228 0.22386 0.80896 0.0
C1038 C 0.52662 0.27678 0.82994 0.0
C1039 C 0.52723 0.29167 0.85714 0.0
C1040 C 0.54658 0.2978 0.87198 0.0
C1041 C 0.56497 0.28703 0.86206 0.0
C1042 C 0.56439 0.27234 0.83446 0.0
H1043 H 0.56171 0.20672 0.80321 0.0
H1044 H 0.57895 0.2281 0.8141 0.0
H1045 H 0.55305 0.22701 0.83344 0.0
H1046 H 0.51174 0.27342 0.81709 0.0
H1047 H 0.51282 0.29974 0.86435 0.0
H1048 H 0.20324 0.5132 0.8593 0.0
H1049 H 0.22804 0.51278 0.80974 0.0
H1050 H 0.23149 0.58057 0.81315 0.0
H1051 H 0.20726 0.581 0.86335 0.0
H1052 H 0.21389 0.53062 0.74928 0.0
H1053 H 0.29085 0.56584 0.78503 0.0
H1054 H 0.27258 0.55629 0.81806 0.0
H1055 H 0.26893 0.58181 0.79828 0.0
C1056 C 0.2102 0.52791 0.85071 0.0
C1057 C 0.20322 0.54714 0.8649 0.0
C1058 C 0.22421 0.52767 0.82219 0.0
C1059 C 0.23139 0.54664 0.80747 0.0
C1060 C 0.22636 0.56572 0.8243 0.0
H1061 H 0.29101 0.5793 0.60892 0.0
H1062 H 0.26536 0.58001 0.65723 0.0
C1063 C 0.21254 0.56595 0.85319 0.0
C1064 C 0.24078 0.54668 0.77149 0.0
H1065 H 0.28289 0.56354 0.72314 0.0
C1066 C 0.22907 0.53767 0.74362 0.0
C1067 C 0.2604 0.55616 0.76408 0.0
C1068 C 0.27401 0.5654 0.793 0.0
C1069 C 0.23647 0.53789 0.70855 0.0
C1070 C 0.25605 0.54736 0.70122 0.0
C1071 C 0.26769 0.55655 0.72892 0.0
C1072 C 0.26584 0.54636 0.66571 0.0
C1073 C 0.22331 0.52814 0.67954 0.0
C1074 C 0.27338 0.52703 0.65305 0.0
C1075 C 0.28802 0.52656 0.62545 0.0
C1076 C 0.29539 0.54544 0.61042 0.0
C1077 C 0.28563 0.56449 0.61991 0.0
C1078 C 0.27111 0.56496 0.64777 0.0
H1079 H 0.20667 0.52607 0.68789 0.0
H1080 H 0.22376 0.53794 0.65512 0.0
H1081 H 0.2298 0.51241 0.67284 0.0
H1082 H 0.26956 0.51252 0.6667 0.0
H1083 H 0.29524 0.51165 0.61858 0.0
H1084 H 0.91767 0.20962 0.88072 0.0
H1085 H 0.9178 0.23556 0.83276 0.0
H1086 H 0.98456 0.22666 0.81911 0.0
H1087 H 0.98459 0.20064 0.86686 0.0
H1088 H 0.96368 0.27124 0.80454 0.0
H1089 H 0.93136 0.2008 0.73494 0.0
H1090 H 0.91941 0.20864 0.77627 0.0
H1091 H 0.94582 0.19871 0.77609 0.0
C1092 C 0.93259 0.21403 0.86892 0.0
C1093 C 0.95106 0.20283 0.87696 0.0
C1094 C 0.93258 0.22871 0.84128 0.0
C1095 C 0.95109 0.2325 0.82205 0.0
C1096 C 0.97011 0.22372 0.83358 0.0
H1097 H 0.98315 0.29722 0.62856 0.0
H1098 H 0.98435 0.27282 0.67871 0.0
C1099 C 0.97011 0.20896 0.86099 0.0
C1100 C 0.95006 0.24219 0.78654 0.0
H1101 H 0.93706 0.23113 0.70047 0.0
C1102 C 0.95783 0.26257 0.78176 0.0
C1103 C 0.94247 0.23064 0.75704 0.0
C1104 C 0.93436 0.20843 0.76102 0.0
C1105 C 0.95798 0.27192 0.748 0.0
C1106 C 0.95075 0.26023 0.7183 0.0
C1107 C 0.94281 0.23988 0.72323 0.0
C1108 C 0.95053 0.26942 0.68225 0.0
C1109 C 0.96548 0.29438 0.74459 0.0
C1110 C 0.93129 0.27362 0.66542 0.0
C1111 C 0.93059 0.28714 0.63617 0.0
C1112 C 0.94915 0.29676 0.62394 0.0
C1113 C 0.96861 0.29013 0.63772 0.0
C1114 C 0.9693 0.27644 0.66664 0.0
H1115 H 0.96556 0.30263 0.77063 0.0
H1116 H 0.9818 0.29447 0.73408 0.0
H1117 H 0.95538 0.30337 0.7259 0.0
H1118 H 0.91666 0.26803 0.67683 0.0
H1119 H 0.91537 0.29201 0.62613 0.0
H1120 H 0.68584 0.09337 0.93605 0.0
H1121 H 0.68573 0.09321 0.87096 0.0
H1122 H 0.63442 0.13765 0.87108 0.0
H1123 H 0.63411 0.13755 0.93566 0.0
H1124 H 0.65216 0.08003 0.83075 0.0
H1125 H 0.67234 0.1616 0.79455 0.0
H1126 H 0.67794 0.15081 0.83797 0.0
H1127 H 0.65228 0.1614 0.82804 0.0
C1128 C 0.67452 0.10307 0.92222 0.0
C1129 C 0.65958 0.11501 0.94105 0.0
C1130 C 0.67468 0.10316 0.88503 0.0
C1131 C 0.6602 0.11555 0.8662 0.0
C1132 C 0.64606 0.12832 0.88502 0.0
H1133 H 0.57781 0.10389 0.70182 0.0
H1134 H 0.60138 0.09837 0.75184 0.0
C1135 C 0.64584 0.12816 0.92203 0.0
C1136 C 0.6578 0.11343 0.82726 0.0
H1137 H 0.64876 0.14318 0.75353 0.0
C1138 C 0.65201 0.09372 0.81353 0.0
C1139 C 0.65805 0.13116 0.80457 0.0
C1140 C 0.66573 0.15237 0.81702 0.0
C1141 C 0.64439 0.09172 0.77872 0.0
C1142 C 0.64222 0.10995 0.7575 0.0
C1143 C 0.65008 0.12923 0.77 0.0
C1144 C 0.62913 0.1101 0.72494 0.0
C1145 C 0.63787 0.07026 0.7656 0.0
C1146 C 0.63687 0.11853 0.69306 0.0
C1147 C 0.62332 0.1219 0.66433 0.0
C1148 C 0.60175 0.11712 0.66722 0.0
C1149 C 0.59431 0.10778 0.69864 0.0
C1150 C 0.60784 0.1044 0.72723 0.0
H1151 H 0.64758 0.05773 0.77805 0.0
H1152 H 0.62123 0.06735 0.77314 0.0
H1153 H 0.63928 0.06902 0.73626 0.0
H1154 H 0.65322 0.1232 0.69087 0.0
H1155 H 0.62958 0.12913 0.6405 0.0
H1156 H 0.42254 0.64565 0.92985 0.0
H1157 H 0.41935 0.64151 0.86599 0.0
H1158 H 0.35666 0.66746 0.86975 0.0
H1159 H 0.35977 0.67162 0.93428 0.0
H1160 H 0.35717 0.62952 0.84035 0.0
H1161 H 0.41966 0.67692 0.77718 0.0
H1162 H 0.4301 0.66108 0.81245 0.0
H1163 H 0.41116 0.68136 0.82238 0.0
C1164 C 0.40846 0.65146 0.91707 0.0
C1165 C 0.39154 0.65936 0.93708 0.0
C1166 C 0.40664 0.64903 0.88036 0.0
C1167 C 0.38791 0.65451 0.86292 0.0
C1168 C 0.37134 0.66334 0.88262 0.0
H1169 H 0.36752 0.62076 0.63849 0.0
H1170 H 0.37204 0.64211 0.69221 0.0
C1171 C 0.37312 0.66568 0.91942 0.0
C1172 C 0.3845 0.64769 0.82572 0.0
H1173 H 0.4076 0.64638 0.74377 0.0
C1174 C 0.36794 0.6336 0.81907 0.0
C1175 C 0.39845 0.65308 0.79785 0.0
C1176 C 0.4157 0.66912 0.80275 0.0
C1177 C 0.36572 0.62381 0.78597 0.0
C1178 C 0.38064 0.62795 0.75903 0.0
C1179 C 0.39642 0.64299 0.76479 0.0
C1180 C 0.38057 0.61578 0.72562 0.0
C1181 C 0.34773 0.60864 0.78039 0.0
C1182 C 0.38467 0.59412 0.72654 0.0
C1183 C 0.38212 0.5819 0.69609 0.0
C1184 C 0.37545 0.59115 0.66407 0.0
C1185 C 0.37259 0.61312 0.66274 0.0
C1186 C 0.37515 0.62536 0.69335 0.0
H1187 H 0.33483 0.6113 0.79982 0.0
H1188 H 0.34123 0.61007 0.75311 0.0
H1189 H 0.35354 0.5923 0.7839 0.0
H1190 H 0.38916 0.58655 0.7512 0.0
H1191 H 0.38464 0.56508 0.69803 0.0
H1192 H 0.86729 0.36395 0.93789 0.0
H1193 H 0.86804 0.36366 0.87327 0.0
H1194 H 0.81432 0.40514 0.87041 0.0
H1195 H 0.81331 0.40532 0.93557 0.0
H1196 H 0.83831 0.35321 0.82083 0.0
H1197 H 0.86061 0.43808 0.81719 0.0
H1198 H 0.86117 0.42307 0.85785 0.0
H1199 H 0.83646 0.43102 0.8391 0.0
C1200 C 0.8554 0.37278 0.92363 0.0
C1201 C 0.84062 0.38517 0.94188 0.0
C1202 C 0.85586 0.3726 0.88665 0.0
C1203 C 0.84149 0.3847 0.86711 0.0
C1204 C 0.82585 0.39608 0.88509 0.0
H1205 H 0.86999 0.36876 0.6389 0.0
H1206 H 0.84692 0.37526 0.68994 0.0
C1207 C 0.82539 0.39628 0.92229 0.0
C1208 C 0.84426 0.38624 0.82819 0.0
H1209 H 0.86478 0.41873 0.76486 0.0
C1210 C 0.84358 0.36762 0.80819 0.0
C1211 C 0.85118 0.40511 0.81202 0.0
C1212 C 0.85255 0.42549 0.83251 0.0
C1213 C 0.85121 0.36697 0.77324 0.0
C1214 C 0.85933 0.38558 0.75779 0.0
C1215 C 0.85847 0.40454 0.77684 0.0
C1216 C 0.87214 0.38487 0.72498 0.0
C1217 C 0.85213 0.34604 0.75427 0.0
C1218 C 0.89374 0.38915 0.72733 0.0
C1219 C 0.9069 0.38564 0.69833 0.0
C1220 C 0.89871 0.37771 0.66632 0.0
C1221 C 0.87683 0.37469 0.66328 0.0
C1222 C 0.86362 0.37829 0.69243 0.0
H1223 H 0.84773 0.33272 0.77188 0.0
H1224 H 0.84109 0.34623 0.73144 0.0
H1225 H 0.86821 0.34315 0.74378 0.0
H1226 H 0.90062 0.39429 0.75222 0.0
H1227 H 0.92363 0.38832 0.70157 0.0
H1228 H 0.13014 0.86497 0.64456 0.0
H1229 H 0.12372 0.84084 0.6942 0.0
H1230 H 0.09908 0.89232 0.75632 0.0
H1231 H 0.10513 0.91633 0.70713 0.0
H1232 H 0.14319 0.84452 0.75791 0.0
H1233 H 0.05754 0.84628 0.77975 0.0
H1234 H 0.06936 0.8546 0.73838 0.0
H1235 H 0.06733 0.87259 0.7753 0.0
C1236 C 0.12287 0.87103 0.66851 0.0
C1237 C 0.11827 0.89261 0.67199 0.0
C1238 C 0.11922 0.85722 0.6968 0.0
C1239 C 0.11064 0.86471 0.72875 0.0
C1240 C 0.10521 0.88605 0.73163 0.0
H1241 H 0.13606 0.86171 0.93846 0.0
H1242 H 0.13655 0.86025 0.87398 0.0
C1243 C 0.10891 0.89983 0.70354 0.0
C1244 C 0.10998 0.85133 0.7609 0.0
H1245 H 0.07925 0.84194 0.83338 0.0
C1246 C 0.12907 0.84333 0.77398 0.0
C1247 C 0.09151 0.8493 0.78157 0.0
C1248 C 0.07025 0.85596 0.76776 0.0
C1249 C 0.13058 0.83554 0.80873 0.0
C1250 C 0.11265 0.83612 0.83094 0.0
C1251 C 0.09311 0.84186 0.81654 0.0
C1252 C 0.11445 0.83442 0.87002 0.0
C1253 C 0.15163 0.82784 0.82193 0.0
C1254 C 0.10188 0.82033 0.88936 0.0
C1255 C 0.10156 0.82115 0.92653 0.0
C1256 C 0.11344 0.83639 0.9448 0.0
C1257 C 0.1267 0.84979 0.92529 0.0
C1258 C 0.1271 0.84889 0.88833 0.0
H1259 H 0.16096 0.82087 0.7999 0.0
H1260 H 0.16069 0.84135 0.83266 0.0
H1261 H 0.14979 0.81592 0.84328 0.0
H1262 H 0.092 0.80904 0.87568 0.0
H1263 H 0.0918 0.81006 0.94073 0.0
H1264 H 0.62699 0.36305 0.85604 0.0
H1265 H 0.64951 0.36826 0.80379 0.0
H1266 H 0.59825 0.39876 0.74933 0.0
H1267 H 0.57566 0.39368 0.80099 0.0
H1268 H 0.61945 0.35718 0.72018 0.0
H1269 H 0.67161 0.42581 0.74768 0.0
H1270 H 0.66538 0.407 0.78213 0.0
H1271 H 0.64543 0.42456 0.76633 0.0
C1272 C 0.62067 0.37135 0.83328 0.0
C1273 C 0.59945 0.37774 0.83251 0.0
C1274 C 0.63357 0.3743 0.80353 0.0
C1275 C 0.62546 0.38386 0.77291 0.0
C1276 C 0.60474 0.3914 0.77288 0.0
H1277 H 0.64917 0.42313 0.56617 0.0
H1278 H 0.64585 0.41973 0.63026 0.0
C1279 C 0.59186 0.38842 0.8024 0.0
C1280 C 0.63729 0.38361 0.73922 0.0
H1281 H 0.67207 0.41191 0.68942 0.0
C1282 C 0.63127 0.36886 0.71351 0.0
C1283 C 0.65257 0.39894 0.73098 0.0
C1284 C 0.65927 0.41506 0.75808 0.0
C1285 C 0.63935 0.36966 0.67893 0.0
C1286 C 0.65418 0.38546 0.67012 0.0
C1287 C 0.66087 0.39971 0.69638 0.0
C1288 C 0.66053 0.38905 0.63278 0.0
C1289 C 0.63088 0.35445 0.65159 0.0
C1290 C 0.67068 0.37327 0.61307 0.0
C1291 C 0.67259 0.37517 0.57618 0.0
C1292 C 0.66477 0.39306 0.55865 0.0
C1293 C 0.65592 0.40943 0.57883 0.0
C1294 C 0.65388 0.40746 0.61558 0.0
H1295 H 0.61678 0.34585 0.66131 0.0
H1296 H 0.6266 0.36284 0.62674 0.0
H1297 H 0.64317 0.34267 0.64508 0.0
H1298 H 0.67616 0.35905 0.62595 0.0
H1299 H 0.67944 0.36232 0.56121 0.0
H1300 H 0.11072 0.57289 0.79075 0.0
H1301 H 0.10425 0.5964 0.74096 0.0
H1302 H 0.12366 0.6495 0.8044 0.0
H1303 H 0.13066 0.62592 0.85457 0.0
H1304 H 0.07959 0.63222 0.73003 0.0
H1305 H 0.16542 0.64984 0.72133 0.0
H1306 H 0.15536 0.62903 0.7491 0.0
H1307 H 0.15223 0.656 0.76229 0.0
C1308 C 0.11338 0.58959 0.79443 0.0
C1309 C 0.12155 0.59746 0.8265 0.0
C1310 C 0.10958 0.60304 0.76592 0.0
C1311 C 0.11383 0.62463 0.76882 0.0
C1312 C 0.12065 0.63282 0.80147 0.0
H1313 H 0.09098 0.68553 0.56065 0.0
H1314 H 0.09179 0.68379 0.62574 0.0
C1315 C 0.12453 0.61932 0.83013 0.0
C1316 C 0.11276 0.63778 0.73642 0.0
H1317 H 0.14445 0.65966 0.67321 0.0
C1318 C 0.09363 0.63874 0.71787 0.0
C1319 C 0.13119 0.64617 0.72074 0.0
C1320 C 0.15228 0.64519 0.73915 0.0
C1321 C 0.09271 0.64639 0.68294 0.0
C1322 C 0.11139 0.65359 0.6665 0.0
C1323 C 0.13018 0.65416 0.68604 0.0
C1324 C 0.11256 0.65682 0.62762 0.0
C1325 C 0.07215 0.6451 0.66295 0.0
C1326 C 0.12465 0.64284 0.60729 0.0
C1327 C 0.12413 0.64371 0.57033 0.0
C1328 C 0.11139 0.65853 0.5529 0.0
C1329 C 0.10028 0.67341 0.57329 0.0
C1330 C 0.10084 0.67254 0.61045 0.0
H1331 H 0.05977 0.63673 0.67829 0.0
H1332 H 0.06642 0.66123 0.65714 0.0
H1333 H 0.07441 0.63684 0.63722 0.0
H1334 H 0.13385 0.63061 0.62003 0.0
H1335 H 0.13296 0.63209 0.55545 0.0
H1336 H 0.81899 0.14031 0.55344 0.0
H1337 H 0.82088 0.14499 0.61809 0.0
H1338 H 0.84894 0.08348 0.6283 0.0
H1339 H 0.84691 0.07866 0.56435 0.0
H1340 H 0.82255 0.09375 0.68579 0.0
H1341 H 0.88013 0.15731 0.65428 0.0
H1342 H 0.85395 0.16082 0.63735 0.0
H1343 H 0.87008 0.13978 0.62069 0.0
C1344 C 0.82498 0.12758 0.5697 0.0
C1345 C 0.83264 0.10907 0.55387 0.0
C1346 C 0.8261 0.13028 0.60652 0.0
C1347 C 0.83533 0.11469 0.62786 0.0
C1348 C 0.84162 0.09564 0.61234 0.0
H1349 H 0.92092 0.11058 0.79304 0.0
H1350 H 0.89785 0.10677 0.74175 0.0
C1351 C 0.84034 0.09286 0.57566 0.0
C1352 C 0.84143 0.1191 0.66506 0.0
H1353 H 0.87729 0.14695 0.71349 0.0
C1354 C 0.83418 0.10567 0.69211 0.0
C1355 C 0.85681 0.13453 0.67303 0.0
C1356 C 0.86587 0.14886 0.64488 0.0
C1357 C 0.84261 0.10671 0.72659 0.0
C1358 C 0.85855 0.12153 0.73393 0.0
C1359 C 0.86497 0.13565 0.70751 0.0
C1360 C 0.87085 0.12103 0.76712 0.0
C1361 C 0.83543 0.09125 0.75443 0.0
C1362 C 0.86304 0.12985 0.79861 0.0
C1363 C 0.87623 0.13206 0.82818 0.0
C1364 C 0.89742 0.12564 0.82638 0.0
C1365 C 0.90476 0.11585 0.79526 0.0
C1366 C 0.8916 0.1136 0.76593 0.0
H1367 H 0.82294 0.08056 0.7444 0.0
H1368 H 0.84901 0.08165 0.76348 0.0
H1369 H 0.8293 0.09991 0.77787 0.0
H1370 H 0.84708 0.13581 0.79978 0.0
H1371 H 0.87012 0.13969 0.85176 0.0
H1372 H 0.36128 0.86614 0.55463 0.0
H1373 H 0.36017 0.86863 0.61911 0.0
H1374 H 0.40159 0.8151 0.62756 0.0
H1375 H 0.40255 0.81227 0.56259 0.0
H1376 H 0.34945 0.84033 0.67416 0.0
H1377 H 0.43411 0.8635 0.6767 0.0
H1378 H 0.41916 0.86277 0.63597 0.0
H1379 H 0.42742 0.83869 0.65661 0.0
C1380 C 0.36988 0.85463 0.57009 0.0
C1381 C 0.38254 0.83941 0.55346 0.0
C1382 C 0.36924 0.85609 0.60699 0.0
C1383 C 0.38115 0.84233 0.62802 0.0
C1384 C 0.39269 0.82617 0.61169 0.0
H1385 H 0.36649 0.87269 0.85577 0.0
H1386 H 0.37243 0.84996 0.80415 0.0
C1387 C 0.39334 0.82469 0.57459 0.0
C1388 C 0.38247 0.84629 0.66665 0.0
H1389 H 0.41473 0.86832 0.7289 0.0
C1390 C 0.36381 0.84597 0.68654 0.0
C1391 C 0.40126 0.85376 0.68243 0.0
C1392 C 0.42166 0.85487 0.66195 0.0
C1393 C 0.36309 0.85421 0.72109 0.0
C1394 C 0.38164 0.86267 0.7362 0.0
C1395 C 0.4006 0.86172 0.71718 0.0
C1396 C 0.38094 0.87549 0.76896 0.0
C1397 C 0.34218 0.85527 0.74007 0.0
C1398 C 0.38469 0.89719 0.76656 0.0
C1399 C 0.38143 0.91018 0.79589 0.0
C1400 C 0.37435 0.9017 0.82825 0.0
C1401 C 0.3718 0.87975 0.83116 0.0
C1402 C 0.37508 0.86674 0.8017 0.0
H1403 H 0.32886 0.85058 0.72266 0.0
H1404 H 0.34245 0.84453 0.76331 0.0
H1405 H 0.33923 0.87146 0.75001 0.0
H1406 H 0.38926 0.90422 0.7415 0.0
H1407 H 0.3837 0.92697 0.79272 0.0
H1408 H 0.42549 0.88893 0.29327 0.0
H1409 H 0.40249 0.89521 0.24262 0.0
H1410 H 0.34889 0.87501 0.30409 0.0
H1411 H 0.37185 0.86846 0.35508 0.0
H1412 H 0.35288 0.8538 0.24091 0.0
H1413 H 0.35863 0.93937 0.21711 0.0
H1414 H 0.38417 0.92776 0.22242 0.0
H1415 H 0.36587 0.92747 0.25898 0.0
C1416 C 0.40876 0.88622 0.29636 0.0
C1417 C 0.40055 0.87807 0.3282 0.0
C1418 C 0.39559 0.88999 0.26741 0.0
C1419 C 0.37395 0.88583 0.26975 0.0
C1420 C 0.36553 0.87848 0.30188 0.0
H1421 H 0.31085 0.90648 0.06462 0.0
H1422 H 0.31398 0.90579 0.12945 0.0
C1423 C 0.3787 0.87476 0.33097 0.0
C1424 C 0.36086 0.88672 0.23728 0.0
H1425 H 0.35077 0.91774 0.1654 0.0
C1426 C 0.35192 0.86792 0.22477 0.0
C1427 C 0.35929 0.90519 0.21653 0.0
C1428 C 0.36732 0.92613 0.22966 0.0
C1429 C 0.3431 0.8667 0.1907 0.0
C1430 C 0.34349 0.88466 0.16858 0.0
C1431 C 0.35071 0.9039 0.18227 0.0
C1432 C 0.33943 0.88319 0.12999 0.0
C1433 C 0.33424 0.84597 0.17812 0.0
C1434 C 0.35253 0.87054 0.10895 0.0
C1435 C 0.35108 0.87123 0.07204 0.0
C1436 C 0.33665 0.88476 0.05535 0.0
C1437 C 0.32271 0.89654 0.07652 0.0
C1438 C 0.32427 0.89596 0.11359 0.0
H1439 H 0.32843 0.8364 0.2008 0.0
H1440 H 0.32115 0.84835 0.15898 0.0
H1441 H 0.34685 0.83687 0.16469 0.0
H1442 H 0.3646 0.86087 0.12103 0.0
H1443 H 0.36206 0.86192 0.0566 0.0
H1444 H 0.64074 0.36835 0.35461 0.0
H1445 H 0.6368 0.34427 0.30393 0.0
H1446 H 0.61215 0.39508 0.24052 0.0
H1447 H 0.61593 0.41914 0.2905 0.0
H1448 H 0.59659 0.33783 0.25177 0.0
H1449 H 0.67063 0.36999 0.19505 0.0
H1450 H 0.66491 0.37044 0.24209 0.0
H1451 H 0.65274 0.38921 0.21295 0.0
C1452 C 0.63411 0.37429 0.33007 0.0
C1453 C 0.62887 0.39573 0.32647 0.0
C1454 C 0.63189 0.36052 0.30124 0.0
C1455 C 0.62437 0.36805 0.26862 0.0
C1456 C 0.61809 0.38909 0.26555 0.0
H1457 H 0.57832 0.3448 0.06938 0.0
H1458 H 0.5835 0.34554 0.13315 0.0
C1459 C 0.6203 0.40281 0.29416 0.0
C1460 C 0.62451 0.35475 0.23651 0.0
H1461 H 0.64742 0.35265 0.15486 0.0
C1462 C 0.60795 0.34059 0.23076 0.0
C1463 C 0.63958 0.35814 0.20957 0.0
C1464 C 0.65811 0.37264 0.21516 0.0
C1465 C 0.60519 0.33093 0.1975 0.0
C1466 C 0.6191 0.336 0.16937 0.0
C1467 C 0.63665 0.34881 0.17625 0.0
C1468 C 0.61431 0.33097 0.13175 0.0
C1469 C 0.58702 0.31595 0.19254 0.0
C1470 C 0.62986 0.32247 0.10942 0.0
C1471 C 0.62694 0.32215 0.07258 0.0
C1472 C 0.60837 0.33017 0.05751 0.0
C1473 C 0.59244 0.33772 0.08004 0.0
C1474 C 0.5954 0.33816 0.11674 0.0
H1475 H 0.58356 0.30739 0.21761 0.0
H1476 H 0.57273 0.32502 0.18531 0.0
H1477 H 0.59025 0.30429 0.17123 0.0
H1478 H 0.64468 0.31707 0.12034 0.0
H1479 H 0.63955 0.31643 0.05578 0.0
H1480 H 0.15219 0.57442 0.06164 0.0
H1481 H 0.14798 0.57865 0.12532 0.0
H1482 H 0.17389 0.64125 0.11885 0.0
H1483 H 0.17816 0.63712 0.05442 0.0
H1484 H 0.17258 0.58986 0.18544 0.0
H1485 H 0.11262 0.65029 0.14967 0.0
H1486 H 0.12445 0.63331 0.11692 0.0
H1487 H 0.13898 0.6552 0.13458 0.0
C1488 C 0.1579 0.58875 0.07372 0.0
C1489 C 0.16571 0.60539 0.05294 0.0
C1490 C 0.15533 0.59119 0.11027 0.0
C1491 C 0.16038 0.61034 0.12669 0.0
C1492 C 0.16967 0.62643 0.10654 0.0
H1493 H 0.12473 0.6337 0.3499 0.0
H1494 H 0.14707 0.62915 0.29732 0.0
C1495 C 0.17214 0.62404 0.06983 0.0
C1496 C 0.15297 0.61422 0.16337 0.0
H1497 H 0.11498 0.64062 0.20938 0.0
C1498 C 0.16025 0.6012 0.19093 0.0
C1499 C 0.13666 0.62884 0.17019 0.0
C1500 C 0.12754 0.64263 0.14133 0.0
C1501 C 0.15114 0.602 0.22495 0.0
C1502 C 0.13447 0.6162 0.23131 0.0
C1503 C 0.1278 0.62977 0.2042 0.0
C1504 C 0.12227 0.61613 0.26469 0.0
C1505 C 0.15858 0.58702 0.25335 0.0
C1506 C 0.1011 0.60995 0.26376 0.0
C1507 C 0.08831 0.6126 0.29349 0.0
C1508 C 0.09645 0.62156 0.32476 0.0
C1509 C 0.11799 0.62672 0.32624 0.0
C1510 C 0.1308 0.6241 0.2963 0.0
H1511 H 0.17026 0.57552 0.24307 0.0
H1512 H 0.16596 0.59609 0.27526 0.0
H1513 H 0.145 0.57829 0.26466 0.0
H1514 H 0.09427 0.60376 0.23953 0.0
H1515 H 0.07185 0.60832 0.29148 0.0
H1516 H 0.8684 0.13039 0.35681 0.0
H1517 H 0.87536 0.15469 0.30757 0.0
H1518 H 0.89405 0.10241 0.2416 0.0
H1519 H 0.88765 0.07822 0.29041 0.0
H1520 H 0.91907 0.13801 0.23206 0.0
H1521 H 0.83345 0.15696 0.22494 0.0
H1522 H 0.84701 0.16236 0.26586 0.0
H1523 H 0.84325 0.13562 0.25182 0.0
C1524 C 0.87434 0.12413 0.33199 0.0
C1525 C 0.87717 0.10231 0.32738 0.0
C1526 C 0.8782 0.13803 0.30387 0.0
C1527 C 0.88486 0.13029 0.2708 0.0
C1528 C 0.88887 0.10872 0.2669 0.0
H1529 H 0.8644 0.13669 0.0595 0.0
H1530 H 0.86399 0.1363 0.1241 0.0
C1531 C 0.8851 0.09487 0.29485 0.0
C1532 C 0.88599 0.14389 0.23893 0.0
H1533 H 0.85422 0.16615 0.17626 0.0
C1534 C 0.90505 0.14472 0.22015 0.0
C1535 C 0.8676 0.15258 0.22362 0.0
C1536 C 0.8466 0.15183 0.24235 0.0
C1537 C 0.90586 0.15232 0.18518 0.0
C1538 C 0.88715 0.15963 0.16898 0.0
C1539 C 0.8685 0.16054 0.18889 0.0
C1540 C 0.88568 0.16234 0.13001 0.0
C1541 C 0.92628 0.15074 0.16486 0.0
C1542 C 0.89749 0.17759 0.11186 0.0
C1543 C 0.89778 0.17782 0.07465 0.0
C1544 C 0.88632 0.16277 0.05523 0.0
C1545 C 0.87351 0.14843 0.07363 0.0
C1546 C 0.87325 0.14819 0.1106 0.0
H1547 H 0.93873 0.14248 0.18021 0.0
H1548 H 0.92382 0.14221 0.13943 0.0
H1549 H 0.93204 0.16678 0.15844 0.0
H1550 H 0.90681 0.18896 0.12641 0.0
H1551 H 0.90717 0.18958 0.06123 0.0
H1552 H 0.41557 0.6073 0.20217 0.0
H1553 H 0.39075 0.60203 0.2505 0.0
H1554 H 0.34174 0.63158 0.18886 0.0
H1555 H 0.36671 0.63714 0.14004 0.0
H1556 H 0.34651 0.64936 0.25451 0.0
H1557 H 0.34135 0.5633 0.26941 0.0
H1558 H 0.36836 0.57115 0.26575 0.0
H1559 H 0.35067 0.57559 0.22904 0.0
C1560 C 0.39942 0.61233 0.19849 0.0
C1561 C 0.39315 0.62275 0.16733 0.0
C1562 C 0.38517 0.6091 0.22606 0.0
C1563 C 0.36431 0.61611 0.22307 0.0
C1564 C 0.35772 0.62584 0.1915 0.0
H1565 H 0.30824 0.59432 0.43258 0.0
H1566 H 0.30702 0.5971 0.3677 0.0
C1567 C 0.372 0.62899 0.16368 0.0
C1568 C 0.35062 0.61566 0.25487 0.0
H1569 H 0.3384 0.58376 0.32459 0.0
C1570 C 0.34411 0.63494 0.2694 0.0
C1571 C 0.34699 0.59686 0.27395 0.0
C1572 C 0.35201 0.57555 0.25846 0.0
C1573 C 0.33626 0.63609 0.30417 0.0
C1574 C 0.3353 0.61757 0.32491 0.0
C1575 C 0.33951 0.59805 0.30894 0.0
C1576 C 0.33355 0.61834 0.36411 0.0
C1577 C 0.33013 0.65729 0.31895 0.0
C1578 C 0.3487 0.62952 0.38359 0.0
C1579 C 0.34964 0.62769 0.42044 0.0
C1580 C 0.33565 0.61438 0.43858 0.0
C1581 C 0.31974 0.60407 0.41929 0.0
C1582 C 0.31882 0.60587 0.38226 0.0
H1583 H 0.32378 0.66762 0.29768 0.0
H1584 H 0.31817 0.6558 0.34033 0.0
H1585 H 0.3443 0.66511 0.33005 0.0
H1586 H 0.36056 0.63882 0.37016 0.0
H1587 H 0.36209 0.63585 0.43448 0.0
H1588 H 0.87067 0.3693 0.14001 0.0
H1589 H 0.87634 0.34531 0.19008 0.0
H1590 H 0.89339 0.39795 0.25648 0.0
H1591 H 0.8882 0.42189 0.20682 0.0
H1592 H 0.9184 0.36217 0.26752 0.0
H1593 H 0.83263 0.3436 0.27052 0.0
H1594 H 0.84676 0.33821 0.23014 0.0
H1595 H 0.84303 0.36494 0.24425 0.0
C1596 C 0.87596 0.37572 0.16513 0.0
C1597 C 0.8787 0.39757 0.16954 0.0
C1598 C 0.87909 0.36199 0.19371 0.0
C1599 C 0.88492 0.36992 0.22707 0.0
C1600 C 0.88883 0.39152 0.23093 0.0
H1601 H 0.86216 0.36092 0.43857 0.0
H1602 H 0.86197 0.36231 0.374 0.0
C1603 C 0.88577 0.40521 0.2025 0.0
C1604 C 0.88543 0.35641 0.25906 0.0
H1605 H 0.85267 0.33355 0.31966 0.0
C1606 C 0.90418 0.35539 0.27865 0.0
C1607 C 0.86678 0.34766 0.27335 0.0
C1608 C 0.84608 0.34867 0.25372 0.0
C1609 C 0.90446 0.34735 0.31335 0.0
C1610 C 0.88552 0.33981 0.32847 0.0
C1611 C 0.86714 0.33929 0.30783 0.0
C1612 C 0.88359 0.3363 0.36718 0.0
C1613 C 0.9246 0.34862 0.33456 0.0
C1614 C 0.89519 0.32066 0.38475 0.0
C1615 C 0.89534 0.31984 0.42193 0.0
C1616 C 0.88395 0.33469 0.44189 0.0
C1617 C 0.87121 0.34932 0.42402 0.0
C1618 C 0.87109 0.35015 0.38706 0.0
H1619 H 0.93721 0.3572 0.32015 0.0
H1620 H 0.92175 0.35665 0.36032 0.0
H1621 H 0.93033 0.33248 0.34032 0.0
H1622 H 0.90455 0.30951 0.36979 0.0
H1623 H 0.90465 0.30785 0.43491 0.0
H1624 H 0.08129 0.88987 0.20791 0.0
H1625 H 0.10559 0.89527 0.2569 0.0
H1626 H 0.15597 0.86828 0.19501 0.0
H1627 H 0.13151 0.86255 0.14553 0.0
H1628 H 0.15167 0.84945 0.25939 0.0
H1629 H 0.15327 0.93529 0.27897 0.0
H1630 H 0.12658 0.92654 0.27463 0.0
H1631 H 0.14454 0.92342 0.23788 0.0
C1632 C 0.09761 0.88543 0.20433 0.0
C1633 C 0.10442 0.87565 0.17288 0.0
C1634 C 0.11157 0.88875 0.23229 0.0
C1635 C 0.13268 0.8825 0.22941 0.0
C1636 C 0.13978 0.87343 0.19759 0.0
H1637 H 0.18645 0.9016 0.44174 0.0
H1638 H 0.18819 0.90063 0.37674 0.0
C1639 C 0.12579 0.87017 0.16939 0.0
C1640 C 0.14614 0.88292 0.2615 0.0
H1641 H 0.1565 0.91393 0.33326 0.0
C1642 C 0.15336 0.86367 0.27511 0.0
C1643 C 0.14886 0.90149 0.28169 0.0
C1644 C 0.1431 0.92286 0.26727 0.0
C1645 C 0.16098 0.86216 0.30998 0.0
C1646 C 0.16099 0.88029 0.33176 0.0
C1647 C 0.15611 0.89992 0.31678 0.0
C1648 C 0.16231 0.87878 0.37093 0.0
C1649 C 0.16784 0.84096 0.32375 0.0
C1650 C 0.14731 0.86671 0.38917 0.0
C1651 C 0.14603 0.86754 0.42607 0.0
C1652 C 0.15954 0.88068 0.44559 0.0
C1653 C 0.17528 0.89196 0.42747 0.0
C1654 C 0.17651 0.89119 0.39035 0.0
H1655 H 0.17472 0.83128 0.30208 0.0
H1656 H 0.17959 0.84252 0.34543 0.0
H1657 H 0.15392 0.8324 0.33418 0.0
H1658 H 0.13585 0.85742 0.37475 0.0
H1659 H 0.13372 0.85864 0.43914 0.0
H1660 H 0.62487 0.12988 0.13919 0.0
H1661 H 0.61955 0.15289 0.19067 0.0
H1662 H 0.60095 0.09927 0.25351 0.0
H1663 H 0.60574 0.07632 0.20241 0.0
H1664 H 0.5772 0.13521 0.26766 0.0
H1665 H 0.66339 0.15163 0.27049 0.0
H1666 H 0.64932 0.15849 0.23072 0.0
H1667 H 0.65228 0.13131 0.24278 0.0
C1668 C 0.61927 0.12305 0.1638 0.0
C1669 C 0.61603 0.10119 0.16682 0.0
C1670 C 0.61635 0.13622 0.19321 0.0
C1671 C 0.61026 0.1277 0.22603 0.0
C1672 C 0.60574 0.10615 0.22843 0.0
H1673 H 0.63502 0.13417 0.43845 0.0
H1674 H 0.63449 0.13293 0.37386 0.0
C1675 C 0.60857 0.09302 0.19916 0.0
C1676 C 0.61023 0.14048 0.25892 0.0
H1677 H 0.64375 0.16167 0.32009 0.0
C1678 C 0.59161 0.14149 0.2789 0.0
C1679 C 0.62914 0.14854 0.2734 0.0
C1680 C 0.64974 0.1474 0.25348 0.0
C1681 C 0.59167 0.14895 0.31399 0.0
C1682 C 0.61083 0.15593 0.32914 0.0
C1683 C 0.62911 0.15637 0.30825 0.0
C1684 C 0.61299 0.15912 0.36791 0.0
C1685 C 0.57163 0.14771 0.33545 0.0
C1686 C 0.60167 0.17478 0.38599 0.0
C1687 C 0.60193 0.1755 0.42318 0.0
C1688 C 0.61348 0.16056 0.44266 0.0
C1689 C 0.62588 0.14585 0.42427 0.0
C1690 C 0.62558 0.1451 0.3873 0.0
H1691 H 0.55887 0.13934 0.32103 0.0
H1692 H 0.57451 0.13949 0.36103 0.0
H1693 H 0.56606 0.16386 0.34158 0.0
H1694 H 0.59226 0.18606 0.37143 0.0
H1695 H 0.59284 0.18752 0.43656 0.0
H1696 H 0.58806 0.00752 0.98231 0.0
H1697 H 0.55244 0.99453 0.97012 0.0
H1698 H 0.52633 0.04926 0.02177 0.0
H1699 H 0.56196 0.06207 0.03431 0.0
H1700 H 0.51388 0.01058 0.05133 0.0
H1701 H 0.50313 0.01086 0.90486 0.0
H1702 H 0.52727 -0.00088 0.91991 0.0
H1703 H 0.52279 0.02674 0.92688 0.0
C1704 C 0.57466 0.01716 0.98955 0.0
C1705 C 0.57756 0.03587 0.0087 0.0
C1706 C 0.55437 0.00973 0.98274 0.0
C1707 C 0.53679 0.021 0.99494 0.0
C1708 C 0.53972 0.04042 0.012 0.0
H1709 H 0.40386 0.99481 0.01126 0.0
H1710 H 0.43966 0.00781 0.02169 0.0
C1711 C 0.56 0.04783 0.0188 0.0
C1712 C 0.51567 0.01126 0.99416 0.0
H1713 H 0.47793 0.99189 0.93873 0.0
C1714 C 0.50592 0.00661 0.02672 0.0
C1715 C 0.50553 0.0059 0.96204 0.0
C1716 C 0.51509 0.01104 0.92639 0.0
C1717 C 0.48632 0.99651 0.02803 0.0
C1718 C 0.47611 0.99124 0.99591 0.0
C1719 C 0.48589 0.99585 0.96334 0.0
C1720 C 0.4549 0.98167 0.9952 0.0
C1721 C 0.47689 0.99122 0.06373 0.0
C1722 C 0.45167 0.96249 0.97753 0.0
C1723 C 0.43128 0.9551 0.97162 0.0
C1724 C 0.4139 0.96682 0.98331 0.0
C1725 C 0.41713 0.98536 0.00277 0.0
C1726 C 0.43753 0.99278 0.00862 0.0
H1727 H 0.48904 0.99085 0.08495 0.0
H1728 H 0.46515 0.00342 0.07091 0.0
H1729 H 0.46877 0.97575 0.063 0.0
H1730 H 0.46488 0.95376 0.96682 0.0
H1731 H 0.42904 0.94101 0.95584 0.0
H1732 H 0.50431 0.4049 0.01451 0.0
H1733 H 0.4917 0.44063 0.02734 0.0
H1734 H 0.54757 0.4664 0.97887 0.0
H1735 H 0.55997 0.43071 0.96554 0.0
H1736 H 0.50839 0.47761 0.06179 0.0
H1737 H 0.49818 0.48723 0.91598 0.0
H1738 H 0.50301 0.46199 0.93643 0.0
H1739 H 0.5243 0.4802 0.9299 0.0
C1740 C 0.5142 0.41823 0.00793 0.0
C1741 C 0.53311 0.41525 0.98938 0.0
C1742 C 0.50696 0.43856 0.01497 0.0
C1743 C 0.51853 0.45606 0.00334 0.0
C1744 C 0.5383 0.45304 0.98754 0.0
H1745 H 0.49508 0.58971 0.00028 0.0
H1746 H 0.5083 0.55402 0.98894 0.0
C1747 C 0.54551 0.43272 0.98041 0.0
C1748 C 0.50901 0.47726 0.00465 0.0
H1749 H 0.49073 0.51696 0.95176 0.0
C1750 C 0.50448 0.48622 0.0378 0.0
C1751 C 0.50379 0.48831 0.97317 0.0
C1752 C 0.50737 0.47892 0.93681 0.0
C1753 C 0.49525 0.50622 0.04035 0.0
C1754 C 0.49015 0.51729 0.00888 0.0
C1755 C 0.49464 0.50833 0.97574 0.0
C1756 C 0.48071 0.5385 0.01012 0.0
C1757 C 0.49139 0.51557 0.07664 0.0
C1758 C 0.46044 0.54144 0.02408 0.0
C1759 C 0.45284 0.56174 0.03018 0.0
C1760 C 0.46539 0.57926 0.02215 0.0
C1761 C 0.48506 0.57634 0.00599 0.0
C1762 C 0.49264 0.55604 -0.00019 0.0
H1763 H 0.49997 0.50692 0.09781 0.0
H1764 H 0.49626 0.53236 0.07733 0.0
H1765 H 0.47432 0.51485 0.08272 0.0
H1766 H 0.45097 0.52803 0.03186 0.0
H1767 H 0.4378 0.56372 0.04335 0.0
H1768 H 0.06972 0.55647 0.955 0.0
H1769 H 0.03396 0.54456 0.96894 0.0
H1770 H 0.05937 0.48878 0.01829 0.0
H1771 H 0.09513 0.50096 0.00496 0.0
H1772 H 0.01843 0.50758 0.94067 0.0
H1773 H 0.01324 0.50604 0.08783 0.0
H1774 H 0.0332 0.52078 0.06442 0.0
H1775 H 0.03598 0.49284 0.07033 0.0
C1776 C 0.06761 0.54214 0.97019 0.0
C1777 C 0.08501 0.52975 0.97958 0.0
C1778 C 0.04724 0.53525 0.97779 0.0
C1779 C 0.04403 0.51587 0.99483 0.0
C1780 C 0.0615 0.50398 0.00579 0.0
H1781 H 0.93526 0.43825 0.03948 0.0
H1782 H 0.97097 0.45052 0.02586 0.0
C1783 C 0.08188 0.51092 -0.00173 0.0
C1784 C 0.02256 0.507 -0.00249 0.0
H1785 H 0.98629 0.48803 0.05611 0.0
C1786 C 0.01131 0.50344 0.96593 0.0
C1787 C 0.01344 0.50147 0.03044 0.0
C1788 C 0.02449 0.50563 0.06523 0.0
C1789 C 0.99126 0.49422 0.96637 0.0
C1790 C 0.98218 0.48864 -0.00071 0.0
C1791 C 0.99341 0.4922 0.03087 0.0
C1792 C 0.96074 0.47974 0.00191 0.0
C1793 C 0.98012 0.49016 0.93164 0.0
C1794 C 0.94323 0.49185 0.99197 0.0
C1795 C 0.92289 0.48477 -0.00058 0.0
C1796 C 0.91986 0.46552 0.0169 0.0
C1797 C 0.9373 0.45292 0.02523 0.0
C1798 C 0.95763 0.46001 0.01781 0.0
H1799 H 0.99122 0.49026 0.90883 0.0
H1800 H 0.97178 0.4748 0.9322 0.0
H1801 H 0.96826 0.5027 0.92715 0.0
H1802 H 0.94531 0.5073 0.98031 0.0
H1803 H 0.9096 0.49487 0.99356 0.0
H1804 H 0.0025 0.90697 0.00571 0.0
H1805 H 0.98895 0.94205 0.99116 0.0
H1806 H 0.04814 0.96951 0.02287 0.0
H1807 H 0.0616 0.93439 0.03775 0.0
H1808 H 0.01247 0.98556 0.05869 0.0
H1809 H 0.00057 0.98553 0.9125 0.0
H1810 H 0.98985 0.96306 0.93513 0.0
H1811 H 0.01784 0.96712 0.93459 0.0
C1812 C 0.01283 0.92047 0.00814 0.0
C1813 C 0.03315 0.91812 0.02212 0.0
C1814 C 0.0051 0.94045 -4e-05 0.0
C1815 C 0.01761 0.95833 0.00571 0.0
C1816 C 0.03832 0.95587 0.01802 0.0
H1817 H 0.99558 0.09216 -0.0001 0.0
H1818 H 0.00844 0.05688 0.01463 0.0
C1819 C 0.04607 0.93586 0.02612 0.0
C1820 C 0.00828 0.97957 0.00279 0.0
H1821 H 0.98494 0.01356 0.94483 0.0
C1822 C 0.00656 0.99177 0.03377 0.0
C1823 C 0.0004 0.98746 0.97034 0.0
C1824 C 0.00238 0.97522 0.93615 0.0
C1825 C 0.99692 0.01163 0.03324 0.0
C1826 C 0.98911 0.01957 0.00075 0.0
C1827 C 0.9908 0.00734 0.96978 0.0
C1828 C 0.98003 0.04094 -0.0023 0.0
C1829 C 0.99483 0.02375 0.06754 0.0
C1830 C 0.95968 0.04369 0.98391 0.0
C1831 C 0.95236 0.06382 0.97554 0.0
C1832 C 0.96533 0.08141 0.98084 0.0
C1833 C 0.9852 0.07878 0.99641 0.0
C1834 C 0.99254 0.05867 0.00474 0.0
H1835 H 0.99588 0.01322 0.09104 0.0
H1836 H 0.00781 0.03539 0.06938 0.0
H1837 H 0.97966 0.03242 0.06863 0.0
H1838 H 0.94986 0.03018 0.97807 0.0
H1839 H 0.93718 0.06551 0.96274 0.0
H1840 H 0.40699 0.50099 0.47743 0.0
H1841 H 0.44306 0.4887 0.4664 0.0
H1842 H 0.46745 0.54394 0.51883 0.0
H1843 H 0.43143 0.556 0.5304 0.0
H1844 H 0.47996 0.50625 0.43419 0.0
H1845 H 0.4887 0.49409 0.57969 0.0
H1846 H 0.46355 0.49894 0.55894 0.0
H1847 H 0.48145 0.52034 0.56682 0.0
C1848 C 0.42012 0.51077 0.48546 0.0
C1849 C 0.41663 0.52942 0.50451 0.0
C1850 C 0.44064 0.50372 0.47941 0.0
C1851 C 0.45782 0.51522 0.49251 0.0
C1852 C 0.45434 0.5347 0.50908 0.0
H1853 H 0.5919 0.49454 0.49699 0.0
H1854 H 0.55586 0.50682 0.50826 0.0
C1855 C 0.43384 0.54171 0.51522 0.0
C1856 C 0.47919 0.50605 0.49133 0.0
H1857 H 0.5189 0.48787 0.5443 0.0
C1858 C 0.48848 0.50217 0.4582 0.0
C1859 C 0.49012 0.50062 0.52282 0.0
C1860 C 0.48042 0.50351 0.55911 0.0
C1861 C 0.50869 0.4934 0.4557 0.0
C1862 C 0.51964 0.4881 0.48718 0.0
C1863 C 0.51036 0.49193 0.5203 0.0
C1864 C 0.54107 0.47913 0.48597 0.0
C1865 C 0.51837 0.49025 0.41946 0.0
C1866 C 0.54452 0.45911 0.47135 0.0
C1867 C 0.56502 0.45204 0.46529 0.0
C1868 C 0.58222 0.46488 0.47399 0.0
C1869 C 0.57878 0.48429 0.49075 0.0
C1870 C 0.55828 0.49134 0.49691 0.0
H1871 H 0.50965 0.4989 0.39845 0.0
H1872 H 0.53503 0.49554 0.4193 0.0
H1873 H 0.51812 0.47325 0.41272 0.0
H1874 H 0.53137 0.44944 0.46306 0.0
H1875 H 0.5674 0.43721 0.45165 0.0
H1876 H 0.05703 0.5643 0.45436 0.0
H1877 H 0.04405 0.52856 0.4656 0.0
H1878 H 0.98922 0.55422 0.51753 0.0
H1879 H 0.00218 0.59 0.50606 0.0
H1880 H 0.02991 0.50567 0.52766 0.0
H1881 H 0.96622 0.52159 0.42995 0.0
H1882 H 0.98897 0.5384 0.43456 0.0
H1883 H 0.96788 0.53989 0.46625 0.0
C1884 C 0.04264 0.56221 0.46939 0.0
C1885 C 0.03062 0.57969 0.47972 0.0
C1886 C 0.03516 0.54187 0.47551 0.0
C1887 C 0.01551 0.53885 0.49173 0.0
C1888 C 0.00428 0.55631 0.50449 0.0
H1889 H 0.93823 0.43065 0.53445 0.0
H1890 H 0.95127 0.46619 0.5218 0.0
C1891 C 0.01177 0.57665 0.49838 0.0
C1892 C 0.00603 0.51763 0.49255 0.0
H1893 H 0.96536 0.48858 0.45909 0.0
C1894 C 0.01584 0.50188 0.51265 0.0
C1895 C 0.98775 0.5128 0.47265 0.0
C1896 C 0.97714 0.52897 0.44936 0.0
C1897 C 0.00755 0.48144 0.51405 0.0
C1898 C 0.98924 0.47662 0.49421 0.0
C1899 C 0.97946 0.49236 0.47405 0.0
C1900 C 0.97959 0.45548 0.49547 0.0
C1901 C 0.01814 0.46528 0.5374 0.0
C1902 C 0.99066 0.43785 0.48301 0.0
C1903 C 0.98313 0.41761 0.48993 0.0
C1904 C 0.96441 0.41485 0.50911 0.0
C1905 C 0.95251 0.4325 0.51902 0.0
C1906 C 0.96003 0.45273 0.5121 0.0
H1907 H 0.0292 0.47266 0.55659 0.0
H1908 H 0.00629 0.45602 0.55245 0.0
H1909 H 0.02723 0.45421 0.52053 0.0
H1910 H 0.00565 0.43973 0.46969 0.0
H1911 H 0.99264 0.40414 0.48257 0.0
H1912 H 0.09002 0.99357 0.50151 0.0
H1913 H 0.05501 0.00751 0.48721 0.0
H1914 H 0.02685 0.94935 0.52236 0.0
H1915 H 0.06189 0.93535 0.53628 0.0
H1916 H 0.00729 0.96778 0.46122 0.0
H1917 H 0.01755 0.02459 0.57224 0.0
H1918 H 0.0377 0.02555 0.53878 0.0
H1919 H 0.03484 0.00238 0.5657 0.0
C1920 C 0.07636 0.98356 0.50486 0.0
C1921 C 0.07848 0.96338 0.51953 0.0
C1922 C 0.05642 0.99158 0.49717 0.0
C1923 C 0.03839 0.97959 0.50449 0.0
C1924 C 0.04061 0.95884 0.51668 0.0
H1925 H 0.90374 0.00229 0.50057 0.0
H1926 H 0.9389 0.98862 0.51472 0.0
C1927 C 0.06057 0.95079 0.52429 0.0
C1928 C 0.01725 0.98921 0.50216 0.0
H1929 H 0.98641 0.02781 0.53806 0.0
C1930 C 0.00268 0.98086 0.47804 0.0
C1931 C 0.01132 0.0062 0.52439 0.0
C1932 C 0.02607 0.01513 0.55199 0.0
C1933 C 0.98238 0.98935 0.475 0.0
C1934 C 0.97648 0.00637 0.49715 0.0
C1935 C 0.99104 0.01472 0.52128 0.0
C1936 C 0.95536 0.01598 0.49474 0.0
C1937 C 0.96751 0.98035 0.44765 0.0
C1938 C 0.95308 0.03634 0.48084 0.0
C1939 C 0.93306 0.0442 0.47313 0.0
C1940 C 0.91517 0.03185 0.4796 0.0
C1941 C 0.91739 0.01214 0.49594 0.0
C1942 C 0.9374 0.00427 0.50359 0.0
H1943 H 0.97585 0.97039 0.42788 0.0
H1944 H 0.95557 0.97044 0.46119 0.0
H1945 H 0.95909 0.99311 0.43336 0.0
H1946 H 0.96681 0.04559 0.47392 0.0
H1947 H 0.93166 0.05925 0.45982 0.0
H1948 H 0.44016 0.93175 0.4575 0.0
H1949 H 0.45366 0.96735 0.46821 0.0
H1950 H 0.50723 0.94126 0.52309 0.0
H1951 H 0.49372 0.9056 0.51231 0.0
H1952 H 0.46803 0.99065 0.53095 0.0
H1953 H 0.53134 0.97216 0.4337 0.0
H1954 H 0.50803 0.95615 0.43837 0.0
H1955 H 0.52888 0.95422 0.4704 0.0
C1956 C 0.45435 0.93373 0.47312 0.0
C1957 C 0.46589 0.91614 0.48444 0.0
C1958 C 0.46213 0.95399 0.47893 0.0
C1959 C 0.4816 0.95681 0.49582 0.0
C1960 C 0.4923 0.9393 0.50961 0.0
H1961 H 0.56109 0.06372 0.53537 0.0
H1962 H 0.54751 0.02834 0.52309 0.0
C1963 C 0.4845 0.91904 0.50385 0.0
C1964 C 0.49155 0.9778 0.49604 0.0
H1965 H 0.53273 0.00558 0.46133 0.0
C1966 C 0.48214 0.99397 0.51572 0.0
C1967 C 0.50988 0.982 0.47587 0.0
C1968 C 0.5201 0.9653 0.45311 0.0
C1969 C 0.49088 0.01424 0.51642 0.0
C1970 C 0.50922 0.01844 0.49624 0.0
C1971 C 0.51861 0.00227 0.47652 0.0
C1972 C 0.51932 0.03938 0.49678 0.0
C1973 C 0.48074 0.03086 0.53944 0.0
C1974 C 0.50855 0.05713 0.48407 0.0
C1975 C 0.51638 0.07727 0.49079 0.0
C1976 C 0.53512 0.07981 0.51 0.0
C1977 C 0.5468 0.06203 0.51991 0.0
C1978 C 0.53897 0.04189 0.51322 0.0
H1979 H 0.4696 0.02393 0.55895 0.0
H1980 H 0.49284 0.04001 0.5541 0.0
H1981 H 0.47183 0.04196 0.52235 0.0
H1982 H 0.49349 0.05543 0.47088 0.0
H1983 H 0.50703 0.09085 0.48345 0.0
loop_
_geom_bond_atom_site_label_1
_geom_bond_atom_site_label_2
_geom_bond_distance
_geom_bond_site_symmetry_2
_ccdc_geom_bond_type
Co0 O3 1.970 . S
Co0 N17 1.989 . S
Co0 O25 1.967 . S
Co0 O32 1.920 . S
Co1 O4 1.966 . S
Co1 N10 2.022 . S
Co1 N18 1.993 . S
Co1 O26 1.941 . S
C2 O3 1.258 . S
C2 O4 1.263 . S
O3 Co0 1.970 . S
O3 C2 1.258 . S
O4 Co1 1.966 . S
O4 C2 1.263 . S
C5 O6 1.235 . S
C5 O32 1.289 1_565 S
O6 C5 1.235 . S
C7 C9 1.400 1_554 S
C7 N10 1.351 . S
C7 C12 1.501 . S
C8 C9 1.387 1_554 S
C8 N11 1.341 . S
C9 C7 1.400 1_556 S
C9 C8 1.387 1_556 S
N10 Co1 2.022 . S
N10 C7 1.351 . S
N10 N11 1.365 . S
N11 C8 1.341 . S
N11 N10 1.365 . S
N11 H31 0.862 . S
C12 C7 1.501 . S
C12 H13 0.961 . S
C12 H14 0.961 . S
C12 H15 0.960 . S
H13 C12 0.961 . S
H14 C12 0.961 . S
H15 C12 0.960 . S
C16 N17 1.342 . S
C16 C20 1.401 . S
C16 C21 1.499 . S
N17 Co0 1.989 . S
N17 C16 1.342 . S
N17 N18 1.388 . S
N18 Co1 1.993 . S
N18 N17 1.388 . S
N18 C19 1.346 . S
C19 N18 1.346 . S
C19 C20 1.396 . S
C19 C29 1.510 . S
C20 C16 1.401 . S
C20 C19 1.396 . S
C21 C16 1.499 . S
C21 H22 0.959 . S
C21 H23 0.960 1_545 S
C21 H24 0.961 . S
H22 C21 0.959 . S
H23 C21 0.960 1_565 S
H24 C21 0.961 . S
O25 Co0 1.967 . S
O25 C33 1.258 . S
O26 Co1 1.941 . S
O26 C33 1.266 . S
H27 C29 0.959 . S
H28 C29 0.961 1_556 S
C29 C19 1.510 . S
C29 H27 0.959 . S
C29 H28 0.961 1_554 S
C29 H30 0.960 . S
H30 C29 0.960 . S
H31 N11 0.862 . S
O32 Co0 1.920 . S
O32 C5 1.289 1_545 S
C33 O25 1.258 . S
C33 O26 1.266 . S
Co34 O37 1.970 . S
Co34 N51 1.989 . S
Co34 O59 1.967 . S
Co34 O66 1.920 . S
Co35 O38 1.966 . S
Co35 N44 2.022 . S
Co35 N52 1.993 . S
Co35 O60 1.941 . S
C36 O37 1.258 . S
C36 O38 1.263 . S
O37 Co34 1.970 . S
O37 C36 1.258 . S
O38 Co35 1.966 . S
O38 C36 1.263 . S
C39 O40 1.235 . S
C39 O66 1.289 . S
O40 C39 1.235 . S
C41 C43 1.400 1_554 S
C41 N44 1.351 . S
C41 C46 1.501 . S
C42 C43 1.387 1_554 S
C42 N45 1.341 . S
C43 C41 1.400 1_556 S
C43 C42 1.387 1_556 S
N44 Co35 2.022 . S
N44 C41 1.351 . S
N44 N45 1.365 . S
N45 C42 1.341 . S
N45 N44 1.365 . S
N45 H65 0.862 . S
C46 C41 1.501 . S
C46 H47 0.961 . S
C46 H48 0.961 . S
C46 H49 0.960 . S
H47 C46 0.961 . S
H48 C46 0.961 . S
H49 C46 0.960 . S
C50 N51 1.342 . S
C50 C54 1.401 . S
C50 C55 1.499 . S
N51 Co34 1.989 . S
N51 C50 1.342 . S
N51 N52 1.388 . S
N52 Co35 1.993 . S
N52 N51 1.388 . S
N52 C53 1.346 . S
C53 N52 1.346 . S
C53 C54 1.396 . S
C53 C63 1.510 . S
C54 C50 1.401 . S
C54 C53 1.396 . S
C55 C50 1.499 . S
C55 H56 0.959 . S
C55 H57 0.960 . S
C55 H58 0.961 . S
H56 C55 0.959 . S
H57 C55 0.960 . S
H58 C55 0.961 . S
O59 Co34 1.967 . S
O59 C67 1.258 . S
O60 Co35 1.941 . S
O60 C67 1.266 . S
H61 C63 0.959 . S
H62 C63 0.961 1_556 S
C63 C53 1.510 . S
C63 H61 0.959 . S
C63 H62 0.961 1_554 S
C63 H64 0.960 . S
H64 C63 0.960 . S
H65 N45 0.862 . S
O66 Co34 1.920 . S
O66 C39 1.289 . S
C67 O59 1.258 . S
C67 O60 1.266 . S
Co68 O71 1.970 . S
Co68 N85 1.989 . S
Co68 O93 1.967 . S
Co68 O100 1.920 . S
Co69 O72 1.966 . S
Co69 N78 2.022 . S
Co69 N86 1.993 . S
Co69 O94 1.941 . S
C70 O71 1.258 . S
C70 O72 1.263 . S
O71 Co68 1.970 . S
O71 C70 1.258 . S
O72 Co69 1.966 . S
O72 C70 1.263 . S
C73 O74 1.235 . S
C73 O100 1.289 . S
O74 C73 1.235 . S
C75 C77 1.400 1_554 S
C75 N78 1.351 . S
C75 C80 1.501 . S
C76 C77 1.387 1_554 S
C76 N79 1.341 . S
C77 C75 1.400 1_556 S
C77 C76 1.387 1_556 S
N78 Co69 2.022 . S
N78 C75 1.351 . S
N78 N79 1.365 . S
N79 C76 1.341 . S
N79 N78 1.365 . S
N79 H99 0.862 . S
C80 C75 1.501 . S
C80 H81 0.961 . S
C80 H82 0.961 . S
C80 H83 0.960 . S
H81 C80 0.961 . S
H82 C80 0.961 . S
H83 C80 0.960 . S
C84 N85 1.342 . S
C84 C88 1.401 . S
C84 C89 1.499 . S
N85 Co68 1.989 . S
N85 C84 1.342 . S
N85 N86 1.388 . S
N86 Co69 1.993 . S
N86 N85 1.388 . S
N86 C87 1.346 . S
C87 N86 1.346 . S
C87 C88 1.396 . S
C87 C97 1.510 . S
C88 C84 1.401 . S
C88 C87 1.396 . S
C89 C84 1.499 . S
C89 H90 0.959 . S
C89 H91 0.960 . S
C89 H92 0.961 . S
H90 C89 0.959 . S
H91 C89 0.960 . S
H92 C89 0.961 . S
O93 Co68 1.967 . S
O93 C101 1.258 . S
O94 Co69 1.941 . S
O94 C101 1.266 . S
H95 C97 0.959 . S
H96 C97 0.961 1_556 S
C97 C87 1.510 . S
C97 H95 0.959 . S
C97 H96 0.961 1_554 S
C97 H98 0.960 . S
H98 C97 0.960 . S
H99 N79 0.862 . S
O100 Co68 1.920 . S
O100 C73 1.289 . S
C101 O93 1.258 . S
C101 O94 1.266 . S
Co102 O105 1.970 . S
Co102 N119 1.989 . S
Co102 O127 1.967 . S
Co102 O134 1.920 . S
Co103 O106 1.966 . S
Co103 N112 2.022 . S
Co103 N120 1.993 . S
Co103 O128 1.941 . S
C104 O105 1.258 . S
C104 O106 1.263 . S
O105 Co102 1.970 . S
O105 C104 1.258 . S
O106 Co103 1.966 . S
O106 C104 1.263 . S
C107 O108 1.235 . S
C107 O134 1.289 1_655 S
O108 C107 1.235 . S
C109 C111 1.400 1_554 S
C109 N112 1.351 . S
C109 C114 1.501 . S
C110 C111 1.387 1_554 S
C110 N113 1.341 . S
C111 C109 1.400 1_556 S
C111 C110 1.387 1_556 S
N112 Co103 2.022 . S
N112 C109 1.351 . S
N112 N113 1.365 . S
N113 C110 1.341 . S
N113 N112 1.365 . S
N113 H133 0.862 . S
C114 C109 1.501 . S
C114 H115 0.961 . S
C114 H116 0.961 . S
C114 H117 0.960 . S
H115 C114 0.961 . S
H116 C114 0.961 . S
H117 C114 0.960 . S
C118 N119 1.342 . S
C118 C122 1.401 . S
C118 C123 1.499 . S
N119 Co102 1.989 . S
N119 C118 1.342 . S
N119 N120 1.388 . S
N120 Co103 1.993 . S
N120 N119 1.388 . S
N120 C121 1.346 . S
C121 N120 1.346 . S
C121 C122 1.396 . S
C121 C131 1.510 . S
C122 C118 1.401 . S
C122 C121 1.396 . S
C123 C118 1.499 . S
C123 H124 0.959 . S
C123 H125 0.960 1_455 S
C123 H126 0.961 . S
H124 C123 0.959 . S
H125 C123 0.960 1_655 S
H126 C123 0.961 . S
O127 Co102 1.967 . S
O127 C135 1.258 . S
O128 Co103 1.941 . S
O128 C135 1.266 . S
H129 C131 0.959 . S
H130 C131 0.961 1_556 S
C131 C121 1.510 . S
C131 H129 0.959 . S
C131 H130 0.961 1_554 S
C131 H132 0.960 . S
H132 C131 0.960 . S
H133 N113 0.862 . S
O134 Co102 1.920 . S
O134 C107 1.289 1_455 S
C135 O127 1.258 . S
C135 O128 1.266 . S
Co136 O139 1.970 . S
Co136 N153 1.989 . S
Co136 O161 1.967 . S
Co136 O168 1.920 . S
Co137 O140 1.966 . S
Co137 N146 2.022 . S
Co137 N154 1.993 . S
Co137 O162 1.941 . S
C138 O139 1.258 . S
C138 O140 1.263 . S
O139 Co136 1.970 . S
O139 C138 1.258 . S
O140 Co137 1.966 . S
O140 C138 1.263 . S
C141 O142 1.235 . S
C141 O168 1.289 . S
O142 C141 1.235 . S
C143 C145 1.400 . S
C143 N146 1.351 . S
C143 C148 1.501 . S
C144 C145 1.387 . S
C144 N147 1.341 . S
C145 C143 1.400 . S
C145 C144 1.387 . S
N146 Co137 2.022 . S
N146 C143 1.351 . S
N146 N147 1.365 . S
N147 C144 1.341 . S
N147 N146 1.365 . S
N147 H167 0.862 . S
C148 C143 1.501 . S
C148 H149 0.961 . S
C148 H150 0.961 . S
C148 H151 0.960 . S
H149 C148 0.961 . S
H150 C148 0.961 . S
H151 C148 0.960 . S
C152 N153 1.342 . S
C152 C156 1.401 . S
C152 C157 1.499 . S
N153 Co136 1.989 . S
N153 C152 1.342 . S
N153 N154 1.388 . S
N154 Co137 1.993 . S
N154 N153 1.388 . S
N154 C155 1.346 . S
C155 N154 1.346 . S
C155 C156 1.396 . S
C155 C165 1.510 . S
C156 C152 1.401 . S
C156 C155 1.396 . S
C157 C152 1.499 . S
C157 H158 0.959 . S
C157 H159 0.960 . S
C157 H160 0.961 . S
H158 C157 0.959 . S
H159 C157 0.960 . S
H160 C157 0.961 . S
O161 Co136 1.967 . S
O161 C169 1.258 . S
O162 Co137 1.941 . S
O162 C169 1.266 . S
H163 C165 0.959 . S
H164 C165 0.961 . S
C165 C155 1.510 . S
C165 H163 0.959 . S
C165 H164 0.961 . S
C165 H166 0.960 . S
H166 C165 0.960 . S
H167 N147 0.862 . S
O168 Co136 1.920 . S
O168 C141 1.289 . S
C169 O161 1.258 . S
C169 O162 1.266 . S
Co170 O173 1.970 . S
Co170 N187 1.989 . S
Co170 O195 1.967 . S
Co170 O202 1.920 . S
Co171 O174 1.966 . S
Co171 N180 2.022 . S
Co171 N188 1.993 . S
Co171 O196 1.941 . S
C172 O173 1.258 . S
C172 O174 1.263 . S
O173 Co170 1.970 . S
O173 C172 1.258 . S
O174 Co171 1.966 . S
O174 C172 1.263 . S
C175 O176 1.235 . S
C175 O202 1.289 1_655 S
O176 C175 1.235 . S
C177 C179 1.400 . S
C177 N180 1.351 . S
C177 C182 1.501 . S
C178 C179 1.387 . S
C178 N181 1.341 . S
C179 C177 1.400 . S
C179 C178 1.387 . S
N180 Co171 2.022 . S
N180 C177 1.351 . S
N180 N181 1.365 . S
N181 C178 1.341 . S
N181 N180 1.365 . S
N181 H201 0.862 . S
C182 C177 1.501 . S
C182 H183 0.961 . S
C182 H184 0.961 . S
C182 H185 0.960 . S
H183 C182 0.961 . S
H184 C182 0.961 . S
H185 C182 0.960 . S
C186 N187 1.342 . S
C186 C190 1.401 . S
C186 C191 1.499 . S
N187 Co170 1.989 . S
N187 C186 1.342 . S
N187 N188 1.388 . S
N188 Co171 1.993 . S
N188 N187 1.388 . S
N188 C189 1.346 . S
C189 N188 1.346 . S
C189 C190 1.396 . S
C189 C199 1.510 . S
C190 C186 1.401 . S
C190 C189 1.396 . S
C191 C186 1.499 . S
C191 H192 0.959 . S
C191 H193 0.960 1_455 S
C191 H194 0.961 . S
H192 C191 0.959 . S
H193 C191 0.960 1_655 S
H194 C191 0.961 . S
O195 Co170 1.967 . S
O195 C203 1.258 . S
O196 Co171 1.941 . S
O196 C203 1.266 . S
H197 C199 0.959 . S
H198 C199 0.961 . S
C199 C189 1.510 . S
C199 H197 0.959 . S
C199 H198 0.961 . S
C199 H200 0.960 . S
H200 C199 0.960 . S
H201 N181 0.862 . S
O202 Co170 1.920 . S
O202 C175 1.289 1_455 S
C203 O195 1.258 . S
C203 O196 1.266 . S
Co204 O207 1.970 . S
Co204 N221 1.989 . S
Co204 O229 1.967 . S
Co204 O236 1.920 . S
Co205 O208 1.966 . S
Co205 N214 2.022 . S
Co205 N222 1.993 . S
Co205 O230 1.941 . S
C206 O207 1.258 . S
C206 O208 1.263 . S
O207 Co204 1.970 . S
O207 C206 1.258 . S
O208 Co205 1.966 . S
O208 C206 1.263 . S
C209 O210 1.235 . S
C209 O236 1.289 1_565 S
O210 C209 1.235 . S
C211 C213 1.400 . S
C211 N214 1.351 . S
C211 C216 1.501 . S
C212 C213 1.387 . S
C212 N215 1.341 . S
C213 C211 1.400 . S
C213 C212 1.387 . S
N214 Co205 2.022 . S
N214 C211 1.351 . S
N214 N215 1.365 . S
N215 C212 1.341 . S
N215 N214 1.365 . S
N215 H235 0.862 . S
C216 C211 1.501 . S
C216 H217 0.961 . S
C216 H218 0.961 . S
C216 H219 0.960 . S
H217 C216 0.961 . S
H218 C216 0.961 . S
H219 C216 0.960 . S
C220 N221 1.342 . S
C220 C224 1.401 . S
C220 C225 1.499 . S
N221 Co204 1.989 . S
N221 C220 1.342 . S
N221 N222 1.388 . S
N222 Co205 1.993 . S
N222 N221 1.388 . S
N222 C223 1.346 . S
C223 N222 1.346 . S
C223 C224 1.396 . S
C223 C233 1.510 . S
C224 C220 1.401 . S
C224 C223 1.396 . S
C225 C220 1.499 . S
C225 H226 0.959 . S
C225 H227 0.960 1_545 S
C225 H228 0.961 . S
H226 C225 0.959 . S
H227 C225 0.960 1_565 S
H228 C225 0.961 . S
O229 Co204 1.967 . S
O229 C237 1.258 . S
O230 Co205 1.941 . S
O230 C237 1.266 . S
H231 C233 0.959 . S
H232 C233 0.961 . S
C233 C223 1.510 . S
C233 H231 0.959 . S
C233 H232 0.961 . S
C233 H234 0.960 . S
H234 C233 0.960 . S
H235 N215 0.862 . S
O236 Co204 1.920 . S
O236 C209 1.289 1_545 S
C237 O229 1.258 . S
C237 O230 1.266 . S
Co238 O241 1.970 . S
Co238 N255 1.989 . S
Co238 O263 1.967 . S
Co238 O270 1.920 . S
Co239 O242 1.966 . S
Co239 N248 2.022 . S
Co239 N256 1.993 . S
Co239 O264 1.941 . S
C240 O241 1.258 . S
C240 O242 1.263 . S
O241 Co238 1.970 . S
O241 C240 1.258 . S
O242 Co239 1.966 . S
O242 C240 1.263 . S
C243 O244 1.235 . S
C243 O270 1.289 . S
O244 C243 1.235 . S
C245 C247 1.400 . S
C245 N248 1.351 . S
C245 C250 1.501 . S
C246 C247 1.387 . S
C246 N249 1.341 . S
C247 C245 1.400 . S
C247 C246 1.387 . S
N248 Co239 2.022 . S
N248 C245 1.351 . S
N248 N249 1.365 . S
N249 C246 1.341 . S
N249 N248 1.365 . S
N249 H269 0.862 . S
C250 C245 1.501 . S
C250 H251 0.961 . S
C250 H252 0.961 . S
C250 H253 0.960 . S
H251 C250 0.961 . S
H252 C250 0.961 . S
H253 C250 0.960 . S
C254 N255 1.342 . S
C254 C258 1.401 . S
C254 C259 1.499 . S
N255 Co238 1.989 . S
N255 C254 1.342 . S
N255 N256 1.388 . S
N256 Co239 1.993 . S
N256 N255 1.388 . S
N256 C257 1.346 . S
C257 N256 1.346 . S
C257 C258 1.396 . S
C257 C267 1.510 . S
C258 C254 1.401 . S
C258 C257 1.396 . S
C259 C254 1.499 . S
C259 H260 0.959 . S
C259 H261 0.960 . S
C259 H262 0.961 . S
H260 C259 0.959 . S
H261 C259 0.960 . S
H262 C259 0.961 . S
O263 Co238 1.967 . S
O263 C271 1.258 . S
O264 Co239 1.941 . S
O264 C271 1.266 . S
H265 C267 0.959 . S
H266 C267 0.961 . S
C267 C257 1.510 . S
C267 H265 0.959 . S
C267 H266 0.961 . S
C267 H268 0.960 . S
H268 C267 0.960 . S
H269 N249 0.862 . S
O270 Co238 1.920 . S
O270 C243 1.289 . S
C271 O263 1.258 . S
C271 O264 1.266 . S
Co272 O275 1.970 . S
Co272 N289 1.989 . S
Co272 O297 1.967 . S
Co272 O304 1.920 . S
Co273 O276 1.966 . S
Co273 N282 2.022 . S
Co273 N290 1.993 . S
Co273 O298 1.941 . S
C274 O275 1.258 . S
C274 O276 1.263 . S
O275 Co272 1.970 . S
O275 C274 1.258 . S
O276 Co273 1.966 . S
O276 C274 1.263 . S
C277 O278 1.235 . S
C277 O304 1.289 1_545 S
O278 C277 1.235 . S
C279 C281 1.400 1_556 S
C279 N282 1.351 . S
C279 C284 1.501 . S
C280 C281 1.387 1_556 S
C280 N283 1.341 . S
C281 C279 1.400 1_554 S
C281 C280 1.387 1_554 S
N282 Co273 2.022 . S
N282 C279 1.351 . S
N282 N283 1.365 . S
N283 C280 1.341 . S
N283 N282 1.365 . S
N283 H303 0.862 . S
C284 C279 1.501 . S
C284 H285 0.961 . S
C284 H286 0.961 . S
C284 H287 0.960 . S
H285 C284 0.961 . S
H286 C284 0.961 . S
H287 C284 0.960 . S
C288 N289 1.342 . S
C288 C292 1.401 . S
C288 C293 1.499 . S
N289 Co272 1.989 . S
N289 C288 1.342 . S
N289 N290 1.388 . S
N290 Co273 1.993 . S
N290 N289 1.388 . S
N290 C291 1.346 . S
C291 N290 1.346 . S
C291 C292 1.396 . S
C291 C301 1.510 . S
C292 C288 1.401 . S
C292 C291 1.396 . S
C293 C288 1.499 . S
C293 H294 0.959 . S
C293 H295 0.960 1_565 S
C293 H296 0.961 . S
H294 C293 0.959 . S
H295 C293 0.960 1_545 S
H296 C293 0.961 . S
O297 Co272 1.967 . S
O297 C305 1.258 . S
O298 Co273 1.941 . S
O298 C305 1.266 . S
H299 C301 0.959 . S
H300 C301 0.961 1_554 S
C301 C291 1.510 . S
C301 H299 0.959 . S
C301 H300 0.961 1_556 S
C301 H302 0.960 . S
H302 C301 0.960 . S
H303 N283 0.862 . S
O304 Co272 1.920 . S
O304 C277 1.289 1_565 S
C305 O297 1.258 . S
C305 O298 1.266 . S
Co306 O309 1.970 . S
Co306 N323 1.989 . S
Co306 O331 1.967 . S
Co306 O338 1.920 . S
Co307 O310 1.966 . S
Co307 N316 2.022 . S
Co307 N324 1.993 . S
Co307 O332 1.941 . S
C308 O309 1.258 . S
C308 O310 1.263 . S
O309 Co306 1.970 . S
O309 C308 1.258 . S
O310 Co307 1.966 . S
O310 C308 1.263 . S
C311 O312 1.235 . S
C311 O338 1.289 . S
O312 C311 1.235 . S
C313 C315 1.400 1_556 S
C313 N316 1.351 . S
C313 C318 1.501 . S
C314 C315 1.387 1_556 S
C314 N317 1.341 . S
C315 C313 1.400 1_554 S
C315 C314 1.387 1_554 S
N316 Co307 2.022 . S
N316 C313 1.351 . S
N316 N317 1.365 . S
N317 C314 1.341 . S
N317 N316 1.365 . S
N317 H337 0.862 . S
C318 C313 1.501 . S
C318 H319 0.961 . S
C318 H320 0.961 . S
C318 H321 0.960 . S
H319 C318 0.961 . S
H320 C318 0.961 . S
H321 C318 0.960 . S
C322 N323 1.342 . S
C322 C326 1.401 . S
C322 C327 1.499 . S
N323 Co306 1.989 . S
N323 C322 1.342 . S
N323 N324 1.388 . S
N324 Co307 1.993 . S
N324 N323 1.388 . S
N324 C325 1.346 . S
C325 N324 1.346 . S
C325 C326 1.396 . S
C325 C335 1.510 . S
C326 C322 1.401 . S
C326 C325 1.396 . S
C327 C322 1.499 . S
C327 H328 0.959 . S
C327 H329 0.960 . S
C327 H330 0.961 . S
H328 C327 0.959 . S
H329 C327 0.960 . S
H330 C327 0.961 . S
O331 Co306 1.967 . S
O331 C339 1.258 . S
O332 Co307 1.941 . S
O332 C339 1.266 . S
H333 C335 0.959 . S
H334 C335 0.961 1_554 S
C335 C325 1.510 . S
C335 H333 0.959 . S
C335 H334 0.961 1_556 S
C335 H336 0.960 . S
H336 C335 0.960 . S
H337 N317 0.862 . S
O338 Co306 1.920 . S
O338 C311 1.289 . S
C339 O331 1.258 . S
C339 O332 1.266 . S
Co340 O343 1.970 . S
Co340 N357 1.989 . S
Co340 O365 1.967 . S
Co340 O372 1.920 . S
Co341 O344 1.966 . S
Co341 N350 2.022 . S
Co341 N358 1.993 . S
Co341 O366 1.941 . S
C342 O343 1.258 . S
C342 O344 1.263 . S
O343 Co340 1.970 . S
O343 C342 1.258 . S
O344 Co341 1.966 . S
O344 C342 1.263 . S
C345 O346 1.235 . S
C345 O372 1.289 . S
O346 C345 1.235 . S
C347 C349 1.400 1_556 S
C347 N350 1.351 . S
C347 C352 1.501 . S
C348 C349 1.387 1_556 S
C348 N351 1.341 . S
C349 C347 1.400 1_554 S
C349 C348 1.387 1_554 S
N350 Co341 2.022 . S
N350 C347 1.351 . S
N350 N351 1.365 . S
N351 C348 1.341 . S
N351 N350 1.365 . S
N351 H371 0.862 . S
C352 C347 1.501 . S
C352 H353 0.961 . S
C352 H354 0.961 . S
C352 H355 0.960 . S
H353 C352 0.961 . S
H354 C352 0.961 . S
H355 C352 0.960 . S
C356 N357 1.342 . S
C356 C360 1.401 . S
C356 C361 1.499 . S
N357 Co340 1.989 . S
N357 C356 1.342 . S
N357 N358 1.388 . S
N358 Co341 1.993 . S
N358 N357 1.388 . S
N358 C359 1.346 . S
C359 N358 1.346 . S
C359 C360 1.396 . S
C359 C369 1.510 . S
C360 C356 1.401 . S
C360 C359 1.396 . S
C361 C356 1.499 . S
C361 H362 0.959 . S
C361 H363 0.960 . S
C361 H364 0.961 . S
H362 C361 0.959 . S
H363 C361 0.960 . S
H364 C361 0.961 . S
O365 Co340 1.967 . S
O365 C373 1.258 . S
O366 Co341 1.941 . S
O366 C373 1.266 . S
H367 C369 0.959 . S
H368 C369 0.961 1_554 S
C369 C359 1.510 . S
C369 H367 0.959 . S
C369 H368 0.961 1_556 S
C369 H370 0.960 . S
H370 C369 0.960 . S
H371 N351 0.862 . S
O372 Co340 1.920 . S
O372 C345 1.289 . S
C373 O365 1.258 . S
C373 O366 1.266 . S
Co374 O377 1.970 . S
Co374 N391 1.989 . S
Co374 O399 1.967 . S
Co374 O406 1.920 . S
Co375 O378 1.966 . S
Co375 N384 2.022 . S
Co375 N392 1.993 . S
Co375 O400 1.941 . S
C376 O377 1.258 . S
C376 O378 1.263 . S
O377 Co374 1.970 . S
O377 C376 1.258 . S
O378 Co375 1.966 . S
O378 C376 1.263 . S
C379 O380 1.235 . S
C379 O406 1.289 1_455 S
O380 C379 1.235 . S
C381 C383 1.400 1_556 S
C381 N384 1.351 . S
C381 C386 1.501 . S
C382 C383 1.387 1_556 S
C382 N385 1.341 . S
C383 C381 1.400 1_554 S
C383 C382 1.387 1_554 S
N384 Co375 2.022 . S
N384 C381 1.351 . S
N384 N385 1.365 . S
N385 C382 1.341 . S
N385 N384 1.365 . S
N385 H405 0.862 . S
C386 C381 1.501 . S
C386 H387 0.961 . S
C386 H388 0.961 . S
C386 H389 0.960 . S
H387 C386 0.961 . S
H388 C386 0.961 . S
H389 C386 0.960 . S
C390 N391 1.342 . S
C390 C394 1.401 . S
C390 C395 1.499 . S
N391 Co374 1.989 . S
N391 C390 1.342 . S
N391 N392 1.388 . S
N392 Co375 1.993 . S
N392 N391 1.388 . S
N392 C393 1.346 . S
C393 N392 1.346 . S
C393 C394 1.396 . S
C393 C403 1.510 . S
C394 C390 1.401 . S
C394 C393 1.396 . S
C395 C390 1.499 . S
C395 H396 0.959 . S
C395 H397 0.960 1_655 S
C395 H398 0.961 . S
H396 C395 0.959 . S
H397 C395 0.960 1_455 S
H398 C395 0.961 . S
O399 Co374 1.967 . S
O399 C407 1.258 . S
O400 Co375 1.941 . S
O400 C407 1.266 . S
H401 C403 0.959 . S
H402 C403 0.961 1_554 S
C403 C393 1.510 . S
C403 H401 0.959 . S
C403 H402 0.961 1_556 S
C403 H404 0.960 . S
H404 C403 0.960 . S
H405 N385 0.862 . S
O406 Co374 1.920 . S
O406 C379 1.289 1_655 S
C407 O399 1.258 . S
C407 O400 1.266 . S
Co408 O411 1.970 . S
Co408 N425 1.989 . S
Co408 O433 1.967 . S
Co408 O440 1.920 . S
Co409 O412 1.966 . S
Co409 N418 2.022 . S
Co409 N426 1.993 . S
Co409 O434 1.941 . S
C410 O411 1.258 . S
C410 O412 1.263 . S
O411 Co408 1.970 . S
O411 C410 1.258 . S
O412 Co409 1.966 . S
O412 C410 1.263 . S
C413 O414 1.235 . S
C413 O440 1.289 . S
O414 C413 1.235 . S
C415 C417 1.400 . S
C415 N418 1.351 . S
C415 C420 1.501 . S
C416 C417 1.387 . S
C416 N419 1.341 . S
C417 C415 1.400 . S
C417 C416 1.387 . S
N418 Co409 2.022 . S
N418 C415 1.351 . S
N418 N419 1.365 . S
N419 C416 1.341 . S
N419 N418 1.365 . S
N419 H439 0.862 . S
C420 C415 1.501 . S
C420 H421 0.961 . S
C420 H422 0.961 . S
C420 H423 0.960 . S
H421 C420 0.961 . S
H422 C420 0.961 . S
H423 C420 0.960 . S
C424 N425 1.342 . S
C424 C428 1.401 . S
C424 C429 1.499 . S
N425 Co408 1.989 . S
N425 C424 1.342 . S
N425 N426 1.388 . S
N426 Co409 1.993 . S
N426 N425 1.388 . S
N426 C427 1.346 . S
C427 N426 1.346 . S
C427 C428 1.396 . S
C427 C437 1.510 . S
C428 C424 1.401 . S
C428 C427 1.396 . S
C429 C424 1.499 . S
C429 H430 0.959 . S
C429 H431 0.960 . S
C429 H432 0.961 . S
H430 C429 0.959 . S
H431 C429 0.960 . S
H432 C429 0.961 . S
O433 Co408 1.967 . S
O433 C441 1.258 . S
O434 Co409 1.941 . S
O434 C441 1.266 . S
H435 C437 0.959 . S
H436 C437 0.961 . S
C437 C427 1.510 . S
C437 H435 0.959 . S
C437 H436 0.961 . S
C437 H438 0.960 . S
H438 C437 0.960 . S
H439 N419 0.862 . S
O440 Co408 1.920 . S
O440 C413 1.289 . S
C441 O433 1.258 . S
C441 O434 1.266 . S
Co442 O445 1.970 . S
Co442 N459 1.989 . S
Co442 O467 1.967 . S
Co442 O474 1.920 . S
Co443 O446 1.966 . S
Co443 N452 2.022 . S
Co443 N460 1.993 . S
Co443 O468 1.941 . S
C444 O445 1.258 . S
C444 O446 1.263 . S
O445 Co442 1.970 . S
O445 C444 1.258 . S
O446 Co443 1.966 . S
O446 C444 1.263 . S
C447 O448 1.235 . S
C447 O474 1.289 1_455 S
O448 C447 1.235 . S
C449 C451 1.400 . S
C449 N452 1.351 . S
C449 C454 1.501 . S
C450 C451 1.387 . S
C450 N453 1.341 . S
C451 C449 1.400 . S
C451 C450 1.387 . S
N452 Co443 2.022 . S
N452 C449 1.351 . S
N452 N453 1.365 . S
N453 C450 1.341 . S
N453 N452 1.365 . S
N453 H473 0.862 . S
C454 C449 1.501 . S
C454 H455 0.961 . S
C454 H456 0.961 . S
C454 H457 0.960 . S
H455 C454 0.961 . S
H456 C454 0.961 . S
H457 C454 0.960 . S
C458 N459 1.342 . S
C458 C462 1.401 . S
C458 C463 1.499 . S
N459 Co442 1.989 . S
N459 C458 1.342 . S
N459 N460 1.388 . S
N460 Co443 1.993 . S
N460 N459 1.388 . S
N460 C461 1.346 . S
C461 N460 1.346 . S
C461 C462 1.396 . S
C461 C471 1.510 . S
C462 C458 1.401 . S
C462 C461 1.396 . S
C463 C458 1.499 . S
C463 H464 0.959 . S
C463 H465 0.960 1_655 S
C463 H466 0.961 . S
H464 C463 0.959 . S
H465 C463 0.960 1_455 S
H466 C463 0.961 . S
O467 Co442 1.967 . S
O467 C475 1.258 . S
O468 Co443 1.941 . S
O468 C475 1.266 . S
H469 C471 0.959 . S
H470 C471 0.961 . S
C471 C461 1.510 . S
C471 H469 0.959 . S
C471 H470 0.961 . S
C471 H472 0.960 . S
H472 C471 0.960 . S
H473 N453 0.862 . S
O474 Co442 1.920 . S
O474 C447 1.289 1_655 S
C475 O467 1.258 . S
C475 O468 1.266 . S
Co476 O479 1.970 . S
Co476 N493 1.989 . S
Co476 O501 1.967 . S
Co476 O508 1.920 . S
Co477 O480 1.966 . S
Co477 N486 2.022 . S
Co477 N494 1.993 . S
Co477 O502 1.941 . S
C478 O479 1.258 . S
C478 O480 1.263 . S
O479 Co476 1.970 . S
O479 C478 1.258 . S
O480 Co477 1.966 . S
O480 C478 1.263 . S
C481 O482 1.235 . S
C481 O508 1.289 1_545 S
O482 C481 1.235 . S
C483 C485 1.400 . S
C483 N486 1.351 . S
C483 C488 1.501 . S
C484 C485 1.387 . S
C484 N487 1.341 . S
C485 C483 1.400 . S
C485 C484 1.387 . S
N486 Co477 2.022 . S
N486 C483 1.351 . S
N486 N487 1.365 . S
N487 C484 1.341 . S
N487 N486 1.365 . S
N487 H507 0.862 . S
C488 C483 1.501 . S
C488 H489 0.961 . S
C488 H490 0.961 . S
C488 H491 0.960 . S
H489 C488 0.961 . S
H490 C488 0.961 . S
H491 C488 0.960 . S
C492 N493 1.342 . S
C492 C496 1.401 . S
C492 C497 1.499 . S
N493 Co476 1.989 . S
N493 C492 1.342 . S
N493 N494 1.388 . S
N494 Co477 1.993 . S
N494 N493 1.388 . S
N494 C495 1.346 . S
C495 N494 1.346 . S
C495 C496 1.396 . S
C495 C505 1.510 . S
C496 C492 1.401 . S
C496 C495 1.396 . S
C497 C492 1.499 . S
C497 H498 0.959 . S
C497 H499 0.960 1_565 S
C497 H500 0.961 . S
H498 C497 0.959 . S
H499 C497 0.960 1_545 S
H500 C497 0.961 . S
O501 Co476 1.967 . S
O501 C509 1.258 . S
O502 Co477 1.941 . S
O502 C509 1.266 . S
H503 C505 0.959 . S
H504 C505 0.961 . S
C505 C495 1.510 . S
C505 H503 0.959 . S
C505 H504 0.961 . S
C505 H506 0.960 . S
H506 C505 0.960 . S
H507 N487 0.862 . S
O508 Co476 1.920 . S
O508 C481 1.289 1_565 S
C509 O501 1.258 . S
C509 O502 1.266 . S
Co510 O513 1.970 . S
Co510 N527 1.989 . S
Co510 O535 1.967 . S
Co510 O542 1.920 . S
Co511 O514 1.966 . S
Co511 N520 2.022 . S
Co511 N528 1.993 . S
Co511 O536 1.941 . S
C512 O513 1.258 . S
C512 O514 1.263 . S
O513 Co510 1.970 . S
O513 C512 1.258 . S
O514 Co511 1.966 . S
O514 C512 1.263 . S
C515 O516 1.235 . S
C515 O542 1.289 . S
O516 C515 1.235 . S
C517 C519 1.400 . S
C517 N520 1.351 . S
C517 C522 1.501 . S
C518 C519 1.387 . S
C518 N521 1.341 . S
C519 C517 1.400 . S
C519 C518 1.387 . S
N520 Co511 2.022 . S
N520 C517 1.351 . S
N520 N521 1.365 . S
N521 C518 1.341 . S
N521 N520 1.365 . S
N521 H541 0.862 . S
C522 C517 1.501 . S
C522 H523 0.961 . S
C522 H524 0.961 . S
C522 H525 0.960 . S
H523 C522 0.961 . S
H524 C522 0.961 . S
H525 C522 0.960 . S
C526 N527 1.342 . S
C526 C530 1.401 . S
C526 C531 1.499 . S
N527 Co510 1.989 . S
N527 C526 1.342 . S
N527 N528 1.388 . S
N528 Co511 1.993 . S
N528 N527 1.388 . S
N528 C529 1.346 . S
C529 N528 1.346 . S
C529 C530 1.396 . S
C529 C539 1.510 . S
C530 C526 1.401 . S
C530 C529 1.396 . S
C531 C526 1.499 . S
C531 H532 0.959 . S
C531 H533 0.960 . S
C531 H534 0.961 . S
H532 C531 0.959 . S
H533 C531 0.960 . S
H534 C531 0.961 . S
O535 Co510 1.967 . S
O535 C543 1.258 . S
O536 Co511 1.941 . S
O536 C543 1.266 . S
H537 C539 0.959 . S
H538 C539 0.961 . S
C539 C529 1.510 . S
C539 H537 0.959 . S
C539 H538 0.961 . S
C539 H540 0.960 . S
H540 C539 0.960 . S
H541 N521 0.862 . S
O542 Co510 1.920 . S
O542 C515 1.289 . S
C543 O535 1.258 . S
C543 O536 1.266 . S
H544 C552 0.929 . S
H545 C554 0.930 . S
H546 C556 0.930 . S
H547 C559 0.929 1_545 S
H548 C562 0.930 . S
H549 C564 0.960 . S
H550 C564 0.960 . S
H551 C564 0.960 . S
C552 H544 0.929 . S
C552 C553 1.377 . S
C552 C554 1.384 . S
C553 C552 1.377 . S
C553 C559 1.390 . S
C554 H545 0.930 . S
C554 C552 1.384 . S
C554 C555 1.372 . S
C555 C554 1.372 . S
C555 C556 1.400 . S
C555 C560 1.490 . S
C556 H546 0.930 . S
C556 C555 1.400 . S
C556 C559 1.386 . S
H557 C573 0.930 . S
H558 C574 0.931 . S
C559 H547 0.929 1_565 S
C559 C553 1.390 . S
C559 C556 1.386 . S
C560 C555 1.490 . S
C560 C562 1.395 . S
C560 C563 1.403 . S
H561 C567 0.930 . S
C562 H548 0.930 . S
C562 C560 1.395 . S
C562 C565 1.403 . S
C563 C560 1.403 . S
C563 C564 1.524 . S
C563 C567 1.400 . S
C564 H549 0.960 . S
C564 H550 0.960 . S
C564 H551 0.960 . S
C564 C563 1.524 . S
C565 C562 1.403 . S
C565 C566 1.392 . S
C565 C569 1.495 . S
C566 C565 1.392 . S
C566 C567 1.385 . S
C566 C568 1.478 . S
C567 H561 0.930 . S
C567 C563 1.400 . S
C567 C566 1.385 . S
C568 C566 1.478 . S
C568 C570 1.381 . S
C568 C574 1.383 . S
C569 C565 1.495 . S
C569 H575 0.959 . S
C569 H576 0.961 . S
C569 H577 0.960 . S
C570 C568 1.381 . S
C570 C571 1.394 . S
C570 H578 0.930 . S
C571 C570 1.394 . S
C571 C572 1.383 . S
C571 H579 0.929 . S
C572 C571 1.383 . S
C572 C573 1.377 . S
C573 H557 0.930 . S
C573 C572 1.377 . S
C573 C574 1.379 . S
C574 H558 0.931 . S
C574 C568 1.383 . S
C574 C573 1.379 . S
H575 C569 0.959 . S
H576 C569 0.961 . S
H577 C569 0.960 . S
H578 C570 0.930 . S
H579 C571 0.929 . S
H580 C588 0.929 . S
H581 C590 0.930 . S
H582 C592 0.930 . S
H583 C595 0.929 . S
H584 C598 0.930 . S
H585 C600 0.960 . S
H586 C600 0.960 . S
H587 C600 0.960 . S
C588 H580 0.929 . S
C588 C589 1.377 . S
C588 C590 1.384 . S
C589 C588 1.377 . S
C589 C595 1.390 . S
C590 H581 0.930 . S
C590 C588 1.384 . S
C590 C591 1.372 . S
C591 C590 1.372 . S
C591 C592 1.400 . S
C591 C596 1.490 . S
C592 H582 0.930 . S
C592 C591 1.400 . S
C592 C595 1.386 . S
H593 C609 0.930 . S
H594 C610 0.931 . S
C595 H583 0.929 . S
C595 C589 1.390 . S
C595 C592 1.386 . S
C596 C591 1.490 . S
C596 C598 1.395 . S
C596 C599 1.403 . S
H597 C603 0.930 . S
C598 H584 0.930 . S
C598 C596 1.395 . S
C598 C601 1.403 . S
C599 C596 1.403 . S
C599 C600 1.524 . S
C599 C603 1.400 . S
C600 H585 0.960 . S
C600 H586 0.960 . S
C600 H587 0.960 . S
C600 C599 1.524 . S
C601 C598 1.403 . S
C601 C602 1.392 . S
C601 C605 1.495 . S
C602 C601 1.392 . S
C602 C603 1.385 . S
C602 C604 1.478 . S
C603 H597 0.930 . S
C603 C599 1.400 . S
C603 C602 1.385 . S
C604 C602 1.478 . S
C604 C606 1.381 . S
C604 C610 1.383 . S
C605 C601 1.495 . S
C605 H611 0.959 . S
C605 H612 0.961 . S
C605 H613 0.960 . S
C606 C604 1.381 . S
C606 C607 1.394 . S
C606 H614 0.930 . S
C607 C606 1.394 . S
C607 C608 1.383 . S
C607 H615 0.929 . S
C608 C607 1.383 . S
C608 C609 1.377 . S
C609 H593 0.930 . S
C609 C608 1.377 . S
C609 C610 1.379 . S
C610 H594 0.931 . S
C610 C604 1.383 . S
C610 C609 1.379 . S
H611 C605 0.959 . S
H612 C605 0.961 . S
H613 C605 0.960 . S
H614 C606 0.930 . S
H615 C607 0.929 . S
H616 C624 0.929 . S
H617 C626 0.930 . S
H618 C628 0.930 . S
H619 C631 0.929 . S
H620 C634 0.930 . S
H621 C636 0.960 . S
H622 C636 0.960 . S
H623 C636 0.960 . S
C624 H616 0.929 . S
C624 C625 1.377 . S
C624 C626 1.384 . S
C625 C624 1.377 . S
C625 C631 1.390 . S
C626 H617 0.930 . S
C626 C624 1.384 . S
C626 C627 1.372 . S
C627 C626 1.372 . S
C627 C628 1.400 . S
C627 C632 1.490 . S
C628 H618 0.930 . S
C628 C627 1.400 . S
C628 C631 1.386 . S
H629 C645 0.930 1_455 S
H630 C646 0.931 . S
C631 H619 0.929 . S
C631 C625 1.390 . S
C631 C628 1.386 . S
C632 C627 1.490 . S
C632 C634 1.395 . S
C632 C635 1.403 . S
H633 C639 0.930 . S
C634 H620 0.930 . S
C634 C632 1.395 . S
C634 C637 1.403 . S
C635 C632 1.403 . S
C635 C636 1.524 . S
C635 C639 1.400 . S
C636 H621 0.960 . S
C636 H622 0.960 . S
C636 H623 0.960 . S
C636 C635 1.524 . S
C637 C634 1.403 . S
C637 C638 1.392 . S
C637 C641 1.495 . S
C638 C637 1.392 . S
C638 C639 1.385 . S
C638 C640 1.478 . S
C639 H633 0.930 . S
C639 C635 1.400 . S
C639 C638 1.385 . S
C640 C638 1.478 . S
C640 C642 1.381 . S
C640 C646 1.383 . S
C641 C637 1.495 . S
C641 H647 0.959 . S
C641 H648 0.961 . S
C641 H649 0.960 . S
C642 C640 1.381 . S
C642 C643 1.394 . S
C642 H650 0.930 . S
C643 C642 1.394 . S
C643 C644 1.383 . S
C643 H651 0.929 . S
C644 C643 1.383 . S
C644 C645 1.377 . S
C645 H629 0.930 1_655 S
C645 C644 1.377 . S
C645 C646 1.379 . S
C646 H630 0.931 . S
C646 C640 1.383 . S
C646 C645 1.379 . S
H647 C641 0.959 . S
H648 C641 0.961 . S
H649 C641 0.960 . S
H650 C642 0.930 . S
H651 C643 0.929 . S
H652 C660 0.929 1_455 S
H653 C662 0.930 . S
H654 C664 0.930 . S
H655 C667 0.929 . S
H656 C670 0.930 . S
H657 C672 0.960 . S
H658 C672 0.960 . S
H659 C672 0.960 . S
C660 H652 0.929 1_655 S
C660 C661 1.377 . S
C660 C662 1.384 . S
C661 C660 1.377 . S
C661 C667 1.390 . S
C662 H653 0.930 . S
C662 C660 1.384 . S
C662 C663 1.372 . S
C663 C662 1.372 . S
C663 C664 1.400 . S
C663 C668 1.490 . S
C664 H654 0.930 . S
C664 C663 1.400 . S
C664 C667 1.386 . S
H665 C681 0.930 . S
H666 C682 0.931 . S
C667 H655 0.929 . S
C667 C661 1.390 . S
C667 C664 1.386 . S
C668 C663 1.490 . S
C668 C670 1.395 . S
C668 C671 1.403 . S
H669 C675 0.930 . S
C670 H656 0.930 . S
C670 C668 1.395 . S
C670 C673 1.403 . S
C671 C668 1.403 . S
C671 C672 1.524 . S
C671 C675 1.400 . S
C672 H657 0.960 . S
C672 H658 0.960 . S
C672 H659 0.960 . S
C672 C671 1.524 . S
C673 C670 1.403 . S
C673 C674 1.392 . S
C673 C677 1.495 . S
C674 C673 1.392 . S
C674 C675 1.385 . S
C674 C676 1.478 . S
C675 H669 0.930 . S
C675 C671 1.400 . S
C675 C674 1.385 . S
C676 C674 1.478 . S
C676 C678 1.381 . S
C676 C682 1.383 . S
C677 C673 1.495 . S
C677 H683 0.959 . S
C677 H684 0.961 . S
C677 H685 0.960 . S
C678 C676 1.381 . S
C678 C679 1.394 . S
C678 H686 0.930 . S
C679 C678 1.394 . S
C679 C680 1.383 . S
C679 H687 0.929 . S
C680 C679 1.383 . S
C680 C681 1.377 . S
C681 H665 0.930 . S
C681 C680 1.377 . S
C681 C682 1.379 . S
C682 H666 0.931 . S
C682 C676 1.383 . S
C682 C681 1.379 . S
H683 C677 0.959 . S
H684 C677 0.961 . S
H685 C677 0.960 . S
H686 C678 0.930 . S
H687 C679 0.929 . S
H688 C696 0.926 1_565 S
H689 C698 0.930 . S
H690 C700 0.930 . S
H691 C703 0.929 . S
H692 C706 0.930 . S
H693 C708 0.960 . S
H694 C708 0.960 . S
H695 C708 0.960 . S
C696 H688 0.926 1_545 S
C696 C697 1.377 . S
C696 C698 1.384 . S
C697 C696 1.377 . S
C697 C703 1.390 . S
C698 H689 0.930 . S
C698 C696 1.384 . S
C698 C699 1.372 . S
C699 C698 1.372 . S
C699 C700 1.400 . S
C699 C704 1.490 . S
C700 H690 0.930 . S
C700 C699 1.400 . S
C700 C703 1.386 . S
H701 C717 0.930 . S
H702 C718 0.931 . S
C703 H691 0.929 . S
C703 C697 1.390 . S
C703 C700 1.386 . S
C704 C699 1.490 . S
C704 C706 1.395 . S
C704 C707 1.403 . S
H705 C711 0.930 . S
C706 H692 0.930 . S
C706 C704 1.395 . S
C706 C709 1.403 . S
C707 C704 1.403 . S
C707 C708 1.524 . S
C707 C711 1.400 . S
C708 H693 0.960 . S
C708 H694 0.960 . S
C708 H695 0.960 . S
C708 C707 1.524 . S
C709 C706 1.403 . S
C709 C710 1.392 . S
C709 C713 1.495 . S
C710 C709 1.392 . S
C710 C711 1.385 . S
C710 C712 1.478 . S
C711 H705 0.930 . S
C711 C707 1.400 . S
C711 C710 1.385 . S
C712 C710 1.478 . S
C712 C714 1.381 . S
C712 C718 1.383 . S
C713 C709 1.495 . S
C713 H719 0.959 . S
C713 H720 0.961 . S
C713 H721 0.960 . S
C714 C712 1.381 . S
C714 C715 1.394 . S
C714 H722 0.930 . S
C715 C714 1.394 . S
C715 C716 1.383 . S
C715 H723 0.929 . S
C716 C715 1.383 . S
C716 C717 1.377 . S
C717 H701 0.930 . S
C717 C716 1.377 . S
C717 C718 1.379 . S
C718 H702 0.931 . S
C718 C712 1.383 . S
C718 C717 1.379 . S
H719 C713 0.959 . S
H720 C713 0.961 . S
H721 C713 0.960 . S
H722 C714 0.930 . S
H723 C715 0.929 . S
H724 C732 0.929 . S
H725 C734 0.930 . S
H726 C736 0.930 . S
H727 C739 0.929 . S
H728 C742 0.930 . S
H729 C744 0.960 . S
H730 C744 0.960 . S
H731 C744 0.960 . S
C732 H724 0.929 . S
C732 C733 1.377 . S
C732 C734 1.384 . S
C733 C732 1.377 . S
C733 C739 1.390 . S
C734 H725 0.930 . S
C734 C732 1.384 . S
C734 C735 1.372 . S
C735 C734 1.372 . S
C735 C736 1.400 . S
C735 C740 1.490 . S
C736 H726 0.930 . S
C736 C735 1.400 . S
C736 C739 1.386 . S
H737 C753 0.930 . S
H738 C754 0.931 . S
C739 H727 0.929 . S
C739 C733 1.390 . S
C739 C736 1.386 . S
C740 C735 1.490 . S
C740 C742 1.395 . S
C740 C743 1.403 . S
H741 C747 0.930 . S
C742 H728 0.930 . S
C742 C740 1.395 . S
C742 C745 1.403 . S
C743 C740 1.403 . S
C743 C744 1.524 . S
C743 C747 1.400 . S
C744 H729 0.960 . S
C744 H730 0.960 . S
C744 H731 0.960 . S
C744 C743 1.524 . S
C745 C742 1.403 . S
C745 C746 1.392 . S
C745 C749 1.495 . S
C746 C745 1.392 . S
C746 C747 1.385 . S
C746 C748 1.478 . S
C747 H741 0.930 . S
C747 C743 1.400 . S
C747 C746 1.385 . S
C748 C746 1.478 . S
C748 C750 1.381 . S
C748 C754 1.383 . S
C749 C745 1.495 . S
C749 H755 0.959 . S
C749 H756 0.961 . S
C749 H757 0.960 . S
C750 C748 1.381 . S
C750 C751 1.394 . S
C750 H758 0.930 . S
C751 C750 1.394 . S
C751 C752 1.383 . S
C751 H759 0.929 . S
C752 C751 1.383 . S
C752 C753 1.377 . S
C753 H737 0.930 . S
C753 C752 1.377 . S
C753 C754 1.379 . S
C754 H738 0.931 . S
C754 C748 1.383 . S
C754 C753 1.379 . S
H755 C749 0.959 . S
H756 C749 0.961 . S
H757 C749 0.960 . S
H758 C750 0.930 . S
H759 C751 0.929 . S
H760 C768 0.929 . S
H761 C770 0.930 . S
H762 C772 0.930 . S
H763 C775 0.929 1_655 S
H764 C778 0.930 . S
H765 C780 0.960 . S
H766 C780 0.960 . S
H767 C780 0.960 . S
C768 H760 0.929 . S
C768 C769 1.377 . S
C768 C770 1.384 . S
C769 C768 1.377 . S
C769 C775 1.390 . S
C770 H761 0.930 . S
C770 C768 1.384 . S
C770 C771 1.372 . S
C771 C770 1.372 . S
C771 C772 1.400 . S
C771 C776 1.490 . S
C772 H762 0.930 . S
C772 C771 1.400 . S
C772 C775 1.386 . S
H773 C789 0.930 . S
H774 C790 0.931 . S
C775 H763 0.929 1_455 S
C775 C769 1.390 . S
C775 C772 1.386 . S
C776 C771 1.490 . S
C776 C778 1.395 . S
C776 C779 1.403 . S
H777 C783 0.930 . S
C778 H764 0.930 . S
C778 C776 1.395 . S
C778 C781 1.403 . S
C779 C776 1.403 . S
C779 C780 1.524 . S
C779 C783 1.400 . S
C780 H765 0.960 . S
C780 H766 0.960 . S
C780 H767 0.960 . S
C780 C779 1.524 . S
C781 C778 1.403 . S
C781 C782 1.392 . S
C781 C785 1.495 . S
C782 C781 1.392 . S
C782 C783 1.385 . S
C782 C784 1.478 . S
C783 H777 0.930 . S
C783 C779 1.400 . S
C783 C782 1.385 . S
C784 C782 1.478 . S
C784 C786 1.381 . S
C784 C790 1.383 . S
C785 C781 1.495 . S
C785 H791 0.959 . S
C785 H792 0.961 . S
C785 H793 0.960 . S
C786 C784 1.381 . S
C786 C787 1.394 . S
C786 H794 0.930 . S
C787 C786 1.394 . S
C787 C788 1.383 . S
C787 H795 0.929 . S
C788 C787 1.383 . S
C788 C789 1.377 . S
C789 H773 0.930 . S
C789 C788 1.377 . S
C789 C790 1.379 . S
C790 H774 0.931 . S
C790 C784 1.383 . S
C790 C789 1.379 . S
H791 C785 0.959 . S
H792 C785 0.961 . S
H793 C785 0.960 . S
H794 C786 0.930 . S
H795 C787 0.929 . S
H796 C804 0.929 . S
H797 C806 0.930 . S
H798 C808 0.930 . S
H799 C811 0.929 . S
H800 C814 0.930 . S
H801 C816 0.960 . S
H802 C816 0.960 . S
H803 C816 0.960 . S
C804 H796 0.929 . S
C804 C805 1.377 . S
C804 C806 1.384 . S
C805 C804 1.377 . S
C805 C811 1.390 . S
C806 H797 0.930 . S
C806 C804 1.384 . S
C806 C807 1.372 . S
C807 C806 1.372 . S
C807 C808 1.400 . S
C807 C812 1.490 . S
C808 H798 0.930 . S
C808 C807 1.400 . S
C808 C811 1.386 . S
H809 C825 0.930 . S
H810 C826 0.931 . S
C811 H799 0.929 . S
C811 C805 1.390 . S
C811 C808 1.386 . S
C812 C807 1.490 . S
C812 C814 1.395 . S
C812 C815 1.403 . S
H813 C819 0.930 . S
C814 H800 0.930 . S
C814 C812 1.395 . S
C814 C817 1.403 . S
C815 C812 1.403 . S
C815 C816 1.524 . S
C815 C819 1.400 . S
C816 H801 0.960 . S
C816 H802 0.960 . S
C816 H803 0.960 . S
C816 C815 1.524 . S
C817 C814 1.403 . S
C817 C818 1.392 . S
C817 C821 1.495 . S
C818 C817 1.392 . S
C818 C819 1.385 . S
C818 C820 1.478 . S
C819 H813 0.930 . S
C819 C815 1.400 . S
C819 C818 1.385 . S
C820 C818 1.478 . S
C820 C822 1.381 . S
C820 C826 1.383 . S
C821 C817 1.495 . S
C821 H827 0.959 . S
C821 H828 0.961 . S
C821 H829 0.960 . S
C822 C820 1.381 . S
C822 C823 1.394 . S
C822 H830 0.930 . S
C823 C822 1.394 . S
C823 C824 1.383 . S
C823 H831 0.929 1_455 S
C824 C823 1.383 . S
C824 C825 1.377 . S
C825 H809 0.930 . S
C825 C824 1.377 . S
C825 C826 1.379 . S
C826 H810 0.931 . S
C826 C820 1.383 . S
C826 C825 1.379 . S
H827 C821 0.959 . S
H828 C821 0.961 . S
H829 C821 0.960 . S
H830 C822 0.930 . S
H831 C823 0.929 1_655 S
H832 C840 0.929 . S
H833 C842 0.930 . S
H834 C844 0.930 . S
H835 C847 0.929 . S
H836 C850 0.930 . S
H837 C852 0.960 . S
H838 C852 0.960 . S
H839 C852 0.960 . S
C840 H832 0.929 . S
C840 C841 1.377 . S
C840 C842 1.384 . S
C841 C840 1.377 . S
C841 C847 1.390 . S
C842 H833 0.930 . S
C842 C840 1.384 . S
C842 C843 1.372 . S
C843 C842 1.372 . S
C843 C844 1.400 . S
C843 C848 1.490 . S
C844 H834 0.930 . S
C844 C843 1.400 . S
C844 C847 1.386 . S
H845 C861 0.930 . S
H846 C862 0.931 . S
C847 H835 0.929 . S
C847 C841 1.390 . S
C847 C844 1.386 . S
C848 C843 1.490 . S
C848 C850 1.395 . S
C848 C851 1.403 . S
H849 C855 0.930 . S
C850 H836 0.930 . S
C850 C848 1.395 . S
C850 C853 1.403 . S
C851 C848 1.403 . S
C851 C852 1.524 . S
C851 C855 1.400 . S
C852 H837 0.960 . S
C852 H838 0.960 . S
C852 H839 0.960 . S
C852 C851 1.524 . S
C853 C850 1.403 . S
C853 C854 1.392 . S
C853 C857 1.495 . S
C854 C853 1.392 . S
C854 C855 1.385 . S
C854 C856 1.478 . S
C855 H849 0.930 . S
C855 C851 1.400 . S
C855 C854 1.385 . S
C856 C854 1.478 . S
C856 C858 1.381 . S
C856 C862 1.383 . S
C857 C853 1.495 . S
C857 H863 0.959 . S
C857 H864 0.961 . S
C857 H865 0.960 . S
C858 C856 1.381 . S
C858 C859 1.394 . S
C858 H866 0.930 . S
C859 C858 1.394 . S
C859 C860 1.383 . S
C859 H867 0.929 . S
C860 C859 1.383 . S
C860 C861 1.377 . S
C861 H845 0.930 . S
C861 C860 1.377 . S
C861 C862 1.379 . S
C862 H846 0.931 . S
C862 C856 1.383 . S
C862 C861 1.379 . S
H863 C857 0.959 . S
H864 C857 0.961 . S
H865 C857 0.960 . S
H866 C858 0.930 . S
H867 C859 0.929 . S
H868 C876 0.929 . S
H869 C878 0.930 . S
H870 C880 0.930 . S
H871 C883 0.929 . S
H872 C886 0.930 . S
H873 C888 0.960 . S
H874 C888 0.960 . S
H875 C888 0.960 . S
C876 H868 0.929 . S
C876 C877 1.377 . S
C876 C878 1.384 . S
C877 C876 1.377 . S
C877 C883 1.390 . S
C878 H869 0.930 . S
C878 C876 1.384 . S
C878 C879 1.372 . S
C879 C878 1.372 . S
C879 C880 1.400 . S
C879 C884 1.490 . S
C880 H870 0.930 . S
C880 C879 1.400 . S
C880 C883 1.386 . S
H881 C897 0.930 . S
H882 C898 0.931 . S
C883 H871 0.929 . S
C883 C877 1.390 . S
C883 C880 1.386 . S
C884 C879 1.490 . S
C884 C886 1.395 . S
C884 C887 1.403 . S
H885 C891 0.930 . S
C886 H872 0.930 . S
C886 C884 1.395 . S
C886 C889 1.403 . S
C887 C884 1.403 . S
C887 C888 1.524 . S
C887 C891 1.400 . S
C888 H873 0.960 . S
C888 H874 0.960 . S
C888 H875 0.960 . S
C888 C887 1.524 . S
C889 C886 1.403 . S
C889 C890 1.392 . S
C889 C893 1.495 . S
C890 C889 1.392 . S
C890 C891 1.385 . S
C890 C892 1.478 . S
C891 H885 0.930 . S
C891 C887 1.400 . S
C891 C890 1.385 . S
C892 C890 1.478 . S
C892 C894 1.381 . S
C892 C898 1.383 . S
C893 C889 1.495 . S
C893 H899 0.959 . S
C893 H900 0.961 . S
C893 H901 0.960 . S
C894 C892 1.381 . S
C894 C895 1.394 . S
C894 H902 0.930 . S
C895 C894 1.394 . S
C895 C896 1.383 . S
C895 H903 0.929 . S
C896 C895 1.383 . S
C896 C897 1.377 . S
C897 H881 0.930 . S
C897 C896 1.377 . S
C897 C898 1.379 . S
C898 H882 0.931 . S
C898 C892 1.383 . S
C898 C897 1.379 . S
H899 C893 0.959 . S
H900 C893 0.961 . S
H901 C893 0.960 . S
H902 C894 0.930 . S
H903 C895 0.929 . S
H904 C912 0.929 . S
H905 C914 0.930 . S
H906 C916 0.930 . S
H907 C919 0.929 . S
H908 C922 0.930 . S
H909 C924 0.960 . S
H910 C924 0.960 . S
H911 C924 0.960 . S
C912 H904 0.929 . S
C912 C913 1.377 . S
C912 C914 1.384 . S
C913 C912 1.377 . S
C913 C919 1.390 . S
C914 H905 0.930 . S
C914 C912 1.384 . S
C914 C915 1.372 . S
C915 C914 1.372 . S
C915 C916 1.400 . S
C915 C920 1.490 . S
C916 H906 0.930 . S
C916 C915 1.400 . S
C916 C919 1.386 . S
H917 C933 0.930 . S
H918 C934 0.931 . S
C919 H907 0.929 . S
C919 C913 1.390 . S
C919 C916 1.386 . S
C920 C915 1.490 . S
C920 C922 1.395 . S
C920 C923 1.403 . S
H921 C927 0.930 . S
C922 H908 0.930 . S
C922 C920 1.395 . S
C922 C925 1.403 . S
C923 C920 1.403 . S
C923 C924 1.524 . S
C923 C927 1.400 . S
C924 H909 0.960 . S
C924 H910 0.960 . S
C924 H911 0.960 . S
C924 C923 1.524 . S
C925 C922 1.403 . S
C925 C926 1.392 . S
C925 C929 1.495 . S
C926 C925 1.392 . S
C926 C927 1.385 . S
C926 C928 1.478 . S
C927 H921 0.930 . S
C927 C923 1.400 . S
C927 C926 1.385 . S
C928 C926 1.478 . S
C928 C930 1.381 . S
C928 C934 1.383 . S
C929 C925 1.495 . S
C929 H935 0.959 . S
C929 H936 0.961 . S
C929 H937 0.960 . S
C930 C928 1.381 . S
C930 C931 1.394 . S
C930 H938 0.930 . S
C931 C930 1.394 . S
C931 C932 1.383 . S
C931 H939 0.929 . S
C932 C931 1.383 . S
C932 C933 1.377 . S
C933 H917 0.930 . S
C933 C932 1.377 . S
C933 C934 1.379 . S
C934 H918 0.931 . S
C934 C928 1.383 . S
C934 C933 1.379 . S
H935 C929 0.959 . S
H936 C929 0.961 . S
H937 C929 0.960 . S
H938 C930 0.930 . S
H939 C931 0.929 . S
H940 C948 0.929 . S
H941 C950 0.930 . S
H942 C952 0.930 . S
H943 C955 0.929 . S
H944 C958 0.930 . S
H945 C960 0.960 . S
H946 C960 0.960 . S
H947 C960 0.960 . S
C948 H940 0.929 . S
C948 C949 1.377 . S
C948 C950 1.384 . S
C949 C948 1.377 . S
C949 C955 1.390 . S
C950 H941 0.930 . S
C950 C948 1.384 . S
C950 C951 1.372 . S
C951 C950 1.372 . S
C951 C952 1.400 . S
C951 C956 1.490 . S
C952 H942 0.930 . S
C952 C951 1.400 . S
C952 C955 1.386 . S
H953 C969 0.930 . S
H954 C970 0.931 . S
C955 H943 0.929 . S
C955 C949 1.390 . S
C955 C952 1.386 . S
C956 C951 1.490 . S
C956 C958 1.395 . S
C956 C959 1.403 . S
H957 C963 0.930 . S
C958 H944 0.930 . S
C958 C956 1.395 . S
C958 C961 1.403 . S
C959 C956 1.403 . S
C959 C960 1.524 . S
C959 C963 1.400 . S
C960 H945 0.960 . S
C960 H946 0.960 . S
C960 H947 0.960 . S
C960 C959 1.524 . S
C961 C958 1.403 . S
C961 C962 1.392 . S
C961 C965 1.495 . S
C962 C961 1.392 . S
C962 C963 1.385 . S
C962 C964 1.478 . S
C963 H957 0.930 . S
C963 C959 1.400 . S
C963 C962 1.385 . S
C964 C962 1.478 . S
C964 C966 1.381 . S
C964 C970 1.383 . S
C965 C961 1.495 . S
C965 H971 0.959 . S
C965 H972 0.961 . S
C965 H973 0.960 . S
C966 C964 1.381 . S
C966 C967 1.394 . S
C966 H974 0.930 . S
C967 C966 1.394 . S
C967 C968 1.383 . S
C967 H975 0.929 . S
C968 C967 1.383 . S
C968 C969 1.377 . S
C969 H953 0.930 . S
C969 C968 1.377 . S
C969 C970 1.379 . S
C970 H954 0.931 . S
C970 C964 1.383 . S
C970 C969 1.379 . S
H971 C965 0.959 . S
H972 C965 0.961 . S
H973 C965 0.960 . S
H974 C966 0.930 . S
H975 C967 0.929 . S
H976 C984 0.929 . S
H977 C986 0.930 . S
H978 C988 0.930 . S
H979 C991 0.929 . S
H980 C994 0.930 . S
H981 C996 0.960 . S
H982 C996 0.960 . S
H983 C996 0.960 . S
C984 H976 0.929 . S
C984 C985 1.377 . S
C984 C986 1.384 . S
C985 C984 1.377 . S
C985 C991 1.390 . S
C986 H977 0.930 . S
C986 C984 1.384 . S
C986 C987 1.372 . S
C987 C986 1.372 . S
C987 C988 1.400 . S
C987 C992 1.490 . S
C988 H978 0.930 . S
C988 C987 1.400 . S
C988 C991 1.386 . S
H989 C1005 0.930 . S
H990 C1006 0.931 . S
C991 H979 0.929 . S
C991 C985 1.390 . S
C991 C988 1.386 . S
C992 C987 1.490 . S
C992 C994 1.395 . S
C992 C995 1.403 . S
H993 C999 0.930 . S
C994 H980 0.930 . S
C994 C992 1.395 . S
C994 C997 1.403 . S
C995 C992 1.403 . S
C995 C996 1.524 . S
C995 C999 1.400 . S
C996 H981 0.960 . S
C996 H982 0.960 . S
C996 H983 0.960 . S
C996 C995 1.524 . S
C997 C994 1.403 . S
C997 C998 1.392 . S
C997 C1001 1.503 . S
C998 C997 1.392 . S
C998 C999 1.385 . S
C998 C1000 1.478 . S
C999 H993 0.930 . S
C999 C995 1.400 . S
C999 C998 1.385 . S
C1000 C998 1.478 . S
C1000 C1002 1.381 . S
C1000 C1006 1.383 . S
C1001 C997 1.503 . S
C1001 H1007 0.953 1_565 S
C1001 H1008 0.961 . S
C1001 H1009 0.958 1_565 S
C1002 C1000 1.381 . S
C1002 C1003 1.394 . S
C1002 H1010 0.930 . S
C1003 C1002 1.394 . S
C1003 C1004 1.383 . S
C1003 H1011 0.929 . S
C1004 C1003 1.383 . S
C1004 C1005 1.377 . S
C1005 H989 0.930 . S
C1005 C1004 1.377 . S
C1005 C1006 1.379 . S
C1006 H990 0.931 . S
C1006 C1000 1.383 . S
C1006 C1005 1.379 . S
H1007 C1001 0.953 1_545 S
H1008 C1001 0.961 . S
H1009 C1001 0.958 1_545 S
H1010 C1002 0.930 . S
H1011 C1003 0.929 . S
H1012 C1020 0.929 . S
H1013 C1022 0.930 . S
H1014 C1024 0.930 . S
H1015 C1027 0.929 . S
H1016 C1030 0.930 . S
H1017 C1032 0.960 . S
H1018 C1032 0.960 . S
H1019 C1032 0.960 . S
C1020 H1012 0.929 . S
C1020 C1021 1.377 . S
C1020 C1022 1.384 . S
C1021 C1020 1.377 . S
C1021 C1027 1.390 . S
C1022 H1013 0.930 . S
C1022 C1020 1.384 . S
C1022 C1023 1.372 . S
C1023 C1022 1.372 . S
C1023 C1024 1.400 . S
C1023 C1028 1.490 . S
C1024 H1014 0.930 . S
C1024 C1023 1.400 . S
C1024 C1027 1.386 . S
H1025 C1041 0.930 . S
H1026 C1042 0.931 . S
C1027 H1015 0.929 . S
C1027 C1021 1.390 . S
C1027 C1024 1.386 . S
C1028 C1023 1.490 . S
C1028 C1030 1.395 . S
C1028 C1031 1.403 . S
H1029 C1035 0.930 . S
C1030 H1016 0.930 . S
C1030 C1028 1.395 . S
C1030 C1033 1.403 . S
C1031 C1028 1.403 . S
C1031 C1032 1.524 . S
C1031 C1035 1.400 . S
C1032 H1017 0.960 . S
C1032 H1018 0.960 . S
C1032 H1019 0.960 . S
C1032 C1031 1.524 . S
C1033 C1030 1.403 . S
C1033 C1034 1.392 . S
C1033 C1037 1.495 . S
C1034 C1033 1.392 . S
C1034 C1035 1.385 . S
C1034 C1036 1.478 . S
C1035 H1029 0.930 . S
C1035 C1031 1.400 . S
C1035 C1034 1.385 . S
C1036 C1034 1.478 . S
C1036 C1038 1.381 . S
C1036 C1042 1.383 . S
C1037 C1033 1.495 . S
C1037 H1043 0.959 . S
C1037 H1044 0.961 . S
C1037 H1045 0.960 . S
C1038 C1036 1.381 . S
C1038 C1039 1.394 . S
C1038 H1046 0.930 . S
C1039 C1038 1.394 . S
C1039 C1040 1.383 . S
C1039 H1047 0.929 . S
C1040 C1039 1.383 . S
C1040 C1041 1.377 . S
C1041 H1025 0.930 . S
C1041 C1040 1.377 . S
C1041 C1042 1.379 . S
C1042 H1026 0.931 . S
C1042 C1036 1.383 . S
C1042 C1041 1.379 . S
H1043 C1037 0.959 . S
H1044 C1037 0.961 . S
H1045 C1037 0.960 . S
H1046 C1038 0.930 . S
H1047 C1039 0.929 . S
H1048 C1056 0.929 . S
H1049 C1058 0.930 . S
H1050 C1060 0.930 . S
H1051 C1063 0.929 . S
H1052 C1066 0.930 . S
H1053 C1068 0.960 . S
H1054 C1068 0.960 . S
H1055 C1068 0.960 . S
C1056 H1048 0.929 . S
C1056 C1057 1.377 . S
C1056 C1058 1.384 . S
C1057 C1056 1.377 . S
C1057 C1063 1.390 . S
C1058 H1049 0.930 . S
C1058 C1056 1.384 . S
C1058 C1059 1.372 . S
C1059 C1058 1.372 . S
C1059 C1060 1.400 . S
C1059 C1064 1.490 . S
C1060 H1050 0.930 . S
C1060 C1059 1.400 . S
C1060 C1063 1.386 . S
H1061 C1077 0.930 . S
H1062 C1078 0.931 . S
C1063 H1051 0.929 . S
C1063 C1057 1.390 . S
C1063 C1060 1.386 . S
C1064 C1059 1.490 . S
C1064 C1066 1.395 . S
C1064 C1067 1.403 . S
H1065 C1071 0.930 . S
C1066 H1052 0.930 . S
C1066 C1064 1.395 . S
C1066 C1069 1.403 . S
C1067 C1064 1.403 . S
C1067 C1068 1.524 . S
C1067 C1071 1.400 . S
C1068 H1053 0.960 . S
C1068 H1054 0.960 . S
C1068 H1055 0.960 . S
C1068 C1067 1.524 . S
C1069 C1066 1.403 . S
C1069 C1070 1.392 . S
C1069 C1073 1.495 . S
C1070 C1069 1.392 . S
C1070 C1071 1.385 . S
C1070 C1072 1.478 . S
C1071 H1065 0.930 . S
C1071 C1067 1.400 . S
C1071 C1070 1.385 . S
C1072 C1070 1.478 . S
C1072 C1074 1.381 . S
C1072 C1078 1.383 . S
C1073 C1069 1.495 . S
C1073 H1079 0.959 . S
C1073 H1080 0.961 . S
C1073 H1081 0.960 . S
C1074 C1072 1.381 . S
C1074 C1075 1.394 . S
C1074 H1082 0.930 . S
C1075 C1074 1.394 . S
C1075 C1076 1.383 . S
C1075 H1083 0.929 . S
C1076 C1075 1.383 . S
C1076 C1077 1.377 . S
C1077 H1061 0.930 . S
C1077 C1076 1.377 . S
C1077 C1078 1.379 . S
C1078 H1062 0.931 . S
C1078 C1072 1.383 . S
C1078 C1077 1.379 . S
H1079 C1073 0.959 . S
H1080 C1073 0.961 . S
H1081 C1073 0.960 . S
H1082 C1074 0.930 . S
H1083 C1075 0.929 . S
H1084 C1092 0.929 . S
H1085 C1094 0.930 . S
H1086 C1096 0.930 . S
H1087 C1099 0.929 . S
H1088 C1102 0.930 . S
H1089 C1104 0.960 . S
H1090 C1104 0.960 . S
H1091 C1104 0.960 . S
C1092 H1084 0.929 . S
C1092 C1093 1.377 . S
C1092 C1094 1.384 . S
C1093 C1092 1.377 . S
C1093 C1099 1.390 . S
C1094 H1085 0.930 . S
C1094 C1092 1.384 . S
C1094 C1095 1.372 . S
C1095 C1094 1.372 . S
C1095 C1096 1.400 . S
C1095 C1100 1.490 . S
C1096 H1086 0.930 . S
C1096 C1095 1.400 . S
C1096 C1099 1.386 . S
H1097 C1113 0.930 . S
H1098 C1114 0.931 . S
C1099 H1087 0.929 . S
C1099 C1093 1.390 . S
C1099 C1096 1.386 . S
C1100 C1095 1.490 . S
C1100 C1102 1.395 . S
C1100 C1103 1.403 . S
H1101 C1107 0.930 . S
C1102 H1088 0.930 . S
C1102 C1100 1.395 . S
C1102 C1105 1.403 . S
C1103 C1100 1.403 . S
C1103 C1104 1.524 . S
C1103 C1107 1.400 . S
C1104 H1089 0.960 . S
C1104 H1090 0.960 . S
C1104 H1091 0.960 . S
C1104 C1103 1.524 . S
C1105 C1102 1.403 . S
C1105 C1106 1.392 . S
C1105 C1109 1.495 . S
C1106 C1105 1.392 . S
C1106 C1107 1.385 . S
C1106 C1108 1.478 . S
C1107 H1101 0.930 . S
C1107 C1103 1.400 . S
C1107 C1106 1.385 . S
C1108 C1106 1.478 . S
C1108 C1110 1.381 . S
C1108 C1114 1.383 . S
C1109 C1105 1.495 . S
C1109 H1115 0.959 . S
C1109 H1116 0.961 . S
C1109 H1117 0.960 . S
C1110 C1108 1.381 . S
C1110 C1111 1.394 . S
C1110 H1118 0.930 . S
C1111 C1110 1.394 . S
C1111 C1112 1.383 . S
C1111 H1119 0.929 . S
C1112 C1111 1.383 . S
C1112 C1113 1.377 . S
C1113 H1097 0.930 . S
C1113 C1112 1.377 . S
C1113 C1114 1.379 . S
C1114 H1098 0.931 . S
C1114 C1108 1.383 . S
C1114 C1113 1.379 . S
H1115 C1109 0.959 . S
H1116 C1109 0.961 . S
H1117 C1109 0.960 . S
H1118 C1110 0.930 . S
H1119 C1111 0.929 . S
H1120 C1128 0.929 . S
H1121 C1130 0.930 . S
H1122 C1132 0.930 . S
H1123 C1135 0.929 . S
H1124 C1138 0.930 . S
H1125 C1140 0.960 . S
H1126 C1140 0.960 . S
H1127 C1140 0.960 . S
C1128 H1120 0.929 . S
C1128 C1129 1.377 . S
C1128 C1130 1.384 . S
C1129 C1128 1.377 . S
C1129 C1135 1.390 . S
C1130 H1121 0.930 . S
C1130 C1128 1.384 . S
C1130 C1131 1.372 . S
C1131 C1130 1.372 . S
C1131 C1132 1.400 . S
C1131 C1136 1.490 . S
C1132 H1122 0.930 . S
C1132 C1131 1.400 . S
C1132 C1135 1.386 . S
H1133 C1149 0.930 . S
H1134 C1150 0.931 . S
C1135 H1123 0.929 . S
C1135 C1129 1.390 . S
C1135 C1132 1.386 . S
C1136 C1131 1.490 . S
C1136 C1138 1.395 . S
C1136 C1139 1.403 . S
H1137 C1143 0.930 . S
C1138 H1124 0.930 . S
C1138 C1136 1.395 . S
C1138 C1141 1.403 . S
C1139 C1136 1.403 . S
C1139 C1140 1.524 . S
C1139 C1143 1.400 . S
C1140 H1125 0.960 . S
C1140 H1126 0.960 . S
C1140 H1127 0.960 . S
C1140 C1139 1.524 . S
C1141 C1138 1.403 . S
C1141 C1142 1.392 . S
C1141 C1145 1.495 . S
C1142 C1141 1.392 . S
C1142 C1143 1.385 . S
C1142 C1144 1.478 . S
C1143 H1137 0.930 . S
C1143 C1139 1.400 . S
C1143 C1142 1.385 . S
C1144 C1142 1.478 . S
C1144 C1146 1.381 . S
C1144 C1150 1.383 . S
C1145 C1141 1.495 . S
C1145 H1151 0.959 . S
C1145 H1152 0.961 . S
C1145 H1153 0.960 . S
C1146 C1144 1.381 . S
C1146 C1147 1.394 . S
C1146 H1154 0.930 . S
C1147 C1146 1.394 . S
C1147 C1148 1.383 . S
C1147 H1155 0.929 . S
C1148 C1147 1.383 . S
C1148 C1149 1.377 . S
C1149 H1133 0.930 . S
C1149 C1148 1.377 . S
C1149 C1150 1.379 . S
C1150 H1134 0.931 . S
C1150 C1144 1.383 . S
C1150 C1149 1.379 . S
H1151 C1145 0.959 . S
H1152 C1145 0.961 . S
H1153 C1145 0.960 . S
H1154 C1146 0.930 . S
H1155 C1147 0.929 . S
H1156 C1164 0.929 . S
H1157 C1166 0.930 . S
H1158 C1168 0.930 . S
H1159 C1171 0.929 . S
H1160 C1174 0.930 . S
H1161 C1176 0.960 . S
H1162 C1176 0.960 . S
H1163 C1176 0.960 . S
C1164 H1156 0.929 . S
C1164 C1165 1.377 . S
C1164 C1166 1.384 . S
C1165 C1164 1.377 . S
C1165 C1171 1.390 . S
C1166 H1157 0.930 . S
C1166 C1164 1.384 . S
C1166 C1167 1.372 . S
C1167 C1166 1.372 . S
C1167 C1168 1.400 . S
C1167 C1172 1.490 . S
C1168 H1158 0.930 . S
C1168 C1167 1.400 . S
C1168 C1171 1.386 . S
H1169 C1185 0.930 . S
H1170 C1186 0.931 . S
C1171 H1159 0.929 . S
C1171 C1165 1.390 . S
C1171 C1168 1.386 . S
C1172 C1167 1.490 . S
C1172 C1174 1.395 . S
C1172 C1175 1.403 . S
H1173 C1179 0.930 . S
C1174 H1160 0.930 . S
C1174 C1172 1.395 . S
C1174 C1177 1.403 . S
C1175 C1172 1.403 . S
C1175 C1176 1.524 . S
C1175 C1179 1.400 . S
C1176 H1161 0.960 . S
C1176 H1162 0.960 . S
C1176 H1163 0.960 . S
C1176 C1175 1.524 . S
C1177 C1174 1.403 . S
C1177 C1178 1.392 . S
C1177 C1181 1.495 . S
C1178 C1177 1.392 . S
C1178 C1179 1.385 . S
C1178 C1180 1.478 . S
C1179 H1173 0.930 . S
C1179 C1175 1.400 . S
C1179 C1178 1.385 . S
C1180 C1178 1.478 . S
C1180 C1182 1.381 . S
C1180 C1186 1.383 . S
C1181 C1177 1.495 . S
C1181 H1187 0.959 . S
C1181 H1188 0.961 . S
C1181 H1189 0.960 . S
C1182 C1180 1.381 . S
C1182 C1183 1.394 . S
C1182 H1190 0.930 . S
C1183 C1182 1.394 . S
C1183 C1184 1.383 . S
C1183 H1191 0.929 . S
C1184 C1183 1.383 . S
C1184 C1185 1.377 . S
C1185 H1169 0.930 . S
C1185 C1184 1.377 . S
C1185 C1186 1.379 . S
C1186 H1170 0.931 . S
C1186 C1180 1.383 . S
C1186 C1185 1.379 . S
H1187 C1181 0.959 . S
H1188 C1181 0.961 . S
H1189 C1181 0.960 . S
H1190 C1182 0.930 . S
H1191 C1183 0.929 . S
H1192 C1200 0.929 . S
H1193 C1202 0.930 . S
H1194 C1204 0.930 . S
H1195 C1207 0.929 . S
H1196 C1210 0.930 . S
H1197 C1212 0.960 . S
H1198 C1212 0.960 . S
H1199 C1212 0.960 . S
C1200 H1192 0.929 . S
C1200 C1201 1.377 . S
C1200 C1202 1.384 . S
C1201 C1200 1.377 . S
C1201 C1207 1.390 . S
C1202 H1193 0.930 . S
C1202 C1200 1.384 . S
C1202 C1203 1.372 . S
C1203 C1202 1.372 . S
C1203 C1204 1.400 . S
C1203 C1208 1.490 . S
C1204 H1194 0.930 . S
C1204 C1203 1.400 . S
C1204 C1207 1.386 . S
H1205 C1221 0.930 . S
H1206 C1222 0.931 . S
C1207 H1195 0.929 . S
C1207 C1201 1.390 . S
C1207 C1204 1.386 . S
C1208 C1203 1.490 . S
C1208 C1210 1.395 . S
C1208 C1211 1.403 . S
H1209 C1215 0.930 . S
C1210 H1196 0.930 . S
C1210 C1208 1.395 . S
C1210 C1213 1.403 . S
C1211 C1208 1.403 . S
C1211 C1212 1.524 . S
C1211 C1215 1.400 . S
C1212 H1197 0.960 . S
C1212 H1198 0.960 . S
C1212 H1199 0.960 . S
C1212 C1211 1.524 . S
C1213 C1210 1.403 . S
C1213 C1214 1.392 . S
C1213 C1217 1.495 . S
C1214 C1213 1.392 . S
C1214 C1215 1.385 . S
C1214 C1216 1.478 . S
C1215 H1209 0.930 . S
C1215 C1211 1.400 . S
C1215 C1214 1.385 . S
C1216 C1214 1.478 . S
C1216 C1218 1.381 . S
C1216 C1222 1.383 . S
C1217 C1213 1.495 . S
C1217 H1223 0.959 . S
C1217 H1224 0.961 . S
C1217 H1225 0.960 . S
C1218 C1216 1.381 . S
C1218 C1219 1.394 . S
C1218 H1226 0.930 . S
C1219 C1218 1.394 . S
C1219 C1220 1.383 . S
C1219 H1227 0.929 . S
C1220 C1219 1.383 . S
C1220 C1221 1.377 . S
C1221 H1205 0.930 . S
C1221 C1220 1.377 . S
C1221 C1222 1.379 . S
C1222 H1206 0.931 . S
C1222 C1216 1.383 . S
C1222 C1221 1.379 . S
H1223 C1217 0.959 . S
H1224 C1217 0.961 . S
H1225 C1217 0.960 . S
H1226 C1218 0.930 . S
H1227 C1219 0.929 . S
H1228 C1236 0.929 . S
H1229 C1238 0.930 . S
H1230 C1240 0.930 . S
H1231 C1243 0.929 . S
H1232 C1246 0.930 . S
H1233 C1248 0.960 . S
H1234 C1248 0.960 . S
H1235 C1248 0.960 . S
C1236 H1228 0.929 . S
C1236 C1237 1.377 . S
C1236 C1238 1.384 . S
C1237 C1236 1.377 . S
C1237 C1243 1.390 . S
C1238 H1229 0.930 . S
C1238 C1236 1.384 . S
C1238 C1239 1.372 . S
C1239 C1238 1.372 . S
C1239 C1240 1.400 . S
C1239 C1244 1.490 . S
C1240 H1230 0.930 . S
C1240 C1239 1.400 . S
C1240 C1243 1.386 . S
H1241 C1257 0.930 . S
H1242 C1258 0.931 . S
C1243 H1231 0.929 . S
C1243 C1237 1.390 . S
C1243 C1240 1.386 . S
C1244 C1239 1.490 . S
C1244 C1246 1.395 . S
C1244 C1247 1.403 . S
H1245 C1251 0.930 . S
C1246 H1232 0.930 . S
C1246 C1244 1.395 . S
C1246 C1249 1.403 . S
C1247 C1244 1.403 . S
C1247 C1248 1.524 . S
C1247 C1251 1.400 . S
C1248 H1233 0.960 . S
C1248 H1234 0.960 . S
C1248 H1235 0.960 . S
C1248 C1247 1.524 . S
C1249 C1246 1.403 . S
C1249 C1250 1.392 . S
C1249 C1253 1.495 . S
C1250 C1249 1.392 . S
C1250 C1251 1.385 . S
C1250 C1252 1.478 . S
C1251 H1245 0.930 . S
C1251 C1247 1.400 . S
C1251 C1250 1.385 . S
C1252 C1250 1.478 . S
C1252 C1254 1.381 . S
C1252 C1258 1.383 . S
C1253 C1249 1.495 . S
C1253 H1259 0.959 . S
C1253 H1260 0.961 . S
C1253 H1261 0.960 . S
C1254 C1252 1.381 . S
C1254 C1255 1.394 . S
C1254 H1262 0.930 . S
C1255 C1254 1.394 . S
C1255 C1256 1.383 . S
C1255 H1263 0.929 . S
C1256 C1255 1.383 . S
C1256 C1257 1.377 . S
C1257 H1241 0.930 . S
C1257 C1256 1.377 . S
C1257 C1258 1.379 . S
C1258 H1242 0.931 . S
C1258 C1252 1.383 . S
C1258 C1257 1.379 . S
H1259 C1253 0.959 . S
H1260 C1253 0.961 . S
H1261 C1253 0.960 . S
H1262 C1254 0.930 . S
H1263 C1255 0.929 . S
H1264 C1272 0.929 . S
H1265 C1274 0.930 . S
H1266 C1276 0.930 . S
H1267 C1279 0.929 . S
H1268 C1282 0.930 . S
H1269 C1284 0.960 . S
H1270 C1284 0.960 . S
H1271 C1284 0.960 . S
C1272 H1264 0.929 . S
C1272 C1273 1.377 . S
C1272 C1274 1.384 . S
C1273 C1272 1.377 . S
C1273 C1279 1.390 . S
C1274 H1265 0.930 . S
C1274 C1272 1.384 . S
C1274 C1275 1.372 . S
C1275 C1274 1.372 . S
C1275 C1276 1.400 . S
C1275 C1280 1.490 . S
C1276 H1266 0.930 . S
C1276 C1275 1.400 . S
C1276 C1279 1.386 . S
H1277 C1293 0.930 . S
H1278 C1294 0.931 . S
C1279 H1267 0.929 . S
C1279 C1273 1.390 . S
C1279 C1276 1.386 . S
C1280 C1275 1.490 . S
C1280 C1282 1.395 . S
C1280 C1283 1.403 . S
H1281 C1287 0.930 . S
C1282 H1268 0.930 . S
C1282 C1280 1.395 . S
C1282 C1285 1.403 . S
C1283 C1280 1.403 . S
C1283 C1284 1.524 . S
C1283 C1287 1.400 . S
C1284 H1269 0.960 . S
C1284 H1270 0.960 . S
C1284 H1271 0.960 . S
C1284 C1283 1.524 . S
C1285 C1282 1.403 . S
C1285 C1286 1.392 . S
C1285 C1289 1.495 . S
C1286 C1285 1.392 . S
C1286 C1287 1.385 . S
C1286 C1288 1.478 . S
C1287 H1281 0.930 . S
C1287 C1283 1.400 . S
C1287 C1286 1.385 . S
C1288 C1286 1.478 . S
C1288 C1290 1.381 . S
C1288 C1294 1.383 . S
C1289 C1285 1.495 . S
C1289 H1295 0.959 . S
C1289 H1296 0.961 . S
C1289 H1297 0.960 . S
C1290 C1288 1.381 . S
C1290 C1291 1.394 . S
C1290 H1298 0.930 . S
C1291 C1290 1.394 . S
C1291 C1292 1.383 . S
C1291 H1299 0.929 . S
C1292 C1291 1.383 . S
C1292 C1293 1.377 . S
C1293 H1277 0.930 . S
C1293 C1292 1.377 . S
C1293 C1294 1.379 . S
C1294 H1278 0.931 . S
C1294 C1288 1.383 . S
C1294 C1293 1.379 . S
H1295 C1289 0.959 . S
H1296 C1289 0.961 . S
H1297 C1289 0.960 . S
H1298 C1290 0.930 . S
H1299 C1291 0.929 . S
H1300 C1308 0.929 . S
H1301 C1310 0.930 . S
H1302 C1312 0.930 . S
H1303 C1315 0.929 . S
H1304 C1318 0.930 . S
H1305 C1320 0.960 . S
H1306 C1320 0.960 . S
H1307 C1320 0.960 . S
C1308 H1300 0.929 . S
C1308 C1309 1.377 . S
C1308 C1310 1.384 . S
C1309 C1308 1.377 . S
C1309 C1315 1.390 . S
C1310 H1301 0.930 . S
C1310 C1308 1.384 . S
C1310 C1311 1.372 . S
C1311 C1310 1.372 . S
C1311 C1312 1.400 . S
C1311 C1316 1.490 . S
C1312 H1302 0.930 . S
C1312 C1311 1.400 . S
C1312 C1315 1.386 . S
H1313 C1329 0.930 . S
H1314 C1330 0.931 . S
C1315 H1303 0.929 . S
C1315 C1309 1.390 . S
C1315 C1312 1.386 . S
C1316 C1311 1.490 . S
C1316 C1318 1.395 . S
C1316 C1319 1.403 . S
H1317 C1323 0.930 . S
C1318 H1304 0.930 . S
C1318 C1316 1.395 . S
C1318 C1321 1.403 . S
C1319 C1316 1.403 . S
C1319 C1320 1.524 . S
C1319 C1323 1.400 . S
C1320 H1305 0.960 . S
C1320 H1306 0.960 . S
C1320 H1307 0.960 . S
C1320 C1319 1.524 . S
C1321 C1318 1.403 . S
C1321 C1322 1.392 . S
C1321 C1325 1.495 . S
C1322 C1321 1.392 . S
C1322 C1323 1.385 . S
C1322 C1324 1.478 . S
C1323 H1317 0.930 . S
C1323 C1319 1.400 . S
C1323 C1322 1.385 . S
C1324 C1322 1.478 . S
C1324 C1326 1.381 . S
C1324 C1330 1.383 . S
C1325 C1321 1.495 . S
C1325 H1331 0.959 . S
C1325 H1332 0.961 . S
C1325 H1333 0.960 . S
C1326 C1324 1.381 . S
C1326 C1327 1.394 . S
C1326 H1334 0.930 . S
C1327 C1326 1.394 . S
C1327 C1328 1.383 . S
C1327 H1335 0.929 . S
C1328 C1327 1.383 . S
C1328 C1329 1.377 . S
C1329 H1313 0.930 . S
C1329 C1328 1.377 . S
C1329 C1330 1.379 . S
C1330 H1314 0.931 . S
C1330 C1324 1.383 . S
C1330 C1329 1.379 . S
H1331 C1325 0.959 . S
H1332 C1325 0.961 . S
H1333 C1325 0.960 . S
H1334 C1326 0.930 . S
H1335 C1327 0.929 . S
H1336 C1344 0.929 . S
H1337 C1346 0.930 . S
H1338 C1348 0.930 . S
H1339 C1351 0.929 . S
H1340 C1354 0.930 . S
H1341 C1356 0.960 . S
H1342 C1356 0.960 . S
H1343 C1356 0.960 . S
C1344 H1336 0.929 . S
C1344 C1345 1.377 . S
C1344 C1346 1.384 . S
C1345 C1344 1.377 . S
C1345 C1351 1.390 . S
C1346 H1337 0.930 . S
C1346 C1344 1.384 . S
C1346 C1347 1.372 . S
C1347 C1346 1.372 . S
C1347 C1348 1.400 . S
C1347 C1352 1.490 . S
C1348 H1338 0.930 . S
C1348 C1347 1.400 . S
C1348 C1351 1.386 . S
H1349 C1365 0.930 . S
H1350 C1366 0.931 . S
C1351 H1339 0.929 . S
C1351 C1345 1.390 . S
C1351 C1348 1.386 . S
C1352 C1347 1.490 . S
C1352 C1354 1.395 . S
C1352 C1355 1.403 . S
H1353 C1359 0.930 . S
C1354 H1340 0.930 . S
C1354 C1352 1.395 . S
C1354 C1357 1.403 . S
C1355 C1352 1.403 . S
C1355 C1356 1.524 . S
C1355 C1359 1.400 . S
C1356 H1341 0.960 . S
C1356 H1342 0.960 . S
C1356 H1343 0.960 . S
C1356 C1355 1.524 . S
C1357 C1354 1.403 . S
C1357 C1358 1.392 . S
C1357 C1361 1.495 . S
C1358 C1357 1.392 . S
C1358 C1359 1.385 . S
C1358 C1360 1.478 . S
C1359 H1353 0.930 . S
C1359 C1355 1.400 . S
C1359 C1358 1.385 . S
C1360 C1358 1.478 . S
C1360 C1362 1.381 . S
C1360 C1366 1.383 . S
C1361 C1357 1.495 . S
C1361 H1367 0.959 . S
C1361 H1368 0.961 . S
C1361 H1369 0.960 . S
C1362 C1360 1.381 . S
C1362 C1363 1.394 . S
C1362 H1370 0.930 . S
C1363 C1362 1.394 . S
C1363 C1364 1.383 . S
C1363 H1371 0.929 . S
C1364 C1363 1.383 . S
C1364 C1365 1.377 . S
C1365 H1349 0.930 . S
C1365 C1364 1.377 . S
C1365 C1366 1.379 . S
C1366 H1350 0.931 . S
C1366 C1360 1.383 . S
C1366 C1365 1.379 . S
H1367 C1361 0.959 . S
H1368 C1361 0.961 . S
H1369 C1361 0.960 . S
H1370 C1362 0.930 . S
H1371 C1363 0.929 . S
H1372 C1380 0.929 . S
H1373 C1382 0.930 . S
H1374 C1384 0.930 . S
H1375 C1387 0.929 . S
H1376 C1390 0.930 . S
H1377 C1392 0.960 . S
H1378 C1392 0.960 . S
H1379 C1392 0.960 . S
C1380 H1372 0.929 . S
C1380 C1381 1.377 . S
C1380 C1382 1.384 . S
C1381 C1380 1.377 . S
C1381 C1387 1.390 . S
C1382 H1373 0.930 . S
C1382 C1380 1.384 . S
C1382 C1383 1.372 . S
C1383 C1382 1.372 . S
C1383 C1384 1.400 . S
C1383 C1388 1.490 . S
C1384 H1374 0.930 . S
C1384 C1383 1.400 . S
C1384 C1387 1.386 . S
H1385 C1401 0.930 . S
H1386 C1402 0.931 . S
C1387 H1375 0.929 . S
C1387 C1381 1.390 . S
C1387 C1384 1.386 . S
C1388 C1383 1.490 . S
C1388 C1390 1.395 . S
C1388 C1391 1.403 . S
H1389 C1395 0.930 . S
C1390 H1376 0.930 . S
C1390 C1388 1.395 . S
C1390 C1393 1.403 . S
C1391 C1388 1.403 . S
C1391 C1392 1.524 . S
C1391 C1395 1.400 . S
C1392 H1377 0.960 . S
C1392 H1378 0.960 . S
C1392 H1379 0.960 . S
C1392 C1391 1.524 . S
C1393 C1390 1.403 . S
C1393 C1394 1.392 . S
C1393 C1397 1.495 . S
C1394 C1393 1.392 . S
C1394 C1395 1.385 . S
C1394 C1396 1.478 . S
C1395 H1389 0.930 . S
C1395 C1391 1.400 . S
C1395 C1394 1.385 . S
C1396 C1394 1.478 . S
C1396 C1398 1.381 . S
C1396 C1402 1.383 . S
C1397 C1393 1.495 . S
C1397 H1403 0.959 . S
C1397 H1404 0.961 . S
C1397 H1405 0.960 . S
C1398 C1396 1.381 . S
C1398 C1399 1.394 . S
C1398 H1406 0.930 . S
C1399 C1398 1.394 . S
C1399 C1400 1.383 . S
C1399 H1407 0.929 . S
C1400 C1399 1.383 . S
C1400 C1401 1.377 . S
C1401 H1385 0.930 . S
C1401 C1400 1.377 . S
C1401 C1402 1.379 . S
C1402 H1386 0.931 . S
C1402 C1396 1.383 . S
C1402 C1401 1.379 . S
H1403 C1397 0.959 . S
H1404 C1397 0.961 . S
H1405 C1397 0.960 . S
H1406 C1398 0.930 . S
H1407 C1399 0.929 . S
H1408 C1416 0.929 . S
H1409 C1418 0.930 . S
H1410 C1420 0.930 . S
H1411 C1423 0.929 . S
H1412 C1426 0.930 . S
H1413 C1428 0.960 . S
H1414 C1428 0.960 . S
H1415 C1428 0.960 . S
C1416 H1408 0.929 . S
C1416 C1417 1.377 . S
C1416 C1418 1.384 . S
C1417 C1416 1.377 . S
C1417 C1423 1.390 . S
C1418 H1409 0.930 . S
C1418 C1416 1.384 . S
C1418 C1419 1.372 . S
C1419 C1418 1.372 . S
C1419 C1420 1.400 . S
C1419 C1424 1.490 . S
C1420 H1410 0.930 . S
C1420 C1419 1.400 . S
C1420 C1423 1.386 . S
H1421 C1437 0.930 . S
H1422 C1438 0.931 . S
C1423 H1411 0.929 . S
C1423 C1417 1.390 . S
C1423 C1420 1.386 . S
C1424 C1419 1.490 . S
C1424 C1426 1.395 . S
C1424 C1427 1.403 . S
H1425 C1431 0.930 . S
C1426 H1412 0.930 . S
C1426 C1424 1.395 . S
C1426 C1429 1.403 . S
C1427 C1424 1.403 . S
C1427 C1428 1.524 . S
C1427 C1431 1.400 . S
C1428 H1413 0.960 . S
C1428 H1414 0.960 . S
C1428 H1415 0.960 . S
C1428 C1427 1.524 . S
C1429 C1426 1.403 . S
C1429 C1430 1.392 . S
C1429 C1433 1.495 . S
C1430 C1429 1.392 . S
C1430 C1431 1.385 . S
C1430 C1432 1.478 . S
C1431 H1425 0.930 . S
C1431 C1427 1.400 . S
C1431 C1430 1.385 . S
C1432 C1430 1.478 . S
C1432 C1434 1.381 . S
C1432 C1438 1.383 . S
C1433 C1429 1.495 . S
C1433 H1439 0.959 . S
C1433 H1440 0.961 . S
C1433 H1441 0.960 . S
C1434 C1432 1.381 . S
C1434 C1435 1.394 . S
C1434 H1442 0.930 . S
C1435 C1434 1.394 . S
C1435 C1436 1.383 . S
C1435 H1443 0.929 . S
C1436 C1435 1.383 . S
C1436 C1437 1.377 . S
C1437 H1421 0.930 . S
C1437 C1436 1.377 . S
C1437 C1438 1.379 . S
C1438 H1422 0.931 . S
C1438 C1432 1.383 . S
C1438 C1437 1.379 . S
H1439 C1433 0.959 . S
H1440 C1433 0.961 . S
H1441 C1433 0.960 . S
H1442 C1434 0.930 . S
H1443 C1435 0.929 . S
H1444 C1452 0.929 . S
H1445 C1454 0.930 . S
H1446 C1456 0.930 . S
H1447 C1459 0.929 . S
H1448 C1462 0.930 . S
H1449 C1464 0.960 . S
H1450 C1464 0.960 . S
H1451 C1464 0.960 . S
C1452 H1444 0.929 . S
C1452 C1453 1.377 . S
C1452 C1454 1.384 . S
C1453 C1452 1.377 . S
C1453 C1459 1.390 . S
C1454 H1445 0.930 . S
C1454 C1452 1.384 . S
C1454 C1455 1.372 . S
C1455 C1454 1.372 . S
C1455 C1456 1.400 . S
C1455 C1460 1.490 . S
C1456 H1446 0.930 . S
C1456 C1455 1.400 . S
C1456 C1459 1.386 . S
H1457 C1473 0.930 . S
H1458 C1474 0.931 . S
C1459 H1447 0.929 . S
C1459 C1453 1.390 . S
C1459 C1456 1.386 . S
C1460 C1455 1.490 . S
C1460 C1462 1.395 . S
C1460 C1463 1.403 . S
H1461 C1467 0.930 . S
C1462 H1448 0.930 . S
C1462 C1460 1.395 . S
C1462 C1465 1.403 . S
C1463 C1460 1.403 . S
C1463 C1464 1.524 . S
C1463 C1467 1.400 . S
C1464 H1449 0.960 . S
C1464 H1450 0.960 . S
C1464 H1451 0.960 . S
C1464 C1463 1.524 . S
C1465 C1462 1.403 . S
C1465 C1466 1.392 . S
C1465 C1469 1.495 . S
C1466 C1465 1.392 . S
C1466 C1467 1.385 . S
C1466 C1468 1.478 . S
C1467 H1461 0.930 . S
C1467 C1463 1.400 . S
C1467 C1466 1.385 . S
C1468 C1466 1.478 . S
C1468 C1470 1.381 . S
C1468 C1474 1.383 . S
C1469 C1465 1.495 . S
C1469 H1475 0.959 . S
C1469 H1476 0.961 . S
C1469 H1477 0.960 . S
C1470 C1468 1.381 . S
C1470 C1471 1.394 . S
C1470 H1478 0.930 . S
C1471 C1470 1.394 . S
C1471 C1472 1.383 . S
C1471 H1479 0.929 . S
C1472 C1471 1.383 . S
C1472 C1473 1.377 . S
C1473 H1457 0.930 . S
C1473 C1472 1.377 . S
C1473 C1474 1.379 . S
C1474 H1458 0.931 . S
C1474 C1468 1.383 . S
C1474 C1473 1.379 . S
H1475 C1469 0.959 . S
H1476 C1469 0.961 . S
H1477 C1469 0.960 . S
H1478 C1470 0.930 . S
H1479 C1471 0.929 . S
H1480 C1488 0.929 . S
H1481 C1490 0.930 . S
H1482 C1492 0.930 . S
H1483 C1495 0.929 . S
H1484 C1498 0.930 . S
H1485 C1500 0.960 . S
H1486 C1500 0.960 . S
H1487 C1500 0.960 . S
C1488 H1480 0.929 . S
C1488 C1489 1.377 . S
C1488 C1490 1.384 . S
C1489 C1488 1.377 . S
C1489 C1495 1.390 . S
C1490 H1481 0.930 . S
C1490 C1488 1.384 . S
C1490 C1491 1.372 . S
C1491 C1490 1.372 . S
C1491 C1492 1.400 . S
C1491 C1496 1.490 . S
C1492 H1482 0.930 . S
C1492 C1491 1.400 . S
C1492 C1495 1.386 . S
H1493 C1509 0.930 . S
H1494 C1510 0.931 . S
C1495 H1483 0.929 . S
C1495 C1489 1.390 . S
C1495 C1492 1.386 . S
C1496 C1491 1.490 . S
C1496 C1498 1.395 . S
C1496 C1499 1.403 . S
H1497 C1503 0.930 . S
C1498 H1484 0.930 . S
C1498 C1496 1.395 . S
C1498 C1501 1.403 . S
C1499 C1496 1.403 . S
C1499 C1500 1.524 . S
C1499 C1503 1.400 . S
C1500 H1485 0.960 . S
C1500 H1486 0.960 . S
C1500 H1487 0.960 . S
C1500 C1499 1.524 . S
C1501 C1498 1.403 . S
C1501 C1502 1.392 . S
C1501 C1505 1.495 . S
C1502 C1501 1.392 . S
C1502 C1503 1.385 . S
C1502 C1504 1.478 . S
C1503 H1497 0.930 . S
C1503 C1499 1.400 . S
C1503 C1502 1.385 . S
C1504 C1502 1.478 . S
C1504 C1506 1.381 . S
C1504 C1510 1.383 . S
C1505 C1501 1.495 . S
C1505 H1511 0.959 . S
C1505 H1512 0.961 . S
C1505 H1513 0.960 . S
C1506 C1504 1.381 . S
C1506 C1507 1.394 . S
C1506 H1514 0.930 . S
C1507 C1506 1.394 . S
C1507 C1508 1.383 . S
C1507 H1515 0.929 . S
C1508 C1507 1.383 . S
C1508 C1509 1.377 . S
C1509 H1493 0.930 . S
C1509 C1508 1.377 . S
C1509 C1510 1.379 . S
C1510 H1494 0.931 . S
C1510 C1504 1.383 . S
C1510 C1509 1.379 . S
H1511 C1505 0.959 . S
H1512 C1505 0.961 . S
H1513 C1505 0.960 . S
H1514 C1506 0.930 . S
H1515 C1507 0.929 . S
H1516 C1524 0.929 . S
H1517 C1526 0.930 . S
H1518 C1528 0.930 . S
H1519 C1531 0.929 . S
H1520 C1534 0.930 . S
H1521 C1536 0.960 . S
H1522 C1536 0.960 . S
H1523 C1536 0.960 . S
C1524 H1516 0.929 . S
C1524 C1525 1.377 . S
C1524 C1526 1.384 . S
C1525 C1524 1.377 . S
C1525 C1531 1.390 . S
C1526 H1517 0.930 . S
C1526 C1524 1.384 . S
C1526 C1527 1.372 . S
C1527 C1526 1.372 . S
C1527 C1528 1.400 . S
C1527 C1532 1.490 . S
C1528 H1518 0.930 . S
C1528 C1527 1.400 . S
C1528 C1531 1.386 . S
H1529 C1545 0.930 . S
H1530 C1546 0.931 . S
C1531 H1519 0.929 . S
C1531 C1525 1.390 . S
C1531 C1528 1.386 . S
C1532 C1527 1.490 . S
C1532 C1534 1.395 . S
C1532 C1535 1.403 . S
H1533 C1539 0.930 . S
C1534 H1520 0.930 . S
C1534 C1532 1.395 . S
C1534 C1537 1.403 . S
C1535 C1532 1.403 . S
C1535 C1536 1.524 . S
C1535 C1539 1.400 . S
C1536 H1521 0.960 . S
C1536 H1522 0.960 . S
C1536 H1523 0.960 . S
C1536 C1535 1.524 . S
C1537 C1534 1.403 . S
C1537 C1538 1.392 . S
C1537 C1541 1.495 . S
C1538 C1537 1.392 . S
C1538 C1539 1.385 . S
C1538 C1540 1.478 . S
C1539 H1533 0.930 . S
C1539 C1535 1.400 . S
C1539 C1538 1.385 . S
C1540 C1538 1.478 . S
C1540 C1542 1.381 . S
C1540 C1546 1.383 . S
C1541 C1537 1.495 . S
C1541 H1547 0.959 . S
C1541 H1548 0.961 . S
C1541 H1549 0.960 . S
C1542 C1540 1.381 . S
C1542 C1543 1.394 . S
C1542 H1550 0.930 . S
C1543 C1542 1.394 . S
C1543 C1544 1.383 . S
C1543 H1551 0.929 . S
C1544 C1543 1.383 . S
C1544 C1545 1.377 . S
C1545 H1529 0.930 . S
C1545 C1544 1.377 . S
C1545 C1546 1.379 . S
C1546 H1530 0.931 . S
C1546 C1540 1.383 . S
C1546 C1545 1.379 . S
H1547 C1541 0.959 . S
H1548 C1541 0.961 . S
H1549 C1541 0.960 . S
H1550 C1542 0.930 . S
H1551 C1543 0.929 . S
H1552 C1560 0.929 . S
H1553 C1562 0.930 . S
H1554 C1564 0.930 . S
H1555 C1567 0.929 . S
H1556 C1570 0.930 . S
H1557 C1572 0.960 . S
H1558 C1572 0.960 . S
H1559 C1572 0.960 . S
C1560 H1552 0.929 . S
C1560 C1561 1.377 . S
C1560 C1562 1.384 . S
C1561 C1560 1.377 . S
C1561 C1567 1.390 . S
C1562 H1553 0.930 . S
C1562 C1560 1.384 . S
C1562 C1563 1.372 . S
C1563 C1562 1.372 . S
C1563 C1564 1.400 . S
C1563 C1568 1.490 . S
C1564 H1554 0.930 . S
C1564 C1563 1.400 . S
C1564 C1567 1.386 . S
H1565 C1581 0.930 . S
H1566 C1582 0.931 . S
C1567 H1555 0.929 . S
C1567 C1561 1.390 . S
C1567 C1564 1.386 . S
C1568 C1563 1.490 . S
C1568 C1570 1.395 . S
C1568 C1571 1.403 . S
H1569 C1575 0.930 . S
C1570 H1556 0.930 . S
C1570 C1568 1.395 . S
C1570 C1573 1.403 . S
C1571 C1568 1.403 . S
C1571 C1572 1.524 . S
C1571 C1575 1.400 . S
C1572 H1557 0.960 . S
C1572 H1558 0.960 . S
C1572 H1559 0.960 . S
C1572 C1571 1.524 . S
C1573 C1570 1.403 . S
C1573 C1574 1.392 . S
C1573 C1577 1.495 . S
C1574 C1573 1.392 . S
C1574 C1575 1.385 . S
C1574 C1576 1.478 . S
C1575 H1569 0.930 . S
C1575 C1571 1.400 . S
C1575 C1574 1.385 . S
C1576 C1574 1.478 . S
C1576 C1578 1.381 . S
C1576 C1582 1.383 . S
C1577 C1573 1.495 . S
C1577 H1583 0.959 . S
C1577 H1584 0.961 . S
C1577 H1585 0.960 . S
C1578 C1576 1.381 . S
C1578 C1579 1.394 . S
C1578 H1586 0.930 . S
C1579 C1578 1.394 . S
C1579 C1580 1.383 . S
C1579 H1587 0.929 . S
C1580 C1579 1.383 . S
C1580 C1581 1.377 . S
C1581 H1565 0.930 . S
C1581 C1580 1.377 . S
C1581 C1582 1.379 . S
C1582 H1566 0.931 . S
C1582 C1576 1.383 . S
C1582 C1581 1.379 . S
H1583 C1577 0.959 . S
H1584 C1577 0.961 . S
H1585 C1577 0.960 . S
H1586 C1578 0.930 . S
H1587 C1579 0.929 . S
H1588 C1596 0.929 . S
H1589 C1598 0.930 . S
H1590 C1600 0.930 . S
H1591 C1603 0.929 . S
H1592 C1606 0.930 . S
H1593 C1608 0.960 . S
H1594 C1608 0.960 . S
H1595 C1608 0.960 . S
C1596 H1588 0.929 . S
C1596 C1597 1.377 . S
C1596 C1598 1.384 . S
C1597 C1596 1.377 . S
C1597 C1603 1.390 . S
C1598 H1589 0.930 . S
C1598 C1596 1.384 . S
C1598 C1599 1.372 . S
C1599 C1598 1.372 . S
C1599 C1600 1.400 . S
C1599 C1604 1.490 . S
C1600 H1590 0.930 . S
C1600 C1599 1.400 . S
C1600 C1603 1.386 . S
H1601 C1617 0.930 . S
H1602 C1618 0.931 . S
C1603 H1591 0.929 . S
C1603 C1597 1.390 . S
C1603 C1600 1.386 . S
C1604 C1599 1.490 . S
C1604 C1606 1.395 . S
C1604 C1607 1.403 . S
H1605 C1611 0.930 . S
C1606 H1592 0.930 . S
C1606 C1604 1.395 . S
C1606 C1609 1.403 . S
C1607 C1604 1.403 . S
C1607 C1608 1.524 . S
C1607 C1611 1.400 . S
C1608 H1593 0.960 . S
C1608 H1594 0.960 . S
C1608 H1595 0.960 . S
C1608 C1607 1.524 . S
C1609 C1606 1.403 . S
C1609 C1610 1.392 . S
C1609 C1613 1.495 . S
C1610 C1609 1.392 . S
C1610 C1611 1.385 . S
C1610 C1612 1.478 . S
C1611 H1605 0.930 . S
C1611 C1607 1.400 . S
C1611 C1610 1.385 . S
C1612 C1610 1.478 . S
C1612 C1614 1.381 . S
C1612 C1618 1.383 . S
C1613 C1609 1.495 . S
C1613 H1619 0.959 . S
C1613 H1620 0.961 . S
C1613 H1621 0.960 . S
C1614 C1612 1.381 . S
C1614 C1615 1.394 . S
C1614 H1622 0.930 . S
C1615 C1614 1.394 . S
C1615 C1616 1.383 . S
C1615 H1623 0.929 . S
C1616 C1615 1.383 . S
C1616 C1617 1.377 . S
C1617 H1601 0.930 . S
C1617 C1616 1.377 . S
C1617 C1618 1.379 . S
C1618 H1602 0.931 . S
C1618 C1612 1.383 . S
C1618 C1617 1.379 . S
H1619 C1613 0.959 . S
H1620 C1613 0.961 . S
H1621 C1613 0.960 . S
H1622 C1614 0.930 . S
H1623 C1615 0.929 . S
H1624 C1632 0.929 . S
H1625 C1634 0.930 . S
H1626 C1636 0.930 . S
H1627 C1639 0.929 . S
H1628 C1642 0.930 . S
H1629 C1644 0.960 . S
H1630 C1644 0.960 . S
H1631 C1644 0.960 . S
C1632 H1624 0.929 . S
C1632 C1633 1.377 . S
C1632 C1634 1.384 . S
C1633 C1632 1.377 . S
C1633 C1639 1.390 . S
C1634 H1625 0.930 . S
C1634 C1632 1.384 . S
C1634 C1635 1.372 . S
C1635 C1634 1.372 . S
C1635 C1636 1.400 . S
C1635 C1640 1.490 . S
C1636 H1626 0.930 . S
C1636 C1635 1.400 . S
C1636 C1639 1.386 . S
H1637 C1653 0.930 . S
H1638 C1654 0.931 . S
C1639 H1627 0.929 . S
C1639 C1633 1.390 . S
C1639 C1636 1.386 . S
C1640 C1635 1.490 . S
C1640 C1642 1.395 . S
C1640 C1643 1.403 . S
H1641 C1647 0.930 . S
C1642 H1628 0.930 . S
C1642 C1640 1.395 . S
C1642 C1645 1.403 . S
C1643 C1640 1.403 . S
C1643 C1644 1.524 . S
C1643 C1647 1.400 . S
C1644 H1629 0.960 . S
C1644 H1630 0.960 . S
C1644 H1631 0.960 . S
C1644 C1643 1.524 . S
C1645 C1642 1.403 . S
C1645 C1646 1.392 . S
C1645 C1649 1.495 . S
C1646 C1645 1.392 . S
C1646 C1647 1.385 . S
C1646 C1648 1.478 . S
C1647 H1641 0.930 . S
C1647 C1643 1.400 . S
C1647 C1646 1.385 . S
C1648 C1646 1.478 . S
C1648 C1650 1.381 . S
C1648 C1654 1.383 . S
C1649 C1645 1.495 . S
C1649 H1655 0.959 . S
C1649 H1656 0.961 . S
C1649 H1657 0.960 . S
C1650 C1648 1.381 . S
C1650 C1651 1.394 . S
C1650 H1658 0.930 . S
C1651 C1650 1.394 . S
C1651 C1652 1.383 . S
C1651 H1659 0.929 . S
C1652 C1651 1.383 . S
C1652 C1653 1.377 . S
C1653 H1637 0.930 . S
C1653 C1652 1.377 . S
C1653 C1654 1.379 . S
C1654 H1638 0.931 . S
C1654 C1648 1.383 . S
C1654 C1653 1.379 . S
H1655 C1649 0.959 . S
H1656 C1649 0.961 . S
H1657 C1649 0.960 . S
H1658 C1650 0.930 . S
H1659 C1651 0.929 . S
H1660 C1668 0.929 . S
H1661 C1670 0.930 . S
H1662 C1672 0.930 . S
H1663 C1675 0.929 . S
H1664 C1678 0.930 . S
H1665 C1680 0.960 . S
H1666 C1680 0.960 . S
H1667 C1680 0.960 . S
C1668 H1660 0.929 . S
C1668 C1669 1.377 . S
C1668 C1670 1.384 . S
C1669 C1668 1.377 . S
C1669 C1675 1.390 . S
C1670 H1661 0.930 . S
C1670 C1668 1.384 . S
C1670 C1671 1.372 . S
C1671 C1670 1.372 . S
C1671 C1672 1.400 . S
C1671 C1676 1.490 . S
C1672 H1662 0.930 . S
C1672 C1671 1.400 . S
C1672 C1675 1.386 . S
H1673 C1689 0.930 . S
H1674 C1690 0.931 . S
C1675 H1663 0.929 . S
C1675 C1669 1.390 . S
C1675 C1672 1.386 . S
C1676 C1671 1.490 . S
C1676 C1678 1.395 . S
C1676 C1679 1.403 . S
H1677 C1683 0.930 . S
C1678 H1664 0.930 . S
C1678 C1676 1.395 . S
C1678 C1681 1.403 . S
C1679 C1676 1.403 . S
C1679 C1680 1.524 . S
C1679 C1683 1.400 . S
C1680 H1665 0.960 . S
C1680 H1666 0.960 . S
C1680 H1667 0.960 . S
C1680 C1679 1.524 . S
C1681 C1678 1.403 . S
C1681 C1682 1.392 . S
C1681 C1685 1.495 . S
C1682 C1681 1.392 . S
C1682 C1683 1.385 . S
C1682 C1684 1.478 . S
C1683 H1677 0.930 . S
C1683 C1679 1.400 . S
C1683 C1682 1.385 . S
C1684 C1682 1.478 . S
C1684 C1686 1.381 . S
C1684 C1690 1.383 . S
C1685 C1681 1.495 . S
C1685 H1691 0.959 . S
C1685 H1692 0.961 . S
C1685 H1693 0.960 . S
C1686 C1684 1.381 . S
C1686 C1687 1.394 . S
C1686 H1694 0.930 . S
C1687 C1686 1.394 . S
C1687 C1688 1.383 . S
C1687 H1695 0.929 . S
C1688 C1687 1.383 . S
C1688 C1689 1.377 . S
C1689 H1673 0.930 . S
C1689 C1688 1.377 . S
C1689 C1690 1.379 . S
C1690 H1674 0.931 . S
C1690 C1684 1.383 . S
C1690 C1689 1.379 . S
H1691 C1685 0.959 . S
H1692 C1685 0.961 . S
H1693 C1685 0.960 . S
H1694 C1686 0.930 . S
H1695 C1687 0.929 . S
H1696 C1704 0.929 . S
H1697 C1706 0.930 1_565 S
H1698 C1708 0.930 1_556 S
H1699 C1711 0.929 1_556 S
H1700 C1714 0.930 . S
H1701 C1716 0.960 . S
H1702 C1716 0.960 . S
H1703 C1716 0.960 1_545 S
C1704 H1696 0.929 . S
C1704 C1705 1.377 . S
C1704 C1706 1.384 . S
C1705 C1704 1.377 . S
C1705 C1711 1.390 . S
C1706 H1697 0.930 1_545 S
C1706 C1704 1.384 . S
C1706 C1707 1.372 . S
C1707 C1706 1.372 . S
C1707 C1708 1.400 . S
C1707 C1712 1.490 . S
C1708 H1698 0.930 1_554 S
C1708 C1707 1.400 . S
C1708 C1711 1.386 . S
H1709 C1725 0.930 . S
H1710 C1726 0.931 1_545 S
C1711 H1699 0.929 1_554 S
C1711 C1705 1.390 . S
C1711 C1708 1.386 . S
C1712 C1707 1.490 . S
C1712 C1714 1.395 . S
C1712 C1715 1.403 1_544 S
H1713 C1719 0.930 . S
C1714 H1700 0.930 . S
C1714 C1712 1.395 . S
C1714 C1717 1.403 . S
C1715 C1712 1.403 1_566 S
C1715 C1716 1.524 . S
C1715 C1719 1.400 . S
C1716 H1701 0.960 . S
C1716 H1702 0.960 . S
C1716 H1703 0.960 1_565 S
C1716 C1715 1.524 . S
C1717 C1714 1.403 . S
C1717 C1718 1.392 1_544 S
C1717 C1721 1.495 . S
C1718 C1717 1.392 1_566 S
C1718 C1719 1.385 . S
C1718 C1720 1.478 . S
C1719 H1713 0.930 . S
C1719 C1715 1.400 . S
C1719 C1718 1.385 . S
C1720 C1718 1.478 . S
C1720 C1722 1.381 1_556 S
C1720 C1726 1.383 . S
C1721 C1717 1.495 . S
C1721 H1727 0.959 . S
C1721 H1728 0.961 . S
C1721 H1729 0.960 1_545 S
C1722 C1720 1.381 1_554 S
C1722 C1723 1.394 1_554 S
C1722 H1730 0.930 . S
C1723 C1722 1.394 1_556 S
C1723 C1724 1.383 . S
C1723 H1731 0.929 1_556 S
C1724 C1723 1.383 . S
C1724 C1725 1.377 . S
C1725 H1709 0.930 . S
C1725 C1724 1.377 . S
C1725 C1726 1.379 . S
C1726 H1710 0.931 1_565 S
C1726 C1720 1.383 . S
C1726 C1725 1.379 . S
H1727 C1721 0.959 . S
H1728 C1721 0.961 . S
H1729 C1721 0.960 1_565 S
H1730 C1722 0.930 . S
H1731 C1723 0.929 1_554 S
H1732 C1740 0.929 . S
H1733 C1742 0.930 . S
H1734 C1744 0.930 . S
H1735 C1747 0.929 . S
H1736 C1750 0.930 . S
H1737 C1752 0.960 . S
H1738 C1752 0.960 . S
H1739 C1752 0.960 . S
C1740 H1732 0.929 . S
C1740 C1741 1.377 . S
C1740 C1742 1.384 . S
C1741 C1740 1.377 . S
C1741 C1747 1.390 . S
C1742 H1733 0.930 . S
C1742 C1740 1.384 . S
C1742 C1743 1.372 . S
C1743 C1742 1.372 . S
C1743 C1744 1.400 . S
C1743 C1748 1.490 . S
C1744 H1734 0.930 . S
C1744 C1743 1.400 . S
C1744 C1747 1.386 . S
H1745 C1761 0.930 . S
H1746 C1762 0.931 . S
C1747 H1735 0.929 . S
C1747 C1741 1.390 . S
C1747 C1744 1.386 . S
C1748 C1743 1.490 . S
C1748 C1750 1.395 1_556 S
C1748 C1751 1.403 . S
H1749 C1755 0.930 . S
C1750 H1736 0.930 . S
C1750 C1748 1.395 1_554 S
C1750 C1753 1.403 . S
C1751 C1748 1.403 . S
C1751 C1752 1.524 . S
C1751 C1755 1.400 . S
C1752 H1737 0.960 . S
C1752 H1738 0.960 . S
C1752 H1739 0.960 . S
C1752 C1751 1.524 . S
C1753 C1750 1.403 . S
C1753 C1754 1.392 . S
C1753 C1757 1.495 . S
C1754 C1753 1.392 . S
C1754 C1755 1.385 1_554 S
C1754 C1756 1.478 . S
C1755 H1749 0.930 . S
C1755 C1751 1.400 . S
C1755 C1754 1.385 1_556 S
C1756 C1754 1.478 . S
C1756 C1758 1.381 . S
C1756 C1762 1.383 . S
C1757 C1753 1.495 . S
C1757 H1763 0.959 . S
C1757 H1764 0.961 . S
C1757 H1765 0.960 . S
C1758 C1756 1.381 . S
C1758 C1759 1.394 . S
C1758 H1766 0.930 . S
C1759 C1758 1.394 . S
C1759 C1760 1.383 . S
C1759 H1767 0.929 . S
C1760 C1759 1.383 . S
C1760 C1761 1.377 . S
C1761 H1745 0.930 . S
C1761 C1760 1.377 . S
C1761 C1762 1.379 . S
C1762 H1746 0.931 . S
C1762 C1756 1.383 . S
C1762 C1761 1.379 . S
H1763 C1757 0.959 . S
H1764 C1757 0.961 . S
H1765 C1757 0.960 . S
H1766 C1758 0.930 . S
H1767 C1759 0.929 . S
H1768 C1776 0.929 1_554 S
H1769 C1778 0.920 1_554 S
H1770 C1780 0.930 . S
H1771 C1783 0.929 . S
H1772 C1786 0.930 . S
H1773 C1788 0.960 . S
H1774 C1788 0.960 . S
H1775 C1788 0.960 1_556 S
C1776 H1768 0.929 1_556 S
C1776 C1777 1.377 . S
C1776 C1778 1.388 . S
C1777 C1776 1.377 . S
C1777 C1783 1.390 . S
C1778 H1769 0.920 1_556 S
C1778 C1776 1.388 . S
C1778 C1779 1.379 . S
C1779 C1778 1.379 . S
C1779 C1780 1.400 . S
C1779 C1784 1.490 . S
C1780 H1770 0.930 . S
C1780 C1779 1.400 . S
C1780 C1783 1.386 . S
H1781 C1797 0.930 1_556 S
H1782 C1798 0.931 . S
C1783 H1771 0.929 . S
C1783 C1777 1.390 . S
C1783 C1780 1.386 . S
C1784 C1779 1.490 . S
C1784 C1786 1.395 . S
C1784 C1787 1.403 1_556 S
H1785 C1791 0.930 . S
C1786 H1772 0.930 . S
C1786 C1784 1.395 . S
C1786 C1789 1.403 1_456 S
C1787 C1784 1.403 1_554 S
C1787 C1788 1.524 . S
C1787 C1791 1.400 1_455 S
C1788 H1773 0.960 . S
C1788 H1774 0.960 . S
C1788 H1775 0.960 1_554 S
C1788 C1787 1.524 . S
C1789 C1786 1.403 1_654 S
C1789 C1790 1.392 . S
C1789 C1793 1.496 . S
C1790 C1789 1.392 . S
C1790 C1791 1.385 . S
C1790 C1792 1.478 . S
C1791 H1785 0.930 . S
C1791 C1787 1.400 1_655 S
C1791 C1790 1.385 . S
C1792 C1790 1.478 . S
C1792 C1794 1.381 . S
C1792 C1798 1.383 1_554 S
C1793 C1789 1.496 . S
C1793 H1799 0.952 1_554 S
C1793 H1800 0.942 1_554 S
C1793 H1801 0.987 . S
C1794 C1792 1.381 . S
C1794 C1795 1.394 . S
C1794 H1802 0.930 . S
C1795 C1794 1.394 . S
C1795 C1796 1.383 . S
C1795 H1803 0.929 . S
C1796 C1795 1.383 . S
C1796 C1797 1.377 . S
C1797 H1781 0.930 1_554 S
C1797 C1796 1.377 . S
C1797 C1798 1.379 1_554 S
C1798 H1782 0.931 . S
C1798 C1792 1.383 1_556 S
C1798 C1797 1.379 1_556 S
H1799 C1793 0.952 1_556 S
H1800 C1793 0.942 1_556 S
H1801 C1793 0.987 . S
H1802 C1794 0.930 . S
H1803 C1795 0.929 . S
H1804 C1812 0.929 . S
H1805 C1814 0.930 1_655 S
H1806 C1816 0.930 1_556 S
H1807 C1819 0.929 . S
H1808 C1822 0.930 . S
H1809 C1824 0.960 . S
H1810 C1824 0.960 . S
H1811 C1824 0.960 1_455 S
C1812 H1804 0.929 . S
C1812 C1813 1.377 . S
C1812 C1814 1.384 . S
C1813 C1812 1.377 . S
C1813 C1819 1.390 . S
C1814 H1805 0.930 1_455 S
C1814 C1812 1.384 . S
C1814 C1815 1.372 . S
C1815 C1814 1.372 . S
C1815 C1816 1.400 . S
C1815 C1820 1.490 . S
C1816 H1806 0.930 1_554 S
C1816 C1815 1.400 . S
C1816 C1819 1.386 . S
H1817 C1833 0.930 . S
H1818 C1834 0.931 1_455 S
C1819 H1807 0.929 . S
C1819 C1813 1.390 . S
C1819 C1816 1.386 . S
C1820 C1815 1.490 . S
C1820 C1822 1.395 . S
C1820 C1823 1.403 1_454 S
H1821 C1827 0.930 . S
C1822 H1808 0.930 . S
C1822 C1820 1.395 . S
C1822 C1825 1.401 1_465 S
C1823 C1820 1.403 1_656 S
C1823 C1824 1.524 . S
C1823 C1827 1.400 1_565 S
C1824 H1809 0.960 . S
C1824 H1810 0.960 . S
C1824 H1811 0.960 1_655 S
C1824 C1823 1.524 . S
C1825 C1822 1.401 1_645 S
C1825 C1826 1.394 1_554 S
C1825 C1829 1.494 1_655 S
C1826 C1825 1.394 1_556 S
C1826 C1827 1.385 . S
C1826 C1828 1.478 . S
C1827 H1821 0.930 . S
C1827 C1823 1.400 1_545 S
C1827 C1826 1.385 . S
C1828 C1826 1.478 . S
C1828 C1830 1.381 . S
C1828 C1834 1.383 . S
C1829 C1825 1.494 1_455 S
C1829 H1835 0.972 . S
C1829 H1836 0.984 . S
C1829 H1837 0.926 1_455 S
C1830 C1828 1.381 . S
C1830 C1831 1.394 . S
C1830 H1838 0.930 1_556 S
C1831 C1830 1.394 . S
C1831 C1832 1.383 . S
C1831 H1839 0.929 . S
C1832 C1831 1.383 . S
C1832 C1833 1.377 . S
C1833 H1817 0.930 . S
C1833 C1832 1.377 . S
C1833 C1834 1.379 . S
C1834 H1818 0.931 1_655 S
C1834 C1828 1.383 . S
C1834 C1833 1.379 . S
H1835 C1829 0.972 . S
H1836 C1829 0.984 . S
H1837 C1829 0.926 1_655 S
H1838 C1830 0.930 1_554 S
H1839 C1831 0.929 . S
H1840 C1848 0.929 . S
H1841 C1850 0.930 . S
H1842 C1852 0.930 . S
H1843 C1855 0.929 . S
H1844 C1858 0.930 . S
H1845 C1860 0.960 . S
H1846 C1860 0.960 . S
H1847 C1860 0.960 . S
C1848 H1840 0.929 . S
C1848 C1849 1.377 . S
C1848 C1850 1.384 . S
C1849 C1848 1.377 . S
C1849 C1855 1.390 . S
C1850 H1841 0.930 . S
C1850 C1848 1.384 . S
C1850 C1851 1.372 . S
C1851 C1850 1.372 . S
C1851 C1852 1.400 . S
C1851 C1856 1.490 . S
C1852 H1842 0.930 . S
C1852 C1851 1.400 . S
C1852 C1855 1.386 . S
H1853 C1869 0.930 . S
H1854 C1870 0.931 . S
C1855 H1843 0.929 . S
C1855 C1849 1.390 . S
C1855 C1852 1.386 . S
C1856 C1851 1.490 . S
C1856 C1858 1.395 . S
C1856 C1859 1.403 . S
H1857 C1863 0.930 . S
C1858 H1844 0.930 . S
C1858 C1856 1.395 . S
C1858 C1861 1.403 . S
C1859 C1856 1.403 . S
C1859 C1860 1.524 . S
C1859 C1863 1.400 . S
C1860 H1845 0.960 . S
C1860 H1846 0.960 . S
C1860 H1847 0.960 . S
C1860 C1859 1.524 . S
C1861 C1858 1.403 . S
C1861 C1862 1.392 . S
C1861 C1865 1.495 . S
C1862 C1861 1.392 . S
C1862 C1863 1.385 . S
C1862 C1864 1.478 . S
C1863 H1857 0.930 . S
C1863 C1859 1.400 . S
C1863 C1862 1.385 . S
C1864 C1862 1.478 . S
C1864 C1866 1.381 . S
C1864 C1870 1.383 . S
C1865 C1861 1.495 . S
C1865 H1871 0.959 . S
C1865 H1872 0.961 . S
C1865 H1873 0.960 . S
C1866 C1864 1.381 . S
C1866 C1867 1.394 . S
C1866 H1874 0.930 . S
C1867 C1866 1.394 . S
C1867 C1868 1.383 . S
C1867 H1875 0.929 . S
C1868 C1867 1.383 . S
C1868 C1869 1.377 . S
C1869 H1853 0.930 . S
C1869 C1868 1.377 . S
C1869 C1870 1.379 . S
C1870 H1854 0.931 . S
C1870 C1864 1.383 . S
C1870 C1869 1.379 . S
H1871 C1865 0.959 . S
H1872 C1865 0.961 . S
H1873 C1865 0.960 . S
H1874 C1866 0.930 . S
H1875 C1867 0.929 . S
H1876 C1884 0.929 . S
H1877 C1886 0.930 . S
H1878 C1888 0.930 . S
H1879 C1891 0.929 . S
H1880 C1894 0.930 . S
H1881 C1896 0.960 . S
H1882 C1896 0.960 . S
H1883 C1896 0.960 . S
C1884 H1876 0.929 . S
C1884 C1885 1.377 . S
C1884 C1886 1.384 . S
C1885 C1884 1.377 . S
C1885 C1891 1.390 . S
C1886 H1877 0.930 . S
C1886 C1884 1.384 . S
C1886 C1887 1.372 . S
C1887 C1886 1.372 . S
C1887 C1888 1.400 . S
C1887 C1892 1.490 . S
C1888 H1878 0.930 . S
C1888 C1887 1.400 . S
C1888 C1891 1.386 . S
H1889 C1905 0.930 . S
H1890 C1906 0.931 . S
C1891 H1879 0.929 . S
C1891 C1885 1.390 . S
C1891 C1888 1.386 . S
C1892 C1887 1.490 . S
C1892 C1894 1.395 . S
C1892 C1895 1.403 1_455 S
H1893 C1899 0.930 . S
C1894 H1880 0.930 . S
C1894 C1892 1.395 . S
C1894 C1897 1.403 . S
C1895 C1892 1.403 1_655 S
C1895 C1896 1.524 . S
C1895 C1899 1.400 . S
C1896 H1881 0.960 . S
C1896 H1882 0.960 . S
C1896 H1883 0.960 . S
C1896 C1895 1.524 . S
C1897 C1894 1.403 . S
C1897 C1898 1.392 1_455 S
C1897 C1901 1.495 . S
C1898 C1897 1.392 1_655 S
C1898 C1899 1.385 . S
C1898 C1900 1.478 . S
C1899 H1893 0.930 . S
C1899 C1895 1.400 . S
C1899 C1898 1.385 . S
C1900 C1898 1.478 . S
C1900 C1902 1.381 . S
C1900 C1906 1.383 . S
C1901 C1897 1.495 . S
C1901 H1907 0.959 . S
C1901 H1908 0.961 . S
C1901 H1909 0.960 . S
C1902 C1900 1.381 . S
C1902 C1903 1.394 . S
C1902 H1910 0.930 . S
C1903 C1902 1.394 . S
C1903 C1904 1.383 . S
C1903 H1911 0.929 . S
C1904 C1903 1.383 . S
C1904 C1905 1.377 . S
C1905 H1889 0.930 . S
C1905 C1904 1.377 . S
C1905 C1906 1.379 . S
C1906 H1890 0.931 . S
C1906 C1900 1.383 . S
C1906 C1905 1.379 . S
H1907 C1901 0.959 . S
H1908 C1901 0.961 . S
H1909 C1901 0.960 . S
H1910 C1902 0.930 . S
H1911 C1903 0.929 . S
H1912 C1920 0.929 . S
H1913 C1922 0.930 . S
H1914 C1924 0.930 . S
H1915 C1927 0.929 . S
H1916 C1930 0.930 . S
H1917 C1932 0.960 . S
H1918 C1932 0.960 . S
H1919 C1932 0.960 . S
C1920 H1912 0.929 . S
C1920 C1921 1.377 . S
C1920 C1922 1.384 . S
C1921 C1920 1.377 . S
C1921 C1927 1.390 . S
C1922 H1913 0.930 . S
C1922 C1920 1.384 . S
C1922 C1923 1.372 . S
C1923 C1922 1.372 . S
C1923 C1924 1.400 . S
C1923 C1928 1.490 . S
C1924 H1914 0.930 . S
C1924 C1923 1.400 . S
C1924 C1927 1.386 . S
H1925 C1941 0.930 . S
H1926 C1942 0.931 . S
C1927 H1915 0.929 . S
C1927 C1921 1.390 . S
C1927 C1924 1.386 . S
C1928 C1923 1.490 . S
C1928 C1930 1.395 . S
C1928 C1931 1.403 1_565 S
H1929 C1935 0.930 . S
C1930 H1916 0.930 . S
C1930 C1928 1.395 . S
C1930 C1933 1.403 1_455 S
C1931 C1928 1.403 1_545 S
C1931 C1932 1.524 . S
C1931 C1935 1.400 1_455 S
C1932 H1917 0.960 . S
C1932 H1918 0.960 . S
C1932 H1919 0.960 . S
C1932 C1931 1.524 . S
C1933 C1930 1.403 1_655 S
C1933 C1934 1.392 1_565 S
C1933 C1937 1.495 . S
C1934 C1933 1.392 1_545 S
C1934 C1935 1.385 . S
C1934 C1936 1.478 . S
C1935 H1929 0.930 . S
C1935 C1931 1.400 1_655 S
C1935 C1934 1.385 . S
C1936 C1934 1.478 . S
C1936 C1938 1.381 . S
C1936 C1942 1.383 . S
C1937 C1933 1.495 . S
C1937 H1943 0.959 . S
C1937 H1944 0.961 . S
C1937 H1945 0.960 . S
C1938 C1936 1.381 . S
C1938 C1939 1.394 . S
C1938 H1946 0.930 . S
C1939 C1938 1.394 . S
C1939 C1940 1.383 . S
C1939 H1947 0.929 . S
C1940 C1939 1.383 . S
C1940 C1941 1.377 . S
C1941 H1925 0.930 . S
C1941 C1940 1.377 . S
C1941 C1942 1.379 . S
C1942 H1926 0.931 . S
C1942 C1936 1.383 . S
C1942 C1941 1.379 . S
H1943 C1937 0.959 . S
H1944 C1937 0.961 . S
H1945 C1937 0.960 . S
H1946 C1938 0.930 . S
H1947 C1939 0.929 . S
H1948 C1956 0.929 . S
H1949 C1958 0.930 . S
H1950 C1960 0.930 . S
H1951 C1963 0.929 . S
H1952 C1966 0.930 . S
H1953 C1968 0.960 . S
H1954 C1968 0.960 . S
H1955 C1968 0.960 . S
C1956 H1948 0.929 . S
C1956 C1957 1.377 . S
C1956 C1958 1.384 . S
C1957 C1956 1.377 . S
C1957 C1963 1.390 . S
C1958 H1949 0.930 . S
C1958 C1956 1.384 . S
C1958 C1959 1.372 . S
C1959 C1958 1.372 . S
C1959 C1960 1.400 . S
C1959 C1964 1.490 . S
C1960 H1950 0.930 . S
C1960 C1959 1.400 . S
C1960 C1963 1.386 . S
H1961 C1977 0.930 . S
H1962 C1978 0.931 . S
C1963 H1951 0.929 . S
C1963 C1957 1.390 . S
C1963 C1960 1.386 . S
C1964 C1959 1.490 . S
C1964 C1966 1.395 . S
C1964 C1967 1.403 . S
H1965 C1971 0.930 . S
C1966 H1952 0.930 . S
C1966 C1964 1.395 . S
C1966 C1969 1.403 1_565 S
C1967 C1964 1.403 . S
C1967 C1968 1.524 . S
C1967 C1971 1.400 1_565 S
C1968 H1953 0.960 . S
C1968 H1954 0.960 . S
C1968 H1955 0.960 . S
C1968 C1967 1.524 . S
C1969 C1966 1.403 1_545 S
C1969 C1970 1.392 . S
C1969 C1973 1.495 . S
C1970 C1969 1.392 . S
C1970 C1971 1.385 . S
C1970 C1972 1.478 . S
C1971 H1965 0.930 . S
C1971 C1967 1.400 1_545 S
C1971 C1970 1.385 . S
C1972 C1970 1.478 . S
C1972 C1974 1.381 . S
C1972 C1978 1.383 . S
C1973 C1969 1.495 . S
C1973 H1979 0.959 . S
C1973 H1980 0.961 . S
C1973 H1981 0.960 . S
C1974 C1972 1.381 . S
C1974 C1975 1.394 . S
C1974 H1982 0.930 . S
C1975 C1974 1.394 . S
C1975 C1976 1.383 . S
C1975 H1983 0.929 . S
C1976 C1975 1.383 . S
C1976 C1977 1.377 . S
C1977 H1961 0.930 . S
C1977 C1976 1.377 . S
C1977 C1978 1.379 . S
C1978 H1962 0.931 . S
C1978 C1972 1.383 . S
C1978 C1977 1.379 . S
H1979 C1973 0.959 . S
H1980 C1973 0.961 . S
H1981 C1973 0.960 . S
H1982 C1974 0.930 . S
H1983 C1975 0.929 . S
C553 C5 0.495 . S
C572 C243 0.487 . S
C589 C141 0.522 . S
C608 C39 0.493 . S
C625 C73 0.502 . S
C644 C175 0.450 . S
C661 C107 0.522 . S
C680 C209 0.486 . S
C697 C277 0.494 . S
C716 C515 0.458 . S
C733 C413 0.495 . S
C752 C311 0.471 . S
C769 C447 0.521 . S
C788 C345 0.579 . S
C805 C481 0.496 . S
C824 C379 0.473 . S
C841 C206 1.119 . S
C860 C2 1.085 . S
C877 C36 1.104 . S
C896 C240 1.123 . S
C913 C70 1.110 . S
C932 C138 1.150 . S
C949 C172 1.109 . S
C968 C104 1.067 . S
C985 C478 1.121 . S
C1004 C274 1.126 . S
C1021 C512 1.109 . S
C1040 C308 1.130 . S
C1057 C342 1.119 . S
C1076 C410 1.154 . S
C1093 C376 1.112 . S
C1112 C444 1.079 . S
C1129 C9 1.098 . S
C1148 C543 1.206 . S
C1165 C43 1.096 . S
C1184 C441 1.182 . S
C1201 C77 1.081 . S
C1220 C475 1.180 . S
C1237 C509 1.203 . S
C1256 C111 1.085 . S
C1273 C339 1.203 . S
C1292 C145 1.063 . S
C1309 C373 1.195 . S
C1328 C179 1.068 . S
C1345 C213 1.087 . S
C1364 C407 1.216 . S
C1381 C247 1.077 . S
C1400 C305 1.189 . S
C1417 C271 1.197 . S
C1436 C281 1.068 . S
C1453 C169 1.195 . S
C1472 C315 1.142 . S
C1489 C349 1.076 . S
C1508 C203 1.214 . S
C1525 C237 1.202 . S
C1544 C383 1.075 . S
C1561 C67 1.197 . S
C1580 C417 1.071 . S
C1597 C101 1.199 . S
C1616 C451 1.116 . S
C1633 C135 1.198 . S
C1652 C485 1.059 . S
C1669 C33 1.201 . S
C1688 C519 1.094 . S
C1705 C20 0.939 . S
C1724 C292 0.959 . S
C1741 C326 0.934 . S
C1760 C54 0.923 . S
C1777 C360 0.945 . S
C1796 C88 0.941 . S
C1813 C122 0.940 . S
C1832 C394 0.961 . S
C1849 C428 0.934 . S
C1868 C156 0.932 . S
C1885 C190 0.935 . S
C1904 C462 0.944 . S
C1921 C496 0.941 . S
C1940 C224 0.921 . S
C1957 C258 0.935 . S
C1976 C530 0.917 . S
