# Generated by pormake.
# Topology wkb, (5)-cn, num edge types: 1
# Building blocks:
#     Node 0, Type 0, BuildingBlock: XOMCOT_clean_sbu_0, # of connection points: 5
#     Node 1, Type 0, BuildingBlock: XOMCOT_clean_sbu_0, # of connection points: 5
#     Node 2, Type 0, BuildingBlock: XOMCOT_clean_sbu_0, # of connection points: 5
#     Node 3, Type 0, BuildingBlock: XOMCOT_clean_sbu_0, # of connection points: 5
#     Node 4, Type 0, BuildingBlock: XOMCOT_clean_sbu_0, # of connection points: 5
#     Node 5, Type 0, BuildingBlock: XOMCOT_clean_sbu_0, # of connection points: 5
#     Node 6, Type 0, BuildingBlock: XOMCOT_clean_sbu_0, # of connection points: 5
#     Node 7, Type 0, BuildingBlock: XOMCOT_clean_sbu_0, # of connection points: 5
#     Node 8, Type 0, BuildingBlock: XOMCOT_clean_sbu_0, # of connection points: 5
#     Node 9, Type 0, BuildingBlock: XOMCOT_clean_sbu_0, # of connection points: 5
#     Node 10, Type 0, BuildingBlock: XOMCOT_clean_sbu_0, # of connection points: 5
#     Node 11, Type 0, BuildingBlock: XOMCOT_clean_sbu_0, # of connection points: 5
#     Edge 12, Type (0, 0), BuildingBlock: XUDNAN_clean_linker_2, # of connection points: 2
#     Edge 13, Type (0, 0), BuildingBlock: XUDNAN_clean_linker_2, # of connection points: 2
#     Edge 14, Type (0, 0), BuildingBlock: XUDNAN_clean_linker_2, # of connection points: 2
#     Edge 15, Type (0, 0), BuildingBlock: XUDNAN_clean_linker_2, # of connection points: 2
#     Edge 16, Type (0, 0), BuildingBlock: XUDNAN_clean_linker_2, # of connection points: 2
#     Edge 17, Type (0, 0), BuildingBlock: XUDNAN_clean_linker_2, # of connection points: 2
#     Edge 18, Type (0, 0), BuildingBlock: XUDNAN_clean_linker_2, # of connection points: 2
#     Edge 19, Type (0, 0), BuildingBlock: XUDNAN_clean_linker_2, # of connection points: 2
#     Edge 20, Type (0, 0), BuildingBlock: XUDNAN_clean_linker_2, # of connection points: 2
#     Edge 21, Type (0, 0), BuildingBlock: XUDNAN_clean_linker_2, # of connection points: 2
#     Edge 22, Type (0, 0), BuildingBlock: XUDNAN_clean_linker_2, # of connection points: 2
#     Edge 23, Type (0, 0), BuildingBlock: XUDNAN_clean_linker_2, # of connection points: 2
#     Edge 24, Type (0, 0), BuildingBlock: XUDNAN_clean_linker_2, # of connection points: 2
#     Edge 25, Type (0, 0), BuildingBlock: XUDNAN_clean_linker_2, # of connection points: 2
#     Edge 26, Type (0, 0), BuildingBlock: XUDNAN_clean_linker_2, # of connection points: 2
#     Edge 27, Type (0, 0), BuildingBlock: XUDNAN_clean_linker_2, # of connection points: 2
#     Edge 28, Type (0, 0), BuildingBlock: XUDNAN_clean_linker_2, # of connection points: 2
#     Edge 29, Type (0, 0), BuildingBlock: XUDNAN_clean_linker_2, # of connection points: 2
#     Edge 30, Type (0, 0), BuildingBlock: XUDNAN_clean_linker_2, # of connection points: 2
#     Edge 31, Type (0, 0), BuildingBlock: XUDNAN_clean_linker_2, # of connection points: 2
#     Edge 32, Type (0, 0), BuildingBlock: XUDNAN_clean_linker_2, # of connection points: 2
#     Edge 33, Type (0, 0), BuildingBlock: XUDNAN_clean_linker_2, # of connection points: 2
#     Edge 34, Type (0, 0), BuildingBlock: XUDNAN_clean_linker_2, # of connection points: 2
#     Edge 35, Type (0, 0), BuildingBlock: XUDNAN_clean_linker_2, # of connection points: 2
#     Edge 36, Type (0, 0), BuildingBlock: XUDNAN_clean_linker_2, # of connection points: 2
#     Edge 37, Type (0, 0), BuildingBlock: XUDNAN_clean_linker_2, # of connection points: 2
#     Edge 38, Type (0, 0), BuildingBlock: XUDNAN_clean_linker_2, # of connection points: 2
#     Edge 39, Type (0, 0), BuildingBlock: XUDNAN_clean_linker_2, # of connection points: 2
#     Edge 40, Type (0, 0), BuildingBlock: XUDNAN_clean_linker_2, # of connection points: 2
#     Edge 41, Type (0, 0), BuildingBlock: XUDNAN_clean_linker_2, # of connection points: 2
# Relax obj value: 0.108
# Max RMSD: 0.143
# Mean RMSD: 0.143
data_MOF--net-wkb--node1-XOMCOT_clean_sbu_0--edge1-XUDNAN_clean_linker_2
_symmetry_space_group_name_H-M    P1
_symmetry_Int_Tables_number       1
_symmetry_cell_setting            triclinic
loop_
_symmetry_equiv_pos_as_xyz
'x, y, z'
_cell_length_a     45.935449
_cell_length_b     45.859613
_cell_length_c     36.516037
_cell_angle_alpha  90.266598
_cell_angle_beta   89.739187
_cell_angle_gamma 120.01087
loop_
_atom_site_label
_atom_site_type_symbol
_atom_site_fract_x
_atom_site_fract_y
_atom_site_fract_z
_atom_type_partial_charge
Co0 Co 0.07328 0.33483 0.06802 0.0
C1 C 0.06759 0.33382 0.98678 0.0
C2 C 1.0195 0.30227 0.01129 0.0
C3 C 1.01588 0.29975 0.9738 0.0
N4 N 0.05212 0.32357 0.01962 0.0
N5 N 1.04622 0.31946 0.9584 0.0
H6 H 0.09385 0.35181 0.98347 0.0
H7 H 0.9994 0.28881 0.03069 0.0
C8 C 0.13923 0.3518 0.02862 0.0
O9 O 0.14554 0.38212 0.01994 0.0
N10 N 0.09393 0.34455 0.11599 0.0
C11 C 0.09175 0.36408 0.14236 0.0
C12 C 0.10982 0.36402 0.17235 0.0
C13 C 0.11221 0.33193 0.13066 0.0
N14 N 0.12242 0.34368 0.16491 0.0
C15 C 0.07206 0.3932 0.04299 0.0
C16 C 0.1319 0.44103 0.07411 0.0
C17 C 0.11065 0.4516 0.05894 0.0
C18 C 0.0809 0.42709 0.04213 0.0
C19 C 0.12245 0.40685 0.07365 0.0
N20 N 0.09256 0.38315 0.05862 0.0
H21 H 0.04765 0.37481 0.03266 0.0
H22 H 0.13878 0.39936 0.08665 0.0
H23 H 0.07819 0.37763 0.13978 0.0
H24 H 0.11806 0.31466 0.11656 0.0
O25 O 1.03204 0.32749 0.09057 0.0
O26 O 1.04602 0.28809 0.08282 0.0
O27 O 0.11283 0.33182 0.04691 0.0
C28 C 1.02465 0.29646 0.09571 0.0
H29 H 0.99281 0.28381 0.95913 0.0
H30 H 0.113 0.37737 0.19789 0.0
H31 H 0.15494 0.45863 0.08787 0.0
H32 H 0.06378 0.43371 0.02935 0.0
Co33 Co 0.76321 0.05602 0.24176 0.0
C34 C 0.75788 0.05274 0.16123 0.0
C35 C 0.74996 1.00586 0.18258 0.0
C36 C 0.74624 1.00297 0.14517 0.0
N37 N 0.75735 0.03717 0.19271 0.0
N38 N 0.7512 0.03245 0.13169 0.0
H39 H 0.763 0.07844 0.16021 0.0
H40 H 0.74672 0.98596 0.20076 0.0
C41 C 0.82715 0.10353 0.20821 0.0
O42 O 0.83058 0.0769 0.20459 0.0
N43 N 0.76857 0.07464 0.29041 0.0
C44 C 0.74345 0.06651 0.31458 0.0
C45 C 0.75704 0.0823 0.34729 0.0
C46 C 0.79718 0.0953 0.3086 0.0
N47 N 0.79077 0.1003 0.34356 0.0
C48 C 0.69814 0.044 0.22283 0.0
C49 C 0.71009 0.10819 0.23834 0.0
C50 C 0.67696 0.08251 0.23138 0.0
C51 C 0.67141 0.05033 0.22239 0.0
C52 C 0.7362 0.10082 0.23828 0.0
N53 N 0.72978 0.06883 0.23161 0.0
H54 H 0.69323 1.01871 0.21763 0.0
H55 H 0.76119 0.12031 0.2459 0.0
H56 H 0.71708 0.04974 0.30892 0.0
H57 H 0.8221 0.10545 0.29695 0.0
O58 O 0.73391 1.01162 0.26171 0.0
O59 O 0.78929 0.03555 0.25646 0.0
O60 O 0.80051 0.10041 0.22308 0.0
C61 C 0.76101 1.01001 0.26731 0.0
H62 H 0.7395 0.98047 0.12936 0.0
H63 H 0.74317 0.0806 0.372 0.0
H64 H 0.71559 0.13334 0.24572 0.0
H65 H 0.64645 1.02989 0.21604 0.0
Co66 Co 0.73067 0.74733 0.41336 0.0
C67 C 0.75436 0.75588 0.33456 0.0
C68 C 0.75244 0.71314 0.36037 0.0
C69 C 0.76464 0.71553 0.32555 0.0
N70 N 0.74543 0.73814 0.36631 0.0
N71 N 0.76575 0.74228 0.3093 0.0
H72 H 0.75416 0.77898 0.33008 0.0
H73 H 0.74961 0.69441 0.38007 0.0
C74 C 0.71309 0.79119 0.36585 0.0
O75 O 0.69149 0.7659 0.34557 0.0
N76 N 0.71688 0.75607 0.46028 0.0
C77 C 0.6979 0.73235 0.48505 0.0
C78 C 0.69737 0.74798 0.51703 0.0
C79 C 0.72774 0.7859 0.47746 0.0
N80 N 0.71617 0.78156 0.51228 0.0
C81 C 0.67547 0.68194 0.397 0.0
C82 C 0.62501 0.69745 0.40681 0.0
C83 C 0.61623 0.66372 0.40158 0.0
C84 C 0.64197 0.65622 0.39609 0.0
C85 C 0.659 0.72247 0.40794 0.0
N86 N 0.68382 0.71462 0.4028 0.0
H87 H 0.69466 0.67509 0.39518 0.0
H88 H 0.66536 0.74791 0.41487 0.0
H89 H 0.68625 0.70549 0.48053 0.0
H90 H 0.74508 0.81005 0.46546 0.0
O91 O 0.74358 0.71806 0.43785 0.0
O92 O 0.77674 0.77297 0.4287 0.0
O93 O 0.72834 0.78646 0.39224 0.0
C94 C 0.77283 0.74503 0.44208 0.0
H95 H 0.77199 0.69874 0.31299 0.0
H96 H 0.68469 0.73559 0.54214 0.0
H97 H 0.60588 0.7042 0.4119 0.0
H98 H 0.63628 0.63047 0.39212 0.0
Co99 Co 1.02085 0.73374 0.5745 0.0
C100 C 1.03931 0.73337 0.49481 0.0
C101 C 0.05977 0.78317 0.51694 0.0
C102 C 0.07005 0.78577 0.4812 0.0
N103 N 1.04073 0.7503 0.52602 0.0
N104 N 0.05712 0.75456 0.4673 0.0
H105 H 1.02561 0.70629 0.49189 0.0
H106 H 0.06593 0.80431 0.53476 0.0
C107 C 0.9609 0.72113 0.52951 0.0
O108 O 0.96778 0.70429 0.50517 0.0
N109 N 1.00156 0.71827 0.62249 0.0
C110 C 1.00783 0.69888 0.64499 0.0
C111 C 0.99232 0.69643 0.67808 0.0
C112 C 0.98237 0.72739 0.64203 0.0
N113 N 0.97641 0.7144 0.67619 0.0
C114 C 1.02816 0.67736 0.55493 0.0
C115 C 0.96124 0.6291 0.56391 0.0
C116 C 0.98486 0.61845 0.55931 0.0
C117 C 1.0187 0.64325 0.55398 0.0
C118 C 0.97187 0.6634 0.56554 0.0
N119 N 1.00494 0.68712 0.56092 0.0
H120 H 0.05449 0.69609 0.5526 0.0
H121 H 0.95364 0.67074 0.57286 0.0
H122 H 1.02331 0.68801 0.63809 0.0
H123 H 0.9742 0.74431 0.63201 0.0
O124 O 0.06483 0.74552 0.59376 0.0
O125 O 1.04295 0.779 0.59345 0.0
O126 O 0.97846 0.73254 0.55853 0.0
C127 C 0.06775 0.77445 0.60243 0.0
H128 H 0.08539 0.80888 0.46626 0.0
H129 H 0.99299 0.68275 0.70183 0.0
H130 H 0.9348 0.61119 0.56775 0.0
H131 H 1.03817 0.63666 0.55114 0.0
Co132 Co 0.33339 1.00571 0.74789 0.0
C133 C 0.33837 1.00773 0.66597 0.0
C134 C 0.35179 0.05615 0.68791 0.0
C135 C 0.35438 0.05861 0.65041 0.0
N136 N 0.34156 1.0241 0.69799 0.0
N137 N 0.34591 1.02815 0.63651 0.0
H138 H 0.33097 0.98152 0.66411 0.0
H139 H 0.35758 0.07691 0.70612 0.0
C140 C 0.28461 0.9371 0.71266 0.0
O141 O 0.30826 0.93085 0.70198 0.0
N142 N 0.32472 0.98789 0.79728 0.0
C143 C 0.34809 0.9964 0.82359 0.0
C144 C 0.33238 0.98029 0.85545 0.0
C145 C 0.29499 0.96668 0.81348 0.0
N146 N 0.29904 0.96167 0.84914 0.0
C147 C 0.39375 1.00834 0.72324 0.0
C148 C 0.38297 0.94958 0.75614 0.0
C149 C 0.41444 0.97078 0.73995 0.0
C150 C 0.41905 0.99995 0.72227 0.0
C151 C 0.35793 0.95849 0.75564 0.0
N152 N 0.36356 0.98781 0.73971 0.0
H153 H 0.3991 0.03228 0.71206 0.0
H154 H 0.33436 0.94229 0.76934 0.0
H155 H 0.37476 1.01331 0.81984 0.0
H156 H 0.27091 0.95594 0.79984 0.0
O157 O 0.36604 0.04931 0.76781 0.0
O158 O 0.31168 1.0312 0.76026 0.0
O159 O 0.29174 0.96408 0.73012 0.0
C160 C 0.34089 0.05466 0.7719 0.0
H161 H 0.3626 0.08139 0.63472 0.0
H162 H 0.3446 0.98209 0.88131 0.0
H163 H 0.37805 0.92704 0.77065 0.0
H164 H 0.44245 1.01694 0.70864 0.0
Co165 Co 0.36588 0.31655 0.91383 0.0
C166 C 0.34748 0.33099 0.83859 0.0
C167 C 0.39692 0.33737 0.84285 0.0
C168 C 0.39219 0.34341 0.80754 0.0
N169 N 0.3694 0.33019 0.86286 0.0
N170 N 0.36127 0.33959 0.80454 0.0
H171 H 0.32207 0.3248 0.84529 0.0
H172 H 0.4188 0.33696 0.85297 0.0
C173 C 0.38432 0.25974 0.90465 0.0
O174 O 0.39373 0.25905 0.93837 0.0
N175 N 0.3633 0.3026 0.96435 0.0
C176 C 0.37836 0.32329 0.99303 0.0
C177 C 0.37323 0.30412 0.02379 0.0
C178 C 0.34775 0.27115 0.97839 0.0
N179 N 0.35418 0.2714 0.01452 0.0
C180 C 0.42106 0.38328 0.91266 0.0
C181 C 0.46964 0.3711 0.94096 0.0
C182 C 0.47824 0.40434 0.93271 0.0
C183 C 0.45351 0.41015 0.91805 0.0
C184 C 0.43686 0.34466 0.9343 0.0
N185 N 0.41299 0.35098 0.92046 0.0
H186 H 0.40212 0.38838 0.90211 0.0
H187 H 0.43054 0.3195 0.94153 0.0
H188 H 0.39308 0.35045 0.99145 0.0
H189 H 0.33376 0.24852 0.96216 0.0
O190 O 0.34594 0.3433 0.92856 0.0
O191 O 0.31736 0.28993 0.91088 0.0
O192 O 0.37578 0.28107 0.89469 0.0
C193 C 0.3169 0.31633 0.92348 0.0
H194 H 0.40968 0.34848 0.78522 0.0
H195 H 0.38351 0.31343 0.05075 0.0
H196 H 0.48803 0.36563 0.95261 0.0
H197 H 0.45891 0.43546 0.91186 0.0
Co198 Co 0.74878 1.02179 0.7616 0.0
C199 C 0.7496 0.03553 0.84227 0.0
C200 C 0.77872 0.08107 0.81204 0.0
C201 C 0.77894 0.08932 0.84816 0.0
N202 N 0.76008 0.04722 0.80785 0.0
N203 N 0.76058 0.06077 0.8671 0.0
H204 H 0.733 1.00949 0.84904 0.0
H205 H 0.79106 0.09933 0.7907 0.0
C206 C 0.7375 0.96128 0.80729 0.0
O207 O 0.70748 0.95505 0.81729 0.0
N208 N 0.73898 0.99718 0.71572 0.0
C209 C 0.7216 0.99923 0.68716 0.0
C210 C 0.71963 0.97707 0.66035 0.0
C211 C 0.7477 0.9742 0.70575 0.0
N212 N 0.73593 0.96124 0.67213 0.0
C213 C 0.68906 1.02008 0.78669 0.0
C214 C 0.64343 0.95744 0.75917 0.0
C215 C 0.63142 0.97826 0.77259 0.0
C216 C 0.65485 1.00937 0.78791 0.0
C217 C 0.678 0.96874 0.75953 0.0
N218 N 0.7006 1.00006 0.77266 0.0
H219 H 0.70637 0.04558 0.79514 0.0
H220 H 0.6866 0.95264 0.74794 0.0
H221 H 0.71036 1.01505 0.68629 0.0
H222 H 0.76226 0.96703 0.7228 0.0
O223 O 0.75139 0.05942 0.73581 0.0
O224 O 0.79451 0.05123 0.74393 0.0
O225 O 0.75591 0.98619 0.78634 0.0
C226 C 0.78299 0.06969 0.7301 0.0
H227 H 0.79153 0.11448 0.85964 0.0
H228 H 0.70618 0.97217 0.63474 0.0
H229 H 0.62663 0.9333 0.74675 0.0
H230 H 0.64714 1.02622 0.79949 0.0
Co231 Co 0.77382 0.73951 0.93673 0.0
C232 C 0.78108 0.7567 0.01579 0.0
C233 C 0.73233 0.74379 0.99539 0.0
C234 C 0.73295 0.74929 0.03253 0.0
N235 N 0.76245 0.74832 0.98498 0.0
N236 N 0.76359 0.75731 0.04551 0.0
H237 H 0.80663 0.76151 0.01643 0.0
H238 H 0.71095 0.73569 0.97747 0.0
C239 C 0.81424 0.70596 0.94984 0.0
O240 O 0.79525 0.68365 0.92511 0.0
N241 N 0.78598 0.73153 0.88801 0.0
C242 C 0.76657 0.71671 0.85839 0.0
C243 C 0.78658 0.71648 0.83024 0.0
C244 C 0.81762 0.74138 0.87675 0.0
N245 N 0.81865 0.73168 0.84201 0.0
C246 C 0.70901 0.68144 0.92173 0.0
C247 C 0.71222 0.63929 0.97324 0.0
C248 C 0.68357 0.62648 0.95085 0.0
C249 C 0.68204 0.64856 0.92539 0.0
C250 C 0.7382 0.67262 0.96925 0.0
N251 N 0.73758 0.69265 0.94199 0.0
H252 H 0.70631 0.69821 0.90328 0.0
H253 H 0.75867 0.68226 0.98855 0.0
H254 H 0.73985 0.70668 0.85669 0.0
H255 H 0.83947 0.75493 0.89405 0.0
O256 O 0.74845 0.7583 0.91502 0.0
O257 O 0.80263 0.78743 0.92853 0.0
O258 O 0.80861 0.72973 0.9588 0.0
C259 C 0.77627 0.78712 0.91506 0.0
H260 H 0.71178 0.74597 0.0488 0.0
H261 H 0.77793 0.70499 0.8036 0.0
H262 H 0.71482 0.62391 0.99387 0.0
H263 H 0.65985 0.64099 0.90893 0.0
Co264 Co 0.0667 0.74034 0.0939 0.0
C265 C 0.06144 0.72975 0.17437 0.0
C266 C 1.01377 0.71803 0.15222 0.0
C267 C 1.01089 0.71509 0.18978 0.0
N268 N 1.04566 0.72741 0.14239 0.0
N269 N 1.04099 0.72267 0.20381 0.0
H270 H 0.08744 0.73646 0.17606 0.0
H271 H 0.9939 0.71452 0.13389 0.0
C272 C 0.13161 0.79054 0.13341 0.0
O273 O 0.14013 0.76777 0.14027 0.0
N274 N 0.08794 0.75501 0.04621 0.0
C275 C 0.08553 0.73617 0.0167 0.0
C276 C 0.10681 0.75718 0.98972 0.0
C277 C 0.10986 0.78703 0.03653 0.0
N278 N 0.1223 0.78918 1.00239 0.0
C279 C 0.06845 0.68148 0.11485 0.0
C280 C 0.12864 0.69683 0.08187 0.0
C281 C 0.10822 0.66418 0.09582 0.0
C282 C 0.07835 0.6573 0.11368 0.0
C283 C 0.11816 0.72075 0.08449 0.0
N284 N 0.08811 0.71291 0.10054 0.0
H285 H 1.04378 0.67403 0.12562 0.0
H286 H 0.1338 0.74523 0.07236 0.0
H287 H 0.07036 0.70902 0.01539 0.0
H288 H 0.11676 0.80838 0.05433 0.0
O289 O 1.02671 0.70584 0.07059 0.0
O290 O 1.03719 0.75783 0.08119 0.0
O291 O 0.10433 0.78281 0.11659 0.0
C292 C 1.01732 0.72813 0.06716 0.0
H293 H 0.98861 0.70928 0.20549 0.0
H294 H 0.11145 0.74924 0.96345 0.0
H295 H 0.15178 0.70352 0.06745 0.0
H296 H 0.06186 0.6329 0.12567 0.0
Co297 Co 0.34758 0.04808 0.26845 0.0
C298 C 0.34309 1.02949 0.34711 0.0
C299 C 0.31864 0.98565 0.31281 0.0
C300 C 0.31724 0.97541 0.34835 0.0
N301 N 0.33476 1.01964 0.31182 0.0
N302 N 0.33267 1.0029 0.36993 0.0
H303 H 0.35766 0.05551 0.35576 0.0
H304 H 0.30915 0.96902 0.28943 0.0
C305 C 0.36325 0.11756 0.2944 0.0
O306 O 0.38215 0.13194 0.26556 0.0
N307 N 0.36049 0.07595 0.22473 0.0
C308 C 0.38856 0.08613 0.20441 0.0
C309 C 0.38854 0.10585 0.17618 0.0
C310 C 0.34314 0.0886 0.20759 0.0
N311 N 0.36007 0.1074 0.17825 0.0
C312 C 0.40203 0.03518 0.26724 0.0
C313 C 0.45277 0.09829 0.28771 0.0
C314 C 0.4614 0.07462 0.27521 0.0
C315 C 0.43533 0.04233 0.26608 0.0
C316 C 0.41902 0.09004 0.28859 0.0
N317 N 0.39418 0.05932 0.27655 0.0
H318 H 0.38259 1.01032 0.25927 0.0
H319 H 0.41357 0.10886 0.29824 0.0
H320 H 0.40795 0.07992 0.20954 0.0
H321 H 0.31938 0.08535 0.21725 0.0
O322 O 0.33333 1.00929 0.23675 0.0
O323 O 0.30066 1.02914 0.25535 0.0
O324 O 0.35088 0.08602 0.30024 0.0
C325 C 0.30388 1.00682 0.23643 0.0
H326 H 0.30591 0.94959 0.35757 0.0
H327 H 0.40796 0.11812 0.15561 0.0
H328 H 0.47199 0.12321 0.29626 0.0
H329 H 0.44058 1.02304 0.25647 0.0
Co330 Co 0.32284 0.33344 0.4337 0.0
C331 C 0.32192 0.33209 0.51545 0.0
C332 C 0.35857 0.32078 0.49352 0.0
C333 C 0.3604 0.32103 0.53115 0.0
N334 N 0.3344 0.32774 0.48349 0.0
N335 N 0.3372 0.32787 0.5447 0.0
H336 H 0.30304 0.33945 0.51773 0.0
H337 H 0.37441 0.31644 0.47496 0.0
C338 C 0.25754 0.31738 0.46457 0.0
O339 O 0.25156 0.28629 0.46668 0.0
N340 N 0.31147 0.3395 0.38454 0.0
C341 C 0.33306 0.35985 0.35871 0.0
C342 C 0.31491 0.35977 0.32876 0.0
C343 C 0.28056 0.32669 0.36975 0.0
N344 N 0.28205 0.33887 0.33579 0.0
C345 C 0.38845 0.39069 0.43873 0.0
C346 C 0.3703 0.43945 0.43129 0.0
C347 C 0.40469 0.44953 0.43214 0.0
C348 C 0.41344 0.42445 0.43631 0.0
C349 C 0.34599 0.4052 0.4333 0.0
N350 N 0.35527 0.38131 0.43668 0.0
H351 H 0.39588 0.37186 0.44087 0.0
H352 H 0.31983 0.39798 0.4307 0.0
H353 H 0.36006 0.37441 0.36179 0.0
H354 H 0.25745 0.30975 0.38392 0.0
O355 O 0.35164 0.31771 0.41323 0.0
O356 O 0.29792 0.28504 0.42705 0.0
O357 O 0.28594 0.34064 0.45289 0.0
C358 C 0.32556 0.28761 0.41438 0.0
H359 H 0.37746 0.31658 0.54738 0.0
H360 H 0.32499 0.37405 0.3038 0.0
H361 H 0.3621 0.45772 0.42852 0.0
H362 H 0.43943 0.43049 0.43628 0.0
Co363 Co 1.01846 0.32537 0.59065 0.0
C364 C 1.03813 0.32831 0.6697 0.0
C365 C 0.07525 0.37019 0.63903 0.0
C366 C 0.08697 0.3725 0.67399 0.0
N367 N 1.04414 0.34285 0.63615 0.0
N368 N 0.0636 0.34626 0.69328 0.0
H369 H 1.0167 0.30424 0.67656 0.0
H370 H 0.08949 0.38697 0.61697 0.0
C371 C 0.96125 0.29084 0.64398 0.0
O372 O 0.96903 0.3203 0.65798 0.0
N373 N 0.99396 0.30779 0.54549 0.0
C374 C 0.99595 0.32559 0.51543 0.0
C375 C 0.97454 0.30378 0.48927 0.0
C376 C 0.97169 0.27545 0.53725 0.0
N377 N 0.95925 0.27224 0.50302 0.0
C378 C 1.0242 0.39014 0.59572 0.0
C379 C 0.9572 0.3699 0.58506 0.0
C380 C 0.98074 0.4044 0.58713 0.0
C381 C 1.01451 0.41431 0.59284 0.0
C382 C 0.96811 0.34636 0.5877 0.0
N383 N 1.00126 0.35658 0.59376 0.0
H384 H 0.05058 0.39878 0.59762 0.0
H385 H 0.95002 0.31996 0.58389 0.0
H386 H 1.01155 0.35262 0.51294 0.0
H387 H 0.96496 0.25475 0.55587 0.0
O388 O 0.05805 0.35358 0.56252 0.0
O389 O 1.04297 0.30186 0.58085 0.0
O390 O 0.97892 0.28861 0.61822 0.0
C391 C 0.06448 0.32907 0.56348 0.0
H392 H 0.11103 0.39185 0.68437 0.0
H393 H 0.97001 0.31079 0.46255 0.0
H394 H 0.9309 0.36128 0.58002 0.0
H395 H 1.03353 0.44071 0.59443 0.0
H396 H 0.27215 0.38535 0.30202 0.0
H397 H 0.22999 0.27811 0.31687 0.0
H398 H 0.18415 0.26709 0.2733 0.0
H399 H 0.19174 0.38256 0.29859 0.0
H400 H 0.20597 0.41595 0.2654 0.0
H401 H 0.23542 0.41486 0.29698 0.0
H402 H 0.27246 0.41626 0.2425 0.0
H403 H 0.24304 0.41715 0.21075 0.0
H404 H 0.25418 0.38473 0.20704 0.0
H405 H 0.14541 0.26845 0.2245 0.0
H406 H 0.11246 0.28191 0.1809 0.0
H407 H 0.17719 0.38819 0.20282 0.0
C408 C 0.25316 0.35961 0.296 0.0
C409 C 0.25448 0.33247 0.3123 0.0
C410 C 0.22913 0.29907 0.30449 0.0
C411 C 0.20323 0.29268 0.27974 0.0
C412 C 0.20279 0.32005 0.26376 0.0
C413 C 0.22675 0.35287 0.27216 0.0
C414 C 0.21994 0.37784 0.25251 0.0
C415 C 0.21283 0.39905 0.28001 0.0
C416 C 0.24914 0.40031 0.22667 0.0
C417 C 0.18866 0.35402 0.23128 0.0
C418 C 0.1794 0.32078 0.23768 0.0
C419 C 0.15219 0.29436 0.21969 0.0
C420 C 0.13376 0.30215 0.19491 0.0
C421 C 0.14227 0.33596 0.18898 0.0
C422 C 0.17004 0.36213 0.20741 0.0
H423 H 0.84989 0.15908 0.33549 0.0
H424 H 0.78496 0.08561 0.41574 0.0
H425 H 0.82311 0.12044 0.46521 0.0
H426 H 0.93014 0.18296 0.38132 0.0
H427 H 0.94844 0.22676 0.36933 0.0
H428 H 0.91745 0.19473 0.33989 0.0
H429 H 0.88121 0.22341 0.34413 0.0
H430 H 0.91196 0.2554 0.37371 0.0
H431 H 0.86882 0.23095 0.3885 0.0
H432 H 0.86633 0.16447 0.50625 0.0
H433 H 0.91133 0.21519 0.53622 0.0
H434 H 0.94879 0.26038 0.42959 0.0
C435 C 0.84414 0.15011 0.36342 0.0
C436 C 0.81449 0.11967 0.37182 0.0
C437 C 0.80738 0.10901 0.40877 0.0
C438 C 0.82899 0.12851 0.43702 0.0
C439 C 0.85768 0.15868 0.42794 0.0
C440 C 0.86537 0.16947 0.39206 0.0
C441 C 0.89685 0.20381 0.39006 0.0
C442 C 0.92488 0.20194 0.3689 0.0
C443 C 0.88924 0.22993 0.3731 0.0
C444 C 0.90528 0.21079 0.43042 0.0
C445 C 0.88254 0.18429 0.45174 0.0
C446 C 0.88453 0.18526 0.48983 0.0
C447 C 0.91034 0.21418 0.50662 0.0
C448 C 0.93381 0.24191 0.48539 0.0
C449 C 0.93121 0.23985 0.44672 0.0
H450 H 0.7211 0.84281 0.50401 0.0
H451 H 0.72856 0.777 0.58351 0.0
H452 H 0.73818 0.818 0.63262 0.0
H453 H 0.78409 0.92328 0.54592 0.0
H454 H 0.76035 0.94384 0.53588 0.0
H455 H 0.75714 0.91077 0.50633 0.0
H456 H 0.6925 0.87823 0.51517 0.0
H457 H 0.69552 0.91108 0.54484 0.0
H458 H 0.67524 0.8682 0.56083 0.0
H459 H 0.74371 0.86417 0.67355 0.0
H460 H 0.74345 0.912 0.70412 0.0
H461 H 0.73202 0.94843 0.59864 0.0
C462 C 0.72542 0.83748 0.53167 0.0
C463 C 0.72416 0.80682 0.54006 0.0
C464 C 0.7292 0.80025 0.57664 0.0
C465 C 0.73487 0.82346 0.60465 0.0
C466 C 0.73532 0.85316 0.59569 0.0
C467 C 0.73073 0.8603 0.56014 0.0
C468 C 0.73028 0.89313 0.55847 0.0
C469 C 0.75972 0.91931 0.53528 0.0
C470 C 0.69637 0.88729 0.54398 0.0
C471 C 0.73482 0.90296 0.59866 0.0
C472 C 0.73805 0.87972 0.61955 0.0
C473 C 0.74157 0.88277 0.65746 0.0
C474 C 0.74157 0.91019 0.67459 0.0
C475 C 0.73788 0.93422 0.6539 0.0
C476 C 0.73472 0.9305 0.61534 0.0
H477 H 0.92137 0.72176 0.67041 0.0
H478 H 0.99111 0.71951 0.74839 0.0
H479 H 0.95978 0.72695 0.79918 0.0
H480 H 0.90764 0.78414 0.71876 0.0
H481 H 0.86356 0.76339 0.70756 0.0
H482 H 0.89269 0.76004 0.67702 0.0
H483 H 0.85719 0.69498 0.68032 0.0
H484 H 0.828 0.69811 0.71087 0.0
H485 H 0.84796 0.67456 0.72433 0.0
H486 H 0.92002 0.73248 0.84158 0.0
H487 H 0.87315 0.7336 0.87319 0.0
H488 H 0.82852 0.73221 0.76816 0.0
C489 C 0.93025 0.72334 0.69815 0.0
C490 C 0.95867 0.72006 0.70549 0.0
C491 C 0.96922 0.72162 0.7422 0.0
C492 C 0.95173 0.72608 0.77119 0.0
C493 C 0.92362 0.72886 0.7631 0.0
C494 C 0.91284 0.72748 0.72753 0.0
C495 C 0.88082 0.7294 0.72661 0.0
C496 C 0.88654 0.76114 0.70628 0.0
C497 C 0.85178 0.69735 0.70953 0.0
C498 C 0.87516 0.7317 0.76724 0.0
C499 C 0.90035 0.73169 0.78772 0.0
C500 C 0.9003 0.73283 0.82584 0.0
C501 C 0.87362 0.73371 0.84356 0.0
C502 C 0.84716 0.73328 0.82325 0.0
C503 C 0.84824 0.73249 0.78451 0.0
H504 H 0.24117 0.90172 0.83829 0.0
H505 H 0.29966 0.97642 0.92082 0.0
H506 H 0.25915 0.94111 0.96827 0.0
H507 H 0.1578 0.87606 0.87816 0.0
H508 H 0.141 0.83225 0.86678 0.0
H509 H 0.17332 0.86439 0.83857 0.0
H510 H 0.21023 0.83697 0.84747 0.0
H511 H 0.17815 0.80488 0.87586 0.0
H512 H 0.22027 0.83019 0.89318 0.0
H513 H 0.21492 0.89704 0.00726 0.0
H514 H 0.16898 0.84678 0.03601 0.0
H515 H 0.13721 0.79955 0.92902 0.0
C516 C 0.24501 0.9108 0.86626 0.0
C517 C 0.27363 0.94182 0.87591 0.0
C518 C 0.27816 0.95263 0.9129 0.0
C519 C 0.25518 0.93283 0.94001 0.0
C520 C 0.22765 0.90215 0.92982 0.0
C521 C 0.22229 0.89112 0.89388 0.0
C522 C 0.19132 0.85633 0.89089 0.0
C523 C 0.16426 0.85733 0.86719 0.0
C524 C 0.20056 0.83058 0.87597 0.0
C525 C 0.18049 0.8495 0.9308 0.0
C526 C 0.20177 0.87643 0.95261 0.0
C527 C 0.19777 0.87593 0.99043 0.0
C528 C 0.1713 0.84717 0.00652 0.0
C529 C 0.14889 0.81902 0.98495 0.0
C530 C 0.15373 0.82044 0.94645 0.0
H531 H 0.39779 0.26701 0.06008 0.0
H532 H 0.29585 0.21167 0.01925 0.0
H533 H 0.28471 0.16332 0.05918 0.0
H534 H 0.41109 0.19667 0.06196 0.0
H535 H 0.43681 0.21076 0.10251 0.0
H536 H 0.43554 0.24101 0.07229 0.0
H537 H 0.41777 0.26539 0.12657 0.0
H538 H 0.41891 0.23515 0.15696 0.0
H539 H 0.38115 0.23774 0.15327 0.0
H540 H 0.28514 0.12165 0.10596 0.0
H541 H 0.29885 0.08854 0.14924 0.0
H542 H 0.40157 0.17076 0.15508 0.0
C543 C 0.37301 0.24482 0.0599 0.0
C544 C 0.34744 0.24309 0.03716 0.0
C545 C 0.31562 0.21336 0.03672 0.0
C546 C 0.30912 0.18596 0.05938 0.0
C547 C 0.33494 0.18862 0.08175 0.0
C548 C 0.3664 0.21721 0.08168 0.0
C549 C 0.39054 0.21336 0.10647 0.0
C550 C 0.42024 0.21557 0.08449 0.0
C551 C 0.4028 0.23946 0.13767 0.0
C552 C 0.36784 0.17815 0.12074 0.0
C553 C 0.3357 0.16434 0.1067 0.0
C554 C 0.3103 0.1322 0.11685 0.0
C555 C 0.31818 0.11365 0.14151 0.0
C556 C 0.35127 0.12709 0.15507 0.0
C557 C 0.3762 0.1598 0.14466 0.0
H558 H 0.06552 0.47428 0.0672 0.0
H559 H 0.17268 0.51035 0.0599 0.0
H560 H 0.18425 0.56857 0.06926 0.0
H561 H 0.06837 0.54337 0.01638 0.0
H562 H 1.03568 0.54353 0.04372 0.0
H563 H 1.03635 0.50493 0.03708 0.0
H564 H 1.03616 0.49761 0.10745 0.0
H565 H 1.03587 0.53636 0.11431 0.0
H566 H 0.0684 0.53081 0.13477 0.0
H567 H 0.18369 0.6235 0.0816 0.0
H568 H 0.17096 0.66921 0.09249 0.0
H569 H 0.06423 0.5964 0.08515 0.0
C570 C 0.09151 0.49426 0.06674 0.0
C571 C 0.11812 0.48728 0.06272 0.0
C572 C 0.1517 0.51462 0.06345 0.0
C573 C 0.15858 0.54793 0.06853 0.0
C574 C 0.13165 0.55369 0.07247 0.0
C575 C 0.09879 0.52755 0.0712 0.0
C576 C 0.0742 0.54018 0.07559 0.0
C577 C 0.05237 0.53256 0.04114 0.0
C578 C 0.05239 0.52536 0.11008 0.0
C579 C 0.09829 0.57756 0.07986 0.0
C580 C 0.13134 0.58498 0.07825 0.0
C581 C 0.15786 0.61791 0.08253 0.0
C582 C 0.15034 0.64381 0.08851 0.0
C583 C 0.11653 0.63677 0.08991 0.0
C584 C 0.09038 0.60301 0.08518 0.0
H585 H 0.49081 0.03618 0.28931 0.0
H586 H 0.5128 0.13362 0.24758 0.0
H587 H 0.57084 0.14718 0.23335 0.0
H588 H 0.57315 0.06374 0.32937 0.0
H589 H 0.57284 1.02557 0.31666 0.0
H590 H 0.53384 1.02469 0.32578 0.0
H591 H 0.51187 0.99834 0.26176 0.0
H592 H 0.55089 0.9994 0.25232 0.0
H593 H 0.53595 1.01964 0.22155 0.0
H594 H 0.62579 0.14864 0.22019 0.0
H595 H 0.67347 0.13856 0.21136 0.0
H596 H 0.61514 0.04025 0.26182 0.0
C597 C 0.50783 0.06045 0.27732 0.0
C598 C 0.49716 0.08386 0.26969 0.0
C599 C 0.52045 0.11545 0.25428 0.0
C600 C 0.55344 0.1233 0.24583 0.0
C601 C 0.56287 0.09937 0.25307 0.0
C602 C 0.5408 0.06869 0.26873 0.0
C603 C 0.55687 0.04702 0.27298 0.0
C604 C 0.55933 0.03985 0.31361 0.0
C605 C 0.53775 1.01416 0.25083 0.0
C606 C 0.59126 0.07007 0.25673 0.0
C607 C 0.59433 0.1002 0.2455 0.0
C608 C 0.62374 0.12522 0.22915 0.0
C609 C 0.65073 0.1193 0.22434 0.0
C610 C 0.64813 0.08857 0.23573 0.0
C611 C 0.61788 0.06379 0.2522 0.0
H612 H 0.59156 0.6059 0.44153 0.0
H613 H 0.56089 0.65924 0.36762 0.0
H614 H 0.50221 0.6116 0.37007 0.0
H615 H 0.54033 0.52445 0.40522 0.0
H616 H 0.53074 0.50352 0.44894 0.0
H617 H 0.56959 0.54245 0.44264 0.0
H618 H 0.55489 0.56875 0.49761 0.0
H619 H 0.51597 0.52983 0.50413 0.0
H620 H 0.51557 0.56859 0.49787 0.0
H621 H 0.44778 0.55564 0.37701 0.0
H622 H 0.40224 0.49771 0.38921 0.0
H623 H 0.46838 0.48314 0.46212 0.0
C624 C 0.57246 0.60758 0.4259 0.0
C625 C 0.58072 0.6361 0.40414 0.0
C626 C 0.555 0.63762 0.38452 0.0
C627 C 0.52168 0.61069 0.38573 0.0
C628 C 0.51449 0.58271 0.40714 0.0
C629 C 0.53915 0.58121 0.42718 0.0
C630 C 0.52515 0.54825 0.44766 0.0
C631 C 0.54248 0.52851 0.43536 0.0
C632 C 0.52807 0.55422 0.48929 0.0
C633 C 0.48886 0.531 0.43538 0.0
C634 C 0.48312 0.55122 0.41207 0.0
C635 C 0.45189 0.53983 0.39573 0.0
C636 C 0.42601 0.50684 0.40311 0.0
C637 C 0.43136 0.48552 0.42683 0.0
C638 C 0.46323 0.49832 0.44355 0.0
H639 H 1.01232 0.58368 0.5252 0.0
H640 H 0.93537 0.57076 0.60372 0.0
H641 H 0.92123 0.51217 0.61344 0.0
H642 H 0.97031 0.49766 0.48826 0.0
H643 H 1.0089 0.49646 0.48584 0.0
H644 H 1.00969 0.53592 0.48073 0.0
H645 H 0.05266 0.56152 0.53376 0.0
H646 H 0.05204 0.52223 0.53898 0.0
H647 H 1.04259 0.54073 0.57759 0.0
H648 H 0.91827 0.4559 0.61864 0.0
H649 H 0.92962 0.40847 0.62131 0.0
H650 H 1.01055 0.45949 0.54272 0.0
C651 C 0.99233 0.56863 0.54429 0.0
C652 C 0.97475 0.58214 0.56318 0.0
C653 C 0.94868 0.5611 0.58787 0.0
C654 C 0.94053 0.52767 0.59386 0.0
C655 C 0.95874 0.51546 0.57523 0.0
C656 C 0.98421 0.53537 0.55106 0.0
C657 C 1.00207 0.5173 0.53708 0.0
C658 C 0.99745 0.51149 0.49551 0.0
C659 C 1.03955 0.53659 0.54749 0.0
C660 C 0.98318 0.48446 0.55781 0.0
C661 C 0.95787 0.48357 0.57919 0.0
C662 C 0.93784 0.4562 0.60177 0.0
C663 C 0.94434 0.42935 0.60305 0.0
C664 C 0.97096 0.43043 0.58232 0.0
C665 C 0.9901 0.45809 0.55896 0.0
H666 H 0.4821 1.01695 0.74551 0.0
H667 H 0.41201 0.90915 0.74324 0.0
H668 H 0.45928 0.89879 0.75262 0.0
H669 H 0.54746 1.01298 0.6937 0.0
H670 H 0.58066 0.04715 0.71908 0.0
H671 H 0.54099 0.04553 0.7131 0.0
H672 H 0.53554 0.04866 0.78353 0.0
H673 H 0.57497 0.04985 0.78975 0.0
H674 H 0.53761 1.01785 0.81219 0.0
H675 H 0.51531 0.9008 0.76459 0.0
H676 H 0.57422 0.91489 0.77382 0.0
H677 H 0.60647 1.02097 0.76087 0.0
C678 C 0.4764 0.99104 0.74613 0.0
C679 C 0.44294 0.96393 0.74359 0.0
C680 C 0.43716 0.93052 0.74571 0.0
C681 C 0.46394 0.92432 0.75081 0.0
C682 C 0.49649 0.95175 0.75329 0.0
C683 C 0.50274 0.98441 0.75052 0.0
C684 C 0.53989 1.00961 0.75325 0.0
C685 C 0.55302 1.03001 0.71766 0.0
C686 C 0.54743 0.03285 0.78667 0.0
C687 C 0.55368 0.98609 0.75833 0.0
C688 C 0.52838 0.95281 0.75861 0.0
C689 C 0.53533 0.9268 0.76399 0.0
C690 C 0.56898 0.93508 0.76902 0.0
C691 C 0.59543 0.96913 0.76829 0.0
C692 C 0.58724 0.99472 0.76258 0.0
H693 H 0.51931 0.45646 0.88732 0.0
H694 H 0.51287 0.41811 0.99713 0.0
H695 H 0.56594 0.46982 0.01338 0.0
H696 H 0.61168 0.4975 0.87929 0.0
H697 H 0.61468 0.5323 0.85345 0.0
H698 H 0.57748 0.49139 0.85016 0.0
H699 H 0.54093 0.51755 0.8687 0.0
H700 H 0.578 0.55843 0.87246 0.0
H701 H 0.54974 0.54102 0.9109 0.0
H702 H 0.61614 0.52852 0.0193 0.0
H703 H 0.66245 0.58683 0.01321 0.0
H704 H 0.63897 0.58494 0.89766 0.0
C705 C 0.52938 0.45879 0.91462 0.0
C706 C 0.51207 0.43332 0.94101 0.0
C707 C 0.52596 0.43718 0.97643 0.0
C708 C 0.55595 0.46653 0.98593 0.0
C709 C 0.57202 0.49151 0.9595 0.0
C710 C 0.55953 0.48765 0.92436 0.0
C711 C 0.58138 0.51839 0.90119 0.0
C712 C 0.59725 0.50935 0.86913 0.0
C713 C 0.56131 0.53481 0.88752 0.0
C714 C 0.60764 0.54054 0.92903 0.0
C715 C 0.60174 0.52465 0.96251 0.0
C716 C 0.62147 0.54091 0.99296 0.0
C717 C 0.64804 0.57415 0.98907 0.0
C718 C 0.65515 0.59093 0.95477 0.0
C719 C 0.63447 0.57344 0.92443 0.0
H720 H 1.01373 0.32219 0.74425 0.0
H721 H 0.11938 0.35578 0.72814 0.0
H722 H 0.12567 0.3499 0.79439 0.0
H723 H 1.02382 0.36639 0.82671 0.0
H724 H 0.98585 0.33427 0.84807 0.0
H725 H 0.9886 0.33767 0.79894 0.0
H726 H 0.97369 0.27536 0.79367 0.0
H727 H 0.97061 0.27166 0.84283 0.0
H728 H 0.99838 0.26132 0.81824 0.0
H729 H 0.12145 0.34379 0.86237 0.0
H730 H 0.10699 0.33722 0.92793 0.0
H731 H 1.00429 0.30942 0.90091 0.0
C732 C 1.03793 0.3275 0.75469 0.0
C733 C 0.06608 0.3393 0.73118 0.0
C734 C 0.0976 0.34684 0.7458 0.0
C735 C 0.10136 0.34347 0.78332 0.0
C736 C 0.07335 0.3326 0.80595 0.0
C737 C 1.0422 0.32461 0.79226 0.0
C738 C 1.01673 0.31547 0.82294 0.0
C739 C 1.00295 0.33991 0.82423 0.0
C740 C 0.98817 0.27877 0.81919 0.0
C741 C 1.03857 0.32002 0.85594 0.0
C742 C 0.07107 0.32967 0.84544 0.0
C743 C 0.09605 0.33617 0.87096 0.0
C744 C 0.08764 0.33269 0.90824 0.0
C745 C 0.05451 0.32299 0.91985 0.0
C746 C 1.02973 0.3165 0.89311 0.0
H747 H 0.75838 1.01453 0.91498 0.0
H748 H 0.74769 0.10292 0.90639 0.0
H749 H 0.74106 0.10339 0.97348 0.0
H750 H 0.69912 0.9748 0.99222 0.0
H751 H 0.72474 0.96 0.01329 0.0
H752 H 0.72524 0.96455 0.96425 0.0
H753 H 0.78993 1.00332 0.96578 0.0
H754 H 0.78963 0.99907 0.01477 0.0
H755 H 0.80806 0.04032 0.99451 0.0
H756 H 0.73897 0.09646 0.0413 0.0
H757 H 0.74143 0.08258 0.10578 0.0
H758 H 0.75597 0.99999 0.07095 0.0
C759 C 0.75387 0.03344 0.9273 0.0
C760 C 0.75344 0.05865 0.90568 0.0
C761 C 0.74826 0.08353 0.92264 0.0
C762 C 0.74433 0.0839 0.96064 0.0
C763 C 0.74571 0.05923 0.98135 0.0
C764 C 0.75027 0.03439 0.96538 0.0
C765 C 0.75291 1.01218 0.99424 0.0
C766 C 0.72376 0.97572 0.99079 0.0
C767 C 0.78717 1.01384 0.99219 0.0
C768 C 0.74971 1.02883 0.02882 0.0
C769 C 0.74523 0.05568 0.02072 0.0
C770 C 0.74237 0.0754 0.04804 0.0
C771 C 0.74413 0.06747 0.08469 0.0
C772 C 0.74902 0.0402 0.09382 0.0
C773 C 0.75174 1.02068 0.06524 0.0
H774 H 0.73391 0.77049 0.10357 0.0
H775 H 0.81603 0.75321 0.07497 0.0
H776 H 0.83003 0.75549 0.14011 0.0
H777 H 0.77437 0.82573 0.18386 0.0
H778 H 0.73559 0.80739 0.20948 0.0
H779 H 0.73486 0.80942 0.16022 0.0
H780 H 0.69429 0.74495 0.15723 0.0
H781 H 0.69485 0.74275 0.20636 0.0
H782 H 0.70614 0.71715 0.17884 0.0
H783 H 0.83095 0.75239 0.2082 0.0
H784 H 0.81825 0.74375 0.27438 0.0
H785 H 0.73544 0.76236 0.25979 0.0
C786 C 0.75507 0.76751 0.11074 0.0
C787 C 0.77379 0.7617 0.08358 0.0
C788 C 0.80143 0.75817 0.09471 0.0
C789 C 0.80961 0.75936 0.13186 0.0
C790 C 0.79013 0.76431 0.15778 0.0
C791 C 0.76351 0.76848 0.14774 0.0
C792 C 0.74483 0.7706 0.18115 0.0
C793 C 0.74759 0.80536 0.18383 0.0
C794 C 0.70785 0.74217 0.18086 0.0
C795 C 0.76442 0.76577 0.21152 0.0
C796 C 0.79072 0.76264 0.19738 0.0
C797 C 0.8108 0.75536 0.21962 0.0
C798 C 0.80337 0.7504 0.25711 0.0
C799 C 0.77611 0.7527 0.2721 0.0
C800 C 0.75693 0.76131 0.24911 0.0
H801 H 1.00849 0.7135 0.41944 0.0
H802 H 0.11573 0.77998 0.43117 0.0
H803 H 0.12375 0.77426 0.36508 0.0
H804 H 1.01252 0.65829 0.34568 0.0
H805 H 0.97655 0.65499 0.32221 0.0
H806 H 0.97977 0.66004 0.37128 0.0
H807 H 0.97283 0.71252 0.36585 0.0
H808 H 0.96992 0.70786 0.31683 0.0
H809 H 1.00126 0.74699 0.33701 0.0
H810 H 0.11965 0.76671 0.29751 0.0
H811 H 0.10413 0.75794 0.23256 0.0
H812 H 0.99897 0.69603 0.26307 0.0
C813 C 1.03367 0.72581 0.40811 0.0
C814 C 0.06165 0.74677 0.43026 0.0
C815 C 0.09416 0.76361 0.41451 0.0
C816 C 0.0989 0.76046 0.37709 0.0
C817 C 0.07079 0.74043 0.35566 0.0
C818 C 1.03878 0.72324 0.37051 0.0
C819 C 1.01266 0.70599 0.34067 0.0
C820 C 0.99429 0.66754 0.34524 0.0
C821 C 0.98771 0.71914 0.34007 0.0
C822 C 1.03493 0.71695 0.30681 0.0
C823 C 0.06837 0.73644 0.31621 0.0
C824 C 0.09357 0.75097 0.28979 0.0
C825 C 0.08442 0.74566 0.25275 0.0
C826 C 0.05023 0.726 0.24215 0.0
C827 C 1.0253 0.71122 0.26987 0.0
H828 H 0.33996 0.06104 0.57726 0.0
H829 H 0.35112 0.97583 0.60823 0.0
H830 H 0.35043 0.96128 0.54307 0.0
H831 H 0.28435 1.02141 0.50208 0.0
H832 H 0.30269 0.05859 0.47387 0.0
H833 H 0.30436 0.06258 0.52301 0.0
H834 H 0.36918 0.10001 0.51982 0.0
H835 H 0.36769 0.09606 0.47065 0.0
H836 H 0.3935 0.08444 0.4968 0.0
H837 H 0.34778 0.95541 0.47472 0.0
H838 H 0.34257 0.95807 0.40783 0.0
H839 H 0.33435 0.04776 0.42049 0.0
C840 C 0.34266 0.03953 0.57048 0.0
C841 C 0.34558 1.0196 0.59823 0.0
C842 C 0.3484 0.99129 0.58781 0.0
C843 C 0.3483 0.98296 0.55075 0.0
C844 C 0.34546 1.00319 0.52427 0.0
C845 C 0.3427 1.0309 0.53361 0.0
C846 C 0.33945 0.04817 0.49975 0.0
C847 C 0.3057 0.04764 0.49969 0.0
C848 C 0.36924 0.08431 0.49658 0.0
C849 C 0.34066 1.02571 0.46987 0.0
C850 C 0.34417 0.99994 0.48471 0.0
C851 C 0.34506 0.97548 0.46282 0.0
C852 C 0.34191 0.97711 0.42484 0.0
C853 C 0.33793 1.00304 0.4089 0.0
C854 C 0.33774 1.02789 0.43183 0.0
H855 H 0.38257 0.36887 0.59403 0.0
H856 H 0.27813 0.29295 0.5808 0.0
H857 H 0.26941 0.29306 0.6481 0.0
H858 H 0.39854 0.33892 0.67231 0.0
H859 H 0.42543 0.37938 0.69313 0.0
H860 H 0.42156 0.37581 0.64418 0.0
H861 H 0.40345 0.42106 0.64324 0.0
H862 H 0.40722 0.42471 0.69239 0.0
H863 H 0.36825 0.41522 0.67074 0.0
H864 H 0.27577 0.29526 0.71829 0.0
H865 H 0.29599 0.30108 0.78237 0.0
H866 H 0.39431 0.38025 0.74797 0.0
C867 C 0.35775 0.35292 0.60542 0.0
C868 C 0.33099 0.33091 0.58271 0.0
C869 C 0.29877 0.31013 0.59809 0.0
C870 C 0.29368 0.31009 0.63616 0.0
C871 C 0.32089 0.33174 0.65813 0.0
C872 C 0.35213 0.3533 0.64304 0.0
C873 C 0.37781 0.37292 0.67226 0.0
C874 C 0.40756 0.36633 0.67035 0.0
C875 C 0.38988 0.41072 0.66948 0.0
C876 C 0.35677 0.3578 0.70629 0.0
C877 C 0.32392 0.33423 0.6979 0.0
C878 C 0.3012 0.31432 0.72517 0.0
C879 C 0.31277 0.31788 0.76156 0.0
C880 C 0.34672 0.3411 0.77015 0.0
C881 C 0.36824 0.36225 0.74226 0.0
H882 H 0.30731 0.36913 0.94157 0.0
H883 H 0.25517 0.26018 0.9329 0.0
H884 H 0.20399 0.2572 0.959 0.0
H885 H 0.27213 0.3742 0.02604 0.0
H886 H 0.26851 0.41026 0.01372 0.0
H887 H 0.30062 0.40402 0.99298 0.0
H888 H 0.27863 0.40622 0.92841 0.0
H889 H 0.24668 0.41287 0.94895 0.0
H890 H 0.23497 0.37834 0.91755 0.0
H891 H 0.15973 0.26606 0.99053 0.0
H892 H 0.12403 0.28632 0.0188 0.0
H893 H 0.20428 0.38956 1.00429 0.0
C894 C 0.28499 0.34466 0.94471 0.0
C895 C 0.28523 0.31486 0.93514 0.0
C896 C 0.25552 0.28335 0.93978 0.0
C897 C 0.22637 0.2814 0.95477 0.0
C898 C 0.22718 0.31121 0.96461 0.0
C899 C 0.25556 0.34229 0.95921 0.0
C900 C 0.24985 0.37054 0.972 0.0
C901 C 0.27422 0.39095 1.00303 0.0
C902 C 0.25269 0.39333 0.93981 0.0
C903 C 0.21399 0.35052 0.98589 0.0
C904 C 0.20142 0.31632 0.98165 0.0
C905 C 0.16922 0.2928 0.99364 0.0
C906 C 0.14919 0.30454 0.00988 0.0
C907 C 0.16127 0.33952 0.01366 0.0
C908 C 0.19419 0.36267 1.00154 0.0
H909 H 1.00074 0.22903 0.10837 0.0
H910 H 0.97682 0.30849 0.12504 0.0
H911 H 0.92396 0.26819 0.15596 0.0
H912 H 0.91624 0.16294 0.08962 0.0
H913 H 0.92086 0.13107 0.11324 0.0
H914 H 0.95696 0.16628 0.09266 0.0
H915 H 0.9878 0.18069 0.15509 0.0
H916 H 0.95178 0.14553 0.17585 0.0
H917 H 0.96816 0.18722 0.1947 0.0
H918 H 0.87322 0.21886 0.18518 0.0
H919 H 0.8288 0.16435 0.20985 0.0
H920 H 0.88592 0.11733 0.17396 0.0
C921 C 0.9844 0.23796 0.11854 0.0
C922 C 0.99297 0.27196 0.11426 0.0
C923 C 0.97083 0.28258 0.12795 0.0
C924 C 0.94071 0.25987 0.1456 0.0
C925 C 0.93298 0.22654 0.14938 0.0
C926 C 0.95418 0.21559 0.13621 0.0
C927 C 0.93991 0.17841 0.14365 0.0
C928 C 0.93308 0.1585 0.10765 0.0
C929 C 0.9633 0.17264 0.16882 0.0
C930 C 0.90742 0.17017 0.16302 0.0
C931 C 0.90386 0.19824 0.1661 0.0
C932 C 0.87577 0.1967 0.18292 0.0
C933 C 0.85066 0.16563 0.19687 0.0
C934 C 0.85378 0.1365 0.19391 0.0
C935 C 0.88267 0.13905 0.17676 0.0
H936 H 0.68072 0.81592 0.32294 0.0
H937 H 0.77262 0.84626 0.38381 0.0
H938 H 0.79461 0.90481 0.3645 0.0
H939 H 0.71863 0.87253 0.247 0.0
H940 H 0.68532 0.88222 0.24256 0.0
H941 H 0.67638 0.84206 0.26056 0.0
H942 H 0.6509 0.85267 0.3191 0.0
H943 H 0.65961 0.8928 0.30123 0.0
H944 H 0.67565 0.89052 0.34543 0.0
H945 H 0.80835 0.95944 0.33663 0.0
H946 H 0.81048 1.00851 0.30625 0.0
H947 H 0.70868 0.94485 0.26686 0.0
C948 C 0.70541 0.83494 0.33219 0.0
C949 C 0.7249 0.82641 0.35485 0.0
C950 C 0.75705 0.85208 0.36661 0.0
C951 C 0.76992 0.88548 0.35567 0.0
C952 C 0.75024 0.89306 0.3333 0.0
C953 C 0.71852 0.86874 0.32203 0.0
C954 C 0.70237 0.8842 0.2989 0.0
C955 C 0.69527 0.86937 0.25995 0.0
C956 C 0.67023 0.87978 0.31727 0.0
C957 C 0.73008 0.92084 0.29891 0.0
C958 C 0.75762 0.92522 0.31854 0.0
C959 C 0.78684 0.95646 0.32145 0.0
C960 C 0.78789 0.98412 0.30403 0.0
C961 C 0.7597 0.98041 0.28457 0.0
C962 C 0.73043 0.94838 0.28202 0.0
H963 H 0.79374 0.69885 0.43586 0.0
H964 H 0.81431 0.79092 0.49145 0.0
H965 H 0.86249 0.7924 0.52317 0.0
H966 H 0.81917 0.66218 0.50946 0.0
H967 H 0.83891 0.64647 0.47859 0.0
H968 H 0.80384 0.6505 0.46329 0.0
H969 H 0.83971 0.68776 0.40923 0.0
H970 H 0.87486 0.68388 0.42438 0.0
H971 H 0.87951 0.72501 0.41849 0.0
H972 H 0.90835 0.78442 0.54805 0.0
H973 H 0.95294 0.77083 0.56036 0.0
H974 H 0.90604 0.68658 0.48457 0.0
C975 C 0.80813 0.7189 0.45524 0.0
C976 C 0.80031 0.74454 0.46183 0.0
C977 C 0.82005 0.77103 0.48639 0.0
C978 C 0.84727 0.77198 0.50457 0.0
C979 C 0.85469 0.74655 0.49728 0.0
C980 C 0.83601 0.72072 0.4729 0.0
C981 C 0.85124 0.69831 0.46763 0.0
C982 C 0.82683 0.66222 0.48052 0.0
C983 C 0.86197 0.69879 0.42756 0.0
C984 C 0.88145 0.71572 0.49269 0.0
C985 C 0.88253 0.7431 0.51001 0.0
C986 C 0.90785 0.76308 0.53463 0.0
C987 C 0.93302 0.75511 0.54148 0.0
C988 C 0.93301 0.72776 0.52328 0.0
C989 C 0.90677 0.70776 0.49869 0.0
H990 H 0.25792 0.87696 0.67435 0.0
H991 H 0.23096 0.94597 0.72559 0.0
H992 H 0.17287 0.91103 0.70406 0.0
H993 H 0.20764 0.85972 0.59475 0.0
H994 H 0.19502 0.8157 0.59227 0.0
H995 H 0.23457 0.84519 0.6129 0.0
H996 H 0.21726 0.80993 0.67248 0.0
H997 H 0.17769 0.7802 0.65196 0.0
H998 H 0.17835 0.80008 0.69489 0.0
H999 H 0.11904 0.87157 0.6739 0.0
H1000 H 0.07092 0.82709 0.64006 0.0
H1001 H 0.13076 0.78147 0.6099 0.0
C1002 C 0.23973 0.88454 0.68134 0.0
C1003 C 0.24919 0.91436 0.70162 0.0
C1004 C 0.22452 0.92334 0.71011 0.0
C1005 C 0.19137 0.90365 0.69798 0.0
C1006 C 0.18303 0.87481 0.67764 0.0
C1007 C 0.20628 0.86497 0.66966 0.0
C1008 C 0.19049 0.83286 0.64696 0.0
C1009 C 0.20797 0.83874 0.6095 0.0
C1010 C 0.19098 0.80406 0.66783 0.0
C1011 C 0.15492 0.82659 0.64304 0.0
C1012 C 0.15134 0.85125 0.6609 0.0
C1013 C 0.12139 0.8519 0.66011 0.0
C1014 C 0.09425 0.8266 0.64067 0.0
C1015 C 0.09707 0.80079 0.62249 0.0
C1016 C 0.12781 0.80073 0.62386 0.0
H1017 H 0.40517 0.21238 0.90868 0.0
H1018 H 0.3489 0.24471 0.84107 0.0
H1019 H 0.33321 0.1968 0.79987 0.0
H1020 H 0.43667 0.18385 0.83101 0.0
H1021 H 0.43373 0.14859 0.85583 0.0
H1022 H 0.44174 0.18621 0.88006 0.0
H1023 H 0.39002 0.15074 0.92153 0.0
H1024 H 0.38172 0.11307 0.89728 0.0
H1025 H 0.34948 0.12442 0.90084 0.0
H1026 H 0.31824 0.14274 0.76955 0.0
H1027 H 0.31104 0.08869 0.74689 0.0
H1028 H 0.38066 0.09266 0.82924 0.0
C1029 C 0.3899 0.20957 0.88497 0.0
C1030 C 0.37823 0.23241 0.87838 0.0
C1031 C 0.35831 0.22779 0.84691 0.0
C1032 C 0.3491 0.2005 0.82325 0.0
C1033 C 0.36043 0.17819 0.83083 0.0
C1034 C 0.38093 0.18266 0.86042 0.0
C1035 C 0.3897 0.15481 0.86176 0.0
C1036 C 0.42772 0.16923 0.85687 0.0
C1037 C 0.37696 0.13456 0.89748 0.0
C1038 C 0.3703 0.13378 0.82882 0.0
C1039 C 0.35334 0.14767 0.8117 0.0
C1040 C 0.33187 0.13189 0.78225 0.0
C1041 C 0.32779 0.10116 0.7697 0.0
C1042 C 0.34559 0.08689 0.78606 0.0
C1043 C 0.36728 0.10349 0.81588 0.0
H1044 H 0.72361 0.79716 0.89986 0.0
H1045 H 0.83237 0.84591 0.89467 0.0
H1046 H 0.83459 0.89576 0.86585 0.0
H1047 H 0.71107 0.8272 0.81463 0.0
H1048 H 0.67751 0.83324 0.83147 0.0
H1049 H 0.68462 0.80156 0.85158 0.0
H1050 H 0.69016 0.82835 0.9157 0.0
H1051 H 0.68289 0.86 0.89579 0.0
H1052 H 0.72021 0.87235 0.92248 0.0
H1053 H 0.82436 0.93949 0.83495 0.0
H1054 H 0.80299 0.97505 0.80926 0.0
H1055 H 0.7012 0.89844 0.83759 0.0
C1056 C 0.74792 0.81835 0.89273 0.0
C1057 C 0.77784 0.81763 0.89939 0.0
C1058 C 0.80914 0.84596 0.88991 0.0
C1059 C 0.81063 0.87433 0.87341 0.0
C1060 C 0.78061 0.87413 0.86696 0.0
C1061 C 0.74987 0.847 0.87674 0.0
C1062 C 0.72133 0.85328 0.86758 0.0
C1063 C 0.69722 0.82728 0.83965 0.0
C1064 C 0.70255 0.85351 0.90247 0.0
C1065 C 0.74073 0.88806 0.85085 0.0
C1066 C 0.77487 0.8996 0.85044 0.0
C1067 C 0.79769 0.93078 0.83541 0.0
C1068 C 0.78531 0.95076 0.82076 0.0
C1069 C 0.75045 0.93968 0.82159 0.0
C1070 C 0.72802 0.90783 0.83682 0.0
H1071 H 0.8661 0.75251 0.99334 0.0
H1072 H 0.82548 0.65318 0.94442 0.0
H1073 H 0.87218 0.64828 0.97026 0.0
H1074 H 0.95276 0.77872 0.97677 0.0
H1075 H 0.96773 0.80142 0.01932 0.0
H1076 H 0.93025 0.79698 0.99846 0.0
H1077 H 0.89675 0.77049 0.0581 0.0
H1078 H 0.93417 0.77498 0.07921 0.0
H1079 H 0.89656 0.73427 0.07735 0.0
H1080 H 0.92295 0.6538 0.99996 0.0
H1081 H 0.97606 0.66981 0.03146 0.0
H1082 H 0.98596 0.76623 0.06095 0.0
C1083 C 0.86691 0.72964 0.98835 0.0
C1084 C 0.84198 0.70317 0.96689 0.0
C1085 C 0.84418 0.67381 0.96071 0.0
C1086 C 0.87063 0.67073 0.97532 0.0
C1087 C 0.89486 0.69726 0.99603 0.0
C1088 C 0.89341 0.7262 1.00259 0.0
C1089 C 0.92345 0.75123 0.02504 0.0
C1090 C 0.94481 0.78403 1.00361 0.0
C1091 C 0.91205 0.75814 0.06213 0.0
C1092 C 0.94201 0.73183 0.02983 0.0
C1093 C 0.92482 0.7007 0.01297 0.0
C1094 C 0.93665 0.67809 0.01332 0.0
C1095 C 0.9669 0.68746 0.03134 0.0
C1096 C 0.98524 0.71928 0.04871 0.0
C1097 C 0.97255 0.74176 0.0479 0.0
H1098 H 0.19691 0.82011 0.15745 0.0
H1099 H 0.11554 0.84046 0.13837 0.0
H1100 H 0.15124 0.8986 0.16092 0.0
H1101 H 0.22756 0.86774 0.23985 0.0
H1102 H 0.27121 0.8831 0.22925 0.0
H1103 H 0.23938 0.84324 0.21112 0.0
H1104 H 0.26108 0.86373 0.14528 0.0
H1105 H 0.29298 0.9037 0.1632 0.0
H1106 H 0.26408 0.9022 0.129 0.0
H1107 H 0.19495 0.95378 0.18878 0.0
H1108 H 0.24433 1.00244 0.2171 0.0
H1109 H 0.29789 0.94688 0.21497 0.0
C1110 C 0.18658 0.83677 0.15797 0.0
C1111 C 0.15334 0.82563 0.14628 0.0
C1112 C 0.14092 0.84838 0.14715 0.0
C1113 C 0.16101 0.88148 0.15994 0.0
C1114 C 0.19361 0.8916 0.17139 0.0
C1115 C 0.20641 0.87001 0.17023 0.0
C1116 C 0.2423 0.88718 0.18399 0.0
C1117 C 0.24527 0.86924 0.21807 0.0
C1118 C 0.26654 0.88933 0.15355 0.0
C1119 C 0.24753 0.92165 0.19351 0.0
C1120 C 0.21911 0.92369 0.18619 0.0
C1121 C 0.21747 0.95259 0.19426 0.0
C1122 C 0.24557 0.98006 0.21038 0.0
C1123 C 0.27497 0.97851 0.21788 0.0
C1124 C 0.27593 0.94898 0.209 0.0
H1125 H 0.37096 0.28561 0.36718 0.0
H1126 H 0.28388 0.22229 0.43438 0.0
H1127 H 0.28667 0.17211 0.41448 0.0
H1128 H 0.34662 0.22858 0.29192 0.0
H1129 H 0.38887 0.23868 0.28057 0.0
H1130 H 0.38156 0.26971 0.3024 0.0
H1131 H 0.42255 0.27615 0.35448 0.0
H1132 H 0.42986 0.24498 0.33286 0.0
H1133 H 0.41554 0.23948 0.3797 0.0
H1134 H 0.29876 0.12881 0.38674 0.0
H1135 H 0.31562 0.09498 0.34876 0.0
H1136 H 0.39291 0.18641 0.29715 0.0
C1137 C 0.35272 0.2612 0.37797 0.0
C1138 C 0.32737 0.25775 0.40253 0.0
C1139 C 0.30352 0.2254 0.41555 0.0
C1140 C 0.30501 0.19682 0.40456 0.0
C1141 C 0.3303 0.20102 0.38023 0.0
C1142 C 0.35349 0.23236 0.36677 0.0
C1143 C 0.3767 0.22975 0.33902 0.0
C1144 C 0.37321 0.24242 0.30124 0.0
C1145 C 0.41333 0.24872 0.35232 0.0
C1146 C 0.36281 0.19204 0.3388 0.0
C1147 C 0.3364 0.17597 0.36317 0.0
C1148 C 0.3194 0.14112 0.36756 0.0
C1149 C 0.32924 0.12213 0.34592 0.0
C1150 C 0.35552 0.13801 0.31988 0.0
C1151 C 0.37271 0.17348 0.31675 0.0
H1152 H 0.0849 0.282 0.55732 0.0
H1153 H 0.11419 0.38544 0.53124 0.0
H1154 H 0.16657 0.39358 0.50335 0.0
H1155 H 0.16769 0.29771 0.58014 0.0
H1156 H 0.16173 0.25922 0.5598 0.0
H1157 H 0.1262 0.26121 0.57781 0.0
H1158 H 0.09634 0.24208 0.51498 0.0
H1159 H 0.13178 0.23999 0.4968 0.0
H1160 H 0.11747 0.26547 0.47438 0.0
H1161 H 0.21603 0.39116 0.47902 0.0
H1162 H 0.25913 0.3776 0.45838 0.0
H1163 H 0.19785 0.27565 0.49926 0.0
C1164 C 0.10234 0.30631 0.54569 0.0
C1165 C 0.09545 0.33306 0.54645 0.0
C1166 C 0.11887 0.36452 0.53093 0.0
C1167 C 0.14876 0.36946 0.51504 0.0
C1168 C 0.15486 0.34267 0.51476 0.0
C1169 C 0.13235 0.31168 0.52953 0.0
C1170 C 0.14512 0.28711 0.5254 0.0
C1171 C 0.15051 0.27565 0.56303 0.0
C1172 C 0.12126 0.25688 0.50146 0.0
C1173 C 0.17827 0.30922 0.5061 0.0
C1174 C 0.18341 0.34119 0.50033 0.0
C1175 C 0.21232 0.36619 0.48329 0.0
C1176 C 0.23666 0.35826 0.47172 0.0
C1177 C 0.23186 0.32558 0.47715 0.0
C1178 C 0.20223 0.30083 0.49459 0.0
H1179 H 0.9523 0.22725 0.65161 0.0
H1180 H 0.9024 0.28562 0.66612 0.0
H1181 H 0.85078 0.23442 0.68617 0.0
H1182 H 0.88047 0.14976 0.62017 0.0
H1183 H 0.89111 0.12276 0.64554 0.0
H1184 H 0.92381 0.1635 0.63037 0.0
H1185 H 0.94515 0.17952 0.69703 0.0
H1186 H 0.91269 0.13877 0.71239 0.0
H1187 H 0.91631 0.17642 0.73249 0.0
H1188 H 0.8045 0.17745 0.70225 0.0
H1189 H 0.76768 0.11914 0.72219 0.0
H1190 H 0.84823 0.09722 0.70331 0.0
C1191 C 0.93039 0.22908 0.65891 0.0
C1192 C 0.93109 0.26023 0.65712 0.0
C1193 C 0.90229 0.26197 0.66742 0.0
C1194 C 0.87285 0.23301 0.67859 0.0
C1195 C 0.87286 0.20266 0.67995 0.0
C1196 C 0.90099 0.2005 0.67109 0.0
C1197 C 0.89471 0.16506 0.67728 0.0
C1198 C 0.8977 0.14935 0.64119 0.0
C1199 C 0.91863 0.16495 0.70654 0.0
C1200 C 0.85863 0.14767 0.69095 0.0
C1201 C 0.84649 0.16984 0.69152 0.0
C1202 C 0.81376 0.1599 0.70219 0.0
C1203 C 0.79298 0.12658 0.7133 0.0
C1204 C 0.80507 0.10357 0.71442 0.0
C1205 C 0.83833 0.11425 0.70283 0.0
loop_
_geom_bond_atom_site_label_1
_geom_bond_atom_site_label_2
_geom_bond_distance
_geom_bond_site_symmetry_2
_ccdc_geom_bond_type
Co0 N4 2.148 1_554 S
Co0 N10 2.128 . S
Co0 N20 2.194 . S
Co0 O25 2.351 . S
Co0 O26 2.155 . S
Co0 O27 2.096 . S
C1 N4 1.301 . S
C1 N5 1.328 . S
C1 H6 0.930 . S
C2 C3 1.333 . S
C2 N4 1.317 . S
C2 H7 0.930 . S
C3 C2 1.333 . S
C3 N5 1.350 . S
C3 H29 0.931 . S
N4 Co0 2.148 1_556 S
N4 C1 1.301 . S
N4 C2 1.317 . S
N5 C1 1.328 . S
N5 C3 1.350 . S
H6 C1 0.930 . S
H7 C2 0.930 . S
C8 O9 1.224 . S
C8 O27 1.247 . S
O9 C8 1.224 . S
N10 Co0 2.128 . S
N10 C11 1.355 . S
N10 C13 1.311 . S
C11 N10 1.355 . S
C11 C12 1.363 . S
C11 H23 0.929 . S
C12 C11 1.363 . S
C12 N14 1.375 . S
C12 H30 0.931 . S
C13 N10 1.311 . S
C13 N14 1.347 . S
C13 H24 0.929 . S
N14 C12 1.375 . S
N14 C13 1.347 . S
C15 C18 1.365 . S
C15 N20 1.328 . S
C15 H21 0.929 . S
C16 C17 1.362 . S
C16 C19 1.378 . S
C16 H31 0.929 . S
C17 C16 1.362 . S
C17 C18 1.366 . S
C18 C15 1.365 . S
C18 C17 1.366 . S
C18 H32 0.930 . S
C19 C16 1.378 . S
C19 N20 1.315 . S
C19 H22 0.930 . S
N20 Co0 2.194 . S
N20 C15 1.328 . S
N20 C19 1.315 . S
H21 C15 0.929 . S
H22 C19 0.930 . S
H23 C11 0.929 . S
H24 C13 0.929 . S
O25 Co0 2.351 . S
O25 C28 1.244 . S
O26 Co0 2.155 . S
O26 C28 1.240 . S
O27 Co0 2.096 . S
O27 C8 1.247 . S
C28 O25 1.244 . S
C28 O26 1.240 . S
H29 C3 0.931 . S
H30 C12 0.931 . S
H31 C16 0.929 . S
H32 C18 0.930 . S
Co33 N37 2.148 . S
Co33 N43 2.128 . S
Co33 N53 2.194 . S
Co33 O58 2.351 . S
Co33 O59 2.155 . S
Co33 O60 2.096 . S
C34 N37 1.301 . S
C34 N38 1.328 . S
C34 H39 0.930 . S
C35 C36 1.333 . S
C35 N37 1.317 . S
C35 H40 0.930 . S
C36 C35 1.333 . S
C36 N38 1.350 . S
C36 H62 0.931 . S
N37 Co33 2.148 . S
N37 C34 1.301 . S
N37 C35 1.317 . S
N38 C34 1.328 . S
N38 C36 1.350 . S
H39 C34 0.930 . S
H40 C35 0.930 . S
C41 O42 1.224 . S
C41 O60 1.247 . S
O42 C41 1.224 . S
N43 Co33 2.128 . S
N43 C44 1.355 . S
N43 C46 1.311 . S
C44 N43 1.355 . S
C44 C45 1.363 . S
C44 H56 0.929 . S
C45 C44 1.363 . S
C45 N47 1.375 . S
C45 H63 0.931 . S
C46 N43 1.311 . S
C46 N47 1.347 . S
C46 H57 0.929 . S
N47 C45 1.375 . S
N47 C46 1.347 . S
C48 C51 1.365 . S
C48 N53 1.328 . S
C48 H54 0.929 . S
C49 C50 1.362 . S
C49 C52 1.378 . S
C49 H64 0.929 . S
C50 C49 1.362 . S
C50 C51 1.366 . S
C51 C48 1.365 . S
C51 C50 1.366 . S
C51 H65 0.930 . S
C52 C49 1.378 . S
C52 N53 1.315 . S
C52 H55 0.930 . S
N53 Co33 2.194 . S
N53 C48 1.328 . S
N53 C52 1.315 . S
H54 C48 0.929 . S
H55 C52 0.930 . S
H56 C44 0.929 . S
H57 C46 0.929 . S
O58 Co33 2.351 . S
O58 C61 1.244 . S
O59 Co33 2.155 . S
O59 C61 1.240 . S
O60 Co33 2.096 . S
O60 C41 1.247 . S
C61 O58 1.244 . S
C61 O59 1.240 . S
H62 C36 0.931 . S
H63 C45 0.931 . S
H64 C49 0.929 . S
H65 C51 0.930 . S
Co66 N70 2.148 . S
Co66 N76 2.128 . S
Co66 N86 2.194 . S
Co66 O91 2.351 . S
Co66 O92 2.155 . S
Co66 O93 2.096 . S
C67 N70 1.301 . S
C67 N71 1.328 . S
C67 H72 0.930 . S
C68 C69 1.333 . S
C68 N70 1.317 . S
C68 H73 0.930 . S
C69 C68 1.333 . S
C69 N71 1.350 . S
C69 H95 0.931 . S
N70 Co66 2.148 . S
N70 C67 1.301 . S
N70 C68 1.317 . S
N71 C67 1.328 . S
N71 C69 1.350 . S
H72 C67 0.930 . S
H73 C68 0.930 . S
C74 O75 1.224 . S
C74 O93 1.247 . S
O75 C74 1.224 . S
N76 Co66 2.128 . S
N76 C77 1.355 . S
N76 C79 1.311 . S
C77 N76 1.355 . S
C77 C78 1.363 . S
C77 H89 0.929 . S
C78 C77 1.363 . S
C78 N80 1.375 . S
C78 H96 0.931 . S
C79 N76 1.311 . S
C79 N80 1.347 . S
C79 H90 0.929 . S
N80 C78 1.375 . S
N80 C79 1.347 . S
C81 C84 1.365 . S
C81 N86 1.328 . S
C81 H87 0.929 . S
C82 C83 1.362 . S
C82 C85 1.378 . S
C82 H97 0.929 . S
C83 C82 1.362 . S
C83 C84 1.366 . S
C84 C81 1.365 . S
C84 C83 1.366 . S
C84 H98 0.930 . S
C85 C82 1.378 . S
C85 N86 1.315 . S
C85 H88 0.930 . S
N86 Co66 2.194 . S
N86 C81 1.328 . S
N86 C85 1.315 . S
H87 C81 0.929 . S
H88 C85 0.930 . S
H89 C77 0.929 . S
H90 C79 0.929 . S
O91 Co66 2.351 . S
O91 C94 1.244 . S
O92 Co66 2.155 . S
O92 C94 1.240 . S
O93 Co66 2.096 . S
O93 C74 1.247 . S
C94 O91 1.244 . S
C94 O92 1.240 . S
H95 C69 0.931 . S
H96 C78 0.931 . S
H97 C82 0.929 . S
H98 C84 0.930 . S
Co99 N103 2.148 . S
Co99 N109 2.128 . S
Co99 N119 2.194 . S
Co99 O124 2.351 . S
Co99 O125 2.155 . S
Co99 O126 2.096 . S
C100 N103 1.301 . S
C100 N104 1.328 . S
C100 H105 0.930 . S
C101 C102 1.333 . S
C101 N103 1.317 . S
C101 H106 0.930 . S
C102 C101 1.333 . S
C102 N104 1.350 . S
C102 H128 0.931 . S
N103 Co99 2.148 . S
N103 C100 1.301 . S
N103 C101 1.317 . S
N104 C100 1.328 . S
N104 C102 1.350 . S
H105 C100 0.930 . S
H106 C101 0.930 . S
C107 O108 1.224 . S
C107 O126 1.247 . S
O108 C107 1.224 . S
N109 Co99 2.128 . S
N109 C110 1.355 . S
N109 C112 1.311 . S
C110 N109 1.355 . S
C110 C111 1.363 . S
C110 H122 0.929 . S
C111 C110 1.363 . S
C111 N113 1.375 . S
C111 H129 0.931 . S
C112 N109 1.311 . S
C112 N113 1.347 . S
C112 H123 0.929 . S
N113 C111 1.375 . S
N113 C112 1.347 . S
C114 C117 1.365 . S
C114 N119 1.328 . S
C114 H120 0.929 . S
C115 C116 1.362 . S
C115 C118 1.378 . S
C115 H130 0.929 . S
C116 C115 1.362 . S
C116 C117 1.366 . S
C117 C114 1.365 . S
C117 C116 1.366 . S
C117 H131 0.930 . S
C118 C115 1.378 . S
C118 N119 1.315 . S
C118 H121 0.930 . S
N119 Co99 2.194 . S
N119 C114 1.328 . S
N119 C118 1.315 . S
H120 C114 0.929 . S
H121 C118 0.930 . S
H122 C110 0.929 . S
H123 C112 0.929 . S
O124 Co99 2.351 . S
O124 C127 1.244 . S
O125 Co99 2.155 . S
O125 C127 1.240 . S
O126 Co99 2.096 . S
O126 C107 1.247 . S
C127 O124 1.244 . S
C127 O125 1.240 . S
H128 C102 0.931 . S
H129 C111 0.931 . S
H130 C115 0.929 . S
H131 C117 0.930 . S
Co132 N136 2.148 . S
Co132 N142 2.128 . S
Co132 N152 2.194 . S
Co132 O157 2.351 . S
Co132 O158 2.155 . S
Co132 O159 2.096 . S
C133 N136 1.301 . S
C133 N137 1.328 . S
C133 H138 0.930 . S
C134 C135 1.333 . S
C134 N136 1.317 . S
C134 H139 0.930 . S
C135 C134 1.333 . S
C135 N137 1.350 . S
C135 H161 0.931 . S
N136 Co132 2.148 . S
N136 C133 1.301 . S
N136 C134 1.317 . S
N137 C133 1.328 . S
N137 C135 1.350 . S
H138 C133 0.930 . S
H139 C134 0.930 . S
C140 O141 1.224 . S
C140 O159 1.247 . S
O141 C140 1.224 . S
N142 Co132 2.128 . S
N142 C143 1.355 . S
N142 C145 1.311 . S
C143 N142 1.355 . S
C143 C144 1.363 . S
C143 H155 0.929 . S
C144 C143 1.363 . S
C144 N146 1.375 . S
C144 H162 0.931 . S
C145 N142 1.311 . S
C145 N146 1.347 . S
C145 H156 0.929 . S
N146 C144 1.375 . S
N146 C145 1.347 . S
C147 C150 1.365 . S
C147 N152 1.328 . S
C147 H153 0.929 . S
C148 C149 1.362 . S
C148 C151 1.378 . S
C148 H163 0.929 . S
C149 C148 1.362 . S
C149 C150 1.366 . S
C150 C147 1.365 . S
C150 C149 1.366 . S
C150 H164 0.930 . S
C151 C148 1.378 . S
C151 N152 1.315 . S
C151 H154 0.930 . S
N152 Co132 2.194 . S
N152 C147 1.328 . S
N152 C151 1.315 . S
H153 C147 0.929 . S
H154 C151 0.930 . S
H155 C143 0.929 . S
H156 C145 0.929 . S
O157 Co132 2.351 . S
O157 C160 1.244 . S
O158 Co132 2.155 . S
O158 C160 1.240 . S
O159 Co132 2.096 . S
O159 C140 1.247 . S
C160 O157 1.244 . S
C160 O158 1.240 . S
H161 C135 0.931 . S
H162 C144 0.931 . S
H163 C148 0.929 . S
H164 C150 0.930 . S
Co165 N169 2.148 . S
Co165 N175 2.128 . S
Co165 N185 2.194 . S
Co165 O190 2.351 . S
Co165 O191 2.155 . S
Co165 O192 2.096 . S
C166 N169 1.301 . S
C166 N170 1.328 . S
C166 H171 0.930 . S
C167 C168 1.333 . S
C167 N169 1.317 . S
C167 H172 0.930 . S
C168 C167 1.333 . S
C168 N170 1.350 . S
C168 H194 0.931 . S
N169 Co165 2.148 . S
N169 C166 1.301 . S
N169 C167 1.317 . S
N170 C166 1.328 . S
N170 C168 1.350 . S
H171 C166 0.930 . S
H172 C167 0.930 . S
C173 O174 1.224 . S
C173 O192 1.247 . S
O174 C173 1.224 . S
N175 Co165 2.128 . S
N175 C176 1.355 . S
N175 C178 1.311 . S
C176 N175 1.355 . S
C176 C177 1.363 . S
C176 H188 0.929 . S
C177 C176 1.363 . S
C177 N179 1.375 . S
C177 H195 0.931 1_556 S
C178 N175 1.311 . S
C178 N179 1.347 . S
C178 H189 0.929 . S
N179 C177 1.375 . S
N179 C178 1.347 . S
C180 C183 1.365 . S
C180 N185 1.328 . S
C180 H186 0.929 . S
C181 C182 1.362 . S
C181 C184 1.378 . S
C181 H196 0.929 . S
C182 C181 1.362 . S
C182 C183 1.366 . S
C183 C180 1.365 . S
C183 C182 1.366 . S
C183 H197 0.930 . S
C184 C181 1.378 . S
C184 N185 1.315 . S
C184 H187 0.930 . S
N185 Co165 2.194 . S
N185 C180 1.328 . S
N185 C184 1.315 . S
H186 C180 0.929 . S
H187 C184 0.930 . S
H188 C176 0.929 . S
H189 C178 0.929 . S
O190 Co165 2.351 . S
O190 C193 1.244 . S
O191 Co165 2.155 . S
O191 C193 1.240 . S
O192 Co165 2.096 . S
O192 C173 1.247 . S
C193 O190 1.244 . S
C193 O191 1.240 . S
H194 C168 0.931 . S
H195 C177 0.931 1_554 S
H196 C181 0.929 . S
H197 C183 0.930 . S
Co198 N202 2.148 . S
Co198 N208 2.128 . S
Co198 N218 2.194 . S
Co198 O223 2.351 . S
Co198 O224 2.155 . S
Co198 O225 2.096 . S
C199 N202 1.301 . S
C199 N203 1.328 . S
C199 H204 0.930 . S
C200 C201 1.333 . S
C200 N202 1.317 . S
C200 H205 0.930 . S
C201 C200 1.333 . S
C201 N203 1.350 . S
C201 H227 0.931 . S
N202 Co198 2.148 . S
N202 C199 1.301 . S
N202 C200 1.317 . S
N203 C199 1.328 . S
N203 C201 1.350 . S
H204 C199 0.930 . S
H205 C200 0.930 . S
C206 O207 1.224 . S
C206 O225 1.247 . S
O207 C206 1.224 . S
N208 Co198 2.128 . S
N208 C209 1.355 . S
N208 C211 1.311 . S
C209 N208 1.355 . S
C209 C210 1.363 . S
C209 H221 0.929 . S
C210 C209 1.363 . S
C210 N212 1.375 . S
C210 H228 0.931 . S
C211 N208 1.311 . S
C211 N212 1.347 . S
C211 H222 0.929 . S
N212 C210 1.375 . S
N212 C211 1.347 . S
C213 C216 1.365 . S
C213 N218 1.328 . S
C213 H219 0.929 . S
C214 C215 1.362 . S
C214 C217 1.378 . S
C214 H229 0.929 . S
C215 C214 1.362 . S
C215 C216 1.366 . S
C216 C213 1.365 . S
C216 C215 1.366 . S
C216 H230 0.930 . S
C217 C214 1.378 . S
C217 N218 1.315 . S
C217 H220 0.930 . S
N218 Co198 2.194 . S
N218 C213 1.328 . S
N218 C217 1.315 . S
H219 C213 0.929 . S
H220 C217 0.930 . S
H221 C209 0.929 . S
H222 C211 0.929 . S
O223 Co198 2.351 . S
O223 C226 1.244 . S
O224 Co198 2.155 . S
O224 C226 1.240 . S
O225 Co198 2.096 . S
O225 C206 1.247 . S
C226 O223 1.244 . S
C226 O224 1.240 . S
H227 C201 0.931 . S
H228 C210 0.931 . S
H229 C214 0.929 . S
H230 C216 0.930 . S
Co231 N235 2.148 . S
Co231 N241 2.128 . S
Co231 N251 2.194 . S
Co231 O256 2.351 . S
Co231 O257 2.155 . S
Co231 O258 2.096 . S
C232 N235 1.301 1_554 S
C232 N236 1.328 . S
C232 H237 0.930 1_554 S
C233 C234 1.333 . S
C233 N235 1.317 1_554 S
C233 H238 0.930 . S
C234 C233 1.333 . S
C234 N236 1.350 . S
C234 H260 0.931 . S
N235 Co231 2.148 . S
N235 C232 1.301 1_556 S
N235 C233 1.317 1_556 S
N236 C232 1.328 . S
N236 C234 1.350 . S
H237 C232 0.930 1_556 S
H238 C233 0.930 . S
C239 O240 1.224 . S
C239 O258 1.247 . S
O240 C239 1.224 . S
N241 Co231 2.128 . S
N241 C242 1.355 . S
N241 C244 1.311 . S
C242 N241 1.355 . S
C242 C243 1.363 . S
C242 H254 0.929 . S
C243 C242 1.363 . S
C243 N245 1.375 . S
C243 H261 0.931 . S
C244 N241 1.311 . S
C244 N245 1.347 . S
C244 H255 0.929 . S
N245 C243 1.375 . S
N245 C244 1.347 . S
C246 C249 1.365 . S
C246 N251 1.328 . S
C246 H252 0.929 . S
C247 C248 1.362 . S
C247 C250 1.378 . S
C247 H262 0.929 . S
C248 C247 1.362 . S
C248 C249 1.366 . S
C249 C246 1.365 . S
C249 C248 1.366 . S
C249 H263 0.930 . S
C250 C247 1.378 . S
C250 N251 1.315 . S
C250 H253 0.930 . S
N251 Co231 2.194 . S
N251 C246 1.328 . S
N251 C250 1.315 . S
H252 C246 0.929 . S
H253 C250 0.930 . S
H254 C242 0.929 . S
H255 C244 0.929 . S
O256 Co231 2.351 . S
O256 C259 1.244 . S
O257 Co231 2.155 . S
O257 C259 1.240 . S
O258 Co231 2.096 . S
O258 C239 1.247 . S
C259 O256 1.244 . S
C259 O257 1.240 . S
H260 C234 0.931 . S
H261 C243 0.931 . S
H262 C247 0.929 . S
H263 C249 0.930 . S
Co264 N268 2.148 . S
Co264 N274 2.128 . S
Co264 N284 2.194 . S
Co264 O289 2.351 . S
Co264 O290 2.155 . S
Co264 O291 2.096 . S
C265 N268 1.301 . S
C265 N269 1.328 . S
C265 H270 0.930 . S
C266 C267 1.333 . S
C266 N268 1.317 . S
C266 H271 0.930 . S
C267 C266 1.333 . S
C267 N269 1.350 . S
C267 H293 0.931 . S
N268 Co264 2.148 . S
N268 C265 1.301 . S
N268 C266 1.317 . S
N269 C265 1.328 . S
N269 C267 1.350 . S
H270 C265 0.930 . S
H271 C266 0.930 . S
C272 O273 1.224 . S
C272 O291 1.247 . S
O273 C272 1.224 . S
N274 Co264 2.128 . S
N274 C275 1.355 . S
N274 C277 1.311 . S
C275 N274 1.355 . S
C275 C276 1.363 . S
C275 H287 0.929 . S
C276 C275 1.363 . S
C276 N278 1.375 . S
C276 H294 0.931 1_554 S
C277 N274 1.311 . S
C277 N278 1.347 . S
C277 H288 0.929 . S
N278 C276 1.375 . S
N278 C277 1.347 . S
C279 C282 1.365 . S
C279 N284 1.328 . S
C279 H285 0.929 . S
C280 C281 1.362 . S
C280 C283 1.378 . S
C280 H295 0.929 . S
C281 C280 1.362 . S
C281 C282 1.366 . S
C282 C279 1.365 . S
C282 C281 1.366 . S
C282 H296 0.930 . S
C283 C280 1.378 . S
C283 N284 1.315 . S
C283 H286 0.930 . S
N284 Co264 2.194 . S
N284 C279 1.328 . S
N284 C283 1.315 . S
H285 C279 0.929 . S
H286 C283 0.930 . S
H287 C275 0.929 . S
H288 C277 0.929 . S
O289 Co264 2.351 . S
O289 C292 1.244 . S
O290 Co264 2.155 . S
O290 C292 1.240 . S
O291 Co264 2.096 . S
O291 C272 1.247 . S
C292 O289 1.244 . S
C292 O290 1.240 . S
H293 C267 0.931 . S
H294 C276 0.931 1_556 S
H295 C280 0.929 . S
H296 C282 0.930 . S
Co297 N301 2.148 . S
Co297 N307 2.128 . S
Co297 N317 2.194 . S
Co297 O322 2.351 . S
Co297 O323 2.155 . S
Co297 O324 2.096 . S
C298 N301 1.301 . S
C298 N302 1.328 . S
C298 H303 0.930 . S
C299 C300 1.333 . S
C299 N301 1.317 . S
C299 H304 0.930 . S
C300 C299 1.333 . S
C300 N302 1.350 . S
C300 H326 0.931 . S
N301 Co297 2.148 . S
N301 C298 1.301 . S
N301 C299 1.317 . S
N302 C298 1.328 . S
N302 C300 1.350 . S
H303 C298 0.930 . S
H304 C299 0.930 . S
C305 O306 1.224 . S
C305 O324 1.247 . S
O306 C305 1.224 . S
N307 Co297 2.128 . S
N307 C308 1.355 . S
N307 C310 1.311 . S
C308 N307 1.355 . S
C308 C309 1.363 . S
C308 H320 0.929 . S
C309 C308 1.363 . S
C309 N311 1.375 . S
C309 H327 0.931 . S
C310 N307 1.311 . S
C310 N311 1.347 . S
C310 H321 0.929 . S
N311 C309 1.375 . S
N311 C310 1.347 . S
C312 C315 1.365 . S
C312 N317 1.328 . S
C312 H318 0.929 . S
C313 C314 1.362 . S
C313 C316 1.378 . S
C313 H328 0.929 . S
C314 C313 1.362 . S
C314 C315 1.366 . S
C315 C312 1.365 . S
C315 C314 1.366 . S
C315 H329 0.930 . S
C316 C313 1.378 . S
C316 N317 1.315 . S
C316 H319 0.930 . S
N317 Co297 2.194 . S
N317 C312 1.328 . S
N317 C316 1.315 . S
H318 C312 0.929 . S
H319 C316 0.930 . S
H320 C308 0.929 . S
H321 C310 0.929 . S
O322 Co297 2.351 . S
O322 C325 1.244 . S
O323 Co297 2.155 . S
O323 C325 1.240 . S
O324 Co297 2.096 . S
O324 C305 1.247 . S
C325 O322 1.244 . S
C325 O323 1.240 . S
H326 C300 0.931 . S
H327 C309 0.931 . S
H328 C313 0.929 . S
H329 C315 0.930 . S
Co330 N334 2.148 . S
Co330 N340 2.128 . S
Co330 N350 2.194 . S
Co330 O355 2.351 . S
Co330 O356 2.155 . S
Co330 O357 2.096 . S
C331 N334 1.301 . S
C331 N335 1.328 . S
C331 H336 0.930 . S
C332 C333 1.333 . S
C332 N334 1.317 . S
C332 H337 0.930 . S
C333 C332 1.333 . S
C333 N335 1.350 . S
C333 H359 0.931 . S
N334 Co330 2.148 . S
N334 C331 1.301 . S
N334 C332 1.317 . S
N335 C331 1.328 . S
N335 C333 1.350 . S
H336 C331 0.930 . S
H337 C332 0.930 . S
C338 O339 1.224 . S
C338 O357 1.247 . S
O339 C338 1.224 . S
N340 Co330 2.128 . S
N340 C341 1.355 . S
N340 C343 1.311 . S
C341 N340 1.355 . S
C341 C342 1.363 . S
C341 H353 0.929 . S
C342 C341 1.363 . S
C342 N344 1.375 . S
C342 H360 0.931 . S
C343 N340 1.311 . S
C343 N344 1.347 . S
C343 H354 0.929 . S
N344 C342 1.375 . S
N344 C343 1.347 . S
C345 C348 1.365 . S
C345 N350 1.328 . S
C345 H351 0.929 . S
C346 C347 1.362 . S
C346 C349 1.378 . S
C346 H361 0.929 . S
C347 C346 1.362 . S
C347 C348 1.366 . S
C348 C345 1.365 . S
C348 C347 1.366 . S
C348 H362 0.930 . S
C349 C346 1.378 . S
C349 N350 1.315 . S
C349 H352 0.930 . S
N350 Co330 2.194 . S
N350 C345 1.328 . S
N350 C349 1.315 . S
H351 C345 0.929 . S
H352 C349 0.930 . S
H353 C341 0.929 . S
H354 C343 0.929 . S
O355 Co330 2.351 . S
O355 C358 1.244 . S
O356 Co330 2.155 . S
O356 C358 1.240 . S
O357 Co330 2.096 . S
O357 C338 1.247 . S
C358 O355 1.244 . S
C358 O356 1.240 . S
H359 C333 0.931 . S
H360 C342 0.931 . S
H361 C346 0.929 . S
H362 C348 0.930 . S
Co363 N367 2.148 . S
Co363 N373 2.128 . S
Co363 N383 2.194 . S
Co363 O388 2.351 . S
Co363 O389 2.155 . S
Co363 O390 2.096 . S
C364 N367 1.301 . S
C364 N368 1.328 . S
C364 H369 0.930 . S
C365 C366 1.333 . S
C365 N367 1.317 . S
C365 H370 0.930 . S
C366 C365 1.333 . S
C366 N368 1.350 . S
C366 H392 0.931 . S
N367 Co363 2.148 . S
N367 C364 1.301 . S
N367 C365 1.317 . S
N368 C364 1.328 . S
N368 C366 1.350 . S
H369 C364 0.930 . S
H370 C365 0.930 . S
C371 O372 1.224 . S
C371 O390 1.247 . S
O372 C371 1.224 . S
N373 Co363 2.128 . S
N373 C374 1.355 . S
N373 C376 1.311 . S
C374 N373 1.355 . S
C374 C375 1.363 . S
C374 H386 0.929 . S
C375 C374 1.363 . S
C375 N377 1.375 . S
C375 H393 0.931 . S
C376 N373 1.311 . S
C376 N377 1.347 . S
C376 H387 0.929 . S
N377 C375 1.375 . S
N377 C376 1.347 . S
C378 C381 1.365 . S
C378 N383 1.328 . S
C378 H384 0.929 . S
C379 C380 1.362 . S
C379 C382 1.378 . S
C379 H394 0.929 . S
C380 C379 1.362 . S
C380 C381 1.366 . S
C381 C378 1.365 . S
C381 C380 1.366 . S
C381 H395 0.930 . S
C382 C379 1.378 . S
C382 N383 1.315 . S
C382 H385 0.930 . S
N383 Co363 2.194 . S
N383 C378 1.328 . S
N383 C382 1.315 . S
H384 C378 0.929 . S
H385 C382 0.930 . S
H386 C374 0.929 . S
H387 C376 0.929 . S
O388 Co363 2.351 . S
O388 C391 1.244 . S
O389 Co363 2.155 . S
O389 C391 1.240 . S
O390 Co363 2.096 . S
O390 C371 1.247 . S
C391 O388 1.244 . S
C391 O389 1.240 . S
H392 C366 0.931 . S
H393 C375 0.931 . S
H394 C379 0.929 . S
H395 C381 0.930 . S
H396 C408 0.930 . S
H397 C410 0.930 . S
H398 C411 0.930 . S
H399 C415 0.959 . S
H400 C415 0.959 . S
H401 C415 0.961 . S
H402 C416 0.960 . S
H403 C416 0.961 . S
H404 C416 0.959 . S
H405 C419 0.929 . S
H406 C420 0.931 . S
H407 C422 0.930 . S
C408 H396 0.930 . S
C408 C409 1.399 . S
C408 C413 1.399 . S
C409 C408 1.399 . S
C409 C410 1.376 . S
C410 H397 0.930 . S
C410 C409 1.376 . S
C410 C411 1.388 . S
C411 H398 0.930 . S
C411 C410 1.388 . S
C411 C412 1.390 . S
C412 C411 1.390 . S
C412 C413 1.394 . S
C412 C418 1.465 . S
C413 C408 1.399 . S
C413 C412 1.394 . S
C413 C414 1.516 . S
C414 C413 1.516 . S
C414 C415 1.502 . S
C414 C416 1.561 . S
C414 C417 1.526 . S
C415 H399 0.959 . S
C415 H400 0.959 . S
C415 H401 0.961 . S
C415 C414 1.502 . S
C416 H402 0.960 . S
C416 H403 0.961 . S
C416 H404 0.959 . S
C416 C414 1.561 . S
C417 C414 1.526 . S
C417 C418 1.396 . S
C417 C422 1.390 . S
C418 C412 1.465 . S
C418 C417 1.396 . S
C418 C419 1.399 . S
C419 H405 0.929 . S
C419 C418 1.399 . S
C419 C420 1.385 . S
C420 H406 0.931 . S
C420 C419 1.385 . S
C420 C421 1.389 . S
C421 C420 1.389 . S
C421 C422 1.387 . S
C422 H407 0.930 . S
C422 C417 1.390 . S
C422 C421 1.387 . S
H423 C435 0.930 . S
H424 C437 0.930 . S
H425 C438 0.930 . S
H426 C442 0.959 . S
H427 C442 0.959 . S
H428 C442 0.961 . S
H429 C443 0.960 . S
H430 C443 0.961 . S
H431 C443 0.959 . S
H432 C446 0.929 . S
H433 C447 0.931 . S
H434 C449 0.930 . S
C435 H423 0.930 . S
C435 C436 1.399 . S
C435 C440 1.399 . S
C436 C435 1.399 . S
C436 C437 1.376 . S
C437 H424 0.930 . S
C437 C436 1.376 . S
C437 C438 1.388 . S
C438 H425 0.930 . S
C438 C437 1.388 . S
C438 C439 1.390 . S
C439 C438 1.390 . S
C439 C440 1.394 . S
C439 C445 1.465 . S
C440 C435 1.399 . S
C440 C439 1.394 . S
C440 C441 1.516 . S
C441 C440 1.516 . S
C441 C442 1.502 . S
C441 C443 1.561 . S
C441 C444 1.526 . S
C442 H426 0.959 . S
C442 H427 0.959 . S
C442 H428 0.961 . S
C442 C441 1.502 . S
C443 H429 0.960 . S
C443 H430 0.961 . S
C443 H431 0.959 . S
C443 C441 1.561 . S
C444 C441 1.526 . S
C444 C445 1.396 . S
C444 C449 1.390 . S
C445 C439 1.465 . S
C445 C444 1.396 . S
C445 C446 1.399 . S
C446 H432 0.929 . S
C446 C445 1.399 . S
C446 C447 1.385 . S
C447 H433 0.931 . S
C447 C446 1.385 . S
C447 C448 1.389 . S
C448 C447 1.389 . S
C448 C449 1.387 . S
C449 H434 0.930 . S
C449 C444 1.390 . S
C449 C448 1.387 . S
H450 C462 0.930 . S
H451 C464 0.930 . S
H452 C465 0.930 . S
H453 C469 0.959 . S
H454 C469 0.959 . S
H455 C469 0.961 . S
H456 C470 0.960 . S
H457 C470 0.961 . S
H458 C470 0.959 . S
H459 C473 0.929 . S
H460 C474 0.931 . S
H461 C476 0.930 . S
C462 H450 0.930 . S
C462 C463 1.399 . S
C462 C467 1.399 . S
C463 C462 1.399 . S
C463 C464 1.376 . S
C464 H451 0.930 . S
C464 C463 1.376 . S
C464 C465 1.388 . S
C465 H452 0.930 . S
C465 C464 1.388 . S
C465 C466 1.390 . S
C466 C465 1.390 . S
C466 C467 1.394 . S
C466 C472 1.465 . S
C467 C462 1.399 . S
C467 C466 1.394 . S
C467 C468 1.516 . S
C468 C467 1.516 . S
C468 C469 1.502 . S
C468 C470 1.561 . S
C468 C471 1.526 . S
C469 H453 0.959 . S
C469 H454 0.959 . S
C469 H455 0.961 . S
C469 C468 1.502 . S
C470 H456 0.960 . S
C470 H457 0.961 . S
C470 H458 0.959 . S
C470 C468 1.561 . S
C471 C468 1.526 . S
C471 C472 1.396 . S
C471 C476 1.390 . S
C472 C466 1.465 . S
C472 C471 1.396 . S
C472 C473 1.399 . S
C473 H459 0.929 . S
C473 C472 1.399 . S
C473 C474 1.385 . S
C474 H460 0.931 . S
C474 C473 1.385 . S
C474 C475 1.389 . S
C475 C474 1.389 . S
C475 C476 1.387 . S
C476 H461 0.930 . S
C476 C471 1.390 . S
C476 C475 1.387 . S
H477 C489 0.930 . S
H478 C491 0.930 . S
H479 C492 0.930 . S
H480 C496 0.959 . S
H481 C496 0.959 . S
H482 C496 0.961 . S
H483 C497 0.960 . S
H484 C497 0.961 . S
H485 C497 0.959 . S
H486 C500 0.929 . S
H487 C501 0.931 . S
H488 C503 0.930 . S
C489 H477 0.930 . S
C489 C490 1.399 . S
C489 C494 1.399 . S
C490 C489 1.399 . S
C490 C491 1.376 . S
C491 H478 0.930 . S
C491 C490 1.376 . S
C491 C492 1.388 . S
C492 H479 0.930 . S
C492 C491 1.388 . S
C492 C493 1.390 . S
C493 C492 1.390 . S
C493 C494 1.394 . S
C493 C499 1.465 . S
C494 C489 1.399 . S
C494 C493 1.394 . S
C494 C495 1.516 . S
C495 C494 1.516 . S
C495 C496 1.502 . S
C495 C497 1.561 . S
C495 C498 1.526 . S
C496 H480 0.959 . S
C496 H481 0.959 . S
C496 H482 0.961 . S
C496 C495 1.502 . S
C497 H483 0.960 . S
C497 H484 0.961 . S
C497 H485 0.959 . S
C497 C495 1.561 . S
C498 C495 1.526 . S
C498 C499 1.396 . S
C498 C503 1.390 . S
C499 C493 1.465 . S
C499 C498 1.396 . S
C499 C500 1.399 . S
C500 H486 0.929 . S
C500 C499 1.399 . S
C500 C501 1.385 . S
C501 H487 0.931 . S
C501 C500 1.385 . S
C501 C502 1.389 . S
C502 C501 1.389 . S
C502 C503 1.387 . S
C503 H488 0.930 . S
C503 C498 1.390 . S
C503 C502 1.387 . S
H504 C516 0.930 . S
H505 C518 0.930 . S
H506 C519 0.930 . S
H507 C523 0.959 . S
H508 C523 0.959 . S
H509 C523 0.961 . S
H510 C524 0.960 . S
H511 C524 0.961 . S
H512 C524 0.959 . S
H513 C527 0.929 . S
H514 C528 0.931 . S
H515 C530 0.930 . S
C516 H504 0.930 . S
C516 C517 1.399 . S
C516 C521 1.399 . S
C517 C516 1.399 . S
C517 C518 1.376 . S
C518 H505 0.930 . S
C518 C517 1.376 . S
C518 C519 1.388 . S
C519 H506 0.930 . S
C519 C518 1.388 . S
C519 C520 1.390 . S
C520 C519 1.390 . S
C520 C521 1.394 . S
C520 C526 1.465 . S
C521 C516 1.399 . S
C521 C520 1.394 . S
C521 C522 1.516 . S
C522 C521 1.516 . S
C522 C523 1.502 . S
C522 C524 1.561 . S
C522 C525 1.526 . S
C523 H507 0.959 . S
C523 H508 0.959 . S
C523 H509 0.961 . S
C523 C522 1.502 . S
C524 H510 0.960 . S
C524 H511 0.961 . S
C524 H512 0.959 . S
C524 C522 1.561 . S
C525 C522 1.526 . S
C525 C526 1.396 . S
C525 C530 1.390 . S
C526 C520 1.465 . S
C526 C525 1.396 . S
C526 C527 1.399 . S
C527 H513 0.929 . S
C527 C526 1.399 . S
C527 C528 1.385 1_556 S
C528 H514 0.931 . S
C528 C527 1.385 1_554 S
C528 C529 1.389 1_554 S
C529 C528 1.389 1_556 S
C529 C530 1.387 . S
C530 H515 0.930 . S
C530 C525 1.390 . S
C530 C529 1.387 . S
H531 C543 0.930 . S
H532 C545 0.930 . S
H533 C546 0.930 . S
H534 C550 0.959 . S
H535 C550 0.959 . S
H536 C550 0.961 . S
H537 C551 0.960 . S
H538 C551 0.961 . S
H539 C551 0.959 . S
H540 C554 0.929 . S
H541 C555 0.931 . S
H542 C557 0.930 . S
C543 H531 0.930 . S
C543 C544 1.399 . S
C543 C548 1.399 . S
C544 C543 1.399 . S
C544 C545 1.376 . S
C545 H532 0.930 . S
C545 C544 1.376 . S
C545 C546 1.388 . S
C546 H533 0.930 . S
C546 C545 1.388 . S
C546 C547 1.390 . S
C547 C546 1.390 . S
C547 C548 1.394 . S
C547 C553 1.465 . S
C548 C543 1.399 . S
C548 C547 1.394 . S
C548 C549 1.516 . S
C549 C548 1.516 . S
C549 C550 1.502 . S
C549 C551 1.561 . S
C549 C552 1.526 . S
C550 H534 0.959 . S
C550 H535 0.959 . S
C550 H536 0.961 . S
C550 C549 1.502 . S
C551 H537 0.960 . S
C551 H538 0.961 . S
C551 H539 0.959 . S
C551 C549 1.561 . S
C552 C549 1.526 . S
C552 C553 1.396 . S
C552 C557 1.390 . S
C553 C547 1.465 . S
C553 C552 1.396 . S
C553 C554 1.399 . S
C554 H540 0.929 . S
C554 C553 1.399 . S
C554 C555 1.385 . S
C555 H541 0.931 . S
C555 C554 1.385 . S
C555 C556 1.389 . S
C556 C555 1.389 . S
C556 C557 1.387 . S
C557 H542 0.930 . S
C557 C552 1.390 . S
C557 C556 1.387 . S
H558 C570 0.930 . S
H559 C572 0.930 . S
H560 C573 0.930 . S
H561 C577 0.959 . S
H562 C577 0.959 . S
H563 C577 0.961 . S
H564 C578 0.960 . S
H565 C578 0.961 . S
H566 C578 0.959 . S
H567 C581 0.929 . S
H568 C582 0.931 . S
H569 C584 0.930 . S
C570 H558 0.930 . S
C570 C571 1.399 . S
C570 C575 1.399 . S
C571 C570 1.399 . S
C571 C572 1.376 . S
C572 H559 0.930 . S
C572 C571 1.376 . S
C572 C573 1.388 . S
C573 H560 0.930 . S
C573 C572 1.388 . S
C573 C574 1.390 . S
C574 C573 1.390 . S
C574 C575 1.394 . S
C574 C580 1.465 . S
C575 C570 1.399 . S
C575 C574 1.394 . S
C575 C576 1.516 . S
C576 C575 1.516 . S
C576 C577 1.502 . S
C576 C578 1.561 . S
C576 C579 1.526 . S
C577 H561 0.959 . S
C577 H562 0.959 . S
C577 H563 0.961 . S
C577 C576 1.502 . S
C578 H564 0.960 . S
C578 H565 0.961 . S
C578 H566 0.959 . S
C578 C576 1.561 . S
C579 C576 1.526 . S
C579 C580 1.396 . S
C579 C584 1.390 . S
C580 C574 1.465 . S
C580 C579 1.396 . S
C580 C581 1.399 . S
C581 H567 0.929 . S
C581 C580 1.399 . S
C581 C582 1.385 . S
C582 H568 0.931 . S
C582 C581 1.385 . S
C582 C583 1.389 . S
C583 C582 1.389 . S
C583 C584 1.387 . S
C584 H569 0.930 . S
C584 C579 1.390 . S
C584 C583 1.387 . S
H585 C597 0.930 . S
H586 C599 0.930 . S
H587 C600 0.930 . S
H588 C604 0.959 . S
H589 C604 0.959 . S
H590 C604 0.961 . S
H591 C605 0.960 . S
H592 C605 0.961 . S
H593 C605 0.959 . S
H594 C608 0.929 . S
H595 C609 0.931 . S
H596 C611 0.930 . S
C597 H585 0.930 . S
C597 C598 1.399 . S
C597 C602 1.399 . S
C598 C597 1.399 . S
C598 C599 1.376 . S
C599 H586 0.930 . S
C599 C598 1.376 . S
C599 C600 1.388 . S
C600 H587 0.930 . S
C600 C599 1.388 . S
C600 C601 1.390 . S
C601 C600 1.390 . S
C601 C602 1.394 . S
C601 C607 1.465 . S
C602 C597 1.399 . S
C602 C601 1.394 . S
C602 C603 1.516 . S
C603 C602 1.516 . S
C603 C604 1.502 . S
C603 C605 1.561 . S
C603 C606 1.526 . S
C604 H588 0.959 . S
C604 H589 0.959 . S
C604 H590 0.961 . S
C604 C603 1.502 . S
C605 H591 0.960 . S
C605 H592 0.961 . S
C605 H593 0.959 . S
C605 C603 1.561 . S
C606 C603 1.526 . S
C606 C607 1.396 . S
C606 C611 1.390 . S
C607 C601 1.465 . S
C607 C606 1.396 . S
C607 C608 1.399 . S
C608 H594 0.929 . S
C608 C607 1.399 . S
C608 C609 1.385 . S
C609 H595 0.931 . S
C609 C608 1.385 . S
C609 C610 1.389 . S
C610 C609 1.389 . S
C610 C611 1.387 . S
C611 H596 0.930 . S
C611 C606 1.390 . S
C611 C610 1.387 . S
H612 C624 0.930 . S
H613 C626 0.930 . S
H614 C627 0.930 . S
H615 C631 0.959 . S
H616 C631 0.959 . S
H617 C631 0.961 . S
H618 C632 0.960 . S
H619 C632 0.961 . S
H620 C632 0.959 . S
H621 C635 0.929 . S
H622 C636 0.931 . S
H623 C638 0.930 . S
C624 H612 0.930 . S
C624 C625 1.399 . S
C624 C629 1.399 . S
C625 C624 1.399 . S
C625 C626 1.376 . S
C626 H613 0.930 . S
C626 C625 1.376 . S
C626 C627 1.388 . S
C627 H614 0.930 . S
C627 C626 1.388 . S
C627 C628 1.390 . S
C628 C627 1.390 . S
C628 C629 1.394 . S
C628 C634 1.465 . S
C629 C624 1.399 . S
C629 C628 1.394 . S
C629 C630 1.516 . S
C630 C629 1.516 . S
C630 C631 1.502 . S
C630 C632 1.561 . S
C630 C633 1.526 . S
C631 H615 0.959 . S
C631 H616 0.959 . S
C631 H617 0.961 . S
C631 C630 1.502 . S
C632 H618 0.960 . S
C632 H619 0.961 . S
C632 H620 0.959 . S
C632 C630 1.561 . S
C633 C630 1.526 . S
C633 C634 1.396 . S
C633 C638 1.390 . S
C634 C628 1.465 . S
C634 C633 1.396 . S
C634 C635 1.399 . S
C635 H621 0.929 . S
C635 C634 1.399 . S
C635 C636 1.385 . S
C636 H622 0.931 . S
C636 C635 1.385 . S
C636 C637 1.389 . S
C637 C636 1.389 . S
C637 C638 1.387 . S
C638 H623 0.930 . S
C638 C633 1.390 . S
C638 C637 1.387 . S
H639 C651 0.930 . S
H640 C653 0.930 . S
H641 C654 0.930 . S
H642 C658 0.959 . S
H643 C658 0.959 . S
H644 C658 0.961 . S
H645 C659 0.960 . S
H646 C659 0.961 . S
H647 C659 0.959 . S
H648 C662 0.929 . S
H649 C663 0.931 . S
H650 C665 0.930 . S
C651 H639 0.930 . S
C651 C652 1.399 . S
C651 C656 1.399 . S
C652 C651 1.399 . S
C652 C653 1.376 . S
C653 H640 0.930 . S
C653 C652 1.376 . S
C653 C654 1.388 . S
C654 H641 0.930 . S
C654 C653 1.388 . S
C654 C655 1.390 . S
C655 C654 1.390 . S
C655 C656 1.394 . S
C655 C661 1.465 . S
C656 C651 1.399 . S
C656 C655 1.394 . S
C656 C657 1.516 . S
C657 C656 1.516 . S
C657 C658 1.502 . S
C657 C659 1.561 . S
C657 C660 1.526 . S
C658 H642 0.959 . S
C658 H643 0.959 . S
C658 H644 0.961 . S
C658 C657 1.502 . S
C659 H645 0.960 . S
C659 H646 0.961 . S
C659 H647 0.959 . S
C659 C657 1.561 . S
C660 C657 1.526 . S
C660 C661 1.396 . S
C660 C665 1.390 . S
C661 C655 1.465 . S
C661 C660 1.396 . S
C661 C662 1.399 . S
C662 H648 0.929 . S
C662 C661 1.399 . S
C662 C663 1.385 . S
C663 H649 0.931 . S
C663 C662 1.385 . S
C663 C664 1.389 . S
C664 C663 1.389 . S
C664 C665 1.387 . S
C665 H650 0.930 . S
C665 C660 1.390 . S
C665 C664 1.387 . S
H666 C678 0.930 . S
H667 C680 0.930 . S
H668 C681 0.930 . S
H669 C685 0.959 . S
H670 C685 0.959 . S
H671 C685 0.961 . S
H672 C686 0.960 . S
H673 C686 0.961 . S
H674 C686 0.959 . S
H675 C689 0.929 . S
H676 C690 0.931 . S
H677 C692 0.930 . S
C678 H666 0.930 . S
C678 C679 1.399 . S
C678 C683 1.399 . S
C679 C678 1.399 . S
C679 C680 1.376 . S
C680 H667 0.930 . S
C680 C679 1.376 . S
C680 C681 1.388 . S
C681 H668 0.930 . S
C681 C680 1.388 . S
C681 C682 1.390 . S
C682 C681 1.390 . S
C682 C683 1.394 . S
C682 C688 1.465 . S
C683 C678 1.399 . S
C683 C682 1.394 . S
C683 C684 1.516 . S
C684 C683 1.516 . S
C684 C685 1.502 . S
C684 C686 1.561 . S
C684 C687 1.526 . S
C685 H669 0.959 . S
C685 H670 0.959 . S
C685 H671 0.961 . S
C685 C684 1.502 . S
C686 H672 0.960 . S
C686 H673 0.961 . S
C686 H674 0.959 . S
C686 C684 1.561 . S
C687 C684 1.526 . S
C687 C688 1.396 . S
C687 C692 1.390 . S
C688 C682 1.465 . S
C688 C687 1.396 . S
C688 C689 1.399 . S
C689 H675 0.929 . S
C689 C688 1.399 . S
C689 C690 1.385 . S
C690 H676 0.931 . S
C690 C689 1.385 . S
C690 C691 1.389 . S
C691 C690 1.389 . S
C691 C692 1.387 . S
C692 H677 0.930 . S
C692 C687 1.390 . S
C692 C691 1.387 . S
H693 C705 0.930 . S
H694 C707 0.930 . S
H695 C708 0.930 . S
H696 C712 0.959 . S
H697 C712 0.959 . S
H698 C712 0.961 . S
H699 C713 0.960 . S
H700 C713 0.961 . S
H701 C713 0.959 . S
H702 C716 0.929 . S
H703 C717 0.931 . S
H704 C719 0.930 . S
C705 H693 0.930 . S
C705 C706 1.399 . S
C705 C710 1.399 . S
C706 C705 1.399 . S
C706 C707 1.376 . S
C707 H694 0.930 . S
C707 C706 1.376 . S
C707 C708 1.388 . S
C708 H695 0.930 . S
C708 C707 1.388 . S
C708 C709 1.390 . S
C709 C708 1.390 . S
C709 C710 1.394 . S
C709 C715 1.465 . S
C710 C705 1.399 . S
C710 C709 1.394 . S
C710 C711 1.516 . S
C711 C710 1.516 . S
C711 C712 1.502 . S
C711 C713 1.561 . S
C711 C714 1.526 . S
C712 H696 0.959 . S
C712 H697 0.959 . S
C712 H698 0.961 . S
C712 C711 1.502 . S
C713 H699 0.960 . S
C713 H700 0.961 . S
C713 H701 0.959 . S
C713 C711 1.561 . S
C714 C711 1.526 . S
C714 C715 1.396 . S
C714 C719 1.390 . S
C715 C709 1.465 . S
C715 C714 1.396 . S
C715 C716 1.399 . S
C716 H702 0.929 . S
C716 C715 1.399 . S
C716 C717 1.385 . S
C717 H703 0.931 . S
C717 C716 1.385 . S
C717 C718 1.389 . S
C718 C717 1.389 . S
C718 C719 1.387 . S
C719 H704 0.930 . S
C719 C714 1.390 . S
C719 C718 1.387 . S
H720 C732 0.930 . S
H721 C734 0.930 . S
H722 C735 0.930 . S
H723 C739 0.959 . S
H724 C739 0.959 . S
H725 C739 0.961 . S
H726 C740 0.960 . S
H727 C740 0.961 . S
H728 C740 0.959 1_455 S
H729 C743 0.929 . S
H730 C744 0.931 . S
H731 C746 0.930 . S
C732 H720 0.930 . S
C732 C733 1.399 . S
C732 C737 1.399 . S
C733 C732 1.399 . S
C733 C734 1.376 1_655 S
C734 H721 0.930 . S
C734 C733 1.376 1_455 S
C734 C735 1.388 . S
C735 H722 0.930 . S
C735 C734 1.388 . S
C735 C736 1.390 . S
C736 C735 1.390 . S
C736 C737 1.394 1_455 S
C736 C742 1.465 . S
C737 C732 1.399 . S
C737 C736 1.394 1_655 S
C737 C738 1.516 . S
C738 C737 1.516 . S
C738 C739 1.502 . S
C738 C740 1.561 . S
C738 C741 1.526 . S
C739 H723 0.959 . S
C739 H724 0.959 . S
C739 H725 0.961 . S
C739 C738 1.502 . S
C740 H726 0.960 . S
C740 H727 0.961 . S
C740 H728 0.959 1_655 S
C740 C738 1.561 . S
C741 C738 1.526 . S
C741 C742 1.396 1_655 S
C741 C746 1.390 . S
C742 C736 1.465 . S
C742 C741 1.396 1_455 S
C742 C743 1.399 . S
C743 H729 0.929 . S
C743 C742 1.399 . S
C743 C744 1.385 . S
C744 H730 0.931 . S
C744 C743 1.385 . S
C744 C745 1.389 . S
C745 C744 1.389 . S
C745 C746 1.387 1_455 S
C746 H731 0.930 . S
C746 C741 1.390 . S
C746 C745 1.387 1_655 S
H747 C759 0.930 . S
H748 C761 0.930 1_545 S
H749 C762 0.930 . S
H750 C766 0.959 1_546 S
H751 C766 0.967 . S
H752 C766 0.954 1_556 S
H753 C767 0.960 1_556 S
H754 C767 0.961 . S
H755 C767 0.959 . S
H756 C770 0.929 . S
H757 C771 0.931 . S
H758 C773 0.934 1_565 S
C759 H747 0.930 . S
C759 C760 1.399 . S
C759 C764 1.399 . S
C760 C759 1.399 . S
C760 C761 1.376 . S
C761 H748 0.930 1_565 S
C761 C760 1.376 . S
C761 C762 1.388 1_565 S
C762 H749 0.930 . S
C762 C761 1.388 1_545 S
C762 C763 1.386 . S
C763 C762 1.386 . S
C763 C764 1.395 1_545 S
C763 C769 1.470 1_556 S
C764 C759 1.399 . S
C764 C763 1.395 1_565 S
C764 C765 1.516 1_556 S
C765 C764 1.516 1_554 S
C765 C766 1.502 . S
C765 C767 1.561 . S
C765 C768 1.526 . S
C766 H750 0.959 1_564 S
C766 H751 0.967 . S
C766 H752 0.954 1_554 S
C766 C765 1.502 . S
C767 H753 0.960 1_554 S
C767 H754 0.961 . S
C767 H755 0.959 . S
C767 C765 1.561 . S
C768 C765 1.526 . S
C768 C769 1.396 1_565 S
C768 C773 1.384 1_565 S
C769 C763 1.470 1_554 S
C769 C768 1.396 1_545 S
C769 C770 1.399 . S
C770 H756 0.929 . S
C770 C769 1.399 . S
C770 C771 1.385 . S
C771 H757 0.931 . S
C771 C770 1.385 . S
C771 C772 1.389 . S
C772 C771 1.389 . S
C772 C773 1.389 . S
C773 H758 0.934 1_545 S
C773 C768 1.384 1_545 S
C773 C772 1.389 . S
H774 C786 0.930 . S
H775 C788 0.930 . S
H776 C789 0.930 . S
H777 C793 0.959 . S
H778 C793 0.959 . S
H779 C793 0.961 . S
H780 C794 0.960 . S
H781 C794 0.961 . S
H782 C794 0.959 . S
H783 C797 0.929 . S
H784 C798 0.931 . S
H785 C800 0.930 . S
C786 H774 0.930 . S
C786 C787 1.399 . S
C786 C791 1.399 . S
C787 C786 1.399 . S
C787 C788 1.376 . S
C788 H775 0.930 . S
C788 C787 1.376 . S
C788 C789 1.388 . S
C789 H776 0.930 . S
C789 C788 1.388 . S
C789 C790 1.390 . S
C790 C789 1.390 . S
C790 C791 1.394 . S
C790 C796 1.465 . S
C791 C786 1.399 . S
C791 C790 1.394 . S
C791 C792 1.516 . S
C792 C791 1.516 . S
C792 C793 1.502 . S
C792 C794 1.561 . S
C792 C795 1.526 . S
C793 H777 0.959 . S
C793 H778 0.959 . S
C793 H779 0.961 . S
C793 C792 1.502 . S
C794 H780 0.960 . S
C794 H781 0.961 . S
C794 H782 0.959 . S
C794 C792 1.561 . S
C795 C792 1.526 . S
C795 C796 1.396 . S
C795 C800 1.390 . S
C796 C790 1.465 . S
C796 C795 1.396 . S
C796 C797 1.399 . S
C797 H783 0.929 . S
C797 C796 1.399 . S
C797 C798 1.385 . S
C798 H784 0.931 . S
C798 C797 1.385 . S
C798 C799 1.389 . S
C799 C798 1.389 . S
C799 C800 1.387 . S
C800 H785 0.930 . S
C800 C795 1.390 . S
C800 C799 1.387 . S
H801 C813 0.930 . S
H802 C815 0.937 1_455 S
H803 C816 0.930 . S
H804 C820 0.959 1_455 S
H805 C820 0.959 . S
H806 C820 0.961 . S
H807 C821 0.960 . S
H808 C821 0.961 . S
H809 C821 0.959 . S
H810 C824 0.929 . S
H811 C825 0.931 . S
H812 C827 0.931 1_655 S
C813 H801 0.930 . S
C813 C814 1.399 . S
C813 C818 1.399 . S
C814 C813 1.399 . S
C814 C815 1.375 . S
C815 H802 0.937 1_655 S
C815 C814 1.375 . S
C815 C816 1.385 1_655 S
C816 H803 0.930 . S
C816 C815 1.385 1_455 S
C816 C817 1.385 . S
C817 C816 1.385 . S
C817 C818 1.395 1_455 S
C817 C823 1.472 . S
C818 C813 1.399 . S
C818 C817 1.395 1_655 S
C818 C819 1.516 . S
C819 C818 1.516 . S
C819 C820 1.502 . S
C819 C821 1.561 . S
C819 C822 1.526 . S
C820 H804 0.959 1_655 S
C820 H805 0.959 . S
C820 H806 0.961 . S
C820 C819 1.502 . S
C821 H807 0.960 . S
C821 H808 0.961 . S
C821 H809 0.959 . S
C821 C819 1.561 . S
C822 C819 1.526 . S
C822 C823 1.396 1_655 S
C822 C827 1.387 1_655 S
C823 C817 1.472 . S
C823 C822 1.396 1_455 S
C823 C824 1.399 . S
C824 H810 0.929 . S
C824 C823 1.399 . S
C824 C825 1.385 . S
C825 H811 0.931 . S
C825 C824 1.385 . S
C825 C826 1.389 . S
C826 C825 1.389 . S
C826 C827 1.388 . S
C827 H812 0.931 1_455 S
C827 C822 1.387 1_455 S
C827 C826 1.388 . S
H828 C840 0.930 . S
H829 C842 0.930 . S
H830 C843 0.930 . S
H831 C847 0.959 . S
H832 C847 0.959 . S
H833 C847 0.961 . S
H834 C848 0.960 . S
H835 C848 0.961 . S
H836 C848 0.959 . S
H837 C851 0.929 . S
H838 C852 0.931 . S
H839 C854 0.930 . S
C840 H828 0.930 . S
C840 C841 1.399 1_545 S
C840 C845 1.399 . S
C841 C840 1.399 1_565 S
C841 C842 1.376 . S
C842 H829 0.930 . S
C842 C841 1.376 . S
C842 C843 1.388 . S
C843 H830 0.930 . S
C843 C842 1.388 . S
C843 C844 1.390 . S
C844 C843 1.390 . S
C844 C845 1.394 1_565 S
C844 C850 1.465 . S
C845 C840 1.399 . S
C845 C844 1.394 1_545 S
C845 C846 1.516 . S
C846 C845 1.516 . S
C846 C847 1.502 . S
C846 C848 1.561 . S
C846 C849 1.526 . S
C847 H831 0.959 . S
C847 H832 0.959 . S
C847 H833 0.961 . S
C847 C846 1.502 . S
C848 H834 0.960 . S
C848 H835 0.961 . S
C848 H836 0.959 . S
C848 C846 1.561 . S
C849 C846 1.526 . S
C849 C850 1.396 1_545 S
C849 C854 1.390 . S
C850 C844 1.465 . S
C850 C849 1.396 1_565 S
C850 C851 1.399 . S
C851 H837 0.929 . S
C851 C850 1.399 . S
C851 C852 1.385 . S
C852 H838 0.931 . S
C852 C851 1.385 . S
C852 C853 1.389 1_565 S
C853 C852 1.389 1_545 S
C853 C854 1.387 . S
C854 H839 0.930 . S
C854 C849 1.390 . S
C854 C853 1.387 . S
H855 C867 0.930 . S
H856 C869 0.930 . S
H857 C870 0.930 . S
H858 C874 0.959 . S
H859 C874 0.959 . S
H860 C874 0.961 . S
H861 C875 0.960 . S
H862 C875 0.961 . S
H863 C875 0.959 . S
H864 C878 0.929 . S
H865 C879 0.931 . S
H866 C881 0.930 . S
C867 H855 0.930 . S
C867 C868 1.399 . S
C867 C872 1.399 . S
C868 C867 1.399 . S
C868 C869 1.376 . S
C869 H856 0.930 . S
C869 C868 1.376 . S
C869 C870 1.388 . S
C870 H857 0.930 . S
C870 C869 1.388 . S
C870 C871 1.390 . S
C871 C870 1.390 . S
C871 C872 1.394 . S
C871 C877 1.465 . S
C872 C867 1.399 . S
C872 C871 1.394 . S
C872 C873 1.516 . S
C873 C872 1.516 . S
C873 C874 1.502 . S
C873 C875 1.561 . S
C873 C876 1.526 . S
C874 H858 0.959 . S
C874 H859 0.959 . S
C874 H860 0.961 . S
C874 C873 1.502 . S
C875 H861 0.960 . S
C875 H862 0.961 . S
C875 H863 0.959 . S
C875 C873 1.561 . S
C876 C873 1.526 . S
C876 C877 1.396 . S
C876 C881 1.390 . S
C877 C871 1.465 . S
C877 C876 1.396 . S
C877 C878 1.399 . S
C878 H864 0.929 . S
C878 C877 1.399 . S
C878 C879 1.385 . S
C879 H865 0.931 . S
C879 C878 1.385 . S
C879 C880 1.389 . S
C880 C879 1.389 . S
C880 C881 1.387 . S
C881 H866 0.930 . S
C881 C876 1.390 . S
C881 C880 1.387 . S
H882 C894 0.930 . S
H883 C896 0.930 . S
H884 C897 0.930 . S
H885 C901 0.959 . S
H886 C901 0.959 . S
H887 C901 0.961 . S
H888 C902 0.960 . S
H889 C902 0.961 . S
H890 C902 0.959 . S
H891 C905 0.929 . S
H892 C906 0.931 . S
H893 C908 0.930 . S
C894 H882 0.930 . S
C894 C895 1.399 . S
C894 C899 1.399 . S
C895 C894 1.399 . S
C895 C896 1.376 . S
C896 H883 0.930 . S
C896 C895 1.376 . S
C896 C897 1.388 . S
C897 H884 0.930 . S
C897 C896 1.388 . S
C897 C898 1.390 . S
C898 C897 1.390 . S
C898 C899 1.394 . S
C898 C904 1.465 . S
C899 C894 1.399 . S
C899 C898 1.394 . S
C899 C900 1.516 . S
C900 C899 1.516 . S
C900 C901 1.502 . S
C900 C902 1.561 . S
C900 C903 1.526 . S
C901 H885 0.959 . S
C901 H886 0.959 . S
C901 H887 0.961 . S
C901 C900 1.502 . S
C902 H888 0.960 . S
C902 H889 0.961 . S
C902 H890 0.959 . S
C902 C900 1.561 . S
C903 C900 1.526 . S
C903 C904 1.396 . S
C903 C908 1.390 . S
C904 C898 1.465 . S
C904 C903 1.396 . S
C904 C905 1.399 1_556 S
C905 H891 0.929 . S
C905 C904 1.399 1_554 S
C905 C906 1.385 . S
C906 H892 0.931 . S
C906 C905 1.385 . S
C906 C907 1.389 . S
C907 C906 1.389 . S
C907 C908 1.387 1_554 S
C908 H893 0.930 . S
C908 C903 1.390 . S
C908 C907 1.387 1_556 S
H909 C921 0.930 . S
H910 C923 0.947 . S
H911 C924 0.930 . S
H912 C928 0.959 . S
H913 C928 0.959 . S
H914 C928 0.961 . S
H915 C929 0.960 . S
H916 C929 0.961 . S
H917 C929 0.959 . S
H918 C932 0.929 . S
H919 C933 0.931 . S
H920 C935 0.930 . S
C921 H909 0.930 . S
C921 C922 1.399 . S
C921 C926 1.399 . S
C922 C921 1.399 . S
C922 C923 1.376 . S
C923 H910 0.947 . S
C923 C922 1.376 . S
C923 C924 1.388 . S
C924 H911 0.930 . S
C924 C923 1.388 . S
C924 C925 1.390 . S
C925 C924 1.390 . S
C925 C926 1.394 . S
C925 C931 1.465 . S
C926 C921 1.399 . S
C926 C925 1.394 . S
C926 C927 1.516 . S
C927 C926 1.516 . S
C927 C928 1.502 . S
C927 C929 1.561 . S
C927 C930 1.526 . S
C928 H912 0.959 . S
C928 H913 0.959 . S
C928 H914 0.961 . S
C928 C927 1.502 . S
C929 H915 0.960 . S
C929 H916 0.961 . S
C929 H917 0.959 . S
C929 C927 1.561 . S
C930 C927 1.526 . S
C930 C931 1.396 . S
C930 C935 1.390 . S
C931 C925 1.465 . S
C931 C930 1.396 . S
C931 C932 1.399 . S
C932 H918 0.929 . S
C932 C931 1.399 . S
C932 C933 1.385 . S
C933 H919 0.931 . S
C933 C932 1.385 . S
C933 C934 1.389 . S
C934 C933 1.389 . S
C934 C935 1.387 . S
C935 H920 0.930 . S
C935 C930 1.390 . S
C935 C934 1.387 . S
H936 C948 0.930 . S
H937 C950 0.930 . S
H938 C951 0.930 . S
H939 C955 0.959 . S
H940 C955 0.959 . S
H941 C955 0.961 . S
H942 C956 0.960 . S
H943 C956 0.961 . S
H944 C956 0.959 . S
H945 C959 0.929 . S
H946 C960 0.931 . S
H947 C962 0.930 . S
C948 H936 0.930 . S
C948 C949 1.399 . S
C948 C953 1.399 . S
C949 C948 1.399 . S
C949 C950 1.376 . S
C950 H937 0.930 . S
C950 C949 1.376 . S
C950 C951 1.388 . S
C951 H938 0.930 . S
C951 C950 1.388 . S
C951 C952 1.390 . S
C952 C951 1.390 . S
C952 C953 1.394 . S
C952 C958 1.465 . S
C953 C948 1.399 . S
C953 C952 1.394 . S
C953 C954 1.516 . S
C954 C953 1.516 . S
C954 C955 1.502 . S
C954 C956 1.561 . S
C954 C957 1.526 . S
C955 H939 0.959 . S
C955 H940 0.959 . S
C955 H941 0.961 . S
C955 C954 1.502 . S
C956 H942 0.960 . S
C956 H943 0.961 . S
C956 H944 0.959 . S
C956 C954 1.561 . S
C957 C954 1.526 . S
C957 C958 1.396 . S
C957 C962 1.390 . S
C958 C952 1.465 . S
C958 C957 1.396 . S
C958 C959 1.399 . S
C959 H945 0.929 . S
C959 C958 1.399 . S
C959 C960 1.385 . S
C960 H946 0.931 . S
C960 C959 1.385 . S
C960 C961 1.389 . S
C961 C960 1.389 . S
C961 C962 1.387 . S
C962 H947 0.930 . S
C962 C957 1.390 . S
C962 C961 1.387 . S
H963 C975 0.930 . S
H964 C977 0.930 . S
H965 C978 0.930 . S
H966 C982 0.959 . S
H967 C982 0.959 . S
H968 C982 0.961 . S
H969 C983 0.960 . S
H970 C983 0.961 . S
H971 C983 0.959 . S
H972 C986 0.929 . S
H973 C987 0.931 . S
H974 C989 0.930 . S
C975 H963 0.930 . S
C975 C976 1.399 . S
C975 C980 1.399 . S
C976 C975 1.399 . S
C976 C977 1.376 . S
C977 H964 0.930 . S
C977 C976 1.376 . S
C977 C978 1.388 . S
C978 H965 0.930 . S
C978 C977 1.388 . S
C978 C979 1.390 . S
C979 C978 1.390 . S
C979 C980 1.394 . S
C979 C985 1.465 . S
C980 C975 1.399 . S
C980 C979 1.394 . S
C980 C981 1.516 . S
C981 C980 1.516 . S
C981 C982 1.502 . S
C981 C983 1.561 . S
C981 C984 1.526 . S
C982 H966 0.959 . S
C982 H967 0.959 . S
C982 H968 0.961 . S
C982 C981 1.502 . S
C983 H969 0.960 . S
C983 H970 0.961 . S
C983 H971 0.959 . S
C983 C981 1.561 . S
C984 C981 1.526 . S
C984 C985 1.396 . S
C984 C989 1.390 . S
C985 C979 1.465 . S
C985 C984 1.396 . S
C985 C986 1.399 . S
C986 H972 0.929 . S
C986 C985 1.399 . S
C986 C987 1.385 . S
C987 H973 0.931 . S
C987 C986 1.385 . S
C987 C988 1.389 . S
C988 C987 1.389 . S
C988 C989 1.387 . S
C989 H974 0.930 . S
C989 C984 1.390 . S
C989 C988 1.387 . S
H990 C1002 0.930 . S
H991 C1004 0.930 . S
H992 C1005 0.930 . S
H993 C1009 0.959 . S
H994 C1009 0.959 . S
H995 C1009 0.961 . S
H996 C1010 0.960 . S
H997 C1010 0.961 . S
H998 C1010 0.959 . S
H999 C1013 0.929 . S
H1000 C1014 0.931 1_655 S
H1001 C1016 0.930 . S
C1002 H990 0.930 . S
C1002 C1003 1.399 . S
C1002 C1007 1.399 . S
C1003 C1002 1.399 . S
C1003 C1004 1.376 . S
C1004 H991 0.930 . S
C1004 C1003 1.376 . S
C1004 C1005 1.388 . S
C1005 H992 0.930 . S
C1005 C1004 1.388 . S
C1005 C1006 1.390 . S
C1006 C1005 1.390 . S
C1006 C1007 1.394 . S
C1006 C1012 1.465 . S
C1007 C1002 1.399 . S
C1007 C1006 1.394 . S
C1007 C1008 1.516 . S
C1008 C1007 1.516 . S
C1008 C1009 1.502 . S
C1008 C1010 1.561 . S
C1008 C1011 1.526 . S
C1009 H993 0.959 . S
C1009 H994 0.959 . S
C1009 H995 0.961 . S
C1009 C1008 1.502 . S
C1010 H996 0.960 . S
C1010 H997 0.961 . S
C1010 H998 0.959 . S
C1010 C1008 1.561 . S
C1011 C1008 1.526 . S
C1011 C1012 1.396 . S
C1011 C1016 1.390 . S
C1012 C1006 1.465 . S
C1012 C1011 1.396 . S
C1012 C1013 1.399 . S
C1013 H999 0.929 . S
C1013 C1012 1.399 . S
C1013 C1014 1.385 . S
C1014 H1000 0.931 1_455 S
C1014 C1013 1.385 . S
C1014 C1015 1.389 . S
C1015 C1014 1.389 . S
C1015 C1016 1.387 . S
C1016 H1001 0.930 . S
C1016 C1011 1.390 . S
C1016 C1015 1.387 . S
H1017 C1029 0.930 . S
H1018 C1031 0.930 . S
H1019 C1032 0.930 . S
H1020 C1036 0.959 . S
H1021 C1036 0.959 . S
H1022 C1036 0.961 . S
H1023 C1037 0.960 . S
H1024 C1037 0.961 . S
H1025 C1037 0.959 . S
H1026 C1040 0.929 . S
H1027 C1041 0.931 . S
H1028 C1043 0.930 . S
C1029 H1017 0.930 . S
C1029 C1030 1.399 . S
C1029 C1034 1.399 . S
C1030 C1029 1.399 . S
C1030 C1031 1.376 . S
C1031 H1018 0.930 . S
C1031 C1030 1.376 . S
C1031 C1032 1.388 . S
C1032 H1019 0.930 . S
C1032 C1031 1.388 . S
C1032 C1033 1.390 . S
C1033 C1032 1.390 . S
C1033 C1034 1.394 . S
C1033 C1039 1.465 . S
C1034 C1029 1.399 . S
C1034 C1033 1.394 . S
C1034 C1035 1.516 . S
C1035 C1034 1.516 . S
C1035 C1036 1.502 . S
C1035 C1037 1.561 . S
C1035 C1038 1.526 . S
C1036 H1020 0.959 . S
C1036 H1021 0.959 . S
C1036 H1022 0.961 . S
C1036 C1035 1.502 . S
C1037 H1023 0.960 . S
C1037 H1024 0.961 . S
C1037 H1025 0.959 . S
C1037 C1035 1.561 . S
C1038 C1035 1.526 . S
C1038 C1039 1.396 . S
C1038 C1043 1.390 . S
C1039 C1033 1.465 . S
C1039 C1038 1.396 . S
C1039 C1040 1.399 . S
C1040 H1026 0.929 . S
C1040 C1039 1.399 . S
C1040 C1041 1.385 . S
C1041 H1027 0.931 . S
C1041 C1040 1.385 . S
C1041 C1042 1.389 . S
C1042 C1041 1.389 . S
C1042 C1043 1.387 . S
C1043 H1028 0.930 . S
C1043 C1038 1.390 . S
C1043 C1042 1.387 . S
H1044 C1056 0.930 . S
H1045 C1058 0.930 . S
H1046 C1059 0.930 . S
H1047 C1063 0.959 . S
H1048 C1063 0.959 . S
H1049 C1063 0.961 . S
H1050 C1064 0.960 . S
H1051 C1064 0.961 . S
H1052 C1064 0.959 . S
H1053 C1067 0.929 . S
H1054 C1068 0.931 . S
H1055 C1070 0.930 . S
C1056 H1044 0.930 . S
C1056 C1057 1.399 . S
C1056 C1061 1.399 . S
C1057 C1056 1.399 . S
C1057 C1058 1.376 . S
C1058 H1045 0.930 . S
C1058 C1057 1.376 . S
C1058 C1059 1.388 . S
C1059 H1046 0.930 . S
C1059 C1058 1.388 . S
C1059 C1060 1.390 . S
C1060 C1059 1.390 . S
C1060 C1061 1.394 . S
C1060 C1066 1.465 . S
C1061 C1056 1.399 . S
C1061 C1060 1.394 . S
C1061 C1062 1.516 . S
C1062 C1061 1.516 . S
C1062 C1063 1.502 . S
C1062 C1064 1.561 . S
C1062 C1065 1.526 . S
C1063 H1047 0.959 . S
C1063 H1048 0.959 . S
C1063 H1049 0.961 . S
C1063 C1062 1.502 . S
C1064 H1050 0.960 . S
C1064 H1051 0.961 . S
C1064 H1052 0.959 . S
C1064 C1062 1.561 . S
C1065 C1062 1.526 . S
C1065 C1066 1.396 . S
C1065 C1070 1.390 . S
C1066 C1060 1.465 . S
C1066 C1065 1.396 . S
C1066 C1067 1.399 . S
C1067 H1053 0.929 . S
C1067 C1066 1.399 . S
C1067 C1068 1.385 . S
C1068 H1054 0.931 . S
C1068 C1067 1.385 . S
C1068 C1069 1.389 . S
C1069 C1068 1.389 . S
C1069 C1070 1.387 . S
C1070 H1055 0.930 . S
C1070 C1065 1.390 . S
C1070 C1069 1.387 . S
H1071 C1083 0.930 . S
H1072 C1085 0.930 . S
H1073 C1086 0.930 . S
H1074 C1090 0.959 . S
H1075 C1090 0.959 . S
H1076 C1090 0.961 . S
H1077 C1091 0.960 . S
H1078 C1091 0.961 . S
H1079 C1091 0.959 . S
H1080 C1094 0.929 . S
H1081 C1095 0.931 . S
H1082 C1097 0.930 . S
C1083 H1071 0.930 . S
C1083 C1084 1.399 . S
C1083 C1088 1.399 1_556 S
C1084 C1083 1.399 . S
C1084 C1085 1.376 1_556 S
C1085 H1072 0.930 . S
C1085 C1084 1.376 1_554 S
C1085 C1086 1.388 . S
C1086 H1073 0.930 . S
C1086 C1085 1.388 . S
C1086 C1087 1.390 . S
C1087 C1086 1.390 . S
C1087 C1088 1.394 . S
C1087 C1093 1.465 . S
C1088 C1083 1.399 1_554 S
C1088 C1087 1.394 . S
C1088 C1089 1.516 . S
C1089 C1088 1.516 . S
C1089 C1090 1.502 1_554 S
C1089 C1091 1.561 . S
C1089 C1092 1.526 . S
C1090 H1074 0.959 . S
C1090 H1075 0.959 . S
C1090 H1076 0.961 . S
C1090 C1089 1.502 1_556 S
C1091 H1077 0.960 . S
C1091 H1078 0.961 . S
C1091 H1079 0.959 . S
C1091 C1089 1.561 . S
C1092 C1089 1.526 . S
C1092 C1093 1.396 . S
C1092 C1097 1.390 . S
C1093 C1087 1.465 . S
C1093 C1092 1.396 . S
C1093 C1094 1.399 . S
C1094 H1080 0.929 . S
C1094 C1093 1.399 . S
C1094 C1095 1.385 . S
C1095 H1081 0.931 . S
C1095 C1094 1.385 . S
C1095 C1096 1.389 . S
C1096 C1095 1.389 . S
C1096 C1097 1.387 . S
C1097 H1082 0.930 . S
C1097 C1092 1.390 . S
C1097 C1096 1.387 . S
H1098 C1110 0.930 . S
H1099 C1112 0.930 . S
H1100 C1113 0.930 . S
H1101 C1117 0.959 . S
H1102 C1117 0.959 . S
H1103 C1117 0.961 . S
H1104 C1118 0.960 . S
H1105 C1118 0.961 . S
H1106 C1118 0.959 . S
H1107 C1121 0.929 . S
H1108 C1122 0.931 . S
H1109 C1124 0.930 . S
C1110 H1098 0.930 . S
C1110 C1111 1.399 . S
C1110 C1115 1.399 . S
C1111 C1110 1.399 . S
C1111 C1112 1.376 . S
C1112 H1099 0.930 . S
C1112 C1111 1.376 . S
C1112 C1113 1.388 . S
C1113 H1100 0.930 . S
C1113 C1112 1.388 . S
C1113 C1114 1.390 . S
C1114 C1113 1.390 . S
C1114 C1115 1.394 . S
C1114 C1120 1.465 . S
C1115 C1110 1.399 . S
C1115 C1114 1.394 . S
C1115 C1116 1.516 . S
C1116 C1115 1.516 . S
C1116 C1117 1.502 . S
C1116 C1118 1.561 . S
C1116 C1119 1.526 . S
C1117 H1101 0.959 . S
C1117 H1102 0.959 . S
C1117 H1103 0.961 . S
C1117 C1116 1.502 . S
C1118 H1104 0.960 . S
C1118 H1105 0.961 . S
C1118 H1106 0.959 . S
C1118 C1116 1.561 . S
C1119 C1116 1.526 . S
C1119 C1120 1.396 . S
C1119 C1124 1.390 . S
C1120 C1114 1.465 . S
C1120 C1119 1.396 . S
C1120 C1121 1.399 . S
C1121 H1107 0.929 . S
C1121 C1120 1.399 . S
C1121 C1122 1.385 . S
C1122 H1108 0.931 . S
C1122 C1121 1.385 . S
C1122 C1123 1.389 . S
C1123 C1122 1.389 . S
C1123 C1124 1.387 . S
C1124 H1109 0.930 . S
C1124 C1119 1.390 . S
C1124 C1123 1.387 . S
H1125 C1137 0.930 . S
H1126 C1139 0.930 . S
H1127 C1140 0.930 . S
H1128 C1144 0.959 . S
H1129 C1144 0.959 . S
H1130 C1144 0.961 . S
H1131 C1145 0.960 . S
H1132 C1145 0.961 . S
H1133 C1145 0.959 . S
H1134 C1148 0.929 . S
H1135 C1149 0.931 . S
H1136 C1151 0.930 . S
C1137 H1125 0.930 . S
C1137 C1138 1.399 . S
C1137 C1142 1.399 . S
C1138 C1137 1.399 . S
C1138 C1139 1.376 . S
C1139 H1126 0.930 . S
C1139 C1138 1.376 . S
C1139 C1140 1.388 . S
C1140 H1127 0.930 . S
C1140 C1139 1.388 . S
C1140 C1141 1.390 . S
C1141 C1140 1.390 . S
C1141 C1142 1.394 . S
C1141 C1147 1.465 . S
C1142 C1137 1.399 . S
C1142 C1141 1.394 . S
C1142 C1143 1.516 . S
C1143 C1142 1.516 . S
C1143 C1144 1.502 . S
C1143 C1145 1.561 . S
C1143 C1146 1.526 . S
C1144 H1128 0.959 . S
C1144 H1129 0.959 . S
C1144 H1130 0.961 . S
C1144 C1143 1.502 . S
C1145 H1131 0.960 . S
C1145 H1132 0.961 . S
C1145 H1133 0.959 . S
C1145 C1143 1.561 . S
C1146 C1143 1.526 . S
C1146 C1147 1.396 . S
C1146 C1151 1.390 . S
C1147 C1141 1.465 . S
C1147 C1146 1.396 . S
C1147 C1148 1.399 . S
C1148 H1134 0.929 . S
C1148 C1147 1.399 . S
C1148 C1149 1.385 . S
C1149 H1135 0.931 . S
C1149 C1148 1.385 . S
C1149 C1150 1.389 . S
C1150 C1149 1.389 . S
C1150 C1151 1.387 . S
C1151 H1136 0.930 . S
C1151 C1146 1.390 . S
C1151 C1150 1.387 . S
H1152 C1164 0.930 . S
H1153 C1166 0.930 . S
H1154 C1167 0.930 . S
H1155 C1171 0.959 . S
H1156 C1171 0.959 . S
H1157 C1171 0.961 . S
H1158 C1172 0.960 . S
H1159 C1172 0.961 . S
H1160 C1172 0.959 . S
H1161 C1175 0.929 . S
H1162 C1176 0.931 . S
H1163 C1178 0.930 . S
C1164 H1152 0.930 . S
C1164 C1165 1.399 . S
C1164 C1169 1.399 . S
C1165 C1164 1.399 . S
C1165 C1166 1.376 . S
C1166 H1153 0.930 . S
C1166 C1165 1.376 . S
C1166 C1167 1.388 . S
C1167 H1154 0.930 . S
C1167 C1166 1.388 . S
C1167 C1168 1.390 . S
C1168 C1167 1.390 . S
C1168 C1169 1.394 . S
C1168 C1174 1.465 . S
C1169 C1164 1.399 . S
C1169 C1168 1.394 . S
C1169 C1170 1.516 . S
C1170 C1169 1.516 . S
C1170 C1171 1.502 . S
C1170 C1172 1.561 . S
C1170 C1173 1.526 . S
C1171 H1155 0.959 . S
C1171 H1156 0.959 . S
C1171 H1157 0.961 . S
C1171 C1170 1.502 . S
C1172 H1158 0.960 . S
C1172 H1159 0.961 . S
C1172 H1160 0.959 . S
C1172 C1170 1.561 . S
C1173 C1170 1.526 . S
C1173 C1174 1.396 . S
C1173 C1178 1.390 . S
C1174 C1168 1.465 . S
C1174 C1173 1.396 . S
C1174 C1175 1.399 . S
C1175 H1161 0.929 . S
C1175 C1174 1.399 . S
C1175 C1176 1.385 . S
C1176 H1162 0.931 . S
C1176 C1175 1.385 . S
C1176 C1177 1.389 . S
C1177 C1176 1.389 . S
C1177 C1178 1.387 . S
C1178 H1163 0.930 . S
C1178 C1173 1.390 . S
C1178 C1177 1.387 . S
H1179 C1191 0.930 . S
H1180 C1193 0.930 . S
H1181 C1194 0.930 . S
H1182 C1198 0.959 . S
H1183 C1198 0.959 . S
H1184 C1198 0.961 . S
H1185 C1199 0.960 . S
H1186 C1199 0.961 . S
H1187 C1199 0.959 . S
H1188 C1202 0.929 . S
H1189 C1203 0.931 . S
H1190 C1205 0.930 . S
C1191 H1179 0.930 . S
C1191 C1192 1.399 . S
C1191 C1196 1.399 . S
C1192 C1191 1.399 . S
C1192 C1193 1.376 . S
C1193 H1180 0.930 . S
C1193 C1192 1.376 . S
C1193 C1194 1.388 . S
C1194 H1181 0.930 . S
C1194 C1193 1.388 . S
C1194 C1195 1.390 . S
C1195 C1194 1.390 . S
C1195 C1196 1.394 . S
C1195 C1201 1.465 . S
C1196 C1191 1.399 . S
C1196 C1195 1.394 . S
C1196 C1197 1.516 . S
C1197 C1196 1.516 . S
C1197 C1198 1.502 . S
C1197 C1199 1.561 . S
C1197 C1200 1.526 . S
C1198 H1182 0.959 . S
C1198 H1183 0.959 . S
C1198 H1184 0.961 . S
C1198 C1197 1.502 . S
C1199 H1185 0.960 . S
C1199 H1186 0.961 . S
C1199 H1187 0.959 . S
C1199 C1197 1.561 . S
C1200 C1197 1.526 . S
C1200 C1201 1.396 . S
C1200 C1205 1.390 . S
C1201 C1195 1.465 . S
C1201 C1200 1.396 . S
C1201 C1202 1.399 . S
C1202 H1188 0.929 . S
C1202 C1201 1.399 . S
C1202 C1203 1.385 . S
C1203 H1189 0.931 . S
C1203 C1202 1.385 . S
C1203 C1204 1.389 . S
C1204 C1203 1.389 . S
C1204 C1205 1.387 . S
C1205 H1190 0.930 . S
C1205 C1200 1.390 . S
C1205 C1204 1.387 . S
C409 N344 0.968 . S
C421 N14 1.001 . S
C436 N47 0.955 . S
C448 N377 1.031 . S
C463 N80 0.984 . S
C475 N212 1.018 . S
C490 N113 0.954 . S
C502 N245 1.023 . S
C517 N146 0.953 . S
C529 N278 1.029 1_556 S
C544 N179 0.974 1_554 S
C556 N311 0.994 . S
C571 C17 1.502 . S
C583 C281 1.496 . S
C598 C314 1.491 . S
C610 C50 1.500 . S
C625 C83 1.499 . S
C637 C347 1.490 . S
C652 C116 1.472 . S
C664 C380 1.481 . S
C679 C149 1.499 . S
C691 C215 1.502 . S
C706 C182 1.473 . S
C718 C248 1.483 . S
C733 N368 1.232 . S
C745 N5 1.143 . S
C760 N203 1.140 . S
C772 N38 1.122 . S
C787 N236 1.205 . S
C799 N71 1.212 . S
C814 N104 1.140 . S
C826 N269 1.121 . S
C841 N137 1.167 . S
C853 N302 1.230 . S
C868 N335 1.127 . S
C880 N170 1.134 . S
C895 C193 2.043 . S
C907 C8 2.045 . S
C922 C28 2.027 1_655 S
C934 C41 2.054 . S
C949 C74 2.038 . S
C961 C61 2.050 1_565 S
C976 C94 2.034 . S
C988 C107 2.050 . S
C1003 C140 2.055 . S
C1015 C127 2.025 1_455 S
C1030 C173 2.039 . S
C1042 C160 2.051 1_545 S
C1057 C259 2.028 . S
C1069 C206 2.053 . S
C1084 C239 2.045 . S
C1096 C292 2.038 1_655 S
C1111 C272 2.040 . S
C1123 C325 2.049 1_565 S
C1138 C358 2.049 . S
C1150 C305 2.040 . S
C1165 C391 2.033 1_455 S
C1177 C338 2.048 . S
C1192 C371 2.050 . S
C1204 C226 2.029 1_545 S
