# Generated by pormake.
# Topology fcn, (5)-cn, num edge types: 1
# Building blocks:
#     Node 0, Type 0, BuildingBlock: BEQFEK_clean_sbu_0, # of connection points: 5
#     Node 1, Type 0, BuildingBlock: BEQFEK_clean_sbu_0, # of connection points: 5
#     Node 2, Type 0, BuildingBlock: BEQFEK_clean_sbu_0, # of connection points: 5
#     Node 3, Type 0, BuildingBlock: BEQFEK_clean_sbu_0, # of connection points: 5
#     Node 4, Type 0, BuildingBlock: BEQFEK_clean_sbu_0, # of connection points: 5
#     Node 5, Type 0, BuildingBlock: BEQFEK_clean_sbu_0, # of connection points: 5
#     Node 6, Type 0, BuildingBlock: BEQFEK_clean_sbu_0, # of connection points: 5
#     Node 7, Type 0, BuildingBlock: BEQFEK_clean_sbu_0, # of connection points: 5
#     Node 8, Type 0, BuildingBlock: BEQFEK_clean_sbu_0, # of connection points: 5
#     Node 9, Type 0, BuildingBlock: BEQFEK_clean_sbu_0, # of connection points: 5
#     Node 10, Type 0, BuildingBlock: BEQFEK_clean_sbu_0, # of connection points: 5
#     Node 11, Type 0, BuildingBlock: BEQFEK_clean_sbu_0, # of connection points: 5
#     Node 12, Type 0, BuildingBlock: BEQFEK_clean_sbu_0, # of connection points: 5
#     Node 13, Type 0, BuildingBlock: BEQFEK_clean_sbu_0, # of connection points: 5
#     Node 14, Type 0, BuildingBlock: BEQFEK_clean_sbu_0, # of connection points: 5
#     Node 15, Type 0, BuildingBlock: BEQFEK_clean_sbu_0, # of connection points: 5
#     Node 16, Type 0, BuildingBlock: BEQFEK_clean_sbu_0, # of connection points: 5
#     Node 17, Type 0, BuildingBlock: BEQFEK_clean_sbu_0, # of connection points: 5
#     Node 18, Type 0, BuildingBlock: BEQFEK_clean_sbu_0, # of connection points: 5
#     Node 19, Type 0, BuildingBlock: BEQFEK_clean_sbu_0, # of connection points: 5
#     Node 20, Type 0, BuildingBlock: BEQFEK_clean_sbu_0, # of connection points: 5
#     Node 21, Type 0, BuildingBlock: BEQFEK_clean_sbu_0, # of connection points: 5
#     Node 22, Type 0, BuildingBlock: BEQFEK_clean_sbu_0, # of connection points: 5
#     Node 23, Type 0, BuildingBlock: BEQFEK_clean_sbu_0, # of connection points: 5
#     Node 24, Type 0, BuildingBlock: BEQFEK_clean_sbu_0, # of connection points: 5
#     Node 25, Type 0, BuildingBlock: BEQFEK_clean_sbu_0, # of connection points: 5
#     Node 26, Type 0, BuildingBlock: BEQFEK_clean_sbu_0, # of connection points: 5
#     Node 27, Type 0, BuildingBlock: BEQFEK_clean_sbu_0, # of connection points: 5
#     Node 28, Type 0, BuildingBlock: BEQFEK_clean_sbu_0, # of connection points: 5
#     Node 29, Type 0, BuildingBlock: BEQFEK_clean_sbu_0, # of connection points: 5
#     Node 30, Type 0, BuildingBlock: BEQFEK_clean_sbu_0, # of connection points: 5
#     Node 31, Type 0, BuildingBlock: BEQFEK_clean_sbu_0, # of connection points: 5
#     Node 32, Type 0, BuildingBlock: BEQFEK_clean_sbu_0, # of connection points: 5
#     Node 33, Type 0, BuildingBlock: BEQFEK_clean_sbu_0, # of connection points: 5
#     Node 34, Type 0, BuildingBlock: BEQFEK_clean_sbu_0, # of connection points: 5
#     Node 35, Type 0, BuildingBlock: BEQFEK_clean_sbu_0, # of connection points: 5
#     Node 36, Type 0, BuildingBlock: BEQFEK_clean_sbu_0, # of connection points: 5
#     Node 37, Type 0, BuildingBlock: BEQFEK_clean_sbu_0, # of connection points: 5
#     Node 38, Type 0, BuildingBlock: BEQFEK_clean_sbu_0, # of connection points: 5
#     Node 39, Type 0, BuildingBlock: BEQFEK_clean_sbu_0, # of connection points: 5
#     Node 40, Type 0, BuildingBlock: BEQFEK_clean_sbu_0, # of connection points: 5
#     Node 41, Type 0, BuildingBlock: BEQFEK_clean_sbu_0, # of connection points: 5
#     Node 42, Type 0, BuildingBlock: BEQFEK_clean_sbu_0, # of connection points: 5
#     Node 43, Type 0, BuildingBlock: BEQFEK_clean_sbu_0, # of connection points: 5
#     Node 44, Type 0, BuildingBlock: BEQFEK_clean_sbu_0, # of connection points: 5
#     Node 45, Type 0, BuildingBlock: BEQFEK_clean_sbu_0, # of connection points: 5
#     Node 46, Type 0, BuildingBlock: BEQFEK_clean_sbu_0, # of connection points: 5
#     Node 47, Type 0, BuildingBlock: BEQFEK_clean_sbu_0, # of connection points: 5
#     Edge 48, Type (0, 0), None
#     Edge 49, Type (0, 0), None
#     Edge 50, Type (0, 0), None
#     Edge 51, Type (0, 0), None
#     Edge 52, Type (0, 0), None
#     Edge 53, Type (0, 0), None
#     Edge 54, Type (0, 0), None
#     Edge 55, Type (0, 0), None
#     Edge 56, Type (0, 0), None
#     Edge 57, Type (0, 0), None
#     Edge 58, Type (0, 0), None
#     Edge 59, Type (0, 0), None
#     Edge 60, Type (0, 0), None
#     Edge 61, Type (0, 0), None
#     Edge 62, Type (0, 0), None
#     Edge 63, Type (0, 0), None
#     Edge 64, Type (0, 0), None
#     Edge 65, Type (0, 0), None
#     Edge 66, Type (0, 0), None
#     Edge 67, Type (0, 0), None
#     Edge 68, Type (0, 0), None
#     Edge 69, Type (0, 0), None
#     Edge 70, Type (0, 0), None
#     Edge 71, Type (0, 0), None
#     Edge 72, Type (0, 0), None
#     Edge 73, Type (0, 0), None
#     Edge 74, Type (0, 0), None
#     Edge 75, Type (0, 0), None
#     Edge 76, Type (0, 0), None
#     Edge 77, Type (0, 0), None
#     Edge 78, Type (0, 0), None
#     Edge 79, Type (0, 0), None
#     Edge 80, Type (0, 0), None
#     Edge 81, Type (0, 0), None
#     Edge 82, Type (0, 0), None
#     Edge 83, Type (0, 0), None
#     Edge 84, Type (0, 0), None
#     Edge 85, Type (0, 0), None
#     Edge 86, Type (0, 0), None
#     Edge 87, Type (0, 0), None
#     Edge 88, Type (0, 0), None
#     Edge 89, Type (0, 0), None
#     Edge 90, Type (0, 0), None
#     Edge 91, Type (0, 0), None
#     Edge 92, Type (0, 0), None
#     Edge 93, Type (0, 0), None
#     Edge 94, Type (0, 0), None
#     Edge 95, Type (0, 0), None
#     Edge 96, Type (0, 0), None
#     Edge 97, Type (0, 0), None
#     Edge 98, Type (0, 0), None
#     Edge 99, Type (0, 0), None
#     Edge 100, Type (0, 0), None
#     Edge 101, Type (0, 0), None
#     Edge 102, Type (0, 0), None
#     Edge 103, Type (0, 0), None
#     Edge 104, Type (0, 0), None
#     Edge 105, Type (0, 0), None
#     Edge 106, Type (0, 0), None
#     Edge 107, Type (0, 0), None
#     Edge 108, Type (0, 0), None
#     Edge 109, Type (0, 0), None
#     Edge 110, Type (0, 0), None
#     Edge 111, Type (0, 0), None
#     Edge 112, Type (0, 0), None
#     Edge 113, Type (0, 0), None
#     Edge 114, Type (0, 0), None
#     Edge 115, Type (0, 0), None
#     Edge 116, Type (0, 0), None
#     Edge 117, Type (0, 0), None
#     Edge 118, Type (0, 0), None
#     Edge 119, Type (0, 0), None
#     Edge 120, Type (0, 0), None
#     Edge 121, Type (0, 0), None
#     Edge 122, Type (0, 0), None
#     Edge 123, Type (0, 0), None
#     Edge 124, Type (0, 0), None
#     Edge 125, Type (0, 0), None
#     Edge 126, Type (0, 0), None
#     Edge 127, Type (0, 0), None
#     Edge 128, Type (0, 0), None
#     Edge 129, Type (0, 0), None
#     Edge 130, Type (0, 0), None
#     Edge 131, Type (0, 0), None
#     Edge 132, Type (0, 0), None
#     Edge 133, Type (0, 0), None
#     Edge 134, Type (0, 0), None
#     Edge 135, Type (0, 0), None
#     Edge 136, Type (0, 0), None
#     Edge 137, Type (0, 0), None
#     Edge 138, Type (0, 0), None
#     Edge 139, Type (0, 0), None
#     Edge 140, Type (0, 0), None
#     Edge 141, Type (0, 0), None
#     Edge 142, Type (0, 0), None
#     Edge 143, Type (0, 0), None
#     Edge 144, Type (0, 0), None
#     Edge 145, Type (0, 0), None
#     Edge 146, Type (0, 0), None
#     Edge 147, Type (0, 0), None
#     Edge 148, Type (0, 0), None
#     Edge 149, Type (0, 0), None
#     Edge 150, Type (0, 0), None
#     Edge 151, Type (0, 0), None
#     Edge 152, Type (0, 0), None
#     Edge 153, Type (0, 0), None
#     Edge 154, Type (0, 0), None
#     Edge 155, Type (0, 0), None
#     Edge 156, Type (0, 0), None
#     Edge 157, Type (0, 0), None
#     Edge 158, Type (0, 0), None
#     Edge 159, Type (0, 0), None
#     Edge 160, Type (0, 0), None
#     Edge 161, Type (0, 0), None
#     Edge 162, Type (0, 0), None
#     Edge 163, Type (0, 0), None
#     Edge 164, Type (0, 0), None
#     Edge 165, Type (0, 0), None
#     Edge 166, Type (0, 0), None
#     Edge 167, Type (0, 0), None
# Relax obj value: 0.605
# Max RMSD: 0.184
# Mean RMSD: 0.184
data_MOF--net-fcn--node1-BEQFEK_clean_sbu_0--edge1-none
_symmetry_space_group_name_H-M    P1
_symmetry_Int_Tables_number       1
_symmetry_cell_setting            triclinic
loop_
_symmetry_equiv_pos_as_xyz
'x, y, z'
_cell_length_a     37.011217
_cell_length_b     37.011201
_cell_length_c     37.010502
_cell_angle_alpha  89.999617
_cell_angle_beta   90.000086
_cell_angle_gamma 90.000821
loop_
_atom_site_label
_atom_site_type_symbol
_atom_site_fract_x
_atom_site_fract_y
_atom_site_fract_z
_atom_type_partial_charge
Co0 Co 0.06927 0.18623 0.33675 0.0
Co1 Co 0.12441 0.15423 0.28802 0.0
C2 C 0.13126 0.13559 0.3619 0.0
O3 O 0.10794 0.1594 0.37245 0.0
O4 O 0.1301 0.12499 0.32952 0.0
C5 C 0.03471 0.25667 0.36186 0.0
O6 O 0.06586 0.27242 0.35553 0.0
C7 C 0.19667 0.13174 0.27159 0.0
C8 C 0.19375 0.11753 0.21384 0.0
C9 C 0.21682 0.11889 0.24335 0.0
N10 N 0.16287 0.13752 0.25975 0.0
N11 N 0.16101 0.12838 0.22531 0.0
C12 C 0.21002 0.13949 0.30898 0.0
H13 H 0.19225 0.15915 0.32288 0.0
H14 H 0.23807 0.1501 0.30818 0.0
H15 H 0.2104 0.11392 0.32462 0.0
C16 C 0.08893 0.23517 0.27728 0.0
N17 N 0.09816 0.21418 0.30545 0.0
N18 N 0.13153 0.20336 0.30056 0.0
C19 C 0.14622 0.22339 0.27432 0.0
C20 C 0.11917 0.24123 0.25628 0.0
C21 C 0.05129 0.23981 0.26441 0.0
H22 H 0.03188 0.2368 0.28699 0.0
H23 H 0.04925 0.26661 0.25122 0.0
H24 H 0.04519 0.21921 0.24352 0.0
O25 O 0.03654 0.15603 0.30197 0.0
O26 O 0.07785 0.14704 0.25983 0.0
H27 H 0.18562 0.2026 0.23785 0.0
H28 H 0.19459 0.24725 0.25442 0.0
C29 C 0.18437 0.22017 0.26201 0.0
H30 H 0.20159 0.20926 0.28385 0.0
H31 H 0.13771 0.13034 0.20955 0.0
O32 O 0.0325 0.22212 0.35947 0.0
C33 C 0.04471 0.14726 0.26944 0.0
Co34 Co 0.09959 0.81928 0.58676 0.0
Co35 Co 0.1316 0.87441 0.53802 0.0
C36 C 0.15024 0.88126 0.6119 0.0
O37 O 0.12642 0.85794 0.62246 0.0
O38 O 0.16085 0.88009 0.57953 0.0
C39 C 0.02914 0.78471 0.61186 0.0
O40 O 1.01339 0.81586 0.60553 0.0
C41 C 0.15409 0.94667 0.52159 0.0
C42 C 0.16828 0.94376 0.46383 0.0
C43 C 0.16693 0.96682 0.49335 0.0
N44 N 0.14832 0.91287 0.50975 0.0
N45 N 0.15745 0.91101 0.47531 0.0
C46 C 0.14635 0.96002 0.55898 0.0
H47 H 0.1267 0.94225 0.57289 0.0
H48 H 0.13575 0.98807 0.55819 0.0
H49 H 0.17193 0.9604 0.57462 0.0
C50 C 0.05065 0.83895 0.52728 0.0
N51 N 0.07164 0.84817 0.55546 0.0
N52 N 0.08247 0.88154 0.55057 0.0
C53 C 0.06244 0.89623 0.52433 0.0
C54 C 0.0446 0.86919 0.50629 0.0
C55 C 0.04601 0.80131 0.51441 0.0
H56 H 0.04898 0.7819 0.53699 0.0
H57 H 0.01922 0.79929 0.5012 0.0
H58 H 0.06662 0.7952 0.49353 0.0
O59 O 0.12978 0.78654 0.55198 0.0
O60 O 0.13878 0.82785 0.50983 0.0
H61 H 0.08324 0.93564 0.48787 0.0
H62 H 0.03859 0.94461 0.50444 0.0
C63 C 0.06567 0.93439 0.51203 0.0
H64 H 0.07658 0.9516 0.53387 0.0
H65 H 0.15548 0.88772 0.45955 0.0
O66 O 0.06369 0.78251 0.60947 0.0
C67 C 0.13855 0.79471 0.51945 0.0
Co68 Co 0.46655 0.8496 0.83676 0.0
Co69 Co 0.41141 0.88159 0.78802 0.0
C70 C 0.40456 0.90024 0.8619 0.0
O71 O 0.42788 0.87642 0.87246 0.0
O72 O 0.40572 0.91083 0.82953 0.0
C73 C 0.50112 0.77916 0.86188 0.0
O74 O 0.46998 0.7634 0.85555 0.0
C75 C 0.33915 0.90408 0.77159 0.0
C76 C 0.34207 0.91829 0.71384 0.0
C77 C 0.319 0.91693 0.74335 0.0
N78 N 0.37295 0.8983 0.75975 0.0
N79 N 0.37481 0.90744 0.72531 0.0
C80 C 0.32579 0.89632 0.80898 0.0
H81 H 0.34356 0.87667 0.82288 0.0
H82 H 0.29775 0.88572 0.80818 0.0
H83 H 0.32541 0.9219 0.82462 0.0
C84 C 0.44689 0.80064 0.77728 0.0
N85 N 0.43766 0.82163 0.80546 0.0
N86 N 0.40429 0.83245 0.80057 0.0
C87 C 0.3896 0.81242 0.77432 0.0
C88 C 0.41666 0.79459 0.75628 0.0
C89 C 0.48453 0.79602 0.76442 0.0
H90 H 0.50394 0.79904 0.787 0.0
H91 H 0.48658 0.76921 0.75125 0.0
H92 H 0.49063 0.81661 0.74352 0.0
O93 O 0.49928 0.87979 0.80198 0.0
O94 O 0.45797 0.88877 0.75983 0.0
H95 H 0.3502 0.83322 0.73786 0.0
H96 H 0.34123 0.78856 0.75442 0.0
C97 C 0.35145 0.81565 0.76202 0.0
H98 H 0.33423 0.82656 0.78386 0.0
H99 H 0.39811 0.90548 0.70955 0.0
O100 O 0.50332 0.81371 0.85948 0.0
C101 C 0.49111 0.88856 0.76945 0.0
Co102 Co 0.43623 0.21655 0.08675 0.0
Co103 Co 0.40422 0.16142 0.03802 0.0
C104 C 0.38558 0.15457 0.1119 0.0
O105 O 0.4094 0.17788 0.12245 0.0
O106 O 0.37497 0.15574 0.07953 0.0
C107 C 0.50668 0.25111 0.11186 0.0
O108 O 0.52243 0.21996 0.10553 0.0
C109 C 0.38173 0.08915 0.02159 0.0
C110 C 0.36754 0.09206 0.96383 0.0
C111 C 0.36889 0.069 0.99335 0.0
N112 N 0.3875 0.12295 1.00975 0.0
N113 N 0.37837 0.12481 0.97531 0.0
C114 C 0.38947 0.0758 0.05898 0.0
H115 H 0.40912 0.09357 0.07288 0.0
H116 H 0.40007 0.04775 0.05818 0.0
H117 H 0.36389 0.07543 0.07462 0.0
C118 C 0.48517 0.19687 0.02728 0.0
N119 N 0.46418 0.18765 0.05545 0.0
N120 N 0.45335 0.15429 0.05057 0.0
C121 C 0.47338 0.13959 0.02432 0.0
C122 C 0.49121 0.16664 1.00628 0.0
C123 C 0.48981 0.23451 1.01441 0.0
H124 H 0.48683 0.25393 0.03699 0.0
H125 H 0.5166 0.23654 1.00119 0.0
H126 H 0.4692 0.24063 0.99353 0.0
O127 O 0.40604 0.24928 0.05197 0.0
O128 O 0.39704 0.20798 1.00982 0.0
H129 H 0.45258 0.10018 0.98787 0.0
H130 H 0.49723 0.09121 1.00443 0.0
C131 C 0.47015 0.10144 1.01203 0.0
H132 H 0.45924 0.08422 0.03387 0.0
H133 H 0.38034 0.14811 0.95955 0.0
O134 O 0.47212 0.25332 0.10947 0.0
C135 C 0.39727 0.24112 0.01944 0.0
Co136 Co 0.06928 0.84959 0.19909 0.0
Co137 Co 0.1244 0.8816 0.24782 0.0
C138 C 0.13126 0.90024 0.17394 0.0
O139 O 0.10794 0.87642 0.16339 0.0
O140 O 0.13008 0.91085 0.20632 0.0
C141 C 0.03471 0.77914 0.17398 0.0
O142 O 0.06586 0.76339 0.18031 0.0
C143 C 0.19667 0.9041 0.26425 0.0
C144 C 0.19375 0.91829 0.32201 0.0
C145 C 0.21682 0.91694 0.29249 0.0
N146 N 0.16287 0.89832 0.27609 0.0
N147 N 0.16101 0.90745 0.31053 0.0
C148 C 0.21002 0.89635 0.22686 0.0
H149 H 0.19225 0.8767 0.21296 0.0
H150 H 0.23807 0.88575 0.22766 0.0
H151 H 0.2104 0.92193 0.21123 0.0
C152 C 0.08895 0.80065 0.25856 0.0
N153 N 0.09817 0.82164 0.23039 0.0
N154 N 0.13154 0.83247 0.23528 0.0
C155 C 0.14623 0.81244 0.26152 0.0
C156 C 0.11919 0.7946 0.27956 0.0
C157 C 0.05131 0.79601 0.27143 0.0
H158 H 0.0319 0.79898 0.24885 0.0
H159 H 0.04929 0.76921 0.28464 0.0
H160 H 0.0452 0.81662 0.29231 0.0
O161 O 0.03654 0.87978 0.23387 0.0
O162 O 0.07784 0.88877 0.27602 0.0
H163 H 0.18564 0.83324 0.29798 0.0
H164 H 0.19461 0.78859 0.28141 0.0
C165 C 0.18438 0.81567 0.27382 0.0
H166 H 0.2016 0.82658 0.25197 0.0
H167 H 0.13771 0.90548 0.32629 0.0
O168 O 0.0325 0.81369 0.17637 0.0
C169 C 0.0447 0.88855 0.2664 0.0
Co170 Co 0.43622 0.81928 0.44909 0.0
Co171 Co 0.40423 0.87441 0.49782 0.0
C172 C 0.38558 0.88127 0.42394 0.0
O173 O 0.40939 0.85795 0.41339 0.0
O174 O 0.37498 0.88011 0.45632 0.0
C175 C 0.50666 0.78471 0.42396 0.0
O176 O 0.52241 0.81585 0.4303 0.0
C177 C 0.38174 0.94668 0.51425 0.0
C178 C 0.36753 0.94376 0.572 0.0
C179 C 0.36889 0.96682 0.54249 0.0
N180 N 0.38752 0.91288 0.52609 0.0
N181 N 0.37838 0.91102 0.56053 0.0
C182 C 0.38949 0.96003 0.47686 0.0
H183 H 0.40915 0.94226 0.46296 0.0
H184 H 0.4001 0.98807 0.47767 0.0
H185 H 0.36392 0.96041 0.46122 0.0
C186 C 0.48517 0.83894 0.50856 0.0
N187 N 0.46418 0.84816 0.48039 0.0
N188 N 0.45336 0.88153 0.48528 0.0
C189 C 0.47339 0.89622 0.51152 0.0
C190 C 0.49122 0.86917 0.52956 0.0
C191 C 0.4898 0.8013 0.52142 0.0
H192 H 0.48678 0.78188 0.49884 0.0
H193 H 0.51661 0.79924 0.5346 0.0
H194 H 0.46921 0.79519 0.54233 0.0
O195 O 0.40603 0.78655 0.48387 0.0
O196 O 0.39704 0.82785 0.52601 0.0
H197 H 0.4526 0.93563 0.54798 0.0
H198 H 0.49725 0.94459 0.53142 0.0
C199 C 0.47017 0.93437 0.52383 0.0
H200 H 0.45926 0.9516 0.50199 0.0
H201 H 0.38033 0.88772 0.57629 0.0
O202 O 0.4721 0.7825 0.42636 0.0
C203 C 0.39726 0.79472 0.5164 0.0
Co204 Co 0.46654 0.18623 0.69909 0.0
Co205 Co 0.41141 0.15422 0.74782 0.0
C206 C 0.40456 0.13558 0.67394 0.0
O207 O 0.42788 0.1594 0.66338 0.0
O208 O 0.40573 0.12497 0.70631 0.0
C209 C 0.50111 0.25668 0.67398 0.0
O210 O 0.46995 0.27243 0.68031 0.0
C211 C 0.33915 0.13173 0.76425 0.0
C212 C 0.34207 0.11754 0.82201 0.0
C213 C 0.319 0.11888 0.79249 0.0
N214 N 0.37295 0.1375 0.77609 0.0
N215 N 0.37481 0.12837 0.81053 0.0
C216 C 0.3258 0.13947 0.72686 0.0
H217 H 0.34357 0.15912 0.71295 0.0
H218 H 0.29775 0.15007 0.72766 0.0
H219 H 0.32542 0.11389 0.71122 0.0
C220 C 0.44687 0.23517 0.75856 0.0
N221 N 0.43765 0.21418 0.73038 0.0
N222 N 0.40428 0.20335 0.73527 0.0
C223 C 0.38959 0.22338 0.76151 0.0
C224 C 0.41663 0.24122 0.77956 0.0
C225 C 0.4845 0.23981 0.77143 0.0
H226 H 0.50392 0.23684 0.74885 0.0
H227 H 0.48653 0.26661 0.78464 0.0
H228 H 0.49062 0.2192 0.79231 0.0
O229 O 0.49928 0.15604 0.73386 0.0
O230 O 0.45797 0.14705 0.77601 0.0
H231 H 0.35018 0.20258 0.79797 0.0
H232 H 0.34121 0.24723 0.7814 0.0
C233 C 0.35143 0.22015 0.77381 0.0
H234 H 0.33422 0.20924 0.75197 0.0
H235 H 0.39811 0.13034 0.82629 0.0
O236 O 0.50331 0.22213 0.67637 0.0
C237 C 0.49111 0.14727 0.76639 0.0
Co238 Co 0.0996 0.21653 0.94908 0.0
Co239 Co 0.1316 0.1614 0.99782 0.0
C240 C 0.15024 0.15455 0.92394 0.0
O241 O 0.12642 0.17787 0.91338 0.0
O242 O 0.16085 0.15572 0.95632 0.0
C243 C 0.02915 0.25111 0.92396 0.0
O244 O 1.0134 0.21996 0.93029 0.0
C245 C 0.15409 0.08914 1.01425 0.0
C246 C 0.16829 0.09206 0.07201 0.0
C247 C 0.16694 0.06899 0.04249 0.0
N248 N 0.14832 0.12294 0.02609 0.0
N249 N 0.15744 0.1248 0.06053 0.0
C250 C 0.14635 0.07579 0.97686 0.0
H251 H 0.12669 0.09356 0.96296 0.0
H252 H 0.13575 0.04774 0.97766 0.0
H253 H 0.17192 0.07541 0.96123 0.0
C254 C 0.05065 0.19686 1.00856 0.0
N255 N 0.07164 0.18764 0.98038 0.0
N256 N 0.08246 0.15427 0.98527 0.0
C257 C 0.06244 0.13958 1.01151 0.0
C258 C 0.0446 0.16663 0.02956 0.0
C259 C 0.04601 0.2345 0.02143 0.0
H260 H 0.04901 0.25391 0.99884 0.0
H261 H 0.01921 0.23653 0.03462 0.0
H262 H 0.06661 0.24061 0.04231 0.0
O263 O 0.12979 0.24927 0.98386 0.0
O264 O 0.13877 0.20797 0.02601 0.0
H265 H 0.08324 0.10017 0.04798 0.0
H266 H 0.03858 0.0912 0.03141 0.0
C267 C 0.06566 0.10143 0.02382 0.0
H268 H 0.07658 0.08421 1.00198 0.0
H269 H 0.15548 0.1481 0.07629 0.0
O270 O 0.06371 0.25331 0.92636 0.0
C271 C 0.13855 0.2411 1.01639 0.0
Co272 Co 0.33675 0.06926 0.18621 0.0
Co273 Co 0.28801 0.12438 0.15419 0.0
C274 C 0.3619 0.13125 0.13557 0.0
O275 O 0.37245 0.10793 0.15939 0.0
O276 O 0.32952 0.13011 0.12497 0.0
C277 C 0.36185 0.0347 0.25666 0.0
O278 O 0.3555 0.06585 0.27241 0.0
C279 C 0.27155 0.19664 0.13171 0.0
C280 C 0.21379 0.19371 0.11753 0.0
C281 C 0.2433 0.21678 0.11888 0.0
N282 N 0.25972 0.16283 0.13748 0.0
N283 N 0.22528 0.16097 0.12835 0.0
C284 C 0.30893 0.21 0.13946 0.0
H285 H 0.32283 0.19224 0.15913 0.0
H286 H 0.30813 0.23805 0.15005 0.0
H287 H 0.32458 0.21037 0.11389 0.0
C288 C 0.2772 0.08886 0.23508 0.0
N289 N 0.30541 0.09813 0.21415 0.0
N290 N 0.30052 0.13151 0.20334 0.0
C291 C 0.27421 0.14617 0.22331 0.0
C292 C 0.25616 0.11907 0.24104 0.0
C293 C 0.26437 0.05121 0.2397 0.0
H294 H 0.28698 0.03181 0.23675 0.0
H295 H 0.25114 0.04918 0.26649 0.0
H296 H 0.24351 0.04507 0.21908 0.0
O297 O 0.30199 0.03651 0.156 0.0
O298 O 0.25984 0.07781 0.14699 0.0
H299 H 0.23772 0.18557 0.20256 0.0
H300 H 0.25432 0.19451 0.24721 0.0
C301 C 0.2619 0.18431 0.22011 0.0
H302 H 0.28373 0.20155 0.2092 0.0
H303 H 0.20953 0.13766 0.13031 0.0
O304 O 0.35946 0.03249 0.22211 0.0
C305 C 0.26946 0.04467 0.14722 0.0
Co306 Co 0.21656 0.08675 0.43621 0.0
Co307 Co 0.16144 0.03801 0.4042 0.0
C308 C 0.15457 0.1119 0.38557 0.0
O309 O 0.17789 0.12245 0.40939 0.0
O310 O 0.15571 0.07953 0.37498 0.0
C311 C 0.25112 0.11185 0.50666 0.0
O312 O 0.21997 0.1055 0.52241 0.0
C313 C 0.08918 0.02155 0.38172 0.0
C314 C 0.09211 0.96379 0.36754 0.0
C315 C 0.06904 0.9933 0.36889 0.0
N316 N 0.12299 1.00972 0.38748 0.0
N317 N 0.12485 0.97528 0.37836 0.0
C318 C 0.07582 0.05894 0.38947 0.0
H319 H 0.09357 0.07284 0.40913 0.0
H320 H 0.04776 0.05813 0.40005 0.0
H321 H 0.07545 0.07458 0.36389 0.0
C322 C 0.19696 0.0272 0.48508 0.0
N323 N 0.18769 0.05542 0.46415 0.0
N324 N 0.15431 0.05052 0.45334 0.0
C325 C 0.13965 0.02422 0.47332 0.0
C326 C 0.16676 1.00616 0.49104 0.0
C327 C 0.23461 1.01437 0.4897 0.0
H328 H 0.25401 0.03698 0.48675 0.0
H329 H 0.23665 1.00115 0.51649 0.0
H330 H 0.24075 0.99351 0.46908 0.0
O331 O 0.24931 0.052 0.406 0.0
O332 O 0.20801 1.00985 0.39699 0.0
H333 H 0.10025 0.98773 0.45257 0.0
H334 H 0.09131 1.00433 0.49722 0.0
C335 C 0.10151 1.0119 0.47012 0.0
H336 H 0.08428 0.03373 0.4592 0.0
H337 H 0.14815 0.95953 0.38032 0.0
O338 O 0.25333 0.10947 0.47211 0.0
C339 C 0.24115 0.01947 0.39722 0.0
Co340 Co 0.19908 0.96656 0.68621 0.0
Co341 Co 0.24781 0.91144 0.6542 0.0
C342 C 0.17392 0.90457 0.63557 0.0
O343 O 0.16337 0.92789 0.6594 0.0
O344 O 0.2063 0.90571 0.62497 0.0
C345 C 0.17397 1.00112 0.75666 0.0
O346 O 0.18032 0.96997 0.77241 0.0
C347 C 0.26427 0.83918 0.63172 0.0
C348 C 0.32202 0.84211 0.61753 0.0
C349 C 0.29251 0.81904 0.61888 0.0
N350 N 0.2761 0.87299 0.63748 0.0
N351 N 0.31054 0.87485 0.62836 0.0
C352 C 0.22688 0.82582 0.63947 0.0
H353 H 0.21298 0.84358 0.65914 0.0
H354 H 0.22769 0.79777 0.65006 0.0
H355 H 0.21123 0.82545 0.6139 0.0
C356 C 0.25862 0.94696 0.73508 0.0
N357 N 0.23041 0.93769 0.71415 0.0
N358 N 0.2353 0.90432 0.70334 0.0
C359 C 0.26161 0.88965 0.72332 0.0
C360 C 0.27966 0.91676 0.74104 0.0
C361 C 0.27145 0.98461 0.7397 0.0
H362 H 0.24885 1.00401 0.73675 0.0
H363 H 0.28468 0.98665 0.76649 0.0
H364 H 0.29231 0.99075 0.71908 0.0
O365 O 0.23383 0.99931 0.656 0.0
O366 O 0.27598 0.95801 0.64699 0.0
H367 H 0.29809 0.85025 0.70256 0.0
H368 H 0.2815 0.84131 0.74721 0.0
C369 C 0.27392 0.85151 0.72012 0.0
H370 H 0.25209 0.83428 0.70921 0.0
H371 H 0.32629 0.89815 0.63032 0.0
O372 O 0.17636 1.00333 0.72211 0.0
C373 C 0.26636 0.99115 0.64722 0.0
Co374 Co 0.31926 0.94907 0.93621 0.0
Co375 Co 0.37438 0.99781 0.90419 0.0
C376 C 0.38125 0.92392 0.88557 0.0
O377 O 0.35793 0.91337 0.90939 0.0
O378 O 0.38011 0.9563 0.87498 0.0
C379 C 0.2847 0.92397 1.00667 0.0
O380 O 0.31585 0.93032 0.02241 0.0
C381 C 0.44664 1.01427 0.88172 0.0
C382 C 0.44371 0.07203 0.86754 0.0
C383 C 0.46678 0.04252 0.86889 0.0
N384 N 0.41283 0.0261 0.88748 0.0
N385 N 0.41097 0.06054 0.87836 0.0
C386 C 0.46 0.97689 0.88946 0.0
H387 H 0.44225 0.96299 0.90913 0.0
H388 H 0.48805 0.97769 0.90005 0.0
H389 H 0.46036 0.96124 0.86389 0.0
C390 C 0.33886 1.00862 0.98508 0.0
N391 N 0.34813 0.98041 0.96415 0.0
N392 N 0.3815 0.9853 0.95334 0.0
C393 C 0.39617 1.01161 0.97332 0.0
C394 C 0.36906 0.02966 0.99104 0.0
C395 C 0.30121 0.02145 0.9897 0.0
H396 H 0.28181 0.99884 0.98675 0.0
H397 H 0.29917 0.03468 1.01649 0.0
H398 H 0.29507 0.04231 0.96908 0.0
O399 O 0.28651 0.98383 0.906 0.0
O400 O 0.32781 0.02598 0.89699 0.0
H401 H 0.43557 0.0481 0.95257 0.0
H402 H 0.44451 0.03149 0.99721 0.0
C403 C 0.43431 0.02392 0.97012 0.0
H404 H 0.45154 1.00209 0.9592 0.0
H405 H 0.38767 0.07629 0.88032 0.0
O406 O 0.28249 0.92636 0.97211 0.0
C407 C 0.29467 1.01635 0.89722 0.0
Co408 Co 0.33674 0.96657 0.34964 0.0
Co409 Co 0.28801 0.91144 0.38165 0.0
C410 C 0.3619 0.90458 0.40027 0.0
O411 O 0.37245 0.9279 0.37645 0.0
O412 O 0.32952 0.90572 0.41087 0.0
C413 C 0.36185 1.00112 0.27918 0.0
O414 O 0.35551 0.96997 0.26342 0.0
C415 C 0.27155 0.83919 0.40413 0.0
C416 C 0.21379 0.84211 0.41831 0.0
C417 C 0.2433 0.81904 0.41696 0.0
N418 N 0.25972 0.87299 0.39836 0.0
N419 N 0.22528 0.87486 0.40748 0.0
C420 C 0.30893 0.82583 0.39638 0.0
H421 H 0.32283 0.84358 0.37671 0.0
H422 H 0.30813 0.79777 0.3858 0.0
H423 H 0.32458 0.82546 0.42195 0.0
C424 C 0.2772 0.94697 0.30076 0.0
N425 N 0.30541 0.9377 0.32169 0.0
N426 N 0.30052 0.90432 0.3325 0.0
C427 C 0.27421 0.88966 0.31253 0.0
C428 C 0.25616 0.91676 0.29481 0.0
C429 C 0.26437 0.98462 0.29614 0.0
H430 H 0.28698 1.00401 0.29909 0.0
H431 H 0.25114 0.98665 0.26935 0.0
H432 H 0.24351 0.99076 0.31676 0.0
O433 O 0.30199 0.99932 0.37984 0.0
O434 O 0.25984 0.95802 0.38885 0.0
H435 H 0.23772 0.85025 0.33328 0.0
H436 H 0.25433 0.84131 0.28863 0.0
C437 C 0.2619 0.85151 0.31573 0.0
H438 H 0.28373 0.83428 0.32664 0.0
H439 H 0.20953 0.89816 0.40552 0.0
O440 O 0.35946 1.00334 0.31373 0.0
C441 C 0.26946 0.99115 0.38862 0.0
Co442 Co 0.31926 0.08675 0.59963 0.0
Co443 Co 0.37438 0.03801 0.63165 0.0
C444 C 0.38124 0.1119 0.65027 0.0
O445 O 0.35793 0.12245 0.62645 0.0
O446 O 0.3801 0.07952 0.66087 0.0
C447 C 0.2847 0.11185 0.52918 0.0
O448 O 0.31585 0.10551 0.51342 0.0
C449 C 0.44664 0.02156 0.65413 0.0
C450 C 0.44371 0.9638 0.66831 0.0
C451 C 0.46678 0.99331 0.66696 0.0
N452 N 0.41283 1.00973 0.64836 0.0
N453 N 0.41097 0.97529 0.65749 0.0
C454 C 0.46 0.05894 0.64637 0.0
H455 H 0.44224 0.07284 0.62671 0.0
H456 H 0.48805 0.05814 0.63578 0.0
H457 H 0.46037 0.07459 0.67194 0.0
C458 C 0.33886 0.02721 0.55076 0.0
N459 N 0.34812 0.05542 0.57169 0.0
N460 N 0.3815 0.05052 0.5825 0.0
C461 C 0.39617 0.02422 0.56252 0.0
C462 C 0.36906 1.00617 0.5448 0.0
C463 C 0.30121 1.01437 0.54613 0.0
H464 H 0.28181 0.03698 0.54909 0.0
H465 H 0.29917 1.00115 0.51935 0.0
H466 H 0.29507 0.99351 0.56675 0.0
O467 O 0.28651 0.05199 0.62984 0.0
O468 O 0.32781 1.00984 0.63885 0.0
H469 H 0.43557 0.98773 0.58328 0.0
H470 H 0.44451 1.00433 0.53863 0.0
C471 C 0.43431 1.0119 0.56573 0.0
H472 H 0.45154 0.03373 0.57664 0.0
H473 H 0.38767 0.95953 0.65553 0.0
O474 O 0.28249 0.10946 0.56373 0.0
C475 C 0.29467 0.01946 0.63862 0.0
Co476 Co 0.19908 0.06925 0.84963 0.0
Co477 Co 0.24781 0.12438 0.88165 0.0
C478 C 0.17392 0.13124 0.90027 0.0
O479 O 0.16337 0.10792 0.87645 0.0
O480 O 0.2063 0.1301 0.91087 0.0
C481 C 0.17397 0.0347 0.77918 0.0
O482 O 0.18031 0.06585 0.76342 0.0
C483 C 0.26427 0.19664 0.90413 0.0
C484 C 0.32203 0.19371 0.91831 0.0
C485 C 0.29252 0.21678 0.91695 0.0
N486 N 0.2761 0.16283 0.89836 0.0
N487 N 0.31054 0.16097 0.90748 0.0
C488 C 0.22689 0.21 0.89638 0.0
H489 H 0.21299 0.19224 0.87671 0.0
H490 H 0.22769 0.23805 0.88579 0.0
H491 H 0.21124 0.21036 0.92195 0.0
C492 C 0.25862 0.08885 0.80076 0.0
N493 N 0.23041 0.09812 0.82169 0.0
N494 N 0.2353 0.1315 0.8325 0.0
C495 C 0.26161 0.14616 0.81253 0.0
C496 C 0.27966 0.11906 0.79481 0.0
C497 C 0.27145 0.0512 0.79614 0.0
H498 H 0.24884 0.03181 0.79909 0.0
H499 H 0.28468 0.04917 0.76935 0.0
H500 H 0.29231 0.04507 0.81676 0.0
O501 O 0.23383 0.03651 0.87984 0.0
O502 O 0.27598 0.07781 0.88885 0.0
H503 H 0.29809 0.18557 0.83328 0.0
H504 H 0.28149 0.19451 0.78863 0.0
C505 C 0.27392 0.18431 0.81573 0.0
H506 H 0.25209 0.20154 0.82664 0.0
H507 H 0.3263 0.13766 0.90552 0.0
O508 O 0.17636 0.03249 0.81373 0.0
C509 C 0.26636 0.04467 0.88862 0.0
Co510 Co 0.21657 0.94907 0.09964 0.0
Co511 Co 0.16144 0.99781 0.13165 0.0
C512 C 0.15458 0.92392 0.15027 0.0
O513 O 0.17789 0.91337 0.12645 0.0
O514 O 0.15572 0.9563 0.16087 0.0
C515 C 0.25112 0.92397 0.02918 0.0
O516 O 0.21997 0.93031 1.01343 0.0
C517 C 0.08918 1.01426 0.15413 0.0
C518 C 0.09211 0.07202 0.16831 0.0
C519 C 0.06904 0.04251 0.16696 0.0
N520 N 0.12299 0.02609 0.14836 0.0
N521 N 0.12485 0.06053 0.15749 0.0
C522 C 0.07582 0.97687 0.14638 0.0
H523 H 0.09358 0.96298 0.12671 0.0
H524 H 0.04778 0.97768 0.13578 0.0
H525 H 0.07546 0.96123 0.17195 0.0
C526 C 0.19697 1.00861 0.05076 0.0
N527 N 0.1877 0.9804 0.07169 0.0
N528 N 0.15432 0.9853 0.0825 0.0
C529 C 0.13966 1.0116 0.06253 0.0
C530 C 0.16676 0.02965 0.04481 0.0
C531 C 0.23462 0.02144 0.04614 0.0
H532 H 0.25401 0.99884 0.04909 0.0
H533 H 0.23665 0.03467 0.01935 0.0
H534 H 0.24075 0.04231 0.06676 0.0
O535 O 0.24931 0.98383 0.12984 0.0
O536 O 0.20801 0.02598 0.13885 0.0
H537 H 0.10025 0.04808 0.08328 0.0
H538 H 0.09131 0.03148 0.03863 0.0
C539 C 0.10151 0.02391 0.06573 0.0
H540 H 0.08428 1.00208 0.07664 0.0
H541 H 0.14816 0.07629 0.15553 0.0
O542 O 0.25333 0.92636 0.06374 0.0
C543 C 0.24115 1.01636 0.13862 0.0
Co544 Co 0.18617 0.33671 0.06926 0.0
Co545 Co 0.15413 0.288 0.1244 0.0
C546 C 0.13555 0.36189 0.13124 0.0
O547 O 0.15938 0.37243 0.10794 0.0
O548 O 0.12492 0.32952 0.13006 0.0
C549 C 0.25664 0.3618 0.0347 0.0
O550 O 0.27239 0.35546 0.06585 0.0
C551 C 0.13175 0.27166 0.19671 0.0
C552 C 0.11752 0.2139 0.1939 0.0
C553 C 0.11902 0.24343 0.21693 0.0
N554 N 0.13742 0.25978 0.1629 0.0
N555 N 0.12826 0.22534 0.16111 0.0
C556 C 0.13955 0.30906 0.20999 0.0
H557 H 0.1592 0.32291 0.19218 0.0
H558 H 0.15018 0.3083 0.23803 0.0
H559 H 0.114 0.32473 0.21037 0.0
C560 C 0.23503 0.27717 0.08885 0.0
N561 N 0.21411 0.30538 0.09813 0.0
N562 N 0.20329 0.30048 0.1315 0.0
C563 C 0.22326 0.27417 0.14616 0.0
C564 C 0.24098 0.25612 0.11906 0.0
C565 C 0.23966 0.26434 0.0512 0.0
H566 H 0.23672 0.28695 0.03181 0.0
H567 H 0.26644 0.25111 0.04917 0.0
H568 H 0.21904 0.24349 0.04505 0.0
O569 O 0.15595 0.30194 0.03654 0.0
O570 O 0.14692 0.2598 0.07785 0.0
H571 H 0.2025 0.23771 0.18559 0.0
H572 H 0.24717 0.25427 0.1945 0.0
C573 C 0.22008 0.26187 0.18432 0.0
H574 H 0.2092 0.28371 0.20155 0.0
H575 H 0.13013 0.20956 0.13782 0.0
O576 O 0.22209 0.35941 0.03248 0.0
C577 C 0.14715 0.26942 0.04471 0.0
Co578 Co 0.68622 0.19907 0.96656 0.0
Co579 Co 0.65421 0.24781 0.91144 0.0
C580 C 0.63557 0.17394 0.90457 0.0
O581 O 0.6594 0.16337 0.92788 0.0
O582 O 0.62497 0.20631 0.90576 0.0
C583 C 0.75667 0.17397 1.00113 0.0
O584 O 0.77242 0.1803 0.96998 0.0
C585 C 0.63171 0.26425 0.83918 0.0
C586 C 0.6175 0.32199 0.8421 0.0
C587 C 0.61885 0.29248 0.81903 0.0
N588 N 0.63749 0.27608 0.87298 0.0
N589 N 0.62835 0.31052 0.87484 0.0
C590 C 0.63947 0.22686 0.82582 0.0
H591 H 0.65912 0.21296 0.84359 0.0
H592 H 0.65008 0.22767 0.79778 0.0
H593 H 0.61389 0.21122 0.82543 0.0
C594 C 0.73517 0.25855 0.9469 0.0
N595 N 0.71417 0.23038 0.93768 0.0
N596 N 0.70335 0.23527 0.90431 0.0
C597 C 0.72338 0.26151 0.88961 0.0
C598 C 0.74121 0.27955 0.91666 0.0
C599 C 0.7398 0.27142 0.98454 0.0
H600 H 0.73682 0.24884 1.00395 0.0
H601 H 0.7666 0.28462 0.98657 0.0
H602 H 0.7192 0.2923 0.99065 0.0
O603 O 0.65602 0.23384 0.9993 0.0
O604 O 0.64704 0.276 0.958 0.0
H605 H 0.70258 0.29796 0.85021 0.0
H606 H 0.74723 0.28139 0.84124 0.0
C607 C 0.72015 0.27381 0.85146 0.0
H608 H 0.70924 0.25196 0.83425 0.0
H609 H 0.63031 0.32628 0.89814 0.0
O610 O 0.72212 0.17636 1.00334 0.0
C611 C 0.64726 0.26638 0.99114 0.0
Co612 Co 0.08674 0.4362 0.21656 0.0
Co613 Co 0.038 0.40421 0.16142 0.0
C614 C 0.11188 0.38556 0.15457 0.0
O615 O 0.12244 0.40938 0.17788 0.0
O616 O 0.07951 0.37497 0.15572 0.0
C617 C 0.11186 0.50664 0.25113 0.0
O618 O 0.10553 0.5224 0.21998 0.0
C619 C 0.02159 0.38174 0.08915 0.0
C620 C 0.96385 0.36749 0.09206 0.0
C621 C 0.99337 0.36887 0.069 0.0
N622 N 1.00974 0.3875 0.12295 0.0
N623 N 0.97531 0.37834 0.12481 0.0
C624 C 0.05898 0.38951 0.0758 0.0
H625 H 0.07287 0.40916 0.09359 0.0
H626 H 0.05817 0.40014 0.04777 0.0
H627 H 0.07462 0.36394 0.0754 0.0
C628 C 0.02725 0.48514 0.19691 0.0
N629 N 0.05543 0.46416 0.18768 0.0
N630 N 0.05054 0.45335 0.15431 0.0
C631 C 0.0243 0.47338 0.13962 0.0
C632 C 1.00626 0.4912 0.16668 0.0
C633 C 1.01439 0.48976 0.23456 0.0
H634 H 0.03697 0.48676 0.25397 0.0
H635 H 1.00119 0.51656 0.23661 0.0
H636 H 0.9935 0.46916 0.24066 0.0
O637 O 0.05196 0.40599 0.24929 0.0
O638 O 1.00982 0.39701 0.20798 0.0
H639 H 0.98784 0.45259 0.10021 0.0
H640 H 1.0044 0.49725 0.09126 0.0
C641 C 1.012 0.47016 0.10147 0.0
H642 H 0.03384 0.45927 0.08425 0.0
H643 H 0.95955 0.38028 0.1481 0.0
O644 O 0.10946 0.47209 0.25334 0.0
C645 C 0.01943 0.39722 0.24112 0.0
Co646 Co 0.84959 0.83675 0.46657 0.0
Co647 Co 0.8816 0.78801 0.41144 0.0
C648 C 0.90024 0.86188 0.40458 0.0
O649 O 0.87642 0.87245 0.42789 0.0
O650 O 0.91085 0.82951 0.40577 0.0
C651 C 0.77914 0.86184 0.50113 0.0
O652 O 0.76339 0.85551 0.46998 0.0
C653 C 0.9041 0.77158 0.33918 0.0
C654 C 0.91832 0.71383 0.3421 0.0
C655 C 0.91697 0.74335 0.31903 0.0
N656 N 0.89832 0.75974 0.37298 0.0
N657 N 0.90747 0.7253 0.37484 0.0
C658 C 0.89635 0.80897 0.32582 0.0
H659 H 0.8767 0.82287 0.34359 0.0
H660 H 0.88574 0.80816 0.29778 0.0
H661 H 0.92192 0.82461 0.32543 0.0
C662 C 0.80065 0.77727 0.4469 0.0
N663 N 0.82164 0.80544 0.43768 0.0
N664 N 0.83247 0.80056 0.40431 0.0
C665 C 0.81244 0.77432 0.38961 0.0
C666 C 0.7946 0.75627 0.41666 0.0
C667 C 0.79601 0.7644 0.48454 0.0
H668 H 0.79899 0.78698 0.50395 0.0
H669 H 0.76922 0.75119 0.48657 0.0
H670 H 0.81662 0.74352 0.49065 0.0
O671 O 0.87979 0.80197 0.4993 0.0
O672 O 0.88878 0.75982 0.45801 0.0
H673 H 0.83324 0.73786 0.3502 0.0
H674 H 0.78858 0.75443 0.34124 0.0
C675 C 0.81567 0.76202 0.35146 0.0
H676 H 0.82658 0.78386 0.33425 0.0
H677 H 0.90551 0.70955 0.39814 0.0
O678 O 0.81369 0.85946 0.50334 0.0
C679 C 0.88856 0.76944 0.49114 0.0
Co680 Co 0.94911 0.09963 0.21657 0.0
Co681 Co 0.99783 0.13167 0.16144 0.0
C682 C 0.92394 0.15025 0.15459 0.0
O683 O 0.91339 0.12642 0.17789 0.0
O684 O 0.9563 0.16088 0.15578 0.0
C685 C 0.92402 0.02917 0.25114 0.0
O686 O 0.93036 1.01342 0.21998 0.0
C687 C 1.01417 0.15404 0.08913 0.0
C688 C 0.07193 0.16827 0.09193 0.0
C689 C 0.04239 0.16677 0.06891 0.0
N690 N 0.02605 0.14838 0.12294 0.0
N691 N 0.06049 0.15754 0.12473 0.0
C692 C 0.97676 0.14624 0.07584 0.0
H693 H 0.96291 0.1266 0.09365 0.0
H694 H 0.97753 0.13561 0.04781 0.0
H695 H 0.9611 0.1718 0.07546 0.0
C696 C 1.00865 0.05078 0.19698 0.0
N697 N 0.98044 0.0717 0.18771 0.0
N698 N 0.98534 0.08251 0.15433 0.0
C699 C 1.01165 0.06254 0.13967 0.0
C700 C 0.0297 0.04483 0.16678 0.0
C701 C 0.02148 0.04615 0.23464 0.0
H702 H 0.99887 0.0491 0.25403 0.0
H703 H 0.03472 0.01937 0.23667 0.0
H704 H 0.04233 0.06678 0.24078 0.0
O705 O 0.98387 0.12986 0.24929 0.0
O706 O 0.02602 0.13888 0.20799 0.0
H707 H 0.04811 0.08329 0.10024 0.0
H708 H 0.03154 0.03862 0.09134 0.0
C709 C 0.02395 0.06572 0.10152 0.0
H710 H 1.00211 0.07659 0.08428 0.0
H711 H 0.07627 0.15566 0.14802 0.0
O712 O 0.92641 0.06372 0.25335 0.0
C713 C 1.0164 0.13866 0.24113 0.0
Co714 Co 0.34964 0.69911 0.56927 0.0
Co715 Co 0.38168 0.74783 0.6244 0.0
C716 C 0.40026 0.67394 0.63125 0.0
O717 O 0.37643 0.66339 0.60795 0.0
O718 O 0.41089 0.70631 0.63005 0.0
C719 C 0.27917 0.67402 0.53471 0.0
O720 O 0.26343 0.68036 0.56586 0.0
C721 C 0.40406 0.76416 0.69671 0.0
C722 C 0.41831 0.82192 0.69391 0.0
C723 C 0.4168 0.79239 0.71693 0.0
N724 N 0.39839 0.77605 0.66291 0.0
N725 N 0.40756 0.81048 0.66111 0.0
C726 C 0.39625 0.72676 0.71 0.0
H727 H 0.37661 0.71291 0.69218 0.0
H728 H 0.38561 0.72753 0.73803 0.0
H729 H 0.42181 0.7111 0.71039 0.0
C730 C 0.30078 0.75865 0.58886 0.0
N731 N 0.32171 0.73044 0.59813 0.0
N732 N 0.33252 0.73534 0.63151 0.0
C733 C 0.31255 0.76165 0.64617 0.0
C734 C 0.29483 0.7797 0.61907 0.0
C735 C 0.29615 0.77148 0.55121 0.0
H736 H 0.2991 0.74887 0.53181 0.0
H737 H 0.26937 0.78471 0.54918 0.0
H738 H 0.31678 0.79233 0.54506 0.0
O739 O 0.37987 0.73388 0.53655 0.0
O740 O 0.38888 0.77603 0.57785 0.0
H741 H 0.33331 0.79811 0.6856 0.0
H742 H 0.28864 0.78155 0.6945 0.0
C743 C 0.31574 0.77395 0.68432 0.0
H744 H 0.32661 0.75211 0.70156 0.0
H745 H 0.40569 0.82627 0.63783 0.0
O746 O 0.31373 0.67641 0.53249 0.0
C747 C 0.38866 0.7664 0.54471 0.0
Co748 Co 0.08675 0.59961 0.31928 0.0
Co749 Co 0.03801 0.63161 0.3744 0.0
C750 C 0.11188 0.65025 0.38127 0.0
O751 O 0.12245 0.62643 0.35795 0.0
O752 O 0.07951 0.66085 0.38008 0.0
C753 C 0.11186 0.52916 0.28472 0.0
O754 O 0.10553 0.5134 0.31586 0.0
C755 C 0.02158 0.6541 0.44666 0.0
C756 C 0.96383 0.66833 0.44374 0.0
C757 C 0.99335 0.66697 0.46681 0.0
N758 N 1.00974 0.64832 0.41286 0.0
N759 N 0.9753 0.65747 0.411 0.0
C760 C 0.05896 0.64634 0.46002 0.0
H761 H 0.07286 0.62669 0.44225 0.0
H762 H 0.05815 0.63573 0.48806 0.0
H763 H 0.0746 0.67191 0.46042 0.0
C764 C 0.02727 0.55066 0.33893 0.0
N765 N 0.05544 0.57165 0.34816 0.0
N766 N 0.05055 0.58247 0.38152 0.0
C767 C 0.02431 0.56244 0.39622 0.0
C768 C 1.00627 0.54461 0.36916 0.0
C769 C 1.0144 0.54602 0.30129 0.0
H770 H 0.03699 0.54903 0.28188 0.0
H771 H 1.00122 0.51922 0.29925 0.0
H772 H 0.99351 0.56662 0.29518 0.0
O773 O 0.05197 0.6298 0.28654 0.0
O774 O 1.00982 0.63879 0.32784 0.0
H775 H 0.98785 0.58324 0.43562 0.0
H776 H 1.00442 0.53858 0.44459 0.0
C777 C 1.01201 0.56566 0.43437 0.0
H778 H 0.03385 0.57658 0.45159 0.0
H779 H 0.95955 0.65552 0.3877 0.0
O780 O 0.10947 0.56371 0.2825 0.0
C781 C 0.01944 0.63857 0.2947 0.0
Co782 Co 0.44908 0.43623 0.81928 0.0
Co783 Co 0.49782 0.40422 0.8744 0.0
C784 C 0.42394 0.38558 0.88127 0.0
O785 O 0.41338 0.4094 0.85795 0.0
O786 O 0.45631 0.37497 0.88008 0.0
C787 C 0.42398 0.50669 0.78472 0.0
O788 O 0.43032 0.52243 0.81587 0.0
C789 C 0.51425 0.38171 0.94666 0.0
C790 C 0.572 0.3675 0.94374 0.0
C791 C 0.54248 0.36885 0.96681 0.0
N792 N 0.52609 0.38749 0.91286 0.0
N793 N 0.56052 0.37835 0.911 0.0
C794 C 0.47686 0.38947 0.96002 0.0
H795 H 0.46296 0.40912 0.94225 0.0
H796 H 0.47767 0.40008 0.98807 0.0
H797 H 0.46122 0.3639 0.96041 0.0
C798 C 0.50856 0.48517 0.83894 0.0
N799 N 0.48039 0.46418 0.84816 0.0
N800 N 0.48527 0.45335 0.88153 0.0
C801 C 0.51151 0.47338 0.89623 0.0
C802 C 0.52956 0.49121 0.86918 0.0
C803 C 0.52143 0.48981 0.8013 0.0
H804 H 0.49885 0.48683 0.78189 0.0
H805 H 0.53464 0.5166 0.79928 0.0
H806 H 0.54231 0.4692 0.79519 0.0
O807 O 0.48385 0.40603 0.78654 0.0
O808 O 0.526 0.39704 0.82784 0.0
H809 H 0.54797 0.45258 0.93564 0.0
H810 H 0.5314 0.49723 0.9446 0.0
C811 C 0.52381 0.47015 0.93438 0.0
H812 H 0.50197 0.45924 0.9516 0.0
H813 H 0.57628 0.38031 0.8877 0.0
O814 O 0.42637 0.47213 0.78251 0.0
C815 C 0.51638 0.39726 0.7947 0.0
Co816 Co 0.56928 0.68622 0.83676 0.0
Co817 Co 0.62441 0.65423 0.78802 0.0
C818 C 0.63126 0.63557 0.86189 0.0
O819 O 0.60795 0.65939 0.87246 0.0
O820 O 0.63008 0.62497 0.82952 0.0
C821 C 0.53471 0.75665 0.86188 0.0
O822 O 0.56585 0.77242 0.85556 0.0
C823 C 0.69667 0.63174 0.77159 0.0
C824 C 0.69375 0.61751 0.71385 0.0
C825 C 0.71681 0.61887 0.74336 0.0
N826 N 0.66287 0.63751 0.75975 0.0
N827 N 0.66101 0.62836 0.72531 0.0
C828 C 0.71002 0.6395 0.80898 0.0
H829 H 0.69224 0.65914 0.82288 0.0
H830 H 0.73806 0.65012 0.80817 0.0
H831 H 0.71042 0.61392 0.82462 0.0
C832 C 0.58894 0.73518 0.77729 0.0
N833 N 0.59816 0.71418 0.80546 0.0
N834 N 0.63153 0.70336 0.80057 0.0
C835 C 0.64622 0.72339 0.77433 0.0
C836 C 0.61917 0.74123 0.75629 0.0
C837 C 0.5513 0.73981 0.76443 0.0
H838 H 0.53188 0.73679 0.78701 0.0
H839 H 0.54925 0.76662 0.75126 0.0
H840 H 0.54519 0.71923 0.74352 0.0
O841 O 0.53654 0.65603 0.80197 0.0
O842 O 0.57785 0.64705 0.75982 0.0
H843 H 0.68562 0.70259 0.73786 0.0
H844 H 0.69459 0.74725 0.75442 0.0
C845 C 0.68437 0.72017 0.76202 0.0
H846 H 0.70159 0.70926 0.78386 0.0
H847 H 0.63771 0.63032 0.70955 0.0
O848 O 0.5325 0.7221 0.85948 0.0
C849 C 0.54471 0.64727 0.76944 0.0
Co850 Co 0.59964 0.31925 0.08674 0.0
Co851 Co 0.63164 0.37439 0.03801 0.0
C852 C 0.65025 0.38126 0.11191 0.0
O853 O 0.62645 0.35792 0.12245 0.0
O854 O 0.66084 0.38013 0.07953 0.0
C855 C 0.52919 0.28469 0.11185 0.0
O856 O 0.51344 0.31583 0.10551 0.0
C857 C 0.65409 0.44666 0.02157 0.0
C858 C 0.66831 0.44374 0.96382 0.0
C859 C 0.66693 0.46681 0.99333 0.0
N860 N 0.64834 0.41285 1.00973 0.0
N861 N 0.65748 0.41099 0.9753 0.0
C862 C 0.64632 0.46001 0.05896 0.0
H863 H 0.62665 0.44225 0.07284 0.0
H864 H 0.63572 0.48806 0.05815 0.0
H865 H 0.67188 0.46038 0.07461 0.0
C866 C 0.55077 0.33882 0.02719 0.0
N867 N 0.57169 0.3481 0.05541 0.0
N868 N 0.58249 0.38149 0.05051 0.0
C869 C 0.56251 0.39614 0.0242 0.0
C870 C 0.5448 0.36903 1.00615 0.0
C871 C 0.54616 0.30117 1.01436 0.0
H872 H 0.54915 0.28178 0.03697 0.0
H873 H 0.51938 0.29911 1.00115 0.0
H874 H 0.56678 0.29504 0.99349 0.0
O875 O 0.62986 0.28651 0.05198 0.0
O876 O 0.63887 0.32782 1.00984 0.0
H877 H 0.58325 0.43555 0.98772 0.0
H878 H 0.5386 0.44447 1.00431 0.0
C879 C 0.5657 0.43429 1.01189 0.0
H880 H 0.5766 0.45152 0.03372 0.0
H881 H 0.65554 0.38769 0.95954 0.0
O882 O 0.56375 0.28247 0.10946 0.0
C883 C 0.63865 0.29469 0.01946 0.0
Co884 Co 0.96656 0.34963 0.33674 0.0
Co885 Co 0.91143 0.38162 0.288 0.0
C886 C 0.90457 0.40026 0.36188 0.0
O887 O 0.92788 0.37644 0.37244 0.0
O888 O 0.90575 0.41087 0.32951 0.0
C889 C 1.00112 0.27919 0.36186 0.0
O890 O 0.96998 0.26343 0.35554 0.0
C891 C 0.83916 0.40408 0.27159 0.0
C892 C 0.84206 0.41831 0.21385 0.0
C893 C 0.819 0.41694 0.24337 0.0
N894 N 0.87296 0.39832 0.25974 0.0
N895 N 0.87481 0.40748 0.22531 0.0
C896 C 0.82582 0.39631 0.30898 0.0
H897 H 0.8436 0.37667 0.32288 0.0
H898 H 0.79778 0.38569 0.30818 0.0
H899 H 0.82542 0.42188 0.32463 0.0
C900 C 0.94691 0.30068 0.27726 0.0
N901 N 0.93769 0.32166 0.30543 0.0
N902 N 0.90432 0.33248 0.30055 0.0
C903 C 0.88963 0.31245 0.2743 0.0
C904 C 0.91668 0.29462 0.25626 0.0
C905 C 0.98456 0.29606 0.26439 0.0
H906 H 1.00397 0.29907 0.28697 0.0
H907 H 0.98661 0.26926 0.2512 0.0
H908 H 0.99065 0.31666 0.24349 0.0
O909 O 0.99929 0.37983 0.30196 0.0
O910 O 0.95799 0.38881 0.25981 0.0
H911 H 0.85021 0.33323 0.23785 0.0
H912 H 0.84126 0.28857 0.25441 0.0
C913 C 0.85147 0.31566 0.26201 0.0
H914 H 0.83425 0.32656 0.28385 0.0
H915 H 0.8981 0.40553 0.20954 0.0
O916 O 1.00334 0.31374 0.35946 0.0
C917 C 0.99112 0.3886 0.26943 0.0
Co918 Co 0.93618 0.71657 0.58674 0.0
Co919 Co 0.90419 0.66143 0.53801 0.0
C920 C 0.88558 0.65455 0.6119 0.0
O921 O 0.90938 0.67789 0.62245 0.0
O922 O 0.87498 0.65569 0.57952 0.0
C923 C 1.00663 0.75113 0.61185 0.0
O924 O 0.02238 0.71998 0.60551 0.0
C925 C 0.88174 0.58916 0.52156 0.0
C926 C 0.86753 0.59208 0.46381 0.0
C927 C 0.8689 0.56901 0.49333 0.0
N928 N 0.88749 0.62297 0.50973 0.0
N929 N 0.87835 0.62483 0.47529 0.0
C930 C 0.88951 0.5758 0.55895 0.0
H931 H 0.90918 0.59357 0.57284 0.0
H932 H 0.90011 0.54776 0.55814 0.0
H933 H 0.86395 0.57543 0.5746 0.0
C934 C 0.98505 0.697 0.52719 0.0
N935 N 0.96413 0.68772 0.5554 0.0
N936 N 0.95334 0.65433 0.55051 0.0
C937 C 0.97332 0.63968 0.5242 0.0
C938 C 0.99102 0.66679 0.50615 0.0
C939 C 0.98966 0.73465 0.51436 0.0
H940 H 0.98667 0.75404 0.53697 0.0
H941 H 1.01644 0.73671 0.50115 0.0
H942 H 0.96904 0.74078 0.49349 0.0
O943 O 0.90596 0.7493 0.55198 0.0
O944 O 0.89695 0.708 0.50984 0.0
H945 H 0.95258 0.60027 0.48771 0.0
H946 H 0.99723 0.59135 0.50431 0.0
C947 C 0.97013 0.60153 0.51188 0.0
H948 H 0.95923 0.5843 0.53371 0.0
H949 H 0.88029 0.64813 0.45954 0.0
O950 O 0.97207 0.75334 0.60946 0.0
C951 C 0.89717 0.74113 0.51946 0.0
Co952 Co 0.56925 0.34964 0.6991 0.0
Co953 Co 0.62439 0.38163 0.74783 0.0
C954 C 0.63127 0.40024 0.67393 0.0
O955 O 0.60793 0.37644 0.66339 0.0
O956 O 0.63013 0.41084 0.70631 0.0
C957 C 0.53469 0.2792 0.67399 0.0
O958 O 0.56583 0.26344 0.68033 0.0
C959 C 0.69666 0.40408 0.76427 0.0
C960 C 0.69375 0.41829 0.82202 0.0
C961 C 0.71681 0.41692 0.79251 0.0
N962 N 0.66285 0.39833 0.77611 0.0
N963 N 0.661 0.40747 0.81055 0.0
C964 C 0.71002 0.39631 0.72689 0.0
H965 H 0.69225 0.37664 0.713 0.0
H966 H 0.73806 0.38571 0.72769 0.0
H967 H 0.71039 0.42187 0.71123 0.0
C968 C 0.58882 0.30077 0.75865 0.0
N969 N 0.5981 0.32169 0.73044 0.0
N970 N 0.63149 0.33248 0.73533 0.0
C971 C 0.64614 0.3125 0.76164 0.0
C972 C 0.61903 0.2948 0.77969 0.0
C973 C 0.55117 0.29617 0.77148 0.0
H974 H 0.53178 0.29915 0.74887 0.0
H975 H 0.54911 0.26938 0.78469 0.0
H976 H 0.54504 0.31678 0.79235 0.0
O977 O 0.53652 0.37987 0.73386 0.0
O978 O 0.57783 0.38887 0.776 0.0
H979 H 0.68555 0.33324 0.79812 0.0
H980 H 0.69447 0.28859 0.78153 0.0
C981 C 0.68429 0.31569 0.77395 0.0
H982 H 0.70152 0.32659 0.75212 0.0
H983 H 0.6377 0.40553 0.8263 0.0
O984 O 0.53248 0.31375 0.67638 0.0
C985 C 0.54469 0.38865 0.76638 0.0
Co986 Co 0.9362 0.31926 0.94908 0.0
Co987 Co 0.90422 0.37438 0.99783 0.0
C988 C 0.88558 0.38126 0.92395 0.0
O989 O 0.90939 0.35794 0.91339 0.0
O990 O 0.87498 0.38009 0.95632 0.0
C991 C 1.00665 0.28469 0.92397 0.0
O992 O 0.02241 0.31583 0.93031 0.0
C993 C 0.88174 0.44665 1.01427 0.0
C994 C 0.86752 0.44372 0.07202 0.0
C995 C 0.86889 0.46679 0.04251 0.0
N996 N 0.8875 0.41284 0.0261 0.0
N997 N 0.87836 0.41098 0.06054 0.0
C998 C 0.88951 0.46001 0.97689 0.0
H999 H 0.90917 0.44224 0.96299 0.0
H1000 H 0.90012 0.48805 0.9777 0.0
H1001 H 0.86394 0.4604 0.96124 0.0
C1002 C 0.98509 0.33885 1.00861 0.0
N1003 N 0.96416 0.34812 0.98041 0.0
N1004 N 0.95336 0.3815 0.98531 0.0
C1005 C 0.97334 0.39616 1.01161 0.0
C1006 C 0.99106 0.36905 0.02966 0.0
C1007 C 0.98971 0.30119 0.02144 0.0
H1008 H 0.98671 0.2818 0.99883 0.0
H1009 H 1.01651 0.29914 0.03463 0.0
H1010 H 0.96912 0.29507 0.04233 0.0
O1011 O 0.906 0.28652 0.98386 0.0
O1012 O 0.89702 0.32782 0.02601 0.0
H1013 H 0.95258 0.43556 0.0481 0.0
H1014 H 0.99724 0.4445 0.03151 0.0
C1015 C 0.97014 0.4343 0.02393 0.0
H1016 H 0.95924 0.45154 1.0021 0.0
H1017 H 0.88031 0.38768 0.0763 0.0
O1018 O 0.97209 0.28249 0.92636 0.0
C1019 C 0.89723 0.29469 1.01639 0.0
Co1020 Co 0.96656 0.68618 0.1991 0.0
Co1021 Co 0.91143 0.6542 0.24784 0.0
C1022 C 0.90455 0.63558 0.17395 0.0
O1023 O 0.92788 0.65938 0.16339 0.0
O1024 O 0.9057 0.62498 0.20633 0.0
C1025 C 1.00113 0.75663 0.17399 0.0
O1026 O 0.96998 0.77239 0.18033 0.0
C1027 C 0.83916 0.63175 0.26428 0.0
C1028 C 0.84207 0.61753 0.32203 0.0
C1029 C 0.81901 0.61891 0.29251 0.0
N1030 N 0.87297 0.63749 0.27611 0.0
N1031 N 0.87482 0.62835 0.31055 0.0
C1032 C 0.82581 0.63952 0.22689 0.0
H1033 H 0.84358 0.65918 0.213 0.0
H1034 H 0.79776 0.65013 0.2277 0.0
H1035 H 0.82542 0.61396 0.21124 0.0
C1036 C 0.947 0.73506 0.25865 0.0
N1037 N 0.93771 0.71414 0.23044 0.0
N1038 N 0.90433 0.70335 0.23533 0.0
C1039 C 0.88968 0.72332 0.26164 0.0
C1040 C 0.91679 0.74103 0.27969 0.0
C1041 C 0.98465 0.73966 0.27148 0.0
H1042 H 1.00404 0.73667 0.24887 0.0
H1043 H 0.98671 0.76645 0.28469 0.0
H1044 H 0.99077 0.71905 0.29235 0.0
O1045 O 0.9993 0.65596 0.23386 0.0
O1046 O 0.95799 0.64697 0.27601 0.0
H1047 H 0.85026 0.70259 0.29812 0.0
H1048 H 0.84134 0.74724 0.28153 0.0
C1049 C 0.85153 0.72014 0.27395 0.0
H1050 H 0.83429 0.70924 0.25212 0.0
H1051 H 0.89812 0.63029 0.32631 0.0
O1052 O 1.00334 0.72208 0.17638 0.0
C1053 C 0.99113 0.64718 0.26639 0.0
Co1054 Co 0.5996 0.71655 0.44909 0.0
Co1055 Co 0.63159 0.66142 0.49783 0.0
C1056 C 0.65025 0.65457 0.42395 0.0
O1057 O 0.62643 0.67788 0.41339 0.0
O1058 O 0.66085 0.65575 0.45633 0.0
C1059 C 0.52917 0.75112 0.42396 0.0
O1060 O 0.5134 0.71997 0.43029 0.0
C1061 C 0.65408 0.58916 0.51425 0.0
C1062 C 0.66831 0.59207 0.57199 0.0
C1063 C 0.66694 0.56901 0.54247 0.0
N1064 N 0.64831 0.62296 0.52609 0.0
N1065 N 0.65746 0.62481 0.56053 0.0
C1066 C 0.64632 0.57581 0.47686 0.0
H1067 H 0.62667 0.59359 0.46296 0.0
H1068 H 0.6357 0.54777 0.47766 0.0
H1069 H 0.67189 0.57541 0.46122 0.0
C1070 C 0.55064 0.69689 0.50855 0.0
N1071 N 0.57164 0.68767 0.48038 0.0
N1072 N 0.58246 0.6543 0.48527 0.0
C1073 C 0.56243 0.63961 0.51151 0.0
C1074 C 0.54459 0.66666 0.52955 0.0
C1075 C 0.54601 0.73453 0.52142 0.0
H1076 H 0.54903 0.75395 0.49884 0.0
H1077 H 0.5192 0.73658 0.53459 0.0
H1078 H 0.5666 0.74064 0.54232 0.0
O1079 O 0.62979 0.74928 0.48387 0.0
O1080 O 0.63877 0.70798 0.52603 0.0
H1081 H 0.58323 0.6002 0.54798 0.0
H1082 H 0.53857 0.59124 0.53142 0.0
C1083 C 0.56565 0.60146 0.52382 0.0
H1084 H 0.57656 0.58423 0.50198 0.0
H1085 H 0.6555 0.64811 0.57629 0.0
O1086 O 0.56372 0.75333 0.42636 0.0
C1087 C 0.63855 0.74112 0.51641 0.0
Co1088 Co 0.83674 0.56925 0.68621 0.0
Co1089 Co 0.788 0.62439 0.6542 0.0
C1090 C 0.8619 0.63125 0.63558 0.0
O1091 O 0.87245 0.60792 0.6594 0.0
O1092 O 0.82952 0.63012 0.62499 0.0
C1093 C 0.86184 0.53469 0.75667 0.0
O1094 O 0.85549 0.56583 0.77242 0.0
C1095 C 0.77155 0.69665 0.63172 0.0
C1096 C 0.7138 0.69372 0.61751 0.0
C1097 C 0.74331 0.71679 0.61887 0.0
N1098 N 0.75972 0.66284 0.63749 0.0
N1099 N 0.72528 0.66098 0.62835 0.0
C1100 C 0.80894 0.71001 0.63948 0.0
H1101 H 0.82283 0.69225 0.65915 0.0
H1102 H 0.80813 0.73806 0.65007 0.0
H1103 H 0.82459 0.71037 0.61392 0.0
C1104 C 0.7772 0.58885 0.73509 0.0
N1105 N 0.80541 0.59812 0.71416 0.0
N1106 N 0.80051 0.6315 0.70335 0.0
C1107 C 0.77421 0.64616 0.72333 0.0
C1108 C 0.75616 0.61905 0.74105 0.0
C1109 C 0.76437 0.55119 0.73971 0.0
H1110 H 0.78697 0.5318 0.73674 0.0
H1111 H 0.75115 0.54915 0.76649 0.0
H1112 H 0.7435 0.54506 0.71909 0.0
O1113 O 0.80198 0.53651 0.656 0.0
O1114 O 0.75984 0.57781 0.64699 0.0
H1115 H 0.73772 0.68556 0.70257 0.0
H1116 H 0.75432 0.6945 0.74722 0.0
C1117 C 0.76189 0.6843 0.72013 0.0
H1118 H 0.78372 0.70153 0.70922 0.0
H1119 H 0.70953 0.63767 0.63031 0.0
O1120 O 0.85945 0.53248 0.72211 0.0
C1121 C 0.76946 0.54468 0.64721 0.0
Co1122 Co 0.71655 0.58673 0.9362 0.0
Co1123 Co 0.66143 0.538 0.90416 0.0
C1124 C 0.65459 0.61189 0.88555 0.0
O1125 O 0.67789 0.62244 0.9094 0.0
O1126 O 0.65577 0.57953 0.87493 0.0
C1127 C 0.75112 0.61182 1.00666 0.0
O1128 O 0.71997 0.60548 0.02241 0.0
C1129 C 0.58912 0.52166 0.88177 0.0
C1130 C 0.59194 0.46389 0.86755 0.0
C1131 C 0.56891 0.49342 0.86904 0.0
N1132 N 0.62293 0.50978 0.88744 0.0
N1133 N 0.62473 0.47534 0.87829 0.0
C1134 C 0.57583 0.55906 0.88955 0.0
H1135 H 0.59364 0.57292 0.9092 0.0
H1136 H 0.5478 0.5583 0.90018 0.0
H1137 H 0.57546 0.57472 0.86399 0.0
C1138 C 0.69695 0.5272 0.98507 0.0
N1139 N 0.68768 0.5554 0.96414 0.0
N1140 N 0.6543 0.5505 0.95331 0.0
C1141 C 0.63964 0.52419 0.97328 0.0
C1142 C 0.66674 0.50615 0.99102 0.0
C1143 C 0.7346 0.51438 0.98971 0.0
H1144 H 0.75399 0.53698 0.98675 0.0
H1145 H 0.73663 0.50117 1.01651 0.0
H1146 H 0.74075 0.4935 0.96911 0.0
O1147 O 0.74928 0.55195 0.90599 0.0
O1148 O 0.70798 0.5098 0.89697 0.0
H1149 H 0.60023 0.48772 0.95252 0.0
H1150 H 0.59131 0.50428 0.99719 0.0
C1151 C 0.6015 0.51188 0.97009 0.0
H1152 H 0.58426 0.53371 0.95921 0.0
H1153 H 0.64801 0.45956 0.88018 0.0
O1154 O 0.75333 0.60943 0.97211 0.0
C1155 C 0.74112 0.51942 0.89721 0.0
Co1156 Co 0.69908 0.46655 0.18623 0.0
Co1157 Co 0.74782 0.41142 0.15422 0.0
C1158 C 0.67393 0.40457 0.13559 0.0
O1159 O 0.66338 0.42789 0.15941 0.0
O1160 O 0.70631 0.40569 0.125 0.0
C1161 C 0.67398 0.50113 0.25668 0.0
O1162 O 0.68033 0.46998 0.27243 0.0
C1163 C 0.76426 0.33916 0.13174 0.0
C1164 C 0.82201 0.34208 0.11752 0.0
C1165 C 0.79249 0.31901 0.11889 0.0
N1166 N 0.7761 0.37296 0.13751 0.0
N1167 N 0.81053 0.37482 0.12836 0.0
C1168 C 0.72688 0.3258 0.13951 0.0
H1169 H 0.71298 0.34356 0.15917 0.0
H1170 H 0.72768 0.29775 0.1501 0.0
H1171 H 0.71122 0.32543 0.11394 0.0
C1172 C 0.75861 0.44696 0.23511 0.0
N1173 N 0.73041 0.43768 0.21418 0.0
N1174 N 0.73531 0.40431 0.20337 0.0
C1175 C 0.76161 0.38965 0.22335 0.0
C1176 C 0.77966 0.41675 0.24106 0.0
C1177 C 0.77144 0.48461 0.23973 0.0
H1178 H 0.74883 0.504 0.23675 0.0
H1179 H 0.78465 0.48665 0.26652 0.0
H1180 H 0.79231 0.49075 0.21912 0.0
O1181 O 0.73385 0.49929 0.15602 0.0
O1182 O 0.77599 0.45798 0.14702 0.0
H1183 H 0.7981 0.35025 0.20259 0.0
H1184 H 0.78151 0.34131 0.24724 0.0
C1185 C 0.77393 0.35151 0.22014 0.0
H1186 H 0.75211 0.33427 0.20923 0.0
H1187 H 0.82629 0.39812 0.13031 0.0
O1188 O 0.67637 0.50333 0.22212 0.0
C1189 C 0.76638 0.49112 0.14724 0.0
Co1190 Co 0.81928 0.44909 0.43619 0.0
Co1191 Co 0.8744 0.49782 0.40415 0.0
C1192 C 0.88124 0.42393 0.38554 0.0
O1193 O 0.85795 0.41338 0.40939 0.0
O1194 O 0.88006 0.4563 0.37492 0.0
C1195 C 0.78471 0.42399 0.50664 0.0
O1196 O 0.81586 0.43032 0.5224 0.0
C1197 C 0.94671 0.51416 0.38175 0.0
C1198 C 0.94389 0.57193 0.36753 0.0
C1199 C 0.96692 0.5424 0.36902 0.0
N1200 N 0.9129 0.52604 0.38743 0.0
N1201 N 0.9111 0.56048 0.37828 0.0
C1202 C 0.96 0.47676 0.38954 0.0
H1203 H 0.94219 0.4629 0.40919 0.0
H1204 H 0.98803 0.47753 0.40017 0.0
H1205 H 0.96037 0.4611 0.36398 0.0
C1206 C 0.83889 0.50862 0.48506 0.0
N1207 N 0.84816 0.48041 0.46413 0.0
N1208 N 0.88153 0.48532 0.4533 0.0
C1209 C 0.89619 0.51163 0.47327 0.0
C1210 C 0.86909 0.52967 0.49101 0.0
C1211 C 0.80123 0.52144 0.48971 0.0
H1212 H 0.78184 0.49883 0.48674 0.0
H1213 H 0.79921 0.53465 0.5165 0.0
H1214 H 0.79509 0.54231 0.4691 0.0
O1215 O 0.78655 0.48387 0.40599 0.0
O1216 O 0.82785 0.52602 0.39697 0.0
H1217 H 0.9356 0.5481 0.45251 0.0
H1218 H 0.94452 0.53154 0.49717 0.0
C1219 C 0.93434 0.52394 0.47008 0.0
H1220 H 0.95158 0.50211 0.4592 0.0
H1221 H 0.88782 0.57627 0.38016 0.0
O1222 O 0.7825 0.42638 0.47209 0.0
C1223 C 0.79471 0.5164 0.39721 0.0
Co1224 Co 0.83673 0.46654 0.84964 0.0
Co1225 Co 0.78801 0.41141 0.88168 0.0
C1226 C 0.8619 0.40458 0.90028 0.0
O1227 O 0.87245 0.42788 0.87644 0.0
O1228 O 0.82953 0.40575 0.9109 0.0
C1229 C 0.86184 0.5011 0.77918 0.0
O1230 O 0.85551 0.46996 0.76342 0.0
C1231 C 0.77166 0.33911 0.90408 0.0
C1232 C 0.71389 0.34193 0.91829 0.0
C1233 C 0.74343 0.3189 0.9168 0.0
N1234 N 0.75978 0.37292 0.8984 0.0
N1235 N 0.72534 0.37472 0.90755 0.0
C1236 C 0.80906 0.32582 0.89629 0.0
H1237 H 0.82292 0.34363 0.87664 0.0
H1238 H 0.8083 0.29778 0.88567 0.0
H1239 H 0.82472 0.32545 0.92185 0.0
C1240 C 0.7772 0.44693 0.80077 0.0
N1241 N 0.80541 0.43766 0.8217 0.0
N1242 N 0.80051 0.40429 0.83253 0.0
C1243 C 0.7742 0.38963 0.81256 0.0
C1244 C 0.75615 0.41673 0.79482 0.0
C1245 C 0.76438 0.48458 0.79613 0.0
H1246 H 0.78699 0.50398 0.79909 0.0
H1247 H 0.75117 0.48661 0.76934 0.0
H1248 H 0.74351 0.49073 0.81673 0.0
O1249 O 0.80196 0.49927 0.87984 0.0
O1250 O 0.75981 0.45797 0.88887 0.0
H1251 H 0.73772 0.35021 0.83332 0.0
H1252 H 0.75428 0.34129 0.78866 0.0
C1253 C 0.76188 0.35148 0.81575 0.0
H1254 H 0.78372 0.33424 0.82663 0.0
H1255 H 0.70956 0.39801 0.90566 0.0
O1256 O 0.85944 0.50332 0.81373 0.0
C1257 C 0.76943 0.49111 0.88863 0.0
Co1258 Co 0.81926 0.58672 0.09964 0.0
Co1259 Co 0.87439 0.538 0.13168 0.0
C1260 C 0.88123 0.6119 0.15028 0.0
O1261 O 0.85793 0.62244 0.12644 0.0
O1262 O 0.88007 0.57953 0.16089 0.0
C1263 C 0.78471 0.61182 0.02918 0.0
O1264 O 0.81585 0.60548 1.01342 0.0
C1265 C 0.94669 0.52165 0.15408 0.0
C1266 C 0.94387 0.46388 0.16831 0.0
C1267 C 0.96691 0.49342 0.16682 0.0
N1268 N 0.91289 0.50977 0.14841 0.0
N1269 N 0.91109 0.47533 0.15756 0.0
C1270 C 0.95999 0.55905 0.14629 0.0
H1271 H 0.94219 0.57291 0.12664 0.0
H1272 H 0.98803 0.55829 0.13568 0.0
H1273 H 0.96035 0.57471 0.17185 0.0
C1274 C 0.83887 0.52718 0.05078 0.0
N1275 N 0.84814 0.55539 0.07171 0.0
N1276 N 0.88151 0.55049 0.08253 0.0
C1277 C 0.89617 0.52418 0.06256 0.0
C1278 C 0.86907 0.50613 0.04483 0.0
C1279 C 0.80121 0.51436 0.04614 0.0
H1280 H 0.78182 0.53697 0.0491 0.0
H1281 H 0.79918 0.50115 0.01935 0.0
H1282 H 0.79507 0.49349 0.06675 0.0
O1283 O 0.78653 0.55196 0.12985 0.0
O1284 O 0.82783 0.50981 0.13888 0.0
H1285 H 0.93559 0.4877 0.08332 0.0
H1286 H 0.94451 0.50427 0.03866 0.0
C1287 C 0.93432 0.51186 0.06575 0.0
H1288 H 0.95156 0.5337 0.07664 0.0
H1289 H 0.8878 0.45955 0.15567 0.0
O1290 O 0.78249 0.60943 0.06373 0.0
C1291 C 0.79469 0.51943 0.13865 0.0
Co1292 Co 0.69909 0.56928 0.34964 0.0
Co1293 Co 0.74781 0.62441 0.38168 0.0
C1294 C 0.67392 0.63124 0.40029 0.0
O1295 O 0.66337 0.60795 0.37645 0.0
O1296 O 0.70629 0.63006 0.41092 0.0
C1297 C 0.67398 0.53471 0.27919 0.0
O1298 O 0.68031 0.56586 0.26343 0.0
C1299 C 0.76416 0.69671 0.40408 0.0
C1300 C 0.82193 0.69389 0.41829 0.0
C1301 C 0.79239 0.71692 0.4168 0.0
N1302 N 0.77604 0.6629 0.3984 0.0
N1303 N 0.81048 0.6611 0.40755 0.0
C1304 C 0.72676 0.71 0.39629 0.0
H1305 H 0.7129 0.69219 0.37664 0.0
H1306 H 0.72752 0.73803 0.38567 0.0
H1307 H 0.7111 0.71037 0.42186 0.0
C1308 C 0.75862 0.58889 0.30077 0.0
N1309 N 0.73041 0.59816 0.32171 0.0
N1310 N 0.73531 0.63153 0.33253 0.0
C1311 C 0.76162 0.64619 0.31256 0.0
C1312 C 0.77967 0.6191 0.29483 0.0
C1313 C 0.77143 0.55124 0.29613 0.0
H1314 H 0.74883 0.53185 0.2991 0.0
H1315 H 0.78464 0.54921 0.26933 0.0
H1316 H 0.79231 0.54509 0.31673 0.0
O1317 O 0.73387 0.53655 0.37985 0.0
O1318 O 0.77601 0.57785 0.38886 0.0
H1319 H 0.7981 0.68561 0.33333 0.0
H1320 H 0.78153 0.69453 0.28866 0.0
C1321 C 0.77394 0.68434 0.31575 0.0
H1322 H 0.7521 0.70158 0.32664 0.0
H1323 H 0.82626 0.63782 0.40566 0.0
O1324 O 0.67638 0.53251 0.31374 0.0
C1325 C 0.7664 0.54472 0.38863 0.0
Co1326 Co 0.71657 0.44908 0.59962 0.0
Co1327 Co 0.66143 0.49782 0.63163 0.0
C1328 C 0.65457 0.42392 0.65025 0.0
O1329 O 0.6779 0.41337 0.62644 0.0
O1330 O 0.6557 0.4563 0.66084 0.0
C1331 C 0.75112 0.42399 0.52916 0.0
O1332 O 0.71998 0.43033 0.5134 0.0
C1333 C 0.58918 0.51427 0.65412 0.0
C1334 C 0.59211 0.57202 0.66833 0.0
C1335 C 0.56903 0.54251 0.66697 0.0
N1336 N 0.62298 0.5261 0.64835 0.0
N1337 N 0.62485 0.56054 0.65749 0.0
C1338 C 0.57581 0.47689 0.64635 0.0
H1339 H 0.59357 0.46299 0.62668 0.0
H1340 H 0.54776 0.47769 0.63576 0.0
H1341 H 0.57545 0.46123 0.67192 0.0
C1342 C 0.69697 0.50862 0.55075 0.0
N1343 N 0.6877 0.48041 0.57167 0.0
N1344 N 0.65432 0.48531 0.58248 0.0
C1345 C 0.63966 0.51162 0.56251 0.0
C1346 C 0.66676 0.52967 0.54479 0.0
C1347 C 0.73462 0.52145 0.54612 0.0
H1348 H 0.75401 0.49885 0.54909 0.0
H1349 H 0.73666 0.53467 0.51933 0.0
H1350 H 0.74076 0.54232 0.56674 0.0
O1351 O 0.74931 0.48384 0.62983 0.0
O1352 O 0.70801 0.52598 0.63884 0.0
H1353 H 0.60026 0.54811 0.58326 0.0
H1354 H 0.59132 0.53151 0.53861 0.0
C1355 C 0.60152 0.52394 0.56571 0.0
H1356 H 0.58428 0.50211 0.57662 0.0
H1357 H 0.64815 0.57629 0.65553 0.0
O1358 O 0.75333 0.42637 0.56371 0.0
C1359 C 0.74114 0.51636 0.63861 0.0
Co1360 Co 0.68617 0.83673 0.56928 0.0
Co1361 Co 0.65415 0.788 0.62441 0.0
C1362 C 0.63555 0.86189 0.63127 0.0
O1363 O 0.65938 0.87244 0.60796 0.0
O1364 O 0.62493 0.82952 0.63008 0.0
C1365 C 0.75662 0.86183 0.53471 0.0
O1366 O 0.77238 0.8555 0.56586 0.0
C1367 C 0.63177 0.77166 0.69672 0.0
C1368 C 0.61751 0.71391 0.69391 0.0
C1369 C 0.61902 0.74344 0.71694 0.0
N1370 N 0.63743 0.75978 0.66292 0.0
N1371 N 0.62826 0.72534 0.66112 0.0
C1372 C 0.63959 0.80906 0.71001 0.0
H1373 H 0.65923 0.82291 0.69219 0.0
H1374 H 0.65023 0.80829 0.73804 0.0
H1375 H 0.61403 0.82473 0.71041 0.0
C1376 C 0.73503 0.77718 0.58886 0.0
N1377 N 0.71411 0.80539 0.59814 0.0
N1378 N 0.7033 0.80049 0.63152 0.0
C1379 C 0.72327 0.77418 0.64617 0.0
C1380 C 0.74099 0.75613 0.61906 0.0
C1381 C 0.73965 0.76436 0.5512 0.0
H1382 H 0.73667 0.78697 0.53181 0.0
H1383 H 0.76644 0.75115 0.54915 0.0
H1384 H 0.71904 0.74349 0.54507 0.0
O1385 O 0.65594 0.80196 0.53656 0.0
O1386 O 0.64693 0.7598 0.57786 0.0
H1387 H 0.70252 0.73771 0.6856 0.0
H1388 H 0.7472 0.75427 0.69449 0.0
C1389 C 0.7201 0.76186 0.68432 0.0
H1390 H 0.70923 0.7837 0.70156 0.0
H1391 H 0.63013 0.70956 0.63783 0.0
O1392 O 0.72207 0.85943 0.5325 0.0
C1393 C 0.64715 0.76943 0.54472 0.0
Co1394 Co 0.18618 0.6991 0.46658 0.0
Co1395 Co 0.15413 0.74782 0.41144 0.0
C1396 C 0.13554 0.67393 0.4046 0.0
O1397 O 0.15938 0.66338 0.4279 0.0
O1398 O 0.12492 0.70629 0.40576 0.0
C1399 C 0.25665 0.67402 0.50113 0.0
O1400 O 0.2724 0.68035 0.46998 0.0
C1401 C 0.13176 0.76417 0.33913 0.0
C1402 C 0.11755 0.82193 0.34194 0.0
C1403 C 0.11904 0.7924 0.31891 0.0
N1404 N 0.13742 0.77605 0.37294 0.0
N1405 N 0.12827 0.81049 0.37473 0.0
C1406 C 0.13955 0.72676 0.32584 0.0
H1407 H 0.1592 0.71291 0.34365 0.0
H1408 H 0.15018 0.72752 0.29781 0.0
H1409 H 0.11399 0.7111 0.32547 0.0
C1410 C 0.23503 0.75865 0.44698 0.0
N1411 N 0.21411 0.73044 0.43771 0.0
N1412 N 0.20329 0.73534 0.40433 0.0
C1413 C 0.22326 0.76165 0.38967 0.0
C1414 C 0.24098 0.7797 0.41677 0.0
C1415 C 0.23966 0.77148 0.48463 0.0
H1416 H 0.23672 0.74887 0.50403 0.0
H1417 H 0.26644 0.78471 0.48666 0.0
H1418 H 0.21903 0.79233 0.49078 0.0
O1419 O 0.15595 0.73387 0.4993 0.0
O1420 O 0.14692 0.77601 0.45799 0.0
H1421 H 0.20251 0.79811 0.35024 0.0
H1422 H 0.24718 0.78154 0.34134 0.0
C1423 C 0.22008 0.77396 0.35152 0.0
H1424 H 0.2092 0.75211 0.33428 0.0
H1425 H 0.13015 0.82627 0.39802 0.0
O1426 O 0.22209 0.67641 0.50335 0.0
C1427 C 0.14715 0.76639 0.49113 0.0
Co1428 Co 0.58671 0.93618 0.71658 0.0
Co1429 Co 0.53799 0.90415 0.66144 0.0
C1430 C 0.61188 0.88555 0.6546 0.0
O1431 O 0.62243 0.90939 0.6779 0.0
O1432 O 0.57952 0.87493 0.65578 0.0
C1433 C 0.6118 1.00665 0.75114 0.0
O1434 O 0.60546 0.0224 0.71998 0.0
C1435 C 0.52166 0.88177 0.58913 0.0
C1436 C 0.4639 0.86752 0.59194 0.0
C1437 C 0.49343 0.86902 0.56891 0.0
N1438 N 0.50977 0.88743 0.62294 0.0
N1439 N 0.47533 0.87826 0.62473 0.0
C1440 C 0.55906 0.88957 0.57584 0.0
H1441 H 0.57291 0.90921 0.59366 0.0
H1442 H 0.55829 0.90021 0.54781 0.0
H1443 H 0.57472 0.86401 0.57546 0.0
C1444 C 0.52717 0.98504 0.69698 0.0
N1445 N 0.55538 0.96412 0.68771 0.0
N1446 N 0.55048 0.9533 0.65433 0.0
C1447 C 0.52417 0.97327 0.63967 0.0
C1448 C 0.50612 0.99099 0.66678 0.0
C1449 C 0.51434 0.98967 0.73464 0.0
H1450 H 0.53695 0.98673 0.75403 0.0
H1451 H 0.50111 1.01645 0.73667 0.0
H1452 H 0.49349 0.96904 0.74078 0.0
O1453 O 0.55195 0.90596 0.7493 0.0
O1454 O 0.5098 0.89693 0.70799 0.0
H1455 H 0.48771 0.95251 0.60024 0.0
H1456 H 0.50427 0.99719 0.59134 0.0
C1457 C 0.51186 0.97009 0.60152 0.0
H1458 H 0.53371 0.95921 0.58428 0.0
H1459 H 0.45955 0.88014 0.64802 0.0
O1460 O 0.60941 0.9721 0.75335 0.0
C1461 C 0.51942 0.89716 0.74113 0.0
Co1462 Co 0.34964 0.33672 0.96657 0.0
Co1463 Co 0.38169 0.288 0.91143 0.0
C1464 C 0.40028 0.3619 0.90459 0.0
O1465 O 0.37644 0.37244 0.92789 0.0
O1466 O 0.4109 0.32953 0.90576 0.0
C1467 C 0.27917 0.3618 1.00112 0.0
O1468 O 0.26342 0.35547 0.96997 0.0
C1469 C 0.40406 0.27166 0.83913 0.0
C1470 C 0.41827 0.21389 0.84193 0.0
C1471 C 0.41678 0.24342 0.81891 0.0
N1472 N 0.3984 0.25978 0.87294 0.0
N1473 N 0.40754 0.22533 0.87473 0.0
C1474 C 0.39627 0.30906 0.82584 0.0
H1475 H 0.37662 0.32292 0.84365 0.0
H1476 H 0.38564 0.3083 0.7978 0.0
H1477 H 0.42183 0.32472 0.82547 0.0
C1478 C 0.30079 0.27717 0.94698 0.0
N1479 N 0.32171 0.30538 0.9377 0.0
N1480 N 0.33253 0.30049 0.90433 0.0
C1481 C 0.31256 0.27417 0.88967 0.0
C1482 C 0.29484 0.25612 0.91677 0.0
C1483 C 0.29616 0.26434 0.98463 0.0
H1484 H 0.2991 0.28695 1.00402 0.0
H1485 H 0.26938 0.25111 0.98666 0.0
H1486 H 0.31679 0.24349 0.99078 0.0
O1487 O 0.37987 0.30195 0.9993 0.0
O1488 O 0.3889 0.25981 0.95799 0.0
H1489 H 0.33331 0.23771 0.85023 0.0
H1490 H 0.28864 0.25428 0.84134 0.0
C1491 C 0.31574 0.26187 0.85152 0.0
H1492 H 0.32662 0.28371 0.83428 0.0
H1493 H 0.40566 0.20956 0.89802 0.0
O1494 O 0.31372 0.35941 1.00334 0.0
C1495 C 0.38867 0.26943 0.99113 0.0
Co1496 Co 0.4491 0.59966 0.71657 0.0
Co1497 Co 0.49783 0.63168 0.66143 0.0
C1498 C 0.42394 0.65028 0.65459 0.0
O1499 O 0.41338 0.62644 0.67789 0.0
O1500 O 0.4563 0.6609 0.65576 0.0
C1501 C 0.42399 0.5292 0.75113 0.0
O1502 O 0.43032 0.51344 0.71998 0.0
C1503 C 0.51416 0.65405 0.58912 0.0
C1504 C 0.57192 0.66831 0.59193 0.0
C1505 C 0.54238 0.6668 0.5689 0.0
N1506 N 0.52605 0.64839 0.62293 0.0
N1507 N 0.56048 0.65757 0.62472 0.0
C1508 C 0.47676 0.64624 0.57583 0.0
H1509 H 0.46291 0.6266 0.59365 0.0
H1510 H 0.47753 0.6356 0.5478 0.0
H1511 H 0.4611 0.6718 0.57544 0.0
C1512 C 0.50864 0.55079 0.69699 0.0
N1513 N 0.48043 0.57171 0.68771 0.0
N1514 N 0.48534 0.58252 0.65433 0.0
C1515 C 0.51165 0.56255 0.63968 0.0
C1516 C 0.52969 0.54483 0.66678 0.0
C1517 C 0.52146 0.54617 0.73464 0.0
H1518 H 0.49886 0.54915 0.75403 0.0
H1519 H 0.53467 0.51938 0.73669 0.0
H1520 H 0.54234 0.56678 0.74078 0.0
O1521 O 0.48387 0.62988 0.74929 0.0
O1522 O 0.52602 0.63889 0.70799 0.0
H1523 H 0.54812 0.58331 0.60025 0.0
H1524 H 0.53155 0.53863 0.59135 0.0
C1525 C 0.52396 0.56573 0.60152 0.0
H1526 H 0.50212 0.5766 0.58428 0.0
H1527 H 0.57626 0.65569 0.64801 0.0
O1528 O 0.42639 0.56375 0.75334 0.0
C1529 C 0.5164 0.63867 0.74112 0.0
Co1530 Co 0.84964 0.19908 0.06928 0.0
Co1531 Co 0.88167 0.24781 0.1244 0.0
C1532 C 0.90027 0.17392 0.13125 0.0
O1533 O 0.87643 0.16337 0.10796 0.0
O1534 O 0.91089 0.20629 0.13008 0.0
C1535 C 0.77918 0.17397 0.03472 0.0
O1536 O 0.76342 0.18031 0.06586 0.0
C1537 C 0.90407 0.26417 0.1967 0.0
C1538 C 0.91831 0.32193 0.19388 0.0
C1539 C 0.91682 0.2924 0.21691 0.0
N1540 N 0.89839 0.27604 0.1629 0.0
N1541 N 0.90755 0.31048 0.16109 0.0
C1542 C 0.89627 0.22677 0.21 0.0
H1543 H 0.87662 0.21291 0.1922 0.0
H1544 H 0.88564 0.22754 0.23804 0.0
H1545 H 0.92183 0.21111 0.21039 0.0
C1546 C 0.80077 0.25862 0.08887 0.0
N1547 N 0.8217 0.23041 0.09814 0.0
N1548 N 0.83251 0.23532 0.13152 0.0
C1549 C 0.81254 0.26163 0.14618 0.0
C1550 C 0.79482 0.27967 0.11907 0.0
C1551 C 0.79614 0.27144 0.05121 0.0
H1552 H 0.79912 0.24883 0.03182 0.0
H1553 H 0.76934 0.28464 0.04916 0.0
H1554 H 0.81674 0.29232 0.04507 0.0
O1555 O 0.87985 0.23385 0.03654 0.0
O1556 O 0.88887 0.276 0.07784 0.0
H1557 H 0.83331 0.2981 0.18559 0.0
H1558 H 0.78864 0.28154 0.19451 0.0
C1559 C 0.81573 0.27394 0.18432 0.0
H1560 H 0.82661 0.25211 0.20157 0.0
H1561 H 0.90567 0.32626 0.1378 0.0
O1562 O 0.81373 0.17637 0.03251 0.0
C1563 C 0.88864 0.26637 0.04471 0.0
Co1564 Co 0.58672 0.09965 0.81927 0.0
Co1565 Co 0.538 0.13169 0.8744 0.0
C1566 C 0.61189 0.15028 0.88124 0.0
O1567 O 0.62244 0.12644 0.85794 0.0
O1568 O 0.57953 0.16091 0.88007 0.0
C1569 C 0.6118 0.02918 0.78472 0.0
O1570 O 0.60547 1.01343 0.81587 0.0
C1571 C 0.52165 0.15406 0.94671 0.0
C1572 C 0.46389 0.16828 0.9439 0.0
C1573 C 0.49342 0.16678 0.96693 0.0
N1574 N 0.50977 0.1484 0.9129 0.0
N1575 N 0.47533 0.15755 0.91111 0.0
C1576 C 0.55906 0.14627 0.96 0.0
H1577 H 0.57292 0.12663 0.94219 0.0
H1578 H 0.5583 0.13565 0.98803 0.0
H1579 H 0.57472 0.17184 0.96037 0.0
C1580 C 0.52717 0.0508 0.83886 0.0
N1581 N 0.55538 0.07172 0.84813 0.0
N1582 N 0.55049 0.08253 0.88151 0.0
C1583 C 0.52417 0.06257 0.89617 0.0
C1584 C 0.50612 0.04484 0.86907 0.0
C1585 C 0.51434 0.04616 0.80121 0.0
H1586 H 0.53695 0.04911 0.78182 0.0
H1587 H 0.50111 0.01938 0.79918 0.0
H1588 H 0.49349 0.06679 0.79506 0.0
O1589 O 0.55195 0.12987 0.78654 0.0
O1590 O 0.50981 0.1389 0.82785 0.0
H1591 H 0.48771 0.08332 0.93561 0.0
H1592 H 0.50428 0.03865 0.9445 0.0
C1593 C 0.51187 0.06575 0.93432 0.0
H1594 H 0.53371 0.07662 0.95156 0.0
H1595 H 0.45955 0.15567 0.88782 0.0
O1596 O 0.60941 0.06373 0.78249 0.0
C1597 C 0.51943 0.13867 0.79471 0.0
Co1598 Co 0.9491 0.93617 0.31927 0.0
Co1599 Co 0.99782 0.90413 0.37441 0.0
C1600 C 0.92392 0.88554 0.38125 0.0
O1601 O 0.91338 0.90938 0.35795 0.0
O1602 O 0.95629 0.87492 0.38008 0.0
C1603 C 0.92402 1.00664 0.28472 0.0
O1604 O 0.93035 0.02239 0.31587 0.0
C1605 C 1.01416 0.88176 0.44671 0.0
C1606 C 0.07193 0.86755 0.44391 0.0
C1607 C 0.0424 0.86904 0.46693 0.0
N1608 N 0.02604 0.88742 0.41291 0.0
N1609 N 0.06049 0.87828 0.41111 0.0
C1610 C 0.97676 0.88955 0.46 0.0
H1611 H 0.9629 0.9092 0.44219 0.0
H1612 H 0.97752 0.90018 0.48804 0.0
H1613 H 0.9611 0.86399 0.46037 0.0
C1614 C 1.00865 0.98503 0.33886 0.0
N1615 N 0.98044 0.9641 0.34814 0.0
N1616 N 0.98533 0.95329 0.38151 0.0
C1617 C 1.01165 0.97325 0.39617 0.0
C1618 C 0.0297 0.99098 0.36907 0.0
C1619 C 0.02148 0.98966 0.30121 0.0
H1620 H 0.99887 0.98672 0.28182 0.0
H1621 H 0.03471 1.01644 0.29918 0.0
H1622 H 0.04233 0.96903 0.29506 0.0
O1623 O 0.98387 0.90595 0.28654 0.0
O1624 O 0.02601 0.89692 0.32785 0.0
H1625 H 0.04811 0.95251 0.43561 0.0
H1626 H 0.03154 0.99718 0.4445 0.0
C1627 C 0.02395 0.97008 0.43433 0.0
H1628 H 1.00211 0.9592 0.45156 0.0
H1629 H 0.07627 0.88016 0.38782 0.0
O1630 O 0.92641 0.97209 0.2825 0.0
C1631 C 1.01639 0.89715 0.29471 0.0
loop_
_geom_bond_atom_site_label_1
_geom_bond_atom_site_label_2
_geom_bond_distance
_geom_bond_site_symmetry_2
_ccdc_geom_bond_type
Co0 O3 1.970 . S
Co0 N17 1.989 . S
Co0 O25 1.967 . S
Co0 O32 1.920 . S
Co1 O4 1.966 . S
Co1 N10 2.022 . S
Co1 N18 1.993 . S
Co1 O26 1.941 . S
C2 O3 1.258 . S
C2 O4 1.263 . S
O3 Co0 1.970 . S
O3 C2 1.258 . S
O4 Co1 1.966 . S
O4 C2 1.263 . S
C5 O6 1.235 . S
C5 O32 1.289 . S
O6 C5 1.235 . S
C7 C9 1.400 . S
C7 N10 1.351 . S
C7 C12 1.501 . S
C8 C9 1.387 . S
C8 N11 1.341 . S
C9 C7 1.400 . S
C9 C8 1.387 . S
N10 Co1 2.022 . S
N10 C7 1.351 . S
N10 N11 1.365 . S
N11 C8 1.341 . S
N11 N10 1.365 . S
N11 H31 0.862 . S
C12 C7 1.501 . S
C12 H13 0.961 . S
C12 H14 0.961 . S
C12 H15 0.960 . S
H13 C12 0.961 . S
H14 C12 0.961 . S
H15 C12 0.960 . S
C16 N17 1.342 . S
C16 C20 1.401 . S
C16 C21 1.499 . S
N17 Co0 1.989 . S
N17 C16 1.342 . S
N17 N18 1.388 . S
N18 Co1 1.993 . S
N18 N17 1.388 . S
N18 C19 1.346 . S
C19 N18 1.346 . S
C19 C20 1.396 . S
C19 C29 1.510 . S
C20 C16 1.401 . S
C20 C19 1.396 . S
C21 C16 1.499 . S
C21 H22 0.959 . S
C21 H23 0.960 . S
C21 H24 0.961 . S
H22 C21 0.959 . S
H23 C21 0.960 . S
H24 C21 0.961 . S
O25 Co0 1.967 . S
O25 C33 1.258 . S
O26 Co1 1.941 . S
O26 C33 1.266 . S
H27 C29 0.959 . S
H28 C29 0.961 . S
C29 C19 1.510 . S
C29 H27 0.959 . S
C29 H28 0.961 . S
C29 H30 0.960 . S
H30 C29 0.960 . S
H31 N11 0.862 . S
O32 Co0 1.920 . S
O32 C5 1.289 . S
C33 O25 1.258 . S
C33 O26 1.266 . S
Co34 O37 1.970 . S
Co34 N51 1.989 . S
Co34 O59 1.967 . S
Co34 O66 1.920 . S
Co35 O38 1.966 . S
Co35 N44 2.022 . S
Co35 N52 1.993 . S
Co35 O60 1.941 . S
C36 O37 1.258 . S
C36 O38 1.263 . S
O37 Co34 1.970 . S
O37 C36 1.258 . S
O38 Co35 1.966 . S
O38 C36 1.263 . S
C39 O40 1.235 1_455 S
C39 O66 1.289 . S
O40 C39 1.235 1_655 S
C41 C43 1.400 . S
C41 N44 1.351 . S
C41 C46 1.501 . S
C42 C43 1.387 . S
C42 N45 1.341 . S
C43 C41 1.400 . S
C43 C42 1.387 . S
N44 Co35 2.022 . S
N44 C41 1.351 . S
N44 N45 1.365 . S
N45 C42 1.341 . S
N45 N44 1.365 . S
N45 H65 0.862 . S
C46 C41 1.501 . S
C46 H47 0.961 . S
C46 H48 0.961 . S
C46 H49 0.960 . S
H47 C46 0.961 . S
H48 C46 0.961 . S
H49 C46 0.960 . S
C50 N51 1.342 . S
C50 C54 1.401 . S
C50 C55 1.499 1_455 S
N51 Co34 1.989 . S
N51 C50 1.342 . S
N51 N52 1.388 . S
N52 Co35 1.993 . S
N52 N51 1.388 . S
N52 C53 1.346 . S
C53 N52 1.346 . S
C53 C54 1.396 . S
C53 C63 1.510 . S
C54 C50 1.401 . S
C54 C53 1.396 . S
C55 C50 1.499 1_655 S
C55 H56 0.959 . S
C55 H57 0.960 . S
C55 H58 0.961 . S
H56 C55 0.959 . S
H57 C55 0.960 . S
H58 C55 0.961 . S
O59 Co34 1.967 . S
O59 C67 1.258 . S
O60 Co35 1.941 . S
O60 C67 1.266 . S
H61 C63 0.959 . S
H62 C63 0.961 . S
C63 C53 1.510 . S
C63 H61 0.959 . S
C63 H62 0.961 . S
C63 H64 0.960 . S
H64 C63 0.960 . S
H65 N45 0.862 . S
O66 Co34 1.920 . S
O66 C39 1.289 . S
C67 O59 1.258 . S
C67 O60 1.266 . S
Co68 O71 1.970 . S
Co68 N85 1.989 . S
Co68 O93 1.967 . S
Co68 O100 1.920 . S
Co69 O72 1.966 . S
Co69 N78 2.022 . S
Co69 N86 1.993 . S
Co69 O94 1.941 . S
C70 O71 1.258 . S
C70 O72 1.263 . S
O71 Co68 1.970 . S
O71 C70 1.258 . S
O72 Co69 1.966 . S
O72 C70 1.263 . S
C73 O74 1.235 . S
C73 O100 1.289 . S
O74 C73 1.235 . S
C75 C77 1.400 . S
C75 N78 1.351 . S
C75 C80 1.501 . S
C76 C77 1.387 . S
C76 N79 1.341 . S
C77 C75 1.400 . S
C77 C76 1.387 . S
N78 Co69 2.022 . S
N78 C75 1.351 . S
N78 N79 1.365 . S
N79 C76 1.341 . S
N79 N78 1.365 . S
N79 H99 0.862 . S
C80 C75 1.501 . S
C80 H81 0.961 . S
C80 H82 0.961 . S
C80 H83 0.960 . S
H81 C80 0.961 . S
H82 C80 0.961 . S
H83 C80 0.960 . S
C84 N85 1.342 . S
C84 C88 1.401 . S
C84 C89 1.499 . S
N85 Co68 1.989 . S
N85 C84 1.342 . S
N85 N86 1.388 . S
N86 Co69 1.993 . S
N86 N85 1.388 . S
N86 C87 1.346 . S
C87 N86 1.346 . S
C87 C88 1.396 . S
C87 C97 1.510 . S
C88 C84 1.401 . S
C88 C87 1.396 . S
C89 C84 1.499 . S
C89 H90 0.959 . S
C89 H91 0.960 . S
C89 H92 0.961 . S
H90 C89 0.959 . S
H91 C89 0.960 . S
H92 C89 0.961 . S
O93 Co68 1.967 . S
O93 C101 1.258 . S
O94 Co69 1.941 . S
O94 C101 1.266 . S
H95 C97 0.959 . S
H96 C97 0.961 . S
C97 C87 1.510 . S
C97 H95 0.959 . S
C97 H96 0.961 . S
C97 H98 0.960 . S
H98 C97 0.960 . S
H99 N79 0.862 . S
O100 Co68 1.920 . S
O100 C73 1.289 . S
C101 O93 1.258 . S
C101 O94 1.266 . S
Co102 O105 1.970 . S
Co102 N119 1.989 . S
Co102 O127 1.967 . S
Co102 O134 1.920 . S
Co103 O106 1.966 . S
Co103 N112 2.022 . S
Co103 N120 1.993 . S
Co103 O128 1.941 . S
C104 O105 1.258 . S
C104 O106 1.263 . S
O105 Co102 1.970 . S
O105 C104 1.258 . S
O106 Co103 1.966 . S
O106 C104 1.263 . S
C107 O108 1.235 . S
C107 O134 1.289 . S
O108 C107 1.235 . S
C109 C111 1.400 . S
C109 N112 1.351 . S
C109 C114 1.501 . S
C110 C111 1.387 1_556 S
C110 N113 1.341 . S
C111 C109 1.400 . S
C111 C110 1.387 1_554 S
N112 Co103 2.022 . S
N112 C109 1.351 . S
N112 N113 1.365 1_554 S
N113 C110 1.341 . S
N113 N112 1.365 1_556 S
N113 H133 0.862 . S
C114 C109 1.501 . S
C114 H115 0.961 . S
C114 H116 0.961 . S
C114 H117 0.960 . S
H115 C114 0.961 . S
H116 C114 0.961 . S
H117 C114 0.960 . S
C118 N119 1.342 . S
C118 C122 1.401 1_554 S
C118 C123 1.499 . S
N119 Co102 1.989 . S
N119 C118 1.342 . S
N119 N120 1.388 . S
N120 Co103 1.993 . S
N120 N119 1.388 . S
N120 C121 1.346 . S
C121 N120 1.346 . S
C121 C122 1.396 1_554 S
C121 C131 1.510 1_554 S
C122 C118 1.401 1_556 S
C122 C121 1.396 1_556 S
C123 C118 1.499 . S
C123 H124 0.959 . S
C123 H125 0.960 . S
C123 H126 0.962 . S
H124 C123 0.959 . S
H125 C123 0.960 . S
H126 C123 0.962 . S
O127 Co102 1.967 . S
O127 C135 1.258 . S
O128 Co103 1.941 . S
O128 C135 1.266 . S
H129 C131 0.959 . S
H130 C131 0.961 . S
C131 C121 1.510 1_556 S
C131 H129 0.959 . S
C131 H130 0.961 . S
C131 H132 0.960 . S
H132 C131 0.960 . S
H133 N113 0.862 . S
O134 Co102 1.920 . S
O134 C107 1.289 . S
C135 O127 1.258 . S
C135 O128 1.266 . S
Co136 O139 1.970 . S
Co136 N153 1.989 . S
Co136 O161 1.967 . S
Co136 O168 1.920 . S
Co137 O140 1.966 . S
Co137 N146 2.022 . S
Co137 N154 1.993 . S
Co137 O162 1.941 . S
C138 O139 1.258 . S
C138 O140 1.263 . S
O139 Co136 1.970 . S
O139 C138 1.258 . S
O140 Co137 1.966 . S
O140 C138 1.263 . S
C141 O142 1.235 . S
C141 O168 1.289 . S
O142 C141 1.235 . S
C143 C145 1.400 . S
C143 N146 1.351 . S
C143 C148 1.501 . S
C144 C145 1.387 . S
C144 N147 1.341 . S
C145 C143 1.400 . S
C145 C144 1.387 . S
N146 Co137 2.022 . S
N146 C143 1.351 . S
N146 N147 1.365 . S
N147 C144 1.341 . S
N147 N146 1.365 . S
N147 H167 0.862 . S
C148 C143 1.501 . S
C148 H149 0.961 . S
C148 H150 0.961 . S
C148 H151 0.960 . S
H149 C148 0.961 . S
H150 C148 0.961 . S
H151 C148 0.960 . S
C152 N153 1.342 . S
C152 C156 1.401 . S
C152 C157 1.499 . S
N153 Co136 1.989 . S
N153 C152 1.342 . S
N153 N154 1.388 . S
N154 Co137 1.993 . S
N154 N153 1.388 . S
N154 C155 1.346 . S
C155 N154 1.346 . S
C155 C156 1.396 . S
C155 C165 1.510 . S
C156 C152 1.401 . S
C156 C155 1.396 . S
C157 C152 1.499 . S
C157 H158 0.959 . S
C157 H159 0.960 . S
C157 H160 0.961 . S
H158 C157 0.959 . S
H159 C157 0.960 . S
H160 C157 0.961 . S
O161 Co136 1.967 . S
O161 C169 1.258 . S
O162 Co137 1.941 . S
O162 C169 1.266 . S
H163 C165 0.959 . S
H164 C165 0.961 . S
C165 C155 1.510 . S
C165 H163 0.959 . S
C165 H164 0.961 . S
C165 H166 0.960 . S
H166 C165 0.960 . S
H167 N147 0.862 . S
O168 Co136 1.920 . S
O168 C141 1.289 . S
C169 O161 1.258 . S
C169 O162 1.266 . S
Co170 O173 1.970 . S
Co170 N187 1.989 . S
Co170 O195 1.967 . S
Co170 O202 1.920 . S
Co171 O174 1.966 . S
Co171 N180 2.022 . S
Co171 N188 1.993 . S
Co171 O196 1.941 . S
C172 O173 1.258 . S
C172 O174 1.263 . S
O173 Co170 1.970 . S
O173 C172 1.258 . S
O174 Co171 1.966 . S
O174 C172 1.263 . S
C175 O176 1.235 . S
C175 O202 1.289 . S
O176 C175 1.235 . S
C177 C179 1.400 . S
C177 N180 1.351 . S
C177 C182 1.501 . S
C178 C179 1.387 . S
C178 N181 1.341 . S
C179 C177 1.400 . S
C179 C178 1.387 . S
N180 Co171 2.022 . S
N180 C177 1.351 . S
N180 N181 1.365 . S
N181 C178 1.341 . S
N181 N180 1.365 . S
N181 H201 0.862 . S
C182 C177 1.501 . S
C182 H183 0.961 . S
C182 H184 0.961 . S
C182 H185 0.960 . S
H183 C182 0.961 . S
H184 C182 0.961 . S
H185 C182 0.960 . S
C186 N187 1.342 . S
C186 C190 1.401 . S
C186 C191 1.499 . S
N187 Co170 1.989 . S
N187 C186 1.342 . S
N187 N188 1.388 . S
N188 Co171 1.993 . S
N188 N187 1.388 . S
N188 C189 1.346 . S
C189 N188 1.346 . S
C189 C190 1.396 . S
C189 C199 1.510 . S
C190 C186 1.401 . S
C190 C189 1.396 . S
C191 C186 1.499 . S
C191 H192 0.959 . S
C191 H193 0.960 . S
C191 H194 0.961 . S
H192 C191 0.959 . S
H193 C191 0.960 . S
H194 C191 0.961 . S
O195 Co170 1.967 . S
O195 C203 1.258 . S
O196 Co171 1.941 . S
O196 C203 1.266 . S
H197 C199 0.959 . S
H198 C199 0.961 . S
C199 C189 1.510 . S
C199 H197 0.959 . S
C199 H198 0.961 . S
C199 H200 0.960 . S
H200 C199 0.960 . S
H201 N181 0.862 . S
O202 Co170 1.920 . S
O202 C175 1.289 . S
C203 O195 1.258 . S
C203 O196 1.266 . S
Co204 O207 1.970 . S
Co204 N221 1.989 . S
Co204 O229 1.967 . S
Co204 O236 1.920 . S
Co205 O208 1.966 . S
Co205 N214 2.022 . S
Co205 N222 1.993 . S
Co205 O230 1.941 . S
C206 O207 1.258 . S
C206 O208 1.263 . S
O207 Co204 1.970 . S
O207 C206 1.258 . S
O208 Co205 1.966 . S
O208 C206 1.263 . S
C209 O210 1.235 . S
C209 O236 1.289 . S
O210 C209 1.235 . S
C211 C213 1.400 . S
C211 N214 1.351 . S
C211 C216 1.501 . S
C212 C213 1.387 . S
C212 N215 1.341 . S
C213 C211 1.400 . S
C213 C212 1.387 . S
N214 Co205 2.022 . S
N214 C211 1.351 . S
N214 N215 1.365 . S
N215 C212 1.341 . S
N215 N214 1.365 . S
N215 H235 0.862 . S
C216 C211 1.501 . S
C216 H217 0.961 . S
C216 H218 0.961 . S
C216 H219 0.960 . S
H217 C216 0.961 . S
H218 C216 0.961 . S
H219 C216 0.960 . S
C220 N221 1.342 . S
C220 C224 1.401 . S
C220 C225 1.499 . S
N221 Co204 1.989 . S
N221 C220 1.342 . S
N221 N222 1.388 . S
N222 Co205 1.993 . S
N222 N221 1.388 . S
N222 C223 1.346 . S
C223 N222 1.346 . S
C223 C224 1.396 . S
C223 C233 1.510 . S
C224 C220 1.401 . S
C224 C223 1.396 . S
C225 C220 1.499 . S
C225 H226 0.959 . S
C225 H227 0.960 . S
C225 H228 0.961 . S
H226 C225 0.959 . S
H227 C225 0.960 . S
H228 C225 0.961 . S
O229 Co204 1.967 . S
O229 C237 1.258 . S
O230 Co205 1.941 . S
O230 C237 1.266 . S
H231 C233 0.959 . S
H232 C233 0.961 . S
C233 C223 1.510 . S
C233 H231 0.959 . S
C233 H232 0.961 . S
C233 H234 0.960 . S
H234 C233 0.960 . S
H235 N215 0.862 . S
O236 Co204 1.920 . S
O236 C209 1.289 . S
C237 O229 1.258 . S
C237 O230 1.266 . S
Co238 O241 1.970 . S
Co238 N255 1.989 . S
Co238 O263 1.967 . S
Co238 O270 1.920 . S
Co239 O242 1.966 . S
Co239 N248 2.022 . S
Co239 N256 1.993 . S
Co239 O264 1.941 . S
C240 O241 1.258 . S
C240 O242 1.263 . S
O241 Co238 1.970 . S
O241 C240 1.258 . S
O242 Co239 1.966 . S
O242 C240 1.263 . S
C243 O244 1.235 1_455 S
C243 O270 1.289 . S
O244 C243 1.235 1_655 S
C245 C247 1.400 . S
C245 N248 1.351 . S
C245 C250 1.501 . S
C246 C247 1.387 1_554 S
C246 N249 1.341 . S
C247 C245 1.400 . S
C247 C246 1.387 1_556 S
N248 Co239 2.022 . S
N248 C245 1.351 . S
N248 N249 1.365 1_556 S
N249 C246 1.341 . S
N249 N248 1.365 1_554 S
N249 H269 0.862 . S
C250 C245 1.501 . S
C250 H251 0.961 . S
C250 H252 0.961 . S
C250 H253 0.960 . S
H251 C250 0.961 . S
H252 C250 0.961 . S
H253 C250 0.960 . S
C254 N255 1.342 . S
C254 C258 1.401 1_556 S
C254 C259 1.499 1_455 S
N255 Co238 1.989 . S
N255 C254 1.342 . S
N255 N256 1.388 . S
N256 Co239 1.993 . S
N256 N255 1.388 . S
N256 C257 1.346 . S
C257 N256 1.346 . S
C257 C258 1.396 1_556 S
C257 C267 1.510 1_556 S
C258 C254 1.401 1_554 S
C258 C257 1.396 1_554 S
C259 C254 1.499 1_655 S
C259 H260 0.959 . S
C259 H261 0.960 . S
C259 H262 0.962 . S
H260 C259 0.959 . S
H261 C259 0.960 . S
H262 C259 0.962 . S
O263 Co238 1.967 . S
O263 C271 1.258 . S
O264 Co239 1.941 . S
O264 C271 1.266 . S
H265 C267 0.959 . S
H266 C267 0.961 . S
C267 C257 1.510 1_554 S
C267 H265 0.959 . S
C267 H266 0.961 . S
C267 H268 0.960 . S
H268 C267 0.960 . S
H269 N249 0.862 . S
O270 Co238 1.920 . S
O270 C243 1.289 . S
C271 O263 1.258 . S
C271 O264 1.266 . S
Co272 O275 1.970 . S
Co272 N289 1.989 . S
Co272 O297 1.967 . S
Co272 O304 1.920 . S
Co273 O276 1.966 . S
Co273 N282 2.022 . S
Co273 N290 1.993 . S
Co273 O298 1.941 . S
C274 O275 1.258 . S
C274 O276 1.263 . S
O275 Co272 1.970 . S
O275 C274 1.258 . S
O276 Co273 1.966 . S
O276 C274 1.263 . S
C277 O278 1.235 . S
C277 O304 1.289 . S
O278 C277 1.235 . S
C279 C281 1.400 . S
C279 N282 1.351 . S
C279 C284 1.501 . S
C280 C281 1.387 . S
C280 N283 1.341 . S
C281 C279 1.400 . S
C281 C280 1.387 . S
N282 Co273 2.022 . S
N282 C279 1.351 . S
N282 N283 1.365 . S
N283 C280 1.341 . S
N283 N282 1.365 . S
N283 H303 0.862 . S
C284 C279 1.501 . S
C284 H285 0.961 . S
C284 H286 0.961 . S
C284 H287 0.960 . S
H285 C284 0.961 . S
H286 C284 0.961 . S
H287 C284 0.960 . S
C288 N289 1.342 . S
C288 C292 1.401 . S
C288 C293 1.499 . S
N289 Co272 1.989 . S
N289 C288 1.342 . S
N289 N290 1.388 . S
N290 Co273 1.993 . S
N290 N289 1.388 . S
N290 C291 1.346 . S
C291 N290 1.346 . S
C291 C292 1.396 . S
C291 C301 1.510 . S
C292 C288 1.401 . S
C292 C291 1.396 . S
C293 C288 1.499 . S
C293 H294 0.959 . S
C293 H295 0.960 . S
C293 H296 0.961 . S
H294 C293 0.959 . S
H295 C293 0.960 . S
H296 C293 0.961 . S
O297 Co272 1.967 . S
O297 C305 1.258 . S
O298 Co273 1.941 . S
O298 C305 1.266 . S
H299 C301 0.959 . S
H300 C301 0.961 . S
C301 C291 1.510 . S
C301 H299 0.959 . S
C301 H300 0.961 . S
C301 H302 0.960 . S
H302 C301 0.960 . S
H303 N283 0.862 . S
O304 Co272 1.920 . S
O304 C277 1.289 . S
C305 O297 1.258 . S
C305 O298 1.266 . S
Co306 O309 1.970 . S
Co306 N323 1.989 . S
Co306 O331 1.967 . S
Co306 O338 1.920 . S
Co307 O310 1.966 . S
Co307 N316 2.022 . S
Co307 N324 1.993 . S
Co307 O332 1.941 . S
C308 O309 1.258 . S
C308 O310 1.263 . S
O309 Co306 1.970 . S
O309 C308 1.258 . S
O310 Co307 1.966 . S
O310 C308 1.263 . S
C311 O312 1.235 . S
C311 O338 1.289 . S
O312 C311 1.235 . S
C313 C315 1.400 . S
C313 N316 1.351 . S
C313 C318 1.501 . S
C314 C315 1.387 1_565 S
C314 N317 1.341 . S
C315 C313 1.400 . S
C315 C314 1.387 1_545 S
N316 Co307 2.022 . S
N316 C313 1.351 . S
N316 N317 1.365 1_545 S
N317 C314 1.341 . S
N317 N316 1.365 1_565 S
N317 H337 0.862 . S
C318 C313 1.501 . S
C318 H319 0.961 . S
C318 H320 0.961 . S
C318 H321 0.960 . S
H319 C318 0.961 . S
H320 C318 0.961 . S
H321 C318 0.960 . S
C322 N323 1.342 . S
C322 C326 1.401 1_545 S
C322 C327 1.499 . S
N323 Co306 1.989 . S
N323 C322 1.342 . S
N323 N324 1.388 . S
N324 Co307 1.993 . S
N324 N323 1.388 . S
N324 C325 1.346 . S
C325 N324 1.346 . S
C325 C326 1.396 1_545 S
C325 C335 1.510 1_545 S
C326 C322 1.401 1_565 S
C326 C325 1.396 1_565 S
C327 C322 1.499 . S
C327 H328 0.959 . S
C327 H329 0.960 . S
C327 H330 0.962 . S
H328 C327 0.959 . S
H329 C327 0.960 . S
H330 C327 0.962 . S
O331 Co306 1.967 . S
O331 C339 1.258 . S
O332 Co307 1.941 . S
O332 C339 1.266 . S
H333 C335 0.959 . S
H334 C335 0.961 . S
C335 C325 1.510 1_565 S
C335 H333 0.959 . S
C335 H334 0.961 . S
C335 H336 0.960 . S
H336 C335 0.960 . S
H337 N317 0.862 . S
O338 Co306 1.920 . S
O338 C311 1.289 . S
C339 O331 1.258 . S
C339 O332 1.266 . S
Co340 O343 1.970 . S
Co340 N357 1.989 . S
Co340 O365 1.967 . S
Co340 O372 1.920 . S
Co341 O344 1.966 . S
Co341 N350 2.022 . S
Co341 N358 1.993 . S
Co341 O366 1.941 . S
C342 O343 1.258 . S
C342 O344 1.263 . S
O343 Co340 1.970 . S
O343 C342 1.258 . S
O344 Co341 1.966 . S
O344 C342 1.263 . S
C345 O346 1.235 . S
C345 O372 1.289 . S
O346 C345 1.235 . S
C347 C349 1.400 . S
C347 N350 1.351 . S
C347 C352 1.501 . S
C348 C349 1.387 . S
C348 N351 1.341 . S
C349 C347 1.400 . S
C349 C348 1.387 . S
N350 Co341 2.022 . S
N350 C347 1.351 . S
N350 N351 1.365 . S
N351 C348 1.341 . S
N351 N350 1.365 . S
N351 H371 0.862 . S
C352 C347 1.501 . S
C352 H353 0.961 . S
C352 H354 0.961 . S
C352 H355 0.960 . S
H353 C352 0.961 . S
H354 C352 0.961 . S
H355 C352 0.960 . S
C356 N357 1.342 . S
C356 C360 1.401 . S
C356 C361 1.499 . S
N357 Co340 1.989 . S
N357 C356 1.342 . S
N357 N358 1.388 . S
N358 Co341 1.993 . S
N358 N357 1.388 . S
N358 C359 1.346 . S
C359 N358 1.346 . S
C359 C360 1.396 . S
C359 C369 1.510 . S
C360 C356 1.401 . S
C360 C359 1.396 . S
C361 C356 1.499 . S
C361 H362 0.959 . S
C361 H363 0.960 . S
C361 H364 0.961 . S
H362 C361 0.959 . S
H363 C361 0.960 . S
H364 C361 0.961 . S
O365 Co340 1.967 . S
O365 C373 1.258 . S
O366 Co341 1.941 . S
O366 C373 1.266 . S
H367 C369 0.959 . S
H368 C369 0.961 . S
C369 C359 1.510 . S
C369 H367 0.959 . S
C369 H368 0.961 . S
C369 H370 0.960 . S
H370 C369 0.960 . S
H371 N351 0.862 . S
O372 Co340 1.920 . S
O372 C345 1.289 . S
C373 O365 1.258 . S
C373 O366 1.266 . S
Co374 O377 1.970 . S
Co374 N391 1.989 . S
Co374 O399 1.967 . S
Co374 O406 1.920 . S
Co375 O378 1.966 . S
Co375 N384 2.022 . S
Co375 N392 1.993 . S
Co375 O400 1.941 . S
C376 O377 1.258 . S
C376 O378 1.263 . S
O377 Co374 1.970 . S
O377 C376 1.258 . S
O378 Co375 1.966 . S
O378 C376 1.263 . S
C379 O380 1.235 1_556 S
C379 O406 1.289 . S
O380 C379 1.235 1_554 S
C381 C383 1.400 . S
C381 N384 1.351 . S
C381 C386 1.501 . S
C382 C383 1.387 1_545 S
C382 N385 1.341 . S
C383 C381 1.400 . S
C383 C382 1.387 1_565 S
N384 Co375 2.022 . S
N384 C381 1.351 . S
N384 N385 1.365 1_565 S
N385 C382 1.341 . S
N385 N384 1.365 1_545 S
N385 H405 0.862 . S
C386 C381 1.501 . S
C386 H387 0.961 . S
C386 H388 0.961 . S
C386 H389 0.960 . S
H387 C386 0.961 . S
H388 C386 0.961 . S
H389 C386 0.960 . S
C390 N391 1.342 . S
C390 C394 1.401 1_565 S
C390 C395 1.499 1_556 S
N391 Co374 1.989 . S
N391 C390 1.342 . S
N391 N392 1.388 . S
N392 Co375 1.993 . S
N392 N391 1.388 . S
N392 C393 1.346 . S
C393 N392 1.346 . S
C393 C394 1.396 1_565 S
C393 C403 1.510 1_565 S
C394 C390 1.401 1_545 S
C394 C393 1.396 1_545 S
C395 C390 1.499 1_554 S
C395 H396 0.959 . S
C395 H397 0.960 . S
C395 H398 0.962 . S
H396 C395 0.959 . S
H397 C395 0.960 . S
H398 C395 0.962 . S
O399 Co374 1.967 . S
O399 C407 1.258 . S
O400 Co375 1.941 . S
O400 C407 1.266 . S
H401 C403 0.959 . S
H402 C403 0.961 . S
C403 C393 1.510 1_545 S
C403 H401 0.959 . S
C403 H402 0.961 . S
C403 H404 0.960 . S
H404 C403 0.960 . S
H405 N385 0.862 . S
O406 Co374 1.920 . S
O406 C379 1.289 . S
C407 O399 1.258 . S
C407 O400 1.266 . S
Co408 O411 1.970 . S
Co408 N425 1.989 . S
Co408 O433 1.967 . S
Co408 O440 1.920 . S
Co409 O412 1.966 . S
Co409 N418 2.022 . S
Co409 N426 1.993 . S
Co409 O434 1.941 . S
C410 O411 1.258 . S
C410 O412 1.263 . S
O411 Co408 1.970 . S
O411 C410 1.258 . S
O412 Co409 1.966 . S
O412 C410 1.263 . S
C413 O414 1.235 . S
C413 O440 1.289 . S
O414 C413 1.235 . S
C415 C417 1.400 . S
C415 N418 1.351 . S
C415 C420 1.501 . S
C416 C417 1.387 . S
C416 N419 1.341 . S
C417 C415 1.400 . S
C417 C416 1.387 . S
N418 Co409 2.022 . S
N418 C415 1.351 . S
N418 N419 1.365 . S
N419 C416 1.341 . S
N419 N418 1.365 . S
N419 H439 0.862 . S
C420 C415 1.501 . S
C420 H421 0.961 . S
C420 H422 0.961 . S
C420 H423 0.960 . S
H421 C420 0.961 . S
H422 C420 0.961 . S
H423 C420 0.960 . S
C424 N425 1.342 . S
C424 C428 1.401 . S
C424 C429 1.499 . S
N425 Co408 1.989 . S
N425 C424 1.342 . S
N425 N426 1.388 . S
N426 Co409 1.993 . S
N426 N425 1.388 . S
N426 C427 1.346 . S
C427 N426 1.346 . S
C427 C428 1.396 . S
C427 C437 1.510 . S
C428 C424 1.401 . S
C428 C427 1.396 . S
C429 C424 1.499 . S
C429 H430 0.959 . S
C429 H431 0.960 . S
C429 H432 0.961 . S
H430 C429 0.959 . S
H431 C429 0.960 . S
H432 C429 0.961 . S
O433 Co408 1.967 . S
O433 C441 1.258 . S
O434 Co409 1.941 . S
O434 C441 1.266 . S
H435 C437 0.959 . S
H436 C437 0.961 . S
C437 C427 1.510 . S
C437 H435 0.959 . S
C437 H436 0.961 . S
C437 H438 0.960 . S
H438 C437 0.960 . S
H439 N419 0.862 . S
O440 Co408 1.920 . S
O440 C413 1.289 . S
C441 O433 1.258 . S
C441 O434 1.266 . S
Co442 O445 1.970 . S
Co442 N459 1.989 . S
Co442 O467 1.967 . S
Co442 O474 1.920 . S
Co443 O446 1.966 . S
Co443 N452 2.022 . S
Co443 N460 1.993 . S
Co443 O468 1.941 . S
C444 O445 1.258 . S
C444 O446 1.263 . S
O445 Co442 1.970 . S
O445 C444 1.258 . S
O446 Co443 1.966 . S
O446 C444 1.263 . S
C447 O448 1.235 . S
C447 O474 1.289 . S
O448 C447 1.235 . S
C449 C451 1.400 . S
C449 N452 1.351 . S
C449 C454 1.501 . S
C450 C451 1.387 1_565 S
C450 N453 1.341 . S
C451 C449 1.400 . S
C451 C450 1.387 1_545 S
N452 Co443 2.022 . S
N452 C449 1.351 . S
N452 N453 1.365 1_545 S
N453 C450 1.341 . S
N453 N452 1.365 1_565 S
N453 H473 0.862 . S
C454 C449 1.501 . S
C454 H455 0.961 . S
C454 H456 0.961 . S
C454 H457 0.960 . S
H455 C454 0.961 . S
H456 C454 0.961 . S
H457 C454 0.960 . S
C458 N459 1.342 . S
C458 C462 1.401 1_545 S
C458 C463 1.499 . S
N459 Co442 1.989 . S
N459 C458 1.342 . S
N459 N460 1.388 . S
N460 Co443 1.993 . S
N460 N459 1.388 . S
N460 C461 1.346 . S
C461 N460 1.346 . S
C461 C462 1.396 1_545 S
C461 C471 1.510 1_545 S
C462 C458 1.401 1_565 S
C462 C461 1.396 1_565 S
C463 C458 1.499 . S
C463 H464 0.959 . S
C463 H465 0.960 . S
C463 H466 0.962 . S
H464 C463 0.959 . S
H465 C463 0.960 . S
H466 C463 0.962 . S
O467 Co442 1.967 . S
O467 C475 1.258 . S
O468 Co443 1.941 . S
O468 C475 1.266 . S
H469 C471 0.959 . S
H470 C471 0.961 . S
C471 C461 1.510 1_565 S
C471 H469 0.959 . S
C471 H470 0.961 . S
C471 H472 0.960 . S
H472 C471 0.960 . S
H473 N453 0.862 . S
O474 Co442 1.920 . S
O474 C447 1.289 . S
C475 O467 1.258 . S
C475 O468 1.266 . S
Co476 O479 1.970 . S
Co476 N493 1.989 . S
Co476 O501 1.967 . S
Co476 O508 1.920 . S
Co477 O480 1.966 . S
Co477 N486 2.022 . S
Co477 N494 1.993 . S
Co477 O502 1.941 . S
C478 O479 1.258 . S
C478 O480 1.263 . S
O479 Co476 1.970 . S
O479 C478 1.258 . S
O480 Co477 1.966 . S
O480 C478 1.263 . S
C481 O482 1.235 . S
C481 O508 1.289 . S
O482 C481 1.235 . S
C483 C485 1.400 . S
C483 N486 1.351 . S
C483 C488 1.501 . S
C484 C485 1.387 . S
C484 N487 1.341 . S
C485 C483 1.400 . S
C485 C484 1.387 . S
N486 Co477 2.022 . S
N486 C483 1.351 . S
N486 N487 1.365 . S
N487 C484 1.341 . S
N487 N486 1.365 . S
N487 H507 0.862 . S
C488 C483 1.501 . S
C488 H489 0.961 . S
C488 H490 0.961 . S
C488 H491 0.960 . S
H489 C488 0.961 . S
H490 C488 0.961 . S
H491 C488 0.960 . S
C492 N493 1.342 . S
C492 C496 1.401 . S
C492 C497 1.499 . S
N493 Co476 1.989 . S
N493 C492 1.342 . S
N493 N494 1.388 . S
N494 Co477 1.993 . S
N494 N493 1.388 . S
N494 C495 1.346 . S
C495 N494 1.346 . S
C495 C496 1.396 . S
C495 C505 1.510 . S
C496 C492 1.401 . S
C496 C495 1.396 . S
C497 C492 1.499 . S
C497 H498 0.959 . S
C497 H499 0.960 . S
C497 H500 0.961 . S
H498 C497 0.959 . S
H499 C497 0.960 . S
H500 C497 0.961 . S
O501 Co476 1.967 . S
O501 C509 1.258 . S
O502 Co477 1.941 . S
O502 C509 1.266 . S
H503 C505 0.959 . S
H504 C505 0.961 . S
C505 C495 1.510 . S
C505 H503 0.959 . S
C505 H504 0.961 . S
C505 H506 0.960 . S
H506 C505 0.960 . S
H507 N487 0.862 . S
O508 Co476 1.920 . S
O508 C481 1.289 . S
C509 O501 1.258 . S
C509 O502 1.266 . S
Co510 O513 1.970 . S
Co510 N527 1.989 . S
Co510 O535 1.967 . S
Co510 O542 1.920 . S
Co511 O514 1.966 . S
Co511 N520 2.022 . S
Co511 N528 1.993 . S
Co511 O536 1.941 . S
C512 O513 1.258 . S
C512 O514 1.263 . S
O513 Co510 1.970 . S
O513 C512 1.258 . S
O514 Co511 1.966 . S
O514 C512 1.263 . S
C515 O516 1.235 1_554 S
C515 O542 1.289 . S
O516 C515 1.235 1_556 S
C517 C519 1.400 . S
C517 N520 1.351 . S
C517 C522 1.501 . S
C518 C519 1.387 1_545 S
C518 N521 1.341 . S
C519 C517 1.400 . S
C519 C518 1.387 1_565 S
N520 Co511 2.022 . S
N520 C517 1.351 . S
N520 N521 1.365 1_565 S
N521 C518 1.341 . S
N521 N520 1.365 1_545 S
N521 H541 0.862 . S
C522 C517 1.501 . S
C522 H523 0.961 . S
C522 H524 0.961 . S
C522 H525 0.960 . S
H523 C522 0.961 . S
H524 C522 0.961 . S
H525 C522 0.960 . S
C526 N527 1.342 . S
C526 C530 1.401 1_565 S
C526 C531 1.499 1_554 S
N527 Co510 1.989 . S
N527 C526 1.342 . S
N527 N528 1.388 . S
N528 Co511 1.993 . S
N528 N527 1.388 . S
N528 C529 1.346 . S
C529 N528 1.346 . S
C529 C530 1.396 1_565 S
C529 C539 1.510 1_565 S
C530 C526 1.401 1_545 S
C530 C529 1.396 1_545 S
C531 C526 1.499 1_556 S
C531 H532 0.959 . S
C531 H533 0.960 . S
C531 H534 0.962 . S
H532 C531 0.959 . S
H533 C531 0.960 . S
H534 C531 0.962 . S
O535 Co510 1.967 . S
O535 C543 1.258 . S
O536 Co511 1.941 . S
O536 C543 1.266 . S
H537 C539 0.959 . S
H538 C539 0.961 . S
C539 C529 1.510 1_545 S
C539 H537 0.959 . S
C539 H538 0.961 . S
C539 H540 0.960 . S
H540 C539 0.960 . S
H541 N521 0.862 . S
O542 Co510 1.920 . S
O542 C515 1.289 . S
C543 O535 1.258 . S
C543 O536 1.266 . S
Co544 O547 1.970 . S
Co544 N561 1.989 . S
Co544 O569 1.967 . S
Co544 O576 1.920 . S
Co545 O548 1.966 . S
Co545 N554 2.022 . S
Co545 N562 1.993 . S
Co545 O570 1.941 . S
C546 O547 1.258 . S
C546 O548 1.263 . S
O547 Co544 1.970 . S
O547 C546 1.258 . S
O548 Co545 1.966 . S
O548 C546 1.263 . S
C549 O550 1.235 . S
C549 O576 1.289 . S
O550 C549 1.235 . S
C551 C553 1.400 . S
C551 N554 1.351 . S
C551 C556 1.501 . S
C552 C553 1.387 . S
C552 N555 1.341 . S
C553 C551 1.400 . S
C553 C552 1.387 . S
N554 Co545 2.022 . S
N554 C551 1.351 . S
N554 N555 1.365 . S
N555 C552 1.341 . S
N555 N554 1.365 . S
N555 H575 0.862 . S
C556 C551 1.501 . S
C556 H557 0.961 . S
C556 H558 0.961 . S
C556 H559 0.960 . S
H557 C556 0.961 . S
H558 C556 0.961 . S
H559 C556 0.960 . S
C560 N561 1.342 . S
C560 C564 1.401 . S
C560 C565 1.499 . S
N561 Co544 1.989 . S
N561 C560 1.342 . S
N561 N562 1.388 . S
N562 Co545 1.993 . S
N562 N561 1.388 . S
N562 C563 1.346 . S
C563 N562 1.346 . S
C563 C564 1.396 . S
C563 C573 1.510 . S
C564 C560 1.401 . S
C564 C563 1.396 . S
C565 C560 1.499 . S
C565 H566 0.959 . S
C565 H567 0.960 . S
C565 H568 0.961 . S
H566 C565 0.959 . S
H567 C565 0.960 . S
H568 C565 0.961 . S
O569 Co544 1.967 . S
O569 C577 1.258 . S
O570 Co545 1.941 . S
O570 C577 1.266 . S
H571 C573 0.959 . S
H572 C573 0.961 . S
C573 C563 1.510 . S
C573 H571 0.959 . S
C573 H572 0.961 . S
C573 H574 0.960 . S
H574 C573 0.960 . S
H575 N555 0.862 . S
O576 Co544 1.920 . S
O576 C549 1.289 . S
C577 O569 1.258 . S
C577 O570 1.266 . S
Co578 O581 1.970 . S
Co578 N595 1.989 . S
Co578 O603 1.967 . S
Co578 O610 1.920 . S
Co579 O582 1.966 . S
Co579 N588 2.022 . S
Co579 N596 1.993 . S
Co579 O604 1.941 . S
C580 O581 1.258 . S
C580 O582 1.263 . S
O581 Co578 1.970 . S
O581 C580 1.258 . S
O582 Co579 1.966 . S
O582 C580 1.263 . S
C583 O584 1.235 . S
C583 O610 1.289 . S
O584 C583 1.235 . S
C585 C587 1.400 . S
C585 N588 1.351 . S
C585 C590 1.501 . S
C586 C587 1.387 . S
C586 N589 1.341 . S
C587 C585 1.400 . S
C587 C586 1.387 . S
N588 Co579 2.022 . S
N588 C585 1.351 . S
N588 N589 1.365 . S
N589 C586 1.341 . S
N589 N588 1.365 . S
N589 H609 0.862 . S
C590 C585 1.501 . S
C590 H591 0.961 . S
C590 H592 0.961 . S
C590 H593 0.960 . S
H591 C590 0.961 . S
H592 C590 0.961 . S
H593 C590 0.960 . S
C594 N595 1.342 . S
C594 C598 1.401 . S
C594 C599 1.499 . S
N595 Co578 1.989 . S
N595 C594 1.342 . S
N595 N596 1.388 . S
N596 Co579 1.993 . S
N596 N595 1.388 . S
N596 C597 1.346 . S
C597 N596 1.346 . S
C597 C598 1.396 . S
C597 C607 1.510 . S
C598 C594 1.401 . S
C598 C597 1.396 . S
C599 C594 1.499 . S
C599 H600 0.959 . S
C599 H601 0.960 . S
C599 H602 0.961 . S
H600 C599 0.959 . S
H601 C599 0.960 . S
H602 C599 0.961 . S
O603 Co578 1.967 . S
O603 C611 1.258 . S
O604 Co579 1.941 . S
O604 C611 1.266 . S
H605 C607 0.959 . S
H606 C607 0.961 . S
C607 C597 1.510 . S
C607 H605 0.959 . S
C607 H606 0.961 . S
C607 H608 0.960 . S
H608 C607 0.960 . S
H609 N589 0.862 . S
O610 Co578 1.920 . S
O610 C583 1.289 . S
C611 O603 1.258 . S
C611 O604 1.266 . S
Co612 O615 1.970 . S
Co612 N629 1.989 . S
Co612 O637 1.967 . S
Co612 O644 1.920 . S
Co613 O616 1.966 . S
Co613 N622 2.022 . S
Co613 N630 1.993 . S
Co613 O638 1.941 . S
C614 O615 1.258 . S
C614 O616 1.263 . S
O615 Co612 1.970 . S
O615 C614 1.258 . S
O616 Co613 1.966 . S
O616 C614 1.263 . S
C617 O618 1.235 . S
C617 O644 1.289 . S
O618 C617 1.235 . S
C619 C621 1.400 . S
C619 N622 1.351 . S
C619 C624 1.501 . S
C620 C621 1.387 1_655 S
C620 N623 1.341 . S
C621 C619 1.400 . S
C621 C620 1.387 1_455 S
N622 Co613 2.022 . S
N622 C619 1.351 . S
N622 N623 1.365 1_455 S
N623 C620 1.341 . S
N623 N622 1.365 1_655 S
N623 H643 0.862 . S
C624 C619 1.501 . S
C624 H625 0.961 . S
C624 H626 0.961 . S
C624 H627 0.960 . S
H625 C624 0.961 . S
H626 C624 0.961 . S
H627 C624 0.960 . S
C628 N629 1.342 . S
C628 C632 1.401 1_455 S
C628 C633 1.499 . S
N629 Co612 1.989 . S
N629 C628 1.342 . S
N629 N630 1.388 . S
N630 Co613 1.993 . S
N630 N629 1.388 . S
N630 C631 1.346 . S
C631 N630 1.346 . S
C631 C632 1.396 1_455 S
C631 C641 1.510 1_455 S
C632 C628 1.401 1_655 S
C632 C631 1.396 1_655 S
C633 C628 1.499 . S
C633 H634 0.959 . S
C633 H635 0.960 . S
C633 H636 0.962 . S
H634 C633 0.959 . S
H635 C633 0.960 . S
H636 C633 0.962 . S
O637 Co612 1.967 . S
O637 C645 1.258 . S
O638 Co613 1.941 . S
O638 C645 1.266 . S
H639 C641 0.959 . S
H640 C641 0.961 . S
C641 C631 1.510 1_655 S
C641 H639 0.959 . S
C641 H640 0.961 . S
C641 H642 0.960 . S
H642 C641 0.960 . S
H643 N623 0.862 . S
O644 Co612 1.920 . S
O644 C617 1.289 . S
C645 O637 1.258 . S
C645 O638 1.266 . S
Co646 O649 1.970 . S
Co646 N663 1.989 . S
Co646 O671 1.967 . S
Co646 O678 1.920 . S
Co647 O650 1.966 . S
Co647 N656 2.022 . S
Co647 N664 1.993 . S
Co647 O672 1.941 . S
C648 O649 1.258 . S
C648 O650 1.263 . S
O649 Co646 1.970 . S
O649 C648 1.258 . S
O650 Co647 1.966 . S
O650 C648 1.263 . S
C651 O652 1.235 . S
C651 O678 1.289 . S
O652 C651 1.235 . S
C653 C655 1.400 . S
C653 N656 1.351 . S
C653 C658 1.501 . S
C654 C655 1.387 . S
C654 N657 1.341 . S
C655 C653 1.400 . S
C655 C654 1.387 . S
N656 Co647 2.022 . S
N656 C653 1.351 . S
N656 N657 1.365 . S
N657 C654 1.341 . S
N657 N656 1.365 . S
N657 H677 0.862 . S
C658 C653 1.501 . S
C658 H659 0.961 . S
C658 H660 0.961 . S
C658 H661 0.960 . S
H659 C658 0.961 . S
H660 C658 0.961 . S
H661 C658 0.960 . S
C662 N663 1.342 . S
C662 C666 1.401 . S
C662 C667 1.499 . S
N663 Co646 1.989 . S
N663 C662 1.342 . S
N663 N664 1.388 . S
N664 Co647 1.993 . S
N664 N663 1.388 . S
N664 C665 1.346 . S
C665 N664 1.346 . S
C665 C666 1.396 . S
C665 C675 1.510 . S
C666 C662 1.401 . S
C666 C665 1.396 . S
C667 C662 1.499 . S
C667 H668 0.959 . S
C667 H669 0.960 . S
C667 H670 0.961 . S
H668 C667 0.959 . S
H669 C667 0.960 . S
H670 C667 0.961 . S
O671 Co646 1.967 . S
O671 C679 1.258 . S
O672 Co647 1.941 . S
O672 C679 1.266 . S
H673 C675 0.959 . S
H674 C675 0.961 . S
C675 C665 1.510 . S
C675 H673 0.959 . S
C675 H674 0.961 . S
C675 H676 0.960 . S
H676 C675 0.960 . S
H677 N657 0.862 . S
O678 Co646 1.920 . S
O678 C651 1.289 . S
C679 O671 1.258 . S
C679 O672 1.266 . S
Co680 O683 1.970 . S
Co680 N697 1.989 . S
Co680 O705 1.967 . S
Co680 O712 1.920 . S
Co681 O684 1.966 . S
Co681 N690 2.022 . S
Co681 N698 1.993 . S
Co681 O706 1.941 . S
C682 O683 1.258 . S
C682 O684 1.263 . S
O683 Co680 1.970 . S
O683 C682 1.258 . S
O684 Co681 1.966 . S
O684 C682 1.263 . S
C685 O686 1.235 1_545 S
C685 O712 1.289 . S
O686 C685 1.235 1_565 S
C687 C689 1.400 . S
C687 N690 1.351 . S
C687 C692 1.501 . S
C688 C689 1.387 1_455 S
C688 N691 1.341 . S
C689 C687 1.400 . S
C689 C688 1.387 1_655 S
N690 Co681 2.022 . S
N690 C687 1.351 . S
N690 N691 1.365 1_655 S
N691 C688 1.341 . S
N691 N690 1.365 1_455 S
N691 H711 0.862 . S
C692 C687 1.501 . S
C692 H693 0.961 . S
C692 H694 0.961 . S
C692 H695 0.960 . S
H693 C692 0.961 . S
H694 C692 0.961 . S
H695 C692 0.960 . S
C696 N697 1.342 . S
C696 C700 1.401 1_655 S
C696 C701 1.499 1_545 S
N697 Co680 1.989 . S
N697 C696 1.342 . S
N697 N698 1.388 . S
N698 Co681 1.993 . S
N698 N697 1.388 . S
N698 C699 1.346 . S
C699 N698 1.346 . S
C699 C700 1.396 1_655 S
C699 C709 1.510 1_655 S
C700 C696 1.401 1_455 S
C700 C699 1.396 1_455 S
C701 C696 1.499 1_565 S
C701 H702 0.959 . S
C701 H703 0.960 . S
C701 H704 0.962 . S
H702 C701 0.959 . S
H703 C701 0.960 . S
H704 C701 0.962 . S
O705 Co680 1.967 . S
O705 C713 1.258 . S
O706 Co681 1.941 . S
O706 C713 1.266 . S
H707 C709 0.959 . S
H708 C709 0.961 . S
C709 C699 1.510 1_455 S
C709 H707 0.959 . S
C709 H708 0.961 . S
C709 H710 0.960 . S
H710 C709 0.960 . S
H711 N691 0.862 . S
O712 Co680 1.920 . S
O712 C685 1.289 . S
C713 O705 1.258 . S
C713 O706 1.266 . S
Co714 O717 1.970 . S
Co714 N731 1.989 . S
Co714 O739 1.967 . S
Co714 O746 1.920 . S
Co715 O718 1.966 . S
Co715 N724 2.022 . S
Co715 N732 1.993 . S
Co715 O740 1.941 . S
C716 O717 1.258 . S
C716 O718 1.263 . S
O717 Co714 1.970 . S
O717 C716 1.258 . S
O718 Co715 1.966 . S
O718 C716 1.263 . S
C719 O720 1.235 . S
C719 O746 1.289 . S
O720 C719 1.235 . S
C721 C723 1.400 . S
C721 N724 1.351 . S
C721 C726 1.501 . S
C722 C723 1.387 . S
C722 N725 1.341 . S
C723 C721 1.400 . S
C723 C722 1.387 . S
N724 Co715 2.022 . S
N724 C721 1.351 . S
N724 N725 1.365 . S
N725 C722 1.341 . S
N725 N724 1.365 . S
N725 H745 0.862 . S
C726 C721 1.501 . S
C726 H727 0.961 . S
C726 H728 0.961 . S
C726 H729 0.960 . S
H727 C726 0.961 . S
H728 C726 0.961 . S
H729 C726 0.960 . S
C730 N731 1.342 . S
C730 C734 1.401 . S
C730 C735 1.499 . S
N731 Co714 1.989 . S
N731 C730 1.342 . S
N731 N732 1.388 . S
N732 Co715 1.993 . S
N732 N731 1.388 . S
N732 C733 1.346 . S
C733 N732 1.346 . S
C733 C734 1.396 . S
C733 C743 1.510 . S
C734 C730 1.401 . S
C734 C733 1.396 . S
C735 C730 1.499 . S
C735 H736 0.959 . S
C735 H737 0.960 . S
C735 H738 0.961 . S
H736 C735 0.959 . S
H737 C735 0.960 . S
H738 C735 0.961 . S
O739 Co714 1.967 . S
O739 C747 1.258 . S
O740 Co715 1.941 . S
O740 C747 1.266 . S
H741 C743 0.959 . S
H742 C743 0.961 . S
C743 C733 1.510 . S
C743 H741 0.959 . S
C743 H742 0.961 . S
C743 H744 0.960 . S
H744 C743 0.960 . S
H745 N725 0.862 . S
O746 Co714 1.920 . S
O746 C719 1.289 . S
C747 O739 1.258 . S
C747 O740 1.266 . S
Co748 O751 1.970 . S
Co748 N765 1.989 . S
Co748 O773 1.967 . S
Co748 O780 1.920 . S
Co749 O752 1.966 . S
Co749 N758 2.022 . S
Co749 N766 1.993 . S
Co749 O774 1.941 . S
C750 O751 1.258 . S
C750 O752 1.263 . S
O751 Co748 1.970 . S
O751 C750 1.258 . S
O752 Co749 1.966 . S
O752 C750 1.263 . S
C753 O754 1.235 . S
C753 O780 1.289 . S
O754 C753 1.235 . S
C755 C757 1.400 . S
C755 N758 1.351 . S
C755 C760 1.501 . S
C756 C757 1.387 1_655 S
C756 N759 1.341 . S
C757 C755 1.400 . S
C757 C756 1.387 1_455 S
N758 Co749 2.022 . S
N758 C755 1.351 . S
N758 N759 1.365 1_455 S
N759 C756 1.341 . S
N759 N758 1.365 1_655 S
N759 H779 0.862 . S
C760 C755 1.501 . S
C760 H761 0.961 . S
C760 H762 0.961 . S
C760 H763 0.960 . S
H761 C760 0.961 . S
H762 C760 0.961 . S
H763 C760 0.960 . S
C764 N765 1.342 . S
C764 C768 1.401 1_455 S
C764 C769 1.499 . S
N765 Co748 1.989 . S
N765 C764 1.342 . S
N765 N766 1.388 . S
N766 Co749 1.993 . S
N766 N765 1.388 . S
N766 C767 1.346 . S
C767 N766 1.346 . S
C767 C768 1.396 1_455 S
C767 C777 1.510 1_455 S
C768 C764 1.401 1_655 S
C768 C767 1.396 1_655 S
C769 C764 1.499 . S
C769 H770 0.959 . S
C769 H771 0.960 . S
C769 H772 0.962 . S
H770 C769 0.959 . S
H771 C769 0.960 . S
H772 C769 0.962 . S
O773 Co748 1.967 . S
O773 C781 1.258 . S
O774 Co749 1.941 . S
O774 C781 1.266 . S
H775 C777 0.959 . S
H776 C777 0.961 . S
C777 C767 1.510 1_655 S
C777 H775 0.959 . S
C777 H776 0.961 . S
C777 H778 0.960 . S
H778 C777 0.960 . S
H779 N759 0.862 . S
O780 Co748 1.920 . S
O780 C753 1.289 . S
C781 O773 1.258 . S
C781 O774 1.266 . S
Co782 O785 1.970 . S
Co782 N799 1.989 . S
Co782 O807 1.967 . S
Co782 O814 1.920 . S
Co783 O786 1.966 . S
Co783 N792 2.022 . S
Co783 N800 1.993 . S
Co783 O808 1.941 . S
C784 O785 1.258 . S
C784 O786 1.263 . S
O785 Co782 1.970 . S
O785 C784 1.258 . S
O786 Co783 1.966 . S
O786 C784 1.263 . S
C787 O788 1.235 . S
C787 O814 1.289 . S
O788 C787 1.235 . S
C789 C791 1.400 . S
C789 N792 1.351 . S
C789 C794 1.501 . S
C790 C791 1.387 . S
C790 N793 1.341 . S
C791 C789 1.400 . S
C791 C790 1.387 . S
N792 Co783 2.022 . S
N792 C789 1.351 . S
N792 N793 1.365 . S
N793 C790 1.341 . S
N793 N792 1.365 . S
N793 H813 0.862 . S
C794 C789 1.501 . S
C794 H795 0.961 . S
C794 H796 0.961 . S
C794 H797 0.960 . S
H795 C794 0.961 . S
H796 C794 0.961 . S
H797 C794 0.960 . S
C798 N799 1.342 . S
C798 C802 1.401 . S
C798 C803 1.499 . S
N799 Co782 1.989 . S
N799 C798 1.342 . S
N799 N800 1.388 . S
N800 Co783 1.993 . S
N800 N799 1.388 . S
N800 C801 1.346 . S
C801 N800 1.346 . S
C801 C802 1.396 . S
C801 C811 1.510 . S
C802 C798 1.401 . S
C802 C801 1.396 . S
C803 C798 1.499 . S
C803 H804 0.959 . S
C803 H805 0.960 . S
C803 H806 0.961 . S
H804 C803 0.959 . S
H805 C803 0.960 . S
H806 C803 0.961 . S
O807 Co782 1.967 . S
O807 C815 1.258 . S
O808 Co783 1.941 . S
O808 C815 1.266 . S
H809 C811 0.959 . S
H810 C811 0.961 . S
C811 C801 1.510 . S
C811 H809 0.959 . S
C811 H810 0.961 . S
C811 H812 0.960 . S
H812 C811 0.960 . S
H813 N793 0.862 . S
O814 Co782 1.920 . S
O814 C787 1.289 . S
C815 O807 1.258 . S
C815 O808 1.266 . S
Co816 O819 1.970 . S
Co816 N833 1.989 . S
Co816 O841 1.967 . S
Co816 O848 1.920 . S
Co817 O820 1.966 . S
Co817 N826 2.022 . S
Co817 N834 1.993 . S
Co817 O842 1.941 . S
C818 O819 1.258 . S
C818 O820 1.263 . S
O819 Co816 1.970 . S
O819 C818 1.258 . S
O820 Co817 1.966 . S
O820 C818 1.263 . S
C821 O822 1.235 . S
C821 O848 1.289 . S
O822 C821 1.235 . S
C823 C825 1.400 . S
C823 N826 1.351 . S
C823 C828 1.501 . S
C824 C825 1.387 . S
C824 N827 1.341 . S
C825 C823 1.400 . S
C825 C824 1.387 . S
N826 Co817 2.022 . S
N826 C823 1.351 . S
N826 N827 1.365 . S
N827 C824 1.341 . S
N827 N826 1.365 . S
N827 H847 0.862 . S
C828 C823 1.501 . S
C828 H829 0.961 . S
C828 H830 0.961 . S
C828 H831 0.960 . S
H829 C828 0.961 . S
H830 C828 0.961 . S
H831 C828 0.960 . S
C832 N833 1.342 . S
C832 C836 1.401 . S
C832 C837 1.499 . S
N833 Co816 1.989 . S
N833 C832 1.342 . S
N833 N834 1.388 . S
N834 Co817 1.993 . S
N834 N833 1.388 . S
N834 C835 1.346 . S
C835 N834 1.346 . S
C835 C836 1.396 . S
C835 C845 1.510 . S
C836 C832 1.401 . S
C836 C835 1.396 . S
C837 C832 1.499 . S
C837 H838 0.959 . S
C837 H839 0.960 . S
C837 H840 0.961 . S
H838 C837 0.959 . S
H839 C837 0.960 . S
H840 C837 0.961 . S
O841 Co816 1.967 . S
O841 C849 1.258 . S
O842 Co817 1.941 . S
O842 C849 1.266 . S
H843 C845 0.959 . S
H844 C845 0.961 . S
C845 C835 1.510 . S
C845 H843 0.959 . S
C845 H844 0.961 . S
C845 H846 0.960 . S
H846 C845 0.960 . S
H847 N827 0.862 . S
O848 Co816 1.920 . S
O848 C821 1.289 . S
C849 O841 1.258 . S
C849 O842 1.266 . S
Co850 O853 1.970 . S
Co850 N867 1.989 . S
Co850 O875 1.967 . S
Co850 O882 1.920 . S
Co851 O854 1.966 . S
Co851 N860 2.022 . S
Co851 N868 1.993 . S
Co851 O876 1.941 . S
C852 O853 1.258 . S
C852 O854 1.263 . S
O853 Co850 1.970 . S
O853 C852 1.258 . S
O854 Co851 1.966 . S
O854 C852 1.263 . S
C855 O856 1.235 . S
C855 O882 1.289 . S
O856 C855 1.235 . S
C857 C859 1.400 . S
C857 N860 1.351 . S
C857 C862 1.501 . S
C858 C859 1.387 1_556 S
C858 N861 1.341 . S
C859 C857 1.400 . S
C859 C858 1.387 1_554 S
N860 Co851 2.022 . S
N860 C857 1.351 . S
N860 N861 1.365 1_554 S
N861 C858 1.341 . S
N861 N860 1.365 1_556 S
N861 H881 0.862 . S
C862 C857 1.501 . S
C862 H863 0.961 . S
C862 H864 0.961 . S
C862 H865 0.960 . S
H863 C862 0.961 . S
H864 C862 0.961 . S
H865 C862 0.960 . S
C866 N867 1.342 . S
C866 C870 1.401 1_554 S
C866 C871 1.499 . S
N867 Co850 1.989 . S
N867 C866 1.342 . S
N867 N868 1.388 . S
N868 Co851 1.993 . S
N868 N867 1.388 . S
N868 C869 1.346 . S
C869 N868 1.346 . S
C869 C870 1.396 1_554 S
C869 C879 1.510 1_554 S
C870 C866 1.401 1_556 S
C870 C869 1.396 1_556 S
C871 C866 1.499 . S
C871 H872 0.959 . S
C871 H873 0.960 . S
C871 H874 0.962 . S
H872 C871 0.959 . S
H873 C871 0.960 . S
H874 C871 0.962 . S
O875 Co850 1.967 . S
O875 C883 1.258 . S
O876 Co851 1.941 . S
O876 C883 1.266 . S
H877 C879 0.959 . S
H878 C879 0.961 . S
C879 C869 1.510 1_556 S
C879 H877 0.959 . S
C879 H878 0.961 . S
C879 H880 0.960 . S
H880 C879 0.960 . S
H881 N861 0.862 . S
O882 Co850 1.920 . S
O882 C855 1.289 . S
C883 O875 1.258 . S
C883 O876 1.266 . S
Co884 O887 1.970 . S
Co884 N901 1.989 . S
Co884 O909 1.967 . S
Co884 O916 1.920 . S
Co885 O888 1.966 . S
Co885 N894 2.022 . S
Co885 N902 1.993 . S
Co885 O910 1.941 . S
C886 O887 1.258 . S
C886 O888 1.263 . S
O887 Co884 1.970 . S
O887 C886 1.258 . S
O888 Co885 1.966 . S
O888 C886 1.263 . S
C889 O890 1.235 . S
C889 O916 1.289 . S
O890 C889 1.235 . S
C891 C893 1.400 . S
C891 N894 1.351 . S
C891 C896 1.501 . S
C892 C893 1.387 . S
C892 N895 1.341 . S
C893 C891 1.400 . S
C893 C892 1.387 . S
N894 Co885 2.022 . S
N894 C891 1.351 . S
N894 N895 1.365 . S
N895 C892 1.341 . S
N895 N894 1.365 . S
N895 H915 0.862 . S
C896 C891 1.501 . S
C896 H897 0.961 . S
C896 H898 0.961 . S
C896 H899 0.960 . S
H897 C896 0.961 . S
H898 C896 0.961 . S
H899 C896 0.960 . S
C900 N901 1.342 . S
C900 C904 1.401 . S
C900 C905 1.499 . S
N901 Co884 1.989 . S
N901 C900 1.342 . S
N901 N902 1.388 . S
N902 Co885 1.993 . S
N902 N901 1.388 . S
N902 C903 1.346 . S
C903 N902 1.346 . S
C903 C904 1.396 . S
C903 C913 1.510 . S
C904 C900 1.401 . S
C904 C903 1.396 . S
C905 C900 1.499 . S
C905 H906 0.959 . S
C905 H907 0.960 . S
C905 H908 0.961 . S
H906 C905 0.959 . S
H907 C905 0.960 . S
H908 C905 0.961 . S
O909 Co884 1.967 . S
O909 C917 1.258 . S
O910 Co885 1.941 . S
O910 C917 1.266 . S
H911 C913 0.959 . S
H912 C913 0.961 . S
C913 C903 1.510 . S
C913 H911 0.959 . S
C913 H912 0.961 . S
C913 H914 0.960 . S
H914 C913 0.960 . S
H915 N895 0.862 . S
O916 Co884 1.920 . S
O916 C889 1.289 . S
C917 O909 1.258 . S
C917 O910 1.266 . S
Co918 O921 1.970 . S
Co918 N935 1.989 . S
Co918 O943 1.967 . S
Co918 O950 1.920 . S
Co919 O922 1.966 . S
Co919 N928 2.022 . S
Co919 N936 1.993 . S
Co919 O944 1.941 . S
C920 O921 1.258 . S
C920 O922 1.263 . S
O921 Co918 1.970 . S
O921 C920 1.258 . S
O922 Co919 1.966 . S
O922 C920 1.263 . S
C923 O924 1.235 1_655 S
C923 O950 1.289 . S
O924 C923 1.235 1_455 S
C925 C927 1.400 . S
C925 N928 1.351 . S
C925 C930 1.501 . S
C926 C927 1.387 . S
C926 N929 1.341 . S
C927 C925 1.400 . S
C927 C926 1.387 . S
N928 Co919 2.022 . S
N928 C925 1.351 . S
N928 N929 1.365 . S
N929 C926 1.341 . S
N929 N928 1.365 . S
N929 H949 0.862 . S
C930 C925 1.501 . S
C930 H931 0.961 . S
C930 H932 0.961 . S
C930 H933 0.960 . S
H931 C930 0.961 . S
H932 C930 0.961 . S
H933 C930 0.960 . S
C934 N935 1.342 . S
C934 C938 1.401 . S
C934 C939 1.499 1_655 S
N935 Co918 1.989 . S
N935 C934 1.342 . S
N935 N936 1.388 . S
N936 Co919 1.993 . S
N936 N935 1.388 . S
N936 C937 1.346 . S
C937 N936 1.346 . S
C937 C938 1.396 . S
C937 C947 1.510 . S
C938 C934 1.401 . S
C938 C937 1.396 . S
C939 C934 1.499 1_455 S
C939 H940 0.959 . S
C939 H941 0.960 . S
C939 H942 0.961 . S
H940 C939 0.959 . S
H941 C939 0.960 . S
H942 C939 0.961 . S
O943 Co918 1.967 . S
O943 C951 1.258 . S
O944 Co919 1.941 . S
O944 C951 1.266 . S
H945 C947 0.959 . S
H946 C947 0.961 . S
C947 C937 1.510 . S
C947 H945 0.959 . S
C947 H946 0.961 . S
C947 H948 0.960 . S
H948 C947 0.960 . S
H949 N929 0.862 . S
O950 Co918 1.920 . S
O950 C923 1.289 . S
C951 O943 1.258 . S
C951 O944 1.266 . S
Co952 O955 1.970 . S
Co952 N969 1.989 . S
Co952 O977 1.967 . S
Co952 O984 1.920 . S
Co953 O956 1.966 . S
Co953 N962 2.022 . S
Co953 N970 1.993 . S
Co953 O978 1.941 . S
C954 O955 1.258 . S
C954 O956 1.263 . S
O955 Co952 1.970 . S
O955 C954 1.258 . S
O956 Co953 1.966 . S
O956 C954 1.263 . S
C957 O958 1.235 . S
C957 O984 1.289 . S
O958 C957 1.235 . S
C959 C961 1.400 . S
C959 N962 1.351 . S
C959 C964 1.501 . S
C960 C961 1.387 . S
C960 N963 1.341 . S
C961 C959 1.400 . S
C961 C960 1.387 . S
N962 Co953 2.022 . S
N962 C959 1.351 . S
N962 N963 1.365 . S
N963 C960 1.341 . S
N963 N962 1.365 . S
N963 H983 0.862 . S
C964 C959 1.501 . S
C964 H965 0.961 . S
C964 H966 0.961 . S
C964 H967 0.960 . S
H965 C964 0.961 . S
H966 C964 0.961 . S
H967 C964 0.960 . S
C968 N969 1.342 . S
C968 C972 1.401 . S
C968 C973 1.499 . S
N969 Co952 1.989 . S
N969 C968 1.342 . S
N969 N970 1.388 . S
N970 Co953 1.993 . S
N970 N969 1.388 . S
N970 C971 1.346 . S
C971 N970 1.346 . S
C971 C972 1.396 . S
C971 C981 1.510 . S
C972 C968 1.401 . S
C972 C971 1.396 . S
C973 C968 1.499 . S
C973 H974 0.959 . S
C973 H975 0.960 . S
C973 H976 0.961 . S
H974 C973 0.959 . S
H975 C973 0.960 . S
H976 C973 0.961 . S
O977 Co952 1.967 . S
O977 C985 1.258 . S
O978 Co953 1.941 . S
O978 C985 1.266 . S
H979 C981 0.959 . S
H980 C981 0.961 . S
C981 C971 1.510 . S
C981 H979 0.959 . S
C981 H980 0.961 . S
C981 H982 0.960 . S
H982 C981 0.960 . S
H983 N963 0.862 . S
O984 Co952 1.920 . S
O984 C957 1.289 . S
C985 O977 1.258 . S
C985 O978 1.266 . S
Co986 O989 1.970 . S
Co986 N1003 1.989 . S
Co986 O1011 1.967 . S
Co986 O1018 1.920 . S
Co987 O990 1.966 . S
Co987 N996 2.022 . S
Co987 N1004 1.993 . S
Co987 O1012 1.941 . S
C988 O989 1.258 . S
C988 O990 1.263 . S
O989 Co986 1.970 . S
O989 C988 1.258 . S
O990 Co987 1.966 . S
O990 C988 1.263 . S
C991 O992 1.235 1_655 S
C991 O1018 1.289 . S
O992 C991 1.235 1_455 S
C993 C995 1.400 . S
C993 N996 1.351 . S
C993 C998 1.501 . S
C994 C995 1.387 1_554 S
C994 N997 1.341 . S
C995 C993 1.400 . S
C995 C994 1.387 1_556 S
N996 Co987 2.022 . S
N996 C993 1.351 . S
N996 N997 1.365 1_556 S
N997 C994 1.341 . S
N997 N996 1.365 1_554 S
N997 H1017 0.862 . S
C998 C993 1.501 . S
C998 H999 0.961 . S
C998 H1000 0.961 . S
C998 H1001 0.960 . S
H999 C998 0.961 . S
H1000 C998 0.961 . S
H1001 C998 0.960 . S
C1002 N1003 1.342 . S
C1002 C1006 1.401 1_556 S
C1002 C1007 1.499 1_655 S
N1003 Co986 1.989 . S
N1003 C1002 1.342 . S
N1003 N1004 1.388 . S
N1004 Co987 1.993 . S
N1004 N1003 1.388 . S
N1004 C1005 1.346 . S
C1005 N1004 1.346 . S
C1005 C1006 1.396 1_556 S
C1005 C1015 1.510 1_556 S
C1006 C1002 1.401 1_554 S
C1006 C1005 1.396 1_554 S
C1007 C1002 1.499 1_455 S
C1007 H1008 0.959 . S
C1007 H1009 0.960 . S
C1007 H1010 0.962 . S
H1008 C1007 0.959 . S
H1009 C1007 0.960 . S
H1010 C1007 0.962 . S
O1011 Co986 1.967 . S
O1011 C1019 1.258 . S
O1012 Co987 1.941 . S
O1012 C1019 1.266 . S
H1013 C1015 0.959 . S
H1014 C1015 0.961 . S
C1015 C1005 1.510 1_554 S
C1015 H1013 0.959 . S
C1015 H1014 0.961 . S
C1015 H1016 0.960 . S
H1016 C1015 0.960 . S
H1017 N997 0.862 . S
O1018 Co986 1.920 . S
O1018 C991 1.289 . S
C1019 O1011 1.258 . S
C1019 O1012 1.266 . S
Co1020 O1023 1.970 . S
Co1020 N1037 1.989 . S
Co1020 O1045 1.967 . S
Co1020 O1052 1.920 . S
Co1021 O1024 1.966 . S
Co1021 N1030 2.022 . S
Co1021 N1038 1.993 . S
Co1021 O1046 1.941 . S
C1022 O1023 1.258 . S
C1022 O1024 1.263 . S
O1023 Co1020 1.970 . S
O1023 C1022 1.258 . S
O1024 Co1021 1.966 . S
O1024 C1022 1.263 . S
C1025 O1026 1.235 . S
C1025 O1052 1.289 . S
O1026 C1025 1.235 . S
C1027 C1029 1.400 . S
C1027 N1030 1.351 . S
C1027 C1032 1.501 . S
C1028 C1029 1.387 . S
C1028 N1031 1.341 . S
C1029 C1027 1.400 . S
C1029 C1028 1.387 . S
N1030 Co1021 2.022 . S
N1030 C1027 1.351 . S
N1030 N1031 1.365 . S
N1031 C1028 1.341 . S
N1031 N1030 1.365 . S
N1031 H1051 0.862 . S
C1032 C1027 1.501 . S
C1032 H1033 0.961 . S
C1032 H1034 0.961 . S
C1032 H1035 0.960 . S
H1033 C1032 0.961 . S
H1034 C1032 0.961 . S
H1035 C1032 0.960 . S
C1036 N1037 1.342 . S
C1036 C1040 1.401 . S
C1036 C1041 1.499 . S
N1037 Co1020 1.989 . S
N1037 C1036 1.342 . S
N1037 N1038 1.388 . S
N1038 Co1021 1.993 . S
N1038 N1037 1.388 . S
N1038 C1039 1.346 . S
C1039 N1038 1.346 . S
C1039 C1040 1.396 . S
C1039 C1049 1.510 . S
C1040 C1036 1.401 . S
C1040 C1039 1.396 . S
C1041 C1036 1.499 . S
C1041 H1042 0.959 . S
C1041 H1043 0.960 . S
C1041 H1044 0.961 . S
H1042 C1041 0.959 . S
H1043 C1041 0.960 . S
H1044 C1041 0.961 . S
O1045 Co1020 1.967 . S
O1045 C1053 1.258 . S
O1046 Co1021 1.941 . S
O1046 C1053 1.266 . S
H1047 C1049 0.959 . S
H1048 C1049 0.961 . S
C1049 C1039 1.510 . S
C1049 H1047 0.959 . S
C1049 H1048 0.961 . S
C1049 H1050 0.960 . S
H1050 C1049 0.960 . S
H1051 N1031 0.862 . S
O1052 Co1020 1.920 . S
O1052 C1025 1.289 . S
C1053 O1045 1.258 . S
C1053 O1046 1.266 . S
Co1054 O1057 1.970 . S
Co1054 N1071 1.989 . S
Co1054 O1079 1.967 . S
Co1054 O1086 1.920 . S
Co1055 O1058 1.966 . S
Co1055 N1064 2.022 . S
Co1055 N1072 1.993 . S
Co1055 O1080 1.941 . S
C1056 O1057 1.258 . S
C1056 O1058 1.263 . S
O1057 Co1054 1.970 . S
O1057 C1056 1.258 . S
O1058 Co1055 1.966 . S
O1058 C1056 1.263 . S
C1059 O1060 1.235 . S
C1059 O1086 1.289 . S
O1060 C1059 1.235 . S
C1061 C1063 1.400 . S
C1061 N1064 1.351 . S
C1061 C1066 1.501 . S
C1062 C1063 1.387 . S
C1062 N1065 1.341 . S
C1063 C1061 1.400 . S
C1063 C1062 1.387 . S
N1064 Co1055 2.022 . S
N1064 C1061 1.351 . S
N1064 N1065 1.365 . S
N1065 C1062 1.341 . S
N1065 N1064 1.365 . S
N1065 H1085 0.862 . S
C1066 C1061 1.501 . S
C1066 H1067 0.961 . S
C1066 H1068 0.961 . S
C1066 H1069 0.960 . S
H1067 C1066 0.961 . S
H1068 C1066 0.961 . S
H1069 C1066 0.960 . S
C1070 N1071 1.342 . S
C1070 C1074 1.401 . S
C1070 C1075 1.499 . S
N1071 Co1054 1.989 . S
N1071 C1070 1.342 . S
N1071 N1072 1.388 . S
N1072 Co1055 1.993 . S
N1072 N1071 1.388 . S
N1072 C1073 1.346 . S
C1073 N1072 1.346 . S
C1073 C1074 1.396 . S
C1073 C1083 1.510 . S
C1074 C1070 1.401 . S
C1074 C1073 1.396 . S
C1075 C1070 1.499 . S
C1075 H1076 0.959 . S
C1075 H1077 0.960 . S
C1075 H1078 0.961 . S
H1076 C1075 0.959 . S
H1077 C1075 0.960 . S
H1078 C1075 0.961 . S
O1079 Co1054 1.967 . S
O1079 C1087 1.258 . S
O1080 Co1055 1.941 . S
O1080 C1087 1.266 . S
H1081 C1083 0.959 . S
H1082 C1083 0.961 . S
C1083 C1073 1.510 . S
C1083 H1081 0.959 . S
C1083 H1082 0.961 . S
C1083 H1084 0.960 . S
H1084 C1083 0.960 . S
H1085 N1065 0.862 . S
O1086 Co1054 1.920 . S
O1086 C1059 1.289 . S
C1087 O1079 1.258 . S
C1087 O1080 1.266 . S
Co1088 O1091 1.970 . S
Co1088 N1105 1.989 . S
Co1088 O1113 1.967 . S
Co1088 O1120 1.920 . S
Co1089 O1092 1.966 . S
Co1089 N1098 2.022 . S
Co1089 N1106 1.993 . S
Co1089 O1114 1.941 . S
C1090 O1091 1.258 . S
C1090 O1092 1.263 . S
O1091 Co1088 1.970 . S
O1091 C1090 1.258 . S
O1092 Co1089 1.966 . S
O1092 C1090 1.263 . S
C1093 O1094 1.235 . S
C1093 O1120 1.289 . S
O1094 C1093 1.235 . S
C1095 C1097 1.400 . S
C1095 N1098 1.351 . S
C1095 C1100 1.501 . S
C1096 C1097 1.387 . S
C1096 N1099 1.341 . S
C1097 C1095 1.400 . S
C1097 C1096 1.387 . S
N1098 Co1089 2.022 . S
N1098 C1095 1.351 . S
N1098 N1099 1.365 . S
N1099 C1096 1.341 . S
N1099 N1098 1.365 . S
N1099 H1119 0.862 . S
C1100 C1095 1.501 . S
C1100 H1101 0.961 . S
C1100 H1102 0.961 . S
C1100 H1103 0.960 . S
H1101 C1100 0.961 . S
H1102 C1100 0.961 . S
H1103 C1100 0.960 . S
C1104 N1105 1.342 . S
C1104 C1108 1.401 . S
C1104 C1109 1.499 . S
N1105 Co1088 1.989 . S
N1105 C1104 1.342 . S
N1105 N1106 1.388 . S
N1106 Co1089 1.993 . S
N1106 N1105 1.388 . S
N1106 C1107 1.346 . S
C1107 N1106 1.346 . S
C1107 C1108 1.396 . S
C1107 C1117 1.510 . S
C1108 C1104 1.401 . S
C1108 C1107 1.396 . S
C1109 C1104 1.499 . S
C1109 H1110 0.959 . S
C1109 H1111 0.960 . S
C1109 H1112 0.961 . S
H1110 C1109 0.959 . S
H1111 C1109 0.960 . S
H1112 C1109 0.961 . S
O1113 Co1088 1.967 . S
O1113 C1121 1.258 . S
O1114 Co1089 1.941 . S
O1114 C1121 1.266 . S
H1115 C1117 0.959 . S
H1116 C1117 0.961 . S
C1117 C1107 1.510 . S
C1117 H1115 0.959 . S
C1117 H1116 0.961 . S
C1117 H1118 0.960 . S
H1118 C1117 0.960 . S
H1119 N1099 0.862 . S
O1120 Co1088 1.920 . S
O1120 C1093 1.289 . S
C1121 O1113 1.258 . S
C1121 O1114 1.266 . S
Co1122 O1125 1.970 . S
Co1122 N1139 1.989 . S
Co1122 O1147 1.967 . S
Co1122 O1154 1.920 . S
Co1123 O1126 1.966 . S
Co1123 N1132 2.022 . S
Co1123 N1140 1.993 . S
Co1123 O1148 1.941 . S
C1124 O1125 1.258 . S
C1124 O1126 1.263 . S
O1125 Co1122 1.970 . S
O1125 C1124 1.258 . S
O1126 Co1123 1.966 . S
O1126 C1124 1.263 . S
C1127 O1128 1.235 1_556 S
C1127 O1154 1.289 . S
O1128 C1127 1.235 1_554 S
C1129 C1131 1.400 . S
C1129 N1132 1.351 . S
C1129 C1134 1.501 . S
C1130 C1131 1.387 . S
C1130 N1133 1.341 . S
C1131 C1129 1.400 . S
C1131 C1130 1.387 . S
N1132 Co1123 2.022 . S
N1132 C1129 1.351 . S
N1132 N1133 1.365 . S
N1133 C1130 1.341 . S
N1133 N1132 1.365 . S
N1133 H1153 0.862 . S
C1134 C1129 1.501 . S
C1134 H1135 0.961 . S
C1134 H1136 0.961 . S
C1134 H1137 0.960 . S
H1135 C1134 0.961 . S
H1136 C1134 0.961 . S
H1137 C1134 0.960 . S
C1138 N1139 1.342 . S
C1138 C1142 1.401 . S
C1138 C1143 1.499 1_556 S
N1139 Co1122 1.989 . S
N1139 C1138 1.342 . S
N1139 N1140 1.388 . S
N1140 Co1123 1.993 . S
N1140 N1139 1.388 . S
N1140 C1141 1.346 . S
C1141 N1140 1.346 . S
C1141 C1142 1.396 . S
C1141 C1151 1.510 . S
C1142 C1138 1.401 . S
C1142 C1141 1.396 . S
C1143 C1138 1.499 1_554 S
C1143 H1144 0.959 . S
C1143 H1145 0.960 . S
C1143 H1146 0.961 . S
H1144 C1143 0.959 . S
H1145 C1143 0.960 . S
H1146 C1143 0.961 . S
O1147 Co1122 1.967 . S
O1147 C1155 1.258 . S
O1148 Co1123 1.941 . S
O1148 C1155 1.266 . S
H1149 C1151 0.959 . S
H1150 C1151 0.961 . S
C1151 C1141 1.510 . S
C1151 H1149 0.959 . S
C1151 H1150 0.961 . S
C1151 H1152 0.960 . S
H1152 C1151 0.960 . S
H1153 N1133 0.862 . S
O1154 Co1122 1.920 . S
O1154 C1127 1.289 . S
C1155 O1147 1.258 . S
C1155 O1148 1.266 . S
Co1156 O1159 1.970 . S
Co1156 N1173 1.989 . S
Co1156 O1181 1.967 . S
Co1156 O1188 1.920 . S
Co1157 O1160 1.966 . S
Co1157 N1166 2.022 . S
Co1157 N1174 1.993 . S
Co1157 O1182 1.941 . S
C1158 O1159 1.258 . S
C1158 O1160 1.263 . S
O1159 Co1156 1.970 . S
O1159 C1158 1.258 . S
O1160 Co1157 1.966 . S
O1160 C1158 1.263 . S
C1161 O1162 1.235 . S
C1161 O1188 1.289 . S
O1162 C1161 1.235 . S
C1163 C1165 1.400 . S
C1163 N1166 1.351 . S
C1163 C1168 1.501 . S
C1164 C1165 1.387 . S
C1164 N1167 1.341 . S
C1165 C1163 1.400 . S
C1165 C1164 1.387 . S
N1166 Co1157 2.022 . S
N1166 C1163 1.351 . S
N1166 N1167 1.365 . S
N1167 C1164 1.341 . S
N1167 N1166 1.365 . S
N1167 H1187 0.862 . S
C1168 C1163 1.501 . S
C1168 H1169 0.961 . S
C1168 H1170 0.961 . S
C1168 H1171 0.960 . S
H1169 C1168 0.961 . S
H1170 C1168 0.961 . S
H1171 C1168 0.960 . S
C1172 N1173 1.342 . S
C1172 C1176 1.401 . S
C1172 C1177 1.499 . S
N1173 Co1156 1.989 . S
N1173 C1172 1.342 . S
N1173 N1174 1.388 . S
N1174 Co1157 1.993 . S
N1174 N1173 1.388 . S
N1174 C1175 1.346 . S
C1175 N1174 1.346 . S
C1175 C1176 1.396 . S
C1175 C1185 1.510 . S
C1176 C1172 1.401 . S
C1176 C1175 1.396 . S
C1177 C1172 1.499 . S
C1177 H1178 0.959 . S
C1177 H1179 0.960 . S
C1177 H1180 0.961 . S
H1178 C1177 0.959 . S
H1179 C1177 0.960 . S
H1180 C1177 0.961 . S
O1181 Co1156 1.967 . S
O1181 C1189 1.258 . S
O1182 Co1157 1.941 . S
O1182 C1189 1.266 . S
H1183 C1185 0.959 . S
H1184 C1185 0.961 . S
C1185 C1175 1.510 . S
C1185 H1183 0.959 . S
C1185 H1184 0.961 . S
C1185 H1186 0.960 . S
H1186 C1185 0.960 . S
H1187 N1167 0.862 . S
O1188 Co1156 1.920 . S
O1188 C1161 1.289 . S
C1189 O1181 1.258 . S
C1189 O1182 1.266 . S
Co1190 O1193 1.970 . S
Co1190 N1207 1.989 . S
Co1190 O1215 1.967 . S
Co1190 O1222 1.920 . S
Co1191 O1194 1.966 . S
Co1191 N1200 2.022 . S
Co1191 N1208 1.993 . S
Co1191 O1216 1.941 . S
C1192 O1193 1.258 . S
C1192 O1194 1.263 . S
O1193 Co1190 1.970 . S
O1193 C1192 1.258 . S
O1194 Co1191 1.966 . S
O1194 C1192 1.263 . S
C1195 O1196 1.235 . S
C1195 O1222 1.289 . S
O1196 C1195 1.235 . S
C1197 C1199 1.400 . S
C1197 N1200 1.351 . S
C1197 C1202 1.501 . S
C1198 C1199 1.387 . S
C1198 N1201 1.341 . S
C1199 C1197 1.400 . S
C1199 C1198 1.387 . S
N1200 Co1191 2.022 . S
N1200 C1197 1.351 . S
N1200 N1201 1.365 . S
N1201 C1198 1.341 . S
N1201 N1200 1.365 . S
N1201 H1221 0.862 . S
C1202 C1197 1.501 . S
C1202 H1203 0.961 . S
C1202 H1204 0.961 . S
C1202 H1205 0.960 . S
H1203 C1202 0.961 . S
H1204 C1202 0.961 . S
H1205 C1202 0.960 . S
C1206 N1207 1.342 . S
C1206 C1210 1.401 . S
C1206 C1211 1.499 . S
N1207 Co1190 1.989 . S
N1207 C1206 1.342 . S
N1207 N1208 1.388 . S
N1208 Co1191 1.993 . S
N1208 N1207 1.388 . S
N1208 C1209 1.346 . S
C1209 N1208 1.346 . S
C1209 C1210 1.396 . S
C1209 C1219 1.510 . S
C1210 C1206 1.401 . S
C1210 C1209 1.396 . S
C1211 C1206 1.499 . S
C1211 H1212 0.959 . S
C1211 H1213 0.960 . S
C1211 H1214 0.961 . S
H1212 C1211 0.959 . S
H1213 C1211 0.960 . S
H1214 C1211 0.961 . S
O1215 Co1190 1.967 . S
O1215 C1223 1.258 . S
O1216 Co1191 1.941 . S
O1216 C1223 1.266 . S
H1217 C1219 0.959 . S
H1218 C1219 0.961 . S
C1219 C1209 1.510 . S
C1219 H1217 0.959 . S
C1219 H1218 0.961 . S
C1219 H1220 0.960 . S
H1220 C1219 0.960 . S
H1221 N1201 0.862 . S
O1222 Co1190 1.920 . S
O1222 C1195 1.289 . S
C1223 O1215 1.258 . S
C1223 O1216 1.266 . S
Co1224 O1227 1.970 . S
Co1224 N1241 1.989 . S
Co1224 O1249 1.967 . S
Co1224 O1256 1.920 . S
Co1225 O1228 1.966 . S
Co1225 N1234 2.022 . S
Co1225 N1242 1.993 . S
Co1225 O1250 1.941 . S
C1226 O1227 1.258 . S
C1226 O1228 1.263 . S
O1227 Co1224 1.970 . S
O1227 C1226 1.258 . S
O1228 Co1225 1.966 . S
O1228 C1226 1.263 . S
C1229 O1230 1.235 . S
C1229 O1256 1.289 . S
O1230 C1229 1.235 . S
C1231 C1233 1.400 . S
C1231 N1234 1.351 . S
C1231 C1236 1.501 . S
C1232 C1233 1.387 . S
C1232 N1235 1.341 . S
C1233 C1231 1.400 . S
C1233 C1232 1.387 . S
N1234 Co1225 2.022 . S
N1234 C1231 1.351 . S
N1234 N1235 1.365 . S
N1235 C1232 1.341 . S
N1235 N1234 1.365 . S
N1235 H1255 0.862 . S
C1236 C1231 1.501 . S
C1236 H1237 0.961 . S
C1236 H1238 0.961 . S
C1236 H1239 0.960 . S
H1237 C1236 0.961 . S
H1238 C1236 0.961 . S
H1239 C1236 0.960 . S
C1240 N1241 1.342 . S
C1240 C1244 1.401 . S
C1240 C1245 1.499 . S
N1241 Co1224 1.989 . S
N1241 C1240 1.342 . S
N1241 N1242 1.388 . S
N1242 Co1225 1.993 . S
N1242 N1241 1.388 . S
N1242 C1243 1.346 . S
C1243 N1242 1.346 . S
C1243 C1244 1.396 . S
C1243 C1253 1.510 . S
C1244 C1240 1.401 . S
C1244 C1243 1.396 . S
C1245 C1240 1.499 . S
C1245 H1246 0.959 . S
C1245 H1247 0.960 . S
C1245 H1248 0.961 . S
H1246 C1245 0.959 . S
H1247 C1245 0.960 . S
H1248 C1245 0.961 . S
O1249 Co1224 1.967 . S
O1249 C1257 1.258 . S
O1250 Co1225 1.941 . S
O1250 C1257 1.266 . S
H1251 C1253 0.959 . S
H1252 C1253 0.961 . S
C1253 C1243 1.510 . S
C1253 H1251 0.959 . S
C1253 H1252 0.961 . S
C1253 H1254 0.960 . S
H1254 C1253 0.960 . S
H1255 N1235 0.862 . S
O1256 Co1224 1.920 . S
O1256 C1229 1.289 . S
C1257 O1249 1.258 . S
C1257 O1250 1.266 . S
Co1258 O1261 1.970 . S
Co1258 N1275 1.989 . S
Co1258 O1283 1.967 . S
Co1258 O1290 1.920 . S
Co1259 O1262 1.966 . S
Co1259 N1268 2.022 . S
Co1259 N1276 1.993 . S
Co1259 O1284 1.941 . S
C1260 O1261 1.258 . S
C1260 O1262 1.263 . S
O1261 Co1258 1.970 . S
O1261 C1260 1.258 . S
O1262 Co1259 1.966 . S
O1262 C1260 1.263 . S
C1263 O1264 1.235 1_554 S
C1263 O1290 1.289 . S
O1264 C1263 1.235 1_556 S
C1265 C1267 1.400 . S
C1265 N1268 1.351 . S
C1265 C1270 1.501 . S
C1266 C1267 1.387 . S
C1266 N1269 1.341 . S
C1267 C1265 1.400 . S
C1267 C1266 1.387 . S
N1268 Co1259 2.022 . S
N1268 C1265 1.351 . S
N1268 N1269 1.365 . S
N1269 C1266 1.341 . S
N1269 N1268 1.365 . S
N1269 H1289 0.862 . S
C1270 C1265 1.501 . S
C1270 H1271 0.961 . S
C1270 H1272 0.961 . S
C1270 H1273 0.960 . S
H1271 C1270 0.961 . S
H1272 C1270 0.961 . S
H1273 C1270 0.960 . S
C1274 N1275 1.342 . S
C1274 C1278 1.401 . S
C1274 C1279 1.499 1_554 S
N1275 Co1258 1.989 . S
N1275 C1274 1.342 . S
N1275 N1276 1.388 . S
N1276 Co1259 1.993 . S
N1276 N1275 1.388 . S
N1276 C1277 1.346 . S
C1277 N1276 1.346 . S
C1277 C1278 1.396 . S
C1277 C1287 1.510 . S
C1278 C1274 1.401 . S
C1278 C1277 1.396 . S
C1279 C1274 1.499 1_556 S
C1279 H1280 0.959 . S
C1279 H1281 0.960 . S
C1279 H1282 0.961 . S
H1280 C1279 0.959 . S
H1281 C1279 0.960 . S
H1282 C1279 0.961 . S
O1283 Co1258 1.967 . S
O1283 C1291 1.258 . S
O1284 Co1259 1.941 . S
O1284 C1291 1.266 . S
H1285 C1287 0.959 . S
H1286 C1287 0.961 . S
C1287 C1277 1.510 . S
C1287 H1285 0.959 . S
C1287 H1286 0.961 . S
C1287 H1288 0.960 . S
H1288 C1287 0.960 . S
H1289 N1269 0.862 . S
O1290 Co1258 1.920 . S
O1290 C1263 1.289 . S
C1291 O1283 1.258 . S
C1291 O1284 1.266 . S
Co1292 O1295 1.970 . S
Co1292 N1309 1.989 . S
Co1292 O1317 1.967 . S
Co1292 O1324 1.920 . S
Co1293 O1296 1.966 . S
Co1293 N1302 2.022 . S
Co1293 N1310 1.993 . S
Co1293 O1318 1.941 . S
C1294 O1295 1.258 . S
C1294 O1296 1.263 . S
O1295 Co1292 1.970 . S
O1295 C1294 1.258 . S
O1296 Co1293 1.966 . S
O1296 C1294 1.263 . S
C1297 O1298 1.235 . S
C1297 O1324 1.289 . S
O1298 C1297 1.235 . S
C1299 C1301 1.400 . S
C1299 N1302 1.351 . S
C1299 C1304 1.501 . S
C1300 C1301 1.387 . S
C1300 N1303 1.341 . S
C1301 C1299 1.400 . S
C1301 C1300 1.387 . S
N1302 Co1293 2.022 . S
N1302 C1299 1.351 . S
N1302 N1303 1.365 . S
N1303 C1300 1.341 . S
N1303 N1302 1.365 . S
N1303 H1323 0.862 . S
C1304 C1299 1.501 . S
C1304 H1305 0.961 . S
C1304 H1306 0.961 . S
C1304 H1307 0.960 . S
H1305 C1304 0.961 . S
H1306 C1304 0.961 . S
H1307 C1304 0.960 . S
C1308 N1309 1.342 . S
C1308 C1312 1.401 . S
C1308 C1313 1.499 . S
N1309 Co1292 1.989 . S
N1309 C1308 1.342 . S
N1309 N1310 1.388 . S
N1310 Co1293 1.993 . S
N1310 N1309 1.388 . S
N1310 C1311 1.346 . S
C1311 N1310 1.346 . S
C1311 C1312 1.396 . S
C1311 C1321 1.510 . S
C1312 C1308 1.401 . S
C1312 C1311 1.396 . S
C1313 C1308 1.499 . S
C1313 H1314 0.959 . S
C1313 H1315 0.960 . S
C1313 H1316 0.961 . S
H1314 C1313 0.959 . S
H1315 C1313 0.960 . S
H1316 C1313 0.961 . S
O1317 Co1292 1.967 . S
O1317 C1325 1.258 . S
O1318 Co1293 1.941 . S
O1318 C1325 1.266 . S
H1319 C1321 0.959 . S
H1320 C1321 0.961 . S
C1321 C1311 1.510 . S
C1321 H1319 0.959 . S
C1321 H1320 0.961 . S
C1321 H1322 0.960 . S
H1322 C1321 0.960 . S
H1323 N1303 0.862 . S
O1324 Co1292 1.920 . S
O1324 C1297 1.289 . S
C1325 O1317 1.258 . S
C1325 O1318 1.266 . S
Co1326 O1329 1.970 . S
Co1326 N1343 1.989 . S
Co1326 O1351 1.967 . S
Co1326 O1358 1.920 . S
Co1327 O1330 1.966 . S
Co1327 N1336 2.022 . S
Co1327 N1344 1.993 . S
Co1327 O1352 1.941 . S
C1328 O1329 1.258 . S
C1328 O1330 1.263 . S
O1329 Co1326 1.970 . S
O1329 C1328 1.258 . S
O1330 Co1327 1.966 . S
O1330 C1328 1.263 . S
C1331 O1332 1.235 . S
C1331 O1358 1.289 . S
O1332 C1331 1.235 . S
C1333 C1335 1.400 . S
C1333 N1336 1.351 . S
C1333 C1338 1.501 . S
C1334 C1335 1.387 . S
C1334 N1337 1.341 . S
C1335 C1333 1.400 . S
C1335 C1334 1.387 . S
N1336 Co1327 2.022 . S
N1336 C1333 1.351 . S
N1336 N1337 1.365 . S
N1337 C1334 1.341 . S
N1337 N1336 1.365 . S
N1337 H1357 0.862 . S
C1338 C1333 1.501 . S
C1338 H1339 0.961 . S
C1338 H1340 0.961 . S
C1338 H1341 0.960 . S
H1339 C1338 0.961 . S
H1340 C1338 0.961 . S
H1341 C1338 0.960 . S
C1342 N1343 1.342 . S
C1342 C1346 1.401 . S
C1342 C1347 1.499 . S
N1343 Co1326 1.989 . S
N1343 C1342 1.342 . S
N1343 N1344 1.388 . S
N1344 Co1327 1.993 . S
N1344 N1343 1.388 . S
N1344 C1345 1.346 . S
C1345 N1344 1.346 . S
C1345 C1346 1.396 . S
C1345 C1355 1.510 . S
C1346 C1342 1.401 . S
C1346 C1345 1.396 . S
C1347 C1342 1.499 . S
C1347 H1348 0.959 . S
C1347 H1349 0.960 . S
C1347 H1350 0.961 . S
H1348 C1347 0.959 . S
H1349 C1347 0.960 . S
H1350 C1347 0.961 . S
O1351 Co1326 1.967 . S
O1351 C1359 1.258 . S
O1352 Co1327 1.941 . S
O1352 C1359 1.266 . S
H1353 C1355 0.959 . S
H1354 C1355 0.961 . S
C1355 C1345 1.510 . S
C1355 H1353 0.959 . S
C1355 H1354 0.961 . S
C1355 H1356 0.960 . S
H1356 C1355 0.960 . S
H1357 N1337 0.862 . S
O1358 Co1326 1.920 . S
O1358 C1331 1.289 . S
C1359 O1351 1.258 . S
C1359 O1352 1.266 . S
Co1360 O1363 1.970 . S
Co1360 N1377 1.989 . S
Co1360 O1385 1.967 . S
Co1360 O1392 1.920 . S
Co1361 O1364 1.966 . S
Co1361 N1370 2.022 . S
Co1361 N1378 1.993 . S
Co1361 O1386 1.941 . S
C1362 O1363 1.258 . S
C1362 O1364 1.263 . S
O1363 Co1360 1.970 . S
O1363 C1362 1.258 . S
O1364 Co1361 1.966 . S
O1364 C1362 1.263 . S
C1365 O1366 1.235 . S
C1365 O1392 1.289 . S
O1366 C1365 1.235 . S
C1367 C1369 1.400 . S
C1367 N1370 1.351 . S
C1367 C1372 1.501 . S
C1368 C1369 1.387 . S
C1368 N1371 1.341 . S
C1369 C1367 1.400 . S
C1369 C1368 1.387 . S
N1370 Co1361 2.022 . S
N1370 C1367 1.351 . S
N1370 N1371 1.365 . S
N1371 C1368 1.341 . S
N1371 N1370 1.365 . S
N1371 H1391 0.862 . S
C1372 C1367 1.501 . S
C1372 H1373 0.961 . S
C1372 H1374 0.961 . S
C1372 H1375 0.960 . S
H1373 C1372 0.961 . S
H1374 C1372 0.961 . S
H1375 C1372 0.960 . S
C1376 N1377 1.342 . S
C1376 C1380 1.401 . S
C1376 C1381 1.499 . S
N1377 Co1360 1.989 . S
N1377 C1376 1.342 . S
N1377 N1378 1.388 . S
N1378 Co1361 1.993 . S
N1378 N1377 1.388 . S
N1378 C1379 1.346 . S
C1379 N1378 1.346 . S
C1379 C1380 1.396 . S
C1379 C1389 1.510 . S
C1380 C1376 1.401 . S
C1380 C1379 1.396 . S
C1381 C1376 1.499 . S
C1381 H1382 0.959 . S
C1381 H1383 0.960 . S
C1381 H1384 0.961 . S
H1382 C1381 0.959 . S
H1383 C1381 0.960 . S
H1384 C1381 0.961 . S
O1385 Co1360 1.967 . S
O1385 C1393 1.258 . S
O1386 Co1361 1.941 . S
O1386 C1393 1.266 . S
H1387 C1389 0.959 . S
H1388 C1389 0.961 . S
C1389 C1379 1.510 . S
C1389 H1387 0.959 . S
C1389 H1388 0.961 . S
C1389 H1390 0.960 . S
H1390 C1389 0.960 . S
H1391 N1371 0.862 . S
O1392 Co1360 1.920 . S
O1392 C1365 1.289 . S
C1393 O1385 1.258 . S
C1393 O1386 1.266 . S
Co1394 O1397 1.970 . S
Co1394 N1411 1.989 . S
Co1394 O1419 1.967 . S
Co1394 O1426 1.920 . S
Co1395 O1398 1.966 . S
Co1395 N1404 2.022 . S
Co1395 N1412 1.993 . S
Co1395 O1420 1.941 . S
C1396 O1397 1.258 . S
C1396 O1398 1.263 . S
O1397 Co1394 1.970 . S
O1397 C1396 1.258 . S
O1398 Co1395 1.966 . S
O1398 C1396 1.263 . S
C1399 O1400 1.235 . S
C1399 O1426 1.289 . S
O1400 C1399 1.235 . S
C1401 C1403 1.400 . S
C1401 N1404 1.351 . S
C1401 C1406 1.501 . S
C1402 C1403 1.387 . S
C1402 N1405 1.341 . S
C1403 C1401 1.400 . S
C1403 C1402 1.387 . S
N1404 Co1395 2.022 . S
N1404 C1401 1.351 . S
N1404 N1405 1.365 . S
N1405 C1402 1.341 . S
N1405 N1404 1.365 . S
N1405 H1425 0.862 . S
C1406 C1401 1.501 . S
C1406 H1407 0.961 . S
C1406 H1408 0.961 . S
C1406 H1409 0.960 . S
H1407 C1406 0.961 . S
H1408 C1406 0.961 . S
H1409 C1406 0.960 . S
C1410 N1411 1.342 . S
C1410 C1414 1.401 . S
C1410 C1415 1.499 . S
N1411 Co1394 1.989 . S
N1411 C1410 1.342 . S
N1411 N1412 1.388 . S
N1412 Co1395 1.993 . S
N1412 N1411 1.388 . S
N1412 C1413 1.346 . S
C1413 N1412 1.346 . S
C1413 C1414 1.396 . S
C1413 C1423 1.510 . S
C1414 C1410 1.401 . S
C1414 C1413 1.396 . S
C1415 C1410 1.499 . S
C1415 H1416 0.959 . S
C1415 H1417 0.960 . S
C1415 H1418 0.961 . S
H1416 C1415 0.959 . S
H1417 C1415 0.960 . S
H1418 C1415 0.961 . S
O1419 Co1394 1.967 . S
O1419 C1427 1.258 . S
O1420 Co1395 1.941 . S
O1420 C1427 1.266 . S
H1421 C1423 0.959 . S
H1422 C1423 0.961 . S
C1423 C1413 1.510 . S
C1423 H1421 0.959 . S
C1423 H1422 0.961 . S
C1423 H1424 0.960 . S
H1424 C1423 0.960 . S
H1425 N1405 0.862 . S
O1426 Co1394 1.920 . S
O1426 C1399 1.289 . S
C1427 O1419 1.258 . S
C1427 O1420 1.266 . S
Co1428 O1431 1.970 . S
Co1428 N1445 1.989 . S
Co1428 O1453 1.967 . S
Co1428 O1460 1.920 . S
Co1429 O1432 1.966 . S
Co1429 N1438 2.022 . S
Co1429 N1446 1.993 . S
Co1429 O1454 1.941 . S
C1430 O1431 1.258 . S
C1430 O1432 1.263 . S
O1431 Co1428 1.970 . S
O1431 C1430 1.258 . S
O1432 Co1429 1.966 . S
O1432 C1430 1.263 . S
C1433 O1434 1.235 1_565 S
C1433 O1460 1.289 . S
O1434 C1433 1.235 1_545 S
C1435 C1437 1.400 . S
C1435 N1438 1.351 . S
C1435 C1440 1.501 . S
C1436 C1437 1.387 . S
C1436 N1439 1.341 . S
C1437 C1435 1.400 . S
C1437 C1436 1.387 . S
N1438 Co1429 2.022 . S
N1438 C1435 1.351 . S
N1438 N1439 1.365 . S
N1439 C1436 1.341 . S
N1439 N1438 1.365 . S
N1439 H1459 0.862 . S
C1440 C1435 1.501 . S
C1440 H1441 0.961 . S
C1440 H1442 0.961 . S
C1440 H1443 0.960 . S
H1441 C1440 0.961 . S
H1442 C1440 0.961 . S
H1443 C1440 0.960 . S
C1444 N1445 1.342 . S
C1444 C1448 1.401 . S
C1444 C1449 1.499 1_565 S
N1445 Co1428 1.989 . S
N1445 C1444 1.342 . S
N1445 N1446 1.388 . S
N1446 Co1429 1.993 . S
N1446 N1445 1.388 . S
N1446 C1447 1.346 . S
C1447 N1446 1.346 . S
C1447 C1448 1.396 . S
C1447 C1457 1.510 . S
C1448 C1444 1.401 . S
C1448 C1447 1.396 . S
C1449 C1444 1.499 1_545 S
C1449 H1450 0.959 . S
C1449 H1451 0.960 . S
C1449 H1452 0.961 . S
H1450 C1449 0.959 . S
H1451 C1449 0.960 . S
H1452 C1449 0.961 . S
O1453 Co1428 1.967 . S
O1453 C1461 1.258 . S
O1454 Co1429 1.941 . S
O1454 C1461 1.266 . S
H1455 C1457 0.959 . S
H1456 C1457 0.961 . S
C1457 C1447 1.510 . S
C1457 H1455 0.959 . S
C1457 H1456 0.961 . S
C1457 H1458 0.960 . S
H1458 C1457 0.960 . S
H1459 N1439 0.862 . S
O1460 Co1428 1.920 . S
O1460 C1433 1.289 . S
C1461 O1453 1.258 . S
C1461 O1454 1.266 . S
Co1462 O1465 1.970 . S
Co1462 N1479 1.989 . S
Co1462 O1487 1.967 . S
Co1462 O1494 1.920 . S
Co1463 O1466 1.966 . S
Co1463 N1472 2.022 . S
Co1463 N1480 1.993 . S
Co1463 O1488 1.941 . S
C1464 O1465 1.258 . S
C1464 O1466 1.263 . S
O1465 Co1462 1.970 . S
O1465 C1464 1.258 . S
O1466 Co1463 1.966 . S
O1466 C1464 1.263 . S
C1467 O1468 1.235 . S
C1467 O1494 1.289 . S
O1468 C1467 1.235 . S
C1469 C1471 1.400 . S
C1469 N1472 1.351 . S
C1469 C1474 1.501 . S
C1470 C1471 1.387 . S
C1470 N1473 1.341 . S
C1471 C1469 1.400 . S
C1471 C1470 1.387 . S
N1472 Co1463 2.022 . S
N1472 C1469 1.351 . S
N1472 N1473 1.365 . S
N1473 C1470 1.341 . S
N1473 N1472 1.365 . S
N1473 H1493 0.862 . S
C1474 C1469 1.501 . S
C1474 H1475 0.961 . S
C1474 H1476 0.961 . S
C1474 H1477 0.960 . S
H1475 C1474 0.961 . S
H1476 C1474 0.961 . S
H1477 C1474 0.960 . S
C1478 N1479 1.342 . S
C1478 C1482 1.401 . S
C1478 C1483 1.499 . S
N1479 Co1462 1.989 . S
N1479 C1478 1.342 . S
N1479 N1480 1.388 . S
N1480 Co1463 1.993 . S
N1480 N1479 1.388 . S
N1480 C1481 1.346 . S
C1481 N1480 1.346 . S
C1481 C1482 1.396 . S
C1481 C1491 1.510 . S
C1482 C1478 1.401 . S
C1482 C1481 1.396 . S
C1483 C1478 1.499 . S
C1483 H1484 0.959 . S
C1483 H1485 0.960 . S
C1483 H1486 0.961 . S
H1484 C1483 0.959 . S
H1485 C1483 0.960 . S
H1486 C1483 0.961 . S
O1487 Co1462 1.967 . S
O1487 C1495 1.258 . S
O1488 Co1463 1.941 . S
O1488 C1495 1.266 . S
H1489 C1491 0.959 . S
H1490 C1491 0.961 . S
C1491 C1481 1.510 . S
C1491 H1489 0.959 . S
C1491 H1490 0.961 . S
C1491 H1492 0.960 . S
H1492 C1491 0.960 . S
H1493 N1473 0.862 . S
O1494 Co1462 1.920 . S
O1494 C1467 1.289 . S
C1495 O1487 1.258 . S
C1495 O1488 1.266 . S
Co1496 O1499 1.970 . S
Co1496 N1513 1.989 . S
Co1496 O1521 1.967 . S
Co1496 O1528 1.920 . S
Co1497 O1500 1.966 . S
Co1497 N1506 2.022 . S
Co1497 N1514 1.993 . S
Co1497 O1522 1.941 . S
C1498 O1499 1.258 . S
C1498 O1500 1.263 . S
O1499 Co1496 1.970 . S
O1499 C1498 1.258 . S
O1500 Co1497 1.966 . S
O1500 C1498 1.263 . S
C1501 O1502 1.235 . S
C1501 O1528 1.289 . S
O1502 C1501 1.235 . S
C1503 C1505 1.400 . S
C1503 N1506 1.351 . S
C1503 C1508 1.501 . S
C1504 C1505 1.387 . S
C1504 N1507 1.341 . S
C1505 C1503 1.400 . S
C1505 C1504 1.387 . S
N1506 Co1497 2.022 . S
N1506 C1503 1.351 . S
N1506 N1507 1.365 . S
N1507 C1504 1.341 . S
N1507 N1506 1.365 . S
N1507 H1527 0.862 . S
C1508 C1503 1.501 . S
C1508 H1509 0.961 . S
C1508 H1510 0.961 . S
C1508 H1511 0.960 . S
H1509 C1508 0.961 . S
H1510 C1508 0.961 . S
H1511 C1508 0.960 . S
C1512 N1513 1.342 . S
C1512 C1516 1.401 . S
C1512 C1517 1.499 . S
N1513 Co1496 1.989 . S
N1513 C1512 1.342 . S
N1513 N1514 1.388 . S
N1514 Co1497 1.993 . S
N1514 N1513 1.388 . S
N1514 C1515 1.346 . S
C1515 N1514 1.346 . S
C1515 C1516 1.396 . S
C1515 C1525 1.510 . S
C1516 C1512 1.401 . S
C1516 C1515 1.396 . S
C1517 C1512 1.499 . S
C1517 H1518 0.959 . S
C1517 H1519 0.960 . S
C1517 H1520 0.961 . S
H1518 C1517 0.959 . S
H1519 C1517 0.960 . S
H1520 C1517 0.961 . S
O1521 Co1496 1.967 . S
O1521 C1529 1.258 . S
O1522 Co1497 1.941 . S
O1522 C1529 1.266 . S
H1523 C1525 0.959 . S
H1524 C1525 0.961 . S
C1525 C1515 1.510 . S
C1525 H1523 0.959 . S
C1525 H1524 0.961 . S
C1525 H1526 0.960 . S
H1526 C1525 0.960 . S
H1527 N1507 0.862 . S
O1528 Co1496 1.920 . S
O1528 C1501 1.289 . S
C1529 O1521 1.258 . S
C1529 O1522 1.266 . S
Co1530 O1533 1.970 . S
Co1530 N1547 1.989 . S
Co1530 O1555 1.967 . S
Co1530 O1562 1.920 . S
Co1531 O1534 1.966 . S
Co1531 N1540 2.022 . S
Co1531 N1548 1.993 . S
Co1531 O1556 1.941 . S
C1532 O1533 1.258 . S
C1532 O1534 1.263 . S
O1533 Co1530 1.970 . S
O1533 C1532 1.258 . S
O1534 Co1531 1.966 . S
O1534 C1532 1.263 . S
C1535 O1536 1.235 . S
C1535 O1562 1.289 . S
O1536 C1535 1.235 . S
C1537 C1539 1.400 . S
C1537 N1540 1.351 . S
C1537 C1542 1.501 . S
C1538 C1539 1.387 . S
C1538 N1541 1.341 . S
C1539 C1537 1.400 . S
C1539 C1538 1.387 . S
N1540 Co1531 2.022 . S
N1540 C1537 1.351 . S
N1540 N1541 1.365 . S
N1541 C1538 1.341 . S
N1541 N1540 1.365 . S
N1541 H1561 0.862 . S
C1542 C1537 1.501 . S
C1542 H1543 0.961 . S
C1542 H1544 0.961 . S
C1542 H1545 0.960 . S
H1543 C1542 0.961 . S
H1544 C1542 0.961 . S
H1545 C1542 0.960 . S
C1546 N1547 1.342 . S
C1546 C1550 1.401 . S
C1546 C1551 1.499 . S
N1547 Co1530 1.989 . S
N1547 C1546 1.342 . S
N1547 N1548 1.388 . S
N1548 Co1531 1.993 . S
N1548 N1547 1.388 . S
N1548 C1549 1.346 . S
C1549 N1548 1.346 . S
C1549 C1550 1.396 . S
C1549 C1559 1.510 . S
C1550 C1546 1.401 . S
C1550 C1549 1.396 . S
C1551 C1546 1.499 . S
C1551 H1552 0.959 . S
C1551 H1553 0.960 . S
C1551 H1554 0.961 . S
H1552 C1551 0.959 . S
H1553 C1551 0.960 . S
H1554 C1551 0.961 . S
O1555 Co1530 1.967 . S
O1555 C1563 1.258 . S
O1556 Co1531 1.941 . S
O1556 C1563 1.266 . S
H1557 C1559 0.959 . S
H1558 C1559 0.961 . S
C1559 C1549 1.510 . S
C1559 H1557 0.959 . S
C1559 H1558 0.961 . S
C1559 H1560 0.960 . S
H1560 C1559 0.960 . S
H1561 N1541 0.862 . S
O1562 Co1530 1.920 . S
O1562 C1535 1.289 . S
C1563 O1555 1.258 . S
C1563 O1556 1.266 . S
Co1564 O1567 1.970 . S
Co1564 N1581 1.989 . S
Co1564 O1589 1.967 . S
Co1564 O1596 1.920 . S
Co1565 O1568 1.966 . S
Co1565 N1574 2.022 . S
Co1565 N1582 1.993 . S
Co1565 O1590 1.941 . S
C1566 O1567 1.258 . S
C1566 O1568 1.263 . S
O1567 Co1564 1.970 . S
O1567 C1566 1.258 . S
O1568 Co1565 1.966 . S
O1568 C1566 1.263 . S
C1569 O1570 1.235 1_545 S
C1569 O1596 1.289 . S
O1570 C1569 1.235 1_565 S
C1571 C1573 1.400 . S
C1571 N1574 1.351 . S
C1571 C1576 1.501 . S
C1572 C1573 1.387 . S
C1572 N1575 1.341 . S
C1573 C1571 1.400 . S
C1573 C1572 1.387 . S
N1574 Co1565 2.022 . S
N1574 C1571 1.351 . S
N1574 N1575 1.365 . S
N1575 C1572 1.341 . S
N1575 N1574 1.365 . S
N1575 H1595 0.862 . S
C1576 C1571 1.501 . S
C1576 H1577 0.961 . S
C1576 H1578 0.961 . S
C1576 H1579 0.960 . S
H1577 C1576 0.961 . S
H1578 C1576 0.961 . S
H1579 C1576 0.960 . S
C1580 N1581 1.342 . S
C1580 C1584 1.401 . S
C1580 C1585 1.499 1_545 S
N1581 Co1564 1.989 . S
N1581 C1580 1.342 . S
N1581 N1582 1.388 . S
N1582 Co1565 1.993 . S
N1582 N1581 1.388 . S
N1582 C1583 1.346 . S
C1583 N1582 1.346 . S
C1583 C1584 1.396 . S
C1583 C1593 1.510 . S
C1584 C1580 1.401 . S
C1584 C1583 1.396 . S
C1585 C1580 1.499 1_565 S
C1585 H1586 0.959 . S
C1585 H1587 0.960 . S
C1585 H1588 0.961 . S
H1586 C1585 0.959 . S
H1587 C1585 0.960 . S
H1588 C1585 0.961 . S
O1589 Co1564 1.967 . S
O1589 C1597 1.258 . S
O1590 Co1565 1.941 . S
O1590 C1597 1.266 . S
H1591 C1593 0.959 . S
H1592 C1593 0.961 . S
C1593 C1583 1.510 . S
C1593 H1591 0.959 . S
C1593 H1592 0.961 . S
C1593 H1594 0.960 . S
H1594 C1593 0.960 . S
H1595 N1575 0.862 . S
O1596 Co1564 1.920 . S
O1596 C1569 1.289 . S
C1597 O1589 1.258 . S
C1597 O1590 1.266 . S
Co1598 O1601 1.970 . S
Co1598 N1615 1.989 . S
Co1598 O1623 1.967 . S
Co1598 O1630 1.920 . S
Co1599 O1602 1.966 . S
Co1599 N1608 2.022 . S
Co1599 N1616 1.993 . S
Co1599 O1624 1.941 . S
C1600 O1601 1.258 . S
C1600 O1602 1.263 . S
O1601 Co1598 1.970 . S
O1601 C1600 1.258 . S
O1602 Co1599 1.966 . S
O1602 C1600 1.263 . S
C1603 O1604 1.235 1_565 S
C1603 O1630 1.289 . S
O1604 C1603 1.235 1_545 S
C1605 C1607 1.400 . S
C1605 N1608 1.351 . S
C1605 C1610 1.501 . S
C1606 C1607 1.387 1_455 S
C1606 N1609 1.341 . S
C1607 C1605 1.400 . S
C1607 C1606 1.387 1_655 S
N1608 Co1599 2.022 . S
N1608 C1605 1.351 . S
N1608 N1609 1.365 1_655 S
N1609 C1606 1.341 . S
N1609 N1608 1.365 1_455 S
N1609 H1629 0.862 . S
C1610 C1605 1.501 . S
C1610 H1611 0.961 . S
C1610 H1612 0.961 . S
C1610 H1613 0.960 . S
H1611 C1610 0.961 . S
H1612 C1610 0.961 . S
H1613 C1610 0.960 . S
C1614 N1615 1.342 . S
C1614 C1618 1.401 1_655 S
C1614 C1619 1.499 1_565 S
N1615 Co1598 1.989 . S
N1615 C1614 1.342 . S
N1615 N1616 1.388 . S
N1616 Co1599 1.993 . S
N1616 N1615 1.388 . S
N1616 C1617 1.346 . S
C1617 N1616 1.346 . S
C1617 C1618 1.396 1_655 S
C1617 C1627 1.510 1_655 S
C1618 C1614 1.401 1_455 S
C1618 C1617 1.396 1_455 S
C1619 C1614 1.499 1_545 S
C1619 H1620 0.959 . S
C1619 H1621 0.960 . S
C1619 H1622 0.962 . S
H1620 C1619 0.959 . S
H1621 C1619 0.960 . S
H1622 C1619 0.962 . S
O1623 Co1598 1.967 . S
O1623 C1631 1.258 . S
O1624 Co1599 1.941 . S
O1624 C1631 1.266 . S
H1625 C1627 0.959 . S
H1626 C1627 0.961 . S
C1627 C1617 1.510 1_455 S
C1627 H1625 0.959 . S
C1627 H1626 0.961 . S
C1627 H1628 0.960 . S
H1628 C1627 0.960 . S
H1629 N1609 0.862 . S
O1630 Co1598 1.920 . S
O1630 C1603 1.289 . S
C1631 O1623 1.258 . S
C1631 O1624 1.266 . S
C33 C713 3.652 1_455 S
C1427 C67 3.652 . S
C1461 C101 3.652 . S
C135 C1495 3.652 1_554 S
C169 C1631 3.652 1_455 S
C747 C203 3.652 . S
C237 C1597 3.652 . S
C271 C577 3.652 1_556 S
C305 C543 3.652 1_545 S
C339 C441 3.652 1_545 S
C475 C373 3.652 1_545 S
C509 C407 3.652 1_545 S
C883 C611 3.652 1_554 S
C645 C917 3.652 1_455 S
C951 C679 3.652 . S
C781 C1053 3.652 1_455 S
C815 C985 3.652 . S
C1529 C849 3.652 . S
C1563 C1019 3.652 1_554 S
C1087 C1393 3.652 . S
C1359 C1121 3.652 . S
C1257 C1155 3.652 . S
C1189 C1291 3.652 . S
C1223 C1325 3.652 . S
C553 C20 1.392 . S
C1607 C54 1.392 1_655 S
C723 C88 1.392 . S
C122 C1573 1.392 . S
C1403 C156 1.392 . S
C190 C1437 1.392 . S
C1471 C224 1.392 . S
C258 C689 1.392 1_455 S
C292 C9 1.392 . S
C43 C326 1.392 . S
C77 C360 1.392 . S
C111 C394 1.392 1_554 S
C428 C145 1.392 . S
C462 C179 1.392 . S
C496 C213 1.392 . S
C530 C247 1.392 1_554 S
C281 C564 1.392 . S
C598 C1233 1.392 . S
C632 C1267 1.392 . S
C1301 C666 1.392 . S
C700 C519 1.392 1_545 S
C734 C349 1.392 . S
C1199 C768 1.392 . S
C802 C1131 1.392 . S
C836 C1369 1.392 . S
C870 C791 1.392 . S
C904 C1539 1.392 . S
C938 C757 1.392 1_655 S
C587 C972 1.392 . S
C1006 C621 1.392 1_655 S
C1040 C655 1.392 . S
C1074 C1505 1.392 . S
C825 C1108 1.392 . S
C1142 C859 1.392 1_556 S
C893 C1176 1.392 . S
C927 C1210 1.392 . S
C961 C1244 1.392 . S
C995 C1278 1.392 1_556 S
C1312 C1029 1.392 . S
C1346 C1063 1.392 . S
C1097 C1380 1.392 . S
C1414 C417 1.392 . S
C1448 C451 1.392 1_565 S
C1482 C485 1.392 . S
C1335 C1516 1.392 . S
C1165 C1550 1.392 . S
C383 C1584 1.392 1_565 S
C1618 C315 1.392 1_565 S
C308 C2 2.857 . S
C342 C36 2.857 . S
C70 C376 2.857 . S
C104 C274 2.857 . S
C138 C512 2.857 . S
C410 C172 2.857 . S
C444 C206 2.857 . S
C240 C478 2.857 . S
C546 C614 2.857 . S
C1566 C580 2.857 . S
C1600 C648 2.857 . S
C1532 C682 2.857 . S
C716 C1498 2.857 . S
C1396 C750 2.857 . S
C1464 C784 2.857 . S
C1124 C818 2.857 . S
C1158 C852 2.857 . S
C886 C1192 2.857 . S
C1090 C920 2.857 . S
C1328 C954 2.857 . S
C988 C1226 2.857 . S
C1260 C1022 2.857 . S
C1056 C1294 2.857 . S
C1362 C1430 2.857 . S
C889 C5 1.569 1_655 S
C39 C923 1.569 1_455 S
C821 C73 1.569 . S
C855 C107 1.569 . S
C1025 C141 1.569 1_655 S
C1059 C175 1.569 . S
C957 C209 1.569 . S
C243 C991 1.569 1_455 S
C277 C413 1.569 1_545 S
C311 C447 1.569 . S
C345 C481 1.569 1_565 S
C379 C515 1.569 1_556 S
C1467 C549 1.569 1_556 S
C1535 C583 1.569 1_554 S
C617 C753 1.569 . S
C1365 C651 1.569 . S
C685 C1603 1.569 1_545 S
C719 C1399 1.569 . S
C787 C1501 1.569 . S
C1093 C1229 1.569 . S
C1263 C1127 1.569 1_554 S
C1297 C1161 1.569 . S
C1195 C1331 1.569 . S
C1433 C1569 1.569 1_565 S
