# Generated by pormake.
# Topology qtz-x, (6)-cn, num edge types: 1
# Building blocks:
#     Node 0, Type 0, BuildingBlock: KUMBUR_clean_sbu_0, # of connection points: 6
#     Node 1, Type 0, BuildingBlock: KUMBUR_clean_sbu_0, # of connection points: 6
#     Node 2, Type 0, BuildingBlock: KUMBUR_clean_sbu_0, # of connection points: 6
#     Edge 3, Type (0, 0), BuildingBlock: KIFKEQ_clean_linker_1, # of connection points: 2
#     Edge 4, Type (0, 0), BuildingBlock: KIFKEQ_clean_linker_1, # of connection points: 2
#     Edge 5, Type (0, 0), BuildingBlock: KIFKEQ_clean_linker_1, # of connection points: 2
#     Edge 6, Type (0, 0), BuildingBlock: KIFKEQ_clean_linker_1, # of connection points: 2
#     Edge 7, Type (0, 0), BuildingBlock: KIFKEQ_clean_linker_1, # of connection points: 2
#     Edge 8, Type (0, 0), BuildingBlock: KIFKEQ_clean_linker_1, # of connection points: 2
#     Edge 9, Type (0, 0), BuildingBlock: KIFKEQ_clean_linker_1, # of connection points: 2
#     Edge 10, Type (0, 0), BuildingBlock: KIFKEQ_clean_linker_1, # of connection points: 2
#     Edge 11, Type (0, 0), BuildingBlock: KIFKEQ_clean_linker_1, # of connection points: 2
# Relax obj value: 0.164
# Max RMSD: 0.279
# Mean RMSD: 0.279
data_MOF--net-qtz-x--node1-KUMBUR_clean_sbu_0--edge1-KIFKEQ_clean_linker_1
_symmetry_space_group_name_H-M    P1
_symmetry_Int_Tables_number       1
_symmetry_cell_setting            triclinic
loop_
_symmetry_equiv_pos_as_xyz
'x, y, z'
_cell_length_a     15.398715
_cell_length_b     15.385853
_cell_length_c     51.157286
_cell_angle_alpha  90.121202
_cell_angle_beta   90.004761
_cell_angle_gamma 120.0085
loop_
_atom_site_label
_atom_site_type_symbol
_atom_site_fract_x
_atom_site_fract_y
_atom_site_fract_z
_atom_type_partial_charge
Tb0 Tb 0.2614 0.50094 0.20281 0.0
C1 C 0.8215 0.38003 0.1687 0.0
C2 C 0.71313 0.24531 0.19782 0.0
C3 C 0.64567 0.33203 0.17282 0.0
C4 C 0.8081 0.30696 0.18638 0.0
C5 C 0.7401 0.39271 0.16144 0.0
C6 C 0.63248 0.25935 0.19124 0.0
C7 C 0.84845 0.51727 0.1303 0.0
N8 N 0.91245 0.43352 0.15715 0.0
C9 C 0.92607 0.50019 0.13766 0.0
C10 C 0.75493 0.46315 0.14218 0.0
Tb11 Tb 0.02902 0.38692 0.16679 0.0
N12 N 0.88576 0.29072 0.19066 0.0
C13 C 0.87096 0.21 0.20528 0.0
C14 C 0.70054 0.16776 0.21437 0.0
C15 C 0.77974 0.1496 0.21796 0.0
H16 H -0.0034 0.54114 0.1276 0.0
H17 H 0.77008 0.08781 0.23008 0.0
H18 H 0.55888 0.21229 0.19965 0.0
H19 H 0.86041 0.57097 0.1151 0.0
H20 H 0.92972 0.19229 0.20777 0.0
H21 H 0.5107 0.81619 0.14235 0.0
H22 H 0.62907 0.11923 0.22366 0.0
H23 H 0.30024 0.34126 0.23682 0.0
H24 H 0.35656 0.70916 0.16675 0.0
H25 H 0.4378 0.30623 0.24425 0.0
H26 H 0.58196 0.33963 0.16719 0.0
H27 H 0.64795 0.77697 0.14165 0.0
H28 H 0.71929 0.67369 0.15924 0.0
H29 H 0.69427 0.47492 0.13602 0.0
H30 H 0.70225 0.54012 0.1887 0.0
N31 N 0.40004 0.60277 0.17802 0.0
C32 C 0.41385 0.68848 0.16616 0.0
C33 C 0.57884 0.72755 0.15182 0.0
C34 C 0.56791 0.6446 0.16575 0.0
C35 C 0.50181 0.75021 0.1523 0.0
C36 C 0.47605 0.58225 0.17853 0.0
H37 H 0.59795 0.40328 0.22061 0.0
N38 N 0.37859 0.45207 0.20764 0.0
C39 C 0.44648 0.36207 0.23005 0.0
C40 C 0.4657 0.50529 0.19436 0.0
C41 C 0.36855 0.38204 0.22571 0.0
C42 C 0.53649 0.41644 0.21651 0.0
C43 C 0.54723 0.48935 0.19846 0.0
O44 O 0.28633 0.51438 0.24356 0.0
O45 O 0.09974 0.4302 0.20477 0.0
O46 O 0.04109 0.52403 0.18298 0.0
O47 O 0.21279 0.60998 0.19308 0.0
O48 O 0.16957 0.388 0.2316 0.0
O49 O 0.3331 0.64511 0.21964 0.0
O50 O 0.02495 0.36703 0.12594 0.0
O51 O 0.19123 0.459 0.16504 0.0
O52 O 0.24514 0.36372 0.18521 0.0
O53 O 0.07155 0.27672 0.1795 0.0
O54 O 0.12191 0.50406 0.13906 0.0
O55 O 0.94789 0.24024 0.15139 0.0
C56 C 0.08419 0.37625 0.22473 0.0
C57 C 0.43173 0.66199 0.25694 0.0
C58 C 0.52617 0.72349 0.2978 0.0
C59 C 0.43397 0.67553 0.28424 0.0
C60 C 0.61543 0.75453 0.28366 0.0
C61 C 0.52216 0.69658 0.24333 0.0
C62 C 0.61321 0.74144 0.25666 0.0
C63 C 0.12601 0.60715 0.18907 0.0
C64 C 0.33492 0.61191 0.24294 0.0
C65 C 0.63817 0.54986 0.18543 0.0
C66 C 0.648 0.62629 0.16875 0.0
C67 C 0.20756 0.5169 0.14595 0.0
C68 C 0.8733 0.23472 0.11016 0.0
C69 C 0.88679 0.24718 0.08294 0.0
C70 C 0.80533 0.22455 0.0661 0.0
C71 C 0.7093 0.18617 0.07731 0.0
C72 C 0.7765 0.19432 0.12059 0.0
C73 C 0.69517 0.17009 0.10421 0.0
C74 C 0.15867 0.27942 0.18176 0.0
C75 C 0.96215 0.2714 0.12728 0.0
H76 H 0.36437 0.65091 0.29472 0.0
H77 H 0.68742 0.78935 0.29348 0.0
H78 H 0.52286 0.68973 0.22239 0.0
H79 H 0.68247 0.76682 0.246 0.0
H80 H 0.96157 0.27611 0.07513 0.0
H81 H 0.64481 0.17074 0.06552 0.0
H82 H 0.76363 0.18291 0.14141 0.0
H83 H 0.621 0.14073 0.11247 0.0
Tb84 Tb 0.6003 0.91226 0.53603 0.0
C85 C 0.90828 0.35715 0.50572 0.0
C86 C 0.86689 0.4551 0.53486 0.0
C87 C 0.02613 0.53515 0.51206 0.0
C88 C 0.84175 0.36308 0.52257 0.0
C89 C 0.00074 0.44358 0.49988 0.0
C90 C 0.96031 0.54045 0.52995 0.0
C91 C 0.03022 0.34614 0.46782 0.0
N92 N 0.87827 0.26904 0.49311 0.0
C93 C 0.93662 0.26343 0.47374 0.0
C94 C 0.06252 0.43669 0.48096 0.0
Tb95 Tb 0.71664 0.14337 0.49996 0.0
N96 N 0.74896 0.28141 0.52493 0.0
C97 C 0.67622 0.2897 0.53825 0.0
C98 C 0.79498 0.46042 0.55034 0.0
C99 C 0.69883 0.37747 0.55183 0.0
H100 H 0.91163 0.19522 0.46271 0.0
H101 H 0.64124 0.38171 0.56294 0.0
H102 H 0.98045 0.61191 0.53897 0.0
H103 H 0.07645 0.34051 0.45274 0.0
H104 H 0.60024 0.22854 0.53901 0.0
H105 H 0.74997 0.70987 0.48077 0.0
H106 H 0.81154 0.5294 0.56023 0.0
H107 H 0.37287 0.83068 0.56045 0.0
H108 H 0.76364 0.84829 0.50576 0.0
H109 H 0.20921 0.67456 0.56009 0.0
H110 H 0.09552 0.60287 0.50733 0.0
H111 H 0.585 0.56199 0.47167 0.0
H112 H 0.40105 0.46925 0.47934 0.0
H113 H 0.13386 0.50144 0.47586 0.0
H114 H 0.25503 0.45721 0.50192 0.0
N115 N 0.60448 0.78692 0.51135 0.0
C116 C 0.68919 0.78689 0.50269 0.0
C117 C 0.58945 0.62418 0.48277 0.0
C118 C 0.50355 0.62036 0.49289 0.0
C119 C 0.68259 0.70716 0.48801 0.0
C120 C 0.5131 0.70377 0.50714 0.0
H121 H 0.1861 0.5299 0.53366 0.0
N122 N 0.44076 0.77746 0.5333 0.0
C123 C 0.27006 0.68063 0.54817 0.0
C124 C 0.42921 0.69831 0.5188 0.0
C125 C 0.363 0.76887 0.54834 0.0
C126 C 0.2568 0.59971 0.53296 0.0
C127 C 0.33605 0.60801 0.51782 0.0
O128 O 0.68542 0.93856 0.57079 0.0
O129 O 0.68056 0.0736 0.53817 0.0
O130 O 0.8424 0.13608 0.5175 0.0
O131 O 0.76072 0.9665 0.53021 0.0
O132 O 0.55448 -0.00166 0.56039 0.0
O133 O 0.55152 0.79961 0.56492 0.0
O134 O 0.71211 0.14759 0.4588 0.0
O135 O 0.63077 0.98005 0.49795 0.0
O136 O 0.47688 0.93125 0.52057 0.0
O137 O 0.56036 0.09883 0.50751 0.0
O138 O 0.75272 0.0532 0.47419 0.0
O139 O 0.65328 0.22218 0.48215 0.0
C140 C 0.63165 0.08542 0.55629 0.0
C141 C 0.58658 0.86021 0.60834 0.0
C142 C 0.59296 0.84051 0.65575 0.0
C143 C 0.62719 0.83766 0.63026 0.0
C144 C 0.52027 0.86949 0.65895 0.0
C145 C 0.51051 0.88396 0.61227 0.0
C146 C 0.47946 0.89083 0.63734 0.0
C147 C 0.84297 0.05408 0.52549 0.0
C148 C 0.62067 0.85477 0.58155 0.0
C149 C 0.32612 0.52675 0.503 0.0
C150 C 0.40938 0.53349 0.49024 0.0
C151 C 0.679 0.9664 0.48005 0.0
C152 C 0.73149 0.29777 0.44185 0.0
C153 C 0.73473 0.2848 0.41471 0.0
C154 C 0.79492 0.36698 0.39827 0.0
C155 C 0.84997 0.46303 0.40977 0.0
C156 C 0.78521 0.3946 0.45257 0.0
C157 C 0.84396 0.47653 0.43657 0.0
C158 C 0.47746 0.01357 0.5126 0.0
C159 C 0.67696 0.20857 0.45867 0.0
H160 H 0.68377 0.81629 0.62744 0.0
H161 H 0.49112 0.87101 0.6781 0.0
H162 H 0.47289 0.89551 0.59617 0.0
H163 H 0.42131 0.91002 0.63999 0.0
H164 H 0.69084 0.20997 0.40664 0.0
H165 H 0.89994 0.52804 0.3983 0.0
H166 H 0.78314 0.40705 0.47332 0.0
H167 H 0.8867 0.55075 0.44507 0.0
Tb168 Tb 0.67724 0.55168 0.87025 0.0
C169 C 0.79105 0.22989 0.83485 0.0
C170 C 0.92552 0.25218 0.86363 0.0
C171 C 0.83542 0.09912 0.83814 0.0
C172 C 0.86535 0.288 0.85256 0.0
C173 C 0.77592 0.13514 0.82717 0.0
C174 C 0.90918 0.15692 0.85659 0.0
C175 C 0.65174 0.12304 0.79636 0.0
N176 N 0.73862 0.2694 0.8237 0.0
C177 C 0.67128 0.21836 0.80411 0.0
C178 C 0.70428 0.08117 0.80793 0.0
Tb179 Tb 0.79056 0.43349 0.83369 0.0
N180 N 0.88396 0.38261 0.85732 0.0
C181 C 0.96521 0.44661 0.87213 0.0
C182 C 0.00386 0.31525 0.88034 0.0
C183 C 0.02416 0.41321 0.88447 0.0
H184 H 0.63168 0.25026 0.79439 0.0
H185 H 0.08654 0.46383 0.89672 0.0
H186 H 0.95519 0.12853 0.86469 0.0
H187 H 0.59736 0.08269 0.78113 0.0
H188 H 0.98464 0.52357 0.87491 0.0
H189 H 0.36806 0.48763 0.80709 0.0
H190 H 0.0513 0.29034 0.88936 0.0
H191 H 0.83395 0.74938 0.90506 0.0
H192 H 0.47324 0.4398 0.83197 0.0
H193 H 0.86838 0.92202 0.91269 0.0
H194 H 0.82605 0.0273 0.83218 0.0
H195 H 0.4047 0.6634 0.80747 0.0
H196 H 0.50458 0.83688 0.82624 0.0
H197 H 0.69051 0.0082 0.80149 0.0
H198 H 0.63566 0.95268 0.85651 0.0
N199 N 0.57601 0.58874 0.84508 0.0
C200 C 0.49273 0.51747 0.8321 0.0
C201 C 0.45324 0.64342 0.81801 0.0
C202 C 0.53393 0.7147 0.8328 0.0
C203 C 0.43205 0.54413 0.81787 0.0
C204 C 0.59534 0.68492 0.84599 0.0
H205 H 0.7721 0.98542 0.88871 0.0
N206 N 0.72421 0.7173 0.87555 0.0
C207 C 0.813 0.87494 0.89833 0.0
C208 C 0.67112 0.75118 0.8622 0.0
C209 C 0.79343 0.77709 0.89387 0.0
C210 C 0.75898 0.9107 0.88463 0.0
C211 C 0.68658 0.84854 0.8664 0.0
O212 O 0.66283 0.56166 0.91101 0.0
O213 O 0.74712 0.45972 0.87184 0.0
O214 O 0.65307 0.30885 0.84941 0.0
O215 O 0.568 0.39542 0.85928 0.0
O216 O 0.78921 0.57087 0.89913 0.0
O217 O 0.53299 0.47699 0.88675 0.0
O218 O 0.81111 0.45095 0.79299 0.0
O219 O 0.72276 0.52696 0.83272 0.0
O220 O 0.81678 0.673 0.85401 0.0
O221 O 0.90264 0.58551 0.84688 0.0
O222 O 0.67865 0.41866 0.80497 0.0
O223 O 0.93652 0.49113 0.81845 0.0
C224 C 0.80099 0.49746 0.89192 0.0
C225 C 0.51396 0.55689 0.92415 0.0
C226 C 0.45009 0.58714 0.96493 0.0
C227 C 0.4997 0.5446 0.95139 0.0
C228 C 0.41798 0.64461 0.95085 0.0
C229 C 0.47864 0.61222 0.91058 0.0
C230 C 0.43198 0.65664 0.92391 0.0
C231 C 0.57026 0.3112 0.8552 0.0
C232 C 0.56543 0.51162 0.91016 0.0
C233 C 0.62641 0.879 0.85316 0.0
C234 C 0.55135 0.8128 0.83604 0.0
C235 C 0.66863 0.49257 0.81268 0.0
C236 C 0.9333 0.41653 0.77721 0.0
C237 C 0.90749 0.40643 0.75053 0.0
C238 C 0.92194 0.34086 0.73415 0.0
C239 C 0.96559 0.2875 0.74498 0.0
C240 C 0.97817 0.36368 0.78733 0.0
C241 C -0.00575 0.29978 0.77125 0.0
C242 C 0.90048 0.67008 0.85014 0.0
C243 C 0.90482 0.47575 0.79433 0.0
H244 H 0.52509 0.50019 0.96185 0.0
H245 H 0.38177 0.68041 0.96068 0.0
H246 H 0.48629 0.62067 0.88967 0.0
H247 H 0.40593 0.70005 0.91328 0.0
H248 H 0.87461 0.4489 0.74276 0.0
H249 H 0.97571 0.2343 0.7334 0.0
H250 H -0.00087 0.37004 0.80774 0.0
H251 H 0.0273 0.25795 0.77931 0.0
H252 H 0.28023 0.78928 0.20474 0.0
H253 H 0.97658 0.64637 0.17523 0.0
H254 H 0.28891 0.95071 0.20349 0.0
H255 H 0.9879 0.80876 0.17188 0.0
H256 H -0.00334 0.09636 0.19146 0.0
H257 H 0.98917 0.93673 0.19497 0.0
H258 H 0.30526 0.07895 0.17643 0.0
H259 H 0.31379 0.24164 0.17473 0.0
C260 C 0.21536 0.79213 0.19773 0.0
C261 C 0.12796 0.7044 0.18972 0.0
C262 C 0.22092 0.88542 0.19671 0.0
C263 C 0.13977 0.8939 0.18728 0.0
C264 C 0.05181 0.80577 0.17958 0.0
C265 C 0.04553 0.71214 0.18116 0.0
C266 C 0.0649 0.09417 0.18819 0.0
C267 C 0.15594 0.18208 0.18283 0.0
C268 C 0.06033 0.00173 0.18995 0.0
C269 C 0.14623 0.99377 0.18576 0.0
C270 C 0.23762 0.0819 0.1802 0.0
C271 C 0.24259 0.17526 0.179 0.0
H272 H 0.45899 0.18037 0.51291 0.0
H273 H 0.28188 0.85652 0.51364 0.0
H274 H 0.31057 0.19189 0.51885 0.0
H275 H 0.12974 0.86777 0.51758 0.0
H276 H 0.8811 0.91582 0.54832 0.0
H277 H 0.03271 0.90481 0.54515 0.0
H278 H 0.17235 0.17863 0.49982 0.0
H279 H 0.02455 0.19337 0.50503 0.0
C280 C 0.38803 0.11105 0.51405 0.0
C281 C 0.38308 0.01728 0.51329 0.0
C282 C 0.30185 0.11781 0.51716 0.0
C283 C 0.20701 0.03096 0.51871 0.0
C284 C 0.2014 0.93664 0.51711 0.0
C285 C 0.28861 0.92992 0.51464 0.0
C286 C 0.94483 0.97449 0.53799 0.0
C287 C 0.93967 0.05487 0.5265 0.0
C288 C 0.03161 0.96737 0.53585 0.0
C289 C 0.1152 0.03977 0.52186 0.0
C290 C 0.11065 0.12162 0.51105 0.0
C291 C 0.02483 0.12984 0.51376 0.0
H292 H 0.93777 0.86133 0.84134 0.0
H293 H 0.08257 0.69198 0.8616 0.0
H294 H 0.09996 0.01578 0.84245 0.0
H295 H 0.24236 0.84515 0.86449 0.0
H296 H 0.53203 0.12105 0.84325 0.0
H297 H 0.37023 0.96893 0.84067 0.0
H298 H 0.227 0.13143 0.86909 0.0
H299 H 0.38764 0.2849 0.86944 0.0
C300 C 0.0041 0.85729 0.84628 0.0
C301 C -0.00249 0.7645 0.85119 0.0
C302 C 0.09713 0.94584 0.84713 0.0
C303 C 0.18512 0.94351 0.85348 0.0
C304 C 0.17736 0.85034 0.85884 0.0
C305 C 0.08509 0.76207 0.8574 0.0
C306 C 0.46603 0.12477 0.84855 0.0
C307 C 0.47315 0.216 0.85595 0.0
C308 C 0.37282 0.03685 0.84747 0.0
C309 C 0.28458 0.03732 0.85454 0.0
C310 C 0.29243 0.12815 0.8628 0.0
C311 C 0.38527 0.21636 0.8633 0.0
H312 H 0.27743 0.54537 0.98981 0.0
H313 H 0.57338 0.59011 1.00468 0.0
H314 H 0.24604 0.53679 0.03654 0.0
H315 H 0.53988 0.57864 0.05203 0.0
H316 H 0.30551 0.41618 0.13052 0.0
H317 H 0.38344 0.43343 0.0873 0.0
H318 H 0.35216 0.69168 0.07143 0.0
H319 H 0.27431 0.67406 0.114 0.0
C320 C 0.3359 0.5533 1.00304 0.0
C321 C 0.42881 0.57075 0.99347 0.0
C322 C 0.31761 0.54782 0.02981 0.0
C323 C 0.39118 0.5586 0.0478 0.0
C324 C 0.48223 0.57043 0.03846 0.0
C325 C 0.50108 0.57675 1.01144 0.0
C326 C 0.31957 0.47904 0.11819 0.0
C327 C 0.28381 0.54373 0.12539 0.0
C328 C 0.36367 0.48866 0.0935 0.0
C329 C 0.37204 0.56292 0.07601 0.0
C330 C 0.34557 0.6333 0.08448 0.0
C331 C 0.30151 0.62348 0.10885 0.0
H332 H 0.77839 0.19988 0.37312 0.0
H333 H 0.83423 0.49999 0.35762 0.0
H334 H 0.8106 0.1824 0.32788 0.0
H335 H 0.87964 0.48705 0.31315 0.0
H336 H 0.95534 0.45133 0.23154 0.0
H337 H 0.85432 0.431 0.27046 0.0
H338 H 0.95021 0.23388 0.30362 0.0
H339 H 0.04334 0.249 0.2644 0.0
C340 C 0.79679 0.26234 0.36022 0.0
C341 C 0.80547 0.35243 0.36966 0.0
C342 C 0.8175 0.25287 0.3341 0.0
C343 C 0.85125 0.33432 0.31671 0.0
C344 C 0.85415 0.42226 0.32569 0.0
C345 C 0.83025 0.4306 0.35163 0.0
C346 C 0.95157 0.40121 0.24688 0.0
C347 C 0.00729 0.35193 0.24507 0.0
C348 C 0.89485 0.39045 0.2694 0.0
C349 C 0.89461 0.33188 0.29067 0.0
C350 C 0.94621 0.27843 0.28784 0.0
C351 C 0.00096 0.28785 0.26533 0.0
H352 H 0.7647 0.69853 0.80742 0.0
H353 H 0.53886 0.42116 0.77254 0.0
H354 H 0.75652 0.79136 0.76963 0.0
H355 H 0.52918 0.51326 0.73505 0.0
H356 H 0.61577 0.67582 0.65895 0.0
H357 H 0.63652 0.59931 0.69831 0.0
H358 H 0.65347 0.84203 0.74483 0.0
H359 H 0.63716 0.921 0.70522 0.0
C360 C 0.71163 0.65775 0.79199 0.0
C361 C 0.65225 0.55265 0.79286 0.0
C362 C 0.7072 0.71081 0.77027 0.0
C363 C 0.64387 0.65947 0.74901 0.0
C364 C 0.58096 0.55489 0.75069 0.0
C365 C 0.58553 0.50219 0.77228 0.0
C366 C 0.62673 0.71438 0.67744 0.0
C367 C 0.62385 0.80404 0.67892 0.0
C368 C 0.63686 0.66963 0.70011 0.0
C369 C 0.64412 0.71326 0.72482 0.0
C370 C 0.64757 0.80615 0.72615 0.0
C371 C 0.63765 0.85107 0.70345 0.0
H372 H 0.72321 0.29309 0.89882 0.0
H373 H 0.93137 0.58339 0.93104 0.0
H374 H 0.74235 0.21249 0.93793 0.0
H375 H 0.94559 0.5058 0.9704 0.0
H376 H 0.97452 0.37021 0.04071 0.0
H377 H -0.00653 0.41645 0.99526 0.0
H378 H 0.68697 0.18492 0.98059 0.0
H379 H 0.67235 0.12943 0.02535 0.0
C380 C 0.77447 0.33937 0.91405 0.0
C381 C 0.82557 0.44441 0.91204 0.0
C382 C 0.78455 0.29353 0.93668 0.0
C383 C 0.84435 0.35209 0.95785 0.0
C384 C 0.89995 0.45698 0.95474 0.0
C385 C 0.89113 0.50213 0.93213 0.0
C386 C 0.91187 0.32614 0.02781 0.0
C387 C 0.82078 0.24688 0.03736 0.0
C388 C 0.92223 0.35442 1.00154 0.0
C389 C 0.84077 0.30715 0.98408 0.0
C390 C 0.75181 0.22392 0.99318 0.0
C391 C 0.74254 0.1934 0.01929 0.0
H392 H 0.40319 0.60165 0.33737 0.0
H393 H 0.66042 0.89434 0.32304 0.0
H394 H 0.42389 0.63536 0.38473 0.0
H395 H 0.68194 0.92592 0.36975 0.0
H396 H 0.7813 0.91077 0.44864 0.0
H397 H 0.72919 0.83283 0.40574 0.0
H398 H 0.43009 0.77963 0.41959 0.0
H399 H 0.4826 0.85738 0.46318 0.0
C400 C 0.46341 0.67319 0.34424 0.0
C401 C 0.53147 0.74449 0.3264 0.0
C402 C 0.47527 0.69214 0.37129 0.0
C403 C 0.55573 0.78224 0.38083 0.0
C404 C 0.62071 0.85475 0.36294 0.0
C405 C 0.60851 0.83641 0.33615 0.0
C406 C 0.7034 0.87895 0.44295 0.0
C407 C 0.63613 0.89049 0.45905 0.0
C408 C 0.67376 0.83492 0.41836 0.0
C409 C 0.57636 0.80239 0.40918 0.0
C410 C 0.50572 0.80441 0.42626 0.0
C411 C 0.53556 0.84845 0.45116 0.0
H412 H 0.00598 0.29986 0.69169 0.0
H413 H 0.75893 0.34409 0.71292 0.0
H414 H 0.93986 0.25535 0.64769 0.0
H415 H 0.69887 0.30989 0.66828 0.0
H416 H 0.53843 0.09982 0.5994 0.0
H417 H 0.6134 0.17471 0.64105 0.0
H418 H 0.90878 0.2986 0.60682 0.0
H419 H 0.83243 0.21587 0.56555 0.0
C420 C 0.93811 0.30119 0.68701 0.0
C421 C 0.88748 0.32441 0.70627 0.0
C422 C 0.90107 0.27752 0.66145 0.0
C423 C 0.81324 0.27821 0.65416 0.0
C424 C 0.7654 0.30623 0.6731 0.0
C425 C 0.80121 0.32781 0.69879 0.0
C426 C 0.61942 0.14431 0.60069 0.0
C427 C 0.67939 0.15129 0.57925 0.0
C428 C 0.66282 0.18823 0.62463 0.0
C429 C 0.76778 0.24251 0.62766 0.0
C430 C 0.82781 0.25541 0.60556 0.0
C431 C 0.78412 0.20936 0.58169 0.0
loop_
_geom_bond_atom_site_label_1
_geom_bond_atom_site_label_2
_geom_bond_distance
_geom_bond_site_symmetry_2
_ccdc_geom_bond_type
Tb0 N31 2.660 . S
Tb0 N38 2.600 . S
Tb0 O44 2.546 . S
Tb0 O45 2.610 1_455 S
Tb0 O47 2.320 . S
Tb0 O48 2.552 . S
Tb0 O49 2.413 . S
Tb0 O51 2.362 . S
Tb0 O52 2.421 . S
Tb0 C64 2.833 . S
C1 C4 1.432 . S
C1 C5 1.414 . S
C1 N8 1.359 . S
C2 C4 1.417 . S
C2 C6 1.432 . S
C2 C14 1.410 . S
C3 C5 1.444 . S
C3 C6 1.317 . S
C3 H26 0.929 . S
C4 C1 1.432 . S
C4 C2 1.417 . S
C4 N12 1.360 . S
C5 C1 1.414 . S
C5 C3 1.444 . S
C5 C10 1.385 . S
C6 C2 1.432 . S
C6 C3 1.317 . S
C6 H18 0.930 . S
C7 C9 1.392 . S
C7 C10 1.370 . S
C7 H19 0.931 . S
N8 C1 1.359 . S
N8 C9 1.327 . S
N8 Tb11 2.600 . S
C9 C7 1.392 . S
C9 N8 1.327 . S
C9 H16 0.930 . S
C10 C5 1.385 . S
C10 C7 1.370 . S
C10 H29 0.930 . S
Tb11 N8 2.600 . S
Tb11 N12 2.660 . S
Tb11 O45 2.362 . S
Tb11 O46 2.421 . S
Tb11 O50 2.546 . S
Tb11 O51 2.610 1_655 S
Tb11 O53 2.320 . S
Tb11 O54 2.552 . S
Tb11 O55 2.413 . S
Tb11 C75 2.833 . S
N12 C4 1.360 . S
N12 Tb11 2.660 . S
N12 C13 1.305 . S
C13 N12 1.305 . S
C13 C15 1.407 . S
C13 H20 0.930 . S
C14 C2 1.410 . S
C14 C15 1.345 . S
C14 H22 0.930 . S
C15 C13 1.407 . S
C15 C14 1.345 . S
C15 H17 0.930 . S
H16 C9 0.930 . S
H17 C15 0.930 . S
H18 C6 0.930 . S
H19 C7 0.931 . S
H20 C13 0.930 . S
H21 C35 0.930 . S
H22 C14 0.930 . S
H23 C41 0.930 . S
H24 C32 0.930 . S
H25 C39 0.931 . S
H26 C3 0.929 . S
H27 C33 0.930 . S
H28 C66 0.930 . S
H29 C10 0.930 . S
H30 C65 0.929 . S
N31 Tb0 2.660 . S
N31 C32 1.305 . S
N31 C36 1.360 . S
C32 H24 0.930 . S
C32 N31 1.305 . S
C32 C35 1.407 . S
C33 H27 0.930 . S
C33 C34 1.410 . S
C33 C35 1.345 . S
C34 C33 1.410 . S
C34 C36 1.417 . S
C34 C66 1.432 . S
C35 H21 0.930 . S
C35 C32 1.407 . S
C35 C33 1.345 . S
C36 N31 1.360 . S
C36 C34 1.417 . S
C36 C40 1.432 . S
H37 C42 0.930 . S
N38 Tb0 2.600 . S
N38 C40 1.359 . S
N38 C41 1.327 . S
C39 H25 0.931 . S
C39 C41 1.392 . S
C39 C42 1.370 . S
C40 C36 1.432 . S
C40 N38 1.359 . S
C40 C43 1.414 . S
C41 H23 0.930 . S
C41 N38 1.327 . S
C41 C39 1.392 . S
C42 H37 0.930 . S
C42 C39 1.370 . S
C42 C43 1.385 . S
C43 C40 1.414 . S
C43 C42 1.385 . S
C43 C65 1.444 . S
O44 Tb0 2.546 . S
O44 C64 1.251 . S
O45 Tb0 2.610 1_655 S
O45 Tb11 2.362 . S
O45 C56 1.283 . S
O46 Tb11 2.421 . S
O46 C63 1.262 1_655 S
O47 Tb0 2.320 . S
O47 C63 1.260 . S
O48 Tb0 2.552 . S
O48 C56 1.243 1_455 S
O49 Tb0 2.413 . S
O49 C64 1.256 . S
O50 Tb11 2.546 . S
O50 C75 1.251 . S
O51 Tb0 2.362 . S
O51 Tb11 2.610 1_455 S
O51 C67 1.283 . S
O52 Tb0 2.421 . S
O52 C74 1.262 1_455 S
O53 Tb11 2.320 . S
O53 C74 1.260 . S
O54 Tb11 2.552 . S
O54 C67 1.243 1_655 S
O55 Tb11 2.413 . S
O55 C75 1.256 . S
C56 O45 1.283 . S
C56 O48 1.243 1_655 S
C57 C59 1.382 . S
C57 C61 1.393 . S
C57 C64 1.500 . S
C58 C59 1.400 . S
C58 C60 1.384 . S
C59 C57 1.382 . S
C59 C58 1.400 . S
C59 H76 0.930 . S
C60 C58 1.384 . S
C60 C62 1.392 . S
C60 H77 0.931 . S
C61 C57 1.393 . S
C61 C62 1.401 . S
C61 H78 0.930 . S
C62 C60 1.392 . S
C62 C61 1.401 . S
C62 H79 0.930 . S
C63 O46 1.262 1_455 S
C63 O47 1.260 . S
C64 Tb0 2.833 . S
C64 O44 1.251 . S
C64 O49 1.256 . S
C64 C57 1.500 . S
C65 H30 0.929 . S
C65 C43 1.444 . S
C65 C66 1.317 . S
C66 H28 0.930 . S
C66 C34 1.432 . S
C66 C65 1.317 . S
C67 O51 1.283 . S
C67 O54 1.243 1_455 S
C68 C69 1.382 . S
C68 C72 1.393 . S
C68 C75 1.500 . S
C69 C68 1.382 . S
C69 C70 1.400 . S
C69 H80 0.930 . S
C70 C69 1.400 . S
C70 C71 1.384 . S
C71 C70 1.384 . S
C71 C73 1.392 . S
C71 H81 0.931 . S
C72 C68 1.393 . S
C72 C73 1.401 . S
C72 H82 0.930 . S
C73 C71 1.392 . S
C73 C72 1.401 . S
C73 H83 0.930 . S
C74 O52 1.262 1_655 S
C74 O53 1.260 . S
C75 Tb11 2.833 . S
C75 O50 1.251 . S
C75 O55 1.256 . S
C75 C68 1.500 . S
H76 C59 0.930 . S
H77 C60 0.931 . S
H78 C61 0.930 . S
H79 C62 0.930 . S
H80 C69 0.930 . S
H81 C71 0.931 . S
H82 C72 0.930 . S
H83 C73 0.930 . S
Tb84 N115 2.660 1_545 S
Tb84 N122 2.600 1_545 S
Tb84 O128 2.546 1_545 S
Tb84 O129 2.610 . S
Tb84 O131 2.320 . S
Tb84 O132 2.552 . S
Tb84 O133 2.413 1_545 S
Tb84 O135 2.362 . S
Tb84 O136 2.421 . S
Tb84 C148 2.833 1_545 S
C85 C88 1.432 1_455 S
C85 C89 1.414 . S
C85 N92 1.359 . S
C86 C88 1.417 . S
C86 C90 1.432 1_655 S
C86 C98 1.410 . S
C87 C89 1.444 . S
C87 C90 1.317 . S
C87 H110 0.929 . S
C88 C85 1.432 1_655 S
C88 C86 1.417 . S
C88 N96 1.360 . S
C89 C85 1.414 . S
C89 C87 1.444 . S
C89 C94 1.385 . S
C90 C86 1.432 1_455 S
C90 C87 1.317 . S
C90 H102 0.930 . S
C91 C93 1.392 . S
C91 C94 1.370 . S
C91 H103 0.931 . S
N92 C85 1.359 . S
N92 C93 1.327 . S
N92 Tb95 2.600 1_455 S
C93 C91 1.392 . S
C93 N92 1.327 . S
C93 H100 0.930 . S
C94 C89 1.385 . S
C94 C91 1.370 . S
C94 H113 0.930 . S
Tb95 N92 2.600 1_655 S
Tb95 N96 2.660 . S
Tb95 O129 2.362 . S
Tb95 O130 2.421 . S
Tb95 O134 2.546 . S
Tb95 O135 2.610 . S
Tb95 O137 2.320 . S
Tb95 O138 2.552 . S
Tb95 O139 2.413 . S
Tb95 C159 2.833 . S
N96 C88 1.360 . S
N96 Tb95 2.660 . S
N96 C97 1.305 . S
C97 N96 1.305 . S
C97 C99 1.407 . S
C97 H104 0.930 . S
C98 C86 1.410 . S
C98 C99 1.345 . S
C98 H106 0.930 . S
C99 C97 1.407 . S
C99 C98 1.345 . S
C99 H101 0.930 . S
H100 C93 0.930 . S
H101 C99 0.930 . S
H102 C90 0.930 . S
H103 C91 0.931 . S
H104 C97 0.930 . S
H105 C119 0.930 . S
H106 C98 0.930 . S
H107 C125 0.930 . S
H108 C116 0.930 . S
H109 C123 0.931 . S
H110 C87 0.929 . S
H111 C117 0.930 . S
H112 C150 0.930 . S
H113 C94 0.930 . S
H114 C149 0.929 . S
N115 Tb84 2.660 1_565 S
N115 C116 1.305 . S
N115 C120 1.360 . S
C116 H108 0.930 . S
C116 N115 1.305 . S
C116 C119 1.407 . S
C117 H111 0.930 . S
C117 C118 1.410 . S
C117 C119 1.345 . S
C118 C117 1.410 . S
C118 C120 1.417 . S
C118 C150 1.432 . S
C119 H105 0.930 . S
C119 C116 1.407 . S
C119 C117 1.345 . S
C120 N115 1.360 . S
C120 C118 1.417 . S
C120 C124 1.432 . S
H121 C126 0.930 . S
N122 Tb84 2.600 1_565 S
N122 C124 1.359 . S
N122 C125 1.327 . S
C123 H109 0.931 . S
C123 C125 1.392 . S
C123 C126 1.370 . S
C124 C120 1.432 . S
C124 N122 1.359 . S
C124 C127 1.414 . S
C125 H107 0.930 . S
C125 N122 1.327 . S
C125 C123 1.392 . S
C126 H121 0.930 . S
C126 C123 1.370 . S
C126 C127 1.385 . S
C127 C124 1.414 . S
C127 C126 1.385 . S
C127 C149 1.444 . S
O128 Tb84 2.546 1_565 S
O128 C148 1.251 . S
O129 Tb84 2.610 . S
O129 Tb95 2.362 . S
O129 C140 1.283 . S
O130 Tb95 2.421 . S
O130 C147 1.262 . S
O131 Tb84 2.320 . S
O131 C147 1.260 . S
O132 Tb84 2.552 . S
O132 C140 1.243 . S
O133 Tb84 2.413 1_565 S
O133 C148 1.256 . S
O134 Tb95 2.546 . S
O134 C159 1.251 . S
O135 Tb84 2.362 . S
O135 Tb95 2.610 . S
O135 C151 1.283 . S
O136 Tb84 2.421 . S
O136 C158 1.262 . S
O137 Tb95 2.320 . S
O137 C158 1.260 . S
O138 Tb95 2.552 . S
O138 C151 1.243 . S
O139 Tb95 2.413 . S
O139 C159 1.256 . S
C140 O129 1.283 . S
C140 O132 1.243 . S
C141 C143 1.382 . S
C141 C145 1.393 . S
C141 C148 1.500 . S
C142 C143 1.400 . S
C142 C144 1.384 . S
C143 C141 1.382 . S
C143 C142 1.400 . S
C143 H160 0.930 . S
C144 C142 1.384 . S
C144 C146 1.392 . S
C144 H161 0.931 . S
C145 C141 1.393 . S
C145 C146 1.401 . S
C145 H162 0.930 . S
C146 C144 1.392 . S
C146 C145 1.401 . S
C146 H163 0.930 . S
C147 O130 1.262 . S
C147 O131 1.260 . S
C148 Tb84 2.833 1_565 S
C148 O128 1.251 . S
C148 O133 1.256 . S
C148 C141 1.500 . S
C149 H114 0.929 . S
C149 C127 1.444 . S
C149 C150 1.317 . S
C150 H112 0.930 . S
C150 C118 1.432 . S
C150 C149 1.317 . S
C151 O135 1.283 . S
C151 O138 1.243 . S
C152 C153 1.382 . S
C152 C156 1.393 1_655 S
C152 C159 1.500 . S
C153 C152 1.382 . S
C153 C154 1.400 . S
C153 H164 0.930 . S
C154 C153 1.400 . S
C154 C155 1.384 . S
C155 C154 1.384 . S
C155 C157 1.392 1_655 S
C155 H165 0.931 . S
C156 C152 1.393 1_455 S
C156 C157 1.401 . S
C156 H166 0.930 . S
C157 C155 1.392 1_455 S
C157 C156 1.401 . S
C157 H167 0.930 . S
C158 O136 1.262 . S
C158 O137 1.260 . S
C159 Tb95 2.833 . S
C159 O134 1.251 . S
C159 O139 1.256 . S
C159 C152 1.500 . S
H160 C143 0.930 . S
H161 C144 0.931 . S
H162 C145 0.930 . S
H163 C146 0.930 . S
H164 C153 0.930 . S
H165 C155 0.931 . S
H166 C156 0.930 . S
H167 C157 0.930 . S
Tb168 N199 2.660 . S
Tb168 N206 2.600 . S
Tb168 O212 2.546 . S
Tb168 O213 2.610 . S
Tb168 O215 2.320 . S
Tb168 O216 2.552 . S
Tb168 O217 2.413 . S
Tb168 O219 2.362 . S
Tb168 O220 2.421 . S
Tb168 C232 2.833 . S
C169 C172 1.432 . S
C169 C173 1.414 . S
C169 N176 1.359 . S
C170 C172 1.417 1_455 S
C170 C174 1.432 . S
C170 C182 1.410 . S
C171 C173 1.444 . S
C171 C174 1.317 1_655 S
C171 H194 0.929 1_545 S
C172 C169 1.432 . S
C172 C170 1.417 1_655 S
C172 N180 1.360 . S
C173 C169 1.414 . S
C173 C171 1.444 . S
C173 C178 1.385 1_545 S
C174 C170 1.432 . S
C174 C171 1.317 1_455 S
C174 H186 0.930 . S
C175 C177 1.392 1_565 S
C175 C178 1.370 . S
C175 H187 0.931 . S
N176 C169 1.359 . S
N176 C177 1.327 . S
N176 Tb179 2.600 . S
C177 C175 1.392 1_545 S
C177 N176 1.327 . S
C177 H184 0.930 . S
C178 C173 1.385 1_565 S
C178 C175 1.370 . S
C178 H197 0.930 . S
Tb179 N176 2.600 . S
Tb179 N180 2.660 . S
Tb179 O213 2.362 . S
Tb179 O214 2.421 . S
Tb179 O218 2.546 . S
Tb179 O219 2.610 . S
Tb179 O221 2.320 . S
Tb179 O222 2.552 . S
Tb179 O223 2.413 . S
Tb179 C243 2.833 . S
N180 C172 1.360 . S
N180 Tb179 2.660 . S
N180 C181 1.305 1_655 S
C181 N180 1.305 1_455 S
C181 C183 1.407 . S
C181 H188 0.930 . S
C182 C170 1.410 . S
C182 C183 1.345 . S
C182 H190 0.930 . S
C183 C181 1.407 . S
C183 C182 1.345 . S
C183 H185 0.930 . S
H184 C177 0.930 . S
H185 C183 0.930 . S
H186 C174 0.930 . S
H187 C175 0.931 . S
H188 C181 0.930 . S
H189 C203 0.930 . S
H190 C182 0.930 . S
H191 C209 0.930 . S
H192 C200 0.930 . S
H193 C207 0.931 . S
H194 C171 0.929 1_565 S
H195 C201 0.930 . S
H196 C234 0.930 . S
H197 C178 0.930 . S
H198 C233 0.929 . S
N199 Tb168 2.660 . S
N199 C200 1.305 . S
N199 C204 1.360 . S
C200 H192 0.930 . S
C200 N199 1.305 . S
C200 C203 1.407 . S
C201 H195 0.930 . S
C201 C202 1.410 . S
C201 C203 1.345 . S
C202 C201 1.410 . S
C202 C204 1.417 . S
C202 C234 1.432 . S
C203 H189 0.930 . S
C203 C200 1.407 . S
C203 C201 1.345 . S
C204 N199 1.360 . S
C204 C202 1.417 . S
C204 C208 1.432 . S
H205 C210 0.930 . S
N206 Tb168 2.600 . S
N206 C208 1.359 . S
N206 C209 1.327 . S
C207 H193 0.931 . S
C207 C209 1.392 . S
C207 C210 1.370 . S
C208 C204 1.432 . S
C208 N206 1.359 . S
C208 C211 1.414 . S
C209 H191 0.930 . S
C209 N206 1.327 . S
C209 C207 1.392 . S
C210 H205 0.930 . S
C210 C207 1.370 . S
C210 C211 1.385 . S
C211 C208 1.414 . S
C211 C210 1.385 . S
C211 C233 1.444 . S
O212 Tb168 2.546 . S
O212 C232 1.251 . S
O213 Tb168 2.610 . S
O213 Tb179 2.362 . S
O213 C224 1.283 . S
O214 Tb179 2.421 . S
O214 C231 1.262 . S
O215 Tb168 2.320 . S
O215 C231 1.260 . S
O216 Tb168 2.552 . S
O216 C224 1.243 . S
O217 Tb168 2.413 . S
O217 C232 1.256 . S
O218 Tb179 2.546 . S
O218 C243 1.251 . S
O219 Tb168 2.362 . S
O219 Tb179 2.610 . S
O219 C235 1.283 . S
O220 Tb168 2.421 . S
O220 C242 1.262 . S
O221 Tb179 2.320 . S
O221 C242 1.260 . S
O222 Tb179 2.552 . S
O222 C235 1.243 . S
O223 Tb179 2.413 . S
O223 C243 1.256 . S
C224 O213 1.283 . S
C224 O216 1.243 . S
C225 C227 1.382 . S
C225 C229 1.393 . S
C225 C232 1.500 . S
C226 C227 1.400 . S
C226 C228 1.384 . S
C227 C225 1.382 . S
C227 C226 1.400 . S
C227 H244 0.930 . S
C228 C226 1.384 . S
C228 C230 1.392 . S
C228 H245 0.931 . S
C229 C225 1.393 . S
C229 C230 1.401 . S
C229 H246 0.930 . S
C230 C228 1.392 . S
C230 C229 1.401 . S
C230 H247 0.930 . S
C231 O214 1.262 . S
C231 O215 1.260 . S
C232 Tb168 2.833 . S
C232 O212 1.251 . S
C232 O217 1.256 . S
C232 C225 1.500 . S
C233 H198 0.929 . S
C233 C211 1.444 . S
C233 C234 1.317 . S
C234 H196 0.930 . S
C234 C202 1.432 . S
C234 C233 1.317 . S
C235 O219 1.283 . S
C235 O222 1.243 . S
C236 C237 1.382 1_655 S
C236 C240 1.393 . S
C236 C243 1.500 . S
C237 C236 1.382 1_455 S
C237 C238 1.400 . S
C237 H248 0.930 . S
C238 C237 1.400 . S
C238 C239 1.384 . S
C239 C238 1.384 . S
C239 C241 1.392 1_455 S
C239 H249 0.931 . S
C240 C236 1.393 . S
C240 C241 1.401 . S
C240 H250 0.930 . S
C241 C239 1.392 1_655 S
C241 C240 1.401 . S
C241 H251 0.930 . S
C242 O220 1.262 . S
C242 O221 1.260 . S
C243 Tb179 2.833 . S
C243 O218 1.251 . S
C243 O223 1.256 . S
C243 C236 1.500 . S
H244 C227 0.930 . S
H245 C228 0.931 . S
H246 C229 0.930 . S
H247 C230 0.930 . S
H248 C237 0.930 . S
H249 C239 0.931 . S
H250 C240 0.930 . S
H251 C241 0.930 . S
H252 C260 0.950 . S
H253 C265 0.950 . S
H254 C262 0.950 . S
H255 C264 0.950 . S
H256 C266 0.950 . S
H257 C268 0.950 . S
H258 C270 0.950 . S
H259 C271 0.950 . S
C260 H252 0.950 . S
C260 C261 1.386 . S
C260 C262 1.391 . S
C261 C260 1.386 . S
C261 C265 1.393 1_455 S
C262 H254 0.950 . S
C262 C260 1.391 . S
C262 C263 1.410 . S
C263 C262 1.410 . S
C263 C264 1.394 1_455 S
C263 C269 1.481 1_455 S
C264 H255 0.950 . S
C264 C263 1.394 1_655 S
C264 C265 1.391 . S
C265 H253 0.950 . S
C265 C261 1.393 1_655 S
C265 C264 1.391 . S
C266 H256 0.950 . S
C266 C267 1.386 . S
C266 C268 1.391 1_545 S
C267 C266 1.386 . S
C267 C271 1.393 1_655 S
C268 H257 0.950 . S
C268 C266 1.391 1_565 S
C268 C269 1.407 . S
C269 C263 1.481 1_655 S
C269 C268 1.407 . S
C269 C270 1.395 1_665 S
C270 H258 0.950 . S
C270 C269 1.395 1_445 S
C270 C271 1.391 . S
C271 H259 0.950 . S
C271 C267 1.393 1_455 S
C271 C270 1.391 . S
H272 C280 0.950 . S
H273 C285 0.950 . S
H274 C282 0.950 . S
H275 C284 0.950 . S
H276 C286 0.950 . S
H277 C288 0.950 . S
H278 C290 0.950 . S
H279 C291 0.950 . S
C280 H272 0.950 . S
C280 C281 1.386 . S
C280 C282 1.391 . S
C281 C280 1.386 . S
C281 C285 1.393 . S
C282 H274 0.950 . S
C282 C280 1.391 . S
C282 C283 1.400 . S
C283 C282 1.400 . S
C283 C284 1.398 . S
C283 C289 1.491 . S
C284 H275 0.950 . S
C284 C283 1.398 . S
C284 C285 1.391 . S
C285 H273 0.950 . S
C285 C281 1.393 . S
C285 C284 1.391 . S
C286 H276 0.950 . S
C286 C287 1.386 . S
C286 C288 1.391 . S
C287 C286 1.386 . S
C287 C291 1.393 . S
C288 H277 0.950 . S
C288 C286 1.391 . S
C288 C289 1.400 . S
C289 C283 1.491 . S
C289 C288 1.400 . S
C289 C290 1.398 . S
C290 H278 0.950 . S
C290 C289 1.398 . S
C290 C291 1.391 . S
C291 H279 0.950 . S
C291 C287 1.393 . S
C291 C290 1.391 . S
H292 C300 0.950 1_655 S
H293 C305 0.950 . S
H294 C302 0.950 . S
H295 C304 0.950 . S
H296 C306 0.950 . S
H297 C308 0.950 . S
H298 C310 0.950 . S
H299 C311 0.950 . S
C300 H292 0.950 1_455 S
C300 C301 1.386 . S
C300 C302 1.391 . S
C301 C300 1.386 . S
C301 C305 1.393 . S
C302 H294 0.950 . S
C302 C300 1.391 . S
C302 C303 1.400 . S
C303 C302 1.400 . S
C303 C304 1.398 . S
C303 C309 1.491 . S
C304 H295 0.950 . S
C304 C303 1.398 . S
C304 C305 1.391 . S
C305 H293 0.950 . S
C305 C301 1.393 . S
C305 C304 1.391 . S
C306 H296 0.950 . S
C306 C307 1.386 . S
C306 C308 1.391 1_545 S
C307 C306 1.386 . S
C307 C311 1.393 . S
C308 H297 0.950 . S
C308 C306 1.391 1_565 S
C308 C309 1.400 . S
C309 C303 1.491 . S
C309 C308 1.400 . S
C309 C310 1.398 1_565 S
C310 H298 0.950 . S
C310 C309 1.398 1_545 S
C310 C311 1.391 . S
C311 H299 0.950 . S
C311 C307 1.393 . S
C311 C310 1.391 . S
H312 C320 0.950 . S
H313 C325 0.950 . S
H314 C322 0.950 . S
H315 C324 0.950 . S
H316 C326 0.950 . S
H317 C328 0.950 . S
H318 C330 0.950 . S
H319 C331 0.950 . S
C320 H312 0.950 . S
C320 C321 1.386 . S
C320 C322 1.391 1_556 S
C321 C320 1.386 . S
C321 C325 1.393 1_556 S
C322 H314 0.950 . S
C322 C320 1.391 1_554 S
C322 C323 1.400 . S
C323 C322 1.400 . S
C323 C324 1.398 . S
C323 C329 1.491 . S
C324 H315 0.950 . S
C324 C323 1.398 . S
C324 C325 1.391 . S
C325 H313 0.950 . S
C325 C321 1.393 1_554 S
C325 C324 1.391 . S
C326 H316 0.950 . S
C326 C327 1.386 . S
C326 C328 1.391 . S
C327 C326 1.386 . S
C327 C331 1.393 . S
C328 H317 0.950 . S
C328 C326 1.391 . S
C328 C329 1.400 . S
C329 C323 1.491 . S
C329 C328 1.400 . S
C329 C330 1.398 . S
C330 H318 0.950 . S
C330 C329 1.398 . S
C330 C331 1.391 . S
C331 H319 0.950 . S
C331 C327 1.393 . S
C331 C330 1.391 . S
H332 C340 0.950 . S
H333 C345 0.950 . S
H334 C342 0.950 . S
H335 C344 0.950 . S
H336 C346 0.950 . S
H337 C348 0.950 . S
H338 C350 0.950 . S
H339 C351 0.950 . S
C340 H332 0.950 . S
C340 C341 1.386 . S
C340 C342 1.391 . S
C341 C340 1.386 . S
C341 C345 1.393 . S
C342 H334 0.950 . S
C342 C340 1.391 . S
C342 C343 1.400 . S
C343 C342 1.400 . S
C343 C344 1.398 . S
C343 C349 1.491 . S
C344 H335 0.950 . S
C344 C343 1.398 . S
C344 C345 1.391 . S
C345 H333 0.950 . S
C345 C341 1.393 . S
C345 C344 1.391 . S
C346 H336 0.950 . S
C346 C347 1.386 . S
C346 C348 1.391 . S
C347 C346 1.386 . S
C347 C351 1.393 . S
C348 H337 0.950 . S
C348 C346 1.391 . S
C348 C349 1.400 . S
C349 C343 1.491 . S
C349 C348 1.400 . S
C349 C350 1.398 . S
C350 H338 0.950 . S
C350 C349 1.398 . S
C350 C351 1.391 . S
C351 H339 0.950 . S
C351 C347 1.393 . S
C351 C350 1.391 . S
H352 C360 0.950 . S
H353 C365 0.950 . S
H354 C362 0.950 . S
H355 C364 0.950 . S
H356 C366 0.950 . S
H357 C368 0.950 . S
H358 C370 0.950 . S
H359 C371 0.950 . S
C360 H352 0.950 . S
C360 C361 1.386 . S
C360 C362 1.391 . S
C361 C360 1.386 . S
C361 C365 1.393 . S
C362 H354 0.950 . S
C362 C360 1.391 . S
C362 C363 1.400 . S
C363 C362 1.400 . S
C363 C364 1.398 . S
C363 C369 1.491 . S
C364 H355 0.950 . S
C364 C363 1.398 . S
C364 C365 1.391 . S
C365 H353 0.950 . S
C365 C361 1.393 . S
C365 C364 1.391 . S
C366 H356 0.950 . S
C366 C367 1.386 . S
C366 C368 1.391 . S
C367 C366 1.386 . S
C367 C371 1.393 . S
C368 H357 0.950 . S
C368 C366 1.391 . S
C368 C369 1.400 . S
C369 C363 1.491 . S
C369 C368 1.400 . S
C369 C370 1.398 . S
C370 H358 0.950 . S
C370 C369 1.398 . S
C370 C371 1.391 . S
C371 H359 0.950 . S
C371 C367 1.393 . S
C371 C370 1.391 . S
H372 C380 0.950 . S
H373 C385 0.950 . S
H374 C382 0.950 . S
H375 C384 0.950 . S
H376 C386 0.950 . S
H377 C388 0.950 . S
H378 C390 0.950 . S
H379 C391 0.950 1_565 S
C380 H372 0.950 . S
C380 C381 1.386 . S
C380 C382 1.391 . S
C381 C380 1.386 . S
C381 C385 1.393 . S
C382 H374 0.950 . S
C382 C380 1.391 . S
C382 C383 1.400 . S
C383 C382 1.400 . S
C383 C384 1.398 . S
C383 C389 1.491 . S
C384 H375 0.950 . S
C384 C383 1.398 . S
C384 C385 1.391 . S
C385 H373 0.950 . S
C385 C381 1.393 . S
C385 C384 1.391 . S
C386 H376 0.950 . S
C386 C387 1.386 . S
C386 C388 1.391 1_554 S
C387 C386 1.386 . S
C387 C391 1.393 . S
C388 H377 0.950 . S
C388 C386 1.391 1_556 S
C388 C389 1.400 . S
C389 C383 1.491 . S
C389 C388 1.400 . S
C389 C390 1.398 . S
C390 H378 0.950 . S
C390 C389 1.398 . S
C390 C391 1.391 1_556 S
C391 H379 0.950 1_545 S
C391 C387 1.393 . S
C391 C390 1.391 1_554 S
H392 C400 0.950 . S
H393 C405 0.950 . S
H394 C402 0.950 . S
H395 C404 0.950 . S
H396 C406 0.950 . S
H397 C408 0.950 1_545 S
H398 C410 0.950 . S
H399 C411 0.950 . S
C400 H392 0.950 . S
C400 C401 1.386 . S
C400 C402 1.391 . S
C401 C400 1.386 . S
C401 C405 1.393 . S
C402 H394 0.950 . S
C402 C400 1.391 . S
C402 C403 1.400 . S
C403 C402 1.400 . S
C403 C404 1.398 . S
C403 C409 1.491 . S
C404 H395 0.950 . S
C404 C403 1.398 . S
C404 C405 1.391 . S
C405 H393 0.950 . S
C405 C401 1.393 . S
C405 C404 1.391 . S
C406 H396 0.950 . S
C406 C407 1.386 . S
C406 C408 1.391 1_545 S
C407 C406 1.386 . S
C407 C411 1.393 1_545 S
C408 H397 0.950 1_565 S
C408 C406 1.391 1_565 S
C408 C409 1.400 . S
C409 C403 1.491 . S
C409 C408 1.400 . S
C409 C410 1.398 . S
C410 H398 0.950 . S
C410 C409 1.398 . S
C410 C411 1.391 . S
C411 H399 0.950 . S
C411 C407 1.393 1_565 S
C411 C410 1.391 . S
H412 C420 0.950 . S
H413 C425 0.950 1_655 S
H414 C422 0.950 . S
H415 C424 0.950 . S
H416 C426 0.950 . S
H417 C428 0.950 . S
H418 C430 0.950 1_455 S
H419 C431 0.950 . S
C420 H412 0.950 . S
C420 C421 1.386 . S
C420 C422 1.391 . S
C421 C420 1.386 . S
C421 C425 1.393 . S
C422 H414 0.950 . S
C422 C420 1.391 . S
C422 C423 1.400 1_455 S
C423 C422 1.400 1_655 S
C423 C424 1.398 . S
C423 C429 1.491 . S
C424 H415 0.950 . S
C424 C423 1.398 . S
C424 C425 1.391 1_655 S
C425 H413 0.950 1_455 S
C425 C421 1.393 . S
C425 C424 1.391 1_455 S
C426 H416 0.950 . S
C426 C427 1.386 . S
C426 C428 1.391 . S
C427 C426 1.386 . S
C427 C431 1.393 . S
C428 H417 0.950 . S
C428 C426 1.391 . S
C428 C429 1.400 . S
C429 C423 1.491 . S
C429 C428 1.400 . S
C429 C430 1.398 . S
C430 H418 0.950 1_655 S
C430 C429 1.398 . S
C430 C431 1.391 . S
C431 H419 0.950 . S
C431 C427 1.393 . S
C431 C430 1.391 . S
C261 C63 1.424 . S
C267 C74 1.424 . S
C281 C158 1.446 . S
C287 C147 1.446 1_455 S
C301 C242 1.420 1_455 S
C307 C231 1.420 . S
C321 C226 1.795 . S
C327 C67 1.930 . S
C341 C154 1.100 . S
C347 C56 1.200 . S
C361 C235 1.923 . S
C367 C142 1.763 . S
C381 C224 1.235 . S
C387 C70 1.061 . S
C401 C58 1.761 . S
C407 C151 1.923 . S
C421 C238 1.055 . S
C427 C140 1.235 . S
