# Generated by pormake.
# Topology pbz, (3)-cn, num edge types: 1
# Building blocks:
#     Node 0, Type 0, BuildingBlock: WUSLED_clean_sbu_0, # of connection points: 3
#     Node 1, Type 0, BuildingBlock: WUSLED_clean_sbu_0, # of connection points: 3
#     Node 2, Type 0, BuildingBlock: WUSLED_clean_sbu_0, # of connection points: 3
#     Node 3, Type 0, BuildingBlock: WUSLED_clean_sbu_0, # of connection points: 3
#     Node 4, Type 0, BuildingBlock: WUSLED_clean_sbu_0, # of connection points: 3
#     Node 5, Type 0, BuildingBlock: WUSLED_clean_sbu_0, # of connection points: 3
#     Node 6, Type 0, BuildingBlock: WUSLED_clean_sbu_0, # of connection points: 3
#     Node 7, Type 0, BuildingBlock: WUSLED_clean_sbu_0, # of connection points: 3
#     Node 8, Type 0, BuildingBlock: WUSLED_clean_sbu_0, # of connection points: 3
#     Node 9, Type 0, BuildingBlock: WUSLED_clean_sbu_0, # of connection points: 3
#     Node 10, Type 0, BuildingBlock: WUSLED_clean_sbu_0, # of connection points: 3
#     Node 11, Type 0, BuildingBlock: WUSLED_clean_sbu_0, # of connection points: 3
#     Node 12, Type 0, BuildingBlock: WUSLED_clean_sbu_0, # of connection points: 3
#     Node 13, Type 0, BuildingBlock: WUSLED_clean_sbu_0, # of connection points: 3
#     Node 14, Type 0, BuildingBlock: WUSLED_clean_sbu_0, # of connection points: 3
#     Node 15, Type 0, BuildingBlock: WUSLED_clean_sbu_0, # of connection points: 3
#     Node 16, Type 0, BuildingBlock: WUSLED_clean_sbu_0, # of connection points: 3
#     Node 17, Type 0, BuildingBlock: WUSLED_clean_sbu_0, # of connection points: 3
#     Node 18, Type 0, BuildingBlock: WUSLED_clean_sbu_0, # of connection points: 3
#     Node 19, Type 0, BuildingBlock: WUSLED_clean_sbu_0, # of connection points: 3
#     Node 20, Type 0, BuildingBlock: WUSLED_clean_sbu_0, # of connection points: 3
#     Node 21, Type 0, BuildingBlock: WUSLED_clean_sbu_0, # of connection points: 3
#     Node 22, Type 0, BuildingBlock: WUSLED_clean_sbu_0, # of connection points: 3
#     Node 23, Type 0, BuildingBlock: WUSLED_clean_sbu_0, # of connection points: 3
#     Edge 24, Type (0, 0), BuildingBlock: EZIPEK_clean_linker_0, # of connection points: 2
#     Edge 25, Type (0, 0), BuildingBlock: EZIPEK_clean_linker_0, # of connection points: 2
#     Edge 26, Type (0, 0), BuildingBlock: EZIPEK_clean_linker_0, # of connection points: 2
#     Edge 27, Type (0, 0), BuildingBlock: EZIPEK_clean_linker_0, # of connection points: 2
#     Edge 28, Type (0, 0), BuildingBlock: EZIPEK_clean_linker_0, # of connection points: 2
#     Edge 29, Type (0, 0), BuildingBlock: EZIPEK_clean_linker_0, # of connection points: 2
#     Edge 30, Type (0, 0), BuildingBlock: EZIPEK_clean_linker_0, # of connection points: 2
#     Edge 31, Type (0, 0), BuildingBlock: EZIPEK_clean_linker_0, # of connection points: 2
#     Edge 32, Type (0, 0), BuildingBlock: EZIPEK_clean_linker_0, # of connection points: 2
#     Edge 33, Type (0, 0), BuildingBlock: EZIPEK_clean_linker_0, # of connection points: 2
#     Edge 34, Type (0, 0), BuildingBlock: EZIPEK_clean_linker_0, # of connection points: 2
#     Edge 35, Type (0, 0), BuildingBlock: EZIPEK_clean_linker_0, # of connection points: 2
#     Edge 36, Type (0, 0), BuildingBlock: EZIPEK_clean_linker_0, # of connection points: 2
#     Edge 37, Type (0, 0), BuildingBlock: EZIPEK_clean_linker_0, # of connection points: 2
#     Edge 38, Type (0, 0), BuildingBlock: EZIPEK_clean_linker_0, # of connection points: 2
#     Edge 39, Type (0, 0), BuildingBlock: EZIPEK_clean_linker_0, # of connection points: 2
#     Edge 40, Type (0, 0), BuildingBlock: EZIPEK_clean_linker_0, # of connection points: 2
#     Edge 41, Type (0, 0), BuildingBlock: EZIPEK_clean_linker_0, # of connection points: 2
#     Edge 42, Type (0, 0), BuildingBlock: EZIPEK_clean_linker_0, # of connection points: 2
#     Edge 43, Type (0, 0), BuildingBlock: EZIPEK_clean_linker_0, # of connection points: 2
#     Edge 44, Type (0, 0), BuildingBlock: EZIPEK_clean_linker_0, # of connection points: 2
#     Edge 45, Type (0, 0), BuildingBlock: EZIPEK_clean_linker_0, # of connection points: 2
#     Edge 46, Type (0, 0), BuildingBlock: EZIPEK_clean_linker_0, # of connection points: 2
#     Edge 47, Type (0, 0), BuildingBlock: EZIPEK_clean_linker_0, # of connection points: 2
#     Edge 48, Type (0, 0), BuildingBlock: EZIPEK_clean_linker_0, # of connection points: 2
#     Edge 49, Type (0, 0), BuildingBlock: EZIPEK_clean_linker_0, # of connection points: 2
#     Edge 50, Type (0, 0), BuildingBlock: EZIPEK_clean_linker_0, # of connection points: 2
#     Edge 51, Type (0, 0), BuildingBlock: EZIPEK_clean_linker_0, # of connection points: 2
#     Edge 52, Type (0, 0), BuildingBlock: EZIPEK_clean_linker_0, # of connection points: 2
#     Edge 53, Type (0, 0), BuildingBlock: EZIPEK_clean_linker_0, # of connection points: 2
#     Edge 54, Type (0, 0), BuildingBlock: EZIPEK_clean_linker_0, # of connection points: 2
#     Edge 55, Type (0, 0), BuildingBlock: EZIPEK_clean_linker_0, # of connection points: 2
#     Edge 56, Type (0, 0), BuildingBlock: EZIPEK_clean_linker_0, # of connection points: 2
#     Edge 57, Type (0, 0), BuildingBlock: EZIPEK_clean_linker_0, # of connection points: 2
#     Edge 58, Type (0, 0), BuildingBlock: EZIPEK_clean_linker_0, # of connection points: 2
#     Edge 59, Type (0, 0), BuildingBlock: EZIPEK_clean_linker_0, # of connection points: 2
# Relax obj value: 0.000
# Max RMSD: 0.013
# Mean RMSD: 0.008
data_MOF--net-pbz--node1-WUSLED_clean_sbu_0--edge1-EZIPEK_clean_linker_0
_symmetry_space_group_name_H-M    P1
_symmetry_Int_Tables_number       1
_symmetry_cell_setting            triclinic
loop_
_symmetry_equiv_pos_as_xyz
'x, y, z'
_cell_length_a     80.55439
_cell_length_b     81.120369
_cell_length_c     81.110769
_cell_angle_alpha  89.368674
_cell_angle_beta   89.995612
_cell_angle_gamma 89.994477
loop_
_atom_site_label
_atom_site_type_symbol
_atom_site_fract_x
_atom_site_fract_y
_atom_site_fract_z
_atom_type_partial_charge
C0 C 1.011 0.22954 0.72594 0.0
C1 C 0.0269 0.23261 0.73242 0.0
C2 C 1.01517 0.25201 0.75212 0.0
C3 C 0.02896 0.24376 0.74544 0.0
C4 C 0.99933 0.24875 0.74576 0.0
C5 C 0.99728 0.23763 0.73283 0.0
U6 U 1.02025 0.19299 0.69594 0.0
O7 O 1.00205 0.17647 0.6843 0.0
O8 O 1.01724 0.1929 0.6689 0.0
C9 C 1.00489 0.1823 0.66937 0.0
C10 C 1.00822 0.21876 0.71153 0.0
C11 C 0.99018 0.18583 0.65868 0.0
C12 C 0.96168 0.17955 0.65042 0.0
C13 C 0.97492 0.1778 0.66156 0.0
C14 C 0.97851 0.19748 0.63325 0.0
C15 C 0.96342 0.18925 0.63608 0.0
C16 C 0.99176 0.19575 0.64438 0.0
C17 C 0.05843 0.16392 0.7028 0.0
C18 C 0.06339 0.13473 0.69749 0.0
C19 C 0.08666 0.15303 0.7018 0.0
C20 C 0.07569 0.16628 0.70375 0.0
C21 C 0.08063 0.1371 0.6989 0.0
C22 C 0.05237 0.14801 0.69943 0.0
C23 C 0.04725 0.17795 0.70668 0.0
O24 O 1.0189 0.21988 0.69931 0.0
O25 O 1.00347 0.20354 0.71462 0.0
O26 O 0.03221 0.17438 0.71194 0.0
O27 O 0.04758 0.19069 0.69652 0.0
H28 H 0.03769 0.22657 0.7273 0.0
H29 H 0.04129 0.2461 0.75018 0.0
H30 H 0.98854 0.25494 0.75072 0.0
H31 H 0.98492 0.23552 0.72802 0.0
H32 H 0.95017 0.17306 0.65282 0.0
H33 H 0.9733 0.16983 0.67223 0.0
H34 H 0.98015 0.20498 0.62224 0.0
H35 H 1.00338 0.20187 0.64156 0.0
H36 H 0.05847 0.12253 0.69524 0.0
H37 H 0.09989 0.15515 0.70295 0.0
H38 H 0.08069 0.17836 0.70642 0.0
H39 H 0.03914 0.14578 0.69864 0.0
C40 C 0.81785 0.51565 0.2264 0.0
C41 C 0.82368 0.52251 0.24117 0.0
C42 C 0.79631 0.51917 0.25376 0.0
C43 C 0.81298 0.52426 0.25474 0.0
C44 C 0.79046 0.51265 0.23889 0.0
C45 C 0.80112 0.51092 0.22537 0.0
U46 U 0.85575 0.52393 0.19737 0.0
O47 O 0.87228 0.50572 0.18583 0.0
O48 O 0.85679 0.52177 0.1703 0.0
C49 C 0.86744 0.5095 0.17078 0.0
C50 C 0.82894 0.51241 0.21218 0.0
C51 C 0.86428 0.4956 0.15949 0.0
C52 C 0.85061 0.46984 0.15215 0.0
C53 C 0.85287 0.48296 0.16316 0.0
C54 C 0.87103 0.48191 0.13374 0.0
C55 C 0.85976 0.46919 0.13737 0.0
C56 C 0.87326 0.49496 0.14468 0.0
C57 C 0.8854 0.56125 0.20524 0.0
C58 C 0.91525 0.56649 0.20369 0.0
C59 C 0.89596 0.58921 0.20097 0.0
C60 C 0.88263 0.57824 0.20285 0.0
C61 C 0.91239 0.58347 0.20153 0.0
C62 C 0.9019 0.55547 0.20553 0.0
C63 C 0.87099 0.55024 0.20879 0.0
O64 O 0.82846 0.52308 0.19989 0.0
O65 O 0.84405 0.50724 0.21554 0.0
O66 O 0.87414 0.53514 0.21396 0.0
O67 O 0.85845 0.551 0.19844 0.0
H68 H 0.83653 0.52627 0.24229 0.0
H69 H 0.81775 0.52934 0.26609 0.0
H70 H 0.77767 0.50865 0.23784 0.0
H71 H 0.79634 0.50556 0.21415 0.0
H72 H 0.84181 0.46018 0.15518 0.0
H73 H 0.8458 0.48321 0.17451 0.0
H74 H 0.87818 0.4817 0.12243 0.0
H75 H 0.88212 0.50456 0.14159 0.0
H76 H 0.92783 0.56179 0.20414 0.0
H77 H 0.89347 0.60225 0.19933 0.0
H78 H 0.8701 0.5831 0.20276 0.0
H79 H 0.90452 0.5425 0.20746 0.0
C80 C 0.48732 0.39734 0.68826 0.0
C81 C 0.47132 0.39483 0.68168 0.0
C82 C 0.4617 0.42091 0.69297 0.0
C83 C 0.45862 0.40647 0.68408 0.0
C84 C 0.47755 0.42334 0.69971 0.0
C85 C 0.4902 0.41175 0.69735 0.0
U86 U 0.5165 0.35919 0.69494 0.0
O87 O 0.52833 0.34342 0.67624 0.0
O88 O 0.54373 0.35811 0.69281 0.0
C89 C 0.54342 0.34836 0.67997 0.0
C90 C 0.50143 0.38613 0.68417 0.0
C91 C 0.5551 0.3524 0.6662 0.0
C92 C 0.56374 0.35014 0.63735 0.0
C93 C 0.55171 0.34796 0.64977 0.0
C94 C 0.58272 0.36133 0.65743 0.0
C95 C 0.57942 0.35668 0.64114 0.0
C96 C 0.57076 0.35918 0.66979 0.0
C97 C 0.50821 0.32988 0.73282 0.0
C98 C 0.51859 0.30218 0.73882 0.0
C99 C 0.504 0.31729 0.75994 0.0
C100 C 0.50207 0.33062 0.74899 0.0
C101 C 0.51214 0.30289 0.75494 0.0
C102 C 0.51662 0.31558 0.72782 0.0
C103 C 0.50496 0.34398 0.72148 0.0
O104 O 0.51429 0.38624 0.69416 0.0
O105 O 0.49788 0.37128 0.67885 0.0
O106 O 0.50011 0.34057 0.70641 0.0
O107 O 0.51549 0.35634 0.72201 0.0
H108 H 0.46868 0.38406 0.67436 0.0
H109 H 0.44649 0.40436 0.67874 0.0
H110 H 0.48021 0.4344 0.70659 0.0
H111 H 0.50239 0.41431 0.70235 0.0
H112 H 0.56094 0.34645 0.62487 0.0
H113 H 0.53992 0.34245 0.64655 0.0
H114 H 0.59474 0.36637 0.66064 0.0
H115 H 0.57396 0.36246 0.68231 0.0
H116 H 0.52493 0.29119 0.73472 0.0
H117 H 0.49894 0.31812 0.77227 0.0
H118 H 0.49552 0.3415 0.75312 0.0
H119 H 0.52148 0.31471 0.71541 0.0
C120 C 0.67954 0.05506 0.1578 0.0
C121 C 0.69561 0.06092 0.1543 0.0
C122 C 0.68422 0.08204 0.13581 0.0
C123 C 0.69793 0.07431 0.14337 0.0
C124 C 0.66819 0.07634 0.13954 0.0
C125 C 0.66589 0.06299 0.15042 0.0
U126 U 0.68826 0.02473 0.19459 0.0
O127 O 0.67003 1.01255 0.21092 0.0
O128 O 0.68595 0.99761 0.19507 0.0
C129 C 0.67332 0.99773 0.20535 0.0
C130 C 0.67651 0.0403 0.16836 0.0
C131 C 0.65892 0.98681 0.20151 0.0
C132 C 0.62972 0.97929 0.2051 0.0
C133 C 0.64281 0.99051 0.20715 0.0
C134 C 0.6484 0.96042 0.19159 0.0
C135 C 0.63243 0.96408 0.19745 0.0
C136 C 0.6615 0.97162 0.19365 0.0
C137 C 0.72555 0.03353 0.22429 0.0
C138 C 0.74024 1.01536 0.24355 0.0
C139 C 0.74473 0.04484 0.24448 0.0
C140 C 0.73347 0.04708 0.23149 0.0
C141 C 0.74829 0.02899 0.25058 0.0
C142 C 0.72894 1.01761 0.23048 0.0
C143 C 0.71449 0.03654 0.20994 0.0
O144 O 0.68745 0.0283 0.16764 0.0
O145 O 0.67116 0.04297 0.1834 0.0
O146 O 0.69922 0.04119 0.21317 0.0
O147 O 0.71541 0.02613 0.19766 0.0
H148 H 0.70636 0.05503 0.15981 0.0
H149 H 0.7104 0.07852 0.14066 0.0
H150 H 0.65746 0.08211 0.13387 0.0
H151 H 0.65339 0.05869 0.15287 0.0
H152 H 0.61751 0.98236 0.20975 0.0
H153 H 0.64034 1.00193 0.2135 0.0
H154 H 0.6508 0.94874 0.1857 0.0
H155 H 0.67377 0.9682 0.18941 0.0
H156 H 0.74282 1.00302 0.24808 0.0
H157 H 0.75077 0.05551 0.24971 0.0
H158 H 0.7311 0.05946 0.22691 0.0
H159 H 0.72302 1.00695 0.22512 0.0
C160 C 1.00989 0.32268 0.83086 0.0
C161 C 0.02577 0.32027 0.82405 0.0
C162 C 1.01452 0.30027 0.80469 0.0
C163 C 0.02806 0.30916 0.81104 0.0
C164 C 0.99868 0.30287 0.81139 0.0
C165 C 0.9964 0.31396 0.82431 0.0
U166 U 1.0194 0.35896 0.86092 0.0
O167 O 1.00156 0.37546 0.87309 0.0
O168 O 1.01694 0.35878 0.88803 0.0
C169 C 1.00464 0.36945 0.88791 0.0
C170 C 1.007 0.33338 0.8453 0.0
C171 C 0.99012 0.36583 0.89885 0.0
C172 C 0.96114 0.37044 0.90657 0.0
C173 C 0.97425 0.37226 0.89528 0.0
C174 C 0.97932 0.35559 0.92523 0.0
C175 C 0.9636 0.36224 0.92172 0.0
C176 C 0.99244 0.35741 0.91396 0.0
C177 C 0.05834 0.38689 0.85368 0.0
C178 C 0.06945 0.40774 0.87202 0.0
C179 C 0.08408 0.40123 0.84717 0.0
C180 C 0.07159 0.39002 0.84296 0.0
C181 C 0.08444 0.4089 0.86279 0.0
C182 C 0.05692 0.39641 0.8679 0.0
C183 C 0.04652 0.37351 0.84971 0.0
O184 O 1.01764 0.33212 0.85753 0.0
O185 O 1.00241 0.34867 0.84227 0.0
O186 O 0.03146 0.37786 0.84517 0.0
O187 O 0.04665 0.36063 0.85968 0.0
H188 H 0.03639 0.32681 0.82892 0.0
H189 H 0.04038 0.30734 0.80605 0.0
H190 H 0.98808 0.29618 0.80669 0.0
H191 H 0.98407 0.31554 0.82939 0.0
H192 H 0.94913 0.3757 0.90362 0.0
H193 H 0.97201 0.37905 0.88393 0.0
H194 H 0.98152 0.34926 0.93685 0.0
H195 H 1.00452 0.35256 0.91728 0.0
H196 H 0.06696 0.41552 0.88241 0.0
H197 H 0.09352 0.40358 0.838 0.0
H198 H 0.07244 0.3836 0.83135 0.0
H199 H 0.04619 0.39505 0.87584 0.0
C200 C 0.68138 0.49606 0.40317 0.0
C201 C 0.68808 0.48116 0.39746 0.0
C202 C 0.68519 0.46873 0.4249 0.0
C203 C 0.68997 0.46759 0.40825 0.0
C204 C 0.67873 0.48369 0.43059 0.0
C205 C 0.67685 0.4972 0.41984 0.0
U206 U 0.68944 0.52497 0.36508 0.0
O207 O 0.67093 0.53683 0.34886 0.0
O208 O 0.68739 0.55212 0.36384 0.0
C209 C 0.67467 0.5518 0.3537 0.0
C210 C 0.67815 0.51035 0.39205 0.0
C211 C 0.66065 0.56308 0.35735 0.0
C212 C 0.63168 0.56826 0.36453 0.0
C213 C 0.64498 0.55725 0.36244 0.0
C214 C 0.64953 0.59107 0.35679 0.0
C215 C 0.63382 0.58525 0.36159 0.0
C216 C 0.66278 0.58009 0.35469 0.0
C217 C 0.72612 0.51603 0.33472 0.0
C218 C 0.74795 0.53142 0.32032 0.0
C219 C 0.7383 0.50553 0.30933 0.0
C220 C 0.72703 0.50397 0.32243 0.0
C221 C 0.749 0.51916 0.30825 0.0
C222 C 0.73664 0.52988 0.33344 0.0
C223 C 0.71542 0.51298 0.34946 0.0
O224 O 0.68908 0.52237 0.39222 0.0
O225 O 0.67265 0.50713 0.37716 0.0
O226 O 0.70012 0.50808 0.34672 0.0
O227 O 0.71654 0.52336 0.36175 0.0
H228 H 0.69166 0.47994 0.38466 0.0
H229 H 0.69501 0.45617 0.40361 0.0
H230 H 0.67498 0.48486 0.44336 0.0
H231 H 0.67161 0.50853 0.42452 0.0
H232 H 0.61967 0.56352 0.36827 0.0
H233 H 0.64295 0.54421 0.36457 0.0
H234 H 0.65147 0.6041 0.35446 0.0
H235 H 0.67469 0.58489 0.35069 0.0
H236 H 0.75613 0.54201 0.31976 0.0
H237 H 0.73893 0.4959 0.3002 0.0
H238 H 0.71929 0.49307 0.32317 0.0
H239 H 0.73641 0.53935 0.34274 0.0
C240 C 0.48994 0.15314 0.86891 0.0
C241 C 0.47358 0.15595 0.87443 0.0
C242 C 0.4647 0.12921 0.86411 0.0
C243 C 0.46107 0.14412 0.87199 0.0
C244 C 0.48091 0.12649 0.8584 0.0
C245 C 0.49337 0.13826 0.8608 0.0
U246 U 0.51833 0.1921 0.86325 0.0
O247 O 0.52981 0.20743 0.8825 0.0
O248 O 0.54553 0.19364 0.86545 0.0
C249 C 0.545 0.20294 0.87862 0.0
C250 C 0.50385 0.16453 0.87314 0.0
C251 C 0.55674 0.1987 0.89229 0.0
C252 C 0.56546 0.20069 0.92113 0.0
C253 C 0.55339 0.20296 0.90878 0.0
C254 C 0.58442 0.18978 0.90088 0.0
C255 C 0.58115 0.19426 0.91722 0.0
C256 C 0.57241 0.19201 0.88857 0.0
C257 C 0.50953 0.22313 0.8268 0.0
C258 C 0.52576 0.23819 0.80608 0.0
C259 C 0.49816 0.24757 0.81306 0.0
C260 C 0.49662 0.23459 0.8245 0.0
C261 C 0.51264 0.24938 0.80358 0.0
C262 C 0.52423 0.22518 0.81757 0.0
C263 C 0.50655 0.20831 0.83742 0.0
O264 O 0.51657 0.165 0.86297 0.0
O265 O 0.50006 0.17911 0.879 0.0
O266 O 0.50139 0.21082 0.85257 0.0
O267 O 0.51717 0.19606 0.83638 0.0
H268 H 0.4705 0.16711 0.88096 0.0
H269 H 0.44866 0.14646 0.87652 0.0
H270 H 0.48399 0.11507 0.85232 0.0
H271 H 0.50584 0.13551 0.85666 0.0
H272 H 0.56269 0.20426 0.93366 0.0
H273 H 0.54159 0.2084 0.91209 0.0
H274 H 0.59645 0.18483 0.89757 0.0
H275 H 0.57558 0.18888 0.87601 0.0
H276 H 0.53703 0.23933 0.79887 0.0
H277 H 0.48787 0.25602 0.81131 0.0
H278 H 0.48508 0.23322 0.83125 0.0
H279 H 0.53439 0.21653 0.81891 0.0
C280 C 0.81855 0.03417 0.33065 0.0
C281 C 0.81728 0.01864 0.32319 0.0
C282 C 0.79638 0.02936 0.30403 0.0
C283 C 0.80626 1.01626 0.30996 0.0
C284 C 0.79781 0.04485 0.31142 0.0
C285 C 0.80879 0.04722 0.32457 0.0
U286 U 0.85604 0.026 0.36042 0.0
O287 O 0.8721 0.04455 0.3721 0.0
O288 O 0.85653 0.02843 0.38747 0.0
C289 C 0.86665 0.04115 0.38705 0.0
C290 C 0.82935 0.03718 0.3451 0.0
C291 C 0.86278 0.0554 0.39791 0.0
C292 C 0.84897 0.06676 0.42214 0.0
C293 C 0.85087 0.05411 0.4106 0.0
C294 C 0.87055 0.08246 0.40845 0.0
C295 C 0.85899 0.08092 0.42132 0.0
C296 C 0.87247 0.06984 0.39692 0.0
C297 C 0.88699 0.98966 0.35257 0.0
C298 C 0.90213 0.96973 0.36968 0.0
C299 C 0.91189 0.97611 0.34213 0.0
C300 C 0.89871 0.98722 0.33998 0.0
C301 C 0.91362 0.96712 0.35692 0.0
C302 C 0.88893 0.98089 0.36754 0.0
C303 C 0.87221 1.00019 0.34912 0.0
O304 O 0.82887 0.02624 0.35718 0.0
O305 O 0.84441 0.04263 0.34205 0.0
O306 O 0.87505 1.01537 0.34402 0.0
O307 O 0.85958 0.9991 0.35936 0.0
H308 H 0.82466 1.00838 0.32768 0.0
H309 H 0.80534 1.00421 0.30442 0.0
H310 H 0.79034 0.05511 0.30705 0.0
H311 H 0.80953 0.05928 0.33013 0.0
H312 H 0.84002 0.06528 0.43201 0.0
H313 H 0.84334 0.04312 0.41194 0.0
H314 H 0.87847 0.09324 0.40763 0.0
H315 H 0.88194 0.07116 0.38752 0.0
H316 H 0.90322 0.96292 0.38119 0.0
H317 H 0.92059 0.9743 0.33213 0.0
H318 H 0.89746 0.99365 0.32827 0.0
H319 H 0.8801 0.98239 0.37748 0.0
C320 C 0.18028 0.65331 0.99666 0.0
C321 C 0.17605 0.65835 0.9805 0.0
C322 C 0.18328 0.63125 0.96985 0.0
C323 C 0.17758 0.64744 0.96725 0.0
C324 C 0.18776 0.62626 0.98587 0.0
C325 C 0.18622 0.63714 0.99912 0.0
U326 U 0.18842 0.68995 0.02676 0.0
O327 O 0.17023 0.70603 0.03898 0.0
O328 O 0.18626 0.68991 0.05391 0.0
C329 C 0.17375 0.70033 0.05382 0.0
C330 C 0.17687 0.66395 1.0112 0.0
C331 C 0.15964 0.6967 0.06523 0.0
C332 C 0.13019 0.69847 0.07237 0.0
C333 C 0.14302 0.69973 0.06068 0.0
C334 C 0.15019 0.6907 0.09329 0.0
C335 C 0.13371 0.69421 0.08885 0.0
C336 C 0.163 0.69197 0.08164 0.0
C337 C 0.22652 0.71897 1.01887 0.0
C338 C 0.24064 0.7373 0.03791 0.0
C339 C 0.24889 0.73689 1.00947 0.0
C340 C 0.23647 0.72529 1.00618 0.0
C341 C 0.25258 0.74188 0.02577 0.0
C342 C 0.2282 0.72559 0.03465 0.0
C343 C 0.21503 0.70518 1.01527 0.0
O344 O 0.18738 0.66299 0.02358 0.0
O345 O 0.1716 0.67908 1.00839 0.0
O346 O 0.19985 0.70902 1.0107 0.0
O347 O 0.21559 0.69242 0.02539 0.0
H348 H 0.17121 0.6706 0.97811 0.0
H349 H 0.17403 0.65154 0.955 0.0
H350 H 0.19215 0.61383 0.98818 0.0
H351 H 0.18932 0.63274 1.01139 0.0
H352 H 0.11758 0.7013 0.06869 0.0
H353 H 0.13994 0.70357 0.04822 0.0
H354 H 0.15321 0.68746 0.10594 0.0
H355 H 0.17566 0.68979 0.08562 0.0
H356 H 0.24036 0.74266 0.04996 0.0
H357 H 0.25566 0.74174 0.99899 0.0
H358 H 0.23484 0.72106 0.99366 0.0
H359 H 0.21996 0.72166 0.0445 0.0
C360 C 0.15072 0.86709 0.4983 0.0
C361 C 0.15679 0.86665 0.48201 0.0
C362 C 0.12874 0.86267 0.47136 0.0
C363 C 0.14589 0.86446 0.46868 0.0
C364 C 0.12271 0.86281 0.48759 0.0
C365 C 0.13357 0.86504 0.5009 0.0
U366 U 0.18834 0.8604 0.52811 0.0
O367 O 0.20488 0.87915 0.53891 0.0
O368 O 0.18928 0.86376 0.55501 0.0
C369 C 0.19972 0.87621 0.55403 0.0
C370 C 0.1616 0.87109 0.51256 0.0
C371 C 0.1963 0.89078 0.56448 0.0
C372 C 0.17801 0.90725 0.58181 0.0
C373 C 0.18039 0.89422 0.57076 0.0
C374 C 0.20727 0.91382 0.58025 0.0
C375 C 0.19147 0.91706 0.58677 0.0
C376 C 0.20965 0.90082 0.56925 0.0
C377 C 0.21819 0.82321 0.52118 0.0
C378 C 0.24166 0.81515 0.53844 0.0
C379 C 0.23581 0.80007 0.51351 0.0
C380 C 0.2222 0.8104 0.51037 0.0
C381 C 0.24567 0.80234 0.52756 0.0
C382 C 0.22802 0.82553 0.53527 0.0
C383 C 0.20367 0.83381 0.51742 0.0
O384 O 0.16106 0.86098 0.52534 0.0
O385 O 0.17668 0.87643 0.50933 0.0
O386 O 0.20686 0.84877 0.51191 0.0
O387 O 0.19139 0.83339 0.52809 0.0
H388 H 0.16989 0.86829 0.47952 0.0
H389 H 0.15081 0.86437 0.45626 0.0
H390 H 0.10954 0.86147 0.48994 0.0
H391 H 0.1285 0.86549 0.51326 0.0
H392 H 0.16571 0.90953 0.58668 0.0
H393 H 0.16985 0.88669 0.56736 0.0
H394 H 0.21782 0.92121 0.58389 0.0
H395 H 0.22205 0.89839 0.5647 0.0
H396 H 0.24913 0.81713 0.54934 0.0
H397 H 0.23867 0.79029 0.50497 0.0
H398 H 0.21477 0.80838 0.49944 0.0
H399 H 0.22516 0.83533 0.54378 0.0
C400 C 0.32572 0.73274 0.52209 0.0
C401 C 0.31175 0.72803 0.53127 0.0
C402 C 0.30067 0.75644 0.5302 0.0
C403 C 0.29922 0.73954 0.53484 0.0
C404 C 0.31408 0.76033 0.5195 0.0
C405 C 0.32652 0.74886 0.5159 0.0
U406 U 0.35279 0.69319 0.52832 0.0
O407 O 0.36356 0.67719 0.5093 0.0
O408 O 0.37999 0.69093 0.52575 0.0
C409 C 0.37893 0.68137 0.51281 0.0
C410 C 0.33927 0.72109 0.51802 0.0
C411 C 0.3903 0.68515 0.49879 0.0
C412 C 0.39577 0.68925 0.46939 0.0
C413 C 0.38452 0.68728 0.48251 0.0
C414 C 0.41874 0.68731 0.48853 0.0
C415 C 0.41299 0.68912 0.47227 0.0
C416 C 0.40753 0.68531 0.50162 0.0
C417 C 0.34311 0.66247 0.5646 0.0
C418 C 0.36086 0.64378 0.58051 0.0
C419 C 0.33101 0.64062 0.58167 0.0
C420 C 0.32917 0.65396 0.57069 0.0
C421 C 0.34684 0.63551 0.58683 0.0
C422 C 0.35902 0.65716 0.56948 0.0
C423 C 0.34048 0.67744 0.55418 0.0
O424 O 0.35174 0.72037 0.52844 0.0
O425 O 0.33493 0.70654 0.51248 0.0
O426 O 0.33519 0.67514 0.53905 0.0
O427 O 0.35164 0.68922 0.55519 0.0
H428 H 0.31038 0.71537 0.53547 0.0
H429 H 0.28833 0.73463 0.54079 0.0
H430 H 0.31504 0.7722 0.51343 0.0
H431 H 0.33675 0.75261 0.50802 0.0
H432 H 0.39107 0.69062 0.45694 0.0
H433 H 0.37135 0.68714 0.47986 0.0
H434 H 0.43195 0.68717 0.49105 0.0
H435 H 0.41235 0.68355 0.51398 0.0
H436 H 0.3732 0.64004 0.58432 0.0
H437 H 0.32004 0.63443 0.58637 0.0
H438 H 0.31678 0.65785 0.5672 0.0
H439 H 0.36999 0.66349 0.56501 0.0
C440 C 0.32843 0.81706 0.03649 0.0
C441 C 0.31236 0.82177 0.03144 0.0
C442 C 0.30318 0.79306 0.03264 0.0
C443 C 0.29982 0.80983 0.0295 0.0
C444 C 0.31926 0.78844 0.03748 0.0
C445 C 0.33171 0.80028 0.03938 0.0
U446 U 0.35536 0.85678 0.02888 0.0
O447 O 0.36635 0.87307 0.04752 0.0
O448 O 0.38259 0.85898 0.03119 0.0
C449 C 0.38167 0.86879 0.04394 0.0
C450 C 0.34185 0.82913 0.03982 0.0
C451 C 0.39309 0.86514 0.05793 0.0
C452 C 0.39846 0.85873 0.08695 0.0
C453 C 0.38728 0.86089 0.07379 0.0
C454 C 0.42143 0.86477 0.06863 0.0
C455 C 0.41563 0.86078 0.0845 0.0
C456 C 0.41028 0.86694 0.05551 0.0
C457 C 0.34565 0.8867 0.99205 0.0
C458 C 0.36348 0.90768 0.97948 0.0
C459 C 0.33452 0.90608 0.97168 0.0
C460 C 0.33232 0.89279 0.98263 0.0
C461 C 0.35013 0.91359 0.9699 0.0
C462 C 0.36126 0.89433 0.99049 0.0
C463 C 0.34294 0.872 1.00274 0.0
O464 O 0.35428 0.82959 0.02932 0.0
O465 O 0.33752 0.84381 0.04505 0.0
O466 O 0.3378 0.87469 1.01786 0.0
O467 O 0.35409 0.86021 1.00193 0.0
H468 H 0.30946 0.83463 0.02916 0.0
H469 H 0.28751 0.81366 0.02571 0.0
H470 H 0.32215 0.77559 0.03993 0.0
H471 H 0.34394 0.79633 0.04336 0.0
H472 H 0.39372 0.85563 0.09909 0.0
H473 H 0.37411 0.85944 0.07607 0.0
H474 H 0.4346 0.8664 0.06645 0.0
H475 H 0.4151 0.87031 0.04346 0.0
H476 H 0.37563 0.91329 0.97831 0.0
H477 H 0.32407 0.91042 0.96443 0.0
H478 H 0.32019 0.88709 0.98359 0.0
H479 H 0.37174 0.88985 0.9976 0.0
C480 C 1.01498 0.8294 0.32259 0.0
C481 C 0.02691 0.81726 0.32629 0.0
C482 C 1.0192 0.80207 0.30156 0.0
C483 C 0.02902 0.80368 0.31583 0.0
C484 C 1.00745 0.81433 0.29785 0.0
C485 C 1.00537 0.82784 0.30826 0.0
U486 U 0.02372 0.8588 0.35957 0.0
O487 O 1.02096 0.88585 0.35999 0.0
O488 O 1.00541 0.87037 0.37601 0.0
C489 C 1.00843 0.88535 0.37039 0.0
C490 C 1.01191 0.84367 0.33343 0.0
C491 C 0.99387 0.89619 0.36669 0.0
C492 C 0.98289 0.92241 0.35622 0.0
C493 C 0.99608 0.91125 0.35814 0.0
C494 C 0.96484 0.90376 0.37124 0.0
C495 C 0.96719 0.91885 0.3629 0.0
C496 C 0.97802 0.89258 0.37316 0.0
C497 C 0.06161 0.85118 0.38872 0.0
C498 C 0.06669 0.86191 0.41626 0.0
C499 C 0.08869 0.84779 0.40178 0.0
C500 C 0.07806 0.84544 0.38834 0.0
C501 C 0.08309 0.85593 0.41591 0.0
C502 C 0.05602 0.85955 0.40276 0.0
C503 C 0.05056 0.84757 0.37459 0.0
O504 O 1.00708 0.84035 0.34859 0.0
O505 O 0.02261 0.85587 0.33257 0.0
O506 O 0.05102 0.85798 0.36206 0.0
O507 O 0.03544 0.84251 0.3781 0.0
H508 H 0.03447 0.81822 0.33728 0.0
H509 H 0.03818 0.79437 0.31891 0.0
H510 H 0.99976 0.81337 0.28695 0.0
H511 H 0.9961 0.83705 0.30516 0.0
H512 H 0.985 0.93398 0.34977 0.0
H513 H 1.00814 0.91462 0.35326 0.0
H514 H 0.95285 0.90078 0.37654 0.0
H515 H 0.97587 0.88128 0.38006 0.0
H516 H 0.06212 0.86822 0.42705 0.0
H517 H 0.10127 0.8431 0.40123 0.0
H518 H 0.08264 0.83892 0.37767 0.0
H519 H 0.04339 0.86409 0.40337 0.0
C520 C 0.14633 0.49391 0.87158 0.0
C521 C 0.14841 0.48345 0.85812 0.0
C522 C 0.12974 0.46273 0.87077 0.0
C523 C 0.13973 0.46842 0.85741 0.0
C524 C 0.12583 0.47477 0.88271 0.0
C525 C 0.13437 0.48979 0.88342 0.0
U526 U 0.18256 0.52417 0.86121 0.0
O527 O 0.18286 0.55139 0.8626 0.0
O528 O 0.19917 0.53666 0.87862 0.0
C529 C 0.19361 0.55146 0.87479 0.0
C530 C 0.15635 0.50905 0.87375 0.0
C531 C 0.19018 0.56275 0.88869 0.0
C532 C 0.18357 0.56788 0.91758 0.0
C533 C 0.18523 0.55694 0.90436 0.0
C534 C 0.19141 0.59063 0.89966 0.0
C535 C 0.18682 0.58481 0.91538 0.0
C536 C 0.19309 0.57971 0.88648 0.0
C537 C 0.21249 0.51426 0.82468 0.0
C538 C 0.23707 0.52962 0.81611 0.0
C539 C 0.22983 0.50461 0.80221 0.0
C540 C 0.21577 0.50294 0.81223 0.0
C541 C 0.24177 0.51718 0.80478 0.0
C542 C 0.22297 0.52791 0.82624 0.0
C543 C 0.19795 0.51149 0.83556 0.0
O544 O 0.17156 0.50679 0.87917 0.0
O545 O 0.1554 0.52043 0.86212 0.0
O546 O 0.18562 0.52204 0.83426 0.0
O547 O 0.20118 0.50725 0.85091 0.0
H548 H 0.15676 0.48687 0.84819 0.0
H549 H 0.14095 0.46159 0.84615 0.0
H550 H 0.11622 0.47279 0.89179 0.0
H551 H 0.13172 0.49816 0.89341 0.0
H552 H 0.18 0.56312 0.9296 0.0
H553 H 0.18294 0.54392 0.90644 0.0
H554 H 0.19397 0.60361 0.89767 0.0
H555 H 0.197 0.5845 0.87458 0.0
H556 H 0.24374 0.54103 0.81721 0.0
H557 H 0.23109 0.4959 0.79231 0.0
H558 H 0.20738 0.49272 0.81019 0.0
H559 H 0.22018 0.53734 0.83518 0.0
C560 C 0.55126 0.6528 0.37252 0.0
C561 C 0.56304 0.65601 0.36011 0.0
C562 C 0.57852 0.63127 0.3681 0.0
C563 C 0.57658 0.64531 0.35792 0.0
C564 C 0.56668 0.6281 0.38043 0.0
C565 C 0.5532 0.63876 0.38261 0.0
U566 U 0.52198 0.69013 0.3631 0.0
O567 O 0.49472 0.69108 0.36549 0.0
O568 O 0.51023 0.70689 0.38087 0.0
C569 C 0.49515 0.7015 0.3778 0.0
C570 C 0.5369 0.6638 0.37544 0.0
C571 C 0.48413 0.69795 0.39223 0.0
C572 C 0.47591 0.70324 0.42073 0.0
C573 C 0.48723 0.70511 0.40769 0.0
C574 C 0.45809 0.68694 0.40331 0.0
C575 C 0.46116 0.69428 0.41861 0.0
C576 C 0.4694 0.6888 0.39026 0.0
C577 C 0.53066 0.71874 0.32491 0.0
C578 C 0.52002 0.74631 0.31877 0.0
C579 C 0.53563 0.73163 0.29806 0.0
C580 C 0.53739 0.71823 0.30896 0.0
C581 C 0.52708 0.74586 0.30289 0.0
C582 C 0.52181 0.73285 0.32971 0.0
C583 C 0.53381 0.70468 0.33633 0.0
O584 O 0.54027 0.67892 0.38004 0.0
O585 O 0.52469 0.6631 0.36474 0.0
O586 O 0.52316 0.69241 0.33596 0.0
O587 O 0.53867 0.70827 0.35134 0.0
H588 H 0.56177 0.66678 0.35218 0.0
H589 H 0.58558 0.64798 0.34833 0.0
H590 H 0.56792 0.61738 0.38841 0.0
H591 H 0.54428 0.63605 0.39226 0.0
H592 H 0.47851 0.70904 0.43242 0.0
H593 H 0.49825 0.71248 0.40963 0.0
H594 H 0.44677 0.68002 0.40138 0.0
H595 H 0.46641 0.68336 0.37849 0.0
H596 H 0.51336 0.75716 0.32274 0.0
H597 H 0.54116 0.731 0.28591 0.0
H598 H 0.54428 0.7075 0.30499 0.0
H599 H 0.51651 0.73354 0.34196 0.0
C600 C 0.31376 1.01727 0.83471 0.0
C601 C 0.31934 0.02459 0.81991 0.0
C602 C 0.29208 0.02062 0.80737 0.0
C603 C 0.30857 0.02626 0.80634 0.0
C604 C 0.28644 1.0137 0.82229 0.0
C605 C 0.29716 1.01206 0.8358 0.0
U606 U 0.35226 0.02476 0.86304 0.0
O607 O 0.35416 0.02133 0.88996 0.0
O608 O 0.36924 1.00604 0.87361 0.0
C609 C 0.36452 1.00886 0.88884 0.0
C610 C 0.32506 1.01377 0.84876 0.0
C611 C 0.36136 0.99416 0.89954 0.0
C612 C 0.34406 0.97836 0.91877 0.0
C613 C 0.34607 0.99159 0.90761 0.0
C614 C 0.37239 0.96984 0.91379 0.0
C615 C 0.35725 0.96746 0.92205 0.0
C616 C 0.37442 0.98306 0.90269 0.0
C617 C 0.38212 0.06164 0.85393 0.0
C618 C 0.4066 0.0695 0.86964 0.0
C619 C 0.40043 0.08347 0.84409 0.0
C620 C 0.38607 0.07392 0.84237 0.0
C621 C 0.41202 0.0805 0.85695 0.0
C622 C 0.3922 0.05985 0.86789 0.0
C623 C 0.36726 0.05127 0.85117 0.0
O624 O 0.34007 1.00859 0.84511 0.0
O625 O 0.32489 0.0242 0.86105 0.0
O626 O 0.35551 0.05177 0.8624 0.0
O627 O 0.37004 0.0363 0.84578 0.0
H628 H 0.33209 0.02869 0.81872 0.0
H629 H 0.31318 0.03159 0.79493 0.0
H630 H 0.2738 1.00923 0.82335 0.0
H631 H 0.29259 1.00632 0.84704 0.0
H632 H 0.33226 0.97672 0.92499 0.0
H633 H 0.33577 0.99993 0.90553 0.0
H634 H 0.38273 0.9616 0.91613 0.0
H635 H 0.38636 0.98481 0.89677 0.0
H636 H 0.41294 0.06832 0.88126 0.0
H637 H 0.40218 0.09331 0.83518 0.0
H638 H 0.37797 0.0762 0.83191 0.0
H639 H 0.38888 0.05109 0.87752 0.0
C640 C 1.0149 0.72062 0.23371 0.0
C641 C 0.03077 0.7248 0.23965 0.0
C642 C 1.01898 0.7473 0.25566 0.0
C643 C 0.03278 0.73803 0.25054 0.0
C644 C 1.00323 0.74329 0.2495 0.0
C645 C 1.00122 0.7301 0.23867 0.0
U646 U 0.02314 0.6903 0.19731 0.0
O647 O 1.02116 0.66312 0.19752 0.0
O648 O 1.00467 0.67791 0.18175 0.0
C649 C 1.00856 0.66309 0.18723 0.0
C650 C 1.0119 0.70582 0.22346 0.0
C651 C 0.9946 0.65178 0.19117 0.0
C652 C 0.9664 0.64635 0.20082 0.0
C653 C 0.97979 0.65726 0.1985 0.0
C654 C 0.9825 0.62434 0.1888 0.0
C655 C 0.9676 0.62983 0.19583 0.0
C656 C 0.99585 0.6352 0.1865 0.0
C657 C 0.05957 0.69858 0.16622 0.0
C658 C 0.08316 0.68461 0.15349 0.0
C659 C 0.07014 0.70762 0.13935 0.0
C660 C 0.05881 0.70917 0.15237 0.0
C661 C 0.08259 0.6955 0.13991 0.0
C662 C 0.07179 0.68614 0.16653 0.0
C663 C 0.04892 0.70199 0.18087 0.0
O664 O 1.00614 0.70841 0.20848 0.0
O665 O 0.02291 0.69387 0.22421 0.0
O666 O 0.05021 0.69202 0.1937 0.0
O667 O 0.03355 0.70669 0.17802 0.0
H668 H 0.04156 0.71769 0.23612 0.0
H669 H 0.04505 0.7409 0.25516 0.0
H670 H 0.99242 0.75023 0.25329 0.0
H671 H 0.98885 0.72709 0.2344 0.0
H672 H 0.95501 0.65084 0.20627 0.0
H673 H 0.97849 0.66999 0.20218 0.0
H674 H 0.98371 0.61167 0.18487 0.0
H675 H 1.00709 0.6307 0.18077 0.0
H676 H 0.0927 0.67523 0.15422 0.0
H677 H 0.06952 0.7162 0.12905 0.0
H678 H 0.04975 0.71903 0.15183 0.0
H679 H 0.07292 0.67787 0.17704 0.0
C680 C 0.31037 0.53072 0.72408 0.0
C681 C 0.31694 0.52349 0.7385 0.0
C682 C 0.28988 0.52511 0.75197 0.0
C683 C 0.30677 0.52072 0.75233 0.0
C684 C 0.28327 0.5321 0.73749 0.0
C685 C 0.29344 0.53489 0.72369 0.0
U686 U 0.34799 0.52439 0.6946 0.0
O687 O 0.34926 0.52791 0.66764 0.0
O688 O 0.36451 0.5433 0.68371 0.0
C689 C 0.35949 0.54051 0.66857 0.0
C690 C 0.32098 0.53486 0.70964 0.0
C691 C 0.35606 0.55521 0.65787 0.0
C692 C 0.34111 0.56862 0.63515 0.0
C693 C 0.34293 0.55543 0.64637 0.0
C694 C 0.36532 0.58179 0.64674 0.0
C695 C 0.35239 0.58184 0.63513 0.0
C696 C 0.36715 0.56862 0.65793 0.0
C697 C 0.37839 0.48771 0.7032 0.0
C698 C 0.40355 0.48082 0.68807 0.0
C699 C 0.39624 0.46521 0.71235 0.0
C700 C 0.38181 0.47466 0.71407 0.0
C701 C 0.40841 0.46901 0.70024 0.0
C702 C 0.38908 0.49038 0.68983 0.0
C703 C 0.36353 0.49803 0.70613 0.0
O704 O 0.33597 0.54036 0.71283 0.0
O705 O 0.32066 0.52455 0.69724 0.0
O706 O 0.3516 0.49741 0.69511 0.0
O707 O 0.36629 0.51303 0.71143 0.0
H708 H 0.32995 0.52016 0.73915 0.0
H709 H 0.3121 0.51527 0.76337 0.0
H710 H 0.27029 0.53554 0.73694 0.0
H711 H 0.2881 0.54053 0.71274 0.0
H712 H 0.33106 0.5684 0.62629 0.0
H713 H 0.33425 0.54526 0.64578 0.0
H714 H 0.37417 0.59184 0.64693 0.0
H715 H 0.37754 0.56873 0.66641 0.0
H716 H 0.41039 0.48276 0.67683 0.0
H717 H 0.39762 0.45481 0.72067 0.0
H718 H 0.37327 0.47174 0.724 0.0
H719 H 0.38619 0.49977 0.68067 0.0
C720 C 0.55088 0.89499 0.1879 0.0
C721 C 0.56693 0.8889 0.19119 0.0
C722 C 0.57794 0.91695 0.19192 0.0
C723 C 0.58034 0.8998 0.19317 0.0
C724 C 0.56188 0.923 0.18895 0.0
C725 C 0.54851 0.91214 0.18694 0.0
U726 U 0.52198 0.85688 0.19521 0.0
O727 O 0.49473 0.85551 0.19265 0.0
O728 O 0.51066 0.8407 0.17667 0.0
C729 C 0.49542 0.84524 0.18025 0.0
C730 C 0.53663 0.88394 0.18426 0.0
C731 C 0.48417 0.84864 0.16616 0.0
C732 C 0.47708 0.86277 0.1404 0.0
C733 C 0.48795 0.86032 0.15379 0.0
C734 C 0.45855 0.84202 0.15166 0.0
C735 C 0.4623 0.85359 0.13921 0.0
C736 C 0.46937 0.83959 0.16498 0.0
C737 C 0.53085 0.82648 0.23204 0.0
C738 C 0.51419 0.81101 0.25211 0.0
C739 C 0.54222 0.8022 0.24609 0.0
C740 C 0.54391 0.81528 0.23477 0.0
C741 C 0.52742 0.80005 0.25501 0.0
C742 C 0.51587 0.82411 0.24074 0.0
C743 C 0.53384 0.84122 0.22134 0.0
O744 O 0.54007 0.86912 0.1788 0.0
O745 O 0.5242 0.88403 0.19476 0.0
O746 O 0.52314 0.85343 0.22216 0.0
O747 O 0.53907 0.83853 0.20625 0.0
H748 H 0.56917 0.87575 0.19197 0.0
H749 H 0.59262 0.89486 0.19546 0.0
H750 H 0.55973 0.93616 0.18794 0.0
H751 H 0.53632 0.91716 0.18432 0.0
H752 H 0.48022 0.87175 0.13092 0.0
H753 H 0.49931 0.86743 0.15443 0.0
H754 H 0.44725 0.83481 0.15101 0.0
H755 H 0.46621 0.8305 0.17436 0.0
H756 H 0.50268 0.80961 0.25889 0.0
H757 H 0.55259 0.79394 0.24814 0.0
H758 H 0.55564 0.81688 0.22841 0.0
H759 H 0.50559 0.83256 0.23903 0.0
C760 C 0.1802 0.99627 0.65708 0.0
C761 C 0.19174 0.99743 0.64405 0.0
C762 C 0.18436 0.96991 0.63465 0.0
C763 C 0.19382 0.98439 0.633 0.0
C764 C 0.17301 0.96859 0.64774 0.0
C765 C 0.17091 0.98163 0.65878 0.0
U766 U 0.18753 0.02603 0.69409 0.0
O767 O 0.18493 0.05311 0.6947 0.0
O768 O 0.16898 0.03755 0.71029 0.0
C769 C 0.17263 0.0526 0.70534 0.0
C770 C 0.17645 1.01076 0.6677 0.0
C771 C 0.15857 0.06404 0.70237 0.0
C772 C 0.13147 0.07098 0.69075 0.0
C773 C 0.14486 0.05993 0.6925 0.0
C774 C 0.14543 0.09033 0.70854 0.0
C775 C 0.13163 0.08624 0.69886 0.0
C776 C 0.15875 0.07936 0.71025 0.0
C777 C 0.22501 1.0182 0.72386 0.0
C778 C 0.22954 0.02169 0.75341 0.0
C779 C 0.25311 0.01951 0.73507 0.0
C780 C 0.24232 1.01807 0.72161 0.0
C781 C 0.24683 0.02109 0.75113 0.0
C782 C 0.21871 0.02026 0.73991 0.0
C783 C 0.21408 1.01472 0.70952 0.0
O784 O 0.17098 1.00769 0.68271 0.0
O785 O 0.18679 0.02331 0.66708 0.0
O786 O 0.2148 0.02511 0.69698 0.0
O787 O 0.19892 1.00955 0.71265 0.0
H788 H 0.19893 1.00857 0.64213 0.0
H789 H 0.20262 0.98569 0.62297 0.0
H790 H 0.16554 0.95757 0.64922 0.0
H791 H 0.1617 0.98038 0.66845 0.0
H792 H 0.12091 0.06757 0.68325 0.0
H793 H 0.14443 0.04817 0.68632 0.0
H794 H 0.14581 0.10199 0.71492 0.0
H795 H 0.16916 0.08278 0.71795 0.0
H796 H 0.22443 0.02287 0.7657 0.0
H797 H 0.26639 0.01899 0.73302 0.0
H798 H 0.24752 1.01638 0.70942 0.0
H799 H 0.20545 0.02037 0.74209 0.0
C800 C 0.81714 0.32954 0.0385 0.0
C801 C 0.80612 0.32975 0.025 0.0
C802 C 0.7936 0.30386 0.0343 0.0
C803 C 0.7945 0.31703 0.02292 0.0
C804 C 0.80483 0.30341 0.04754 0.0
C805 C 0.81642 0.31613 0.04964 0.0
U806 U 0.85438 0.35971 0.03076 0.0
O807 O 0.85527 0.38655 0.03449 0.0
O808 O 0.87156 0.37034 0.04904 0.0
C809 C 0.86635 0.38549 0.04637 0.0
C810 C 0.82814 0.34383 0.04221 0.0
C811 C 0.86368 0.39593 0.06105 0.0
C812 C 0.84583 0.40957 0.08106 0.0
C813 C 0.84787 0.39857 0.0679 0.0
C814 C 0.87534 0.41517 0.08083 0.0
C815 C 0.85955 0.41812 0.08749 0.0
C816 C 0.87737 0.4042 0.06776 0.0
C817 C 0.88289 0.35354 0.99215 0.0
C818 C 0.91241 0.35797 0.98674 0.0
C819 C 0.89329 0.35539 0.96391 0.0
C820 C 0.88011 0.35342 0.97504 0.0
C821 C 0.90959 0.3575 0.96964 0.0
C822 C 0.89919 0.35601 0.99791 0.0
C823 C 0.86883 0.34968 1.00345 0.0
O824 O 0.84342 0.34048 0.0469 0.0
O825 O 0.82723 0.35684 0.03242 0.0
O826 O 0.85635 0.36013 1.00357 0.0
O827 O 0.87248 0.34384 1.0182 0.0
H828 H 0.80618 0.33991 1.01624 0.0
H829 H 0.78595 0.31764 1.01263 0.0
H830 H 0.80436 0.2934 0.05647 0.0
H831 H 0.82455 0.3157 0.06027 0.0
H832 H 0.83354 0.41162 0.08604 0.0
H833 H 0.8371 0.39235 0.06294 0.0
H834 H 0.88609 0.42158 0.08558 0.0
H835 H 0.88967 0.40241 0.06267 0.0
H836 H 0.92489 0.35958 0.99143 0.0
H837 H 0.89081 0.35499 0.95079 0.0
H838 H 0.86772 0.35142 0.97026 0.0
H839 H 0.90177 0.35612 1.01101 0.0
C840 C 0.81546 0.22067 0.52102 0.0
C841 C 0.80415 0.22013 0.53428 0.0
C842 C 0.79188 0.24629 0.52545 0.0
C843 C 0.79251 0.23281 0.53647 0.0
C844 C 0.80339 0.24707 0.51246 0.0
C845 C 0.81499 0.23439 0.51024 0.0
U846 U 0.85302 0.19079 0.52823 0.0
O847 O 0.85413 0.16395 0.52458 0.0
O848 O 0.87002 0.18028 0.50972 0.0
C849 C 0.8649 0.1651 0.51244 0.0
C850 C 0.82649 0.20644 0.51716 0.0
C851 C 0.86214 0.15459 0.49776 0.0
C852 C 0.84515 0.13581 0.48152 0.0
C853 C 0.8467 0.14723 0.49435 0.0
C854 C 0.87427 0.13923 0.47502 0.0
C855 C 0.859 0.13155 0.4719 0.0
C856 C 0.87582 0.15061 0.4878 0.0
C857 C 0.88209 0.1972 0.56635 0.0
C858 C 0.91185 0.19438 0.5715 0.0
C859 C 0.89264 0.19414 0.59444 0.0
C860 C 0.87933 0.19599 0.58344 0.0
C861 C 0.90903 0.19352 0.5886 0.0
C862 C 0.89851 0.1962 0.56046 0.0
C863 C 0.86781 0.20098 0.55529 0.0
O864 O 0.84166 0.20987 0.51221 0.0
O865 O 0.82582 0.19345 0.52698 0.0
O866 O 0.8554 0.19045 0.55538 0.0
O867 O 0.87115 0.20686 0.54048 0.0
H868 H 0.80398 0.20972 0.54275 0.0
H869 H 0.78373 0.23194 0.54656 0.0
H870 H 0.80312 0.25732 0.50379 0.0
H871 H 0.82334 0.2351 0.49978 0.0
H872 H 0.83326 0.12999 0.47935 0.0
H873 H 0.83593 0.14997 0.50184 0.0
H874 H 0.88512 0.1361 0.46781 0.0
H875 H 0.88789 0.15597 0.49023 0.0
H876 H 0.9244 0.19392 0.56673 0.0
H877 H 0.89017 0.1935 0.60756 0.0
H878 H 0.86685 0.19687 0.58833 0.0
H879 H 0.90109 0.19717 0.54739 0.0
C880 C 0.64856 0.36653 0.55966 0.0
C881 C 0.64887 0.35183 0.56884 0.0
C882 C 0.62916 0.36317 0.58914 0.0
C883 C 0.63894 0.34997 0.58302 0.0
C884 C 0.62757 0.37702 0.57841 0.0
C885 C 0.63741 0.37885 0.56427 0.0
U886 U 0.68507 0.35649 0.52978 0.0
O887 O 0.6858 0.35935 0.50272 0.0
O888 O 0.70261 0.37388 0.51804 0.0
C889 C 0.69723 0.3709 0.50307 0.0
C890 C 0.65923 0.36931 0.545 0.0
C891 C 0.69469 0.38541 0.49212 0.0
C892 C 0.67909 0.40964 0.48305 0.0
C893 C 0.681 0.39601 0.49377 0.0
C894 C 0.70448 0.4022 0.46899 0.0
C895 C 0.69083 0.41283 0.47055 0.0
C896 C 0.70637 0.38864 0.47966 0.0
C897 C 0.71299 0.31787 0.53751 0.0
C898 C 0.74159 0.31231 0.52926 0.0
C899 C 0.72393 0.28982 0.53827 0.0
C900 C 0.71086 0.30094 0.54069 0.0
C901 C 0.73945 0.2954 0.53265 0.0
C902 C 0.72847 0.32347 0.53166 0.0
C903 C 0.69911 0.3293 0.54122 0.0
O904 O 0.67465 0.37368 0.54793 0.0
O905 O 0.65796 0.35864 0.53298 0.0
O906 O 0.68649 0.3293 0.53094 0.0
O907 O 0.70308 0.34416 0.54622 0.0
H908 H 0.65667 0.3417 0.56497 0.0
H909 H 0.63889 0.33789 0.58861 0.0
H910 H 0.61859 0.38661 0.58066 0.0
H911 H 0.63622 0.38999 0.55686 0.0
H912 H 0.66848 0.4177 0.48449 0.0
H913 H 0.67184 0.39376 0.50331 0.0
H914 H 0.71368 0.40441 0.45947 0.0
H915 H 0.71703 0.38064 0.47817 0.0
H916 H 0.75345 0.31687 0.52486 0.0
H917 H 0.72198 0.27685 0.54093 0.0
H918 H 0.69908 0.29632 0.54525 0.0
H919 H 0.73047 0.33645 0.52911 0.0
C920 C 0.65007 0.18421 0.99877 0.0
C921 C 0.65048 0.19894 0.98964 0.0
C922 C 0.63085 0.18772 0.9692 0.0
C923 C 0.64063 0.20087 0.97541 0.0
C924 C 0.62918 0.17384 0.97986 0.0
C925 C 0.63892 0.17193 0.99405 0.0
U926 U 0.68637 0.19369 0.02923 0.0
O927 O 0.68671 0.19038 0.05624 0.0
O928 O 0.70354 0.17586 0.04091 0.0
C929 C 0.69767 0.17837 0.0558 0.0
C930 C 0.66063 0.18132 1.01347 0.0
C931 C 0.69452 0.16346 0.06629 0.0
C932 C 0.6787 0.14879 0.08758 0.0
C933 C 0.68049 0.16219 0.07662 0.0
C934 C 0.70474 0.13751 0.07805 0.0
C935 C 0.69088 0.13641 0.08849 0.0
C936 C 0.70656 0.1509 0.06711 0.0
C937 C 0.71468 0.23229 0.02226 0.0
C938 C 0.74323 0.23779 0.03075 0.0
C939 C 0.72572 0.2603 0.02148 0.0
C940 C 0.71264 0.24921 1.01901 0.0
C941 C 0.74117 0.2547 0.02725 0.0
C942 C 0.73009 0.22666 0.02827 0.0
C943 C 0.70082 0.2209 1.01838 0.0
O944 O 0.67605 0.1769 1.01065 0.0
O945 O 0.65929 0.19187 0.02559 0.0
O946 O 0.68809 0.22087 0.02853 0.0
O947 O 0.70478 0.20608 1.01328 0.0
H948 H 0.65828 0.20903 0.99359 0.0
H949 H 0.64066 0.21297 0.96986 0.0
H950 H 0.6202 0.16426 0.97752 0.0
H951 H 0.63767 0.16077 1.00142 0.0
H952 H 0.66791 0.14818 0.09554 0.0
H953 H 0.67104 0.17169 0.07647 0.0
H954 H 0.71429 0.12812 0.07856 0.0
H955 H 0.7176 0.15161 0.05952 0.0
H956 H 0.75503 0.23321 0.03526 0.0
H957 H 0.72384 0.27326 1.01874 0.0
H958 H 0.70092 0.25386 1.01431 0.0
H959 H 0.73203 0.21368 0.03088 0.0
C960 C 1.01794 0.27094 0.79518 0.0
C961 C 1.01673 0.288 0.79119 0.0
C962 C 1.01783 0.28141 0.76164 0.0
C963 C 1.0171 0.26432 0.76563 0.0
N964 N 1.01531 0.24262 0.78605 0.0
N965 N 1.01434 0.30964 0.77076 0.0
C966 C 1.01697 0.25903 0.78238 0.0
C967 C 1.01649 0.29329 0.77444 0.0
N968 N 1.02029 0.26617 0.81123 0.0
N969 N 1.02006 0.28624 0.74559 0.0
H970 H 1.01378 0.31871 0.77976 0.0
H971 H 1.01207 0.31417 0.75892 0.0
H972 H 1.02087 0.27789 0.73593 0.0
H973 H 0.02243 0.29835 0.74194 0.0
H974 H 0.02298 0.25413 0.81488 0.0
H975 H 1.02087 0.27454 0.82089 0.0
H976 H 1.01313 0.23803 0.79788 0.0
H977 H 1.01509 0.23354 0.77704 0.0
C978 C 0.75963 0.5311 0.28123 0.0
C979 C 0.76177 0.5201 0.29482 0.0
C980 C 0.78655 0.50846 0.28152 0.0
C981 C 0.78496 0.52008 0.26838 0.0
N982 N 0.77188 0.54444 0.25717 0.0
N983 N 0.7791 0.5007 0.30954 0.0
C984 C 0.77205 0.532 0.26868 0.0
C985 C 0.77581 0.5095 0.29544 0.0
N986 N 0.74542 0.54024 0.27999 0.0
N987 N 0.79789 0.49597 0.28041 0.0
H988 H 0.77156 0.50117 0.31998 0.0
H989 H 0.79006 0.49414 0.31145 0.0
H990 H 0.80603 0.49479 0.2705 0.0
H991 H 0.79833 0.48603 0.28863 0.0
H992 H 0.74221 0.54707 0.26953 0.0
H993 H 0.73614 0.54001 0.28896 0.0
H994 H 0.76388 0.55449 0.25768 0.0
H995 H 0.78076 0.54546 0.24785 0.0
C996 C 0.52429 0.28926 0.78039 0.0
C997 C 0.51342 0.28849 0.76662 0.0
C998 C 0.5043 0.26091 0.77576 0.0
C999 C 0.51363 0.26256 0.79051 0.0
N1000 N 0.53117 0.27909 0.80783 0.0
N1001 N 0.49142 0.2745 0.75225 0.0
C1002 C 0.52335 0.27693 0.79306 0.0
C1003 C 0.50303 0.27451 0.76454 0.0
N1004 N 0.53578 0.30163 0.78117 0.0
N1005 N 0.49695 0.24616 0.77227 0.0
H1006 H 0.49012 0.28414 0.74373 0.0
H1007 H 0.48219 0.26558 0.75126 0.0
H1008 H 0.49762 0.23593 0.78016 0.0
H1009 H 0.4915 0.24358 0.76095 0.0
H1010 H 0.5452 0.30199 0.78995 0.0
H1011 H 0.53683 0.31081 0.77212 0.0
H1012 H 0.53687 0.29006 0.81119 0.0
H1013 H 0.53089 0.2703 0.81731 0.0
C1014 C 0.76721 0.02468 0.29381 0.0
C1015 C 0.7843 0.02707 0.29021 0.0
C1016 C 0.77792 0.02726 0.26052 0.0
C1017 C 0.76068 0.02689 0.26421 0.0
N1018 N 0.73865 0.02639 0.28429 0.0
N1019 N 0.80605 0.03178 0.27032 0.0
C1020 C 0.75525 0.02577 0.28085 0.0
C1021 C 0.78971 0.02853 0.27359 0.0
N1022 N 0.76246 0.02113 0.30964 0.0
N1023 N 0.783 0.02615 0.24449 0.0
H1024 H 0.81508 0.03234 0.27951 0.0
H1025 H 0.81052 0.03495 0.25868 0.0
H1026 H 0.7747 0.02536 0.23465 0.0
H1027 H 0.79533 0.02464 0.24099 0.0
H1028 H 0.75048 1.01758 0.31292 0.0
H1029 H 0.77086 0.02041 0.31941 0.0
H1030 H 0.73386 0.02761 0.29613 0.0
H1031 H 0.72955 0.02673 0.27514 0.0
C1032 C 0.28056 0.75497 1.01716 0.0
C1033 C 0.26786 0.75276 0.02922 0.0
C1034 C 0.27983 0.77593 0.0446 0.0
C1035 C 0.29016 0.78001 0.03098 0.0
N1036 N 0.29984 0.77361 1.00367 0.0
N1037 N 0.26714 0.75313 0.05891 0.0
C1038 C 0.29037 0.76956 1.01709 0.0
C1039 C 0.27036 0.76109 0.04439 0.0
N1040 N 0.28509 0.74201 1.00756 0.0
N1041 N 0.27927 0.78597 0.05798 0.0
H1042 H 0.26495 0.74045 0.0593 0.0
H1043 H 0.26983 0.75811 0.0704 0.0
H1044 H 0.28638 0.79668 0.05887 0.0
H1045 H 0.27075 0.78425 0.06753 0.0
H1046 H 0.29528 0.74232 0.99964 0.0
H1047 H 0.28015 0.73023 1.0094 0.0
H1048 H 0.29913 0.76726 0.99259 0.0
H1049 H 0.30725 0.78415 1.00317 0.0
C1050 C 0.29037 0.78659 0.53074 0.0
C1051 C 0.28771 0.76964 0.53459 0.0
C1052 C 0.2581 0.77576 0.53857 0.0
C1053 C 0.26029 0.79139 0.53081 0.0
N1054 N 0.27894 0.81197 0.51967 0.0
N1055 N 0.27178 0.75505 0.55518 0.0
C1056 C 0.27658 0.79697 0.5271 0.0
C1057 C 0.27225 0.76581 0.54217 0.0
N1058 N 0.30575 0.79326 0.53295 0.0
N1059 N 0.24257 0.77036 0.54264 0.0
H1060 H 0.28269 0.75085 0.56077 0.0
H1061 H 0.26109 0.75274 0.56207 0.0
H1062 H 0.23194 0.77752 0.54089 0.0
H1063 H 0.24028 0.75835 0.54678 0.0
H1064 H 0.30817 0.80584 0.53184 0.0
H1065 H 0.31546 0.78641 0.53811 0.0
H1066 H 0.29044 0.81579 0.51513 0.0
H1067 H 0.26921 0.82004 0.51693 0.0
C1068 C 0.02827 0.78946 0.27467 0.0
C1069 C 1.02086 0.78749 0.29047 0.0
C1070 C 1.01528 0.75834 0.2844 0.0
C1071 C 1.02075 0.7609 0.26791 0.0
N1072 N 0.031 0.77931 0.24674 0.0
N1073 N 1.0056 0.77055 0.30983 0.0
C1074 C 0.02697 0.77656 0.2629 0.0
C1075 C 1.014 0.77201 0.29524 0.0
N1076 N 0.03685 0.80358 0.27105 0.0
N1077 N 1.01163 0.74273 0.28979 0.0
H1078 H 1.00448 0.78018 0.31816 0.0
H1079 H 0.99865 0.76021 0.31313 0.0
H1080 H 1.01241 0.73245 0.28221 0.0
H1081 H 1.00927 0.73974 0.30209 0.0
H1082 H 0.04398 0.80516 0.26044 0.0
H1083 H 0.03806 0.81322 0.27937 0.0
H1084 H 0.03377 0.79092 0.24188 0.0
H1085 H 0.03042 0.77015 0.23783 0.0
C1086 C 0.27728 0.5351 0.77862 0.0
C1087 C 0.27918 0.52242 0.76684 0.0
C1088 C 0.26277 0.50405 0.78476 0.0
C1089 C 0.25777 0.51776 0.79439 0.0
N1090 N 0.27228 0.54007 0.80738 0.0
N1091 N 0.27381 0.49436 0.75884 0.0
C1092 C 0.26821 0.53186 0.79339 0.0
C1093 C 0.27206 0.5067 0.77002 0.0
N1094 N 0.2842 0.55024 0.77587 0.0
N1095 N 0.2608 0.48847 0.79096 0.0
H1096 H 0.28075 0.4957 0.74804 0.0
H1097 H 0.26734 0.48326 0.75975 0.0
H1098 H 0.2564 0.48635 0.80291 0.0
H1099 H 0.26557 0.47802 0.78529 0.0
H1100 H 0.28174 0.5603 0.7834 0.0
H1101 H 0.29141 0.55299 0.76552 0.0
H1102 H 0.28085 0.5497 0.80759 0.0
H1103 H 0.26949 0.53518 0.81901 0.0
C1104 C 0.51683 0.77218 0.26474 0.0
C1105 C 0.52618 0.78667 0.26784 0.0
C1106 C 0.53608 0.77449 0.29399 0.0
C1107 C 0.52602 0.76037 0.29133 0.0
N1108 N 0.50443 0.74709 0.27581 0.0
N1109 N 0.54192 0.80305 0.2869 0.0
C1110 C 0.51566 0.75963 0.27718 0.0
C1111 C 0.53496 0.78824 0.28294 0.0
N1112 N 0.50959 0.77011 0.24966 0.0
N1113 N 0.54726 0.77449 0.30667 0.0
H1114 H 0.54133 0.81339 0.27916 0.0
H1115 H 0.54694 0.80554 0.29844 0.0
H1116 H 0.54844 0.76473 0.31507 0.0
H1117 H 0.55628 0.78355 0.30811 0.0
H1118 H 0.50423 0.75909 0.24594 0.0
H1119 H 0.51006 0.77904 0.24033 0.0
H1120 H 0.49533 0.74671 0.2667 0.0
H1121 H 0.50323 0.73775 0.28467 0.0
C1122 C 0.27239 0.03579 0.78814 0.0
C1123 C 0.28087 0.02105 0.79264 0.0
C1124 C 0.26597 1.00617 0.77089 0.0
C1125 C 0.25843 0.02115 0.76558 0.0
N1126 N 0.25614 0.05067 0.76756 0.0
N1127 N 0.28787 0.99285 0.78668 0.0
C1128 C 0.2621 0.0361 0.77378 0.0
C1129 C 0.27826 1.00642 0.78353 0.0
N1130 N 0.27381 0.04936 0.79788 0.0
N1131 N 0.26095 0.99158 0.76422 0.0
H1132 H 0.2969 0.99251 0.7959 0.0
H1133 H 0.28793 0.98244 0.77929 0.0
H1134 H 0.25202 0.99085 0.75494 0.0
H1135 H 0.26455 0.98009 0.76881 0.0
H1136 H 0.26657 0.0599 0.79641 0.0
H1137 H 0.28145 0.04967 0.80825 0.0
H1138 H 0.25978 0.06217 0.77182 0.0
H1139 H 0.24845 0.05133 0.75722 0.0
C1140 C 0.75482 0.27774 0.04295 0.0
C1141 C 0.75514 0.26668 0.0295 0.0
C1142 C 0.78167 0.27876 0.02028 0.0
C1143 C 0.78045 0.29089 0.03274 0.0
N1144 N 0.76455 0.30349 0.05442 0.0
N1145 N 0.76764 0.25803 1.00401 0.0
C1146 C 0.76667 0.29077 0.0437 0.0
C1147 C 0.76827 0.26753 1.01781 0.0
N1148 N 0.74341 0.27552 0.05525 0.0
N1149 N 0.79585 0.27769 1.01111 0.0
H1150 H 0.75815 0.24958 1.00183 0.0
H1151 H 0.77578 0.25941 0.99412 0.0
H1152 H 0.80586 0.28571 1.01253 0.0
H1153 H 0.7983 0.26806 1.00308 0.0
H1154 H 0.74363 0.28201 0.06626 0.0
H1155 H 0.73455 0.26615 0.05512 0.0
H1156 H 0.75385 0.3051 0.06142 0.0
H1157 H 0.77288 0.31327 0.05533 0.0
C1158 C 0.75327 0.27262 0.51674 0.0
C1159 C 0.75339 0.28339 0.53041 0.0
C1160 C 0.77973 0.27106 0.53983 0.0
C1161 C 0.77871 0.25923 0.52708 0.0
N1162 N 0.7632 0.24714 0.50484 0.0
N1163 N 0.76547 0.2915 0.55628 0.0
C1164 C 0.76513 0.2596 0.51589 0.0
C1165 C 0.76631 0.28227 0.54231 0.0
N1166 N 0.74205 0.2751 0.50431 0.0
N1167 N 0.79374 0.27188 0.54929 0.0
H1168 H 0.75597 0.29995 0.55845 0.0
H1169 H 0.77342 0.28991 0.56628 0.0
H1170 H 0.80374 0.26385 0.54788 0.0
H1171 H 0.79606 0.28131 0.55758 0.0
H1172 H 0.74244 0.26886 0.49317 0.0
H1173 H 0.73316 0.28445 0.50452 0.0
H1174 H 0.75262 0.24568 0.49763 0.0
H1175 H 0.77156 0.23738 0.50384 0.0
C1176 C 0.1157 0.10898 0.68418 0.0
C1177 C 0.11726 0.09793 0.69781 0.0
C1178 C 0.09442 0.11217 0.71194 0.0
C1179 C 0.09247 0.12287 0.69808 0.0
N1180 N 0.09899 0.12956 0.66983 0.0
N1181 N 0.10605 0.08676 0.72308 0.0
C1182 C 0.10244 0.12067 0.68382 0.0
C1183 C 0.10594 0.09883 0.71119 0.0
N1184 N 0.12728 0.1087 0.67187 0.0
N1185 N 0.08581 0.11518 0.72612 0.0
H1186 H 0.11437 0.0769 0.72296 0.0
H1187 H 0.09704 0.08568 0.73223 0.0
H1188 H 0.07717 0.12469 0.72716 0.0
H1189 H 0.0881 0.10909 0.73725 0.0
H1190 H 0.12806 0.11762 0.66258 0.0
H1191 H 0.13689 0.10008 0.67151 0.0
H1192 H 0.10462 0.12742 0.6585 0.0
H1193 H 0.08944 0.13823 0.66919 0.0
C1194 C 0.94945 0.61078 0.21294 0.0
C1195 C 0.95316 0.61828 0.19747 0.0
C1196 C 0.93109 0.60193 0.18445 0.0
C1197 C 0.92658 0.59535 0.20011 0.0
N1198 N 0.92972 0.59532 0.22967 0.0
N1199 N 0.94597 0.62305 0.16897 0.0
C1200 C 0.93529 0.60028 0.21448 0.0
C1201 C 0.94353 0.61442 0.18335 0.0
N1202 N 0.95976 0.61329 0.22606 0.0
N1203 N 0.92383 0.59586 0.17054 0.0
H1204 H 0.95499 0.6322 0.16767 0.0
H1205 H 0.93821 0.62215 0.15876 0.0
H1206 H 0.9146 0.58684 0.17087 0.0
H1207 H 0.92782 0.59875 0.15865 0.0
H1208 H 0.95889 0.60675 0.23714 0.0
H1209 H 0.97006 0.62107 0.22547 0.0
H1210 H 0.93431 0.59993 0.24069 0.0
H1211 H 0.91955 0.58751 0.23128 0.0
C1212 C 0.44036 0.43533 0.71046 0.0
C1213 C 0.44863 0.43384 0.6951 0.0
C1214 C 0.43601 0.46005 0.68617 0.0
C1215 C 0.42493 0.45943 0.69982 0.0
N1216 N 0.42703 0.45421 0.72904 0.0
N1217 N 0.45416 0.44501 0.66794 0.0
C1218 C 0.42996 0.4492 0.7133 0.0
C1219 C 0.44631 0.44621 0.68279 0.0
N1220 N 0.44219 0.42337 0.7223 0.0
N1221 N 0.43944 0.47481 0.67874 0.0
H1222 H 0.4623 0.43543 0.66514 0.0
H1223 H 0.45156 0.45294 0.65806 0.0
H1224 H 0.43569 0.48588 0.68401 0.0
H1225 H 0.44837 0.47625 0.66953 0.0
H1226 H 0.43509 0.42306 0.73305 0.0
H1227 H 0.44977 0.41307 0.72075 0.0
H1228 H 0.43174 0.44811 0.7394 0.0
H1229 H 0.42194 0.46576 0.73151 0.0
C1230 C 0.61352 0.94248 0.21004 0.0
C1231 C 0.61864 0.95178 0.19598 0.0
C1232 C 0.59848 0.93678 0.17897 0.0
C1233 C 0.59227 0.92865 0.19331 0.0
N1234 N 0.59226 0.92544 0.22289 0.0
N1235 N 0.6145 0.95952 0.16751 0.0
C1236 C 0.59938 0.93194 0.20896 0.0
C1237 C 0.61071 0.94938 0.18055 0.0
N1238 N 0.62248 0.94336 0.22431 0.0
N1239 N 0.59303 0.93208 0.16376 0.0
H1240 H 0.62345 0.96879 0.16816 0.0
H1241 H 0.60788 0.95968 0.15649 0.0
H1242 H 0.58413 0.92291 0.16211 0.0
H1243 H 0.59832 0.93622 0.15276 0.0
H1244 H 0.62055 0.93556 0.23442 0.0
H1245 H 0.63283 0.95097 0.22561 0.0
H1246 H 0.59565 0.92883 0.23476 0.0
H1247 H 0.582 0.91761 0.2226 0.0
C1248 C 0.11483 0.41873 0.8592 0.0
C1249 C 0.09977 0.41878 0.86843 0.0
C1250 C 0.11298 0.4398 0.88579 0.0
C1251 C 0.12239 0.44517 0.87185 0.0
N1252 N 0.14059 0.43237 0.85208 0.0
N1253 N 0.09228 0.4213 0.89714 0.0
C1254 C 0.1258 0.43257 0.86018 0.0
C1255 C 0.10079 0.42713 0.8838 0.0
N1256 N 0.12014 0.40429 0.85248 0.0
N1257 N 0.11812 0.44417 0.90118 0.0
H1258 H 0.08814 0.40912 0.89777 0.0
H1259 H 0.09026 0.42819 0.90772 0.0
H1260 H 0.12932 0.45038 0.90299 0.0
H1261 H 0.1127 0.43999 0.91209 0.0
H1262 H 0.13143 0.40281 0.84646 0.0
H1263 H 0.11401 0.39317 0.85484 0.0
H1264 H 0.14277 0.42534 0.84163 0.0
H1265 H 0.15091 0.43871 0.85654 0.0
C1266 C 0.60612 0.61994 0.37771 0.0
C1267 C 0.59296 0.61982 0.36605 0.0
C1268 C 0.60723 0.59793 0.35076 0.0
C1269 C 0.61959 0.59702 0.36323 0.0
N1270 N 0.62959 0.60545 0.38984 0.0
N1271 N 0.57965 0.60712 0.3428 0.0
C1272 C 0.6187 0.60758 0.37706 0.0
C1273 C 0.59316 0.60838 0.35291 0.0
N1274 N 0.60685 0.63218 0.38914 0.0
N1275 N 0.60919 0.58917 0.33658 0.0
H1276 H 0.56922 0.61464 0.34387 0.0
H1277 H 0.5782 0.59779 0.3342 0.0
H1278 H 0.61922 0.5813 0.3346 0.0
H1279 H 0.60165 0.59069 0.32626 0.0
H1280 H 0.61701 0.63405 0.39683 0.0
H1281 H 0.59789 0.64142 0.38999 0.0
H1282 H 0.6285 0.61148 0.40105 0.0
H1283 H 0.63898 0.59659 0.38978 0.0
C1284 C 0.44427 0.1138 0.84643 0.0
C1285 C 0.45183 0.11609 0.86203 0.0
C1286 C 0.43897 0.09025 0.87168 0.0
C1287 C 0.42848 0.09015 0.85757 0.0
N1288 N 0.43191 0.0939 0.82826 0.0
N1289 N 0.45624 0.10627 0.8899 0.0
C1290 C 0.43407 0.09973 0.84383 0.0
C1291 C 0.44905 0.1043 0.87481 0.0
N1292 N 0.44659 0.12516 0.8341 0.0
N1293 N 0.4421 0.07589 0.87997 0.0
H1294 H 0.46418 0.11604 0.89258 0.0
H1295 H 0.45326 0.0988 0.90002 0.0
H1296 H 0.43852 0.06455 0.87516 0.0
H1297 H 0.45065 0.07493 0.88958 0.0
H1298 H 0.43998 0.12489 0.82305 0.0
H1299 H 0.45406 0.13556 0.83546 0.0
H1300 H 0.43706 0.0995 0.81783 0.0
H1301 H 0.42703 0.08218 0.82617 0.0
C1302 C 0.94121 0.95796 0.36885 0.0
C1303 C 0.92721 0.9546 0.35878 0.0
C1304 C 0.93998 0.92837 0.35048 0.0
C1305 C 0.95334 0.93113 0.36154 0.0
N1306 N 0.9653 0.94718 0.38337 0.0
N1307 N 0.91186 0.93536 0.34223 0.0
C1308 C 0.95356 0.94556 0.37132 0.0
C1309 C 0.92621 0.93944 0.35021 0.0
N1310 N 0.94299 0.97322 0.37561 0.0
N1311 N 0.9407 0.91546 0.33981 0.0
H1312 H 0.90151 0.94309 0.34179 0.0
H1313 H 0.90965 0.92378 0.33729 0.0
H1314 H 0.95052 0.90707 0.33967 0.0
H1315 H 0.93231 0.91382 0.3302 0.0
H1316 H 0.95377 0.97708 0.38152 0.0
H1317 H 0.9342 0.98256 0.37416 0.0
H1318 H 0.96507 0.95649 0.39211 0.0
H1319 H 0.97453 0.93841 0.38556 0.0
C1320 C 0.6903 0.11202 0.12926 0.0
C1321 C 0.68652 0.09591 0.12367 0.0
C1322 C 0.68439 0.1066 0.0952 0.0
C1323 C 0.68934 0.12244 0.10063 0.0
N1324 N 0.69966 0.1397 0.12235 0.0
N1325 N 0.68269 0.07723 0.10109 0.0
C1326 C 0.69304 0.125 0.11755 0.0
C1327 C 0.68433 0.09303 0.10655 0.0
N1328 N 0.69072 0.11504 0.1458 0.0
N1329 N 0.67923 0.10463 0.07929 0.0
H1330 H 0.68258 0.06701 0.109 0.0
H1331 H 0.68285 0.0741 0.08868 0.0
H1332 H 0.67922 0.11422 0.07061 0.0
H1333 H 0.67371 0.09389 0.075 0.0
H1334 H 0.69152 0.12682 0.1507 0.0
H1335 H 0.68896 0.10585 0.15473 0.0
H1336 H 0.70437 0.14175 0.1341 0.0
H1337 H 0.70171 0.14952 0.11419 0.0
C1338 C 0.93992 0.205 0.62253 0.0
C1339 C 0.94959 0.19041 0.62376 0.0
C1340 C 0.93208 0.17746 0.60264 0.0
C1341 C 0.92324 0.19248 0.6005 0.0
N1342 N 0.92056 0.22144 0.60635 0.0
N1343 N 0.95675 0.16371 0.6131 0.0
C1344 C 0.92768 0.20651 0.60988 0.0
C1345 C 0.94619 0.17689 0.61327 0.0
N1346 N 0.94205 0.21723 0.63379 0.0
N1347 N 0.92665 0.16356 0.59493 0.0
H1348 H 0.96717 0.16282 0.6207 0.0
H1349 H 0.95604 0.15431 0.60448 0.0
H1350 H 0.91646 0.16351 0.587 0.0
H1351 H 0.93136 0.15184 0.5974 0.0
H1352 H 0.93417 0.22735 0.63474 0.0
H1353 H 0.95092 0.21662 0.64315 0.0
H1354 H 0.92453 0.23247 0.61146 0.0
H1355 H 0.9116 0.22305 0.59719 0.0
C1356 C 0.84956 0.45819 0.11022 0.0
C1357 C 0.85773 0.4553 0.12549 0.0
C1358 C 0.86373 0.42685 0.117 0.0
C1359 C 0.85759 0.4305 0.10095 0.0
N1360 N 0.84622 0.45031 0.08164 0.0
N1361 N 0.87409 0.43736 0.14295 0.0
C1362 C 0.85078 0.44632 0.09742 0.0
C1363 C 0.86511 0.43969 0.12882 0.0
N1364 N 0.84037 0.47222 0.10805 0.0
N1365 N 0.86797 0.411 0.12103 0.0
H1366 H 0.87526 0.44636 0.15197 0.0
H1367 H 0.88138 0.42699 0.14522 0.0
H1368 H 0.86706 0.40133 0.1127 0.0
H1369 H 0.87092 0.40714 0.13296 0.0
H1370 H 0.83271 0.47431 0.0979 0.0
H1371 H 0.83919 0.48112 0.11717 0.0
H1372 H 0.84302 0.4622 0.07787 0.0
H1373 H 0.84684 0.44201 0.07194 0.0
C1374 C 0.59654 0.37424 0.6217 0.0
C1375 C 0.59274 0.35845 0.62835 0.0
C1376 C 0.6178 0.34755 0.61502 0.0
C1377 C 0.61929 0.36226 0.60541 0.0
N1378 N 0.61832 0.39144 0.61052 0.0
N1379 N 0.59995 0.32966 0.63119 0.0
C1380 C 0.61096 0.37633 0.61173 0.0
C1381 C 0.60337 0.34495 0.62488 0.0
N1382 N 0.58629 0.38728 0.62466 0.0
N1383 N 0.63141 0.3379 0.61764 0.0
H1384 H 0.58987 0.3273 0.63895 0.0
H1385 H 0.60648 0.31918 0.62766 0.0
H1386 H 0.64326 0.34194 0.61432 0.0
H1387 H 0.63143 0.32771 0.62558 0.0
H1388 H 0.58764 0.39866 0.61871 0.0
H1389 H 0.57566 0.3863 0.63196 0.0
H1390 H 0.61365 0.40192 0.61622 0.0
H1391 H 0.63032 0.39286 0.60585 0.0
C1392 C 0.69934 0.45406 0.44869 0.0
C1393 C 0.68673 0.45425 0.43644 0.0
C1394 C 0.67733 0.42687 0.44597 0.0
C1395 C 0.68903 0.42731 0.45907 0.0
N1396 N 0.70938 0.44246 0.47455 0.0
N1397 N 0.662 0.44212 0.42503 0.0
C1398 C 0.69954 0.44124 0.46088 0.0
C1399 C 0.67525 0.44099 0.43552 0.0
N1400 N 0.71144 0.46586 0.44835 0.0
N1401 N 0.66858 0.41273 0.44317 0.0
H1402 H 0.6601 0.45217 0.41713 0.0
H1403 H 0.65218 0.43377 0.42509 0.0
H1404 H 0.66964 0.40222 0.45061 0.0
H1405 H 0.66129 0.41095 0.43274 0.0
H1406 H 0.72198 0.46544 0.45578 0.0
H1407 H 0.71171 0.47541 0.43964 0.0
H1408 H 0.71597 0.45305 0.47753 0.0
H1409 H 0.70986 0.43335 0.48372 0.0
C1410 C 0.59845 0.17665 0.93646 0.0
C1411 C 0.59453 0.19247 0.92995 0.0
C1412 C 0.61947 0.20345 0.94339 0.0
C1413 C 0.62107 0.18868 0.95289 0.0
N1414 N 0.62031 0.15953 0.94761 0.0
N1415 N 0.60151 0.22133 0.92735 0.0
C1416 C 0.61286 0.1746 0.94645 0.0
C1417 C 0.60504 0.20602 0.93354 0.0
N1418 N 0.58831 0.16355 0.93337 0.0
N1419 N 0.63302 0.21322 0.94086 0.0
H1420 H 0.59144 0.22368 0.91959 0.0
H1421 H 0.60796 0.23184 0.93098 0.0
H1422 H 0.6449 0.20921 0.94413 0.0
H1423 H 0.63297 0.22348 0.93301 0.0
H1424 H 0.58974 0.15214 0.93923 0.0
H1425 H 0.57769 0.16452 0.92605 0.0
H1426 H 0.61575 0.14905 0.94183 0.0
H1427 H 0.63229 0.15815 0.95236 0.0
C1428 C 0.85122 0.12185 0.44332 0.0
C1429 C 0.85791 0.11833 0.45918 0.0
C1430 C 0.86571 0.09054 0.45007 0.0
C1431 C 0.85815 0.09369 0.43452 0.0
N1432 N 0.84138 0.11126 0.41715 0.0
N1433 N 0.86867 0.09843 0.4787 0.0
C1434 C 0.85022 0.10906 0.43139 0.0
C1435 C 0.8643 0.10239 0.46285 0.0
N1436 N 0.84634 0.13757 0.43949 0.0
N1437 N 0.87481 0.07648 0.45244 0.0
H1438 H 0.8679 0.10678 0.48836 0.0
H1439 H 0.87167 0.08652 0.48258 0.0
H1440 H 0.87609 0.06746 0.44347 0.0
H1441 H 0.88222 0.07435 0.46276 0.0
H1442 H 0.84311 0.14144 0.42763 0.0
H1443 H 0.84662 0.14713 0.44798 0.0
H1444 H 0.83385 0.12145 0.41482 0.0
H1445 H 0.8405 0.10223 0.40813 0.0
C1446 C 0.94538 0.37499 0.94355 0.0
C1447 C 0.94984 0.361 0.93412 0.0
C1448 C 0.92922 0.34436 0.94931 0.0
C1449 C 0.92372 0.35869 0.95764 0.0
N1450 N 0.92489 0.38815 0.96101 0.0
N1451 N 0.94445 0.33296 0.92625 0.0
C1452 C 0.93137 0.37415 0.95431 0.0
C1453 C 0.94133 0.34583 0.93653 0.0
N1454 N 0.95486 0.38895 0.94261 0.0
N1455 N 0.92324 0.32925 0.95398 0.0
H1456 H 0.95327 0.33353 0.91684 0.0
H1457 H 0.93739 0.32221 0.92612 0.0
H1458 H 0.9144 0.32767 0.96326 0.0
H1459 H 0.92803 0.31817 0.94969 0.0
H1460 H 0.95342 0.3989 0.95047 0.0
H1461 H 0.96513 0.39007 0.93484 0.0
H1462 H 0.92868 0.39998 0.95764 0.0
H1463 H 0.91477 0.38802 0.96903 0.0
C1464 C 0.11971 0.70779 0.11298 0.0
C1465 C 0.12038 0.6945 0.10173 0.0
C1466 C 0.09543 0.68246 0.11467 0.0
C1467 C 0.09568 0.69498 0.12678 0.0
N1468 N 0.10976 0.71795 0.1392 0.0
N1469 N 0.11033 0.66799 0.09314 0.0
C1470 C 0.1083 0.70721 0.1264 0.0
C1471 C 0.10861 0.6815 0.10292 0.0
N1472 N 0.12964 0.72127 0.11053 0.0
N1473 N 0.08232 0.67178 0.11409 0.0
H1474 H 0.11969 0.66695 0.08433 0.0
H1475 H 0.10331 0.65729 0.0946 0.0
H1476 H 0.07257 0.67204 0.12255 0.0
H1477 H 0.08043 0.66352 0.10454 0.0
H1478 H 0.12844 0.73213 0.11716 0.0
H1479 H 0.13815 0.7222 0.10087 0.0
H1480 H 0.11979 0.72591 0.14058 0.0
H1481 H 0.1017 0.71794 0.14926 0.0
C1482 C 0.10212 0.87327 0.4335 0.0
C1483 C 0.09443 0.85785 0.43042 0.0
C1484 C 0.11026 0.84531 0.45331 0.0
C1485 C 0.11699 0.86099 0.45716 0.0
N1486 N 0.11738 0.8904 0.45263 0.0
N1487 N 0.08905 0.8298 0.43893 0.0
C1488 C 0.11237 0.87512 0.44771 0.0
C1489 C 0.09792 0.84403 0.44077 0.0
N1490 N 0.10006 0.88602 0.42252 0.0
N1491 N 0.11606 0.83155 0.46132 0.0
H1492 H 0.07995 0.82839 0.42991 0.0
H1493 H 0.08967 0.81988 0.44717 0.0
H1494 H 0.12497 0.83202 0.47063 0.0
H1495 H 0.11307 0.81959 0.45787 0.0
H1496 H 0.10679 0.89696 0.423 0.0
H1497 H 0.09253 0.8852 0.4121 0.0
H1498 H 0.11295 0.90133 0.44743 0.0
H1499 H 0.12501 0.89224 0.46284 0.0
C1500 C 0.19978 0.61514 0.94893 0.0
C1501 C 0.18417 0.61932 0.95588 0.0
C1502 C 0.17018 0.60162 0.93566 0.0
C1503 C 0.18585 0.59646 0.92958 0.0
N1504 N 0.21566 0.59616 0.9322 0.0
N1505 N 0.15469 0.61453 0.95773 0.0
C1506 C 0.20069 0.60264 0.93672 0.0
C1507 C 0.16941 0.61199 0.94975 0.0
N1508 N 0.2137 0.6235 0.95365 0.0
N1509 N 0.15601 0.59705 0.92763 0.0
H1510 H 0.15359 0.62209 0.96799 0.0
H1511 H 0.14384 0.60812 0.95505 0.0
H1512 H 0.15606 0.58939 0.91739 0.0
H1513 H 0.14434 0.60188 0.93027 0.0
H1514 H 0.22513 0.62237 0.94779 0.0
H1515 H 0.21353 0.63264 0.9626 0.0
H1516 H 0.22676 0.59879 0.93819 0.0
H1517 H 0.21684 0.58701 0.92334 0.0
C1518 C 0.43411 0.67625 0.45329 0.0
C1519 C 0.42508 0.69041 0.45827 0.0
C1520 C 0.43856 0.70668 0.43623 0.0
C1521 C 0.4487 0.69293 0.43229 0.0
N1522 N 0.45792 0.66533 0.43865 0.0
N1523 N 0.42044 0.71971 0.45615 0.0
C1524 C 0.44695 0.67789 0.44126 0.0
C1525 C 0.42777 0.7058 0.45017 0.0
N1526 N 0.43005 0.66112 0.45968 0.0
N1527 N 0.43885 0.72042 0.42632 0.0
H1528 H 0.41242 0.71955 0.46625 0.0
H1529 H 0.42333 0.73155 0.452 0.0
H1530 H 0.44659 0.72155 0.41606 0.0
H1531 H 0.43047 0.73012 0.42742 0.0
H1532 H 0.43488 0.65011 0.45528 0.0
H1533 H 0.42072 0.65941 0.46846 0.0
H1534 H 0.45851 0.65476 0.44604 0.0
H1535 H 0.46741 0.66603 0.42992 0.0
C1536 C 0.35612 0.95698 0.95152 0.0
C1537 C 0.35539 0.95367 0.93437 0.0
C1538 C 0.35319 0.92397 0.94058 0.0
C1539 C 0.35243 0.92741 0.95771 0.0
N1540 N 0.35083 0.94732 0.97949 0.0
N1541 N 0.35086 0.93435 0.91247 0.0
C1542 C 0.35328 0.94397 0.96318 0.0
C1543 C 0.35328 0.93723 0.92887 0.0
N1544 N 0.36004 0.97249 0.95669 0.0
N1545 N 0.3543 0.90799 0.93552 0.0
H1546 H 0.35096 0.94371 0.90355 0.0
H1547 H 0.34741 0.92293 0.90784 0.0
H1548 H 0.35423 0.89797 0.94371 0.0
H1549 H 0.35671 0.90466 0.92339 0.0
H1550 H 0.36262 0.97532 0.96891 0.0
H1551 H 0.36204 0.98234 0.94856 0.0
H1552 H 0.34939 0.95919 0.98401 0.0
H1553 H 0.34892 0.93814 0.9884 0.0
C1554 C 0.43989 0.86961 0.12414 0.0
C1555 C 0.45073 0.8558 0.12489 0.0
C1556 C 0.43757 0.84459 0.1 0.0
C1557 C 0.4276 0.85898 0.09855 0.0
N1558 N 0.4211 0.88642 0.10765 0.0
N1559 N 0.46184 0.83148 0.11213 0.0
C1560 C 0.42928 0.87185 0.11019 0.0
C1561 C 0.45011 0.84366 0.1124 0.0
N1562 N 0.43934 0.88031 0.13703 0.0
N1563 N 0.43469 0.83158 0.08982 0.0
H1564 H 0.47117 0.8304 0.12099 0.0
H1565 H 0.46321 0.82331 0.10243 0.0
H1566 H 0.42569 0.83183 0.08057 0.0
H1567 H 0.44022 0.82006 0.09138 0.0
H1568 H 0.43042 0.88952 0.13815 0.0
H1569 H 0.44703 0.87921 0.14732 0.0
H1570 H 0.42322 0.89693 0.11461 0.0
H1571 H 0.41313 0.88848 0.09771 0.0
C1572 C 0.17882 0.958 0.60648 0.0
C1573 C 0.18602 0.95629 0.62241 0.0
C1574 C 0.19505 0.92819 0.61555 0.0
C1575 C 0.18922 0.93049 0.59914 0.0
N1576 N 0.17768 0.94844 0.57823 0.0
N1577 N 0.20308 0.94075 0.64139 0.0
C1578 C 0.18166 0.94564 0.59441 0.0
C1579 C 0.1947 0.94163 0.62675 0.0
N1580 N 0.16882 0.97122 0.60305 0.0
N1581 N 0.20045 0.91297 0.62059 0.0
H1582 H 0.20303 0.95027 0.64993 0.0
H1583 H 0.21117 0.9312 0.64451 0.0
H1584 H 0.20088 0.90285 0.61278 0.0
H1585 H 0.20316 0.90998 0.63281 0.0
H1586 H 0.16172 0.97228 0.59236 0.0
H1587 H 0.16652 0.98054 0.6115 0.0
H1588 H 0.17389 0.95987 0.57363 0.0
H1589 H 0.17945 0.93968 0.56908 0.0
C1590 C 0.3562 0.59313 0.60617 0.0
C1591 C 0.35095 0.59558 0.6227 0.0
C1592 C 0.34478 0.62462 0.61607 0.0
C1593 C 0.34862 0.62178 0.59923 0.0
N1594 N 0.35569 0.60278 0.57772 0.0
N1595 N 0.33796 0.6129 0.6429 0.0
C1596 C 0.35372 0.60587 0.59414 0.0
C1597 C 0.34461 0.61114 0.62751 0.0
N1598 N 0.36403 0.57879 0.60208 0.0
N1599 N 0.34179 0.64034 0.62123 0.0
H1600 H 0.33771 0.60336 0.65163 0.0
H1601 H 0.33146 0.62333 0.64658 0.0
H1602 H 0.34179 0.65051 0.61324 0.0
H1603 H 0.34071 0.64353 0.63358 0.0
H1604 H 0.36981 0.57694 0.59077 0.0
H1605 H 0.36595 0.56915 0.61048 0.0
H1606 H 0.35755 0.59102 0.57303 0.0
H1607 H 0.35416 0.6118 0.56858 0.0
loop_
_geom_bond_atom_site_label_1
_geom_bond_atom_site_label_2
_geom_bond_distance
_geom_bond_site_symmetry_2
_ccdc_geom_bond_type
C0 C1 1.215 1_655 S
C0 C5 1.524 . S
C0 C10 1.479 . S
C1 C0 1.215 1_455 S
C1 C3 1.339 . S
C1 H28 0.931 . S
C2 C3 1.395 . S
C2 C4 1.320 1_455 S
C3 C1 1.339 . S
C3 C2 1.395 . S
C3 H29 0.929 . S
C4 C2 1.320 1_655 S
C4 C5 1.405 . S
C4 H30 0.930 . S
C5 C0 1.524 . S
C5 C4 1.405 . S
C5 H31 0.931 . S
U6 O7 2.454 . S
U6 O8 2.458 . S
U6 C9 2.984 . S
U6 C10 2.847 . S
U6 C23 2.882 1_655 S
U6 O24 2.441 . S
U6 O25 2.420 1_655 S
U6 O26 2.455 1_655 S
U6 O27 2.449 1_655 S
O7 U6 2.454 . S
O7 C9 1.353 . S
O8 U6 2.458 . S
O8 C9 1.286 . S
C9 U6 2.984 . S
C9 O7 1.353 . S
C9 O8 1.286 . S
C9 C11 1.363 . S
C10 C0 1.479 . S
C10 U6 2.847 . S
C10 O24 1.249 . S
C10 O25 1.202 1_655 S
C11 C9 1.363 . S
C11 C13 1.408 . S
C11 C16 1.342 . S
C12 C13 1.310 . S
C12 C15 1.461 . S
C12 H32 0.932 . S
C13 C11 1.408 . S
C13 C12 1.310 . S
C13 H33 0.930 . S
C14 C15 1.474 . S
C14 C16 1.285 . S
C14 H34 0.929 . S
C15 C12 1.461 . S
C15 C14 1.474 . S
C16 C11 1.342 . S
C16 C14 1.285 . S
C16 H35 0.930 . S
C17 C20 1.424 . S
C17 C22 1.245 . S
C17 C23 1.428 . S
C18 C21 1.260 . S
C18 C22 1.477 . S
C18 H36 0.932 . S
C19 C20 1.384 . S
C19 C21 1.479 . S
C19 H37 0.929 . S
C20 C17 1.424 . S
C20 C19 1.384 . S
C20 H38 0.928 . S
C21 C18 1.260 . S
C21 C19 1.479 . S
C22 C17 1.245 . S
C22 C18 1.477 . S
C22 H39 0.932 . S
C23 U6 2.882 1_455 S
C23 C17 1.428 . S
C23 O26 1.301 . S
C23 O27 1.282 . S
O24 U6 2.441 . S
O24 C10 1.249 . S
O25 U6 2.420 1_455 S
O25 C10 1.202 1_455 S
O26 U6 2.455 1_455 S
O26 C23 1.301 . S
O27 U6 2.449 1_455 S
O27 C23 1.282 . S
H28 C1 0.931 . S
H29 C3 0.929 . S
H30 C4 0.930 . S
H31 C5 0.931 . S
H32 C12 0.932 . S
H33 C13 0.930 . S
H34 C14 0.929 . S
H35 C16 0.930 . S
H36 C18 0.932 . S
H37 C19 0.929 . S
H38 C20 0.928 . S
H39 C22 0.932 . S
C40 C41 1.264 . S
C40 C45 1.479 . S
C40 C50 1.465 . S
C41 C40 1.264 . S
C41 C43 1.339 . S
C41 H68 0.931 . S
C42 C43 1.395 . S
C42 C44 1.320 . S
C43 C41 1.339 . S
C43 C42 1.395 . S
C43 H69 0.929 . S
C44 C42 1.320 . S
C44 C45 1.405 . S
C44 H70 0.930 . S
C45 C40 1.479 . S
C45 C44 1.405 . S
C45 H71 0.931 . S
U46 O47 2.454 . S
U46 O48 2.458 . S
U46 C49 2.984 . S
U46 C50 2.847 . S
U46 C63 2.882 . S
U46 O64 2.441 . S
U46 O65 2.420 . S
U46 O66 2.455 . S
U46 O67 2.449 . S
O47 U46 2.454 . S
O47 C49 1.353 . S
O48 U46 2.458 . S
O48 C49 1.286 . S
C49 U46 2.984 . S
C49 O47 1.353 . S
C49 O48 1.286 . S
C49 C51 1.363 . S
C50 C40 1.465 . S
C50 U46 2.847 . S
C50 O64 1.249 . S
C50 O65 1.202 . S
C51 C49 1.363 . S
C51 C53 1.408 . S
C51 C56 1.342 . S
C52 C53 1.310 . S
C52 C55 1.461 . S
C52 H72 0.932 . S
C53 C51 1.408 . S
C53 C52 1.310 . S
C53 H73 0.930 . S
C54 C55 1.474 . S
C54 C56 1.285 . S
C54 H74 0.929 . S
C55 C52 1.461 . S
C55 C54 1.474 . S
C56 C51 1.342 . S
C56 C54 1.285 . S
C56 H75 0.930 . S
C57 C60 1.424 . S
C57 C62 1.245 . S
C57 C63 1.428 . S
C58 C61 1.260 . S
C58 C62 1.477 . S
C58 H76 0.932 . S
C59 C60 1.384 . S
C59 C61 1.479 . S
C59 H77 0.929 . S
C60 C57 1.424 . S
C60 C59 1.384 . S
C60 H78 0.928 . S
C61 C58 1.260 . S
C61 C59 1.479 . S
C62 C57 1.245 . S
C62 C58 1.477 . S
C62 H79 0.932 . S
C63 U46 2.882 . S
C63 C57 1.428 . S
C63 O66 1.301 . S
C63 O67 1.282 . S
O64 U46 2.441 . S
O64 C50 1.249 . S
O65 U46 2.420 . S
O65 C50 1.202 . S
O66 U46 2.455 . S
O66 C63 1.301 . S
O67 U46 2.449 . S
O67 C63 1.282 . S
H68 C41 0.931 . S
H69 C43 0.929 . S
H70 C44 0.930 . S
H71 C45 0.931 . S
H72 C52 0.932 . S
H73 C53 0.930 . S
H74 C54 0.929 . S
H75 C56 0.930 . S
H76 C58 0.932 . S
H77 C59 0.929 . S
H78 C60 0.928 . S
H79 C62 0.932 . S
C80 C81 1.264 . S
C80 C85 1.479 . S
C80 C90 1.465 . S
C81 C80 1.264 . S
C81 C83 1.339 . S
C81 H108 0.931 . S
C82 C83 1.395 . S
C82 C84 1.320 . S
C83 C81 1.339 . S
C83 C82 1.395 . S
C83 H109 0.929 . S
C84 C82 1.320 . S
C84 C85 1.405 . S
C84 H110 0.930 . S
C85 C80 1.479 . S
C85 C84 1.405 . S
C85 H111 0.931 . S
U86 O87 2.454 . S
U86 O88 2.458 . S
U86 C89 2.984 . S
U86 C90 2.847 . S
U86 C103 2.882 . S
U86 O104 2.441 . S
U86 O105 2.420 . S
U86 O106 2.455 . S
U86 O107 2.449 . S
O87 U86 2.454 . S
O87 C89 1.353 . S
O88 U86 2.458 . S
O88 C89 1.286 . S
C89 U86 2.984 . S
C89 O87 1.353 . S
C89 O88 1.286 . S
C89 C91 1.363 . S
C90 C80 1.465 . S
C90 U86 2.847 . S
C90 O104 1.249 . S
C90 O105 1.202 . S
C91 C89 1.363 . S
C91 C93 1.408 . S
C91 C96 1.342 . S
C92 C93 1.310 . S
C92 C95 1.461 . S
C92 H112 0.932 . S
C93 C91 1.408 . S
C93 C92 1.310 . S
C93 H113 0.930 . S
C94 C95 1.474 . S
C94 C96 1.285 . S
C94 H114 0.929 . S
C95 C92 1.461 . S
C95 C94 1.474 . S
C96 C91 1.342 . S
C96 C94 1.285 . S
C96 H115 0.930 . S
C97 C100 1.424 . S
C97 C102 1.245 . S
C97 C103 1.428 . S
C98 C101 1.260 . S
C98 C102 1.477 . S
C98 H116 0.932 . S
C99 C100 1.384 . S
C99 C101 1.479 . S
C99 H117 0.929 . S
C100 C97 1.424 . S
C100 C99 1.384 . S
C100 H118 0.928 . S
C101 C98 1.260 . S
C101 C99 1.479 . S
C102 C97 1.245 . S
C102 C98 1.477 . S
C102 H119 0.932 . S
C103 U86 2.882 . S
C103 C97 1.428 . S
C103 O106 1.301 . S
C103 O107 1.282 . S
O104 U86 2.441 . S
O104 C90 1.249 . S
O105 U86 2.420 . S
O105 C90 1.202 . S
O106 U86 2.455 . S
O106 C103 1.301 . S
O107 U86 2.449 . S
O107 C103 1.282 . S
H108 C81 0.931 . S
H109 C83 0.929 . S
H110 C84 0.930 . S
H111 C85 0.931 . S
H112 C92 0.932 . S
H113 C93 0.930 . S
H114 C94 0.929 . S
H115 C96 0.930 . S
H116 C98 0.932 . S
H117 C99 0.929 . S
H118 C100 0.928 . S
H119 C102 0.932 . S
C120 C121 1.264 . S
C120 C125 1.479 . S
C120 C130 1.465 . S
C121 C120 1.264 . S
C121 C123 1.339 . S
C121 H148 0.931 . S
C122 C123 1.395 . S
C122 C124 1.320 . S
C123 C121 1.339 . S
C123 C122 1.395 . S
C123 H149 0.929 . S
C124 C122 1.320 . S
C124 C125 1.405 . S
C124 H150 0.930 . S
C125 C120 1.479 . S
C125 C124 1.405 . S
C125 H151 0.931 . S
U126 O127 2.454 1_545 S
U126 O128 2.458 1_545 S
U126 C129 2.984 1_545 S
U126 C130 2.847 . S
U126 C143 2.882 . S
U126 O144 2.441 . S
U126 O145 2.420 . S
U126 O146 2.455 1_545 S
U126 O147 2.449 . S
O127 U126 2.454 1_565 S
O127 C129 1.353 . S
O128 U126 2.458 1_565 S
O128 C129 1.286 . S
C129 U126 2.984 1_565 S
C129 O127 1.353 . S
C129 O128 1.286 . S
C129 C131 1.363 . S
C130 C120 1.465 . S
C130 U126 2.847 . S
C130 O144 1.249 . S
C130 O145 1.202 . S
C131 C129 1.363 . S
C131 C133 1.408 . S
C131 C136 1.342 . S
C132 C133 1.310 . S
C132 C135 1.461 . S
C132 H152 0.932 . S
C133 C131 1.408 . S
C133 C132 1.310 . S
C133 H153 0.930 . S
C134 C135 1.474 . S
C134 C136 1.285 . S
C134 H154 0.929 . S
C135 C132 1.461 . S
C135 C134 1.474 . S
C136 C131 1.342 . S
C136 C134 1.285 . S
C136 H155 0.930 . S
C137 C140 1.424 . S
C137 C142 1.245 1_545 S
C137 C143 1.428 . S
C138 C141 1.260 1_565 S
C138 C142 1.477 . S
C138 H156 0.932 . S
C139 C140 1.384 . S
C139 C141 1.479 . S
C139 H157 0.929 . S
C140 C137 1.424 . S
C140 C139 1.384 . S
C140 H158 0.928 . S
C141 C138 1.260 1_545 S
C141 C139 1.479 . S
C142 C137 1.245 1_565 S
C142 C138 1.477 . S
C142 H159 0.932 . S
C143 U126 2.882 . S
C143 C137 1.428 . S
C143 O146 1.301 1_545 S
C143 O147 1.282 . S
O144 U126 2.441 . S
O144 C130 1.249 . S
O145 U126 2.420 . S
O145 C130 1.202 . S
O146 U126 2.455 1_565 S
O146 C143 1.301 1_565 S
O147 U126 2.449 . S
O147 C143 1.282 . S
H148 C121 0.931 . S
H149 C123 0.929 . S
H150 C124 0.930 . S
H151 C125 0.931 . S
H152 C132 0.932 . S
H153 C133 0.930 . S
H154 C134 0.929 . S
H155 C136 0.930 . S
H156 C138 0.932 . S
H157 C139 0.929 . S
H158 C140 0.928 . S
H159 C142 0.932 . S
C160 C161 1.218 1_655 S
C160 C165 1.521 . S
C160 C170 1.478 . S
C161 C160 1.218 1_455 S
C161 C163 1.339 . S
C161 H188 0.931 . S
C162 C163 1.395 . S
C162 C164 1.320 1_455 S
C163 C161 1.339 . S
C163 C162 1.395 . S
C163 H189 0.929 . S
C164 C162 1.320 1_655 S
C164 C165 1.405 . S
C164 H190 0.930 . S
C165 C160 1.521 . S
C165 C164 1.405 . S
C165 H191 0.931 . S
U166 O167 2.454 . S
U166 O168 2.458 . S
U166 C169 2.984 . S
U166 C170 2.847 . S
U166 C183 2.882 1_655 S
U166 O184 2.441 . S
U166 O185 2.420 1_655 S
U166 O186 2.455 1_655 S
U166 O187 2.449 1_655 S
O167 U166 2.454 . S
O167 C169 1.353 . S
O168 U166 2.458 . S
O168 C169 1.286 . S
C169 U166 2.984 . S
C169 O167 1.353 . S
C169 O168 1.286 . S
C169 C171 1.363 . S
C170 C160 1.478 . S
C170 U166 2.847 . S
C170 O184 1.249 . S
C170 O185 1.202 1_655 S
C171 C169 1.363 . S
C171 C173 1.408 . S
C171 C176 1.342 . S
C172 C173 1.310 . S
C172 C175 1.461 . S
C172 H192 0.932 . S
C173 C171 1.408 . S
C173 C172 1.310 . S
C173 H193 0.930 . S
C174 C175 1.474 . S
C174 C176 1.285 . S
C174 H194 0.929 . S
C175 C172 1.461 . S
C175 C174 1.474 . S
C176 C171 1.342 . S
C176 C174 1.285 . S
C176 H195 0.930 . S
C177 C180 1.424 . S
C177 C182 1.245 . S
C177 C183 1.428 . S
C178 C181 1.260 . S
C178 C182 1.477 . S
C178 H196 0.932 . S
C179 C180 1.384 . S
C179 C181 1.479 . S
C179 H197 0.929 . S
C180 C177 1.424 . S
C180 C179 1.384 . S
C180 H198 0.928 . S
C181 C178 1.260 . S
C181 C179 1.479 . S
C182 C177 1.245 . S
C182 C178 1.477 . S
C182 H199 0.932 . S
C183 U166 2.882 1_455 S
C183 C177 1.428 . S
C183 O186 1.301 . S
C183 O187 1.282 . S
O184 U166 2.441 . S
O184 C170 1.249 . S
O185 U166 2.420 1_455 S
O185 C170 1.202 1_455 S
O186 U166 2.455 1_455 S
O186 C183 1.301 . S
O187 U166 2.449 1_455 S
O187 C183 1.282 . S
H188 C161 0.931 . S
H189 C163 0.929 . S
H190 C164 0.930 . S
H191 C165 0.931 . S
H192 C172 0.932 . S
H193 C173 0.930 . S
H194 C174 0.929 . S
H195 C176 0.930 . S
H196 C178 0.932 . S
H197 C179 0.929 . S
H198 C180 0.928 . S
H199 C182 0.932 . S
C200 C201 1.264 . S
C200 C205 1.479 . S
C200 C210 1.465 . S
C201 C200 1.264 . S
C201 C203 1.339 . S
C201 H228 0.931 . S
C202 C203 1.395 . S
C202 C204 1.320 . S
C203 C201 1.339 . S
C203 C202 1.395 . S
C203 H229 0.929 . S
C204 C202 1.320 . S
C204 C205 1.405 . S
C204 H230 0.930 . S
C205 C200 1.479 . S
C205 C204 1.405 . S
C205 H231 0.931 . S
U206 O207 2.454 . S
U206 O208 2.458 . S
U206 C209 2.984 . S
U206 C210 2.847 . S
U206 C223 2.882 . S
U206 O224 2.441 . S
U206 O225 2.420 . S
U206 O226 2.455 . S
U206 O227 2.449 . S
O207 U206 2.454 . S
O207 C209 1.353 . S
O208 U206 2.458 . S
O208 C209 1.286 . S
C209 U206 2.984 . S
C209 O207 1.353 . S
C209 O208 1.286 . S
C209 C211 1.363 . S
C210 C200 1.465 . S
C210 U206 2.847 . S
C210 O224 1.249 . S
C210 O225 1.202 . S
C211 C209 1.363 . S
C211 C213 1.408 . S
C211 C216 1.342 . S
C212 C213 1.310 . S
C212 C215 1.461 . S
C212 H232 0.932 . S
C213 C211 1.408 . S
C213 C212 1.310 . S
C213 H233 0.930 . S
C214 C215 1.474 . S
C214 C216 1.285 . S
C214 H234 0.929 . S
C215 C212 1.461 . S
C215 C214 1.474 . S
C216 C211 1.342 . S
C216 C214 1.285 . S
C216 H235 0.930 . S
C217 C220 1.424 . S
C217 C222 1.245 . S
C217 C223 1.428 . S
C218 C221 1.260 . S
C218 C222 1.477 . S
C218 H236 0.932 . S
C219 C220 1.384 . S
C219 C221 1.479 . S
C219 H237 0.929 . S
C220 C217 1.424 . S
C220 C219 1.384 . S
C220 H238 0.928 . S
C221 C218 1.260 . S
C221 C219 1.479 . S
C222 C217 1.245 . S
C222 C218 1.477 . S
C222 H239 0.932 . S
C223 U206 2.882 . S
C223 C217 1.428 . S
C223 O226 1.301 . S
C223 O227 1.282 . S
O224 U206 2.441 . S
O224 C210 1.249 . S
O225 U206 2.420 . S
O225 C210 1.202 . S
O226 U206 2.455 . S
O226 C223 1.301 . S
O227 U206 2.449 . S
O227 C223 1.282 . S
H228 C201 0.931 . S
H229 C203 0.929 . S
H230 C204 0.930 . S
H231 C205 0.931 . S
H232 C212 0.932 . S
H233 C213 0.930 . S
H234 C214 0.929 . S
H235 C216 0.930 . S
H236 C218 0.932 . S
H237 C219 0.929 . S
H238 C220 0.928 . S
H239 C222 0.932 . S
C240 C241 1.264 . S
C240 C245 1.479 . S
C240 C250 1.465 . S
C241 C240 1.264 . S
C241 C243 1.339 . S
C241 H268 0.931 . S
C242 C243 1.395 . S
C242 C244 1.320 . S
C243 C241 1.339 . S
C243 C242 1.395 . S
C243 H269 0.929 . S
C244 C242 1.320 . S
C244 C245 1.405 . S
C244 H270 0.930 . S
C245 C240 1.479 . S
C245 C244 1.405 . S
C245 H271 0.931 . S
U246 O247 2.454 . S
U246 O248 2.458 . S
U246 C249 2.984 . S
U246 C250 2.847 . S
U246 C263 2.882 . S
U246 O264 2.441 . S
U246 O265 2.420 . S
U246 O266 2.455 . S
U246 O267 2.449 . S
O247 U246 2.454 . S
O247 C249 1.353 . S
O248 U246 2.458 . S
O248 C249 1.286 . S
C249 U246 2.984 . S
C249 O247 1.353 . S
C249 O248 1.286 . S
C249 C251 1.363 . S
C250 C240 1.465 . S
C250 U246 2.847 . S
C250 O264 1.249 . S
C250 O265 1.202 . S
C251 C249 1.363 . S
C251 C253 1.408 . S
C251 C256 1.342 . S
C252 C253 1.310 . S
C252 C255 1.461 . S
C252 H272 0.932 . S
C253 C251 1.408 . S
C253 C252 1.310 . S
C253 H273 0.930 . S
C254 C255 1.474 . S
C254 C256 1.285 . S
C254 H274 0.929 . S
C255 C252 1.461 . S
C255 C254 1.474 . S
C256 C251 1.342 . S
C256 C254 1.285 . S
C256 H275 0.930 . S
C257 C260 1.424 . S
C257 C262 1.245 . S
C257 C263 1.428 . S
C258 C261 1.260 . S
C258 C262 1.477 . S
C258 H276 0.932 . S
C259 C260 1.384 . S
C259 C261 1.479 . S
C259 H277 0.929 . S
C260 C257 1.424 . S
C260 C259 1.384 . S
C260 H278 0.928 . S
C261 C258 1.260 . S
C261 C259 1.479 . S
C262 C257 1.245 . S
C262 C258 1.477 . S
C262 H279 0.932 . S
C263 U246 2.882 . S
C263 C257 1.428 . S
C263 O266 1.301 . S
C263 O267 1.282 . S
O264 U246 2.441 . S
O264 C250 1.249 . S
O265 U246 2.420 . S
O265 C250 1.202 . S
O266 U246 2.455 . S
O266 C263 1.301 . S
O267 U246 2.449 . S
O267 C263 1.282 . S
H268 C241 0.931 . S
H269 C243 0.929 . S
H270 C244 0.930 . S
H271 C245 0.931 . S
H272 C252 0.932 . S
H273 C253 0.930 . S
H274 C254 0.929 . S
H275 C256 0.930 . S
H276 C258 0.932 . S
H277 C259 0.929 . S
H278 C260 0.928 . S
H279 C262 0.932 . S
C280 C281 1.264 . S
C280 C285 1.479 . S
C280 C290 1.465 . S
C281 C280 1.264 . S
C281 C283 1.339 . S
C281 H308 0.931 1_545 S
C282 C283 1.395 . S
C282 C284 1.320 . S
C283 C281 1.339 . S
C283 C282 1.395 . S
C283 H309 0.929 1_545 S
C284 C282 1.320 . S
C284 C285 1.405 . S
C284 H310 0.930 . S
C285 C280 1.479 . S
C285 C284 1.405 . S
C285 H311 0.931 . S
U286 O287 2.454 . S
U286 O288 2.458 . S
U286 C289 2.984 . S
U286 C290 2.847 . S
U286 C303 2.882 1_545 S
U286 O304 2.441 . S
U286 O305 2.420 . S
U286 O306 2.455 . S
U286 O307 2.449 1_545 S
O287 U286 2.454 . S
O287 C289 1.353 . S
O288 U286 2.458 . S
O288 C289 1.286 . S
C289 U286 2.984 . S
C289 O287 1.353 . S
C289 O288 1.286 . S
C289 C291 1.363 . S
C290 C280 1.465 . S
C290 U286 2.847 . S
C290 O304 1.249 . S
C290 O305 1.202 . S
C291 C289 1.363 . S
C291 C293 1.408 . S
C291 C296 1.342 . S
C292 C293 1.310 . S
C292 C295 1.461 . S
C292 H312 0.932 . S
C293 C291 1.408 . S
C293 C292 1.310 . S
C293 H313 0.930 . S
C294 C295 1.474 . S
C294 C296 1.285 . S
C294 H314 0.929 . S
C295 C292 1.461 . S
C295 C294 1.474 . S
C296 C291 1.342 . S
C296 C294 1.285 . S
C296 H315 0.930 . S
C297 C300 1.424 . S
C297 C302 1.245 . S
C297 C303 1.428 . S
C298 C301 1.260 . S
C298 C302 1.477 . S
C298 H316 0.932 . S
C299 C300 1.384 . S
C299 C301 1.479 . S
C299 H317 0.929 . S
C300 C297 1.424 . S
C300 C299 1.384 . S
C300 H318 0.928 . S
C301 C298 1.260 . S
C301 C299 1.479 . S
C302 C297 1.245 . S
C302 C298 1.477 . S
C302 H319 0.932 . S
C303 U286 2.882 1_565 S
C303 C297 1.428 . S
C303 O306 1.301 1_565 S
C303 O307 1.282 . S
O304 U286 2.441 . S
O304 C290 1.249 . S
O305 U286 2.420 . S
O305 C290 1.202 . S
O306 U286 2.455 . S
O306 C303 1.301 1_545 S
O307 U286 2.449 1_565 S
O307 C303 1.282 . S
H308 C281 0.931 1_565 S
H309 C283 0.929 1_565 S
H310 C284 0.930 . S
H311 C285 0.931 . S
H312 C292 0.932 . S
H313 C293 0.930 . S
H314 C294 0.929 . S
H315 C296 0.930 . S
H316 C298 0.932 . S
H317 C299 0.929 . S
H318 C300 0.928 . S
H319 C302 0.932 . S
C320 C321 1.264 . S
C320 C325 1.479 . S
C320 C330 1.465 . S
C321 C320 1.264 . S
C321 C323 1.339 . S
C321 H348 0.931 . S
C322 C323 1.395 . S
C322 C324 1.320 . S
C323 C321 1.339 . S
C323 C322 1.395 . S
C323 H349 0.929 . S
C324 C322 1.320 . S
C324 C325 1.405 . S
C324 H350 0.930 . S
C325 C320 1.479 . S
C325 C324 1.405 . S
C325 H351 0.931 . S
U326 O327 2.454 . S
U326 O328 2.458 . S
U326 C329 2.984 . S
U326 C330 2.847 1_554 S
U326 C343 2.881 1_554 S
U326 O344 2.441 1_554 S
U326 O345 2.420 1_554 S
U326 O346 2.455 . S
U326 O347 2.449 1_554 S
O327 U326 2.454 . S
O327 C329 1.353 . S
O328 U326 2.458 . S
O328 C329 1.286 . S
C329 U326 2.984 . S
C329 O327 1.353 . S
C329 O328 1.286 . S
C329 C331 1.363 . S
C330 C320 1.465 . S
C330 U326 2.847 1_556 S
C330 O344 1.249 . S
C330 O345 1.202 . S
C331 C329 1.363 . S
C331 C333 1.408 . S
C331 C336 1.342 . S
C332 C333 1.310 . S
C332 C335 1.461 . S
C332 H352 0.932 . S
C333 C331 1.408 . S
C333 C332 1.310 . S
C333 H353 0.930 . S
C334 C335 1.474 . S
C334 C336 1.285 . S
C334 H354 0.929 . S
C335 C332 1.461 . S
C335 C334 1.474 . S
C336 C331 1.342 . S
C336 C334 1.285 . S
C336 H355 0.930 . S
C337 C340 1.406 1_554 S
C337 C342 1.267 . S
C337 C343 1.425 1_554 S
C338 C341 1.260 . S
C338 C342 1.477 . S
C338 H356 0.932 . S
C339 C340 1.384 . S
C339 C341 1.479 1_556 S
C339 H357 0.929 . S
C340 C337 1.406 1_556 S
C340 C339 1.384 . S
C340 H358 0.928 . S
C341 C338 1.260 . S
C341 C339 1.479 1_554 S
C342 C337 1.267 . S
C342 C338 1.477 . S
C342 H359 0.932 . S
C343 U326 2.881 1_556 S
C343 C337 1.425 1_556 S
C343 O346 1.274 1_556 S
C343 O347 1.312 . S
O344 U326 2.441 1_556 S
O344 C330 1.249 . S
O345 U326 2.420 1_556 S
O345 C330 1.202 . S
O346 U326 2.455 . S
O346 C343 1.274 1_554 S
O347 U326 2.449 1_556 S
O347 C343 1.312 . S
H348 C321 0.931 . S
H349 C323 0.929 . S
H350 C324 0.930 . S
H351 C325 0.931 . S
H352 C332 0.932 . S
H353 C333 0.930 . S
H354 C334 0.929 . S
H355 C336 0.930 . S
H356 C338 0.932 . S
H357 C339 0.929 . S
H358 C340 0.928 . S
H359 C342 0.932 . S
C360 C361 1.264 . S
C360 C365 1.479 . S
C360 C370 1.465 . S
C361 C360 1.264 . S
C361 C363 1.339 . S
C361 H388 0.931 . S
C362 C363 1.395 . S
C362 C364 1.320 . S
C363 C361 1.339 . S
C363 C362 1.395 . S
C363 H389 0.929 . S
C364 C362 1.320 . S
C364 C365 1.405 . S
C364 H390 0.930 . S
C365 C360 1.479 . S
C365 C364 1.405 . S
C365 H391 0.931 . S
U366 O367 2.454 . S
U366 O368 2.458 . S
U366 C369 2.984 . S
U366 C370 2.847 . S
U366 C383 2.882 . S
U366 O384 2.441 . S
U366 O385 2.420 . S
U366 O386 2.455 . S
U366 O387 2.449 . S
O367 U366 2.454 . S
O367 C369 1.353 . S
O368 U366 2.458 . S
O368 C369 1.286 . S
C369 U366 2.984 . S
C369 O367 1.353 . S
C369 O368 1.286 . S
C369 C371 1.363 . S
C370 C360 1.465 . S
C370 U366 2.847 . S
C370 O384 1.249 . S
C370 O385 1.202 . S
C371 C369 1.363 . S
C371 C373 1.408 . S
C371 C376 1.342 . S
C372 C373 1.310 . S
C372 C375 1.461 . S
C372 H392 0.932 . S
C373 C371 1.408 . S
C373 C372 1.310 . S
C373 H393 0.930 . S
C374 C375 1.474 . S
C374 C376 1.285 . S
C374 H394 0.929 . S
C375 C372 1.461 . S
C375 C374 1.474 . S
C376 C371 1.342 . S
C376 C374 1.285 . S
C376 H395 0.930 . S
C377 C380 1.424 . S
C377 C382 1.245 . S
C377 C383 1.428 . S
C378 C381 1.260 . S
C378 C382 1.477 . S
C378 H396 0.932 . S
C379 C380 1.384 . S
C379 C381 1.479 . S
C379 H397 0.929 . S
C380 C377 1.424 . S
C380 C379 1.384 . S
C380 H398 0.928 . S
C381 C378 1.260 . S
C381 C379 1.479 . S
C382 C377 1.245 . S
C382 C378 1.477 . S
C382 H399 0.932 . S
C383 U366 2.882 . S
C383 C377 1.428 . S
C383 O386 1.301 . S
C383 O387 1.282 . S
O384 U366 2.441 . S
O384 C370 1.249 . S
O385 U366 2.420 . S
O385 C370 1.202 . S
O386 U366 2.455 . S
O386 C383 1.301 . S
O387 U366 2.449 . S
O387 C383 1.282 . S
H388 C361 0.931 . S
H389 C363 0.929 . S
H390 C364 0.930 . S
H391 C365 0.931 . S
H392 C372 0.932 . S
H393 C373 0.930 . S
H394 C374 0.929 . S
H395 C376 0.930 . S
H396 C378 0.932 . S
H397 C379 0.929 . S
H398 C380 0.928 . S
H399 C382 0.932 . S
C400 C401 1.264 . S
C400 C405 1.479 . S
C400 C410 1.465 . S
C401 C400 1.264 . S
C401 C403 1.339 . S
C401 H428 0.931 . S
C402 C403 1.395 . S
C402 C404 1.320 . S
C403 C401 1.339 . S
C403 C402 1.395 . S
C403 H429 0.929 . S
C404 C402 1.320 . S
C404 C405 1.405 . S
C404 H430 0.930 . S
C405 C400 1.479 . S
C405 C404 1.405 . S
C405 H431 0.931 . S
U406 O407 2.454 . S
U406 O408 2.458 . S
U406 C409 2.984 . S
U406 C410 2.847 . S
U406 C423 2.882 . S
U406 O424 2.441 . S
U406 O425 2.420 . S
U406 O426 2.455 . S
U406 O427 2.449 . S
O407 U406 2.454 . S
O407 C409 1.353 . S
O408 U406 2.458 . S
O408 C409 1.286 . S
C409 U406 2.984 . S
C409 O407 1.353 . S
C409 O408 1.286 . S
C409 C411 1.363 . S
C410 C400 1.465 . S
C410 U406 2.847 . S
C410 O424 1.249 . S
C410 O425 1.202 . S
C411 C409 1.363 . S
C411 C413 1.408 . S
C411 C416 1.342 . S
C412 C413 1.310 . S
C412 C415 1.461 . S
C412 H432 0.932 . S
C413 C411 1.408 . S
C413 C412 1.310 . S
C413 H433 0.930 . S
C414 C415 1.474 . S
C414 C416 1.285 . S
C414 H434 0.929 . S
C415 C412 1.461 . S
C415 C414 1.474 . S
C416 C411 1.342 . S
C416 C414 1.285 . S
C416 H435 0.930 . S
C417 C420 1.424 . S
C417 C422 1.245 . S
C417 C423 1.428 . S
C418 C421 1.260 . S
C418 C422 1.477 . S
C418 H436 0.932 . S
C419 C420 1.384 . S
C419 C421 1.479 . S
C419 H437 0.929 . S
C420 C417 1.424 . S
C420 C419 1.384 . S
C420 H438 0.928 . S
C421 C418 1.260 . S
C421 C419 1.479 . S
C422 C417 1.245 . S
C422 C418 1.477 . S
C422 H439 0.932 . S
C423 U406 2.882 . S
C423 C417 1.428 . S
C423 O426 1.301 . S
C423 O427 1.282 . S
O424 U406 2.441 . S
O424 C410 1.249 . S
O425 U406 2.420 . S
O425 C410 1.202 . S
O426 U406 2.455 . S
O426 C423 1.301 . S
O427 U406 2.449 . S
O427 C423 1.282 . S
H428 C401 0.931 . S
H429 C403 0.929 . S
H430 C404 0.930 . S
H431 C405 0.931 . S
H432 C412 0.932 . S
H433 C413 0.930 . S
H434 C414 0.929 . S
H435 C416 0.930 . S
H436 C418 0.932 . S
H437 C419 0.929 . S
H438 C420 0.928 . S
H439 C422 0.932 . S
C440 C441 1.268 1_554 S
C440 C445 1.479 . S
C440 C450 1.465 . S
C441 C440 1.268 1_556 S
C441 C443 1.338 . S
C441 H468 0.928 . S
C442 C443 1.395 1_554 S
C442 C444 1.320 . S
C443 C441 1.338 . S
C443 C442 1.395 1_556 S
C443 H469 0.929 . S
C444 C442 1.320 . S
C444 C445 1.405 . S
C444 H470 0.930 . S
C445 C440 1.479 . S
C445 C444 1.405 . S
C445 H471 0.931 . S
U446 O447 2.454 . S
U446 O448 2.458 . S
U446 C449 2.984 . S
U446 C450 2.847 . S
U446 C463 2.882 1_554 S
U446 O464 2.441 . S
U446 O465 2.420 . S
U446 O466 2.465 . S
U446 O467 2.449 1_554 S
O447 U446 2.454 . S
O447 C449 1.353 . S
O448 U446 2.458 . S
O448 C449 1.286 . S
C449 U446 2.984 . S
C449 O447 1.353 . S
C449 O448 1.286 . S
C449 C451 1.363 . S
C450 C440 1.465 . S
C450 U446 2.847 . S
C450 O464 1.249 . S
C450 O465 1.202 . S
C451 C449 1.363 . S
C451 C453 1.408 . S
C451 C456 1.342 . S
C452 C453 1.310 . S
C452 C455 1.461 . S
C452 H472 0.932 . S
C453 C451 1.408 . S
C453 C452 1.310 . S
C453 H473 0.930 . S
C454 C455 1.474 . S
C454 C456 1.285 . S
C454 H474 0.929 . S
C455 C452 1.461 . S
C455 C454 1.474 . S
C456 C451 1.342 . S
C456 C454 1.285 . S
C456 H475 0.930 . S
C457 C460 1.424 . S
C457 C462 1.245 . S
C457 C463 1.428 . S
C458 C461 1.260 . S
C458 C462 1.477 . S
C458 H476 0.932 . S
C459 C460 1.384 . S
C459 C461 1.479 . S
C459 H477 0.929 . S
C460 C457 1.424 . S
C460 C459 1.384 . S
C460 H478 0.928 . S
C461 C458 1.260 . S
C461 C459 1.479 . S
C462 C457 1.245 . S
C462 C458 1.477 . S
C462 H479 0.932 . S
C463 U446 2.882 1_556 S
C463 C457 1.428 . S
C463 O466 1.284 1_556 S
C463 O467 1.282 . S
O464 U446 2.441 . S
O464 C450 1.249 . S
O465 U446 2.420 . S
O465 C450 1.202 . S
O466 U446 2.465 . S
O466 C463 1.284 1_554 S
O467 U446 2.449 1_556 S
O467 C463 1.282 . S
H468 C441 0.928 . S
H469 C443 0.929 . S
H470 C444 0.930 . S
H471 C445 0.931 . S
H472 C452 0.932 . S
H473 C453 0.930 . S
H474 C454 0.929 . S
H475 C456 0.930 . S
H476 C458 0.932 . S
H477 C459 0.929 . S
H478 C460 0.928 . S
H479 C462 0.932 . S
C480 C481 1.264 . S
C480 C485 1.464 1_455 S
C480 C490 1.465 . S
C481 C480 1.264 . S
C481 C483 1.339 . S
C481 H508 0.931 . S
C482 C483 1.395 . S
C482 C484 1.279 1_455 S
C483 C481 1.339 . S
C483 C482 1.395 . S
C483 H509 0.929 . S
C484 C482 1.279 1_655 S
C484 C485 1.404 . S
C484 H510 0.975 . S
C485 C480 1.464 1_655 S
C485 C484 1.404 . S
C485 H511 0.944 . S
U486 O487 2.454 1_455 S
U486 O488 2.458 1_455 S
U486 C489 2.984 1_455 S
U486 C490 2.847 . S
U486 C503 2.882 . S
U486 O504 2.441 . S
U486 O505 2.420 . S
U486 O506 2.455 . S
U486 O507 2.449 . S
O487 U486 2.454 1_655 S
O487 C489 1.353 . S
O488 U486 2.458 1_655 S
O488 C489 1.286 . S
C489 U486 2.984 1_655 S
C489 O487 1.353 . S
C489 O488 1.286 . S
C489 C491 1.363 . S
C490 C480 1.465 . S
C490 U486 2.847 . S
C490 O504 1.249 . S
C490 O505 1.202 . S
C491 C489 1.363 . S
C491 C493 1.408 . S
C491 C496 1.342 . S
C492 C493 1.310 . S
C492 C495 1.461 . S
C492 H512 0.932 . S
C493 C491 1.408 . S
C493 C492 1.310 . S
C493 H513 0.930 . S
C494 C495 1.474 . S
C494 C496 1.285 . S
C494 H514 0.929 . S
C495 C492 1.461 . S
C495 C494 1.474 . S
C496 C491 1.342 . S
C496 C494 1.285 . S
C496 H515 0.930 . S
C497 C500 1.424 . S
C497 C502 1.245 . S
C497 C503 1.428 . S
C498 C501 1.260 . S
C498 C502 1.477 . S
C498 H516 0.932 . S
C499 C500 1.384 . S
C499 C501 1.479 . S
C499 H517 0.929 . S
C500 C497 1.424 . S
C500 C499 1.384 . S
C500 H518 0.928 . S
C501 C498 1.260 . S
C501 C499 1.479 . S
C502 C497 1.245 . S
C502 C498 1.477 . S
C502 H519 0.932 . S
C503 U486 2.882 . S
C503 C497 1.428 . S
C503 O506 1.301 . S
C503 O507 1.282 . S
O504 U486 2.441 . S
O504 C490 1.249 . S
O505 U486 2.420 . S
O505 C490 1.202 . S
O506 U486 2.455 . S
O506 C503 1.301 . S
O507 U486 2.449 . S
O507 C503 1.282 . S
H508 C481 0.931 . S
H509 C483 0.929 . S
H510 C484 0.975 . S
H511 C485 0.944 . S
H512 C492 0.932 . S
H513 C493 0.930 . S
H514 C494 0.929 . S
H515 C496 0.930 . S
H516 C498 0.932 . S
H517 C499 0.929 . S
H518 C500 0.928 . S
H519 C502 0.932 . S
C520 C521 1.264 . S
C520 C525 1.479 . S
C520 C530 1.465 . S
C521 C520 1.264 . S
C521 C523 1.339 . S
C521 H548 0.931 . S
C522 C523 1.395 . S
C522 C524 1.320 . S
C523 C521 1.339 . S
C523 C522 1.395 . S
C523 H549 0.929 . S
C524 C522 1.320 . S
C524 C525 1.405 . S
C524 H550 0.930 . S
C525 C520 1.479 . S
C525 C524 1.405 . S
C525 H551 0.931 . S
U526 O527 2.454 . S
U526 O528 2.458 . S
U526 C529 2.984 . S
U526 C530 2.847 . S
U526 C543 2.882 . S
U526 O544 2.441 . S
U526 O545 2.420 . S
U526 O546 2.455 . S
U526 O547 2.449 . S
O527 U526 2.454 . S
O527 C529 1.353 . S
O528 U526 2.458 . S
O528 C529 1.286 . S
C529 U526 2.984 . S
C529 O527 1.353 . S
C529 O528 1.286 . S
C529 C531 1.363 . S
C530 C520 1.465 . S
C530 U526 2.847 . S
C530 O544 1.249 . S
C530 O545 1.202 . S
C531 C529 1.363 . S
C531 C533 1.408 . S
C531 C536 1.342 . S
C532 C533 1.310 . S
C532 C535 1.461 . S
C532 H552 0.932 . S
C533 C531 1.408 . S
C533 C532 1.310 . S
C533 H553 0.930 . S
C534 C535 1.474 . S
C534 C536 1.285 . S
C534 H554 0.929 . S
C535 C532 1.461 . S
C535 C534 1.474 . S
C536 C531 1.342 . S
C536 C534 1.285 . S
C536 H555 0.930 . S
C537 C540 1.424 . S
C537 C542 1.245 . S
C537 C543 1.428 . S
C538 C541 1.260 . S
C538 C542 1.477 . S
C538 H556 0.932 . S
C539 C540 1.384 . S
C539 C541 1.479 . S
C539 H557 0.929 . S
C540 C537 1.424 . S
C540 C539 1.384 . S
C540 H558 0.928 . S
C541 C538 1.260 . S
C541 C539 1.479 . S
C542 C537 1.245 . S
C542 C538 1.477 . S
C542 H559 0.932 . S
C543 U526 2.882 . S
C543 C537 1.428 . S
C543 O546 1.301 . S
C543 O547 1.282 . S
O544 U526 2.441 . S
O544 C530 1.249 . S
O545 U526 2.420 . S
O545 C530 1.202 . S
O546 U526 2.455 . S
O546 C543 1.301 . S
O547 U526 2.449 . S
O547 C543 1.282 . S
H548 C521 0.931 . S
H549 C523 0.929 . S
H550 C524 0.930 . S
H551 C525 0.931 . S
H552 C532 0.932 . S
H553 C533 0.930 . S
H554 C534 0.929 . S
H555 C536 0.930 . S
H556 C538 0.932 . S
H557 C539 0.929 . S
H558 C540 0.928 . S
H559 C542 0.932 . S
C560 C561 1.264 . S
C560 C565 1.479 . S
C560 C570 1.465 . S
C561 C560 1.264 . S
C561 C563 1.339 . S
C561 H588 0.931 . S
C562 C563 1.395 . S
C562 C564 1.320 . S
C563 C561 1.339 . S
C563 C562 1.395 . S
C563 H589 0.929 . S
C564 C562 1.320 . S
C564 C565 1.405 . S
C564 H590 0.930 . S
C565 C560 1.479 . S
C565 C564 1.405 . S
C565 H591 0.931 . S
U566 O567 2.454 . S
U566 O568 2.458 . S
U566 C569 2.984 . S
U566 C570 2.847 . S
U566 C583 2.882 . S
U566 O584 2.441 . S
U566 O585 2.420 . S
U566 O586 2.455 . S
U566 O587 2.449 . S
O567 U566 2.454 . S
O567 C569 1.353 . S
O568 U566 2.458 . S
O568 C569 1.286 . S
C569 U566 2.984 . S
C569 O567 1.353 . S
C569 O568 1.286 . S
C569 C571 1.363 . S
C570 C560 1.465 . S
C570 U566 2.847 . S
C570 O584 1.249 . S
C570 O585 1.202 . S
C571 C569 1.363 . S
C571 C573 1.408 . S
C571 C576 1.342 . S
C572 C573 1.310 . S
C572 C575 1.461 . S
C572 H592 0.932 . S
C573 C571 1.408 . S
C573 C572 1.310 . S
C573 H593 0.930 . S
C574 C575 1.474 . S
C574 C576 1.285 . S
C574 H594 0.929 . S
C575 C572 1.461 . S
C575 C574 1.474 . S
C576 C571 1.342 . S
C576 C574 1.285 . S
C576 H595 0.930 . S
C577 C580 1.424 . S
C577 C582 1.245 . S
C577 C583 1.428 . S
C578 C581 1.260 . S
C578 C582 1.477 . S
C578 H596 0.932 . S
C579 C580 1.384 . S
C579 C581 1.479 . S
C579 H597 0.929 . S
C580 C577 1.424 . S
C580 C579 1.384 . S
C580 H598 0.928 . S
C581 C578 1.260 . S
C581 C579 1.479 . S
C582 C577 1.245 . S
C582 C578 1.477 . S
C582 H599 0.932 . S
C583 U566 2.882 . S
C583 C577 1.428 . S
C583 O586 1.301 . S
C583 O587 1.282 . S
O584 U566 2.441 . S
O584 C570 1.249 . S
O585 U566 2.420 . S
O585 C570 1.202 . S
O586 U566 2.455 . S
O586 C583 1.301 . S
O587 U566 2.449 . S
O587 C583 1.282 . S
H588 C561 0.931 . S
H589 C563 0.929 . S
H590 C564 0.930 . S
H591 C565 0.931 . S
H592 C572 0.932 . S
H593 C573 0.930 . S
H594 C574 0.929 . S
H595 C576 0.930 . S
H596 C578 0.932 . S
H597 C579 0.929 . S
H598 C580 0.928 . S
H599 C582 0.932 . S
C600 C601 1.264 . S
C600 C605 1.479 1_545 S
C600 C610 1.465 . S
C601 C600 1.264 . S
C601 C603 1.339 . S
C601 H628 0.931 . S
C602 C603 1.395 . S
C602 C604 1.320 1_545 S
C603 C601 1.339 . S
C603 C602 1.395 . S
C603 H629 0.929 . S
C604 C602 1.320 1_565 S
C604 C605 1.405 . S
C604 H630 0.930 . S
C605 C600 1.479 1_565 S
C605 C604 1.405 . S
C605 H631 0.931 . S
U606 O607 2.454 1_545 S
U606 O608 2.458 1_545 S
U606 C609 2.984 1_545 S
U606 C610 2.847 . S
U606 C623 2.882 . S
U606 O624 2.441 1_545 S
U606 O625 2.420 . S
U606 O626 2.455 . S
U606 O627 2.449 . S
O607 U606 2.454 1_565 S
O607 C609 1.353 . S
O608 U606 2.458 1_565 S
O608 C609 1.286 . S
C609 U606 2.984 1_565 S
C609 O607 1.353 . S
C609 O608 1.286 . S
C609 C611 1.363 . S
C610 C600 1.465 . S
C610 U606 2.847 . S
C610 O624 1.249 1_545 S
C610 O625 1.202 . S
C611 C609 1.363 . S
C611 C613 1.408 . S
C611 C616 1.342 . S
C612 C613 1.310 . S
C612 C615 1.461 . S
C612 H632 0.932 . S
C613 C611 1.408 . S
C613 C612 1.310 . S
C613 H633 0.930 . S
C614 C615 1.474 . S
C614 C616 1.285 . S
C614 H634 0.929 . S
C615 C612 1.461 . S
C615 C614 1.474 . S
C616 C611 1.342 . S
C616 C614 1.285 . S
C616 H635 0.930 . S
C617 C620 1.424 . S
C617 C622 1.245 . S
C617 C623 1.428 . S
C618 C621 1.260 . S
C618 C622 1.477 . S
C618 H636 0.932 . S
C619 C620 1.384 . S
C619 C621 1.479 . S
C619 H637 0.929 . S
C620 C617 1.424 . S
C620 C619 1.384 . S
C620 H638 0.928 . S
C621 C618 1.260 . S
C621 C619 1.479 . S
C622 C617 1.245 . S
C622 C618 1.477 . S
C622 H639 0.932 . S
C623 U606 2.882 . S
C623 C617 1.428 . S
C623 O626 1.301 . S
C623 O627 1.282 . S
O624 U606 2.441 1_565 S
O624 C610 1.249 1_565 S
O625 U606 2.420 . S
O625 C610 1.202 . S
O626 U606 2.455 . S
O626 C623 1.301 . S
O627 U606 2.449 . S
O627 C623 1.282 . S
H628 C601 0.931 . S
H629 C603 0.929 . S
H630 C604 0.930 . S
H631 C605 0.931 . S
H632 C612 0.932 . S
H633 C613 0.930 . S
H634 C614 0.929 . S
H635 C616 0.930 . S
H636 C618 0.932 . S
H637 C619 0.929 . S
H638 C620 0.928 . S
H639 C622 0.932 . S
C640 C641 1.264 . S
C640 C645 1.464 1_455 S
C640 C650 1.465 . S
C641 C640 1.264 . S
C641 C643 1.339 . S
C641 H668 0.931 . S
C642 C643 1.395 . S
C642 C644 1.279 1_455 S
C643 C641 1.339 . S
C643 C642 1.395 . S
C643 H669 0.929 . S
C644 C642 1.279 1_655 S
C644 C645 1.404 . S
C644 H670 0.974 . S
C645 C640 1.464 1_655 S
C645 C644 1.404 . S
C645 H671 0.945 . S
U646 O647 2.454 1_455 S
U646 O648 2.458 1_455 S
U646 C649 2.984 1_455 S
U646 C650 2.847 . S
U646 C663 2.882 . S
U646 O664 2.441 . S
U646 O665 2.420 . S
U646 O666 2.455 . S
U646 O667 2.449 . S
O647 U646 2.454 1_655 S
O647 C649 1.353 . S
O648 U646 2.458 1_655 S
O648 C649 1.286 . S
C649 U646 2.984 1_655 S
C649 O647 1.353 . S
C649 O648 1.286 . S
C649 C651 1.363 . S
C650 C640 1.465 . S
C650 U646 2.847 . S
C650 O664 1.249 . S
C650 O665 1.202 . S
C651 C649 1.363 . S
C651 C653 1.408 . S
C651 C656 1.342 . S
C652 C653 1.310 . S
C652 C655 1.461 . S
C652 H672 0.932 . S
C653 C651 1.408 . S
C653 C652 1.310 . S
C653 H673 0.930 . S
C654 C655 1.474 . S
C654 C656 1.285 . S
C654 H674 0.929 . S
C655 C652 1.461 . S
C655 C654 1.474 . S
C656 C651 1.342 . S
C656 C654 1.285 . S
C656 H675 0.930 . S
C657 C660 1.424 . S
C657 C662 1.245 . S
C657 C663 1.428 . S
C658 C661 1.260 . S
C658 C662 1.477 . S
C658 H676 0.932 . S
C659 C660 1.384 . S
C659 C661 1.479 . S
C659 H677 0.929 . S
C660 C657 1.424 . S
C660 C659 1.384 . S
C660 H678 0.928 . S
C661 C658 1.260 . S
C661 C659 1.479 . S
C662 C657 1.245 . S
C662 C658 1.477 . S
C662 H679 0.932 . S
C663 U646 2.882 . S
C663 C657 1.428 . S
C663 O666 1.301 . S
C663 O667 1.282 . S
O664 U646 2.441 . S
O664 C650 1.249 . S
O665 U646 2.420 . S
O665 C650 1.202 . S
O666 U646 2.455 . S
O666 C663 1.301 . S
O667 U646 2.449 . S
O667 C663 1.282 . S
H668 C641 0.931 . S
H669 C643 0.929 . S
H670 C644 0.974 . S
H671 C645 0.945 . S
H672 C652 0.932 . S
H673 C653 0.930 . S
H674 C654 0.929 . S
H675 C656 0.930 . S
H676 C658 0.932 . S
H677 C659 0.929 . S
H678 C660 0.928 . S
H679 C662 0.932 . S
C680 C681 1.264 . S
C680 C685 1.479 . S
C680 C690 1.465 . S
C681 C680 1.264 . S
C681 C683 1.339 . S
C681 H708 0.931 . S
C682 C683 1.395 . S
C682 C684 1.320 . S
C683 C681 1.339 . S
C683 C682 1.395 . S
C683 H709 0.929 . S
C684 C682 1.320 . S
C684 C685 1.405 . S
C684 H710 0.930 . S
C685 C680 1.479 . S
C685 C684 1.405 . S
C685 H711 0.931 . S
U686 O687 2.454 . S
U686 O688 2.458 . S
U686 C689 2.984 . S
U686 C690 2.847 . S
U686 C703 2.882 . S
U686 O704 2.441 . S
U686 O705 2.420 . S
U686 O706 2.455 . S
U686 O707 2.449 . S
O687 U686 2.454 . S
O687 C689 1.353 . S
O688 U686 2.458 . S
O688 C689 1.286 . S
C689 U686 2.984 . S
C689 O687 1.353 . S
C689 O688 1.286 . S
C689 C691 1.363 . S
C690 C680 1.465 . S
C690 U686 2.847 . S
C690 O704 1.249 . S
C690 O705 1.202 . S
C691 C689 1.363 . S
C691 C693 1.408 . S
C691 C696 1.342 . S
C692 C693 1.310 . S
C692 C695 1.461 . S
C692 H712 0.932 . S
C693 C691 1.408 . S
C693 C692 1.310 . S
C693 H713 0.930 . S
C694 C695 1.474 . S
C694 C696 1.285 . S
C694 H714 0.929 . S
C695 C692 1.461 . S
C695 C694 1.474 . S
C696 C691 1.342 . S
C696 C694 1.285 . S
C696 H715 0.930 . S
C697 C700 1.424 . S
C697 C702 1.245 . S
C697 C703 1.428 . S
C698 C701 1.260 . S
C698 C702 1.477 . S
C698 H716 0.932 . S
C699 C700 1.384 . S
C699 C701 1.479 . S
C699 H717 0.929 . S
C700 C697 1.424 . S
C700 C699 1.384 . S
C700 H718 0.928 . S
C701 C698 1.260 . S
C701 C699 1.479 . S
C702 C697 1.245 . S
C702 C698 1.477 . S
C702 H719 0.932 . S
C703 U686 2.882 . S
C703 C697 1.428 . S
C703 O706 1.301 . S
C703 O707 1.282 . S
O704 U686 2.441 . S
O704 C690 1.249 . S
O705 U686 2.420 . S
O705 C690 1.202 . S
O706 U686 2.455 . S
O706 C703 1.301 . S
O707 U686 2.449 . S
O707 C703 1.282 . S
H708 C681 0.931 . S
H709 C683 0.929 . S
H710 C684 0.930 . S
H711 C685 0.931 . S
H712 C692 0.932 . S
H713 C693 0.930 . S
H714 C694 0.929 . S
H715 C696 0.930 . S
H716 C698 0.932 . S
H717 C699 0.929 . S
H718 C700 0.928 . S
H719 C702 0.932 . S
C720 C721 1.264 . S
C720 C725 1.479 . S
C720 C730 1.465 . S
C721 C720 1.264 . S
C721 C723 1.339 . S
C721 H748 0.931 . S
C722 C723 1.395 . S
C722 C724 1.320 . S
C723 C721 1.339 . S
C723 C722 1.395 . S
C723 H749 0.929 . S
C724 C722 1.320 . S
C724 C725 1.405 . S
C724 H750 0.930 . S
C725 C720 1.479 . S
C725 C724 1.405 . S
C725 H751 0.931 . S
U726 O727 2.454 . S
U726 O728 2.458 . S
U726 C729 2.984 . S
U726 C730 2.847 . S
U726 C743 2.882 . S
U726 O744 2.441 . S
U726 O745 2.420 . S
U726 O746 2.455 . S
U726 O747 2.449 . S
O727 U726 2.454 . S
O727 C729 1.353 . S
O728 U726 2.458 . S
O728 C729 1.286 . S
C729 U726 2.984 . S
C729 O727 1.353 . S
C729 O728 1.286 . S
C729 C731 1.363 . S
C730 C720 1.465 . S
C730 U726 2.847 . S
C730 O744 1.249 . S
C730 O745 1.202 . S
C731 C729 1.363 . S
C731 C733 1.408 . S
C731 C736 1.342 . S
C732 C733 1.310 . S
C732 C735 1.461 . S
C732 H752 0.932 . S
C733 C731 1.408 . S
C733 C732 1.310 . S
C733 H753 0.930 . S
C734 C735 1.474 . S
C734 C736 1.285 . S
C734 H754 0.929 . S
C735 C732 1.461 . S
C735 C734 1.474 . S
C736 C731 1.342 . S
C736 C734 1.285 . S
C736 H755 0.930 . S
C737 C740 1.424 . S
C737 C742 1.245 . S
C737 C743 1.428 . S
C738 C741 1.260 . S
C738 C742 1.477 . S
C738 H756 0.932 . S
C739 C740 1.384 . S
C739 C741 1.479 . S
C739 H757 0.929 . S
C740 C737 1.424 . S
C740 C739 1.384 . S
C740 H758 0.928 . S
C741 C738 1.260 . S
C741 C739 1.479 . S
C742 C737 1.245 . S
C742 C738 1.477 . S
C742 H759 0.932 . S
C743 U726 2.882 . S
C743 C737 1.428 . S
C743 O746 1.301 . S
C743 O747 1.282 . S
O744 U726 2.441 . S
O744 C730 1.249 . S
O745 U726 2.420 . S
O745 C730 1.202 . S
O746 U726 2.455 . S
O746 C743 1.301 . S
O747 U726 2.449 . S
O747 C743 1.282 . S
H748 C721 0.931 . S
H749 C723 0.929 . S
H750 C724 0.930 . S
H751 C725 0.931 . S
H752 C732 0.932 . S
H753 C733 0.930 . S
H754 C734 0.929 . S
H755 C736 0.930 . S
H756 C738 0.932 . S
H757 C739 0.929 . S
H758 C740 0.928 . S
H759 C742 0.932 . S
C760 C761 1.264 . S
C760 C765 1.479 . S
C760 C770 1.465 . S
C761 C760 1.264 . S
C761 C763 1.339 . S
C761 H788 0.931 . S
C762 C763 1.395 . S
C762 C764 1.320 . S
C763 C761 1.339 . S
C763 C762 1.395 . S
C763 H789 0.929 . S
C764 C762 1.320 . S
C764 C765 1.405 . S
C764 H790 0.930 . S
C765 C760 1.479 . S
C765 C764 1.405 . S
C765 H791 0.931 . S
U766 O767 2.454 . S
U766 O768 2.458 . S
U766 C769 2.984 . S
U766 C770 2.847 1_545 S
U766 C783 2.882 . S
U766 O784 2.441 . S
U766 O785 2.420 1_545 S
U766 O786 2.455 . S
U766 O787 2.449 . S
O767 U766 2.454 . S
O767 C769 1.353 . S
O768 U766 2.458 . S
O768 C769 1.286 . S
C769 U766 2.984 . S
C769 O767 1.353 . S
C769 O768 1.286 . S
C769 C771 1.363 . S
C770 C760 1.465 . S
C770 U766 2.847 1_565 S
C770 O784 1.249 1_565 S
C770 O785 1.202 . S
C771 C769 1.363 . S
C771 C773 1.408 . S
C771 C776 1.342 . S
C772 C773 1.310 . S
C772 C775 1.461 . S
C772 H792 0.932 . S
C773 C771 1.408 . S
C773 C772 1.310 . S
C773 H793 0.930 . S
C774 C775 1.474 . S
C774 C776 1.285 . S
C774 H794 0.929 . S
C775 C772 1.461 . S
C775 C774 1.474 . S
C776 C771 1.342 . S
C776 C774 1.285 . S
C776 H795 0.930 . S
C777 C780 1.424 . S
C777 C782 1.245 . S
C777 C783 1.428 . S
C778 C781 1.260 . S
C778 C782 1.477 . S
C778 H796 0.932 . S
C779 C780 1.390 . S
C779 C781 1.508 . S
C779 H797 0.896 1_545 S
C780 C777 1.424 . S
C780 C779 1.390 . S
C780 H798 0.928 1_545 S
C781 C778 1.260 . S
C781 C779 1.508 . S
C782 C777 1.245 . S
C782 C778 1.477 . S
C782 H799 0.932 . S
C783 U766 2.882 . S
C783 C777 1.428 . S
C783 O786 1.301 . S
C783 O787 1.282 . S
O784 U766 2.441 . S
O784 C770 1.249 1_545 S
O785 U766 2.420 1_565 S
O785 C770 1.202 . S
O786 U766 2.455 . S
O786 C783 1.301 . S
O787 U766 2.449 . S
O787 C783 1.282 . S
H788 C761 0.931 . S
H789 C763 0.929 . S
H790 C764 0.930 . S
H791 C765 0.931 . S
H792 C772 0.932 . S
H793 C773 0.930 . S
H794 C774 0.929 . S
H795 C776 0.930 . S
H796 C778 0.932 . S
H797 C779 0.896 1_565 S
H798 C780 0.928 1_565 S
H799 C782 0.932 . S
C800 C801 1.272 . S
C800 C805 1.471 1_556 S
C800 C810 1.464 1_556 S
C801 C800 1.272 . S
C801 C803 1.339 . S
C801 H828 0.931 . S
C802 C803 1.395 1_554 S
C802 C804 1.320 . S
C803 C801 1.339 . S
C803 C802 1.395 1_556 S
C803 H829 0.929 . S
C804 C802 1.320 . S
C804 C805 1.405 . S
C804 H830 0.930 . S
C805 C800 1.471 1_554 S
C805 C804 1.405 . S
C805 H831 0.931 . S
U806 O807 2.519 . S
U806 O808 2.497 . S
U806 C809 3.041 . S
U806 C810 2.846 . S
U806 C823 2.831 1_554 S
U806 O824 2.467 . S
U806 O825 2.391 1_554 S
U806 O826 2.423 1_554 S
U806 O827 2.386 1_554 S
O807 U806 2.519 . S
O807 C809 1.353 . S
O808 U806 2.497 . S
O808 C809 1.286 . S
C809 U806 3.041 . S
C809 O807 1.353 . S
C809 O808 1.286 . S
C809 C811 1.363 . S
C810 C800 1.464 1_554 S
C810 U806 2.846 . S
C810 O824 1.263 . S
C810 O825 1.188 1_554 S
C811 C809 1.363 . S
C811 C813 1.408 . S
C811 C816 1.342 . S
C812 C813 1.310 . S
C812 C815 1.461 . S
C812 H832 0.932 . S
C813 C811 1.408 . S
C813 C812 1.310 . S
C813 H833 0.930 . S
C814 C815 1.474 . S
C814 C816 1.285 . S
C814 H834 0.929 . S
C815 C812 1.461 . S
C815 C814 1.474 . S
C816 C811 1.342 . S
C816 C814 1.285 . S
C816 H835 0.930 . S
C817 C820 1.424 . S
C817 C822 1.245 . S
C817 C823 1.428 . S
C818 C821 1.260 . S
C818 C822 1.477 . S
C818 H836 0.932 . S
C819 C820 1.384 . S
C819 C821 1.479 . S
C819 H837 0.929 . S
C820 C817 1.424 . S
C820 C819 1.384 . S
C820 H838 0.928 . S
C821 C818 1.260 . S
C821 C819 1.479 . S
C822 C817 1.245 . S
C822 C818 1.477 . S
C822 H839 0.932 . S
C823 U806 2.831 1_556 S
C823 C817 1.428 . S
C823 O826 1.301 . S
C823 O827 1.282 . S
O824 U806 2.467 . S
O824 C810 1.263 . S
O825 U806 2.391 1_556 S
O825 C810 1.188 1_556 S
O826 U806 2.423 1_556 S
O826 C823 1.301 . S
O827 U806 2.386 1_556 S
O827 C823 1.282 . S
H828 C801 0.931 . S
H829 C803 0.929 . S
H830 C804 0.930 . S
H831 C805 0.931 . S
H832 C812 0.932 . S
H833 C813 0.930 . S
H834 C814 0.929 . S
H835 C816 0.930 . S
H836 C818 0.932 . S
H837 C819 0.929 . S
H838 C820 0.928 . S
H839 C822 0.932 . S
C840 C841 1.264 . S
C840 C845 1.479 . S
C840 C850 1.465 . S
C841 C840 1.264 . S
C841 C843 1.339 . S
C841 H868 0.931 . S
C842 C843 1.395 . S
C842 C844 1.320 . S
C843 C841 1.339 . S
C843 C842 1.395 . S
C843 H869 0.929 . S
C844 C842 1.320 . S
C844 C845 1.405 . S
C844 H870 0.930 . S
C845 C840 1.479 . S
C845 C844 1.405 . S
C845 H871 0.931 . S
U846 O847 2.454 . S
U846 O848 2.458 . S
U846 C849 2.984 . S
U846 C850 2.847 . S
U846 C863 2.882 . S
U846 O864 2.441 . S
U846 O865 2.420 . S
U846 O866 2.455 . S
U846 O867 2.449 . S
O847 U846 2.454 . S
O847 C849 1.353 . S
O848 U846 2.458 . S
O848 C849 1.286 . S
C849 U846 2.984 . S
C849 O847 1.353 . S
C849 O848 1.286 . S
C849 C851 1.363 . S
C850 C840 1.465 . S
C850 U846 2.847 . S
C850 O864 1.249 . S
C850 O865 1.202 . S
C851 C849 1.363 . S
C851 C853 1.408 . S
C851 C856 1.342 . S
C852 C853 1.310 . S
C852 C855 1.461 . S
C852 H872 0.932 . S
C853 C851 1.408 . S
C853 C852 1.310 . S
C853 H873 0.930 . S
C854 C855 1.474 . S
C854 C856 1.285 . S
C854 H874 0.929 . S
C855 C852 1.461 . S
C855 C854 1.474 . S
C856 C851 1.342 . S
C856 C854 1.285 . S
C856 H875 0.930 . S
C857 C860 1.424 . S
C857 C862 1.245 . S
C857 C863 1.428 . S
C858 C861 1.260 . S
C858 C862 1.477 . S
C858 H876 0.932 . S
C859 C860 1.384 . S
C859 C861 1.479 . S
C859 H877 0.929 . S
C860 C857 1.424 . S
C860 C859 1.384 . S
C860 H878 0.928 . S
C861 C858 1.260 . S
C861 C859 1.479 . S
C862 C857 1.245 . S
C862 C858 1.477 . S
C862 H879 0.932 . S
C863 U846 2.882 . S
C863 C857 1.428 . S
C863 O866 1.301 . S
C863 O867 1.282 . S
O864 U846 2.441 . S
O864 C850 1.249 . S
O865 U846 2.420 . S
O865 C850 1.202 . S
O866 U846 2.455 . S
O866 C863 1.301 . S
O867 U846 2.449 . S
O867 C863 1.282 . S
H868 C841 0.931 . S
H869 C843 0.929 . S
H870 C844 0.930 . S
H871 C845 0.931 . S
H872 C852 0.932 . S
H873 C853 0.930 . S
H874 C854 0.929 . S
H875 C856 0.930 . S
H876 C858 0.932 . S
H877 C859 0.929 . S
H878 C860 0.928 . S
H879 C862 0.932 . S
C880 C881 1.264 . S
C880 C885 1.479 . S
C880 C890 1.465 . S
C881 C880 1.264 . S
C881 C883 1.339 . S
C881 H908 0.931 . S
C882 C883 1.395 . S
C882 C884 1.320 . S
C883 C881 1.339 . S
C883 C882 1.395 . S
C883 H909 0.929 . S
C884 C882 1.320 . S
C884 C885 1.405 . S
C884 H910 0.930 . S
C885 C880 1.479 . S
C885 C884 1.405 . S
C885 H911 0.931 . S
U886 O887 2.454 . S
U886 O888 2.458 . S
U886 C889 2.984 . S
U886 C890 2.847 . S
U886 C903 2.882 . S
U886 O904 2.441 . S
U886 O905 2.420 . S
U886 O906 2.455 . S
U886 O907 2.449 . S
O887 U886 2.454 . S
O887 C889 1.353 . S
O888 U886 2.458 . S
O888 C889 1.286 . S
C889 U886 2.984 . S
C889 O887 1.353 . S
C889 O888 1.286 . S
C889 C891 1.363 . S
C890 C880 1.465 . S
C890 U886 2.847 . S
C890 O904 1.249 . S
C890 O905 1.202 . S
C891 C889 1.363 . S
C891 C893 1.408 . S
C891 C896 1.342 . S
C892 C893 1.310 . S
C892 C895 1.461 . S
C892 H912 0.932 . S
C893 C891 1.408 . S
C893 C892 1.310 . S
C893 H913 0.930 . S
C894 C895 1.474 . S
C894 C896 1.285 . S
C894 H914 0.929 . S
C895 C892 1.461 . S
C895 C894 1.474 . S
C896 C891 1.342 . S
C896 C894 1.285 . S
C896 H915 0.930 . S
C897 C900 1.424 . S
C897 C902 1.245 . S
C897 C903 1.428 . S
C898 C901 1.260 . S
C898 C902 1.477 . S
C898 H916 0.932 . S
C899 C900 1.384 . S
C899 C901 1.479 . S
C899 H917 0.929 . S
C900 C897 1.424 . S
C900 C899 1.384 . S
C900 H918 0.928 . S
C901 C898 1.260 . S
C901 C899 1.479 . S
C902 C897 1.245 . S
C902 C898 1.477 . S
C902 H919 0.932 . S
C903 U886 2.882 . S
C903 C897 1.428 . S
C903 O906 1.301 . S
C903 O907 1.282 . S
O904 U886 2.441 . S
O904 C890 1.249 . S
O905 U886 2.420 . S
O905 C890 1.202 . S
O906 U886 2.455 . S
O906 C903 1.301 . S
O907 U886 2.449 . S
O907 C903 1.282 . S
H908 C881 0.931 . S
H909 C883 0.929 . S
H910 C884 0.930 . S
H911 C885 0.931 . S
H912 C892 0.932 . S
H913 C893 0.930 . S
H914 C894 0.929 . S
H915 C896 0.930 . S
H916 C898 0.932 . S
H917 C899 0.929 . S
H918 C900 0.928 . S
H919 C902 0.932 . S
C920 C921 1.264 . S
C920 C925 1.479 . S
C920 C930 1.465 . S
C921 C920 1.264 . S
C921 C923 1.339 . S
C921 H948 0.931 . S
C922 C923 1.395 . S
C922 C924 1.320 . S
C923 C921 1.339 . S
C923 C922 1.395 . S
C923 H949 0.929 . S
C924 C922 1.320 . S
C924 C925 1.405 . S
C924 H950 0.930 . S
C925 C920 1.479 . S
C925 C924 1.405 . S
C925 H951 0.931 . S
U926 O927 2.454 . S
U926 O928 2.458 . S
U926 C929 2.984 . S
U926 C930 2.847 1_554 S
U926 C943 2.882 . S
U926 O944 2.441 1_554 S
U926 O945 2.420 1_554 S
U926 O946 2.455 . S
U926 O947 2.449 . S
O927 U926 2.454 . S
O927 C929 1.353 . S
O928 U926 2.458 . S
O928 C929 1.286 . S
C929 U926 2.984 . S
C929 O927 1.353 . S
C929 O928 1.286 . S
C929 C931 1.363 . S
C930 C920 1.465 . S
C930 U926 2.847 1_556 S
C930 O944 1.249 . S
C930 O945 1.202 . S
C931 C929 1.363 . S
C931 C933 1.408 . S
C931 C936 1.342 . S
C932 C933 1.310 . S
C932 C935 1.461 . S
C932 H952 0.932 . S
C933 C931 1.408 . S
C933 C932 1.310 . S
C933 H953 0.930 . S
C934 C935 1.474 . S
C934 C936 1.285 . S
C934 H954 0.929 . S
C935 C932 1.461 . S
C935 C934 1.474 . S
C936 C931 1.342 . S
C936 C934 1.285 . S
C936 H955 0.930 . S
C937 C940 1.424 1_554 S
C937 C942 1.245 . S
C937 C943 1.428 . S
C938 C941 1.260 . S
C938 C942 1.477 . S
C938 H956 0.932 . S
C939 C940 1.384 . S
C939 C941 1.479 1_556 S
C939 H957 0.929 . S
C940 C937 1.424 1_556 S
C940 C939 1.384 . S
C940 H958 0.928 . S
C941 C938 1.260 . S
C941 C939 1.479 1_554 S
C942 C937 1.245 . S
C942 C938 1.477 . S
C942 H959 0.932 . S
C943 U926 2.882 . S
C943 C937 1.428 . S
C943 O946 1.301 . S
C943 O947 1.282 . S
O944 U926 2.441 1_556 S
O944 C930 1.249 . S
O945 U926 2.420 1_556 S
O945 C930 1.202 . S
O946 U926 2.455 . S
O946 C943 1.301 . S
O947 U926 2.449 . S
O947 C943 1.282 . S
H948 C921 0.931 . S
H949 C923 0.929 . S
H950 C924 0.930 . S
H951 C925 0.931 . S
H952 C932 0.932 . S
H953 C933 0.930 . S
H954 C934 0.929 . S
H955 C936 0.930 . S
H956 C938 0.932 . S
H957 C939 0.929 . S
H958 C940 0.928 . S
H959 C942 0.932 . S
C960 C961 1.363 . S
C960 C966 1.379 . S
C960 N968 1.356 . S
C961 C960 1.363 . S
C961 C967 1.363 . S
C962 C963 1.363 . S
C962 C967 1.379 . S
C962 N969 1.356 . S
C963 C962 1.363 . S
C963 C966 1.363 . S
N964 C966 1.356 . S
N964 H976 0.984 . S
N964 H977 0.985 . S
N965 C967 1.356 . S
N965 H970 0.984 . S
N965 H971 0.985 . S
C966 C960 1.379 . S
C966 C963 1.363 . S
C966 N964 1.356 . S
C967 C961 1.363 . S
C967 C962 1.379 . S
C967 N965 1.356 . S
N968 C960 1.356 . S
N968 H974 0.984 . S
N968 H975 0.984 . S
N969 C962 1.356 . S
N969 H972 0.984 . S
N969 H973 0.985 . S
H970 N965 0.984 . S
H971 N965 0.985 . S
H972 N969 0.984 . S
H973 N969 0.985 . S
H974 N968 0.984 . S
H975 N968 0.984 . S
H976 N964 0.984 . S
H977 N964 0.985 . S
C978 C979 1.363 . S
C978 C984 1.379 . S
C978 N986 1.356 . S
C979 C978 1.363 . S
C979 C985 1.363 . S
C980 C981 1.363 . S
C980 C985 1.379 . S
C980 N987 1.356 . S
C981 C980 1.363 . S
C981 C984 1.363 . S
N982 C984 1.356 . S
N982 H994 0.984 . S
N982 H995 0.985 . S
N983 C985 1.356 . S
N983 H988 0.984 . S
N983 H989 0.985 . S
C984 C978 1.379 . S
C984 C981 1.363 . S
C984 N982 1.356 . S
C985 C979 1.363 . S
C985 C980 1.379 . S
C985 N983 1.356 . S
N986 C978 1.356 . S
N986 H992 0.984 . S
N986 H993 0.984 . S
N987 C980 1.356 . S
N987 H990 0.984 . S
N987 H991 0.985 . S
H988 N983 0.984 . S
H989 N983 0.985 . S
H990 N987 0.984 . S
H991 N987 0.985 . S
H992 N986 0.984 . S
H993 N986 0.984 . S
H994 N982 0.984 . S
H995 N982 0.985 . S
C996 C997 1.363 . S
C996 C1002 1.379 . S
C996 N1004 1.356 . S
C997 C996 1.363 . S
C997 C1003 1.363 . S
C998 C999 1.363 . S
C998 C1003 1.379 . S
C998 N1005 1.356 . S
C999 C998 1.363 . S
C999 C1002 1.363 . S
N1000 C1002 1.356 . S
N1000 H1012 0.984 . S
N1000 H1013 0.985 . S
N1001 C1003 1.356 . S
N1001 H1006 0.984 . S
N1001 H1007 0.985 . S
C1002 C996 1.379 . S
C1002 C999 1.363 . S
C1002 N1000 1.356 . S
C1003 C997 1.363 . S
C1003 C998 1.379 . S
C1003 N1001 1.356 . S
N1004 C996 1.356 . S
N1004 H1010 0.984 . S
N1004 H1011 0.984 . S
N1005 C998 1.356 . S
N1005 H1008 0.984 . S
N1005 H1009 0.985 . S
H1006 N1001 0.984 . S
H1007 N1001 0.985 . S
H1008 N1005 0.984 . S
H1009 N1005 0.985 . S
H1010 N1004 0.984 . S
H1011 N1004 0.984 . S
H1012 N1000 0.984 . S
H1013 N1000 0.985 . S
C1014 C1015 1.363 . S
C1014 C1020 1.379 . S
C1014 N1022 1.356 . S
C1015 C1014 1.363 . S
C1015 C1021 1.363 . S
C1016 C1017 1.363 . S
C1016 C1021 1.379 . S
C1016 N1023 1.356 . S
C1017 C1016 1.363 . S
C1017 C1020 1.363 . S
N1018 C1020 1.356 . S
N1018 H1030 0.984 . S
N1018 H1031 0.991 . S
N1019 C1021 1.356 . S
N1019 H1024 0.984 . S
N1019 H1025 0.985 . S
C1020 C1014 1.379 . S
C1020 C1017 1.363 . S
C1020 N1018 1.356 . S
C1021 C1015 1.363 . S
C1021 C1016 1.379 . S
C1021 N1019 1.356 . S
N1022 C1014 1.356 . S
N1022 H1028 0.984 . S
N1022 H1029 0.984 . S
N1023 C1016 1.356 . S
N1023 H1026 0.984 . S
N1023 H1027 0.985 . S
H1024 N1019 0.984 . S
H1025 N1019 0.985 . S
H1026 N1023 0.984 . S
H1027 N1023 0.985 . S
H1028 N1022 0.984 . S
H1029 N1022 0.984 . S
H1030 N1018 0.984 . S
H1031 N1018 0.991 . S
C1032 C1033 1.363 1_556 S
C1032 C1038 1.379 . S
C1032 N1040 1.356 . S
C1033 C1032 1.363 1_554 S
C1033 C1039 1.363 . S
C1034 C1035 1.363 . S
C1034 C1039 1.379 . S
C1034 N1041 1.356 . S
C1035 C1034 1.363 . S
C1035 C1038 1.363 1_554 S
N1036 C1038 1.356 . S
N1036 H1048 0.984 . S
N1036 H1049 0.985 . S
N1037 C1039 1.356 . S
N1037 H1042 0.984 . S
N1037 H1043 0.985 . S
C1038 C1032 1.379 . S
C1038 C1035 1.363 1_556 S
C1038 N1036 1.356 . S
C1039 C1033 1.363 . S
C1039 C1034 1.379 . S
C1039 N1037 1.356 . S
N1040 C1032 1.356 . S
N1040 H1046 0.984 . S
N1040 H1047 0.984 . S
N1041 C1034 1.356 . S
N1041 H1044 0.984 . S
N1041 H1045 0.985 . S
H1042 N1037 0.984 . S
H1043 N1037 0.985 . S
H1044 N1041 0.984 . S
H1045 N1041 0.985 . S
H1046 N1040 0.984 . S
H1047 N1040 0.984 . S
H1048 N1036 0.984 . S
H1049 N1036 0.985 . S
C1050 C1051 1.363 . S
C1050 C1056 1.379 . S
C1050 N1058 1.356 . S
C1051 C1050 1.363 . S
C1051 C1057 1.363 . S
C1052 C1053 1.363 . S
C1052 C1057 1.379 . S
C1052 N1059 1.356 . S
C1053 C1052 1.363 . S
C1053 C1056 1.363 . S
N1054 C1056 1.356 . S
N1054 H1066 0.984 . S
N1054 H1067 0.985 . S
N1055 C1057 1.356 . S
N1055 H1060 0.984 . S
N1055 H1061 0.985 . S
C1056 C1050 1.379 . S
C1056 C1053 1.363 . S
C1056 N1054 1.356 . S
C1057 C1051 1.363 . S
C1057 C1052 1.379 . S
C1057 N1055 1.356 . S
N1058 C1050 1.356 . S
N1058 H1064 0.984 . S
N1058 H1065 0.984 . S
N1059 C1052 1.356 . S
N1059 H1062 0.984 . S
N1059 H1063 0.985 . S
H1060 N1055 0.984 . S
H1061 N1055 0.985 . S
H1062 N1059 0.984 . S
H1063 N1059 0.985 . S
H1064 N1058 0.984 . S
H1065 N1058 0.984 . S
H1066 N1054 0.984 . S
H1067 N1054 0.985 . S
C1068 C1069 1.363 . S
C1068 C1074 1.379 . S
C1068 N1076 1.356 . S
C1069 C1068 1.363 . S
C1069 C1075 1.363 . S
C1070 C1071 1.363 . S
C1070 C1075 1.379 . S
C1070 N1077 1.356 . S
C1071 C1070 1.363 . S
C1071 C1074 1.363 . S
N1072 C1074 1.356 . S
N1072 H1084 0.984 . S
N1072 H1085 0.985 . S
N1073 C1075 1.356 . S
N1073 H1078 0.984 . S
N1073 H1079 0.996 . S
C1074 C1068 1.379 . S
C1074 C1071 1.363 . S
C1074 N1072 1.356 . S
C1075 C1069 1.363 . S
C1075 C1070 1.379 . S
C1075 N1073 1.356 . S
N1076 C1068 1.356 . S
N1076 H1082 0.984 . S
N1076 H1083 0.984 . S
N1077 C1070 1.356 . S
N1077 H1080 0.984 . S
N1077 H1081 0.996 . S
H1078 N1073 0.984 . S
H1079 N1073 0.996 . S
H1080 N1077 0.984 . S
H1081 N1077 0.996 . S
H1082 N1076 0.984 . S
H1083 N1076 0.984 . S
H1084 N1072 0.984 . S
H1085 N1072 0.985 . S
C1086 C1087 1.363 . S
C1086 C1092 1.379 . S
C1086 N1094 1.356 . S
C1087 C1086 1.363 . S
C1087 C1093 1.363 . S
C1088 C1089 1.363 . S
C1088 C1093 1.379 . S
C1088 N1095 1.356 . S
C1089 C1088 1.363 . S
C1089 C1092 1.363 . S
N1090 C1092 1.356 . S
N1090 H1102 0.984 . S
N1090 H1103 0.985 . S
N1091 C1093 1.356 . S
N1091 H1096 0.984 . S
N1091 H1097 0.985 . S
C1092 C1086 1.379 . S
C1092 C1089 1.363 . S
C1092 N1090 1.356 . S
C1093 C1087 1.363 . S
C1093 C1088 1.379 . S
C1093 N1091 1.356 . S
N1094 C1086 1.356 . S
N1094 H1100 0.984 . S
N1094 H1101 0.984 . S
N1095 C1088 1.356 . S
N1095 H1098 0.984 . S
N1095 H1099 0.985 . S
H1096 N1091 0.984 . S
H1097 N1091 0.985 . S
H1098 N1095 0.984 . S
H1099 N1095 0.985 . S
H1100 N1094 0.984 . S
H1101 N1094 0.984 . S
H1102 N1090 0.984 . S
H1103 N1090 0.985 . S
C1104 C1105 1.363 . S
C1104 C1110 1.379 . S
C1104 N1112 1.356 . S
C1105 C1104 1.363 . S
C1105 C1111 1.363 . S
C1106 C1107 1.363 . S
C1106 C1111 1.379 . S
C1106 N1113 1.356 . S
C1107 C1106 1.363 . S
C1107 C1110 1.363 . S
N1108 C1110 1.356 . S
N1108 H1120 0.984 . S
N1108 H1121 0.985 . S
N1109 C1111 1.356 . S
N1109 H1114 0.984 . S
N1109 H1115 0.985 . S
C1110 C1104 1.379 . S
C1110 C1107 1.363 . S
C1110 N1108 1.356 . S
C1111 C1105 1.363 . S
C1111 C1106 1.379 . S
C1111 N1109 1.356 . S
N1112 C1104 1.356 . S
N1112 H1118 0.984 . S
N1112 H1119 0.984 . S
N1113 C1106 1.356 . S
N1113 H1116 0.984 . S
N1113 H1117 0.985 . S
H1114 N1109 0.984 . S
H1115 N1109 0.985 . S
H1116 N1113 0.984 . S
H1117 N1113 0.985 . S
H1118 N1112 0.984 . S
H1119 N1112 0.984 . S
H1120 N1108 0.984 . S
H1121 N1108 0.985 . S
C1122 C1123 1.363 . S
C1122 C1128 1.379 . S
C1122 N1130 1.356 . S
C1123 C1122 1.363 . S
C1123 C1129 1.363 1_545 S
C1124 C1125 1.363 1_565 S
C1124 C1129 1.379 . S
C1124 N1131 1.356 . S
C1125 C1124 1.363 1_545 S
C1125 C1128 1.363 . S
N1126 C1128 1.356 . S
N1126 H1138 0.984 . S
N1126 H1139 0.985 . S
N1127 C1129 1.356 . S
N1127 H1132 0.984 . S
N1127 H1133 0.985 . S
C1128 C1122 1.379 . S
C1128 C1125 1.363 . S
C1128 N1126 1.356 . S
C1129 C1123 1.363 1_565 S
C1129 C1124 1.379 . S
C1129 N1127 1.356 . S
N1130 C1122 1.356 . S
N1130 H1136 0.984 . S
N1130 H1137 0.984 . S
N1131 C1124 1.356 . S
N1131 H1134 0.984 . S
N1131 H1135 0.985 . S
H1132 N1127 0.984 . S
H1133 N1127 0.985 . S
H1134 N1131 0.984 . S
H1135 N1131 0.985 . S
H1136 N1130 0.984 . S
H1137 N1130 0.984 . S
H1138 N1126 0.984 . S
H1139 N1126 0.985 . S
C1140 C1141 1.363 . S
C1140 C1146 1.379 . S
C1140 N1148 1.356 . S
C1141 C1140 1.363 . S
C1141 C1147 1.363 1_554 S
C1142 C1143 1.363 1_556 S
C1142 C1147 1.379 . S
C1142 N1149 1.356 . S
C1143 C1142 1.363 1_554 S
C1143 C1146 1.363 . S
N1144 C1146 1.356 . S
N1144 H1156 0.984 . S
N1144 H1157 0.985 . S
N1145 C1147 1.356 . S
N1145 H1150 0.984 . S
N1145 H1151 0.985 . S
C1146 C1140 1.379 . S
C1146 C1143 1.363 . S
C1146 N1144 1.356 . S
C1147 C1141 1.363 1_556 S
C1147 C1142 1.379 . S
C1147 N1145 1.356 . S
N1148 C1140 1.356 . S
N1148 H1154 0.984 . S
N1148 H1155 0.984 . S
N1149 C1142 1.356 . S
N1149 H1152 0.984 . S
N1149 H1153 0.985 . S
H1150 N1145 0.984 . S
H1151 N1145 0.985 . S
H1152 N1149 0.984 . S
H1153 N1149 0.985 . S
H1154 N1148 0.984 . S
H1155 N1148 0.984 . S
H1156 N1144 0.984 . S
H1157 N1144 0.985 . S
C1158 C1159 1.363 . S
C1158 C1164 1.379 . S
C1158 N1166 1.356 . S
C1159 C1158 1.363 . S
C1159 C1165 1.363 . S
C1160 C1161 1.363 . S
C1160 C1165 1.379 . S
C1160 N1167 1.356 . S
C1161 C1160 1.363 . S
C1161 C1164 1.363 . S
N1162 C1164 1.356 . S
N1162 H1174 0.984 . S
N1162 H1175 0.985 . S
N1163 C1165 1.356 . S
N1163 H1168 0.984 . S
N1163 H1169 0.985 . S
C1164 C1158 1.379 . S
C1164 C1161 1.363 . S
C1164 N1162 1.356 . S
C1165 C1159 1.363 . S
C1165 C1160 1.379 . S
C1165 N1163 1.356 . S
N1166 C1158 1.356 . S
N1166 H1172 0.984 . S
N1166 H1173 0.984 . S
N1167 C1160 1.356 . S
N1167 H1170 0.984 . S
N1167 H1171 0.985 . S
H1168 N1163 0.984 . S
H1169 N1163 0.985 . S
H1170 N1167 0.984 . S
H1171 N1167 0.985 . S
H1172 N1166 0.984 . S
H1173 N1166 0.984 . S
H1174 N1162 0.984 . S
H1175 N1162 0.985 . S
C1176 C1177 1.363 . S
C1176 C1182 1.379 . S
C1176 N1184 1.356 . S
C1177 C1176 1.363 . S
C1177 C1183 1.363 . S
C1178 C1179 1.363 . S
C1178 C1183 1.379 . S
C1178 N1185 1.356 . S
C1179 C1178 1.363 . S
C1179 C1182 1.363 . S
N1180 C1182 1.356 . S
N1180 H1192 0.984 . S
N1180 H1193 0.985 . S
N1181 C1183 1.356 . S
N1181 H1186 0.984 . S
N1181 H1187 0.985 . S
C1182 C1176 1.379 . S
C1182 C1179 1.363 . S
C1182 N1180 1.356 . S
C1183 C1177 1.363 . S
C1183 C1178 1.379 . S
C1183 N1181 1.356 . S
N1184 C1176 1.356 . S
N1184 H1190 0.984 . S
N1184 H1191 0.984 . S
N1185 C1178 1.356 . S
N1185 H1188 0.984 . S
N1185 H1189 0.985 . S
H1186 N1181 0.984 . S
H1187 N1181 0.985 . S
H1188 N1185 0.984 . S
H1189 N1185 0.985 . S
H1190 N1184 0.984 . S
H1191 N1184 0.984 . S
H1192 N1180 0.984 . S
H1193 N1180 0.985 . S
C1194 C1195 1.363 . S
C1194 C1200 1.379 . S
C1194 N1202 1.356 . S
C1195 C1194 1.363 . S
C1195 C1201 1.363 . S
C1196 C1197 1.363 . S
C1196 C1201 1.379 . S
C1196 N1203 1.356 . S
C1197 C1196 1.363 . S
C1197 C1200 1.363 . S
N1198 C1200 1.356 . S
N1198 H1210 0.984 . S
N1198 H1211 0.985 . S
N1199 C1201 1.356 . S
N1199 H1204 0.984 . S
N1199 H1205 0.985 . S
C1200 C1194 1.379 . S
C1200 C1197 1.363 . S
C1200 N1198 1.356 . S
C1201 C1195 1.363 . S
C1201 C1196 1.379 . S
C1201 N1199 1.356 . S
N1202 C1194 1.356 . S
N1202 H1208 0.984 . S
N1202 H1209 0.984 . S
N1203 C1196 1.356 . S
N1203 H1206 0.984 . S
N1203 H1207 0.985 . S
H1204 N1199 0.984 . S
H1205 N1199 0.985 . S
H1206 N1203 0.984 . S
H1207 N1203 0.985 . S
H1208 N1202 0.984 . S
H1209 N1202 0.984 . S
H1210 N1198 0.984 . S
H1211 N1198 0.985 . S
C1212 C1213 1.363 . S
C1212 C1218 1.379 . S
C1212 N1220 1.356 . S
C1213 C1212 1.363 . S
C1213 C1219 1.363 . S
C1214 C1215 1.363 . S
C1214 C1219 1.379 . S
C1214 N1221 1.356 . S
C1215 C1214 1.363 . S
C1215 C1218 1.363 . S
N1216 C1218 1.356 . S
N1216 H1228 0.984 . S
N1216 H1229 0.985 . S
N1217 C1219 1.356 . S
N1217 H1222 0.984 . S
N1217 H1223 0.985 . S
C1218 C1212 1.379 . S
C1218 C1215 1.363 . S
C1218 N1216 1.356 . S
C1219 C1213 1.363 . S
C1219 C1214 1.379 . S
C1219 N1217 1.356 . S
N1220 C1212 1.356 . S
N1220 H1226 0.984 . S
N1220 H1227 0.984 . S
N1221 C1214 1.356 . S
N1221 H1224 0.984 . S
N1221 H1225 0.985 . S
H1222 N1217 0.984 . S
H1223 N1217 0.985 . S
H1224 N1221 0.984 . S
H1225 N1221 0.985 . S
H1226 N1220 0.984 . S
H1227 N1220 0.984 . S
H1228 N1216 0.984 . S
H1229 N1216 0.985 . S
C1230 C1231 1.363 . S
C1230 C1236 1.379 . S
C1230 N1238 1.356 . S
C1231 C1230 1.363 . S
C1231 C1237 1.363 . S
C1232 C1233 1.363 . S
C1232 C1237 1.379 . S
C1232 N1239 1.356 . S
C1233 C1232 1.363 . S
C1233 C1236 1.363 . S
N1234 C1236 1.356 . S
N1234 H1246 0.984 . S
N1234 H1247 0.985 . S
N1235 C1237 1.356 . S
N1235 H1240 0.984 . S
N1235 H1241 0.985 . S
C1236 C1230 1.379 . S
C1236 C1233 1.363 . S
C1236 N1234 1.356 . S
C1237 C1231 1.363 . S
C1237 C1232 1.379 . S
C1237 N1235 1.356 . S
N1238 C1230 1.356 . S
N1238 H1244 0.984 . S
N1238 H1245 0.984 . S
N1239 C1232 1.356 . S
N1239 H1242 0.984 . S
N1239 H1243 0.985 . S
H1240 N1235 0.984 . S
H1241 N1235 0.985 . S
H1242 N1239 0.984 . S
H1243 N1239 0.985 . S
H1244 N1238 0.984 . S
H1245 N1238 0.984 . S
H1246 N1234 0.984 . S
H1247 N1234 0.985 . S
C1248 C1249 1.363 . S
C1248 C1254 1.379 . S
C1248 N1256 1.356 . S
C1249 C1248 1.363 . S
C1249 C1255 1.363 . S
C1250 C1251 1.363 . S
C1250 C1255 1.379 . S
C1250 N1257 1.356 . S
C1251 C1250 1.363 . S
C1251 C1254 1.363 . S
N1252 C1254 1.356 . S
N1252 H1264 0.984 . S
N1252 H1265 0.985 . S
N1253 C1255 1.356 . S
N1253 H1258 0.984 . S
N1253 H1259 0.985 . S
C1254 C1248 1.379 . S
C1254 C1251 1.363 . S
C1254 N1252 1.356 . S
C1255 C1249 1.363 . S
C1255 C1250 1.379 . S
C1255 N1253 1.356 . S
N1256 C1248 1.356 . S
N1256 H1262 0.984 . S
N1256 H1263 0.984 . S
N1257 C1250 1.356 . S
N1257 H1260 0.984 . S
N1257 H1261 0.985 . S
H1258 N1253 0.984 . S
H1259 N1253 0.985 . S
H1260 N1257 0.984 . S
H1261 N1257 0.985 . S
H1262 N1256 0.984 . S
H1263 N1256 0.984 . S
H1264 N1252 0.984 . S
H1265 N1252 0.985 . S
C1266 C1267 1.363 . S
C1266 C1272 1.379 . S
C1266 N1274 1.356 . S
C1267 C1266 1.363 . S
C1267 C1273 1.363 . S
C1268 C1269 1.363 . S
C1268 C1273 1.379 . S
C1268 N1275 1.356 . S
C1269 C1268 1.363 . S
C1269 C1272 1.363 . S
N1270 C1272 1.356 . S
N1270 H1282 0.984 . S
N1270 H1283 0.985 . S
N1271 C1273 1.356 . S
N1271 H1276 0.984 . S
N1271 H1277 0.985 . S
C1272 C1266 1.379 . S
C1272 C1269 1.363 . S
C1272 N1270 1.356 . S
C1273 C1267 1.363 . S
C1273 C1268 1.379 . S
C1273 N1271 1.356 . S
N1274 C1266 1.356 . S
N1274 H1280 0.984 . S
N1274 H1281 0.984 . S
N1275 C1268 1.356 . S
N1275 H1278 0.984 . S
N1275 H1279 0.985 . S
H1276 N1271 0.984 . S
H1277 N1271 0.985 . S
H1278 N1275 0.984 . S
H1279 N1275 0.985 . S
H1280 N1274 0.984 . S
H1281 N1274 0.984 . S
H1282 N1270 0.984 . S
H1283 N1270 0.985 . S
C1284 C1285 1.363 . S
C1284 C1290 1.379 . S
C1284 N1292 1.356 . S
C1285 C1284 1.363 . S
C1285 C1291 1.363 . S
C1286 C1287 1.363 . S
C1286 C1291 1.379 . S
C1286 N1293 1.356 . S
C1287 C1286 1.363 . S
C1287 C1290 1.363 . S
N1288 C1290 1.356 . S
N1288 H1300 0.984 . S
N1288 H1301 0.985 . S
N1289 C1291 1.356 . S
N1289 H1294 0.984 . S
N1289 H1295 0.985 . S
C1290 C1284 1.379 . S
C1290 C1287 1.363 . S
C1290 N1288 1.356 . S
C1291 C1285 1.363 . S
C1291 C1286 1.379 . S
C1291 N1289 1.356 . S
N1292 C1284 1.356 . S
N1292 H1298 0.984 . S
N1292 H1299 0.984 . S
N1293 C1286 1.356 . S
N1293 H1296 0.984 . S
N1293 H1297 0.985 . S
H1294 N1289 0.984 . S
H1295 N1289 0.985 . S
H1296 N1293 0.984 . S
H1297 N1293 0.985 . S
H1298 N1292 0.984 . S
H1299 N1292 0.984 . S
H1300 N1288 0.984 . S
H1301 N1288 0.985 . S
C1302 C1303 1.363 . S
C1302 C1308 1.379 . S
C1302 N1310 1.356 . S
C1303 C1302 1.363 . S
C1303 C1309 1.363 . S
C1304 C1305 1.363 . S
C1304 C1309 1.379 . S
C1304 N1311 1.356 . S
C1305 C1304 1.363 . S
C1305 C1308 1.363 . S
N1306 C1308 1.356 . S
N1306 H1318 0.984 . S
N1306 H1319 0.985 . S
N1307 C1309 1.356 . S
N1307 H1312 0.984 . S
N1307 H1313 0.985 . S
C1308 C1302 1.379 . S
C1308 C1305 1.363 . S
C1308 N1306 1.356 . S
C1309 C1303 1.363 . S
C1309 C1304 1.379 . S
C1309 N1307 1.356 . S
N1310 C1302 1.356 . S
N1310 H1316 0.984 . S
N1310 H1317 0.984 . S
N1311 C1304 1.356 . S
N1311 H1314 0.984 . S
N1311 H1315 0.985 . S
H1312 N1307 0.984 . S
H1313 N1307 0.985 . S
H1314 N1311 0.984 . S
H1315 N1311 0.985 . S
H1316 N1310 0.984 . S
H1317 N1310 0.984 . S
H1318 N1306 0.984 . S
H1319 N1306 0.985 . S
C1320 C1321 1.363 . S
C1320 C1326 1.379 . S
C1320 N1328 1.356 . S
C1321 C1320 1.363 . S
C1321 C1327 1.363 . S
C1322 C1323 1.363 . S
C1322 C1327 1.379 . S
C1322 N1329 1.356 . S
C1323 C1322 1.363 . S
C1323 C1326 1.363 . S
N1324 C1326 1.356 . S
N1324 H1336 0.984 . S
N1324 H1337 0.985 . S
N1325 C1327 1.356 . S
N1325 H1330 0.984 . S
N1325 H1331 0.985 . S
C1326 C1320 1.379 . S
C1326 C1323 1.363 . S
C1326 N1324 1.356 . S
C1327 C1321 1.363 . S
C1327 C1322 1.379 . S
C1327 N1325 1.356 . S
N1328 C1320 1.356 . S
N1328 H1334 0.984 . S
N1328 H1335 0.984 . S
N1329 C1322 1.356 . S
N1329 H1332 0.984 . S
N1329 H1333 0.985 . S
H1330 N1325 0.984 . S
H1331 N1325 0.985 . S
H1332 N1329 0.984 . S
H1333 N1329 0.985 . S
H1334 N1328 0.984 . S
H1335 N1328 0.984 . S
H1336 N1324 0.984 . S
H1337 N1324 0.985 . S
C1338 C1339 1.363 . S
C1338 C1344 1.379 . S
C1338 N1346 1.356 . S
C1339 C1338 1.363 . S
C1339 C1345 1.363 . S
C1340 C1341 1.363 . S
C1340 C1345 1.379 . S
C1340 N1347 1.356 . S
C1341 C1340 1.363 . S
C1341 C1344 1.363 . S
N1342 C1344 1.356 . S
N1342 H1354 0.984 . S
N1342 H1355 0.985 . S
N1343 C1345 1.356 . S
N1343 H1348 0.984 . S
N1343 H1349 0.985 . S
C1344 C1338 1.379 . S
C1344 C1341 1.363 . S
C1344 N1342 1.356 . S
C1345 C1339 1.363 . S
C1345 C1340 1.379 . S
C1345 N1343 1.356 . S
N1346 C1338 1.356 . S
N1346 H1352 0.984 . S
N1346 H1353 0.984 . S
N1347 C1340 1.356 . S
N1347 H1350 0.984 . S
N1347 H1351 0.985 . S
H1348 N1343 0.984 . S
H1349 N1343 0.985 . S
H1350 N1347 0.984 . S
H1351 N1347 0.985 . S
H1352 N1346 0.984 . S
H1353 N1346 0.984 . S
H1354 N1342 0.984 . S
H1355 N1342 0.985 . S
C1356 C1357 1.363 . S
C1356 C1362 1.379 . S
C1356 N1364 1.356 . S
C1357 C1356 1.363 . S
C1357 C1363 1.363 . S
C1358 C1359 1.363 . S
C1358 C1363 1.379 . S
C1358 N1365 1.356 . S
C1359 C1358 1.363 . S
C1359 C1362 1.363 . S
N1360 C1362 1.356 . S
N1360 H1372 0.984 . S
N1360 H1373 0.985 . S
N1361 C1363 1.356 . S
N1361 H1366 0.984 . S
N1361 H1367 0.985 . S
C1362 C1356 1.379 . S
C1362 C1359 1.363 . S
C1362 N1360 1.356 . S
C1363 C1357 1.363 . S
C1363 C1358 1.379 . S
C1363 N1361 1.356 . S
N1364 C1356 1.356 . S
N1364 H1370 0.984 . S
N1364 H1371 0.984 . S
N1365 C1358 1.356 . S
N1365 H1368 0.984 . S
N1365 H1369 0.985 . S
H1366 N1361 0.984 . S
H1367 N1361 0.985 . S
H1368 N1365 0.984 . S
H1369 N1365 0.985 . S
H1370 N1364 0.984 . S
H1371 N1364 0.984 . S
H1372 N1360 0.984 . S
H1373 N1360 0.985 . S
C1374 C1375 1.363 . S
C1374 C1380 1.379 . S
C1374 N1382 1.356 . S
C1375 C1374 1.363 . S
C1375 C1381 1.363 . S
C1376 C1377 1.363 . S
C1376 C1381 1.379 . S
C1376 N1383 1.356 . S
C1377 C1376 1.363 . S
C1377 C1380 1.363 . S
N1378 C1380 1.356 . S
N1378 H1390 0.984 . S
N1378 H1391 0.985 . S
N1379 C1381 1.356 . S
N1379 H1384 0.984 . S
N1379 H1385 0.985 . S
C1380 C1374 1.379 . S
C1380 C1377 1.363 . S
C1380 N1378 1.356 . S
C1381 C1375 1.363 . S
C1381 C1376 1.379 . S
C1381 N1379 1.356 . S
N1382 C1374 1.356 . S
N1382 H1388 0.984 . S
N1382 H1389 0.984 . S
N1383 C1376 1.356 . S
N1383 H1386 0.984 . S
N1383 H1387 0.985 . S
H1384 N1379 0.984 . S
H1385 N1379 0.985 . S
H1386 N1383 0.984 . S
H1387 N1383 0.985 . S
H1388 N1382 0.984 . S
H1389 N1382 0.984 . S
H1390 N1378 0.984 . S
H1391 N1378 0.985 . S
C1392 C1393 1.363 . S
C1392 C1398 1.379 . S
C1392 N1400 1.356 . S
C1393 C1392 1.363 . S
C1393 C1399 1.363 . S
C1394 C1395 1.363 . S
C1394 C1399 1.379 . S
C1394 N1401 1.356 . S
C1395 C1394 1.363 . S
C1395 C1398 1.363 . S
N1396 C1398 1.356 . S
N1396 H1408 0.984 . S
N1396 H1409 0.985 . S
N1397 C1399 1.356 . S
N1397 H1402 0.984 . S
N1397 H1403 0.985 . S
C1398 C1392 1.379 . S
C1398 C1395 1.363 . S
C1398 N1396 1.356 . S
C1399 C1393 1.363 . S
C1399 C1394 1.379 . S
C1399 N1397 1.356 . S
N1400 C1392 1.356 . S
N1400 H1406 0.984 . S
N1400 H1407 0.984 . S
N1401 C1394 1.356 . S
N1401 H1404 0.984 . S
N1401 H1405 0.985 . S
H1402 N1397 0.984 . S
H1403 N1397 0.985 . S
H1404 N1401 0.984 . S
H1405 N1401 0.985 . S
H1406 N1400 0.984 . S
H1407 N1400 0.984 . S
H1408 N1396 0.984 . S
H1409 N1396 0.985 . S
C1410 C1411 1.363 . S
C1410 C1416 1.379 . S
C1410 N1418 1.356 . S
C1411 C1410 1.363 . S
C1411 C1417 1.363 . S
C1412 C1413 1.363 . S
C1412 C1417 1.379 . S
C1412 N1419 1.356 . S
C1413 C1412 1.363 . S
C1413 C1416 1.363 . S
N1414 C1416 1.356 . S
N1414 H1426 0.984 . S
N1414 H1427 0.985 . S
N1415 C1417 1.356 . S
N1415 H1420 0.984 . S
N1415 H1421 0.985 . S
C1416 C1410 1.379 . S
C1416 C1413 1.363 . S
C1416 N1414 1.356 . S
C1417 C1411 1.363 . S
C1417 C1412 1.379 . S
C1417 N1415 1.356 . S
N1418 C1410 1.356 . S
N1418 H1424 0.984 . S
N1418 H1425 0.984 . S
N1419 C1412 1.356 . S
N1419 H1422 0.984 . S
N1419 H1423 0.985 . S
H1420 N1415 0.984 . S
H1421 N1415 0.985 . S
H1422 N1419 0.984 . S
H1423 N1419 0.985 . S
H1424 N1418 0.984 . S
H1425 N1418 0.984 . S
H1426 N1414 0.984 . S
H1427 N1414 0.985 . S
C1428 C1429 1.363 . S
C1428 C1434 1.379 . S
C1428 N1436 1.356 . S
C1429 C1428 1.363 . S
C1429 C1435 1.363 . S
C1430 C1431 1.363 . S
C1430 C1435 1.379 . S
C1430 N1437 1.356 . S
C1431 C1430 1.363 . S
C1431 C1434 1.363 . S
N1432 C1434 1.356 . S
N1432 H1444 0.984 . S
N1432 H1445 0.985 . S
N1433 C1435 1.356 . S
N1433 H1438 0.984 . S
N1433 H1439 0.985 . S
C1434 C1428 1.379 . S
C1434 C1431 1.363 . S
C1434 N1432 1.356 . S
C1435 C1429 1.363 . S
C1435 C1430 1.379 . S
C1435 N1433 1.356 . S
N1436 C1428 1.356 . S
N1436 H1442 0.984 . S
N1436 H1443 0.984 . S
N1437 C1430 1.356 . S
N1437 H1440 0.984 . S
N1437 H1441 0.985 . S
H1438 N1433 0.984 . S
H1439 N1433 0.985 . S
H1440 N1437 0.984 . S
H1441 N1437 0.985 . S
H1442 N1436 0.984 . S
H1443 N1436 0.984 . S
H1444 N1432 0.984 . S
H1445 N1432 0.985 . S
C1446 C1447 1.363 . S
C1446 C1452 1.379 . S
C1446 N1454 1.356 . S
C1447 C1446 1.363 . S
C1447 C1453 1.363 . S
C1448 C1449 1.363 . S
C1448 C1453 1.379 . S
C1448 N1455 1.356 . S
C1449 C1448 1.363 . S
C1449 C1452 1.363 . S
N1450 C1452 1.356 . S
N1450 H1462 0.984 . S
N1450 H1463 0.985 . S
N1451 C1453 1.356 . S
N1451 H1456 0.984 . S
N1451 H1457 0.985 . S
C1452 C1446 1.379 . S
C1452 C1449 1.363 . S
C1452 N1450 1.356 . S
C1453 C1447 1.363 . S
C1453 C1448 1.379 . S
C1453 N1451 1.356 . S
N1454 C1446 1.356 . S
N1454 H1460 0.984 . S
N1454 H1461 0.984 . S
N1455 C1448 1.356 . S
N1455 H1458 0.984 . S
N1455 H1459 0.985 . S
H1456 N1451 0.984 . S
H1457 N1451 0.985 . S
H1458 N1455 0.984 . S
H1459 N1455 0.985 . S
H1460 N1454 0.984 . S
H1461 N1454 0.984 . S
H1462 N1450 0.984 . S
H1463 N1450 0.985 . S
C1464 C1465 1.363 . S
C1464 C1470 1.379 . S
C1464 N1472 1.356 . S
C1465 C1464 1.363 . S
C1465 C1471 1.363 . S
C1466 C1467 1.363 . S
C1466 C1471 1.379 . S
C1466 N1473 1.356 . S
C1467 C1466 1.363 . S
C1467 C1470 1.363 . S
N1468 C1470 1.356 . S
N1468 H1480 0.984 . S
N1468 H1481 0.985 . S
N1469 C1471 1.356 . S
N1469 H1474 0.984 . S
N1469 H1475 0.985 . S
C1470 C1464 1.379 . S
C1470 C1467 1.363 . S
C1470 N1468 1.356 . S
C1471 C1465 1.363 . S
C1471 C1466 1.379 . S
C1471 N1469 1.356 . S
N1472 C1464 1.356 . S
N1472 H1478 0.984 . S
N1472 H1479 0.984 . S
N1473 C1466 1.356 . S
N1473 H1476 0.984 . S
N1473 H1477 0.985 . S
H1474 N1469 0.984 . S
H1475 N1469 0.985 . S
H1476 N1473 0.984 . S
H1477 N1473 0.985 . S
H1478 N1472 0.984 . S
H1479 N1472 0.984 . S
H1480 N1468 0.984 . S
H1481 N1468 0.985 . S
C1482 C1483 1.363 . S
C1482 C1488 1.379 . S
C1482 N1490 1.356 . S
C1483 C1482 1.363 . S
C1483 C1489 1.363 . S
C1484 C1485 1.363 . S
C1484 C1489 1.379 . S
C1484 N1491 1.356 . S
C1485 C1484 1.363 . S
C1485 C1488 1.363 . S
N1486 C1488 1.356 . S
N1486 H1498 0.984 . S
N1486 H1499 0.985 . S
N1487 C1489 1.356 . S
N1487 H1492 0.984 . S
N1487 H1493 0.985 . S
C1488 C1482 1.379 . S
C1488 C1485 1.363 . S
C1488 N1486 1.356 . S
C1489 C1483 1.363 . S
C1489 C1484 1.379 . S
C1489 N1487 1.356 . S
N1490 C1482 1.356 . S
N1490 H1496 0.984 . S
N1490 H1497 0.984 . S
N1491 C1484 1.356 . S
N1491 H1494 0.984 . S
N1491 H1495 0.985 . S
H1492 N1487 0.984 . S
H1493 N1487 0.985 . S
H1494 N1491 0.984 . S
H1495 N1491 0.985 . S
H1496 N1490 0.984 . S
H1497 N1490 0.984 . S
H1498 N1486 0.984 . S
H1499 N1486 0.985 . S
C1500 C1501 1.363 . S
C1500 C1506 1.379 . S
C1500 N1508 1.356 . S
C1501 C1500 1.363 . S
C1501 C1507 1.363 . S
C1502 C1503 1.363 . S
C1502 C1507 1.379 . S
C1502 N1509 1.356 . S
C1503 C1502 1.363 . S
C1503 C1506 1.363 . S
N1504 C1506 1.356 . S
N1504 H1516 0.984 . S
N1504 H1517 0.985 . S
N1505 C1507 1.356 . S
N1505 H1510 0.984 . S
N1505 H1511 0.985 . S
C1506 C1500 1.379 . S
C1506 C1503 1.363 . S
C1506 N1504 1.356 . S
C1507 C1501 1.363 . S
C1507 C1502 1.379 . S
C1507 N1505 1.356 . S
N1508 C1500 1.356 . S
N1508 H1514 0.984 . S
N1508 H1515 0.984 . S
N1509 C1502 1.356 . S
N1509 H1512 0.984 . S
N1509 H1513 0.985 . S
H1510 N1505 0.984 . S
H1511 N1505 0.985 . S
H1512 N1509 0.984 . S
H1513 N1509 0.985 . S
H1514 N1508 0.984 . S
H1515 N1508 0.984 . S
H1516 N1504 0.984 . S
H1517 N1504 0.985 . S
C1518 C1519 1.363 . S
C1518 C1524 1.379 . S
C1518 N1526 1.356 . S
C1519 C1518 1.363 . S
C1519 C1525 1.363 . S
C1520 C1521 1.363 . S
C1520 C1525 1.379 . S
C1520 N1527 1.356 . S
C1521 C1520 1.363 . S
C1521 C1524 1.363 . S
N1522 C1524 1.356 . S
N1522 H1534 0.984 . S
N1522 H1535 0.985 . S
N1523 C1525 1.356 . S
N1523 H1528 0.984 . S
N1523 H1529 0.985 . S
C1524 C1518 1.379 . S
C1524 C1521 1.363 . S
C1524 N1522 1.356 . S
C1525 C1519 1.363 . S
C1525 C1520 1.379 . S
C1525 N1523 1.356 . S
N1526 C1518 1.356 . S
N1526 H1532 0.984 . S
N1526 H1533 0.984 . S
N1527 C1520 1.356 . S
N1527 H1530 0.984 . S
N1527 H1531 0.985 . S
H1528 N1523 0.984 . S
H1529 N1523 0.985 . S
H1530 N1527 0.984 . S
H1531 N1527 0.985 . S
H1532 N1526 0.984 . S
H1533 N1526 0.984 . S
H1534 N1522 0.984 . S
H1535 N1522 0.985 . S
C1536 C1537 1.363 . S
C1536 C1542 1.379 . S
C1536 N1544 1.356 . S
C1537 C1536 1.363 . S
C1537 C1543 1.363 . S
C1538 C1539 1.363 . S
C1538 C1543 1.379 . S
C1538 N1545 1.356 . S
C1539 C1538 1.363 . S
C1539 C1542 1.363 . S
N1540 C1542 1.356 . S
N1540 H1552 0.984 . S
N1540 H1553 0.985 . S
N1541 C1543 1.356 . S
N1541 H1546 0.984 . S
N1541 H1547 0.985 . S
C1542 C1536 1.379 . S
C1542 C1539 1.363 . S
C1542 N1540 1.356 . S
C1543 C1537 1.363 . S
C1543 C1538 1.379 . S
C1543 N1541 1.356 . S
N1544 C1536 1.356 . S
N1544 H1550 0.984 . S
N1544 H1551 0.984 . S
N1545 C1538 1.356 . S
N1545 H1548 0.984 . S
N1545 H1549 0.985 . S
H1546 N1541 0.984 . S
H1547 N1541 0.985 . S
H1548 N1545 0.984 . S
H1549 N1545 0.985 . S
H1550 N1544 0.984 . S
H1551 N1544 0.984 . S
H1552 N1540 0.984 . S
H1553 N1540 0.985 . S
C1554 C1555 1.363 . S
C1554 C1560 1.379 . S
C1554 N1562 1.356 . S
C1555 C1554 1.363 . S
C1555 C1561 1.363 . S
C1556 C1557 1.363 . S
C1556 C1561 1.379 . S
C1556 N1563 1.356 . S
C1557 C1556 1.363 . S
C1557 C1560 1.363 . S
N1558 C1560 1.356 . S
N1558 H1570 0.984 . S
N1558 H1571 0.985 . S
N1559 C1561 1.356 . S
N1559 H1564 0.984 . S
N1559 H1565 0.985 . S
C1560 C1554 1.379 . S
C1560 C1557 1.363 . S
C1560 N1558 1.356 . S
C1561 C1555 1.363 . S
C1561 C1556 1.379 . S
C1561 N1559 1.356 . S
N1562 C1554 1.356 . S
N1562 H1568 0.984 . S
N1562 H1569 0.984 . S
N1563 C1556 1.356 . S
N1563 H1566 0.984 . S
N1563 H1567 0.985 . S
H1564 N1559 0.984 . S
H1565 N1559 0.985 . S
H1566 N1563 0.984 . S
H1567 N1563 0.985 . S
H1568 N1562 0.984 . S
H1569 N1562 0.984 . S
H1570 N1558 0.984 . S
H1571 N1558 0.985 . S
C1572 C1573 1.363 . S
C1572 C1578 1.379 . S
C1572 N1580 1.356 . S
C1573 C1572 1.363 . S
C1573 C1579 1.363 . S
C1574 C1575 1.363 . S
C1574 C1579 1.379 . S
C1574 N1581 1.356 . S
C1575 C1574 1.363 . S
C1575 C1578 1.363 . S
N1576 C1578 1.356 . S
N1576 H1588 0.984 . S
N1576 H1589 0.985 . S
N1577 C1579 1.356 . S
N1577 H1582 0.984 . S
N1577 H1583 0.985 . S
C1578 C1572 1.379 . S
C1578 C1575 1.363 . S
C1578 N1576 1.356 . S
C1579 C1573 1.363 . S
C1579 C1574 1.379 . S
C1579 N1577 1.356 . S
N1580 C1572 1.356 . S
N1580 H1586 0.984 . S
N1580 H1587 0.984 . S
N1581 C1574 1.356 . S
N1581 H1584 0.984 . S
N1581 H1585 0.985 . S
H1582 N1577 0.984 . S
H1583 N1577 0.985 . S
H1584 N1581 0.984 . S
H1585 N1581 0.985 . S
H1586 N1580 0.984 . S
H1587 N1580 0.984 . S
H1588 N1576 0.984 . S
H1589 N1576 0.985 . S
C1590 C1591 1.363 . S
C1590 C1596 1.379 . S
C1590 N1598 1.356 . S
C1591 C1590 1.363 . S
C1591 C1597 1.363 . S
C1592 C1593 1.363 . S
C1592 C1597 1.379 . S
C1592 N1599 1.356 . S
C1593 C1592 1.363 . S
C1593 C1596 1.363 . S
N1594 C1596 1.356 . S
N1594 H1606 0.984 . S
N1594 H1607 0.985 . S
N1595 C1597 1.356 . S
N1595 H1600 0.984 . S
N1595 H1601 0.985 . S
C1596 C1590 1.379 . S
C1596 C1593 1.363 . S
C1596 N1594 1.356 . S
C1597 C1591 1.363 . S
C1597 C1592 1.379 . S
C1597 N1595 1.356 . S
N1598 C1590 1.356 . S
N1598 H1604 0.984 . S
N1598 H1605 0.984 . S
N1599 C1592 1.356 . S
N1599 H1602 0.984 . S
N1599 H1603 0.985 . S
H1600 N1595 0.984 . S
H1601 N1595 0.985 . S
H1602 N1599 0.984 . S
H1603 N1599 0.985 . S
H1604 N1598 0.984 . S
H1605 N1598 0.984 . S
H1606 N1594 0.984 . S
H1607 N1594 0.985 . S
C961 C162 1.489 . S
C963 C2 1.489 . S
C979 C221 1.465 . S
C981 C42 1.477 . S
C997 C101 1.509 . S
C999 C261 1.511 . S
C1015 C282 1.479 . S
C1017 C141 1.467 . S
C1033 C341 1.510 . S
C1035 C442 1.492 . S
C1051 C402 1.491 . S
C1053 C381 1.475 . S
C1069 C482 1.524 . S
C1071 C642 1.524 . S
C1087 C682 1.493 . S
C1089 C541 1.477 . S
C1105 C741 1.458 . S
C1107 C581 1.456 . S
C1123 C602 1.482 . S
C1125 C781 1.487 . S
C1141 C941 1.492 . S
C1143 C802 1.515 . S
C1159 C901 1.491 . S
C1161 C842 1.513 . S
C1177 C775 1.506 . S
C1179 C21 1.488 . S
C1195 C655 1.520 . S
C1197 C61 1.507 . S
C1213 C82 1.529 . S
C1215 C701 1.524 . S
C1231 C135 1.499 . S
C1233 C722 1.492 . S
C1249 C181 1.493 . S
C1251 C522 1.494 . S
C1267 C562 1.487 . S
C1269 C215 1.497 . S
C1285 C242 1.545 . S
C1287 C621 1.526 . S
C1303 C301 1.511 . S
C1305 C495 1.524 . S
C1321 C122 1.478 . S
C1323 C935 1.496 . S
C1339 C15 1.556 . S
C1341 C861 1.568 . S
C1357 C55 1.554 . S
C1359 C815 1.551 . S
C1375 C95 1.521 . S
C1377 C882 1.496 . S
C1393 C202 1.475 . S
C1395 C895 1.494 . S
C1411 C255 1.531 . S
C1413 C922 1.504 . S
C1429 C855 1.552 . S
C1431 C295 1.555 . S
C1447 C175 1.558 . S
C1449 C821 1.569 . S
C1465 C335 1.543 . S
C1467 C661 1.552 . S
C1483 C501 1.551 . S
C1485 C362 1.507 . S
C1501 C322 1.531 . S
C1503 C535 1.527 . S
C1519 C415 1.516 . S
C1521 C575 1.515 . S
C1537 C615 1.534 . S
C1539 C461 1.518 . S
C1555 C735 1.517 . S
C1557 C455 1.516 . S
C1573 C762 1.524 . S
C1575 C375 1.519 . S
C1591 C695 1.535 . S
C1593 C421 1.521 . S
