# Generated by pormake.
# Topology whb, (6)-cn, num edge types: 1
# Building blocks:
#     Node 0, Type 0, BuildingBlock: KUMBUR_clean_sbu_1, # of connection points: 6
#     Node 1, Type 0, BuildingBlock: KUMBUR_clean_sbu_1, # of connection points: 6
#     Node 2, Type 0, BuildingBlock: KUMBUR_clean_sbu_1, # of connection points: 6
#     Node 3, Type 0, BuildingBlock: KUMBUR_clean_sbu_1, # of connection points: 6
#     Node 4, Type 0, BuildingBlock: KUMBUR_clean_sbu_1, # of connection points: 6
#     Node 5, Type 0, BuildingBlock: KUMBUR_clean_sbu_1, # of connection points: 6
#     Node 6, Type 0, BuildingBlock: KUMBUR_clean_sbu_1, # of connection points: 6
#     Node 7, Type 0, BuildingBlock: KUMBUR_clean_sbu_1, # of connection points: 6
#     Edge 8, Type (0, 0), BuildingBlock: XIVTED_clean_linker_0, # of connection points: 2
#     Edge 9, Type (0, 0), BuildingBlock: XIVTED_clean_linker_0, # of connection points: 2
#     Edge 10, Type (0, 0), BuildingBlock: XIVTED_clean_linker_0, # of connection points: 2
#     Edge 11, Type (0, 0), BuildingBlock: XIVTED_clean_linker_0, # of connection points: 2
#     Edge 12, Type (0, 0), BuildingBlock: XIVTED_clean_linker_0, # of connection points: 2
#     Edge 13, Type (0, 0), BuildingBlock: XIVTED_clean_linker_0, # of connection points: 2
#     Edge 14, Type (0, 0), BuildingBlock: XIVTED_clean_linker_0, # of connection points: 2
#     Edge 15, Type (0, 0), BuildingBlock: XIVTED_clean_linker_0, # of connection points: 2
#     Edge 16, Type (0, 0), BuildingBlock: XIVTED_clean_linker_0, # of connection points: 2
#     Edge 17, Type (0, 0), BuildingBlock: XIVTED_clean_linker_0, # of connection points: 2
#     Edge 18, Type (0, 0), BuildingBlock: XIVTED_clean_linker_0, # of connection points: 2
#     Edge 19, Type (0, 0), BuildingBlock: XIVTED_clean_linker_0, # of connection points: 2
#     Edge 20, Type (0, 0), BuildingBlock: XIVTED_clean_linker_0, # of connection points: 2
#     Edge 21, Type (0, 0), BuildingBlock: XIVTED_clean_linker_0, # of connection points: 2
#     Edge 22, Type (0, 0), BuildingBlock: XIVTED_clean_linker_0, # of connection points: 2
#     Edge 23, Type (0, 0), BuildingBlock: XIVTED_clean_linker_0, # of connection points: 2
#     Edge 24, Type (0, 0), BuildingBlock: XIVTED_clean_linker_0, # of connection points: 2
#     Edge 25, Type (0, 0), BuildingBlock: XIVTED_clean_linker_0, # of connection points: 2
#     Edge 26, Type (0, 0), BuildingBlock: XIVTED_clean_linker_0, # of connection points: 2
#     Edge 27, Type (0, 0), BuildingBlock: XIVTED_clean_linker_0, # of connection points: 2
#     Edge 28, Type (0, 0), BuildingBlock: XIVTED_clean_linker_0, # of connection points: 2
#     Edge 29, Type (0, 0), BuildingBlock: XIVTED_clean_linker_0, # of connection points: 2
#     Edge 30, Type (0, 0), BuildingBlock: XIVTED_clean_linker_0, # of connection points: 2
#     Edge 31, Type (0, 0), BuildingBlock: XIVTED_clean_linker_0, # of connection points: 2
# Relax obj value: 0.587
# Max RMSD: 0.323
# Mean RMSD: 0.270
data_MOF--net-whb--node1-KUMBUR_clean_sbu_1--edge1-XIVTED_clean_linker_0
_symmetry_space_group_name_H-M    P1
_symmetry_Int_Tables_number       1
_symmetry_cell_setting            triclinic
loop_
_symmetry_equiv_pos_as_xyz
'x, y, z'
_cell_length_a     30.72149
_cell_length_b     30.753063
_cell_length_c     45.771958
_cell_angle_alpha  106.13459
_cell_angle_beta   89.708688
_cell_angle_gamma 102.54029
loop_
_atom_site_label
_atom_site_type_symbol
_atom_site_fract_x
_atom_site_fract_y
_atom_site_fract_z
_atom_type_partial_charge
Tb0 Tb 0.16102 0.37375 0.07484 0.0
C1 C 0.2188 0.36533 0.21023 0.0
N2 N 0.20796 0.33026 0.18413 0.0
C3 C 0.26419 0.29452 0.19723 0.0
C4 C 0.25406 0.36751 0.23049 0.0
C5 C 0.2285 0.29377 0.17807 0.0
C6 C 0.27751 0.33196 0.22333 0.0
C7 C 0.19947 0.43198 0.24565 0.0
C8 C 0.19197 0.39689 0.21767 0.0
C9 C 0.23614 0.43615 0.26527 0.0
C10 C 0.26342 0.40392 0.2577 0.0
Tb11 Tb 0.15034 0.3327 0.15388 0.0
N12 N 0.15651 0.39096 0.19837 0.0
C13 C 0.16904 0.46068 0.25343 0.0
C14 C 0.1255 0.41734 0.20646 0.0
C15 C 0.13161 0.45298 0.23387 0.0
H16 H 0.21809 0.26485 0.15788 0.0
H17 H 0.10747 0.47446 0.23991 0.0
H18 H 1.06217 0.31144 0.04153 0.0
H19 H 0.32144 0.40551 0.02667 0.0
H20 H 0.09629 0.41138 0.1916 0.0
H21 H 0.17359 0.48816 0.2747 0.0
H22 H 0.26443 0.42208 0.06414 0.0
H23 H 0.28127 0.26623 0.19192 0.0
H24 H 0.24285 0.46322 0.28674 0.0
H25 H 0.29069 0.40657 0.27348 0.0
H26 H 1.03375 0.25076 -0.00606 0.0
H27 H 0.30488 0.3323 0.23829 0.0
H28 H 0.30298 0.33675 0.98148 0.0
N29 N 0.13061 0.31721 0.03131 0.0
C30 C 0.15964 0.30311 0.01026 0.0
C31 C 1.0693 0.26509 -0.00172 0.0
C32 C 0.14482 0.26853 0.9826 0.0
C33 C 0.08568 0.29959 0.02536 0.0
C34 C 0.09903 0.24909 0.97693 0.0
N35 N 0.21556 0.36167 0.04129 0.0
C36 C 0.25645 0.39165 0.04464 0.0
C37 C 0.23491 0.31545 -0.00662 0.0
C38 C 0.2039 0.32597 0.01559 0.0
C39 C 0.27815 0.34357 -0.00199 0.0
C40 C 0.28865 0.3825 0.02343 0.0
H41 H 0.08627 0.22236 0.95599 0.0
H42 H 0.16542 0.22841 0.94008 0.0
H43 H 0.24448 0.26981 0.94946 0.0
O44 O 0.13735 0.43538 0.08575 0.0
O45 O 0.12616 0.31011 0.08369 0.0
O46 O 0.16551 0.28303 0.11296 0.0
O47 O 0.16503 0.41084 0.04253 0.0
O48 O 0.22472 0.3653 0.09329 0.0
O49 O 0.21885 0.34064 0.13792 0.0
O50 O 0.10346 0.26864 0.14113 0.0
O51 O 0.1478 0.39786 0.14525 0.0
O52 O 0.19909 0.42251 0.11515 0.0
O53 O 0.12055 0.30599 0.18846 0.0
O54 O 0.08945 0.35139 0.13978 0.0
O55 O 0.09183 0.36259 0.09082 0.0
C56 C 0.14845 0.27978 0.08619 0.0
C57 C 0.11126 0.45402 0.04324 0.0
C58 C 0.09119 0.50754 0.01814 0.0
C59 C 1.04948 0.47684 0.00852 0.0
C60 C 1.07036 0.42279 0.03258 0.0
C61 C 1.0392 0.4346 0.01576 0.0
C62 C 0.12142 0.49621 0.03609 0.0
C63 C 0.24167 0.35287 0.11567 0.0
C64 C 0.14593 0.44203 0.05923 0.0
C65 C 0.17601 0.25551 0.96123 0.0
C66 C 0.22105 0.27894 0.96662 0.0
C67 C 0.18393 0.42723 0.14227 0.0
C68 C 0.10615 0.22496 0.1763 0.0
C69 C 0.09727 0.17776 0.21184 0.0
C70 C 0.12061 0.14757 0.19263 0.0
C71 C 0.12956 0.19458 0.15745 0.0
C72 C 0.09007 0.21631 0.20334 0.0
C73 C 0.13661 0.15604 0.16563 0.0
C74 C 1.07054 0.35767 0.1156 0.0
C75 C 0.09996 0.2672 0.16929 0.0
H76 H 1.02557 0.48475 -0.00539 0.0
H77 H 1.06303 0.38914 0.03671 0.0
H78 H 1.00753 0.41049 0.00768 0.0
H79 H 0.15351 0.51985 0.04399 0.0
H80 H 0.1269 0.11773 0.19863 0.0
H81 H 0.14274 0.20079 0.13662 0.0
H82 H 1.07165 0.23964 0.21768 0.0
H83 H 0.15479 0.13278 0.15108 0.0
Tb84 Tb 0.45136 0.23453 0.60436 0.0
C85 C 0.42033 0.14726 0.46093 0.0
N86 N 0.42537 0.18816 0.48313 0.0
C87 C 0.47284 0.22697 0.45183 0.0
C88 C 0.44276 0.14424 0.43373 0.0
C89 C 0.45 0.22821 0.47846 0.0
C90 C 0.46963 0.18475 0.42951 0.0
C91 C 0.38485 0.06544 0.44281 0.0
C92 C 0.39169 0.10856 0.46532 0.0
C93 C 0.40824 0.06177 0.41608 0.0
C94 C 0.43703 0.10114 0.41151 0.0
Tb95 Tb 0.38669 0.1854 0.52583 0.0
N96 N 0.36896 0.1138 0.49109 0.0
C97 C 0.35403 1.02762 0.44761 0.0
C98 C 0.33734 0.0776 0.49526 0.0
C99 C 0.32988 1.03385 0.47384 0.0
H100 H 0.45273 0.26131 0.49514 0.0
H101 H 0.30532 1.00506 0.47747 0.0
H102 H 0.41183 0.29107 0.66599 0.0
H103 H 0.56913 0.31302 0.53242 0.0
H104 H 0.31784 0.08247 0.51516 0.0
H105 H 0.34794 0.99382 0.43094 0.0
H106 H 0.50136 0.26258 0.54152 0.0
H107 H 0.49279 0.25867 0.44851 0.0
H108 H 0.40364 1.02888 0.39856 0.0
H109 H 0.45421 0.09804 0.39054 0.0
H110 H 0.43719 0.36259 0.7086 0.0
H111 H 0.48732 0.18396 0.4089 0.0
H112 H 0.61264 0.37468 0.57535 0.0
N113 N 0.46998 0.30346 0.64154 0.0
C114 C 0.5088 0.33303 0.63989 0.0
C115 C 0.45783 0.35459 0.68948 0.0
C116 C 0.52471 0.37423 0.66348 0.0
C117 C 0.4435 0.3143 0.66533 0.0
C118 C 0.49903 0.38436 0.6888 0.0
N119 N 0.50977 0.28623 0.59017 0.0
C120 C 0.52153 0.28518 0.56104 0.0
C121 C 0.56786 0.35635 0.60885 0.0
C122 C 0.53005 0.32373 0.6132 0.0
C123 C 0.58385 0.35041 0.57975 0.0
C124 C 0.55954 0.31558 0.55553 0.0
H125 H 0.51 0.41569 0.70742 0.0
H126 H 0.57777 0.43627 0.6784 0.0
H127 H 0.61556 0.42075 0.63025 0.0
O128 O 0.48888 0.23827 0.6436 0.0
O129 O 0.41376 0.28089 0.593 0.0
O130 O 0.42089 0.26125 0.54181 0.0
O131 O 0.41878 0.20421 0.63665 0.0
O132 O 0.49238 0.198 0.5707 0.0
O133 O 0.45684 0.18116 0.52242 0.0
O134 O 0.3463 0.23426 0.53297 0.0
O135 O 0.38309 0.13144 0.5504 0.0
O136 O 0.4439 0.15774 0.58566 0.0
O137 O 0.33338 0.17234 0.49343 0.0
O138 O 0.34859 0.16792 0.56338 0.0
O139 O 0.3811 0.23471 0.59823 0.0
C140 C 0.41716 0.29291 0.56759 0.0
C141 C 0.46485 0.17739 0.66587 0.0
C142 C 0.50779 0.157 0.70234 0.0
C143 C 0.48632 0.11007 0.69029 0.0
C144 C 0.44211 0.13067 0.65469 0.0
C145 C 0.45325 0.09708 0.66669 0.0
C146 C 0.49707 0.19033 0.68995 0.0
C147 C 0.49027 0.18155 0.54056 0.0
C148 C 0.45523 0.21401 0.65386 0.0
C149 C 0.56455 0.40472 0.66039 0.0
C150 C 0.58617 0.39575 0.63304 0.0
C151 C 0.41168 0.12384 0.56908 0.0
C152 C 0.2858 0.22653 0.49721 0.0
C153 C 0.20589 0.21412 0.48892 0.0
C154 C 0.21127 0.25898 0.4856 0.0
C155 C 0.29142 0.27136 0.49392 0.0
C156 C 0.24337 0.19767 0.49381 0.0
C157 C 0.25416 0.2872 0.48753 0.0
C158 C 0.34943 0.19717 0.59045 0.0
C159 C 0.32281 0.21118 0.50775 0.0
H160 H 0.49441 0.08382 0.69959 0.0
H161 H 0.41577 0.1202 0.63692 0.0
H162 H 0.436 0.06103 0.65784 0.0
H163 H 0.5141 0.22654 0.69901 0.0
H164 H 0.18242 0.27236 0.48221 0.0
H165 H 0.32434 0.29419 0.4968 0.0
H166 H 0.2392 0.16369 0.49756 0.0
H167 H 0.25841 0.3219 0.48516 0.0
Tb168 Tb 0.64184 0.31916 0.14147 0.0
C169 C 0.74329 0.4299 0.05036 0.0
N170 N 0.7336 0.44415 0.07989 0.0
C171 C 0.80478 0.49805 0.09137 0.0
C172 C 0.78484 0.44783 0.04017 0.0
C173 C 0.76281 0.4793 0.10022 0.0
C174 C 0.81614 0.48173 0.0613 0.0
C175 C 0.71679 0.38627 -0.00129 0.0
C176 C 0.71 0.3998 0.03011 0.0
C177 C 0.75896 0.4017 -0.01159 0.0
C178 C 0.79299 0.43252 0.00914 0.0
Tb179 Tb 0.66571 0.40931 0.09292 0.0
N180 N 0.66967 0.38707 0.04104 0.0
C181 C 0.68048 0.3594 0.97864 0.0
C182 C 0.63336 0.364 0.02139 0.0
C183 C 0.63836 0.34892 -0.00999 0.0
H184 H 0.75409 0.49205 0.12343 0.0
H185 H 0.60972 0.3295 0.97463 0.0
H186 H 0.57036 0.3464 0.19332 0.0
H187 H 0.76826 0.22102 0.14053 0.0
H188 H 0.60057 0.35657 0.03004 0.0
H189 H 0.68422 0.34813 0.95432 0.0
H190 H 0.71034 0.2479 0.11742 0.0
H191 H 0.82827 0.52509 0.10772 0.0
H192 H 0.7651 0.39131 0.9644 0.0
H193 H 0.8249 0.4454 0.00083 0.0
H194 H 0.56593 0.35841 0.24903 0.0
H195 H 0.84854 0.49645 0.05444 0.0
H196 H 0.7806 0.24315 0.19671 0.0
N197 N 0.63209 0.32567 0.19172 0.0
C198 C 0.66388 0.3153 0.2072 0.0
C199 C 0.59386 0.34651 0.23755 0.0
C200 C 0.66331 0.32192 0.23886 0.0
C201 C 0.59635 0.33962 0.20606 0.0
C202 C 0.62796 0.33844 0.25415 0.0
N203 N 0.69103 0.28565 0.16002 0.0
C204 C 0.71525 0.25737 0.14191 0.0
C205 C 0.72726 0.28014 0.20492 0.0
C206 C 0.69494 0.29467 0.19062 0.0
C207 C 0.755 0.25468 0.18663 0.0
C208 C 0.74811 0.24213 0.15493 0.0
H209 H 0.6261 0.34395 0.27851 0.0
H210 H 0.69833 0.31639 0.27828 0.0
H211 H 0.75553 0.2811 0.24832 0.0
O212 O 0.60047 0.25817 0.14676 0.0
O213 O 0.64431 0.39178 0.16564 0.0
O214 O 0.69373 0.4346 0.14076 0.0
O215 O 0.59128 0.28039 0.10718 0.0
O216 O 0.71484 0.34311 0.13667 0.0
O217 O 0.72811 0.39104 0.10401 0.0
O218 O 0.63966 0.4645 0.12003 0.0
O219 O 0.63565 0.33544 0.07272 0.0
O220 O 0.67288 0.30028 0.09816 0.0
O221 O 0.64441 0.45362 0.07164 0.0
O222 O 0.59791 0.36809 0.09407 0.0
O223 O 0.59615 0.36613 0.14324 0.0
C224 C 0.67834 0.42639 0.16617 0.0
C225 C 0.58403 0.2002 0.09923 0.0
C226 C 0.61401 0.1307 0.08961 0.0
C227 C 0.59158 0.11323 0.06078 0.0
C228 C 0.56185 0.18276 0.07017 0.0
C229 C 0.56574 0.13952 0.05105 0.0
C230 C 0.6101 0.17389 0.10856 0.0
C231 C 0.74186 0.36806 0.12145 0.0
C232 C 0.58171 0.24638 0.11934 0.0
C233 C 0.69734 0.31061 0.25381 0.0
C234 C 0.72964 0.29018 0.23681 0.0
C235 C 0.65752 0.30316 0.07237 0.0
C236 C 0.65538 0.53087 0.10076 0.0
C237 C 0.66612 0.59592 0.0785 0.0
C238 C 0.69523 0.62335 0.10364 0.0
C239 C 0.68476 0.55866 0.12556 0.0
C240 C 0.64593 0.54989 0.07758 0.0
C241 C 0.70433 0.60478 0.12699 0.0
C242 C 0.57605 0.36973 0.11897 0.0
C243 C 0.63607 0.48123 0.09708 0.0
H244 H 0.59404 0.07968 0.046 0.0
H245 H 0.54186 0.20266 0.06222 0.0
H246 H 0.54866 0.12637 0.02867 0.0
H247 H 0.62739 0.18665 0.13094 0.0
H248 H 0.71166 0.65883 0.10497 0.0
H249 H 0.693 0.54473 0.14358 0.0
H250 H 0.62293 0.52842 0.05858 0.0
H251 H 0.72714 0.62604 0.14608 0.0
Tb252 Tb 0.38744 0.6995 0.5404 0.0
C253 C 0.33232 0.76786 0.67701 0.0
N254 N 0.34558 0.72879 0.66175 0.0
C255 C 0.38769 0.73168 0.70654 0.0
C256 C 0.34707 0.79114 0.70759 0.0
C257 C 0.37143 0.70936 0.67638 0.0
C258 C 0.37592 0.77308 0.72212 0.0
C259 C 0.28316 0.82015 0.67832 0.0
C260 C 0.30119 0.78243 0.66253 0.0
C261 C 0.29924 0.84492 0.70835 0.0
C262 C 0.33131 0.83056 0.72292 0.0
Tb263 Tb 0.32033 0.69828 0.61181 0.0
N264 N 0.28644 0.75758 0.63353 0.0
C265 C 0.24836 0.8306 0.66382 0.0
C266 C 0.25029 0.76531 0.62014 0.0
C267 C 0.23133 0.80253 0.6348 0.0
H268 H 0.38005 0.67692 0.66465 0.0
H269 H 0.20357 0.80946 0.62378 0.0
H270 H 0.40429 0.78959 0.51279 0.0
H271 H 0.26133 0.53416 0.50375 0.0
H272 H 0.23714 0.7436 0.59781 0.0
H273 H 0.23345 0.85922 0.6752 0.0
H274 H 0.30925 0.59739 0.54137 0.0
H275 H 0.40908 0.71683 0.71781 0.0
H276 H 0.28619 0.87438 0.7208 0.0
H277 H 0.34256 0.84923 0.74635 0.0
H278 H 0.3874 0.80457 0.46415 0.0
H279 H 0.38816 0.79001 0.74558 0.0
H280 H 0.25174 0.53851 0.4513 0.0
N281 N 0.37003 0.71861 0.49825 0.0
C282 C 0.34416 0.68362 0.47603 0.0
C283 C 0.37518 0.77045 0.46719 0.0
C284 C 0.33364 0.69078 0.44802 0.0
C285 C 0.3846 0.76196 0.49467 0.0
C286 C 0.35 0.7346 0.44366 0.0
N287 N 0.33488 0.63652 0.51026 0.0
C288 C 0.3094 0.59948 0.51837 0.0
C289 C 0.29673 0.60604 0.46001 0.0
C290 C 0.32644 0.64134 0.48207 0.0
C291 C 0.27485 0.56621 0.46757 0.0
C292 C 0.28036 0.56352 0.49708 0.0
H293 H 0.34263 0.74138 0.42243 0.0
H294 H 0.29812 0.65933 0.40385 0.0
H295 H 0.26554 0.58538 0.41439 0.0
O296 O 0.45746 0.71002 0.54622 0.0
O297 O 0.32413 0.72134 0.53799 0.0
O298 O 0.28874 0.67656 0.56613 0.0
O299 O 0.42699 0.69389 0.50202 0.0
O300 O 0.38545 0.63465 0.55285 0.0
O301 O 0.36015 0.64319 0.60196 0.0
O302 O 0.2798 0.67103 0.64268 0.0
O303 O 0.39066 0.70016 0.61662 0.0
O304 O 0.42108 0.74269 0.58518 0.0
O305 O 0.26837 0.63963 0.59431 0.0
O306 O 0.3338 0.76895 0.60235 0.0
O307 O 0.38471 0.77128 0.56426 0.0
C308 C 0.28685 0.70211 0.54789 0.0
C309 C 0.48996 0.75521 0.51425 0.0
C310 C 0.53044 0.79752 0.4808 0.0
C311 C 0.53085 0.83963 0.50305 0.0
C312 C 0.49148 0.79774 0.53641 0.0
C313 C 0.51148 0.83962 0.53069 0.0
C314 C 0.50947 0.75537 0.48656 0.0
C315 C 0.37651 0.61919 0.57701 0.0
C316 C 0.46377 0.71131 0.51847 0.0
C317 C 0.30629 0.65459 0.4256 0.0
C318 C 0.28787 0.6124 0.43158 0.0
C319 C 0.42177 0.73238 0.61115 0.0
C320 C 0.20457 0.63588 0.62344 0.0
C321 C 0.14054 0.65373 0.65258 0.0
C322 C 0.11168 0.62518 0.62767 0.0
C323 C 0.17497 0.6065 0.59913 0.0
C324 C 0.18703 0.65929 0.65015 0.0
C325 C 0.12891 0.60172 0.60113 0.0
C326 C 0.36088 0.79176 0.58578 0.0
C327 C 0.25331 0.64021 0.62102 0.0
H328 H 0.54662 0.87252 0.49923 0.0
H329 H 0.47629 0.79877 0.55788 0.0
H330 H 0.512 0.87217 0.54777 0.0
H331 H 0.50896 0.72246 0.46978 0.0
H332 H 1.07579 0.6202 0.62893 0.0
H333 H 0.18749 0.5874 0.57845 0.0
H334 H 0.20949 0.682 0.66907 0.0
H335 H 0.10646 0.57936 0.58215 0.0
Tb336 Tb 0.60447 0.90168 0.88644 0.0
C337 C 0.60355 0.97229 0.76346 0.0
N338 N 0.6327 0.95827 0.77888 0.0
C339 C 0.65526 0.91425 0.73159 0.0
C340 C 0.59802 0.95706 0.73144 0.0
C341 C 0.65982 0.931 0.76343 0.0
C342 C 0.62368 0.92673 0.71553 0.0
C343 C 0.55426 1.02427 0.76524 0.0
C344 C 0.58187 1.00478 0.77995 0.0
C345 C 0.54668 1.00782 0.7334 0.0
C346 C 0.5684 0.97402 0.7165 0.0
Tb347 Tb 0.63325 0.98206 0.83096 0.0
N348 N 0.59075 1.01981 0.81042 0.0
C349 C 0.53662 0.06073 0.78291 0.0
C350 C 0.57544 1.05676 0.82766 0.0
C351 C 0.54781 0.07748 0.81424 0.0
H352 H 0.68433 0.92123 0.77563 0.0
H353 H 0.53527 0.10639 0.82803 0.0
H354 H 0.51073 0.82363 0.86235 0.0
H355 H 0.67267 0.99124 0.00125 0.0
H356 H 0.58415 0.06992 0.85184 0.0
H357 H 0.51548 0.07698 0.77251 0.0
H358 H 0.67593 0.95609 0.94585 0.0
H359 H 0.67607 0.89172 0.71949 0.0
H360 H 0.52516 1.02189 0.72159 0.0
H361 H 0.56326 0.96245 0.6919 0.0
H362 H 0.43707 0.79961 0.88231 0.0
H363 H 0.62037 0.91396 0.69089 0.0
H364 H 0.59999 0.98253 0.0252 0.0
N365 N 0.53688 0.87485 0.90372 0.0
C366 C 0.53024 0.89388 0.93332 0.0
C367 C 0.46292 0.82644 0.89688 0.0
C368 C 0.48913 0.88119 0.94589 0.0
C369 C 0.50461 0.84011 0.88564 0.0
C370 C 0.4549 0.84757 0.92705 0.0
N371 N 0.60559 0.93083 0.93833 0.0
C372 C 0.644 0.95286 0.95607 0.0
C373 C 0.56254 0.94167 0.98291 0.0
C374 C 0.5661 0.92342 0.95139 0.0
C375 C 0.60122 0.96768 0.00087 0.0
C376 C 0.6423 0.97255 -0.01255 0.0
H377 H 0.42272 0.83676 0.93577 0.0
H378 H 0.45281 0.89245 -0.01291 0.0
H379 H 0.51732 0.94563 0.01962 0.0
O380 O 0.62678 0.84331 0.86011 0.0
O381 O 0.63972 0.9749 0.90211 0.0
O382 O 0.60704 1.01129 0.87464 0.0
O383 O 0.6215 0.85642 0.90869 0.0
O384 O 0.67445 0.93658 0.88309 0.0
O385 O 0.67435 0.93196 0.83269 0.0
O386 O 0.68019 1.03513 0.81977 0.0
O387 O 0.62617 0.90722 0.81547 0.0
O388 O 0.57036 0.87461 0.84024 0.0
O389 O 0.68722 1.02007 0.86226 0.0
O390 O 0.56069 0.97014 0.84073 0.0
O391 O 0.54469 0.92356 0.87431 0.0
C392 C 0.62076 1.00878 0.90099 0.0
C393 C 0.60819 0.77839 0.88071 0.0
C394 C 0.59707 0.71398 0.90356 0.0
C395 C 0.56679 0.68679 0.879 0.0
C396 C 0.57758 0.75092 0.85653 0.0
C397 C 0.55722 0.70522 0.85567 0.0
C398 C 0.61798 0.75957 0.9039 0.0
C399 C 0.69565 0.93231 0.85772 0.0
C400 C 0.62906 0.8274 0.8836 0.0
C401 C 0.48428 0.90126 0.97698 0.0
C402 C 0.52099 0.93157 -0.00451 0.0
C403 C 0.58753 0.87907 0.8146 0.0
C404 C 0.70877 0.09849 0.86368 0.0
C405 C 0.70302 0.177 0.86578 0.0
C406 C 0.71445 0.19172 0.89712 0.0
C407 C 0.72181 0.1139 0.89498 0.0
C408 C 0.70047 0.1306 0.84927 0.0
C409 C 0.7245 0.16024 0.91156 0.0
C410 C 0.53275 0.94808 0.85719 0.0
C411 C 0.70143 1.0488 0.84654 0.0
H412 H 0.54983 0.65164 0.87812 0.0
H413 H 0.5691 0.76478 0.83853 0.0
H414 H 0.53351 0.68416 0.83704 0.0
H415 H 0.64192 0.78081 0.92242 0.0
H416 H 0.71527 0.22713 0.91028 0.0
H417 H 0.72893 0.08994 0.90675 0.0
H418 H 0.68981 0.11909 0.82526 0.0
H419 H 0.73354 0.17151 0.93575 0.0
Tb420 Tb 0.95445 0.63453 0.36037 0.0
C421 C 0.92634 0.67791 0.50133 0.0
N422 N 0.90377 0.63771 0.48164 0.0
C423 C 0.89638 0.60053 0.52164 0.0
C424 C 0.93386 0.68139 0.53236 0.0
C425 C 0.89014 0.59868 0.49103 0.0
C426 C 0.91765 0.6423 0.54252 0.0
C427 C 0.97435 0.75417 0.50868 0.0
C428 C 0.94603 0.71385 0.48958 0.0
C429 C 0.97926 0.75928 0.54004 0.0
C430 C 0.95904 0.72292 0.55186 0.0
Tb431 Tb 0.88897 0.64067 0.43356 0.0
N432 N 0.94181 0.70673 0.45891 0.0
C433 C 0.99911 0.78677 0.49547 0.0
C434 C 0.96992 0.73619 0.44592 0.0
C435 C 0.9978 0.77706 0.46386 0.0
H436 H 0.874 0.56607 0.47503 0.0
H437 H 1.01894 0.8006 0.45322 0.0
H438 H 0.90377 0.66627 0.30856 0.0
H439 H 1.05358 0.50559 0.34511 0.0
H440 H 0.97193 0.72831 0.42179 0.0
H441 H 1.02131 0.8181 0.5093 0.0
H442 H 1.02969 0.57753 0.37198 0.0
H443 H 0.88488 0.56973 0.52909 0.0
H444 H 1.00034 0.7903 0.55508 0.0
H445 H 0.96468 0.72651 0.57585 0.0
H446 H 0.87202 0.63058 0.2555 0.0
H447 H 0.9228 0.64353 0.56617 0.0
H448 H 1.01883 0.45873 0.29421 0.0
N449 N 0.92842 0.60758 0.31049 0.0
C450 C 0.93587 0.56578 0.29475 0.0
C451 C 0.88969 0.61182 0.26633 0.0
C452 C 0.91927 0.54441 0.26433 0.0
C453 C 0.90752 0.63183 0.29637 0.0
C454 C 0.89484 0.5675 0.25041 0.0
N455 N 0.98081 0.57013 0.33714 0.0
C456 C 1.01443 0.55723 0.3498 0.0
C457 C 0.97617 0.50552 0.29221 0.0
C458 C 0.96359 0.54654 0.30847 0.0
C459 C 1.00813 0.49007 0.30596 0.0
C460 C 1.02791 0.51651 0.33467 0.0
H461 H 0.88127 0.55221 0.2271 0.0
H462 H 0.91641 0.48453 0.22521 0.0
H463 H 0.96656 0.45055 0.24961 0.0
O464 O 0.99759 0.65708 0.32906 0.0
O465 O 0.88564 0.63795 0.35592 0.0
O466 O 0.85454 0.59852 0.38871 0.0
O467 O 1.00805 0.69166 0.37718 0.0
O468 O 0.93327 0.56418 0.36971 0.0
O469 O 0.89994 0.57066 0.41622 0.0
O470 O 0.83944 0.67245 0.45664 0.0
O471 O 0.95388 0.62667 0.44203 0.0
O472 O 0.99406 0.64384 0.40208 0.0
O473 O 0.8317 0.59881 0.44482 0.0
O474 O 0.88593 0.7014 0.41721 0.0
O475 O 0.92129 0.69568 0.37149 0.0
C476 C 0.85257 0.60933 0.36301 0.0
C477 C 1.07278 0.68928 0.34904 0.0
C478 C 0.13614 0.66703 0.32086 0.0
C479 C 0.16501 0.69323 0.34633 0.0
C480 C 0.10243 0.71625 0.37397 0.0
C481 C 0.14814 0.71773 0.37269 0.0
C482 C 0.09 0.66493 0.32252 0.0
C483 C 0.91548 0.54616 0.39169 0.0
C484 C 1.02439 0.68809 0.3505 0.0
C485 C 0.92924 0.50184 0.24852 0.0
C486 C 0.95779 0.48249 0.26242 0.0
C487 C 0.99165 0.63616 0.42896 0.0
C488 C 0.76739 0.62474 0.44001 0.0
C489 C 0.71451 0.64524 0.40929 0.0
C490 C 0.68211 0.60637 0.41188 0.0
C491 C 0.73449 0.58667 0.44246 0.0
C492 C 0.75775 0.65294 0.42257 0.0
C493 C 0.6923 0.57717 0.42804 0.0
C494 C 0.8996 0.71811 0.39421 0.0
C495 C 0.81212 0.63284 0.45449 0.0
H496 H 0.20066 0.6955 0.34566 0.0
H497 H 0.09024 0.73597 0.39457 0.0
H498 H 0.17062 0.73823 0.39213 0.0
H499 H 1.06748 0.64402 0.30314 0.0
H500 H 0.64809 0.59946 0.40278 0.0
H501 H 0.74158 0.56409 0.45538 0.0
H502 H 0.78369 0.68145 0.41995 0.0
H503 H 0.66697 0.5478 0.4301 0.0
Tb504 Tb 0.12223 0.97643 0.8241 0.0
C505 C 0.11195 1.00611 0.96795 0.0
N506 N 0.14166 0.99273 0.94725 0.0
C507 C 0.20182 1.0459 0.98085 0.0
C508 C 0.12579 1.04084 -0.00431 0.0
C509 C 0.18639 1.01122 0.95367 0.0
C510 C 0.17135 0.06119 0.00182 0.0
C511 C 1.03636 0.99192 0.98409 0.0
C512 C 1.06802 0.98229 0.96222 0.0
C513 C 1.04919 1.02858 0.0109 0.0
C514 C 0.0939 1.05303 0.0167 0.0
Tb515 Tb 0.11278 0.93621 0.90334 0.0
N516 N 1.05741 0.94652 0.93647 0.0
C517 C 0.99358 0.9628 0.97909 0.0
C518 C 1.01704 0.91558 0.9328 0.0
C519 C 0.98421 0.9238 0.95367 0.0
H520 H 0.21047 0.99991 0.93783 0.0
H521 H 0.9518 0.90006 0.95014 0.0
H522 H 1.05368 1.04392 0.821 0.0
H523 H 0.16603 0.83666 0.73692 0.0
H524 H 1.00991 0.88518 0.91325 0.0
H525 H 0.96827 0.96892 -0.00465 0.0
H526 H 0.17639 0.89827 0.78587 0.0
H527 H 0.23722 0.06091 -0.01444 0.0
H528 H 1.02523 1.03705 0.02781 0.0
H529 H 0.10372 0.08022 0.0379 0.0
H530 H 0.99048 1.04298 0.78716 0.0
H531 H 0.18339 0.08805 0.02284 0.0
H532 H 0.10039 0.82389 0.70193 0.0
N533 N 1.06448 0.97919 0.79404 0.0
C534 C 1.05389 0.94465 0.76766 0.0
C535 C 1.00785 1.01492 0.7815 0.0
C536 C 1.01867 0.9428 0.74747 0.0
C537 C 1.04356 1.01543 0.80056 0.0
C538 C 0.99488 0.97805 0.75505 0.0
N539 N 0.11619 0.91886 0.77926 0.0
C540 C 0.14731 0.89267 0.77098 0.0
C541 C 1.07378 0.87893 0.73162 0.0
C542 C 1.08091 0.91333 0.75991 0.0
C543 C 0.1045 0.85063 0.72352 0.0
C544 C 0.14168 0.85785 0.74318 0.0
H545 H 0.96751 0.97793 0.74017 0.0
H546 H 0.98245 0.90464 0.70419 0.0
H547 H 1.03083 0.84859 0.69029 0.0
O548 O 0.16908 1.0405 0.83728 0.0
O549 O 0.12571 0.91165 0.83287 0.0
O550 O 1.07501 0.88664 0.86316 0.0
O551 O 0.15261 1.00345 0.78983 0.0
O552 O 0.18271 0.95641 0.8376 0.0
O553 O 0.18216 0.95099 0.88794 0.0
O554 O 0.10998 0.89893 0.93545 0.0
O555 O 0.14679 1.00007 0.8945 0.0
O556 O 0.10682 1.02616 0.86498 0.0
O557 O 0.13799 0.87548 0.89217 0.0
O558 O 1.04888 0.94442 0.88513 0.0
O559 O 1.0535 0.96724 0.83983 0.0
C560 C 0.08988 0.88202 0.83597 0.0
C561 C 0.16824 0.08444 0.80209 0.0
C562 C 0.18108 0.13281 0.76728 0.0
C563 C 0.15568 0.16203 0.78525 0.0
C564 C 0.14289 0.11388 0.81971 0.0
C565 C 0.13679 0.15255 0.81129 0.0
C566 C 0.18729 0.09414 0.77605 0.0
C567 C 0.20278 0.95373 0.86254 0.0
C568 C 0.17336 1.04198 0.80918 0.0
C569 C 1.00967 0.90702 0.71993 0.0
C570 C 1.03723 0.87513 0.712 0.0
C571 C 0.12396 1.02987 0.89182 0.0
C572 C 0.16447 0.85657 0.93451 0.0
C573 C 0.1847 0.8036 0.96002 0.0
C574 C 0.22636 0.83445 0.96953 0.0
C575 C 0.20532 0.88795 0.94503 0.0
C576 C 0.15442 0.81458 0.94191 0.0
C577 C 0.23654 0.87648 0.96201 0.0
C578 C 1.03125 0.95575 0.86252 0.0
C579 C 0.12958 0.86832 0.91858 0.0
H580 H 0.1499 0.19186 0.77898 0.0
H581 H 0.12748 0.10681 0.83973 0.0
H582 H 0.11706 0.17507 0.82485 0.0
H583 H 0.20713 0.07146 0.76268 0.0
H584 H 0.25032 0.82681 0.98356 0.0
H585 H 0.21247 0.92147 0.94075 0.0
H586 H 0.12234 0.79084 0.93412 0.0
H587 H 0.26817 0.90072 0.97003 0.0
Tb588 Tb 0.86959 0.14954 0.44639 0.0
C589 C 0.81811 1.03566 0.30491 0.0
N590 N 0.82715 0.08104 0.32113 0.0
C591 C 0.8672 0.10152 0.27996 0.0
C592 C 0.83476 1.02095 0.27596 0.0
C593 C 0.84946 0.11431 0.30851 0.0
C594 C 0.86049 1.05454 0.26382 0.0
C595 C 0.77602 0.95743 0.29976 0.0
C596 C 0.78931 1.00452 0.31657 0.0
C597 C 0.79442 0.94182 0.27162 0.0
C598 C 0.82379 0.97357 0.25972 0.0
Tb599 Tb 0.80093 0.09725 0.36892 0.0
N600 N 0.77188 1.02125 0.34352 0.0
C601 C 0.74366 0.92798 0.31136 0.0
C602 C 0.73852 0.99341 0.35417 0.0
C603 C 0.72436 0.94622 0.33848 0.0
H604 H 0.85479 0.15066 0.32078 0.0
H605 H 0.69867 0.92397 0.34732 0.0
H606 H 0.83153 0.23786 0.48747 0.0
H607 H 1.03439 0.11348 0.44528 0.0
H608 H 0.72374 1.00751 0.3752 0.0
H609 H 0.73255 0.89149 0.29921 0.0
H610 H 0.9526 0.09275 0.43834 0.0
H611 H 0.88601 0.12787 0.27044 0.0
H612 H 0.78516 0.90562 0.25849 0.0
H613 H 0.83669 0.96138 0.23758 0.0
H614 H 0.86246 0.31834 0.51913 0.0
H615 H 0.87405 1.04473 0.24166 0.0
H616 H 1.07365 0.19503 0.46961 0.0
N617 N 0.89514 0.22249 0.4782 0.0
C618 C 0.93988 0.23769 0.48333 0.0
C619 C 0.88468 0.29605 0.50912 0.0
C620 C 0.95926 0.28329 0.5009 0.0
C621 C 0.86723 0.25044 0.49133 0.0
C622 C 0.93097 0.31278 0.51362 0.0
N623 N 0.94497 0.16225 0.45724 0.0
C624 C 0.96892 0.12846 0.44901 0.0
C625 C 1.01265 0.21963 0.47755 0.0
C626 C 0.96591 0.20639 0.47219 0.0
C627 C 1.03758 0.18602 0.46682 0.0
C628 C 1.01553 0.14003 0.45301 0.0
H629 H 0.94444 0.34811 0.52733 0.0
H630 H 1.02169 0.33246 0.51882 0.0
H631 H 1.06865 0.27662 0.49805 0.0
O632 O 0.86801 0.15267 0.49278 0.0
O633 O 0.84902 0.20209 0.42801 0.0
O634 O 0.84244 0.16954 0.37583 0.0
O635 O 0.82655 0.09538 0.45921 0.0
O636 O 0.91439 0.14716 0.40865 0.0
O637 O 0.87216 0.10425 0.36336 0.0
O638 O 0.7632 0.14849 0.37798 0.0
O639 O 0.8096 1.04594 0.39297 0.0
O640 O 0.877 0.07896 0.4202 0.0
O641 O 0.74415 0.08641 0.34037 0.0
O642 O 0.76988 0.09215 0.41117 0.0
O643 O 0.80435 0.16355 0.43971 0.0
C644 C 0.85136 0.20661 0.40003 0.0
C645 C 0.85422 0.07854 0.50122 0.0
C646 C 0.91348 1.04976 0.51916 0.0
C647 C 0.88261 1.01016 0.52136 0.0
C648 C 0.82305 1.03921 0.50388 0.0
C649 C 0.83726 1.00525 0.51403 0.0
C650 C 0.89916 0.08367 0.50923 0.0
C651 C 0.91017 0.12582 0.37914 0.0
C652 C 0.84073 0.11199 0.48764 0.0
C653 C 1.00599 0.29741 0.50565 0.0
C654 C 1.03271 0.26564 0.49384 0.0
C655 C 0.84723 1.04175 0.40464 0.0
C656 C 0.73467 0.15659 0.33254 0.0
C657 C 0.7273 0.16351 0.28113 0.0
C658 C 0.73392 0.21186 0.29319 0.0
C659 C 0.74085 0.20505 0.34421 0.0
C660 C 0.72723 0.13602 0.30093 0.0
C661 C 0.74051 0.23245 0.32455 0.0
C662 C 0.76863 0.12976 0.43295 0.0
C663 C 0.73786 0.1279 0.35311 0.0
H664 H 0.89356 0.98324 0.5284 0.0
H665 H 0.78804 1.03432 0.4975 0.0
H666 H 0.81321 0.9747 0.51567 0.0
H667 H 0.92373 0.11331 0.50656 0.0
H668 H 0.73316 0.23355 0.27838 0.0
H669 H 0.74646 0.22182 0.36847 0.0
H670 H 0.72238 0.09871 0.29153 0.0
H671 H 0.74545 0.26975 0.33365 0.0
H672 H 0.92769 1.05891 0.33111 0.0
H673 H 0.09778 0.24043 0.26796 0.0
H674 H 0.98066 0.20015 0.38477 0.0
H675 H 1.05572 0.09445 0.22057 0.0
H676 H 1.06158 0.2255 0.31304 0.0
H677 H 0.98181 0.06949 0.29323 0.0
C678 C 0.95161 0.09188 0.33522 0.0
C679 C 0.94971 0.12882 0.36094 0.0
C680 C 1.06079 0.19666 0.29292 0.0
C681 C 1.01108 0.1417 0.31726 0.0
C682 C 1.08114 0.20519 0.26709 0.0
C683 C 1.07935 0.16869 0.24031 0.0
C684 C 1.03821 0.15133 0.29191 0.0
C685 C 1.05811 0.12363 0.2407 0.0
C686 C 0.98239 0.09801 0.31352 0.0
C687 C 0.98129 0.1708 0.36524 0.0
N688 N 1.03799 0.11634 0.26594 0.0
N689 N 1.01025 0.17644 0.34326 0.0
H690 H 0.58416 0.12707 0.70546 0.0
H691 H 0.62978 0.2135 0.87662 0.0
H692 H 0.50756 0.22147 0.75672 0.0
H693 H 0.73854 0.20282 0.8172 0.0
H694 H 0.58494 0.22325 0.83584 0.0
H695 H 0.64076 0.15432 0.74796 0.0
C696 C 0.57943 0.15352 0.72574 0.0
C697 C 0.5414 0.17198 0.72794 0.0
C698 C 0.61931 0.22085 0.83219 0.0
C699 C 0.60552 0.20344 0.77615 0.0
C700 C 0.64506 0.21595 0.85557 0.0
C701 C 0.68739 0.20657 0.84983 0.0
C702 C 0.63617 0.21542 0.80315 0.0
C703 C 0.70568 0.20945 0.82214 0.0
C704 C 0.61186 0.16956 0.74969 0.0
C705 C 0.53665 0.2065 0.75444 0.0
N706 N 0.67931 0.21187 0.79929 0.0
N707 N 0.56811 0.22071 0.77787 0.0
H708 H 0.80604 0.51774 0.34861 0.0
H709 H 0.74289 0.50857 0.17899 0.0
H710 H 0.82026 0.64265 0.32066 0.0
H711 H 0.66439 0.41337 0.22271 0.0
H712 H 0.78052 0.55422 0.22879 0.0
H713 H 0.76055 0.47412 0.30103 0.0
C714 C 0.79882 0.53612 0.33283 0.0
C715 C 0.81733 0.58378 0.33843 0.0
C716 C 0.75485 0.52322 0.22733 0.0
C717 C 0.76701 0.53407 0.28371 0.0
C718 C 0.7334 0.49706 0.19889 0.0
C719 C 0.70029 0.45643 0.19633 0.0
C720 C 0.74383 0.50823 0.25336 0.0
C721 C 0.68969 0.44368 0.22319 0.0
C722 C 0.77332 0.51121 0.30557 0.0
C723 C 0.80729 0.60575 0.31697 0.0
N724 N 0.71159 0.46899 0.2504 0.0
N725 N 0.78358 0.5807 0.29039 0.0
H726 H 1.07156 0.699 0.65966 0.0
H727 H 0.13758 0.81784 0.83463 0.0
H728 H 0.16816 0.66193 0.71086 0.0
H729 H 1.02748 0.84255 0.7886 0.0
H730 H 0.14012 0.75097 0.79159 0.0
H731 H 1.04677 0.74294 0.70756 0.0
C732 C 0.08713 0.69958 0.68098 0.0
C733 C 0.12251 0.67744 0.68127 0.0
C734 C 0.11455 0.77009 0.79104 0.0
C735 C 0.09454 0.72777 0.73605 0.0
C736 C 0.1129 0.80799 0.81577 0.0
C737 C 1.08229 0.83532 0.8149 0.0
C738 C 0.08603 0.76023 0.76501 0.0
C739 C 1.05146 0.82193 0.78989 0.0
C740 C 1.07296 0.72465 0.70831 0.0
C741 C 0.14157 0.67947 0.70953 0.0
N742 N 1.0546 0.78565 0.76554 0.0
N743 N 0.12768 0.7046 0.73572 0.0
H744 H 0.29604 0.11308 0.59123 0.0
H745 H 0.22225 0.21717 0.75997 0.0
H746 H 0.33226 0.25776 0.64244 0.0
H747 H 0.18683 0.07109 0.71169 0.0
H748 H 0.25823 0.23268 0.71521 0.0
H749 H 0.25133 0.09678 0.63318 0.0
C750 C 0.29417 0.14142 0.6111 0.0
C751 C 0.31815 0.18674 0.61348 0.0
C752 C 0.24246 0.1972 0.7143 0.0
C753 C 0.26738 0.16852 0.66142 0.0
C754 C 0.22164 0.18837 0.73985 0.0
C755 C 0.20158 0.14276 0.73968 0.0
C756 C 0.24335 0.16018 0.68827 0.0
C757 C 0.20249 0.10674 0.71301 0.0
C758 C 0.26884 0.13212 0.63508 0.0
C759 C 0.31468 0.22221 0.63976 0.0
N760 N 0.22315 0.1162 0.68841 0.0
N761 N 0.29001 0.21232 0.66269 0.0
H762 H 0.58183 0.05994 0.11372 0.0
H763 H 0.77768 0.18652 0.23614 0.0
H764 H 0.704 0.1467 0.09723 0.0
H765 H 0.66035 0.09081 0.25089 0.0
H766 H 0.7606 0.15529 0.18117 0.0
H767 H 0.61933 1.05052 0.15776 0.0
C768 C 0.61733 0.07472 0.11837 0.0
C769 C 0.63989 0.10457 0.10227 0.0
C770 C 0.73879 0.14071 0.19636 0.0
C771 C 0.68231 0.09617 0.15326 0.0
C772 C 0.74844 0.15872 0.22769 0.0
C773 C 0.71985 0.14177 0.24792 0.0
C774 C 0.69953 0.10655 0.18524 0.0
C775 C 0.68295 0.10507 0.23594 0.0
C776 C 0.6386 0.07011 0.14385 0.0
C777 C 0.6856 0.12356 0.10933 0.0
N778 N 0.67329 0.08934 0.20537 0.0
N779 N 0.70503 0.12029 0.13494 0.0
H780 H 0.50202 0.87944 0.79774 0.0
H781 H 0.49427 0.7092 0.63112 0.0
H782 H 0.61739 0.82819 0.76308 0.0
H783 H 0.41894 0.81569 0.6512 0.0
H784 H 0.536 0.74588 0.68071 0.0
H785 H 0.46552 0.84887 0.7461 0.0
C786 C 0.51932 0.86106 0.77937 0.0
C787 C 0.5626 0.85592 0.78468 0.0
C788 C 0.51101 0.76181 0.67402 0.0
C789 C 0.52111 0.82071 0.72569 0.0
C790 C 0.4876 0.7412 0.64562 0.0
C791 C 0.45417 0.76032 0.63676 0.0
C792 C 0.49979 0.80091 0.69418 0.0
C793 C 0.44542 0.80072 0.6569 0.0
C794 C 0.49871 0.84408 0.74987 0.0
C795 C 0.58385 0.83252 0.75993 0.0
N796 N 0.46763 0.81935 0.68485 0.0
N797 N 0.5628 0.81541 0.73162 0.0
H798 H 0.11256 0.66172 0.26232 0.0
H799 H 0.24786 0.46743 0.18864 0.0
H800 H 0.19985 0.61513 0.31468 0.0
H801 H 0.13539 0.49092 0.14433 0.0
H802 H 0.24639 0.5366 0.23123 0.0
H803 H 0.13563 0.61355 0.21562 0.0
C804 C 0.13674 0.64146 0.26398 0.0
C805 C 0.15366 0.64173 0.29245 0.0
C806 C 0.22286 0.52731 0.21177 0.0
C807 C 0.18062 0.58689 0.23902 0.0
C808 C 0.22395 0.48822 0.1875 0.0
C809 C 0.19174 0.47401 0.16324 0.0
C810 C 0.18917 0.55173 0.21151 0.0
C811 C 0.16086 0.5012 0.16272 0.0
C812 C 0.15012 0.61422 0.23731 0.0
C813 C 0.18587 0.61582 0.2932 0.0
N814 N 0.15999 0.53851 0.1867 0.0
N815 N 0.19793 0.58894 0.26684 0.0
H816 H 1.05461 0.06063 0.92157 0.0
H817 H 0.21752 0.24854 0.05642 0.0
H818 H 0.19811 0.09147 0.92038 0.0
H819 H 1.07401 0.21874 0.05746 0.0
H820 H 0.21137 0.18888 0.00719 0.0
H821 H 1.06059 0.12031 0.97081 0.0
C822 C 0.08724 0.08102 0.93137 0.0
C823 C 0.12596 0.07156 0.91727 0.0
C824 C 0.18121 0.19487 0.01839 0.0
C825 C 0.13331 0.13845 0.97344 0.0
C826 C 0.18484 0.22841 0.04658 0.0
C827 C 0.14619 0.23819 0.06062 0.0
C828 C 0.13863 0.17123 0.00446 0.0
C829 C 0.10448 0.21197 0.04702 0.0
C830 C 0.09077 0.11455 0.95956 0.0
C831 C 0.16759 0.09802 0.93084 0.0
N832 N 0.10174 0.1798 0.01955 0.0
N833 N 0.17024 0.13015 0.95831 0.0
H834 H 0.49551 0.12494 0.48327 0.0
H835 H 0.76213 0.18873 0.48893 0.0
H836 H 0.57733 0.20916 0.56392 0.0
H837 H 0.68224 0.08091 0.41587 0.0
H838 H 0.69462 0.19836 0.51595 0.0
H839 H 0.56287 0.10991 0.45752 0.0
C840 C 0.52762 0.14029 0.49559 0.0
C841 C 0.53066 0.16876 0.52574 0.0
C842 C 0.69177 0.17247 0.49406 0.0
C843 C 0.60818 0.15144 0.49637 0.0
C844 C 0.73035 0.16716 0.4785 0.0
C845 C 0.72785 0.13428 0.44995 0.0
C846 C 0.65008 0.14499 0.48091 0.0
C847 C 0.68572 0.1067 0.43784 0.0
C848 C 0.5661 0.13143 0.48091 0.0
C849 C 0.57324 0.1869 0.54072 0.0
N850 N 0.64844 0.11292 0.45326 0.0
N851 N 0.61029 0.17828 0.52581 0.0
H852 H 0.60939 0.62699 0.9007 0.0
H853 H 0.65299 0.68268 0.08141 0.0
H854 H 0.60626 0.75896 0.96475 0.0
H855 H 0.65909 0.55177 0.01717 0.0
H856 H 0.63642 0.7115 0.03896 0.0
H857 H 0.6266 0.5984 0.94314 0.0
C858 C 0.61207 0.64988 0.92368 0.0
C859 C 0.60656 0.69553 0.9291 0.0
C860 C 0.64136 0.67645 0.03416 0.0
C861 C 0.62671 0.66318 0.97784 0.0
C862 C 0.65111 0.66007 0.0584 0.0
C863 C 0.65718 0.6146 0.05294 0.0
C864 C 0.6377 0.64722 0.00417 0.0
C865 C 0.65385 0.58675 0.02258 0.0
C866 C 0.62219 0.63364 0.94791 0.0
C867 C 0.61094 0.72377 0.95939 0.0
N868 N 0.64429 0.60346 -0.0006 0.0
N869 N 0.62075 0.70716 0.98256 0.0
H870 H 0.20397 0.66549 0.56324 0.0
H871 H 1.07623 0.65411 0.40912 0.0
H872 H 0.26905 0.72418 0.49485 0.0
H873 H 1.007 0.63556 0.48856 0.0
H874 H 0.1473 0.67314 0.43829 0.0
H875 H 0.13243 0.64894 0.53498 0.0
C876 C 0.20334 0.67484 0.54222 0.0
C877 C 0.24304 0.69572 0.53136 0.0
C878 C 0.11661 0.665 0.4494 0.0
C879 C 0.16051 0.6764 0.49842 0.0
C880 C 1.07577 0.65403 0.43272 0.0
C881 C 1.03506 0.64357 0.44632 0.0
C882 C 0.1173 0.66498 0.48003 0.0
C883 C 1.03722 0.64338 0.47697 0.0
C884 C 0.16228 0.66546 0.52609 0.0
C885 C 0.23966 0.70759 0.50406 0.0
N886 N 1.07756 0.65383 0.49272 0.0
N887 N 0.19926 0.69736 0.48841 0.0
H888 H 0.68317 1.04064 0.94935 0.0
H889 H 0.59508 0.27188 0.0239 0.0
H890 H 0.57118 0.0744 0.91115 0.0
H891 H 0.70817 0.23844 0.06105 0.0
H892 H 0.58613 0.20032 0.98211 0.0
H893 H 0.69205 0.11236 -0.00909 0.0
C894 C 0.65985 0.06263 0.95004 0.0
C895 C 0.62579 1.051 0.9271 0.0
C896 C 0.61312 0.2088 -0.00071 0.0
C897 C 0.63671 0.13417 0.97406 0.0
C898 C 0.61856 0.25 0.02298 0.0
C899 C 0.65284 0.26158 0.04579 0.0
C900 C 0.64202 0.17879 -0.00152 0.0
C901 C 0.68127 0.23091 0.04396 0.0
C902 C 0.66532 0.10398 0.97357 0.0
C903 C 0.5978 0.08196 0.92847 0.0
N904 N 0.67519 0.19097 0.02079 0.0
N905 N 0.60385 0.12207 0.95152 0.0
H906 H 0.50753 0.74241 0.42199 0.0
H907 H 0.74919 0.74022 0.42657 0.0
H908 H 0.61282 0.85076 0.47674 0.0
H909 H 0.64898 0.63471 0.36467 0.0
H910 H 0.70791 0.7974 0.42428 0.0
H911 H 0.56075 0.72196 0.38366 0.0
C912 C 0.5416 0.76273 0.42556 0.0
C913 C 0.5564 0.79657 0.45333 0.0
C914 C 0.69523 0.76192 0.41058 0.0
C915 C 0.61749 0.77304 0.4099 0.0
C916 C 0.71919 0.72879 0.41169 0.0
C917 C 0.70081 0.6814 0.39771 0.0
C918 C 0.65184 0.74722 0.3967 0.0
C919 C 0.66259 0.67018 0.37797 0.0
C920 C 0.57198 0.75128 0.40356 0.0
C921 C 0.60022 0.8233 0.45614 0.0
N922 N 0.6382 0.70245 0.3791 0.0
N923 N 0.6296 0.81001 0.43514 0.0
H924 H 0.10515 0.77106 0.98173 0.0
H925 H 0.17082 0.54033 -0.00335 0.0
H926 H 0.2339 0.7394 0.96084 0.0
H927 H 1.04211 0.57199 0.01766 0.0
H928 H 0.19441 0.61299 0.98333 0.0
H929 H 1.08163 0.69855 -0.00472 0.0
C930 C 0.12843 0.74867 0.97991 0.0
C931 C 0.1714 0.76093 0.96985 0.0
C932 C 0.16102 0.60414 -0.00915 0.0
C933 C 0.1448 0.67807 -0.01445 0.0
C934 C 0.14757 0.56276 -0.00144 0.0
C935 C 0.10458 0.55043 0.00857 0.0
C936 C 0.13126 0.63349 -0.00689 0.0
C937 C 1.07547 0.58018 0.00996 0.0
C938 C 0.11503 0.70738 -0.01226 0.0
C939 C 0.20055 0.73125 0.96857 0.0
N940 N 0.08943 0.62051 0.00243 0.0
N941 N 0.18662 0.69101 0.97621 0.0
H942 H 0.16723 0.12602 0.45576 0.0
H943 H 0.96694 0.11007 0.5663 0.0
H944 H 0.14782 0.23843 0.53167 0.0
H945 H 0.96821 1.00764 0.48045 0.0
H946 H 1.04382 0.14768 0.56058 0.0
H947 H 0.1016 0.07516 0.46889 0.0
C948 C 0.14847 0.14001 0.47484 0.0
C949 C 0.16199 0.1864 0.49237 0.0
C950 C 1.02786 0.11609 0.54343 0.0
C951 C 0.08874 0.1285 0.50827 0.0
C952 C 0.98445 0.09409 0.54708 0.0
C953 C 0.96171 1.05585 0.52382 0.0
C954 C 1.04818 0.09966 0.51628 0.0
C955 C 0.98509 1.03689 0.49894 0.0
C956 C 0.11166 0.11096 0.48262 0.0
C957 C 0.1376 0.20303 0.51728 0.0
N958 N 1.02694 0.05969 0.49541 0.0
N959 N 0.1021 0.17399 0.52456 0.0
H960 H 1.01857 0.37925 0.07498 0.0
H961 H 0.79138 0.34412 0.16254 0.0
H962 H 1.01099 0.34145 0.15904 0.0
H963 H 0.80424 0.39064 0.08165 0.0
H964 H 0.8708 0.34166 0.16169 0.0
H965 H 0.94 0.38261 0.07707 0.0
C966 C 1.00059 0.37156 0.09388 0.0
C967 C 1.02211 0.36 0.11675 0.0
C968 C 0.85625 0.35256 0.14418 0.0
C969 C 0.93081 0.3637 0.11941 0.0
C970 C 0.81072 0.35379 0.14458 0.0
C971 C 0.79063 0.36767 0.12215 0.0
C972 C 0.88219 0.36513 0.12111 0.0
C973 C 0.81794 0.38026 0.09968 0.0
C974 C 0.95541 0.37356 0.09512 0.0
C975 C 0.99629 0.3506 0.14079 0.0
N976 N 0.86194 0.37857 0.09971 0.0
N977 N 0.95224 0.35254 0.14143 0.0
H978 H 0.47324 0.08142 0.58799 0.0
H979 H 0.29617 0.84405 0.58888 0.0
H980 H 0.33418 1.05466 0.55966 0.0
H981 H 0.4385 0.85692 0.59011 0.0
H982 H 0.30813 0.92484 0.58578 0.0
H983 H 0.46034 1.00338 0.59536 0.0
C984 C 0.43996 1.05931 0.58327 0.0
C985 C 0.40487 0.07537 0.57308 0.0
C986 C 0.3368 0.91016 0.58709 0.0
C987 C 0.38948 0.98499 0.58201 0.0
C988 C 0.32994 0.86407 0.58928 0.0
C989 C 0.36633 0.84329 0.59004 0.0
C990 C 0.38046 0.9363 0.586 0.0
C991 C 0.40932 0.87114 0.58964 0.0
C992 C 0.43256 1.01451 0.58752 0.0
C993 C 0.36249 1.04436 0.56741 0.0
N994 N 0.41512 0.91566 0.58773 0.0
N995 N 0.35602 1.00128 0.5721 0.0
H996 H 0.4834 0.97245 0.81595 0.0
H997 H 0.25789 0.94234 0.90597 0.0
H998 H 0.47168 0.93135 0.8989 0.0
H999 H 0.26055 0.96486 0.8171 0.0
H1000 H 0.33704 0.94174 0.90428 0.0
H1001 H 0.40356 0.97417 0.81659 0.0
C1002 C 0.46426 0.96391 0.83433 0.0
C1003 C 0.48463 0.95126 0.85725 0.0
C1004 C 0.32043 0.94679 0.88507 0.0
C1005 C 0.39289 0.95327 0.85816 0.0
C1006 C 0.27485 0.94703 0.88603 0.0
C1007 C 0.25171 0.95331 0.86166 0.0
C1008 C 0.34393 0.95337 0.8596 0.0
C1009 C 0.27648 0.95965 0.8365 0.0
C1010 C 0.41854 0.9647 0.83461 0.0
C1011 C 0.45772 0.94051 0.88041 0.0
N1012 N 0.32101 0.95963 0.83617 0.0
N1013 N 0.41367 0.9418 0.88026 0.0
H1014 H 0.8511 0.23599 0.34698 0.0
H1015 H 0.9158 0.50921 0.43938 0.0
H1016 H 0.87712 0.29096 0.44411 0.0
H1017 H 0.90453 0.46528 0.34125 0.0
H1018 H 0.90133 0.4285 0.43975 0.0
H1019 H 0.869 0.31635 0.3427 0.0
C1020 C 0.86063 0.26459 0.36747 0.0
C1021 C 0.8623 0.2556 0.3961 0.0
C1022 C 0.90206 0.43597 0.41797 0.0
C1023 C 0.88314 0.349 0.39122 0.0
C1024 C 0.91042 0.48264 0.41769 0.0
C1025 C 0.9114 0.49518 0.39024 0.0
C1026 C 0.89394 0.39981 0.39056 0.0
C1027 C 0.90446 0.45802 0.36307 0.0
C1028 C 0.87091 0.31078 0.36495 0.0
C1029 C 0.87486 0.29503 0.42155 0.0
N1030 N 0.89573 0.41236 0.36393 0.0
N1031 N 0.88454 0.33913 0.4185 0.0
H1032 H 0.29973 0.37328 0.16572 0.0
H1033 H 0.51916 0.35835 0.06967 0.0
H1034 H 0.29601 0.33455 0.06769 0.0
H1035 H 0.51988 0.37682 0.16658 0.0
H1036 H 0.43845 0.35356 0.06877 0.0
H1037 H 0.38034 0.3772 0.16678 0.0
C1038 C 0.31577 0.36555 0.14435 0.0
C1039 C 0.29081 0.35435 0.11653 0.0
C1040 C 0.4562 0.35859 0.09026 0.0
C1041 C 0.38393 0.35938 0.11757 0.0
C1042 C 0.50249 0.36147 0.09082 0.0
C1043 C 0.52677 0.36777 0.11824 0.0
C1044 C 0.43355 0.36236 0.11735 0.0
C1045 C 0.50285 0.37157 0.14483 0.0
C1046 C 0.362 0.36806 0.14499 0.0
C1047 C 0.31387 0.34504 0.08967 0.0
N1048 N 0.45786 0.36889 0.14372 0.0
N1049 N 0.35888 0.34789 0.09085 0.0
H1050 H 0.40855 0.36411 0.61756 0.0
H1051 H 0.39787 0.55333 0.52757 0.0
H1052 H 0.41531 0.33378 0.52008 0.0
H1053 H 0.37308 0.57476 0.62276 0.0
H1054 H 0.40806 0.47537 0.52467 0.0
H1055 H 0.39944 0.44194 0.61989 0.0
C1056 C 0.40822 0.37362 0.59649 0.0
C1057 C 0.41279 0.34149 0.5685 0.0
C1058 C 0.40055 0.49707 0.54625 0.0
C1059 C 0.40232 0.43247 0.5712 0.0
C1060 C 0.39487 0.54204 0.54804 0.0
C1061 C 0.38476 0.57166 0.57558 0.0
C1062 C 0.39649 0.48078 0.57221 0.0
C1063 C 0.38093 0.55388 0.60101 0.0
C1064 C 0.40292 0.41847 0.59792 0.0
C1065 C 0.4121 0.35687 0.54223 0.0
N1066 N 0.38687 0.5101 0.59871 0.0
N1067 N 0.40704 0.40093 0.54423 0.0
H1068 H 0.75049 0.92557 0.80956 0.0
H1069 H 0.97855 0.97516 0.91119 0.0
H1070 H 0.7546 0.94689 0.90677 0.0
H1071 H 0.97144 0.93446 0.81311 0.0
H1072 H 0.89754 0.96831 0.91031 0.0
H1073 H 0.83138 0.93223 0.81063 0.0
C1074 C 0.76826 0.93161 0.83118 0.0
C1075 C 0.74519 0.93558 0.85811 0.0
C1076 C 0.91356 0.96065 0.88893 0.0
C1077 C 0.83884 0.94353 0.85951 0.0
C1078 C 0.95991 0.964 0.88944 0.0
C1079 C 0.98205 0.95419 0.86222 0.0
C1080 C 0.88869 0.94789 0.86093 0.0
C1081 C 0.95609 0.94234 0.83472 0.0
C1082 C 0.81468 0.93541 0.83175 0.0
C1083 C 0.77059 0.94345 0.88537 0.0
N1084 N 0.91103 0.93942 0.83479 0.0
N1085 N 0.81578 0.94724 0.88536 0.0
H1086 H 0.89098 0.75521 0.3458 0.0
H1087 H 0.88949 1.01421 0.44753 0.0
H1088 H 0.88856 0.78991 0.44358 0.0
H1089 H 0.82335 0.95906 0.35807 0.0
H1090 H 0.90075 0.9364 0.44503 0.0
H1091 H 0.87747 0.8324 0.34798 0.0
C1092 C 0.88769 0.77885 0.36774 0.0
C1093 C 0.89073 0.76515 0.3945 0.0
C1094 C 0.8837 0.94119 0.4259 0.0
C1095 C 0.87622 0.85511 0.39723 0.0
C1096 C 0.87724 0.98588 0.4273 0.0
C1097 C 0.85469 0.9938 0.40316 0.0
C1098 C 0.86902 0.90358 0.39966 0.0
C1099 C 0.84011 0.95503 0.3775 0.0
C1100 C 0.87983 0.82309 0.36896 0.0
C1101 C 0.88614 0.79811 0.42221 0.0
N1102 N 0.84787 0.9122 0.37631 0.0
N1103 N 0.8797 0.84117 0.42284 0.0
loop_
_geom_bond_atom_site_label_1
_geom_bond_atom_site_label_2
_geom_bond_distance
_geom_bond_site_symmetry_2
_ccdc_geom_bond_type
Tb0 N29 2.617 1_455 S
Tb0 N35 2.572 . S
Tb0 O44 2.465 . S
Tb0 O45 2.387 . S
Tb0 O47 2.428 . S
Tb0 O48 2.308 . S
Tb0 O52 2.349 . S
Tb0 O55 2.393 1_455 S
Tb0 C64 2.802 . S
C1 N2 1.379 . S
C1 C4 1.416 . S
C1 C8 1.424 . S
N2 C1 1.379 . S
N2 C5 1.334 . S
N2 Tb11 2.617 . S
C3 C5 1.390 . S
C3 C6 1.339 . S
C3 H23 0.930 . S
C4 C1 1.416 . S
C4 C6 1.416 . S
C4 C10 1.448 . S
C5 N2 1.334 . S
C5 C3 1.390 . S
C5 H16 0.930 . S
C6 C3 1.339 . S
C6 C4 1.416 . S
C6 H27 0.930 . S
C7 C8 1.413 . S
C7 C9 1.427 . S
C7 C13 1.416 1_455 S
C8 C1 1.424 . S
C8 C7 1.413 . S
C8 N12 1.361 . S
C9 C7 1.427 . S
C9 C10 1.328 . S
C9 H24 0.929 . S
C10 C4 1.448 . S
C10 C9 1.328 . S
C10 H25 0.930 . S
Tb11 N2 2.617 . S
Tb11 N12 2.572 . S
Tb11 O46 2.349 . S
Tb11 O49 2.393 . S
Tb11 O50 2.465 1_455 S
Tb11 O51 2.387 . S
Tb11 O53 2.428 . S
Tb11 O54 2.308 1_455 S
Tb11 C75 2.802 . S
N12 C8 1.361 . S
N12 Tb11 2.572 . S
N12 C14 1.340 1_455 S
C13 C7 1.416 1_655 S
C13 C15 1.332 . S
C13 H21 0.931 . S
C14 N12 1.340 1_655 S
C14 C15 1.407 . S
C14 H20 0.930 . S
C15 C13 1.332 . S
C15 C14 1.407 . S
C15 H17 0.929 . S
H16 C5 0.930 . S
H17 C15 0.929 . S
H18 C33 0.930 . S
H19 C40 0.929 . S
H20 C14 0.930 . S
H21 C13 0.931 . S
H22 C36 0.930 . S
H23 C3 0.930 . S
H24 C9 0.929 . S
H25 C10 0.930 . S
H26 C31 0.930 . S
H27 C6 0.930 . S
H28 C39 0.931 . S
N29 Tb0 2.617 1_655 S
N29 C30 1.379 1_654 S
N29 C33 1.334 . S
C30 N29 1.379 1_456 S
C30 C32 1.416 1_455 S
C30 C38 1.424 . S
C31 H26 0.930 . S
C31 C33 1.390 1_556 S
C31 C34 1.339 . S
C32 C30 1.416 1_655 S
C32 C34 1.416 . S
C32 C65 1.449 . S
C33 H18 0.930 . S
C33 N29 1.334 . S
C33 C31 1.390 1_554 S
C34 C31 1.339 . S
C34 C32 1.416 . S
C34 H41 0.930 . S
N35 Tb0 2.572 . S
N35 C36 1.340 . S
N35 C38 1.361 1_554 S
C36 H22 0.930 . S
C36 N35 1.340 . S
C36 C40 1.407 1_554 S
C37 C38 1.413 . S
C37 C39 1.416 . S
C37 C66 1.427 . S
C38 C30 1.424 . S
C38 N35 1.361 1_556 S
C38 C37 1.413 . S
C39 H28 0.931 . S
C39 C37 1.416 . S
C39 C40 1.332 . S
C40 H19 0.929 . S
C40 C36 1.407 1_556 S
C40 C39 1.332 . S
H41 C34 0.930 . S
H42 C65 0.931 . S
H43 C66 0.929 . S
O44 Tb0 2.465 . S
O44 C64 1.264 . S
O45 Tb0 2.387 . S
O45 C56 1.264 . S
O46 Tb11 2.349 . S
O46 C56 1.243 . S
O47 Tb0 2.428 . S
O47 C64 1.256 . S
O48 Tb0 2.308 . S
O48 C63 1.266 . S
O49 Tb11 2.393 . S
O49 C63 1.248 . S
O50 Tb11 2.465 1_655 S
O50 C75 1.264 1_655 S
O51 Tb11 2.387 . S
O51 C67 1.264 . S
O52 Tb0 2.349 . S
O52 C67 1.243 . S
O53 Tb11 2.428 . S
O53 C75 1.256 . S
O54 Tb11 2.308 1_655 S
O54 C74 1.266 . S
O55 Tb0 2.393 1_655 S
O55 C74 1.248 . S
C56 O45 1.264 . S
C56 O46 1.243 . S
C57 C60 1.399 . S
C57 C62 1.383 . S
C57 C64 1.496 . S
C58 C59 1.399 . S
C58 C62 1.389 . S
C59 C58 1.399 . S
C59 C61 1.380 . S
C59 H76 0.929 . S
C60 C57 1.399 . S
C60 C61 1.392 . S
C60 H77 0.929 . S
C61 C59 1.380 . S
C61 C60 1.392 . S
C61 H78 0.929 . S
C62 C57 1.383 . S
C62 C58 1.389 . S
C62 H79 0.931 . S
C63 O48 1.266 . S
C63 O49 1.248 . S
C64 Tb0 2.802 . S
C64 O44 1.264 . S
C64 O47 1.256 . S
C64 C57 1.496 . S
C65 C32 1.449 . S
C65 H42 0.931 . S
C65 C66 1.327 1_655 S
C66 C37 1.427 . S
C66 H43 0.929 . S
C66 C65 1.327 1_455 S
C67 O51 1.264 . S
C67 O52 1.243 . S
C68 C71 1.399 . S
C68 C72 1.383 1_455 S
C68 C75 1.496 . S
C69 C70 1.399 . S
C69 C72 1.389 . S
C70 C69 1.399 . S
C70 C73 1.380 1_655 S
C70 H80 0.929 . S
C71 C68 1.399 . S
C71 C73 1.392 . S
C71 H81 0.929 . S
C72 C68 1.383 1_655 S
C72 C69 1.389 . S
C72 H82 0.931 . S
C73 C70 1.380 1_455 S
C73 C71 1.392 . S
C73 H83 0.929 . S
C74 O54 1.266 . S
C74 O55 1.248 . S
C75 Tb11 2.802 . S
C75 O50 1.264 1_455 S
C75 O53 1.256 . S
C75 C68 1.496 . S
H76 C59 0.929 . S
H77 C60 0.929 . S
H78 C61 0.929 . S
H79 C62 0.931 . S
H80 C70 0.929 . S
H81 C71 0.929 . S
H82 C72 0.931 . S
H83 C73 0.929 . S
Tb84 N113 2.617 . S
Tb84 N119 2.572 . S
Tb84 O128 2.465 . S
Tb84 O129 2.387 . S
Tb84 O131 2.428 . S
Tb84 O132 2.308 . S
Tb84 O136 2.349 . S
Tb84 O139 2.393 . S
Tb84 C148 2.802 . S
C85 N86 1.379 . S
C85 C88 1.416 . S
C85 C92 1.424 . S
N86 C85 1.379 . S
N86 C89 1.334 . S
N86 Tb95 2.617 . S
C87 C89 1.390 . S
C87 C90 1.339 . S
C87 H107 0.930 . S
C88 C85 1.416 . S
C88 C90 1.416 . S
C88 C94 1.448 1_545 S
C89 N86 1.334 . S
C89 C87 1.390 . S
C89 H100 0.930 . S
C90 C87 1.339 . S
C90 C88 1.416 . S
C90 H111 0.930 . S
C91 C92 1.413 1_565 S
C91 C93 1.427 . S
C91 C97 1.416 . S
C92 C85 1.424 . S
C92 C91 1.413 1_545 S
C92 N96 1.361 . S
C93 C91 1.427 . S
C93 C94 1.328 . S
C93 H108 0.929 . S
C94 C88 1.448 1_565 S
C94 C93 1.328 . S
C94 H109 0.930 . S
Tb95 N86 2.617 . S
Tb95 N96 2.572 . S
Tb95 O130 2.349 . S
Tb95 O133 2.393 . S
Tb95 O134 2.465 . S
Tb95 O135 2.387 . S
Tb95 O137 2.428 . S
Tb95 O138 2.308 . S
Tb95 C159 2.802 . S
N96 C92 1.361 . S
N96 Tb95 2.572 . S
N96 C98 1.340 . S
C97 C91 1.416 . S
C97 C99 1.332 1_565 S
C97 H105 0.931 . S
C98 N96 1.340 . S
C98 C99 1.407 . S
C98 H104 0.930 . S
C99 C97 1.332 1_545 S
C99 C98 1.407 . S
C99 H101 0.929 . S
H100 C89 0.930 . S
H101 C99 0.929 . S
H102 C117 0.930 . S
H103 C124 0.929 . S
H104 C98 0.930 . S
H105 C97 0.931 . S
H106 C120 0.930 . S
H107 C87 0.930 . S
H108 C93 0.929 . S
H109 C94 0.930 . S
H110 C115 0.930 . S
H111 C90 0.930 . S
H112 C123 0.931 . S
N113 Tb84 2.617 . S
N113 C114 1.379 . S
N113 C117 1.334 . S
C114 N113 1.379 . S
C114 C116 1.416 . S
C114 C122 1.424 . S
C115 H110 0.930 . S
C115 C117 1.390 . S
C115 C118 1.339 . S
C116 C114 1.416 . S
C116 C118 1.416 . S
C116 C149 1.448 . S
C117 H102 0.930 . S
C117 N113 1.334 . S
C117 C115 1.390 . S
C118 C115 1.339 . S
C118 C116 1.416 . S
C118 H125 0.930 . S
N119 Tb84 2.572 . S
N119 C120 1.340 . S
N119 C122 1.361 . S
C120 H106 0.930 . S
C120 N119 1.340 . S
C120 C124 1.407 . S
C121 C122 1.413 . S
C121 C123 1.416 . S
C121 C150 1.427 . S
C122 C114 1.424 . S
C122 N119 1.361 . S
C122 C121 1.413 . S
C123 H112 0.931 . S
C123 C121 1.416 . S
C123 C124 1.332 . S
C124 H103 0.929 . S
C124 C120 1.407 . S
C124 C123 1.332 . S
H125 C118 0.930 . S
H126 C149 0.930 . S
H127 C150 0.929 . S
O128 Tb84 2.465 . S
O128 C148 1.264 . S
O129 Tb84 2.387 . S
O129 C140 1.264 . S
O130 Tb95 2.349 . S
O130 C140 1.243 . S
O131 Tb84 2.428 . S
O131 C148 1.256 . S
O132 Tb84 2.308 . S
O132 C147 1.266 . S
O133 Tb95 2.393 . S
O133 C147 1.248 . S
O134 Tb95 2.465 . S
O134 C159 1.264 . S
O135 Tb95 2.387 . S
O135 C151 1.264 . S
O136 Tb84 2.349 . S
O136 C151 1.243 . S
O137 Tb95 2.428 . S
O137 C159 1.256 . S
O138 Tb95 2.308 . S
O138 C158 1.266 . S
O139 Tb84 2.393 . S
O139 C158 1.248 . S
C140 O129 1.264 . S
C140 O130 1.243 . S
C141 C144 1.399 . S
C141 C146 1.383 . S
C141 C148 1.496 . S
C142 C143 1.399 . S
C142 C146 1.389 . S
C143 C142 1.399 . S
C143 C145 1.380 . S
C143 H160 0.929 . S
C144 C141 1.399 . S
C144 C145 1.392 . S
C144 H161 0.929 . S
C145 C143 1.380 . S
C145 C144 1.392 . S
C145 H162 0.929 . S
C146 C141 1.383 . S
C146 C142 1.389 . S
C146 H163 0.931 . S
C147 O132 1.266 . S
C147 O133 1.248 . S
C148 Tb84 2.802 . S
C148 O128 1.264 . S
C148 O131 1.256 . S
C148 C141 1.496 . S
C149 C116 1.448 . S
C149 H126 0.930 . S
C149 C150 1.328 . S
C150 C121 1.427 . S
C150 H127 0.929 . S
C150 C149 1.328 . S
C151 O135 1.264 . S
C151 O136 1.243 . S
C152 C155 1.399 . S
C152 C156 1.383 . S
C152 C159 1.496 . S
C153 C154 1.399 . S
C153 C156 1.389 . S
C154 C153 1.399 . S
C154 C157 1.380 . S
C154 H164 0.929 . S
C155 C152 1.399 . S
C155 C157 1.392 . S
C155 H165 0.929 . S
C156 C152 1.383 . S
C156 C153 1.389 . S
C156 H166 0.931 . S
C157 C154 1.380 . S
C157 C155 1.392 . S
C157 H167 0.929 . S
C158 O138 1.266 . S
C158 O139 1.248 . S
C159 Tb95 2.802 . S
C159 O134 1.264 . S
C159 O137 1.256 . S
C159 C152 1.496 . S
H160 C143 0.929 . S
H161 C144 0.929 . S
H162 C145 0.929 . S
H163 C146 0.931 . S
H164 C154 0.929 . S
H165 C155 0.929 . S
H166 C156 0.931 . S
H167 C157 0.929 . S
Tb168 N197 2.617 . S
Tb168 N203 2.572 . S
Tb168 O212 2.465 . S
Tb168 O213 2.387 . S
Tb168 O215 2.428 . S
Tb168 O216 2.308 . S
Tb168 O220 2.349 . S
Tb168 O223 2.393 . S
Tb168 C232 2.802 . S
C169 N170 1.403 . S
C169 C172 1.394 1_554 S
C169 C176 1.423 1_554 S
N170 C169 1.403 . S
N170 C173 1.334 . S
N170 Tb179 2.617 . S
C171 C173 1.390 . S
C171 C174 1.339 1_554 S
C171 H191 0.930 . S
C172 C169 1.394 1_556 S
C172 C174 1.416 . S
C172 C178 1.448 . S
C173 N170 1.334 . S
C173 C171 1.390 . S
C173 H184 0.930 . S
C174 C171 1.339 1_556 S
C174 C172 1.416 . S
C174 H195 0.930 . S
C175 C176 1.432 . S
C175 C177 1.427 . S
C175 C181 1.416 . S
C176 C169 1.423 1_556 S
C176 C175 1.432 . S
C176 N180 1.343 1_556 S
C177 C175 1.427 . S
C177 C178 1.328 . S
C177 H192 0.929 . S
C178 C172 1.448 . S
C178 C177 1.328 . S
C178 H193 0.930 . S
Tb179 N170 2.617 . S
Tb179 N180 2.572 . S
Tb179 O214 2.349 . S
Tb179 O217 2.393 . S
Tb179 O218 2.465 . S
Tb179 O219 2.387 . S
Tb179 O221 2.428 . S
Tb179 O222 2.308 . S
Tb179 C243 2.802 . S
N180 C176 1.343 1_554 S
N180 Tb179 2.572 . S
N180 C182 1.340 . S
C181 C175 1.416 . S
C181 C183 1.332 . S
C181 H189 0.931 . S
C182 N180 1.340 . S
C182 C183 1.407 1_554 S
C182 H188 0.930 . S
C183 C181 1.332 . S
C183 C182 1.407 1_556 S
C183 H185 0.929 . S
H184 C173 0.930 . S
H185 C183 0.929 . S
H186 C201 0.930 . S
H187 C208 0.929 . S
H188 C182 0.930 . S
H189 C181 0.931 . S
H190 C204 0.930 . S
H191 C171 0.930 . S
H192 C177 0.929 . S
H193 C178 0.930 . S
H194 C199 0.930 . S
H195 C174 0.930 . S
H196 C207 0.931 . S
N197 Tb168 2.617 . S
N197 C198 1.379 . S
N197 C201 1.334 . S
C198 N197 1.379 . S
C198 C200 1.416 . S
C198 C206 1.424 . S
C199 H194 0.930 . S
C199 C201 1.390 . S
C199 C202 1.339 . S
C200 C198 1.416 . S
C200 C202 1.416 . S
C200 C233 1.448 . S
C201 H186 0.930 . S
C201 N197 1.334 . S
C201 C199 1.390 . S
C202 C199 1.339 . S
C202 C200 1.416 . S
C202 H209 0.930 . S
N203 Tb168 2.572 . S
N203 C204 1.340 . S
N203 C206 1.361 . S
C204 H190 0.930 . S
C204 N203 1.340 . S
C204 C208 1.407 . S
C205 C206 1.413 . S
C205 C207 1.416 . S
C205 C234 1.427 . S
C206 C198 1.424 . S
C206 N203 1.361 . S
C206 C205 1.413 . S
C207 H196 0.931 . S
C207 C205 1.416 . S
C207 C208 1.332 . S
C208 H187 0.929 . S
C208 C204 1.407 . S
C208 C207 1.332 . S
H209 C202 0.930 . S
H210 C233 0.930 . S
H211 C234 0.929 . S
O212 Tb168 2.465 . S
O212 C232 1.264 . S
O213 Tb168 2.387 . S
O213 C224 1.264 . S
O214 Tb179 2.349 . S
O214 C224 1.243 . S
O215 Tb168 2.428 . S
O215 C232 1.256 . S
O216 Tb168 2.308 . S
O216 C231 1.266 . S
O217 Tb179 2.393 . S
O217 C231 1.248 . S
O218 Tb179 2.465 . S
O218 C243 1.264 . S
O219 Tb179 2.387 . S
O219 C235 1.264 . S
O220 Tb168 2.349 . S
O220 C235 1.243 . S
O221 Tb179 2.428 . S
O221 C243 1.256 . S
O222 Tb179 2.308 . S
O222 C242 1.266 . S
O223 Tb168 2.393 . S
O223 C242 1.248 . S
C224 O213 1.264 . S
C224 O214 1.243 . S
C225 C228 1.399 . S
C225 C230 1.383 . S
C225 C232 1.496 . S
C226 C227 1.399 . S
C226 C230 1.389 . S
C227 C226 1.399 . S
C227 C229 1.380 . S
C227 H244 0.929 . S
C228 C225 1.399 . S
C228 C229 1.392 . S
C228 H245 0.929 . S
C229 C227 1.380 . S
C229 C228 1.392 . S
C229 H246 0.929 . S
C230 C225 1.383 . S
C230 C226 1.389 . S
C230 H247 0.931 . S
C231 O216 1.266 . S
C231 O217 1.248 . S
C232 Tb168 2.802 . S
C232 O212 1.264 . S
C232 O215 1.256 . S
C232 C225 1.496 . S
C233 C200 1.448 . S
C233 H210 0.930 . S
C233 C234 1.328 . S
C234 C205 1.427 . S
C234 H211 0.929 . S
C234 C233 1.328 . S
C235 O219 1.264 . S
C235 O220 1.243 . S
C236 C239 1.399 . S
C236 C240 1.383 . S
C236 C243 1.496 . S
C237 C238 1.399 . S
C237 C240 1.389 . S
C238 C237 1.399 . S
C238 C241 1.380 . S
C238 H248 0.929 . S
C239 C236 1.399 . S
C239 C241 1.392 . S
C239 H249 0.929 . S
C240 C236 1.383 . S
C240 C237 1.389 . S
C240 H250 0.931 . S
C241 C238 1.380 . S
C241 C239 1.392 . S
C241 H251 0.929 . S
C242 O222 1.266 . S
C242 O223 1.248 . S
C243 Tb179 2.802 . S
C243 O218 1.264 . S
C243 O221 1.256 . S
C243 C236 1.496 . S
H244 C227 0.929 . S
H245 C228 0.929 . S
H246 C229 0.929 . S
H247 C230 0.931 . S
H248 C238 0.929 . S
H249 C239 0.929 . S
H250 C240 0.931 . S
H251 C241 0.929 . S
Tb252 N281 2.617 . S
Tb252 N287 2.572 . S
Tb252 O296 2.465 . S
Tb252 O297 2.387 . S
Tb252 O299 2.428 . S
Tb252 O300 2.308 . S
Tb252 O304 2.349 . S
Tb252 O307 2.393 . S
Tb252 C316 2.802 . S
C253 N254 1.379 . S
C253 C256 1.416 . S
C253 C260 1.424 . S
N254 C253 1.379 . S
N254 C257 1.334 . S
N254 Tb263 2.617 . S
C255 C257 1.390 . S
C255 C258 1.339 . S
C255 H275 0.930 . S
C256 C253 1.416 . S
C256 C258 1.416 . S
C256 C262 1.448 . S
C257 N254 1.334 . S
C257 C255 1.390 . S
C257 H268 0.930 . S
C258 C255 1.339 . S
C258 C256 1.416 . S
C258 H279 0.930 . S
C259 C260 1.413 . S
C259 C261 1.427 . S
C259 C265 1.416 . S
C260 C253 1.424 . S
C260 C259 1.413 . S
C260 N264 1.361 . S
C261 C259 1.427 . S
C261 C262 1.328 . S
C261 H276 0.929 . S
C262 C256 1.448 . S
C262 C261 1.328 . S
C262 H277 0.930 . S
Tb263 N254 2.617 . S
Tb263 N264 2.572 . S
Tb263 O298 2.349 . S
Tb263 O301 2.393 . S
Tb263 O302 2.465 . S
Tb263 O303 2.387 . S
Tb263 O305 2.428 . S
Tb263 O306 2.308 . S
Tb263 C327 2.802 . S
N264 C260 1.361 . S
N264 Tb263 2.572 . S
N264 C266 1.340 . S
C265 C259 1.416 . S
C265 C267 1.332 . S
C265 H273 0.931 . S
C266 N264 1.340 . S
C266 C267 1.407 . S
C266 H272 0.930 . S
C267 C265 1.332 . S
C267 C266 1.407 . S
C267 H269 0.929 . S
H268 C257 0.930 . S
H269 C267 0.929 . S
H270 C285 0.930 . S
H271 C292 0.929 . S
H272 C266 0.930 . S
H273 C265 0.931 . S
H274 C288 0.930 . S
H275 C255 0.930 . S
H276 C261 0.929 . S
H277 C262 0.930 . S
H278 C283 0.930 . S
H279 C258 0.930 . S
H280 C291 0.931 . S
N281 Tb252 2.617 . S
N281 C282 1.379 . S
N281 C285 1.334 . S
C282 N281 1.379 . S
C282 C284 1.416 . S
C282 C290 1.424 . S
C283 H278 0.930 . S
C283 C285 1.390 . S
C283 C286 1.339 . S
C284 C282 1.416 . S
C284 C286 1.416 . S
C284 C317 1.448 . S
C285 H270 0.930 . S
C285 N281 1.334 . S
C285 C283 1.390 . S
C286 C283 1.339 . S
C286 C284 1.416 . S
C286 H293 0.930 . S
N287 Tb252 2.572 . S
N287 C288 1.340 . S
N287 C290 1.361 . S
C288 H274 0.930 . S
C288 N287 1.340 . S
C288 C292 1.407 . S
C289 C290 1.413 . S
C289 C291 1.416 . S
C289 C318 1.427 . S
C290 C282 1.424 . S
C290 N287 1.361 . S
C290 C289 1.413 . S
C291 H280 0.931 . S
C291 C289 1.416 . S
C291 C292 1.332 . S
C292 H271 0.929 . S
C292 C288 1.407 . S
C292 C291 1.332 . S
H293 C286 0.930 . S
H294 C317 0.930 . S
H295 C318 0.929 . S
O296 Tb252 2.465 . S
O296 C316 1.264 . S
O297 Tb252 2.387 . S
O297 C308 1.264 . S
O298 Tb263 2.349 . S
O298 C308 1.243 . S
O299 Tb252 2.428 . S
O299 C316 1.256 . S
O300 Tb252 2.308 . S
O300 C315 1.266 . S
O301 Tb263 2.393 . S
O301 C315 1.248 . S
O302 Tb263 2.465 . S
O302 C327 1.264 . S
O303 Tb263 2.387 . S
O303 C319 1.264 . S
O304 Tb252 2.349 . S
O304 C319 1.243 . S
O305 Tb263 2.428 . S
O305 C327 1.256 . S
O306 Tb263 2.308 . S
O306 C326 1.266 . S
O307 Tb252 2.393 . S
O307 C326 1.248 . S
C308 O297 1.264 . S
C308 O298 1.243 . S
C309 C312 1.399 . S
C309 C314 1.383 . S
C309 C316 1.496 . S
C310 C311 1.399 . S
C310 C314 1.389 . S
C311 C310 1.399 . S
C311 C313 1.380 . S
C311 H328 0.929 . S
C312 C309 1.399 . S
C312 C313 1.392 . S
C312 H329 0.929 . S
C313 C311 1.380 . S
C313 C312 1.392 . S
C313 H330 0.929 . S
C314 C309 1.383 . S
C314 C310 1.389 . S
C314 H331 0.931 . S
C315 O300 1.266 . S
C315 O301 1.248 . S
C316 Tb252 2.802 . S
C316 O296 1.264 . S
C316 O299 1.256 . S
C316 C309 1.496 . S
C317 C284 1.448 . S
C317 H294 0.930 . S
C317 C318 1.328 . S
C318 C289 1.427 . S
C318 H295 0.929 . S
C318 C317 1.328 . S
C319 O303 1.264 . S
C319 O304 1.243 . S
C320 C323 1.399 . S
C320 C324 1.383 . S
C320 C327 1.496 . S
C321 C322 1.399 . S
C321 C324 1.389 . S
C322 C321 1.399 . S
C322 C325 1.380 . S
C322 H332 0.929 . S
C323 C320 1.399 . S
C323 C325 1.392 . S
C323 H333 0.929 . S
C324 C320 1.383 . S
C324 C321 1.389 . S
C324 H334 0.931 . S
C325 C322 1.380 . S
C325 C323 1.392 . S
C325 H335 0.929 . S
C326 O306 1.266 . S
C326 O307 1.248 . S
C327 Tb263 2.802 . S
C327 O302 1.264 . S
C327 O305 1.256 . S
C327 C320 1.496 . S
H328 C311 0.929 . S
H329 C312 0.929 . S
H330 C313 0.929 . S
H331 C314 0.931 . S
H332 C322 0.929 . S
H333 C323 0.929 . S
H334 C324 0.931 . S
H335 C325 0.929 . S
Tb336 N365 2.617 . S
Tb336 N371 2.572 . S
Tb336 O380 2.465 . S
Tb336 O381 2.387 . S
Tb336 O383 2.428 . S
Tb336 O384 2.308 . S
Tb336 O388 2.349 . S
Tb336 O391 2.393 . S
Tb336 C400 2.802 . S
C337 N338 1.379 . S
C337 C340 1.416 . S
C337 C344 1.424 . S
N338 C337 1.379 . S
N338 C341 1.334 . S
N338 Tb347 2.617 . S
C339 C341 1.390 . S
C339 C342 1.339 . S
C339 H359 0.930 . S
C340 C337 1.416 . S
C340 C342 1.416 . S
C340 C346 1.448 . S
C341 N338 1.334 . S
C341 C339 1.390 . S
C341 H352 0.930 . S
C342 C339 1.339 . S
C342 C340 1.416 . S
C342 H363 0.930 . S
C343 C344 1.413 . S
C343 C345 1.427 . S
C343 C349 1.416 . S
C344 C337 1.424 . S
C344 C343 1.413 . S
C344 N348 1.361 . S
C345 C343 1.427 . S
C345 C346 1.328 . S
C345 H360 0.929 . S
C346 C340 1.448 . S
C346 C345 1.328 . S
C346 H361 0.930 . S
Tb347 N338 2.617 . S
Tb347 N348 2.572 . S
Tb347 O382 2.349 . S
Tb347 O385 2.393 . S
Tb347 O386 2.465 . S
Tb347 O387 2.387 . S
Tb347 O389 2.428 . S
Tb347 O390 2.308 . S
Tb347 C411 2.802 . S
N348 C344 1.361 . S
N348 Tb347 2.572 . S
N348 C350 1.340 . S
C349 C343 1.416 . S
C349 C351 1.332 . S
C349 H357 0.931 . S
C350 N348 1.340 . S
C350 C351 1.407 . S
C350 H356 0.930 . S
C351 C349 1.332 . S
C351 C350 1.407 . S
C351 H353 0.929 . S
H352 C341 0.930 . S
H353 C351 0.929 . S
H354 C369 0.930 . S
H355 C376 0.929 . S
H356 C350 0.930 . S
H357 C349 0.931 . S
H358 C372 0.930 . S
H359 C339 0.930 . S
H360 C345 0.929 . S
H361 C346 0.930 . S
H362 C367 0.930 . S
H363 C342 0.930 . S
H364 C375 0.931 . S
N365 Tb336 2.617 . S
N365 C366 1.403 . S
N365 C369 1.334 . S
C366 N365 1.403 . S
C366 C368 1.394 1_556 S
C366 C374 1.423 1_556 S
C367 H362 0.930 . S
C367 C369 1.390 . S
C367 C370 1.339 1_556 S
C368 C366 1.394 1_554 S
C368 C370 1.416 . S
C368 C401 1.448 . S
C369 H354 0.930 . S
C369 N365 1.334 . S
C369 C367 1.390 . S
C370 C367 1.339 1_554 S
C370 C368 1.416 . S
C370 H377 0.930 . S
N371 Tb336 2.572 . S
N371 C372 1.340 . S
N371 C374 1.343 1_556 S
C372 H358 0.930 . S
C372 N371 1.340 . S
C372 C376 1.407 1_556 S
C373 C374 1.432 . S
C373 C375 1.416 . S
C373 C402 1.427 . S
C374 C366 1.423 1_554 S
C374 N371 1.343 1_554 S
C374 C373 1.432 . S
C375 H364 0.931 . S
C375 C373 1.416 . S
C375 C376 1.332 . S
C376 H355 0.929 . S
C376 C372 1.407 1_554 S
C376 C375 1.332 . S
H377 C370 0.930 . S
H378 C401 0.930 . S
H379 C402 0.929 . S
O380 Tb336 2.465 . S
O380 C400 1.264 . S
O381 Tb336 2.387 . S
O381 C392 1.264 . S
O382 Tb347 2.349 . S
O382 C392 1.243 . S
O383 Tb336 2.428 . S
O383 C400 1.256 . S
O384 Tb336 2.308 . S
O384 C399 1.266 . S
O385 Tb347 2.393 . S
O385 C399 1.248 . S
O386 Tb347 2.465 . S
O386 C411 1.264 . S
O387 Tb347 2.387 . S
O387 C403 1.264 . S
O388 Tb336 2.349 . S
O388 C403 1.243 . S
O389 Tb347 2.428 . S
O389 C411 1.256 . S
O390 Tb347 2.308 . S
O390 C410 1.266 . S
O391 Tb336 2.393 . S
O391 C410 1.248 . S
C392 O381 1.264 . S
C392 O382 1.243 . S
C393 C396 1.399 . S
C393 C398 1.383 . S
C393 C400 1.496 . S
C394 C395 1.399 . S
C394 C398 1.389 . S
C395 C394 1.399 . S
C395 C397 1.380 . S
C395 H412 0.929 . S
C396 C393 1.399 . S
C396 C397 1.392 . S
C396 H413 0.929 . S
C397 C395 1.380 . S
C397 C396 1.392 . S
C397 H414 0.929 . S
C398 C393 1.383 . S
C398 C394 1.389 . S
C398 H415 0.931 . S
C399 O384 1.266 . S
C399 O385 1.248 . S
C400 Tb336 2.802 . S
C400 O380 1.264 . S
C400 O383 1.256 . S
C400 C393 1.496 . S
C401 C368 1.448 . S
C401 H378 0.930 . S
C401 C402 1.328 . S
C402 C373 1.427 . S
C402 H379 0.929 . S
C402 C401 1.328 . S
C403 O387 1.264 . S
C403 O388 1.243 . S
C404 C407 1.399 . S
C404 C408 1.383 . S
C404 C411 1.496 1_545 S
C405 C406 1.399 . S
C405 C408 1.389 . S
C406 C405 1.399 . S
C406 C409 1.380 . S
C406 H416 0.929 . S
C407 C404 1.399 . S
C407 C409 1.392 . S
C407 H417 0.929 . S
C408 C404 1.383 . S
C408 C405 1.389 . S
C408 H418 0.931 . S
C409 C406 1.380 . S
C409 C407 1.392 . S
C409 H419 0.929 . S
C410 O390 1.266 . S
C410 O391 1.248 . S
C411 Tb347 2.802 . S
C411 O386 1.264 . S
C411 O389 1.256 . S
C411 C404 1.496 1_565 S
H412 C395 0.929 . S
H413 C396 0.929 . S
H414 C397 0.929 . S
H415 C398 0.931 . S
H416 C406 0.929 . S
H417 C407 0.929 . S
H418 C408 0.931 . S
H419 C409 0.929 . S
Tb420 N449 2.617 . S
Tb420 N455 2.572 . S
Tb420 O464 2.465 . S
Tb420 O465 2.387 . S
Tb420 O467 2.428 . S
Tb420 O468 2.308 . S
Tb420 O472 2.349 . S
Tb420 O475 2.393 . S
Tb420 C484 2.802 . S
C421 N422 1.379 . S
C421 C424 1.416 . S
C421 C428 1.424 . S
N422 C421 1.379 . S
N422 C425 1.334 . S
N422 Tb431 2.617 . S
C423 C425 1.390 . S
C423 C426 1.339 . S
C423 H443 0.930 . S
C424 C421 1.416 . S
C424 C426 1.416 . S
C424 C430 1.448 . S
C425 N422 1.334 . S
C425 C423 1.390 . S
C425 H436 0.930 . S
C426 C423 1.339 . S
C426 C424 1.416 . S
C426 H447 0.930 . S
C427 C428 1.413 . S
C427 C429 1.427 . S
C427 C433 1.416 . S
C428 C421 1.424 . S
C428 C427 1.413 . S
C428 N432 1.361 . S
C429 C427 1.427 . S
C429 C430 1.328 . S
C429 H444 0.929 . S
C430 C424 1.448 . S
C430 C429 1.328 . S
C430 H445 0.930 . S
Tb431 N422 2.617 . S
Tb431 N432 2.572 . S
Tb431 O466 2.349 . S
Tb431 O469 2.393 . S
Tb431 O470 2.465 . S
Tb431 O471 2.387 . S
Tb431 O473 2.428 . S
Tb431 O474 2.308 . S
Tb431 C495 2.802 . S
N432 C428 1.361 . S
N432 Tb431 2.572 . S
N432 C434 1.340 . S
C433 C427 1.416 . S
C433 C435 1.332 . S
C433 H441 0.931 . S
C434 N432 1.340 . S
C434 C435 1.407 . S
C434 H440 0.930 . S
C435 C433 1.332 . S
C435 C434 1.407 . S
C435 H437 0.929 . S
H436 C425 0.930 . S
H437 C435 0.929 . S
H438 C453 0.930 . S
H439 C460 0.929 . S
H440 C434 0.930 . S
H441 C433 0.931 . S
H442 C456 0.930 . S
H443 C423 0.930 . S
H444 C429 0.929 . S
H445 C430 0.930 . S
H446 C451 0.930 . S
H447 C426 0.930 . S
H448 C459 0.931 . S
N449 Tb420 2.617 . S
N449 C450 1.379 . S
N449 C453 1.334 . S
C450 N449 1.379 . S
C450 C452 1.416 . S
C450 C458 1.424 . S
C451 H446 0.930 . S
C451 C453 1.390 . S
C451 C454 1.339 . S
C452 C450 1.416 . S
C452 C454 1.416 . S
C452 C485 1.448 . S
C453 H438 0.930 . S
C453 N449 1.334 . S
C453 C451 1.390 . S
C454 C451 1.339 . S
C454 C452 1.416 . S
C454 H461 0.930 . S
N455 Tb420 2.572 . S
N455 C456 1.340 . S
N455 C458 1.361 . S
C456 H442 0.930 . S
C456 N455 1.340 . S
C456 C460 1.407 . S
C457 C458 1.413 . S
C457 C459 1.416 . S
C457 C486 1.427 . S
C458 C450 1.424 . S
C458 N455 1.361 . S
C458 C457 1.413 . S
C459 H448 0.931 . S
C459 C457 1.416 . S
C459 C460 1.332 . S
C460 H439 0.929 . S
C460 C456 1.407 . S
C460 C459 1.332 . S
H461 C454 0.930 . S
H462 C485 0.930 . S
H463 C486 0.929 . S
O464 Tb420 2.465 . S
O464 C484 1.264 . S
O465 Tb420 2.387 . S
O465 C476 1.264 . S
O466 Tb431 2.349 . S
O466 C476 1.243 . S
O467 Tb420 2.428 . S
O467 C484 1.256 . S
O468 Tb420 2.308 . S
O468 C483 1.266 . S
O469 Tb431 2.393 . S
O469 C483 1.248 . S
O470 Tb431 2.465 . S
O470 C495 1.264 . S
O471 Tb431 2.387 . S
O471 C487 1.264 . S
O472 Tb420 2.349 . S
O472 C487 1.243 . S
O473 Tb431 2.428 . S
O473 C495 1.256 . S
O474 Tb431 2.308 . S
O474 C494 1.266 . S
O475 Tb420 2.393 . S
O475 C494 1.248 . S
C476 O465 1.264 . S
C476 O466 1.243 . S
C477 C480 1.399 1_655 S
C477 C482 1.383 . S
C477 C484 1.496 . S
C478 C479 1.399 . S
C478 C482 1.389 1_455 S
C479 C478 1.399 . S
C479 C481 1.380 . S
C479 H496 0.929 . S
C480 C477 1.399 1_455 S
C480 C481 1.392 . S
C480 H497 0.929 . S
C481 C479 1.380 . S
C481 C480 1.392 . S
C481 H498 0.929 . S
C482 C477 1.383 . S
C482 C478 1.389 1_655 S
C482 H499 0.931 . S
C483 O468 1.266 . S
C483 O469 1.248 . S
C484 Tb420 2.802 . S
C484 O464 1.264 . S
C484 O467 1.256 . S
C484 C477 1.496 . S
C485 C452 1.448 . S
C485 H462 0.930 . S
C485 C486 1.328 . S
C486 C457 1.427 . S
C486 H463 0.929 . S
C486 C485 1.328 . S
C487 O471 1.264 . S
C487 O472 1.243 . S
C488 C491 1.399 . S
C488 C492 1.383 . S
C488 C495 1.496 . S
C489 C490 1.399 . S
C489 C492 1.389 . S
C490 C489 1.399 . S
C490 C493 1.380 . S
C490 H500 0.929 . S
C491 C488 1.399 . S
C491 C493 1.392 . S
C491 H501 0.929 . S
C492 C488 1.383 . S
C492 C489 1.389 . S
C492 H502 0.931 . S
C493 C490 1.380 . S
C493 C491 1.392 . S
C493 H503 0.929 . S
C494 O474 1.266 . S
C494 O475 1.248 . S
C495 Tb431 2.802 . S
C495 O470 1.264 . S
C495 O473 1.256 . S
C495 C488 1.496 . S
H496 C479 0.929 . S
H497 C480 0.929 . S
H498 C481 0.929 . S
H499 C482 0.931 . S
H500 C490 0.929 . S
H501 C491 0.929 . S
H502 C492 0.931 . S
H503 C493 0.929 . S
Tb504 N533 2.617 . S
Tb504 N539 2.572 . S
Tb504 O548 2.465 1_565 S
Tb504 O549 2.387 . S
Tb504 O551 2.428 . S
Tb504 O552 2.308 . S
Tb504 O556 2.349 . S
Tb504 O559 2.393 1_455 S
Tb504 C568 2.802 1_565 S
C505 N506 1.379 1_554 S
C505 C508 1.416 . S
C505 C512 1.424 . S
N506 C505 1.379 1_556 S
N506 C509 1.334 . S
N506 Tb515 2.617 . S
C507 C509 1.390 1_554 S
C507 C510 1.339 . S
C507 H527 0.930 . S
C508 C505 1.416 . S
C508 C510 1.416 . S
C508 C514 1.448 . S
C509 N506 1.334 . S
C509 C507 1.390 1_556 S
C509 H520 0.930 . S
C510 C507 1.339 . S
C510 C508 1.416 . S
C510 H531 0.930 . S
C511 C512 1.413 . S
C511 C513 1.427 . S
C511 C517 1.413 . S
C512 C505 1.424 . S
C512 C511 1.413 . S
C512 N516 1.361 1_554 S
C513 C511 1.427 . S
C513 C514 1.328 . S
C513 H528 0.929 . S
C514 C508 1.448 . S
C514 C513 1.328 . S
C514 H529 0.930 1_565 S
Tb515 N506 2.617 . S
Tb515 N516 2.572 . S
Tb515 O550 2.349 . S
Tb515 O553 2.393 . S
Tb515 O554 2.465 . S
Tb515 O555 2.387 . S
Tb515 O557 2.428 . S
Tb515 O558 2.308 . S
Tb515 C579 2.802 . S
N516 C512 1.361 1_556 S
N516 Tb515 2.572 . S
N516 C518 1.340 1_455 S
C517 C511 1.413 . S
C517 C519 1.333 1_455 S
C517 H525 0.932 1_455 S
C518 N516 1.340 1_655 S
C518 C519 1.407 1_556 S
C518 H524 0.930 . S
C519 C517 1.333 1_655 S
C519 C518 1.407 1_554 S
C519 H521 0.929 . S
H520 C509 0.930 . S
H521 C519 0.929 . S
H522 C537 0.930 . S
H523 C544 0.929 . S
H524 C518 0.930 . S
H525 C517 0.932 1_655 S
H526 C540 0.930 . S
H527 C507 0.930 . S
H528 C513 0.929 . S
H529 C514 0.930 1_545 S
H530 C535 0.930 . S
H531 C510 0.930 . S
H532 C543 0.931 . S
N533 Tb504 2.617 . S
N533 C534 1.379 . S
N533 C537 1.334 1_455 S
C534 N533 1.379 . S
C534 C536 1.416 . S
C534 C542 1.424 . S
C535 H530 0.930 . S
C535 C537 1.390 . S
C535 C538 1.339 . S
C536 C534 1.416 . S
C536 C538 1.416 1_455 S
C536 C569 1.448 . S
C537 H522 0.930 . S
C537 N533 1.334 1_655 S
C537 C535 1.390 . S
C538 C535 1.339 . S
C538 C536 1.416 1_655 S
C538 H545 0.930 . S
N539 Tb504 2.572 . S
N539 C540 1.340 . S
N539 C542 1.361 . S
C540 H526 0.930 . S
C540 N539 1.340 . S
C540 C544 1.407 . S
C541 C542 1.413 . S
C541 C543 1.416 . S
C541 C570 1.427 . S
C542 C534 1.424 . S
C542 N539 1.361 . S
C542 C541 1.413 . S
C543 H532 0.931 . S
C543 C541 1.416 . S
C543 C544 1.332 . S
C544 H523 0.929 . S
C544 C540 1.407 . S
C544 C543 1.332 . S
H545 C538 0.930 . S
H546 C569 0.930 . S
H547 C570 0.929 . S
O548 Tb504 2.465 1_545 S
O548 C568 1.264 . S
O549 Tb504 2.387 . S
O549 C560 1.264 . S
O550 Tb515 2.349 . S
O550 C560 1.243 . S
O551 Tb504 2.428 . S
O551 C568 1.256 1_565 S
O552 Tb504 2.308 . S
O552 C567 1.266 . S
O553 Tb515 2.393 . S
O553 C567 1.248 . S
O554 Tb515 2.465 . S
O554 C579 1.264 . S
O555 Tb515 2.387 . S
O555 C571 1.264 . S
O556 Tb504 2.349 . S
O556 C571 1.243 . S
O557 Tb515 2.428 . S
O557 C579 1.256 . S
O558 Tb515 2.308 . S
O558 C578 1.266 1_455 S
O559 Tb504 2.393 1_655 S
O559 C578 1.248 . S
C560 O549 1.264 . S
C560 O550 1.243 . S
C561 C564 1.399 . S
C561 C566 1.383 . S
C561 C568 1.496 . S
C562 C563 1.399 . S
C562 C566 1.389 . S
C563 C562 1.399 . S
C563 C565 1.380 . S
C563 H580 0.929 . S
C564 C561 1.399 . S
C564 C565 1.392 . S
C564 H581 0.929 . S
C565 C563 1.380 . S
C565 C564 1.392 . S
C565 H582 0.929 . S
C566 C561 1.383 . S
C566 C562 1.389 . S
C566 H583 0.931 . S
C567 O552 1.266 . S
C567 O553 1.248 . S
C568 Tb504 2.802 1_545 S
C568 O548 1.264 . S
C568 O551 1.256 1_545 S
C568 C561 1.496 . S
C569 C536 1.448 . S
C569 H546 0.930 . S
C569 C570 1.328 . S
C570 C541 1.427 . S
C570 H547 0.929 . S
C570 C569 1.328 . S
C571 O555 1.264 . S
C571 O556 1.243 . S
C572 C575 1.399 . S
C572 C576 1.383 1_455 S
C572 C579 1.496 . S
C573 C574 1.399 1_655 S
C573 C576 1.389 . S
C574 C573 1.399 1_455 S
C574 C577 1.380 . S
C574 H584 0.929 . S
C575 C572 1.399 . S
C575 C577 1.392 . S
C575 H585 0.929 . S
C576 C572 1.383 1_655 S
C576 C573 1.389 . S
C576 H586 0.931 . S
C577 C574 1.380 . S
C577 C575 1.392 . S
C577 H587 0.929 . S
C578 O558 1.266 1_655 S
C578 O559 1.248 . S
C579 Tb515 2.802 . S
C579 O554 1.264 . S
C579 O557 1.256 . S
C579 C572 1.496 . S
H580 C563 0.929 . S
H581 C564 0.929 . S
H582 C565 0.929 . S
H583 C566 0.931 . S
H584 C574 0.929 . S
H585 C575 0.929 . S
H586 C576 0.931 . S
H587 C577 0.929 . S
Tb588 N617 2.617 . S
Tb588 N623 2.572 . S
Tb588 O632 2.465 . S
Tb588 O633 2.387 . S
Tb588 O635 2.428 . S
Tb588 O636 2.308 . S
Tb588 O640 2.349 1_545 S
Tb588 O643 2.393 . S
Tb588 C652 2.802 . S
C589 N590 1.379 . S
C589 C592 1.416 . S
C589 C596 1.424 . S
N590 C589 1.379 . S
N590 C593 1.334 . S
N590 Tb599 2.617 1_565 S
C591 C593 1.390 . S
C591 C594 1.339 . S
C591 H611 0.930 . S
C592 C589 1.416 . S
C592 C594 1.416 . S
C592 C598 1.448 . S
C593 N590 1.334 . S
C593 C591 1.390 . S
C593 H604 0.930 1_565 S
C594 C591 1.339 . S
C594 C592 1.416 . S
C594 H615 0.930 . S
C595 C596 1.413 . S
C595 C597 1.427 . S
C595 C601 1.416 . S
C596 C589 1.424 . S
C596 C595 1.413 . S
C596 N600 1.361 . S
C597 C595 1.427 . S
C597 C598 1.328 . S
C597 H612 0.929 . S
C598 C592 1.448 . S
C598 C597 1.328 . S
C598 H613 0.930 . S
Tb599 N590 2.617 1_545 S
Tb599 N600 2.572 1_545 S
Tb599 O634 2.349 . S
Tb599 O637 2.393 . S
Tb599 O638 2.465 . S
Tb599 O639 2.387 1_545 S
Tb599 O641 2.428 . S
Tb599 O642 2.308 . S
Tb599 C663 2.802 . S
N600 C596 1.361 . S
N600 Tb599 2.572 1_565 S
N600 C602 1.340 . S
C601 C595 1.416 . S
C601 C603 1.332 . S
C601 H609 0.931 . S
C602 N600 1.340 . S
C602 C603 1.407 . S
C602 H608 0.930 . S
C603 C601 1.332 . S
C603 C602 1.407 . S
C603 H605 0.929 . S
H604 C593 0.930 1_545 S
H605 C603 0.929 . S
H606 C621 0.930 . S
H607 C628 0.929 . S
H608 C602 0.930 . S
H609 C601 0.931 . S
H610 C624 0.930 . S
H611 C591 0.930 . S
H612 C597 0.929 . S
H613 C598 0.930 . S
H614 C619 0.930 . S
H615 C594 0.930 . S
H616 C627 0.931 . S
N617 Tb588 2.617 . S
N617 C618 1.379 . S
N617 C621 1.334 . S
C618 N617 1.379 . S
C618 C620 1.416 . S
C618 C626 1.424 . S
C619 H614 0.930 . S
C619 C621 1.390 . S
C619 C622 1.339 . S
C620 C618 1.416 . S
C620 C622 1.416 . S
C620 C653 1.448 . S
C621 H606 0.930 . S
C621 N617 1.334 . S
C621 C619 1.390 . S
C622 C619 1.339 . S
C622 C620 1.416 . S
C622 H629 0.930 . S
N623 Tb588 2.572 . S
N623 C624 1.340 . S
N623 C626 1.361 . S
C624 H610 0.930 . S
C624 N623 1.340 . S
C624 C628 1.407 . S
C625 C626 1.413 . S
C625 C627 1.416 . S
C625 C654 1.427 . S
C626 C618 1.424 . S
C626 N623 1.361 . S
C626 C625 1.413 . S
C627 H616 0.931 . S
C627 C625 1.416 . S
C627 C628 1.332 . S
C628 H607 0.929 . S
C628 C624 1.407 . S
C628 C627 1.332 . S
H629 C622 0.930 . S
H630 C653 0.930 . S
H631 C654 0.929 . S
O632 Tb588 2.465 . S
O632 C652 1.264 . S
O633 Tb588 2.387 . S
O633 C644 1.264 . S
O634 Tb599 2.349 . S
O634 C644 1.243 . S
O635 Tb588 2.428 . S
O635 C652 1.256 . S
O636 Tb588 2.308 . S
O636 C651 1.266 . S
O637 Tb599 2.393 . S
O637 C651 1.248 . S
O638 Tb599 2.465 . S
O638 C663 1.264 . S
O639 Tb599 2.387 1_565 S
O639 C655 1.264 . S
O640 Tb588 2.349 1_565 S
O640 C655 1.243 . S
O641 Tb599 2.428 . S
O641 C663 1.256 . S
O642 Tb599 2.308 . S
O642 C662 1.266 . S
O643 Tb588 2.393 . S
O643 C662 1.248 . S
C644 O633 1.264 . S
C644 O634 1.243 . S
C645 C648 1.399 . S
C645 C650 1.383 . S
C645 C652 1.496 . S
C646 C647 1.399 . S
C646 C650 1.389 . S
C647 C646 1.399 . S
C647 C649 1.380 . S
C647 H664 0.929 . S
C648 C645 1.399 . S
C648 C649 1.392 . S
C648 H665 0.929 . S
C649 C647 1.380 . S
C649 C648 1.392 . S
C649 H666 0.929 . S
C650 C645 1.383 . S
C650 C646 1.389 . S
C650 H667 0.931 . S
C651 O636 1.266 . S
C651 O637 1.248 . S
C652 Tb588 2.802 . S
C652 O632 1.264 . S
C652 O635 1.256 . S
C652 C645 1.496 . S
C653 C620 1.448 . S
C653 H630 0.930 . S
C653 C654 1.328 . S
C654 C625 1.427 . S
C654 H631 0.929 . S
C654 C653 1.328 . S
C655 O639 1.264 . S
C655 O640 1.243 . S
C656 C659 1.399 . S
C656 C660 1.383 . S
C656 C663 1.496 . S
C657 C658 1.399 . S
C657 C660 1.389 . S
C658 C657 1.399 . S
C658 C661 1.380 . S
C658 H668 0.929 . S
C659 C656 1.399 . S
C659 C661 1.392 . S
C659 H669 0.929 . S
C660 C656 1.383 . S
C660 C657 1.389 . S
C660 H670 0.931 . S
C661 C658 1.380 . S
C661 C659 1.392 . S
C661 H671 0.929 . S
C662 O642 1.266 . S
C662 O643 1.248 . S
C663 Tb599 2.802 . S
C663 O638 1.264 . S
C663 O641 1.256 . S
C663 C656 1.496 . S
H664 C647 0.929 . S
H665 C648 0.929 . S
H666 C649 0.929 . S
H667 C650 0.931 . S
H668 C658 0.929 . S
H669 C659 0.929 . S
H670 C660 0.931 . S
H671 C661 0.929 . S
H672 C678 0.910 1_565 S
H673 C682 0.930 . S
H674 C687 0.929 . S
H675 C685 0.929 . S
H676 C680 0.929 . S
H677 C686 0.929 . S
C678 H672 0.910 1_545 S
C678 C679 1.367 . S
C678 C686 1.378 . S
C679 C678 1.367 . S
C679 C687 1.433 . S
C680 H676 0.929 . S
C680 C682 1.378 . S
C680 C684 1.350 . S
C681 C684 1.463 . S
C681 C686 1.350 . S
C681 N689 1.427 . S
C682 H673 0.930 . S
C682 C680 1.378 . S
C682 C683 1.367 . S
C683 C682 1.367 . S
C683 C685 1.433 . S
C684 C680 1.350 . S
C684 C681 1.463 . S
C684 N688 1.427 . S
C685 H675 0.929 . S
C685 C683 1.433 . S
C685 N688 1.384 . S
C686 H677 0.929 . S
C686 C678 1.378 . S
C686 C681 1.350 . S
C687 H674 0.929 . S
C687 C679 1.433 . S
C687 N689 1.384 . S
N688 C684 1.427 . S
N688 C685 1.384 . S
N689 C681 1.427 . S
N689 C687 1.384 . S
H690 C696 0.930 . S
H691 C700 0.930 . S
H692 C705 0.929 . S
H693 C703 0.929 . S
H694 C698 0.929 . S
H695 C704 0.929 . S
C696 H690 0.930 . S
C696 C697 1.367 . S
C696 C704 1.378 . S
C697 C696 1.367 . S
C697 C705 1.433 . S
C698 H694 0.929 . S
C698 C700 1.378 . S
C698 C702 1.350 . S
C699 C702 1.463 . S
C699 C704 1.350 . S
C699 N707 1.427 . S
C700 H691 0.930 . S
C700 C698 1.378 . S
C700 C701 1.367 . S
C701 C700 1.367 . S
C701 C703 1.433 . S
C702 C698 1.350 . S
C702 C699 1.463 . S
C702 N706 1.427 . S
C703 H693 0.929 . S
C703 C701 1.433 . S
C703 N706 1.384 . S
C704 H695 0.929 . S
C704 C696 1.378 . S
C704 C699 1.350 . S
C705 H692 0.929 . S
C705 C697 1.433 . S
C705 N707 1.384 . S
N706 C702 1.427 . S
N706 C703 1.384 . S
N707 C699 1.427 . S
N707 C705 1.384 . S
H708 C714 0.930 . S
H709 C718 0.930 . S
H710 C723 0.929 . S
H711 C721 0.929 . S
H712 C716 0.929 . S
H713 C722 0.929 . S
C714 H708 0.930 . S
C714 C715 1.367 . S
C714 C722 1.378 . S
C715 C714 1.367 . S
C715 C723 1.433 . S
C716 H712 0.929 . S
C716 C718 1.378 . S
C716 C720 1.350 . S
C717 C720 1.463 . S
C717 C722 1.350 . S
C717 N725 1.427 . S
C718 H709 0.930 . S
C718 C716 1.378 . S
C718 C719 1.367 . S
C719 C718 1.367 . S
C719 C721 1.433 . S
C720 C716 1.350 . S
C720 C717 1.463 . S
C720 N724 1.427 . S
C721 H711 0.929 . S
C721 C719 1.433 . S
C721 N724 1.384 . S
C722 H713 0.929 . S
C722 C714 1.378 . S
C722 C717 1.350 . S
C723 H710 0.929 . S
C723 C715 1.433 . S
C723 N725 1.384 . S
N724 C720 1.427 . S
N724 C721 1.384 . S
N725 C717 1.427 . S
N725 C723 1.384 . S
H726 C732 0.930 . S
H727 C736 0.930 . S
H728 C741 0.929 . S
H729 C739 0.929 . S
H730 C734 0.929 . S
H731 C740 0.929 . S
C732 H726 0.930 . S
C732 C733 1.367 . S
C732 C740 1.378 . S
C733 C732 1.367 . S
C733 C741 1.433 . S
C734 H730 0.929 . S
C734 C736 1.378 . S
C734 C738 1.350 . S
C735 C738 1.463 . S
C735 C740 1.350 . S
C735 N743 1.427 . S
C736 H727 0.930 . S
C736 C734 1.378 . S
C736 C737 1.367 . S
C737 C736 1.367 . S
C737 C739 1.433 . S
C738 C734 1.350 . S
C738 C735 1.463 . S
C738 N742 1.427 . S
C739 H729 0.929 . S
C739 C737 1.433 . S
C739 N742 1.384 . S
C740 H731 0.929 . S
C740 C732 1.378 . S
C740 C735 1.350 . S
C741 H728 0.929 . S
C741 C733 1.433 . S
C741 N743 1.384 . S
N742 C738 1.427 . S
N742 C739 1.384 . S
N743 C735 1.427 . S
N743 C741 1.384 . S
H744 C750 0.930 . S
H745 C754 0.930 . S
H746 C759 0.929 . S
H747 C757 0.929 . S
H748 C752 0.929 . S
H749 C758 0.929 . S
C750 H744 0.930 . S
C750 C751 1.367 . S
C750 C758 1.378 . S
C751 C750 1.367 . S
C751 C759 1.433 . S
C752 H748 0.929 . S
C752 C754 1.378 . S
C752 C756 1.350 . S
C753 C756 1.463 . S
C753 C758 1.350 . S
C753 N761 1.427 . S
C754 H745 0.930 . S
C754 C752 1.378 . S
C754 C755 1.367 . S
C755 C754 1.367 . S
C755 C757 1.433 . S
C756 C752 1.350 . S
C756 C753 1.463 . S
C756 N760 1.427 . S
C757 H747 0.929 . S
C757 C755 1.433 . S
C757 N760 1.384 . S
C758 H749 0.929 . S
C758 C750 1.378 . S
C758 C753 1.350 . S
C759 H746 0.929 . S
C759 C751 1.433 . S
C759 N761 1.384 . S
N760 C756 1.427 . S
N760 C757 1.384 . S
N761 C753 1.427 . S
N761 C759 1.384 . S
H762 C768 0.930 . S
H763 C772 0.930 . S
H764 C777 0.929 . S
H765 C775 0.929 . S
H766 C770 0.929 . S
H767 C776 0.929 . S
C768 H762 0.930 . S
C768 C769 1.367 . S
C768 C776 1.378 . S
C769 C768 1.367 . S
C769 C777 1.433 . S
C770 H766 0.929 . S
C770 C772 1.378 . S
C770 C774 1.350 . S
C771 C774 1.463 . S
C771 C776 1.350 . S
C771 N779 1.427 . S
C772 H763 0.930 . S
C772 C770 1.378 . S
C772 C773 1.367 . S
C773 C772 1.367 . S
C773 C775 1.433 . S
C774 C770 1.350 . S
C774 C771 1.463 . S
C774 N778 1.427 . S
C775 H765 0.929 . S
C775 C773 1.433 . S
C775 N778 1.384 . S
C776 H767 0.929 . S
C776 C768 1.378 . S
C776 C771 1.350 . S
C777 H764 0.929 . S
C777 C769 1.433 . S
C777 N779 1.384 . S
N778 C774 1.427 . S
N778 C775 1.384 . S
N779 C771 1.427 . S
N779 C777 1.384 . S
H780 C786 0.930 . S
H781 C790 0.930 . S
H782 C795 0.929 . S
H783 C793 0.929 . S
H784 C788 0.929 . S
H785 C794 0.929 . S
C786 H780 0.930 . S
C786 C787 1.367 . S
C786 C794 1.378 . S
C787 C786 1.367 . S
C787 C795 1.433 . S
C788 H784 0.929 . S
C788 C790 1.378 . S
C788 C792 1.350 . S
C789 C792 1.463 . S
C789 C794 1.350 . S
C789 N797 1.427 . S
C790 H781 0.930 . S
C790 C788 1.378 . S
C790 C791 1.367 . S
C791 C790 1.367 . S
C791 C793 1.433 . S
C792 C788 1.350 . S
C792 C789 1.463 . S
C792 N796 1.427 . S
C793 H783 0.929 . S
C793 C791 1.433 . S
C793 N796 1.384 . S
C794 H785 0.929 . S
C794 C786 1.378 . S
C794 C789 1.350 . S
C795 H782 0.929 . S
C795 C787 1.433 . S
C795 N797 1.384 . S
N796 C792 1.427 . S
N796 C793 1.384 . S
N797 C789 1.427 . S
N797 C795 1.384 . S
H798 C804 0.930 . S
H799 C808 0.930 . S
H800 C813 0.929 . S
H801 C811 0.929 . S
H802 C806 0.929 . S
H803 C812 0.929 . S
C804 H798 0.930 . S
C804 C805 1.367 . S
C804 C812 1.378 . S
C805 C804 1.367 . S
C805 C813 1.433 . S
C806 H802 0.929 . S
C806 C808 1.378 . S
C806 C810 1.350 . S
C807 C810 1.463 . S
C807 C812 1.350 . S
C807 N815 1.427 . S
C808 H799 0.930 . S
C808 C806 1.378 . S
C808 C809 1.367 . S
C809 C808 1.367 . S
C809 C811 1.433 . S
C810 C806 1.350 . S
C810 C807 1.463 . S
C810 N814 1.427 . S
C811 H801 0.929 . S
C811 C809 1.433 . S
C811 N814 1.384 . S
C812 H803 0.929 . S
C812 C804 1.378 . S
C812 C807 1.350 . S
C813 H800 0.929 . S
C813 C805 1.433 . S
C813 N815 1.384 . S
N814 C810 1.427 . S
N814 C811 1.384 . S
N815 C807 1.427 . S
N815 C813 1.384 . S
H816 C822 0.938 . S
H817 C826 0.930 . S
H818 C831 0.929 . S
H819 C829 0.929 1_655 S
H820 C824 0.929 . S
H821 C830 0.929 1_655 S
C822 H816 0.938 . S
C822 C823 1.367 . S
C822 C830 1.378 . S
C823 C822 1.367 . S
C823 C831 1.433 . S
C824 H820 0.929 . S
C824 C826 1.378 . S
C824 C828 1.350 . S
C825 C828 1.463 1_556 S
C825 C830 1.350 . S
C825 N833 1.427 . S
C826 H817 0.930 . S
C826 C824 1.378 . S
C826 C827 1.367 . S
C827 C826 1.367 . S
C827 C829 1.433 . S
C828 C824 1.350 . S
C828 C825 1.463 1_554 S
C828 N832 1.427 . S
C829 H819 0.929 1_455 S
C829 C827 1.433 . S
C829 N832 1.384 . S
C830 H821 0.929 1_455 S
C830 C822 1.378 . S
C830 C825 1.350 . S
C831 H818 0.929 . S
C831 C823 1.433 . S
C831 N833 1.384 . S
N832 C828 1.427 . S
N832 C829 1.384 . S
N833 C825 1.427 . S
N833 C831 1.384 . S
H834 C840 0.930 . S
H835 C844 0.930 . S
H836 C849 0.929 . S
H837 C847 0.929 . S
H838 C842 0.929 . S
H839 C848 0.929 . S
C840 H834 0.930 . S
C840 C841 1.367 . S
C840 C848 1.378 . S
C841 C840 1.367 . S
C841 C849 1.433 . S
C842 H838 0.929 . S
C842 C844 1.378 . S
C842 C846 1.350 . S
C843 C846 1.463 . S
C843 C848 1.350 . S
C843 N851 1.427 . S
C844 H835 0.930 . S
C844 C842 1.378 . S
C844 C845 1.367 . S
C845 C844 1.367 . S
C845 C847 1.433 . S
C846 C842 1.350 . S
C846 C843 1.463 . S
C846 N850 1.427 . S
C847 H837 0.929 . S
C847 C845 1.433 . S
C847 N850 1.384 . S
C848 H839 0.929 . S
C848 C840 1.378 . S
C848 C843 1.350 . S
C849 H836 0.929 . S
C849 C841 1.433 . S
C849 N851 1.384 . S
N850 C846 1.427 . S
N850 C847 1.384 . S
N851 C843 1.427 . S
N851 C849 1.384 . S
H852 C858 0.930 . S
H853 C862 0.930 . S
H854 C867 0.929 . S
H855 C865 0.929 . S
H856 C860 0.929 . S
H857 C866 0.929 . S
C858 H852 0.930 . S
C858 C859 1.367 . S
C858 C866 1.378 . S
C859 C858 1.367 . S
C859 C867 1.433 . S
C860 H856 0.929 . S
C860 C862 1.378 . S
C860 C864 1.350 . S
C861 C864 1.463 1_556 S
C861 C866 1.350 . S
C861 N869 1.427 . S
C862 H853 0.930 . S
C862 C860 1.378 . S
C862 C863 1.367 . S
C863 C862 1.367 . S
C863 C865 1.433 . S
C864 C860 1.350 . S
C864 C861 1.463 1_554 S
C864 N868 1.427 . S
C865 H855 0.929 . S
C865 C863 1.433 . S
C865 N868 1.384 . S
C866 H857 0.929 . S
C866 C858 1.378 . S
C866 C861 1.350 . S
C867 H854 0.929 . S
C867 C859 1.433 . S
C867 N869 1.384 . S
N868 C864 1.427 . S
N868 C865 1.384 . S
N869 C861 1.427 . S
N869 C867 1.384 . S
H870 C876 0.930 . S
H871 C880 0.930 . S
H872 C885 0.929 . S
H873 C883 0.929 . S
H874 C878 0.929 . S
H875 C884 0.929 . S
C876 H870 0.930 . S
C876 C877 1.367 . S
C876 C884 1.378 . S
C877 C876 1.367 . S
C877 C885 1.433 . S
C878 H874 0.929 . S
C878 C880 1.378 . S
C878 C882 1.350 . S
C879 C882 1.463 . S
C879 C884 1.350 . S
C879 N887 1.427 . S
C880 H871 0.930 . S
C880 C878 1.378 . S
C880 C881 1.367 1_455 S
C881 C880 1.367 1_655 S
C881 C883 1.433 . S
C882 C878 1.350 . S
C882 C879 1.463 . S
C882 N886 1.427 . S
C883 H873 0.929 . S
C883 C881 1.433 . S
C883 N886 1.384 1_655 S
C884 H875 0.929 . S
C884 C876 1.378 . S
C884 C879 1.350 . S
C885 H872 0.929 . S
C885 C877 1.433 . S
C885 N887 1.384 . S
N886 C882 1.427 . S
N886 C883 1.384 1_455 S
N887 C879 1.427 . S
N887 C885 1.384 . S
H888 C894 0.930 . S
H889 C898 0.930 . S
H890 C903 0.929 . S
H891 C901 0.929 . S
H892 C896 0.929 . S
H893 C902 0.929 . S
C894 H888 0.930 . S
C894 C895 1.367 . S
C894 C902 1.378 1_556 S
C895 C894 1.367 . S
C895 C903 1.433 . S
C896 H892 0.929 . S
C896 C898 1.378 1_556 S
C896 C900 1.350 1_556 S
C897 C900 1.463 1_556 S
C897 C902 1.350 1_556 S
C897 N905 1.427 . S
C898 H889 0.930 . S
C898 C896 1.378 1_554 S
C898 C899 1.367 . S
C899 C898 1.367 . S
C899 C901 1.433 . S
C900 C896 1.350 1_554 S
C900 C897 1.463 1_554 S
C900 N904 1.427 . S
C901 H891 0.929 . S
C901 C899 1.433 . S
C901 N904 1.384 . S
C902 H893 0.929 . S
C902 C894 1.378 1_554 S
C902 C897 1.350 1_554 S
C903 H890 0.929 . S
C903 C895 1.433 . S
C903 N905 1.384 . S
N904 C900 1.427 . S
N904 C901 1.384 . S
N905 C897 1.427 . S
N905 C903 1.384 . S
H906 C912 0.930 . S
H907 C916 0.930 . S
H908 C921 0.929 . S
H909 C919 0.929 . S
H910 C914 0.929 . S
H911 C920 0.929 . S
C912 H906 0.930 . S
C912 C913 1.367 . S
C912 C920 1.378 . S
C913 C912 1.367 . S
C913 C921 1.433 . S
C914 H910 0.929 . S
C914 C916 1.378 . S
C914 C918 1.350 . S
C915 C918 1.463 . S
C915 C920 1.350 . S
C915 N923 1.427 . S
C916 H907 0.930 . S
C916 C914 1.378 . S
C916 C917 1.367 . S
C917 C916 1.367 . S
C917 C919 1.433 . S
C918 C914 1.350 . S
C918 C915 1.463 . S
C918 N922 1.427 . S
C919 H909 0.929 . S
C919 C917 1.433 . S
C919 N922 1.384 . S
C920 H911 0.929 . S
C920 C912 1.378 . S
C920 C915 1.350 . S
C921 H908 0.929 . S
C921 C913 1.433 . S
C921 N923 1.384 . S
N922 C918 1.427 . S
N922 C919 1.384 . S
N923 C915 1.427 . S
N923 C921 1.384 . S
H924 C930 0.930 . S
H925 C934 0.930 . S
H926 C939 0.929 1_655 S
H927 C937 0.929 . S
H928 C932 0.929 . S
H929 C938 0.929 . S
C930 H924 0.930 . S
C930 C931 1.367 1_554 S
C930 C938 1.378 . S
C931 C930 1.367 1_556 S
C931 C939 1.433 . S
C932 H928 0.929 . S
C932 C934 1.378 . S
C932 C936 1.350 1_556 S
C933 C936 1.463 1_556 S
C933 C938 1.350 1_556 S
C933 N941 1.427 . S
C934 H925 0.930 . S
C934 C932 1.378 . S
C934 C935 1.367 1_556 S
C935 C934 1.367 1_554 S
C935 C937 1.433 . S
C936 C932 1.350 1_554 S
C936 C933 1.463 1_554 S
C936 N940 1.427 . S
C937 H927 0.929 . S
C937 C935 1.433 . S
C937 N940 1.384 . S
C938 H929 0.929 . S
C938 C930 1.378 . S
C938 C933 1.350 1_554 S
C939 H926 0.929 1_455 S
C939 C931 1.433 . S
C939 N941 1.384 . S
N940 C936 1.427 . S
N940 C937 1.384 . S
N941 C933 1.427 . S
N941 C939 1.384 . S
H942 C948 0.930 . S
H943 C952 0.930 . S
H944 C957 0.929 . S
H945 C955 0.929 . S
H946 C950 0.929 . S
H947 C956 0.929 . S
C948 H942 0.930 . S
C948 C949 1.367 . S
C948 C956 1.378 . S
C949 C948 1.367 . S
C949 C957 1.433 . S
C950 H946 0.929 . S
C950 C952 1.378 1_455 S
C950 C954 1.350 . S
C951 C954 1.463 . S
C951 C956 1.350 . S
C951 N959 1.427 . S
C952 H943 0.930 . S
C952 C950 1.378 1_655 S
C952 C953 1.367 . S
C953 C952 1.367 . S
C953 C955 1.433 . S
C954 C950 1.350 . S
C954 C951 1.463 . S
C954 N958 1.427 . S
C955 H945 0.929 . S
C955 C953 1.433 . S
C955 N958 1.384 1_655 S
C956 H947 0.929 . S
C956 C948 1.378 . S
C956 C951 1.350 . S
C957 H944 0.929 . S
C957 C949 1.433 . S
C957 N959 1.384 . S
N958 C954 1.427 . S
N958 C955 1.384 1_455 S
N959 C951 1.427 . S
N959 C957 1.384 . S
H960 C966 0.930 . S
H961 C970 0.930 . S
H962 C975 0.929 . S
H963 C973 0.929 . S
H964 C968 0.929 . S
H965 C974 0.929 . S
C966 H960 0.930 . S
C966 C967 1.367 . S
C966 C974 1.378 . S
C967 C966 1.367 . S
C967 C975 1.433 . S
C968 H964 0.929 . S
C968 C970 1.378 . S
C968 C972 1.350 . S
C969 C972 1.463 . S
C969 C974 1.350 . S
C969 N977 1.427 . S
C970 H961 0.930 . S
C970 C968 1.378 . S
C970 C971 1.367 . S
C971 C970 1.367 . S
C971 C973 1.433 . S
C972 C968 1.350 . S
C972 C969 1.463 . S
C972 N976 1.427 . S
C973 H963 0.929 . S
C973 C971 1.433 . S
C973 N976 1.384 . S
C974 H965 0.929 . S
C974 C966 1.378 . S
C974 C969 1.350 . S
C975 H962 0.929 . S
C975 C967 1.433 . S
C975 N977 1.384 . S
N976 C972 1.427 . S
N976 C973 1.384 . S
N977 C969 1.427 . S
N977 C975 1.384 . S
H978 C984 0.930 . S
H979 C988 0.930 . S
H980 C993 0.929 . S
H981 C991 0.929 . S
H982 C986 0.929 . S
H983 C992 0.929 . S
C984 H978 0.930 . S
C984 C985 1.367 . S
C984 C992 1.378 . S
C985 C984 1.367 . S
C985 C993 1.433 . S
C986 H982 0.929 . S
C986 C988 1.378 . S
C986 C990 1.350 . S
C987 C990 1.463 . S
C987 C992 1.350 . S
C987 N995 1.427 . S
C988 H979 0.930 . S
C988 C986 1.378 . S
C988 C989 1.367 . S
C989 C988 1.367 . S
C989 C991 1.433 . S
C990 C986 1.350 . S
C990 C987 1.463 . S
C990 N994 1.427 . S
C991 H981 0.929 . S
C991 C989 1.433 . S
C991 N994 1.384 . S
C992 H983 0.929 . S
C992 C984 1.378 . S
C992 C987 1.350 . S
C993 H980 0.929 . S
C993 C985 1.433 . S
C993 N995 1.384 . S
N994 C990 1.427 . S
N994 C991 1.384 . S
N995 C987 1.427 . S
N995 C993 1.384 . S
H996 C1002 0.930 . S
H997 C1006 0.930 . S
H998 C1011 0.929 . S
H999 C1009 0.929 . S
H1000 C1004 0.929 . S
H1001 C1010 0.929 . S
C1002 H996 0.930 . S
C1002 C1003 1.367 . S
C1002 C1010 1.378 . S
C1003 C1002 1.367 . S
C1003 C1011 1.433 . S
C1004 H1000 0.929 . S
C1004 C1006 1.378 . S
C1004 C1008 1.350 . S
C1005 C1008 1.463 . S
C1005 C1010 1.350 . S
C1005 N1013 1.427 . S
C1006 H997 0.930 . S
C1006 C1004 1.378 . S
C1006 C1007 1.367 . S
C1007 C1006 1.367 . S
C1007 C1009 1.433 . S
C1008 C1004 1.350 . S
C1008 C1005 1.463 . S
C1008 N1012 1.427 . S
C1009 H999 0.929 . S
C1009 C1007 1.433 . S
C1009 N1012 1.384 . S
C1010 H1001 0.929 . S
C1010 C1002 1.378 . S
C1010 C1005 1.350 . S
C1011 H998 0.929 . S
C1011 C1003 1.433 . S
C1011 N1013 1.384 . S
N1012 C1008 1.427 . S
N1012 C1009 1.384 . S
N1013 C1005 1.427 . S
N1013 C1011 1.384 . S
H1014 C1020 0.930 . S
H1015 C1024 0.930 . S
H1016 C1029 0.929 . S
H1017 C1027 0.929 . S
H1018 C1022 0.929 . S
H1019 C1028 0.929 . S
C1020 H1014 0.930 . S
C1020 C1021 1.367 . S
C1020 C1028 1.378 . S
C1021 C1020 1.367 . S
C1021 C1029 1.433 . S
C1022 H1018 0.929 . S
C1022 C1024 1.378 . S
C1022 C1026 1.350 . S
C1023 C1026 1.463 . S
C1023 C1028 1.350 . S
C1023 N1031 1.427 . S
C1024 H1015 0.930 . S
C1024 C1022 1.378 . S
C1024 C1025 1.367 . S
C1025 C1024 1.367 . S
C1025 C1027 1.433 . S
C1026 C1022 1.350 . S
C1026 C1023 1.463 . S
C1026 N1030 1.427 . S
C1027 H1017 0.929 . S
C1027 C1025 1.433 . S
C1027 N1030 1.384 . S
C1028 H1019 0.929 . S
C1028 C1020 1.378 . S
C1028 C1023 1.350 . S
C1029 H1016 0.929 . S
C1029 C1021 1.433 . S
C1029 N1031 1.384 . S
N1030 C1026 1.427 . S
N1030 C1027 1.384 . S
N1031 C1023 1.427 . S
N1031 C1029 1.384 . S
H1032 C1038 0.930 . S
H1033 C1042 0.930 . S
H1034 C1047 0.929 . S
H1035 C1045 0.929 . S
H1036 C1040 0.929 . S
H1037 C1046 0.929 . S
C1038 H1032 0.930 . S
C1038 C1039 1.367 . S
C1038 C1046 1.378 . S
C1039 C1038 1.367 . S
C1039 C1047 1.433 . S
C1040 H1036 0.929 . S
C1040 C1042 1.378 . S
C1040 C1044 1.350 . S
C1041 C1044 1.463 . S
C1041 C1046 1.350 . S
C1041 N1049 1.427 . S
C1042 H1033 0.930 . S
C1042 C1040 1.378 . S
C1042 C1043 1.367 . S
C1043 C1042 1.367 . S
C1043 C1045 1.433 . S
C1044 C1040 1.350 . S
C1044 C1041 1.463 . S
C1044 N1048 1.427 . S
C1045 H1035 0.929 . S
C1045 C1043 1.433 . S
C1045 N1048 1.384 . S
C1046 H1037 0.929 . S
C1046 C1038 1.378 . S
C1046 C1041 1.350 . S
C1047 H1034 0.929 . S
C1047 C1039 1.433 . S
C1047 N1049 1.384 . S
N1048 C1044 1.427 . S
N1048 C1045 1.384 . S
N1049 C1041 1.427 . S
N1049 C1047 1.384 . S
H1050 C1056 0.930 . S
H1051 C1060 0.930 . S
H1052 C1065 0.929 . S
H1053 C1063 0.929 . S
H1054 C1058 0.929 . S
H1055 C1064 0.929 . S
C1056 H1050 0.930 . S
C1056 C1057 1.367 . S
C1056 C1064 1.378 . S
C1057 C1056 1.367 . S
C1057 C1065 1.433 . S
C1058 H1054 0.929 . S
C1058 C1060 1.378 . S
C1058 C1062 1.350 . S
C1059 C1062 1.463 . S
C1059 C1064 1.350 . S
C1059 N1067 1.427 . S
C1060 H1051 0.930 . S
C1060 C1058 1.378 . S
C1060 C1061 1.367 . S
C1061 C1060 1.367 . S
C1061 C1063 1.433 . S
C1062 C1058 1.350 . S
C1062 C1059 1.463 . S
C1062 N1066 1.427 . S
C1063 H1053 0.929 . S
C1063 C1061 1.433 . S
C1063 N1066 1.384 . S
C1064 H1055 0.929 . S
C1064 C1056 1.378 . S
C1064 C1059 1.350 . S
C1065 H1052 0.929 . S
C1065 C1057 1.433 . S
C1065 N1067 1.384 . S
N1066 C1062 1.427 . S
N1066 C1063 1.384 . S
N1067 C1059 1.427 . S
N1067 C1065 1.384 . S
H1068 C1074 0.930 . S
H1069 C1078 0.930 . S
H1070 C1083 0.929 . S
H1071 C1081 0.929 . S
H1072 C1076 0.929 . S
H1073 C1082 0.929 . S
C1074 H1068 0.930 . S
C1074 C1075 1.367 . S
C1074 C1082 1.378 . S
C1075 C1074 1.367 . S
C1075 C1083 1.433 . S
C1076 H1072 0.929 . S
C1076 C1078 1.378 . S
C1076 C1080 1.350 . S
C1077 C1080 1.463 . S
C1077 C1082 1.350 . S
C1077 N1085 1.427 . S
C1078 H1069 0.930 . S
C1078 C1076 1.378 . S
C1078 C1079 1.367 . S
C1079 C1078 1.367 . S
C1079 C1081 1.433 . S
C1080 C1076 1.350 . S
C1080 C1077 1.463 . S
C1080 N1084 1.427 . S
C1081 H1071 0.929 . S
C1081 C1079 1.433 . S
C1081 N1084 1.384 . S
C1082 H1073 0.929 . S
C1082 C1074 1.378 . S
C1082 C1077 1.350 . S
C1083 H1070 0.929 . S
C1083 C1075 1.433 . S
C1083 N1085 1.384 . S
N1084 C1080 1.427 . S
N1084 C1081 1.384 . S
N1085 C1077 1.427 . S
N1085 C1083 1.384 . S
H1086 C1092 0.930 . S
H1087 C1096 0.930 . S
H1088 C1101 0.929 . S
H1089 C1099 0.929 . S
H1090 C1094 0.929 . S
H1091 C1100 0.929 . S
C1092 H1086 0.930 . S
C1092 C1093 1.367 . S
C1092 C1100 1.378 . S
C1093 C1092 1.367 . S
C1093 C1101 1.433 . S
C1094 H1090 0.929 . S
C1094 C1096 1.378 . S
C1094 C1098 1.350 . S
C1095 C1098 1.463 . S
C1095 C1100 1.350 . S
C1095 N1103 1.427 . S
C1096 H1087 0.930 . S
C1096 C1094 1.378 . S
C1096 C1097 1.367 . S
C1097 C1096 1.367 . S
C1097 C1099 1.433 . S
C1098 C1094 1.350 . S
C1098 C1095 1.463 . S
C1098 N1102 1.427 . S
C1099 H1089 0.929 . S
C1099 C1097 1.433 . S
C1099 N1102 1.384 . S
C1100 H1091 0.929 . S
C1100 C1092 1.378 . S
C1100 C1095 1.350 . S
C1101 H1088 0.929 . S
C1101 C1093 1.433 . S
C1101 N1103 1.384 . S
N1102 C1098 1.427 . S
N1102 C1099 1.384 . S
N1103 C1095 1.427 . S
N1103 C1101 1.384 . S
C679 C651 1.101 . S
C683 C69 1.026 . S
C697 C142 1.306 . S
C701 C405 1.048 . S
C715 C476 1.740 . S
C719 C224 1.667 . S
C733 C321 0.704 . S
C737 C560 0.326 . S
C751 C158 1.091 . S
C755 C562 1.034 . S
C769 C226 1.012 . S
C773 C657 1.282 . S
C787 C403 1.655 . S
C791 C319 1.741 . S
C805 C478 0.661 . S
C809 C67 0.276 . S
C823 C571 1.012 1_545 S
C827 C56 1.012 . S
C841 C147 3.154 . S
C845 C662 3.154 . S
C859 C394 1.429 . S
C863 C237 1.429 . S
C877 C308 3.487 . S
C881 C487 3.487 . S
C895 C392 1.979 1_545 S
C899 C235 1.979 . S
C913 C310 0.928 . S
C917 C489 0.928 . S
C931 C573 2.623 1_455 S
C935 C58 2.623 . S
C949 C153 1.162 . S
C953 C646 1.162 . S
C967 C74 2.886 . S
C971 C231 3.011 . S
C985 C151 3.134 1_565 S
C989 C326 3.030 . S
C1003 C410 3.012 . S
C1007 C567 2.883 . S
C1021 C644 3.133 . S
C1025 C483 3.025 . S
C1039 C63 2.566 . S
C1043 C242 2.628 . S
C1057 C140 2.798 . S
C1061 C315 2.837 . S
C1075 C399 2.626 . S
C1079 C578 2.569 . S
C1093 C494 2.836 . S
C1097 C655 2.795 . S
