# Generated by pormake.
# Topology ukd, (4)-cn, num edge types: 1
# Building blocks:
#     Node 0, Type 0, BuildingBlock: CEKHIL_clean_sbu_0, # of connection points: 4
#     Node 1, Type 0, BuildingBlock: CEKHIL_clean_sbu_0, # of connection points: 4
#     Node 2, Type 0, BuildingBlock: CEKHIL_clean_sbu_0, # of connection points: 4
#     Node 3, Type 0, BuildingBlock: CEKHIL_clean_sbu_0, # of connection points: 4
#     Node 4, Type 0, BuildingBlock: CEKHIL_clean_sbu_0, # of connection points: 4
#     Node 5, Type 0, BuildingBlock: CEKHIL_clean_sbu_0, # of connection points: 4
#     Node 6, Type 0, BuildingBlock: CEKHIL_clean_sbu_0, # of connection points: 4
#     Node 7, Type 0, BuildingBlock: CEKHIL_clean_sbu_0, # of connection points: 4
#     Node 8, Type 0, BuildingBlock: CEKHIL_clean_sbu_0, # of connection points: 4
#     Node 9, Type 0, BuildingBlock: CEKHIL_clean_sbu_0, # of connection points: 4
#     Node 10, Type 0, BuildingBlock: CEKHIL_clean_sbu_0, # of connection points: 4
#     Node 11, Type 0, BuildingBlock: CEKHIL_clean_sbu_0, # of connection points: 4
#     Node 12, Type 0, BuildingBlock: CEKHIL_clean_sbu_0, # of connection points: 4
#     Node 13, Type 0, BuildingBlock: CEKHIL_clean_sbu_0, # of connection points: 4
#     Node 14, Type 0, BuildingBlock: CEKHIL_clean_sbu_0, # of connection points: 4
#     Node 15, Type 0, BuildingBlock: CEKHIL_clean_sbu_0, # of connection points: 4
#     Node 16, Type 0, BuildingBlock: CEKHIL_clean_sbu_0, # of connection points: 4
#     Node 17, Type 0, BuildingBlock: CEKHIL_clean_sbu_0, # of connection points: 4
#     Node 18, Type 0, BuildingBlock: CEKHIL_clean_sbu_0, # of connection points: 4
#     Node 19, Type 0, BuildingBlock: CEKHIL_clean_sbu_0, # of connection points: 4
#     Node 20, Type 0, BuildingBlock: CEKHIL_clean_sbu_0, # of connection points: 4
#     Node 21, Type 0, BuildingBlock: CEKHIL_clean_sbu_0, # of connection points: 4
#     Node 22, Type 0, BuildingBlock: CEKHIL_clean_sbu_0, # of connection points: 4
#     Node 23, Type 0, BuildingBlock: CEKHIL_clean_sbu_0, # of connection points: 4
#     Node 24, Type 0, BuildingBlock: CEKHIL_clean_sbu_0, # of connection points: 4
#     Node 25, Type 0, BuildingBlock: CEKHIL_clean_sbu_0, # of connection points: 4
#     Node 26, Type 0, BuildingBlock: CEKHIL_clean_sbu_0, # of connection points: 4
#     Node 27, Type 0, BuildingBlock: CEKHIL_clean_sbu_0, # of connection points: 4
#     Node 28, Type 0, BuildingBlock: CEKHIL_clean_sbu_0, # of connection points: 4
#     Node 29, Type 0, BuildingBlock: CEKHIL_clean_sbu_0, # of connection points: 4
#     Node 30, Type 0, BuildingBlock: CEKHIL_clean_sbu_0, # of connection points: 4
#     Node 31, Type 0, BuildingBlock: CEKHIL_clean_sbu_0, # of connection points: 4
#     Edge 32, Type (0, 0), None
#     Edge 33, Type (0, 0), None
#     Edge 34, Type (0, 0), None
#     Edge 35, Type (0, 0), None
#     Edge 36, Type (0, 0), None
#     Edge 37, Type (0, 0), None
#     Edge 38, Type (0, 0), None
#     Edge 39, Type (0, 0), None
#     Edge 40, Type (0, 0), None
#     Edge 41, Type (0, 0), None
#     Edge 42, Type (0, 0), None
#     Edge 43, Type (0, 0), None
#     Edge 44, Type (0, 0), None
#     Edge 45, Type (0, 0), None
#     Edge 46, Type (0, 0), None
#     Edge 47, Type (0, 0), None
#     Edge 48, Type (0, 0), None
#     Edge 49, Type (0, 0), None
#     Edge 50, Type (0, 0), None
#     Edge 51, Type (0, 0), None
#     Edge 52, Type (0, 0), None
#     Edge 53, Type (0, 0), None
#     Edge 54, Type (0, 0), None
#     Edge 55, Type (0, 0), None
#     Edge 56, Type (0, 0), None
#     Edge 57, Type (0, 0), None
#     Edge 58, Type (0, 0), None
#     Edge 59, Type (0, 0), None
#     Edge 60, Type (0, 0), None
#     Edge 61, Type (0, 0), None
#     Edge 62, Type (0, 0), None
#     Edge 63, Type (0, 0), None
#     Edge 64, Type (0, 0), None
#     Edge 65, Type (0, 0), None
#     Edge 66, Type (0, 0), None
#     Edge 67, Type (0, 0), None
#     Edge 68, Type (0, 0), None
#     Edge 69, Type (0, 0), None
#     Edge 70, Type (0, 0), None
#     Edge 71, Type (0, 0), None
#     Edge 72, Type (0, 0), None
#     Edge 73, Type (0, 0), None
#     Edge 74, Type (0, 0), None
#     Edge 75, Type (0, 0), None
#     Edge 76, Type (0, 0), None
#     Edge 77, Type (0, 0), None
#     Edge 78, Type (0, 0), None
#     Edge 79, Type (0, 0), None
#     Edge 80, Type (0, 0), None
#     Edge 81, Type (0, 0), None
#     Edge 82, Type (0, 0), None
#     Edge 83, Type (0, 0), None
#     Edge 84, Type (0, 0), None
#     Edge 85, Type (0, 0), None
#     Edge 86, Type (0, 0), None
#     Edge 87, Type (0, 0), None
#     Edge 88, Type (0, 0), None
#     Edge 89, Type (0, 0), None
#     Edge 90, Type (0, 0), None
#     Edge 91, Type (0, 0), None
#     Edge 92, Type (0, 0), None
#     Edge 93, Type (0, 0), None
#     Edge 94, Type (0, 0), None
#     Edge 95, Type (0, 0), None
# Relax obj value: 0.044
# Max RMSD: 0.082
# Mean RMSD: 0.082
data_MOF--net-ukd--node1-CEKHIL_clean_sbu_0--edge1-none
_symmetry_space_group_name_H-M    P1
_symmetry_Int_Tables_number       1
_symmetry_cell_setting            triclinic
loop_
_symmetry_equiv_pos_as_xyz
'x, y, z'
_cell_length_a     20.254435
_cell_length_b     20.254449
_cell_length_c     29.816873
_cell_angle_alpha  90.000608
_cell_angle_beta   90.0
_cell_angle_gamma 90.0
loop_
_atom_site_label
_atom_site_type_symbol
_atom_site_fract_x
_atom_site_fract_y
_atom_site_fract_z
_atom_type_partial_charge
Co0 Co 0.24236 0.18815 0.35404 0.0
O1 O 0.29319 0.10948 0.34121 0.0
O2 O 0.3012 0.16876 0.40345 0.0
C3 C 0.25437 0.23572 0.28535 0.0
O4 O 0.20051 0.27112 0.37987 0.0
Co5 Co 0.11463 0.2245 0.30129 0.0
O6 O 0.12399 0.3109 0.33264 0.0
C7 C 0.10927 0.12655 0.37537 0.0
C8 C 0.32032 0.118 0.38023 0.0
C9 C 0.15859 0.31546 0.3682 0.0
O10 O 0.17049 0.13606 0.3848 0.0
O11 O 0.08029 0.15216 0.34135 0.0
O12 O 0.30076 0.24073 0.31531 0.0
O13 O 0.20559 0.19827 0.2962 0.0
Co14 Co 0.07108 0.99235 0.60404 0.0
O15 O 0.14976 0.04318 0.59122 0.0
O16 O 0.09048 0.05119 0.65346 0.0
C17 C 0.02352 1.00437 0.53536 0.0
O18 O 0.98812 0.95049 0.62987 0.0
Co19 Co 0.03474 0.86463 0.55129 0.0
O20 O 0.94835 0.87398 0.58265 0.0
C21 C 0.1327 0.85926 0.62537 0.0
C22 C 0.14125 0.0703 0.63024 0.0
C23 C 0.94378 0.90858 0.61821 0.0
O24 O 0.12318 0.92047 0.63481 0.0
O25 O 0.10708 0.83028 0.59135 0.0
O26 O 0.01851 0.05075 0.56532 0.0
O27 O 0.06097 0.95559 0.54621 0.0
Co28 Co 0.2669 0.82111 0.85404 0.0
O29 O 0.21607 0.89978 0.84121 0.0
O30 O 0.20806 0.8405 0.90345 0.0
C31 C 0.25489 0.77354 0.78535 0.0
O32 O 0.30875 0.73814 0.87987 0.0
Co33 Co 0.39463 0.78476 0.80129 0.0
O34 O 0.38527 0.69836 0.83264 0.0
C35 C 0.39999 0.88271 0.87537 0.0
C36 C 0.18894 0.89126 0.88023 0.0
C37 C 0.35067 0.6938 0.8682 0.0
O38 O 0.33878 0.8732 0.8848 0.0
O39 O 0.42897 0.85709 0.84135 0.0
O40 O 0.2085 0.76853 0.81531 0.0
O41 O 0.30367 0.81098 0.7962 0.0
Co42 Co 0.43818 0.01691 0.10404 0.0
O43 O 0.3595 0.96608 0.09122 0.0
O44 O 0.41878 0.95807 0.15346 0.0
C45 C 0.48574 0.00489 0.03536 0.0
O46 O 0.52114 0.05877 0.12987 0.0
Co47 Co 0.47452 0.14463 0.05129 0.0
O48 O 0.56091 0.13528 0.08265 0.0
C49 C 0.37656 0.15 0.12537 0.0
C50 C 0.36802 0.93896 0.13024 0.0
C51 C 0.56548 0.10068 0.11821 0.0
O52 O 0.38608 0.08879 0.13481 0.0
O53 O 0.40218 0.17898 0.09135 0.0
O54 O 0.49075 0.95851 0.06532 0.0
O55 O 0.44829 0.05367 0.04621 0.0
Co56 Co 0.24236 0.8211 0.17437 0.0
O57 O 0.29319 0.89978 0.1872 0.0
O58 O 0.3012 0.8405 0.12496 0.0
C59 C 0.25437 0.77354 0.24306 0.0
O60 O 0.20051 0.73814 0.14855 0.0
Co61 Co 0.11463 0.78476 0.22713 0.0
O62 O 0.12399 0.69836 0.19577 0.0
C63 C 0.10927 0.88271 0.15304 0.0
C64 C 0.32031 0.89126 0.14818 0.0
C65 C 0.15859 0.6938 0.16021 0.0
O66 O 0.17049 0.8732 0.14361 0.0
O67 O 0.08029 0.8571 0.18706 0.0
O68 O 0.30076 0.76853 0.2131 0.0
O69 O 0.20559 0.81099 0.23221 0.0
Co70 Co 0.43818 0.99235 0.42437 0.0
O71 O 0.3595 0.04318 0.43719 0.0
O72 O 0.41878 0.05119 0.37495 0.0
C73 C 0.48574 1.00437 0.49305 0.0
O74 O 0.52114 0.95049 0.39854 0.0
Co75 Co 0.47451 0.86463 0.47713 0.0
O76 O 0.56091 0.87398 0.44577 0.0
C77 C 0.37656 0.85926 0.40304 0.0
C78 C 0.36801 0.0703 0.39816 0.0
C79 C 0.56548 0.90858 0.41021 0.0
O80 O 0.38608 0.92048 0.3936 0.0
O81 O 0.40218 0.83028 0.43706 0.0
O82 O 0.49075 0.05076 0.46309 0.0
O83 O 0.44829 0.95559 0.48221 0.0
Co84 Co 0.2669 0.18816 0.67437 0.0
O85 O 0.21607 0.10948 0.6872 0.0
O86 O 0.20806 0.16876 0.62496 0.0
C87 C 0.25489 0.23572 0.74306 0.0
O88 O 0.30875 0.27112 0.64855 0.0
Co89 Co 0.39463 0.2245 0.72713 0.0
O90 O 0.38527 0.3109 0.69577 0.0
C91 C 0.39999 0.12655 0.65304 0.0
C92 C 0.18895 0.118 0.64818 0.0
C93 C 0.35067 0.31546 0.66021 0.0
O94 O 0.33878 0.13606 0.64361 0.0
O95 O 0.42897 0.15217 0.68706 0.0
O96 O 0.2085 0.24073 0.7131 0.0
O97 O 0.30367 0.19827 0.73221 0.0
Co98 Co 0.07108 0.01691 0.92437 0.0
O99 O 0.14976 0.96608 0.93719 0.0
O100 O 0.09048 0.95807 0.87495 0.0
C101 C 0.02352 0.00489 0.99305 0.0
O102 O 0.98812 0.05877 0.89854 0.0
Co103 Co 0.03474 0.14463 0.97713 0.0
O104 O 0.94835 0.13528 0.94576 0.0
C105 C 0.1327 0.15 0.90304 0.0
C106 C 0.14125 0.93896 0.89817 0.0
C107 C 0.94378 0.10068 0.9102 0.0
O108 O 0.12318 0.08879 0.8936 0.0
O109 O 0.10708 0.17898 0.93706 0.0
O110 O 0.01851 0.95851 0.96309 0.0
O111 O 0.06097 0.05367 0.98221 0.0
Co112 Co 0.76688 0.82109 0.67439 0.0
O113 O 0.71604 0.89976 0.68721 0.0
O114 O 0.70805 0.84049 0.62497 0.0
C115 C 0.75485 0.77352 0.74307 0.0
O116 O 0.80874 0.73813 0.64856 0.0
Co117 Co 0.89459 0.78476 0.72717 0.0
O118 O 0.88528 0.69838 0.69579 0.0
C119 C 0.89995 0.88277 0.65313 0.0
C120 C 0.68893 0.89125 0.64818 0.0
C121 C 0.85068 0.6938 0.66023 0.0
O122 O 0.83876 0.87318 0.64364 0.0
O123 O 0.92892 0.85716 0.68715 0.0
O124 O 0.70847 0.76851 0.71311 0.0
O125 O 0.80363 0.81097 0.73223 0.0
Co126 Co 0.93817 0.0169 0.42438 0.0
O127 O 0.8595 0.96606 0.4372 0.0
O128 O 0.91879 0.95807 0.37496 0.0
C129 C 0.98573 0.00489 0.49307 0.0
O130 O 0.02113 0.05878 0.39857 0.0
Co131 Co 0.97448 0.14463 0.47716 0.0
O132 O 0.0609 0.13526 0.44584 0.0
C133 C 0.87655 0.14999 0.40306 0.0
C134 C 0.86802 0.93895 0.39817 0.0
C135 C 0.06549 0.10065 0.41028 0.0
O136 O 0.88608 0.08878 0.39362 0.0
O137 O 0.90215 0.17897 0.43709 0.0
O138 O 0.99075 0.9585 0.46311 0.0
O139 O 0.94827 0.05366 0.48223 0.0
Co140 Co 0.74238 0.18817 0.17439 0.0
O141 O 0.79322 0.1095 0.18721 0.0
O142 O 0.80121 0.16877 0.12497 0.0
C143 C 0.75441 0.23574 0.24307 0.0
O144 O 0.70052 0.27113 0.14856 0.0
Co145 Co 0.61467 0.2245 0.22717 0.0
O146 O 0.62398 0.31089 0.19579 0.0
C147 C 0.60931 0.12649 0.15313 0.0
C148 C 0.82033 0.11801 0.14818 0.0
C149 C 0.65858 0.31546 0.16023 0.0
O150 O 0.67049 0.13608 0.14363 0.0
O151 O 0.58034 0.1521 0.18715 0.0
O152 O 0.80079 0.24075 0.21311 0.0
O153 O 0.70563 0.19829 0.23223 0.0
Co154 Co 0.57109 0.99236 0.92438 0.0
O155 O 0.64976 0.0432 0.9372 0.0
O156 O 0.59047 0.05119 0.87496 0.0
C157 C 0.52353 1.00437 0.99307 0.0
O158 O 0.48813 0.95048 0.89857 0.0
Co159 Co 0.53479 0.86463 0.97716 0.0
O160 O 0.44836 0.874 0.94584 0.0
C161 C 0.63271 0.85927 0.90306 0.0
C162 C 0.64124 0.07031 0.89817 0.0
C163 C 0.44377 0.90861 0.91029 0.0
O164 O 0.62319 0.92048 0.89362 0.0
O165 O 0.60711 0.83029 0.93709 0.0
O166 O 0.51852 0.05076 0.96311 0.0
O167 O 0.56099 0.9556 0.98223 0.0
Co168 Co 0.76688 0.18817 0.85402 0.0
O169 O 0.71604 0.1095 0.8412 0.0
O170 O 0.70805 0.16877 0.90345 0.0
C171 C 0.75485 0.23574 0.78534 0.0
O172 O 0.80874 0.27113 0.87985 0.0
Co173 Co 0.89459 0.2245 0.80124 0.0
O174 O 0.88528 0.31088 0.83262 0.0
C175 C 0.89995 0.12649 0.87528 0.0
C176 C 0.68893 0.11801 0.88023 0.0
C177 C 0.85068 0.31546 0.86818 0.0
O178 O 0.83876 0.13608 0.88478 0.0
O179 O 0.92892 0.1521 0.84126 0.0
O180 O 0.70847 0.24075 0.8153 0.0
O181 O 0.80363 0.19829 0.79618 0.0
Co182 Co 0.57109 0.0169 0.60403 0.0
O183 O 0.64976 0.96606 0.59121 0.0
O184 O 0.59047 0.95807 0.65345 0.0
C185 C 0.52353 0.00489 0.53534 0.0
O186 O 0.48813 0.05878 0.62984 0.0
Co187 Co 0.53479 0.14463 0.55125 0.0
O188 O 0.44836 0.13526 0.58257 0.0
C189 C 0.63271 0.14999 0.62535 0.0
C190 C 0.64124 0.93895 0.63024 0.0
C191 C 0.44377 0.10065 0.61812 0.0
O192 O 0.62318 0.08878 0.63479 0.0
O193 O 0.60711 0.17897 0.59133 0.0
O194 O 0.51852 0.9585 0.5653 0.0
O195 O 0.56099 0.05366 0.54618 0.0
Co196 Co 0.74238 0.82109 0.35403 0.0
O197 O 0.79322 0.89976 0.3412 0.0
O198 O 0.80121 0.84049 0.40345 0.0
C199 C 0.75441 0.77352 0.28534 0.0
O200 O 0.70052 0.73813 0.37985 0.0
Co201 Co 0.61467 0.78476 0.30124 0.0
O202 O 0.62398 0.69838 0.33263 0.0
C203 C 0.60931 0.88277 0.37528 0.0
C204 C 0.82033 0.89125 0.38023 0.0
C205 C 0.65858 0.6938 0.36818 0.0
O206 O 0.67049 0.87318 0.38478 0.0
O207 O 0.58034 0.85716 0.34126 0.0
O208 O 0.80079 0.76851 0.3153 0.0
O209 O 0.70563 0.81097 0.29618 0.0
Co210 Co 0.93817 0.99236 0.10403 0.0
O211 O 0.8595 0.0432 0.09121 0.0
O212 O 0.91879 0.05119 0.15345 0.0
C213 C 0.98573 1.00437 0.03534 0.0
O214 O 0.02113 0.95048 0.12984 0.0
Co215 Co 0.97447 0.86463 0.05125 0.0
O216 O 0.0609 0.874 0.08257 0.0
C217 C 0.87655 0.85927 0.12535 0.0
C218 C 0.86802 0.07031 0.13024 0.0
C219 C 0.06549 0.90861 0.11813 0.0
O220 O 0.88608 0.92048 0.13479 0.0
O221 O 0.90215 0.83029 0.09133 0.0
O222 O 0.99075 0.05076 0.0653 0.0
O223 O 0.94827 0.9556 0.04618 0.0
Co224 Co 0.74233 0.68815 0.85404 0.0
O225 O 0.79317 0.60948 0.84122 0.0
O226 O 0.80117 0.66876 0.90345 0.0
C227 C 0.75434 0.73572 0.78535 0.0
O228 O 0.70046 0.77112 0.87986 0.0
Co229 Co 0.6146 0.72447 0.80127 0.0
O230 O 0.62399 0.8109 0.83259 0.0
C231 C 0.60924 0.62654 0.87537 0.0
C232 C 0.82029 0.618 0.88024 0.0
C233 C 0.6586 0.81548 0.86814 0.0
O234 O 0.67046 0.63606 0.8848 0.0
O235 O 0.58026 0.65215 0.84135 0.0
O236 O 0.80073 0.74073 0.81531 0.0
O237 O 0.70557 0.69826 0.7962 0.0
Co238 Co 0.57111 0.49236 0.10404 0.0
O239 O 0.64978 0.54319 0.09121 0.0
O240 O 0.59051 0.55119 0.15345 0.0
C241 C 0.52353 0.50437 0.03535 0.0
O242 O 0.48815 0.4505 0.12986 0.0
Co243 Co 0.53476 0.36463 0.05127 0.0
O244 O 0.44837 0.37397 0.08264 0.0
C245 C 0.63278 0.35928 0.1253 0.0
C246 C 0.64127 0.57031 0.13023 0.0
C247 C 0.44381 0.40858 0.1182 0.0
O248 O 0.6232 0.42047 0.13479 0.0
O249 O 0.60716 0.33031 0.09129 0.0
O250 O 0.51852 0.55076 0.06531 0.0
O251 O 0.56098 0.4556 0.0462 0.0
Co252 Co 0.76693 0.32111 0.35404 0.0
O253 O 0.7161 0.39978 0.34122 0.0
O254 O 0.70809 0.3405 0.40345 0.0
C255 C 0.75492 0.27354 0.28535 0.0
O256 O 0.8088 0.23814 0.37986 0.0
Co257 Co 0.89466 0.28478 0.30127 0.0
O258 O 0.88527 0.19836 0.33259 0.0
C259 C 0.90002 0.38272 0.37537 0.0
C260 C 0.68897 0.39126 0.38024 0.0
C261 C 0.85066 0.19378 0.36814 0.0
O262 O 0.8388 0.3732 0.38481 0.0
O263 O 0.929 0.35711 0.34135 0.0
O264 O 0.70853 0.26853 0.31531 0.0
O265 O 0.8037 0.311 0.2962 0.0
Co266 Co 0.93815 0.5169 0.60404 0.0
O267 O 0.85948 0.46607 0.59121 0.0
O268 O 0.91875 0.45807 0.65345 0.0
C269 C 0.98573 0.50489 0.53535 0.0
O270 O 0.02111 0.55876 0.62986 0.0
Co271 Co 0.9745 0.64462 0.55127 0.0
O272 O 0.06088 0.63529 0.58264 0.0
C273 C 0.87648 0.64998 0.6253 0.0
C274 C 0.86799 0.43895 0.63023 0.0
C275 C 0.06545 0.60068 0.6182 0.0
O276 O 0.88606 0.58879 0.63479 0.0
O277 O 0.9021 0.67895 0.59129 0.0
O278 O 0.99074 0.4585 0.56531 0.0
O279 O 0.94828 0.55366 0.5462 0.0
Co280 Co 0.74233 0.32111 0.67437 0.0
O281 O 0.79317 0.39978 0.68719 0.0
O282 O 0.80117 0.34049 0.62496 0.0
C283 C 0.75434 0.27355 0.74306 0.0
O284 O 0.70046 0.23814 0.64856 0.0
Co285 Co 0.6146 0.28479 0.72714 0.0
O286 O 0.62399 0.19836 0.69582 0.0
C287 C 0.60924 0.38272 0.65304 0.0
C288 C 0.82028 0.39126 0.64817 0.0
C289 C 0.6586 0.19378 0.66027 0.0
O290 O 0.67046 0.3732 0.64361 0.0
O291 O 0.58026 0.35711 0.68706 0.0
O292 O 0.80073 0.26853 0.7131 0.0
O293 O 0.70557 0.311 0.73221 0.0
Co294 Co 0.93815 0.49236 0.92437 0.0
O295 O 0.85948 0.54319 0.9372 0.0
O296 O 0.91875 0.55119 0.87496 0.0
C297 C 0.98573 0.50437 0.99306 0.0
O298 O 0.02111 0.4505 0.89855 0.0
Co299 Co 0.9745 0.36464 0.97715 0.0
O300 O 0.06088 0.37397 0.94577 0.0
C301 C 0.87648 0.35928 0.90311 0.0
C302 C 0.86799 0.5703 0.89817 0.0
C303 C 0.06545 0.40857 0.91021 0.0
O304 O 0.88607 0.42047 0.89362 0.0
O305 O 0.9021 0.33031 0.93712 0.0
O306 O 0.99074 0.55076 0.9631 0.0
O307 O 0.94828 0.4556 0.98221 0.0
Co308 Co 0.76693 0.68815 0.17437 0.0
O309 O 0.7161 0.60948 0.18719 0.0
O310 O 0.70809 0.66876 0.12496 0.0
C311 C 0.75492 0.73572 0.24306 0.0
O312 O 0.8088 0.77112 0.14855 0.0
Co313 Co 0.89466 0.72447 0.22714 0.0
O314 O 0.88527 0.8109 0.19582 0.0
C315 C 0.90002 0.62654 0.15304 0.0
C316 C 0.68898 0.618 0.14817 0.0
C317 C 0.85066 0.81548 0.16027 0.0
O318 O 0.8388 0.63606 0.14361 0.0
O319 O 0.929 0.65215 0.18706 0.0
O320 O 0.70853 0.74073 0.2131 0.0
O321 O 0.8037 0.69826 0.23221 0.0
Co322 Co 0.57111 0.5169 0.42437 0.0
O323 O 0.64978 0.46607 0.4372 0.0
O324 O 0.59051 0.45807 0.37496 0.0
C325 C 0.52353 0.50489 0.49306 0.0
O326 O 0.48814 0.55876 0.39855 0.0
Co327 Co 0.53476 0.64463 0.47715 0.0
O328 O 0.44838 0.63529 0.44577 0.0
C329 C 0.63278 0.64998 0.40311 0.0
C330 C 0.64127 0.43896 0.39817 0.0
C331 C 0.44381 0.60069 0.41021 0.0
O332 O 0.62319 0.58879 0.39362 0.0
O333 O 0.60716 0.67895 0.43712 0.0
O334 O 0.51852 0.4585 0.4631 0.0
O335 O 0.56098 0.55366 0.48221 0.0
Co336 Co 0.26691 0.32109 0.17439 0.0
O337 O 0.21607 0.39977 0.1872 0.0
O338 O 0.20808 0.34048 0.12496 0.0
C339 C 0.25488 0.27353 0.24307 0.0
O340 O 0.30879 0.23813 0.14857 0.0
Co341 Co 0.39462 0.28479 0.22718 0.0
O342 O 0.38528 0.19838 0.19584 0.0
C343 C 0.39998 0.38278 0.15313 0.0
C344 C 0.18896 0.39125 0.14817 0.0
C345 C 0.35067 0.19378 0.16029 0.0
O346 O 0.33879 0.37318 0.14363 0.0
O347 O 0.42895 0.35717 0.18715 0.0
O348 O 0.20849 0.26851 0.21311 0.0
O349 O 0.30365 0.31098 0.23223 0.0
Co350 Co 0.43815 0.5169 0.92439 0.0
O351 O 0.35947 0.46606 0.93721 0.0
O352 O 0.41876 0.45807 0.87497 0.0
C353 C 0.48572 0.50488 0.99307 0.0
O354 O 0.52111 0.55877 0.89858 0.0
Co355 Co 0.47446 0.64462 0.97718 0.0
O356 O 0.56087 0.63527 0.94584 0.0
C357 C 0.37647 0.64997 0.90313 0.0
C358 C 0.368 0.43894 0.89818 0.0
C359 C 0.56546 0.60065 0.91029 0.0
O360 O 0.38606 0.58878 0.89364 0.0
O361 O 0.40207 0.67894 0.93715 0.0
O362 O 0.49073 0.45849 0.96311 0.0
O363 O 0.44826 0.55365 0.98223 0.0
Co364 Co 0.24235 0.68817 0.67438 0.0
O365 O 0.29319 0.60949 0.6872 0.0
O366 O 0.30118 0.66877 0.62496 0.0
C367 C 0.25438 0.73573 0.74307 0.0
O368 O 0.20047 0.77113 0.64857 0.0
Co369 Co 0.11464 0.72447 0.72718 0.0
O370 O 0.12398 0.81088 0.69584 0.0
C371 C 0.10928 0.62648 0.65313 0.0
C372 C 0.3203 0.61801 0.64817 0.0
C373 C 0.15859 0.81548 0.66029 0.0
O374 O 0.17047 0.63608 0.64363 0.0
O375 O 0.08031 0.65209 0.68715 0.0
O376 O 0.30077 0.74075 0.71311 0.0
O377 O 0.20561 0.69828 0.73223 0.0
Co378 Co 0.07111 0.49236 0.42439 0.0
O379 O 0.14979 0.5432 0.43721 0.0
O380 O 0.0905 0.55119 0.37497 0.0
C381 C 0.02354 0.50438 0.49307 0.0
O382 O 0.98815 0.45049 0.39858 0.0
Co383 Co 0.0348 0.36464 0.47718 0.0
O384 O 0.94839 0.374 0.44584 0.0
C385 C 0.1328 0.35929 0.40313 0.0
C386 C 0.14126 0.57032 0.39818 0.0
C387 C 0.9438 0.40861 0.41029 0.0
O388 O 0.1232 0.42048 0.39364 0.0
O389 O 0.10719 0.33032 0.43715 0.0
O390 O 0.01853 0.55077 0.46312 0.0
O391 O 0.061 0.45561 0.48223 0.0
Co392 Co 0.26691 0.68817 0.35403 0.0
O393 O 0.21607 0.60949 0.34121 0.0
O394 O 0.20808 0.66878 0.40345 0.0
C395 C 0.25488 0.73573 0.28534 0.0
O396 O 0.30879 0.77113 0.37984 0.0
Co397 Co 0.39462 0.72447 0.30123 0.0
O398 O 0.38528 0.81088 0.33257 0.0
C399 C 0.39998 0.62648 0.37528 0.0
C400 C 0.18896 0.61801 0.38024 0.0
C401 C 0.35067 0.81548 0.36812 0.0
O402 O 0.33879 0.63608 0.38478 0.0
O403 O 0.42895 0.65209 0.34126 0.0
O404 O 0.20849 0.74075 0.31531 0.0
O405 O 0.30365 0.69828 0.29618 0.0
Co406 Co 0.07111 0.5169 0.10402 0.0
O407 O 0.14979 0.46606 0.0912 0.0
O408 O 0.0905 0.45807 0.15344 0.0
C409 C 0.02354 0.50488 0.03534 0.0
O410 O 0.98815 0.55877 0.12983 0.0
Co411 Co 0.0348 0.64462 0.05123 0.0
O412 O 0.94839 0.63527 0.08257 0.0
C413 C 0.13279 0.64997 0.12528 0.0
C414 C 0.14127 0.43895 0.13023 0.0
C415 C 0.9438 0.60065 0.11812 0.0
O416 O 0.1232 0.58878 0.13477 0.0
O417 O 0.10719 0.67894 0.09126 0.0
O418 O 0.01853 0.45849 0.0653 0.0
O419 O 0.061 0.55365 0.04618 0.0
Co420 Co 0.24235 0.32109 0.85403 0.0
O421 O 0.29319 0.39977 0.84121 0.0
O422 O 0.30118 0.34048 0.90345 0.0
C423 C 0.25438 0.27353 0.78534 0.0
O424 O 0.20047 0.23813 0.87984 0.0
Co425 Co 0.11464 0.28479 0.80123 0.0
O426 O 0.12398 0.19838 0.83257 0.0
C427 C 0.10928 0.38278 0.87529 0.0
C428 C 0.3203 0.39125 0.88024 0.0
C429 C 0.15859 0.19378 0.86813 0.0
O430 O 0.17047 0.37318 0.88478 0.0
O431 O 0.08031 0.35717 0.84126 0.0
O432 O 0.30077 0.26851 0.81531 0.0
O433 O 0.20561 0.31098 0.79618 0.0
Co434 Co 0.43815 0.49236 0.60402 0.0
O435 O 0.35947 0.5432 0.5912 0.0
O436 O 0.41876 0.55119 0.65344 0.0
C437 C 0.48572 0.50438 0.53534 0.0
O438 O 0.52111 0.45049 0.62983 0.0
Co439 Co 0.47446 0.36464 0.55123 0.0
O440 O 0.56087 0.37399 0.58257 0.0
C441 C 0.37647 0.35929 0.62528 0.0
C442 C 0.36799 0.57031 0.63023 0.0
C443 C 0.56546 0.40861 0.61812 0.0
O444 O 0.38606 0.42048 0.63477 0.0
O445 O 0.40207 0.33032 0.59126 0.0
O446 O 0.49073 0.55077 0.5653 0.0
O447 O 0.44826 0.45561 0.54618 0.0
loop_
_geom_bond_atom_site_label_1
_geom_bond_atom_site_label_2
_geom_bond_distance
_geom_bond_site_symmetry_2
_ccdc_geom_bond_type
Co0 O1 2.216 . S
Co0 O2 2.091 . S
Co0 O4 2.004 . S
Co0 O10 2.021 . S
Co0 O12 2.137 . S
Co0 O13 2.244 . S
O1 Co0 2.216 . S
O1 C8 1.247 . S
O2 Co0 2.091 . S
O2 C8 1.261 . S
C3 O12 1.247 . S
C3 O13 1.272 . S
O4 Co0 2.004 . S
O4 C9 1.259 . S
Co5 O6 2.061 . S
Co5 O11 2.052 . S
Co5 O13 2.135 . S
O6 Co5 2.061 . S
O6 C9 1.235 . S
C7 O10 1.238 . S
C7 O11 1.241 . S
C8 O1 1.247 . S
C8 O2 1.261 . S
C9 O4 1.259 . S
C9 O6 1.235 . S
O10 Co0 2.021 . S
O10 C7 1.238 . S
O11 Co5 2.052 . S
O11 C7 1.241 . S
O12 Co0 2.137 . S
O12 C3 1.247 . S
O13 Co0 2.244 . S
O13 C3 1.272 . S
O13 Co5 2.135 . S
Co14 O15 2.216 1_565 S
Co14 O16 2.091 1_565 S
Co14 O18 2.004 1_455 S
Co14 O24 2.021 . S
Co14 O26 2.137 1_565 S
Co14 O27 2.244 . S
O15 Co14 2.216 1_545 S
O15 C22 1.247 . S
O16 Co14 2.091 1_545 S
O16 C22 1.261 . S
C17 O26 1.247 . S
C17 O27 1.272 1_545 S
O18 Co14 2.004 1_655 S
O18 C23 1.259 . S
Co19 O20 2.061 1_455 S
Co19 O25 2.052 . S
Co19 O27 2.135 . S
O20 Co19 2.061 1_655 S
O20 C23 1.235 . S
C21 O24 1.238 . S
C21 O25 1.241 . S
C22 O15 1.247 . S
C22 O16 1.261 . S
C23 O18 1.259 . S
C23 O20 1.235 . S
O24 Co14 2.021 . S
O24 C21 1.238 . S
O25 Co19 2.052 . S
O25 C21 1.241 . S
O26 Co14 2.137 1_545 S
O26 C17 1.247 . S
O27 Co14 2.244 . S
O27 C17 1.272 1_565 S
O27 Co19 2.135 . S
Co28 O29 2.216 . S
Co28 O30 2.091 . S
Co28 O32 2.004 . S
Co28 O38 2.021 . S
Co28 O40 2.137 . S
Co28 O41 2.244 . S
O29 Co28 2.216 . S
O29 C36 1.247 . S
O30 Co28 2.091 . S
O30 C36 1.261 . S
C31 O40 1.247 . S
C31 O41 1.272 . S
O32 Co28 2.004 . S
O32 C37 1.259 . S
Co33 O34 2.061 . S
Co33 O39 2.052 . S
Co33 O41 2.135 . S
O34 Co33 2.061 . S
O34 C37 1.235 . S
C35 O38 1.238 . S
C35 O39 1.241 . S
C36 O29 1.247 . S
C36 O30 1.261 . S
C37 O32 1.259 . S
C37 O34 1.235 . S
O38 Co28 2.021 . S
O38 C35 1.238 . S
O39 Co33 2.052 . S
O39 C35 1.241 . S
O40 Co28 2.137 . S
O40 C31 1.247 . S
O41 Co28 2.244 . S
O41 C31 1.272 . S
O41 Co33 2.135 . S
Co42 O43 2.216 1_545 S
Co42 O44 2.091 1_545 S
Co42 O46 2.004 . S
Co42 O52 2.021 . S
Co42 O54 2.137 1_545 S
Co42 O55 2.244 . S
O43 Co42 2.216 1_565 S
O43 C50 1.247 . S
O44 Co42 2.091 1_565 S
O44 C50 1.261 . S
C45 O54 1.247 . S
C45 O55 1.272 1_565 S
O46 Co42 2.004 . S
O46 C51 1.259 . S
Co47 O48 2.061 . S
Co47 O53 2.052 . S
Co47 O55 2.135 . S
O48 Co47 2.061 . S
O48 C51 1.235 . S
C49 O52 1.238 . S
C49 O53 1.241 . S
C50 O43 1.247 . S
C50 O44 1.261 . S
C51 O46 1.259 . S
C51 O48 1.235 . S
O52 Co42 2.021 . S
O52 C49 1.238 . S
O53 Co47 2.052 . S
O53 C49 1.241 . S
O54 Co42 2.137 1_565 S
O54 C45 1.247 . S
O55 Co42 2.244 . S
O55 C45 1.272 1_545 S
O55 Co47 2.135 . S
Co56 O57 2.216 . S
Co56 O58 2.091 . S
Co56 O60 2.004 . S
Co56 O66 2.021 . S
Co56 O68 2.137 . S
Co56 O69 2.244 . S
O57 Co56 2.216 . S
O57 C64 1.247 . S
O58 Co56 2.091 . S
O58 C64 1.261 . S
C59 O68 1.247 . S
C59 O69 1.272 . S
O60 Co56 2.004 . S
O60 C65 1.259 . S
Co61 O62 2.061 . S
Co61 O67 2.052 . S
Co61 O69 2.135 . S
O62 Co61 2.061 . S
O62 C65 1.235 . S
C63 O66 1.238 . S
C63 O67 1.241 . S
C64 O57 1.247 . S
C64 O58 1.261 . S
C65 O60 1.259 . S
C65 O62 1.235 . S
O66 Co56 2.021 . S
O66 C63 1.238 . S
O67 Co61 2.052 . S
O67 C63 1.241 . S
O68 Co56 2.137 . S
O68 C59 1.247 . S
O69 Co56 2.244 . S
O69 C59 1.272 . S
O69 Co61 2.135 . S
Co70 O71 2.216 1_565 S
Co70 O72 2.091 1_565 S
Co70 O74 2.004 . S
Co70 O80 2.021 . S
Co70 O82 2.137 1_565 S
Co70 O83 2.244 . S
O71 Co70 2.216 1_545 S
O71 C78 1.247 . S
O72 Co70 2.091 1_545 S
O72 C78 1.261 . S
C73 O82 1.247 . S
C73 O83 1.272 1_545 S
O74 Co70 2.004 . S
O74 C79 1.259 . S
Co75 O76 2.061 . S
Co75 O81 2.052 . S
Co75 O83 2.135 . S
O76 Co75 2.061 . S
O76 C79 1.235 . S
C77 O80 1.238 . S
C77 O81 1.241 . S
C78 O71 1.247 . S
C78 O72 1.261 . S
C79 O74 1.259 . S
C79 O76 1.235 . S
O80 Co70 2.021 . S
O80 C77 1.238 . S
O81 Co75 2.052 . S
O81 C77 1.241 . S
O82 Co70 2.137 1_545 S
O82 C73 1.247 . S
O83 Co70 2.244 . S
O83 C73 1.272 1_565 S
O83 Co75 2.135 . S
Co84 O85 2.216 . S
Co84 O86 2.091 . S
Co84 O88 2.004 . S
Co84 O94 2.021 . S
Co84 O96 2.137 . S
Co84 O97 2.244 . S
O85 Co84 2.216 . S
O85 C92 1.247 . S
O86 Co84 2.091 . S
O86 C92 1.261 . S
C87 O96 1.247 . S
C87 O97 1.272 . S
O88 Co84 2.004 . S
O88 C93 1.259 . S
Co89 O90 2.061 . S
Co89 O95 2.052 . S
Co89 O97 2.135 . S
O90 Co89 2.061 . S
O90 C93 1.235 . S
C91 O94 1.238 . S
C91 O95 1.241 . S
C92 O85 1.247 . S
C92 O86 1.261 . S
C93 O88 1.259 . S
C93 O90 1.235 . S
O94 Co84 2.021 . S
O94 C91 1.238 . S
O95 Co89 2.052 . S
O95 C91 1.241 . S
O96 Co84 2.137 . S
O96 C87 1.247 . S
O97 Co84 2.244 . S
O97 C87 1.272 . S
O97 Co89 2.135 . S
Co98 O99 2.216 1_545 S
Co98 O100 2.091 1_545 S
Co98 O102 2.004 1_455 S
Co98 O108 2.021 . S
Co98 O110 2.137 1_545 S
Co98 O111 2.244 . S
O99 Co98 2.216 1_565 S
O99 C106 1.247 . S
O100 Co98 2.091 1_565 S
O100 C106 1.261 . S
C101 O110 1.247 . S
C101 O111 1.272 1_565 S
O102 Co98 2.004 1_655 S
O102 C107 1.259 . S
Co103 O104 2.061 1_455 S
Co103 O109 2.052 . S
Co103 O111 2.135 . S
O104 Co103 2.061 1_655 S
O104 C107 1.235 . S
C105 O108 1.238 . S
C105 O109 1.241 . S
C106 O99 1.247 . S
C106 O100 1.261 . S
C107 O102 1.259 . S
C107 O104 1.235 . S
O108 Co98 2.021 . S
O108 C105 1.238 . S
O109 Co103 2.052 . S
O109 C105 1.241 . S
O110 Co98 2.137 1_565 S
O110 C101 1.247 . S
O111 Co98 2.244 . S
O111 C101 1.272 1_545 S
O111 Co103 2.135 . S
Co112 O113 2.216 . S
Co112 O114 2.091 . S
Co112 O116 2.004 . S
Co112 O122 2.021 . S
Co112 O124 2.137 . S
Co112 O125 2.244 . S
O113 Co112 2.216 . S
O113 C120 1.247 . S
O114 Co112 2.091 . S
O114 C120 1.261 . S
C115 O124 1.247 . S
C115 O125 1.272 . S
O116 Co112 2.004 . S
O116 C121 1.259 . S
Co117 O118 2.061 . S
Co117 O123 2.052 . S
Co117 O125 2.135 . S
O118 Co117 2.061 . S
O118 C121 1.235 . S
C119 O122 1.238 . S
C119 O123 1.241 . S
C120 O113 1.247 . S
C120 O114 1.261 . S
C121 O116 1.259 . S
C121 O118 1.235 . S
O122 Co112 2.021 . S
O122 C119 1.238 . S
O123 Co117 2.052 . S
O123 C119 1.241 . S
O124 Co112 2.137 . S
O124 C115 1.247 . S
O125 Co112 2.244 . S
O125 C115 1.272 . S
O125 Co117 2.135 . S
Co126 O127 2.216 1_545 S
Co126 O128 2.091 1_545 S
Co126 O130 2.004 1_655 S
Co126 O136 2.021 . S
Co126 O138 2.137 1_545 S
Co126 O139 2.244 . S
O127 Co126 2.216 1_565 S
O127 C134 1.247 . S
O128 Co126 2.091 1_565 S
O128 C134 1.261 . S
C129 O138 1.247 . S
C129 O139 1.272 1_565 S
O130 Co126 2.004 1_455 S
O130 C135 1.259 . S
Co131 O132 2.061 1_655 S
Co131 O137 2.052 . S
Co131 O139 2.135 . S
O132 Co131 2.061 1_455 S
O132 C135 1.235 . S
C133 O136 1.238 . S
C133 O137 1.241 . S
C134 O127 1.247 . S
C134 O128 1.261 . S
C135 O130 1.259 . S
C135 O132 1.235 . S
O136 Co126 2.021 . S
O136 C133 1.238 . S
O137 Co131 2.052 . S
O137 C133 1.241 . S
O138 Co126 2.137 1_565 S
O138 C129 1.247 . S
O139 Co126 2.244 . S
O139 C129 1.272 1_545 S
O139 Co131 2.135 . S
Co140 O141 2.216 . S
Co140 O142 2.091 . S
Co140 O144 2.004 . S
Co140 O150 2.021 . S
Co140 O152 2.137 . S
Co140 O153 2.244 . S
O141 Co140 2.216 . S
O141 C148 1.247 . S
O142 Co140 2.091 . S
O142 C148 1.261 . S
C143 O152 1.247 . S
C143 O153 1.272 . S
O144 Co140 2.004 . S
O144 C149 1.259 . S
Co145 O146 2.061 . S
Co145 O151 2.052 . S
Co145 O153 2.135 . S
O146 Co145 2.061 . S
O146 C149 1.235 . S
C147 O150 1.238 . S
C147 O151 1.241 . S
C148 O141 1.247 . S
C148 O142 1.261 . S
C149 O144 1.259 . S
C149 O146 1.235 . S
O150 Co140 2.021 . S
O150 C147 1.238 . S
O151 Co145 2.052 . S
O151 C147 1.241 . S
O152 Co140 2.137 . S
O152 C143 1.247 . S
O153 Co140 2.244 . S
O153 C143 1.272 . S
O153 Co145 2.135 . S
Co154 O155 2.216 1_565 S
Co154 O156 2.091 1_565 S
Co154 O158 2.004 . S
Co154 O164 2.021 . S
Co154 O166 2.137 1_565 S
Co154 O167 2.244 . S
O155 Co154 2.216 1_545 S
O155 C162 1.247 . S
O156 Co154 2.091 1_545 S
O156 C162 1.261 . S
C157 O166 1.247 . S
C157 O167 1.272 1_545 S
O158 Co154 2.004 . S
O158 C163 1.259 . S
Co159 O160 2.061 . S
Co159 O165 2.052 . S
Co159 O167 2.135 . S
O160 Co159 2.061 . S
O160 C163 1.235 . S
C161 O164 1.238 . S
C161 O165 1.241 . S
C162 O155 1.247 . S
C162 O156 1.261 . S
C163 O158 1.259 . S
C163 O160 1.235 . S
O164 Co154 2.021 . S
O164 C161 1.238 . S
O165 Co159 2.052 . S
O165 C161 1.241 . S
O166 Co154 2.137 1_545 S
O166 C157 1.247 . S
O167 Co154 2.244 . S
O167 C157 1.272 1_565 S
O167 Co159 2.135 . S
Co168 O169 2.216 . S
Co168 O170 2.091 . S
Co168 O172 2.004 . S
Co168 O178 2.021 . S
Co168 O180 2.137 . S
Co168 O181 2.244 . S
O169 Co168 2.216 . S
O169 C176 1.247 . S
O170 Co168 2.091 . S
O170 C176 1.261 . S
C171 O180 1.247 . S
C171 O181 1.272 . S
O172 Co168 2.004 . S
O172 C177 1.259 . S
Co173 O174 2.061 . S
Co173 O179 2.052 . S
Co173 O181 2.135 . S
O174 Co173 2.061 . S
O174 C177 1.235 . S
C175 O178 1.238 . S
C175 O179 1.241 . S
C176 O169 1.247 . S
C176 O170 1.261 . S
C177 O172 1.259 . S
C177 O174 1.235 . S
O178 Co168 2.021 . S
O178 C175 1.238 . S
O179 Co173 2.052 . S
O179 C175 1.241 . S
O180 Co168 2.137 . S
O180 C171 1.247 . S
O181 Co168 2.244 . S
O181 C171 1.272 . S
O181 Co173 2.135 . S
Co182 O183 2.216 1_545 S
Co182 O184 2.091 1_545 S
Co182 O186 2.004 . S
Co182 O192 2.021 . S
Co182 O194 2.137 1_545 S
Co182 O195 2.244 . S
O183 Co182 2.216 1_565 S
O183 C190 1.247 . S
O184 Co182 2.091 1_565 S
O184 C190 1.261 . S
C185 O194 1.247 . S
C185 O195 1.272 1_565 S
O186 Co182 2.004 . S
O186 C191 1.259 . S
Co187 O188 2.061 . S
Co187 O193 2.052 . S
Co187 O195 2.135 . S
O188 Co187 2.061 . S
O188 C191 1.235 . S
C189 O192 1.238 . S
C189 O193 1.241 . S
C190 O183 1.247 . S
C190 O184 1.261 . S
C191 O186 1.259 . S
C191 O188 1.235 . S
O192 Co182 2.021 . S
O192 C189 1.238 . S
O193 Co187 2.052 . S
O193 C189 1.241 . S
O194 Co182 2.137 1_565 S
O194 C185 1.247 . S
O195 Co182 2.244 . S
O195 C185 1.272 1_545 S
O195 Co187 2.135 . S
Co196 O197 2.216 . S
Co196 O198 2.091 . S
Co196 O200 2.004 . S
Co196 O206 2.021 . S
Co196 O208 2.137 . S
Co196 O209 2.244 . S
O197 Co196 2.216 . S
O197 C204 1.247 . S
O198 Co196 2.091 . S
O198 C204 1.261 . S
C199 O208 1.247 . S
C199 O209 1.272 . S
O200 Co196 2.004 . S
O200 C205 1.259 . S
Co201 O202 2.061 . S
Co201 O207 2.052 . S
Co201 O209 2.135 . S
O202 Co201 2.061 . S
O202 C205 1.235 . S
C203 O206 1.238 . S
C203 O207 1.241 . S
C204 O197 1.247 . S
C204 O198 1.261 . S
C205 O200 1.259 . S
C205 O202 1.235 . S
O206 Co196 2.021 . S
O206 C203 1.238 . S
O207 Co201 2.052 . S
O207 C203 1.241 . S
O208 Co196 2.137 . S
O208 C199 1.247 . S
O209 Co196 2.244 . S
O209 C199 1.272 . S
O209 Co201 2.135 . S
Co210 O211 2.216 1_565 S
Co210 O212 2.091 1_565 S
Co210 O214 2.004 1_655 S
Co210 O220 2.021 . S
Co210 O222 2.137 1_565 S
Co210 O223 2.244 . S
O211 Co210 2.216 1_545 S
O211 C218 1.247 . S
O212 Co210 2.091 1_545 S
O212 C218 1.261 . S
C213 O222 1.247 . S
C213 O223 1.272 1_545 S
O214 Co210 2.004 1_455 S
O214 C219 1.259 . S
Co215 O216 2.061 1_655 S
Co215 O221 2.052 . S
Co215 O223 2.135 . S
O216 Co215 2.061 1_455 S
O216 C219 1.235 . S
C217 O220 1.238 . S
C217 O221 1.241 . S
C218 O211 1.247 . S
C218 O212 1.261 . S
C219 O214 1.259 . S
C219 O216 1.235 . S
O220 Co210 2.021 . S
O220 C217 1.238 . S
O221 Co215 2.052 . S
O221 C217 1.241 . S
O222 Co210 2.137 1_545 S
O222 C213 1.247 . S
O223 Co210 2.244 . S
O223 C213 1.272 1_565 S
O223 Co215 2.135 . S
Co224 O225 2.216 . S
Co224 O226 2.091 . S
Co224 O228 2.004 . S
Co224 O234 2.021 . S
Co224 O236 2.137 . S
Co224 O237 2.244 . S
O225 Co224 2.216 . S
O225 C232 1.247 . S
O226 Co224 2.091 . S
O226 C232 1.261 . S
C227 O236 1.247 . S
C227 O237 1.272 . S
O228 Co224 2.004 . S
O228 C233 1.259 . S
Co229 O230 2.061 . S
Co229 O235 2.052 . S
Co229 O237 2.135 . S
O230 Co229 2.061 . S
O230 C233 1.235 . S
C231 O234 1.238 . S
C231 O235 1.241 . S
C232 O225 1.247 . S
C232 O226 1.261 . S
C233 O228 1.259 . S
C233 O230 1.235 . S
O234 Co224 2.021 . S
O234 C231 1.238 . S
O235 Co229 2.052 . S
O235 C231 1.241 . S
O236 Co224 2.137 . S
O236 C227 1.247 . S
O237 Co224 2.244 . S
O237 C227 1.272 . S
O237 Co229 2.135 . S
Co238 O239 2.216 . S
Co238 O240 2.091 . S
Co238 O242 2.004 . S
Co238 O248 2.021 . S
Co238 O250 2.137 . S
Co238 O251 2.244 . S
O239 Co238 2.216 . S
O239 C246 1.247 . S
O240 Co238 2.091 . S
O240 C246 1.261 . S
C241 O250 1.247 . S
C241 O251 1.272 . S
O242 Co238 2.004 . S
O242 C247 1.259 . S
Co243 O244 2.061 . S
Co243 O249 2.052 . S
Co243 O251 2.135 . S
O244 Co243 2.061 . S
O244 C247 1.235 . S
C245 O248 1.238 . S
C245 O249 1.241 . S
C246 O239 1.247 . S
C246 O240 1.261 . S
C247 O242 1.259 . S
C247 O244 1.235 . S
O248 Co238 2.021 . S
O248 C245 1.238 . S
O249 Co243 2.052 . S
O249 C245 1.241 . S
O250 Co238 2.137 . S
O250 C241 1.247 . S
O251 Co238 2.244 . S
O251 C241 1.272 . S
O251 Co243 2.135 . S
Co252 O253 2.216 . S
Co252 O254 2.091 . S
Co252 O256 2.004 . S
Co252 O262 2.021 . S
Co252 O264 2.137 . S
Co252 O265 2.244 . S
O253 Co252 2.216 . S
O253 C260 1.247 . S
O254 Co252 2.091 . S
O254 C260 1.261 . S
C255 O264 1.247 . S
C255 O265 1.272 . S
O256 Co252 2.004 . S
O256 C261 1.259 . S
Co257 O258 2.061 . S
Co257 O263 2.052 . S
Co257 O265 2.135 . S
O258 Co257 2.061 . S
O258 C261 1.235 . S
C259 O262 1.238 . S
C259 O263 1.241 . S
C260 O253 1.247 . S
C260 O254 1.261 . S
C261 O256 1.259 . S
C261 O258 1.235 . S
O262 Co252 2.021 . S
O262 C259 1.238 . S
O263 Co257 2.052 . S
O263 C259 1.241 . S
O264 Co252 2.137 . S
O264 C255 1.247 . S
O265 Co252 2.244 . S
O265 C255 1.272 . S
O265 Co257 2.135 . S
Co266 O267 2.216 . S
Co266 O268 2.091 . S
Co266 O270 2.004 1_655 S
Co266 O276 2.021 . S
Co266 O278 2.137 . S
Co266 O279 2.244 . S
O267 Co266 2.216 . S
O267 C274 1.247 . S
O268 Co266 2.091 . S
O268 C274 1.261 . S
C269 O278 1.247 . S
C269 O279 1.272 . S
O270 Co266 2.004 1_455 S
O270 C275 1.259 . S
Co271 O272 2.061 1_655 S
Co271 O277 2.052 . S
Co271 O279 2.135 . S
O272 Co271 2.061 1_455 S
O272 C275 1.235 . S
C273 O276 1.238 . S
C273 O277 1.241 . S
C274 O267 1.247 . S
C274 O268 1.261 . S
C275 O270 1.259 . S
C275 O272 1.235 . S
O276 Co266 2.021 . S
O276 C273 1.238 . S
O277 Co271 2.052 . S
O277 C273 1.241 . S
O278 Co266 2.137 . S
O278 C269 1.247 . S
O279 Co266 2.244 . S
O279 C269 1.272 . S
O279 Co271 2.135 . S
Co280 O281 2.216 . S
Co280 O282 2.091 . S
Co280 O284 2.004 . S
Co280 O290 2.021 . S
Co280 O292 2.137 . S
Co280 O293 2.244 . S
O281 Co280 2.216 . S
O281 C288 1.247 . S
O282 Co280 2.091 . S
O282 C288 1.261 . S
C283 O292 1.247 . S
C283 O293 1.272 . S
O284 Co280 2.004 . S
O284 C289 1.259 . S
Co285 O286 2.061 . S
Co285 O291 2.052 . S
Co285 O293 2.135 . S
O286 Co285 2.061 . S
O286 C289 1.235 . S
C287 O290 1.238 . S
C287 O291 1.241 . S
C288 O281 1.247 . S
C288 O282 1.261 . S
C289 O284 1.259 . S
C289 O286 1.235 . S
O290 Co280 2.021 . S
O290 C287 1.238 . S
O291 Co285 2.052 . S
O291 C287 1.241 . S
O292 Co280 2.137 . S
O292 C283 1.247 . S
O293 Co280 2.244 . S
O293 C283 1.272 . S
O293 Co285 2.135 . S
Co294 O295 2.216 . S
Co294 O296 2.091 . S
Co294 O298 2.004 1_655 S
Co294 O304 2.021 . S
Co294 O306 2.137 . S
Co294 O307 2.244 . S
O295 Co294 2.216 . S
O295 C302 1.247 . S
O296 Co294 2.091 . S
O296 C302 1.261 . S
C297 O306 1.247 . S
C297 O307 1.272 . S
O298 Co294 2.004 1_455 S
O298 C303 1.259 . S
Co299 O300 2.061 1_655 S
Co299 O305 2.052 . S
Co299 O307 2.135 . S
O300 Co299 2.061 1_455 S
O300 C303 1.235 . S
C301 O304 1.238 . S
C301 O305 1.241 . S
C302 O295 1.247 . S
C302 O296 1.261 . S
C303 O298 1.259 . S
C303 O300 1.235 . S
O304 Co294 2.021 . S
O304 C301 1.238 . S
O305 Co299 2.052 . S
O305 C301 1.241 . S
O306 Co294 2.137 . S
O306 C297 1.247 . S
O307 Co294 2.244 . S
O307 C297 1.272 . S
O307 Co299 2.135 . S
Co308 O309 2.216 . S
Co308 O310 2.091 . S
Co308 O312 2.004 . S
Co308 O318 2.021 . S
Co308 O320 2.137 . S
Co308 O321 2.244 . S
O309 Co308 2.216 . S
O309 C316 1.247 . S
O310 Co308 2.091 . S
O310 C316 1.261 . S
C311 O320 1.247 . S
C311 O321 1.272 . S
O312 Co308 2.004 . S
O312 C317 1.259 . S
Co313 O314 2.061 . S
Co313 O319 2.052 . S
Co313 O321 2.135 . S
O314 Co313 2.061 . S
O314 C317 1.235 . S
C315 O318 1.238 . S
C315 O319 1.241 . S
C316 O309 1.247 . S
C316 O310 1.261 . S
C317 O312 1.259 . S
C317 O314 1.235 . S
O318 Co308 2.021 . S
O318 C315 1.238 . S
O319 Co313 2.052 . S
O319 C315 1.241 . S
O320 Co308 2.137 . S
O320 C311 1.247 . S
O321 Co308 2.244 . S
O321 C311 1.272 . S
O321 Co313 2.135 . S
Co322 O323 2.216 . S
Co322 O324 2.091 . S
Co322 O326 2.004 . S
Co322 O332 2.021 . S
Co322 O334 2.137 . S
Co322 O335 2.244 . S
O323 Co322 2.216 . S
O323 C330 1.247 . S
O324 Co322 2.091 . S
O324 C330 1.261 . S
C325 O334 1.247 . S
C325 O335 1.272 . S
O326 Co322 2.004 . S
O326 C331 1.259 . S
Co327 O328 2.061 . S
Co327 O333 2.052 . S
Co327 O335 2.135 . S
O328 Co327 2.061 . S
O328 C331 1.235 . S
C329 O332 1.238 . S
C329 O333 1.241 . S
C330 O323 1.247 . S
C330 O324 1.261 . S
C331 O326 1.259 . S
C331 O328 1.235 . S
O332 Co322 2.021 . S
O332 C329 1.238 . S
O333 Co327 2.052 . S
O333 C329 1.241 . S
O334 Co322 2.137 . S
O334 C325 1.247 . S
O335 Co322 2.244 . S
O335 C325 1.272 . S
O335 Co327 2.135 . S
Co336 O337 2.216 . S
Co336 O338 2.091 . S
Co336 O340 2.004 . S
Co336 O346 2.021 . S
Co336 O348 2.137 . S
Co336 O349 2.244 . S
O337 Co336 2.216 . S
O337 C344 1.247 . S
O338 Co336 2.091 . S
O338 C344 1.261 . S
C339 O348 1.247 . S
C339 O349 1.272 . S
O340 Co336 2.004 . S
O340 C345 1.259 . S
Co341 O342 2.061 . S
Co341 O347 2.052 . S
Co341 O349 2.135 . S
O342 Co341 2.061 . S
O342 C345 1.235 . S
C343 O346 1.238 . S
C343 O347 1.241 . S
C344 O337 1.247 . S
C344 O338 1.261 . S
C345 O340 1.259 . S
C345 O342 1.235 . S
O346 Co336 2.021 . S
O346 C343 1.238 . S
O347 Co341 2.052 . S
O347 C343 1.241 . S
O348 Co336 2.137 . S
O348 C339 1.247 . S
O349 Co336 2.244 . S
O349 C339 1.272 . S
O349 Co341 2.135 . S
Co350 O351 2.216 . S
Co350 O352 2.091 . S
Co350 O354 2.004 . S
Co350 O360 2.021 . S
Co350 O362 2.137 . S
Co350 O363 2.244 . S
O351 Co350 2.216 . S
O351 C358 1.247 . S
O352 Co350 2.091 . S
O352 C358 1.261 . S
C353 O362 1.247 . S
C353 O363 1.272 . S
O354 Co350 2.004 . S
O354 C359 1.259 . S
Co355 O356 2.061 . S
Co355 O361 2.052 . S
Co355 O363 2.135 . S
O356 Co355 2.061 . S
O356 C359 1.235 . S
C357 O360 1.238 . S
C357 O361 1.241 . S
C358 O351 1.247 . S
C358 O352 1.261 . S
C359 O354 1.259 . S
C359 O356 1.235 . S
O360 Co350 2.021 . S
O360 C357 1.238 . S
O361 Co355 2.052 . S
O361 C357 1.241 . S
O362 Co350 2.137 . S
O362 C353 1.247 . S
O363 Co350 2.244 . S
O363 C353 1.272 . S
O363 Co355 2.135 . S
Co364 O365 2.216 . S
Co364 O366 2.091 . S
Co364 O368 2.004 . S
Co364 O374 2.021 . S
Co364 O376 2.137 . S
Co364 O377 2.244 . S
O365 Co364 2.216 . S
O365 C372 1.247 . S
O366 Co364 2.091 . S
O366 C372 1.261 . S
C367 O376 1.247 . S
C367 O377 1.272 . S
O368 Co364 2.004 . S
O368 C373 1.259 . S
Co369 O370 2.061 . S
Co369 O375 2.052 . S
Co369 O377 2.135 . S
O370 Co369 2.061 . S
O370 C373 1.235 . S
C371 O374 1.238 . S
C371 O375 1.241 . S
C372 O365 1.247 . S
C372 O366 1.261 . S
C373 O368 1.259 . S
C373 O370 1.235 . S
O374 Co364 2.021 . S
O374 C371 1.238 . S
O375 Co369 2.052 . S
O375 C371 1.241 . S
O376 Co364 2.137 . S
O376 C367 1.247 . S
O377 Co364 2.244 . S
O377 C367 1.272 . S
O377 Co369 2.135 . S
Co378 O379 2.216 . S
Co378 O380 2.091 . S
Co378 O382 2.004 1_455 S
Co378 O388 2.021 . S
Co378 O390 2.137 . S
Co378 O391 2.244 . S
O379 Co378 2.216 . S
O379 C386 1.247 . S
O380 Co378 2.091 . S
O380 C386 1.261 . S
C381 O390 1.247 . S
C381 O391 1.272 . S
O382 Co378 2.004 1_655 S
O382 C387 1.259 . S
Co383 O384 2.061 1_455 S
Co383 O389 2.052 . S
Co383 O391 2.135 . S
O384 Co383 2.061 1_655 S
O384 C387 1.235 . S
C385 O388 1.238 . S
C385 O389 1.241 . S
C386 O379 1.247 . S
C386 O380 1.261 . S
C387 O382 1.259 . S
C387 O384 1.235 . S
O388 Co378 2.021 . S
O388 C385 1.238 . S
O389 Co383 2.052 . S
O389 C385 1.241 . S
O390 Co378 2.137 . S
O390 C381 1.247 . S
O391 Co378 2.244 . S
O391 C381 1.272 . S
O391 Co383 2.135 . S
Co392 O393 2.216 . S
Co392 O394 2.091 . S
Co392 O396 2.004 . S
Co392 O402 2.021 . S
Co392 O404 2.137 . S
Co392 O405 2.244 . S
O393 Co392 2.216 . S
O393 C400 1.247 . S
O394 Co392 2.091 . S
O394 C400 1.261 . S
C395 O404 1.247 . S
C395 O405 1.272 . S
O396 Co392 2.004 . S
O396 C401 1.259 . S
Co397 O398 2.061 . S
Co397 O403 2.052 . S
Co397 O405 2.135 . S
O398 Co397 2.061 . S
O398 C401 1.235 . S
C399 O402 1.238 . S
C399 O403 1.241 . S
C400 O393 1.247 . S
C400 O394 1.261 . S
C401 O396 1.259 . S
C401 O398 1.235 . S
O402 Co392 2.021 . S
O402 C399 1.238 . S
O403 Co397 2.052 . S
O403 C399 1.241 . S
O404 Co392 2.137 . S
O404 C395 1.247 . S
O405 Co392 2.244 . S
O405 C395 1.272 . S
O405 Co397 2.135 . S
Co406 O407 2.216 . S
Co406 O408 2.091 . S
Co406 O410 2.004 1_455 S
Co406 O416 2.021 . S
Co406 O418 2.137 . S
Co406 O419 2.244 . S
O407 Co406 2.216 . S
O407 C414 1.247 . S
O408 Co406 2.091 . S
O408 C414 1.261 . S
C409 O418 1.247 . S
C409 O419 1.272 . S
O410 Co406 2.004 1_655 S
O410 C415 1.259 . S
Co411 O412 2.061 1_455 S
Co411 O417 2.052 . S
Co411 O419 2.135 . S
O412 Co411 2.061 1_655 S
O412 C415 1.235 . S
C413 O416 1.238 . S
C413 O417 1.241 . S
C414 O407 1.247 . S
C414 O408 1.261 . S
C415 O410 1.259 . S
C415 O412 1.235 . S
O416 Co406 2.021 . S
O416 C413 1.238 . S
O417 Co411 2.052 . S
O417 C413 1.241 . S
O418 Co406 2.137 . S
O418 C409 1.247 . S
O419 Co406 2.244 . S
O419 C409 1.272 . S
O419 Co411 2.135 . S
Co420 O421 2.216 . S
Co420 O422 2.091 . S
Co420 O424 2.004 . S
Co420 O430 2.021 . S
Co420 O432 2.137 . S
Co420 O433 2.244 . S
O421 Co420 2.216 . S
O421 C428 1.247 . S
O422 Co420 2.091 . S
O422 C428 1.261 . S
C423 O432 1.247 . S
C423 O433 1.272 . S
O424 Co420 2.004 . S
O424 C429 1.259 . S
Co425 O426 2.061 . S
Co425 O431 2.052 . S
Co425 O433 2.135 . S
O426 Co425 2.061 . S
O426 C429 1.235 . S
C427 O430 1.238 . S
C427 O431 1.241 . S
C428 O421 1.247 . S
C428 O422 1.261 . S
C429 O424 1.259 . S
C429 O426 1.235 . S
O430 Co420 2.021 . S
O430 C427 1.238 . S
O431 Co425 2.052 . S
O431 C427 1.241 . S
O432 Co420 2.137 . S
O432 C423 1.247 . S
O433 Co420 2.244 . S
O433 C423 1.272 . S
O433 Co425 2.135 . S
Co434 O435 2.216 . S
Co434 O436 2.091 . S
Co434 O438 2.004 . S
Co434 O444 2.021 . S
Co434 O446 2.137 . S
Co434 O447 2.244 . S
O435 Co434 2.216 . S
O435 C442 1.247 . S
O436 Co434 2.091 . S
O436 C442 1.261 . S
C437 O446 1.247 . S
C437 O447 1.272 . S
O438 Co434 2.004 . S
O438 C443 1.259 . S
Co439 O440 2.061 . S
Co439 O445 2.052 . S
Co439 O447 2.135 . S
O440 Co439 2.061 . S
O440 C443 1.235 . S
C441 O444 1.238 . S
C441 O445 1.241 . S
C442 O435 1.247 . S
C442 O436 1.261 . S
C443 O438 1.259 . S
C443 O440 1.235 . S
O444 Co434 2.021 . S
O444 C441 1.238 . S
O445 Co439 2.052 . S
O445 C441 1.241 . S
O446 Co434 2.137 . S
O446 C437 1.247 . S
O447 Co434 2.244 . S
O447 C437 1.272 . S
O447 Co439 2.135 . S
C385 C9 1.325 . S
C23 C119 1.325 . S
C357 C37 1.325 . S
C51 C147 1.325 . S
C65 C413 1.325 . S
C79 C203 1.325 . S
C93 C441 1.325 . S
C107 C175 1.325 . S
C273 C121 1.325 . S
C7 C135 1.325 . S
C245 C149 1.325 . S
C163 C35 1.325 . S
C301 C177 1.325 . S
C91 C191 1.325 . S
C205 C329 1.325 . S
C63 C219 1.325 . S
C233 C161 1.325 . S
C247 C343 1.325 . S
C133 C261 1.325 . S
C371 C275 1.325 . S
C189 C289 1.325 . S
C427 C303 1.325 . S
C217 C317 1.325 . S
C331 C399 1.325 . S
C49 C345 1.325 . S
C359 C231 1.325 . S
C373 C21 1.325 . S
C387 C259 1.325 . S
C401 C77 1.325 . S
C415 C315 1.325 . S
C429 C105 1.325 . S
C443 C287 1.325 . S
C339 C3 1.576 . S
C17 C129 1.576 1_445 S
C367 C31 1.576 . S
C45 C157 1.576 1_564 S
C395 C59 1.576 . S
C73 C185 1.576 1_545 S
C423 C87 1.576 . S
C101 C213 1.576 1_466 S
C115 C227 1.576 . S
C143 C255 1.576 . S
C171 C283 1.576 . S
C199 C311 1.576 . S
C241 C353 1.576 1_554 S
C381 C269 1.576 1_455 S
C409 C297 1.576 1_454 S
C325 C437 1.576 . S
C8 C78 1.474 . S
C22 C92 1.474 . S
C36 C106 1.474 . S
C64 C50 1.474 . S
C120 C190 1.474 . S
C134 C204 1.474 . S
C148 C218 1.474 . S
C162 C176 1.474 . S
C232 C302 1.474 . S
C316 C246 1.474 . S
C260 C330 1.474 . S
C274 C288 1.474 . S
C414 C344 1.474 . S
C358 C428 1.474 . S
C442 C372 1.474 . S
C386 C400 1.474 . S
