# Generated by pormake.
# Topology why, (6)-cn, num edge types: 1
# Building blocks:
#     Node 0, Type 0, BuildingBlock: UKALOJ_clean_sbu_0, # of connection points: 6
#     Node 1, Type 0, BuildingBlock: UKALOJ_clean_sbu_0, # of connection points: 6
#     Node 2, Type 0, BuildingBlock: UKALOJ_clean_sbu_0, # of connection points: 6
#     Node 3, Type 0, BuildingBlock: UKALOJ_clean_sbu_0, # of connection points: 6
#     Node 4, Type 0, BuildingBlock: UKALOJ_clean_sbu_0, # of connection points: 6
#     Node 5, Type 0, BuildingBlock: UKALOJ_clean_sbu_0, # of connection points: 6
#     Node 6, Type 0, BuildingBlock: UKALOJ_clean_sbu_0, # of connection points: 6
#     Node 7, Type 0, BuildingBlock: UKALOJ_clean_sbu_0, # of connection points: 6
#     Node 8, Type 0, BuildingBlock: UKALOJ_clean_sbu_0, # of connection points: 6
#     Node 9, Type 0, BuildingBlock: UKALOJ_clean_sbu_0, # of connection points: 6
#     Node 10, Type 0, BuildingBlock: UKALOJ_clean_sbu_0, # of connection points: 6
#     Node 11, Type 0, BuildingBlock: UKALOJ_clean_sbu_0, # of connection points: 6
#     Node 12, Type 0, BuildingBlock: UKALOJ_clean_sbu_0, # of connection points: 6
#     Node 13, Type 0, BuildingBlock: UKALOJ_clean_sbu_0, # of connection points: 6
#     Node 14, Type 0, BuildingBlock: UKALOJ_clean_sbu_0, # of connection points: 6
#     Node 15, Type 0, BuildingBlock: UKALOJ_clean_sbu_0, # of connection points: 6
#     Edge 16, Type (0, 0), BuildingBlock: KIFKEQ_clean_linker_1, # of connection points: 2
#     Edge 17, Type (0, 0), BuildingBlock: KIFKEQ_clean_linker_1, # of connection points: 2
#     Edge 18, Type (0, 0), BuildingBlock: KIFKEQ_clean_linker_1, # of connection points: 2
#     Edge 19, Type (0, 0), BuildingBlock: KIFKEQ_clean_linker_1, # of connection points: 2
#     Edge 20, Type (0, 0), BuildingBlock: KIFKEQ_clean_linker_1, # of connection points: 2
#     Edge 21, Type (0, 0), BuildingBlock: KIFKEQ_clean_linker_1, # of connection points: 2
#     Edge 22, Type (0, 0), BuildingBlock: KIFKEQ_clean_linker_1, # of connection points: 2
#     Edge 23, Type (0, 0), BuildingBlock: KIFKEQ_clean_linker_1, # of connection points: 2
#     Edge 24, Type (0, 0), BuildingBlock: KIFKEQ_clean_linker_1, # of connection points: 2
#     Edge 25, Type (0, 0), BuildingBlock: KIFKEQ_clean_linker_1, # of connection points: 2
#     Edge 26, Type (0, 0), BuildingBlock: KIFKEQ_clean_linker_1, # of connection points: 2
#     Edge 27, Type (0, 0), BuildingBlock: KIFKEQ_clean_linker_1, # of connection points: 2
#     Edge 28, Type (0, 0), BuildingBlock: KIFKEQ_clean_linker_1, # of connection points: 2
#     Edge 29, Type (0, 0), BuildingBlock: KIFKEQ_clean_linker_1, # of connection points: 2
#     Edge 30, Type (0, 0), BuildingBlock: KIFKEQ_clean_linker_1, # of connection points: 2
#     Edge 31, Type (0, 0), BuildingBlock: KIFKEQ_clean_linker_1, # of connection points: 2
#     Edge 32, Type (0, 0), BuildingBlock: KIFKEQ_clean_linker_1, # of connection points: 2
#     Edge 33, Type (0, 0), BuildingBlock: KIFKEQ_clean_linker_1, # of connection points: 2
#     Edge 34, Type (0, 0), BuildingBlock: KIFKEQ_clean_linker_1, # of connection points: 2
#     Edge 35, Type (0, 0), BuildingBlock: KIFKEQ_clean_linker_1, # of connection points: 2
#     Edge 36, Type (0, 0), BuildingBlock: KIFKEQ_clean_linker_1, # of connection points: 2
#     Edge 37, Type (0, 0), BuildingBlock: KIFKEQ_clean_linker_1, # of connection points: 2
#     Edge 38, Type (0, 0), BuildingBlock: KIFKEQ_clean_linker_1, # of connection points: 2
#     Edge 39, Type (0, 0), BuildingBlock: KIFKEQ_clean_linker_1, # of connection points: 2
#     Edge 40, Type (0, 0), BuildingBlock: KIFKEQ_clean_linker_1, # of connection points: 2
#     Edge 41, Type (0, 0), BuildingBlock: KIFKEQ_clean_linker_1, # of connection points: 2
#     Edge 42, Type (0, 0), BuildingBlock: KIFKEQ_clean_linker_1, # of connection points: 2
#     Edge 43, Type (0, 0), BuildingBlock: KIFKEQ_clean_linker_1, # of connection points: 2
#     Edge 44, Type (0, 0), BuildingBlock: KIFKEQ_clean_linker_1, # of connection points: 2
#     Edge 45, Type (0, 0), BuildingBlock: KIFKEQ_clean_linker_1, # of connection points: 2
#     Edge 46, Type (0, 0), BuildingBlock: KIFKEQ_clean_linker_1, # of connection points: 2
#     Edge 47, Type (0, 0), BuildingBlock: KIFKEQ_clean_linker_1, # of connection points: 2
#     Edge 48, Type (0, 0), BuildingBlock: KIFKEQ_clean_linker_1, # of connection points: 2
#     Edge 49, Type (0, 0), BuildingBlock: KIFKEQ_clean_linker_1, # of connection points: 2
#     Edge 50, Type (0, 0), BuildingBlock: KIFKEQ_clean_linker_1, # of connection points: 2
#     Edge 51, Type (0, 0), BuildingBlock: KIFKEQ_clean_linker_1, # of connection points: 2
#     Edge 52, Type (0, 0), BuildingBlock: KIFKEQ_clean_linker_1, # of connection points: 2
#     Edge 53, Type (0, 0), BuildingBlock: KIFKEQ_clean_linker_1, # of connection points: 2
#     Edge 54, Type (0, 0), BuildingBlock: KIFKEQ_clean_linker_1, # of connection points: 2
#     Edge 55, Type (0, 0), BuildingBlock: KIFKEQ_clean_linker_1, # of connection points: 2
#     Edge 56, Type (0, 0), BuildingBlock: KIFKEQ_clean_linker_1, # of connection points: 2
#     Edge 57, Type (0, 0), BuildingBlock: KIFKEQ_clean_linker_1, # of connection points: 2
#     Edge 58, Type (0, 0), BuildingBlock: KIFKEQ_clean_linker_1, # of connection points: 2
#     Edge 59, Type (0, 0), BuildingBlock: KIFKEQ_clean_linker_1, # of connection points: 2
#     Edge 60, Type (0, 0), BuildingBlock: KIFKEQ_clean_linker_1, # of connection points: 2
#     Edge 61, Type (0, 0), BuildingBlock: KIFKEQ_clean_linker_1, # of connection points: 2
#     Edge 62, Type (0, 0), BuildingBlock: KIFKEQ_clean_linker_1, # of connection points: 2
#     Edge 63, Type (0, 0), BuildingBlock: KIFKEQ_clean_linker_1, # of connection points: 2
# Relax obj value: 0.389
# Max RMSD: 0.163
# Mean RMSD: 0.163
data_MOF--net-why--node1-UKALOJ_clean_sbu_0--edge1-KIFKEQ_clean_linker_1
_symmetry_space_group_name_H-M    P1
_symmetry_Int_Tables_number       1
_symmetry_cell_setting            triclinic
loop_
_symmetry_equiv_pos_as_xyz
'x, y, z'
_cell_length_a     53.118553
_cell_length_b     53.275746
_cell_length_c     26.419462
_cell_angle_alpha  90.021101
_cell_angle_beta   90.131684
_cell_angle_gamma 89.873524
loop_
_atom_site_label
_atom_site_type_symbol
_atom_site_fract_x
_atom_site_fract_y
_atom_site_fract_z
_atom_type_partial_charge
Zn0 Zn 0.32704 0.18678 0.05249 0.0
O1 O 0.32468 0.15118 0.0914 0.0
C2 C 0.30784 0.21393 0.14367 0.0
Zn3 Zn 0.35813 0.19898 0.10239 0.0
C4 C 0.34029 0.14757 0.12719 0.0
O5 O 0.3552 0.16505 0.13913 0.0
C6 C 0.34814 0.23798 1.02598 0.0
O7 O 0.38546 0.1825 0.05371 0.0
O8 O 0.35472 0.17047 1.00372 0.0
N9 N 0.38408 0.20834 0.15469 0.0
C10 C 0.40559 0.22148 0.15346 0.0
C11 C 0.40025 0.20918 0.22963 0.0
N12 N 0.38072 0.20081 0.20201 0.0
N13 N 0.41594 0.2224 0.2001 0.0
C14 C 0.27917 0.16074 1.00989 0.0
C15 C 0.28187 0.16845 0.93098 0.0
N16 N 0.29958 0.1754 1.00309 0.0
N17 N 0.3012 0.18016 0.95405 0.0
N18 N 0.26785 0.15586 0.96501 0.0
H19 H 0.27644 0.16479 0.09119 0.0
H20 H 0.27737 0.13317 0.06863 0.0
H21 H 0.24904 0.15155 0.06124 0.0
C22 C 0.26991 0.15223 0.06065 0.0
C23 C 0.41702 0.23212 0.10631 0.0
H24 H 0.43784 0.23045 0.10756 0.0
H25 H 0.41208 0.25231 0.10356 0.0
H26 H 0.4098 0.2225 0.07212 0.0
O27 O 0.36166 0.23332 0.06459 0.0
O28 O 0.33141 0.22212 1.01249 0.0
C29 C 0.37816 0.17126 1.01379 0.0
O30 O 0.29956 0.2037 0.10334 0.0
O31 O 0.33139 0.21457 0.1511 0.0
Zn32 Zn 0.55512 0.60401 0.35636 0.0
O33 O 0.57433 0.62957 0.30847 0.0
C34 C 0.51299 0.60052 0.28092 0.0
Zn35 Zn 0.56143 0.57341 0.30131 0.0
C36 C 0.58215 0.62259 0.26519 0.0
O37 O 0.57868 0.59995 0.25134 0.0
C38 C 0.53494 0.55539 0.39494 0.0
O39 O 0.59748 0.56685 0.33564 0.0
O40 O 0.58936 0.59572 0.39196 0.0
N41 N 0.56774 0.54469 0.25125 0.0
C42 C 0.58946 0.53495 0.23349 0.0
C43 C 0.55992 0.51072 0.20957 0.0
N44 N 0.54937 0.52972 0.23589 0.0
N45 N 0.58509 0.51358 0.20768 0.0
C46 C 0.53873 0.6528 0.4109 0.0
C47 C 0.55253 0.64588 0.48564 0.0
N48 N 0.55 0.63024 0.41039 0.0
N49 N 0.55855 0.62595 0.45679 0.0
N50 N 0.53991 0.66281 0.45768 0.0
H51 H 0.53 0.68615 0.36802 0.0
H52 H 0.50732 0.66126 0.36342 0.0
H53 H 0.53678 0.65868 0.33015 0.0
C54 C 0.52773 0.66549 0.36531 0.0
C55 C 0.61493 0.54658 0.23989 0.0
H56 H 0.61346 0.56727 0.24278 0.0
H57 H 0.62724 0.54165 0.20747 0.0
H58 H 0.62385 0.53919 0.27482 0.0
O59 O 0.54386 0.54711 0.35338 0.0
O60 O 0.53657 0.57866 0.40432 0.0
C61 C 0.60434 0.57963 0.37377 0.0
O62 O 0.52067 0.61305 0.31896 0.0
O63 O 0.52566 0.58151 0.26635 0.0
Zn64 Zn 0.14158 0.80281 0.60943 0.0
O65 O 0.11518 0.82104 0.56141 0.0
C66 C 0.14675 0.76026 0.53558 0.0
Zn67 Zn 0.17218 0.8093 0.55464 0.0
C68 C 0.1219 0.82847 0.51775 0.0
O69 O 0.14467 0.82528 0.5041 0.0
C70 C 0.1909 0.78395 0.64907 0.0
O71 O 0.17698 0.84602 0.58628 0.0
O72 O 0.14903 0.83732 0.64418 0.0
N73 N 0.19979 0.81728 0.50331 0.0
C74 C 0.22315 0.82661 0.50995 0.0
C75 C 0.21538 0.82739 0.43076 0.0
N76 N 0.19505 0.8177 0.45406 0.0
N77 N 0.23329 0.83302 0.46504 0.0
C78 C 0.09323 0.78529 0.66393 0.0
C79 C 0.09962 0.79939 0.73856 0.0
N80 N 0.11549 0.79715 0.66352 0.0
N81 N 0.11946 0.80588 0.70986 0.0
N82 N 0.08311 0.78626 0.71059 0.0
H83 H 0.08759 0.78297 0.58308 0.0
H84 H 0.06011 0.77586 0.62062 0.0
H85 H 0.08557 0.75367 0.61686 0.0
C86 C 0.08089 0.77396 0.6183 0.0
C87 C 0.2354 0.83117 0.56038 0.0
H88 H 0.24734 0.84822 0.55917 0.0
H89 H 0.24765 0.81491 0.56968 0.0
H90 H 0.2214 0.83331 0.59089 0.0
O91 O 0.19923 0.79279 0.60752 0.0
O92 O 0.16748 0.78517 0.65772 0.0
C93 C 0.16435 0.85267 0.62474 0.0
O94 O 0.13366 0.76809 0.57272 0.0
O95 O 0.16563 0.7731 0.52105 0.0
Zn96 Zn 0.94886 0.39269 0.85417 0.0
O97 O 0.93029 0.36662 0.80547 0.0
C98 C 0.9915 0.39787 0.78087 0.0
Zn99 Zn 0.94204 0.42298 0.79892 0.0
C100 C 0.92358 0.37324 0.76113 0.0
O101 O 0.92714 0.39585 0.74725 0.0
C102 C 0.96719 0.44189 0.89375 0.0
O103 O 0.90503 0.42682 0.82925 0.0
O104 O 0.91433 0.40023 0.88935 0.0
N105 N 0.93441 0.45092 0.74778 0.0
C106 C 0.91901 0.471 0.75151 0.0
C107 C 0.93346 0.4706 0.67632 0.0
N108 N 0.94341 0.45072 0.70103 0.0
N109 N 0.91787 0.48338 0.70714 0.0
C110 C 0.96636 0.34396 0.90797 0.0
C111 C 0.95298 0.35039 0.98304 0.0
N112 N 0.9547 0.36634 0.90799 0.0
N113 N 0.9464 0.37032 0.95461 0.0
N114 N 0.96571 0.33377 0.95462 0.0
H115 H 0.96833 0.3388 0.82696 0.0
H116 H 0.97456 0.31091 0.86393 0.0
H117 H 0.99768 0.3354 0.86066 0.0
C118 C 0.97718 0.33155 0.862 0.0
C119 C 0.90609 0.47935 0.79907 0.0
H120 H 0.88691 0.47114 0.80022 0.0
H121 H 0.90414 0.50009 0.79983 0.0
H122 H 0.91665 0.47322 0.83306 0.0
O123 O 0.95729 0.44999 0.85286 0.0
O124 O 0.96703 0.41848 0.90235 0.0
C125 C 0.89857 0.41479 0.86852 0.0
O126 O 0.9834 0.38464 0.81747 0.0
O127 O 0.97882 0.41698 0.7667 0.0
Zn128 Zn 0.64327 0.7966 0.96374 0.0
O129 O 0.61559 0.81268 1.01277 0.0
C130 C 0.65312 0.75658 0.03745 0.0
Zn131 Zn 0.67416 0.80829 1.01429 0.0
C132 C 0.62276 0.82313 0.05368 0.0
O133 O 0.64617 0.82353 0.06423 0.0
C134 C 0.69387 0.78241 0.92188 0.0
O135 O 0.6763 0.84465 0.97849 0.0
O136 O 0.64651 0.83098 0.92883 0.0
N137 N 0.70148 0.81845 0.06478 0.0
C138 C 0.72119 0.83416 0.05989 0.0
C139 C 0.72056 0.82187 0.13665 0.0
N140 N 0.70112 0.81082 0.11249 0.0
N141 N 0.73323 0.83683 0.10453 0.0
C142 C 0.59593 0.7759 0.90913 0.0
C143 C 0.60297 0.78883 0.83394 0.0
N144 N 0.61795 0.78817 0.90986 0.0
N145 N 0.62238 0.79603 0.86313 0.0
N146 N 0.5863 0.77594 0.86185 0.0
H147 H 0.59116 0.7733 0.99023 0.0
H148 H 0.56275 0.76864 0.95344 0.0
H149 H 0.5865 0.74459 0.95581 0.0
C150 C 0.58335 0.76518 0.955 0.0
C151 C 0.72952 0.84573 1.01098 0.0
H152 H 0.72093 0.86464 1.00727 0.0
H153 H 0.75029 0.84787 1.0103 0.0
H154 H 0.72361 0.83418 0.97824 0.0
O155 O 0.70211 0.79263 0.96228 0.0
O156 O 0.67031 0.78144 0.91486 0.0
C157 C 0.661 0.84852 0.94232 0.0
O158 O 0.63929 0.76176 0.99956 0.0
O159 O 0.66998 0.77222 0.05123 0.0
Zn160 Zn 0.44569 0.39151 0.70565 0.0
O161 O 0.42709 0.36536 0.75372 0.0
C162 C 0.48824 0.39699 0.77962 0.0
Zn163 Zn 0.43846 0.42149 0.76095 0.0
C164 C 0.41996 0.37181 0.79783 0.0
O165 O 0.42344 0.39435 0.8123 0.0
C166 C 0.46385 0.44054 0.66651 0.0
O167 O 0.40136 0.42501 0.73056 0.0
O168 O 0.4111 0.39899 0.66993 0.0
N169 N 0.43045 0.4497 0.81086 0.0
C170 C 0.41964 0.47229 0.80269 0.0
C171 C 0.42363 0.46784 0.88246 0.0
N172 N 0.43298 0.447 0.86041 0.0
N173 N 0.41515 0.4841 0.84716 0.0
C174 C 0.46327 0.34312 0.65136 0.0
C175 C 0.4493 0.34964 0.5766 0.0
N176 N 0.4515 0.36542 0.65175 0.0
N177 N 0.44286 0.36947 0.60533 0.0
N178 N 0.46231 0.33304 0.60463 0.0
H179 H 0.46547 0.33757 0.73222 0.0
H180 H 0.47242 0.31003 0.6947 0.0
H181 H 0.49487 0.33515 0.69871 0.0
C182 C 0.47449 0.33072 0.69707 0.0
C183 C 0.41238 0.48215 0.75134 0.0
H184 H 0.39376 0.49158 0.7528 0.0
H185 H 0.42673 0.49587 0.73875 0.0
H186 H 0.41172 0.46745 0.72218 0.0
O187 O 0.45381 0.44845 0.70726 0.0
O188 O 0.46388 0.41718 0.65769 0.0
C189 C 0.39512 0.41325 0.6908 0.0
O190 O 0.48034 0.38358 0.743 0.0
O191 O 0.47523 0.41589 0.79371 0.0
Zn192 Zn 0.8575 0.19744 0.45827 0.0
O193 O 0.88438 0.17974 0.50696 0.0
C194 C 0.85136 0.23976 0.53086 0.0
Zn195 Zn 0.8272 0.18967 0.51268 0.0
C196 C 0.87771 0.17211 0.55057 0.0
O197 O 0.8548 0.17462 0.56379 0.0
C198 C 0.80776 0.21489 0.41835 0.0
O199 O 0.82309 0.15297 0.48217 0.0
O200 O 0.85062 0.16243 0.42404 0.0
N201 N 0.79979 0.18236 0.56453 0.0
C202 C 0.77954 0.16725 0.5617 0.0
C203 C 0.78084 0.18196 0.63673 0.0
N204 N 0.80057 0.19151 0.61116 0.0
N205 N 0.7676 0.16646 0.60655 0.0
C206 C 0.90545 0.21516 0.40293 0.0
C207 C 0.89871 0.20086 0.32856 0.0
N208 N 0.88323 0.20328 0.40385 0.0
N209 N 0.87901 0.19446 0.35768 0.0
N210 N 0.91535 0.21408 0.35606 0.0
H211 H 0.9111 0.2179 0.48378 0.0
H212 H 0.93874 0.22417 0.44609 0.0
H213 H 0.91375 0.2469 0.44938 0.0
C214 C 0.91801 0.22652 0.44834 0.0
C215 C 0.7706 0.15429 0.51457 0.0
H216 H 0.77874 0.13511 0.51323 0.0
H217 H 0.74978 0.15254 0.5146 0.0
H218 H 0.77645 0.16466 0.48028 0.0
O219 O 0.79963 0.20509 0.45921 0.0
O220 O 0.83124 0.21468 0.41002 0.0
C221 C 0.83575 0.14666 0.4436 0.0
O222 O 0.8648 0.23261 0.49371 0.0
O223 O 0.83314 0.22599 0.54519 0.0
Zn224 Zn 0.05192 0.60606 0.21113 0.0
O225 O 0.06749 0.63292 0.26233 0.0
C226 C 0.01079 0.59698 0.28553 0.0
Zn227 Zn 0.06192 0.57545 0.26413 0.0
C228 C 0.07729 0.62591 0.30406 0.0
O229 O 0.07752 0.60263 0.31519 0.0
C230 C 0.03694 0.55625 0.16901 0.0
O231 O 0.09782 0.5732 0.22982 0.0
O232 O 0.08727 0.60256 0.17627 0.0
N233 N 0.07148 0.54686 0.3127 0.0
C234 C 0.08608 0.52643 0.30514 0.0
C235 C 0.07377 0.52547 0.3819 0.0
N236 N 0.06383 0.54621 0.36037 0.0
N237 N 0.08775 0.51271 0.34801 0.0
C238 C 0.0307 0.65383 0.1593 0.0
C239 C 0.0446 0.6487 0.08417 0.0
N240 N 0.04381 0.63226 0.15874 0.0
N241 N 0.05233 0.62905 0.11207 0.0
N242 N 0.03078 0.66434 0.11285 0.0
H243 H 0.0208 0.68589 0.20497 0.0
H244 H 0.9988 0.66031 0.20665 0.0
H245 H 0.02806 0.65779 0.24055 0.0
C246 C 0.0191 0.66514 0.20571 0.0
C247 C 0.10091 0.52175 0.25761 0.0
H248 H 0.11801 0.53364 0.25845 0.0
H249 H 0.10761 0.50226 0.25362 0.0
H250 H 0.08956 0.52665 0.22379 0.0
O251 O 0.04606 0.54829 0.21073 0.0
O252 O 0.03692 0.57964 0.16057 0.0
C253 C 0.10353 0.58729 0.19304 0.0
O254 O 0.0164 0.61012 0.24697 0.0
O255 O 0.02605 0.57999 0.30038 0.0
Zn256 Zn 0.82588 0.68621 0.55165 0.0
O257 O 0.82345 0.65049 0.58893 0.0
C258 C 0.80615 0.71365 0.64254 0.0
Zn259 Zn 0.8566 0.69786 0.60304 0.0
C260 C 0.83807 0.64641 0.62615 0.0
O261 O 0.85264 0.66374 0.64062 0.0
C262 C 0.84756 0.73716 0.526 0.0
O263 O 0.88412 0.68066 0.55534 0.0
O264 O 0.8538 0.67035 0.50283 0.0
N265 N 0.88222 0.70697 0.65616 0.0
C266 C 0.90367 0.72023 0.65584 0.0
C267 C 0.89752 0.70802 0.73182 0.0
N268 N 0.87838 0.69948 0.70334 0.0
N269 N 0.91347 0.72131 0.70296 0.0
C270 C 0.7784 0.66002 0.50752 0.0
C271 C 0.78138 0.66817 0.42885 0.0
N272 N 0.79861 0.67504 0.50148 0.0
N273 N 0.8004 0.68009 0.45258 0.0
N274 N 0.7674 0.65516 0.46231 0.0
H275 H 0.77499 0.66375 0.58875 0.0
H276 H 0.77684 0.63221 0.56587 0.0
H277 H 0.74813 0.64993 0.55787 0.0
C278 C 0.76898 0.65111 0.5579 0.0
C279 C 0.91555 0.73085 0.60913 0.0
H280 H 0.93638 0.72982 0.61175 0.0
H281 H 0.91002 0.75085 0.60531 0.0
H282 H 0.90916 0.72069 0.57488 0.0
O283 O 0.86112 0.7321 0.5644 0.0
O284 O 0.83038 0.72176 0.5127 0.0
C285 C 0.8771 0.67033 0.51421 0.0
O286 O 0.79812 0.70263 0.60284 0.0
O287 O 0.82966 0.71455 0.65038 0.0
Zn288 Zn 0.05226 0.10553 0.85913 0.0
O289 O 0.07016 0.13216 0.81147 0.0
C290 C 0.01135 0.09893 0.78206 0.0
Zn291 Zn 0.06097 0.07464 0.80587 0.0
C292 C 0.07978 0.12495 0.76988 0.0
O293 O 0.07826 0.10189 0.75759 0.0
C294 C 0.03407 0.05598 0.89804 0.0
O295 O 0.09655 0.06988 0.84212 0.0
O296 O 0.08688 0.0996 0.89579 0.0
N297 N 0.07057 0.04729 0.7548 0.0
C298 C 0.08495 0.02654 0.76007 0.0
C299 C 0.07696 0.03072 0.68148 0.0
N300 N 0.0656 0.04982 0.70595 0.0
N301 N 0.08954 0.01595 0.71443 0.0
C302 C 0.03183 0.15349 0.91106 0.0
C303 C 0.04447 0.14792 0.98703 0.0
N304 N 0.04458 0.13171 0.91217 0.0
N305 N 0.05239 0.12824 0.95934 0.0
N306 N 0.0313 0.16384 0.95763 0.0
H307 H 0.02269 0.18599 0.8659 0.0
H308 H 0.00099 0.16027 0.86084 0.0
H309 H 0.03105 0.15837 0.82986 0.0
C310 C 0.02119 0.16523 0.86405 0.0
C311 C 0.09346 0.01618 0.81009 0.0
H312 H 0.11254 0.02341 0.81897 0.0
H313 H 0.09423 0.99538 0.80891 0.0
H314 H 0.08072 0.02204 0.84093 0.0
O315 O 0.04318 0.04767 0.85665 0.0
O316 O 0.03518 0.07933 0.90693 0.0
C317 C 0.10258 0.08364 0.87943 0.0
O318 O 0.0174 0.11179 0.82084 0.0
O319 O 0.02581 0.08116 0.76784 0.0
Zn320 Zn 0.64533 0.30346 0.10049 0.0
O321 O 0.618 0.31907 0.05059 0.0
C322 C 0.65269 0.26226 1.02645 0.0
Zn323 Zn 0.67597 0.31276 0.04728 0.0
C324 C 0.62487 0.32926 1.00936 0.0
O325 O 0.64819 0.32958 0.9982 0.0
C326 C 0.69536 0.28701 0.14112 0.0
O327 O 0.68055 0.34852 0.08201 0.0
O328 O 0.65002 0.33887 0.13371 0.0
N329 N 0.70325 0.32197 0.99592 0.0
C330 C 0.72397 0.33637 1.00095 0.0
C331 C 0.71988 0.32793 0.92255 0.0
N332 N 0.70077 0.31671 0.94719 0.0
N333 N 0.73458 0.34069 0.95529 0.0
C334 C 0.59769 0.28365 0.15441 0.0
C335 C 0.60314 0.29848 0.22877 0.0
N336 N 0.61941 0.29648 0.15412 0.0
N337 N 0.62283 0.3056 0.20031 0.0
N338 N 0.58731 0.28447 0.2009 0.0
H339 H 0.56524 0.2733 0.10992 0.0
H340 H 0.59098 0.25137 0.1084 0.0
H341 H 0.59308 0.28019 0.07335 0.0
C342 C 0.58605 0.27161 0.10871 0.0
C343 C 0.73429 0.3452 0.05078 0.0
H344 H 0.72848 0.33273 0.082 0.0
H345 H 0.72697 0.36428 0.05901 0.0
H346 H 0.75516 0.34595 0.04972 0.0
O347 O 0.70343 0.29537 0.0989 0.0
O348 O 0.672 0.28828 0.1502 0.0
C349 C 0.66601 0.3546 0.118 0.0
O350 O 0.64025 0.26795 0.06592 0.0
O351 O 0.66959 0.2773 1.01064 0.0
Zn352 Zn 0.45094 0.88964 0.36325 0.0
O353 O 0.43285 0.86257 0.31564 0.0
C354 C 0.49061 0.89801 0.28506 0.0
Zn355 Zn 0.43993 0.91976 0.3101 0.0
C356 C 0.42335 0.86946 0.27352 0.0
O357 O 0.42459 0.89246 0.26073 0.0
C358 C 0.4669 0.93978 0.40165 0.0
O359 O 0.40421 0.92111 0.34618 0.0
O360 O 0.41694 0.89404 0.4026 0.0
N361 N 0.42932 0.94789 0.26107 0.0
C362 C 0.4137 0.96766 0.26753 0.0
C363 C 0.42734 0.96922 0.19174 0.0
N364 N 0.43776 0.94891 0.21398 0.0
N365 N 0.4122 0.98136 0.22455 0.0
C366 C 0.4736 0.8424 0.41439 0.0
C367 C 0.46236 0.84841 0.49104 0.0
N368 N 0.46041 0.8639 0.41571 0.0
N369 N 0.4535 0.86766 0.4633 0.0
N370 N 0.47525 0.8325 0.46126 0.0
H371 H 0.48243 0.80979 0.36939 0.0
H372 H 0.50361 0.83584 0.36233 0.0
H373 H 0.47297 0.83709 0.33334 0.0
C374 C 0.48356 0.83055 0.367 0.0
C375 C 0.39796 0.97172 0.31406 0.0
H376 H 0.38212 0.95821 0.31344 0.0
H377 H 0.38926 0.99049 0.31627 0.0
H378 H 0.40943 0.96848 0.34857 0.0
O379 O 0.45542 0.94737 0.36208 0.0
O380 O 0.46834 0.9164 0.40997 0.0
C381 C 0.39969 0.90793 0.38502 0.0
O382 O 0.48508 0.88452 0.32313 0.0
O383 O 0.47568 0.91568 0.27203 0.0
Zn384 Zn 0.1444 0.29466 0.46398 0.0
O385 O 0.11717 0.31107 0.51342 0.0
C386 C 0.1538 0.2566 0.54029 0.0
Zn387 Zn 0.17515 0.30831 0.513 0.0
C388 C 0.12437 0.32343 0.55213 0.0
O389 O 0.14783 0.32534 0.56145 0.0
C390 C 0.19458 0.28011 0.42286 0.0
O391 O 0.1784 0.3433 0.47292 0.0
O392 O 0.14737 0.32881 0.42744 0.0
N393 N 0.20369 0.318 0.56127 0.0
C394 C 0.21298 0.34047 0.57547 0.0
C395 C 0.23699 0.31241 0.60682 0.0
N396 N 0.21853 0.30059 0.58119 0.0
N397 N 0.23396 0.33746 0.60369 0.0
C398 C 0.097 0.27277 0.41124 0.0
C399 C 0.10345 0.28514 0.33545 0.0
N400 N 0.11866 0.28568 0.41119 0.0
N401 N 0.1227 0.29323 0.36411 0.0
N402 N 0.08723 0.27205 0.36405 0.0
H403 H 0.06417 0.26395 0.45559 0.0
H404 H 0.08975 0.24189 0.46059 0.0
H405 H 0.09192 0.27163 0.49231 0.0
C406 C 0.08496 0.26212 0.45775 0.0
C407 C 0.20095 0.36527 0.56387 0.0
H408 H 0.1802 0.36336 0.56142 0.0
H409 H 0.20573 0.37928 0.59345 0.0
H410 H 0.20812 0.37224 0.52712 0.0
O411 O 0.20252 0.29143 0.46223 0.0
O412 O 0.17109 0.2787 0.41535 0.0
C413 C 0.16231 0.3465 0.4379 0.0
O414 O 0.14058 0.26046 0.50098 0.0
O415 O 0.17003 0.27299 0.55363 0.0
Zn416 Zn 0.9473 0.89285 0.21132 0.0
O417 O 0.92944 0.86546 0.25794 0.0
C418 C 0.98713 0.90018 0.28859 0.0
Zn419 Zn 0.93651 0.92313 0.26418 0.0
C420 C 0.91937 0.87213 0.2995 0.0
O421 O 0.92003 0.89519 0.31216 0.0
C422 C 0.96419 0.94297 0.17379 0.0
O423 O 0.90085 0.927 0.22732 0.0
O424 O 0.91312 0.89829 0.17375 0.0
N425 N 0.92615 0.95007 0.31536 0.0
C426 C 0.91164 0.97073 0.31008 0.0
C427 C 0.91993 0.96677 0.38861 0.0
N428 N 0.93129 0.94766 0.36416 0.0
N429 N 0.9072 0.98142 0.35568 0.0
C430 C 0.96827 0.84548 0.15824 0.0
C431 C 0.95581 0.85173 0.08233 0.0
N432 N 0.95567 0.86733 0.15771 0.0
N433 N 0.94801 0.87125 0.11057 0.0
N434 N 0.96878 0.8355 0.11136 0.0
H435 H 0.9769 0.81261 0.20268 0.0
H436 H 0.99906 0.83793 0.20812 0.0
H437 H 0.9691 0.84019 0.23936 0.0
C438 C 0.97876 0.83332 0.20495 0.0
C439 C 0.90283 0.9809 0.2601 0.0
H440 H 0.91524 0.97482 0.22893 0.0
H441 H 0.88365 0.97375 0.25198 0.0
H442 H 0.90222 0.00171 0.26086 0.0
O443 O 0.95345 0.95079 0.21393 0.0
O444 O 0.96461 0.91961 0.1649 0.0
C445 C 0.89628 0.91327 0.18915 0.0
O446 O 0.98168 0.88704 0.24992 0.0
O447 O 0.97202 0.91751 0.30248 0.0
Zn448 Zn 0.32685 0.68784 1.01437 0.0
O449 O 0.32422 0.65272 0.97489 0.0
C450 C 0.3054 0.71597 0.92613 0.0
Zn451 Zn 0.35676 0.70212 0.96451 0.0
C452 C 0.33981 0.64994 0.93898 0.0
O453 O 0.3541 0.66801 0.92763 0.0
C454 C 0.34733 0.73962 0.04194 0.0
O455 O 0.3855 0.68641 1.01196 0.0
O456 O 0.35568 0.6714 0.06063 0.0
N457 N 0.38121 0.71211 0.91033 0.0
C458 C 0.40292 0.72493 0.90955 0.0
C459 C 0.39522 0.71309 0.83381 0.0
N460 N 0.37636 0.70494 0.86326 0.0
N461 N 0.41193 0.72592 0.8619 0.0
C462 C 0.28018 0.6613 0.05973 0.0
C463 C 0.28432 0.66896 0.13848 0.0
N464 N 0.30068 0.67593 0.0653 0.0
N465 N 0.30322 0.68065 0.11423 0.0
N466 N 0.26969 0.65642 0.10527 0.0
H467 H 0.27608 0.66523 0.97856 0.0
H468 H 0.27715 0.63366 1.00127 0.0
H469 H 0.24911 0.65227 1.01022 0.0
C470 C 0.26998 0.65279 1.00957 0.0
C471 C 0.41584 0.73517 0.95563 0.0
H472 H 0.43645 0.73194 0.95325 0.0
H473 H 0.4125 0.7557 0.95767 0.0
H474 H 0.40848 0.72651 0.99065 0.0
O475 O 0.36016 0.73621 1.00203 0.0
O476 O 0.33149 0.72293 0.05548 0.0
C477 C 0.379 0.67385 0.05077 0.0
O478 O 0.29803 0.70459 0.96581 0.0
O479 O 0.32879 0.7175 0.91772 0.0
Zn480 Zn 0.55145 0.10757 0.71005 0.0
O481 O 0.56757 0.1352 0.75897 0.0
C482 C 0.51145 0.09774 0.78575 0.0
Zn483 Zn 0.56302 0.07742 0.76272 0.0
C484 C 0.57751 0.12849 0.80079 0.0
O485 O 0.57769 0.10531 0.81263 0.0
C486 C 0.5375 0.057 0.67003 0.0
O487 O 0.59908 0.07635 0.72682 0.0
O488 O 0.58585 0.10465 0.67346 0.0
N489 N 0.5737 0.0496 0.81217 0.0
C490 C 0.5891 0.02968 0.80565 0.0
C491 C 0.57578 0.02845 0.8817 0.0
N492 N 0.56546 0.0488 0.85941 0.0
N493 N 0.59065 0.01609 0.84876 0.0
C494 C 0.52819 0.15406 0.65688 0.0
C495 C 0.54071 0.14787 0.58109 0.0
N496 N 0.5419 0.13288 0.65687 0.0
N497 N 0.54957 0.129 0.60981 0.0
N498 N 0.52702 0.16366 0.60967 0.0
H499 H 0.51818 0.18665 0.70094 0.0
H500 H 0.49715 0.16038 0.70656 0.0
H501 H 0.5272 0.15947 0.73789 0.0
C502 C 0.51721 0.16588 0.70339 0.0
C503 C 0.60464 0.0254 0.75894 0.0
H504 H 0.62069 0.03863 0.75952 0.0
H505 H 0.61301 0.00649 0.75654 0.0
H506 H 0.59318 0.0289 0.72452 0.0
O507 O 0.54792 0.04942 0.71076 0.0
O508 O 0.5362 0.08037 0.66171 0.0
C509 C 0.60331 0.09054 0.68928 0.0
O510 O 0.5166 0.11123 0.74748 0.0
O511 O 0.52711 0.08093 0.79984 0.0
H512 H 0.4517 0.19896 0.25393 0.0
H513 H 0.43286 0.26898 0.1813 0.0
H514 H 0.49432 0.21442 0.27092 0.0
H515 H 0.47543 0.28444 0.19727 0.0
H516 H 0.57085 0.23719 0.19021 0.0
H517 H 0.52802 0.22243 0.20548 0.0
H518 H 0.50786 0.29552 0.26404 0.0
H519 H 0.55084 0.3102 0.24793 0.0
C520 C 0.4567 0.21781 0.24245 0.0
C521 C 0.43957 0.23266 0.21524 0.0
C522 C 0.48091 0.22661 0.25205 0.0
C523 C 0.48809 0.25049 0.23506 0.0
C524 C 0.47029 0.266 0.21105 0.0
C525 C 0.44616 0.25711 0.20119 0.0
C526 C 0.55724 0.24986 0.20691 0.0
C527 C 0.56359 0.27485 0.21688 0.0
C528 C 0.53293 0.24142 0.21628 0.0
C529 C 0.51471 0.25796 0.23563 0.0
C530 C 0.52161 0.28253 0.24878 0.0
C531 C 0.54603 0.29088 0.23975 0.0
H532 H 0.56606 0.6989 0.50479 0.0
H533 H 0.49246 0.67923 0.44881 0.0
H534 H 0.55118 0.74168 0.52283 0.0
H535 H 0.47744 0.72171 0.46637 0.0
H536 H 0.5221 0.8164 0.44067 0.0
H537 H 0.53872 0.7743 0.45651 0.0
H538 H 0.46997 0.75475 0.53416 0.0
H539 H 0.45335 0.79692 0.51743 0.0
C540 C 0.54658 0.70375 0.49748 0.0
C541 C 0.53039 0.68637 0.47462 0.0
C542 C 0.53811 0.72801 0.50765 0.0
C543 C 0.51325 0.73487 0.49578 0.0
C544 C 0.49663 0.7168 0.47632 0.0
C545 C 0.5052 0.69271 0.46568 0.0
C546 C 0.51078 0.80308 0.46151 0.0
C547 C 0.48631 0.8093 0.47666 0.0
C548 C 0.52035 0.77923 0.47129 0.0
C549 C 0.50548 0.76136 0.49627 0.0
C550 C 0.48166 0.76824 0.51457 0.0
C551 C 0.4722 0.79219 0.50508 0.0
H552 H 0.06761 0.73869 0.7022 0.0
H553 H 0.04606 0.81201 0.7558 0.0
H554 H 0.02493 0.72341 0.7168 0.0
H555 H 0.00309 0.79686 0.77099 0.0
H556 H 0.92989 0.76806 0.68376 0.0
H557 H 0.97177 0.78453 0.7027 0.0
H558 H 0.99046 0.71561 0.78058 0.0
H559 H 0.94858 0.6991 0.76057 0.0
C560 C 0.05368 0.75129 0.71807 0.0
C561 C 0.05956 0.77649 0.72703 0.0
C562 C 0.02945 0.74258 0.72699 0.0
C563 C 0.01079 0.75906 0.74475 0.0
C564 C 0.0172 0.78389 0.75702 0.0
C565 C 0.04159 0.79251 0.74852 0.0
C566 C 0.94299 0.75663 0.70516 0.0
C567 C 0.93662 0.73216 0.71948 0.0
C568 C 0.9667 0.76613 0.71677 0.0
C569 C 0.98428 0.75121 0.74285 0.0
C570 C 0.97722 0.72735 0.76016 0.0
C571 C 0.95343 0.71795 0.74878 0.0
H572 H 0.94065 0.29739 1.0031 0.0
H573 H 0.0132 0.3177 0.94336 0.0
H574 H 0.95621 0.2548 1.02053 0.0
H575 H 0.02884 0.27534 0.96 0.0
H576 H 0.05441 0.20018 1.01019 0.0
H577 H 0.03804 0.24252 1.02633 0.0
H578 H 0.96762 0.22185 0.95556 0.0
H579 H 0.98401 0.17963 0.94038 0.0
C580 C 0.96005 0.29273 0.99471 0.0
C581 C 0.97571 0.31025 0.97099 0.0
C582 C 0.96891 0.26854 1.00451 0.0
C583 C 0.99364 0.26186 0.99132 0.0
C584 C 0.00977 0.28007 0.97092 0.0
C585 C 0.00081 0.30411 0.96075 0.0
C586 C 0.03528 0.20473 0.99924 0.0
C587 C 0.02057 0.18721 0.97298 0.0
C588 C 0.02596 0.22878 1.00833 0.0
C589 C 0.00168 0.2354 0.99181 0.0
C590 C 0.98634 0.21717 0.96897 0.0
C591 C 0.99576 0.19322 0.95959 0.0
H592 H 0.56623 0.73023 0.87532 0.0
H593 H 0.55245 0.80329 0.81077 0.0
H594 H 0.52258 0.71839 0.85833 0.0
H595 H 0.5087 0.79153 0.79312 0.0
H596 H 0.43179 0.77157 0.87804 0.0
H597 H 0.47527 0.78393 0.86113 0.0
H598 H 0.48895 0.71213 0.78995 0.0
H599 H 0.44542 0.69984 0.80759 0.0
C600 C 0.55382 0.74352 0.8568 0.0
C601 C 0.56213 0.76774 0.84532 0.0
C602 C 0.52908 0.73672 0.84643 0.0
C603 C 0.51242 0.75417 0.82465 0.0
C604 C 0.52127 0.77787 0.81012 0.0
C605 C 0.54611 0.78455 0.8201 0.0
C606 C 0.44411 0.75871 0.85822 0.0
C607 C 0.43583 0.73465 0.84511 0.0
C608 C 0.46875 0.76581 0.8479 0.0
C609 C 0.48533 0.74884 0.82453 0.0
C610 C 0.47645 0.72542 0.80822 0.0
C611 C 0.45173 0.71843 0.81819 0.0
H612 H 0.43636 0.29657 0.5583 0.0
H613 H 0.50986 0.31697 0.61372 0.0
H614 H 0.45134 0.25366 0.54206 0.0
H615 H 0.52497 0.27435 0.59804 0.0
H616 H 0.54924 0.19858 0.55236 0.0
H617 H 0.53269 0.24043 0.53281 0.0
H618 H 0.46347 0.22188 0.60977 0.0
H619 H 0.47998 0.18001 0.62824 0.0
C620 C 0.45585 0.29185 0.5658 0.0
C621 C 0.47197 0.30947 0.58807 0.0
C622 C 0.46438 0.26751 0.55667 0.0
C623 C 0.48921 0.26081 0.56907 0.0
C624 C 0.5058 0.27912 0.58773 0.0
C625 C 0.49718 0.3033 0.59729 0.0
C626 C 0.53031 0.20344 0.56399 0.0
C627 C 0.51604 0.18669 0.59299 0.0
C628 C 0.52089 0.22721 0.55286 0.0
C629 C 0.49695 0.23432 0.57017 0.0
C630 C 0.48194 0.21677 0.59576 0.0
C631 C 0.49146 0.19307 0.6071 0.0
H632 H 0.93267 0.26104 0.36486 0.0
H633 H 0.95117 0.18714 0.30982 0.0
H634 H 0.97591 0.27465 0.35011 0.0
H635 H 0.99464 0.20062 0.29442 0.0
H636 H 0.06886 0.22594 0.38267 0.0
H637 H 0.02634 0.21131 0.36331 0.0
H638 H 0.01067 0.28119 0.28619 0.0
H639 H 0.05317 0.29585 0.30664 0.0
C640 C 0.94604 0.24796 0.34864 0.0
C641 C 0.93917 0.22305 0.33939 0.0
C642 C 0.97059 0.25573 0.33962 0.0
C643 C 0.98852 0.23856 0.32144 0.0
C644 C 0.9811 0.21409 0.30873 0.0
C645 C 0.95642 0.20642 0.31736 0.0
C646 C 0.05628 0.23798 0.36136 0.0
C647 C 0.06368 0.2622 0.34738 0.0
C648 C 0.03221 0.22952 0.3495 0.0
C649 C 0.01532 0.24525 0.3235 0.0
C650 C 0.02339 0.26884 0.30652 0.0
C651 C 0.04752 0.27719 0.31816 0.0
H652 H 0.98369 0.68134 0.12752 0.0
H653 H 0.05554 0.70016 0.06243 0.0
H654 H 0.96859 0.72396 0.11131 0.0
H655 H 0.04048 0.74286 0.04531 0.0
H656 H 0.94418 0.79972 0.06015 0.0
H657 H 0.95922 0.75688 0.04411 0.0
H658 H 0.03087 0.77593 0.11172 0.0
H659 H 0.01575 0.81861 0.12703 0.0
C660 C 0.99605 0.69464 0.10919 0.0
C661 C 0.02086 0.68803 0.09736 0.0
C662 C 0.98738 0.71881 0.0992 0.0
C663 C 0.0035 0.73661 0.07733 0.0
C664 C 0.02782 0.72943 0.06249 0.0
C665 C 0.03639 0.70518 0.07217 0.0
C666 C 0.96329 0.7947 0.07037 0.0
C667 C 0.97876 0.81189 0.09571 0.0
C668 C 0.97184 0.77036 0.06136 0.0
C669 C 0.99608 0.7632 0.077 0.0
C670 C 0.01215 0.78107 0.09897 0.0
C671 C 0.0035 0.80528 0.10834 0.0
H672 H 0.14497 0.07407 0.82512 0.0
H673 H 0.11932 0.09771 0.9727 0.0
H674 H 0.18766 0.08786 0.84649 0.0
H675 H 0.16223 0.11064 0.99445 0.0
H676 H 0.25277 0.11198 1.00942 0.0
H677 H 0.21393 0.08894 0.99221 0.0
H678 H 0.19589 0.14083 0.87228 0.0
H679 H 0.23378 0.16506 0.89182 0.0
C680 C 0.14865 0.08121 0.86281 0.0
C681 C 0.12886 0.08491 0.89726 0.0
C682 C 0.17299 0.08923 0.87481 0.0
C683 C 0.17798 0.10034 0.92191 0.0
C684 C 0.15873 0.10199 0.95799 0.0
C685 C 0.13427 0.09458 0.94557 0.0
C686 C 0.2402 0.11901 0.98054 0.0
C687 C 0.2458 0.1411 0.95356 0.0
C688 C 0.21825 0.10549 0.97007 0.0
C689 C 0.2021 0.11323 0.93107 0.0
C690 C 0.20823 0.13451 0.90243 0.0
C691 C 0.22981 0.14836 0.91369 0.0
H692 H 0.65072 0.37088 0.21024 0.0
H693 H 0.67548 0.39712 0.06401 0.0
H694 H 0.63647 0.4131 0.23144 0.0
H695 H 0.66077 0.43949 0.08501 0.0
H696 H 0.58689 0.48922 0.11851 0.0
H697 H 0.61407 0.45338 0.09728 0.0
H698 H 0.64948 0.4587 0.24417 0.0
H699 H 0.62222 0.49419 0.26515 0.0
C700 C 0.65382 0.38588 0.1833 0.0
C701 C 0.66412 0.38078 0.13551 0.0
C702 C 0.64567 0.41004 0.1954 0.0
C703 C 0.64729 0.42946 0.15959 0.0
C704 C 0.65917 0.42476 0.11307 0.0
C705 C 0.6678 0.40062 0.10132 0.0
C706 C 0.6009 0.48295 0.14556 0.0
C707 C 0.60284 0.4946 0.19297 0.0
C708 C 0.61653 0.46266 0.13344 0.0
C709 C 0.63399 0.45344 0.16903 0.0
C710 C 0.63631 0.46555 0.21599 0.0
C711 C 0.62089 0.48595 0.2278 0.0
H712 H 0.38481 0.89158 0.47792 0.0
H713 H 0.35609 0.91567 0.33283 0.0
H714 H 0.34312 0.87658 0.50108 0.0
H715 H 0.31476 0.89951 0.35458 0.0
H716 H 0.23853 0.87653 0.41487 0.0
H717 H 0.27749 0.89998 0.40148 0.0
H718 H 0.31902 0.8415 0.47914 0.0
H719 H 0.27977 0.819 0.49411 0.0
C720 C 0.36944 0.89406 0.45135 0.0
C721 C 0.37371 0.90467 0.40352 0.0
C722 C 0.3456 0.88514 0.46427 0.0
C723 C 0.32562 0.88617 0.42924 0.0
C724 C 0.32955 0.89845 0.38274 0.0
C725 C 0.35331 0.90779 0.37019 0.0
C726 C 0.25611 0.86888 0.42891 0.0
C727 C 0.25636 0.84614 0.4556 0.0
C728 C 0.27842 0.88222 0.42129 0.0
C729 C 0.30152 0.87281 0.4395 0.0
C730 C 0.30161 0.84977 0.46573 0.0
C731 C 0.27924 0.83669 0.47395 0.0
H732 H 0.82045 0.60146 0.5889 0.0
H733 H 0.86592 0.63351 0.70846 0.0
H734 H 0.83715 0.55967 0.60981 0.0
H735 H 0.88277 0.59214 0.72795 0.0
H736 H 0.93542 0.52664 0.66946 0.0
H737 H 0.91117 0.5652 0.65388 0.0
H738 H 0.84316 0.52755 0.70006 0.0
H739 H 0.86766 0.48908 0.7166 0.0
C740 C 0.83335 0.59954 0.62048 0.0
C741 C 0.84212 0.62085 0.64654 0.0
C742 C 0.84297 0.57569 0.63219 0.0
C743 C 0.86153 0.57299 0.66975 0.0
C744 C 0.8687 0.59392 0.69839 0.0
C745 C 0.85893 0.61756 0.68725 0.0
C746 C 0.91529 0.52668 0.67584 0.0
C747 C 0.90333 0.50524 0.69465 0.0
C748 C 0.90148 0.54859 0.66718 0.0
C749 C 0.87541 0.54919 0.67613 0.0
C750 C 0.86324 0.52744 0.693 0.0
C751 C 0.87718 0.50562 0.70263 0.0
H752 H 0.77453 0.82154 0.15432 0.0
H753 H 0.74044 0.88585 0.08239 0.0
H754 H 0.81271 0.84615 0.17089 0.0
H755 H 0.7787 0.91056 0.09906 0.0
H756 H 0.85192 0.93005 0.23028 0.0
H757 H 0.80965 0.9151 0.2078 0.0
H758 H 0.84048 0.87489 0.08058 0.0
H759 H 0.8825 0.88984 0.10209 0.0
C760 C 0.77523 0.84099 0.1425 0.0
C761 C 0.75493 0.85174 0.11633 0.0
C762 C 0.79691 0.85499 0.15187 0.0
C763 C 0.7984 0.88007 0.13602 0.0
C764 C 0.77782 0.8912 0.11145 0.0
C765 C 0.75618 0.87707 0.10159 0.0
C766 C 0.84954 0.91882 0.19642 0.0
C767 C 0.87057 0.91084 0.16833 0.0
C768 C 0.82542 0.91024 0.18379 0.0
C769 C 0.82216 0.89375 0.1429 0.0
C770 C 0.84275 0.88757 0.11234 0.0
C771 C 0.86673 0.89617 0.12473 0.0
H772 H 0.37585 0.6395 0.87024 0.0
H773 H 0.31679 0.60428 0.95702 0.0
H774 H 0.39229 0.59941 0.84753 0.0
H775 H 0.33198 0.56306 0.9296 0.0
H776 H 0.38501 0.49472 0.92658 0.0
H777 H 0.36324 0.53408 0.94392 0.0
H778 H 0.39215 0.56442 0.80357 0.0
H779 H 0.41693 0.52726 0.79182 0.0
C780 C 0.36574 0.62306 0.88314 0.0
C781 C 0.34512 0.62518 0.91606 0.0
C782 C 0.37513 0.59973 0.86946 0.0
C783 C 0.36366 0.57754 0.88654 0.0
C784 C 0.3418 0.57962 0.9166 0.0
C785 C 0.33277 0.60324 0.9317 0.0
C786 C 0.38687 0.51004 0.89995 0.0
C787 C 0.4021 0.5074 0.85682 0.0
C788 C 0.37397 0.53251 0.90931 0.0
C789 C 0.37561 0.55275 0.87515 0.0
C790 C 0.39058 0.54974 0.83164 0.0
C791 C 0.40432 0.52782 0.82369 0.0
H792 H 0.64811 0.0731 0.72826 0.0
H793 H 0.61664 0.11756 0.60653 0.0
H794 H 0.69021 0.0887 0.70702 0.0
H795 H 0.6584 0.1334 0.58674 0.0
H796 H 0.72489 0.18502 0.64527 0.0
H797 H 0.68589 0.16175 0.66168 0.0
H798 H 0.72218 0.093 0.61508 0.0
H799 H 0.7611 0.11653 0.59776 0.0
C800 C 0.65021 0.08553 0.69616 0.0
C801 C 0.629 0.09432 0.66948 0.0
C802 C 0.67424 0.09451 0.68427 0.0
C803 C 0.67721 0.11247 0.64592 0.0
C804 C 0.65637 0.11974 0.61684 0.0
C805 C 0.63253 0.11058 0.62818 0.0
C806 C 0.72446 0.16493 0.63904 0.0
C807 C 0.74561 0.15248 0.61986 0.0
C808 C 0.70231 0.15169 0.64816 0.0
C809 C 0.70123 0.12572 0.63923 0.0
C810 C 0.72271 0.11303 0.62207 0.0
C811 C 0.74476 0.1264 0.61204 0.0
H812 H 0.18568 0.39203 0.45646 0.0
H813 H 0.12659 0.35736 0.36834 0.0
H814 H 0.17071 0.43338 0.4296 0.0
H815 H 0.11044 0.39766 0.34577 0.0
H816 H 0.08657 0.47089 0.29065 0.0
H817 H 0.11103 0.43303 0.30231 0.0
H818 H 0.13919 0.46218 0.44468 0.0
H819 H 0.11743 0.50179 0.42796 0.0
C820 C 0.16974 0.39319 0.431 0.0
C821 C 0.15727 0.37136 0.41498 0.0
C822 C 0.16084 0.41692 0.41616 0.0
C823 C 0.13904 0.41922 0.38581 0.0
C824 C 0.12752 0.39715 0.3681 0.0
C825 C 0.13674 0.37371 0.38167 0.0
C826 C 0.09893 0.46957 0.32318 0.0
C827 C 0.10111 0.48965 0.3571 0.0
C828 C 0.11249 0.4475 0.33087 0.0
C829 C 0.12721 0.44412 0.37481 0.0
C830 C 0.1287 0.46408 0.40974 0.0
C831 C 0.1159 0.48666 0.40075 0.0
H832 H 0.62237 0.58771 0.46885 0.0
H833 H 0.64586 0.57549 0.31449 0.0
H834 H 0.66499 0.60151 0.49067 0.0
H835 H 0.6882 0.58984 0.33608 0.0
H836 H 0.73354 0.66377 0.38845 0.0
H837 H 0.69665 0.63848 0.36707 0.0
H838 H 0.71546 0.5864 0.48627 0.0
H839 H 0.75331 0.61065 0.5054 0.0
C840 C 0.63688 0.58707 0.44011 0.0
C841 C 0.63088 0.58032 0.3901 0.0
C842 C 0.66118 0.59502 0.45254 0.0
C843 C 0.67967 0.5969 0.41487 0.0
C844 C 0.67418 0.58854 0.36569 0.0
C845 C 0.65003 0.58003 0.35352 0.0
C846 C 0.72994 0.64682 0.4098 0.0
C847 C 0.74585 0.63985 0.44999 0.0
C848 C 0.70893 0.63232 0.39746 0.0
C849 C 0.70326 0.61064 0.42531 0.0
C850 C 0.71936 0.60324 0.46471 0.0
C851 C 0.74075 0.61744 0.47628 0.0
H852 H 0.08052 0.98305 0.63928 0.0
H853 H 0.13405 0.00097 0.75697 0.0
H854 H 0.10549 0.94601 0.61693 0.0
H855 H 0.15795 0.96304 0.73686 0.0
H856 H 0.16895 0.89405 0.56534 0.0
H857 H 0.15449 0.93647 0.58648 0.0
H858 H 0.14166 0.91329 0.74069 0.0
H859 H 0.15531 0.87068 0.71932 0.0
C860 C 0.0975 0.97901 0.66055 0.0
C861 C 0.10466 0.99439 0.70132 0.0
C862 C 0.11181 0.95794 0.64764 0.0
C863 C 0.13349 0.95172 0.67548 0.0
C864 C 0.14112 0.96737 0.7153 0.0
C865 C 0.12711 0.98878 0.72745 0.0
C866 C 0.16391 0.89825 0.60415 0.0
C867 C 0.16321 0.87914 0.64076 0.0
C868 C 0.15544 0.92242 0.61605 0.0
C869 C 0.14683 0.92793 0.66503 0.0
C870 C 0.1483 0.90944 0.70272 0.0
C871 C 0.15615 0.88514 0.69054 0.0
H872 H 0.74895 0.38549 0.99633 0.0
H873 H 0.76808 0.33108 0.8815 0.0
H874 H 0.78712 0.40908 0.97689 0.0
H875 H 0.80537 0.35575 0.85968 0.0
H876 H 0.85724 0.4196 0.80838 0.0
H877 H 0.81464 0.40525 0.82853 0.0
H878 H 0.83738 0.39171 0.98298 0.0
H879 H 0.8802 0.40521 0.96263 0.0
C880 C 0.76145 0.37831 0.96756 0.0
C881 C 0.75614 0.3557 0.94211 0.0
C882 C 0.78299 0.39213 0.95578 0.0
C883 C 0.79905 0.38413 0.91697 0.0
C884 C 0.79312 0.36232 0.88965 0.0
C885 C 0.7719 0.3482 0.90223 0.0
C886 C 0.85292 0.41437 0.84703 0.0
C887 C 0.87198 0.41343 0.88398 0.0
C888 C 0.82866 0.40599 0.85836 0.0
C889 C 0.82297 0.39726 0.90711 0.0
C890 C 0.84139 0.39845 0.94516 0.0
C891 C 0.86581 0.40621 0.93356 0.0
H892 H 0.3848 0.99223 0.14135 0.0
H893 H 0.41051 0.02278 0.28321 0.0
H894 H 0.3633 0.03172 0.12233 0.0
H895 H 0.38613 0.06044 0.26881 0.0
H896 H 0.37359 0.13631 0.20115 0.0
H897 H 0.38865 0.09586 0.22564 0.0
H898 H 0.33134 0.06066 0.13297 0.0
H899 H 0.31757 0.10222 0.10436 0.0
C900 C 0.38518 0.0072 0.16906 0.0
C901 C 0.3985 0.00415 0.21457 0.0
C902 C 0.37252 0.02972 0.15866 0.0
C903 C 0.37269 0.04957 0.19398 0.0
C904 C 0.38578 0.04606 0.23992 0.0
C905 C 0.39923 0.02407 0.24913 0.0
C906 C 0.36386 0.12004 0.18623 0.0
C907 C 0.34454 0.12258 0.15016 0.0
C908 C 0.37241 0.09652 0.20092 0.0
C909 C 0.36139 0.07455 0.18146 0.0
C910 C 0.34076 0.07705 0.14799 0.0
C911 C 0.33255 0.10087 0.13212 0.0
H912 H 0.25748 0.34066 0.69355 0.0
H913 H 0.25318 0.37431 0.54546 0.0
H914 H 0.29378 0.36712 0.71397 0.0
H915 H 0.28919 0.40098 0.56572 0.0
H916 H 0.37737 0.39919 0.5984 0.0
H917 H 0.33431 0.38728 0.5778 0.0
H918 H 0.30992 0.41197 0.7255 0.0
H919 H 0.35313 0.42414 0.7461 0.0
C920 C 0.26392 0.35427 0.66605 0.0
C921 C 0.25239 0.35576 0.61836 0.0
C922 C 0.28452 0.3695 0.6777 0.0
C923 C 0.29422 0.38618 0.64143 0.0
C924 C 0.28204 0.38836 0.5944 0.0
C925 C 0.26129 0.3733 0.583 0.0
C926 C 0.36269 0.40282 0.62588 0.0
C927 C 0.36863 0.41237 0.67398 0.0
C928 C 0.338 0.39607 0.61405 0.0
C929 C 0.31884 0.39846 0.6503 0.0
C930 C 0.32441 0.40975 0.69707 0.0
C931 C 0.34909 0.41687 0.70866 0.0
H932 H 0.8471 0.12889 0.34974 0.0
H933 H 0.82905 0.10505 0.50162 0.0
H934 H 0.85986 0.08597 0.32858 0.0
H935 H 0.84268 0.06233 0.48072 0.0
H936 H 0.91726 0.01454 0.42984 0.0
H937 H 0.89333 0.05239 0.45133 0.0
H938 H 0.83998 0.03577 0.33282 0.0
H939 H 0.86275 0.99701 0.31368 0.0
C940 C 0.84519 0.11433 0.37808 0.0
C941 C 0.83712 0.12024 0.42728 0.0
C942 C 0.8525 0.08985 0.36599 0.0
C943 C 0.85238 0.0711 0.40324 0.0
C944 C 0.8429 0.0766 0.45152 0.0
C945 C 0.83497 0.10095 0.46327 0.0
C946 C 0.90028 0.01883 0.40875 0.0
C947 C 0.89255 0.00331 0.36863 0.0
C948 C 0.8866 0.04037 0.42113 0.0
C949 C 0.86501 0.04692 0.39337 0.0
C950 C 0.85677 0.03115 0.35427 0.0
C951 C 0.87013 0.00926 0.34269 0.0
H952 H 0.14607 0.57696 0.24667 0.0
H953 H 0.11993 0.60295 0.10077 0.0
H954 H 0.18894 0.58985 0.22498 0.0
H955 H 0.16301 0.61503 0.07875 0.0
H956 H 0.25372 0.61252 0.06249 0.0
H957 H 0.21439 0.59048 0.08054 0.0
H958 H 0.19806 0.64354 0.19932 0.0
H959 H 0.23646 0.66673 0.17899 0.0
C960 C 0.14964 0.58453 0.20932 0.0
C961 C 0.12973 0.58909 0.1754 0.0
C962 C 0.17409 0.59198 0.19713 0.0
C963 C 0.179 0.60339 0.15039 0.0
C964 C 0.15952 0.6061 0.1149 0.0
C965 C 0.13498 0.59923 0.12751 0.0
C966 C 0.24144 0.61995 0.09139 0.0
C967 C 0.24761 0.64207 0.11777 0.0
C968 C 0.21923 0.60703 0.1023 0.0
C969 C 0.20342 0.61547 0.1411 0.0
C970 C 0.21015 0.63672 0.1693 0.0
C971 C 0.23201 0.64996 0.15762 0.0
H972 H 0.61825 0.00478 0.93147 0.0
H973 H 0.5913 0.97467 0.79016 0.0
H974 H 0.63917 0.9649 0.95006 0.0
H975 H 0.6151 0.93661 0.80403 0.0
H976 H 0.62683 0.8606 0.87059 0.0
H977 H 0.61204 0.90131 0.84745 0.0
H978 H 0.67065 0.93542 0.93846 0.0
H979 H 0.68418 0.89357 0.96583 0.0
C980 C 0.61748 0.98981 0.90379 0.0
C981 C 0.60398 0.99308 0.85853 0.0
C982 C 0.62979 0.96707 0.91393 0.0
C983 C 0.62909 0.94724 0.8786 0.0
C984 C 0.61584 0.95098 0.83293 0.0
C985 C 0.60273 0.97318 0.824 0.0
C986 C 0.63691 0.87667 0.88545 0.0
C987 C 0.65658 0.87374 0.9206 0.0
C988 C 0.6285 0.90035 0.87153 0.0
C989 C 0.64002 0.92208 0.89079 0.0
C990 C 0.66088 0.91921 0.92356 0.0
C991 C 0.66894 0.89523 0.93872 0.0
H992 H 0.36983 0.15109 0.91983 0.0
H993 H 0.42836 0.16296 1.03105 0.0
H994 H 0.4002 0.13038 0.86434 0.0
H995 H 0.45866 0.14223 0.97553 0.0
H996 H 0.50163 0.08378 0.88362 0.0
H997 H 0.46835 0.09986 0.93876 0.0
H998 H 0.43793 0.14278 0.8142 0.0
H999 H 0.47107 0.12676 0.75915 0.0
C1000 C 0.38915 0.14927 0.9325 0.0
C1001 C 0.39665 0.15878 0.97988 0.0
C1002 C 0.40656 0.13744 0.90062 0.0
C1003 C 0.43183 0.13455 0.91557 0.0
C1004 C 0.43927 0.14384 0.96314 0.0
C1005 C 0.42193 0.15592 0.9948 0.0
C1006 C 0.48756 0.09625 0.86774 0.0
C1007 C 0.48907 0.10401 0.81696 0.0
C1008 C 0.46864 0.10567 0.89948 0.0
C1009 C 0.45062 0.12279 0.881 0.0
C1010 C 0.45142 0.12954 0.8296 0.0
C1011 C 0.47047 0.12037 0.79805 0.0
H1012 H 0.59882 0.61505 0.16811 0.0
H1013 H 0.59516 0.67119 0.28595 0.0
H1014 H 0.61943 0.64526 0.1124 0.0
H1015 H 0.61557 0.70133 0.23021 0.0
H1016 H 0.62225 0.71754 1.01256 0.0
H1017 H 0.60755 0.6839 0.0673 0.0
H1018 H 0.65573 0.71079 0.18742 0.0
H1019 H 0.67035 0.74474 0.13261 0.0
C1020 C 0.60245 0.63379 0.1822 0.0
C1021 C 0.59519 0.6407 0.23147 0.0
C1022 C 0.61422 0.65113 0.15021 0.0
C1023 C 0.6192 0.67573 0.16681 0.0
C1024 C 0.61234 0.68246 0.21639 0.0
C1025 C 0.60044 0.6652 0.24824 0.0
C1026 C 0.63006 0.71608 0.05037 0.0
C1027 C 0.64743 0.73394 0.06821 0.0
C1028 C 0.62167 0.6967 0.08174 0.0
C1029 C 0.63029 0.69473 0.13193 0.0
C1030 C 0.64845 0.71197 0.14916 0.0
C1031 C 0.65701 0.7313 0.11759 0.0
H1032 H 0.99926 0.91652 0.38413 0.0
H1033 H 0.02541 0.86802 0.26412 0.0
H1034 H 0.03306 0.9011 0.43894 0.0
H1035 H 0.05892 0.85247 0.31895 0.0
H1036 H 0.1287 0.84371 0.41947 0.0
H1037 H 0.09803 0.86375 0.36336 0.0
H1038 H 0.0425 0.86124 0.48236 0.0
H1039 H 0.07312 0.84142 0.53848 0.0
C1040 C 0.01241 0.90285 0.36916 0.0
C1041 C 0.00952 0.89346 0.31973 0.0
C1042 C 0.03165 0.89384 0.40075 0.0
C1043 C 0.04861 0.87537 0.38354 0.0
C1044 C 0.04634 0.8668 0.3334 0.0
C1045 C 0.02702 0.87566 0.30198 0.0
C1046 C 0.10997 0.84749 0.43372 0.0
C1047 C 0.1034 0.84086 0.4835 0.0
C1048 C 0.09235 0.85891 0.40148 0.0
C1049 C 0.06778 0.86418 0.41833 0.0
C1050 C 0.06133 0.8578 0.4683 0.0
C1051 C 0.07887 0.84623 0.50039 0.0
H1052 H 0.83297 0.25496 0.62269 0.0
H1053 H 0.88707 0.27505 0.50788 0.0
H1054 H 0.84909 0.28829 0.67717 0.0
H1055 H 0.90325 0.3083 0.56256 0.0
H1056 H 0.91194 0.37939 0.66065 0.0
H1057 H 0.89247 0.34904 0.60334 0.0
H1058 H 0.88874 0.29513 0.72504 0.0
H1059 H 0.90813 0.3254 0.78233 0.0
C1060 C 0.84805 0.2667 0.6087 0.0
C1061 C 0.85876 0.26222 0.56086 0.0
C1062 C 0.85745 0.28567 0.64018 0.0
C1063 C 0.87764 0.30082 0.62449 0.0
C1064 C 0.88761 0.29707 0.57577 0.0
C1065 C 0.87836 0.27795 0.54444 0.0
C1066 C 0.90693 0.36108 0.67523 0.0
C1067 C 0.91165 0.35486 0.72616 0.0
C1068 C 0.89585 0.34365 0.64229 0.0
C1069 C 0.88895 0.31967 0.65959 0.0
C1070 C 0.8935 0.31354 0.7106 0.0
C1071 C 0.90479 0.33086 0.7434 0.0
H1072 H 0.63083 0.84179 0.14909 0.0
H1073 H 0.57263 0.83235 0.03626 0.0
H1074 H 0.60057 0.86229 0.20511 0.0
H1075 H 0.54241 0.85289 0.09237 0.0
H1076 H 0.50032 0.91161 0.18676 0.0
H1077 H 0.53297 0.89478 0.13091 0.0
H1078 H 0.56266 0.85074 0.25459 0.0
H1079 H 0.53017 0.86754 0.31029 0.0
C1080 C 0.61159 0.84406 0.13618 0.0
C1081 C 0.6042 0.83531 0.08812 0.0
C1082 C 0.59422 0.85578 0.16841 0.0
C1083 C 0.56905 0.85934 0.15325 0.0
C1084 C 0.5617 0.85076 0.10504 0.0
C1085 C 0.579 0.83878 0.07301 0.0
C1086 C 0.51409 0.8987 0.20228 0.0
C1087 C 0.51258 0.89094 0.25308 0.0
C1088 C 0.53265 0.88883 0.1701 0.0
C1089 C 0.55034 0.87123 0.1881 0.0
C1090 C 0.54946 0.86434 0.23946 0.0
C1091 C 0.53076 0.87396 0.27142 0.0
H1092 H 0.40818 0.32282 0.77717 0.0
H1093 H 0.40295 0.37898 0.89472 0.0
H1094 H 0.38779 0.29244 0.83249 0.0
H1095 H 0.38226 0.34864 0.94981 0.0
H1096 H 0.37798 0.27768 0.0512 0.0
H1097 H 0.39335 0.31081 0.99616 0.0
H1098 H 0.34778 0.28204 0.87369 0.0
H1099 H 0.3326 0.24845 0.92887 0.0
C1100 C 0.40259 0.32875 0.81474 0.0
C1101 C 0.40736 0.35336 0.83152 0.0
C1102 C 0.39068 0.31135 0.84634 0.0
C1103 C 0.3833 0.31806 0.89565 0.0
C1104 C 0.38789 0.34274 0.91227 0.0
C1105 C 0.39973 0.36017 0.8806 0.0
C1106 C 0.37092 0.27857 1.01274 0.0
C1107 C 0.3541 0.26029 0.99446 0.0
C1108 C 0.37968 0.29769 0.98117 0.0
C1109 C 0.37198 0.29904 0.9303 0.0
C1110 C 0.35439 0.28135 0.91248 0.0
C1111 C 0.34547 0.26224 0.94425 0.0
H1112 H 0.97395 0.13238 0.80616 0.0
H1113 H 0.99897 0.08319 0.68635 0.0
H1114 H 0.94101 0.14891 0.75087 0.0
H1115 H 0.96585 0.09961 0.63117 0.0
H1116 H 0.92668 0.15928 0.53053 0.0
H1117 H 0.95723 0.13971 0.58734 0.0
H1118 H 0.9016 0.1381 0.70616 0.0
H1119 H 0.87101 0.15778 0.6494 0.0
C1120 C 0.97224 0.12484 0.76826 0.0
C1121 C 0.98924 0.10649 0.75076 0.0
C1122 C 0.95326 0.13427 0.73655 0.0
C1123 C 0.95087 0.12577 0.68634 0.0
C1124 C 0.96736 0.10685 0.66936 0.0
C1125 C 0.98622 0.09726 0.70121 0.0
C1126 C 0.92091 0.15474 0.56874 0.0
C1127 C 0.89634 0.16017 0.58532 0.0
C1128 C 0.93841 0.14334 0.60125 0.0
C1129 C 0.93189 0.13723 0.65136 0.0
C1130 C 0.90733 0.14271 0.66797 0.0
C1131 C 0.88975 0.15392 0.63532 0.0
H1132 H 0.17419 0.72994 0.47156 0.0
H1133 H 0.09929 0.74121 0.53068 0.0
H1134 H 0.15815 0.69616 0.41682 0.0
H1135 H 0.08339 0.70817 0.47533 0.0
H1136 H 0.06531 0.6756 0.31222 0.0
H1137 H 0.08307 0.7066 0.37062 0.0
H1138 H 0.13261 0.65015 0.43254 0.0
H1139 H 0.11429 0.61878 0.37514 0.0
C1140 C 0.15442 0.72506 0.4733 0.0
C1141 C 0.13807 0.73817 0.50585 0.0
C1142 C 0.14528 0.70576 0.44203 0.0
C1143 C 0.11953 0.69968 0.44177 0.0
C1144 C 0.1033 0.71253 0.4747 0.0
C1145 C 0.1125 0.73134 0.5067 0.0
C1146 C 0.07997 0.66976 0.33829 0.0
C1147 C 0.08832 0.64471 0.33919 0.0
C1148 C 0.09008 0.6875 0.37175 0.0
C1149 C 0.10921 0.68075 0.40599 0.0
C1150 C 0.11794 0.65583 0.40637 0.0
C1151 C 0.10736 0.6379 0.37374 0.0
H1152 H 0.8695 0.65247 0.41811 0.0
H1153 H 0.92692 0.66037 0.53304 0.0
H1154 H 0.90003 0.63234 0.36215 0.0
H1155 H 0.9574 0.64021 0.47701 0.0
H1156 H 0.99962 0.58215 0.38226 0.0
H1157 H 0.96645 0.59849 0.43721 0.0
H1158 H 0.93867 0.64441 0.31455 0.0
H1159 H 0.97176 0.62811 0.25959 0.0
C1160 C 0.88862 0.6499 0.43151 0.0
C1161 C 0.89574 0.65811 0.48011 0.0
C1162 C 0.90614 0.63841 0.39932 0.0
C1163 C 0.93115 0.63457 0.41511 0.0
C1164 C 0.93821 0.64258 0.46388 0.0
C1165 C 0.92077 0.65433 0.49587 0.0
C1166 C 0.98617 0.59539 0.36669 0.0
C1167 C 0.98841 0.60381 0.31643 0.0
C1168 C 0.96731 0.60495 0.39838 0.0
C1169 C 0.95003 0.62294 0.38045 0.0
C1170 C 0.95157 0.6305 0.32954 0.0
C1171 C 0.97059 0.62116 0.29802 0.0
H1172 H 0.10048 0.11631 0.67654 0.0
H1173 H 0.08922 0.17472 0.78778 0.0
H1174 H 0.12195 0.14621 0.62165 0.0
H1175 H 0.11049 0.20462 0.73264 0.0
H1176 H 0.12597 0.21552 0.51505 0.0
H1177 H 0.11033 0.18286 0.57094 0.0
H1178 H 0.15185 0.21524 0.6955 0.0
H1179 H 0.16742 0.24829 0.63935 0.0
C1180 C 0.10257 0.13552 0.68933 0.0
C1181 C 0.09298 0.14311 0.73652 0.0
C1182 C 0.11486 0.15267 0.65779 0.0
C1183 C 0.11799 0.17783 0.67271 0.0
C1184 C 0.10872 0.18533 0.72022 0.0
C1185 C 0.09631 0.16821 0.75166 0.0
C1186 C 0.13214 0.2155 0.55416 0.0
C1187 C 0.14792 0.2346 0.57271 0.0
C1188 C 0.12321 0.19667 0.58623 0.0
C1189 C 0.12966 0.1965 0.63785 0.0
C1190 C 0.14626 0.21502 0.65606 0.0
C1191 C 0.15539 0.23381 0.62378 0.0
H1192 H 0.5085 0.35005 0.78389 0.0
H1193 H 0.51822 0.42486 0.8437 0.0
H1194 H 0.54218 0.33479 0.83876 0.0
H1195 H 0.55265 0.40946 0.89796 0.0
H1196 H 0.63141 0.36638 0.93858 0.0
H1197 H 0.59952 0.38445 0.88157 0.0
H1198 H 0.54368 0.33467 0.94377 0.0
H1199 H 0.57515 0.31717 1.00171 0.0
C1200 C 0.51815 0.36338 0.80793 0.0
C1201 C 0.51068 0.38874 0.80914 0.0
C1202 C 0.53734 0.35455 0.83963 0.0
C1203 C 0.54996 0.37092 0.87261 0.0
C1204 C 0.54325 0.39648 0.87269 0.0
C1205 C 0.52356 0.40526 0.8417 0.0
C1206 C 0.6123 0.35937 0.94015 0.0
C1207 C 0.60581 0.34032 0.97463 0.0
C1208 C 0.59408 0.36979 0.90774 0.0
C1209 C 0.56919 0.36091 0.9083 0.0
C1210 C 0.56275 0.3418 0.94252 0.0
C1211 C 0.58076 0.33184 0.97572 0.0
H1212 H 0.33501 0.7467 0.1419 0.0
H1213 H 0.37462 0.78104 1.01728 0.0
H1214 H 0.35144 0.77902 0.19897 0.0
H1215 H 0.39114 0.81292 0.07405 0.0
H1216 H 0.4018 0.87836 0.18124 0.0
H1217 H 0.37992 0.84879 0.12645 0.0
H1218 H 0.39326 0.78959 0.23493 0.0
H1219 H 0.41494 0.81932 0.29032 0.0
C1220 C 0.3468 0.76139 0.12648 0.0
C1221 C 0.35349 0.76128 0.07502 0.0
C1222 C 0.35645 0.77973 0.15928 0.0
C1223 C 0.37278 0.79845 0.14118 0.0
C1224 C 0.37847 0.79894 0.08926 0.0
C1225 C 0.36901 0.78058 0.05667 0.0
C1226 C 0.40009 0.85905 0.19354 0.0
C1227 C 0.41029 0.85121 0.24012 0.0
C1228 C 0.38755 0.84207 0.16202 0.0
C1229 C 0.38481 0.8168 0.17624 0.0
C1230 C 0.39474 0.80899 0.22311 0.0
C1231 C 0.40738 0.82598 0.25465 0.0
H1232 H 0.07492 0.31099 0.5646 0.0
H1233 H 0.13143 0.3634 0.61583 0.0
H1234 H 0.04422 0.33037 0.62155 0.0
H1235 H 0.10037 0.3832 0.67186 0.0
H1236 H 0.021 0.42425 0.71355 0.0
H1237 H 0.05428 0.40731 0.65852 0.0
H1238 H 0.04364 0.33393 0.72376 0.0
H1239 H 0.01112 0.35068 0.77905 0.0
C1240 C 0.08074 0.32674 0.58774 0.0
C1241 C 0.10564 0.33556 0.5859 0.0
C1242 C 0.06319 0.33779 0.62038 0.0
C1243 C 0.06996 0.35828 0.65104 0.0
C1244 C 0.09467 0.36751 0.64845 0.0
C1245 C 0.11243 0.35607 0.61664 0.0
C1246 C 0.02609 0.40461 0.71668 0.0
C1247 C 0.01348 0.38889 0.75107 0.0
C1248 C 0.04509 0.39494 0.68522 0.0
C1249 C 0.05136 0.36928 0.68673 0.0
C1250 C 0.03908 0.35374 0.72161 0.0
C1251 C 0.02057 0.36345 0.75365 0.0
H1252 H 0.90024 0.87911 0.3948 0.0
H1253 H 0.90999 0.82252 0.2793 0.0
H1254 H 0.88004 0.84819 0.4494 0.0
H1255 H 0.88985 0.79161 0.33405 0.0
H1256 H 0.83317 0.74719 0.42807 0.0
H1257 H 0.84867 0.78072 0.37307 0.0
H1258 H 0.89259 0.81036 0.49704 0.0
H1259 H 0.87708 0.77708 0.55186 0.0
C1260 C 0.89806 0.8601 0.38097 0.0
C1261 C 0.90686 0.85333 0.33264 0.0
C1262 C 0.88652 0.84234 0.41238 0.0
C1263 C 0.88326 0.81739 0.39615 0.0
C1264 C 0.89175 0.81071 0.34755 0.0
C1265 C 0.90349 0.82842 0.31629 0.0
C1266 C 0.84577 0.76113 0.44381 0.0
C1267 C 0.85388 0.75939 0.49442 0.0
C1268 C 0.85486 0.7802 0.41214 0.0
C1269 C 0.87204 0.79816 0.43049 0.0
C1270 C 0.87927 0.79699 0.48167 0.0
C1271 C 0.87041 0.77782 0.51311 0.0
H1272 H 0.37322 0.63386 0.11467 0.0
H1273 H 0.42833 0.68742 0.06285 0.0
H1274 H 0.40481 0.61493 0.17079 0.0
H1275 H 0.45964 0.66888 0.12003 0.0
H1276 H 0.49458 0.64827 0.27709 0.0
H1277 H 0.46215 0.66519 0.22111 0.0
H1278 H 0.44995 0.59142 0.15857 0.0
H1279 H 0.48304 0.5744 0.21405 0.0
C1280 C 0.39205 0.64163 0.11534 0.0
C1281 C 0.39825 0.66218 0.08433 0.0
C1282 C 0.41013 0.6307 0.14728 0.0
C1283 C 0.43464 0.64047 0.14985 0.0
C1284 C 0.44085 0.66105 0.11898 0.0
C1285 C 0.42295 0.6716 0.08614 0.0
C1286 C 0.4848 0.63551 0.25201 0.0
C1287 C 0.49133 0.6099 0.2504 0.0
C1288 C 0.46638 0.6453 0.21957 0.0
C1289 C 0.45361 0.62966 0.18533 0.0
C1290 C 0.45947 0.60389 0.18469 0.0
C1291 C 0.47838 0.59416 0.21644 0.0
H1292 H 0.62135 0.22389 0.05381 0.0
H1293 H 0.6664 0.25072 0.92922 0.0
H1294 H 0.60421 0.19091 0.99975 0.0
H1295 H 0.64928 0.21762 0.87522 0.0
H1296 H 0.58692 0.17812 0.78141 0.0
H1297 H 0.60724 0.20875 0.83676 0.0
H1298 H 0.61562 0.15213 0.95246 0.0
H1299 H 0.59528 0.12146 0.89721 0.0
C1300 C 0.62791 0.22253 1.01512 0.0
C1301 C 0.64524 0.24002 0.99591 0.0
C1302 C 0.6181 0.20357 0.98414 0.0
C1303 C 0.62518 0.20176 0.933 0.0
C1304 C 0.64316 0.21872 0.91424 0.0
C1305 C 0.65317 0.23753 0.94538 0.0
C1306 C 0.59306 0.17218 0.81866 0.0
C1307 C 0.58941 0.14731 0.83483 0.0
C1308 C 0.6049 0.18971 0.85025 0.0
C1309 C 0.61317 0.18287 0.89899 0.0
C1310 C 0.60935 0.15805 0.91529 0.0
C1311 C 0.59774 0.14046 0.88352 0.0
H1312 H 0.25667 0.2231 0.13895 0.0
H1313 H 0.32074 0.22735 0.23951 0.0
H1314 H 0.22972 0.23957 0.20629 0.0
H1315 H 0.29397 0.2425 0.3069 0.0
H1316 H 0.24444 0.29129 0.40687 0.0
H1317 H 0.27125 0.27647 0.33806 0.0
H1318 H 0.21059 0.22963 0.28346 0.0
H1319 H 0.18367 0.24534 0.35062 0.0
C1320 C 0.26497 0.22744 0.17539 0.0
C1321 C 0.29088 0.22402 0.18357 0.0
C1322 C 0.24952 0.23672 0.21427 0.0
C1323 C 0.25956 0.24249 0.26246 0.0
C1324 C 0.28549 0.23889 0.27033 0.0
C1325 C 0.30089 0.22997 0.23149 0.0
C1326 C 0.23696 0.27769 0.38034 0.0
C1327 C 0.21194 0.26952 0.3843 0.0
C1328 C 0.25233 0.2691 0.34078 0.0
C1329 C 0.24317 0.25183 0.30462 0.0
C1330 C 0.21826 0.24331 0.30954 0.0
C1331 C 0.20285 0.25215 0.34856 0.0
H1332 H 0.52102 0.50574 0.38543 0.0
H1333 H 0.52378 0.56676 0.49289 0.0
H1334 H 0.50315 0.47856 0.45057 0.0
H1335 H 0.50718 0.53956 0.55824 0.0
H1336 H 0.45626 0.4914 0.65643 0.0
H1337 H 0.47203 0.51885 0.5897 0.0
H1338 H 0.51253 0.4563 0.52433 0.0
H1339 H 0.49582 0.42887 0.58946 0.0
C1340 C 0.51793 0.51332 0.42296 0.0
C1341 C 0.52378 0.53847 0.43371 0.0
C1342 C 0.50784 0.49769 0.4606 0.0
C1343 C 0.50365 0.5067 0.51017 0.0
C1344 C 0.50956 0.53191 0.5206 0.0
C1345 C 0.51931 0.54754 0.48295 0.0
C1346 C 0.46862 0.4836 0.6279 0.0
C1347 C 0.47474 0.45794 0.62837 0.0
C1348 C 0.47778 0.49935 0.58955 0.0
C1349 C 0.4936 0.48992 0.55103 0.0
C1350 C 0.5 0.46429 0.55231 0.0
C1351 C 0.49058 0.44853 0.59015 0.0
H1352 H 0.24177 0.77338 0.64365 0.0
H1353 H 0.1782 0.77038 0.74506 0.0
H1354 H 0.26875 0.75633 0.7105 0.0
H1355 H 0.20507 0.7545 0.81201 0.0
H1356 H 0.25516 0.70513 0.91159 0.0
H1357 H 0.2278 0.72021 0.84343 0.0
H1358 H 0.28834 0.76653 0.78731 0.0
H1359 H 0.31569 0.75072 0.85377 0.0
C1360 C 0.23356 0.76917 0.68016 0.0
C1361 C 0.20778 0.77322 0.68872 0.0
C1362 C 0.24905 0.75954 0.71879 0.0
C1363 C 0.23922 0.75398 0.76715 0.0
C1364 C 0.21339 0.75802 0.77534 0.0
C1365 C 0.19794 0.76736 0.73675 0.0
C1366 C 0.26249 0.71867 0.88487 0.0
C1367 C 0.28761 0.72666 0.8882 0.0
C1368 C 0.24681 0.72739 0.84567 0.0
C1369 C 0.25579 0.74455 0.80918 0.0
C1370 C 0.28079 0.75291 0.81358 0.0
C1371 C 0.29646 0.744 0.85224 0.0
H1372 H 0.02683 0.56751 0.07057 0.0
H1373 H 0.02457 0.50604 0.17687 0.0
H1374 H 0.01091 0.54037 1.00432 0.0
H1375 H 0.00735 0.47885 0.11075 0.0
H1376 H 0.99914 0.42974 0.9709 0.0
H1377 H 0.01609 0.4568 0.03662 0.0
H1378 H 0.97593 0.51985 0.97207 0.0
H1379 H 0.95995 0.49278 0.90475 0.0
C1380 C 0.02266 0.54817 0.08003 0.0
C1381 C 0.02697 0.53901 0.1293 0.0
C1382 C 0.01328 0.53256 0.04185 0.0
C1383 C 0.00754 0.50727 0.05169 0.0
C1384 C 0.01183 0.49807 0.10116 0.0
C1385 C 0.02158 0.5137 0.13936 0.0
C1386 C 0.99404 0.44944 0.9705 0.0
C1387 C 0.97822 0.45908 0.93231 0.0
C1388 C 0.0036 0.46499 1.00869 0.0
C1389 C 0.99739 0.49067 1.01039 0.0
C1390 C 0.98159 0.50033 0.97192 0.0
C1391 C 0.97229 0.48478 0.93322 0.0
H1392 H 0.74504 0.77276 0.92615 0.0
H1393 H 0.68089 0.76953 0.82574 0.0
H1394 H 0.77168 0.75577 0.85881 0.0
H1395 H 0.70735 0.75382 0.75834 0.0
H1396 H 0.75588 0.7038 0.65833 0.0
H1397 H 0.72933 0.71947 0.72688 0.0
H1398 H 0.79116 0.76468 0.78172 0.0
H1399 H 0.81775 0.74815 0.71487 0.0
C1400 C 0.73666 0.76859 0.88971 0.0
C1401 C 0.71079 0.77241 0.88166 0.0
C1402 C 0.75194 0.75897 0.8508 0.0
C1403 C 0.74179 0.75325 0.80265 0.0
C1404 C 0.71592 0.75735 0.79485 0.0
C1405 C 0.70069 0.76661 0.83371 0.0
C1406 C 0.76368 0.71722 0.68487 0.0
C1407 C 0.78893 0.72468 0.68102 0.0
C1408 C 0.74845 0.72631 0.72429 0.0
C1409 C 0.75799 0.74338 0.7605 0.0
C1410 C 0.78315 0.75118 0.75567 0.0
C1411 C 0.79839 0.74186 0.7168 0.0
H1412 H 0.68361 0.27703 0.23922 0.0
H1413 H 0.74547 0.27305 0.13379 0.0
H1414 H 0.71015 0.26023 0.30565 0.0
H1415 H 0.77209 0.255 0.20029 0.0
H1416 H 0.82053 0.24643 0.34156 0.0
H1417 H 0.79398 0.26357 0.27514 0.0
H1418 H 0.72993 0.22469 0.33812 0.0
H1419 H 0.75658 0.20837 0.4062 0.0
C1420 C 0.7029 0.27231 0.22995 0.0
C1421 C 0.71234 0.27641 0.18085 0.0
C1422 C 0.71816 0.26241 0.26828 0.0
C1423 C 0.7434 0.25597 0.25884 0.0
C1424 C 0.75289 0.26001 0.20955 0.0
C1425 C 0.7376 0.27024 0.17113 0.0
C1426 C 0.80073 0.24161 0.34149 0.0
C1427 C 0.7907 0.22604 0.37948 0.0
C1428 C 0.78547 0.25129 0.30286 0.0
C1429 C 0.75968 0.24551 0.30049 0.0
C1430 C 0.74959 0.22998 0.33876 0.0
C1431 C 0.76487 0.2205 0.37791 0.0
H1432 H 0.02147 0.06846 0.99461 0.0
H1433 H 0.02236 0.00555 0.89149 0.0
H1434 H 0.00533 0.04182 0.06115 0.0
H1435 H 0.00495 0.97881 0.958 0.0
H1436 H 0.99817 0.93153 0.10036 0.0
H1437 H 0.01459 0.95844 0.03411 0.0
H1438 H 0.97056 0.02033 0.09246 0.0
H1439 H 0.95497 0.99342 0.16037 0.0
C1440 C 0.01791 0.04892 0.98584 0.0
C1441 C 0.02324 0.03919 0.93743 0.0
C1442 C 0.00842 0.0336 1.0242 0.0
C1443 C 0.00363 0.00803 1.01542 0.0
C1444 C 0.00872 0.99829 0.96672 0.0
C1445 C 0.01855 0.01365 0.9283 0.0
C1446 C 0.99212 0.95096 0.09934 0.0
C1447 C 0.97529 0.96034 0.13587 0.0
C1448 C 0.00136 0.96638 0.06082 0.0
C1449 C 0.99384 0.99165 0.05716 0.0
C1450 C 0.97715 0.0011 0.09416 0.0
C1451 C 0.96812 0.98568 0.13321 0.0
H1452 H 0.52451 0.06791 0.57286 0.0
H1453 H 0.52772 0.00632 0.67888 0.0
H1454 H 0.50829 0.0401 0.50808 0.0
H1455 H 0.51022 0.9784 0.61431 0.0
H1456 H 0.50162 0.92928 0.47468 0.0
H1457 H 0.51875 0.95711 0.53885 0.0
H1458 H 0.47327 0.0179 0.47995 0.0
H1459 H 0.457 0.9901 0.41409 0.0
C1460 C 0.5215 0.04839 0.58258 0.0
C1461 C 0.52741 0.03938 0.63128 0.0
C1462 C 0.51195 0.0324 0.54529 0.0
C1463 C 0.50767 0.00687 0.55557 0.0
C1464 C 0.51356 0.99783 0.60446 0.0
C1465 C 0.52347 0.01385 0.64175 0.0
C1466 C 0.49537 0.94865 0.4752 0.0
C1467 C 0.47797 0.95748 0.43906 0.0
C1468 C 0.50505 0.96462 0.51249 0.0
C1469 C 0.49739 0.98987 0.51527 0.0
C1470 C 0.48001 0.99872 0.47882 0.0
C1471 C 0.47057 0.98278 0.441 0.0
loop_
_geom_bond_atom_site_label_1
_geom_bond_atom_site_label_2
_geom_bond_distance
_geom_bond_site_symmetry_2
_ccdc_geom_bond_type
Zn0 O1 2.055 . S
Zn0 O8 2.046 1_554 S
Zn0 N16 2.036 1_554 S
Zn0 O28 2.053 1_554 S
Zn0 O30 2.066 . S
O1 Zn0 2.055 . S
O1 C4 1.259 . S
C2 O30 1.256 . S
C2 O31 1.244 . S
Zn3 O5 2.046 . S
Zn3 O7 2.055 . S
Zn3 N9 2.036 . S
Zn3 O27 2.066 . S
Zn3 O31 2.053 . S
C4 O1 1.259 . S
C4 O5 1.254 . S
O5 Zn3 2.046 . S
O5 C4 1.254 . S
C6 O27 1.256 1_556 S
C6 O28 1.244 . S
O7 Zn3 2.055 . S
O7 C29 1.259 1_554 S
O8 Zn0 2.046 1_556 S
O8 C29 1.254 . S
N9 Zn3 2.036 . S
N9 C10 1.298 . S
N9 N12 1.398 . S
C10 N9 1.298 . S
C10 N13 1.367 . S
C10 C23 1.481 . S
C11 N12 1.299 . S
C11 N13 1.379 . S
N12 N9 1.398 . S
N12 C11 1.299 . S
N13 C10 1.367 . S
N13 C11 1.379 . S
C14 N16 1.298 1_554 S
C14 N18 1.367 1_554 S
C14 C22 1.481 . S
C15 N17 1.299 . S
C15 N18 1.379 . S
N16 Zn0 2.036 1_556 S
N16 C14 1.298 1_556 S
N16 N17 1.398 . S
N17 C15 1.299 . S
N17 N16 1.398 . S
N18 C14 1.367 1_556 S
N18 C15 1.379 . S
H19 C22 0.980 . S
H20 C22 0.981 . S
H21 C22 0.981 . S
C22 C14 1.481 . S
C22 H19 0.980 . S
C22 H20 0.981 . S
C22 H21 0.981 . S
C23 C10 1.481 . S
C23 H24 0.980 . S
C23 H25 0.981 . S
C23 H26 0.981 . S
H24 C23 0.980 . S
H25 C23 0.981 . S
H26 C23 0.981 . S
O27 Zn3 2.066 . S
O27 C6 1.256 1_554 S
O28 Zn0 2.053 1_556 S
O28 C6 1.244 . S
C29 O7 1.259 1_556 S
C29 O8 1.254 . S
O30 Zn0 2.066 . S
O30 C2 1.256 . S
O31 C2 1.244 . S
O31 Zn3 2.053 . S
Zn32 O33 2.055 . S
Zn32 O40 2.046 . S
Zn32 N48 2.036 . S
Zn32 O60 2.053 . S
Zn32 O62 2.066 . S
O33 Zn32 2.055 . S
O33 C36 1.259 . S
C34 O62 1.256 . S
C34 O63 1.244 . S
Zn35 O37 2.046 . S
Zn35 O39 2.055 . S
Zn35 N41 2.036 . S
Zn35 O59 2.066 . S
Zn35 O63 2.053 . S
C36 O33 1.259 . S
C36 O37 1.254 . S
O37 Zn35 2.046 . S
O37 C36 1.254 . S
C38 O59 1.256 . S
C38 O60 1.244 . S
O39 Zn35 2.055 . S
O39 C61 1.259 . S
O40 Zn32 2.046 . S
O40 C61 1.254 . S
N41 Zn35 2.036 . S
N41 C42 1.298 . S
N41 N44 1.398 . S
C42 N41 1.298 . S
C42 N45 1.367 . S
C42 C55 1.481 . S
C43 N44 1.299 . S
C43 N45 1.379 . S
N44 N41 1.398 . S
N44 C43 1.299 . S
N45 C42 1.367 . S
N45 C43 1.379 . S
C46 N48 1.298 . S
C46 N50 1.367 . S
C46 C54 1.481 . S
C47 N49 1.299 . S
C47 N50 1.379 . S
N48 Zn32 2.036 . S
N48 C46 1.298 . S
N48 N49 1.398 . S
N49 C47 1.299 . S
N49 N48 1.398 . S
N50 C46 1.367 . S
N50 C47 1.379 . S
H51 C54 0.980 . S
H52 C54 0.981 . S
H53 C54 0.981 . S
C54 C46 1.481 . S
C54 H51 0.980 . S
C54 H52 0.981 . S
C54 H53 0.981 . S
C55 C42 1.481 . S
C55 H56 0.980 . S
C55 H57 0.981 . S
C55 H58 0.981 . S
H56 C55 0.980 . S
H57 C55 0.981 . S
H58 C55 0.981 . S
O59 Zn35 2.066 . S
O59 C38 1.256 . S
O60 Zn32 2.053 . S
O60 C38 1.244 . S
C61 O39 1.259 . S
C61 O40 1.254 . S
O62 Zn32 2.066 . S
O62 C34 1.256 . S
O63 C34 1.244 . S
O63 Zn35 2.053 . S
Zn64 O65 2.055 . S
Zn64 O72 2.046 . S
Zn64 N80 2.036 . S
Zn64 O92 2.053 . S
Zn64 O94 2.066 . S
O65 Zn64 2.055 . S
O65 C68 1.259 . S
C66 O94 1.256 . S
C66 O95 1.244 . S
Zn67 O69 2.046 . S
Zn67 O71 2.055 . S
Zn67 N73 2.036 . S
Zn67 O91 2.066 . S
Zn67 O95 2.053 . S
C68 O65 1.259 . S
C68 O69 1.254 . S
O69 Zn67 2.046 . S
O69 C68 1.254 . S
C70 O91 1.256 . S
C70 O92 1.244 . S
O71 Zn67 2.055 . S
O71 C93 1.259 . S
O72 Zn64 2.046 . S
O72 C93 1.254 . S
N73 Zn67 2.036 . S
N73 C74 1.298 . S
N73 N76 1.398 . S
C74 N73 1.298 . S
C74 N77 1.367 . S
C74 C87 1.481 . S
C75 N76 1.299 . S
C75 N77 1.379 . S
N76 N73 1.398 . S
N76 C75 1.299 . S
N77 C74 1.367 . S
N77 C75 1.379 . S
C78 N80 1.298 . S
C78 N82 1.367 . S
C78 C86 1.481 . S
C79 N81 1.299 . S
C79 N82 1.379 . S
N80 Zn64 2.036 . S
N80 C78 1.298 . S
N80 N81 1.398 . S
N81 C79 1.299 . S
N81 N80 1.398 . S
N82 C78 1.367 . S
N82 C79 1.379 . S
H83 C86 0.980 . S
H84 C86 0.981 . S
H85 C86 0.981 . S
C86 C78 1.481 . S
C86 H83 0.980 . S
C86 H84 0.981 . S
C86 H85 0.981 . S
C87 C74 1.481 . S
C87 H88 0.980 . S
C87 H89 0.981 . S
C87 H90 0.981 . S
H88 C87 0.980 . S
H89 C87 0.981 . S
H90 C87 0.981 . S
O91 Zn67 2.066 . S
O91 C70 1.256 . S
O92 Zn64 2.053 . S
O92 C70 1.244 . S
C93 O71 1.259 . S
C93 O72 1.254 . S
O94 Zn64 2.066 . S
O94 C66 1.256 . S
O95 C66 1.244 . S
O95 Zn67 2.053 . S
Zn96 O97 2.055 . S
Zn96 O104 2.046 . S
Zn96 N112 2.036 . S
Zn96 O124 2.053 . S
Zn96 O126 2.066 . S
O97 Zn96 2.055 . S
O97 C100 1.259 . S
C98 O126 1.256 . S
C98 O127 1.244 . S
Zn99 O101 2.046 . S
Zn99 O103 2.055 . S
Zn99 N105 2.036 . S
Zn99 O123 2.066 . S
Zn99 O127 2.053 . S
C100 O97 1.259 . S
C100 O101 1.254 . S
O101 Zn99 2.046 . S
O101 C100 1.254 . S
C102 O123 1.256 . S
C102 O124 1.244 . S
O103 Zn99 2.055 . S
O103 C125 1.259 . S
O104 Zn96 2.046 . S
O104 C125 1.254 . S
N105 Zn99 2.036 . S
N105 C106 1.298 . S
N105 N108 1.398 . S
C106 N105 1.298 . S
C106 N109 1.367 . S
C106 C119 1.481 . S
C107 N108 1.299 . S
C107 N109 1.379 . S
N108 N105 1.398 . S
N108 C107 1.299 . S
N109 C106 1.367 . S
N109 C107 1.379 . S
C110 N112 1.298 . S
C110 N114 1.367 . S
C110 C118 1.481 . S
C111 N113 1.299 . S
C111 N114 1.379 . S
N112 Zn96 2.036 . S
N112 C110 1.298 . S
N112 N113 1.398 . S
N113 C111 1.299 . S
N113 N112 1.398 . S
N114 C110 1.367 . S
N114 C111 1.379 . S
H115 C118 0.980 . S
H116 C118 0.981 . S
H117 C118 0.981 . S
C118 C110 1.481 . S
C118 H115 0.980 . S
C118 H116 0.981 . S
C118 H117 0.981 . S
C119 C106 1.481 . S
C119 H120 0.980 . S
C119 H121 0.981 . S
C119 H122 0.981 . S
H120 C119 0.980 . S
H121 C119 0.981 . S
H122 C119 0.981 . S
O123 Zn99 2.066 . S
O123 C102 1.256 . S
O124 Zn96 2.053 . S
O124 C102 1.244 . S
C125 O103 1.259 . S
C125 O104 1.254 . S
O126 Zn96 2.066 . S
O126 C98 1.256 . S
O127 C98 1.244 . S
O127 Zn99 2.053 . S
Zn128 O129 2.055 . S
Zn128 O136 2.046 . S
Zn128 N144 2.036 . S
Zn128 O156 2.053 . S
Zn128 O158 2.066 . S
O129 Zn128 2.055 . S
O129 C132 1.259 1_556 S
C130 O158 1.256 1_554 S
C130 O159 1.244 . S
Zn131 O133 2.046 1_556 S
Zn131 O135 2.055 . S
Zn131 N137 2.036 1_556 S
Zn131 O155 2.066 . S
Zn131 O159 2.053 1_556 S
C132 O129 1.259 1_554 S
C132 O133 1.254 . S
O133 Zn131 2.046 1_554 S
O133 C132 1.254 . S
C134 O155 1.256 . S
C134 O156 1.244 . S
O135 Zn131 2.055 . S
O135 C157 1.259 . S
O136 Zn128 2.046 . S
O136 C157 1.254 . S
N137 Zn131 2.036 1_554 S
N137 C138 1.298 1_554 S
N137 N140 1.398 . S
C138 N137 1.298 1_556 S
C138 N141 1.367 1_556 S
C138 C151 1.481 . S
C139 N140 1.299 . S
C139 N141 1.379 . S
N140 N137 1.398 . S
N140 C139 1.299 . S
N141 C138 1.367 1_554 S
N141 C139 1.379 . S
C142 N144 1.298 . S
C142 N146 1.367 . S
C142 C150 1.481 . S
C143 N145 1.299 . S
C143 N146 1.379 . S
N144 Zn128 2.036 . S
N144 C142 1.298 . S
N144 N145 1.398 . S
N145 C143 1.299 . S
N145 N144 1.398 . S
N146 C142 1.367 . S
N146 C143 1.379 . S
H147 C150 0.980 . S
H148 C150 0.981 . S
H149 C150 0.981 . S
C150 C142 1.481 . S
C150 H147 0.980 . S
C150 H148 0.981 . S
C150 H149 0.981 . S
C151 C138 1.481 . S
C151 H152 0.980 . S
C151 H153 0.981 . S
C151 H154 0.981 . S
H152 C151 0.980 . S
H153 C151 0.981 . S
H154 C151 0.981 . S
O155 Zn131 2.066 . S
O155 C134 1.256 . S
O156 Zn128 2.053 . S
O156 C134 1.244 . S
C157 O135 1.259 . S
C157 O136 1.254 . S
O158 Zn128 2.066 . S
O158 C130 1.256 1_556 S
O159 C130 1.244 . S
O159 Zn131 2.053 1_554 S
Zn160 O161 2.055 . S
Zn160 O168 2.046 . S
Zn160 N176 2.036 . S
Zn160 O188 2.053 . S
Zn160 O190 2.066 . S
O161 Zn160 2.055 . S
O161 C164 1.259 . S
C162 O190 1.256 . S
C162 O191 1.244 . S
Zn163 O165 2.046 . S
Zn163 O167 2.055 . S
Zn163 N169 2.036 . S
Zn163 O187 2.066 . S
Zn163 O191 2.053 . S
C164 O161 1.259 . S
C164 O165 1.254 . S
O165 Zn163 2.046 . S
O165 C164 1.254 . S
C166 O187 1.256 . S
C166 O188 1.244 . S
O167 Zn163 2.055 . S
O167 C189 1.259 . S
O168 Zn160 2.046 . S
O168 C189 1.254 . S
N169 Zn163 2.036 . S
N169 C170 1.298 . S
N169 N172 1.398 . S
C170 N169 1.298 . S
C170 N173 1.367 . S
C170 C183 1.481 . S
C171 N172 1.299 . S
C171 N173 1.379 . S
N172 N169 1.398 . S
N172 C171 1.299 . S
N173 C170 1.367 . S
N173 C171 1.379 . S
C174 N176 1.298 . S
C174 N178 1.367 . S
C174 C182 1.481 . S
C175 N177 1.299 . S
C175 N178 1.379 . S
N176 Zn160 2.036 . S
N176 C174 1.298 . S
N176 N177 1.398 . S
N177 C175 1.299 . S
N177 N176 1.398 . S
N178 C174 1.367 . S
N178 C175 1.379 . S
H179 C182 0.980 . S
H180 C182 0.981 . S
H181 C182 0.981 . S
C182 C174 1.481 . S
C182 H179 0.980 . S
C182 H180 0.981 . S
C182 H181 0.981 . S
C183 C170 1.481 . S
C183 H184 0.980 . S
C183 H185 0.981 . S
C183 H186 0.981 . S
H184 C183 0.980 . S
H185 C183 0.981 . S
H186 C183 0.981 . S
O187 Zn163 2.066 . S
O187 C166 1.256 . S
O188 Zn160 2.053 . S
O188 C166 1.244 . S
C189 O167 1.259 . S
C189 O168 1.254 . S
O190 Zn160 2.066 . S
O190 C162 1.256 . S
O191 C162 1.244 . S
O191 Zn163 2.053 . S
Zn192 O193 2.055 . S
Zn192 O200 2.046 . S
Zn192 N208 2.036 . S
Zn192 O220 2.053 . S
Zn192 O222 2.066 . S
O193 Zn192 2.055 . S
O193 C196 1.259 . S
C194 O222 1.256 . S
C194 O223 1.244 . S
Zn195 O197 2.046 . S
Zn195 O199 2.055 . S
Zn195 N201 2.036 . S
Zn195 O219 2.066 . S
Zn195 O223 2.053 . S
C196 O193 1.259 . S
C196 O197 1.254 . S
O197 Zn195 2.046 . S
O197 C196 1.254 . S
C198 O219 1.256 . S
C198 O220 1.244 . S
O199 Zn195 2.055 . S
O199 C221 1.259 . S
O200 Zn192 2.046 . S
O200 C221 1.254 . S
N201 Zn195 2.036 . S
N201 C202 1.298 . S
N201 N204 1.398 . S
C202 N201 1.298 . S
C202 N205 1.367 . S
C202 C215 1.481 . S
C203 N204 1.299 . S
C203 N205 1.379 . S
N204 N201 1.398 . S
N204 C203 1.299 . S
N205 C202 1.367 . S
N205 C203 1.379 . S
C206 N208 1.298 . S
C206 N210 1.367 . S
C206 C214 1.481 . S
C207 N209 1.299 . S
C207 N210 1.379 . S
N208 Zn192 2.036 . S
N208 C206 1.298 . S
N208 N209 1.398 . S
N209 C207 1.299 . S
N209 N208 1.398 . S
N210 C206 1.367 . S
N210 C207 1.379 . S
H211 C214 0.980 . S
H212 C214 0.981 . S
H213 C214 0.981 . S
C214 C206 1.481 . S
C214 H211 0.980 . S
C214 H212 0.981 . S
C214 H213 0.981 . S
C215 C202 1.481 . S
C215 H216 0.980 . S
C215 H217 0.981 . S
C215 H218 0.981 . S
H216 C215 0.980 . S
H217 C215 0.981 . S
H218 C215 0.981 . S
O219 Zn195 2.066 . S
O219 C198 1.256 . S
O220 Zn192 2.053 . S
O220 C198 1.244 . S
C221 O199 1.259 . S
C221 O200 1.254 . S
O222 Zn192 2.066 . S
O222 C194 1.256 . S
O223 C194 1.244 . S
O223 Zn195 2.053 . S
Zn224 O225 2.055 . S
Zn224 O232 2.046 . S
Zn224 N240 2.036 . S
Zn224 O252 2.053 . S
Zn224 O254 2.066 . S
O225 Zn224 2.055 . S
O225 C228 1.259 . S
C226 O254 1.256 . S
C226 O255 1.244 . S
Zn227 O229 2.046 . S
Zn227 O231 2.055 . S
Zn227 N233 2.036 . S
Zn227 O251 2.066 . S
Zn227 O255 2.053 . S
C228 O225 1.259 . S
C228 O229 1.254 . S
O229 Zn227 2.046 . S
O229 C228 1.254 . S
C230 O251 1.256 . S
C230 O252 1.244 . S
O231 Zn227 2.055 . S
O231 C253 1.259 . S
O232 Zn224 2.046 . S
O232 C253 1.254 . S
N233 Zn227 2.036 . S
N233 C234 1.298 . S
N233 N236 1.398 . S
C234 N233 1.298 . S
C234 N237 1.367 . S
C234 C247 1.481 . S
C235 N236 1.299 . S
C235 N237 1.379 . S
N236 N233 1.398 . S
N236 C235 1.299 . S
N237 C234 1.367 . S
N237 C235 1.379 . S
C238 N240 1.298 . S
C238 N242 1.367 . S
C238 C246 1.481 . S
C239 N241 1.299 . S
C239 N242 1.379 . S
N240 Zn224 2.036 . S
N240 C238 1.298 . S
N240 N241 1.398 . S
N241 C239 1.299 . S
N241 N240 1.398 . S
N242 C238 1.367 . S
N242 C239 1.379 . S
H243 C246 0.980 . S
H244 C246 0.981 . S
H245 C246 0.981 . S
C246 C238 1.481 . S
C246 H243 0.980 . S
C246 H244 0.981 . S
C246 H245 0.981 . S
C247 C234 1.481 . S
C247 H248 0.980 . S
C247 H249 0.981 . S
C247 H250 0.981 . S
H248 C247 0.980 . S
H249 C247 0.981 . S
H250 C247 0.981 . S
O251 Zn227 2.066 . S
O251 C230 1.256 . S
O252 Zn224 2.053 . S
O252 C230 1.244 . S
C253 O231 1.259 . S
C253 O232 1.254 . S
O254 Zn224 2.066 . S
O254 C226 1.256 . S
O255 C226 1.244 . S
O255 Zn227 2.053 . S
Zn256 O257 2.055 . S
Zn256 O264 2.046 . S
Zn256 N272 2.036 . S
Zn256 O284 2.053 . S
Zn256 O286 2.066 . S
O257 Zn256 2.055 . S
O257 C260 1.259 . S
C258 O286 1.256 . S
C258 O287 1.244 . S
Zn259 O261 2.046 . S
Zn259 O263 2.055 . S
Zn259 N265 2.036 . S
Zn259 O283 2.066 . S
Zn259 O287 2.053 . S
C260 O257 1.259 . S
C260 O261 1.254 . S
O261 Zn259 2.046 . S
O261 C260 1.254 . S
C262 O283 1.256 . S
C262 O284 1.244 . S
O263 Zn259 2.055 . S
O263 C285 1.259 . S
O264 Zn256 2.046 . S
O264 C285 1.254 . S
N265 Zn259 2.036 . S
N265 C266 1.298 . S
N265 N268 1.398 . S
C266 N265 1.298 . S
C266 N269 1.367 . S
C266 C279 1.481 . S
C267 N268 1.299 . S
C267 N269 1.379 . S
N268 N265 1.398 . S
N268 C267 1.299 . S
N269 C266 1.367 . S
N269 C267 1.379 . S
C270 N272 1.298 . S
C270 N274 1.367 . S
C270 C278 1.481 . S
C271 N273 1.299 . S
C271 N274 1.379 . S
N272 Zn256 2.036 . S
N272 C270 1.298 . S
N272 N273 1.398 . S
N273 C271 1.299 . S
N273 N272 1.398 . S
N274 C270 1.367 . S
N274 C271 1.379 . S
H275 C278 0.980 . S
H276 C278 0.981 . S
H277 C278 0.981 . S
C278 C270 1.481 . S
C278 H275 0.980 . S
C278 H276 0.981 . S
C278 H277 0.981 . S
C279 C266 1.481 . S
C279 H280 0.980 . S
C279 H281 0.981 . S
C279 H282 0.981 . S
H280 C279 0.980 . S
H281 C279 0.981 . S
H282 C279 0.981 . S
O283 Zn259 2.066 . S
O283 C262 1.256 . S
O284 Zn256 2.053 . S
O284 C262 1.244 . S
C285 O263 1.259 . S
C285 O264 1.254 . S
O286 Zn256 2.066 . S
O286 C258 1.256 . S
O287 C258 1.244 . S
O287 Zn259 2.053 . S
Zn288 O289 2.055 . S
Zn288 O296 2.046 . S
Zn288 N304 2.036 . S
Zn288 O316 2.053 . S
Zn288 O318 2.066 . S
O289 Zn288 2.055 . S
O289 C292 1.259 . S
C290 O318 1.256 . S
C290 O319 1.244 . S
Zn291 O293 2.046 . S
Zn291 O295 2.055 . S
Zn291 N297 2.036 . S
Zn291 O315 2.066 . S
Zn291 O319 2.053 . S
C292 O289 1.259 . S
C292 O293 1.254 . S
O293 Zn291 2.046 . S
O293 C292 1.254 . S
C294 O315 1.256 . S
C294 O316 1.244 . S
O295 Zn291 2.055 . S
O295 C317 1.259 . S
O296 Zn288 2.046 . S
O296 C317 1.254 . S
N297 Zn291 2.036 . S
N297 C298 1.298 . S
N297 N300 1.398 . S
C298 N297 1.298 . S
C298 N301 1.367 . S
C298 C311 1.481 . S
C299 N300 1.299 . S
C299 N301 1.379 . S
N300 N297 1.398 . S
N300 C299 1.299 . S
N301 C298 1.367 . S
N301 C299 1.379 . S
C302 N304 1.298 . S
C302 N306 1.367 . S
C302 C310 1.481 . S
C303 N305 1.299 . S
C303 N306 1.379 . S
N304 Zn288 2.036 . S
N304 C302 1.298 . S
N304 N305 1.398 . S
N305 C303 1.299 . S
N305 N304 1.398 . S
N306 C302 1.367 . S
N306 C303 1.379 . S
H307 C310 0.980 . S
H308 C310 0.981 . S
H309 C310 0.981 . S
C310 C302 1.481 . S
C310 H307 0.980 . S
C310 H308 0.981 . S
C310 H309 0.981 . S
C311 C298 1.481 . S
C311 H312 0.980 . S
C311 H313 0.981 . S
C311 H314 0.981 . S
H312 C311 0.980 . S
H313 C311 0.981 . S
H314 C311 0.981 . S
O315 Zn291 2.066 . S
O315 C294 1.256 . S
O316 Zn288 2.053 . S
O316 C294 1.244 . S
C317 O295 1.259 . S
C317 O296 1.254 . S
O318 Zn288 2.066 . S
O318 C290 1.256 . S
O319 C290 1.244 . S
O319 Zn291 2.053 . S
Zn320 O321 2.055 . S
Zn320 O328 2.046 . S
Zn320 N336 2.036 . S
Zn320 O348 2.053 . S
Zn320 O350 2.066 . S
O321 Zn320 2.055 . S
O321 C324 1.259 1_554 S
C322 O350 1.256 1_556 S
C322 O351 1.244 . S
Zn323 O325 2.046 1_554 S
Zn323 O327 2.055 . S
Zn323 N329 2.036 1_554 S
Zn323 O347 2.066 . S
Zn323 O351 2.053 1_554 S
C324 O321 1.259 1_556 S
C324 O325 1.254 . S
O325 Zn323 2.046 1_556 S
O325 C324 1.254 . S
C326 O347 1.256 . S
C326 O348 1.244 . S
O327 Zn323 2.055 . S
O327 C349 1.259 . S
O328 Zn320 2.046 . S
O328 C349 1.254 . S
N329 Zn323 2.036 1_556 S
N329 C330 1.298 1_556 S
N329 N332 1.398 . S
C330 N329 1.298 1_554 S
C330 N333 1.367 1_554 S
C330 C343 1.481 . S
C331 N332 1.299 . S
C331 N333 1.379 . S
N332 N329 1.398 . S
N332 C331 1.299 . S
N333 C330 1.367 1_556 S
N333 C331 1.379 . S
C334 N336 1.298 . S
C334 N338 1.367 . S
C334 C342 1.481 . S
C335 N337 1.299 . S
C335 N338 1.379 . S
N336 Zn320 2.036 . S
N336 C334 1.298 . S
N336 N337 1.398 . S
N337 C335 1.299 . S
N337 N336 1.398 . S
N338 C334 1.367 . S
N338 C335 1.379 . S
H339 C342 0.980 . S
H340 C342 0.981 . S
H341 C342 0.981 . S
C342 C334 1.481 . S
C342 H339 0.980 . S
C342 H340 0.981 . S
C342 H341 0.981 . S
C343 C330 1.481 . S
C343 H344 0.980 . S
C343 H345 0.981 . S
C343 H346 0.981 . S
H344 C343 0.980 . S
H345 C343 0.981 . S
H346 C343 0.981 . S
O347 Zn323 2.066 . S
O347 C326 1.256 . S
O348 Zn320 2.053 . S
O348 C326 1.244 . S
C349 O327 1.259 . S
C349 O328 1.254 . S
O350 Zn320 2.066 . S
O350 C322 1.256 1_554 S
O351 C322 1.244 . S
O351 Zn323 2.053 1_556 S
Zn352 O353 2.055 . S
Zn352 O360 2.046 . S
Zn352 N368 2.036 . S
Zn352 O380 2.053 . S
Zn352 O382 2.066 . S
O353 Zn352 2.055 . S
O353 C356 1.259 . S
C354 O382 1.256 . S
C354 O383 1.244 . S
Zn355 O357 2.046 . S
Zn355 O359 2.055 . S
Zn355 N361 2.036 . S
Zn355 O379 2.066 . S
Zn355 O383 2.053 . S
C356 O353 1.259 . S
C356 O357 1.254 . S
O357 Zn355 2.046 . S
O357 C356 1.254 . S
C358 O379 1.256 . S
C358 O380 1.244 . S
O359 Zn355 2.055 . S
O359 C381 1.259 . S
O360 Zn352 2.046 . S
O360 C381 1.254 . S
N361 Zn355 2.036 . S
N361 C362 1.298 . S
N361 N364 1.398 . S
C362 N361 1.298 . S
C362 N365 1.367 . S
C362 C375 1.481 . S
C363 N364 1.299 . S
C363 N365 1.379 . S
N364 N361 1.398 . S
N364 C363 1.299 . S
N365 C362 1.367 . S
N365 C363 1.379 . S
C366 N368 1.298 . S
C366 N370 1.367 . S
C366 C374 1.481 . S
C367 N369 1.299 . S
C367 N370 1.379 . S
N368 Zn352 2.036 . S
N368 C366 1.298 . S
N368 N369 1.398 . S
N369 C367 1.299 . S
N369 N368 1.398 . S
N370 C366 1.367 . S
N370 C367 1.379 . S
H371 C374 0.980 . S
H372 C374 0.981 . S
H373 C374 0.981 . S
C374 C366 1.481 . S
C374 H371 0.980 . S
C374 H372 0.981 . S
C374 H373 0.981 . S
C375 C362 1.481 . S
C375 H376 0.980 . S
C375 H377 0.981 . S
C375 H378 0.981 . S
H376 C375 0.980 . S
H377 C375 0.981 . S
H378 C375 0.981 . S
O379 Zn355 2.066 . S
O379 C358 1.256 . S
O380 Zn352 2.053 . S
O380 C358 1.244 . S
C381 O359 1.259 . S
C381 O360 1.254 . S
O382 Zn352 2.066 . S
O382 C354 1.256 . S
O383 C354 1.244 . S
O383 Zn355 2.053 . S
Zn384 O385 2.055 . S
Zn384 O392 2.046 . S
Zn384 N400 2.036 . S
Zn384 O412 2.053 . S
Zn384 O414 2.066 . S
O385 Zn384 2.055 . S
O385 C388 1.259 . S
C386 O414 1.256 . S
C386 O415 1.244 . S
Zn387 O389 2.046 . S
Zn387 O391 2.055 . S
Zn387 N393 2.036 . S
Zn387 O411 2.066 . S
Zn387 O415 2.053 . S
C388 O385 1.259 . S
C388 O389 1.254 . S
O389 Zn387 2.046 . S
O389 C388 1.254 . S
C390 O411 1.256 . S
C390 O412 1.244 . S
O391 Zn387 2.055 . S
O391 C413 1.259 . S
O392 Zn384 2.046 . S
O392 C413 1.254 . S
N393 Zn387 2.036 . S
N393 C394 1.298 . S
N393 N396 1.398 . S
C394 N393 1.298 . S
C394 N397 1.367 . S
C394 C407 1.481 . S
C395 N396 1.299 . S
C395 N397 1.379 . S
N396 N393 1.398 . S
N396 C395 1.299 . S
N397 C394 1.367 . S
N397 C395 1.379 . S
C398 N400 1.298 . S
C398 N402 1.367 . S
C398 C406 1.481 . S
C399 N401 1.299 . S
C399 N402 1.379 . S
N400 Zn384 2.036 . S
N400 C398 1.298 . S
N400 N401 1.398 . S
N401 C399 1.299 . S
N401 N400 1.398 . S
N402 C398 1.367 . S
N402 C399 1.379 . S
H403 C406 0.980 . S
H404 C406 0.981 . S
H405 C406 0.981 . S
C406 C398 1.481 . S
C406 H403 0.980 . S
C406 H404 0.981 . S
C406 H405 0.981 . S
C407 C394 1.481 . S
C407 H408 0.980 . S
C407 H409 0.981 . S
C407 H410 0.981 . S
H408 C407 0.980 . S
H409 C407 0.981 . S
H410 C407 0.981 . S
O411 Zn387 2.066 . S
O411 C390 1.256 . S
O412 Zn384 2.053 . S
O412 C390 1.244 . S
C413 O391 1.259 . S
C413 O392 1.254 . S
O414 Zn384 2.066 . S
O414 C386 1.256 . S
O415 C386 1.244 . S
O415 Zn387 2.053 . S
Zn416 O417 2.055 . S
Zn416 O424 2.046 . S
Zn416 N432 2.036 . S
Zn416 O444 2.053 . S
Zn416 O446 2.066 . S
O417 Zn416 2.055 . S
O417 C420 1.259 . S
C418 O446 1.256 . S
C418 O447 1.244 . S
Zn419 O421 2.046 . S
Zn419 O423 2.055 . S
Zn419 N425 2.036 . S
Zn419 O443 2.066 . S
Zn419 O447 2.053 . S
C420 O417 1.259 . S
C420 O421 1.254 . S
O421 Zn419 2.046 . S
O421 C420 1.254 . S
C422 O443 1.256 . S
C422 O444 1.244 . S
O423 Zn419 2.055 . S
O423 C445 1.259 . S
O424 Zn416 2.046 . S
O424 C445 1.254 . S
N425 Zn419 2.036 . S
N425 C426 1.298 . S
N425 N428 1.398 . S
C426 N425 1.298 . S
C426 N429 1.367 . S
C426 C439 1.481 . S
C427 N428 1.299 . S
C427 N429 1.379 . S
N428 N425 1.398 . S
N428 C427 1.299 . S
N429 C426 1.367 . S
N429 C427 1.379 . S
C430 N432 1.298 . S
C430 N434 1.367 . S
C430 C438 1.481 . S
C431 N433 1.299 . S
C431 N434 1.379 . S
N432 Zn416 2.036 . S
N432 C430 1.298 . S
N432 N433 1.398 . S
N433 C431 1.299 . S
N433 N432 1.398 . S
N434 C430 1.367 . S
N434 C431 1.379 . S
H435 C438 0.980 . S
H436 C438 0.981 . S
H437 C438 0.981 . S
C438 C430 1.481 . S
C438 H435 0.980 . S
C438 H436 0.981 . S
C438 H437 0.981 . S
C439 C426 1.481 . S
C439 H440 0.980 . S
C439 H441 0.981 . S
C439 H442 0.981 . S
H440 C439 0.980 . S
H441 C439 0.981 . S
H442 C439 0.981 . S
O443 Zn419 2.066 . S
O443 C422 1.256 . S
O444 Zn416 2.053 . S
O444 C422 1.244 . S
C445 O423 1.259 . S
C445 O424 1.254 . S
O446 Zn416 2.066 . S
O446 C418 1.256 . S
O447 C418 1.244 . S
O447 Zn419 2.053 . S
Zn448 O449 2.055 . S
Zn448 O456 2.046 1_556 S
Zn448 N464 2.036 1_556 S
Zn448 O476 2.053 1_556 S
Zn448 O478 2.066 . S
O449 Zn448 2.055 . S
O449 C452 1.259 . S
C450 O478 1.256 . S
C450 O479 1.244 . S
Zn451 O453 2.046 . S
Zn451 O455 2.055 . S
Zn451 N457 2.036 . S
Zn451 O475 2.066 . S
Zn451 O479 2.053 . S
C452 O449 1.259 . S
C452 O453 1.254 . S
O453 Zn451 2.046 . S
O453 C452 1.254 . S
C454 O475 1.256 1_554 S
C454 O476 1.244 . S
O455 Zn451 2.055 . S
O455 C477 1.259 1_556 S
O456 Zn448 2.046 1_554 S
O456 C477 1.254 . S
N457 Zn451 2.036 . S
N457 C458 1.298 . S
N457 N460 1.398 . S
C458 N457 1.298 . S
C458 N461 1.367 . S
C458 C471 1.481 . S
C459 N460 1.299 . S
C459 N461 1.379 . S
N460 N457 1.398 . S
N460 C459 1.299 . S
N461 C458 1.367 . S
N461 C459 1.379 . S
C462 N464 1.298 1_556 S
C462 N466 1.367 1_556 S
C462 C470 1.481 . S
C463 N465 1.299 . S
C463 N466 1.379 . S
N464 Zn448 2.036 1_554 S
N464 C462 1.298 1_554 S
N464 N465 1.398 . S
N465 C463 1.299 . S
N465 N464 1.398 . S
N466 C462 1.367 1_554 S
N466 C463 1.379 . S
H467 C470 0.980 . S
H468 C470 0.981 . S
H469 C470 0.981 . S
C470 C462 1.481 . S
C470 H467 0.980 . S
C470 H468 0.981 . S
C470 H469 0.981 . S
C471 C458 1.481 . S
C471 H472 0.980 . S
C471 H473 0.981 . S
C471 H474 0.981 . S
H472 C471 0.980 . S
H473 C471 0.981 . S
H474 C471 0.981 . S
O475 Zn451 2.066 . S
O475 C454 1.256 1_556 S
O476 Zn448 2.053 1_554 S
O476 C454 1.244 . S
C477 O455 1.259 1_554 S
C477 O456 1.254 . S
O478 Zn448 2.066 . S
O478 C450 1.256 . S
O479 C450 1.244 . S
O479 Zn451 2.053 . S
Zn480 O481 2.055 . S
Zn480 O488 2.046 . S
Zn480 N496 2.036 . S
Zn480 O508 2.053 . S
Zn480 O510 2.066 . S
O481 Zn480 2.055 . S
O481 C484 1.259 . S
C482 O510 1.256 . S
C482 O511 1.244 . S
Zn483 O485 2.046 . S
Zn483 O487 2.055 . S
Zn483 N489 2.036 . S
Zn483 O507 2.066 . S
Zn483 O511 2.053 . S
C484 O481 1.259 . S
C484 O485 1.254 . S
O485 Zn483 2.046 . S
O485 C484 1.254 . S
C486 O507 1.256 . S
C486 O508 1.244 . S
O487 Zn483 2.055 . S
O487 C509 1.259 . S
O488 Zn480 2.046 . S
O488 C509 1.254 . S
N489 Zn483 2.036 . S
N489 C490 1.298 . S
N489 N492 1.398 . S
C490 N489 1.298 . S
C490 N493 1.367 . S
C490 C503 1.481 . S
C491 N492 1.299 . S
C491 N493 1.379 . S
N492 N489 1.398 . S
N492 C491 1.299 . S
N493 C490 1.367 . S
N493 C491 1.379 . S
C494 N496 1.298 . S
C494 N498 1.367 . S
C494 C502 1.481 . S
C495 N497 1.299 . S
C495 N498 1.379 . S
N496 Zn480 2.036 . S
N496 C494 1.298 . S
N496 N497 1.398 . S
N497 C495 1.299 . S
N497 N496 1.398 . S
N498 C494 1.367 . S
N498 C495 1.379 . S
H499 C502 0.980 . S
H500 C502 0.981 . S
H501 C502 0.981 . S
C502 C494 1.481 . S
C502 H499 0.980 . S
C502 H500 0.981 . S
C502 H501 0.981 . S
C503 C490 1.481 . S
C503 H504 0.980 . S
C503 H505 0.981 . S
C503 H506 0.981 . S
H504 C503 0.980 . S
H505 C503 0.981 . S
H506 C503 0.981 . S
O507 Zn483 2.066 . S
O507 C486 1.256 . S
O508 Zn480 2.053 . S
O508 C486 1.244 . S
C509 O487 1.259 . S
C509 O488 1.254 . S
O510 Zn480 2.066 . S
O510 C482 1.256 . S
O511 C482 1.244 . S
O511 Zn483 2.053 . S
H512 C520 0.950 . S
H513 C525 0.950 . S
H514 C522 0.950 . S
H515 C524 0.950 . S
H516 C526 0.950 . S
H517 C528 0.950 . S
H518 C530 0.950 . S
H519 C531 0.950 . S
C520 H512 0.950 . S
C520 C521 1.386 . S
C520 C522 1.391 . S
C521 C520 1.386 . S
C521 C525 1.393 . S
C522 H514 0.950 . S
C522 C520 1.391 . S
C522 C523 1.400 . S
C523 C522 1.400 . S
C523 C524 1.398 . S
C523 C529 1.491 . S
C524 H515 0.950 . S
C524 C523 1.398 . S
C524 C525 1.391 . S
C525 H513 0.950 . S
C525 C521 1.393 . S
C525 C524 1.391 . S
C526 H516 0.950 . S
C526 C527 1.386 . S
C526 C528 1.391 . S
C527 C526 1.386 . S
C527 C531 1.393 . S
C528 H517 0.950 . S
C528 C526 1.391 . S
C528 C529 1.400 . S
C529 C523 1.491 . S
C529 C528 1.400 . S
C529 C530 1.398 . S
C530 H518 0.950 . S
C530 C529 1.398 . S
C530 C531 1.391 . S
C531 H519 0.950 . S
C531 C527 1.393 . S
C531 C530 1.391 . S
H532 C540 0.950 . S
H533 C545 0.950 . S
H534 C542 0.950 . S
H535 C544 0.950 . S
H536 C546 0.950 . S
H537 C548 0.950 . S
H538 C550 0.950 . S
H539 C551 0.950 . S
C540 H532 0.950 . S
C540 C541 1.386 . S
C540 C542 1.391 . S
C541 C540 1.386 . S
C541 C545 1.393 . S
C542 H534 0.950 . S
C542 C540 1.391 . S
C542 C543 1.400 . S
C543 C542 1.400 . S
C543 C544 1.398 . S
C543 C549 1.491 . S
C544 H535 0.950 . S
C544 C543 1.398 . S
C544 C545 1.391 . S
C545 H533 0.950 . S
C545 C541 1.393 . S
C545 C544 1.391 . S
C546 H536 0.950 . S
C546 C547 1.386 . S
C546 C548 1.391 . S
C547 C546 1.386 . S
C547 C551 1.393 . S
C548 H537 0.950 . S
C548 C546 1.391 . S
C548 C549 1.400 . S
C549 C543 1.491 . S
C549 C548 1.400 . S
C549 C550 1.398 . S
C550 H538 0.950 . S
C550 C549 1.398 . S
C550 C551 1.391 . S
C551 H539 0.950 . S
C551 C547 1.393 . S
C551 C550 1.391 . S
H552 C560 0.950 . S
H553 C565 0.950 . S
H554 C562 0.950 . S
H555 C564 0.950 . S
H556 C566 0.950 . S
H557 C568 0.950 . S
H558 C570 0.950 . S
H559 C571 0.950 . S
C560 H552 0.950 . S
C560 C561 1.386 . S
C560 C562 1.391 . S
C561 C560 1.386 . S
C561 C565 1.393 . S
C562 H554 0.950 . S
C562 C560 1.391 . S
C562 C563 1.400 . S
C563 C562 1.400 . S
C563 C564 1.398 . S
C563 C569 1.491 1_455 S
C564 H555 0.950 . S
C564 C563 1.398 . S
C564 C565 1.391 . S
C565 H553 0.950 . S
C565 C561 1.393 . S
C565 C564 1.391 . S
C566 H556 0.950 . S
C566 C567 1.386 . S
C566 C568 1.391 . S
C567 C566 1.386 . S
C567 C571 1.393 . S
C568 H557 0.950 . S
C568 C566 1.391 . S
C568 C569 1.400 . S
C569 C563 1.491 1_655 S
C569 C568 1.400 . S
C569 C570 1.398 . S
C570 H558 0.950 . S
C570 C569 1.398 . S
C570 C571 1.391 . S
C571 H559 0.950 . S
C571 C567 1.393 . S
C571 C570 1.391 . S
H572 C580 0.950 . S
H573 C585 0.950 . S
H574 C582 0.950 . S
H575 C584 0.950 . S
H576 C586 0.950 . S
H577 C588 0.950 . S
H578 C590 0.950 . S
H579 C591 0.950 . S
C580 H572 0.950 . S
C580 C581 1.386 . S
C580 C582 1.391 . S
C581 C580 1.386 . S
C581 C585 1.393 1_655 S
C582 H574 0.950 . S
C582 C580 1.391 . S
C582 C583 1.400 . S
C583 C582 1.400 . S
C583 C584 1.398 1_655 S
C583 C589 1.491 1_655 S
C584 H575 0.950 . S
C584 C583 1.398 1_455 S
C584 C585 1.391 . S
C585 H573 0.950 . S
C585 C581 1.393 1_455 S
C585 C584 1.391 . S
C586 H576 0.950 . S
C586 C587 1.386 . S
C586 C588 1.391 . S
C587 C586 1.386 . S
C587 C591 1.393 1_455 S
C588 H577 0.950 . S
C588 C586 1.391 . S
C588 C589 1.400 . S
C589 C583 1.491 1_455 S
C589 C588 1.400 . S
C589 C590 1.398 1_455 S
C590 H578 0.950 . S
C590 C589 1.398 1_655 S
C590 C591 1.391 . S
C591 H579 0.950 . S
C591 C587 1.393 1_655 S
C591 C590 1.391 . S
H592 C600 0.950 . S
H593 C605 0.950 . S
H594 C602 0.950 . S
H595 C604 0.950 . S
H596 C606 0.950 . S
H597 C608 0.950 . S
H598 C610 0.950 . S
H599 C611 0.950 . S
C600 H592 0.950 . S
C600 C601 1.386 . S
C600 C602 1.391 . S
C601 C600 1.386 . S
C601 C605 1.393 . S
C602 H594 0.950 . S
C602 C600 1.391 . S
C602 C603 1.400 . S
C603 C602 1.400 . S
C603 C604 1.398 . S
C603 C609 1.491 . S
C604 H595 0.950 . S
C604 C603 1.398 . S
C604 C605 1.391 . S
C605 H593 0.950 . S
C605 C601 1.393 . S
C605 C604 1.391 . S
C606 H596 0.950 . S
C606 C607 1.386 . S
C606 C608 1.391 . S
C607 C606 1.386 . S
C607 C611 1.393 . S
C608 H597 0.950 . S
C608 C606 1.391 . S
C608 C609 1.400 . S
C609 C603 1.491 . S
C609 C608 1.400 . S
C609 C610 1.398 . S
C610 H598 0.950 . S
C610 C609 1.398 . S
C610 C611 1.391 . S
C611 H599 0.950 . S
C611 C607 1.393 . S
C611 C610 1.391 . S
H612 C620 0.950 . S
H613 C625 0.950 . S
H614 C622 0.950 . S
H615 C624 0.950 . S
H616 C626 0.950 . S
H617 C628 0.950 . S
H618 C630 0.950 . S
H619 C631 0.950 . S
C620 H612 0.950 . S
C620 C621 1.386 . S
C620 C622 1.391 . S
C621 C620 1.386 . S
C621 C625 1.393 . S
C622 H614 0.950 . S
C622 C620 1.391 . S
C622 C623 1.400 . S
C623 C622 1.400 . S
C623 C624 1.398 . S
C623 C629 1.491 . S
C624 H615 0.950 . S
C624 C623 1.398 . S
C624 C625 1.391 . S
C625 H613 0.950 . S
C625 C621 1.393 . S
C625 C624 1.391 . S
C626 H616 0.950 . S
C626 C627 1.386 . S
C626 C628 1.391 . S
C627 C626 1.386 . S
C627 C631 1.393 . S
C628 H617 0.950 . S
C628 C626 1.391 . S
C628 C629 1.400 . S
C629 C623 1.491 . S
C629 C628 1.400 . S
C629 C630 1.398 . S
C630 H618 0.950 . S
C630 C629 1.398 . S
C630 C631 1.391 . S
C631 H619 0.950 . S
C631 C627 1.393 . S
C631 C630 1.391 . S
H632 C640 0.950 . S
H633 C645 0.950 . S
H634 C642 0.950 . S
H635 C644 0.950 . S
H636 C646 0.950 . S
H637 C648 0.950 . S
H638 C650 0.950 . S
H639 C651 0.950 . S
C640 H632 0.950 . S
C640 C641 1.386 . S
C640 C642 1.391 . S
C641 C640 1.386 . S
C641 C645 1.393 . S
C642 H634 0.950 . S
C642 C640 1.391 . S
C642 C643 1.400 . S
C643 C642 1.400 . S
C643 C644 1.398 . S
C643 C649 1.491 1_655 S
C644 H635 0.950 . S
C644 C643 1.398 . S
C644 C645 1.391 . S
C645 H633 0.950 . S
C645 C641 1.393 . S
C645 C644 1.391 . S
C646 H636 0.950 . S
C646 C647 1.386 . S
C646 C648 1.391 . S
C647 C646 1.386 . S
C647 C651 1.393 . S
C648 H637 0.950 . S
C648 C646 1.391 . S
C648 C649 1.400 . S
C649 C643 1.491 1_455 S
C649 C648 1.400 . S
C649 C650 1.398 . S
C650 H638 0.950 . S
C650 C649 1.398 . S
C650 C651 1.391 . S
C651 H639 0.950 . S
C651 C647 1.393 . S
C651 C650 1.391 . S
H652 C660 0.950 . S
H653 C665 0.950 . S
H654 C662 0.950 . S
H655 C664 0.950 . S
H656 C666 0.950 . S
H657 C668 0.950 . S
H658 C670 0.950 . S
H659 C671 0.950 . S
C660 H652 0.950 . S
C660 C661 1.386 . S
C660 C662 1.391 . S
C661 C660 1.386 . S
C661 C665 1.393 . S
C662 H654 0.950 . S
C662 C660 1.391 . S
C662 C663 1.400 . S
C663 C662 1.400 . S
C663 C664 1.398 . S
C663 C669 1.491 1_455 S
C664 H655 0.950 . S
C664 C663 1.398 . S
C664 C665 1.391 . S
C665 H653 0.950 . S
C665 C661 1.393 . S
C665 C664 1.391 . S
C666 H656 0.950 . S
C666 C667 1.386 . S
C666 C668 1.391 . S
C667 C666 1.386 . S
C667 C671 1.393 . S
C668 H657 0.950 . S
C668 C666 1.391 . S
C668 C669 1.400 . S
C669 C663 1.491 1_655 S
C669 C668 1.400 . S
C669 C670 1.398 . S
C670 H658 0.950 . S
C670 C669 1.398 . S
C670 C671 1.391 . S
C671 H659 0.950 . S
C671 C667 1.393 . S
C671 C670 1.391 . S
H672 C680 0.950 . S
H673 C685 0.950 . S
H674 C682 0.950 . S
H675 C684 0.950 . S
H676 C686 0.950 1_554 S
H677 C688 0.950 . S
H678 C690 0.950 . S
H679 C691 0.950 . S
C680 H672 0.950 . S
C680 C681 1.386 . S
C680 C682 1.391 . S
C681 C680 1.386 . S
C681 C685 1.393 . S
C682 H674 0.950 . S
C682 C680 1.391 . S
C682 C683 1.400 . S
C683 C682 1.400 . S
C683 C684 1.398 . S
C683 C689 1.491 . S
C684 H675 0.950 . S
C684 C683 1.398 . S
C684 C685 1.391 . S
C685 H673 0.950 . S
C685 C681 1.393 . S
C685 C684 1.391 . S
C686 H676 0.950 1_556 S
C686 C687 1.386 . S
C686 C688 1.391 . S
C687 C686 1.386 . S
C687 C691 1.393 . S
C688 H677 0.950 . S
C688 C686 1.391 . S
C688 C689 1.400 . S
C689 C683 1.491 . S
C689 C688 1.400 . S
C689 C690 1.398 . S
C690 H678 0.950 . S
C690 C689 1.398 . S
C690 C691 1.391 . S
C691 H679 0.950 . S
C691 C687 1.393 . S
C691 C690 1.391 . S
H692 C700 0.950 . S
H693 C705 0.950 . S
H694 C702 0.950 . S
H695 C704 0.950 . S
H696 C706 0.950 . S
H697 C708 0.950 . S
H698 C710 0.950 . S
H699 C711 0.950 . S
C700 H692 0.950 . S
C700 C701 1.386 . S
C700 C702 1.391 . S
C701 C700 1.386 . S
C701 C705 1.393 . S
C702 H694 0.950 . S
C702 C700 1.391 . S
C702 C703 1.400 . S
C703 C702 1.400 . S
C703 C704 1.398 . S
C703 C709 1.491 . S
C704 H695 0.950 . S
C704 C703 1.398 . S
C704 C705 1.391 . S
C705 H693 0.950 . S
C705 C701 1.393 . S
C705 C704 1.391 . S
C706 H696 0.950 . S
C706 C707 1.386 . S
C706 C708 1.391 . S
C707 C706 1.386 . S
C707 C711 1.393 . S
C708 H697 0.950 . S
C708 C706 1.391 . S
C708 C709 1.400 . S
C709 C703 1.491 . S
C709 C708 1.400 . S
C709 C710 1.398 . S
C710 H698 0.950 . S
C710 C709 1.398 . S
C710 C711 1.391 . S
C711 H699 0.950 . S
C711 C707 1.393 . S
C711 C710 1.391 . S
H712 C720 0.950 . S
H713 C725 0.950 . S
H714 C722 0.950 . S
H715 C724 0.950 . S
H716 C726 0.950 . S
H717 C728 0.950 . S
H718 C730 0.950 . S
H719 C731 0.950 . S
C720 H712 0.950 . S
C720 C721 1.386 . S
C720 C722 1.391 . S
C721 C720 1.386 . S
C721 C725 1.393 . S
C722 H714 0.950 . S
C722 C720 1.391 . S
C722 C723 1.400 . S
C723 C722 1.400 . S
C723 C724 1.398 . S
C723 C729 1.491 . S
C724 H715 0.950 . S
C724 C723 1.398 . S
C724 C725 1.391 . S
C725 H713 0.950 . S
C725 C721 1.393 . S
C725 C724 1.391 . S
C726 H716 0.950 . S
C726 C727 1.386 . S
C726 C728 1.391 . S
C727 C726 1.386 . S
C727 C731 1.393 . S
C728 H717 0.950 . S
C728 C726 1.391 . S
C728 C729 1.400 . S
C729 C723 1.491 . S
C729 C728 1.400 . S
C729 C730 1.398 . S
C730 H718 0.950 . S
C730 C729 1.398 . S
C730 C731 1.391 . S
C731 H719 0.950 . S
C731 C727 1.393 . S
C731 C730 1.391 . S
H732 C740 0.950 . S
H733 C745 0.950 . S
H734 C742 0.950 . S
H735 C744 0.950 . S
H736 C746 0.950 . S
H737 C748 0.950 . S
H738 C750 0.950 . S
H739 C751 0.950 . S
C740 H732 0.950 . S
C740 C741 1.386 . S
C740 C742 1.391 . S
C741 C740 1.386 . S
C741 C745 1.393 . S
C742 H734 0.950 . S
C742 C740 1.391 . S
C742 C743 1.400 . S
C743 C742 1.400 . S
C743 C744 1.398 . S
C743 C749 1.491 . S
C744 H735 0.950 . S
C744 C743 1.398 . S
C744 C745 1.391 . S
C745 H733 0.950 . S
C745 C741 1.393 . S
C745 C744 1.391 . S
C746 H736 0.950 . S
C746 C747 1.386 . S
C746 C748 1.391 . S
C747 C746 1.386 . S
C747 C751 1.393 . S
C748 H737 0.950 . S
C748 C746 1.391 . S
C748 C749 1.400 . S
C749 C743 1.491 . S
C749 C748 1.400 . S
C749 C750 1.398 . S
C750 H738 0.950 . S
C750 C749 1.398 . S
C750 C751 1.391 . S
C751 H739 0.950 . S
C751 C747 1.393 . S
C751 C750 1.391 . S
H752 C760 0.950 . S
H753 C765 0.950 . S
H754 C762 0.950 . S
H755 C764 0.950 . S
H756 C766 0.950 . S
H757 C768 0.950 . S
H758 C770 0.950 . S
H759 C771 0.950 . S
C760 H752 0.950 . S
C760 C761 1.386 . S
C760 C762 1.391 . S
C761 C760 1.386 . S
C761 C765 1.393 . S
C762 H754 0.950 . S
C762 C760 1.391 . S
C762 C763 1.400 . S
C763 C762 1.400 . S
C763 C764 1.398 . S
C763 C769 1.491 . S
C764 H755 0.950 . S
C764 C763 1.398 . S
C764 C765 1.391 . S
C765 H753 0.950 . S
C765 C761 1.393 . S
C765 C764 1.391 . S
C766 H756 0.950 . S
C766 C767 1.386 . S
C766 C768 1.391 . S
C767 C766 1.386 . S
C767 C771 1.393 . S
C768 H757 0.950 . S
C768 C766 1.391 . S
C768 C769 1.400 . S
C769 C763 1.491 . S
C769 C768 1.400 . S
C769 C770 1.398 . S
C770 H758 0.950 . S
C770 C769 1.398 . S
C770 C771 1.391 . S
C771 H759 0.950 . S
C771 C767 1.393 . S
C771 C770 1.391 . S
H772 C780 0.950 . S
H773 C785 0.950 . S
H774 C782 0.950 . S
H775 C784 0.950 . S
H776 C786 0.950 . S
H777 C788 0.950 . S
H778 C790 0.950 . S
H779 C791 0.950 . S
C780 H772 0.950 . S
C780 C781 1.386 . S
C780 C782 1.391 . S
C781 C780 1.386 . S
C781 C785 1.393 . S
C782 H774 0.950 . S
C782 C780 1.391 . S
C782 C783 1.400 . S
C783 C782 1.400 . S
C783 C784 1.398 . S
C783 C789 1.491 . S
C784 H775 0.950 . S
C784 C783 1.398 . S
C784 C785 1.391 . S
C785 H773 0.950 . S
C785 C781 1.393 . S
C785 C784 1.391 . S
C786 H776 0.950 . S
C786 C787 1.386 . S
C786 C788 1.391 . S
C787 C786 1.386 . S
C787 C791 1.393 . S
C788 H777 0.950 . S
C788 C786 1.391 . S
C788 C789 1.400 . S
C789 C783 1.491 . S
C789 C788 1.400 . S
C789 C790 1.398 . S
C790 H778 0.950 . S
C790 C789 1.398 . S
C790 C791 1.391 . S
C791 H779 0.950 . S
C791 C787 1.393 . S
C791 C790 1.391 . S
H792 C800 0.950 . S
H793 C805 0.950 . S
H794 C802 0.950 . S
H795 C804 0.950 . S
H796 C806 0.950 . S
H797 C808 0.950 . S
H798 C810 0.950 . S
H799 C811 0.950 . S
C800 H792 0.950 . S
C800 C801 1.386 . S
C800 C802 1.391 . S
C801 C800 1.386 . S
C801 C805 1.393 . S
C802 H794 0.950 . S
C802 C800 1.391 . S
C802 C803 1.400 . S
C803 C802 1.400 . S
C803 C804 1.398 . S
C803 C809 1.491 . S
C804 H795 0.950 . S
C804 C803 1.398 . S
C804 C805 1.391 . S
C805 H793 0.950 . S
C805 C801 1.393 . S
C805 C804 1.391 . S
C806 H796 0.950 . S
C806 C807 1.386 . S
C806 C808 1.391 . S
C807 C806 1.386 . S
C807 C811 1.393 . S
C808 H797 0.950 . S
C808 C806 1.391 . S
C808 C809 1.400 . S
C809 C803 1.491 . S
C809 C808 1.400 . S
C809 C810 1.398 . S
C810 H798 0.950 . S
C810 C809 1.398 . S
C810 C811 1.391 . S
C811 H799 0.950 . S
C811 C807 1.393 . S
C811 C810 1.391 . S
H812 C820 0.950 . S
H813 C825 0.950 . S
H814 C822 0.950 . S
H815 C824 0.950 . S
H816 C826 0.950 . S
H817 C828 0.950 . S
H818 C830 0.950 . S
H819 C831 0.950 . S
C820 H812 0.950 . S
C820 C821 1.386 . S
C820 C822 1.391 . S
C821 C820 1.386 . S
C821 C825 1.393 . S
C822 H814 0.950 . S
C822 C820 1.391 . S
C822 C823 1.400 . S
C823 C822 1.400 . S
C823 C824 1.398 . S
C823 C829 1.491 . S
C824 H815 0.950 . S
C824 C823 1.398 . S
C824 C825 1.391 . S
C825 H813 0.950 . S
C825 C821 1.393 . S
C825 C824 1.391 . S
C826 H816 0.950 . S
C826 C827 1.386 . S
C826 C828 1.391 . S
C827 C826 1.386 . S
C827 C831 1.393 . S
C828 H817 0.950 . S
C828 C826 1.391 . S
C828 C829 1.400 . S
C829 C823 1.491 . S
C829 C828 1.400 . S
C829 C830 1.398 . S
C830 H818 0.950 . S
C830 C829 1.398 . S
C830 C831 1.391 . S
C831 H819 0.950 . S
C831 C827 1.393 . S
C831 C830 1.391 . S
H832 C840 0.950 . S
H833 C845 0.950 . S
H834 C842 0.950 . S
H835 C844 0.950 . S
H836 C846 0.950 . S
H837 C848 0.950 . S
H838 C850 0.950 . S
H839 C851 0.950 . S
C840 H832 0.950 . S
C840 C841 1.386 . S
C840 C842 1.391 . S
C841 C840 1.386 . S
C841 C845 1.393 . S
C842 H834 0.950 . S
C842 C840 1.391 . S
C842 C843 1.400 . S
C843 C842 1.400 . S
C843 C844 1.398 . S
C843 C849 1.491 . S
C844 H835 0.950 . S
C844 C843 1.398 . S
C844 C845 1.391 . S
C845 H833 0.950 . S
C845 C841 1.393 . S
C845 C844 1.391 . S
C846 H836 0.950 . S
C846 C847 1.386 . S
C846 C848 1.391 . S
C847 C846 1.386 . S
C847 C851 1.393 . S
C848 H837 0.950 . S
C848 C846 1.391 . S
C848 C849 1.400 . S
C849 C843 1.491 . S
C849 C848 1.400 . S
C849 C850 1.398 . S
C850 H838 0.950 . S
C850 C849 1.398 . S
C850 C851 1.391 . S
C851 H839 0.950 . S
C851 C847 1.393 . S
C851 C850 1.391 . S
H852 C860 0.950 . S
H853 C865 0.950 . S
H854 C862 0.950 . S
H855 C864 0.950 . S
H856 C866 0.950 . S
H857 C868 0.950 . S
H858 C870 0.950 . S
H859 C871 0.950 . S
C860 H852 0.950 . S
C860 C861 1.386 . S
C860 C862 1.391 . S
C861 C860 1.386 . S
C861 C865 1.393 . S
C862 H854 0.950 . S
C862 C860 1.391 . S
C862 C863 1.400 . S
C863 C862 1.400 . S
C863 C864 1.398 . S
C863 C869 1.491 . S
C864 H855 0.950 . S
C864 C863 1.398 . S
C864 C865 1.391 . S
C865 H853 0.950 . S
C865 C861 1.393 . S
C865 C864 1.391 . S
C866 H856 0.950 . S
C866 C867 1.386 . S
C866 C868 1.391 . S
C867 C866 1.386 . S
C867 C871 1.393 . S
C868 H857 0.950 . S
C868 C866 1.391 . S
C868 C869 1.400 . S
C869 C863 1.491 . S
C869 C868 1.400 . S
C869 C870 1.398 . S
C870 H858 0.950 . S
C870 C869 1.398 . S
C870 C871 1.391 . S
C871 H859 0.950 . S
C871 C867 1.393 . S
C871 C870 1.391 . S
H872 C880 0.950 1_554 S
H873 C885 0.950 . S
H874 C882 0.950 . S
H875 C884 0.950 . S
H876 C886 0.950 . S
H877 C888 0.950 . S
H878 C890 0.950 . S
H879 C891 0.950 . S
C880 H872 0.950 1_556 S
C880 C881 1.386 . S
C880 C882 1.391 . S
C881 C880 1.386 . S
C881 C885 1.393 . S
C882 H874 0.950 . S
C882 C880 1.391 . S
C882 C883 1.400 . S
C883 C882 1.400 . S
C883 C884 1.398 . S
C883 C889 1.491 . S
C884 H875 0.950 . S
C884 C883 1.398 . S
C884 C885 1.391 . S
C885 H873 0.950 . S
C885 C881 1.393 . S
C885 C884 1.391 . S
C886 H876 0.950 . S
C886 C887 1.386 . S
C886 C888 1.391 . S
C887 C886 1.386 . S
C887 C891 1.393 . S
C888 H877 0.950 . S
C888 C886 1.391 . S
C888 C889 1.400 . S
C889 C883 1.491 . S
C889 C888 1.400 . S
C889 C890 1.398 . S
C890 H878 0.950 . S
C890 C889 1.398 . S
C890 C891 1.391 . S
C891 H879 0.950 . S
C891 C887 1.393 . S
C891 C890 1.391 . S
H892 C900 0.950 . S
H893 C905 0.950 . S
H894 C902 0.950 . S
H895 C904 0.950 . S
H896 C906 0.950 . S
H897 C908 0.950 . S
H898 C910 0.950 . S
H899 C911 0.950 . S
C900 H892 0.950 . S
C900 C901 1.386 . S
C900 C902 1.391 . S
C901 C900 1.386 . S
C901 C905 1.393 . S
C902 H894 0.950 . S
C902 C900 1.391 . S
C902 C903 1.400 . S
C903 C902 1.400 . S
C903 C904 1.398 . S
C903 C909 1.491 . S
C904 H895 0.950 . S
C904 C903 1.398 . S
C904 C905 1.391 . S
C905 H893 0.950 . S
C905 C901 1.393 . S
C905 C904 1.391 . S
C906 H896 0.950 . S
C906 C907 1.386 . S
C906 C908 1.391 . S
C907 C906 1.386 . S
C907 C911 1.393 . S
C908 H897 0.950 . S
C908 C906 1.391 . S
C908 C909 1.400 . S
C909 C903 1.491 . S
C909 C908 1.400 . S
C909 C910 1.398 . S
C910 H898 0.950 . S
C910 C909 1.398 . S
C910 C911 1.391 . S
C911 H899 0.950 . S
C911 C907 1.393 . S
C911 C910 1.391 . S
H912 C920 0.950 . S
H913 C925 0.950 . S
H914 C922 0.950 . S
H915 C924 0.950 . S
H916 C926 0.950 . S
H917 C928 0.950 . S
H918 C930 0.950 . S
H919 C931 0.950 . S
C920 H912 0.950 . S
C920 C921 1.386 . S
C920 C922 1.391 . S
C921 C920 1.386 . S
C921 C925 1.393 . S
C922 H914 0.950 . S
C922 C920 1.391 . S
C922 C923 1.400 . S
C923 C922 1.400 . S
C923 C924 1.398 . S
C923 C929 1.491 . S
C924 H915 0.950 . S
C924 C923 1.398 . S
C924 C925 1.391 . S
C925 H913 0.950 . S
C925 C921 1.393 . S
C925 C924 1.391 . S
C926 H916 0.950 . S
C926 C927 1.386 . S
C926 C928 1.391 . S
C927 C926 1.386 . S
C927 C931 1.393 . S
C928 H917 0.950 . S
C928 C926 1.391 . S
C928 C929 1.400 . S
C929 C923 1.491 . S
C929 C928 1.400 . S
C929 C930 1.398 . S
C930 H918 0.950 . S
C930 C929 1.398 . S
C930 C931 1.391 . S
C931 H919 0.950 . S
C931 C927 1.393 . S
C931 C930 1.391 . S
H932 C940 0.950 . S
H933 C945 0.950 . S
H934 C942 0.950 . S
H935 C944 0.950 . S
H936 C946 0.950 . S
H937 C948 0.950 . S
H938 C950 0.950 . S
H939 C951 0.950 . S
C940 H932 0.950 . S
C940 C941 1.386 . S
C940 C942 1.391 . S
C941 C940 1.386 . S
C941 C945 1.393 . S
C942 H934 0.950 . S
C942 C940 1.391 . S
C942 C943 1.400 . S
C943 C942 1.400 . S
C943 C944 1.398 . S
C943 C949 1.491 . S
C944 H935 0.950 . S
C944 C943 1.398 . S
C944 C945 1.391 . S
C945 H933 0.950 . S
C945 C941 1.393 . S
C945 C944 1.391 . S
C946 H936 0.950 . S
C946 C947 1.386 . S
C946 C948 1.391 . S
C947 C946 1.386 . S
C947 C951 1.393 . S
C948 H937 0.950 . S
C948 C946 1.391 . S
C948 C949 1.400 . S
C949 C943 1.491 . S
C949 C948 1.400 . S
C949 C950 1.398 . S
C950 H938 0.950 . S
C950 C949 1.398 . S
C950 C951 1.391 . S
C951 H939 0.950 . S
C951 C947 1.393 . S
C951 C950 1.391 . S
H952 C960 0.950 . S
H953 C965 0.950 . S
H954 C962 0.950 . S
H955 C964 0.950 . S
H956 C966 0.949 . S
H957 C968 0.950 . S
H958 C970 0.950 . S
H959 C971 0.950 . S
C960 H952 0.950 . S
C960 C961 1.386 . S
C960 C962 1.391 . S
C961 C960 1.386 . S
C961 C965 1.393 . S
C962 H954 0.950 . S
C962 C960 1.391 . S
C962 C963 1.400 . S
C963 C962 1.400 . S
C963 C964 1.398 . S
C963 C969 1.491 . S
C964 H955 0.950 . S
C964 C963 1.398 . S
C964 C965 1.391 . S
C965 H953 0.950 . S
C965 C961 1.393 . S
C965 C964 1.391 . S
C966 H956 0.949 . S
C966 C967 1.386 1_556 S
C966 C968 1.392 1_556 S
C967 C966 1.386 1_554 S
C967 C971 1.393 . S
C968 H957 0.950 . S
C968 C966 1.392 1_554 S
C968 C969 1.400 . S
C969 C963 1.491 . S
C969 C968 1.400 . S
C969 C970 1.398 . S
C970 H958 0.950 . S
C970 C969 1.398 . S
C970 C971 1.391 . S
C971 H959 0.950 . S
C971 C967 1.393 . S
C971 C970 1.391 . S
H972 C980 0.950 . S
H973 C985 0.950 . S
H974 C982 0.950 . S
H975 C984 0.950 . S
H976 C986 0.950 . S
H977 C988 0.950 . S
H978 C990 0.950 . S
H979 C991 0.950 . S
C980 H972 0.950 . S
C980 C981 1.386 . S
C980 C982 1.391 . S
C981 C980 1.386 . S
C981 C985 1.393 . S
C982 H974 0.950 . S
C982 C980 1.391 . S
C982 C983 1.400 . S
C983 C982 1.400 . S
C983 C984 1.398 . S
C983 C989 1.491 . S
C984 H975 0.950 . S
C984 C983 1.398 . S
C984 C985 1.391 . S
C985 H973 0.950 . S
C985 C981 1.393 . S
C985 C984 1.391 . S
C986 H976 0.950 . S
C986 C987 1.386 . S
C986 C988 1.391 . S
C987 C986 1.386 . S
C987 C991 1.393 . S
C988 H977 0.950 . S
C988 C986 1.391 . S
C988 C989 1.400 . S
C989 C983 1.491 . S
C989 C988 1.400 . S
C989 C990 1.398 . S
C990 H978 0.950 . S
C990 C989 1.398 . S
C990 C991 1.391 . S
C991 H979 0.950 . S
C991 C987 1.393 . S
C991 C990 1.391 . S
H992 C1000 0.950 . S
H993 C1005 0.950 . S
H994 C1002 0.950 . S
H995 C1004 0.950 . S
H996 C1006 0.950 . S
H997 C1008 0.950 . S
H998 C1010 0.950 . S
H999 C1011 0.950 . S
C1000 H992 0.950 . S
C1000 C1001 1.386 . S
C1000 C1002 1.391 . S
C1001 C1000 1.386 . S
C1001 C1005 1.393 . S
C1002 H994 0.950 . S
C1002 C1000 1.391 . S
C1002 C1003 1.400 . S
C1003 C1002 1.400 . S
C1003 C1004 1.398 . S
C1003 C1009 1.491 . S
C1004 H995 0.950 . S
C1004 C1003 1.398 . S
C1004 C1005 1.391 . S
C1005 H993 0.950 . S
C1005 C1001 1.393 . S
C1005 C1004 1.391 . S
C1006 H996 0.950 . S
C1006 C1007 1.386 . S
C1006 C1008 1.391 . S
C1007 C1006 1.386 . S
C1007 C1011 1.393 . S
C1008 H997 0.950 . S
C1008 C1006 1.391 . S
C1008 C1009 1.400 . S
C1009 C1003 1.491 . S
C1009 C1008 1.400 . S
C1009 C1010 1.398 . S
C1010 H998 0.950 . S
C1010 C1009 1.398 . S
C1010 C1011 1.391 . S
C1011 H999 0.950 . S
C1011 C1007 1.393 . S
C1011 C1010 1.391 . S
H1012 C1020 0.950 . S
H1013 C1025 0.950 . S
H1014 C1022 0.950 . S
H1015 C1024 0.950 . S
H1016 C1026 0.950 . S
H1017 C1028 0.950 . S
H1018 C1030 0.950 . S
H1019 C1031 0.950 . S
C1020 H1012 0.950 . S
C1020 C1021 1.386 . S
C1020 C1022 1.391 . S
C1021 C1020 1.386 . S
C1021 C1025 1.393 . S
C1022 H1014 0.950 . S
C1022 C1020 1.391 . S
C1022 C1023 1.400 . S
C1023 C1022 1.400 . S
C1023 C1024 1.398 . S
C1023 C1029 1.491 . S
C1024 H1015 0.950 . S
C1024 C1023 1.398 . S
C1024 C1025 1.391 . S
C1025 H1013 0.950 . S
C1025 C1021 1.393 . S
C1025 C1024 1.391 . S
C1026 H1016 0.950 . S
C1026 C1027 1.386 . S
C1026 C1028 1.391 . S
C1027 C1026 1.386 . S
C1027 C1031 1.393 . S
C1028 H1017 0.950 . S
C1028 C1026 1.391 . S
C1028 C1029 1.400 . S
C1029 C1023 1.491 . S
C1029 C1028 1.400 . S
C1029 C1030 1.398 . S
C1030 H1018 0.950 . S
C1030 C1029 1.398 . S
C1030 C1031 1.391 . S
C1031 H1019 0.950 . S
C1031 C1027 1.393 . S
C1031 C1030 1.391 . S
H1032 C1040 0.950 . S
H1033 C1045 0.950 . S
H1034 C1042 0.950 . S
H1035 C1044 0.950 . S
H1036 C1046 0.950 . S
H1037 C1048 0.950 . S
H1038 C1050 0.950 . S
H1039 C1051 0.950 . S
C1040 H1032 0.950 . S
C1040 C1041 1.386 1_655 S
C1040 C1042 1.391 1_655 S
C1041 C1040 1.386 1_455 S
C1041 C1045 1.393 . S
C1042 H1034 0.950 . S
C1042 C1040 1.391 1_455 S
C1042 C1043 1.400 . S
C1043 C1042 1.400 . S
C1043 C1044 1.398 . S
C1043 C1049 1.491 . S
C1044 H1035 0.950 . S
C1044 C1043 1.398 . S
C1044 C1045 1.391 . S
C1045 H1033 0.950 . S
C1045 C1041 1.393 . S
C1045 C1044 1.391 . S
C1046 H1036 0.950 . S
C1046 C1047 1.386 . S
C1046 C1048 1.391 . S
C1047 C1046 1.386 . S
C1047 C1051 1.393 . S
C1048 H1037 0.950 . S
C1048 C1046 1.391 . S
C1048 C1049 1.400 . S
C1049 C1043 1.491 . S
C1049 C1048 1.400 . S
C1049 C1050 1.398 . S
C1050 H1038 0.950 . S
C1050 C1049 1.398 . S
C1050 C1051 1.391 . S
C1051 H1039 0.950 . S
C1051 C1047 1.393 . S
C1051 C1050 1.391 . S
H1052 C1060 0.950 . S
H1053 C1065 0.950 . S
H1054 C1062 0.950 . S
H1055 C1064 0.950 . S
H1056 C1066 0.950 . S
H1057 C1068 0.950 . S
H1058 C1070 0.950 . S
H1059 C1071 0.950 . S
C1060 H1052 0.950 . S
C1060 C1061 1.386 . S
C1060 C1062 1.391 . S
C1061 C1060 1.386 . S
C1061 C1065 1.393 . S
C1062 H1054 0.950 . S
C1062 C1060 1.391 . S
C1062 C1063 1.400 . S
C1063 C1062 1.400 . S
C1063 C1064 1.398 . S
C1063 C1069 1.491 . S
C1064 H1055 0.950 . S
C1064 C1063 1.398 . S
C1064 C1065 1.391 . S
C1065 H1053 0.950 . S
C1065 C1061 1.393 . S
C1065 C1064 1.391 . S
C1066 H1056 0.950 . S
C1066 C1067 1.386 . S
C1066 C1068 1.391 . S
C1067 C1066 1.386 . S
C1067 C1071 1.393 . S
C1068 H1057 0.950 . S
C1068 C1066 1.391 . S
C1068 C1069 1.400 . S
C1069 C1063 1.491 . S
C1069 C1068 1.400 . S
C1069 C1070 1.398 . S
C1070 H1058 0.950 . S
C1070 C1069 1.398 . S
C1070 C1071 1.391 . S
C1071 H1059 0.950 . S
C1071 C1067 1.393 . S
C1071 C1070 1.391 . S
H1072 C1080 0.950 . S
H1073 C1085 0.950 . S
H1074 C1082 0.950 . S
H1075 C1084 0.950 . S
H1076 C1086 0.950 . S
H1077 C1088 0.950 . S
H1078 C1090 0.950 . S
H1079 C1091 0.950 . S
C1080 H1072 0.950 . S
C1080 C1081 1.386 . S
C1080 C1082 1.391 . S
C1081 C1080 1.386 . S
C1081 C1085 1.393 . S
C1082 H1074 0.950 . S
C1082 C1080 1.391 . S
C1082 C1083 1.400 . S
C1083 C1082 1.400 . S
C1083 C1084 1.398 . S
C1083 C1089 1.491 . S
C1084 H1075 0.950 . S
C1084 C1083 1.398 . S
C1084 C1085 1.391 . S
C1085 H1073 0.950 . S
C1085 C1081 1.393 . S
C1085 C1084 1.391 . S
C1086 H1076 0.950 . S
C1086 C1087 1.386 . S
C1086 C1088 1.391 . S
C1087 C1086 1.386 . S
C1087 C1091 1.393 . S
C1088 H1077 0.950 . S
C1088 C1086 1.391 . S
C1088 C1089 1.400 . S
C1089 C1083 1.491 . S
C1089 C1088 1.400 . S
C1089 C1090 1.398 . S
C1090 H1078 0.950 . S
C1090 C1089 1.398 . S
C1090 C1091 1.391 . S
C1091 H1079 0.950 . S
C1091 C1087 1.393 . S
C1091 C1090 1.391 . S
H1092 C1100 0.950 . S
H1093 C1105 0.950 . S
H1094 C1102 0.950 . S
H1095 C1104 0.950 . S
H1096 C1106 0.950 . S
H1097 C1108 0.950 . S
H1098 C1110 0.950 . S
H1099 C1111 0.950 . S
C1100 H1092 0.950 . S
C1100 C1101 1.386 . S
C1100 C1102 1.391 . S
C1101 C1100 1.386 . S
C1101 C1105 1.393 . S
C1102 H1094 0.950 . S
C1102 C1100 1.391 . S
C1102 C1103 1.400 . S
C1103 C1102 1.400 . S
C1103 C1104 1.398 . S
C1103 C1109 1.491 . S
C1104 H1095 0.950 . S
C1104 C1103 1.398 . S
C1104 C1105 1.391 . S
C1105 H1093 0.950 . S
C1105 C1101 1.393 . S
C1105 C1104 1.391 . S
C1106 H1096 0.950 . S
C1106 C1107 1.386 . S
C1106 C1108 1.391 . S
C1107 C1106 1.386 . S
C1107 C1111 1.393 . S
C1108 H1097 0.950 . S
C1108 C1106 1.391 . S
C1108 C1109 1.400 . S
C1109 C1103 1.491 . S
C1109 C1108 1.400 . S
C1109 C1110 1.398 . S
C1110 H1098 0.950 . S
C1110 C1109 1.398 . S
C1110 C1111 1.391 . S
C1111 H1099 0.950 . S
C1111 C1107 1.393 . S
C1111 C1110 1.391 . S
H1112 C1120 0.950 . S
H1113 C1125 0.932 1_455 S
H1114 C1122 0.950 . S
H1115 C1124 0.950 . S
H1116 C1126 0.950 . S
H1117 C1128 0.950 . S
H1118 C1130 0.950 . S
H1119 C1131 0.950 . S
C1120 H1112 0.950 . S
C1120 C1121 1.412 . S
C1120 C1122 1.391 . S
C1121 C1120 1.412 . S
C1121 C1125 1.393 . S
C1122 H1114 0.950 . S
C1122 C1120 1.391 . S
C1122 C1123 1.400 . S
C1123 C1122 1.400 . S
C1123 C1124 1.398 . S
C1123 C1129 1.491 . S
C1124 H1115 0.950 . S
C1124 C1123 1.398 . S
C1124 C1125 1.408 . S
C1125 H1113 0.932 1_655 S
C1125 C1121 1.393 . S
C1125 C1124 1.408 . S
C1126 H1116 0.950 . S
C1126 C1127 1.386 . S
C1126 C1128 1.391 . S
C1127 C1126 1.386 . S
C1127 C1131 1.393 . S
C1128 H1117 0.950 . S
C1128 C1126 1.391 . S
C1128 C1129 1.400 . S
C1129 C1123 1.491 . S
C1129 C1128 1.400 . S
C1129 C1130 1.398 . S
C1130 H1118 0.950 . S
C1130 C1129 1.398 . S
C1130 C1131 1.391 . S
C1131 H1119 0.950 . S
C1131 C1127 1.393 . S
C1131 C1130 1.391 . S
H1132 C1140 0.950 . S
H1133 C1145 0.950 . S
H1134 C1142 0.950 . S
H1135 C1144 0.950 . S
H1136 C1146 0.950 . S
H1137 C1148 0.950 . S
H1138 C1150 0.950 . S
H1139 C1151 0.950 . S
C1140 H1132 0.950 . S
C1140 C1141 1.386 . S
C1140 C1142 1.391 . S
C1141 C1140 1.386 . S
C1141 C1145 1.393 . S
C1142 H1134 0.950 . S
C1142 C1140 1.391 . S
C1142 C1143 1.400 . S
C1143 C1142 1.400 . S
C1143 C1144 1.398 . S
C1143 C1149 1.491 . S
C1144 H1135 0.950 . S
C1144 C1143 1.398 . S
C1144 C1145 1.391 . S
C1145 H1133 0.950 . S
C1145 C1141 1.393 . S
C1145 C1144 1.391 . S
C1146 H1136 0.950 . S
C1146 C1147 1.386 . S
C1146 C1148 1.391 . S
C1147 C1146 1.386 . S
C1147 C1151 1.393 . S
C1148 H1137 0.950 . S
C1148 C1146 1.391 . S
C1148 C1149 1.400 . S
C1149 C1143 1.491 . S
C1149 C1148 1.400 . S
C1149 C1150 1.398 . S
C1150 H1138 0.950 . S
C1150 C1149 1.398 . S
C1150 C1151 1.391 . S
C1151 H1139 0.950 . S
C1151 C1147 1.393 . S
C1151 C1150 1.391 . S
H1152 C1160 0.950 . S
H1153 C1165 0.950 . S
H1154 C1162 0.950 . S
H1155 C1164 0.950 . S
H1156 C1166 0.941 1_455 S
H1157 C1168 0.950 . S
H1158 C1170 0.950 . S
H1159 C1171 0.950 . S
C1160 H1152 0.950 . S
C1160 C1161 1.386 . S
C1160 C1162 1.391 . S
C1161 C1160 1.386 . S
C1161 C1165 1.393 . S
C1162 H1154 0.950 . S
C1162 C1160 1.391 . S
C1162 C1163 1.400 . S
C1163 C1162 1.400 . S
C1163 C1164 1.398 . S
C1163 C1169 1.491 . S
C1164 H1155 0.950 . S
C1164 C1163 1.398 . S
C1164 C1165 1.391 . S
C1165 H1153 0.950 . S
C1165 C1161 1.393 . S
C1165 C1164 1.391 . S
C1166 H1156 0.941 1_655 S
C1166 C1167 1.386 . S
C1166 C1168 1.391 . S
C1167 C1166 1.386 . S
C1167 C1171 1.393 . S
C1168 H1157 0.950 . S
C1168 C1166 1.391 . S
C1168 C1169 1.400 . S
C1169 C1163 1.491 . S
C1169 C1168 1.400 . S
C1169 C1170 1.398 . S
C1170 H1158 0.950 . S
C1170 C1169 1.398 . S
C1170 C1171 1.391 . S
C1171 H1159 0.950 . S
C1171 C1167 1.393 . S
C1171 C1170 1.391 . S
H1172 C1180 0.950 . S
H1173 C1185 0.950 . S
H1174 C1182 0.950 . S
H1175 C1184 0.950 . S
H1176 C1186 0.950 . S
H1177 C1188 0.950 . S
H1178 C1190 0.950 . S
H1179 C1191 0.950 . S
C1180 H1172 0.950 . S
C1180 C1181 1.386 . S
C1180 C1182 1.391 . S
C1181 C1180 1.386 . S
C1181 C1185 1.393 . S
C1182 H1174 0.950 . S
C1182 C1180 1.391 . S
C1182 C1183 1.400 . S
C1183 C1182 1.400 . S
C1183 C1184 1.398 . S
C1183 C1189 1.491 . S
C1184 H1175 0.950 . S
C1184 C1183 1.398 . S
C1184 C1185 1.391 . S
C1185 H1173 0.950 . S
C1185 C1181 1.393 . S
C1185 C1184 1.391 . S
C1186 H1176 0.950 . S
C1186 C1187 1.386 . S
C1186 C1188 1.391 . S
C1187 C1186 1.386 . S
C1187 C1191 1.393 . S
C1188 H1177 0.950 . S
C1188 C1186 1.391 . S
C1188 C1189 1.400 . S
C1189 C1183 1.491 . S
C1189 C1188 1.400 . S
C1189 C1190 1.398 . S
C1190 H1178 0.950 . S
C1190 C1189 1.398 . S
C1190 C1191 1.391 . S
C1191 H1179 0.950 . S
C1191 C1187 1.393 . S
C1191 C1190 1.391 . S
H1192 C1200 0.950 . S
H1193 C1205 0.950 . S
H1194 C1202 0.950 . S
H1195 C1204 0.950 . S
H1196 C1206 0.950 . S
H1197 C1208 0.950 . S
H1198 C1210 0.950 . S
H1199 C1211 0.950 . S
C1200 H1192 0.950 . S
C1200 C1201 1.386 . S
C1200 C1202 1.391 . S
C1201 C1200 1.386 . S
C1201 C1205 1.393 . S
C1202 H1194 0.950 . S
C1202 C1200 1.391 . S
C1202 C1203 1.400 . S
C1203 C1202 1.400 . S
C1203 C1204 1.398 . S
C1203 C1209 1.491 . S
C1204 H1195 0.950 . S
C1204 C1203 1.398 . S
C1204 C1205 1.391 . S
C1205 H1193 0.950 . S
C1205 C1201 1.393 . S
C1205 C1204 1.391 . S
C1206 H1196 0.950 . S
C1206 C1207 1.386 . S
C1206 C1208 1.391 . S
C1207 C1206 1.386 . S
C1207 C1211 1.393 . S
C1208 H1197 0.950 . S
C1208 C1206 1.391 . S
C1208 C1209 1.400 . S
C1209 C1203 1.491 . S
C1209 C1208 1.400 . S
C1209 C1210 1.398 . S
C1210 H1198 0.950 . S
C1210 C1209 1.398 . S
C1210 C1211 1.391 . S
C1211 H1199 0.950 . S
C1211 C1207 1.393 . S
C1211 C1210 1.391 . S
H1212 C1220 0.950 . S
H1213 C1225 0.950 1_556 S
H1214 C1222 0.950 . S
H1215 C1224 0.950 . S
H1216 C1226 0.950 . S
H1217 C1228 0.950 . S
H1218 C1230 0.950 . S
H1219 C1231 0.950 . S
C1220 H1212 0.950 . S
C1220 C1221 1.386 . S
C1220 C1222 1.391 . S
C1221 C1220 1.386 . S
C1221 C1225 1.393 . S
C1222 H1214 0.950 . S
C1222 C1220 1.391 . S
C1222 C1223 1.400 . S
C1223 C1222 1.400 . S
C1223 C1224 1.398 . S
C1223 C1229 1.491 . S
C1224 H1215 0.950 . S
C1224 C1223 1.398 . S
C1224 C1225 1.391 . S
C1225 H1213 0.950 1_554 S
C1225 C1221 1.393 . S
C1225 C1224 1.391 . S
C1226 H1216 0.950 . S
C1226 C1227 1.386 . S
C1226 C1228 1.391 . S
C1227 C1226 1.386 . S
C1227 C1231 1.393 . S
C1228 H1217 0.950 . S
C1228 C1226 1.391 . S
C1228 C1229 1.400 . S
C1229 C1223 1.491 . S
C1229 C1228 1.400 . S
C1229 C1230 1.398 . S
C1230 H1218 0.950 . S
C1230 C1229 1.398 . S
C1230 C1231 1.391 . S
C1231 H1219 0.950 . S
C1231 C1227 1.393 . S
C1231 C1230 1.391 . S
H1232 C1240 0.950 . S
H1233 C1245 0.950 . S
H1234 C1242 0.950 . S
H1235 C1244 0.950 . S
H1236 C1246 0.950 . S
H1237 C1248 0.950 . S
H1238 C1250 0.950 . S
H1239 C1251 0.936 1_655 S
C1240 H1232 0.950 . S
C1240 C1241 1.386 . S
C1240 C1242 1.391 . S
C1241 C1240 1.386 . S
C1241 C1245 1.393 . S
C1242 H1234 0.950 . S
C1242 C1240 1.391 . S
C1242 C1243 1.400 . S
C1243 C1242 1.400 . S
C1243 C1244 1.398 . S
C1243 C1249 1.491 . S
C1244 H1235 0.950 . S
C1244 C1243 1.398 . S
C1244 C1245 1.391 . S
C1245 H1233 0.950 . S
C1245 C1241 1.393 . S
C1245 C1244 1.391 . S
C1246 H1236 0.950 . S
C1246 C1247 1.412 . S
C1246 C1248 1.391 . S
C1247 C1246 1.412 . S
C1247 C1251 1.393 . S
C1248 H1237 0.950 . S
C1248 C1246 1.391 . S
C1248 C1249 1.400 . S
C1249 C1243 1.491 . S
C1249 C1248 1.400 . S
C1249 C1250 1.398 . S
C1250 H1238 0.950 . S
C1250 C1249 1.398 . S
C1250 C1251 1.404 . S
C1251 H1239 0.936 1_455 S
C1251 C1247 1.393 . S
C1251 C1250 1.404 . S
H1252 C1260 0.950 . S
H1253 C1265 0.950 . S
H1254 C1262 0.950 . S
H1255 C1264 0.950 . S
H1256 C1266 0.950 . S
H1257 C1268 0.950 . S
H1258 C1270 0.950 . S
H1259 C1271 0.950 . S
C1260 H1252 0.950 . S
C1260 C1261 1.386 . S
C1260 C1262 1.391 . S
C1261 C1260 1.386 . S
C1261 C1265 1.393 . S
C1262 H1254 0.950 . S
C1262 C1260 1.391 . S
C1262 C1263 1.400 . S
C1263 C1262 1.400 . S
C1263 C1264 1.398 . S
C1263 C1269 1.491 . S
C1264 H1255 0.950 . S
C1264 C1263 1.398 . S
C1264 C1265 1.391 . S
C1265 H1253 0.950 . S
C1265 C1261 1.393 . S
C1265 C1264 1.391 . S
C1266 H1256 0.950 . S
C1266 C1267 1.386 . S
C1266 C1268 1.391 . S
C1267 C1266 1.386 . S
C1267 C1271 1.393 . S
C1268 H1257 0.950 . S
C1268 C1266 1.391 . S
C1268 C1269 1.400 . S
C1269 C1263 1.491 . S
C1269 C1268 1.400 . S
C1269 C1270 1.398 . S
C1270 H1258 0.950 . S
C1270 C1269 1.398 . S
C1270 C1271 1.391 . S
C1271 H1259 0.950 . S
C1271 C1267 1.393 . S
C1271 C1270 1.391 . S
H1272 C1280 0.950 . S
H1273 C1285 0.950 . S
H1274 C1282 0.950 . S
H1275 C1284 0.950 . S
H1276 C1286 0.950 . S
H1277 C1288 0.950 . S
H1278 C1290 0.950 . S
H1279 C1291 0.950 . S
C1280 H1272 0.950 . S
C1280 C1281 1.386 . S
C1280 C1282 1.391 . S
C1281 C1280 1.386 . S
C1281 C1285 1.393 . S
C1282 H1274 0.950 . S
C1282 C1280 1.391 . S
C1282 C1283 1.400 . S
C1283 C1282 1.400 . S
C1283 C1284 1.398 . S
C1283 C1289 1.491 . S
C1284 H1275 0.950 . S
C1284 C1283 1.398 . S
C1284 C1285 1.391 . S
C1285 H1273 0.950 . S
C1285 C1281 1.393 . S
C1285 C1284 1.391 . S
C1286 H1276 0.950 . S
C1286 C1287 1.386 . S
C1286 C1288 1.391 . S
C1287 C1286 1.386 . S
C1287 C1291 1.393 . S
C1288 H1277 0.950 . S
C1288 C1286 1.391 . S
C1288 C1289 1.400 . S
C1289 C1283 1.491 . S
C1289 C1288 1.400 . S
C1289 C1290 1.398 . S
C1290 H1278 0.950 . S
C1290 C1289 1.398 . S
C1290 C1291 1.391 . S
C1291 H1279 0.950 . S
C1291 C1287 1.393 . S
C1291 C1290 1.391 . S
H1292 C1300 0.950 1_554 S
H1293 C1305 0.950 . S
H1294 C1302 0.950 . S
H1295 C1304 0.950 . S
H1296 C1306 0.950 . S
H1297 C1308 0.950 . S
H1298 C1310 0.950 . S
H1299 C1311 0.950 . S
C1300 H1292 0.950 1_556 S
C1300 C1301 1.386 . S
C1300 C1302 1.391 . S
C1301 C1300 1.386 . S
C1301 C1305 1.393 . S
C1302 H1294 0.950 . S
C1302 C1300 1.391 . S
C1302 C1303 1.400 . S
C1303 C1302 1.400 . S
C1303 C1304 1.398 . S
C1303 C1309 1.491 . S
C1304 H1295 0.950 . S
C1304 C1303 1.398 . S
C1304 C1305 1.391 . S
C1305 H1293 0.950 . S
C1305 C1301 1.393 . S
C1305 C1304 1.391 . S
C1306 H1296 0.950 . S
C1306 C1307 1.386 . S
C1306 C1308 1.391 . S
C1307 C1306 1.386 . S
C1307 C1311 1.393 . S
C1308 H1297 0.950 . S
C1308 C1306 1.391 . S
C1308 C1309 1.400 . S
C1309 C1303 1.491 . S
C1309 C1308 1.400 . S
C1309 C1310 1.398 . S
C1310 H1298 0.950 . S
C1310 C1309 1.398 . S
C1310 C1311 1.391 . S
C1311 H1299 0.950 . S
C1311 C1307 1.393 . S
C1311 C1310 1.391 . S
H1312 C1320 0.950 . S
H1313 C1325 0.950 . S
H1314 C1322 0.950 . S
H1315 C1324 0.950 . S
H1316 C1326 0.950 . S
H1317 C1328 0.950 . S
H1318 C1330 0.950 . S
H1319 C1331 0.950 . S
C1320 H1312 0.950 . S
C1320 C1321 1.386 . S
C1320 C1322 1.391 . S
C1321 C1320 1.386 . S
C1321 C1325 1.393 . S
C1322 H1314 0.950 . S
C1322 C1320 1.391 . S
C1322 C1323 1.400 . S
C1323 C1322 1.400 . S
C1323 C1324 1.398 . S
C1323 C1329 1.491 . S
C1324 H1315 0.950 . S
C1324 C1323 1.398 . S
C1324 C1325 1.391 . S
C1325 H1313 0.950 . S
C1325 C1321 1.393 . S
C1325 C1324 1.391 . S
C1326 H1316 0.950 . S
C1326 C1327 1.386 . S
C1326 C1328 1.391 . S
C1327 C1326 1.386 . S
C1327 C1331 1.393 . S
C1328 H1317 0.950 . S
C1328 C1326 1.391 . S
C1328 C1329 1.400 . S
C1329 C1323 1.491 . S
C1329 C1328 1.400 . S
C1329 C1330 1.398 . S
C1330 H1318 0.950 . S
C1330 C1329 1.398 . S
C1330 C1331 1.391 . S
C1331 H1319 0.950 . S
C1331 C1327 1.393 . S
C1331 C1330 1.391 . S
H1332 C1340 0.950 . S
H1333 C1345 0.950 . S
H1334 C1342 0.950 . S
H1335 C1344 0.950 . S
H1336 C1346 0.950 . S
H1337 C1348 0.950 . S
H1338 C1350 0.950 . S
H1339 C1351 0.950 . S
C1340 H1332 0.950 . S
C1340 C1341 1.386 . S
C1340 C1342 1.391 . S
C1341 C1340 1.386 . S
C1341 C1345 1.393 . S
C1342 H1334 0.950 . S
C1342 C1340 1.391 . S
C1342 C1343 1.400 . S
C1343 C1342 1.400 . S
C1343 C1344 1.398 . S
C1343 C1349 1.491 . S
C1344 H1335 0.950 . S
C1344 C1343 1.398 . S
C1344 C1345 1.391 . S
C1345 H1333 0.950 . S
C1345 C1341 1.393 . S
C1345 C1344 1.391 . S
C1346 H1336 0.950 . S
C1346 C1347 1.386 . S
C1346 C1348 1.391 . S
C1347 C1346 1.386 . S
C1347 C1351 1.393 . S
C1348 H1337 0.950 . S
C1348 C1346 1.391 . S
C1348 C1349 1.400 . S
C1349 C1343 1.491 . S
C1349 C1348 1.400 . S
C1349 C1350 1.398 . S
C1350 H1338 0.950 . S
C1350 C1349 1.398 . S
C1350 C1351 1.391 . S
C1351 H1339 0.950 . S
C1351 C1347 1.393 . S
C1351 C1350 1.391 . S
H1352 C1360 0.950 . S
H1353 C1365 0.950 . S
H1354 C1362 0.950 . S
H1355 C1364 0.950 . S
H1356 C1366 0.950 . S
H1357 C1368 0.950 . S
H1358 C1370 0.950 . S
H1359 C1371 0.950 . S
C1360 H1352 0.950 . S
C1360 C1361 1.386 . S
C1360 C1362 1.391 . S
C1361 C1360 1.386 . S
C1361 C1365 1.393 . S
C1362 H1354 0.950 . S
C1362 C1360 1.391 . S
C1362 C1363 1.400 . S
C1363 C1362 1.400 . S
C1363 C1364 1.398 . S
C1363 C1369 1.491 . S
C1364 H1355 0.950 . S
C1364 C1363 1.398 . S
C1364 C1365 1.391 . S
C1365 H1353 0.950 . S
C1365 C1361 1.393 . S
C1365 C1364 1.391 . S
C1366 H1356 0.950 . S
C1366 C1367 1.386 . S
C1366 C1368 1.391 . S
C1367 C1366 1.386 . S
C1367 C1371 1.393 . S
C1368 H1357 0.950 . S
C1368 C1366 1.391 . S
C1368 C1369 1.400 . S
C1369 C1363 1.491 . S
C1369 C1368 1.400 . S
C1369 C1370 1.398 . S
C1370 H1358 0.950 . S
C1370 C1369 1.398 . S
C1370 C1371 1.391 . S
C1371 H1359 0.950 . S
C1371 C1367 1.393 . S
C1371 C1370 1.391 . S
H1372 C1380 0.950 1_655 S
H1373 C1385 0.950 . S
H1374 C1382 0.950 . S
H1375 C1384 0.950 . S
H1376 C1386 0.950 1_455 S
H1377 C1388 0.950 . S
H1378 C1390 0.950 . S
H1379 C1391 0.950 . S
C1380 H1372 0.950 1_455 S
C1380 C1381 1.386 . S
C1380 C1382 1.391 1_455 S
C1381 C1380 1.386 . S
C1381 C1385 1.393 . S
C1382 H1374 0.950 . S
C1382 C1380 1.391 1_655 S
C1382 C1383 1.400 1_655 S
C1383 C1382 1.400 1_455 S
C1383 C1384 1.398 . S
C1383 C1389 1.491 1_454 S
C1384 H1375 0.950 . S
C1384 C1383 1.398 . S
C1384 C1385 1.391 . S
C1385 H1373 0.950 . S
C1385 C1381 1.393 . S
C1385 C1384 1.391 . S
C1386 H1376 0.950 1_655 S
C1386 C1387 1.386 . S
C1386 C1388 1.391 1_655 S
C1387 C1386 1.386 . S
C1387 C1391 1.393 . S
C1388 H1377 0.950 . S
C1388 C1386 1.391 1_455 S
C1388 C1389 1.400 1_455 S
C1389 C1383 1.491 1_656 S
C1389 C1388 1.400 1_655 S
C1389 C1390 1.398 . S
C1390 H1378 0.950 . S
C1390 C1389 1.398 . S
C1390 C1391 1.391 . S
C1391 H1379 0.950 . S
C1391 C1387 1.393 . S
C1391 C1390 1.391 . S
H1392 C1400 0.950 . S
H1393 C1405 0.950 . S
H1394 C1402 0.950 . S
H1395 C1404 0.950 . S
H1396 C1406 0.950 . S
H1397 C1408 0.950 . S
H1398 C1410 0.950 . S
H1399 C1411 0.950 . S
C1400 H1392 0.950 . S
C1400 C1401 1.386 . S
C1400 C1402 1.391 . S
C1401 C1400 1.386 . S
C1401 C1405 1.393 . S
C1402 H1394 0.950 . S
C1402 C1400 1.391 . S
C1402 C1403 1.400 . S
C1403 C1402 1.400 . S
C1403 C1404 1.398 . S
C1403 C1409 1.491 . S
C1404 H1395 0.950 . S
C1404 C1403 1.398 . S
C1404 C1405 1.391 . S
C1405 H1393 0.950 . S
C1405 C1401 1.393 . S
C1405 C1404 1.391 . S
C1406 H1396 0.950 . S
C1406 C1407 1.386 . S
C1406 C1408 1.391 . S
C1407 C1406 1.386 . S
C1407 C1411 1.393 . S
C1408 H1397 0.950 . S
C1408 C1406 1.391 . S
C1408 C1409 1.400 . S
C1409 C1403 1.491 . S
C1409 C1408 1.400 . S
C1409 C1410 1.398 . S
C1410 H1398 0.950 . S
C1410 C1409 1.398 . S
C1410 C1411 1.391 . S
C1411 H1399 0.950 . S
C1411 C1407 1.393 . S
C1411 C1410 1.391 . S
H1412 C1420 0.950 . S
H1413 C1425 0.950 . S
H1414 C1422 0.950 . S
H1415 C1424 0.950 . S
H1416 C1426 0.950 . S
H1417 C1428 0.950 . S
H1418 C1430 0.950 . S
H1419 C1431 0.950 . S
C1420 H1412 0.950 . S
C1420 C1421 1.386 . S
C1420 C1422 1.391 . S
C1421 C1420 1.386 . S
C1421 C1425 1.393 . S
C1422 H1414 0.950 . S
C1422 C1420 1.391 . S
C1422 C1423 1.400 . S
C1423 C1422 1.400 . S
C1423 C1424 1.398 . S
C1423 C1429 1.491 . S
C1424 H1415 0.950 . S
C1424 C1423 1.398 . S
C1424 C1425 1.391 . S
C1425 H1413 0.950 . S
C1425 C1421 1.393 . S
C1425 C1424 1.391 . S
C1426 H1416 0.950 . S
C1426 C1427 1.386 . S
C1426 C1428 1.391 . S
C1427 C1426 1.386 . S
C1427 C1431 1.393 . S
C1428 H1417 0.950 . S
C1428 C1426 1.391 . S
C1428 C1429 1.400 . S
C1429 C1423 1.491 . S
C1429 C1428 1.400 . S
C1429 C1430 1.398 . S
C1430 H1418 0.950 . S
C1430 C1429 1.398 . S
C1430 C1431 1.391 . S
C1431 H1419 0.950 . S
C1431 C1427 1.393 . S
C1431 C1430 1.391 . S
H1432 C1440 0.950 . S
H1433 C1445 0.950 . S
H1434 C1442 0.950 . S
H1435 C1444 0.914 1_565 S
H1436 C1446 0.950 . S
H1437 C1448 0.950 . S
H1438 C1450 0.914 1_545 S
H1439 C1451 0.950 . S
C1440 H1432 0.950 . S
C1440 C1441 1.386 . S
C1440 C1442 1.391 1_455 S
C1441 C1440 1.386 . S
C1441 C1445 1.393 . S
C1442 H1434 0.950 . S
C1442 C1440 1.391 1_655 S
C1442 C1443 1.400 1_655 S
C1443 C1442 1.400 1_455 S
C1443 C1444 1.410 . S
C1443 C1449 1.491 1_446 S
C1444 H1435 0.914 1_545 S
C1444 C1443 1.410 . S
C1444 C1445 1.415 . S
C1445 H1433 0.950 . S
C1445 C1441 1.393 . S
C1445 C1444 1.415 . S
C1446 H1436 0.950 . S
C1446 C1447 1.386 . S
C1446 C1448 1.391 1_655 S
C1447 C1446 1.386 . S
C1447 C1451 1.393 . S
C1448 H1437 0.950 . S
C1448 C1446 1.391 1_455 S
C1448 C1449 1.400 1_455 S
C1449 C1443 1.491 1_664 S
C1449 C1448 1.400 1_655 S
C1449 C1450 1.410 . S
C1450 H1438 0.914 1_565 S
C1450 C1449 1.410 . S
C1450 C1451 1.415 . S
C1451 H1439 0.950 . S
C1451 C1447 1.393 . S
C1451 C1450 1.415 . S
H1452 C1460 0.950 . S
H1453 C1465 0.950 . S
H1454 C1462 0.950 . S
H1455 C1464 0.950 . S
H1456 C1466 0.950 . S
H1457 C1468 0.950 . S
H1458 C1470 0.950 . S
H1459 C1471 0.950 . S
C1460 H1452 0.950 . S
C1460 C1461 1.386 . S
C1460 C1462 1.391 . S
C1461 C1460 1.386 . S
C1461 C1465 1.393 . S
C1462 H1454 0.950 . S
C1462 C1460 1.391 . S
C1462 C1463 1.400 . S
C1463 C1462 1.400 . S
C1463 C1464 1.398 . S
C1463 C1469 1.491 1_545 S
C1464 H1455 0.950 . S
C1464 C1463 1.398 . S
C1464 C1465 1.391 . S
C1465 H1453 0.950 . S
C1465 C1461 1.393 . S
C1465 C1464 1.391 . S
C1466 H1456 0.950 . S
C1466 C1467 1.386 . S
C1466 C1468 1.391 . S
C1467 C1466 1.386 . S
C1467 C1471 1.393 . S
C1468 H1457 0.950 . S
C1468 C1466 1.391 . S
C1468 C1469 1.400 . S
C1469 C1463 1.491 1_565 S
C1469 C1468 1.400 . S
C1469 C1470 1.398 . S
C1470 H1458 0.950 . S
C1470 C1469 1.398 . S
C1470 C1471 1.391 . S
C1471 H1459 0.950 . S
C1471 C1467 1.393 . S
C1471 C1470 1.391 . S
C521 N13 0.254 . S
C527 N338 0.247 . S
C541 N50 0.247 . S
C547 N370 0.258 . S
C561 N82 0.272 . S
C567 N269 0.299 . S
C581 N114 0.321 . S
C587 N306 0.297 . S
C601 N146 0.272 . S
C607 N461 0.252 . S
C621 N178 0.314 . S
C627 N498 0.332 . S
C641 N210 0.310 . S
C647 N402 0.283 . S
C661 N242 0.247 . S
C667 N434 0.252 . S
C681 C317 1.042 . S
C687 N18 1.028 . S
C701 C349 1.047 . S
C707 N45 1.050 . S
C721 C381 1.055 . S
C727 N77 1.039 . S
C741 C260 1.020 . S
C747 N109 1.060 . S
C761 N141 1.058 . S
C767 C445 1.018 . S
C781 C452 1.031 . S
C787 N173 1.060 . S
C801 C509 1.049 . S
C807 N205 1.026 . S
C821 C413 1.045 . S
C827 N237 1.027 . S
C841 C61 1.036 . S
C847 N274 1.058 . S
C861 N301 1.026 1_565 S
C867 C93 1.052 . S
C881 N333 1.058 . S
C887 C125 1.035 . S
C901 N365 1.061 1_545 S
C907 C4 1.030 . S
C921 N397 1.052 . S
C927 C189 1.045 . S
C941 C221 1.039 . S
C947 N429 1.030 1_545 S
C961 C253 1.046 . S
C967 N466 1.051 . S
C981 N493 1.026 1_565 S
C987 C157 1.051 . S
C1001 C29 1.910 . S
C1007 C482 1.916 . S
C1021 C36 1.917 . S
C1027 C130 1.915 . S
C1041 C418 1.904 1_455 S
C1047 C68 1.907 . S
C1061 C194 1.906 . S
C1067 C100 1.912 . S
C1081 C132 1.910 . S
C1087 C354 1.904 . S
C1101 C164 1.907 . S
C1107 C6 1.913 . S
C1121 C290 1.880 1_655 S
C1127 C196 1.912 . S
C1141 C66 1.910 . S
C1147 C228 1.905 . S
C1161 C285 1.907 . S
C1167 C226 1.913 1_655 S
C1181 C292 1.917 . S
C1187 C386 1.914 . S
C1201 C162 1.908 . S
C1207 C324 1.905 . S
C1221 C454 1.904 . S
C1227 C356 1.910 . S
C1241 C388 1.917 . S
C1247 C98 1.887 1_455 S
C1261 C420 1.907 . S
C1267 C262 1.904 . S
C1281 C477 1.905 . S
C1287 C34 1.907 . S
C1301 C322 1.904 . S
C1307 C484 1.909 . S
C1321 C2 2.359 . S
C1327 C390 2.359 . S
C1341 C38 2.359 . S
C1347 C166 2.359 . S
C1361 C70 2.359 . S
C1367 C450 2.359 . S
C1381 C230 2.360 . S
C1387 C102 2.360 . S
C1401 C134 2.358 . S
C1407 C258 2.358 . S
C1421 C326 2.354 . S
C1427 C198 2.354 . S
C1441 C294 2.354 . S
C1447 C422 2.354 . S
C1461 C486 2.359 . S
C1467 C358 2.359 . S
