# Generated by pormake.
# Topology ukf, (4)-cn, num edge types: 1
# Building blocks:
#     Node 0, Type 0, BuildingBlock: TATPOV_clean_sbu_0, # of connection points: 4
#     Node 1, Type 0, BuildingBlock: TATPOV_clean_sbu_0, # of connection points: 4
#     Node 2, Type 0, BuildingBlock: TATPOV_clean_sbu_0, # of connection points: 4
#     Node 3, Type 0, BuildingBlock: TATPOV_clean_sbu_0, # of connection points: 4
#     Node 4, Type 0, BuildingBlock: TATPOV_clean_sbu_0, # of connection points: 4
#     Node 5, Type 0, BuildingBlock: TATPOV_clean_sbu_0, # of connection points: 4
#     Node 6, Type 0, BuildingBlock: TATPOV_clean_sbu_0, # of connection points: 4
#     Node 7, Type 0, BuildingBlock: TATPOV_clean_sbu_0, # of connection points: 4
#     Node 8, Type 0, BuildingBlock: TATPOV_clean_sbu_0, # of connection points: 4
#     Node 9, Type 0, BuildingBlock: TATPOV_clean_sbu_0, # of connection points: 4
#     Node 10, Type 0, BuildingBlock: TATPOV_clean_sbu_0, # of connection points: 4
#     Node 11, Type 0, BuildingBlock: TATPOV_clean_sbu_0, # of connection points: 4
#     Edge 12, Type (0, 0), BuildingBlock: KIFKEQ_clean_linker_1, # of connection points: 2
#     Edge 13, Type (0, 0), BuildingBlock: KIFKEQ_clean_linker_1, # of connection points: 2
#     Edge 14, Type (0, 0), BuildingBlock: KIFKEQ_clean_linker_1, # of connection points: 2
#     Edge 15, Type (0, 0), BuildingBlock: KIFKEQ_clean_linker_1, # of connection points: 2
#     Edge 16, Type (0, 0), BuildingBlock: KIFKEQ_clean_linker_1, # of connection points: 2
#     Edge 17, Type (0, 0), BuildingBlock: KIFKEQ_clean_linker_1, # of connection points: 2
#     Edge 18, Type (0, 0), BuildingBlock: KIFKEQ_clean_linker_1, # of connection points: 2
#     Edge 19, Type (0, 0), BuildingBlock: KIFKEQ_clean_linker_1, # of connection points: 2
#     Edge 20, Type (0, 0), BuildingBlock: KIFKEQ_clean_linker_1, # of connection points: 2
#     Edge 21, Type (0, 0), BuildingBlock: KIFKEQ_clean_linker_1, # of connection points: 2
#     Edge 22, Type (0, 0), BuildingBlock: KIFKEQ_clean_linker_1, # of connection points: 2
#     Edge 23, Type (0, 0), BuildingBlock: KIFKEQ_clean_linker_1, # of connection points: 2
#     Edge 24, Type (0, 0), BuildingBlock: KIFKEQ_clean_linker_1, # of connection points: 2
#     Edge 25, Type (0, 0), BuildingBlock: KIFKEQ_clean_linker_1, # of connection points: 2
#     Edge 26, Type (0, 0), BuildingBlock: KIFKEQ_clean_linker_1, # of connection points: 2
#     Edge 27, Type (0, 0), BuildingBlock: KIFKEQ_clean_linker_1, # of connection points: 2
#     Edge 28, Type (0, 0), BuildingBlock: KIFKEQ_clean_linker_1, # of connection points: 2
#     Edge 29, Type (0, 0), BuildingBlock: KIFKEQ_clean_linker_1, # of connection points: 2
#     Edge 30, Type (0, 0), BuildingBlock: KIFKEQ_clean_linker_1, # of connection points: 2
#     Edge 31, Type (0, 0), BuildingBlock: KIFKEQ_clean_linker_1, # of connection points: 2
#     Edge 32, Type (0, 0), BuildingBlock: KIFKEQ_clean_linker_1, # of connection points: 2
#     Edge 33, Type (0, 0), BuildingBlock: KIFKEQ_clean_linker_1, # of connection points: 2
#     Edge 34, Type (0, 0), BuildingBlock: KIFKEQ_clean_linker_1, # of connection points: 2
#     Edge 35, Type (0, 0), BuildingBlock: KIFKEQ_clean_linker_1, # of connection points: 2
# Relax obj value: 0.151
# Max RMSD: 0.164
# Mean RMSD: 0.164
data_MOF--net-ukf--node1-TATPOV_clean_sbu_0--edge1-KIFKEQ_clean_linker_1
_symmetry_space_group_name_H-M    P1
_symmetry_Int_Tables_number       1
_symmetry_cell_setting            triclinic
loop_
_symmetry_equiv_pos_as_xyz
'x, y, z'
_cell_length_a     31.896053
_cell_length_b     31.764565
_cell_length_c     66.371841
_cell_angle_alpha  89.950908
_cell_angle_beta   89.947055
_cell_angle_gamma 119.95658
loop_
_atom_site_label
_atom_site_type_symbol
_atom_site_fract_x
_atom_site_fract_y
_atom_site_fract_z
_atom_type_partial_charge
Zn0 Zn 0.38243 0.25495 0.02039 0.0
Zn1 Zn 0.37946 0.21651 0.05649 0.0
O2 O 0.31452 0.16824 0.04273 0.0
O3 O 0.31766 0.19949 0.01275 0.0
O4 O 0.37187 0.19169 0.08513 0.0
O5 O 0.3904 0.31668 0.03238 0.0
O6 O 0.39756 0.28751 0.06141 0.0
C7 C 0.2958 0.16568 0.02545 0.0
C8 C 0.45717 0.22846 0.02719 0.0
O9 O 0.43657 0.21286 0.04422 0.0
O10 O 0.44159 0.24835 0.01504 0.0
C11 C 0.40525 0.21565 0.09785 0.0
O12 O 0.44524 0.25402 0.09167 0.0
C13 C 0.39953 0.32216 0.05105 0.0
Zn14 Zn 0.11477 0.38004 0.35789 0.0
Zn15 Zn 0.15023 0.37837 0.39444 0.0
O16 O 0.13371 0.31292 0.38109 0.0
O17 O 0.1032 0.31351 0.35142 0.0
O18 O 0.16819 0.37263 0.42319 0.0
O19 O 0.06205 0.38937 0.36982 0.0
O20 O 0.09672 0.39549 0.39914 0.0
C21 C 0.11597 0.29253 0.36421 0.0
C22 C 0.21611 0.45489 0.36453 0.0
O23 O 0.21044 0.43521 0.38182 0.0
O24 O 0.18116 0.43863 0.35216 0.0
C25 C 0.17651 0.40665 0.43548 0.0
O26 O 0.17643 0.44552 0.42872 0.0
C27 C 0.06461 0.39762 0.38854 0.0
Zn28 Zn 0.75935 0.14087 0.67913 0.0
Zn29 Zn 0.78015 0.16126 0.71828 0.0
O30 O 0.83024 0.14351 0.70713 0.0
O31 O 0.80834 0.12001 0.67584 0.0
O32 O 0.7953 0.17186 0.74823 0.0
O33 O 0.69091 0.09193 0.68584 0.0
O34 O 0.70818 0.10817 0.71797 0.0
C35 C 0.83641 0.12715 0.69049 0.0
C36 C 0.7898 0.2407 0.68952 0.0
O37 O 0.79068 0.22664 0.70745 0.0
O38 O 0.77897 0.21149 0.67488 0.0
C39 C 0.76339 0.16839 0.76073 0.0
O40 O 0.72128 0.16005 0.7539 0.0
C41 C 0.67784 0.08472 0.70411 0.0
Zn42 Zn 0.61328 0.74216 0.02337 0.0
Zn43 Zn 0.61082 0.77685 0.05998 0.0
O44 O 0.67632 0.8277 0.04732 0.0
O45 O 0.67975 0.79778 0.01786 0.0
O46 O 0.61426 0.79866 0.08899 0.0
O47 O 0.60308 0.67889 0.03453 0.0
O48 O 0.59431 0.70585 0.06382 0.0
C49 C 0.69849 0.83141 0.0308 0.0
C50 C 0.53677 0.76706 0.02928 0.0
O51 O 0.55437 0.77985 0.04692 0.0
O52 O 0.55505 0.75002 0.01701 0.0
C53 C 0.583 0.76924 0.10148 0.0
O54 O 0.54775 0.72757 0.09484 0.0
C55 C 0.59304 0.67204 0.0531 0.0
Zn56 Zn 0.84971 0.60267 0.3598 0.0
Zn57 Zn 0.81216 0.60033 0.39633 0.0
O58 O 0.83043 0.66776 0.38449 0.0
O59 O 0.86239 0.6702 0.35479 0.0
O60 O 0.79247 0.60195 0.42524 0.0
O61 O 0.90127 0.59108 0.3714 0.0
O62 O 0.86413 0.58079 0.40046 0.0
C63 C 0.84927 0.68999 0.36799 0.0
C64 C 0.74753 0.52843 0.36485 0.0
O65 O 0.75231 0.54617 0.38248 0.0
O66 O 0.78335 0.54541 0.35287 0.0
C67 C 0.82633 0.62635 0.43773 0.0
O68 O 0.87099 0.65117 0.431 0.0
C69 C 0.8969 0.5798 0.38987 0.0
Zn70 Zn 0.23602 0.86316 0.68285 0.0
Zn71 Zn 0.21733 0.84256 0.7219 0.0
O72 O 0.1683 0.86237 0.71145 0.0
O73 O 0.18857 0.88616 0.68006 0.0
O74 O 0.20215 0.83202 0.75171 0.0
O75 O 0.30508 0.91039 0.68925 0.0
O76 O 0.28993 0.89353 0.72152 0.0
C77 C 0.16161 0.87943 0.6951 0.0
C78 C 0.20415 0.76271 0.69284 0.0
O79 O 0.2047 0.77672 0.7109 0.0
O80 O 0.2145 0.79217 0.67829 0.0
C81 C 0.22749 0.82295 0.76385 0.0
O82 O 0.26363 0.81865 0.75672 0.0
C83 C 0.3195 0.91668 0.70733 0.0
Zn84 Zn 0.76334 0.62114 0.66965 0.0
Zn85 Zn 0.78116 0.62088 0.6303 0.0
O86 O 0.831 0.68947 0.64081 0.0
O87 O 0.81154 0.69156 0.67246 0.0
O88 O 0.79492 0.62576 0.60034 0.0
O89 O 0.69433 0.60033 0.66362 0.0
O90 O 0.7091 0.60084 0.6312 0.0
C91 C 0.83805 0.71252 0.65737 0.0
C92 C 0.79354 0.55209 0.65864 0.0
O93 O 0.79283 0.56649 0.64076 0.0
O94 O 0.78401 0.57089 0.67352 0.0
C95 C 0.76815 0.59155 0.58835 0.0
O96 O 0.73194 0.55144 0.59575 0.0
C97 C 0.67981 0.59388 0.64556 0.0
Zn98 Zn 0.13133 0.73883 0.99162 0.0
Zn99 Zn 0.1685 0.77469 0.95516 0.0
O100 O 0.15105 0.82448 0.96699 0.0
O101 O 0.12249 0.79578 0.99723 0.0
O102 O 0.18958 0.79683 0.92643 0.0
O103 O 0.07791 0.67695 0.97971 0.0
O104 O 0.11523 0.70375 0.95067 0.0
C105 C 0.13439 0.82842 0.98395 0.0
C106 C 0.23202 0.76385 0.98639 0.0
O107 O 0.22764 0.7784 0.96902 0.0
O108 O 0.19618 0.74472 0.99834 0.0
C109 C 0.15673 0.78817 0.91353 0.0
O110 O 0.11161 0.76818 0.91968 0.0
C111 C 0.08187 0.67023 0.96119 0.0
Zn112 Zn 0.36409 0.12914 0.32731 0.0
Zn113 Zn 0.37228 0.16129 0.2897 0.0
O114 O 0.30412 0.14646 0.29922 0.0
O115 O 0.29622 0.1159 0.32968 0.0
O116 O 0.3755 0.17923 0.2602 0.0
O117 O 0.37774 0.07672 0.31913 0.0
O118 O 0.38912 0.10639 0.28842 0.0
C119 C 0.27914 0.12863 0.31524 0.0
C120 C 0.44068 0.22933 0.32164 0.0
O121 O 0.42651 0.22208 0.30336 0.0
O122 O 0.4199 0.19566 0.33455 0.0
C123 C 0.35384 0.14526 0.2474 0.0
O124 O 0.32838 0.10028 0.25391 0.0
C125 C 0.38949 0.07622 0.30097 0.0
Zn126 Zn 0.23463 0.38568 0.66707 0.0
Zn127 Zn 0.21959 0.39178 0.62768 0.0
O128 O 0.16851 0.32153 0.63622 0.0
O129 O 0.18617 0.31504 0.66771 0.0
O130 O 0.2108 0.39609 0.59754 0.0
O131 O 0.30401 0.4072 0.66164 0.0
O132 O 0.29146 0.41107 0.62927 0.0
C133 C 0.16056 0.29622 0.65221 0.0
C134 C 0.2051 0.45592 0.65814 0.0
O135 O 0.20704 0.44398 0.63996 0.0
O136 O 0.21378 0.4352 0.67254 0.0
C137 C 0.18592 0.36011 0.58599 0.0
O138 O 0.1621 0.31619 0.59371 0.0
C139 C 0.31974 0.41596 0.64374 0.0
Zn140 Zn 0.85913 0.24784 0.98882 0.0
Zn141 Zn 0.82074 0.21506 0.95214 0.0
O142 O 0.83655 0.16337 0.96307 0.0
O143 O 0.86998 0.19144 0.99267 0.0
O144 O 0.79877 0.19556 0.92334 0.0
O145 O 0.91143 0.31096 0.97729 0.0
O146 O 0.87505 0.2857 0.94802 0.0
C147 C 0.85556 0.15885 0.97926 0.0
C148 C 0.75831 0.22381 0.98457 0.0
O149 O 0.76272 0.21187 0.96669 0.0
O150 O 0.7939 0.2404 0.99661 0.0
C151 C 0.82504 0.18816 0.91105 0.0
O152 O 0.86468 0.18994 0.91771 0.0
C153 C 0.90805 0.31864 0.95882 0.0
Zn154 Zn 0.60219 0.85706 0.33093 0.0
Zn155 Zn 0.59614 0.82492 0.2933 0.0
O156 O 0.66339 0.83852 0.30341 0.0
O157 O 0.6695 0.86867 0.33383 0.0
O158 O 0.59264 0.80603 0.26397 0.0
O159 O 0.5903 0.91021 0.32183 0.0
O160 O 0.58164 0.88115 0.29113 0.0
C161 C 0.68727 0.85583 0.31968 0.0
C162 C 0.52495 0.75763 0.32501 0.0
O163 O 0.5405 0.76496 0.30691 0.0
O164 O 0.54512 0.79104 0.33802 0.0
C165 C 0.6268 0.83152 0.25173 0.0
O166 O 0.66646 0.8691 0.25859 0.0
C167 C 0.58068 0.91141 0.30343 0.0
H168 H 0.13468 0.89817 0.95929 0.0
H169 H 0.14097 0.86343 0.02169 0.0
H170 H 0.15426 0.97999 0.96899 0.0
H171 H 0.16491 0.94524 0.03126 0.0
H172 H 0.22235 0.09539 0.04832 0.0
H173 H 0.16355 0.01336 0.03761 0.0
H174 H 0.22085 0.04936 0.97688 0.0
H175 H 0.27524 0.13148 0.98729 0.0
C176 C 0.13987 0.90797 0.97509 0.0
C177 C 0.13699 0.87464 0.98966 0.0
C178 C 0.15174 0.95515 0.98072 0.0
C179 C 0.16295 0.97057 1.00094 0.0
C180 C 0.15636 0.93564 0.01558 0.0
C181 C 0.14291 0.88826 0.01004 0.0
C182 C 0.22103 0.08582 0.03258 0.0
C183 C 0.25379 0.11957 0.01872 0.0
C184 C 0.18776 0.03852 0.0264 0.0
C185 C 0.18807 0.02338 1.00641 0.0
C186 C 0.21854 0.05872 0.99234 0.0
C187 C 0.2504 0.10627 0.99837 0.0
H188 H 0.08411 0.24215 0.32886 0.0
H189 H 0.15306 0.24433 0.3852 0.0
H190 H 0.10604 0.18461 0.31517 0.0
H191 H 0.17534 0.18734 0.37143 0.0
H192 H 0.2446 0.17792 0.29337 0.0
H193 H 0.18694 0.20138 0.30515 0.0
H194 H 0.15513 0.10847 0.3572 0.0
H195 H 0.21334 0.08546 0.34557 0.0
C196 C 0.10286 0.22946 0.33852 0.0
C197 C 0.11778 0.24868 0.358 0.0
C198 C 0.11554 0.19659 0.33061 0.0
C199 C 0.14314 0.18206 0.34206 0.0
C200 C 0.15386 0.19757 0.36221 0.0
C201 C 0.14127 0.23052 0.37011 0.0
C202 C 0.22411 0.16116 0.30695 0.0
C203 C 0.23445 0.1308 0.31878 0.0
C204 C 0.19087 0.17452 0.31371 0.0
C205 C 0.16724 0.15757 0.33237 0.0
C206 C 0.17358 0.12295 0.34301 0.0
C207 C 0.20683 0.10966 0.33628 0.0
H208 H 0.9163 0.1608 0.71456 0.0
H209 H 0.85784 0.08939 0.65768 0.0
H210 H -0.00324 0.18094 0.70355 0.0
H211 H 0.93854 0.10913 0.64673 0.0
H212 H 0.13973 0.22893 0.68182 0.0
H213 H 0.05923 0.16435 0.69129 0.0
H214 H 0.00101 0.19119 0.63716 0.0
H215 H 0.08139 0.25509 0.62756 0.0
C216 C 0.92029 0.14771 0.70003 0.0
C217 C 0.88096 0.1249 0.68676 0.0
C218 C 0.96654 0.15905 0.6937 0.0
C219 C 0.97417 0.14761 0.67404 0.0
C220 C 0.93389 0.11933 0.66179 0.0
C221 C 0.88766 0.108 0.66811 0.0
C222 C 0.10997 0.21989 0.67159 0.0
C223 C 0.11656 0.24807 0.65425 0.0
C224 C 0.06386 0.18292 0.67706 0.0
C225 C 0.0236 0.17355 0.66528 0.0
C226 C 0.03124 0.19745 0.64662 0.0
C227 C 0.07741 0.23436 0.64111 0.0
H228 H 0.75287 0.85176 0.99649 0.0
H229 H 0.74054 0.91729 0.05158 0.0
H230 H 0.80812 0.93205 0.98287 0.0
H231 H 0.79529 -0.0026 0.03786 0.0
H232 H 0.80962 0.07313 0.95841 0.0
H233 H 0.7877 0.99308 0.9714 0.0
H234 H 0.8741 0.05873 0.02451 0.0
H235 H 0.89563 0.13889 0.01165 0.0
C236 C 0.76288 0.88317 1.00592 0.0
C237 C 0.74143 0.87814 0.02498 0.0
C238 C 0.79441 0.9292 0.99804 0.0
C239 C 0.80537 0.97111 0.0091 0.0
C240 C 0.78777 0.96587 0.02894 0.0
C241 C 0.75614 0.91983 0.03681 0.0
C242 C 0.82519 0.07066 0.97255 0.0
C243 C 0.85345 0.11234 0.98419 0.0
C244 C 0.81275 0.02468 0.98 0.0
C245 C 0.82847 0.01953 0.99919 0.0
C246 C 0.86067 0.06151 0.00987 0.0
C247 C 0.87312 0.10744 1.00243 0.0
H248 H 0.74984 0.89608 0.35119 0.0
H249 H 0.72422 0.80867 0.29783 0.0
H250 H 0.80761 0.87283 0.36313 0.0
H251 H 0.78152 0.78502 0.30989 0.0
H252 H 0.88434 0.74472 0.33376 0.0
H253 H 0.86236 0.80275 0.32068 0.0
H254 H 0.78759 0.79288 0.37632 0.0
H255 H 0.80986 0.73532 0.38949 0.0
C256 C 0.75747 0.87293 0.34173 0.0
C257 C 0.73157 0.85327 0.32377 0.0
C258 C 0.79048 0.85951 0.34864 0.0
C259 C 0.79838 0.8263 0.3377 0.0
C260 C 0.77639 0.8108 0.31869 0.0
C261 C 0.74334 0.82424 0.31177 0.0
C262 C 0.86439 0.75597 0.34345 0.0
C263 C 0.84789 0.73451 0.36252 0.0
C264 C 0.85167 0.78911 0.33589 0.0
C265 C 0.82248 0.8017 0.34728 0.0
C266 C 0.81028 0.78411 0.36715 0.0
C267 C 0.8229 0.75087 0.3747 0.0
H268 H 0.9173 0.75784 0.63284 0.0
H269 H 0.85822 0.77527 0.68877 0.0
H270 H -0.00285 0.82145 0.64289 0.0
H271 H 0.93822 0.83989 0.69869 0.0
H272 H 0.13982 0.92031 0.66349 0.0
H273 H 0.0589 0.9016 0.65344 0.0
H274 H 0.00203 0.82529 0.70968 0.0
H275 H 0.0827 0.84476 0.71985 0.0
C276 C 0.92098 0.77659 0.64692 0.0
C277 C 0.88181 0.76048 0.66028 0.0
C278 C 0.96688 0.81342 0.65269 0.0
C279 C 0.97428 0.83495 0.67186 0.0
C280 C 0.93386 0.82316 0.68405 0.0
C281 C 0.88802 0.78618 0.67833 0.0
C282 C 0.11025 0.901 0.67401 0.0
C283 C 0.11733 0.88261 0.6922 0.0
C284 C 0.06387 0.89021 0.6682 0.0
C285 C 0.02383 0.86078 0.68047 0.0
C286 C 0.03197 0.84801 0.6998 0.0
C287 C 0.07837 0.85897 0.70564 0.0
H288 H 0.73648 0.2451 0.02169 0.0
H289 H 0.67514 0.19247 0.96273 0.0
H290 H 0.66195 0.2422 0.03225 0.0
H291 H 0.60026 0.1888 0.97347 0.0
H292 H 0.50506 0.25348 0.99128 0.0
H293 H 0.57558 0.24819 0.98146 0.0
H294 H 0.57574 0.18691 0.03957 0.0
H295 H 0.50511 0.19291 0.04964 0.0
C296 C 0.70698 0.23251 0.01102 0.0
C297 C 0.71197 0.2194 0.99129 0.0
C298 C 0.6641 0.23051 0.01715 0.0
C299 C 0.62526 0.21545 1.00369 0.0
C300 C 0.6298 0.20122 0.98411 0.0
C301 C 0.67266 0.20314 0.97799 0.0
C302 C 0.51992 0.23873 1.002 0.0
C303 C 0.49945 0.22375 0.02129 0.0
C304 C 0.5602 0.23535 0.99628 0.0
C305 C 0.58116 0.21695 0.00969 0.0
C306 C 0.5606 0.20161 0.02896 0.0
C307 C 0.52006 0.20487 0.03469 0.0
H308 H 0.29981 0.49987 0.38667 0.0
H309 H 0.23937 0.50535 0.3291 0.0
H310 H 0.37689 0.57025 0.37698 0.0
H311 H 0.31578 0.57602 0.31967 0.0
H312 H 0.47132 0.67752 0.30138 0.0
H313 H 0.39906 0.60188 0.31101 0.0
H314 H 0.40952 0.65658 0.37147 0.0
H315 H 0.4821 0.73149 0.36204 0.0
C316 C 0.30291 0.51604 0.37197 0.0
C317 C 0.26333 0.49703 0.3587 0.0
C318 C 0.34702 0.55648 0.36645 0.0
C319 C 0.35249 0.57877 0.34754 0.0
C320 C 0.31307 0.55933 0.33421 0.0
C321 C 0.26907 0.51897 0.33971 0.0
C322 C 0.45839 0.67325 0.31677 0.0
C323 C 0.4824 0.71069 0.3309 0.0
C324 C 0.41684 0.63 0.32225 0.0
C325 C 0.3984 0.62326 0.34199 0.0
C326 C 0.42306 0.66029 0.35621 0.0
C327 C 0.46455 0.70345 0.35075 0.0
H328 H 0.77954 0.30178 0.71544 0.0
H329 H 0.82107 0.29178 0.65449 0.0
H330 H 0.7863 0.37981 0.70756 0.0
H331 H 0.83057 0.37097 0.6468 0.0
H332 H 0.77892 0.47911 0.63279 0.0
H333 H 0.7836 0.40662 0.64049 0.0
H334 H 0.83531 0.46194 0.70035 0.0
H335 H 0.82788 0.53294 0.6929 0.0
C336 C 0.79115 0.31683 0.70048 0.0
C337 C 0.79933 0.29052 0.68554 0.0
C338 C 0.79532 0.36178 0.69593 0.0
C339 C 0.80869 0.38187 0.67644 0.0
C340 C 0.81901 0.3563 0.66181 0.0
C341 C 0.81393 0.311 0.66625 0.0
C342 C 0.7918 0.47593 0.6475 0.0
C343 C 0.80261 0.51142 0.66229 0.0
C344 C 0.79474 0.43442 0.65194 0.0
C345 C 0.80946 0.42793 0.67116 0.0
C346 C 0.8226 0.46486 0.68558 0.0
C347 C 0.81876 0.50584 0.68126 0.0
H348 H 0.25359 0.73886 0.02269 0.0
H349 H 0.3162 0.79979 0.96463 0.0
H350 H 0.329 0.74373 0.03298 0.0
H351 H 0.39218 0.80542 0.97515 0.0
H352 H 0.49302 0.7459 0.99244 0.0
H353 H 0.42151 0.74909 0.98223 0.0
H354 H 0.41327 0.80151 0.0413 0.0
H355 H 0.48463 0.79754 0.05173 0.0
C356 C 0.28355 0.75363 0.01215 0.0
C357 C 0.27872 0.76868 0.99277 0.0
C358 C 0.32695 0.75677 0.01814 0.0
C359 C 0.36659 0.77497 1.0049 0.0
C360 C 0.36208 0.79072 0.98562 0.0
C361 C 0.31861 0.78767 0.97963 0.0
C362 C 0.47616 0.75831 1.00327 0.0
C363 C 0.49445 0.77121 0.02296 0.0
C364 C 0.43532 0.76048 0.99734 0.0
C365 C 0.41169 0.77554 0.01094 0.0
C366 C 0.43038 0.78922 0.03054 0.0
C367 C 0.47137 0.78714 0.03648 0.0
H368 H 0.49615 0.30994 0.29835 0.0
H369 H 0.48022 0.255 0.35916 0.0
H370 H 0.56778 0.38534 0.30866 0.0
H371 H 0.55208 0.3295 0.36926 0.0
H372 H 0.66174 0.4842 0.38566 0.0
H373 H 0.5849 0.41538 0.37488 0.0
H374 H 0.6502 0.41083 0.31845 0.0
H375 H 0.72646 0.48011 0.32897 0.0
C376 C 0.50778 0.31396 0.31391 0.0
C377 C 0.48255 0.27631 0.32789 0.0
C378 C 0.54896 0.35706 0.31979 0.0
C379 C 0.56577 0.3634 0.33978 0.0
C380 C 0.53982 0.32616 0.35383 0.0
C381 C 0.49873 0.2832 0.34797 0.0
C382 C 0.65962 0.46867 0.37091 0.0
C383 C 0.70035 0.48754 0.35823 0.0
C384 C 0.61562 0.42912 0.36476 0.0
C385 C 0.61142 0.40752 0.34581 0.0
C386 C 0.65194 0.42699 0.33302 0.0
C387 C 0.69584 0.46653 0.33913 0.0
H388 H 0.17144 0.47239 0.69329 0.0
H389 H 0.21747 0.52985 0.6333 0.0
H390 H 0.1622 0.54179 0.70188 0.0
H391 H 0.21085 0.60062 0.6421 0.0
H392 H 0.17042 0.71192 0.65794 0.0
H393 H 0.16173 0.63342 0.64955 0.0
H394 H 0.21005 0.6241 0.70943 0.0
H395 H 0.21606 0.70143 0.71804 0.0
C396 C 0.17956 0.49993 0.68192 0.0
C397 C 0.19541 0.49583 0.66265 0.0
C398 C 0.17461 0.53996 0.68689 0.0
C399 C 0.18625 0.57734 0.6728 0.0
C400 C 0.20078 0.57238 0.6533 0.0
C401 C 0.20488 0.53187 0.64824 0.0
C402 C 0.17853 0.69269 0.66938 0.0
C403 C 0.1942 0.7129 0.68861 0.0
C404 C 0.17394 0.64781 0.66453 0.0
C405 C 0.18582 0.62245 0.67867 0.0
C406 C 0.19991 0.64206 0.69817 0.0
C407 C 0.20363 0.68658 0.70313 0.0
H408 H 0.32315 0.1456 0.11653 0.0
H409 H 0.47019 0.25803 0.12849 0.0
H410 H 0.3095 0.12912 0.15254 0.0
H411 H 0.45697 0.24074 0.16442 0.0
H412 H 0.40263 0.23381 0.22851 0.0
H413 H 0.41421 0.2499 0.19239 0.0
H414 H 0.33085 0.09576 0.18054 0.0
H415 H 0.31824 0.07981 0.21654 0.0
C416 C 0.35274 0.16645 0.12682 0.0
C417 C 0.39774 0.20319 0.1196 0.0
C418 C 0.34496 0.1569 0.14749 0.0
C419 C 0.38205 0.18376 0.16145 0.0
C420 C 0.42729 0.21995 0.15416 0.0
C421 C 0.43501 0.22958 0.13352 0.0
C422 C 0.38656 0.20339 0.21819 0.0
C423 C 0.35952 0.15553 0.22545 0.0
C424 C 0.3935 0.21257 0.19747 0.0
C425 C 0.37369 0.17411 0.1835 0.0
C426 C 0.34617 0.12631 0.1908 0.0
C427 C 0.33912 0.11715 0.21149 0.0
H428 H 0.19011 0.47091 0.46554 0.0
H429 H 0.17434 0.32947 0.45509 0.0
H430 H 0.19282 0.45973 0.50167 0.0
H431 H 0.17831 0.31876 0.49132 0.0
H432 H 0.13046 0.29306 0.5575 0.0
H433 H 0.13027 0.30488 0.52122 0.0
H434 H 0.24126 0.45522 0.52815 0.0
H435 H 0.24046 0.44373 0.56447 0.0
C436 C 0.18778 0.43761 0.47093 0.0
C437 C 0.18187 0.40103 0.45738 0.0
C438 C 0.18958 0.43129 0.49169 0.0
C439 C 0.18564 0.38826 0.49948 0.0
C440 C 0.18067 0.35204 0.48589 0.0
C441 C 0.1788 0.35834 0.46509 0.0
C442 C 0.15476 0.32867 0.55129 0.0
C443 C 0.18537 0.36747 0.56393 0.0
C444 C 0.15493 0.33537 0.53044 0.0
C445 C 0.18586 0.38098 0.52168 0.0
C446 C 0.21649 0.41975 0.53436 0.0
C447 C 0.21616 0.41312 0.55521 0.0
H448 H 0.86597 0.15984 0.88172 0.0
H449 H 0.75894 0.20339 0.8909 0.0
H450 H 0.85047 0.1539 0.84561 0.0
H451 H 0.74476 0.19942 0.85476 0.0
H452 H 0.69749 0.14488 0.79103 0.0
H453 H 0.71092 0.14686 0.82714 0.0
H454 H 0.86336 0.20194 0.81654 0.0
H455 H 0.84938 0.19799 0.78029 0.0
C456 C 0.83914 0.16821 0.87602 0.0
C457 C 0.81365 0.18201 0.88921 0.0
C458 C 0.83054 0.16524 0.85526 0.0
C459 C 0.79654 0.17646 0.84712 0.0
C460 C 0.77069 0.18977 0.86041 0.0
C461 C 0.77895 0.19224 0.88119 0.0
C462 C 0.73393 0.1575 0.79639 0.0
C463 C 0.77238 0.17131 0.78275 0.0
C464 C 0.74171 0.15888 0.81716 0.0
C465 C 0.78828 0.17463 0.8249 0.0
C466 C 0.82683 0.18879 0.8112 0.0
C467 C 0.81893 0.18691 0.79039 0.0
H468 H 0.64375 0.85518 0.12057 0.0
H469 H 0.53462 0.70608 0.13207 0.0
H470 H 0.65375 0.87037 0.15678 0.0
H471 H 0.54596 0.72047 0.16808 0.0
H472 H 0.5432 0.77155 0.23154 0.0
H473 H 0.53192 0.75838 0.19539 0.0
H474 H 0.68529 0.85425 0.18611 0.0
H475 H 0.69606 0.86897 0.22227 0.0
C476 C 0.62198 0.82563 0.13083 0.0
C477 C 0.58827 0.77949 0.12342 0.0
C478 C 0.62798 0.83419 0.15162 0.0
C479 C 0.60077 0.79665 0.16549 0.0
C480 C 0.56697 0.75058 0.15797 0.0
C481 C 0.56061 0.74222 0.13724 0.0
C482 C 0.57455 0.78967 0.22179 0.0
C483 C 0.62054 0.82128 0.22981 0.0
C484 C 0.56814 0.78197 0.201 0.0
C485 C 0.60767 0.80522 0.18768 0.0
C486 C 0.6538 0.83639 0.19579 0.0
C487 C 0.6601 0.84452 0.21657 0.0
H488 H 0.72138 0.5238 0.55889 0.0
H489 H 0.83349 0.67292 0.56777 0.0
H490 H 0.7346 0.53363 0.52261 0.0
H491 H 0.84576 0.68321 0.53147 0.0
H492 H 0.89226 0.66747 0.46803 0.0
H493 H 0.87778 0.65939 0.50414 0.0
H494 H 0.72395 0.57235 0.49353 0.0
H495 H 0.73866 0.57928 0.45724 0.0
C496 C 0.74872 0.55877 0.5531 0.0
C497 C 0.7765 0.5975 0.56627 0.0
C498 C 0.75604 0.56454 0.53226 0.0
C499 C 0.79119 0.60926 0.52403 0.0
C500 C 0.81884 0.64804 0.53724 0.0
C501 C 0.81167 0.6422 0.55809 0.0
C502 C 0.85527 0.6468 0.47335 0.0
C503 C 0.81662 0.62392 0.4597 0.0
C504 C 0.84693 0.64238 0.49413 0.0
C505 C 0.79968 0.61515 0.50184 0.0
C506 C 0.76089 0.59297 0.48816 0.0
C507 C 0.76927 0.59724 0.46734 0.0
H508 H 0.09337 0.76566 0.88235 0.0
H509 H 0.24588 0.82958 0.89528 0.0
H510 H 0.11088 0.77469 0.84646 0.0
H511 H 0.26362 0.83993 0.85923 0.0
H512 H 0.2712 0.79886 0.79358 0.0
H513 H 0.25488 0.79249 0.82966 0.0
H514 H 0.14581 0.83316 0.82 0.0
H515 H 0.16119 0.83818 0.78389 0.0
C516 C 0.13076 0.78219 0.87755 0.0
C517 C 0.16821 0.79681 0.89173 0.0
C518 C 0.14084 0.7876 0.85691 0.0
C519 C 0.18869 0.808 0.84988 0.0
C520 C 0.22627 0.82339 0.86408 0.0
C521 C 0.21615 0.8178 0.88477 0.0
C522 C 0.24367 0.80636 0.79915 0.0
C523 C 0.21739 0.81885 0.78581 0.0
C524 C 0.23456 0.80308 0.81989 0.0
C525 C 0.19906 0.81238 0.82782 0.0
C526 C 0.17293 0.82506 0.81444 0.0
C527 C 0.1819 0.82814 0.79371 0.0
H528 H 0.5225 0.63018 0.08156 0.0
H529 H 0.61306 0.60141 0.04211 0.0
H530 H 0.47177 0.54288 0.08801 0.0
H531 H 0.56331 0.51445 0.04924 0.0
H532 H 0.4687 0.3617 0.08005 0.0
H533 H 0.51929 0.44851 0.08753 0.0
H534 H 0.42986 0.48013 0.0489 0.0
H535 H 0.38034 0.39377 0.04075 0.0
C536 C 0.5328 0.60546 0.07499 0.0
C537 C 0.57151 0.62236 0.06125 0.0
C538 C 0.50373 0.55567 0.07866 0.0
C539 C 0.51404 0.52252 0.06915 0.0
C540 C 0.55519 0.5397 0.05687 0.0
C541 C 0.58348 0.58926 0.05277 0.0
C542 C 0.45884 0.38701 0.07372 0.0
C543 C 0.42082 0.37124 0.05973 0.0
C544 C 0.48782 0.43649 0.07798 0.0
C545 C 0.47805 0.47041 0.06881 0.0
C546 C 0.43754 0.45426 0.05627 0.0
C547 C 0.40938 0.40504 0.05158 0.0
H548 H 0.86663 0.50552 0.41672 0.0
H549 H 0.98959 0.60492 0.38076 0.0
H550 H 0.9058 0.45733 0.42356 0.0
H551 H 0.02935 0.55786 0.38833 0.0
H552 H 0.0923 0.46824 0.4169 0.0
H553 H 0.05231 0.51535 0.42438 0.0
H554 H 0.93174 0.41877 0.38703 0.0
H555 H 0.97238 0.37288 0.37882 0.0
C556 C 0.90282 0.51815 0.411 0.0
C557 C 0.92512 0.55868 0.39812 0.0
C558 C 0.92504 0.49059 0.4149 0.0
C559 C 0.97044 0.50428 0.40652 0.0
C560 C -0.00549 0.54711 0.39511 0.0
C561 C 0.97176 0.57383 0.39073 0.0
C562 C 0.05652 0.45614 0.41085 0.0
C563 C 0.03538 0.41718 0.3972 0.0
C564 C 0.03384 0.48309 0.41512 0.0
C565 C 0.98911 0.47029 0.40632 0.0
C566 C 0.96604 0.42879 0.39414 0.0
C567 C 0.98928 0.40273 0.3894 0.0
H568 H 0.60911 0.01689 0.67982 0.0
H569 H 0.62941 0.08177 0.73883 0.0
H570 H 0.52196 0.97743 0.68415 0.0
H571 H 0.54126 0.04194 0.74307 0.0
H572 H 0.38659 0.98563 0.68284 0.0
H573 H 0.47394 0.02359 0.68551 0.0
H574 H 0.45903 0.95406 0.74307 0.0
H575 H 0.37056 0.9156 0.74049 0.0
C576 C 0.59496 0.02209 0.69386 0.0
C577 C 0.62606 0.05317 0.70882 0.0
C578 C 0.54509 -0.00037 0.6963 0.0
C579 C 0.52521 0.00777 0.71371 0.0
C580 C 0.55596 0.03548 0.72945 0.0
C581 C 0.60625 0.05813 0.72702 0.0
C582 C 0.40177 0.97894 0.69625 0.0
C583 C 0.37177 0.947 0.71129 0.0
C584 C 0.45175 0.00052 0.69772 0.0
C585 C 0.47287 0.99062 0.71424 0.0
C586 C 0.44334 0.96185 0.73012 0.0
C587 C 0.39291 0.94005 0.72865 0.0
H588 H 0.61353 0.59415 0.67102 0.0
H589 H 0.62845 0.54805 0.61147 0.0
H590 H 0.52613 0.54926 0.66756 0.0
H591 H 0.53997 0.50238 0.60811 0.0
H592 H 0.37341 0.46553 0.61055 0.0
H593 H 0.46207 0.51137 0.60813 0.0
H594 H 0.47186 0.45764 0.66669 0.0
H595 H 0.38425 0.41256 0.66924 0.0
C596 C 0.59814 0.57487 0.65707 0.0
C597 C 0.62778 0.57393 0.64165 0.0
C598 C 0.54809 0.54901 0.65514 0.0
C599 C 0.52649 0.52146 0.63778 0.0
C600 C 0.55593 0.52317 0.62169 0.0
C601 C 0.6064 0.5493 0.62362 0.0
C602 C 0.39461 0.46283 0.6227 0.0
C603 C 0.372 0.4362 0.64025 0.0
C604 C 0.4452 0.48906 0.6213 0.0
C605 C 0.47352 0.48886 0.63745 0.0
C606 C 0.45075 0.45937 0.65427 0.0
C607 C 0.40059 0.4334 0.65567 0.0
H608 H 0.9892 0.60316 0.97089 0.0
H609 H 0.10948 0.62609 0.93332 0.0
H610 H 0.94757 0.51649 0.96273 0.0
H611 H 0.06842 0.53886 0.92585 0.0
H612 H 0.88046 0.36509 0.93211 0.0
H613 H 0.92161 0.45294 0.9259 0.0
H614 H 0.0427 0.47184 0.9616 0.0
H615 H 0.00097 0.38448 0.96853 0.0
C616 C 0.00606 0.58984 0.96047 0.0
C617 C 0.05248 0.6211 0.95277 0.0
C618 C 0.98224 0.54046 0.95575 0.0
C619 C 0.005 0.52151 0.94367 0.0
C620 C 0.05019 0.55304 0.93504 0.0
C621 C 0.07348 0.60275 0.9393 0.0
C622 C 0.91655 0.38784 0.93806 0.0
C623 C 0.93759 0.36827 0.95087 0.0
C624 C 0.93988 0.43791 0.93453 0.0
C625 C 0.98514 0.4686 0.94323 0.0
C626 C 0.00797 0.44854 0.95458 0.0
C627 C 0.98412 0.39876 0.95858 0.0
H628 H 0.58619 0.98783 0.32403 0.0
H629 H 0.52974 0.90531 0.26913 0.0
H630 H 0.53711 0.02579 0.31859 0.0
H631 H 0.4806 0.94413 0.26374 0.0
H632 H 0.44423 0.08385 0.26768 0.0
H633 H 0.49463 0.04596 0.26352 0.0
H634 H 0.43363 0.96314 0.3179 0.0
H635 H 0.3833 0.00012 0.32211 0.0
C636 C 0.5643 0.97871 0.31053 0.0
C637 C 0.56116 0.94292 0.29721 0.0
C638 C 0.53625 0.00043 0.30746 0.0
C639 C 0.50479 0.98709 0.29095 0.0
C640 C 0.5047 0.95474 0.27658 0.0
C641 C 0.53284 0.93272 0.27968 0.0
C642 C 0.44052 0.05643 0.27839 0.0
C643 C 0.41045 0.04556 0.29543 0.0
C644 C 0.46939 0.03497 0.276 0.0
C645 C 0.4683 0.00253 0.29061 0.0
C646 C 0.43531 0.98862 0.30661 0.0
C647 C 0.40653 0.00977 0.30898 0.0
loop_
_geom_bond_atom_site_label_1
_geom_bond_atom_site_label_2
_geom_bond_distance
_geom_bond_site_symmetry_2
_ccdc_geom_bond_type
Zn0 O3 2.031 . S
Zn0 O5 2.049 . S
Zn0 O10 2.067 . S
Zn1 O2 1.962 . S
Zn1 O4 1.986 . S
Zn1 O6 1.996 . S
Zn1 O9 1.943 . S
O2 Zn1 1.962 . S
O2 C7 1.254 . S
O3 Zn0 2.031 . S
O3 C7 1.269 . S
O4 Zn1 1.986 . S
O4 C11 1.262 . S
O5 Zn0 2.049 . S
O5 C13 1.260 . S
O6 Zn1 1.996 . S
O6 C13 1.257 . S
C7 O2 1.254 . S
C7 O3 1.269 . S
C8 O9 1.249 . S
C8 O10 1.270 . S
O9 Zn1 1.943 . S
O9 C8 1.249 . S
O10 Zn0 2.067 . S
O10 C8 1.270 . S
C11 O4 1.262 . S
C11 O12 1.232 . S
O12 C11 1.232 . S
C13 O5 1.260 . S
C13 O6 1.257 . S
Zn14 O17 2.031 . S
Zn14 O19 2.049 . S
Zn14 O24 2.067 . S
Zn15 O16 1.962 . S
Zn15 O18 1.986 . S
Zn15 O20 1.996 . S
Zn15 O23 1.943 . S
O16 Zn15 1.962 . S
O16 C21 1.254 . S
O17 Zn14 2.031 . S
O17 C21 1.269 . S
O18 Zn15 1.986 . S
O18 C25 1.262 . S
O19 Zn14 2.049 . S
O19 C27 1.260 . S
O20 Zn15 1.996 . S
O20 C27 1.257 . S
C21 O16 1.254 . S
C21 O17 1.269 . S
C22 O23 1.249 . S
C22 O24 1.270 . S
O23 Zn15 1.943 . S
O23 C22 1.249 . S
O24 Zn14 2.067 . S
O24 C22 1.270 . S
C25 O18 1.262 . S
C25 O26 1.232 . S
O26 C25 1.232 . S
C27 O19 1.260 . S
C27 O20 1.257 . S
Zn28 O31 2.031 . S
Zn28 O33 2.049 . S
Zn28 O38 2.067 . S
Zn29 O30 1.962 . S
Zn29 O32 1.986 . S
Zn29 O34 1.996 . S
Zn29 O37 1.943 . S
O30 Zn29 1.962 . S
O30 C35 1.254 . S
O31 Zn28 2.031 . S
O31 C35 1.269 . S
O32 Zn29 1.986 . S
O32 C39 1.262 . S
O33 Zn28 2.049 . S
O33 C41 1.260 . S
O34 Zn29 1.996 . S
O34 C41 1.257 . S
C35 O30 1.254 . S
C35 O31 1.269 . S
C36 O37 1.249 . S
C36 O38 1.270 . S
O37 Zn29 1.943 . S
O37 C36 1.249 . S
O38 Zn28 2.067 . S
O38 C36 1.270 . S
C39 O32 1.262 . S
C39 O40 1.232 . S
O40 C39 1.232 . S
C41 O33 1.260 . S
C41 O34 1.257 . S
Zn42 O45 2.031 . S
Zn42 O47 2.049 . S
Zn42 O52 2.067 . S
Zn43 O44 1.962 . S
Zn43 O46 1.986 . S
Zn43 O48 1.996 . S
Zn43 O51 1.943 . S
O44 Zn43 1.962 . S
O44 C49 1.254 . S
O45 Zn42 2.031 . S
O45 C49 1.269 . S
O46 Zn43 1.986 . S
O46 C53 1.262 . S
O47 Zn42 2.049 . S
O47 C55 1.260 . S
O48 Zn43 1.996 . S
O48 C55 1.257 . S
C49 O44 1.254 . S
C49 O45 1.269 . S
C50 O51 1.249 . S
C50 O52 1.270 . S
O51 Zn43 1.943 . S
O51 C50 1.249 . S
O52 Zn42 2.067 . S
O52 C50 1.270 . S
C53 O46 1.262 . S
C53 O54 1.232 . S
O54 C53 1.232 . S
C55 O47 1.260 . S
C55 O48 1.257 . S
Zn56 O59 2.031 . S
Zn56 O61 2.049 . S
Zn56 O66 2.067 . S
Zn57 O58 1.962 . S
Zn57 O60 1.986 . S
Zn57 O62 1.996 . S
Zn57 O65 1.943 . S
O58 Zn57 1.962 . S
O58 C63 1.254 . S
O59 Zn56 2.031 . S
O59 C63 1.269 . S
O60 Zn57 1.986 . S
O60 C67 1.262 . S
O61 Zn56 2.049 . S
O61 C69 1.260 . S
O62 Zn57 1.996 . S
O62 C69 1.257 . S
C63 O58 1.254 . S
C63 O59 1.269 . S
C64 O65 1.249 . S
C64 O66 1.270 . S
O65 Zn57 1.943 . S
O65 C64 1.249 . S
O66 Zn56 2.067 . S
O66 C64 1.270 . S
C67 O60 1.262 . S
C67 O68 1.232 . S
O68 C67 1.232 . S
C69 O61 1.260 . S
C69 O62 1.257 . S
Zn70 O73 2.031 . S
Zn70 O75 2.049 . S
Zn70 O80 2.067 . S
Zn71 O72 1.962 . S
Zn71 O74 1.986 . S
Zn71 O76 1.996 . S
Zn71 O79 1.943 . S
O72 Zn71 1.962 . S
O72 C77 1.254 . S
O73 Zn70 2.031 . S
O73 C77 1.269 . S
O74 Zn71 1.986 . S
O74 C81 1.262 . S
O75 Zn70 2.049 . S
O75 C83 1.260 . S
O76 Zn71 1.996 . S
O76 C83 1.257 . S
C77 O72 1.254 . S
C77 O73 1.269 . S
C78 O79 1.249 . S
C78 O80 1.270 . S
O79 Zn71 1.943 . S
O79 C78 1.249 . S
O80 Zn70 2.067 . S
O80 C78 1.270 . S
C81 O74 1.262 . S
C81 O82 1.232 . S
O82 C81 1.232 . S
C83 O75 1.260 . S
C83 O76 1.257 . S
Zn84 O87 2.031 . S
Zn84 O89 2.049 . S
Zn84 O94 2.067 . S
Zn85 O86 1.962 . S
Zn85 O88 1.986 . S
Zn85 O90 1.996 . S
Zn85 O93 1.943 . S
O86 Zn85 1.962 . S
O86 C91 1.254 . S
O87 Zn84 2.031 . S
O87 C91 1.269 . S
O88 Zn85 1.986 . S
O88 C95 1.262 . S
O89 Zn84 2.049 . S
O89 C97 1.260 . S
O90 Zn85 1.996 . S
O90 C97 1.257 . S
C91 O86 1.254 . S
C91 O87 1.269 . S
C92 O93 1.249 . S
C92 O94 1.270 . S
O93 Zn85 1.943 . S
O93 C92 1.249 . S
O94 Zn84 2.067 . S
O94 C92 1.270 . S
C95 O88 1.262 . S
C95 O96 1.232 . S
O96 C95 1.232 . S
C97 O89 1.260 . S
C97 O90 1.257 . S
Zn98 O101 2.031 . S
Zn98 O103 2.049 . S
Zn98 O108 2.067 . S
Zn99 O100 1.962 . S
Zn99 O102 1.986 . S
Zn99 O104 1.996 . S
Zn99 O107 1.943 . S
O100 Zn99 1.962 . S
O100 C105 1.254 . S
O101 Zn98 2.031 . S
O101 C105 1.269 . S
O102 Zn99 1.986 . S
O102 C109 1.262 . S
O103 Zn98 2.049 . S
O103 C111 1.260 . S
O104 Zn99 1.996 . S
O104 C111 1.257 . S
C105 O100 1.254 . S
C105 O101 1.269 . S
C106 O107 1.249 . S
C106 O108 1.270 . S
O107 Zn99 1.943 . S
O107 C106 1.249 . S
O108 Zn98 2.067 . S
O108 C106 1.270 . S
C109 O102 1.262 . S
C109 O110 1.232 . S
O110 C109 1.232 . S
C111 O103 1.260 . S
C111 O104 1.257 . S
Zn112 O115 2.031 . S
Zn112 O117 2.049 . S
Zn112 O122 2.067 . S
Zn113 O114 1.962 . S
Zn113 O116 1.986 . S
Zn113 O118 1.996 . S
Zn113 O121 1.943 . S
O114 Zn113 1.962 . S
O114 C119 1.254 . S
O115 Zn112 2.031 . S
O115 C119 1.269 . S
O116 Zn113 1.986 . S
O116 C123 1.262 . S
O117 Zn112 2.049 . S
O117 C125 1.260 . S
O118 Zn113 1.996 . S
O118 C125 1.257 . S
C119 O114 1.254 . S
C119 O115 1.269 . S
C120 O121 1.249 . S
C120 O122 1.270 . S
O121 Zn113 1.943 . S
O121 C120 1.249 . S
O122 Zn112 2.067 . S
O122 C120 1.270 . S
C123 O116 1.262 . S
C123 O124 1.232 . S
O124 C123 1.232 . S
C125 O117 1.260 . S
C125 O118 1.257 . S
Zn126 O129 2.031 . S
Zn126 O131 2.049 . S
Zn126 O136 2.067 . S
Zn127 O128 1.962 . S
Zn127 O130 1.986 . S
Zn127 O132 1.996 . S
Zn127 O135 1.943 . S
O128 Zn127 1.962 . S
O128 C133 1.254 . S
O129 Zn126 2.031 . S
O129 C133 1.269 . S
O130 Zn127 1.986 . S
O130 C137 1.262 . S
O131 Zn126 2.049 . S
O131 C139 1.260 . S
O132 Zn127 1.996 . S
O132 C139 1.257 . S
C133 O128 1.254 . S
C133 O129 1.269 . S
C134 O135 1.249 . S
C134 O136 1.270 . S
O135 Zn127 1.943 . S
O135 C134 1.249 . S
O136 Zn126 2.067 . S
O136 C134 1.270 . S
C137 O130 1.262 . S
C137 O138 1.232 . S
O138 C137 1.232 . S
C139 O131 1.260 . S
C139 O132 1.257 . S
Zn140 O143 2.031 . S
Zn140 O145 2.049 . S
Zn140 O150 2.067 . S
Zn141 O142 1.962 . S
Zn141 O144 1.986 . S
Zn141 O146 1.996 . S
Zn141 O149 1.943 . S
O142 Zn141 1.962 . S
O142 C147 1.254 . S
O143 Zn140 2.031 . S
O143 C147 1.269 . S
O144 Zn141 1.986 . S
O144 C151 1.262 . S
O145 Zn140 2.049 . S
O145 C153 1.260 . S
O146 Zn141 1.996 . S
O146 C153 1.257 . S
C147 O142 1.254 . S
C147 O143 1.269 . S
C148 O149 1.249 . S
C148 O150 1.270 . S
O149 Zn141 1.943 . S
O149 C148 1.249 . S
O150 Zn140 2.067 . S
O150 C148 1.270 . S
C151 O144 1.262 . S
C151 O152 1.232 . S
O152 C151 1.232 . S
C153 O145 1.260 . S
C153 O146 1.257 . S
Zn154 O157 2.031 . S
Zn154 O159 2.049 . S
Zn154 O164 2.067 . S
Zn155 O156 1.962 . S
Zn155 O158 1.986 . S
Zn155 O160 1.996 . S
Zn155 O163 1.943 . S
O156 Zn155 1.962 . S
O156 C161 1.254 . S
O157 Zn154 2.031 . S
O157 C161 1.269 . S
O158 Zn155 1.986 . S
O158 C165 1.262 . S
O159 Zn154 2.049 . S
O159 C167 1.260 . S
O160 Zn155 1.996 . S
O160 C167 1.257 . S
C161 O156 1.254 . S
C161 O157 1.269 . S
C162 O163 1.249 . S
C162 O164 1.270 . S
O163 Zn155 1.943 . S
O163 C162 1.249 . S
O164 Zn154 2.067 . S
O164 C162 1.270 . S
C165 O158 1.262 . S
C165 O166 1.232 . S
O166 C165 1.232 . S
C167 O159 1.260 . S
C167 O160 1.257 . S
H168 C176 0.950 . S
H169 C181 0.950 1_554 S
H170 C178 0.950 . S
H171 C180 0.950 . S
H172 C182 0.950 . S
H173 C184 0.950 . S
H174 C186 0.950 . S
H175 C187 0.950 1_556 S
C176 H168 0.950 . S
C176 C177 1.386 . S
C176 C178 1.391 . S
C177 C176 1.386 . S
C177 C181 1.393 . S
C178 H170 0.950 . S
C178 C176 1.391 . S
C178 C179 1.400 . S
C179 C178 1.400 . S
C179 C180 1.398 1_556 S
C179 C185 1.491 1_566 S
C180 H171 0.950 . S
C180 C179 1.398 1_554 S
C180 C181 1.391 1_554 S
C181 H169 0.950 1_556 S
C181 C177 1.393 . S
C181 C180 1.391 1_556 S
C182 H172 0.950 . S
C182 C183 1.386 . S
C182 C184 1.391 . S
C183 C182 1.386 . S
C183 C187 1.393 . S
C184 H173 0.950 . S
C184 C182 1.391 . S
C184 C185 1.400 . S
C185 C179 1.491 1_544 S
C185 C184 1.400 . S
C185 C186 1.398 1_554 S
C186 H174 0.950 . S
C186 C185 1.398 1_556 S
C186 C187 1.391 1_556 S
C187 H175 0.950 1_554 S
C187 C183 1.393 . S
C187 C186 1.391 1_554 S
H188 C196 0.950 . S
H189 C201 0.950 . S
H190 C198 0.950 . S
H191 C200 0.950 . S
H192 C202 0.950 . S
H193 C204 0.950 . S
H194 C206 0.950 . S
H195 C207 0.950 . S
C196 H188 0.950 . S
C196 C197 1.386 . S
C196 C198 1.391 . S
C197 C196 1.386 . S
C197 C201 1.393 . S
C198 H190 0.950 . S
C198 C196 1.391 . S
C198 C199 1.400 . S
C199 C198 1.400 . S
C199 C200 1.398 . S
C199 C205 1.491 . S
C200 H191 0.950 . S
C200 C199 1.398 . S
C200 C201 1.391 . S
C201 H189 0.950 . S
C201 C197 1.393 . S
C201 C200 1.391 . S
C202 H192 0.950 . S
C202 C203 1.386 . S
C202 C204 1.391 . S
C203 C202 1.386 . S
C203 C207 1.393 . S
C204 H193 0.950 . S
C204 C202 1.391 . S
C204 C205 1.400 . S
C205 C199 1.491 . S
C205 C204 1.400 . S
C205 C206 1.398 . S
C206 H194 0.950 . S
C206 C205 1.398 . S
C206 C207 1.391 . S
C207 H195 0.950 . S
C207 C203 1.393 . S
C207 C206 1.391 . S
H208 C216 0.950 . S
H209 C221 0.950 . S
H210 C218 0.950 . S
H211 C220 0.950 . S
H212 C222 0.950 . S
H213 C224 0.950 . S
H214 C226 0.950 . S
H215 C227 0.950 . S
C216 H208 0.950 . S
C216 C217 1.386 . S
C216 C218 1.391 . S
C217 C216 1.386 . S
C217 C221 1.393 . S
C218 H210 0.950 . S
C218 C216 1.391 . S
C218 C219 1.400 . S
C219 C218 1.400 . S
C219 C220 1.398 . S
C219 C225 1.491 1_655 S
C220 H211 0.950 . S
C220 C219 1.398 . S
C220 C221 1.391 . S
C221 H209 0.950 . S
C221 C217 1.393 . S
C221 C220 1.391 . S
C222 H212 0.950 . S
C222 C223 1.386 . S
C222 C224 1.391 . S
C223 C222 1.386 . S
C223 C227 1.393 . S
C224 H213 0.950 . S
C224 C222 1.391 . S
C224 C225 1.400 . S
C225 C219 1.491 1_455 S
C225 C224 1.400 . S
C225 C226 1.398 . S
C226 H214 0.950 . S
C226 C225 1.398 . S
C226 C227 1.391 . S
C227 H215 0.950 . S
C227 C223 1.393 . S
C227 C226 1.391 . S
H228 C236 0.950 . S
H229 C241 0.950 . S
H230 C238 0.938 1_556 S
H231 C240 0.950 . S
H232 C242 0.950 . S
H233 C244 0.938 1_554 S
H234 C246 0.950 . S
H235 C247 0.950 . S
C236 H228 0.950 . S
C236 C237 1.386 . S
C236 C238 1.400 . S
C237 C236 1.386 . S
C237 C241 1.393 . S
C238 H230 0.938 1_554 S
C238 C236 1.400 . S
C238 C239 1.404 . S
C239 C238 1.404 . S
C239 C240 1.398 . S
C239 C245 1.491 1_564 S
C240 H231 0.950 . S
C240 C239 1.398 . S
C240 C241 1.391 . S
C241 H229 0.950 . S
C241 C237 1.393 . S
C241 C240 1.391 . S
C242 H232 0.950 . S
C242 C243 1.386 . S
C242 C244 1.400 . S
C243 C242 1.386 . S
C243 C247 1.393 . S
C244 H233 0.938 1_556 S
C244 C242 1.400 . S
C244 C245 1.404 . S
C245 C239 1.491 1_546 S
C245 C244 1.404 . S
C245 C246 1.398 . S
C246 H234 0.950 . S
C246 C245 1.398 . S
C246 C247 1.391 . S
C247 H235 0.950 . S
C247 C243 1.393 . S
C247 C246 1.391 . S
H248 C256 0.950 . S
H249 C261 0.950 . S
H250 C258 0.950 . S
H251 C260 0.950 . S
H252 C262 0.950 . S
H253 C264 0.950 . S
H254 C266 0.950 . S
H255 C267 0.950 . S
C256 H248 0.950 . S
C256 C257 1.386 . S
C256 C258 1.391 . S
C257 C256 1.386 . S
C257 C261 1.393 . S
C258 H250 0.950 . S
C258 C256 1.391 . S
C258 C259 1.400 . S
C259 C258 1.400 . S
C259 C260 1.398 . S
C259 C265 1.491 . S
C260 H251 0.950 . S
C260 C259 1.398 . S
C260 C261 1.391 . S
C261 H249 0.950 . S
C261 C257 1.393 . S
C261 C260 1.391 . S
C262 H252 0.950 . S
C262 C263 1.386 . S
C262 C264 1.391 . S
C263 C262 1.386 . S
C263 C267 1.393 . S
C264 H253 0.950 . S
C264 C262 1.391 . S
C264 C265 1.400 . S
C265 C259 1.491 . S
C265 C264 1.400 . S
C265 C266 1.398 . S
C266 H254 0.950 . S
C266 C265 1.398 . S
C266 C267 1.391 . S
C267 H255 0.950 . S
C267 C263 1.393 . S
C267 C266 1.391 . S
H268 C276 0.950 . S
H269 C281 0.950 . S
H270 C278 0.950 . S
H271 C280 0.950 . S
H272 C282 0.950 . S
H273 C284 0.950 . S
H274 C286 0.950 . S
H275 C287 0.950 . S
C276 H268 0.950 . S
C276 C277 1.386 . S
C276 C278 1.391 . S
C277 C276 1.386 . S
C277 C281 1.393 . S
C278 H270 0.950 . S
C278 C276 1.391 . S
C278 C279 1.400 . S
C279 C278 1.400 . S
C279 C280 1.398 . S
C279 C285 1.491 1_655 S
C280 H271 0.950 . S
C280 C279 1.398 . S
C280 C281 1.391 . S
C281 H269 0.950 . S
C281 C277 1.393 . S
C281 C280 1.391 . S
C282 H272 0.950 . S
C282 C283 1.386 . S
C282 C284 1.391 . S
C283 C282 1.386 . S
C283 C287 1.393 . S
C284 H273 0.950 . S
C284 C282 1.391 . S
C284 C285 1.400 . S
C285 C279 1.491 1_455 S
C285 C284 1.400 . S
C285 C286 1.398 . S
C286 H274 0.950 . S
C286 C285 1.398 . S
C286 C287 1.391 . S
C287 H275 0.950 . S
C287 C283 1.393 . S
C287 C286 1.391 . S
H288 C296 0.950 . S
H289 C301 0.950 . S
H290 C298 0.972 . S
H291 C300 0.950 . S
H292 C302 0.950 . S
H293 C304 0.972 . S
H294 C306 0.950 . S
H295 C307 0.950 . S
C296 H288 0.950 . S
C296 C297 1.386 . S
C296 C298 1.378 1_556 S
C297 C296 1.386 . S
C297 C301 1.393 . S
C298 H290 0.972 . S
C298 C296 1.378 1_554 S
C298 C299 1.392 1_554 S
C299 C298 1.392 1_556 S
C299 C300 1.398 . S
C299 C305 1.491 1_556 S
C300 H291 0.950 . S
C300 C299 1.398 . S
C300 C301 1.391 . S
C301 H289 0.950 . S
C301 C297 1.393 . S
C301 C300 1.391 . S
C302 H292 0.950 . S
C302 C303 1.386 . S
C302 C304 1.378 1_554 S
C303 C302 1.386 . S
C303 C307 1.393 . S
C304 H293 0.972 . S
C304 C302 1.378 1_556 S
C304 C305 1.392 1_556 S
C305 C299 1.491 1_554 S
C305 C304 1.392 1_554 S
C305 C306 1.398 . S
C306 H294 0.950 . S
C306 C305 1.398 . S
C306 C307 1.391 . S
C307 H295 0.950 . S
C307 C303 1.393 . S
C307 C306 1.391 . S
H308 C316 0.950 . S
H309 C321 0.950 . S
H310 C318 0.950 . S
H311 C320 0.950 . S
H312 C322 0.950 . S
H313 C324 0.950 . S
H314 C326 0.950 . S
H315 C327 0.950 . S
C316 H308 0.950 . S
C316 C317 1.386 . S
C316 C318 1.391 . S
C317 C316 1.386 . S
C317 C321 1.393 . S
C318 H310 0.950 . S
C318 C316 1.391 . S
C318 C319 1.400 . S
C319 C318 1.400 . S
C319 C320 1.398 . S
C319 C325 1.491 . S
C320 H311 0.950 . S
C320 C319 1.398 . S
C320 C321 1.391 . S
C321 H309 0.950 . S
C321 C317 1.393 . S
C321 C320 1.391 . S
C322 H312 0.950 . S
C322 C323 1.386 . S
C322 C324 1.391 . S
C323 C322 1.386 . S
C323 C327 1.393 . S
C324 H313 0.950 . S
C324 C322 1.391 . S
C324 C325 1.400 . S
C325 C319 1.491 . S
C325 C324 1.400 . S
C325 C326 1.398 . S
C326 H314 0.950 . S
C326 C325 1.398 . S
C326 C327 1.391 . S
C327 H315 0.950 . S
C327 C323 1.393 . S
C327 C326 1.391 . S
H328 C336 0.950 . S
H329 C341 0.950 . S
H330 C338 0.950 . S
H331 C340 0.950 . S
H332 C342 0.950 . S
H333 C344 0.950 . S
H334 C346 0.950 . S
H335 C347 0.950 . S
C336 H328 0.950 . S
C336 C337 1.386 . S
C336 C338 1.391 . S
C337 C336 1.386 . S
C337 C341 1.393 . S
C338 H330 0.950 . S
C338 C336 1.391 . S
C338 C339 1.400 . S
C339 C338 1.400 . S
C339 C340 1.398 . S
C339 C345 1.491 . S
C340 H331 0.950 . S
C340 C339 1.398 . S
C340 C341 1.391 . S
C341 H329 0.950 . S
C341 C337 1.393 . S
C341 C340 1.391 . S
C342 H332 0.950 . S
C342 C343 1.386 . S
C342 C344 1.391 . S
C343 C342 1.386 . S
C343 C347 1.393 . S
C344 H333 0.950 . S
C344 C342 1.391 . S
C344 C345 1.400 . S
C345 C339 1.491 . S
C345 C344 1.400 . S
C345 C346 1.398 . S
C346 H334 0.950 . S
C346 C345 1.398 . S
C346 C347 1.391 . S
C347 H335 0.950 . S
C347 C343 1.393 . S
C347 C346 1.391 . S
H348 C356 0.950 . S
H349 C361 0.950 . S
H350 C358 0.940 1_554 S
H351 C360 0.950 . S
H352 C362 0.950 . S
H353 C364 0.940 1_556 S
H354 C366 0.950 . S
H355 C367 0.950 . S
C356 H348 0.950 . S
C356 C357 1.386 . S
C356 C358 1.398 . S
C357 C356 1.386 . S
C357 C361 1.393 . S
C358 H350 0.940 1_556 S
C358 C356 1.398 . S
C358 C359 1.404 . S
C359 C358 1.404 . S
C359 C360 1.398 . S
C359 C365 1.491 1_556 S
C360 H351 0.950 . S
C360 C359 1.398 . S
C360 C361 1.391 . S
C361 H349 0.950 . S
C361 C357 1.393 . S
C361 C360 1.391 . S
C362 H352 0.950 . S
C362 C363 1.386 . S
C362 C364 1.398 . S
C363 C362 1.386 . S
C363 C367 1.393 . S
C364 H353 0.940 1_554 S
C364 C362 1.398 . S
C364 C365 1.404 . S
C365 C359 1.491 1_554 S
C365 C364 1.404 . S
C365 C366 1.398 . S
C366 H354 0.950 . S
C366 C365 1.398 . S
C366 C367 1.391 . S
C367 H355 0.950 . S
C367 C363 1.393 . S
C367 C366 1.391 . S
H368 C376 0.950 . S
H369 C381 0.950 . S
H370 C378 0.950 . S
H371 C380 0.950 . S
H372 C382 0.950 . S
H373 C384 0.950 . S
H374 C386 0.950 . S
H375 C387 0.950 . S
C376 H368 0.950 . S
C376 C377 1.386 . S
C376 C378 1.391 . S
C377 C376 1.386 . S
C377 C381 1.393 . S
C378 H370 0.950 . S
C378 C376 1.391 . S
C378 C379 1.400 . S
C379 C378 1.400 . S
C379 C380 1.398 . S
C379 C385 1.491 . S
C380 H371 0.950 . S
C380 C379 1.398 . S
C380 C381 1.391 . S
C381 H369 0.950 . S
C381 C377 1.393 . S
C381 C380 1.391 . S
C382 H372 0.950 . S
C382 C383 1.386 . S
C382 C384 1.391 . S
C383 C382 1.386 . S
C383 C387 1.393 . S
C384 H373 0.950 . S
C384 C382 1.391 . S
C384 C385 1.400 . S
C385 C379 1.491 . S
C385 C384 1.400 . S
C385 C386 1.398 . S
C386 H374 0.950 . S
C386 C385 1.398 . S
C386 C387 1.391 . S
C387 H375 0.950 . S
C387 C383 1.393 . S
C387 C386 1.391 . S
H388 C396 0.950 . S
H389 C401 0.950 . S
H390 C398 0.950 . S
H391 C400 0.950 . S
H392 C402 0.950 . S
H393 C404 0.950 . S
H394 C406 0.950 . S
H395 C407 0.950 . S
C396 H388 0.950 . S
C396 C397 1.386 . S
C396 C398 1.391 . S
C397 C396 1.386 . S
C397 C401 1.393 . S
C398 H390 0.950 . S
C398 C396 1.391 . S
C398 C399 1.400 . S
C399 C398 1.400 . S
C399 C400 1.398 . S
C399 C405 1.491 . S
C400 H391 0.950 . S
C400 C399 1.398 . S
C400 C401 1.391 . S
C401 H389 0.950 . S
C401 C397 1.393 . S
C401 C400 1.391 . S
C402 H392 0.950 . S
C402 C403 1.386 . S
C402 C404 1.391 . S
C403 C402 1.386 . S
C403 C407 1.393 . S
C404 H393 0.950 . S
C404 C402 1.391 . S
C404 C405 1.400 . S
C405 C399 1.491 . S
C405 C404 1.400 . S
C405 C406 1.398 . S
C406 H394 0.950 . S
C406 C405 1.398 . S
C406 C407 1.391 . S
C407 H395 0.950 . S
C407 C403 1.393 . S
C407 C406 1.391 . S
H408 C416 0.950 . S
H409 C421 0.950 . S
H410 C418 0.950 . S
H411 C420 0.950 . S
H412 C422 0.950 . S
H413 C424 0.950 . S
H414 C426 0.950 . S
H415 C427 0.950 . S
C416 H408 0.950 . S
C416 C417 1.386 . S
C416 C418 1.391 . S
C417 C416 1.386 . S
C417 C421 1.393 . S
C418 H410 0.950 . S
C418 C416 1.391 . S
C418 C419 1.400 . S
C419 C418 1.400 . S
C419 C420 1.398 . S
C419 C425 1.491 . S
C420 H411 0.950 . S
C420 C419 1.398 . S
C420 C421 1.391 . S
C421 H409 0.950 . S
C421 C417 1.393 . S
C421 C420 1.391 . S
C422 H412 0.950 . S
C422 C423 1.386 . S
C422 C424 1.391 . S
C423 C422 1.386 . S
C423 C427 1.393 . S
C424 H413 0.950 . S
C424 C422 1.391 . S
C424 C425 1.400 . S
C425 C419 1.491 . S
C425 C424 1.400 . S
C425 C426 1.398 . S
C426 H414 0.950 . S
C426 C425 1.398 . S
C426 C427 1.391 . S
C427 H415 0.950 . S
C427 C423 1.393 . S
C427 C426 1.391 . S
H428 C436 0.950 . S
H429 C441 0.950 . S
H430 C438 0.950 . S
H431 C440 0.950 . S
H432 C442 0.950 . S
H433 C444 0.950 . S
H434 C446 0.950 . S
H435 C447 0.950 . S
C436 H428 0.950 . S
C436 C437 1.386 . S
C436 C438 1.391 . S
C437 C436 1.386 . S
C437 C441 1.393 . S
C438 H430 0.950 . S
C438 C436 1.391 . S
C438 C439 1.400 . S
C439 C438 1.400 . S
C439 C440 1.398 . S
C439 C445 1.491 . S
C440 H431 0.950 . S
C440 C439 1.398 . S
C440 C441 1.391 . S
C441 H429 0.950 . S
C441 C437 1.393 . S
C441 C440 1.391 . S
C442 H432 0.950 . S
C442 C443 1.386 . S
C442 C444 1.391 . S
C443 C442 1.386 . S
C443 C447 1.393 . S
C444 H433 0.950 . S
C444 C442 1.391 . S
C444 C445 1.400 . S
C445 C439 1.491 . S
C445 C444 1.400 . S
C445 C446 1.398 . S
C446 H434 0.950 . S
C446 C445 1.398 . S
C446 C447 1.391 . S
C447 H435 0.950 . S
C447 C443 1.393 . S
C447 C446 1.391 . S
H448 C456 0.950 . S
H449 C461 0.950 . S
H450 C458 0.950 . S
H451 C460 0.950 . S
H452 C462 0.950 . S
H453 C464 0.950 . S
H454 C466 0.950 . S
H455 C467 0.950 . S
C456 H448 0.950 . S
C456 C457 1.386 . S
C456 C458 1.391 . S
C457 C456 1.386 . S
C457 C461 1.393 . S
C458 H450 0.950 . S
C458 C456 1.391 . S
C458 C459 1.400 . S
C459 C458 1.400 . S
C459 C460 1.398 . S
C459 C465 1.491 . S
C460 H451 0.950 . S
C460 C459 1.398 . S
C460 C461 1.391 . S
C461 H449 0.950 . S
C461 C457 1.393 . S
C461 C460 1.391 . S
C462 H452 0.950 . S
C462 C463 1.386 . S
C462 C464 1.391 . S
C463 C462 1.386 . S
C463 C467 1.393 . S
C464 H453 0.950 . S
C464 C462 1.391 . S
C464 C465 1.400 . S
C465 C459 1.491 . S
C465 C464 1.400 . S
C465 C466 1.398 . S
C466 H454 0.950 . S
C466 C465 1.398 . S
C466 C467 1.391 . S
C467 H455 0.950 . S
C467 C463 1.393 . S
C467 C466 1.391 . S
H468 C476 0.950 . S
H469 C481 0.950 . S
H470 C478 0.950 . S
H471 C480 0.950 . S
H472 C482 0.950 . S
H473 C484 0.950 . S
H474 C486 0.950 . S
H475 C487 0.950 . S
C476 H468 0.950 . S
C476 C477 1.386 . S
C476 C478 1.391 . S
C477 C476 1.386 . S
C477 C481 1.393 . S
C478 H470 0.950 . S
C478 C476 1.391 . S
C478 C479 1.400 . S
C479 C478 1.400 . S
C479 C480 1.398 . S
C479 C485 1.491 . S
C480 H471 0.950 . S
C480 C479 1.398 . S
C480 C481 1.391 . S
C481 H469 0.950 . S
C481 C477 1.393 . S
C481 C480 1.391 . S
C482 H472 0.950 . S
C482 C483 1.386 . S
C482 C484 1.391 . S
C483 C482 1.386 . S
C483 C487 1.393 . S
C484 H473 0.950 . S
C484 C482 1.391 . S
C484 C485 1.400 . S
C485 C479 1.491 . S
C485 C484 1.400 . S
C485 C486 1.398 . S
C486 H474 0.950 . S
C486 C485 1.398 . S
C486 C487 1.391 . S
C487 H475 0.950 . S
C487 C483 1.393 . S
C487 C486 1.391 . S
H488 C496 0.950 . S
H489 C501 0.950 . S
H490 C498 0.950 . S
H491 C500 0.950 . S
H492 C502 0.950 . S
H493 C504 0.950 . S
H494 C506 0.950 . S
H495 C507 0.950 . S
C496 H488 0.950 . S
C496 C497 1.386 . S
C496 C498 1.391 . S
C497 C496 1.386 . S
C497 C501 1.393 . S
C498 H490 0.950 . S
C498 C496 1.391 . S
C498 C499 1.400 . S
C499 C498 1.400 . S
C499 C500 1.398 . S
C499 C505 1.491 . S
C500 H491 0.950 . S
C500 C499 1.398 . S
C500 C501 1.391 . S
C501 H489 0.950 . S
C501 C497 1.393 . S
C501 C500 1.391 . S
C502 H492 0.950 . S
C502 C503 1.386 . S
C502 C504 1.391 . S
C503 C502 1.386 . S
C503 C507 1.393 . S
C504 H493 0.950 . S
C504 C502 1.391 . S
C504 C505 1.400 . S
C505 C499 1.491 . S
C505 C504 1.400 . S
C505 C506 1.398 . S
C506 H494 0.950 . S
C506 C505 1.398 . S
C506 C507 1.391 . S
C507 H495 0.950 . S
C507 C503 1.393 . S
C507 C506 1.391 . S
H508 C516 0.950 . S
H509 C521 0.950 . S
H510 C518 0.950 . S
H511 C520 0.950 . S
H512 C522 0.950 . S
H513 C524 0.950 . S
H514 C526 0.950 . S
H515 C527 0.950 . S
C516 H508 0.950 . S
C516 C517 1.386 . S
C516 C518 1.391 . S
C517 C516 1.386 . S
C517 C521 1.393 . S
C518 H510 0.950 . S
C518 C516 1.391 . S
C518 C519 1.400 . S
C519 C518 1.400 . S
C519 C520 1.398 . S
C519 C525 1.491 . S
C520 H511 0.950 . S
C520 C519 1.398 . S
C520 C521 1.391 . S
C521 H509 0.950 . S
C521 C517 1.393 . S
C521 C520 1.391 . S
C522 H512 0.950 . S
C522 C523 1.386 . S
C522 C524 1.391 . S
C523 C522 1.386 . S
C523 C527 1.393 . S
C524 H513 0.950 . S
C524 C522 1.391 . S
C524 C525 1.400 . S
C525 C519 1.491 . S
C525 C524 1.400 . S
C525 C526 1.398 . S
C526 H514 0.950 . S
C526 C525 1.398 . S
C526 C527 1.391 . S
C527 H515 0.950 . S
C527 C523 1.393 . S
C527 C526 1.391 . S
H528 C536 0.950 . S
H529 C541 0.950 . S
H530 C538 0.950 . S
H531 C540 0.950 . S
H532 C542 0.950 . S
H533 C544 0.950 . S
H534 C546 0.950 . S
H535 C547 0.950 . S
C536 H528 0.950 . S
C536 C537 1.386 . S
C536 C538 1.391 . S
C537 C536 1.386 . S
C537 C541 1.393 . S
C538 H530 0.950 . S
C538 C536 1.391 . S
C538 C539 1.400 . S
C539 C538 1.400 . S
C539 C540 1.398 . S
C539 C545 1.491 . S
C540 H531 0.950 . S
C540 C539 1.398 . S
C540 C541 1.391 . S
C541 H529 0.950 . S
C541 C537 1.393 . S
C541 C540 1.391 . S
C542 H532 0.950 . S
C542 C543 1.386 . S
C542 C544 1.391 . S
C543 C542 1.386 . S
C543 C547 1.393 . S
C544 H533 0.950 . S
C544 C542 1.391 . S
C544 C545 1.400 . S
C545 C539 1.491 . S
C545 C544 1.400 . S
C545 C546 1.398 . S
C546 H534 0.950 . S
C546 C545 1.398 . S
C546 C547 1.391 . S
C547 H535 0.950 . S
C547 C543 1.393 . S
C547 C546 1.391 . S
H548 C556 0.950 . S
H549 C561 0.950 . S
H550 C558 0.950 . S
H551 C560 0.950 1_455 S
H552 C562 0.950 . S
H553 C564 0.950 . S
H554 C566 0.950 1_655 S
H555 C567 0.950 . S
C556 H548 0.950 . S
C556 C557 1.386 . S
C556 C558 1.391 . S
C557 C556 1.386 . S
C557 C561 1.393 . S
C558 H550 0.950 . S
C558 C556 1.391 . S
C558 C559 1.400 . S
C559 C558 1.400 . S
C559 C560 1.398 . S
C559 C565 1.491 1_655 S
C560 H551 0.950 1_655 S
C560 C559 1.398 . S
C560 C561 1.391 . S
C561 H549 0.950 . S
C561 C557 1.393 . S
C561 C560 1.391 . S
C562 H552 0.950 . S
C562 C563 1.386 . S
C562 C564 1.391 . S
C563 C562 1.386 . S
C563 C567 1.393 . S
C564 H553 0.950 . S
C564 C562 1.391 . S
C564 C565 1.400 . S
C565 C559 1.491 1_455 S
C565 C564 1.400 . S
C565 C566 1.398 . S
C566 H554 0.950 1_455 S
C566 C565 1.398 . S
C566 C567 1.391 . S
C567 H555 0.950 . S
C567 C563 1.393 . S
C567 C566 1.391 . S
H568 C576 0.950 1_565 S
H569 C581 0.950 . S
H570 C578 0.950 . S
H571 C580 0.950 . S
H572 C582 0.950 1_545 S
H573 C584 0.950 . S
H574 C586 0.950 . S
H575 C587 0.950 . S
C576 H568 0.950 1_545 S
C576 C577 1.386 . S
C576 C578 1.391 1_545 S
C577 C576 1.386 . S
C577 C581 1.393 . S
C578 H570 0.950 . S
C578 C576 1.391 1_565 S
C578 C579 1.400 1_565 S
C579 C578 1.400 1_545 S
C579 C580 1.398 . S
C579 C585 1.491 1_545 S
C580 H571 0.950 . S
C580 C579 1.398 . S
C580 C581 1.391 . S
C581 H569 0.950 . S
C581 C577 1.393 . S
C581 C580 1.391 . S
C582 H572 0.950 1_565 S
C582 C583 1.386 . S
C582 C584 1.391 1_565 S
C583 C582 1.386 . S
C583 C587 1.393 . S
C584 H573 0.950 . S
C584 C582 1.391 1_545 S
C584 C585 1.400 1_545 S
C585 C579 1.491 1_565 S
C585 C584 1.400 1_565 S
C585 C586 1.398 . S
C586 H574 0.950 . S
C586 C585 1.398 . S
C586 C587 1.391 . S
C587 H575 0.950 . S
C587 C583 1.393 . S
C587 C586 1.391 . S
H588 C596 0.950 . S
H589 C601 0.950 . S
H590 C598 0.950 . S
H591 C600 0.950 . S
H592 C602 0.950 . S
H593 C604 0.950 . S
H594 C606 0.950 . S
H595 C607 0.950 . S
C596 H588 0.950 . S
C596 C597 1.386 . S
C596 C598 1.391 . S
C597 C596 1.386 . S
C597 C601 1.393 . S
C598 H590 0.950 . S
C598 C596 1.391 . S
C598 C599 1.400 . S
C599 C598 1.400 . S
C599 C600 1.398 . S
C599 C605 1.491 . S
C600 H591 0.950 . S
C600 C599 1.398 . S
C600 C601 1.391 . S
C601 H589 0.950 . S
C601 C597 1.393 . S
C601 C600 1.391 . S
C602 H592 0.950 . S
C602 C603 1.386 . S
C602 C604 1.391 . S
C603 C602 1.386 . S
C603 C607 1.393 . S
C604 H593 0.950 . S
C604 C602 1.391 . S
C604 C605 1.400 . S
C605 C599 1.491 . S
C605 C604 1.400 . S
C605 C606 1.398 . S
C606 H594 0.950 . S
C606 C605 1.398 . S
C606 C607 1.391 . S
C607 H595 0.950 . S
C607 C603 1.393 . S
C607 C606 1.391 . S
H608 C616 0.950 . S
H609 C621 0.950 . S
H610 C618 0.950 . S
H611 C620 0.950 . S
H612 C622 0.950 . S
H613 C624 0.950 . S
H614 C626 0.950 . S
H615 C627 0.950 . S
C616 H608 0.950 . S
C616 C617 1.386 . S
C616 C618 1.391 . S
C617 C616 1.386 . S
C617 C621 1.393 . S
C618 H610 0.950 . S
C618 C616 1.391 . S
C618 C619 1.400 . S
C619 C618 1.400 . S
C619 C620 1.398 1_455 S
C619 C625 1.491 1_455 S
C620 H611 0.950 . S
C620 C619 1.398 1_655 S
C620 C621 1.391 1_655 S
C621 H609 0.950 . S
C621 C617 1.393 . S
C621 C620 1.391 1_455 S
C622 H612 0.950 . S
C622 C623 1.386 . S
C622 C624 1.391 . S
C623 C622 1.386 . S
C623 C627 1.393 . S
C624 H613 0.950 . S
C624 C622 1.391 . S
C624 C625 1.400 . S
C625 C619 1.491 1_655 S
C625 C624 1.400 . S
C625 C626 1.398 1_655 S
C626 H614 0.950 . S
C626 C625 1.398 1_455 S
C626 C627 1.391 1_455 S
C627 H615 0.950 . S
C627 C623 1.393 . S
C627 C626 1.391 1_655 S
H628 C636 0.950 . S
H629 C641 0.950 1_545 S
H630 C638 0.950 . S
H631 C640 0.950 . S
H632 C642 0.950 . S
H633 C644 0.950 . S
H634 C646 0.950 . S
H635 C647 0.950 1_565 S
C636 H628 0.950 . S
C636 C637 1.386 . S
C636 C638 1.391 . S
C637 C636 1.386 . S
C637 C641 1.393 . S
C638 H630 0.950 . S
C638 C636 1.391 . S
C638 C639 1.400 . S
C639 C638 1.400 . S
C639 C640 1.398 1_565 S
C639 C645 1.491 1_565 S
C640 H631 0.950 . S
C640 C639 1.398 1_545 S
C640 C641 1.391 1_545 S
C641 H629 0.950 1_565 S
C641 C637 1.393 . S
C641 C640 1.391 1_565 S
C642 H632 0.950 . S
C642 C643 1.386 . S
C642 C644 1.391 . S
C643 C642 1.386 . S
C643 C647 1.393 . S
C644 H633 0.950 . S
C644 C642 1.391 . S
C644 C645 1.400 . S
C645 C639 1.491 1_545 S
C645 C644 1.400 . S
C645 C646 1.398 1_545 S
C646 H634 0.950 . S
C646 C645 1.398 1_565 S
C646 C647 1.391 1_565 S
C647 H635 0.950 1_545 S
C647 C643 1.393 . S
C647 C646 1.391 1_545 S
C177 C105 1.284 . S
C183 C7 1.273 . S
C197 C21 1.280 . S
C203 C119 1.275 . S
C217 C35 1.281 . S
C223 C133 1.279 . S
C237 C49 1.274 . S
C243 C147 1.283 . S
C257 C161 1.270 . S
C263 C63 1.287 . S
C277 C91 1.281 . S
C283 C77 1.278 . S
C297 C148 1.290 . S
C303 C8 1.299 . S
C317 C22 1.296 . S
C323 C162 1.281 . S
C337 C36 1.296 . S
C343 C92 1.282 . S
C357 C106 1.291 . S
C363 C50 1.299 . S
C377 C120 1.299 . S
C383 C64 1.287 . S
C397 C134 1.278 . S
C403 C78 1.292 . S
C417 C11 1.585 . S
C423 C123 1.585 . S
C437 C25 1.588 . S
C443 C137 1.586 . S
C457 C151 1.586 . S
C463 C39 1.585 . S
C477 C53 1.585 . S
C483 C165 1.587 . S
C497 C95 1.589 . S
C503 C67 1.589 . S
C517 C109 1.586 . S
C523 C81 1.585 . S
C537 C55 1.204 . S
C543 C13 1.234 . S
C557 C69 1.203 . S
C563 C27 1.223 . S
C577 C41 1.239 . S
C583 C83 1.209 . S
C597 C97 1.222 . S
C603 C139 1.238 . S
C617 C111 1.222 . S
C623 C153 1.239 . S
C637 C167 1.215 . S
C643 C125 1.239 . S
