# Generated by pormake.
# Topology why, (6)-cn, num edge types: 1
# Building blocks:
#     Node 0, Type 0, BuildingBlock: HISSIN_clean_sbu_0, # of connection points: 6
#     Node 1, Type 0, BuildingBlock: HISSIN_clean_sbu_0, # of connection points: 6
#     Node 2, Type 0, BuildingBlock: HISSIN_clean_sbu_0, # of connection points: 6
#     Node 3, Type 0, BuildingBlock: HISSIN_clean_sbu_0, # of connection points: 6
#     Node 4, Type 0, BuildingBlock: HISSIN_clean_sbu_0, # of connection points: 6
#     Node 5, Type 0, BuildingBlock: HISSIN_clean_sbu_0, # of connection points: 6
#     Node 6, Type 0, BuildingBlock: HISSIN_clean_sbu_0, # of connection points: 6
#     Node 7, Type 0, BuildingBlock: HISSIN_clean_sbu_0, # of connection points: 6
#     Node 8, Type 0, BuildingBlock: HISSIN_clean_sbu_0, # of connection points: 6
#     Node 9, Type 0, BuildingBlock: HISSIN_clean_sbu_0, # of connection points: 6
#     Node 10, Type 0, BuildingBlock: HISSIN_clean_sbu_0, # of connection points: 6
#     Node 11, Type 0, BuildingBlock: HISSIN_clean_sbu_0, # of connection points: 6
#     Node 12, Type 0, BuildingBlock: HISSIN_clean_sbu_0, # of connection points: 6
#     Node 13, Type 0, BuildingBlock: HISSIN_clean_sbu_0, # of connection points: 6
#     Node 14, Type 0, BuildingBlock: HISSIN_clean_sbu_0, # of connection points: 6
#     Node 15, Type 0, BuildingBlock: HISSIN_clean_sbu_0, # of connection points: 6
#     Edge 16, Type (0, 0), BuildingBlock: AJUNOK_clean_linker_0, # of connection points: 2
#     Edge 17, Type (0, 0), BuildingBlock: AJUNOK_clean_linker_0, # of connection points: 2
#     Edge 18, Type (0, 0), BuildingBlock: AJUNOK_clean_linker_0, # of connection points: 2
#     Edge 19, Type (0, 0), BuildingBlock: AJUNOK_clean_linker_0, # of connection points: 2
#     Edge 20, Type (0, 0), BuildingBlock: AJUNOK_clean_linker_0, # of connection points: 2
#     Edge 21, Type (0, 0), BuildingBlock: AJUNOK_clean_linker_0, # of connection points: 2
#     Edge 22, Type (0, 0), BuildingBlock: AJUNOK_clean_linker_0, # of connection points: 2
#     Edge 23, Type (0, 0), BuildingBlock: AJUNOK_clean_linker_0, # of connection points: 2
#     Edge 24, Type (0, 0), BuildingBlock: AJUNOK_clean_linker_0, # of connection points: 2
#     Edge 25, Type (0, 0), BuildingBlock: AJUNOK_clean_linker_0, # of connection points: 2
#     Edge 26, Type (0, 0), BuildingBlock: AJUNOK_clean_linker_0, # of connection points: 2
#     Edge 27, Type (0, 0), BuildingBlock: AJUNOK_clean_linker_0, # of connection points: 2
#     Edge 28, Type (0, 0), BuildingBlock: AJUNOK_clean_linker_0, # of connection points: 2
#     Edge 29, Type (0, 0), BuildingBlock: AJUNOK_clean_linker_0, # of connection points: 2
#     Edge 30, Type (0, 0), BuildingBlock: AJUNOK_clean_linker_0, # of connection points: 2
#     Edge 31, Type (0, 0), BuildingBlock: AJUNOK_clean_linker_0, # of connection points: 2
#     Edge 32, Type (0, 0), BuildingBlock: AJUNOK_clean_linker_0, # of connection points: 2
#     Edge 33, Type (0, 0), BuildingBlock: AJUNOK_clean_linker_0, # of connection points: 2
#     Edge 34, Type (0, 0), BuildingBlock: AJUNOK_clean_linker_0, # of connection points: 2
#     Edge 35, Type (0, 0), BuildingBlock: AJUNOK_clean_linker_0, # of connection points: 2
#     Edge 36, Type (0, 0), BuildingBlock: AJUNOK_clean_linker_0, # of connection points: 2
#     Edge 37, Type (0, 0), BuildingBlock: AJUNOK_clean_linker_0, # of connection points: 2
#     Edge 38, Type (0, 0), BuildingBlock: AJUNOK_clean_linker_0, # of connection points: 2
#     Edge 39, Type (0, 0), BuildingBlock: AJUNOK_clean_linker_0, # of connection points: 2
#     Edge 40, Type (0, 0), BuildingBlock: AJUNOK_clean_linker_0, # of connection points: 2
#     Edge 41, Type (0, 0), BuildingBlock: AJUNOK_clean_linker_0, # of connection points: 2
#     Edge 42, Type (0, 0), BuildingBlock: AJUNOK_clean_linker_0, # of connection points: 2
#     Edge 43, Type (0, 0), BuildingBlock: AJUNOK_clean_linker_0, # of connection points: 2
#     Edge 44, Type (0, 0), BuildingBlock: AJUNOK_clean_linker_0, # of connection points: 2
#     Edge 45, Type (0, 0), BuildingBlock: AJUNOK_clean_linker_0, # of connection points: 2
#     Edge 46, Type (0, 0), BuildingBlock: AJUNOK_clean_linker_0, # of connection points: 2
#     Edge 47, Type (0, 0), BuildingBlock: AJUNOK_clean_linker_0, # of connection points: 2
#     Edge 48, Type (0, 0), BuildingBlock: AJUNOK_clean_linker_0, # of connection points: 2
#     Edge 49, Type (0, 0), BuildingBlock: AJUNOK_clean_linker_0, # of connection points: 2
#     Edge 50, Type (0, 0), BuildingBlock: AJUNOK_clean_linker_0, # of connection points: 2
#     Edge 51, Type (0, 0), BuildingBlock: AJUNOK_clean_linker_0, # of connection points: 2
#     Edge 52, Type (0, 0), BuildingBlock: AJUNOK_clean_linker_0, # of connection points: 2
#     Edge 53, Type (0, 0), BuildingBlock: AJUNOK_clean_linker_0, # of connection points: 2
#     Edge 54, Type (0, 0), BuildingBlock: AJUNOK_clean_linker_0, # of connection points: 2
#     Edge 55, Type (0, 0), BuildingBlock: AJUNOK_clean_linker_0, # of connection points: 2
#     Edge 56, Type (0, 0), BuildingBlock: AJUNOK_clean_linker_0, # of connection points: 2
#     Edge 57, Type (0, 0), BuildingBlock: AJUNOK_clean_linker_0, # of connection points: 2
#     Edge 58, Type (0, 0), BuildingBlock: AJUNOK_clean_linker_0, # of connection points: 2
#     Edge 59, Type (0, 0), BuildingBlock: AJUNOK_clean_linker_0, # of connection points: 2
#     Edge 60, Type (0, 0), BuildingBlock: AJUNOK_clean_linker_0, # of connection points: 2
#     Edge 61, Type (0, 0), BuildingBlock: AJUNOK_clean_linker_0, # of connection points: 2
#     Edge 62, Type (0, 0), BuildingBlock: AJUNOK_clean_linker_0, # of connection points: 2
#     Edge 63, Type (0, 0), BuildingBlock: AJUNOK_clean_linker_0, # of connection points: 2
# Relax obj value: 0.528
# Max RMSD: 0.258
# Mean RMSD: 0.258
data_MOF--net-why--node1-HISSIN_clean_sbu_0--edge1-AJUNOK_clean_linker_0
_symmetry_space_group_name_H-M    P1
_symmetry_Int_Tables_number       1
_symmetry_cell_setting            triclinic
loop_
_symmetry_equiv_pos_as_xyz
'x, y, z'
_cell_length_a     35.026725
_cell_length_b     35.052952
_cell_length_c     32.685188
_cell_angle_alpha  90.02464
_cell_angle_beta   90.053691
_cell_angle_gamma 88.889507
loop_
_atom_site_label
_atom_site_type_symbol
_atom_site_fract_x
_atom_site_fract_y
_atom_site_fract_z
_atom_type_partial_charge
Eu0 Eu 0.55459 0.25739 0.05996 0.0
Eu1 Eu 0.50064 0.3079 0.11197 0.0
C2 C 0.52256 0.33567 0.02103 0.0
C3 C 0.61324 0.21786 0.97405 0.0
C4 C 0.59557 0.24489 0.94823 0.0
C5 C 0.65822 0.20186 0.92009 0.0
C6 C 0.60936 0.25073 0.90881 0.0
C7 C 0.64447 0.19616 0.95977 0.0
C8 C 0.64087 0.22939 0.89444 0.0
C9 C 0.59924 0.21325 0.01597 0.0
O10 O 0.45773 0.28271 0.06432 0.0
O11 O 0.50003 0.25876 0.01783 0.0
C12 C 0.46428 0.26912 0.02697 0.0
O13 O 0.53791 0.21612 0.11297 0.0
O14 O 0.47615 0.36137 0.13582 0.0
O15 O 0.45295 0.30711 0.15435 0.0
O16 O 0.51914 0.26049 0.15895 0.0
C17 C 0.5278 0.22428 0.15095 0.0
O18 O 0.59697 0.30524 0.08234 0.0
O19 O 0.55508 0.34579 0.11486 0.0
O20 O 0.49849 0.33832 0.05156 0.0
O21 O 0.61196 0.23754 0.0427 0.0
O22 O 0.56252 0.20886 0.01909 0.0
O23 O 0.54914 0.30893 0.01996 0.0
C24 C 0.40901 0.35591 0.13623 0.0
C25 C 0.38511 0.33009 0.11591 0.0
C26 C 0.35903 0.40421 0.13157 0.0
C27 C 0.34767 0.34071 0.1056 0.0
C28 C 0.39627 0.39349 0.1421 0.0
C29 C 0.33348 0.37729 0.11545 0.0
C30 C 0.44702 0.34384 0.15134 0.0
C31 C 0.58998 0.33922 0.09988 0.0
H32 H 0.5712 0.26166 0.95869 0.0
H33 H 0.68299 0.18553 0.90985 0.0
H34 H 0.59552 0.27206 0.88959 0.0
H35 H 0.65843 0.17524 0.97939 0.0
H36 H 0.39456 0.30105 0.10988 0.0
H37 H 0.34942 0.43267 0.13994 0.0
H38 H 0.32885 0.31938 0.09324 0.0
H39 H 0.41448 0.41408 0.15676 0.0
Eu40 Eu 0.79627 0.80168 0.31126 0.0
Eu41 Eu 0.7459 0.75095 0.36507 0.0
C42 C 0.71723 0.77174 0.2738 0.0
C43 C 0.83322 0.85712 0.22367 0.0
C44 C 0.80346 0.84165 0.20057 0.0
C45 C 0.84688 0.9004 0.16804 0.0
C46 C 0.7949 0.85597 0.16189 0.0
C47 C 0.85524 0.88625 0.20712 0.0
C48 C 0.81622 0.88571 0.14566 0.0
C49 C 0.83967 0.84357 0.26548 0.0
O50 O 0.7694 0.70633 0.31717 0.0
O51 O 0.79499 0.74642 0.2704 0.0
C52 C 0.78366 0.71153 0.27991 0.0
O53 O 0.83767 0.78705 0.36577 0.0
O54 O 0.69242 0.73612 0.39497 0.0
O55 O 0.74304 0.70021 0.40308 0.0
O56 O 0.79432 0.76685 0.41158 0.0
C57 C 0.83 0.77662 0.40378 0.0
O58 O 0.74902 0.8465 0.33252 0.0
O59 O 0.70832 0.80694 0.36567 0.0
O60 O 0.71514 0.74819 0.30479 0.0
O61 O 0.81635 0.85775 0.29286 0.0
O62 O 0.84398 0.80672 0.26905 0.0
O63 O 0.7437 0.79757 0.27196 0.0
C64 C 0.68495 0.66977 0.391 0.0
C65 C 0.699 0.64786 0.35799 0.0
C66 C 0.63277 0.62634 0.39812 0.0
C67 C 0.6811 0.61427 0.34645 0.0
C68 C 0.65088 0.65967 0.40979 0.0
C69 C 0.64866 0.60229 0.36756 0.0
C70 C 0.70592 0.7028 0.4061 0.0
C71 C 0.71515 0.84125 0.35027 0.0
H72 H 0.78644 0.81886 0.21268 0.0
H73 H 0.86346 0.92355 0.15582 0.0
H74 H 0.77129 0.84426 0.14486 0.0
H75 H 0.87829 0.89845 0.22463 0.0
H76 H 0.7249 0.65556 0.34245 0.0
H77 H 0.60825 0.61782 0.41583 0.0
H78 H 0.6942 0.59624 0.32324 0.0
H79 H 0.63928 0.67652 0.43482 0.0
Eu80 Eu 0.24936 1.04409 0.56107 0.0
Eu81 Eu 0.30433 0.99458 0.61287 0.0
C82 C 0.28024 0.9631 0.52424 0.0
C83 C 0.18923 1.08055 0.4747 0.0
C84 C 0.20712 1.0531 0.44955 0.0
C85 C 1.14314 1.09392 0.42097 0.0
C86 C 0.19275 1.04562 0.41067 0.0
C87 C 0.15744 1.10125 0.46012 0.0
C88 C 0.16032 1.06554 0.39634 0.0
C89 C 0.20271 1.08577 0.51673 0.0
O90 O 0.34655 1.0235 0.56746 0.0
O91 O 0.30357 1.04135 0.51891 0.0
C92 C 0.33965 1.03353 0.52897 0.0
O93 O 0.26425 1.08695 0.61352 0.0
O94 O 0.3602 0.96728 0.62053 0.0
O95 O 0.32135 0.97048 0.67196 0.0
O96 O 0.28771 1.04383 0.65835 0.0
C97 C 0.27625 1.07933 0.65105 0.0
O98 O 0.20818 0.99665 0.58564 0.0
O99 O 0.25189 0.95373 0.61128 0.0
O100 O 0.29869 0.95588 0.55839 0.0
O101 O 0.19132 1.06027 0.5428 0.0
O102 O 0.239 1.09259 0.52055 0.0
O103 O 0.26005 0.99458 0.51876 0.0
C104 C 0.38602 0.98611 0.68259 0.0
C105 C 0.37842 1.02306 0.69771 0.0
C106 C 0.4518 0.99155 0.70392 0.0
C107 C 0.40707 1.04371 0.71687 0.0
C108 C 0.42314 0.97099 0.68483 0.0
C109 C 0.44392 1.02779 0.72125 0.0
C110 C 0.35668 0.96533 0.66005 0.0
C111 C 0.21609 0.96156 0.59968 0.0
H112 H 0.23188 1.03705 0.46018 0.0
H113 H 1.11804 1.10957 0.41039 0.0
H114 H 0.20674 1.02403 0.39193 0.0
H115 H 1.1433 1.12247 0.47922 0.0
H116 H 0.35022 1.03587 0.69537 0.0
H117 H 0.47956 0.97782 0.70718 0.0
H118 H 0.39996 1.07131 0.73004 0.0
H119 H 0.42985 0.94303 0.6723 0.0
Eu120 Eu 1.00509 0.50368 0.80916 0.0
Eu121 Eu 1.05554 0.55128 0.86634 0.0
C122 C 1.08573 0.53371 0.77537 0.0
C123 C 0.97026 0.44782 0.72065 0.0
C124 C 1.00083 0.46193 0.69781 0.0
C125 C 0.9581 0.40163 0.66741 0.0
C126 C 1.0102 0.4458 0.66019 0.0
C127 C 0.94875 0.41777 0.70527 0.0
C128 C 0.9892 0.41529 0.645 0.0
C129 C 0.96218 0.46375 0.76107 0.0
O130 O 1.03779 0.59896 0.81852 0.0
O131 O 1.00516 0.56155 0.77345 0.0
C132 C 1.0201 0.59517 0.78248 0.0
O133 O 0.96333 0.51233 0.86457 0.0
O134 O 1.06158 0.59433 0.91413 0.0
O135 O 1.11068 0.56033 0.89508 0.0
O136 O 1.00167 0.54428 0.90765 0.0
C137 C 0.96814 0.52896 0.9005 0.0
O138 O 1.05585 0.45984 0.82069 0.0
O139 O 1.08604 0.49135 0.87173 0.0
O140 O 1.08811 0.55625 0.80729 0.0
O141 O 0.98208 0.44877 0.791 0.0
O142 O 0.96083 0.50092 0.76265 0.0
O143 O 1.05842 0.5089 0.77179 0.0
C144 C 1.10034 0.56615 0.96481 0.0
C145 C 1.12802 0.58015 0.99123 0.0
C146 C 1.08329 0.51834 0.01542 0.0
C147 C 1.13321 0.56351 0.02961 0.0
C148 C 1.07843 0.53477 0.97677 0.0
C149 C 1.11081 0.53255 0.04212 0.0
C150 C 1.09586 0.58189 0.92357 0.0
C151 C 1.08471 0.46125 0.84714 0.0
H152 H 1.01759 0.4853 0.70916 0.0
H153 H 0.94162 0.37804 0.656 0.0
H154 H 1.03384 0.45709 0.64295 0.0
H155 H 0.92516 0.40658 0.72269 0.0
H156 H 1.14546 0.60394 0.98229 0.0
H157 H 1.06538 0.49501 0.0246 0.0
H158 H 0.15402 0.57571 0.05012 0.0
H159 H 1.05753 0.52297 0.95619 0.0
Eu160 Eu 0.80163 0.99286 0.90632 0.0
Eu161 Eu 0.74838 1.04414 0.95798 0.0
C162 C 0.77653 1.07808 0.86767 0.0
C163 C 0.88773 0.98218 0.84536 0.0
C164 C 0.88455 1.02167 0.83803 0.0
C165 C 0.95374 0.98347 0.82416 0.0
C166 C 0.91523 1.04159 0.82202 0.0
C167 C 0.9229 0.96352 0.83977 0.0
C168 C 0.94982 1.02243 0.81356 0.0
C169 C 0.8554 0.9617 0.86268 0.0
O170 O 0.70787 0.99304 0.94142 0.0
O171 O 0.7471 0.95506 0.90217 0.0
C172 C 0.7135 0.96054 0.92063 0.0
O173 O 0.79161 0.95469 0.96076 0.0
O174 O 0.69015 1.06248 0.97272 0.0
O175 O 0.73792 1.09288 0.99804 0.0
O176 O 0.76159 0.9981 1.00302 0.0
C177 C 0.77734 0.96449 0.9965 0.0
O178 O 0.84474 1.02128 0.95137 0.0
O179 O 0.80299 1.04289 0.99947 0.0
O180 O 0.76369 1.0858 0.90481 0.0
O181 O 0.8553 0.96065 0.90241 0.0
O182 O 0.82176 0.97038 0.84765 0.0
O183 O 0.78798 1.04257 0.8605 0.0
C184 C 0.68493 1.08338 0.04145 0.0
C185 C 0.64984 1.06534 0.047 0.0
C186 C 0.69155 1.08867 0.11531 0.0
C187 C 0.63615 1.05836 0.0863 0.0
C188 C 0.70532 1.0956 0.07602 0.0
C189 C 0.65706 1.06966 0.12073 0.0
C190 C 0.70129 1.08711 1.00003 0.0
C191 C 0.83864 1.03329 0.98936 0.0
H192 H 0.85807 1.03704 0.8437 0.0
H193 H 0.97979 0.96753 0.8177 0.0
H194 H 0.91125 1.07139 0.814 0.0
H195 H 0.92627 0.93339 0.84657 0.0
H196 H 0.63329 1.05588 0.02102 0.0
H197 H 0.70829 1.0974 0.14147 0.0
H198 H 0.60922 1.04403 0.08981 0.0
H199 H 0.73238 1.10974 0.07282 0.0
Eu200 Eu 0.55818 0.54802 0.65272 0.0
Eu201 Eu 0.50559 0.50093 0.70753 0.0
C202 C 0.47171 0.52643 0.61514 0.0
C203 C 0.60845 0.56261 0.5579 0.0
C204 C 0.63602 0.57771 0.53214 0.0
C205 C 0.59457 0.51382 0.50724 0.0
C206 C 0.64244 0.56133 0.49382 0.0
C207 C 0.58838 0.53009 0.5457 0.0
C208 C 0.62139 0.52956 0.48079 0.0
C209 C 0.60148 0.57888 0.59847 0.0
O210 O 0.55704 0.45743 0.6979 0.0
O211 O 0.58839 0.48816 0.64733 0.0
C212 C 0.58634 0.45834 0.67203 0.0
O213 O 0.5881 0.5527 0.71389 0.0
O214 O 0.47942 0.44593 0.71824 0.0
O215 O 0.46246 0.49498 0.75485 0.0
O216 O 0.55678 0.50567 0.74785 0.0
C217 C 0.58359 0.53107 0.74629 0.0
O218 O 0.53837 0.5958 0.69952 0.0
O219 O 0.50391 0.55898 0.74349 0.0
O220 O 0.46525 0.51216 0.65182 0.0
O221 O 0.56652 0.59094 0.6053 0.0
O222 O 0.61483 0.5578 0.62814 0.0
O223 O 0.50624 0.53968 0.60818 0.0
C224 C 0.46967 0.43686 0.78818 0.0
C225 C 0.50747 0.43464 0.80204 0.0
C226 C 0.44885 0.40541 0.84988 0.0
C227 C 0.51585 0.41921 0.84016 0.0
C228 C 0.44037 0.42171 0.81184 0.0
C229 C 0.48659 0.40505 0.86483 0.0
C230 C 0.46125 0.458 0.75077 0.0
C231 C 0.51947 0.59246 0.73489 0.0
H232 H 0.65205 0.60242 0.54132 0.0
H233 H 0.57772 0.4898 0.4977 0.0
H234 H 0.66264 0.57471 0.47354 0.0
H235 H 0.56751 0.51756 0.56579 0.0
H236 H 0.53046 0.44584 0.78384 0.0
H237 H 0.42595 0.39336 0.86762 0.0
H238 H 0.54518 0.41925 0.85072 0.0
H239 H 0.41105 0.42302 0.80124 0.0
Eu240 Eu 1.0015 0.3079 0.40486 0.0
Eu241 Eu 1.05495 0.25619 0.4572 0.0
C242 C 1.02393 0.22043 0.36804 0.0
C243 C 0.97408 0.39611 0.35143 0.0
C244 C 0.98295 0.41005 0.31268 0.0
C245 C 0.98635 0.4587 0.3806 0.0
C246 C 0.99301 0.44787 0.30774 0.0
C247 C 0.97691 0.42034 0.38566 0.0
C248 C 0.99371 0.4731 0.34136 0.0
C249 C 0.96736 0.35513 0.35586 0.0
O250 O 1.09866 0.30285 0.43621 0.0
O251 O 1.05626 0.3452 0.40808 0.0
C252 C 1.09148 0.33763 0.42106 0.0
O253 O 1.00525 0.34278 0.46221 0.0
O254 O 1.11126 0.23646 0.47774 0.0
O255 O 1.06084 0.20712 0.49781 0.0
O256 O 1.04787 0.3062 0.4992 0.0
C257 C 1.0258 0.33651 0.49511 0.0
O258 O 0.9559 0.28546 0.45052 0.0
O259 O 0.99822 0.25916 0.49626 0.0
O260 O 1.04462 0.21564 0.4016 0.0
O261 O 0.9962 0.3335 0.34462 0.0
O262 O 0.95177 0.34377 0.38992 0.0
O263 O 1.0052 0.25336 0.36352 0.0
C264 C 1.10984 0.21558 0.54566 0.0
C265 C 1.09182 0.24264 0.57117 0.0
C266 C 0.15473 0.20031 0.59998 0.0
C267 C 1.10546 0.24888 0.61064 0.0
C268 C 1.14112 0.19417 0.56033 0.0
C269 C 1.13721 0.22801 0.62524 0.0
C270 C 1.09738 0.21162 0.5031 0.0
C271 C 0.9627 0.27122 0.48763 0.0
H272 H 0.98213 0.39159 0.28609 0.0
H273 H 0.98664 0.47733 0.40703 0.0
H274 H 0.9983 0.45767 0.27697 0.0
H275 H 0.97158 0.40979 0.41623 0.0
H276 H 1.06758 0.25943 0.56034 0.0
H277 H 0.17967 0.18432 0.61041 0.0
H278 H 1.09149 0.2703 0.62962 0.0
H279 H 0.15549 0.17339 0.54088 0.0
Eu280 Eu 0.24546 0.74808 0.15205 0.0
Eu281 Eu 0.29536 0.79965 0.20615 0.0
C282 C 0.32937 0.77445 0.11379 0.0
C283 C 0.18556 0.66606 0.1275 0.0
C284 C 1.1492 0.65839 0.11253 0.0
C285 C 0.18266 0.60995 0.1713 0.0
C286 C 1.13026 0.62602 0.12561 0.0
C287 C 0.20151 0.64253 0.15827 0.0
C288 C 1.14751 0.6004 0.15384 0.0
C289 C 0.20634 0.69892 0.11152 0.0
O290 O 0.24772 0.84376 0.18456 0.0
O291 O 0.20736 0.80378 0.15131 0.0
C292 C 0.21392 0.83816 0.16678 0.0
O293 O 0.21432 0.7457 0.21206 0.0
O294 O 0.31486 0.85606 0.22435 0.0
O295 O 0.3421 0.80544 0.24957 0.0
O296 O 0.24256 0.79539 0.24483 0.0
C297 C 0.21612 0.76954 0.24283 0.0
O298 O 0.26895 0.70373 0.20012 0.0
O299 O 0.29426 0.74436 0.24667 0.0
O300 O 0.33696 0.78499 0.15184 0.0
O301 O 0.19246 0.73241 0.12156 0.0
O302 O 0.24347 0.69683 0.11465 0.0
O303 O 0.29376 0.76452 0.10581 0.0
C304 C 0.33085 0.85673 0.29402 0.0
C305 C 0.3019 0.84086 0.31792 0.0
C306 C 0.34422 0.90125 0.34876 0.0
C307 C 0.29383 0.85534 0.35672 0.0
C308 C 0.35219 0.88681 0.3097 0.0
C309 C 0.31459 0.88595 0.37227 0.0
C310 C 0.33768 0.84234 0.25248 0.0
C311 C 0.28308 0.70936 0.23734 0.0
H312 H 1.13611 0.67654 0.08941 0.0
H313 H 0.1968 0.59078 0.19272 0.0
H314 H 1.10358 0.61951 0.11065 0.0
H315 H 0.22931 0.64825 0.17102 0.0
H316 H 0.28534 0.81738 0.30647 0.0
H317 H 0.36055 0.92492 0.36022 0.0
H318 H 0.27128 0.84272 0.37455 0.0
H319 H 0.37461 0.89935 0.29161 0.0
Eu320 Eu 1.05227 0.75791 0.56074 0.0
Eu321 Eu 1.00091 0.809 0.61602 0.0
C322 C 1.02167 0.83878 0.52528 0.0
C323 C 1.10716 0.71934 0.47127 0.0
C324 C 1.09062 0.74811 0.44678 0.0
C325 C 1.15353 0.70586 0.41793 0.0
C326 C 1.10575 0.7561 0.40837 0.0
C327 C 1.13842 0.69796 0.45653 0.0
C328 C 1.13772 0.73548 0.39391 0.0
C329 C 1.09348 0.71378 0.51316 0.0
O330 O 0.95371 0.78712 0.57154 0.0
O331 O 0.99399 0.76048 0.52404 0.0
C332 C 0.95886 0.77273 0.53414 0.0
O333 O 1.04479 0.71772 0.61736 0.0
O334 O 0.99395 0.82903 0.67842 0.0
O335 O 0.95434 0.84881 0.63166 0.0
O336 O 1.00397 0.75358 0.6557 0.0
C337 C 1.02397 0.72148 0.65101 0.0
O338 O 1.09702 0.80446 0.57898 0.0
O339 O 1.05739 0.84408 0.61504 0.0
O340 O 1.0024 0.84459 0.55909 0.0
O341 O 1.10799 0.73658 0.5403 0.0
O342 O 1.05664 0.71077 0.51731 0.0
O343 O 1.04432 0.809 0.52016 0.0
C344 C 0.97869 0.89392 0.67875 0.0
C345 C 0.99155 0.90101 0.71845 0.0
C346 C 0.99377 0.95911 0.65985 0.0
C347 C 1.00549 0.93651 0.72882 0.0
C348 C 0.98054 0.92301 0.64916 0.0
C349 C 1.00628 0.96638 0.69994 0.0
C350 C 0.96835 0.85473 0.66807 0.0
C351 C 1.09151 0.83759 0.59834 0.0
H352 H 1.06639 0.76486 0.45765 0.0
H353 H 0.17822 0.68961 0.40733 0.0
H354 H 1.09269 0.77861 0.39011 0.0
H355 H 1.15161 0.6758 0.47518 0.0
H356 H 0.99099 0.87888 0.74159 0.0
H357 H 0.99345 0.98158 0.6371 0.0
H358 H 1.01378 0.94083 0.76033 0.0
H359 H 0.97168 0.91799 0.6179 0.0
Eu360 Eu 0.29496 0.29751 0.80804 0.0
Eu361 Eu 0.24653 0.2508 0.86746 0.0
C362 C 0.21472 0.26441 0.77603 0.0
C363 C 0.33147 0.35259 0.71884 0.0
C364 C 0.30255 0.33761 0.69423 0.0
C365 C 0.34548 0.39873 0.66623 0.0
C366 C 0.29501 0.35319 0.65588 0.0
C367 C 0.35312 0.38299 0.70466 0.0
C368 C 0.31603 0.38421 0.64186 0.0
C369 C 0.33782 0.33734 0.75983 0.0
O370 O 0.26226 0.20267 0.81915 0.0
O371 O 0.29603 0.23874 0.77384 0.0
C372 C 0.28045 0.20551 0.78325 0.0
O373 O 0.33712 0.29193 0.86366 0.0
O374 O 0.24054 0.20652 0.91386 0.0
O375 O 0.19334 0.24556 0.90128 0.0
O376 O 0.30216 0.25607 0.90621 0.0
C377 C 0.33434 0.27371 0.89895 0.0
O378 O 0.24347 0.34056 0.81837 0.0
O379 O 0.21644 0.31107 0.87259 0.0
O380 O 0.21228 0.24418 0.8097 0.0
O381 O 0.31648 0.35254 0.78844 0.0
O382 O 0.3397 0.30021 0.76218 0.0
O383 O 0.242 0.28901 0.77037 0.0
C384 C 0.20856 0.23487 0.96964 0.0
C385 C 0.23601 0.26118 0.98251 0.0
C386 C 0.18099 0.23651 0.03726 0.0
C387 C 0.23706 0.27376 0.02304 0.0
C388 C 0.18057 0.22326 0.99702 0.0
C389 C 0.20967 0.26133 0.05083 0.0
C390 C 0.20838 0.22138 0.92714 0.0
C391 C 0.21602 0.34005 0.84643 0.0
H392 H 0.28557 0.31407 0.70484 0.0
H393 H 0.36192 0.42277 0.65594 0.0
H394 H 0.27262 0.34117 0.63728 0.0
H395 H 0.37543 0.39486 0.72351 0.0
H396 H 0.25699 0.27168 0.96141 0.0
H397 H 0.15996 0.22573 0.05837 0.0
H398 H 0.25966 0.29233 0.03291 0.0
H399 H 0.15881 0.20356 0.98751 0.0
Eu400 Eu 0.74828 0.54809 0.06031 0.0
Eu401 Eu 0.80099 0.49846 0.11303 0.0
C402 C 0.77591 0.46612 0.02492 0.0
C403 C 0.6895 0.58879 0.97422 0.0
C404 C 0.71074 0.56763 0.94531 0.0
C405 C 0.63901 0.59806 0.92439 0.0
C406 C 0.69592 0.56129 0.90631 0.0
C407 C 0.65397 0.60468 0.9633 0.0
C408 C 0.65951 0.57552 0.89606 0.0
C409 C 0.70291 0.59161 0.01655 0.0
O410 O 0.8441 0.52505 0.06685 0.0
O411 O 0.8022 0.54376 0.01768 0.0
C412 C 0.83799 0.53517 0.02822 0.0
O413 O 0.76544 0.59157 0.1113 0.0
O414 O 0.85786 0.47357 0.12202 0.0
O415 O 0.81723 0.47348 0.17191 0.0
O416 O 0.78339 0.54791 0.15777 0.0
C417 C 0.77534 0.58401 0.14945 0.0
O418 O 0.70599 0.50055 0.084 0.0
O419 O 0.74841 0.45793 0.11244 0.0
O420 O 0.79227 0.45813 0.06018 0.0
O421 O 0.6907 0.56535 0.04131 0.0
O422 O 0.73925 0.59767 0.02113 0.0
O423 O 0.7592 0.49923 0.01775 0.0
C424 C 0.88042 0.49217 0.18585 0.0
C425 C 0.87064 0.52885 0.20037 0.0
C426 C 0.94374 0.49923 0.21399 0.0
C427 C 0.89667 0.54998 0.22287 0.0
C428 C 0.91763 0.47817 0.19147 0.0
C429 C 0.93298 0.53462 0.2317 0.0
C430 C 0.85314 0.47043 0.16133 0.0
C431 C 0.71299 0.46566 0.09951 0.0
H432 H 0.73817 0.55489 0.95335 0.0
H433 H 0.61086 0.60936 0.91686 0.0
H434 H 0.71199 0.54365 0.88493 0.0
H435 H 0.63724 0.621 0.98529 0.0
H436 H 0.84263 0.541 0.19519 0.0
H437 H 0.97162 0.48651 0.21952 0.0
H438 H 0.88767 0.57744 0.23509 0.0
H439 H 0.92628 0.45062 0.17918 0.0
Eu440 Eu 0.50657 1.00494 0.30943 0.0
Eu441 Eu 0.55441 1.05618 0.36602 0.0
C442 C 0.58625 1.03614 0.27571 0.0
C443 C 0.47349 0.94624 0.22123 0.0
C444 C 0.50878 0.95297 0.20262 0.0
C445 C 0.45404 0.9105 0.16151 0.0
C446 C 0.51679 0.93848 0.16383 0.0
C447 C 0.44605 0.92506 0.2005 0.0
C448 C 0.48953 0.91712 0.14292 0.0
C449 C 0.46547 0.96215 0.26183 0.0
O450 O 0.53392 1.10081 0.31709 0.0
O451 O 0.50724 1.06134 0.2702 0.0
C452 C 0.51932 1.09599 0.27997 0.0
O453 O 0.46349 1.01793 0.36265 0.0
O454 O 0.60401 1.06964 0.40327 0.0
O455 O 0.5563 1.11001 0.39921 0.0
O456 O 0.50404 1.0412 0.40992 0.0
C457 C 0.46924 1.0298 0.40062 0.0
O458 O 0.55438 0.96092 0.33127 0.0
O459 O 0.5933 1.00104 0.36631 0.0
O460 O 0.58749 1.05904 0.30729 0.0
O461 O 0.48661 0.94868 0.29155 0.0
O462 O 0.46231 0.99921 0.26307 0.0
O463 O 0.56021 1.01004 0.27253 0.0
C464 C 0.61731 1.13445 0.39148 0.0
C465 C 0.6149 0.17142 0.40721 0.0
C466 C 0.66487 1.15502 0.34236 0.0
C467 C 0.63833 0.19965 0.39181 0.0
C468 C 0.64128 1.12677 0.35781 0.0
C469 C 0.66499 0.19138 0.36042 0.0
C470 C 0.59237 1.10501 0.40793 0.0
C471 C 0.58765 0.96677 0.35009 0.0
H472 H 0.53022 0.9694 0.21807 0.0
H473 H 0.43284 0.89344 0.14626 0.0
H474 H 0.54433 0.94394 0.15016 0.0
H475 H 0.41865 0.91964 0.21451 0.0
H476 H 0.5957 0.1782 0.43228 0.0
H477 H 0.68494 1.14769 0.31827 0.0
H478 H 0.63751 0.22706 0.40705 0.0
H479 H 0.64273 1.09862 0.34421 0.0
Eu480 Eu 0.3019 0.49409 0.40147 0.0
Eu481 Eu 0.25133 0.5452 0.45735 0.0
C482 C 0.27608 0.58105 0.36641 0.0
C483 C 0.31401 0.44249 0.30606 0.0
C484 C 0.32765 0.45683 0.26904 0.0
C485 C 0.26001 0.41534 0.2697 0.0
C486 C 0.30795 0.45025 0.2327 0.0
C487 C 0.27965 0.42207 0.30612 0.0
C488 C 0.27407 0.4291 0.2325 0.0
C489 C 0.33301 0.45259 0.34484 0.0
O490 O 0.20633 0.49862 0.43917 0.0
O491 O 0.24532 0.45977 0.40136 0.0
C492 C 0.21179 0.46565 0.41936 0.0
O493 O 0.30836 0.46361 0.46142 0.0
O494 O 0.19588 0.56829 0.477 0.0
O495 O 0.24778 0.58964 0.50376 0.0
O496 O 0.25677 0.49109 0.49362 0.0
C497 C 0.2839 0.4649 0.49171 0.0
O498 O 0.34935 0.51487 0.44704 0.0
O499 O 0.30928 0.54325 0.49378 0.0
O500 O 0.26219 0.58729 0.40345 0.0
O501 O 0.34109 0.48855 0.34951 0.0
O502 O 0.31831 0.43812 0.37776 0.0
O503 O 0.28894 0.54613 0.3582 0.0
C504 C 0.19567 0.58171 0.5473 0.0
C505 C 0.21098 0.55173 0.57102 0.0
C506 C 1.15058 0.59665 0.60143 0.0
C507 C 0.19604 0.54409 0.60957 0.0
C508 C 0.16561 0.60433 0.56275 0.0
C509 C 0.16536 0.56612 0.62487 0.0
C510 C 0.2107 0.58858 0.50623 0.0
C511 C 0.34428 0.53069 0.48392 0.0
H512 H 0.35366 0.47305 0.26817 0.0
H513 H 0.23446 0.39842 0.27041 0.0
H514 H 0.32041 0.46025 0.20447 0.0
H515 H 0.26785 0.41109 0.33426 0.0
H516 H 0.23437 0.53408 0.55963 0.0
H517 H 1.12686 0.61396 0.61264 0.0
H518 H 0.20836 0.52086 0.62737 0.0
H519 H 1.15353 0.62755 0.54476 0.0
Eu520 Eu 1.05452 1.05359 0.15314 0.0
Eu521 Eu 1.0054 1.00169 0.20767 0.0
C522 C 0.96916 1.02861 0.11671 0.0
C523 C 1.12498 1.1263 0.12741 0.0
C524 C 0.15716 1.13421 0.10408 0.0
C525 C 1.14541 0.17175 0.17901 0.0
C526 C 0.18263 0.16158 0.11734 0.0
C527 C 1.12007 1.14395 0.16583 0.0
C528 C 0.17618 0.18191 0.15413 0.0
C529 C 1.09696 1.09934 0.11186 0.0
O530 O 1.05248 0.95718 0.18553 0.0
O531 O 1.09251 0.9979 0.15323 0.0
C532 C 1.08622 0.96326 0.168 0.0
O533 O 1.08613 1.05566 0.21309 0.0
O534 O 0.98573 0.94539 0.22569 0.0
O535 O 0.95898 0.99611 0.25136 0.0
O536 O 1.05843 1.00564 0.24573 0.0
C537 C 1.08466 1.03165 0.24374 0.0
O538 O 1.03232 1.09809 0.20146 0.0
O539 O 1.00642 1.05756 0.24784 0.0
O540 O 0.96334 1.01509 0.15392 0.0
O541 O 1.10581 1.0634 0.11706 0.0
O542 O 1.06137 1.10725 0.12078 0.0
O543 O 1.00383 1.04103 0.10828 0.0
C544 C 0.96977 0.94439 0.29514 0.0
C545 C 0.99902 0.95966 0.31914 0.0
C546 C 0.95575 0.89974 0.34932 0.0
C547 C 1.00674 0.94496 0.3579 0.0
C548 C 0.94808 0.91446 0.31037 0.0
C549 C 0.98521 0.91489 0.37328 0.0
C550 C 0.96304 0.95915 0.25386 0.0
C551 C 1.01777 1.09255 0.23849 0.0
H552 H 0.16179 1.12033 0.07481 0.0
H553 H 1.13966 0.18687 0.20732 0.0
H554 H 0.20568 0.16891 0.09692 0.0
H555 H 1.09582 1.13741 0.18491 0.0
H556 H 1.016 0.98286 0.30783 0.0
H557 H 0.93922 0.87607 0.36039 0.0
H558 H 1.02947 0.9571 0.37592 0.0
H559 H 0.92559 0.90225 0.29205 0.0
Eu560 Eu 0.50201 0.80706 0.90209 0.0
Eu561 Eu 0.55104 0.75392 0.95807 0.0
C562 C 0.5229 0.7192 0.86651 0.0
C563 C 0.48062 0.89451 0.84463 0.0
C564 C 0.49111 0.90488 0.80502 0.0
C565 C 0.49837 0.95744 0.86901 0.0
C566 C 0.50468 0.94114 0.79727 0.0
C567 C 0.48534 0.92066 0.8769 0.0
C568 C 0.50753 0.96835 0.82891 0.0
C569 C 0.46972 0.85486 0.85219 0.0
O570 O 0.59429 0.80363 0.94613 0.0
O571 O 0.56059 0.83828 0.89907 0.0
C572 C 0.59186 0.83405 0.92172 0.0
O573 O 0.50951 0.84466 0.95731 0.0
O574 O 0.60721 0.7322 0.97677 0.0
O575 O 0.55631 0.70701 1.00168 0.0
O576 O 0.53934 0.80238 1.0008 0.0
C577 C 0.52322 0.83561 0.99341 0.0
O578 O 0.45439 0.78713 0.9475 0.0
O579 O 0.49265 0.75569 0.99377 0.0
O580 O 0.54269 0.71428 0.90081 0.0
O581 O 0.49516 0.82954 0.84051 0.0
O582 O 0.45525 0.84706 0.88793 0.0
O583 O 0.50426 0.75209 0.86163 0.0
C584 C 0.6079 0.71652 0.04627 0.0
C585 C 0.59139 0.74541 0.07064 0.0
C586 C 0.6558 0.70502 0.09869 0.0
C587 C 0.60729 0.75449 0.10843 0.0
C588 C 0.64 0.69612 0.06061 0.0
C589 C 0.63992 0.73474 0.12252 0.0
C590 C 0.59327 0.71001 1.00483 0.0
C591 C 0.45845 0.77055 0.98406 0.0
H592 H 0.48864 0.88489 0.77988 0.0
H593 H 0.49974 0.97783 0.89385 0.0
H594 H 0.51066 0.94839 0.76579 0.0
H595 H 0.47859 0.91293 0.90811 0.0
H596 H 0.5665 0.76137 0.06021 0.0
H597 H 0.68101 0.68943 0.10906 0.0
H598 H 0.59421 0.77708 0.12656 0.0
H599 H 0.65323 0.67392 0.04206 0.0
Eu600 Eu 0.74994 0.2485 0.65186 0.0
Eu601 Eu 0.79794 0.296 0.71099 0.0
C602 C 0.83589 0.27483 0.61925 0.0
C603 C 0.72484 0.2192 0.54848 0.0
C604 C 0.76181 0.21826 0.53146 0.0
C605 C 0.70003 0.24348 0.48423 0.0
C606 C 0.76771 0.22947 0.49096 0.0
C607 C 0.69413 0.23214 0.52452 0.0
C608 C 0.73686 0.24208 0.46679 0.0
C609 C 0.71875 0.21194 0.59238 0.0
O610 O 0.7474 0.33951 0.69683 0.0
O611 O 0.71407 0.30556 0.64972 0.0
C612 C 0.71695 0.33675 0.67252 0.0
O613 O 0.71391 0.24392 0.70863 0.0
O614 O 0.81872 0.35172 0.72961 0.0
O615 O 0.84215 0.30028 0.75741 0.0
O616 O 0.74533 0.28708 0.74883 0.0
C617 C 0.71716 0.26358 0.74264 0.0
O618 O 0.76757 0.20137 0.70028 0.0
O619 O 0.79765 0.23859 0.74733 0.0
O620 O 0.84172 0.28527 0.65762 0.0
O621 O 0.70107 0.2395 0.61195 0.0
O622 O 0.74797 0.19813 0.61281 0.0
O623 O 0.80107 0.26426 0.60977 0.0
C624 C 0.83239 0.35386 0.80039 0.0
C625 C 0.82517 0.3932 0.80445 0.0
C626 C 0.8207 0.3459 0.87323 0.0
C627 C 0.81487 0.40857 0.8423 0.0
C628 C 0.83074 0.33042 0.83531 0.0
C629 C 0.81189 0.3849 0.87674 0.0
C630 C 0.83923 0.33738 0.75947 0.0
C631 C 0.78368 0.20489 0.73713 0.0
H632 H 0.78629 0.20896 0.54937 0.0
H633 H 0.67524 0.25167 0.46625 0.0
H634 H 0.79619 0.22731 0.47816 0.0
H635 H 0.6655 0.23362 0.53704 0.0
H636 H 0.82665 0.41192 0.77816 0.0
H637 H 0.81882 0.32727 0.89957 0.0
H638 H 0.80895 0.43895 0.84465 0.0
H639 H 0.83633 0.29998 0.83331 0.0
C640 C 0.66156 0.36416 0.10154 0.0
C641 C 0.62132 0.37166 0.10122 0.0
C642 C 0.68999 0.39379 0.10204 0.0
C643 C 0.68106 0.43381 0.10094 0.0
H644 H 0.67152 0.33474 0.10173 0.0
H645 H 0.71976 0.3849 0.10246 0.0
S646 S 0.58051 0.47087 0.0977 0.0
N647 N 0.57514 0.42417 0.09921 0.0
N648 N 0.62699 0.47801 0.09837 0.0
C649 C 0.64096 0.44165 0.09986 0.0
C650 C 0.612 0.41155 0.10048 0.0
C651 C 0.64329 0.8659 0.35351 0.0
C652 C 0.68313 0.87391 0.35152 0.0
C653 C 0.61332 0.89497 0.35276 0.0
C654 C 0.62041 0.93488 0.35138 0.0
H655 H 0.63485 0.83638 0.35481 0.0
H656 H 0.58399 0.88581 0.35369 0.0
S657 S 0.71892 0.97326 0.34527 0.0
N658 N 0.72673 0.92665 0.34689 0.0
N659 N 0.67213 0.97982 0.34745 0.0
C660 C 0.6601 0.94331 0.34978 0.0
C661 C 0.69055 0.91368 0.34932 0.0
C662 C 0.19173 0.89084 0.59061 0.0
C663 C 0.18433 0.92989 0.60103 0.0
C664 C 0.16263 0.86195 0.5897 0.0
C665 C 1.12357 0.86915 0.60027 0.0
H666 H 0.22051 0.88242 0.58199 0.0
H667 H 0.17113 0.83335 0.58057 0.0
S668 S 1.08785 0.96595 0.63173 0.0
N669 N 1.1335 0.97307 0.62259 0.0
N670 N 1.08058 0.92028 0.62268 0.0
C671 C 1.11605 0.90802 0.61149 0.0
C672 C 1.14549 0.93755 0.61137 0.0
C673 C 1.13247 0.41217 0.81162 0.0
C674 C 1.11759 0.42952 0.84794 0.0
C675 C 0.16411 0.38496 0.81135 0.0
C676 C 0.18296 0.37155 0.84747 0.0
H677 H 1.11999 0.42031 0.78253 0.0
H678 H 0.17343 0.37366 0.7821 0.0
S679 S 0.15601 0.40618 0.95163 0.0
N680 N 1.12623 0.43032 0.92159 0.0
N681 N 0.18244 0.37873 0.92129 0.0
C682 C 0.16791 0.3881 0.88404 0.0
C683 C 1.1366 0.41685 0.8842 0.0
C684 C 0.66615 0.91246 0.88452 0.0
C685 C 0.68231 0.92829 0.92073 0.0
C686 C 0.6375 0.88309 0.88486 0.0
C687 C 0.62377 0.86558 0.92135 0.0
H688 H 0.67521 0.92341 0.8552 0.0
H689 H 0.62632 0.87361 0.85577 0.0
S690 S 0.65606 0.89506 0.02524 0.0
N691 N 0.68046 0.92313 0.99467 0.0
N692 N 0.62995 0.868 0.9952 0.0
C693 C 0.64018 0.88076 0.95764 0.0
C694 C 0.66819 0.9116 0.95735 0.0
C695 C 0.63442 0.4096 0.636 0.0
C696 C 0.61901 0.42654 0.67227 0.0
C697 C 0.66491 0.38107 0.63615 0.0
C698 C 0.68407 0.3684 0.6724 0.0
H699 H 0.62233 0.41805 0.60681 0.0
H700 H 0.67403 0.36924 0.60708 0.0
S701 S 0.65698 0.40381 0.77626 0.0
N702 N 0.62674 0.42711 0.74601 0.0
N703 N 0.68405 0.37684 0.74608 0.0
C704 C 0.66944 0.38575 0.70874 0.0
C705 C 0.63742 0.41359 0.70872 0.0
C706 C 1.11291 0.40972 0.42104 0.0
C707 C 1.12271 0.36989 0.41987 0.0
C708 C 1.14073 0.43984 0.4213 0.0
C709 C 0.18095 0.43299 0.41895 0.0
H710 H 1.083 0.41799 0.42255 0.0
H711 H 1.1303 0.46907 0.4229 0.0
S712 S 0.22369 0.33458 0.41518 0.0
N713 N 0.17741 0.32655 0.41709 0.0
N714 N 0.22814 0.38141 0.41563 0.0
C715 C 0.19107 0.39332 0.41731 0.0
C716 C 0.16281 0.36268 0.41828 0.0
C717 C 1.14196 0.86251 0.16301 0.0
C718 C 0.18175 0.87062 0.16569 0.0
C719 C 1.11191 0.89149 0.16406 0.0
C720 C 1.11892 0.93138 0.16654 0.0
H721 H 1.13362 0.833 0.16091 0.0
H722 H 1.08262 0.88231 0.16249 0.0
S723 S 0.21725 0.96988 0.17495 0.0
N724 N 0.22518 0.92333 0.17223 0.0
N725 N 0.17048 0.97636 0.17232 0.0
C726 C 0.15855 0.93987 0.16889 0.0
C727 C 0.18905 0.91033 0.16898 0.0
C728 C 0.36186 0.26609 0.9738 0.0
C729 C 0.36798 0.27267 0.93123 0.0
C730 C 0.39218 0.26513 1.00384 0.0
C731 C 0.43151 0.26914 0.99379 0.0
H732 H 0.33294 0.26219 0.98445 0.0
H733 H 0.38453 0.26075 0.03556 0.0
S734 S 0.46484 0.28748 0.88736 0.0
N735 N 0.41811 0.28445 0.88186 0.0
N736 N 0.47374 0.2807 0.9365 0.0
C737 C 0.43805 0.27544 0.95133 0.0
C738 C 0.40708 0.27766 0.92094 0.0
C739 C 0.77711 0.65598 0.17372 0.0
C740 C 0.77764 0.61624 0.18328 0.0
C741 C 0.78002 0.68573 0.20416 0.0
C742 C 0.78309 0.6785 0.24701 0.0
H743 H 0.7746 0.66448 0.14198 0.0
H744 H 0.77906 0.71506 0.19378 0.0
S745 S 0.7857 0.58012 0.29045 0.0
N746 N 0.78181 0.57245 0.24077 0.0
N747 N 0.78641 0.6269 0.29637 0.0
C748 C 0.78337 0.63897 0.25703 0.0
C749 C 0.78098 0.60866 0.22603 0.0
C750 C 0.44194 1.03794 0.47566 0.0
C751 C 0.43581 1.03072 0.43318 0.0
C752 C 0.41169 1.03882 0.50576 0.0
C753 C 0.37247 1.03362 0.49591 0.0
H754 H 0.47077 1.04268 0.48615 0.0
H755 H 0.41933 1.04401 0.53735 0.0
S756 S 0.33911 1.01216 0.39013 0.0
N757 N 0.38564 1.01674 0.3843 0.0
N758 N 0.33034 1.01957 0.43915 0.0
C759 C 0.36591 1.02638 0.45363 0.0
C760 C 0.39674 1.02467 0.42315 0.0
C761 C 1.01559 0.69646 0.72669 0.0
C762 C 1.023 0.68898 0.68444 0.0
C763 C 1.01522 0.6671 0.75778 0.0
C764 C 1.02067 0.62755 0.74903 0.0
H765 H 1.01058 0.7257 0.73623 0.0
H766 H 1.00994 0.67563 0.78914 0.0
S767 S 1.04138 0.59078 0.64409 0.0
N768 N 1.0371 0.63734 0.63698 0.0
N769 N 1.03411 0.5835 0.69336 0.0
C770 C 1.02767 0.61968 0.7069 0.0
C771 C 1.02941 0.64962 0.67556 0.0
C772 C 0.91097 1.03844 0.01186 0.0
C773 C 0.8718 1.03338 0.02202 0.0
C774 C 0.94148 1.03742 0.04174 0.0
C775 C 0.93565 1.03008 0.08421 0.0
H776 H 0.91834 1.04361 0.98021 0.0
H777 H 0.97028 1.04204 0.03107 0.0
S778 S 0.8392 1.01176 0.12791 0.0
N779 N 0.83008 1.01936 0.07899 0.0
N780 N 0.8858 1.01616 0.1334 0.0
C781 C 0.89662 1.02416 0.0945 0.0
C782 C 0.86556 1.0261 0.06429 0.0
C783 C 0.52369 0.6474 0.84153 0.0
C784 C 0.52163 0.68717 0.83244 0.0
C785 C 0.52184 0.61792 0.81069 0.0
C786 C 0.51922 0.62546 0.76785 0.0
H787 H 0.52624 0.63868 0.8732 0.0
H788 H 0.52329 0.58852 0.82077 0.0
S789 S 0.51428 0.72418 0.72563 0.0
N790 N 0.51662 0.73147 0.77552 0.0
N791 N 0.51547 0.67743 0.71901 0.0
C792 C 0.51792 0.66506 0.75827 0.0
C793 C 0.51847 0.69511 0.78976 0.0
C794 C 0.86143 0.27 0.54337 0.0
C795 C 0.8688 0.27441 0.58607 0.0
C796 C 0.89092 0.26906 0.51246 0.0
C797 C 0.9306 0.27145 0.52154 0.0
H798 H 0.83215 0.26768 0.53335 0.0
H799 H 0.88229 0.26603 0.48083 0.0
S800 S 0.96729 0.28573 0.62754 0.0
N801 N 0.92066 0.28323 0.63436 0.0
N802 N 0.97464 0.28037 0.57795 0.0
C803 C 0.93843 0.27614 0.56403 0.0
C804 C 0.90835 0.27789 0.59542 0.0
C805 C 0.28367 0.60719 0.29101 0.0
C806 C 0.27772 0.6141 0.3336 0.0
C807 C 0.28525 0.63718 0.26073 0.0
C808 C 0.28241 0.67677 0.27054 0.0
H809 H 0.28671 0.57797 0.28059 0.0
H810 H 0.28918 0.62903 0.22903 0.0
S811 S 0.26522 0.71225 0.37663 0.0
N812 N 0.2674 0.66545 0.38256 0.0
N813 N 0.27202 0.72021 0.32741 0.0
C814 C 0.27655 0.68408 0.31293 0.0
C815 C 0.27384 0.65359 0.34358 0.0
C816 C 0.90206 0.774 0.42813 0.0
C817 C 0.86232 0.7755 0.43784 0.0
C818 C 0.93208 0.77226 0.45855 0.0
C819 C 0.92527 0.77268 0.5016 0.0
H820 H 0.91038 0.77382 0.39625 0.0
H821 H 0.96134 0.77123 0.44788 0.0
S822 S 0.82702 0.77798 0.54551 0.0
N823 N 0.81895 0.77768 0.49569 0.0
N824 N 0.87388 0.77592 0.55129 0.0
C825 C 0.8857 0.77488 0.51178 0.0
C826 C 0.85508 0.77581 0.48077 0.0
C827 C 0.27906 0.18013 0.70752 0.0
C828 C 0.27997 0.17244 0.7504 0.0
C829 C 0.2772 1.15082 0.67654 0.0
C830 C 0.27715 1.11102 0.68552 0.0
H831 H 0.27904 0.20956 0.69749 0.0
H832 H 0.27624 0.15971 0.64484 0.0
S833 S 0.27919 1.07366 0.79244 0.0
N834 N 0.2798 1.12037 0.79918 0.0
N835 N 0.27817 1.06653 0.74248 0.0
C836 C 0.27832 1.10291 0.72829 0.0
C837 C 0.27917 1.13286 0.75989 0.0
C838 C 0.86531 0.52915 0.9532 0.0
C839 C 0.87151 0.53491 0.9959 0.0
C840 C 0.89579 0.52675 0.92343 0.0
C841 C 0.93516 0.53078 0.93352 0.0
H842 H 0.83633 0.52565 0.94246 0.0
H843 H 0.88814 0.52198 0.89177 0.0
S844 S 0.96863 0.54645 0.0405 0.0
N845 N 0.92185 0.54398 0.04579 0.0
N846 N 0.97746 0.54106 0.99119 0.0
C847 C 0.94167 0.5369 0.97606 0.0
C848 C 0.91074 0.53846 1.00647 0.0
C849 C 0.51762 1.12293 0.20461 0.0
C850 C 0.52011 1.12937 0.24756 0.0
C851 C 0.52059 1.15283 0.17445 0.0
C852 C 0.52555 0.19206 0.18458 0.0
H853 H 0.51397 1.09398 0.19376 0.0
H854 H 0.51857 1.14498 0.14257 0.0
S855 S 0.53563 0.22591 0.29212 0.0
N856 N 0.52973 0.17954 0.29758 0.0
N857 N 0.53378 0.23446 0.24245 0.0
C858 C 0.5281 0.19889 0.22738 0.0
C859 C 0.52589 0.16836 0.25809 0.0
C860 C 0.41659 0.53419 0.50804 0.0
C861 C 0.37703 0.5303 0.51718 0.0
C862 C 0.44629 0.53356 0.53893 0.0
C863 C 0.43916 0.52771 0.58149 0.0
H864 H 0.42489 0.53831 0.47648 0.0
H865 H 0.47548 0.53725 0.52903 0.0
S866 S 0.3412 0.51293 0.62285 0.0
N867 N 0.33355 0.51919 0.57344 0.0
N868 N 0.38776 0.51637 0.62956 0.0
C869 C 0.39978 0.52286 0.59073 0.0
C870 C 0.36957 0.52455 0.55953 0.0
C871 C 1.02454 1.14843 0.34428 0.0
C872 C 1.02173 0.18806 0.3346 0.0
C873 C 1.02208 1.11849 0.31403 0.0
C874 C 1.01778 1.12555 0.27129 0.0
H875 H 1.02831 1.14018 0.37596 0.0
H876 H 1.02452 1.08921 0.32442 0.0
S877 S 1.01121 0.22372 0.22763 0.0
N878 N 1.01486 0.23165 0.2773 0.0
N879 N 1.01229 0.1769 0.22176 0.0
C880 C 1.01583 0.16503 0.26113 0.0
C881 C 1.01718 0.19547 0.29202 0.0
C882 C 0.40138 0.77062 0.08968 0.0
C883 C 0.36171 0.77334 0.07984 0.0
C884 C 0.4314 0.76886 0.05935 0.0
C885 C 0.4247 0.77061 0.0163 0.0
H886 H 0.40961 0.7694 0.12159 0.0
H887 H 0.46061 0.76678 0.07011 0.0
S888 S 0.32667 0.77911 0.97211 0.0
N889 N 0.31848 0.77782 0.02187 0.0
N890 N 0.37351 0.77618 0.96647 0.0
C891 C 0.38522 0.77397 1.006 0.0
C892 C 0.35455 0.77481 0.03689 0.0
C893 C 0.78057 0.17914 0.81248 0.0
C894 C 0.78277 0.17171 0.76963 0.0
C895 C 0.778 1.1496 0.84304 0.0
C896 C 0.77842 1.1099 0.8336 0.0
H897 H 0.78004 0.2085 0.82278 0.0
H898 H 0.77604 0.15824 0.87478 0.0
S899 S 0.78377 1.07327 0.72651 0.0
N900 N 0.78433 1.12003 0.72029 0.0
N901 N 0.78135 1.06576 0.77634 0.0
C902 C 0.78091 1.10205 0.79087 0.0
C903 C 0.78251 1.13221 0.75966 0.0
C904 C 0.66663 0.27532 0.84384 0.0
C905 C 0.65693 0.23769 0.85367 0.0
C906 C 0.68451 0.28377 0.80677 0.0
C907 C 0.69254 0.25504 0.77786 0.0
H908 H 0.66171 0.29819 0.86564 0.0
H909 H 0.69304 0.31285 0.8012 0.0
S910 S 0.67108 1.15223 0.78821 0.0
N911 N 0.6554 0.17166 0.83122 0.0
N912 N 0.68832 0.18762 0.76096 0.0
C913 C 0.68156 0.21752 0.78659 0.0
C914 C 0.66402 0.2088 0.82473 0.0
C915 C 0.82845 0.90048 0.0723 0.0
C916 C 0.80454 0.90313 0.10665 0.0
C917 C 0.81808 0.91828 0.03545 0.0
C918 C 0.78389 0.93982 0.03229 0.0
H919 H 0.85547 0.88501 0.07417 0.0
H920 H 0.83787 0.91678 0.01002 0.0
S921 S 0.71142 0.95454 0.11384 0.0
N922 N 0.74499 0.92751 0.13529 0.0
N923 N 0.72582 0.96194 0.06646 0.0
C924 C 0.75946 0.94192 0.06637 0.0
C925 C 0.76974 0.92332 0.10351 0.0
C926 C 1.12067 1.07548 0.28899 0.0
C927 C 1.10826 1.03836 0.28033 0.0
C928 C 1.13782 1.08406 0.32651 0.0
C929 C 1.14362 1.0557 0.35632 0.0
H930 H 1.11566 1.0985 0.2674 0.0
H931 H 1.14623 1.11313 0.33244 0.0
S932 S 1.11773 0.95389 0.34822 0.0
N933 N 1.10424 0.97279 0.30414 0.0
N934 N 1.13631 0.9891 0.37474 0.0
C935 C 1.13237 1.01831 0.34766 0.0
C936 C 1.11473 1.00959 0.30961 0.0
C937 C 0.98276 0.37747 0.53722 0.0
C938 C 1.01914 0.36069 0.5312 0.0
C939 C 0.97331 0.39529 0.57418 0.0
C940 C 1.00012 0.39743 0.60595 0.0
H941 H 0.96082 0.37534 0.51398 0.0
H942 H 0.94475 0.40718 0.57811 0.0
S943 S 1.09973 0.35977 0.60489 0.0
N944 N 1.0825 0.34854 0.5595 0.0
N945 N 1.06465 0.38244 0.62905 0.0
C946 C 1.03692 0.38189 0.59995 0.0
C947 C 1.04646 0.3634 0.56249 0.0
C948 C 0.63194 1.02383 0.1719 0.0
C949 C 0.64285 1.06111 0.16218 0.0
C950 C 0.61563 1.0155 0.20981 0.0
C951 C 0.60975 1.04416 0.23939 0.0
H952 H 0.63536 1.00106 0.14969 0.0
H953 H 0.60655 0.98661 0.21552 0.0
S954 S 0.63328 1.14655 0.22854 0.0
N955 N 0.64682 1.12693 0.18483 0.0
N956 N 0.61655 1.11139 0.25642 0.0
C957 C 0.62173 1.08139 0.23051 0.0
C958 C 0.63815 1.08985 0.19177 0.0
C959 C 0.52855 0.36611 0.91072 0.0
C960 C 0.49603 0.38976 0.90581 0.0
C961 C 0.53818 0.3508 0.94877 0.0
C962 C 0.5153 0.35794 0.9834 0.0
H963 H 0.54627 0.35847 0.88471 0.0
H964 H 0.56308 0.33209 0.95048 0.0
S965 S 0.42928 0.42149 0.98764 0.0
N966 N 0.44293 0.42274 0.93934 0.0
N967 N 0.46011 0.39267 0.01094 0.0
C968 C 0.48344 0.38277 0.97931 0.0
C969 C 0.4739 0.3988 0.94046 0.0
C970 C 0.18191 0.28369 0.7115 0.0
C971 C 0.19024 0.25534 0.74075 0.0
C972 C 0.1635 0.27475 0.6748 0.0
C973 C 1.15351 0.23702 0.66574 0.0
H974 H 0.19043 0.31287 0.71661 0.0
H975 H 0.15837 0.29729 0.65267 0.0
S976 S 0.16817 1.15245 0.73234 0.0
N977 N 0.18591 0.18815 0.75877 0.0
N978 N 1.15203 0.17134 0.68924 0.0
C979 C 0.1609 0.20853 0.69502 0.0
C980 C 0.179 0.21773 0.73275 0.0
C981 C 0.32383 0.92407 0.48034 0.0
C982 C 0.28683 0.93844 0.48842 0.0
C983 C 0.3326 0.90673 0.44277 0.0
C984 C 0.3045 0.90268 0.41244 0.0
H985 H 0.34661 0.92797 0.50231 0.0
H986 H 0.36164 0.89688 0.43718 0.0
S987 S 0.20298 0.9338 0.41964 0.0
N988 N 0.2217 0.9463 0.46391 0.0
N989 N 0.23808 0.91343 0.39337 0.0
C990 C 0.26715 0.91579 0.42075 0.0
C991 C 0.25835 0.93377 0.45875 0.0
C992 C 0.16211 0.71707 0.32479 0.0
C993 C 0.15525 0.7455 0.35431 0.0
C994 C 0.18008 0.72562 0.28777 0.0
C995 C 0.1924 0.76279 0.2793 0.0
H996 H 1.15382 0.68794 0.33053 0.0
H997 H 0.18573 0.70253 0.26643 0.0
S998 S 0.18016 0.84759 0.34624 0.0
N999 N 0.16121 0.81242 0.37242 0.0
N1000 N 0.19527 0.82849 0.30286 0.0
C1001 C 0.18504 0.79163 0.30827 0.0
C1002 C 0.16638 0.78299 0.34578 0.0
C1003 C 0.33548 0.40824 0.57347 0.0
C1004 C 0.30656 0.40216 0.60233 0.0
C1005 C 0.32744 0.42683 0.53656 0.0
C1006 C 0.2903 0.44036 0.5276 0.0
H1007 H 0.36459 0.39895 0.57971 0.0
H1008 H 0.35083 0.43204 0.51576 0.0
S1009 S 0.20432 0.43023 0.59263 0.0
N1010 N 0.23929 0.4101 0.61935 0.0
N1011 N 0.22402 0.44489 0.54971 0.0
C1012 C 0.26093 0.43353 0.55578 0.0
C1013 C 0.2691 0.41445 0.59325 0.0
C1014 C 0.63867 0.56019 0.7833 0.0
C1015 C 0.60459 0.53957 0.78445 0.0
C1016 C 0.65687 0.57143 0.81955 0.0
C1017 C 0.64103 0.5631 0.85792 0.0
H1018 H 0.65119 0.56798 0.75426 0.0
H1019 H 0.68298 0.58738 0.81759 0.0
S1020 S 0.55304 0.50943 0.87823 0.0
N1021 N 0.55634 0.5108 0.82791 0.0
N1022 N 0.59055 0.53223 0.8954 0.0
C1023 C 0.60746 0.54213 0.85959 0.0
C1024 C 0.58924 0.53024 0.823 0.0
C1025 C 0.54154 0.85885 0.06234 0.0
C1026 C 0.51686 0.86139 0.02844 0.0
C1027 C 0.53297 0.87798 0.09881 0.0
C1028 C 0.4992 0.89996 0.10286 0.0
H1029 H 0.56717 0.84106 0.0611 0.0
H1030 H 0.55223 0.87434 0.12455 0.0
S1031 S 0.42631 0.91782 0.02247 0.0
N1032 N 0.4582 0.88918 1.00052 0.0
N1033 N 0.44214 0.92523 0.06937 0.0
C1034 C 0.47496 0.90392 0.0688 0.0
C1035 C 0.48387 0.88471 0.03144 0.0
C1036 C 1.14221 0.58494 0.69447 0.0
C1037 C 1.14795 0.55652 0.66464 0.0
C1038 C 1.12402 0.57676 0.73151 0.0
C1039 C 1.11045 0.54001 0.73962 0.0
H1040 H 1.15141 0.61381 0.6889 0.0
H1041 H 1.11898 0.59982 0.75302 0.0
S1042 S 1.11988 0.45527 0.67205 0.0
N1043 N 1.13973 0.49002 0.64604 0.0
N1044 N 1.10564 0.47456 0.71565 0.0
C1045 C 1.11699 0.51111 0.71048 0.0
C1046 C 1.13571 0.51939 0.67296 0.0
C1047 C 1.03207 0.88593 0.4222 0.0
C1048 C 0.99452 0.89851 0.41373 0.0
C1049 C 1.04113 0.86797 0.45929 0.0
C1050 C 1.01311 0.8628 0.48942 0.0
H1051 H 1.05429 0.88879 0.39942 0.0
H1052 H 1.07005 0.85733 0.46406 0.0
S1053 S 0.91083 0.89191 0.48246 0.0
N1054 N 0.92944 0.90561 0.43858 0.0
N1055 N 0.94642 0.87223 0.5086 0.0
C1056 C 0.97572 0.87643 0.48182 0.0
C1057 C 0.96641 0.89413 0.44382 0.0
C1058 C 0.6644 0.71764 0.19196 0.0
C1059 C 0.6577 0.74548 0.16181 0.0
C1060 C 0.68203 0.72693 0.229 0.0
C1061 C 0.69415 0.7643 0.23692 0.0
H1062 H 0.65612 0.6884 0.18678 0.0
H1063 H 0.68744 0.70426 0.2509 0.0
S1064 S 0.68263 0.84771 0.16783 0.0
N1065 N 0.6638 0.81201 0.14228 0.0
N1066 N 0.69736 0.8295 0.21183 0.0
C1067 C 0.68713 0.79254 0.20717 0.0
C1068 C 0.66877 0.78313 0.16963 0.0
C1069 C 0.81348 0.41614 0.98749 0.0
C1070 C 0.78065 0.43977 0.99011 0.0
C1071 C 0.82272 0.39708 0.95103 0.0
C1072 C 0.79943 0.40115 0.91623 0.0
H1073 H 0.83333 0.41411 0.01287 0.0
H1074 H 0.84916 0.38057 0.94946 0.0
S1075 S 0.70706 0.45412 0.90945 0.0
N1076 N 0.72237 0.46218 0.95641 0.0
N1077 N 0.73994 0.42632 0.88796 0.0
C1078 C 0.76527 0.42248 0.91931 0.0
C1079 C 0.75579 0.44178 0.95631 0.0
C1080 C 0.2758 0.35921 0.15135 0.0
C1081 C 0.29185 0.38371 0.12212 0.0
C1082 C 0.26062 0.37469 0.18747 0.0
C1083 C 0.25948 0.41452 0.193 0.0
H1084 H 0.2831 0.32903 0.15135 0.0
H1085 H 0.25696 0.35568 0.21324 0.0
S1086 S 0.26913 0.48647 0.11125 0.0
N1087 N 0.28483 0.4461 0.0905 0.0
N1088 N 0.25494 0.47559 0.15797 0.0
C1089 C 0.26169 0.4373 0.15778 0.0
C1090 C 0.27758 0.4214 0.12139 0.0
C1091 C 0.66689 0.53681 0.3836 0.0
C1092 C 0.63836 0.56146 0.36759 0.0
C1093 C 0.65929 0.51584 0.41904 0.0
C1094 C 0.62296 0.51873 0.43717 0.0
H1095 H 0.69655 0.54061 0.37544 0.0
H1096 H 0.68327 0.50451 0.43647 0.0
S1097 S 0.53503 0.55606 0.38763 0.0
N1098 N 0.57013 0.57002 0.35773 0.0
N1099 N 0.55537 0.53044 0.42437 0.0
C1100 C 0.59248 0.53137 0.41243 0.0
C1101 C 0.60038 0.55263 0.37647 0.0
C1102 C 0.456 1.047 0.79228 0.0
C1103 C 0.47059 1.04305 0.75231 0.0
C1104 C 0.47595 1.03056 0.82518 0.0
C1105 C 0.50964 1.00926 0.81754 0.0
H1106 H 0.42642 1.05528 0.79728 0.0
H1107 H 0.4605 1.02685 0.85356 0.0
S1108 S 0.57035 1.01736 0.72582 0.0
N1109 N 0.52888 1.03691 0.71233 0.0
N1110 N 0.56606 1.00545 0.77452 0.0
C1111 C 0.53003 1.01861 0.78206 0.0
C1112 C 0.50994 1.03536 0.74852 0.0
C1113 C 0.16064 0.5339 0.1369 0.0
C1114 C 1.13463 0.56027 0.1546 0.0
C1115 C 1.15002 0.51419 0.10152 0.0
C1116 C 1.11319 0.52006 0.0852 0.0
H1117 H 0.19086 0.53545 0.14361 0.0
H1118 H 0.1724 0.50159 0.08271 0.0
S1119 S 1.03012 0.56111 0.14057 0.0
N1120 N 1.06749 0.57235 0.16874 0.0
N1121 N 1.04709 0.53542 0.102 0.0
C1122 C 1.08476 0.53399 0.1118 0.0
C1123 C 1.09572 0.55382 0.1478 0.0
C1124 C 0.96165 1.04648 0.7447 0.0
C1125 C 0.97694 1.03859 0.78373 0.0
C1126 C 0.97892 1.03024 0.71006 0.0
C1127 C 1.01112 1.00605 0.71491 0.0
H1128 H 0.9327 1.05755 0.74148 0.0
H1129 H 0.96223 1.02952 0.68216 0.0
S1130 S 1.075 1.00319 0.80478 0.0
N1131 N 1.03552 1.02478 0.8212 0.0
N1132 N 1.06851 0.99526 0.75541 0.0
C1133 C 1.03334 1.01156 0.75018 0.0
C1134 C 1.0156 1.02742 0.78561 0.0
C1135 C 0.9957 0.54385 0.2656 0.0
C1136 C 0.95574 0.54931 0.26654 0.0
C1137 C 1.01449 0.52725 0.29931 0.0
C1138 C 0.9928 0.51473 0.33287 0.0
H1139 H 1.0108 0.54496 0.23673 0.0
H1140 H 1.04314 0.51583 0.29471 0.0
S1141 S 0.89584 0.54956 0.35996 0.0
N1142 N 0.90137 0.56159 0.31153 0.0
N1143 N 0.93682 0.52957 0.37413 0.0
C1144 C 0.95741 0.53317 0.33918 0.0
C1145 C 0.93827 0.55037 0.3053 0.0
C1146 C 0.24308 0.24437 0.11391 0.0
C1147 C 0.21446 0.26709 0.09526 0.0
C1148 C 0.23356 0.22069 0.14682 0.0
C1149 C 0.19517 0.21907 0.15945 0.0
H1150 H 0.26975 0.2386 0.09808 0.0
H1151 H 0.25324 0.1976 0.15464 0.0
S1152 S 1.12069 0.29291 0.13967 0.0
N1153 N 0.15482 0.30175 0.10631 0.0
N1154 N 1.13671 0.25686 0.16781 0.0
C1155 C 0.172 0.25139 0.15139 0.0
C1156 C 0.18171 0.27564 0.1183 0.0
C1157 C 0.75408 0.21197 0.40136 0.0
C1158 C 0.74057 0.24493 0.4217 0.0
C1159 C 0.73372 0.19781 0.36796 0.0
C1160 C 0.69902 0.21581 0.35648 0.0
H1161 H 0.77507 0.19318 0.41567 0.0
H1162 H 0.74017 0.16877 0.3585 0.0
S1163 S 0.67076 0.31531 0.38034 0.0
N1164 N 0.70532 0.30483 0.41318 0.0
N1165 N 0.66656 0.2774 0.35068 0.0
C1166 C 0.69492 0.2547 0.36615 0.0
C1167 C 0.71569 0.26941 0.3999 0.0
loop_
_geom_bond_atom_site_label_1
_geom_bond_atom_site_label_2
_geom_bond_distance
_geom_bond_site_symmetry_2
_ccdc_geom_bond_type
Eu0 C9 2.828 . S
Eu0 O11 2.392 . S
Eu0 O13 2.418 1_556 S
Eu0 O18 2.373 1_556 S
Eu0 O21 2.488 . S
Eu0 O22 2.471 . S
Eu0 O23 2.349 . S
Eu1 O10 2.373 . S
Eu1 O14 2.488 . S
Eu1 O15 2.471 . S
Eu1 O16 2.349 . S
Eu1 O19 2.392 . S
Eu1 O20 2.418 . S
Eu1 C30 2.828 . S
C2 O20 1.244 1_556 S
C2 O23 1.265 . S
C3 C4 1.379 . S
C3 C7 1.373 . S
C3 C9 1.505 . S
C4 C3 1.379 . S
C4 C6 1.369 . S
C4 H32 0.930 . S
C5 C7 1.383 . S
C5 C8 1.382 . S
C5 H33 0.930 . S
C6 C4 1.369 . S
C6 C8 1.392 . S
C6 H34 0.930 . S
C7 C3 1.373 . S
C7 C5 1.383 . S
C7 H35 0.931 . S
C8 C5 1.382 . S
C8 C6 1.392 . S
C9 Eu0 2.828 . S
C9 C3 1.505 . S
C9 O21 1.249 . S
C9 O22 1.244 . S
O10 Eu1 2.373 . S
O10 C12 1.258 . S
O11 Eu0 2.392 . S
O11 C12 1.242 1_556 S
C12 O10 1.258 . S
C12 O11 1.242 1_554 S
O13 Eu0 2.418 1_554 S
O13 C17 1.244 . S
O14 Eu1 2.488 . S
O14 C30 1.249 . S
O15 Eu1 2.471 . S
O15 C30 1.244 . S
O16 Eu1 2.349 . S
O16 C17 1.265 . S
C17 O13 1.244 . S
C17 O16 1.265 . S
O18 Eu0 2.373 1_554 S
O18 C31 1.258 . S
O19 Eu1 2.392 . S
O19 C31 1.242 . S
O20 Eu1 2.418 . S
O20 C2 1.244 1_554 S
O21 Eu0 2.488 . S
O21 C9 1.249 . S
O22 Eu0 2.471 . S
O22 C9 1.244 . S
O23 Eu0 2.349 . S
O23 C2 1.265 . S
C24 C25 1.379 . S
C24 C28 1.373 . S
C24 C30 1.505 . S
C25 C24 1.379 . S
C25 C27 1.369 . S
C25 H36 0.930 . S
C26 C28 1.383 . S
C26 C29 1.382 . S
C26 H37 0.930 . S
C27 C25 1.369 . S
C27 C29 1.392 . S
C27 H38 0.930 . S
C28 C24 1.373 . S
C28 C26 1.383 . S
C28 H39 0.931 . S
C29 C26 1.382 . S
C29 C27 1.392 . S
C30 Eu1 2.828 . S
C30 O14 1.249 . S
C30 O15 1.244 . S
C30 C24 1.505 . S
C31 O18 1.258 . S
C31 O19 1.242 . S
H32 C4 0.930 . S
H33 C5 0.930 . S
H34 C6 0.930 . S
H35 C7 0.931 . S
H36 C25 0.930 . S
H37 C26 0.930 . S
H38 C27 0.930 . S
H39 C28 0.931 . S
Eu40 C49 2.828 . S
Eu40 O51 2.392 . S
Eu40 O53 2.418 . S
Eu40 O58 2.373 . S
Eu40 O61 2.488 . S
Eu40 O62 2.471 . S
Eu40 O63 2.349 . S
Eu41 O50 2.373 . S
Eu41 O54 2.488 . S
Eu41 O55 2.471 . S
Eu41 O56 2.349 . S
Eu41 O59 2.392 . S
Eu41 O60 2.418 . S
Eu41 C70 2.828 . S
C42 O60 1.244 . S
C42 O63 1.265 . S
C43 C44 1.379 . S
C43 C47 1.373 . S
C43 C49 1.505 . S
C44 C43 1.379 . S
C44 C46 1.369 . S
C44 H72 0.930 . S
C45 C47 1.383 . S
C45 C48 1.382 . S
C45 H73 0.930 . S
C46 C44 1.369 . S
C46 C48 1.392 . S
C46 H74 0.930 . S
C47 C43 1.373 . S
C47 C45 1.383 . S
C47 H75 0.931 . S
C48 C45 1.382 . S
C48 C46 1.392 . S
C49 Eu40 2.828 . S
C49 C43 1.505 . S
C49 O61 1.249 . S
C49 O62 1.244 . S
O50 Eu41 2.373 . S
O50 C52 1.258 . S
O51 Eu40 2.392 . S
O51 C52 1.242 . S
C52 O50 1.258 . S
C52 O51 1.242 . S
O53 Eu40 2.418 . S
O53 C57 1.244 . S
O54 Eu41 2.488 . S
O54 C70 1.249 . S
O55 Eu41 2.471 . S
O55 C70 1.244 . S
O56 Eu41 2.349 . S
O56 C57 1.265 . S
C57 O53 1.244 . S
C57 O56 1.265 . S
O58 Eu40 2.373 . S
O58 C71 1.258 . S
O59 Eu41 2.392 . S
O59 C71 1.242 . S
O60 Eu41 2.418 . S
O60 C42 1.244 . S
O61 Eu40 2.488 . S
O61 C49 1.249 . S
O62 Eu40 2.471 . S
O62 C49 1.244 . S
O63 Eu40 2.349 . S
O63 C42 1.265 . S
C64 C65 1.379 . S
C64 C68 1.373 . S
C64 C70 1.505 . S
C65 C64 1.379 . S
C65 C67 1.369 . S
C65 H76 0.930 . S
C66 C68 1.383 . S
C66 C69 1.382 . S
C66 H77 0.930 . S
C67 C65 1.369 . S
C67 C69 1.392 . S
C67 H78 0.930 . S
C68 C64 1.373 . S
C68 C66 1.383 . S
C68 H79 0.931 . S
C69 C66 1.382 . S
C69 C67 1.392 . S
C70 Eu41 2.828 . S
C70 O54 1.249 . S
C70 O55 1.244 . S
C70 C64 1.505 . S
C71 O58 1.258 . S
C71 O59 1.242 . S
H72 C44 0.930 . S
H73 C45 0.930 . S
H74 C46 0.930 . S
H75 C47 0.931 . S
H76 C65 0.930 . S
H77 C66 0.930 . S
H78 C67 0.930 . S
H79 C68 0.931 . S
Eu80 C89 2.828 . S
Eu80 O91 2.392 . S
Eu80 O93 2.418 . S
Eu80 O98 2.373 . S
Eu80 O101 2.488 . S
Eu80 O102 2.471 . S
Eu80 O103 2.349 . S
Eu81 O90 2.373 . S
Eu81 O94 2.488 . S
Eu81 O95 2.471 . S
Eu81 O96 2.349 . S
Eu81 O99 2.392 . S
Eu81 O100 2.418 . S
Eu81 C110 2.828 . S
C82 O100 1.244 . S
C82 O103 1.265 . S
C83 C84 1.379 . S
C83 C87 1.373 . S
C83 C89 1.505 . S
C84 C83 1.379 . S
C84 C86 1.369 1_455 S
C84 H112 0.930 . S
C85 C87 1.383 1_655 S
C85 C88 1.382 . S
C85 H113 0.930 . S
C86 C84 1.369 1_655 S
C86 C88 1.392 . S
C86 H114 0.930 . S
C87 C83 1.373 . S
C87 C85 1.383 1_455 S
C87 H115 0.931 . S
C88 C85 1.382 . S
C88 C86 1.392 . S
C89 Eu80 2.828 . S
C89 C83 1.505 . S
C89 O101 1.249 . S
C89 O102 1.244 . S
O90 Eu81 2.373 . S
O90 C92 1.258 . S
O91 Eu80 2.392 . S
O91 C92 1.242 . S
C92 O90 1.258 . S
C92 O91 1.242 . S
O93 Eu80 2.418 . S
O93 C97 1.244 . S
O94 Eu81 2.488 . S
O94 C110 1.249 . S
O95 Eu81 2.471 . S
O95 C110 1.244 . S
O96 Eu81 2.349 . S
O96 C97 1.265 . S
C97 O93 1.244 . S
C97 O96 1.265 . S
O98 Eu80 2.373 . S
O98 C111 1.258 . S
O99 Eu81 2.392 . S
O99 C111 1.242 . S
O100 Eu81 2.418 . S
O100 C82 1.244 . S
O101 Eu80 2.488 . S
O101 C89 1.249 . S
O102 Eu80 2.471 . S
O102 C89 1.244 . S
O103 Eu80 2.349 . S
O103 C82 1.265 . S
C104 C105 1.379 . S
C104 C108 1.373 . S
C104 C110 1.505 . S
C105 C104 1.379 . S
C105 C107 1.369 . S
C105 H116 0.930 . S
C106 C108 1.383 . S
C106 C109 1.382 . S
C106 H117 0.930 . S
C107 C105 1.369 . S
C107 C109 1.392 . S
C107 H118 0.930 . S
C108 C104 1.373 . S
C108 C106 1.383 . S
C108 H119 0.931 . S
C109 C106 1.382 . S
C109 C107 1.392 . S
C110 Eu81 2.828 . S
C110 O94 1.249 . S
C110 O95 1.244 . S
C110 C104 1.505 . S
C111 O98 1.258 . S
C111 O99 1.242 . S
H112 C84 0.930 . S
H113 C85 0.930 . S
H114 C86 0.930 . S
H115 C87 0.931 . S
H116 C105 0.930 . S
H117 C106 0.930 . S
H118 C107 0.930 . S
H119 C108 0.931 . S
Eu120 C129 2.828 . S
Eu120 O131 2.392 . S
Eu120 O133 2.418 . S
Eu120 O138 2.373 . S
Eu120 O141 2.488 . S
Eu120 O142 2.471 . S
Eu120 O143 2.349 . S
Eu121 O130 2.373 . S
Eu121 O134 2.488 . S
Eu121 O135 2.471 . S
Eu121 O136 2.349 . S
Eu121 O139 2.392 . S
Eu121 O140 2.418 . S
Eu121 C150 2.828 . S
C122 O140 1.244 . S
C122 O143 1.265 . S
C123 C124 1.379 . S
C123 C127 1.373 . S
C123 C129 1.505 . S
C124 C123 1.379 . S
C124 C126 1.369 . S
C124 H152 0.930 . S
C125 C127 1.383 . S
C125 C128 1.382 . S
C125 H153 0.930 . S
C126 C124 1.369 . S
C126 C128 1.392 . S
C126 H154 0.930 . S
C127 C123 1.373 . S
C127 C125 1.383 . S
C127 H155 0.931 . S
C128 C125 1.382 . S
C128 C126 1.392 . S
C129 Eu120 2.828 . S
C129 C123 1.505 . S
C129 O141 1.249 . S
C129 O142 1.244 . S
O130 Eu121 2.373 . S
O130 C132 1.258 . S
O131 Eu120 2.392 . S
O131 C132 1.242 . S
C132 O130 1.258 . S
C132 O131 1.242 . S
O133 Eu120 2.418 . S
O133 C137 1.244 . S
O134 Eu121 2.488 . S
O134 C150 1.249 . S
O135 Eu121 2.471 . S
O135 C150 1.244 . S
O136 Eu121 2.349 . S
O136 C137 1.265 . S
C137 O133 1.244 . S
C137 O136 1.265 . S
O138 Eu120 2.373 . S
O138 C151 1.258 . S
O139 Eu121 2.392 . S
O139 C151 1.242 . S
O140 Eu121 2.418 . S
O140 C122 1.244 . S
O141 Eu120 2.488 . S
O141 C129 1.249 . S
O142 Eu120 2.471 . S
O142 C129 1.244 . S
O143 Eu120 2.349 . S
O143 C122 1.265 . S
C144 C145 1.379 . S
C144 C148 1.373 . S
C144 C150 1.505 . S
C145 C144 1.379 . S
C145 C147 1.369 . S
C145 H156 0.930 . S
C146 C148 1.383 . S
C146 C149 1.382 . S
C146 H157 0.930 . S
C147 C145 1.369 . S
C147 C149 1.392 . S
C147 H158 0.930 . S
C148 C144 1.373 . S
C148 C146 1.383 . S
C148 H159 0.931 . S
C149 C146 1.382 . S
C149 C147 1.392 . S
C150 Eu121 2.828 . S
C150 O134 1.249 . S
C150 O135 1.244 . S
C150 C144 1.505 . S
C151 O138 1.258 . S
C151 O139 1.242 . S
H152 C124 0.930 . S
H153 C125 0.930 . S
H154 C126 0.930 . S
H155 C127 0.931 . S
H156 C145 0.930 . S
H157 C146 0.930 . S
H158 C147 0.930 . S
H159 C148 0.931 . S
Eu160 C169 2.828 . S
Eu160 O171 2.392 . S
Eu160 O173 2.418 . S
Eu160 O178 2.373 . S
Eu160 O181 2.488 . S
Eu160 O182 2.471 . S
Eu160 O183 2.349 . S
Eu161 O170 2.373 1_554 S
Eu161 O174 2.488 . S
Eu161 O175 2.471 . S
Eu161 O176 2.349 . S
Eu161 O179 2.392 . S
Eu161 O180 2.418 1_554 S
Eu161 C190 2.828 . S
C162 O180 1.244 . S
C162 O183 1.265 . S
C163 C164 1.379 . S
C163 C167 1.373 . S
C163 C169 1.505 . S
C164 C163 1.379 . S
C164 C166 1.369 . S
C164 H192 0.930 . S
C165 C167 1.383 . S
C165 C168 1.382 . S
C165 H193 0.930 . S
C166 C164 1.369 . S
C166 C168 1.392 . S
C166 H194 0.930 . S
C167 C163 1.373 . S
C167 C165 1.383 . S
C167 H195 0.931 . S
C168 C165 1.382 . S
C168 C166 1.392 . S
C169 Eu160 2.828 . S
C169 C163 1.505 . S
C169 O181 1.249 . S
C169 O182 1.244 . S
O170 Eu161 2.373 1_556 S
O170 C172 1.258 . S
O171 Eu160 2.392 . S
O171 C172 1.242 . S
C172 O170 1.258 . S
C172 O171 1.242 . S
O173 Eu160 2.418 . S
O173 C177 1.244 1_556 S
O174 Eu161 2.488 . S
O174 C190 1.249 . S
O175 Eu161 2.471 . S
O175 C190 1.244 . S
O176 Eu161 2.349 . S
O176 C177 1.265 . S
C177 O173 1.244 1_554 S
C177 O176 1.265 . S
O178 Eu160 2.373 . S
O178 C191 1.258 . S
O179 Eu161 2.392 . S
O179 C191 1.242 1_554 S
O180 Eu161 2.418 1_556 S
O180 C162 1.244 . S
O181 Eu160 2.488 . S
O181 C169 1.249 . S
O182 Eu160 2.471 . S
O182 C169 1.244 . S
O183 Eu160 2.349 . S
O183 C162 1.265 . S
C184 C185 1.379 . S
C184 C188 1.373 . S
C184 C190 1.505 . S
C185 C184 1.379 . S
C185 C187 1.369 . S
C185 H196 0.930 . S
C186 C188 1.383 . S
C186 C189 1.382 . S
C186 H197 0.930 . S
C187 C185 1.369 . S
C187 C189 1.392 . S
C187 H198 0.930 . S
C188 C184 1.373 . S
C188 C186 1.383 . S
C188 H199 0.931 . S
C189 C186 1.382 . S
C189 C187 1.392 . S
C190 Eu161 2.828 . S
C190 O174 1.249 . S
C190 O175 1.244 . S
C190 C184 1.505 . S
C191 O178 1.258 . S
C191 O179 1.242 1_556 S
H192 C164 0.930 . S
H193 C165 0.930 . S
H194 C166 0.930 . S
H195 C167 0.931 . S
H196 C185 0.930 . S
H197 C186 0.930 . S
H198 C187 0.930 . S
H199 C188 0.931 . S
Eu200 C209 2.828 . S
Eu200 O211 2.392 . S
Eu200 O213 2.418 . S
Eu200 O218 2.373 . S
Eu200 O221 2.488 . S
Eu200 O222 2.471 . S
Eu200 O223 2.349 . S
Eu201 O210 2.373 . S
Eu201 O214 2.488 . S
Eu201 O215 2.471 . S
Eu201 O216 2.349 . S
Eu201 O219 2.392 . S
Eu201 O220 2.418 . S
Eu201 C230 2.828 . S
C202 O220 1.244 . S
C202 O223 1.265 . S
C203 C204 1.379 . S
C203 C207 1.373 . S
C203 C209 1.505 . S
C204 C203 1.379 . S
C204 C206 1.369 . S
C204 H232 0.930 . S
C205 C207 1.383 . S
C205 C208 1.382 . S
C205 H233 0.930 . S
C206 C204 1.369 . S
C206 C208 1.392 . S
C206 H234 0.930 . S
C207 C203 1.373 . S
C207 C205 1.383 . S
C207 H235 0.931 . S
C208 C205 1.382 . S
C208 C206 1.392 . S
C209 Eu200 2.828 . S
C209 C203 1.505 . S
C209 O221 1.249 . S
C209 O222 1.244 . S
O210 Eu201 2.373 . S
O210 C212 1.258 . S
O211 Eu200 2.392 . S
O211 C212 1.242 . S
C212 O210 1.258 . S
C212 O211 1.242 . S
O213 Eu200 2.418 . S
O213 C217 1.244 . S
O214 Eu201 2.488 . S
O214 C230 1.249 . S
O215 Eu201 2.471 . S
O215 C230 1.244 . S
O216 Eu201 2.349 . S
O216 C217 1.265 . S
C217 O213 1.244 . S
C217 O216 1.265 . S
O218 Eu200 2.373 . S
O218 C231 1.258 . S
O219 Eu201 2.392 . S
O219 C231 1.242 . S
O220 Eu201 2.418 . S
O220 C202 1.244 . S
O221 Eu200 2.488 . S
O221 C209 1.249 . S
O222 Eu200 2.471 . S
O222 C209 1.244 . S
O223 Eu200 2.349 . S
O223 C202 1.265 . S
C224 C225 1.379 . S
C224 C228 1.373 . S
C224 C230 1.505 . S
C225 C224 1.379 . S
C225 C227 1.369 . S
C225 H236 0.930 . S
C226 C228 1.383 . S
C226 C229 1.382 . S
C226 H237 0.930 . S
C227 C225 1.369 . S
C227 C229 1.392 . S
C227 H238 0.930 . S
C228 C224 1.373 . S
C228 C226 1.383 . S
C228 H239 0.931 . S
C229 C226 1.382 . S
C229 C227 1.392 . S
C230 Eu201 2.828 . S
C230 O214 1.249 . S
C230 O215 1.244 . S
C230 C224 1.505 . S
C231 O218 1.258 . S
C231 O219 1.242 . S
H232 C204 0.930 . S
H233 C205 0.930 . S
H234 C206 0.930 . S
H235 C207 0.931 . S
H236 C225 0.930 . S
H237 C226 0.930 . S
H238 C227 0.930 . S
H239 C228 0.931 . S
Eu240 C249 2.828 . S
Eu240 O251 2.392 . S
Eu240 O253 2.418 . S
Eu240 O258 2.373 . S
Eu240 O261 2.488 . S
Eu240 O262 2.471 . S
Eu240 O263 2.349 . S
Eu241 O250 2.373 . S
Eu241 O254 2.488 . S
Eu241 O255 2.471 . S
Eu241 O256 2.349 . S
Eu241 O259 2.392 . S
Eu241 O260 2.418 . S
Eu241 C270 2.828 . S
C242 O260 1.244 . S
C242 O263 1.265 . S
C243 C244 1.379 . S
C243 C247 1.373 . S
C243 C249 1.505 . S
C244 C243 1.379 . S
C244 C246 1.369 . S
C244 H272 0.930 . S
C245 C247 1.383 . S
C245 C248 1.382 . S
C245 H273 0.930 . S
C246 C244 1.369 . S
C246 C248 1.392 . S
C246 H274 0.930 . S
C247 C243 1.373 . S
C247 C245 1.383 . S
C247 H275 0.931 . S
C248 C245 1.382 . S
C248 C246 1.392 . S
C249 Eu240 2.828 . S
C249 C243 1.505 . S
C249 O261 1.249 . S
C249 O262 1.244 . S
O250 Eu241 2.373 . S
O250 C252 1.258 . S
O251 Eu240 2.392 . S
O251 C252 1.242 . S
C252 O250 1.258 . S
C252 O251 1.242 . S
O253 Eu240 2.418 . S
O253 C257 1.244 . S
O254 Eu241 2.488 . S
O254 C270 1.249 . S
O255 Eu241 2.471 . S
O255 C270 1.244 . S
O256 Eu241 2.349 . S
O256 C257 1.265 . S
C257 O253 1.244 . S
C257 O256 1.265 . S
O258 Eu240 2.373 . S
O258 C271 1.258 . S
O259 Eu241 2.392 . S
O259 C271 1.242 . S
O260 Eu241 2.418 . S
O260 C242 1.244 . S
O261 Eu240 2.488 . S
O261 C249 1.249 . S
O262 Eu240 2.471 . S
O262 C249 1.244 . S
O263 Eu240 2.349 . S
O263 C242 1.265 . S
C264 C265 1.379 . S
C264 C268 1.373 . S
C264 C270 1.505 . S
C265 C264 1.379 . S
C265 C267 1.369 1_655 S
C265 H276 0.930 . S
C266 C268 1.383 1_455 S
C266 C269 1.382 . S
C266 H277 0.930 . S
C267 C265 1.369 1_455 S
C267 C269 1.392 . S
C267 H278 0.930 . S
C268 C264 1.373 . S
C268 C266 1.383 1_655 S
C268 H279 0.931 . S
C269 C266 1.382 . S
C269 C267 1.392 . S
C270 Eu241 2.828 . S
C270 O254 1.249 . S
C270 O255 1.244 . S
C270 C264 1.505 . S
C271 O258 1.258 . S
C271 O259 1.242 . S
H272 C244 0.930 . S
H273 C245 0.930 . S
H274 C246 0.930 . S
H275 C247 0.931 . S
H276 C265 0.930 . S
H277 C266 0.930 . S
H278 C267 0.930 . S
H279 C268 0.931 . S
Eu280 C289 2.828 . S
Eu280 O291 2.392 . S
Eu280 O293 2.418 . S
Eu280 O298 2.373 . S
Eu280 O301 2.488 . S
Eu280 O302 2.471 . S
Eu280 O303 2.349 . S
Eu281 O290 2.373 . S
Eu281 O294 2.488 . S
Eu281 O295 2.471 . S
Eu281 O296 2.349 . S
Eu281 O299 2.392 . S
Eu281 O300 2.418 . S
Eu281 C310 2.828 . S
C282 O300 1.244 . S
C282 O303 1.265 . S
C283 C284 1.379 . S
C283 C287 1.373 . S
C283 C289 1.505 . S
C284 C283 1.379 . S
C284 C286 1.369 . S
C284 H312 0.930 . S
C285 C287 1.383 . S
C285 C288 1.382 . S
C285 H313 0.930 . S
C286 C284 1.369 . S
C286 C288 1.392 . S
C286 H314 0.930 . S
C287 C283 1.373 . S
C287 C285 1.383 . S
C287 H315 0.931 . S
C288 C285 1.382 . S
C288 C286 1.392 . S
C289 Eu280 2.828 . S
C289 C283 1.505 . S
C289 O301 1.249 . S
C289 O302 1.244 . S
O290 Eu281 2.373 . S
O290 C292 1.258 . S
O291 Eu280 2.392 . S
O291 C292 1.242 . S
C292 O290 1.258 . S
C292 O291 1.242 . S
O293 Eu280 2.418 . S
O293 C297 1.244 . S
O294 Eu281 2.488 . S
O294 C310 1.249 . S
O295 Eu281 2.471 . S
O295 C310 1.244 . S
O296 Eu281 2.349 . S
O296 C297 1.265 . S
C297 O293 1.244 . S
C297 O296 1.265 . S
O298 Eu280 2.373 . S
O298 C311 1.258 . S
O299 Eu281 2.392 . S
O299 C311 1.242 . S
O300 Eu281 2.418 . S
O300 C282 1.244 . S
O301 Eu280 2.488 . S
O301 C289 1.249 . S
O302 Eu280 2.471 . S
O302 C289 1.244 . S
O303 Eu280 2.349 . S
O303 C282 1.265 . S
C304 C305 1.379 . S
C304 C308 1.373 . S
C304 C310 1.505 . S
C305 C304 1.379 . S
C305 C307 1.369 . S
C305 H316 0.930 . S
C306 C308 1.383 . S
C306 C309 1.382 . S
C306 H317 0.930 . S
C307 C305 1.369 . S
C307 C309 1.392 . S
C307 H318 0.930 . S
C308 C304 1.373 . S
C308 C306 1.383 . S
C308 H319 0.931 . S
C309 C306 1.382 . S
C309 C307 1.392 . S
C310 Eu281 2.828 . S
C310 O294 1.249 . S
C310 O295 1.244 . S
C310 C304 1.505 . S
C311 O298 1.258 . S
C311 O299 1.242 . S
H312 C284 0.930 . S
H313 C285 0.930 . S
H314 C286 0.930 . S
H315 C287 0.931 . S
H316 C305 0.930 . S
H317 C306 0.930 . S
H318 C307 0.930 . S
H319 C308 0.931 . S
Eu320 C329 2.828 . S
Eu320 O331 2.392 . S
Eu320 O333 2.418 . S
Eu320 O338 2.373 . S
Eu320 O341 2.488 . S
Eu320 O342 2.471 . S
Eu320 O343 2.349 . S
Eu321 O330 2.373 . S
Eu321 O334 2.488 . S
Eu321 O335 2.471 . S
Eu321 O336 2.349 . S
Eu321 O339 2.392 . S
Eu321 O340 2.418 . S
Eu321 C350 2.828 . S
C322 O340 1.244 . S
C322 O343 1.265 . S
C323 C324 1.379 . S
C323 C327 1.373 . S
C323 C329 1.505 . S
C324 C323 1.379 . S
C324 C326 1.369 1_655 S
C324 H352 0.930 . S
C325 C327 1.383 1_455 S
C325 C328 1.382 . S
C325 H353 0.930 . S
C326 C324 1.369 1_455 S
C326 C328 1.392 . S
C326 H354 0.930 . S
C327 C323 1.373 . S
C327 C325 1.383 1_655 S
C327 H355 0.931 . S
C328 C325 1.382 . S
C328 C326 1.392 . S
C329 Eu320 2.828 . S
C329 C323 1.505 . S
C329 O341 1.249 . S
C329 O342 1.244 . S
O330 Eu321 2.373 . S
O330 C332 1.258 . S
O331 Eu320 2.392 . S
O331 C332 1.242 . S
C332 O330 1.258 . S
C332 O331 1.242 . S
O333 Eu320 2.418 . S
O333 C337 1.244 . S
O334 Eu321 2.488 . S
O334 C350 1.249 . S
O335 Eu321 2.471 . S
O335 C350 1.244 . S
O336 Eu321 2.349 . S
O336 C337 1.265 . S
C337 O333 1.244 . S
C337 O336 1.265 . S
O338 Eu320 2.373 . S
O338 C351 1.258 . S
O339 Eu321 2.392 . S
O339 C351 1.242 . S
O340 Eu321 2.418 . S
O340 C322 1.244 . S
O341 Eu320 2.488 . S
O341 C329 1.249 . S
O342 Eu320 2.471 . S
O342 C329 1.244 . S
O343 Eu320 2.349 . S
O343 C322 1.265 . S
C344 C345 1.379 . S
C344 C348 1.373 . S
C344 C350 1.505 . S
C345 C344 1.379 . S
C345 C347 1.369 . S
C345 H356 0.930 . S
C346 C348 1.383 . S
C346 C349 1.382 . S
C346 H357 0.930 . S
C347 C345 1.369 . S
C347 C349 1.392 . S
C347 H358 0.930 . S
C348 C344 1.373 . S
C348 C346 1.383 . S
C348 H359 0.931 . S
C349 C346 1.382 . S
C349 C347 1.392 . S
C350 Eu321 2.828 . S
C350 O334 1.249 . S
C350 O335 1.244 . S
C350 C344 1.505 . S
C351 O338 1.258 . S
C351 O339 1.242 . S
H352 C324 0.930 . S
H353 C325 0.930 . S
H354 C326 0.930 . S
H355 C327 0.931 . S
H356 C345 0.930 . S
H357 C346 0.930 . S
H358 C347 0.930 . S
H359 C348 0.931 . S
Eu360 C369 2.828 . S
Eu360 O371 2.392 . S
Eu360 O373 2.418 . S
Eu360 O378 2.373 . S
Eu360 O381 2.488 . S
Eu360 O382 2.471 . S
Eu360 O383 2.349 . S
Eu361 O370 2.373 . S
Eu361 O374 2.488 . S
Eu361 O375 2.471 . S
Eu361 O376 2.349 . S
Eu361 O379 2.392 . S
Eu361 O380 2.418 . S
Eu361 C390 2.828 . S
C362 O380 1.244 . S
C362 O383 1.265 . S
C363 C364 1.379 . S
C363 C367 1.373 . S
C363 C369 1.505 . S
C364 C363 1.379 . S
C364 C366 1.369 . S
C364 H392 0.930 . S
C365 C367 1.383 . S
C365 C368 1.382 . S
C365 H393 0.930 . S
C366 C364 1.369 . S
C366 C368 1.392 . S
C366 H394 0.930 . S
C367 C363 1.373 . S
C367 C365 1.383 . S
C367 H395 0.931 . S
C368 C365 1.382 . S
C368 C366 1.392 . S
C369 Eu360 2.828 . S
C369 C363 1.505 . S
C369 O381 1.249 . S
C369 O382 1.244 . S
O370 Eu361 2.373 . S
O370 C372 1.258 . S
O371 Eu360 2.392 . S
O371 C372 1.242 . S
C372 O370 1.258 . S
C372 O371 1.242 . S
O373 Eu360 2.418 . S
O373 C377 1.244 . S
O374 Eu361 2.488 . S
O374 C390 1.249 . S
O375 Eu361 2.471 . S
O375 C390 1.244 . S
O376 Eu361 2.349 . S
O376 C377 1.265 . S
C377 O373 1.244 . S
C377 O376 1.265 . S
O378 Eu360 2.373 . S
O378 C391 1.258 . S
O379 Eu361 2.392 . S
O379 C391 1.242 . S
O380 Eu361 2.418 . S
O380 C362 1.244 . S
O381 Eu360 2.488 . S
O381 C369 1.249 . S
O382 Eu360 2.471 . S
O382 C369 1.244 . S
O383 Eu360 2.349 . S
O383 C362 1.265 . S
C384 C385 1.379 . S
C384 C388 1.373 . S
C384 C390 1.505 . S
C385 C384 1.379 . S
C385 C387 1.369 . S
C385 H396 0.930 . S
C386 C388 1.383 . S
C386 C389 1.382 1_545 S
C386 H397 0.930 1_545 S
C387 C385 1.369 . S
C387 C389 1.392 1_545 S
C387 H398 0.930 1_545 S
C388 C384 1.373 . S
C388 C386 1.383 . S
C388 H399 0.931 . S
C389 C386 1.382 1_565 S
C389 C387 1.392 1_565 S
C390 Eu361 2.828 . S
C390 O374 1.249 . S
C390 O375 1.244 . S
C390 C384 1.505 . S
C391 O378 1.258 . S
C391 O379 1.242 . S
H392 C364 0.930 . S
H393 C365 0.930 . S
H394 C366 0.930 . S
H395 C367 0.931 . S
H396 C385 0.930 . S
H397 C386 0.930 1_565 S
H398 C387 0.930 1_565 S
H399 C388 0.931 . S
Eu400 C409 2.828 . S
Eu400 O411 2.392 . S
Eu400 O413 2.418 1_556 S
Eu400 O418 2.373 1_556 S
Eu400 O421 2.488 . S
Eu400 O422 2.471 . S
Eu400 O423 2.349 . S
Eu401 O410 2.373 . S
Eu401 O414 2.488 . S
Eu401 O415 2.471 . S
Eu401 O416 2.349 . S
Eu401 O419 2.392 . S
Eu401 O420 2.418 . S
Eu401 C430 2.828 . S
C402 O420 1.244 1_556 S
C402 O423 1.265 . S
C403 C404 1.379 . S
C403 C407 1.373 . S
C403 C409 1.505 . S
C404 C403 1.379 . S
C404 C406 1.369 . S
C404 H432 0.930 . S
C405 C407 1.383 . S
C405 C408 1.382 . S
C405 H433 0.930 . S
C406 C404 1.369 . S
C406 C408 1.392 . S
C406 H434 0.930 . S
C407 C403 1.373 . S
C407 C405 1.383 . S
C407 H435 0.931 . S
C408 C405 1.382 . S
C408 C406 1.392 . S
C409 Eu400 2.828 . S
C409 C403 1.505 . S
C409 O421 1.249 . S
C409 O422 1.244 . S
O410 Eu401 2.373 . S
O410 C412 1.258 . S
O411 Eu400 2.392 . S
O411 C412 1.242 1_556 S
C412 O410 1.258 . S
C412 O411 1.242 1_554 S
O413 Eu400 2.418 1_554 S
O413 C417 1.244 . S
O414 Eu401 2.488 . S
O414 C430 1.249 . S
O415 Eu401 2.471 . S
O415 C430 1.244 . S
O416 Eu401 2.349 . S
O416 C417 1.265 . S
C417 O413 1.244 . S
C417 O416 1.265 . S
O418 Eu400 2.373 1_554 S
O418 C431 1.258 . S
O419 Eu401 2.392 . S
O419 C431 1.242 . S
O420 Eu401 2.418 . S
O420 C402 1.244 1_554 S
O421 Eu400 2.488 . S
O421 C409 1.249 . S
O422 Eu400 2.471 . S
O422 C409 1.244 . S
O423 Eu400 2.349 . S
O423 C402 1.265 . S
C424 C425 1.379 . S
C424 C428 1.373 . S
C424 C430 1.505 . S
C425 C424 1.379 . S
C425 C427 1.369 . S
C425 H436 0.930 . S
C426 C428 1.383 . S
C426 C429 1.382 . S
C426 H437 0.930 . S
C427 C425 1.369 . S
C427 C429 1.392 . S
C427 H438 0.930 . S
C428 C424 1.373 . S
C428 C426 1.383 . S
C428 H439 0.931 . S
C429 C426 1.382 . S
C429 C427 1.392 . S
C430 Eu401 2.828 . S
C430 O414 1.249 . S
C430 O415 1.244 . S
C430 C424 1.505 . S
C431 O418 1.258 . S
C431 O419 1.242 . S
H432 C404 0.930 . S
H433 C405 0.930 . S
H434 C406 0.930 . S
H435 C407 0.931 . S
H436 C425 0.930 . S
H437 C426 0.930 . S
H438 C427 0.930 . S
H439 C428 0.931 . S
Eu440 C449 2.828 . S
Eu440 O451 2.392 . S
Eu440 O453 2.418 . S
Eu440 O458 2.373 . S
Eu440 O461 2.488 . S
Eu440 O462 2.471 . S
Eu440 O463 2.349 . S
Eu441 O450 2.373 . S
Eu441 O454 2.488 . S
Eu441 O455 2.471 . S
Eu441 O456 2.349 . S
Eu441 O459 2.392 . S
Eu441 O460 2.418 . S
Eu441 C470 2.828 . S
C442 O460 1.244 . S
C442 O463 1.265 . S
C443 C444 1.379 . S
C443 C447 1.373 . S
C443 C449 1.505 . S
C444 C443 1.379 . S
C444 C446 1.369 . S
C444 H472 0.930 . S
C445 C447 1.383 . S
C445 C448 1.382 . S
C445 H473 0.930 . S
C446 C444 1.369 . S
C446 C448 1.392 . S
C446 H474 0.930 . S
C447 C443 1.373 . S
C447 C445 1.383 . S
C447 H475 0.931 . S
C448 C445 1.382 . S
C448 C446 1.392 . S
C449 Eu440 2.828 . S
C449 C443 1.505 . S
C449 O461 1.249 . S
C449 O462 1.244 . S
O450 Eu441 2.373 . S
O450 C452 1.258 . S
O451 Eu440 2.392 . S
O451 C452 1.242 . S
C452 O450 1.258 . S
C452 O451 1.242 . S
O453 Eu440 2.418 . S
O453 C457 1.244 . S
O454 Eu441 2.488 . S
O454 C470 1.249 . S
O455 Eu441 2.471 . S
O455 C470 1.244 . S
O456 Eu441 2.349 . S
O456 C457 1.265 . S
C457 O453 1.244 . S
C457 O456 1.265 . S
O458 Eu440 2.373 . S
O458 C471 1.258 . S
O459 Eu441 2.392 . S
O459 C471 1.242 . S
O460 Eu441 2.418 . S
O460 C442 1.244 . S
O461 Eu440 2.488 . S
O461 C449 1.249 . S
O462 Eu440 2.471 . S
O462 C449 1.244 . S
O463 Eu440 2.349 . S
O463 C442 1.265 . S
C464 C465 1.379 . S
C464 C468 1.373 . S
C464 C470 1.505 . S
C465 C464 1.379 . S
C465 C467 1.369 . S
C465 H476 0.930 . S
C466 C468 1.383 . S
C466 C469 1.382 1_565 S
C466 H477 0.930 1_565 S
C467 C465 1.369 . S
C467 C469 1.392 1_565 S
C467 H478 0.930 1_565 S
C468 C464 1.373 . S
C468 C466 1.383 . S
C468 H479 0.931 . S
C469 C466 1.382 1_545 S
C469 C467 1.392 1_545 S
C470 Eu441 2.828 . S
C470 O454 1.249 . S
C470 O455 1.244 . S
C470 C464 1.505 . S
C471 O458 1.258 . S
C471 O459 1.242 . S
H472 C444 0.930 . S
H473 C445 0.930 . S
H474 C446 0.930 . S
H475 C447 0.931 . S
H476 C465 0.930 . S
H477 C466 0.930 1_545 S
H478 C467 0.930 1_545 S
H479 C468 0.931 . S
Eu480 C489 2.828 . S
Eu480 O491 2.392 . S
Eu480 O493 2.418 . S
Eu480 O498 2.373 . S
Eu480 O501 2.488 . S
Eu480 O502 2.471 . S
Eu480 O503 2.349 . S
Eu481 O490 2.373 . S
Eu481 O494 2.488 . S
Eu481 O495 2.471 . S
Eu481 O496 2.349 . S
Eu481 O499 2.392 . S
Eu481 O500 2.418 . S
Eu481 C510 2.828 . S
C482 O500 1.244 . S
C482 O503 1.265 . S
C483 C484 1.379 . S
C483 C487 1.373 . S
C483 C489 1.505 . S
C484 C483 1.379 . S
C484 C486 1.369 . S
C484 H512 0.930 . S
C485 C487 1.383 . S
C485 C488 1.382 . S
C485 H513 0.930 . S
C486 C484 1.369 . S
C486 C488 1.392 . S
C486 H514 0.930 . S
C487 C483 1.373 . S
C487 C485 1.383 . S
C487 H515 0.931 . S
C488 C485 1.382 . S
C488 C486 1.392 . S
C489 Eu480 2.828 . S
C489 C483 1.505 . S
C489 O501 1.249 . S
C489 O502 1.244 . S
O490 Eu481 2.373 . S
O490 C492 1.258 . S
O491 Eu480 2.392 . S
O491 C492 1.242 . S
C492 O490 1.258 . S
C492 O491 1.242 . S
O493 Eu480 2.418 . S
O493 C497 1.244 . S
O494 Eu481 2.488 . S
O494 C510 1.249 . S
O495 Eu481 2.471 . S
O495 C510 1.244 . S
O496 Eu481 2.349 . S
O496 C497 1.265 . S
C497 O493 1.244 . S
C497 O496 1.265 . S
O498 Eu480 2.373 . S
O498 C511 1.258 . S
O499 Eu481 2.392 . S
O499 C511 1.242 . S
O500 Eu481 2.418 . S
O500 C482 1.244 . S
O501 Eu480 2.488 . S
O501 C489 1.249 . S
O502 Eu480 2.471 . S
O502 C489 1.244 . S
O503 Eu480 2.349 . S
O503 C482 1.265 . S
C504 C505 1.379 . S
C504 C508 1.373 . S
C504 C510 1.505 . S
C505 C504 1.379 . S
C505 C507 1.369 1_455 S
C505 H516 0.930 . S
C506 C508 1.383 1_655 S
C506 C509 1.382 . S
C506 H517 0.930 . S
C507 C505 1.369 1_655 S
C507 C509 1.392 . S
C507 H518 0.930 . S
C508 C504 1.373 . S
C508 C506 1.383 1_455 S
C508 H519 0.931 . S
C509 C506 1.382 . S
C509 C507 1.392 . S
C510 Eu481 2.828 . S
C510 O494 1.249 . S
C510 O495 1.244 . S
C510 C504 1.505 . S
C511 O498 1.258 . S
C511 O499 1.242 . S
H512 C484 0.930 . S
H513 C485 0.930 . S
H514 C486 0.930 . S
H515 C487 0.931 . S
H516 C505 0.930 . S
H517 C506 0.930 . S
H518 C507 0.930 . S
H519 C508 0.931 . S
Eu520 C529 2.828 . S
Eu520 O531 2.392 . S
Eu520 O533 2.418 . S
Eu520 O538 2.373 . S
Eu520 O541 2.488 . S
Eu520 O542 2.471 . S
Eu520 O543 2.349 . S
Eu521 O530 2.373 . S
Eu521 O534 2.488 . S
Eu521 O535 2.471 . S
Eu521 O536 2.349 . S
Eu521 O539 2.392 . S
Eu521 O540 2.418 . S
Eu521 C550 2.828 . S
C522 O540 1.244 . S
C522 O543 1.265 . S
C523 C524 1.379 . S
C523 C527 1.373 . S
C523 C529 1.505 . S
C524 C523 1.379 . S
C524 C526 1.369 . S
C524 H552 0.930 . S
C525 C527 1.383 . S
C525 C528 1.382 1_565 S
C525 H553 0.930 1_565 S
C526 C524 1.369 . S
C526 C528 1.392 1_565 S
C526 H554 0.930 1_565 S
C527 C523 1.373 . S
C527 C525 1.383 . S
C527 H555 0.931 . S
C528 C525 1.382 1_545 S
C528 C526 1.392 1_545 S
C529 Eu520 2.828 . S
C529 C523 1.505 . S
C529 O541 1.249 . S
C529 O542 1.244 . S
O530 Eu521 2.373 . S
O530 C532 1.258 . S
O531 Eu520 2.392 . S
O531 C532 1.242 . S
C532 O530 1.258 . S
C532 O531 1.242 . S
O533 Eu520 2.418 . S
O533 C537 1.244 . S
O534 Eu521 2.488 . S
O534 C550 1.249 . S
O535 Eu521 2.471 . S
O535 C550 1.244 . S
O536 Eu521 2.349 . S
O536 C537 1.265 . S
C537 O533 1.244 . S
C537 O536 1.265 . S
O538 Eu520 2.373 . S
O538 C551 1.258 . S
O539 Eu521 2.392 . S
O539 C551 1.242 . S
O540 Eu521 2.418 . S
O540 C522 1.244 . S
O541 Eu520 2.488 . S
O541 C529 1.249 . S
O542 Eu520 2.471 . S
O542 C529 1.244 . S
O543 Eu520 2.349 . S
O543 C522 1.265 . S
C544 C545 1.379 . S
C544 C548 1.373 . S
C544 C550 1.505 . S
C545 C544 1.379 . S
C545 C547 1.369 . S
C545 H556 0.930 . S
C546 C548 1.383 . S
C546 C549 1.382 . S
C546 H557 0.930 . S
C547 C545 1.369 . S
C547 C549 1.392 . S
C547 H558 0.930 . S
C548 C544 1.373 . S
C548 C546 1.383 . S
C548 H559 0.931 . S
C549 C546 1.382 . S
C549 C547 1.392 . S
C550 Eu521 2.828 . S
C550 O534 1.249 . S
C550 O535 1.244 . S
C550 C544 1.505 . S
C551 O538 1.258 . S
C551 O539 1.242 . S
H552 C524 0.930 . S
H553 C525 0.930 1_545 S
H554 C526 0.930 1_545 S
H555 C527 0.931 . S
H556 C545 0.930 . S
H557 C546 0.930 . S
H558 C547 0.930 . S
H559 C548 0.931 . S
Eu560 C569 2.828 . S
Eu560 O571 2.392 . S
Eu560 O573 2.418 . S
Eu560 O578 2.373 . S
Eu560 O581 2.488 . S
Eu560 O582 2.471 . S
Eu560 O583 2.349 . S
Eu561 O570 2.373 1_554 S
Eu561 O574 2.488 . S
Eu561 O575 2.471 . S
Eu561 O576 2.349 . S
Eu561 O579 2.392 . S
Eu561 O580 2.418 1_554 S
Eu561 C590 2.828 . S
C562 O580 1.244 . S
C562 O583 1.265 . S
C563 C564 1.379 . S
C563 C567 1.373 . S
C563 C569 1.505 . S
C564 C563 1.379 . S
C564 C566 1.369 . S
C564 H592 0.930 . S
C565 C567 1.383 . S
C565 C568 1.382 . S
C565 H593 0.930 . S
C566 C564 1.369 . S
C566 C568 1.392 . S
C566 H594 0.930 . S
C567 C563 1.373 . S
C567 C565 1.383 . S
C567 H595 0.931 . S
C568 C565 1.382 . S
C568 C566 1.392 . S
C569 Eu560 2.828 . S
C569 C563 1.505 . S
C569 O581 1.249 . S
C569 O582 1.244 . S
O570 Eu561 2.373 1_556 S
O570 C572 1.258 . S
O571 Eu560 2.392 . S
O571 C572 1.242 . S
C572 O570 1.258 . S
C572 O571 1.242 . S
O573 Eu560 2.418 . S
O573 C577 1.244 1_556 S
O574 Eu561 2.488 . S
O574 C590 1.249 . S
O575 Eu561 2.471 . S
O575 C590 1.244 . S
O576 Eu561 2.349 . S
O576 C577 1.265 . S
C577 O573 1.244 1_554 S
C577 O576 1.265 . S
O578 Eu560 2.373 . S
O578 C591 1.258 . S
O579 Eu561 2.392 . S
O579 C591 1.242 1_554 S
O580 Eu561 2.418 1_556 S
O580 C562 1.244 . S
O581 Eu560 2.488 . S
O581 C569 1.249 . S
O582 Eu560 2.471 . S
O582 C569 1.244 . S
O583 Eu560 2.349 . S
O583 C562 1.265 . S
C584 C585 1.379 . S
C584 C588 1.373 . S
C584 C590 1.505 . S
C585 C584 1.379 . S
C585 C587 1.369 . S
C585 H596 0.930 . S
C586 C588 1.383 . S
C586 C589 1.382 . S
C586 H597 0.930 . S
C587 C585 1.369 . S
C587 C589 1.392 . S
C587 H598 0.930 . S
C588 C584 1.373 . S
C588 C586 1.383 . S
C588 H599 0.931 . S
C589 C586 1.382 . S
C589 C587 1.392 . S
C590 Eu561 2.828 . S
C590 O574 1.249 . S
C590 O575 1.244 . S
C590 C584 1.505 . S
C591 O578 1.258 . S
C591 O579 1.242 1_556 S
H592 C564 0.930 . S
H593 C565 0.930 . S
H594 C566 0.930 . S
H595 C567 0.931 . S
H596 C585 0.930 . S
H597 C586 0.930 . S
H598 C587 0.930 . S
H599 C588 0.931 . S
Eu600 C609 2.828 . S
Eu600 O611 2.392 . S
Eu600 O613 2.418 . S
Eu600 O618 2.373 . S
Eu600 O621 2.488 . S
Eu600 O622 2.471 . S
Eu600 O623 2.349 . S
Eu601 O610 2.373 . S
Eu601 O614 2.488 . S
Eu601 O615 2.471 . S
Eu601 O616 2.349 . S
Eu601 O619 2.392 . S
Eu601 O620 2.418 . S
Eu601 C630 2.828 . S
C602 O620 1.244 . S
C602 O623 1.265 . S
C603 C604 1.379 . S
C603 C607 1.373 . S
C603 C609 1.505 . S
C604 C603 1.379 . S
C604 C606 1.369 . S
C604 H632 0.930 . S
C605 C607 1.383 . S
C605 C608 1.382 1_545 S
C605 H633 0.930 1_545 S
C606 C604 1.369 . S
C606 C608 1.392 1_545 S
C606 H634 0.930 1_545 S
C607 C603 1.373 . S
C607 C605 1.383 . S
C607 H635 0.931 . S
C608 C605 1.382 1_565 S
C608 C606 1.392 1_565 S
C609 Eu600 2.828 . S
C609 C603 1.505 . S
C609 O621 1.249 . S
C609 O622 1.244 . S
O610 Eu601 2.373 . S
O610 C612 1.258 . S
O611 Eu600 2.392 . S
O611 C612 1.242 . S
C612 O610 1.258 . S
C612 O611 1.242 . S
O613 Eu600 2.418 . S
O613 C617 1.244 . S
O614 Eu601 2.488 . S
O614 C630 1.249 . S
O615 Eu601 2.471 . S
O615 C630 1.244 . S
O616 Eu601 2.349 . S
O616 C617 1.265 . S
C617 O613 1.244 . S
C617 O616 1.265 . S
O618 Eu600 2.373 . S
O618 C631 1.258 . S
O619 Eu601 2.392 . S
O619 C631 1.242 . S
O620 Eu601 2.418 . S
O620 C602 1.244 . S
O621 Eu600 2.488 . S
O621 C609 1.249 . S
O622 Eu600 2.471 . S
O622 C609 1.244 . S
O623 Eu600 2.349 . S
O623 C602 1.265 . S
C624 C625 1.379 . S
C624 C628 1.373 . S
C624 C630 1.505 . S
C625 C624 1.379 . S
C625 C627 1.369 . S
C625 H636 0.930 . S
C626 C628 1.383 . S
C626 C629 1.382 . S
C626 H637 0.930 . S
C627 C625 1.369 . S
C627 C629 1.392 . S
C627 H638 0.930 . S
C628 C624 1.373 . S
C628 C626 1.383 . S
C628 H639 0.931 . S
C629 C626 1.382 . S
C629 C627 1.392 . S
C630 Eu601 2.828 . S
C630 O614 1.249 . S
C630 O615 1.244 . S
C630 C624 1.505 . S
C631 O618 1.258 . S
C631 O619 1.242 . S
H632 C604 0.930 . S
H633 C605 0.930 1_565 S
H634 C606 0.930 1_565 S
H635 C607 0.931 . S
H636 C625 0.930 . S
H637 C626 0.930 . S
H638 C627 0.930 . S
H639 C628 0.931 . S
C640 C641 1.369 . S
C640 C642 1.419 . S
C640 H644 0.930 . S
C641 C640 1.369 . S
C641 C650 1.429 . S
C642 C640 1.419 . S
C642 C643 1.363 . S
C642 H645 0.929 . S
C643 C642 1.363 . S
C643 C649 1.428 . S
H644 C640 0.930 . S
H645 C642 0.929 . S
S646 N647 1.613 . S
S646 N648 1.610 . S
N647 S646 1.613 . S
N647 C650 1.350 1_556 S
N648 S646 1.610 . S
N648 C649 1.351 1_556 S
C649 C643 1.428 . S
C649 N648 1.351 1_554 S
C649 C650 1.434 . S
C650 C641 1.429 . S
C650 N647 1.350 1_554 S
C650 C649 1.434 . S
C651 C652 1.369 . S
C651 C653 1.419 . S
C651 H655 0.930 . S
C652 C651 1.369 . S
C652 C661 1.429 . S
C653 C651 1.419 . S
C653 C654 1.363 . S
C653 H656 0.929 . S
C654 C653 1.363 . S
C654 C660 1.428 . S
H655 C651 0.930 . S
H656 C653 0.929 . S
S657 N658 1.613 . S
S657 N659 1.610 . S
N658 S657 1.613 . S
N658 C661 1.350 . S
N659 S657 1.610 . S
N659 C660 1.351 . S
C660 C654 1.428 . S
C660 N659 1.351 . S
C660 C661 1.434 . S
C661 C652 1.429 . S
C661 N658 1.350 . S
C661 C660 1.434 . S
C662 C663 1.369 . S
C662 C664 1.419 1_455 S
C662 H666 0.930 . S
C663 C662 1.369 . S
C663 C672 1.429 . S
C664 C662 1.419 1_655 S
C664 C665 1.363 . S
C664 H667 0.929 . S
C665 C664 1.363 . S
C665 C671 1.428 . S
H666 C662 0.930 . S
H667 C664 0.929 . S
S668 N669 1.613 1_655 S
S668 N670 1.610 . S
N669 S668 1.613 1_455 S
N669 C672 1.350 . S
N670 S668 1.610 . S
N670 C671 1.351 . S
C671 C665 1.428 . S
C671 N670 1.351 . S
C671 C672 1.434 1_655 S
C672 C663 1.429 . S
C672 N669 1.350 . S
C672 C671 1.434 1_455 S
C673 C674 1.369 . S
C673 C675 1.419 1_655 S
C673 H677 0.930 . S
C674 C673 1.369 . S
C674 C683 1.429 . S
C675 C673 1.419 1_455 S
C675 C676 1.363 . S
C675 H678 0.929 . S
C676 C675 1.363 . S
C676 C682 1.428 . S
H677 C673 0.930 . S
H678 C675 0.929 . S
S679 N680 1.613 . S
S679 N681 1.610 1_655 S
N680 S679 1.613 . S
N680 C683 1.350 . S
N681 S679 1.610 1_455 S
N681 C682 1.351 . S
C682 C676 1.428 . S
C682 N681 1.351 . S
C682 C683 1.434 1_455 S
C683 C674 1.429 . S
C683 N680 1.350 . S
C683 C682 1.434 1_655 S
C684 C685 1.369 . S
C684 C686 1.419 . S
C684 H688 0.930 . S
C685 C684 1.369 . S
C685 C694 1.429 . S
C686 C684 1.419 . S
C686 C687 1.363 . S
C686 H689 0.929 . S
C687 C686 1.363 . S
C687 C693 1.428 . S
H688 C684 0.930 . S
H689 C686 0.929 . S
S690 N691 1.613 . S
S690 N692 1.610 . S
N691 S690 1.613 . S
N691 C694 1.350 1_554 S
N692 S690 1.610 . S
N692 C693 1.351 1_554 S
C693 C687 1.428 . S
C693 N692 1.351 1_556 S
C693 C694 1.434 . S
C694 C685 1.429 . S
C694 N691 1.350 1_556 S
C694 C693 1.434 . S
C695 C696 1.369 . S
C695 C697 1.419 . S
C695 H699 0.930 . S
C696 C695 1.369 . S
C696 C705 1.429 . S
C697 C695 1.419 . S
C697 C698 1.363 . S
C697 H700 0.929 . S
C698 C697 1.363 . S
C698 C704 1.428 . S
H699 C695 0.930 . S
H700 C697 0.929 . S
S701 N702 1.613 . S
S701 N703 1.610 . S
N702 S701 1.613 . S
N702 C705 1.350 . S
N703 S701 1.610 . S
N703 C704 1.351 . S
C704 C698 1.428 . S
C704 N703 1.351 . S
C704 C705 1.434 . S
C705 C696 1.429 . S
C705 N702 1.350 . S
C705 C704 1.434 . S
C706 C707 1.369 . S
C706 C708 1.419 . S
C706 H710 0.930 . S
C707 C706 1.369 . S
C707 C716 1.429 1_655 S
C708 C706 1.419 . S
C708 C709 1.363 1_655 S
C708 H711 0.929 . S
C709 C708 1.363 1_455 S
C709 C715 1.428 . S
H710 C706 0.930 . S
H711 C708 0.929 . S
S712 N713 1.613 . S
S712 N714 1.610 . S
N713 S712 1.613 . S
N713 C716 1.350 . S
N714 S712 1.610 . S
N714 C715 1.351 . S
C715 C709 1.428 . S
C715 N714 1.351 . S
C715 C716 1.434 . S
C716 C707 1.429 1_455 S
C716 N713 1.350 . S
C716 C715 1.434 . S
C717 C718 1.369 . S
C717 C719 1.419 1_455 S
C717 H721 0.930 . S
C718 C717 1.369 . S
C718 C727 1.429 . S
C719 C717 1.419 1_655 S
C719 C720 1.363 . S
C719 H722 0.929 . S
C720 C719 1.363 . S
C720 C726 1.428 . S
H721 C717 0.930 . S
H722 C719 0.929 . S
S723 N724 1.613 . S
S723 N725 1.610 1_455 S
N724 S723 1.613 . S
N724 C727 1.350 . S
N725 S723 1.610 1_655 S
N725 C726 1.351 . S
C726 C720 1.428 . S
C726 N725 1.351 . S
C726 C727 1.434 1_655 S
C727 C718 1.429 . S
C727 N724 1.350 . S
C727 C726 1.434 1_455 S
C728 C729 1.369 . S
C728 C730 1.419 . S
C728 H732 0.930 . S
C729 C728 1.369 . S
C729 C738 1.429 . S
C730 C728 1.419 . S
C730 C731 1.363 . S
C730 H733 0.929 . S
C731 C730 1.363 . S
C731 C737 1.428 . S
H732 C728 0.930 . S
H733 C730 0.929 . S
S734 N735 1.613 . S
S734 N736 1.610 . S
N735 S734 1.613 . S
N735 C738 1.350 . S
N736 S734 1.610 . S
N736 C737 1.351 . S
C737 C731 1.428 . S
C737 N736 1.351 . S
C737 C738 1.434 . S
C738 C729 1.429 . S
C738 N735 1.350 . S
C738 C737 1.434 . S
C739 C740 1.369 . S
C739 C741 1.419 . S
C739 H743 0.930 . S
C740 C739 1.369 . S
C740 C749 1.429 . S
C741 C739 1.419 . S
C741 C742 1.363 . S
C741 H744 0.929 . S
C742 C741 1.363 . S
C742 C748 1.428 . S
H743 C739 0.930 . S
H744 C741 0.929 . S
S745 N746 1.613 . S
S745 N747 1.610 . S
N746 S745 1.613 . S
N746 C749 1.350 . S
N747 S745 1.610 . S
N747 C748 1.351 . S
C748 C742 1.428 . S
C748 N747 1.351 . S
C748 C749 1.434 . S
C749 C740 1.429 . S
C749 N746 1.350 . S
C749 C748 1.434 . S
C750 C751 1.369 . S
C750 C752 1.419 . S
C750 H754 0.930 . S
C751 C750 1.369 . S
C751 C760 1.429 . S
C752 C750 1.419 . S
C752 C753 1.363 . S
C752 H755 0.929 . S
C753 C752 1.363 . S
C753 C759 1.428 . S
H754 C750 0.930 . S
H755 C752 0.929 . S
S756 N757 1.613 . S
S756 N758 1.610 . S
N757 S756 1.613 . S
N757 C760 1.350 . S
N758 S756 1.610 . S
N758 C759 1.351 . S
C759 C753 1.428 . S
C759 N758 1.351 . S
C759 C760 1.434 . S
C760 C751 1.429 . S
C760 N757 1.350 . S
C760 C759 1.434 . S
C761 C762 1.369 . S
C761 C763 1.419 . S
C761 H765 0.930 . S
C762 C761 1.369 . S
C762 C771 1.429 . S
C763 C761 1.419 . S
C763 C764 1.363 . S
C763 H766 0.929 . S
C764 C763 1.363 . S
C764 C770 1.428 . S
H765 C761 0.930 . S
H766 C763 0.929 . S
S767 N768 1.613 . S
S767 N769 1.610 . S
N768 S767 1.613 . S
N768 C771 1.350 . S
N769 S767 1.610 . S
N769 C770 1.351 . S
C770 C764 1.428 . S
C770 N769 1.351 . S
C770 C771 1.434 . S
C771 C762 1.429 . S
C771 N768 1.350 . S
C771 C770 1.434 . S
C772 C773 1.369 . S
C772 C774 1.419 . S
C772 H776 0.930 . S
C773 C772 1.369 . S
C773 C782 1.429 . S
C774 C772 1.419 . S
C774 C775 1.363 . S
C774 H777 0.929 . S
C775 C774 1.363 . S
C775 C781 1.428 . S
H776 C772 0.930 . S
H777 C774 0.929 . S
S778 N779 1.613 . S
S778 N780 1.610 . S
N779 S778 1.613 . S
N779 C782 1.350 . S
N780 S778 1.610 . S
N780 C781 1.351 . S
C781 C775 1.428 . S
C781 N780 1.351 . S
C781 C782 1.434 . S
C782 C773 1.429 . S
C782 N779 1.350 . S
C782 C781 1.434 . S
C783 C784 1.369 . S
C783 C785 1.419 . S
C783 H787 0.930 . S
C784 C783 1.369 . S
C784 C793 1.429 . S
C785 C783 1.419 . S
C785 C786 1.363 . S
C785 H788 0.929 . S
C786 C785 1.363 . S
C786 C792 1.428 . S
H787 C783 0.930 . S
H788 C785 0.929 . S
S789 N790 1.613 . S
S789 N791 1.610 . S
N790 S789 1.613 . S
N790 C793 1.350 . S
N791 S789 1.610 . S
N791 C792 1.351 . S
C792 C786 1.428 . S
C792 N791 1.351 . S
C792 C793 1.434 . S
C793 C784 1.429 . S
C793 N790 1.350 . S
C793 C792 1.434 . S
C794 C795 1.369 . S
C794 C796 1.419 . S
C794 H798 0.930 . S
C795 C794 1.369 . S
C795 C804 1.429 . S
C796 C794 1.419 . S
C796 C797 1.363 . S
C796 H799 0.929 . S
C797 C796 1.363 . S
C797 C803 1.428 . S
H798 C794 0.930 . S
H799 C796 0.929 . S
S800 N801 1.613 . S
S800 N802 1.610 . S
N801 S800 1.613 . S
N801 C804 1.350 . S
N802 S800 1.610 . S
N802 C803 1.351 . S
C803 C797 1.428 . S
C803 N802 1.351 . S
C803 C804 1.434 . S
C804 C795 1.429 . S
C804 N801 1.350 . S
C804 C803 1.434 . S
C805 C806 1.369 . S
C805 C807 1.419 . S
C805 H809 0.930 . S
C806 C805 1.369 . S
C806 C815 1.429 . S
C807 C805 1.419 . S
C807 C808 1.363 . S
C807 H810 0.929 . S
C808 C807 1.363 . S
C808 C814 1.428 . S
H809 C805 0.930 . S
H810 C807 0.929 . S
S811 N812 1.613 . S
S811 N813 1.610 . S
N812 S811 1.613 . S
N812 C815 1.350 . S
N813 S811 1.610 . S
N813 C814 1.351 . S
C814 C808 1.428 . S
C814 N813 1.351 . S
C814 C815 1.434 . S
C815 C806 1.429 . S
C815 N812 1.350 . S
C815 C814 1.434 . S
C816 C817 1.369 . S
C816 C818 1.419 . S
C816 H820 0.930 . S
C817 C816 1.369 . S
C817 C826 1.429 . S
C818 C816 1.419 . S
C818 C819 1.363 . S
C818 H821 0.929 . S
C819 C818 1.363 . S
C819 C825 1.428 . S
H820 C816 0.930 . S
H821 C818 0.929 . S
S822 N823 1.613 . S
S822 N824 1.610 . S
N823 S822 1.613 . S
N823 C826 1.350 . S
N824 S822 1.610 . S
N824 C825 1.351 . S
C825 C819 1.428 . S
C825 N824 1.351 . S
C825 C826 1.434 . S
C826 C817 1.429 . S
C826 N823 1.350 . S
C826 C825 1.434 . S
C827 C828 1.369 . S
C827 C829 1.419 1_545 S
C827 H831 0.930 . S
C828 C827 1.369 . S
C828 C837 1.429 1_545 S
C829 C827 1.419 1_565 S
C829 C830 1.363 . S
C829 H832 0.929 . S
C830 C829 1.363 . S
C830 C836 1.428 . S
H831 C827 0.930 . S
H832 C829 0.929 . S
S833 N834 1.613 . S
S833 N835 1.610 . S
N834 S833 1.613 . S
N834 C837 1.350 . S
N835 S833 1.610 . S
N835 C836 1.351 . S
C836 C830 1.428 . S
C836 N835 1.351 . S
C836 C837 1.434 . S
C837 C828 1.429 1_565 S
C837 N834 1.350 . S
C837 C836 1.434 . S
C838 C839 1.369 . S
C838 C840 1.419 . S
C838 H842 0.930 . S
C839 C838 1.369 . S
C839 C848 1.429 . S
C840 C838 1.419 . S
C840 C841 1.363 . S
C840 H843 0.929 . S
C841 C840 1.363 . S
C841 C847 1.428 . S
H842 C838 0.930 . S
H843 C840 0.929 . S
S844 N845 1.613 . S
S844 N846 1.610 1_554 S
N845 S844 1.613 . S
N845 C848 1.350 1_554 S
N846 S844 1.610 1_556 S
N846 C847 1.351 . S
C847 C841 1.428 . S
C847 N846 1.351 . S
C847 C848 1.434 . S
C848 C839 1.429 . S
C848 N845 1.350 1_556 S
C848 C847 1.434 . S
C849 C850 1.369 . S
C849 C851 1.419 1_565 S
C849 H853 0.930 . S
C850 C849 1.369 . S
C850 C859 1.429 1_565 S
C851 C849 1.419 1_545 S
C851 C852 1.363 . S
C851 H854 0.929 . S
C852 C851 1.363 . S
C852 C858 1.428 . S
H853 C849 0.930 . S
H854 C851 0.929 . S
S855 N856 1.613 . S
S855 N857 1.610 . S
N856 S855 1.613 . S
N856 C859 1.350 . S
N857 S855 1.610 . S
N857 C858 1.351 . S
C858 C852 1.428 . S
C858 N857 1.351 . S
C858 C859 1.434 . S
C859 C850 1.429 1_545 S
C859 N856 1.350 . S
C859 C858 1.434 . S
C860 C861 1.369 . S
C860 C862 1.419 . S
C860 H864 0.930 . S
C861 C860 1.369 . S
C861 C870 1.429 . S
C862 C860 1.419 . S
C862 C863 1.363 . S
C862 H865 0.929 . S
C863 C862 1.363 . S
C863 C869 1.428 . S
H864 C860 0.930 . S
H865 C862 0.929 . S
S866 N867 1.613 . S
S866 N868 1.610 . S
N867 S866 1.613 . S
N867 C870 1.350 . S
N868 S866 1.610 . S
N868 C869 1.351 . S
C869 C863 1.428 . S
C869 N868 1.351 . S
C869 C870 1.434 . S
C870 C861 1.429 . S
C870 N867 1.350 . S
C870 C869 1.434 . S
C871 C872 1.369 . S
C871 C873 1.419 1_545 S
C871 H875 0.930 . S
C872 C871 1.369 . S
C872 C881 1.429 . S
C873 C871 1.419 1_565 S
C873 C874 1.363 . S
C873 H876 0.929 . S
C874 C873 1.363 . S
C874 C880 1.428 1_565 S
H875 C871 0.930 . S
H876 C873 0.929 . S
S877 N878 1.613 . S
S877 N879 1.610 . S
N878 S877 1.613 . S
N878 C881 1.350 . S
N879 S877 1.610 . S
N879 C880 1.351 . S
C880 C874 1.428 1_545 S
C880 N879 1.351 . S
C880 C881 1.434 . S
C881 C872 1.429 . S
C881 N878 1.350 . S
C881 C880 1.434 . S
C882 C883 1.369 . S
C882 C884 1.419 . S
C882 H886 0.930 . S
C883 C882 1.369 . S
C883 C892 1.429 . S
C884 C882 1.419 . S
C884 C885 1.363 . S
C884 H887 0.929 . S
C885 C884 1.363 . S
C885 C891 1.428 . S
H886 C882 0.930 . S
H887 C884 0.929 . S
S888 N889 1.613 . S
S888 N890 1.610 . S
N889 S888 1.613 . S
N889 C892 1.350 . S
N890 S888 1.610 . S
N890 C891 1.351 . S
C891 C885 1.428 . S
C891 N890 1.351 . S
C891 C892 1.434 . S
C892 C883 1.429 . S
C892 N889 1.350 . S
C892 C891 1.434 . S
C893 C894 1.367 1_565 S
C893 C895 1.426 . S
C893 H897 0.925 1_565 S
C894 C893 1.367 1_545 S
C894 C903 1.429 1_545 S
C895 C893 1.426 . S
C895 C896 1.363 . S
C895 H898 0.929 . S
C896 C895 1.363 . S
C896 C902 1.428 . S
H897 C893 0.925 1_545 S
H898 C895 0.929 . S
S899 N900 1.613 . S
S899 N901 1.610 . S
N900 S899 1.613 . S
N900 C903 1.350 . S
N901 S899 1.610 . S
N901 C902 1.351 . S
C902 C896 1.428 . S
C902 N901 1.351 . S
C902 C903 1.434 . S
C903 C894 1.429 1_565 S
C903 N900 1.350 . S
C903 C902 1.434 . S
C904 C905 1.369 . S
C904 C906 1.419 . S
C904 H908 0.930 . S
C905 C904 1.369 . S
C905 C914 1.429 . S
C906 C904 1.419 . S
C906 C907 1.363 . S
C906 H909 0.929 . S
C907 C906 1.363 . S
C907 C913 1.428 . S
H908 C904 0.930 . S
H909 C906 0.929 . S
S910 N911 1.613 . S
S910 N912 1.610 . S
N911 S910 1.613 . S
N911 C914 1.350 . S
N912 S910 1.610 . S
N912 C913 1.351 . S
C913 C907 1.428 . S
C913 N912 1.351 . S
C913 C914 1.434 . S
C914 C905 1.429 . S
C914 N911 1.350 . S
C914 C913 1.434 . S
C915 C916 1.369 . S
C915 C917 1.419 . S
C915 H919 0.930 . S
C916 C915 1.369 . S
C916 C925 1.429 . S
C917 C915 1.419 . S
C917 C918 1.363 . S
C917 H920 0.929 . S
C918 C917 1.363 . S
C918 C924 1.428 . S
H919 C915 0.930 . S
H920 C917 0.929 . S
S921 N922 1.613 . S
S921 N923 1.610 . S
N922 S921 1.613 . S
N922 C925 1.350 . S
N923 S921 1.610 . S
N923 C924 1.351 . S
C924 C918 1.428 . S
C924 N923 1.351 . S
C924 C925 1.434 . S
C925 C916 1.429 . S
C925 N922 1.350 . S
C925 C924 1.434 . S
C926 C927 1.369 . S
C926 C928 1.419 . S
C926 H930 0.930 . S
C927 C926 1.369 . S
C927 C936 1.429 . S
C928 C926 1.419 . S
C928 C929 1.363 . S
C928 H931 0.929 . S
C929 C928 1.363 . S
C929 C935 1.428 . S
H930 C926 0.930 . S
H931 C928 0.929 . S
S932 N933 1.613 . S
S932 N934 1.610 . S
N933 S932 1.613 . S
N933 C936 1.350 . S
N934 S932 1.610 . S
N934 C935 1.351 . S
C935 C929 1.428 . S
C935 N934 1.351 . S
C935 C936 1.434 . S
C936 C927 1.429 . S
C936 N933 1.350 . S
C936 C935 1.434 . S
C937 C938 1.369 . S
C937 C939 1.419 . S
C937 H941 0.930 . S
C938 C937 1.369 . S
C938 C947 1.429 . S
C939 C937 1.419 . S
C939 C940 1.363 . S
C939 H942 0.929 . S
C940 C939 1.363 . S
C940 C946 1.428 . S
H941 C937 0.930 . S
H942 C939 0.929 . S
S943 N944 1.613 . S
S943 N945 1.610 . S
N944 S943 1.613 . S
N944 C947 1.350 . S
N945 S943 1.610 . S
N945 C946 1.351 . S
C946 C940 1.428 . S
C946 N945 1.351 . S
C946 C947 1.434 . S
C947 C938 1.429 . S
C947 N944 1.350 . S
C947 C946 1.434 . S
C948 C949 1.369 . S
C948 C950 1.419 . S
C948 H952 0.930 . S
C949 C948 1.369 . S
C949 C958 1.429 . S
C950 C948 1.419 . S
C950 C951 1.363 . S
C950 H953 0.929 . S
C951 C950 1.363 . S
C951 C957 1.428 . S
H952 C948 0.930 . S
H953 C950 0.929 . S
S954 N955 1.613 . S
S954 N956 1.610 . S
N955 S954 1.613 . S
N955 C958 1.350 . S
N956 S954 1.610 . S
N956 C957 1.351 . S
C957 C951 1.428 . S
C957 N956 1.351 . S
C957 C958 1.434 . S
C958 C949 1.429 . S
C958 N955 1.350 . S
C958 C957 1.434 . S
C959 C960 1.369 . S
C959 C961 1.419 . S
C959 H963 0.930 . S
C960 C959 1.369 . S
C960 C969 1.429 . S
C961 C959 1.419 . S
C961 C962 1.363 . S
C961 H964 0.929 . S
C962 C961 1.363 . S
C962 C968 1.428 . S
H963 C959 0.930 . S
H964 C961 0.929 . S
S965 N966 1.613 . S
S965 N967 1.610 . S
N966 S965 1.613 . S
N966 C969 1.350 . S
N967 S965 1.610 . S
N967 C968 1.351 . S
C968 C962 1.428 . S
C968 N967 1.351 . S
C968 C969 1.434 . S
C969 C960 1.429 . S
C969 N966 1.350 . S
C969 C968 1.434 . S
C970 C971 1.369 . S
C970 C972 1.419 . S
C970 H974 0.930 . S
C971 C970 1.369 . S
C971 C980 1.429 . S
C972 C970 1.419 . S
C972 C973 1.363 . S
C972 H975 0.929 . S
C973 C972 1.363 . S
C973 C979 1.428 . S
H974 C970 0.930 . S
H975 C972 0.929 . S
S976 N977 1.613 . S
S976 N978 1.610 . S
N977 S976 1.613 . S
N977 C980 1.350 1_655 S
N978 S976 1.610 . S
N978 C979 1.351 1_655 S
C979 C973 1.428 . S
C979 N978 1.351 1_455 S
C979 C980 1.434 . S
C980 C971 1.429 . S
C980 N977 1.350 1_455 S
C980 C979 1.434 . S
C981 C982 1.369 . S
C981 C983 1.419 . S
C981 H985 0.930 . S
C982 C981 1.369 . S
C982 C991 1.429 . S
C983 C981 1.419 . S
C983 C984 1.363 . S
C983 H986 0.929 . S
C984 C983 1.363 . S
C984 C990 1.428 . S
H985 C981 0.930 . S
H986 C983 0.929 . S
S987 N988 1.613 . S
S987 N989 1.610 . S
N988 S987 1.613 . S
N988 C991 1.350 . S
N989 S987 1.610 . S
N989 C990 1.351 . S
C990 C984 1.428 . S
C990 N989 1.351 . S
C990 C991 1.434 . S
C991 C982 1.429 . S
C991 N988 1.350 . S
C991 C990 1.434 . S
C992 C993 1.369 . S
C992 C994 1.419 . S
C992 H996 0.930 . S
C993 C992 1.369 . S
C993 C1002 1.429 . S
C994 C992 1.419 . S
C994 C995 1.363 . S
C994 H997 0.929 . S
C995 C994 1.363 . S
C995 C1001 1.428 . S
H996 C992 0.930 . S
H997 C994 0.929 . S
S998 N999 1.613 . S
S998 N1000 1.610 . S
N999 S998 1.613 . S
N999 C1002 1.350 . S
N1000 S998 1.610 . S
N1000 C1001 1.351 . S
C1001 C995 1.428 . S
C1001 N1000 1.351 . S
C1001 C1002 1.434 . S
C1002 C993 1.429 . S
C1002 N999 1.350 . S
C1002 C1001 1.434 . S
C1003 C1004 1.369 . S
C1003 C1005 1.419 . S
C1003 H1007 0.930 . S
C1004 C1003 1.369 . S
C1004 C1013 1.429 . S
C1005 C1003 1.419 . S
C1005 C1006 1.363 . S
C1005 H1008 0.929 . S
C1006 C1005 1.363 . S
C1006 C1012 1.428 . S
H1007 C1003 0.930 . S
H1008 C1005 0.929 . S
S1009 N1010 1.613 . S
S1009 N1011 1.610 . S
N1010 S1009 1.613 . S
N1010 C1013 1.350 . S
N1011 S1009 1.610 . S
N1011 C1012 1.351 . S
C1012 C1006 1.428 . S
C1012 N1011 1.351 . S
C1012 C1013 1.434 . S
C1013 C1004 1.429 . S
C1013 N1010 1.350 . S
C1013 C1012 1.434 . S
C1014 C1015 1.369 . S
C1014 C1016 1.419 . S
C1014 H1018 0.930 . S
C1015 C1014 1.369 . S
C1015 C1024 1.429 . S
C1016 C1014 1.419 . S
C1016 C1017 1.363 . S
C1016 H1019 0.929 . S
C1017 C1016 1.363 . S
C1017 C1023 1.428 . S
H1018 C1014 0.930 . S
H1019 C1016 0.929 . S
S1020 N1021 1.613 . S
S1020 N1022 1.610 . S
N1021 S1020 1.613 . S
N1021 C1024 1.350 . S
N1022 S1020 1.610 . S
N1022 C1023 1.351 . S
C1023 C1017 1.428 . S
C1023 N1022 1.351 . S
C1023 C1024 1.434 . S
C1024 C1015 1.429 . S
C1024 N1021 1.350 . S
C1024 C1023 1.434 . S
C1025 C1026 1.369 . S
C1025 C1027 1.419 . S
C1025 H1029 0.930 . S
C1026 C1025 1.369 . S
C1026 C1035 1.429 . S
C1027 C1025 1.419 . S
C1027 C1028 1.363 . S
C1027 H1030 0.929 . S
C1028 C1027 1.363 . S
C1028 C1034 1.428 . S
H1029 C1025 0.930 . S
H1030 C1027 0.929 . S
S1031 N1032 1.613 . S
S1031 N1033 1.610 . S
N1032 S1031 1.613 . S
N1032 C1035 1.350 . S
N1033 S1031 1.610 . S
N1033 C1034 1.351 . S
C1034 C1028 1.428 . S
C1034 N1033 1.351 . S
C1034 C1035 1.434 . S
C1035 C1026 1.429 . S
C1035 N1032 1.350 . S
C1035 C1034 1.434 . S
C1036 C1037 1.369 . S
C1036 C1038 1.419 . S
C1036 H1040 0.930 . S
C1037 C1036 1.369 . S
C1037 C1046 1.429 . S
C1038 C1036 1.419 . S
C1038 C1039 1.363 . S
C1038 H1041 0.929 . S
C1039 C1038 1.363 . S
C1039 C1045 1.428 . S
H1040 C1036 0.930 . S
H1041 C1038 0.929 . S
S1042 N1043 1.613 . S
S1042 N1044 1.610 . S
N1043 S1042 1.613 . S
N1043 C1046 1.350 . S
N1044 S1042 1.610 . S
N1044 C1045 1.351 . S
C1045 C1039 1.428 . S
C1045 N1044 1.351 . S
C1045 C1046 1.434 . S
C1046 C1037 1.429 . S
C1046 N1043 1.350 . S
C1046 C1045 1.434 . S
C1047 C1048 1.369 . S
C1047 C1049 1.419 . S
C1047 H1051 0.930 . S
C1048 C1047 1.369 . S
C1048 C1057 1.429 . S
C1049 C1047 1.419 . S
C1049 C1050 1.363 . S
C1049 H1052 0.929 . S
C1050 C1049 1.363 . S
C1050 C1056 1.428 . S
H1051 C1047 0.930 . S
H1052 C1049 0.929 . S
S1053 N1054 1.613 . S
S1053 N1055 1.610 . S
N1054 S1053 1.613 . S
N1054 C1057 1.350 . S
N1055 S1053 1.610 . S
N1055 C1056 1.351 . S
C1056 C1050 1.428 . S
C1056 N1055 1.351 . S
C1056 C1057 1.434 . S
C1057 C1048 1.429 . S
C1057 N1054 1.350 . S
C1057 C1056 1.434 . S
C1058 C1059 1.369 . S
C1058 C1060 1.419 . S
C1058 H1062 0.930 . S
C1059 C1058 1.369 . S
C1059 C1068 1.429 . S
C1060 C1058 1.419 . S
C1060 C1061 1.363 . S
C1060 H1063 0.929 . S
C1061 C1060 1.363 . S
C1061 C1067 1.428 . S
H1062 C1058 0.930 . S
H1063 C1060 0.929 . S
S1064 N1065 1.613 . S
S1064 N1066 1.610 . S
N1065 S1064 1.613 . S
N1065 C1068 1.350 . S
N1066 S1064 1.610 . S
N1066 C1067 1.351 . S
C1067 C1061 1.428 . S
C1067 N1066 1.351 . S
C1067 C1068 1.434 . S
C1068 C1059 1.429 . S
C1068 N1065 1.350 . S
C1068 C1067 1.434 . S
C1069 C1070 1.369 . S
C1069 C1071 1.419 . S
C1069 H1073 0.930 . S
C1070 C1069 1.369 . S
C1070 C1079 1.429 . S
C1071 C1069 1.419 . S
C1071 C1072 1.363 . S
C1071 H1074 0.929 . S
C1072 C1071 1.363 . S
C1072 C1078 1.428 . S
H1073 C1069 0.930 . S
H1074 C1071 0.929 . S
S1075 N1076 1.613 . S
S1075 N1077 1.610 . S
N1076 S1075 1.613 . S
N1076 C1079 1.350 . S
N1077 S1075 1.610 . S
N1077 C1078 1.351 . S
C1078 C1072 1.428 . S
C1078 N1077 1.351 . S
C1078 C1079 1.434 . S
C1079 C1070 1.429 . S
C1079 N1076 1.350 . S
C1079 C1078 1.434 . S
C1080 C1081 1.369 . S
C1080 C1082 1.419 . S
C1080 H1084 0.930 . S
C1081 C1080 1.369 . S
C1081 C1090 1.429 . S
C1082 C1080 1.419 . S
C1082 C1083 1.363 . S
C1082 H1085 0.929 . S
C1083 C1082 1.363 . S
C1083 C1089 1.428 . S
H1084 C1080 0.930 . S
H1085 C1082 0.929 . S
S1086 N1087 1.613 . S
S1086 N1088 1.610 . S
N1087 S1086 1.613 . S
N1087 C1090 1.350 . S
N1088 S1086 1.610 . S
N1088 C1089 1.351 . S
C1089 C1083 1.428 . S
C1089 N1088 1.351 . S
C1089 C1090 1.434 . S
C1090 C1081 1.429 . S
C1090 N1087 1.350 . S
C1090 C1089 1.434 . S
C1091 C1092 1.369 . S
C1091 C1093 1.419 . S
C1091 H1095 0.930 . S
C1092 C1091 1.369 . S
C1092 C1101 1.429 . S
C1093 C1091 1.419 . S
C1093 C1094 1.363 . S
C1093 H1096 0.929 . S
C1094 C1093 1.363 . S
C1094 C1100 1.428 . S
H1095 C1091 0.930 . S
H1096 C1093 0.929 . S
S1097 N1098 1.613 . S
S1097 N1099 1.610 . S
N1098 S1097 1.613 . S
N1098 C1101 1.350 . S
N1099 S1097 1.610 . S
N1099 C1100 1.351 . S
C1100 C1094 1.428 . S
C1100 N1099 1.351 . S
C1100 C1101 1.434 . S
C1101 C1092 1.429 . S
C1101 N1098 1.350 . S
C1101 C1100 1.434 . S
C1102 C1103 1.369 . S
C1102 C1104 1.419 . S
C1102 H1106 0.930 . S
C1103 C1102 1.369 . S
C1103 C1112 1.429 . S
C1104 C1102 1.419 . S
C1104 C1105 1.363 . S
C1104 H1107 0.929 . S
C1105 C1104 1.363 . S
C1105 C1111 1.428 . S
H1106 C1102 0.930 . S
H1107 C1104 0.929 . S
S1108 N1109 1.613 . S
S1108 N1110 1.610 . S
N1109 S1108 1.613 . S
N1109 C1112 1.350 . S
N1110 S1108 1.610 . S
N1110 C1111 1.351 . S
C1111 C1105 1.428 . S
C1111 N1110 1.351 . S
C1111 C1112 1.434 . S
C1112 C1103 1.429 . S
C1112 N1109 1.350 . S
C1112 C1111 1.434 . S
C1113 C1114 1.369 1_556 S
C1113 C1115 1.419 . S
C1113 H1117 0.930 . S
C1114 C1113 1.369 1_554 S
C1114 C1123 1.429 1_455 S
C1115 C1113 1.419 . S
C1115 C1116 1.363 1_455 S
C1115 H1118 0.929 . S
C1116 C1115 1.363 1_655 S
C1116 C1122 1.428 1_556 S
H1117 C1113 0.930 . S
H1118 C1115 0.929 . S
S1119 N1120 1.613 . S
S1119 N1121 1.610 . S
N1120 S1119 1.613 . S
N1120 C1123 1.350 . S
N1121 S1119 1.610 . S
N1121 C1122 1.351 . S
C1122 C1116 1.428 1_554 S
C1122 N1121 1.351 . S
C1122 C1123 1.434 . S
C1123 C1114 1.429 1_655 S
C1123 N1120 1.350 . S
C1123 C1122 1.434 . S
C1124 C1125 1.369 . S
C1124 C1126 1.419 . S
C1124 H1128 0.930 . S
C1125 C1124 1.369 . S
C1125 C1134 1.429 . S
C1126 C1124 1.419 . S
C1126 C1127 1.363 . S
C1126 H1129 0.929 . S
C1127 C1126 1.363 . S
C1127 C1133 1.428 . S
H1128 C1124 0.930 . S
H1129 C1126 0.929 . S
S1130 N1131 1.613 . S
S1130 N1132 1.610 . S
N1131 S1130 1.613 . S
N1131 C1134 1.350 . S
N1132 S1130 1.610 . S
N1132 C1133 1.351 . S
C1133 C1127 1.428 . S
C1133 N1132 1.351 . S
C1133 C1134 1.434 . S
C1134 C1125 1.429 . S
C1134 N1131 1.350 . S
C1134 C1133 1.434 . S
C1135 C1136 1.369 . S
C1135 C1137 1.419 . S
C1135 H1139 0.930 . S
C1136 C1135 1.369 . S
C1136 C1145 1.429 . S
C1137 C1135 1.419 . S
C1137 C1138 1.363 . S
C1137 H1140 0.929 . S
C1138 C1137 1.363 . S
C1138 C1144 1.428 . S
H1139 C1135 0.930 . S
H1140 C1137 0.929 . S
S1141 N1142 1.613 . S
S1141 N1143 1.610 . S
N1142 S1141 1.613 . S
N1142 C1145 1.350 . S
N1143 S1141 1.610 . S
N1143 C1144 1.351 . S
C1144 C1138 1.428 . S
C1144 N1143 1.351 . S
C1144 C1145 1.434 . S
C1145 C1136 1.429 . S
C1145 N1142 1.350 . S
C1145 C1144 1.434 . S
C1146 C1147 1.369 1_655 S
C1146 C1148 1.419 1_556 S
C1146 H1150 0.930 . S
C1147 C1146 1.369 1_455 S
C1147 C1156 1.429 1_565 S
C1148 C1146 1.419 1_554 S
C1148 C1149 1.363 1_565 S
C1148 H1151 0.929 . S
C1149 C1148 1.363 1_545 S
C1149 C1155 1.428 1_655 S
H1150 C1146 0.930 . S
H1151 C1148 0.929 . S
S1152 N1153 1.613 1_554 S
S1152 N1154 1.610 . S
N1153 S1152 1.613 1_556 S
N1153 C1156 1.350 . S
N1154 S1152 1.610 . S
N1154 C1155 1.351 . S
C1155 C1149 1.428 1_455 S
C1155 N1154 1.351 . S
C1155 C1156 1.434 1_554 S
C1156 C1147 1.429 1_545 S
C1156 N1153 1.350 . S
C1156 C1155 1.434 1_556 S
C1157 C1158 1.369 . S
C1157 C1159 1.419 . S
C1157 H1161 0.930 . S
C1158 C1157 1.369 . S
C1158 C1167 1.429 1_565 S
C1159 C1157 1.419 . S
C1159 C1160 1.363 1_565 S
C1159 H1162 0.929 . S
C1160 C1159 1.363 1_545 S
C1160 C1166 1.428 . S
H1161 C1157 0.930 . S
H1162 C1159 0.929 . S
S1163 N1164 1.613 . S
S1163 N1165 1.610 . S
N1164 S1163 1.613 . S
N1164 C1167 1.350 . S
N1165 S1163 1.610 . S
N1165 C1166 1.351 . S
C1166 C1160 1.428 . S
C1166 N1165 1.351 . S
C1166 C1167 1.434 . S
C1167 C1158 1.429 1_545 S
C1167 N1164 1.350 . S
C1167 C1166 1.434 . S
C641 C31 3.341 . S
C643 C431 3.340 . S
C652 C71 3.344 . S
C654 C471 3.339 . S
C663 C111 3.340 . S
C665 C351 3.342 . S
C674 C151 3.342 . S
C676 C391 3.341 . S
C685 C172 3.339 . S
C687 C572 3.341 . S
C696 C212 3.338 . S
C698 C612 3.343 . S
C707 C252 3.344 . S
C709 C492 3.339 . S
C718 C292 3.344 . S
C720 C532 3.339 . S
C729 C377 3.780 . S
C731 C12 3.751 1_556 S
C740 C417 3.781 . S
C742 C52 3.752 . S
C751 C457 3.781 . S
C753 C92 3.752 . S
C762 C337 3.781 . S
C764 C132 3.752 . S
C773 C191 3.753 1_554 S
C775 C522 3.781 . S
C784 C562 3.782 . S
C786 C231 3.754 . S
C795 C602 3.781 . S
C797 C271 3.752 . S
C806 C482 3.781 . S
C808 C311 3.752 . S
C817 C57 3.783 . S
C819 C332 3.754 . S
C828 C372 3.755 . S
C830 C97 3.783 . S
C839 C412 3.755 1_556 S
C841 C137 3.783 . S
C850 C452 3.755 . S
C852 C17 3.783 . S
C861 C511 3.752 . S
C863 C202 3.781 . S
C872 C242 3.783 . S
C874 C551 3.754 . S
C883 C282 3.783 . S
C885 C591 3.753 1_554 S
C894 C631 3.755 . S
C896 C162 3.783 . S
C905 C8 0.697 . S
C907 C617 0.610 . S
C916 C48 0.677 . S
C918 C177 0.627 . S
C927 C537 0.614 . S
C929 C88 0.695 . S
C938 C257 0.624 . S
C940 C128 0.686 . S
C949 C189 0.696 . S
C951 C442 0.610 . S
C960 C229 0.673 . S
C962 C2 0.621 . S
C971 C362 0.620 . S
C973 C269 0.677 . S
C982 C82 0.627 . S
C984 C309 0.685 . S
C993 C328 0.702 . S
C995 C297 0.611 . S
C1004 C368 0.701 . S
C1006 C497 0.612 . S
C1015 C217 0.607 . S
C1017 C408 0.698 . S
C1026 C577 0.627 . S
C1028 C448 0.674 . S
C1037 C509 0.677 . S
C1039 C122 0.628 . S
C1048 C549 0.669 . S
C1050 C322 0.628 . S
C1059 C589 0.702 . S
C1061 C42 0.611 . S
C1070 C402 0.631 . S
C1072 C629 0.673 . S
C1081 C29 2.124 . S
C1083 C488 2.131 . S
C1092 C69 2.124 . S
C1094 C208 2.131 . S
C1103 C109 2.130 . S
C1105 C568 2.126 . S
C1114 C288 2.128 . S
C1116 C149 2.128 . S
C1125 C168 2.133 . S
C1127 C349 2.125 . S
C1136 C429 2.127 . S
C1138 C248 2.129 . S
C1147 C389 2.126 . S
C1149 C528 2.130 . S
C1158 C608 2.122 . S
C1160 C469 2.133 . S
