# Generated by pormake.
# Topology wji, (4)-cn, num edge types: 1
# Building blocks:
#     Node 0, Type 0, BuildingBlock: UXUYUI_clean_sbu_0, # of connection points: 4
#     Node 1, Type 0, BuildingBlock: UXUYUI_clean_sbu_0, # of connection points: 4
#     Node 2, Type 0, BuildingBlock: UXUYUI_clean_sbu_0, # of connection points: 4
#     Node 3, Type 0, BuildingBlock: UXUYUI_clean_sbu_0, # of connection points: 4
#     Node 4, Type 0, BuildingBlock: UXUYUI_clean_sbu_0, # of connection points: 4
#     Node 5, Type 0, BuildingBlock: UXUYUI_clean_sbu_0, # of connection points: 4
#     Node 6, Type 0, BuildingBlock: UXUYUI_clean_sbu_0, # of connection points: 4
#     Node 7, Type 0, BuildingBlock: UXUYUI_clean_sbu_0, # of connection points: 4
#     Node 8, Type 0, BuildingBlock: UXUYUI_clean_sbu_0, # of connection points: 4
#     Node 9, Type 0, BuildingBlock: UXUYUI_clean_sbu_0, # of connection points: 4
#     Node 10, Type 0, BuildingBlock: UXUYUI_clean_sbu_0, # of connection points: 4
#     Node 11, Type 0, BuildingBlock: UXUYUI_clean_sbu_0, # of connection points: 4
#     Edge 12, Type (0, 0), BuildingBlock: AJUNOK_clean_linker_0, # of connection points: 2
#     Edge 13, Type (0, 0), BuildingBlock: AJUNOK_clean_linker_0, # of connection points: 2
#     Edge 14, Type (0, 0), BuildingBlock: AJUNOK_clean_linker_0, # of connection points: 2
#     Edge 15, Type (0, 0), BuildingBlock: AJUNOK_clean_linker_0, # of connection points: 2
#     Edge 16, Type (0, 0), BuildingBlock: AJUNOK_clean_linker_0, # of connection points: 2
#     Edge 17, Type (0, 0), BuildingBlock: AJUNOK_clean_linker_0, # of connection points: 2
#     Edge 18, Type (0, 0), BuildingBlock: AJUNOK_clean_linker_0, # of connection points: 2
#     Edge 19, Type (0, 0), BuildingBlock: AJUNOK_clean_linker_0, # of connection points: 2
#     Edge 20, Type (0, 0), BuildingBlock: AJUNOK_clean_linker_0, # of connection points: 2
#     Edge 21, Type (0, 0), BuildingBlock: AJUNOK_clean_linker_0, # of connection points: 2
#     Edge 22, Type (0, 0), BuildingBlock: AJUNOK_clean_linker_0, # of connection points: 2
#     Edge 23, Type (0, 0), BuildingBlock: AJUNOK_clean_linker_0, # of connection points: 2
#     Edge 24, Type (0, 0), BuildingBlock: AJUNOK_clean_linker_0, # of connection points: 2
#     Edge 25, Type (0, 0), BuildingBlock: AJUNOK_clean_linker_0, # of connection points: 2
#     Edge 26, Type (0, 0), BuildingBlock: AJUNOK_clean_linker_0, # of connection points: 2
#     Edge 27, Type (0, 0), BuildingBlock: AJUNOK_clean_linker_0, # of connection points: 2
#     Edge 28, Type (0, 0), BuildingBlock: AJUNOK_clean_linker_0, # of connection points: 2
#     Edge 29, Type (0, 0), BuildingBlock: AJUNOK_clean_linker_0, # of connection points: 2
#     Edge 30, Type (0, 0), BuildingBlock: AJUNOK_clean_linker_0, # of connection points: 2
#     Edge 31, Type (0, 0), BuildingBlock: AJUNOK_clean_linker_0, # of connection points: 2
#     Edge 32, Type (0, 0), BuildingBlock: AJUNOK_clean_linker_0, # of connection points: 2
#     Edge 33, Type (0, 0), BuildingBlock: AJUNOK_clean_linker_0, # of connection points: 2
#     Edge 34, Type (0, 0), BuildingBlock: AJUNOK_clean_linker_0, # of connection points: 2
#     Edge 35, Type (0, 0), BuildingBlock: AJUNOK_clean_linker_0, # of connection points: 2
# Relax obj value: 0.267
# Max RMSD: 0.141
# Mean RMSD: 0.141
data_MOF--net-wji--node1-UXUYUI_clean_sbu_0--edge1-AJUNOK_clean_linker_0
_symmetry_space_group_name_H-M    P1
_symmetry_Int_Tables_number       1
_symmetry_cell_setting            triclinic
loop_
_symmetry_equiv_pos_as_xyz
'x, y, z'
_cell_length_a     68.723162
_cell_length_b     68.712156
_cell_length_c     27.412572
_cell_angle_alpha  90.026658
_cell_angle_beta   90.004961
_cell_angle_gamma 120.00078
loop_
_atom_site_label
_atom_site_type_symbol
_atom_site_fract_x
_atom_site_fract_y
_atom_site_fract_z
_atom_type_partial_charge
Li0 Li 0.4116 0.32966 0.45232 0.0
Li1 Li 0.41683 0.29916 0.42598 0.0
Li2 Li 0.44569 0.33943 0.40657 0.0
Li3 Li 0.40764 0.32058 0.36652 0.0
C4 C 0.43393 0.31661 0.51786 0.0
N5 N 0.42924 0.29959 0.61116 0.0
C6 C 0.41261 0.3015 0.53616 0.0
C7 C 0.45285 0.32317 0.54717 0.0
C8 C 0.4106 0.29304 0.58334 0.0
C9 C 0.45013 0.31437 0.59423 0.0
C10 C 0.36972 0.28151 0.41577 0.0
C11 C 0.34641 0.24818 0.36855 0.0
N12 N 0.33093 0.24044 0.40504 0.0
C13 C 0.35356 0.27326 0.45277 0.0
C14 C 0.36613 0.2689 0.3733 0.0
C15 C 0.33407 0.25244 0.44667 0.0
C16 C 0.37862 0.33399 0.50424 0.0
N17 N 0.40068 0.33995 0.50329 0.0
C18 C 0.40749 0.35985 0.57831 0.0
C19 C 0.4152 0.3529 0.53878 0.0
C20 C 0.38467 0.35342 0.58103 0.0
C21 C 0.37019 0.34067 0.54307 0.0
H22 H 0.3676 0.32391 0.47502 0.0
H23 H 0.43274 0.35766 0.53648 0.0
C24 C 0.43521 0.27412 0.46486 0.0
N25 N 0.41515 0.27193 0.45125 0.0
C26 C 0.43596 0.25831 0.49588 0.0
C27 C 0.39543 0.23742 0.49584 0.0
C28 C 0.39545 0.25362 0.46494 0.0
C29 C 0.41586 0.2401 0.51323 0.0
H30 H 0.45066 0.28902 0.45448 0.0
H31 H 0.37965 0.25206 0.45454 0.0
C32 C 0.42137 0.36762 0.4105 0.0
N33 N 0.41369 0.4013 0.4425 0.0
C34 C 0.40114 0.36683 0.39937 0.0
C35 C 0.43774 0.38556 0.43769 0.0
C36 C 0.39757 0.38402 0.41594 0.0
C37 C 0.43352 0.40242 0.45358 0.0
C38 C 0.43127 0.30389 0.3172 0.0
C39 C 0.44282 0.31836 0.27858 0.0
C40 C 0.4189 0.28073 0.30909 0.0
C41 C 0.44124 0.30943 0.23199 0.0
C42 C 0.41775 0.27245 0.26198 0.0
N43 N 0.42882 0.28686 0.22471 0.0
C44 C 0.4922 0.36062 0.42878 0.0
C45 C 0.48181 0.37964 0.37145 0.0
C46 C 0.51425 0.37869 0.42991 0.0
N47 N 0.47649 0.36162 0.40042 0.0
C48 C 0.50362 0.39806 0.37148 0.0
C49 C 0.5201 0.39787 0.40151 0.0
H50 H 0.48741 0.34613 0.45176 0.0
H51 H 0.46885 0.38011 0.34993 0.0
C52 C 0.36985 0.313 0.30661 0.0
N53 N 0.39266 0.32311 0.3091 0.0
C54 C 0.35951 0.3187 0.26965 0.0
C55 C 0.39622 0.3454 0.23877 0.0
C56 C 0.40585 0.33905 0.276 0.0
C57 C 0.37275 0.33536 0.23556 0.0
H58 H 0.35959 0.30149 0.33482 0.0
H59 H 0.42391 0.34775 0.28007 0.0
O60 O 0.43639 0.32471 0.47125 0.0
O61 O 0.38898 0.30175 0.42154 0.0
O62 O 0.4249 0.35063 0.39586 0.0
O63 O 0.43255 0.31231 0.363 0.0
H64 H 0.39777 0.29621 0.51408 0.0
H65 H 0.46947 0.33487 0.53366 0.0
H66 H 0.39421 0.28123 0.59781 0.0
H67 H 0.46464 0.31926 0.61726 0.0
H68 H 0.34339 0.23828 0.3358 0.0
H69 H 0.35613 0.28274 0.48603 0.0
H70 H 0.37828 0.2752 0.34407 0.0
H71 H 0.32146 0.24581 0.47508 0.0
H72 H 0.4192 0.37011 0.6065 0.0
H73 H 0.35251 0.33555 0.544 0.0
H74 H 0.45207 0.26102 0.50839 0.0
H75 H 0.37955 0.22334 0.50744 0.0
H76 H 0.38825 0.35296 0.37864 0.0
H77 H 0.4534 0.38629 0.44694 0.0
H78 H 0.38196 0.38359 0.40782 0.0
H79 H 0.44598 0.41635 0.47489 0.0
H80 H 0.45284 0.33631 0.28456 0.0
H81 H 0.41031 0.26927 0.3389 0.0
H82 H 0.44993 0.32045 0.20164 0.0
H83 H 0.4081 0.25456 0.25508 0.0
H84 H 0.52646 0.37791 0.45357 0.0
H85 H 0.50725 0.41271 0.34996 0.0
H86 H 0.34138 0.31101 0.26934 0.0
H87 H 0.40704 0.35849 0.2135 0.0
Li88 Li 0.11675 0.41622 0.59492 0.0
Li89 Li 0.08047 0.41082 0.62157 0.0
Li90 Li 0.08733 0.40695 0.5343 0.0
Li91 Li 0.10535 0.44446 0.57333 0.0
C92 C 0.09145 0.37237 0.60399 0.0
N93 N 0.10326 0.34118 0.63303 0.0
C94 C 0.08699 0.36396 0.65157 0.0
C95 C 0.10169 0.36477 0.57102 0.0
C96 C 0.09315 0.34823 0.66559 0.0
C97 C 0.10759 0.34903 0.58645 0.0
C98 C 0.12096 0.45369 0.66729 0.0
C99 C 0.12022 0.48188 0.71843 0.0
N100 N 0.14283 0.49173 0.72469 0.0
C101 C 0.14418 0.46403 0.67437 0.0
C102 C 0.10885 0.46261 0.68966 0.0
C103 C 0.15493 0.48326 0.7035 0.0
C104 C 0.15901 0.41508 0.60212 0.0
N105 N 0.14032 0.41283 0.6245 0.0
C106 C 0.15346 0.40814 0.7021 0.0
C107 C 0.13729 0.40924 0.6734 0.0
C108 C 0.17319 0.41087 0.68059 0.0
C109 C 0.17575 0.41408 0.62968 0.0
H110 H 0.16111 0.41801 0.56321 0.0
H111 H 0.12241 0.40777 0.69041 0.0
C112 C 0.03794 0.38594 0.6684 0.0
N113 N 0.06038 0.39975 0.67475 0.0
C114 C 0.02368 0.37819 0.70871 0.0
C115 C 0.05608 0.39779 0.76129 0.0
C116 C 0.06965 0.40542 0.71998 0.0
C117 C 0.03274 0.38431 0.75587 0.0
H118 H 0.03111 0.38088 0.63216 0.0
H119 H 0.08765 0.41564 0.72401 0.0
C120 C 0.12356 0.43266 0.48192 0.0
N121 N 0.12919 0.43385 0.38202 0.0
C122 C 0.1237 0.44986 0.45444 0.0
C123 C 0.12651 0.41621 0.45876 0.0
C124 C 0.12652 0.45013 0.40393 0.0
C125 C 0.12926 0.41706 0.40816 0.0
C126 C 0.05232 0.42042 0.57131 0.0
C127 C 0.03368 0.40352 0.54672 0.0
C128 C 0.0494 0.43423 0.60443 0.0
C129 C 0.0124 0.40065 0.55591 0.0
C130 C 0.02785 0.4308 0.61268 0.0
N131 N 0.00995 0.41422 0.58846 0.0
C132 C 0.05922 0.36874 0.47451 0.0
C133 C 0.06771 0.40408 0.44213 0.0
C134 C 0.04306 0.3576 0.43804 0.0
N135 N 0.0709 0.39159 0.47633 0.0
C136 C 0.05189 0.39365 0.40493 0.0
C137 C 0.03882 0.37011 0.40335 0.0
H138 H 0.06157 0.35915 0.50284 0.0
H139 H 0.07643 0.42218 0.4455 0.0
C140 C 0.13431 0.49252 0.57956 0.0
N141 N 0.1138 0.47542 0.56585 0.0
C142 C 0.13864 0.51472 0.57937 0.0
C143 C 0.10116 0.50135 0.5483 0.0
C144 C 0.09757 0.47951 0.54918 0.0
C145 C 0.12182 0.51928 0.56404 0.0
H146 H 0.14714 0.48892 0.59167 0.0
H147 H 0.08156 0.46573 0.53761 0.0
O148 O 0.08607 0.38817 0.58991 0.0
O149 O 0.11014 0.43493 0.63866 0.0
O150 O 0.12053 0.43194 0.53129 0.0
O151 O 0.0733 0.42348 0.56293 0.0
H152 H 0.07906 0.36968 0.67751 0.0
H153 H 0.10514 0.37106 0.53401 0.0
H154 H 0.08994 0.34168 0.70239 0.0
H155 H 0.11564 0.34308 0.56141 0.0
H156 H 0.11107 0.48901 0.73582 0.0
H157 H 0.15384 0.45744 0.65712 0.0
H158 H 0.09087 0.45471 0.68488 0.0
H159 H 0.1729 0.49149 0.70912 0.0
H160 H 0.15081 0.40583 0.74111 0.0
H161 H 0.19053 0.41589 0.61143 0.0
H162 H 0.00576 0.36763 0.70304 0.0
H163 H 0.06381 0.40219 0.79703 0.0
H164 H 0.12147 0.46274 0.47188 0.0
H165 H 0.1266 0.4029 0.47962 0.0
H166 H 0.12655 0.46326 0.38213 0.0
H167 H 0.13145 0.40437 0.38967 0.0
H168 H 0.03552 0.39256 0.52119 0.0
H169 H 0.06363 0.44746 0.62358 0.0
H170 H 0.99783 0.38758 0.53728 0.0
H171 H 0.02536 0.44133 0.63832 0.0
H172 H 0.03353 0.33941 0.43781 0.0
H173 H 0.04901 0.40393 0.37927 0.0
H174 H 0.15484 0.52812 0.59151 0.0
H175 H 0.0876 0.50406 0.53694 0.0
Li176 Li 0.70488 0.1178 0.76141 0.0
Li177 Li 0.67452 0.07984 0.78987 0.0
Li178 Li 0.6826 0.08649 0.70413 0.0
Li179 Li 0.66286 0.10301 0.74413 0.0
C180 C 0.71529 0.08022 0.73427 0.0
N181 N 0.738 0.06308 0.68323 0.0
C182 C 0.70997 0.05797 0.74147 0.0
C183 C 0.73225 0.09383 0.7015 0.0
C184 C 0.72163 0.04959 0.7152 0.0
C185 C 0.74351 0.08483 0.67593 0.0
C186 C 0.67506 0.10942 0.85595 0.0
C187 C 0.64914 0.09721 0.92355 0.0
N188 N 0.66673 0.1078 0.95493 0.0
C189 C 0.69288 0.12026 0.88887 0.0
C190 C 0.65301 0.09789 0.87339 0.0
C191 C 0.68832 0.11923 0.93876 0.0
C192 C 0.73094 0.16215 0.79635 0.0
N193 N 0.73148 0.14299 0.78702 0.0
C194 C 0.7641 0.15559 0.83741 0.0
C195 C 0.7479 0.13966 0.80592 0.0
C196 C 0.76314 0.17492 0.85012 0.0
C197 C 0.74675 0.17847 0.82777 0.0
H198 H 0.71733 0.16407 0.78202 0.0
H199 H 0.74752 0.12396 0.79925 0.0
C200 C 0.6482 0.03838 0.83618 0.0
N201 N 0.66697 0.05886 0.84058 0.0
C202 C 0.64179 0.02283 0.87398 0.0
C203 C 0.67466 0.04946 0.91924 0.0
C204 C 0.68049 0.06446 0.88042 0.0
C205 C 0.65499 0.02843 0.91631 0.0
H206 H 0.63818 0.03413 0.8034 0.0
H207 H 0.69565 0.08067 0.88223 0.0
C208 C 0.69457 0.12511 0.65215 0.0
N209 N 0.70483 0.13842 0.55609 0.0
C210 C 0.67737 0.11912 0.61807 0.0
C211 C 0.71698 0.13798 0.63755 0.0
C212 C 0.68291 0.12598 0.56962 0.0
C213 C 0.72182 0.14452 0.58876 0.0
C214 C 0.63092 0.05968 0.72409 0.0
C215 C 0.62428 0.05398 0.67549 0.0
C216 C 0.6146 0.05402 0.76022 0.0
C217 C 0.60142 0.0428 0.66389 0.0
C218 C 0.59192 0.04293 0.74711 0.0
N219 N 0.58585 0.03759 0.69962 0.0
C220 C 0.67005 0.04619 0.65864 0.0
C221 C 0.68895 0.0758 0.60196 0.0
C222 C 0.66477 0.03015 0.62209 0.0
N223 N 0.68144 0.06854 0.64805 0.0
C224 C 0.68374 0.06025 0.56398 0.0
C225 C 0.67105 0.03708 0.57378 0.0
H226 H 0.66427 0.04076 0.6955 0.0
H227 H 0.69846 0.09352 0.59413 0.0
C228 C 0.6387 0.12363 0.77891 0.0
N229 N 0.64001 0.11132 0.74146 0.0
C230 C 0.62034 0.12706 0.78263 0.0
C231 C 0.60559 0.10608 0.70791 0.0
C232 C 0.62439 0.10338 0.70522 0.0
C233 C 0.60321 0.11757 0.74762 0.0
H234 H 0.65151 0.13015 0.80684 0.0
H235 H 0.62602 0.09422 0.67508 0.0
O236 O 0.70365 0.08853 0.75854 0.0
O237 O 0.67918 0.11013 0.80692 0.0
O238 O 0.68952 0.11893 0.69986 0.0
O239 O 0.65324 0.07073 0.7362 0.0
H240 H 0.69682 0.04724 0.7667 0.0
H241 H 0.73651 0.11109 0.69559 0.0
H242 H 0.71762 0.03236 0.72014 0.0
H243 H 0.7566 0.09511 0.65022 0.0
H244 H 0.63215 0.08829 0.93752 0.0
H245 H 0.71006 0.12921 0.87621 0.0
H246 H 0.63903 0.08958 0.84846 0.0
H247 H 0.70195 0.12748 0.96463 0.0
H248 H 0.77639 0.15218 0.85396 0.0
H249 H 0.74564 0.1933 0.83598 0.0
H250 H 0.62663 0.00664 0.87029 0.0
H251 H 0.68512 0.05447 0.95157 0.0
H252 H 0.65996 0.10916 0.62882 0.0
H253 H 0.73046 0.14292 0.66369 0.0
H254 H 0.66978 0.12139 0.54276 0.0
H255 H 0.73909 0.15445 0.57687 0.0
H256 H 0.63662 0.05847 0.64685 0.0
H257 H 0.61938 0.05816 0.798 0.0
H258 H 0.59606 0.0384 0.62643 0.0
H259 H 0.57913 0.03856 0.7747 0.0
H260 H 0.65495 0.01247 0.63119 0.0
H261 H 0.68921 0.06625 0.52721 0.0
H262 H 0.61903 0.13613 0.81361 0.0
H263 H 0.59278 0.0988 0.67992 0.0
Li264 Li 0.59045 0.67057 0.95678 0.0
Li265 Li 0.58601 0.70143 0.93012 0.0
Li266 Li 0.55719 0.66147 0.9085 0.0
Li267 Li 0.59597 0.68034 0.87113 0.0
C268 C 0.56691 0.6829 0.0207 0.0
N269 N 0.56935 0.69848 0.11473 0.0
C270 C 0.58775 0.69787 0.04133 0.0
C271 C 0.54732 0.67576 0.04799 0.0
C272 C 0.58862 0.70559 0.08887 0.0
C273 C 0.5489 0.68385 0.09546 0.0
C274 C 0.63324 0.71864 0.92258 0.0
C275 C 0.6586 0.75061 0.87392 0.0
N276 N 0.67282 0.75907 0.91263 0.0
C277 C 0.64818 0.72757 0.96179 0.0
C278 C 0.63854 0.73017 0.87819 0.0
C279 C 0.66808 0.74807 0.95606 0.0
C280 C 0.6227 0.66658 0.01187 0.0
N281 N 0.60051 0.65986 0.0086 0.0
C282 C 0.59252 0.63796 0.08099 0.0
C283 C 0.5854 0.64579 0.04192 0.0
C284 C 0.61538 0.64475 0.08563 0.0
C285 C 0.63059 0.65927 0.05053 0.0
H286 H 0.63426 0.67772 0.98456 0.0
H287 H 0.56781 0.64067 0.03806 0.0
C288 C 0.56778 0.72612 0.97101 0.0
N289 N 0.58774 0.72871 0.95538 0.0
C290 C 0.56722 0.74202 0.00202 0.0
C291 C 0.60764 0.76403 0.99716 0.0
C292 C 0.60744 0.74762 0.9665 0.0
C293 C 0.5874 0.76088 0.01691 0.0
H294 H 0.55232 0.71091 0.96208 0.0
H295 H 0.62316 0.74958 0.95399 0.0
C296 C 0.58062 0.6326 0.91528 0.0
N297 N 0.58653 0.59819 0.9502 0.0
C298 C 0.60075 0.63277 0.90666 0.0
C299 C 0.56347 0.6149 0.94153 0.0
C300 C 0.60342 0.61522 0.92466 0.0
C301 C 0.56678 0.59767 0.9589 0.0
C302 C 0.57374 0.69997 0.8229 0.0
C303 C 0.56138 0.68818 0.7819 0.0
C304 C 0.58794 0.72323 0.82028 0.0
C305 C 0.56393 0.69981 0.7384 0.0
C306 C 0.59002 0.73425 0.77613 0.0
N307 N 0.5781 0.72241 0.73643 0.0
C308 C 0.51015 0.64185 0.92374 0.0
C309 C 0.52142 0.62085 0.87452 0.0
C310 C 0.48788 0.62417 0.92334 0.0
N311 N 0.52637 0.63971 0.90009 0.0
C312 C 0.49948 0.60271 0.87361 0.0
C313 C 0.48236 0.60412 0.89861 0.0
H314 H 0.51465 0.65698 0.94423 0.0
H315 H 0.53474 0.6195 0.85671 0.0
C316 C 0.63391 0.68366 0.82223 0.0
N317 N 0.61227 0.67865 0.81531 0.0
C318 C 0.64492 0.67795 0.78698 0.0
C319 C 0.61154 0.66264 0.7371 0.0
C320 C 0.60108 0.6685 0.77352 0.0
C321 C 0.63353 0.66677 0.74427 0.0
H322 H 0.64223 0.69088 0.85644 0.0
H323 H 0.58361 0.66372 0.76959 0.0
O324 O 0.56556 0.67559 0.97369 0.0
O325 O 0.61374 0.69856 0.92768 0.0
O326 O 0.57795 0.64996 0.89921 0.0
O327 O 0.57135 0.68887 0.86582 0.0
H328 H 0.60307 0.70363 0.02072 0.0
H329 H 0.53106 0.6642 0.03254 0.0
H330 H 0.60463 0.71726 0.10517 0.0
H331 H 0.53388 0.67853 0.11695 0.0
H332 H 0.66289 0.75971 0.83978 0.0
H333 H 0.64438 0.71884 0.99639 0.0
H334 H 0.6274 0.72331 0.84723 0.0
H335 H 0.67973 0.75523 0.98616 0.0
H336 H 0.58029 0.62669 0.10724 0.0
H337 H 0.64841 0.66521 0.05339 0.0
H338 H 0.5512 0.73918 0.01554 0.0
H339 H 0.62357 0.77841 0.00748 0.0
H340 H 0.61427 0.64641 0.88679 0.0
H341 H 0.5479 0.61467 0.94913 0.0
H342 H 0.61895 0.61519 0.91846 0.0
H343 H 0.55371 0.58393 0.97952 0.0
H344 H 0.55004 0.6702 0.78365 0.0
H345 H 0.59721 0.73268 0.85203 0.0
H346 H 0.55461 0.69087 0.70625 0.0
H347 H 0.60106 0.75223 0.77348 0.0
H348 H 0.47521 0.62596 0.94311 0.0
H349 H 0.49622 0.58739 0.85537 0.0
H350 H 0.66193 0.68156 0.79379 0.0
H351 H 0.60209 0.65382 0.70491 0.0
Li352 Li 0.92145 0.59194 0.12019 0.0
Li353 Li 0.88546 0.58621 0.09455 0.0
Li354 Li 0.89773 0.5574 0.07529 0.0
Li355 Li 0.91623 0.59559 0.03469 0.0
C356 C 0.89085 0.56715 0.18856 0.0
N357 N 0.88992 0.56797 0.28928 0.0
C358 C 0.89181 0.5855 0.21286 0.0
C359 C 0.88931 0.54916 0.21548 0.0
C360 C 0.89134 0.58561 0.26379 0.0
C361 C 0.8889 0.54991 0.26639 0.0
C362 C 0.91272 0.63252 0.08895 0.0
C363 C 0.90522 0.6587 0.04594 0.0
N364 N 0.90705 0.66961 0.08861 0.0
C365 C 0.91459 0.64403 0.13235 0.0
C366 C 0.908 0.6399 0.04537 0.0
C367 C 0.91163 0.66272 0.13143 0.0
C368 C 0.95552 0.62604 0.17754 0.0
N369 N 0.9429 0.60344 0.17109 0.0
C370 C 0.95957 0.59672 0.24056 0.0
C371 C 0.94503 0.5888 0.20083 0.0
C372 C 0.97219 0.6199 0.24912 0.0
C373 C 0.97048 0.63473 0.21663 0.0
H374 H 0.95381 0.63727 0.1526 0.0
H375 H 0.93527 0.57095 0.19392 0.0
C376 C 0.84513 0.56877 0.146 0.0
N377 N 0.85948 0.58726 0.1197 0.0
C378 C 0.82853 0.56889 0.17527 0.0
C379 C 0.84033 0.60641 0.14703 0.0
C380 C 0.85682 0.6056 0.11837 0.0
C381 C 0.82643 0.58817 0.17737 0.0
H382 H 0.84732 0.55424 0.14628 0.0
H383 H 0.86783 0.61995 0.0965 0.0
C384 C 0.95046 0.58302 0.07735 0.0
N385 N 0.99272 0.59205 0.10581 0.0
C386 C 0.96905 0.6044 0.07011 0.0
C387 C 0.95335 0.5662 0.09885 0.0
C388 C 0.99029 0.60864 0.08482 0.0
C389 C 0.97486 0.57111 0.11304 0.0
C390 C 0.87629 0.57292 0.98643 0.0
C391 C 0.87691 0.56053 0.94667 0.0
C392 C 0.86836 0.58793 0.98021 0.0
C393 C 0.86996 0.56368 0.90092 0.0
C394 C 0.86154 0.5906 0.93389 0.0
N395 N 0.86251 0.57855 0.89552 0.0
C396 C 0.87308 0.51145 0.10082 0.0
C397 C 0.90084 0.52052 0.03998 0.0
C398 C 0.86896 0.48938 0.10311 0.0
N399 N 0.88909 0.52655 0.07028 0.0
C400 C 0.89719 0.49861 0.04089 0.0
C401 C 0.88133 0.48283 0.07336 0.0
H402 H 0.86406 0.51677 0.12463 0.0
H403 H 0.91371 0.53301 0.0166 0.0
C404 C 0.94793 0.6334 0.97876 0.0
N405 N 0.93374 0.61077 0.97757 0.0
C406 C 0.96442 0.644 0.94283 0.0
C407 C 0.9515 0.60791 0.90477 0.0
C408 C 0.93518 0.59801 0.94131 0.0
C409 C 0.96681 0.63115 0.9059 0.0
H410 H 0.94739 0.64314 0.00912 0.0
H411 H 0.92456 0.57995 0.94235 0.0
O412 O 0.89173 0.56696 0.13868 0.0
O413 O 0.91577 0.61431 0.08918 0.0
O414 O 0.92948 0.5787 0.0642 0.0
O415 O 0.88325 0.57025 0.03134 0.0
H416 H 0.89307 0.59957 0.19258 0.0
H417 H 0.88876 0.53491 0.19731 0.0
H418 H 0.89216 0.59974 0.28305 0.0
H419 H 0.88784 0.53616 0.2877 0.0
H420 H 0.90155 0.66458 0.01249 0.0
H421 H 0.91825 0.63859 0.16644 0.0
H422 H 0.90644 0.63119 0.01145 0.0
H423 H 0.91296 0.67174 0.16476 0.0
H424 H 0.9609 0.58488 0.26445 0.0
H425 H 0.98018 0.65274 0.22212 0.0
H426 H 0.81812 0.55437 0.19774 0.0
H427 H 0.83881 0.62134 0.14618 0.0
H428 H 0.96706 0.61765 0.05389 0.0
H429 H 0.93909 0.54962 0.10506 0.0
H430 H 0.00481 0.62514 0.07968 0.0
H431 H 0.97734 0.55829 0.12995 0.0
H432 H 0.88284 0.5487 0.9511 0.0
H433 H 0.86747 0.59739 0.01084 0.0
H434 H 0.87049 0.55432 0.86971 0.0
H435 H 0.85547 0.60224 0.92846 0.0
H436 H 0.8566 0.47769 0.12859 0.0
H437 H 0.9074 0.49436 0.01809 0.0
H438 H 0.97561 0.66199 0.94483 0.0
H439 H 0.95288 0.5973 0.87737 0.0
Li440 Li 0.33264 0.92157 0.28892 0.0
Li441 Li 0.30127 0.88534 0.26116 0.0
Li442 Li 0.34205 0.89751 0.24153 0.0
Li443 Li 0.32369 0.91582 0.20016 0.0
C444 C 0.3294 0.89174 0.35517 0.0
N445 N 0.33515 0.89421 0.45528 0.0
C446 C 0.31077 0.88354 0.38615 0.0
C447 C 0.35093 0.90099 0.37523 0.0
C448 C 0.31403 0.88497 0.43662 0.0
C449 C 0.3535 0.90217 0.42588 0.0
C450 C 0.28552 0.91657 0.24712 0.0
C451 C 0.25426 0.90922 0.19515 0.0
N452 N 0.24673 0.91811 0.22963 0.0
C453 C 0.27759 0.92581 0.28188 0.0
C454 C 0.27388 0.90835 0.20327 0.0
C455 C 0.25789 0.92636 0.27242 0.0
C456 C 0.36226 0.96136 0.33891 0.0
N457 N 0.3416 0.94264 0.3402 0.0
C458 C 0.33394 0.95308 0.4178 0.0
C459 C 0.32721 0.93858 0.37785 0.0
C460 C 0.35557 0.97201 0.41841 0.0
C461 C 0.36963 0.97638 0.37788 0.0
H462 H 0.37303 0.96463 0.30773 0.0
H463 H 0.31061 0.92391 0.37713 0.0
C464 C 0.27444 0.84143 0.29581 0.0
N465 N 0.27364 0.86037 0.28528 0.0
C466 C 0.25766 0.82439 0.32427 0.0
C467 C 0.23891 0.8461 0.32883 0.0
C468 C 0.25609 0.86276 0.30041 0.0
C469 C 0.23979 0.8268 0.34208 0.0
H470 H 0.2889 0.84021 0.28471 0.0
H471 H 0.25589 0.87805 0.29287 0.0
C472 C 0.3758 0.93993 0.22336 0.0
N473 N 0.42113 0.95883 0.20328 0.0
C474 C 0.38403 0.94836 0.17685 0.0
C475 C 0.39072 0.94138 0.25979 0.0
C476 C 0.40698 0.95779 0.16738 0.0
C477 C 0.41354 0.95092 0.2489 0.0
C478 C 0.30561 0.87311 0.15467 0.0
C479 C 0.31898 0.87219 0.11739 0.0
C480 C 0.2824 0.86305 0.14796 0.0
C481 C 0.30898 0.86178 0.07331 0.0
C482 C 0.27302 0.85279 0.10336 0.0
N483 N 0.2864 0.8524 0.06724 0.0
C484 C 0.36682 0.87713 0.27328 0.0
C485 C 0.37784 0.89481 0.196 0.0
C486 C 0.38536 0.87393 0.27439 0.0
N487 N 0.36388 0.88812 0.23527 0.0
C488 C 0.39679 0.89228 0.19595 0.0
C489 C 0.401 0.88231 0.23619 0.0
H490 H 0.35532 0.87172 0.30376 0.0
H491 H 0.37497 0.90322 0.16592 0.0
C492 C 0.32234 0.95111 0.15172 0.0
N493 N 0.32501 0.93305 0.14333 0.0
C494 C 0.3277 0.96743 0.11568 0.0
C495 C 0.33825 0.94625 0.06244 0.0
C496 C 0.33245 0.93019 0.09938 0.0
C497 C 0.33627 0.96538 0.07069 0.0
H498 H 0.31725 0.95355 0.18745 0.0
H499 H 0.33539 0.91632 0.09399 0.0
O500 O 0.32658 0.89081 0.30556 0.0
O501 O 0.30479 0.91596 0.25585 0.0
O502 O 0.35329 0.93026 0.23309 0.0
O503 O 0.31507 0.88295 0.19827 0.0
H504 H 0.29399 0.87648 0.37156 0.0
H505 H 0.36552 0.90721 0.35202 0.0
H506 H 0.29977 0.87883 0.46095 0.0
H507 H 0.37008 0.90939 0.44182 0.0
H508 H 0.24508 0.90291 0.16136 0.0
H509 H 0.28651 0.9324 0.31588 0.0
H510 H 0.28006 0.90162 0.17557 0.0
H511 H 0.25149 0.93336 0.29908 0.0
H512 H 0.32256 0.9493 0.44825 0.0
H513 H 0.38614 0.99124 0.37634 0.0
H514 H 0.25934 0.81008 0.33442 0.0
H515 H 0.22542 0.84863 0.34163 0.0
H516 H 0.37285 0.94757 0.14827 0.0
H517 H 0.38473 0.93512 0.29603 0.0
H518 H 0.41353 0.96426 0.13146 0.0
H519 H 0.42521 0.952 0.27671 0.0
H520 H 0.33693 0.87959 0.12235 0.0
H521 H 0.27172 0.86304 0.17699 0.0
H522 H 0.31915 0.86113 0.04395 0.0
H523 H 0.2551 0.84504 0.09754 0.0
H524 H 0.3881 0.86611 0.30593 0.0
H525 H 0.40845 0.89874 0.16565 0.0
H526 H 0.3264 0.98214 0.12398 0.0
H527 H 0.34498 0.94415 0.02837 0.0
Li528 Li 0.68144 0.59455 0.46711 0.0
Li529 Li 0.66151 0.55745 0.42767 0.0
Li530 Li 0.70211 0.58639 0.40349 0.0
Li531 Li 0.67091 0.59164 0.38429 0.0
C532 C 0.69207 0.56363 0.51319 0.0
N533 N 0.69637 0.5498 0.60524 0.0
C534 C 0.67297 0.54971 0.54069 0.0
C535 C 0.71336 0.57013 0.53209 0.0
C536 C 0.67549 0.54302 0.58727 0.0
C537 C 0.71518 0.56307 0.57881 0.0
C538 C 0.64012 0.59059 0.45166 0.0
C539 C 0.609 0.59274 0.48646 0.0
N540 N 0.61991 0.61522 0.4776 0.0
C541 C 0.65099 0.61373 0.44278 0.0
C542 C 0.61893 0.58 0.47361 0.0
C543 C 0.64052 0.62587 0.4562 0.0
C544 C 0.69056 0.63237 0.52889 0.0
N545 N 0.6809 0.60956 0.52706 0.0
C546 C 0.66053 0.60613 0.60069 0.0
C547 C 0.66619 0.59647 0.56227 0.0
C548 C 0.66974 0.62953 0.60261 0.0
C549 C 0.68519 0.64271 0.56644 0.0
H550 H 0.70124 0.64258 0.49956 0.0
H551 H 0.65753 0.57843 0.55875 0.0
C552 C 0.64172 0.51128 0.40342 0.0
N553 N 0.63954 0.52638 0.43155 0.0
C554 C 0.62398 0.48912 0.39966 0.0
C555 C 0.60249 0.49836 0.45524 0.0
C556 C 0.62059 0.5203 0.45786 0.0
C557 C 0.60383 0.4826 0.42488 0.0
H558 H 0.65689 0.51667 0.38241 0.0
H559 H 0.61926 0.5327 0.47957 0.0
C560 C 0.72039 0.63126 0.42757 0.0
N561 N 0.76143 0.66565 0.45935 0.0
C562 C 0.72962 0.65261 0.40668 0.0
C563 C 0.73201 0.6274 0.4646 0.0
C564 C 0.7504 0.66978 0.42324 0.0
C565 C 0.75273 0.645 0.4802 0.0
C566 C 0.66836 0.56371 0.31583 0.0
C567 C 0.68346 0.57517 0.27806 0.0
C568 C 0.64558 0.54965 0.30528 0.0
C569 C 0.67546 0.57257 0.23027 0.0
C570 C 0.63825 0.54748 0.257 0.0
N571 N 0.65321 0.55892 0.22083 0.0
C572 C 0.73265 0.57164 0.37542 0.0
C573 C 0.74173 0.60765 0.34626 0.0
C574 C 0.74954 0.57182 0.34639 0.0
N575 N 0.72894 0.58931 0.37447 0.0
C576 C 0.75884 0.60858 0.31695 0.0
C577 C 0.76272 0.59037 0.31616 0.0
H578 H 0.72186 0.55698 0.39708 0.0
H579 H 0.7379 0.62109 0.34441 0.0
C580 C 0.63811 0.59368 0.32587 0.0
N581 N 0.66051 0.60271 0.33374 0.0
C582 C 0.63053 0.60065 0.28607 0.0
C583 C 0.66924 0.62603 0.26348 0.0
C584 C 0.67607 0.61874 0.304 0.0
C585 C 0.64622 0.61677 0.25407 0.0
H586 H 0.62617 0.58069 0.34983 0.0
H587 H 0.69376 0.62539 0.31114 0.0
O588 O 0.68995 0.57012 0.46723 0.0
O589 O 0.65032 0.5784 0.44022 0.0
O590 O 0.70012 0.61431 0.41139 0.0
O591 O 0.67572 0.56666 0.36305 0.0
H592 H 0.65638 0.54428 0.52641 0.0
H593 H 0.72834 0.58039 0.51082 0.0
H594 H 0.66083 0.53241 0.60911 0.0
H595 H 0.73156 0.56806 0.59397 0.0
H596 H 0.59263 0.58475 0.50359 0.0
H597 H 0.66745 0.62233 0.42615 0.0
H598 H 0.61026 0.56215 0.48093 0.0
H599 H 0.6488 0.64379 0.44975 0.0
H600 H 0.64804 0.59529 0.627 0.0
H601 H 0.69246 0.6608 0.56628 0.0
H602 H 0.62581 0.47738 0.37648 0.0
H603 H 0.58723 0.49404 0.47511 0.0
H604 H 0.72081 0.65585 0.37793 0.0
H605 H 0.72504 0.61108 0.4813 0.0
H606 H 0.75776 0.68639 0.40738 0.0
H607 H 0.76189 0.64225 0.50891 0.0
H608 H 0.70112 0.58619 0.28566 0.0
H609 H 0.63365 0.54081 0.33417 0.0
H610 H 0.68692 0.58149 0.20071 0.0
H611 H 0.62066 0.5368 0.24833 0.0
H612 H 0.75194 0.55739 0.34674 0.0
H613 H 0.76819 0.62296 0.29336 0.0
H614 H 0.61265 0.59314 0.27957 0.0
H615 H 0.68174 0.63865 0.23963 0.0
Li616 Li 0.08911 0.68045 0.63206 0.0
Li617 Li 0.10757 0.6624 0.58934 0.0
Li618 Li 0.11908 0.70309 0.57004 0.0
Li619 Li 0.08299 0.6717 0.54407 0.0
C620 C 0.13291 0.6965 0.67602 0.0
N621 N 0.15578 0.71085 0.76344 0.0
C622 C 0.1319 0.68086 0.70994 0.0
C623 C 0.14594 0.71946 0.68608 0.0
C624 C 0.14346 0.68844 0.75408 0.0
C625 C 0.15727 0.72638 0.73062 0.0
C626 C 0.06544 0.62848 0.61041 0.0
C627 C 0.05579 0.59068 0.58828 0.0
N628 N 0.04687 0.58346 0.6334 0.0
C629 C 0.05607 0.62063 0.65648 0.0
C630 C 0.0652 0.61334 0.57593 0.0
C631 C 0.04678 0.59783 0.66742 0.0
C632 C 0.05362 0.68085 0.68108 0.0
N633 N 0.07215 0.67903 0.68964 0.0
C634 C 0.05986 0.66697 0.77161 0.0
C635 C 0.07569 0.67258 0.73416 0.0
C636 C 0.04022 0.66806 0.76328 0.0
C637 C 0.0375 0.67558 0.71751 0.0
H638 H 0.05078 0.68536 0.64508 0.0
H639 H 0.08997 0.67033 0.7398 0.0
C640 C 0.13007 0.64044 0.55488 0.0
N641 N 0.118 0.64127 0.5933 0.0
C642 C 0.1344 0.62271 0.55039 0.0
C643 C 0.11516 0.60782 0.62684 0.0
C644 C 0.1114 0.62597 0.63009 0.0
C645 C 0.12604 0.60559 0.58562 0.0
H646 H 0.13553 0.65304 0.52658 0.0
H647 H 0.10194 0.62703 0.66045 0.0
C648 C 0.08985 0.71936 0.59224 0.0
N649 N 0.09234 0.75886 0.62278 0.0
C650 C 0.08018 0.72929 0.56417 0.0
C651 C 0.10057 0.72938 0.63604 0.0
C652 C 0.08168 0.74931 0.58016 0.0
C653 C 0.1017 0.74938 0.65082 0.0
C654 C 0.11114 0.67506 0.47599 0.0
C655 C 0.11671 0.69346 0.44558 0.0
C656 C 0.10286 0.65372 0.45552 0.0
C657 C 0.11378 0.69015 0.39523 0.0
C658 C 0.10011 0.6511 0.405 0.0
N659 N 0.10558 0.66921 0.37615 0.0
C660 C 0.16211 0.72875 0.53175 0.0
C661 C 0.142 0.74845 0.53099 0.0
C662 C 0.17873 0.74496 0.50161 0.0
N663 N 0.14391 0.73044 0.54484 0.0
C664 C 0.15835 0.76514 0.50104 0.0
C665 C 0.1766 0.76308 0.48456 0.0
H666 H 0.163 0.71405 0.54228 0.0
H667 H 0.12722 0.74928 0.5405 0.0
C668 C 0.04593 0.64084 0.48743 0.0
N669 N 0.06169 0.66283 0.49315 0.0
C670 C 0.03076 0.63418 0.44883 0.0
C671 C 0.04797 0.67301 0.42337 0.0
C672 C 0.06289 0.67891 0.46243 0.0
C673 C 0.03163 0.65038 0.41636 0.0
H674 H 0.04517 0.62845 0.51256 0.0
H675 H 0.07561 0.69628 0.46802 0.0
O676 O 0.12202 0.68944 0.63228 0.0
O677 O 0.07479 0.65082 0.59924 0.0
O678 O 0.08851 0.69977 0.577 0.0
O679 O 0.11345 0.67788 0.52552 0.0
H680 H 0.12211 0.66305 0.70248 0.0
H681 H 0.14736 0.73182 0.65967 0.0
H682 H 0.14266 0.6765 0.78086 0.0
H683 H 0.16731 0.74409 0.73901 0.0
H684 H 0.0557 0.57886 0.56206 0.0
H685 H 0.05589 0.63198 0.68352 0.0
H686 H 0.07254 0.61909 0.54028 0.0
H687 H 0.03951 0.59157 0.70298 0.0
H688 H 0.06242 0.66065 0.80575 0.0
H689 H 0.02267 0.67671 0.70941 0.0
H690 H 0.14349 0.622 0.51881 0.0
H691 H 0.10851 0.59502 0.6549 0.0
H692 H 0.07168 0.72166 0.5303 0.0
H693 H 0.10772 0.72168 0.65862 0.0
H694 H 0.07436 0.75724 0.55871 0.0
H695 H 0.10997 0.75732 0.68466 0.0
H696 H 0.12291 0.71006 0.46063 0.0
H697 H 0.09849 0.63929 0.47835 0.0
H698 H 0.11792 0.70422 0.37134 0.0
H699 H 0.09363 0.63465 0.38873 0.0
H700 H 0.19273 0.74294 0.4904 0.0
H701 H 0.15606 0.77883 0.48863 0.0
H702 H 0.0187 0.6165 0.44404 0.0
H703 H 0.04912 0.68596 0.39904 0.0
Li704 Li 0.44721 0.10712 0.76098 0.0
Li705 Li 0.41062 0.08932 0.80233 0.0
Li706 Li 0.41365 0.08333 0.7133 0.0
Li707 Li 0.41924 0.11988 0.74118 0.0
C708 C 0.43806 0.06454 0.77801 0.0
N709 N 0.46429 0.04521 0.79589 0.0
C710 C 0.43827 0.05613 0.82432 0.0
C711 C 0.45098 0.06282 0.74067 0.0
C712 C 0.45169 0.04648 0.83266 0.0
C713 C 0.46418 0.05309 0.75045 0.0
C714 C 0.43405 0.13167 0.84716 0.0
C715 C 0.41904 0.1506 0.89496 0.0
N716 N 0.43221 0.15169 0.9331 0.0
C717 C 0.44769 0.13327 0.88652 0.0
C718 C 0.41983 0.14067 0.85109 0.0
C719 C 0.44641 0.14333 0.92979 0.0
C720 C 0.49242 0.12645 0.72995 0.0
N721 N 0.47823 0.11594 0.76787 0.0
C722 C 0.50631 0.11125 0.80886 0.0
C723 C 0.48507 0.10928 0.8079 0.0
C724 C 0.52071 0.12064 0.76872 0.0
C725 C 0.51394 0.12907 0.72971 0.0
H726 H 0.4867 0.13192 0.69892 0.0
H727 H 0.47359 0.10132 0.83793 0.0
C728 C 0.37363 0.05465 0.85169 0.0
N729 N 0.39473 0.07224 0.85927 0.0
C730 C 0.3627 0.0384 0.88787 0.0
C731 C 0.39523 0.05867 0.93951 0.0
C732 C 0.40547 0.07469 0.90249 0.0
C733 C 0.37372 0.04001 0.93207 0.0
H734 H 0.36575 0.05249 0.81644 0.0
H735 H 0.42256 0.08814 0.9071 0.0
C736 C 0.44082 0.11329 0.64711 0.0
N737 N 0.44475 0.11172 0.54695 0.0
C738 C 0.43063 0.1218 0.61626 0.0
C739 C 0.45316 0.10415 0.62687 0.0
C740 C 0.43279 0.12083 0.56578 0.0
C741 C 0.45489 0.10344 0.57621 0.0
C742 C 0.37181 0.08893 0.75233 0.0
C743 C 0.35606 0.08104 0.7145 0.0
C744 C 0.36682 0.09589 0.79615 0.0
C745 C 0.33567 0.08058 0.72091 0.0
C746 C 0.34623 0.09515 0.80115 0.0
N747 N 0.33122 0.0876 0.76372 0.0
C748 C 0.40184 0.04261 0.66574 0.0
C749 C 0.392 0.06649 0.62322 0.0
C750 C 0.39395 0.02723 0.62742 0.0
N751 N 0.40125 0.06203 0.66239 0.0
C752 C 0.38407 0.05167 0.58385 0.0
C753 C 0.38543 0.03197 0.58538 0.0
H754 H 0.40845 0.03904 0.69809 0.0
H755 H 0.39101 0.08169 0.62231 0.0
C756 C 0.43709 0.16335 0.70357 0.0
N757 N 0.4172 0.14521 0.71689 0.0
C758 C 0.43749 0.1803 0.67455 0.0
C759 C 0.39694 0.16033 0.67561 0.0
C760 C 0.39731 0.1437 0.70443 0.0
C761 C 0.41721 0.17868 0.65925 0.0
H762 H 0.45267 0.16394 0.71293 0.0
H763 H 0.38166 0.12907 0.71433 0.0
O764 O 0.42537 0.07447 0.76939 0.0
O765 O 0.43523 0.12206 0.80443 0.0
O766 O 0.43872 0.11391 0.69674 0.0
O767 O 0.39183 0.08945 0.74662 0.0
H768 H 0.4283 0.05712 0.8536 0.0
H769 H 0.45085 0.069 0.70455 0.0
H770 H 0.4521 0.04004 0.86841 0.0
H771 H 0.47437 0.05181 0.72193 0.0
H772 H 0.40802 0.15752 0.89863 0.0
H773 H 0.45903 0.12667 0.88374 0.0
H774 H 0.40958 0.14007 0.82052 0.0
H775 H 0.45673 0.14451 0.96072 0.0
H776 H 0.51114 0.1048 0.83981 0.0
H777 H 0.52468 0.13648 0.69823 0.0
H778 H 0.34634 0.02403 0.88019 0.0
H779 H 0.40437 0.06041 0.97294 0.0
H780 H 0.42076 0.12869 0.63091 0.0
H781 H 0.46137 0.09769 0.64993 0.0
H782 H 0.42485 0.12722 0.54156 0.0
H783 H 0.46433 0.09632 0.56014 0.0
H784 H 0.35959 0.07543 0.68048 0.0
H785 H 0.3786 0.10158 0.82615 0.0
H786 H 0.32336 0.07463 0.69185 0.0
H787 H 0.34216 0.10052 0.83485 0.0
H788 H 0.39453 0.01181 0.63061 0.0
H789 H 0.37737 0.05577 0.55221 0.0
H790 H 0.45349 0.19418 0.66287 0.0
H791 H 0.38092 0.15817 0.66402 0.0
Li792 Li 0.34091 0.44459 0.92329 0.0
Li793 Li 0.32377 0.40839 0.96365 0.0
Li794 Li 0.33251 0.4124 0.8754 0.0
Li795 Li 0.30148 0.41746 0.90156 0.0
C796 C 0.37497 0.43618 0.94611 0.0
N797 N 0.41911 0.46079 0.97699 0.0
C798 C 0.38064 0.43445 0.99429 0.0
C799 C 0.39182 0.45034 0.91359 0.0
C800 C 0.40303 0.44704 0.00919 0.0
C801 C 0.41401 0.46268 0.92993 0.0
C802 C 0.31958 0.44918 0.9982 0.0
C803 C 0.31661 0.48133 0.02248 0.0
N804 N 0.33214 0.48595 0.05804 0.0
C805 C 0.33544 0.4542 0.03507 0.0
C806 C 0.31003 0.4628 0.99189 0.0
C807 C 0.3416 0.47287 0.06491 0.0
C808 C 0.36167 0.48981 0.89304 0.0
N809 N 0.36227 0.47637 0.92871 0.0
C810 C 0.39647 0.50687 0.96003 0.0
C811 C 0.37869 0.48478 0.96328 0.0
C812 C 0.3972 0.52061 0.92133 0.0
C813 C 0.37896 0.51212 0.88882 0.0
H814 H 0.34819 0.48297 0.86659 0.0
H815 H 0.3787 0.4741 0.99207 0.0
C816 C 0.32997 0.37546 0.00607 0.0
N817 N 0.32428 0.39115 0.0184 0.0
C818 C 0.33517 0.3644 0.04208 0.0
C819 C 0.32791 0.38528 0.10326 0.0
C820 C 0.32258 0.3958 0.06596 0.0
C821 C 0.33468 0.36962 0.0914 0.0
H822 H 0.33155 0.37236 0.96798 0.0
H823 H 0.31803 0.40832 0.07499 0.0
C824 C 0.33129 0.43963 0.81016 0.0
N825 N 0.34082 0.44402 0.71151 0.0
C826 C 0.31389 0.42949 0.77605 0.0
C827 C 0.3535 0.45219 0.79406 0.0
C828 C 0.31907 0.43187 0.72634 0.0
C829 C 0.35798 0.45415 0.74405 0.0
C830 C 0.28544 0.37175 0.92539 0.0
C831 C 0.27913 0.35009 0.90934 0.0
C832 C 0.2725 0.37482 0.96061 0.0
C833 C 0.25986 0.33179 0.92869 0.0
C834 C 0.25334 0.35609 0.97904 0.0
N835 N 0.24747 0.33514 0.96284 0.0
C836 C 0.36271 0.40443 0.82137 0.0
C837 C 0.32573 0.38777 0.7894 0.0
C838 C 0.36945 0.39603 0.78271 0.0
N839 N 0.34127 0.40039 0.82365 0.0
C840 C 0.33175 0.37905 0.74997 0.0
C841 C 0.35385 0.38314 0.74651 0.0
H842 H 0.37459 0.41415 0.84951 0.0
H843 H 0.3087 0.38462 0.79266 0.0
C844 C 0.27278 0.43298 0.8676 0.0
N845 N 0.27394 0.41399 0.87472 0.0
C846 C 0.25601 0.4326 0.83795 0.0
C847 C 0.24158 0.39305 0.82389 0.0
C848 C 0.2586 0.39416 0.85393 0.0
C849 C 0.2405 0.41258 0.81442 0.0
H850 H 0.28567 0.44875 0.88261 0.0
H851 H 0.26032 0.37947 0.85799 0.0
O852 O 0.35311 0.42388 0.93083 0.0
O853 O 0.31348 0.43103 0.96847 0.0
O854 O 0.32662 0.43712 0.85905 0.0
O855 O 0.30437 0.38977 0.90702 0.0
H856 H 0.36792 0.42363 0.02006 0.0
H857 H 0.3878 0.452 0.87629 0.0
H858 H 0.40762 0.44591 0.04639 0.0
H859 H 0.42716 0.4738 0.90522 0.0
H860 H 0.30936 0.49203 0.01798 0.0
H861 H 0.34329 0.44406 0.03992 0.0
H862 H 0.29761 0.45907 0.96382 0.0
H863 H 0.35399 0.47704 0.09334 0.0
H864 H 0.41007 0.51272 0.98619 0.0
H865 H 0.37836 0.52237 0.85954 0.0
H866 H 0.34066 0.35274 0.03129 0.0
H867 H 0.32731 0.38973 0.14091 0.0
H868 H 0.29661 0.41968 0.78773 0.0
H869 H 0.36714 0.46028 0.81989 0.0
H870 H 0.30578 0.424 0.69957 0.0
H871 H 0.37511 0.46373 0.73111 0.0
H872 H 0.28904 0.34746 0.88221 0.0
H873 H 0.27713 0.39146 0.97351 0.0
H874 H 0.25476 0.31491 0.91658 0.0
H875 H 0.24315 0.3582 0.00625 0.0
H876 H 0.38673 0.39978 0.78083 0.0
H877 H 0.31927 0.36908 0.72275 0.0
H878 H 0.25558 0.44799 0.83244 0.0
H879 H 0.2301 0.37731 0.80623 0.0
Li880 Li 0.89557 0.33928 0.09518 0.0
Li881 Li 0.91529 0.32025 0.13329 0.0
Li882 Li 0.91881 0.32907 0.04609 0.0
Li883 Li 0.88309 0.29895 0.07585 0.0
C884 C 0.94759 0.36928 0.09284 0.0
N885 N 0.98775 0.40787 0.07252 0.0
C886 C 0.96677 0.37474 0.12043 0.0
C887 C 0.9488 0.38359 0.05531 0.0
C888 C 0.98692 0.3943 0.10952 0.0
C889 C 0.96927 0.40297 0.04545 0.0
C890 C 0.87272 0.29592 0.17575 0.0
C891 C 0.86604 0.2608 0.21008 0.0
N892 N 0.85285 0.26241 0.245 0.0
C893 C 0.85912 0.29724 0.21196 0.0
C894 C 0.87625 0.27758 0.17476 0.0
C895 C 0.84922 0.28012 0.24666 0.0
C896 C 0.86848 0.35939 0.08113 0.0
N897 N 0.88746 0.36187 0.10253 0.0
C898 C 0.89944 0.40007 0.12266 0.0
C899 C 0.90256 0.38151 0.12414 0.0
C900 C 0.8807 0.39843 0.09834 0.0
C901 C 0.86478 0.37762 0.07845 0.0
H902 H 0.85682 0.3436 0.06398 0.0
H903 H 0.91754 0.38304 0.14073 0.0
C904 C 0.95143 0.31924 0.1793 0.0
N905 N 0.93318 0.32147 0.18842 0.0
C906 C 0.9678 0.32455 0.21526 0.0
C907 C 0.94594 0.33357 0.2701 0.0
C908 C 0.93 0.32817 0.23296 0.0
C909 C 0.9654 0.33221 0.26117 0.0
H910 H 0.95395 0.3146 0.14315 0.0
H911 H 0.9157 0.33043 0.23888 0.0
C912 C 0.88302 0.32943 0.98819 0.0
N913 N 0.87205 0.34074 0.89961 0.0
C914 C 0.87088 0.31281 0.95332 0.0
C915 C 0.88954 0.35179 0.97782 0.0
C916 C 0.86553 0.31887 0.9088 0.0
C917 C 0.88383 0.35717 0.93292 0.0
C918 C 0.91618 0.28721 0.04561 0.0
C919 C 0.90741 0.28396 0.99842 0.0
C920 C 0.92831 0.27679 0.0597 0.0
C921 C 0.91087 0.27028 0.96604 0.0
C922 C 0.93142 0.26323 0.02625 0.0
N923 N 0.92271 0.26029 0.9805 0.0
C924 C 0.96182 0.34598 0.00524 0.0
C925 C 0.93307 0.33643 0.94663 0.0
C926 C 0.97806 0.35342 0.96857 0.0
N927 N 0.93989 0.33824 0.99381 0.0
C928 C 0.94863 0.3433 0.90885 0.0
C929 C 0.97141 0.3522 0.91983 0.0
H930 H 0.96671 0.34642 0.04287 0.0
H931 H 0.9156 0.32945 0.93791 0.0
C932 C 0.83945 0.27324 0.03878 0.0
N933 N 0.85719 0.27132 0.05454 0.0
C934 C 0.82255 0.25629 0.01039 0.0
C935 C 0.84143 0.2348 0.01822 0.0
C936 C 0.85798 0.25218 0.04659 0.0
C937 C 0.82375 0.23702 0.99846 0.0
H938 H 0.83934 0.28873 0.04502 0.0
H939 H 0.8721 0.25086 0.05976 0.0
O940 O 0.92779 0.35 0.10259 0.0
O941 O 0.88261 0.31265 0.14177 0.0
O942 O 0.88831 0.32375 0.03219 0.0
O943 O 0.91321 0.30075 0.07773 0.0
H944 H 0.96615 0.36403 0.14994 0.0
H945 H 0.9342 0.37967 0.03363 0.0
H946 H 1.0019 0.39868 0.13047 0.0
H947 H 0.97046 0.41409 0.01623 0.0
H948 H 0.86861 0.2465 0.20975 0.0
H949 H 0.85627 0.31138 0.21325 0.0
H950 H 0.88674 0.27625 0.14712 0.0
H951 H 0.83865 0.28092 0.27492 0.0
H952 H 0.91209 0.41586 0.13835 0.0
H953 H 0.84997 0.37564 0.05997 0.0
H954 H 0.98255 0.32334 0.20675 0.0
H955 H 0.94363 0.33987 0.30454 0.0
H956 H 0.86594 0.29546 0.96007 0.0
H957 H 0.89877 0.3649 0.00417 0.0
H958 H 0.85625 0.30618 0.8815 0.0
H959 H 0.88875 0.37441 0.92458 0.0
H960 H 0.89796 0.29186 0.98701 0.0
H961 H 0.93518 0.27909 0.09614 0.0
H962 H 0.90414 0.26761 0.92942 0.0
H963 H 0.94075 0.25505 0.03667 0.0
H964 H 0.99553 0.35988 0.97806 0.0
H965 H 0.94299 0.34198 0.87146 0.0
H966 H 0.80947 0.25893 0.99541 0.0
H967 H 0.84287 0.22012 0.01038 0.0
Li968 Li 0.59576 0.91425 0.29982 0.0
Li969 Li 0.55922 0.89686 0.26065 0.0
Li970 Li 0.58648 0.88218 0.24432 0.0
Li971 Li 0.59334 0.91941 0.21362 0.0
C972 C 0.57056 0.87569 0.35354 0.0
N973 N 0.56987 0.86232 0.44882 0.0
C974 C 0.55853 0.87993 0.38897 0.0
C975 C 0.58206 0.86447 0.36637 0.0
C976 C 0.55842 0.87307 0.437 0.0
C977 C 0.58157 0.85791 0.41481 0.0
C978 C 0.56952 0.93932 0.28103 0.0
C979 C 0.54458 0.95351 0.26225 0.0
N980 N 0.54498 0.95922 0.30989 0.0
C981 C 0.56965 0.94532 0.32986 0.0
C982 C 0.5569 0.94348 0.24693 0.0
C983 C 0.55717 0.9554 0.34368 0.0
C984 C 0.62495 0.95511 0.33989 0.0
N985 N 0.61316 0.93322 0.35409 0.0
C986 C 0.62377 0.9442 0.43734 0.0
C987 C 0.61294 0.92746 0.4017 0.0
C988 C 0.63504 0.96702 0.42376 0.0
C989 C 0.63622 0.97224 0.37397 0.0
H990 H 0.6249 0.95935 0.30193 0.0
H991 H 0.60383 0.91006 0.41255 0.0
C992 C 0.51464 0.87722 0.22553 0.0
N993 N 0.52804 0.88838 0.26419 0.0
C994 C 0.49296 0.87408 0.22225 0.0
C995 C 0.49881 0.89297 0.29977 0.0
C996 C 0.52021 0.89539 0.30196 0.0
C997 C 0.4852 0.88269 0.25895 0.0
H998 H 0.52107 0.87148 0.19628 0.0
H999 H 0.53094 0.90383 0.33274 0.0
C1000 C 0.63509 0.92104 0.26596 0.0
N1001 N 0.67702 0.94051 0.3089 0.0
C1002 C 0.65153 0.94286 0.25323 0.0
C1003 C 0.64 0.90903 0.30011 0.0
C1004 C 0.67263 0.95243 0.27546 0.0
C1005 C 0.6613 0.91919 0.32153 0.0
C1006 C 0.56616 0.89029 0.14864 0.0
C1007 C 0.57488 0.88055 0.11711 0.0
C1008 C 0.55611 0.90196 0.12935 0.0
C1009 C 0.57355 0.88281 0.06676 0.0
C1010 C 0.55515 0.9039 0.0788 0.0
N1011 N 0.56383 0.89437 0.04881 0.0
C1012 C 0.56865 0.83738 0.21247 0.0
C1013 C 0.60812 0.85997 0.20369 0.0
C1014 C 0.56851 0.82051 0.18351 0.0
N1015 N 0.58822 0.85678 0.22121 0.0
C1016 C 0.60874 0.84353 0.17457 0.0
C1017 C 0.58868 0.82367 0.16317 0.0
H1018 H 0.55297 0.83564 0.22524 0.0
H1019 H 0.62333 0.87584 0.20975 0.0
C1020 C 0.60442 0.95836 0.15992 0.0
N1021 N 0.60638 0.93966 0.16145 0.0
C1022 C 0.61313 0.97307 0.12063 0.0
C1023 C 0.62642 0.94941 0.0861 0.0
C1024 C 0.61747 0.93515 0.12619 0.0
C1025 C 0.62414 0.96855 0.083 0.0
H1026 H 0.59607 0.96182 0.18912 0.0
H1027 H 0.61904 0.92029 0.12894 0.0
O1028 O 0.57049 0.88183 0.30619 0.0
O1029 O 0.58161 0.92938 0.2667 0.0
O1030 O 0.61422 0.91155 0.24531 0.0
O1031 O 0.56778 0.88874 0.1981 0.0
H1032 H 0.54949 0.88853 0.37956 0.0
H1033 H 0.59115 0.86076 0.33914 0.0
H1034 H 0.54927 0.87633 0.46487 0.0
H1035 H 0.59044 0.84927 0.42533 0.0
H1036 H 0.53466 0.95671 0.23626 0.0
H1037 H 0.57898 0.94196 0.35704 0.0
H1038 H 0.55643 0.93884 0.20911 0.0
H1039 H 0.55708 0.96006 0.38134 0.0
H1040 H 0.62258 0.93937 0.4753 0.0
H1041 H 0.64533 0.98948 0.36145 0.0
H1042 H 0.48279 0.86601 0.19031 0.0
H1043 H 0.4932 0.89964 0.32891 0.0
H1044 H 0.64795 0.95234 0.22677 0.0
H1045 H 0.62746 0.89209 0.31015 0.0
H1046 H 0.68549 0.96935 0.2662 0.0
H1047 H 0.66531 0.91015 0.34823 0.0
H1048 H 0.58281 0.87155 0.13124 0.0
H1049 H 0.54928 0.9096 0.15318 0.0
H1050 H 0.58033 0.87546 0.04196 0.0
H1051 H 0.54754 0.913 0.06342 0.0
H1052 H 0.55259 0.80575 0.17478 0.0
H1053 H 0.62464 0.84667 0.15967 0.0
H1054 H 0.6113 0.98784 0.11961 0.0
H1055 H 0.6346 0.94528 0.05745 0.0
C1056 C 0.36024 0.37478 0.16161 0.0
C1057 C 0.34306 0.3602 0.12965 0.0
C1058 C 0.36977 0.3666 0.19545 0.0
C1059 C 0.3623 0.34347 0.19915 0.0
H1060 H 0.36678 0.39275 0.15963 0.0
H1061 H 0.38304 0.37849 0.2191 0.0
S1062 S 0.31729 0.29819 0.12494 0.0
N1063 N 0.31866 0.32146 0.10457 0.0
N1064 N 0.33645 0.30608 0.16836 0.0
C1065 C 0.34486 0.32867 0.16804 0.0
C1066 C 0.33532 0.33703 0.1332 0.0
C1067 C 0.02385 0.36499 0.31771 0.0
C1068 C 0.02009 0.35898 0.36733 0.0
C1069 C 0.0062 0.35584 0.28364 0.0
C1070 C 0.98396 0.3405 0.29783 0.0
H1071 H 0.04058 0.377 0.30514 0.0
H1072 H 0.00991 0.3613 0.24603 0.0
S1073 S 0.96512 0.31911 0.42329 0.0
N1074 N 0.9924 0.33659 0.42889 0.0
N1075 N 0.95931 0.31933 0.36489 0.0
C1076 C 0.98 0.33417 0.34724 0.0
C1077 C 0.99802 0.34336 0.3819 0.0
C1078 C 0.65734 0.98444 0.50061 0.0
C1079 C 0.64469 0.98535 0.46113 0.0
C1080 C 0.66624 1.00143 0.53635 0.0
C1081 C 0.66298 0.02009 0.53382 0.0
H1082 H 0.66047 0.97053 0.50386 0.0
H1083 H 0.67572 0.99996 0.56627 0.0
S1084 S 0.62952 0.0296 0.44064 0.0
N1085 N 0.62818 0.00589 0.42381 0.0
N1086 N 0.64529 0.03787 0.49018 0.0
C1087 C 0.65031 0.02116 0.4948 0.0
C1088 C 0.64107 0.00381 0.45872 0.0
C1089 C 0.65345 0.65394 0.6249 0.0
C1090 C 0.66182 0.63988 0.63971 0.0
C1091 C 0.64448 0.6627 0.65883 0.0
C1092 C 0.64387 0.65805 0.70898 0.0
H1093 H 0.6533 0.65773 0.58658 0.0
H1094 H 0.63793 0.67318 0.64572 0.0
S1095 S 0.66392 0.6224 0.76668 0.0
N1096 N 0.66914 0.62194 0.708 0.0
N1097 N 0.65238 0.63839 0.77168 0.0
C1098 C 0.65247 0.64426 0.72431 0.0
C1099 C 0.66137 0.63517 0.68973 0.0
C1100 C 0.99935 0.64521 0.78606 0.0
C1101 C 0.0218 0.65971 0.80037 0.0
C1102 C 0.98174 0.63629 0.82018 0.0
C1103 C 0.98574 0.64158 0.87012 0.0
H1104 H 0.99537 0.64028 0.74821 0.0
H1105 H 0.96482 0.62513 0.80729 0.0
S1106 S 0.0414 0.67889 0.92676 0.0
N1107 N 0.04693 0.6793 0.86803 0.0
N1108 N 0.014 0.66214 0.93224 0.0
C1109 C 0.00808 0.65619 0.88494 0.0
C1110 C 0.02603 0.66528 0.85014 0.0
C1111 C 0.37635 0.01149 0.98444 0.0
C1112 C 0.36376 0.02128 0.96813 0.0
C1113 C 0.36715 0.99319 0.01676 0.0
C1114 C 0.34508 0.98408 0.03456 0.0
H1115 H 0.39337 0.01783 0.97155 0.0
H1116 H 0.37755 0.98632 0.02849 0.0
S1117 S 0.30512 0.00363 0.00343 0.0
N1118 N 0.32806 0.02051 0.97234 0.0
N1119 N 0.31083 0.9862 0.03331 0.0
C1120 C 0.33233 0.99376 0.01874 0.0
C1121 C 0.34163 0.01227 0.98541 0.0
C1122 C 0.57142 0.44734 0.45859 0.0
C1123 C 0.58377 0.45995 0.41791 0.0
C1124 C 0.55131 0.42687 0.45289 0.0
C1125 C 0.54266 0.4183 0.40627 0.0
H1126 H 0.57716 0.45353 0.49516 0.0
H1127 H 0.54206 0.41811 0.48529 0.0
S1128 S 0.56902 0.44431 0.28797 0.0
N1129 N 0.58617 0.46207 0.32937 0.0
N1130 N 0.54859 0.42344 0.31872 0.0
C1131 C 0.55517 0.43041 0.3653 0.0
C1132 C 0.57568 0.45123 0.3711 0.0
C1133 C 0.13278 0.55475 0.61049 0.0
C1134 C 0.12517 0.54237 0.56687 0.0
C1135 C 0.1336 0.57547 0.61594 0.0
C1136 C 0.12703 0.58466 0.57781 0.0
H1137 H 0.13736 0.54799 0.6413 0.0
H1138 H 0.1391 0.5842 0.65051 0.0
S1139 S 0.10686 0.55937 0.45538 0.0
N1140 N 0.11206 0.54133 0.48406 0.0
N1141 N 0.11305 0.5799 0.49456 0.0
C1142 C 0.12001 0.57273 0.53351 0.0
C1143 C 0.11919 0.55168 0.52801 0.0
C1144 C 0.56258 0.13969 0.759 0.0
C1145 C 0.54181 0.11987 0.76545 0.0
C1146 C 0.58256 0.13895 0.75401 0.0
C1147 C 0.58224 0.11833 0.75408 0.0
H1148 H 0.56336 0.15582 0.75794 0.0
H1149 H 0.59827 0.15453 0.7492 0.0
S1150 S 0.53221 0.06178 0.76925 0.0
N1151 N 0.52218 0.07915 0.77174 0.0
N1152 N 0.5596 0.07775 0.76141 0.0
C1153 C 0.5616 0.09845 0.76041 0.0
C1154 C 0.5414 0.09922 0.76633 0.0
C1155 C 0.44865 0.57754 0.94789 0.0
C1156 C 0.45938 0.58412 0.90222 0.0
C1157 C 0.42818 0.55742 0.95344 0.0
C1158 C 0.41759 0.54303 0.91356 0.0
H1159 H 0.45652 0.5876 0.98006 0.0
H1160 H 0.42081 0.55289 0.98951 0.0
S1161 S 0.43805 0.55319 0.78553 0.0
N1162 N 0.45708 0.57537 0.81573 0.0
N1163 N 0.41918 0.53715 0.82641 0.0
C1164 C 0.42779 0.54976 0.86736 0.0
C1165 C 0.44854 0.57034 0.86167 0.0
C1166 C 0.88088 0.43248 0.13174 0.0
C1167 C 0.87867 0.41879 0.09154 0.0
C1168 C 0.88091 0.45276 0.12563 0.0
C1169 C 0.87906 0.46028 0.07902 0.0
H1170 H 0.88289 0.42759 0.16814 0.0
H1171 H 0.88317 0.46301 0.15751 0.0
S1172 S 0.87234 0.43038 0.96209 0.0
N1173 N 0.87415 0.41395 0.00362 0.0
N1174 N 0.87414 0.45205 0.9922 0.0
C1175 C 0.8764 0.44654 0.03864 0.0
C1176 C 0.87618 0.42579 0.04489 0.0
C1177 C 0.42283 0.86222 0.24579 0.0
C1178 C 0.42253 0.88243 0.24043 0.0
C1179 C 0.44321 0.8623 0.25126 0.0
C1180 C 0.46379 0.88263 0.25281 0.0
H1181 H 0.40724 0.84629 0.24548 0.0
H1182 H 0.44288 0.84645 0.25498 0.0
S1183 S 0.47197 0.93997 0.24116 0.0
N1184 N 0.44451 0.92319 0.23703 0.0
N1185 N 0.48268 0.92334 0.24836 0.0
C1186 C 0.46366 0.90289 0.24775 0.0
C1187 C 0.44304 0.90279 0.2413 0.0
C1188 C 0.35624 0.37815 0.65688 0.0
C1189 C 0.36079 0.37435 0.70487 0.0
C1190 C 0.36373 0.37102 0.61684 0.0
C1191 C 0.37603 0.35992 0.62359 0.0
H1192 H 0.34731 0.38717 0.65025 0.0
H1193 H 0.36034 0.37467 0.58039 0.0
S1194 S 0.39009 0.34371 0.74173 0.0
N1195 N 0.37675 0.35723 0.75688 0.0
N1196 N 0.39093 0.34391 0.68153 0.0
C1197 C 0.38009 0.35543 0.67133 0.0
C1198 C 0.37244 0.36263 0.71202 0.0
C1199 C 0.98595 0.34592 0.84178 0.0
C1200 C 0.98806 0.3604 0.88014 0.0
C1201 C 1.00069 0.35372 0.80206 0.0
C1202 C 0.01787 0.37634 0.79915 0.0
H1203 H 0.97275 0.32845 0.84248 0.0
H1204 H 0.99859 0.34197 0.7734 0.0
S1205 S 0.02948 0.42115 0.88946 0.0
N1206 N 0.00813 0.39828 0.91281 0.0
N1207 N 0.03559 0.41325 0.83749 0.0
C1208 C 0.0201 0.39097 0.83745 0.0
C1209 C 0.00523 0.38292 0.87812 0.0
C1210 C 0.61803 0.98919 0.01564 0.0
C1211 C 0.63247 0.98347 0.04003 0.0
C1212 C 0.62543 0.00352 0.97529 0.0
C1213 C 0.64757 0.01275 0.95806 0.0
H1214 H 0.60084 0.98245 0.02776 0.0
H1215 H 0.61383 0.0077 0.95792 0.0
S1216 S 0.69188 0.00281 0.00881 0.0
N1217 N 0.66986 0.98803 0.04424 0.0
N1218 N 0.68374 0.01482 0.96765 0.0
C1219 C 0.66215 0.00705 0.98187 0.0
C1220 C 0.65458 0.99239 0.02297 0.0
C1221 C 0.61623 0.63869 0.1752 0.0
C1222 C 0.62334 0.63725 0.12786 0.0
C1223 C 0.62366 0.63194 0.2159 0.0
C1224 C 0.63856 0.62369 0.21064 0.0
H1225 H 0.60507 0.64535 0.18089 0.0
H1226 H 0.61795 0.63346 0.2518 0.0
S1227 S 0.66075 0.61485 0.09465 0.0
N1228 N 0.64505 0.62567 0.07793 0.0
N1229 N 0.65929 0.6133 0.15477 0.0
C1230 C 0.6456 0.62189 0.16362 0.0
C1231 C 0.63793 0.62862 0.12212 0.0
C1232 C 0.02424 0.65125 0.32733 0.0
C1233 C 0.01595 0.64353 0.37456 0.0
C1234 C 0.00989 0.64389 0.28681 0.0
C1235 C 0.98686 0.62848 0.2923 0.0
H1236 H 0.04201 0.6626 0.32149 0.0
H1237 H 0.01692 0.6498 0.25086 0.0
S1238 S 0.95642 0.6052 0.4084 0.0
N1239 N 0.98294 0.62117 0.42479 0.0
N1240 N 0.95607 0.60706 0.34839 0.0
C1241 C 0.97825 0.62117 0.33933 0.0
C1242 C 0.99278 0.62877 0.38056 0.0
C1243 C 0.34989 0.99513 0.48102 0.0
C1244 C 0.36343 0.98712 0.46121 0.0
C1245 C 0.35712 0.00966 0.5212 0.0
C1246 C 0.37807 0.01653 0.54313 0.0
H1247 H 0.33369 0.99035 0.46498 0.0
H1248 H 0.34617 0.01543 0.53544 0.0
S1249 S 0.41969 1.00008 0.50534 0.0
N1250 N 0.39852 0.98668 0.46704 0.0
N1251 N 0.41239 0.01448 0.54182 0.0
C1252 C 0.39175 0.00859 0.52375 0.0
C1253 C 0.38437 0.99379 0.48291 0.0
C1254 C 0.42998 0.21513 0.54558 0.0
C1255 C 0.41618 0.22471 0.55118 0.0
C1256 C 0.43044 0.20056 0.58096 0.0
C1257 C 0.41719 0.19505 0.6235 0.0
H1258 H 0.44024 0.21863 0.5132 0.0
H1259 H 0.44093 0.19319 0.57447 0.0
S1260 S 0.38008 0.21762 0.65812 0.0
N1261 N 0.39022 0.22896 0.60432 0.0
N1262 N 0.39106 0.20162 0.6706 0.0
C1263 C 0.40373 0.20495 0.63006 0.0
C1264 C 0.40325 0.21976 0.59404 0.0
C1265 C 0.20114 0.39501 0.78113 0.0
C1266 C 0.22379 0.41216 0.77886 0.0
C1267 C 0.18507 0.39447 0.74859 0.0
C1268 C 0.19098 0.41092 0.71206 0.0
H1269 H 0.19568 0.38212 0.80889 0.0
H1270 H 0.1678 0.38106 0.75224 0.0
S1271 S 0.24825 0.45884 0.68903 0.0
N1272 N 0.25149 0.44545 0.7355 0.0
N1273 N 0.22125 0.4447 0.67525 0.0
C1274 C 0.21365 0.4279 0.70875 0.0
C1275 C 0.23003 0.42849 0.74195 0.0
C1276 C 0.81603 0.21333 0.92307 0.0
C1277 C 0.8078 0.22035 0.96242 0.0
C1278 C 0.80156 0.19868 0.887 0.0
C1279 C 0.77827 0.19053 0.88863 0.0
H1280 H 0.8339 0.21961 0.91951 0.0
H1281 H 0.80871 0.19399 0.85715 0.0
S1282 S 0.74789 0.20182 0.98653 0.0
N1283 N 0.77459 0.21668 0.0025 0.0
N1284 N 0.74746 0.18923 0.93489 0.0
C1285 C 0.76975 0.19698 0.92835 0.0
C1286 C 0.78447 0.21185 0.96511 0.0
C1287 C 0.60024 0.815 0.08262 0.0
C1288 C 0.58857 0.80728 0.12714 0.0
C1289 C 0.59977 0.79997 0.0472 0.0
C1290 C 0.58751 0.77658 0.05468 0.0
H1291 H 0.60951 0.83282 0.07465 0.0
H1292 H 0.60883 0.80669 0.01338 0.0
S1293 S 0.55582 0.74774 0.16664 0.0
N1294 N 0.56557 0.77468 0.17778 0.0
N1295 N 0.56462 0.74649 0.1113 0.0
C1296 C 0.57609 0.76865 0.09933 0.0
C1297 C 0.57662 0.78395 0.13545 0.0
C1298 C 0.77318 0.57145 0.25106 0.0
C1299 C 0.77941 0.59013 0.28163 0.0
C1300 C 0.78833 0.57106 0.21714 0.0
C1301 C 0.81035 0.58934 0.21236 0.0
H1302 H 0.75633 0.55711 0.25282 0.0
H1303 H 0.78266 0.55637 0.19416 0.0
S1304 S 0.83558 0.64155 0.28664 0.0
N1305 N 0.80946 0.62692 0.30656 0.0
N1306 N 0.83796 0.62615 0.24333 0.0
C1307 C 0.81687 0.60802 0.24319 0.0
C1308 C 0.80142 0.60842 0.27764 0.0
C1309 C 0.20265 0.80239 0.45468 0.0
C1310 C 0.19258 0.77903 0.4477 0.0
C1311 C 0.21767 0.81764 0.42019 0.0
C1312 C 0.22312 0.81017 0.37713 0.0
H1313 H 0.19914 0.80893 0.48742 0.0
H1314 H 0.22537 0.83545 0.42777 0.0
S1315 S 0.19947 0.75071 0.33917 0.0
N1316 N 0.18797 0.74918 0.39295 0.0
N1317 N 0.21602 0.77777 0.32817 0.0
C1318 C 0.21277 0.78685 0.36927 0.0
C1319 C 0.19756 0.77133 0.40445 0.0
loop_
_geom_bond_atom_site_label_1
_geom_bond_atom_site_label_2
_geom_bond_distance
_geom_bond_site_symmetry_2
_ccdc_geom_bond_type
Li0 N17 1.990 . S
Li0 O60 1.956 . S
Li0 O61 1.970 . S
Li0 O62 1.961 . S
Li1 N25 1.990 . S
Li1 O60 1.970 . S
Li1 O61 1.956 . S
Li1 O63 1.961 . S
Li2 N47 1.990 . S
Li2 O60 1.961 . S
Li2 O62 1.956 . S
Li2 O63 1.970 . S
Li3 N53 1.990 . S
Li3 O61 1.961 . S
Li3 O62 1.970 . S
Li3 O63 1.956 . S
C4 C6 1.348 . S
C4 C7 1.356 . S
C4 O60 1.325 . S
N5 C8 1.314 . S
N5 C9 1.279 . S
C6 C4 1.348 . S
C6 C8 1.353 . S
C6 H64 0.929 . S
C7 C4 1.356 . S
C7 C9 1.358 . S
C7 H65 0.930 . S
C8 N5 1.314 . S
C8 C6 1.353 . S
C8 H66 0.930 . S
C9 N5 1.279 . S
C9 C7 1.358 . S
C9 H67 0.930 . S
C10 C13 1.348 . S
C10 C14 1.356 . S
C10 O61 1.325 . S
C11 N12 1.279 . S
C11 C14 1.358 . S
C11 H68 0.930 . S
N12 C11 1.279 . S
N12 C15 1.314 . S
C13 C10 1.348 . S
C13 C15 1.353 . S
C13 H69 0.929 . S
C14 C10 1.356 . S
C14 C11 1.358 . S
C14 H70 0.930 . S
C15 N12 1.314 . S
C15 C13 1.353 . S
C15 H71 0.930 . S
C16 N17 1.314 . S
C16 C21 1.353 . S
C16 H22 0.930 . S
N17 Li0 1.990 . S
N17 C16 1.314 . S
N17 C19 1.279 . S
C18 C19 1.358 . S
C18 C20 1.356 . S
C18 H72 0.930 . S
C19 N17 1.279 . S
C19 C18 1.358 . S
C19 H23 0.930 . S
C20 C18 1.356 . S
C20 C21 1.348 . S
C21 C16 1.353 . S
C21 C20 1.348 . S
C21 H73 0.929 . S
H22 C16 0.930 . S
H23 C19 0.930 . S
C24 N25 1.314 . S
C24 C26 1.353 . S
C24 H30 0.930 . S
N25 Li1 1.990 . S
N25 C24 1.314 . S
N25 C28 1.279 . S
C26 C24 1.353 . S
C26 C29 1.348 . S
C26 H74 0.929 . S
C27 C28 1.358 . S
C27 C29 1.356 . S
C27 H75 0.930 . S
C28 N25 1.279 . S
C28 C27 1.358 . S
C28 H31 0.930 . S
C29 C26 1.348 . S
C29 C27 1.356 . S
H30 C24 0.930 . S
H31 C28 0.930 . S
C32 C34 1.348 . S
C32 C35 1.356 . S
C32 O62 1.325 . S
N33 C36 1.314 . S
N33 C37 1.279 . S
C34 C32 1.348 . S
C34 C36 1.353 . S
C34 H76 0.929 . S
C35 C32 1.356 . S
C35 C37 1.358 . S
C35 H77 0.930 . S
C36 N33 1.314 . S
C36 C34 1.353 . S
C36 H78 0.930 . S
C37 N33 1.279 . S
C37 C35 1.358 . S
C37 H79 0.930 . S
C38 C39 1.348 . S
C38 C40 1.356 . S
C38 O63 1.325 . S
C39 C38 1.348 . S
C39 C41 1.353 . S
C39 H80 0.929 . S
C40 C38 1.356 . S
C40 C42 1.358 . S
C40 H81 0.930 . S
C41 C39 1.353 . S
C41 N43 1.314 . S
C41 H82 0.930 . S
C42 C40 1.358 . S
C42 N43 1.279 . S
C42 H83 0.930 . S
N43 C41 1.314 . S
N43 C42 1.279 . S
C44 C46 1.353 . S
C44 N47 1.314 . S
C44 H50 0.930 . S
C45 N47 1.279 . S
C45 C48 1.358 . S
C45 H51 0.930 . S
C46 C44 1.353 . S
C46 C49 1.348 . S
C46 H84 0.929 . S
N47 Li2 1.990 . S
N47 C44 1.314 . S
N47 C45 1.279 . S
C48 C45 1.358 . S
C48 C49 1.356 . S
C48 H85 0.930 . S
C49 C46 1.348 . S
C49 C48 1.356 . S
H50 C44 0.930 . S
H51 C45 0.930 . S
C52 N53 1.314 . S
C52 C54 1.353 . S
C52 H58 0.930 . S
N53 Li3 1.990 . S
N53 C52 1.314 . S
N53 C56 1.279 . S
C54 C52 1.353 . S
C54 C57 1.348 . S
C54 H86 0.929 . S
C55 C56 1.358 . S
C55 C57 1.356 . S
C55 H87 0.930 . S
C56 N53 1.279 . S
C56 C55 1.358 . S
C56 H59 0.930 . S
C57 C54 1.348 . S
C57 C55 1.356 . S
H58 C52 0.930 . S
H59 C56 0.930 . S
O60 Li0 1.956 . S
O60 Li1 1.970 . S
O60 Li2 1.961 . S
O60 C4 1.325 . S
O61 Li0 1.970 . S
O61 Li1 1.956 . S
O61 Li3 1.961 . S
O61 C10 1.325 . S
O62 Li0 1.961 . S
O62 Li2 1.956 . S
O62 Li3 1.970 . S
O62 C32 1.325 . S
O63 Li1 1.961 . S
O63 Li2 1.970 . S
O63 Li3 1.956 . S
O63 C38 1.325 . S
H64 C6 0.929 . S
H65 C7 0.930 . S
H66 C8 0.930 . S
H67 C9 0.930 . S
H68 C11 0.930 . S
H69 C13 0.929 . S
H70 C14 0.930 . S
H71 C15 0.930 . S
H72 C18 0.930 . S
H73 C21 0.929 . S
H74 C26 0.929 . S
H75 C27 0.930 . S
H76 C34 0.929 . S
H77 C35 0.930 . S
H78 C36 0.930 . S
H79 C37 0.930 . S
H80 C39 0.929 . S
H81 C40 0.930 . S
H82 C41 0.930 . S
H83 C42 0.930 . S
H84 C46 0.929 . S
H85 C48 0.930 . S
H86 C54 0.929 . S
H87 C55 0.930 . S
Li88 N105 1.990 . S
Li88 O148 1.956 . S
Li88 O149 1.970 . S
Li88 O150 1.961 . S
Li89 N113 1.990 . S
Li89 O148 1.970 . S
Li89 O149 1.956 . S
Li89 O151 1.961 . S
Li90 N135 1.990 . S
Li90 O148 1.961 . S
Li90 O150 1.956 . S
Li90 O151 1.970 . S
Li91 N141 1.990 . S
Li91 O149 1.961 . S
Li91 O150 1.970 . S
Li91 O151 1.956 . S
C92 C94 1.348 . S
C92 C95 1.356 . S
C92 O148 1.325 . S
N93 C96 1.314 . S
N93 C97 1.279 . S
C94 C92 1.348 . S
C94 C96 1.353 . S
C94 H152 0.929 . S
C95 C92 1.356 . S
C95 C97 1.358 . S
C95 H153 0.930 . S
C96 N93 1.314 . S
C96 C94 1.353 . S
C96 H154 0.930 . S
C97 N93 1.279 . S
C97 C95 1.358 . S
C97 H155 0.930 . S
C98 C101 1.348 . S
C98 C102 1.356 . S
C98 O149 1.325 . S
C99 N100 1.279 . S
C99 C102 1.358 . S
C99 H156 0.930 . S
N100 C99 1.279 . S
N100 C103 1.314 . S
C101 C98 1.348 . S
C101 C103 1.353 . S
C101 H157 0.929 . S
C102 C98 1.356 . S
C102 C99 1.358 . S
C102 H158 0.930 . S
C103 N100 1.314 . S
C103 C101 1.353 . S
C103 H159 0.930 . S
C104 N105 1.314 . S
C104 C109 1.353 . S
C104 H110 0.930 . S
N105 Li88 1.990 . S
N105 C104 1.314 . S
N105 C107 1.279 . S
C106 C107 1.358 . S
C106 C108 1.356 . S
C106 H160 0.930 . S
C107 N105 1.279 . S
C107 C106 1.358 . S
C107 H111 0.930 . S
C108 C106 1.356 . S
C108 C109 1.348 . S
C109 C104 1.353 . S
C109 C108 1.348 . S
C109 H161 0.929 . S
H110 C104 0.930 . S
H111 C107 0.930 . S
C112 N113 1.314 . S
C112 C114 1.353 . S
C112 H118 0.930 . S
N113 Li89 1.990 . S
N113 C112 1.314 . S
N113 C116 1.279 . S
C114 C112 1.353 . S
C114 C117 1.348 . S
C114 H162 0.925 . S
C115 C116 1.358 . S
C115 C117 1.356 . S
C115 H163 0.930 . S
C116 N113 1.279 . S
C116 C115 1.358 . S
C116 H119 0.930 . S
C117 C114 1.348 . S
C117 C115 1.356 . S
H118 C112 0.930 . S
H119 C116 0.930 . S
C120 C122 1.348 . S
C120 C123 1.356 . S
C120 O150 1.325 . S
N121 C124 1.314 . S
N121 C125 1.279 . S
C122 C120 1.348 . S
C122 C124 1.353 . S
C122 H164 0.929 . S
C123 C120 1.356 . S
C123 C125 1.358 . S
C123 H165 0.930 . S
C124 N121 1.314 . S
C124 C122 1.353 . S
C124 H166 0.930 . S
C125 N121 1.279 . S
C125 C123 1.358 . S
C125 H167 0.930 . S
C126 C127 1.348 . S
C126 C128 1.356 . S
C126 O151 1.325 . S
C127 C126 1.348 . S
C127 C129 1.353 . S
C127 H168 0.929 . S
C128 C126 1.356 . S
C128 C130 1.358 . S
C128 H169 0.930 . S
C129 C127 1.353 . S
C129 N131 1.314 . S
C129 H170 0.930 . S
C130 C128 1.358 . S
C130 N131 1.279 . S
C130 H171 0.930 . S
N131 C129 1.314 . S
N131 C130 1.279 . S
C132 C134 1.353 . S
C132 N135 1.314 . S
C132 H138 0.930 . S
C133 N135 1.279 . S
C133 C136 1.358 . S
C133 H139 0.930 . S
C134 C132 1.353 . S
C134 C137 1.348 . S
C134 H172 0.929 . S
N135 Li90 1.990 . S
N135 C132 1.314 . S
N135 C133 1.279 . S
C136 C133 1.358 . S
C136 C137 1.356 . S
C136 H173 0.930 . S
C137 C134 1.348 . S
C137 C136 1.356 . S
H138 C132 0.930 . S
H139 C133 0.930 . S
C140 N141 1.314 . S
C140 C142 1.353 . S
C140 H146 0.930 . S
N141 Li91 1.990 . S
N141 C140 1.314 . S
N141 C144 1.279 . S
C142 C140 1.353 . S
C142 C145 1.348 . S
C142 H174 0.929 . S
C143 C144 1.358 . S
C143 C145 1.356 . S
C143 H175 0.930 . S
C144 N141 1.279 . S
C144 C143 1.358 . S
C144 H147 0.930 . S
C145 C142 1.348 . S
C145 C143 1.356 . S
H146 C140 0.930 . S
H147 C144 0.930 . S
O148 Li88 1.956 . S
O148 Li89 1.970 . S
O148 Li90 1.961 . S
O148 C92 1.325 . S
O149 Li88 1.970 . S
O149 Li89 1.956 . S
O149 Li91 1.961 . S
O149 C98 1.325 . S
O150 Li88 1.961 . S
O150 Li90 1.956 . S
O150 Li91 1.970 . S
O150 C120 1.325 . S
O151 Li89 1.961 . S
O151 Li90 1.970 . S
O151 Li91 1.956 . S
O151 C126 1.325 . S
H152 C94 0.929 . S
H153 C95 0.930 . S
H154 C96 0.930 . S
H155 C97 0.930 . S
H156 C99 0.930 . S
H157 C101 0.929 . S
H158 C102 0.930 . S
H159 C103 0.930 . S
H160 C106 0.930 . S
H161 C109 0.929 . S
H162 C114 0.925 . S
H163 C115 0.930 . S
H164 C122 0.929 . S
H165 C123 0.930 . S
H166 C124 0.930 . S
H167 C125 0.930 . S
H168 C127 0.929 . S
H169 C128 0.930 . S
H170 C129 0.930 . S
H171 C130 0.930 . S
H172 C134 0.929 . S
H173 C136 0.930 . S
H174 C142 0.929 . S
H175 C143 0.930 . S
Li176 N193 1.990 . S
Li176 O236 1.956 . S
Li176 O237 1.970 . S
Li176 O238 1.961 . S
Li177 N201 1.990 . S
Li177 O236 1.970 . S
Li177 O237 1.956 . S
Li177 O239 1.961 . S
Li178 N223 1.990 . S
Li178 O236 1.961 . S
Li178 O238 1.956 . S
Li178 O239 1.970 . S
Li179 N229 1.990 . S
Li179 O237 1.961 . S
Li179 O238 1.970 . S
Li179 O239 1.956 . S
C180 C182 1.348 . S
C180 C183 1.356 . S
C180 O236 1.325 . S
N181 C184 1.314 . S
N181 C185 1.279 . S
C182 C180 1.348 . S
C182 C184 1.353 . S
C182 H240 0.929 . S
C183 C180 1.356 . S
C183 C185 1.358 . S
C183 H241 0.930 . S
C184 N181 1.314 . S
C184 C182 1.353 . S
C184 H242 0.930 . S
C185 N181 1.279 . S
C185 C183 1.358 . S
C185 H243 0.930 . S
C186 C189 1.348 . S
C186 C190 1.356 . S
C186 O237 1.325 . S
C187 N188 1.279 . S
C187 C190 1.358 . S
C187 H244 0.930 . S
N188 C187 1.279 . S
N188 C191 1.314 . S
C189 C186 1.348 . S
C189 C191 1.353 . S
C189 H245 0.929 . S
C190 C186 1.356 . S
C190 C187 1.358 . S
C190 H246 0.930 . S
C191 N188 1.314 . S
C191 C189 1.353 . S
C191 H247 0.930 . S
C192 N193 1.314 . S
C192 C197 1.353 . S
C192 H198 0.930 . S
N193 Li176 1.990 . S
N193 C192 1.314 . S
N193 C195 1.279 . S
C194 C195 1.358 . S
C194 C196 1.356 . S
C194 H248 0.930 . S
C195 N193 1.279 . S
C195 C194 1.358 . S
C195 H199 0.930 . S
C196 C194 1.356 . S
C196 C197 1.348 . S
C197 C192 1.353 . S
C197 C196 1.348 . S
C197 H249 0.929 . S
H198 C192 0.930 . S
H199 C195 0.930 . S
C200 N201 1.314 . S
C200 C202 1.353 . S
C200 H206 0.930 . S
N201 Li177 1.990 . S
N201 C200 1.314 . S
N201 C204 1.279 . S
C202 C200 1.353 . S
C202 C205 1.348 . S
C202 H250 0.924 . S
C203 C204 1.358 . S
C203 C205 1.356 . S
C203 H251 0.930 . S
C204 N201 1.279 . S
C204 C203 1.358 . S
C204 H207 0.930 . S
C205 C202 1.348 . S
C205 C203 1.356 . S
H206 C200 0.930 . S
H207 C204 0.930 . S
C208 C210 1.348 . S
C208 C211 1.356 . S
C208 O238 1.325 . S
N209 C212 1.314 . S
N209 C213 1.279 . S
C210 C208 1.348 . S
C210 C212 1.353 . S
C210 H252 0.929 . S
C211 C208 1.356 . S
C211 C213 1.358 . S
C211 H253 0.930 . S
C212 N209 1.314 . S
C212 C210 1.353 . S
C212 H254 0.930 . S
C213 N209 1.279 . S
C213 C211 1.358 . S
C213 H255 0.930 . S
C214 C215 1.348 . S
C214 C216 1.356 . S
C214 O239 1.325 . S
C215 C214 1.348 . S
C215 C217 1.353 . S
C215 H256 0.929 . S
C216 C214 1.356 . S
C216 C218 1.358 . S
C216 H257 0.930 . S
C217 C215 1.353 . S
C217 N219 1.314 . S
C217 H258 0.930 . S
C218 C216 1.358 . S
C218 N219 1.279 . S
C218 H259 0.930 . S
N219 C217 1.314 . S
N219 C218 1.279 . S
C220 C222 1.353 . S
C220 N223 1.314 . S
C220 H226 0.930 . S
C221 N223 1.279 . S
C221 C224 1.358 . S
C221 H227 0.930 . S
C222 C220 1.353 . S
C222 C225 1.348 . S
C222 H260 0.929 . S
N223 Li178 1.990 . S
N223 C220 1.314 . S
N223 C221 1.279 . S
C224 C221 1.358 . S
C224 C225 1.356 . S
C224 H261 0.930 . S
C225 C222 1.348 . S
C225 C224 1.356 . S
H226 C220 0.930 . S
H227 C221 0.930 . S
C228 N229 1.314 . S
C228 C230 1.353 . S
C228 H234 0.930 . S
N229 Li179 1.990 . S
N229 C228 1.314 . S
N229 C232 1.279 . S
C230 C228 1.353 . S
C230 C233 1.348 . S
C230 H262 0.929 . S
C231 C232 1.358 . S
C231 C233 1.356 . S
C231 H263 0.930 . S
C232 N229 1.279 . S
C232 C231 1.358 . S
C232 H235 0.930 . S
C233 C230 1.348 . S
C233 C231 1.356 . S
H234 C228 0.930 . S
H235 C232 0.930 . S
O236 Li176 1.956 . S
O236 Li177 1.970 . S
O236 Li178 1.961 . S
O236 C180 1.325 . S
O237 Li176 1.970 . S
O237 Li177 1.956 . S
O237 Li179 1.961 . S
O237 C186 1.325 . S
O238 Li176 1.961 . S
O238 Li178 1.956 . S
O238 Li179 1.970 . S
O238 C208 1.325 . S
O239 Li177 1.961 . S
O239 Li178 1.970 . S
O239 Li179 1.956 . S
O239 C214 1.325 . S
H240 C182 0.929 . S
H241 C183 0.930 . S
H242 C184 0.930 . S
H243 C185 0.930 . S
H244 C187 0.930 . S
H245 C189 0.929 . S
H246 C190 0.930 . S
H247 C191 0.930 . S
H248 C194 0.930 . S
H249 C197 0.929 . S
H250 C202 0.924 . S
H251 C203 0.930 . S
H252 C210 0.929 . S
H253 C211 0.930 . S
H254 C212 0.930 . S
H255 C213 0.930 . S
H256 C215 0.929 . S
H257 C216 0.930 . S
H258 C217 0.930 . S
H259 C218 0.930 . S
H260 C222 0.929 . S
H261 C224 0.930 . S
H262 C230 0.929 . S
H263 C231 0.930 . S
Li264 N281 1.990 1_556 S
Li264 O324 1.956 . S
Li264 O325 1.970 . S
Li264 O326 1.961 . S
Li265 N289 1.990 . S
Li265 O324 1.970 . S
Li265 O325 1.956 . S
Li265 O327 1.961 . S
Li266 N311 1.990 . S
Li266 O324 1.961 . S
Li266 O326 1.956 . S
Li266 O327 1.970 . S
Li267 N317 1.990 . S
Li267 O325 1.961 . S
Li267 O326 1.970 . S
Li267 O327 1.956 . S
C268 C270 1.348 . S
C268 C271 1.356 . S
C268 O324 1.325 1_554 S
N269 C272 1.314 . S
N269 C273 1.279 . S
C270 C268 1.348 . S
C270 C272 1.353 . S
C270 H328 0.929 . S
C271 C268 1.356 . S
C271 C273 1.358 . S
C271 H329 0.930 . S
C272 N269 1.314 . S
C272 C270 1.353 . S
C272 H330 0.930 . S
C273 N269 1.279 . S
C273 C271 1.358 . S
C273 H331 0.930 . S
C274 C277 1.348 . S
C274 C278 1.356 . S
C274 O325 1.325 . S
C275 N276 1.279 . S
C275 C278 1.358 . S
C275 H332 0.930 . S
N276 C275 1.279 . S
N276 C279 1.314 . S
C277 C274 1.348 . S
C277 C279 1.353 . S
C277 H333 0.929 1_556 S
C278 C274 1.356 . S
C278 C275 1.358 . S
C278 H334 0.930 . S
C279 N276 1.314 . S
C279 C277 1.353 . S
C279 H335 0.930 1_556 S
C280 N281 1.314 . S
C280 C285 1.353 . S
C280 H286 0.930 1_554 S
N281 Li264 1.990 1_554 S
N281 C280 1.314 . S
N281 C283 1.279 . S
C282 C283 1.358 . S
C282 C284 1.356 . S
C282 H336 0.930 . S
C283 N281 1.279 . S
C283 C282 1.358 . S
C283 H287 0.930 . S
C284 C282 1.356 . S
C284 C285 1.348 . S
C285 C280 1.353 . S
C285 C284 1.348 . S
C285 H337 0.929 . S
H286 C280 0.930 1_556 S
H287 C283 0.930 . S
C288 N289 1.314 . S
C288 C290 1.353 . S
C288 H294 0.930 . S
N289 Li265 1.990 . S
N289 C288 1.314 . S
N289 C292 1.279 . S
C290 C288 1.353 . S
C290 C293 1.348 . S
C290 H338 0.929 . S
C291 C292 1.358 . S
C291 C293 1.356 . S
C291 H339 0.930 . S
C292 N289 1.279 . S
C292 C291 1.358 . S
C292 H295 0.930 . S
C293 C290 1.348 . S
C293 C291 1.356 . S
H294 C288 0.930 . S
H295 C292 0.930 . S
C296 C298 1.348 . S
C296 C299 1.356 . S
C296 O326 1.325 . S
N297 C300 1.314 . S
N297 C301 1.279 . S
C298 C296 1.348 . S
C298 C300 1.353 . S
C298 H340 0.929 . S
C299 C296 1.356 . S
C299 C301 1.358 . S
C299 H341 0.930 . S
C300 N297 1.314 . S
C300 C298 1.353 . S
C300 H342 0.930 . S
C301 N297 1.279 . S
C301 C299 1.358 . S
C301 H343 0.930 . S
C302 C303 1.348 . S
C302 C304 1.356 . S
C302 O327 1.325 . S
C303 C302 1.348 . S
C303 C305 1.353 . S
C303 H344 0.929 . S
C304 C302 1.356 . S
C304 C306 1.358 . S
C304 H345 0.930 . S
C305 C303 1.353 . S
C305 N307 1.314 . S
C305 H346 0.930 . S
C306 C304 1.358 . S
C306 N307 1.279 . S
C306 H347 0.930 . S
N307 C305 1.314 . S
N307 C306 1.279 . S
C308 C310 1.353 . S
C308 N311 1.314 . S
C308 H314 0.930 . S
C309 N311 1.279 . S
C309 C312 1.358 . S
C309 H315 0.930 . S
C310 C308 1.353 . S
C310 C313 1.348 . S
C310 H348 0.929 . S
N311 Li266 1.990 . S
N311 C308 1.314 . S
N311 C309 1.279 . S
C312 C309 1.358 . S
C312 C313 1.356 . S
C312 H349 0.930 . S
C313 C310 1.348 . S
C313 C312 1.356 . S
H314 C308 0.930 . S
H315 C309 0.930 . S
C316 N317 1.314 . S
C316 C318 1.353 . S
C316 H322 0.930 . S
N317 Li267 1.990 . S
N317 C316 1.314 . S
N317 C320 1.279 . S
C318 C316 1.353 . S
C318 C321 1.348 . S
C318 H350 0.929 . S
C319 C320 1.358 . S
C319 C321 1.356 . S
C319 H351 0.930 . S
C320 N317 1.279 . S
C320 C319 1.358 . S
C320 H323 0.930 . S
C321 C318 1.348 . S
C321 C319 1.356 . S
H322 C316 0.930 . S
H323 C320 0.930 . S
O324 Li264 1.956 . S
O324 Li265 1.970 . S
O324 Li266 1.961 . S
O324 C268 1.325 1_556 S
O325 Li264 1.970 . S
O325 Li265 1.956 . S
O325 Li267 1.961 . S
O325 C274 1.325 . S
O326 Li264 1.961 . S
O326 Li266 1.956 . S
O326 Li267 1.970 . S
O326 C296 1.325 . S
O327 Li265 1.961 . S
O327 Li266 1.970 . S
O327 Li267 1.956 . S
O327 C302 1.325 . S
H328 C270 0.929 . S
H329 C271 0.930 . S
H330 C272 0.930 . S
H331 C273 0.930 . S
H332 C275 0.930 . S
H333 C277 0.929 1_554 S
H334 C278 0.930 . S
H335 C279 0.930 1_554 S
H336 C282 0.930 . S
H337 C285 0.929 . S
H338 C290 0.929 . S
H339 C291 0.930 . S
H340 C298 0.929 . S
H341 C299 0.930 . S
H342 C300 0.930 . S
H343 C301 0.930 . S
H344 C303 0.929 . S
H345 C304 0.930 . S
H346 C305 0.930 . S
H347 C306 0.930 . S
H348 C310 0.929 . S
H349 C312 0.930 . S
H350 C318 0.929 . S
H351 C319 0.930 . S
Li352 N369 1.990 . S
Li352 O412 1.956 . S
Li352 O413 1.970 . S
Li352 O414 1.961 . S
Li353 N377 1.990 . S
Li353 O412 1.970 . S
Li353 O413 1.956 . S
Li353 O415 1.961 . S
Li354 N399 1.990 . S
Li354 O412 1.961 . S
Li354 O414 1.956 . S
Li354 O415 1.970 . S
Li355 N405 1.990 1_554 S
Li355 O413 1.961 . S
Li355 O414 1.970 . S
Li355 O415 1.956 . S
C356 C358 1.348 . S
C356 C359 1.356 . S
C356 O412 1.325 . S
N357 C360 1.314 . S
N357 C361 1.279 . S
C358 C356 1.348 . S
C358 C360 1.353 . S
C358 H416 0.929 . S
C359 C356 1.356 . S
C359 C361 1.358 . S
C359 H417 0.930 . S
C360 N357 1.314 . S
C360 C358 1.353 . S
C360 H418 0.930 . S
C361 N357 1.279 . S
C361 C359 1.358 . S
C361 H419 0.930 . S
C362 C365 1.348 . S
C362 C366 1.356 . S
C362 O413 1.325 . S
C363 N364 1.279 . S
C363 C366 1.358 . S
C363 H420 0.930 . S
N364 C363 1.279 . S
N364 C367 1.314 . S
C365 C362 1.348 . S
C365 C367 1.353 . S
C365 H421 0.929 . S
C366 C362 1.356 . S
C366 C363 1.358 . S
C366 H422 0.930 . S
C367 N364 1.314 . S
C367 C365 1.353 . S
C367 H423 0.930 . S
C368 N369 1.314 . S
C368 C373 1.353 . S
C368 H374 0.930 . S
N369 Li352 1.990 . S
N369 C368 1.314 . S
N369 C371 1.279 . S
C370 C371 1.358 . S
C370 C372 1.356 . S
C370 H424 0.930 . S
C371 N369 1.279 . S
C371 C370 1.358 . S
C371 H375 0.930 . S
C372 C370 1.356 . S
C372 C373 1.348 . S
C373 C368 1.353 . S
C373 C372 1.348 . S
C373 H425 0.925 . S
H374 C368 0.930 . S
H375 C371 0.930 . S
C376 N377 1.314 . S
C376 C378 1.353 . S
C376 H382 0.930 . S
N377 Li353 1.990 . S
N377 C376 1.314 . S
N377 C380 1.279 . S
C378 C376 1.353 . S
C378 C381 1.348 . S
C378 H426 0.929 . S
C379 C380 1.358 . S
C379 C381 1.356 . S
C379 H427 0.930 . S
C380 N377 1.279 . S
C380 C379 1.358 . S
C380 H383 0.930 . S
C381 C378 1.348 . S
C381 C379 1.356 . S
H382 C376 0.930 . S
H383 C380 0.930 . S
C384 C386 1.348 . S
C384 C387 1.356 . S
C384 O414 1.325 . S
N385 C388 1.314 . S
N385 C389 1.279 . S
C386 C384 1.348 . S
C386 C388 1.353 . S
C386 H428 0.929 . S
C387 C384 1.356 . S
C387 C389 1.358 . S
C387 H429 0.930 . S
C388 N385 1.314 . S
C388 C386 1.353 . S
C388 H430 0.930 1_554 S
C389 N385 1.279 . S
C389 C387 1.358 . S
C389 H431 0.930 . S
C390 C391 1.348 1_554 S
C390 C392 1.356 1_554 S
C390 O415 1.325 . S
C391 C390 1.348 1_556 S
C391 C393 1.353 . S
C391 H432 0.929 1_556 S
C392 C390 1.356 1_556 S
C392 C394 1.358 . S
C392 H433 0.930 1_556 S
C393 C391 1.353 . S
C393 N395 1.314 . S
C393 H434 0.930 . S
C394 C392 1.358 . S
C394 N395 1.279 . S
C394 H435 0.930 . S
N395 C393 1.314 . S
N395 C394 1.279 . S
C396 C398 1.353 . S
C396 N399 1.314 . S
C396 H402 0.930 . S
C397 N399 1.279 . S
C397 C400 1.358 . S
C397 H403 0.930 . S
C398 C396 1.353 . S
C398 C401 1.348 . S
C398 H436 0.929 . S
N399 Li354 1.990 . S
N399 C396 1.314 . S
N399 C397 1.279 . S
C400 C397 1.358 . S
C400 C401 1.356 . S
C400 H437 0.930 . S
C401 C398 1.348 . S
C401 C400 1.356 . S
H402 C396 0.930 . S
H403 C397 0.930 . S
C404 N405 1.314 . S
C404 C406 1.353 . S
C404 H410 0.930 1_556 S
N405 Li355 1.990 1_556 S
N405 C404 1.314 . S
N405 C408 1.279 . S
C406 C404 1.353 . S
C406 C409 1.348 . S
C406 H438 0.929 . S
C407 C408 1.358 . S
C407 C409 1.356 . S
C407 H439 0.930 . S
C408 N405 1.279 . S
C408 C407 1.358 . S
C408 H411 0.930 . S
C409 C406 1.348 . S
C409 C407 1.356 . S
H410 C404 0.930 1_554 S
H411 C408 0.930 . S
O412 Li352 1.956 . S
O412 Li353 1.970 . S
O412 Li354 1.961 . S
O412 C356 1.325 . S
O413 Li352 1.970 . S
O413 Li353 1.956 . S
O413 Li355 1.961 . S
O413 C362 1.325 . S
O414 Li352 1.961 . S
O414 Li354 1.956 . S
O414 Li355 1.970 . S
O414 C384 1.325 . S
O415 Li353 1.961 . S
O415 Li354 1.970 . S
O415 Li355 1.956 . S
O415 C390 1.325 . S
H416 C358 0.929 . S
H417 C359 0.930 . S
H418 C360 0.930 . S
H419 C361 0.930 . S
H420 C363 0.930 . S
H421 C365 0.929 . S
H422 C366 0.930 . S
H423 C367 0.930 . S
H424 C370 0.930 . S
H425 C373 0.925 . S
H426 C378 0.929 . S
H427 C379 0.930 . S
H428 C386 0.929 . S
H429 C387 0.930 . S
H430 C388 0.930 1_556 S
H431 C389 0.930 . S
H432 C391 0.929 1_554 S
H433 C392 0.930 1_554 S
H434 C393 0.930 . S
H435 C394 0.930 . S
H436 C398 0.929 . S
H437 C400 0.930 . S
H438 C406 0.929 . S
H439 C407 0.930 . S
Li440 N457 1.990 . S
Li440 O500 1.956 . S
Li440 O501 1.970 . S
Li440 O502 1.961 . S
Li441 N465 1.990 . S
Li441 O500 1.970 . S
Li441 O501 1.956 . S
Li441 O503 1.961 . S
Li442 N487 1.990 . S
Li442 O500 1.961 . S
Li442 O502 1.956 . S
Li442 O503 1.970 . S
Li443 N493 1.990 . S
Li443 O501 1.961 . S
Li443 O502 1.970 . S
Li443 O503 1.956 . S
C444 C446 1.348 . S
C444 C447 1.356 . S
C444 O500 1.325 . S
N445 C448 1.314 . S
N445 C449 1.279 . S
C446 C444 1.348 . S
C446 C448 1.353 . S
C446 H504 0.929 . S
C447 C444 1.356 . S
C447 C449 1.358 . S
C447 H505 0.930 . S
C448 N445 1.314 . S
C448 C446 1.353 . S
C448 H506 0.930 . S
C449 N445 1.279 . S
C449 C447 1.358 . S
C449 H507 0.930 . S
C450 C453 1.348 . S
C450 C454 1.356 . S
C450 O501 1.325 . S
C451 N452 1.279 . S
C451 C454 1.358 . S
C451 H508 0.930 . S
N452 C451 1.279 . S
N452 C455 1.314 . S
C453 C450 1.348 . S
C453 C455 1.353 . S
C453 H509 0.929 . S
C454 C450 1.356 . S
C454 C451 1.358 . S
C454 H510 0.930 . S
C455 N452 1.314 . S
C455 C453 1.353 . S
C455 H511 0.930 . S
C456 N457 1.314 . S
C456 C461 1.353 . S
C456 H462 0.930 . S
N457 Li440 1.990 . S
N457 C456 1.314 . S
N457 C459 1.279 . S
C458 C459 1.358 . S
C458 C460 1.356 . S
C458 H512 0.930 . S
C459 N457 1.279 . S
C459 C458 1.358 . S
C459 H463 0.930 . S
C460 C458 1.356 . S
C460 C461 1.348 . S
C461 C456 1.353 . S
C461 C460 1.348 . S
C461 H513 0.924 . S
H462 C456 0.930 . S
H463 C459 0.930 . S
C464 N465 1.314 . S
C464 C466 1.353 . S
C464 H470 0.930 . S
N465 Li441 1.990 . S
N465 C464 1.314 . S
N465 C468 1.279 . S
C466 C464 1.353 . S
C466 C469 1.348 . S
C466 H514 0.929 . S
C467 C468 1.358 . S
C467 C469 1.356 . S
C467 H515 0.930 . S
C468 N465 1.279 . S
C468 C467 1.358 . S
C468 H471 0.930 . S
C469 C466 1.348 . S
C469 C467 1.356 . S
H470 C464 0.930 . S
H471 C468 0.930 . S
C472 C474 1.348 . S
C472 C475 1.356 . S
C472 O502 1.325 . S
N473 C476 1.314 . S
N473 C477 1.279 . S
C474 C472 1.348 . S
C474 C476 1.353 . S
C474 H516 0.929 . S
C475 C472 1.356 . S
C475 C477 1.358 . S
C475 H517 0.930 . S
C476 N473 1.314 . S
C476 C474 1.353 . S
C476 H518 0.930 . S
C477 N473 1.279 . S
C477 C475 1.358 . S
C477 H519 0.930 . S
C478 C479 1.348 . S
C478 C480 1.356 . S
C478 O503 1.325 . S
C479 C478 1.348 . S
C479 C481 1.353 . S
C479 H520 0.929 . S
C480 C478 1.356 . S
C480 C482 1.358 . S
C480 H521 0.930 . S
C481 C479 1.353 . S
C481 N483 1.314 . S
C481 H522 0.930 . S
C482 C480 1.358 . S
C482 N483 1.279 . S
C482 H523 0.930 . S
N483 C481 1.314 . S
N483 C482 1.279 . S
C484 C486 1.353 . S
C484 N487 1.314 . S
C484 H490 0.930 . S
C485 N487 1.279 . S
C485 C488 1.358 . S
C485 H491 0.930 . S
C486 C484 1.353 . S
C486 C489 1.348 . S
C486 H524 0.929 . S
N487 Li442 1.990 . S
N487 C484 1.314 . S
N487 C485 1.279 . S
C488 C485 1.358 . S
C488 C489 1.356 . S
C488 H525 0.930 . S
C489 C486 1.348 . S
C489 C488 1.356 . S
H490 C484 0.930 . S
H491 C485 0.930 . S
C492 N493 1.314 . S
C492 C494 1.353 . S
C492 H498 0.930 . S
N493 Li443 1.990 . S
N493 C492 1.314 . S
N493 C496 1.279 . S
C494 C492 1.353 . S
C494 C497 1.348 . S
C494 H526 0.929 . S
C495 C496 1.358 . S
C495 C497 1.356 . S
C495 H527 0.930 . S
C496 N493 1.279 . S
C496 C495 1.358 . S
C496 H499 0.930 . S
C497 C494 1.348 . S
C497 C495 1.356 . S
H498 C492 0.930 . S
H499 C496 0.930 . S
O500 Li440 1.956 . S
O500 Li441 1.970 . S
O500 Li442 1.961 . S
O500 C444 1.325 . S
O501 Li440 1.970 . S
O501 Li441 1.956 . S
O501 Li443 1.961 . S
O501 C450 1.325 . S
O502 Li440 1.961 . S
O502 Li442 1.956 . S
O502 Li443 1.970 . S
O502 C472 1.325 . S
O503 Li441 1.961 . S
O503 Li442 1.970 . S
O503 Li443 1.956 . S
O503 C478 1.325 . S
H504 C446 0.929 . S
H505 C447 0.930 . S
H506 C448 0.930 . S
H507 C449 0.930 . S
H508 C451 0.930 . S
H509 C453 0.929 . S
H510 C454 0.930 . S
H511 C455 0.930 . S
H512 C458 0.930 . S
H513 C461 0.924 . S
H514 C466 0.929 . S
H515 C467 0.930 . S
H516 C474 0.929 . S
H517 C475 0.930 . S
H518 C476 0.930 . S
H519 C477 0.930 . S
H520 C479 0.929 . S
H521 C480 0.930 . S
H522 C481 0.930 . S
H523 C482 0.930 . S
H524 C486 0.929 . S
H525 C488 0.930 . S
H526 C494 0.929 . S
H527 C495 0.930 . S
Li528 N545 1.990 . S
Li528 O588 1.956 . S
Li528 O589 1.970 . S
Li528 O590 1.961 . S
Li529 N553 1.990 . S
Li529 O588 1.970 . S
Li529 O589 1.956 . S
Li529 O591 1.961 . S
Li530 N575 1.990 . S
Li530 O588 1.961 . S
Li530 O590 1.956 . S
Li530 O591 1.970 . S
Li531 N581 1.990 . S
Li531 O589 1.961 . S
Li531 O590 1.970 . S
Li531 O591 1.956 . S
C532 C534 1.348 . S
C532 C535 1.356 . S
C532 O588 1.325 . S
N533 C536 1.314 . S
N533 C537 1.279 . S
C534 C532 1.348 . S
C534 C536 1.353 . S
C534 H592 0.929 . S
C535 C532 1.356 . S
C535 C537 1.358 . S
C535 H593 0.930 . S
C536 N533 1.314 . S
C536 C534 1.353 . S
C536 H594 0.930 . S
C537 N533 1.279 . S
C537 C535 1.358 . S
C537 H595 0.930 . S
C538 C541 1.348 . S
C538 C542 1.356 . S
C538 O589 1.325 . S
C539 N540 1.279 . S
C539 C542 1.358 . S
C539 H596 0.930 . S
N540 C539 1.279 . S
N540 C543 1.314 . S
C541 C538 1.348 . S
C541 C543 1.353 . S
C541 H597 0.929 . S
C542 C538 1.356 . S
C542 C539 1.358 . S
C542 H598 0.930 . S
C543 N540 1.314 . S
C543 C541 1.353 . S
C543 H599 0.930 . S
C544 N545 1.314 . S
C544 C549 1.353 . S
C544 H550 0.930 . S
N545 Li528 1.990 . S
N545 C544 1.314 . S
N545 C547 1.279 . S
C546 C547 1.358 . S
C546 C548 1.356 . S
C546 H600 0.930 . S
C547 N545 1.279 . S
C547 C546 1.358 . S
C547 H551 0.930 . S
C548 C546 1.356 . S
C548 C549 1.348 . S
C549 C544 1.353 . S
C549 C548 1.348 . S
C549 H601 0.929 . S
H550 C544 0.930 . S
H551 C547 0.930 . S
C552 N553 1.314 . S
C552 C554 1.353 . S
C552 H558 0.930 . S
N553 Li529 1.990 . S
N553 C552 1.314 . S
N553 C556 1.279 . S
C554 C552 1.353 . S
C554 C557 1.348 . S
C554 H602 0.929 . S
C555 C556 1.358 . S
C555 C557 1.356 . S
C555 H603 0.930 . S
C556 N553 1.279 . S
C556 C555 1.358 . S
C556 H559 0.930 . S
C557 C554 1.348 . S
C557 C555 1.356 . S
H558 C552 0.930 . S
H559 C556 0.930 . S
C560 C562 1.348 . S
C560 C563 1.356 . S
C560 O590 1.325 . S
N561 C564 1.314 . S
N561 C565 1.279 . S
C562 C560 1.348 . S
C562 C564 1.353 . S
C562 H604 0.929 . S
C563 C560 1.356 . S
C563 C565 1.358 . S
C563 H605 0.930 . S
C564 N561 1.314 . S
C564 C562 1.353 . S
C564 H606 0.930 . S
C565 N561 1.279 . S
C565 C563 1.358 . S
C565 H607 0.930 . S
C566 C567 1.348 . S
C566 C568 1.356 . S
C566 O591 1.325 . S
C567 C566 1.348 . S
C567 C569 1.353 . S
C567 H608 0.929 . S
C568 C566 1.356 . S
C568 C570 1.358 . S
C568 H609 0.930 . S
C569 C567 1.353 . S
C569 N571 1.314 . S
C569 H610 0.930 . S
C570 C568 1.358 . S
C570 N571 1.279 . S
C570 H611 0.930 . S
N571 C569 1.314 . S
N571 C570 1.279 . S
C572 C574 1.353 . S
C572 N575 1.314 . S
C572 H578 0.930 . S
C573 N575 1.279 . S
C573 C576 1.358 . S
C573 H579 0.930 . S
C574 C572 1.353 . S
C574 C577 1.348 . S
C574 H612 0.929 . S
N575 Li530 1.990 . S
N575 C572 1.314 . S
N575 C573 1.279 . S
C576 C573 1.358 . S
C576 C577 1.356 . S
C576 H613 0.930 . S
C577 C574 1.348 . S
C577 C576 1.356 . S
H578 C572 0.930 . S
H579 C573 0.930 . S
C580 N581 1.314 . S
C580 C582 1.353 . S
C580 H586 0.930 . S
N581 Li531 1.990 . S
N581 C580 1.314 . S
N581 C584 1.279 . S
C582 C580 1.353 . S
C582 C585 1.348 . S
C582 H614 0.929 . S
C583 C584 1.358 . S
C583 C585 1.356 . S
C583 H615 0.930 . S
C584 N581 1.279 . S
C584 C583 1.358 . S
C584 H587 0.930 . S
C585 C582 1.348 . S
C585 C583 1.356 . S
H586 C580 0.930 . S
H587 C584 0.930 . S
O588 Li528 1.956 . S
O588 Li529 1.970 . S
O588 Li530 1.961 . S
O588 C532 1.325 . S
O589 Li528 1.970 . S
O589 Li529 1.956 . S
O589 Li531 1.961 . S
O589 C538 1.325 . S
O590 Li528 1.961 . S
O590 Li530 1.956 . S
O590 Li531 1.970 . S
O590 C560 1.325 . S
O591 Li529 1.961 . S
O591 Li530 1.970 . S
O591 Li531 1.956 . S
O591 C566 1.325 . S
H592 C534 0.929 . S
H593 C535 0.930 . S
H594 C536 0.930 . S
H595 C537 0.930 . S
H596 C539 0.930 . S
H597 C541 0.929 . S
H598 C542 0.930 . S
H599 C543 0.930 . S
H600 C546 0.930 . S
H601 C549 0.929 . S
H602 C554 0.929 . S
H603 C555 0.930 . S
H604 C562 0.929 . S
H605 C563 0.930 . S
H606 C564 0.930 . S
H607 C565 0.930 . S
H608 C567 0.929 . S
H609 C568 0.930 . S
H610 C569 0.930 . S
H611 C570 0.930 . S
H612 C574 0.929 . S
H613 C576 0.930 . S
H614 C582 0.929 . S
H615 C583 0.930 . S
Li616 N633 1.990 . S
Li616 O676 1.956 . S
Li616 O677 1.970 . S
Li616 O678 1.961 . S
Li617 N641 1.990 . S
Li617 O676 1.970 . S
Li617 O677 1.956 . S
Li617 O679 1.961 . S
Li618 N663 1.990 . S
Li618 O676 1.961 . S
Li618 O678 1.956 . S
Li618 O679 1.970 . S
Li619 N669 1.990 . S
Li619 O677 1.961 . S
Li619 O678 1.970 . S
Li619 O679 1.956 . S
C620 C622 1.348 . S
C620 C623 1.356 . S
C620 O676 1.325 . S
N621 C624 1.314 . S
N621 C625 1.279 . S
C622 C620 1.348 . S
C622 C624 1.353 . S
C622 H680 0.929 . S
C623 C620 1.356 . S
C623 C625 1.358 . S
C623 H681 0.930 . S
C624 N621 1.314 . S
C624 C622 1.353 . S
C624 H682 0.930 . S
C625 N621 1.279 . S
C625 C623 1.358 . S
C625 H683 0.930 . S
C626 C629 1.348 . S
C626 C630 1.356 . S
C626 O677 1.325 . S
C627 N628 1.279 . S
C627 C630 1.358 . S
C627 H684 0.930 . S
N628 C627 1.279 . S
N628 C631 1.314 . S
C629 C626 1.348 . S
C629 C631 1.353 . S
C629 H685 0.929 . S
C630 C626 1.356 . S
C630 C627 1.358 . S
C630 H686 0.930 . S
C631 N628 1.314 . S
C631 C629 1.353 . S
C631 H687 0.930 . S
C632 N633 1.314 . S
C632 C637 1.353 . S
C632 H638 0.930 . S
N633 Li616 1.990 . S
N633 C632 1.314 . S
N633 C635 1.279 . S
C634 C635 1.358 . S
C634 C636 1.356 . S
C634 H688 0.930 . S
C635 N633 1.279 . S
C635 C634 1.358 . S
C635 H639 0.930 . S
C636 C634 1.356 . S
C636 C637 1.348 . S
C637 C632 1.353 . S
C637 C636 1.348 . S
C637 H689 0.929 . S
H638 C632 0.930 . S
H639 C635 0.930 . S
C640 N641 1.314 . S
C640 C642 1.353 . S
C640 H646 0.930 . S
N641 Li617 1.990 . S
N641 C640 1.314 . S
N641 C644 1.279 . S
C642 C640 1.353 . S
C642 C645 1.348 . S
C642 H690 0.929 . S
C643 C644 1.358 . S
C643 C645 1.356 . S
C643 H691 0.930 . S
C644 N641 1.279 . S
C644 C643 1.358 . S
C644 H647 0.930 . S
C645 C642 1.348 . S
C645 C643 1.356 . S
H646 C640 0.930 . S
H647 C644 0.930 . S
C648 C650 1.348 . S
C648 C651 1.356 . S
C648 O678 1.325 . S
N649 C652 1.314 . S
N649 C653 1.279 . S
C650 C648 1.348 . S
C650 C652 1.353 . S
C650 H692 0.929 . S
C651 C648 1.356 . S
C651 C653 1.358 . S
C651 H693 0.930 . S
C652 N649 1.314 . S
C652 C650 1.353 . S
C652 H694 0.930 . S
C653 N649 1.279 . S
C653 C651 1.358 . S
C653 H695 0.930 . S
C654 C655 1.348 . S
C654 C656 1.356 . S
C654 O679 1.325 . S
C655 C654 1.348 . S
C655 C657 1.353 . S
C655 H696 0.929 . S
C656 C654 1.356 . S
C656 C658 1.358 . S
C656 H697 0.930 . S
C657 C655 1.353 . S
C657 N659 1.314 . S
C657 H698 0.930 . S
C658 C656 1.358 . S
C658 N659 1.279 . S
C658 H699 0.930 . S
N659 C657 1.314 . S
N659 C658 1.279 . S
C660 C662 1.353 . S
C660 N663 1.314 . S
C660 H666 0.930 . S
C661 N663 1.279 . S
C661 C664 1.358 . S
C661 H667 0.930 . S
C662 C660 1.353 . S
C662 C665 1.348 . S
C662 H700 0.929 . S
N663 Li618 1.990 . S
N663 C660 1.314 . S
N663 C661 1.279 . S
C664 C661 1.358 . S
C664 C665 1.356 . S
C664 H701 0.930 . S
C665 C662 1.348 . S
C665 C664 1.356 . S
H666 C660 0.930 . S
H667 C661 0.930 . S
C668 N669 1.314 . S
C668 C670 1.353 . S
C668 H674 0.930 . S
N669 Li619 1.990 . S
N669 C668 1.314 . S
N669 C672 1.279 . S
C670 C668 1.353 . S
C670 C673 1.348 . S
C670 H702 0.924 . S
C671 C672 1.358 . S
C671 C673 1.356 . S
C671 H703 0.930 . S
C672 N669 1.279 . S
C672 C671 1.358 . S
C672 H675 0.930 . S
C673 C670 1.348 . S
C673 C671 1.356 . S
H674 C668 0.930 . S
H675 C672 0.930 . S
O676 Li616 1.956 . S
O676 Li617 1.970 . S
O676 Li618 1.961 . S
O676 C620 1.325 . S
O677 Li616 1.970 . S
O677 Li617 1.956 . S
O677 Li619 1.961 . S
O677 C626 1.325 . S
O678 Li616 1.961 . S
O678 Li618 1.956 . S
O678 Li619 1.970 . S
O678 C648 1.325 . S
O679 Li617 1.961 . S
O679 Li618 1.970 . S
O679 Li619 1.956 . S
O679 C654 1.325 . S
H680 C622 0.929 . S
H681 C623 0.930 . S
H682 C624 0.930 . S
H683 C625 0.930 . S
H684 C627 0.930 . S
H685 C629 0.929 . S
H686 C630 0.930 . S
H687 C631 0.930 . S
H688 C634 0.930 . S
H689 C637 0.929 . S
H690 C642 0.929 . S
H691 C643 0.930 . S
H692 C650 0.929 . S
H693 C651 0.930 . S
H694 C652 0.930 . S
H695 C653 0.930 . S
H696 C655 0.929 . S
H697 C656 0.930 . S
H698 C657 0.930 . S
H699 C658 0.930 . S
H700 C662 0.929 . S
H701 C664 0.930 . S
H702 C670 0.924 . S
H703 C671 0.930 . S
Li704 N721 1.990 . S
Li704 O764 1.956 . S
Li704 O765 1.970 . S
Li704 O766 1.961 . S
Li705 N729 1.990 . S
Li705 O764 1.970 . S
Li705 O765 1.956 . S
Li705 O767 1.961 . S
Li706 N751 1.990 . S
Li706 O764 1.961 . S
Li706 O766 1.956 . S
Li706 O767 1.970 . S
Li707 N757 1.990 . S
Li707 O765 1.961 . S
Li707 O766 1.970 . S
Li707 O767 1.956 . S
C708 C710 1.348 . S
C708 C711 1.356 . S
C708 O764 1.325 . S
N709 C712 1.314 . S
N709 C713 1.279 . S
C710 C708 1.348 . S
C710 C712 1.353 . S
C710 H768 0.929 . S
C711 C708 1.356 . S
C711 C713 1.358 . S
C711 H769 0.930 . S
C712 N709 1.314 . S
C712 C710 1.353 . S
C712 H770 0.930 . S
C713 N709 1.279 . S
C713 C711 1.358 . S
C713 H771 0.930 . S
C714 C717 1.348 . S
C714 C718 1.356 . S
C714 O765 1.325 . S
C715 N716 1.279 . S
C715 C718 1.358 . S
C715 H772 0.930 . S
N716 C715 1.279 . S
N716 C719 1.314 . S
C717 C714 1.348 . S
C717 C719 1.353 . S
C717 H773 0.929 . S
C718 C714 1.356 . S
C718 C715 1.358 . S
C718 H774 0.930 . S
C719 N716 1.314 . S
C719 C717 1.353 . S
C719 H775 0.930 . S
C720 N721 1.314 . S
C720 C725 1.353 . S
C720 H726 0.930 . S
N721 Li704 1.990 . S
N721 C720 1.314 . S
N721 C723 1.279 . S
C722 C723 1.358 . S
C722 C724 1.356 . S
C722 H776 0.930 . S
C723 N721 1.279 . S
C723 C722 1.358 . S
C723 H727 0.930 . S
C724 C722 1.356 . S
C724 C725 1.348 . S
C725 C720 1.353 . S
C725 C724 1.348 . S
C725 H777 0.929 . S
H726 C720 0.930 . S
H727 C723 0.930 . S
C728 N729 1.314 . S
C728 C730 1.353 . S
C728 H734 0.930 . S
N729 Li705 1.990 . S
N729 C728 1.314 . S
N729 C732 1.279 . S
C730 C728 1.353 . S
C730 C733 1.348 . S
C730 H778 0.929 . S
C731 C732 1.358 . S
C731 C733 1.356 . S
C731 H779 0.930 . S
C732 N729 1.279 . S
C732 C731 1.358 . S
C732 H735 0.930 . S
C733 C730 1.348 . S
C733 C731 1.356 . S
H734 C728 0.930 . S
H735 C732 0.930 . S
C736 C738 1.348 . S
C736 C739 1.356 . S
C736 O766 1.325 . S
N737 C740 1.314 . S
N737 C741 1.279 . S
C738 C736 1.348 . S
C738 C740 1.353 . S
C738 H780 0.929 . S
C739 C736 1.356 . S
C739 C741 1.358 . S
C739 H781 0.930 . S
C740 N737 1.314 . S
C740 C738 1.353 . S
C740 H782 0.930 . S
C741 N737 1.279 . S
C741 C739 1.358 . S
C741 H783 0.930 . S
C742 C743 1.348 . S
C742 C744 1.356 . S
C742 O767 1.325 . S
C743 C742 1.348 . S
C743 C745 1.353 . S
C743 H784 0.929 . S
C744 C742 1.356 . S
C744 C746 1.358 . S
C744 H785 0.930 . S
C745 C743 1.353 . S
C745 N747 1.314 . S
C745 H786 0.930 . S
C746 C744 1.358 . S
C746 N747 1.279 . S
C746 H787 0.930 . S
N747 C745 1.314 . S
N747 C746 1.279 . S
C748 C750 1.353 . S
C748 N751 1.314 . S
C748 H754 0.930 . S
C749 N751 1.279 . S
C749 C752 1.358 . S
C749 H755 0.930 . S
C750 C748 1.353 . S
C750 C753 1.348 . S
C750 H788 0.925 . S
N751 Li706 1.990 . S
N751 C748 1.314 . S
N751 C749 1.279 . S
C752 C749 1.358 . S
C752 C753 1.356 . S
C752 H789 0.930 . S
C753 C750 1.348 . S
C753 C752 1.356 . S
H754 C748 0.930 . S
H755 C749 0.930 . S
C756 N757 1.314 . S
C756 C758 1.353 . S
C756 H762 0.930 . S
N757 Li707 1.990 . S
N757 C756 1.314 . S
N757 C760 1.279 . S
C758 C756 1.353 . S
C758 C761 1.348 . S
C758 H790 0.929 . S
C759 C760 1.358 . S
C759 C761 1.356 . S
C759 H791 0.930 . S
C760 N757 1.279 . S
C760 C759 1.358 . S
C760 H763 0.930 . S
C761 C758 1.348 . S
C761 C759 1.356 . S
H762 C756 0.930 . S
H763 C760 0.930 . S
O764 Li704 1.956 . S
O764 Li705 1.970 . S
O764 Li706 1.961 . S
O764 C708 1.325 . S
O765 Li704 1.970 . S
O765 Li705 1.956 . S
O765 Li707 1.961 . S
O765 C714 1.325 . S
O766 Li704 1.961 . S
O766 Li706 1.956 . S
O766 Li707 1.970 . S
O766 C736 1.325 . S
O767 Li705 1.961 . S
O767 Li706 1.970 . S
O767 Li707 1.956 . S
O767 C742 1.325 . S
H768 C710 0.929 . S
H769 C711 0.930 . S
H770 C712 0.930 . S
H771 C713 0.930 . S
H772 C715 0.930 . S
H773 C717 0.929 . S
H774 C718 0.930 . S
H775 C719 0.930 . S
H776 C722 0.930 . S
H777 C725 0.929 . S
H778 C730 0.929 . S
H779 C731 0.930 . S
H780 C738 0.929 . S
H781 C739 0.930 . S
H782 C740 0.930 . S
H783 C741 0.930 . S
H784 C743 0.929 . S
H785 C744 0.930 . S
H786 C745 0.930 . S
H787 C746 0.930 . S
H788 C750 0.925 . S
H789 C752 0.930 . S
H790 C758 0.929 . S
H791 C759 0.930 . S
Li792 N809 1.990 . S
Li792 O852 1.956 . S
Li792 O853 1.970 . S
Li792 O854 1.961 . S
Li793 N817 1.990 1_556 S
Li793 O852 1.970 . S
Li793 O853 1.956 . S
Li793 O855 1.961 . S
Li794 N839 1.990 . S
Li794 O852 1.961 . S
Li794 O854 1.956 . S
Li794 O855 1.970 . S
Li795 N845 1.990 . S
Li795 O853 1.961 . S
Li795 O854 1.970 . S
Li795 O855 1.956 . S
C796 C798 1.348 . S
C796 C799 1.356 . S
C796 O852 1.325 . S
N797 C800 1.314 . S
N797 C801 1.279 . S
C798 C796 1.348 . S
C798 C800 1.353 . S
C798 H856 0.929 . S
C799 C796 1.356 . S
C799 C801 1.358 . S
C799 H857 0.930 . S
C800 N797 1.314 . S
C800 C798 1.353 . S
C800 H858 0.930 1_556 S
C801 N797 1.279 . S
C801 C799 1.358 . S
C801 H859 0.930 . S
C802 C805 1.348 1_556 S
C802 C806 1.356 1_556 S
C802 O853 1.325 . S
C803 N804 1.279 . S
C803 C806 1.358 . S
C803 H860 0.930 . S
N804 C803 1.279 . S
N804 C807 1.314 . S
C805 C802 1.348 1_554 S
C805 C807 1.353 . S
C805 H861 0.929 1_554 S
C806 C802 1.356 1_554 S
C806 C803 1.358 . S
C806 H862 0.930 1_554 S
C807 N804 1.314 . S
C807 C805 1.353 . S
C807 H863 0.930 . S
C808 N809 1.314 . S
C808 C813 1.353 . S
C808 H814 0.930 . S
N809 Li792 1.990 . S
N809 C808 1.314 . S
N809 C811 1.279 . S
C810 C811 1.358 . S
C810 C812 1.356 . S
C810 H864 0.930 . S
C811 N809 1.279 . S
C811 C810 1.358 . S
C811 H815 0.930 . S
C812 C810 1.356 . S
C812 C813 1.348 . S
C813 C808 1.353 . S
C813 C812 1.348 . S
C813 H865 0.929 . S
H814 C808 0.930 . S
H815 C811 0.930 . S
C816 N817 1.314 . S
C816 C818 1.353 . S
C816 H822 0.930 1_554 S
N817 Li793 1.990 1_554 S
N817 C816 1.314 . S
N817 C820 1.279 . S
C818 C816 1.353 . S
C818 C821 1.348 . S
C818 H866 0.929 . S
C819 C820 1.358 . S
C819 C821 1.356 . S
C819 H867 0.930 . S
C820 N817 1.279 . S
C820 C819 1.358 . S
C820 H823 0.930 . S
C821 C818 1.348 . S
C821 C819 1.356 . S
H822 C816 0.930 1_556 S
H823 C820 0.930 . S
C824 C826 1.348 . S
C824 C827 1.356 . S
C824 O854 1.325 . S
N825 C828 1.314 . S
N825 C829 1.279 . S
C826 C824 1.348 . S
C826 C828 1.353 . S
C826 H868 0.929 . S
C827 C824 1.356 . S
C827 C829 1.358 . S
C827 H869 0.930 . S
C828 N825 1.314 . S
C828 C826 1.353 . S
C828 H870 0.930 . S
C829 N825 1.279 . S
C829 C827 1.358 . S
C829 H871 0.930 . S
C830 C831 1.348 . S
C830 C832 1.356 . S
C830 O855 1.325 . S
C831 C830 1.348 . S
C831 C833 1.353 . S
C831 H872 0.929 . S
C832 C830 1.356 . S
C832 C834 1.358 . S
C832 H873 0.930 . S
C833 C831 1.353 . S
C833 N835 1.314 . S
C833 H874 0.930 . S
C834 C832 1.358 . S
C834 N835 1.279 . S
C834 H875 0.930 . S
N835 C833 1.314 . S
N835 C834 1.279 . S
C836 C838 1.353 . S
C836 N839 1.314 . S
C836 H842 0.930 . S
C837 N839 1.279 . S
C837 C840 1.358 . S
C837 H843 0.930 . S
C838 C836 1.353 . S
C838 C841 1.348 . S
C838 H876 0.929 . S
N839 Li794 1.990 . S
N839 C836 1.314 . S
N839 C837 1.279 . S
C840 C837 1.358 . S
C840 C841 1.356 . S
C840 H877 0.930 . S
C841 C838 1.348 . S
C841 C840 1.356 . S
H842 C836 0.930 . S
H843 C837 0.930 . S
C844 N845 1.314 . S
C844 C846 1.353 . S
C844 H850 0.930 . S
N845 Li795 1.990 . S
N845 C844 1.314 . S
N845 C848 1.279 . S
C846 C844 1.353 . S
C846 C849 1.348 . S
C846 H878 0.929 . S
C847 C848 1.358 . S
C847 C849 1.356 . S
C847 H879 0.930 . S
C848 N845 1.279 . S
C848 C847 1.358 . S
C848 H851 0.930 . S
C849 C846 1.348 . S
C849 C847 1.356 . S
H850 C844 0.930 . S
H851 C848 0.930 . S
O852 Li792 1.956 . S
O852 Li793 1.970 . S
O852 Li794 1.961 . S
O852 C796 1.325 . S
O853 Li792 1.970 . S
O853 Li793 1.956 . S
O853 Li795 1.961 . S
O853 C802 1.325 . S
O854 Li792 1.961 . S
O854 Li794 1.956 . S
O854 Li795 1.970 . S
O854 C824 1.325 . S
O855 Li793 1.961 . S
O855 Li794 1.970 . S
O855 Li795 1.956 . S
O855 C830 1.325 . S
H856 C798 0.929 . S
H857 C799 0.930 . S
H858 C800 0.930 1_554 S
H859 C801 0.930 . S
H860 C803 0.930 . S
H861 C805 0.929 1_556 S
H862 C806 0.930 1_556 S
H863 C807 0.930 . S
H864 C810 0.930 . S
H865 C813 0.929 . S
H866 C818 0.929 . S
H867 C819 0.930 . S
H868 C826 0.929 . S
H869 C827 0.930 . S
H870 C828 0.930 . S
H871 C829 0.930 . S
H872 C831 0.929 . S
H873 C832 0.930 . S
H874 C833 0.930 . S
H875 C834 0.930 . S
H876 C838 0.929 . S
H877 C840 0.930 . S
H878 C846 0.929 . S
H879 C847 0.930 . S
Li880 N897 1.990 . S
Li880 O940 1.956 . S
Li880 O941 1.970 . S
Li880 O942 1.961 . S
Li881 N905 1.990 . S
Li881 O940 1.970 . S
Li881 O941 1.956 . S
Li881 O943 1.961 . S
Li882 N927 1.990 1_554 S
Li882 O940 1.961 . S
Li882 O942 1.956 . S
Li882 O943 1.970 . S
Li883 N933 1.990 . S
Li883 O941 1.961 . S
Li883 O942 1.970 . S
Li883 O943 1.956 . S
C884 C886 1.348 . S
C884 C887 1.356 . S
C884 O940 1.325 . S
N885 C888 1.314 . S
N885 C889 1.279 . S
C886 C884 1.348 . S
C886 C888 1.353 . S
C886 H944 0.929 . S
C887 C884 1.356 . S
C887 C889 1.358 . S
C887 H945 0.930 . S
C888 N885 1.314 . S
C888 C886 1.353 . S
C888 H946 0.930 . S
C889 N885 1.279 . S
C889 C887 1.358 . S
C889 H947 0.930 . S
C890 C893 1.348 . S
C890 C894 1.356 . S
C890 O941 1.325 . S
C891 N892 1.279 . S
C891 C894 1.358 . S
C891 H948 0.930 . S
N892 C891 1.279 . S
N892 C895 1.314 . S
C893 C890 1.348 . S
C893 C895 1.353 . S
C893 H949 0.929 . S
C894 C890 1.356 . S
C894 C891 1.358 . S
C894 H950 0.930 . S
C895 N892 1.314 . S
C895 C893 1.353 . S
C895 H951 0.930 . S
C896 N897 1.314 . S
C896 C901 1.353 . S
C896 H902 0.930 . S
N897 Li880 1.990 . S
N897 C896 1.314 . S
N897 C899 1.279 . S
C898 C899 1.358 . S
C898 C900 1.356 . S
C898 H952 0.930 . S
C899 N897 1.279 . S
C899 C898 1.358 . S
C899 H903 0.930 . S
C900 C898 1.356 . S
C900 C901 1.348 . S
C901 C896 1.353 . S
C901 C900 1.348 . S
C901 H953 0.929 . S
H902 C896 0.930 . S
H903 C899 0.930 . S
C904 N905 1.314 . S
C904 C906 1.353 . S
C904 H910 0.930 . S
N905 Li881 1.990 . S
N905 C904 1.314 . S
N905 C908 1.279 . S
C906 C904 1.353 . S
C906 C909 1.348 . S
C906 H954 0.929 . S
C907 C908 1.358 . S
C907 C909 1.356 . S
C907 H955 0.930 . S
C908 N905 1.279 . S
C908 C907 1.358 . S
C908 H911 0.930 . S
C909 C906 1.348 . S
C909 C907 1.356 . S
H910 C904 0.930 . S
H911 C908 0.930 . S
C912 C914 1.348 . S
C912 C915 1.356 . S
C912 O942 1.325 1_556 S
N913 C916 1.314 . S
N913 C917 1.279 . S
C914 C912 1.348 . S
C914 C916 1.353 . S
C914 H956 0.929 . S
C915 C912 1.356 . S
C915 C917 1.358 . S
C915 H957 0.930 . S
C916 N913 1.314 . S
C916 C914 1.353 . S
C916 H958 0.930 . S
C917 N913 1.279 . S
C917 C915 1.358 . S
C917 H959 0.930 . S
C918 C919 1.348 . S
C918 C920 1.356 . S
C918 O943 1.325 . S
C919 C918 1.348 . S
C919 C921 1.353 . S
C919 H960 0.929 1_554 S
C920 C918 1.356 . S
C920 C922 1.358 . S
C920 H961 0.930 . S
C921 C919 1.353 . S
C921 N923 1.314 . S
C921 H962 0.930 1_554 S
C922 C920 1.358 . S
C922 N923 1.279 . S
C922 H963 0.930 . S
N923 C921 1.314 . S
N923 C922 1.279 . S
C924 C926 1.353 . S
C924 N927 1.314 . S
C924 H930 0.930 1_556 S
C925 N927 1.279 . S
C925 C928 1.358 . S
C925 H931 0.930 . S
C926 C924 1.353 . S
C926 C929 1.348 . S
C926 H964 0.924 . S
N927 Li882 1.990 1_556 S
N927 C924 1.314 . S
N927 C925 1.279 . S
C928 C925 1.358 . S
C928 C929 1.356 . S
C928 H965 0.930 . S
C929 C926 1.348 . S
C929 C928 1.356 . S
H930 C924 0.930 1_554 S
H931 C925 0.930 . S
C932 N933 1.314 . S
C932 C934 1.353 . S
C932 H938 0.930 . S
N933 Li883 1.990 . S
N933 C932 1.314 . S
N933 C936 1.279 . S
C934 C932 1.353 . S
C934 C937 1.348 . S
C934 H966 0.929 . S
C935 C936 1.358 . S
C935 C937 1.356 . S
C935 H967 0.930 . S
C936 N933 1.279 . S
C936 C935 1.358 . S
C936 H939 0.930 . S
C937 C934 1.348 . S
C937 C935 1.356 . S
H938 C932 0.930 . S
H939 C936 0.930 . S
O940 Li880 1.956 . S
O940 Li881 1.970 . S
O940 Li882 1.961 . S
O940 C884 1.325 . S
O941 Li880 1.970 . S
O941 Li881 1.956 . S
O941 Li883 1.961 . S
O941 C890 1.325 . S
O942 Li880 1.961 . S
O942 Li882 1.956 . S
O942 Li883 1.970 . S
O942 C912 1.325 1_554 S
O943 Li881 1.961 . S
O943 Li882 1.970 . S
O943 Li883 1.956 . S
O943 C918 1.325 . S
H944 C886 0.929 . S
H945 C887 0.930 . S
H946 C888 0.930 . S
H947 C889 0.930 . S
H948 C891 0.930 . S
H949 C893 0.929 . S
H950 C894 0.930 . S
H951 C895 0.930 . S
H952 C898 0.930 . S
H953 C901 0.929 . S
H954 C906 0.929 . S
H955 C907 0.930 . S
H956 C914 0.929 . S
H957 C915 0.930 . S
H958 C916 0.930 . S
H959 C917 0.930 . S
H960 C919 0.929 1_556 S
H961 C920 0.930 . S
H962 C921 0.930 1_556 S
H963 C922 0.930 . S
H964 C926 0.924 . S
H965 C928 0.930 . S
H966 C934 0.929 . S
H967 C935 0.930 . S
Li968 N985 1.990 . S
Li968 O1028 1.956 . S
Li968 O1029 1.970 . S
Li968 O1030 1.961 . S
Li969 N993 1.990 . S
Li969 O1028 1.970 . S
Li969 O1029 1.956 . S
Li969 O1031 1.961 . S
Li970 N1015 1.990 . S
Li970 O1028 1.961 . S
Li970 O1030 1.956 . S
Li970 O1031 1.970 . S
Li971 N1021 1.990 . S
Li971 O1029 1.961 . S
Li971 O1030 1.970 . S
Li971 O1031 1.956 . S
C972 C974 1.348 . S
C972 C975 1.356 . S
C972 O1028 1.325 . S
N973 C976 1.314 . S
N973 C977 1.279 . S
C974 C972 1.348 . S
C974 C976 1.353 . S
C974 H1032 0.929 . S
C975 C972 1.356 . S
C975 C977 1.358 . S
C975 H1033 0.930 . S
C976 N973 1.314 . S
C976 C974 1.353 . S
C976 H1034 0.930 . S
C977 N973 1.279 . S
C977 C975 1.358 . S
C977 H1035 0.930 . S
C978 C981 1.348 . S
C978 C982 1.356 . S
C978 O1029 1.325 . S
C979 N980 1.279 . S
C979 C982 1.358 . S
C979 H1036 0.930 . S
N980 C979 1.279 . S
N980 C983 1.314 . S
C981 C978 1.348 . S
C981 C983 1.353 . S
C981 H1037 0.929 . S
C982 C978 1.356 . S
C982 C979 1.358 . S
C982 H1038 0.930 . S
C983 N980 1.314 . S
C983 C981 1.353 . S
C983 H1039 0.930 . S
C984 N985 1.314 . S
C984 C989 1.353 . S
C984 H990 0.930 . S
N985 Li968 1.990 . S
N985 C984 1.314 . S
N985 C987 1.279 . S
C986 C987 1.358 . S
C986 C988 1.356 . S
C986 H1040 0.930 . S
C987 N985 1.279 . S
C987 C986 1.358 . S
C987 H991 0.930 . S
C988 C986 1.356 . S
C988 C989 1.348 . S
C989 C984 1.353 . S
C989 C988 1.348 . S
C989 H1041 0.929 . S
H990 C984 0.930 . S
H991 C987 0.930 . S
C992 N993 1.314 . S
C992 C994 1.353 . S
C992 H998 0.930 . S
N993 Li969 1.990 . S
N993 C992 1.314 . S
N993 C996 1.279 . S
C994 C992 1.353 . S
C994 C997 1.348 . S
C994 H1042 0.929 . S
C995 C996 1.358 . S
C995 C997 1.356 . S
C995 H1043 0.930 . S
C996 N993 1.279 . S
C996 C995 1.358 . S
C996 H999 0.930 . S
C997 C994 1.348 . S
C997 C995 1.356 . S
H998 C992 0.930 . S
H999 C996 0.930 . S
C1000 C1002 1.348 . S
C1000 C1003 1.356 . S
C1000 O1030 1.325 . S
N1001 C1004 1.314 . S
N1001 C1005 1.279 . S
C1002 C1000 1.348 . S
C1002 C1004 1.353 . S
C1002 H1044 0.929 . S
C1003 C1000 1.356 . S
C1003 C1005 1.358 . S
C1003 H1045 0.930 . S
C1004 N1001 1.314 . S
C1004 C1002 1.353 . S
C1004 H1046 0.930 . S
C1005 N1001 1.279 . S
C1005 C1003 1.358 . S
C1005 H1047 0.930 . S
C1006 C1007 1.348 . S
C1006 C1008 1.356 . S
C1006 O1031 1.325 . S
C1007 C1006 1.348 . S
C1007 C1009 1.353 . S
C1007 H1048 0.929 . S
C1008 C1006 1.356 . S
C1008 C1010 1.358 . S
C1008 H1049 0.930 . S
C1009 C1007 1.353 . S
C1009 N1011 1.314 . S
C1009 H1050 0.930 . S
C1010 C1008 1.358 . S
C1010 N1011 1.279 . S
C1010 H1051 0.930 . S
N1011 C1009 1.314 . S
N1011 C1010 1.279 . S
C1012 C1014 1.353 . S
C1012 N1015 1.314 . S
C1012 H1018 0.930 . S
C1013 N1015 1.279 . S
C1013 C1016 1.358 . S
C1013 H1019 0.930 . S
C1014 C1012 1.353 . S
C1014 C1017 1.348 . S
C1014 H1052 0.929 . S
N1015 Li970 1.990 . S
N1015 C1012 1.314 . S
N1015 C1013 1.279 . S
C1016 C1013 1.358 . S
C1016 C1017 1.356 . S
C1016 H1053 0.930 . S
C1017 C1014 1.348 . S
C1017 C1016 1.356 . S
H1018 C1012 0.930 . S
H1019 C1013 0.930 . S
C1020 N1021 1.314 . S
C1020 C1022 1.353 . S
C1020 H1026 0.930 . S
N1021 Li971 1.990 . S
N1021 C1020 1.314 . S
N1021 C1024 1.279 . S
C1022 C1020 1.353 . S
C1022 C1025 1.348 . S
C1022 H1054 0.925 . S
C1023 C1024 1.358 . S
C1023 C1025 1.356 . S
C1023 H1055 0.930 . S
C1024 N1021 1.279 . S
C1024 C1023 1.358 . S
C1024 H1027 0.930 . S
C1025 C1022 1.348 . S
C1025 C1023 1.356 . S
H1026 C1020 0.930 . S
H1027 C1024 0.930 . S
O1028 Li968 1.956 . S
O1028 Li969 1.970 . S
O1028 Li970 1.961 . S
O1028 C972 1.325 . S
O1029 Li968 1.970 . S
O1029 Li969 1.956 . S
O1029 Li971 1.961 . S
O1029 C978 1.325 . S
O1030 Li968 1.961 . S
O1030 Li970 1.956 . S
O1030 Li971 1.970 . S
O1030 C1000 1.325 . S
O1031 Li969 1.961 . S
O1031 Li970 1.970 . S
O1031 Li971 1.956 . S
O1031 C1006 1.325 . S
H1032 C974 0.929 . S
H1033 C975 0.930 . S
H1034 C976 0.930 . S
H1035 C977 0.930 . S
H1036 C979 0.930 . S
H1037 C981 0.929 . S
H1038 C982 0.930 . S
H1039 C983 0.930 . S
H1040 C986 0.930 . S
H1041 C989 0.929 . S
H1042 C994 0.929 . S
H1043 C995 0.930 . S
H1044 C1002 0.929 . S
H1045 C1003 0.930 . S
H1046 C1004 0.930 . S
H1047 C1005 0.930 . S
H1048 C1007 0.929 . S
H1049 C1008 0.930 . S
H1050 C1009 0.930 . S
H1051 C1010 0.930 . S
H1052 C1014 0.929 . S
H1053 C1016 0.930 . S
H1054 C1022 0.925 . S
H1055 C1023 0.930 . S
C1056 C1057 1.369 . S
C1056 C1058 1.419 . S
C1056 H1060 0.930 . S
C1057 C1056 1.369 . S
C1057 C1066 1.429 . S
C1058 C1056 1.419 . S
C1058 C1059 1.363 . S
C1058 H1061 0.929 . S
C1059 C1058 1.363 . S
C1059 C1065 1.428 . S
H1060 C1056 0.930 . S
H1061 C1058 0.929 . S
S1062 N1063 1.613 . S
S1062 N1064 1.610 . S
N1063 S1062 1.613 . S
N1063 C1066 1.350 . S
N1064 S1062 1.610 . S
N1064 C1065 1.351 . S
C1065 C1059 1.428 . S
C1065 N1064 1.351 . S
C1065 C1066 1.434 . S
C1066 C1057 1.429 . S
C1066 N1063 1.350 . S
C1066 C1065 1.434 . S
C1067 C1068 1.369 . S
C1067 C1069 1.419 1_455 S
C1067 H1071 0.930 . S
C1068 C1067 1.369 . S
C1068 C1077 1.429 . S
C1069 C1067 1.419 1_655 S
C1069 C1070 1.363 . S
C1069 H1072 0.929 . S
C1070 C1069 1.363 . S
C1070 C1076 1.428 . S
H1071 C1067 0.930 . S
H1072 C1069 0.929 . S
S1073 N1074 1.613 1_655 S
S1073 N1075 1.610 . S
N1074 S1073 1.613 1_455 S
N1074 C1077 1.350 . S
N1075 S1073 1.610 . S
N1075 C1076 1.351 . S
C1076 C1070 1.428 . S
C1076 N1075 1.351 . S
C1076 C1077 1.434 1_655 S
C1077 C1068 1.429 . S
C1077 N1074 1.350 . S
C1077 C1076 1.434 1_455 S
C1078 C1079 1.369 . S
C1078 C1080 1.419 1_565 S
C1078 H1082 0.930 . S
C1079 C1078 1.369 . S
C1079 C1088 1.429 . S
C1080 C1078 1.419 1_545 S
C1080 C1081 1.363 . S
C1080 H1083 0.929 . S
C1081 C1080 1.363 . S
C1081 C1087 1.428 . S
H1082 C1078 0.930 . S
H1083 C1080 0.929 . S
S1084 N1085 1.613 1_545 S
S1084 N1086 1.610 . S
N1085 S1084 1.613 1_565 S
N1085 C1088 1.350 . S
N1086 S1084 1.610 . S
N1086 C1087 1.351 . S
C1087 C1081 1.428 . S
C1087 N1086 1.351 . S
C1087 C1088 1.434 1_545 S
C1088 C1079 1.429 . S
C1088 N1085 1.350 . S
C1088 C1087 1.434 1_565 S
C1089 C1090 1.369 . S
C1089 C1091 1.419 . S
C1089 H1093 0.930 . S
C1090 C1089 1.369 . S
C1090 C1099 1.429 . S
C1091 C1089 1.419 . S
C1091 C1092 1.363 . S
C1091 H1094 0.929 . S
C1092 C1091 1.363 . S
C1092 C1098 1.428 . S
H1093 C1089 0.930 . S
H1094 C1091 0.929 . S
S1095 N1096 1.613 . S
S1095 N1097 1.610 . S
N1096 S1095 1.613 . S
N1096 C1099 1.350 . S
N1097 S1095 1.610 . S
N1097 C1098 1.351 . S
C1098 C1092 1.428 . S
C1098 N1097 1.351 . S
C1098 C1099 1.434 . S
C1099 C1090 1.429 . S
C1099 N1096 1.350 . S
C1099 C1098 1.434 . S
C1100 C1101 1.369 . S
C1100 C1102 1.419 1_455 S
C1100 H1104 0.930 . S
C1101 C1100 1.369 . S
C1101 C1110 1.429 . S
C1102 C1100 1.419 1_655 S
C1102 C1103 1.363 . S
C1102 H1105 0.929 . S
C1103 C1102 1.363 . S
C1103 C1109 1.428 . S
H1104 C1100 0.930 . S
H1105 C1102 0.929 . S
S1106 N1107 1.613 . S
S1106 N1108 1.610 1_455 S
N1107 S1106 1.613 . S
N1107 C1110 1.350 . S
N1108 S1106 1.610 1_655 S
N1108 C1109 1.351 . S
C1109 C1103 1.428 . S
C1109 N1108 1.351 . S
C1109 C1110 1.434 1_655 S
C1110 C1101 1.429 . S
C1110 N1107 1.350 . S
C1110 C1109 1.434 1_455 S
C1111 C1112 1.369 . S
C1111 C1113 1.419 1_546 S
C1111 H1115 0.930 . S
C1112 C1111 1.369 . S
C1112 C1121 1.429 . S
C1113 C1111 1.419 1_564 S
C1113 C1114 1.363 . S
C1113 H1116 0.929 . S
C1114 C1113 1.363 . S
C1114 C1120 1.428 . S
H1115 C1111 0.930 . S
H1116 C1113 0.929 . S
S1117 N1118 1.613 1_565 S
S1117 N1119 1.610 1_556 S
N1118 S1117 1.613 1_545 S
N1118 C1121 1.350 . S
N1119 S1117 1.610 1_554 S
N1119 C1120 1.351 . S
C1120 C1114 1.428 . S
C1120 N1119 1.351 . S
C1120 C1121 1.434 1_564 S
C1121 C1112 1.429 . S
C1121 N1118 1.350 . S
C1121 C1120 1.434 1_546 S
C1122 C1123 1.369 . S
C1122 C1124 1.419 . S
C1122 H1126 0.930 . S
C1123 C1122 1.369 . S
C1123 C1132 1.429 . S
C1124 C1122 1.419 . S
C1124 C1125 1.363 . S
C1124 H1127 0.929 . S
C1125 C1124 1.363 . S
C1125 C1131 1.428 . S
H1126 C1122 0.930 . S
H1127 C1124 0.929 . S
S1128 N1129 1.613 . S
S1128 N1130 1.610 . S
N1129 S1128 1.613 . S
N1129 C1132 1.350 . S
N1130 S1128 1.610 . S
N1130 C1131 1.351 . S
C1131 C1125 1.428 . S
C1131 N1130 1.351 . S
C1131 C1132 1.434 . S
C1132 C1123 1.429 . S
C1132 N1129 1.350 . S
C1132 C1131 1.434 . S
C1133 C1134 1.369 . S
C1133 C1135 1.419 . S
C1133 H1137 0.930 . S
C1134 C1133 1.369 . S
C1134 C1143 1.429 . S
C1135 C1133 1.419 . S
C1135 C1136 1.363 . S
C1135 H1138 0.929 . S
C1136 C1135 1.363 . S
C1136 C1142 1.428 . S
H1137 C1133 0.930 . S
H1138 C1135 0.929 . S
S1139 N1140 1.613 . S
S1139 N1141 1.610 . S
N1140 S1139 1.613 . S
N1140 C1143 1.350 . S
N1141 S1139 1.610 . S
N1141 C1142 1.351 . S
C1142 C1136 1.428 . S
C1142 N1141 1.351 . S
C1142 C1143 1.434 . S
C1143 C1134 1.429 . S
C1143 N1140 1.350 . S
C1143 C1142 1.434 . S
C1144 C1145 1.369 . S
C1144 C1146 1.419 . S
C1144 H1148 0.930 . S
C1145 C1144 1.369 . S
C1145 C1154 1.429 . S
C1146 C1144 1.419 . S
C1146 C1147 1.363 . S
C1146 H1149 0.929 . S
C1147 C1146 1.363 . S
C1147 C1153 1.428 . S
H1148 C1144 0.930 . S
H1149 C1146 0.929 . S
S1150 N1151 1.613 . S
S1150 N1152 1.610 . S
N1151 S1150 1.613 . S
N1151 C1154 1.350 . S
N1152 S1150 1.610 . S
N1152 C1153 1.351 . S
C1153 C1147 1.428 . S
C1153 N1152 1.351 . S
C1153 C1154 1.434 . S
C1154 C1145 1.429 . S
C1154 N1151 1.350 . S
C1154 C1153 1.434 . S
C1155 C1156 1.369 . S
C1155 C1157 1.419 . S
C1155 H1159 0.930 . S
C1156 C1155 1.369 . S
C1156 C1165 1.429 . S
C1157 C1155 1.419 . S
C1157 C1158 1.363 . S
C1157 H1160 0.929 . S
C1158 C1157 1.363 . S
C1158 C1164 1.428 . S
H1159 C1155 0.930 . S
H1160 C1157 0.929 . S
S1161 N1162 1.613 . S
S1161 N1163 1.610 . S
N1162 S1161 1.613 . S
N1162 C1165 1.350 . S
N1163 S1161 1.610 . S
N1163 C1164 1.351 . S
C1164 C1158 1.428 . S
C1164 N1163 1.351 . S
C1164 C1165 1.434 . S
C1165 C1156 1.429 . S
C1165 N1162 1.350 . S
C1165 C1164 1.434 . S
C1166 C1167 1.369 . S
C1166 C1168 1.419 . S
C1166 H1170 0.930 . S
C1167 C1166 1.369 . S
C1167 C1176 1.429 . S
C1168 C1166 1.419 . S
C1168 C1169 1.363 . S
C1168 H1171 0.929 . S
C1169 C1168 1.363 . S
C1169 C1175 1.428 . S
H1170 C1166 0.930 . S
H1171 C1168 0.929 . S
S1172 N1173 1.613 1_556 S
S1172 N1174 1.610 1_556 S
N1173 S1172 1.613 1_554 S
N1173 C1176 1.350 . S
N1174 S1172 1.610 1_554 S
N1174 C1175 1.351 . S
C1175 C1169 1.428 . S
C1175 N1174 1.351 . S
C1175 C1176 1.434 . S
C1176 C1167 1.429 . S
C1176 N1173 1.350 . S
C1176 C1175 1.434 . S
C1177 C1178 1.369 . S
C1177 C1179 1.419 . S
C1177 H1181 0.930 . S
C1178 C1177 1.369 . S
C1178 C1187 1.429 . S
C1179 C1177 1.419 . S
C1179 C1180 1.363 . S
C1179 H1182 0.929 . S
C1180 C1179 1.363 . S
C1180 C1186 1.428 . S
H1181 C1177 0.930 . S
H1182 C1179 0.929 . S
S1183 N1184 1.613 . S
S1183 N1185 1.610 . S
N1184 S1183 1.613 . S
N1184 C1187 1.350 . S
N1185 S1183 1.610 . S
N1185 C1186 1.351 . S
C1186 C1180 1.428 . S
C1186 N1185 1.351 . S
C1186 C1187 1.434 . S
C1187 C1178 1.429 . S
C1187 N1184 1.350 . S
C1187 C1186 1.434 . S
C1188 C1189 1.369 . S
C1188 C1190 1.419 . S
C1188 H1192 0.930 . S
C1189 C1188 1.369 . S
C1189 C1198 1.429 . S
C1190 C1188 1.419 . S
C1190 C1191 1.363 . S
C1190 H1193 0.929 . S
C1191 C1190 1.363 . S
C1191 C1197 1.428 . S
H1192 C1188 0.930 . S
H1193 C1190 0.929 . S
S1194 N1195 1.613 . S
S1194 N1196 1.610 . S
N1195 S1194 1.613 . S
N1195 C1198 1.350 . S
N1196 S1194 1.610 . S
N1196 C1197 1.351 . S
C1197 C1191 1.428 . S
C1197 N1196 1.351 . S
C1197 C1198 1.434 . S
C1198 C1189 1.429 . S
C1198 N1195 1.350 . S
C1198 C1197 1.434 . S
C1199 C1200 1.369 . S
C1199 C1201 1.419 . S
C1199 H1203 0.930 . S
C1200 C1199 1.369 . S
C1200 C1209 1.429 1_655 S
C1201 C1199 1.419 . S
C1201 C1202 1.363 1_655 S
C1201 H1204 0.929 . S
C1202 C1201 1.363 1_455 S
C1202 C1208 1.428 . S
H1203 C1199 0.930 . S
H1204 C1201 0.929 . S
S1205 N1206 1.613 . S
S1205 N1207 1.610 . S
N1206 S1205 1.613 . S
N1206 C1209 1.350 . S
N1207 S1205 1.610 . S
N1207 C1208 1.351 . S
C1208 C1202 1.428 . S
C1208 N1207 1.351 . S
C1208 C1209 1.434 . S
C1209 C1200 1.429 1_455 S
C1209 N1206 1.350 . S
C1209 C1208 1.434 . S
C1210 C1211 1.369 . S
C1210 C1212 1.419 1_554 S
C1210 H1214 0.930 . S
C1211 C1210 1.369 . S
C1211 C1220 1.429 1_565 S
C1212 C1210 1.419 1_556 S
C1212 C1213 1.363 1_565 S
C1212 H1215 0.929 . S
C1213 C1212 1.363 1_545 S
C1213 C1219 1.428 . S
H1214 C1210 0.930 . S
H1215 C1212 0.929 . S
S1216 N1217 1.613 . S
S1216 N1218 1.610 . S
N1217 S1216 1.613 . S
N1217 C1220 1.350 . S
N1218 S1216 1.610 . S
N1218 C1219 1.351 1_554 S
C1219 C1213 1.428 . S
C1219 N1218 1.351 1_556 S
C1219 C1220 1.434 1_556 S
C1220 C1211 1.429 1_545 S
C1220 N1217 1.350 . S
C1220 C1219 1.434 1_554 S
C1221 C1222 1.369 . S
C1221 C1223 1.419 . S
C1221 H1225 0.930 . S
C1222 C1221 1.369 . S
C1222 C1231 1.429 . S
C1223 C1221 1.419 . S
C1223 C1224 1.363 . S
C1223 H1226 0.929 . S
C1224 C1223 1.363 . S
C1224 C1230 1.428 . S
H1225 C1221 0.930 . S
H1226 C1223 0.929 . S
S1227 N1228 1.613 . S
S1227 N1229 1.610 . S
N1228 S1227 1.613 . S
N1228 C1231 1.350 . S
N1229 S1227 1.610 . S
N1229 C1230 1.351 . S
C1230 C1224 1.428 . S
C1230 N1229 1.351 . S
C1230 C1231 1.434 . S
C1231 C1222 1.429 . S
C1231 N1228 1.350 . S
C1231 C1230 1.434 . S
C1232 C1233 1.369 . S
C1232 C1234 1.419 . S
C1232 H1236 0.930 . S
C1233 C1232 1.369 . S
C1233 C1242 1.429 1_455 S
C1234 C1232 1.419 . S
C1234 C1235 1.363 1_455 S
C1234 H1237 0.929 . S
C1235 C1234 1.363 1_655 S
C1235 C1241 1.428 . S
H1236 C1232 0.930 . S
H1237 C1234 0.929 . S
S1238 N1239 1.613 . S
S1238 N1240 1.610 . S
N1239 S1238 1.613 . S
N1239 C1242 1.350 . S
N1240 S1238 1.610 . S
N1240 C1241 1.351 . S
C1241 C1235 1.428 . S
C1241 N1240 1.351 . S
C1241 C1242 1.434 . S
C1242 C1233 1.429 1_655 S
C1242 N1239 1.350 . S
C1242 C1241 1.434 . S
C1243 C1244 1.369 . S
C1243 C1245 1.419 1_565 S
C1243 H1247 0.930 . S
C1244 C1243 1.369 . S
C1244 C1253 1.429 . S
C1245 C1243 1.419 1_545 S
C1245 C1246 1.363 . S
C1245 H1248 0.929 . S
C1246 C1245 1.363 . S
C1246 C1252 1.428 . S
H1247 C1243 0.930 . S
H1248 C1245 0.929 . S
S1249 N1250 1.613 . S
S1249 N1251 1.610 1_565 S
N1250 S1249 1.613 . S
N1250 C1253 1.350 . S
N1251 S1249 1.610 1_545 S
N1251 C1252 1.351 . S
C1252 C1246 1.428 . S
C1252 N1251 1.351 . S
C1252 C1253 1.434 1_545 S
C1253 C1244 1.429 . S
C1253 N1250 1.350 . S
C1253 C1252 1.434 1_565 S
C1254 C1255 1.369 . S
C1254 C1256 1.419 . S
C1254 H1258 0.930 . S
C1255 C1254 1.369 . S
C1255 C1264 1.429 . S
C1256 C1254 1.419 . S
C1256 C1257 1.363 . S
C1256 H1259 0.929 . S
C1257 C1256 1.363 . S
C1257 C1263 1.428 . S
H1258 C1254 0.930 . S
H1259 C1256 0.929 . S
S1260 N1261 1.613 . S
S1260 N1262 1.610 . S
N1261 S1260 1.613 . S
N1261 C1264 1.350 . S
N1262 S1260 1.610 . S
N1262 C1263 1.351 . S
C1263 C1257 1.428 . S
C1263 N1262 1.351 . S
C1263 C1264 1.434 . S
C1264 C1255 1.429 . S
C1264 N1261 1.350 . S
C1264 C1263 1.434 . S
C1265 C1266 1.369 . S
C1265 C1267 1.419 . S
C1265 H1269 0.930 . S
C1266 C1265 1.369 . S
C1266 C1275 1.429 . S
C1267 C1265 1.419 . S
C1267 C1268 1.363 . S
C1267 H1270 0.929 . S
C1268 C1267 1.363 . S
C1268 C1274 1.428 . S
H1269 C1265 0.930 . S
H1270 C1267 0.929 . S
S1271 N1272 1.613 . S
S1271 N1273 1.610 . S
N1272 S1271 1.613 . S
N1272 C1275 1.350 . S
N1273 S1271 1.610 . S
N1273 C1274 1.351 . S
C1274 C1268 1.428 . S
C1274 N1273 1.351 . S
C1274 C1275 1.434 . S
C1275 C1266 1.429 . S
C1275 N1272 1.350 . S
C1275 C1274 1.434 . S
C1276 C1277 1.369 . S
C1276 C1278 1.419 . S
C1276 H1280 0.930 . S
C1277 C1276 1.369 . S
C1277 C1286 1.429 . S
C1278 C1276 1.419 . S
C1278 C1279 1.363 . S
C1278 H1281 0.929 . S
C1279 C1278 1.363 . S
C1279 C1285 1.428 . S
H1280 C1276 0.930 . S
H1281 C1278 0.929 . S
S1282 N1283 1.613 . S
S1282 N1284 1.610 . S
N1283 S1282 1.613 . S
N1283 C1286 1.350 . S
N1284 S1282 1.610 . S
N1284 C1285 1.351 . S
C1285 C1279 1.428 . S
C1285 N1284 1.351 . S
C1285 C1286 1.434 . S
C1286 C1277 1.429 . S
C1286 N1283 1.350 . S
C1286 C1285 1.434 . S
C1287 C1288 1.369 . S
C1287 C1289 1.419 . S
C1287 H1291 0.930 . S
C1288 C1287 1.369 . S
C1288 C1297 1.429 . S
C1289 C1287 1.419 . S
C1289 C1290 1.363 . S
C1289 H1292 0.929 . S
C1290 C1289 1.363 . S
C1290 C1296 1.428 . S
H1291 C1287 0.930 . S
H1292 C1289 0.929 . S
S1293 N1294 1.613 . S
S1293 N1295 1.610 . S
N1294 S1293 1.613 . S
N1294 C1297 1.350 . S
N1295 S1293 1.610 . S
N1295 C1296 1.351 . S
C1296 C1290 1.428 . S
C1296 N1295 1.351 . S
C1296 C1297 1.434 . S
C1297 C1288 1.429 . S
C1297 N1294 1.350 . S
C1297 C1296 1.434 . S
C1298 C1299 1.369 . S
C1298 C1300 1.419 . S
C1298 H1302 0.930 . S
C1299 C1298 1.369 . S
C1299 C1308 1.429 . S
C1300 C1298 1.419 . S
C1300 C1301 1.363 . S
C1300 H1303 0.929 . S
C1301 C1300 1.363 . S
C1301 C1307 1.428 . S
H1302 C1298 0.930 . S
H1303 C1300 0.929 . S
S1304 N1305 1.613 . S
S1304 N1306 1.610 . S
N1305 S1304 1.613 . S
N1305 C1308 1.350 . S
N1306 S1304 1.610 . S
N1306 C1307 1.351 . S
C1307 C1301 1.428 . S
C1307 N1306 1.351 . S
C1307 C1308 1.434 . S
C1308 C1299 1.429 . S
C1308 N1305 1.350 . S
C1308 C1307 1.434 . S
C1309 C1310 1.369 . S
C1309 C1311 1.419 . S
C1309 H1313 0.930 . S
C1310 C1309 1.369 . S
C1310 C1319 1.429 . S
C1311 C1309 1.419 . S
C1311 C1312 1.363 . S
C1311 H1314 0.929 . S
C1312 C1311 1.363 . S
C1312 C1318 1.428 . S
H1313 C1309 0.930 . S
H1314 C1311 0.929 . S
S1315 N1316 1.613 . S
S1315 N1317 1.610 . S
N1316 S1315 1.613 . S
N1316 C1319 1.350 . S
N1317 S1315 1.610 . S
N1317 C1318 1.351 . S
C1318 C1312 1.428 . S
C1318 N1317 1.351 . S
C1318 C1319 1.434 . S
C1319 C1310 1.429 . S
C1319 N1316 1.350 . S
C1319 C1318 1.434 . S
C1057 C821 1.888 . S
C1059 C57 1.891 . S
C1068 C137 1.887 . S
C1070 C909 1.891 . S
C1079 C988 1.883 . S
C1081 C225 1.891 . S
C1090 C548 1.889 . S
C1092 C321 1.884 . S
C1101 C636 1.892 . S
C1103 C409 1.885 . S
C1112 C733 1.891 . S
C1114 C497 1.889 . S
C1123 C557 1.563 . S
C1125 C49 1.563 . S
C1134 C145 1.566 . S
C1136 C645 1.564 . S
C1145 C724 1.563 . S
C1147 C233 1.563 . S
C1156 C313 1.566 . S
C1158 C812 1.565 . S
C1167 C900 1.563 . S
C1169 C401 1.564 . S
C1178 C489 1.564 . S
C1180 C997 1.563 . S
C1189 C841 0.663 . S
C1191 C20 0.658 . S
C1200 C929 0.657 . S
C1202 C117 0.655 . S
C1211 C1025 0.662 . S
C1213 C205 0.657 . S
C1222 C284 0.658 . S
C1224 C585 0.655 . S
C1233 C673 0.661 . S
C1235 C372 0.656 . S
C1244 C460 0.653 . S
C1246 C753 0.657 . S
C1255 C29 2.000 . S
C1257 C761 2.010 . S
C1266 C849 2.008 . S
C1268 C108 2.004 . S
C1277 C937 2.009 1_556 S
C1279 C196 2.004 . S
C1288 C1017 2.011 . S
C1290 C293 2.001 1_554 S
C1299 C577 2.006 . S
C1301 C381 2.004 . S
C1310 C665 2.001 . S
C1312 C469 2.009 . S
