# Generated by pormake.
# Topology fna, (5)-cn, num edge types: 1
# Building blocks:
#     Node 0, Type 0, BuildingBlock: BEQFEK_clean_sbu_0, # of connection points: 5
#     Node 1, Type 0, BuildingBlock: BEQFEK_clean_sbu_0, # of connection points: 5
#     Node 2, Type 0, BuildingBlock: BEQFEK_clean_sbu_0, # of connection points: 5
#     Node 3, Type 0, BuildingBlock: BEQFEK_clean_sbu_0, # of connection points: 5
#     Node 4, Type 0, BuildingBlock: BEQFEK_clean_sbu_0, # of connection points: 5
#     Node 5, Type 0, BuildingBlock: BEQFEK_clean_sbu_0, # of connection points: 5
#     Node 6, Type 0, BuildingBlock: BEQFEK_clean_sbu_0, # of connection points: 5
#     Node 7, Type 0, BuildingBlock: BEQFEK_clean_sbu_0, # of connection points: 5
#     Node 8, Type 0, BuildingBlock: BEQFEK_clean_sbu_0, # of connection points: 5
#     Node 9, Type 0, BuildingBlock: BEQFEK_clean_sbu_0, # of connection points: 5
#     Node 10, Type 0, BuildingBlock: BEQFEK_clean_sbu_0, # of connection points: 5
#     Node 11, Type 0, BuildingBlock: BEQFEK_clean_sbu_0, # of connection points: 5
#     Edge 12, Type (0, 0), BuildingBlock: XIVTED_clean_linker_0, # of connection points: 2
#     Edge 13, Type (0, 0), BuildingBlock: XIVTED_clean_linker_0, # of connection points: 2
#     Edge 14, Type (0, 0), BuildingBlock: XIVTED_clean_linker_0, # of connection points: 2
#     Edge 15, Type (0, 0), BuildingBlock: XIVTED_clean_linker_0, # of connection points: 2
#     Edge 16, Type (0, 0), BuildingBlock: XIVTED_clean_linker_0, # of connection points: 2
#     Edge 17, Type (0, 0), BuildingBlock: XIVTED_clean_linker_0, # of connection points: 2
#     Edge 18, Type (0, 0), BuildingBlock: XIVTED_clean_linker_0, # of connection points: 2
#     Edge 19, Type (0, 0), BuildingBlock: XIVTED_clean_linker_0, # of connection points: 2
#     Edge 20, Type (0, 0), BuildingBlock: XIVTED_clean_linker_0, # of connection points: 2
#     Edge 21, Type (0, 0), BuildingBlock: XIVTED_clean_linker_0, # of connection points: 2
#     Edge 22, Type (0, 0), BuildingBlock: XIVTED_clean_linker_0, # of connection points: 2
#     Edge 23, Type (0, 0), BuildingBlock: XIVTED_clean_linker_0, # of connection points: 2
#     Edge 24, Type (0, 0), BuildingBlock: XIVTED_clean_linker_0, # of connection points: 2
#     Edge 25, Type (0, 0), BuildingBlock: XIVTED_clean_linker_0, # of connection points: 2
#     Edge 26, Type (0, 0), BuildingBlock: XIVTED_clean_linker_0, # of connection points: 2
#     Edge 27, Type (0, 0), BuildingBlock: XIVTED_clean_linker_0, # of connection points: 2
#     Edge 28, Type (0, 0), BuildingBlock: XIVTED_clean_linker_0, # of connection points: 2
#     Edge 29, Type (0, 0), BuildingBlock: XIVTED_clean_linker_0, # of connection points: 2
#     Edge 30, Type (0, 0), BuildingBlock: XIVTED_clean_linker_0, # of connection points: 2
#     Edge 31, Type (0, 0), BuildingBlock: XIVTED_clean_linker_0, # of connection points: 2
#     Edge 32, Type (0, 0), BuildingBlock: XIVTED_clean_linker_0, # of connection points: 2
#     Edge 33, Type (0, 0), BuildingBlock: XIVTED_clean_linker_0, # of connection points: 2
#     Edge 34, Type (0, 0), BuildingBlock: XIVTED_clean_linker_0, # of connection points: 2
#     Edge 35, Type (0, 0), BuildingBlock: XIVTED_clean_linker_0, # of connection points: 2
#     Edge 36, Type (0, 0), BuildingBlock: XIVTED_clean_linker_0, # of connection points: 2
#     Edge 37, Type (0, 0), BuildingBlock: XIVTED_clean_linker_0, # of connection points: 2
#     Edge 38, Type (0, 0), BuildingBlock: XIVTED_clean_linker_0, # of connection points: 2
#     Edge 39, Type (0, 0), BuildingBlock: XIVTED_clean_linker_0, # of connection points: 2
#     Edge 40, Type (0, 0), BuildingBlock: XIVTED_clean_linker_0, # of connection points: 2
#     Edge 41, Type (0, 0), BuildingBlock: XIVTED_clean_linker_0, # of connection points: 2
# Relax obj value: 0.680
# Max RMSD: 0.271
# Mean RMSD: 0.271
data_MOF--net-fna--node1-BEQFEK_clean_sbu_0--edge1-XIVTED_clean_linker_0
_symmetry_space_group_name_H-M    P1
_symmetry_Int_Tables_number       1
_symmetry_cell_setting            triclinic
loop_
_symmetry_equiv_pos_as_xyz
'x, y, z'
_cell_length_a     44.755177
_cell_length_b     44.724566
_cell_length_c     40.721182
_cell_angle_alpha  89.872887
_cell_angle_beta   90.069139
_cell_angle_gamma 120.00886
loop_
_atom_site_label
_atom_site_type_symbol
_atom_site_fract_x
_atom_site_fract_y
_atom_site_fract_z
_atom_type_partial_charge
Co0 Co 0.34507 0.35724 0.48718 0.0
Co1 Co 0.33502 0.31397 0.42388 0.0
C2 C 0.4016 0.37908 0.43808 0.0
O3 O 0.38899 0.38247 0.46474 0.0
O4 O 0.38361 0.35428 0.41835 0.0
C5 C 0.37633 0.40549 0.54077 0.0
O6 O 0.40089 0.42543 0.5202 0.0
C7 C 0.34315 0.27352 0.36985 0.0
C8 C 0.2885 0.23464 0.36102 0.0
C9 C 0.32177 0.24432 0.35128 0.0
N10 N 0.32328 0.28015 0.38995 0.0
N11 N 0.29066 0.25703 0.38417 0.0
C12 C 0.38155 0.29569 0.36774 0.0
H13 H 0.38901 0.32325 0.36962 0.0
H14 H 0.39357 0.28946 0.38854 0.0
H15 H 0.39155 0.29179 0.34419 0.0
C16 C 0.33048 0.29236 0.51909 0.0
N17 N 0.33361 0.31083 0.49191 0.0
N18 N 0.33123 0.2926 0.46573 0.0
C19 C 0.32702 0.26183 0.47561 0.0
C20 C 0.32657 0.26076 0.50986 0.0
C21 C 0.33035 0.30463 0.55325 0.0
H22 H 0.31382 0.31657 0.5541 0.0
H23 H 0.357 0.3245 0.56016 0.0
H24 H 0.32039 0.28319 0.57132 0.0
O25 O 0.30868 0.36105 0.46501 0.0
O26 O 0.29872 0.32812 0.42109 0.0
H27 H 0.30102 0.22228 0.43982 0.0
H28 H 0.32983 0.21566 0.46604 0.0
C29 C 0.32621 0.2353 0.45275 0.0
H30 H 0.3468 0.24807 0.43405 0.0
H31 H 0.26984 0.25609 0.39661 0.0
O32 O 0.35094 0.37734 0.53079 0.0
C33 C 0.29176 0.3472 0.43901 0.0
Co34 Co 0.00183 0.35776 0.65017 0.0
Co35 Co 0.02392 0.34035 0.58385 0.0
C36 C 0.03015 0.40978 0.59722 0.0
O37 O 0.01847 0.40018 0.62598 0.0
O38 O 0.03278 0.38926 0.5772 0.0
C39 C 0.9997 0.3946 0.70735 0.0
O40 O 0.0155 0.42272 0.68942 0.0
C41 C 0.07287 0.34668 0.53244 0.0
C42 C 0.04298 0.29743 0.50579 0.0
C43 C 0.07489 0.32748 0.50642 0.0
N44 N 0.04147 0.32863 0.54625 0.0
N45 N 0.02361 0.29941 0.52997 0.0
C46 C 0.10064 0.38032 0.54588 0.0
H47 H 0.09388 0.38462 0.57097 0.0
H48 H 0.12568 0.38083 0.54651 0.0
H49 H 0.10336 0.40166 0.52989 0.0
C50 C 0.0533 0.34187 0.67652 0.0
N51 N 0.03575 0.34473 0.65105 0.0
N52 N 0.04586 0.33714 0.62352 0.0
C53 C 0.07017 0.32862 0.63097 0.0
C54 C 0.07559 0.33135 0.66479 0.0
C55 C 0.05059 0.35187 0.71101 0.0
H56 H 0.02441 0.33392 0.72068 0.0
H57 H 0.05427 0.3783 0.71102 0.0
H58 H 0.07012 0.35154 0.72751 0.0
O59 O 0.95857 0.32074 0.63253 0.0
O60 O 0.97326 0.30516 0.58641 0.0
H61 H 0.06868 0.30161 0.58689 0.0
H62 H 0.09636 0.30069 0.61886 0.0
C63 C 0.08703 0.31673 0.60669 0.0
H64 H 0.10957 0.33954 0.59571 0.0
H65 H 0.99843 0.28047 0.53581 0.0
O66 O 0.99175 0.36555 0.69491 0.0
C67 C 0.95061 0.30125 0.60759 0.0
Co68 Co 0.64017 0.99834 0.82228 0.0
Co69 Co 0.68488 0.02841 0.75901 0.0
C70 C 0.61961 0.03027 0.7689 0.0
O71 O 0.61589 0.01559 0.7964 0.0
O72 O 0.64477 0.03636 0.75002 0.0
C73 C 0.60772 0.00696 0.87678 0.0
O74 O 0.61659 0.03615 0.86155 0.0
C75 C 0.72715 0.07799 0.70673 0.0
C76 C 0.76454 0.06071 0.69612 0.0
C77 C 0.75626 0.08582 0.68809 0.0
N78 N 0.71922 0.05005 0.72534 0.0
N79 N 0.74142 0.03962 0.71847 0.0
C80 C 0.70621 0.09564 0.70603 0.0
H81 H 0.67848 0.07609 0.70399 0.0
H82 H 0.71001 0.10993 0.72933 0.0
H83 H 0.71313 0.11356 0.68489 0.0
C84 C 0.70483 0.04905 0.85437 0.0
N85 N 0.68646 0.03318 0.82736 0.0
N86 N 0.70532 0.04764 0.80103 0.0
C87 C 0.73638 0.07383 0.81071 0.0
C88 C 0.7369 0.07563 0.84488 0.0
C89 C 0.69246 0.03818 0.88884 0.0
H90 H 0.67771 0.05074 0.89684 0.0
H91 H 0.71449 0.04606 0.90592 0.0
H92 H 0.67547 0.00978 0.89017 0.0
O93 O 0.63718 0.95728 0.80296 0.0
O94 O 0.67061 0.97764 0.75883 0.0
H95 H 0.78564 0.11964 0.80085 0.0
H96 H 0.75304 0.10821 0.76959 0.0
C97 C 0.76408 0.09783 0.78766 0.0
H98 H 0.77416 0.08331 0.77399 0.0
H99 H 0.74133 0.0186 0.72974 0.0
O100 O 0.61602 0.98607 0.86445 0.0
C101 C 0.65122 0.95265 0.77789 0.0
Co102 Co 0.65331 0.64312 0.982 0.0
Co103 Co 0.66307 0.68626 0.91825 0.0
C104 C 0.59816 0.61999 0.93044 0.0
O105 O 0.61139 0.61716 0.95692 0.0
O106 O 0.61506 0.6456 0.91122 0.0
C107 C 0.61351 0.61156 0.03712 0.0
O108 O 0.593 0.6199 0.02149 0.0
C109 C 0.65451 0.72776 0.86557 0.0
C110 C 0.70899 0.76671 0.85609 0.0
C111 C 0.67553 0.75752 0.84748 0.0
N112 N 0.67475 0.7204 0.88446 0.0
N113 N 0.70727 0.74351 0.87821 0.0
C114 C 0.61603 0.70589 0.86427 0.0
H115 H 0.60849 0.67824 0.86415 0.0
H116 H 0.60468 0.71072 0.88643 0.0
H117 H 0.60536 0.71132 0.8419 0.0
C118 C 0.66631 0.7078 0.01351 0.0
N119 N 0.66322 0.68906 0.98661 0.0
N120 N 0.66528 0.70696 0.96015 0.0
C121 C 0.66898 0.7376 0.9696 0.0
C122 C 0.66958 0.739 0.00378 0.0
C123 C 0.66766 0.69667 0.04792 0.0
H124 H 0.67984 0.68035 0.04836 0.0
H125 H 0.64105 0.68153 0.05774 0.0
H126 H 0.68253 0.71937 0.06408 0.0
O127 O 0.69159 0.64136 0.96171 0.0
O128 O 0.70022 0.673 0.91679 0.0
H129 H 0.69426 0.7764 0.93285 0.0
H130 H 0.66632 0.78383 0.95944 0.0
C131 C 0.66944 0.76382 0.94641 0.0
H132 H 0.64829 0.75081 0.92832 0.0
H133 H 0.72832 0.74405 0.88985 0.0
O134 O 0.64266 0.61975 0.02472 0.0
C135 C 0.70823 0.65512 0.9355 0.0
Co136 Co 0.00103 0.65026 0.14513 0.0
Co137 Co 0.97896 0.66602 0.07779 0.0
C138 C 0.97186 0.59665 0.0938 0.0
O139 O 0.9838 0.60707 0.12233 0.0
O140 O 0.96941 0.61671 0.07294 0.0
C141 C 0.00459 0.61521 0.20332 0.0
O142 O 0.99178 0.58717 0.18531 0.0
C143 C 0.92994 0.65871 0.02598 0.0
C144 C 0.95951 0.7077 -0.0013 0.0
C145 C 0.92766 0.6776 -0.00027 0.0
N146 N 0.96142 0.67699 0.03958 0.0
N147 N 0.97911 0.70602 0.0229 0.0
C148 C 0.90226 0.62525 0.03993 0.0
H149 H 0.90915 0.62134 0.06514 0.0
H150 H 0.8772 0.6247 0.04043 0.0
H151 H 0.89948 0.6037 0.02434 0.0
C152 C 0.9496 0.66678 0.16992 0.0
N153 N 0.96743 0.6637 0.1449 0.0
N154 N 0.95734 0.67063 0.11695 0.0
C155 C 0.93281 0.67902 0.12366 0.0
C156 C 0.92718 0.67683 0.15743 0.0
C157 C 0.95178 0.65687 0.20464 0.0
H158 H 0.97766 0.67514 0.21472 0.0
H159 H 0.94854 0.63062 0.205 0.0
H160 H 0.93175 0.65683 0.22063 0.0
O161 O 0.04441 0.68634 0.12676 0.0
O162 O 0.02978 0.7008 0.07982 0.0
H163 H 0.93383 0.70467 0.07865 0.0
H164 H 0.90602 0.70603 0.11015 0.0
C165 C 0.91561 0.68992 0.09869 0.0
H166 H 0.89318 0.66667 0.08821 0.0
H167 H 0.00427 0.72512 0.02856 0.0
O168 O 0.01077 0.64363 0.19046 0.0
C169 C 0.05245 0.70504 0.10117 0.0
Co170 Co 0.3558 0.00892 0.31817 0.0
Co171 Co 0.31368 0.97779 0.25374 0.0
C172 C 0.3804 0.97942 0.26626 0.0
O173 O 0.38263 0.99424 0.29331 0.0
O174 O 0.355 0.97124 0.24691 0.0
C175 C 0.39126 0.00528 0.3741 0.0
O176 O 0.3927 0.98113 0.35708 0.0
C177 C 0.27384 0.92821 0.20054 0.0
C178 C 0.23605 0.94462 0.18848 0.0
C179 C 0.24521 0.92007 0.18098 0.0
N180 N 0.28065 0.95579 0.21912 0.0
N181 N 0.25822 0.9657 0.21139 0.0
C182 C 0.2953 0.91111 0.20082 0.0
H183 H 0.323 0.93101 0.20053 0.0
H184 H 0.29015 0.89577 0.22369 0.0
H185 H 0.28996 0.89419 0.17916 0.0
C186 C 0.29107 0.95646 0.34857 0.0
N187 N 0.30996 0.97271 0.32189 0.0
N188 N 0.29209 0.95795 0.29519 0.0
C189 C 0.26112 0.93113 0.30426 0.0
C190 C 0.25962 0.92923 0.33847 0.0
C191 C 0.30237 0.96789 0.38315 0.0
H192 H 0.31682 0.99648 0.38443 0.0
H193 H 0.31956 0.9581 0.39135 0.0
H194 H 0.28 0.95797 0.40009 0.0
O195 O 0.35792 0.04924 0.29838 0.0
O196 O 0.32671 0.02835 0.25299 0.0
H197 H 0.22363 0.92056 0.26688 0.0
H198 H 0.21333 0.88409 0.29331 0.0
C199 C 0.23449 0.90675 0.28063 0.0
H200 H 0.24676 0.89764 0.26269 0.0
H201 H 0.25748 0.98635 0.22245 0.0
O202 O 0.3771 0.02116 0.36158 0.0
C203 C 0.34477 0.05345 0.2724 0.0
Co204 Co 0.64578 0.63623 0.32921 0.0
Co205 Co 0.68909 0.65368 0.39376 0.0
C206 C 0.62468 0.5857 0.38447 0.0
O207 O 0.62154 0.59536 0.35608 0.0
O208 O 0.64923 0.60578 0.4035 0.0
C209 C 0.61729 0.59385 0.27458 0.0
O210 O 0.62715 0.57497 0.29103 0.0
C211 C 0.73051 0.6503 0.44927 0.0
C212 C 0.76763 0.70572 0.45673 0.0
C213 C 0.75933 0.67307 0.46754 0.0
N214 N 0.72279 0.66875 0.42825 0.0
N215 N 0.7448 0.70186 0.43325 0.0
C216 C 0.70975 0.61181 0.45235 0.0
H217 H 0.6819 0.60335 0.45212 0.0
H218 H 0.71518 0.59983 0.43105 0.0
H219 H 0.71553 0.60265 0.47553 0.0
C220 C 0.71214 0.65294 0.29936 0.0
N221 N 0.69253 0.64909 0.32577 0.0
N222 N 0.71079 0.65429 0.35268 0.0
C223 C 0.74267 0.66075 0.34404 0.0
C224 C 0.74444 0.6599 0.30988 0.0
C225 C 0.70102 0.65267 0.2646 0.0
H226 H 0.68274 0.66255 0.26334 0.0
H227 H 0.68808 0.62585 0.25512 0.0
H228 H 0.72351 0.66889 0.24862 0.0
O229 O 0.64107 0.67412 0.34652 0.0
O230 O 0.67348 0.68896 0.39151 0.0
H231 H 0.7811 0.69206 0.37914 0.0
H232 H 0.79125 0.66378 0.35611 0.0
C233 C 0.7702 0.66604 0.36805 0.0
H234 H 0.75888 0.64664 0.388 0.0
H235 H 0.74481 0.72183 0.41993 0.0
O236 O 0.62306 0.62251 0.28641 0.0
C237 C 0.65414 0.69346 0.37142 0.0
Co238 Co 0.0046 0.65746 0.50298 0.0
Co239 Co 0.03016 0.69302 0.57102 0.0
C240 C 0.03181 0.62836 0.55176 0.0
O241 O 0.01993 0.6287 0.5236 0.0
O242 O 0.03622 0.65086 0.57344 0.0
C243 C 0.98651 0.61361 0.44616 0.0
O244 O 0.9847 0.58961 0.46607 0.0
C245 C 0.08006 0.73036 0.62451 0.0
C246 C 0.05839 0.76115 0.64503 0.0
C247 C 0.08639 0.756 0.64744 0.0
N248 N 0.05031 0.72171 0.60885 0.0
N249 N 0.03722 0.73977 0.6217 0.0
C250 C 0.10112 0.71346 0.61806 0.0
H251 H 0.08406 0.68578 0.61244 0.0
H252 H 0.11798 0.72575 0.59645 0.0
H253 H 0.11724 0.71564 0.63965 0.0
C254 C 0.05823 0.72498 0.479 0.0
N255 N 0.04015 0.7037 0.50379 0.0
N256 N 0.05191 0.7195 0.53204 0.0
C257 C 0.078 0.75191 0.52587 0.0
C258 C 0.08266 0.7564 0.49201 0.0
C259 C 0.05407 0.7141 0.44374 0.0
H260 H 0.0289 0.7099 0.43461 0.0
H261 H 0.0541 0.68939 0.44176 0.0
H262 H 0.07502 0.73351 0.428 0.0
O263 O 0.96278 0.65155 0.52337 0.0
O264 O 0.97981 0.67949 0.57078 0.0
H265 H 0.07942 0.77923 0.56948 0.0
H266 H 0.1138 0.80435 0.54075 0.0
C267 C 0.09765 0.77833 0.55166 0.0
H268 H 0.11457 0.77097 0.56507 0.0
H269 H 0.01447 0.73849 0.61365 0.0
O270 O 0.99338 0.64277 0.45751 0.0
C271 C 0.95622 0.66203 0.54986 0.0
Co272 Co 0.3495 0.00926 0.67281 0.0
Co273 Co 0.33887 0.03291 0.74145 0.0
C274 C 0.40588 0.03654 0.72127 0.0
O275 O 0.39382 0.02518 0.69298 0.0
O276 O 0.38748 0.03992 0.74334 0.0
C277 C 0.37518 0.99166 0.61586 0.0
O278 O 0.39631 0.98826 0.63591 0.0
C279 C 0.35086 0.08228 0.795 0.0
C280 C 0.29854 0.05974 0.81612 0.0
C281 C 0.33141 0.08828 0.81803 0.0
N282 N 0.33006 0.05222 0.7797 0.0
N283 N 0.29902 0.03859 0.79294 0.0
C284 C 0.38866 0.10399 0.78801 0.0
H285 H 0.39982 0.08731 0.78286 0.0
H286 H 0.39256 0.12013 0.76594 0.0
H287 H 0.40259 0.12085 0.80916 0.0
C288 C 0.33408 0.0622 0.65008 0.0
N289 N 0.33784 0.04404 0.67445 0.0
N290 N 0.3334 0.05498 0.70299 0.0
C291 C 0.3262 0.08059 0.69741 0.0
C292 C 0.32622 0.08577 0.66365 0.0
C293 C 0.34089 0.05889 0.61465 0.0
H294 H 0.36573 0.05921 0.61233 0.0
H295 H 0.34227 0.0801 0.59941 0.0
H296 H 0.32001 0.03385 0.60521 0.0
O297 O 0.31425 0.9667 0.69286 0.0
O298 O 0.30292 0.9822 0.74087 0.0
H299 H 0.30793 0.11482 0.71309 0.0
H300 H 0.34276 0.11663 0.73698 0.0
C301 C 0.31863 0.09923 0.72361 0.0
H302 H 0.29991 0.08038 0.74136 0.0
H303 H 0.27775 0.01554 0.78515 0.0
O304 O 0.35331 0.9991 0.62718 0.0
C305 C 0.29726 0.95916 0.71947 0.0
Co306 Co 0.35062 0.358 0.83709 0.0
Co307 Co 0.30878 0.34342 0.90224 0.0
C308 C 0.37263 0.41158 0.88886 0.0
O309 O 0.37525 0.401 0.86077 0.0
O310 O 0.34897 0.3919 0.90894 0.0
C311 C 0.39391 0.39436 0.78161 0.0
O312 O 0.4097 0.42124 0.80104 0.0
C313 C 0.26863 0.35023 0.95693 0.0
C314 C 0.23193 0.29534 0.96767 0.0
C315 C 0.24026 0.32857 0.97631 0.0
N316 N 0.27604 0.33057 0.93736 0.0
N317 N 0.2543 0.29782 0.94432 0.0
C318 C 0.28924 0.38885 0.95763 0.0
H319 H 0.28287 0.39938 0.93571 0.0
H320 H 0.28418 0.39937 0.98025 0.0
H321 H 0.31712 0.39748 0.95675 0.0
C322 C 0.28441 0.34185 0.80793 0.0
N323 N 0.30383 0.34495 0.83429 0.0
N324 N 0.28599 0.34064 0.86127 0.0
C325 C 0.25441 0.3352 0.85272 0.0
C326 C 0.25251 0.33601 0.81853 0.0
C327 C 0.29607 0.34336 0.77319 0.0
H328 H 0.3147 0.37055 0.7666 0.0
H329 H 0.27413 0.33287 0.75571 0.0
H330 H 0.30928 0.32808 0.77089 0.0
O331 O 0.35652 0.32194 0.8573 0.0
O332 O 0.32443 0.30813 0.90236 0.0
H333 H 0.21742 0.30683 0.89004 0.0
H334 H 0.20612 0.33292 0.86463 0.0
C335 C 0.22769 0.33178 0.87683 0.0
H336 H 0.2397 0.3528 0.89518 0.0
H337 H 0.25411 0.27709 0.9324 0.0
O338 O 0.36992 0.36592 0.79285 0.0
C339 C 0.34409 0.30354 0.88287 0.0
Co340 Co 0.99464 0.34694 0.0063 0.0
Co341 Co 0.9697 0.31183 0.07461 0.0
C342 C 0.96741 0.37611 0.05453 0.0
O343 O 0.97932 0.37567 0.02646 0.0
O344 O 0.96322 0.35383 0.07648 0.0
C345 C 0.01361 0.39118 0.94979 0.0
O346 O 0.01694 0.41544 0.97009 0.0
C347 C 0.91795 0.27321 0.12581 0.0
C348 C 0.94035 0.24447 0.1496 0.0
C349 C 0.91112 0.24771 0.14913 0.0
N350 N 0.94916 0.28353 0.11257 0.0
N351 N 0.96269 0.26677 0.12742 0.0
C352 C 0.89582 0.28829 0.11656 0.0
H353 H 0.88208 0.2766 0.09328 0.0
H354 H 0.87678 0.28387 0.1361 0.0
H355 H 0.9121 0.31644 0.11247 0.0
C356 C 0.94028 0.2796 0.98293 0.0
N357 N 0.959 0.3008 0.00747 0.0
N358 N 0.94811 0.28486 0.03583 0.0
C359 C 0.92238 0.25222 0.02992 0.0
C360 C 0.91664 0.24789 -0.00383 0.0
C361 C 0.94277 0.29095 0.94791 0.0
H362 H 0.94461 0.3166 0.94695 0.0
H363 H 0.92008 0.27267 0.93321 0.0
H364 H 0.96646 0.29328 0.9368 0.0
O365 O 0.03657 0.35293 0.02682 0.0
O366 O 0.02006 0.32564 0.07468 0.0
H367 H 0.89138 0.19892 0.04487 0.0
H368 H 0.88468 0.22934 0.06796 0.0
C369 C 0.90441 0.22518 0.05573 0.0
H370 H 0.92321 0.22691 0.07441 0.0
H371 H 0.98651 0.26935 0.12131 0.0
O372 O 0.00571 0.36156 0.96078 0.0
C373 C 0.04344 0.34289 0.05349 0.0
Co374 Co 0.638 0.98725 0.16645 0.0
Co375 Co 0.65615 0.96615 0.23347 0.0
C376 C 0.58743 0.96045 0.22115 0.0
O377 O 0.59665 0.97121 0.19214 0.0
O378 O 0.60808 0.95819 0.24125 0.0
C379 C 0.59541 0.97376 0.1116 0.0
O380 O 0.57495 0.94596 0.12865 0.0
C381 C 0.64928 0.91857 0.28672 0.0
C382 C 0.70337 0.93998 0.30261 0.0
C383 C 0.6704 0.91219 0.30722 0.0
N384 N 0.66906 0.94804 0.27009 0.0
N385 N 0.70125 0.96111 0.28028 0.0
C386 C 0.61084 0.89766 0.28329 0.0
H387 H 0.60415 0.88443 0.25915 0.0
H388 H 0.59895 0.87846 0.30335 0.0
H389 H 0.5998 0.91495 0.28415 0.0
C390 C 0.65589 0.93673 0.1408 0.0
N391 N 0.65172 0.9539 0.16581 0.0
N392 N 0.65813 0.94348 0.19386 0.0
C393 C 0.66616 0.91867 0.18735 0.0
C394 C 0.6651 0.91375 0.15356 0.0
C395 C 0.64904 0.94091 0.10555 0.0
H396 H 0.66048 0.96871 0.09959 0.0
H397 H 0.62078 0.92805 0.10162 0.0
H398 H 0.65951 0.92917 0.08852 0.0
O399 O 0.67513 0.03095 0.18325 0.0
O400 O 0.69079 0.01703 0.23005 0.0
H401 H 0.69683 0.9201 0.22827 0.0
H402 H 0.68432 0.88374 0.20136 0.0
C403 C 0.67572 0.90069 0.21273 0.0
H404 H 0.65312 0.88484 0.22863 0.0
H405 H 0.72204 0.98361 0.27083 0.0
O406 O 0.62507 0.99513 0.12277 0.0
C407 C 0.69446 0.03937 0.20844 0.0
H408 H 0.36269 0.15584 0.67071 0.0
H409 H 0.28015 0.19124 0.51026 0.0
H410 H 0.28082 0.07488 0.61433 0.0
H411 H 0.37035 0.26964 0.56014 0.0
H412 H 0.27705 0.1484 0.55008 0.0
H413 H 0.36168 0.19872 0.63372 0.0
C414 C 0.34404 0.14723 0.6509 0.0
C415 C 0.32185 0.11196 0.64539 0.0
C416 C 0.29752 0.17499 0.55232 0.0
C417 C 0.32091 0.1605 0.60264 0.0
C418 C 0.2994 0.1993 0.52947 0.0
C419 C 0.32543 0.23393 0.53209 0.0
C420 C 0.32183 0.18549 0.57794 0.0
C421 C 0.34962 0.24322 0.55755 0.0
C422 C 0.34368 0.1716 0.62958 0.0
C423 C 0.2984 0.10195 0.61922 0.0
N424 N 0.34718 0.21921 0.57952 0.0
N425 N 0.29867 0.12607 0.59865 0.0
H426 H 0.14528 0.36505 0.65629 0.0
H427 H 0.18351 0.28722 0.81827 0.0
H428 H 0.06426 0.28976 0.71791 0.0
H429 H 0.25873 0.38108 0.77056 0.0
H430 H 0.13964 0.2831 0.77913 0.0
H431 H 0.18815 0.36516 0.69396 0.0
C432 C 0.13662 0.34809 0.67748 0.0
C433 C 0.10139 0.32748 0.68422 0.0
C434 C 0.16575 0.30462 0.77732 0.0
C435 C 0.14996 0.32774 0.72761 0.0
C436 C 0.19063 0.30709 0.79977 0.0
C437 C 0.22472 0.33442 0.79746 0.0
C438 C 0.17524 0.32953 0.75232 0.0
C439 C 0.2328 0.35935 0.77288 0.0
C440 C 0.16099 0.34839 0.69915 0.0
C441 C 0.09133 0.30612 0.71208 0.0
N442 N 0.20835 0.35619 0.75116 0.0
N443 N 0.1155 0.30689 0.7329 0.0
H444 H 0.72798 0.115 0.88985 0.0
H445 H 0.84752 0.21193 0.00919 0.0
H446 H 0.80552 0.09515 0.8501 0.0
H447 H 0.92381 0.21651 0.94174 0.0
H448 H 0.80217 0.16829 0.97457 0.0
H449 H 0.76964 0.15441 0.92957 0.0
C450 C 0.75389 0.11888 0.88975 0.0
C451 C 0.76335 0.10171 0.86693 0.0
C452 C 0.82872 0.17905 0.96693 0.0
C453 C 0.81122 0.14599 0.91321 0.0
C454 C 0.85465 0.20347 0.98715 0.0
C455 C 0.88931 0.21806 0.97802 0.0
C456 C 0.83759 0.16947 0.93715 0.0
C457 C 0.89724 0.2062 0.94927 0.0
C458 C 0.77764 0.14108 0.91276 0.0
C459 C 0.79734 0.10806 0.86731 0.0
N460 N 0.87158 0.18278 0.92971 0.0
N461 N 0.82011 0.12972 0.89016 0.0
H462 H 0.71485 0.80881 0.00316 0.0
H463 H 0.62772 0.84388 0.15965 0.0
H464 H 0.62593 0.72964 0.05413 0.0
H465 H 0.71168 0.92499 0.10518 0.0
H466 H 0.63002 0.80109 0.12383 0.0
H467 H 0.71644 0.85179 0.0417 0.0
C468 C 0.69558 0.8006 0.02236 0.0
C469 C 0.67027 0.76576 0.0256 0.0
C470 C 0.64812 0.82823 0.11977 0.0
C471 C 0.67214 0.81434 0.06993 0.0
C472 C 0.64694 0.85253 0.14036 0.0
C473 C 0.66937 0.88779 0.13504 0.0
C474 C 0.67195 0.83938 0.09371 0.0
C475 C 0.69376 0.89791 0.10974 0.0
C476 C 0.6966 0.825 0.04446 0.0
C477 C 0.64611 0.75624 0.05106 0.0
N478 N 0.69428 0.87382 0.08981 0.0
N479 N 0.64765 0.78036 0.07225 0.0
H480 H 0.85773 0.64119 0.14754 0.0
H481 H 0.81277 0.71077 0.31099 0.0
H482 H 0.93601 0.71782 0.21028 0.0
H483 H 0.74064 0.61798 0.25996 0.0
H484 H 0.85787 0.71842 0.27177 0.0
H485 H 0.81329 0.63857 0.18451 0.0
C486 C 0.86544 0.65796 0.16879 0.0
C487 C 0.90038 0.67962 0.17609 0.0
C488 C 0.83215 0.69639 0.26923 0.0
C489 C 0.85001 0.67642 0.21877 0.0
C490 C 0.80658 0.69187 0.29174 0.0
C491 C 0.773 0.66377 0.28858 0.0
C492 C 0.82388 0.67274 0.24333 0.0
C493 C 0.76611 0.64027 0.26297 0.0
C494 C 0.84017 0.65622 0.19008 0.0
C495 C 0.9092 0.70067 0.20403 0.0
N496 N 0.79123 0.64535 0.24128 0.0
N497 N 0.88418 0.69841 0.22453 0.0
H498 H 0.19037 0.90755 0.33862 0.0
H499 H 0.15266 0.78839 0.49861 0.0
H500 H 0.26721 0.89261 0.38788 0.0
H501 H 0.07256 0.79105 0.44217 0.0
H502 H 0.19589 0.83149 0.46139 0.0
H503 H 0.14702 0.86791 0.37808 0.0
C504 C 0.19796 0.89561 0.35755 0.0
C505 C 0.2323 0.90327 0.36009 0.0
C506 C 0.16888 0.8229 0.45726 0.0
C507 C 0.18333 0.85868 0.40561 0.0
C508 C 0.14432 0.79862 0.47871 0.0
C509 C 0.10918 0.78628 0.47327 0.0
C510 C 0.15813 0.8349 0.43028 0.0
C511 C 0.09953 0.79997 0.44698 0.0
C512 C 0.17337 0.87327 0.38021 0.0
C513 C 0.24101 0.88757 0.3853 0.0
N514 N 0.12384 0.8234 0.42631 0.0
N515 N 0.21676 0.86614 0.40712 0.0
H516 H 0.28479 0.20509 0.29902 0.0
H517 H 0.4001 0.11581 0.28627 0.0
H518 H 0.37754 0.23416 0.35451 0.0
H519 H 0.29564 0.06832 0.25027 0.0
H520 H 0.39924 0.16914 0.29597 0.0
H521 H 0.29475 0.16389 0.26807 0.0
C522 C 0.30771 0.20348 0.30415 0.0
C523 C 0.33069 0.22368 0.32907 0.0
C524 C 0.37671 0.14735 0.2853 0.0
C525 C 0.34213 0.1766 0.29381 0.0
C526 C 0.37728 0.11699 0.27952 0.0
C527 C 0.34772 0.08755 0.26789 0.0
C528 C 0.34617 0.14818 0.27989 0.0
C529 C 0.31892 0.09048 0.25934 0.0
C530 C 0.31334 0.17999 0.28645 0.0
C531 C 0.35975 0.22027 0.33485 0.0
N532 N 0.31856 0.12011 0.26621 0.0
N533 N 0.36448 0.19706 0.31752 0.0
H534 H 0.23023 0.29775 0.41321 0.0
H535 H 0.13124 0.3898 0.4867 0.0
H536 H 0.28126 0.40059 0.45366 0.0
H537 H 0.08672 0.27943 0.47767 0.0
H538 H 0.18326 0.39778 0.45938 0.0
H539 H 0.1746 0.29534 0.41999 0.0
C540 C 0.22983 0.32026 0.42241 0.0
C541 C 0.26026 0.34924 0.43331 0.0
C542 C 0.16195 0.37184 0.46325 0.0
C543 C 0.19698 0.3465 0.44149 0.0
C544 C 0.13238 0.3672 0.47939 0.0
C545 C 0.10509 0.3338 0.48611 0.0
C546 C 0.16402 0.34291 0.45322 0.0
C547 C 0.10736 0.30567 0.47375 0.0
C548 C 0.19809 0.31873 0.42661 0.0
C549 C 0.25828 0.37759 0.44534 0.0
N550 N 0.13646 0.31083 0.4583 0.0
N551 N 0.22714 0.37536 0.44952 0.0
H552 H 0.79324 0.08993 0.63326 0.0
H553 H 0.89217 0.29593 0.63335 0.0
H554 H 0.77126 0.1526 0.69817 0.0
H555 H 0.92938 0.23713 0.58125 0.0
H556 H 0.83877 0.24268 0.64551 0.0
H557 H 0.83523 0.14245 0.60422 0.0
C558 C 0.79664 0.11463 0.64092 0.0
C559 C 0.77806 0.11673 0.66772 0.0
C560 C 0.8583 0.24136 0.63094 0.0
C561 C 0.82612 0.17681 0.63482 0.0
C562 C 0.88874 0.27181 0.62381 0.0
C563 C 0.91545 0.27087 0.60669 0.0
C564 C 0.8546 0.20958 0.62127 0.0
C565 C 0.90947 0.23896 0.59463 0.0
C566 C 0.82057 0.14454 0.62433 0.0
C567 C 0.78383 0.14941 0.6769 0.0
N568 N 0.87989 0.2094 0.60272 0.0
N569 N 0.80741 0.17808 0.66059 0.0
H570 H 0.59731 0.89083 0.79659 0.0
H571 H 0.71042 0.79845 0.79518 0.0
H572 H 0.69827 0.93646 0.7524 0.0
H573 H 0.62094 0.76876 0.85596 0.0
H574 H 0.69983 0.84124 0.76789 0.0
H575 H 0.59828 0.83738 0.805 0.0
C576 C 0.61939 0.8893 0.78795 0.0
C577 C 0.64799 0.91828 0.77425 0.0
C578 C 0.68207 0.82471 0.78665 0.0
C579 C 0.64964 0.85732 0.78455 0.0
C580 C 0.68806 0.80029 0.80223 0.0
C581 C 0.66613 0.77937 0.82748 0.0
C582 C 0.65403 0.82836 0.79652 0.0
C583 C 0.63782 0.78317 0.83587 0.0
C584 C 0.62002 0.85882 0.79294 0.0
C585 C 0.67575 0.91474 0.76318 0.0
N586 N 0.63275 0.80728 0.82057 0.0
N587 N 0.67621 0.88498 0.76918 0.0
H588 H 0.7693 0.70535 0.90945 0.0
H589 H 0.87144 0.61513 0.98053 0.0
H590 H 0.72012 0.60272 0.95066 0.0
H591 H 0.91489 0.72539 0.97151 0.0
H592 H 0.81871 0.6067 0.95427 0.0
H593 H 0.82546 0.70864 0.9155 0.0
C594 C 0.77022 0.68309 0.91871 0.0
C595 C 0.74017 0.65388 0.92997 0.0
C596 C 0.83994 0.63272 0.9579 0.0
C597 C 0.80401 0.65758 0.93724 0.0
C598 C 0.86992 0.63761 0.97341 0.0
C599 C 0.89712 0.67109 0.97983 0.0
C600 C 0.83735 0.6615 0.94822 0.0
C601 C 0.89434 0.69909 0.96777 0.0
C602 C 0.80225 0.68511 0.92247 0.0
C603 C 0.74279 0.62587 0.94207 0.0
N604 N 0.86483 0.69369 0.95295 0.0
N605 N 0.77419 0.62855 0.94575 0.0
H606 H 0.20917 0.91586 0.12539 0.0
H607 H 0.11082 0.7101 0.12691 0.0
H608 H 0.2315 0.85359 0.19086 0.0
H609 H 0.07407 0.76874 0.07347 0.0
H610 H 0.16448 0.76329 0.13845 0.0
H611 H 0.16803 0.86332 0.09604 0.0
C612 C 0.20605 0.89126 0.1331 0.0
C613 C 0.2244 0.88928 0.16023 0.0
C614 C 0.145 0.76458 0.1237 0.0
C615 C 0.17726 0.82914 0.12698 0.0
C616 C 0.11442 0.73416 0.11692 0.0
C617 C 0.08776 0.7351 0.09965 0.0
C618 C 0.14886 0.79633 0.11353 0.0
C619 C 0.09394 0.76691 0.087 0.0
C620 C 0.1826 0.86134 0.11634 0.0
C621 C 0.21906 0.85671 0.16942 0.0
N622 N 0.12363 0.79645 0.09478 0.0
N623 N 0.19587 0.828 0.15296 0.0
H624 H 0.8963 0.60516 0.53296 0.0
H625 H 0.79712 0.71115 0.52008 0.0
H626 H 0.93678 0.70747 0.57276 0.0
H627 H 0.77358 0.62011 0.46418 0.0
H628 H 0.83973 0.70366 0.55159 0.0
H629 H 0.84156 0.60277 0.52218 0.0
C630 C 0.89325 0.62677 0.54029 0.0
C631 C 0.92113 0.65672 0.55338 0.0
C632 C 0.82452 0.68486 0.533 0.0
C633 C 0.85895 0.65468 0.54007 0.0
C634 C 0.80024 0.6891 0.515 0.0
C635 C 0.78111 0.66579 0.48989 0.0
C636 C 0.8298 0.65719 0.52569 0.0
C637 C 0.78653 0.63797 0.48406 0.0
C638 C 0.8621 0.62552 0.53389 0.0
C639 C 0.91585 0.68393 0.56258 0.0
N640 N 0.81044 0.6346 0.50168 0.0
N641 N 0.88553 0.68261 0.55506 0.0
H642 H 0.23423 0.93642 0.74912 0.0
H643 H 0.15385 0.77571 0.63232 0.0
H644 H 0.29393 0.90101 0.69595 0.0
H645 H 0.09184 0.7903 0.70463 0.0
H646 H 0.20537 0.81793 0.66031 0.0
H647 H 0.18221 0.88021 0.73941 0.0
C648 C 0.23657 0.91645 0.73638 0.0
C649 C 0.26822 0.92348 0.72279 0.0
C650 C 0.18055 0.8114 0.67065 0.0
C651 C 0.20912 0.85976 0.71108 0.0
C652 C 0.15082 0.78664 0.65483 0.0
C653 C 0.11814 0.77844 0.66657 0.0
C654 C 0.17786 0.82918 0.69785 0.0
C655 C 0.1165 0.79565 0.6948 0.0
C656 C 0.20687 0.88448 0.73063 0.0
C657 C 0.26986 0.89682 0.70632 0.0
N658 N 0.14593 0.82055 0.70924 0.0
N659 N 0.24068 0.86642 0.70045 0.0
H660 H 0.39958 0.29943 0.86254 0.0
H661 H 0.30299 0.09393 0.87544 0.0
H662 H 0.30134 0.24013 0.9111 0.0
H663 H 0.37749 0.15583 0.80135 0.0
H664 H 0.31142 0.14717 0.90133 0.0
H665 H 0.40232 0.24684 0.85503 0.0
C666 C 0.37891 0.27538 0.87231 0.0
C667 C 0.34987 0.27399 0.88691 0.0
C668 C 0.32653 0.1489 0.87991 0.0
C669 C 0.35257 0.21355 0.8778 0.0
C670 C 0.32179 0.11862 0.8651 0.0
C671 C 0.34022 0.12021 0.83657 0.0
C672 C 0.34996 0.18098 0.86612 0.0
C673 C 0.36383 0.15292 0.82402 0.0
C674 C 0.38043 0.24535 0.86786 0.0
C675 C 0.32408 0.24224 0.89952 0.0
N676 N 0.36791 0.18187 0.83883 0.0
N677 N 0.32568 0.21301 0.89409 0.0
H678 H 0.10297 0.3988 0.03382 0.0
H679 H 0.2033 0.29355 0.03049 0.0
H680 H 0.0636 0.29897 0.07939 0.0
H681 H 0.22573 0.38112 0.96914 0.0
H682 H 0.16078 0.30245 0.06036 0.0
H683 H 0.15774 0.40099 0.02407 0.0
C684 C 0.10625 0.37771 0.04256 0.0
C685 C 0.07865 0.34845 0.057 0.0
C686 C 0.17573 0.32021 0.04091 0.0
C687 C 0.14092 0.35025 0.04499 0.0
C688 C 0.19996 0.31518 0.02385 0.0
C689 C 0.21873 0.33706 -0.00232 0.0
C690 C 0.17012 0.34724 0.03159 0.0
C691 C 0.21306 0.36438 0.98986 0.0
C692 C 0.13744 0.37885 0.03678 0.0
C693 C 0.08428 0.32195 0.06809 0.0
N694 N 0.18918 0.36853 0.0066 0.0
N695 N 0.11463 0.32311 0.06119 0.0
H696 H 0.69891 0.09598 0.17895 0.0
H697 H 0.90191 0.21389 0.20753 0.0
H698 H 0.75655 0.06443 0.24091 0.0
H699 H 0.84497 0.22333 0.12643 0.0
H700 H 0.84754 0.16725 0.23006 0.0
H701 H 0.75064 0.1519 0.17129 0.0
C702 C 0.72238 0.10103 0.1914 0.0
C703 C 0.72359 0.07525 0.2101 0.0
C704 C 0.84703 0.18024 0.20777 0.0
C705 C 0.78318 0.13927 0.20101 0.0
C706 C 0.87796 0.20685 0.1949 0.0
C707 C 0.87808 0.22335 0.16543 0.0
C708 C 0.81601 0.17009 0.191 0.0
C709 C 0.84635 0.21277 0.14987 0.0
C710 C 0.75196 0.13297 0.18692 0.0
C711 C 0.75458 0.0835 0.22611 0.0
N712 N 0.81674 0.18684 0.16279 0.0
N713 N 0.78342 0.11469 0.22074 0.0
H714 H 0.70041 0.90533 0.3632 0.0
H715 H 0.60068 0.69973 0.34816 0.0
H716 H 0.62448 0.84543 0.28957 0.0
H717 H 0.69748 0.75658 0.39968 0.0
H718 H 0.59966 0.75315 0.34004 0.0
H719 H 0.69163 0.85131 0.38802 0.0
C720 C 0.68128 0.88088 0.35277 0.0
C721 C 0.66233 0.87998 0.32487 0.0
C722 C 0.62091 0.75395 0.35355 0.0
C723 C 0.65229 0.81841 0.35299 0.0
C724 C 0.62144 0.72343 0.35834 0.0
C725 C 0.64953 0.72385 0.37409 0.0
C726 C 0.64883 0.78531 0.36429 0.0
C727 C 0.67544 0.75521 0.38721 0.0
C728 C 0.67633 0.85017 0.36692 0.0
C729 C 0.63843 0.84764 0.31195 0.0
N730 N 0.67483 0.78493 0.38147 0.0
N731 N 0.63415 0.81828 0.3261 0.0
H732 H 0.45002 0.42185 0.48184 0.0
H733 H 0.58865 0.5307 0.34465 0.0
H734 H 0.43691 0.39438 0.37914 0.0
H735 H 0.60007 0.56061 0.44657 0.0
H736 H 0.53783 0.47597 0.35846 0.0
H737 H 0.50854 0.46768 0.47074 0.0
C738 C 0.45944 0.42542 0.45684 0.0
C739 C 0.43815 0.40466 0.43119 0.0
C740 C 0.55157 0.49422 0.37794 0.0
C741 C 0.50568 0.45729 0.41842 0.0
C742 C 0.58066 0.52553 0.37011 0.0
C743 C 0.59825 0.5505 0.39448 0.0
C744 C 0.53964 0.48778 0.41039 0.0
C745 C 0.58712 0.54216 0.42705 0.0
C746 C 0.49305 0.45157 0.45061 0.0
C747 C 0.45224 0.40999 0.39956 0.0
N748 N 0.55811 0.51163 0.43401 0.0
N749 N 0.48504 0.4361 0.39399 0.0
H750 H 0.03231 0.43673 0.53561 0.0
H751 H 0.04778 0.60923 0.6109 0.0
H752 H 0.0506 0.46433 0.63811 0.0
H753 H 0.0343 0.58404 0.50761 0.0
H754 H 0.05538 0.55929 0.62065 0.0
H755 H 0.04002 0.49404 0.52365 0.0
C756 C 0.03845 0.45498 0.55546 0.0
C757 C 0.04005 0.44552 0.58794 0.0
C758 C 0.05102 0.56493 0.59581 0.0
C759 C 0.04859 0.51073 0.5747 0.0
C760 C 0.04669 0.59344 0.5903 0.0
C761 C 0.03976 0.60052 0.55855 0.0
C762 C 0.04836 0.54344 0.56938 0.0
C763 C 0.03891 0.57928 0.53266 0.0
C764 C 0.04268 0.48761 0.54873 0.0
C765 C 0.04821 0.47021 0.61279 0.0
N766 N 0.04281 0.55161 0.53869 0.0
N767 N 0.05178 0.50145 0.60573 0.0
H768 H 0.58393 0.04688 0.81145 0.0
H769 H 0.45414 0.04384 0.67636 0.0
H770 H 0.59706 0.03783 0.70769 0.0
H771 H 0.43959 0.04788 0.78074 0.0
H772 H 0.51055 0.05027 0.68668 0.0
H773 H 0.53614 0.05627 0.79973 0.0
C774 C 0.57686 0.04708 0.78606 0.0
C775 C 0.59411 0.04086 0.76049 0.0
C776 C 0.49523 0.05005 0.70734 0.0
C777 C 0.53889 0.0515 0.7469 0.0
C778 C 0.46287 0.0463 0.70154 0.0
C779 C 0.44171 0.04467 0.72784 0.0
C780 C 0.50669 0.05212 0.73969 0.0
C781 C 0.45483 0.04868 0.75978 0.0
C782 C 0.54951 0.05253 0.77942 0.0
C783 C 0.58428 0.04224 0.72811 0.0
N784 N 0.48635 0.05182 0.76482 0.0
N785 N 0.55689 0.04692 0.72222 0.0
H786 H 0.55919 0.60813 0.87388 0.0
H787 H 0.39837 0.43816 0.95 0.0
H788 H 0.55371 0.57146 0.97318 0.0
H789 H 0.40746 0.46573 0.84743 0.0
H790 H 0.45045 0.49369 0.96116 0.0
H791 H 0.49925 0.56169 0.86539 0.0
C792 C 0.54546 0.59053 0.89385 0.0
C793 C 0.56178 0.59343 0.92404 0.0
C794 C 0.44077 0.48773 0.93624 0.0
C795 C 0.4934 0.5408 0.91479 0.0
C796 C 0.41092 0.45616 0.93 0.0
C797 C 0.39914 0.44709 0.89771 0.0
C798 C 0.45871 0.5102 0.90999 0.0
C799 C 0.41628 0.47141 0.87261 0.0
C800 C 0.51127 0.56413 0.88908 0.0
C801 C 0.54256 0.57008 0.94925 0.0
N802 N 0.44543 0.50164 0.87919 0.0
N803 N 0.50962 0.54479 0.944 0.0
H804 H 0.95371 0.39735 0.11354 0.0
H805 H 0.96728 0.56721 0.0331 0.0
H806 H 0.96218 0.41806 0.00929 0.0
H807 H 0.95246 0.54361 0.13666 0.0
H808 H 0.9584 0.5092 0.02299 0.0
H809 H 0.94656 0.44774 0.1221 0.0
C810 C 0.95373 0.41222 0.09249 0.0
C811 C 0.95923 0.40384 0.06079 0.0
C812 C 0.95677 0.51667 0.0479 0.0
C813 C 0.95118 0.46139 0.07025 0.0
C814 C 0.96169 0.54971 0.05359 0.0
C815 C 0.96142 0.5605 0.08579 0.0
C816 C 0.95153 0.49447 0.07463 0.0
C817 C 0.95387 0.53671 0.11149 0.0
C818 C 0.94969 0.44099 0.09733 0.0
C819 C 0.95875 0.4239 0.03431 0.0
N820 N 0.94964 0.50504 0.10542 0.0
N821 N 0.95519 0.45184 0.03967 0.0
H822 H 0.3886 0.94713 0.21163 0.0
H823 H 0.56364 0.96346 0.28262 0.0
H824 H 0.43446 0.99153 0.30543 0.0
H825 H 0.53176 0.93954 0.18148 0.0
H826 H 0.50889 0.96124 0.29479 0.0
H827 H 0.43502 0.93367 0.20271 0.0
C828 C 0.4082 0.95395 0.2303 0.0
C829 C 0.40761 0.97068 0.25918 0.0
C830 C 0.51376 0.95605 0.27 0.0
C831 C 0.46013 0.95491 0.24951 0.0
C832 C 0.54486 0.95706 0.26319 0.0
C833 C 0.55246 0.95239 0.23094 0.0
C834 C 0.49025 0.9502 0.24438 0.0
C835 C 0.52718 0.94406 0.20659 0.0
C836 C 0.43455 0.94614 0.22532 0.0
C837 C 0.43363 0.97868 0.2827 0.0
N838 N 0.49738 0.94363 0.2137 0.0
N839 N 0.4587 0.97079 0.27732 0.0
H840 H 0.36572 0.34355 0.73594 0.0
H841 H 0.43398 0.45325 0.57453 0.0
H842 H 0.43246 0.45385 0.74574 0.0
H843 H 0.32893 0.37072 0.58821 0.0
H844 H 0.44309 0.45347 0.63424 0.0
H845 H 0.36387 0.35082 0.67702 0.0
C846 C 0.38038 0.3693 0.72568 0.0
C847 C 0.39868 0.39826 0.74583 0.0
C848 C 0.41805 0.43573 0.6239 0.0
C849 C 0.39652 0.40658 0.67844 0.0
C850 C 0.41274 0.43566 0.59004 0.0
C851 C 0.38084 0.41145 0.57639 0.0
C852 C 0.39143 0.41107 0.64362 0.0
C853 C 0.35415 0.38932 0.59754 0.0
C854 C 0.37911 0.37339 0.69209 0.0
C855 C 0.41772 0.43092 0.73102 0.0
N856 N 0.36025 0.38927 0.63002 0.0
N857 N 0.41596 0.43433 0.69797 0.0
H858 H 0.96394 0.34124 0.74932 0.0
H859 H 0.02184 0.44797 0.91533 0.0
H860 H 0.02778 0.45236 0.74659 0.0
H861 H 0.00569 0.34498 0.90274 0.0
H862 H 0.0152 0.45126 0.85559 0.0
H863 H 0.96661 0.34312 0.80885 0.0
C864 C 0.97822 0.36612 0.76127 0.0
C865 C 0.99627 0.39665 0.74303 0.0
C866 C 0.01327 0.42812 0.86619 0.0
C867 C 0.99963 0.39886 0.81115 0.0
C868 C 0.01718 0.42624 0.90008 0.0
C869 C 0.01392 0.396 0.91403 0.0
C870 C 0.00556 0.39936 0.84665 0.0
C871 C 0.00794 0.36863 0.89323 0.0
C872 C 0.97986 0.36714 0.79523 0.0
C873 C 0.01383 0.42821 0.75985 0.0
N874 N 0.00363 0.37087 0.86067 0.0
N875 N 0.01544 0.42854 0.79321 0.0
H876 H 0.6077 0.05432 0.91888 0.0
H877 H 0.54879 0.92421 0.07049 0.0
H878 H 0.57551 0.94611 0.91046 0.0
H879 H 0.62044 0.0337 0.07718 0.0
H880 H 0.54006 0.93154 0.01225 0.0
H881 H 0.59333 0.0457 0.97735 0.0
C882 C 0.59692 0.02862 0.92918 0.0
C883 C 0.59347 0.00099 0.91014 0.0
C884 C 0.55717 0.95398 0.02673 0.0
C885 C 0.57693 0.99108 0.97651 0.0
C886 C 0.56213 0.94985 0.05984 0.0
C887 C 0.5859 0.97833 0.07828 0.0
C888 C 0.57578 0.98682 0.01235 0.0
C889 C 0.60243 0.01102 0.0635 0.0
C890 C 0.58881 0.02378 0.96247 0.0
C891 C 0.57919 0.9682 0.92456 0.0
N892 N 0.59729 0.01436 0.03123 0.0
N893 N 0.57179 0.96419 0.9571 0.0
H894 H 0.64408 0.58239 0.07275 0.0
H895 H 0.5811 0.61664 0.23895 0.0
H896 H 0.56373 0.6089 0.07759 0.0
H897 H 0.627 0.55188 0.23278 0.0
H898 H 0.57067 0.61032 0.17987 0.0
H899 H 0.63516 0.56709 0.13094 0.0
C900 C 0.62425 0.58453 0.08598 0.0
C901 C 0.60503 0.59749 0.0706 0.0
C902 C 0.58237 0.59689 0.19152 0.0
C903 C 0.59492 0.58038 0.13697 0.0
C904 C 0.58845 0.60062 0.22518 0.0
C905 C 0.60539 0.58519 0.24051 0.0
C906 C 0.59408 0.57828 0.1731 0.0
C907 C 0.61407 0.56439 0.22175 0.0
C908 C 0.61903 0.57561 0.11911 0.0
C909 C 0.57936 0.59935 0.08866 0.0
N910 N 0.60898 0.56213 0.18879 0.0
N911 N 0.57549 0.59153 0.12113 0.0
H912 H 0.03232 0.66883 0.24604 0.0
H913 H 0.98294 0.55945 0.41077 0.0
H914 H 0.98096 0.55743 0.24235 0.0
H915 H 0.98864 0.65831 0.39989 0.0
H916 H 0.98959 0.55786 0.35091 0.0
H917 H 0.02741 0.66583 0.3054 0.0
C918 C 0.02028 0.64369 0.25775 0.0
C919 C 0.0065 0.61329 0.23923 0.0
C920 C 0.98916 0.57968 0.36187 0.0
C921 C 1.00054 0.60974 0.30724 0.0
C922 C 0.98524 0.58058 0.39585 0.0
C923 C 0.98573 0.60929 0.41033 0.0
C924 C 0.99401 0.60789 0.34273 0.0
C925 C 0.98868 0.63592 0.38994 0.0
C926 C 0.01731 0.64201 0.29163 0.0
C927 C 0.99165 0.58147 0.2558 0.0
N928 N 0.99306 0.63471 0.35726 0.0
N929 N 0.98877 0.58044 0.28908 0.0
H930 H 0.33694 1.0007 0.56941 0.0
H931 H 0.41596 0.9711 0.41141 0.0
H932 H 0.42298 0.98311 0.58068 0.0
H933 H 0.38319 0.0469 0.41738 0.0
H934 H 0.41616 0.9687 0.47168 0.0
H935 H 0.34778 0.00818 0.51092 0.0
C936 C 0.35813 0.99834 0.55962 0.0
C937 C 0.37948 0.99186 0.58006 0.0
C938 C 0.40963 0.98627 0.45957 0.0
C939 C 0.3918 1.00022 0.51291 0.0
C940 C 0.40948 0.98769 0.42533 0.0
C941 C 0.39882 0.00869 0.40945 0.0
C942 C 0.39852 0.00556 0.47757 0.0
C943 C 0.39101 0.0299 0.42856 0.0
C944 C 0.36439 0.00283 0.52622 0.0
C945 C 0.4061 0.98835 0.56573 0.0
N946 N 0.39037 0.02728 0.46165 0.0
N947 N 0.41155 0.99252 0.53275 0.0
loop_
_geom_bond_atom_site_label_1
_geom_bond_atom_site_label_2
_geom_bond_distance
_geom_bond_site_symmetry_2
_ccdc_geom_bond_type
Co0 O3 1.970 . S
Co0 N17 1.989 . S
Co0 O25 1.967 . S
Co0 O32 1.920 . S
Co1 O4 1.966 . S
Co1 N10 2.022 . S
Co1 N18 1.993 . S
Co1 O26 1.941 . S
C2 O3 1.258 . S
C2 O4 1.263 . S
O3 Co0 1.970 . S
O3 C2 1.258 . S
O4 Co1 1.966 . S
O4 C2 1.263 . S
C5 O6 1.235 . S
C5 O32 1.289 . S
O6 C5 1.235 . S
C7 C9 1.400 . S
C7 N10 1.351 . S
C7 C12 1.501 . S
C8 C9 1.387 . S
C8 N11 1.341 . S
C9 C7 1.400 . S
C9 C8 1.387 . S
N10 Co1 2.022 . S
N10 C7 1.351 . S
N10 N11 1.365 . S
N11 C8 1.341 . S
N11 N10 1.365 . S
N11 H31 0.862 . S
C12 C7 1.501 . S
C12 H13 0.961 . S
C12 H14 0.961 . S
C12 H15 0.960 . S
H13 C12 0.961 . S
H14 C12 0.961 . S
H15 C12 0.960 . S
C16 N17 1.342 . S
C16 C20 1.401 . S
C16 C21 1.499 . S
N17 Co0 1.989 . S
N17 C16 1.342 . S
N17 N18 1.388 . S
N18 Co1 1.993 . S
N18 N17 1.388 . S
N18 C19 1.346 . S
C19 N18 1.346 . S
C19 C20 1.396 . S
C19 C29 1.510 . S
C20 C16 1.401 . S
C20 C19 1.396 . S
C21 C16 1.499 . S
C21 H22 0.959 . S
C21 H23 0.960 . S
C21 H24 0.961 . S
H22 C21 0.959 . S
H23 C21 0.960 . S
H24 C21 0.961 . S
O25 Co0 1.967 . S
O25 C33 1.258 . S
O26 Co1 1.941 . S
O26 C33 1.266 . S
H27 C29 0.959 . S
H28 C29 0.961 . S
C29 C19 1.510 . S
C29 H27 0.959 . S
C29 H28 0.961 . S
C29 H30 0.960 . S
H30 C29 0.960 . S
H31 N11 0.862 . S
O32 Co0 1.920 . S
O32 C5 1.289 . S
C33 O25 1.258 . S
C33 O26 1.266 . S
Co34 O37 1.970 . S
Co34 N51 1.989 . S
Co34 O59 1.967 1_455 S
Co34 O66 1.920 . S
Co35 O38 1.966 . S
Co35 N44 2.022 . S
Co35 N52 1.993 . S
Co35 O60 1.941 . S
C36 O37 1.258 . S
C36 O38 1.263 . S
O37 Co34 1.970 . S
O37 C36 1.258 . S
O38 Co35 1.966 . S
O38 C36 1.263 . S
C39 O40 1.235 . S
C39 O66 1.289 . S
O40 C39 1.235 . S
C41 C43 1.400 . S
C41 N44 1.351 . S
C41 C46 1.501 . S
C42 C43 1.387 . S
C42 N45 1.341 . S
C43 C41 1.400 . S
C43 C42 1.387 . S
N44 Co35 2.022 . S
N44 C41 1.351 . S
N44 N45 1.365 . S
N45 C42 1.341 . S
N45 N44 1.365 . S
N45 H65 0.862 . S
C46 C41 1.501 . S
C46 H47 0.961 . S
C46 H48 0.961 . S
C46 H49 0.960 . S
H47 C46 0.961 . S
H48 C46 0.961 . S
H49 C46 0.960 . S
C50 N51 1.342 . S
C50 C54 1.401 . S
C50 C55 1.499 . S
N51 Co34 1.989 . S
N51 C50 1.342 . S
N51 N52 1.388 . S
N52 Co35 1.993 . S
N52 N51 1.388 . S
N52 C53 1.346 . S
C53 N52 1.346 . S
C53 C54 1.396 . S
C53 C63 1.510 . S
C54 C50 1.401 . S
C54 C53 1.396 . S
C55 C50 1.499 . S
C55 H56 0.959 . S
C55 H57 0.960 . S
C55 H58 0.961 . S
H56 C55 0.959 . S
H57 C55 0.960 . S
H58 C55 0.961 . S
O59 Co34 1.967 1_655 S
O59 C67 1.258 . S
O60 Co35 1.941 . S
O60 C67 1.266 1_455 S
H61 C63 0.959 . S
H62 C63 0.961 . S
C63 C53 1.510 . S
C63 H61 0.959 . S
C63 H62 0.961 . S
C63 H64 0.960 . S
H64 C63 0.960 . S
H65 N45 0.862 . S
O66 Co34 1.920 . S
O66 C39 1.289 . S
C67 O59 1.258 . S
C67 O60 1.266 1_655 S
Co68 O71 1.970 . S
Co68 N85 1.989 . S
Co68 O93 1.967 1_545 S
Co68 O100 1.920 . S
Co69 O72 1.966 . S
Co69 N78 2.022 . S
Co69 N86 1.993 . S
Co69 O94 1.941 . S
C70 O71 1.258 . S
C70 O72 1.263 . S
O71 Co68 1.970 . S
O71 C70 1.258 . S
O72 Co69 1.966 . S
O72 C70 1.263 . S
C73 O74 1.235 . S
C73 O100 1.289 . S
O74 C73 1.235 . S
C75 C77 1.400 . S
C75 N78 1.351 . S
C75 C80 1.501 . S
C76 C77 1.387 . S
C76 N79 1.341 . S
C77 C75 1.400 . S
C77 C76 1.387 . S
N78 Co69 2.022 . S
N78 C75 1.351 . S
N78 N79 1.365 . S
N79 C76 1.341 . S
N79 N78 1.365 . S
N79 H99 0.862 . S
C80 C75 1.501 . S
C80 H81 0.961 . S
C80 H82 0.961 . S
C80 H83 0.960 . S
H81 C80 0.961 . S
H82 C80 0.961 . S
H83 C80 0.960 . S
C84 N85 1.342 . S
C84 C88 1.401 . S
C84 C89 1.499 . S
N85 Co68 1.989 . S
N85 C84 1.342 . S
N85 N86 1.388 . S
N86 Co69 1.993 . S
N86 N85 1.388 . S
N86 C87 1.346 . S
C87 N86 1.346 . S
C87 C88 1.396 . S
C87 C97 1.510 . S
C88 C84 1.401 . S
C88 C87 1.396 . S
C89 C84 1.499 . S
C89 H90 0.959 . S
C89 H91 0.960 . S
C89 H92 0.961 . S
H90 C89 0.959 . S
H91 C89 0.960 . S
H92 C89 0.961 . S
O93 Co68 1.967 1_565 S
O93 C101 1.258 . S
O94 Co69 1.941 . S
O94 C101 1.266 1_545 S
H95 C97 0.959 . S
H96 C97 0.961 . S
C97 C87 1.510 . S
C97 H95 0.959 . S
C97 H96 0.961 . S
C97 H98 0.960 . S
H98 C97 0.960 . S
H99 N79 0.862 . S
O100 Co68 1.920 . S
O100 C73 1.289 . S
C101 O93 1.258 . S
C101 O94 1.266 1_565 S
Co102 O105 1.970 . S
Co102 N119 1.989 . S
Co102 O127 1.967 . S
Co102 O134 1.920 1_556 S
Co103 O106 1.966 . S
Co103 N112 2.022 . S
Co103 N120 1.993 . S
Co103 O128 1.941 . S
C104 O105 1.258 . S
C104 O106 1.263 . S
O105 Co102 1.970 . S
O105 C104 1.258 . S
O106 Co103 1.966 . S
O106 C104 1.263 . S
C107 O108 1.235 . S
C107 O134 1.289 . S
O108 C107 1.235 . S
C109 C111 1.400 . S
C109 N112 1.351 . S
C109 C114 1.501 . S
C110 C111 1.387 . S
C110 N113 1.341 . S
C111 C109 1.400 . S
C111 C110 1.387 . S
N112 Co103 2.022 . S
N112 C109 1.351 . S
N112 N113 1.365 . S
N113 C110 1.341 . S
N113 N112 1.365 . S
N113 H133 0.862 . S
C114 C109 1.501 . S
C114 H115 0.961 . S
C114 H116 0.961 . S
C114 H117 0.960 . S
H115 C114 0.961 . S
H116 C114 0.961 . S
H117 C114 0.960 . S
C118 N119 1.342 1_554 S
C118 C122 1.401 . S
C118 C123 1.499 . S
N119 Co102 1.989 . S
N119 C118 1.342 1_556 S
N119 N120 1.388 . S
N120 Co103 1.993 . S
N120 N119 1.388 . S
N120 C121 1.346 . S
C121 N120 1.346 . S
C121 C122 1.396 1_556 S
C121 C131 1.510 . S
C122 C118 1.401 . S
C122 C121 1.396 1_554 S
C123 C118 1.499 . S
C123 H124 0.959 . S
C123 H125 0.960 . S
C123 H126 0.961 . S
H124 C123 0.959 . S
H125 C123 0.960 . S
H126 C123 0.961 . S
O127 Co102 1.967 . S
O127 C135 1.258 . S
O128 Co103 1.941 . S
O128 C135 1.266 . S
H129 C131 0.959 . S
H130 C131 0.961 . S
C131 C121 1.510 . S
C131 H129 0.959 . S
C131 H130 0.961 . S
C131 H132 0.960 . S
H132 C131 0.960 . S
H133 N113 0.862 . S
O134 Co102 1.920 1_554 S
O134 C107 1.289 . S
C135 O127 1.258 . S
C135 O128 1.266 . S
Co136 O139 1.970 . S
Co136 N153 1.989 . S
Co136 O161 1.967 1_655 S
Co136 O168 1.920 . S
Co137 O140 1.966 . S
Co137 N146 2.022 . S
Co137 N154 1.993 . S
Co137 O162 1.941 . S
C138 O139 1.258 . S
C138 O140 1.263 . S
O139 Co136 1.970 . S
O139 C138 1.258 . S
O140 Co137 1.966 . S
O140 C138 1.263 . S
C141 O142 1.235 . S
C141 O168 1.289 . S
O142 C141 1.235 . S
C143 C145 1.400 . S
C143 N146 1.351 . S
C143 C148 1.501 . S
C144 C145 1.387 . S
C144 N147 1.341 . S
C145 C143 1.400 . S
C145 C144 1.387 . S
N146 Co137 2.022 . S
N146 C143 1.351 . S
N146 N147 1.365 . S
N147 C144 1.341 . S
N147 N146 1.365 . S
N147 H167 0.862 . S
C148 C143 1.501 . S
C148 H149 0.961 . S
C148 H150 0.961 . S
C148 H151 0.960 . S
H149 C148 0.961 . S
H150 C148 0.961 . S
H151 C148 0.960 . S
C152 N153 1.342 . S
C152 C156 1.401 . S
C152 C157 1.499 . S
N153 Co136 1.989 . S
N153 C152 1.342 . S
N153 N154 1.388 . S
N154 Co137 1.993 . S
N154 N153 1.388 . S
N154 C155 1.346 . S
C155 N154 1.346 . S
C155 C156 1.396 . S
C155 C165 1.510 . S
C156 C152 1.401 . S
C156 C155 1.396 . S
C157 C152 1.499 . S
C157 H158 0.959 . S
C157 H159 0.960 . S
C157 H160 0.961 . S
H158 C157 0.959 . S
H159 C157 0.960 . S
H160 C157 0.961 . S
O161 Co136 1.967 1_455 S
O161 C169 1.258 . S
O162 Co137 1.941 . S
O162 C169 1.266 1_655 S
H163 C165 0.959 . S
H164 C165 0.961 . S
C165 C155 1.510 . S
C165 H163 0.959 . S
C165 H164 0.961 . S
C165 H166 0.960 . S
H166 C165 0.960 . S
H167 N147 0.862 . S
O168 Co136 1.920 . S
O168 C141 1.289 . S
C169 O161 1.258 . S
C169 O162 1.266 1_455 S
Co170 O173 1.970 . S
Co170 N187 1.989 . S
Co170 O195 1.967 1_565 S
Co170 O202 1.920 . S
Co171 O174 1.966 . S
Co171 N180 2.022 . S
Co171 N188 1.993 . S
Co171 O196 1.941 . S
C172 O173 1.258 . S
C172 O174 1.263 . S
O173 Co170 1.970 . S
O173 C172 1.258 . S
O174 Co171 1.966 . S
O174 C172 1.263 . S
C175 O176 1.235 . S
C175 O202 1.289 . S
O176 C175 1.235 . S
C177 C179 1.400 . S
C177 N180 1.351 . S
C177 C182 1.501 . S
C178 C179 1.387 . S
C178 N181 1.341 . S
C179 C177 1.400 . S
C179 C178 1.387 . S
N180 Co171 2.022 . S
N180 C177 1.351 . S
N180 N181 1.365 . S
N181 C178 1.341 . S
N181 N180 1.365 . S
N181 H201 0.862 . S
C182 C177 1.501 . S
C182 H183 0.961 . S
C182 H184 0.961 . S
C182 H185 0.960 . S
H183 C182 0.961 . S
H184 C182 0.961 . S
H185 C182 0.960 . S
C186 N187 1.342 . S
C186 C190 1.401 . S
C186 C191 1.499 . S
N187 Co170 1.989 . S
N187 C186 1.342 . S
N187 N188 1.388 . S
N188 Co171 1.993 . S
N188 N187 1.388 . S
N188 C189 1.346 . S
C189 N188 1.346 . S
C189 C190 1.396 . S
C189 C199 1.510 . S
C190 C186 1.401 . S
C190 C189 1.396 . S
C191 C186 1.499 . S
C191 H192 0.959 . S
C191 H193 0.960 . S
C191 H194 0.961 . S
H192 C191 0.959 . S
H193 C191 0.960 . S
H194 C191 0.961 . S
O195 Co170 1.967 1_545 S
O195 C203 1.258 . S
O196 Co171 1.941 . S
O196 C203 1.266 1_565 S
H197 C199 0.959 . S
H198 C199 0.961 . S
C199 C189 1.510 . S
C199 H197 0.959 . S
C199 H198 0.961 . S
C199 H200 0.960 . S
H200 C199 0.960 . S
H201 N181 0.862 . S
O202 Co170 1.920 . S
O202 C175 1.289 . S
C203 O195 1.258 . S
C203 O196 1.266 1_545 S
Co204 O207 1.970 . S
Co204 N221 1.989 . S
Co204 O229 1.967 . S
Co204 O236 1.920 . S
Co205 O208 1.966 . S
Co205 N214 2.022 . S
Co205 N222 1.993 . S
Co205 O230 1.941 . S
C206 O207 1.258 . S
C206 O208 1.263 . S
O207 Co204 1.970 . S
O207 C206 1.258 . S
O208 Co205 1.966 . S
O208 C206 1.263 . S
C209 O210 1.235 . S
C209 O236 1.289 . S
O210 C209 1.235 . S
C211 C213 1.400 . S
C211 N214 1.351 . S
C211 C216 1.501 . S
C212 C213 1.387 . S
C212 N215 1.341 . S
C213 C211 1.400 . S
C213 C212 1.387 . S
N214 Co205 2.022 . S
N214 C211 1.351 . S
N214 N215 1.365 . S
N215 C212 1.341 . S
N215 N214 1.365 . S
N215 H235 0.862 . S
C216 C211 1.501 . S
C216 H217 0.961 . S
C216 H218 0.961 . S
C216 H219 0.960 . S
H217 C216 0.961 . S
H218 C216 0.961 . S
H219 C216 0.960 . S
C220 N221 1.342 . S
C220 C224 1.401 . S
C220 C225 1.499 . S
N221 Co204 1.989 . S
N221 C220 1.342 . S
N221 N222 1.388 . S
N222 Co205 1.993 . S
N222 N221 1.388 . S
N222 C223 1.346 . S
C223 N222 1.346 . S
C223 C224 1.396 . S
C223 C233 1.510 . S
C224 C220 1.401 . S
C224 C223 1.396 . S
C225 C220 1.499 . S
C225 H226 0.959 . S
C225 H227 0.960 . S
C225 H228 0.961 . S
H226 C225 0.959 . S
H227 C225 0.960 . S
H228 C225 0.961 . S
O229 Co204 1.967 . S
O229 C237 1.258 . S
O230 Co205 1.941 . S
O230 C237 1.266 . S
H231 C233 0.959 . S
H232 C233 0.961 . S
C233 C223 1.510 . S
C233 H231 0.959 . S
C233 H232 0.961 . S
C233 H234 0.960 . S
H234 C233 0.960 . S
H235 N215 0.862 . S
O236 Co204 1.920 . S
O236 C209 1.289 . S
C237 O229 1.258 . S
C237 O230 1.266 . S
Co238 O241 1.970 . S
Co238 N255 1.989 . S
Co238 O263 1.967 1_455 S
Co238 O270 1.920 . S
Co239 O242 1.966 . S
Co239 N248 2.022 . S
Co239 N256 1.993 . S
Co239 O264 1.941 . S
C240 O241 1.258 . S
C240 O242 1.263 . S
O241 Co238 1.970 . S
O241 C240 1.258 . S
O242 Co239 1.966 . S
O242 C240 1.263 . S
C243 O244 1.235 . S
C243 O270 1.289 . S
O244 C243 1.235 . S
C245 C247 1.400 . S
C245 N248 1.351 . S
C245 C250 1.501 . S
C246 C247 1.387 . S
C246 N249 1.341 . S
C247 C245 1.400 . S
C247 C246 1.387 . S
N248 Co239 2.022 . S
N248 C245 1.351 . S
N248 N249 1.365 . S
N249 C246 1.341 . S
N249 N248 1.365 . S
N249 H269 0.862 . S
C250 C245 1.501 . S
C250 H251 0.961 . S
C250 H252 0.961 . S
C250 H253 0.960 . S
H251 C250 0.961 . S
H252 C250 0.961 . S
H253 C250 0.960 . S
C254 N255 1.342 . S
C254 C258 1.401 . S
C254 C259 1.499 . S
N255 Co238 1.989 . S
N255 C254 1.342 . S
N255 N256 1.388 . S
N256 Co239 1.993 . S
N256 N255 1.388 . S
N256 C257 1.346 . S
C257 N256 1.346 . S
C257 C258 1.396 . S
C257 C267 1.510 . S
C258 C254 1.401 . S
C258 C257 1.396 . S
C259 C254 1.499 . S
C259 H260 0.959 . S
C259 H261 0.960 . S
C259 H262 0.961 . S
H260 C259 0.959 . S
H261 C259 0.960 . S
H262 C259 0.961 . S
O263 Co238 1.967 1_655 S
O263 C271 1.258 . S
O264 Co239 1.941 . S
O264 C271 1.266 1_455 S
H265 C267 0.959 . S
H266 C267 0.961 . S
C267 C257 1.510 . S
C267 H265 0.959 . S
C267 H266 0.961 . S
C267 H268 0.960 . S
H268 C267 0.960 . S
H269 N249 0.862 . S
O270 Co238 1.920 . S
O270 C243 1.289 . S
C271 O263 1.258 . S
C271 O264 1.266 1_655 S
Co272 O275 1.970 . S
Co272 N289 1.989 . S
Co272 O297 1.967 1_545 S
Co272 O304 1.920 . S
Co273 O276 1.966 . S
Co273 N282 2.022 . S
Co273 N290 1.993 . S
Co273 O298 1.941 . S
C274 O275 1.258 . S
C274 O276 1.263 . S
O275 Co272 1.970 . S
O275 C274 1.258 . S
O276 Co273 1.966 . S
O276 C274 1.263 . S
C277 O278 1.235 . S
C277 O304 1.289 . S
O278 C277 1.235 . S
C279 C281 1.400 . S
C279 N282 1.351 . S
C279 C284 1.501 . S
C280 C281 1.387 . S
C280 N283 1.341 . S
C281 C279 1.400 . S
C281 C280 1.387 . S
N282 Co273 2.022 . S
N282 C279 1.351 . S
N282 N283 1.365 . S
N283 C280 1.341 . S
N283 N282 1.365 . S
N283 H303 0.862 . S
C284 C279 1.501 . S
C284 H285 0.961 . S
C284 H286 0.961 . S
C284 H287 0.960 . S
H285 C284 0.961 . S
H286 C284 0.961 . S
H287 C284 0.960 . S
C288 N289 1.342 . S
C288 C292 1.401 . S
C288 C293 1.499 . S
N289 Co272 1.989 . S
N289 C288 1.342 . S
N289 N290 1.388 . S
N290 Co273 1.993 . S
N290 N289 1.388 . S
N290 C291 1.346 . S
C291 N290 1.346 . S
C291 C292 1.396 . S
C291 C301 1.510 . S
C292 C288 1.401 . S
C292 C291 1.396 . S
C293 C288 1.499 . S
C293 H294 0.959 . S
C293 H295 0.960 . S
C293 H296 0.961 . S
H294 C293 0.959 . S
H295 C293 0.960 . S
H296 C293 0.961 . S
O297 Co272 1.967 1_565 S
O297 C305 1.258 . S
O298 Co273 1.941 . S
O298 C305 1.266 1_545 S
H299 C301 0.959 . S
H300 C301 0.961 . S
C301 C291 1.510 . S
C301 H299 0.959 . S
C301 H300 0.961 . S
C301 H302 0.960 . S
H302 C301 0.960 . S
H303 N283 0.862 . S
O304 Co272 1.920 . S
O304 C277 1.289 . S
C305 O297 1.258 . S
C305 O298 1.266 1_565 S
Co306 O309 1.970 . S
Co306 N323 1.989 . S
Co306 O331 1.967 . S
Co306 O338 1.920 . S
Co307 O310 1.966 . S
Co307 N316 2.022 . S
Co307 N324 1.993 . S
Co307 O332 1.941 . S
C308 O309 1.258 . S
C308 O310 1.263 . S
O309 Co306 1.970 . S
O309 C308 1.258 . S
O310 Co307 1.966 . S
O310 C308 1.263 . S
C311 O312 1.235 . S
C311 O338 1.289 . S
O312 C311 1.235 . S
C313 C315 1.400 . S
C313 N316 1.351 . S
C313 C318 1.501 . S
C314 C315 1.387 . S
C314 N317 1.341 . S
C315 C313 1.400 . S
C315 C314 1.387 . S
N316 Co307 2.022 . S
N316 C313 1.351 . S
N316 N317 1.365 . S
N317 C314 1.341 . S
N317 N316 1.365 . S
N317 H337 0.862 . S
C318 C313 1.501 . S
C318 H319 0.961 . S
C318 H320 0.961 . S
C318 H321 0.960 . S
H319 C318 0.961 . S
H320 C318 0.961 . S
H321 C318 0.960 . S
C322 N323 1.342 . S
C322 C326 1.401 . S
C322 C327 1.499 . S
N323 Co306 1.989 . S
N323 C322 1.342 . S
N323 N324 1.388 . S
N324 Co307 1.993 . S
N324 N323 1.388 . S
N324 C325 1.346 . S
C325 N324 1.346 . S
C325 C326 1.396 . S
C325 C335 1.510 . S
C326 C322 1.401 . S
C326 C325 1.396 . S
C327 C322 1.499 . S
C327 H328 0.959 . S
C327 H329 0.960 . S
C327 H330 0.961 . S
H328 C327 0.959 . S
H329 C327 0.960 . S
H330 C327 0.961 . S
O331 Co306 1.967 . S
O331 C339 1.258 . S
O332 Co307 1.941 . S
O332 C339 1.266 . S
H333 C335 0.959 . S
H334 C335 0.961 . S
C335 C325 1.510 . S
C335 H333 0.959 . S
C335 H334 0.961 . S
C335 H336 0.960 . S
H336 C335 0.960 . S
H337 N317 0.862 . S
O338 Co306 1.920 . S
O338 C311 1.289 . S
C339 O331 1.258 . S
C339 O332 1.266 . S
Co340 O343 1.970 . S
Co340 N357 1.989 . S
Co340 O365 1.967 1_655 S
Co340 O372 1.920 1_554 S
Co341 O344 1.966 . S
Co341 N350 2.022 . S
Co341 N358 1.993 . S
Co341 O366 1.941 . S
C342 O343 1.258 . S
C342 O344 1.263 . S
O343 Co340 1.970 . S
O343 C342 1.258 . S
O344 Co341 1.966 . S
O344 C342 1.263 . S
C345 O346 1.235 . S
C345 O372 1.289 . S
O346 C345 1.235 . S
C347 C349 1.400 . S
C347 N350 1.351 . S
C347 C352 1.501 . S
C348 C349 1.387 . S
C348 N351 1.341 . S
C349 C347 1.400 . S
C349 C348 1.387 . S
N350 Co341 2.022 . S
N350 C347 1.351 . S
N350 N351 1.365 . S
N351 C348 1.341 . S
N351 N350 1.365 . S
N351 H371 0.862 . S
C352 C347 1.501 . S
C352 H353 0.961 . S
C352 H354 0.961 . S
C352 H355 0.960 . S
H353 C352 0.961 . S
H354 C352 0.961 . S
H355 C352 0.960 . S
C356 N357 1.342 1_556 S
C356 C360 1.401 . S
C356 C361 1.499 . S
N357 Co340 1.989 . S
N357 C356 1.342 1_554 S
N357 N358 1.388 . S
N358 Co341 1.993 . S
N358 N357 1.388 . S
N358 C359 1.346 . S
C359 N358 1.346 . S
C359 C360 1.396 1_554 S
C359 C369 1.510 . S
C360 C356 1.401 . S
C360 C359 1.396 1_556 S
C361 C356 1.499 . S
C361 H362 0.959 . S
C361 H363 0.960 . S
C361 H364 0.961 . S
H362 C361 0.959 . S
H363 C361 0.960 . S
H364 C361 0.961 . S
O365 Co340 1.967 1_455 S
O365 C373 1.258 . S
O366 Co341 1.941 . S
O366 C373 1.266 1_655 S
H367 C369 0.959 . S
H368 C369 0.961 . S
C369 C359 1.510 . S
C369 H367 0.959 . S
C369 H368 0.961 . S
C369 H370 0.960 . S
H370 C369 0.960 . S
H371 N351 0.862 . S
O372 Co340 1.920 1_556 S
O372 C345 1.289 . S
C373 O365 1.258 . S
C373 O366 1.266 1_455 S
Co374 O377 1.970 . S
Co374 N391 1.989 . S
Co374 O399 1.967 1_565 S
Co374 O406 1.920 . S
Co375 O378 1.966 . S
Co375 N384 2.022 . S
Co375 N392 1.993 . S
Co375 O400 1.941 . S
C376 O377 1.258 . S
C376 O378 1.263 . S
O377 Co374 1.970 . S
O377 C376 1.258 . S
O378 Co375 1.966 . S
O378 C376 1.263 . S
C379 O380 1.235 . S
C379 O406 1.289 . S
O380 C379 1.235 . S
C381 C383 1.400 . S
C381 N384 1.351 . S
C381 C386 1.501 . S
C382 C383 1.387 . S
C382 N385 1.341 . S
C383 C381 1.400 . S
C383 C382 1.387 . S
N384 Co375 2.022 . S
N384 C381 1.351 . S
N384 N385 1.365 . S
N385 C382 1.341 . S
N385 N384 1.365 . S
N385 H405 0.862 . S
C386 C381 1.501 . S
C386 H387 0.961 . S
C386 H388 0.961 . S
C386 H389 0.960 . S
H387 C386 0.961 . S
H388 C386 0.961 . S
H389 C386 0.960 . S
C390 N391 1.342 . S
C390 C394 1.401 . S
C390 C395 1.499 . S
N391 Co374 1.989 . S
N391 C390 1.342 . S
N391 N392 1.388 . S
N392 Co375 1.993 . S
N392 N391 1.388 . S
N392 C393 1.346 . S
C393 N392 1.346 . S
C393 C394 1.396 . S
C393 C403 1.510 . S
C394 C390 1.401 . S
C394 C393 1.396 . S
C395 C390 1.499 . S
C395 H396 0.959 . S
C395 H397 0.960 . S
C395 H398 0.961 . S
H396 C395 0.959 . S
H397 C395 0.960 . S
H398 C395 0.961 . S
O399 Co374 1.967 1_545 S
O399 C407 1.258 . S
O400 Co375 1.941 . S
O400 C407 1.266 1_565 S
H401 C403 0.959 . S
H402 C403 0.961 . S
C403 C393 1.510 . S
C403 H401 0.959 . S
C403 H402 0.961 . S
C403 H404 0.960 . S
H404 C403 0.960 . S
H405 N385 0.862 . S
O406 Co374 1.920 . S
O406 C379 1.289 . S
C407 O399 1.258 . S
C407 O400 1.266 1_545 S
H408 C414 0.930 . S
H409 C418 0.930 . S
H410 C423 0.929 . S
H411 C421 0.929 . S
H412 C416 0.929 . S
H413 C422 0.929 . S
C414 H408 0.930 . S
C414 C415 1.367 . S
C414 C422 1.378 . S
C415 C414 1.367 . S
C415 C423 1.433 . S
C416 H412 0.929 . S
C416 C418 1.378 . S
C416 C420 1.350 . S
C417 C420 1.463 . S
C417 C422 1.350 . S
C417 N425 1.427 . S
C418 H409 0.930 . S
C418 C416 1.378 . S
C418 C419 1.367 . S
C419 C418 1.367 . S
C419 C421 1.433 . S
C420 C416 1.350 . S
C420 C417 1.463 . S
C420 N424 1.427 . S
C421 H411 0.929 . S
C421 C419 1.433 . S
C421 N424 1.384 . S
C422 H413 0.929 . S
C422 C414 1.378 . S
C422 C417 1.350 . S
C423 H410 0.929 . S
C423 C415 1.433 . S
C423 N425 1.384 . S
N424 C420 1.427 . S
N424 C421 1.384 . S
N425 C417 1.427 . S
N425 C423 1.384 . S
H426 C432 0.930 . S
H427 C436 0.930 . S
H428 C441 0.929 . S
H429 C439 0.929 . S
H430 C434 0.929 . S
H431 C440 0.929 . S
C432 H426 0.930 . S
C432 C433 1.367 . S
C432 C440 1.378 . S
C433 C432 1.367 . S
C433 C441 1.433 . S
C434 H430 0.929 . S
C434 C436 1.378 . S
C434 C438 1.350 . S
C435 C438 1.463 . S
C435 C440 1.350 . S
C435 N443 1.427 . S
C436 H427 0.930 . S
C436 C434 1.378 . S
C436 C437 1.367 . S
C437 C436 1.367 . S
C437 C439 1.433 . S
C438 C434 1.350 . S
C438 C435 1.463 . S
C438 N442 1.427 . S
C439 H429 0.929 . S
C439 C437 1.433 . S
C439 N442 1.384 . S
C440 H431 0.929 . S
C440 C432 1.378 . S
C440 C435 1.350 . S
C441 H428 0.929 . S
C441 C433 1.433 . S
C441 N443 1.384 . S
N442 C438 1.427 . S
N442 C439 1.384 . S
N443 C435 1.427 . S
N443 C441 1.384 . S
H444 C450 0.930 . S
H445 C454 0.930 1_554 S
H446 C459 0.929 . S
H447 C457 0.929 . S
H448 C452 0.929 . S
H449 C458 0.929 . S
C450 H444 0.930 . S
C450 C451 1.367 . S
C450 C458 1.378 . S
C451 C450 1.367 . S
C451 C459 1.433 . S
C452 H448 0.929 . S
C452 C454 1.378 . S
C452 C456 1.350 . S
C453 C456 1.463 . S
C453 C458 1.350 . S
C453 N461 1.427 . S
C454 H445 0.930 1_556 S
C454 C452 1.378 . S
C454 C455 1.367 . S
C455 C454 1.367 . S
C455 C457 1.433 . S
C456 C452 1.350 . S
C456 C453 1.463 . S
C456 N460 1.427 . S
C457 H447 0.929 . S
C457 C455 1.433 . S
C457 N460 1.384 . S
C458 H449 0.929 . S
C458 C450 1.378 . S
C458 C453 1.350 . S
C459 H446 0.929 . S
C459 C451 1.433 . S
C459 N461 1.384 . S
N460 C456 1.427 . S
N460 C457 1.384 . S
N461 C453 1.427 . S
N461 C459 1.384 . S
H462 C468 0.930 . S
H463 C472 0.930 . S
H464 C477 0.929 . S
H465 C475 0.929 . S
H466 C470 0.929 . S
H467 C476 0.929 . S
C468 H462 0.930 . S
C468 C469 1.367 . S
C468 C476 1.378 . S
C469 C468 1.367 . S
C469 C477 1.433 . S
C470 H466 0.929 . S
C470 C472 1.378 . S
C470 C474 1.350 . S
C471 C474 1.463 . S
C471 C476 1.350 . S
C471 N479 1.427 . S
C472 H463 0.930 . S
C472 C470 1.378 . S
C472 C473 1.367 . S
C473 C472 1.367 . S
C473 C475 1.433 . S
C474 C470 1.350 . S
C474 C471 1.463 . S
C474 N478 1.427 . S
C475 H465 0.929 . S
C475 C473 1.433 . S
C475 N478 1.384 . S
C476 H467 0.929 . S
C476 C468 1.378 . S
C476 C471 1.350 . S
C477 H464 0.929 . S
C477 C469 1.433 . S
C477 N479 1.384 . S
N478 C474 1.427 . S
N478 C475 1.384 . S
N479 C471 1.427 . S
N479 C477 1.384 . S
H480 C486 0.930 . S
H481 C490 0.930 . S
H482 C495 0.929 . S
H483 C493 0.929 . S
H484 C488 0.929 . S
H485 C494 0.929 . S
C486 H480 0.930 . S
C486 C487 1.367 . S
C486 C494 1.378 . S
C487 C486 1.367 . S
C487 C495 1.433 . S
C488 H484 0.929 . S
C488 C490 1.378 . S
C488 C492 1.350 . S
C489 C492 1.463 . S
C489 C494 1.350 . S
C489 N497 1.427 . S
C490 H481 0.930 . S
C490 C488 1.378 . S
C490 C491 1.367 . S
C491 C490 1.367 . S
C491 C493 1.433 . S
C492 C488 1.350 . S
C492 C489 1.463 . S
C492 N496 1.427 . S
C493 H483 0.929 . S
C493 C491 1.433 . S
C493 N496 1.384 . S
C494 H485 0.929 . S
C494 C486 1.378 . S
C494 C489 1.350 . S
C495 H482 0.929 . S
C495 C487 1.433 . S
C495 N497 1.384 . S
N496 C492 1.427 . S
N496 C493 1.384 . S
N497 C489 1.427 . S
N497 C495 1.384 . S
H498 C504 0.930 . S
H499 C508 0.930 . S
H500 C513 0.929 . S
H501 C511 0.929 . S
H502 C506 0.929 . S
H503 C512 0.929 . S
C504 H498 0.930 . S
C504 C505 1.367 . S
C504 C512 1.378 . S
C505 C504 1.367 . S
C505 C513 1.433 . S
C506 H502 0.929 . S
C506 C508 1.378 . S
C506 C510 1.350 . S
C507 C510 1.463 . S
C507 C512 1.350 . S
C507 N515 1.427 . S
C508 H499 0.930 . S
C508 C506 1.378 . S
C508 C509 1.367 . S
C509 C508 1.367 . S
C509 C511 1.433 . S
C510 C506 1.350 . S
C510 C507 1.463 . S
C510 N514 1.427 . S
C511 H501 0.929 . S
C511 C509 1.433 . S
C511 N514 1.384 . S
C512 H503 0.929 . S
C512 C504 1.378 . S
C512 C507 1.350 . S
C513 H500 0.929 . S
C513 C505 1.433 . S
C513 N515 1.384 . S
N514 C510 1.427 . S
N514 C511 1.384 . S
N515 C507 1.427 . S
N515 C513 1.384 . S
H516 C522 0.930 . S
H517 C526 0.930 . S
H518 C531 0.929 . S
H519 C529 0.929 . S
H520 C524 0.929 . S
H521 C530 0.929 . S
C522 H516 0.930 . S
C522 C523 1.367 . S
C522 C530 1.378 . S
C523 C522 1.367 . S
C523 C531 1.433 . S
C524 H520 0.929 . S
C524 C526 1.378 . S
C524 C528 1.350 . S
C525 C528 1.463 . S
C525 C530 1.350 . S
C525 N533 1.427 . S
C526 H517 0.930 . S
C526 C524 1.378 . S
C526 C527 1.367 . S
C527 C526 1.367 . S
C527 C529 1.433 . S
C528 C524 1.350 . S
C528 C525 1.463 . S
C528 N532 1.427 . S
C529 H519 0.929 . S
C529 C527 1.433 . S
C529 N532 1.384 . S
C530 H521 0.929 . S
C530 C522 1.378 . S
C530 C525 1.350 . S
C531 H518 0.929 . S
C531 C523 1.433 . S
C531 N533 1.384 . S
N532 C528 1.427 . S
N532 C529 1.384 . S
N533 C525 1.427 . S
N533 C531 1.384 . S
H534 C540 0.930 . S
H535 C544 0.930 . S
H536 C549 0.929 . S
H537 C547 0.929 . S
H538 C542 0.929 . S
H539 C548 0.929 . S
C540 H534 0.930 . S
C540 C541 1.367 . S
C540 C548 1.378 . S
C541 C540 1.367 . S
C541 C549 1.433 . S
C542 H538 0.929 . S
C542 C544 1.378 . S
C542 C546 1.350 . S
C543 C546 1.463 . S
C543 C548 1.350 . S
C543 N551 1.427 . S
C544 H535 0.930 . S
C544 C542 1.378 . S
C544 C545 1.367 . S
C545 C544 1.367 . S
C545 C547 1.433 . S
C546 C542 1.350 . S
C546 C543 1.463 . S
C546 N550 1.427 . S
C547 H537 0.929 . S
C547 C545 1.433 . S
C547 N550 1.384 . S
C548 H539 0.929 . S
C548 C540 1.378 . S
C548 C543 1.350 . S
C549 H536 0.929 . S
C549 C541 1.433 . S
C549 N551 1.384 . S
N550 C546 1.427 . S
N550 C547 1.384 . S
N551 C543 1.427 . S
N551 C549 1.384 . S
H552 C558 0.930 . S
H553 C562 0.930 . S
H554 C567 0.929 . S
H555 C565 0.929 . S
H556 C560 0.929 . S
H557 C566 0.929 . S
C558 H552 0.930 . S
C558 C559 1.367 . S
C558 C566 1.378 . S
C559 C558 1.367 . S
C559 C567 1.433 . S
C560 H556 0.929 . S
C560 C562 1.378 . S
C560 C564 1.350 . S
C561 C564 1.463 . S
C561 C566 1.350 . S
C561 N569 1.427 . S
C562 H553 0.930 . S
C562 C560 1.378 . S
C562 C563 1.367 . S
C563 C562 1.367 . S
C563 C565 1.433 . S
C564 C560 1.350 . S
C564 C561 1.463 . S
C564 N568 1.427 . S
C565 H555 0.929 . S
C565 C563 1.433 . S
C565 N568 1.384 . S
C566 H557 0.929 . S
C566 C558 1.378 . S
C566 C561 1.350 . S
C567 H554 0.929 . S
C567 C559 1.433 . S
C567 N569 1.384 . S
N568 C564 1.427 . S
N568 C565 1.384 . S
N569 C561 1.427 . S
N569 C567 1.384 . S
H570 C576 0.930 . S
H571 C580 0.930 . S
H572 C585 0.929 . S
H573 C583 0.929 . S
H574 C578 0.929 . S
H575 C584 0.929 . S
C576 H570 0.930 . S
C576 C577 1.367 . S
C576 C584 1.378 . S
C577 C576 1.367 . S
C577 C585 1.433 . S
C578 H574 0.929 . S
C578 C580 1.378 . S
C578 C582 1.350 . S
C579 C582 1.463 . S
C579 C584 1.350 . S
C579 N587 1.427 . S
C580 H571 0.930 . S
C580 C578 1.378 . S
C580 C581 1.367 . S
C581 C580 1.367 . S
C581 C583 1.433 . S
C582 C578 1.350 . S
C582 C579 1.463 . S
C582 N586 1.427 . S
C583 H573 0.929 . S
C583 C581 1.433 . S
C583 N586 1.384 . S
C584 H575 0.929 . S
C584 C576 1.378 . S
C584 C579 1.350 . S
C585 H572 0.929 . S
C585 C577 1.433 . S
C585 N587 1.384 . S
N586 C582 1.427 . S
N586 C583 1.384 . S
N587 C579 1.427 . S
N587 C585 1.384 . S
H588 C594 0.930 . S
H589 C598 0.930 . S
H590 C603 0.929 . S
H591 C601 0.929 . S
H592 C596 0.929 . S
H593 C602 0.940 . S
C594 H588 0.930 . S
C594 C595 1.367 . S
C594 C602 1.378 . S
C595 C594 1.367 . S
C595 C603 1.433 . S
C596 H592 0.929 . S
C596 C598 1.378 . S
C596 C600 1.350 . S
C597 C600 1.463 . S
C597 C602 1.350 . S
C597 N605 1.427 . S
C598 H589 0.930 . S
C598 C596 1.378 . S
C598 C599 1.367 . S
C599 C598 1.367 . S
C599 C601 1.433 1_556 S
C600 C596 1.350 . S
C600 C597 1.463 . S
C600 N604 1.427 1_556 S
C601 H591 0.929 . S
C601 C599 1.433 1_554 S
C601 N604 1.384 . S
C602 H593 0.940 . S
C602 C594 1.378 . S
C602 C597 1.350 . S
C603 H590 0.929 . S
C603 C595 1.433 . S
C603 N605 1.384 . S
N604 C600 1.427 1_554 S
N604 C601 1.384 . S
N605 C597 1.427 . S
N605 C603 1.384 . S
H606 C612 0.930 . S
H607 C616 0.930 . S
H608 C621 0.929 . S
H609 C619 0.929 . S
H610 C614 0.929 . S
H611 C620 0.929 . S
C612 H606 0.930 . S
C612 C613 1.367 . S
C612 C620 1.378 . S
C613 C612 1.367 . S
C613 C621 1.433 . S
C614 H610 0.929 . S
C614 C616 1.378 . S
C614 C618 1.350 . S
C615 C618 1.463 . S
C615 C620 1.350 . S
C615 N623 1.427 . S
C616 H607 0.930 . S
C616 C614 1.378 . S
C616 C617 1.367 . S
C617 C616 1.367 . S
C617 C619 1.433 . S
C618 C614 1.350 . S
C618 C615 1.463 . S
C618 N622 1.427 . S
C619 H609 0.929 . S
C619 C617 1.433 . S
C619 N622 1.384 . S
C620 H611 0.929 . S
C620 C612 1.378 . S
C620 C615 1.350 . S
C621 H608 0.929 . S
C621 C613 1.433 . S
C621 N623 1.384 . S
N622 C618 1.427 . S
N622 C619 1.384 . S
N623 C615 1.427 . S
N623 C621 1.384 . S
H624 C630 0.930 . S
H625 C634 0.930 . S
H626 C639 0.929 . S
H627 C637 0.929 . S
H628 C632 0.929 . S
H629 C638 0.929 . S
C630 H624 0.930 . S
C630 C631 1.367 . S
C630 C638 1.378 . S
C631 C630 1.367 . S
C631 C639 1.433 . S
C632 H628 0.929 . S
C632 C634 1.378 . S
C632 C636 1.350 . S
C633 C636 1.463 . S
C633 C638 1.350 . S
C633 N641 1.427 . S
C634 H625 0.930 . S
C634 C632 1.378 . S
C634 C635 1.367 . S
C635 C634 1.367 . S
C635 C637 1.433 . S
C636 C632 1.350 . S
C636 C633 1.463 . S
C636 N640 1.427 . S
C637 H627 0.929 . S
C637 C635 1.433 . S
C637 N640 1.384 . S
C638 H629 0.929 . S
C638 C630 1.378 . S
C638 C633 1.350 . S
C639 H626 0.929 . S
C639 C631 1.433 . S
C639 N641 1.384 . S
N640 C636 1.427 . S
N640 C637 1.384 . S
N641 C633 1.427 . S
N641 C639 1.384 . S
H642 C648 0.930 . S
H643 C652 0.930 . S
H644 C657 0.929 . S
H645 C655 0.929 . S
H646 C650 0.929 . S
H647 C656 0.929 . S
C648 H642 0.930 . S
C648 C649 1.367 . S
C648 C656 1.378 . S
C649 C648 1.367 . S
C649 C657 1.433 . S
C650 H646 0.929 . S
C650 C652 1.378 . S
C650 C654 1.350 . S
C651 C654 1.463 . S
C651 C656 1.350 . S
C651 N659 1.427 . S
C652 H643 0.930 . S
C652 C650 1.378 . S
C652 C653 1.367 . S
C653 C652 1.367 . S
C653 C655 1.433 . S
C654 C650 1.350 . S
C654 C651 1.463 . S
C654 N658 1.427 . S
C655 H645 0.929 . S
C655 C653 1.433 . S
C655 N658 1.384 . S
C656 H647 0.929 . S
C656 C648 1.378 . S
C656 C651 1.350 . S
C657 H644 0.929 . S
C657 C649 1.433 . S
C657 N659 1.384 . S
N658 C654 1.427 . S
N658 C655 1.384 . S
N659 C651 1.427 . S
N659 C657 1.384 . S
H660 C666 0.930 . S
H661 C670 0.930 . S
H662 C675 0.929 . S
H663 C673 0.929 . S
H664 C668 0.929 . S
H665 C674 0.929 . S
C666 H660 0.930 . S
C666 C667 1.367 . S
C666 C674 1.378 . S
C667 C666 1.367 . S
C667 C675 1.433 . S
C668 H664 0.929 . S
C668 C670 1.378 . S
C668 C672 1.350 . S
C669 C672 1.463 . S
C669 C674 1.350 . S
C669 N677 1.427 . S
C670 H661 0.930 . S
C670 C668 1.378 . S
C670 C671 1.367 . S
C671 C670 1.367 . S
C671 C673 1.433 . S
C672 C668 1.350 . S
C672 C669 1.463 . S
C672 N676 1.427 . S
C673 H663 0.929 . S
C673 C671 1.433 . S
C673 N676 1.384 . S
C674 H665 0.929 . S
C674 C666 1.378 . S
C674 C669 1.350 . S
C675 H662 0.929 . S
C675 C667 1.433 . S
C675 N677 1.384 . S
N676 C672 1.427 . S
N676 C673 1.384 . S
N677 C669 1.427 . S
N677 C675 1.384 . S
H678 C684 0.923 1_556 S
H679 C688 0.930 . S
H680 C693 0.929 . S
H681 C691 0.929 . S
H682 C686 0.929 . S
H683 C692 0.929 1_556 S
C684 H678 0.923 1_554 S
C684 C685 1.367 . S
C684 C692 1.378 . S
C685 C684 1.367 . S
C685 C693 1.433 . S
C686 H682 0.929 . S
C686 C688 1.378 . S
C686 C690 1.350 . S
C687 C690 1.463 . S
C687 C692 1.350 . S
C687 N695 1.427 . S
C688 H679 0.930 . S
C688 C686 1.378 . S
C688 C689 1.367 . S
C689 C688 1.367 . S
C689 C691 1.433 1_554 S
C690 C686 1.350 . S
C690 C687 1.463 . S
C690 N694 1.427 1_554 S
C691 H681 0.929 . S
C691 C689 1.433 1_556 S
C691 N694 1.384 . S
C692 H683 0.929 1_554 S
C692 C684 1.378 . S
C692 C687 1.350 . S
C693 H680 0.929 . S
C693 C685 1.433 . S
C693 N695 1.384 . S
N694 C690 1.427 1_556 S
N694 C691 1.384 . S
N695 C687 1.427 . S
N695 C693 1.384 . S
H696 C702 0.930 . S
H697 C706 0.930 . S
H698 C711 0.929 . S
H699 C709 0.929 . S
H700 C704 0.929 . S
H701 C710 0.929 . S
C702 H696 0.930 . S
C702 C703 1.367 . S
C702 C710 1.378 . S
C703 C702 1.367 . S
C703 C711 1.433 . S
C704 H700 0.929 . S
C704 C706 1.378 . S
C704 C708 1.350 . S
C705 C708 1.463 . S
C705 C710 1.350 . S
C705 N713 1.427 . S
C706 H697 0.930 . S
C706 C704 1.378 . S
C706 C707 1.367 . S
C707 C706 1.367 . S
C707 C709 1.433 . S
C708 C704 1.350 . S
C708 C705 1.463 . S
C708 N712 1.427 . S
C709 H699 0.929 . S
C709 C707 1.433 . S
C709 N712 1.384 . S
C710 H701 0.929 . S
C710 C702 1.378 . S
C710 C705 1.350 . S
C711 H698 0.929 . S
C711 C703 1.433 . S
C711 N713 1.384 . S
N712 C708 1.427 . S
N712 C709 1.384 . S
N713 C705 1.427 . S
N713 C711 1.384 . S
H714 C720 0.930 . S
H715 C724 0.930 . S
H716 C729 0.929 . S
H717 C727 0.929 . S
H718 C722 0.929 . S
H719 C728 0.929 . S
C720 H714 0.930 . S
C720 C721 1.367 . S
C720 C728 1.378 . S
C721 C720 1.367 . S
C721 C729 1.433 . S
C722 H718 0.929 . S
C722 C724 1.378 . S
C722 C726 1.350 . S
C723 C726 1.463 . S
C723 C728 1.350 . S
C723 N731 1.427 . S
C724 H715 0.930 . S
C724 C722 1.378 . S
C724 C725 1.367 . S
C725 C724 1.367 . S
C725 C727 1.433 . S
C726 C722 1.350 . S
C726 C723 1.463 . S
C726 N730 1.427 . S
C727 H717 0.929 . S
C727 C725 1.433 . S
C727 N730 1.384 . S
C728 H719 0.929 . S
C728 C720 1.378 . S
C728 C723 1.350 . S
C729 H716 0.929 . S
C729 C721 1.433 . S
C729 N731 1.384 . S
N730 C726 1.427 . S
N730 C727 1.384 . S
N731 C723 1.427 . S
N731 C729 1.384 . S
H732 C738 0.930 . S
H733 C742 0.930 . S
H734 C747 0.929 . S
H735 C745 0.929 . S
H736 C740 0.929 . S
H737 C746 0.929 . S
C738 H732 0.930 . S
C738 C739 1.367 . S
C738 C746 1.378 . S
C739 C738 1.367 . S
C739 C747 1.433 . S
C740 H736 0.929 . S
C740 C742 1.378 . S
C740 C744 1.350 . S
C741 C744 1.463 . S
C741 C746 1.350 . S
C741 N749 1.427 . S
C742 H733 0.930 . S
C742 C740 1.378 . S
C742 C743 1.367 . S
C743 C742 1.367 . S
C743 C745 1.433 . S
C744 C740 1.350 . S
C744 C741 1.463 . S
C744 N748 1.427 . S
C745 H735 0.929 . S
C745 C743 1.433 . S
C745 N748 1.384 . S
C746 H737 0.929 . S
C746 C738 1.378 . S
C746 C741 1.350 . S
C747 H734 0.929 . S
C747 C739 1.433 . S
C747 N749 1.384 . S
N748 C744 1.427 . S
N748 C745 1.384 . S
N749 C741 1.427 . S
N749 C747 1.384 . S
H750 C756 0.930 . S
H751 C760 0.930 . S
H752 C765 0.929 . S
H753 C763 0.929 . S
H754 C758 0.929 . S
H755 C764 0.929 . S
C756 H750 0.930 . S
C756 C757 1.367 . S
C756 C764 1.378 . S
C757 C756 1.367 . S
C757 C765 1.433 . S
C758 H754 0.929 . S
C758 C760 1.378 . S
C758 C762 1.350 . S
C759 C762 1.463 . S
C759 C764 1.350 . S
C759 N767 1.427 . S
C760 H751 0.930 . S
C760 C758 1.378 . S
C760 C761 1.367 . S
C761 C760 1.367 . S
C761 C763 1.433 . S
C762 C758 1.350 . S
C762 C759 1.463 . S
C762 N766 1.427 . S
C763 H753 0.929 . S
C763 C761 1.433 . S
C763 N766 1.384 . S
C764 H755 0.929 . S
C764 C756 1.378 . S
C764 C759 1.350 . S
C765 H752 0.929 . S
C765 C757 1.433 . S
C765 N767 1.384 . S
N766 C762 1.427 . S
N766 C763 1.384 . S
N767 C759 1.427 . S
N767 C765 1.384 . S
H768 C774 0.930 . S
H769 C778 0.930 . S
H770 C783 0.929 . S
H771 C781 0.929 . S
H772 C776 0.929 . S
H773 C782 0.929 . S
C774 H768 0.930 . S
C774 C775 1.367 . S
C774 C782 1.378 . S
C775 C774 1.367 . S
C775 C783 1.433 . S
C776 H772 0.929 . S
C776 C778 1.378 . S
C776 C780 1.350 . S
C777 C780 1.463 . S
C777 C782 1.350 . S
C777 N785 1.427 . S
C778 H769 0.930 . S
C778 C776 1.378 . S
C778 C779 1.367 . S
C779 C778 1.367 . S
C779 C781 1.433 . S
C780 C776 1.350 . S
C780 C777 1.463 . S
C780 N784 1.427 . S
C781 H771 0.929 . S
C781 C779 1.433 . S
C781 N784 1.384 . S
C782 H773 0.929 . S
C782 C774 1.378 . S
C782 C777 1.350 . S
C783 H770 0.929 . S
C783 C775 1.433 . S
C783 N785 1.384 . S
N784 C780 1.427 . S
N784 C781 1.384 . S
N785 C777 1.427 . S
N785 C783 1.384 . S
H786 C792 0.930 . S
H787 C796 0.930 . S
H788 C801 0.929 . S
H789 C799 0.929 . S
H790 C794 0.929 . S
H791 C800 0.929 . S
C792 H786 0.930 . S
C792 C793 1.367 . S
C792 C800 1.378 . S
C793 C792 1.367 . S
C793 C801 1.433 . S
C794 H790 0.929 . S
C794 C796 1.378 . S
C794 C798 1.350 . S
C795 C798 1.463 . S
C795 C800 1.350 . S
C795 N803 1.427 . S
C796 H787 0.930 . S
C796 C794 1.378 . S
C796 C797 1.367 . S
C797 C796 1.367 . S
C797 C799 1.433 . S
C798 C794 1.350 . S
C798 C795 1.463 . S
C798 N802 1.427 . S
C799 H789 0.929 . S
C799 C797 1.433 . S
C799 N802 1.384 . S
C800 H791 0.929 . S
C800 C792 1.378 . S
C800 C795 1.350 . S
C801 H788 0.929 . S
C801 C793 1.433 . S
C801 N803 1.384 . S
N802 C798 1.427 . S
N802 C799 1.384 . S
N803 C795 1.427 . S
N803 C801 1.384 . S
H804 C810 0.930 . S
H805 C814 0.930 . S
H806 C819 0.929 . S
H807 C817 0.929 . S
H808 C812 0.929 . S
H809 C818 0.929 . S
C810 H804 0.930 . S
C810 C811 1.367 . S
C810 C818 1.378 . S
C811 C810 1.367 . S
C811 C819 1.433 . S
C812 H808 0.929 . S
C812 C814 1.378 . S
C812 C816 1.350 . S
C813 C816 1.463 . S
C813 C818 1.350 . S
C813 N821 1.427 . S
C814 H805 0.930 . S
C814 C812 1.378 . S
C814 C815 1.367 . S
C815 C814 1.367 . S
C815 C817 1.433 . S
C816 C812 1.350 . S
C816 C813 1.463 . S
C816 N820 1.427 . S
C817 H807 0.929 . S
C817 C815 1.433 . S
C817 N820 1.384 . S
C818 H809 0.929 . S
C818 C810 1.378 . S
C818 C813 1.350 . S
C819 H806 0.929 . S
C819 C811 1.433 . S
C819 N821 1.384 . S
N820 C816 1.427 . S
N820 C817 1.384 . S
N821 C813 1.427 . S
N821 C819 1.384 . S
H822 C828 0.930 . S
H823 C832 0.930 1_545 S
H824 C837 0.929 1_545 S
H825 C835 0.929 . S
H826 C830 0.929 1_545 S
H827 C836 0.929 . S
C828 H822 0.930 . S
C828 C829 1.367 . S
C828 C836 1.378 . S
C829 C828 1.367 . S
C829 C837 1.433 . S
C830 H826 0.929 1_565 S
C830 C832 1.378 . S
C830 C834 1.350 . S
C831 C834 1.463 . S
C831 C836 1.350 . S
C831 N839 1.427 . S
C832 H823 0.930 1_565 S
C832 C830 1.378 . S
C832 C833 1.367 . S
C833 C832 1.367 . S
C833 C835 1.433 . S
C834 C830 1.350 . S
C834 C831 1.463 . S
C834 N838 1.427 . S
C835 H825 0.929 . S
C835 C833 1.433 . S
C835 N838 1.384 . S
C836 H827 0.929 . S
C836 C828 1.378 . S
C836 C831 1.350 . S
C837 H824 0.929 1_565 S
C837 C829 1.433 . S
C837 N839 1.384 . S
N838 C834 1.427 . S
N838 C835 1.384 . S
N839 C831 1.427 . S
N839 C837 1.384 . S
H840 C846 0.930 . S
H841 C850 0.930 . S
H842 C855 0.929 . S
H843 C853 0.929 . S
H844 C848 0.929 . S
H845 C854 0.929 . S
C846 H840 0.930 . S
C846 C847 1.367 . S
C846 C854 1.378 . S
C847 C846 1.367 . S
C847 C855 1.433 . S
C848 H844 0.929 . S
C848 C850 1.378 . S
C848 C852 1.350 . S
C849 C852 1.463 . S
C849 C854 1.350 . S
C849 N857 1.427 . S
C850 H841 0.930 . S
C850 C848 1.378 . S
C850 C851 1.367 . S
C851 C850 1.367 . S
C851 C853 1.433 . S
C852 C848 1.350 . S
C852 C849 1.463 . S
C852 N856 1.427 . S
C853 H843 0.929 . S
C853 C851 1.433 . S
C853 N856 1.384 . S
C854 H845 0.929 . S
C854 C846 1.378 . S
C854 C849 1.350 . S
C855 H842 0.929 . S
C855 C847 1.433 . S
C855 N857 1.384 . S
N856 C852 1.427 . S
N856 C853 1.384 . S
N857 C849 1.427 . S
N857 C855 1.384 . S
H858 C864 0.930 . S
H859 C868 0.930 . S
H860 C873 0.929 . S
H861 C871 0.929 . S
H862 C866 0.929 . S
H863 C872 0.929 . S
C864 H858 0.930 . S
C864 C865 1.367 . S
C864 C872 1.378 . S
C865 C864 1.367 . S
C865 C873 1.433 . S
C866 H862 0.929 . S
C866 C868 1.378 . S
C866 C870 1.350 . S
C867 C870 1.457 1_455 S
C867 C872 1.367 . S
C867 N875 1.415 . S
C868 H859 0.930 . S
C868 C866 1.378 . S
C868 C869 1.367 . S
C869 C868 1.367 . S
C869 C871 1.433 . S
C870 C866 1.350 . S
C870 C867 1.457 1_655 S
C870 N874 1.427 . S
C871 H861 0.929 . S
C871 C869 1.433 . S
C871 N874 1.384 . S
C872 H863 0.929 . S
C872 C864 1.378 . S
C872 C867 1.367 . S
C873 H860 0.929 . S
C873 C865 1.433 . S
C873 N875 1.384 . S
N874 C870 1.427 . S
N874 C871 1.384 . S
N875 C867 1.415 . S
N875 C873 1.384 . S
H876 C882 0.930 . S
H877 C886 0.930 . S
H878 C891 0.929 . S
H879 C889 0.929 . S
H880 C884 0.929 . S
H881 C890 0.929 . S
C882 H876 0.930 . S
C882 C883 1.367 . S
C882 C890 1.378 . S
C883 C882 1.367 . S
C883 C891 1.433 1_545 S
C884 H880 0.929 . S
C884 C886 1.378 . S
C884 C888 1.350 . S
C885 C888 1.463 1_546 S
C885 C890 1.350 . S
C885 N893 1.427 1_545 S
C886 H877 0.930 . S
C886 C884 1.378 . S
C886 C887 1.367 . S
C887 C886 1.367 . S
C887 C889 1.433 1_565 S
C888 C884 1.350 . S
C888 C885 1.463 1_564 S
C888 N892 1.427 1_565 S
C889 H879 0.929 . S
C889 C887 1.433 1_545 S
C889 N892 1.384 . S
C890 H881 0.929 . S
C890 C882 1.378 . S
C890 C885 1.350 . S
C891 H878 0.929 . S
C891 C883 1.433 1_565 S
C891 N893 1.384 . S
N892 C888 1.427 1_545 S
N892 C889 1.384 . S
N893 C885 1.427 1_565 S
N893 C891 1.384 . S
H894 C900 0.930 . S
H895 C904 0.930 . S
H896 C909 0.929 . S
H897 C907 0.929 . S
H898 C902 0.929 . S
H899 C908 0.929 . S
C900 H894 0.930 . S
C900 C901 1.367 . S
C900 C908 1.378 . S
C901 C900 1.367 . S
C901 C909 1.433 . S
C902 H898 0.929 . S
C902 C904 1.378 . S
C902 C906 1.350 . S
C903 C906 1.463 . S
C903 C908 1.350 . S
C903 N911 1.427 . S
C904 H895 0.930 . S
C904 C902 1.378 . S
C904 C905 1.367 . S
C905 C904 1.367 . S
C905 C907 1.433 . S
C906 C902 1.350 . S
C906 C903 1.463 . S
C906 N910 1.427 . S
C907 H897 0.929 . S
C907 C905 1.433 . S
C907 N910 1.384 . S
C908 H899 0.929 . S
C908 C900 1.378 . S
C908 C903 1.350 . S
C909 H896 0.929 . S
C909 C901 1.433 . S
C909 N911 1.384 . S
N910 C906 1.427 . S
N910 C907 1.384 . S
N911 C903 1.427 . S
N911 C909 1.384 . S
H912 C918 0.930 . S
H913 C922 0.930 . S
H914 C927 0.929 . S
H915 C925 0.929 . S
H916 C920 0.931 1_655 S
H917 C926 0.920 . S
C918 H912 0.930 . S
C918 C919 1.367 . S
C918 C926 1.378 . S
C919 C918 1.367 . S
C919 C927 1.433 . S
C920 H916 0.931 1_455 S
C920 C922 1.379 . S
C920 C924 1.357 . S
C921 C924 1.458 1_655 S
C921 C926 1.350 . S
C921 N929 1.427 . S
C922 H913 0.930 . S
C922 C920 1.379 . S
C922 C923 1.367 . S
C923 C922 1.367 . S
C923 C925 1.433 . S
C924 C920 1.357 . S
C924 C921 1.458 1_455 S
C924 N928 1.420 . S
C925 H915 0.929 . S
C925 C923 1.433 . S
C925 N928 1.384 . S
C926 H917 0.920 . S
C926 C918 1.378 . S
C926 C921 1.350 . S
C927 H914 0.929 . S
C927 C919 1.433 . S
C927 N929 1.384 . S
N928 C924 1.420 . S
N928 C925 1.384 . S
N929 C921 1.427 . S
N929 C927 1.384 . S
H930 C936 0.930 . S
H931 C940 0.930 . S
H932 C945 0.929 . S
H933 C943 0.929 . S
H934 C938 0.929 . S
H935 C944 0.929 . S
C936 H930 0.930 . S
C936 C937 1.367 . S
C936 C944 1.378 . S
C937 C936 1.367 . S
C937 C945 1.433 . S
C938 H934 0.929 . S
C938 C940 1.378 . S
C938 C942 1.350 . S
C939 C942 1.463 1_545 S
C939 C944 1.350 . S
C939 N947 1.427 . S
C940 H931 0.930 . S
C940 C938 1.378 . S
C940 C941 1.367 . S
C941 C940 1.367 . S
C941 C943 1.433 . S
C942 C938 1.350 . S
C942 C939 1.463 1_565 S
C942 N946 1.427 . S
C943 H933 0.929 . S
C943 C941 1.433 . S
C943 N946 1.384 . S
C944 H935 0.929 . S
C944 C936 1.378 . S
C944 C939 1.350 . S
C945 H932 0.929 . S
C945 C937 1.433 . S
C945 N947 1.384 . S
N946 C942 1.427 . S
N946 C943 1.384 . S
N947 C939 1.427 . S
N947 C945 1.384 . S
C415 C292 0.894 . S
C419 C20 0.895 . S
C433 C54 0.880 . S
C437 C326 0.887 . S
C451 C88 0.896 . S
C455 C360 0.895 . S
C469 C122 0.888 . S
C473 C394 0.881 . S
C487 C156 0.880 . S
C491 C224 0.888 . S
C505 C190 0.890 . S
C509 C258 0.882 . S
C523 C9 1.612 . S
C527 C203 1.788 . S
C541 C33 1.789 . S
C545 C43 1.627 . S
C559 C77 1.618 . S
C563 C67 1.787 . S
C577 C101 1.789 . S
C581 C111 1.610 . S
C595 C135 1.789 . S
C599 C145 1.627 1_556 S
C613 C179 1.608 . S
C617 C169 1.790 . S
C631 C271 1.789 . S
C635 C213 1.611 . S
C649 C305 1.793 . S
C653 C247 1.621 . S
C667 C339 1.789 . S
C671 C281 1.609 . S
C685 C373 1.787 . S
C689 C315 1.620 1_554 S
C703 C407 1.787 . S
C707 C349 1.620 . S
C721 C383 1.624 . S
C725 C237 1.787 . S
C739 C2 1.090 . S
C743 C206 1.090 . S
C757 C36 1.108 . S
C761 C240 1.105 . S
C775 C70 1.094 . S
C779 C274 1.090 . S
C793 C104 1.097 . S
C797 C308 1.103 . S
C811 C342 1.108 . S
C815 C138 1.106 . S
C829 C172 1.097 . S
C833 C376 1.103 . S
C847 C311 1.290 . S
C851 C5 1.299 . S
C865 C39 1.290 . S
C869 C345 1.298 . S
C883 C73 1.292 . S
C887 C379 1.287 . S
C901 C107 1.300 . S
C905 C209 1.299 . S
C919 C141 1.290 . S
C923 C243 1.299 . S
C937 C277 1.290 . S
C941 C175 1.298 . S
