# Generated by pormake.
# Topology mer, (4)-cn, num edge types: 1
# Building blocks:
#     Node 0, Type 0, BuildingBlock: CEKHIL_clean_sbu_0, # of connection points: 4
#     Node 1, Type 0, BuildingBlock: CEKHIL_clean_sbu_0, # of connection points: 4
#     Node 2, Type 0, BuildingBlock: CEKHIL_clean_sbu_0, # of connection points: 4
#     Node 3, Type 0, BuildingBlock: CEKHIL_clean_sbu_0, # of connection points: 4
#     Node 4, Type 0, BuildingBlock: CEKHIL_clean_sbu_0, # of connection points: 4
#     Node 5, Type 0, BuildingBlock: CEKHIL_clean_sbu_0, # of connection points: 4
#     Node 6, Type 0, BuildingBlock: CEKHIL_clean_sbu_0, # of connection points: 4
#     Node 7, Type 0, BuildingBlock: CEKHIL_clean_sbu_0, # of connection points: 4
#     Node 8, Type 0, BuildingBlock: CEKHIL_clean_sbu_0, # of connection points: 4
#     Node 9, Type 0, BuildingBlock: CEKHIL_clean_sbu_0, # of connection points: 4
#     Node 10, Type 0, BuildingBlock: CEKHIL_clean_sbu_0, # of connection points: 4
#     Node 11, Type 0, BuildingBlock: CEKHIL_clean_sbu_0, # of connection points: 4
#     Node 12, Type 0, BuildingBlock: CEKHIL_clean_sbu_0, # of connection points: 4
#     Node 13, Type 0, BuildingBlock: CEKHIL_clean_sbu_0, # of connection points: 4
#     Node 14, Type 0, BuildingBlock: CEKHIL_clean_sbu_0, # of connection points: 4
#     Node 15, Type 0, BuildingBlock: CEKHIL_clean_sbu_0, # of connection points: 4
#     Node 16, Type 0, BuildingBlock: CEKHIL_clean_sbu_0, # of connection points: 4
#     Node 17, Type 0, BuildingBlock: CEKHIL_clean_sbu_0, # of connection points: 4
#     Node 18, Type 0, BuildingBlock: CEKHIL_clean_sbu_0, # of connection points: 4
#     Node 19, Type 0, BuildingBlock: CEKHIL_clean_sbu_0, # of connection points: 4
#     Node 20, Type 0, BuildingBlock: CEKHIL_clean_sbu_0, # of connection points: 4
#     Node 21, Type 0, BuildingBlock: CEKHIL_clean_sbu_0, # of connection points: 4
#     Node 22, Type 0, BuildingBlock: CEKHIL_clean_sbu_0, # of connection points: 4
#     Node 23, Type 0, BuildingBlock: CEKHIL_clean_sbu_0, # of connection points: 4
#     Node 24, Type 0, BuildingBlock: CEKHIL_clean_sbu_0, # of connection points: 4
#     Node 25, Type 0, BuildingBlock: CEKHIL_clean_sbu_0, # of connection points: 4
#     Node 26, Type 0, BuildingBlock: CEKHIL_clean_sbu_0, # of connection points: 4
#     Node 27, Type 0, BuildingBlock: CEKHIL_clean_sbu_0, # of connection points: 4
#     Node 28, Type 0, BuildingBlock: CEKHIL_clean_sbu_0, # of connection points: 4
#     Node 29, Type 0, BuildingBlock: CEKHIL_clean_sbu_0, # of connection points: 4
#     Node 30, Type 0, BuildingBlock: CEKHIL_clean_sbu_0, # of connection points: 4
#     Node 31, Type 0, BuildingBlock: CEKHIL_clean_sbu_0, # of connection points: 4
#     Edge 32, Type (0, 0), BuildingBlock: TEMPAE_clean_linker_10, # of connection points: 2
#     Edge 33, Type (0, 0), BuildingBlock: TEMPAE_clean_linker_10, # of connection points: 2
#     Edge 34, Type (0, 0), BuildingBlock: TEMPAE_clean_linker_10, # of connection points: 2
#     Edge 35, Type (0, 0), BuildingBlock: TEMPAE_clean_linker_10, # of connection points: 2
#     Edge 36, Type (0, 0), BuildingBlock: TEMPAE_clean_linker_10, # of connection points: 2
#     Edge 37, Type (0, 0), BuildingBlock: TEMPAE_clean_linker_10, # of connection points: 2
#     Edge 38, Type (0, 0), BuildingBlock: TEMPAE_clean_linker_10, # of connection points: 2
#     Edge 39, Type (0, 0), BuildingBlock: TEMPAE_clean_linker_10, # of connection points: 2
#     Edge 40, Type (0, 0), BuildingBlock: TEMPAE_clean_linker_10, # of connection points: 2
#     Edge 41, Type (0, 0), BuildingBlock: TEMPAE_clean_linker_10, # of connection points: 2
#     Edge 42, Type (0, 0), BuildingBlock: TEMPAE_clean_linker_10, # of connection points: 2
#     Edge 43, Type (0, 0), BuildingBlock: TEMPAE_clean_linker_10, # of connection points: 2
#     Edge 44, Type (0, 0), BuildingBlock: TEMPAE_clean_linker_10, # of connection points: 2
#     Edge 45, Type (0, 0), BuildingBlock: TEMPAE_clean_linker_10, # of connection points: 2
#     Edge 46, Type (0, 0), BuildingBlock: TEMPAE_clean_linker_10, # of connection points: 2
#     Edge 47, Type (0, 0), BuildingBlock: TEMPAE_clean_linker_10, # of connection points: 2
#     Edge 48, Type (0, 0), BuildingBlock: TEMPAE_clean_linker_10, # of connection points: 2
#     Edge 49, Type (0, 0), BuildingBlock: TEMPAE_clean_linker_10, # of connection points: 2
#     Edge 50, Type (0, 0), BuildingBlock: TEMPAE_clean_linker_10, # of connection points: 2
#     Edge 51, Type (0, 0), BuildingBlock: TEMPAE_clean_linker_10, # of connection points: 2
#     Edge 52, Type (0, 0), BuildingBlock: TEMPAE_clean_linker_10, # of connection points: 2
#     Edge 53, Type (0, 0), BuildingBlock: TEMPAE_clean_linker_10, # of connection points: 2
#     Edge 54, Type (0, 0), BuildingBlock: TEMPAE_clean_linker_10, # of connection points: 2
#     Edge 55, Type (0, 0), BuildingBlock: TEMPAE_clean_linker_10, # of connection points: 2
#     Edge 56, Type (0, 0), BuildingBlock: TEMPAE_clean_linker_10, # of connection points: 2
#     Edge 57, Type (0, 0), BuildingBlock: TEMPAE_clean_linker_10, # of connection points: 2
#     Edge 58, Type (0, 0), BuildingBlock: TEMPAE_clean_linker_10, # of connection points: 2
#     Edge 59, Type (0, 0), BuildingBlock: TEMPAE_clean_linker_10, # of connection points: 2
#     Edge 60, Type (0, 0), BuildingBlock: TEMPAE_clean_linker_10, # of connection points: 2
#     Edge 61, Type (0, 0), BuildingBlock: TEMPAE_clean_linker_10, # of connection points: 2
#     Edge 62, Type (0, 0), BuildingBlock: TEMPAE_clean_linker_10, # of connection points: 2
#     Edge 63, Type (0, 0), BuildingBlock: TEMPAE_clean_linker_10, # of connection points: 2
#     Edge 64, Type (0, 0), BuildingBlock: TEMPAE_clean_linker_10, # of connection points: 2
#     Edge 65, Type (0, 0), BuildingBlock: TEMPAE_clean_linker_10, # of connection points: 2
#     Edge 66, Type (0, 0), BuildingBlock: TEMPAE_clean_linker_10, # of connection points: 2
#     Edge 67, Type (0, 0), BuildingBlock: TEMPAE_clean_linker_10, # of connection points: 2
#     Edge 68, Type (0, 0), BuildingBlock: TEMPAE_clean_linker_10, # of connection points: 2
#     Edge 69, Type (0, 0), BuildingBlock: TEMPAE_clean_linker_10, # of connection points: 2
#     Edge 70, Type (0, 0), BuildingBlock: TEMPAE_clean_linker_10, # of connection points: 2
#     Edge 71, Type (0, 0), BuildingBlock: TEMPAE_clean_linker_10, # of connection points: 2
#     Edge 72, Type (0, 0), BuildingBlock: TEMPAE_clean_linker_10, # of connection points: 2
#     Edge 73, Type (0, 0), BuildingBlock: TEMPAE_clean_linker_10, # of connection points: 2
#     Edge 74, Type (0, 0), BuildingBlock: TEMPAE_clean_linker_10, # of connection points: 2
#     Edge 75, Type (0, 0), BuildingBlock: TEMPAE_clean_linker_10, # of connection points: 2
#     Edge 76, Type (0, 0), BuildingBlock: TEMPAE_clean_linker_10, # of connection points: 2
#     Edge 77, Type (0, 0), BuildingBlock: TEMPAE_clean_linker_10, # of connection points: 2
#     Edge 78, Type (0, 0), BuildingBlock: TEMPAE_clean_linker_10, # of connection points: 2
#     Edge 79, Type (0, 0), BuildingBlock: TEMPAE_clean_linker_10, # of connection points: 2
#     Edge 80, Type (0, 0), BuildingBlock: TEMPAE_clean_linker_10, # of connection points: 2
#     Edge 81, Type (0, 0), BuildingBlock: TEMPAE_clean_linker_10, # of connection points: 2
#     Edge 82, Type (0, 0), BuildingBlock: TEMPAE_clean_linker_10, # of connection points: 2
#     Edge 83, Type (0, 0), BuildingBlock: TEMPAE_clean_linker_10, # of connection points: 2
#     Edge 84, Type (0, 0), BuildingBlock: TEMPAE_clean_linker_10, # of connection points: 2
#     Edge 85, Type (0, 0), BuildingBlock: TEMPAE_clean_linker_10, # of connection points: 2
#     Edge 86, Type (0, 0), BuildingBlock: TEMPAE_clean_linker_10, # of connection points: 2
#     Edge 87, Type (0, 0), BuildingBlock: TEMPAE_clean_linker_10, # of connection points: 2
#     Edge 88, Type (0, 0), BuildingBlock: TEMPAE_clean_linker_10, # of connection points: 2
#     Edge 89, Type (0, 0), BuildingBlock: TEMPAE_clean_linker_10, # of connection points: 2
#     Edge 90, Type (0, 0), BuildingBlock: TEMPAE_clean_linker_10, # of connection points: 2
#     Edge 91, Type (0, 0), BuildingBlock: TEMPAE_clean_linker_10, # of connection points: 2
#     Edge 92, Type (0, 0), BuildingBlock: TEMPAE_clean_linker_10, # of connection points: 2
#     Edge 93, Type (0, 0), BuildingBlock: TEMPAE_clean_linker_10, # of connection points: 2
#     Edge 94, Type (0, 0), BuildingBlock: TEMPAE_clean_linker_10, # of connection points: 2
#     Edge 95, Type (0, 0), BuildingBlock: TEMPAE_clean_linker_10, # of connection points: 2
# Relax obj value: 0.065
# Max RMSD: 0.119
# Mean RMSD: 0.119
data_MOF--net-mer--node1-CEKHIL_clean_sbu_0--edge1-TEMPAE_clean_linker_10
_symmetry_space_group_name_H-M    P1
_symmetry_Int_Tables_number       1
_symmetry_cell_setting            triclinic
loop_
_symmetry_equiv_pos_as_xyz
'x, y, z'
_cell_length_a     62.840565
_cell_length_b     62.844076
_cell_length_c     53.864884
_cell_angle_alpha  90.010903
_cell_angle_beta   90.008963
_cell_angle_gamma 89.989527
loop_
_atom_site_label
_atom_site_type_symbol
_atom_site_fract_x
_atom_site_fract_y
_atom_site_fract_z
_atom_type_partial_charge
Co0 Co 0.11439 0.28958 0.35896 0.0
O1 O 0.08631 0.30144 0.35705 0.0
O2 O 0.09353 0.26775 0.36615 0.0
C3 C 0.12647 0.30441 0.32388 0.0
O4 O 0.14115 0.27134 0.36093 0.0
Co5 Co 0.15403 0.31872 0.36402 0.0
O6 O 0.17017 0.29218 0.35782 0.0
C7 C 0.12765 0.31 0.40802 0.0
C8 C 0.07939 0.28255 0.36245 0.0
C9 C 0.16139 0.27394 0.35879 0.0
O10 O 0.11615 0.29699 0.39536 0.0
O11 O 0.14273 0.32107 0.39866 0.0
O12 O 0.11547 0.28692 0.32294 0.0
O13 O 0.12821 0.31328 0.34539 0.0
Co14 Co 0.71344 0.11308 0.35252 0.0
O15 O 0.70207 0.08486 0.35009 0.0
O16 O 0.73605 0.09245 0.35693 0.0
C17 C 0.69649 0.12651 0.31928 0.0
O18 O 0.73093 0.14023 0.35474 0.0
Co19 Co 0.68291 0.15104 0.36269 0.0
O20 O 0.70885 0.16843 0.35698 0.0
C21 C 0.69368 0.12172 0.4031 0.0
C22 C 0.72132 0.07813 0.3538 0.0
C23 C 0.72744 0.16041 0.35528 0.0
O24 O 0.70824 0.11335 0.38945 0.0
O25 O 0.68028 0.13541 0.39503 0.0
O26 O 0.71392 0.11564 0.3164 0.0
O27 O 0.68886 0.12689 0.34151 0.0
Co28 Co 0.88464 0.70864 0.35338 0.0
O29 O 0.91306 0.69762 0.35126 0.0
O30 O 0.90483 0.73129 0.35945 0.0
C31 C 0.87241 0.69257 0.31894 0.0
O32 O 0.85734 0.72607 0.35552 0.0
Co33 Co 0.84612 0.67844 0.36052 0.0
O34 O 0.8289 0.70432 0.35443 0.0
C35 C 0.87304 0.68908 0.4035 0.0
C36 C 0.91935 0.71684 0.35607 0.0
C37 C 0.83713 0.72285 0.35446 0.0
O38 O 0.88377 0.70213 0.39004 0.0
O39 O 0.85817 0.67725 0.39494 0.0
O40 O 0.88292 0.71033 0.31731 0.0
O41 O 0.87129 0.68422 0.34082 0.0
Co42 Co 0.28836 0.8849 0.35343 0.0
O43 O 0.30028 0.91293 0.35132 0.0
O44 O 0.26638 0.90585 0.35946 0.0
C45 C 0.30393 0.87199 0.31904 0.0
O46 O 0.2702 0.85823 0.35546 0.0
Co47 Co 0.31783 0.84578 0.36092 0.0
O48 O 0.2913 0.82927 0.35528 0.0
C49 C 0.30932 0.87428 0.40286 0.0
C50 C 0.28127 0.91992 0.35597 0.0
C51 C 0.27296 0.83796 0.35478 0.0
O52 O 0.29475 0.88361 0.39009 0.0
O53 O 0.3219 0.86027 0.39379 0.0
O54 O 0.28662 0.88323 0.31732 0.0
O55 O 0.31227 0.87078 0.3409 0.0
Co56 Co 0.11337 0.71525 0.63646 0.0
O57 O 0.08452 0.70546 0.6346 0.0
O58 O 0.09452 0.73919 0.63098 0.0
C59 C 0.12295 0.69687 0.67039 0.0
O60 O 0.14154 0.73113 0.63807 0.0
Co61 Co 0.15037 0.68275 0.62987 0.0
O62 O 0.16859 0.70759 0.63818 0.0
C63 C 0.1247 0.69549 0.58688 0.0
C64 C 0.07926 0.7252 0.63116 0.0
C65 C 0.16147 0.72657 0.63956 0.0
O66 O 0.11658 0.71077 0.59962 0.0
O67 O 0.13667 0.6811 0.59626 0.0
O68 O 0.11278 0.71478 0.67266 0.0
O69 O 0.12476 0.68965 0.64807 0.0
Co70 Co 0.28698 0.11248 0.63835 0.0
O71 O 0.29805 0.08408 0.63941 0.0
O72 O 0.26421 0.09235 0.6324 0.0
C73 C 0.30356 0.12422 0.67252 0.0
O74 O 0.26978 0.13992 0.63734 0.0
Co75 Co 0.31812 0.15044 0.63053 0.0
O76 O 0.29207 0.16796 0.63457 0.0
C77 C 0.3076 0.12267 0.58866 0.0
C78 C 0.27875 0.0778 0.63514 0.0
C79 C 0.27344 0.16006 0.63643 0.0
O80 O 0.29261 0.11423 0.60158 0.0
O81 O 0.32121 0.13571 0.59765 0.0
O82 O 0.28613 0.11327 0.67456 0.0
O83 O 0.3115 0.1257 0.65051 0.0
Co84 Co 0.88735 0.2846 0.64259 0.0
O85 O 0.91582 0.29528 0.63946 0.0
O86 O 0.90653 0.26134 0.63542 0.0
C87 C 0.87897 0.30215 0.67759 0.0
O88 O 0.85996 0.26764 0.64505 0.0
Co89 Co 0.8485 0.31503 0.63994 0.0
O90 O 0.83261 0.28981 0.65247 0.0
C91 C 0.87215 0.30425 0.59437 0.0
C92 C 0.9214 0.27572 0.63526 0.0
C93 C 0.8404 0.27113 0.65072 0.0
O94 O 0.88242 0.28973 0.60617 0.0
O95 O 0.85942 0.31736 0.6049 0.0
O96 O 0.88946 0.28435 0.67874 0.0
O97 O 0.87567 0.30964 0.65562 0.0
Co98 Co 0.71077 0.88651 0.64208 0.0
O99 O 0.69999 0.9149 0.6454 0.0
O100 O 0.73362 0.90678 0.63708 0.0
C101 C 0.69448 0.87315 0.6758 0.0
O102 O 0.72768 0.85907 0.63876 0.0
Co103 Co 0.67933 0.84934 0.63238 0.0
O104 O 0.70513 0.83129 0.63588 0.0
C105 C 0.68988 0.87854 0.59185 0.0
C106 C 0.71925 0.9213 0.64105 0.0
C107 C 0.72387 0.83899 0.63735 0.0
O108 O 0.70464 0.88673 0.60534 0.0
O109 O 0.67644 0.86496 0.60005 0.0
O110 O 0.71226 0.88355 0.67808 0.0
O111 O 0.68618 0.8731 0.65388 0.0
Co112 Co 0.88745 0.71704 0.63778 0.0
O113 O 0.91617 0.7073 0.6414 0.0
O114 O 0.90698 0.74046 0.63224 0.0
C115 C 0.87484 0.70081 0.67196 0.0
O116 O 0.85943 0.73291 0.63393 0.0
Co117 Co 0.85079 0.68454 0.62984 0.0
O118 O 0.8328 0.70938 0.63916 0.0
C119 C 0.87966 0.69481 0.58849 0.0
C120 C 0.92197 0.72668 0.6367 0.0
C121 C 0.83967 0.72842 0.63737 0.0
O122 O 0.88783 0.71003 0.60129 0.0
O123 O 0.86611 0.68156 0.59723 0.0
O124 O 0.88447 0.71905 0.67382 0.0
O125 O 0.87492 0.69228 0.65018 0.0
Co126 Co 0.29027 0.88518 0.63722 0.0
O127 O 0.30213 0.91332 0.63614 0.0
O128 O 0.26811 0.90555 0.62986 0.0
C129 C 0.30626 0.87493 0.67254 0.0
O130 O 0.27205 0.85837 0.63754 0.0
Co131 Co 0.3185 0.84484 0.63425 0.0
O132 O 0.29282 0.83068 0.64795 0.0
C133 C 0.30887 0.86904 0.58856 0.0
C134 C 0.283 0.91988 0.63118 0.0
C135 C 0.27456 0.839 0.64466 0.0
O136 O 0.29662 0.88156 0.60087 0.0
O137 O 0.31959 0.85392 0.59848 0.0
O138 O 0.28884 0.88605 0.67335 0.0
O139 O 0.31435 0.87193 0.65076 0.0
Co140 Co 0.11363 0.28696 0.64266 0.0
O141 O 0.08523 0.29788 0.64487 0.0
O142 O 0.09345 0.26425 0.63673 0.0
C143 C 0.1259 0.3032 0.67702 0.0
O144 O 0.14099 0.26987 0.64012 0.0
Co145 Co 0.15193 0.31766 0.63559 0.0
O146 O 0.16874 0.29207 0.64517 0.0
C147 C 0.12365 0.3082 0.59342 0.0
C148 C 0.07886 0.27865 0.64021 0.0
C149 C 0.16094 0.27339 0.64357 0.0
O150 O 0.11457 0.29346 0.60612 0.0
O151 O 0.1375 0.32098 0.60245 0.0
O152 O 0.11544 0.28541 0.67884 0.0
O153 O 0.12687 0.31134 0.65507 0.0
Co154 Co 0.70982 0.11427 0.63913 0.0
O155 O 0.69778 0.08623 0.63686 0.0
O156 O 0.73225 0.09362 0.63446 0.0
C157 C 0.69144 0.12521 0.67252 0.0
O158 O 0.72815 0.14102 0.64143 0.0
Co159 Co 0.68111 0.15423 0.63146 0.0
O160 O 0.70728 0.17018 0.63975 0.0
C161 C 0.69426 0.12882 0.58822 0.0
C162 C 0.71717 0.07945 0.63423 0.0
C163 C 0.7254 0.16134 0.64212 0.0
O164 O 0.70657 0.11761 0.6021 0.0
O165 O 0.68184 0.1433 0.59652 0.0
O166 O 0.7082 0.11335 0.67523 0.0
O167 O 0.68504 0.12808 0.64997 0.0
Co168 Co 0.88631 0.28917 0.35943 0.0
O169 O 0.91416 0.30161 0.36179 0.0
O170 O 0.90699 0.26732 0.36695 0.0
C171 C 0.8766 0.30546 0.3241 0.0
O172 O 0.8599 0.27041 0.35779 0.0
Co173 Co 0.84541 0.31668 0.36157 0.0
O174 O 0.83184 0.29078 0.34763 0.0
C175 C 0.86845 0.30653 0.40793 0.0
C176 C 0.921 0.28254 0.36645 0.0
C177 C 0.84048 0.27264 0.35065 0.0
O178 O 0.88158 0.29479 0.39579 0.0
O179 O 0.85347 0.31721 0.39768 0.0
O180 O 0.88812 0.2883 0.32334 0.0
O181 O 0.87293 0.3132 0.3459 0.0
Co182 Co 0.71315 0.88566 0.3573 0.0
O183 O 0.70218 0.91418 0.3577 0.0
O184 O 0.73606 0.90547 0.36362 0.0
C185 C 0.69646 0.8752 0.3225 0.0
O186 O 0.73053 0.85828 0.35757 0.0
Co187 Co 0.68367 0.84636 0.36177 0.0
O188 O 0.70884 0.83091 0.34865 0.0
C189 C 0.69424 0.87142 0.40657 0.0
C190 C 0.72158 0.92019 0.36207 0.0
C191 C 0.72737 0.83876 0.35137 0.0
O192 O 0.70703 0.88309 0.39385 0.0
O193 O 0.68287 0.85656 0.39713 0.0
O194 O 0.71427 0.88565 0.32115 0.0
O195 O 0.68848 0.87294 0.34444 0.0
Co196 Co 0.1131 0.70954 0.35144 0.0
O197 O 0.08591 0.69568 0.35406 0.0
O198 O 0.09119 0.73041 0.35764 0.0
C199 C 0.12409 0.69229 0.31719 0.0
O200 O 0.13844 0.72978 0.34926 0.0
Co201 Co 0.15551 0.68426 0.35602 0.0
O202 O 0.16838 0.71085 0.34318 0.0
C203 C 0.13069 0.69448 0.40105 0.0
C204 C 0.07795 0.7145 0.35766 0.0
C205 C 0.15842 0.72846 0.34421 0.0
O206 O 0.11769 0.70569 0.38808 0.0
O207 O 0.14611 0.68383 0.39167 0.0
O208 O 0.11137 0.7085 0.31528 0.0
O209 O 0.12821 0.68594 0.33948 0.0
Co210 Co 0.28797 0.11316 0.35387 0.0
O211 O 0.3003 0.08522 0.35501 0.0
O212 O 0.26601 0.09237 0.36039 0.0
C213 C 0.30455 0.12385 0.31909 0.0
O214 O 0.26929 0.13967 0.35348 0.0
Co215 Co 0.31558 0.15387 0.3579 0.0
O216 O 0.28964 0.16816 0.34505 0.0
C217 C 0.30575 0.12896 0.40303 0.0
C218 C 0.28119 0.07833 0.3594 0.0
C219 C 0.2715 0.15939 0.3476 0.0
O220 O 0.29358 0.11658 0.3904 0.0
O221 O 0.31659 0.14413 0.39343 0.0
O222 O 0.28726 0.11257 0.31768 0.0
O223 O 0.31211 0.12684 0.34111 0.0
Co224 Co 0.61356 0.78428 0.85549 0.0
O225 O 0.58487 0.79458 0.85683 0.0
O226 O 0.59428 0.76073 0.86115 0.0
C227 C 0.6236 0.80202 0.82124 0.0
O228 O 0.64145 0.76792 0.85449 0.0
Co229 Co 0.65087 0.81628 0.86204 0.0
O230 O 0.66887 0.79102 0.85494 0.0
C231 C 0.6251 0.80411 0.90514 0.0
C232 C 0.57925 0.77497 0.8605 0.0
C233 C 0.66148 0.77215 0.85359 0.0
O234 O 0.61655 0.7891 0.89233 0.0
O235 O 0.63743 0.81819 0.89579 0.0
O236 O 0.61322 0.78422 0.8193 0.0
O237 O 0.6254 0.80958 0.84342 0.0
Co238 Co 0.21052 0.6159 0.85093 0.0
O239 O 0.19967 0.5874 0.8493 0.0
O240 O 0.2331 0.5959 0.85823 0.0
C241 C 0.19485 0.6269 0.8157 0.0
O242 O 0.22781 0.64326 0.85301 0.0
Co243 Co 0.18087 0.65524 0.85472 0.0
O244 O 0.2066 0.67089 0.84365 0.0
C245 C 0.19091 0.6302 0.89979 0.0
C246 C 0.21883 0.58123 0.85465 0.0
C247 C 0.22497 0.66294 0.84732 0.0
O248 O 0.20319 0.61785 0.88723 0.0
O249 O 0.18012 0.64539 0.89016 0.0
O250 O 0.21283 0.61669 0.81479 0.0
O251 O 0.18634 0.62883 0.83738 0.0
Co252 Co 0.38426 0.2107 0.85362 0.0
O253 O 0.41091 0.19606 0.85772 0.0
O254 O 0.40667 0.23112 0.85916 0.0
C255 C 0.37325 0.19265 0.82 0.0
O256 O 0.35958 0.23156 0.84977 0.0
Co257 Co 0.34104 0.18701 0.85849 0.0
O258 O 0.32948 0.21312 0.84288 0.0
C259 C 0.36571 0.19762 0.90347 0.0
C260 C 0.41931 0.21479 0.86047 0.0
C261 C 0.33981 0.23054 0.8436 0.0
O262 O 0.37904 0.20825 0.8903 0.0
O263 O 0.3501 0.18716 0.89428 0.0
O264 O 0.38654 0.20836 0.81764 0.0
O265 O 0.36863 0.18718 0.84248 0.0
Co266 Co 0.79044 0.38546 0.85649 0.0
O267 O 0.80397 0.41285 0.8583 0.0
O268 O 0.76917 0.40731 0.86106 0.0
C269 C 0.80838 0.37351 0.82313 0.0
O270 O 0.77052 0.35991 0.85476 0.0
Co271 Co 0.81578 0.34356 0.86324 0.0
O272 O 0.78985 0.33025 0.8491 0.0
C273 C 0.80475 0.3695 0.90716 0.0
C274 C 0.78498 0.42065 0.86106 0.0
C275 C 0.77206 0.33994 0.8497 0.0
O276 O 0.79379 0.38219 0.89347 0.0
O277 O 0.81544 0.35378 0.89858 0.0
O278 O 0.79186 0.38573 0.82033 0.0
O279 O 0.81454 0.37044 0.84573 0.0
Co280 Co 0.61203 0.21394 0.14089 0.0
O281 O 0.58305 0.2049 0.1441 0.0
O282 O 0.59315 0.23763 0.13399 0.0
C283 C 0.6236 0.1984 0.17591 0.0
O284 O 0.64039 0.22919 0.13727 0.0
Co285 Co 0.64828 0.18073 0.13509 0.0
O286 O 0.66662 0.20547 0.14371 0.0
C287 C 0.62101 0.19093 0.09222 0.0
C288 C 0.57782 0.22428 0.13859 0.0
C289 C 0.66006 0.22456 0.14115 0.0
O290 O 0.61225 0.20606 0.10464 0.0
O291 O 0.63439 0.17784 0.10163 0.0
O292 O 0.61437 0.21689 0.17687 0.0
O293 O 0.6238 0.18924 0.15447 0.0
Co294 Co 0.78773 0.61056 0.13715 0.0
O295 O 0.79845 0.58201 0.13583 0.0
O296 O 0.7645 0.59094 0.13134 0.0
C297 C 0.80515 0.62091 0.1715 0.0
O298 O 0.77088 0.63818 0.13826 0.0
Co299 Co 0.81903 0.64847 0.1308 0.0
O300 O 0.79351 0.666 0.13824 0.0
C301 C 0.80792 0.62212 0.08779 0.0
C302 C 0.77893 0.5761 0.13209 0.0
C303 C 0.77478 0.65826 0.13954 0.0
O304 O 0.7927 0.61365 0.10033 0.0
O305 O 0.82176 0.63461 0.09736 0.0
O306 O 0.78755 0.61018 0.17333 0.0
O307 O 0.81277 0.62284 0.14936 0.0
Co308 Co 0.38743 0.78838 0.13716 0.0
O309 O 0.41527 0.80063 0.14026 0.0
O310 O 0.40881 0.76674 0.13148 0.0
C311 C 0.37373 0.80352 0.17141 0.0
O312 O 0.361 0.76975 0.13417 0.0
Co313 Co 0.34773 0.81702 0.12935 0.0
O314 O 0.33164 0.79032 0.13467 0.0
C315 C 0.3758 0.80776 0.08692 0.0
C316 C 0.42261 0.78176 0.13556 0.0
C317 C 0.34066 0.77217 0.13475 0.0
O318 O 0.38697 0.79516 0.10051 0.0
O319 O 0.36028 0.81884 0.09524 0.0
O320 O 0.38504 0.78626 0.17316 0.0
O321 O 0.37273 0.81205 0.14963 0.0
Co322 Co 0.20949 0.38498 0.14034 0.0
O323 O 0.1968 0.41273 0.14132 0.0
O324 O 0.23089 0.40632 0.13353 0.0
C325 C 0.19401 0.37286 0.17516 0.0
O326 O 0.22845 0.35865 0.13919 0.0
Co327 Co 0.18206 0.34411 0.13531 0.0
O328 O 0.20812 0.33033 0.14847 0.0
C329 C 0.19154 0.36987 0.09081 0.0
C330 C 0.21563 0.42009 0.13642 0.0
C331 C 0.22626 0.33904 0.14561 0.0
O332 O 0.20312 0.38252 0.10384 0.0
O333 O 0.18124 0.35413 0.09994 0.0
O334 O 0.21105 0.38454 0.1765 0.0
O335 O 0.18599 0.37051 0.15326 0.0
Co336 Co 0.38582 0.21237 0.13925 0.0
O337 O 0.41427 0.20138 0.13794 0.0
O338 O 0.40572 0.23545 0.13402 0.0
C339 C 0.37506 0.19437 0.17305 0.0
O340 O 0.35841 0.2295 0.14032 0.0
Co341 Co 0.34761 0.18154 0.13181 0.0
O342 O 0.33025 0.20733 0.13853 0.0
C343 C 0.37389 0.19366 0.08914 0.0
C344 C 0.42041 0.22087 0.13447 0.0
C345 C 0.33826 0.22591 0.14052 0.0
O346 O 0.38287 0.20816 0.10233 0.0
O347 O 0.36111 0.1798 0.09811 0.0
O348 O 0.38592 0.21185 0.17547 0.0
O349 O 0.37319 0.18724 0.15069 0.0
Co350 Co 0.78688 0.38406 0.14296 0.0
O351 O 0.79695 0.41274 0.14596 0.0
O352 O 0.76348 0.4037 0.13805 0.0
C353 C 0.80377 0.37119 0.17659 0.0
O354 O 0.77059 0.35623 0.14006 0.0
Co355 Co 0.81902 0.34746 0.13318 0.0
O356 O 0.79365 0.32887 0.13693 0.0
C357 C 0.80756 0.3763 0.09257 0.0
C358 C 0.77749 0.41861 0.14174 0.0
C359 C 0.7748 0.33623 0.13868 0.0
O360 O 0.79272 0.38425 0.10614 0.0
O361 O 0.82132 0.36302 0.10075 0.0
O362 O 0.7858 0.38125 0.17901 0.0
O363 O 0.81187 0.37122 0.15456 0.0
Co364 Co 0.61641 0.78778 0.1409 0.0
O365 O 0.58874 0.8007 0.13901 0.0
O366 O 0.59513 0.76612 0.13516 0.0
C367 C 0.62744 0.80513 0.17508 0.0
O368 O 0.64252 0.76857 0.14233 0.0
Co369 Co 0.65774 0.81439 0.13585 0.0
O370 O 0.67127 0.7887 0.15034 0.0
C371 C 0.63287 0.80346 0.09102 0.0
C372 C 0.58143 0.78163 0.1354 0.0
C373 C 0.6622 0.77065 0.14848 0.0
O374 O 0.62013 0.7921 0.10417 0.0
O375 O 0.64827 0.81427 0.10019 0.0
O376 O 0.6156 0.78827 0.17708 0.0
O377 O 0.63065 0.81195 0.15277 0.0
Co378 Co 0.21125 0.61364 0.13503 0.0
O379 O 0.19804 0.5862 0.13181 0.0
O380 O 0.2328 0.59222 0.12968 0.0
C381 C 0.19304 0.62427 0.16875 0.0
O382 O 0.23067 0.63947 0.1379 0.0
Co383 Co 0.1843 0.65499 0.12918 0.0
O384 O 0.21087 0.66929 0.14022 0.0
C385 C 0.19405 0.62841 0.08565 0.0
C386 C 0.21715 0.57871 0.12903 0.0
C387 C 0.22872 0.65968 0.14104 0.0
O388 O 0.20813 0.61827 0.09828 0.0
O389 O 0.18127 0.64202 0.09519 0.0
O390 O 0.20943 0.61186 0.1712 0.0
O391 O 0.18706 0.62809 0.14628 0.0
Co392 Co 0.38767 0.78532 0.85193 0.0
O393 O 0.41646 0.79482 0.84803 0.0
O394 O 0.40694 0.76158 0.85643 0.0
C395 C 0.37432 0.80222 0.81862 0.0
O396 O 0.35965 0.76954 0.85566 0.0
Co397 Co 0.35181 0.81803 0.86258 0.0
O398 O 0.33271 0.79311 0.85808 0.0
C399 C 0.38181 0.80682 0.90211 0.0
C400 C 0.42204 0.77527 0.85222 0.0
C401 C 0.3397 0.7741 0.85661 0.0
O402 O 0.38883 0.79143 0.88868 0.0
O403 O 0.36863 0.82075 0.89413 0.0
O404 O 0.38404 0.78409 0.816 0.0
O405 O 0.37501 0.81045 0.84057 0.0
Co406 Co 0.21204 0.38846 0.8556 0.0
O407 O 0.20013 0.41652 0.85699 0.0
O408 O 0.23446 0.40904 0.86112 0.0
C409 C 0.19464 0.37735 0.82165 0.0
O410 O 0.23004 0.3616 0.85436 0.0
Co411 Co 0.18249 0.34924 0.86247 0.0
O412 O 0.20867 0.33281 0.85471 0.0
C413 C 0.19282 0.37623 0.9052 0.0
C414 C 0.2194 0.42325 0.86063 0.0
C415 C 0.22703 0.34138 0.85316 0.0
O416 O 0.20756 0.38529 0.89246 0.0
O417 O 0.17947 0.3631 0.89586 0.0
O418 O 0.21183 0.38867 0.8194 0.0
O419 O 0.18737 0.37515 0.8439 0.0
Co420 Co 0.61399 0.20925 0.85732 0.0
O421 O 0.58722 0.19453 0.85666 0.0
O422 O 0.5912 0.22898 0.86445 0.0
C423 C 0.62689 0.19499 0.82226 0.0
O424 O 0.63882 0.23019 0.85809 0.0
Co425 Co 0.65633 0.1841 0.86277 0.0
O426 O 0.66983 0.21214 0.85745 0.0
C427 C 0.62958 0.19117 0.90678 0.0
C428 C 0.57855 0.21278 0.86164 0.0
C429 C 0.65928 0.22943 0.85718 0.0
O430 O 0.61708 0.20299 0.89386 0.0
O431 O 0.64549 0.18119 0.89761 0.0
O432 O 0.61374 0.21091 0.82122 0.0
O433 O 0.63015 0.18691 0.84398 0.0
Co434 Co 0.79216 0.61466 0.85246 0.0
O435 O 0.80468 0.58686 0.85058 0.0
O436 O 0.77074 0.5933 0.85917 0.0
C437 C 0.80729 0.62716 0.81761 0.0
O438 O 0.77332 0.641 0.85458 0.0
Co439 Co 0.81959 0.65538 0.85773 0.0
O440 O 0.79346 0.66935 0.84494 0.0
C441 C 0.81058 0.6291 0.90203 0.0
C442 C 0.78589 0.57951 0.85565 0.0
C443 C 0.77538 0.66062 0.84817 0.0
O444 O 0.79901 0.61651 0.88892 0.0
O445 O 0.8207 0.645 0.89298 0.0
O446 O 0.79005 0.61579 0.81634 0.0
O447 O 0.81564 0.62917 0.83939 0.0
C448 C 0.25192 0.1903 0.32974 0.0
C449 C 0.25248 0.1731 0.34627 0.0
C450 C 0.23515 0.20503 0.33036 0.0
C451 C 0.21898 0.20287 0.34849 0.0
C452 C 0.21906 0.18506 0.36461 0.0
C453 C 0.23569 0.1702 0.36305 0.0
C454 C 0.2353 0.22344 0.31235 0.0
C455 C 0.2024 0.18245 0.38457 0.0
C456 C 0.19503 0.25524 0.36938 0.0
C457 C 0.17526 0.25506 0.35741 0.0
C458 C 0.20902 0.23797 0.36733 0.0
C459 C 0.20338 0.22039 0.35225 0.0
C460 C 0.18334 0.22005 0.34022 0.0
C461 C 0.16933 0.23731 0.34326 0.0
C462 C 0.22999 0.23871 0.38103 0.0
C463 C 0.17703 0.20187 0.32346 0.0
H464 H 0.26482 0.19242 0.3166 0.0
H465 H 0.23621 0.15698 0.37597 0.0
H466 H 0.21938 0.22541 0.30372 0.0
H467 H 0.239 0.23838 0.32243 0.0
H468 H 0.24729 0.22128 0.29741 0.0
H469 H 0.20355 0.16678 0.39402 0.0
H470 H 0.20439 0.19517 0.39868 0.0
H471 H 0.1862 0.18416 0.37665 0.0
H472 H 0.19952 0.26893 0.38047 0.0
H473 H 0.1541 0.23731 0.3338 0.0
H474 H 0.24331 0.23929 0.36752 0.0
H475 H 0.23206 0.22409 0.39232 0.0
H476 H 0.23123 0.25276 0.39346 0.0
H477 H 0.1881 0.20108 0.30744 0.0
H478 H 0.16054 0.20359 0.3163 0.0
H479 H 0.1783 0.18652 0.3335 0.0
C480 C 0.74491 0.19463 0.36653 0.0
C481 C 0.74574 0.1751 0.35403 0.0
C482 C 0.76187 0.20906 0.36522 0.0
C483 C 0.77985 0.20409 0.35047 0.0
C484 C 0.78079 0.18438 0.33777 0.0
C485 C 0.76381 0.16995 0.33999 0.0
C486 C 0.76046 0.22969 0.37953 0.0
C487 C 0.79945 0.17879 0.32138 0.0
C488 C 0.81022 0.25337 0.33093 0.0
C489 C 0.8269 0.25361 0.34819 0.0
C490 C 0.79557 0.23655 0.33038 0.0
C491 C 0.7973 0.21993 0.34802 0.0
C492 C 0.81462 0.21969 0.36485 0.0
C493 C 0.8294 0.23643 0.36451 0.0
C494 C 0.77769 0.23707 0.31166 0.0
C495 C 0.81678 0.2025 0.38427 0.0
H496 H 0.73103 0.19854 0.37758 0.0
H497 H 0.76438 0.15491 0.33015 0.0
H498 H 0.77464 0.23156 0.39162 0.0
H499 H 0.76029 0.24332 0.36646 0.0
H500 H 0.74596 0.23054 0.39129 0.0
H501 H 0.79795 0.16264 0.31317 0.0
H502 H 0.80075 0.19055 0.30609 0.0
H503 H 0.81448 0.17958 0.33213 0.0
H504 H 0.80842 0.26657 0.31812 0.0
H505 H 0.84223 0.23668 0.37797 0.0
H506 H 0.76243 0.24036 0.32128 0.0
H507 H 0.77611 0.22139 0.30235 0.0
H508 H 0.78017 0.24949 0.29728 0.0
H509 H 0.80356 0.20392 0.39784 0.0
H510 H 0.8321 0.20356 0.39449 0.0
H511 H 0.81557 0.18652 0.37565 0.0
C512 C 0.82827 0.75984 0.34072 0.0
C513 C 0.82265 0.74133 0.35366 0.0
C514 C 0.81403 0.77703 0.33891 0.0
C515 C 0.79403 0.77583 0.35098 0.0
C516 C 0.78858 0.75737 0.36463 0.0
C517 C 0.80282 0.74022 0.36548 0.0
C518 C 0.82014 0.7962 0.32363 0.0
C519 C 0.76765 0.75567 0.37829 0.0
C520 C 0.76256 0.82571 0.36635 0.0
C521 C 0.74575 0.82427 0.34936 0.0
C522 C 0.7788 0.81036 0.36668 0.0
C523 C 0.77849 0.79361 0.34907 0.0
C524 C 0.76218 0.79287 0.33094 0.0
C525 C 0.74579 0.80802 0.33157 0.0
C526 C 0.79557 0.81139 0.38672 0.0
C527 C 0.76163 0.77565 0.3114 0.0
H528 H 0.84354 0.76061 0.3314 0.0
H529 H 0.79854 0.72598 0.37568 0.0
H530 H 0.80854 0.79836 0.30829 0.0
H531 H 0.81954 0.81079 0.3352 0.0
H532 H 0.83633 0.79471 0.31556 0.0
H533 H 0.76641 0.74075 0.38925 0.0
H534 H 0.7657 0.7694 0.39105 0.0
H535 H 0.75428 0.75616 0.36486 0.0
H536 H 0.76242 0.83821 0.38024 0.0
H537 H 0.73285 0.80705 0.31828 0.0
H538 H 0.81171 0.81051 0.37847 0.0
H539 H 0.79381 0.79751 0.39929 0.0
H540 H 0.79439 0.82617 0.39795 0.0
H541 H 0.77741 0.77414 0.30232 0.0
H542 H 0.74944 0.77882 0.29691 0.0
H543 H 0.75797 0.76013 0.32022 0.0
C544 C 0.16894 0.76415 0.36001 0.0
C545 C 0.17117 0.74803 0.34225 0.0
C546 C 0.18388 0.78071 0.36157 0.0
C547 C 0.20101 0.78139 0.34448 0.0
C548 C 0.20229 0.76602 0.32531 0.0
C549 C 0.18755 0.74928 0.3247 0.0
C550 C 0.18223 0.79649 0.38261 0.0
C551 C 0.21992 0.76654 0.30628 0.0
C552 C 0.23587 0.83072 0.34025 0.0
C553 C 0.25408 0.82405 0.35315 0.0
C554 C 0.21832 0.81709 0.33737 0.0
C555 C 0.21886 0.79658 0.34822 0.0
C556 C 0.23696 0.79008 0.36196 0.0
C557 C 0.25446 0.80379 0.36395 0.0
C558 C 0.19954 0.82434 0.32209 0.0
C559 C 0.23795 0.76853 0.37432 0.0
H560 H 0.15639 0.76298 0.37376 0.0
H561 H 0.18919 0.7368 0.31092 0.0
H562 H 0.19529 0.79357 0.39606 0.0
H563 H 0.18408 0.813 0.37567 0.0
H564 H 0.16682 0.79523 0.3926 0.0
H565 H 0.21694 0.75535 0.29069 0.0
H566 H 0.22179 0.78283 0.29864 0.0
H567 H 0.2352 0.76212 0.31522 0.0
H568 H 0.23563 0.84634 0.33172 0.0
H569 H 0.26845 0.79869 0.37412 0.0
H570 H 0.18464 0.82292 0.33298 0.0
H571 H 0.19784 0.81393 0.30556 0.0
H572 H 0.20124 0.84107 0.31572 0.0
H573 H 0.22381 0.76616 0.38633 0.0
H574 H 0.2525 0.76656 0.38581 0.0
H575 H 0.23774 0.75583 0.36002 0.0
C576 C 0.19762 0.74173 0.63265 0.0
C577 C 0.17699 0.7441 0.64214 0.0
C578 C 0.21247 0.7583 0.6342 0.0
C579 C 0.20672 0.77756 0.6461 0.0
C580 C 0.18604 0.77992 0.65616 0.0
C581 C 0.17129 0.76324 0.65376 0.0
C582 C 0.23421 0.75531 0.62276 0.0
C583 C 0.17956 0.8 0.66956 0.0
C584 C 0.25452 0.81014 0.66603 0.0
C585 C 0.25578 0.82513 0.64685 0.0
C586 C 0.23777 0.7954 0.66692 0.0
C587 C 0.22245 0.79518 0.64763 0.0
C588 C 0.22337 0.81069 0.62858 0.0
C589 C 0.23987 0.82574 0.62866 0.0
C590 C 0.23694 0.77958 0.68799 0.0
C591 C 0.20771 0.81061 0.60732 0.0
H592 H 0.20204 0.72702 0.62346 0.0
H593 H 0.1554 0.76505 0.6613 0.0
H594 H 0.23723 0.76797 0.60884 0.0
H595 H 0.24668 0.75671 0.63724 0.0
H596 H 0.23593 0.73959 0.61353 0.0
H597 H 0.16314 0.79902 0.67711 0.0
H598 H 0.19072 0.80318 0.68509 0.0
H599 H 0.18047 0.81379 0.65676 0.0
H600 H 0.26678 0.80984 0.6802 0.0
H601 H 0.241 0.83724 0.61372 0.0
H602 H 0.2409 0.76347 0.68094 0.0
H603 H 0.22064 0.77883 0.69588 0.0
H604 H 0.24829 0.78364 0.70308 0.0
H605 H 0.20975 0.79584 0.59628 0.0
H606 H 0.20984 0.8245 0.5948 0.0
H607 H 0.19115 0.81068 0.61444 0.0
C608 C 0.23841 0.1715 0.65383 0.0
C609 C 0.25535 0.17495 0.63742 0.0
C610 C 0.22191 0.18649 0.65604 0.0
C611 C 0.22212 0.20492 0.6409 0.0
C612 C 0.23885 0.20801 0.62367 0.0
C613 C 0.25545 0.19315 0.62244 0.0
C614 C 0.20466 0.18296 0.6751 0.0
C615 C 0.23936 0.22713 0.60668 0.0
C616 C 0.17166 0.23689 0.6302 0.0
C617 C 0.17565 0.25509 0.6445 0.0
C618 C 0.18644 0.22015 0.62925 0.0
C619 C 0.20533 0.22145 0.64349 0.0
C620 C 0.20892 0.23936 0.65889 0.0
C621 C 0.19418 0.25612 0.65892 0.0
C622 C 0.18229 0.20157 0.61214 0.0
C623 C 0.2286 0.24107 0.67487 0.0
H624 H 0.23847 0.15748 0.66555 0.0
H625 H 0.26849 0.19569 0.6096 0.0
H626 H 0.20499 0.19603 0.68896 0.0
H627 H 0.18879 0.18331 0.66613 0.0
H628 H 0.20652 0.16757 0.685 0.0
H629 H 0.25266 0.22636 0.59313 0.0
H630 H 0.22415 0.22839 0.5963 0.0
H631 H 0.24111 0.24187 0.61782 0.0
H632 H 0.15738 0.23613 0.61892 0.0
H633 H 0.19716 0.27009 0.67022 0.0
H634 H 0.18362 0.18635 0.62243 0.0
H635 H 0.1945 0.2013 0.59725 0.0
H636 H 0.16631 0.2024 0.60337 0.0
H637 H 0.23069 0.22638 0.68602 0.0
H638 H 0.22793 0.25493 0.68765 0.0
H639 H 0.24286 0.24275 0.6629 0.0
C640 C 0.74471 0.19432 0.63088 0.0
C641 C 0.74401 0.17543 0.64463 0.0
C642 C 0.76176 0.2085 0.63326 0.0
C643 C 0.77823 0.20397 0.65039 0.0
C644 C 0.77763 0.18488 0.66438 0.0
C645 C 0.76062 0.17061 0.66104 0.0
C646 C 0.76207 0.22837 0.61746 0.0
C647 C 0.79463 0.17983 0.68327 0.0
C648 C 0.82927 0.23447 0.63883 0.0
C649 C 0.82594 0.25275 0.65323 0.0
C650 C 0.81428 0.21793 0.63854 0.0
C651 C 0.79585 0.21951 0.65354 0.0
C652 C 0.79315 0.23731 0.66936 0.0
C653 C 0.80808 0.2539 0.66873 0.0
C654 C 0.8175 0.19949 0.62095 0.0
C655 C 0.77399 0.2393 0.68611 0.0
H656 H 0.73194 0.19793 0.618 0.0
H657 H 0.75994 0.15605 0.6718 0.0
H658 H 0.76119 0.24267 0.62948 0.0
H659 H 0.77721 0.2293 0.60691 0.0
H660 H 0.74862 0.22891 0.60408 0.0
H661 H 0.79197 0.16423 0.69244 0.0
H662 H 0.81051 0.17967 0.6743 0.0
H663 H 0.79497 0.19242 0.69771 0.0
H664 H 0.84303 0.23359 0.62673 0.0
H665 H 0.80564 0.26793 0.68012 0.0
H666 H 0.80541 0.20026 0.60595 0.0
H667 H 0.81526 0.18414 0.63074 0.0
H668 H 0.83356 0.19962 0.61233 0.0
H669 H 0.75959 0.2424 0.67475 0.0
H670 H 0.77577 0.25247 0.69972 0.0
H671 H 0.77129 0.22423 0.69637 0.0
C672 C 0.8061 0.74414 0.65384 0.0
C673 C 0.82407 0.74595 0.63858 0.0
C674 C 0.79069 0.76028 0.65458 0.0
C675 C 0.79301 0.77835 0.63911 0.0
C676 C 0.81125 0.78035 0.62384 0.0
C677 C 0.82674 0.76424 0.62404 0.0
C678 C 0.77178 0.75783 0.67163 0.0
C679 C 0.81401 0.79911 0.60663 0.0
C680 C 0.74136 0.80597 0.62202 0.0
C681 C 0.74196 0.82405 0.63722 0.0
C682 C 0.75822 0.79135 0.62189 0.0
C683 C 0.77576 0.79453 0.63798 0.0
C684 C 0.77642 0.81277 0.65343 0.0
C685 C 0.75963 0.82753 0.65255 0.0
C686 C 0.75719 0.77244 0.60463 0.0
C687 C 0.79454 0.81638 0.67135 0.0
H688 H 0.80415 0.7301 0.66532 0.0
H689 H 0.84059 0.76559 0.61213 0.0
H690 H 0.7699 0.77227 0.68329 0.0
H691 H 0.75704 0.75608 0.6605 0.0
H692 H 0.77329 0.74376 0.684 0.0
H693 H 0.8294 0.79861 0.5965 0.0
H694 H 0.80088 0.79934 0.59284 0.0
H695 H 0.81313 0.81422 0.61722 0.0
H696 H 0.72777 0.80341 0.60999 0.0
H697 H 0.75999 0.84145 0.66444 0.0
H698 H 0.75638 0.75752 0.61559 0.0
H699 H 0.77182 0.77165 0.59313 0.0
H700 H 0.74316 0.77307 0.5921 0.0
H701 H 0.79535 0.80298 0.68474 0.0
H702 H 0.79277 0.83147 0.68189 0.0
H703 H 0.8099 0.81675 0.66123 0.0
C704 C 0.67149 0.7357 0.83889 0.0
C705 C 0.67676 0.75438 0.85172 0.0
C706 C 0.6862 0.71895 0.83674 0.0
C707 C 0.70636 0.72077 0.8483 0.0
C708 C 0.71155 0.73945 0.8617 0.0
C709 C 0.6968 0.75613 0.86295 0.0
C710 C 0.68036 0.69951 0.82175 0.0
C711 C 0.73269 0.74183 0.87478 0.0
C712 C 0.73982 0.67222 0.86362 0.0
C713 C 0.75632 0.67417 0.8463 0.0
C714 C 0.72297 0.68689 0.86401 0.0
C715 C 0.72237 0.70344 0.84616 0.0
C716 C 0.73832 0.70459 0.82765 0.0
C717 C 0.75532 0.69014 0.8282 0.0
C718 C 0.70655 0.68544 0.8844 0.0
C719 C 0.73792 0.7216 0.80786 0.0
H720 H 0.65603 0.73439 0.83006 0.0
H721 H 0.70083 0.77047 0.87311 0.0
H722 H 0.6918 0.69749 0.80624 0.0
H723 H 0.68143 0.68505 0.83347 0.0
H724 H 0.66403 0.70057 0.81393 0.0
H725 H 0.73378 0.75691 0.88548 0.0
H726 H 0.73522 0.72831 0.88769 0.0
H727 H 0.74581 0.7415 0.86101 0.0
H728 H 0.7407 0.65993 0.87771 0.0
H729 H 0.768 0.69147 0.81463 0.0
H730 H 0.69026 0.68588 0.87651 0.0
H731 H 0.70814 0.69939 0.89691 0.0
H732 H 0.70831 0.67072 0.89563 0.0
H733 H 0.72191 0.72254 0.79923 0.0
H734 H 0.74988 0.71864 0.79307 0.0
H735 H 0.74129 0.73732 0.81637 0.0
C736 C 0.26035 0.67438 0.86357 0.0
C737 C 0.24347 0.67739 0.84693 0.0
C738 C 0.27697 0.68925 0.86517 0.0
C739 C 0.27695 0.70717 0.84923 0.0
C740 C 0.26043 0.70972 0.8316 0.0
C741 C 0.24371 0.69495 0.83092 0.0
C742 C 0.29403 0.68626 0.8846 0.0
C743 C 0.26016 0.7283 0.81382 0.0
C744 C 0.30485 0.75811 0.86847 0.0
C745 C 0.32412 0.75656 0.85553 0.0
C746 C 0.28963 0.74183 0.86713 0.0
C747 C 0.29354 0.72389 0.85187 0.0
C748 C 0.31299 0.72226 0.83874 0.0
C749 C 0.32821 0.7385 0.84102 0.0
C750 C 0.26933 0.74389 0.88193 0.0
C751 C 0.31747 0.70366 0.82178 0.0
H752 H 0.26008 0.66089 0.87611 0.0
H753 H 0.23074 0.69717 0.81789 0.0
H754 H 0.31001 0.68658 0.8759 0.0
H755 H 0.29339 0.69958 0.89811 0.0
H756 H 0.29221 0.67104 0.89488 0.0
H757 H 0.24727 0.72691 0.7998 0.0
H758 H 0.25786 0.74333 0.82428 0.0
H759 H 0.27564 0.7295 0.80401 0.0
H760 H 0.30176 0.77201 0.87985 0.0
H761 H 0.34304 0.73739 0.83082 0.0
H762 H 0.26701 0.72957 0.89368 0.0
H763 H 0.25551 0.74492 0.86918 0.0
H764 H 0.26933 0.75818 0.89407 0.0
H765 H 0.31639 0.68851 0.83225 0.0
H766 H 0.33346 0.70468 0.81306 0.0
H767 H 0.30529 0.70303 0.80687 0.0
C768 C 0.31091 0.251 0.82296 0.0
C769 C 0.32758 0.25034 0.84021 0.0
C770 C 0.2965 0.26803 0.82268 0.0
C771 C 0.29843 0.28437 0.84064 0.0
C772 C 0.31599 0.28439 0.85714 0.0
C773 C 0.33057 0.26746 0.85649 0.0
C774 C 0.27839 0.26775 0.80426 0.0
C775 C 0.3184 0.30128 0.87687 0.0
C776 C 0.26316 0.33347 0.83592 0.0
C777 C 0.24565 0.32728 0.85034 0.0
C778 C 0.28054 0.3197 0.83248 0.0
C779 C 0.28058 0.29959 0.84434 0.0
C780 C 0.26314 0.29356 0.85945 0.0
C781 C 0.24576 0.30735 0.86195 0.0
C782 C 0.29856 0.3264 0.8157 0.0
C783 C 0.26277 0.27247 0.87291 0.0
H784 H 0.30872 0.2378 0.81024 0.0
H785 H 0.34337 0.26684 0.86998 0.0
H786 H 0.2634 0.26352 0.81394 0.0
H787 H 0.27616 0.28373 0.79589 0.0
H788 H 0.28108 0.25602 0.78915 0.0
H789 H 0.33422 0.3006 0.88605 0.0
H790 H 0.31616 0.31738 0.86887 0.0
H791 H 0.30594 0.29901 0.89123 0.0
H792 H 0.26298 0.34884 0.82678 0.0
H793 H 0.23232 0.30264 0.8733 0.0
H794 H 0.29971 0.31525 0.79977 0.0
H795 H 0.31392 0.32561 0.8258 0.0
H796 H 0.2964 0.34279 0.80841 0.0
H797 H 0.26263 0.25925 0.85926 0.0
H798 H 0.24864 0.2708 0.88515 0.0
H799 H 0.27733 0.27067 0.88438 0.0
C800 C 0.68774 0.25249 0.87386 0.0
C801 C 0.67155 0.24932 0.85644 0.0
C802 C 0.70168 0.26977 0.87184 0.0
C803 C 0.69978 0.28383 0.85141 0.0
C804 C 0.68291 0.28113 0.83422 0.0
C805 C 0.66877 0.26395 0.83712 0.0
C806 C 0.71911 0.27235 0.89094 0.0
C807 C 0.68058 0.29555 0.81199 0.0
C808 C 0.73318 0.33389 0.85731 0.0
C809 C 0.75242 0.32718 0.84667 0.0
C810 C 0.71534 0.32041 0.85778 0.0
C811 C 0.71677 0.29988 0.84706 0.0
C812 C 0.73567 0.29367 0.83472 0.0
C813 C 0.75331 0.30732 0.83484 0.0
C814 C 0.69552 0.32757 0.87121 0.0
C815 C 0.73773 0.27208 0.82263 0.0
H816 H 0.68975 0.24112 0.88884 0.0
H817 H 0.65632 0.26126 0.82354 0.0
H818 H 0.73476 0.26895 0.88227 0.0
H819 H 0.71954 0.28896 0.89787 0.0
H820 H 0.71699 0.26147 0.90701 0.0
H821 H 0.6652 0.29308 0.80224 0.0
H822 H 0.68181 0.31248 0.8176 0.0
H823 H 0.6937 0.29234 0.79871 0.0
H824 H 0.73236 0.34924 0.86647 0.0
H825 H 0.76803 0.30217 0.82624 0.0
H826 H 0.69413 0.31877 0.889 0.0
H827 H 0.6811 0.32394 0.86011 0.0
H828 H 0.6958 0.34489 0.87535 0.0
H829 H 0.73818 0.25958 0.83717 0.0
H830 H 0.7524 0.27074 0.81123 0.0
H831 H 0.72375 0.26881 0.81064 0.0
C832 C 0.67216 0.26105 0.12917 0.0
C833 C 0.67588 0.24196 0.14192 0.0
C834 C 0.68757 0.27723 0.12871 0.0
C835 C 0.7069 0.27441 0.1418 0.0
C836 C 0.71043 0.25544 0.15537 0.0
C837 C 0.69498 0.23934 0.15503 0.0
C838 C 0.68342 0.29705 0.11363 0.0
C839 C 0.73064 0.25204 0.17002 0.0
C840 C 0.75675 0.30401 0.12218 0.0
C841 C 0.75703 0.32099 0.13898 0.0
C842 C 0.74013 0.28912 0.1224 0.0
C843 C 0.72386 0.29087 0.14048 0.0
C844 C 0.72417 0.30798 0.15761 0.0
C845 C 0.74059 0.32309 0.15636 0.0
C846 C 0.74003 0.27149 0.10334 0.0
C847 C 0.70748 0.30999 0.17764 0.0
H848 H 0.65746 0.2631 0.11891 0.0
H849 H 0.69781 0.2247 0.16515 0.0
H850 H 0.68486 0.3114 0.12551 0.0
H851 H 0.69554 0.29846 0.09874 0.0
H852 H 0.66737 0.29699 0.10496 0.0
H853 H 0.73026 0.23707 0.18099 0.0
H854 H 0.74446 0.25141 0.15724 0.0
H855 H 0.73329 0.26558 0.18288 0.0
H856 H 0.76943 0.30255 0.10862 0.0
H857 H 0.74098 0.33618 0.16947 0.0
H858 H 0.72461 0.27131 0.09328 0.0
H859 H 0.74174 0.25587 0.11271 0.0
H860 H 0.75308 0.2732 0.08958 0.0
H861 H 0.6914 0.31092 0.16921 0.0
H862 H 0.70996 0.32426 0.18946 0.0
H863 H 0.70776 0.29564 0.18964 0.0
C864 C 0.73876 0.66764 0.15607 0.0
C865 C 0.75677 0.67318 0.14215 0.0
C866 C 0.72189 0.68209 0.15918 0.0
C867 C 0.72286 0.70223 0.14744 0.0
C868 C 0.74086 0.70768 0.13295 0.0
C869 C 0.75772 0.69321 0.1308 0.0
C870 C 0.70325 0.67599 0.17535 0.0
C871 C 0.74229 0.72878 0.11963 0.0
C872 C 0.67322 0.73464 0.13405 0.0
C873 C 0.6756 0.7515 0.15084 0.0
C874 C 0.68806 0.71795 0.13334 0.0
C875 C 0.70527 0.71788 0.15033 0.0
C876 C 0.70683 0.73412 0.16848 0.0
C877 C 0.69217 0.75096 0.16822 0.0
C878 C 0.68614 0.70124 0.11332 0.0
C879 C 0.72454 0.73426 0.18742 0.0
H880 H 0.73811 0.65221 0.16503 0.0
H881 H 0.77157 0.69744 0.11985 0.0
H882 H 0.70166 0.68754 0.19083 0.0
H883 H 0.68827 0.67666 0.16448 0.0
H884 H 0.70498 0.65976 0.18327 0.0
H885 H 0.75689 0.73009 0.10809 0.0
H886 H 0.7282 0.731 0.10748 0.0
H887 H 0.74229 0.74197 0.13331 0.0
H888 H 0.6605 0.73517 0.12046 0.0
H889 H 0.69389 0.76395 0.18133 0.0
H890 H 0.68734 0.68506 0.1214 0.0
H891 H 0.69946 0.70305 0.09996 0.0
H892 H 0.6709 0.7025 0.10297 0.0
H893 H 0.72625 0.71832 0.19605 0.0
H894 H 0.72177 0.74619 0.2023 0.0
H895 H 0.73983 0.73807 0.17814 0.0
C896 C 0.26606 0.66854 0.12927 0.0
C897 C 0.24802 0.67281 0.14373 0.0
C898 C 0.28314 0.68294 0.1285 0.0
C899 C 0.28233 0.70168 0.1431 0.0
C900 C 0.2648 0.70521 0.1591 0.0
C901 C 0.24768 0.6909 0.15891 0.0
C902 C 0.30129 0.67884 0.11078 0.0
C903 C 0.2636 0.72466 0.1755 0.0
C904 C 0.3316 0.73619 0.15139 0.0
C905 C 0.32692 0.7532 0.13549 0.0
C906 C 0.31737 0.71906 0.15392 0.0
C907 C 0.29844 0.71875 0.13962 0.0
C908 C 0.29422 0.73549 0.12271 0.0
C909 C 0.30834 0.75268 0.12118 0.0
C910 C 0.32211 0.70183 0.17263 0.0
C911 C 0.27453 0.73549 0.10661 0.0
H912 H 0.26623 0.65462 0.11737 0.0
H913 H 0.23379 0.69409 0.17026 0.0
H914 H 0.30057 0.69051 0.09534 0.0
H915 H 0.31681 0.68103 0.12023 0.0
H916 H 0.3007 0.66255 0.10279 0.0
H917 H 0.25045 0.72356 0.18923 0.0
H918 H 0.27881 0.72695 0.18563 0.0
H919 H 0.26097 0.739 0.16389 0.0
H920 H 0.34591 0.73676 0.16262 0.0
H921 H 0.30484 0.7658 0.10875 0.0
H922 H 0.32115 0.68592 0.16378 0.0
H923 H 0.30998 0.70224 0.1876 0.0
H924 H 0.3381 0.7037 0.18114 0.0
H925 H 0.27318 0.72019 0.09646 0.0
H926 H 0.27459 0.74869 0.0929 0.0
H927 H 0.26016 0.73711 0.11842 0.0
C928 C 0.24508 0.30818 0.1645 0.0
C929 C 0.24527 0.32541 0.14798 0.0
C930 C 0.2619 0.29355 0.16506 0.0
C931 C 0.27904 0.29591 0.14824 0.0
C932 C 0.27975 0.31378 0.13223 0.0
C933 C 0.26292 0.3285 0.13251 0.0
C934 C 0.26082 0.27501 0.18286 0.0
C935 C 0.29756 0.31664 0.11373 0.0
C936 C 0.32844 0.26173 0.15718 0.0
C937 C 0.32357 0.24414 0.14223 0.0
C938 C 0.31413 0.27883 0.15935 0.0
C939 C 0.2949 0.2785 0.14564 0.0
C940 C 0.29027 0.26101 0.12996 0.0
C941 C 0.30452 0.2439 0.12876 0.0
C942 C 0.3193 0.29692 0.17676 0.0
C943 C 0.27019 0.26028 0.11455 0.0
H944 H 0.23154 0.30593 0.1767 0.0
H945 H 0.26304 0.34178 0.11966 0.0
H946 H 0.25788 0.26011 0.17237 0.0
H947 H 0.27618 0.27312 0.19278 0.0
H948 H 0.24792 0.27696 0.19679 0.0
H949 H 0.29689 0.33239 0.10439 0.0
H950 H 0.31325 0.31495 0.12295 0.0
H951 H 0.2965 0.30403 0.09935 0.0
H952 H 0.34315 0.26184 0.16769 0.0
H953 H 0.30089 0.2304 0.11695 0.0
H954 H 0.30708 0.2978 0.1916 0.0
H955 H 0.31891 0.31229 0.16665 0.0
H956 H 0.33518 0.29506 0.18556 0.0
H957 H 0.25608 0.25976 0.12691 0.0
H958 H 0.26969 0.24621 0.10207 0.0
H959 H 0.26886 0.27489 0.10308 0.0
C960 C 0.95348 0.26039 0.36002 0.0
C961 C 0.94386 0.27853 0.37011 0.0
C962 C 0.97574 0.25815 0.36014 0.0
C963 C 0.98844 0.27413 0.37132 0.0
C964 C 0.97857 0.29165 0.38318 0.0
C965 C 0.9564 0.29384 0.38201 0.0
C966 C 0.98566 0.23951 0.34678 0.0
C967 C 0.99148 0.30871 0.39597 0.0
C968 C 0.0477 0.26588 0.38266 0.0
C969 C 0.05639 0.27839 0.3637 0.0
C970 C 0.0255 0.26392 0.38523 0.0
C971 C 0.01193 0.27414 0.36791 0.0
C972 C 0.02083 0.28585 0.348 0.0
C973 C 0.04294 0.28815 0.34642 0.0
C974 C 0.01659 0.25185 0.4071 0.0
C975 C 0.00699 0.2965 0.32872 0.0
H976 H 0.94372 0.24862 0.3507 0.0
H977 H 0.94887 0.30776 0.39006 0.0
H978 H 0.99346 0.24524 0.32954 0.0
H979 H 0.99814 0.23199 0.35838 0.0
H980 H 0.97369 0.22726 0.34168 0.0
H981 H 0.98137 0.31946 0.40732 0.0
H982 H 0.00372 0.30144 0.40815 0.0
H983 H -0.0001 0.31843 0.38186 0.0
H984 H 0.0582 0.25851 0.39612 0.0
H985 H 0.04977 0.29768 0.33165 0.0
H986 H 0.0045 0.24016 0.40087 0.0
H987 H 0.0085 0.26313 0.41983 0.0
H988 H 0.02918 0.24333 0.41763 0.0
H989 H 0.99524 0.28502 0.32116 0.0
H990 H 0.01644 0.30308 0.31307 0.0
H991 H 0.99794 0.30971 0.33739 0.0
C992 C 0.74172 0.04684 0.37004 0.0
C993 C 0.7258 0.05512 0.3546 0.0
C994 C 0.74424 0.02471 0.37275 0.0
C995 C 0.73089 0.01074 0.35917 0.0
C996 C 0.71557 0.01917 0.3426 0.0
C997 C 0.71302 0.04124 0.3408 0.0
C998 C 0.76041 0.01631 0.391 0.0
C999 C 0.70135 0.00487 0.32731 0.0
C1000 C 0.74245 0.95204 0.34954 0.0
C1001 C 0.7267 0.94288 0.36445 0.0
C1002 C 0.74484 0.97426 0.34848 0.0
C1003 C 0.73161 0.98736 0.36334 0.0
C1004 C 0.71687 0.97792 0.37991 0.0
C1005 C 0.71428 0.95577 0.37986 0.0
C1006 C 0.76031 0.9837 0.33011 0.0
C1007 C 0.70295 0.99125 0.39664 0.0
H1008 H 0.7515 0.05762 0.38083 0.0
H1009 H 0.70084 0.04767 0.32867 0.0
H1010 H 0.75203 0.00869 0.40681 0.0
H1011 H 0.77049 0.00395 0.38221 0.0
H1012 H 0.77084 0.02911 0.39838 0.0
H1013 H 0.69177 0.01393 0.31356 0.0
H1014 H 0.71101 0.99286 0.31725 0.0
H1015 H 0.69028 0.99614 0.3397 0.0
H1016 H 0.7519 0.94195 0.3375 0.0
H1017 H 0.7022 0.94853 0.3915 0.0
H1018 H 0.76989 0.99647 0.33888 0.0
H1019 H 0.75132 0.99102 0.31457 0.0
H1020 H 0.77126 0.97152 0.32233 0.0
H1021 H 0.7125 0.00373 0.40602 0.0
H1022 H 0.69485 0.98148 0.411 0.0
H1023 H 0.6906 0.99938 0.38538 0.0
C1024 C 0.04563 0.73781 0.35823 0.0
C1025 C 0.0548 0.71759 0.36083 0.0
C1026 C 0.02343 0.74048 0.35901 0.0
C1027 C 0.01022 0.72253 0.3628 0.0
C1028 C 0.0195 0.70226 0.36663 0.0
C1029 C 0.04166 0.70001 0.36542 0.0
C1030 C 0.01411 0.76229 0.35464 0.0
C1031 C 0.00598 0.68276 0.37111 0.0
C1032 C 0.95169 0.72711 0.37981 0.0
C1033 C 0.94213 0.72168 0.35723 0.0
C1034 C 0.97396 0.72828 0.38182 0.0
C1035 C 0.9867 0.72436 0.36059 0.0
C1036 C 0.97688 0.72012 0.33744 0.0
C1037 C 0.95468 0.71846 0.33616 0.0
C1038 C 0.98384 0.73239 0.40691 0.0
C1039 C 0.98984 0.71632 0.31425 0.0
H1040 H 0.05574 0.75145 0.3547 0.0
H1041 H 0.04868 0.68438 0.36772 0.0
H1042 H 0.00557 0.76246 0.3366 0.0
H1043 H 0.00232 0.76621 0.36927 0.0
H1044 H 0.02651 0.77489 0.3543 0.0
H1045 H 0.01569 0.6686 0.37603 0.0
H1046 H 0.99443 0.68578 0.38629 0.0
H1047 H 0.99669 0.67902 0.35414 0.0
H1048 H 0.94181 0.72928 0.39613 0.0
H1049 H 0.9471 0.7142 0.31876 0.0
H1050 H 0.99619 0.74494 0.40557 0.0
H1051 H 0.99181 0.71769 0.41355 0.0
H1052 H 0.97183 0.73728 0.42093 0.0
H1053 H 0.00181 0.72913 0.31183 0.0
H1054 H 0.97975 0.71558 0.29733 0.0
H1055 H 0.99862 0.70107 0.31597 0.0
C1056 C 0.26397 0.95178 0.37505 0.0
C1057 C 0.27709 0.94292 0.35676 0.0
C1058 C 0.26195 0.97399 0.37732 0.0
C1059 C 0.27276 0.98741 0.36035 0.0
C1060 C 0.28509 0.97835 0.34105 0.0
C1061 C 0.28741 0.95623 0.3398 0.0
C1062 C 0.2492 0.98307 0.39857 0.0
C1063 C 0.29639 0.99204 0.32214 0.0
C1064 C 0.25936 0.04586 0.35174 0.0
C1065 C 0.27716 0.05546 0.36263 0.0
C1066 C 0.25712 0.02361 0.35173 0.0
C1067 C 0.27272 0.0109 0.3636 0.0
C1068 C 0.28989 0.02075 0.37619 0.0
C1069 C 0.29211 0.04291 0.37512 0.0
C1070 C 0.23892 0.0137 0.33757 0.0
C1071 C 0.3065 0.00784 0.38974 0.0
H1072 H 0.25614 0.94139 0.38828 0.0
H1073 H 0.29742 0.94928 0.32552 0.0
H1074 H 0.26008 0.99121 0.41173 0.0
H1075 H 0.23775 0.99515 0.39173 0.0
H1076 H 0.2403 0.97058 0.40882 0.0
H1077 H 0.3034 0.98247 0.30684 0.0
H1078 H 0.2852 0.0038 0.31403 0.0
H1079 H 0.30937 0.00107 0.33129 0.0
H1080 H 0.24788 0.05565 0.34197 0.0
H1081 H 0.30575 0.05045 0.38379 0.0
H1082 H 0.23095 0.00132 0.34891 0.0
H1083 H 0.2452 0.00576 0.32068 0.0
H1084 H 0.2269 0.02569 0.33181 0.0
H1085 H 0.29882 0.99568 0.40168 0.0
H1086 H 0.31694 0.01796 0.40147 0.0
H1087 H 0.31661 0.99932 0.37609 0.0
C1088 C 0.04819 0.74871 0.64035 0.0
C1089 C 0.05676 0.73107 0.62801 0.0
C1090 C 0.02605 0.75203 0.64093 0.0
C1091 C 0.01244 0.73767 0.62829 0.0
C1092 C 0.02132 0.7209 0.61409 0.0
C1093 C 0.04335 0.71759 0.61451 0.0
C1094 C 0.0172 0.76984 0.65662 0.0
C1095 C 0.00747 0.70556 0.59978 0.0
C1096 C 0.95848 0.72171 0.65283 0.0
C1097 C 0.94472 0.73228 0.63655 0.0
C1098 C 0.98052 0.72461 0.65141 0.0
C1099 C 0.98907 0.73793 0.63271 0.0
C1100 C 0.97518 0.74938 0.61684 0.0
C1101 C 0.95304 0.7466 0.61916 0.0
C1102 C 0.99469 0.71248 0.66912 0.0
C1103 C 0.98369 0.76343 0.59643 0.0
H1104 H 0.05863 0.75906 0.65089 0.0
H1105 H 0.05009 0.70408 0.60475 0.0
H1106 H 0.00432 0.77836 0.64665 0.0
H1107 H 0.01018 0.76307 0.67379 0.0
H1108 H 0.02969 0.78147 0.66199 0.0
H1109 H 0.01689 0.69548 0.58688 0.0
H1110 H 0.99897 0.69497 0.61295 0.0
H1111 H 0.99527 0.71431 0.58892 0.0
H1112 H 0.95199 0.7108 0.66647 0.0
H1113 H 0.94234 0.75469 0.60649 0.0
H1114 H 0.00678 0.72324 0.67737 0.0
H1115 H 0.00332 0.69982 0.65888 0.0
H1116 H 0.98552 0.70492 0.68439 0.0
H1117 H 0.9966 0.77384 0.60348 0.0
H1118 H 0.97104 0.77354 0.58813 0.0
H1119 H 0.9906 0.75333 0.58157 0.0
C1120 C 0.29474 0.95619 0.61933 0.0
C1121 C 0.27858 0.94272 0.62783 0.0
C1122 C 0.29172 0.97826 0.61829 0.0
C1123 C 0.27226 0.98708 0.62666 0.0
C1124 C 0.25555 0.97346 0.63432 0.0
C1125 C 0.25883 0.95134 0.63452 0.0
C1126 C 0.30977 0.99217 0.60938 0.0
C1127 C 0.23474 0.98229 0.64377 0.0
C1128 C 0.28084 0.04193 0.65355 0.0
C1129 C 0.27388 0.05499 0.63419 0.0
C1130 C 0.27893 0.01978 0.65199 0.0
C1131 C 0.27061 0.0105 0.63008 0.0
C1132 C 0.2629 0.02372 0.61074 0.0
C1133 C 0.26436 0.04596 0.61321 0.0
C1134 C 0.28679 0.0063 0.67332 0.0
C1135 C 0.25445 0.01443 0.58687 0.0
H1136 H 0.30993 0.94949 0.61382 0.0
H1137 H 0.24634 0.94088 0.64114 0.0
H1138 H 0.30388 0.00406 0.59579 0.0
H1139 H 0.31659 0.00105 0.62531 0.0
H1140 H 0.3227 0.98277 0.60058 0.0
H1141 H 0.22251 0.96968 0.64613 0.0
H1142 H 0.23739 0.99007 0.66201 0.0
H1143 H 0.22847 0.99459 0.63095 0.0
H1144 H 0.28815 0.04907 0.66978 0.0
H1145 H 0.25922 0.05621 0.59816 0.0
H1146 H 0.30155 0.99787 0.66776 0.0
H1147 H 0.2748 0.99405 0.67824 0.0
H1148 H 0.2903 0.01597 0.6901 0.0
H1149 H 0.26777 0.00721 0.57629 0.0
H1150 H 0.24673 0.02666 0.57502 0.0
H1151 H 0.2428 0.0016 0.59074 0.0
C1152 C 0.04172 0.28633 0.65268 0.0
C1153 C 0.05595 0.27379 0.63907 0.0
C1154 C 0.01975 0.28317 0.65093 0.0
C1155 C 0.01175 0.26741 0.63462 0.0
C1156 C 0.02606 0.25436 0.62115 0.0
C1157 C 0.04811 0.25754 0.62378 0.0
C1158 C 0.00508 0.29714 0.66605 0.0
C1159 C 0.01809 0.23774 0.60318 0.0
C1160 C 0.95363 0.25478 0.64613 0.0
C1161 C 0.94388 0.27034 0.63146 0.0
C1162 C 0.97588 0.25259 0.64627 0.0
C1163 C 0.98838 0.26586 0.63078 0.0
C1164 C 0.97829 0.28021 0.61428 0.0
C1165 C 0.95615 0.28262 0.61523 0.0
C1166 C 0.98603 0.23747 0.66454 0.0
C1167 C 0.99097 0.29415 0.59689 0.0
H1168 H 0.04781 0.29877 0.66471 0.0
H1169 H 0.05915 0.24792 0.61314 0.0
H1170 H 0.99585 0.30768 0.65352 0.0
H1171 H 0.9935 0.28724 0.67647 0.0
H1172 H 0.01389 0.30726 0.67948 0.0
H1173 H 0.03118 0.22764 0.59586 0.0
H1174 H 0.0061 0.22737 0.61221 0.0
H1175 H 0.01012 0.2457 0.58732 0.0
H1176 H 0.94402 0.24544 0.6588 0.0
H1177 H 0.94845 0.29455 0.60378 0.0
H1178 H 0.99318 0.24674 0.67996 0.0
H1179 H 0.99902 0.22828 0.65563 0.0
H1180 H 0.97428 0.22616 0.67251 0.0
H1181 H 0.99884 0.30699 0.60763 0.0
H1182 H 0.98075 0.30162 0.58249 0.0
H1183 H 0.00363 0.28479 0.58755 0.0
C1184 C 0.73987 0.04769 0.64276 0.0
C1185 C 0.72167 0.05655 0.63187 0.0
C1186 C 0.74274 0.02552 0.64348 0.0
C1187 C 0.72732 0.01209 0.63239 0.0
C1188 C 0.7097 0.02115 0.61986 0.0
C1189 C 0.7069 0.04327 0.62013 0.0
C1190 C 0.76146 0.01646 0.6575 0.0
C1191 C 0.69321 0.00744 0.60718 0.0
C1192 C 0.73684 0.95295 0.62188 0.0
C1193 C 0.72406 0.94419 0.64056 0.0
C1194 C 0.7387 0.97515 0.61933 0.0
C1195 C 0.72803 0.98867 0.63633 0.0
C1196 C 0.71625 0.97972 0.65615 0.0
C1197 C 0.71411 0.95759 0.65774 0.0
C1198 C 0.75095 0.9841 0.59763 0.0
C1199 C 0.70511 0.99351 0.6751 0.0
H1200 H 0.75124 0.05801 0.65193 0.0
H1201 H 0.69295 0.05019 0.61144 0.0
H1202 H 0.75572 0.00883 0.67482 0.0
H1203 H 0.76955 0.004 0.64639 0.0
H1204 H 0.77325 0.02891 0.66251 0.0
H1205 H 0.68217 0.01697 0.59552 0.0
H1206 H 0.70102 0.9953 0.59531 0.0
H1207 H 0.68371 0.99887 0.62136 0.0
H1208 H 0.74435 0.9425 0.60848 0.0
H1209 H 0.70434 0.95072 0.67228 0.0
H1210 H 0.76197 0.99681 0.60385 0.0
H1211 H 0.73966 0.99141 0.58427 0.0
H1212 H 0.76024 0.97166 0.58777 0.0
H1213 H 0.71619 0.00572 0.68249 0.0
H1214 H 0.69875 0.98408 0.69088 0.0
H1215 H 0.69167 0.00202 0.66616 0.0
C1216 C 0.54313 0.78357 0.87579 0.0
C1217 C 0.55661 0.76952 0.86321 0.0
C1218 C 0.52106 0.78062 0.87566 0.0
C1219 C 0.51223 0.76358 0.86187 0.0
C1220 C 0.52587 0.74868 0.85015 0.0
C1221 C 0.54803 0.75169 0.85125 0.0
C1222 C 0.50714 0.79653 0.88901 0.0
C1223 C 0.51708 0.73056 0.83491 0.0
C1224 C 0.45273 0.7554 0.87048 0.0
C1225 C 0.4447 0.76939 0.85255 0.0
C1226 C 0.47481 0.75246 0.87316 0.0
C1227 C 0.48893 0.76337 0.85706 0.0
C1228 C 0.48066 0.77629 0.8378 0.0
C1229 C 0.45866 0.77942 0.83607 0.0
C1230 C 0.48301 0.73892 0.89421 0.0
C1231 C 0.49509 0.78778 0.81982 0.0
H1232 H 0.54986 0.79725 0.88524 0.0
H1233 H 0.55853 0.7409 0.84141 0.0
H1234 H 0.49894 0.80678 0.87522 0.0
H1235 H 0.4947 0.78825 0.89997 0.0
H1236 H 0.51647 0.80693 0.90166 0.0
H1237 H 0.52952 0.71868 0.83018 0.0
H1238 H 0.50398 0.72242 0.84492 0.0
H1239 H 0.51035 0.73696 0.81738 0.0
H1240 H 0.44186 0.74777 0.88332 0.0
H1241 H 0.45236 0.7901 0.82205 0.0
H1242 H 0.48987 0.74937 0.90876 0.0
H1243 H 0.49589 0.7282 0.88773 0.0
H1244 H 0.4702 0.72917 0.90273 0.0
H1245 H 0.50367 0.8007 0.82966 0.0
H1246 H 0.48613 0.79492 0.80411 0.0
H1247 H 0.50721 0.77671 0.81222 0.0
C1248 C 0.24245 0.45531 0.8548 0.0
C1249 C 0.22361 0.44616 0.86369 0.0
C1250 C 0.24504 0.47754 0.85458 0.0
C1251 C 0.22861 0.49069 0.86405 0.0
C1252 C 0.21026 0.48132 0.87467 0.0
C1253 C 0.20786 0.45918 0.87402 0.0
C1254 C 0.26465 0.48694 0.84273 0.0
C1255 C 0.1926 0.49472 0.88553 0.0
C1256 C 0.23549 0.55 0.87573 0.0
C1257 C 0.22392 0.55844 0.85583 0.0
C1258 C 0.23791 0.52785 0.87834 0.0
C1259 C 0.2291 0.51411 0.86017 0.0
C1260 C 0.2186 0.52281 0.83923 0.0
C1261 C 0.21579 0.54486 0.83759 0.0
C1262 C 0.24869 0.51916 0.90123 0.0
C1263 C 0.20949 0.5088 0.81908 0.0
H1264 H 0.25461 0.4452 0.84677 0.0
H1265 H 0.1934 0.45205 0.8812 0.0
H1266 H 0.26025 0.4943 0.82471 0.0
H1267 H 0.27145 0.49968 0.85456 0.0
H1268 H 0.2771 0.47474 0.83928 0.0
H1269 H 0.18085 0.48498 0.89594 0.0
H1270 H 0.19921 0.50697 0.8982 0.0
H1271 H 0.1841 0.50315 0.87039 0.0
H1272 H 0.24163 0.56061 0.8899 0.0
H1273 H 0.207 0.55152 0.8221 0.0
H1274 H 0.26046 0.50675 0.89617 0.0
H1275 H 0.23662 0.51155 0.91336 0.0
H1276 H 0.25687 0.53182 0.91201 0.0
H1277 H 0.22148 0.49696 0.81291 0.0
H1278 H 0.20417 0.51812 0.80269 0.0
H1279 H 0.19563 0.49986 0.82644 0.0
C1280 C 0.4535 0.20261 0.87876 0.0
C1281 C 0.44236 0.21724 0.86412 0.0
C1282 C 0.47572 0.20363 0.88078 0.0
C1283 C 0.48703 0.21911 0.86697 0.0
C1284 C 0.47575 0.23427 0.85262 0.0
C1285 C 0.45344 0.23338 0.85175 0.0
C1286 C 0.48711 0.18767 0.89698 0.0
C1287 C 0.48725 0.25057 0.83701 0.0
C1288 C 0.54576 0.229 0.87983 0.0
C1289 C 0.55527 0.21492 0.86302 0.0
C1290 C 0.52348 0.23041 0.88162 0.0
C1291 C 0.51062 0.21802 0.86555 0.0
C1292 C 0.52029 0.20419 0.84813 0.0
C1293 C 0.5425 0.20253 0.84741 0.0
C1294 C 0.51372 0.24474 0.90101 0.0
C1295 C 0.50718 0.19117 0.83017 0.0
H1296 H 0.44481 0.19027 0.88853 0.0
H1297 H 0.44473 0.24459 0.8403 0.0
H1298 H 0.49575 0.17609 0.88515 0.0
H1299 H 0.49908 0.19577 0.90883 0.0
H1300 H 0.47595 0.17874 0.9091 0.0
H1301 H 0.47614 0.26207 0.8282 0.0
H1302 H 0.49887 0.25952 0.84844 0.0
H1303 H 0.49634 0.24236 0.82217 0.0
H1304 H 0.55572 0.23845 0.89202 0.0
H1305 H 0.54993 0.19177 0.83426 0.0
H1306 H 0.50356 0.23521 0.91368 0.0
H1307 H 0.5033 0.25674 0.89206 0.0
H1308 H 0.52594 0.25316 0.91222 0.0
H1309 H 0.49724 0.1796 0.84051 0.0
H1310 H 0.51722 0.18225 0.81675 0.0
H1311 H 0.49624 0.20168 0.81963 0.0
C1312 C 0.79699 0.45615 0.87569 0.0
C1313 C 0.78171 0.44374 0.86353 0.0
C1314 C 0.79519 0.47837 0.87642 0.0
C1315 C 0.77812 0.48841 0.86387 0.0
C1316 C 0.76228 0.47588 0.85219 0.0
C1317 C 0.76409 0.45359 0.85251 0.0
C1318 C 0.81206 0.49111 0.88975 0.0
C1319 C 0.74417 0.48599 0.83805 0.0
C1320 C 0.76931 0.54755 0.87532 0.0
C1321 C 0.78219 0.55643 0.85683 0.0
C1322 C 0.76751 0.52533 0.87774 0.0
C1323 C 0.77829 0.51192 0.86073 0.0
C1324 C 0.79047 0.52099 0.84131 0.0
C1325 C 0.79259 0.54313 0.83991 0.0
C1326 C 0.75494 0.51624 0.89912 0.0
C1327 C 0.80171 0.5073 0.82234 0.0
H1328 H 0.81048 0.44845 0.88447 0.0
H1329 H 0.75234 0.44394 0.84301 0.0
H1330 H 0.82208 0.4996 0.87599 0.0
H1331 H 0.8046 0.50331 0.90184 0.0
H1332 H 0.82256 0.4809 0.9013 0.0
H1333 H 0.73214 0.47411 0.83202 0.0
H1334 H 0.73617 0.49825 0.84956 0.0
H1335 H 0.75054 0.49412 0.82134 0.0
H1336 H 0.76143 0.55793 0.88851 0.0
H1337 H 0.80242 0.55009 0.82548 0.0
H1338 H 0.76587 0.50777 0.91194 0.0
H1339 H 0.7432 0.50442 0.89232 0.0
H1340 H 0.74638 0.52876 0.90973 0.0
H1341 H 0.81464 0.49816 0.83144 0.0
H1342 H 0.80875 0.51687 0.80707 0.0
H1343 H 0.79045 0.49561 0.8142 0.0
C1344 C 0.45706 0.21003 0.12288 0.0
C1345 C 0.4432 0.22586 0.13146 0.0
C1346 C 0.47906 0.21344 0.1221 0.0
C1347 C 0.48748 0.23301 0.13067 0.0
C1348 C 0.47349 0.24943 0.13833 0.0
C1349 C 0.45141 0.24572 0.1384 0.0
C1350 C 0.49336 0.19564 0.11328 0.0
C1351 C 0.48187 0.27039 0.14788 0.0
C1352 C 0.54213 0.22404 0.15766 0.0
C1353 C 0.55528 0.23043 0.1381 0.0
C1354 C 0.52004 0.22655 0.15626 0.0
C1355 C 0.51085 0.23495 0.13435 0.0
C1356 C 0.52419 0.24241 0.11498 0.0
C1357 C 0.5464 0.24029 0.11724 0.0
C1358 C 0.50647 0.2189 0.17762 0.0
C1359 C 0.51501 0.25109 0.09117 0.0
H1360 H 0.45071 0.19476 0.11716 0.0
H1361 H 0.44068 0.25798 0.14504 0.0
H1362 H 0.50515 0.20173 0.09971 0.0
H1363 H 0.50233 0.18904 0.12927 0.0
H1364 H 0.48424 0.1825 0.10449 0.0
H1365 H 0.46905 0.28245 0.14986 0.0
H1366 H 0.48935 0.26791 0.16632 0.0
H1367 H 0.49431 0.27676 0.13532 0.0
H1368 H 0.54914 0.21651 0.17383 0.0
H1369 H 0.55668 0.24504 0.10205 0.0
H1370 H 0.49812 0.20405 0.17219 0.0
H1371 H 0.49416 0.23089 0.18231 0.0
H1372 H 0.51609 0.21558 0.19449 0.0
H1373 H 0.5082 0.23779 0.08017 0.0
H1374 H 0.52726 0.25919 0.0797 0.0
H1375 H 0.50192 0.26244 0.09505 0.0
C1376 C 0.78827 0.53976 0.11795 0.0
C1377 C 0.77372 0.55337 0.12957 0.0
C1378 C 0.78526 0.51769 0.11814 0.0
C1379 C 0.76765 0.50898 0.13102 0.0
C1380 C 0.75236 0.52274 0.14181 0.0
C1381 C 0.75544 0.54489 0.14065 0.0
C1382 C 0.80164 0.50364 0.10577 0.0
C1383 C 0.73362 0.51409 0.15612 0.0
C1384 C 0.75895 0.44955 0.12221 0.0
C1385 C 0.77206 0.44137 0.14093 0.0
C1386 C 0.75655 0.47166 0.11921 0.0
C1387 C 0.76704 0.48568 0.13581 0.0
C1388 C 0.77907 0.47729 0.15577 0.0
C1389 C 0.78174 0.45524 0.1578 0.0
C1390 C 0.74402 0.47999 0.09738 0.0
C1391 C 0.79005 0.49162 0.1743 0.0
H1392 H 0.8023 0.5464 0.10915 0.0
H1393 H 0.74426 0.55547 0.14975 0.0
H1394 H 0.81125 0.49542 0.12015 0.0
H1395 H 0.79375 0.49122 0.09438 0.0
H1396 H 0.8126 0.51287 0.09369 0.0
H1397 H 0.72171 0.52664 0.16036 0.0
H1398 H 0.7257 0.50114 0.14563 0.0
H1399 H 0.73932 0.50721 0.17389 0.0
H1400 H 0.75162 0.43873 0.10905 0.0
H1401 H 0.79175 0.44882 0.1724 0.0
H1402 H 0.75515 0.48683 0.08352 0.0
H1403 H 0.7331 0.49291 0.10324 0.0
H1404 H 0.73459 0.46727 0.08821 0.0
H1405 H 0.80344 0.50001 0.16512 0.0
H1406 H 0.79647 0.4826 0.19039 0.0
H1407 H 0.77887 0.5039 0.18129 0.0
C1408 C 0.45856 0.7882 0.15274 0.0
C1409 C 0.44568 0.77787 0.13532 0.0
C1410 C 0.48073 0.78605 0.1521 0.0
C1411 C 0.49028 0.77391 0.13295 0.0
C1412 C 0.47729 0.76314 0.11548 0.0
C1413 C 0.45502 0.76498 0.11714 0.0
C1414 C 0.49395 0.79728 0.17153 0.0
C1415 C 0.4869 0.75061 0.09438 0.0
C1416 C 0.54616 0.79315 0.11962 0.0
C1417 C 0.55846 0.778 0.13213 0.0
C1418 C 0.52398 0.79111 0.11823 0.0
C1419 C 0.51385 0.77393 0.13045 0.0
C1420 C 0.52631 0.75819 0.14244 0.0
C1421 C 0.54858 0.76024 0.14278 0.0
C1422 C 0.51134 0.80788 0.10458 0.0
C1423 C 0.51609 0.73995 0.15623 0.0
H1424 H 0.45125 0.79804 0.16692 0.0
H1425 H 0.44497 0.75715 0.10356 0.0
H1426 H 0.50555 0.78607 0.17992 0.0
H1427 H 0.50316 0.81032 0.16276 0.0
H1428 H 0.48401 0.80418 0.18657 0.0
H1429 H 0.47467 0.74187 0.08352 0.0
H1430 H 0.49545 0.7616 0.08171 0.0
H1431 H 0.49874 0.73903 0.10149 0.0
H1432 H 0.55389 0.80675 0.11113 0.0
H1433 H 0.55817 0.74859 0.15255 0.0
H1434 H 0.50251 0.81782 0.11813 0.0
H1435 H 0.49945 0.80033 0.09215 0.0
H1436 H 0.52169 0.81847 0.09331 0.0
H1437 H 0.50767 0.7462 0.17281 0.0
H1438 H 0.52796 0.72797 0.16243 0.0
H1439 H 0.50407 0.73194 0.14442 0.0
C1440 C 0.20793 0.4568 0.15045 0.0
C1441 C 0.21925 0.44316 0.13474 0.0
C1442 C 0.21017 0.4789 0.14863 0.0
C1443 C 0.22348 0.48758 0.12999 0.0
C1444 C 0.23513 0.47384 0.11416 0.0
C1445 C 0.23314 0.45168 0.11702 0.0
C1446 C 0.19795 0.49297 0.16636 0.0
C1447 C 0.24894 0.48251 0.0936 0.0
C1448 C 0.20609 0.54333 0.11309 0.0
C1449 C 0.22071 0.55569 0.12635 0.0
C1450 C 0.20783 0.5211 0.11257 0.0
C1451 C 0.2241 0.51103 0.12647 0.0
C1452 C 0.23936 0.52353 0.13921 0.0
C1453 C 0.23767 0.54582 0.13864 0.0
C1454 C 0.19166 0.50838 0.09808 0.0
C1455 C 0.25654 0.5134 0.15483 0.0
H1456 H 0.19733 0.45013 0.16431 0.0
H1457 H 0.24175 0.44104 0.10475 0.0
H1458 H 0.2088 0.50466 0.17519 0.0
H1459 H 0.18569 0.50208 0.15605 0.0
H1460 H 0.18991 0.48369 0.1812 0.0
H1461 H 0.25786 0.46976 0.0838 0.0
H1462 H 0.23885 0.49101 0.07991 0.0
H1463 H 0.26048 0.49422 0.10109 0.0
H1464 H 0.19308 0.55106 0.1034 0.0
H1465 H 0.24888 0.55546 0.14902 0.0
H1466 H 0.1807 0.50023 0.11112 0.0
H1467 H 0.19967 0.49592 0.08687 0.0
H1468 H 0.18205 0.51857 0.0855 0.0
H1469 H 0.24917 0.50563 0.17121 0.0
H1470 H 0.26838 0.52522 0.16149 0.0
H1471 H 0.26496 0.50086 0.14419 0.0
C1472 C 0.14203 0.31377 0.4507 0.0
C1473 C 0.12439 0.31121 0.43508 0.0
C1474 C 0.13971 0.31367 0.47654 0.0
C1475 C 0.11915 0.31167 0.48701 0.0
C1476 C 0.10116 0.30976 0.47131 0.0
C1477 C 0.10405 0.30915 0.44545 0.0
C1478 C 0.15938 0.31512 0.49262 0.0
C1479 C 0.07895 0.30831 0.48184 0.0
C1480 C 0.11842 0.29035 0.55275 0.0
C1481 C 0.11943 0.3092 0.56656 0.0
C1482 C 0.11752 0.2909 0.52675 0.0
C1483 C 0.11684 0.3108 0.51443 0.0
C1484 C 0.11635 0.32986 0.52845 0.0
C1485 C 0.11811 0.32884 0.5544 0.0
C1486 C 0.11879 0.27025 0.51248 0.0
C1487 C 0.11487 0.35133 0.51601 0.0
H1488 H 0.1578 0.31512 0.44269 0.0
H1489 H 0.0904 0.30729 0.43332 0.0
H1490 H 0.15846 0.32934 0.50476 0.0
H1491 H 0.16039 0.30096 0.50488 0.0
H1492 H 0.17423 0.31611 0.48149 0.0
H1493 H 0.06658 0.30846 0.4671 0.0
H1494 H 0.07723 0.29346 0.49276 0.0
H1495 H 0.07601 0.32181 0.49468 0.0
H1496 H 0.11963 0.27517 0.56221 0.0
H1497 H 0.11871 0.34341 0.56517 0.0
H1498 H 0.13403 0.26961 0.5021 0.0
H1499 H 0.10576 0.26926 0.49866 0.0
H1500 H 0.11788 0.25612 0.52484 0.0
H1501 H 0.13014 0.35503 0.50666 0.0
H1502 H 0.11137 0.36424 0.52951 0.0
H1503 H 0.10227 0.35121 0.50157 0.0
C1504 C 0.69394 0.14259 0.54504 0.0
C1505 C 0.69476 0.12521 0.56123 0.0
C1506 C 0.69434 0.13962 0.51928 0.0
C1507 C 0.69482 0.11869 0.50952 0.0
C1508 C 0.69546 0.10103 0.52583 0.0
C1509 C 0.69581 0.10453 0.55159 0.0
C1510 C 0.69429 0.1589 0.50252 0.0
C1511 C 0.69529 0.07851 0.51609 0.0
C1512 C 0.67464 0.11727 0.44337 0.0
C1513 C 0.69373 0.11718 0.42995 0.0
C1514 C 0.67471 0.11609 0.46937 0.0
C1515 C 0.69438 0.11557 0.48218 0.0
C1516 C 0.71367 0.11452 0.46865 0.0
C1517 C 0.71308 0.11502 0.44262 0.0
C1518 C 0.65379 0.11654 0.48312 0.0
C1519 C 0.73498 0.11449 0.48162 0.0
H1520 H 0.69334 0.15859 0.55257 0.0
H1521 H 0.69629 0.09109 0.56421 0.0
H1522 H 0.70797 0.15818 0.48952 0.0
H1523 H 0.67957 0.1591 0.49117 0.0
H1524 H 0.6952 0.17404 0.51312 0.0
H1525 H 0.6959 0.06654 0.53125 0.0
H1526 H 0.68066 0.0758 0.50499 0.0
H1527 H 0.70904 0.07588 0.50355 0.0
H1528 H 0.65965 0.11876 0.43353 0.0
H1529 H 0.72787 0.11512 0.43225 0.0
H1530 H 0.65167 0.13228 0.49212 0.0
H1531 H 0.65362 0.10433 0.498 0.0
H1532 H 0.64005 0.11372 0.47056 0.0
H1533 H 0.73754 0.13015 0.49067 0.0
H1534 H 0.74834 0.11153 0.46856 0.0
H1535 H 0.73539 0.10223 0.4964 0.0
C1536 C 0.89736 0.69278 0.44011 0.0
C1537 C 0.87703 0.68869 0.43051 0.0
C1538 C 0.90092 0.6931 0.46588 0.0
C1539 C 0.88357 0.68999 0.48227 0.0
C1540 C 0.86302 0.68591 0.47258 0.0
C1541 C 0.86009 0.68498 0.44684 0.0
C1542 C 0.92316 0.69679 0.47555 0.0
C1543 C 0.84398 0.68309 0.48939 0.0
C1544 C 0.8873 0.67419 0.54996 0.0
C1545 C 0.88429 0.69382 0.56173 0.0
C1546 C 0.8889 0.67291 0.52402 0.0
C1547 C 0.88648 0.6916 0.50959 0.0
C1548 C 0.88422 0.71156 0.52152 0.0
C1549 C 0.88355 0.71246 0.54753 0.0
C1550 C 0.89213 0.65144 0.51202 0.0
C1551 C 0.88089 0.73177 0.50686 0.0
H1552 H 0.9105 0.69554 0.42747 0.0
H1553 H 0.8443 0.68206 0.43946 0.0
H1554 H 0.92375 0.71185 0.48627 0.0
H1555 H 0.92772 0.68377 0.48842 0.0
H1556 H 0.93509 0.69767 0.46037 0.0
H1557 H 0.82899 0.68062 0.47884 0.0
H1558 H 0.84643 0.66923 0.50179 0.0
H1559 H 0.84205 0.69733 0.50138 0.0
H1560 H 0.88802 0.6598 0.56104 0.0
H1561 H 0.88102 0.72762 0.55669 0.0
H1562 H 0.90427 0.65247 0.4971 0.0
H1563 H 0.87704 0.64611 0.50335 0.0
H1564 H 0.89721 0.63921 0.52568 0.0
H1565 H 0.89335 0.73352 0.49243 0.0
H1566 H 0.88106 0.74615 0.51886 0.0
H1567 H 0.86532 0.73101 0.49717 0.0
C1568 C 0.31059 0.89226 0.55105 0.0
C1569 C 0.31016 0.87184 0.56146 0.0
C1570 C 0.31158 0.89504 0.52521 0.0
C1571 C 0.31131 0.87695 0.50954 0.0
C1572 C 0.31071 0.85629 0.52005 0.0
C1573 C 0.31053 0.85399 0.54593 0.0
C1574 C 0.31299 0.91726 0.51469 0.0
C1575 C 0.30978 0.83661 0.50397 0.0
C1576 C 0.29141 0.88113 0.44328 0.0
C1577 C 0.31026 0.87817 0.42984 0.0
C1578 C 0.29158 0.88145 0.46932 0.0
C1579 C 0.31117 0.87942 0.48211 0.0
C1580 C 0.33041 0.87788 0.46854 0.0
C1581 C 0.32968 0.87689 0.44253 0.0
C1582 C 0.27068 0.88256 0.4831 0.0
C1583 C 0.35166 0.87643 0.4815 0.0
H1584 H 0.31047 0.90605 0.56316 0.0
H1585 H 0.31 0.83821 0.55403 0.0
H1586 H 0.32705 0.91857 0.50233 0.0
H1587 H 0.29872 0.9207 0.50326 0.0
H1588 H 0.31423 0.92955 0.52945 0.0
H1589 H 0.30872 0.82177 0.51509 0.0
H1590 H 0.29576 0.83744 0.49147 0.0
H1591 H 0.32414 0.8357 0.49206 0.0
H1592 H 0.27635 0.88193 0.43349 0.0
H1593 H 0.34429 0.87476 0.43211 0.0
H1594 H 0.27106 0.89545 0.49714 0.0
H1595 H 0.268 0.8674 0.49319 0.0
H1596 H 0.25699 0.88535 0.47046 0.0
H1597 H 0.35294 0.88884 0.49608 0.0
H1598 H 0.36517 0.87825 0.46838 0.0
H1599 H 0.35313 0.86075 0.4908 0.0
C1600 C 0.14577 0.69228 0.44371 0.0
C1601 C 0.12798 0.69425 0.42822 0.0
C1602 C 0.14359 0.69271 0.46958 0.0
C1603 C 0.12305 0.69456 0.48017 0.0
C1604 C 0.10497 0.69616 0.46462 0.0
C1605 C 0.10768 0.6963 0.43876 0.0
C1606 C 0.1633 0.69146 0.48558 0.0
C1607 C 0.08279 0.69755 0.47528 0.0
C1608 C 0.12058 0.67595 0.54694 0.0
C1609 C 0.12154 0.6953 0.5598 0.0
C1610 C 0.11978 0.67552 0.52094 0.0
C1611 C 0.12068 0.69488 0.50758 0.0
C1612 C 0.12103 0.7145 0.52051 0.0
C1613 C 0.12113 0.71447 0.54655 0.0
C1614 C 0.11876 0.65432 0.50778 0.0
C1615 C 0.1225 0.73545 0.5069 0.0
H1616 H 0.16149 0.6909 0.43557 0.0
H1617 H 0.09389 0.69766 0.42677 0.0
H1618 H 0.16412 0.70551 0.49802 0.0
H1619 H 0.16262 0.67711 0.49755 0.0
H1620 H 0.17814 0.69078 0.47439 0.0
H1621 H 0.07037 0.69808 0.46062 0.0
H1622 H 0.07971 0.68364 0.48745 0.0
H1623 H 0.08128 0.71201 0.48697 0.0
H1624 H 0.12069 0.66113 0.55724 0.0
H1625 H 0.12204 0.72944 0.55651 0.0
H1626 H 0.13406 0.65122 0.4982 0.0
H1627 H 0.1061 0.65453 0.49341 0.0
H1628 H 0.1156 0.64098 0.52081 0.0
H1629 H 0.13789 0.73632 0.49684 0.0
H1630 H 0.12139 0.74931 0.51965 0.0
H1631 H 0.10967 0.73672 0.49285 0.0
C1632 C 0.30556 0.10546 0.44041 0.0
C1633 C 0.30684 0.1259 0.43012 0.0
C1634 C 0.30648 0.10247 0.46622 0.0
C1635 C 0.30797 0.12042 0.482 0.0
C1636 C 0.30909 0.14111 0.47164 0.0
C1637 C 0.30885 0.14356 0.4458 0.0
C1638 C 0.30592 0.08016 0.47658 0.0
C1639 C 0.31012 0.1607 0.48787 0.0
C1640 C 0.28863 0.11781 0.54854 0.0
C1641 C 0.30785 0.11897 0.56165 0.0
C1642 C 0.28843 0.11758 0.52251 0.0
C1643 C 0.30796 0.11783 0.5094 0.0
C1644 C 0.32743 0.11755 0.52262 0.0
C1645 C 0.32714 0.11853 0.54864 0.0
C1646 C 0.26734 0.11846 0.5091 0.0
C1647 C 0.34855 0.11709 0.50929 0.0
H1648 H 0.30418 0.09178 0.42823 0.0
H1649 H 0.30964 0.15939 0.43784 0.0
H1650 H 0.31998 0.07745 0.48865 0.0
H1651 H 0.29157 0.07802 0.48829 0.0
H1652 H 0.30578 0.06788 0.46174 0.0
H1653 H 0.31029 0.17564 0.47686 0.0
H1654 H 0.29622 0.16107 0.50057 0.0
H1655 H 0.32464 0.16024 0.49956 0.0
H1656 H 0.2737 0.11835 0.55861 0.0
H1657 H 0.34201 0.11926 0.55882 0.0
H1658 H 0.26637 0.10568 0.49496 0.0
H1659 H 0.26591 0.13387 0.49917 0.0
H1660 H 0.25362 0.11686 0.52197 0.0
H1661 H 0.34851 0.10462 0.49469 0.0
H1662 H 0.36202 0.11402 0.52217 0.0
H1663 H 0.35131 0.13258 0.49997 0.0
C1664 C 0.89029 0.30643 0.44664 0.0
C1665 C 0.87028 0.30719 0.43519 0.0
C1666 C 0.89213 0.30678 0.47261 0.0
C1667 C 0.87348 0.30715 0.48736 0.0
C1668 C 0.85323 0.30774 0.47582 0.0
C1669 C 0.8519 0.3081 0.44985 0.0
C1670 C 0.91399 0.30682 0.48426 0.0
C1671 C 0.83296 0.30753 0.49089 0.0
C1672 C 0.87584 0.28629 0.55339 0.0
C1673 C 0.8742 0.30515 0.56713 0.0
C1674 C 0.87589 0.28672 0.52735 0.0
C1675 C 0.87498 0.30653 0.51487 0.0
C1676 C 0.87431 0.32567 0.52873 0.0
C1677 C 0.87354 0.32473 0.55473 0.0
C1678 C 0.876 0.26596 0.51323 0.0
C1679 C 0.87401 0.34711 0.51608 0.0
H1680 H 0.90451 0.30586 0.43526 0.0
H1681 H 0.83642 0.30847 0.44097 0.0
H1682 H 0.91559 0.3206 0.49701 0.0
H1683 H 0.91623 0.29222 0.49552 0.0
H1684 H 0.92687 0.30762 0.47017 0.0
H1685 H 0.8185 0.3075 0.47902 0.0
H1686 H 0.83261 0.29323 0.50297 0.0
H1687 H 0.83236 0.32166 0.5032 0.0
H1688 H 0.87618 0.27114 0.563 0.0
H1689 H 0.87246 0.33932 0.56541 0.0
H1690 H 0.88953 0.26554 0.50003 0.0
H1691 H 0.86118 0.26455 0.50215 0.0
H1692 H 0.87718 0.25194 0.52573 0.0
H1693 H 0.88717 0.34818 0.50239 0.0
H1694 H 0.87555 0.36044 0.5295 0.0
H1695 H 0.85888 0.34911 0.50572 0.0
C1696 C 0.7094 0.88419 0.55227 0.0
C1697 C 0.68998 0.8829 0.56496 0.0
C1698 C 0.71001 0.88449 0.52625 0.0
C1699 C 0.6907 0.88422 0.5127 0.0
C1700 C 0.67102 0.88455 0.52552 0.0
C1701 C 0.6709 0.88346 0.55154 0.0
C1702 C 0.73131 0.88353 0.51331 0.0
C1703 C 0.65011 0.88503 0.51173 0.0
C1704 C 0.69426 0.89553 0.44347 0.0
C1705 C 0.69298 0.87493 0.43359 0.0
C1706 C 0.69296 0.89893 0.4692 0.0
C1707 C 0.69111 0.88124 0.48533 0.0
C1708 C 0.69006 0.8604 0.47537 0.0
C1709 C 0.69064 0.85754 0.44959 0.0
C1710 C 0.69342 0.9214 0.47911 0.0
C1711 C 0.68869 0.84106 0.49196 0.0
H1712 H 0.72418 0.88354 0.56265 0.0
H1713 H 0.65587 0.88261 0.56139 0.0
H1714 H 0.73299 0.86795 0.50381 0.0
H1715 H 0.73244 0.89606 0.49888 0.0
H1716 H 0.74481 0.88547 0.52644 0.0
H1717 H 0.63651 0.88848 0.52428 0.0
H1718 H 0.65051 0.89723 0.49684 0.0
H1719 H 0.64729 0.8694 0.50275 0.0
H1720 H 0.69589 0.90899 0.43102 0.0
H1721 H 0.68984 0.8416 0.44193 0.0
H1722 H 0.70752 0.92365 0.49121 0.0
H1723 H 0.67911 0.92436 0.49068 0.0
H1724 H 0.69396 0.93343 0.46401 0.0
H1725 H 0.70232 0.84089 0.50508 0.0
H1726 H 0.68876 0.82594 0.48126 0.0
H1727 H 0.67393 0.84169 0.50321 0.0
C1728 C 0.64754 0.80487 0.04814 0.0
C1729 C 0.62985 0.80374 0.06389 0.0
C1730 C 0.64505 0.80462 0.02229 0.0
C1731 C 0.62433 0.80391 0.01198 0.0
C1732 C 0.60636 0.80312 0.02782 0.0
C1733 C 0.60936 0.80269 0.05365 0.0
C1734 C 0.66463 0.80491 0.00602 0.0
C1735 C 0.58403 0.80298 0.0175 0.0
C1736 C 0.62226 0.8234 0.94548 0.0
C1737 C 0.62208 0.80418 0.93229 0.0
C1738 C 0.62169 0.82357 0.9715 0.0
C1739 C 0.62165 0.80403 0.98458 0.0
C1740 C 0.62081 0.78458 0.97133 0.0
C1741 C 0.62072 0.78491 0.94529 0.0
C1742 C 0.62194 0.84463 0.98499 0.0
C1743 C 0.62126 0.76342 0.9846 0.0
H1744 H 0.66339 0.80545 0.05607 0.0
H1745 H 0.59567 0.80197 0.06587 0.0
H1746 H 0.66448 0.791 0.99332 0.0
H1747 H 0.66466 0.81943 0.99431 0.0
H1748 H 0.67959 0.80456 0.01699 0.0
H1749 H 0.57177 0.80281 0.03236 0.0
H1750 H 0.5815 0.81724 0.00572 0.0
H1751 H 0.58167 0.78883 0.0055 0.0
H1752 H 0.62311 0.83831 0.93541 0.0
H1753 H 0.62075 0.77003 0.9351 0.0
H1754 H 0.6375 0.84681 0.99438 0.0
H1755 H 0.60945 0.84493 -0.00045 0.0
H1756 H 0.61936 0.85827 0.97222 0.0
H1757 H 0.63672 0.76155 0.99433 0.0
H1758 H 0.61917 0.74981 0.97166 0.0
H1759 H 0.60858 0.76273 -0.00111 0.0
C1760 C 0.19162 0.60764 0.93804 0.0
C1761 C 0.19031 0.62778 0.92697 0.0
C1762 C 0.19157 0.6055 0.964 0.0
C1763 C 0.19098 0.62397 0.97905 0.0
C1764 C 0.1899 0.64433 0.96787 0.0
C1765 C 0.18922 0.64595 0.94197 0.0
C1766 C 0.19204 0.58353 0.97532 0.0
C1767 C 0.18987 0.66445 0.98324 0.0
C1768 C 0.17357 0.62476 0.04632 0.0
C1769 C 0.19319 0.62504 0.05863 0.0
C1770 C 0.17258 0.62299 0.02039 0.0
C1771 C 0.1917 0.6223 0.00652 0.0
C1772 C 0.21156 0.62207 0.01897 0.0
C1773 C 0.21204 0.62308 0.04497 0.0
C1774 C 0.15111 0.62257 0.00782 0.0
C1775 C 0.2323 0.62199 0.00481 0.0
H1776 H 0.1924 0.59359 0.92638 0.0
H1777 H 0.18851 0.66154 0.93339 0.0
H1778 H 0.20667 0.5815 0.98658 0.0
H1779 H 0.17828 0.58148 0.98801 0.0
H1780 H 0.19156 0.57079 0.96103 0.0
H1781 H 0.18977 0.67903 0.97159 0.0
H1782 H 0.1757 0.66477 0.9955 0.0
H1783 H 0.20414 0.66485 0.99538 0.0
H1784 H 0.15899 0.62603 0.05698 0.0
H1785 H 0.22721 0.6234 0.05456 0.0
H1786 H 0.15045 0.6095 0.99398 0.0
H1787 H 0.14851 0.63772 -0.0023 0.0
H1788 H 0.13791 0.62043 0.0213 0.0
H1789 H 0.23265 0.60865 0.99134 0.0
H1790 H 0.24632 0.62059 0.01727 0.0
H1791 H 0.23376 0.63696 0.99401 0.0
C1792 C 0.37573 0.1752 0.04822 0.0
C1793 C 0.37686 0.19408 0.062 0.0
C1794 C 0.37612 0.17563 0.02221 0.0
C1795 C 0.37699 0.19545 0.00977 0.0
C1796 C 0.37881 0.21451 0.02361 0.0
C1797 C 0.37902 0.21357 0.04962 0.0
C1798 C 0.37481 0.15492 0.00805 0.0
C1799 C 0.37928 0.23598 0.01101 0.0
C1800 C 0.38919 0.19741 0.94077 0.0
C1801 C 0.36866 0.19739 0.93059 0.0
C1802 C 0.39221 0.19653 0.96656 0.0
C1803 C 0.37425 0.19632 0.98242 0.0
C1804 C 0.35349 0.19675 0.97218 0.0
C1805 C 0.35095 0.19694 0.94633 0.0
C1806 C 0.41455 0.19546 0.97681 0.0
C1807 C 0.33396 0.1971 0.98851 0.0
H1808 H 0.37425 0.16011 0.05782 0.0
H1809 H 0.37972 0.2282 0.06026 0.0
H1810 H 0.35915 0.15373 -0.00133 0.0
H1811 H 0.38724 0.15436 0.99343 0.0
H1812 H 0.37676 0.14088 0.02037 0.0
H1813 H 0.38209 0.24917 0.02435 0.0
H1814 H 0.39189 0.2364 0.99663 0.0
H1815 H 0.36387 0.2388 0.00149 0.0
H1816 H 0.40289 0.19756 0.92853 0.0
H1817 H 0.33508 0.19711 0.93842 0.0
H1818 H 0.4165 0.18075 0.98798 0.0
H1819 H 0.4175 0.20912 0.98938 0.0
H1820 H 0.42679 0.19557 0.96192 0.0
H1821 H 0.3332 0.18233 -0.00026 0.0
H1822 H 0.31901 0.19848 0.97761 0.0
H1823 H 0.33484 0.21068 0.00165 0.0
C1824 C 0.82638 0.38024 0.05202 0.0
C1825 C 0.80741 0.38075 0.06566 0.0
C1826 C 0.82611 0.38133 0.026 0.0
C1827 C 0.80636 0.38225 0.01339 0.0
C1828 C 0.78721 0.38372 0.02714 0.0
C1829 C 0.788 0.38325 0.05317 0.0
C1830 C 0.84691 0.38041 0.01201 0.0
C1831 C 0.76581 0.38422 0.01441 0.0
C1832 C 0.80452 0.39363 0.94406 0.0
C1833 C 0.80482 0.37297 0.93423 0.0
C1834 C 0.80527 0.39699 0.96983 0.0
C1835 C 0.80562 0.37925 0.98603 0.0
C1836 C 0.80543 0.35837 0.97613 0.0
C1837 C 0.80537 0.3555 0.95034 0.0
C1838 C 0.80608 0.41946 0.97971 0.0
C1839 C 0.80521 0.33902 0.99278 0.0
H1840 H 0.84142 0.37849 0.06168 0.0
H1841 H 0.77328 0.38349 0.06368 0.0
H1842 H 0.84854 0.36466 0.00289 0.0
H1843 H 0.84726 0.39268 -0.00279 0.0
H1844 H 0.86082 0.38281 0.02443 0.0
H1845 H 0.75261 0.38738 0.02762 0.0
H1846 H 0.76553 0.39657 -0.00029 0.0
H1847 H 0.76287 0.36866 0.00527 0.0
H1848 H 0.80425 0.40715 0.93156 0.0
H1849 H 0.80539 0.33952 0.94273 0.0
H1850 H 0.82081 0.42172 0.99077 0.0
H1851 H 0.79243 0.4224 0.9923 0.0
H1852 H 0.80576 0.43151 0.96462 0.0
H1853 H 0.81998 0.3385 0.00403 0.0
H1854 H 0.80395 0.32394 0.98211 0.0
H1855 H 0.79161 0.33995 0.00588 0.0
C1856 C 0.61439 0.2087 0.05164 0.0
C1857 C 0.61725 0.18988 0.06519 0.0
C1858 C 0.61432 0.20848 0.0256 0.0
C1859 C 0.61654 0.18887 0.01289 0.0
C1860 C 0.61791 0.16967 0.02654 0.0
C1861 C 0.61862 0.17043 0.05256 0.0
C1862 C 0.61337 0.22936 0.01176 0.0
C1863 C 0.6196 0.1484 0.01365 0.0
C1864 C 0.60535 0.18934 0.94351 0.0
C1865 C 0.62602 0.18982 0.93378 0.0
C1866 C 0.60194 0.18837 0.96926 0.0
C1867 C 0.61964 0.18871 0.98554 0.0
C1868 C 0.64054 0.18939 0.97572 0.0
C1869 C 0.64347 0.18957 0.94994 0.0
C1870 C 0.57948 0.18695 0.97905 0.0
C1871 C 0.65982 0.1904 0.99244 0.0
H1872 H 0.6135 0.22379 0.06135 0.0
H1873 H 0.62065 0.15584 0.06304 0.0
H1874 H 0.62877 0.23218 0.00224 0.0
H1875 H 0.60086 0.22885 -0.00274 0.0
H1876 H 0.61012 0.24302 0.02429 0.0
H1877 H 0.61748 0.13491 0.02674 0.0
H1878 H 0.6075 0.14712 -0.00128 0.0
H1879 H 0.63548 0.14689 0.00483 0.0
H1880 H 0.59186 0.18941 0.93095 0.0
H1881 H 0.65946 0.19017 0.94239 0.0
H1882 H 0.57576 0.20119 0.9904 0.0
H1883 H 0.57788 0.17287 0.99134 0.0
H1884 H 0.56755 0.18572 0.9639 0.0
H1885 H 0.65866 0.20444 0.00487 0.0
H1886 H 0.67493 0.19148 0.98181 0.0
H1887 H 0.66049 0.17606 0.0044 0.0
C1888 C 0.78974 0.61774 0.047 0.0
C1889 C 0.80865 0.61871 0.06072 0.0
C1890 C 0.79017 0.61749 0.02096 0.0
C1891 C 0.81001 0.61755 0.00847 0.0
C1892 C 0.82915 0.61713 0.02233 0.0
C1893 C 0.82824 0.61808 0.04832 0.0
C1894 C 0.76943 0.6185 0.00685 0.0
C1895 C 0.85059 0.61653 0.0097 0.0
C1896 C 0.80961 0.60535 0.93931 0.0
C1897 C 0.8113 0.62581 0.92915 0.0
C1898 C 0.80968 0.60229 0.96515 0.0
C1899 C 0.81076 0.62019 0.98107 0.0
C1900 C 0.81233 0.64089 0.97084 0.0
C1901 C 0.8129 0.64341 0.94501 0.0
C1902 C 0.80864 0.57996 0.97541 0.0
C1903 C 0.81297 0.66044 0.98716 0.0
H1904 H 0.77459 0.61838 0.0566 0.0
H1905 H 0.84288 0.61862 0.05897 0.0
H1906 H 0.76832 0.63395 0.99694 0.0
H1907 H 0.76875 0.60576 0.99264 0.0
H1908 H 0.75539 0.61692 0.01925 0.0
H1909 H 0.86372 0.61343 0.02303 0.0
H1910 H 0.85083 0.60403 0.99515 0.0
H1911 H 0.85365 0.63198 0.00042 0.0
H1912 H 0.80846 0.59171 0.92704 0.0
H1913 H 0.81394 0.65927 0.93719 0.0
H1914 H 0.79396 0.57794 0.98658 0.0
H1915 H 0.82234 0.5771 0.98798 0.0
H1916 H 0.80878 0.56772 0.96053 0.0
H1917 H 0.7987 0.66086 -0.0007 0.0
H1918 H 0.81355 0.67541 0.97623 0.0
H1919 H 0.82713 0.65987 -0.00056 0.0
C1920 C 0.38895 0.82663 0.9414 0.0
C1921 C 0.38725 0.80722 0.92875 0.0
C1922 C 0.39084 0.82718 0.96735 0.0
C1923 C 0.39019 0.8079 0.98094 0.0
C1924 C 0.38958 0.78823 0.96812 0.0
C1925 C 0.38845 0.78813 0.9421 0.0
C1926 C 0.39223 0.84845 0.98028 0.0
C1927 C 0.38829 0.76733 0.98188 0.0
C1928 C 0.40067 0.80625 0.05056 0.0
C1929 C 0.37999 0.80845 0.05998 0.0
C1930 C 0.40442 0.8066 0.02482 0.0
C1931 C 0.38698 0.80841 0.00828 0.0
C1932 C 0.36607 0.81041 0.0178 0.0
C1933 C 0.36289 0.81074 0.04351 0.0
C1934 C 0.42697 0.80513 0.01533 0.0
C1935 C 0.34696 0.81181 0.00083 0.0
H1936 H 0.38825 0.8414 0.93104 0.0
H1937 H 0.387 0.77311 0.93234 0.0
H1938 H 0.3767 0.85223 0.98901 0.0
H1939 H 0.40435 0.84798 0.99526 0.0
H1940 H 0.39631 0.86148 0.96719 0.0
H1941 H 0.39022 0.75346 0.9693 0.0
H1942 H 0.40062 0.76649 0.99656 0.0
H1943 H 0.37256 0.76609 0.99116 0.0
H1944 H 0.4139 0.80457 0.06333 0.0
H1945 H 0.34686 0.81217 0.05076 0.0
H1946 H 0.4305 0.81895 0.00318 0.0
H1947 H 0.42893 0.79059 0.00389 0.0
H1948 H 0.43881 0.80473 0.03064 0.0
H1949 H 0.34812 0.82622 0.98903 0.0
H1950 H 0.33173 0.81247 0.01126 0.0
H1951 H 0.34655 0.79782 0.98826 0.0
C1952 C 0.1727 0.37892 0.94494 0.0
C1953 C 0.19213 0.37977 0.93224 0.0
C1954 C 0.17202 0.37994 0.97093 0.0
C1955 C 0.19128 0.38115 0.98447 0.0
C1956 C 0.21091 0.38277 0.97168 0.0
C1957 C 0.21106 0.38237 0.94564 0.0
C1958 C 0.15074 0.37883 0.9839 0.0
C1959 C 0.23182 0.38356 0.98547 0.0
C1960 C 0.19107 0.39352 0.05354 0.0
C1961 C 0.19091 0.37301 0.06373 0.0
C1962 C 0.19075 0.39651 0.0277 0.0
C1963 C 0.19105 0.37853 0.01186 0.0
C1964 C 0.19118 0.35779 0.02214 0.0
C1965 C 0.19075 0.35529 0.04797 0.0
C1966 C 0.18992 0.41882 0.01737 0.0
C1967 C 0.1921 0.33822 0.00588 0.0
H1968 H 0.15803 0.37714 0.93455 0.0
H1969 H 0.22611 0.3829 0.93582 0.0
H1970 H 0.14907 0.3632 0.99327 0.0
H1971 H 0.14964 0.39131 -0.00158 0.0
H1972 H 0.13725 0.38079 0.97077 0.0
H1973 H 0.24551 0.38639 0.97285 0.0
H1974 H 0.23155 0.39628 -0.00027 0.0
H1975 H 0.23439 0.36825 0.99529 0.0
H1976 H 0.1911 0.40722 0.0658 0.0
H1977 H 0.1909 0.33943 0.05588 0.0
H1978 H 0.17579 0.4206 0.00518 0.0
H1979 H 0.20417 0.42191 0.00578 0.0
H1980 H 0.18915 0.43106 0.03223 0.0
H1981 H 0.1778 0.33749 0.99384 0.0
H1982 H 0.19298 0.32328 0.01687 0.0
H1983 H 0.20621 0.33902 0.99352 0.0
C1984 C 0.16543 0.35126 0.19482 0.0
C1985 C 0.18502 0.36178 0.19687 0.0
C1986 C 0.15629 0.34105 0.21531 0.0
C1987 C 0.16715 0.34116 0.23832 0.0
C1988 C 0.18718 0.35131 0.24037 0.0
C1989 C 0.19584 0.36165 0.21961 0.0
C1990 C 0.13476 0.33062 0.2125 0.0
C1991 C 0.19935 0.35144 0.26455 0.0
C1992 C 0.13468 0.33527 0.29714 0.0
C1993 C 0.13677 0.31352 0.30196 0.0
C1994 C 0.14429 0.34441 0.27625 0.0
C1995 C 0.15698 0.33158 0.26051 0.0
C1996 C 0.15954 0.30963 0.26573 0.0
C1997 C 0.14899 0.30074 0.28622 0.0
C1998 C 0.14061 0.36771 0.27084 0.0
C1999 C 0.17352 0.29564 0.24982 0.0
H2000 H 0.15702 0.35131 0.17724 0.0
H2001 H 0.21107 0.36963 0.2212 0.0
H2002 H 0.13567 0.31364 0.21796 0.0
H2003 H 0.12313 0.33842 0.22506 0.0
H2004 H 0.12864 0.33158 0.19318 0.0
H2005 H 0.21534 0.35879 0.26261 0.0
H2006 H 0.19029 0.36044 0.27877 0.0
H2007 H 0.20127 0.33495 0.27156 0.0
H2008 H 0.12511 0.34503 0.30943 0.0
H2009 H 0.15074 0.28393 0.29032 0.0
H2010 H 0.13352 0.36958 0.25209 0.0
H2011 H 0.15598 0.37637 0.27083 0.0
H2012 H 0.12987 0.3753 0.28462 0.0
H2013 H 0.16722 0.29505 0.2306 0.0
H2014 H 0.1746 0.27913 0.25709 0.0
H2015 H 0.1898 0.30243 0.2488 0.0
C2016 C 0.64376 0.20161 0.21562 0.0
C2017 C 0.63428 0.1888 0.19746 0.0
C2018 C 0.65468 0.19242 0.23568 0.0
C2019 C 0.65546 0.16997 0.2379 0.0
C2020 C 0.64557 0.15704 0.21975 0.0
C2021 C 0.63539 0.16663 0.1995 0.0
C2022 C 0.66558 0.20669 0.25431 0.0
C2023 C 0.64557 0.13306 0.22182 0.0
C2024 C 0.69757 0.14236 0.2768 0.0
C2025 C 0.68635 0.13825 0.29876 0.0
C2026 C 0.68792 0.15333 0.2571 0.0
C2027 C 0.66644 0.15989 0.25929 0.0
C2028 C 0.65511 0.1559 0.28152 0.0
C2029 C 0.6653 0.14531 0.3011 0.0
C2030 C 0.70061 0.15769 0.23385 0.0
C2031 C 0.63207 0.16231 0.28437 0.0
H2032 H 0.64309 0.21877 0.2138 0.0
H2033 H 0.62795 0.15677 0.18544 0.0
H2034 H 0.65875 0.2041 0.27305 0.0
H2035 H 0.68275 0.20265 0.25538 0.0
H2036 H 0.664 0.2238 0.2495 0.0
H2037 H 0.63658 0.12535 0.2065 0.0
H2038 H 0.66214 0.12699 0.22156 0.0
H2039 H 0.63839 0.12817 0.23975 0.0
H2040 H 0.71393 0.13709 0.27506 0.0
H2041 H 0.65659 0.14212 0.31806 0.0
H2042 H 0.69995 0.17488 0.22922 0.0
H2043 H 0.6936 0.1489 0.21798 0.0
H2044 H 0.71754 0.15289 0.23579 0.0
H2045 H 0.63025 0.17965 0.28123 0.0
H2046 H 0.62567 0.15838 0.30304 0.0
H2047 H 0.62228 0.15407 0.27017 0.0
C2048 C 0.80218 0.63796 0.21309 0.0
C2049 C 0.81482 0.63172 0.19296 0.0
C2050 C 0.81112 0.64868 0.23342 0.0
C2051 C 0.83331 0.65262 0.23387 0.0
C2052 C 0.84615 0.64618 0.21361 0.0
C2053 C 0.83666 0.63608 0.19318 0.0
C2054 C 0.79684 0.65586 0.25435 0.0
C2055 C 0.86993 0.64961 0.21372 0.0
C2056 C 0.85607 0.69482 0.27682 0.0
C2057 C 0.86223 0.68254 0.29728 0.0
C2058 C 0.84625 0.68535 0.25618 0.0
C2059 C 0.84317 0.66302 0.2558 0.0
C2060 C 0.8496 0.65056 0.27636 0.0
C2061 C 0.85877 0.66053 0.29704 0.0
C2062 C 0.83904 0.69922 0.23489 0.0
C2063 C 0.84707 0.62666 0.27639 0.0
H2064 H 0.78522 0.63481 0.21274 0.0
H2065 H 0.84642 0.63119 0.17759 0.0
H2066 H 0.80138 0.64766 0.2718 0.0
H2067 H 0.79881 0.67319 0.25753 0.0
H2068 H 0.77978 0.65255 0.25054 0.0
H2069 H 0.87767 0.64338 0.19665 0.0
H2070 H 0.87356 0.66682 0.21535 0.0
H2071 H 0.87709 0.6416 0.23007 0.0
H2072 H 0.8586 0.71188 0.27713 0.0
H2073 H 0.86368 0.65102 0.31283 0.0
H2074 H 0.8218 0.69678 0.23143 0.0
H2075 H 0.84757 0.69467 0.21767 0.0
H2076 H 0.84189 0.71639 0.2385 0.0
H2077 H 0.83001 0.62239 0.27464 0.0
H2078 H 0.85346 0.61923 0.29356 0.0
H2079 H 0.85545 0.61972 0.26016 0.0
C2080 C 0.35557 0.79976 0.21232 0.0
C2081 C 0.36248 0.81274 0.1928 0.0
C2082 C 0.34489 0.80851 0.23281 0.0
C2083 C 0.34175 0.83081 0.23406 0.0
C2084 C 0.34879 0.84395 0.21436 0.0
C2085 C 0.35877 0.83469 0.19375 0.0
C2086 C 0.33702 0.79394 0.25311 0.0
C2087 C 0.34625 0.86784 0.21531 0.0
C2088 C 0.30073 0.85535 0.27717 0.0
C2089 C 0.31333 0.86094 0.29759 0.0
C2090 C 0.30964 0.84488 0.25662 0.0
C2091 C 0.33175 0.84055 0.2563 0.0
C2092 C 0.34452 0.8462 0.27693 0.0
C2093 C 0.33507 0.85606 0.2975 0.0
C2094 C 0.29544 0.83854 0.23526 0.0
C2095 C 0.36824 0.84231 0.27703 0.0
H2096 H 0.35826 0.78274 0.2114 0.0
H2097 H 0.36423 0.84471 0.17865 0.0
H2098 H 0.34547 0.79751 0.27071 0.0
H2099 H 0.31981 0.79669 0.25645 0.0
H2100 H 0.33948 0.77688 0.24853 0.0
H2101 H 0.35275 0.87579 0.19853 0.0
H2102 H 0.32919 0.87208 0.21711 0.0
H2103 H 0.35455 0.87424 0.2319 0.0
H2104 H 0.28385 0.85892 0.27738 0.0
H2105 H 0.34483 0.86047 0.31329 0.0
H2106 H 0.29736 0.82133 0.23121 0.0
H2107 H 0.3001 0.84736 0.21828 0.0
H2108 H 0.27838 0.84179 0.23913 0.0
H2109 H 0.37159 0.82512 0.27457 0.0
H2110 H 0.3759 0.84775 0.29451 0.0
H2111 H 0.37573 0.8508 0.26121 0.0
C2112 C 0.19731 0.64307 0.77344 0.0
C2113 C 0.18495 0.63662 0.79371 0.0
C2114 C 0.18787 0.65318 0.75297 0.0
C2115 C 0.16553 0.6563 0.75261 0.0
C2116 C 0.15299 0.64938 0.77287 0.0
C2117 C 0.16291 0.6399 0.79334 0.0
C2118 C 0.20178 0.66085 0.73195 0.0
C2119 C 0.12908 0.65193 0.77289 0.0
C2120 C 0.14024 0.6986 0.71196 0.0
C2121 C 0.13374 0.68657 0.69144 0.0
C2122 C 0.15121 0.68904 0.73171 0.0
C2123 C 0.15517 0.66686 0.73114 0.0
C2124 C 0.14847 0.65464 0.71049 0.0
C2125 C 0.1381 0.66473 0.69068 0.0
C2126 C 0.15859 0.70266 0.75315 0.0
C2127 C 0.1519 0.63087 0.70954 0.0
H2128 H 0.21439 0.64069 0.77389 0.0
H2129 H 0.15335 0.63478 0.809 0.0
H2130 H 0.19695 0.65309 0.71433 0.0
H2131 H 0.19969 0.67825 0.72941 0.0
H2132 H 0.2189 0.65751 0.73528 0.0
H2133 H 0.12159 0.6449 0.78967 0.0
H2134 H 0.12485 0.66905 0.77206 0.0
H2135 H 0.12218 0.64422 0.7562 0.0
H2136 H 0.13712 0.71557 0.71235 0.0
H2137 H 0.13302 0.65545 0.67477 0.0
H2138 H 0.17592 0.70047 0.75616 0.0
H2139 H 0.15041 0.69767 0.77044 0.0
H2140 H 0.15538 0.71984 0.75003 0.0
H2141 H 0.1691 0.62716 0.71107 0.0
H2142 H 0.1457 0.62369 0.69212 0.0
H2143 H 0.14384 0.6232 0.72553 0.0
C2144 C 0.32328 0.12158 0.71214 0.0
C2145 C 0.31369 0.13422 0.69398 0.0
C2146 C 0.33353 0.13091 0.73254 0.0
C2147 C 0.33347 0.15335 0.73506 0.0
C2148 C 0.32341 0.16613 0.71685 0.0
C2149 C 0.31391 0.15637 0.69623 0.0
C2150 C 0.3446 0.11681 0.75121 0.0
C2151 C 0.32244 0.19005 0.71931 0.0
C2152 C 0.34227 0.17493 0.79998 0.0
C2153 C 0.36315 0.18254 0.79837 0.0
C2154 C 0.33222 0.16585 0.7793 0.0
C2155 C 0.34374 0.16345 0.7569 0.0
C2156 C 0.36506 0.17064 0.75539 0.0
C2157 C 0.37438 0.18054 0.77605 0.0
C2158 C 0.30922 0.15909 0.78134 0.0
C2159 C 0.37809 0.16762 0.7321 0.0
H2160 H 0.32309 0.10441 0.71011 0.0
H2161 H 0.3063 0.166 0.68211 0.0
H2162 H 0.36151 0.12165 0.75309 0.0
H2163 H 0.3371 0.11865 0.76972 0.0
H2164 H 0.344 0.09974 0.74589 0.0
H2165 H 0.31334 0.19758 0.70395 0.0
H2166 H 0.31486 0.19442 0.73721 0.0
H2167 H 0.33875 0.19677 0.71945 0.0
H2168 H 0.33358 0.1765 0.81723 0.0
H2169 H 0.39062 0.18628 0.77495 0.0
H2170 H 0.30784 0.14168 0.77844 0.0
H2171 H 0.29966 0.16696 0.76664 0.0
H2172 H 0.30223 0.1631 0.7997 0.0
H2173 H 0.37841 0.15052 0.72693 0.0
H2174 H 0.39472 0.17328 0.73435 0.0
H2175 H 0.37069 0.17636 0.71645 0.0
C2176 C 0.8602 0.29962 0.71818 0.0
C2177 C 0.86944 0.31214 0.69961 0.0
C2178 C 0.84983 0.30911 0.73845 0.0
C2179 C 0.84946 0.33159 0.74052 0.0
C2180 C 0.8593 0.34423 0.72204 0.0
C2181 C 0.8688 0.33433 0.70151 0.0
C2182 C 0.83889 0.29513 0.75734 0.0
C2183 C 0.85984 0.3682 0.72397 0.0
C2184 C 0.80762 0.35928 0.77987 0.0
C2185 C 0.81873 0.36269 0.80206 0.0
C2186 C 0.81728 0.3487 0.75987 0.0
C2187 C 0.83871 0.34194 0.76194 0.0
C2188 C 0.85003 0.34551 0.78428 0.0
C2189 C 0.83978 0.35559 0.80422 0.0
C2190 C 0.80453 0.34468 0.73656 0.0
C2191 C 0.87306 0.33902 0.78698 0.0
H2192 H 0.86046 0.28243 0.71641 0.0
H2193 H 0.87603 0.34394 0.68707 0.0
H2194 H 0.84589 0.29776 0.77599 0.0
H2195 H 0.82178 0.2994 0.75851 0.0
H2196 H 0.84021 0.27796 0.75269 0.0
H2197 H 0.86907 0.37562 0.70867 0.0
H2198 H 0.84341 0.37463 0.72355 0.0
H2199 H 0.86703 0.37302 0.74194 0.0
H2200 H 0.79126 0.36457 0.77829 0.0
H2201 H 0.84841 0.35829 0.82136 0.0
H2202 H 0.80475 0.32747 0.73197 0.0
H2203 H 0.81181 0.35325 0.7207 0.0
H2204 H 0.78773 0.34993 0.73843 0.0
H2205 H 0.87472 0.32162 0.78421 0.0
H2206 H 0.87965 0.3432 0.80549 0.0
H2207 H 0.88278 0.34695 0.77248 0.0
C2208 C 0.69657 0.85583 0.71738 0.0
C2209 C 0.68442 0.86208 0.69684 0.0
C2210 C 0.68709 0.84538 0.73756 0.0
C2211 C 0.66486 0.84166 0.73741 0.0
C2212 C 0.65252 0.84805 0.71672 0.0
C2213 C 0.66253 0.85792 0.6965 0.0
C2214 C 0.70084 0.83828 0.75902 0.0
C2215 C 0.62871 0.84481 0.71612 0.0
C2216 C 0.64067 0.79976 0.77959 0.0
C2217 C 0.63405 0.81211 0.79981 0.0
C2218 C 0.65114 0.80911 0.75934 0.0
C2219 C 0.65442 0.8314 0.75906 0.0
C2220 C 0.6475 0.84396 0.77935 0.0
C2221 C 0.63769 0.83408 0.7997 0.0
C2222 C 0.65885 0.79514 0.73838 0.0
C2223 C 0.65021 0.86783 0.77942 0.0
H2224 H 0.71355 0.85889 0.71753 0.0
H2225 H 0.65311 0.86286 0.68065 0.0
H2226 H 0.69594 0.84665 0.77622 0.0
H2227 H 0.69867 0.82098 0.76231 0.0
H2228 H 0.718 0.84145 0.75571 0.0
H2229 H 0.6214 0.85098 0.69878 0.0
H2230 H 0.62491 0.82764 0.71779 0.0
H2231 H 0.62127 0.85299 0.73219 0.0
H2232 H 0.63806 0.7827 0.77985 0.0
H2233 H 0.63248 0.84361 0.81534 0.0
H2234 H 0.67619 0.79747 0.73556 0.0
H2235 H 0.65082 0.79969 0.72083 0.0
H2236 H 0.65581 0.778 0.74193 0.0
H2237 H 0.66734 0.87197 0.77824 0.0
H2238 H 0.64346 0.87533 0.79636 0.0
H2239 H 0.64228 0.87481 0.7629 0.0
C2240 C 0.85702 0.70279 0.71333 0.0
C2241 C 0.86378 0.6907 0.69297 0.0
C2242 C 0.84648 0.69314 0.73337 0.0
C2243 C 0.84322 0.67084 0.73323 0.0
C2244 C 0.84999 0.6586 0.71263 0.0
C2245 C 0.85995 0.66875 0.69259 0.0
C2246 C 0.839 0.70675 0.75476 0.0
C2247 C 0.84723 0.63473 0.71203 0.0
C2248 C 0.838 0.64296 0.7953 0.0
C2249 C 0.81622 0.63832 0.79598 0.0
C2250 C 0.84699 0.65348 0.77492 0.0
C2251 C 0.83372 0.66008 0.75512 0.0
C2252 C 0.81159 0.65584 0.75599 0.0
C2253 C 0.80312 0.64469 0.77631 0.0
C2254 C 0.87073 0.65722 0.77439 0.0
C2255 C 0.79688 0.66316 0.73553 0.0
H2256 H 0.85977 0.71982 0.71348 0.0
H2257 H 0.86522 0.65938 0.67685 0.0
H2258 H 0.82186 0.70384 0.75838 0.0
H2259 H 0.84779 0.7024 0.77187 0.0
H2260 H 0.84136 0.724 0.75118 0.0
H2261 H 0.85318 0.62759 0.69449 0.0
H2262 H 0.85593 0.62743 0.72781 0.0
H2263 H 0.83019 0.63054 0.71421 0.0
H2264 H 0.84811 0.63796 0.81053 0.0
H2265 H 0.78622 0.64132 0.77704 0.0
H2266 H 0.87411 0.6745 0.77309 0.0
H2267 H 0.87773 0.64957 0.75771 0.0
H2268 H 0.87882 0.65082 0.79114 0.0
H2269 H 0.79859 0.68056 0.7327 0.0
H2270 H 0.77994 0.65955 0.73964 0.0
H2271 H 0.80127 0.65531 0.71781 0.0
C2272 C 0.35662 0.80085 0.77718 0.0
C2273 C 0.3629 0.81261 0.79802 0.0
C2274 C 0.3461 0.81069 0.75727 0.0
C2275 C 0.34231 0.8329 0.75803 0.0
C2276 C 0.34847 0.8448 0.77915 0.0
C2277 C 0.35847 0.83444 0.79905 0.0
C2278 C 0.33928 0.79739 0.73532 0.0
C2279 C 0.34507 0.86857 0.78043 0.0
C2280 C 0.33726 0.86094 0.69599 0.0
C2281 C 0.31533 0.86465 0.69467 0.0
C2282 C 0.34627 0.85093 0.71673 0.0
C2283 C 0.33289 0.84386 0.7362 0.0
C2284 C 0.31065 0.84731 0.73477 0.0
C2285 C 0.30215 0.858 0.71413 0.0
C2286 C 0.37011 0.84803 0.71786 0.0
C2287 C 0.29583 0.83943 0.75482 0.0
H2288 H 0.35983 0.78391 0.77649 0.0
H2289 H 0.36336 0.84357 0.81515 0.0
H2290 H 0.32217 0.80005 0.7313 0.0
H2291 H 0.34834 0.80225 0.71858 0.0
H2292 H 0.34192 0.78012 0.73847 0.0
H2293 H 0.35039 0.87541 0.79841 0.0
H2294 H 0.35399 0.87645 0.76521 0.0
H2295 H 0.328 0.8724 0.77778 0.0
H2296 H 0.34743 0.86617 0.68091 0.0
H2297 H 0.28513 0.86065 0.7129 0.0
H2298 H 0.37407 0.83085 0.71862 0.0
H2299 H 0.37649 0.85545 0.73501 0.0
H2300 H 0.37832 0.85516 0.70159 0.0
H2301 H 0.29767 0.82197 0.75708 0.0
H2302 H 0.27889 0.84298 0.75062 0.0
H2303 H 0.29999 0.84687 0.77285 0.0
C2304 C 0.13936 0.30224 0.7207 0.0
C2305 C 0.13658 0.31331 0.69836 0.0
C2306 C 0.14947 0.31191 0.74103 0.0
C2307 C 0.15656 0.33323 0.73902 0.0
C2308 C 0.1538 0.34444 0.71647 0.0
C2309 C 0.14401 0.33427 0.69634 0.0
C2310 C 0.15253 0.29935 0.76465 0.0
C2311 C 0.16084 0.3673 0.71373 0.0
C2312 C 0.16288 0.36526 0.79824 0.0
C2313 C 0.18503 0.36612 0.80056 0.0
C2314 C 0.15339 0.35472 0.77815 0.0
C2315 C 0.16641 0.34409 0.76064 0.0
C2316 C 0.18883 0.34442 0.76339 0.0
C2317 C 0.19791 0.35583 0.78312 0.0
C2318 C 0.12948 0.3553 0.77541 0.0
C2319 C 0.20318 0.33266 0.74557 0.0
H2320 H 0.13376 0.28598 0.72224 0.0
H2321 H 0.14185 0.34289 0.67909 0.0
H2322 H 0.1696 0.2993 0.76996 0.0
H2323 H 0.14362 0.30696 0.78005 0.0
H2324 H 0.14704 0.28262 0.7628 0.0
H2325 H 0.15738 0.37379 0.69497 0.0
H2326 H 0.15268 0.37735 0.72774 0.0
H2327 H 0.17819 0.36863 0.7172 0.0
H2328 H 0.15301 0.3733 0.81184 0.0
H2329 H 0.21507 0.35629 0.78527 0.0
H2330 H 0.12298 0.3389 0.77549 0.0
H2331 H 0.12517 0.36257 0.75731 0.0
H2332 H 0.12168 0.36453 0.79047 0.0
H2333 H 0.19834 0.31571 0.74439 0.0
H2334 H 0.22017 0.33342 0.75122 0.0
H2335 H 0.20163 0.33952 0.72669 0.0
C2336 C 0.6752 0.15706 0.69237 0.0
C2337 C 0.6813 0.13568 0.69382 0.0
C2338 C 0.66673 0.16755 0.71314 0.0
C2339 C 0.66336 0.15602 0.73538 0.0
C2340 C 0.66891 0.1342 0.73661 0.0
C2341 C 0.67832 0.12442 0.71594 0.0
C2342 C 0.66186 0.19104 0.71145 0.0
C2343 C 0.66475 0.12116 0.75965 0.0
C2344 C 0.65837 0.18398 0.79758 0.0
C2345 C 0.63629 0.18575 0.79986 0.0
C2346 C 0.66746 0.17499 0.77622 0.0
C2347 C 0.65403 0.16674 0.7574 0.0
C2348 C 0.63164 0.16832 0.7599 0.0
C2349 C 0.62305 0.17827 0.78093 0.0
C2350 C 0.69139 0.17437 0.77377 0.0
C2351 C 0.61679 0.15899 0.74072 0.0
H2352 H 0.67768 0.16576 0.67527 0.0
H2353 H 0.68297 0.10782 0.71689 0.0
H2354 H 0.64464 0.19383 0.71452 0.0
H2355 H 0.67057 0.19976 0.72621 0.0
H2356 H 0.66633 0.19786 0.69315 0.0
H2357 H 0.66876 0.10409 0.75699 0.0
H2358 H 0.67428 0.1274 0.77537 0.0
H2359 H 0.64774 0.12241 0.76499 0.0
H2360 H 0.66851 0.18995 0.8123 0.0
H2361 H 0.60593 0.17958 0.783 0.0
H2362 H 0.6963 0.18157 0.75585 0.0
H2363 H 0.697 0.15764 0.77374 0.0
H2364 H 0.69949 0.18298 0.78911 0.0
H2365 H 0.61955 0.16657 0.72242 0.0
H2366 H 0.59979 0.1611 0.7458 0.0
H2367 H 0.62005 0.14173 0.73853 0.0
C2368 C 0.83593 0.35534 0.19634 0.0
C2369 C 0.81422 0.36034 0.19757 0.0
C2370 C 0.84636 0.34585 0.21652 0.0
C2371 C 0.83465 0.34079 0.23818 0.0
C2372 C 0.81257 0.34523 0.23922 0.0
C2373 C 0.80266 0.35521 0.21898 0.0
C2374 C 0.87 0.34175 0.21492 0.0
C2375 C 0.79946 0.3396 0.26178 0.0
C2376 C 0.85911 0.30095 0.28293 0.0
C2377 C 0.86643 0.31438 0.30184 0.0
C2378 C 0.8484 0.30929 0.26223 0.0
C2379 C 0.84567 0.33159 0.26011 0.0
C2380 C 0.85346 0.3452 0.27899 0.0
C2381 C 0.86341 0.33637 0.29989 0.0
C2382 C 0.83969 0.29425 0.24287 0.0
C2383 C 0.85138 0.36909 0.27708 0.0
H2384 H 0.84491 0.35936 0.17981 0.0
H2385 H 0.78582 0.35888 0.21985 0.0
H2386 H 0.87836 0.35076 0.22971 0.0
H2387 H 0.87337 0.32463 0.21802 0.0
H2388 H 0.87673 0.34645 0.19665 0.0
H2389 H 0.78224 0.3428 0.25896 0.0
H2390 H 0.80155 0.32252 0.26642 0.0
H2391 H 0.805 0.34894 0.27801 0.0
H2392 H 0.86122 0.2839 0.2847 0.0
H2393 H 0.86915 0.34669 0.31457 0.0
H2394 H 0.84699 0.29767 0.22456 0.0
H2395 H 0.82228 0.29665 0.24088 0.0
H2396 H 0.84271 0.27731 0.24761 0.0
H2397 H 0.85871 0.37475 0.25953 0.0
H2398 H 0.85909 0.37745 0.29287 0.0
H2399 H 0.83434 0.37364 0.27657 0.0
C2400 C 0.64071 0.80365 0.21875 0.0
C2401 C 0.63787 0.81509 0.19668 0.0
C2402 C 0.65093 0.81293 0.23924 0.0
C2403 C 0.65795 0.83431 0.23775 0.0
C2404 C 0.65499 0.84595 0.21552 0.0
C2405 C 0.64522 0.83609 0.19513 0.0
C2406 C 0.65428 0.79986 0.26244 0.0
C2407 C 0.66184 0.86891 0.2134 0.0
C2408 C 0.66462 0.86433 0.29839 0.0
C2409 C 0.68678 0.86496 0.30074 0.0
C2410 C 0.65503 0.85467 0.27776 0.0
C2411 C 0.66795 0.8447 0.25962 0.0
C2412 C 0.69038 0.84489 0.26227 0.0
C2413 C 0.69957 0.85541 0.28262 0.0
C2414 C 0.6311 0.85535 0.27521 0.0
C2415 C 0.70464 0.83381 0.24377 0.0
H2416 H 0.63523 0.78732 0.21987 0.0
H2417 H 0.64298 0.84497 0.17807 0.0
H2418 H 0.6714 0.79976 0.2675 0.0
H2419 H 0.64551 0.80709 0.27818 0.0
H2420 H 0.64883 0.78316 0.26015 0.0
H2421 H 0.65812 0.8758 0.1949 0.0
H2422 H 0.65375 0.87857 0.22784 0.0
H2423 H 0.6792 0.87029 0.21666 0.0
H2424 H 0.6548 0.8718 0.31246 0.0
H2425 H 0.71673 0.85568 0.28474 0.0
H2426 H 0.62458 0.83896 0.27497 0.0
H2427 H 0.62668 0.86294 0.25733 0.0
H2428 H 0.62341 0.86431 0.29057 0.0
H2429 H 0.69997 0.81684 0.24206 0.0
H2430 H 0.72169 0.83461 0.24916 0.0
H2431 H 0.70277 0.84115 0.22518 0.0
C2432 C 0.12149 0.67785 0.27433 0.0
C2433 C 0.13382 0.68222 0.29535 0.0
C2434 C 0.13045 0.66763 0.25364 0.0
C2435 C 0.15247 0.6628 0.25361 0.0
C2436 C 0.16506 0.66771 0.27464 0.0
C2437 C 0.1554 0.67678 0.29557 0.0
C2438 C 0.11632 0.66172 0.23205 0.0
C2439 C 0.18877 0.66376 0.27489 0.0
C2440 C 0.17604 0.62139 0.21023 0.0
C2441 C 0.18245 0.63402 0.19022 0.0
C2442 C 0.16552 0.63045 0.23065 0.0
C2443 C 0.16245 0.65278 0.23151 0.0
C2444 C 0.16934 0.66561 0.21146 0.0
C2445 C 0.17871 0.65596 0.1907 0.0
C2446 C 0.15751 0.61614 0.25113 0.0
C2447 C 0.1673 0.68956 0.21217 0.0
H2448 H 0.10471 0.68186 0.27439 0.0
H2449 H 0.1649 0.68009 0.31188 0.0
H2450 H 0.12129 0.67051 0.21518 0.0
H2451 H 0.11793 0.64449 0.22793 0.0
H2452 H 0.0993 0.6653 0.23573 0.0
H2453 H 0.19646 0.66992 0.29202 0.0
H2454 H 0.19204 0.64647 0.27351 0.0
H2455 H 0.1963 0.67149 0.25858 0.0
H2456 H 0.17877 0.60436 0.2096 0.0
H2457 H 0.18367 0.66567 0.17518 0.0
H2458 H 0.14038 0.61926 0.25462 0.0
H2459 H 0.16615 0.61958 0.26862 0.0
H2460 H 0.15959 0.59902 0.24662 0.0
H2461 H 0.1503 0.69418 0.21312 0.0
H2462 H 0.17455 0.69727 0.19565 0.0
H2463 H 0.17515 0.69588 0.2291 0.0
C2464 C 0.33636 0.13733 0.29675 0.0
C2465 C 0.31437 0.13383 0.2972 0.0
C2466 C 0.34611 0.1469 0.27618 0.0
C2467 C 0.33341 0.15378 0.25601 0.0
C2468 C 0.3111 0.15055 0.25657 0.0
C2469 C 0.30187 0.14026 0.27704 0.0
C2470 C 0.37001 0.14951 0.27597 0.0
C2471 C 0.29699 0.15826 0.23574 0.0
C2472 C 0.35812 0.19611 0.21483 0.0
C2473 C 0.3643 0.1841 0.19415 0.0
C2474 C 0.34747 0.18654 0.23482 0.0
C2475 C 0.34356 0.16434 0.23437 0.0
C2476 C 0.34993 0.15214 0.21355 0.0
C2477 C 0.35993 0.16226 0.19349 0.0
C2478 C 0.34038 0.20016 0.25638 0.0
C2479 C 0.34656 0.12836 0.21268 0.0
H2480 H 0.34601 0.13224 0.31235 0.0
H2481 H 0.28481 0.13774 0.27759 0.0
H2482 H 0.3768 0.14179 0.25922 0.0
H2483 H 0.37419 0.16663 0.27508 0.0
H2484 H 0.37764 0.14249 0.29268 0.0
H2485 H 0.27989 0.15503 0.23935 0.0
H2486 H 0.29914 0.17564 0.23311 0.0
H2487 H 0.30155 0.15042 0.21808 0.0
H2488 H 0.36127 0.21307 0.21517 0.0
H2489 H 0.36478 0.15298 0.17748 0.0
H2490 H 0.34881 0.19523 0.27352 0.0
H2491 H 0.3231 0.19792 0.25973 0.0
H2492 H 0.34348 0.21735 0.25316 0.0
H2493 H 0.35478 0.12074 0.2286 0.0
H2494 H 0.35261 0.12118 0.19521 0.0
H2495 H 0.32938 0.12462 0.21442 0.0
loop_
_geom_bond_atom_site_label_1
_geom_bond_atom_site_label_2
_geom_bond_distance
_geom_bond_site_symmetry_2
_ccdc_geom_bond_type
Co0 O1 2.216 . S
Co0 O2 2.091 . S
Co0 O4 2.004 . S
Co0 O10 2.021 . S
Co0 O12 2.137 . S
Co0 O13 2.244 . S
O1 Co0 2.216 . S
O1 C8 1.247 . S
O2 Co0 2.091 . S
O2 C8 1.261 . S
C3 O12 1.247 . S
C3 O13 1.272 . S
O4 Co0 2.004 . S
O4 C9 1.259 . S
Co5 O6 2.061 . S
Co5 O11 2.052 . S
Co5 O13 2.135 . S
O6 Co5 2.061 . S
O6 C9 1.235 . S
C7 O10 1.238 . S
C7 O11 1.241 . S
C8 O1 1.247 . S
C8 O2 1.261 . S
C9 O4 1.259 . S
C9 O6 1.235 . S
O10 Co0 2.021 . S
O10 C7 1.238 . S
O11 Co5 2.052 . S
O11 C7 1.241 . S
O12 Co0 2.137 . S
O12 C3 1.247 . S
O13 Co0 2.244 . S
O13 C3 1.272 . S
O13 Co5 2.135 . S
Co14 O15 2.216 . S
Co14 O16 2.091 . S
Co14 O18 2.004 . S
Co14 O24 2.021 . S
Co14 O26 2.137 . S
Co14 O27 2.244 . S
O15 Co14 2.216 . S
O15 C22 1.247 . S
O16 Co14 2.091 . S
O16 C22 1.261 . S
C17 O26 1.247 . S
C17 O27 1.272 . S
O18 Co14 2.004 . S
O18 C23 1.259 . S
Co19 O20 2.061 . S
Co19 O25 2.052 . S
Co19 O27 2.135 . S
O20 Co19 2.061 . S
O20 C23 1.235 . S
C21 O24 1.238 . S
C21 O25 1.241 . S
C22 O15 1.247 . S
C22 O16 1.261 . S
C23 O18 1.259 . S
C23 O20 1.235 . S
O24 Co14 2.021 . S
O24 C21 1.238 . S
O25 Co19 2.052 . S
O25 C21 1.241 . S
O26 Co14 2.137 . S
O26 C17 1.247 . S
O27 Co14 2.244 . S
O27 C17 1.272 . S
O27 Co19 2.135 . S
Co28 O29 2.216 . S
Co28 O30 2.091 . S
Co28 O32 2.004 . S
Co28 O38 2.021 . S
Co28 O40 2.137 . S
Co28 O41 2.244 . S
O29 Co28 2.216 . S
O29 C36 1.247 . S
O30 Co28 2.091 . S
O30 C36 1.261 . S
C31 O40 1.247 . S
C31 O41 1.272 . S
O32 Co28 2.004 . S
O32 C37 1.259 . S
Co33 O34 2.061 . S
Co33 O39 2.052 . S
Co33 O41 2.135 . S
O34 Co33 2.061 . S
O34 C37 1.235 . S
C35 O38 1.238 . S
C35 O39 1.241 . S
C36 O29 1.247 . S
C36 O30 1.261 . S
C37 O32 1.259 . S
C37 O34 1.235 . S
O38 Co28 2.021 . S
O38 C35 1.238 . S
O39 Co33 2.052 . S
O39 C35 1.241 . S
O40 Co28 2.137 . S
O40 C31 1.247 . S
O41 Co28 2.244 . S
O41 C31 1.272 . S
O41 Co33 2.135 . S
Co42 O43 2.216 . S
Co42 O44 2.091 . S
Co42 O46 2.004 . S
Co42 O52 2.021 . S
Co42 O54 2.137 . S
Co42 O55 2.244 . S
O43 Co42 2.216 . S
O43 C50 1.247 . S
O44 Co42 2.091 . S
O44 C50 1.261 . S
C45 O54 1.247 . S
C45 O55 1.272 . S
O46 Co42 2.004 . S
O46 C51 1.259 . S
Co47 O48 2.061 . S
Co47 O53 2.052 . S
Co47 O55 2.135 . S
O48 Co47 2.061 . S
O48 C51 1.235 . S
C49 O52 1.238 . S
C49 O53 1.241 . S
C50 O43 1.247 . S
C50 O44 1.261 . S
C51 O46 1.259 . S
C51 O48 1.235 . S
O52 Co42 2.021 . S
O52 C49 1.238 . S
O53 Co47 2.052 . S
O53 C49 1.241 . S
O54 Co42 2.137 . S
O54 C45 1.247 . S
O55 Co42 2.244 . S
O55 C45 1.272 . S
O55 Co47 2.135 . S
Co56 O57 2.216 . S
Co56 O58 2.091 . S
Co56 O60 2.004 . S
Co56 O66 2.021 . S
Co56 O68 2.137 . S
Co56 O69 2.244 . S
O57 Co56 2.216 . S
O57 C64 1.247 . S
O58 Co56 2.091 . S
O58 C64 1.261 . S
C59 O68 1.247 . S
C59 O69 1.272 . S
O60 Co56 2.004 . S
O60 C65 1.259 . S
Co61 O62 2.061 . S
Co61 O67 2.052 . S
Co61 O69 2.135 . S
O62 Co61 2.061 . S
O62 C65 1.235 . S
C63 O66 1.238 . S
C63 O67 1.241 . S
C64 O57 1.247 . S
C64 O58 1.261 . S
C65 O60 1.259 . S
C65 O62 1.235 . S
O66 Co56 2.021 . S
O66 C63 1.238 . S
O67 Co61 2.052 . S
O67 C63 1.241 . S
O68 Co56 2.137 . S
O68 C59 1.247 . S
O69 Co56 2.244 . S
O69 C59 1.272 . S
O69 Co61 2.135 . S
Co70 O71 2.216 . S
Co70 O72 2.091 . S
Co70 O74 2.004 . S
Co70 O80 2.021 . S
Co70 O82 2.137 . S
Co70 O83 2.244 . S
O71 Co70 2.216 . S
O71 C78 1.247 . S
O72 Co70 2.091 . S
O72 C78 1.261 . S
C73 O82 1.247 . S
C73 O83 1.272 . S
O74 Co70 2.004 . S
O74 C79 1.259 . S
Co75 O76 2.061 . S
Co75 O81 2.052 . S
Co75 O83 2.135 . S
O76 Co75 2.061 . S
O76 C79 1.235 . S
C77 O80 1.238 . S
C77 O81 1.241 . S
C78 O71 1.247 . S
C78 O72 1.261 . S
C79 O74 1.259 . S
C79 O76 1.235 . S
O80 Co70 2.021 . S
O80 C77 1.238 . S
O81 Co75 2.052 . S
O81 C77 1.241 . S
O82 Co70 2.137 . S
O82 C73 1.247 . S
O83 Co70 2.244 . S
O83 C73 1.272 . S
O83 Co75 2.135 . S
Co84 O85 2.216 . S
Co84 O86 2.091 . S
Co84 O88 2.004 . S
Co84 O94 2.021 . S
Co84 O96 2.137 . S
Co84 O97 2.244 . S
O85 Co84 2.216 . S
O85 C92 1.247 . S
O86 Co84 2.091 . S
O86 C92 1.261 . S
C87 O96 1.247 . S
C87 O97 1.272 . S
O88 Co84 2.004 . S
O88 C93 1.259 . S
Co89 O90 2.061 . S
Co89 O95 2.052 . S
Co89 O97 2.135 . S
O90 Co89 2.061 . S
O90 C93 1.235 . S
C91 O94 1.238 . S
C91 O95 1.241 . S
C92 O85 1.247 . S
C92 O86 1.261 . S
C93 O88 1.259 . S
C93 O90 1.235 . S
O94 Co84 2.021 . S
O94 C91 1.238 . S
O95 Co89 2.052 . S
O95 C91 1.241 . S
O96 Co84 2.137 . S
O96 C87 1.247 . S
O97 Co84 2.244 . S
O97 C87 1.272 . S
O97 Co89 2.135 . S
Co98 O99 2.216 . S
Co98 O100 2.091 . S
Co98 O102 2.004 . S
Co98 O108 2.021 . S
Co98 O110 2.137 . S
Co98 O111 2.244 . S
O99 Co98 2.216 . S
O99 C106 1.247 . S
O100 Co98 2.091 . S
O100 C106 1.261 . S
C101 O110 1.247 . S
C101 O111 1.272 . S
O102 Co98 2.004 . S
O102 C107 1.259 . S
Co103 O104 2.061 . S
Co103 O109 2.052 . S
Co103 O111 2.135 . S
O104 Co103 2.061 . S
O104 C107 1.235 . S
C105 O108 1.238 . S
C105 O109 1.241 . S
C106 O99 1.247 . S
C106 O100 1.261 . S
C107 O102 1.259 . S
C107 O104 1.235 . S
O108 Co98 2.021 . S
O108 C105 1.238 . S
O109 Co103 2.052 . S
O109 C105 1.241 . S
O110 Co98 2.137 . S
O110 C101 1.247 . S
O111 Co98 2.244 . S
O111 C101 1.272 . S
O111 Co103 2.135 . S
Co112 O113 2.216 . S
Co112 O114 2.091 . S
Co112 O116 2.004 . S
Co112 O122 2.021 . S
Co112 O124 2.137 . S
Co112 O125 2.244 . S
O113 Co112 2.216 . S
O113 C120 1.247 . S
O114 Co112 2.091 . S
O114 C120 1.261 . S
C115 O124 1.247 . S
C115 O125 1.272 . S
O116 Co112 2.004 . S
O116 C121 1.259 . S
Co117 O118 2.061 . S
Co117 O123 2.052 . S
Co117 O125 2.135 . S
O118 Co117 2.061 . S
O118 C121 1.235 . S
C119 O122 1.238 . S
C119 O123 1.241 . S
C120 O113 1.247 . S
C120 O114 1.261 . S
C121 O116 1.259 . S
C121 O118 1.235 . S
O122 Co112 2.021 . S
O122 C119 1.238 . S
O123 Co117 2.052 . S
O123 C119 1.241 . S
O124 Co112 2.137 . S
O124 C115 1.247 . S
O125 Co112 2.244 . S
O125 C115 1.272 . S
O125 Co117 2.135 . S
Co126 O127 2.216 . S
Co126 O128 2.091 . S
Co126 O130 2.004 . S
Co126 O136 2.021 . S
Co126 O138 2.137 . S
Co126 O139 2.244 . S
O127 Co126 2.216 . S
O127 C134 1.247 . S
O128 Co126 2.091 . S
O128 C134 1.261 . S
C129 O138 1.247 . S
C129 O139 1.272 . S
O130 Co126 2.004 . S
O130 C135 1.259 . S
Co131 O132 2.061 . S
Co131 O137 2.052 . S
Co131 O139 2.135 . S
O132 Co131 2.061 . S
O132 C135 1.235 . S
C133 O136 1.238 . S
C133 O137 1.241 . S
C134 O127 1.247 . S
C134 O128 1.261 . S
C135 O130 1.259 . S
C135 O132 1.235 . S
O136 Co126 2.021 . S
O136 C133 1.238 . S
O137 Co131 2.052 . S
O137 C133 1.241 . S
O138 Co126 2.137 . S
O138 C129 1.247 . S
O139 Co126 2.244 . S
O139 C129 1.272 . S
O139 Co131 2.135 . S
Co140 O141 2.216 . S
Co140 O142 2.091 . S
Co140 O144 2.004 . S
Co140 O150 2.021 . S
Co140 O152 2.137 . S
Co140 O153 2.244 . S
O141 Co140 2.216 . S
O141 C148 1.247 . S
O142 Co140 2.091 . S
O142 C148 1.261 . S
C143 O152 1.247 . S
C143 O153 1.272 . S
O144 Co140 2.004 . S
O144 C149 1.259 . S
Co145 O146 2.061 . S
Co145 O151 2.052 . S
Co145 O153 2.135 . S
O146 Co145 2.061 . S
O146 C149 1.235 . S
C147 O150 1.238 . S
C147 O151 1.241 . S
C148 O141 1.247 . S
C148 O142 1.261 . S
C149 O144 1.259 . S
C149 O146 1.235 . S
O150 Co140 2.021 . S
O150 C147 1.238 . S
O151 Co145 2.052 . S
O151 C147 1.241 . S
O152 Co140 2.137 . S
O152 C143 1.247 . S
O153 Co140 2.244 . S
O153 C143 1.272 . S
O153 Co145 2.135 . S
Co154 O155 2.216 . S
Co154 O156 2.091 . S
Co154 O158 2.004 . S
Co154 O164 2.021 . S
Co154 O166 2.137 . S
Co154 O167 2.244 . S
O155 Co154 2.216 . S
O155 C162 1.247 . S
O156 Co154 2.091 . S
O156 C162 1.261 . S
C157 O166 1.247 . S
C157 O167 1.272 . S
O158 Co154 2.004 . S
O158 C163 1.259 . S
Co159 O160 2.061 . S
Co159 O165 2.052 . S
Co159 O167 2.135 . S
O160 Co159 2.061 . S
O160 C163 1.235 . S
C161 O164 1.238 . S
C161 O165 1.241 . S
C162 O155 1.247 . S
C162 O156 1.261 . S
C163 O158 1.259 . S
C163 O160 1.235 . S
O164 Co154 2.021 . S
O164 C161 1.238 . S
O165 Co159 2.052 . S
O165 C161 1.241 . S
O166 Co154 2.137 . S
O166 C157 1.247 . S
O167 Co154 2.244 . S
O167 C157 1.272 . S
O167 Co159 2.135 . S
Co168 O169 2.216 . S
Co168 O170 2.091 . S
Co168 O172 2.004 . S
Co168 O178 2.021 . S
Co168 O180 2.137 . S
Co168 O181 2.244 . S
O169 Co168 2.216 . S
O169 C176 1.247 . S
O170 Co168 2.091 . S
O170 C176 1.261 . S
C171 O180 1.247 . S
C171 O181 1.272 . S
O172 Co168 2.004 . S
O172 C177 1.259 . S
Co173 O174 2.061 . S
Co173 O179 2.052 . S
Co173 O181 2.135 . S
O174 Co173 2.061 . S
O174 C177 1.235 . S
C175 O178 1.238 . S
C175 O179 1.241 . S
C176 O169 1.247 . S
C176 O170 1.261 . S
C177 O172 1.259 . S
C177 O174 1.235 . S
O178 Co168 2.021 . S
O178 C175 1.238 . S
O179 Co173 2.052 . S
O179 C175 1.241 . S
O180 Co168 2.137 . S
O180 C171 1.247 . S
O181 Co168 2.244 . S
O181 C171 1.272 . S
O181 Co173 2.135 . S
Co182 O183 2.216 . S
Co182 O184 2.091 . S
Co182 O186 2.004 . S
Co182 O192 2.021 . S
Co182 O194 2.137 . S
Co182 O195 2.244 . S
O183 Co182 2.216 . S
O183 C190 1.247 . S
O184 Co182 2.091 . S
O184 C190 1.261 . S
C185 O194 1.247 . S
C185 O195 1.272 . S
O186 Co182 2.004 . S
O186 C191 1.259 . S
Co187 O188 2.061 . S
Co187 O193 2.052 . S
Co187 O195 2.135 . S
O188 Co187 2.061 . S
O188 C191 1.235 . S
C189 O192 1.238 . S
C189 O193 1.241 . S
C190 O183 1.247 . S
C190 O184 1.261 . S
C191 O186 1.259 . S
C191 O188 1.235 . S
O192 Co182 2.021 . S
O192 C189 1.238 . S
O193 Co187 2.052 . S
O193 C189 1.241 . S
O194 Co182 2.137 . S
O194 C185 1.247 . S
O195 Co182 2.244 . S
O195 C185 1.272 . S
O195 Co187 2.135 . S
Co196 O197 2.216 . S
Co196 O198 2.091 . S
Co196 O200 2.004 . S
Co196 O206 2.021 . S
Co196 O208 2.137 . S
Co196 O209 2.244 . S
O197 Co196 2.216 . S
O197 C204 1.247 . S
O198 Co196 2.091 . S
O198 C204 1.261 . S
C199 O208 1.247 . S
C199 O209 1.272 . S
O200 Co196 2.004 . S
O200 C205 1.259 . S
Co201 O202 2.061 . S
Co201 O207 2.052 . S
Co201 O209 2.135 . S
O202 Co201 2.061 . S
O202 C205 1.235 . S
C203 O206 1.238 . S
C203 O207 1.241 . S
C204 O197 1.247 . S
C204 O198 1.261 . S
C205 O200 1.259 . S
C205 O202 1.235 . S
O206 Co196 2.021 . S
O206 C203 1.238 . S
O207 Co201 2.052 . S
O207 C203 1.241 . S
O208 Co196 2.137 . S
O208 C199 1.247 . S
O209 Co196 2.244 . S
O209 C199 1.272 . S
O209 Co201 2.135 . S
Co210 O211 2.216 . S
Co210 O212 2.091 . S
Co210 O214 2.004 . S
Co210 O220 2.021 . S
Co210 O222 2.137 . S
Co210 O223 2.244 . S
O211 Co210 2.216 . S
O211 C218 1.247 . S
O212 Co210 2.091 . S
O212 C218 1.261 . S
C213 O222 1.247 . S
C213 O223 1.272 . S
O214 Co210 2.004 . S
O214 C219 1.259 . S
Co215 O216 2.061 . S
Co215 O221 2.052 . S
Co215 O223 2.135 . S
O216 Co215 2.061 . S
O216 C219 1.235 . S
C217 O220 1.238 . S
C217 O221 1.241 . S
C218 O211 1.247 . S
C218 O212 1.261 . S
C219 O214 1.259 . S
C219 O216 1.235 . S
O220 Co210 2.021 . S
O220 C217 1.238 . S
O221 Co215 2.052 . S
O221 C217 1.241 . S
O222 Co210 2.137 . S
O222 C213 1.247 . S
O223 Co210 2.244 . S
O223 C213 1.272 . S
O223 Co215 2.135 . S
Co224 O225 2.216 . S
Co224 O226 2.091 . S
Co224 O228 2.004 . S
Co224 O234 2.021 . S
Co224 O236 2.137 . S
Co224 O237 2.244 . S
O225 Co224 2.216 . S
O225 C232 1.247 . S
O226 Co224 2.091 . S
O226 C232 1.261 . S
C227 O236 1.247 . S
C227 O237 1.272 . S
O228 Co224 2.004 . S
O228 C233 1.259 . S
Co229 O230 2.061 . S
Co229 O235 2.052 . S
Co229 O237 2.135 . S
O230 Co229 2.061 . S
O230 C233 1.235 . S
C231 O234 1.238 . S
C231 O235 1.241 . S
C232 O225 1.247 . S
C232 O226 1.261 . S
C233 O228 1.259 . S
C233 O230 1.235 . S
O234 Co224 2.021 . S
O234 C231 1.238 . S
O235 Co229 2.052 . S
O235 C231 1.241 . S
O236 Co224 2.137 . S
O236 C227 1.247 . S
O237 Co224 2.244 . S
O237 C227 1.272 . S
O237 Co229 2.135 . S
Co238 O239 2.216 . S
Co238 O240 2.091 . S
Co238 O242 2.004 . S
Co238 O248 2.021 . S
Co238 O250 2.137 . S
Co238 O251 2.244 . S
O239 Co238 2.216 . S
O239 C246 1.247 . S
O240 Co238 2.091 . S
O240 C246 1.261 . S
C241 O250 1.247 . S
C241 O251 1.272 . S
O242 Co238 2.004 . S
O242 C247 1.259 . S
Co243 O244 2.061 . S
Co243 O249 2.052 . S
Co243 O251 2.135 . S
O244 Co243 2.061 . S
O244 C247 1.235 . S
C245 O248 1.238 . S
C245 O249 1.241 . S
C246 O239 1.247 . S
C246 O240 1.261 . S
C247 O242 1.259 . S
C247 O244 1.235 . S
O248 Co238 2.021 . S
O248 C245 1.238 . S
O249 Co243 2.052 . S
O249 C245 1.241 . S
O250 Co238 2.137 . S
O250 C241 1.247 . S
O251 Co238 2.244 . S
O251 C241 1.272 . S
O251 Co243 2.135 . S
Co252 O253 2.216 . S
Co252 O254 2.091 . S
Co252 O256 2.004 . S
Co252 O262 2.021 . S
Co252 O264 2.137 . S
Co252 O265 2.244 . S
O253 Co252 2.216 . S
O253 C260 1.247 . S
O254 Co252 2.091 . S
O254 C260 1.261 . S
C255 O264 1.247 . S
C255 O265 1.272 . S
O256 Co252 2.004 . S
O256 C261 1.259 . S
Co257 O258 2.061 . S
Co257 O263 2.052 . S
Co257 O265 2.135 . S
O258 Co257 2.061 . S
O258 C261 1.235 . S
C259 O262 1.238 . S
C259 O263 1.241 . S
C260 O253 1.247 . S
C260 O254 1.261 . S
C261 O256 1.259 . S
C261 O258 1.235 . S
O262 Co252 2.021 . S
O262 C259 1.238 . S
O263 Co257 2.052 . S
O263 C259 1.241 . S
O264 Co252 2.137 . S
O264 C255 1.247 . S
O265 Co252 2.244 . S
O265 C255 1.272 . S
O265 Co257 2.135 . S
Co266 O267 2.216 . S
Co266 O268 2.091 . S
Co266 O270 2.004 . S
Co266 O276 2.021 . S
Co266 O278 2.137 . S
Co266 O279 2.244 . S
O267 Co266 2.216 . S
O267 C274 1.247 . S
O268 Co266 2.091 . S
O268 C274 1.261 . S
C269 O278 1.247 . S
C269 O279 1.272 . S
O270 Co266 2.004 . S
O270 C275 1.259 . S
Co271 O272 2.061 . S
Co271 O277 2.052 . S
Co271 O279 2.135 . S
O272 Co271 2.061 . S
O272 C275 1.235 . S
C273 O276 1.238 . S
C273 O277 1.241 . S
C274 O267 1.247 . S
C274 O268 1.261 . S
C275 O270 1.259 . S
C275 O272 1.235 . S
O276 Co266 2.021 . S
O276 C273 1.238 . S
O277 Co271 2.052 . S
O277 C273 1.241 . S
O278 Co266 2.137 . S
O278 C269 1.247 . S
O279 Co266 2.244 . S
O279 C269 1.272 . S
O279 Co271 2.135 . S
Co280 O281 2.216 . S
Co280 O282 2.091 . S
Co280 O284 2.004 . S
Co280 O290 2.021 . S
Co280 O292 2.137 . S
Co280 O293 2.244 . S
O281 Co280 2.216 . S
O281 C288 1.247 . S
O282 Co280 2.091 . S
O282 C288 1.261 . S
C283 O292 1.247 . S
C283 O293 1.272 . S
O284 Co280 2.004 . S
O284 C289 1.259 . S
Co285 O286 2.061 . S
Co285 O291 2.052 . S
Co285 O293 2.135 . S
O286 Co285 2.061 . S
O286 C289 1.235 . S
C287 O290 1.238 . S
C287 O291 1.241 . S
C288 O281 1.247 . S
C288 O282 1.261 . S
C289 O284 1.259 . S
C289 O286 1.235 . S
O290 Co280 2.021 . S
O290 C287 1.238 . S
O291 Co285 2.052 . S
O291 C287 1.241 . S
O292 Co280 2.137 . S
O292 C283 1.247 . S
O293 Co280 2.244 . S
O293 C283 1.272 . S
O293 Co285 2.135 . S
Co294 O295 2.216 . S
Co294 O296 2.091 . S
Co294 O298 2.004 . S
Co294 O304 2.021 . S
Co294 O306 2.137 . S
Co294 O307 2.244 . S
O295 Co294 2.216 . S
O295 C302 1.247 . S
O296 Co294 2.091 . S
O296 C302 1.261 . S
C297 O306 1.247 . S
C297 O307 1.272 . S
O298 Co294 2.004 . S
O298 C303 1.259 . S
Co299 O300 2.061 . S
Co299 O305 2.052 . S
Co299 O307 2.135 . S
O300 Co299 2.061 . S
O300 C303 1.235 . S
C301 O304 1.238 . S
C301 O305 1.241 . S
C302 O295 1.247 . S
C302 O296 1.261 . S
C303 O298 1.259 . S
C303 O300 1.235 . S
O304 Co294 2.021 . S
O304 C301 1.238 . S
O305 Co299 2.052 . S
O305 C301 1.241 . S
O306 Co294 2.137 . S
O306 C297 1.247 . S
O307 Co294 2.244 . S
O307 C297 1.272 . S
O307 Co299 2.135 . S
Co308 O309 2.216 . S
Co308 O310 2.091 . S
Co308 O312 2.004 . S
Co308 O318 2.021 . S
Co308 O320 2.137 . S
Co308 O321 2.244 . S
O309 Co308 2.216 . S
O309 C316 1.247 . S
O310 Co308 2.091 . S
O310 C316 1.261 . S
C311 O320 1.247 . S
C311 O321 1.272 . S
O312 Co308 2.004 . S
O312 C317 1.259 . S
Co313 O314 2.061 . S
Co313 O319 2.052 . S
Co313 O321 2.135 . S
O314 Co313 2.061 . S
O314 C317 1.235 . S
C315 O318 1.238 . S
C315 O319 1.241 . S
C316 O309 1.247 . S
C316 O310 1.261 . S
C317 O312 1.259 . S
C317 O314 1.235 . S
O318 Co308 2.021 . S
O318 C315 1.238 . S
O319 Co313 2.052 . S
O319 C315 1.241 . S
O320 Co308 2.137 . S
O320 C311 1.247 . S
O321 Co308 2.244 . S
O321 C311 1.272 . S
O321 Co313 2.135 . S
Co322 O323 2.216 . S
Co322 O324 2.091 . S
Co322 O326 2.004 . S
Co322 O332 2.021 . S
Co322 O334 2.137 . S
Co322 O335 2.244 . S
O323 Co322 2.216 . S
O323 C330 1.247 . S
O324 Co322 2.091 . S
O324 C330 1.261 . S
C325 O334 1.247 . S
C325 O335 1.272 . S
O326 Co322 2.004 . S
O326 C331 1.259 . S
Co327 O328 2.061 . S
Co327 O333 2.052 . S
Co327 O335 2.135 . S
O328 Co327 2.061 . S
O328 C331 1.235 . S
C329 O332 1.238 . S
C329 O333 1.241 . S
C330 O323 1.247 . S
C330 O324 1.261 . S
C331 O326 1.259 . S
C331 O328 1.235 . S
O332 Co322 2.021 . S
O332 C329 1.238 . S
O333 Co327 2.052 . S
O333 C329 1.241 . S
O334 Co322 2.137 . S
O334 C325 1.247 . S
O335 Co322 2.244 . S
O335 C325 1.272 . S
O335 Co327 2.135 . S
Co336 O337 2.216 . S
Co336 O338 2.091 . S
Co336 O340 2.004 . S
Co336 O346 2.021 . S
Co336 O348 2.137 . S
Co336 O349 2.244 . S
O337 Co336 2.216 . S
O337 C344 1.247 . S
O338 Co336 2.091 . S
O338 C344 1.261 . S
C339 O348 1.247 . S
C339 O349 1.272 . S
O340 Co336 2.004 . S
O340 C345 1.259 . S
Co341 O342 2.061 . S
Co341 O347 2.052 . S
Co341 O349 2.135 . S
O342 Co341 2.061 . S
O342 C345 1.235 . S
C343 O346 1.238 . S
C343 O347 1.241 . S
C344 O337 1.247 . S
C344 O338 1.261 . S
C345 O340 1.259 . S
C345 O342 1.235 . S
O346 Co336 2.021 . S
O346 C343 1.238 . S
O347 Co341 2.052 . S
O347 C343 1.241 . S
O348 Co336 2.137 . S
O348 C339 1.247 . S
O349 Co336 2.244 . S
O349 C339 1.272 . S
O349 Co341 2.135 . S
Co350 O351 2.216 . S
Co350 O352 2.091 . S
Co350 O354 2.004 . S
Co350 O360 2.021 . S
Co350 O362 2.137 . S
Co350 O363 2.244 . S
O351 Co350 2.216 . S
O351 C358 1.247 . S
O352 Co350 2.091 . S
O352 C358 1.261 . S
C353 O362 1.247 . S
C353 O363 1.272 . S
O354 Co350 2.004 . S
O354 C359 1.259 . S
Co355 O356 2.061 . S
Co355 O361 2.052 . S
Co355 O363 2.135 . S
O356 Co355 2.061 . S
O356 C359 1.235 . S
C357 O360 1.238 . S
C357 O361 1.241 . S
C358 O351 1.247 . S
C358 O352 1.261 . S
C359 O354 1.259 . S
C359 O356 1.235 . S
O360 Co350 2.021 . S
O360 C357 1.238 . S
O361 Co355 2.052 . S
O361 C357 1.241 . S
O362 Co350 2.137 . S
O362 C353 1.247 . S
O363 Co350 2.244 . S
O363 C353 1.272 . S
O363 Co355 2.135 . S
Co364 O365 2.216 . S
Co364 O366 2.091 . S
Co364 O368 2.004 . S
Co364 O374 2.021 . S
Co364 O376 2.137 . S
Co364 O377 2.244 . S
O365 Co364 2.216 . S
O365 C372 1.247 . S
O366 Co364 2.091 . S
O366 C372 1.261 . S
C367 O376 1.247 . S
C367 O377 1.272 . S
O368 Co364 2.004 . S
O368 C373 1.259 . S
Co369 O370 2.061 . S
Co369 O375 2.052 . S
Co369 O377 2.135 . S
O370 Co369 2.061 . S
O370 C373 1.235 . S
C371 O374 1.238 . S
C371 O375 1.241 . S
C372 O365 1.247 . S
C372 O366 1.261 . S
C373 O368 1.259 . S
C373 O370 1.235 . S
O374 Co364 2.021 . S
O374 C371 1.238 . S
O375 Co369 2.052 . S
O375 C371 1.241 . S
O376 Co364 2.137 . S
O376 C367 1.247 . S
O377 Co364 2.244 . S
O377 C367 1.272 . S
O377 Co369 2.135 . S
Co378 O379 2.216 . S
Co378 O380 2.091 . S
Co378 O382 2.004 . S
Co378 O388 2.021 . S
Co378 O390 2.137 . S
Co378 O391 2.244 . S
O379 Co378 2.216 . S
O379 C386 1.247 . S
O380 Co378 2.091 . S
O380 C386 1.261 . S
C381 O390 1.247 . S
C381 O391 1.272 . S
O382 Co378 2.004 . S
O382 C387 1.259 . S
Co383 O384 2.061 . S
Co383 O389 2.052 . S
Co383 O391 2.135 . S
O384 Co383 2.061 . S
O384 C387 1.235 . S
C385 O388 1.238 . S
C385 O389 1.241 . S
C386 O379 1.247 . S
C386 O380 1.261 . S
C387 O382 1.259 . S
C387 O384 1.235 . S
O388 Co378 2.021 . S
O388 C385 1.238 . S
O389 Co383 2.052 . S
O389 C385 1.241 . S
O390 Co378 2.137 . S
O390 C381 1.247 . S
O391 Co378 2.244 . S
O391 C381 1.272 . S
O391 Co383 2.135 . S
Co392 O393 2.216 . S
Co392 O394 2.091 . S
Co392 O396 2.004 . S
Co392 O402 2.021 . S
Co392 O404 2.137 . S
Co392 O405 2.244 . S
O393 Co392 2.216 . S
O393 C400 1.247 . S
O394 Co392 2.091 . S
O394 C400 1.261 . S
C395 O404 1.247 . S
C395 O405 1.272 . S
O396 Co392 2.004 . S
O396 C401 1.259 . S
Co397 O398 2.061 . S
Co397 O403 2.052 . S
Co397 O405 2.135 . S
O398 Co397 2.061 . S
O398 C401 1.235 . S
C399 O402 1.238 . S
C399 O403 1.241 . S
C400 O393 1.247 . S
C400 O394 1.261 . S
C401 O396 1.259 . S
C401 O398 1.235 . S
O402 Co392 2.021 . S
O402 C399 1.238 . S
O403 Co397 2.052 . S
O403 C399 1.241 . S
O404 Co392 2.137 . S
O404 C395 1.247 . S
O405 Co392 2.244 . S
O405 C395 1.272 . S
O405 Co397 2.135 . S
Co406 O407 2.216 . S
Co406 O408 2.091 . S
Co406 O410 2.004 . S
Co406 O416 2.021 . S
Co406 O418 2.137 . S
Co406 O419 2.244 . S
O407 Co406 2.216 . S
O407 C414 1.247 . S
O408 Co406 2.091 . S
O408 C414 1.261 . S
C409 O418 1.247 . S
C409 O419 1.272 . S
O410 Co406 2.004 . S
O410 C415 1.259 . S
Co411 O412 2.061 . S
Co411 O417 2.052 . S
Co411 O419 2.135 . S
O412 Co411 2.061 . S
O412 C415 1.235 . S
C413 O416 1.238 . S
C413 O417 1.241 . S
C414 O407 1.247 . S
C414 O408 1.261 . S
C415 O410 1.259 . S
C415 O412 1.235 . S
O416 Co406 2.021 . S
O416 C413 1.238 . S
O417 Co411 2.052 . S
O417 C413 1.241 . S
O418 Co406 2.137 . S
O418 C409 1.247 . S
O419 Co406 2.244 . S
O419 C409 1.272 . S
O419 Co411 2.135 . S
Co420 O421 2.216 . S
Co420 O422 2.091 . S
Co420 O424 2.004 . S
Co420 O430 2.021 . S
Co420 O432 2.137 . S
Co420 O433 2.244 . S
O421 Co420 2.216 . S
O421 C428 1.247 . S
O422 Co420 2.091 . S
O422 C428 1.261 . S
C423 O432 1.247 . S
C423 O433 1.272 . S
O424 Co420 2.004 . S
O424 C429 1.259 . S
Co425 O426 2.061 . S
Co425 O431 2.052 . S
Co425 O433 2.135 . S
O426 Co425 2.061 . S
O426 C429 1.235 . S
C427 O430 1.238 . S
C427 O431 1.241 . S
C428 O421 1.247 . S
C428 O422 1.261 . S
C429 O424 1.259 . S
C429 O426 1.235 . S
O430 Co420 2.021 . S
O430 C427 1.238 . S
O431 Co425 2.052 . S
O431 C427 1.241 . S
O432 Co420 2.137 . S
O432 C423 1.247 . S
O433 Co420 2.244 . S
O433 C423 1.272 . S
O433 Co425 2.135 . S
Co434 O435 2.216 . S
Co434 O436 2.091 . S
Co434 O438 2.004 . S
Co434 O444 2.021 . S
Co434 O446 2.137 . S
Co434 O447 2.244 . S
O435 Co434 2.216 . S
O435 C442 1.247 . S
O436 Co434 2.091 . S
O436 C442 1.261 . S
C437 O446 1.247 . S
C437 O447 1.272 . S
O438 Co434 2.004 . S
O438 C443 1.259 . S
Co439 O440 2.061 . S
Co439 O445 2.052 . S
Co439 O447 2.135 . S
O440 Co439 2.061 . S
O440 C443 1.235 . S
C441 O444 1.238 . S
C441 O445 1.241 . S
C442 O435 1.247 . S
C442 O436 1.261 . S
C443 O438 1.259 . S
C443 O440 1.235 . S
O444 Co434 2.021 . S
O444 C441 1.238 . S
O445 Co439 2.052 . S
O445 C441 1.241 . S
O446 Co434 2.137 . S
O446 C437 1.247 . S
O447 Co434 2.244 . S
O447 C437 1.272 . S
O447 Co439 2.135 . S
C448 C449 1.391 . S
C448 C450 1.394 . S
C448 H464 0.931 . S
C449 C448 1.391 . S
C449 C453 1.376 . S
C450 C448 1.394 . S
C450 C451 1.369 . S
C450 C454 1.531 . S
C451 C450 1.369 . S
C451 C452 1.410 . S
C451 C459 1.503 . S
C452 C451 1.410 . S
C452 C453 1.392 . S
C452 C455 1.511 . S
C453 C449 1.376 . S
C453 C452 1.392 . S
C453 H465 0.929 . S
C454 C450 1.531 . S
C454 H466 0.960 . S
C454 H467 0.962 . S
C454 H468 0.960 . S
C455 C452 1.511 . S
C455 H469 0.961 . S
C455 H470 0.961 . S
C455 H471 0.961 . S
C456 C457 1.370 . S
C456 C458 1.363 . S
C456 H472 0.931 . S
C457 C456 1.370 . S
C457 C461 1.408 . S
C458 C456 1.363 . S
C458 C459 1.370 . S
C458 C462 1.524 . S
C459 C451 1.503 . S
C459 C458 1.370 . S
C459 C460 1.403 . S
C460 C459 1.403 . S
C460 C461 1.404 . S
C460 C463 1.539 . S
C461 C457 1.408 . S
C461 C460 1.404 . S
C461 H473 0.930 . S
C462 C458 1.524 . S
C462 H474 0.956 . S
C462 H475 0.961 . S
C462 H476 0.961 . S
C463 C460 1.539 . S
C463 H477 0.958 . S
C463 H478 0.961 . S
C463 H479 0.960 . S
H464 C448 0.931 . S
H465 C453 0.929 . S
H466 C454 0.960 . S
H467 C454 0.962 . S
H468 C454 0.960 . S
H469 C455 0.961 . S
H470 C455 0.961 . S
H471 C455 0.961 . S
H472 C456 0.931 . S
H473 C461 0.930 . S
H474 C462 0.956 . S
H475 C462 0.961 . S
H476 C462 0.961 . S
H477 C463 0.958 . S
H478 C463 0.961 . S
H479 C463 0.960 . S
C480 C481 1.391 . S
C480 C482 1.394 . S
C480 H496 0.931 . S
C481 C480 1.391 . S
C481 C485 1.376 . S
C482 C480 1.394 . S
C482 C483 1.369 . S
C482 C486 1.531 . S
C483 C482 1.369 . S
C483 C484 1.410 . S
C483 C491 1.503 . S
C484 C483 1.410 . S
C484 C485 1.392 . S
C484 C487 1.511 . S
C485 C481 1.376 . S
C485 C484 1.392 . S
C485 H497 0.929 . S
C486 C482 1.531 . S
C486 H498 0.960 . S
C486 H499 0.962 . S
C486 H500 0.960 . S
C487 C484 1.511 . S
C487 H501 0.961 . S
C487 H502 0.961 . S
C487 H503 0.961 . S
C488 C489 1.370 . S
C488 C490 1.363 . S
C488 H504 0.931 . S
C489 C488 1.370 . S
C489 C493 1.408 . S
C490 C488 1.363 . S
C490 C491 1.370 . S
C490 C494 1.524 . S
C491 C483 1.503 . S
C491 C490 1.370 . S
C491 C492 1.403 . S
C492 C491 1.403 . S
C492 C493 1.404 . S
C492 C495 1.539 . S
C493 C489 1.408 . S
C493 C492 1.404 . S
C493 H505 0.930 . S
C494 C490 1.524 . S
C494 H506 0.956 . S
C494 H507 0.961 . S
C494 H508 0.961 . S
C495 C492 1.539 . S
C495 H509 0.958 . S
C495 H510 0.961 . S
C495 H511 0.960 . S
H496 C480 0.931 . S
H497 C485 0.929 . S
H498 C486 0.960 . S
H499 C486 0.962 . S
H500 C486 0.960 . S
H501 C487 0.961 . S
H502 C487 0.961 . S
H503 C487 0.961 . S
H504 C488 0.931 . S
H505 C493 0.930 . S
H506 C494 0.956 . S
H507 C494 0.961 . S
H508 C494 0.961 . S
H509 C495 0.958 . S
H510 C495 0.961 . S
H511 C495 0.960 . S
C512 C513 1.391 . S
C512 C514 1.394 . S
C512 H528 0.931 . S
C513 C512 1.391 . S
C513 C517 1.376 . S
C514 C512 1.394 . S
C514 C515 1.369 . S
C514 C518 1.531 . S
C515 C514 1.369 . S
C515 C516 1.410 . S
C515 C523 1.503 . S
C516 C515 1.410 . S
C516 C517 1.392 . S
C516 C519 1.511 . S
C517 C513 1.376 . S
C517 C516 1.392 . S
C517 H529 0.929 . S
C518 C514 1.531 . S
C518 H530 0.960 . S
C518 H531 0.962 . S
C518 H532 0.960 . S
C519 C516 1.511 . S
C519 H533 0.961 . S
C519 H534 0.961 . S
C519 H535 0.961 . S
C520 C521 1.370 . S
C520 C522 1.363 . S
C520 H536 0.931 . S
C521 C520 1.370 . S
C521 C525 1.408 . S
C522 C520 1.363 . S
C522 C523 1.370 . S
C522 C526 1.524 . S
C523 C515 1.503 . S
C523 C522 1.370 . S
C523 C524 1.403 . S
C524 C523 1.403 . S
C524 C525 1.404 . S
C524 C527 1.539 . S
C525 C521 1.408 . S
C525 C524 1.404 . S
C525 H537 0.930 . S
C526 C522 1.524 . S
C526 H538 0.956 . S
C526 H539 0.961 . S
C526 H540 0.961 . S
C527 C524 1.539 . S
C527 H541 0.958 . S
C527 H542 0.961 . S
C527 H543 0.960 . S
H528 C512 0.931 . S
H529 C517 0.929 . S
H530 C518 0.960 . S
H531 C518 0.962 . S
H532 C518 0.960 . S
H533 C519 0.961 . S
H534 C519 0.961 . S
H535 C519 0.961 . S
H536 C520 0.931 . S
H537 C525 0.930 . S
H538 C526 0.956 . S
H539 C526 0.961 . S
H540 C526 0.961 . S
H541 C527 0.958 . S
H542 C527 0.961 . S
H543 C527 0.960 . S
C544 C545 1.391 . S
C544 C546 1.394 . S
C544 H560 0.931 . S
C545 C544 1.391 . S
C545 C549 1.376 . S
C546 C544 1.394 . S
C546 C547 1.369 . S
C546 C550 1.531 . S
C547 C546 1.369 . S
C547 C548 1.410 . S
C547 C555 1.503 . S
C548 C547 1.410 . S
C548 C549 1.392 . S
C548 C551 1.511 . S
C549 C545 1.376 . S
C549 C548 1.392 . S
C549 H561 0.929 . S
C550 C546 1.531 . S
C550 H562 0.960 . S
C550 H563 0.962 . S
C550 H564 0.960 . S
C551 C548 1.511 . S
C551 H565 0.961 . S
C551 H566 0.961 . S
C551 H567 0.961 . S
C552 C553 1.370 . S
C552 C554 1.363 . S
C552 H568 0.931 . S
C553 C552 1.370 . S
C553 C557 1.408 . S
C554 C552 1.363 . S
C554 C555 1.370 . S
C554 C558 1.524 . S
C555 C547 1.503 . S
C555 C554 1.370 . S
C555 C556 1.403 . S
C556 C555 1.403 . S
C556 C557 1.404 . S
C556 C559 1.539 . S
C557 C553 1.408 . S
C557 C556 1.404 . S
C557 H569 0.930 . S
C558 C554 1.524 . S
C558 H570 0.956 . S
C558 H571 0.961 . S
C558 H572 0.961 . S
C559 C556 1.539 . S
C559 H573 0.958 . S
C559 H574 0.961 . S
C559 H575 0.960 . S
H560 C544 0.931 . S
H561 C549 0.929 . S
H562 C550 0.960 . S
H563 C550 0.962 . S
H564 C550 0.960 . S
H565 C551 0.961 . S
H566 C551 0.961 . S
H567 C551 0.961 . S
H568 C552 0.931 . S
H569 C557 0.930 . S
H570 C558 0.956 . S
H571 C558 0.961 . S
H572 C558 0.961 . S
H573 C559 0.958 . S
H574 C559 0.961 . S
H575 C559 0.960 . S
C576 C577 1.391 . S
C576 C578 1.394 . S
C576 H592 0.931 . S
C577 C576 1.391 . S
C577 C581 1.376 . S
C578 C576 1.394 . S
C578 C579 1.369 . S
C578 C582 1.531 . S
C579 C578 1.369 . S
C579 C580 1.410 . S
C579 C587 1.503 . S
C580 C579 1.410 . S
C580 C581 1.392 . S
C580 C583 1.511 . S
C581 C577 1.376 . S
C581 C580 1.392 . S
C581 H593 0.929 . S
C582 C578 1.531 . S
C582 H594 0.960 . S
C582 H595 0.962 . S
C582 H596 0.960 . S
C583 C580 1.511 . S
C583 H597 0.961 . S
C583 H598 0.961 . S
C583 H599 0.961 . S
C584 C585 1.370 . S
C584 C586 1.363 . S
C584 H600 0.931 . S
C585 C584 1.370 . S
C585 C589 1.408 . S
C586 C584 1.363 . S
C586 C587 1.370 . S
C586 C590 1.524 . S
C587 C579 1.503 . S
C587 C586 1.370 . S
C587 C588 1.403 . S
C588 C587 1.403 . S
C588 C589 1.404 . S
C588 C591 1.539 . S
C589 C585 1.408 . S
C589 C588 1.404 . S
C589 H601 0.930 . S
C590 C586 1.524 . S
C590 H602 0.956 . S
C590 H603 0.961 . S
C590 H604 0.961 . S
C591 C588 1.539 . S
C591 H605 0.958 . S
C591 H606 0.961 . S
C591 H607 0.960 . S
H592 C576 0.931 . S
H593 C581 0.929 . S
H594 C582 0.960 . S
H595 C582 0.962 . S
H596 C582 0.960 . S
H597 C583 0.961 . S
H598 C583 0.961 . S
H599 C583 0.961 . S
H600 C584 0.931 . S
H601 C589 0.930 . S
H602 C590 0.956 . S
H603 C590 0.961 . S
H604 C590 0.961 . S
H605 C591 0.958 . S
H606 C591 0.961 . S
H607 C591 0.960 . S
C608 C609 1.391 . S
C608 C610 1.394 . S
C608 H624 0.931 . S
C609 C608 1.391 . S
C609 C613 1.376 . S
C610 C608 1.394 . S
C610 C611 1.369 . S
C610 C614 1.531 . S
C611 C610 1.369 . S
C611 C612 1.410 . S
C611 C619 1.503 . S
C612 C611 1.410 . S
C612 C613 1.392 . S
C612 C615 1.511 . S
C613 C609 1.376 . S
C613 C612 1.392 . S
C613 H625 0.929 . S
C614 C610 1.531 . S
C614 H626 0.960 . S
C614 H627 0.962 . S
C614 H628 0.960 . S
C615 C612 1.511 . S
C615 H629 0.961 . S
C615 H630 0.961 . S
C615 H631 0.961 . S
C616 C617 1.370 . S
C616 C618 1.363 . S
C616 H632 0.931 . S
C617 C616 1.370 . S
C617 C621 1.408 . S
C618 C616 1.363 . S
C618 C619 1.370 . S
C618 C622 1.524 . S
C619 C611 1.503 . S
C619 C618 1.370 . S
C619 C620 1.403 . S
C620 C619 1.403 . S
C620 C621 1.404 . S
C620 C623 1.539 . S
C621 C617 1.408 . S
C621 C620 1.404 . S
C621 H633 0.930 . S
C622 C618 1.524 . S
C622 H634 0.956 . S
C622 H635 0.961 . S
C622 H636 0.961 . S
C623 C620 1.539 . S
C623 H637 0.958 . S
C623 H638 0.961 . S
C623 H639 0.960 . S
H624 C608 0.931 . S
H625 C613 0.929 . S
H626 C614 0.960 . S
H627 C614 0.962 . S
H628 C614 0.960 . S
H629 C615 0.961 . S
H630 C615 0.961 . S
H631 C615 0.961 . S
H632 C616 0.931 . S
H633 C621 0.930 . S
H634 C622 0.956 . S
H635 C622 0.961 . S
H636 C622 0.961 . S
H637 C623 0.958 . S
H638 C623 0.961 . S
H639 C623 0.960 . S
C640 C641 1.391 . S
C640 C642 1.394 . S
C640 H656 0.931 . S
C641 C640 1.391 . S
C641 C645 1.376 . S
C642 C640 1.394 . S
C642 C643 1.369 . S
C642 C646 1.531 . S
C643 C642 1.369 . S
C643 C644 1.410 . S
C643 C651 1.503 . S
C644 C643 1.410 . S
C644 C645 1.392 . S
C644 C647 1.511 . S
C645 C641 1.376 . S
C645 C644 1.392 . S
C645 H657 0.929 . S
C646 C642 1.531 . S
C646 H658 0.960 . S
C646 H659 0.962 . S
C646 H660 0.960 . S
C647 C644 1.511 . S
C647 H661 0.961 . S
C647 H662 0.961 . S
C647 H663 0.961 . S
C648 C649 1.370 . S
C648 C650 1.363 . S
C648 H664 0.931 . S
C649 C648 1.370 . S
C649 C653 1.408 . S
C650 C648 1.363 . S
C650 C651 1.370 . S
C650 C654 1.524 . S
C651 C643 1.503 . S
C651 C650 1.370 . S
C651 C652 1.403 . S
C652 C651 1.403 . S
C652 C653 1.404 . S
C652 C655 1.539 . S
C653 C649 1.408 . S
C653 C652 1.404 . S
C653 H665 0.930 . S
C654 C650 1.524 . S
C654 H666 0.956 . S
C654 H667 0.961 . S
C654 H668 0.961 . S
C655 C652 1.539 . S
C655 H669 0.958 . S
C655 H670 0.961 . S
C655 H671 0.960 . S
H656 C640 0.931 . S
H657 C645 0.929 . S
H658 C646 0.960 . S
H659 C646 0.962 . S
H660 C646 0.960 . S
H661 C647 0.961 . S
H662 C647 0.961 . S
H663 C647 0.961 . S
H664 C648 0.931 . S
H665 C653 0.930 . S
H666 C654 0.956 . S
H667 C654 0.961 . S
H668 C654 0.961 . S
H669 C655 0.958 . S
H670 C655 0.961 . S
H671 C655 0.960 . S
C672 C673 1.391 . S
C672 C674 1.394 . S
C672 H688 0.931 . S
C673 C672 1.391 . S
C673 C677 1.376 . S
C674 C672 1.394 . S
C674 C675 1.369 . S
C674 C678 1.531 . S
C675 C674 1.369 . S
C675 C676 1.410 . S
C675 C683 1.503 . S
C676 C675 1.410 . S
C676 C677 1.392 . S
C676 C679 1.511 . S
C677 C673 1.376 . S
C677 C676 1.392 . S
C677 H689 0.929 . S
C678 C674 1.531 . S
C678 H690 0.960 . S
C678 H691 0.962 . S
C678 H692 0.960 . S
C679 C676 1.511 . S
C679 H693 0.961 . S
C679 H694 0.961 . S
C679 H695 0.961 . S
C680 C681 1.370 . S
C680 C682 1.363 . S
C680 H696 0.931 . S
C681 C680 1.370 . S
C681 C685 1.408 . S
C682 C680 1.363 . S
C682 C683 1.370 . S
C682 C686 1.524 . S
C683 C675 1.503 . S
C683 C682 1.370 . S
C683 C684 1.403 . S
C684 C683 1.403 . S
C684 C685 1.404 . S
C684 C687 1.539 . S
C685 C681 1.408 . S
C685 C684 1.404 . S
C685 H697 0.930 . S
C686 C682 1.524 . S
C686 H698 0.956 . S
C686 H699 0.961 . S
C686 H700 0.961 . S
C687 C684 1.539 . S
C687 H701 0.958 . S
C687 H702 0.961 . S
C687 H703 0.960 . S
H688 C672 0.931 . S
H689 C677 0.929 . S
H690 C678 0.960 . S
H691 C678 0.962 . S
H692 C678 0.960 . S
H693 C679 0.961 . S
H694 C679 0.961 . S
H695 C679 0.961 . S
H696 C680 0.931 . S
H697 C685 0.930 . S
H698 C686 0.956 . S
H699 C686 0.961 . S
H700 C686 0.961 . S
H701 C687 0.958 . S
H702 C687 0.961 . S
H703 C687 0.960 . S
C704 C705 1.391 . S
C704 C706 1.394 . S
C704 H720 0.931 . S
C705 C704 1.391 . S
C705 C709 1.376 . S
C706 C704 1.394 . S
C706 C707 1.369 . S
C706 C710 1.531 . S
C707 C706 1.369 . S
C707 C708 1.410 . S
C707 C715 1.503 . S
C708 C707 1.410 . S
C708 C709 1.392 . S
C708 C711 1.511 . S
C709 C705 1.376 . S
C709 C708 1.392 . S
C709 H721 0.929 . S
C710 C706 1.531 . S
C710 H722 0.960 . S
C710 H723 0.962 . S
C710 H724 0.960 . S
C711 C708 1.511 . S
C711 H725 0.961 . S
C711 H726 0.961 . S
C711 H727 0.961 . S
C712 C713 1.370 . S
C712 C714 1.363 . S
C712 H728 0.931 . S
C713 C712 1.370 . S
C713 C717 1.408 . S
C714 C712 1.363 . S
C714 C715 1.370 . S
C714 C718 1.524 . S
C715 C707 1.503 . S
C715 C714 1.370 . S
C715 C716 1.403 . S
C716 C715 1.403 . S
C716 C717 1.404 . S
C716 C719 1.539 . S
C717 C713 1.408 . S
C717 C716 1.404 . S
C717 H729 0.930 . S
C718 C714 1.524 . S
C718 H730 0.956 . S
C718 H731 0.961 . S
C718 H732 0.961 . S
C719 C716 1.539 . S
C719 H733 0.958 . S
C719 H734 0.961 . S
C719 H735 0.960 . S
H720 C704 0.931 . S
H721 C709 0.929 . S
H722 C710 0.960 . S
H723 C710 0.962 . S
H724 C710 0.960 . S
H725 C711 0.961 . S
H726 C711 0.961 . S
H727 C711 0.961 . S
H728 C712 0.931 . S
H729 C717 0.930 . S
H730 C718 0.956 . S
H731 C718 0.961 . S
H732 C718 0.961 . S
H733 C719 0.958 . S
H734 C719 0.961 . S
H735 C719 0.960 . S
C736 C737 1.391 . S
C736 C738 1.394 . S
C736 H752 0.931 . S
C737 C736 1.391 . S
C737 C741 1.376 . S
C738 C736 1.394 . S
C738 C739 1.369 . S
C738 C742 1.531 . S
C739 C738 1.369 . S
C739 C740 1.410 . S
C739 C747 1.503 . S
C740 C739 1.410 . S
C740 C741 1.392 . S
C740 C743 1.511 . S
C741 C737 1.376 . S
C741 C740 1.392 . S
C741 H753 0.929 . S
C742 C738 1.531 . S
C742 H754 0.960 . S
C742 H755 0.962 . S
C742 H756 0.960 . S
C743 C740 1.511 . S
C743 H757 0.961 . S
C743 H758 0.961 . S
C743 H759 0.961 . S
C744 C745 1.370 . S
C744 C746 1.363 . S
C744 H760 0.931 . S
C745 C744 1.370 . S
C745 C749 1.408 . S
C746 C744 1.363 . S
C746 C747 1.370 . S
C746 C750 1.524 . S
C747 C739 1.503 . S
C747 C746 1.370 . S
C747 C748 1.403 . S
C748 C747 1.403 . S
C748 C749 1.404 . S
C748 C751 1.539 . S
C749 C745 1.408 . S
C749 C748 1.404 . S
C749 H761 0.930 . S
C750 C746 1.524 . S
C750 H762 0.956 . S
C750 H763 0.961 . S
C750 H764 0.961 . S
C751 C748 1.539 . S
C751 H765 0.958 . S
C751 H766 0.961 . S
C751 H767 0.960 . S
H752 C736 0.931 . S
H753 C741 0.929 . S
H754 C742 0.960 . S
H755 C742 0.962 . S
H756 C742 0.960 . S
H757 C743 0.961 . S
H758 C743 0.961 . S
H759 C743 0.961 . S
H760 C744 0.931 . S
H761 C749 0.930 . S
H762 C750 0.956 . S
H763 C750 0.961 . S
H764 C750 0.961 . S
H765 C751 0.958 . S
H766 C751 0.961 . S
H767 C751 0.960 . S
C768 C769 1.391 . S
C768 C770 1.394 . S
C768 H784 0.931 . S
C769 C768 1.391 . S
C769 C773 1.376 . S
C770 C768 1.394 . S
C770 C771 1.369 . S
C770 C774 1.531 . S
C771 C770 1.369 . S
C771 C772 1.410 . S
C771 C779 1.503 . S
C772 C771 1.410 . S
C772 C773 1.392 . S
C772 C775 1.511 . S
C773 C769 1.376 . S
C773 C772 1.392 . S
C773 H785 0.929 . S
C774 C770 1.531 . S
C774 H786 0.960 . S
C774 H787 0.962 . S
C774 H788 0.960 . S
C775 C772 1.511 . S
C775 H789 0.961 . S
C775 H790 0.961 . S
C775 H791 0.961 . S
C776 C777 1.370 . S
C776 C778 1.363 . S
C776 H792 0.931 . S
C777 C776 1.370 . S
C777 C781 1.408 . S
C778 C776 1.363 . S
C778 C779 1.370 . S
C778 C782 1.524 . S
C779 C771 1.503 . S
C779 C778 1.370 . S
C779 C780 1.403 . S
C780 C779 1.403 . S
C780 C781 1.404 . S
C780 C783 1.539 . S
C781 C777 1.408 . S
C781 C780 1.404 . S
C781 H793 0.930 . S
C782 C778 1.524 . S
C782 H794 0.956 . S
C782 H795 0.961 . S
C782 H796 0.961 . S
C783 C780 1.539 . S
C783 H797 0.958 . S
C783 H798 0.961 . S
C783 H799 0.960 . S
H784 C768 0.931 . S
H785 C773 0.929 . S
H786 C774 0.960 . S
H787 C774 0.962 . S
H788 C774 0.960 . S
H789 C775 0.961 . S
H790 C775 0.961 . S
H791 C775 0.961 . S
H792 C776 0.931 . S
H793 C781 0.930 . S
H794 C782 0.956 . S
H795 C782 0.961 . S
H796 C782 0.961 . S
H797 C783 0.958 . S
H798 C783 0.961 . S
H799 C783 0.960 . S
C800 C801 1.391 . S
C800 C802 1.394 . S
C800 H816 0.931 . S
C801 C800 1.391 . S
C801 C805 1.376 . S
C802 C800 1.394 . S
C802 C803 1.369 . S
C802 C806 1.531 . S
C803 C802 1.369 . S
C803 C804 1.410 . S
C803 C811 1.503 . S
C804 C803 1.410 . S
C804 C805 1.392 . S
C804 C807 1.511 . S
C805 C801 1.376 . S
C805 C804 1.392 . S
C805 H817 0.929 . S
C806 C802 1.531 . S
C806 H818 0.960 . S
C806 H819 0.962 . S
C806 H820 0.960 . S
C807 C804 1.511 . S
C807 H821 0.961 . S
C807 H822 0.961 . S
C807 H823 0.961 . S
C808 C809 1.370 . S
C808 C810 1.363 . S
C808 H824 0.931 . S
C809 C808 1.370 . S
C809 C813 1.408 . S
C810 C808 1.363 . S
C810 C811 1.370 . S
C810 C814 1.524 . S
C811 C803 1.503 . S
C811 C810 1.370 . S
C811 C812 1.403 . S
C812 C811 1.403 . S
C812 C813 1.404 . S
C812 C815 1.539 . S
C813 C809 1.408 . S
C813 C812 1.404 . S
C813 H825 0.930 . S
C814 C810 1.524 . S
C814 H826 0.956 . S
C814 H827 0.961 . S
C814 H828 0.961 . S
C815 C812 1.539 . S
C815 H829 0.958 . S
C815 H830 0.961 . S
C815 H831 0.960 . S
H816 C800 0.931 . S
H817 C805 0.929 . S
H818 C806 0.960 . S
H819 C806 0.962 . S
H820 C806 0.960 . S
H821 C807 0.961 . S
H822 C807 0.961 . S
H823 C807 0.961 . S
H824 C808 0.931 . S
H825 C813 0.930 . S
H826 C814 0.956 . S
H827 C814 0.961 . S
H828 C814 0.961 . S
H829 C815 0.958 . S
H830 C815 0.961 . S
H831 C815 0.960 . S
C832 C833 1.391 . S
C832 C834 1.394 . S
C832 H848 0.931 . S
C833 C832 1.391 . S
C833 C837 1.376 . S
C834 C832 1.394 . S
C834 C835 1.369 . S
C834 C838 1.531 . S
C835 C834 1.369 . S
C835 C836 1.410 . S
C835 C843 1.503 . S
C836 C835 1.410 . S
C836 C837 1.392 . S
C836 C839 1.511 . S
C837 C833 1.376 . S
C837 C836 1.392 . S
C837 H849 0.929 . S
C838 C834 1.531 . S
C838 H850 0.960 . S
C838 H851 0.962 . S
C838 H852 0.960 . S
C839 C836 1.511 . S
C839 H853 0.961 . S
C839 H854 0.961 . S
C839 H855 0.961 . S
C840 C841 1.370 . S
C840 C842 1.363 . S
C840 H856 0.931 . S
C841 C840 1.370 . S
C841 C845 1.408 . S
C842 C840 1.363 . S
C842 C843 1.370 . S
C842 C846 1.524 . S
C843 C835 1.503 . S
C843 C842 1.370 . S
C843 C844 1.403 . S
C844 C843 1.403 . S
C844 C845 1.404 . S
C844 C847 1.539 . S
C845 C841 1.408 . S
C845 C844 1.404 . S
C845 H857 0.930 . S
C846 C842 1.524 . S
C846 H858 0.956 . S
C846 H859 0.961 . S
C846 H860 0.961 . S
C847 C844 1.539 . S
C847 H861 0.958 . S
C847 H862 0.961 . S
C847 H863 0.960 . S
H848 C832 0.931 . S
H849 C837 0.929 . S
H850 C838 0.960 . S
H851 C838 0.962 . S
H852 C838 0.960 . S
H853 C839 0.961 . S
H854 C839 0.961 . S
H855 C839 0.961 . S
H856 C840 0.931 . S
H857 C845 0.930 . S
H858 C846 0.956 . S
H859 C846 0.961 . S
H860 C846 0.961 . S
H861 C847 0.958 . S
H862 C847 0.961 . S
H863 C847 0.960 . S
C864 C865 1.391 . S
C864 C866 1.394 . S
C864 H880 0.931 . S
C865 C864 1.391 . S
C865 C869 1.376 . S
C866 C864 1.394 . S
C866 C867 1.369 . S
C866 C870 1.531 . S
C867 C866 1.369 . S
C867 C868 1.410 . S
C867 C875 1.503 . S
C868 C867 1.410 . S
C868 C869 1.392 . S
C868 C871 1.511 . S
C869 C865 1.376 . S
C869 C868 1.392 . S
C869 H881 0.929 . S
C870 C866 1.531 . S
C870 H882 0.960 . S
C870 H883 0.962 . S
C870 H884 0.960 . S
C871 C868 1.511 . S
C871 H885 0.961 . S
C871 H886 0.961 . S
C871 H887 0.961 . S
C872 C873 1.370 . S
C872 C874 1.363 . S
C872 H888 0.931 . S
C873 C872 1.370 . S
C873 C877 1.408 . S
C874 C872 1.363 . S
C874 C875 1.370 . S
C874 C878 1.524 . S
C875 C867 1.503 . S
C875 C874 1.370 . S
C875 C876 1.403 . S
C876 C875 1.403 . S
C876 C877 1.404 . S
C876 C879 1.539 . S
C877 C873 1.408 . S
C877 C876 1.404 . S
C877 H889 0.930 . S
C878 C874 1.524 . S
C878 H890 0.956 . S
C878 H891 0.961 . S
C878 H892 0.961 . S
C879 C876 1.539 . S
C879 H893 0.958 . S
C879 H894 0.961 . S
C879 H895 0.960 . S
H880 C864 0.931 . S
H881 C869 0.929 . S
H882 C870 0.960 . S
H883 C870 0.962 . S
H884 C870 0.960 . S
H885 C871 0.961 . S
H886 C871 0.961 . S
H887 C871 0.961 . S
H888 C872 0.931 . S
H889 C877 0.930 . S
H890 C878 0.956 . S
H891 C878 0.961 . S
H892 C878 0.961 . S
H893 C879 0.958 . S
H894 C879 0.961 . S
H895 C879 0.960 . S
C896 C897 1.391 . S
C896 C898 1.394 . S
C896 H912 0.931 . S
C897 C896 1.391 . S
C897 C901 1.376 . S
C898 C896 1.394 . S
C898 C899 1.369 . S
C898 C902 1.531 . S
C899 C898 1.369 . S
C899 C900 1.410 . S
C899 C907 1.503 . S
C900 C899 1.410 . S
C900 C901 1.392 . S
C900 C903 1.511 . S
C901 C897 1.376 . S
C901 C900 1.392 . S
C901 H913 0.929 . S
C902 C898 1.531 . S
C902 H914 0.960 . S
C902 H915 0.962 . S
C902 H916 0.960 . S
C903 C900 1.511 . S
C903 H917 0.961 . S
C903 H918 0.961 . S
C903 H919 0.961 . S
C904 C905 1.370 . S
C904 C906 1.363 . S
C904 H920 0.931 . S
C905 C904 1.370 . S
C905 C909 1.408 . S
C906 C904 1.363 . S
C906 C907 1.370 . S
C906 C910 1.524 . S
C907 C899 1.503 . S
C907 C906 1.370 . S
C907 C908 1.403 . S
C908 C907 1.403 . S
C908 C909 1.404 . S
C908 C911 1.539 . S
C909 C905 1.408 . S
C909 C908 1.404 . S
C909 H921 0.930 . S
C910 C906 1.524 . S
C910 H922 0.956 . S
C910 H923 0.961 . S
C910 H924 0.961 . S
C911 C908 1.539 . S
C911 H925 0.958 . S
C911 H926 0.961 . S
C911 H927 0.960 . S
H912 C896 0.931 . S
H913 C901 0.929 . S
H914 C902 0.960 . S
H915 C902 0.962 . S
H916 C902 0.960 . S
H917 C903 0.961 . S
H918 C903 0.961 . S
H919 C903 0.961 . S
H920 C904 0.931 . S
H921 C909 0.930 . S
H922 C910 0.956 . S
H923 C910 0.961 . S
H924 C910 0.961 . S
H925 C911 0.958 . S
H926 C911 0.961 . S
H927 C911 0.960 . S
C928 C929 1.391 . S
C928 C930 1.394 . S
C928 H944 0.931 . S
C929 C928 1.391 . S
C929 C933 1.376 . S
C930 C928 1.394 . S
C930 C931 1.369 . S
C930 C934 1.531 . S
C931 C930 1.369 . S
C931 C932 1.410 . S
C931 C939 1.503 . S
C932 C931 1.410 . S
C932 C933 1.392 . S
C932 C935 1.511 . S
C933 C929 1.376 . S
C933 C932 1.392 . S
C933 H945 0.929 . S
C934 C930 1.531 . S
C934 H946 0.960 . S
C934 H947 0.962 . S
C934 H948 0.960 . S
C935 C932 1.511 . S
C935 H949 0.961 . S
C935 H950 0.961 . S
C935 H951 0.961 . S
C936 C937 1.370 . S
C936 C938 1.363 . S
C936 H952 0.931 . S
C937 C936 1.370 . S
C937 C941 1.408 . S
C938 C936 1.363 . S
C938 C939 1.370 . S
C938 C942 1.524 . S
C939 C931 1.503 . S
C939 C938 1.370 . S
C939 C940 1.403 . S
C940 C939 1.403 . S
C940 C941 1.404 . S
C940 C943 1.539 . S
C941 C937 1.408 . S
C941 C940 1.404 . S
C941 H953 0.930 . S
C942 C938 1.524 . S
C942 H954 0.956 . S
C942 H955 0.961 . S
C942 H956 0.961 . S
C943 C940 1.539 . S
C943 H957 0.958 . S
C943 H958 0.961 . S
C943 H959 0.960 . S
H944 C928 0.931 . S
H945 C933 0.929 . S
H946 C934 0.960 . S
H947 C934 0.962 . S
H948 C934 0.960 . S
H949 C935 0.961 . S
H950 C935 0.961 . S
H951 C935 0.961 . S
H952 C936 0.931 . S
H953 C941 0.930 . S
H954 C942 0.956 . S
H955 C942 0.961 . S
H956 C942 0.961 . S
H957 C943 0.958 . S
H958 C943 0.961 . S
H959 C943 0.960 . S
C960 C961 1.391 . S
C960 C962 1.394 . S
C960 H976 0.931 . S
C961 C960 1.391 . S
C961 C965 1.376 . S
C962 C960 1.394 . S
C962 C963 1.369 . S
C962 C966 1.531 . S
C963 C962 1.369 . S
C963 C964 1.410 . S
C963 C971 1.503 1_655 S
C964 C963 1.410 . S
C964 C965 1.392 . S
C964 C967 1.511 . S
C965 C961 1.376 . S
C965 C964 1.392 . S
C965 H977 0.929 . S
C966 C962 1.531 . S
C966 H978 0.960 1_655 S
C966 H979 0.962 . S
C966 H980 0.960 . S
C967 C964 1.511 . S
C967 H981 0.961 . S
C967 H982 0.961 1_655 S
C967 H983 0.961 . S
C968 C969 1.370 . S
C968 C970 1.363 . S
C968 H984 0.931 . S
C969 C968 1.370 . S
C969 C973 1.408 . S
C970 C968 1.363 . S
C970 C971 1.370 . S
C970 C974 1.524 . S
C971 C963 1.503 1_455 S
C971 C970 1.370 . S
C971 C972 1.403 . S
C972 C971 1.403 . S
C972 C973 1.404 . S
C972 C975 1.539 . S
C973 C969 1.408 . S
C973 C972 1.404 . S
C973 H985 0.930 . S
C974 C970 1.524 . S
C974 H986 0.984 . S
C974 H987 0.961 1_455 S
C974 H988 0.961 . S
C975 C972 1.539 . S
C975 H989 0.958 . S
C975 H990 0.961 . S
C975 H991 0.970 . S
H976 C960 0.931 . S
H977 C965 0.929 . S
H978 C966 0.960 1_455 S
H979 C966 0.962 . S
H980 C966 0.960 . S
H981 C967 0.961 . S
H982 C967 0.961 1_455 S
H983 C967 0.961 . S
H984 C968 0.931 . S
H985 C973 0.930 . S
H986 C974 0.984 . S
H987 C974 0.961 1_655 S
H988 C974 0.961 . S
H989 C975 0.958 . S
H990 C975 0.961 . S
H991 C975 0.970 . S
C992 C993 1.391 . S
C992 C994 1.394 . S
C992 H1008 0.931 . S
C993 C992 1.391 . S
C993 C997 1.376 . S
C994 C992 1.394 . S
C994 C995 1.369 . S
C994 C998 1.531 . S
C995 C994 1.369 . S
C995 C996 1.410 . S
C995 C1003 1.503 1_545 S
C996 C995 1.410 . S
C996 C997 1.392 . S
C996 C999 1.511 . S
C997 C993 1.376 . S
C997 C996 1.392 . S
C997 H1009 0.929 . S
C998 C994 1.531 . S
C998 H1010 0.960 1_545 S
C998 H1011 0.962 . S
C998 H1012 0.960 . S
C999 C996 1.511 . S
C999 H1013 0.961 . S
C999 H1014 0.961 1_545 S
C999 H1015 0.961 . S
C1000 C1001 1.370 . S
C1000 C1002 1.363 . S
C1000 H1016 0.931 . S
C1001 C1000 1.370 . S
C1001 C1005 1.408 . S
C1002 C1000 1.363 . S
C1002 C1003 1.370 . S
C1002 C1006 1.524 . S
C1003 C995 1.503 1_565 S
C1003 C1002 1.370 . S
C1003 C1004 1.403 . S
C1004 C1003 1.403 . S
C1004 C1005 1.404 . S
C1004 C1007 1.539 . S
C1005 C1001 1.408 . S
C1005 C1004 1.404 . S
C1005 H1017 0.930 . S
C1006 C1002 1.524 . S
C1006 H1018 0.984 . S
C1006 H1019 0.961 1_565 S
C1006 H1020 0.961 . S
C1007 C1004 1.539 . S
C1007 H1021 0.958 . S
C1007 H1022 0.961 . S
C1007 H1023 0.970 . S
H1008 C992 0.931 . S
H1009 C997 0.929 . S
H1010 C998 0.960 1_565 S
H1011 C998 0.962 . S
H1012 C998 0.960 . S
H1013 C999 0.961 . S
H1014 C999 0.961 1_565 S
H1015 C999 0.961 . S
H1016 C1000 0.931 . S
H1017 C1005 0.930 . S
H1018 C1006 0.984 . S
H1019 C1006 0.961 1_545 S
H1020 C1006 0.961 . S
H1021 C1007 0.958 . S
H1022 C1007 0.961 . S
H1023 C1007 0.970 . S
C1024 C1025 1.391 . S
C1024 C1026 1.394 . S
C1024 H1040 0.931 . S
C1025 C1024 1.391 . S
C1025 C1029 1.376 . S
C1026 C1024 1.394 . S
C1026 C1027 1.369 . S
C1026 C1030 1.531 . S
C1027 C1026 1.369 . S
C1027 C1028 1.410 . S
C1027 C1035 1.503 1_455 S
C1028 C1027 1.410 . S
C1028 C1029 1.392 . S
C1028 C1031 1.511 . S
C1029 C1025 1.376 . S
C1029 C1028 1.392 . S
C1029 H1041 0.929 . S
C1030 C1026 1.531 . S
C1030 H1042 0.960 1_455 S
C1030 H1043 0.962 . S
C1030 H1044 0.960 . S
C1031 C1028 1.511 . S
C1031 H1045 0.961 . S
C1031 H1046 0.961 1_455 S
C1031 H1047 0.961 . S
C1032 C1033 1.370 . S
C1032 C1034 1.363 . S
C1032 H1048 0.931 . S
C1033 C1032 1.370 . S
C1033 C1037 1.408 . S
C1034 C1032 1.363 . S
C1034 C1035 1.370 . S
C1034 C1038 1.524 . S
C1035 C1027 1.503 1_655 S
C1035 C1034 1.370 . S
C1035 C1036 1.403 . S
C1036 C1035 1.403 . S
C1036 C1037 1.404 . S
C1036 C1039 1.539 . S
C1037 C1033 1.408 . S
C1037 C1036 1.404 . S
C1037 H1049 0.930 . S
C1038 C1034 1.524 . S
C1038 H1050 0.984 . S
C1038 H1051 0.961 1_655 S
C1038 H1052 0.961 . S
C1039 C1036 1.539 . S
C1039 H1053 0.958 . S
C1039 H1054 0.961 . S
C1039 H1055 0.970 . S
H1040 C1024 0.931 . S
H1041 C1029 0.929 . S
H1042 C1030 0.960 1_655 S
H1043 C1030 0.962 . S
H1044 C1030 0.960 . S
H1045 C1031 0.961 . S
H1046 C1031 0.961 1_655 S
H1047 C1031 0.961 . S
H1048 C1032 0.931 . S
H1049 C1037 0.930 . S
H1050 C1038 0.984 . S
H1051 C1038 0.961 1_455 S
H1052 C1038 0.961 . S
H1053 C1039 0.958 . S
H1054 C1039 0.961 . S
H1055 C1039 0.970 . S
C1056 C1057 1.391 . S
C1056 C1058 1.394 . S
C1056 H1072 0.931 . S
C1057 C1056 1.391 . S
C1057 C1061 1.376 . S
C1058 C1056 1.394 . S
C1058 C1059 1.369 . S
C1058 C1062 1.531 . S
C1059 C1058 1.369 . S
C1059 C1060 1.410 . S
C1059 C1067 1.503 1_565 S
C1060 C1059 1.410 . S
C1060 C1061 1.392 . S
C1060 C1063 1.511 . S
C1061 C1057 1.376 . S
C1061 C1060 1.392 . S
C1061 H1073 0.929 . S
C1062 C1058 1.531 . S
C1062 H1074 0.960 1_565 S
C1062 H1075 0.962 . S
C1062 H1076 0.960 . S
C1063 C1060 1.511 . S
C1063 H1077 0.961 . S
C1063 H1078 0.961 1_565 S
C1063 H1079 0.961 . S
C1064 C1065 1.370 . S
C1064 C1066 1.363 . S
C1064 H1080 0.931 . S
C1065 C1064 1.370 . S
C1065 C1069 1.408 . S
C1066 C1064 1.363 . S
C1066 C1067 1.370 . S
C1066 C1070 1.524 . S
C1067 C1059 1.503 1_545 S
C1067 C1066 1.370 . S
C1067 C1068 1.403 . S
C1068 C1067 1.403 . S
C1068 C1069 1.404 . S
C1068 C1071 1.539 . S
C1069 C1065 1.408 . S
C1069 C1068 1.404 . S
C1069 H1081 0.930 . S
C1070 C1066 1.524 . S
C1070 H1082 0.984 . S
C1070 H1083 0.961 1_545 S
C1070 H1084 0.961 . S
C1071 C1068 1.539 . S
C1071 H1085 0.958 . S
C1071 H1086 0.961 . S
C1071 H1087 0.970 . S
H1072 C1056 0.931 . S
H1073 C1061 0.929 . S
H1074 C1062 0.960 1_545 S
H1075 C1062 0.962 . S
H1076 C1062 0.960 . S
H1077 C1063 0.961 . S
H1078 C1063 0.961 1_545 S
H1079 C1063 0.961 . S
H1080 C1064 0.931 . S
H1081 C1069 0.930 . S
H1082 C1070 0.984 . S
H1083 C1070 0.961 1_565 S
H1084 C1070 0.961 . S
H1085 C1071 0.958 . S
H1086 C1071 0.961 . S
H1087 C1071 0.970 . S
C1088 C1089 1.391 . S
C1088 C1090 1.394 . S
C1088 H1104 0.931 . S
C1089 C1088 1.391 . S
C1089 C1093 1.376 . S
C1090 C1088 1.394 . S
C1090 C1091 1.369 . S
C1090 C1094 1.531 . S
C1091 C1090 1.369 . S
C1091 C1092 1.410 . S
C1091 C1099 1.503 1_455 S
C1092 C1091 1.410 . S
C1092 C1093 1.392 . S
C1092 C1095 1.511 . S
C1093 C1089 1.376 . S
C1093 C1092 1.392 . S
C1093 H1105 0.929 . S
C1094 C1090 1.531 . S
C1094 H1106 0.960 1_455 S
C1094 H1107 0.962 . S
C1094 H1108 0.960 . S
C1095 C1092 1.511 . S
C1095 H1109 0.961 . S
C1095 H1110 0.961 1_455 S
C1095 H1111 0.961 . S
C1096 C1097 1.370 . S
C1096 C1098 1.363 . S
C1096 H1112 0.931 . S
C1097 C1096 1.370 . S
C1097 C1101 1.408 . S
C1098 C1096 1.363 . S
C1098 C1099 1.370 . S
C1098 C1102 1.524 . S
C1099 C1091 1.503 1_655 S
C1099 C1098 1.370 . S
C1099 C1100 1.403 . S
C1100 C1099 1.403 . S
C1100 C1101 1.404 . S
C1100 C1103 1.539 . S
C1101 C1097 1.408 . S
C1101 C1100 1.404 . S
C1101 H1113 0.930 . S
C1102 C1098 1.524 . S
C1102 H1114 0.984 . S
C1102 H1115 0.961 1_655 S
C1102 H1116 0.961 . S
C1103 C1100 1.539 . S
C1103 H1117 0.958 . S
C1103 H1118 0.961 . S
C1103 H1119 0.970 . S
H1104 C1088 0.931 . S
H1105 C1093 0.929 . S
H1106 C1094 0.960 1_655 S
H1107 C1094 0.962 . S
H1108 C1094 0.960 . S
H1109 C1095 0.961 . S
H1110 C1095 0.961 1_655 S
H1111 C1095 0.961 . S
H1112 C1096 0.931 . S
H1113 C1101 0.930 . S
H1114 C1102 0.984 . S
H1115 C1102 0.961 1_455 S
H1116 C1102 0.961 . S
H1117 C1103 0.958 . S
H1118 C1103 0.961 . S
H1119 C1103 0.970 . S
C1120 C1121 1.391 . S
C1120 C1122 1.394 . S
C1120 H1136 0.931 . S
C1121 C1120 1.391 . S
C1121 C1125 1.376 . S
C1122 C1120 1.394 . S
C1122 C1123 1.369 . S
C1122 C1126 1.531 . S
C1123 C1122 1.369 . S
C1123 C1124 1.410 . S
C1123 C1131 1.503 1_565 S
C1124 C1123 1.410 . S
C1124 C1125 1.392 . S
C1124 C1127 1.511 . S
C1125 C1121 1.376 . S
C1125 C1124 1.392 . S
C1125 H1137 0.929 . S
C1126 C1122 1.531 . S
C1126 H1138 0.960 1_565 S
C1126 H1139 0.962 . S
C1126 H1140 0.960 . S
C1127 C1124 1.511 . S
C1127 H1141 0.961 . S
C1127 H1142 0.961 1_565 S
C1127 H1143 0.961 . S
C1128 C1129 1.370 . S
C1128 C1130 1.363 . S
C1128 H1144 0.931 . S
C1129 C1128 1.370 . S
C1129 C1133 1.408 . S
C1130 C1128 1.363 . S
C1130 C1131 1.370 . S
C1130 C1134 1.524 . S
C1131 C1123 1.503 1_545 S
C1131 C1130 1.370 . S
C1131 C1132 1.403 . S
C1132 C1131 1.403 . S
C1132 C1133 1.404 . S
C1132 C1135 1.539 . S
C1133 C1129 1.408 . S
C1133 C1132 1.404 . S
C1133 H1145 0.930 . S
C1134 C1130 1.524 . S
C1134 H1146 0.984 . S
C1134 H1147 0.961 1_545 S
C1134 H1148 0.961 . S
C1135 C1132 1.539 . S
C1135 H1149 0.958 . S
C1135 H1150 0.961 . S
C1135 H1151 0.970 . S
H1136 C1120 0.931 . S
H1137 C1125 0.929 . S
H1138 C1126 0.960 1_545 S
H1139 C1126 0.962 . S
H1140 C1126 0.960 . S
H1141 C1127 0.961 . S
H1142 C1127 0.961 1_545 S
H1143 C1127 0.961 . S
H1144 C1128 0.931 . S
H1145 C1133 0.930 . S
H1146 C1134 0.984 . S
H1147 C1134 0.961 1_565 S
H1148 C1134 0.961 . S
H1149 C1135 0.958 . S
H1150 C1135 0.961 . S
H1151 C1135 0.970 . S
C1152 C1153 1.391 . S
C1152 C1154 1.394 . S
C1152 H1168 0.931 . S
C1153 C1152 1.391 . S
C1153 C1157 1.376 . S
C1154 C1152 1.394 . S
C1154 C1155 1.369 . S
C1154 C1158 1.531 . S
C1155 C1154 1.369 . S
C1155 C1156 1.410 . S
C1155 C1163 1.503 1_455 S
C1156 C1155 1.410 . S
C1156 C1157 1.392 . S
C1156 C1159 1.511 . S
C1157 C1153 1.376 . S
C1157 C1156 1.392 . S
C1157 H1169 0.929 . S
C1158 C1154 1.531 . S
C1158 H1170 0.960 1_455 S
C1158 H1171 0.962 . S
C1158 H1172 0.960 . S
C1159 C1156 1.511 . S
C1159 H1173 0.961 . S
C1159 H1174 0.961 1_455 S
C1159 H1175 0.961 . S
C1160 C1161 1.370 . S
C1160 C1162 1.363 . S
C1160 H1176 0.931 . S
C1161 C1160 1.370 . S
C1161 C1165 1.408 . S
C1162 C1160 1.363 . S
C1162 C1163 1.370 . S
C1162 C1166 1.524 . S
C1163 C1155 1.503 1_655 S
C1163 C1162 1.370 . S
C1163 C1164 1.403 . S
C1164 C1163 1.403 . S
C1164 C1165 1.404 . S
C1164 C1167 1.539 . S
C1165 C1161 1.408 . S
C1165 C1164 1.404 . S
C1165 H1177 0.930 . S
C1166 C1162 1.524 . S
C1166 H1178 0.984 . S
C1166 H1179 0.961 1_655 S
C1166 H1180 0.961 . S
C1167 C1164 1.539 . S
C1167 H1181 0.958 . S
C1167 H1182 0.961 . S
C1167 H1183 0.970 . S
H1168 C1152 0.931 . S
H1169 C1157 0.929 . S
H1170 C1158 0.960 1_655 S
H1171 C1158 0.962 . S
H1172 C1158 0.960 . S
H1173 C1159 0.961 . S
H1174 C1159 0.961 1_655 S
H1175 C1159 0.961 . S
H1176 C1160 0.931 . S
H1177 C1165 0.930 . S
H1178 C1166 0.984 . S
H1179 C1166 0.961 1_455 S
H1180 C1166 0.961 . S
H1181 C1167 0.958 . S
H1182 C1167 0.961 . S
H1183 C1167 0.970 . S
C1184 C1185 1.391 . S
C1184 C1186 1.394 . S
C1184 H1200 0.931 . S
C1185 C1184 1.391 . S
C1185 C1189 1.376 . S
C1186 C1184 1.394 . S
C1186 C1187 1.369 . S
C1186 C1190 1.531 . S
C1187 C1186 1.369 . S
C1187 C1188 1.410 . S
C1187 C1195 1.503 1_545 S
C1188 C1187 1.410 . S
C1188 C1189 1.392 . S
C1188 C1191 1.511 . S
C1189 C1185 1.376 . S
C1189 C1188 1.392 . S
C1189 H1201 0.929 . S
C1190 C1186 1.531 . S
C1190 H1202 0.960 1_545 S
C1190 H1203 0.962 . S
C1190 H1204 0.960 . S
C1191 C1188 1.511 . S
C1191 H1205 0.961 . S
C1191 H1206 0.961 1_545 S
C1191 H1207 0.961 . S
C1192 C1193 1.370 . S
C1192 C1194 1.363 . S
C1192 H1208 0.931 . S
C1193 C1192 1.370 . S
C1193 C1197 1.408 . S
C1194 C1192 1.363 . S
C1194 C1195 1.370 . S
C1194 C1198 1.524 . S
C1195 C1187 1.503 1_565 S
C1195 C1194 1.370 . S
C1195 C1196 1.403 . S
C1196 C1195 1.403 . S
C1196 C1197 1.404 . S
C1196 C1199 1.539 . S
C1197 C1193 1.408 . S
C1197 C1196 1.404 . S
C1197 H1209 0.930 . S
C1198 C1194 1.524 . S
C1198 H1210 0.984 . S
C1198 H1211 0.961 1_565 S
C1198 H1212 0.961 . S
C1199 C1196 1.539 . S
C1199 H1213 0.958 . S
C1199 H1214 0.961 . S
C1199 H1215 0.970 . S
H1200 C1184 0.931 . S
H1201 C1189 0.929 . S
H1202 C1190 0.960 1_565 S
H1203 C1190 0.962 . S
H1204 C1190 0.960 . S
H1205 C1191 0.961 . S
H1206 C1191 0.961 1_565 S
H1207 C1191 0.961 . S
H1208 C1192 0.931 . S
H1209 C1197 0.930 . S
H1210 C1198 0.984 . S
H1211 C1198 0.961 1_545 S
H1212 C1198 0.961 . S
H1213 C1199 0.958 . S
H1214 C1199 0.961 . S
H1215 C1199 0.970 . S
C1216 C1217 1.391 . S
C1216 C1218 1.394 . S
C1216 H1232 0.931 . S
C1217 C1216 1.391 . S
C1217 C1221 1.376 . S
C1218 C1216 1.394 . S
C1218 C1219 1.369 . S
C1218 C1222 1.531 . S
C1219 C1218 1.369 . S
C1219 C1220 1.410 . S
C1219 C1227 1.503 . S
C1220 C1219 1.410 . S
C1220 C1221 1.392 . S
C1220 C1223 1.511 . S
C1221 C1217 1.376 . S
C1221 C1220 1.392 . S
C1221 H1233 0.929 . S
C1222 C1218 1.531 . S
C1222 H1234 0.960 . S
C1222 H1235 0.962 . S
C1222 H1236 0.960 . S
C1223 C1220 1.511 . S
C1223 H1237 0.961 . S
C1223 H1238 0.961 . S
C1223 H1239 0.961 . S
C1224 C1225 1.370 . S
C1224 C1226 1.363 . S
C1224 H1240 0.931 . S
C1225 C1224 1.370 . S
C1225 C1229 1.408 . S
C1226 C1224 1.363 . S
C1226 C1227 1.370 . S
C1226 C1230 1.524 . S
C1227 C1219 1.503 . S
C1227 C1226 1.370 . S
C1227 C1228 1.403 . S
C1228 C1227 1.403 . S
C1228 C1229 1.404 . S
C1228 C1231 1.539 . S
C1229 C1225 1.408 . S
C1229 C1228 1.404 . S
C1229 H1241 0.930 . S
C1230 C1226 1.524 . S
C1230 H1242 0.956 . S
C1230 H1243 0.961 . S
C1230 H1244 0.961 . S
C1231 C1228 1.539 . S
C1231 H1245 0.958 . S
C1231 H1246 0.961 . S
C1231 H1247 0.960 . S
H1232 C1216 0.931 . S
H1233 C1221 0.929 . S
H1234 C1222 0.960 . S
H1235 C1222 0.962 . S
H1236 C1222 0.960 . S
H1237 C1223 0.961 . S
H1238 C1223 0.961 . S
H1239 C1223 0.961 . S
H1240 C1224 0.931 . S
H1241 C1229 0.930 . S
H1242 C1230 0.956 . S
H1243 C1230 0.961 . S
H1244 C1230 0.961 . S
H1245 C1231 0.958 . S
H1246 C1231 0.961 . S
H1247 C1231 0.960 . S
C1248 C1249 1.391 . S
C1248 C1250 1.394 . S
C1248 H1264 0.931 . S
C1249 C1248 1.391 . S
C1249 C1253 1.376 . S
C1250 C1248 1.394 . S
C1250 C1251 1.369 . S
C1250 C1254 1.531 . S
C1251 C1250 1.369 . S
C1251 C1252 1.410 . S
C1251 C1259 1.503 . S
C1252 C1251 1.410 . S
C1252 C1253 1.392 . S
C1252 C1255 1.511 . S
C1253 C1249 1.376 . S
C1253 C1252 1.392 . S
C1253 H1265 0.929 . S
C1254 C1250 1.531 . S
C1254 H1266 0.960 . S
C1254 H1267 0.962 . S
C1254 H1268 0.960 . S
C1255 C1252 1.511 . S
C1255 H1269 0.961 . S
C1255 H1270 0.961 . S
C1255 H1271 0.961 . S
C1256 C1257 1.370 . S
C1256 C1258 1.363 . S
C1256 H1272 0.931 . S
C1257 C1256 1.370 . S
C1257 C1261 1.408 . S
C1258 C1256 1.363 . S
C1258 C1259 1.370 . S
C1258 C1262 1.524 . S
C1259 C1251 1.503 . S
C1259 C1258 1.370 . S
C1259 C1260 1.403 . S
C1260 C1259 1.403 . S
C1260 C1261 1.404 . S
C1260 C1263 1.539 . S
C1261 C1257 1.408 . S
C1261 C1260 1.404 . S
C1261 H1273 0.930 . S
C1262 C1258 1.524 . S
C1262 H1274 0.956 . S
C1262 H1275 0.961 . S
C1262 H1276 0.961 . S
C1263 C1260 1.539 . S
C1263 H1277 0.958 . S
C1263 H1278 0.961 . S
C1263 H1279 0.960 . S
H1264 C1248 0.931 . S
H1265 C1253 0.929 . S
H1266 C1254 0.960 . S
H1267 C1254 0.962 . S
H1268 C1254 0.960 . S
H1269 C1255 0.961 . S
H1270 C1255 0.961 . S
H1271 C1255 0.961 . S
H1272 C1256 0.931 . S
H1273 C1261 0.930 . S
H1274 C1262 0.956 . S
H1275 C1262 0.961 . S
H1276 C1262 0.961 . S
H1277 C1263 0.958 . S
H1278 C1263 0.961 . S
H1279 C1263 0.960 . S
C1280 C1281 1.391 . S
C1280 C1282 1.394 . S
C1280 H1296 0.931 . S
C1281 C1280 1.391 . S
C1281 C1285 1.376 . S
C1282 C1280 1.394 . S
C1282 C1283 1.369 . S
C1282 C1286 1.531 . S
C1283 C1282 1.369 . S
C1283 C1284 1.410 . S
C1283 C1291 1.503 . S
C1284 C1283 1.410 . S
C1284 C1285 1.392 . S
C1284 C1287 1.511 . S
C1285 C1281 1.376 . S
C1285 C1284 1.392 . S
C1285 H1297 0.929 . S
C1286 C1282 1.531 . S
C1286 H1298 0.960 . S
C1286 H1299 0.962 . S
C1286 H1300 0.960 . S
C1287 C1284 1.511 . S
C1287 H1301 0.961 . S
C1287 H1302 0.961 . S
C1287 H1303 0.961 . S
C1288 C1289 1.370 . S
C1288 C1290 1.363 . S
C1288 H1304 0.931 . S
C1289 C1288 1.370 . S
C1289 C1293 1.408 . S
C1290 C1288 1.363 . S
C1290 C1291 1.370 . S
C1290 C1294 1.524 . S
C1291 C1283 1.503 . S
C1291 C1290 1.370 . S
C1291 C1292 1.403 . S
C1292 C1291 1.403 . S
C1292 C1293 1.404 . S
C1292 C1295 1.539 . S
C1293 C1289 1.408 . S
C1293 C1292 1.404 . S
C1293 H1305 0.930 . S
C1294 C1290 1.524 . S
C1294 H1306 0.956 . S
C1294 H1307 0.961 . S
C1294 H1308 0.961 . S
C1295 C1292 1.539 . S
C1295 H1309 0.958 . S
C1295 H1310 0.961 . S
C1295 H1311 0.960 . S
H1296 C1280 0.931 . S
H1297 C1285 0.929 . S
H1298 C1286 0.960 . S
H1299 C1286 0.962 . S
H1300 C1286 0.960 . S
H1301 C1287 0.961 . S
H1302 C1287 0.961 . S
H1303 C1287 0.961 . S
H1304 C1288 0.931 . S
H1305 C1293 0.930 . S
H1306 C1294 0.956 . S
H1307 C1294 0.961 . S
H1308 C1294 0.961 . S
H1309 C1295 0.958 . S
H1310 C1295 0.961 . S
H1311 C1295 0.960 . S
C1312 C1313 1.391 . S
C1312 C1314 1.394 . S
C1312 H1328 0.931 . S
C1313 C1312 1.391 . S
C1313 C1317 1.376 . S
C1314 C1312 1.394 . S
C1314 C1315 1.369 . S
C1314 C1318 1.531 . S
C1315 C1314 1.369 . S
C1315 C1316 1.410 . S
C1315 C1323 1.503 . S
C1316 C1315 1.410 . S
C1316 C1317 1.392 . S
C1316 C1319 1.511 . S
C1317 C1313 1.376 . S
C1317 C1316 1.392 . S
C1317 H1329 0.929 . S
C1318 C1314 1.531 . S
C1318 H1330 0.960 . S
C1318 H1331 0.962 . S
C1318 H1332 0.960 . S
C1319 C1316 1.511 . S
C1319 H1333 0.961 . S
C1319 H1334 0.961 . S
C1319 H1335 0.961 . S
C1320 C1321 1.370 . S
C1320 C1322 1.363 . S
C1320 H1336 0.931 . S
C1321 C1320 1.370 . S
C1321 C1325 1.408 . S
C1322 C1320 1.363 . S
C1322 C1323 1.370 . S
C1322 C1326 1.524 . S
C1323 C1315 1.503 . S
C1323 C1322 1.370 . S
C1323 C1324 1.403 . S
C1324 C1323 1.403 . S
C1324 C1325 1.404 . S
C1324 C1327 1.539 . S
C1325 C1321 1.408 . S
C1325 C1324 1.404 . S
C1325 H1337 0.930 . S
C1326 C1322 1.524 . S
C1326 H1338 0.956 . S
C1326 H1339 0.961 . S
C1326 H1340 0.961 . S
C1327 C1324 1.539 . S
C1327 H1341 0.958 . S
C1327 H1342 0.961 . S
C1327 H1343 0.960 . S
H1328 C1312 0.931 . S
H1329 C1317 0.929 . S
H1330 C1318 0.960 . S
H1331 C1318 0.962 . S
H1332 C1318 0.960 . S
H1333 C1319 0.961 . S
H1334 C1319 0.961 . S
H1335 C1319 0.961 . S
H1336 C1320 0.931 . S
H1337 C1325 0.930 . S
H1338 C1326 0.956 . S
H1339 C1326 0.961 . S
H1340 C1326 0.961 . S
H1341 C1327 0.958 . S
H1342 C1327 0.961 . S
H1343 C1327 0.960 . S
C1344 C1345 1.391 . S
C1344 C1346 1.394 . S
C1344 H1360 0.931 . S
C1345 C1344 1.391 . S
C1345 C1349 1.376 . S
C1346 C1344 1.394 . S
C1346 C1347 1.369 . S
C1346 C1350 1.531 . S
C1347 C1346 1.369 . S
C1347 C1348 1.410 . S
C1347 C1355 1.503 . S
C1348 C1347 1.410 . S
C1348 C1349 1.392 . S
C1348 C1351 1.511 . S
C1349 C1345 1.376 . S
C1349 C1348 1.392 . S
C1349 H1361 0.929 . S
C1350 C1346 1.531 . S
C1350 H1362 0.960 . S
C1350 H1363 0.962 . S
C1350 H1364 0.960 . S
C1351 C1348 1.511 . S
C1351 H1365 0.961 . S
C1351 H1366 0.961 . S
C1351 H1367 0.961 . S
C1352 C1353 1.370 . S
C1352 C1354 1.363 . S
C1352 H1368 0.931 . S
C1353 C1352 1.370 . S
C1353 C1357 1.408 . S
C1354 C1352 1.363 . S
C1354 C1355 1.370 . S
C1354 C1358 1.524 . S
C1355 C1347 1.503 . S
C1355 C1354 1.370 . S
C1355 C1356 1.403 . S
C1356 C1355 1.403 . S
C1356 C1357 1.404 . S
C1356 C1359 1.539 . S
C1357 C1353 1.408 . S
C1357 C1356 1.404 . S
C1357 H1369 0.930 . S
C1358 C1354 1.524 . S
C1358 H1370 0.956 . S
C1358 H1371 0.961 . S
C1358 H1372 0.961 . S
C1359 C1356 1.539 . S
C1359 H1373 0.958 . S
C1359 H1374 0.961 . S
C1359 H1375 0.960 . S
H1360 C1344 0.931 . S
H1361 C1349 0.929 . S
H1362 C1350 0.960 . S
H1363 C1350 0.962 . S
H1364 C1350 0.960 . S
H1365 C1351 0.961 . S
H1366 C1351 0.961 . S
H1367 C1351 0.961 . S
H1368 C1352 0.931 . S
H1369 C1357 0.930 . S
H1370 C1358 0.956 . S
H1371 C1358 0.961 . S
H1372 C1358 0.961 . S
H1373 C1359 0.958 . S
H1374 C1359 0.961 . S
H1375 C1359 0.960 . S
C1376 C1377 1.391 . S
C1376 C1378 1.394 . S
C1376 H1392 0.931 . S
C1377 C1376 1.391 . S
C1377 C1381 1.376 . S
C1378 C1376 1.394 . S
C1378 C1379 1.369 . S
C1378 C1382 1.531 . S
C1379 C1378 1.369 . S
C1379 C1380 1.410 . S
C1379 C1387 1.503 . S
C1380 C1379 1.410 . S
C1380 C1381 1.392 . S
C1380 C1383 1.511 . S
C1381 C1377 1.376 . S
C1381 C1380 1.392 . S
C1381 H1393 0.929 . S
C1382 C1378 1.531 . S
C1382 H1394 0.960 . S
C1382 H1395 0.962 . S
C1382 H1396 0.960 . S
C1383 C1380 1.511 . S
C1383 H1397 0.961 . S
C1383 H1398 0.961 . S
C1383 H1399 0.961 . S
C1384 C1385 1.370 . S
C1384 C1386 1.363 . S
C1384 H1400 0.931 . S
C1385 C1384 1.370 . S
C1385 C1389 1.408 . S
C1386 C1384 1.363 . S
C1386 C1387 1.370 . S
C1386 C1390 1.524 . S
C1387 C1379 1.503 . S
C1387 C1386 1.370 . S
C1387 C1388 1.403 . S
C1388 C1387 1.403 . S
C1388 C1389 1.404 . S
C1388 C1391 1.539 . S
C1389 C1385 1.408 . S
C1389 C1388 1.404 . S
C1389 H1401 0.930 . S
C1390 C1386 1.524 . S
C1390 H1402 0.956 . S
C1390 H1403 0.961 . S
C1390 H1404 0.961 . S
C1391 C1388 1.539 . S
C1391 H1405 0.958 . S
C1391 H1406 0.961 . S
C1391 H1407 0.960 . S
H1392 C1376 0.931 . S
H1393 C1381 0.929 . S
H1394 C1382 0.960 . S
H1395 C1382 0.962 . S
H1396 C1382 0.960 . S
H1397 C1383 0.961 . S
H1398 C1383 0.961 . S
H1399 C1383 0.961 . S
H1400 C1384 0.931 . S
H1401 C1389 0.930 . S
H1402 C1390 0.956 . S
H1403 C1390 0.961 . S
H1404 C1390 0.961 . S
H1405 C1391 0.958 . S
H1406 C1391 0.961 . S
H1407 C1391 0.960 . S
C1408 C1409 1.391 . S
C1408 C1410 1.394 . S
C1408 H1424 0.931 . S
C1409 C1408 1.391 . S
C1409 C1413 1.376 . S
C1410 C1408 1.394 . S
C1410 C1411 1.369 . S
C1410 C1414 1.531 . S
C1411 C1410 1.369 . S
C1411 C1412 1.410 . S
C1411 C1419 1.503 . S
C1412 C1411 1.410 . S
C1412 C1413 1.392 . S
C1412 C1415 1.511 . S
C1413 C1409 1.376 . S
C1413 C1412 1.392 . S
C1413 H1425 0.929 . S
C1414 C1410 1.531 . S
C1414 H1426 0.960 . S
C1414 H1427 0.962 . S
C1414 H1428 0.960 . S
C1415 C1412 1.511 . S
C1415 H1429 0.961 . S
C1415 H1430 0.961 . S
C1415 H1431 0.961 . S
C1416 C1417 1.370 . S
C1416 C1418 1.363 . S
C1416 H1432 0.931 . S
C1417 C1416 1.370 . S
C1417 C1421 1.408 . S
C1418 C1416 1.363 . S
C1418 C1419 1.370 . S
C1418 C1422 1.524 . S
C1419 C1411 1.503 . S
C1419 C1418 1.370 . S
C1419 C1420 1.403 . S
C1420 C1419 1.403 . S
C1420 C1421 1.404 . S
C1420 C1423 1.539 . S
C1421 C1417 1.408 . S
C1421 C1420 1.404 . S
C1421 H1433 0.930 . S
C1422 C1418 1.524 . S
C1422 H1434 0.956 . S
C1422 H1435 0.961 . S
C1422 H1436 0.961 . S
C1423 C1420 1.539 . S
C1423 H1437 0.958 . S
C1423 H1438 0.961 . S
C1423 H1439 0.960 . S
H1424 C1408 0.931 . S
H1425 C1413 0.929 . S
H1426 C1414 0.960 . S
H1427 C1414 0.962 . S
H1428 C1414 0.960 . S
H1429 C1415 0.961 . S
H1430 C1415 0.961 . S
H1431 C1415 0.961 . S
H1432 C1416 0.931 . S
H1433 C1421 0.930 . S
H1434 C1422 0.956 . S
H1435 C1422 0.961 . S
H1436 C1422 0.961 . S
H1437 C1423 0.958 . S
H1438 C1423 0.961 . S
H1439 C1423 0.960 . S
C1440 C1441 1.391 . S
C1440 C1442 1.394 . S
C1440 H1456 0.931 . S
C1441 C1440 1.391 . S
C1441 C1445 1.376 . S
C1442 C1440 1.394 . S
C1442 C1443 1.369 . S
C1442 C1446 1.531 . S
C1443 C1442 1.369 . S
C1443 C1444 1.410 . S
C1443 C1451 1.503 . S
C1444 C1443 1.410 . S
C1444 C1445 1.392 . S
C1444 C1447 1.511 . S
C1445 C1441 1.376 . S
C1445 C1444 1.392 . S
C1445 H1457 0.929 . S
C1446 C1442 1.531 . S
C1446 H1458 0.960 . S
C1446 H1459 0.962 . S
C1446 H1460 0.960 . S
C1447 C1444 1.511 . S
C1447 H1461 0.961 . S
C1447 H1462 0.961 . S
C1447 H1463 0.961 . S
C1448 C1449 1.370 . S
C1448 C1450 1.363 . S
C1448 H1464 0.931 . S
C1449 C1448 1.370 . S
C1449 C1453 1.408 . S
C1450 C1448 1.363 . S
C1450 C1451 1.370 . S
C1450 C1454 1.524 . S
C1451 C1443 1.503 . S
C1451 C1450 1.370 . S
C1451 C1452 1.403 . S
C1452 C1451 1.403 . S
C1452 C1453 1.404 . S
C1452 C1455 1.539 . S
C1453 C1449 1.408 . S
C1453 C1452 1.404 . S
C1453 H1465 0.930 . S
C1454 C1450 1.524 . S
C1454 H1466 0.956 . S
C1454 H1467 0.961 . S
C1454 H1468 0.961 . S
C1455 C1452 1.539 . S
C1455 H1469 0.958 . S
C1455 H1470 0.961 . S
C1455 H1471 0.960 . S
H1456 C1440 0.931 . S
H1457 C1445 0.929 . S
H1458 C1446 0.960 . S
H1459 C1446 0.962 . S
H1460 C1446 0.960 . S
H1461 C1447 0.961 . S
H1462 C1447 0.961 . S
H1463 C1447 0.961 . S
H1464 C1448 0.931 . S
H1465 C1453 0.930 . S
H1466 C1454 0.956 . S
H1467 C1454 0.961 . S
H1468 C1454 0.961 . S
H1469 C1455 0.958 . S
H1470 C1455 0.961 . S
H1471 C1455 0.960 . S
C1472 C1473 1.391 . S
C1472 C1474 1.394 . S
C1472 H1488 0.931 . S
C1473 C1472 1.391 . S
C1473 C1477 1.376 . S
C1474 C1472 1.394 . S
C1474 C1475 1.369 . S
C1474 C1478 1.531 . S
C1475 C1474 1.369 . S
C1475 C1476 1.410 . S
C1475 C1483 1.503 . S
C1476 C1475 1.410 . S
C1476 C1477 1.392 . S
C1476 C1479 1.511 . S
C1477 C1473 1.376 . S
C1477 C1476 1.392 . S
C1477 H1489 0.929 . S
C1478 C1474 1.531 . S
C1478 H1490 0.960 . S
C1478 H1491 0.962 . S
C1478 H1492 0.960 . S
C1479 C1476 1.511 . S
C1479 H1493 0.961 . S
C1479 H1494 0.961 . S
C1479 H1495 0.961 . S
C1480 C1481 1.370 . S
C1480 C1482 1.363 . S
C1480 H1496 0.931 . S
C1481 C1480 1.370 . S
C1481 C1485 1.408 . S
C1482 C1480 1.363 . S
C1482 C1483 1.370 . S
C1482 C1486 1.524 . S
C1483 C1475 1.503 . S
C1483 C1482 1.370 . S
C1483 C1484 1.403 . S
C1484 C1483 1.403 . S
C1484 C1485 1.404 . S
C1484 C1487 1.539 . S
C1485 C1481 1.408 . S
C1485 C1484 1.404 . S
C1485 H1497 0.930 . S
C1486 C1482 1.524 . S
C1486 H1498 0.956 . S
C1486 H1499 0.961 . S
C1486 H1500 0.961 . S
C1487 C1484 1.539 . S
C1487 H1501 0.958 . S
C1487 H1502 0.961 . S
C1487 H1503 0.960 . S
H1488 C1472 0.931 . S
H1489 C1477 0.929 . S
H1490 C1478 0.960 . S
H1491 C1478 0.962 . S
H1492 C1478 0.960 . S
H1493 C1479 0.961 . S
H1494 C1479 0.961 . S
H1495 C1479 0.961 . S
H1496 C1480 0.931 . S
H1497 C1485 0.930 . S
H1498 C1486 0.956 . S
H1499 C1486 0.961 . S
H1500 C1486 0.961 . S
H1501 C1487 0.958 . S
H1502 C1487 0.961 . S
H1503 C1487 0.960 . S
C1504 C1505 1.391 . S
C1504 C1506 1.394 . S
C1504 H1520 0.931 . S
C1505 C1504 1.391 . S
C1505 C1509 1.376 . S
C1506 C1504 1.394 . S
C1506 C1507 1.369 . S
C1506 C1510 1.531 . S
C1507 C1506 1.369 . S
C1507 C1508 1.410 . S
C1507 C1515 1.503 . S
C1508 C1507 1.410 . S
C1508 C1509 1.392 . S
C1508 C1511 1.511 . S
C1509 C1505 1.376 . S
C1509 C1508 1.392 . S
C1509 H1521 0.929 . S
C1510 C1506 1.531 . S
C1510 H1522 0.960 . S
C1510 H1523 0.962 . S
C1510 H1524 0.960 . S
C1511 C1508 1.511 . S
C1511 H1525 0.961 . S
C1511 H1526 0.961 . S
C1511 H1527 0.961 . S
C1512 C1513 1.370 . S
C1512 C1514 1.363 . S
C1512 H1528 0.931 . S
C1513 C1512 1.370 . S
C1513 C1517 1.408 . S
C1514 C1512 1.363 . S
C1514 C1515 1.370 . S
C1514 C1518 1.524 . S
C1515 C1507 1.503 . S
C1515 C1514 1.370 . S
C1515 C1516 1.403 . S
C1516 C1515 1.403 . S
C1516 C1517 1.404 . S
C1516 C1519 1.539 . S
C1517 C1513 1.408 . S
C1517 C1516 1.404 . S
C1517 H1529 0.930 . S
C1518 C1514 1.524 . S
C1518 H1530 0.956 . S
C1518 H1531 0.961 . S
C1518 H1532 0.961 . S
C1519 C1516 1.539 . S
C1519 H1533 0.958 . S
C1519 H1534 0.961 . S
C1519 H1535 0.960 . S
H1520 C1504 0.931 . S
H1521 C1509 0.929 . S
H1522 C1510 0.960 . S
H1523 C1510 0.962 . S
H1524 C1510 0.960 . S
H1525 C1511 0.961 . S
H1526 C1511 0.961 . S
H1527 C1511 0.961 . S
H1528 C1512 0.931 . S
H1529 C1517 0.930 . S
H1530 C1518 0.956 . S
H1531 C1518 0.961 . S
H1532 C1518 0.961 . S
H1533 C1519 0.958 . S
H1534 C1519 0.961 . S
H1535 C1519 0.960 . S
C1536 C1537 1.391 . S
C1536 C1538 1.394 . S
C1536 H1552 0.931 . S
C1537 C1536 1.391 . S
C1537 C1541 1.376 . S
C1538 C1536 1.394 . S
C1538 C1539 1.369 . S
C1538 C1542 1.531 . S
C1539 C1538 1.369 . S
C1539 C1540 1.410 . S
C1539 C1547 1.503 . S
C1540 C1539 1.410 . S
C1540 C1541 1.392 . S
C1540 C1543 1.511 . S
C1541 C1537 1.376 . S
C1541 C1540 1.392 . S
C1541 H1553 0.929 . S
C1542 C1538 1.531 . S
C1542 H1554 0.960 . S
C1542 H1555 0.962 . S
C1542 H1556 0.960 . S
C1543 C1540 1.511 . S
C1543 H1557 0.961 . S
C1543 H1558 0.961 . S
C1543 H1559 0.961 . S
C1544 C1545 1.370 . S
C1544 C1546 1.363 . S
C1544 H1560 0.931 . S
C1545 C1544 1.370 . S
C1545 C1549 1.408 . S
C1546 C1544 1.363 . S
C1546 C1547 1.370 . S
C1546 C1550 1.524 . S
C1547 C1539 1.503 . S
C1547 C1546 1.370 . S
C1547 C1548 1.403 . S
C1548 C1547 1.403 . S
C1548 C1549 1.404 . S
C1548 C1551 1.539 . S
C1549 C1545 1.408 . S
C1549 C1548 1.404 . S
C1549 H1561 0.930 . S
C1550 C1546 1.524 . S
C1550 H1562 0.956 . S
C1550 H1563 0.961 . S
C1550 H1564 0.961 . S
C1551 C1548 1.539 . S
C1551 H1565 0.958 . S
C1551 H1566 0.961 . S
C1551 H1567 0.960 . S
H1552 C1536 0.931 . S
H1553 C1541 0.929 . S
H1554 C1542 0.960 . S
H1555 C1542 0.962 . S
H1556 C1542 0.960 . S
H1557 C1543 0.961 . S
H1558 C1543 0.961 . S
H1559 C1543 0.961 . S
H1560 C1544 0.931 . S
H1561 C1549 0.930 . S
H1562 C1550 0.956 . S
H1563 C1550 0.961 . S
H1564 C1550 0.961 . S
H1565 C1551 0.958 . S
H1566 C1551 0.961 . S
H1567 C1551 0.960 . S
C1568 C1569 1.391 . S
C1568 C1570 1.394 . S
C1568 H1584 0.931 . S
C1569 C1568 1.391 . S
C1569 C1573 1.376 . S
C1570 C1568 1.394 . S
C1570 C1571 1.369 . S
C1570 C1574 1.531 . S
C1571 C1570 1.369 . S
C1571 C1572 1.410 . S
C1571 C1579 1.503 . S
C1572 C1571 1.410 . S
C1572 C1573 1.392 . S
C1572 C1575 1.511 . S
C1573 C1569 1.376 . S
C1573 C1572 1.392 . S
C1573 H1585 0.929 . S
C1574 C1570 1.531 . S
C1574 H1586 0.960 . S
C1574 H1587 0.962 . S
C1574 H1588 0.960 . S
C1575 C1572 1.511 . S
C1575 H1589 0.961 . S
C1575 H1590 0.961 . S
C1575 H1591 0.961 . S
C1576 C1577 1.370 . S
C1576 C1578 1.363 . S
C1576 H1592 0.931 . S
C1577 C1576 1.370 . S
C1577 C1581 1.408 . S
C1578 C1576 1.363 . S
C1578 C1579 1.370 . S
C1578 C1582 1.524 . S
C1579 C1571 1.503 . S
C1579 C1578 1.370 . S
C1579 C1580 1.403 . S
C1580 C1579 1.403 . S
C1580 C1581 1.404 . S
C1580 C1583 1.539 . S
C1581 C1577 1.408 . S
C1581 C1580 1.404 . S
C1581 H1593 0.930 . S
C1582 C1578 1.524 . S
C1582 H1594 0.956 . S
C1582 H1595 0.961 . S
C1582 H1596 0.961 . S
C1583 C1580 1.539 . S
C1583 H1597 0.958 . S
C1583 H1598 0.961 . S
C1583 H1599 0.960 . S
H1584 C1568 0.931 . S
H1585 C1573 0.929 . S
H1586 C1574 0.960 . S
H1587 C1574 0.962 . S
H1588 C1574 0.960 . S
H1589 C1575 0.961 . S
H1590 C1575 0.961 . S
H1591 C1575 0.961 . S
H1592 C1576 0.931 . S
H1593 C1581 0.930 . S
H1594 C1582 0.956 . S
H1595 C1582 0.961 . S
H1596 C1582 0.961 . S
H1597 C1583 0.958 . S
H1598 C1583 0.961 . S
H1599 C1583 0.960 . S
C1600 C1601 1.391 . S
C1600 C1602 1.394 . S
C1600 H1616 0.931 . S
C1601 C1600 1.391 . S
C1601 C1605 1.376 . S
C1602 C1600 1.394 . S
C1602 C1603 1.369 . S
C1602 C1606 1.531 . S
C1603 C1602 1.369 . S
C1603 C1604 1.410 . S
C1603 C1611 1.503 . S
C1604 C1603 1.410 . S
C1604 C1605 1.392 . S
C1604 C1607 1.511 . S
C1605 C1601 1.376 . S
C1605 C1604 1.392 . S
C1605 H1617 0.929 . S
C1606 C1602 1.531 . S
C1606 H1618 0.960 . S
C1606 H1619 0.962 . S
C1606 H1620 0.960 . S
C1607 C1604 1.511 . S
C1607 H1621 0.961 . S
C1607 H1622 0.961 . S
C1607 H1623 0.961 . S
C1608 C1609 1.370 . S
C1608 C1610 1.363 . S
C1608 H1624 0.931 . S
C1609 C1608 1.370 . S
C1609 C1613 1.408 . S
C1610 C1608 1.363 . S
C1610 C1611 1.370 . S
C1610 C1614 1.524 . S
C1611 C1603 1.503 . S
C1611 C1610 1.370 . S
C1611 C1612 1.403 . S
C1612 C1611 1.403 . S
C1612 C1613 1.404 . S
C1612 C1615 1.539 . S
C1613 C1609 1.408 . S
C1613 C1612 1.404 . S
C1613 H1625 0.930 . S
C1614 C1610 1.524 . S
C1614 H1626 0.956 . S
C1614 H1627 0.961 . S
C1614 H1628 0.961 . S
C1615 C1612 1.539 . S
C1615 H1629 0.958 . S
C1615 H1630 0.961 . S
C1615 H1631 0.960 . S
H1616 C1600 0.931 . S
H1617 C1605 0.929 . S
H1618 C1606 0.960 . S
H1619 C1606 0.962 . S
H1620 C1606 0.960 . S
H1621 C1607 0.961 . S
H1622 C1607 0.961 . S
H1623 C1607 0.961 . S
H1624 C1608 0.931 . S
H1625 C1613 0.930 . S
H1626 C1614 0.956 . S
H1627 C1614 0.961 . S
H1628 C1614 0.961 . S
H1629 C1615 0.958 . S
H1630 C1615 0.961 . S
H1631 C1615 0.960 . S
C1632 C1633 1.391 . S
C1632 C1634 1.394 . S
C1632 H1648 0.931 . S
C1633 C1632 1.391 . S
C1633 C1637 1.376 . S
C1634 C1632 1.394 . S
C1634 C1635 1.369 . S
C1634 C1638 1.531 . S
C1635 C1634 1.369 . S
C1635 C1636 1.410 . S
C1635 C1643 1.503 . S
C1636 C1635 1.410 . S
C1636 C1637 1.392 . S
C1636 C1639 1.511 . S
C1637 C1633 1.376 . S
C1637 C1636 1.392 . S
C1637 H1649 0.929 . S
C1638 C1634 1.531 . S
C1638 H1650 0.960 . S
C1638 H1651 0.962 . S
C1638 H1652 0.960 . S
C1639 C1636 1.511 . S
C1639 H1653 0.961 . S
C1639 H1654 0.961 . S
C1639 H1655 0.961 . S
C1640 C1641 1.370 . S
C1640 C1642 1.363 . S
C1640 H1656 0.931 . S
C1641 C1640 1.370 . S
C1641 C1645 1.408 . S
C1642 C1640 1.363 . S
C1642 C1643 1.370 . S
C1642 C1646 1.524 . S
C1643 C1635 1.503 . S
C1643 C1642 1.370 . S
C1643 C1644 1.403 . S
C1644 C1643 1.403 . S
C1644 C1645 1.404 . S
C1644 C1647 1.539 . S
C1645 C1641 1.408 . S
C1645 C1644 1.404 . S
C1645 H1657 0.930 . S
C1646 C1642 1.524 . S
C1646 H1658 0.956 . S
C1646 H1659 0.961 . S
C1646 H1660 0.961 . S
C1647 C1644 1.539 . S
C1647 H1661 0.958 . S
C1647 H1662 0.961 . S
C1647 H1663 0.960 . S
H1648 C1632 0.931 . S
H1649 C1637 0.929 . S
H1650 C1638 0.960 . S
H1651 C1638 0.962 . S
H1652 C1638 0.960 . S
H1653 C1639 0.961 . S
H1654 C1639 0.961 . S
H1655 C1639 0.961 . S
H1656 C1640 0.931 . S
H1657 C1645 0.930 . S
H1658 C1646 0.956 . S
H1659 C1646 0.961 . S
H1660 C1646 0.961 . S
H1661 C1647 0.958 . S
H1662 C1647 0.961 . S
H1663 C1647 0.960 . S
C1664 C1665 1.391 . S
C1664 C1666 1.394 . S
C1664 H1680 0.931 . S
C1665 C1664 1.391 . S
C1665 C1669 1.376 . S
C1666 C1664 1.394 . S
C1666 C1667 1.369 . S
C1666 C1670 1.531 . S
C1667 C1666 1.369 . S
C1667 C1668 1.410 . S
C1667 C1675 1.503 . S
C1668 C1667 1.410 . S
C1668 C1669 1.392 . S
C1668 C1671 1.511 . S
C1669 C1665 1.376 . S
C1669 C1668 1.392 . S
C1669 H1681 0.929 . S
C1670 C1666 1.531 . S
C1670 H1682 0.960 . S
C1670 H1683 0.962 . S
C1670 H1684 0.960 . S
C1671 C1668 1.511 . S
C1671 H1685 0.961 . S
C1671 H1686 0.961 . S
C1671 H1687 0.961 . S
C1672 C1673 1.370 . S
C1672 C1674 1.363 . S
C1672 H1688 0.931 . S
C1673 C1672 1.370 . S
C1673 C1677 1.408 . S
C1674 C1672 1.363 . S
C1674 C1675 1.370 . S
C1674 C1678 1.524 . S
C1675 C1667 1.503 . S
C1675 C1674 1.370 . S
C1675 C1676 1.403 . S
C1676 C1675 1.403 . S
C1676 C1677 1.404 . S
C1676 C1679 1.539 . S
C1677 C1673 1.408 . S
C1677 C1676 1.404 . S
C1677 H1689 0.930 . S
C1678 C1674 1.524 . S
C1678 H1690 0.956 . S
C1678 H1691 0.961 . S
C1678 H1692 0.961 . S
C1679 C1676 1.539 . S
C1679 H1693 0.958 . S
C1679 H1694 0.961 . S
C1679 H1695 0.960 . S
H1680 C1664 0.931 . S
H1681 C1669 0.929 . S
H1682 C1670 0.960 . S
H1683 C1670 0.962 . S
H1684 C1670 0.960 . S
H1685 C1671 0.961 . S
H1686 C1671 0.961 . S
H1687 C1671 0.961 . S
H1688 C1672 0.931 . S
H1689 C1677 0.930 . S
H1690 C1678 0.956 . S
H1691 C1678 0.961 . S
H1692 C1678 0.961 . S
H1693 C1679 0.958 . S
H1694 C1679 0.961 . S
H1695 C1679 0.960 . S
C1696 C1697 1.391 . S
C1696 C1698 1.394 . S
C1696 H1712 0.931 . S
C1697 C1696 1.391 . S
C1697 C1701 1.376 . S
C1698 C1696 1.394 . S
C1698 C1699 1.369 . S
C1698 C1702 1.531 . S
C1699 C1698 1.369 . S
C1699 C1700 1.410 . S
C1699 C1707 1.503 . S
C1700 C1699 1.410 . S
C1700 C1701 1.392 . S
C1700 C1703 1.511 . S
C1701 C1697 1.376 . S
C1701 C1700 1.392 . S
C1701 H1713 0.929 . S
C1702 C1698 1.531 . S
C1702 H1714 0.960 . S
C1702 H1715 0.962 . S
C1702 H1716 0.960 . S
C1703 C1700 1.511 . S
C1703 H1717 0.961 . S
C1703 H1718 0.961 . S
C1703 H1719 0.961 . S
C1704 C1705 1.370 . S
C1704 C1706 1.363 . S
C1704 H1720 0.931 . S
C1705 C1704 1.370 . S
C1705 C1709 1.408 . S
C1706 C1704 1.363 . S
C1706 C1707 1.370 . S
C1706 C1710 1.524 . S
C1707 C1699 1.503 . S
C1707 C1706 1.370 . S
C1707 C1708 1.403 . S
C1708 C1707 1.403 . S
C1708 C1709 1.404 . S
C1708 C1711 1.539 . S
C1709 C1705 1.408 . S
C1709 C1708 1.404 . S
C1709 H1721 0.930 . S
C1710 C1706 1.524 . S
C1710 H1722 0.956 . S
C1710 H1723 0.961 . S
C1710 H1724 0.961 . S
C1711 C1708 1.539 . S
C1711 H1725 0.958 . S
C1711 H1726 0.961 . S
C1711 H1727 0.960 . S
H1712 C1696 0.931 . S
H1713 C1701 0.929 . S
H1714 C1702 0.960 . S
H1715 C1702 0.962 . S
H1716 C1702 0.960 . S
H1717 C1703 0.961 . S
H1718 C1703 0.961 . S
H1719 C1703 0.961 . S
H1720 C1704 0.931 . S
H1721 C1709 0.930 . S
H1722 C1710 0.956 . S
H1723 C1710 0.961 . S
H1724 C1710 0.961 . S
H1725 C1711 0.958 . S
H1726 C1711 0.961 . S
H1727 C1711 0.960 . S
C1728 C1729 1.391 . S
C1728 C1730 1.394 . S
C1728 H1744 0.931 . S
C1729 C1728 1.391 . S
C1729 C1733 1.376 . S
C1730 C1728 1.394 . S
C1730 C1731 1.369 . S
C1730 C1734 1.531 . S
C1731 C1730 1.369 . S
C1731 C1732 1.410 . S
C1731 C1739 1.503 1_554 S
C1732 C1731 1.410 . S
C1732 C1733 1.392 . S
C1732 C1735 1.511 . S
C1733 C1729 1.376 . S
C1733 C1732 1.392 . S
C1733 H1745 0.929 . S
C1734 C1730 1.531 . S
C1734 H1746 0.960 1_554 S
C1734 H1747 0.962 . S
C1734 H1748 0.960 . S
C1735 C1732 1.511 . S
C1735 H1749 0.961 . S
C1735 H1750 0.961 1_554 S
C1735 H1751 0.961 . S
C1736 C1737 1.370 . S
C1736 C1738 1.363 . S
C1736 H1752 0.931 . S
C1737 C1736 1.370 . S
C1737 C1741 1.408 . S
C1738 C1736 1.363 . S
C1738 C1739 1.370 . S
C1738 C1742 1.524 . S
C1739 C1731 1.503 1_556 S
C1739 C1738 1.370 . S
C1739 C1740 1.403 . S
C1740 C1739 1.403 . S
C1740 C1741 1.404 . S
C1740 C1743 1.539 . S
C1741 C1737 1.408 . S
C1741 C1740 1.404 . S
C1741 H1753 0.930 . S
C1742 C1738 1.524 . S
C1742 H1754 0.956 . S
C1742 H1755 0.961 1_556 S
C1742 H1756 0.961 . S
C1743 C1740 1.539 . S
C1743 H1757 0.958 . S
C1743 H1758 0.961 . S
C1743 H1759 0.971 . S
H1744 C1728 0.931 . S
H1745 C1733 0.929 . S
H1746 C1734 0.960 1_556 S
H1747 C1734 0.962 . S
H1748 C1734 0.960 . S
H1749 C1735 0.961 . S
H1750 C1735 0.961 1_556 S
H1751 C1735 0.961 . S
H1752 C1736 0.931 . S
H1753 C1741 0.930 . S
H1754 C1742 0.956 . S
H1755 C1742 0.961 1_554 S
H1756 C1742 0.961 . S
H1757 C1743 0.958 . S
H1758 C1743 0.961 . S
H1759 C1743 0.971 . S
C1760 C1761 1.391 . S
C1760 C1762 1.394 . S
C1760 H1776 0.931 . S
C1761 C1760 1.391 . S
C1761 C1765 1.376 . S
C1762 C1760 1.394 . S
C1762 C1763 1.369 . S
C1762 C1766 1.531 . S
C1763 C1762 1.369 . S
C1763 C1764 1.410 . S
C1763 C1771 1.503 1_556 S
C1764 C1763 1.410 . S
C1764 C1765 1.392 . S
C1764 C1767 1.511 . S
C1765 C1761 1.376 . S
C1765 C1764 1.392 . S
C1765 H1777 0.929 . S
C1766 C1762 1.531 . S
C1766 H1778 0.960 1_556 S
C1766 H1779 0.962 . S
C1766 H1780 0.960 . S
C1767 C1764 1.511 . S
C1767 H1781 0.961 . S
C1767 H1782 0.961 1_556 S
C1767 H1783 0.961 . S
C1768 C1769 1.370 . S
C1768 C1770 1.363 . S
C1768 H1784 0.931 . S
C1769 C1768 1.370 . S
C1769 C1773 1.408 . S
C1770 C1768 1.363 . S
C1770 C1771 1.370 . S
C1770 C1774 1.524 . S
C1771 C1763 1.503 1_554 S
C1771 C1770 1.370 . S
C1771 C1772 1.403 . S
C1772 C1771 1.403 . S
C1772 C1773 1.404 . S
C1772 C1775 1.539 . S
C1773 C1769 1.408 . S
C1773 C1772 1.404 . S
C1773 H1785 0.930 . S
C1774 C1770 1.524 . S
C1774 H1786 0.956 . S
C1774 H1787 0.961 1_554 S
C1774 H1788 0.961 . S
C1775 C1772 1.539 . S
C1775 H1789 0.958 . S
C1775 H1790 0.961 . S
C1775 H1791 0.971 . S
H1776 C1760 0.931 . S
H1777 C1765 0.929 . S
H1778 C1766 0.960 1_554 S
H1779 C1766 0.962 . S
H1780 C1766 0.960 . S
H1781 C1767 0.961 . S
H1782 C1767 0.961 1_554 S
H1783 C1767 0.961 . S
H1784 C1768 0.931 . S
H1785 C1773 0.930 . S
H1786 C1774 0.956 . S
H1787 C1774 0.961 1_556 S
H1788 C1774 0.961 . S
H1789 C1775 0.958 . S
H1790 C1775 0.961 . S
H1791 C1775 0.971 . S
C1792 C1793 1.391 . S
C1792 C1794 1.394 . S
C1792 H1808 0.931 . S
C1793 C1792 1.391 . S
C1793 C1797 1.376 . S
C1794 C1792 1.394 . S
C1794 C1795 1.369 . S
C1794 C1798 1.531 . S
C1795 C1794 1.369 . S
C1795 C1796 1.410 . S
C1795 C1803 1.503 1_554 S
C1796 C1795 1.410 . S
C1796 C1797 1.392 . S
C1796 C1799 1.511 . S
C1797 C1793 1.376 . S
C1797 C1796 1.392 . S
C1797 H1809 0.929 . S
C1798 C1794 1.531 . S
C1798 H1810 0.960 1_554 S
C1798 H1811 0.962 . S
C1798 H1812 0.960 . S
C1799 C1796 1.511 . S
C1799 H1813 0.961 . S
C1799 H1814 0.961 1_554 S
C1799 H1815 0.961 . S
C1800 C1801 1.370 . S
C1800 C1802 1.363 . S
C1800 H1816 0.931 . S
C1801 C1800 1.370 . S
C1801 C1805 1.408 . S
C1802 C1800 1.363 . S
C1802 C1803 1.370 . S
C1802 C1806 1.524 . S
C1803 C1795 1.503 1_556 S
C1803 C1802 1.370 . S
C1803 C1804 1.403 . S
C1804 C1803 1.403 . S
C1804 C1805 1.404 . S
C1804 C1807 1.539 . S
C1805 C1801 1.408 . S
C1805 C1804 1.404 . S
C1805 H1817 0.930 . S
C1806 C1802 1.524 . S
C1806 H1818 0.956 . S
C1806 H1819 0.961 1_556 S
C1806 H1820 0.961 . S
C1807 C1804 1.539 . S
C1807 H1821 0.958 . S
C1807 H1822 0.961 . S
C1807 H1823 0.971 . S
H1808 C1792 0.931 . S
H1809 C1797 0.929 . S
H1810 C1798 0.960 1_556 S
H1811 C1798 0.962 . S
H1812 C1798 0.960 . S
H1813 C1799 0.961 . S
H1814 C1799 0.961 1_556 S
H1815 C1799 0.961 . S
H1816 C1800 0.931 . S
H1817 C1805 0.930 . S
H1818 C1806 0.956 . S
H1819 C1806 0.961 1_554 S
H1820 C1806 0.961 . S
H1821 C1807 0.958 . S
H1822 C1807 0.961 . S
H1823 C1807 0.971 . S
C1824 C1825 1.391 . S
C1824 C1826 1.394 . S
C1824 H1840 0.931 . S
C1825 C1824 1.391 . S
C1825 C1829 1.376 . S
C1826 C1824 1.394 . S
C1826 C1827 1.369 . S
C1826 C1830 1.531 . S
C1827 C1826 1.369 . S
C1827 C1828 1.410 . S
C1827 C1835 1.503 1_554 S
C1828 C1827 1.410 . S
C1828 C1829 1.392 . S
C1828 C1831 1.511 . S
C1829 C1825 1.376 . S
C1829 C1828 1.392 . S
C1829 H1841 0.929 . S
C1830 C1826 1.531 . S
C1830 H1842 0.960 1_554 S
C1830 H1843 0.962 . S
C1830 H1844 0.960 . S
C1831 C1828 1.511 . S
C1831 H1845 0.961 . S
C1831 H1846 0.961 1_554 S
C1831 H1847 0.961 . S
C1832 C1833 1.370 . S
C1832 C1834 1.363 . S
C1832 H1848 0.931 . S
C1833 C1832 1.370 . S
C1833 C1837 1.408 . S
C1834 C1832 1.363 . S
C1834 C1835 1.370 . S
C1834 C1838 1.524 . S
C1835 C1827 1.503 1_556 S
C1835 C1834 1.370 . S
C1835 C1836 1.403 . S
C1836 C1835 1.403 . S
C1836 C1837 1.404 . S
C1836 C1839 1.539 . S
C1837 C1833 1.408 . S
C1837 C1836 1.404 . S
C1837 H1849 0.930 . S
C1838 C1834 1.524 . S
C1838 H1850 0.956 . S
C1838 H1851 0.961 1_556 S
C1838 H1852 0.961 . S
C1839 C1836 1.539 . S
C1839 H1853 0.958 . S
C1839 H1854 0.961 . S
C1839 H1855 0.971 . S
H1840 C1824 0.931 . S
H1841 C1829 0.929 . S
H1842 C1830 0.960 1_556 S
H1843 C1830 0.962 . S
H1844 C1830 0.960 . S
H1845 C1831 0.961 . S
H1846 C1831 0.961 1_556 S
H1847 C1831 0.961 . S
H1848 C1832 0.931 . S
H1849 C1837 0.930 . S
H1850 C1838 0.956 . S
H1851 C1838 0.961 1_554 S
H1852 C1838 0.961 . S
H1853 C1839 0.958 . S
H1854 C1839 0.961 . S
H1855 C1839 0.971 . S
C1856 C1857 1.391 . S
C1856 C1858 1.394 . S
C1856 H1872 0.931 . S
C1857 C1856 1.391 . S
C1857 C1861 1.376 . S
C1858 C1856 1.394 . S
C1858 C1859 1.369 . S
C1858 C1862 1.531 . S
C1859 C1858 1.369 . S
C1859 C1860 1.410 . S
C1859 C1867 1.503 1_554 S
C1860 C1859 1.410 . S
C1860 C1861 1.392 . S
C1860 C1863 1.511 . S
C1861 C1857 1.376 . S
C1861 C1860 1.392 . S
C1861 H1873 0.929 . S
C1862 C1858 1.531 . S
C1862 H1874 0.960 1_554 S
C1862 H1875 0.962 . S
C1862 H1876 0.960 . S
C1863 C1860 1.511 . S
C1863 H1877 0.961 . S
C1863 H1878 0.961 1_554 S
C1863 H1879 0.961 . S
C1864 C1865 1.370 . S
C1864 C1866 1.363 . S
C1864 H1880 0.931 . S
C1865 C1864 1.370 . S
C1865 C1869 1.408 . S
C1866 C1864 1.363 . S
C1866 C1867 1.370 . S
C1866 C1870 1.524 . S
C1867 C1859 1.503 1_556 S
C1867 C1866 1.370 . S
C1867 C1868 1.403 . S
C1868 C1867 1.403 . S
C1868 C1869 1.404 . S
C1868 C1871 1.539 . S
C1869 C1865 1.408 . S
C1869 C1868 1.404 . S
C1869 H1881 0.930 . S
C1870 C1866 1.524 . S
C1870 H1882 0.956 . S
C1870 H1883 0.961 1_556 S
C1870 H1884 0.961 . S
C1871 C1868 1.539 . S
C1871 H1885 0.958 . S
C1871 H1886 0.961 . S
C1871 H1887 0.971 . S
H1872 C1856 0.931 . S
H1873 C1861 0.929 . S
H1874 C1862 0.960 1_556 S
H1875 C1862 0.962 . S
H1876 C1862 0.960 . S
H1877 C1863 0.961 . S
H1878 C1863 0.961 1_556 S
H1879 C1863 0.961 . S
H1880 C1864 0.931 . S
H1881 C1869 0.930 . S
H1882 C1870 0.956 . S
H1883 C1870 0.961 1_554 S
H1884 C1870 0.961 . S
H1885 C1871 0.958 . S
H1886 C1871 0.961 . S
H1887 C1871 0.971 . S
C1888 C1889 1.391 . S
C1888 C1890 1.394 . S
C1888 H1904 0.931 . S
C1889 C1888 1.391 . S
C1889 C1893 1.376 . S
C1890 C1888 1.394 . S
C1890 C1891 1.369 . S
C1890 C1894 1.531 . S
C1891 C1890 1.369 . S
C1891 C1892 1.410 . S
C1891 C1899 1.503 1_554 S
C1892 C1891 1.410 . S
C1892 C1893 1.392 . S
C1892 C1895 1.511 . S
C1893 C1889 1.376 . S
C1893 C1892 1.392 . S
C1893 H1905 0.929 . S
C1894 C1890 1.531 . S
C1894 H1906 0.960 1_554 S
C1894 H1907 0.962 . S
C1894 H1908 0.960 . S
C1895 C1892 1.511 . S
C1895 H1909 0.961 . S
C1895 H1910 0.961 1_554 S
C1895 H1911 0.961 . S
C1896 C1897 1.370 . S
C1896 C1898 1.363 . S
C1896 H1912 0.931 . S
C1897 C1896 1.370 . S
C1897 C1901 1.408 . S
C1898 C1896 1.363 . S
C1898 C1899 1.370 . S
C1898 C1902 1.524 . S
C1899 C1891 1.503 1_556 S
C1899 C1898 1.370 . S
C1899 C1900 1.403 . S
C1900 C1899 1.403 . S
C1900 C1901 1.404 . S
C1900 C1903 1.539 . S
C1901 C1897 1.408 . S
C1901 C1900 1.404 . S
C1901 H1913 0.930 . S
C1902 C1898 1.524 . S
C1902 H1914 0.956 . S
C1902 H1915 0.961 1_556 S
C1902 H1916 0.961 . S
C1903 C1900 1.539 . S
C1903 H1917 0.958 . S
C1903 H1918 0.961 . S
C1903 H1919 0.971 . S
H1904 C1888 0.931 . S
H1905 C1893 0.929 . S
H1906 C1894 0.960 1_556 S
H1907 C1894 0.962 . S
H1908 C1894 0.960 . S
H1909 C1895 0.961 . S
H1910 C1895 0.961 1_556 S
H1911 C1895 0.961 . S
H1912 C1896 0.931 . S
H1913 C1901 0.930 . S
H1914 C1902 0.956 . S
H1915 C1902 0.961 1_554 S
H1916 C1902 0.961 . S
H1917 C1903 0.958 . S
H1918 C1903 0.961 . S
H1919 C1903 0.971 . S
C1920 C1921 1.391 . S
C1920 C1922 1.394 . S
C1920 H1936 0.931 . S
C1921 C1920 1.391 . S
C1921 C1925 1.376 . S
C1922 C1920 1.394 . S
C1922 C1923 1.369 . S
C1922 C1926 1.531 . S
C1923 C1922 1.369 . S
C1923 C1924 1.410 . S
C1923 C1931 1.503 1_556 S
C1924 C1923 1.410 . S
C1924 C1925 1.392 . S
C1924 C1927 1.511 . S
C1925 C1921 1.376 . S
C1925 C1924 1.392 . S
C1925 H1937 0.929 . S
C1926 C1922 1.531 . S
C1926 H1938 0.960 1_556 S
C1926 H1939 0.962 . S
C1926 H1940 0.960 . S
C1927 C1924 1.511 . S
C1927 H1941 0.961 . S
C1927 H1942 0.961 1_556 S
C1927 H1943 0.961 . S
C1928 C1929 1.370 . S
C1928 C1930 1.363 . S
C1928 H1944 0.931 . S
C1929 C1928 1.370 . S
C1929 C1933 1.408 . S
C1930 C1928 1.363 . S
C1930 C1931 1.370 . S
C1930 C1934 1.524 . S
C1931 C1923 1.503 1_554 S
C1931 C1930 1.370 . S
C1931 C1932 1.403 . S
C1932 C1931 1.403 . S
C1932 C1933 1.404 . S
C1932 C1935 1.539 . S
C1933 C1929 1.408 . S
C1933 C1932 1.404 . S
C1933 H1945 0.930 . S
C1934 C1930 1.524 . S
C1934 H1946 0.956 . S
C1934 H1947 0.961 1_554 S
C1934 H1948 0.961 . S
C1935 C1932 1.539 . S
C1935 H1949 0.958 . S
C1935 H1950 0.961 . S
C1935 H1951 0.971 . S
H1936 C1920 0.931 . S
H1937 C1925 0.929 . S
H1938 C1926 0.960 1_554 S
H1939 C1926 0.962 . S
H1940 C1926 0.960 . S
H1941 C1927 0.961 . S
H1942 C1927 0.961 1_554 S
H1943 C1927 0.961 . S
H1944 C1928 0.931 . S
H1945 C1933 0.930 . S
H1946 C1934 0.956 . S
H1947 C1934 0.961 1_556 S
H1948 C1934 0.961 . S
H1949 C1935 0.958 . S
H1950 C1935 0.961 . S
H1951 C1935 0.971 . S
C1952 C1953 1.391 . S
C1952 C1954 1.394 . S
C1952 H1968 0.931 . S
C1953 C1952 1.391 . S
C1953 C1957 1.376 . S
C1954 C1952 1.394 . S
C1954 C1955 1.369 . S
C1954 C1958 1.531 . S
C1955 C1954 1.369 . S
C1955 C1956 1.410 . S
C1955 C1963 1.503 1_556 S
C1956 C1955 1.410 . S
C1956 C1957 1.392 . S
C1956 C1959 1.511 . S
C1957 C1953 1.376 . S
C1957 C1956 1.392 . S
C1957 H1969 0.929 . S
C1958 C1954 1.531 . S
C1958 H1970 0.960 1_556 S
C1958 H1971 0.962 . S
C1958 H1972 0.960 . S
C1959 C1956 1.511 . S
C1959 H1973 0.961 . S
C1959 H1974 0.961 1_556 S
C1959 H1975 0.961 . S
C1960 C1961 1.370 . S
C1960 C1962 1.363 . S
C1960 H1976 0.931 . S
C1961 C1960 1.370 . S
C1961 C1965 1.408 . S
C1962 C1960 1.363 . S
C1962 C1963 1.370 . S
C1962 C1966 1.524 . S
C1963 C1955 1.503 1_554 S
C1963 C1962 1.370 . S
C1963 C1964 1.403 . S
C1964 C1963 1.403 . S
C1964 C1965 1.404 . S
C1964 C1967 1.539 . S
C1965 C1961 1.408 . S
C1965 C1964 1.404 . S
C1965 H1977 0.930 . S
C1966 C1962 1.524 . S
C1966 H1978 0.956 . S
C1966 H1979 0.961 1_554 S
C1966 H1980 0.961 . S
C1967 C1964 1.539 . S
C1967 H1981 0.958 . S
C1967 H1982 0.961 . S
C1967 H1983 0.971 . S
H1968 C1952 0.931 . S
H1969 C1957 0.929 . S
H1970 C1958 0.960 1_554 S
H1971 C1958 0.962 . S
H1972 C1958 0.960 . S
H1973 C1959 0.961 . S
H1974 C1959 0.961 1_554 S
H1975 C1959 0.961 . S
H1976 C1960 0.931 . S
H1977 C1965 0.930 . S
H1978 C1966 0.956 . S
H1979 C1966 0.961 1_556 S
H1980 C1966 0.961 . S
H1981 C1967 0.958 . S
H1982 C1967 0.961 . S
H1983 C1967 0.971 . S
C1984 C1985 1.391 . S
C1984 C1986 1.394 . S
C1984 H2000 0.931 . S
C1985 C1984 1.391 . S
C1985 C1989 1.376 . S
C1986 C1984 1.394 . S
C1986 C1987 1.369 . S
C1986 C1990 1.531 . S
C1987 C1986 1.369 . S
C1987 C1988 1.410 . S
C1987 C1995 1.503 . S
C1988 C1987 1.410 . S
C1988 C1989 1.392 . S
C1988 C1991 1.511 . S
C1989 C1985 1.376 . S
C1989 C1988 1.392 . S
C1989 H2001 0.929 . S
C1990 C1986 1.531 . S
C1990 H2002 0.960 . S
C1990 H2003 0.962 . S
C1990 H2004 0.960 . S
C1991 C1988 1.511 . S
C1991 H2005 0.961 . S
C1991 H2006 0.961 . S
C1991 H2007 0.961 . S
C1992 C1993 1.370 . S
C1992 C1994 1.363 . S
C1992 H2008 0.931 . S
C1993 C1992 1.370 . S
C1993 C1997 1.408 . S
C1994 C1992 1.363 . S
C1994 C1995 1.370 . S
C1994 C1998 1.524 . S
C1995 C1987 1.503 . S
C1995 C1994 1.370 . S
C1995 C1996 1.403 . S
C1996 C1995 1.403 . S
C1996 C1997 1.404 . S
C1996 C1999 1.539 . S
C1997 C1993 1.408 . S
C1997 C1996 1.404 . S
C1997 H2009 0.930 . S
C1998 C1994 1.524 . S
C1998 H2010 0.956 . S
C1998 H2011 0.961 . S
C1998 H2012 0.961 . S
C1999 C1996 1.539 . S
C1999 H2013 0.958 . S
C1999 H2014 0.961 . S
C1999 H2015 0.960 . S
H2000 C1984 0.931 . S
H2001 C1989 0.929 . S
H2002 C1990 0.960 . S
H2003 C1990 0.962 . S
H2004 C1990 0.960 . S
H2005 C1991 0.961 . S
H2006 C1991 0.961 . S
H2007 C1991 0.961 . S
H2008 C1992 0.931 . S
H2009 C1997 0.930 . S
H2010 C1998 0.956 . S
H2011 C1998 0.961 . S
H2012 C1998 0.961 . S
H2013 C1999 0.958 . S
H2014 C1999 0.961 . S
H2015 C1999 0.960 . S
C2016 C2017 1.391 . S
C2016 C2018 1.394 . S
C2016 H2032 0.931 . S
C2017 C2016 1.391 . S
C2017 C2021 1.376 . S
C2018 C2016 1.394 . S
C2018 C2019 1.369 . S
C2018 C2022 1.531 . S
C2019 C2018 1.369 . S
C2019 C2020 1.410 . S
C2019 C2027 1.503 . S
C2020 C2019 1.410 . S
C2020 C2021 1.392 . S
C2020 C2023 1.511 . S
C2021 C2017 1.376 . S
C2021 C2020 1.392 . S
C2021 H2033 0.929 . S
C2022 C2018 1.531 . S
C2022 H2034 0.960 . S
C2022 H2035 0.962 . S
C2022 H2036 0.960 . S
C2023 C2020 1.511 . S
C2023 H2037 0.961 . S
C2023 H2038 0.961 . S
C2023 H2039 0.961 . S
C2024 C2025 1.370 . S
C2024 C2026 1.363 . S
C2024 H2040 0.931 . S
C2025 C2024 1.370 . S
C2025 C2029 1.408 . S
C2026 C2024 1.363 . S
C2026 C2027 1.370 . S
C2026 C2030 1.524 . S
C2027 C2019 1.503 . S
C2027 C2026 1.370 . S
C2027 C2028 1.403 . S
C2028 C2027 1.403 . S
C2028 C2029 1.404 . S
C2028 C2031 1.539 . S
C2029 C2025 1.408 . S
C2029 C2028 1.404 . S
C2029 H2041 0.930 . S
C2030 C2026 1.524 . S
C2030 H2042 0.956 . S
C2030 H2043 0.961 . S
C2030 H2044 0.961 . S
C2031 C2028 1.539 . S
C2031 H2045 0.958 . S
C2031 H2046 0.961 . S
C2031 H2047 0.960 . S
H2032 C2016 0.931 . S
H2033 C2021 0.929 . S
H2034 C2022 0.960 . S
H2035 C2022 0.962 . S
H2036 C2022 0.960 . S
H2037 C2023 0.961 . S
H2038 C2023 0.961 . S
H2039 C2023 0.961 . S
H2040 C2024 0.931 . S
H2041 C2029 0.930 . S
H2042 C2030 0.956 . S
H2043 C2030 0.961 . S
H2044 C2030 0.961 . S
H2045 C2031 0.958 . S
H2046 C2031 0.961 . S
H2047 C2031 0.960 . S
C2048 C2049 1.391 . S
C2048 C2050 1.394 . S
C2048 H2064 0.931 . S
C2049 C2048 1.391 . S
C2049 C2053 1.376 . S
C2050 C2048 1.394 . S
C2050 C2051 1.369 . S
C2050 C2054 1.531 . S
C2051 C2050 1.369 . S
C2051 C2052 1.410 . S
C2051 C2059 1.503 . S
C2052 C2051 1.410 . S
C2052 C2053 1.392 . S
C2052 C2055 1.511 . S
C2053 C2049 1.376 . S
C2053 C2052 1.392 . S
C2053 H2065 0.929 . S
C2054 C2050 1.531 . S
C2054 H2066 0.960 . S
C2054 H2067 0.962 . S
C2054 H2068 0.960 . S
C2055 C2052 1.511 . S
C2055 H2069 0.961 . S
C2055 H2070 0.961 . S
C2055 H2071 0.961 . S
C2056 C2057 1.370 . S
C2056 C2058 1.363 . S
C2056 H2072 0.931 . S
C2057 C2056 1.370 . S
C2057 C2061 1.408 . S
C2058 C2056 1.363 . S
C2058 C2059 1.370 . S
C2058 C2062 1.524 . S
C2059 C2051 1.503 . S
C2059 C2058 1.370 . S
C2059 C2060 1.403 . S
C2060 C2059 1.403 . S
C2060 C2061 1.404 . S
C2060 C2063 1.539 . S
C2061 C2057 1.408 . S
C2061 C2060 1.404 . S
C2061 H2073 0.930 . S
C2062 C2058 1.524 . S
C2062 H2074 0.956 . S
C2062 H2075 0.961 . S
C2062 H2076 0.961 . S
C2063 C2060 1.539 . S
C2063 H2077 0.958 . S
C2063 H2078 0.961 . S
C2063 H2079 0.960 . S
H2064 C2048 0.931 . S
H2065 C2053 0.929 . S
H2066 C2054 0.960 . S
H2067 C2054 0.962 . S
H2068 C2054 0.960 . S
H2069 C2055 0.961 . S
H2070 C2055 0.961 . S
H2071 C2055 0.961 . S
H2072 C2056 0.931 . S
H2073 C2061 0.930 . S
H2074 C2062 0.956 . S
H2075 C2062 0.961 . S
H2076 C2062 0.961 . S
H2077 C2063 0.958 . S
H2078 C2063 0.961 . S
H2079 C2063 0.960 . S
C2080 C2081 1.391 . S
C2080 C2082 1.394 . S
C2080 H2096 0.931 . S
C2081 C2080 1.391 . S
C2081 C2085 1.376 . S
C2082 C2080 1.394 . S
C2082 C2083 1.369 . S
C2082 C2086 1.531 . S
C2083 C2082 1.369 . S
C2083 C2084 1.410 . S
C2083 C2091 1.503 . S
C2084 C2083 1.410 . S
C2084 C2085 1.392 . S
C2084 C2087 1.511 . S
C2085 C2081 1.376 . S
C2085 C2084 1.392 . S
C2085 H2097 0.929 . S
C2086 C2082 1.531 . S
C2086 H2098 0.960 . S
C2086 H2099 0.962 . S
C2086 H2100 0.960 . S
C2087 C2084 1.511 . S
C2087 H2101 0.961 . S
C2087 H2102 0.961 . S
C2087 H2103 0.961 . S
C2088 C2089 1.370 . S
C2088 C2090 1.363 . S
C2088 H2104 0.931 . S
C2089 C2088 1.370 . S
C2089 C2093 1.408 . S
C2090 C2088 1.363 . S
C2090 C2091 1.370 . S
C2090 C2094 1.524 . S
C2091 C2083 1.503 . S
C2091 C2090 1.370 . S
C2091 C2092 1.403 . S
C2092 C2091 1.403 . S
C2092 C2093 1.404 . S
C2092 C2095 1.539 . S
C2093 C2089 1.408 . S
C2093 C2092 1.404 . S
C2093 H2105 0.930 . S
C2094 C2090 1.524 . S
C2094 H2106 0.956 . S
C2094 H2107 0.961 . S
C2094 H2108 0.961 . S
C2095 C2092 1.539 . S
C2095 H2109 0.958 . S
C2095 H2110 0.961 . S
C2095 H2111 0.960 . S
H2096 C2080 0.931 . S
H2097 C2085 0.929 . S
H2098 C2086 0.960 . S
H2099 C2086 0.962 . S
H2100 C2086 0.960 . S
H2101 C2087 0.961 . S
H2102 C2087 0.961 . S
H2103 C2087 0.961 . S
H2104 C2088 0.931 . S
H2105 C2093 0.930 . S
H2106 C2094 0.956 . S
H2107 C2094 0.961 . S
H2108 C2094 0.961 . S
H2109 C2095 0.958 . S
H2110 C2095 0.961 . S
H2111 C2095 0.960 . S
C2112 C2113 1.391 . S
C2112 C2114 1.394 . S
C2112 H2128 0.931 . S
C2113 C2112 1.391 . S
C2113 C2117 1.376 . S
C2114 C2112 1.394 . S
C2114 C2115 1.369 . S
C2114 C2118 1.531 . S
C2115 C2114 1.369 . S
C2115 C2116 1.410 . S
C2115 C2123 1.503 . S
C2116 C2115 1.410 . S
C2116 C2117 1.392 . S
C2116 C2119 1.511 . S
C2117 C2113 1.376 . S
C2117 C2116 1.392 . S
C2117 H2129 0.929 . S
C2118 C2114 1.531 . S
C2118 H2130 0.960 . S
C2118 H2131 0.962 . S
C2118 H2132 0.960 . S
C2119 C2116 1.511 . S
C2119 H2133 0.961 . S
C2119 H2134 0.961 . S
C2119 H2135 0.961 . S
C2120 C2121 1.370 . S
C2120 C2122 1.363 . S
C2120 H2136 0.931 . S
C2121 C2120 1.370 . S
C2121 C2125 1.408 . S
C2122 C2120 1.363 . S
C2122 C2123 1.370 . S
C2122 C2126 1.524 . S
C2123 C2115 1.503 . S
C2123 C2122 1.370 . S
C2123 C2124 1.403 . S
C2124 C2123 1.403 . S
C2124 C2125 1.404 . S
C2124 C2127 1.539 . S
C2125 C2121 1.408 . S
C2125 C2124 1.404 . S
C2125 H2137 0.930 . S
C2126 C2122 1.524 . S
C2126 H2138 0.956 . S
C2126 H2139 0.961 . S
C2126 H2140 0.961 . S
C2127 C2124 1.539 . S
C2127 H2141 0.958 . S
C2127 H2142 0.961 . S
C2127 H2143 0.960 . S
H2128 C2112 0.931 . S
H2129 C2117 0.929 . S
H2130 C2118 0.960 . S
H2131 C2118 0.962 . S
H2132 C2118 0.960 . S
H2133 C2119 0.961 . S
H2134 C2119 0.961 . S
H2135 C2119 0.961 . S
H2136 C2120 0.931 . S
H2137 C2125 0.930 . S
H2138 C2126 0.956 . S
H2139 C2126 0.961 . S
H2140 C2126 0.961 . S
H2141 C2127 0.958 . S
H2142 C2127 0.961 . S
H2143 C2127 0.960 . S
C2144 C2145 1.391 . S
C2144 C2146 1.394 . S
C2144 H2160 0.931 . S
C2145 C2144 1.391 . S
C2145 C2149 1.376 . S
C2146 C2144 1.394 . S
C2146 C2147 1.369 . S
C2146 C2150 1.531 . S
C2147 C2146 1.369 . S
C2147 C2148 1.410 . S
C2147 C2155 1.503 . S
C2148 C2147 1.410 . S
C2148 C2149 1.392 . S
C2148 C2151 1.511 . S
C2149 C2145 1.376 . S
C2149 C2148 1.392 . S
C2149 H2161 0.929 . S
C2150 C2146 1.531 . S
C2150 H2162 0.960 . S
C2150 H2163 0.962 . S
C2150 H2164 0.960 . S
C2151 C2148 1.511 . S
C2151 H2165 0.961 . S
C2151 H2166 0.961 . S
C2151 H2167 0.961 . S
C2152 C2153 1.370 . S
C2152 C2154 1.363 . S
C2152 H2168 0.931 . S
C2153 C2152 1.370 . S
C2153 C2157 1.408 . S
C2154 C2152 1.363 . S
C2154 C2155 1.370 . S
C2154 C2158 1.524 . S
C2155 C2147 1.503 . S
C2155 C2154 1.370 . S
C2155 C2156 1.403 . S
C2156 C2155 1.403 . S
C2156 C2157 1.404 . S
C2156 C2159 1.539 . S
C2157 C2153 1.408 . S
C2157 C2156 1.404 . S
C2157 H2169 0.930 . S
C2158 C2154 1.524 . S
C2158 H2170 0.956 . S
C2158 H2171 0.961 . S
C2158 H2172 0.961 . S
C2159 C2156 1.539 . S
C2159 H2173 0.958 . S
C2159 H2174 0.961 . S
C2159 H2175 0.960 . S
H2160 C2144 0.931 . S
H2161 C2149 0.929 . S
H2162 C2150 0.960 . S
H2163 C2150 0.962 . S
H2164 C2150 0.960 . S
H2165 C2151 0.961 . S
H2166 C2151 0.961 . S
H2167 C2151 0.961 . S
H2168 C2152 0.931 . S
H2169 C2157 0.930 . S
H2170 C2158 0.956 . S
H2171 C2158 0.961 . S
H2172 C2158 0.961 . S
H2173 C2159 0.958 . S
H2174 C2159 0.961 . S
H2175 C2159 0.960 . S
C2176 C2177 1.391 . S
C2176 C2178 1.394 . S
C2176 H2192 0.931 . S
C2177 C2176 1.391 . S
C2177 C2181 1.376 . S
C2178 C2176 1.394 . S
C2178 C2179 1.369 . S
C2178 C2182 1.531 . S
C2179 C2178 1.369 . S
C2179 C2180 1.410 . S
C2179 C2187 1.503 . S
C2180 C2179 1.410 . S
C2180 C2181 1.392 . S
C2180 C2183 1.511 . S
C2181 C2177 1.376 . S
C2181 C2180 1.392 . S
C2181 H2193 0.929 . S
C2182 C2178 1.531 . S
C2182 H2194 0.960 . S
C2182 H2195 0.962 . S
C2182 H2196 0.960 . S
C2183 C2180 1.511 . S
C2183 H2197 0.961 . S
C2183 H2198 0.961 . S
C2183 H2199 0.961 . S
C2184 C2185 1.370 . S
C2184 C2186 1.363 . S
C2184 H2200 0.931 . S
C2185 C2184 1.370 . S
C2185 C2189 1.408 . S
C2186 C2184 1.363 . S
C2186 C2187 1.370 . S
C2186 C2190 1.524 . S
C2187 C2179 1.503 . S
C2187 C2186 1.370 . S
C2187 C2188 1.403 . S
C2188 C2187 1.403 . S
C2188 C2189 1.404 . S
C2188 C2191 1.539 . S
C2189 C2185 1.408 . S
C2189 C2188 1.404 . S
C2189 H2201 0.930 . S
C2190 C2186 1.524 . S
C2190 H2202 0.956 . S
C2190 H2203 0.961 . S
C2190 H2204 0.961 . S
C2191 C2188 1.539 . S
C2191 H2205 0.958 . S
C2191 H2206 0.961 . S
C2191 H2207 0.960 . S
H2192 C2176 0.931 . S
H2193 C2181 0.929 . S
H2194 C2182 0.960 . S
H2195 C2182 0.962 . S
H2196 C2182 0.960 . S
H2197 C2183 0.961 . S
H2198 C2183 0.961 . S
H2199 C2183 0.961 . S
H2200 C2184 0.931 . S
H2201 C2189 0.930 . S
H2202 C2190 0.956 . S
H2203 C2190 0.961 . S
H2204 C2190 0.961 . S
H2205 C2191 0.958 . S
H2206 C2191 0.961 . S
H2207 C2191 0.960 . S
C2208 C2209 1.391 . S
C2208 C2210 1.394 . S
C2208 H2224 0.931 . S
C2209 C2208 1.391 . S
C2209 C2213 1.376 . S
C2210 C2208 1.394 . S
C2210 C2211 1.369 . S
C2210 C2214 1.531 . S
C2211 C2210 1.369 . S
C2211 C2212 1.410 . S
C2211 C2219 1.503 . S
C2212 C2211 1.410 . S
C2212 C2213 1.392 . S
C2212 C2215 1.511 . S
C2213 C2209 1.376 . S
C2213 C2212 1.392 . S
C2213 H2225 0.929 . S
C2214 C2210 1.531 . S
C2214 H2226 0.960 . S
C2214 H2227 0.962 . S
C2214 H2228 0.960 . S
C2215 C2212 1.511 . S
C2215 H2229 0.961 . S
C2215 H2230 0.961 . S
C2215 H2231 0.961 . S
C2216 C2217 1.370 . S
C2216 C2218 1.363 . S
C2216 H2232 0.931 . S
C2217 C2216 1.370 . S
C2217 C2221 1.408 . S
C2218 C2216 1.363 . S
C2218 C2219 1.370 . S
C2218 C2222 1.524 . S
C2219 C2211 1.503 . S
C2219 C2218 1.370 . S
C2219 C2220 1.403 . S
C2220 C2219 1.403 . S
C2220 C2221 1.404 . S
C2220 C2223 1.539 . S
C2221 C2217 1.408 . S
C2221 C2220 1.404 . S
C2221 H2233 0.930 . S
C2222 C2218 1.524 . S
C2222 H2234 0.956 . S
C2222 H2235 0.961 . S
C2222 H2236 0.961 . S
C2223 C2220 1.539 . S
C2223 H2237 0.958 . S
C2223 H2238 0.961 . S
C2223 H2239 0.960 . S
H2224 C2208 0.931 . S
H2225 C2213 0.929 . S
H2226 C2214 0.960 . S
H2227 C2214 0.962 . S
H2228 C2214 0.960 . S
H2229 C2215 0.961 . S
H2230 C2215 0.961 . S
H2231 C2215 0.961 . S
H2232 C2216 0.931 . S
H2233 C2221 0.930 . S
H2234 C2222 0.956 . S
H2235 C2222 0.961 . S
H2236 C2222 0.961 . S
H2237 C2223 0.958 . S
H2238 C2223 0.961 . S
H2239 C2223 0.960 . S
C2240 C2241 1.391 . S
C2240 C2242 1.394 . S
C2240 H2256 0.931 . S
C2241 C2240 1.391 . S
C2241 C2245 1.376 . S
C2242 C2240 1.394 . S
C2242 C2243 1.369 . S
C2242 C2246 1.531 . S
C2243 C2242 1.369 . S
C2243 C2244 1.410 . S
C2243 C2251 1.503 . S
C2244 C2243 1.410 . S
C2244 C2245 1.392 . S
C2244 C2247 1.511 . S
C2245 C2241 1.376 . S
C2245 C2244 1.392 . S
C2245 H2257 0.929 . S
C2246 C2242 1.531 . S
C2246 H2258 0.960 . S
C2246 H2259 0.962 . S
C2246 H2260 0.960 . S
C2247 C2244 1.511 . S
C2247 H2261 0.961 . S
C2247 H2262 0.961 . S
C2247 H2263 0.961 . S
C2248 C2249 1.370 . S
C2248 C2250 1.363 . S
C2248 H2264 0.931 . S
C2249 C2248 1.370 . S
C2249 C2253 1.408 . S
C2250 C2248 1.363 . S
C2250 C2251 1.370 . S
C2250 C2254 1.524 . S
C2251 C2243 1.503 . S
C2251 C2250 1.370 . S
C2251 C2252 1.403 . S
C2252 C2251 1.403 . S
C2252 C2253 1.404 . S
C2252 C2255 1.539 . S
C2253 C2249 1.408 . S
C2253 C2252 1.404 . S
C2253 H2265 0.930 . S
C2254 C2250 1.524 . S
C2254 H2266 0.956 . S
C2254 H2267 0.961 . S
C2254 H2268 0.961 . S
C2255 C2252 1.539 . S
C2255 H2269 0.958 . S
C2255 H2270 0.961 . S
C2255 H2271 0.960 . S
H2256 C2240 0.931 . S
H2257 C2245 0.929 . S
H2258 C2246 0.960 . S
H2259 C2246 0.962 . S
H2260 C2246 0.960 . S
H2261 C2247 0.961 . S
H2262 C2247 0.961 . S
H2263 C2247 0.961 . S
H2264 C2248 0.931 . S
H2265 C2253 0.930 . S
H2266 C2254 0.956 . S
H2267 C2254 0.961 . S
H2268 C2254 0.961 . S
H2269 C2255 0.958 . S
H2270 C2255 0.961 . S
H2271 C2255 0.960 . S
C2272 C2273 1.391 . S
C2272 C2274 1.394 . S
C2272 H2288 0.931 . S
C2273 C2272 1.391 . S
C2273 C2277 1.376 . S
C2274 C2272 1.394 . S
C2274 C2275 1.369 . S
C2274 C2278 1.531 . S
C2275 C2274 1.369 . S
C2275 C2276 1.410 . S
C2275 C2283 1.503 . S
C2276 C2275 1.410 . S
C2276 C2277 1.392 . S
C2276 C2279 1.511 . S
C2277 C2273 1.376 . S
C2277 C2276 1.392 . S
C2277 H2289 0.929 . S
C2278 C2274 1.531 . S
C2278 H2290 0.960 . S
C2278 H2291 0.962 . S
C2278 H2292 0.960 . S
C2279 C2276 1.511 . S
C2279 H2293 0.961 . S
C2279 H2294 0.961 . S
C2279 H2295 0.961 . S
C2280 C2281 1.370 . S
C2280 C2282 1.363 . S
C2280 H2296 0.931 . S
C2281 C2280 1.370 . S
C2281 C2285 1.408 . S
C2282 C2280 1.363 . S
C2282 C2283 1.370 . S
C2282 C2286 1.524 . S
C2283 C2275 1.503 . S
C2283 C2282 1.370 . S
C2283 C2284 1.403 . S
C2284 C2283 1.403 . S
C2284 C2285 1.404 . S
C2284 C2287 1.539 . S
C2285 C2281 1.408 . S
C2285 C2284 1.404 . S
C2285 H2297 0.930 . S
C2286 C2282 1.524 . S
C2286 H2298 0.956 . S
C2286 H2299 0.961 . S
C2286 H2300 0.961 . S
C2287 C2284 1.539 . S
C2287 H2301 0.958 . S
C2287 H2302 0.961 . S
C2287 H2303 0.960 . S
H2288 C2272 0.931 . S
H2289 C2277 0.929 . S
H2290 C2278 0.960 . S
H2291 C2278 0.962 . S
H2292 C2278 0.960 . S
H2293 C2279 0.961 . S
H2294 C2279 0.961 . S
H2295 C2279 0.961 . S
H2296 C2280 0.931 . S
H2297 C2285 0.930 . S
H2298 C2286 0.956 . S
H2299 C2286 0.961 . S
H2300 C2286 0.961 . S
H2301 C2287 0.958 . S
H2302 C2287 0.961 . S
H2303 C2287 0.960 . S
C2304 C2305 1.391 . S
C2304 C2306 1.394 . S
C2304 H2320 0.931 . S
C2305 C2304 1.391 . S
C2305 C2309 1.376 . S
C2306 C2304 1.394 . S
C2306 C2307 1.369 . S
C2306 C2310 1.531 . S
C2307 C2306 1.369 . S
C2307 C2308 1.410 . S
C2307 C2315 1.503 . S
C2308 C2307 1.410 . S
C2308 C2309 1.392 . S
C2308 C2311 1.511 . S
C2309 C2305 1.376 . S
C2309 C2308 1.392 . S
C2309 H2321 0.929 . S
C2310 C2306 1.531 . S
C2310 H2322 0.960 . S
C2310 H2323 0.962 . S
C2310 H2324 0.960 . S
C2311 C2308 1.511 . S
C2311 H2325 0.961 . S
C2311 H2326 0.961 . S
C2311 H2327 0.961 . S
C2312 C2313 1.370 . S
C2312 C2314 1.363 . S
C2312 H2328 0.931 . S
C2313 C2312 1.370 . S
C2313 C2317 1.408 . S
C2314 C2312 1.363 . S
C2314 C2315 1.370 . S
C2314 C2318 1.524 . S
C2315 C2307 1.503 . S
C2315 C2314 1.370 . S
C2315 C2316 1.403 . S
C2316 C2315 1.403 . S
C2316 C2317 1.404 . S
C2316 C2319 1.539 . S
C2317 C2313 1.408 . S
C2317 C2316 1.404 . S
C2317 H2329 0.930 . S
C2318 C2314 1.524 . S
C2318 H2330 0.956 . S
C2318 H2331 0.961 . S
C2318 H2332 0.961 . S
C2319 C2316 1.539 . S
C2319 H2333 0.958 . S
C2319 H2334 0.961 . S
C2319 H2335 0.960 . S
H2320 C2304 0.931 . S
H2321 C2309 0.929 . S
H2322 C2310 0.960 . S
H2323 C2310 0.962 . S
H2324 C2310 0.960 . S
H2325 C2311 0.961 . S
H2326 C2311 0.961 . S
H2327 C2311 0.961 . S
H2328 C2312 0.931 . S
H2329 C2317 0.930 . S
H2330 C2318 0.956 . S
H2331 C2318 0.961 . S
H2332 C2318 0.961 . S
H2333 C2319 0.958 . S
H2334 C2319 0.961 . S
H2335 C2319 0.960 . S
C2336 C2337 1.391 . S
C2336 C2338 1.394 . S
C2336 H2352 0.931 . S
C2337 C2336 1.391 . S
C2337 C2341 1.376 . S
C2338 C2336 1.394 . S
C2338 C2339 1.369 . S
C2338 C2342 1.531 . S
C2339 C2338 1.369 . S
C2339 C2340 1.410 . S
C2339 C2347 1.503 . S
C2340 C2339 1.410 . S
C2340 C2341 1.392 . S
C2340 C2343 1.511 . S
C2341 C2337 1.376 . S
C2341 C2340 1.392 . S
C2341 H2353 0.929 . S
C2342 C2338 1.531 . S
C2342 H2354 0.960 . S
C2342 H2355 0.962 . S
C2342 H2356 0.960 . S
C2343 C2340 1.511 . S
C2343 H2357 0.961 . S
C2343 H2358 0.961 . S
C2343 H2359 0.961 . S
C2344 C2345 1.370 . S
C2344 C2346 1.363 . S
C2344 H2360 0.931 . S
C2345 C2344 1.370 . S
C2345 C2349 1.408 . S
C2346 C2344 1.363 . S
C2346 C2347 1.370 . S
C2346 C2350 1.524 . S
C2347 C2339 1.503 . S
C2347 C2346 1.370 . S
C2347 C2348 1.403 . S
C2348 C2347 1.403 . S
C2348 C2349 1.404 . S
C2348 C2351 1.539 . S
C2349 C2345 1.408 . S
C2349 C2348 1.404 . S
C2349 H2361 0.930 . S
C2350 C2346 1.524 . S
C2350 H2362 0.956 . S
C2350 H2363 0.961 . S
C2350 H2364 0.961 . S
C2351 C2348 1.539 . S
C2351 H2365 0.958 . S
C2351 H2366 0.961 . S
C2351 H2367 0.960 . S
H2352 C2336 0.931 . S
H2353 C2341 0.929 . S
H2354 C2342 0.960 . S
H2355 C2342 0.962 . S
H2356 C2342 0.960 . S
H2357 C2343 0.961 . S
H2358 C2343 0.961 . S
H2359 C2343 0.961 . S
H2360 C2344 0.931 . S
H2361 C2349 0.930 . S
H2362 C2350 0.956 . S
H2363 C2350 0.961 . S
H2364 C2350 0.961 . S
H2365 C2351 0.958 . S
H2366 C2351 0.961 . S
H2367 C2351 0.960 . S
C2368 C2369 1.391 . S
C2368 C2370 1.394 . S
C2368 H2384 0.931 . S
C2369 C2368 1.391 . S
C2369 C2373 1.376 . S
C2370 C2368 1.394 . S
C2370 C2371 1.369 . S
C2370 C2374 1.531 . S
C2371 C2370 1.369 . S
C2371 C2372 1.410 . S
C2371 C2379 1.503 . S
C2372 C2371 1.410 . S
C2372 C2373 1.392 . S
C2372 C2375 1.511 . S
C2373 C2369 1.376 . S
C2373 C2372 1.392 . S
C2373 H2385 0.929 . S
C2374 C2370 1.531 . S
C2374 H2386 0.960 . S
C2374 H2387 0.962 . S
C2374 H2388 0.960 . S
C2375 C2372 1.511 . S
C2375 H2389 0.961 . S
C2375 H2390 0.961 . S
C2375 H2391 0.961 . S
C2376 C2377 1.370 . S
C2376 C2378 1.363 . S
C2376 H2392 0.931 . S
C2377 C2376 1.370 . S
C2377 C2381 1.408 . S
C2378 C2376 1.363 . S
C2378 C2379 1.370 . S
C2378 C2382 1.524 . S
C2379 C2371 1.503 . S
C2379 C2378 1.370 . S
C2379 C2380 1.403 . S
C2380 C2379 1.403 . S
C2380 C2381 1.404 . S
C2380 C2383 1.539 . S
C2381 C2377 1.408 . S
C2381 C2380 1.404 . S
C2381 H2393 0.930 . S
C2382 C2378 1.524 . S
C2382 H2394 0.956 . S
C2382 H2395 0.961 . S
C2382 H2396 0.961 . S
C2383 C2380 1.539 . S
C2383 H2397 0.958 . S
C2383 H2398 0.961 . S
C2383 H2399 0.960 . S
H2384 C2368 0.931 . S
H2385 C2373 0.929 . S
H2386 C2374 0.960 . S
H2387 C2374 0.962 . S
H2388 C2374 0.960 . S
H2389 C2375 0.961 . S
H2390 C2375 0.961 . S
H2391 C2375 0.961 . S
H2392 C2376 0.931 . S
H2393 C2381 0.930 . S
H2394 C2382 0.956 . S
H2395 C2382 0.961 . S
H2396 C2382 0.961 . S
H2397 C2383 0.958 . S
H2398 C2383 0.961 . S
H2399 C2383 0.960 . S
C2400 C2401 1.391 . S
C2400 C2402 1.394 . S
C2400 H2416 0.931 . S
C2401 C2400 1.391 . S
C2401 C2405 1.376 . S
C2402 C2400 1.394 . S
C2402 C2403 1.369 . S
C2402 C2406 1.531 . S
C2403 C2402 1.369 . S
C2403 C2404 1.410 . S
C2403 C2411 1.503 . S
C2404 C2403 1.410 . S
C2404 C2405 1.392 . S
C2404 C2407 1.511 . S
C2405 C2401 1.376 . S
C2405 C2404 1.392 . S
C2405 H2417 0.929 . S
C2406 C2402 1.531 . S
C2406 H2418 0.960 . S
C2406 H2419 0.962 . S
C2406 H2420 0.960 . S
C2407 C2404 1.511 . S
C2407 H2421 0.961 . S
C2407 H2422 0.961 . S
C2407 H2423 0.961 . S
C2408 C2409 1.370 . S
C2408 C2410 1.363 . S
C2408 H2424 0.931 . S
C2409 C2408 1.370 . S
C2409 C2413 1.408 . S
C2410 C2408 1.363 . S
C2410 C2411 1.370 . S
C2410 C2414 1.524 . S
C2411 C2403 1.503 . S
C2411 C2410 1.370 . S
C2411 C2412 1.403 . S
C2412 C2411 1.403 . S
C2412 C2413 1.404 . S
C2412 C2415 1.539 . S
C2413 C2409 1.408 . S
C2413 C2412 1.404 . S
C2413 H2425 0.930 . S
C2414 C2410 1.524 . S
C2414 H2426 0.956 . S
C2414 H2427 0.961 . S
C2414 H2428 0.961 . S
C2415 C2412 1.539 . S
C2415 H2429 0.958 . S
C2415 H2430 0.961 . S
C2415 H2431 0.960 . S
H2416 C2400 0.931 . S
H2417 C2405 0.929 . S
H2418 C2406 0.960 . S
H2419 C2406 0.962 . S
H2420 C2406 0.960 . S
H2421 C2407 0.961 . S
H2422 C2407 0.961 . S
H2423 C2407 0.961 . S
H2424 C2408 0.931 . S
H2425 C2413 0.930 . S
H2426 C2414 0.956 . S
H2427 C2414 0.961 . S
H2428 C2414 0.961 . S
H2429 C2415 0.958 . S
H2430 C2415 0.961 . S
H2431 C2415 0.960 . S
C2432 C2433 1.391 . S
C2432 C2434 1.394 . S
C2432 H2448 0.931 . S
C2433 C2432 1.391 . S
C2433 C2437 1.376 . S
C2434 C2432 1.394 . S
C2434 C2435 1.369 . S
C2434 C2438 1.531 . S
C2435 C2434 1.369 . S
C2435 C2436 1.410 . S
C2435 C2443 1.503 . S
C2436 C2435 1.410 . S
C2436 C2437 1.392 . S
C2436 C2439 1.511 . S
C2437 C2433 1.376 . S
C2437 C2436 1.392 . S
C2437 H2449 0.929 . S
C2438 C2434 1.531 . S
C2438 H2450 0.960 . S
C2438 H2451 0.962 . S
C2438 H2452 0.960 . S
C2439 C2436 1.511 . S
C2439 H2453 0.961 . S
C2439 H2454 0.961 . S
C2439 H2455 0.961 . S
C2440 C2441 1.370 . S
C2440 C2442 1.363 . S
C2440 H2456 0.931 . S
C2441 C2440 1.370 . S
C2441 C2445 1.408 . S
C2442 C2440 1.363 . S
C2442 C2443 1.370 . S
C2442 C2446 1.524 . S
C2443 C2435 1.503 . S
C2443 C2442 1.370 . S
C2443 C2444 1.403 . S
C2444 C2443 1.403 . S
C2444 C2445 1.404 . S
C2444 C2447 1.539 . S
C2445 C2441 1.408 . S
C2445 C2444 1.404 . S
C2445 H2457 0.930 . S
C2446 C2442 1.524 . S
C2446 H2458 0.956 . S
C2446 H2459 0.961 . S
C2446 H2460 0.961 . S
C2447 C2444 1.539 . S
C2447 H2461 0.958 . S
C2447 H2462 0.961 . S
C2447 H2463 0.960 . S
H2448 C2432 0.931 . S
H2449 C2437 0.929 . S
H2450 C2438 0.960 . S
H2451 C2438 0.962 . S
H2452 C2438 0.960 . S
H2453 C2439 0.961 . S
H2454 C2439 0.961 . S
H2455 C2439 0.961 . S
H2456 C2440 0.931 . S
H2457 C2445 0.930 . S
H2458 C2446 0.956 . S
H2459 C2446 0.961 . S
H2460 C2446 0.961 . S
H2461 C2447 0.958 . S
H2462 C2447 0.961 . S
H2463 C2447 0.960 . S
C2464 C2465 1.391 . S
C2464 C2466 1.394 . S
C2464 H2480 0.931 . S
C2465 C2464 1.391 . S
C2465 C2469 1.376 . S
C2466 C2464 1.394 . S
C2466 C2467 1.369 . S
C2466 C2470 1.531 . S
C2467 C2466 1.369 . S
C2467 C2468 1.410 . S
C2467 C2475 1.503 . S
C2468 C2467 1.410 . S
C2468 C2469 1.392 . S
C2468 C2471 1.511 . S
C2469 C2465 1.376 . S
C2469 C2468 1.392 . S
C2469 H2481 0.929 . S
C2470 C2466 1.531 . S
C2470 H2482 0.960 . S
C2470 H2483 0.962 . S
C2470 H2484 0.960 . S
C2471 C2468 1.511 . S
C2471 H2485 0.961 . S
C2471 H2486 0.961 . S
C2471 H2487 0.961 . S
C2472 C2473 1.370 . S
C2472 C2474 1.363 . S
C2472 H2488 0.931 . S
C2473 C2472 1.370 . S
C2473 C2477 1.408 . S
C2474 C2472 1.363 . S
C2474 C2475 1.370 . S
C2474 C2478 1.524 . S
C2475 C2467 1.503 . S
C2475 C2474 1.370 . S
C2475 C2476 1.403 . S
C2476 C2475 1.403 . S
C2476 C2477 1.404 . S
C2476 C2479 1.539 . S
C2477 C2473 1.408 . S
C2477 C2476 1.404 . S
C2477 H2489 0.930 . S
C2478 C2474 1.524 . S
C2478 H2490 0.956 . S
C2478 H2491 0.961 . S
C2478 H2492 0.961 . S
C2479 C2476 1.539 . S
C2479 H2493 0.958 . S
C2479 H2494 0.961 . S
C2479 H2495 0.960 . S
H2480 C2464 0.931 . S
H2481 C2469 0.929 . S
H2482 C2470 0.960 . S
H2483 C2470 0.962 . S
H2484 C2470 0.960 . S
H2485 C2471 0.961 . S
H2486 C2471 0.961 . S
H2487 C2471 0.961 . S
H2488 C2472 0.931 . S
H2489 C2477 0.930 . S
H2490 C2478 0.956 . S
H2491 C2478 0.961 . S
H2492 C2478 0.961 . S
H2493 C2479 0.958 . S
H2494 C2479 0.961 . S
H2495 C2479 0.960 . S
C449 C219 1.484 . S
C457 C9 1.478 . S
C481 C23 1.472 . S
C489 C177 1.474 . S
C513 C37 1.464 . S
C521 C191 1.468 . S
C545 C205 1.447 . S
C553 C51 1.462 . S
C577 C65 1.459 . S
C585 C135 1.469 . S
C609 C79 1.448 . S
C617 C149 1.462 . S
C641 C163 1.454 . S
C649 C93 1.466 . S
C673 C121 1.476 . S
C681 C107 1.475 . S
C705 C233 1.465 . S
C713 C443 1.468 . S
C737 C247 1.480 . S
C745 C401 1.475 . S
C769 C261 1.450 . S
C777 C415 1.464 . S
C801 C429 1.448 . S
C809 C275 1.463 . S
C833 C289 1.472 . S
C841 C359 1.471 . S
C865 C303 1.466 . S
C873 C373 1.469 . S
C897 C387 1.454 . S
C905 C317 1.464 . S
C929 C331 1.460 . S
C937 C345 1.469 . S
C961 C176 1.430 . S
C969 C8 1.432 . S
C993 C22 1.425 . S
C1001 C190 1.430 . S
C1025 C204 1.428 . S
C1033 C36 1.431 . S
C1057 C50 1.428 . S
C1065 C218 1.431 . S
C1089 C64 1.422 . S
C1097 C120 1.428 . S
C1121 C134 1.424 . S
C1129 C78 1.429 . S
C1153 C148 1.425 . S
C1161 C92 1.429 . S
C1185 C162 1.431 . S
C1193 C106 1.432 . S
C1217 C232 1.431 . S
C1225 C400 1.432 . S
C1249 C414 1.429 . S
C1257 C246 1.431 . S
C1281 C260 1.431 . S
C1289 C428 1.432 . S
C1313 C274 1.431 . S
C1321 C442 1.432 . S
C1345 C344 1.424 . S
C1353 C288 1.429 . S
C1377 C302 1.430 . S
C1385 C358 1.431 . S
C1409 C316 1.424 . S
C1417 C372 1.429 . S
C1441 C330 1.426 . S
C1449 C386 1.430 . S
C1473 C7 1.309 . S
C1481 C147 1.303 . S
C1505 C161 1.291 . S
C1513 C21 1.296 . S
C1537 C35 1.271 . S
C1545 C119 1.285 . S
C1569 C133 1.288 . S
C1577 C49 1.291 . S
C1601 C203 1.271 . S
C1609 C63 1.287 . S
C1633 C217 1.310 . S
C1641 C77 1.301 . S
C1665 C175 1.304 . S
C1673 C91 1.298 . S
C1697 C105 1.276 . S
C1705 C189 1.289 . S
C1729 C371 1.281 . S
C1737 C231 1.291 . S
C1761 C245 1.283 . S
C1769 C385 1.290 . S
C1793 C343 1.268 . S
C1801 C259 1.285 . S
C1825 C357 1.268 . S
C1833 C273 1.285 . S
C1857 C287 1.268 . S
C1865 C427 1.285 . S
C1889 C301 1.274 . S
C1897 C441 1.288 . S
C1921 C399 1.273 . S
C1929 C315 1.286 . S
C1953 C413 1.268 . S
C1961 C329 1.285 . S
C1985 C325 1.170 . S
C1993 C3 1.197 . S
C2017 C283 1.164 . S
C2025 C17 1.204 . S
C2049 C297 1.174 . S
C2057 C31 1.206 . S
C2081 C311 1.168 . S
C2089 C45 1.206 . S
C2113 C241 1.190 . S
C2121 C59 1.203 . S
C2145 C73 1.216 . S
C2153 C255 1.191 . S
C2177 C87 1.164 . S
C2185 C269 1.205 . S
C2209 C101 1.200 . S
C2217 C227 1.200 . S
C2241 C115 1.197 . S
C2249 C437 1.184 . S
C2273 C395 1.183 . S
C2281 C129 1.187 . S
C2305 C143 1.173 . S
C2313 C409 1.191 . S
C2337 C157 1.217 . S
C2345 C423 1.193 . S
C2369 C353 1.208 . S
C2377 C171 1.200 . S
C2401 C367 1.172 . S
C2409 C185 1.192 . S
C2433 C199 1.167 . S
C2441 C381 1.195 . S
C2465 C213 1.177 . S
C2473 C339 1.206 . S
