# Generated by pormake.
# Topology ukb, (4)-cn, num edge types: 1
# Building blocks:
#     Node 0, Type 0, BuildingBlock: QUQFOY_clean_sbu_1, # of connection points: 4
#     Node 1, Type 0, BuildingBlock: QUQFOY_clean_sbu_1, # of connection points: 4
#     Node 2, Type 0, BuildingBlock: QUQFOY_clean_sbu_1, # of connection points: 4
#     Node 3, Type 0, BuildingBlock: QUQFOY_clean_sbu_1, # of connection points: 4
#     Node 4, Type 0, BuildingBlock: QUQFOY_clean_sbu_1, # of connection points: 4
#     Node 5, Type 0, BuildingBlock: QUQFOY_clean_sbu_1, # of connection points: 4
#     Node 6, Type 0, BuildingBlock: QUQFOY_clean_sbu_1, # of connection points: 4
#     Node 7, Type 0, BuildingBlock: QUQFOY_clean_sbu_1, # of connection points: 4
#     Node 8, Type 0, BuildingBlock: QUQFOY_clean_sbu_1, # of connection points: 4
#     Node 9, Type 0, BuildingBlock: QUQFOY_clean_sbu_1, # of connection points: 4
#     Node 10, Type 0, BuildingBlock: QUQFOY_clean_sbu_1, # of connection points: 4
#     Node 11, Type 0, BuildingBlock: QUQFOY_clean_sbu_1, # of connection points: 4
#     Node 12, Type 0, BuildingBlock: QUQFOY_clean_sbu_1, # of connection points: 4
#     Node 13, Type 0, BuildingBlock: QUQFOY_clean_sbu_1, # of connection points: 4
#     Node 14, Type 0, BuildingBlock: QUQFOY_clean_sbu_1, # of connection points: 4
#     Node 15, Type 0, BuildingBlock: QUQFOY_clean_sbu_1, # of connection points: 4
#     Edge 16, Type (0, 0), BuildingBlock: XIVTED_clean_linker_0, # of connection points: 2
#     Edge 17, Type (0, 0), BuildingBlock: XIVTED_clean_linker_0, # of connection points: 2
#     Edge 18, Type (0, 0), BuildingBlock: XIVTED_clean_linker_0, # of connection points: 2
#     Edge 19, Type (0, 0), BuildingBlock: XIVTED_clean_linker_0, # of connection points: 2
#     Edge 20, Type (0, 0), BuildingBlock: XIVTED_clean_linker_0, # of connection points: 2
#     Edge 21, Type (0, 0), BuildingBlock: XIVTED_clean_linker_0, # of connection points: 2
#     Edge 22, Type (0, 0), BuildingBlock: XIVTED_clean_linker_0, # of connection points: 2
#     Edge 23, Type (0, 0), BuildingBlock: XIVTED_clean_linker_0, # of connection points: 2
#     Edge 24, Type (0, 0), BuildingBlock: XIVTED_clean_linker_0, # of connection points: 2
#     Edge 25, Type (0, 0), BuildingBlock: XIVTED_clean_linker_0, # of connection points: 2
#     Edge 26, Type (0, 0), BuildingBlock: XIVTED_clean_linker_0, # of connection points: 2
#     Edge 27, Type (0, 0), BuildingBlock: XIVTED_clean_linker_0, # of connection points: 2
#     Edge 28, Type (0, 0), BuildingBlock: XIVTED_clean_linker_0, # of connection points: 2
#     Edge 29, Type (0, 0), BuildingBlock: XIVTED_clean_linker_0, # of connection points: 2
#     Edge 30, Type (0, 0), BuildingBlock: XIVTED_clean_linker_0, # of connection points: 2
#     Edge 31, Type (0, 0), BuildingBlock: XIVTED_clean_linker_0, # of connection points: 2
#     Edge 32, Type (0, 0), BuildingBlock: XIVTED_clean_linker_0, # of connection points: 2
#     Edge 33, Type (0, 0), BuildingBlock: XIVTED_clean_linker_0, # of connection points: 2
#     Edge 34, Type (0, 0), BuildingBlock: XIVTED_clean_linker_0, # of connection points: 2
#     Edge 35, Type (0, 0), BuildingBlock: XIVTED_clean_linker_0, # of connection points: 2
#     Edge 36, Type (0, 0), BuildingBlock: XIVTED_clean_linker_0, # of connection points: 2
#     Edge 37, Type (0, 0), BuildingBlock: XIVTED_clean_linker_0, # of connection points: 2
#     Edge 38, Type (0, 0), BuildingBlock: XIVTED_clean_linker_0, # of connection points: 2
#     Edge 39, Type (0, 0), BuildingBlock: XIVTED_clean_linker_0, # of connection points: 2
#     Edge 40, Type (0, 0), BuildingBlock: XIVTED_clean_linker_0, # of connection points: 2
#     Edge 41, Type (0, 0), BuildingBlock: XIVTED_clean_linker_0, # of connection points: 2
#     Edge 42, Type (0, 0), BuildingBlock: XIVTED_clean_linker_0, # of connection points: 2
#     Edge 43, Type (0, 0), BuildingBlock: XIVTED_clean_linker_0, # of connection points: 2
#     Edge 44, Type (0, 0), BuildingBlock: XIVTED_clean_linker_0, # of connection points: 2
#     Edge 45, Type (0, 0), BuildingBlock: XIVTED_clean_linker_0, # of connection points: 2
#     Edge 46, Type (0, 0), BuildingBlock: XIVTED_clean_linker_0, # of connection points: 2
#     Edge 47, Type (0, 0), BuildingBlock: XIVTED_clean_linker_0, # of connection points: 2
# Relax obj value: 0.039
# Max RMSD: 0.067
# Mean RMSD: 0.067
data_MOF--net-ukb--node1-QUQFOY_clean_sbu_1--edge1-XIVTED_clean_linker_0
_symmetry_space_group_name_H-M    P1
_symmetry_Int_Tables_number       1
_symmetry_cell_setting            triclinic
loop_
_symmetry_equiv_pos_as_xyz
'x, y, z'
_cell_length_a     45.847824
_cell_length_b     45.853866
_cell_length_c     42.953386
_cell_angle_alpha  90.002687
_cell_angle_beta   90.020719
_cell_angle_gamma 89.968949
loop_
_atom_site_label
_atom_site_type_symbol
_atom_site_fract_x
_atom_site_fract_y
_atom_site_fract_z
_atom_type_partial_charge
O0 O 0.55489 0.25008 0.19554 0.0
Cd1 Cd 0.55441 0.21295 0.16857 0.0
Cd2 Cd 0.52578 0.193 0.22475 0.0
O3 O 0.53484 0.23503 0.23947 0.0
O4 O 0.575 0.22766 0.13081 0.0
O5 O 0.52965 0.21202 0.12915 0.0
C6 C 0.55176 0.2231 0.11482 0.0
C7 C 0.47977 0.17267 0.23349 0.0
C8 C 0.54688 0.25493 0.22338 0.0
C9 C 0.58078 0.16219 0.20491 0.0
O10 O 0.55994 0.16384 0.2243 0.0
O11 O 0.58211 0.17939 0.18171 0.0
O12 O 0.498 0.17674 0.25592 0.0
O13 O 0.48734 0.18106 0.20592 0.0
O14 O 0.33393 0.55481 0.72981 0.0
Cd15 Cd 0.305 0.52075 0.72587 0.0
Cd16 Cd 0.29092 0.55297 0.66989 0.0
O17 O 0.32693 0.57676 0.68464 0.0
O18 O 0.31881 0.49247 0.75793 0.0
O19 O 0.3193 0.48287 0.70751 0.0
C20 C 0.32544 0.4749 0.73562 0.0
C21 C 0.28202 0.55019 0.61597 0.0
C22 C 0.34037 0.57476 0.71048 0.0
C23 C 0.24487 0.5454 0.72125 0.0
O24 O 0.25289 0.55637 0.69545 0.0
O25 O 0.26206 0.52937 0.73694 0.0
O26 O 0.27946 0.57419 0.63122 0.0
O27 O 0.29065 0.52746 0.63113 0.0
O28 O 0.94694 0.25337 0.19282 0.0
Cd29 Cd 0.94996 0.29189 0.16806 0.0
Cd30 Cd 0.98206 0.30499 0.22422 0.0
O31 O 0.97399 0.2618 0.23445 0.0
O32 O 0.92787 0.28109 0.12978 0.0
O33 O 0.97465 0.29199 0.12869 0.0
C34 C 0.95154 0.28369 0.11399 0.0
C35 C 0.02799 0.32556 0.23288 0.0
C36 C 0.95807 0.24484 0.21836 0.0
C37 C 0.92804 0.34052 0.20981 0.0
O38 O 0.94785 0.33364 0.22916 0.0
O39 O 0.92628 0.32768 0.18361 0.0
O40 O 0.01107 0.31855 0.25563 0.0
O41 O 0.0193 0.31973 0.20493 0.0
O42 O 0.16325 0.94379 0.72279 0.0
Cd43 Cd 0.19209 0.97816 0.72395 0.0
Cd44 Cd 0.2128 0.95007 0.66737 0.0
O45 O 0.17909 0.92231 0.6799 0.0
O46 O 0.1753 0.00554 0.75525 0.0
O47 O 0.17987 0.01664 0.7054 0.0
C48 C 0.17116 0.02389 0.73295 0.0
C49 C 0.2238 0.95249 0.61378 0.0
C50 C 0.16178 0.92324 0.70303 0.0
C51 C 0.25415 0.95736 0.7229 0.0
O52 O 0.24959 0.94961 0.69492 0.0
O53 O 0.23406 0.96915 0.73896 0.0
O54 O 0.22809 0.92931 0.62995 0.0
O55 O 0.21253 0.97467 0.62782 0.0
O56 O 0.57218 0.26589 0.81041 0.0
Cd57 Cd 0.5599 0.30036 0.8384 0.0
Cd58 Cd 0.52551 0.30947 0.78616 0.0
O59 O 0.53641 0.26672 0.77599 0.0
O60 O 0.58059 0.29112 0.87801 0.0
O61 O 0.53265 0.29354 0.87499 0.0
C62 C 0.55567 0.28866 0.89151 0.0
C63 C 0.4783 0.32716 0.77773 0.0
C64 C 0.55888 0.25454 0.78746 0.0
C65 C 0.57513 0.35136 0.79936 0.0
O66 O 0.55758 0.34062 0.7795 0.0
O67 O 0.57704 0.34035 0.82642 0.0
O68 O 0.49529 0.32056 0.75492 0.0
O69 O 0.48761 0.32234 0.80567 0.0
O70 O 0.16635 0.55745 0.27802 0.0
Cd71 Cd 0.19621 0.52422 0.28194 0.0
Cd72 Cd 0.20916 0.55588 0.33817 0.0
O73 O 0.17239 0.57871 0.32371 0.0
O74 O 0.18309 0.49521 0.25035 0.0
O75 O 0.18309 0.48624 0.30092 0.0
C76 C 0.17702 0.47777 0.27295 0.0
C77 C 0.21804 0.55281 0.39207 0.0
C78 C 0.15917 0.57682 0.29773 0.0
C79 C 0.25549 0.55044 0.28677 0.0
O80 O 0.24712 0.5608 0.31273 0.0
O81 O 0.23883 0.53411 0.27081 0.0
O82 O 0.21979 0.57704 0.37713 0.0
O83 O 0.21026 0.52996 0.37661 0.0
O84 O 0.93842 0.24591 0.81104 0.0
Cd85 Cd 0.94386 0.20846 0.83716 0.0
Cd86 Cd 0.9748 0.19448 0.78117 0.0
O87 O 0.96437 0.23676 0.76882 0.0
O88 O 0.92371 0.2199 0.87642 0.0
O89 O 0.97076 0.21016 0.87476 0.0
C90 C 0.94832 0.21833 0.89069 0.0
C91 C 0.02146 0.17537 0.77332 0.0
C92 C 0.94828 0.25375 0.78468 0.0
C93 C 0.92288 0.15723 0.79873 0.0
O94 O 0.94206 0.16397 0.77864 0.0
O95 O 0.92091 0.17135 0.82415 0.0
O96 O 0.00417 0.18062 0.75033 0.0
O97 O 0.01275 0.18235 0.80096 0.0
O98 O 0.33592 0.94605 0.2751 0.0
Cd99 Cd 0.30611 0.97921 0.27978 0.0
Cd100 Cd 0.2937 0.94784 0.33537 0.0
O101 O 0.33043 0.92496 0.32091 0.0
O102 O 0.31946 0.00918 0.24941 0.0
O103 O 0.31938 0.01635 0.30034 0.0
C104 C 0.32569 0.02571 0.27276 0.0
C105 C 0.28552 0.95193 0.38927 0.0
C106 C 0.34339 0.92679 0.2948 0.0
C107 C 0.24695 0.95306 0.28449 0.0
O108 O 0.25553 0.94256 0.31032 0.0
O109 O 0.26345 0.96958 0.26858 0.0
O110 O 0.28358 0.92741 0.37489 0.0
O111 O 0.29302 0.9745 0.3732 0.0
O112 O 0.44149 0.83808 0.7818 0.0
Cd113 Cd 0.47444 0.80776 0.78403 0.0
Cd114 Cd 0.44333 0.79316 0.84011 0.0
O115 O 0.42029 0.83028 0.8272 0.0
O116 O 0.50341 0.82188 0.7529 0.0
O117 O 0.51254 0.82002 0.80341 0.0
C118 C 0.52092 0.82714 0.7757 0.0
C119 C 0.4471 0.78292 0.89367 0.0
C120 C 0.42222 0.84457 0.80189 0.0
C121 C 0.44817 0.74835 0.7871 0.0
O122 O 0.43828 0.75591 0.81355 0.0
O123 O 0.46416 0.76555 0.77139 0.0
O124 O 0.4227 0.78136 0.87898 0.0
O125 O 0.46972 0.79124 0.87815 0.0
O126 O 0.66464 0.44453 0.27873 0.0
Cd127 Cd 0.6955 0.47696 0.28127 0.0
Cd128 Cd 0.70901 0.44595 0.33743 0.0
O129 O 0.6718 0.42328 0.32423 0.0
O130 O 0.68208 0.50635 0.2502 0.0
O131 O 0.68392 0.51521 0.30077 0.0
C132 C 0.67712 0.52387 0.27306 0.0
C133 C 0.71868 0.4503 0.39102 0.0
C134 C 0.65775 0.42536 0.29877 0.0
C135 C 0.75447 0.44975 0.28509 0.0
O136 O 0.74649 0.44009 0.31149 0.0
O137 O 0.73768 0.46595 0.2691 0.0
O138 O 0.72008 0.42569 0.37675 0.0
O139 O 0.7108 0.47282 0.37505 0.0
O140 O 0.0566 0.66512 0.78134 0.0
Cd141 Cd 0.02436 0.6961 0.78814 0.0
Cd142 Cd 0.06 0.70614 0.83939 0.0
O143 O 0.07745 0.6662 0.82758 0.0
O144 O 0.99421 0.68442 0.75707 0.0
O145 O 0.98659 0.68301 0.80783 0.0
C146 C 0.97732 0.67781 0.77996 0.0
C147 C 0.05578 0.71859 0.89231 0.0
C148 C 0.07483 0.65481 0.80075 0.0
C149 C 0.05731 0.75131 0.78789 0.0
O150 O 0.07131 0.74034 0.81058 0.0
O151 O 0.03467 0.73885 0.77723 0.0
O152 O 0.0807 0.71637 0.87873 0.0
O153 O 0.03279 0.71297 0.87599 0.0
O154 O 0.84019 0.05651 0.27964 0.0
Cd155 Cd 0.80894 0.02465 0.2868 0.0
Cd156 Cd 0.80058 0.05895 0.3389 0.0
O157 O 0.84061 0.07585 0.32661 0.0
O158 O 0.8198 0.99398 0.25601 0.0
O159 O 0.82162 0.98696 0.30688 0.0
C160 C 0.82638 0.97727 0.27909 0.0
C161 C 0.7892 0.05454 0.39206 0.0
C162 C 0.85128 0.07395 0.29939 0.0
C163 C 0.75434 0.05839 0.28837 0.0
O164 O 0.76601 0.07159 0.31121 0.0
O165 O 0.76619 0.03578 0.27685 0.0
O166 O 0.79181 0.07951 0.37869 0.0
O167 O 0.79377 0.03157 0.37537 0.0
O168 O 0.44848 0.66629 0.23135 0.0
Cd169 Cd 0.48181 0.69589 0.22668 0.0
Cd170 Cd 0.44996 0.70846 0.17083 0.0
O171 O 0.42702 0.67196 0.18572 0.0
O172 O 0.5117 0.68246 0.2572 0.0
O173 O 0.51909 0.68258 0.20633 0.0
C174 C 0.52837 0.6763 0.23396 0.0
C175 C 0.45241 0.71715 0.11686 0.0
C176 C 0.42896 0.65902 0.21185 0.0
C177 C 0.45577 0.75512 0.22187 0.0
O178 O 0.44529 0.74656 0.19604 0.0
O179 O 0.47221 0.73857 0.23787 0.0
O180 O 0.42837 0.71904 0.13212 0.0
O181 O 0.47542 0.70929 0.13203 0.0
O182 O 0.83481 0.4486 0.72919 0.0
Cd183 Cd 0.80612 0.48288 0.72501 0.0
Cd184 Cd 0.79251 0.45112 0.66843 0.0
O185 O 0.82822 0.42712 0.68369 0.0
O186 O 0.81993 0.51137 0.75685 0.0
O187 O 0.82057 0.52052 0.70633 0.0
C188 C 0.82663 0.52873 0.73438 0.0
C189 C 0.78396 0.45279 0.6144 0.0
C190 C 0.84136 0.42878 0.70973 0.0
C191 C 0.74584 0.45904 0.71923 0.0
O192 O 0.75413 0.44825 0.69344 0.0
O193 O 0.76299 0.47462 0.73547 0.0
O194 O 0.78128 0.42914 0.63021 0.0
O195 O 0.79253 0.47582 0.62906 0.0
O196 O 0.05425 0.83652 0.22977 0.0
Cd197 Cd 0.02107 0.80666 0.22576 0.0
Cd198 Cd 0.05275 0.79418 0.16916 0.0
O199 O 0.07566 0.83069 0.18413 0.0
O200 O 0.99212 0.81969 0.25748 0.0
O201 O 0.98298 0.81978 0.20695 0.0
C202 C 0.9746 0.82582 0.23495 0.0
C203 C 0.05039 0.78574 0.1151 0.0
C204 C 0.0737 0.84375 0.21019 0.0
C205 C 0.04735 0.74746 0.22031 0.0
O206 O 0.05745 0.75599 0.19429 0.0
O207 O 0.03119 0.76403 0.23659 0.0
O208 O 0.07438 0.7837 0.13044 0.0
O209 O 0.02737 0.79355 0.13026 0.0
O210 O 0.66212 0.05909 0.72394 0.0
Cd211 Cd 0.69089 0.02461 0.72489 0.0
Cd212 Cd 0.71152 0.05289 0.66852 0.0
O213 O 0.67806 0.08087 0.68127 0.0
O214 O 0.67415 0.9973 0.75626 0.0
O215 O 0.67849 0.98615 0.7064 0.0
C216 C 0.66989 0.97894 0.734 0.0
C217 C 0.72231 0.05032 0.6149 0.0
C218 C 0.66075 0.07983 0.70438 0.0
C219 C 0.75301 0.04524 0.72382 0.0
O220 O 0.74839 0.05315 0.6959 0.0
O221 O 0.73293 0.0334 0.73984 0.0
O222 O 0.72683 0.07348 0.63102 0.0
O223 O 0.71088 0.02826 0.62899 0.0
H224 H 0.43971 0.15349 0.19059 0.0
H225 H 0.34996 0.0616 0.31686 0.0
H226 H 0.45683 0.15581 0.28938 0.0
H227 H 0.33938 0.05199 0.21753 0.0
H228 H 0.38327 0.10238 0.30764 0.0
H229 H 0.39727 0.12247 0.20049 0.0
C230 C 0.43434 0.1478 0.21438 0.0
C231 C 0.45204 0.15701 0.23915 0.0
C232 C 0.37339 0.09156 0.28787 0.0
C233 C 0.4036 0.12141 0.25065 0.0
C234 C 0.35426 0.06835 0.29313 0.0
C235 C 0.34211 0.05314 0.26793 0.0
C236 C 0.38041 0.09962 0.25719 0.0
C237 C 0.34846 0.06289 0.23767 0.0
C238 C 0.41015 0.13002 0.22002 0.0
C239 C 0.44398 0.149 0.26952 0.0
N240 N 0.36737 0.08531 0.23315 0.0
N241 N 0.42052 0.13149 0.27438 0.0
H242 H 0.33888 0.4516 0.79243 0.0
H243 H 0.45209 0.33732 0.7216 0.0
H244 H 0.34977 0.43651 0.69394 0.0
H245 H 0.44105 0.35219 0.82011 0.0
H246 H 0.41013 0.36863 0.71134 0.0
H247 H 0.37144 0.4107 0.80317 0.0
C248 C 0.34783 0.43945 0.77303 0.0
C249 C 0.34179 0.44771 0.7422 0.0
C250 C 0.41663 0.3648 0.73524 0.0
C251 C 0.3794 0.40089 0.7544 0.0
C252 C 0.4406 0.34685 0.74114 0.0
C253 C 0.45032 0.34234 0.77178 0.0
C254 C 0.40231 0.37856 0.76012 0.0
C255 C 0.43443 0.35516 0.79612 0.0
C256 C 0.36647 0.41609 0.7792 0.0
C257 C 0.35391 0.43103 0.71805 0.0
N258 N 0.41143 0.37295 0.78975 0.0
N259 N 0.37238 0.40863 0.72466 0.0
H260 H 0.05286 0.33826 0.28912 0.0
H261 H 0.16436 0.45316 0.21659 0.0
H262 H 0.06494 0.35076 0.19037 0.0
H263 H 0.1533 0.43972 0.31533 0.0
H264 H 0.13262 0.41151 0.20655 0.0
H265 H 0.09388 0.37085 0.29906 0.0
C266 C 0.06437 0.34758 0.26948 0.0
C267 C 0.05524 0.34197 0.23884 0.0
C268 C 0.13737 0.41742 0.23043 0.0
C269 C 0.10217 0.37962 0.25012 0.0
C270 C 0.15555 0.44122 0.2362 0.0
C271 C 0.16129 0.45015 0.26687 0.0
C272 C 0.12461 0.40248 0.25549 0.0
C273 C 0.14937 0.43371 0.29131 0.0
C274 C 0.0878 0.36624 0.2752 0.0
C275 C 0.07112 0.35456 0.21436 0.0
N276 N 0.13134 0.41088 0.28509 0.0
N277 N 0.09359 0.37304 0.22054 0.0
H278 H 0.15104 0.06361 0.69017 0.0
H279 H 0.05871 0.15244 0.81701 0.0
H280 H 0.15412 0.04654 0.78894 0.0
H281 H 0.04687 0.16121 0.71776 0.0
H282 H 0.10003 0.11983 0.80744 0.0
H283 H 0.11917 0.10543 0.70022 0.0
C284 C 0.14535 0.06887 0.71399 0.0
C285 C 0.15502 0.05135 0.73872 0.0
C286 C 0.08859 0.12917 0.78775 0.0
C287 C 0.11845 0.09909 0.75039 0.0
C288 C 0.06507 0.1479 0.79321 0.0
C289 C 0.0491 0.15934 0.76815 0.0
C290 C 0.09622 0.12185 0.75702 0.0
C291 C 0.05837 0.15268 0.7378 0.0
C292 C 0.12707 0.0927 0.71972 0.0
C293 C 0.14696 0.05926 0.76912 0.0
N294 N 0.08113 0.1342 0.7331 0.0
N295 N 0.12899 0.08238 0.77407 0.0
H296 H 0.5585 0.8501 0.819 0.0
H297 H 0.64942 0.93928 0.69136 0.0
H298 H 0.54567 0.84154 0.71987 0.0
H299 H 0.65327 0.95628 0.79011 0.0
H300 H 0.61769 0.89745 0.70167 0.0
H301 H 0.59959 0.88285 0.80904 0.0
C302 C 0.56459 0.85473 0.79515 0.0
C303 C 0.54841 0.84329 0.77025 0.0
C304 C 0.62573 0.91016 0.7211 0.0
C305 C 0.59528 0.88093 0.75867 0.0
C306 C 0.64393 0.934 0.71523 0.0
C307 C 0.65378 0.9515 0.73988 0.0
C308 C 0.61738 0.90375 0.75184 0.0
C309 C 0.64597 0.94358 0.77035 0.0
C310 C 0.58798 0.87353 0.78947 0.0
C311 C 0.55734 0.85006 0.73981 0.0
N312 N 0.62808 0.92045 0.77544 0.0
N313 N 0.57998 0.86861 0.73489 0.0
H314 H 0.56517 0.65304 0.19005 0.0
H315 H 0.65637 0.56269 0.31643 0.0
H316 H 0.55417 0.66222 0.28936 0.0
H317 H 0.66215 0.54844 0.21729 0.0
H318 H 0.62485 0.60482 0.30675 0.0
H319 H 0.60655 0.62045 0.1994 0.0
C320 C 0.57172 0.64857 0.21381 0.0
C321 C 0.55597 0.66014 0.23895 0.0
C322 C 0.6333 0.59267 0.28709 0.0
C323 C 0.60316 0.62265 0.24985 0.0
C324 C 0.65139 0.56867 0.29262 0.0
C325 C 0.66168 0.55181 0.26766 0.0
C326 C 0.62541 0.59987 0.2564 0.0
C327 C 0.65451 0.56063 0.23728 0.0
C328 C 0.59529 0.62987 0.21915 0.0
C329 C 0.56549 0.65359 0.26925 0.0
N330 N 0.63662 0.58385 0.23252 0.0
N331 N 0.58825 0.6351 0.27384 0.0
H332 H 0.93993 0.65361 0.82271 0.0
H333 H 0.84962 0.56754 0.69233 0.0
H334 H 0.95179 0.66585 0.72389 0.0
H335 H 0.84112 0.55186 0.79099 0.0
H336 H 0.88176 0.6088 0.70367 0.0
H337 H 0.89839 0.62167 0.8118 0.0
C338 C 0.93353 0.64996 0.79874 0.0
C339 C 0.94956 0.66219 0.77418 0.0
C340 C 0.8726 0.59652 0.72285 0.0
C341 C 0.90222 0.62544 0.76149 0.0
C342 C 0.85418 0.573 0.71638 0.0
C343 C 0.84288 0.55602 0.74072 0.0
C344 C 0.87984 0.60309 0.75389 0.0
C345 C 0.84952 0.56417 0.77145 0.0
C346 C 0.90987 0.63163 0.79251 0.0
C347 C 0.94024 0.65669 0.74358 0.0
N348 N 0.86775 0.58692 0.77714 0.0
N349 N 0.9174 0.63852 0.7381 0.0
H350 H 0.85009 0.93987 0.32218 0.0
H351 H 0.93556 0.84812 0.19266 0.0
H352 H 0.83777 0.95099 0.22326 0.0
H353 H 0.95108 0.84014 0.29141 0.0
H354 H 0.89419 0.88023 0.20369 0.0
H355 H 0.88145 0.8978 0.31166 0.0
C356 C 0.85358 0.9332 0.29828 0.0
C357 C 0.84153 0.94919 0.27357 0.0
C358 C 0.90644 0.87117 0.22297 0.0
C359 C 0.87764 0.90123 0.26132 0.0
C360 C 0.93002 0.85275 0.21667 0.0
C361 C 0.94703 0.84167 0.24112 0.0
C362 C 0.89984 0.87862 0.25394 0.0
C363 C 0.93876 0.8484 0.27179 0.0
C364 C 0.87159 0.90923 0.29227 0.0
C365 C 0.84682 0.93949 0.24305 0.0
N366 N 0.91597 0.86664 0.2773 0.0
N367 N 0.86469 0.91637 0.2378 0.0
H368 H 0.55456 0.26772 0.28534 0.0
H369 H 0.62307 0.42405 0.247 0.0
H370 H 0.5576 0.30638 0.1938 0.0
H371 H 0.63947 0.37788 0.33288 0.0
H372 H 0.58939 0.38568 0.23142 0.0
H373 H 0.57593 0.31246 0.30692 0.0
C374 C 0.55912 0.28583 0.2699 0.0
C375 C 0.5546 0.28323 0.23768 0.0
C376 C 0.60014 0.38404 0.25381 0.0
C377 C 0.57905 0.33423 0.26213 0.0
C378 C 0.6194 0.40599 0.26277 0.0
C379 C 0.63454 0.40401 0.29112 0.0
C380 C 0.5959 0.35981 0.27324 0.0
C381 C 0.62853 0.38019 0.31068 0.0
C382 C 0.57149 0.31124 0.28219 0.0
C383 C 0.56105 0.3073 0.21872 0.0
N384 N 0.6099 0.35884 0.30123 0.0
N385 N 0.57311 0.33166 0.23119 0.0
H386 H 0.22645 0.54367 0.78207 0.0
H387 H 0.07819 0.62848 0.74368 0.0
H388 H 0.19782 0.56644 0.68947 0.0
H389 H 0.11802 0.62797 0.83482 0.0
H390 H 0.11612 0.59544 0.72525 0.0
H391 H 0.18119 0.5644 0.80304 0.0
C392 C 0.21044 0.55253 0.76611 0.0
C393 C 0.21604 0.55363 0.73399 0.0
C394 C 0.11639 0.60231 0.74937 0.0
C395 C 0.16439 0.57728 0.75779 0.0
C396 C 0.09467 0.62114 0.75998 0.0
C397 C 0.09512 0.63143 0.79077 0.0
C398 C 0.13875 0.59357 0.76965 0.0
C399 C 0.11696 0.62088 0.81081 0.0
C400 C 0.18471 0.56448 0.77811 0.0
C401 C 0.19456 0.56544 0.71441 0.0
N402 N 0.13808 0.60275 0.79982 0.0
N403 N 0.16979 0.57694 0.72663 0.0
H404 H 0.87995 0.11508 0.33451 0.0
H405 H 0.93776 0.19836 0.18524 0.0
H406 H 0.87535 0.07979 0.24142 0.0
H407 H 0.95991 0.22499 0.27867 0.0
H408 H 0.91814 0.15289 0.20582 0.0
H409 H 0.91252 0.15334 0.31544 0.0
C410 C 0.88611 0.11509 0.31017 0.0
C411 C 0.87453 0.09438 0.28947 0.0
C412 C 0.92763 0.16845 0.22185 0.0
C413 C 0.91157 0.13831 0.26745 0.0
C414 C 0.93881 0.19447 0.21009 0.0
C415 C 0.95022 0.21563 0.2303 0.0
C416 C 0.92736 0.16368 0.25415 0.0
C417 C 0.95124 0.20929 0.26226 0.0
C418 C 0.90473 0.13696 0.2993 0.0
C419 C 0.88346 0.09542 0.25821 0.0
N420 N 0.9395 0.18406 0.27328 0.0
N421 N 0.90109 0.11724 0.24811 0.0
H422 H 0.30623 0.94879 0.69388 0.0
H423 H 0.37477 0.86245 0.83635 0.0
H424 H 0.26596 0.94701 0.78462 0.0
H425 H 0.42037 0.87939 0.75027 0.0
H426 H 0.33655 0.89656 0.82007 0.0
H427 H 0.3501 0.92718 0.71607 0.0
C428 C 0.30681 0.94425 0.71862 0.0
C429 C 0.28233 0.94947 0.73738 0.0
C430 C 0.35513 0.89307 0.80497 0.0
C431 C 0.33239 0.92408 0.76294 0.0
C432 C 0.37696 0.87357 0.81423 0.0
C433 C 0.40066 0.86768 0.79447 0.0
C434 C 0.35694 0.90661 0.77568 0.0
C435 C 0.40237 0.8829 0.76615 0.0
C436 C 0.33189 0.93187 0.73132 0.0
C437 C 0.28437 0.94332 0.76933 0.0
N438 N 0.38068 0.90135 0.7575 0.0
N439 N 0.3088 0.93046 0.78104 0.0
H440 H 0.61614 0.2435 0.77838 0.0
H441 H 0.60901 0.07982 0.73646 0.0
H442 H 0.53074 0.2071 0.76214 0.0
H443 H 0.66848 0.13658 0.68761 0.0
H444 H 0.58098 0.12288 0.7531 0.0
H445 H 0.63801 0.20095 0.75315 0.0
C446 C 0.60202 0.22642 0.76961 0.0
C447 C 0.57164 0.22865 0.77237 0.0
C448 C 0.59988 0.12569 0.73829 0.0
C449 C 0.59652 0.17993 0.74398 0.0
C450 C 0.61589 0.10127 0.72888 0.0
C451 C 0.64113 0.1047 0.71071 0.0
C452 C 0.6098 0.15361 0.73026 0.0
C453 C 0.64913 0.13295 0.70151 0.0
C454 C 0.61448 0.20236 0.75504 0.0
C455 C 0.55427 0.20609 0.76036 0.0
N456 N 0.63387 0.15639 0.71196 0.0
N457 N 0.56701 0.18228 0.74705 0.0
H458 H 0.4242 0.63048 0.2675 0.0
H459 H 0.27368 0.55136 0.22585 0.0
H460 H 0.38343 0.63712 0.1771 0.0
H461 H 0.3023 0.57084 0.3193 0.0
H462 H 0.3189 0.57294 0.20571 0.0
H463 H 0.38481 0.59858 0.28445 0.0
C464 C 0.40715 0.62501 0.25104 0.0
C465 C 0.40698 0.63688 0.2209 0.0
C466 C 0.31535 0.57214 0.23062 0.0
C467 C 0.3617 0.60024 0.24033 0.0
C468 C 0.28967 0.5597 0.24214 0.0
C469 C 0.28413 0.55955 0.27429 0.0
C470 C 0.33572 0.58409 0.25145 0.0
C471 C 0.30554 0.57077 0.29433 0.0
C472 C 0.38461 0.60682 0.26082 0.0
C473 C 0.38433 0.62873 0.20063 0.0
N474 N 0.33031 0.58266 0.28258 0.0
N475 N 0.36245 0.61106 0.21079 0.0
H476 H 0.87049 0.42358 0.76502 0.0
H477 H 0.94596 0.27105 0.72345 0.0
H478 H 0.86158 0.38238 0.67509 0.0
H479 H 0.92916 0.30122 0.81691 0.0
H480 H 0.92455 0.31637 0.70317 0.0
H481 H 0.90174 0.38357 0.78177 0.0
C482 C 0.87531 0.40629 0.74863 0.0
C483 C 0.86301 0.40622 0.71867 0.0
C484 C 0.92588 0.31312 0.7281 0.0
C485 C 0.89891 0.36019 0.73788 0.0
C486 C 0.93823 0.28738 0.73969 0.0
C487 C 0.9391 0.28228 0.77191 0.0
C488 C 0.91478 0.33397 0.74894 0.0
C489 C 0.92866 0.30411 0.7919 0.0
C490 C 0.89313 0.38338 0.75829 0.0
C491 C 0.87033 0.38323 0.69848 0.0
N492 N 0.91687 0.32892 0.78009 0.0
N493 N 0.88765 0.361 0.70852 0.0
H494 H 0.0784 0.87259 0.26567 0.0
H495 H 0.22854 0.95218 0.22364 0.0
H496 H 0.11911 0.86568 0.1753 0.0
H497 H 0.20033 0.93248 0.31715 0.0
H498 H 0.18332 0.93044 0.20361 0.0
H499 H 0.11769 0.9047 0.28245 0.0
C500 C 0.09542 0.87805 0.24918 0.0
C501 C 0.0956 0.86604 0.2191 0.0
C502 C 0.18696 0.93123 0.22851 0.0
C503 C 0.14077 0.90292 0.23834 0.0
C504 C 0.21263 0.94376 0.23997 0.0
C505 C 0.21828 0.94389 0.2721 0.0
C506 C 0.16671 0.91918 0.2494 0.0
C507 C 0.19699 0.93257 0.29219 0.0
C508 C 0.1179 0.89636 0.25886 0.0
C509 C 0.1182 0.87418 0.19879 0.0
N510 N 0.17223 0.9206 0.28051 0.0
N511 N 0.14002 0.89197 0.20885 0.0
H512 H 0.37042 0.57887 0.76529 0.0
H513 H 0.4455 0.73192 0.72563 0.0
H514 H 0.36021 0.62168 0.67638 0.0
H515 H 0.42945 0.70038 0.81872 0.0
H516 H 0.42395 0.68691 0.70477 0.0
H517 H 0.402 0.61848 0.78231 0.0
C518 C 0.37502 0.59643 0.74917 0.0
C519 C 0.36226 0.59707 0.71944 0.0
C520 C 0.42549 0.68979 0.72975 0.0
C521 C 0.39853 0.64265 0.73897 0.0
C522 C 0.43792 0.71534 0.74166 0.0
C523 C 0.43904 0.71997 0.77396 0.0
C524 C 0.41454 0.66865 0.75032 0.0
C525 C 0.42876 0.69784 0.79366 0.0
C526 C 0.39304 0.61911 0.75898 0.0
C527 C 0.36932 0.62039 0.69959 0.0
N528 N 0.41689 0.67323 0.78154 0.0
N529 N 0.38684 0.64239 0.70979 0.0
H530 H 0.92294 0.36892 0.26553 0.0
H531 H 0.77191 0.44742 0.22391 0.0
H532 H 0.88205 0.36177 0.17525 0.0
H533 H 0.80154 0.42967 0.3174 0.0
H534 H 0.8169 0.42531 0.20368 0.0
H535 H 0.88336 0.40063 0.28246 0.0
C536 C 0.9058 0.37421 0.24911 0.0
C537 C 0.9057 0.3623 0.21898 0.0
C538 C 0.81361 0.42658 0.22861 0.0
C539 C 0.86017 0.39873 0.2384 0.0
C540 C 0.78807 0.43933 0.24017 0.0
C541 C 0.78289 0.44015 0.27238 0.0
C542 C 0.8342 0.415 0.24946 0.0
C543 C 0.80449 0.42922 0.29239 0.0
C544 C 0.88314 0.3923 0.25887 0.0
C545 C 0.88291 0.37021 0.19876 0.0
N546 N 0.82911 0.41704 0.28061 0.0
N547 N 0.86093 0.38779 0.2089 0.0
H548 H 0.02832 0.79918 0.76468 0.0
H549 H 0.16836 0.86685 0.68422 0.0
H550 H 0.11401 0.76152 0.7749 0.0
H551 H 0.11064 0.92305 0.73622 0.0
H552 H 0.13992 0.82464 0.70149 0.0
H553 H 0.0507 0.84216 0.73941 0.0
C554 C 0.05173 0.79992 0.76139 0.0
C555 C 0.06948 0.77708 0.77207 0.0
C556 C 0.13327 0.84632 0.70861 0.0
C557 C 0.0947 0.82505 0.74258 0.0
C558 C 0.14933 0.87039 0.69867 0.0
C559 C 0.14197 0.89845 0.70905 0.0
C560 C 0.10933 0.8504 0.72843 0.0
C561 C 0.11716 0.90172 0.72795 0.0
C562 C 0.06439 0.82429 0.7471 0.0
C563 C 0.09967 0.77889 0.7673 0.0
N564 N 0.10168 0.87791 0.73714 0.0
N565 N 0.11132 0.80236 0.75267 0.0
H566 H 0.58007 0.11056 0.23721 0.0
H567 H 0.74374 0.11578 0.27968 0.0
H568 H 0.63769 0.16927 0.18845 0.0
H569 H 0.70658 0.0308 0.26298 0.0
H570 H 0.70141 0.13814 0.25453 0.0
H571 H 0.62276 0.08207 0.2541 0.0
C572 C 0.60163 0.11719 0.22971 0.0
C573 C 0.60542 0.14234 0.21148 0.0
C574 C 0.7026 0.1146 0.25631 0.0
C575 C 0.6539 0.11049 0.23132 0.0
C576 C 0.72654 0.10185 0.27084 0.0
C577 C 0.72851 0.07145 0.27343 0.0
C578 C 0.68003 0.0969 0.24511 0.0
C579 C 0.70579 0.05435 0.26132 0.0
C580 C 0.62584 0.10091 0.23926 0.0
C581 C 0.63379 0.14999 0.20239 0.0
N582 N 0.68211 0.06736 0.24804 0.0
N583 N 0.65701 0.13449 0.21297 0.0
H584 H 0.45394 0.77331 0.28277 0.0
H585 H 0.37272 0.92241 0.2396 0.0
H586 H 0.43584 0.80188 0.18901 0.0
H587 H 0.36565 0.88169 0.32996 0.0
H588 H 0.40578 0.88372 0.2233 0.0
H589 H 0.43143 0.81826 0.30256 0.0
C590 C 0.44574 0.78927 0.26636 0.0
C591 C 0.44651 0.78377 0.23421 0.0
C592 C 0.39718 0.88337 0.24678 0.0
C593 C 0.42087 0.835 0.25662 0.0
C594 C 0.37831 0.9055 0.25617 0.0
C595 C 0.36601 0.90514 0.28611 0.0
C596 C 0.40399 0.86065 0.26743 0.0
C597 C 0.37436 0.88271 0.30656 0.0
C598 C 0.43275 0.81477 0.27766 0.0
C599 C 0.43543 0.8051 0.21398 0.0
N600 N 0.39268 0.86122 0.29677 0.0
N601 N 0.42298 0.82968 0.22552 0.0
H602 H 0.69897 0.43971 0.68606 0.0
H603 H 0.61659 0.37927 0.83474 0.0
H604 H 0.72648 0.45976 0.77974 0.0
H605 H 0.58075 0.37637 0.74181 0.0
H606 H 0.65482 0.41207 0.81606 0.0
H607 H 0.65359 0.41985 0.70658 0.0
C608 C 0.69529 0.44025 0.71096 0.0
C609 C 0.71667 0.45113 0.73124 0.0
C610 C 0.63833 0.40459 0.79988 0.0
C611 C 0.66482 0.42798 0.75501 0.0
C612 C 0.61647 0.38584 0.81052 0.0
C613 C 0.59562 0.37467 0.78973 0.0
C614 C 0.63951 0.412 0.76817 0.0
C615 C 0.5965 0.38413 0.75865 0.0
C616 C 0.66932 0.42893 0.72269 0.0
C617 C 0.7106 0.45151 0.76328 0.0
N618 N 0.6183 0.4019 0.74876 0.0
N619 N 0.68542 0.43964 0.77424 0.0
H620 H 0.13709 0.62183 0.33312 0.0
H621 H 0.06658 0.70056 0.18718 0.0
H622 H 0.13015 0.58184 0.24238 0.0
H623 H 0.05035 0.72947 0.2812 0.0
H624 H 0.08866 0.65613 0.20761 0.0
H625 H 0.10421 0.66068 0.31564 0.0
C626 C 0.12843 0.621 0.30968 0.0
C627 C 0.13671 0.59866 0.2891 0.0
C628 C 0.07994 0.67196 0.22384 0.0
C629 C 0.0993 0.64314 0.26893 0.0
C630 C 0.06735 0.69737 0.21216 0.0
C631 C 0.05678 0.71882 0.23253 0.0
C632 C 0.08253 0.66813 0.25616 0.0
C633 C 0.05822 0.71346 0.26469 0.0
C634 C 0.10962 0.64316 0.29974 0.0
C635 C 0.12464 0.59869 0.25903 0.0
N636 N 0.07132 0.68882 0.27556 0.0
N637 N 0.10688 0.62074 0.24978 0.0
H638 H 0.9218 0.12194 0.74745 0.0
H639 H 0.76527 0.05389 0.78577 0.0
H640 H 0.87514 0.13946 0.83276 0.0
H641 H 0.80479 0.05512 0.69461 0.0
H642 H 0.80983 0.07563 0.80736 0.0
H643 H 0.88359 0.08797 0.73219 0.0
C644 C 0.90366 0.11847 0.76316 0.0
C645 C 0.90151 0.13399 0.79125 0.0
C646 C 0.80884 0.0707 0.78272 0.0
C647 C 0.85748 0.095 0.77373 0.0
C648 C 0.78353 0.05811 0.77043 0.0
C649 C 0.78123 0.05299 0.73829 0.0
C650 C 0.83202 0.07789 0.76274 0.0
C651 C 0.80549 0.05903 0.71947 0.0
C652 C 0.88181 0.09903 0.75438 0.0
C653 C 0.87758 0.12822 0.81075 0.0
N654 N 0.82974 0.07133 0.73193 0.0
N655 N 0.85632 0.1094 0.80147 0.0
H656 H 0.50457 0.22375 0.07476 0.0
H657 H 0.60083 0.28207 0.93198 0.0
H658 H 0.59694 0.24149 0.07888 0.0
H659 H 0.50714 0.27445 0.92647 0.0
H660 H 0.59908 0.26541 0.98559 0.0
H661 H 0.50434 0.23997 0.02014 0.0
C662 C 0.52478 0.23088 0.06418 0.0
C663 C 0.55081 0.23129 0.08145 0.0
C664 C 0.57881 0.26741 0.97282 0.0
C665 C 0.55068 0.24988 0.01924 0.0
C666 C 0.5798 0.27697 0.94209 0.0
C667 C 0.55408 0.27971 0.92463 0.0
C668 C 0.5519 0.26032 0.98647 0.0
C669 C 0.52749 0.27274 0.93912 0.0
C670 C 0.52461 0.24023 0.03308 0.0
C671 C 0.57633 0.24084 0.06659 0.0
N672 N 0.52707 0.26327 0.96922 0.0
N673 N 0.57559 0.24971 0.03649 0.0
H674 H 0.22858 0.59858 0.43075 0.0
H675 H 0.27665 0.50209 0.57771 0.0
H676 H 0.22615 0.5045 0.42949 0.0
H677 H 0.2686 0.59587 0.57814 0.0
H678 H 0.26029 0.50165 0.52317 0.0
H679 H 0.24468 0.59716 0.48462 0.0
C680 C 0.23131 0.57755 0.44187 0.0
C681 C 0.22598 0.55161 0.42551 0.0
C682 C 0.26218 0.52228 0.53527 0.0
C683 C 0.24477 0.54979 0.48759 0.0
C684 C 0.27165 0.52256 0.56632 0.0
C685 C 0.274 0.54906 0.58255 0.0
C686 C 0.25518 0.54869 0.52039 0.0
C687 C 0.26709 0.5749 0.56667 0.0
C688 C 0.24056 0.57675 0.47273 0.0
C689 C 0.22991 0.52503 0.44126 0.0
N690 N 0.25803 0.57404 0.53661 0.0
N691 N 0.2392 0.52478 0.47144 0.0
H692 H 0.90482 0.27285 0.07678 0.0
H693 H 0.99756 0.22523 0.92701 0.0
H694 H 0.99887 0.2764 0.07499 0.0
H695 H 0.90366 0.23143 0.92996 0.0
H696 H 0.99944 0.24225 0.98129 0.0
H697 H 0.90488 0.2567 0.02293 0.0
C698 C 0.92555 0.27037 0.06498 0.0
C699 C 0.95189 0.27598 0.08049 0.0
C700 C 0.97848 0.23982 0.96998 0.0
C701 C 0.95215 0.25712 0.01844 0.0
C702 C 0.97737 0.22998 0.93908 0.0
C703 C 0.95041 0.22688 0.92389 0.0
C704 C 0.95241 0.24647 0.98572 0.0
C705 C 0.92496 0.2335 0.94061 0.0
C706 C 0.92558 0.26108 0.03414 0.0
C707 C 0.97805 0.2724 0.06388 0.0
N708 N 0.92662 0.24293 0.97049 0.0
N709 N 0.97755 0.26304 0.03374 0.0
H710 H 0.27704 1.00092 0.42554 0.0
H711 H 0.24147 0.90686 0.57805 0.0
H712 H 0.27682 0.90687 0.42936 0.0
H713 H 0.22605 0.99964 0.57377 0.0
H714 H 0.25746 0.90769 0.52417 0.0
H715 H 0.26176 0.00219 0.48045 0.0
C716 C 0.274 0.98059 0.43795 0.0
C717 C 0.27819 0.95374 0.42282 0.0
C718 C 0.25053 0.92793 0.53485 0.0
C719 C 0.26069 0.95504 0.48536 0.0
C720 C 0.24136 0.92748 0.56573 0.0
C721 C 0.23234 0.95323 0.58051 0.0
C722 C 0.25093 0.95437 0.51837 0.0
C723 C 0.23272 0.97926 0.56324 0.0
C724 C 0.26514 0.98133 0.46919 0.0
C725 C 0.27379 0.92808 0.43996 0.0
N726 N 0.24197 0.9792 0.53305 0.0
N727 N 0.26532 0.92939 0.47019 0.0
H728 H 0.40186 0.7701 0.93224 0.0
H729 H 0.5003 0.72432 0.07862 0.0
H730 H 0.49583 0.77555 0.9307 0.0
H731 H 0.40625 0.72859 0.07897 0.0
H732 H 0.5001 0.74081 0.02412 0.0
H733 H 0.404 0.75327 0.9858 0.0
C734 C 0.42302 0.76787 0.94322 0.0
C735 C 0.44871 0.77429 0.92689 0.0
C736 C 0.47956 0.73804 0.03619 0.0
C737 C 0.45136 0.75468 0.98863 0.0
C738 C 0.47964 0.7285 0.06721 0.0
C739 C 0.45325 0.72509 0.08342 0.0
C740 C 0.45288 0.74406 0.02133 0.0
C741 C 0.42715 0.73096 0.06753 0.0
C742 C 0.42423 0.75819 0.97391 0.0
C743 C 0.47547 0.77094 0.94247 0.0
N744 N 0.42766 0.74013 0.03751 0.0
N745 N 0.47613 0.76126 0.97249 0.0
H746 H 0.77207 0.4062 0.57737 0.0
H747 H 0.72614 0.49945 0.42731 0.0
H748 H 0.7773 0.50016 0.57532 0.0
H749 H 0.73086 0.40549 0.43044 0.0
H750 H 0.743 0.50114 0.48166 0.0
H751 H 0.75579 0.40644 0.52356 0.0
C752 C 0.76993 0.42695 0.56553 0.0
C753 C 0.77607 0.45321 0.58095 0.0
C754 C 0.74027 0.4802 0.47038 0.0
C755 C 0.75707 0.45368 0.51893 0.0
C756 C 0.73052 0.47922 0.43945 0.0
C757 C 0.72708 0.45229 0.42428 0.0
C758 C 0.74647 0.45406 0.48619 0.0
C759 C 0.73322 0.42676 0.44108 0.0
C760 C 0.76057 0.42708 0.5347 0.0
C761 C 0.7729 0.4794 0.56428 0.0
N762 N 0.74257 0.42831 0.47099 0.0
N763 N 0.76347 0.479 0.53416 0.0
H764 H 0.00263 0.77988 0.07637 0.0
H765 H 0.101 0.72922 0.93176 0.0
H766 H 0.09655 0.77348 0.07753 0.0
H767 H 0.00693 0.73022 0.92788 0.0
H768 H 0.0989 0.74673 0.98506 0.0
H769 H 0.00285 0.76363 0.02178 0.0
C770 C 0.02327 0.77528 0.06512 0.0
C771 C 0.04961 0.778 0.08159 0.0
C772 C 0.07863 0.74312 0.9727 0.0
C773 C 0.05 0.75929 0.0194 0.0
C774 C 0.07982 0.73304 0.94215 0.0
C775 C 0.0541 0.72818 0.92524 0.0
C776 C 0.0515 0.74852 0.98674 0.0
C777 C 0.02731 0.73359 0.94009 0.0
C778 C 0.02337 0.7659 0.03403 0.0
C779 C 0.07568 0.77164 0.06588 0.0
N780 N 0.02669 0.74353 0.97001 0.0
N781 N 0.07519 0.76258 0.03583 0.0
H782 H 0.72262 0.00336 0.57455 0.0
H783 H 0.78379 0.09945 0.43301 0.0
H784 H 0.74201 0.09534 0.57951 0.0
H785 H 0.77405 0.00603 0.42658 0.0
H786 H 0.76704 0.09761 0.48658 0.0
H787 H 0.73939 0.00316 0.52012 0.0
C788 C 0.73024 0.02349 0.56419 0.0
C789 C 0.73091 0.0494 0.58164 0.0
C790 C 0.76859 0.07742 0.47362 0.0
C791 C 0.75016 0.04931 0.51966 0.0
C792 C 0.77821 0.07846 0.44291 0.0
C793 C 0.78036 0.05285 0.4252 0.0
C794 C 0.76083 0.05057 0.48698 0.0
C795 C 0.77281 0.0263 0.43942 0.0
C796 C 0.73991 0.02334 0.53321 0.0
C797 C 0.74111 0.07482 0.56708 0.0
N798 N 0.76326 0.02584 0.4695 0.0
N799 N 0.75027 0.07411 0.53708 0.0
loop_
_geom_bond_atom_site_label_1
_geom_bond_atom_site_label_2
_geom_bond_distance
_geom_bond_site_symmetry_2
_ccdc_geom_bond_type
O0 Cd1 2.223 . S
O0 C8 1.315 . S
Cd1 O0 2.223 . S
Cd1 O4 2.297 . S
Cd1 O5 2.439 . S
Cd1 O11 2.240 . S
Cd2 O3 2.240 . S
Cd2 O10 2.223 . S
Cd2 O12 2.297 . S
Cd2 O13 2.439 . S
O3 Cd2 2.240 . S
O3 C8 1.279 . S
O4 Cd1 2.297 . S
O4 C6 1.247 . S
O5 Cd1 2.439 . S
O5 C6 1.208 . S
C6 O4 1.247 . S
C6 O5 1.208 . S
C7 O12 1.247 . S
C7 O13 1.208 . S
C8 O0 1.315 . S
C8 O3 1.279 . S
C9 O10 1.315 . S
C9 O11 1.279 . S
O10 Cd2 2.223 . S
O10 C9 1.315 . S
O11 Cd1 2.240 . S
O11 C9 1.279 . S
O12 Cd2 2.297 . S
O12 C7 1.247 . S
O13 Cd2 2.439 . S
O13 C7 1.208 . S
O14 Cd15 2.223 . S
O14 C22 1.315 . S
Cd15 O14 2.223 . S
Cd15 O18 2.297 . S
Cd15 O19 2.439 . S
Cd15 O25 2.240 . S
Cd16 O17 2.240 . S
Cd16 O24 2.223 . S
Cd16 O26 2.297 . S
Cd16 O27 2.439 . S
O17 Cd16 2.240 . S
O17 C22 1.279 . S
O18 Cd15 2.297 . S
O18 C20 1.247 . S
O19 Cd15 2.439 . S
O19 C20 1.208 . S
C20 O18 1.247 . S
C20 O19 1.208 . S
C21 O26 1.247 . S
C21 O27 1.208 . S
C22 O14 1.315 . S
C22 O17 1.279 . S
C23 O24 1.315 . S
C23 O25 1.279 . S
O24 Cd16 2.223 . S
O24 C23 1.315 . S
O25 Cd15 2.240 . S
O25 C23 1.279 . S
O26 Cd16 2.297 . S
O26 C21 1.247 . S
O27 Cd16 2.439 . S
O27 C21 1.208 . S
O28 Cd29 2.223 . S
O28 C36 1.315 . S
Cd29 O28 2.223 . S
Cd29 O32 2.297 . S
Cd29 O33 2.439 . S
Cd29 O39 2.240 . S
Cd30 O31 2.240 . S
Cd30 O38 2.223 . S
Cd30 O40 2.297 1_655 S
Cd30 O41 2.439 1_655 S
O31 Cd30 2.240 . S
O31 C36 1.279 . S
O32 Cd29 2.297 . S
O32 C34 1.247 . S
O33 Cd29 2.439 . S
O33 C34 1.208 . S
C34 O32 1.247 . S
C34 O33 1.208 . S
C35 O40 1.247 . S
C35 O41 1.208 . S
C36 O28 1.315 . S
C36 O31 1.279 . S
C37 O38 1.315 . S
C37 O39 1.279 . S
O38 Cd30 2.223 . S
O38 C37 1.315 . S
O39 Cd29 2.240 . S
O39 C37 1.279 . S
O40 Cd30 2.297 1_455 S
O40 C35 1.247 . S
O41 Cd30 2.439 1_455 S
O41 C35 1.208 . S
O42 Cd43 2.223 . S
O42 C50 1.315 . S
Cd43 O42 2.223 . S
Cd43 O46 2.297 1_565 S
Cd43 O47 2.439 1_565 S
Cd43 O53 2.240 . S
Cd44 O45 2.240 . S
Cd44 O52 2.223 . S
Cd44 O54 2.297 . S
Cd44 O55 2.439 . S
O45 Cd44 2.240 . S
O45 C50 1.279 . S
O46 Cd43 2.297 1_545 S
O46 C48 1.247 . S
O47 Cd43 2.439 1_545 S
O47 C48 1.208 . S
C48 O46 1.247 . S
C48 O47 1.208 . S
C49 O54 1.247 . S
C49 O55 1.208 . S
C50 O42 1.315 . S
C50 O45 1.279 . S
C51 O52 1.315 . S
C51 O53 1.279 . S
O52 Cd44 2.223 . S
O52 C51 1.315 . S
O53 Cd43 2.240 . S
O53 C51 1.279 . S
O54 Cd44 2.297 . S
O54 C49 1.247 . S
O55 Cd44 2.439 . S
O55 C49 1.208 . S
O56 Cd57 2.223 . S
O56 C64 1.315 . S
Cd57 O56 2.223 . S
Cd57 O60 2.297 . S
Cd57 O61 2.439 . S
Cd57 O67 2.240 . S
Cd58 O59 2.240 . S
Cd58 O66 2.223 . S
Cd58 O68 2.297 . S
Cd58 O69 2.439 . S
O59 Cd58 2.240 . S
O59 C64 1.279 . S
O60 Cd57 2.297 . S
O60 C62 1.247 . S
O61 Cd57 2.439 . S
O61 C62 1.208 . S
C62 O60 1.247 . S
C62 O61 1.208 . S
C63 O68 1.247 . S
C63 O69 1.208 . S
C64 O56 1.315 . S
C64 O59 1.279 . S
C65 O66 1.315 . S
C65 O67 1.279 . S
O66 Cd58 2.223 . S
O66 C65 1.315 . S
O67 Cd57 2.240 . S
O67 C65 1.279 . S
O68 Cd58 2.297 . S
O68 C63 1.247 . S
O69 Cd58 2.439 . S
O69 C63 1.208 . S
O70 Cd71 2.223 . S
O70 C78 1.315 . S
Cd71 O70 2.223 . S
Cd71 O74 2.297 . S
Cd71 O75 2.439 . S
Cd71 O81 2.240 . S
Cd72 O73 2.240 . S
Cd72 O80 2.223 . S
Cd72 O82 2.297 . S
Cd72 O83 2.439 . S
O73 Cd72 2.240 . S
O73 C78 1.279 . S
O74 Cd71 2.297 . S
O74 C76 1.247 . S
O75 Cd71 2.439 . S
O75 C76 1.208 . S
C76 O74 1.247 . S
C76 O75 1.208 . S
C77 O82 1.247 . S
C77 O83 1.208 . S
C78 O70 1.315 . S
C78 O73 1.279 . S
C79 O80 1.315 . S
C79 O81 1.279 . S
O80 Cd72 2.223 . S
O80 C79 1.315 . S
O81 Cd71 2.240 . S
O81 C79 1.279 . S
O82 Cd72 2.297 . S
O82 C77 1.247 . S
O83 Cd72 2.439 . S
O83 C77 1.208 . S
O84 Cd85 2.223 . S
O84 C92 1.315 . S
Cd85 O84 2.223 . S
Cd85 O88 2.297 . S
Cd85 O89 2.439 . S
Cd85 O95 2.240 . S
Cd86 O87 2.240 . S
Cd86 O94 2.223 . S
Cd86 O96 2.297 1_655 S
Cd86 O97 2.439 1_655 S
O87 Cd86 2.240 . S
O87 C92 1.279 . S
O88 Cd85 2.297 . S
O88 C90 1.247 . S
O89 Cd85 2.439 . S
O89 C90 1.208 . S
C90 O88 1.247 . S
C90 O89 1.208 . S
C91 O96 1.247 . S
C91 O97 1.208 . S
C92 O84 1.315 . S
C92 O87 1.279 . S
C93 O94 1.315 . S
C93 O95 1.279 . S
O94 Cd86 2.223 . S
O94 C93 1.315 . S
O95 Cd85 2.240 . S
O95 C93 1.279 . S
O96 Cd86 2.297 1_455 S
O96 C91 1.247 . S
O97 Cd86 2.439 1_455 S
O97 C91 1.208 . S
O98 Cd99 2.223 . S
O98 C106 1.315 . S
Cd99 O98 2.223 . S
Cd99 O102 2.297 1_565 S
Cd99 O103 2.439 1_565 S
Cd99 O109 2.240 . S
Cd100 O101 2.240 . S
Cd100 O108 2.223 . S
Cd100 O110 2.297 . S
Cd100 O111 2.439 . S
O101 Cd100 2.240 . S
O101 C106 1.279 . S
O102 Cd99 2.297 1_545 S
O102 C104 1.247 . S
O103 Cd99 2.439 1_545 S
O103 C104 1.208 . S
C104 O102 1.247 . S
C104 O103 1.208 . S
C105 O110 1.247 . S
C105 O111 1.208 . S
C106 O98 1.315 . S
C106 O101 1.279 . S
C107 O108 1.315 . S
C107 O109 1.279 . S
O108 Cd100 2.223 . S
O108 C107 1.315 . S
O109 Cd99 2.240 . S
O109 C107 1.279 . S
O110 Cd100 2.297 . S
O110 C105 1.247 . S
O111 Cd100 2.439 . S
O111 C105 1.208 . S
O112 Cd113 2.223 . S
O112 C120 1.315 . S
Cd113 O112 2.223 . S
Cd113 O116 2.297 . S
Cd113 O117 2.439 . S
Cd113 O123 2.240 . S
Cd114 O115 2.240 . S
Cd114 O122 2.223 . S
Cd114 O124 2.297 . S
Cd114 O125 2.439 . S
O115 Cd114 2.240 . S
O115 C120 1.279 . S
O116 Cd113 2.297 . S
O116 C118 1.247 . S
O117 Cd113 2.439 . S
O117 C118 1.208 . S
C118 O116 1.247 . S
C118 O117 1.208 . S
C119 O124 1.247 . S
C119 O125 1.208 . S
C120 O112 1.315 . S
C120 O115 1.279 . S
C121 O122 1.315 . S
C121 O123 1.279 . S
O122 Cd114 2.223 . S
O122 C121 1.315 . S
O123 Cd113 2.240 . S
O123 C121 1.279 . S
O124 Cd114 2.297 . S
O124 C119 1.247 . S
O125 Cd114 2.439 . S
O125 C119 1.208 . S
O126 Cd127 2.223 . S
O126 C134 1.315 . S
Cd127 O126 2.223 . S
Cd127 O130 2.297 . S
Cd127 O131 2.439 . S
Cd127 O137 2.240 . S
Cd128 O129 2.240 . S
Cd128 O136 2.223 . S
Cd128 O138 2.297 . S
Cd128 O139 2.439 . S
O129 Cd128 2.240 . S
O129 C134 1.279 . S
O130 Cd127 2.297 . S
O130 C132 1.247 . S
O131 Cd127 2.439 . S
O131 C132 1.208 . S
C132 O130 1.247 . S
C132 O131 1.208 . S
C133 O138 1.247 . S
C133 O139 1.208 . S
C134 O126 1.315 . S
C134 O129 1.279 . S
C135 O136 1.315 . S
C135 O137 1.279 . S
O136 Cd128 2.223 . S
O136 C135 1.315 . S
O137 Cd127 2.240 . S
O137 C135 1.279 . S
O138 Cd128 2.297 . S
O138 C133 1.247 . S
O139 Cd128 2.439 . S
O139 C133 1.208 . S
O140 Cd141 2.223 . S
O140 C148 1.315 . S
Cd141 O140 2.223 . S
Cd141 O144 2.297 1_455 S
Cd141 O145 2.439 1_455 S
Cd141 O151 2.240 . S
Cd142 O143 2.240 . S
Cd142 O150 2.223 . S
Cd142 O152 2.297 . S
Cd142 O153 2.439 . S
O143 Cd142 2.240 . S
O143 C148 1.279 . S
O144 Cd141 2.297 1_655 S
O144 C146 1.247 . S
O145 Cd141 2.439 1_655 S
O145 C146 1.208 . S
C146 O144 1.247 . S
C146 O145 1.208 . S
C147 O152 1.247 . S
C147 O153 1.208 . S
C148 O140 1.315 . S
C148 O143 1.279 . S
C149 O150 1.315 . S
C149 O151 1.279 . S
O150 Cd142 2.223 . S
O150 C149 1.315 . S
O151 Cd141 2.240 . S
O151 C149 1.279 . S
O152 Cd142 2.297 . S
O152 C147 1.247 . S
O153 Cd142 2.439 . S
O153 C147 1.208 . S
O154 Cd155 2.223 . S
O154 C162 1.315 . S
Cd155 O154 2.223 . S
Cd155 O158 2.297 1_545 S
Cd155 O159 2.439 1_545 S
Cd155 O165 2.240 . S
Cd156 O157 2.240 . S
Cd156 O164 2.223 . S
Cd156 O166 2.297 . S
Cd156 O167 2.439 . S
O157 Cd156 2.240 . S
O157 C162 1.279 . S
O158 Cd155 2.297 1_565 S
O158 C160 1.247 . S
O159 Cd155 2.439 1_565 S
O159 C160 1.208 . S
C160 O158 1.247 . S
C160 O159 1.208 . S
C161 O166 1.247 . S
C161 O167 1.208 . S
C162 O154 1.315 . S
C162 O157 1.279 . S
C163 O164 1.315 . S
C163 O165 1.279 . S
O164 Cd156 2.223 . S
O164 C163 1.315 . S
O165 Cd155 2.240 . S
O165 C163 1.279 . S
O166 Cd156 2.297 . S
O166 C161 1.247 . S
O167 Cd156 2.439 . S
O167 C161 1.208 . S
O168 Cd169 2.223 . S
O168 C176 1.315 . S
Cd169 O168 2.223 . S
Cd169 O172 2.297 . S
Cd169 O173 2.439 . S
Cd169 O179 2.240 . S
Cd170 O171 2.240 . S
Cd170 O178 2.223 . S
Cd170 O180 2.297 . S
Cd170 O181 2.439 . S
O171 Cd170 2.240 . S
O171 C176 1.279 . S
O172 Cd169 2.297 . S
O172 C174 1.247 . S
O173 Cd169 2.439 . S
O173 C174 1.208 . S
C174 O172 1.247 . S
C174 O173 1.208 . S
C175 O180 1.247 . S
C175 O181 1.208 . S
C176 O168 1.315 . S
C176 O171 1.279 . S
C177 O178 1.315 . S
C177 O179 1.279 . S
O178 Cd170 2.223 . S
O178 C177 1.315 . S
O179 Cd169 2.240 . S
O179 C177 1.279 . S
O180 Cd170 2.297 . S
O180 C175 1.247 . S
O181 Cd170 2.439 . S
O181 C175 1.208 . S
O182 Cd183 2.223 . S
O182 C190 1.315 . S
Cd183 O182 2.223 . S
Cd183 O186 2.297 . S
Cd183 O187 2.439 . S
Cd183 O193 2.240 . S
Cd184 O185 2.240 . S
Cd184 O192 2.223 . S
Cd184 O194 2.297 . S
Cd184 O195 2.439 . S
O185 Cd184 2.240 . S
O185 C190 1.279 . S
O186 Cd183 2.297 . S
O186 C188 1.247 . S
O187 Cd183 2.439 . S
O187 C188 1.208 . S
C188 O186 1.247 . S
C188 O187 1.208 . S
C189 O194 1.247 . S
C189 O195 1.208 . S
C190 O182 1.315 . S
C190 O185 1.279 . S
C191 O192 1.315 . S
C191 O193 1.279 . S
O192 Cd184 2.223 . S
O192 C191 1.315 . S
O193 Cd183 2.240 . S
O193 C191 1.279 . S
O194 Cd184 2.297 . S
O194 C189 1.247 . S
O195 Cd184 2.439 . S
O195 C189 1.208 . S
O196 Cd197 2.223 . S
O196 C204 1.315 . S
Cd197 O196 2.223 . S
Cd197 O200 2.297 1_455 S
Cd197 O201 2.439 1_455 S
Cd197 O207 2.240 . S
Cd198 O199 2.240 . S
Cd198 O206 2.223 . S
Cd198 O208 2.297 . S
Cd198 O209 2.439 . S
O199 Cd198 2.240 . S
O199 C204 1.279 . S
O200 Cd197 2.297 1_655 S
O200 C202 1.247 . S
O201 Cd197 2.439 1_655 S
O201 C202 1.208 . S
C202 O200 1.247 . S
C202 O201 1.208 . S
C203 O208 1.247 . S
C203 O209 1.208 . S
C204 O196 1.315 . S
C204 O199 1.279 . S
C205 O206 1.315 . S
C205 O207 1.279 . S
O206 Cd198 2.223 . S
O206 C205 1.315 . S
O207 Cd197 2.240 . S
O207 C205 1.279 . S
O208 Cd198 2.297 . S
O208 C203 1.247 . S
O209 Cd198 2.439 . S
O209 C203 1.208 . S
O210 Cd211 2.223 . S
O210 C218 1.315 . S
Cd211 O210 2.223 . S
Cd211 O214 2.297 1_545 S
Cd211 O215 2.439 1_545 S
Cd211 O221 2.240 . S
Cd212 O213 2.240 . S
Cd212 O220 2.223 . S
Cd212 O222 2.297 . S
Cd212 O223 2.439 . S
O213 Cd212 2.240 . S
O213 C218 1.279 . S
O214 Cd211 2.297 1_565 S
O214 C216 1.247 . S
O215 Cd211 2.439 1_565 S
O215 C216 1.208 . S
C216 O214 1.247 . S
C216 O215 1.208 . S
C217 O222 1.247 . S
C217 O223 1.208 . S
C218 O210 1.315 . S
C218 O213 1.279 . S
C219 O220 1.315 . S
C219 O221 1.279 . S
O220 Cd212 2.223 . S
O220 C219 1.315 . S
O221 Cd211 2.240 . S
O221 C219 1.279 . S
O222 Cd212 2.297 . S
O222 C217 1.247 . S
O223 Cd212 2.439 . S
O223 C217 1.208 . S
H224 C230 0.930 . S
H225 C234 0.930 . S
H226 C239 0.929 . S
H227 C237 0.929 . S
H228 C232 0.929 . S
H229 C238 0.929 . S
C230 H224 0.930 . S
C230 C231 1.367 . S
C230 C238 1.378 . S
C231 C230 1.367 . S
C231 C239 1.433 . S
C232 H228 0.929 . S
C232 C234 1.378 . S
C232 C236 1.350 . S
C233 C236 1.463 . S
C233 C238 1.350 . S
C233 N241 1.427 . S
C234 H225 0.930 . S
C234 C232 1.378 . S
C234 C235 1.367 . S
C235 C234 1.367 . S
C235 C237 1.433 . S
C236 C232 1.350 . S
C236 C233 1.463 . S
C236 N240 1.427 . S
C237 H227 0.929 . S
C237 C235 1.433 . S
C237 N240 1.384 . S
C238 H229 0.929 . S
C238 C230 1.378 . S
C238 C233 1.350 . S
C239 H226 0.929 . S
C239 C231 1.433 . S
C239 N241 1.384 . S
N240 C236 1.427 . S
N240 C237 1.384 . S
N241 C233 1.427 . S
N241 C239 1.384 . S
H242 C248 0.930 . S
H243 C252 0.930 . S
H244 C257 0.929 . S
H245 C255 0.929 . S
H246 C250 0.929 . S
H247 C256 0.929 . S
C248 H242 0.930 . S
C248 C249 1.367 . S
C248 C256 1.378 . S
C249 C248 1.367 . S
C249 C257 1.433 . S
C250 H246 0.929 . S
C250 C252 1.378 . S
C250 C254 1.350 . S
C251 C254 1.463 . S
C251 C256 1.350 . S
C251 N259 1.427 . S
C252 H243 0.930 . S
C252 C250 1.378 . S
C252 C253 1.367 . S
C253 C252 1.367 . S
C253 C255 1.433 . S
C254 C250 1.350 . S
C254 C251 1.463 . S
C254 N258 1.427 . S
C255 H245 0.929 . S
C255 C253 1.433 . S
C255 N258 1.384 . S
C256 H247 0.929 . S
C256 C248 1.378 . S
C256 C251 1.350 . S
C257 H244 0.929 . S
C257 C249 1.433 . S
C257 N259 1.384 . S
N258 C254 1.427 . S
N258 C255 1.384 . S
N259 C251 1.427 . S
N259 C257 1.384 . S
H260 C266 0.930 . S
H261 C270 0.930 . S
H262 C275 0.929 . S
H263 C273 0.929 . S
H264 C268 0.929 . S
H265 C274 0.929 . S
C266 H260 0.930 . S
C266 C267 1.367 . S
C266 C274 1.378 . S
C267 C266 1.367 . S
C267 C275 1.433 . S
C268 H264 0.929 . S
C268 C270 1.378 . S
C268 C272 1.350 . S
C269 C272 1.463 . S
C269 C274 1.350 . S
C269 N277 1.427 . S
C270 H261 0.930 . S
C270 C268 1.378 . S
C270 C271 1.367 . S
C271 C270 1.367 . S
C271 C273 1.433 . S
C272 C268 1.350 . S
C272 C269 1.463 . S
C272 N276 1.427 . S
C273 H263 0.929 . S
C273 C271 1.433 . S
C273 N276 1.384 . S
C274 H265 0.929 . S
C274 C266 1.378 . S
C274 C269 1.350 . S
C275 H262 0.929 . S
C275 C267 1.433 . S
C275 N277 1.384 . S
N276 C272 1.427 . S
N276 C273 1.384 . S
N277 C269 1.427 . S
N277 C275 1.384 . S
H278 C284 0.930 . S
H279 C288 0.930 . S
H280 C293 0.929 . S
H281 C291 0.929 . S
H282 C286 0.929 . S
H283 C292 0.929 . S
C284 H278 0.930 . S
C284 C285 1.367 . S
C284 C292 1.378 . S
C285 C284 1.367 . S
C285 C293 1.433 . S
C286 H282 0.929 . S
C286 C288 1.378 . S
C286 C290 1.350 . S
C287 C290 1.463 . S
C287 C292 1.350 . S
C287 N295 1.427 . S
C288 H279 0.930 . S
C288 C286 1.378 . S
C288 C289 1.367 . S
C289 C288 1.367 . S
C289 C291 1.433 . S
C290 C286 1.350 . S
C290 C287 1.463 . S
C290 N294 1.427 . S
C291 H281 0.929 . S
C291 C289 1.433 . S
C291 N294 1.384 . S
C292 H283 0.929 . S
C292 C284 1.378 . S
C292 C287 1.350 . S
C293 H280 0.929 . S
C293 C285 1.433 . S
C293 N295 1.384 . S
N294 C290 1.427 . S
N294 C291 1.384 . S
N295 C287 1.427 . S
N295 C293 1.384 . S
H296 C302 0.930 . S
H297 C306 0.930 . S
H298 C311 0.929 . S
H299 C309 0.929 . S
H300 C304 0.929 . S
H301 C310 0.929 . S
C302 H296 0.930 . S
C302 C303 1.367 . S
C302 C310 1.378 . S
C303 C302 1.367 . S
C303 C311 1.433 . S
C304 H300 0.929 . S
C304 C306 1.378 . S
C304 C308 1.350 . S
C305 C308 1.463 . S
C305 C310 1.350 . S
C305 N313 1.427 . S
C306 H297 0.930 . S
C306 C304 1.378 . S
C306 C307 1.367 . S
C307 C306 1.367 . S
C307 C309 1.433 . S
C308 C304 1.350 . S
C308 C305 1.463 . S
C308 N312 1.427 . S
C309 H299 0.929 . S
C309 C307 1.433 . S
C309 N312 1.384 . S
C310 H301 0.929 . S
C310 C302 1.378 . S
C310 C305 1.350 . S
C311 H298 0.929 . S
C311 C303 1.433 . S
C311 N313 1.384 . S
N312 C308 1.427 . S
N312 C309 1.384 . S
N313 C305 1.427 . S
N313 C311 1.384 . S
H314 C320 0.930 . S
H315 C324 0.930 . S
H316 C329 0.929 . S
H317 C327 0.929 . S
H318 C322 0.929 . S
H319 C328 0.929 . S
C320 H314 0.930 . S
C320 C321 1.367 . S
C320 C328 1.378 . S
C321 C320 1.367 . S
C321 C329 1.433 . S
C322 H318 0.929 . S
C322 C324 1.378 . S
C322 C326 1.350 . S
C323 C326 1.463 . S
C323 C328 1.350 . S
C323 N331 1.427 . S
C324 H315 0.930 . S
C324 C322 1.378 . S
C324 C325 1.367 . S
C325 C324 1.367 . S
C325 C327 1.433 . S
C326 C322 1.350 . S
C326 C323 1.463 . S
C326 N330 1.427 . S
C327 H317 0.929 . S
C327 C325 1.433 . S
C327 N330 1.384 . S
C328 H319 0.929 . S
C328 C320 1.378 . S
C328 C323 1.350 . S
C329 H316 0.929 . S
C329 C321 1.433 . S
C329 N331 1.384 . S
N330 C326 1.427 . S
N330 C327 1.384 . S
N331 C323 1.427 . S
N331 C329 1.384 . S
H332 C338 0.930 . S
H333 C342 0.930 . S
H334 C347 0.929 . S
H335 C345 0.929 . S
H336 C340 0.929 . S
H337 C346 0.929 . S
C338 H332 0.930 . S
C338 C339 1.367 . S
C338 C346 1.378 . S
C339 C338 1.367 . S
C339 C347 1.433 . S
C340 H336 0.929 . S
C340 C342 1.378 . S
C340 C344 1.350 . S
C341 C344 1.463 . S
C341 C346 1.350 . S
C341 N349 1.427 . S
C342 H333 0.930 . S
C342 C340 1.378 . S
C342 C343 1.367 . S
C343 C342 1.367 . S
C343 C345 1.433 . S
C344 C340 1.350 . S
C344 C341 1.463 . S
C344 N348 1.427 . S
C345 H335 0.929 . S
C345 C343 1.433 . S
C345 N348 1.384 . S
C346 H337 0.929 . S
C346 C338 1.378 . S
C346 C341 1.350 . S
C347 H334 0.929 . S
C347 C339 1.433 . S
C347 N349 1.384 . S
N348 C344 1.427 . S
N348 C345 1.384 . S
N349 C341 1.427 . S
N349 C347 1.384 . S
H350 C356 0.930 . S
H351 C360 0.930 . S
H352 C365 0.929 . S
H353 C363 0.929 . S
H354 C358 0.929 . S
H355 C364 0.929 . S
C356 H350 0.930 . S
C356 C357 1.367 . S
C356 C364 1.378 . S
C357 C356 1.367 . S
C357 C365 1.433 . S
C358 H354 0.929 . S
C358 C360 1.378 . S
C358 C362 1.350 . S
C359 C362 1.463 . S
C359 C364 1.350 . S
C359 N367 1.427 . S
C360 H351 0.930 . S
C360 C358 1.378 . S
C360 C361 1.367 . S
C361 C360 1.367 . S
C361 C363 1.433 . S
C362 C358 1.350 . S
C362 C359 1.463 . S
C362 N366 1.427 . S
C363 H353 0.929 . S
C363 C361 1.433 . S
C363 N366 1.384 . S
C364 H355 0.929 . S
C364 C356 1.378 . S
C364 C359 1.350 . S
C365 H352 0.929 . S
C365 C357 1.433 . S
C365 N367 1.384 . S
N366 C362 1.427 . S
N366 C363 1.384 . S
N367 C359 1.427 . S
N367 C365 1.384 . S
H368 C374 0.930 . S
H369 C378 0.930 . S
H370 C383 0.929 . S
H371 C381 0.929 . S
H372 C376 0.929 . S
H373 C382 0.929 . S
C374 H368 0.930 . S
C374 C375 1.367 . S
C374 C382 1.378 . S
C375 C374 1.367 . S
C375 C383 1.433 . S
C376 H372 0.929 . S
C376 C378 1.378 . S
C376 C380 1.350 . S
C377 C380 1.463 . S
C377 C382 1.350 . S
C377 N385 1.427 . S
C378 H369 0.930 . S
C378 C376 1.378 . S
C378 C379 1.367 . S
C379 C378 1.367 . S
C379 C381 1.433 . S
C380 C376 1.350 . S
C380 C377 1.463 . S
C380 N384 1.427 . S
C381 H371 0.929 . S
C381 C379 1.433 . S
C381 N384 1.384 . S
C382 H373 0.929 . S
C382 C374 1.378 . S
C382 C377 1.350 . S
C383 H370 0.929 . S
C383 C375 1.433 . S
C383 N385 1.384 . S
N384 C380 1.427 . S
N384 C381 1.384 . S
N385 C377 1.427 . S
N385 C383 1.384 . S
H386 C392 0.930 . S
H387 C396 0.930 . S
H388 C401 0.929 . S
H389 C399 0.929 . S
H390 C394 0.929 . S
H391 C400 0.929 . S
C392 H386 0.930 . S
C392 C393 1.367 . S
C392 C400 1.378 . S
C393 C392 1.367 . S
C393 C401 1.433 . S
C394 H390 0.929 . S
C394 C396 1.378 . S
C394 C398 1.350 . S
C395 C398 1.463 . S
C395 C400 1.350 . S
C395 N403 1.427 . S
C396 H387 0.930 . S
C396 C394 1.378 . S
C396 C397 1.367 . S
C397 C396 1.367 . S
C397 C399 1.433 . S
C398 C394 1.350 . S
C398 C395 1.463 . S
C398 N402 1.427 . S
C399 H389 0.929 . S
C399 C397 1.433 . S
C399 N402 1.384 . S
C400 H391 0.929 . S
C400 C392 1.378 . S
C400 C395 1.350 . S
C401 H388 0.929 . S
C401 C393 1.433 . S
C401 N403 1.384 . S
N402 C398 1.427 . S
N402 C399 1.384 . S
N403 C395 1.427 . S
N403 C401 1.384 . S
H404 C410 0.930 . S
H405 C414 0.930 . S
H406 C419 0.929 . S
H407 C417 0.929 . S
H408 C412 0.929 . S
H409 C418 0.929 . S
C410 H404 0.930 . S
C410 C411 1.367 . S
C410 C418 1.378 . S
C411 C410 1.367 . S
C411 C419 1.433 . S
C412 H408 0.929 . S
C412 C414 1.378 . S
C412 C416 1.350 . S
C413 C416 1.463 . S
C413 C418 1.350 . S
C413 N421 1.427 . S
C414 H405 0.930 . S
C414 C412 1.378 . S
C414 C415 1.367 . S
C415 C414 1.367 . S
C415 C417 1.433 . S
C416 C412 1.350 . S
C416 C413 1.463 . S
C416 N420 1.427 . S
C417 H407 0.929 . S
C417 C415 1.433 . S
C417 N420 1.384 . S
C418 H409 0.929 . S
C418 C410 1.378 . S
C418 C413 1.350 . S
C419 H406 0.929 . S
C419 C411 1.433 . S
C419 N421 1.384 . S
N420 C416 1.427 . S
N420 C417 1.384 . S
N421 C413 1.427 . S
N421 C419 1.384 . S
H422 C428 0.930 . S
H423 C432 0.930 . S
H424 C437 0.929 . S
H425 C435 0.929 . S
H426 C430 0.929 . S
H427 C436 0.929 . S
C428 H422 0.930 . S
C428 C429 1.367 . S
C428 C436 1.378 . S
C429 C428 1.367 . S
C429 C437 1.433 . S
C430 H426 0.929 . S
C430 C432 1.378 . S
C430 C434 1.350 . S
C431 C434 1.463 . S
C431 C436 1.350 . S
C431 N439 1.427 . S
C432 H423 0.930 . S
C432 C430 1.378 . S
C432 C433 1.367 . S
C433 C432 1.367 . S
C433 C435 1.433 . S
C434 C430 1.350 . S
C434 C431 1.463 . S
C434 N438 1.427 . S
C435 H425 0.929 . S
C435 C433 1.433 . S
C435 N438 1.384 . S
C436 H427 0.929 . S
C436 C428 1.378 . S
C436 C431 1.350 . S
C437 H424 0.929 . S
C437 C429 1.433 . S
C437 N439 1.384 . S
N438 C434 1.427 . S
N438 C435 1.384 . S
N439 C431 1.427 . S
N439 C437 1.384 . S
H440 C446 0.930 . S
H441 C450 0.930 . S
H442 C455 0.929 . S
H443 C453 0.929 . S
H444 C448 0.929 . S
H445 C454 0.929 . S
C446 H440 0.930 . S
C446 C447 1.367 . S
C446 C454 1.378 . S
C447 C446 1.367 . S
C447 C455 1.433 . S
C448 H444 0.929 . S
C448 C450 1.378 . S
C448 C452 1.350 . S
C449 C452 1.463 . S
C449 C454 1.350 . S
C449 N457 1.427 . S
C450 H441 0.930 . S
C450 C448 1.378 . S
C450 C451 1.367 . S
C451 C450 1.367 . S
C451 C453 1.433 . S
C452 C448 1.350 . S
C452 C449 1.463 . S
C452 N456 1.427 . S
C453 H443 0.929 . S
C453 C451 1.433 . S
C453 N456 1.384 . S
C454 H445 0.929 . S
C454 C446 1.378 . S
C454 C449 1.350 . S
C455 H442 0.929 . S
C455 C447 1.433 . S
C455 N457 1.384 . S
N456 C452 1.427 . S
N456 C453 1.384 . S
N457 C449 1.427 . S
N457 C455 1.384 . S
H458 C464 0.930 . S
H459 C468 0.930 . S
H460 C473 0.929 . S
H461 C471 0.929 . S
H462 C466 0.929 . S
H463 C472 0.929 . S
C464 H458 0.930 . S
C464 C465 1.367 . S
C464 C472 1.378 . S
C465 C464 1.367 . S
C465 C473 1.433 . S
C466 H462 0.929 . S
C466 C468 1.378 . S
C466 C470 1.350 . S
C467 C470 1.463 . S
C467 C472 1.350 . S
C467 N475 1.427 . S
C468 H459 0.930 . S
C468 C466 1.378 . S
C468 C469 1.367 . S
C469 C468 1.367 . S
C469 C471 1.433 . S
C470 C466 1.350 . S
C470 C467 1.463 . S
C470 N474 1.427 . S
C471 H461 0.929 . S
C471 C469 1.433 . S
C471 N474 1.384 . S
C472 H463 0.929 . S
C472 C464 1.378 . S
C472 C467 1.350 . S
C473 H460 0.929 . S
C473 C465 1.433 . S
C473 N475 1.384 . S
N474 C470 1.427 . S
N474 C471 1.384 . S
N475 C467 1.427 . S
N475 C473 1.384 . S
H476 C482 0.930 . S
H477 C486 0.930 . S
H478 C491 0.929 . S
H479 C489 0.929 . S
H480 C484 0.929 . S
H481 C490 0.929 . S
C482 H476 0.930 . S
C482 C483 1.367 . S
C482 C490 1.378 . S
C483 C482 1.367 . S
C483 C491 1.433 . S
C484 H480 0.929 . S
C484 C486 1.378 . S
C484 C488 1.350 . S
C485 C488 1.463 . S
C485 C490 1.350 . S
C485 N493 1.427 . S
C486 H477 0.930 . S
C486 C484 1.378 . S
C486 C487 1.367 . S
C487 C486 1.367 . S
C487 C489 1.433 . S
C488 C484 1.350 . S
C488 C485 1.463 . S
C488 N492 1.427 . S
C489 H479 0.929 . S
C489 C487 1.433 . S
C489 N492 1.384 . S
C490 H481 0.929 . S
C490 C482 1.378 . S
C490 C485 1.350 . S
C491 H478 0.929 . S
C491 C483 1.433 . S
C491 N493 1.384 . S
N492 C488 1.427 . S
N492 C489 1.384 . S
N493 C485 1.427 . S
N493 C491 1.384 . S
H494 C500 0.930 . S
H495 C504 0.930 . S
H496 C509 0.929 . S
H497 C507 0.929 . S
H498 C502 0.929 . S
H499 C508 0.929 . S
C500 H494 0.930 . S
C500 C501 1.367 . S
C500 C508 1.378 . S
C501 C500 1.367 . S
C501 C509 1.433 . S
C502 H498 0.929 . S
C502 C504 1.378 . S
C502 C506 1.350 . S
C503 C506 1.463 . S
C503 C508 1.350 . S
C503 N511 1.427 . S
C504 H495 0.930 . S
C504 C502 1.378 . S
C504 C505 1.367 . S
C505 C504 1.367 . S
C505 C507 1.433 . S
C506 C502 1.350 . S
C506 C503 1.463 . S
C506 N510 1.427 . S
C507 H497 0.929 . S
C507 C505 1.433 . S
C507 N510 1.384 . S
C508 H499 0.929 . S
C508 C500 1.378 . S
C508 C503 1.350 . S
C509 H496 0.929 . S
C509 C501 1.433 . S
C509 N511 1.384 . S
N510 C506 1.427 . S
N510 C507 1.384 . S
N511 C503 1.427 . S
N511 C509 1.384 . S
H512 C518 0.930 . S
H513 C522 0.930 . S
H514 C527 0.929 . S
H515 C525 0.929 . S
H516 C520 0.929 . S
H517 C526 0.929 . S
C518 H512 0.930 . S
C518 C519 1.367 . S
C518 C526 1.378 . S
C519 C518 1.367 . S
C519 C527 1.433 . S
C520 H516 0.929 . S
C520 C522 1.378 . S
C520 C524 1.350 . S
C521 C524 1.463 . S
C521 C526 1.350 . S
C521 N529 1.427 . S
C522 H513 0.930 . S
C522 C520 1.378 . S
C522 C523 1.367 . S
C523 C522 1.367 . S
C523 C525 1.433 . S
C524 C520 1.350 . S
C524 C521 1.463 . S
C524 N528 1.427 . S
C525 H515 0.929 . S
C525 C523 1.433 . S
C525 N528 1.384 . S
C526 H517 0.929 . S
C526 C518 1.378 . S
C526 C521 1.350 . S
C527 H514 0.929 . S
C527 C519 1.433 . S
C527 N529 1.384 . S
N528 C524 1.427 . S
N528 C525 1.384 . S
N529 C521 1.427 . S
N529 C527 1.384 . S
H530 C536 0.930 . S
H531 C540 0.930 . S
H532 C545 0.929 . S
H533 C543 0.929 . S
H534 C538 0.929 . S
H535 C544 0.929 . S
C536 H530 0.930 . S
C536 C537 1.367 . S
C536 C544 1.378 . S
C537 C536 1.367 . S
C537 C545 1.433 . S
C538 H534 0.929 . S
C538 C540 1.378 . S
C538 C542 1.350 . S
C539 C542 1.463 . S
C539 C544 1.350 . S
C539 N547 1.427 . S
C540 H531 0.930 . S
C540 C538 1.378 . S
C540 C541 1.367 . S
C541 C540 1.367 . S
C541 C543 1.433 . S
C542 C538 1.350 . S
C542 C539 1.463 . S
C542 N546 1.427 . S
C543 H533 0.929 . S
C543 C541 1.433 . S
C543 N546 1.384 . S
C544 H535 0.929 . S
C544 C536 1.378 . S
C544 C539 1.350 . S
C545 H532 0.929 . S
C545 C537 1.433 . S
C545 N547 1.384 . S
N546 C542 1.427 . S
N546 C543 1.384 . S
N547 C539 1.427 . S
N547 C545 1.384 . S
H548 C554 0.930 . S
H549 C558 0.930 . S
H550 C563 0.929 . S
H551 C561 0.929 . S
H552 C556 0.929 . S
H553 C562 0.929 . S
C554 H548 0.930 . S
C554 C555 1.367 . S
C554 C562 1.378 . S
C555 C554 1.367 . S
C555 C563 1.433 . S
C556 H552 0.929 . S
C556 C558 1.378 . S
C556 C560 1.350 . S
C557 C560 1.463 . S
C557 C562 1.350 . S
C557 N565 1.427 . S
C558 H549 0.930 . S
C558 C556 1.378 . S
C558 C559 1.367 . S
C559 C558 1.367 . S
C559 C561 1.433 . S
C560 C556 1.350 . S
C560 C557 1.463 . S
C560 N564 1.427 . S
C561 H551 0.929 . S
C561 C559 1.433 . S
C561 N564 1.384 . S
C562 H553 0.929 . S
C562 C554 1.378 . S
C562 C557 1.350 . S
C563 H550 0.929 . S
C563 C555 1.433 . S
C563 N565 1.384 . S
N564 C560 1.427 . S
N564 C561 1.384 . S
N565 C557 1.427 . S
N565 C563 1.384 . S
H566 C572 0.930 . S
H567 C576 0.930 . S
H568 C581 0.929 . S
H569 C579 0.929 . S
H570 C574 0.929 . S
H571 C580 0.929 . S
C572 H566 0.930 . S
C572 C573 1.367 . S
C572 C580 1.378 . S
C573 C572 1.367 . S
C573 C581 1.433 . S
C574 H570 0.929 . S
C574 C576 1.378 . S
C574 C578 1.350 . S
C575 C578 1.463 . S
C575 C580 1.350 . S
C575 N583 1.427 . S
C576 H567 0.930 . S
C576 C574 1.378 . S
C576 C577 1.367 . S
C577 C576 1.367 . S
C577 C579 1.433 . S
C578 C574 1.350 . S
C578 C575 1.463 . S
C578 N582 1.427 . S
C579 H569 0.929 . S
C579 C577 1.433 . S
C579 N582 1.384 . S
C580 H571 0.929 . S
C580 C572 1.378 . S
C580 C575 1.350 . S
C581 H568 0.929 . S
C581 C573 1.433 . S
C581 N583 1.384 . S
N582 C578 1.427 . S
N582 C579 1.384 . S
N583 C575 1.427 . S
N583 C581 1.384 . S
H584 C590 0.930 . S
H585 C594 0.930 . S
H586 C599 0.929 . S
H587 C597 0.929 . S
H588 C592 0.929 . S
H589 C598 0.929 . S
C590 H584 0.930 . S
C590 C591 1.367 . S
C590 C598 1.378 . S
C591 C590 1.367 . S
C591 C599 1.433 . S
C592 H588 0.929 . S
C592 C594 1.378 . S
C592 C596 1.350 . S
C593 C596 1.463 . S
C593 C598 1.350 . S
C593 N601 1.427 . S
C594 H585 0.930 . S
C594 C592 1.378 . S
C594 C595 1.367 . S
C595 C594 1.367 . S
C595 C597 1.433 . S
C596 C592 1.350 . S
C596 C593 1.463 . S
C596 N600 1.427 . S
C597 H587 0.929 . S
C597 C595 1.433 . S
C597 N600 1.384 . S
C598 H589 0.929 . S
C598 C590 1.378 . S
C598 C593 1.350 . S
C599 H586 0.929 . S
C599 C591 1.433 . S
C599 N601 1.384 . S
N600 C596 1.427 . S
N600 C597 1.384 . S
N601 C593 1.427 . S
N601 C599 1.384 . S
H602 C608 0.930 . S
H603 C612 0.930 . S
H604 C617 0.929 . S
H605 C615 0.929 . S
H606 C610 0.929 . S
H607 C616 0.929 . S
C608 H602 0.930 . S
C608 C609 1.367 . S
C608 C616 1.378 . S
C609 C608 1.367 . S
C609 C617 1.433 . S
C610 H606 0.929 . S
C610 C612 1.378 . S
C610 C614 1.350 . S
C611 C614 1.463 . S
C611 C616 1.350 . S
C611 N619 1.427 . S
C612 H603 0.930 . S
C612 C610 1.378 . S
C612 C613 1.367 . S
C613 C612 1.367 . S
C613 C615 1.433 . S
C614 C610 1.350 . S
C614 C611 1.463 . S
C614 N618 1.427 . S
C615 H605 0.929 . S
C615 C613 1.433 . S
C615 N618 1.384 . S
C616 H607 0.929 . S
C616 C608 1.378 . S
C616 C611 1.350 . S
C617 H604 0.929 . S
C617 C609 1.433 . S
C617 N619 1.384 . S
N618 C614 1.427 . S
N618 C615 1.384 . S
N619 C611 1.427 . S
N619 C617 1.384 . S
H620 C626 0.930 . S
H621 C630 0.930 . S
H622 C635 0.929 . S
H623 C633 0.929 . S
H624 C628 0.929 . S
H625 C634 0.929 . S
C626 H620 0.930 . S
C626 C627 1.367 . S
C626 C634 1.378 . S
C627 C626 1.367 . S
C627 C635 1.433 . S
C628 H624 0.929 . S
C628 C630 1.378 . S
C628 C632 1.350 . S
C629 C632 1.463 . S
C629 C634 1.350 . S
C629 N637 1.427 . S
C630 H621 0.930 . S
C630 C628 1.378 . S
C630 C631 1.367 . S
C631 C630 1.367 . S
C631 C633 1.433 . S
C632 C628 1.350 . S
C632 C629 1.463 . S
C632 N636 1.427 . S
C633 H623 0.929 . S
C633 C631 1.433 . S
C633 N636 1.384 . S
C634 H625 0.929 . S
C634 C626 1.378 . S
C634 C629 1.350 . S
C635 H622 0.929 . S
C635 C627 1.433 . S
C635 N637 1.384 . S
N636 C632 1.427 . S
N636 C633 1.384 . S
N637 C629 1.427 . S
N637 C635 1.384 . S
H638 C644 0.930 . S
H639 C648 0.930 . S
H640 C653 0.929 . S
H641 C651 0.929 . S
H642 C646 0.929 . S
H643 C652 0.929 . S
C644 H638 0.930 . S
C644 C645 1.367 . S
C644 C652 1.378 . S
C645 C644 1.367 . S
C645 C653 1.433 . S
C646 H642 0.929 . S
C646 C648 1.378 . S
C646 C650 1.350 . S
C647 C650 1.463 . S
C647 C652 1.350 . S
C647 N655 1.427 . S
C648 H639 0.930 . S
C648 C646 1.378 . S
C648 C649 1.367 . S
C649 C648 1.367 . S
C649 C651 1.433 . S
C650 C646 1.350 . S
C650 C647 1.463 . S
C650 N654 1.427 . S
C651 H641 0.929 . S
C651 C649 1.433 . S
C651 N654 1.384 . S
C652 H643 0.929 . S
C652 C644 1.378 . S
C652 C647 1.350 . S
C653 H640 0.929 . S
C653 C645 1.433 . S
C653 N655 1.384 . S
N654 C650 1.427 . S
N654 C651 1.384 . S
N655 C647 1.427 . S
N655 C653 1.384 . S
H656 C662 0.930 . S
H657 C666 0.930 . S
H658 C671 0.929 . S
H659 C669 0.929 . S
H660 C664 0.929 . S
H661 C670 0.929 . S
C662 H656 0.930 . S
C662 C663 1.367 . S
C662 C670 1.378 . S
C663 C662 1.367 . S
C663 C671 1.433 . S
C664 H660 0.929 . S
C664 C666 1.378 . S
C664 C668 1.350 . S
C665 C668 1.463 1_554 S
C665 C670 1.350 . S
C665 N673 1.427 . S
C666 H657 0.930 . S
C666 C664 1.378 . S
C666 C667 1.367 . S
C667 C666 1.367 . S
C667 C669 1.433 . S
C668 C664 1.350 . S
C668 C665 1.463 1_556 S
C668 N672 1.427 . S
C669 H659 0.929 . S
C669 C667 1.433 . S
C669 N672 1.384 . S
C670 H661 0.929 . S
C670 C662 1.378 . S
C670 C665 1.350 . S
C671 H658 0.929 . S
C671 C663 1.433 . S
C671 N673 1.384 . S
N672 C668 1.427 . S
N672 C669 1.384 . S
N673 C665 1.427 . S
N673 C671 1.384 . S
H674 C680 0.930 . S
H675 C684 0.930 . S
H676 C689 0.929 . S
H677 C687 0.929 . S
H678 C682 0.929 . S
H679 C688 0.929 . S
C680 H674 0.930 . S
C680 C681 1.367 . S
C680 C688 1.378 . S
C681 C680 1.367 . S
C681 C689 1.433 . S
C682 H678 0.929 . S
C682 C684 1.378 . S
C682 C686 1.350 . S
C683 C686 1.463 . S
C683 C688 1.350 . S
C683 N691 1.427 . S
C684 H675 0.930 . S
C684 C682 1.378 . S
C684 C685 1.367 . S
C685 C684 1.367 . S
C685 C687 1.433 . S
C686 C682 1.350 . S
C686 C683 1.463 . S
C686 N690 1.427 . S
C687 H677 0.929 . S
C687 C685 1.433 . S
C687 N690 1.384 . S
C688 H679 0.929 . S
C688 C680 1.378 . S
C688 C683 1.350 . S
C689 H676 0.929 . S
C689 C681 1.433 . S
C689 N691 1.384 . S
N690 C686 1.427 . S
N690 C687 1.384 . S
N691 C683 1.427 . S
N691 C689 1.384 . S
H692 C698 0.930 . S
H693 C702 0.930 1_455 S
H694 C707 0.929 1_455 S
H695 C705 0.929 . S
H696 C700 0.929 1_455 S
H697 C706 0.929 . S
C698 H692 0.930 . S
C698 C699 1.367 . S
C698 C706 1.378 . S
C699 C698 1.367 . S
C699 C707 1.433 . S
C700 H696 0.929 1_655 S
C700 C702 1.378 . S
C700 C704 1.350 . S
C701 C704 1.463 1_554 S
C701 C706 1.350 . S
C701 N709 1.427 . S
C702 H693 0.930 1_655 S
C702 C700 1.378 . S
C702 C703 1.367 . S
C703 C702 1.367 . S
C703 C705 1.433 . S
C704 C700 1.350 . S
C704 C701 1.463 1_556 S
C704 N708 1.427 . S
C705 H695 0.929 . S
C705 C703 1.433 . S
C705 N708 1.384 . S
C706 H697 0.929 . S
C706 C698 1.378 . S
C706 C701 1.350 . S
C707 H694 0.929 1_655 S
C707 C699 1.433 . S
C707 N709 1.384 . S
N708 C704 1.427 . S
N708 C705 1.384 . S
N709 C701 1.427 . S
N709 C707 1.384 . S
H710 C716 0.930 1_545 S
H711 C720 0.930 . S
H712 C725 0.929 . S
H713 C723 0.929 1_545 S
H714 C718 0.929 . S
H715 C724 0.929 1_545 S
C716 H710 0.930 1_565 S
C716 C717 1.367 . S
C716 C724 1.378 . S
C717 C716 1.367 . S
C717 C725 1.433 . S
C718 H714 0.929 . S
C718 C720 1.378 . S
C718 C722 1.350 . S
C719 C722 1.463 . S
C719 C724 1.350 . S
C719 N727 1.427 . S
C720 H711 0.930 . S
C720 C718 1.378 . S
C720 C721 1.367 . S
C721 C720 1.367 . S
C721 C723 1.433 . S
C722 C718 1.350 . S
C722 C719 1.463 . S
C722 N726 1.427 . S
C723 H713 0.929 1_565 S
C723 C721 1.433 . S
C723 N726 1.384 . S
C724 H715 0.929 1_565 S
C724 C716 1.378 . S
C724 C719 1.350 . S
C725 H712 0.929 . S
C725 C717 1.433 . S
C725 N727 1.384 . S
N726 C722 1.427 . S
N726 C723 1.384 . S
N727 C719 1.427 . S
N727 C725 1.384 . S
H728 C734 0.930 . S
H729 C738 0.930 . S
H730 C743 0.929 . S
H731 C741 0.929 . S
H732 C736 0.929 . S
H733 C742 0.929 . S
C734 H728 0.930 . S
C734 C735 1.367 . S
C734 C742 1.378 . S
C735 C734 1.367 . S
C735 C743 1.433 . S
C736 H732 0.929 . S
C736 C738 1.378 . S
C736 C740 1.350 . S
C737 C740 1.463 1_556 S
C737 C742 1.350 . S
C737 N745 1.427 . S
C738 H729 0.930 . S
C738 C736 1.378 . S
C738 C739 1.367 . S
C739 C738 1.367 . S
C739 C741 1.433 . S
C740 C736 1.350 . S
C740 C737 1.463 1_554 S
C740 N744 1.427 . S
C741 H731 0.929 . S
C741 C739 1.433 . S
C741 N744 1.384 . S
C742 H733 0.929 . S
C742 C734 1.378 . S
C742 C737 1.350 . S
C743 H730 0.929 . S
C743 C735 1.433 . S
C743 N745 1.384 . S
N744 C740 1.427 . S
N744 C741 1.384 . S
N745 C737 1.427 . S
N745 C743 1.384 . S
H746 C752 0.930 . S
H747 C756 0.930 . S
H748 C761 0.929 . S
H749 C759 0.929 . S
H750 C754 0.929 . S
H751 C760 0.929 . S
C752 H746 0.930 . S
C752 C753 1.367 . S
C752 C760 1.378 . S
C753 C752 1.367 . S
C753 C761 1.433 . S
C754 H750 0.929 . S
C754 C756 1.378 . S
C754 C758 1.350 . S
C755 C758 1.463 . S
C755 C760 1.350 . S
C755 N763 1.427 . S
C756 H747 0.930 . S
C756 C754 1.378 . S
C756 C757 1.367 . S
C757 C756 1.367 . S
C757 C759 1.433 . S
C758 C754 1.350 . S
C758 C755 1.463 . S
C758 N762 1.427 . S
C759 H749 0.929 . S
C759 C757 1.433 . S
C759 N762 1.384 . S
C760 H751 0.929 . S
C760 C752 1.378 . S
C760 C755 1.350 . S
C761 H748 0.929 . S
C761 C753 1.433 . S
C761 N763 1.384 . S
N762 C758 1.427 . S
N762 C759 1.384 . S
N763 C755 1.427 . S
N763 C761 1.384 . S
H764 C770 0.930 . S
H765 C774 0.930 . S
H766 C779 0.929 . S
H767 C777 0.929 . S
H768 C772 0.929 . S
H769 C778 0.929 . S
C770 H764 0.930 . S
C770 C771 1.367 . S
C770 C778 1.378 . S
C771 C770 1.367 . S
C771 C779 1.433 . S
C772 H768 0.929 . S
C772 C774 1.378 . S
C772 C776 1.350 . S
C773 C776 1.463 1_554 S
C773 C778 1.350 . S
C773 N781 1.427 . S
C774 H765 0.930 . S
C774 C772 1.378 . S
C774 C775 1.367 . S
C775 C774 1.367 . S
C775 C777 1.433 . S
C776 C772 1.350 . S
C776 C773 1.463 1_556 S
C776 N780 1.427 . S
C777 H767 0.929 . S
C777 C775 1.433 . S
C777 N780 1.384 . S
C778 H769 0.929 . S
C778 C770 1.378 . S
C778 C773 1.350 . S
C779 H766 0.929 . S
C779 C771 1.433 . S
C779 N781 1.384 . S
N780 C776 1.427 . S
N780 C777 1.384 . S
N781 C773 1.427 . S
N781 C779 1.384 . S
H782 C788 0.937 . S
H783 C792 0.930 . S
H784 C797 0.929 . S
H785 C795 0.929 . S
H786 C790 0.929 . S
H787 C796 0.936 . S
C788 H782 0.937 . S
C788 C789 1.367 . S
C788 C796 1.378 . S
C789 C788 1.367 . S
C789 C797 1.433 . S
C790 H786 0.929 . S
C790 C792 1.378 . S
C790 C794 1.350 . S
C791 C794 1.463 . S
C791 C796 1.350 . S
C791 N799 1.427 . S
C792 H783 0.930 . S
C792 C790 1.378 . S
C792 C793 1.367 . S
C793 C792 1.367 . S
C793 C795 1.433 . S
C794 C790 1.350 . S
C794 C791 1.463 . S
C794 N798 1.427 . S
C795 H785 0.929 . S
C795 C793 1.433 . S
C795 N798 1.384 . S
C796 H787 0.936 . S
C796 C788 1.378 . S
C796 C791 1.350 . S
C797 H784 0.929 . S
C797 C789 1.433 . S
C797 N799 1.384 . S
N798 C794 1.427 . S
N798 C795 1.384 . S
N799 C791 1.427 . S
N799 C797 1.384 . S
C231 C7 1.421 . S
C235 C104 1.421 . S
C249 C20 1.415 . S
C253 C63 1.415 . S
C267 C35 1.410 . S
C271 C76 1.409 . S
C285 C48 1.422 . S
C289 C91 1.422 . S
C303 C118 1.419 . S
C307 C216 1.419 . S
C321 C174 1.421 . S
C325 C132 1.421 . S
C339 C146 1.422 . S
C343 C188 1.422 . S
C357 C160 1.419 . S
C361 C202 1.418 . S
C375 C8 1.562 . S
C379 C134 1.585 . S
C393 C23 1.566 . S
C397 C148 1.587 . S
C411 C162 1.590 . S
C415 C36 1.555 . S
C429 C51 1.555 . S
C433 C120 1.590 . S
C447 C64 1.559 . S
C451 C218 1.586 . S
C465 C176 1.589 . S
C469 C79 1.565 . S
C483 C190 1.585 . S
C487 C92 1.562 . S
C501 C204 1.586 . S
C505 C107 1.560 . S
C519 C22 1.585 . S
C523 C121 1.563 . S
C537 C37 1.585 . S
C541 C135 1.562 . S
C555 C149 1.561 . S
C559 C50 1.590 . S
C573 C9 1.586 . S
C577 C163 1.558 . S
C591 C177 1.566 . S
C595 C106 1.587 . S
C609 C191 1.560 . S
C613 C65 1.591 . S
C627 C78 1.588 . S
C631 C205 1.555 . S
C645 C93 1.586 . S
C649 C219 1.559 . S
C663 C6 1.546 . S
C667 C62 1.537 . S
C681 C77 1.537 . S
C685 C21 1.546 . S
C699 C34 1.538 . S
C703 C90 1.551 . S
C717 C105 1.550 . S
C721 C49 1.539 . S
C735 C119 1.538 . S
C739 C175 1.544 . S
C753 C189 1.542 . S
C757 C133 1.549 . S
C771 C203 1.549 . S
C775 C147 1.543 . S
C789 C217 1.546 . S
C793 C161 1.537 . S
