# Generated by pormake.
# Topology qtz-e, (6)-cn, num edge types: 1
# Building blocks:
#     Node 0, Type 0, BuildingBlock: CUWYAW_clean_sbu_0, # of connection points: 6
#     Node 1, Type 0, BuildingBlock: CUWYAW_clean_sbu_0, # of connection points: 6
#     Node 2, Type 0, BuildingBlock: CUWYAW_clean_sbu_0, # of connection points: 6
#     Node 3, Type 0, BuildingBlock: CUWYAW_clean_sbu_0, # of connection points: 6
#     Node 4, Type 0, BuildingBlock: CUWYAW_clean_sbu_0, # of connection points: 6
#     Node 5, Type 0, BuildingBlock: CUWYAW_clean_sbu_0, # of connection points: 6
#     Edge 6, Type (0, 0), None
#     Edge 7, Type (0, 0), None
#     Edge 8, Type (0, 0), None
#     Edge 9, Type (0, 0), None
#     Edge 10, Type (0, 0), None
#     Edge 11, Type (0, 0), None
#     Edge 12, Type (0, 0), None
#     Edge 13, Type (0, 0), None
#     Edge 14, Type (0, 0), None
#     Edge 15, Type (0, 0), None
#     Edge 16, Type (0, 0), None
#     Edge 17, Type (0, 0), None
#     Edge 18, Type (0, 0), None
#     Edge 19, Type (0, 0), None
#     Edge 20, Type (0, 0), None
#     Edge 21, Type (0, 0), None
#     Edge 22, Type (0, 0), None
#     Edge 23, Type (0, 0), None
# Relax obj value: 0.125
# Max RMSD: 0.223
# Mean RMSD: 0.223
data_MOF--net-qtz-e--node1-CUWYAW_clean_sbu_0--edge1-none
_symmetry_space_group_name_H-M    P1
_symmetry_Int_Tables_number       1
_symmetry_cell_setting            triclinic
loop_
_symmetry_equiv_pos_as_xyz
'x, y, z'
_cell_length_a     12.138274
_cell_length_b     12.1382
_cell_length_c     30.7961
_cell_angle_alpha  90.006698
_cell_angle_beta   89.999459
_cell_angle_gamma 119.99903
loop_
_atom_site_label
_atom_site_type_symbol
_atom_site_fract_x
_atom_site_fract_y
_atom_site_fract_z
_atom_type_partial_charge
C0 C 0.1239 0.14362 1.029 0.0
Eu1 Eu 0.15754 0.32955 0.08019 0.0
C2 C 0.16324 0.14267 0.9826 0.0
C3 C 0.0982 0.15638 0.94674 0.0
C4 C 0.1431 0.16374 0.90379 0.0
C5 C 0.25521 0.15951 0.89563 0.0
C6 C 0.31764 0.14263 0.93143 0.0
C7 C 0.27215 0.13346 0.97394 0.0
C8 C 0.02231 0.45454 0.07919 0.0
C9 C 0.29939 0.58336 1.02735 0.0
C10 C 0.33625 0.76886 0.18006 0.0
Eu11 Eu 0.27697 0.58374 0.12718 0.0
C12 C 0.32133 0.75379 0.22696 0.0
C13 C 0.42723 0.82211 0.25406 0.0
C14 C 0.41922 0.792 0.29809 0.0
C15 C 0.30549 0.69283 0.31498 0.0
C16 C 0.20251 0.62044 0.28733 0.0
C17 C 0.20961 0.65152 0.24385 0.0
C18 C 0.44531 0.51269 0.10462 0.0
C19 C 0.13002 0.31689 0.18465 0.0
O20 O 0.21607 0.19594 0.05754 0.0
O21 O 0.03448 0.17177 1.03663 0.0
O22 O 0.03476 0.39752 0.04564 0.0
O23 O 0.07999 0.44249 0.1109 0.0
O24 O 0.29793 0.47669 1.03534 0.0
O25 O 0.27107 0.64077 0.05797 0.0
O26 O 0.23124 0.71902 0.157 0.0
O27 O 0.41962 0.74077 0.16509 0.0
O28 O 0.46943 0.62908 0.10262 0.0
O29 O 0.33461 0.43893 0.11886 0.0
O30 O 0.20388 0.44265 0.18345 0.0
O31 O 0.09178 0.2472 0.14845 0.0
H32 H 0.01365 0.16339 0.95185 0.0
H33 H 0.09262 0.17724 0.87722 0.0
H34 H 0.4036 0.13785 0.9267 0.0
H35 H 0.32463 0.12201 1.00032 0.0
H36 H 0.51585 0.89802 0.2411 0.0
H37 H 0.49854 0.85081 0.3192 0.0
H38 H 0.11345 0.54444 0.30003 0.0
H39 H 0.12777 0.59419 0.22346 0.0
C40 C 0.97685 0.12565 0.36231 0.0
Eu41 Eu 0.82456 0.15922 0.41352 0.0
C42 C 0.01718 0.16508 0.31592 0.0
C43 C 0.9386 0.09989 0.28004 0.0
C44 C 0.97616 0.14481 0.23709 0.0
C45 C 0.09236 0.25708 0.22896 0.0
C46 C 0.17153 0.31966 0.26478 0.0
C47 C 0.13518 0.27416 0.30728 0.0
C48 C 0.56434 0.02397 0.41252 0.0
C49 C 0.71255 0.3011 0.36071 0.0
C50 C 0.56394 0.33782 0.51343 0.0
Eu51 Eu 0.68978 0.27859 0.46053 0.0
C52 C 0.56418 0.32295 0.56033 0.0
C53 C 0.60172 0.42886 0.58742 0.0
C54 C 0.62388 0.4209 0.63145 0.0
C55 C 0.60941 0.30721 0.64834 0.0
C56 C 0.57887 0.20423 0.62071 0.0
C57 C 0.55484 0.21128 0.57722 0.0
C58 C 0.92915 0.44697 0.43798 0.0
C59 C 0.80976 0.13166 0.51797 0.0
O60 O 0.01669 0.21776 0.39087 0.0
O61 O 0.85928 0.03623 0.36992 0.0
O62 O 0.63379 0.03643 0.37896 0.0
O63 O 0.63408 0.08163 0.44423 0.0
O64 O 0.81776 0.29963 0.36869 0.0
O65 O 0.62682 0.27274 0.39133 0.0
O66 O 0.50879 0.23278 0.49038 0.0
O67 O 0.67535 0.42122 0.49844 0.0
O68 O 0.83688 0.47109 0.436 0.0
O69 O 0.89223 0.33626 0.4522 0.0
O70 O 0.75786 0.20553 0.51679 0.0
O71 O 0.84117 0.09342 0.48177 0.0
H72 H 0.84714 0.0152 0.28513 0.0
H73 H 0.91229 0.09419 0.2105 0.0
H74 H 0.26217 0.40574 0.26006 0.0
H75 H 0.199 0.32676 0.33367 0.0
H76 H 0.61436 0.51745 0.57446 0.0
H77 H 0.64435 0.50023 0.65255 0.0
H78 H 0.56589 0.11521 0.63341 0.0
H79 H 0.53036 0.12943 0.55683 0.0
C80 C 0.84788 0.97852 0.69564 0.0
Eu81 Eu 0.66202 0.82627 0.74684 0.0
C82 C 0.84878 0.01884 0.64924 0.0
C83 C 0.83525 0.94019 0.61337 0.0
C84 C 0.82789 0.97775 0.57042 0.0
C85 C 0.83195 0.09401 0.56228 0.0
C86 C 0.84866 0.17323 0.5981 0.0
C87 C 0.85782 0.13689 0.6406 0.0
C88 C 0.53705 0.56605 0.74585 0.0
C89 C 0.40816 0.71429 0.69402 0.0
C90 C 0.22281 0.56567 0.84673 0.0
Eu91 Eu 0.40787 0.69151 0.79384 0.0
C92 C 0.23792 0.56593 0.89363 0.0
C93 C 0.16954 0.60346 0.92072 0.0
C94 C 0.19965 0.62564 0.96474 0.0
C95 C 0.2989 0.61121 0.98163 0.0
C96 C 0.37135 0.58064 0.95401 0.0
C97 C 0.34025 0.55659 0.91053 0.0
C98 C 0.47889 0.9309 0.7713 0.0
C99 C 0.67476 0.81147 0.8513 0.0
O100 O 0.79562 0.01839 0.7242 0.0
O101 O 0.81972 0.86096 0.70326 0.0
O102 O 0.59402 0.63549 0.71229 0.0
O103 O 0.54912 0.6358 0.77756 0.0
O104 O 0.51483 0.81951 0.70201 0.0
O105 O 0.35079 0.62855 0.72463 0.0
O106 O 0.2727 0.51052 0.82368 0.0
O107 O 0.2508 0.67707 0.83173 0.0
O108 O 0.3625 0.83863 0.76931 0.0
O109 O 0.55267 0.89396 0.78553 0.0
O110 O 0.549 0.75958 0.85011 0.0
O111 O 0.74443 0.84289 0.8151 0.0
H112 H 0.82839 0.84869 0.61846 0.0
H113 H 0.81454 0.91383 0.54384 0.0
H114 H 0.85331 0.26391 0.59338 0.0
H115 H 0.86914 0.20076 0.66699 0.0
H116 H 0.09358 0.61608 0.90775 0.0
H117 H 0.14078 0.64609 0.98585 0.0
H118 H 0.44738 0.56765 0.96672 0.0
H119 H 0.39761 0.53209 0.89014 0.0
C120 C 0.86596 0.84958 1.02898 0.0
Eu121 Eu 0.83245 0.66376 0.0802 0.0
C122 C 0.82656 0.85048 0.98259 0.0
C123 C 0.89169 0.83695 0.94672 0.0
C124 C 0.8468 0.8296 0.90377 0.0
C125 C 0.73459 0.83366 0.89562 0.0
C126 C 0.67207 0.85037 0.93143 0.0
C127 C 0.71755 0.85951 0.97393 0.0
C128 C 0.96772 0.53881 0.07919 0.0
C129 C 0.69058 0.40987 1.02739 0.0
C130 C 0.65414 0.22464 0.1801 0.0
Eu131 Eu 0.7132 0.40964 0.12721 0.0
C132 C 0.66885 0.23977 0.227 0.0
C133 C 0.56291 0.17121 0.25406 0.0
C134 C 0.57069 0.20129 0.29808 0.0
C135 C 0.68422 0.30069 0.315 0.0
C136 C 0.78723 0.37333 0.28741 0.0
C137 C 0.78036 0.34226 0.24393 0.0
C138 C 0.54472 0.48048 0.10471 0.0
C139 C 0.85998 0.67658 0.18465 0.0
O140 O 0.77383 0.79728 0.05753 0.0
O141 O 0.95541 0.82147 1.03661 0.0
O142 O 0.95528 0.59583 0.04564 0.0
O143 O 0.91011 0.55093 0.1109 0.0
O144 O 0.69197 0.51651 1.03538 0.0
O145 O 0.71902 0.35254 0.058 0.0
O146 O 0.75924 0.27469 0.15709 0.0
O147 O 0.57063 0.25243 0.16506 0.0
O148 O 0.52067 0.36411 0.10267 0.0
O149 O 0.65545 0.55438 0.1189 0.0
O150 O 0.78611 0.55082 0.18346 0.0
O151 O 0.89824 0.74622 0.14845 0.0
H152 H 0.97633 0.83009 0.95181 0.0
H153 H 0.89736 0.81625 0.87718 0.0
H154 H 0.58604 0.85502 0.9267 0.0
H155 H 0.665 0.87084 1.00032 0.0
H156 H 0.47445 0.09513 0.24106 0.0
H157 H 0.49138 0.14228 0.31917 0.0
H158 H 0.87614 0.44948 0.30015 0.0
H159 H 0.86223 0.39975 0.22357 0.0
C160 C 0.01296 0.86771 0.36234 0.0
Eu161 Eu 0.16525 0.83411 0.41353 0.0
C162 C 0.97269 0.82838 0.31594 0.0
C163 C 0.05148 0.89338 0.28008 0.0
C164 C 0.01396 0.84851 0.23713 0.0
C165 C 0.89759 0.73644 0.22896 0.0
C166 C 0.81822 0.67405 0.26475 0.0
C167 C 0.85454 0.71953 0.30726 0.0
C168 C 0.42547 0.96935 0.41252 0.0
C169 C 0.27716 0.69221 0.3607 0.0
C170 C 0.4261 0.65575 0.5134 0.0
Eu171 Eu 0.30013 0.71483 0.46052 0.0
C172 C 0.42575 0.6705 0.5603 0.0
C173 C 0.38833 0.56457 0.58736 0.0
C174 C 0.36607 0.57239 0.63139 0.0
C175 C 0.38029 0.68597 0.6483 0.0
C176 C 0.41071 0.78898 0.62071 0.0
C177 C 0.43486 0.78206 0.57722 0.0
C178 C 0.06079 0.54638 0.43805 0.0
C179 C 0.18005 0.86164 0.51799 0.0
O180 O 0.97312 0.77553 0.39087 0.0
O181 O 0.1305 0.95715 0.36999 0.0
O182 O 0.356 0.95692 0.37897 0.0
O183 O 0.35576 0.91175 0.44423 0.0
O184 O 0.17192 0.6936 0.36871 0.0
O185 O 0.36297 0.72065 0.3913 0.0
O186 O 0.48115 0.76083 0.49038 0.0
O187 O 0.31477 0.57225 0.49837 0.0
O188 O 0.15308 0.5223 0.43599 0.0
O189 O 0.09764 0.65712 0.45224 0.0
O190 O 0.23195 0.78778 0.51679 0.0
O191 O 0.14862 0.89989 0.48179 0.0
H192 H 0.14307 0.97789 0.2852 0.0
H193 H 0.07798 0.89895 0.21056 0.0
H194 H 0.72746 0.58813 0.26001 0.0
H195 H 0.79057 0.66708 0.33364 0.0
H196 H 0.37588 0.47607 0.57437 0.0
H197 H 0.34574 0.49308 0.65248 0.0
H198 H 0.42354 0.87792 0.63344 0.0
H199 H 0.45928 0.86392 0.55686 0.0
C200 C 0.14194 0.01464 0.69568 0.0
Eu201 Eu 0.32782 0.16696 0.74687 0.0
C202 C 0.14099 0.97436 0.64927 0.0
C203 C 0.15466 0.05309 0.61342 0.0
C204 C 0.16201 0.01557 0.57047 0.0
C205 C 0.15782 0.89925 0.5623 0.0
C206 C 0.14097 0.81993 0.5981 0.0
C207 C 0.13181 0.85625 0.64061 0.0
C208 C 0.45278 0.42718 0.74585 0.0
C209 C 0.58165 0.27889 0.69406 0.0
C210 C 0.767 0.42785 0.84677 0.0
Eu211 Eu 0.58197 0.30186 0.79388 0.0
C212 C 0.75189 0.42748 0.89367 0.0
C213 C 0.82044 0.39008 0.92073 0.0
C214 C 0.79037 0.3678 0.96475 0.0
C215 C 0.69101 0.38199 0.98167 0.0
C216 C 0.61838 0.41238 0.95408 0.0
C217 C 0.64944 0.43655 0.9106 0.0
C218 C 0.51111 0.06253 0.7714 0.0
C219 C 0.31506 0.18175 0.85133 0.0
O220 O 0.19429 0.97482 0.72421 0.0
O221 O 0.17003 0.13218 0.70332 0.0
O222 O 0.39575 0.35769 0.7123 0.0
O223 O 0.44068 0.35748 0.77757 0.0
O224 O 0.47501 0.17365 0.70206 0.0
O225 O 0.63901 0.3647 0.72466 0.0
O226 O 0.71693 0.48289 0.82376 0.0
O227 O 0.7392 0.31654 0.83173 0.0
O228 O 0.62747 0.15483 0.76935 0.0
O229 O 0.43721 0.09937 0.78559 0.0
O230 O 0.44082 0.23365 0.85014 0.0
O231 O 0.2454 0.15034 0.81513 0.0
H232 H 0.16164 0.14464 0.61853 0.0
H233 H 0.17548 0.07954 0.54389 0.0
H234 H 0.13622 0.72921 0.59335 0.0
H235 H 0.12039 0.79232 0.66698 0.0
H236 H 0.8965 0.37766 0.90774 0.0
H237 H 0.84938 0.34749 0.98584 0.0
H238 H 0.54226 0.42519 0.96681 0.0
H239 H 0.59196 0.46095 0.89024 0.0
loop_
_geom_bond_atom_site_label_1
_geom_bond_atom_site_label_2
_geom_bond_distance
_geom_bond_site_symmetry_2
_ccdc_geom_bond_type
C0 Eu1 2.835 1_556 S
C0 C2 1.500 . S
C0 O20 1.257 . S
C0 O21 1.260 . S
Eu1 C0 2.835 1_554 S
Eu1 O20 2.473 1_554 S
Eu1 O21 2.480 1_554 S
Eu1 O22 2.430 1_455 S
Eu1 O23 2.670 . S
Eu1 O24 2.394 1_554 S
Eu1 O29 2.355 . S
Eu1 O31 2.374 . S
C2 C0 1.500 . S
C2 C3 1.377 . S
C2 C7 1.377 . S
C3 C2 1.377 . S
C3 C4 1.395 1_545 S
C3 H32 0.931 1_455 S
C4 C3 1.395 1_565 S
C4 C5 1.383 1_565 S
C4 H33 0.931 1_455 S
C5 C4 1.383 1_545 S
C5 C6 1.394 . S
C6 C5 1.394 . S
C6 C7 1.378 . S
C6 H34 0.931 . S
C7 C2 1.377 . S
C7 C6 1.378 . S
C7 H35 0.931 . S
C8 O22 1.259 . S
C8 O23 1.270 1_655 S
C9 O24 1.251 . S
C9 O25 1.251 1_556 S
C10 Eu11 2.835 . S
C10 C12 1.500 . S
C10 O26 1.257 . S
C10 O27 1.260 . S
Eu11 C10 2.835 . S
Eu11 O23 2.355 . S
Eu11 O25 2.374 . S
Eu11 O26 2.473 . S
Eu11 O27 2.480 . S
Eu11 O28 2.430 . S
Eu11 O29 2.670 . S
Eu11 O30 2.394 . S
C12 C10 1.500 . S
C12 C13 1.377 . S
C12 C17 1.377 . S
C13 C12 1.377 . S
C13 C14 1.395 . S
C13 H36 0.931 . S
C14 C13 1.395 . S
C14 C15 1.383 . S
C14 H37 0.931 . S
C15 C14 1.383 . S
C15 C16 1.394 . S
C16 C15 1.394 . S
C16 C17 1.378 . S
C16 H38 0.931 . S
C17 C12 1.377 . S
C17 C16 1.378 . S
C17 H39 0.931 . S
C18 O28 1.259 . S
C18 O29 1.270 . S
C19 O30 1.251 . S
C19 O31 1.251 . S
O20 C0 1.257 . S
O20 Eu1 2.473 1_556 S
O21 C0 1.260 . S
O21 Eu1 2.480 1_556 S
O22 Eu1 2.430 1_655 S
O22 C8 1.259 . S
O23 Eu1 2.670 . S
O23 C8 1.270 1_455 S
O23 Eu11 2.355 . S
O24 Eu1 2.394 1_556 S
O24 C9 1.251 . S
O25 C9 1.251 1_554 S
O25 Eu11 2.374 . S
O26 C10 1.257 . S
O26 Eu11 2.473 . S
O27 C10 1.260 . S
O27 Eu11 2.480 . S
O28 Eu11 2.430 . S
O28 C18 1.259 . S
O29 Eu1 2.355 . S
O29 Eu11 2.670 . S
O29 C18 1.270 . S
O30 Eu11 2.394 . S
O30 C19 1.251 . S
O31 Eu1 2.374 . S
O31 C19 1.251 . S
H32 C3 0.931 1_655 S
H33 C4 0.931 1_655 S
H34 C6 0.931 . S
H35 C7 0.931 . S
H36 C13 0.931 . S
H37 C14 0.931 . S
H38 C16 0.931 . S
H39 C17 0.931 . S
C40 Eu41 2.835 . S
C40 C42 1.500 1_655 S
C40 O60 1.257 1_655 S
C40 O61 1.260 . S
Eu41 C40 2.835 . S
Eu41 O60 2.473 1_655 S
Eu41 O61 2.480 . S
Eu41 O62 2.430 1_545 S
Eu41 O63 2.670 . S
Eu41 O64 2.394 . S
Eu41 O69 2.355 . S
Eu41 O71 2.374 . S
C42 C40 1.500 1_455 S
C42 C43 1.377 . S
C42 C47 1.377 . S
C43 C42 1.377 . S
C43 C44 1.395 . S
C43 H72 0.931 1_445 S
C44 C43 1.395 . S
C44 C45 1.383 . S
C44 H73 0.931 1_545 S
C45 C44 1.383 . S
C45 C46 1.394 . S
C46 C45 1.394 . S
C46 C47 1.378 . S
C46 H74 0.931 . S
C47 C42 1.377 . S
C47 C46 1.378 . S
C47 H75 0.931 . S
C48 O62 1.259 . S
C48 O63 1.270 1_565 S
C49 O64 1.251 . S
C49 O65 1.251 . S
C50 Eu51 2.835 . S
C50 C52 1.500 . S
C50 O66 1.257 . S
C50 O67 1.260 . S
Eu51 C50 2.835 . S
Eu51 O63 2.355 . S
Eu51 O65 2.374 . S
Eu51 O66 2.473 . S
Eu51 O67 2.480 . S
Eu51 O68 2.430 . S
Eu51 O69 2.670 . S
Eu51 O70 2.394 . S
C52 C50 1.500 . S
C52 C53 1.377 . S
C52 C57 1.377 . S
C53 C52 1.377 . S
C53 C54 1.395 . S
C53 H76 0.931 . S
C54 C53 1.395 . S
C54 C55 1.383 . S
C54 H77 0.931 . S
C55 C54 1.383 . S
C55 C56 1.394 . S
C56 C55 1.394 . S
C56 C57 1.378 . S
C56 H78 0.931 . S
C57 C52 1.377 . S
C57 C56 1.378 . S
C57 H79 0.931 . S
C58 O68 1.259 1_455 S
C58 O69 1.270 1_455 S
C59 O70 1.251 . S
C59 O71 1.251 . S
O60 C40 1.257 1_455 S
O60 Eu41 2.473 1_455 S
O61 C40 1.260 . S
O61 Eu41 2.480 . S
O62 Eu41 2.430 1_565 S
O62 C48 1.259 . S
O63 Eu41 2.670 . S
O63 C48 1.270 1_545 S
O63 Eu51 2.355 . S
O64 Eu41 2.394 . S
O64 C49 1.251 . S
O65 C49 1.251 . S
O65 Eu51 2.374 . S
O66 C50 1.257 . S
O66 Eu51 2.473 . S
O67 C50 1.260 . S
O67 Eu51 2.480 . S
O68 Eu51 2.430 . S
O68 C58 1.259 1_655 S
O69 Eu41 2.355 . S
O69 Eu51 2.670 . S
O69 C58 1.270 1_655 S
O70 Eu51 2.394 . S
O70 C59 1.251 . S
O71 Eu41 2.374 . S
O71 C59 1.251 . S
H72 C43 0.931 1_665 S
H73 C44 0.931 1_565 S
H74 C46 0.931 . S
H75 C47 0.931 . S
H76 C53 0.931 . S
H77 C54 0.931 . S
H78 C56 0.931 . S
H79 C57 0.931 . S
C80 Eu81 2.835 . S
C80 C82 1.500 1_565 S
C80 O100 1.257 1_565 S
C80 O101 1.260 . S
Eu81 C80 2.835 . S
Eu81 O100 2.473 1_565 S
Eu81 O101 2.480 . S
Eu81 O102 2.430 . S
Eu81 O103 2.670 . S
Eu81 O104 2.394 . S
Eu81 O109 2.355 . S
Eu81 O111 2.374 . S
C82 C80 1.500 1_545 S
C82 C83 1.377 . S
C82 C87 1.377 . S
C83 C82 1.377 . S
C83 C84 1.395 1_655 S
C83 H112 0.931 1_545 S
C84 C83 1.395 1_455 S
C84 C85 1.383 1_455 S
C84 H113 0.931 . S
C85 C84 1.383 1_655 S
C85 C86 1.394 . S
C86 C85 1.394 . S
C86 C87 1.378 . S
C86 H114 0.931 . S
C87 C82 1.377 . S
C87 C86 1.378 . S
C87 H115 0.931 . S
C88 O102 1.259 . S
C88 O103 1.270 . S
C89 O104 1.251 . S
C89 O105 1.251 . S
C90 Eu91 2.835 . S
C90 C92 1.500 . S
C90 O106 1.257 . S
C90 O107 1.260 . S
Eu91 C90 2.835 . S
Eu91 O103 2.355 . S
Eu91 O105 2.374 . S
Eu91 O106 2.473 . S
Eu91 O107 2.480 . S
Eu91 O108 2.430 . S
Eu91 O109 2.670 . S
Eu91 O110 2.394 . S
C92 C90 1.500 . S
C92 C93 1.377 . S
C92 C97 1.377 . S
C93 C92 1.377 . S
C93 C94 1.395 . S
C93 H116 0.931 . S
C94 C93 1.395 . S
C94 C95 1.383 . S
C94 H117 0.931 . S
C95 C94 1.383 . S
C95 C96 1.394 . S
C96 C95 1.394 . S
C96 C97 1.378 . S
C96 H118 0.931 . S
C97 C92 1.377 . S
C97 C96 1.378 . S
C97 H119 0.931 . S
C98 O108 1.259 1_545 S
C98 O109 1.270 1_545 S
C99 O110 1.251 . S
C99 O111 1.251 . S
O100 C80 1.257 1_545 S
O100 Eu81 2.473 1_545 S
O101 C80 1.260 . S
O101 Eu81 2.480 . S
O102 Eu81 2.430 . S
O102 C88 1.259 . S
O103 Eu81 2.670 . S
O103 C88 1.270 . S
O103 Eu91 2.355 . S
O104 Eu81 2.394 . S
O104 C89 1.251 . S
O105 C89 1.251 . S
O105 Eu91 2.374 . S
O106 C90 1.257 . S
O106 Eu91 2.473 . S
O107 C90 1.260 . S
O107 Eu91 2.480 . S
O108 Eu91 2.430 . S
O108 C98 1.259 1_565 S
O109 Eu81 2.355 . S
O109 Eu91 2.670 . S
O109 C98 1.270 1_565 S
O110 Eu91 2.394 . S
O110 C99 1.251 . S
O111 Eu81 2.374 . S
O111 C99 1.251 . S
H112 C83 0.931 1_565 S
H113 C84 0.931 . S
H114 C86 0.931 . S
H115 C87 0.931 . S
H116 C93 0.931 . S
H117 C94 0.931 . S
H118 C96 0.931 . S
H119 C97 0.931 . S
C120 Eu121 2.835 1_556 S
C120 C122 1.500 . S
C120 O140 1.257 . S
C120 O141 1.260 . S
Eu121 C120 2.835 1_554 S
Eu121 O140 2.473 1_554 S
Eu121 O141 2.480 1_554 S
Eu121 O142 2.430 1_655 S
Eu121 O143 2.670 . S
Eu121 O144 2.394 1_554 S
Eu121 O149 2.355 . S
Eu121 O151 2.374 . S
C122 C120 1.500 . S
C122 C123 1.377 . S
C122 C127 1.377 . S
C123 C122 1.377 . S
C123 C124 1.395 1_565 S
C123 H152 0.931 1_655 S
C124 C123 1.395 1_545 S
C124 C125 1.383 1_545 S
C124 H153 0.931 1_655 S
C125 C124 1.383 1_565 S
C125 C126 1.394 . S
C126 C125 1.394 . S
C126 C127 1.378 . S
C126 H154 0.931 . S
C127 C122 1.377 . S
C127 C126 1.378 . S
C127 H155 0.931 . S
C128 O142 1.259 . S
C128 O143 1.270 1_455 S
C129 O144 1.251 . S
C129 O145 1.251 1_556 S
C130 Eu131 2.835 . S
C130 C132 1.500 . S
C130 O146 1.257 . S
C130 O147 1.260 . S
Eu131 C130 2.835 . S
Eu131 O143 2.355 . S
Eu131 O145 2.374 . S
Eu131 O146 2.473 . S
Eu131 O147 2.480 . S
Eu131 O148 2.430 . S
Eu131 O149 2.670 . S
Eu131 O150 2.394 . S
C132 C130 1.500 . S
C132 C133 1.377 . S
C132 C137 1.377 . S
C133 C132 1.377 . S
C133 C134 1.395 . S
C133 H156 0.931 . S
C134 C133 1.395 . S
C134 C135 1.383 . S
C134 H157 0.931 . S
C135 C134 1.383 . S
C135 C136 1.394 . S
C136 C135 1.394 . S
C136 C137 1.378 . S
C136 H158 0.931 . S
C137 C132 1.377 . S
C137 C136 1.378 . S
C137 H159 0.931 . S
C138 O148 1.259 . S
C138 O149 1.270 . S
C139 O150 1.251 . S
C139 O151 1.251 . S
O140 C120 1.257 . S
O140 Eu121 2.473 1_556 S
O141 C120 1.260 . S
O141 Eu121 2.480 1_556 S
O142 Eu121 2.430 1_455 S
O142 C128 1.259 . S
O143 Eu121 2.670 . S
O143 C128 1.270 1_655 S
O143 Eu131 2.355 . S
O144 Eu121 2.394 1_556 S
O144 C129 1.251 . S
O145 C129 1.251 1_554 S
O145 Eu131 2.374 . S
O146 C130 1.257 . S
O146 Eu131 2.473 . S
O147 C130 1.260 . S
O147 Eu131 2.480 . S
O148 Eu131 2.430 . S
O148 C138 1.259 . S
O149 Eu121 2.355 . S
O149 Eu131 2.670 . S
O149 C138 1.270 . S
O150 Eu131 2.394 . S
O150 C139 1.251 . S
O151 Eu121 2.374 . S
O151 C139 1.251 . S
H152 C123 0.931 1_455 S
H153 C124 0.931 1_455 S
H154 C126 0.931 . S
H155 C127 0.931 . S
H156 C133 0.931 . S
H157 C134 0.931 . S
H158 C136 0.931 . S
H159 C137 0.931 . S
C160 Eu161 2.835 . S
C160 C162 1.500 1_455 S
C160 O180 1.257 1_455 S
C160 O181 1.260 . S
Eu161 C160 2.835 . S
Eu161 O180 2.473 1_455 S
Eu161 O181 2.480 . S
Eu161 O182 2.430 1_565 S
Eu161 O183 2.670 . S
Eu161 O184 2.394 . S
Eu161 O189 2.355 . S
Eu161 O191 2.374 . S
C162 C160 1.500 1_655 S
C162 C163 1.377 . S
C162 C167 1.377 . S
C163 C162 1.377 . S
C163 C164 1.395 . S
C163 H192 0.931 1_665 S
C164 C163 1.395 . S
C164 C165 1.383 . S
C164 H193 0.931 1_565 S
C165 C164 1.383 . S
C165 C166 1.394 . S
C166 C165 1.394 . S
C166 C167 1.378 . S
C166 H194 0.931 . S
C167 C162 1.377 . S
C167 C166 1.378 . S
C167 H195 0.931 . S
C168 O182 1.259 . S
C168 O183 1.270 1_545 S
C169 O184 1.251 . S
C169 O185 1.251 . S
C170 Eu171 2.835 . S
C170 C172 1.500 . S
C170 O186 1.257 . S
C170 O187 1.260 . S
Eu171 C170 2.835 . S
Eu171 O183 2.355 . S
Eu171 O185 2.374 . S
Eu171 O186 2.473 . S
Eu171 O187 2.480 . S
Eu171 O188 2.430 . S
Eu171 O189 2.670 . S
Eu171 O190 2.394 . S
C172 C170 1.500 . S
C172 C173 1.377 . S
C172 C177 1.377 . S
C173 C172 1.377 . S
C173 C174 1.395 . S
C173 H196 0.931 . S
C174 C173 1.395 . S
C174 C175 1.383 . S
C174 H197 0.931 . S
C175 C174 1.383 . S
C175 C176 1.394 . S
C176 C175 1.394 . S
C176 C177 1.378 . S
C176 H198 0.931 . S
C177 C172 1.377 . S
C177 C176 1.378 . S
C177 H199 0.931 . S
C178 O188 1.259 1_655 S
C178 O189 1.270 1_655 S
C179 O190 1.251 . S
C179 O191 1.251 . S
O180 C160 1.257 1_655 S
O180 Eu161 2.473 1_655 S
O181 C160 1.260 . S
O181 Eu161 2.480 . S
O182 Eu161 2.430 1_545 S
O182 C168 1.259 . S
O183 Eu161 2.670 . S
O183 C168 1.270 1_565 S
O183 Eu171 2.355 . S
O184 Eu161 2.394 . S
O184 C169 1.251 . S
O185 C169 1.251 . S
O185 Eu171 2.374 . S
O186 C170 1.257 . S
O186 Eu171 2.473 . S
O187 C170 1.260 . S
O187 Eu171 2.480 . S
O188 Eu171 2.430 . S
O188 C178 1.259 1_455 S
O189 Eu161 2.355 . S
O189 Eu171 2.670 . S
O189 C178 1.270 1_455 S
O190 Eu171 2.394 . S
O190 C179 1.251 . S
O191 Eu161 2.374 . S
O191 C179 1.251 . S
H192 C163 0.931 1_445 S
H193 C164 0.931 1_545 S
H194 C166 0.931 . S
H195 C167 0.931 . S
H196 C173 0.931 . S
H197 C174 0.931 . S
H198 C176 0.931 . S
H199 C177 0.931 . S
C200 Eu201 2.835 . S
C200 C202 1.500 1_545 S
C200 O220 1.257 1_545 S
C200 O221 1.260 . S
Eu201 C200 2.835 . S
Eu201 O220 2.473 1_545 S
Eu201 O221 2.480 . S
Eu201 O222 2.430 . S
Eu201 O223 2.670 . S
Eu201 O224 2.394 . S
Eu201 O229 2.355 . S
Eu201 O231 2.374 . S
C202 C200 1.500 1_565 S
C202 C203 1.377 . S
C202 C207 1.377 . S
C203 C202 1.377 . S
C203 C204 1.395 1_455 S
C203 H232 0.931 1_565 S
C204 C203 1.395 1_655 S
C204 C205 1.383 1_655 S
C204 H233 0.931 . S
C205 C204 1.383 1_455 S
C205 C206 1.394 . S
C206 C205 1.394 . S
C206 C207 1.378 . S
C206 H234 0.931 . S
C207 C202 1.377 . S
C207 C206 1.378 . S
C207 H235 0.931 . S
C208 O222 1.259 . S
C208 O223 1.270 . S
C209 O224 1.251 . S
C209 O225 1.251 . S
C210 Eu211 2.835 . S
C210 C212 1.500 . S
C210 O226 1.257 . S
C210 O227 1.260 . S
Eu211 C210 2.835 . S
Eu211 O223 2.355 . S
Eu211 O225 2.374 . S
Eu211 O226 2.473 . S
Eu211 O227 2.480 . S
Eu211 O228 2.430 . S
Eu211 O229 2.670 . S
Eu211 O230 2.394 . S
C212 C210 1.500 . S
C212 C213 1.377 . S
C212 C217 1.377 . S
C213 C212 1.377 . S
C213 C214 1.395 . S
C213 H236 0.931 . S
C214 C213 1.395 . S
C214 C215 1.383 . S
C214 H237 0.931 . S
C215 C214 1.383 . S
C215 C216 1.394 . S
C216 C215 1.394 . S
C216 C217 1.378 . S
C216 H238 0.931 . S
C217 C212 1.377 . S
C217 C216 1.378 . S
C217 H239 0.931 . S
C218 O228 1.259 1_565 S
C218 O229 1.270 1_565 S
C219 O230 1.251 . S
C219 O231 1.251 . S
O220 C200 1.257 1_565 S
O220 Eu201 2.473 1_565 S
O221 C200 1.260 . S
O221 Eu201 2.480 . S
O222 Eu201 2.430 . S
O222 C208 1.259 . S
O223 Eu201 2.670 . S
O223 C208 1.270 . S
O223 Eu211 2.355 . S
O224 Eu201 2.394 . S
O224 C209 1.251 . S
O225 C209 1.251 . S
O225 Eu211 2.374 . S
O226 C210 1.257 . S
O226 Eu211 2.473 . S
O227 C210 1.260 . S
O227 Eu211 2.480 . S
O228 Eu211 2.430 . S
O228 C218 1.259 1_545 S
O229 Eu201 2.355 . S
O229 Eu211 2.670 . S
O229 C218 1.270 1_545 S
O230 Eu211 2.394 . S
O230 C219 1.251 . S
O231 Eu201 2.374 . S
O231 C219 1.251 . S
H232 C203 0.931 1_545 S
H233 C204 0.931 . S
H234 C206 0.931 . S
H235 C207 0.931 . S
H236 C213 0.931 . S
H237 C214 0.931 . S
H238 C216 0.931 . S
H239 C217 0.931 . S
C169 C15 1.503 . S
C209 C55 1.504 . S
C9 C95 1.503 . S
C49 C135 1.503 . S
C89 C175 1.504 . S
C129 C215 1.503 . S
C18 C138 2.028 . S
C178 C58 2.029 1_655 S
C218 C98 2.027 1_565 S
C88 C208 3.096 . S
C8 C128 3.096 1_655 S
C168 C48 3.097 1_545 S
C219 C5 1.959 . S
C45 C19 1.960 . S
C85 C59 1.959 . S
C99 C125 1.959 . S
C165 C139 1.960 . S
C205 C179 1.959 . S
