# Generated by pormake.
# Topology uoc, (4)-cn, num edge types: 1
# Building blocks:
#     Node 0, Type 0, BuildingBlock: KUFVIS_clean_sbu_0, # of connection points: 4
#     Node 1, Type 0, BuildingBlock: KUFVIS_clean_sbu_0, # of connection points: 4
#     Node 2, Type 0, BuildingBlock: KUFVIS_clean_sbu_0, # of connection points: 4
#     Node 3, Type 0, BuildingBlock: KUFVIS_clean_sbu_0, # of connection points: 4
#     Node 4, Type 0, BuildingBlock: KUFVIS_clean_sbu_0, # of connection points: 4
#     Node 5, Type 0, BuildingBlock: KUFVIS_clean_sbu_0, # of connection points: 4
#     Node 6, Type 0, BuildingBlock: KUFVIS_clean_sbu_0, # of connection points: 4
#     Node 7, Type 0, BuildingBlock: KUFVIS_clean_sbu_0, # of connection points: 4
#     Edge 8, Type (0, 0), BuildingBlock: OJICUG_clean_linker_0, # of connection points: 2
#     Edge 9, Type (0, 0), BuildingBlock: OJICUG_clean_linker_0, # of connection points: 2
#     Edge 10, Type (0, 0), BuildingBlock: OJICUG_clean_linker_0, # of connection points: 2
#     Edge 11, Type (0, 0), BuildingBlock: OJICUG_clean_linker_0, # of connection points: 2
#     Edge 12, Type (0, 0), BuildingBlock: OJICUG_clean_linker_0, # of connection points: 2
#     Edge 13, Type (0, 0), BuildingBlock: OJICUG_clean_linker_0, # of connection points: 2
#     Edge 14, Type (0, 0), BuildingBlock: OJICUG_clean_linker_0, # of connection points: 2
#     Edge 15, Type (0, 0), BuildingBlock: OJICUG_clean_linker_0, # of connection points: 2
#     Edge 16, Type (0, 0), BuildingBlock: OJICUG_clean_linker_0, # of connection points: 2
#     Edge 17, Type (0, 0), BuildingBlock: OJICUG_clean_linker_0, # of connection points: 2
#     Edge 18, Type (0, 0), BuildingBlock: OJICUG_clean_linker_0, # of connection points: 2
#     Edge 19, Type (0, 0), BuildingBlock: OJICUG_clean_linker_0, # of connection points: 2
#     Edge 20, Type (0, 0), BuildingBlock: OJICUG_clean_linker_0, # of connection points: 2
#     Edge 21, Type (0, 0), BuildingBlock: OJICUG_clean_linker_0, # of connection points: 2
#     Edge 22, Type (0, 0), BuildingBlock: OJICUG_clean_linker_0, # of connection points: 2
#     Edge 23, Type (0, 0), BuildingBlock: OJICUG_clean_linker_0, # of connection points: 2
# Relax obj value: 0.117
# Max RMSD: 0.130
# Mean RMSD: 0.128
data_MOF--net-uoc--node1-KUFVIS_clean_sbu_0--edge1-OJICUG_clean_linker_0
_symmetry_space_group_name_H-M    P1
_symmetry_Int_Tables_number       1
_symmetry_cell_setting            triclinic
loop_
_symmetry_equiv_pos_as_xyz
'x, y, z'
_cell_length_a     20.059405
_cell_length_b     20.059319
_cell_length_c     39.23882
_cell_angle_alpha  89.353534
_cell_angle_beta   89.3557
_cell_angle_gamma 88.28797
loop_
_atom_site_label
_atom_site_type_symbol
_atom_site_fract_x
_atom_site_fract_y
_atom_site_fract_z
_atom_type_partial_charge
Mn0 Mn 0.11721 0.26257 0.12351 0.0
Mn1 Mn 0.25235 0.15942 0.12965 0.0
C2 C 0.17266 0.2481 0.17567 0.0
C3 C 0.06431 0.3662 0.11178 0.0
C4 C 0.11106 0.11078 0.12848 0.0
O5 O 0.14356 0.24796 0.073 0.0
O6 O 0.23663 0.18616 0.08235 0.0
C7 C 0.35692 0.25193 0.108 0.0
N8 N 0.33274 0.20708 0.13092 0.0
C9 C 0.44128 0.18503 0.15415 0.0
C10 C 0.46758 0.23217 0.13139 0.0
C11 C 0.42492 0.26668 0.10859 0.0
C12 C 0.37229 0.17704 0.15441 0.0
H13 H 0.32487 0.27458 0.08887 0.0
C14 C 0.19556 0.21563 0.06236 0.0
O15 O 0.03313 0.31069 0.11035 0.0
O16 O 0.12737 0.36167 0.1191 0.0
N17 N 0.27585 0.12614 0.17352 0.0
C18 C 0.24241 0.08029 0.1924 0.0
C19 C 0.27819 0.0358 0.21359 0.0
C20 C 0.34799 0.03763 0.21418 0.0
C21 C 0.38107 0.08757 0.19594 0.0
C22 C 0.3425 0.13209 0.17621 0.0
H23 H 0.18931 0.07507 0.18969 0.0
O24 O 0.11136 0.2705 0.17446 0.0
O25 O 0.20109 0.23709 0.14634 0.0
O26 O 0.08179 0.16785 0.12681 0.0
O27 O 0.17418 0.10295 0.12874 0.0
C28 C 0.45103 0.09155 0.19436 0.0
C29 C 0.48102 0.14206 0.17466 0.0
H30 H 0.52063 0.24081 0.1305 0.0
H31 H 0.44495 0.30213 0.09048 0.0
H32 H 0.25246 0.99759 0.22778 0.0
H33 H 0.37562 0.99904 0.22789 0.0
H34 H 0.48231 0.05602 0.2083 0.0
H35 H 0.53482 0.14531 0.17422 0.0
Mn36 Mn 0.73534 0.59619 0.36902 0.0
Mn37 Mn 0.8248 0.7329 0.38294 0.0
C38 C 0.73646 0.6411 0.4226 0.0
C39 C 0.63726 0.54587 0.35369 0.0
C40 C 0.88793 0.59395 0.37632 0.0
O41 O 0.75219 0.63177 0.3213 0.0
O42 O 0.80816 0.72435 0.33307 0.0
C43 C 0.72192 0.83446 0.36312 0.0
N44 N 0.76435 0.80798 0.38687 0.0
C45 C 0.72741 0.88894 0.42833 0.0
C46 C 0.68364 0.91735 0.40423 0.0
C47 C 0.68084 0.88992 0.3715 0.0
C48 C 0.76722 0.83379 0.41848 0.0
H49 H 0.71931 0.81326 0.33801 0.0
C50 C 0.7818 0.68448 0.31207 0.0
O51 O 0.6948 0.51479 0.35119 0.0
O52 O 0.63706 0.60738 0.36359 0.0
N53 N 0.8446 0.74791 0.4298 0.0
C54 C 0.89012 0.71515 0.44994 0.0
C55 C 0.89918 0.73645 0.48351 0.0
C56 C 0.86194 0.79161 0.4959 0.0
C57 C 0.81671 0.82561 0.47441 0.0
C58 C 0.8103 0.80248 0.44109 0.0
H59 H 0.91886 0.67268 0.44058 0.0
O60 O 0.7212 0.57939 0.41841 0.0
O61 O 0.75074 0.67512 0.39517 0.0
O62 O 0.83339 0.56392 0.37224 0.0
O63 O 0.89038 0.6571 0.38022 0.0
C64 C 0.77741 0.88126 0.48481 0.0
C65 C 0.73266 0.91279 0.46181 0.0
H66 H 0.65173 0.96001 0.41062 0.0
H67 H 0.64697 0.91139 0.35282 0.0
H68 H 0.93448 0.71019 0.49986 0.0
H69 H 0.86856 0.80745 0.52191 0.0
H70 H 0.78096 0.90001 0.51048 0.0
H71 H 0.70242 0.9553 0.47017 0.0
Mn72 Mn 0.41135 0.27321 0.61039 0.0
Mn73 Mn 0.27475 0.1837 0.59627 0.0
C74 C 0.36675 0.27206 0.55673 0.0
C75 C 0.46158 0.37131 0.62575 0.0
C76 C 0.41367 0.12062 0.60301 0.0
O77 O 0.37553 0.25634 0.65807 0.0
O78 O 0.28312 0.20022 0.64617 0.0
C79 C 0.17312 0.28654 0.61606 0.0
N80 N 0.19967 0.24415 0.59231 0.0
C81 C 0.11882 0.28115 0.55081 0.0
C82 C 0.09035 0.32489 0.5749 0.0
C83 C 0.11768 0.32763 0.60765 0.0
C84 C 0.17394 0.24133 0.56068 0.0
H85 H 0.19425 0.28912 0.64119 0.0
C86 C 0.32284 0.22662 0.66723 0.0
O87 O 0.49265 0.31377 0.62832 0.0
O88 O 0.40011 0.37148 0.61579 0.0
N89 N 0.25988 0.16399 0.54939 0.0
C90 C 0.2927 0.11851 0.52925 0.0
C91 C 0.2715 0.10951 0.49566 0.0
C92 C 0.21637 0.14676 0.48325 0.0
C93 C 0.18229 0.19194 0.50474 0.0
C94 C 0.20532 0.1983 0.53808 0.0
H95 H 0.33515 0.08977 0.53863 0.0
O96 O 0.42842 0.28733 0.56103 0.0
O97 O 0.33256 0.25779 0.58412 0.0
O98 O 0.44365 0.17515 0.60721 0.0
O99 O 0.35056 0.11815 0.59901 0.0
C100 C 0.12666 0.23125 0.49431 0.0
C101 C 0.09506 0.27596 0.5173 0.0
H102 H 0.0477 0.35681 0.56849 0.0
H103 H 0.09616 0.36148 0.62634 0.0
H104 H 0.29781 0.07425 0.47931 0.0
H105 H 0.20059 0.14019 0.45722 0.0
H106 H 0.10799 0.22775 0.46862 0.0
H107 H 0.05258 0.30621 0.50893 0.0
Mn108 Mn 0.74409 0.89035 0.85595 0.0
Mn109 Mn 0.84731 0.75528 0.84963 0.0
C110 C 0.75864 0.83517 0.80372 0.0
C111 C 0.64043 0.94318 0.86768 0.0
C112 C 0.89589 0.89658 0.85092 0.0
O113 O 0.75865 0.86376 0.90644 0.0
O114 O 0.82067 0.77091 0.89694 0.0
C115 C 0.75485 0.65068 0.87129 0.0
N116 N 0.79966 0.67489 0.84835 0.0
C117 C 0.82184 0.56635 0.82515 0.0
C118 C 0.77472 0.54001 0.84792 0.0
C119 C 0.74016 0.58266 0.8707 0.0
C120 C 0.82973 0.63535 0.82488 0.0
H121 H 0.73217 0.68272 0.89041 0.0
C122 C 0.7911 0.81177 0.917 0.0
O123 O 0.69593 0.97436 0.8692 0.0
O124 O 0.64498 0.88016 0.8603 0.0
N125 N 0.88053 0.73184 0.80574 0.0
C126 C 0.92639 0.76531 0.78688 0.0
C127 C 0.97098 0.72955 0.76574 0.0
C128 C 0.96925 0.65974 0.76519 0.0
C129 C 0.91929 0.62663 0.78339 0.0
C130 C 0.87467 0.66517 0.80307 0.0
H131 H 0.93154 0.81842 0.78957 0.0
O132 O 0.73622 0.89646 0.80501 0.0
O133 O 0.76961 0.80658 0.83301 0.0
O134 O 0.8388 0.92581 0.85272 0.0
O135 O 0.90375 0.83347 0.85054 0.0
C136 C 0.91541 0.55666 0.785 0.0
C137 C 0.8649 0.52664 0.80468 0.0
H138 H 0.76615 0.48696 0.84883 0.0
H139 H 0.70474 0.56261 0.88882 0.0
H140 H 0.0092 0.7553 0.75157 0.0
H141 H 0.00793 0.63213 0.75153 0.0
H142 H 0.95102 0.52541 0.7711 0.0
H143 H 0.86172 0.47282 0.80514 0.0
Mn144 Mn 0.61659 0.76486 0.62335 0.0
Mn145 Mn 0.75166 0.66159 0.62953 0.0
C146 C 0.67203 0.75031 0.6755 0.0
C147 C 0.56377 0.86853 0.61161 0.0
C148 C 0.61033 0.61307 0.62843 0.0
O149 O 0.64291 0.75019 0.57283 0.0
O150 O 0.73581 0.6882 0.58224 0.0
C151 C 0.85616 0.75406 0.60773 0.0
N152 N 0.83206 0.70925 0.6307 0.0
C153 C 0.94069 0.68717 0.65381 0.0
C154 C 0.96692 0.73428 0.63101 0.0
C155 C 0.92416 0.76879 0.60825 0.0
C156 C 0.87169 0.67923 0.65415 0.0
H157 H 0.82403 0.77671 0.58864 0.0
C158 C 0.69484 0.71771 0.56222 0.0
O159 O 0.53255 0.81305 0.61018 0.0
O160 O 0.62682 0.86397 0.61893 0.0
N161 N 0.7753 0.62841 0.6734 0.0
C162 C 0.74192 0.58257 0.69231 0.0
C163 C 0.77778 0.53802 0.71344 0.0
C164 C 0.84758 0.53978 0.71391 0.0
C165 C 0.8806 0.58973 0.69566 0.0
C166 C 0.84197 0.63431 0.676 0.0
H167 H 0.6888 0.57739 0.68967 0.0
O168 O 0.61076 0.77281 0.6743 0.0
O169 O 0.70045 0.73929 0.64619 0.0
O170 O 0.58111 0.67016 0.62667 0.0
O171 O 0.67344 0.60517 0.62873 0.0
C172 C 0.95057 0.59362 0.69396 0.0
C173 C 0.9805 0.64414 0.67425 0.0
H174 H 0.01996 0.74288 0.63004 0.0
H175 H 0.94414 0.80421 0.59011 0.0
H176 H 0.7521 0.49979 0.72764 0.0
H177 H 0.87526 0.50109 0.72752 0.0
H178 H 0.98188 0.55797 0.70779 0.0
H179 H 0.03431 0.64732 0.67373 0.0
Mn180 Mn 0.23576 0.0956 0.86889 0.0
Mn181 Mn 0.32522 0.2322 0.88307 0.0
C182 C 0.23707 0.14 0.92259 0.0
C183 C 0.13764 0.04535 0.85358 0.0
C184 C 0.38836 0.09333 0.87615 0.0
O185 O 0.25241 0.13164 0.82123 0.0
O186 O 0.30849 0.22405 0.83319 0.0
C187 C 0.22229 0.33388 0.86349 0.0
N188 N 0.26476 0.30723 0.88718 0.0
C189 C 0.22786 0.38786 0.92881 0.0
C190 C 0.18404 0.41644 0.90478 0.0
C191 C 0.1812 0.38927 0.872 0.0
C192 C 0.26767 0.3328 0.91884 0.0
H193 H 0.21963 0.31288 0.83834 0.0
C194 C 0.28202 0.18442 0.8121 0.0
O195 O 0.19519 0.01434 0.85093 0.0
O196 O 0.13746 0.1068 0.86359 0.0
N197 N 0.34509 0.24685 0.92996 0.0
C198 C 0.39062 0.21392 0.95002 0.0
C199 C 0.3997 0.23496 0.98364 0.0
C200 C 0.36248 0.29002 -0.00385 0.0
C201 C 0.31724 0.32419 0.97473 0.0
C202 C 0.31079 0.30133 0.94136 0.0
H203 H 0.41934 0.17153 0.94057 0.0
O204 O 0.22184 0.07833 0.91826 0.0
O205 O 0.25121 0.1743 0.89522 0.0
O206 O 0.33383 0.06334 0.87196 0.0
O207 O 0.39081 0.15643 0.8802 0.0
C208 C 0.27793 0.37975 0.98526 0.0
C209 C 0.23315 0.41145 0.96234 0.0
H210 H 0.15212 0.45904 0.91127 0.0
H211 H 0.14729 0.41087 0.85337 0.0
H212 H 0.43501 0.20856 -7e-05 0.0
H213 H 0.36912 0.30565 0.02219 0.0
H214 H 0.2815 0.39829 0.01097 0.0
H215 H 0.20291 0.45388 0.97079 0.0
Mn216 Mn 0.91208 0.77088 0.11025 0.0
Mn217 Mn 0.77537 0.68147 0.09626 0.0
C218 C 0.86736 0.76961 0.05662 0.0
C219 C 0.96241 0.86897 0.12553 0.0
C220 C 0.91425 0.61828 0.10307 0.0
O221 O 0.87627 0.75423 0.15794 0.0
O222 O 0.78368 0.69832 0.14612 0.0
C223 C 0.67375 0.78445 0.11586 0.0
N224 N 0.70033 0.74193 0.09218 0.0
C225 C 0.61959 0.77875 0.05058 0.0
C226 C 0.59108 0.82262 0.0746 0.0
C227 C 0.61834 0.82552 0.10736 0.0
C228 C 0.67467 0.73896 0.06053 0.0
H229 H 0.69481 0.78714 0.14099 0.0
C230 C 0.82347 0.72476 0.16714 0.0
O231 O 0.99344 0.81142 0.12811 0.0
O232 O 0.90093 0.86918 0.11557 0.0
N233 N 0.76059 0.6615 0.04939 0.0
C234 C 0.79345 0.61593 0.02934 0.0
C235 C 0.77233 0.60678 -0.00426 0.0
C236 C 0.71724 0.64399 0.98325 0.0
C237 C 0.68314 0.68928 0.00466 0.0
C238 C 0.70608 0.69579 0.03801 0.0
H239 H 0.83587 0.58721 0.03878 0.0
O240 O 0.92907 0.78483 0.06086 0.0
O241 O 0.83323 0.75546 0.08404 0.0
O242 O 0.9443 0.67281 0.10714 0.0
O243 O 0.85112 0.61585 0.09913 0.0
C244 C 0.62755 0.72857 -0.00585 0.0
C245 C 0.59591 0.7734 0.01707 0.0
H246 H 0.54846 0.85452 0.06813 0.0
H247 H 0.59678 0.85946 0.12599 0.0
H248 H 0.79867 0.57143 0.97945 0.0
H249 H 0.70154 0.6373 0.95722 0.0
H250 H 0.60894 0.72495 0.96845 0.0
H251 H 0.55346 0.80363 0.00863 0.0
Mn252 Mn 0.24367 0.39107 0.35574 0.0
Mn253 Mn 0.34687 0.25593 0.34974 0.0
C254 C 0.25813 0.33535 0.30365 0.0
C255 C 0.14003 0.44395 0.36748 0.0
C256 C 0.39545 0.39726 0.35073 0.0
O257 O 0.25841 0.36499 0.40628 0.0
O258 O 0.32014 0.27184 0.39702 0.0
C259 C 0.25437 0.15143 0.37151 0.0
N260 N 0.29921 0.17552 0.34856 0.0
C261 C 0.32122 0.06691 0.32542 0.0
C262 C 0.27409 0.04069 0.34821 0.0
C263 C 0.2396 0.08343 0.37098 0.0
C264 C 0.32922 0.13589 0.3251 0.0
H265 H 0.23174 0.18355 0.39061 0.0
C266 C 0.29074 0.31303 0.41697 0.0
O267 O 0.19552 0.47518 0.36883 0.0
O268 O 0.14457 0.38086 0.36023 0.0
N269 N 0.38012 0.23226 0.30589 0.0
C270 C 0.42596 0.26564 0.28697 0.0
C271 C 0.47041 0.22979 0.26579 0.0
C272 C 0.46858 0.15999 0.26528 0.0
C273 C 0.41865 0.12698 0.28355 0.0
C274 C 0.37416 0.16561 0.30326 0.0
H275 H 0.43119 0.31875 0.28963 0.0
O276 O 0.23564 0.39663 0.30478 0.0
O277 O 0.26919 0.3071 0.33301 0.0
O278 O 0.33836 0.42652 0.35235 0.0
O279 O 0.4033 0.33414 0.35057 0.0
C280 C 0.4147 0.05702 0.28522 0.0
C281 C 0.36419 0.0271 0.30495 0.0
H282 H 0.26544 0.98765 0.34915 0.0
H283 H 0.20416 0.06347 0.38911 0.0
H284 H 0.50861 0.25546 0.25157 0.0
H285 H 0.50718 0.13231 0.25161 0.0
H286 H 0.45029 0.02569 0.27136 0.0
H287 H 0.36096 0.97329 0.30545 0.0
C288 C 0.17251 0.2363 -0.00064 0.0
C289 C 0.20853 0.20363 0.02552 0.0
H290 H 0.15469 0.24256 0.94528 0.0
C291 C 0.25679 0.15397 0.01655 0.0
H292 H 0.13494 0.2744 0.00531 0.0
C293 C 0.26707 0.13562 0.98291 0.0
C294 C 0.23156 0.16787 0.95693 0.0
H295 H 0.28566 0.12693 0.03564 0.0
H296 H 0.30268 0.09546 0.97716 0.0
C297 C 0.1841 0.21849 0.96514 0.0
C298 C 0.83389 0.74581 0.26292 0.0
C299 C 0.78844 0.6988 0.27503 0.0
H300 H 0.88069 0.79083 0.21953 0.0
C301 C 0.75172 0.66334 0.25127 0.0
H302 H 0.86299 0.77409 0.28045 0.0
C303 C 0.76154 0.6733 0.21627 0.0
C304 C 0.80884 0.71845 0.20417 0.0
H305 H 0.71594 0.62708 0.25967 0.0
H306 H 0.73332 0.64415 0.19875 0.0
C307 C 0.84421 0.75526 0.22792 0.0
C308 C 0.37108 0.24196 0.49644 0.0
C309 C 0.33881 0.27748 0.5224 0.0
H310 H 0.37971 0.22324 0.44372 0.0
C311 C 0.28812 0.32485 0.51418 0.0
H312 H 0.41131 0.20644 0.50218 0.0
C313 C 0.27021 0.33631 0.47997 0.0
C314 C 0.30287 0.30026 0.45382 0.0
H315 H 0.26405 0.35428 0.53403 0.0
H316 H 0.23204 0.3738 0.474 0.0
C317 C 0.35265 0.25212 0.4628 0.0
C318 C 0.70713 0.7469 0.7696 0.0
C319 C 0.75341 0.79783 0.77164 0.0
H320 H 0.6439 0.69209 0.73685 0.0
C321 C 0.78202 0.82273 0.74142 0.0
H322 H 0.68372 0.72756 0.79253 0.0
C323 C 0.76125 0.8004 0.70961 0.0
C324 C 0.7095 0.75502 0.70758 0.0
H325 H 0.81728 0.86253 0.74238 0.0
H326 H 0.78089 0.82358 0.68669 0.0
C327 C 0.68428 0.72668 0.73779 0.0
C328 C 0.20793 0.24591 0.26973 0.0
C329 C 0.25332 0.29768 0.27164 0.0
H330 H 0.14566 0.18971 0.23712 0.0
C331 C 0.28151 0.32276 0.24136 0.0
H332 H 0.18487 0.22639 0.29271 0.0
C333 C 0.26115 0.29974 0.20961 0.0
C334 C 0.2102 0.25344 0.20769 0.0
H335 H 0.3161 0.36314 0.24221 0.0
H336 H 0.28037 0.32306 0.18662 0.0
C337 C 0.18546 0.22497 0.23797 0.0
C338 C 0.67181 0.73797 0.49917 0.0
C339 C 0.70785 0.70553 0.52539 0.0
H340 H 0.65399 0.74379 0.44509 0.0
C341 C 0.75619 0.65587 0.51651 0.0
H342 H 0.63419 0.77606 0.50505 0.0
C343 C 0.76649 0.63727 0.48291 0.0
C344 C 0.73093 0.66927 0.45688 0.0
H345 H 0.78511 0.62901 0.53564 0.0
H346 H 0.80213 0.59711 0.47725 0.0
C347 C 0.68343 0.71991 0.46499 0.0
C348 C 0.26131 0.17437 0.71628 0.0
C349 C 0.30837 0.21986 0.70426 0.0
H350 H 0.21613 0.12741 0.75958 0.0
C351 C 0.34374 0.25648 0.72809 0.0
H352 H 0.2331 0.14534 0.69869 0.0
C353 C 0.33365 0.24653 0.76307 0.0
C354 C 0.28845 0.19919 0.77509 0.0
H355 H 0.38004 0.29229 0.71977 0.0
H356 H 0.36274 0.27469 0.78066 0.0
C357 C 0.25173 0.16391 0.75126 0.0
C358 C 0.87123 0.73968 -0.00371 0.0
C359 C 0.83925 0.77523 0.02234 0.0
H360 H 0.87954 0.72119 0.94354 0.0
C361 C 0.78869 0.82282 0.01423 0.0
H362 H 0.91133 0.70395 0.00195 0.0
C363 C 0.77071 0.83456 0.98005 0.0
C364 C 0.80315 0.79856 0.95382 0.0
H365 H 0.76482 0.85224 0.03414 0.0
H366 H 0.7327 0.87228 0.97418 0.0
C367 C 0.85269 0.75009 0.96269 0.0
C368 C 1.00199 0.05257 0.12412 0.0
C369 C 0.07092 0.04996 0.13034 0.0
H370 H 0.91326 0.99718 0.11794 0.0
C371 C 0.10217 0.98781 0.13777 0.0
H372 H 0.9763 0.09961 0.1185 0.0
C373 C 0.06609 0.92949 0.13772 0.0
C374 C 0.9979 0.9317 0.13011 0.0
H375 H 0.15501 0.98382 0.14313 0.0
H376 H 0.09226 0.88242 0.14268 0.0
C377 C 0.96584 0.99392 0.12392 0.0
C378 C 0.01419 0.44878 0.36712 0.0
C379 C 0.07491 0.48034 0.37206 0.0
H380 H 0.90765 0.45947 0.36456 0.0
C381 C 0.07329 0.54868 0.37977 0.0
H382 H 0.01364 0.39623 0.36112 0.0
C383 C 0.01276 0.58499 0.38168 0.0
C384 C 0.95192 0.55405 0.37593 0.0
H385 H 0.11905 0.57467 0.38381 0.0
H386 H 0.01392 0.63769 0.38727 0.0
C387 C 0.95339 0.48518 0.36905 0.0
C388 C 0.46504 0.49625 0.62401 0.0
C389 C 0.49706 0.43405 0.6303 0.0
H390 H 0.47556 0.60191 0.61844 0.0
C391 C 0.56523 0.43186 0.63796 0.0
H392 H 0.41247 0.4995 0.61801 0.0
C393 C 0.60134 0.49017 0.63793 0.0
C394 C 0.57013 0.55229 0.63038 0.0
H395 H 0.59137 0.3848 0.64299 0.0
H396 H 0.65416 0.48618 0.64331 0.0
C397 C 0.50122 0.5549 0.62415 0.0
C398 C 0.57367 0.04791 0.87994 0.0
C399 C 0.5753 0.9796 0.87216 0.0
H400 H 0.5143 0.13693 0.8874 0.0
C401 C 0.5146 0.94812 0.86701 0.0
H402 H 0.6194 0.07384 0.88414 0.0
C403 C 0.45383 0.98457 0.86882 0.0
C404 C 0.45235 0.0534 0.87579 0.0
H405 H 0.51408 0.89561 0.86093 0.0
H406 H 0.40811 0.95892 0.86419 0.0
C407 C 0.51315 0.08426 0.88174 0.0
C408 C 0.92322 0.49345 0.09768 0.0
C409 C 0.95414 0.55428 0.10348 0.0
H410 H 0.93357 0.38717 0.09547 0.0
C411 C 0.02301 0.55281 0.11036 0.0
H412 H 0.87052 0.49229 0.09209 0.0
C413 C 0.05943 0.49203 0.11224 0.0
C414 C 0.02789 0.43131 0.10725 0.0
H415 H 0.04871 0.59855 0.11488 0.0
H416 H 0.11198 0.49257 0.11825 0.0
C417 C 0.95955 0.43293 0.09955 0.0
C418 C 0.45365 0.50634 0.35501 0.0
C419 C 0.45626 0.43741 0.34883 0.0
H420 H 0.50905 0.59508 0.36118 0.0
C421 C 0.51841 0.40613 0.34143 0.0
H422 H 0.40661 0.53205 0.36061 0.0
C423 C 0.57673 0.4422 0.34149 0.0
C424 C 0.57453 0.51041 0.34908 0.0
H425 H 0.5224 0.35329 0.3361 0.0
H426 H 0.62381 0.41602 0.33656 0.0
C427 C 0.51231 0.54248 0.35523 0.0
C428 C 0.52245 0.05516 0.61032 0.0
C429 C 0.45361 0.05664 0.60336 0.0
H430 H 0.6114 0.9949 0.61825 0.0
C431 C 0.42274 0.99582 0.59746 0.0
H432 H 0.54811 0.10088 0.61492 0.0
C433 C 0.45907 0.9353 0.5993 0.0
C434 C 0.52737 0.93366 0.60708 0.0
H435 H 0.37006 0.99467 0.5918 0.0
H436 H 0.43312 0.88956 0.59513 0.0
C437 C 0.55888 0.99437 0.61217 0.0
C438 C 0.01879 0.90558 0.84143 0.0
C439 C 0.95667 0.93677 0.849 0.0
H440 H 0.12414 0.91557 0.83634 0.0
C441 C 0.95407 0.00567 0.85527 0.0
H442 H 0.02278 0.85276 0.83603 0.0
C443 C 0.0127 0.04186 0.85539 0.0
C444 C 0.0749 0.00986 0.84906 0.0
H445 H 0.90706 0.03132 0.86099 0.0
H446 H 0.00945 0.09443 0.86141 0.0
C447 C 0.07709 0.94169 0.84139 0.0
loop_
_geom_bond_atom_site_label_1
_geom_bond_atom_site_label_2
_geom_bond_distance
_geom_bond_site_symmetry_2
_ccdc_geom_bond_type
Mn0 O5 2.095 . S
Mn0 O15 2.162 . S
Mn0 O16 2.297 . S
Mn0 O24 2.385 . S
Mn0 O25 2.209 . S
Mn0 O26 2.094 . S
Mn1 O6 2.121 . S
Mn1 N8 2.257 . S
Mn1 N17 2.282 . S
Mn1 O25 2.215 . S
Mn1 O27 2.117 . S
C2 O24 1.234 . S
C2 O25 1.283 . S
C3 O15 1.281 . S
C3 O16 1.236 . S
C4 O26 1.240 . S
C4 O27 1.264 . S
O5 Mn0 2.095 . S
O5 C14 1.250 . S
O6 Mn1 2.121 . S
O6 C14 1.258 . S
C7 N8 1.326 . S
C7 C11 1.460 . S
C7 H13 0.929 . S
N8 Mn1 2.257 . S
N8 C7 1.326 . S
N8 C12 1.362 . S
C9 C10 1.258 . S
C9 C12 1.431 . S
C9 C29 1.449 . S
C10 C9 1.258 . S
C10 C11 1.477 . S
C10 H30 0.931 . S
C11 C7 1.460 . S
C11 C10 1.477 . S
C11 H31 0.930 . S
C12 N8 1.362 . S
C12 C9 1.431 . S
C12 C22 1.476 . S
H13 C7 0.929 . S
C14 O5 1.250 . S
C14 O6 1.258 . S
O15 Mn0 2.162 . S
O15 C3 1.281 . S
O16 Mn0 2.297 . S
O16 C3 1.236 . S
N17 Mn1 2.282 . S
N17 C18 1.328 . S
N17 C22 1.318 . S
C18 N17 1.328 . S
C18 C19 1.457 . S
C18 H23 0.929 . S
C19 C18 1.457 . S
C19 C20 1.291 . S
C19 H32 0.931 . S
C20 C19 1.291 . S
C20 C21 1.373 . S
C20 H33 0.929 . S
C21 C20 1.373 . S
C21 C22 1.396 . S
C21 C28 1.403 . S
C22 C12 1.476 . S
C22 N17 1.318 . S
C22 C21 1.396 . S
H23 C18 0.929 . S
O24 Mn0 2.385 . S
O24 C2 1.234 . S
O25 Mn0 2.209 . S
O25 Mn1 2.215 . S
O25 C2 1.283 . S
O26 Mn0 2.094 . S
O26 C4 1.240 . S
O27 Mn1 2.117 . S
O27 C4 1.264 . S
C28 C21 1.403 . S
C28 C29 1.399 . S
C28 H34 0.929 . S
C29 C9 1.449 . S
C29 C28 1.399 . S
C29 H35 0.930 . S
H30 C10 0.931 . S
H31 C11 0.930 . S
H32 C19 0.931 . S
H33 C20 0.929 . S
H34 C28 0.929 . S
H35 C29 0.930 . S
Mn36 O41 2.095 . S
Mn36 O51 2.162 . S
Mn36 O52 2.297 . S
Mn36 O60 2.385 . S
Mn36 O61 2.209 . S
Mn36 O62 2.094 . S
Mn37 O42 2.121 . S
Mn37 N44 2.257 . S
Mn37 N53 2.282 . S
Mn37 O61 2.215 . S
Mn37 O63 2.117 . S
C38 O60 1.234 . S
C38 O61 1.283 . S
C39 O51 1.281 . S
C39 O52 1.236 . S
C40 O62 1.240 . S
C40 O63 1.264 . S
O41 Mn36 2.095 . S
O41 C50 1.250 . S
O42 Mn37 2.121 . S
O42 C50 1.258 . S
C43 N44 1.326 . S
C43 C47 1.460 . S
C43 H49 0.929 . S
N44 Mn37 2.257 . S
N44 C43 1.326 . S
N44 C48 1.362 . S
C45 C46 1.258 . S
C45 C48 1.431 . S
C45 C65 1.449 . S
C46 C45 1.258 . S
C46 C47 1.477 . S
C46 H66 0.931 1_565 S
C47 C43 1.460 . S
C47 C46 1.477 . S
C47 H67 0.930 . S
C48 N44 1.362 . S
C48 C45 1.431 . S
C48 C58 1.476 . S
H49 C43 0.929 . S
C50 O41 1.250 . S
C50 O42 1.258 . S
O51 Mn36 2.162 . S
O51 C39 1.281 . S
O52 Mn36 2.297 . S
O52 C39 1.236 . S
N53 Mn37 2.282 . S
N53 C54 1.328 . S
N53 C58 1.318 . S
C54 N53 1.328 . S
C54 C55 1.457 . S
C54 H59 0.929 . S
C55 C54 1.457 . S
C55 C56 1.291 . S
C55 H68 0.931 . S
C56 C55 1.291 . S
C56 C57 1.373 . S
C56 H69 0.929 . S
C57 C56 1.373 . S
C57 C58 1.396 . S
C57 C64 1.403 . S
C58 C48 1.476 . S
C58 N53 1.318 . S
C58 C57 1.396 . S
H59 C54 0.929 . S
O60 Mn36 2.385 . S
O60 C38 1.234 . S
O61 Mn36 2.209 . S
O61 Mn37 2.215 . S
O61 C38 1.283 . S
O62 Mn36 2.094 . S
O62 C40 1.240 . S
O63 Mn37 2.117 . S
O63 C40 1.264 . S
C64 C57 1.403 . S
C64 C65 1.399 . S
C64 H70 0.929 . S
C65 C45 1.449 . S
C65 C64 1.399 . S
C65 H71 0.930 . S
H66 C46 0.931 1_545 S
H67 C47 0.930 . S
H68 C55 0.931 . S
H69 C56 0.929 . S
H70 C64 0.929 . S
H71 C65 0.930 . S
Mn72 O77 2.095 . S
Mn72 O87 2.162 . S
Mn72 O88 2.297 . S
Mn72 O96 2.385 . S
Mn72 O97 2.209 . S
Mn72 O98 2.094 . S
Mn73 O78 2.121 . S
Mn73 N80 2.257 . S
Mn73 N89 2.282 . S
Mn73 O97 2.215 . S
Mn73 O99 2.117 . S
C74 O96 1.234 . S
C74 O97 1.283 . S
C75 O87 1.281 . S
C75 O88 1.236 . S
C76 O98 1.240 . S
C76 O99 1.264 . S
O77 Mn72 2.095 . S
O77 C86 1.250 . S
O78 Mn73 2.121 . S
O78 C86 1.258 . S
C79 N80 1.326 . S
C79 C83 1.460 . S
C79 H85 0.929 . S
N80 Mn73 2.257 . S
N80 C79 1.326 . S
N80 C84 1.362 . S
C81 C82 1.258 . S
C81 C84 1.431 . S
C81 C101 1.449 . S
C82 C81 1.258 . S
C82 C83 1.477 . S
C82 H102 0.931 1_455 S
C83 C79 1.460 . S
C83 C82 1.477 . S
C83 H103 0.930 . S
C84 N80 1.362 . S
C84 C81 1.431 . S
C84 C94 1.476 . S
H85 C79 0.929 . S
C86 O77 1.250 . S
C86 O78 1.258 . S
O87 Mn72 2.162 . S
O87 C75 1.281 . S
O88 Mn72 2.297 . S
O88 C75 1.236 . S
N89 Mn73 2.282 . S
N89 C90 1.328 . S
N89 C94 1.318 . S
C90 N89 1.328 . S
C90 C91 1.457 . S
C90 H95 0.929 . S
C91 C90 1.457 . S
C91 C92 1.291 . S
C91 H104 0.931 . S
C92 C91 1.291 . S
C92 C93 1.373 . S
C92 H105 0.929 . S
C93 C92 1.373 . S
C93 C94 1.396 . S
C93 C100 1.403 . S
C94 C84 1.476 . S
C94 N89 1.318 . S
C94 C93 1.396 . S
H95 C90 0.929 . S
O96 Mn72 2.385 . S
O96 C74 1.234 . S
O97 Mn72 2.209 . S
O97 Mn73 2.215 . S
O97 C74 1.283 . S
O98 Mn72 2.094 . S
O98 C76 1.240 . S
O99 Mn73 2.117 . S
O99 C76 1.264 . S
C100 C93 1.403 . S
C100 C101 1.399 . S
C100 H106 0.929 . S
C101 C81 1.449 . S
C101 C100 1.399 . S
C101 H107 0.930 . S
H102 C82 0.931 1_655 S
H103 C83 0.930 . S
H104 C91 0.931 . S
H105 C92 0.929 . S
H106 C100 0.929 . S
H107 C101 0.930 . S
Mn108 O113 2.095 . S
Mn108 O123 2.162 . S
Mn108 O124 2.297 . S
Mn108 O132 2.385 . S
Mn108 O133 2.209 . S
Mn108 O134 2.094 . S
Mn109 O114 2.121 . S
Mn109 N116 2.257 . S
Mn109 N125 2.282 . S
Mn109 O133 2.215 . S
Mn109 O135 2.117 . S
C110 O132 1.234 . S
C110 O133 1.283 . S
C111 O123 1.281 . S
C111 O124 1.236 . S
C112 O134 1.240 . S
C112 O135 1.264 . S
O113 Mn108 2.095 . S
O113 C122 1.250 . S
O114 Mn109 2.121 . S
O114 C122 1.258 . S
C115 N116 1.326 . S
C115 C119 1.460 . S
C115 H121 0.929 . S
N116 Mn109 2.257 . S
N116 C115 1.326 . S
N116 C120 1.362 . S
C117 C118 1.258 . S
C117 C120 1.431 . S
C117 C137 1.449 . S
C118 C117 1.258 . S
C118 C119 1.477 . S
C118 H138 0.931 . S
C119 C115 1.460 . S
C119 C118 1.477 . S
C119 H139 0.930 . S
C120 N116 1.362 . S
C120 C117 1.431 . S
C120 C130 1.476 . S
H121 C115 0.929 . S
C122 O113 1.250 . S
C122 O114 1.258 . S
O123 Mn108 2.162 . S
O123 C111 1.281 . S
O124 Mn108 2.297 . S
O124 C111 1.236 . S
N125 Mn109 2.282 . S
N125 C126 1.328 . S
N125 C130 1.318 . S
C126 N125 1.328 . S
C126 C127 1.457 . S
C126 H131 0.929 . S
C127 C126 1.457 . S
C127 C128 1.291 . S
C127 H140 0.931 . S
C128 C127 1.291 . S
C128 C129 1.373 . S
C128 H141 0.929 . S
C129 C128 1.373 . S
C129 C130 1.396 . S
C129 C136 1.403 . S
C130 C120 1.476 . S
C130 N125 1.318 . S
C130 C129 1.396 . S
H131 C126 0.929 . S
O132 Mn108 2.385 . S
O132 C110 1.234 . S
O133 Mn108 2.209 . S
O133 Mn109 2.215 . S
O133 C110 1.283 . S
O134 Mn108 2.094 . S
O134 C112 1.240 . S
O135 Mn109 2.117 . S
O135 C112 1.264 . S
C136 C129 1.403 . S
C136 C137 1.399 . S
C136 H142 0.929 . S
C137 C117 1.449 . S
C137 C136 1.399 . S
C137 H143 0.930 . S
H138 C118 0.931 . S
H139 C119 0.930 . S
H140 C127 0.931 . S
H141 C128 0.929 . S
H142 C136 0.929 . S
H143 C137 0.930 . S
Mn144 O149 2.095 . S
Mn144 O159 2.162 . S
Mn144 O160 2.297 . S
Mn144 O168 2.385 . S
Mn144 O169 2.209 . S
Mn144 O170 2.094 . S
Mn145 O150 2.121 . S
Mn145 N152 2.257 . S
Mn145 N161 2.282 . S
Mn145 O169 2.215 . S
Mn145 O171 2.117 . S
C146 O168 1.234 . S
C146 O169 1.283 . S
C147 O159 1.281 . S
C147 O160 1.236 . S
C148 O170 1.240 . S
C148 O171 1.264 . S
O149 Mn144 2.095 . S
O149 C158 1.250 . S
O150 Mn145 2.121 . S
O150 C158 1.258 . S
C151 N152 1.326 . S
C151 C155 1.460 . S
C151 H157 0.929 . S
N152 Mn145 2.257 . S
N152 C151 1.326 . S
N152 C156 1.362 . S
C153 C154 1.258 . S
C153 C156 1.431 . S
C153 C173 1.449 . S
C154 C153 1.258 . S
C154 C155 1.477 . S
C154 H174 0.931 1_655 S
C155 C151 1.460 . S
C155 C154 1.477 . S
C155 H175 0.926 1_655 S
C156 N152 1.362 . S
C156 C153 1.431 . S
C156 C166 1.476 . S
H157 C151 0.929 . S
C158 O149 1.250 . S
C158 O150 1.258 . S
O159 Mn144 2.162 . S
O159 C147 1.281 . S
O160 Mn144 2.297 . S
O160 C147 1.236 . S
N161 Mn145 2.282 . S
N161 C162 1.328 . S
N161 C166 1.318 . S
C162 N161 1.328 . S
C162 C163 1.457 . S
C162 H167 0.929 . S
C163 C162 1.457 . S
C163 C164 1.291 . S
C163 H176 0.931 . S
C164 C163 1.291 . S
C164 C165 1.373 . S
C164 H177 0.929 . S
C165 C164 1.373 . S
C165 C166 1.396 . S
C165 C172 1.403 . S
C166 C156 1.476 . S
C166 N161 1.318 . S
C166 C165 1.396 . S
H167 C162 0.929 . S
O168 Mn144 2.385 . S
O168 C146 1.234 . S
O169 Mn144 2.209 . S
O169 Mn145 2.215 . S
O169 C146 1.283 . S
O170 Mn144 2.094 . S
O170 C148 1.240 . S
O171 Mn145 2.117 . S
O171 C148 1.264 . S
C172 C165 1.403 . S
C172 C173 1.399 . S
C172 H178 0.929 . S
C173 C153 1.449 . S
C173 C172 1.399 . S
C173 H179 0.926 1_655 S
H174 C154 0.931 1_455 S
H175 C155 0.926 1_455 S
H176 C163 0.931 . S
H177 C164 0.929 . S
H178 C172 0.929 . S
H179 C173 0.926 1_455 S
Mn180 O185 2.095 . S
Mn180 O195 2.162 . S
Mn180 O196 2.297 . S
Mn180 O204 2.385 . S
Mn180 O205 2.209 . S
Mn180 O206 2.094 . S
Mn181 O186 2.121 . S
Mn181 N188 2.257 . S
Mn181 N197 2.282 . S
Mn181 O205 2.215 . S
Mn181 O207 2.117 . S
C182 O204 1.234 . S
C182 O205 1.283 . S
C183 O195 1.281 . S
C183 O196 1.236 . S
C184 O206 1.240 . S
C184 O207 1.264 . S
O185 Mn180 2.095 . S
O185 C194 1.250 . S
O186 Mn181 2.121 . S
O186 C194 1.258 . S
C187 N188 1.326 . S
C187 C191 1.460 . S
C187 H193 0.929 . S
N188 Mn181 2.257 . S
N188 C187 1.326 . S
N188 C192 1.362 . S
C189 C190 1.258 . S
C189 C192 1.431 . S
C189 C209 1.449 . S
C190 C189 1.258 . S
C190 C191 1.477 . S
C190 H210 0.931 . S
C191 C187 1.460 . S
C191 C190 1.477 . S
C191 H211 0.930 . S
C192 N188 1.362 . S
C192 C189 1.431 . S
C192 C202 1.476 . S
H193 C187 0.929 . S
C194 O185 1.250 . S
C194 O186 1.258 . S
O195 Mn180 2.162 . S
O195 C183 1.281 . S
O196 Mn180 2.297 . S
O196 C183 1.236 . S
N197 Mn181 2.282 . S
N197 C198 1.328 . S
N197 C202 1.318 . S
C198 N197 1.328 . S
C198 C199 1.457 . S
C198 H203 0.929 . S
C199 C198 1.457 . S
C199 C200 1.291 1_556 S
C199 H212 0.931 1_556 S
C200 C199 1.291 1_554 S
C200 C201 1.373 1_554 S
C200 H213 0.929 . S
C201 C200 1.373 1_556 S
C201 C202 1.396 . S
C201 C208 1.403 . S
C202 C192 1.476 . S
C202 N197 1.318 . S
C202 C201 1.396 . S
H203 C198 0.929 . S
O204 Mn180 2.385 . S
O204 C182 1.234 . S
O205 Mn180 2.209 . S
O205 Mn181 2.215 . S
O205 C182 1.283 . S
O206 Mn180 2.094 . S
O206 C184 1.240 . S
O207 Mn181 2.117 . S
O207 C184 1.264 . S
C208 C201 1.403 . S
C208 C209 1.400 . S
C208 H214 0.928 1_556 S
C209 C189 1.449 . S
C209 C208 1.400 . S
C209 H215 0.930 . S
H210 C190 0.931 . S
H211 C191 0.930 . S
H212 C199 0.931 1_554 S
H213 C200 0.929 . S
H214 C208 0.928 1_554 S
H215 C209 0.930 . S
Mn216 O221 2.095 . S
Mn216 O231 2.162 . S
Mn216 O232 2.297 . S
Mn216 O240 2.385 . S
Mn216 O241 2.209 . S
Mn216 O242 2.094 . S
Mn217 O222 2.121 . S
Mn217 N224 2.257 . S
Mn217 N233 2.282 . S
Mn217 O241 2.215 . S
Mn217 O243 2.117 . S
C218 O240 1.234 . S
C218 O241 1.283 . S
C219 O231 1.281 . S
C219 O232 1.236 . S
C220 O242 1.240 . S
C220 O243 1.264 . S
O221 Mn216 2.095 . S
O221 C230 1.250 . S
O222 Mn217 2.121 . S
O222 C230 1.258 . S
C223 N224 1.326 . S
C223 C227 1.460 . S
C223 H229 0.929 . S
N224 Mn217 2.257 . S
N224 C223 1.326 . S
N224 C228 1.362 . S
C225 C226 1.258 . S
C225 C228 1.431 . S
C225 C245 1.449 . S
C226 C225 1.258 . S
C226 C227 1.477 . S
C226 H246 0.931 . S
C227 C223 1.460 . S
C227 C226 1.477 . S
C227 H247 0.930 . S
C228 N224 1.362 . S
C228 C225 1.431 . S
C228 C238 1.476 . S
H229 C223 0.929 . S
C230 O221 1.250 . S
C230 O222 1.258 . S
O231 Mn216 2.162 . S
O231 C219 1.281 . S
O232 Mn216 2.297 . S
O232 C219 1.236 . S
N233 Mn217 2.282 . S
N233 C234 1.328 . S
N233 C238 1.318 . S
C234 N233 1.328 . S
C234 C235 1.457 . S
C234 H239 0.929 . S
C235 C234 1.457 . S
C235 C236 1.291 1_554 S
C235 H248 0.931 1_554 S
C236 C235 1.291 1_556 S
C236 C237 1.373 1_556 S
C236 H249 0.929 . S
C237 C236 1.373 1_554 S
C237 C238 1.396 . S
C237 C244 1.403 . S
C238 C228 1.476 . S
C238 N233 1.318 . S
C238 C237 1.396 . S
H239 C234 0.929 . S
O240 Mn216 2.385 . S
O240 C218 1.234 . S
O241 Mn216 2.209 . S
O241 Mn217 2.215 . S
O241 C218 1.283 . S
O242 Mn216 2.094 . S
O242 C220 1.240 . S
O243 Mn217 2.117 . S
O243 C220 1.264 . S
C244 C237 1.403 . S
C244 C245 1.400 . S
C244 H250 0.928 1_554 S
C245 C225 1.449 . S
C245 C244 1.400 . S
C245 H251 0.930 . S
H246 C226 0.931 . S
H247 C227 0.930 . S
H248 C235 0.931 1_556 S
H249 C236 0.929 . S
H250 C244 0.928 1_556 S
H251 C245 0.930 . S
Mn252 O257 2.095 . S
Mn252 O267 2.162 . S
Mn252 O268 2.297 . S
Mn252 O276 2.385 . S
Mn252 O277 2.209 . S
Mn252 O278 2.094 . S
Mn253 O258 2.121 . S
Mn253 N260 2.257 . S
Mn253 N269 2.282 . S
Mn253 O277 2.215 . S
Mn253 O279 2.117 . S
C254 O276 1.234 . S
C254 O277 1.283 . S
C255 O267 1.281 . S
C255 O268 1.236 . S
C256 O278 1.240 . S
C256 O279 1.264 . S
O257 Mn252 2.095 . S
O257 C266 1.250 . S
O258 Mn253 2.121 . S
O258 C266 1.258 . S
C259 N260 1.326 . S
C259 C263 1.460 . S
C259 H265 0.929 . S
N260 Mn253 2.257 . S
N260 C259 1.326 . S
N260 C264 1.362 . S
C261 C262 1.258 . S
C261 C264 1.431 . S
C261 C281 1.449 . S
C262 C261 1.258 . S
C262 C263 1.477 . S
C262 H282 0.931 1_545 S
C263 C259 1.460 . S
C263 C262 1.477 . S
C263 H283 0.926 1_545 S
C264 N260 1.362 . S
C264 C261 1.431 . S
C264 C274 1.476 . S
H265 C259 0.929 . S
C266 O257 1.250 . S
C266 O258 1.258 . S
O267 Mn252 2.162 . S
O267 C255 1.281 . S
O268 Mn252 2.297 . S
O268 C255 1.236 . S
N269 Mn253 2.282 . S
N269 C270 1.328 . S
N269 C274 1.318 . S
C270 N269 1.328 . S
C270 C271 1.457 . S
C270 H275 0.929 . S
C271 C270 1.457 . S
C271 C272 1.291 . S
C271 H284 0.931 . S
C272 C271 1.291 . S
C272 C273 1.373 . S
C272 H285 0.929 . S
C273 C272 1.373 . S
C273 C274 1.396 . S
C273 C280 1.403 . S
C274 C264 1.476 . S
C274 N269 1.318 . S
C274 C273 1.396 . S
H275 C270 0.929 . S
O276 Mn252 2.385 . S
O276 C254 1.234 . S
O277 Mn252 2.209 . S
O277 Mn253 2.215 . S
O277 C254 1.283 . S
O278 Mn252 2.094 . S
O278 C256 1.240 . S
O279 Mn253 2.117 . S
O279 C256 1.264 . S
C280 C273 1.403 . S
C280 C281 1.399 . S
C280 H286 0.929 . S
C281 C261 1.449 . S
C281 C280 1.399 . S
C281 H287 0.926 1_545 S
H282 C262 0.931 1_565 S
H283 C263 0.926 1_565 S
H284 C271 0.931 . S
H285 C272 0.929 . S
H286 C280 0.929 . S
H287 C281 0.926 1_565 S
C288 C289 1.387 . S
C288 H292 0.950 . S
C288 C297 1.390 1_554 S
C289 C288 1.387 . S
C289 C291 1.387 . S
H290 C297 0.950 . S
C291 C289 1.387 . S
C291 C293 1.390 1_554 S
C291 H295 0.950 . S
H292 C288 0.950 . S
C293 C291 1.390 1_556 S
C293 C294 1.387 . S
C293 H296 0.950 . S
C294 C293 1.387 . S
C294 C297 1.387 . S
H295 C291 0.950 . S
H296 C293 0.950 . S
C297 C288 1.390 1_556 S
C297 H290 0.950 . S
C297 C294 1.387 . S
C298 C299 1.387 . S
C298 H302 0.950 . S
C298 C307 1.390 . S
C299 C298 1.387 . S
C299 C301 1.387 . S
H300 C307 0.950 . S
C301 C299 1.387 . S
C301 C303 1.390 . S
C301 H305 0.950 . S
H302 C298 0.950 . S
C303 C301 1.390 . S
C303 C304 1.387 . S
C303 H306 0.950 . S
C304 C303 1.387 . S
C304 C307 1.387 . S
H305 C301 0.950 . S
H306 C303 0.950 . S
C307 C298 1.390 . S
C307 H300 0.950 . S
C307 C304 1.387 . S
C308 C309 1.387 . S
C308 H312 0.950 . S
C308 C317 1.390 . S
C309 C308 1.387 . S
C309 C311 1.387 . S
H310 C317 0.950 . S
C311 C309 1.387 . S
C311 C313 1.390 . S
C311 H315 0.950 . S
H312 C308 0.950 . S
C313 C311 1.390 . S
C313 C314 1.387 . S
C313 H316 0.950 . S
C314 C313 1.387 . S
C314 C317 1.387 . S
H315 C311 0.950 . S
H316 C313 0.950 . S
C317 C308 1.390 . S
C317 H310 0.950 . S
C317 C314 1.387 . S
C318 C319 1.387 . S
C318 H322 0.950 . S
C318 C327 1.390 . S
C319 C318 1.387 . S
C319 C321 1.387 . S
H320 C327 0.950 . S
C321 C319 1.387 . S
C321 C323 1.390 . S
C321 H325 0.950 . S
H322 C318 0.950 . S
C323 C321 1.390 . S
C323 C324 1.387 . S
C323 H326 0.950 . S
C324 C323 1.387 . S
C324 C327 1.387 . S
H325 C321 0.950 . S
H326 C323 0.950 . S
C327 C318 1.390 . S
C327 H320 0.950 . S
C327 C324 1.387 . S
C328 C329 1.387 . S
C328 H332 0.950 . S
C328 C337 1.390 . S
C329 C328 1.387 . S
C329 C331 1.387 . S
H330 C337 0.950 . S
C331 C329 1.387 . S
C331 C333 1.390 . S
C331 H335 0.950 . S
H332 C328 0.950 . S
C333 C331 1.390 . S
C333 C334 1.387 . S
C333 H336 0.950 . S
C334 C333 1.387 . S
C334 C337 1.387 . S
H335 C331 0.950 . S
H336 C333 0.950 . S
C337 C328 1.390 . S
C337 H330 0.950 . S
C337 C334 1.387 . S
C338 C339 1.387 . S
C338 H342 0.950 . S
C338 C347 1.390 . S
C339 C338 1.387 . S
C339 C341 1.387 . S
H340 C347 0.950 . S
C341 C339 1.387 . S
C341 C343 1.390 . S
C341 H345 0.950 . S
H342 C338 0.950 . S
C343 C341 1.390 . S
C343 C344 1.387 . S
C343 H346 0.950 . S
C344 C343 1.387 . S
C344 C347 1.387 . S
H345 C341 0.950 . S
H346 C343 0.950 . S
C347 C338 1.390 . S
C347 H340 0.950 . S
C347 C344 1.387 . S
C348 C349 1.387 . S
C348 H352 0.950 . S
C348 C357 1.390 . S
C349 C348 1.387 . S
C349 C351 1.387 . S
H350 C357 0.950 . S
C351 C349 1.387 . S
C351 C353 1.390 . S
C351 H355 0.950 . S
H352 C348 0.950 . S
C353 C351 1.390 . S
C353 C354 1.387 . S
C353 H356 0.950 . S
C354 C353 1.387 . S
C354 C357 1.387 . S
H355 C351 0.950 . S
H356 C353 0.950 . S
C357 C348 1.390 . S
C357 H350 0.950 . S
C357 C354 1.387 . S
C358 C359 1.387 . S
C358 H362 0.950 . S
C358 C367 1.390 1_554 S
C359 C358 1.387 . S
C359 C361 1.387 . S
H360 C367 0.950 . S
C361 C359 1.387 . S
C361 C363 1.390 1_554 S
C361 H365 0.950 . S
H362 C358 0.950 . S
C363 C361 1.390 1_556 S
C363 C364 1.387 . S
C363 H366 0.950 . S
C364 C363 1.387 . S
C364 C367 1.387 . S
H365 C361 0.950 . S
H366 C363 0.950 . S
C367 C358 1.390 1_556 S
C367 H360 0.950 . S
C367 C364 1.387 . S
C368 C369 1.387 . S
C368 H372 0.950 . S
C368 C377 1.390 1_445 S
C369 C368 1.387 . S
C369 C371 1.387 . S
H370 C377 0.950 . S
C371 C369 1.387 . S
C371 C373 1.390 1_445 S
C371 H375 0.950 . S
H372 C368 0.950 . S
C373 C371 1.390 1_665 S
C373 C374 1.387 . S
C373 H376 0.950 . S
C374 C373 1.387 . S
C374 C377 1.387 . S
H375 C371 0.950 . S
H376 C373 0.950 . S
C377 C368 1.390 1_665 S
C377 H370 0.950 . S
C377 C374 1.387 . S
C378 C379 1.387 . S
C378 H382 0.950 . S
C378 C387 1.390 1_455 S
C379 C378 1.387 . S
C379 C381 1.387 . S
H380 C387 0.950 . S
C381 C379 1.387 . S
C381 C383 1.390 1_455 S
C381 H385 0.950 . S
H382 C378 0.950 . S
C383 C381 1.390 1_655 S
C383 C384 1.387 . S
C383 H386 0.950 . S
C384 C383 1.387 . S
C384 C387 1.387 . S
H385 C381 0.950 . S
H386 C383 0.950 . S
C387 C378 1.390 1_655 S
C387 H380 0.950 . S
C387 C384 1.387 . S
C388 C389 1.387 . S
C388 H392 0.950 . S
C388 C397 1.390 . S
C389 C388 1.387 . S
C389 C391 1.387 . S
H390 C397 0.950 . S
C391 C389 1.387 . S
C391 C393 1.390 . S
C391 H395 0.950 . S
H392 C388 0.950 . S
C393 C391 1.390 . S
C393 C394 1.387 . S
C393 H396 0.950 . S
C394 C393 1.387 . S
C394 C397 1.387 . S
H395 C391 0.950 . S
H396 C393 0.950 . S
C397 C388 1.390 . S
C397 H390 0.950 . S
C397 C394 1.387 . S
C398 C399 1.387 . S
C398 H402 0.950 . S
C398 C407 1.390 1_565 S
C399 C398 1.387 . S
C399 C401 1.387 . S
H400 C407 0.950 . S
C401 C399 1.387 . S
C401 C403 1.390 1_565 S
C401 H405 0.950 . S
H402 C398 0.950 . S
C403 C401 1.390 1_545 S
C403 C404 1.387 . S
C403 H406 0.950 . S
C404 C403 1.387 . S
C404 C407 1.387 . S
H405 C401 0.950 . S
H406 C403 0.950 . S
C407 C398 1.390 1_545 S
C407 H400 0.950 . S
C407 C404 1.387 . S
C408 C409 1.387 . S
C408 H412 0.950 . S
C408 C417 1.390 1_655 S
C409 C408 1.387 . S
C409 C411 1.387 . S
H410 C417 0.950 . S
C411 C409 1.387 . S
C411 C413 1.390 1_655 S
C411 H415 0.950 . S
H412 C408 0.950 . S
C413 C411 1.390 1_455 S
C413 C414 1.387 . S
C413 H416 0.950 . S
C414 C413 1.387 . S
C414 C417 1.387 . S
H415 C411 0.950 . S
H416 C413 0.950 . S
C417 C408 1.390 1_455 S
C417 H410 0.950 . S
C417 C414 1.387 . S
C418 C419 1.387 . S
C418 H422 0.950 . S
C418 C427 1.390 . S
C419 C418 1.387 . S
C419 C421 1.387 . S
H420 C427 0.950 . S
C421 C419 1.387 . S
C421 C423 1.390 . S
C421 H425 0.950 . S
H422 C418 0.950 . S
C423 C421 1.390 . S
C423 C424 1.387 . S
C423 H426 0.950 . S
C424 C423 1.387 . S
C424 C427 1.387 . S
H425 C421 0.950 . S
H426 C423 0.950 . S
C427 C418 1.390 . S
C427 H420 0.950 . S
C427 C424 1.387 . S
C428 C429 1.387 . S
C428 H432 0.950 . S
C428 C437 1.390 1_545 S
C429 C428 1.387 . S
C429 C431 1.387 . S
H430 C437 0.950 . S
C431 C429 1.387 . S
C431 C433 1.390 1_545 S
C431 H435 0.950 . S
H432 C428 0.950 . S
C433 C431 1.390 1_565 S
C433 C434 1.387 . S
C433 H436 0.950 . S
C434 C433 1.387 . S
C434 C437 1.387 . S
H435 C431 0.950 . S
H436 C433 0.950 . S
C437 C428 1.390 1_565 S
C437 H430 0.950 . S
C437 C434 1.387 . S
C438 C439 1.387 . S
C438 H442 0.950 . S
C438 C447 1.390 1_665 S
C439 C438 1.387 . S
C439 C441 1.387 . S
H440 C447 0.950 . S
C441 C439 1.387 . S
C441 C443 1.390 1_665 S
C441 H445 0.950 . S
H442 C438 0.950 . S
C443 C441 1.390 1_445 S
C443 C444 1.387 . S
C443 H446 0.950 . S
C444 C443 1.387 . S
C444 C447 1.387 . S
H445 C441 0.950 . S
H446 C443 0.950 . S
C447 C438 1.390 1_445 S
C447 H440 0.950 . S
C447 C444 1.387 . S
C289 C14 1.304 . S
C294 C182 1.273 . S
C299 C50 1.264 . S
C304 C230 1.263 . S
C309 C74 1.271 . S
C314 C266 1.306 . S
C319 C110 1.310 . S
C324 C146 1.308 . S
C329 C254 1.308 . S
C334 C2 1.306 . S
C339 C158 1.303 . S
C344 C38 1.274 . S
C349 C86 1.264 . S
C354 C194 1.262 . S
C359 C218 1.271 . S
C364 C122 1.306 . S
C369 C4 1.574 . S
C374 C219 1.560 . S
C379 C255 1.561 . S
C384 C40 1.574 . S
C389 C75 1.560 . S
C394 C148 1.574 . S
C399 C111 1.563 . S
C404 C184 1.574 . S
C409 C220 1.574 . S
C414 C3 1.563 . S
C419 C256 1.574 . S
C424 C39 1.560 . S
C429 C76 1.574 . S
C434 C147 1.561 . S
C439 C112 1.574 . S
C444 C183 1.562 . S
