# Generated by pormake.
# Topology ttw, (5)-cn, num edge types: 1
# Building blocks:
#     Node 0, Type 0, BuildingBlock: BEQFEK_clean_sbu_0, # of connection points: 5
#     Node 1, Type 0, BuildingBlock: BEQFEK_clean_sbu_0, # of connection points: 5
#     Node 2, Type 0, BuildingBlock: BEQFEK_clean_sbu_0, # of connection points: 5
#     Node 3, Type 0, BuildingBlock: BEQFEK_clean_sbu_0, # of connection points: 5
#     Node 4, Type 0, BuildingBlock: BEQFEK_clean_sbu_0, # of connection points: 5
#     Node 5, Type 0, BuildingBlock: BEQFEK_clean_sbu_0, # of connection points: 5
#     Edge 6, Type (0, 0), BuildingBlock: FUNLAD_clean_linker_0, # of connection points: 2
#     Edge 7, Type (0, 0), BuildingBlock: FUNLAD_clean_linker_0, # of connection points: 2
#     Edge 8, Type (0, 0), BuildingBlock: FUNLAD_clean_linker_0, # of connection points: 2
#     Edge 9, Type (0, 0), BuildingBlock: FUNLAD_clean_linker_0, # of connection points: 2
#     Edge 10, Type (0, 0), BuildingBlock: FUNLAD_clean_linker_0, # of connection points: 2
#     Edge 11, Type (0, 0), BuildingBlock: FUNLAD_clean_linker_0, # of connection points: 2
#     Edge 12, Type (0, 0), BuildingBlock: FUNLAD_clean_linker_0, # of connection points: 2
#     Edge 13, Type (0, 0), BuildingBlock: FUNLAD_clean_linker_0, # of connection points: 2
#     Edge 14, Type (0, 0), BuildingBlock: FUNLAD_clean_linker_0, # of connection points: 2
#     Edge 15, Type (0, 0), BuildingBlock: FUNLAD_clean_linker_0, # of connection points: 2
#     Edge 16, Type (0, 0), BuildingBlock: FUNLAD_clean_linker_0, # of connection points: 2
#     Edge 17, Type (0, 0), BuildingBlock: FUNLAD_clean_linker_0, # of connection points: 2
#     Edge 18, Type (0, 0), BuildingBlock: FUNLAD_clean_linker_0, # of connection points: 2
#     Edge 19, Type (0, 0), BuildingBlock: FUNLAD_clean_linker_0, # of connection points: 2
#     Edge 20, Type (0, 0), BuildingBlock: FUNLAD_clean_linker_0, # of connection points: 2
# Relax obj value: 0.114
# Max RMSD: 0.171
# Mean RMSD: 0.158
data_MOF--net-ttw--node1-BEQFEK_clean_sbu_0--edge1-FUNLAD_clean_linker_0
_symmetry_space_group_name_H-M    P1
_symmetry_Int_Tables_number       1
_symmetry_cell_setting            triclinic
loop_
_symmetry_equiv_pos_as_xyz
'x, y, z'
_cell_length_a     63.920696
_cell_length_b     66.74305
_cell_length_c     21.993533
_cell_angle_alpha  91.349156
_cell_angle_beta   90.004233
_cell_angle_gamma 125.72263
loop_
_atom_site_label
_atom_site_type_symbol
_atom_site_fract_x
_atom_site_fract_y
_atom_site_fract_z
_atom_type_partial_charge
Co0 Co 0.17968 0.52744 0.07905 0.0
Co1 Co 0.17682 0.52966 0.22196 0.0
C2 C 0.214 0.52259 0.16242 0.0
O3 O 0.20599 0.52328 0.10996 0.0
O4 O 0.20429 0.52453 0.21096 0.0
C5 C 0.18283 0.51023 0.95916 0.0
O6 O 0.19236 0.5002 0.98828 0.0
C7 C 0.17107 0.51869 0.35364 0.0
C8 C 0.15583 0.53945 0.38525 0.0
C9 C 0.16271 0.52448 0.40512 0.0
N10 N 0.16909 0.52973 0.30581 0.0
N11 N 0.16013 0.54222 0.32523 0.0
C12 C 0.17928 0.50183 0.34878 0.0
H13 H 0.17475 0.4931 0.30255 0.0
H14 H 0.16962 0.48737 0.38341 0.0
H15 H 0.20043 0.51278 0.35645 0.0
C16 C 0.12405 0.48874 0.09309 0.0
N17 N 0.14777 0.50538 0.11676 0.0
N18 N 0.14647 0.50582 0.17645 0.0
C19 C 0.12179 0.48928 0.19268 0.0
C20 C 0.10677 0.47796 0.14033 0.0
C21 C 0.11818 0.48361 0.02633 0.0
H22 H 0.1302 0.47823 0.00613 0.0
H23 H 0.09759 0.46857 0.01696 0.0
H24 H 0.12332 0.50069 0.00426 0.0
O25 O 0.19227 0.56215 0.09517 0.0
O26 O 0.19074 0.56336 0.19574 0.0
H27 H 0.11555 0.50359 0.27295 0.0
H28 H 0.09179 0.47099 0.26016 0.0
C29 C 0.11253 0.48624 0.25658 0.0
H30 H 0.1239 0.48261 0.28638 0.0
H31 H 0.15674 0.55249 0.29724 0.0
O32 O 0.17609 0.52206 0.98918 0.0
C33 C 0.19596 0.57395 0.14502 0.0
Co34 Co 0.48188 0.16448 0.11482 0.0
Co35 Co 0.47834 0.1625 0.97183 0.0
C36 C 0.47283 0.1972 0.04184 0.0
O37 O 0.47611 0.18948 0.09087 0.0
O38 O 0.4726 0.18803 0.99017 0.0
C39 C 0.45556 0.15213 0.22834 0.0
O40 O 0.43528 0.1435 0.19291 0.0
C41 C 0.46647 0.16015 0.83967 0.0
C42 C 0.48383 0.14187 0.80349 0.0
C43 C 0.47077 0.15164 0.78612 0.0
N44 N 0.4765 0.15548 0.88641 0.0
N45 N 0.48698 0.14473 0.86425 0.0
C46 C 0.45233 0.17164 0.84689 0.0
H47 H 0.46645 0.19203 0.84816 0.0
H48 H 0.44182 0.16613 0.89043 0.0
H49 H 0.43858 0.16614 0.80839 0.0
C50 C 0.44749 0.11036 0.09266 0.0
N51 N 0.45897 0.13359 0.07385 0.0
N52 N 0.4556 0.13303 0.01464 0.0
C53 C 0.44073 0.10934 0.99446 0.0
C54 C 0.43555 0.09412 0.04286 0.0
C55 C 0.45212 0.10434 0.15419 0.0
H56 H 0.47034 0.12041 0.1747 0.0
H57 H 0.43594 0.09957 0.18416 0.0
H58 H 0.45316 0.08832 0.15147 0.0
O59 O 0.51763 0.17686 0.09549 0.0
O60 O 0.51451 0.1761 0.99483 0.0
H61 H 0.44784 0.10171 0.90474 0.0
H62 H 0.41465 0.08222 0.92645 0.0
C63 C 0.43253 0.10134 0.92947 0.0
H64 H 0.42917 0.11401 0.90736 0.0
H65 H 0.49628 0.13928 0.89081 0.0
O66 O 0.47746 0.16156 0.20446 0.0
C67 C 0.52771 0.18067 0.04325 0.0
Co68 Co 0.48722 0.65304 0.03782 0.0
Co69 Co 0.49039 0.65336 0.17909 0.0
C70 C 0.50039 0.69689 0.11645 0.0
O71 O 0.49632 0.68575 0.06528 0.0
O72 O 0.49898 0.68674 0.16614 0.0
C73 C 0.5074 0.67122 0.91954 0.0
O74 O 0.527 0.69044 0.94927 0.0
C75 C 0.50149 0.6628 0.31171 0.0
C76 C 0.48547 0.62486 0.34011 0.0
C77 C 0.49745 0.64884 0.36214 0.0
N78 N 0.49259 0.64766 0.26218 0.0
N79 N 0.483 0.62506 0.27958 0.0
C80 C 0.51109 0.68929 0.31064 0.0
H81 H 0.49791 0.69098 0.28217 0.0
H82 H 0.53039 0.70025 0.28969 0.0
H83 H 0.51226 0.69695 0.3568 0.0
C84 C 0.52398 0.63974 0.04932 0.0
N85 N 0.50961 0.64667 0.0731 0.0
N86 N 0.51193 0.64802 0.13275 0.0
C87 C 0.52843 0.64262 0.14875 0.0
C88 C 0.53637 0.63691 0.09658 0.0
C89 C 0.52372 0.63361 0.9833 0.0
H90 H 0.50411 0.6246 0.96353 0.0
H91 H 0.53712 0.65094 0.95897 0.0
H92 H 0.52988 0.62125 0.97636 0.0
O93 O 0.45102 0.62704 0.05723 0.0
O94 O 0.45354 0.62818 0.15771 0.0
H95 H 0.52237 0.62529 0.23381 0.0
H96 H 0.55567 0.64585 0.21354 0.0
C97 C 0.5368 0.64313 0.21267 0.0
H98 H 0.53846 0.65826 0.23963 0.0
H99 H 0.47448 0.60968 0.24998 0.0
O100 O 0.48919 0.65332 0.9489 0.0
C101 C 0.44041 0.6193 0.10849 0.0
Co102 Co 0.80249 0.34688 0.1554 0.0
Co103 Co 0.80429 0.35294 0.01371 0.0
C104 C 0.76093 0.30725 0.0697 0.0
O105 O 0.77103 0.31582 0.12238 0.0
O106 O 0.77185 0.31951 0.02213 0.0
C107 C 0.78575 0.33511 0.27566 0.0
O108 O 0.76497 0.33096 0.24982 0.0
C109 C 0.80582 0.34653 0.88026 0.0
C110 C 0.8284 0.38542 0.85281 0.0
C111 C 0.81618 0.36148 0.82998 0.0
N112 N 0.81177 0.36108 0.93017 0.0
N113 N 0.82512 0.38426 0.9133 0.0
C114 C 0.7923 0.3192 0.8821 0.0
H115 H 0.7954 0.31407 0.9271 0.0
H116 H 0.79926 0.31277 0.84566 0.0
H117 H 0.7713 0.30986 0.87521 0.0
C118 C 0.85539 0.36154 0.13361 0.0
N119 N 0.83218 0.35485 0.11346 0.0
N120 N 0.83247 0.35624 0.05385 0.0
C121 C 0.85573 0.36335 0.03401 0.0
C122 C 0.87118 0.36724 0.08384 0.0
C123 C 0.86292 0.36512 0.19955 0.0
H124 H 0.85501 0.37398 0.22407 0.0
H125 H 0.85445 0.34681 0.21945 0.0
H126 H 0.88414 0.37665 0.20628 0.0
O127 O 0.79788 0.3736 0.14866 0.0
O128 O 0.79907 0.37735 0.04851 0.0
H129 H 0.86667 0.38403 0.95286 0.0
H130 H 0.88078 0.36738 0.96164 0.0
C131 C 0.86314 0.36663 0.96853 0.0
H132 H 0.84723 0.35105 0.94067 0.0
H133 H 0.83225 0.39934 0.9433 0.0
O134 O 0.80524 0.34227 0.24305 0.0
C135 C 0.79684 0.38379 0.10168 0.0
Co136 Co 0.40371 0.83795 0.1513 0.0
Co137 Co 0.39583 0.8336 0.00892 0.0
C138 C 0.43618 0.83074 0.06712 0.0
O139 O 0.42989 0.83364 0.11983 0.0
O140 O 0.42476 0.8305 0.01925 0.0
C141 C 0.41291 0.83168 0.27268 0.0
O142 O 0.4117 0.81314 0.24636 0.0
C143 C 0.40496 0.84339 0.87717 0.0
C144 C 0.36524 0.82668 0.84377 0.0
C145 C 0.39048 0.83908 0.82479 0.0
N146 N 0.38891 0.83396 0.92455 0.0
N147 N 0.36521 0.82389 0.90409 0.0
C148 C 0.43359 0.85746 0.8833 0.0
H149 H 0.44006 0.86568 0.92994 0.0
H150 H 0.44337 0.8722 0.84936 0.0
H151 H 0.43905 0.84461 0.87542 0.0
C152 C 0.40839 0.8841 0.13226 0.0
N153 N 0.40546 0.86353 0.11084 0.0
N154 N 0.40228 0.86191 0.05134 0.0
C155 C 0.40295 0.88139 0.03299 0.0
C156 C 0.40682 0.8961 0.0837 0.0
C157 C 0.4131 0.89215 0.19793 0.0
H158 H 0.4287 0.8913 0.2165 0.0
H159 H 0.41865 0.91122 0.20445 0.0
H160 H 0.39538 0.87925 0.22375 0.0
O161 O 0.36896 0.80638 0.1402 0.0
O162 O 0.36423 0.80355 0.03976 0.0
H163 H 0.37899 0.86776 0.95301 0.0
H164 H 0.39685 0.90061 0.96462 0.0
C165 C 0.3977 0.88458 0.9689 0.0
H166 H 0.41297 0.88698 0.93911 0.0
H167 H 0.349 0.81528 0.93152 0.0
O168 O 0.41008 0.84546 0.24011 0.0
C169 C 0.35578 0.7949 0.09213 0.0
Co170 Co 0.63131 0.46216 0.14934 0.0
Co171 Co 0.6256 0.4565 0.00774 0.0
C172 C 0.67094 0.46386 0.07177 0.0
O173 O 0.66264 0.465 0.12344 0.0
O174 O 0.65853 0.46064 0.02285 0.0
C175 C 0.65052 0.4716 0.27314 0.0
O176 O 0.66712 0.46776 0.25176 0.0
C177 C 0.63729 0.4675 0.87883 0.0
C178 C 0.59814 0.44682 0.83782 0.0
C179 C 0.62405 0.46219 0.82405 0.0
N180 N 0.61993 0.45581 0.9229 0.0
N181 N 0.59659 0.44334 0.89807 0.0
C182 C 0.66572 0.48491 0.89038 0.0
H183 H 0.66966 0.49353 0.93662 0.0
H184 H 0.67496 0.49949 0.85598 0.0
H185 H 0.67424 0.47443 0.88782 0.0
C186 C 0.62384 0.50108 0.12594 0.0
N187 N 0.62738 0.484 0.10639 0.0
N188 N 0.62516 0.48185 0.04674 0.0
C189 C 0.62009 0.4975 0.02639 0.0
C190 C 0.61906 0.51018 0.07583 0.0
C191 C 0.62205 0.50626 0.1916 0.0
H192 H 0.60701 0.48877 0.21335 0.0
H193 H 0.64068 0.51357 0.21499 0.0
H194 H 0.6173 0.51973 0.19749 0.0
O195 O 0.60055 0.42745 0.13697 0.0
O196 O 0.59689 0.42398 0.03638 0.0
H197 H 0.59653 0.48204 0.94592 0.0
H198 H 0.61369 0.51512 0.95459 0.0
C199 C 0.61494 0.49941 0.96119 0.0
H200 H 0.63062 0.50201 0.93279 0.0
H201 H 0.57959 0.43276 0.92248 0.0
O202 O 0.6341 0.47017 0.23725 0.0
C203 C 0.58903 0.41477 0.08853 0.0
C204 C 0.06545 0.4694 0.10344 0.0
C205 C 0.0784 0.4617 0.13552 0.0
C206 C 0.0386 0.45464 0.10018 0.0
C207 C 0.02412 0.43165 0.12855 0.0
C208 C 0.0372 0.42409 0.161 0.0
C209 C 0.06415 0.43895 0.16427 0.0
C210 C 0.99546 0.41587 0.1278 0.0
C211 C 0.98145 0.41686 0.08381 0.0
C212 C 0.95302 0.40328 0.08491 0.0
C213 C 0.94196 0.41282 0.05225 0.0
C214 C 0.91542 0.40112 0.05231 0.0
C215 C 0.89927 0.37935 0.08423 0.0
H216 H 0.94451 0.37306 0.14129 0.0
C217 C 0.91012 0.36952 0.11649 0.0
C218 C 0.93681 0.38136 0.11685 0.0
H219 H 0.89794 0.3526 0.14097 0.0
H220 H 0.07614 0.48714 0.08192 0.0
H221 H 0.0294 0.46173 0.07687 0.0
H222 H 0.02656 0.40664 0.18384 0.0
H223 H 0.07387 0.43274 0.18938 0.0
H224 H 0.98587 0.40347 0.16521 0.0
H225 H 0.9912 0.42905 0.0461 0.0
H226 H 0.95396 0.42966 0.0273 0.0
H227 H 0.90756 0.40929 0.02787 0.0
C228 C 0.4245 0.93828 0.04801 0.0
C229 C 0.40764 0.91867 0.0856 0.0
C230 C 0.42472 0.9593 0.04791 0.0
C231 C 0.40795 0.96105 0.08541 0.0
C232 C 0.39164 0.94169 0.12437 0.0
C233 C 0.39136 0.92057 0.12419 0.0
C234 C 0.40787 0.98325 0.08634 0.0
C235 C 0.41362 0.99705 0.03701 0.0
C236 C 0.41701 0.02103 0.03773 0.0
C237 C 0.43318 0.03822 0.99429 0.0
C238 C 0.43862 0.06169 0.99521 0.0
C239 C 0.42752 0.06836 0.0388 0.0
H240 H 0.39221 0.01444 0.11391 0.0
C241 C 0.41058 0.05095 0.08112 0.0
C242 C 0.40533 0.02742 0.08066 0.0
H243 H 0.40178 0.05571 0.11511 0.0
H244 H 0.43758 0.93735 0.01879 0.0
H245 H 0.43835 0.97427 0.01915 0.0
H246 H 0.37882 0.94273 0.15427 0.0
H247 H 0.37816 0.90559 0.15354 0.0
H248 H 0.4033 0.98834 0.12891 0.0
H249 H 0.41769 0.99139 0.99455 0.0
H250 H 0.44247 0.03381 0.96079 0.0
H251 H 0.45238 0.07491 0.96323 0.0
C252 C 0.62375 0.54947 0.099 0.0
C253 C 0.60886 0.52506 0.07607 0.0
C254 C 0.61355 0.56318 0.10038 0.0
C255 C 0.58821 0.55248 0.07927 0.0
C256 C 0.57341 0.52799 0.0567 0.0
C257 C 0.58371 0.51446 0.05464 0.0
C258 C 0.57597 0.56564 0.08362 0.0
C259 C 0.58905 0.59031 0.08082 0.0
C260 C 0.57586 0.60259 0.08607 0.0
C261 C 0.55471 0.59349 0.12453 0.0
C262 C 0.54213 0.60487 0.12806 0.0
C263 C 0.55045 0.62559 0.09347 0.0
H264 H 0.601 0.63118 0.02309 0.0
C265 C 0.57179 0.63501 0.05577 0.0
C266 C 0.58459 0.62372 0.05259 0.0
H267 H 0.57856 0.65109 0.02898 0.0
H268 H 0.64315 0.55783 0.11613 0.0
H269 H 0.62523 0.5818 0.11952 0.0
H270 H 0.55377 0.51927 0.04076 0.0
H271 H 0.57187 0.49554 0.03733 0.0
H272 H 0.55508 0.55434 0.08669 0.0
H273 H 0.60953 0.60162 0.07136 0.0
H274 H 0.54792 0.57765 0.15226 0.0
H275 H 0.5256 0.59721 0.15721 0.0
C276 C 0.18073 0.51664 0.49584 0.0
C277 C 0.16119 0.51725 0.46895 0.0
C278 C 0.18045 0.51268 0.55823 0.0
C279 C 0.16046 0.50911 0.59488 0.0
C280 C 0.14061 0.50901 0.56714 0.0
C281 C 0.14102 0.51314 0.50514 0.0
C282 C 0.16017 0.50717 0.66236 0.0
C283 C 0.17688 0.50557 0.69546 0.0
C284 C 0.17719 0.50605 0.76323 0.0
C285 C 0.18763 0.49551 0.79411 0.0
C286 C 0.18914 0.49651 0.85774 0.0
C287 C 0.18046 0.50833 0.89188 0.0
H288 H 0.16124 0.52709 0.77572 0.0
C289 C 0.17007 0.51894 0.86101 0.0
C290 C 0.16856 0.51793 0.79752 0.0
H291 H 0.16339 0.52836 0.88583 0.0
H292 H 0.19689 0.5204 0.46944 0.0
H293 H 0.19641 0.51333 0.5773 0.0
H294 H 0.12498 0.50637 0.59386 0.0
H295 H 0.12571 0.51355 0.48566 0.0
H296 H 0.1453 0.50727 0.68595 0.0
H297 H 0.19063 0.50351 0.67299 0.0
H298 H 0.19469 0.48649 0.76893 0.0
H299 H 0.19736 0.48825 0.88006 0.0
C300 C 0.47462 0.16525 0.33364 0.0
C301 C 0.45291 0.15051 0.29521 0.0
C302 C 0.47218 0.1636 0.39683 0.0
C303 C 0.44798 0.14695 0.4229 0.0
C304 C 0.42633 0.13208 0.38448 0.0
C305 C 0.4287 0.13404 0.32128 0.0
C306 C 0.44518 0.14347 0.48959 0.0
C307 C 0.46009 0.16192 0.5306 0.0
C308 C 0.45954 0.15796 0.59696 0.0
C309 C 0.46716 0.17755 0.63832 0.0
C310 C 0.4695 0.17516 0.70059 0.0
C311 C 0.46465 0.15324 0.7224 0.0
H312 H 0.44871 0.12048 0.58873 0.0
C313 C 0.45663 0.13351 0.68125 0.0
C314 C 0.45395 0.13576 0.61926 0.0
H315 H 0.45304 0.1165 0.69687 0.0
H316 H 0.49354 0.17809 0.3149 0.0
H317 H 0.48939 0.17486 0.42504 0.0
H318 H 0.40754 0.1189 0.40343 0.0
H319 H 0.41163 0.12232 0.29285 0.0
H320 H 0.43017 0.12518 0.50515 0.0
H321 H 0.47329 0.18067 0.51514 0.0
H322 H 0.47191 0.19495 0.62222 0.0
H323 H 0.47635 0.19089 0.73106 0.0
C324 C 0.52649 0.68854 0.81784 0.0
C325 C 0.50561 0.67061 0.85257 0.0
C326 C 0.52427 0.68776 0.75437 0.0
C327 C 0.50103 0.66908 0.72485 0.0
C328 C 0.48016 0.65148 0.75981 0.0
C329 C 0.48245 0.65209 0.82283 0.0
C330 C 0.49743 0.66693 0.65797 0.0
C331 C 0.51663 0.67506 0.61819 0.0
C332 C 0.51137 0.6687 0.55228 0.0
C333 C 0.52976 0.68456 0.50976 0.0
C334 C 0.52528 0.67845 0.44752 0.0
C335 C 0.50236 0.65631 0.42708 0.0
H336 H 0.47463 0.63297 0.56288 0.0
C337 C 0.4843 0.64021 0.46969 0.0
C338 C 0.48874 0.64627 0.53153 0.0
H339 H 0.46668 0.62281 0.4552 0.0
H340 H 0.54451 0.70313 0.83962 0.0
H341 H 0.54059 0.70197 0.72893 0.0
H342 H 0.46204 0.63694 0.73821 0.0
H343 H 0.46591 0.63809 0.84821 0.0
H344 H 0.47767 0.65662 0.64107 0.0
H345 H 0.53656 0.68589 0.63391 0.0
H346 H 0.5476 0.70166 0.52473 0.0
H347 H 0.53995 0.69073 0.41566 0.0
C348 C 0.7933 0.33348 0.73812 0.0
C349 C 0.81534 0.35475 0.76495 0.0
C350 C 0.7921 0.32875 0.67537 0.0
C351 C 0.81289 0.34538 0.63818 0.0
C352 C 0.8352 0.36611 0.66559 0.0
C353 C 0.83635 0.37085 0.72807 0.0
C354 C 0.81199 0.34234 0.57076 0.0
C355 C 0.78992 0.32974 0.5375 0.0
C356 C 0.7891 0.32985 0.46983 0.0
C357 C 0.7667 0.32454 0.44112 0.0
C358 C 0.7655 0.32588 0.37807 0.0
C359 C 0.78668 0.33246 0.34207 0.0
H360 H 0.82728 0.33889 0.45342 0.0
C361 C 0.8088 0.33693 0.37039 0.0
C362 C 0.80998 0.33553 0.43355 0.0
H363 H 0.82533 0.34171 0.34383 0.0
H364 H 0.7766 0.32094 0.76502 0.0
H365 H 0.7748 0.3122 0.65637 0.0
H366 H 0.85159 0.37914 0.6383 0.0
H367 H 0.85365 0.38736 0.74748 0.0
H368 H 0.83032 0.35299 0.54779 0.0
H369 H 0.77163 0.32083 0.56047 0.0
H370 H 0.75022 0.31988 0.4677 0.0
H371 H 0.74807 0.32213 0.35773 0.0
C372 C 0.41786 0.85555 0.36827 0.0
C373 C 0.4165 0.83578 0.33952 0.0
C374 C 0.42003 0.85862 0.43169 0.0
C375 C 0.42065 0.8418 0.46781 0.0
C376 C 0.42022 0.82261 0.43875 0.0
C377 C 0.41811 0.81957 0.37545 0.0
C378 C 0.42118 0.84318 0.5356 0.0
C379 C 0.41275 0.85443 0.56831 0.0
C380 C 0.40938 0.85247 0.63541 0.0
C381 C 0.39102 0.85515 0.66104 0.0
C382 C 0.38557 0.85151 0.72289 0.0
C383 C 0.39869 0.84552 0.76098 0.0
H384 H 0.43806 0.8458 0.65633 0.0
C385 C 0.41788 0.84384 0.7361 0.0
C386 C 0.42326 0.84736 0.67393 0.0
H387 H 0.42804 0.83885 0.76396 0.0
H388 H 0.41704 0.86858 0.34184 0.0
H389 H 0.42123 0.8742 0.45188 0.0
H390 H 0.42092 0.80951 0.4652 0.0
H391 H 0.41732 0.80424 0.35482 0.0
H392 H 0.42641 0.8325 0.55892 0.0
H393 H 0.40546 0.86335 0.54481 0.0
H394 H 0.38019 0.85929 0.63273 0.0
H395 H 0.37073 0.85302 0.74078 0.0
C396 C 0.66609 0.47535 0.38022 0.0
C397 C 0.6497 0.47597 0.33897 0.0
C398 C 0.66385 0.47759 0.44283 0.0
C399 C 0.64521 0.48064 0.46531 0.0
C400 C 0.62934 0.48189 0.42388 0.0
C401 C 0.6316 0.47968 0.36144 0.0
C402 C 0.64004 0.48039 0.53114 0.0
C403 C 0.65699 0.48548 0.57596 0.0
C404 C 0.64995 0.48211 0.64118 0.0
C405 C 0.66319 0.47704 0.68165 0.0
C406 C 0.65541 0.47132 0.74196 0.0
C407 C 0.63432 0.47075 0.7628 0.0
H408 H 0.61972 0.48776 0.63457 0.0
C409 C 0.62181 0.4769 0.72325 0.0
C410 C 0.62972 0.48284 0.66328 0.0
H411 H 0.60572 0.47693 0.73864 0.0
H412 H 0.68019 0.47244 0.3643 0.0
H413 H 0.67603 0.4759 0.47309 0.0
H414 H 0.61476 0.48412 0.43991 0.0
H415 H 0.61873 0.48035 0.33091 0.0
H416 H 0.62087 0.47486 0.54252 0.0
H417 H 0.67611 0.49078 0.56484 0.0
H418 H 0.67896 0.47654 0.66599 0.0
H419 H 0.66518 0.46633 0.77135 0.0
C420 C 0.24683 0.51873 0.11339 0.0
C421 C 0.2372 0.5227 0.16625 0.0
C422 C 0.27127 0.52367 0.11375 0.0
C423 C 0.28674 0.53297 0.16691 0.0
C424 C 0.27618 0.53474 0.22101 0.0
C425 C 0.25164 0.5297 0.22075 0.0
C426 C 0.31445 0.54279 0.16651 0.0
C427 C 0.32917 0.55335 0.11715 0.0
C428 C 0.3578 0.56786 0.11693 0.0
C429 C 0.37019 0.5749 0.06062 0.0
C430 C 0.39702 0.59097 0.05773 0.0
C431 C 0.41216 0.6005 0.11127 0.0
H432 H 0.36453 0.5723 0.21507 0.0
C433 C 0.39988 0.59281 0.16767 0.0
C434 C 0.37303 0.57675 0.17058 0.0
H435 H 0.41096 0.59978 0.20986 0.0
H436 H 0.23596 0.51279 0.07093 0.0
H437 H 0.27824 0.52089 0.07182 0.0
H438 H 0.28752 0.54147 0.26284 0.0
H439 H 0.24469 0.53271 0.26242 0.0
H440 H 0.32315 0.54345 0.20949 0.0
H441 H 0.32008 0.55285 0.07489 0.0
H442 H 0.35902 0.56844 0.01852 0.0
H443 H 0.40581 0.5964 0.01348 0.0
C444 C 0.57059 0.19582 0.09012 0.0
C445 C 0.55542 0.19118 0.03813 0.0
C446 C 0.59701 0.20691 0.08515 0.0
C447 C 0.60881 0.21355 0.02794 0.0
C448 C 0.59356 0.20857 0.97606 0.0
C449 C 0.56717 0.19738 0.98095 0.0
C450 C 0.63716 0.22778 0.02115 0.0
C451 C 0.65287 0.22755 0.06152 0.0
C452 C 0.68141 0.24525 0.06008 0.0
C453 C 0.69535 0.25204 0.11511 0.0
C454 C 0.72161 0.27127 0.11764 0.0
C455 C 0.73457 0.28404 0.06492 0.0
H456 H 0.68499 0.25119 0.96264 0.0
C457 C 0.7211 0.27588 0.0089 0.0
C458 C 0.69479 0.25663 0.00643 0.0
H459 H 0.73058 0.28502 0.96725 0.0
H460 H 0.56218 0.19134 0.13487 0.0
H461 H 0.60818 0.21109 0.12651 0.0
H462 H 0.60217 0.21369 0.93154 0.0
H463 H 0.5561 0.19408 0.93988 0.0
H464 H 0.64527 0.23971 0.98244 0.0
H465 H 0.64467 0.21556 0.10014 0.0
H466 H 0.68564 0.24333 0.15697 0.0
H467 H 0.73143 0.27684 0.16151 0.0
C468 C 0.51027 0.73429 0.06387 0.0
C469 C 0.50447 0.72113 0.11766 0.0
C470 C 0.51025 0.75519 0.06239 0.0
C471 C 0.50396 0.76317 0.11459 0.0
C472 C 0.50002 0.75103 0.16933 0.0
C473 C 0.5003 0.73026 0.17094 0.0
C474 C 0.49939 0.78266 0.11346 0.0
C475 C 0.49474 0.79028 0.06209 0.0
C476 C 0.48374 0.80476 0.0617 0.0
C477 C 0.47066 0.80369 0.00895 0.0
C478 C 0.45649 0.81358 0.00928 0.0
C479 C 0.45507 0.82473 0.06256 0.0
H480 H 0.49501 0.82033 0.154 0.0
C481 C 0.46986 0.82762 0.11379 0.0
C482 C 0.48422 0.81794 0.11327 0.0
H483 H 0.46964 0.83661 0.15519 0.0
H484 H 0.51412 0.72803 0.02229 0.0
H485 H 0.51457 0.76452 0.01981 0.0
H486 H 0.4955 0.7569 0.21053 0.0
H487 H 0.49593 0.72066 0.21323 0.0
H488 H 0.49672 0.78859 0.15726 0.0
H489 H 0.49586 0.78321 0.01828 0.0
H490 H 0.47026 0.79402 0.96818 0.0
H491 H 0.4455 0.81122 0.96883 0.0
C492 C 0.79388 0.41645 0.05865 0.0
C493 C 0.79086 0.40206 0.1081 0.0
C494 C 0.78512 0.43134 0.06168 0.0
C495 C 0.77268 0.43179 0.114 0.0
C496 C 0.77124 0.41866 0.16477 0.0
C497 C 0.78025 0.40396 0.16194 0.0
C498 C 0.75953 0.44428 0.11656 0.0
C499 C 0.75213 0.45022 0.06667 0.0
C500 C 0.73397 0.45734 0.06806 0.0
C501 C 0.72039 0.4543 0.01434 0.0
C502 C 0.70073 0.45759 0.0148 0.0
C503 C 0.6942 0.46404 0.06916 0.0
H504 H 0.73941 0.46926 0.16337 0.0
C505 C 0.70895 0.46875 0.12206 0.0
C506 C 0.72873 0.46561 0.12151 0.0
H507 H 0.70478 0.47425 0.16445 0.0
H508 H 0.8025 0.41579 0.01692 0.0
H509 H 0.78778 0.44199 0.02242 0.0
H510 H 0.7621 0.41889 0.20601 0.0
H511 H 0.77779 0.39324 0.20103 0.0
H512 H 0.75318 0.44588 0.16096 0.0
H513 H 0.75699 0.44704 0.02198 0.0
H514 H 0.72422 0.4483 0.97225 0.0
H515 H 0.68995 0.45404 0.97304 0.0
C516 C 0.21707 0.61375 0.09015 0.0
C517 C 0.20873 0.60095 0.1448 0.0
C518 C 0.23214 0.63955 0.09086 0.0
C519 C 0.23908 0.6531 0.14637 0.0
C520 C 0.22985 0.64024 0.20066 0.0
C521 C 0.21474 0.61448 0.19996 0.0
C522 C 0.25814 0.68038 0.15008 0.0
C523 C 0.26317 0.69526 0.10348 0.0
C524 C 0.28543 0.72177 0.10317 0.0
C525 C 0.29447 0.73296 0.04679 0.0
C526 C 0.31686 0.75695 0.04339 0.0
C527 C 0.33075 0.77042 0.09647 0.0
H528 H 0.29177 0.72829 0.20119 0.0
C529 C 0.32101 0.75975 0.15319 0.0
C530 C 0.29853 0.73573 0.1566 0.0
H531 H 0.331 0.76976 0.19502 0.0
H532 H 0.21287 0.60392 0.04687 0.0
H533 H 0.23936 0.64866 0.04803 0.0
H534 H 0.23498 0.65019 0.24405 0.0
H535 H 0.2086 0.60525 0.24297 0.0
H536 H 0.2692 0.68803 0.19221 0.0
H537 H 0.25174 0.68741 0.06181 0.0
H538 H 0.28468 0.7228 0.00492 0.0
H539 H 0.32363 0.76465 0.99888 0.0
C540 C 0.47429 0.23036 0.10182 0.0
C541 C 0.47299 0.21949 0.04504 0.0
C542 C 0.48001 0.254 0.10557 0.0
C543 C 0.4847 0.26733 0.05254 0.0
C544 C 0.4809 0.25552 0.99572 0.0
C545 C 0.47518 0.23186 0.99191 0.0
C546 C 0.49582 0.29408 0.05457 0.0
C547 C 0.5119 0.30951 0.09979 0.0
C548 C 0.52872 0.33692 0.09654 0.0
C549 C 0.5411 0.351 0.15007 0.0
C550 C 0.55996 0.37647 0.14804 0.0
C551 C 0.56703 0.38842 0.09219 0.0
H552 H 0.52659 0.3391 0.99826 0.0
C553 C 0.55391 0.37452 0.0389 0.0
C554 C 0.53505 0.34909 0.04092 0.0
H555 H 0.5588 0.38311 0.99505 0.0
H556 H 0.47214 0.22113 0.14368 0.0
H557 H 0.48159 0.26205 0.15013 0.0
H558 H 0.48398 0.26522 0.95411 0.0
H559 H 0.474 0.22393 0.9474 0.0
H560 H 0.49299 0.30144 0.01448 0.0
H561 H 0.51466 0.30191 0.13956 0.0
H562 H 0.53675 0.34215 0.19352 0.0
H563 H 0.56963 0.38661 0.19 0.0
loop_
_geom_bond_atom_site_label_1
_geom_bond_atom_site_label_2
_geom_bond_distance
_geom_bond_site_symmetry_2
_ccdc_geom_bond_type
Co0 O3 1.970 . S
Co0 N17 1.989 . S
Co0 O25 1.967 . S
Co0 O32 1.920 1_554 S
Co1 O4 1.966 . S
Co1 N10 2.022 . S
Co1 N18 1.993 . S
Co1 O26 1.941 . S
C2 O3 1.258 . S
C2 O4 1.263 . S
O3 Co0 1.970 . S
O3 C2 1.258 . S
O4 Co1 1.966 . S
O4 C2 1.263 . S
C5 O6 1.235 . S
C5 O32 1.289 . S
O6 C5 1.235 . S
C7 C9 1.400 . S
C7 N10 1.351 . S
C7 C12 1.501 . S
C8 C9 1.387 . S
C8 N11 1.341 . S
C9 C7 1.400 . S
C9 C8 1.387 . S
N10 Co1 2.022 . S
N10 C7 1.351 . S
N10 N11 1.365 . S
N11 C8 1.341 . S
N11 N10 1.365 . S
N11 H31 0.862 . S
C12 C7 1.501 . S
C12 H13 0.961 . S
C12 H14 0.961 . S
C12 H15 0.960 . S
H13 C12 0.961 . S
H14 C12 0.961 . S
H15 C12 0.960 . S
C16 N17 1.342 . S
C16 C20 1.401 . S
C16 C21 1.499 1_554 S
N17 Co0 1.989 . S
N17 C16 1.342 . S
N17 N18 1.388 . S
N18 Co1 1.993 . S
N18 N17 1.388 . S
N18 C19 1.346 . S
C19 N18 1.346 . S
C19 C20 1.396 . S
C19 C29 1.510 . S
C20 C16 1.401 . S
C20 C19 1.396 . S
C21 C16 1.499 1_556 S
C21 H22 0.959 . S
C21 H23 0.960 . S
C21 H24 0.961 . S
H22 C21 0.959 . S
H23 C21 0.960 . S
H24 C21 0.961 . S
O25 Co0 1.967 . S
O25 C33 1.258 . S
O26 Co1 1.941 . S
O26 C33 1.266 . S
H27 C29 0.959 . S
H28 C29 0.961 . S
C29 C19 1.510 . S
C29 H27 0.959 . S
C29 H28 0.961 . S
C29 H30 0.960 . S
H30 C29 0.960 . S
H31 N11 0.862 . S
O32 Co0 1.920 1_556 S
O32 C5 1.289 . S
C33 O25 1.258 . S
C33 O26 1.266 . S
Co34 O37 1.970 . S
Co34 N51 1.989 . S
Co34 O59 1.967 . S
Co34 O66 1.920 . S
Co35 O38 1.966 . S
Co35 N44 2.022 1_554 S
Co35 N52 1.993 . S
Co35 O60 1.941 . S
C36 O37 1.258 . S
C36 O38 1.263 . S
O37 Co34 1.970 . S
O37 C36 1.258 . S
O38 Co35 1.966 . S
O38 C36 1.263 . S
C39 O40 1.235 . S
C39 O66 1.289 . S
O40 C39 1.235 . S
C41 C43 1.400 . S
C41 N44 1.351 . S
C41 C46 1.501 . S
C42 C43 1.387 . S
C42 N45 1.341 . S
C43 C41 1.400 . S
C43 C42 1.387 . S
N44 Co35 2.022 1_556 S
N44 C41 1.351 . S
N44 N45 1.365 . S
N45 C42 1.341 . S
N45 N44 1.365 . S
N45 H65 0.862 . S
C46 C41 1.501 . S
C46 H47 0.961 . S
C46 H48 0.961 . S
C46 H49 0.960 . S
H47 C46 0.961 . S
H48 C46 0.961 . S
H49 C46 0.960 . S
C50 N51 1.342 . S
C50 C54 1.401 . S
C50 C55 1.499 . S
N51 Co34 1.989 . S
N51 C50 1.342 . S
N51 N52 1.388 . S
N52 Co35 1.993 . S
N52 N51 1.388 . S
N52 C53 1.346 . S
C53 N52 1.346 . S
C53 C54 1.396 . S
C53 C63 1.510 1_554 S
C54 C50 1.401 . S
C54 C53 1.396 . S
C55 C50 1.499 . S
C55 H56 0.959 . S
C55 H57 0.960 . S
C55 H58 0.961 . S
H56 C55 0.959 . S
H57 C55 0.960 . S
H58 C55 0.961 . S
O59 Co34 1.967 . S
O59 C67 1.258 . S
O60 Co35 1.941 . S
O60 C67 1.266 . S
H61 C63 0.959 . S
H62 C63 0.961 . S
C63 C53 1.510 1_556 S
C63 H61 0.959 . S
C63 H62 0.961 . S
C63 H64 0.960 . S
H64 C63 0.960 . S
H65 N45 0.862 . S
O66 Co34 1.920 . S
O66 C39 1.289 . S
C67 O59 1.258 . S
C67 O60 1.266 . S
Co68 O71 1.970 . S
Co68 N85 1.989 . S
Co68 O93 1.967 . S
Co68 O100 1.920 1_554 S
Co69 O72 1.966 . S
Co69 N78 2.022 . S
Co69 N86 1.993 . S
Co69 O94 1.941 . S
C70 O71 1.258 . S
C70 O72 1.263 . S
O71 Co68 1.970 . S
O71 C70 1.258 . S
O72 Co69 1.966 . S
O72 C70 1.263 . S
C73 O74 1.235 . S
C73 O100 1.289 . S
O74 C73 1.235 . S
C75 C77 1.400 . S
C75 N78 1.351 . S
C75 C80 1.501 . S
C76 C77 1.387 . S
C76 N79 1.341 . S
C77 C75 1.400 . S
C77 C76 1.387 . S
N78 Co69 2.022 . S
N78 C75 1.351 . S
N78 N79 1.365 . S
N79 C76 1.341 . S
N79 N78 1.365 . S
N79 H99 0.862 . S
C80 C75 1.501 . S
C80 H81 0.961 . S
C80 H82 0.961 . S
C80 H83 0.960 . S
H81 C80 0.961 . S
H82 C80 0.961 . S
H83 C80 0.960 . S
C84 N85 1.342 . S
C84 C88 1.401 . S
C84 C89 1.499 1_554 S
N85 Co68 1.989 . S
N85 C84 1.342 . S
N85 N86 1.388 . S
N86 Co69 1.993 . S
N86 N85 1.388 . S
N86 C87 1.346 . S
C87 N86 1.346 . S
C87 C88 1.396 . S
C87 C97 1.510 . S
C88 C84 1.401 . S
C88 C87 1.396 . S
C89 C84 1.499 1_556 S
C89 H90 0.959 . S
C89 H91 0.960 . S
C89 H92 0.961 . S
H90 C89 0.959 . S
H91 C89 0.960 . S
H92 C89 0.961 . S
O93 Co68 1.967 . S
O93 C101 1.258 . S
O94 Co69 1.941 . S
O94 C101 1.266 . S
H95 C97 0.959 . S
H96 C97 0.961 . S
C97 C87 1.510 . S
C97 H95 0.959 . S
C97 H96 0.961 . S
C97 H98 0.960 . S
H98 C97 0.960 . S
H99 N79 0.862 . S
O100 Co68 1.920 1_556 S
O100 C73 1.289 . S
C101 O93 1.258 . S
C101 O94 1.266 . S
Co102 O105 1.970 . S
Co102 N119 1.989 . S
Co102 O127 1.967 . S
Co102 O134 1.920 . S
Co103 O106 1.966 . S
Co103 N112 2.022 1_554 S
Co103 N120 1.993 . S
Co103 O128 1.941 . S
C104 O105 1.258 . S
C104 O106 1.263 . S
O105 Co102 1.970 . S
O105 C104 1.258 . S
O106 Co103 1.966 . S
O106 C104 1.263 . S
C107 O108 1.235 . S
C107 O134 1.289 . S
O108 C107 1.235 . S
C109 C111 1.400 . S
C109 N112 1.351 . S
C109 C114 1.501 . S
C110 C111 1.387 . S
C110 N113 1.341 . S
C111 C109 1.400 . S
C111 C110 1.387 . S
N112 Co103 2.022 1_556 S
N112 C109 1.351 . S
N112 N113 1.365 . S
N113 C110 1.341 . S
N113 N112 1.365 . S
N113 H133 0.862 . S
C114 C109 1.501 . S
C114 H115 0.961 . S
C114 H116 0.961 . S
C114 H117 0.960 . S
H115 C114 0.961 . S
H116 C114 0.961 . S
H117 C114 0.960 . S
C118 N119 1.342 . S
C118 C122 1.401 . S
C118 C123 1.499 . S
N119 Co102 1.989 . S
N119 C118 1.342 . S
N119 N120 1.388 . S
N120 Co103 1.993 . S
N120 N119 1.388 . S
N120 C121 1.346 . S
C121 N120 1.346 . S
C121 C122 1.396 . S
C121 C131 1.510 1_554 S
C122 C118 1.401 . S
C122 C121 1.396 . S
C123 C118 1.499 . S
C123 H124 0.959 . S
C123 H125 0.960 . S
C123 H126 0.961 . S
H124 C123 0.959 . S
H125 C123 0.960 . S
H126 C123 0.961 . S
O127 Co102 1.967 . S
O127 C135 1.258 . S
O128 Co103 1.941 . S
O128 C135 1.266 . S
H129 C131 0.959 . S
H130 C131 0.961 . S
C131 C121 1.510 1_556 S
C131 H129 0.959 . S
C131 H130 0.961 . S
C131 H132 0.960 . S
H132 C131 0.960 . S
H133 N113 0.862 . S
O134 Co102 1.920 . S
O134 C107 1.289 . S
C135 O127 1.258 . S
C135 O128 1.266 . S
Co136 O139 1.970 . S
Co136 N153 1.989 . S
Co136 O161 1.967 . S
Co136 O168 1.920 . S
Co137 O140 1.966 1_556 S
Co137 N146 2.022 . S
Co137 N154 1.993 1_556 S
Co137 O162 1.941 1_556 S
C138 O139 1.258 . S
C138 O140 1.263 . S
O139 Co136 1.970 . S
O139 C138 1.258 . S
O140 Co137 1.966 1_554 S
O140 C138 1.263 . S
C141 O142 1.235 . S
C141 O168 1.289 . S
O142 C141 1.235 . S
C143 C145 1.400 . S
C143 N146 1.351 . S
C143 C148 1.501 . S
C144 C145 1.387 . S
C144 N147 1.341 . S
C145 C143 1.400 . S
C145 C144 1.387 . S
N146 Co137 2.022 . S
N146 C143 1.351 . S
N146 N147 1.365 . S
N147 C144 1.341 . S
N147 N146 1.365 . S
N147 H167 0.862 . S
C148 C143 1.501 . S
C148 H149 0.961 . S
C148 H150 0.961 . S
C148 H151 0.960 . S
H149 C148 0.961 . S
H150 C148 0.961 . S
H151 C148 0.960 . S
C152 N153 1.342 . S
C152 C156 1.401 . S
C152 C157 1.499 . S
N153 Co136 1.989 . S
N153 C152 1.342 . S
N153 N154 1.388 . S
N154 Co137 1.993 1_554 S
N154 N153 1.388 . S
N154 C155 1.346 . S
C155 N154 1.346 . S
C155 C156 1.396 . S
C155 C165 1.510 1_554 S
C156 C152 1.401 . S
C156 C155 1.396 . S
C157 C152 1.499 . S
C157 H158 0.959 . S
C157 H159 0.960 . S
C157 H160 0.961 . S
H158 C157 0.959 . S
H159 C157 0.960 . S
H160 C157 0.961 . S
O161 Co136 1.967 . S
O161 C169 1.258 . S
O162 Co137 1.941 1_554 S
O162 C169 1.266 . S
H163 C165 0.959 . S
H164 C165 0.961 . S
C165 C155 1.510 1_556 S
C165 H163 0.959 . S
C165 H164 0.961 . S
C165 H166 0.960 . S
H166 C165 0.960 . S
H167 N147 0.862 . S
O168 Co136 1.920 . S
O168 C141 1.289 . S
C169 O161 1.258 . S
C169 O162 1.266 . S
Co170 O173 1.970 . S
Co170 N187 1.989 . S
Co170 O195 1.967 . S
Co170 O202 1.920 . S
Co171 O174 1.966 . S
Co171 N180 2.022 1_554 S
Co171 N188 1.993 . S
Co171 O196 1.941 . S
C172 O173 1.258 . S
C172 O174 1.263 . S
O173 Co170 1.970 . S
O173 C172 1.258 . S
O174 Co171 1.966 . S
O174 C172 1.263 . S
C175 O176 1.235 . S
C175 O202 1.289 . S
O176 C175 1.235 . S
C177 C179 1.400 . S
C177 N180 1.351 . S
C177 C182 1.501 . S
C178 C179 1.387 . S
C178 N181 1.341 . S
C179 C177 1.400 . S
C179 C178 1.387 . S
N180 Co171 2.022 1_556 S
N180 C177 1.351 . S
N180 N181 1.365 . S
N181 C178 1.341 . S
N181 N180 1.365 . S
N181 H201 0.862 . S
C182 C177 1.501 . S
C182 H183 0.961 . S
C182 H184 0.961 . S
C182 H185 0.960 . S
H183 C182 0.961 . S
H184 C182 0.961 . S
H185 C182 0.960 . S
C186 N187 1.342 . S
C186 C190 1.401 . S
C186 C191 1.499 . S
N187 Co170 1.989 . S
N187 C186 1.342 . S
N187 N188 1.388 . S
N188 Co171 1.993 . S
N188 N187 1.388 . S
N188 C189 1.346 . S
C189 N188 1.346 . S
C189 C190 1.396 . S
C189 C199 1.510 1_554 S
C190 C186 1.401 . S
C190 C189 1.396 . S
C191 C186 1.499 . S
C191 H192 0.959 . S
C191 H193 0.960 . S
C191 H194 0.961 . S
H192 C191 0.959 . S
H193 C191 0.960 . S
H194 C191 0.961 . S
O195 Co170 1.967 . S
O195 C203 1.258 . S
O196 Co171 1.941 . S
O196 C203 1.266 . S
H197 C199 0.959 . S
H198 C199 0.961 . S
C199 C189 1.510 1_556 S
C199 H197 0.959 . S
C199 H198 0.961 . S
C199 H200 0.960 . S
H200 C199 0.960 . S
H201 N181 0.862 . S
O202 Co170 1.920 . S
O202 C175 1.289 . S
C203 O195 1.258 . S
C203 O196 1.266 . S
C204 C205 1.386 . S
C204 C206 1.383 . S
C204 H220 0.951 . S
C205 C204 1.386 . S
C205 C209 1.383 . S
C206 C204 1.383 . S
C206 C207 1.402 . S
C206 H221 0.951 . S
C207 C206 1.402 . S
C207 C208 1.375 . S
C207 C210 1.499 . S
C208 C207 1.375 . S
C208 C209 1.367 . S
C208 H222 0.951 . S
C209 C205 1.383 . S
C209 C208 1.367 . S
C209 H223 0.950 . S
C210 C207 1.499 . S
C210 C211 1.278 1_455 S
C210 H224 0.952 1_455 S
C211 C210 1.278 1_655 S
C211 C212 1.479 . S
C211 H225 0.950 . S
C212 C211 1.479 . S
C212 C213 1.375 . S
C212 C218 1.404 . S
C213 C212 1.375 . S
C213 C214 1.369 . S
C213 H226 0.950 . S
C214 C213 1.369 . S
C214 C215 1.392 . S
C214 H227 0.951 . S
C215 C214 1.392 . S
C215 C217 1.384 . S
H216 C218 0.949 . S
C217 C215 1.384 . S
C217 C218 1.385 . S
C217 H219 0.950 . S
C218 C212 1.404 . S
C218 H216 0.949 . S
C218 C217 1.385 . S
H219 C217 0.950 . S
H220 C204 0.951 . S
H221 C206 0.951 . S
H222 C208 0.951 . S
H223 C209 0.950 . S
H224 C210 0.952 1_655 S
H225 C211 0.950 . S
H226 C213 0.950 . S
H227 C214 0.951 . S
C228 C229 1.386 . S
C228 C230 1.383 . S
C228 H244 0.951 1_554 S
C229 C228 1.386 . S
C229 C233 1.383 . S
C230 C228 1.383 . S
C230 C231 1.402 . S
C230 H245 0.951 1_554 S
C231 C230 1.402 . S
C231 C232 1.375 . S
C231 C234 1.481 . S
C232 C231 1.375 . S
C232 C233 1.367 . S
C232 H246 0.951 . S
C233 C229 1.383 . S
C233 C232 1.367 . S
C233 H247 0.950 . S
C234 C231 1.481 . S
C234 C235 1.297 . S
C234 H248 0.950 . S
C235 C234 1.297 . S
C235 C236 1.479 1_565 S
C235 H249 0.950 . S
C236 C235 1.479 1_545 S
C236 C237 1.375 . S
C236 C242 1.404 . S
C237 C236 1.375 . S
C237 C238 1.369 . S
C237 H250 0.950 1_554 S
C238 C237 1.369 . S
C238 C239 1.392 . S
C238 H251 0.951 1_554 S
C239 C238 1.392 . S
C239 C241 1.384 . S
H240 C242 0.949 . S
C241 C239 1.384 . S
C241 C242 1.385 . S
C241 H243 0.950 . S
C242 C236 1.404 . S
C242 H240 0.949 . S
C242 C241 1.385 . S
H243 C241 0.950 . S
H244 C228 0.951 1_556 S
H245 C230 0.951 1_556 S
H246 C232 0.951 . S
H247 C233 0.950 . S
H248 C234 0.950 . S
H249 C235 0.950 . S
H250 C237 0.950 1_556 S
H251 C238 0.951 1_556 S
C252 C253 1.386 . S
C252 C254 1.383 . S
C252 H268 0.951 . S
C253 C252 1.386 . S
C253 C257 1.383 . S
C254 C252 1.383 . S
C254 C255 1.402 . S
C254 H269 0.951 . S
C255 C254 1.402 . S
C255 C256 1.375 . S
C255 C258 1.481 . S
C256 C255 1.375 . S
C256 C257 1.367 . S
C256 H270 0.958 . S
C257 C253 1.383 . S
C257 C256 1.367 . S
C257 H271 0.950 . S
C258 C255 1.481 . S
C258 C259 1.297 . S
C258 H272 0.950 . S
C259 C258 1.297 . S
C259 C260 1.479 . S
C259 H273 0.950 . S
C260 C259 1.479 . S
C260 C261 1.375 . S
C260 C266 1.404 . S
C261 C260 1.375 . S
C261 C262 1.369 . S
C261 H274 0.950 . S
C262 C261 1.369 . S
C262 C263 1.392 . S
C262 H275 0.951 . S
C263 C262 1.392 . S
C263 C265 1.384 . S
H264 C266 0.949 . S
C265 C263 1.384 . S
C265 C266 1.385 . S
C265 H267 0.950 . S
C266 C260 1.404 . S
C266 H264 0.949 . S
C266 C265 1.385 . S
H267 C265 0.950 . S
H268 C252 0.951 . S
H269 C254 0.951 . S
H270 C256 0.958 . S
H271 C257 0.950 . S
H272 C258 0.950 . S
H273 C259 0.950 . S
H274 C261 0.950 . S
H275 C262 0.951 . S
C276 C277 1.386 . S
C276 C278 1.383 . S
C276 H292 0.951 . S
C277 C276 1.386 . S
C277 C281 1.383 . S
C278 C276 1.383 . S
C278 C279 1.402 . S
C278 H293 0.951 . S
C279 C278 1.402 . S
C279 C280 1.375 . S
C279 C282 1.481 . S
C280 C279 1.375 . S
C280 C281 1.367 . S
C280 H294 0.951 . S
C281 C277 1.383 . S
C281 C280 1.367 . S
C281 H295 0.950 . S
C282 C279 1.481 . S
C282 C283 1.297 . S
C282 H296 0.950 . S
C283 C282 1.297 . S
C283 C284 1.479 . S
C283 H297 0.950 . S
C284 C283 1.479 . S
C284 C285 1.375 . S
C284 C290 1.404 . S
C285 C284 1.375 . S
C285 C286 1.369 . S
C285 H298 0.950 . S
C286 C285 1.369 . S
C286 C287 1.392 . S
C286 H299 0.951 . S
C287 C286 1.392 . S
C287 C289 1.384 . S
H288 C290 0.949 . S
C289 C287 1.384 . S
C289 C290 1.385 . S
C289 H291 0.950 . S
C290 C284 1.404 . S
C290 H288 0.949 . S
C290 C289 1.385 . S
H291 C289 0.950 . S
H292 C276 0.951 . S
H293 C278 0.951 . S
H294 C280 0.951 . S
H295 C281 0.950 . S
H296 C282 0.950 . S
H297 C283 0.950 . S
H298 C285 0.950 . S
H299 C286 0.951 . S
C300 C301 1.386 . S
C300 C302 1.383 . S
C300 H316 0.951 . S
C301 C300 1.386 . S
C301 C305 1.383 . S
C302 C300 1.383 . S
C302 C303 1.402 . S
C302 H317 0.951 . S
C303 C302 1.402 . S
C303 C304 1.375 . S
C303 C306 1.481 . S
C304 C303 1.375 . S
C304 C305 1.367 . S
C304 H318 0.951 . S
C305 C301 1.383 . S
C305 C304 1.367 . S
C305 H319 0.950 . S
C306 C303 1.481 . S
C306 C307 1.297 . S
C306 H320 0.950 . S
C307 C306 1.297 . S
C307 C308 1.479 . S
C307 H321 0.950 . S
C308 C307 1.479 . S
C308 C309 1.375 . S
C308 C314 1.404 . S
C309 C308 1.375 . S
C309 C310 1.369 . S
C309 H322 0.950 . S
C310 C309 1.369 . S
C310 C311 1.392 . S
C310 H323 0.951 . S
C311 C310 1.392 . S
C311 C313 1.384 . S
H312 C314 0.949 . S
C313 C311 1.384 . S
C313 C314 1.385 . S
C313 H315 0.950 . S
C314 C308 1.404 . S
C314 H312 0.949 . S
C314 C313 1.385 . S
H315 C313 0.950 . S
H316 C300 0.951 . S
H317 C302 0.951 . S
H318 C304 0.951 . S
H319 C305 0.950 . S
H320 C306 0.950 . S
H321 C307 0.950 . S
H322 C309 0.950 . S
H323 C310 0.951 . S
C324 C325 1.386 . S
C324 C326 1.383 . S
C324 H340 0.951 . S
C325 C324 1.386 . S
C325 C329 1.383 . S
C326 C324 1.383 . S
C326 C327 1.402 . S
C326 H341 0.951 . S
C327 C326 1.402 . S
C327 C328 1.375 . S
C327 C330 1.481 . S
C328 C327 1.375 . S
C328 C329 1.367 . S
C328 H342 0.951 . S
C329 C325 1.383 . S
C329 C328 1.367 . S
C329 H343 0.950 . S
C330 C327 1.481 . S
C330 C331 1.297 . S
C330 H344 0.950 . S
C331 C330 1.297 . S
C331 C332 1.479 . S
C331 H345 0.950 . S
C332 C331 1.479 . S
C332 C333 1.375 . S
C332 C338 1.404 . S
C333 C332 1.375 . S
C333 C334 1.369 . S
C333 H346 0.950 . S
C334 C333 1.369 . S
C334 C335 1.392 . S
C334 H347 0.951 . S
C335 C334 1.392 . S
C335 C337 1.384 . S
H336 C338 0.949 . S
C337 C335 1.384 . S
C337 C338 1.385 . S
C337 H339 0.950 . S
C338 C332 1.404 . S
C338 H336 0.949 . S
C338 C337 1.385 . S
H339 C337 0.950 . S
H340 C324 0.951 . S
H341 C326 0.951 . S
H342 C328 0.951 . S
H343 C329 0.950 . S
H344 C330 0.950 . S
H345 C331 0.950 . S
H346 C333 0.950 . S
H347 C334 0.951 . S
C348 C349 1.386 . S
C348 C350 1.383 . S
C348 H364 0.951 . S
C349 C348 1.386 . S
C349 C353 1.383 . S
C350 C348 1.383 . S
C350 C351 1.402 . S
C350 H365 0.951 . S
C351 C350 1.402 . S
C351 C352 1.375 . S
C351 C354 1.481 . S
C352 C351 1.375 . S
C352 C353 1.367 . S
C352 H366 0.951 . S
C353 C349 1.383 . S
C353 C352 1.367 . S
C353 H367 0.950 . S
C354 C351 1.481 . S
C354 C355 1.297 . S
C354 H368 0.950 . S
C355 C354 1.297 . S
C355 C356 1.479 . S
C355 H369 0.950 . S
C356 C355 1.479 . S
C356 C357 1.375 . S
C356 C362 1.404 . S
C357 C356 1.375 . S
C357 C358 1.369 . S
C357 H370 0.950 . S
C358 C357 1.369 . S
C358 C359 1.392 . S
C358 H371 0.951 . S
C359 C358 1.392 . S
C359 C361 1.384 . S
H360 C362 0.949 . S
C361 C359 1.384 . S
C361 C362 1.385 . S
C361 H363 0.950 . S
C362 C356 1.404 . S
C362 H360 0.949 . S
C362 C361 1.385 . S
H363 C361 0.950 . S
H364 C348 0.951 . S
H365 C350 0.951 . S
H366 C352 0.951 . S
H367 C353 0.950 . S
H368 C354 0.950 . S
H369 C355 0.950 . S
H370 C357 0.950 . S
H371 C358 0.951 . S
C372 C373 1.386 . S
C372 C374 1.383 . S
C372 H388 0.951 . S
C373 C372 1.386 . S
C373 C377 1.383 . S
C374 C372 1.383 . S
C374 C375 1.402 . S
C374 H389 0.951 . S
C375 C374 1.402 . S
C375 C376 1.375 . S
C375 C378 1.481 . S
C376 C375 1.375 . S
C376 C377 1.367 . S
C376 H390 0.951 . S
C377 C373 1.383 . S
C377 C376 1.367 . S
C377 H391 0.950 . S
C378 C375 1.481 . S
C378 C379 1.297 . S
C378 H392 0.950 . S
C379 C378 1.297 . S
C379 C380 1.479 . S
C379 H393 0.950 . S
C380 C379 1.479 . S
C380 C381 1.375 . S
C380 C386 1.404 . S
C381 C380 1.375 . S
C381 C382 1.369 . S
C381 H394 0.950 . S
C382 C381 1.369 . S
C382 C383 1.392 . S
C382 H395 0.951 . S
C383 C382 1.392 . S
C383 C385 1.384 . S
H384 C386 0.949 . S
C385 C383 1.384 . S
C385 C386 1.385 . S
C385 H387 0.950 . S
C386 C380 1.404 . S
C386 H384 0.949 . S
C386 C385 1.385 . S
H387 C385 0.950 . S
H388 C372 0.951 . S
H389 C374 0.951 . S
H390 C376 0.951 . S
H391 C377 0.950 . S
H392 C378 0.950 . S
H393 C379 0.950 . S
H394 C381 0.950 . S
H395 C382 0.951 . S
C396 C397 1.386 . S
C396 C398 1.383 . S
C396 H412 0.951 . S
C397 C396 1.386 . S
C397 C401 1.383 . S
C398 C396 1.383 . S
C398 C399 1.402 . S
C398 H413 0.951 . S
C399 C398 1.402 . S
C399 C400 1.375 . S
C399 C402 1.481 . S
C400 C399 1.375 . S
C400 C401 1.367 . S
C400 H414 0.951 . S
C401 C397 1.383 . S
C401 C400 1.367 . S
C401 H415 0.950 . S
C402 C399 1.481 . S
C402 C403 1.297 . S
C402 H416 0.950 . S
C403 C402 1.297 . S
C403 C404 1.479 . S
C403 H417 0.950 . S
C404 C403 1.479 . S
C404 C405 1.375 . S
C404 C410 1.404 . S
C405 C404 1.375 . S
C405 C406 1.369 . S
C405 H418 0.950 . S
C406 C405 1.369 . S
C406 C407 1.392 . S
C406 H419 0.951 . S
C407 C406 1.392 . S
C407 C409 1.384 . S
H408 C410 0.949 . S
C409 C407 1.384 . S
C409 C410 1.385 . S
C409 H411 0.950 . S
C410 C404 1.404 . S
C410 H408 0.949 . S
C410 C409 1.385 . S
H411 C409 0.950 . S
H412 C396 0.951 . S
H413 C398 0.951 . S
H414 C400 0.951 . S
H415 C401 0.950 . S
H416 C402 0.950 . S
H417 C403 0.950 . S
H418 C405 0.950 . S
H419 C406 0.951 . S
C420 C421 1.386 . S
C420 C422 1.383 . S
C420 H436 0.951 . S
C421 C420 1.386 . S
C421 C425 1.383 . S
C422 C420 1.383 . S
C422 C423 1.402 . S
C422 H437 0.951 . S
C423 C422 1.402 . S
C423 C424 1.375 . S
C423 C426 1.481 . S
C424 C423 1.375 . S
C424 C425 1.367 . S
C424 H438 0.951 . S
C425 C421 1.383 . S
C425 C424 1.367 . S
C425 H439 0.950 . S
C426 C423 1.481 . S
C426 C427 1.297 . S
C426 H440 0.950 . S
C427 C426 1.297 . S
C427 C428 1.479 . S
C427 H441 0.950 . S
C428 C427 1.479 . S
C428 C429 1.375 . S
C428 C434 1.404 . S
C429 C428 1.375 . S
C429 C430 1.369 . S
C429 H442 0.950 . S
C430 C429 1.369 . S
C430 C431 1.392 . S
C430 H443 0.951 . S
C431 C430 1.392 . S
C431 C433 1.384 . S
H432 C434 0.949 . S
C433 C431 1.384 . S
C433 C434 1.385 . S
C433 H435 0.950 . S
C434 C428 1.404 . S
C434 H432 0.949 . S
C434 C433 1.385 . S
H435 C433 0.950 . S
H436 C420 0.951 . S
H437 C422 0.951 . S
H438 C424 0.951 . S
H439 C425 0.950 . S
H440 C426 0.950 . S
H441 C427 0.950 . S
H442 C429 0.950 . S
H443 C430 0.951 . S
C444 C445 1.386 . S
C444 C446 1.383 . S
C444 H460 0.951 . S
C445 C444 1.386 . S
C445 C449 1.383 . S
C446 C444 1.383 . S
C446 C447 1.402 . S
C446 H461 0.951 . S
C447 C446 1.402 . S
C447 C448 1.375 . S
C447 C450 1.481 . S
C448 C447 1.375 . S
C448 C449 1.367 . S
C448 H462 0.951 1_554 S
C449 C445 1.383 . S
C449 C448 1.367 . S
C449 H463 0.950 1_554 S
C450 C447 1.481 . S
C450 C451 1.297 . S
C450 H464 0.950 . S
C451 C450 1.297 . S
C451 C452 1.479 . S
C451 H465 0.950 . S
C452 C451 1.479 . S
C452 C453 1.375 . S
C452 C458 1.404 . S
C453 C452 1.375 . S
C453 C454 1.369 . S
C453 H466 0.950 . S
C454 C453 1.369 . S
C454 C455 1.392 . S
C454 H467 0.951 . S
C455 C454 1.392 . S
C455 C457 1.384 . S
H456 C458 0.949 . S
C457 C455 1.384 . S
C457 C458 1.385 . S
C457 H459 0.950 . S
C458 C452 1.404 . S
C458 H456 0.949 . S
C458 C457 1.385 . S
H459 C457 0.950 . S
H460 C444 0.951 . S
H461 C446 0.951 . S
H462 C448 0.951 1_556 S
H463 C449 0.950 1_556 S
H464 C450 0.950 . S
H465 C451 0.950 . S
H466 C453 0.950 . S
H467 C454 0.951 . S
C468 C469 1.386 . S
C468 C470 1.383 . S
C468 H484 0.951 . S
C469 C468 1.386 . S
C469 C473 1.383 . S
C470 C468 1.383 . S
C470 C471 1.402 . S
C470 H485 0.951 . S
C471 C470 1.402 . S
C471 C472 1.375 . S
C471 C474 1.481 . S
C472 C471 1.375 . S
C472 C473 1.367 . S
C472 H486 0.951 . S
C473 C469 1.383 . S
C473 C472 1.367 . S
C473 H487 0.950 . S
C474 C471 1.481 . S
C474 C475 1.297 . S
C474 H488 0.950 . S
C475 C474 1.297 . S
C475 C476 1.479 . S
C475 H489 0.950 . S
C476 C475 1.479 . S
C476 C477 1.375 . S
C476 C482 1.404 . S
C477 C476 1.375 . S
C477 C478 1.369 . S
C477 H490 0.950 . S
C478 C477 1.369 . S
C478 C479 1.392 . S
C478 H491 0.951 . S
C479 C478 1.392 . S
C479 C481 1.384 . S
H480 C482 0.949 . S
C481 C479 1.384 . S
C481 C482 1.385 . S
C481 H483 0.950 . S
C482 C476 1.404 . S
C482 H480 0.949 . S
C482 C481 1.385 . S
H483 C481 0.950 . S
H484 C468 0.951 . S
H485 C470 0.951 . S
H486 C472 0.951 . S
H487 C473 0.950 . S
H488 C474 0.950 . S
H489 C475 0.950 . S
H490 C477 0.950 . S
H491 C478 0.951 . S
C492 C493 1.386 . S
C492 C494 1.383 . S
C492 H508 0.951 . S
C493 C492 1.386 . S
C493 C497 1.383 . S
C494 C492 1.383 . S
C494 C495 1.402 . S
C494 H509 0.951 . S
C495 C494 1.402 . S
C495 C496 1.375 . S
C495 C498 1.481 . S
C496 C495 1.375 . S
C496 C497 1.367 . S
C496 H510 0.951 . S
C497 C493 1.383 . S
C497 C496 1.367 . S
C497 H511 0.950 . S
C498 C495 1.481 . S
C498 C499 1.297 . S
C498 H512 0.950 . S
C499 C498 1.297 . S
C499 C500 1.479 . S
C499 H513 0.950 . S
C500 C499 1.479 . S
C500 C501 1.375 . S
C500 C506 1.404 . S
C501 C500 1.375 . S
C501 C502 1.369 . S
C501 H514 0.950 . S
C502 C501 1.369 . S
C502 C503 1.392 . S
C502 H515 0.951 . S
C503 C502 1.392 . S
C503 C505 1.384 . S
H504 C506 0.949 . S
C505 C503 1.384 . S
C505 C506 1.385 . S
C505 H507 0.950 . S
C506 C500 1.404 . S
C506 H504 0.949 . S
C506 C505 1.385 . S
H507 C505 0.950 . S
H508 C492 0.951 . S
H509 C494 0.951 . S
H510 C496 0.951 . S
H511 C497 0.950 . S
H512 C498 0.950 . S
H513 C499 0.950 . S
H514 C501 0.950 . S
H515 C502 0.951 . S
C516 C517 1.386 . S
C516 C518 1.383 . S
C516 H532 0.951 . S
C517 C516 1.386 . S
C517 C521 1.383 . S
C518 C516 1.383 . S
C518 C519 1.402 . S
C518 H533 0.951 . S
C519 C518 1.402 . S
C519 C520 1.375 . S
C519 C522 1.481 . S
C520 C519 1.375 . S
C520 C521 1.367 . S
C520 H534 0.951 . S
C521 C517 1.383 . S
C521 C520 1.367 . S
C521 H535 0.950 . S
C522 C519 1.481 . S
C522 C523 1.297 . S
C522 H536 0.950 . S
C523 C522 1.297 . S
C523 C524 1.479 . S
C523 H537 0.950 . S
C524 C523 1.479 . S
C524 C525 1.375 . S
C524 C530 1.404 . S
C525 C524 1.375 . S
C525 C526 1.369 . S
C525 H538 0.950 . S
C526 C525 1.369 . S
C526 C527 1.392 . S
C526 H539 0.951 1_554 S
C527 C526 1.392 . S
C527 C529 1.384 . S
H528 C530 0.949 . S
C529 C527 1.384 . S
C529 C530 1.385 . S
C529 H531 0.950 . S
C530 C524 1.404 . S
C530 H528 0.949 . S
C530 C529 1.385 . S
H531 C529 0.950 . S
H532 C516 0.951 . S
H533 C518 0.951 . S
H534 C520 0.951 . S
H535 C521 0.950 . S
H536 C522 0.950 . S
H537 C523 0.950 . S
H538 C525 0.950 . S
H539 C526 0.951 1_556 S
C540 C541 1.386 . S
C540 C542 1.383 . S
C540 H556 0.951 . S
C541 C540 1.386 . S
C541 C545 1.383 . S
C542 C540 1.383 . S
C542 C543 1.402 . S
C542 H557 0.951 . S
C543 C542 1.402 . S
C543 C544 1.375 . S
C543 C546 1.481 . S
C544 C543 1.375 . S
C544 C545 1.367 . S
C544 H558 0.951 . S
C545 C541 1.383 . S
C545 C544 1.367 . S
C545 H559 0.950 . S
C546 C543 1.481 . S
C546 C547 1.297 . S
C546 H560 0.950 . S
C547 C546 1.297 . S
C547 C548 1.479 . S
C547 H561 0.950 . S
C548 C547 1.479 . S
C548 C549 1.375 . S
C548 C554 1.404 . S
C549 C548 1.375 . S
C549 C550 1.369 . S
C549 H562 0.950 . S
C550 C549 1.369 . S
C550 C551 1.392 . S
C550 H563 0.951 . S
C551 C550 1.392 . S
C551 C553 1.384 . S
H552 C554 0.949 . S
C553 C551 1.384 . S
C553 C554 1.385 . S
C553 H555 0.950 . S
C554 C548 1.404 . S
C554 H552 0.949 . S
C554 C553 1.385 . S
H555 C553 0.950 . S
H556 C540 0.951 . S
H557 C542 0.951 . S
H558 C544 0.951 . S
H559 C545 0.950 . S
H560 C546 0.950 . S
H561 C547 0.950 . S
H562 C549 0.950 . S
H563 C550 0.951 . S
C205 C20 1.273 . S
C215 C122 1.267 . S
C229 C156 1.439 . S
C239 C54 1.443 . S
C253 C190 1.296 . S
C263 C88 1.284 . S
C277 C9 1.368 . S
C287 C5 1.483 . S
C301 C39 1.477 . S
C311 C43 1.450 . S
C325 C73 1.506 . S
C335 C77 1.371 . S
C349 C111 1.378 . S
C359 C107 1.501 . S
C373 C141 1.477 . S
C383 C145 1.330 . S
C397 C175 1.480 . S
C407 C179 1.455 . S
C421 C2 0.919 . S
C431 C101 0.944 . S
C445 C67 1.045 . S
C455 C104 1.077 . S
C469 C70 1.013 . S
C479 C138 0.955 . S
C493 C135 0.797 . S
C503 C172 0.763 . S
C517 C33 0.789 . S
C527 C169 0.859 . S
C541 C36 1.177 . S
C551 C203 1.164 . S
