# Generated by pormake.
# Topology vbm, (6)-cn, num edge types: 1
# Building blocks:
#     Node 0, Type 0, BuildingBlock: PAMTOO_clean_sbu_0, # of connection points: 6
#     Node 1, Type 0, BuildingBlock: PAMTOO_clean_sbu_0, # of connection points: 6
#     Node 2, Type 0, BuildingBlock: PAMTOO_clean_sbu_0, # of connection points: 6
#     Node 3, Type 0, BuildingBlock: PAMTOO_clean_sbu_0, # of connection points: 6
#     Node 4, Type 0, BuildingBlock: PAMTOO_clean_sbu_0, # of connection points: 6
#     Node 5, Type 0, BuildingBlock: PAMTOO_clean_sbu_0, # of connection points: 6
#     Node 6, Type 0, BuildingBlock: PAMTOO_clean_sbu_0, # of connection points: 6
#     Node 7, Type 0, BuildingBlock: PAMTOO_clean_sbu_0, # of connection points: 6
#     Node 8, Type 0, BuildingBlock: PAMTOO_clean_sbu_0, # of connection points: 6
#     Node 9, Type 0, BuildingBlock: PAMTOO_clean_sbu_0, # of connection points: 6
#     Node 10, Type 0, BuildingBlock: PAMTOO_clean_sbu_0, # of connection points: 6
#     Node 11, Type 0, BuildingBlock: PAMTOO_clean_sbu_0, # of connection points: 6
#     Node 12, Type 0, BuildingBlock: PAMTOO_clean_sbu_0, # of connection points: 6
#     Node 13, Type 0, BuildingBlock: PAMTOO_clean_sbu_0, # of connection points: 6
#     Node 14, Type 0, BuildingBlock: PAMTOO_clean_sbu_0, # of connection points: 6
#     Node 15, Type 0, BuildingBlock: PAMTOO_clean_sbu_0, # of connection points: 6
#     Edge 16, Type (0, 0), None
#     Edge 17, Type (0, 0), None
#     Edge 18, Type (0, 0), None
#     Edge 19, Type (0, 0), None
#     Edge 20, Type (0, 0), None
#     Edge 21, Type (0, 0), None
#     Edge 22, Type (0, 0), None
#     Edge 23, Type (0, 0), None
#     Edge 24, Type (0, 0), None
#     Edge 25, Type (0, 0), None
#     Edge 26, Type (0, 0), None
#     Edge 27, Type (0, 0), None
#     Edge 28, Type (0, 0), None
#     Edge 29, Type (0, 0), None
#     Edge 30, Type (0, 0), None
#     Edge 31, Type (0, 0), None
#     Edge 32, Type (0, 0), None
#     Edge 33, Type (0, 0), None
#     Edge 34, Type (0, 0), None
#     Edge 35, Type (0, 0), None
#     Edge 36, Type (0, 0), None
#     Edge 37, Type (0, 0), None
#     Edge 38, Type (0, 0), None
#     Edge 39, Type (0, 0), None
#     Edge 40, Type (0, 0), None
#     Edge 41, Type (0, 0), None
#     Edge 42, Type (0, 0), None
#     Edge 43, Type (0, 0), None
#     Edge 44, Type (0, 0), None
#     Edge 45, Type (0, 0), None
#     Edge 46, Type (0, 0), None
#     Edge 47, Type (0, 0), None
#     Edge 48, Type (0, 0), None
#     Edge 49, Type (0, 0), None
#     Edge 50, Type (0, 0), None
#     Edge 51, Type (0, 0), None
#     Edge 52, Type (0, 0), None
#     Edge 53, Type (0, 0), None
#     Edge 54, Type (0, 0), None
#     Edge 55, Type (0, 0), None
#     Edge 56, Type (0, 0), None
#     Edge 57, Type (0, 0), None
#     Edge 58, Type (0, 0), None
#     Edge 59, Type (0, 0), None
#     Edge 60, Type (0, 0), None
#     Edge 61, Type (0, 0), None
#     Edge 62, Type (0, 0), None
#     Edge 63, Type (0, 0), None
# Relax obj value: 0.111
# Max RMSD: 0.214
# Mean RMSD: 0.214
data_MOF--net-vbm--node1-PAMTOO_clean_sbu_0--edge1-none
_symmetry_space_group_name_H-M    P1
_symmetry_Int_Tables_number       1
_symmetry_cell_setting            triclinic
loop_
_symmetry_equiv_pos_as_xyz
'x, y, z'
_cell_length_a     23.153071
_cell_length_b     15.824736
_cell_length_c     25.196043
_cell_angle_alpha  90.259993
_cell_angle_beta   90.030155
_cell_angle_gamma 90.054716
loop_
_atom_site_label
_atom_site_type_symbol
_atom_site_fract_x
_atom_site_fract_y
_atom_site_fract_z
_atom_type_partial_charge
Dy0 Dy 0.02315 0.29649 0.13659 0.0
Dy1 Dy 0.10139 0.14573 0.10485 0.0
C2 C 0.05978 0.25963 0.01669 0.0
O3 O -0.04506 0.20215 0.13305 0.0
O4 O 0.00871 0.10735 0.08456 0.0
O5 O -0.03884 0.39192 0.11439 0.0
O6 O 0.00122 0.3946 0.19259 0.0
O7 O 0.05711 0.08789 0.17236 0.0
O8 O 0.03526 0.2131 0.21181 0.0
O9 O 0.16326 0.24422 0.14019 0.0
O10 O 0.10808 0.35903 0.12278 0.0
O11 O 0.16689 1.05423 0.12401 0.0
O12 O 0.1274 1.05571 0.04516 0.0
C13 C -0.04108 0.13359 0.10456 0.0
O14 O 0.01488 0.27451 0.04713 0.0
O15 O 0.10753 0.23634 0.0393 0.0
C16 C 0.00106 0.52129 0.14276 0.0
C17 C 0.04877 0.68194 0.12097 0.0
C18 C -0.00015 0.65251 0.09302 0.0
C19 C -0.02277 0.57215 0.10289 0.0
C20 C 0.05161 0.54829 0.16827 0.0
C21 C 0.07523 0.62709 0.15736 0.0
C22 C -0.02427 0.4381 0.15527 0.0
C23 C 0.04054 0.12903 0.21383 0.0
C24 C 0.15813 0.3272 0.1346 0.0
C25 C 0.12599 0.92642 0.09226 0.0
C26 C 0.07296 0.76825 0.11197 0.0
C27 C 0.10422 0.81059 0.15217 0.0
C28 C 0.13084 0.88816 0.14226 0.0
C29 C 0.09072 0.88794 0.05395 0.0
C30 C 0.06588 0.80903 0.06295 0.0
C31 C 0.15233 1.01012 0.08192 0.0
H32 H -0.02239 0.6918 0.06461 0.0
H33 H -0.06052 0.55134 0.08099 0.0
H34 H 0.07343 0.50828 0.19656 0.0
H35 H 0.11416 0.64464 0.17832 0.0
H36 H 0.10861 0.78418 0.19146 0.0
H37 H 0.15537 0.91787 0.17387 0.0
H38 H 0.0823 0.91873 0.01664 0.0
H39 H 0.04194 0.78008 0.03082 0.0
Dy40 Dy 0.84828 0.92063 0.14213 0.0
Dy41 Dy 0.76493 1.07074 0.11026 0.0
C42 C 0.79904 0.93625 0.02111 0.0
O43 O 0.91253 0.99993 0.10154 0.0
O44 O 0.85708 0.11782 0.11203 0.0
O45 O 0.9165 0.8298 0.13039 0.0
O46 O 0.86677 0.8298 0.20354 0.0
O47 O 0.76429 1.05561 0.19641 0.0
O48 O 0.8584 1.03085 0.203 0.0
O49 O 0.7009 0.96264 0.11046 0.0
O50 O 0.75945 0.8618 0.14784 0.0
O51 O 0.70707 0.16958 0.13672 0.0
O52 O 0.74487 0.17399 0.05795 0.0
C53 C 0.90683 1.0816 0.10103 0.0
O54 O 0.8323 0.89534 0.05467 0.0
O55 O 0.76903 1.00282 0.0346 0.0
C56 C 0.87622 0.70184 0.15784 0.0
C57 C 0.82451 0.54328 0.14022 0.0
C58 C 0.80902 0.61264 0.10881 0.0
C59 C 0.83385 0.69177 0.11831 0.0
C60 C 0.8938 0.63219 0.18674 0.0
C61 C 0.86656 0.55382 0.17958 0.0
C62 C 0.89896 0.78588 0.17095 0.0
C63 C 0.81279 1.07352 0.21942 0.0
C64 C 0.70913 0.88534 0.12903 0.0
C65 C 0.74907 0.29983 0.109 0.0
C66 C 0.79935 0.45899 0.13014 0.0
C67 C 0.77254 0.41345 0.17104 0.0
C68 C 0.74744 0.33457 0.16056 0.0
C69 C 0.77923 0.34368 0.0693 0.0
C70 C 0.80311 0.42301 0.07941 0.0
C71 C 0.72162 0.21718 0.09664 0.0
H72 H 0.7772 0.60596 0.07754 0.0
H73 H 0.81996 0.74488 0.09473 0.0
H74 H -0.07021 0.63942 0.21362 0.0
H75 H 0.87993 0.50015 0.20292 0.0
H76 H 0.7699 0.43973 0.21075 0.0
H77 H 0.72595 0.30167 0.19257 0.0
H78 H 0.78519 0.31635 0.03045 0.0
H79 H 0.82535 0.4558 0.04775 0.0
Dy80 Dy 0.01644 0.90706 0.33496 0.0
Dy81 Dy 0.08923 1.05841 0.37451 0.0
C82 C 0.05698 0.92239 0.45753 0.0
O83 O -0.0536 0.99881 0.34283 0.0
O84 O -0.00318 0.08401 0.40013 0.0
O85 O -0.05063 0.81296 0.34229 0.0
O86 O 0.00575 0.814 0.27316 0.0
O87 O 0.04252 0.11798 0.30819 0.0
O88 O 0.03784 0.99439 0.26403 0.0
O89 O 0.15485 0.96193 0.3421 0.0
O90 O 0.10001 0.84417 0.35192 0.0
O91 O 0.15433 0.15076 0.35609 0.0
O92 O 0.11087 0.15287 0.43313 0.0
C93 C -0.05191 1.06069 0.37698 0.0
O94 O 0.01356 0.90238 0.42592 0.0
O95 O 0.09921 0.96914 0.4401 0.0
C96 C -0.00371 0.6854 0.31932 0.0
C97 C 0.04253 0.52652 0.34774 0.0
C98 C -0.00086 0.56509 0.37879 0.0
C99 C -0.02221 0.64478 0.36571 0.0
C100 C 0.04193 0.64994 0.29046 0.0
C101 C 0.06546 0.57263 0.30501 0.0
C102 C -0.02715 0.7686 0.30412 0.0
C103 C 0.03648 1.0785 0.26384 0.0
C104 C 0.1504 0.87837 0.34496 0.0
C105 C 0.11242 0.27994 0.38377 0.0
C106 C 0.06435 0.4397 0.35966 0.0
C107 C 0.09209 0.39095 0.32015 0.0
C108 C 0.11661 0.31295 0.33229 0.0
C109 C 0.07937 0.32391 0.42136 0.0
C110 C 0.05764 0.40392 0.41033 0.0
C111 C 0.13775 0.1967 0.39672 0.0
H112 H -0.02029 0.53372 0.41228 0.0
H113 H -0.05557 0.67234 0.39048 0.0
H114 H 0.06057 0.68314 0.25734 0.0
H115 H 0.10222 0.55011 0.28268 0.0
H116 H 0.09545 0.41235 0.27962 0.0
H117 H 0.13897 0.27881 0.30111 0.0
H118 H 0.06943 0.29618 0.45922 0.0
H119 H 0.03599 0.43692 0.4422 0.0
Dy120 Dy 0.84241 0.28424 0.34762 0.0
Dy121 Dy 0.75437 0.13647 0.36422 0.0
C122 C 0.79158 0.24227 0.46312 0.0
O123 O 0.90721 0.1964 0.37742 0.0
O124 O 0.8457 0.08315 0.3708 0.0
O125 O 0.90303 0.37833 0.37455 0.0
O126 O 0.87162 0.37995 0.29298 0.0
O127 O 0.76122 0.16138 0.27943 0.0
O128 O 0.85586 0.18264 0.28159 0.0
O129 O 0.6907 0.24338 0.3574 0.0
O130 O 0.75578 0.35091 0.3451 0.0
O131 O 0.70257 1.03814 0.32819 0.0
O132 O 0.71984 1.03683 0.41286 0.0
C133 C 0.89747 0.11562 0.37982 0.0
O134 O 0.83646 0.26975 0.43664 0.0
O135 O 0.74774 0.20783 0.4388 0.0
C136 C 0.86725 0.50644 0.34174 0.0
C137 C 0.81112 0.66342 0.35115 0.0
C138 C 0.79958 0.59877 0.38777 0.0
C139 C 0.82681 0.5201 0.38257 0.0
C140 C 0.87939 0.57115 0.30686 0.0
C141 C 0.85092 0.64868 0.31045 0.0
C142 C 0.89387 0.42352 0.3323 0.0
C143 C 0.81134 0.14363 0.25982 0.0
C144 C 0.70241 0.32433 0.35008 0.0
C145 C 0.73204 0.90801 0.36572 0.0
C146 C 0.78372 0.74734 0.35609 0.0
C147 C 0.75595 0.78433 0.31236 0.0
C148 C 0.73003 0.86377 0.31721 0.0
C149 C 0.76211 0.87217 0.40855 0.0
C150 C 0.7869 0.79211 0.40408 0.0
C151 C 0.70512 0.99251 0.37113 0.0
H152 H 0.76897 0.60866 0.4197 0.0
H153 H 0.8162 0.47023 0.41022 0.0
H154 H 0.91393 0.56121 0.27919 0.0
H155 H 0.86174 0.69866 0.2831 0.0
H156 H 0.75347 0.75111 0.27472 0.0
H157 H 0.70803 0.89021 0.28315 0.0
H158 H 0.76682 0.90628 0.44559 0.0
H159 H 0.80955 0.76583 0.43781 0.0
Dy160 Dy 0.74867 1.02605 0.8773 0.0
Dy161 Dy 0.82943 0.87132 0.8458 0.0
C162 C 0.80893 1.037 0.76728 0.0
O163 O 0.68891 0.92368 0.84214 0.0
O164 O 0.74502 0.81422 0.86792 0.0
O165 O 0.68074 0.11485 0.86044 0.0
O166 O 0.72426 0.11747 0.9372 0.0
O167 O 0.83693 0.89248 0.93503 0.0
O168 O 0.74475 0.93584 0.9433 0.0
O169 O 0.89816 0.96642 0.85183 0.0
O170 O 0.84194 1.06691 0.89384 0.0
O171 O 0.89417 0.77577 0.86025 0.0
O172 O 0.84003 0.76852 0.79006 0.0
C173 C 0.69496 0.84199 0.85254 0.0
O174 O 0.79185 1.08028 0.80787 0.0
O175 O 0.815 0.95327 0.77069 0.0
C176 C 0.71671 0.2462 0.8915 0.0
C177 C 0.77241 0.40317 0.87311 0.0
C178 C 0.76043 0.34706 0.83092 0.0
C179 C 0.73422 0.26914 0.84013 0.0
C180 C 0.72692 0.30244 0.93343 0.0
C181 C 0.75514 0.37958 0.92466 0.0
C182 C 0.69458 0.16025 0.9022 0.0
C183 C 0.79238 0.91057 0.96537 0.0
C184 C 0.89267 1.03825 0.87714 0.0
C185 C 0.85256 0.64398 0.83828 0.0
C186 C 0.80154 0.48605 0.8627 0.0
C187 C 0.79087 0.55766 0.89467 0.0
C188 C 0.81667 0.63543 0.88292 0.0
C189 C 0.8631 0.57349 0.80644 0.0
C190 C 0.8393 0.49506 0.81927 0.0
C191 C 0.87413 0.72764 0.82221 0.0
H192 H 0.77056 0.36312 0.79031 0.0
H193 H 0.7272 0.22731 0.80661 0.0
H194 H 0.71364 0.2855 0.97307 0.0
H195 H 0.76348 0.42024 0.95839 0.0
H196 H 0.76141 0.55481 0.92794 0.0
H197 H 0.80729 0.68944 0.90798 0.0
H198 H 0.89021 0.57892 0.77185 0.0
H199 H 0.8506 0.44152 0.79469 0.0
Dy200 Dy 0.08575 0.09881 0.87618 0.0
Dy201 Dy 0.01022 0.25458 0.83895 0.0
C202 C 0.03124 0.08517 0.76451 0.0
O203 O 0.14956 0.19693 0.84259 0.0
O204 O 0.09498 0.31495 0.85455 0.0
O205 O 0.15255 1.0084 0.8592 0.0
O206 O 0.10729 1.00439 0.93457 0.0
O207 O 0.01067 0.25867 0.9296 0.0
O208 O 0.096 0.18966 0.94161 0.0
O209 O -0.05945 0.16091 0.84681 0.0
O210 O -0.00744 1.06808 0.89802 0.0
O211 O -0.05529 0.3506 0.84909 0.0
O212 O -0.00112 0.34927 0.77875 0.0
C213 C 0.14502 0.28059 0.84596 0.0
O214 O 0.03991 1.04336 0.80755 0.0
O215 O 0.03068 0.16929 0.76648 0.0
C216 C 0.11588 0.87703 0.88711 0.0
C217 C 0.06132 0.72158 0.86506 0.0
C218 C 0.067 0.78271 0.82532 0.0
C219 C 0.09355 0.85973 0.83627 0.0
C220 C 0.11136 0.81515 0.92646 0.0
C221 C 0.08294 0.7388 0.91604 0.0
C222 C 0.13799 0.96218 0.89996 0.0
C223 C 0.05511 0.23846 0.9597 0.0
C224 C -0.05672 0.09443 0.87718 0.0
C225 C -0.0109 0.47972 0.82406 0.0
C226 C 0.03655 0.63809 0.85183 0.0
C227 C -0.00494 0.60007 0.88458 0.0
C228 C -0.02839 0.52143 0.87088 0.0
C229 C 0.03254 0.5167 0.79293 0.0
C230 C 0.05526 0.59543 0.80609 0.0
C231 C -0.03356 0.39478 0.8102 0.0
H232 H 0.05073 0.77098 0.7857 0.0
H233 H 0.09693 0.90526 0.80455 0.0
H234 H 0.13149 0.82467 0.96455 0.0
H235 H 0.08058 0.69159 0.94698 0.0
H236 H -0.01981 0.63165 0.92027 0.0
H237 H -0.06051 0.49369 0.89675 0.0
H238 H 0.05025 0.48412 0.75893 0.0
H239 H 0.08857 0.62214 0.78103 0.0
Dy240 Dy 0.75957 0.09526 0.60296 0.0
Dy241 Dy 0.83595 0.25063 0.64133 0.0
C242 C 0.81198 0.08392 0.71599 0.0
O243 O 0.69538 0.19523 0.63524 0.0
O244 O 0.75249 0.31008 0.62147 0.0
O245 O 0.69304 1.00264 0.61597 0.0
O246 O 0.74119 1.00264 0.54174 0.0
O247 O 0.83738 0.24882 0.55092 0.0
O248 O 0.74926 0.1881 0.5396 0.0
O249 O 0.90533 0.15694 0.6347 0.0
O250 O 0.85342 1.06545 0.58189 0.0
O251 O 0.90203 0.3459 0.6314 0.0
O252 O 0.84565 0.34846 0.70031 0.0
C253 C 0.70164 0.27853 0.63025 0.0
O254 O 0.80258 1.04122 0.67314 0.0
O255 O 0.81407 0.16789 0.71393 0.0
C256 C 0.73369 0.87361 0.58694 0.0
C257 C 0.78825 0.71847 0.60936 0.0
C258 C 0.78197 0.78016 0.64904 0.0
C259 C 0.75516 0.85663 0.638 0.0
C260 C 0.7404 0.81233 0.54702 0.0
C261 C 0.76801 0.73557 0.55789 0.0
C262 C 0.71022 0.95819 0.57488 0.0
C263 C 0.79222 0.23168 0.5209 0.0
C264 C 0.90267 0.09117 0.60342 0.0
C265 C 0.85743 0.47656 0.65351 0.0
C266 C 0.81184 0.63462 0.62338 0.0
C267 C 0.85246 0.59357 0.59095 0.0
C268 C 0.87503 0.5151 0.60585 0.0
C269 C 0.81488 0.51646 0.68432 0.0
C270 C 0.79313 0.59494 0.67001 0.0
C271 C 0.87927 0.39215 0.66906 0.0
H272 H 0.79749 0.76903 0.68894 0.0
H273 H 0.75052 0.90178 0.67002 0.0
H274 H 0.72351 0.82311 0.50782 0.0
H275 H 0.77137 0.68844 0.52674 0.0
H276 H 0.8675 0.62273 0.55467 0.0
H277 H 0.90666 0.48515 0.58032 0.0
H278 H 0.79728 0.48651 0.71916 0.0
H279 H 0.76075 0.62395 0.69516 0.0
Dy280 Dy 0.09728 1.0251 0.60435 0.0
Dy281 Dy 0.01697 0.86945 0.63404 0.0
C282 C 0.03478 1.03724 0.71324 0.0
O283 O 0.15706 0.92627 0.64149 0.0
O284 O 0.10332 0.81127 0.61976 0.0
O285 O 0.16572 0.11247 0.62305 0.0
O286 O 0.1231 0.11727 0.54602 0.0
O287 O 0.01259 0.88849 0.54407 0.0
O288 O 0.10475 0.93271 0.53926 0.0
O289 O -0.05185 0.96394 0.62811 0.0
O290 O 0.00407 1.06437 0.58622 0.0
O291 O -0.04651 0.77323 0.61602 0.0
O292 O 0.00205 0.7681 0.68952 0.0
C293 C 0.15257 0.84342 0.63433 0.0
O294 O 0.05282 1.08001 0.67303 0.0
O295 O 0.02844 0.95337 0.70957 0.0
C296 C 0.13322 0.24521 0.59273 0.0
C297 C 0.07805 0.40292 0.60974 0.0
C298 C 0.08673 0.34614 0.65195 0.0
C299 C 0.11274 0.26777 0.64334 0.0
C300 C 0.12767 0.30289 0.55135 0.0
C301 C 0.09924 0.38005 0.55921 0.0
C302 C 0.15346 0.15853 0.58153 0.0
C303 C 0.05844 0.90605 0.51531 0.0
C304 C -0.04664 1.03531 0.60274 0.0
C305 C -0.00594 0.64262 0.64066 0.0
C306 C 0.04792 0.4855 0.61894 0.0
C307 C 0.06022 0.55712 0.58785 0.0
C308 C 0.03302 0.63439 0.5982 0.0
C309 C -0.01805 0.57221 0.67172 0.0
C310 C 0.00711 0.49409 0.66005 0.0
C311 C -0.02924 0.72608 0.65534 0.0
H312 H 0.07378 0.36172 0.69201 0.0
H313 H 0.11684 0.22507 0.67658 0.0
H314 H 0.14505 0.2871 0.51281 0.0
H315 H 0.09417 0.42141 0.52555 0.0
H316 H 0.09189 0.55476 0.55634 0.0
H317 H 0.04366 0.68834 0.57379 0.0
H318 H -0.04742 0.57743 0.70476 0.0
H319 H -0.00546 0.44056 0.68383 0.0
Dy320 Dy 0.52554 0.79375 0.13469 0.0
Dy321 Dy 0.6063 0.63903 0.10319 0.0
C322 C 0.56258 0.7545 0.01511 0.0
O323 O 0.45681 0.69864 0.12867 0.0
O324 O 0.51303 0.59816 0.08665 0.0
O325 O 0.4608 0.88929 0.12025 0.0
O326 O 0.51494 0.89655 0.19044 0.0
O327 O 0.56312 0.58479 0.17263 0.0
O328 O 0.53997 0.71179 0.2098 0.0
O329 O 0.66606 0.74138 0.13835 0.0
O330 O 0.60995 0.85086 0.11258 0.0
O331 O 0.67423 0.55023 0.12004 0.0
O332 O 0.6307 0.5476 0.04329 0.0
C333 C 0.46229 0.62682 0.10336 0.0
O334 O 0.51804 0.77258 0.04546 0.0
O335 O 0.6102 0.72926 0.03721 0.0
C336 C 0.50241 1.02109 0.14221 0.0
C337 C 0.55343 0.17902 0.11779 0.0
C338 C 0.56411 0.10741 0.08582 0.0
C339 C 0.53831 1.02964 0.09757 0.0
C340 C 0.49187 0.09158 0.17405 0.0
C341 C 0.51567 0.17001 0.16122 0.0
C342 C 0.48084 0.93743 0.15828 0.0
C343 C 0.54604 0.62806 0.21321 0.0
C344 C 0.66001 0.82307 0.12795 0.0
C345 C 0.63826 0.41887 0.08899 0.0
C346 C 0.58256 0.2619 0.10738 0.0
C347 C 0.59454 0.31801 0.14957 0.0
C348 C 0.62074 0.39594 0.14036 0.0
C349 C 0.62805 0.36263 0.04705 0.0
C350 C 0.59984 0.28548 0.05583 0.0
C351 C 0.66038 0.50483 0.07828 0.0
H352 H 0.59356 0.11026 0.05256 0.0
H353 H 0.54769 0.97562 0.07252 0.0
H354 H 0.46476 0.08615 0.20864 0.0
H355 H 0.50437 0.22355 0.1858 0.0
H356 H 0.58441 0.30195 0.19018 0.0
H357 H 0.62777 0.43777 0.17388 0.0
H358 H 0.64133 0.37957 0.00741 0.0
H359 H 0.5915 0.24482 0.0221 0.0
Dy360 Dy 0.34475 0.41048 0.14153 0.0
Dy361 Dy 0.26922 0.56626 0.1043 0.0
C362 C 0.29985 0.42661 0.02078 0.0
O363 O 0.41442 0.50416 0.13368 0.0
O364 O 0.36242 0.59699 0.08247 0.0
O365 O 0.41026 0.31446 0.13138 0.0
O366 O 0.3561 0.3158 0.20173 0.0
O367 O 0.31505 0.62171 0.17294 0.0
O368 O 0.32429 0.49577 0.214 0.0
O369 O 0.20542 0.46814 0.13789 0.0
O370 O 0.25999 0.35011 0.12593 0.0
O371 O 0.20242 0.65667 0.12128 0.0
O372 O 0.24769 0.66067 0.04591 0.0
C373 C 0.41169 0.57064 0.10331 0.0
O374 O 0.3443 0.40641 0.05088 0.0
O375 O 0.25897 0.47539 0.03888 0.0
C376 C 0.36588 0.18534 0.15641 0.0
C377 C 0.31842 1.02697 0.12865 0.0
C378 C 0.35991 1.06499 0.0959 0.0
C379 C 0.38336 0.14363 0.1096 0.0
C380 C 0.32243 0.14837 0.18755 0.0
C381 C 0.29971 1.06964 0.17439 0.0
C382 C 0.38853 0.27028 0.17028 0.0
C383 C 0.32372 0.57989 0.21597 0.0
C384 C 0.20996 0.38447 0.13453 0.0
C385 C 0.23909 0.78804 0.09336 0.0
C386 C 0.29364 0.94349 0.11542 0.0
C387 C 0.28797 0.88235 0.15516 0.0
C388 C 0.26141 0.80533 0.14421 0.0
C389 C 0.24361 0.84991 0.05402 0.0
C390 C 0.27203 0.92626 0.06443 0.0
C391 C 0.21698 0.70288 0.08052 0.0
H392 H 0.37478 1.03341 0.06021 0.0
H393 H 0.41549 0.17136 0.08373 0.0
H394 H 0.30472 0.18094 0.22155 0.0
H395 H 0.2664 1.04293 0.19944 0.0
H396 H 0.30423 0.89408 0.19478 0.0
H397 H 0.25804 0.75981 0.17592 0.0
H398 H 0.22348 0.84039 0.01593 0.0
H399 H 0.27439 0.97347 0.0335 0.0
Dy400 Dy 0.51902 0.41443 0.33916 0.0
Dy401 Dy 0.59539 0.5698 0.37753 0.0
C402 C 0.56274 0.43337 0.45959 0.0
O403 O 0.44964 0.50812 0.34578 0.0
O404 O 0.50155 0.59961 0.39861 0.0
O405 O 0.45293 0.31916 0.34909 0.0
O406 O 0.50932 0.3166 0.28018 0.0
O407 O 0.55238 0.62384 0.30735 0.0
O408 O 0.5409 0.49717 0.26656 0.0
O409 O 0.65958 0.46983 0.34525 0.0
O410 O 0.60248 0.35498 0.35902 0.0
O411 O 0.66193 0.66242 0.36452 0.0
O412 O 0.61378 0.66242 0.43875 0.0
C413 C 0.4523 0.57389 0.37706 0.0
O414 O 0.51759 0.41623 0.42956 0.0
O415 O 0.6057 0.47695 0.44089 0.0
C416 C 0.49753 0.1885 0.32698 0.0
C417 C 0.54312 1.03044 0.35711 0.0
C418 C 0.5025 1.0715 0.38954 0.0
C419 C 0.47993 0.14996 0.37464 0.0
C420 C 0.54009 0.1486 0.29617 0.0
C421 C 0.56183 1.07012 0.31048 0.0
C422 C 0.4757 0.27291 0.31142 0.0
C423 C 0.54298 0.58114 0.2645 0.0
C424 C 0.65332 0.38653 0.35024 0.0
C425 C 0.62128 0.79145 0.39355 0.0
C426 C 0.56672 0.94659 0.37113 0.0
C427 C 0.57299 0.8849 0.33145 0.0
C428 C 0.5998 0.80843 0.34249 0.0
C429 C 0.61458 0.85274 0.43347 0.0
C430 C 0.58697 0.92949 0.4226 0.0
C431 C 0.64475 0.70687 0.40561 0.0
H432 H 0.48746 1.04233 0.42582 0.0
H433 H 0.4483 0.17992 0.40017 0.0
H434 H 0.55769 0.17855 0.26133 0.0
H435 H 0.59422 1.0411 0.28533 0.0
H436 H 0.55746 0.89602 0.29156 0.0
H437 H 0.60443 0.76327 0.31048 0.0
H438 H 0.63148 0.84197 0.47267 0.0
H439 H 0.58362 0.97663 0.45375 0.0
Dy440 Dy 0.338 0.79561 0.34644 0.0
Dy441 Dy 0.25769 0.63997 0.37613 0.0
C442 C 0.29653 0.75903 0.46518 0.0
O443 O 0.40681 0.70111 0.35236 0.0
O444 O 0.3509 0.6007 0.39427 0.0
O445 O 0.40148 0.89183 0.36447 0.0
O446 O 0.35292 0.89696 0.29096 0.0
O447 O 0.30215 0.58506 0.30745 0.0
O448 O 0.32653 0.71169 0.27091 0.0
O449 O 0.1979 0.73879 0.33899 0.0
O450 O 0.25165 0.8538 0.36071 0.0
O451 O 0.18925 0.55259 0.35745 0.0
O452 O 0.23187 0.54779 0.43447 0.0
C453 C 0.40161 0.62975 0.37774 0.0
O454 O 0.34238 0.77655 0.43641 0.0
O455 O 0.25021 0.73238 0.44122 0.0
C456 C 0.3609 1.02244 0.33983 0.0
C457 C 0.30704 0.17956 0.36154 0.0
C458 C 0.29475 0.10794 0.39264 0.0
C459 C 0.32194 1.03067 0.38228 0.0
C460 C 0.37302 0.09285 0.30876 0.0
C461 C 0.34786 0.17097 0.32043 0.0
C462 C 0.38421 0.93898 0.32515 0.0
C463 C 0.32019 0.62782 0.26725 0.0
C464 C 0.20239 0.82164 0.34615 0.0
C465 C 0.22175 0.41985 0.38776 0.0
C466 C 0.27691 0.26214 0.37074 0.0
C467 C 0.26823 0.31893 0.32854 0.0
C468 C 0.24223 0.39729 0.33715 0.0
C469 C 0.2273 0.36216 0.42914 0.0
C470 C 0.25572 0.28501 0.42128 0.0
C471 C 0.20151 0.50653 0.39897 0.0
H472 H 0.26307 0.1103 0.42414 0.0
H473 H 0.3113 0.97672 0.40669 0.0
H474 H 0.40238 0.08763 0.27573 0.0
H475 H 0.36042 0.2245 0.29666 0.0
H476 H 0.28119 0.30335 0.28848 0.0
H477 H 0.23813 0.44 0.30391 0.0
H478 H 0.20991 0.37796 0.46768 0.0
H479 H 0.26079 0.24364 0.45494 0.0
Dy480 Dy 0.25357 0.51934 0.87562 0.0
Dy481 Dy 0.33183 0.36857 0.8439 0.0
C482 C 0.31443 0.53603 0.76665 0.0
O483 O 0.19171 0.42084 0.84028 0.0
O484 O 0.2469 0.30603 0.85772 0.0
O485 O 0.18809 0.61084 0.85643 0.0
O486 O 0.22753 0.60937 0.9353 0.0
O487 O 0.34009 0.39054 0.93336 0.0
O488 O 0.24743 0.42877 0.94119 0.0
O489 O 0.40004 0.46292 0.84745 0.0
O490 O 0.34625 0.55772 0.89592 0.0
O491 O 0.39381 0.27314 0.86609 0.0
O492 O 0.35375 0.27047 0.78789 0.0
C493 C 0.19684 0.33786 0.84589 0.0
O494 O 0.29789 0.57717 0.80813 0.0
O495 O 0.31971 0.45196 0.76868 0.0
C496 C 0.22897 0.73865 0.88819 0.0
C497 C 0.282 0.89682 0.86849 0.0
C498 C 0.25074 0.85448 0.82828 0.0
C499 C 0.22412 0.77692 0.83818 0.0
C500 C 0.26422 0.77714 0.92651 0.0
C501 C 0.28907 0.85605 0.91751 0.0
C502 C 0.20262 0.65495 0.89852 0.0
C503 C 0.29519 0.40547 0.96378 0.0
C504 C 0.39604 0.53148 0.87593 0.0
C505 C 0.35391 0.14378 0.83771 0.0
C506 C 0.30619 0.98313 0.8595 0.0
C507 C 0.35511 1.01256 0.88744 0.0
C508 C 0.37773 0.09291 0.87758 0.0
C509 C 0.30336 0.11679 0.8122 0.0
C510 C 0.27973 1.03799 0.82311 0.0
C511 C 0.37924 0.22697 0.82521 0.0
H512 H 0.24636 0.8809 0.78899 0.0
H513 H 0.19959 0.74721 0.80657 0.0
H514 H 0.27263 0.74634 0.96382 0.0
H515 H 0.313 0.885 0.94965 0.0
H516 H 0.37734 0.97326 0.91586 0.0
H517 H 0.41548 0.11371 0.89949 0.0
H518 H 0.28154 0.1568 0.78391 0.0
H519 H 0.2408 1.02044 0.80215 0.0
Dy520 Dy 0.59004 0.59433 0.87023 0.0
Dy521 Dy 0.50669 0.74443 0.83836 0.0
C522 C 0.54218 0.59153 0.76107 0.0
O523 O 0.65408 0.70242 0.87002 0.0
O524 O 0.59552 0.80327 0.83267 0.0
O525 O 0.6479 0.49549 0.84378 0.0
O526 O 0.61008 0.49108 0.92255 0.0
O527 O 0.52264 0.76969 0.92583 0.0
O528 O 0.58599 0.6623 0.94588 0.0
O529 O 0.44243 0.66514 0.87894 0.0
O530 O 0.49789 0.54726 0.86847 0.0
O531 O 0.43847 0.83527 0.85009 0.0
O532 O 0.48822 0.83527 0.77695 0.0
C533 C 0.64584 0.77973 0.85146 0.0
O534 O 0.59068 0.60944 0.78408 0.0
O535 O 0.49658 0.63421 0.77748 0.0
C536 C 0.60589 0.36524 0.8715 0.0
C537 C 0.55562 0.20608 0.85036 0.0
C538 C 0.58243 0.25162 0.80946 0.0
C539 C 0.60752 0.3305 0.81995 0.0
C540 C 0.57573 0.32138 0.9112 0.0
C541 C 0.55185 0.24205 0.90109 0.0
C542 C 0.63334 0.44789 0.88387 0.0
C543 C 0.55594 0.72883 0.95938 0.0
C544 C 0.44813 0.58348 0.87947 0.0
C545 C 0.47875 0.96322 0.82265 0.0
C546 C 0.53046 0.12179 0.84027 0.0
C547 C 0.54594 1.05242 0.87169 0.0
C548 C 0.52112 0.97329 0.86218 0.0
C549 C 0.46118 1.03287 0.79375 0.0
C550 C 0.48842 0.11124 0.80091 0.0
C551 C 0.45602 0.87919 0.80953 0.0
H552 H 0.58507 0.22534 0.76974 0.0
H553 H 0.62902 0.36341 0.78793 0.0
H554 H 0.56976 0.34872 0.95005 0.0
H555 H 0.52961 0.20926 0.93275 0.0
H556 H 0.57776 1.0591 0.90296 0.0
H557 H 0.53501 0.92019 0.88577 0.0
H558 H 0.42519 1.02564 0.76686 0.0
H559 H 0.47504 0.16492 0.77756 0.0
Dy560 Dy 0.26574 0.60664 0.60597 0.0
Dy561 Dy 0.33853 0.758 0.64552 0.0
C562 C 0.31849 0.58655 0.71664 0.0
O563 O 0.20011 0.70313 0.63837 0.0
O564 O 0.25495 0.82088 0.62857 0.0
O565 O 0.20063 0.51429 0.62439 0.0
O566 O 0.24409 0.51218 0.54736 0.0
O567 O 0.3414 0.76268 0.55456 0.0
O568 O 0.25575 0.6959 0.54037 0.0
O569 O 0.40856 0.66624 0.63765 0.0
O570 O 0.35814 0.58104 0.58035 0.0
O571 O 0.4056 0.85209 0.63818 0.0
O572 O 0.34922 0.85105 0.70732 0.0
C573 C 0.20457 0.78668 0.63551 0.0
O574 O 0.31244 0.54707 0.67229 0.0
O575 O 0.31713 0.67066 0.71646 0.0
C576 C 0.24255 0.38512 0.59671 0.0
C577 C 0.29063 0.22535 0.62082 0.0
C578 C 0.26288 0.2741 0.66033 0.0
C579 C 0.23836 0.3521 0.6482 0.0
C580 C 0.2756 0.34115 0.55913 0.0
C581 C 0.29733 0.26113 0.57015 0.0
C582 C 0.21722 0.46835 0.58376 0.0
C583 C 0.29798 0.74266 0.52295 0.0
C584 C 0.40687 0.60436 0.6035 0.0
C585 C 0.35868 0.97965 0.66116 0.0
C586 C 0.31244 0.13854 0.63274 0.0
C587 C 0.35584 0.09996 0.60169 0.0
C588 C 0.37718 1.02028 0.61477 0.0
C589 C 0.31304 1.01512 0.69001 0.0
C590 C 0.28951 0.09242 0.67547 0.0
C591 C 0.38212 0.89646 0.67635 0.0
H592 H 0.25952 0.25271 0.70087 0.0
H593 H 0.216 0.38624 0.67937 0.0
H594 H 0.28554 0.36888 0.52126 0.0
H595 H 0.31898 0.22814 0.53828 0.0
H596 H 0.37527 0.13133 0.5682 0.0
H597 H 0.41054 0.99271 0.59 0.0
H598 H 0.2944 0.98191 0.72313 0.0
H599 H 0.25275 0.11494 0.6978 0.0
Dy600 Dy 0.60059 0.52858 0.61624 0.0
Dy601 Dy 0.51256 0.38081 0.63286 0.0
C602 C 0.54364 0.52145 0.72066 0.0
O603 O 0.66427 0.42167 0.62309 0.0
O604 O 0.59919 0.31415 0.63538 0.0
O605 O 0.65241 0.62692 0.65225 0.0
O606 O 0.6351 0.62822 0.56759 0.0
O607 O 0.5185 0.39531 0.54384 0.0
O608 O 0.60724 0.45718 0.54169 0.0
O609 O 0.44775 0.46865 0.60308 0.0
O610 O 0.50926 0.5819 0.60967 0.0
O611 O 0.45194 0.28672 0.60593 0.0
O612 O 0.48335 0.2851 0.68751 0.0
C613 C 0.65256 0.34073 0.63041 0.0
O614 O 0.59375 0.50371 0.70104 0.0
O615 O 0.49911 0.48242 0.6989 0.0
C616 C 0.62291 0.75704 0.61474 0.0
C617 C 0.57124 0.91772 0.62438 0.0
C618 C 0.59901 0.88071 0.66811 0.0
C619 C 0.62493 0.80127 0.66325 0.0
C620 C 0.59284 0.79289 0.57191 0.0
C621 C 0.56806 0.87295 0.57639 0.0
C622 C 0.64984 0.67254 0.60931 0.0
C623 C 0.5634 0.42274 0.51737 0.0
C624 C 0.45749 0.54943 0.60067 0.0
C625 C 0.48772 0.15861 0.63875 0.0
C626 C 0.54385 1.00163 0.62932 0.0
C627 C 0.55538 1.06629 0.59271 0.0
C628 C 0.52815 0.14495 0.59791 0.0
C629 C 0.47559 0.09391 0.67363 0.0
C630 C 0.50405 1.01638 0.67003 0.0
C631 C 0.4611 0.24153 0.64819 0.0
H632 H 0.6015 0.91392 0.70575 0.0
H633 H 0.64693 0.77483 0.6973 0.0
H634 H 0.58813 0.75878 0.53487 0.0
H635 H 0.5454 0.89924 0.54266 0.0
H636 H 0.58598 1.05639 0.56077 0.0
H637 H 0.53876 0.19483 0.57026 0.0
H638 H 0.44105 0.10385 0.7013 0.0
H639 H 0.49324 0.96639 0.69739 0.0
loop_
_geom_bond_atom_site_label_1
_geom_bond_atom_site_label_2
_geom_bond_distance
_geom_bond_site_symmetry_2
_ccdc_geom_bond_type
Dy0 O3 2.307 . S
Dy0 O5 2.395 . S
Dy0 O6 2.379 . S
Dy0 O8 2.339 . S
Dy0 O10 2.298 . S
Dy0 O14 2.275 . S
Dy0 C22 2.738 . S
Dy1 O4 2.298 1_545 S
Dy1 O7 2.275 . S
Dy1 O9 2.307 . S
Dy1 O11 2.395 1_545 S
Dy1 O12 2.379 1_545 S
Dy1 O15 2.339 . S
Dy1 C31 2.738 1_545 S
C2 O14 1.254 . S
C2 O15 1.257 . S
O3 Dy0 2.307 . S
O3 C13 1.266 . S
O4 Dy1 2.298 1_565 S
O4 C13 1.236 1_565 S
O5 Dy0 2.395 . S
O5 C22 1.255 . S
O6 Dy0 2.379 . S
O6 C22 1.249 . S
O7 Dy1 2.275 . S
O7 C23 1.254 . S
O8 Dy0 2.339 . S
O8 C23 1.257 . S
O9 Dy1 2.307 . S
O9 C24 1.266 . S
O10 Dy0 2.298 . S
O10 C24 1.236 . S
O11 Dy1 2.395 1_565 S
O11 C31 1.255 . S
O12 Dy1 2.379 1_565 S
O12 C31 1.249 . S
C13 O3 1.266 . S
C13 O4 1.236 1_545 S
O14 Dy0 2.275 . S
O14 C2 1.254 . S
O15 Dy1 2.339 . S
O15 C2 1.257 . S
C16 C19 1.344 . S
C16 C20 1.328 . S
C16 C22 1.516 . S
C17 C18 1.304 . S
C17 C21 1.323 . S
C18 C17 1.304 . S
C18 C19 1.371 . S
C18 H32 0.930 . S
C19 C16 1.344 . S
C19 C18 1.371 . S
C19 H33 0.931 . S
C20 C16 1.328 . S
C20 C21 1.433 . S
C20 H34 0.931 . S
C21 C17 1.323 . S
C21 C20 1.433 . S
C21 H35 0.933 . S
C22 Dy0 2.738 . S
C22 O5 1.255 . S
C22 O6 1.249 . S
C22 C16 1.516 . S
C23 O7 1.254 . S
C23 O8 1.257 . S
C24 O9 1.266 . S
C24 O10 1.236 . S
C25 C28 1.344 . S
C25 C29 1.328 . S
C25 C31 1.516 . S
C26 C27 1.304 . S
C26 C30 1.323 . S
C27 C26 1.304 . S
C27 C28 1.371 . S
C27 H36 0.930 . S
C28 C25 1.344 . S
C28 C27 1.371 . S
C28 H37 0.931 . S
C29 C25 1.328 . S
C29 C30 1.433 . S
C29 H38 0.931 . S
C30 C26 1.323 . S
C30 C29 1.433 . S
C30 H39 0.933 . S
C31 Dy1 2.738 1_565 S
C31 O11 1.255 . S
C31 O12 1.249 . S
C31 C25 1.516 . S
H32 C18 0.930 . S
H33 C19 0.931 . S
H34 C20 0.931 . S
H35 C21 0.933 . S
H36 C27 0.930 . S
H37 C28 0.931 . S
H38 C29 0.931 . S
H39 C30 0.933 . S
Dy40 O43 2.307 . S
Dy40 O45 2.395 . S
Dy40 O46 2.379 . S
Dy40 O48 2.339 . S
Dy40 O50 2.298 . S
Dy40 O54 2.275 . S
Dy40 C62 2.738 . S
Dy41 O44 2.298 1_565 S
Dy41 O47 2.275 . S
Dy41 O49 2.307 . S
Dy41 O51 2.395 1_565 S
Dy41 O52 2.379 1_565 S
Dy41 O55 2.339 . S
Dy41 C71 2.738 1_565 S
C42 O54 1.254 . S
C42 O55 1.257 . S
O43 Dy40 2.307 . S
O43 C53 1.266 . S
O44 Dy41 2.298 1_545 S
O44 C53 1.236 1_545 S
O45 Dy40 2.395 . S
O45 C62 1.255 . S
O46 Dy40 2.379 . S
O46 C62 1.249 . S
O47 Dy41 2.275 . S
O47 C63 1.254 . S
O48 Dy40 2.339 . S
O48 C63 1.257 . S
O49 Dy41 2.307 . S
O49 C64 1.266 . S
O50 Dy40 2.298 . S
O50 C64 1.236 . S
O51 Dy41 2.395 1_545 S
O51 C71 1.255 . S
O52 Dy41 2.379 1_545 S
O52 C71 1.249 . S
C53 O43 1.266 . S
C53 O44 1.236 1_565 S
O54 Dy40 2.275 . S
O54 C42 1.254 . S
O55 Dy41 2.339 . S
O55 C42 1.257 . S
C56 C59 1.344 . S
C56 C60 1.328 . S
C56 C62 1.516 . S
C57 C58 1.304 . S
C57 C61 1.323 . S
C58 C57 1.304 . S
C58 C59 1.371 . S
C58 H72 0.930 . S
C59 C56 1.344 . S
C59 C58 1.371 . S
C59 H73 0.931 . S
C60 C56 1.328 . S
C60 C61 1.433 . S
C60 H74 0.931 . S
C61 C57 1.323 . S
C61 C60 1.433 . S
C61 H75 0.933 . S
C62 Dy40 2.738 . S
C62 O45 1.255 . S
C62 O46 1.249 . S
C62 C56 1.516 . S
C63 O47 1.254 . S
C63 O48 1.257 . S
C64 O49 1.266 . S
C64 O50 1.236 . S
C65 C68 1.344 . S
C65 C69 1.328 . S
C65 C71 1.516 . S
C66 C67 1.304 . S
C66 C70 1.323 . S
C67 C66 1.304 . S
C67 C68 1.371 . S
C67 H76 0.930 . S
C68 C65 1.344 . S
C68 C67 1.371 . S
C68 H77 0.931 . S
C69 C65 1.328 . S
C69 C70 1.433 . S
C69 H78 0.931 . S
C70 C66 1.323 . S
C70 C69 1.433 . S
C70 H79 0.933 . S
C71 Dy41 2.738 1_545 S
C71 O51 1.255 . S
C71 O52 1.249 . S
C71 C65 1.516 . S
H72 C58 0.930 . S
H73 C59 0.931 . S
H74 C60 0.931 . S
H75 C61 0.933 . S
H76 C67 0.930 . S
H77 C68 0.931 . S
H78 C69 0.931 . S
H79 C70 0.933 . S
Dy80 O83 2.307 . S
Dy80 O85 2.395 . S
Dy80 O86 2.379 . S
Dy80 O88 2.339 . S
Dy80 O90 2.298 . S
Dy80 O94 2.275 . S
Dy80 C102 2.738 . S
Dy81 O84 2.298 1_565 S
Dy81 O87 2.275 . S
Dy81 O89 2.307 . S
Dy81 O91 2.395 1_565 S
Dy81 O92 2.379 1_565 S
Dy81 O95 2.339 . S
Dy81 C111 2.738 1_565 S
C82 O94 1.254 . S
C82 O95 1.257 . S
O83 Dy80 2.307 . S
O83 C93 1.266 . S
O84 Dy81 2.298 1_545 S
O84 C93 1.236 1_545 S
O85 Dy80 2.395 . S
O85 C102 1.255 . S
O86 Dy80 2.379 . S
O86 C102 1.249 . S
O87 Dy81 2.275 . S
O87 C103 1.254 . S
O88 Dy80 2.339 . S
O88 C103 1.257 . S
O89 Dy81 2.307 . S
O89 C104 1.266 . S
O90 Dy80 2.298 . S
O90 C104 1.236 . S
O91 Dy81 2.395 1_545 S
O91 C111 1.255 . S
O92 Dy81 2.379 1_545 S
O92 C111 1.249 . S
C93 O83 1.266 . S
C93 O84 1.236 1_565 S
O94 Dy80 2.275 . S
O94 C82 1.254 . S
O95 Dy81 2.339 . S
O95 C82 1.257 . S
C96 C99 1.344 . S
C96 C100 1.328 . S
C96 C102 1.516 . S
C97 C98 1.304 . S
C97 C101 1.323 . S
C98 C97 1.304 . S
C98 C99 1.371 . S
C98 H112 0.930 . S
C99 C96 1.344 . S
C99 C98 1.371 . S
C99 H113 0.931 . S
C100 C96 1.328 . S
C100 C101 1.433 . S
C100 H114 0.931 . S
C101 C97 1.323 . S
C101 C100 1.433 . S
C101 H115 0.933 . S
C102 Dy80 2.738 . S
C102 O85 1.255 . S
C102 O86 1.249 . S
C102 C96 1.516 . S
C103 O87 1.254 . S
C103 O88 1.257 . S
C104 O89 1.266 . S
C104 O90 1.236 . S
C105 C108 1.344 . S
C105 C109 1.328 . S
C105 C111 1.516 . S
C106 C107 1.304 . S
C106 C110 1.323 . S
C107 C106 1.304 . S
C107 C108 1.371 . S
C107 H116 0.930 . S
C108 C105 1.344 . S
C108 C107 1.371 . S
C108 H117 0.931 . S
C109 C105 1.328 . S
C109 C110 1.433 . S
C109 H118 0.931 . S
C110 C106 1.323 . S
C110 C109 1.433 . S
C110 H119 0.933 . S
C111 Dy81 2.738 1_545 S
C111 O91 1.255 . S
C111 O92 1.249 . S
C111 C105 1.516 . S
H112 C98 0.930 . S
H113 C99 0.931 . S
H114 C100 0.931 . S
H115 C101 0.933 . S
H116 C107 0.930 . S
H117 C108 0.931 . S
H118 C109 0.931 . S
H119 C110 0.933 . S
Dy120 O123 2.307 . S
Dy120 O125 2.395 . S
Dy120 O126 2.379 . S
Dy120 O128 2.339 . S
Dy120 O130 2.298 . S
Dy120 O134 2.275 . S
Dy120 C142 2.738 . S
Dy121 O124 2.298 1_545 S
Dy121 O127 2.275 . S
Dy121 O129 2.307 . S
Dy121 O131 2.395 1_545 S
Dy121 O132 2.379 1_545 S
Dy121 O135 2.339 . S
Dy121 C151 2.738 1_545 S
C122 O134 1.254 . S
C122 O135 1.257 . S
O123 Dy120 2.307 . S
O123 C133 1.266 . S
O124 Dy121 2.298 1_565 S
O124 C133 1.236 1_565 S
O125 Dy120 2.395 . S
O125 C142 1.255 . S
O126 Dy120 2.379 . S
O126 C142 1.249 . S
O127 Dy121 2.275 . S
O127 C143 1.254 . S
O128 Dy120 2.339 . S
O128 C143 1.257 . S
O129 Dy121 2.307 . S
O129 C144 1.266 . S
O130 Dy120 2.298 . S
O130 C144 1.236 . S
O131 Dy121 2.395 1_565 S
O131 C151 1.255 . S
O132 Dy121 2.379 1_565 S
O132 C151 1.249 . S
C133 O123 1.266 . S
C133 O124 1.236 1_545 S
O134 Dy120 2.275 . S
O134 C122 1.254 . S
O135 Dy121 2.339 . S
O135 C122 1.257 . S
C136 C139 1.344 . S
C136 C140 1.328 . S
C136 C142 1.516 . S
C137 C138 1.304 . S
C137 C141 1.323 . S
C138 C137 1.304 . S
C138 C139 1.371 . S
C138 H152 0.930 . S
C139 C136 1.344 . S
C139 C138 1.371 . S
C139 H153 0.931 . S
C140 C136 1.328 . S
C140 C141 1.433 . S
C140 H154 0.931 . S
C141 C137 1.323 . S
C141 C140 1.433 . S
C141 H155 0.933 . S
C142 Dy120 2.738 . S
C142 O125 1.255 . S
C142 O126 1.249 . S
C142 C136 1.516 . S
C143 O127 1.254 . S
C143 O128 1.257 . S
C144 O129 1.266 . S
C144 O130 1.236 . S
C145 C148 1.344 . S
C145 C149 1.328 . S
C145 C151 1.516 . S
C146 C147 1.304 . S
C146 C150 1.323 . S
C147 C146 1.304 . S
C147 C148 1.371 . S
C147 H156 0.930 . S
C148 C145 1.344 . S
C148 C147 1.371 . S
C148 H157 0.931 . S
C149 C145 1.328 . S
C149 C150 1.433 . S
C149 H158 0.931 . S
C150 C146 1.323 . S
C150 C149 1.433 . S
C150 H159 0.933 . S
C151 Dy121 2.738 1_565 S
C151 O131 1.255 . S
C151 O132 1.249 . S
C151 C145 1.516 . S
H152 C138 0.930 . S
H153 C139 0.931 . S
H154 C140 0.931 . S
H155 C141 0.933 . S
H156 C147 0.930 . S
H157 C148 0.931 . S
H158 C149 0.931 . S
H159 C150 0.933 . S
Dy160 O163 2.307 . S
Dy160 O165 2.395 1_565 S
Dy160 O166 2.379 1_565 S
Dy160 O168 2.339 . S
Dy160 O170 2.298 1_565 S
Dy160 O174 2.275 . S
Dy160 C182 2.738 1_565 S
Dy161 O164 2.298 . S
Dy161 O167 2.275 . S
Dy161 O169 2.307 . S
Dy161 O171 2.395 . S
Dy161 O172 2.379 . S
Dy161 O175 2.339 . S
Dy161 C191 2.738 . S
C162 O174 1.254 . S
C162 O175 1.257 . S
O163 Dy160 2.307 . S
O163 C173 1.266 . S
O164 Dy161 2.298 . S
O164 C173 1.236 . S
O165 Dy160 2.395 1_545 S
O165 C182 1.255 . S
O166 Dy160 2.379 1_545 S
O166 C182 1.249 . S
O167 Dy161 2.275 . S
O167 C183 1.254 . S
O168 Dy160 2.339 . S
O168 C183 1.257 . S
O169 Dy161 2.307 . S
O169 C184 1.266 . S
O170 Dy160 2.298 1_545 S
O170 C184 1.236 1_545 S
O171 Dy161 2.395 . S
O171 C191 1.255 . S
O172 Dy161 2.379 . S
O172 C191 1.249 . S
C173 O163 1.266 . S
C173 O164 1.236 . S
O174 Dy160 2.275 . S
O174 C162 1.254 . S
O175 Dy161 2.339 . S
O175 C162 1.257 . S
C176 C179 1.344 . S
C176 C180 1.328 . S
C176 C182 1.516 . S
C177 C178 1.304 . S
C177 C181 1.323 . S
C178 C177 1.304 . S
C178 C179 1.371 . S
C178 H192 0.930 . S
C179 C176 1.344 . S
C179 C178 1.371 . S
C179 H193 0.931 . S
C180 C176 1.328 . S
C180 C181 1.433 . S
C180 H194 0.931 . S
C181 C177 1.323 . S
C181 C180 1.433 . S
C181 H195 0.933 . S
C182 Dy160 2.738 1_545 S
C182 O165 1.255 . S
C182 O166 1.249 . S
C182 C176 1.516 . S
C183 O167 1.254 . S
C183 O168 1.257 . S
C184 O169 1.266 . S
C184 O170 1.236 1_565 S
C185 C188 1.344 . S
C185 C189 1.328 . S
C185 C191 1.516 . S
C186 C187 1.304 . S
C186 C190 1.323 . S
C187 C186 1.304 . S
C187 C188 1.371 . S
C187 H196 0.930 . S
C188 C185 1.344 . S
C188 C187 1.371 . S
C188 H197 0.931 . S
C189 C185 1.328 . S
C189 C190 1.433 . S
C189 H198 0.931 . S
C190 C186 1.323 . S
C190 C189 1.433 . S
C190 H199 0.933 . S
C191 Dy161 2.738 . S
C191 O171 1.255 . S
C191 O172 1.249 . S
C191 C185 1.516 . S
H192 C178 0.930 . S
H193 C179 0.931 . S
H194 C180 0.931 . S
H195 C181 0.933 . S
H196 C187 0.930 . S
H197 C188 0.931 . S
H198 C189 0.931 . S
H199 C190 0.933 . S
Dy200 O203 2.307 . S
Dy200 O205 2.395 1_545 S
Dy200 O206 2.379 1_545 S
Dy200 O208 2.339 . S
Dy200 O210 2.298 1_545 S
Dy200 O214 2.275 . S
Dy200 C222 2.738 1_545 S
Dy201 O204 2.298 . S
Dy201 O207 2.275 . S
Dy201 O209 2.307 . S
Dy201 O211 2.395 . S
Dy201 O212 2.379 . S
Dy201 O215 2.339 . S
Dy201 C231 2.738 . S
C202 O214 1.254 . S
C202 O215 1.257 . S
O203 Dy200 2.307 . S
O203 C213 1.266 . S
O204 Dy201 2.298 . S
O204 C213 1.236 . S
O205 Dy200 2.395 1_565 S
O205 C222 1.255 . S
O206 Dy200 2.379 1_565 S
O206 C222 1.249 . S
O207 Dy201 2.275 . S
O207 C223 1.254 . S
O208 Dy200 2.339 . S
O208 C223 1.257 . S
O209 Dy201 2.307 . S
O209 C224 1.266 . S
O210 Dy200 2.298 1_565 S
O210 C224 1.236 1_565 S
O211 Dy201 2.395 . S
O211 C231 1.255 . S
O212 Dy201 2.379 . S
O212 C231 1.249 . S
C213 O203 1.266 . S
C213 O204 1.236 . S
O214 Dy200 2.275 . S
O214 C202 1.254 . S
O215 Dy201 2.339 . S
O215 C202 1.257 . S
C216 C219 1.344 . S
C216 C220 1.328 . S
C216 C222 1.516 . S
C217 C218 1.304 . S
C217 C221 1.323 . S
C218 C217 1.304 . S
C218 C219 1.371 . S
C218 H232 0.930 . S
C219 C216 1.344 . S
C219 C218 1.371 . S
C219 H233 0.931 . S
C220 C216 1.328 . S
C220 C221 1.433 . S
C220 H234 0.931 . S
C221 C217 1.323 . S
C221 C220 1.433 . S
C221 H235 0.933 . S
C222 Dy200 2.738 1_565 S
C222 O205 1.255 . S
C222 O206 1.249 . S
C222 C216 1.516 . S
C223 O207 1.254 . S
C223 O208 1.257 . S
C224 O209 1.266 . S
C224 O210 1.236 1_545 S
C225 C228 1.344 . S
C225 C229 1.328 . S
C225 C231 1.516 . S
C226 C227 1.304 . S
C226 C230 1.323 . S
C227 C226 1.304 . S
C227 C228 1.371 . S
C227 H236 0.930 . S
C228 C225 1.344 . S
C228 C227 1.371 . S
C228 H237 0.931 . S
C229 C225 1.328 . S
C229 C230 1.433 . S
C229 H238 0.931 . S
C230 C226 1.323 . S
C230 C229 1.433 . S
C230 H239 0.933 . S
C231 Dy201 2.738 . S
C231 O211 1.255 . S
C231 O212 1.249 . S
C231 C225 1.516 . S
H232 C218 0.930 . S
H233 C219 0.931 . S
H234 C220 0.931 . S
H235 C221 0.933 . S
H236 C227 0.930 . S
H237 C228 0.931 . S
H238 C229 0.931 . S
H239 C230 0.933 . S
Dy240 O243 2.307 . S
Dy240 O245 2.395 1_545 S
Dy240 O246 2.379 1_545 S
Dy240 O248 2.339 . S
Dy240 O250 2.298 1_545 S
Dy240 O254 2.275 . S
Dy240 C262 2.738 1_545 S
Dy241 O244 2.298 . S
Dy241 O247 2.275 . S
Dy241 O249 2.307 . S
Dy241 O251 2.395 . S
Dy241 O252 2.379 . S
Dy241 O255 2.339 . S
Dy241 C271 2.738 . S
C242 O254 1.254 . S
C242 O255 1.257 . S
O243 Dy240 2.307 . S
O243 C253 1.266 . S
O244 Dy241 2.298 . S
O244 C253 1.236 . S
O245 Dy240 2.395 1_565 S
O245 C262 1.255 . S
O246 Dy240 2.379 1_565 S
O246 C262 1.249 . S
O247 Dy241 2.275 . S
O247 C263 1.254 . S
O248 Dy240 2.339 . S
O248 C263 1.257 . S
O249 Dy241 2.307 . S
O249 C264 1.266 . S
O250 Dy240 2.298 1_565 S
O250 C264 1.236 1_565 S
O251 Dy241 2.395 . S
O251 C271 1.255 . S
O252 Dy241 2.379 . S
O252 C271 1.249 . S
C253 O243 1.266 . S
C253 O244 1.236 . S
O254 Dy240 2.275 . S
O254 C242 1.254 . S
O255 Dy241 2.339 . S
O255 C242 1.257 . S
C256 C259 1.344 . S
C256 C260 1.328 . S
C256 C262 1.516 . S
C257 C258 1.304 . S
C257 C261 1.323 . S
C258 C257 1.304 . S
C258 C259 1.371 . S
C258 H272 0.930 . S
C259 C256 1.344 . S
C259 C258 1.371 . S
C259 H273 0.931 . S
C260 C256 1.328 . S
C260 C261 1.433 . S
C260 H274 0.931 . S
C261 C257 1.323 . S
C261 C260 1.433 . S
C261 H275 0.933 . S
C262 Dy240 2.738 1_565 S
C262 O245 1.255 . S
C262 O246 1.249 . S
C262 C256 1.516 . S
C263 O247 1.254 . S
C263 O248 1.257 . S
C264 O249 1.266 . S
C264 O250 1.236 1_545 S
C265 C268 1.344 . S
C265 C269 1.328 . S
C265 C271 1.516 . S
C266 C267 1.304 . S
C266 C270 1.323 . S
C267 C266 1.304 . S
C267 C268 1.371 . S
C267 H276 0.930 . S
C268 C265 1.344 . S
C268 C267 1.371 . S
C268 H277 0.931 . S
C269 C265 1.328 . S
C269 C270 1.433 . S
C269 H278 0.931 . S
C270 C266 1.323 . S
C270 C269 1.433 . S
C270 H279 0.933 . S
C271 Dy241 2.738 . S
C271 O251 1.255 . S
C271 O252 1.249 . S
C271 C265 1.516 . S
H272 C258 0.930 . S
H273 C259 0.931 . S
H274 C260 0.931 . S
H275 C261 0.933 . S
H276 C267 0.930 . S
H277 C268 0.931 . S
H278 C269 0.931 . S
H279 C270 0.933 . S
Dy280 O283 2.307 . S
Dy280 O285 2.395 1_565 S
Dy280 O286 2.379 1_565 S
Dy280 O288 2.339 . S
Dy280 O290 2.298 1_565 S
Dy280 O294 2.275 . S
Dy280 C302 2.738 1_565 S
Dy281 O284 2.298 . S
Dy281 O287 2.275 . S
Dy281 O289 2.307 . S
Dy281 O291 2.395 . S
Dy281 O292 2.379 . S
Dy281 O295 2.339 . S
Dy281 C311 2.738 . S
C282 O294 1.254 . S
C282 O295 1.257 . S
O283 Dy280 2.307 . S
O283 C293 1.266 . S
O284 Dy281 2.298 . S
O284 C293 1.236 . S
O285 Dy280 2.395 1_545 S
O285 C302 1.255 . S
O286 Dy280 2.379 1_545 S
O286 C302 1.249 . S
O287 Dy281 2.275 . S
O287 C303 1.254 . S
O288 Dy280 2.339 . S
O288 C303 1.257 . S
O289 Dy281 2.307 . S
O289 C304 1.266 . S
O290 Dy280 2.298 1_545 S
O290 C304 1.236 1_545 S
O291 Dy281 2.395 . S
O291 C311 1.255 . S
O292 Dy281 2.379 . S
O292 C311 1.249 . S
C293 O283 1.266 . S
C293 O284 1.236 . S
O294 Dy280 2.275 . S
O294 C282 1.254 . S
O295 Dy281 2.339 . S
O295 C282 1.257 . S
C296 C299 1.344 . S
C296 C300 1.328 . S
C296 C302 1.516 . S
C297 C298 1.304 . S
C297 C301 1.323 . S
C298 C297 1.304 . S
C298 C299 1.371 . S
C298 H312 0.930 . S
C299 C296 1.344 . S
C299 C298 1.371 . S
C299 H313 0.931 . S
C300 C296 1.328 . S
C300 C301 1.433 . S
C300 H314 0.931 . S
C301 C297 1.323 . S
C301 C300 1.433 . S
C301 H315 0.933 . S
C302 Dy280 2.738 1_545 S
C302 O285 1.255 . S
C302 O286 1.249 . S
C302 C296 1.516 . S
C303 O287 1.254 . S
C303 O288 1.257 . S
C304 O289 1.266 . S
C304 O290 1.236 1_565 S
C305 C308 1.344 . S
C305 C309 1.328 . S
C305 C311 1.516 . S
C306 C307 1.304 . S
C306 C310 1.323 . S
C307 C306 1.304 . S
C307 C308 1.371 . S
C307 H316 0.930 . S
C308 C305 1.344 . S
C308 C307 1.371 . S
C308 H317 0.931 . S
C309 C305 1.328 . S
C309 C310 1.433 . S
C309 H318 0.931 . S
C310 C306 1.323 . S
C310 C309 1.433 . S
C310 H319 0.933 . S
C311 Dy281 2.738 . S
C311 O291 1.255 . S
C311 O292 1.249 . S
C311 C305 1.516 . S
H312 C298 0.930 . S
H313 C299 0.931 . S
H314 C300 0.931 . S
H315 C301 0.933 . S
H316 C307 0.930 . S
H317 C308 0.931 . S
H318 C309 0.931 . S
H319 C310 0.933 . S
Dy320 O323 2.307 . S
Dy320 O325 2.395 . S
Dy320 O326 2.379 . S
Dy320 O328 2.339 . S
Dy320 O330 2.298 . S
Dy320 O334 2.275 . S
Dy320 C342 2.738 . S
Dy321 O324 2.298 . S
Dy321 O327 2.275 . S
Dy321 O329 2.307 . S
Dy321 O331 2.395 . S
Dy321 O332 2.379 . S
Dy321 O335 2.339 . S
Dy321 C351 2.738 . S
C322 O334 1.254 . S
C322 O335 1.257 . S
O323 Dy320 2.307 . S
O323 C333 1.266 . S
O324 Dy321 2.298 . S
O324 C333 1.236 . S
O325 Dy320 2.395 . S
O325 C342 1.255 . S
O326 Dy320 2.379 . S
O326 C342 1.249 . S
O327 Dy321 2.275 . S
O327 C343 1.254 . S
O328 Dy320 2.339 . S
O328 C343 1.257 . S
O329 Dy321 2.307 . S
O329 C344 1.266 . S
O330 Dy320 2.298 . S
O330 C344 1.236 . S
O331 Dy321 2.395 . S
O331 C351 1.255 . S
O332 Dy321 2.379 . S
O332 C351 1.249 . S
C333 O323 1.266 . S
C333 O324 1.236 . S
O334 Dy320 2.275 . S
O334 C322 1.254 . S
O335 Dy321 2.339 . S
O335 C322 1.257 . S
C336 C339 1.344 . S
C336 C340 1.328 . S
C336 C342 1.516 . S
C337 C338 1.304 . S
C337 C341 1.323 . S
C338 C337 1.304 . S
C338 C339 1.371 1_545 S
C338 H352 0.930 . S
C339 C336 1.344 . S
C339 C338 1.371 1_565 S
C339 H353 0.931 . S
C340 C336 1.328 . S
C340 C341 1.433 1_565 S
C340 H354 0.931 . S
C341 C337 1.323 . S
C341 C340 1.433 1_545 S
C341 H355 0.933 . S
C342 Dy320 2.738 . S
C342 O325 1.255 . S
C342 O326 1.249 . S
C342 C336 1.516 . S
C343 O327 1.254 . S
C343 O328 1.257 . S
C344 O329 1.266 . S
C344 O330 1.236 . S
C345 C348 1.344 . S
C345 C349 1.328 . S
C345 C351 1.516 . S
C346 C347 1.304 . S
C346 C350 1.323 . S
C347 C346 1.304 . S
C347 C348 1.371 . S
C347 H356 0.930 . S
C348 C345 1.344 . S
C348 C347 1.371 . S
C348 H357 0.931 . S
C349 C345 1.328 . S
C349 C350 1.433 . S
C349 H358 0.931 . S
C350 C346 1.323 . S
C350 C349 1.433 . S
C350 H359 0.933 . S
C351 Dy321 2.738 . S
C351 O331 1.255 . S
C351 O332 1.249 . S
C351 C345 1.516 . S
H352 C338 0.930 . S
H353 C339 0.931 . S
H354 C340 0.931 . S
H355 C341 0.933 . S
H356 C347 0.930 . S
H357 C348 0.931 . S
H358 C349 0.931 . S
H359 C350 0.933 . S
Dy360 O363 2.307 . S
Dy360 O365 2.395 . S
Dy360 O366 2.379 . S
Dy360 O368 2.339 . S
Dy360 O370 2.298 . S
Dy360 O374 2.275 . S
Dy360 C382 2.738 . S
Dy361 O364 2.298 . S
Dy361 O367 2.275 . S
Dy361 O369 2.307 . S
Dy361 O371 2.395 . S
Dy361 O372 2.379 . S
Dy361 O375 2.339 . S
Dy361 C391 2.738 . S
C362 O374 1.254 . S
C362 O375 1.257 . S
O363 Dy360 2.307 . S
O363 C373 1.266 . S
O364 Dy361 2.298 . S
O364 C373 1.236 . S
O365 Dy360 2.395 . S
O365 C382 1.255 . S
O366 Dy360 2.379 . S
O366 C382 1.249 . S
O367 Dy361 2.275 . S
O367 C383 1.254 . S
O368 Dy360 2.339 . S
O368 C383 1.257 . S
O369 Dy361 2.307 . S
O369 C384 1.266 . S
O370 Dy360 2.298 . S
O370 C384 1.236 . S
O371 Dy361 2.395 . S
O371 C391 1.255 . S
O372 Dy361 2.379 . S
O372 C391 1.249 . S
C373 O363 1.266 . S
C373 O364 1.236 . S
O374 Dy360 2.275 . S
O374 C362 1.254 . S
O375 Dy361 2.339 . S
O375 C362 1.257 . S
C376 C379 1.344 . S
C376 C380 1.328 . S
C376 C382 1.516 . S
C377 C378 1.304 . S
C377 C381 1.323 . S
C378 C377 1.304 . S
C378 C379 1.371 1_565 S
C378 H392 0.930 . S
C379 C376 1.344 . S
C379 C378 1.371 1_545 S
C379 H393 0.931 . S
C380 C376 1.328 . S
C380 C381 1.433 1_545 S
C380 H394 0.931 . S
C381 C377 1.323 . S
C381 C380 1.433 1_565 S
C381 H395 0.933 . S
C382 Dy360 2.738 . S
C382 O365 1.255 . S
C382 O366 1.249 . S
C382 C376 1.516 . S
C383 O367 1.254 . S
C383 O368 1.257 . S
C384 O369 1.266 . S
C384 O370 1.236 . S
C385 C388 1.344 . S
C385 C389 1.328 . S
C385 C391 1.516 . S
C386 C387 1.304 . S
C386 C390 1.323 . S
C387 C386 1.304 . S
C387 C388 1.371 . S
C387 H396 0.930 . S
C388 C385 1.344 . S
C388 C387 1.371 . S
C388 H397 0.931 . S
C389 C385 1.328 . S
C389 C390 1.433 . S
C389 H398 0.931 . S
C390 C386 1.323 . S
C390 C389 1.433 . S
C390 H399 0.933 . S
C391 Dy361 2.738 . S
C391 O371 1.255 . S
C391 O372 1.249 . S
C391 C385 1.516 . S
H392 C378 0.930 . S
H393 C379 0.931 . S
H394 C380 0.931 . S
H395 C381 0.933 . S
H396 C387 0.930 . S
H397 C388 0.931 . S
H398 C389 0.931 . S
H399 C390 0.933 . S
Dy400 O403 2.307 . S
Dy400 O405 2.395 . S
Dy400 O406 2.379 . S
Dy400 O408 2.339 . S
Dy400 O410 2.298 . S
Dy400 O414 2.275 . S
Dy400 C422 2.738 . S
Dy401 O404 2.298 . S
Dy401 O407 2.275 . S
Dy401 O409 2.307 . S
Dy401 O411 2.395 . S
Dy401 O412 2.379 . S
Dy401 O415 2.339 . S
Dy401 C431 2.738 . S
C402 O414 1.254 . S
C402 O415 1.257 . S
O403 Dy400 2.307 . S
O403 C413 1.266 . S
O404 Dy401 2.298 . S
O404 C413 1.236 . S
O405 Dy400 2.395 . S
O405 C422 1.255 . S
O406 Dy400 2.379 . S
O406 C422 1.249 . S
O407 Dy401 2.275 . S
O407 C423 1.254 . S
O408 Dy400 2.339 . S
O408 C423 1.257 . S
O409 Dy401 2.307 . S
O409 C424 1.266 . S
O410 Dy400 2.298 . S
O410 C424 1.236 . S
O411 Dy401 2.395 . S
O411 C431 1.255 . S
O412 Dy401 2.379 . S
O412 C431 1.249 . S
C413 O403 1.266 . S
C413 O404 1.236 . S
O414 Dy400 2.275 . S
O414 C402 1.254 . S
O415 Dy401 2.339 . S
O415 C402 1.257 . S
C416 C419 1.344 . S
C416 C420 1.328 . S
C416 C422 1.516 . S
C417 C418 1.304 . S
C417 C421 1.323 . S
C418 C417 1.304 . S
C418 C419 1.371 1_565 S
C418 H432 0.930 . S
C419 C416 1.344 . S
C419 C418 1.371 1_545 S
C419 H433 0.931 . S
C420 C416 1.328 . S
C420 C421 1.433 1_545 S
C420 H434 0.931 . S
C421 C417 1.323 . S
C421 C420 1.433 1_565 S
C421 H435 0.933 . S
C422 Dy400 2.738 . S
C422 O405 1.255 . S
C422 O406 1.249 . S
C422 C416 1.516 . S
C423 O407 1.254 . S
C423 O408 1.257 . S
C424 O409 1.266 . S
C424 O410 1.236 . S
C425 C428 1.344 . S
C425 C429 1.328 . S
C425 C431 1.516 . S
C426 C427 1.304 . S
C426 C430 1.323 . S
C427 C426 1.304 . S
C427 C428 1.371 . S
C427 H436 0.930 . S
C428 C425 1.344 . S
C428 C427 1.371 . S
C428 H437 0.931 . S
C429 C425 1.328 . S
C429 C430 1.433 . S
C429 H438 0.931 . S
C430 C426 1.323 . S
C430 C429 1.433 . S
C430 H439 0.933 . S
C431 Dy401 2.738 . S
C431 O411 1.255 . S
C431 O412 1.249 . S
C431 C425 1.516 . S
H432 C418 0.930 . S
H433 C419 0.931 . S
H434 C420 0.931 . S
H435 C421 0.933 . S
H436 C427 0.930 . S
H437 C428 0.931 . S
H438 C429 0.931 . S
H439 C430 0.933 . S
Dy440 O443 2.307 . S
Dy440 O445 2.395 . S
Dy440 O446 2.379 . S
Dy440 O448 2.339 . S
Dy440 O450 2.298 . S
Dy440 O454 2.275 . S
Dy440 C462 2.738 . S
Dy441 O444 2.298 . S
Dy441 O447 2.275 . S
Dy441 O449 2.307 . S
Dy441 O451 2.395 . S
Dy441 O452 2.379 . S
Dy441 O455 2.339 . S
Dy441 C471 2.738 . S
C442 O454 1.254 . S
C442 O455 1.257 . S
O443 Dy440 2.307 . S
O443 C453 1.266 . S
O444 Dy441 2.298 . S
O444 C453 1.236 . S
O445 Dy440 2.395 . S
O445 C462 1.255 . S
O446 Dy440 2.379 . S
O446 C462 1.249 . S
O447 Dy441 2.275 . S
O447 C463 1.254 . S
O448 Dy440 2.339 . S
O448 C463 1.257 . S
O449 Dy441 2.307 . S
O449 C464 1.266 . S
O450 Dy440 2.298 . S
O450 C464 1.236 . S
O451 Dy441 2.395 . S
O451 C471 1.255 . S
O452 Dy441 2.379 . S
O452 C471 1.249 . S
C453 O443 1.266 . S
C453 O444 1.236 . S
O454 Dy440 2.275 . S
O454 C442 1.254 . S
O455 Dy441 2.339 . S
O455 C442 1.257 . S
C456 C459 1.344 . S
C456 C460 1.328 . S
C456 C462 1.516 . S
C457 C458 1.304 . S
C457 C461 1.323 . S
C458 C457 1.304 . S
C458 C459 1.371 1_545 S
C458 H472 0.930 . S
C459 C456 1.344 . S
C459 C458 1.371 1_565 S
C459 H473 0.931 . S
C460 C456 1.328 . S
C460 C461 1.433 1_565 S
C460 H474 0.931 . S
C461 C457 1.323 . S
C461 C460 1.433 1_545 S
C461 H475 0.933 . S
C462 Dy440 2.738 . S
C462 O445 1.255 . S
C462 O446 1.249 . S
C462 C456 1.516 . S
C463 O447 1.254 . S
C463 O448 1.257 . S
C464 O449 1.266 . S
C464 O450 1.236 . S
C465 C468 1.344 . S
C465 C469 1.328 . S
C465 C471 1.516 . S
C466 C467 1.304 . S
C466 C470 1.323 . S
C467 C466 1.304 . S
C467 C468 1.371 . S
C467 H476 0.930 . S
C468 C465 1.344 . S
C468 C467 1.371 . S
C468 H477 0.931 . S
C469 C465 1.328 . S
C469 C470 1.433 . S
C469 H478 0.931 . S
C470 C466 1.323 . S
C470 C469 1.433 . S
C470 H479 0.933 . S
C471 Dy441 2.738 . S
C471 O451 1.255 . S
C471 O452 1.249 . S
C471 C465 1.516 . S
H472 C458 0.930 . S
H473 C459 0.931 . S
H474 C460 0.931 . S
H475 C461 0.933 . S
H476 C467 0.930 . S
H477 C468 0.931 . S
H478 C469 0.931 . S
H479 C470 0.933 . S
Dy480 O483 2.307 . S
Dy480 O485 2.395 . S
Dy480 O486 2.379 . S
Dy480 O488 2.339 . S
Dy480 O490 2.298 . S
Dy480 O494 2.275 . S
Dy480 C502 2.738 . S
Dy481 O484 2.298 . S
Dy481 O487 2.275 . S
Dy481 O489 2.307 . S
Dy481 O491 2.395 . S
Dy481 O492 2.379 . S
Dy481 O495 2.339 . S
Dy481 C511 2.738 . S
C482 O494 1.254 . S
C482 O495 1.257 . S
O483 Dy480 2.307 . S
O483 C493 1.266 . S
O484 Dy481 2.298 . S
O484 C493 1.236 . S
O485 Dy480 2.395 . S
O485 C502 1.255 . S
O486 Dy480 2.379 . S
O486 C502 1.249 . S
O487 Dy481 2.275 . S
O487 C503 1.254 . S
O488 Dy480 2.339 . S
O488 C503 1.257 . S
O489 Dy481 2.307 . S
O489 C504 1.266 . S
O490 Dy480 2.298 . S
O490 C504 1.236 . S
O491 Dy481 2.395 . S
O491 C511 1.255 . S
O492 Dy481 2.379 . S
O492 C511 1.249 . S
C493 O483 1.266 . S
C493 O484 1.236 . S
O494 Dy480 2.275 . S
O494 C482 1.254 . S
O495 Dy481 2.339 . S
O495 C482 1.257 . S
C496 C499 1.344 . S
C496 C500 1.328 . S
C496 C502 1.516 . S
C497 C498 1.304 . S
C497 C501 1.323 . S
C498 C497 1.304 . S
C498 C499 1.371 . S
C498 H512 0.930 . S
C499 C496 1.344 . S
C499 C498 1.371 . S
C499 H513 0.931 . S
C500 C496 1.328 . S
C500 C501 1.433 . S
C500 H514 0.931 . S
C501 C497 1.323 . S
C501 C500 1.433 . S
C501 H515 0.933 . S
C502 Dy480 2.738 . S
C502 O485 1.255 . S
C502 O486 1.249 . S
C502 C496 1.516 . S
C503 O487 1.254 . S
C503 O488 1.257 . S
C504 O489 1.266 . S
C504 O490 1.236 . S
C505 C508 1.344 . S
C505 C509 1.328 . S
C505 C511 1.516 . S
C506 C507 1.304 . S
C506 C510 1.323 . S
C507 C506 1.304 . S
C507 C508 1.371 1_565 S
C507 H516 0.930 . S
C508 C505 1.344 . S
C508 C507 1.371 1_545 S
C508 H517 0.931 . S
C509 C505 1.328 . S
C509 C510 1.433 1_545 S
C509 H518 0.931 . S
C510 C506 1.323 . S
C510 C509 1.433 1_565 S
C510 H519 0.933 . S
C511 Dy481 2.738 . S
C511 O491 1.255 . S
C511 O492 1.249 . S
C511 C505 1.516 . S
H512 C498 0.930 . S
H513 C499 0.931 . S
H514 C500 0.931 . S
H515 C501 0.933 . S
H516 C507 0.930 . S
H517 C508 0.931 . S
H518 C509 0.931 . S
H519 C510 0.933 . S
Dy520 O523 2.307 . S
Dy520 O525 2.395 . S
Dy520 O526 2.379 . S
Dy520 O528 2.339 . S
Dy520 O530 2.298 . S
Dy520 O534 2.275 . S
Dy520 C542 2.738 . S
Dy521 O524 2.298 . S
Dy521 O527 2.275 . S
Dy521 O529 2.307 . S
Dy521 O531 2.395 . S
Dy521 O532 2.379 . S
Dy521 O535 2.339 . S
Dy521 C551 2.738 . S
C522 O534 1.254 . S
C522 O535 1.257 . S
O523 Dy520 2.307 . S
O523 C533 1.266 . S
O524 Dy521 2.298 . S
O524 C533 1.236 . S
O525 Dy520 2.395 . S
O525 C542 1.255 . S
O526 Dy520 2.379 . S
O526 C542 1.249 . S
O527 Dy521 2.275 . S
O527 C543 1.254 . S
O528 Dy520 2.339 . S
O528 C543 1.257 . S
O529 Dy521 2.307 . S
O529 C544 1.266 . S
O530 Dy520 2.298 . S
O530 C544 1.236 . S
O531 Dy521 2.395 . S
O531 C551 1.255 . S
O532 Dy521 2.379 . S
O532 C551 1.249 . S
C533 O523 1.266 . S
C533 O524 1.236 . S
O534 Dy520 2.275 . S
O534 C522 1.254 . S
O535 Dy521 2.339 . S
O535 C522 1.257 . S
C536 C539 1.344 . S
C536 C540 1.328 . S
C536 C542 1.516 . S
C537 C538 1.304 . S
C537 C541 1.323 . S
C538 C537 1.304 . S
C538 C539 1.371 . S
C538 H552 0.930 . S
C539 C536 1.344 . S
C539 C538 1.371 . S
C539 H553 0.931 . S
C540 C536 1.328 . S
C540 C541 1.433 . S
C540 H554 0.931 . S
C541 C537 1.323 . S
C541 C540 1.433 . S
C541 H555 0.933 . S
C542 Dy520 2.738 . S
C542 O525 1.255 . S
C542 O526 1.249 . S
C542 C536 1.516 . S
C543 O527 1.254 . S
C543 O528 1.257 . S
C544 O529 1.266 . S
C544 O530 1.236 . S
C545 C548 1.344 . S
C545 C549 1.328 . S
C545 C551 1.516 . S
C546 C547 1.304 . S
C546 C550 1.323 . S
C547 C546 1.304 . S
C547 C548 1.371 1_545 S
C547 H556 0.930 . S
C548 C545 1.344 . S
C548 C547 1.371 1_565 S
C548 H557 0.931 . S
C549 C545 1.328 . S
C549 C550 1.433 1_565 S
C549 H558 0.931 . S
C550 C546 1.323 . S
C550 C549 1.433 1_545 S
C550 H559 0.933 . S
C551 Dy521 2.738 . S
C551 O531 1.255 . S
C551 O532 1.249 . S
C551 C545 1.516 . S
H552 C538 0.930 . S
H553 C539 0.931 . S
H554 C540 0.931 . S
H555 C541 0.933 . S
H556 C547 0.930 . S
H557 C548 0.931 . S
H558 C549 0.931 . S
H559 C550 0.933 . S
Dy560 O563 2.307 . S
Dy560 O565 2.395 . S
Dy560 O566 2.379 . S
Dy560 O568 2.339 . S
Dy560 O570 2.298 . S
Dy560 O574 2.275 . S
Dy560 C582 2.738 . S
Dy561 O564 2.298 . S
Dy561 O567 2.275 . S
Dy561 O569 2.307 . S
Dy561 O571 2.395 . S
Dy561 O572 2.379 . S
Dy561 O575 2.339 . S
Dy561 C591 2.738 . S
C562 O574 1.254 . S
C562 O575 1.257 . S
O563 Dy560 2.307 . S
O563 C573 1.266 . S
O564 Dy561 2.298 . S
O564 C573 1.236 . S
O565 Dy560 2.395 . S
O565 C582 1.255 . S
O566 Dy560 2.379 . S
O566 C582 1.249 . S
O567 Dy561 2.275 . S
O567 C583 1.254 . S
O568 Dy560 2.339 . S
O568 C583 1.257 . S
O569 Dy561 2.307 . S
O569 C584 1.266 . S
O570 Dy560 2.298 . S
O570 C584 1.236 . S
O571 Dy561 2.395 . S
O571 C591 1.255 . S
O572 Dy561 2.379 . S
O572 C591 1.249 . S
C573 O563 1.266 . S
C573 O564 1.236 . S
O574 Dy560 2.275 . S
O574 C562 1.254 . S
O575 Dy561 2.339 . S
O575 C562 1.257 . S
C576 C579 1.344 . S
C576 C580 1.328 . S
C576 C582 1.516 . S
C577 C578 1.304 . S
C577 C581 1.323 . S
C578 C577 1.304 . S
C578 C579 1.371 . S
C578 H592 0.930 . S
C579 C576 1.344 . S
C579 C578 1.371 . S
C579 H593 0.931 . S
C580 C576 1.328 . S
C580 C581 1.433 . S
C580 H594 0.931 . S
C581 C577 1.323 . S
C581 C580 1.433 . S
C581 H595 0.933 . S
C582 Dy560 2.738 . S
C582 O565 1.255 . S
C582 O566 1.249 . S
C582 C576 1.516 . S
C583 O567 1.254 . S
C583 O568 1.257 . S
C584 O569 1.266 . S
C584 O570 1.236 . S
C585 C588 1.344 . S
C585 C589 1.328 . S
C585 C591 1.516 . S
C586 C587 1.304 . S
C586 C590 1.323 . S
C587 C586 1.304 . S
C587 C588 1.371 1_545 S
C587 H596 0.930 . S
C588 C585 1.344 . S
C588 C587 1.371 1_565 S
C588 H597 0.931 . S
C589 C585 1.328 . S
C589 C590 1.433 1_565 S
C589 H598 0.931 . S
C590 C586 1.323 . S
C590 C589 1.433 1_545 S
C590 H599 0.933 . S
C591 Dy561 2.738 . S
C591 O571 1.255 . S
C591 O572 1.249 . S
C591 C585 1.516 . S
H592 C578 0.930 . S
H593 C579 0.931 . S
H594 C580 0.931 . S
H595 C581 0.933 . S
H596 C587 0.930 . S
H597 C588 0.931 . S
H598 C589 0.931 . S
H599 C590 0.933 . S
Dy600 O603 2.307 . S
Dy600 O605 2.395 . S
Dy600 O606 2.379 . S
Dy600 O608 2.339 . S
Dy600 O610 2.298 . S
Dy600 O614 2.275 . S
Dy600 C622 2.738 . S
Dy601 O604 2.298 . S
Dy601 O607 2.275 . S
Dy601 O609 2.307 . S
Dy601 O611 2.395 . S
Dy601 O612 2.379 . S
Dy601 O615 2.339 . S
Dy601 C631 2.738 . S
C602 O614 1.254 . S
C602 O615 1.257 . S
O603 Dy600 2.307 . S
O603 C613 1.266 . S
O604 Dy601 2.298 . S
O604 C613 1.236 . S
O605 Dy600 2.395 . S
O605 C622 1.255 . S
O606 Dy600 2.379 . S
O606 C622 1.249 . S
O607 Dy601 2.275 . S
O607 C623 1.254 . S
O608 Dy600 2.339 . S
O608 C623 1.257 . S
O609 Dy601 2.307 . S
O609 C624 1.266 . S
O610 Dy600 2.298 . S
O610 C624 1.236 . S
O611 Dy601 2.395 . S
O611 C631 1.255 . S
O612 Dy601 2.379 . S
O612 C631 1.249 . S
C613 O603 1.266 . S
C613 O604 1.236 . S
O614 Dy600 2.275 . S
O614 C602 1.254 . S
O615 Dy601 2.339 . S
O615 C602 1.257 . S
C616 C619 1.344 . S
C616 C620 1.328 . S
C616 C622 1.516 . S
C617 C618 1.304 . S
C617 C621 1.323 . S
C618 C617 1.304 . S
C618 C619 1.371 . S
C618 H632 0.930 . S
C619 C616 1.344 . S
C619 C618 1.371 . S
C619 H633 0.931 . S
C620 C616 1.328 . S
C620 C621 1.433 . S
C620 H634 0.931 . S
C621 C617 1.323 . S
C621 C620 1.433 . S
C621 H635 0.933 . S
C622 Dy600 2.738 . S
C622 O605 1.255 . S
C622 O606 1.249 . S
C622 C616 1.516 . S
C623 O607 1.254 . S
C623 O608 1.257 . S
C624 O609 1.266 . S
C624 O610 1.236 . S
C625 C628 1.344 . S
C625 C629 1.328 . S
C625 C631 1.516 . S
C626 C627 1.304 . S
C626 C630 1.323 . S
C627 C626 1.304 . S
C627 C628 1.371 1_565 S
C627 H636 0.930 . S
C628 C625 1.344 . S
C628 C627 1.371 1_545 S
C628 H637 0.931 . S
C629 C625 1.328 . S
C629 C630 1.433 1_545 S
C629 H638 0.931 . S
C630 C626 1.323 . S
C630 C629 1.433 1_565 S
C630 H639 0.933 . S
C631 Dy601 2.738 . S
C631 O611 1.255 . S
C631 O612 1.249 . S
C631 C625 1.516 . S
H632 C618 0.930 . S
H633 C619 0.931 . S
H634 C620 0.931 . S
H635 C621 0.933 . S
H636 C627 0.930 . S
H637 C628 0.931 . S
H638 C629 0.931 . S
H639 C630 0.933 . S
C24 C384 2.785 . S
C64 C344 2.785 . S
C464 C104 2.785 . S
C144 C424 2.785 . S
C533 C173 2.785 . S
C493 C213 2.785 . S
C613 C253 2.785 . S
C293 C573 2.785 . S
C103 C23 2.938 1_565 S
C143 C63 2.938 1_545 S
C242 C162 2.938 1_545 S
C202 C282 2.938 1_545 S
C423 C343 2.938 . S
C463 C383 2.938 . S
C482 C562 2.938 . S
C522 C602 2.938 . S
C223 C2 1.502 1_556 S
C183 C42 1.502 1_556 S
C82 C303 1.502 . S
C263 C122 1.502 . S
C322 C543 1.502 1_554 S
C503 C362 1.502 1_556 S
C402 C623 1.502 . S
C583 C442 1.502 . S
C53 C13 1.678 1_665 S
C133 C93 1.678 1_645 S
C224 C184 1.678 1_445 S
C264 C304 1.678 1_645 S
C373 C333 1.678 . S
C453 C413 1.678 . S
C504 C544 1.678 . S
C584 C624 1.678 . S
C26 C17 2.353 . S
C66 C57 2.353 . S
C106 C97 2.353 . S
C137 C146 2.353 . S
C177 C186 2.353 . S
C226 C217 2.353 . S
C257 C266 2.353 . S
C297 C306 2.353 . S
C337 C346 2.353 . S
C386 C377 2.353 . S
C417 C426 2.353 . S
C457 C466 2.353 . S
C497 C506 2.353 . S
C537 C546 2.353 . S
C586 C577 2.353 . S
C617 C626 2.353 . S
