# Generated by pormake.
# Topology bcu-i, (5)-cn, num edge types: 1
# Building blocks:
#     Node 0, Type 0, BuildingBlock: BEQFEK_clean_sbu_0, # of connection points: 5
#     Node 1, Type 0, BuildingBlock: BEQFEK_clean_sbu_0, # of connection points: 5
#     Node 2, Type 0, BuildingBlock: BEQFEK_clean_sbu_0, # of connection points: 5
#     Node 3, Type 0, BuildingBlock: BEQFEK_clean_sbu_0, # of connection points: 5
#     Node 4, Type 0, BuildingBlock: BEQFEK_clean_sbu_0, # of connection points: 5
#     Node 5, Type 0, BuildingBlock: BEQFEK_clean_sbu_0, # of connection points: 5
#     Node 6, Type 0, BuildingBlock: BEQFEK_clean_sbu_0, # of connection points: 5
#     Node 7, Type 0, BuildingBlock: BEQFEK_clean_sbu_0, # of connection points: 5
#     Node 8, Type 0, BuildingBlock: BEQFEK_clean_sbu_0, # of connection points: 5
#     Node 9, Type 0, BuildingBlock: BEQFEK_clean_sbu_0, # of connection points: 5
#     Node 10, Type 0, BuildingBlock: BEQFEK_clean_sbu_0, # of connection points: 5
#     Node 11, Type 0, BuildingBlock: BEQFEK_clean_sbu_0, # of connection points: 5
#     Node 12, Type 0, BuildingBlock: BEQFEK_clean_sbu_0, # of connection points: 5
#     Node 13, Type 0, BuildingBlock: BEQFEK_clean_sbu_0, # of connection points: 5
#     Node 14, Type 0, BuildingBlock: BEQFEK_clean_sbu_0, # of connection points: 5
#     Node 15, Type 0, BuildingBlock: BEQFEK_clean_sbu_0, # of connection points: 5
#     Edge 16, Type (0, 0), BuildingBlock: MIFKUJ_clean_linker_0, # of connection points: 2
#     Edge 17, Type (0, 0), BuildingBlock: MIFKUJ_clean_linker_0, # of connection points: 2
#     Edge 18, Type (0, 0), BuildingBlock: MIFKUJ_clean_linker_0, # of connection points: 2
#     Edge 19, Type (0, 0), BuildingBlock: MIFKUJ_clean_linker_0, # of connection points: 2
#     Edge 20, Type (0, 0), BuildingBlock: MIFKUJ_clean_linker_0, # of connection points: 2
#     Edge 21, Type (0, 0), BuildingBlock: MIFKUJ_clean_linker_0, # of connection points: 2
#     Edge 22, Type (0, 0), BuildingBlock: MIFKUJ_clean_linker_0, # of connection points: 2
#     Edge 23, Type (0, 0), BuildingBlock: MIFKUJ_clean_linker_0, # of connection points: 2
#     Edge 24, Type (0, 0), BuildingBlock: MIFKUJ_clean_linker_0, # of connection points: 2
#     Edge 25, Type (0, 0), BuildingBlock: MIFKUJ_clean_linker_0, # of connection points: 2
#     Edge 26, Type (0, 0), BuildingBlock: MIFKUJ_clean_linker_0, # of connection points: 2
#     Edge 27, Type (0, 0), BuildingBlock: MIFKUJ_clean_linker_0, # of connection points: 2
#     Edge 28, Type (0, 0), BuildingBlock: MIFKUJ_clean_linker_0, # of connection points: 2
#     Edge 29, Type (0, 0), BuildingBlock: MIFKUJ_clean_linker_0, # of connection points: 2
#     Edge 30, Type (0, 0), BuildingBlock: MIFKUJ_clean_linker_0, # of connection points: 2
#     Edge 31, Type (0, 0), BuildingBlock: MIFKUJ_clean_linker_0, # of connection points: 2
#     Edge 32, Type (0, 0), BuildingBlock: MIFKUJ_clean_linker_0, # of connection points: 2
#     Edge 33, Type (0, 0), BuildingBlock: MIFKUJ_clean_linker_0, # of connection points: 2
#     Edge 34, Type (0, 0), BuildingBlock: MIFKUJ_clean_linker_0, # of connection points: 2
#     Edge 35, Type (0, 0), BuildingBlock: MIFKUJ_clean_linker_0, # of connection points: 2
#     Edge 36, Type (0, 0), BuildingBlock: MIFKUJ_clean_linker_0, # of connection points: 2
#     Edge 37, Type (0, 0), BuildingBlock: MIFKUJ_clean_linker_0, # of connection points: 2
#     Edge 38, Type (0, 0), BuildingBlock: MIFKUJ_clean_linker_0, # of connection points: 2
#     Edge 39, Type (0, 0), BuildingBlock: MIFKUJ_clean_linker_0, # of connection points: 2
#     Edge 40, Type (0, 0), BuildingBlock: MIFKUJ_clean_linker_0, # of connection points: 2
#     Edge 41, Type (0, 0), BuildingBlock: MIFKUJ_clean_linker_0, # of connection points: 2
#     Edge 42, Type (0, 0), BuildingBlock: MIFKUJ_clean_linker_0, # of connection points: 2
#     Edge 43, Type (0, 0), BuildingBlock: MIFKUJ_clean_linker_0, # of connection points: 2
#     Edge 44, Type (0, 0), BuildingBlock: MIFKUJ_clean_linker_0, # of connection points: 2
#     Edge 45, Type (0, 0), BuildingBlock: MIFKUJ_clean_linker_0, # of connection points: 2
#     Edge 46, Type (0, 0), BuildingBlock: MIFKUJ_clean_linker_0, # of connection points: 2
#     Edge 47, Type (0, 0), BuildingBlock: MIFKUJ_clean_linker_0, # of connection points: 2
#     Edge 48, Type (0, 0), BuildingBlock: MIFKUJ_clean_linker_0, # of connection points: 2
#     Edge 49, Type (0, 0), BuildingBlock: MIFKUJ_clean_linker_0, # of connection points: 2
#     Edge 50, Type (0, 0), BuildingBlock: MIFKUJ_clean_linker_0, # of connection points: 2
#     Edge 51, Type (0, 0), BuildingBlock: MIFKUJ_clean_linker_0, # of connection points: 2
#     Edge 52, Type (0, 0), BuildingBlock: MIFKUJ_clean_linker_0, # of connection points: 2
#     Edge 53, Type (0, 0), BuildingBlock: MIFKUJ_clean_linker_0, # of connection points: 2
#     Edge 54, Type (0, 0), BuildingBlock: MIFKUJ_clean_linker_0, # of connection points: 2
#     Edge 55, Type (0, 0), BuildingBlock: MIFKUJ_clean_linker_0, # of connection points: 2
# Relax obj value: 0.883
# Max RMSD: 0.189
# Mean RMSD: 0.189
data_MOF--net-bcu-i--node1-BEQFEK_clean_sbu_0--edge1-MIFKUJ_clean_linker_0
_symmetry_space_group_name_H-M    P1
_symmetry_Int_Tables_number       1
_symmetry_cell_setting            triclinic
loop_
_symmetry_equiv_pos_as_xyz
'x, y, z'
_cell_length_a     60.950976
_cell_length_b     60.942128
_cell_length_c     44.607142
_cell_angle_alpha  89.989422
_cell_angle_beta   90.036733
_cell_angle_gamma 89.989515
loop_
_atom_site_label
_atom_site_type_symbol
_atom_site_fract_x
_atom_site_fract_y
_atom_site_fract_z
_atom_type_partial_charge
Co0 Co 0.22387 0.11908 0.31872 0.0
Co1 Co 0.22404 0.07519 0.28221 0.0
C2 C 0.19731 0.11346 0.26267 0.0
O3 O 0.20448 0.12501 0.28425 0.0
O4 O 0.20315 0.0936 0.25928 0.0
C5 C 0.19956 0.14822 0.35411 0.0
O6 O 0.1836 0.13779 0.34034 0.0
C7 C 0.20606 0.03591 0.25428 0.0
C8 C 0.23559 0.01554 0.24722 0.0
C9 C 0.21303 0.01583 0.24301 0.0
N10 N 0.22366 0.04686 0.26449 0.0
N11 N 0.2413 0.03472 0.25998 0.0
C12 C 0.18302 0.044 0.25795 0.0
H13 H 0.18222 0.05677 0.27566 0.0
H14 H 0.17186 0.03028 0.26385 0.0
H15 H 0.17739 0.05138 0.23655 0.0
C16 C 0.21584 0.08805 0.36793 0.0
N17 N 0.21697 0.09244 0.33843 0.0
N18 N 0.21609 0.07393 0.3233 0.0
C19 C 0.21362 0.05716 0.34277 0.0
C20 C 0.21338 0.0656 0.37176 0.0
C21 C 0.22153 0.10432 0.39184 0.0
H22 H 0.23382 0.11621 0.38344 0.0
H23 H 0.2065 0.11333 0.39857 0.0
H24 H 0.22852 0.09603 0.41177 0.0
O25 O 0.25453 0.11733 0.30611 0.0
O26 O 0.25479 0.08627 0.27986 0.0
H27 H 0.22888 0.02837 0.32502 0.0
H28 H 0.20789 0.02281 0.35278 0.0
C29 C 0.21264 0.03353 0.33377 0.0
H30 H 0.20041 0.03143 0.31567 0.0
H31 H 0.25717 0.03941 0.26594 0.0
O32 O 0.21929 0.14355 0.34735 0.0
C33 C 0.26468 0.10287 0.29085 0.0
Co34 Co 0.89337 0.20984 0.31369 0.0
Co35 Co 0.93388 0.21326 0.2706 0.0
C36 C 0.89499 0.18511 0.25595 0.0
O37 O 0.88538 0.19095 0.27991 0.0
O38 O 0.914 0.19228 0.24935 0.0
C39 C 0.86523 0.18592 0.35187 0.0
O40 O 0.87389 0.16939 0.33711 0.0
C41 C 0.97384 0.19779 0.2402 0.0
C42 C 0.99094 0.22907 0.23131 0.0
C43 C 0.99324 0.20651 0.22868 0.0
N44 N 0.96113 0.21445 0.24966 0.0
N45 N 0.97131 0.2331 0.24389 0.0
C46 C 0.96711 0.17419 0.24194 0.0
H47 H 0.94906 0.17265 0.24196 0.0
H48 H 0.97324 0.16696 0.26317 0.0
H49 H 0.97389 0.16478 0.22275 0.0
C50 C 0.9283 0.19969 0.3572 0.0
N51 N 0.9215 0.20282 0.32881 0.0
N52 N 0.93874 0.20454 0.31115 0.0
C53 C 0.95709 0.20265 0.32796 0.0
C54 C 0.95099 0.19938 0.35757 0.0
C55 C 0.91342 0.19906 0.38391 0.0
H56 H 0.90202 0.21323 0.38326 0.0
H57 H 0.90368 0.18373 0.38323 0.0
H58 H 0.92265 0.19927 0.40533 0.0
O59 O 0.89321 0.24081 0.3018 0.0
O60 O 0.9216 0.24353 0.27076 0.0
H61 H 0.98001 0.22283 0.30423 0.0
H62 H 0.99178 0.20817 0.33561 0.0
C63 C 0.97982 0.20718 0.31689 0.0
H64 H 0.98496 0.19383 0.30157 0.0
H65 H 0.96512 0.24856 0.24929 0.0
O66 O 0.87098 0.20535 0.34517 0.0
C67 C 0.90554 0.25216 0.28476 0.0
Co68 Co 0.77204 0.88977 0.31394 0.0
Co69 Co 0.7724 0.93227 0.27417 0.0
C70 C 0.80172 0.89467 0.26053 0.0
O71 O 0.79347 0.88384 0.28208 0.0
O72 O 0.79563 0.9142 0.25487 0.0
C73 C 0.79555 0.86279 0.35314 0.0
O74 O 0.81154 0.87424 0.34109 0.0
C75 C 0.78967 0.97202 0.24606 0.0
C76 C 0.75943 0.99061 0.23595 0.0
C77 C 0.78212 0.99158 0.23372 0.0
N78 N 0.77226 0.96018 0.25502 0.0
N79 N 0.75423 0.97127 0.24867 0.0
C80 C 0.81291 0.9653 0.25189 0.0
H81 H 0.81363 0.95284 0.27001 0.0
H82 H 0.82301 0.97972 0.25827 0.0
H83 H 0.81988 0.95796 0.23122 0.0
C84 C 0.77711 0.92266 0.36159 0.0
N85 N 0.77678 0.91727 0.33238 0.0
N86 N 0.77765 0.93527 0.3161 0.0
C87 C 0.7792 0.95273 0.33464 0.0
C88 C 0.77905 0.94524 0.36411 0.0
C89 C 0.77163 0.90703 0.38637 0.0
H90 H 0.76043 0.89403 0.37821 0.0
H91 H 0.78693 0.89938 0.39488 0.0
H92 H 0.76339 0.91571 0.40507 0.0
O93 O 0.74235 0.88962 0.29767 0.0
O94 O 0.74257 0.91918 0.26835 0.0
H95 H 0.76451 0.98026 0.31271 0.0
H96 H 0.78277 0.9876 0.34317 0.0
C97 C 0.78006 0.97608 0.32431 0.0
H98 H 0.79365 0.97806 0.3081 0.0
H99 H 0.7384 0.9658 0.25346 0.0
O100 O 0.77604 0.8661 0.3441 0.0
C101 C 0.73272 0.90262 0.27957 0.0
Co102 Co 0.10254 0.7923 0.31342 0.0
Co103 Co 0.0648 0.7877 0.26585 0.0
C104 C 0.0989 0.82279 0.26124 0.0
O105 O 0.10848 0.81575 0.28463 0.0
O106 O 0.08146 0.81383 0.25147 0.0
C107 C 0.12338 0.81596 0.35944 0.0
O108 O 0.11179 0.8318 0.34723 0.0
C109 C 0.02421 0.80162 0.23749 0.0
C110 C 0.01246 0.77128 0.21565 0.0
C111 C 0.00689 0.79302 0.22096 0.0
N112 N 0.03912 0.78571 0.24177 0.0
N113 N 0.03222 0.7677 0.22826 0.0
C114 C 0.02577 0.82378 0.25185 0.0
H115 H 0.03823 0.82371 0.26999 0.0
H116 H 0.00963 0.8288 0.26109 0.0
H117 H 0.03082 0.83599 0.23475 0.0
C118 C 0.06486 0.79088 0.35458 0.0
N119 N 0.07308 0.79254 0.32668 0.0
N120 N 0.05708 0.79001 0.30709 0.0
C121 C 0.03816 0.7864 0.32207 0.0
C122 C 0.04258 0.78685 0.35252 0.0
C123 C 0.07825 0.79223 0.38273 0.0
H124 H 0.09251 0.78099 0.3812 0.0
H125 H 0.08423 0.80926 0.38547 0.0
H126 H 0.0687 0.78818 0.40307 0.0
O127 O 0.10837 0.7636 0.29504 0.0
O128 O 0.08193 0.76025 0.26086 0.0
H129 H 0.00557 0.77239 0.32445 0.0
H130 H 0.00902 0.79419 0.29769 0.0
C131 C 0.017 0.77962 0.30779 0.0
H132 H 0.02018 0.76746 0.28985 0.0
H133 H 0.04059 0.7528 0.22859 0.0
O134 O 0.12256 0.79689 0.34797 0.0
C135 C 0.09873 0.75273 0.27448 0.0
Co136 Co 0.21754 0.89347 0.6945 0.0
Co137 Co 0.22224 0.93296 0.7393 0.0
C138 C 0.19063 0.89581 0.74984 0.0
O139 O 0.19696 0.88584 0.72637 0.0
O140 O 0.19863 0.91434 0.75731 0.0
C141 C 0.1981 0.85974 0.65679 0.0
O142 O 0.18334 0.85787 0.67808 0.0
C143 C 0.20696 0.97389 0.76599 0.0
C144 C 0.23744 0.9877 0.785 0.0
C145 C 0.21534 0.9922 0.7807 0.0
N146 N 0.22336 0.95952 0.76171 0.0
N147 N 0.24148 0.96767 0.77355 0.0
C148 C 0.18438 0.97075 0.75347 0.0
H149 H 0.1842 0.95728 0.73674 0.0
H150 H 0.1784 0.98614 0.74295 0.0
H151 H 0.17303 0.96629 0.77192 0.0
C152 C 0.20921 0.92942 0.65242 0.0
N153 N 0.21229 0.9222 0.68057 0.0
N154 N 0.21597 0.93904 0.69834 0.0
C155 C 0.2162 0.95754 0.68167 0.0
C156 C 0.2119 0.95197 0.65207 0.0
C157 C 0.20444 0.91486 0.62616 0.0
H158 H 0.19155 0.90286 0.63233 0.0
H159 H 0.19868 0.9244 0.60648 0.0
H160 H 0.21953 0.90574 0.61998 0.0
O161 O 0.24802 0.89162 0.70869 0.0
O162 O 0.25158 0.91893 0.74136 0.0
H163 H 0.23042 0.98961 0.6744 0.0
H164 H 0.20935 0.98835 0.70248 0.0
C165 C 0.22359 0.9795 0.69285 0.0
H166 H 0.23623 0.97749 0.7105 0.0
H167 H 0.25672 0.95996 0.77283 0.0
O168 O 0.21405 0.87294 0.6603 0.0
C169 C 0.25957 0.90271 0.72705 0.0
Co170 Co 0.10813 0.22431 0.68931 0.0
Co171 Co 0.06797 0.22306 0.73291 0.0
C172 C 0.10809 0.19581 0.74374 0.0
O173 O 0.11752 0.20396 0.72092 0.0
O174 O 0.08866 0.20135 0.75098 0.0
C175 C 0.13718 0.20403 0.64884 0.0
O176 O 0.13062 0.18658 0.66363 0.0
C177 C 0.03043 0.2028 0.76199 0.0
C178 C 0.01145 0.23136 0.77809 0.0
C179 C 0.01129 0.20865 0.77676 0.0
N180 N 0.04128 0.22119 0.75472 0.0
N181 N 0.03001 0.23823 0.76466 0.0
C182 C 0.03919 0.18021 0.75633 0.0
H183 H 0.05161 0.17643 0.77376 0.0
H184 H 0.04757 0.17962 0.73426 0.0
H185 H 0.02624 0.1675 0.7575 0.0
C186 C 0.07372 0.21245 0.64552 0.0
N187 N 0.08032 0.21643 0.6738 0.0
N188 N 0.06311 0.21633 0.69168 0.0
C189 C 0.04496 0.21241 0.67512 0.0
C190 C 0.05124 0.20948 0.64551 0.0
C191 C 0.08817 0.21396 0.61843 0.0
H192 H 0.09933 0.22823 0.62045 0.0
H193 H 0.0981 0.19877 0.61663 0.0
H194 H 0.07846 0.21578 0.59755 0.0
O195 O 0.10671 0.25441 0.70435 0.0
O196 O 0.07873 0.25386 0.73624 0.0
H197 H 0.01956 0.22652 0.70218 0.0
H198 H 0.00972 0.21279 0.66878 0.0
C199 C 0.02203 0.21229 0.68709 0.0
H200 H 0.01939 0.19706 0.70016 0.0
H201 H 0.03478 0.25453 0.76181 0.0
O202 O 0.13016 0.22275 0.65686 0.0
C203 C 0.09412 0.26409 0.72287 0.0
Co204 Co 0.78394 0.10614 0.69073 0.0
Co205 Co 0.78082 0.06756 0.73692 0.0
C206 C 0.81082 0.10662 0.74579 0.0
O207 O 0.80461 0.1155 0.72146 0.0
O208 O 0.80305 0.08823 0.75429 0.0
C209 C 0.80259 0.13695 0.64898 0.0
O210 O 0.81993 0.1357 0.66641 0.0
C211 C 0.79921 0.02774 0.76223 0.0
C212 C 0.77158 0.014 0.78821 0.0
C213 C 0.79308 0.00995 0.77971 0.0
N214 N 0.78205 0.04145 0.76009 0.0
N215 N 0.76564 0.0333 0.77592 0.0
C216 C 0.82119 0.03222 0.74854 0.0
H217 H 0.82395 0.05015 0.74659 0.0
H218 H 0.8218 0.02519 0.72565 0.0
H219 H 0.83446 0.02467 0.76213 0.0
C220 C 0.79166 0.06983 0.64946 0.0
N221 N 0.79019 0.07744 0.67764 0.0
N222 N 0.78678 0.06091 0.69605 0.0
C223 C 0.78488 0.0423 0.6798 0.0
C224 C 0.78796 0.04744 0.64977 0.0
C225 C 0.79462 0.08401 0.62233 0.0
H226 H 0.80836 0.09556 0.62618 0.0
H227 H 0.79838 0.0741 0.60211 0.0
H228 H 0.77942 0.09358 0.61826 0.0
O229 O 0.75363 0.10677 0.70589 0.0
O230 O 0.75078 0.07961 0.73897 0.0
H231 H 0.76758 0.01159 0.67409 0.0
H232 H 0.78988 0.011 0.70036 0.0
C233 C 0.7761 0.0211 0.69184 0.0
H234 H 0.76454 0.02426 0.71053 0.0
H235 H 0.75026 0.04071 0.77786 0.0
O236 O 0.78541 0.12634 0.65603 0.0
C237 C 0.74237 0.09546 0.72434 0.0
Co238 Co 0.88551 0.77864 0.68282 0.0
Co239 Co 0.92699 0.78113 0.72451 0.0
C240 C 0.88565 0.80441 0.74019 0.0
O241 O 0.87626 0.79714 0.71679 0.0
O242 O 0.90544 0.79951 0.74604 0.0
C243 C 0.85801 0.80155 0.64447 0.0
O244 O 0.86855 0.81759 0.6579 0.0
C245 C 0.96447 0.80232 0.75417 0.0
C246 C 0.98669 0.7742 0.76162 0.0
C247 C 0.9852 0.79678 0.76469 0.0
N248 N 0.95447 0.78392 0.74463 0.0
N249 N 0.9677 0.76713 0.74964 0.0
C250 C 0.95416 0.82466 0.75331 0.0
H251 H 0.93665 0.82364 0.75956 0.0
H252 H 0.95504 0.83133 0.7302 0.0
H253 H 0.9625 0.83613 0.76892 0.0
C254 C 0.91842 0.78943 0.63734 0.0
N255 N 0.91239 0.78801 0.66628 0.0
N256 N 0.92989 0.78967 0.68347 0.0
C257 C 0.94762 0.79282 0.66584 0.0
C258 C 0.94088 0.79284 0.63605 0.0
C259 C 0.9039 0.78293 0.61162 0.0
H260 H 0.89224 0.77 0.61872 0.0
H261 H 0.89453 0.79748 0.60391 0.0
H262 H 0.9135 0.7765 0.59242 0.0
O263 O 0.88964 0.74788 0.69428 0.0
O264 O 0.91831 0.74963 0.72543 0.0
H265 H 0.97524 0.77811 0.68759 0.0
H266 H 0.98249 0.79783 0.65885 0.0
C267 C 0.97074 0.79398 0.67707 0.0
H268 H 0.97204 0.80699 0.69424 0.0
H269 H 0.96402 0.75092 0.74402 0.0
O270 O 0.86208 0.7819 0.65226 0.0
C271 C 0.90366 0.73876 0.71144 0.0
Co272 Co 0.73133 0.60535 0.81698 0.0
Co273 Co 0.72564 0.56886 0.76801 0.0
C274 C 0.70068 0.61108 0.76518 0.0
O275 O 0.70942 0.61799 0.78929 0.0
O276 O 0.70573 0.59248 0.75424 0.0
C277 C 0.72368 0.64282 0.85565 0.0
O278 O 0.71492 0.65205 0.83187 0.0
C279 C 0.70239 0.53537 0.73323 0.0
C280 C 0.7293 0.51239 0.72258 0.0
C281 C 0.70676 0.51503 0.72044 0.0
N282 N 0.72138 0.54387 0.74324 0.0
N283 N 0.73746 0.53032 0.73613 0.0
C284 C 0.68068 0.54677 0.73587 0.0
H285 H 0.68238 0.5641 0.72883 0.0
H286 H 0.67525 0.54667 0.7596 0.0
H287 H 0.66802 0.53896 0.72153 0.0
C288 C 0.71953 0.5687 0.85646 0.0
N289 N 0.7225 0.57704 0.82887 0.0
N290 N 0.71993 0.56144 0.80878 0.0
C291 C 0.71517 0.5425 0.82313 0.0
C292 C 0.71462 0.54658 0.85378 0.0
C293 C 0.72398 0.58117 0.8848 0.0
H294 H 0.74016 0.58939 0.88308 0.0
H295 H 0.71122 0.59398 0.88774 0.0
H296 H 0.72422 0.57047 0.90488 0.0
O297 O 0.76069 0.60355 0.79883 0.0
O298 O 0.75669 0.57778 0.76398 0.0
H299 H 0.72638 0.51652 0.79474 0.0
H300 H 0.70801 0.50763 0.8242 0.0
C301 C 0.7116 0.5209 0.80793 0.0
H302 H 0.69755 0.52226 0.79232 0.0
H303 H 0.75388 0.53282 0.74186 0.0
O304 O 0.73241 0.62398 0.85329 0.0
C305 C 0.76856 0.59155 0.77807 0.0
Co306 Co 0.39389 0.71467 0.80908 0.0
Co307 Co 0.43276 0.71586 0.76309 0.0
C308 C 0.39313 0.68639 0.75519 0.0
O309 O 0.38441 0.69328 0.77929 0.0
O310 O 0.41161 0.69372 0.74624 0.0
C311 C 0.35765 0.70177 0.84792 0.0
O312 O 0.35187 0.68825 0.8264 0.0
C313 C 0.47209 0.69653 0.73682 0.0
C314 C 0.48878 0.72547 0.71761 0.0
C315 C 0.49129 0.70315 0.72263 0.0
N316 N 0.45921 0.71421 0.74059 0.0
N317 N 0.4691 0.7314 0.72863 0.0
C318 C 0.46568 0.67384 0.7463 0.0
H319 H 0.44769 0.67166 0.74434 0.0
H320 H 0.47014 0.6713 0.77015 0.0
H321 H 0.47412 0.6613 0.73243 0.0
C322 C 0.42967 0.7052 0.85066 0.0
N323 N 0.42232 0.70804 0.82255 0.0
N324 N 0.43911 0.71002 0.80422 0.0
C325 C 0.45781 0.70931 0.82054 0.0
C326 C 0.4523 0.70608 0.85039 0.0
C327 C 0.41526 0.70338 0.87771 0.0
H328 H 0.40197 0.69138 0.87334 0.0
H329 H 0.42464 0.69799 0.89773 0.0
H330 H 0.40777 0.71961 0.8824 0.0
O331 O 0.3936 0.74444 0.79251 0.0
O332 O 0.42102 0.74619 0.75979 0.0
H333 H 0.49111 0.72056 0.82706 0.0
H334 H 0.48757 0.70004 0.79861 0.0
C335 C 0.48013 0.71486 0.80878 0.0
H336 H 0.4789 0.72779 0.79139 0.0
H337 H 0.46278 0.74729 0.72898 0.0
O338 O 0.37398 0.71441 0.84408 0.0
C339 C 0.40508 0.75512 0.77367 0.0
Co340 Co 0.27808 0.3891 0.81226 0.0
Co341 Co 0.27711 0.42872 0.7675 0.0
C342 C 0.30396 0.3885 0.75557 0.0
O343 O 0.29691 0.37948 0.77932 0.0
O344 O 0.29805 0.40781 0.74821 0.0
C345 C 0.3014 0.36257 0.85202 0.0
O346 O 0.31763 0.3722 0.83781 0.0
C347 C 0.29616 0.46634 0.73688 0.0
C348 C 0.26701 0.48527 0.72277 0.0
C349 C 0.28975 0.48563 0.72288 0.0
N350 N 0.27809 0.45527 0.74503 0.0
N351 N 0.26069 0.4665 0.73619 0.0
C352 C 0.31897 0.4578 0.74141 0.0
H353 H 0.32098 0.4427 0.72788 0.0
H354 H 0.32139 0.45318 0.76524 0.0
H355 H 0.33167 0.46971 0.73429 0.0
C356 C 0.29074 0.42441 0.85428 0.0
N357 N 0.28635 0.41723 0.82638 0.0
N358 N 0.28547 0.43416 0.80802 0.0
C359 C 0.28904 0.4527 0.82391 0.0
C360 C 0.29295 0.44698 0.85351 0.0
C361 C 0.28972 0.4105 0.88195 0.0
H362 H 0.2761 0.39853 0.88019 0.0
H363 H 0.30542 0.40151 0.88449 0.0
H364 H 0.28723 0.42056 0.90237 0.0
O365 O 0.24734 0.39009 0.79963 0.0
O366 O 0.24627 0.41777 0.76716 0.0
H367 H 0.27213 0.47675 0.79749 0.0
H368 H 0.28616 0.48785 0.82989 0.0
C369 C 0.28701 0.47548 0.81169 0.0
H370 H 0.30153 0.47921 0.79768 0.0
H371 H 0.24452 0.46163 0.74 0.0
O372 O 0.28182 0.36706 0.84444 0.0
C373 C 0.23679 0.40244 0.78167 0.0
Co374 Co 0.60711 0.27801 0.81267 0.0
Co375 Co 0.5682 0.27883 0.76613 0.0
C376 C 0.60518 0.31022 0.76134 0.0
O377 O 0.61426 0.30166 0.78419 0.0
O378 O 0.58691 0.30319 0.75146 0.0
C379 C 0.62582 0.30038 0.86072 0.0
O380 O 0.61149 0.3148 0.8509 0.0
C381 C 0.52981 0.29529 0.73402 0.0
C382 C 0.51094 0.26493 0.726 0.0
C383 C 0.5099 0.28755 0.72324 0.0
N384 N 0.54174 0.27811 0.74347 0.0
N385 N 0.5306 0.25995 0.73796 0.0
C386 C 0.53776 0.31853 0.73506 0.0
H387 H 0.553 0.31976 0.72164 0.0
H388 H 0.54194 0.32311 0.75844 0.0
H389 H 0.52561 0.33019 0.72563 0.0
C390 C 0.56969 0.27972 0.8546 0.0
N391 N 0.57786 0.28028 0.82662 0.0
N392 N 0.56158 0.28251 0.80743 0.0
C393 C 0.5426 0.28443 0.82287 0.0
C394 C 0.54731 0.28296 0.85318 0.0
C395 C 0.58224 0.27279 0.88187 0.0
H396 H 0.59711 0.2634 0.8756 0.0
H397 H 0.58689 0.28749 0.8949 0.0
H398 H 0.57179 0.26244 0.89657 0.0
O399 O 0.61047 0.2493 0.79356 0.0
O400 O 0.58257 0.24974 0.76121 0.0
H401 H 0.51629 0.27299 0.79529 0.0
H402 H 0.50755 0.29006 0.82614 0.0
C403 C 0.52047 0.28757 0.809 0.0
H404 H 0.52082 0.30212 0.79418 0.0
H405 H 0.53596 0.24425 0.74376 0.0
O406 O 0.62761 0.28212 0.84712 0.0
C407 C 0.59884 0.24008 0.77341 0.0
Co408 Co 0.72079 0.38054 0.1886 0.0
Co409 Co 0.72235 0.42473 0.22477 0.0
C410 C 0.69135 0.38811 0.24052 0.0
O411 O 0.69883 0.37582 0.21998 0.0
O412 O 0.69871 0.40741 0.24454 0.0
C413 C 0.70155 0.34429 0.15698 0.0
O414 O 0.68605 0.34626 0.17724 0.0
C415 C 0.70313 0.4663 0.24325 0.0
C416 C 0.72982 0.48174 0.26931 0.0
C417 C 0.70829 0.48466 0.26016 0.0
N418 N 0.72082 0.45317 0.24228 0.0
N419 N 0.73675 0.46248 0.25787 0.0
C420 C 0.6812 0.46031 0.23046 0.0
H421 H 0.68095 0.44293 0.22311 0.0
H422 H 0.67758 0.47076 0.21075 0.0
H423 H 0.66816 0.46322 0.24736 0.0
C424 C 0.71427 0.41128 0.13857 0.0
N425 N 0.71599 0.40733 0.16815 0.0
N426 N 0.71773 0.42607 0.18261 0.0
C427 C 0.71766 0.44261 0.16245 0.0
C428 C 0.71537 0.43374 0.1339 0.0
C429 C 0.71215 0.3937 0.11531 0.0
H430 H 0.72758 0.38407 0.11438 0.0
H431 H 0.6986 0.3825 0.12163 0.0
H432 H 0.70859 0.40046 0.09278 0.0
O433 O 0.75041 0.38113 0.20585 0.0
O434 O 0.75195 0.41207 0.23225 0.0
H435 H 0.73394 0.46693 0.1894 0.0
H436 H 0.73054 0.47445 0.15048 0.0
C437 C 0.72278 0.46602 0.16982 0.0
H438 H 0.70735 0.47476 0.17529 0.0
H439 H 0.7522 0.45552 0.26115 0.0
O440 O 0.71856 0.3563 0.15898 0.0
C441 C 0.76084 0.39452 0.22253 0.0
Co442 Co 0.60383 0.71171 0.18285 0.0
Co443 Co 0.56472 0.71543 0.228 0.0
C444 C 0.60211 0.68492 0.23909 0.0
O445 O 0.61126 0.69122 0.21502 0.0
O446 O 0.58372 0.69276 0.24728 0.0
C447 C 0.6267 0.68697 0.14007 0.0
O448 O 0.61369 0.67167 0.15078 0.0
C449 C 0.52638 0.70027 0.26102 0.0
C450 C 0.50961 0.73133 0.27237 0.0
C451 C 0.5078 0.70872 0.27488 0.0
N452 N 0.53849 0.7171 0.25087 0.0
N453 N 0.52858 0.73564 0.2581 0.0
C454 C 0.53159 0.67671 0.25464 0.0
H455 H 0.54356 0.67539 0.23599 0.0
H456 H 0.51646 0.6675 0.24884 0.0
H457 H 0.53894 0.66916 0.27493 0.0
C458 C 0.56721 0.70416 0.14057 0.0
N459 N 0.57495 0.70687 0.16857 0.0
N460 N 0.55832 0.70794 0.18739 0.0
C461 C 0.53944 0.70569 0.17177 0.0
C462 C 0.5446 0.70282 0.14175 0.0
C463 C 0.5807 0.70622 0.11264 0.0
H464 H 0.59482 0.71731 0.11642 0.0
H465 H 0.58671 0.68976 0.10605 0.0
H466 H 0.57078 0.71279 0.09379 0.0
O467 O 0.60624 0.74207 0.19654 0.0
O468 O 0.57839 0.74517 0.22846 0.0
H469 H 0.51569 0.72262 0.19853 0.0
H470 H 0.50407 0.70755 0.16736 0.0
C471 C 0.51694 0.70744 0.18495 0.0
H472 H 0.51398 0.6932 0.19984 0.0
H473 H 0.53443 0.7512 0.25249 0.0
O474 O 0.62557 0.70626 0.15074 0.0
C475 C 0.59468 0.75342 0.21454 0.0
Co476 Co 0.28742 0.59848 0.1823 0.0
Co477 Co 0.27997 0.56172 0.23032 0.0
C478 C 0.31382 0.59727 0.23828 0.0
O479 O 0.30852 0.60629 0.2136 0.0
O480 O 0.30441 0.57983 0.24744 0.0
C481 C 0.30503 0.63314 0.14422 0.0
O482 O 0.31684 0.63904 0.1675 0.0
C483 C 0.29217 0.52257 0.26374 0.0
C484 C 0.26007 0.51001 0.27909 0.0
C485 C 0.28235 0.50539 0.27918 0.0
N486 N 0.27644 0.53659 0.25502 0.0
N487 N 0.25732 0.52921 0.26463 0.0
C488 C 0.3157 0.52462 0.25447 0.0
H489 H 0.31738 0.5364 0.23563 0.0
H490 H 0.32238 0.50841 0.24776 0.0
H491 H 0.32545 0.53081 0.27369 0.0
C492 C 0.29457 0.56026 0.14388 0.0
N493 N 0.29084 0.56896 0.17105 0.0
N494 N 0.2866 0.55315 0.19029 0.0
C495 C 0.28694 0.53378 0.17553 0.0
C496 C 0.29229 0.53777 0.14581 0.0
C497 C 0.29828 0.5734 0.11598 0.0
H498 H 0.28331 0.58306 0.11091 0.0
H499 H 0.31207 0.58498 0.11957 0.0
H500 H 0.30207 0.56274 0.09653 0.0
O501 O 0.25738 0.60351 0.1962 0.0
O502 O 0.25169 0.57791 0.23073 0.0
H503 H 0.26632 0.51435 0.20406 0.0
H504 H 0.27625 0.50013 0.17105 0.0
C505 C 0.2805 0.51218 0.18879 0.0
H506 H 0.29445 0.50554 0.20191 0.0
H507 H 0.24233 0.53686 0.26041 0.0
O508 O 0.29182 0.61712 0.14655 0.0
C509 C 0.24504 0.59421 0.21536 0.0
Co510 Co 0.38056 0.27425 0.18629 0.0
Co511 Co 0.42449 0.27822 0.22283 0.0
C512 C 0.38548 0.30469 0.23941 0.0
O513 O 0.37444 0.29585 0.2184 0.0
O514 O 0.40544 0.29952 0.24403 0.0
C515 C 0.35231 0.29576 0.14728 0.0
O516 O 0.36196 0.31238 0.16062 0.0
C517 C 0.46443 0.29568 0.25173 0.0
C518 C 0.48773 0.26852 0.2438 0.0
C519 C 0.48626 0.28959 0.25528 0.0
N520 N 0.45372 0.27917 0.2381 0.0
N521 N 0.46767 0.26285 0.2339 0.0
C522 C 0.45352 0.31633 0.26207 0.0
H523 H 0.43843 0.31204 0.27459 0.0
H524 H 0.4487 0.3263 0.24232 0.0
H525 H 0.46424 0.32606 0.27712 0.0
C526 C 0.41117 0.28189 0.13649 0.0
N527 N 0.40682 0.28087 0.166 0.0
N528 N 0.4249 0.28471 0.1812 0.0
C529 C 0.44111 0.28963 0.16175 0.0
C530 C 0.43293 0.28792 0.13271 0.0
C531 C 0.39594 0.27361 0.11263 0.0
H532 H 0.38464 0.2611 0.1219 0.0
H533 H 0.38627 0.2875 0.10354 0.0
H534 H 0.40522 0.26606 0.09388 0.0
O535 O 0.38316 0.24463 0.20238 0.0
O536 O 0.41423 0.24732 0.22832 0.0
H537 H 0.47349 0.28134 0.17621 0.0
H538 H 0.47216 0.30543 0.15271 0.0
C539 C 0.46379 0.29624 0.17087 0.0
H540 H 0.46306 0.30673 0.19111 0.0
H541 H 0.46364 0.24812 0.22334 0.0
O542 O 0.35651 0.27646 0.15647 0.0
C543 C 0.39801 0.2361 0.21875 0.0
H544 H 0.22183 0.97256 0.24985 0.0
H545 H 0.19904 0.94146 0.23559 0.0
H546 H 0.15143 0.98548 0.19672 0.0
H547 H 0.17453 0.0168 0.21031 0.0
H548 H 0.13272 0.95647 0.23544 0.0
H549 H 0.17895 0.95182 0.15092 0.0
H550 H 0.21364 0.95198 0.12254 0.0
H551 H 0.23525 0.89468 0.17017 0.0
H552 H 0.20085 0.89435 0.19918 0.0
H553 H 0.07822 0.85221 0.22398 0.0
H554 H 0.09375 0.88637 0.20365 0.0
H555 H 0.15622 0.87062 0.24382 0.0
H556 H 0.14098 0.83686 0.26404 0.0
H557 H 0.1607 0.88865 0.18723 0.0
H558 H 0.12021 0.90201 0.2809 0.0
H559 H 0.08647 0.90215 0.31143 0.0
H560 H 0.05475 0.94341 0.24648 0.0
H561 H 0.08827 0.94328 0.2154 0.0
C562 C 0.20668 0.97566 0.23787 0.0
C563 C 0.19971 0.99719 0.23199 0.0
C564 C 0.1937 0.95785 0.2296 0.0
C565 C 0.17357 0.96116 0.21496 0.0
C566 C 0.16687 0.9826 0.20811 0.0
C567 C 0.17996 0.00048 0.21627 0.0
C568 C 0.15894 0.94218 0.20955 0.0
C569 C 0.13851 0.94185 0.22403 0.0
C570 C 0.16654 0.9231 0.19478 0.0
C571 C 0.18728 0.92309 0.17729 0.0
C572 C 0.19114 0.93932 0.15548 0.0
C573 C 0.21076 0.93943 0.13926 0.0
C574 C 0.22664 0.92335 0.14455 0.0
C575 C 0.22292 0.90711 0.16606 0.0
C576 C 0.20334 0.90692 0.18236 0.0
C577 C 0.09535 0.85592 0.22796 0.0
C578 C 0.10834 0.84203 0.24585 0.0
C579 C 0.10417 0.87539 0.21639 0.0
C580 C 0.1261 0.881 0.22236 0.0
C581 C 0.1393 0.86654 0.23884 0.0
C582 C 0.1305 0.84733 0.2506 0.0
C583 C 0.13516 0.90274 0.2144 0.0
C584 C 0.15453 0.90357 0.19747 0.0
C585 C 0.12665 0.92227 0.22697 0.0
C586 C 0.10659 0.92239 0.24567 0.0
C587 C 0.10597 0.91096 0.27304 0.0
C588 C 0.08691 0.91106 0.29046 0.0
C589 C 0.06845 0.92271 0.28085 0.0
C590 C 0.06904 0.93434 0.25385 0.0
C591 C 0.08806 0.93426 0.23633 0.0
H592 H 0.05371 0.92278 0.29436 0.0
H593 H 0.24182 0.92348 0.13198 0.0
H594 H 0.16144 0.09243 0.24093 0.0
H595 H 0.12872 0.10943 0.21985 0.0
H596 H 0.16143 0.17234 0.21956 0.0
H597 H 0.19363 0.15548 0.2428 0.0
H598 H 0.12615 0.17772 0.24506 0.0
H599 H 0.14241 0.14383 0.15252 0.0
H600 H 0.15314 0.11455 0.11734 0.0
H601 H 0.09579 0.07759 0.1412 0.0
H602 H 0.08485 0.10648 0.17686 0.0
H603 H 0.02474 0.2227 0.19162 0.0
H604 H 0.06125 0.20747 0.18216 0.0
H605 H 0.04479 0.15019 0.234 0.0
H606 H 0.00927 0.16575 0.24556 0.0
H607 H 0.07326 0.14659 0.17193 0.0
H608 H 0.06644 0.17837 0.27501 0.0
H609 H 0.05579 0.20921 0.30778 0.0
H610 H 0.09725 0.25262 0.25737 0.0
H611 H 0.10785 0.22203 0.22405 0.0
C612 C 0.16182 0.10977 0.23556 0.0
C613 C 0.17993 0.12271 0.24359 0.0
C614 C 0.14313 0.11951 0.22327 0.0
C615 C 0.14252 0.14224 0.21783 0.0
C616 C 0.16137 0.15482 0.22369 0.0
C617 C 0.1798 0.1452 0.23685 0.0
C618 C 0.12137 0.15323 0.21054 0.0
C619 C 0.11499 0.17116 0.22836 0.0
C620 C 0.10644 0.14476 0.18903 0.0
C621 C 0.11287 0.12732 0.16751 0.0
C622 C 0.13215 0.1294 0.15043 0.0
C623 C 0.13826 0.11287 0.13037 0.0
C624 C 0.12517 0.09421 0.12706 0.0
C625 C 0.10591 0.09206 0.14377 0.0
C626 C 0.09972 0.10853 0.16387 0.0
C627 C 0.0287 0.20665 0.20056 0.0
C628 C 0.01366 0.19533 0.21888 0.0
C629 C 0.04949 0.19793 0.19487 0.0
C630 C 0.05544 0.1776 0.20701 0.0
C631 C 0.04018 0.16568 0.22385 0.0
C632 C 0.01963 0.17461 0.23019 0.0
C633 C 0.07852 0.17042 0.2067 0.0
C634 C 0.085 0.15329 0.18775 0.0
C635 C 0.0938 0.1798 0.22665 0.0
C636 C 0.08772 0.19804 0.24691 0.0
C637 C 0.07313 0.19454 0.27081 0.0
C638 C 0.06713 0.21195 0.28949 0.0
C639 C 0.07579 0.23288 0.28461 0.0
C640 C 0.09052 0.23641 0.26109 0.0
C641 C 0.09653 0.21905 0.24231 0.0
H642 H 0.07113 0.24634 0.29909 0.0
H643 H 0.12994 0.08143 0.11153 0.0
H644 H 0.77074 0.03438 0.23914 0.0
H645 H 0.79232 0.06661 0.22591 0.0
H646 H 0.84365 0.02493 0.19141 0.0
H647 H 0.82186 0.9925 0.2041 0.0
H648 H 0.85946 0.05491 0.2302 0.0
H649 H 0.81486 0.05686 0.14346 0.0
H650 H 0.78075 0.05527 0.11382 0.0
H651 H 0.75648 0.11243 0.15923 0.0
H652 H 0.79029 0.1142 0.18949 0.0
H653 H 0.91453 0.15646 0.21669 0.0
H654 H 0.89788 0.12334 0.19526 0.0
H655 H 0.8353 0.14185 0.23265 0.0
H656 H 0.85169 0.17477 0.25394 0.0
H657 H 0.83073 0.1209 0.17811 0.0
H658 H 0.86978 0.11122 0.2732 0.0
H659 H 0.90291 0.11293 0.30493 0.0
H660 H 0.93667 0.06995 0.2442 0.0
H661 H 0.90379 0.06824 0.21189 0.0
C662 C 0.78648 0.03204 0.22835 0.0
C663 C 0.79484 0.01086 0.22344 0.0
C664 C 0.79877 0.0505 0.22064 0.0
C665 C 0.81956 0.04819 0.20751 0.0
C666 C 0.82767 0.02707 0.20163 0.0
C667 C 0.81532 0.00855 0.20927 0.0
C668 C 0.83341 0.06787 0.20269 0.0
C669 C 0.85349 0.06911 0.21799 0.0
C670 C 0.82552 0.08649 0.18707 0.0
C671 C 0.80513 0.08561 0.16884 0.0
C672 C 0.8022 0.06902 0.14728 0.0
C673 C 0.78292 0.06809 0.13034 0.0
C674 C 0.76645 0.08373 0.13466 0.0
C675 C 0.76926 0.10034 0.1559 0.0
C676 C 0.7885 0.10134 0.17291 0.0
C677 C 0.8971 0.15377 0.21957 0.0
C678 C 0.88448 0.16799 0.23742 0.0
C679 C 0.88763 0.13484 0.20736 0.0
C680 C 0.86544 0.13002 0.21275 0.0
C681 C 0.85245 0.14524 0.22824 0.0
C682 C 0.86189 0.16399 0.24058 0.0
C683 C 0.85625 0.10801 0.20644 0.0
C684 C 0.83704 0.10638 0.18925 0.0
C685 C 0.86484 0.08902 0.22043 0.0
C686 C 0.88448 0.08983 0.23997 0.0
C687 C 0.88433 0.10226 0.26653 0.0
C688 C 0.90304 0.10322 0.28462 0.0
C689 C 0.92191 0.09161 0.27653 0.0
C690 C 0.92207 0.07897 0.25039 0.0
C691 C 0.90341 0.078 0.23218 0.0
H692 H 0.93639 0.09237 0.29055 0.0
H693 H 0.75153 0.08298 0.12153 0.0
H694 H 0.80793 0.85145 0.24903 0.0
H695 H 0.84157 0.83403 0.23136 0.0
H696 H 0.87109 0.89768 0.21853 0.0
H697 H 0.83702 0.9153 0.23527 0.0
H698 H 0.88594 0.86762 0.17694 0.0
H699 H 0.87774 0.87182 0.28424 0.0
H700 H 0.85841 0.86648 0.33226 0.0
H701 H 0.85696 0.7969 0.31731 0.0
H702 H 0.87609 0.80185 0.26903 0.0
H703 H 0.99742 0.83576 0.20568 0.0
H704 H 0.9611 0.85271 0.20301 0.0
H705 H 0.93105 0.78958 0.21819 0.0
H706 H 0.96729 0.77273 0.22204 0.0
H707 H 0.91623 0.81957 0.25673 0.0
H708 H 0.92713 0.81549 0.15042 0.0
H709 H 0.94674 0.82139 0.10278 0.0
H710 H 0.94404 0.89111 0.1162 0.0
H711 H 0.92467 0.88562 0.16416 0.0
C712 C 0.82139 0.86174 0.24169 0.0
C713 C 0.82005 0.88469 0.24391 0.0
C714 C 0.84059 0.85178 0.23165 0.0
C715 C 0.85899 0.86456 0.22443 0.0
C716 C 0.8571 0.88753 0.22418 0.0
C717 C 0.83766 0.89757 0.23375 0.0
C718 C 0.88069 0.85395 0.22087 0.0
C719 C 0.89271 0.85725 0.19443 0.0
C720 C 0.88936 0.84026 0.24363 0.0
C721 C 0.87817 0.83723 0.27291 0.0
C722 C 0.87319 0.8554 0.29113 0.0
C723 C 0.86228 0.85244 0.31839 0.0
C724 C 0.85639 0.83137 0.32778 0.0
C725 C 0.8615 0.81321 0.30998 0.0
C726 C 0.8724 0.81608 0.28269 0.0
C727 C 0.98309 0.82552 0.2086 0.0
C728 C 0.98521 0.80304 0.21499 0.0
C729 C 0.96233 0.83517 0.20657 0.0
C730 C 0.94337 0.82241 0.21047 0.0
C731 C 0.94547 0.79974 0.21522 0.0
C732 C 0.96619 0.79013 0.2173 0.0
C733 C 0.92148 0.83289 0.21256 0.0
C734 C 0.90947 0.82974 0.23901 0.0
C735 C 0.913 0.84678 0.18989 0.0
C736 C 0.92462 0.85013 0.16104 0.0
C737 C 0.93088 0.83208 0.14335 0.0
C738 C 0.94192 0.83535 0.11626 0.0
C739 C 0.94669 0.85661 0.10651 0.0
C740 C 0.94036 0.87464 0.1238 0.0
C741 C 0.92933 0.87146 0.15092 0.0
H742 H 0.95523 0.8591 0.08552 0.0
H743 H 0.84793 0.8291 0.34886 0.0
H744 H 0.15197 0.19035 0.75117 0.0
H745 H 0.17079 0.15706 0.76755 0.0
H746 H 0.10841 0.12666 0.78658 0.0
H747 H 0.08951 0.16034 0.7713 0.0
H748 H 0.13947 0.11224 0.82513 0.0
H749 H 0.13266 0.12031 0.71796 0.0
H750 H 0.13682 0.13919 0.66936 0.0
H751 H 0.20669 0.14104 0.68137 0.0
H752 H 0.20293 0.12235 0.73017 0.0
H753 H 0.17251 0.00097 0.79686 0.0
H754 H 0.15479 0.03693 0.79905 0.0
H755 H 0.21684 0.06815 0.78053 0.0
H756 H 0.23443 0.03229 0.77704 0.0
H757 H 0.18578 0.08225 0.74337 0.0
H758 H 0.19244 0.07165 0.84964 0.0
H759 H 0.18778 0.05197 0.89751 0.0
H760 H 0.11779 0.05376 0.88668 0.0
H761 H 0.12204 0.0732 0.83852 0.0
C762 C 0.1423 0.17677 0.75962 0.0
C763 C 0.11929 0.1778 0.75967 0.0
C764 C 0.15306 0.15774 0.76885 0.0
C765 C 0.14096 0.13917 0.77743 0.0
C766 C 0.11805 0.14075 0.77984 0.0
C767 C 0.10726 0.16001 0.77114 0.0
C768 C 0.15203 0.11762 0.78062 0.0
C769 C 0.14946 0.10556 0.80721 0.0
C770 C 0.16522 0.109 0.75729 0.0
C771 C 0.1675 0.12011 0.72783 0.0
C772 C 0.1489 0.12487 0.71031 0.0
C773 C 0.15118 0.13552 0.68272 0.0
C774 C 0.172 0.14138 0.67234 0.0
C775 C 0.19058 0.13652 0.68947 0.0
C776 C 0.18838 0.12588 0.71706 0.0
C777 C 0.18234 0.01546 0.79298 0.0
C778 C 0.20474 0.01374 0.78585 0.0
C779 C 0.17226 0.03604 0.79477 0.0
C780 C 0.18449 0.05523 0.78991 0.0
C781 C 0.20707 0.05355 0.78424 0.0
C782 C 0.21711 0.03303 0.78237 0.0
C783 C 0.17357 0.07694 0.78809 0.0
C784 C 0.17598 0.08896 0.7615 0.0
C785 C 0.16017 0.08534 0.81133 0.0
C786 C 0.15758 0.07371 0.84032 0.0
C787 C 0.17606 0.06769 0.85734 0.0
C788 C 0.17349 0.05661 0.88455 0.0
C789 C 0.15251 0.05157 0.89509 0.0
C790 C 0.13404 0.05766 0.87847 0.0
C791 C 0.13652 0.06873 0.85123 0.0
H792 H 0.15055 0.04299 0.91617 0.0
H793 H 0.17378 0.14961 0.651 0.0
H794 H 0.82857 0.14688 0.73577 0.0
H795 H 0.86177 0.16198 0.7574 0.0
H796 H 0.8669 0.10624 0.81671 0.0
H797 H 0.8337 0.09049 0.79428 0.0
H798 H 0.87741 0.17503 0.8088 0.0
H799 H 0.92143 0.09313 0.8217 0.0
H800 H 0.91857 0.0547 0.80455 0.0
H801 H 0.88887 0.07624 0.72231 0.0
H802 H 0.8918 0.11477 0.73888 0.0
H803 H 0.98859 0.20798 0.82932 0.0
H804 H 0.95477 0.18748 0.8401 0.0
H805 H 0.95719 0.15896 0.75157 0.0
H806 H 0.99085 0.17909 0.74106 0.0
H807 H 0.94332 0.12928 0.79003 0.0
H808 H 0.92712 0.2058 0.76743 0.0
H809 H 0.92932 0.24574 0.77599 0.0
H810 H 0.90262 0.23739 0.86434 0.0
H811 H 0.90052 0.19734 0.85637 0.0
C812 C 0.83651 0.13788 0.7537 0.0
C813 C 0.8287 0.11725 0.76289 0.0
C814 C 0.85545 0.14667 0.76627 0.0
C815 C 0.86702 0.13512 0.7884 0.0
C816 C 0.85838 0.11529 0.79935 0.0
C817 C 0.83939 0.10634 0.78657 0.0
C818 C 0.88922 0.14288 0.79687 0.0
C819 C 0.89184 0.1649 0.80535 0.0
C820 C 0.90807 0.12975 0.79212 0.0
C821 C 0.90658 0.10673 0.7817 0.0
C822 C 0.91434 0.08962 0.79995 0.0
C823 C 0.91271 0.06785 0.79033 0.0
C824 C 0.90346 0.06303 0.76241 0.0
C825 C 0.89595 0.07998 0.74397 0.0
C826 C 0.8976 0.10178 0.75346 0.0
C827 C 0.98204 0.19694 0.81252 0.0
C828 C 0.99249 0.19466 0.78466 0.0
C829 C 0.96277 0.1853 0.81864 0.0
C830 C 0.95343 0.17169 0.79663 0.0
C831 C 0.96424 0.16907 0.76907 0.0
C832 C 0.98353 0.18051 0.7631 0.0
C833 C 0.93147 0.16168 0.80067 0.0
C834 C 0.92894 0.1392 0.79471 0.0
C835 C 0.91266 0.17459 0.80667 0.0
C836 C 0.91396 0.19861 0.81148 0.0
C837 C 0.92188 0.21249 0.78876 0.0
C838 C 0.92308 0.23513 0.79349 0.0
C839 C 0.91619 0.24409 0.82074 0.0
C840 C 0.90802 0.23042 0.84328 0.0
C841 C 0.90682 0.20776 0.83868 0.0
H842 H 0.91712 0.26163 0.82435 0.0
H843 H 0.90216 0.04616 0.75504 0.0
H844 H 0.84443 0.82082 0.73181 0.0
H845 H 0.82928 0.854 0.75387 0.0
H846 H 0.88547 0.85922 0.81228 0.0
H847 H 0.90106 0.82609 0.7899 0.0
H848 H 0.81777 0.87219 0.80665 0.0
H849 H 0.90242 0.91227 0.80928 0.0
H850 H 0.93959 0.90611 0.78892 0.0
H851 H 0.91198 0.87497 0.71122 0.0
H852 H 0.87469 0.88126 0.73092 0.0
H853 H 0.79464 0.98583 0.83113 0.0
H854 H 0.8123 0.95 0.83843 0.0
H855 H 0.835 0.95143 0.7468 0.0
H856 H 0.81772 0.98701 0.73965 0.0
H857 H 0.86588 0.93517 0.78112 0.0
H858 H 0.78726 0.9243 0.76861 0.0
H859 H 0.74837 0.92918 0.78244 0.0
H860 H 0.76104 0.90113 0.86907 0.0
H861 H 0.80008 0.89633 0.85583 0.0
C862 C 0.85338 0.82867 0.74985 0.0
C863 C 0.87425 0.82113 0.75852 0.0
C864 C 0.84459 0.84759 0.76261 0.0
C865 C 0.85646 0.8593 0.78427 0.0
C866 C 0.87621 0.85057 0.79524 0.0
C867 C 0.88511 0.83165 0.78237 0.0
C868 C 0.84978 0.88207 0.79139 0.0
C869 C 0.8284 0.88599 0.80166 0.0
C870 C 0.86356 0.90006 0.78438 0.0
C871 C 0.88584 0.897 0.77176 0.0
C872 C 0.90432 0.90422 0.78779 0.0
C873 C 0.92539 0.90069 0.77637 0.0
C874 C 0.92815 0.89007 0.74886 0.0
C875 C 0.90983 0.88313 0.73256 0.0
C876 C 0.88873 0.88669 0.74383 0.0
C877 C 0.80371 0.97856 0.81278 0.0
C878 C 0.8052 0.98937 0.78503 0.0
C879 C 0.81374 0.95813 0.81693 0.0
C880 C 0.82493 0.94801 0.79313 0.0
C881 C 0.82673 0.95904 0.76562 0.0
C882 C 0.81693 0.97948 0.76159 0.0
C883 C 0.83363 0.92536 0.79572 0.0
C884 C 0.85545 0.92145 0.78722 0.0
C885 C 0.82003 0.90739 0.80349 0.0
C886 C 0.79659 0.91022 0.81139 0.0
C887 C 0.78176 0.91932 0.79068 0.0
C888 C 0.7597 0.92205 0.79839 0.0
C889 C 0.75226 0.91554 0.82665 0.0
C890 C 0.76684 0.90622 0.84722 0.0
C891 C 0.78893 0.90349 0.83963 0.0
H892 H 0.73517 0.91766 0.83258 0.0
H893 H 0.94448 0.88725 0.74014 0.0
H894 H 0.01711 0.78934 0.8061 0.0
H895 H 0.05079 0.8105 0.81376 0.0
H896 H 0.02905 0.85776 0.74811 0.0
H897 H 0.99614 0.83618 0.73926 0.0
H898 H 0.06789 0.84417 0.73496 0.0
H899 H 0.03378 0.87121 0.82338 0.0
H900 H 0.0141 0.86925 0.87156 0.0
H901 H 0.06754 0.83308 0.91023 0.0
H902 H 0.08743 0.83453 0.86213 0.0
H903 H 0.15992 0.91787 0.78302 0.0
H904 H 0.12365 0.90382 0.79719 0.0
H905 H 0.1423 0.83925 0.76703 0.0
H906 H 0.17829 0.8531 0.75258 0.0
H907 H 0.10338 0.8669 0.83023 0.0
H908 H 0.10518 0.82615 0.71359 0.0
H909 H 0.12404 0.83062 0.66501 0.0
H910 H 0.13221 0.89946 0.68219 0.0
H911 H 0.11301 0.89548 0.73053 0.0
C912 C 0.01936 0.80449 0.79377 0.0
C913 C 0.00371 0.81134 0.7726 0.0
C914 C 0.03852 0.81665 0.79833 0.0
C915 C 0.04232 0.83588 0.78178 0.0
C916 C 0.02635 0.8431 0.76135 0.0
C917 C 0.00733 0.83088 0.75664 0.0
C918 C 0.06399 0.84689 0.78288 0.0
C919 C 0.07548 0.84928 0.75583 0.0
C920 C 0.07391 0.85374 0.81005 0.0
C921 C 0.06203 0.85283 0.83905 0.0
C922 C 0.04127 0.86267 0.84207 0.0
C923 C 0.03009 0.86169 0.86939 0.0
C924 C 0.03954 0.85101 0.89392 0.0
C925 C 0.06023 0.84133 0.8912 0.0
C926 C 0.07148 0.84226 0.86392 0.0
C927 C 0.15655 0.90052 0.78049 0.0
C928 C 0.17171 0.88664 0.76617 0.0
C929 C 0.13586 0.89253 0.78864 0.0
C930 C 0.13028 0.87063 0.78263 0.0
C931 C 0.1463 0.85626 0.77154 0.0
C932 C 0.16681 0.86422 0.7632 0.0
C933 C 0.10709 0.86363 0.78248 0.0
C934 C 0.09549 0.86194 0.80951 0.0
C935 C 0.09675 0.8578 0.75523 0.0
C936 C 0.10784 0.86046 0.72581 0.0
C937 C 0.11089 0.84226 0.70691 0.0
C938 C 0.12164 0.84471 0.67942 0.0
C939 C 0.12934 0.86531 0.67054 0.0
C940 C 0.12627 0.88351 0.68911 0.0
C941 C 0.11546 0.88116 0.71655 0.0
H942 H 0.13765 0.86719 0.64927 0.0
H943 H 0.03086 0.85027 0.91506 0.0
H944 H 0.66759 0.50553 0.74787 0.0
H945 H 0.64683 0.47177 0.74389 0.0
H946 H 0.69214 0.44776 0.67733 0.0
H947 H 0.71224 0.4825 0.67949 0.0
H948 H 0.65065 0.43079 0.66884 0.0
H949 H 0.70295 0.43948 0.74911 0.0
H950 H 0.71919 0.459 0.79218 0.0
H951 H 0.6586 0.45294 0.84053 0.0
H952 H 0.64186 0.43378 0.79748 0.0
H953 H 0.64783 0.32287 0.76599 0.0
H954 H 0.66401 0.35739 0.74948 0.0
H955 H 0.60209 0.37666 0.71056 0.0
H956 H 0.58592 0.34183 0.7264 0.0
H957 H 0.65282 0.39574 0.76925 0.0
H958 H 0.61113 0.41483 0.65522 0.0
H959 H 0.59752 0.39501 0.61072 0.0
H960 H 0.64251 0.34231 0.62828 0.0
H961 H 0.65658 0.36194 0.67263 0.0
C962 C 0.67244 0.49381 0.73095 0.0
C963 C 0.6914 0.49695 0.71354 0.0
C964 C 0.6607 0.47425 0.72908 0.0
C965 C 0.6682 0.45715 0.71074 0.0
C966 C 0.6861 0.46079 0.69164 0.0
C967 C 0.69763 0.48057 0.69305 0.0
C968 C 0.65975 0.43464 0.71518 0.0
C969 C 0.65099 0.42308 0.69075 0.0
C970 C 0.66083 0.42446 0.74367 0.0
C971 C 0.6711 0.43535 0.76997 0.0
C972 C 0.69307 0.44239 0.76888 0.0
C973 C 0.70235 0.45341 0.79328 0.0
C974 C 0.68993 0.45723 0.81906 0.0
C975 C 0.6682 0.44998 0.82053 0.0
C976 C 0.6588 0.43904 0.79614 0.0
C977 C 0.63774 0.33428 0.75345 0.0
C978 C 0.61555 0.32969 0.74765 0.0
C979 C 0.64701 0.35401 0.74406 0.0
C980 C 0.63427 0.36963 0.72886 0.0
C981 C 0.61233 0.36473 0.72191 0.0
C982 C 0.60309 0.34483 0.73103 0.0
C983 C 0.64342 0.39173 0.72294 0.0
C984 C 0.65235 0.40331 0.74724 0.0
C985 C 0.64294 0.40163 0.69422 0.0
C986 C 0.63474 0.38977 0.66742 0.0
C987 C 0.61817 0.39905 0.64952 0.0
C988 C 0.61037 0.38784 0.62433 0.0
C989 C 0.61909 0.36738 0.61673 0.0
C990 C 0.6357 0.35812 0.63425 0.0
C991 C 0.64357 0.36926 0.65945 0.0
H992 H 0.61302 0.35873 0.59723 0.0
H993 H 0.69714 0.46578 0.83792 0.0
H994 H 0.509 0.67086 0.75817 0.0
H995 H 0.54517 0.65437 0.75396 0.0
H996 H 0.55797 0.69275 0.67467 0.0
H997 H 0.52123 0.70893 0.67815 0.0
H998 H 0.56886 0.63097 0.71071 0.0
H999 H 0.6098 0.71361 0.68465 0.0
H1000 H 0.60245 0.75324 0.69046 0.0
H1001 H 0.56292 0.74014 0.76809 0.0
H1002 H 0.57026 0.70052 0.76292 0.0
H1003 H 0.68182 0.60542 0.70988 0.0
H1004 H 0.64804 0.62244 0.69144 0.0
H1005 H 0.64421 0.66148 0.77198 0.0
H1006 H 0.6782 0.64522 0.78998 0.0
H1007 H 0.62924 0.68436 0.72691 0.0
H1008 H 0.61863 0.61029 0.76499 0.0
H1009 H 0.62626 0.57052 0.76523 0.0
H1010 H 0.60405 0.56565 0.6741 0.0
H1011 H 0.59664 0.60548 0.67319 0.0
C1012 C 0.51896 0.67509 0.73899 0.0
C1013 C 0.51196 0.69085 0.71804 0.0
C1014 C 0.5398 0.66576 0.7368 0.0
C1015 C 0.5542 0.67232 0.71401 0.0
C1016 C 0.54705 0.68747 0.69242 0.0
C1017 C 0.52611 0.6967 0.69448 0.0
C1018 C 0.57737 0.66512 0.71506 0.0
C1019 C 0.58213 0.64262 0.71381 0.0
C1020 C 0.59459 0.68033 0.7196 0.0
C1021 C 0.59036 0.70413 0.72314 0.0
C1022 C 0.59959 0.71922 0.70298 0.0
C1023 C 0.59542 0.74167 0.70616 0.0
C1024 C 0.58216 0.74919 0.72956 0.0
C1025 C 0.57311 0.73429 0.7499 0.0
C1026 C 0.57725 0.71185 0.74683 0.0
C1027 C 0.674 0.61796 0.72336 0.0
C1028 C 0.68252 0.62374 0.7516 0.0
C1029 C 0.65468 0.62763 0.71283 0.0
C1030 C 0.64334 0.64287 0.73064 0.0
C1031 C 0.65263 0.64973 0.75786 0.0
C1032 C 0.67208 0.64034 0.76818 0.0
C1033 C 0.62083 0.65014 0.72278 0.0
C1034 C 0.61613 0.67268 0.72289 0.0
C1035 C 0.6036 0.63491 0.71801 0.0
C1036 C 0.60728 0.61086 0.71893 0.0
C1037 C 0.61543 0.60073 0.74499 0.0
C1038 C 0.61974 0.57819 0.74524 0.0
C1039 C 0.6157 0.56558 0.71967 0.0
C1040 C 0.60721 0.57545 0.69386 0.0
C1041 C 0.60295 0.598 0.69347 0.0
H1042 H 0.6191 0.54814 0.71988 0.0
H1043 H 0.57894 0.76657 0.73196 0.0
H1044 H 0.3218 0.5044 0.75644 0.0
H1045 H 0.34151 0.53834 0.74623 0.0
H1046 H 0.30723 0.54489 0.66199 0.0
H1047 H 0.28722 0.51072 0.67241 0.0
H1048 H 0.36864 0.55397 0.70522 0.0
H1049 H 0.29629 0.59975 0.65207 0.0
H1050 H 0.25585 0.59802 0.64955 0.0
H1051 H 0.25399 0.56729 0.73616 0.0
H1052 H 0.29436 0.56909 0.73931 0.0
H1053 H 0.40723 0.66424 0.70482 0.0
H1054 H 0.39064 0.63133 0.68267 0.0
H1055 H 0.33827 0.63446 0.74763 0.0
H1056 H 0.35401 0.66743 0.7688 0.0
H1057 H 0.32219 0.6206 0.69792 0.0
H1058 H 0.3874 0.60332 0.75801 0.0
H1059 H 0.42702 0.60543 0.76918 0.0
H1060 H 0.44184 0.57905 0.68224 0.0
H1061 H 0.40228 0.57703 0.67049 0.0
C1062 C 0.31898 0.51267 0.73529 0.0
C1063 C 0.30336 0.50474 0.71488 0.0
C1064 C 0.33021 0.53213 0.72951 0.0
C1065 C 0.32588 0.54417 0.70334 0.0
C1066 C 0.31076 0.53591 0.68239 0.0
C1067 C 0.29938 0.51645 0.68831 0.0
C1068 C 0.33572 0.56629 0.69994 0.0
C1069 C 0.35853 0.56855 0.70309 0.0
C1070 C 0.32257 0.58533 0.69725 0.0
C1071 C 0.29831 0.58426 0.69568 0.0
C1072 C 0.28722 0.59264 0.67055 0.0
C1073 C 0.26432 0.59165 0.66903 0.0
C1074 C 0.25237 0.58245 0.69262 0.0
C1075 C 0.26327 0.57431 0.71785 0.0
C1076 C 0.28615 0.5753 0.7195 0.0
C1077 C 0.39194 0.65813 0.71393 0.0
C1078 C 0.38213 0.66831 0.73888 0.0
C1079 C 0.38252 0.63928 0.70132 0.0
C1080 C 0.36338 0.63019 0.71378 0.0
C1081 C 0.353 0.64111 0.73752 0.0
C1082 C 0.36218 0.65996 0.74982 0.0
C1083 C 0.35498 0.60832 0.70466 0.0
C1084 C 0.33244 0.60606 0.6989 0.0
C1085 C 0.36827 0.58928 0.70607 0.0
C1086 C 0.39197 0.59028 0.71325 0.0
C1087 C 0.39914 0.59808 0.74125 0.0
C1088 C 0.42156 0.59926 0.74768 0.0
C1089 C 0.43694 0.59245 0.72639 0.0
C1090 C 0.42991 0.58437 0.69868 0.0
C1091 C 0.4075 0.58321 0.69212 0.0
H1092 H 0.45429 0.59338 0.7314 0.0
H1093 H 0.23465 0.58169 0.69139 0.0
H1094 H 0.31039 0.34451 0.75094 0.0
H1095 H 0.344 0.32612 0.73493 0.0
H1096 H 0.37144 0.38847 0.70863 0.0
H1097 H 0.33754 0.40686 0.72368 0.0
H1098 H 0.38707 0.35632 0.67337 0.0
H1099 H 0.37938 0.36889 0.78033 0.0
H1100 H 0.3621 0.36618 0.83019 0.0
H1101 H 0.36357 0.29586 0.82461 0.0
H1102 H 0.38094 0.29817 0.77471 0.0
H1103 H 0.49424 0.32161 0.75626 0.0
H1104 H 0.45853 0.3392 0.75213 0.0
H1105 H 0.44237 0.29757 0.67708 0.0
H1106 H 0.4787 0.2802 0.68061 0.0
H1107 H 0.4206 0.31818 0.76039 0.0
H1108 H 0.40439 0.32667 0.63353 0.0
H1109 H 0.42515 0.3327 0.58674 0.0
H1110 H 0.47538 0.36653 0.63595 0.0
H1111 H 0.45482 0.36092 0.68292 0.0
C1112 C 0.32334 0.35421 0.74087 0.0
C1113 C 0.32151 0.37715 0.73893 0.0
C1114 C 0.34255 0.3437 0.73184 0.0
C1115 C 0.36042 0.35602 0.7214 0.0
C1116 C 0.35788 0.37867 0.71679 0.0
C1117 C 0.33848 0.38917 0.72538 0.0
C1118 C 0.38245 0.34588 0.71912 0.0
C1119 C 0.39436 0.34782 0.69229 0.0
C1120 C 0.39212 0.33513 0.74399 0.0
C1121 C 0.3812 0.33371 0.77366 0.0
C1122 C 0.37583 0.35286 0.78963 0.0
C1123 C 0.36606 0.35139 0.81792 0.0
C1124 C 0.36159 0.33086 0.83048 0.0
C1125 C 0.36697 0.31175 0.81481 0.0
C1126 C 0.37682 0.31313 0.78656 0.0
C1127 C 0.4835 0.31679 0.73808 0.0
C1128 C 0.48948 0.3 0.71814 0.0
C1129 C 0.46295 0.32664 0.73604 0.0
C1130 C 0.44787 0.31977 0.71422 0.0
C1131 C 0.45391 0.3033 0.69382 0.0
C1132 C 0.47457 0.29339 0.69588 0.0
C1133 C 0.42529 0.32866 0.71473 0.0
C1134 C 0.41323 0.3264 0.74129 0.0
C1135 C 0.41579 0.33949 0.68989 0.0
C1136 C 0.42817 0.34315 0.66174 0.0
C1137 C 0.41984 0.33544 0.63432 0.0
C1138 C 0.43157 0.33878 0.60779 0.0
C1139 C 0.45161 0.34992 0.60839 0.0
C1140 C 0.45991 0.35782 0.63553 0.0
C1141 C 0.44824 0.35452 0.66211 0.0
H1142 H 0.46067 0.35248 0.58783 0.0
H1143 H 0.35407 0.32973 0.85239 0.0
H1144 H 0.64394 0.67017 0.23371 0.0
H1145 H 0.65898 0.63609 0.25284 0.0
H1146 H 0.59919 0.62408 0.30196 0.0
H1147 H 0.58362 0.65826 0.28204 0.0
H1148 H 0.66842 0.61646 0.30363 0.0
H1149 H 0.58827 0.56919 0.29567 0.0
H1150 H 0.55133 0.57267 0.27333 0.0
H1151 H 0.5781 0.61004 0.20037 0.0
H1152 H 0.61518 0.60656 0.22214 0.0
H1153 H 0.70325 0.50495 0.3141 0.0
H1154 H 0.6814 0.53783 0.32504 0.0
H1155 H 0.66112 0.54067 0.23237 0.0
H1156 H 0.68252 0.50783 0.22165 0.0
H1157 H 0.62784 0.55131 0.26654 0.0
H1158 H 0.70521 0.57119 0.26106 0.0
H1159 H 0.74399 0.56937 0.27682 0.0
H1160 H 0.72587 0.58873 0.366 0.0
H1161 H 0.68694 0.59042 0.3508 0.0
C1162 C 0.63405 0.66053 0.24899 0.0
C1163 C 0.61242 0.66671 0.25589 0.0
C1164 C 0.64277 0.64108 0.26014 0.0
C1165 C 0.63011 0.62734 0.27846 0.0
C1166 C 0.60914 0.63431 0.2875 0.0
C1167 C 0.6003 0.65388 0.27621 0.0
C1168 C 0.63815 0.60479 0.28446 0.0
C1169 C 0.65937 0.60213 0.29613 0.0
C1170 C 0.62646 0.58611 0.2744 0.0
C1171 C 0.60438 0.58782 0.26071 0.0
C1172 C 0.58624 0.57807 0.27481 0.0
C1173 C 0.5653 0.58006 0.26226 0.0
C1174 C 0.56236 0.59164 0.23551 0.0
C1175 C 0.58038 0.60114 0.22114 0.0
C1176 C 0.60135 0.59916 0.23356 0.0
C1177 C 0.69388 0.51252 0.29623 0.0
C1178 C 0.69426 0.50371 0.26715 0.0
C1179 C 0.68142 0.53126 0.30248 0.0
C1180 C 0.66966 0.54179 0.2795 0.0
C1181 C 0.6698 0.5327 0.25057 0.0
C1182 C 0.68198 0.51386 0.24445 0.0
C1183 C 0.65847 0.56311 0.28458 0.0
C1184 C 0.63662 0.56548 0.27511 0.0
C1185 C 0.66983 0.58164 0.29581 0.0
C1186 C 0.69319 0.58065 0.30492 0.0
C1187 C 0.7095 0.5749 0.28408 0.0
C1188 C 0.7315 0.57392 0.29289 0.0
C1189 C 0.73738 0.57885 0.32242 0.0
C1190 C 0.72128 0.58485 0.34316 0.0
C1191 C 0.69926 0.58583 0.33446 0.0
H1192 H 0.75441 0.57809 0.3292 0.0
H1193 H 0.54612 0.59322 0.22589 0.0
H1194 H 0.5057 0.66992 0.30622 0.0
H1195 H 0.47276 0.64811 0.31642 0.0
H1196 H 0.43268 0.69902 0.27731 0.0
H1197 H 0.46541 0.72077 0.26716 0.0
H1198 H 0.4123 0.68061 0.32446 0.0
H1199 H 0.45162 0.65583 0.23548 0.0
H1200 H 0.4845 0.64174 0.20964 0.0
H1201 H 0.48439 0.58478 0.26635 0.0
H1202 H 0.45167 0.59875 0.29284 0.0
H1203 H 0.32718 0.63968 0.23738 0.0
H1204 H 0.35987 0.65523 0.26041 0.0
H1205 H 0.37491 0.59263 0.30064 0.0
H1206 H 0.34181 0.57682 0.2776 0.0
H1207 H 0.4095 0.61073 0.26746 0.0
H1208 H 0.3625 0.63312 0.3464 0.0
H1209 H 0.32913 0.64861 0.36934 0.0
H1210 H 0.3427 0.71106 0.32882 0.0
H1211 H 0.37598 0.69588 0.30525 0.0
C1212 C 0.48985 0.67643 0.29987 0.0
C1213 C 0.48813 0.69671 0.28507 0.0
C1214 C 0.47105 0.66406 0.30595 0.0
C1215 C 0.45032 0.67178 0.29713 0.0
C1216 C 0.44851 0.69272 0.28428 0.0
C1217 C 0.46724 0.70511 0.2784 0.0
C1218 C 0.43072 0.65743 0.29815 0.0
C1219 C 0.41166 0.66526 0.31218 0.0
C1220 C 0.4301 0.63711 0.28277 0.0
C1221 C 0.44939 0.62844 0.26635 0.0
C1222 C 0.45867 0.64035 0.24251 0.0
C1223 C 0.47728 0.63239 0.22776 0.0
C1224 C 0.48657 0.61241 0.23641 0.0
C1225 C 0.47721 0.60029 0.25973 0.0
C1226 C 0.45864 0.60822 0.27462 0.0
C1227 C 0.33721 0.62927 0.25153 0.0
C1228 C 0.332 0.60702 0.25561 0.0
C1229 C 0.35582 0.63823 0.26485 0.0
C1230 C 0.3697 0.62512 0.28242 0.0
C1231 C 0.36428 0.60302 0.28731 0.0
C1232 C 0.34538 0.59406 0.27425 0.0
C1233 C 0.39084 0.63435 0.2928 0.0
C1234 C 0.41023 0.62562 0.28077 0.0
C1235 C 0.39168 0.65398 0.30967 0.0
C1236 C 0.37175 0.66331 0.324 0.0
C1237 C 0.35831 0.65012 0.34223 0.0
C1238 C 0.33942 0.65886 0.35537 0.0
C1239 C 0.3338 0.6808 0.35053 0.0
C1240 C 0.34709 0.69407 0.33258 0.0
C1241 C 0.366 0.68541 0.31938 0.0
H1242 H 0.31916 0.68753 0.36071 0.0
H1243 H 0.50099 0.60628 0.225 0.0
H1244 H 0.32205 0.49894 0.3068 0.0
H1245 H 0.34076 0.46383 0.31443 0.0
H1246 H 0.28385 0.42959 0.28091 0.0
H1247 H 0.26512 0.4646 0.27327 0.0
H1248 H 0.30386 0.40646 0.32543 0.0
H1249 H 0.32418 0.44372 0.23392 0.0
H1250 H 0.33796 0.47525 0.20484 0.0
H1251 H 0.39935 0.47205 0.25195 0.0
H1252 H 0.38575 0.4407 0.28169 0.0
H1253 H 0.34208 0.31538 0.24261 0.0
H1254 H 0.32608 0.3485 0.26408 0.0
H1255 H 0.3898 0.36846 0.29613 0.0
H1256 H 0.40603 0.33536 0.27452 0.0
H1257 H 0.37015 0.3996 0.26156 0.0
H1258 H 0.35033 0.35605 0.34601 0.0
H1259 H 0.33494 0.32407 0.37251 0.0
H1260 H 0.27132 0.33787 0.33566 0.0
H1261 H 0.28637 0.36975 0.30856 0.0
C1262 C 0.31352 0.48391 0.30122 0.0
C1263 C 0.29244 0.48446 0.28854 0.0
C1264 C 0.32413 0.46388 0.30584 0.0
C1265 C 0.31383 0.44416 0.29767 0.0
C1266 C 0.2921 0.44463 0.2873 0.0
C1267 C 0.28146 0.46464 0.28284 0.0
C1268 C 0.32638 0.42339 0.29636 0.0
C1269 C 0.31837 0.40489 0.31153 0.0
C1270 C 0.3455 0.42152 0.27853 0.0
C1271 C 0.35387 0.44005 0.26026 0.0
C1272 C 0.34057 0.44983 0.23819 0.0
C1273 C 0.34834 0.46766 0.22159 0.0
C1274 C 0.3695 0.47569 0.22661 0.0
C1275 C 0.38295 0.46584 0.24815 0.0
C1276 C 0.37522 0.44805 0.26489 0.0
C1277 C 0.35266 0.32657 0.25475 0.0
C1278 C 0.37537 0.32277 0.25669 0.0
C1279 C 0.34344 0.34544 0.26719 0.0
C1280 C 0.35674 0.36087 0.28182 0.0
C1281 C 0.37926 0.35668 0.28502 0.0
C1282 C 0.38848 0.3377 0.27274 0.0
C1283 C 0.3475 0.38246 0.29033 0.0
C1284 C 0.35603 0.40118 0.27622 0.0
C1285 C 0.3287 0.38438 0.30875 0.0
C1286 C 0.31953 0.36525 0.32511 0.0
C1287 C 0.33309 0.35219 0.34337 0.0
C1288 C 0.32441 0.33408 0.35854 0.0
C1289 C 0.30217 0.32893 0.35574 0.0
C1290 C 0.28855 0.34189 0.33781 0.0
C1291 C 0.29714 0.36 0.32258 0.0
H1292 H 0.29549 0.3149 0.3675 0.0
H1293 H 0.37549 0.48951 0.21375 0.0
H1294 H 0.5228 0.27588 0.28463 0.0
H1295 H 0.55657 0.29651 0.29327 0.0
H1296 H 0.52664 0.35419 0.25472 0.0
H1297 H 0.49354 0.33323 0.2441 0.0
H1298 H 0.56381 0.34833 0.23046 0.0
H1299 H 0.54015 0.34986 0.33201 0.0
H1300 H 0.52627 0.33513 0.37985 0.0
H1301 H 0.58367 0.29475 0.3884 0.0
H1302 H 0.59776 0.30899 0.34038 0.0
H1303 H 0.65737 0.41305 0.26064 0.0
H1304 H 0.62112 0.39956 0.27565 0.0
H1305 H 0.64492 0.333 0.27217 0.0
H1306 H 0.68097 0.34628 0.25619 0.0
H1307 H 0.60975 0.34789 0.32241 0.0
H1308 H 0.62668 0.34083 0.21389 0.0
H1309 H 0.64068 0.35664 0.16666 0.0
H1310 H 0.59477 0.40981 0.17392 0.0
H1311 H 0.58066 0.39439 0.22138 0.0
C1312 C 0.52332 0.29308 0.27851 0.0
C1313 C 0.50526 0.30307 0.26449 0.0
C1314 C 0.54256 0.30492 0.28371 0.0
C1315 C 0.54405 0.32707 0.27519 0.0
C1316 C 0.52581 0.33721 0.26184 0.0
C1317 C 0.5067 0.32528 0.25625 0.0
C1318 C 0.56531 0.33886 0.2771 0.0
C1319 C 0.57352 0.3486 0.25086 0.0
C1320 C 0.57831 0.33899 0.30349 0.0
C1321 C 0.56994 0.3304 0.33245 0.0
C1322 C 0.54974 0.33772 0.34397 0.0
C1323 C 0.54185 0.32948 0.37115 0.0
C1324 C 0.55406 0.31399 0.38713 0.0
C1325 C 0.57422 0.30674 0.37599 0.0
C1326 C 0.58219 0.31492 0.34881 0.0
C1327 C 0.65508 0.39561 0.26412 0.0
C1328 C 0.67184 0.38066 0.25705 0.0
C1329 C 0.63441 0.38796 0.27271 0.0
C1330 C 0.63049 0.36534 0.27496 0.0
C1331 C 0.64779 0.35052 0.27075 0.0
C1332 C 0.66828 0.35811 0.26149 0.0
C1333 C 0.60782 0.35701 0.27593 0.0
C1334 C 0.59959 0.34788 0.30244 0.0
C1335 C 0.59461 0.35755 0.24996 0.0
C1336 C 0.60281 0.36662 0.22126 0.0
C1337 C 0.6197 0.35598 0.2055 0.0
C1338 C 0.62763 0.36484 0.17869 0.0
C1339 C 0.61868 0.38426 0.16737 0.0
C1340 C 0.60171 0.3948 0.18276 0.0
C1341 C 0.59373 0.386 0.20959 0.0
H1342 H 0.62486 0.39111 0.14665 0.0
H1343 H 0.54792 0.30763 0.40816 0.0
H1344 H 0.22849 0.1714 0.38887 0.0
H1345 H 0.22105 0.18852 0.43739 0.0
H1346 H 0.15252 0.17209 0.42879 0.0
H1347 H 0.15964 0.15562 0.37991 0.0
H1348 H 0.15818 0.21134 0.45842 0.0
H1349 H 0.18176 0.13434 0.47363 0.0
H1350 H 0.20665 0.10444 0.4584 0.0
H1351 H 0.26241 0.14498 0.47828 0.0
H1352 H 0.23774 0.17485 0.49474 0.0
H1353 H 0.14475 0.16622 0.61797 0.0
H1354 H 0.15914 0.16254 0.5673 0.0
H1355 H 0.16994 0.23246 0.56321 0.0
H1356 H 0.15516 0.23633 0.61395 0.0
H1357 H 0.19605 0.17024 0.53951 0.0
H1358 H 0.15825 0.25001 0.49227 0.0
H1359 H 0.12748 0.27525 0.50262 0.0
H1360 H 0.09141 0.22274 0.54372 0.0
H1361 H 0.1219 0.19721 0.53347 0.0
C1362 C 0.21175 0.17188 0.39698 0.0
C1363 C 0.19471 0.16185 0.38074 0.0
C1364 C 0.20754 0.18162 0.42475 0.0
C1365 C 0.18631 0.18118 0.43694 0.0
C1366 C 0.16902 0.1726 0.41982 0.0
C1367 C 0.17317 0.16307 0.39192 0.0
C1368 C 0.18253 0.18691 0.46882 0.0
C1369 C 0.16672 0.20271 0.47622 0.0
C1370 C 0.19314 0.17516 0.49198 0.0
C1371 C 0.20802 0.15673 0.48518 0.0
C1372 C 0.19935 0.13672 0.47506 0.0
C1373 C 0.21338 0.11984 0.46617 0.0
C1374 C 0.23608 0.123 0.46675 0.0
C1375 C 0.24481 0.14268 0.47753 0.0
C1376 C 0.23083 0.15949 0.48699 0.0
C1377 C 0.15058 0.18079 0.60658 0.0
C1378 C 0.14878 0.20157 0.61996 0.0
C1379 C 0.15879 0.17866 0.57755 0.0
C1380 C 0.16536 0.19726 0.56131 0.0
C1381 C 0.16463 0.21793 0.57516 0.0
C1382 C 0.15628 0.22009 0.60419 0.0
C1383 C 0.17175 0.19492 0.5294 0.0
C1384 C 0.18798 0.17954 0.52192 0.0
C1385 C 0.16092 0.20662 0.50622 0.0
C1386 C 0.14246 0.2218 0.51242 0.0
C1387 C 0.14374 0.24388 0.5035 0.0
C1388 C 0.12636 0.25823 0.50938 0.0
C1389 C 0.10755 0.25063 0.52396 0.0
C1390 C 0.10605 0.22864 0.53262 0.0
C1391 C 0.12338 0.21424 0.52682 0.0
H1392 H 0.09411 0.26175 0.52847 0.0
H1393 H 0.2469 0.11014 0.45899 0.0
H1394 H 0.86423 0.1487 0.3855 0.0
H1395 H 0.84704 0.14364 0.43422 0.0
H1396 H 0.81945 0.2088 0.42893 0.0
H1397 H 0.83774 0.21436 0.38067 0.0
H1398 H 0.83573 0.20428 0.48041 0.0
H1399 H 0.78605 0.15946 0.42481 0.0
H1400 H 0.77466 0.13091 0.3888 0.0
H1401 H 0.80874 0.08205 0.44027 0.0
H1402 H 0.82068 0.1104 0.47621 0.0
H1403 H 0.7704 0.1405 0.60649 0.0
H1404 H 0.77437 0.15304 0.55476 0.0
H1405 H 0.84258 0.16772 0.57122 0.0
H1406 H 0.83863 0.1557 0.62308 0.0
H1407 H 0.79791 0.13616 0.51242 0.0
H1408 H 0.86067 0.20786 0.52689 0.0
H1409 H 0.8681 0.23797 0.5624 0.0
H1410 H 0.80103 0.23648 0.59173 0.0
H1411 H 0.79312 0.20658 0.55611 0.0
C1412 C 0.85419 0.16182 0.39445 0.0
C1413 C 0.85229 0.18192 0.37928 0.0
C1414 C 0.84422 0.15886 0.4223 0.0
C1415 C 0.8316 0.1757 0.43518 0.0
C1416 C 0.82908 0.19555 0.41951 0.0
C1417 C 0.83946 0.19869 0.3919 0.0
C1418 C 0.82264 0.17315 0.46597 0.0
C1419 C 0.82729 0.18946 0.48731 0.0
C1420 C 0.81114 0.15408 0.47501 0.0
C1421 C 0.80418 0.13703 0.45325 0.0
C1422 C 0.79119 0.14264 0.42835 0.0
C1423 C 0.78466 0.12651 0.40794 0.0
C1424 C 0.79096 0.10468 0.41225 0.0
C1425 C 0.80385 0.09895 0.43695 0.0
C1426 C 0.81047 0.11504 0.45738 0.0
C1427 C 0.78615 0.1468 0.59927 0.0
C1428 C 0.80422 0.1471 0.61893 0.0
C1429 C 0.78841 0.15387 0.56964 0.0
C1430 C 0.80873 0.16145 0.55911 0.0
C1431 C 0.82662 0.16233 0.57894 0.0
C1432 C 0.82436 0.15536 0.6086 0.0
C1433 C 0.81175 0.16692 0.52695 0.0
C1434 C 0.80604 0.15113 0.5054 0.0
C1435 C 0.82175 0.18672 0.51762 0.0
C1436 C 0.82635 0.20485 0.53895 0.0
C1437 C 0.84748 0.21402 0.5408 0.0
C1438 C 0.85178 0.23105 0.56098 0.0
C1439 C 0.83506 0.2391 0.57936 0.0
C1440 C 0.81399 0.23018 0.57755 0.0
C1441 C 0.8096 0.21317 0.5574 0.0
H1442 H 0.83843 0.25227 0.59497 0.0
H1443 H 0.78586 0.09221 0.39645 0.0
H1444 H 0.82713 0.7754 0.61755 0.0
H1445 H 0.8092 0.78164 0.56903 0.0
H1446 H 0.84319 0.84349 0.56068 0.0
H1447 H 0.85996 0.83795 0.60954 0.0
H1448 H 0.80514 0.84788 0.53751 0.0
H1449 H 0.86184 0.79239 0.53275 0.0
H1450 H 0.87744 0.75726 0.54964 0.0
H1451 H 0.82197 0.72284 0.51331 0.0
H1452 H 0.80538 0.758 0.49781 0.0
H1453 H 0.83296 0.86147 0.38647 0.0
H1454 H 0.83793 0.84458 0.43558 0.0
H1455 H 0.77302 0.81682 0.43053 0.0
H1456 H 0.76759 0.83418 0.38139 0.0
H1457 H 0.81976 0.79128 0.45993 0.0
H1458 H 0.76353 0.8498 0.4659 0.0
H1459 H 0.75082 0.88618 0.44911 0.0
H1460 H 0.81036 0.9154 0.48157 0.0
H1461 H 0.8238 0.87897 0.49751 0.0
C1462 C 0.83038 0.7905 0.60554 0.0
C1463 C 0.84506 0.80611 0.61719 0.0
C1464 C 0.82021 0.79402 0.5778 0.0
C1465 C 0.82521 0.81281 0.56082 0.0
C1466 C 0.83904 0.82885 0.57324 0.0
C1467 C 0.84871 0.82562 0.60121 0.0
C1468 C 0.81768 0.81532 0.52929 0.0
C1469 C 0.80817 0.83534 0.52074 0.0
C1470 C 0.82154 0.79902 0.50714 0.0
C1471 C 0.83223 0.77784 0.51448 0.0
C1472 C 0.85293 0.77734 0.52844 0.0
C1473 C 0.8619 0.75742 0.5379 0.0
C1474 C 0.85074 0.73779 0.53246 0.0
C1475 C 0.83057 0.73806 0.51756 0.0
C1476 C 0.8213 0.758 0.50863 0.0
C1477 C 0.81988 0.85139 0.39539 0.0
C1478 C 0.79977 0.84937 0.38018 0.0
C1479 C 0.82282 0.84165 0.42341 0.0
C1480 C 0.80584 0.82951 0.43655 0.0
C1481 C 0.78633 0.82607 0.42057 0.0
C1482 C 0.78322 0.8361 0.39264 0.0
C1483 C 0.80745 0.82373 0.46864 0.0
C1484 C 0.8161 0.80336 0.47708 0.0
C1485 C 0.80315 0.83974 0.49074 0.0
C1486 C 0.79472 0.8617 0.48257 0.0
C1487 C 0.77399 0.86395 0.46917 0.0
C1488 C 0.76671 0.88453 0.45973 0.0
C1489 C 0.77984 0.90302 0.46417 0.0
C1490 C 0.80028 0.90101 0.47804 0.0
C1491 C 0.80776 0.8804 0.48722 0.0
H1492 H 0.77398 0.91894 0.45725 0.0
H1493 H 0.8577 0.72236 0.53982 0.0
H1494 H 0.1129 0.84668 0.40119 0.0
H1495 H 0.12805 0.85084 0.4514 0.0
H1496 H 0.17258 0.79709 0.43491 0.0
H1497 H 0.15653 0.79212 0.38495 0.0
H1498 H 0.15756 0.79343 0.48861 0.0
H1499 H 0.19049 0.8539 0.4347 0.0
H1500 H 0.19067 0.88681 0.40244 0.0
H1501 H 0.1477 0.91981 0.46395 0.0
H1502 H 0.14709 0.887 0.49637 0.0
H1503 H 0.22372 0.86332 0.6068 0.0
H1504 H 0.21463 0.85192 0.55591 0.0
H1505 H 0.15451 0.82279 0.58784 0.0
H1506 H 0.16369 0.83383 0.63903 0.0
H1507 H 0.18111 0.86661 0.52499 0.0
H1508 H 0.13876 0.78178 0.53921 0.0
H1509 H 0.14223 0.74859 0.57055 0.0
H1510 H 0.21013 0.76328 0.58653 0.0
H1511 H 0.20716 0.79636 0.55497 0.0
C1512 C 0.1261 0.83591 0.4081 0.0
C1513 C 0.13377 0.81928 0.389 0.0
C1514 C 0.13481 0.83833 0.43684 0.0
C1515 C 0.15185 0.82462 0.44679 0.0
C1516 C 0.15951 0.80793 0.42774 0.0
C1517 C 0.15044 0.80518 0.39915 0.0
C1518 C 0.16142 0.82759 0.47719 0.0
C1519 C 0.16278 0.80943 0.49653 0.0
C1520 C 0.16855 0.84837 0.4875 0.0
C1521 C 0.16873 0.86802 0.4679 0.0
C1522 C 0.18101 0.86815 0.44124 0.0
C1523 C 0.18119 0.88678 0.42294 0.0
C1524 C 0.16919 0.90539 0.43113 0.0
C1525 C 0.15696 0.90538 0.4576 0.0
C1526 C 0.15671 0.88679 0.47596 0.0
C1527 C 0.20875 0.85413 0.60316 0.0
C1528 C 0.19427 0.84975 0.62697 0.0
C1529 C 0.20355 0.84767 0.574 0.0
C1530 C 0.18387 0.83657 0.56801 0.0
C1531 C 0.1699 0.83117 0.59193 0.0
C1532 C 0.17511 0.8376 0.62119 0.0
C1533 C 0.17706 0.83255 0.53653 0.0
C1534 C 0.17606 0.85058 0.51703 0.0
C1535 C 0.17069 0.81159 0.526 0.0
C1536 C 0.17265 0.79168 0.54496 0.0
C1537 C 0.15444 0.77789 0.54934 0.0
C1538 C 0.15633 0.7591 0.56715 0.0
C1539 C 0.17637 0.75387 0.5806 0.0
C1540 C 0.19459 0.7674 0.57621 0.0
C1541 C 0.19281 0.78619 0.5584 0.0
H1542 H 0.17779 0.73932 0.59438 0.0
H1543 H 0.16939 0.91981 0.41697 0.0
H1544 H 0.73928 0.62767 0.90927 0.0
H1545 H 0.72652 0.63791 0.95917 0.0
H1546 H 0.68586 0.68852 0.92057 0.0
H1547 H 0.6986 0.67845 0.87051 0.0
H1548 H 0.7011 0.70156 0.97347 0.0
H1549 H 0.66623 0.64017 0.93252 0.0
H1550 H 0.66 0.6038 0.91016 0.0
H1551 H 0.68448 0.5729 0.9898 0.0
H1552 H 0.69231 0.60914 0.01204 0.0
H1553 H 0.6149 0.66152 0.09305 0.0
H1554 H 0.63393 0.65724 0.04549 0.0
H1555 H 0.68728 0.69718 0.0787 0.0
H1556 H 0.66696 0.70328 0.12534 0.0
H1557 H 0.66644 0.6396 0.02776 0.0
H1558 H 0.71585 0.72126 0.02355 0.0
H1559 H 0.71227 0.7596 0.04066 0.0
H1560 H 0.64213 0.75311 0.04199 0.0
H1561 H 0.64528 0.71484 0.02453 0.0
C1562 C 0.72794 0.64126 0.91139 0.0
C1563 C 0.7196 0.65196 0.88585 0.0
C1564 C 0.72068 0.64709 0.93995 0.0
C1565 C 0.70492 0.66367 0.94349 0.0
C1566 C 0.69797 0.67561 0.91831 0.0
C1567 C 0.70523 0.66979 0.88968 0.0
C1568 C 0.69404 0.66696 0.97284 0.0
C1569 C 0.6936 0.68803 0.98549 0.0
C1570 C 0.68346 0.64943 0.98784 0.0
C1571 C 0.68032 0.6275 0.97375 0.0
C1572 C 0.67095 0.62568 0.94499 0.0
C1573 C 0.66715 0.60505 0.93231 0.0
C1574 C 0.6721 0.58607 0.94846 0.0
C1575 C 0.68107 0.58766 0.97717 0.0
C1576 C 0.68532 0.60824 0.98975 0.0
C1577 C 0.63066 0.66945 0.09011 0.0
C1578 C 0.63944 0.68285 0.11265 0.0
C1579 C 0.64162 0.66694 0.06292 0.0
C1580 C 0.66202 0.67712 0.05806 0.0
C1581 C 0.67128 0.68972 0.08129 0.0
C1582 C 0.65982 0.69301 0.10809 0.0
C1583 C 0.67342 0.67427 0.02877 0.0
C1584 C 0.67406 0.65319 0.01604 0.0
C1585 C 0.68291 0.69205 0.01284 0.0
C1586 C 0.68084 0.71511 0.02308 0.0
C1587 C 0.69967 0.72804 0.02741 0.0
C1588 C 0.69771 0.74976 0.03718 0.0
C1589 C 0.67699 0.75876 0.04252 0.0
C1590 C 0.65817 0.74609 0.03796 0.0
C1591 C 0.66004 0.72438 0.02816 0.0
H1592 H 0.67551 0.77556 0.05011 0.0
H1593 H 0.66868 0.57012 0.93893 0.0
H1594 H 0.32482 0.67413 0.86627 0.0
H1595 H 0.31277 0.66744 0.9178 0.0
H1596 H 0.35647 0.71805 0.94943 0.0
H1597 H 0.36839 0.72507 0.89814 0.0
H1598 H 0.36259 0.67784 0.97751 0.0
H1599 H 0.3035 0.72668 0.95383 0.0
H1600 H 0.27234 0.7407 0.92422 0.0
H1601 H 0.23759 0.68028 0.93814 0.0
H1602 H 0.26868 0.66576 0.96749 0.0
H1603 H 0.33229 0.6674 0.13018 0.0
H1604 H 0.33868 0.6834 0.08062 0.0
H1605 H 0.29139 0.63887 0.04216 0.0
H1606 H 0.28459 0.62312 0.0915 0.0
H1607 H 0.28695 0.67884 0.01845 0.0
H1608 H 0.34602 0.62857 0.03764 0.0
H1609 H 0.37723 0.61283 0.06551 0.0
H1610 H 0.41209 0.67381 0.05793 0.0
H1611 H 0.38093 0.69004 0.03043 0.0
C1612 C 0.33155 0.68413 0.88411 0.0
C1613 C 0.34778 0.69993 0.87812 0.0
C1614 C 0.32462 0.68032 0.91352 0.0
C1615 C 0.33382 0.69221 0.93737 0.0
C1616 C 0.34925 0.70865 0.93131 0.0
C1617 C 0.35604 0.71261 0.90195 0.0
C1618 C 0.32885 0.68616 0.96876 0.0
C1619 C 0.34612 0.67846 0.9867 0.0
C1620 C 0.30726 0.68637 0.98029 0.0
C1621 C 0.28852 0.69505 0.96264 0.0
C1622 C 0.2893 0.7163 0.95036 0.0
C1623 C 0.27163 0.72436 0.93367 0.0
C1624 C 0.25302 0.71137 0.92924 0.0
C1625 C 0.25202 0.69031 0.94156 0.0
C1626 C 0.26966 0.68217 0.95825 0.0
C1627 C 0.32313 0.66114 0.11121 0.0
C1628 C 0.30805 0.64388 0.11477 0.0
C1629 C 0.32684 0.67025 0.0829 0.0
C1630 C 0.31569 0.66213 0.05766 0.0
C1631 C 0.30017 0.64538 0.06132 0.0
C1632 C 0.29638 0.63634 0.08957 0.0
C1633 C 0.32071 0.67048 0.02721 0.0
C1634 C 0.30346 0.67849 0.0094 0.0
C1635 C 0.34231 0.67031 0.0156 0.0
C1636 C 0.36102 0.66062 0.03232 0.0
C1637 C 0.36025 0.6387 0.04218 0.0
C1638 C 0.37795 0.62967 0.05786 0.0
C1639 C 0.3966 0.64233 0.06358 0.0
C1640 C 0.39762 0.66403 0.05356 0.0
C1641 C 0.37994 0.67316 0.03793 0.0
H1642 H 0.41028 0.6353 0.07572 0.0
H1643 H 0.23935 0.71765 0.91632 0.0
H1644 H 0.33745 0.36506 0.88764 0.0
H1645 H 0.34307 0.34779 0.93621 0.0
H1646 H 0.2811 0.31405 0.92741 0.0
H1647 H 0.27485 0.33244 0.87929 0.0
H1648 H 0.28318 0.32949 0.9799 0.0
H1649 H 0.33359 0.28783 0.92194 0.0
H1650 H 0.36352 0.28155 0.88581 0.0
H1651 H 0.40862 0.31512 0.94383 0.0
H1652 H 0.37888 0.32206 0.98002 0.0
H1653 H 0.33423 0.26475 0.11 0.0
H1654 H 0.32184 0.27027 0.05815 0.0
H1655 H 0.33425 0.33961 0.06625 0.0
H1656 H 0.34623 0.33447 0.11793 0.0
H1657 H 0.3543 0.29807 0.01298 0.0
H1658 H 0.29527 0.35089 0.05548 0.0
H1659 H 0.2647 0.3555 0.09124 0.0
H1660 H 0.23631 0.29488 0.0611 0.0
H1661 H 0.26694 0.28984 0.02549 0.0
C1662 C 0.32516 0.35372 0.89583 0.0
C1663 C 0.30574 0.35002 0.87966 0.0
C1664 C 0.32845 0.34371 0.92358 0.0
C1665 C 0.31272 0.32923 0.93535 0.0
C1666 C 0.29352 0.3251 0.91882 0.0
C1667 C 0.28998 0.33553 0.8913 0.0
C1668 C 0.31569 0.31975 0.96581 0.0
C1669 C 0.29865 0.32228 0.98678 0.0
C1670 C 0.3358 0.31015 0.97511 0.0
C1671 C 0.35391 0.30557 0.95367 0.0
C1672 C 0.34985 0.29398 0.92695 0.0
C1673 C 0.3668 0.29032 0.90643 0.0
C1674 C 0.38795 0.29795 0.9125 0.0
C1675 C 0.39222 0.30922 0.93915 0.0
C1676 C 0.37532 0.31301 0.95969 0.0
C1677 C 0.3338 0.28125 0.10098 0.0
C1678 C 0.34122 0.29918 0.11812 0.0
C1679 C 0.32682 0.28432 0.07136 0.0
C1680 C 0.32709 0.30533 0.0586 0.0
C1681 C 0.3337 0.32331 0.07593 0.0
C1682 C 0.34054 0.32031 0.10548 0.0
C1683 C 0.32214 0.3086 0.02654 0.0
C1684 C 0.33878 0.30486 0.0055 0.0
C1685 C 0.30172 0.31681 0.01698 0.0
C1686 C 0.2834 0.3199 0.03817 0.0
C1687 C 0.28257 0.3385 0.05669 0.0
C1688 C 0.26525 0.3412 0.07689 0.0
C1689 C 0.2486 0.32546 0.0785 0.0
C1690 C 0.24924 0.30702 0.05989 0.0
C1691 C 0.26658 0.30422 0.03974 0.0
H1692 H 0.23518 0.32759 0.09411 0.0
H1693 H 0.40103 0.29512 0.89657 0.0
H1694 H 0.66782 0.29039 0.878 0.0
H1695 H 0.68426 0.29616 0.92755 0.0
H1696 H 0.62208 0.32083 0.95998 0.0
H1697 H 0.60711 0.31828 0.90982 0.0
H1698 H 0.64747 0.34226 0.98555 0.0
H1699 H 0.64797 0.26396 0.97294 0.0
H1700 H 0.65669 0.22852 0.94902 0.0
H1701 H 0.72557 0.24174 0.95825 0.0
H1702 H 0.71724 0.27738 0.98193 0.0
H1703 H 0.66316 0.32486 0.13979 0.0
H1704 H 0.65313 0.31334 0.08917 0.0
H1705 H 0.71909 0.32603 0.05901 0.0
H1706 H 0.72933 0.33778 0.10958 0.0
H1707 H 0.695 0.28615 0.03315 0.0
H1708 H 0.68619 0.36544 0.05508 0.0
H1709 H 0.66988 0.39565 0.08456 0.0
H1710 H 0.60531 0.37219 0.06413 0.0
H1711 H 0.62105 0.34176 0.03477 0.0
C1712 C 0.65789 0.29727 0.89581 0.0
C1713 C 0.63616 0.30367 0.89026 0.0
C1714 C 0.66715 0.30027 0.92431 0.0
C1715 C 0.65437 0.30839 0.94821 0.0
C1716 C 0.63258 0.31467 0.9423 0.0
C1717 C 0.62384 0.31295 0.91355 0.0
C1718 C 0.6634 0.31086 0.97926 0.0
C1719 C 0.65753 0.32964 0.99581 0.0
C1720 C 0.67692 0.29479 0.99318 0.0
C1721 C 0.68198 0.27343 0.97887 0.0
C1722 C 0.66497 0.25936 0.96968 0.0
C1723 C 0.66985 0.23923 0.95619 0.0
C1724 C 0.69167 0.23291 0.95203 0.0
C1725 C 0.70867 0.24668 0.96143 0.0
C1726 C 0.70389 0.26683 0.97489 0.0
C1727 C 0.67573 0.32468 0.12264 0.0
C1728 C 0.69697 0.33257 0.12861 0.0
C1729 C 0.66994 0.31807 0.09374 0.0
C1730 C 0.68533 0.31912 0.07042 0.0
C1731 C 0.70702 0.32514 0.07679 0.0
C1732 C 0.7128 0.33191 0.10567 0.0
C1733 C 0.6781 0.31679 0.03897 0.0
C1734 C 0.68469 0.29839 0.02247 0.0
C1735 C 0.66405 0.33244 0.02567 0.0
C1736 C 0.65483 0.35118 0.04289 0.0
C1737 C 0.66852 0.36655 0.05713 0.0
C1738 C 0.6594 0.38369 0.07388 0.0
C1739 C 0.63666 0.3857 0.0764 0.0
C1740 C 0.62294 0.37061 0.06217 0.0
C1741 C 0.63194 0.35345 0.04544 0.0
H1742 H 0.62967 0.39905 0.08925 0.0
H1743 H 0.69541 0.21733 0.94159 0.0
H1744 H 0.29365 0.07327 0.26619 0.0
H1745 H 0.33336 0.0779 0.25979 0.0
H1746 H 0.32897 0.1422 0.30006 0.0
H1747 H 0.29002 0.13751 0.30714 0.0
H1748 H 0.3539 0.10426 0.22661 0.0
H1749 H 0.36886 0.15976 0.3347 0.0
H1750 H 0.3633 0.15578 0.38904 0.0
H1751 H 0.35942 0.08581 0.37943 0.0
H1752 H 0.36536 0.08924 0.32501 0.0
H1753 H 0.36594 0.2078 0.2018 0.0
H1754 H 0.36228 0.16949 0.21435 0.0
H1755 H 0.4233 0.17163 0.26351 0.0
H1756 H 0.42691 0.21076 0.25136 0.0
H1757 H 0.39468 0.15286 0.2962 0.0
H1758 H 0.41864 0.13376 0.20347 0.0
H1759 H 0.42662 0.13525 0.14938 0.0
H1760 H 0.35815 0.12748 0.12948 0.0
H1761 H 0.34963 0.12634 0.18334 0.0
C1762 C 0.30129 0.08827 0.27397 0.0
C1763 C 0.28865 0.1051 0.28699 0.0
C1764 C 0.32399 0.09079 0.27054 0.0
C1765 C 0.33436 0.11012 0.28018 0.0
C1766 C 0.32167 0.12672 0.2935 0.0
C1767 C 0.29919 0.12419 0.29706 0.0
C1768 C 0.35745 0.11514 0.27229 0.0
C1769 C 0.36322 0.11448 0.24187 0.0
C1770 C 0.37098 0.12675 0.29262 0.0
C1771 C 0.36778 0.12475 0.3256 0.0
C1772 C 0.36717 0.14346 0.34411 0.0
C1773 C 0.36383 0.14132 0.37498 0.0
C1774 C 0.36106 0.12056 0.38769 0.0
C1775 C 0.36159 0.10189 0.36955 0.0
C1776 C 0.36492 0.10393 0.33868 0.0
C1777 C 0.37879 0.2002 0.215 0.0
C1778 C 0.39661 0.21244 0.2258 0.0
C1779 C 0.37688 0.17806 0.22175 0.0
C1780 C 0.39285 0.16739 0.23919 0.0
C1781 C 0.41097 0.17941 0.24962 0.0
C1782 C 0.41289 0.20179 0.24286 0.0
C1783 C 0.38808 0.14491 0.25004 0.0
C1784 C 0.38618 0.14184 0.28108 0.0
C1785 C 0.37877 0.12922 0.2304 0.0
C1786 C 0.38354 0.12973 0.19767 0.0
C1787 C 0.40525 0.1324 0.1876 0.0
C1788 C 0.40987 0.13321 0.15693 0.0
C1789 C 0.39291 0.13138 0.13601 0.0
C1790 C 0.37129 0.12877 0.14572 0.0
C1791 C 0.36657 0.12795 0.17637 0.0
H1792 H 0.39652 0.13204 0.11227 0.0
H1793 H 0.35845 0.11894 0.41159 0.0
H1794 H 0.79063 0.42014 0.25325 0.0
H1795 H 0.82932 0.41149 0.26351 0.0
H1796 H 0.82158 0.34941 0.21817 0.0
H1797 H 0.78365 0.35789 0.20756 0.0
H1798 H 0.8468 0.38004 0.29569 0.0
H1799 H 0.86224 0.33341 0.18114 0.0
H1800 H 0.8564 0.34091 0.1275 0.0
H1801 H 0.85336 0.41003 0.1455 0.0
H1802 H 0.85956 0.40304 0.19925 0.0
H1803 H 0.87103 0.27477 0.3078 0.0
H1804 H 0.86194 0.31297 0.30062 0.0
H1805 H 0.92084 0.32225 0.24837 0.0
H1806 H 0.92982 0.2833 0.25481 0.0
H1807 H 0.8895 0.3388 0.21965 0.0
H1808 H 0.91282 0.35312 0.31515 0.0
H1809 H 0.9209 0.34828 0.36886 0.0
H1810 H 0.85203 0.34913 0.38889 0.0
H1811 H 0.84344 0.35358 0.33532 0.0
C1812 C 0.7973 0.40472 0.24533 0.0
C1813 C 0.78405 0.38971 0.22955 0.0
C1814 C 0.8194 0.39989 0.25106 0.0
C1815 C 0.82852 0.38011 0.24084 0.0
C1816 C 0.81519 0.36515 0.22533 0.0
C1817 C 0.79332 0.36992 0.21961 0.0
C1818 C 0.85112 0.37332 0.2487 0.0
C1819 C 0.85652 0.37138 0.27914 0.0
C1820 C 0.86481 0.36347 0.22692 0.0
C1821 C 0.86151 0.36769 0.19436 0.0
C1822 C 0.86063 0.35024 0.1737 0.0
C1823 C 0.85716 0.3544 0.14324 0.0
C1824 C 0.85454 0.37593 0.13309 0.0
C1825 C 0.85539 0.39336 0.15339 0.0
C1826 C 0.85887 0.3893 0.18387 0.0
C1827 C 0.88228 0.28489 0.29507 0.0
C1828 C 0.90104 0.27588 0.28161 0.0
C1829 C 0.87723 0.30696 0.29138 0.0
C1830 C 0.89097 0.32076 0.27455 0.0
C1831 C 0.91011 0.312 0.26173 0.0
C1832 C 0.91514 0.28972 0.26526 0.0
C1833 C 0.883 0.34305 0.26677 0.0
C1834 C 0.88058 0.34819 0.2363 0.0
C1835 C 0.87265 0.35644 0.28853 0.0
C1836 C 0.8775 0.35384 0.32104 0.0
C1837 C 0.89937 0.3522 0.33096 0.0
C1838 C 0.90404 0.34952 0.36142 0.0
C1839 C 0.887 0.34844 0.38228 0.0
C1840 C 0.86523 0.35005 0.37271 0.0
C1841 C 0.86045 0.35274 0.34227 0.0
H1842 H 0.89065 0.34634 0.40585 0.0
H1843 H 0.85183 0.37911 0.10951 0.0
H1844 H 0.70655 0.92404 0.23851 0.0
H1845 H 0.66877 0.91459 0.22439 0.0
H1846 H 0.66934 0.86193 0.28918 0.0
H1847 H 0.70629 0.87142 0.30363 0.0
H1848 H 0.65576 0.87969 0.19862 0.0
H1849 H 0.62434 0.84852 0.31737 0.0
H1850 H 0.62141 0.86378 0.36829 0.0
H1851 H 0.62648 0.92911 0.33299 0.0
H1852 H 0.62906 0.91433 0.28171 0.0
H1853 H 0.63333 0.77328 0.20184 0.0
H1854 H 0.64251 0.81177 0.20661 0.0
H1855 H 0.57722 0.82567 0.23902 0.0
H1856 H 0.56811 0.78651 0.2353 0.0
H1857 H 0.60398 0.84653 0.27141 0.0
H1858 H 0.59471 0.84735 0.16922 0.0
H1859 H 0.59489 0.83489 0.11667 0.0
H1860 H 0.66531 0.8361 0.11604 0.0
H1861 H 0.66563 0.8482 0.16869 0.0
C1862 C 0.6984 0.91069 0.25004 0.0
C1863 C 0.70952 0.89831 0.27194 0.0
C1864 C 0.6768 0.90541 0.24207 0.0
C1865 C 0.66599 0.88784 0.25611 0.0
C1866 C 0.67694 0.87602 0.27862 0.0
C1867 C 0.69834 0.88124 0.28654 0.0
C1868 C 0.64494 0.87904 0.24457 0.0
C1869 C 0.64407 0.87282 0.21433 0.0
C1870 C 0.62861 0.87138 0.26453 0.0
C1871 C 0.62678 0.88027 0.29551 0.0
C1872 C 0.62455 0.86616 0.32032 0.0
C1873 C 0.62304 0.87473 0.34932 0.0
C1874 C 0.62374 0.89739 0.35387 0.0
C1875 C 0.62596 0.91155 0.32943 0.0
C1876 C 0.62747 0.90307 0.30039 0.0
C1877 C 0.62083 0.78449 0.20982 0.0
C1878 C 0.60001 0.77687 0.2182 0.0
C1879 C 0.62599 0.80663 0.21212 0.0
C1880 C 0.61032 0.82184 0.22218 0.0
C1881 C 0.58947 0.8143 0.23076 0.0
C1882 C 0.58435 0.79194 0.22884 0.0
C1883 C 0.6171 0.84497 0.22664 0.0
C1884 C 0.61496 0.8541 0.25536 0.0
C1885 C 0.63004 0.85593 0.20494 0.0
C1886 C 0.63016 0.84885 0.173 0.0
C1887 C 0.61026 0.84492 0.15793 0.0
C1888 C 0.61027 0.8379 0.12809 0.0
C1889 C 0.6301 0.83475 0.11301 0.0
C1890 C 0.64996 0.83863 0.12772 0.0
C1891 C 0.65004 0.84566 0.15756 0.0
H1892 H 0.63007 0.82928 0.08992 0.0
H1893 H 0.62258 0.90399 0.37634 0.0
H1894 H 0.07797 0.72061 0.24197 0.0
H1895 H 0.0909 0.68308 0.2329 0.0
H1896 H 0.15033 0.6974 0.28182 0.0
H1897 H 0.13742 0.73438 0.29154 0.0
H1898 H 0.12402 0.66808 0.20345 0.0
H1899 H 0.16981 0.65683 0.31908 0.0
H1900 H 0.16225 0.66426 0.37236 0.0
H1901 H 0.09307 0.66535 0.3543 0.0
H1902 H 0.10014 0.65756 0.30097 0.0
H1903 H 0.22787 0.63153 0.1917 0.0
H1904 H 0.19183 0.64697 0.20001 0.0
H1905 H 0.17466 0.59183 0.25607 0.0
H1906 H 0.21142 0.57639 0.2485 0.0
H1907 H 0.16358 0.62698 0.28285 0.0
H1908 H 0.14673 0.60079 0.18822 0.0
H1909 H 0.1513 0.59086 0.13504 0.0
H1910 H 0.15655 0.65897 0.11155 0.0
H1911 H 0.15238 0.66935 0.1646 0.0
C1912 C 0.09378 0.71568 0.25082 0.0
C1913 C 0.10667 0.73043 0.26754 0.0
C1914 C 0.10106 0.69423 0.24576 0.0
C1915 C 0.12129 0.68725 0.25737 0.0
C1916 C 0.1343 0.70213 0.27354 0.0
C1917 C 0.127 0.7234 0.27879 0.0
C1918 C 0.1301 0.66514 0.25083 0.0
C1919 C 0.13237 0.65881 0.22078 0.0
C1920 C 0.13985 0.65224 0.27363 0.0
C1921 C 0.13553 0.65657 0.30591 0.0
C1922 C 0.15296 0.65841 0.32647 0.0
C1923 C 0.14876 0.66276 0.3567 0.0
C1924 C 0.1272 0.66528 0.36671 0.0
C1925 C 0.10977 0.66342 0.34651 0.0
C1926 C 0.11387 0.65907 0.31626 0.0
C1927 C 0.21643 0.62246 0.20555 0.0
C1928 C 0.22258 0.60276 0.21956 0.0
C1929 C 0.19563 0.6312 0.20997 0.0
C1930 C 0.18027 0.62031 0.22807 0.0
C1931 C 0.18617 0.60039 0.24175 0.0
C1932 C 0.20718 0.59166 0.23752 0.0
C1933 C 0.15936 0.63149 0.23528 0.0
C1934 C 0.15461 0.63564 0.26551 0.0
C1935 C 0.14674 0.64185 0.21267 0.0
C1936 C 0.14917 0.63585 0.18052 0.0
C1937 C 0.14895 0.61367 0.17176 0.0
C1938 C 0.15147 0.60796 0.14161 0.0
C1939 C 0.15419 0.62428 0.11993 0.0
C1940 C 0.15438 0.64635 0.12836 0.0
C1941 C 0.15187 0.65216 0.15849 0.0
H1942 H 0.15615 0.61982 0.0966 0.0
H1943 H 0.12399 0.66866 0.39012 0.0
H1944 H 0.42858 0.78611 0.74203 0.0
H1945 H 0.41911 0.82503 0.73526 0.0
H1946 H 0.36017 0.8152 0.78717 0.0
H1947 H 0.36957 0.77712 0.79448 0.0
H1948 H 0.38643 0.84305 0.7078 0.0
H1949 H 0.34468 0.85453 0.82673 0.0
H1950 H 0.35462 0.84737 0.87933 0.0
H1951 H 0.42285 0.84589 0.8556 0.0
H1952 H 0.41341 0.85343 0.80288 0.0
H1953 H 0.28061 0.86717 0.70417 0.0
H1954 H 0.31878 0.85715 0.70979 0.0
H1955 H 0.33042 0.91533 0.76267 0.0
H1956 H 0.29159 0.92535 0.75767 0.0
H1957 H 0.34791 0.88284 0.78928 0.0
H1958 H 0.35806 0.90909 0.69413 0.0
H1959 H 0.35077 0.9186 0.64137 0.0
H1960 H 0.35116 0.85033 0.61771 0.0
H1961 H 0.35807 0.84032 0.67034 0.0
C1962 C 0.41371 0.7924 0.75216 0.0
C1963 C 0.39984 0.77852 0.76882 0.0
C1964 C 0.40842 0.81462 0.74844 0.0
C1965 C 0.38929 0.82322 0.76148 0.0
C1966 C 0.37548 0.80926 0.77789 0.0
C1967 C 0.38075 0.78729 0.78171 0.0
C1968 C 0.38174 0.8459 0.75547 0.0
C1969 C 0.37838 0.85213 0.72557 0.0
C1970 C 0.37262 0.85879 0.77875 0.0
C1971 C 0.37832 0.8547 0.81072 0.0
C1972 C 0.36184 0.85299 0.83271 0.0
C1973 C 0.36738 0.84876 0.86257 0.0
C1974 C 0.38935 0.84621 0.87081 0.0
C1975 C 0.40583 0.84787 0.84919 0.0
C1976 C 0.40039 0.8521 0.8193 0.0
C1977 C 0.29123 0.87802 0.71681 0.0
C1978 C 0.28299 0.897 0.73061 0.0
C1979 C 0.31324 0.87243 0.71963 0.0
C1980 C 0.3277 0.88582 0.73594 0.0
C1981 C 0.31964 0.90493 0.74962 0.0
C1982 C 0.29743 0.91052 0.74693 0.0
C1983 C 0.35027 0.87774 0.74162 0.0
C1984 C 0.35671 0.87453 0.77148 0.0
C1985 C 0.36282 0.86824 0.71829 0.0
C1986 C 0.35874 0.87396 0.68633 0.0
C1987 C 0.35653 0.89607 0.67772 0.0
C1988 C 0.35245 0.90156 0.6478 0.0
C1989 C 0.35055 0.88508 0.62619 0.0
C1990 C 0.35272 0.86308 0.63446 0.0
C1991 C 0.3568 0.85749 0.66435 0.0
H1992 H 0.34738 0.88937 0.60305 0.0
H1993 H 0.39359 0.8429 0.89394 0.0
H1994 H 0.20635 0.42926 0.75439 0.0
H1995 H 0.16683 0.42245 0.74903 0.0
H1996 H 0.17454 0.36063 0.79524 0.0
H1997 H 0.21325 0.36759 0.80144 0.0
H1998 H 0.14655 0.39392 0.71938 0.0
H1999 H 0.13531 0.34297 0.83215 0.0
H2000 H 0.14268 0.34898 0.88576 0.0
H2001 H 0.14569 0.41853 0.87109 0.0
H2002 H 0.13795 0.41305 0.8174 0.0
H2003 H 0.12666 0.28966 0.70048 0.0
H2004 H 0.13391 0.32781 0.71071 0.0
H2005 H 0.07642 0.33124 0.76706 0.0
H2006 H 0.06929 0.29221 0.75743 0.0
H2007 H 0.10764 0.34887 0.79514 0.0
H2008 H 0.0802 0.36619 0.70323 0.0
H2009 H 0.06979 0.36345 0.64999 0.0
H2010 H 0.13753 0.3675 0.62433 0.0
H2011 H 0.14845 0.36986 0.67734 0.0
C2012 C 0.19946 0.41436 0.76368 0.0
C2013 C 0.21293 0.39893 0.77829 0.0
C2014 C 0.17687 0.41057 0.76079 0.0
C2015 C 0.16749 0.39133 0.77247 0.0
C2016 C 0.18105 0.37606 0.78711 0.0
C2017 C 0.20338 0.3799 0.79023 0.0
C2018 C 0.14444 0.38507 0.76604 0.0
C2019 C 0.13768 0.38446 0.73598 0.0
C2020 C 0.1316 0.37432 0.78803 0.0
C2021 C 0.13587 0.37759 0.82059 0.0
C2022 C 0.13722 0.3596 0.84032 0.0
C2023 C 0.14157 0.3629 0.87076 0.0
C2024 C 0.14462 0.38412 0.88183 0.0
C2025 C 0.14333 0.40209 0.86248 0.0
C2026 C 0.13897 0.39889 0.83202 0.0
C2027 C 0.11531 0.29846 0.71479 0.0
C2028 C 0.09749 0.28778 0.72833 0.0
C2029 C 0.11928 0.32053 0.72025 0.0
C2030 C 0.10537 0.33271 0.73903 0.0
C2031 C 0.08721 0.32227 0.75217 0.0
C2032 C 0.08326 0.29996 0.7468 0.0
C2033 C 0.11235 0.35508 0.74804 0.0
C2034 C 0.11576 0.3591 0.77865 0.0
C2035 C 0.12137 0.3697 0.72669 0.0
C2036 C 0.11513 0.36839 0.69446 0.0
C2037 C 0.09291 0.36644 0.68627 0.0
C2038 C 0.08692 0.36494 0.65609 0.0
C2039 C 0.10299 0.36536 0.63379 0.0
C2040 C 0.12509 0.36728 0.64163 0.0
C2041 C 0.13119 0.36879 0.67178 0.0
H2042 H 0.09831 0.36417 0.61044 0.0
H2043 H 0.14802 0.38663 0.9054 0.0
H2044 H 0.63769 0.21895 0.77941 0.0
H2045 H 0.64553 0.18055 0.7691 0.0
H2046 H 0.57858 0.17047 0.74072 0.0
H2047 H 0.57075 0.20942 0.75004 0.0
H2048 H 0.62291 0.14219 0.79474 0.0
H2049 H 0.58155 0.14332 0.69772 0.0
H2050 H 0.56683 0.16377 0.65431 0.0
H2051 H 0.6308 0.19037 0.63676 0.0
H2052 H 0.64578 0.1702 0.68025 0.0
H2053 H 0.71013 0.07027 0.75037 0.0
H2054 H 0.67096 0.07923 0.75447 0.0
H2055 H 0.68286 0.141 0.70987 0.0
H2056 H 0.72136 0.13201 0.70505 0.0
H2057 H 0.64514 0.12411 0.69082 0.0
H2058 H 0.68252 0.1354 0.79107 0.0
H2059 H 0.7014 0.12004 0.83539 0.0
H2060 H 0.64904 0.07371 0.84752 0.0
H2061 H 0.62996 0.08879 0.80315 0.0
C2062 C 0.62465 0.20863 0.7708 0.0
C2063 C 0.60367 0.21716 0.7654 0.0
C2064 C 0.62908 0.18667 0.76511 0.0
C2065 C 0.61259 0.17269 0.7543 0.0
C2066 C 0.59156 0.18106 0.74878 0.0
C2067 C 0.58716 0.20327 0.75406 0.0
C2068 C 0.6186 0.14972 0.74795 0.0
C2069 C 0.62694 0.13741 0.77196 0.0
C2070 C 0.62353 0.14335 0.71833 0.0
C2071 C 0.61468 0.15544 0.69225 0.0
C2072 C 0.5924 0.15363 0.68464 0.0
C2073 C 0.58403 0.16514 0.66005 0.0
C2074 C 0.59786 0.1784 0.64283 0.0
C2075 C 0.6201 0.18013 0.65014 0.0
C2076 C 0.62853 0.16866 0.67474 0.0
C2077 C 0.70428 0.08571 0.74137 0.0
C2078 C 0.71884 0.10054 0.72761 0.0
C2079 C 0.68191 0.09071 0.74354 0.0
C2080 C 0.67395 0.11071 0.73231 0.0
C2081 C 0.6885 0.12527 0.71822 0.0
C2082 C 0.71063 0.12023 0.71579 0.0
C2083 C 0.65126 0.11832 0.73778 0.0
C2084 C 0.6397 0.12743 0.71354 0.0
C2085 C 0.64361 0.12201 0.76726 0.0
C2086 C 0.65499 0.11302 0.7938 0.0
C2087 C 0.67512 0.1219 0.80321 0.0
C2088 C 0.68583 0.11325 0.82829 0.0
C2089 C 0.67645 0.09587 0.84421 0.0
C2090 C 0.65631 0.08714 0.83512 0.0
C2091 C 0.64554 0.09571 0.81003 0.0
H2092 H 0.68476 0.0892 0.86363 0.0
H2093 H 0.59136 0.18729 0.62379 0.0
H2094 H 0.79981 0.61515 0.80747 0.0
H2095 H 0.83625 0.62453 0.7895 0.0
H2096 H 0.82687 0.58308 0.71216 0.0
H2097 H 0.79006 0.57367 0.72989 0.0
H2098 H 0.87589 0.60571 0.76877 0.0
H2099 H 0.84155 0.6143 0.65362 0.0
H2100 H 0.8063 0.61439 0.62621 0.0
H2101 H 0.7748 0.6453 0.70127 0.0
H2102 H 0.80992 0.64554 0.7289 0.0
H2103 H 0.90378 0.70954 0.66605 0.0
H2104 H 0.8971 0.67006 0.66946 0.0
H2105 H 0.89412 0.67545 0.76602 0.0
H2106 H 0.90248 0.71451 0.76246 0.0
H2107 H 0.86104 0.65679 0.68467 0.0
H2108 H 0.89538 0.63023 0.80324 0.0
H2109 H 0.93062 0.63141 0.83023 0.0
H2110 H 0.9651 0.63785 0.74681 0.0
H2111 H 0.93011 0.63635 0.71919 0.0
C2112 C 0.80559 0.60766 0.78692 0.0
C2113 C 0.79181 0.59421 0.76963 0.0
C2114 C 0.8266 0.61277 0.77692 0.0
C2115 C 0.83414 0.60464 0.7494 0.0
C2116 C 0.82126 0.58954 0.73344 0.0
C2117 C 0.80018 0.58437 0.74348 0.0
C2118 C 0.85281 0.61591 0.73507 0.0
C2119 C 0.87302 0.61673 0.75009 0.0
C2120 C 0.84928 0.62946 0.70985 0.0
C2121 C 0.82821 0.6297 0.69334 0.0
C2122 C 0.82708 0.62113 0.66418 0.0
C2123 C 0.80715 0.62113 0.64863 0.0
C2124 C 0.78831 0.62978 0.66203 0.0
C2125 C 0.78938 0.63855 0.69094 0.0
C2126 C 0.80928 0.63863 0.70654 0.0
C2127 C 0.9024 0.702 0.68798 0.0
C2128 C 0.90324 0.71484 0.71403 0.0
C2129 C 0.8987 0.67948 0.68994 0.0
C2130 C 0.89503 0.66962 0.71796 0.0
C2131 C 0.89741 0.68236 0.74412 0.0
C2132 C 0.90185 0.70478 0.74215 0.0
C2133 C 0.88396 0.64797 0.7197 0.0
C2134 C 0.86497 0.64514 0.70226 0.0
C2135 C 0.88887 0.63253 0.74248 0.0
C2136 C 0.91003 0.63317 0.75908 0.0
C2137 C 0.91046 0.63167 0.79057 0.0
C2138 C 0.93042 0.63246 0.80601 0.0
C2139 C 0.95009 0.63471 0.79025 0.0
C2140 C 0.94985 0.63615 0.759 0.0
C2141 C 0.92995 0.63536 0.74344 0.0
H2142 H 0.96551 0.63533 0.80225 0.0
H2143 H 0.77289 0.62972 0.64998 0.0
H2144 H 0.18983 0.07493 0.42171 0.0
H2145 H 0.19241 0.05736 0.47101 0.0
H2146 H 0.24019 0.01182 0.4362 0.0
H2147 H 0.23863 0.03018 0.38729 0.0
H2148 H 0.20375 0.99242 0.46823 0.0
H2149 H 0.26079 0.04436 0.48086 0.0
H2150 H 0.28197 0.0787 0.48469 0.0
H2151 H 0.23514 0.10433 0.54744 0.0
H2152 H 0.21364 0.07011 0.54395 0.0
H2153 H 0.2381 0.94464 0.60416 0.0
H2154 H 0.23927 0.96536 0.55725 0.0
H2155 H 0.19244 0.01156 0.59296 0.0
H2156 H 0.19105 0.99057 0.64009 0.0
H2157 H 0.22866 0.03048 0.56056 0.0
H2158 H 0.17403 0.97384 0.54932 0.0
H2159 H 0.16224 0.93529 0.55383 0.0
H2160 H 0.2107 0.91597 0.48922 0.0
H2161 H 0.22319 0.95438 0.48485 0.0
C2162 C 0.20095 0.06123 0.42467 0.0
C2163 C 0.21382 0.05371 0.40067 0.0
C2164 C 0.20245 0.05129 0.45277 0.0
C2165 C 0.21656 0.03341 0.45714 0.0
C2166 C 0.22921 0.02562 0.43314 0.0
C2167 C 0.22807 0.0359 0.40517 0.0
C2168 C 0.21724 0.02226 0.48649 0.0
C2169 C 0.20938 0.00067 0.48837 0.0
C2170 C 0.22436 0.03316 0.51273 0.0
C2171 C 0.23548 0.05477 0.51188 0.0
C2172 C 0.25476 0.05748 0.49501 0.0
C2173 C 0.26698 0.07681 0.49742 0.0
C2174 C 0.26005 0.09356 0.5166 0.0
C2175 C 0.2406 0.09124 0.53285 0.0
C2176 C 0.22838 0.0719 0.53063 0.0
C2177 C 0.22807 0.95923 0.60194 0.0
C2178 C 0.21412 0.96587 0.62526 0.0
C2179 C 0.2288 0.97104 0.57528 0.0
C2180 C 0.21564 0.98969 0.57158 0.0
C2181 C 0.20258 0.99708 0.59545 0.0
C2182 C 0.20179 0.98516 0.62222 0.0
C2183 C 0.21496 0.00088 0.54229 0.0
C2184 C 0.22276 0.02242 0.54042 0.0
C2185 C 0.20815 0.98981 0.51601 0.0
C2186 C 0.19971 0.96697 0.51702 0.0
C2187 C 0.18223 0.96137 0.53614 0.0
C2188 C 0.17546 0.93955 0.53872 0.0
C2189 C 0.18586 0.92321 0.52204 0.0
C2190 C 0.20279 0.92867 0.50229 0.0
C2191 C 0.20971 0.95047 0.49974 0.0
H2192 H 0.18079 0.90632 0.52443 0.0
H2193 H 0.26962 0.10844 0.51859 0.0
H2194 H 0.95319 0.23353 0.39592 0.0
H2195 H 0.97182 0.2346 0.44451 0.0
H2196 H 0.99823 0.16993 0.42829 0.0
H2197 H 0.97919 0.16882 0.37962 0.0
H2198 H 0.97881 0.17256 0.48235 0.0
H2199 H 0.03152 0.21466 0.42813 0.0
H2200 H 0.04473 0.24395 0.39456 0.0
H2201 H 0.01985 0.29282 0.45496 0.0
H2202 H 0.00618 0.26382 0.4887 0.0
H2203 H 0.05204 0.17493 0.60771 0.0
H2204 H 0.0346 0.17247 0.55829 0.0
H2205 H 0.00352 0.2352 0.57294 0.0
H2206 H 0.02105 0.23763 0.62248 0.0
H2207 H 0.0264 0.23281 0.51932 0.0
H2208 H 0.97286 0.1904 0.57271 0.0
H2209 H 0.95996 0.16095 0.60625 0.0
H2210 H 0.98708 0.11244 0.54713 0.0
H2211 H 0.00044 0.14163 0.51342 0.0
C2212 C 0.96334 0.21977 0.40261 0.0
C2213 C 0.96488 0.20109 0.38441 0.0
C2214 C 0.97399 0.22038 0.43025 0.0
C2215 C 0.98649 0.20238 0.43994 0.0
C2216 C 0.98865 0.18398 0.42118 0.0
C2217 C 0.97795 0.18338 0.39345 0.0
C2218 C 0.99591 0.20228 0.47054 0.0
C2219 C 0.98955 0.18551 0.49028 0.0
C2220 C 0.00941 0.21953 0.48106 0.0
C2221 C 0.01765 0.23704 0.46083 0.0
C2222 C 0.0287 0.23165 0.43415 0.0
C2223 C 0.0363 0.2482 0.41511 0.0
C2224 C 0.03309 0.27023 0.42259 0.0
C2225 C 0.02231 0.27575 0.44918 0.0
C2226 C 0.01465 0.25926 0.46829 0.0
C2227 C 0.04097 0.18785 0.6006 0.0
C2228 C 0.0375 0.20629 0.61878 0.0
C2229 C 0.03111 0.18649 0.57245 0.0
C2230 C 0.01774 0.20363 0.56207 0.0
C2231 C 0.01375 0.2218 0.58065 0.0
C2232 C 0.02352 0.22308 0.60894 0.0
C2233 C 0.00916 0.20319 0.53108 0.0
C2234 C 0.01571 0.21983 0.51129 0.0
C2235 C 0.9959 0.18581 0.5205 0.0
C2236 C 0.98784 0.16822 0.54069 0.0
C2237 C 0.97625 0.17346 0.56699 0.0
C2238 C 0.96882 0.15682 0.58601 0.0
C2239 C 0.97275 0.13484 0.57887 0.0
C2240 C 0.98407 0.12947 0.55265 0.0
C2241 C 0.99156 0.14606 0.53356 0.0
H2242 H 0.96698 0.12198 0.59361 0.0
H2243 H 0.03899 0.28302 0.40782 0.0
H2244 H 0.80402 0.9382 0.41329 0.0
H2245 H 0.80042 0.95546 0.46261 0.0
H2246 H 0.74967 0.99784 0.42823 0.0
H2247 H 0.75259 0.97997 0.37895 0.0
H2248 H 0.78602 0.01815 0.46483 0.0
H2249 H 0.7312 0.96429 0.46509 0.0
H2250 H 0.71105 0.9294 0.46199 0.0
H2251 H 0.75052 0.90272 0.5329 0.0
H2252 H 0.77167 0.9371 0.53552 0.0
H2253 H 0.75628 0.0561 0.60904 0.0
H2254 H 0.75081 0.03808 0.56061 0.0
H2255 H 0.8008 0.99069 0.58297 0.0
H2256 H 0.8066 0.00905 0.63155 0.0
H2257 H 0.76011 0.97447 0.55188 0.0
H2258 H 0.81793 0.03004 0.54374 0.0
H2259 H 0.83072 0.06782 0.55318 0.0
H2260 H 0.77747 0.09327 0.50057 0.0
H2261 H 0.76434 0.0556 0.49085 0.0
C2262 C 0.79218 0.95129 0.41623 0.0
C2263 C 0.77864 0.95785 0.39239 0.0
C2264 C 0.79009 0.96103 0.44436 0.0
C2265 C 0.77453 0.97758 0.44904 0.0
C2266 C 0.76164 0.98492 0.42497 0.0
C2267 C 0.76349 0.97491 0.39685 0.0
C2268 C 0.77222 0.9873 0.47915 0.0
C2269 C 0.78009 0.00867 0.48376 0.0
C2270 C 0.76445 0.97487 0.50382 0.0
C2271 C 0.75334 0.95329 0.50014 0.0
C2272 C 0.73608 0.95082 0.47945 0.0
C2273 C 0.72433 0.93115 0.47793 0.0
C2274 C 0.72941 0.9139 0.49735 0.0
C2275 C 0.74648 0.91616 0.51802 0.0
C2276 C 0.75848 0.93568 0.51935 0.0
C2277 C 0.7659 0.04167 0.6037 0.0
C2278 C 0.78218 0.03411 0.62345 0.0
C2279 C 0.76273 0.03141 0.57618 0.0
C2280 C 0.77566 0.01335 0.56821 0.0
C2281 C 0.79078 0.00472 0.58886 0.0
C2282 C 0.79407 0.01512 0.61644 0.0
C2283 C 0.77464 0.00471 0.53741 0.0
C2284 C 0.76611 0.98371 0.53277 0.0
C2285 C 0.78138 0.01753 0.51268 0.0
C2286 C 0.7901 0.04004 0.51672 0.0
C2287 C 0.80899 0.0437 0.53412 0.0
C2288 C 0.8163 0.06508 0.53952 0.0
C2289 C 0.80488 0.08293 0.52756 0.0
C2290 C 0.78629 0.07942 0.50984 0.0
C2291 C 0.77896 0.05806 0.50426 0.0
H2292 H 0.81046 0.09946 0.53202 0.0
H2293 H 0.72021 0.89874 0.49626 0.0
H2294 H 0.93496 0.81612 0.58514 0.0
H2295 H 0.95263 0.80998 0.53657 0.0
H2296 H 0.99471 0.76112 0.57641 0.0
H2297 H 0.9762 0.76632 0.62478 0.0
H2298 H 0.01504 0.79527 0.53377 0.0
H2299 H 0.96428 0.73809 0.54179 0.0
H2300 H 0.93033 0.71722 0.5507 0.0
H2301 H 0.8971 0.75512 0.48342 0.0
H2302 H 0.93082 0.77658 0.47449 0.0
H2303 H 0.04657 0.75293 0.39128 0.0
H2304 H 0.02845 0.74967 0.44013 0.0
H2305 H 0.98739 0.80512 0.41855 0.0
H2306 H 0.00609 0.80889 0.36996 0.0
H2307 H 0.96877 0.76257 0.45363 0.0
H2308 H 0.02545 0.82116 0.45131 0.0
H2309 H 0.0632 0.83301 0.43962 0.0
H2310 H 0.08892 0.7826 0.497 0.0
H2311 H 0.05128 0.77024 0.50863 0.0
C2312 C 0.94818 0.80429 0.58357 0.0
C2313 C 0.95437 0.79182 0.60863 0.0
C2314 C 0.95817 0.80076 0.55592 0.0
C2315 C 0.97478 0.78501 0.55307 0.0
C2316 C 0.98189 0.77335 0.57837 0.0
C2317 C 0.97151 0.77652 0.60596 0.0
C2318 C 0.98392 0.78037 0.52321 0.0
C2319 C 0.00504 0.78789 0.51635 0.0
C2320 C 0.97093 0.77046 0.5007 0.0
C2321 C 0.95002 0.75916 0.50777 0.0
C2322 C 0.94962 0.74235 0.52937 0.0
C2323 C 0.93047 0.73029 0.53427 0.0
C2324 C 0.91164 0.73476 0.51751 0.0
C2325 C 0.91176 0.75162 0.49628 0.0
C2326 C 0.93088 0.76378 0.49133 0.0
C2327 C 0.03328 0.76404 0.39677 0.0
C2328 C 0.02789 0.78143 0.3775 0.0
C2329 C 0.02301 0.76217 0.42452 0.0
C2330 C 0.00691 0.77736 0.43283 0.0
C2331 C -0.00011 0.79334 0.41231 0.0
C2332 C 0.01046 0.79545 0.3847 0.0
C2333 C -0.0006 0.77826 0.46408 0.0
C2334 C 0.97866 0.76998 0.47114 0.0
C2335 C 0.01303 0.78679 0.48695 0.0
C2336 C 0.03558 0.79466 0.48061 0.0
C2337 C 0.03916 0.81252 0.46127 0.0
C2338 C 0.06053 0.81935 0.4547 0.0
C2339 C 0.07845 0.80853 0.46751 0.0
C2340 C 0.07502 0.79094 0.48705 0.0
C2341 C 0.05368 0.78404 0.49367 0.0
H2342 H 0.09497 0.81379 0.46233 0.0
H2343 H 0.89701 0.72506 0.52091 0.0
H2344 H 0.68634 0.54948 0.90006 0.0
H2345 H 0.68756 0.52853 0.947 0.0
H2346 H 0.73854 0.48744 0.91026 0.0
H2347 H 0.73801 0.50911 0.86381 0.0
H2348 H 0.70471 0.46491 0.94461 0.0
H2349 H 0.75394 0.52474 0.94906 0.0
H2350 H 0.76646 0.56301 0.94539 0.0
H2351 H 0.72451 0.58093 0.01861 0.0
H2352 H 0.71069 0.54301 0.02163 0.0
H2353 H 0.74159 0.42425 0.08627 0.0
H2354 H 0.7413 0.44156 0.03674 0.0
H2355 H 0.69197 0.48723 0.06696 0.0
H2356 H 0.69172 0.46943 0.11641 0.0
H2357 H 0.72781 0.50647 0.035 0.0
H2358 H 0.67365 0.44824 0.02123 0.0
H2359 H 0.65966 0.41028 0.02146 0.0
H2360 H 0.71435 0.3895 0.96788 0.0
H2361 H 0.72834 0.42753 0.96667 0.0
C2362 C 0.69753 0.53576 0.90201 0.0
C2363 C 0.71219 0.53094 0.87871 0.0
C2364 C 0.69826 0.52388 0.92867 0.0
C2365 C 0.71338 0.50673 0.9321 0.0
C2366 C 0.72684 0.50072 0.90795 0.0
C2367 C 0.72642 0.51295 0.88144 0.0
C2368 C 0.71593 0.49602 0.96154 0.0
C2369 C 0.71005 0.47391 0.9643 0.0
C2370 C 0.7228 0.50795 0.98715 0.0
C2371 C 0.73087 0.53097 0.98512 0.0
C2372 C 0.74693 0.53689 0.96393 0.0
C2373 C 0.7543 0.55856 0.96198 0.0
C2374 C 0.74613 0.57445 0.98157 0.0
C2375 C 0.73068 0.56865 0.00326 0.0
C2376 C 0.72297 0.54707 0.00498 0.0
C2377 C 0.73053 0.43784 0.0822 0.0
C2378 C 0.71635 0.44529 0.10482 0.0
C2379 C 0.73043 0.44772 0.054 0.0
C2380 C 0.71638 0.46542 0.04816 0.0
C2381 C 0.70282 0.47347 0.07108 0.0
C2382 C 0.70274 0.4634 0.09924 0.0
C2383 C 0.71598 0.4756 0.01812 0.0
C2384 C 0.72248 0.49756 0.01524 0.0
C2385 C 0.7099 0.46357 0.99234 0.0
C2386 C 0.70213 0.44061 0.99413 0.0
C2387 C 0.68279 0.43551 0.00976 0.0
C2388 C 0.67482 0.41401 0.00996 0.0
C2389 C 0.68622 0.39742 0.99494 0.0
C2390 C 0.70557 0.40234 0.97956 0.0
C2391 C 0.71345 0.42389 0.97895 0.0
H2392 H 0.67999 0.38079 0.99502 0.0
H2393 H 0.75189 0.59122 0.98008 0.0
H2394 H 0.45247 0.73949 0.88993 0.0
H2395 H 0.46895 0.7395 0.93995 0.0
H2396 H 0.49894 0.67676 0.9215 0.0
H2397 H 0.48218 0.67675 0.87129 0.0
H2398 H 0.47455 0.67663 0.97294 0.0
H2399 H 0.53024 0.72229 0.92917 0.0
H2400 H 0.5444 0.75378 0.90037 0.0
H2401 H 0.51434 0.79831 0.9626 0.0
H2402 H 0.49972 0.76709 0.99155 0.0
H2403 H 0.5429 0.66998 0.10145 0.0
H2404 H 0.52527 0.67086 0.05219 0.0
H2405 H 0.49718 0.73407 0.07301 0.0
H2406 H 0.51507 0.73321 0.1224 0.0
H2407 H 0.51968 0.73459 0.0208 0.0
H2408 H 0.46415 0.69026 0.06477 0.0
H2409 H 0.44848 0.65955 0.09366 0.0
H2410 H 0.47634 0.6135 0.03159 0.0
H2411 H 0.4925 0.64392 0.00256 0.0
C2412 C 0.46314 0.72606 0.89635 0.0
C2413 C 0.46626 0.70816 0.87707 0.0
C2414 C 0.47251 0.72605 0.92484 0.0
C2415 C 0.48517 0.70813 0.93438 0.0
C2416 C 0.48921 0.69072 0.91448 0.0
C2417 C 0.47986 0.69078 0.88585 0.0
C2418 C 0.49236 0.70674 0.966 0.0
C2419 C 0.48477 0.68908 0.98332 0.0
C2420 C 0.50485 0.72352 0.97971 0.0
C2421 C 0.51372 0.74233 0.96239 0.0
C2422 C 0.5265 0.7388 0.93659 0.0
C2423 C 0.53464 0.7566 0.92026 0.0
C2424 C 0.53023 0.77804 0.92961 0.0
C2425 C 0.51772 0.7817 0.95537 0.0
C2426 C 0.50953 0.76396 0.97176 0.0
C2427 C 0.53237 0.6837 0.09577 0.0
C2428 C 0.53 0.70139 0.11559 0.0
C2429 C 0.52234 0.68422 0.0677 0.0
C2430 C 0.50986 0.7025 0.05902 0.0
C2431 C 0.5067 0.7198 0.07938 0.0
C2432 C 0.51668 0.71921 0.10759 0.0
C2433 C 0.50205 0.70436 0.02771 0.0
C2434 C 0.50948 0.72212 0.01044 0.0
C2435 C 0.48926 0.68777 0.0141 0.0
C2436 C 0.47973 0.66939 0.03165 0.0
C2437 C 0.46714 0.67358 0.05745 0.0
C2438 C 0.45814 0.65622 0.07383 0.0
C2439 C 0.46147 0.63459 0.06452 0.0
C2440 C 0.4738 0.63027 0.0388 0.0
C2441 C 0.48288 0.64756 0.02236 0.0
H2442 H 0.45443 0.62118 0.07719 0.0
H2443 H 0.53655 0.7918 0.91694 0.0
H2444 H 0.32607 0.51571 0.12068 0.0
H2445 H 0.32643 0.49945 0.07034 0.0
H2446 H 0.25711 0.51258 0.06159 0.0
H2447 H 0.25678 0.52837 0.11214 0.0
H2448 H 0.26734 0.47471 0.03503 0.0
H2449 H 0.29421 0.54875 0.03283 0.0
H2450 H 0.31768 0.58004 0.04718 0.0
H2451 H 0.37501 0.54393 0.02086 0.0
H2452 H 0.35187 0.51244 0.0063 0.0
H2453 H 0.26152 0.47333 0.87699 0.0
H2454 H 0.26169 0.48966 0.92734 0.0
H2455 H 0.32819 0.46733 0.94046 0.0
H2456 H 0.32792 0.45088 0.89025 0.0
H2457 H 0.31915 0.51027 0.9642 0.0
H2458 H 0.29017 0.43605 0.96573 0.0
H2459 H 0.26509 0.40664 0.94927 0.0
H2460 H 0.20963 0.44554 0.97566 0.0
H2461 H 0.23439 0.47525 0.99211 0.0
C2462 C 0.31083 0.51428 0.10832 0.0
C2463 C 0.29134 0.52287 0.12007 0.0
C2464 C 0.31107 0.50533 0.07952 0.0
C2465 C 0.29188 0.50525 0.06204 0.0
C2466 C 0.27209 0.51253 0.07468 0.0
C2467 C 0.27185 0.52137 0.10353 0.0
C2468 C 0.2927 0.49906 0.02997 0.0
C2469 C 0.27852 0.48264 0.01952 0.0
C2470 C 0.30736 0.50936 0.00973 0.0
C2471 C 0.32134 0.52817 0.01875 0.0
C2472 C 0.31184 0.54744 0.03029 0.0
C2473 C 0.32507 0.56522 0.03838 0.0
C2474 C 0.34782 0.56393 0.03506 0.0
C2475 C 0.35739 0.54489 0.02348 0.0
C2476 C 0.34422 0.5271 0.01521 0.0
C2477 C 0.27637 0.47265 0.89032 0.0
C2478 C 0.29481 0.46121 0.87994 0.0
C2479 C 0.2764 0.48174 0.91905 0.0
C2480 C 0.29489 0.47946 0.93758 0.0
C2481 C 0.31382 0.46927 0.9264 0.0
C2482 C 0.3137 0.46 0.89781 0.0
C2483 C 0.29389 0.48591 0.96945 0.0
C2484 C 0.30802 0.50237 0.97981 0.0
C2485 C 0.27899 0.47587 0.9895 0.0
C2486 C 0.26412 0.45794 0.97988 0.0
C2487 C 0.27262 0.43838 0.96784 0.0
C2488 C 0.25847 0.42165 0.95856 0.0
C2489 C 0.23579 0.42426 0.96131 0.0
C2490 C 0.22721 0.44356 0.9735 0.0
C2491 C 0.24129 0.46033 0.98286 0.0
H2492 H 0.22486 0.4113 0.95407 0.0
H2493 H 0.35803 0.57771 0.04136 0.0
H2494 H 0.55174 0.31155 0.89866 0.0
H2495 H 0.53014 0.31339 0.94471 0.0
H2496 H 0.48833 0.26144 0.91204 0.0
H2497 H 0.51034 0.25935 0.8659 0.0
H2498 H 0.48778 0.32177 0.95665 0.0
H2499 H 0.47666 0.22843 0.97351 0.0
H2500 H 0.49491 0.19378 0.95941 0.0
H2501 H 0.5566 0.22742 0.95233 0.0
H2502 H 0.53878 0.26215 0.96684 0.0
H2503 H 0.41821 0.30694 0.0814 0.0
H2504 H 0.43519 0.30587 0.03208 0.0
H2505 H 0.4921 0.27398 0.07002 0.0
H2506 H 0.47387 0.27256 0.1187 0.0
H2507 H 0.48404 0.25556 0.02118 0.0
H2508 H 0.48903 0.33216 0.04858 0.0
H2509 H 0.47448 0.36797 0.06507 0.0
H2510 H 0.43217 0.37019 0.9881 0.0
H2511 H 0.44632 0.3343 0.97133 0.0
C2512 C 0.5378 0.30069 0.90127 0.0
C2513 C 0.53256 0.28534 0.879 0.0
C2514 C 0.52544 0.30182 0.92742 0.0
C2515 C 0.50775 0.28748 0.93177 0.0
C2516 C 0.50203 0.27255 0.90908 0.0
C2517 C 0.51443 0.27146 0.88277 0.0
C2518 C 0.49618 0.28759 0.96081 0.0
C2519 C 0.48682 0.30729 0.97075 0.0
C2520 C 0.49539 0.26878 0.97932 0.0
C2521 C 0.50631 0.24793 0.97086 0.0
C2522 C 0.49412 0.2284 0.96901 0.0
C2523 C 0.5044 0.20875 0.96096 0.0
C2524 C 0.52688 0.20841 0.95486 0.0
C2525 C 0.53916 0.22771 0.95693 0.0
C2526 C 0.52898 0.24739 0.96504 0.0
C2527 C 0.43426 0.29952 0.07915 0.0
C2528 C 0.44471 0.28983 0.10389 0.0
C2529 C 0.44412 0.29923 0.051 0.0
C2530 C 0.46515 0.29023 0.04732 0.0
C2531 C 0.47588 0.28106 0.07225 0.0
C2532 C 0.46564 0.28062 0.10022 0.0
C2533 C 0.47577 0.28989 0.01742 0.0
C2534 C 0.48484 0.27008 0.00714 0.0
C2535 C 0.4769 0.30879 0.99897 0.0
C2536 C 0.46863 0.33051 0.00883 0.0
C2537 C 0.47657 0.34027 0.03525 0.0
C2538 C 0.46839 0.36057 0.04463 0.0
C2539 C 0.45238 0.37133 0.02767 0.0
C2540 C 0.44456 0.36184 0.00122 0.0
C2541 C 0.45268 0.34154 0.99174 0.0
H2542 H 0.44606 0.38703 0.035 0.0
H2543 H 0.5348 0.19319 0.94861 0.0
loop_
_geom_bond_atom_site_label_1
_geom_bond_atom_site_label_2
_geom_bond_distance
_geom_bond_site_symmetry_2
_ccdc_geom_bond_type
Co0 O3 1.970 . S
Co0 N17 1.989 . S
Co0 O25 1.967 . S
Co0 O32 1.920 . S
Co1 O4 1.966 . S
Co1 N10 2.022 . S
Co1 N18 1.993 . S
Co1 O26 1.941 . S
C2 O3 1.258 . S
C2 O4 1.263 . S
O3 Co0 1.970 . S
O3 C2 1.258 . S
O4 Co1 1.966 . S
O4 C2 1.263 . S
C5 O6 1.235 . S
C5 O32 1.289 . S
O6 C5 1.235 . S
C7 C9 1.400 . S
C7 N10 1.351 . S
C7 C12 1.501 . S
C8 C9 1.387 . S
C8 N11 1.341 . S
C9 C7 1.400 . S
C9 C8 1.387 . S
N10 Co1 2.022 . S
N10 C7 1.351 . S
N10 N11 1.365 . S
N11 C8 1.341 . S
N11 N10 1.365 . S
N11 H31 0.862 . S
C12 C7 1.501 . S
C12 H13 0.961 . S
C12 H14 0.961 . S
C12 H15 0.960 . S
H13 C12 0.961 . S
H14 C12 0.961 . S
H15 C12 0.960 . S
C16 N17 1.342 . S
C16 C20 1.401 . S
C16 C21 1.499 . S
N17 Co0 1.989 . S
N17 C16 1.342 . S
N17 N18 1.388 . S
N18 Co1 1.993 . S
N18 N17 1.388 . S
N18 C19 1.346 . S
C19 N18 1.346 . S
C19 C20 1.396 . S
C19 C29 1.510 . S
C20 C16 1.401 . S
C20 C19 1.396 . S
C21 C16 1.499 . S
C21 H22 0.959 . S
C21 H23 0.960 . S
C21 H24 0.961 . S
H22 C21 0.959 . S
H23 C21 0.960 . S
H24 C21 0.961 . S
O25 Co0 1.967 . S
O25 C33 1.258 . S
O26 Co1 1.941 . S
O26 C33 1.266 . S
H27 C29 0.959 . S
H28 C29 0.961 . S
C29 C19 1.510 . S
C29 H27 0.959 . S
C29 H28 0.961 . S
C29 H30 0.960 . S
H30 C29 0.960 . S
H31 N11 0.862 . S
O32 Co0 1.920 . S
O32 C5 1.289 . S
C33 O25 1.258 . S
C33 O26 1.266 . S
Co34 O37 1.970 . S
Co34 N51 1.989 . S
Co34 O59 1.967 . S
Co34 O66 1.920 . S
Co35 O38 1.966 . S
Co35 N44 2.022 . S
Co35 N52 1.993 . S
Co35 O60 1.941 . S
C36 O37 1.258 . S
C36 O38 1.263 . S
O37 Co34 1.970 . S
O37 C36 1.258 . S
O38 Co35 1.966 . S
O38 C36 1.263 . S
C39 O40 1.235 . S
C39 O66 1.289 . S
O40 C39 1.235 . S
C41 C43 1.400 . S
C41 N44 1.351 . S
C41 C46 1.501 . S
C42 C43 1.387 . S
C42 N45 1.341 . S
C43 C41 1.400 . S
C43 C42 1.387 . S
N44 Co35 2.022 . S
N44 C41 1.351 . S
N44 N45 1.365 . S
N45 C42 1.341 . S
N45 N44 1.365 . S
N45 H65 0.862 . S
C46 C41 1.501 . S
C46 H47 0.961 . S
C46 H48 0.961 . S
C46 H49 0.960 . S
H47 C46 0.961 . S
H48 C46 0.961 . S
H49 C46 0.960 . S
C50 N51 1.342 . S
C50 C54 1.401 . S
C50 C55 1.499 . S
N51 Co34 1.989 . S
N51 C50 1.342 . S
N51 N52 1.388 . S
N52 Co35 1.993 . S
N52 N51 1.388 . S
N52 C53 1.346 . S
C53 N52 1.346 . S
C53 C54 1.396 . S
C53 C63 1.510 . S
C54 C50 1.401 . S
C54 C53 1.396 . S
C55 C50 1.499 . S
C55 H56 0.959 . S
C55 H57 0.960 . S
C55 H58 0.961 . S
H56 C55 0.959 . S
H57 C55 0.960 . S
H58 C55 0.961 . S
O59 Co34 1.967 . S
O59 C67 1.258 . S
O60 Co35 1.941 . S
O60 C67 1.266 . S
H61 C63 0.959 . S
H62 C63 0.961 . S
C63 C53 1.510 . S
C63 H61 0.959 . S
C63 H62 0.961 . S
C63 H64 0.960 . S
H64 C63 0.960 . S
H65 N45 0.862 . S
O66 Co34 1.920 . S
O66 C39 1.289 . S
C67 O59 1.258 . S
C67 O60 1.266 . S
Co68 O71 1.970 . S
Co68 N85 1.989 . S
Co68 O93 1.967 . S
Co68 O100 1.920 . S
Co69 O72 1.966 . S
Co69 N78 2.022 . S
Co69 N86 1.993 . S
Co69 O94 1.941 . S
C70 O71 1.258 . S
C70 O72 1.263 . S
O71 Co68 1.970 . S
O71 C70 1.258 . S
O72 Co69 1.966 . S
O72 C70 1.263 . S
C73 O74 1.235 . S
C73 O100 1.289 . S
O74 C73 1.235 . S
C75 C77 1.400 . S
C75 N78 1.351 . S
C75 C80 1.501 . S
C76 C77 1.387 . S
C76 N79 1.341 . S
C77 C75 1.400 . S
C77 C76 1.387 . S
N78 Co69 2.022 . S
N78 C75 1.351 . S
N78 N79 1.365 . S
N79 C76 1.341 . S
N79 N78 1.365 . S
N79 H99 0.862 . S
C80 C75 1.501 . S
C80 H81 0.961 . S
C80 H82 0.961 . S
C80 H83 0.960 . S
H81 C80 0.961 . S
H82 C80 0.961 . S
H83 C80 0.960 . S
C84 N85 1.342 . S
C84 C88 1.401 . S
C84 C89 1.499 . S
N85 Co68 1.989 . S
N85 C84 1.342 . S
N85 N86 1.388 . S
N86 Co69 1.993 . S
N86 N85 1.388 . S
N86 C87 1.346 . S
C87 N86 1.346 . S
C87 C88 1.396 . S
C87 C97 1.510 . S
C88 C84 1.401 . S
C88 C87 1.396 . S
C89 C84 1.499 . S
C89 H90 0.959 . S
C89 H91 0.960 . S
C89 H92 0.961 . S
H90 C89 0.959 . S
H91 C89 0.960 . S
H92 C89 0.961 . S
O93 Co68 1.967 . S
O93 C101 1.258 . S
O94 Co69 1.941 . S
O94 C101 1.266 . S
H95 C97 0.959 . S
H96 C97 0.961 . S
C97 C87 1.510 . S
C97 H95 0.959 . S
C97 H96 0.961 . S
C97 H98 0.960 . S
H98 C97 0.960 . S
H99 N79 0.862 . S
O100 Co68 1.920 . S
O100 C73 1.289 . S
C101 O93 1.258 . S
C101 O94 1.266 . S
Co102 O105 1.970 . S
Co102 N119 1.989 . S
Co102 O127 1.967 . S
Co102 O134 1.920 . S
Co103 O106 1.966 . S
Co103 N112 2.022 . S
Co103 N120 1.993 . S
Co103 O128 1.941 . S
C104 O105 1.258 . S
C104 O106 1.263 . S
O105 Co102 1.970 . S
O105 C104 1.258 . S
O106 Co103 1.966 . S
O106 C104 1.263 . S
C107 O108 1.235 . S
C107 O134 1.289 . S
O108 C107 1.235 . S
C109 C111 1.400 . S
C109 N112 1.351 . S
C109 C114 1.501 . S
C110 C111 1.387 . S
C110 N113 1.341 . S
C111 C109 1.400 . S
C111 C110 1.387 . S
N112 Co103 2.022 . S
N112 C109 1.351 . S
N112 N113 1.365 . S
N113 C110 1.341 . S
N113 N112 1.365 . S
N113 H133 0.862 . S
C114 C109 1.501 . S
C114 H115 0.961 . S
C114 H116 0.961 . S
C114 H117 0.960 . S
H115 C114 0.961 . S
H116 C114 0.961 . S
H117 C114 0.960 . S
C118 N119 1.342 . S
C118 C122 1.401 . S
C118 C123 1.499 . S
N119 Co102 1.989 . S
N119 C118 1.342 . S
N119 N120 1.388 . S
N120 Co103 1.993 . S
N120 N119 1.388 . S
N120 C121 1.346 . S
C121 N120 1.346 . S
C121 C122 1.396 . S
C121 C131 1.510 . S
C122 C118 1.401 . S
C122 C121 1.396 . S
C123 C118 1.499 . S
C123 H124 0.959 . S
C123 H125 0.960 . S
C123 H126 0.961 . S
H124 C123 0.959 . S
H125 C123 0.960 . S
H126 C123 0.961 . S
O127 Co102 1.967 . S
O127 C135 1.258 . S
O128 Co103 1.941 . S
O128 C135 1.266 . S
H129 C131 0.959 . S
H130 C131 0.961 . S
C131 C121 1.510 . S
C131 H129 0.959 . S
C131 H130 0.961 . S
C131 H132 0.960 . S
H132 C131 0.960 . S
H133 N113 0.862 . S
O134 Co102 1.920 . S
O134 C107 1.289 . S
C135 O127 1.258 . S
C135 O128 1.266 . S
Co136 O139 1.970 . S
Co136 N153 1.989 . S
Co136 O161 1.967 . S
Co136 O168 1.920 . S
Co137 O140 1.966 . S
Co137 N146 2.022 . S
Co137 N154 1.993 . S
Co137 O162 1.941 . S
C138 O139 1.258 . S
C138 O140 1.263 . S
O139 Co136 1.970 . S
O139 C138 1.258 . S
O140 Co137 1.966 . S
O140 C138 1.263 . S
C141 O142 1.235 . S
C141 O168 1.289 . S
O142 C141 1.235 . S
C143 C145 1.400 . S
C143 N146 1.351 . S
C143 C148 1.501 . S
C144 C145 1.387 . S
C144 N147 1.341 . S
C145 C143 1.400 . S
C145 C144 1.387 . S
N146 Co137 2.022 . S
N146 C143 1.351 . S
N146 N147 1.365 . S
N147 C144 1.341 . S
N147 N146 1.365 . S
N147 H167 0.862 . S
C148 C143 1.501 . S
C148 H149 0.961 . S
C148 H150 0.961 . S
C148 H151 0.960 . S
H149 C148 0.961 . S
H150 C148 0.961 . S
H151 C148 0.960 . S
C152 N153 1.342 . S
C152 C156 1.401 . S
C152 C157 1.499 . S
N153 Co136 1.989 . S
N153 C152 1.342 . S
N153 N154 1.388 . S
N154 Co137 1.993 . S
N154 N153 1.388 . S
N154 C155 1.346 . S
C155 N154 1.346 . S
C155 C156 1.396 . S
C155 C165 1.510 . S
C156 C152 1.401 . S
C156 C155 1.396 . S
C157 C152 1.499 . S
C157 H158 0.959 . S
C157 H159 0.960 . S
C157 H160 0.961 . S
H158 C157 0.959 . S
H159 C157 0.960 . S
H160 C157 0.961 . S
O161 Co136 1.967 . S
O161 C169 1.258 . S
O162 Co137 1.941 . S
O162 C169 1.266 . S
H163 C165 0.959 . S
H164 C165 0.961 . S
C165 C155 1.510 . S
C165 H163 0.959 . S
C165 H164 0.961 . S
C165 H166 0.960 . S
H166 C165 0.960 . S
H167 N147 0.862 . S
O168 Co136 1.920 . S
O168 C141 1.289 . S
C169 O161 1.258 . S
C169 O162 1.266 . S
Co170 O173 1.970 . S
Co170 N187 1.989 . S
Co170 O195 1.967 . S
Co170 O202 1.920 . S
Co171 O174 1.966 . S
Co171 N180 2.022 . S
Co171 N188 1.993 . S
Co171 O196 1.941 . S
C172 O173 1.258 . S
C172 O174 1.263 . S
O173 Co170 1.970 . S
O173 C172 1.258 . S
O174 Co171 1.966 . S
O174 C172 1.263 . S
C175 O176 1.235 . S
C175 O202 1.289 . S
O176 C175 1.235 . S
C177 C179 1.400 . S
C177 N180 1.351 . S
C177 C182 1.501 . S
C178 C179 1.387 . S
C178 N181 1.341 . S
C179 C177 1.400 . S
C179 C178 1.387 . S
N180 Co171 2.022 . S
N180 C177 1.351 . S
N180 N181 1.365 . S
N181 C178 1.341 . S
N181 N180 1.365 . S
N181 H201 0.862 . S
C182 C177 1.501 . S
C182 H183 0.961 . S
C182 H184 0.961 . S
C182 H185 0.960 . S
H183 C182 0.961 . S
H184 C182 0.961 . S
H185 C182 0.960 . S
C186 N187 1.342 . S
C186 C190 1.401 . S
C186 C191 1.499 . S
N187 Co170 1.989 . S
N187 C186 1.342 . S
N187 N188 1.388 . S
N188 Co171 1.993 . S
N188 N187 1.388 . S
N188 C189 1.346 . S
C189 N188 1.346 . S
C189 C190 1.396 . S
C189 C199 1.510 . S
C190 C186 1.401 . S
C190 C189 1.396 . S
C191 C186 1.499 . S
C191 H192 0.959 . S
C191 H193 0.960 . S
C191 H194 0.961 . S
H192 C191 0.959 . S
H193 C191 0.960 . S
H194 C191 0.961 . S
O195 Co170 1.967 . S
O195 C203 1.258 . S
O196 Co171 1.941 . S
O196 C203 1.266 . S
H197 C199 0.959 . S
H198 C199 0.961 . S
C199 C189 1.510 . S
C199 H197 0.959 . S
C199 H198 0.961 . S
C199 H200 0.960 . S
H200 C199 0.960 . S
H201 N181 0.862 . S
O202 Co170 1.920 . S
O202 C175 1.289 . S
C203 O195 1.258 . S
C203 O196 1.266 . S
Co204 O207 1.970 . S
Co204 N221 1.989 . S
Co204 O229 1.967 . S
Co204 O236 1.920 . S
Co205 O208 1.966 . S
Co205 N214 2.022 . S
Co205 N222 1.993 . S
Co205 O230 1.941 . S
C206 O207 1.258 . S
C206 O208 1.263 . S
O207 Co204 1.970 . S
O207 C206 1.258 . S
O208 Co205 1.966 . S
O208 C206 1.263 . S
C209 O210 1.235 . S
C209 O236 1.289 . S
O210 C209 1.235 . S
C211 C213 1.400 . S
C211 N214 1.351 . S
C211 C216 1.501 . S
C212 C213 1.387 . S
C212 N215 1.341 . S
C213 C211 1.400 . S
C213 C212 1.387 . S
N214 Co205 2.022 . S
N214 C211 1.351 . S
N214 N215 1.365 . S
N215 C212 1.341 . S
N215 N214 1.365 . S
N215 H235 0.862 . S
C216 C211 1.501 . S
C216 H217 0.961 . S
C216 H218 0.961 . S
C216 H219 0.960 . S
H217 C216 0.961 . S
H218 C216 0.961 . S
H219 C216 0.960 . S
C220 N221 1.342 . S
C220 C224 1.401 . S
C220 C225 1.499 . S
N221 Co204 1.989 . S
N221 C220 1.342 . S
N221 N222 1.388 . S
N222 Co205 1.993 . S
N222 N221 1.388 . S
N222 C223 1.346 . S
C223 N222 1.346 . S
C223 C224 1.396 . S
C223 C233 1.510 . S
C224 C220 1.401 . S
C224 C223 1.396 . S
C225 C220 1.499 . S
C225 H226 0.959 . S
C225 H227 0.960 . S
C225 H228 0.961 . S
H226 C225 0.959 . S
H227 C225 0.960 . S
H228 C225 0.961 . S
O229 Co204 1.967 . S
O229 C237 1.258 . S
O230 Co205 1.941 . S
O230 C237 1.266 . S
H231 C233 0.959 . S
H232 C233 0.961 . S
C233 C223 1.510 . S
C233 H231 0.959 . S
C233 H232 0.961 . S
C233 H234 0.960 . S
H234 C233 0.960 . S
H235 N215 0.862 . S
O236 Co204 1.920 . S
O236 C209 1.289 . S
C237 O229 1.258 . S
C237 O230 1.266 . S
Co238 O241 1.970 . S
Co238 N255 1.989 . S
Co238 O263 1.967 . S
Co238 O270 1.920 . S
Co239 O242 1.966 . S
Co239 N248 2.022 . S
Co239 N256 1.993 . S
Co239 O264 1.941 . S
C240 O241 1.258 . S
C240 O242 1.263 . S
O241 Co238 1.970 . S
O241 C240 1.258 . S
O242 Co239 1.966 . S
O242 C240 1.263 . S
C243 O244 1.235 . S
C243 O270 1.289 . S
O244 C243 1.235 . S
C245 C247 1.400 . S
C245 N248 1.351 . S
C245 C250 1.501 . S
C246 C247 1.387 . S
C246 N249 1.341 . S
C247 C245 1.400 . S
C247 C246 1.387 . S
N248 Co239 2.022 . S
N248 C245 1.351 . S
N248 N249 1.365 . S
N249 C246 1.341 . S
N249 N248 1.365 . S
N249 H269 0.862 . S
C250 C245 1.501 . S
C250 H251 0.961 . S
C250 H252 0.961 . S
C250 H253 0.960 . S
H251 C250 0.961 . S
H252 C250 0.961 . S
H253 C250 0.960 . S
C254 N255 1.342 . S
C254 C258 1.401 . S
C254 C259 1.499 . S
N255 Co238 1.989 . S
N255 C254 1.342 . S
N255 N256 1.388 . S
N256 Co239 1.993 . S
N256 N255 1.388 . S
N256 C257 1.346 . S
C257 N256 1.346 . S
C257 C258 1.396 . S
C257 C267 1.510 . S
C258 C254 1.401 . S
C258 C257 1.396 . S
C259 C254 1.499 . S
C259 H260 0.959 . S
C259 H261 0.960 . S
C259 H262 0.961 . S
H260 C259 0.959 . S
H261 C259 0.960 . S
H262 C259 0.961 . S
O263 Co238 1.967 . S
O263 C271 1.258 . S
O264 Co239 1.941 . S
O264 C271 1.266 . S
H265 C267 0.959 . S
H266 C267 0.961 . S
C267 C257 1.510 . S
C267 H265 0.959 . S
C267 H266 0.961 . S
C267 H268 0.960 . S
H268 C267 0.960 . S
H269 N249 0.862 . S
O270 Co238 1.920 . S
O270 C243 1.289 . S
C271 O263 1.258 . S
C271 O264 1.266 . S
Co272 O275 1.970 . S
Co272 N289 1.989 . S
Co272 O297 1.967 . S
Co272 O304 1.920 . S
Co273 O276 1.966 . S
Co273 N282 2.022 . S
Co273 N290 1.993 . S
Co273 O298 1.941 . S
C274 O275 1.258 . S
C274 O276 1.263 . S
O275 Co272 1.970 . S
O275 C274 1.258 . S
O276 Co273 1.966 . S
O276 C274 1.263 . S
C277 O278 1.235 . S
C277 O304 1.289 . S
O278 C277 1.235 . S
C279 C281 1.400 . S
C279 N282 1.351 . S
C279 C284 1.501 . S
C280 C281 1.387 . S
C280 N283 1.341 . S
C281 C279 1.400 . S
C281 C280 1.387 . S
N282 Co273 2.022 . S
N282 C279 1.351 . S
N282 N283 1.365 . S
N283 C280 1.341 . S
N283 N282 1.365 . S
N283 H303 0.862 . S
C284 C279 1.501 . S
C284 H285 0.961 . S
C284 H286 0.961 . S
C284 H287 0.960 . S
H285 C284 0.961 . S
H286 C284 0.961 . S
H287 C284 0.960 . S
C288 N289 1.342 . S
C288 C292 1.401 . S
C288 C293 1.499 . S
N289 Co272 1.989 . S
N289 C288 1.342 . S
N289 N290 1.388 . S
N290 Co273 1.993 . S
N290 N289 1.388 . S
N290 C291 1.346 . S
C291 N290 1.346 . S
C291 C292 1.396 . S
C291 C301 1.510 . S
C292 C288 1.401 . S
C292 C291 1.396 . S
C293 C288 1.499 . S
C293 H294 0.959 . S
C293 H295 0.960 . S
C293 H296 0.961 . S
H294 C293 0.959 . S
H295 C293 0.960 . S
H296 C293 0.961 . S
O297 Co272 1.967 . S
O297 C305 1.258 . S
O298 Co273 1.941 . S
O298 C305 1.266 . S
H299 C301 0.959 . S
H300 C301 0.961 . S
C301 C291 1.510 . S
C301 H299 0.959 . S
C301 H300 0.961 . S
C301 H302 0.960 . S
H302 C301 0.960 . S
H303 N283 0.862 . S
O304 Co272 1.920 . S
O304 C277 1.289 . S
C305 O297 1.258 . S
C305 O298 1.266 . S
Co306 O309 1.970 . S
Co306 N323 1.989 . S
Co306 O331 1.967 . S
Co306 O338 1.920 . S
Co307 O310 1.966 . S
Co307 N316 2.022 . S
Co307 N324 1.993 . S
Co307 O332 1.941 . S
C308 O309 1.258 . S
C308 O310 1.263 . S
O309 Co306 1.970 . S
O309 C308 1.258 . S
O310 Co307 1.966 . S
O310 C308 1.263 . S
C311 O312 1.235 . S
C311 O338 1.289 . S
O312 C311 1.235 . S
C313 C315 1.400 . S
C313 N316 1.351 . S
C313 C318 1.501 . S
C314 C315 1.387 . S
C314 N317 1.341 . S
C315 C313 1.400 . S
C315 C314 1.387 . S
N316 Co307 2.022 . S
N316 C313 1.351 . S
N316 N317 1.365 . S
N317 C314 1.341 . S
N317 N316 1.365 . S
N317 H337 0.862 . S
C318 C313 1.501 . S
C318 H319 0.961 . S
C318 H320 0.961 . S
C318 H321 0.960 . S
H319 C318 0.961 . S
H320 C318 0.961 . S
H321 C318 0.960 . S
C322 N323 1.342 . S
C322 C326 1.401 . S
C322 C327 1.499 . S
N323 Co306 1.989 . S
N323 C322 1.342 . S
N323 N324 1.388 . S
N324 Co307 1.993 . S
N324 N323 1.388 . S
N324 C325 1.346 . S
C325 N324 1.346 . S
C325 C326 1.396 . S
C325 C335 1.510 . S
C326 C322 1.401 . S
C326 C325 1.396 . S
C327 C322 1.499 . S
C327 H328 0.959 . S
C327 H329 0.960 . S
C327 H330 0.961 . S
H328 C327 0.959 . S
H329 C327 0.960 . S
H330 C327 0.961 . S
O331 Co306 1.967 . S
O331 C339 1.258 . S
O332 Co307 1.941 . S
O332 C339 1.266 . S
H333 C335 0.959 . S
H334 C335 0.961 . S
C335 C325 1.510 . S
C335 H333 0.959 . S
C335 H334 0.961 . S
C335 H336 0.960 . S
H336 C335 0.960 . S
H337 N317 0.862 . S
O338 Co306 1.920 . S
O338 C311 1.289 . S
C339 O331 1.258 . S
C339 O332 1.266 . S
Co340 O343 1.970 . S
Co340 N357 1.989 . S
Co340 O365 1.967 . S
Co340 O372 1.920 . S
Co341 O344 1.966 . S
Co341 N350 2.022 . S
Co341 N358 1.993 . S
Co341 O366 1.941 . S
C342 O343 1.258 . S
C342 O344 1.263 . S
O343 Co340 1.970 . S
O343 C342 1.258 . S
O344 Co341 1.966 . S
O344 C342 1.263 . S
C345 O346 1.235 . S
C345 O372 1.289 . S
O346 C345 1.235 . S
C347 C349 1.400 . S
C347 N350 1.351 . S
C347 C352 1.501 . S
C348 C349 1.387 . S
C348 N351 1.341 . S
C349 C347 1.400 . S
C349 C348 1.387 . S
N350 Co341 2.022 . S
N350 C347 1.351 . S
N350 N351 1.365 . S
N351 C348 1.341 . S
N351 N350 1.365 . S
N351 H371 0.862 . S
C352 C347 1.501 . S
C352 H353 0.961 . S
C352 H354 0.961 . S
C352 H355 0.960 . S
H353 C352 0.961 . S
H354 C352 0.961 . S
H355 C352 0.960 . S
C356 N357 1.342 . S
C356 C360 1.401 . S
C356 C361 1.499 . S
N357 Co340 1.989 . S
N357 C356 1.342 . S
N357 N358 1.388 . S
N358 Co341 1.993 . S
N358 N357 1.388 . S
N358 C359 1.346 . S
C359 N358 1.346 . S
C359 C360 1.396 . S
C359 C369 1.510 . S
C360 C356 1.401 . S
C360 C359 1.396 . S
C361 C356 1.499 . S
C361 H362 0.959 . S
C361 H363 0.960 . S
C361 H364 0.961 . S
H362 C361 0.959 . S
H363 C361 0.960 . S
H364 C361 0.961 . S
O365 Co340 1.967 . S
O365 C373 1.258 . S
O366 Co341 1.941 . S
O366 C373 1.266 . S
H367 C369 0.959 . S
H368 C369 0.961 . S
C369 C359 1.510 . S
C369 H367 0.959 . S
C369 H368 0.961 . S
C369 H370 0.960 . S
H370 C369 0.960 . S
H371 N351 0.862 . S
O372 Co340 1.920 . S
O372 C345 1.289 . S
C373 O365 1.258 . S
C373 O366 1.266 . S
Co374 O377 1.970 . S
Co374 N391 1.989 . S
Co374 O399 1.967 . S
Co374 O406 1.920 . S
Co375 O378 1.966 . S
Co375 N384 2.022 . S
Co375 N392 1.993 . S
Co375 O400 1.941 . S
C376 O377 1.258 . S
C376 O378 1.263 . S
O377 Co374 1.970 . S
O377 C376 1.258 . S
O378 Co375 1.966 . S
O378 C376 1.263 . S
C379 O380 1.235 . S
C379 O406 1.289 . S
O380 C379 1.235 . S
C381 C383 1.400 . S
C381 N384 1.351 . S
C381 C386 1.501 . S
C382 C383 1.387 . S
C382 N385 1.341 . S
C383 C381 1.400 . S
C383 C382 1.387 . S
N384 Co375 2.022 . S
N384 C381 1.351 . S
N384 N385 1.365 . S
N385 C382 1.341 . S
N385 N384 1.365 . S
N385 H405 0.862 . S
C386 C381 1.501 . S
C386 H387 0.961 . S
C386 H388 0.961 . S
C386 H389 0.960 . S
H387 C386 0.961 . S
H388 C386 0.961 . S
H389 C386 0.960 . S
C390 N391 1.342 . S
C390 C394 1.401 . S
C390 C395 1.499 . S
N391 Co374 1.989 . S
N391 C390 1.342 . S
N391 N392 1.388 . S
N392 Co375 1.993 . S
N392 N391 1.388 . S
N392 C393 1.346 . S
C393 N392 1.346 . S
C393 C394 1.396 . S
C393 C403 1.510 . S
C394 C390 1.401 . S
C394 C393 1.396 . S
C395 C390 1.499 . S
C395 H396 0.959 . S
C395 H397 0.960 . S
C395 H398 0.961 . S
H396 C395 0.959 . S
H397 C395 0.960 . S
H398 C395 0.961 . S
O399 Co374 1.967 . S
O399 C407 1.258 . S
O400 Co375 1.941 . S
O400 C407 1.266 . S
H401 C403 0.959 . S
H402 C403 0.961 . S
C403 C393 1.510 . S
C403 H401 0.959 . S
C403 H402 0.961 . S
C403 H404 0.960 . S
H404 C403 0.960 . S
H405 N385 0.862 . S
O406 Co374 1.920 . S
O406 C379 1.289 . S
C407 O399 1.258 . S
C407 O400 1.266 . S
Co408 O411 1.970 . S
Co408 N425 1.989 . S
Co408 O433 1.967 . S
Co408 O440 1.920 . S
Co409 O412 1.966 . S
Co409 N418 2.022 . S
Co409 N426 1.993 . S
Co409 O434 1.941 . S
C410 O411 1.258 . S
C410 O412 1.263 . S
O411 Co408 1.970 . S
O411 C410 1.258 . S
O412 Co409 1.966 . S
O412 C410 1.263 . S
C413 O414 1.235 . S
C413 O440 1.289 . S
O414 C413 1.235 . S
C415 C417 1.400 . S
C415 N418 1.351 . S
C415 C420 1.501 . S
C416 C417 1.387 . S
C416 N419 1.341 . S
C417 C415 1.400 . S
C417 C416 1.387 . S
N418 Co409 2.022 . S
N418 C415 1.351 . S
N418 N419 1.365 . S
N419 C416 1.341 . S
N419 N418 1.365 . S
N419 H439 0.862 . S
C420 C415 1.501 . S
C420 H421 0.961 . S
C420 H422 0.961 . S
C420 H423 0.960 . S
H421 C420 0.961 . S
H422 C420 0.961 . S
H423 C420 0.960 . S
C424 N425 1.342 . S
C424 C428 1.401 . S
C424 C429 1.499 . S
N425 Co408 1.989 . S
N425 C424 1.342 . S
N425 N426 1.388 . S
N426 Co409 1.993 . S
N426 N425 1.388 . S
N426 C427 1.346 . S
C427 N426 1.346 . S
C427 C428 1.396 . S
C427 C437 1.510 . S
C428 C424 1.401 . S
C428 C427 1.396 . S
C429 C424 1.499 . S
C429 H430 0.959 . S
C429 H431 0.960 . S
C429 H432 0.961 . S
H430 C429 0.959 . S
H431 C429 0.960 . S
H432 C429 0.961 . S
O433 Co408 1.967 . S
O433 C441 1.258 . S
O434 Co409 1.941 . S
O434 C441 1.266 . S
H435 C437 0.959 . S
H436 C437 0.961 . S
C437 C427 1.510 . S
C437 H435 0.959 . S
C437 H436 0.961 . S
C437 H438 0.960 . S
H438 C437 0.960 . S
H439 N419 0.862 . S
O440 Co408 1.920 . S
O440 C413 1.289 . S
C441 O433 1.258 . S
C441 O434 1.266 . S
Co442 O445 1.970 . S
Co442 N459 1.989 . S
Co442 O467 1.967 . S
Co442 O474 1.920 . S
Co443 O446 1.966 . S
Co443 N452 2.022 . S
Co443 N460 1.993 . S
Co443 O468 1.941 . S
C444 O445 1.258 . S
C444 O446 1.263 . S
O445 Co442 1.970 . S
O445 C444 1.258 . S
O446 Co443 1.966 . S
O446 C444 1.263 . S
C447 O448 1.235 . S
C447 O474 1.289 . S
O448 C447 1.235 . S
C449 C451 1.400 . S
C449 N452 1.351 . S
C449 C454 1.501 . S
C450 C451 1.387 . S
C450 N453 1.341 . S
C451 C449 1.400 . S
C451 C450 1.387 . S
N452 Co443 2.022 . S
N452 C449 1.351 . S
N452 N453 1.365 . S
N453 C450 1.341 . S
N453 N452 1.365 . S
N453 H473 0.862 . S
C454 C449 1.501 . S
C454 H455 0.961 . S
C454 H456 0.961 . S
C454 H457 0.960 . S
H455 C454 0.961 . S
H456 C454 0.961 . S
H457 C454 0.960 . S
C458 N459 1.342 . S
C458 C462 1.401 . S
C458 C463 1.499 . S
N459 Co442 1.989 . S
N459 C458 1.342 . S
N459 N460 1.388 . S
N460 Co443 1.993 . S
N460 N459 1.388 . S
N460 C461 1.346 . S
C461 N460 1.346 . S
C461 C462 1.396 . S
C461 C471 1.510 . S
C462 C458 1.401 . S
C462 C461 1.396 . S
C463 C458 1.499 . S
C463 H464 0.959 . S
C463 H465 0.960 . S
C463 H466 0.961 . S
H464 C463 0.959 . S
H465 C463 0.960 . S
H466 C463 0.961 . S
O467 Co442 1.967 . S
O467 C475 1.258 . S
O468 Co443 1.941 . S
O468 C475 1.266 . S
H469 C471 0.959 . S
H470 C471 0.961 . S
C471 C461 1.510 . S
C471 H469 0.959 . S
C471 H470 0.961 . S
C471 H472 0.960 . S
H472 C471 0.960 . S
H473 N453 0.862 . S
O474 Co442 1.920 . S
O474 C447 1.289 . S
C475 O467 1.258 . S
C475 O468 1.266 . S
Co476 O479 1.970 . S
Co476 N493 1.989 . S
Co476 O501 1.967 . S
Co476 O508 1.920 . S
Co477 O480 1.966 . S
Co477 N486 2.022 . S
Co477 N494 1.993 . S
Co477 O502 1.941 . S
C478 O479 1.258 . S
C478 O480 1.263 . S
O479 Co476 1.970 . S
O479 C478 1.258 . S
O480 Co477 1.966 . S
O480 C478 1.263 . S
C481 O482 1.235 . S
C481 O508 1.289 . S
O482 C481 1.235 . S
C483 C485 1.400 . S
C483 N486 1.351 . S
C483 C488 1.501 . S
C484 C485 1.387 . S
C484 N487 1.341 . S
C485 C483 1.400 . S
C485 C484 1.387 . S
N486 Co477 2.022 . S
N486 C483 1.351 . S
N486 N487 1.365 . S
N487 C484 1.341 . S
N487 N486 1.365 . S
N487 H507 0.862 . S
C488 C483 1.501 . S
C488 H489 0.961 . S
C488 H490 0.961 . S
C488 H491 0.960 . S
H489 C488 0.961 . S
H490 C488 0.961 . S
H491 C488 0.960 . S
C492 N493 1.342 . S
C492 C496 1.401 . S
C492 C497 1.499 . S
N493 Co476 1.989 . S
N493 C492 1.342 . S
N493 N494 1.388 . S
N494 Co477 1.993 . S
N494 N493 1.388 . S
N494 C495 1.346 . S
C495 N494 1.346 . S
C495 C496 1.396 . S
C495 C505 1.510 . S
C496 C492 1.401 . S
C496 C495 1.396 . S
C497 C492 1.499 . S
C497 H498 0.959 . S
C497 H499 0.960 . S
C497 H500 0.961 . S
H498 C497 0.959 . S
H499 C497 0.960 . S
H500 C497 0.961 . S
O501 Co476 1.967 . S
O501 C509 1.258 . S
O502 Co477 1.941 . S
O502 C509 1.266 . S
H503 C505 0.959 . S
H504 C505 0.961 . S
C505 C495 1.510 . S
C505 H503 0.959 . S
C505 H504 0.961 . S
C505 H506 0.960 . S
H506 C505 0.960 . S
H507 N487 0.862 . S
O508 Co476 1.920 . S
O508 C481 1.289 . S
C509 O501 1.258 . S
C509 O502 1.266 . S
Co510 O513 1.970 . S
Co510 N527 1.989 . S
Co510 O535 1.967 . S
Co510 O542 1.920 . S
Co511 O514 1.966 . S
Co511 N520 2.022 . S
Co511 N528 1.993 . S
Co511 O536 1.941 . S
C512 O513 1.258 . S
C512 O514 1.263 . S
O513 Co510 1.970 . S
O513 C512 1.258 . S
O514 Co511 1.966 . S
O514 C512 1.263 . S
C515 O516 1.235 . S
C515 O542 1.289 . S
O516 C515 1.235 . S
C517 C519 1.400 . S
C517 N520 1.351 . S
C517 C522 1.501 . S
C518 C519 1.387 . S
C518 N521 1.341 . S
C519 C517 1.400 . S
C519 C518 1.387 . S
N520 Co511 2.022 . S
N520 C517 1.351 . S
N520 N521 1.365 . S
N521 C518 1.341 . S
N521 N520 1.365 . S
N521 H541 0.862 . S
C522 C517 1.501 . S
C522 H523 0.961 . S
C522 H524 0.961 . S
C522 H525 0.960 . S
H523 C522 0.961 . S
H524 C522 0.961 . S
H525 C522 0.960 . S
C526 N527 1.342 . S
C526 C530 1.401 . S
C526 C531 1.499 . S
N527 Co510 1.989 . S
N527 C526 1.342 . S
N527 N528 1.388 . S
N528 Co511 1.993 . S
N528 N527 1.388 . S
N528 C529 1.346 . S
C529 N528 1.346 . S
C529 C530 1.396 . S
C529 C539 1.510 . S
C530 C526 1.401 . S
C530 C529 1.396 . S
C531 C526 1.499 . S
C531 H532 0.959 . S
C531 H533 0.960 . S
C531 H534 0.961 . S
H532 C531 0.959 . S
H533 C531 0.960 . S
H534 C531 0.961 . S
O535 Co510 1.967 . S
O535 C543 1.258 . S
O536 Co511 1.941 . S
O536 C543 1.266 . S
H537 C539 0.959 . S
H538 C539 0.961 . S
C539 C529 1.510 . S
C539 H537 0.959 . S
C539 H538 0.961 . S
C539 H540 0.960 . S
H540 C539 0.960 . S
H541 N521 0.862 . S
O542 Co510 1.920 . S
O542 C515 1.289 . S
C543 O535 1.258 . S
C543 O536 1.266 . S
H544 C562 0.951 . S
H545 C564 0.951 . S
H546 C566 0.950 . S
H547 C567 0.950 . S
H548 C569 0.950 . S
H549 C572 0.950 . S
H550 C573 0.950 . S
H551 C575 0.950 . S
H552 C576 0.950 . S
H553 C577 0.951 . S
H554 C579 0.951 . S
H555 C581 0.950 . S
H556 C582 0.950 . S
H557 C584 0.950 . S
H558 C587 0.950 . S
H559 C588 0.950 . S
H560 C590 0.950 . S
H561 C591 0.950 . S
C562 H544 0.951 . S
C562 C563 1.366 . S
C562 C564 1.388 . S
C563 C562 1.366 . S
C563 C567 1.385 . S
C564 H545 0.951 . S
C564 C562 1.388 . S
C564 C565 1.366 . S
C565 C564 1.366 . S
C565 C566 1.414 . S
C565 C568 1.499 . S
C566 H546 0.950 . S
C566 C565 1.414 . S
C566 C567 1.374 . S
C567 H547 0.950 . S
C567 C563 1.385 . S
C567 C566 1.374 . S
C568 C565 1.499 . S
C568 C569 1.373 . S
C568 C570 1.389 . S
C569 H548 0.950 . S
C569 C568 1.373 . S
C569 C585 1.377 . S
C570 C568 1.389 . S
C570 C571 1.524 . S
C570 C584 1.377 . S
C571 C570 1.524 . S
C571 C572 1.397 . S
C571 C576 1.363 . S
C572 H549 0.950 . S
C572 C571 1.397 . S
C572 C573 1.334 . S
C573 H550 0.950 . S
C573 C572 1.334 . S
C573 C574 1.287 . S
C574 C573 1.287 . S
C574 C575 1.524 . S
C574 H593 0.913 . S
C575 H551 0.950 . S
C575 C574 1.524 . S
C575 C576 1.415 . S
C576 H552 0.950 . S
C576 C571 1.363 . S
C576 C575 1.415 . S
C577 H553 0.951 . S
C577 C578 1.366 . S
C577 C579 1.388 . S
C578 C577 1.366 . S
C578 C582 1.385 . S
C579 H554 0.951 . S
C579 C577 1.388 . S
C579 C580 1.366 . S
C580 C579 1.366 . S
C580 C581 1.414 . S
C580 C583 1.499 . S
C581 H555 0.950 . S
C581 C580 1.414 . S
C581 C582 1.374 . S
C582 H556 0.950 . S
C582 C578 1.385 . S
C582 C581 1.374 . S
C583 C580 1.499 . S
C583 C584 1.373 . S
C583 C585 1.389 . S
C584 H557 0.950 . S
C584 C570 1.377 . S
C584 C583 1.373 . S
C585 C569 1.377 . S
C585 C583 1.389 . S
C585 C586 1.524 . S
C586 C585 1.524 . S
C586 C587 1.397 . S
C586 C591 1.363 . S
C587 H558 0.950 . S
C587 C586 1.397 . S
C587 C588 1.334 . S
C588 H559 0.950 . S
C588 C587 1.334 . S
C588 C589 1.287 . S
C589 C588 1.287 . S
C589 C590 1.524 . S
C589 H592 0.999 . S
C590 H560 0.950 . S
C590 C589 1.524 . S
C590 C591 1.415 . S
C591 H561 0.950 . S
C591 C586 1.363 . S
C591 C590 1.415 . S
H592 C589 0.999 . S
H593 C574 0.913 . S
H594 C612 0.951 . S
H595 C614 0.951 . S
H596 C616 0.950 . S
H597 C617 0.950 . S
H598 C619 0.950 . S
H599 C622 0.950 . S
H600 C623 0.950 . S
H601 C625 0.950 . S
H602 C626 0.950 . S
H603 C627 0.951 . S
H604 C629 0.951 . S
H605 C631 0.950 . S
H606 C632 0.907 1_655 S
H607 C634 0.950 . S
H608 C637 0.950 . S
H609 C638 0.950 . S
H610 C640 0.950 . S
H611 C641 0.950 . S
C612 H594 0.951 . S
C612 C613 1.366 . S
C612 C614 1.388 . S
C613 C612 1.366 . S
C613 C617 1.385 . S
C614 H595 0.951 . S
C614 C612 1.388 . S
C614 C615 1.366 . S
C615 C614 1.366 . S
C615 C616 1.414 . S
C615 C618 1.499 . S
C616 H596 0.950 . S
C616 C615 1.414 . S
C616 C617 1.374 . S
C617 H597 0.950 . S
C617 C613 1.385 . S
C617 C616 1.374 . S
C618 C615 1.499 . S
C618 C619 1.373 . S
C618 C620 1.389 . S
C619 H598 0.950 . S
C619 C618 1.373 . S
C619 C635 1.377 . S
C620 C618 1.389 . S
C620 C621 1.524 . S
C620 C634 1.377 . S
C621 C620 1.524 . S
C621 C622 1.397 . S
C621 C626 1.363 . S
C622 H599 0.950 . S
C622 C621 1.397 . S
C622 C623 1.334 . S
C623 H600 0.950 . S
C623 C622 1.334 . S
C623 C624 1.287 . S
C624 C623 1.287 . S
C624 C625 1.524 . S
C624 H643 0.913 . S
C625 H601 0.950 . S
C625 C624 1.524 . S
C625 C626 1.415 . S
C626 H602 0.950 . S
C626 C621 1.363 . S
C626 C625 1.415 . S
C627 H603 0.951 . S
C627 C628 1.366 . S
C627 C629 1.388 . S
C628 C627 1.366 . S
C628 C632 1.385 . S
C629 H604 0.951 . S
C629 C627 1.388 . S
C629 C630 1.366 . S
C630 C629 1.366 . S
C630 C631 1.414 . S
C630 C633 1.499 . S
C631 H605 0.950 . S
C631 C630 1.414 . S
C631 C632 1.374 . S
C632 H606 0.907 1_455 S
C632 C628 1.385 . S
C632 C631 1.374 . S
C633 C630 1.499 . S
C633 C634 1.373 . S
C633 C635 1.389 . S
C634 H607 0.950 . S
C634 C620 1.377 . S
C634 C633 1.373 . S
C635 C619 1.377 . S
C635 C633 1.389 . S
C635 C636 1.524 . S
C636 C635 1.524 . S
C636 C637 1.397 . S
C636 C641 1.363 . S
C637 H608 0.950 . S
C637 C636 1.397 . S
C637 C638 1.334 . S
C638 H609 0.950 . S
C638 C637 1.334 . S
C638 C639 1.287 . S
C639 C638 1.287 . S
C639 C640 1.524 . S
C639 H642 0.999 . S
C640 H610 0.950 . S
C640 C639 1.524 . S
C640 C641 1.415 . S
C641 H611 0.950 . S
C641 C636 1.363 . S
C641 C640 1.415 . S
H642 C639 0.999 . S
H643 C624 0.913 . S
H644 C662 0.951 . S
H645 C664 0.951 . S
H646 C666 0.950 . S
H647 C667 0.950 . S
H648 C669 0.950 . S
H649 C672 0.950 . S
H650 C673 0.950 . S
H651 C675 0.950 . S
H652 C676 0.950 . S
H653 C677 0.951 . S
H654 C679 0.951 . S
H655 C681 0.950 . S
H656 C682 0.950 . S
H657 C684 0.950 . S
H658 C687 0.950 . S
H659 C688 0.950 . S
H660 C690 0.950 . S
H661 C691 0.950 . S
C662 H644 0.951 . S
C662 C663 1.366 . S
C662 C664 1.388 . S
C663 C662 1.366 . S
C663 C667 1.385 . S
C664 H645 0.951 . S
C664 C662 1.388 . S
C664 C665 1.366 . S
C665 C664 1.366 . S
C665 C666 1.414 . S
C665 C668 1.499 . S
C666 H646 0.950 . S
C666 C665 1.414 . S
C666 C667 1.374 . S
C667 H647 0.950 . S
C667 C663 1.385 . S
C667 C666 1.374 . S
C668 C665 1.499 . S
C668 C669 1.373 . S
C668 C670 1.389 . S
C669 H648 0.950 . S
C669 C668 1.373 . S
C669 C685 1.377 . S
C670 C668 1.389 . S
C670 C671 1.524 . S
C670 C684 1.377 . S
C671 C670 1.524 . S
C671 C672 1.397 . S
C671 C676 1.363 . S
C672 H649 0.950 . S
C672 C671 1.397 . S
C672 C673 1.334 . S
C673 H650 0.950 . S
C673 C672 1.334 . S
C673 C674 1.287 . S
C674 C673 1.287 . S
C674 C675 1.524 . S
C674 H693 0.913 . S
C675 H651 0.950 . S
C675 C674 1.524 . S
C675 C676 1.415 . S
C676 H652 0.950 . S
C676 C671 1.363 . S
C676 C675 1.415 . S
C677 H653 0.951 . S
C677 C678 1.366 . S
C677 C679 1.388 . S
C678 C677 1.366 . S
C678 C682 1.385 . S
C679 H654 0.951 . S
C679 C677 1.388 . S
C679 C680 1.366 . S
C680 C679 1.366 . S
C680 C681 1.414 . S
C680 C683 1.499 . S
C681 H655 0.950 . S
C681 C680 1.414 . S
C681 C682 1.374 . S
C682 H656 0.950 . S
C682 C678 1.385 . S
C682 C681 1.374 . S
C683 C680 1.499 . S
C683 C684 1.373 . S
C683 C685 1.389 . S
C684 H657 0.950 . S
C684 C670 1.377 . S
C684 C683 1.373 . S
C685 C669 1.377 . S
C685 C683 1.389 . S
C685 C686 1.524 . S
C686 C685 1.524 . S
C686 C687 1.397 . S
C686 C691 1.363 . S
C687 H658 0.950 . S
C687 C686 1.397 . S
C687 C688 1.334 . S
C688 H659 0.950 . S
C688 C687 1.334 . S
C688 C689 1.287 . S
C689 C688 1.287 . S
C689 C690 1.524 . S
C689 H692 0.999 . S
C690 H660 0.950 . S
C690 C689 1.524 . S
C690 C691 1.415 . S
C691 H661 0.950 . S
C691 C686 1.363 . S
C691 C690 1.415 . S
H692 C689 0.999 . S
H693 C674 0.913 . S
H694 C712 0.951 . S
H695 C714 0.951 . S
H696 C716 0.950 . S
H697 C717 0.950 . S
H698 C719 0.950 . S
H699 C722 0.950 . S
H700 C723 0.950 . S
H701 C725 0.950 . S
H702 C726 0.950 . S
H703 C727 0.942 1_455 S
H704 C729 0.951 . S
H705 C731 0.950 . S
H706 C732 0.950 . S
H707 C734 0.950 . S
H708 C737 0.950 . S
H709 C738 0.950 . S
H710 C740 0.950 . S
H711 C741 0.950 . S
C712 H694 0.951 . S
C712 C713 1.366 . S
C712 C714 1.388 . S
C713 C712 1.366 . S
C713 C717 1.385 . S
C714 H695 0.951 . S
C714 C712 1.388 . S
C714 C715 1.366 . S
C715 C714 1.366 . S
C715 C716 1.414 . S
C715 C718 1.499 . S
C716 H696 0.950 . S
C716 C715 1.414 . S
C716 C717 1.374 . S
C717 H697 0.950 . S
C717 C713 1.385 . S
C717 C716 1.374 . S
C718 C715 1.499 . S
C718 C719 1.373 . S
C718 C720 1.389 . S
C719 H698 0.950 . S
C719 C718 1.373 . S
C719 C735 1.377 . S
C720 C718 1.389 . S
C720 C721 1.524 . S
C720 C734 1.377 . S
C721 C720 1.524 . S
C721 C722 1.397 . S
C721 C726 1.363 . S
C722 H699 0.950 . S
C722 C721 1.397 . S
C722 C723 1.334 . S
C723 H700 0.950 . S
C723 C722 1.334 . S
C723 C724 1.287 . S
C724 C723 1.287 . S
C724 C725 1.524 . S
C724 H743 0.913 . S
C725 H701 0.950 . S
C725 C724 1.524 . S
C725 C726 1.415 . S
C726 H702 0.950 . S
C726 C721 1.363 . S
C726 C725 1.415 . S
C727 H703 0.942 1_655 S
C727 C728 1.366 . S
C727 C729 1.388 . S
C728 C727 1.366 . S
C728 C732 1.385 . S
C729 H704 0.951 . S
C729 C727 1.388 . S
C729 C730 1.366 . S
C730 C729 1.366 . S
C730 C731 1.414 . S
C730 C733 1.499 . S
C731 H705 0.950 . S
C731 C730 1.414 . S
C731 C732 1.374 . S
C732 H706 0.950 . S
C732 C728 1.385 . S
C732 C731 1.374 . S
C733 C730 1.499 . S
C733 C734 1.373 . S
C733 C735 1.389 . S
C734 H707 0.950 . S
C734 C720 1.377 . S
C734 C733 1.373 . S
C735 C719 1.377 . S
C735 C733 1.389 . S
C735 C736 1.524 . S
C736 C735 1.524 . S
C736 C737 1.397 . S
C736 C741 1.363 . S
C737 H708 0.950 . S
C737 C736 1.397 . S
C737 C738 1.334 . S
C738 H709 0.950 . S
C738 C737 1.334 . S
C738 C739 1.287 . S
C739 C738 1.287 . S
C739 C740 1.524 . S
C739 H742 0.999 . S
C740 H710 0.950 . S
C740 C739 1.524 . S
C740 C741 1.415 . S
C741 H711 0.950 . S
C741 C736 1.363 . S
C741 C740 1.415 . S
H742 C739 0.999 . S
H743 C724 0.913 . S
H744 C762 0.951 . S
H745 C764 0.951 . S
H746 C766 0.950 . S
H747 C767 0.950 . S
H748 C769 0.950 . S
H749 C772 0.950 . S
H750 C773 0.950 . S
H751 C775 0.950 . S
H752 C776 0.950 . S
H753 C777 0.951 . S
H754 C779 0.951 . S
H755 C781 0.950 . S
H756 C782 0.950 . S
H757 C784 0.950 . S
H758 C787 0.950 . S
H759 C788 0.950 . S
H760 C790 0.950 . S
H761 C791 0.950 . S
C762 H744 0.951 . S
C762 C763 1.366 . S
C762 C764 1.388 . S
C763 C762 1.366 . S
C763 C767 1.385 . S
C764 H745 0.951 . S
C764 C762 1.388 . S
C764 C765 1.366 . S
C765 C764 1.366 . S
C765 C766 1.414 . S
C765 C768 1.499 . S
C766 H746 0.950 . S
C766 C765 1.414 . S
C766 C767 1.374 . S
C767 H747 0.950 . S
C767 C763 1.385 . S
C767 C766 1.374 . S
C768 C765 1.499 . S
C768 C769 1.373 . S
C768 C770 1.389 . S
C769 H748 0.950 . S
C769 C768 1.373 . S
C769 C785 1.377 . S
C770 C768 1.389 . S
C770 C771 1.524 . S
C770 C784 1.377 . S
C771 C770 1.524 . S
C771 C772 1.397 . S
C771 C776 1.363 . S
C772 H749 0.950 . S
C772 C771 1.397 . S
C772 C773 1.334 . S
C773 H750 0.950 . S
C773 C772 1.334 . S
C773 C774 1.287 . S
C774 C773 1.287 . S
C774 C775 1.524 . S
C774 H793 0.913 . S
C775 H751 0.950 . S
C775 C774 1.524 . S
C775 C776 1.415 . S
C776 H752 0.950 . S
C776 C771 1.363 . S
C776 C775 1.415 . S
C777 H753 0.951 . S
C777 C778 1.366 . S
C777 C779 1.388 . S
C778 C777 1.366 . S
C778 C782 1.385 . S
C779 H754 0.951 . S
C779 C777 1.388 . S
C779 C780 1.366 . S
C780 C779 1.366 . S
C780 C781 1.414 . S
C780 C783 1.499 . S
C781 H755 0.950 . S
C781 C780 1.414 . S
C781 C782 1.374 . S
C782 H756 0.950 . S
C782 C778 1.385 . S
C782 C781 1.374 . S
C783 C780 1.499 . S
C783 C784 1.373 . S
C783 C785 1.389 . S
C784 H757 0.950 . S
C784 C770 1.377 . S
C784 C783 1.373 . S
C785 C769 1.377 . S
C785 C783 1.389 . S
C785 C786 1.524 . S
C786 C785 1.524 . S
C786 C787 1.397 . S
C786 C791 1.363 . S
C787 H758 0.950 . S
C787 C786 1.397 . S
C787 C788 1.334 . S
C788 H759 0.950 . S
C788 C787 1.334 . S
C788 C789 1.287 . S
C789 C788 1.287 . S
C789 C790 1.524 . S
C789 H792 0.999 . S
C790 H760 0.950 . S
C790 C789 1.524 . S
C790 C791 1.415 . S
C791 H761 0.950 . S
C791 C786 1.363 . S
C791 C790 1.415 . S
H792 C789 0.999 . S
H793 C774 0.913 . S
H794 C812 0.951 . S
H795 C814 0.951 . S
H796 C816 0.950 . S
H797 C817 0.950 . S
H798 C819 0.950 . S
H799 C822 0.950 . S
H800 C823 0.950 . S
H801 C825 0.950 . S
H802 C826 0.950 . S
H803 C827 0.951 . S
H804 C829 0.951 . S
H805 C831 0.950 . S
H806 C832 0.946 1_455 S
H807 C834 0.950 . S
H808 C837 0.950 . S
H809 C838 0.950 . S
H810 C840 0.950 . S
H811 C841 0.950 . S
C812 H794 0.951 . S
C812 C813 1.366 . S
C812 C814 1.388 . S
C813 C812 1.366 . S
C813 C817 1.385 . S
C814 H795 0.951 . S
C814 C812 1.388 . S
C814 C815 1.366 . S
C815 C814 1.366 . S
C815 C816 1.414 . S
C815 C818 1.499 . S
C816 H796 0.950 . S
C816 C815 1.414 . S
C816 C817 1.374 . S
C817 H797 0.950 . S
C817 C813 1.385 . S
C817 C816 1.374 . S
C818 C815 1.499 . S
C818 C819 1.373 . S
C818 C820 1.389 . S
C819 H798 0.950 . S
C819 C818 1.373 . S
C819 C835 1.377 . S
C820 C818 1.389 . S
C820 C821 1.524 . S
C820 C834 1.377 . S
C821 C820 1.524 . S
C821 C822 1.397 . S
C821 C826 1.363 . S
C822 H799 0.950 . S
C822 C821 1.397 . S
C822 C823 1.334 . S
C823 H800 0.950 . S
C823 C822 1.334 . S
C823 C824 1.287 . S
C824 C823 1.287 . S
C824 C825 1.524 . S
C824 H843 0.913 . S
C825 H801 0.950 . S
C825 C824 1.524 . S
C825 C826 1.415 . S
C826 H802 0.950 . S
C826 C821 1.363 . S
C826 C825 1.415 . S
C827 H803 0.951 . S
C827 C828 1.366 . S
C827 C829 1.388 . S
C828 C827 1.366 . S
C828 C832 1.385 . S
C829 H804 0.951 . S
C829 C827 1.388 . S
C829 C830 1.366 . S
C830 C829 1.366 . S
C830 C831 1.414 . S
C830 C833 1.499 . S
C831 H805 0.950 . S
C831 C830 1.414 . S
C831 C832 1.374 . S
C832 H806 0.946 1_655 S
C832 C828 1.385 . S
C832 C831 1.374 . S
C833 C830 1.499 . S
C833 C834 1.373 . S
C833 C835 1.389 . S
C834 H807 0.950 . S
C834 C820 1.377 . S
C834 C833 1.373 . S
C835 C819 1.377 . S
C835 C833 1.389 . S
C835 C836 1.524 . S
C836 C835 1.524 . S
C836 C837 1.397 . S
C836 C841 1.363 . S
C837 H808 0.950 . S
C837 C836 1.397 . S
C837 C838 1.334 . S
C838 H809 0.950 . S
C838 C837 1.334 . S
C838 C839 1.287 . S
C839 C838 1.287 . S
C839 C840 1.524 . S
C839 H842 0.999 . S
C840 H810 0.950 . S
C840 C839 1.524 . S
C840 C841 1.415 . S
C841 H811 0.950 . S
C841 C836 1.363 . S
C841 C840 1.415 . S
H842 C839 0.999 . S
H843 C824 0.913 . S
H844 C862 0.951 . S
H845 C864 0.951 . S
H846 C866 0.950 . S
H847 C867 0.950 . S
H848 C869 0.950 . S
H849 C872 0.950 . S
H850 C873 0.950 . S
H851 C875 0.950 . S
H852 C876 0.950 . S
H853 C877 0.951 . S
H854 C879 0.951 . S
H855 C881 0.950 . S
H856 C882 0.950 . S
H857 C884 0.950 . S
H858 C887 0.950 . S
H859 C888 0.950 . S
H860 C890 0.950 . S
H861 C891 0.950 . S
C862 H844 0.951 . S
C862 C863 1.366 . S
C862 C864 1.388 . S
C863 C862 1.366 . S
C863 C867 1.385 . S
C864 H845 0.951 . S
C864 C862 1.388 . S
C864 C865 1.366 . S
C865 C864 1.366 . S
C865 C866 1.414 . S
C865 C868 1.499 . S
C866 H846 0.950 . S
C866 C865 1.414 . S
C866 C867 1.374 . S
C867 H847 0.950 . S
C867 C863 1.385 . S
C867 C866 1.374 . S
C868 C865 1.499 . S
C868 C869 1.373 . S
C868 C870 1.389 . S
C869 H848 0.950 . S
C869 C868 1.373 . S
C869 C885 1.377 . S
C870 C868 1.389 . S
C870 C871 1.524 . S
C870 C884 1.377 . S
C871 C870 1.524 . S
C871 C872 1.397 . S
C871 C876 1.363 . S
C872 H849 0.950 . S
C872 C871 1.397 . S
C872 C873 1.334 . S
C873 H850 0.950 . S
C873 C872 1.334 . S
C873 C874 1.287 . S
C874 C873 1.287 . S
C874 C875 1.524 . S
C874 H893 0.913 . S
C875 H851 0.950 . S
C875 C874 1.524 . S
C875 C876 1.415 . S
C876 H852 0.950 . S
C876 C871 1.363 . S
C876 C875 1.415 . S
C877 H853 0.951 . S
C877 C878 1.366 . S
C877 C879 1.388 . S
C878 C877 1.366 . S
C878 C882 1.385 . S
C879 H854 0.951 . S
C879 C877 1.388 . S
C879 C880 1.366 . S
C880 C879 1.366 . S
C880 C881 1.414 . S
C880 C883 1.499 . S
C881 H855 0.950 . S
C881 C880 1.414 . S
C881 C882 1.374 . S
C882 H856 0.950 . S
C882 C878 1.385 . S
C882 C881 1.374 . S
C883 C880 1.499 . S
C883 C884 1.373 . S
C883 C885 1.389 . S
C884 H857 0.950 . S
C884 C870 1.377 . S
C884 C883 1.373 . S
C885 C869 1.377 . S
C885 C883 1.389 . S
C885 C886 1.524 . S
C886 C885 1.524 . S
C886 C887 1.397 . S
C886 C891 1.363 . S
C887 H858 0.950 . S
C887 C886 1.397 . S
C887 C888 1.334 . S
C888 H859 0.950 . S
C888 C887 1.334 . S
C888 C889 1.287 . S
C889 C888 1.287 . S
C889 C890 1.524 . S
C889 H892 0.999 . S
C890 H860 0.950 . S
C890 C889 1.524 . S
C890 C891 1.415 . S
C891 H861 0.950 . S
C891 C886 1.363 . S
C891 C890 1.415 . S
H892 C889 0.999 . S
H893 C874 0.913 . S
H894 C912 0.951 . S
H895 C914 0.951 . S
H896 C916 0.950 . S
H897 C917 0.908 1_655 S
H898 C919 0.950 . S
H899 C922 0.950 . S
H900 C923 0.950 . S
H901 C925 0.950 . S
H902 C926 0.950 . S
H903 C927 0.951 . S
H904 C929 0.951 . S
H905 C931 0.950 . S
H906 C932 0.950 . S
H907 C934 0.950 . S
H908 C937 0.950 . S
H909 C938 0.950 . S
H910 C940 0.950 . S
H911 C941 0.950 . S
C912 H894 0.951 . S
C912 C913 1.366 . S
C912 C914 1.388 . S
C913 C912 1.366 . S
C913 C917 1.385 . S
C914 H895 0.951 . S
C914 C912 1.388 . S
C914 C915 1.366 . S
C915 C914 1.366 . S
C915 C916 1.414 . S
C915 C918 1.499 . S
C916 H896 0.950 . S
C916 C915 1.414 . S
C916 C917 1.374 . S
C917 H897 0.908 1_455 S
C917 C913 1.385 . S
C917 C916 1.374 . S
C918 C915 1.499 . S
C918 C919 1.373 . S
C918 C920 1.389 . S
C919 H898 0.950 . S
C919 C918 1.373 . S
C919 C935 1.377 . S
C920 C918 1.389 . S
C920 C921 1.524 . S
C920 C934 1.377 . S
C921 C920 1.524 . S
C921 C922 1.397 . S
C921 C926 1.363 . S
C922 H899 0.950 . S
C922 C921 1.397 . S
C922 C923 1.334 . S
C923 H900 0.950 . S
C923 C922 1.334 . S
C923 C924 1.287 . S
C924 C923 1.287 . S
C924 C925 1.524 . S
C924 H943 0.913 . S
C925 H901 0.950 . S
C925 C924 1.524 . S
C925 C926 1.415 . S
C926 H902 0.950 . S
C926 C921 1.363 . S
C926 C925 1.415 . S
C927 H903 0.951 . S
C927 C928 1.366 . S
C927 C929 1.388 . S
C928 C927 1.366 . S
C928 C932 1.385 . S
C929 H904 0.951 . S
C929 C927 1.388 . S
C929 C930 1.366 . S
C930 C929 1.366 . S
C930 C931 1.414 . S
C930 C933 1.499 . S
C931 H905 0.950 . S
C931 C930 1.414 . S
C931 C932 1.374 . S
C932 H906 0.950 . S
C932 C928 1.385 . S
C932 C931 1.374 . S
C933 C930 1.499 . S
C933 C934 1.373 . S
C933 C935 1.389 . S
C934 H907 0.950 . S
C934 C920 1.377 . S
C934 C933 1.373 . S
C935 C919 1.377 . S
C935 C933 1.389 . S
C935 C936 1.524 . S
C936 C935 1.524 . S
C936 C937 1.397 . S
C936 C941 1.363 . S
C937 H908 0.950 . S
C937 C936 1.397 . S
C937 C938 1.334 . S
C938 H909 0.950 . S
C938 C937 1.334 . S
C938 C939 1.287 . S
C939 C938 1.287 . S
C939 C940 1.524 . S
C939 H942 0.999 . S
C940 H910 0.950 . S
C940 C939 1.524 . S
C940 C941 1.415 . S
C941 H911 0.950 . S
C941 C936 1.363 . S
C941 C940 1.415 . S
H942 C939 0.999 . S
H943 C924 0.913 . S
H944 C962 0.951 . S
H945 C964 0.951 . S
H946 C966 0.950 . S
H947 C967 0.950 . S
H948 C969 0.950 . S
H949 C972 0.950 . S
H950 C973 0.950 . S
H951 C975 0.950 . S
H952 C976 0.950 . S
H953 C977 0.951 . S
H954 C979 0.951 . S
H955 C981 0.950 . S
H956 C982 0.950 . S
H957 C984 0.950 . S
H958 C987 0.950 . S
H959 C988 0.950 . S
H960 C990 0.950 . S
H961 C991 0.950 . S
C962 H944 0.951 . S
C962 C963 1.366 . S
C962 C964 1.388 . S
C963 C962 1.366 . S
C963 C967 1.385 . S
C964 H945 0.951 . S
C964 C962 1.388 . S
C964 C965 1.366 . S
C965 C964 1.366 . S
C965 C966 1.414 . S
C965 C968 1.499 . S
C966 H946 0.950 . S
C966 C965 1.414 . S
C966 C967 1.374 . S
C967 H947 0.950 . S
C967 C963 1.385 . S
C967 C966 1.374 . S
C968 C965 1.499 . S
C968 C969 1.373 . S
C968 C970 1.389 . S
C969 H948 0.950 . S
C969 C968 1.373 . S
C969 C985 1.377 . S
C970 C968 1.389 . S
C970 C971 1.524 . S
C970 C984 1.377 . S
C971 C970 1.524 . S
C971 C972 1.397 . S
C971 C976 1.363 . S
C972 H949 0.950 . S
C972 C971 1.397 . S
C972 C973 1.334 . S
C973 H950 0.950 . S
C973 C972 1.334 . S
C973 C974 1.287 . S
C974 C973 1.287 . S
C974 C975 1.524 . S
C974 H993 0.913 . S
C975 H951 0.950 . S
C975 C974 1.524 . S
C975 C976 1.415 . S
C976 H952 0.950 . S
C976 C971 1.363 . S
C976 C975 1.415 . S
C977 H953 0.951 . S
C977 C978 1.366 . S
C977 C979 1.388 . S
C978 C977 1.366 . S
C978 C982 1.385 . S
C979 H954 0.951 . S
C979 C977 1.388 . S
C979 C980 1.366 . S
C980 C979 1.366 . S
C980 C981 1.414 . S
C980 C983 1.499 . S
C981 H955 0.950 . S
C981 C980 1.414 . S
C981 C982 1.374 . S
C982 H956 0.950 . S
C982 C978 1.385 . S
C982 C981 1.374 . S
C983 C980 1.499 . S
C983 C984 1.373 . S
C983 C985 1.389 . S
C984 H957 0.950 . S
C984 C970 1.377 . S
C984 C983 1.373 . S
C985 C969 1.377 . S
C985 C983 1.389 . S
C985 C986 1.524 . S
C986 C985 1.524 . S
C986 C987 1.397 . S
C986 C991 1.363 . S
C987 H958 0.950 . S
C987 C986 1.397 . S
C987 C988 1.334 . S
C988 H959 0.950 . S
C988 C987 1.334 . S
C988 C989 1.287 . S
C989 C988 1.287 . S
C989 C990 1.524 . S
C989 H992 0.999 . S
C990 H960 0.950 . S
C990 C989 1.524 . S
C990 C991 1.415 . S
C991 H961 0.950 . S
C991 C986 1.363 . S
C991 C990 1.415 . S
H992 C989 0.999 . S
H993 C974 0.913 . S
H994 C1012 0.951 . S
H995 C1014 0.951 . S
H996 C1016 0.950 . S
H997 C1017 0.950 . S
H998 C1019 0.950 . S
H999 C1022 0.950 . S
H1000 C1023 0.950 . S
H1001 C1025 0.950 . S
H1002 C1026 0.950 . S
H1003 C1027 0.951 . S
H1004 C1029 0.951 . S
H1005 C1031 0.950 . S
H1006 C1032 0.950 . S
H1007 C1034 0.950 . S
H1008 C1037 0.950 . S
H1009 C1038 0.950 . S
H1010 C1040 0.950 . S
H1011 C1041 0.950 . S
C1012 H994 0.951 . S
C1012 C1013 1.366 . S
C1012 C1014 1.388 . S
C1013 C1012 1.366 . S
C1013 C1017 1.385 . S
C1014 H995 0.951 . S
C1014 C1012 1.388 . S
C1014 C1015 1.366 . S
C1015 C1014 1.366 . S
C1015 C1016 1.414 . S
C1015 C1018 1.499 . S
C1016 H996 0.950 . S
C1016 C1015 1.414 . S
C1016 C1017 1.374 . S
C1017 H997 0.950 . S
C1017 C1013 1.385 . S
C1017 C1016 1.374 . S
C1018 C1015 1.499 . S
C1018 C1019 1.373 . S
C1018 C1020 1.389 . S
C1019 H998 0.950 . S
C1019 C1018 1.373 . S
C1019 C1035 1.377 . S
C1020 C1018 1.389 . S
C1020 C1021 1.524 . S
C1020 C1034 1.377 . S
C1021 C1020 1.524 . S
C1021 C1022 1.397 . S
C1021 C1026 1.363 . S
C1022 H999 0.950 . S
C1022 C1021 1.397 . S
C1022 C1023 1.334 . S
C1023 H1000 0.950 . S
C1023 C1022 1.334 . S
C1023 C1024 1.287 . S
C1024 C1023 1.287 . S
C1024 C1025 1.524 . S
C1024 H1043 0.913 . S
C1025 H1001 0.950 . S
C1025 C1024 1.524 . S
C1025 C1026 1.415 . S
C1026 H1002 0.950 . S
C1026 C1021 1.363 . S
C1026 C1025 1.415 . S
C1027 H1003 0.951 . S
C1027 C1028 1.366 . S
C1027 C1029 1.388 . S
C1028 C1027 1.366 . S
C1028 C1032 1.385 . S
C1029 H1004 0.951 . S
C1029 C1027 1.388 . S
C1029 C1030 1.366 . S
C1030 C1029 1.366 . S
C1030 C1031 1.414 . S
C1030 C1033 1.499 . S
C1031 H1005 0.950 . S
C1031 C1030 1.414 . S
C1031 C1032 1.374 . S
C1032 H1006 0.950 . S
C1032 C1028 1.385 . S
C1032 C1031 1.374 . S
C1033 C1030 1.499 . S
C1033 C1034 1.373 . S
C1033 C1035 1.389 . S
C1034 H1007 0.950 . S
C1034 C1020 1.377 . S
C1034 C1033 1.373 . S
C1035 C1019 1.377 . S
C1035 C1033 1.389 . S
C1035 C1036 1.524 . S
C1036 C1035 1.524 . S
C1036 C1037 1.397 . S
C1036 C1041 1.363 . S
C1037 H1008 0.950 . S
C1037 C1036 1.397 . S
C1037 C1038 1.334 . S
C1038 H1009 0.950 . S
C1038 C1037 1.334 . S
C1038 C1039 1.287 . S
C1039 C1038 1.287 . S
C1039 C1040 1.524 . S
C1039 H1042 0.999 . S
C1040 H1010 0.950 . S
C1040 C1039 1.524 . S
C1040 C1041 1.415 . S
C1041 H1011 0.950 . S
C1041 C1036 1.363 . S
C1041 C1040 1.415 . S
H1042 C1039 0.999 . S
H1043 C1024 0.913 . S
H1044 C1062 0.951 . S
H1045 C1064 0.951 . S
H1046 C1066 0.950 . S
H1047 C1067 0.950 . S
H1048 C1069 0.950 . S
H1049 C1072 0.950 . S
H1050 C1073 0.950 . S
H1051 C1075 0.950 . S
H1052 C1076 0.950 . S
H1053 C1077 0.951 . S
H1054 C1079 0.951 . S
H1055 C1081 0.950 . S
H1056 C1082 0.950 . S
H1057 C1084 0.950 . S
H1058 C1087 0.950 . S
H1059 C1088 0.950 . S
H1060 C1090 0.950 . S
H1061 C1091 0.950 . S
C1062 H1044 0.951 . S
C1062 C1063 1.366 . S
C1062 C1064 1.388 . S
C1063 C1062 1.366 . S
C1063 C1067 1.385 . S
C1064 H1045 0.951 . S
C1064 C1062 1.388 . S
C1064 C1065 1.366 . S
C1065 C1064 1.366 . S
C1065 C1066 1.414 . S
C1065 C1068 1.499 . S
C1066 H1046 0.950 . S
C1066 C1065 1.414 . S
C1066 C1067 1.374 . S
C1067 H1047 0.950 . S
C1067 C1063 1.385 . S
C1067 C1066 1.374 . S
C1068 C1065 1.499 . S
C1068 C1069 1.373 . S
C1068 C1070 1.389 . S
C1069 H1048 0.950 . S
C1069 C1068 1.373 . S
C1069 C1085 1.377 . S
C1070 C1068 1.389 . S
C1070 C1071 1.524 . S
C1070 C1084 1.377 . S
C1071 C1070 1.524 . S
C1071 C1072 1.397 . S
C1071 C1076 1.363 . S
C1072 H1049 0.950 . S
C1072 C1071 1.397 . S
C1072 C1073 1.334 . S
C1073 H1050 0.950 . S
C1073 C1072 1.334 . S
C1073 C1074 1.287 . S
C1074 C1073 1.287 . S
C1074 C1075 1.524 . S
C1074 H1093 0.913 . S
C1075 H1051 0.950 . S
C1075 C1074 1.524 . S
C1075 C1076 1.415 . S
C1076 H1052 0.950 . S
C1076 C1071 1.363 . S
C1076 C1075 1.415 . S
C1077 H1053 0.951 . S
C1077 C1078 1.366 . S
C1077 C1079 1.388 . S
C1078 C1077 1.366 . S
C1078 C1082 1.385 . S
C1079 H1054 0.951 . S
C1079 C1077 1.388 . S
C1079 C1080 1.366 . S
C1080 C1079 1.366 . S
C1080 C1081 1.414 . S
C1080 C1083 1.499 . S
C1081 H1055 0.950 . S
C1081 C1080 1.414 . S
C1081 C1082 1.374 . S
C1082 H1056 0.950 . S
C1082 C1078 1.385 . S
C1082 C1081 1.374 . S
C1083 C1080 1.499 . S
C1083 C1084 1.373 . S
C1083 C1085 1.389 . S
C1084 H1057 0.950 . S
C1084 C1070 1.377 . S
C1084 C1083 1.373 . S
C1085 C1069 1.377 . S
C1085 C1083 1.389 . S
C1085 C1086 1.524 . S
C1086 C1085 1.524 . S
C1086 C1087 1.397 . S
C1086 C1091 1.363 . S
C1087 H1058 0.950 . S
C1087 C1086 1.397 . S
C1087 C1088 1.334 . S
C1088 H1059 0.950 . S
C1088 C1087 1.334 . S
C1088 C1089 1.287 . S
C1089 C1088 1.287 . S
C1089 C1090 1.524 . S
C1089 H1092 0.999 . S
C1090 H1060 0.950 . S
C1090 C1089 1.524 . S
C1090 C1091 1.415 . S
C1091 H1061 0.950 . S
C1091 C1086 1.363 . S
C1091 C1090 1.415 . S
H1092 C1089 0.999 . S
H1093 C1074 0.913 . S
H1094 C1112 0.951 . S
H1095 C1114 0.951 . S
H1096 C1116 0.950 . S
H1097 C1117 0.950 . S
H1098 C1119 0.950 . S
H1099 C1122 0.950 . S
H1100 C1123 0.950 . S
H1101 C1125 0.950 . S
H1102 C1126 0.950 . S
H1103 C1127 0.951 . S
H1104 C1129 0.951 . S
H1105 C1131 0.950 . S
H1106 C1132 0.950 . S
H1107 C1134 0.950 . S
H1108 C1137 0.950 . S
H1109 C1138 0.950 . S
H1110 C1140 0.950 . S
H1111 C1141 0.950 . S
C1112 H1094 0.951 . S
C1112 C1113 1.366 . S
C1112 C1114 1.388 . S
C1113 C1112 1.366 . S
C1113 C1117 1.385 . S
C1114 H1095 0.951 . S
C1114 C1112 1.388 . S
C1114 C1115 1.366 . S
C1115 C1114 1.366 . S
C1115 C1116 1.414 . S
C1115 C1118 1.499 . S
C1116 H1096 0.950 . S
C1116 C1115 1.414 . S
C1116 C1117 1.374 . S
C1117 H1097 0.950 . S
C1117 C1113 1.385 . S
C1117 C1116 1.374 . S
C1118 C1115 1.499 . S
C1118 C1119 1.373 . S
C1118 C1120 1.389 . S
C1119 H1098 0.950 . S
C1119 C1118 1.373 . S
C1119 C1135 1.377 . S
C1120 C1118 1.389 . S
C1120 C1121 1.524 . S
C1120 C1134 1.377 . S
C1121 C1120 1.524 . S
C1121 C1122 1.397 . S
C1121 C1126 1.363 . S
C1122 H1099 0.950 . S
C1122 C1121 1.397 . S
C1122 C1123 1.334 . S
C1123 H1100 0.950 . S
C1123 C1122 1.334 . S
C1123 C1124 1.287 . S
C1124 C1123 1.287 . S
C1124 C1125 1.524 . S
C1124 H1143 0.913 . S
C1125 H1101 0.950 . S
C1125 C1124 1.524 . S
C1125 C1126 1.415 . S
C1126 H1102 0.950 . S
C1126 C1121 1.363 . S
C1126 C1125 1.415 . S
C1127 H1103 0.951 . S
C1127 C1128 1.366 . S
C1127 C1129 1.388 . S
C1128 C1127 1.366 . S
C1128 C1132 1.385 . S
C1129 H1104 0.951 . S
C1129 C1127 1.388 . S
C1129 C1130 1.366 . S
C1130 C1129 1.366 . S
C1130 C1131 1.414 . S
C1130 C1133 1.499 . S
C1131 H1105 0.950 . S
C1131 C1130 1.414 . S
C1131 C1132 1.374 . S
C1132 H1106 0.950 . S
C1132 C1128 1.385 . S
C1132 C1131 1.374 . S
C1133 C1130 1.499 . S
C1133 C1134 1.373 . S
C1133 C1135 1.389 . S
C1134 H1107 0.950 . S
C1134 C1120 1.377 . S
C1134 C1133 1.373 . S
C1135 C1119 1.377 . S
C1135 C1133 1.389 . S
C1135 C1136 1.524 . S
C1136 C1135 1.524 . S
C1136 C1137 1.397 . S
C1136 C1141 1.363 . S
C1137 H1108 0.950 . S
C1137 C1136 1.397 . S
C1137 C1138 1.334 . S
C1138 H1109 0.950 . S
C1138 C1137 1.334 . S
C1138 C1139 1.287 . S
C1139 C1138 1.287 . S
C1139 C1140 1.524 . S
C1139 H1142 0.999 . S
C1140 H1110 0.950 . S
C1140 C1139 1.524 . S
C1140 C1141 1.415 . S
C1141 H1111 0.950 . S
C1141 C1136 1.363 . S
C1141 C1140 1.415 . S
H1142 C1139 0.999 . S
H1143 C1124 0.913 . S
H1144 C1162 0.951 . S
H1145 C1164 0.951 . S
H1146 C1166 0.950 . S
H1147 C1167 0.950 . S
H1148 C1169 0.950 . S
H1149 C1172 0.950 . S
H1150 C1173 0.950 . S
H1151 C1175 0.950 . S
H1152 C1176 0.950 . S
H1153 C1177 0.951 . S
H1154 C1179 0.951 . S
H1155 C1181 0.950 . S
H1156 C1182 0.950 . S
H1157 C1184 0.950 . S
H1158 C1187 0.950 . S
H1159 C1188 0.950 . S
H1160 C1190 0.950 . S
H1161 C1191 0.950 . S
C1162 H1144 0.951 . S
C1162 C1163 1.366 . S
C1162 C1164 1.388 . S
C1163 C1162 1.366 . S
C1163 C1167 1.385 . S
C1164 H1145 0.951 . S
C1164 C1162 1.388 . S
C1164 C1165 1.366 . S
C1165 C1164 1.366 . S
C1165 C1166 1.414 . S
C1165 C1168 1.499 . S
C1166 H1146 0.950 . S
C1166 C1165 1.414 . S
C1166 C1167 1.374 . S
C1167 H1147 0.950 . S
C1167 C1163 1.385 . S
C1167 C1166 1.374 . S
C1168 C1165 1.499 . S
C1168 C1169 1.373 . S
C1168 C1170 1.389 . S
C1169 H1148 0.950 . S
C1169 C1168 1.373 . S
C1169 C1185 1.377 . S
C1170 C1168 1.389 . S
C1170 C1171 1.524 . S
C1170 C1184 1.377 . S
C1171 C1170 1.524 . S
C1171 C1172 1.397 . S
C1171 C1176 1.363 . S
C1172 H1149 0.950 . S
C1172 C1171 1.397 . S
C1172 C1173 1.334 . S
C1173 H1150 0.950 . S
C1173 C1172 1.334 . S
C1173 C1174 1.287 . S
C1174 C1173 1.287 . S
C1174 C1175 1.524 . S
C1174 H1193 0.913 . S
C1175 H1151 0.950 . S
C1175 C1174 1.524 . S
C1175 C1176 1.415 . S
C1176 H1152 0.950 . S
C1176 C1171 1.363 . S
C1176 C1175 1.415 . S
C1177 H1153 0.951 . S
C1177 C1178 1.366 . S
C1177 C1179 1.388 . S
C1178 C1177 1.366 . S
C1178 C1182 1.385 . S
C1179 H1154 0.951 . S
C1179 C1177 1.388 . S
C1179 C1180 1.366 . S
C1180 C1179 1.366 . S
C1180 C1181 1.414 . S
C1180 C1183 1.499 . S
C1181 H1155 0.950 . S
C1181 C1180 1.414 . S
C1181 C1182 1.374 . S
C1182 H1156 0.950 . S
C1182 C1178 1.385 . S
C1182 C1181 1.374 . S
C1183 C1180 1.499 . S
C1183 C1184 1.373 . S
C1183 C1185 1.389 . S
C1184 H1157 0.950 . S
C1184 C1170 1.377 . S
C1184 C1183 1.373 . S
C1185 C1169 1.377 . S
C1185 C1183 1.389 . S
C1185 C1186 1.524 . S
C1186 C1185 1.524 . S
C1186 C1187 1.397 . S
C1186 C1191 1.363 . S
C1187 H1158 0.950 . S
C1187 C1186 1.397 . S
C1187 C1188 1.334 . S
C1188 H1159 0.950 . S
C1188 C1187 1.334 . S
C1188 C1189 1.287 . S
C1189 C1188 1.287 . S
C1189 C1190 1.524 . S
C1189 H1192 0.999 . S
C1190 H1160 0.950 . S
C1190 C1189 1.524 . S
C1190 C1191 1.415 . S
C1191 H1161 0.950 . S
C1191 C1186 1.363 . S
C1191 C1190 1.415 . S
H1192 C1189 0.999 . S
H1193 C1174 0.913 . S
H1194 C1212 0.951 . S
H1195 C1214 0.951 . S
H1196 C1216 0.950 . S
H1197 C1217 0.950 . S
H1198 C1219 0.950 . S
H1199 C1222 0.950 . S
H1200 C1223 0.950 . S
H1201 C1225 0.950 . S
H1202 C1226 0.950 . S
H1203 C1227 0.951 . S
H1204 C1229 0.951 . S
H1205 C1231 0.950 . S
H1206 C1232 0.950 . S
H1207 C1234 0.950 . S
H1208 C1237 0.950 . S
H1209 C1238 0.950 . S
H1210 C1240 0.950 . S
H1211 C1241 0.950 . S
C1212 H1194 0.951 . S
C1212 C1213 1.366 . S
C1212 C1214 1.388 . S
C1213 C1212 1.366 . S
C1213 C1217 1.385 . S
C1214 H1195 0.951 . S
C1214 C1212 1.388 . S
C1214 C1215 1.366 . S
C1215 C1214 1.366 . S
C1215 C1216 1.414 . S
C1215 C1218 1.499 . S
C1216 H1196 0.950 . S
C1216 C1215 1.414 . S
C1216 C1217 1.374 . S
C1217 H1197 0.950 . S
C1217 C1213 1.385 . S
C1217 C1216 1.374 . S
C1218 C1215 1.499 . S
C1218 C1219 1.373 . S
C1218 C1220 1.389 . S
C1219 H1198 0.950 . S
C1219 C1218 1.373 . S
C1219 C1235 1.377 . S
C1220 C1218 1.389 . S
C1220 C1221 1.524 . S
C1220 C1234 1.377 . S
C1221 C1220 1.524 . S
C1221 C1222 1.397 . S
C1221 C1226 1.363 . S
C1222 H1199 0.950 . S
C1222 C1221 1.397 . S
C1222 C1223 1.334 . S
C1223 H1200 0.950 . S
C1223 C1222 1.334 . S
C1223 C1224 1.287 . S
C1224 C1223 1.287 . S
C1224 C1225 1.524 . S
C1224 H1243 0.913 . S
C1225 H1201 0.950 . S
C1225 C1224 1.524 . S
C1225 C1226 1.415 . S
C1226 H1202 0.950 . S
C1226 C1221 1.363 . S
C1226 C1225 1.415 . S
C1227 H1203 0.951 . S
C1227 C1228 1.366 . S
C1227 C1229 1.388 . S
C1228 C1227 1.366 . S
C1228 C1232 1.385 . S
C1229 H1204 0.951 . S
C1229 C1227 1.388 . S
C1229 C1230 1.366 . S
C1230 C1229 1.366 . S
C1230 C1231 1.414 . S
C1230 C1233 1.499 . S
C1231 H1205 0.950 . S
C1231 C1230 1.414 . S
C1231 C1232 1.374 . S
C1232 H1206 0.950 . S
C1232 C1228 1.385 . S
C1232 C1231 1.374 . S
C1233 C1230 1.499 . S
C1233 C1234 1.373 . S
C1233 C1235 1.389 . S
C1234 H1207 0.950 . S
C1234 C1220 1.377 . S
C1234 C1233 1.373 . S
C1235 C1219 1.377 . S
C1235 C1233 1.389 . S
C1235 C1236 1.524 . S
C1236 C1235 1.524 . S
C1236 C1237 1.397 . S
C1236 C1241 1.363 . S
C1237 H1208 0.950 . S
C1237 C1236 1.397 . S
C1237 C1238 1.334 . S
C1238 H1209 0.950 . S
C1238 C1237 1.334 . S
C1238 C1239 1.287 . S
C1239 C1238 1.287 . S
C1239 C1240 1.524 . S
C1239 H1242 0.999 . S
C1240 H1210 0.950 . S
C1240 C1239 1.524 . S
C1240 C1241 1.415 . S
C1241 H1211 0.950 . S
C1241 C1236 1.363 . S
C1241 C1240 1.415 . S
H1242 C1239 0.999 . S
H1243 C1224 0.913 . S
H1244 C1262 0.951 . S
H1245 C1264 0.951 . S
H1246 C1266 0.950 . S
H1247 C1267 0.950 . S
H1248 C1269 0.950 . S
H1249 C1272 0.950 . S
H1250 C1273 0.950 . S
H1251 C1275 0.950 . S
H1252 C1276 0.950 . S
H1253 C1277 0.951 . S
H1254 C1279 0.951 . S
H1255 C1281 0.950 . S
H1256 C1282 0.950 . S
H1257 C1284 0.950 . S
H1258 C1287 0.950 . S
H1259 C1288 0.950 . S
H1260 C1290 0.950 . S
H1261 C1291 0.950 . S
C1262 H1244 0.951 . S
C1262 C1263 1.366 . S
C1262 C1264 1.388 . S
C1263 C1262 1.366 . S
C1263 C1267 1.385 . S
C1264 H1245 0.951 . S
C1264 C1262 1.388 . S
C1264 C1265 1.366 . S
C1265 C1264 1.366 . S
C1265 C1266 1.414 . S
C1265 C1268 1.499 . S
C1266 H1246 0.950 . S
C1266 C1265 1.414 . S
C1266 C1267 1.374 . S
C1267 H1247 0.950 . S
C1267 C1263 1.385 . S
C1267 C1266 1.374 . S
C1268 C1265 1.499 . S
C1268 C1269 1.373 . S
C1268 C1270 1.389 . S
C1269 H1248 0.950 . S
C1269 C1268 1.373 . S
C1269 C1285 1.377 . S
C1270 C1268 1.389 . S
C1270 C1271 1.524 . S
C1270 C1284 1.377 . S
C1271 C1270 1.524 . S
C1271 C1272 1.397 . S
C1271 C1276 1.363 . S
C1272 H1249 0.950 . S
C1272 C1271 1.397 . S
C1272 C1273 1.334 . S
C1273 H1250 0.950 . S
C1273 C1272 1.334 . S
C1273 C1274 1.287 . S
C1274 C1273 1.287 . S
C1274 C1275 1.524 . S
C1274 H1293 0.913 . S
C1275 H1251 0.950 . S
C1275 C1274 1.524 . S
C1275 C1276 1.415 . S
C1276 H1252 0.950 . S
C1276 C1271 1.363 . S
C1276 C1275 1.415 . S
C1277 H1253 0.951 . S
C1277 C1278 1.366 . S
C1277 C1279 1.388 . S
C1278 C1277 1.366 . S
C1278 C1282 1.385 . S
C1279 H1254 0.951 . S
C1279 C1277 1.388 . S
C1279 C1280 1.366 . S
C1280 C1279 1.366 . S
C1280 C1281 1.414 . S
C1280 C1283 1.499 . S
C1281 H1255 0.950 . S
C1281 C1280 1.414 . S
C1281 C1282 1.374 . S
C1282 H1256 0.950 . S
C1282 C1278 1.385 . S
C1282 C1281 1.374 . S
C1283 C1280 1.499 . S
C1283 C1284 1.373 . S
C1283 C1285 1.389 . S
C1284 H1257 0.950 . S
C1284 C1270 1.377 . S
C1284 C1283 1.373 . S
C1285 C1269 1.377 . S
C1285 C1283 1.389 . S
C1285 C1286 1.524 . S
C1286 C1285 1.524 . S
C1286 C1287 1.397 . S
C1286 C1291 1.363 . S
C1287 H1258 0.950 . S
C1287 C1286 1.397 . S
C1287 C1288 1.334 . S
C1288 H1259 0.950 . S
C1288 C1287 1.334 . S
C1288 C1289 1.287 . S
C1289 C1288 1.287 . S
C1289 C1290 1.524 . S
C1289 H1292 0.999 . S
C1290 H1260 0.950 . S
C1290 C1289 1.524 . S
C1290 C1291 1.415 . S
C1291 H1261 0.950 . S
C1291 C1286 1.363 . S
C1291 C1290 1.415 . S
H1292 C1289 0.999 . S
H1293 C1274 0.913 . S
H1294 C1312 0.951 . S
H1295 C1314 0.951 . S
H1296 C1316 0.950 . S
H1297 C1317 0.950 . S
H1298 C1319 0.950 . S
H1299 C1322 0.950 . S
H1300 C1323 0.950 . S
H1301 C1325 0.950 . S
H1302 C1326 0.950 . S
H1303 C1327 0.951 . S
H1304 C1329 0.951 . S
H1305 C1331 0.950 . S
H1306 C1332 0.950 . S
H1307 C1334 0.950 . S
H1308 C1337 0.950 . S
H1309 C1338 0.950 . S
H1310 C1340 0.950 . S
H1311 C1341 0.950 . S
C1312 H1294 0.951 . S
C1312 C1313 1.366 . S
C1312 C1314 1.388 . S
C1313 C1312 1.366 . S
C1313 C1317 1.385 . S
C1314 H1295 0.951 . S
C1314 C1312 1.388 . S
C1314 C1315 1.366 . S
C1315 C1314 1.366 . S
C1315 C1316 1.414 . S
C1315 C1318 1.499 . S
C1316 H1296 0.950 . S
C1316 C1315 1.414 . S
C1316 C1317 1.374 . S
C1317 H1297 0.950 . S
C1317 C1313 1.385 . S
C1317 C1316 1.374 . S
C1318 C1315 1.499 . S
C1318 C1319 1.373 . S
C1318 C1320 1.389 . S
C1319 H1298 0.950 . S
C1319 C1318 1.373 . S
C1319 C1335 1.377 . S
C1320 C1318 1.389 . S
C1320 C1321 1.524 . S
C1320 C1334 1.377 . S
C1321 C1320 1.524 . S
C1321 C1322 1.397 . S
C1321 C1326 1.363 . S
C1322 H1299 0.950 . S
C1322 C1321 1.397 . S
C1322 C1323 1.334 . S
C1323 H1300 0.950 . S
C1323 C1322 1.334 . S
C1323 C1324 1.287 . S
C1324 C1323 1.287 . S
C1324 C1325 1.524 . S
C1324 H1343 0.913 . S
C1325 H1301 0.950 . S
C1325 C1324 1.524 . S
C1325 C1326 1.415 . S
C1326 H1302 0.950 . S
C1326 C1321 1.363 . S
C1326 C1325 1.415 . S
C1327 H1303 0.951 . S
C1327 C1328 1.366 . S
C1327 C1329 1.388 . S
C1328 C1327 1.366 . S
C1328 C1332 1.385 . S
C1329 H1304 0.951 . S
C1329 C1327 1.388 . S
C1329 C1330 1.366 . S
C1330 C1329 1.366 . S
C1330 C1331 1.414 . S
C1330 C1333 1.499 . S
C1331 H1305 0.950 . S
C1331 C1330 1.414 . S
C1331 C1332 1.374 . S
C1332 H1306 0.950 . S
C1332 C1328 1.385 . S
C1332 C1331 1.374 . S
C1333 C1330 1.499 . S
C1333 C1334 1.373 . S
C1333 C1335 1.389 . S
C1334 H1307 0.950 . S
C1334 C1320 1.377 . S
C1334 C1333 1.373 . S
C1335 C1319 1.377 . S
C1335 C1333 1.389 . S
C1335 C1336 1.524 . S
C1336 C1335 1.524 . S
C1336 C1337 1.397 . S
C1336 C1341 1.363 . S
C1337 H1308 0.950 . S
C1337 C1336 1.397 . S
C1337 C1338 1.334 . S
C1338 H1309 0.950 . S
C1338 C1337 1.334 . S
C1338 C1339 1.287 . S
C1339 C1338 1.287 . S
C1339 C1340 1.524 . S
C1339 H1342 0.999 . S
C1340 H1310 0.950 . S
C1340 C1339 1.524 . S
C1340 C1341 1.415 . S
C1341 H1311 0.950 . S
C1341 C1336 1.363 . S
C1341 C1340 1.415 . S
H1342 C1339 0.999 . S
H1343 C1324 0.913 . S
H1344 C1362 0.951 . S
H1345 C1364 0.951 . S
H1346 C1366 0.950 . S
H1347 C1367 0.950 . S
H1348 C1369 0.950 . S
H1349 C1372 0.950 . S
H1350 C1373 0.950 . S
H1351 C1375 0.950 . S
H1352 C1376 0.950 . S
H1353 C1377 0.951 . S
H1354 C1379 0.951 . S
H1355 C1381 0.950 . S
H1356 C1382 0.950 . S
H1357 C1384 0.950 . S
H1358 C1387 0.950 . S
H1359 C1388 0.950 . S
H1360 C1390 0.950 . S
H1361 C1391 0.950 . S
C1362 H1344 0.951 . S
C1362 C1363 1.366 . S
C1362 C1364 1.388 . S
C1363 C1362 1.366 . S
C1363 C1367 1.385 . S
C1364 H1345 0.951 . S
C1364 C1362 1.388 . S
C1364 C1365 1.366 . S
C1365 C1364 1.366 . S
C1365 C1366 1.414 . S
C1365 C1368 1.499 . S
C1366 H1346 0.950 . S
C1366 C1365 1.414 . S
C1366 C1367 1.374 . S
C1367 H1347 0.950 . S
C1367 C1363 1.385 . S
C1367 C1366 1.374 . S
C1368 C1365 1.499 . S
C1368 C1369 1.373 . S
C1368 C1370 1.389 . S
C1369 H1348 0.950 . S
C1369 C1368 1.373 . S
C1369 C1385 1.377 . S
C1370 C1368 1.389 . S
C1370 C1371 1.524 . S
C1370 C1384 1.377 . S
C1371 C1370 1.524 . S
C1371 C1372 1.397 . S
C1371 C1376 1.363 . S
C1372 H1349 0.950 . S
C1372 C1371 1.397 . S
C1372 C1373 1.334 . S
C1373 H1350 0.950 . S
C1373 C1372 1.334 . S
C1373 C1374 1.287 . S
C1374 C1373 1.287 . S
C1374 C1375 1.524 . S
C1374 H1393 0.913 . S
C1375 H1351 0.950 . S
C1375 C1374 1.524 . S
C1375 C1376 1.415 . S
C1376 H1352 0.950 . S
C1376 C1371 1.363 . S
C1376 C1375 1.415 . S
C1377 H1353 0.951 . S
C1377 C1378 1.366 . S
C1377 C1379 1.388 . S
C1378 C1377 1.366 . S
C1378 C1382 1.385 . S
C1379 H1354 0.951 . S
C1379 C1377 1.388 . S
C1379 C1380 1.366 . S
C1380 C1379 1.366 . S
C1380 C1381 1.414 . S
C1380 C1383 1.499 . S
C1381 H1355 0.950 . S
C1381 C1380 1.414 . S
C1381 C1382 1.374 . S
C1382 H1356 0.950 . S
C1382 C1378 1.385 . S
C1382 C1381 1.374 . S
C1383 C1380 1.499 . S
C1383 C1384 1.373 . S
C1383 C1385 1.389 . S
C1384 H1357 0.950 . S
C1384 C1370 1.377 . S
C1384 C1383 1.373 . S
C1385 C1369 1.377 . S
C1385 C1383 1.389 . S
C1385 C1386 1.524 . S
C1386 C1385 1.524 . S
C1386 C1387 1.397 . S
C1386 C1391 1.363 . S
C1387 H1358 0.950 . S
C1387 C1386 1.397 . S
C1387 C1388 1.334 . S
C1388 H1359 0.950 . S
C1388 C1387 1.334 . S
C1388 C1389 1.287 . S
C1389 C1388 1.287 . S
C1389 C1390 1.524 . S
C1389 H1392 0.999 . S
C1390 H1360 0.950 . S
C1390 C1389 1.524 . S
C1390 C1391 1.415 . S
C1391 H1361 0.950 . S
C1391 C1386 1.363 . S
C1391 C1390 1.415 . S
H1392 C1389 0.999 . S
H1393 C1374 0.913 . S
H1394 C1412 0.951 . S
H1395 C1414 0.951 . S
H1396 C1416 0.950 . S
H1397 C1417 0.950 . S
H1398 C1419 0.950 . S
H1399 C1422 0.950 . S
H1400 C1423 0.950 . S
H1401 C1425 0.950 . S
H1402 C1426 0.950 . S
H1403 C1427 0.951 . S
H1404 C1429 0.951 . S
H1405 C1431 0.950 . S
H1406 C1432 0.950 . S
H1407 C1434 0.950 . S
H1408 C1437 0.950 . S
H1409 C1438 0.950 . S
H1410 C1440 0.950 . S
H1411 C1441 0.950 . S
C1412 H1394 0.951 . S
C1412 C1413 1.366 . S
C1412 C1414 1.388 . S
C1413 C1412 1.366 . S
C1413 C1417 1.385 . S
C1414 H1395 0.951 . S
C1414 C1412 1.388 . S
C1414 C1415 1.366 . S
C1415 C1414 1.366 . S
C1415 C1416 1.414 . S
C1415 C1418 1.499 . S
C1416 H1396 0.950 . S
C1416 C1415 1.414 . S
C1416 C1417 1.374 . S
C1417 H1397 0.950 . S
C1417 C1413 1.385 . S
C1417 C1416 1.374 . S
C1418 C1415 1.499 . S
C1418 C1419 1.373 . S
C1418 C1420 1.389 . S
C1419 H1398 0.950 . S
C1419 C1418 1.373 . S
C1419 C1435 1.377 . S
C1420 C1418 1.389 . S
C1420 C1421 1.524 . S
C1420 C1434 1.377 . S
C1421 C1420 1.524 . S
C1421 C1422 1.397 . S
C1421 C1426 1.363 . S
C1422 H1399 0.950 . S
C1422 C1421 1.397 . S
C1422 C1423 1.334 . S
C1423 H1400 0.950 . S
C1423 C1422 1.334 . S
C1423 C1424 1.287 . S
C1424 C1423 1.287 . S
C1424 C1425 1.524 . S
C1424 H1443 0.913 . S
C1425 H1401 0.950 . S
C1425 C1424 1.524 . S
C1425 C1426 1.415 . S
C1426 H1402 0.950 . S
C1426 C1421 1.363 . S
C1426 C1425 1.415 . S
C1427 H1403 0.951 . S
C1427 C1428 1.366 . S
C1427 C1429 1.388 . S
C1428 C1427 1.366 . S
C1428 C1432 1.385 . S
C1429 H1404 0.951 . S
C1429 C1427 1.388 . S
C1429 C1430 1.366 . S
C1430 C1429 1.366 . S
C1430 C1431 1.414 . S
C1430 C1433 1.499 . S
C1431 H1405 0.950 . S
C1431 C1430 1.414 . S
C1431 C1432 1.374 . S
C1432 H1406 0.950 . S
C1432 C1428 1.385 . S
C1432 C1431 1.374 . S
C1433 C1430 1.499 . S
C1433 C1434 1.373 . S
C1433 C1435 1.389 . S
C1434 H1407 0.950 . S
C1434 C1420 1.377 . S
C1434 C1433 1.373 . S
C1435 C1419 1.377 . S
C1435 C1433 1.389 . S
C1435 C1436 1.524 . S
C1436 C1435 1.524 . S
C1436 C1437 1.397 . S
C1436 C1441 1.363 . S
C1437 H1408 0.950 . S
C1437 C1436 1.397 . S
C1437 C1438 1.334 . S
C1438 H1409 0.950 . S
C1438 C1437 1.334 . S
C1438 C1439 1.287 . S
C1439 C1438 1.287 . S
C1439 C1440 1.524 . S
C1439 H1442 0.999 . S
C1440 H1410 0.950 . S
C1440 C1439 1.524 . S
C1440 C1441 1.415 . S
C1441 H1411 0.950 . S
C1441 C1436 1.363 . S
C1441 C1440 1.415 . S
H1442 C1439 0.999 . S
H1443 C1424 0.913 . S
H1444 C1462 0.951 . S
H1445 C1464 0.951 . S
H1446 C1466 0.950 . S
H1447 C1467 0.950 . S
H1448 C1469 0.950 . S
H1449 C1472 0.950 . S
H1450 C1473 0.950 . S
H1451 C1475 0.950 . S
H1452 C1476 0.950 . S
H1453 C1477 0.951 . S
H1454 C1479 0.951 . S
H1455 C1481 0.950 . S
H1456 C1482 0.950 . S
H1457 C1484 0.950 . S
H1458 C1487 0.950 . S
H1459 C1488 0.950 . S
H1460 C1490 0.950 . S
H1461 C1491 0.950 . S
C1462 H1444 0.951 . S
C1462 C1463 1.366 . S
C1462 C1464 1.388 . S
C1463 C1462 1.366 . S
C1463 C1467 1.385 . S
C1464 H1445 0.951 . S
C1464 C1462 1.388 . S
C1464 C1465 1.366 . S
C1465 C1464 1.366 . S
C1465 C1466 1.414 . S
C1465 C1468 1.499 . S
C1466 H1446 0.950 . S
C1466 C1465 1.414 . S
C1466 C1467 1.374 . S
C1467 H1447 0.950 . S
C1467 C1463 1.385 . S
C1467 C1466 1.374 . S
C1468 C1465 1.499 . S
C1468 C1469 1.373 . S
C1468 C1470 1.389 . S
C1469 H1448 0.950 . S
C1469 C1468 1.373 . S
C1469 C1485 1.377 . S
C1470 C1468 1.389 . S
C1470 C1471 1.524 . S
C1470 C1484 1.377 . S
C1471 C1470 1.524 . S
C1471 C1472 1.397 . S
C1471 C1476 1.363 . S
C1472 H1449 0.950 . S
C1472 C1471 1.397 . S
C1472 C1473 1.334 . S
C1473 H1450 0.950 . S
C1473 C1472 1.334 . S
C1473 C1474 1.287 . S
C1474 C1473 1.287 . S
C1474 C1475 1.524 . S
C1474 H1493 0.913 . S
C1475 H1451 0.950 . S
C1475 C1474 1.524 . S
C1475 C1476 1.415 . S
C1476 H1452 0.950 . S
C1476 C1471 1.363 . S
C1476 C1475 1.415 . S
C1477 H1453 0.951 . S
C1477 C1478 1.366 . S
C1477 C1479 1.388 . S
C1478 C1477 1.366 . S
C1478 C1482 1.385 . S
C1479 H1454 0.951 . S
C1479 C1477 1.388 . S
C1479 C1480 1.366 . S
C1480 C1479 1.366 . S
C1480 C1481 1.414 . S
C1480 C1483 1.499 . S
C1481 H1455 0.950 . S
C1481 C1480 1.414 . S
C1481 C1482 1.374 . S
C1482 H1456 0.950 . S
C1482 C1478 1.385 . S
C1482 C1481 1.374 . S
C1483 C1480 1.499 . S
C1483 C1484 1.373 . S
C1483 C1485 1.389 . S
C1484 H1457 0.950 . S
C1484 C1470 1.377 . S
C1484 C1483 1.373 . S
C1485 C1469 1.377 . S
C1485 C1483 1.389 . S
C1485 C1486 1.524 . S
C1486 C1485 1.524 . S
C1486 C1487 1.397 . S
C1486 C1491 1.363 . S
C1487 H1458 0.950 . S
C1487 C1486 1.397 . S
C1487 C1488 1.334 . S
C1488 H1459 0.950 . S
C1488 C1487 1.334 . S
C1488 C1489 1.287 . S
C1489 C1488 1.287 . S
C1489 C1490 1.524 . S
C1489 H1492 0.999 . S
C1490 H1460 0.950 . S
C1490 C1489 1.524 . S
C1490 C1491 1.415 . S
C1491 H1461 0.950 . S
C1491 C1486 1.363 . S
C1491 C1490 1.415 . S
H1492 C1489 0.999 . S
H1493 C1474 0.913 . S
H1494 C1512 0.951 . S
H1495 C1514 0.951 . S
H1496 C1516 0.950 . S
H1497 C1517 0.950 . S
H1498 C1519 0.950 . S
H1499 C1522 0.950 . S
H1500 C1523 0.950 . S
H1501 C1525 0.950 . S
H1502 C1526 0.950 . S
H1503 C1527 0.951 . S
H1504 C1529 0.951 . S
H1505 C1531 0.950 . S
H1506 C1532 0.950 . S
H1507 C1534 0.950 . S
H1508 C1537 0.950 . S
H1509 C1538 0.950 . S
H1510 C1540 0.950 . S
H1511 C1541 0.950 . S
C1512 H1494 0.951 . S
C1512 C1513 1.366 . S
C1512 C1514 1.388 . S
C1513 C1512 1.366 . S
C1513 C1517 1.385 . S
C1514 H1495 0.951 . S
C1514 C1512 1.388 . S
C1514 C1515 1.366 . S
C1515 C1514 1.366 . S
C1515 C1516 1.414 . S
C1515 C1518 1.499 . S
C1516 H1496 0.950 . S
C1516 C1515 1.414 . S
C1516 C1517 1.374 . S
C1517 H1497 0.950 . S
C1517 C1513 1.385 . S
C1517 C1516 1.374 . S
C1518 C1515 1.499 . S
C1518 C1519 1.373 . S
C1518 C1520 1.389 . S
C1519 H1498 0.950 . S
C1519 C1518 1.373 . S
C1519 C1535 1.377 . S
C1520 C1518 1.389 . S
C1520 C1521 1.524 . S
C1520 C1534 1.377 . S
C1521 C1520 1.524 . S
C1521 C1522 1.397 . S
C1521 C1526 1.363 . S
C1522 H1499 0.950 . S
C1522 C1521 1.397 . S
C1522 C1523 1.334 . S
C1523 H1500 0.950 . S
C1523 C1522 1.334 . S
C1523 C1524 1.287 . S
C1524 C1523 1.287 . S
C1524 C1525 1.524 . S
C1524 H1543 0.913 . S
C1525 H1501 0.950 . S
C1525 C1524 1.524 . S
C1525 C1526 1.415 . S
C1526 H1502 0.950 . S
C1526 C1521 1.363 . S
C1526 C1525 1.415 . S
C1527 H1503 0.951 . S
C1527 C1528 1.366 . S
C1527 C1529 1.388 . S
C1528 C1527 1.366 . S
C1528 C1532 1.385 . S
C1529 H1504 0.951 . S
C1529 C1527 1.388 . S
C1529 C1530 1.366 . S
C1530 C1529 1.366 . S
C1530 C1531 1.414 . S
C1530 C1533 1.499 . S
C1531 H1505 0.950 . S
C1531 C1530 1.414 . S
C1531 C1532 1.374 . S
C1532 H1506 0.950 . S
C1532 C1528 1.385 . S
C1532 C1531 1.374 . S
C1533 C1530 1.499 . S
C1533 C1534 1.373 . S
C1533 C1535 1.389 . S
C1534 H1507 0.950 . S
C1534 C1520 1.377 . S
C1534 C1533 1.373 . S
C1535 C1519 1.377 . S
C1535 C1533 1.389 . S
C1535 C1536 1.524 . S
C1536 C1535 1.524 . S
C1536 C1537 1.397 . S
C1536 C1541 1.363 . S
C1537 H1508 0.950 . S
C1537 C1536 1.397 . S
C1537 C1538 1.334 . S
C1538 H1509 0.950 . S
C1538 C1537 1.334 . S
C1538 C1539 1.287 . S
C1539 C1538 1.287 . S
C1539 C1540 1.524 . S
C1539 H1542 0.999 . S
C1540 H1510 0.950 . S
C1540 C1539 1.524 . S
C1540 C1541 1.415 . S
C1541 H1511 0.950 . S
C1541 C1536 1.363 . S
C1541 C1540 1.415 . S
H1542 C1539 0.999 . S
H1543 C1524 0.913 . S
H1544 C1562 0.951 . S
H1545 C1564 0.951 . S
H1546 C1566 0.950 . S
H1547 C1567 0.950 . S
H1548 C1569 0.950 . S
H1549 C1572 0.950 . S
H1550 C1573 0.950 . S
H1551 C1575 0.950 . S
H1552 C1576 0.950 . S
H1553 C1577 0.951 . S
H1554 C1579 0.951 . S
H1555 C1581 0.950 . S
H1556 C1582 0.950 . S
H1557 C1584 0.950 . S
H1558 C1587 0.950 . S
H1559 C1588 0.950 . S
H1560 C1590 0.950 . S
H1561 C1591 0.950 . S
C1562 H1544 0.951 . S
C1562 C1563 1.366 . S
C1562 C1564 1.388 . S
C1563 C1562 1.366 . S
C1563 C1567 1.385 . S
C1564 H1545 0.951 . S
C1564 C1562 1.388 . S
C1564 C1565 1.366 . S
C1565 C1564 1.366 . S
C1565 C1566 1.414 . S
C1565 C1568 1.499 . S
C1566 H1546 0.950 . S
C1566 C1565 1.414 . S
C1566 C1567 1.374 . S
C1567 H1547 0.950 . S
C1567 C1563 1.385 . S
C1567 C1566 1.374 . S
C1568 C1565 1.499 . S
C1568 C1569 1.373 . S
C1568 C1570 1.389 . S
C1569 H1548 0.950 . S
C1569 C1568 1.373 . S
C1569 C1585 1.377 1_556 S
C1570 C1568 1.389 . S
C1570 C1571 1.524 . S
C1570 C1584 1.377 1_556 S
C1571 C1570 1.524 . S
C1571 C1572 1.397 . S
C1571 C1576 1.363 1_556 S
C1572 H1549 0.950 . S
C1572 C1571 1.397 . S
C1572 C1573 1.334 . S
C1573 H1550 0.950 . S
C1573 C1572 1.334 . S
C1573 C1574 1.287 . S
C1574 C1573 1.287 . S
C1574 C1575 1.524 1_556 S
C1574 H1593 0.913 . S
C1575 H1551 0.950 . S
C1575 C1574 1.524 1_554 S
C1575 C1576 1.415 . S
C1576 H1552 0.950 . S
C1576 C1571 1.363 1_554 S
C1576 C1575 1.415 . S
C1577 H1553 0.951 . S
C1577 C1578 1.366 . S
C1577 C1579 1.388 . S
C1578 C1577 1.366 . S
C1578 C1582 1.385 . S
C1579 H1554 0.951 . S
C1579 C1577 1.388 . S
C1579 C1580 1.366 . S
C1580 C1579 1.366 . S
C1580 C1581 1.414 . S
C1580 C1583 1.499 . S
C1581 H1555 0.950 . S
C1581 C1580 1.414 . S
C1581 C1582 1.374 . S
C1582 H1556 0.950 . S
C1582 C1578 1.385 . S
C1582 C1581 1.374 . S
C1583 C1580 1.499 . S
C1583 C1584 1.373 . S
C1583 C1585 1.389 . S
C1584 H1557 0.950 . S
C1584 C1570 1.377 1_554 S
C1584 C1583 1.373 . S
C1585 C1569 1.377 1_554 S
C1585 C1583 1.389 . S
C1585 C1586 1.524 . S
C1586 C1585 1.524 . S
C1586 C1587 1.397 . S
C1586 C1591 1.363 1_554 S
C1587 H1558 0.950 . S
C1587 C1586 1.397 . S
C1587 C1588 1.334 . S
C1588 H1559 0.950 . S
C1588 C1587 1.334 . S
C1588 C1589 1.287 . S
C1589 C1588 1.287 . S
C1589 C1590 1.524 1_554 S
C1589 H1592 0.999 . S
C1590 H1560 0.950 . S
C1590 C1589 1.524 1_556 S
C1590 C1591 1.415 . S
C1591 H1561 0.950 . S
C1591 C1586 1.363 1_556 S
C1591 C1590 1.415 . S
H1592 C1589 0.999 . S
H1593 C1574 0.913 . S
H1594 C1612 0.951 . S
H1595 C1614 0.951 . S
H1596 C1616 0.950 . S
H1597 C1617 0.950 . S
H1598 C1619 0.950 . S
H1599 C1622 0.950 . S
H1600 C1623 0.950 . S
H1601 C1625 0.950 . S
H1602 C1626 0.950 . S
H1603 C1627 0.951 . S
H1604 C1629 0.951 . S
H1605 C1631 0.950 . S
H1606 C1632 0.950 . S
H1607 C1634 0.950 . S
H1608 C1637 0.950 . S
H1609 C1638 0.950 . S
H1610 C1640 0.950 . S
H1611 C1641 0.950 . S
C1612 H1594 0.951 . S
C1612 C1613 1.366 . S
C1612 C1614 1.388 . S
C1613 C1612 1.366 . S
C1613 C1617 1.385 . S
C1614 H1595 0.951 . S
C1614 C1612 1.388 . S
C1614 C1615 1.366 . S
C1615 C1614 1.366 . S
C1615 C1616 1.414 . S
C1615 C1618 1.499 . S
C1616 H1596 0.950 . S
C1616 C1615 1.414 . S
C1616 C1617 1.374 . S
C1617 H1597 0.950 . S
C1617 C1613 1.385 . S
C1617 C1616 1.374 . S
C1618 C1615 1.499 . S
C1618 C1619 1.373 . S
C1618 C1620 1.389 . S
C1619 H1598 0.950 . S
C1619 C1618 1.373 . S
C1619 C1635 1.377 1_556 S
C1620 C1618 1.389 . S
C1620 C1621 1.524 . S
C1620 C1634 1.377 1_556 S
C1621 C1620 1.524 . S
C1621 C1622 1.397 . S
C1621 C1626 1.363 . S
C1622 H1599 0.950 . S
C1622 C1621 1.397 . S
C1622 C1623 1.334 . S
C1623 H1600 0.950 . S
C1623 C1622 1.334 . S
C1623 C1624 1.287 . S
C1624 C1623 1.287 . S
C1624 C1625 1.524 . S
C1624 H1643 0.913 . S
C1625 H1601 0.950 . S
C1625 C1624 1.524 . S
C1625 C1626 1.415 . S
C1626 H1602 0.950 . S
C1626 C1621 1.363 . S
C1626 C1625 1.415 . S
C1627 H1603 0.951 . S
C1627 C1628 1.366 . S
C1627 C1629 1.388 . S
C1628 C1627 1.366 . S
C1628 C1632 1.385 . S
C1629 H1604 0.951 . S
C1629 C1627 1.388 . S
C1629 C1630 1.366 . S
C1630 C1629 1.366 . S
C1630 C1631 1.414 . S
C1630 C1633 1.499 . S
C1631 H1605 0.950 . S
C1631 C1630 1.414 . S
C1631 C1632 1.374 . S
C1632 H1606 0.950 . S
C1632 C1628 1.385 . S
C1632 C1631 1.374 . S
C1633 C1630 1.499 . S
C1633 C1634 1.373 . S
C1633 C1635 1.389 . S
C1634 H1607 0.950 . S
C1634 C1620 1.377 1_554 S
C1634 C1633 1.373 . S
C1635 C1619 1.377 1_554 S
C1635 C1633 1.389 . S
C1635 C1636 1.524 . S
C1636 C1635 1.524 . S
C1636 C1637 1.397 . S
C1636 C1641 1.363 . S
C1637 H1608 0.950 . S
C1637 C1636 1.397 . S
C1637 C1638 1.334 . S
C1638 H1609 0.950 . S
C1638 C1637 1.334 . S
C1638 C1639 1.287 . S
C1639 C1638 1.287 . S
C1639 C1640 1.524 . S
C1639 H1642 0.999 . S
C1640 H1610 0.950 . S
C1640 C1639 1.524 . S
C1640 C1641 1.415 . S
C1641 H1611 0.950 . S
C1641 C1636 1.363 . S
C1641 C1640 1.415 . S
H1642 C1639 0.999 . S
H1643 C1624 0.913 . S
H1644 C1662 0.951 . S
H1645 C1664 0.951 . S
H1646 C1666 0.950 . S
H1647 C1667 0.950 . S
H1648 C1669 0.950 . S
H1649 C1672 0.950 . S
H1650 C1673 0.950 . S
H1651 C1675 0.950 . S
H1652 C1676 0.950 . S
H1653 C1677 0.951 . S
H1654 C1679 0.951 . S
H1655 C1681 0.950 . S
H1656 C1682 0.950 . S
H1657 C1684 0.950 . S
H1658 C1687 0.950 . S
H1659 C1688 0.950 . S
H1660 C1690 0.950 . S
H1661 C1691 0.950 . S
C1662 H1644 0.951 . S
C1662 C1663 1.366 . S
C1662 C1664 1.388 . S
C1663 C1662 1.366 . S
C1663 C1667 1.385 . S
C1664 H1645 0.951 . S
C1664 C1662 1.388 . S
C1664 C1665 1.366 . S
C1665 C1664 1.366 . S
C1665 C1666 1.414 . S
C1665 C1668 1.499 . S
C1666 H1646 0.950 . S
C1666 C1665 1.414 . S
C1666 C1667 1.374 . S
C1667 H1647 0.950 . S
C1667 C1663 1.385 . S
C1667 C1666 1.374 . S
C1668 C1665 1.499 . S
C1668 C1669 1.373 . S
C1668 C1670 1.389 . S
C1669 H1648 0.950 . S
C1669 C1668 1.373 . S
C1669 C1685 1.377 1_556 S
C1670 C1668 1.389 . S
C1670 C1671 1.524 . S
C1670 C1684 1.377 1_556 S
C1671 C1670 1.524 . S
C1671 C1672 1.397 . S
C1671 C1676 1.363 . S
C1672 H1649 0.950 . S
C1672 C1671 1.397 . S
C1672 C1673 1.334 . S
C1673 H1650 0.950 . S
C1673 C1672 1.334 . S
C1673 C1674 1.287 . S
C1674 C1673 1.287 . S
C1674 C1675 1.524 . S
C1674 H1693 0.913 . S
C1675 H1651 0.950 . S
C1675 C1674 1.524 . S
C1675 C1676 1.415 . S
C1676 H1652 0.950 . S
C1676 C1671 1.363 . S
C1676 C1675 1.415 . S
C1677 H1653 0.951 . S
C1677 C1678 1.366 . S
C1677 C1679 1.388 . S
C1678 C1677 1.366 . S
C1678 C1682 1.385 . S
C1679 H1654 0.951 . S
C1679 C1677 1.388 . S
C1679 C1680 1.366 . S
C1680 C1679 1.366 . S
C1680 C1681 1.414 . S
C1680 C1683 1.499 . S
C1681 H1655 0.950 . S
C1681 C1680 1.414 . S
C1681 C1682 1.374 . S
C1682 H1656 0.950 . S
C1682 C1678 1.385 . S
C1682 C1681 1.374 . S
C1683 C1680 1.499 . S
C1683 C1684 1.373 . S
C1683 C1685 1.389 . S
C1684 H1657 0.950 . S
C1684 C1670 1.377 1_554 S
C1684 C1683 1.373 . S
C1685 C1669 1.377 1_554 S
C1685 C1683 1.389 . S
C1685 C1686 1.524 . S
C1686 C1685 1.524 . S
C1686 C1687 1.397 . S
C1686 C1691 1.363 . S
C1687 H1658 0.950 . S
C1687 C1686 1.397 . S
C1687 C1688 1.334 . S
C1688 H1659 0.950 . S
C1688 C1687 1.334 . S
C1688 C1689 1.287 . S
C1689 C1688 1.287 . S
C1689 C1690 1.524 . S
C1689 H1692 0.999 . S
C1690 H1660 0.950 . S
C1690 C1689 1.524 . S
C1690 C1691 1.415 . S
C1691 H1661 0.950 . S
C1691 C1686 1.363 . S
C1691 C1690 1.415 . S
H1692 C1689 0.999 . S
H1693 C1674 0.913 . S
H1694 C1712 0.951 . S
H1695 C1714 0.951 . S
H1696 C1716 0.950 . S
H1697 C1717 0.950 . S
H1698 C1719 0.950 . S
H1699 C1722 0.950 . S
H1700 C1723 0.950 . S
H1701 C1725 0.950 . S
H1702 C1726 0.950 . S
H1703 C1727 0.951 . S
H1704 C1729 0.951 . S
H1705 C1731 0.950 . S
H1706 C1732 0.950 . S
H1707 C1734 0.950 . S
H1708 C1737 0.950 . S
H1709 C1738 0.950 . S
H1710 C1740 0.950 . S
H1711 C1741 0.950 . S
C1712 H1694 0.951 . S
C1712 C1713 1.366 . S
C1712 C1714 1.388 . S
C1713 C1712 1.366 . S
C1713 C1717 1.385 . S
C1714 H1695 0.951 . S
C1714 C1712 1.388 . S
C1714 C1715 1.366 . S
C1715 C1714 1.366 . S
C1715 C1716 1.414 . S
C1715 C1718 1.499 . S
C1716 H1696 0.950 . S
C1716 C1715 1.414 . S
C1716 C1717 1.374 . S
C1717 H1697 0.950 . S
C1717 C1713 1.385 . S
C1717 C1716 1.374 . S
C1718 C1715 1.499 . S
C1718 C1719 1.373 . S
C1718 C1720 1.389 . S
C1719 H1698 0.950 . S
C1719 C1718 1.373 . S
C1719 C1735 1.377 1_556 S
C1720 C1718 1.389 . S
C1720 C1721 1.524 . S
C1720 C1734 1.377 1_556 S
C1721 C1720 1.524 . S
C1721 C1722 1.397 . S
C1721 C1726 1.363 . S
C1722 H1699 0.950 . S
C1722 C1721 1.397 . S
C1722 C1723 1.334 . S
C1723 H1700 0.950 . S
C1723 C1722 1.334 . S
C1723 C1724 1.287 . S
C1724 C1723 1.287 . S
C1724 C1725 1.524 . S
C1724 H1743 0.913 . S
C1725 H1701 0.950 . S
C1725 C1724 1.524 . S
C1725 C1726 1.415 . S
C1726 H1702 0.950 . S
C1726 C1721 1.363 . S
C1726 C1725 1.415 . S
C1727 H1703 0.951 . S
C1727 C1728 1.366 . S
C1727 C1729 1.388 . S
C1728 C1727 1.366 . S
C1728 C1732 1.385 . S
C1729 H1704 0.951 . S
C1729 C1727 1.388 . S
C1729 C1730 1.366 . S
C1730 C1729 1.366 . S
C1730 C1731 1.414 . S
C1730 C1733 1.499 . S
C1731 H1705 0.950 . S
C1731 C1730 1.414 . S
C1731 C1732 1.374 . S
C1732 H1706 0.950 . S
C1732 C1728 1.385 . S
C1732 C1731 1.374 . S
C1733 C1730 1.499 . S
C1733 C1734 1.373 . S
C1733 C1735 1.389 . S
C1734 H1707 0.950 . S
C1734 C1720 1.377 1_554 S
C1734 C1733 1.373 . S
C1735 C1719 1.377 1_554 S
C1735 C1733 1.389 . S
C1735 C1736 1.524 . S
C1736 C1735 1.524 . S
C1736 C1737 1.397 . S
C1736 C1741 1.363 . S
C1737 H1708 0.950 . S
C1737 C1736 1.397 . S
C1737 C1738 1.334 . S
C1738 H1709 0.950 . S
C1738 C1737 1.334 . S
C1738 C1739 1.287 . S
C1739 C1738 1.287 . S
C1739 C1740 1.524 . S
C1739 H1742 0.999 . S
C1740 H1710 0.950 . S
C1740 C1739 1.524 . S
C1740 C1741 1.415 . S
C1741 H1711 0.950 . S
C1741 C1736 1.363 . S
C1741 C1740 1.415 . S
H1742 C1739 0.999 . S
H1743 C1724 0.913 . S
H1744 C1762 0.951 . S
H1745 C1764 0.951 . S
H1746 C1766 0.950 . S
H1747 C1767 0.950 . S
H1748 C1769 0.950 . S
H1749 C1772 0.950 . S
H1750 C1773 0.950 . S
H1751 C1775 0.950 . S
H1752 C1776 0.950 . S
H1753 C1777 0.951 . S
H1754 C1779 0.951 . S
H1755 C1781 0.950 . S
H1756 C1782 0.950 . S
H1757 C1784 0.950 . S
H1758 C1787 0.950 . S
H1759 C1788 0.950 . S
H1760 C1790 0.950 . S
H1761 C1791 0.950 . S
C1762 H1744 0.951 . S
C1762 C1763 1.366 . S
C1762 C1764 1.388 . S
C1763 C1762 1.366 . S
C1763 C1767 1.385 . S
C1764 H1745 0.951 . S
C1764 C1762 1.388 . S
C1764 C1765 1.366 . S
C1765 C1764 1.366 . S
C1765 C1766 1.414 . S
C1765 C1768 1.499 . S
C1766 H1746 0.950 . S
C1766 C1765 1.414 . S
C1766 C1767 1.374 . S
C1767 H1747 0.950 . S
C1767 C1763 1.385 . S
C1767 C1766 1.374 . S
C1768 C1765 1.499 . S
C1768 C1769 1.373 . S
C1768 C1770 1.389 . S
C1769 H1748 0.950 . S
C1769 C1768 1.373 . S
C1769 C1785 1.377 . S
C1770 C1768 1.389 . S
C1770 C1771 1.524 . S
C1770 C1784 1.377 . S
C1771 C1770 1.524 . S
C1771 C1772 1.397 . S
C1771 C1776 1.363 . S
C1772 H1749 0.950 . S
C1772 C1771 1.397 . S
C1772 C1773 1.334 . S
C1773 H1750 0.950 . S
C1773 C1772 1.334 . S
C1773 C1774 1.287 . S
C1774 C1773 1.287 . S
C1774 C1775 1.524 . S
C1774 H1793 0.913 . S
C1775 H1751 0.950 . S
C1775 C1774 1.524 . S
C1775 C1776 1.415 . S
C1776 H1752 0.950 . S
C1776 C1771 1.363 . S
C1776 C1775 1.415 . S
C1777 H1753 0.951 . S
C1777 C1778 1.366 . S
C1777 C1779 1.388 . S
C1778 C1777 1.366 . S
C1778 C1782 1.385 . S
C1779 H1754 0.951 . S
C1779 C1777 1.388 . S
C1779 C1780 1.366 . S
C1780 C1779 1.366 . S
C1780 C1781 1.414 . S
C1780 C1783 1.499 . S
C1781 H1755 0.950 . S
C1781 C1780 1.414 . S
C1781 C1782 1.374 . S
C1782 H1756 0.950 . S
C1782 C1778 1.385 . S
C1782 C1781 1.374 . S
C1783 C1780 1.499 . S
C1783 C1784 1.373 . S
C1783 C1785 1.389 . S
C1784 H1757 0.950 . S
C1784 C1770 1.377 . S
C1784 C1783 1.373 . S
C1785 C1769 1.377 . S
C1785 C1783 1.389 . S
C1785 C1786 1.524 . S
C1786 C1785 1.524 . S
C1786 C1787 1.397 . S
C1786 C1791 1.363 . S
C1787 H1758 0.950 . S
C1787 C1786 1.397 . S
C1787 C1788 1.334 . S
C1788 H1759 0.950 . S
C1788 C1787 1.334 . S
C1788 C1789 1.287 . S
C1789 C1788 1.287 . S
C1789 C1790 1.524 . S
C1789 H1792 0.999 . S
C1790 H1760 0.950 . S
C1790 C1789 1.524 . S
C1790 C1791 1.415 . S
C1791 H1761 0.950 . S
C1791 C1786 1.363 . S
C1791 C1790 1.415 . S
H1792 C1789 0.999 . S
H1793 C1774 0.913 . S
H1794 C1812 0.951 . S
H1795 C1814 0.951 . S
H1796 C1816 0.950 . S
H1797 C1817 0.950 . S
H1798 C1819 0.950 . S
H1799 C1822 0.950 . S
H1800 C1823 0.950 . S
H1801 C1825 0.950 . S
H1802 C1826 0.950 . S
H1803 C1827 0.951 . S
H1804 C1829 0.951 . S
H1805 C1831 0.950 . S
H1806 C1832 0.950 . S
H1807 C1834 0.950 . S
H1808 C1837 0.950 . S
H1809 C1838 0.950 . S
H1810 C1840 0.950 . S
H1811 C1841 0.950 . S
C1812 H1794 0.951 . S
C1812 C1813 1.366 . S
C1812 C1814 1.388 . S
C1813 C1812 1.366 . S
C1813 C1817 1.385 . S
C1814 H1795 0.951 . S
C1814 C1812 1.388 . S
C1814 C1815 1.366 . S
C1815 C1814 1.366 . S
C1815 C1816 1.414 . S
C1815 C1818 1.499 . S
C1816 H1796 0.950 . S
C1816 C1815 1.414 . S
C1816 C1817 1.374 . S
C1817 H1797 0.950 . S
C1817 C1813 1.385 . S
C1817 C1816 1.374 . S
C1818 C1815 1.499 . S
C1818 C1819 1.373 . S
C1818 C1820 1.389 . S
C1819 H1798 0.950 . S
C1819 C1818 1.373 . S
C1819 C1835 1.377 . S
C1820 C1818 1.389 . S
C1820 C1821 1.524 . S
C1820 C1834 1.377 . S
C1821 C1820 1.524 . S
C1821 C1822 1.397 . S
C1821 C1826 1.363 . S
C1822 H1799 0.950 . S
C1822 C1821 1.397 . S
C1822 C1823 1.334 . S
C1823 H1800 0.950 . S
C1823 C1822 1.334 . S
C1823 C1824 1.287 . S
C1824 C1823 1.287 . S
C1824 C1825 1.524 . S
C1824 H1843 0.913 . S
C1825 H1801 0.950 . S
C1825 C1824 1.524 . S
C1825 C1826 1.415 . S
C1826 H1802 0.950 . S
C1826 C1821 1.363 . S
C1826 C1825 1.415 . S
C1827 H1803 0.951 . S
C1827 C1828 1.366 . S
C1827 C1829 1.388 . S
C1828 C1827 1.366 . S
C1828 C1832 1.385 . S
C1829 H1804 0.951 . S
C1829 C1827 1.388 . S
C1829 C1830 1.366 . S
C1830 C1829 1.366 . S
C1830 C1831 1.414 . S
C1830 C1833 1.499 . S
C1831 H1805 0.950 . S
C1831 C1830 1.414 . S
C1831 C1832 1.374 . S
C1832 H1806 0.950 . S
C1832 C1828 1.385 . S
C1832 C1831 1.374 . S
C1833 C1830 1.499 . S
C1833 C1834 1.373 . S
C1833 C1835 1.389 . S
C1834 H1807 0.950 . S
C1834 C1820 1.377 . S
C1834 C1833 1.373 . S
C1835 C1819 1.377 . S
C1835 C1833 1.389 . S
C1835 C1836 1.524 . S
C1836 C1835 1.524 . S
C1836 C1837 1.397 . S
C1836 C1841 1.363 . S
C1837 H1808 0.950 . S
C1837 C1836 1.397 . S
C1837 C1838 1.334 . S
C1838 H1809 0.950 . S
C1838 C1837 1.334 . S
C1838 C1839 1.287 . S
C1839 C1838 1.287 . S
C1839 C1840 1.524 . S
C1839 H1842 0.999 . S
C1840 H1810 0.950 . S
C1840 C1839 1.524 . S
C1840 C1841 1.415 . S
C1841 H1811 0.950 . S
C1841 C1836 1.363 . S
C1841 C1840 1.415 . S
H1842 C1839 0.999 . S
H1843 C1824 0.913 . S
H1844 C1862 0.951 . S
H1845 C1864 0.951 . S
H1846 C1866 0.950 . S
H1847 C1867 0.950 . S
H1848 C1869 0.950 . S
H1849 C1872 0.950 . S
H1850 C1873 0.950 . S
H1851 C1875 0.950 . S
H1852 C1876 0.950 . S
H1853 C1877 0.951 . S
H1854 C1879 0.951 . S
H1855 C1881 0.950 . S
H1856 C1882 0.950 . S
H1857 C1884 0.950 . S
H1858 C1887 0.950 . S
H1859 C1888 0.950 . S
H1860 C1890 0.950 . S
H1861 C1891 0.950 . S
C1862 H1844 0.951 . S
C1862 C1863 1.366 . S
C1862 C1864 1.388 . S
C1863 C1862 1.366 . S
C1863 C1867 1.385 . S
C1864 H1845 0.951 . S
C1864 C1862 1.388 . S
C1864 C1865 1.366 . S
C1865 C1864 1.366 . S
C1865 C1866 1.414 . S
C1865 C1868 1.499 . S
C1866 H1846 0.950 . S
C1866 C1865 1.414 . S
C1866 C1867 1.374 . S
C1867 H1847 0.950 . S
C1867 C1863 1.385 . S
C1867 C1866 1.374 . S
C1868 C1865 1.499 . S
C1868 C1869 1.373 . S
C1868 C1870 1.389 . S
C1869 H1848 0.950 . S
C1869 C1868 1.373 . S
C1869 C1885 1.377 . S
C1870 C1868 1.389 . S
C1870 C1871 1.524 . S
C1870 C1884 1.377 . S
C1871 C1870 1.524 . S
C1871 C1872 1.397 . S
C1871 C1876 1.363 . S
C1872 H1849 0.950 . S
C1872 C1871 1.397 . S
C1872 C1873 1.334 . S
C1873 H1850 0.950 . S
C1873 C1872 1.334 . S
C1873 C1874 1.287 . S
C1874 C1873 1.287 . S
C1874 C1875 1.524 . S
C1874 H1893 0.913 . S
C1875 H1851 0.950 . S
C1875 C1874 1.524 . S
C1875 C1876 1.415 . S
C1876 H1852 0.950 . S
C1876 C1871 1.363 . S
C1876 C1875 1.415 . S
C1877 H1853 0.951 . S
C1877 C1878 1.366 . S
C1877 C1879 1.388 . S
C1878 C1877 1.366 . S
C1878 C1882 1.385 . S
C1879 H1854 0.951 . S
C1879 C1877 1.388 . S
C1879 C1880 1.366 . S
C1880 C1879 1.366 . S
C1880 C1881 1.414 . S
C1880 C1883 1.499 . S
C1881 H1855 0.950 . S
C1881 C1880 1.414 . S
C1881 C1882 1.374 . S
C1882 H1856 0.950 . S
C1882 C1878 1.385 . S
C1882 C1881 1.374 . S
C1883 C1880 1.499 . S
C1883 C1884 1.373 . S
C1883 C1885 1.389 . S
C1884 H1857 0.950 . S
C1884 C1870 1.377 . S
C1884 C1883 1.373 . S
C1885 C1869 1.377 . S
C1885 C1883 1.389 . S
C1885 C1886 1.524 . S
C1886 C1885 1.524 . S
C1886 C1887 1.397 . S
C1886 C1891 1.363 . S
C1887 H1858 0.950 . S
C1887 C1886 1.397 . S
C1887 C1888 1.334 . S
C1888 H1859 0.950 . S
C1888 C1887 1.334 . S
C1888 C1889 1.287 . S
C1889 C1888 1.287 . S
C1889 C1890 1.524 . S
C1889 H1892 0.999 . S
C1890 H1860 0.950 . S
C1890 C1889 1.524 . S
C1890 C1891 1.415 . S
C1891 H1861 0.950 . S
C1891 C1886 1.363 . S
C1891 C1890 1.415 . S
H1892 C1889 0.999 . S
H1893 C1874 0.913 . S
H1894 C1912 0.951 . S
H1895 C1914 0.951 . S
H1896 C1916 0.950 . S
H1897 C1917 0.950 . S
H1898 C1919 0.950 . S
H1899 C1922 0.950 . S
H1900 C1923 0.950 . S
H1901 C1925 0.950 . S
H1902 C1926 0.950 . S
H1903 C1927 0.951 . S
H1904 C1929 0.951 . S
H1905 C1931 0.950 . S
H1906 C1932 0.950 . S
H1907 C1934 0.950 . S
H1908 C1937 0.950 . S
H1909 C1938 0.950 . S
H1910 C1940 0.950 . S
H1911 C1941 0.950 . S
C1912 H1894 0.951 . S
C1912 C1913 1.366 . S
C1912 C1914 1.388 . S
C1913 C1912 1.366 . S
C1913 C1917 1.385 . S
C1914 H1895 0.951 . S
C1914 C1912 1.388 . S
C1914 C1915 1.366 . S
C1915 C1914 1.366 . S
C1915 C1916 1.414 . S
C1915 C1918 1.499 . S
C1916 H1896 0.950 . S
C1916 C1915 1.414 . S
C1916 C1917 1.374 . S
C1917 H1897 0.950 . S
C1917 C1913 1.385 . S
C1917 C1916 1.374 . S
C1918 C1915 1.499 . S
C1918 C1919 1.373 . S
C1918 C1920 1.389 . S
C1919 H1898 0.950 . S
C1919 C1918 1.373 . S
C1919 C1935 1.377 . S
C1920 C1918 1.389 . S
C1920 C1921 1.524 . S
C1920 C1934 1.377 . S
C1921 C1920 1.524 . S
C1921 C1922 1.397 . S
C1921 C1926 1.363 . S
C1922 H1899 0.950 . S
C1922 C1921 1.397 . S
C1922 C1923 1.334 . S
C1923 H1900 0.950 . S
C1923 C1922 1.334 . S
C1923 C1924 1.287 . S
C1924 C1923 1.287 . S
C1924 C1925 1.524 . S
C1924 H1943 0.913 . S
C1925 H1901 0.950 . S
C1925 C1924 1.524 . S
C1925 C1926 1.415 . S
C1926 H1902 0.950 . S
C1926 C1921 1.363 . S
C1926 C1925 1.415 . S
C1927 H1903 0.951 . S
C1927 C1928 1.366 . S
C1927 C1929 1.388 . S
C1928 C1927 1.366 . S
C1928 C1932 1.385 . S
C1929 H1904 0.951 . S
C1929 C1927 1.388 . S
C1929 C1930 1.366 . S
C1930 C1929 1.366 . S
C1930 C1931 1.414 . S
C1930 C1933 1.499 . S
C1931 H1905 0.950 . S
C1931 C1930 1.414 . S
C1931 C1932 1.374 . S
C1932 H1906 0.950 . S
C1932 C1928 1.385 . S
C1932 C1931 1.374 . S
C1933 C1930 1.499 . S
C1933 C1934 1.373 . S
C1933 C1935 1.389 . S
C1934 H1907 0.950 . S
C1934 C1920 1.377 . S
C1934 C1933 1.373 . S
C1935 C1919 1.377 . S
C1935 C1933 1.389 . S
C1935 C1936 1.524 . S
C1936 C1935 1.524 . S
C1936 C1937 1.397 . S
C1936 C1941 1.363 . S
C1937 H1908 0.950 . S
C1937 C1936 1.397 . S
C1937 C1938 1.334 . S
C1938 H1909 0.950 . S
C1938 C1937 1.334 . S
C1938 C1939 1.287 . S
C1939 C1938 1.287 . S
C1939 C1940 1.524 . S
C1939 H1942 0.999 . S
C1940 H1910 0.950 . S
C1940 C1939 1.524 . S
C1940 C1941 1.415 . S
C1941 H1911 0.950 . S
C1941 C1936 1.363 . S
C1941 C1940 1.415 . S
H1942 C1939 0.999 . S
H1943 C1924 0.913 . S
H1944 C1962 0.951 . S
H1945 C1964 0.951 . S
H1946 C1966 0.950 . S
H1947 C1967 0.950 . S
H1948 C1969 0.950 . S
H1949 C1972 0.950 . S
H1950 C1973 0.950 . S
H1951 C1975 0.950 . S
H1952 C1976 0.950 . S
H1953 C1977 0.951 . S
H1954 C1979 0.951 . S
H1955 C1981 0.950 . S
H1956 C1982 0.950 . S
H1957 C1984 0.950 . S
H1958 C1987 0.950 . S
H1959 C1988 0.950 . S
H1960 C1990 0.950 . S
H1961 C1991 0.950 . S
C1962 H1944 0.951 . S
C1962 C1963 1.366 . S
C1962 C1964 1.388 . S
C1963 C1962 1.366 . S
C1963 C1967 1.385 . S
C1964 H1945 0.951 . S
C1964 C1962 1.388 . S
C1964 C1965 1.366 . S
C1965 C1964 1.366 . S
C1965 C1966 1.414 . S
C1965 C1968 1.499 . S
C1966 H1946 0.950 . S
C1966 C1965 1.414 . S
C1966 C1967 1.374 . S
C1967 H1947 0.950 . S
C1967 C1963 1.385 . S
C1967 C1966 1.374 . S
C1968 C1965 1.499 . S
C1968 C1969 1.373 . S
C1968 C1970 1.389 . S
C1969 H1948 0.950 . S
C1969 C1968 1.373 . S
C1969 C1985 1.377 . S
C1970 C1968 1.389 . S
C1970 C1971 1.524 . S
C1970 C1984 1.377 . S
C1971 C1970 1.524 . S
C1971 C1972 1.397 . S
C1971 C1976 1.363 . S
C1972 H1949 0.950 . S
C1972 C1971 1.397 . S
C1972 C1973 1.334 . S
C1973 H1950 0.950 . S
C1973 C1972 1.334 . S
C1973 C1974 1.287 . S
C1974 C1973 1.287 . S
C1974 C1975 1.524 . S
C1974 H1993 0.913 . S
C1975 H1951 0.950 . S
C1975 C1974 1.524 . S
C1975 C1976 1.415 . S
C1976 H1952 0.950 . S
C1976 C1971 1.363 . S
C1976 C1975 1.415 . S
C1977 H1953 0.951 . S
C1977 C1978 1.366 . S
C1977 C1979 1.388 . S
C1978 C1977 1.366 . S
C1978 C1982 1.385 . S
C1979 H1954 0.951 . S
C1979 C1977 1.388 . S
C1979 C1980 1.366 . S
C1980 C1979 1.366 . S
C1980 C1981 1.414 . S
C1980 C1983 1.499 . S
C1981 H1955 0.950 . S
C1981 C1980 1.414 . S
C1981 C1982 1.374 . S
C1982 H1956 0.950 . S
C1982 C1978 1.385 . S
C1982 C1981 1.374 . S
C1983 C1980 1.499 . S
C1983 C1984 1.373 . S
C1983 C1985 1.389 . S
C1984 H1957 0.950 . S
C1984 C1970 1.377 . S
C1984 C1983 1.373 . S
C1985 C1969 1.377 . S
C1985 C1983 1.389 . S
C1985 C1986 1.524 . S
C1986 C1985 1.524 . S
C1986 C1987 1.397 . S
C1986 C1991 1.363 . S
C1987 H1958 0.950 . S
C1987 C1986 1.397 . S
C1987 C1988 1.334 . S
C1988 H1959 0.950 . S
C1988 C1987 1.334 . S
C1988 C1989 1.287 . S
C1989 C1988 1.287 . S
C1989 C1990 1.524 . S
C1989 H1992 0.999 . S
C1990 H1960 0.950 . S
C1990 C1989 1.524 . S
C1990 C1991 1.415 . S
C1991 H1961 0.950 . S
C1991 C1986 1.363 . S
C1991 C1990 1.415 . S
H1992 C1989 0.999 . S
H1993 C1974 0.913 . S
H1994 C2012 0.951 . S
H1995 C2014 0.951 . S
H1996 C2016 0.950 . S
H1997 C2017 0.950 . S
H1998 C2019 0.950 . S
H1999 C2022 0.950 . S
H2000 C2023 0.950 . S
H2001 C2025 0.950 . S
H2002 C2026 0.950 . S
H2003 C2027 0.951 . S
H2004 C2029 0.951 . S
H2005 C2031 0.950 . S
H2006 C2032 0.950 . S
H2007 C2034 0.950 . S
H2008 C2037 0.950 . S
H2009 C2038 0.950 . S
H2010 C2040 0.950 . S
H2011 C2041 0.950 . S
C2012 H1994 0.951 . S
C2012 C2013 1.366 . S
C2012 C2014 1.388 . S
C2013 C2012 1.366 . S
C2013 C2017 1.385 . S
C2014 H1995 0.951 . S
C2014 C2012 1.388 . S
C2014 C2015 1.366 . S
C2015 C2014 1.366 . S
C2015 C2016 1.414 . S
C2015 C2018 1.499 . S
C2016 H1996 0.950 . S
C2016 C2015 1.414 . S
C2016 C2017 1.374 . S
C2017 H1997 0.950 . S
C2017 C2013 1.385 . S
C2017 C2016 1.374 . S
C2018 C2015 1.499 . S
C2018 C2019 1.373 . S
C2018 C2020 1.389 . S
C2019 H1998 0.950 . S
C2019 C2018 1.373 . S
C2019 C2035 1.377 . S
C2020 C2018 1.389 . S
C2020 C2021 1.524 . S
C2020 C2034 1.377 . S
C2021 C2020 1.524 . S
C2021 C2022 1.397 . S
C2021 C2026 1.363 . S
C2022 H1999 0.950 . S
C2022 C2021 1.397 . S
C2022 C2023 1.334 . S
C2023 H2000 0.950 . S
C2023 C2022 1.334 . S
C2023 C2024 1.287 . S
C2024 C2023 1.287 . S
C2024 C2025 1.524 . S
C2024 H2043 0.913 . S
C2025 H2001 0.950 . S
C2025 C2024 1.524 . S
C2025 C2026 1.415 . S
C2026 H2002 0.950 . S
C2026 C2021 1.363 . S
C2026 C2025 1.415 . S
C2027 H2003 0.951 . S
C2027 C2028 1.366 . S
C2027 C2029 1.388 . S
C2028 C2027 1.366 . S
C2028 C2032 1.385 . S
C2029 H2004 0.951 . S
C2029 C2027 1.388 . S
C2029 C2030 1.366 . S
C2030 C2029 1.366 . S
C2030 C2031 1.414 . S
C2030 C2033 1.499 . S
C2031 H2005 0.950 . S
C2031 C2030 1.414 . S
C2031 C2032 1.374 . S
C2032 H2006 0.950 . S
C2032 C2028 1.385 . S
C2032 C2031 1.374 . S
C2033 C2030 1.499 . S
C2033 C2034 1.373 . S
C2033 C2035 1.389 . S
C2034 H2007 0.950 . S
C2034 C2020 1.377 . S
C2034 C2033 1.373 . S
C2035 C2019 1.377 . S
C2035 C2033 1.389 . S
C2035 C2036 1.524 . S
C2036 C2035 1.524 . S
C2036 C2037 1.397 . S
C2036 C2041 1.363 . S
C2037 H2008 0.950 . S
C2037 C2036 1.397 . S
C2037 C2038 1.334 . S
C2038 H2009 0.950 . S
C2038 C2037 1.334 . S
C2038 C2039 1.287 . S
C2039 C2038 1.287 . S
C2039 C2040 1.524 . S
C2039 H2042 0.999 . S
C2040 H2010 0.950 . S
C2040 C2039 1.524 . S
C2040 C2041 1.415 . S
C2041 H2011 0.950 . S
C2041 C2036 1.363 . S
C2041 C2040 1.415 . S
H2042 C2039 0.999 . S
H2043 C2024 0.913 . S
H2044 C2062 0.951 . S
H2045 C2064 0.951 . S
H2046 C2066 0.950 . S
H2047 C2067 0.950 . S
H2048 C2069 0.950 . S
H2049 C2072 0.950 . S
H2050 C2073 0.950 . S
H2051 C2075 0.950 . S
H2052 C2076 0.950 . S
H2053 C2077 0.951 . S
H2054 C2079 0.951 . S
H2055 C2081 0.950 . S
H2056 C2082 0.950 . S
H2057 C2084 0.950 . S
H2058 C2087 0.950 . S
H2059 C2088 0.950 . S
H2060 C2090 0.950 . S
H2061 C2091 0.950 . S
C2062 H2044 0.951 . S
C2062 C2063 1.366 . S
C2062 C2064 1.388 . S
C2063 C2062 1.366 . S
C2063 C2067 1.385 . S
C2064 H2045 0.951 . S
C2064 C2062 1.388 . S
C2064 C2065 1.366 . S
C2065 C2064 1.366 . S
C2065 C2066 1.414 . S
C2065 C2068 1.499 . S
C2066 H2046 0.950 . S
C2066 C2065 1.414 . S
C2066 C2067 1.374 . S
C2067 H2047 0.950 . S
C2067 C2063 1.385 . S
C2067 C2066 1.374 . S
C2068 C2065 1.499 . S
C2068 C2069 1.373 . S
C2068 C2070 1.389 . S
C2069 H2048 0.950 . S
C2069 C2068 1.373 . S
C2069 C2085 1.377 . S
C2070 C2068 1.389 . S
C2070 C2071 1.524 . S
C2070 C2084 1.377 . S
C2071 C2070 1.524 . S
C2071 C2072 1.397 . S
C2071 C2076 1.363 . S
C2072 H2049 0.950 . S
C2072 C2071 1.397 . S
C2072 C2073 1.334 . S
C2073 H2050 0.950 . S
C2073 C2072 1.334 . S
C2073 C2074 1.287 . S
C2074 C2073 1.287 . S
C2074 C2075 1.524 . S
C2074 H2093 0.913 . S
C2075 H2051 0.950 . S
C2075 C2074 1.524 . S
C2075 C2076 1.415 . S
C2076 H2052 0.950 . S
C2076 C2071 1.363 . S
C2076 C2075 1.415 . S
C2077 H2053 0.951 . S
C2077 C2078 1.366 . S
C2077 C2079 1.388 . S
C2078 C2077 1.366 . S
C2078 C2082 1.385 . S
C2079 H2054 0.951 . S
C2079 C2077 1.388 . S
C2079 C2080 1.366 . S
C2080 C2079 1.366 . S
C2080 C2081 1.414 . S
C2080 C2083 1.499 . S
C2081 H2055 0.950 . S
C2081 C2080 1.414 . S
C2081 C2082 1.374 . S
C2082 H2056 0.950 . S
C2082 C2078 1.385 . S
C2082 C2081 1.374 . S
C2083 C2080 1.499 . S
C2083 C2084 1.373 . S
C2083 C2085 1.389 . S
C2084 H2057 0.950 . S
C2084 C2070 1.377 . S
C2084 C2083 1.373 . S
C2085 C2069 1.377 . S
C2085 C2083 1.389 . S
C2085 C2086 1.524 . S
C2086 C2085 1.524 . S
C2086 C2087 1.397 . S
C2086 C2091 1.363 . S
C2087 H2058 0.950 . S
C2087 C2086 1.397 . S
C2087 C2088 1.334 . S
C2088 H2059 0.950 . S
C2088 C2087 1.334 . S
C2088 C2089 1.287 . S
C2089 C2088 1.287 . S
C2089 C2090 1.524 . S
C2089 H2092 0.999 . S
C2090 H2060 0.950 . S
C2090 C2089 1.524 . S
C2090 C2091 1.415 . S
C2091 H2061 0.950 . S
C2091 C2086 1.363 . S
C2091 C2090 1.415 . S
H2092 C2089 0.999 . S
H2093 C2074 0.913 . S
H2094 C2112 0.951 . S
H2095 C2114 0.951 . S
H2096 C2116 0.950 . S
H2097 C2117 0.950 . S
H2098 C2119 0.950 . S
H2099 C2122 0.950 . S
H2100 C2123 0.950 . S
H2101 C2125 0.950 . S
H2102 C2126 0.950 . S
H2103 C2127 0.951 . S
H2104 C2129 0.951 . S
H2105 C2131 0.950 . S
H2106 C2132 0.950 . S
H2107 C2134 0.950 . S
H2108 C2137 0.950 . S
H2109 C2138 0.950 . S
H2110 C2140 0.950 . S
H2111 C2141 0.950 . S
C2112 H2094 0.951 . S
C2112 C2113 1.366 . S
C2112 C2114 1.388 . S
C2113 C2112 1.366 . S
C2113 C2117 1.385 . S
C2114 H2095 0.951 . S
C2114 C2112 1.388 . S
C2114 C2115 1.366 . S
C2115 C2114 1.366 . S
C2115 C2116 1.414 . S
C2115 C2118 1.499 . S
C2116 H2096 0.950 . S
C2116 C2115 1.414 . S
C2116 C2117 1.374 . S
C2117 H2097 0.950 . S
C2117 C2113 1.385 . S
C2117 C2116 1.374 . S
C2118 C2115 1.499 . S
C2118 C2119 1.373 . S
C2118 C2120 1.389 . S
C2119 H2098 0.950 . S
C2119 C2118 1.373 . S
C2119 C2135 1.377 . S
C2120 C2118 1.389 . S
C2120 C2121 1.524 . S
C2120 C2134 1.377 . S
C2121 C2120 1.524 . S
C2121 C2122 1.397 . S
C2121 C2126 1.363 . S
C2122 H2099 0.950 . S
C2122 C2121 1.397 . S
C2122 C2123 1.334 . S
C2123 H2100 0.950 . S
C2123 C2122 1.334 . S
C2123 C2124 1.287 . S
C2124 C2123 1.287 . S
C2124 C2125 1.524 . S
C2124 H2143 0.913 . S
C2125 H2101 0.950 . S
C2125 C2124 1.524 . S
C2125 C2126 1.415 . S
C2126 H2102 0.950 . S
C2126 C2121 1.363 . S
C2126 C2125 1.415 . S
C2127 H2103 0.951 . S
C2127 C2128 1.366 . S
C2127 C2129 1.388 . S
C2128 C2127 1.366 . S
C2128 C2132 1.385 . S
C2129 H2104 0.951 . S
C2129 C2127 1.388 . S
C2129 C2130 1.366 . S
C2130 C2129 1.366 . S
C2130 C2131 1.414 . S
C2130 C2133 1.499 . S
C2131 H2105 0.950 . S
C2131 C2130 1.414 . S
C2131 C2132 1.374 . S
C2132 H2106 0.950 . S
C2132 C2128 1.385 . S
C2132 C2131 1.374 . S
C2133 C2130 1.499 . S
C2133 C2134 1.373 . S
C2133 C2135 1.389 . S
C2134 H2107 0.950 . S
C2134 C2120 1.377 . S
C2134 C2133 1.373 . S
C2135 C2119 1.377 . S
C2135 C2133 1.389 . S
C2135 C2136 1.524 . S
C2136 C2135 1.524 . S
C2136 C2137 1.397 . S
C2136 C2141 1.363 . S
C2137 H2108 0.950 . S
C2137 C2136 1.397 . S
C2137 C2138 1.334 . S
C2138 H2109 0.950 . S
C2138 C2137 1.334 . S
C2138 C2139 1.287 . S
C2139 C2138 1.287 . S
C2139 C2140 1.524 . S
C2139 H2142 0.999 . S
C2140 H2110 0.950 . S
C2140 C2139 1.524 . S
C2140 C2141 1.415 . S
C2141 H2111 0.950 . S
C2141 C2136 1.363 . S
C2141 C2140 1.415 . S
H2142 C2139 0.999 . S
H2143 C2124 0.913 . S
H2144 C2162 0.951 . S
H2145 C2164 0.951 . S
H2146 C2166 0.950 . S
H2147 C2167 0.950 . S
H2148 C2169 0.950 . S
H2149 C2172 0.950 . S
H2150 C2173 0.950 . S
H2151 C2175 0.950 . S
H2152 C2176 0.950 . S
H2153 C2177 0.951 . S
H2154 C2179 0.951 . S
H2155 C2181 0.950 . S
H2156 C2182 0.950 . S
H2157 C2184 0.950 . S
H2158 C2187 0.950 . S
H2159 C2188 0.950 . S
H2160 C2190 0.950 . S
H2161 C2191 0.950 . S
C2162 H2144 0.951 . S
C2162 C2163 1.366 . S
C2162 C2164 1.388 . S
C2163 C2162 1.366 . S
C2163 C2167 1.385 . S
C2164 H2145 0.951 . S
C2164 C2162 1.388 . S
C2164 C2165 1.366 . S
C2165 C2164 1.366 . S
C2165 C2166 1.414 . S
C2165 C2168 1.499 . S
C2166 H2146 0.950 . S
C2166 C2165 1.414 . S
C2166 C2167 1.374 . S
C2167 H2147 0.950 . S
C2167 C2163 1.385 . S
C2167 C2166 1.374 . S
C2168 C2165 1.499 . S
C2168 C2169 1.373 1_545 S
C2168 C2170 1.389 . S
C2169 H2148 0.950 . S
C2169 C2168 1.373 1_565 S
C2169 C2185 1.377 . S
C2170 C2168 1.389 . S
C2170 C2171 1.524 . S
C2170 C2184 1.377 . S
C2171 C2170 1.524 . S
C2171 C2172 1.397 . S
C2171 C2176 1.363 . S
C2172 H2149 0.950 . S
C2172 C2171 1.397 . S
C2172 C2173 1.334 . S
C2173 H2150 0.950 . S
C2173 C2172 1.334 . S
C2173 C2174 1.287 . S
C2174 C2173 1.287 . S
C2174 C2175 1.524 . S
C2174 H2193 0.913 . S
C2175 H2151 0.950 . S
C2175 C2174 1.524 . S
C2175 C2176 1.415 . S
C2176 H2152 0.950 . S
C2176 C2171 1.363 . S
C2176 C2175 1.415 . S
C2177 H2153 0.951 . S
C2177 C2178 1.366 . S
C2177 C2179 1.388 . S
C2178 C2177 1.366 . S
C2178 C2182 1.385 . S
C2179 H2154 0.951 . S
C2179 C2177 1.388 . S
C2179 C2180 1.366 . S
C2180 C2179 1.366 . S
C2180 C2181 1.414 . S
C2180 C2183 1.499 . S
C2181 H2155 0.950 . S
C2181 C2180 1.414 . S
C2181 C2182 1.374 . S
C2182 H2156 0.950 . S
C2182 C2178 1.385 . S
C2182 C2181 1.374 . S
C2183 C2180 1.499 . S
C2183 C2184 1.373 1_565 S
C2183 C2185 1.389 . S
C2184 H2157 0.950 . S
C2184 C2170 1.377 . S
C2184 C2183 1.373 1_545 S
C2185 C2169 1.377 . S
C2185 C2183 1.389 . S
C2185 C2186 1.524 . S
C2186 C2185 1.524 . S
C2186 C2187 1.397 . S
C2186 C2191 1.363 . S
C2187 H2158 0.950 . S
C2187 C2186 1.397 . S
C2187 C2188 1.334 . S
C2188 H2159 0.950 . S
C2188 C2187 1.334 . S
C2188 C2189 1.287 . S
C2189 C2188 1.287 . S
C2189 C2190 1.524 . S
C2189 H2192 0.999 . S
C2190 H2160 0.950 . S
C2190 C2189 1.524 . S
C2190 C2191 1.415 . S
C2191 H2161 0.950 . S
C2191 C2186 1.363 . S
C2191 C2190 1.415 . S
H2192 C2189 0.999 . S
H2193 C2174 0.913 . S
H2194 C2212 0.951 . S
H2195 C2214 0.951 . S
H2196 C2216 0.950 . S
H2197 C2217 0.950 . S
H2198 C2219 0.950 . S
H2199 C2222 0.950 . S
H2200 C2223 0.950 . S
H2201 C2225 0.950 . S
H2202 C2226 0.950 1_655 S
H2203 C2227 0.951 . S
H2204 C2229 0.951 . S
H2205 C2231 0.950 . S
H2206 C2232 0.950 . S
H2207 C2234 0.950 . S
H2208 C2237 0.950 . S
H2209 C2238 0.950 . S
H2210 C2240 0.950 . S
H2211 C2241 0.950 1_455 S
C2212 H2194 0.951 . S
C2212 C2213 1.366 . S
C2212 C2214 1.388 . S
C2213 C2212 1.366 . S
C2213 C2217 1.385 . S
C2214 H2195 0.951 . S
C2214 C2212 1.388 . S
C2214 C2215 1.366 . S
C2215 C2214 1.366 . S
C2215 C2216 1.414 . S
C2215 C2218 1.499 . S
C2216 H2196 0.950 . S
C2216 C2215 1.414 . S
C2216 C2217 1.374 . S
C2217 H2197 0.950 . S
C2217 C2213 1.385 . S
C2217 C2216 1.374 . S
C2218 C2215 1.499 . S
C2218 C2219 1.373 . S
C2218 C2220 1.389 1_655 S
C2219 H2198 0.950 . S
C2219 C2218 1.373 . S
C2219 C2235 1.377 . S
C2220 C2218 1.389 1_455 S
C2220 C2221 1.524 . S
C2220 C2234 1.377 . S
C2221 C2220 1.524 . S
C2221 C2222 1.397 . S
C2221 C2226 1.363 . S
C2222 H2199 0.950 . S
C2222 C2221 1.397 . S
C2222 C2223 1.334 . S
C2223 H2200 0.950 . S
C2223 C2222 1.334 . S
C2223 C2224 1.287 . S
C2224 C2223 1.287 . S
C2224 C2225 1.524 . S
C2224 H2243 0.913 . S
C2225 H2201 0.950 . S
C2225 C2224 1.524 . S
C2225 C2226 1.415 . S
C2226 H2202 0.950 1_455 S
C2226 C2221 1.363 . S
C2226 C2225 1.415 . S
C2227 H2203 0.951 . S
C2227 C2228 1.366 . S
C2227 C2229 1.388 . S
C2228 C2227 1.366 . S
C2228 C2232 1.385 . S
C2229 H2204 0.951 . S
C2229 C2227 1.388 . S
C2229 C2230 1.366 . S
C2230 C2229 1.366 . S
C2230 C2231 1.414 . S
C2230 C2233 1.499 . S
C2231 H2205 0.950 . S
C2231 C2230 1.414 . S
C2231 C2232 1.374 . S
C2232 H2206 0.950 . S
C2232 C2228 1.385 . S
C2232 C2231 1.374 . S
C2233 C2230 1.499 . S
C2233 C2234 1.373 . S
C2233 C2235 1.389 1_455 S
C2234 H2207 0.950 . S
C2234 C2220 1.377 . S
C2234 C2233 1.373 . S
C2235 C2219 1.377 . S
C2235 C2233 1.389 1_655 S
C2235 C2236 1.524 . S
C2236 C2235 1.524 . S
C2236 C2237 1.397 . S
C2236 C2241 1.363 . S
C2237 H2208 0.950 . S
C2237 C2236 1.397 . S
C2237 C2238 1.334 . S
C2238 H2209 0.950 . S
C2238 C2237 1.334 . S
C2238 C2239 1.287 . S
C2239 C2238 1.287 . S
C2239 C2240 1.524 . S
C2239 H2242 0.999 . S
C2240 H2210 0.950 . S
C2240 C2239 1.524 . S
C2240 C2241 1.415 . S
C2241 H2211 0.950 1_655 S
C2241 C2236 1.363 . S
C2241 C2240 1.415 . S
H2242 C2239 0.999 . S
H2243 C2224 0.913 . S
H2244 C2262 0.951 . S
H2245 C2264 0.951 . S
H2246 C2266 0.950 1_545 S
H2247 C2267 0.950 . S
H2248 C2269 0.950 . S
H2249 C2272 0.950 . S
H2250 C2273 0.950 . S
H2251 C2275 0.950 . S
H2252 C2276 0.950 . S
H2253 C2277 0.951 . S
H2254 C2279 0.951 . S
H2255 C2281 0.950 1_565 S
H2256 C2282 0.950 . S
H2257 C2284 0.950 . S
H2258 C2287 0.950 . S
H2259 C2288 0.950 . S
H2260 C2290 0.950 . S
H2261 C2291 0.950 . S
C2262 H2244 0.951 . S
C2262 C2263 1.366 . S
C2262 C2264 1.388 . S
C2263 C2262 1.366 . S
C2263 C2267 1.385 . S
C2264 H2245 0.951 . S
C2264 C2262 1.388 . S
C2264 C2265 1.366 . S
C2265 C2264 1.366 . S
C2265 C2266 1.414 . S
C2265 C2268 1.499 . S
C2266 H2246 0.950 1_565 S
C2266 C2265 1.414 . S
C2266 C2267 1.374 . S
C2267 H2247 0.950 . S
C2267 C2263 1.385 . S
C2267 C2266 1.374 . S
C2268 C2265 1.499 . S
C2268 C2269 1.373 1_565 S
C2268 C2270 1.389 . S
C2269 H2248 0.950 . S
C2269 C2268 1.373 1_545 S
C2269 C2285 1.377 . S
C2270 C2268 1.389 . S
C2270 C2271 1.524 . S
C2270 C2284 1.377 . S
C2271 C2270 1.524 . S
C2271 C2272 1.397 . S
C2271 C2276 1.363 . S
C2272 H2249 0.950 . S
C2272 C2271 1.397 . S
C2272 C2273 1.334 . S
C2273 H2250 0.950 . S
C2273 C2272 1.334 . S
C2273 C2274 1.287 . S
C2274 C2273 1.287 . S
C2274 C2275 1.524 . S
C2274 H2293 0.913 . S
C2275 H2251 0.950 . S
C2275 C2274 1.524 . S
C2275 C2276 1.415 . S
C2276 H2252 0.950 . S
C2276 C2271 1.363 . S
C2276 C2275 1.415 . S
C2277 H2253 0.951 . S
C2277 C2278 1.366 . S
C2277 C2279 1.388 . S
C2278 C2277 1.366 . S
C2278 C2282 1.385 . S
C2279 H2254 0.951 . S
C2279 C2277 1.388 . S
C2279 C2280 1.366 . S
C2280 C2279 1.366 . S
C2280 C2281 1.414 . S
C2280 C2283 1.499 . S
C2281 H2255 0.950 1_545 S
C2281 C2280 1.414 . S
C2281 C2282 1.374 . S
C2282 H2256 0.950 . S
C2282 C2278 1.385 . S
C2282 C2281 1.374 . S
C2283 C2280 1.499 . S
C2283 C2284 1.373 1_545 S
C2283 C2285 1.389 . S
C2284 H2257 0.950 . S
C2284 C2270 1.377 . S
C2284 C2283 1.373 1_565 S
C2285 C2269 1.377 . S
C2285 C2283 1.389 . S
C2285 C2286 1.524 . S
C2286 C2285 1.524 . S
C2286 C2287 1.397 . S
C2286 C2291 1.363 . S
C2287 H2258 0.950 . S
C2287 C2286 1.397 . S
C2287 C2288 1.334 . S
C2288 H2259 0.950 . S
C2288 C2287 1.334 . S
C2288 C2289 1.287 . S
C2289 C2288 1.287 . S
C2289 C2290 1.524 . S
C2289 H2292 0.999 . S
C2290 H2260 0.950 . S
C2290 C2289 1.524 . S
C2290 C2291 1.415 . S
C2291 H2261 0.950 . S
C2291 C2286 1.363 . S
C2291 C2290 1.415 . S
H2292 C2289 0.999 . S
H2293 C2274 0.913 . S
H2294 C2312 0.951 . S
H2295 C2314 0.951 . S
H2296 C2316 0.950 1_455 S
H2297 C2317 0.950 . S
H2298 C2319 0.950 . S
H2299 C2322 0.950 . S
H2300 C2323 0.950 . S
H2301 C2325 0.950 . S
H2302 C2326 0.950 . S
H2303 C2327 0.951 . S
H2304 C2329 0.951 . S
H2305 C2331 0.950 1_655 S
H2306 C2332 0.950 . S
H2307 C2334 0.950 . S
H2308 C2337 0.950 . S
H2309 C2338 0.950 . S
H2310 C2340 0.950 . S
H2311 C2341 0.950 . S
C2312 H2294 0.951 . S
C2312 C2313 1.366 . S
C2312 C2314 1.388 . S
C2313 C2312 1.366 . S
C2313 C2317 1.385 . S
C2314 H2295 0.951 . S
C2314 C2312 1.388 . S
C2314 C2315 1.366 . S
C2315 C2314 1.366 . S
C2315 C2316 1.414 . S
C2315 C2318 1.499 . S
C2316 H2296 0.950 1_655 S
C2316 C2315 1.414 . S
C2316 C2317 1.374 . S
C2317 H2297 0.950 . S
C2317 C2313 1.385 . S
C2317 C2316 1.374 . S
C2318 C2315 1.499 . S
C2318 C2319 1.373 1_655 S
C2318 C2320 1.389 . S
C2319 H2298 0.950 . S
C2319 C2318 1.373 1_455 S
C2319 C2335 1.377 . S
C2320 C2318 1.389 . S
C2320 C2321 1.524 . S
C2320 C2334 1.377 . S
C2321 C2320 1.524 . S
C2321 C2322 1.397 . S
C2321 C2326 1.363 . S
C2322 H2299 0.950 . S
C2322 C2321 1.397 . S
C2322 C2323 1.334 . S
C2323 H2300 0.950 . S
C2323 C2322 1.334 . S
C2323 C2324 1.287 . S
C2324 C2323 1.287 . S
C2324 C2325 1.524 . S
C2324 H2343 0.913 . S
C2325 H2301 0.950 . S
C2325 C2324 1.524 . S
C2325 C2326 1.415 . S
C2326 H2302 0.950 . S
C2326 C2321 1.363 . S
C2326 C2325 1.415 . S
C2327 H2303 0.951 . S
C2327 C2328 1.366 . S
C2327 C2329 1.388 . S
C2328 C2327 1.366 . S
C2328 C2332 1.385 . S
C2329 H2304 0.951 . S
C2329 C2327 1.388 . S
C2329 C2330 1.366 . S
C2330 C2329 1.366 . S
C2330 C2331 1.414 . S
C2330 C2333 1.499 . S
C2331 H2305 0.950 1_455 S
C2331 C2330 1.414 . S
C2331 C2332 1.374 . S
C2332 H2306 0.950 . S
C2332 C2328 1.385 . S
C2332 C2331 1.374 . S
C2333 C2330 1.499 . S
C2333 C2334 1.373 1_455 S
C2333 C2335 1.389 . S
C2334 H2307 0.950 . S
C2334 C2320 1.377 . S
C2334 C2333 1.373 1_655 S
C2335 C2319 1.377 . S
C2335 C2333 1.389 . S
C2335 C2336 1.524 . S
C2336 C2335 1.524 . S
C2336 C2337 1.397 . S
C2336 C2341 1.363 . S
C2337 H2308 0.950 . S
C2337 C2336 1.397 . S
C2337 C2338 1.334 . S
C2338 H2309 0.950 . S
C2338 C2337 1.334 . S
C2338 C2339 1.287 . S
C2339 C2338 1.287 . S
C2339 C2340 1.524 . S
C2339 H2342 0.999 . S
C2340 H2310 0.950 . S
C2340 C2339 1.524 . S
C2340 C2341 1.415 . S
C2341 H2311 0.950 . S
C2341 C2336 1.363 . S
C2341 C2340 1.415 . S
H2342 C2339 0.999 . S
H2343 C2324 0.913 . S
H2344 C2362 0.951 . S
H2345 C2364 0.951 . S
H2346 C2366 0.950 . S
H2347 C2367 0.950 . S
H2348 C2369 0.950 . S
H2349 C2372 0.950 . S
H2350 C2373 0.950 . S
H2351 C2375 0.950 . S
H2352 C2376 0.950 . S
H2353 C2377 0.951 . S
H2354 C2379 0.951 . S
H2355 C2381 0.950 . S
H2356 C2382 0.950 . S
H2357 C2384 0.950 . S
H2358 C2387 0.950 . S
H2359 C2388 0.950 . S
H2360 C2390 0.950 . S
H2361 C2391 0.950 . S
C2362 H2344 0.951 . S
C2362 C2363 1.366 . S
C2362 C2364 1.388 . S
C2363 C2362 1.366 . S
C2363 C2367 1.385 . S
C2364 H2345 0.951 . S
C2364 C2362 1.388 . S
C2364 C2365 1.366 . S
C2365 C2364 1.366 . S
C2365 C2366 1.414 . S
C2365 C2368 1.499 . S
C2366 H2346 0.950 . S
C2366 C2365 1.414 . S
C2366 C2367 1.374 . S
C2367 H2347 0.950 . S
C2367 C2363 1.385 . S
C2367 C2366 1.374 . S
C2368 C2365 1.499 . S
C2368 C2369 1.373 . S
C2368 C2370 1.367 1_556 S
C2369 H2348 0.950 . S
C2369 C2368 1.373 . S
C2369 C2385 1.398 . S
C2370 C2368 1.367 1_554 S
C2370 C2371 1.527 . S
C2370 C2384 1.398 . S
C2371 C2370 1.527 . S
C2371 C2372 1.397 1_554 S
C2371 C2376 1.363 . S
C2372 H2349 0.950 . S
C2372 C2371 1.397 1_556 S
C2372 C2373 1.334 . S
C2373 H2350 0.950 . S
C2373 C2372 1.334 . S
C2373 C2374 1.287 1_556 S
C2374 C2373 1.287 1_554 S
C2374 C2375 1.524 . S
C2374 H2393 0.913 . S
C2375 H2351 0.950 . S
C2375 C2374 1.524 . S
C2375 C2376 1.415 . S
C2376 H2352 0.950 . S
C2376 C2371 1.363 . S
C2376 C2375 1.415 . S
C2377 H2353 0.951 . S
C2377 C2378 1.366 . S
C2377 C2379 1.388 . S
C2378 C2377 1.366 . S
C2378 C2382 1.385 . S
C2379 H2354 0.951 . S
C2379 C2377 1.388 . S
C2379 C2380 1.366 . S
C2380 C2379 1.366 . S
C2380 C2381 1.414 . S
C2380 C2383 1.499 . S
C2381 H2355 0.950 . S
C2381 C2380 1.414 . S
C2381 C2382 1.374 . S
C2382 H2356 0.950 . S
C2382 C2378 1.385 . S
C2382 C2381 1.374 . S
C2383 C2380 1.499 . S
C2383 C2384 1.373 . S
C2383 C2385 1.367 1_554 S
C2384 H2357 0.950 . S
C2384 C2370 1.398 . S
C2384 C2383 1.373 . S
C2385 C2369 1.398 . S
C2385 C2383 1.367 1_556 S
C2385 C2386 1.527 . S
C2386 C2385 1.527 . S
C2386 C2387 1.397 1_556 S
C2386 C2391 1.363 . S
C2387 H2358 0.950 . S
C2387 C2386 1.397 1_554 S
C2387 C2388 1.334 . S
C2388 H2359 0.950 . S
C2388 C2387 1.334 . S
C2388 C2389 1.287 1_554 S
C2389 C2388 1.287 1_556 S
C2389 C2390 1.524 . S
C2389 H2392 0.999 . S
C2390 H2360 0.950 . S
C2390 C2389 1.524 . S
C2390 C2391 1.415 . S
C2391 H2361 0.950 . S
C2391 C2386 1.363 . S
C2391 C2390 1.415 . S
H2392 C2389 0.999 . S
H2393 C2374 0.913 . S
H2394 C2412 0.951 . S
H2395 C2414 0.951 . S
H2396 C2416 0.950 . S
H2397 C2417 0.950 . S
H2398 C2419 0.950 . S
H2399 C2422 0.950 . S
H2400 C2423 0.950 . S
H2401 C2425 0.950 1_554 S
H2402 C2426 0.947 . S
H2403 C2427 0.951 . S
H2404 C2429 0.951 . S
H2405 C2431 0.950 . S
H2406 C2432 0.950 . S
H2407 C2434 0.950 . S
H2408 C2437 0.950 . S
H2409 C2438 0.950 . S
H2410 C2440 0.950 1_556 S
H2411 C2441 0.947 . S
C2412 H2394 0.951 . S
C2412 C2413 1.366 . S
C2412 C2414 1.388 . S
C2413 C2412 1.366 . S
C2413 C2417 1.385 . S
C2414 H2395 0.951 . S
C2414 C2412 1.388 . S
C2414 C2415 1.366 . S
C2415 C2414 1.366 . S
C2415 C2416 1.414 . S
C2415 C2418 1.499 . S
C2416 H2396 0.950 . S
C2416 C2415 1.414 . S
C2416 C2417 1.374 . S
C2417 H2397 0.950 . S
C2417 C2413 1.385 . S
C2417 C2416 1.374 . S
C2418 C2415 1.499 . S
C2418 C2419 1.373 . S
C2418 C2420 1.389 . S
C2419 H2398 0.950 . S
C2419 C2418 1.373 . S
C2419 C2435 1.377 1_556 S
C2420 C2418 1.389 . S
C2420 C2421 1.524 . S
C2420 C2434 1.377 1_556 S
C2421 C2420 1.524 . S
C2421 C2422 1.397 . S
C2421 C2426 1.365 1_556 S
C2422 H2399 0.950 . S
C2422 C2421 1.397 . S
C2422 C2423 1.334 . S
C2423 H2400 0.950 . S
C2423 C2422 1.334 . S
C2423 C2424 1.287 . S
C2424 C2423 1.287 . S
C2424 C2425 1.524 . S
C2424 H2443 0.913 . S
C2425 H2401 0.950 1_556 S
C2425 C2424 1.524 . S
C2425 C2426 1.416 1_556 S
C2426 H2402 0.947 . S
C2426 C2421 1.365 1_554 S
C2426 C2425 1.416 1_554 S
C2427 H2403 0.951 . S
C2427 C2428 1.366 . S
C2427 C2429 1.388 . S
C2428 C2427 1.366 . S
C2428 C2432 1.385 . S
C2429 H2404 0.951 . S
C2429 C2427 1.388 . S
C2429 C2430 1.366 . S
C2430 C2429 1.366 . S
C2430 C2431 1.414 . S
C2430 C2433 1.499 . S
C2431 H2405 0.950 . S
C2431 C2430 1.414 . S
C2431 C2432 1.374 . S
C2432 H2406 0.950 . S
C2432 C2428 1.385 . S
C2432 C2431 1.374 . S
C2433 C2430 1.499 . S
C2433 C2434 1.373 . S
C2433 C2435 1.389 . S
C2434 H2407 0.950 . S
C2434 C2420 1.377 1_554 S
C2434 C2433 1.373 . S
C2435 C2419 1.377 1_554 S
C2435 C2433 1.389 . S
C2435 C2436 1.524 . S
C2436 C2435 1.524 . S
C2436 C2437 1.397 . S
C2436 C2441 1.365 1_554 S
C2437 H2408 0.950 . S
C2437 C2436 1.397 . S
C2437 C2438 1.334 . S
C2438 H2409 0.950 . S
C2438 C2437 1.334 . S
C2438 C2439 1.287 . S
C2439 C2438 1.287 . S
C2439 C2440 1.524 . S
C2439 H2442 0.999 . S
C2440 H2410 0.950 1_554 S
C2440 C2439 1.524 . S
C2440 C2441 1.416 1_554 S
C2441 H2411 0.947 . S
C2441 C2436 1.365 1_556 S
C2441 C2440 1.416 1_556 S
H2442 C2439 0.999 . S
H2443 C2424 0.913 . S
H2444 C2462 0.951 . S
H2445 C2464 0.951 . S
H2446 C2466 0.950 . S
H2447 C2467 0.950 . S
H2448 C2469 0.950 . S
H2449 C2472 0.950 . S
H2450 C2473 0.950 . S
H2451 C2475 0.950 . S
H2452 C2476 0.950 . S
H2453 C2477 0.951 . S
H2454 C2479 0.951 . S
H2455 C2481 0.950 . S
H2456 C2482 0.950 . S
H2457 C2484 0.950 . S
H2458 C2487 0.950 . S
H2459 C2488 0.950 . S
H2460 C2490 0.950 . S
H2461 C2491 0.950 . S
C2462 H2444 0.951 . S
C2462 C2463 1.366 . S
C2462 C2464 1.388 . S
C2463 C2462 1.366 . S
C2463 C2467 1.385 . S
C2464 H2445 0.951 . S
C2464 C2462 1.388 . S
C2464 C2465 1.366 . S
C2465 C2464 1.366 . S
C2465 C2466 1.414 . S
C2465 C2468 1.499 . S
C2466 H2446 0.950 . S
C2466 C2465 1.414 . S
C2466 C2467 1.374 . S
C2467 H2447 0.950 . S
C2467 C2463 1.385 . S
C2467 C2466 1.374 . S
C2468 C2465 1.499 . S
C2468 C2469 1.373 . S
C2468 C2470 1.389 . S
C2469 H2448 0.950 . S
C2469 C2468 1.373 . S
C2469 C2485 1.377 1_554 S
C2470 C2468 1.389 . S
C2470 C2471 1.524 . S
C2470 C2484 1.377 1_554 S
C2471 C2470 1.524 . S
C2471 C2472 1.397 . S
C2471 C2476 1.363 . S
C2472 H2449 0.950 . S
C2472 C2471 1.397 . S
C2472 C2473 1.334 . S
C2473 H2450 0.950 . S
C2473 C2472 1.334 . S
C2473 C2474 1.287 . S
C2474 C2473 1.287 . S
C2474 C2475 1.524 . S
C2474 H2493 0.913 . S
C2475 H2451 0.950 . S
C2475 C2474 1.524 . S
C2475 C2476 1.415 . S
C2476 H2452 0.950 . S
C2476 C2471 1.363 . S
C2476 C2475 1.415 . S
C2477 H2453 0.951 . S
C2477 C2478 1.366 . S
C2477 C2479 1.388 . S
C2478 C2477 1.366 . S
C2478 C2482 1.385 . S
C2479 H2454 0.951 . S
C2479 C2477 1.388 . S
C2479 C2480 1.366 . S
C2480 C2479 1.366 . S
C2480 C2481 1.414 . S
C2480 C2483 1.499 . S
C2481 H2455 0.950 . S
C2481 C2480 1.414 . S
C2481 C2482 1.374 . S
C2482 H2456 0.950 . S
C2482 C2478 1.385 . S
C2482 C2481 1.374 . S
C2483 C2480 1.499 . S
C2483 C2484 1.373 . S
C2483 C2485 1.389 . S
C2484 H2457 0.950 . S
C2484 C2470 1.377 1_556 S
C2484 C2483 1.373 . S
C2485 C2469 1.377 1_556 S
C2485 C2483 1.389 . S
C2485 C2486 1.524 . S
C2486 C2485 1.524 . S
C2486 C2487 1.397 . S
C2486 C2491 1.363 . S
C2487 H2458 0.950 . S
C2487 C2486 1.397 . S
C2487 C2488 1.334 . S
C2488 H2459 0.950 . S
C2488 C2487 1.334 . S
C2488 C2489 1.287 . S
C2489 C2488 1.287 . S
C2489 C2490 1.524 . S
C2489 H2492 0.999 . S
C2490 H2460 0.950 . S
C2490 C2489 1.524 . S
C2490 C2491 1.415 . S
C2491 H2461 0.950 . S
C2491 C2486 1.363 . S
C2491 C2490 1.415 . S
H2492 C2489 0.999 . S
H2493 C2474 0.913 . S
H2494 C2512 0.951 . S
H2495 C2514 0.951 . S
H2496 C2516 0.950 . S
H2497 C2517 0.950 . S
H2498 C2519 0.950 . S
H2499 C2522 0.950 . S
H2500 C2523 0.950 . S
H2501 C2525 0.950 . S
H2502 C2526 0.950 . S
H2503 C2527 0.951 . S
H2504 C2529 0.951 . S
H2505 C2531 0.950 . S
H2506 C2532 0.950 . S
H2507 C2534 0.950 . S
H2508 C2537 0.950 . S
H2509 C2538 0.950 . S
H2510 C2540 0.950 . S
H2511 C2541 0.950 . S
C2512 H2494 0.951 . S
C2512 C2513 1.366 . S
C2512 C2514 1.388 . S
C2513 C2512 1.366 . S
C2513 C2517 1.385 . S
C2514 H2495 0.951 . S
C2514 C2512 1.388 . S
C2514 C2515 1.366 . S
C2515 C2514 1.366 . S
C2515 C2516 1.414 . S
C2515 C2518 1.499 . S
C2516 H2496 0.950 . S
C2516 C2515 1.414 . S
C2516 C2517 1.374 . S
C2517 H2497 0.950 . S
C2517 C2513 1.385 . S
C2517 C2516 1.374 . S
C2518 C2515 1.499 . S
C2518 C2519 1.373 . S
C2518 C2520 1.389 . S
C2519 H2498 0.950 . S
C2519 C2518 1.373 . S
C2519 C2535 1.377 1_556 S
C2520 C2518 1.389 . S
C2520 C2521 1.524 . S
C2520 C2534 1.377 1_556 S
C2521 C2520 1.524 . S
C2521 C2522 1.397 . S
C2521 C2526 1.363 1_556 S
C2522 H2499 0.950 . S
C2522 C2521 1.397 . S
C2522 C2523 1.334 . S
C2523 H2500 0.950 . S
C2523 C2522 1.334 . S
C2523 C2524 1.287 . S
C2524 C2523 1.287 . S
C2524 C2525 1.524 1_556 S
C2524 H2543 0.913 . S
C2525 H2501 0.950 . S
C2525 C2524 1.524 1_554 S
C2525 C2526 1.415 . S
C2526 H2502 0.950 . S
C2526 C2521 1.363 1_554 S
C2526 C2525 1.415 . S
C2527 H2503 0.951 . S
C2527 C2528 1.366 . S
C2527 C2529 1.388 . S
C2528 C2527 1.366 . S
C2528 C2532 1.385 . S
C2529 H2504 0.951 . S
C2529 C2527 1.388 . S
C2529 C2530 1.366 . S
C2530 C2529 1.366 . S
C2530 C2531 1.414 . S
C2530 C2533 1.499 . S
C2531 H2505 0.950 . S
C2531 C2530 1.414 . S
C2531 C2532 1.374 . S
C2532 H2506 0.950 . S
C2532 C2528 1.385 . S
C2532 C2531 1.374 . S
C2533 C2530 1.499 . S
C2533 C2534 1.373 . S
C2533 C2535 1.389 . S
C2534 H2507 0.950 . S
C2534 C2520 1.377 1_554 S
C2534 C2533 1.373 . S
C2535 C2519 1.377 1_554 S
C2535 C2533 1.389 . S
C2535 C2536 1.524 . S
C2536 C2535 1.524 . S
C2536 C2537 1.397 . S
C2536 C2541 1.363 1_554 S
C2537 H2508 0.950 . S
C2537 C2536 1.397 . S
C2537 C2538 1.334 . S
C2538 H2509 0.950 . S
C2538 C2537 1.334 . S
C2538 C2539 1.287 . S
C2539 C2538 1.287 . S
C2539 C2540 1.524 1_554 S
C2539 H2542 0.999 . S
C2540 H2510 0.950 . S
C2540 C2539 1.524 1_556 S
C2540 C2541 1.415 . S
C2541 H2511 0.950 . S
C2541 C2536 1.363 1_556 S
C2541 C2540 1.415 . S
H2542 C2539 0.999 . S
H2543 C2524 0.913 . S
C563 C9 1.987 1_565 S
C578 C104 2.004 . S
C613 C2 2.003 . S
C628 C43 1.987 1_455 S
C663 C77 1.987 1_545 S
C678 C36 2.004 . S
C713 C70 2.004 . S
C728 C111 1.987 1_655 S
C763 C172 2.004 . S
C778 C145 1.987 1_545 S
C813 C206 2.003 . S
C828 C179 1.987 1_655 S
C863 C240 2.004 . S
C878 C213 1.987 1_565 S
C913 C247 1.987 1_455 S
C928 C138 2.004 . S
C963 C281 1.987 . S
C978 C376 2.003 . S
C1013 C315 1.987 . S
C1028 C274 2.003 . S
C1063 C349 1.987 . S
C1078 C308 2.003 . S
C1113 C342 2.004 . S
C1128 C383 1.987 . S
C1163 C444 2.003 . S
C1178 C417 1.987 . S
C1213 C451 1.987 . S
C1228 C478 2.003 . S
C1263 C485 1.987 . S
C1278 C512 2.003 . S
C1313 C519 1.987 . S
C1328 C410 2.004 . S
C1363 C5 0.898 . S
C1378 C175 0.897 . S
C1413 C39 0.898 . S
C1428 C209 0.896 . S
C1463 C243 0.897 . S
C1478 C73 0.898 . S
C1513 C107 0.899 . S
C1528 C141 0.896 . S
C1563 C277 0.899 . S
C1578 C447 0.896 . S
C1613 C311 0.896 . S
C1628 C481 0.899 . S
C1663 C345 0.898 . S
C1678 C515 0.897 . S
C1713 C379 0.896 . S
C1728 C413 0.899 . S
C1763 C33 0.523 . S
C1778 C543 0.522 . S
C1813 C441 0.523 . S
C1828 C67 0.523 . S
C1863 C101 0.522 . S
C1878 C475 0.523 . S
C1913 C135 0.523 . S
C1928 C509 0.523 . S
C1963 C339 0.523 . S
C1978 C169 0.523 . S
C2013 C373 0.523 . S
C2028 C203 0.523 . S
C2063 C407 0.521 . S
C2078 C237 0.521 . S
C2113 C305 0.522 . S
C2128 C271 0.521 . S
C2163 C20 0.966 . S
C2178 C156 0.967 . S
C2213 C54 0.965 . S
C2228 C190 0.966 . S
C2263 C88 0.966 . S
C2278 C224 0.967 . S
C2313 C258 0.966 . S
C2328 C122 0.967 . S
C2363 C292 0.966 . S
C2378 C428 0.966 . S
C2413 C326 0.965 . S
C2428 C462 0.966 . S
C2463 C496 0.967 . S
C2478 C360 0.966 . S
C2513 C394 0.965 . S
C2528 C530 0.967 . S
