# Generated by pormake.
# Topology xfb, (7)-cn, num edge types: 1
# Building blocks:
#     Node 0, Type 0, BuildingBlock: HICVOG_clean_sbu_0, # of connection points: 7
#     Node 1, Type 0, BuildingBlock: HICVOG_clean_sbu_0, # of connection points: 7
#     Node 2, Type 0, BuildingBlock: HICVOG_clean_sbu_0, # of connection points: 7
#     Node 3, Type 0, BuildingBlock: HICVOG_clean_sbu_0, # of connection points: 7
#     Node 4, Type 0, BuildingBlock: HICVOG_clean_sbu_0, # of connection points: 7
#     Node 5, Type 0, BuildingBlock: HICVOG_clean_sbu_0, # of connection points: 7
#     Node 6, Type 0, BuildingBlock: HICVOG_clean_sbu_0, # of connection points: 7
#     Node 7, Type 0, BuildingBlock: HICVOG_clean_sbu_0, # of connection points: 7
#     Node 8, Type 0, BuildingBlock: HICVOG_clean_sbu_0, # of connection points: 7
#     Node 9, Type 0, BuildingBlock: HICVOG_clean_sbu_0, # of connection points: 7
#     Node 10, Type 0, BuildingBlock: HICVOG_clean_sbu_0, # of connection points: 7
#     Node 11, Type 0, BuildingBlock: HICVOG_clean_sbu_0, # of connection points: 7
#     Node 12, Type 0, BuildingBlock: HICVOG_clean_sbu_0, # of connection points: 7
#     Node 13, Type 0, BuildingBlock: HICVOG_clean_sbu_0, # of connection points: 7
#     Node 14, Type 0, BuildingBlock: HICVOG_clean_sbu_0, # of connection points: 7
#     Node 15, Type 0, BuildingBlock: HICVOG_clean_sbu_0, # of connection points: 7
#     Edge 16, Type (0, 0), BuildingBlock: EZIPEK_clean_linker_0, # of connection points: 2
#     Edge 17, Type (0, 0), BuildingBlock: EZIPEK_clean_linker_0, # of connection points: 2
#     Edge 18, Type (0, 0), BuildingBlock: EZIPEK_clean_linker_0, # of connection points: 2
#     Edge 19, Type (0, 0), BuildingBlock: EZIPEK_clean_linker_0, # of connection points: 2
#     Edge 20, Type (0, 0), BuildingBlock: EZIPEK_clean_linker_0, # of connection points: 2
#     Edge 21, Type (0, 0), BuildingBlock: EZIPEK_clean_linker_0, # of connection points: 2
#     Edge 22, Type (0, 0), BuildingBlock: EZIPEK_clean_linker_0, # of connection points: 2
#     Edge 23, Type (0, 0), BuildingBlock: EZIPEK_clean_linker_0, # of connection points: 2
#     Edge 24, Type (0, 0), BuildingBlock: EZIPEK_clean_linker_0, # of connection points: 2
#     Edge 25, Type (0, 0), BuildingBlock: EZIPEK_clean_linker_0, # of connection points: 2
#     Edge 26, Type (0, 0), BuildingBlock: EZIPEK_clean_linker_0, # of connection points: 2
#     Edge 27, Type (0, 0), BuildingBlock: EZIPEK_clean_linker_0, # of connection points: 2
#     Edge 28, Type (0, 0), BuildingBlock: EZIPEK_clean_linker_0, # of connection points: 2
#     Edge 29, Type (0, 0), BuildingBlock: EZIPEK_clean_linker_0, # of connection points: 2
#     Edge 30, Type (0, 0), BuildingBlock: EZIPEK_clean_linker_0, # of connection points: 2
#     Edge 31, Type (0, 0), BuildingBlock: EZIPEK_clean_linker_0, # of connection points: 2
#     Edge 32, Type (0, 0), BuildingBlock: EZIPEK_clean_linker_0, # of connection points: 2
#     Edge 33, Type (0, 0), BuildingBlock: EZIPEK_clean_linker_0, # of connection points: 2
#     Edge 34, Type (0, 0), BuildingBlock: EZIPEK_clean_linker_0, # of connection points: 2
#     Edge 35, Type (0, 0), BuildingBlock: EZIPEK_clean_linker_0, # of connection points: 2
#     Edge 36, Type (0, 0), BuildingBlock: EZIPEK_clean_linker_0, # of connection points: 2
#     Edge 37, Type (0, 0), BuildingBlock: EZIPEK_clean_linker_0, # of connection points: 2
#     Edge 38, Type (0, 0), BuildingBlock: EZIPEK_clean_linker_0, # of connection points: 2
#     Edge 39, Type (0, 0), BuildingBlock: EZIPEK_clean_linker_0, # of connection points: 2
#     Edge 40, Type (0, 0), BuildingBlock: EZIPEK_clean_linker_0, # of connection points: 2
#     Edge 41, Type (0, 0), BuildingBlock: EZIPEK_clean_linker_0, # of connection points: 2
#     Edge 42, Type (0, 0), BuildingBlock: EZIPEK_clean_linker_0, # of connection points: 2
#     Edge 43, Type (0, 0), BuildingBlock: EZIPEK_clean_linker_0, # of connection points: 2
#     Edge 44, Type (0, 0), BuildingBlock: EZIPEK_clean_linker_0, # of connection points: 2
#     Edge 45, Type (0, 0), BuildingBlock: EZIPEK_clean_linker_0, # of connection points: 2
#     Edge 46, Type (0, 0), BuildingBlock: EZIPEK_clean_linker_0, # of connection points: 2
#     Edge 47, Type (0, 0), BuildingBlock: EZIPEK_clean_linker_0, # of connection points: 2
#     Edge 48, Type (0, 0), BuildingBlock: EZIPEK_clean_linker_0, # of connection points: 2
#     Edge 49, Type (0, 0), BuildingBlock: EZIPEK_clean_linker_0, # of connection points: 2
#     Edge 50, Type (0, 0), BuildingBlock: EZIPEK_clean_linker_0, # of connection points: 2
#     Edge 51, Type (0, 0), BuildingBlock: EZIPEK_clean_linker_0, # of connection points: 2
#     Edge 52, Type (0, 0), BuildingBlock: EZIPEK_clean_linker_0, # of connection points: 2
#     Edge 53, Type (0, 0), BuildingBlock: EZIPEK_clean_linker_0, # of connection points: 2
#     Edge 54, Type (0, 0), BuildingBlock: EZIPEK_clean_linker_0, # of connection points: 2
#     Edge 55, Type (0, 0), BuildingBlock: EZIPEK_clean_linker_0, # of connection points: 2
#     Edge 56, Type (0, 0), BuildingBlock: EZIPEK_clean_linker_0, # of connection points: 2
#     Edge 57, Type (0, 0), BuildingBlock: EZIPEK_clean_linker_0, # of connection points: 2
#     Edge 58, Type (0, 0), BuildingBlock: EZIPEK_clean_linker_0, # of connection points: 2
#     Edge 59, Type (0, 0), BuildingBlock: EZIPEK_clean_linker_0, # of connection points: 2
#     Edge 60, Type (0, 0), BuildingBlock: EZIPEK_clean_linker_0, # of connection points: 2
#     Edge 61, Type (0, 0), BuildingBlock: EZIPEK_clean_linker_0, # of connection points: 2
#     Edge 62, Type (0, 0), BuildingBlock: EZIPEK_clean_linker_0, # of connection points: 2
#     Edge 63, Type (0, 0), BuildingBlock: EZIPEK_clean_linker_0, # of connection points: 2
#     Edge 64, Type (0, 0), BuildingBlock: EZIPEK_clean_linker_0, # of connection points: 2
#     Edge 65, Type (0, 0), BuildingBlock: EZIPEK_clean_linker_0, # of connection points: 2
#     Edge 66, Type (0, 0), BuildingBlock: EZIPEK_clean_linker_0, # of connection points: 2
#     Edge 67, Type (0, 0), BuildingBlock: EZIPEK_clean_linker_0, # of connection points: 2
#     Edge 68, Type (0, 0), BuildingBlock: EZIPEK_clean_linker_0, # of connection points: 2
#     Edge 69, Type (0, 0), BuildingBlock: EZIPEK_clean_linker_0, # of connection points: 2
#     Edge 70, Type (0, 0), BuildingBlock: EZIPEK_clean_linker_0, # of connection points: 2
#     Edge 71, Type (0, 0), BuildingBlock: EZIPEK_clean_linker_0, # of connection points: 2
# Relax obj value: 0.144
# Max RMSD: 0.215
# Mean RMSD: 0.215
data_MOF--net-xfb--node1-HICVOG_clean_sbu_0--edge1-EZIPEK_clean_linker_0
_symmetry_space_group_name_H-M    P1
_symmetry_Int_Tables_number       1
_symmetry_cell_setting            triclinic
loop_
_symmetry_equiv_pos_as_xyz
'x, y, z'
_cell_length_a     44.255047
_cell_length_b     44.277152
_cell_length_c     16.403193
_cell_angle_alpha  89.920887
_cell_angle_beta   90.024168
_cell_angle_gamma 89.999102
loop_
_atom_site_label
_atom_site_type_symbol
_atom_site_fract_x
_atom_site_fract_y
_atom_site_fract_z
_atom_type_partial_charge
Zn0 Zn 0.14284 0.18082 0.09938 0.0
C1 C 0.19596 0.22551 0.25159 0.0
N2 N 0.17713 0.24834 0.23295 0.0
C3 C 0.15432 0.23438 0.19531 0.0
N4 N 0.15914 0.20456 0.18816 0.0
N5 N 0.18462 0.19842 0.22737 0.0
C6 C 0.24987 0.13301 0.30152 0.0
O7 O 0.24275 0.11976 0.23256 0.0
O8 O 0.09885 0.1901 0.07937 0.0
Zn9 Zn 0.18906 0.15933 0.28497 0.0
N10 N 0.16727 0.18713 1.00157 0.0
C11 C 0.21688 0.19531 0.94943 0.0
C12 C 0.19713 0.19228 0.01491 0.0
C13 C 0.15636 0.18432 0.92416 0.0
N14 N 0.20618 0.19222 0.87248 0.0
C15 C 0.17648 0.18662 0.85776 0.0
O16 O 0.17445 0.12153 0.22084 0.0
C17 C 0.15601 0.11581 0.16272 0.0
O18 O 0.14391 0.13661 0.12058 0.0
H19 H 0.20546 0.19412 0.07613 0.0
H20 H 0.13266 0.17947 0.91445 0.0
C21 C 0.16988 0.16832 0.45477 0.0
C22 C 0.14805 0.16788 0.51723 0.0
C23 C 0.11063 0.15403 0.42104 0.0
C24 C 0.13238 0.15386 0.35973 0.0
N25 N 0.16144 0.16121 0.37718 0.0
N26 N 0.11897 0.1608 0.49844 0.0
H27 H 0.19326 0.1736 0.46799 0.0
C28 C 0.08155 0.18571 0.1401 0.0
O29 O 0.09432 0.17852 0.20949 0.0
O30 O 0.23123 0.15154 0.33312 0.0
H31 H 0.12638 0.14749 0.29863 0.0
H32 H 0.24064 0.19966 0.95971 0.0
H33 H 0.0874 0.14831 0.4075 0.0
Zn34 Zn 0.58064 0.39216 0.35925 0.0
C35 C 0.5325 0.44722 0.49878 0.0
N36 N 0.50963 0.42889 0.47774 0.0
C37 C 0.52381 0.40541 0.44391 0.0
N38 N 0.55401 0.4092 0.44203 0.0
N39 N 0.5598 0.43504 0.48001 0.0
C40 C 0.62202 0.50058 0.56372 0.0
O41 O 0.63576 0.49362 0.49534 0.0
O42 O 0.57733 0.34715 0.34027 0.0
Zn43 Zn 0.59751 0.43998 0.54359 0.0
N44 N 0.57622 0.41565 0.25923 0.0
C45 C 0.57216 0.46566 0.20631 0.0
C46 C 0.57402 0.44587 0.27203 0.0
C47 C 0.57735 0.40431 0.18203 0.0
N48 N 0.57343 0.45452 0.12954 0.0
C49 C 0.57616 0.42441 0.11535 0.0
O50 O 0.63733 0.42769 0.48565 0.0
C51 C 0.64414 0.40953 0.42808 0.0
O52 O 0.62408 0.39653 0.38576 0.0
H53 H 0.57398 0.45448 0.3331 0.0
H54 H 0.57986 0.38025 0.17265 0.0
C55 C 0.5903 0.4198 0.71263 0.0
C56 C 0.58693 0.39722 0.77245 0.0
C57 C 0.58913 0.35972 0.67 0.0
C58 C 0.59296 0.38206 0.61087 0.0
N59 N 0.59338 0.41157 0.63303 0.0
N60 N 0.58633 0.36778 0.7493 0.0
H61 H 0.59056 0.44345 0.7292 0.0
C62 C 0.57312 0.32815 0.39736 0.0
O63 O 0.56235 0.3374 0.46724 0.0
O64 O 0.60332 0.48186 0.59428 0.0
H65 H 0.59542 0.37617 0.5474 0.0
H66 H 0.57021 0.48973 0.21621 0.0
H67 H 0.58829 0.33613 0.65344 0.0
Zn68 Zn 0.36829 0.82802 0.60351 0.0
C69 C 0.31494 0.77719 0.74083 0.0
N70 N 0.33564 0.75558 0.72683 0.0
C71 C 0.35847 0.77098 0.69308 0.0
N72 N 0.35193 0.80061 0.68506 0.0
N73 N 0.32505 0.80501 0.7188 0.0
C74 C 0.259 0.86973 0.80523 0.0
O75 O 0.26786 0.88618 0.74297 0.0
O76 O 0.41277 0.82297 0.58194 0.0
Zn77 Zn 0.31884 0.84267 0.78382 0.0
N78 N 0.34338 0.82574 0.50519 0.0
C79 C 0.29285 0.82655 0.45484 0.0
C80 C 0.31314 0.82653 0.51969 0.0
C81 C 0.35424 0.82585 0.42729 0.0
N82 N 0.30355 0.82673 0.37744 0.0
C83 C 0.33368 0.82654 0.36156 0.0
O84 O 0.33231 0.88293 0.72883 0.0
C85 C 0.352 0.89079 0.67584 0.0
O86 O 0.36594 0.87149 0.63309 0.0
H87 H 0.30477 0.82755 0.58144 0.0
H88 H 0.37837 0.82611 0.41666 0.0
C89 C 0.3379 0.83683 0.95636 0.0
C90 C 0.36049 0.83483 0.01677 0.0
C91 C 0.39812 0.83762 0.91433 0.0
C92 C 0.37575 0.83968 0.85484 0.0
N93 N 0.3462 0.83912 0.87646 0.0
N94 N 0.39002 0.83526 0.99383 0.0
H95 H 0.31422 0.83672 0.97274 0.0
C96 C 0.43123 0.82088 0.64116 0.0
O97 O 0.42132 0.81279 0.71324 0.0
O98 O 0.27606 0.84845 0.8304 0.0
H99 H 0.3816 0.84186 0.79141 0.0
H100 H 0.26876 0.82695 0.4659 0.0
H101 H 0.42175 0.83798 0.89749 0.0
Zn102 Zn 0.91721 0.57113 0.0343 0.0
C103 C 0.98888 0.60737 0.93492 0.0
N104 N 1.0037 0.58402 0.96789 0.0
C105 C 0.98139 0.56445 0.98476 0.0
N106 N 0.95378 0.57567 0.96483 0.0
N107 N 0.95888 0.60229 0.93033 0.0
C108 C 0.94116 0.68401 0.89017 0.0
O109 O 0.95415 0.67465 0.95727 0.0
O110 O 0.91139 0.52859 0.08118 0.0
Zn111 Zn 0.93081 0.62026 0.85294 0.0
N112 N 0.92411 0.5984 0.12557 0.0
C113 C 0.93617 0.64891 0.16343 0.0
C114 C 0.92928 0.62755 0.10394 0.0
C115 C 0.92464 0.58982 0.20546 0.0
N116 N 0.93681 0.64046 0.24285 0.0
C117 C 0.93106 0.61152 0.26578 0.0
O118 O 0.88789 0.61774 0.88622 0.0
C119 C 0.86848 0.60454 0.93028 0.0
O120 O 0.87624 0.58515 0.98418 0.0
H121 H 0.92808 0.63399 0.04064 0.0
H122 H 0.92026 0.56654 0.22183 0.0
C123 C 0.93329 0.60609 0.67613 0.0
C124 C 0.93143 0.58532 0.61119 0.0
C125 C 0.92528 0.54534 0.70572 0.0
C126 C 0.92645 0.56589 0.76972 0.0
N127 N 0.93104 0.59572 0.75427 0.0
N128 N 0.92768 0.5555 0.62806 0.0
H129 H 0.936 0.63002 0.66466 0.0
C130 C 0.89193 0.51077 0.05022 0.0
O131 O 0.87781 0.51888 0.98331 0.0
O132 O 0.93521 0.6652 0.83373 0.0
H133 H 0.92358 0.55811 0.8317 0.0
H134 H 0.94092 0.67207 0.14685 0.0
H135 H 0.92202 0.52152 0.7176 0.0
Zn136 Zn 0.81811 0.84595 0.7248 0.0
C137 C 0.858 0.77499 0.81618 0.0
N138 N 0.83567 0.75907 0.7818 0.0
C139 C 0.81489 0.78038 0.76533 0.0
N140 N 0.82442 0.80834 0.78791 0.0
N141 N 0.85095 0.80439 0.8235 0.0
C142 C 0.92785 0.82262 0.8737 0.0
O143 O 0.91588 0.82684 0.80151 0.0
O144 O 0.77423 0.85266 0.69116 0.0
Zn145 Zn 0.86652 0.83096 0.90668 0.0
N146 N 0.84319 0.84213 0.62797 0.0
C147 C 0.89406 0.84406 0.58091 0.0
C148 C 0.87309 0.84557 0.64395 0.0
C149 C 0.8332 0.83772 0.55023 0.0
N150 N 0.88422 0.84003 0.50342 0.0
C151 C 0.85434 0.83688 0.48607 0.0
O152 O 0.86741 0.87385 0.87435 0.0
C153 C 0.85404 0.89318 0.83025 0.0
O154 O 0.83405 0.88553 0.77784 0.0
H155 H 0.88036 0.84995 0.70543 0.0
H156 H 0.80927 0.8355 0.5383 0.0
C157 C 0.84834 0.82881 0.07946 0.0
C158 C 0.82662 0.83137 0.14187 0.0
C159 C 0.78821 0.83729 0.04256 0.0
C160 C 0.80978 0.83557 0.98097 0.0
N161 N 0.8393 0.83086 1.00014 0.0
N162 N 0.79712 0.8354 0.12148 0.0
H163 H 0.87207 0.82612 0.09377 0.0
C164 C 0.76806 0.87615 0.64926 0.0
O165 O 0.78993 0.89467 0.62854 0.0
O166 O 0.9099 0.82139 0.93426 0.0
H167 H 0.80304 0.83817 0.91802 0.0
H168 H 0.91794 0.84668 0.59324 0.0
H169 H 0.76463 0.84073 0.02782 0.0
Zn170 Zn 0.41428 0.56688 0.50198 0.0
C171 C 0.48847 0.60632 0.5872 0.0
N172 N 0.50326 0.58338 0.5523 0.0
C173 C 0.48099 0.56351 0.53609 0.0
N174 N 0.45347 0.57451 0.55751 0.0
N175 N 0.45867 0.60081 0.59347 0.0
C176 C 0.43906 0.67825 0.63591 0.0
O177 O 0.43524 0.66474 0.56558 0.0
O178 O 0.4065 0.52265 0.46697 0.0
Zn179 Zn 0.43451 0.6167 0.68214 0.0
N180 N 0.41479 0.59288 0.40618 0.0
C181 C 0.40726 0.64359 0.36179 0.0
C182 C 0.40793 0.62206 0.42361 0.0
C183 C 0.42112 0.58421 0.3283 0.0
N184 N 0.41322 0.63505 0.28415 0.0
C185 C 0.42004 0.60593 0.2654 0.0
O186 O 0.39041 0.61394 0.66158 0.0
C187 C 0.37007 0.60074 0.62043 0.0
O188 O 0.37644 0.58182 0.56418 0.0
H189 H 0.40294 0.62843 0.48544 0.0
H190 H 0.4266 0.56089 0.31537 0.0
C191 C 0.43666 0.6022 0.85809 0.0
C192 C 0.44114 0.58213 0.92389 0.0
C193 C 0.45634 0.54402 0.8317 0.0
C194 C 0.45161 0.56371 0.76681 0.0
N195 N 0.44203 0.59245 0.78054 0.0
N196 N 0.45092 0.55361 0.90863 0.0
H197 H 0.42861 0.62497 0.86835 0.0
C198 C 0.38198 0.5163 0.42947 0.0
O199 O 0.36295 0.53813 0.41204 0.0
O200 O 0.44165 0.66152 0.69876 0.0
H201 H 0.45594 0.55618 0.70586 0.0
H202 H 0.4019 0.66689 0.37532 0.0
H203 H 0.46414 0.52121 0.82096 0.0
Zn204 Zn 0.69129 0.16395 0.21758 0.0
C205 C 0.65246 0.23496 0.31165 0.0
N206 N 0.67491 0.25075 0.27741 0.0
C207 C 0.69546 0.22933 0.26023 0.0
N208 N 0.68571 0.20136 0.28249 0.0
N209 N 0.65921 0.20548 0.31849 0.0
C210 C 0.58002 0.18747 0.36678 0.0
O211 O 0.59173 0.18487 0.29385 0.0
O212 O 0.73391 0.15701 0.17251 0.0
Zn213 Zn 0.6423 0.1786 0.40012 0.0
N214 N 0.66448 0.16794 0.12418 0.0
C215 C 0.61298 0.16698 0.0821 0.0
C216 C 0.63478 0.16514 0.14313 0.0
C217 C 0.67351 0.17176 0.04534 0.0
N218 N 0.62184 0.17065 1.00357 0.0
C219 C 0.65154 0.17302 0.98321 0.0
O220 O 0.64239 0.13587 0.36681 0.0
C221 C 0.65626 0.1166 0.32378 0.0
O222 O 0.67644 0.12428 0.27192 0.0
H223 H 0.62834 0.16092 0.20534 0.0
H224 H 0.69734 0.17311 0.03098 0.0
C225 C 0.65858 0.18041 0.57442 0.0
C226 C 0.67953 0.17723 0.63862 0.0
C227 C 0.71881 0.17019 0.54243 0.0
C228 C 0.69798 0.17252 0.47911 0.0
N229 N 0.66841 0.17804 0.49587 0.0
N230 N 0.70911 0.17237 0.62059 0.0
H231 H 0.63481 0.18384 0.58677 0.0
C232 C 0.75285 0.13973 0.20787 0.0
O233 O 0.74625 0.12872 0.28006 0.0
O234 O 0.59828 0.18757 0.4268 0.0
H235 H 0.70529 0.16976 0.41668 0.0
H236 H 0.58924 0.1649 0.09681 0.0
H237 H 0.74244 0.1661 0.52964 0.0
Zn238 Zn 0.0779 0.3904 0.15014 0.0
C239 C 0.02675 0.44293 0.01146 0.0
N240 N 0.0052 0.42223 0.02632 0.0
C241 C 0.02078 0.39966 0.06088 0.0
N242 N 0.05035 0.40636 0.06867 0.0
N243 N 0.05458 0.43306 0.034 0.0
C244 C 0.11727 0.49899 0.95079 0.0
O245 O 0.13267 0.49027 0.01513 0.0
O246 O 0.07297 0.34606 0.17386 0.0
Zn247 Zn 0.09177 0.4391 0.96819 0.0
N248 N 0.07591 0.41569 0.24745 0.0
C249 C 0.07731 0.46628 0.29676 0.0
C250 C 0.07707 0.44588 0.23229 0.0
C251 C 0.07585 0.405 0.32552 0.0
N252 N 0.07731 0.45574 0.37438 0.0
C253 C 0.07674 0.42565 0.39081 0.0
O254 O 0.13215 0.42628 0.02273 0.0
C255 C 0.14029 0.40691 0.07621 0.0
O256 O 0.12121 0.39293 0.11972 0.0
H257 H 0.07818 0.45407 0.17034 0.0
H258 H 0.07578 0.3809 0.33661 0.0
C259 C 0.0861 0.42035 0.79598 0.0
C260 C 0.08407 0.39796 0.73524 0.0
C261 C 0.08631 0.36005 0.83711 0.0
C262 C 0.08838 0.38223 0.89696 0.0
N263 N 0.08813 0.41183 0.87575 0.0
N264 N 0.08423 0.36839 0.75769 0.0
H265 H 0.08619 0.44407 0.77998 0.0
C266 C 0.07132 0.32726 0.11551 0.0
O267 O 0.06324 0.33665 0.04286 0.0
O268 O 0.09692 0.48165 0.92217 0.0
H269 H 0.09026 0.37622 0.9603 0.0
H270 H 0.07801 0.49033 0.28522 0.0
H271 H 0.08645 0.33639 0.85363 0.0
Zn272 Zn 0.64098 0.68082 0.60551 0.0
C273 C 0.6943 0.73146 0.74448 0.0
N274 N 0.67343 0.75291 0.73008 0.0
C275 C 0.65091 0.73732 0.69548 0.0
N276 N 0.6578 0.70787 0.68699 0.0
N277 N 0.68454 0.70362 0.72164 0.0
C278 C 0.75135 0.64049 0.80533 0.0
O279 O 0.74365 0.62606 0.73861 0.0
O280 O 0.59642 0.68813 0.58251 0.0
Zn281 Zn 0.6906 0.66616 0.78721 0.0
N282 N 0.66622 0.68239 0.50774 0.0
C283 C 0.71684 0.68226 0.4581 0.0
C284 C 0.69645 0.68169 0.52267 0.0
C285 C 0.65549 0.68251 0.4297 0.0
N286 N 0.70627 0.68249 0.38055 0.0
C287 C 0.67616 0.68241 0.36426 0.0
O288 O 0.67698 0.62634 0.7321 0.0
C289 C 0.65696 0.61852 0.68002 0.0
O290 O 0.64269 0.63771 0.6374 0.0
H291 H 0.70471 0.68054 0.58454 0.0
H292 H 0.63138 0.68224 0.41873 0.0
C293 C 0.67136 0.67252 0.95906 0.0
C294 C 0.64884 0.67441 0.01961 0.0
C295 C 0.61112 0.66947 0.91793 0.0
C296 C 0.63344 0.66727 0.8584 0.0
N297 N 0.66301 0.66938 0.87944 0.0
N298 N 0.61929 0.67294 0.99706 0.0
H299 H 0.69507 0.67335 0.97516 0.0
C300 C 0.57862 0.69039 0.64319 0.0
O301 O 0.59085 0.69212 0.71572 0.0
O302 O 0.73331 0.66016 0.83446 0.0
H303 H 0.62748 0.66354 0.79558 0.0
H304 H 0.74092 0.68206 0.46951 0.0
H305 H 0.58749 0.66804 0.90151 0.0
Zn306 Zn 0.07885 0.88913 0.8542 0.0
C307 C 0.02808 0.94363 0.98853 0.0
N308 N 0.00594 0.92389 0.97153 0.0
C309 C 0.02094 0.90083 0.93799 0.0
N310 N 0.05089 0.90628 0.93296 0.0
N311 N 0.0558 0.93281 0.96793 0.0
C312 C 0.11725 0.99882 0.04319 0.0
O313 O 0.12945 0.99082 0.97363 0.0
O314 O 0.07442 0.84433 0.83422 0.0
Zn315 Zn 0.09298 0.93797 0.035 0.0
N316 N 0.07816 0.91426 0.75651 0.0
C317 C 0.08281 0.965 0.70942 0.0
C318 C 0.08197 0.94412 0.77285 0.0
C319 C 0.07646 0.9042 0.67807 0.0
N320 N 0.08096 0.95514 0.63144 0.0
C321 C 0.07804 0.9253 0.61374 0.0
O322 O 0.13378 0.92383 0.98416 0.0
C323 C 0.14144 0.9046 0.92994 0.0
O324 O 0.12188 0.89152 0.88616 0.0
H325 H 0.08451 0.95169 0.83506 0.0
H326 H 0.07446 0.88026 0.66592 0.0
C327 C 0.0861 0.92034 0.20735 0.0
C328 C 0.08075 0.89875 0.26887 0.0
C329 C 0.07787 0.86041 0.16879 0.0
C330 C 0.08367 0.88167 0.10805 0.0
N331 N 0.08718 0.91122 0.12799 0.0
N332 N 0.07664 0.86939 0.24764 0.0
H333 H 0.08923 0.94392 0.22235 0.0
C334 C 0.06917 0.82582 0.89197 0.0
O335 O 0.05707 0.83564 0.95969 0.0
O336 O 0.0991 0.98077 0.07872 0.0
H337 H 0.08517 0.87489 0.04506 0.0
H338 H 0.08543 0.98883 0.722 0.0
H339 H 0.07437 0.83692 0.15372 0.0
Zn340 Zn 0.86714 0.33057 0.09521 0.0
C341 C 0.81473 0.28136 0.24032 0.0
N342 N 0.83572 0.25995 0.22716 0.0
C343 C 0.85804 0.27531 0.19093 0.0
N344 N 0.8508 0.30452 0.17949 0.0
N345 N 0.82423 0.30902 0.21458 0.0
C346 C 0.75903 0.37283 0.29221 0.0
O347 O 0.76579 0.38505 0.22157 0.0
O348 O 0.91072 0.32073 0.06865 0.0
Zn349 Zn 0.81976 0.34695 0.27851 0.0
N350 N 0.84081 0.32986 0.99961 0.0
C351 C 0.79008 0.33341 0.95175 0.0
C352 C 0.81078 0.33246 0.01568 0.0
C353 C 0.8511 0.32899 0.92127 0.0
N354 N 0.80025 0.33274 0.8738 0.0
C355 C 0.83023 0.33074 0.85652 0.0
O356 O 0.83479 0.38627 0.22211 0.0
C357 C 0.85464 0.39345 0.1688 0.0
O358 O 0.86786 0.37377 0.12558 0.0
H359 H 0.80295 0.33403 0.0779 0.0
H360 H 0.87514 0.32775 0.90952 0.0
C361 C 0.83771 0.33947 0.45061 0.0
C362 C 0.85957 0.33835 0.513 0.0
C363 C 0.89821 0.34503 0.4147 0.0
C364 C 0.87651 0.34657 0.35331 0.0
N365 N 0.84682 0.34331 0.37181 0.0
N366 N 0.88927 0.34112 0.4931 0.0
H367 H 0.81388 0.33791 0.46478 0.0
C368 C 0.92892 0.32083 0.12874 0.0
O369 O 0.91729 0.32394 0.20163 0.0
O370 O 0.77755 0.35441 0.32485 0.0
H371 H 0.88304 0.35091 0.29122 0.0
H372 H 0.76613 0.33522 0.96395 0.0
H373 H 0.92195 0.34745 0.40033 0.0
Zn374 Zn 0.417 0.06557 0.52187 0.0
C375 C 0.48786 0.10853 0.43279 0.0
N376 N 0.50408 0.0858 0.46438 0.0
C377 C 0.48294 0.06467 0.47926 0.0
N378 N 0.45475 0.07443 0.45967 0.0
N379 N 0.45831 0.10154 0.42658 0.0
C380 C 0.43686 0.17985 0.38399 0.0
O381 O 0.43595 0.16697 0.45592 0.0
O382 O 0.41117 0.021 0.55643 0.0
Zn383 Zn 0.43106 0.11761 0.34421 0.0
N384 N 0.41861 0.0915 0.61807 0.0
C385 C 0.41411 0.14278 0.66031 0.0
C386 C 0.41406 0.12101 0.59919 0.0
C387 C 0.42292 0.0827 0.697 0.0
N388 N 0.41824 0.13413 0.73883 0.0
C389 C 0.42255 0.10467 0.75921 0.0
O390 O 0.3878 0.11483 0.37462 0.0
C391 C 0.36892 0.09954 0.41557 0.0
O392 O 0.37722 0.07924 0.46634 0.0
H393 H 0.41014 0.12739 0.53671 0.0
H394 H 0.4262 0.05909 0.71137 0.0
C395 C 0.43342 0.10164 0.16839 0.0
C396 C 0.43319 0.0802 0.10477 0.0
C397 C 0.43345 0.04066 0.20212 0.0
C398 C 0.43295 0.06178 0.2648 0.0
N399 N 0.43349 0.09183 0.24736 0.0
N400 N 0.43333 0.05031 0.12374 0.0
H401 H 0.4328 0.1256 0.1553 0.0
C402 C 0.38775 0.01431 0.5984 0.0
O403 O 0.3691 0.03595 0.61992 0.0
O404 O 0.43737 0.1625 0.32205 0.0
H405 H 0.43173 0.05417 0.32719 0.0
H406 H 0.41061 0.16635 0.64555 0.0
H407 H 0.43329 0.01674 0.21563 0.0
Zn408 Zn 0.31431 0.34507 0.23964 0.0
C409 C 0.35448 0.27255 0.33523 0.0
N410 N 0.33132 0.25717 0.30326 0.0
C411 C 0.31148 0.27904 0.28369 0.0
N412 N 0.32258 0.30697 0.30031 0.0
N413 N 0.34913 0.30258 0.33616 0.0
C414 C 0.42743 0.3251 0.37682 0.0
O415 O 0.41713 0.31648 0.30557 0.0
O416 O 0.27046 0.35038 0.19969 0.0
Zn417 Zn 0.36461 0.32966 0.41977 0.0
N418 N 0.34128 0.34322 0.1466 0.0
C419 C 0.39323 0.34584 0.10956 0.0
C420 C 0.37065 0.34632 0.16861 0.0
C421 C 0.33338 0.33917 0.06705 0.0
N422 N 0.38549 0.34231 0.03021 0.0
C423 C 0.35617 0.339 0.00707 0.0
O424 O 0.35989 0.37344 0.39422 0.0
C425 C 0.34579 0.39288 0.35204 0.0
O426 O 0.32677 0.38506 0.29729 0.0
H427 H 0.37616 0.3492 0.2321 0.0
H428 H 0.30988 0.33631 0.05065 0.0
C429 C 0.35182 0.32784 0.59706 0.0
C430 C 0.33202 0.32399 0.66364 0.0
C431 C 0.29242 0.31152 0.57282 0.0
C432 C 0.31188 0.31557 0.50721 0.0
N433 N 0.34118 0.3235 0.51987 0.0
N434 N 0.30288 0.31587 0.64945 0.0
H435 H 0.3751 0.33446 0.60648 0.0
C436 C 0.26398 0.37388 0.15792 0.0
O437 O 0.28553 0.39308 0.13945 0.0
O438 O 0.40948 0.32668 0.43719 0.0
H439 H 0.30369 0.31235 0.44646 0.0
H440 H 0.41672 0.34828 0.1265 0.0
H441 H 0.26912 0.3051 0.56291 0.0
Zn442 Zn 0.91708 0.06967 0.97409 0.0
C443 C 0.98895 0.1076 0.06919 0.0
N444 N 1.00408 0.08478 0.03477 0.0
C445 C 0.98213 0.06468 0.01883 0.0
N446 N 0.95442 0.07514 0.04058 0.0
N447 N 0.95914 0.10171 0.07565 0.0
C448 C 0.94019 0.18238 0.11936 0.0
O449 O 0.95231 0.17322 0.05093 0.0
O450 O 0.91149 0.02725 0.92609 0.0
Zn451 Zn 0.93146 0.1185 0.1559 0.0
N452 N 0.92182 0.09736 0.88262 0.0
C453 C 0.92969 0.14866 0.84415 0.0
C454 C 0.92474 0.12682 0.90398 0.0
C455 C 0.92286 0.08883 0.80278 0.0
N456 N 0.931 0.14023 0.76481 0.0
C457 C 0.92758 0.11091 0.74224 0.0
O458 O 0.88836 0.11545 0.12495 0.0
C459 C 0.86891 0.1019 0.08188 0.0
O460 O 0.87654 0.08269 0.02763 0.0
H461 H 0.92344 0.13308 0.9674 0.0
H462 H 0.92037 0.06526 0.78668 0.0
C463 C 0.93355 0.10445 0.33238 0.0
C464 C 0.93357 0.08378 0.39786 0.0
C465 C 0.93339 0.04312 0.30424 0.0
C466 C 0.93276 0.06351 0.23964 0.0
N467 N 0.93343 0.09373 0.25442 0.0
N468 N 0.93365 0.05368 0.38172 0.0
H469 H 0.93319 0.12855 0.34327 0.0
C470 C 0.89058 0.00995 0.95213 0.0
O471 O 0.87463 0.01838 0.0156 0.0
O472 O 0.93522 0.16341 0.17618 0.0
H473 H 0.93151 0.05525 0.17784 0.0
H474 H 0.93259 0.17213 0.86043 0.0
H475 H 0.93319 0.01906 0.29293 0.0
Zn476 Zn 0.19033 0.66303 0.72563 0.0
C477 C 0.1514 0.73429 0.816 0.0
N478 N 0.1736 0.74993 0.78004 0.0
C479 C 0.19432 0.7285 0.76428 0.0
N480 N 0.18485 0.70071 0.78877 0.0
N481 N 0.15846 0.70493 0.82488 0.0
C482 C 0.0809 0.68782 0.87655 0.0
O483 O 0.0925 0.685 0.80354 0.0
O484 O 0.23347 0.65606 0.68687 0.0
Zn485 Zn 0.14258 0.67844 0.90842 0.0
N486 N 0.1646 0.66721 0.6301 0.0
C487 C 0.11335 0.66883 0.58605 0.0
C488 C 0.1347 0.66581 0.64784 0.0
C489 C 0.17424 0.67043 0.5516 0.0
N490 N 0.12278 0.67222 0.50794 0.0
C491 C 0.15267 0.67296 0.4887 0.0
O492 O 0.14152 0.63553 0.87646 0.0
C493 C 0.15458 0.61608 0.83226 0.0
O494 O 0.17448 0.62351 0.77935 0.0
H495 H 0.12773 0.662 0.70982 0.0
H496 H 0.19818 0.67071 0.53821 0.0
C497 C 0.15992 0.67998 0.08139 0.0
C498 C 0.18136 0.67845 0.14477 0.0
C499 C 0.22058 0.67438 0.04723 0.0
C500 C 0.19933 0.67519 0.98465 0.0
N501 N 0.16952 0.67859 1.0025 0.0
N502 N 0.21114 0.67586 0.12575 0.0
H503 H 0.13602 0.68168 0.09461 0.0
C504 C 0.25118 0.63886 0.72673 0.0
O505 O 0.24236 0.62785 0.79711 0.0
O506 O 0.09917 0.68803 0.93651 0.0
H507 H 0.20655 0.67304 0.922 0.0
H508 H 0.08946 0.66802 0.59987 0.0
H509 H 0.24438 0.67207 0.03357 0.0
Zn510 Zn 0.58164 0.8912 0.64651 0.0
C511 C 0.53053 0.94372 0.50665 0.0
N512 N 0.50894 0.92366 0.52641 0.0
C513 C 0.52473 0.90111 0.56037 0.0
N514 N 0.5544 0.9074 0.56475 0.0
N515 N 0.55849 0.93364 0.52752 0.0
C516 C 0.62135 0.99943 0.44614 0.0
O517 O 0.63703 0.99075 0.51001 0.0
O518 O 0.57205 0.84778 0.67555 0.0
Zn519 Zn 0.5957 0.93963 0.4636 0.0
N520 N 0.58105 0.91745 0.74181 0.0
C521 C 0.58692 0.96804 0.78854 0.0
C522 C 0.58522 0.94724 0.72512 0.0
C523 C 0.57942 0.90742 0.82038 0.0
N524 N 0.5855 0.95814 0.8667 0.0
C525 C 0.582 0.92836 0.88468 0.0
O526 O 0.63524 0.92681 0.52118 0.0
C527 C 0.64371 0.90665 0.57214 0.0
O528 O 0.62505 0.89141 0.6142 0.0
H529 H 0.58755 0.95475 0.66271 0.0
H530 H 0.57713 0.8835 0.83268 0.0
C531 C 0.58899 0.92164 0.29153 0.0
C532 C 0.58855 0.89981 0.22908 0.0
C533 C 0.59581 0.86128 0.32757 0.0
C534 C 0.59674 0.88295 0.38895 0.0
N535 N 0.59299 0.91257 0.37034 0.0
N536 N 0.59194 0.87018 0.24911 0.0
H537 H 0.58678 0.94543 0.27745 0.0
C538 C 0.57363 0.82909 0.61692 0.0
O539 O 0.57879 0.84012 0.54413 0.0
O540 O 0.60089 0.9821 0.41816 0.0
H541 H 0.60105 0.87649 0.45114 0.0
H542 H 0.58998 0.99182 0.7758 0.0
H543 H 0.5987 0.8376 0.34199 0.0
C544 C 0.164 0.15223 0.7412 0.0
C545 C 0.16671 0.18205 0.77206 0.0
C546 C 0.1568 0.20283 0.63553 0.0
C547 C 0.15609 0.17303 0.60391 0.0
N548 N 0.16235 0.11943 0.62268 0.0
N549 N 0.16843 0.23583 0.74956 0.0
C550 C 0.1605 0.14772 0.65578 0.0
C551 C 0.16386 0.2074 0.7194 0.0
N552 N 0.16463 0.12821 0.79375 0.0
N553 N 0.1499 0.22665 0.58568 0.0
H554 H 0.17184 0.24015 0.81141 0.0
H555 H 0.17035 0.25502 0.71327 0.0
H556 H 0.14555 0.22417 0.52352 0.0
H557 H 0.14669 0.24863 0.60628 0.0
H558 H 0.15932 0.10619 0.77696 0.0
H559 H 0.16852 0.13044 0.85614 0.0
H560 H 0.16879 0.10029 0.65521 0.0
H561 H 0.15963 0.11524 0.56054 0.0
C562 C 0.6105 0.40846 0.90795 0.0
C563 C 0.58403 0.40449 0.86025 0.0
C564 C 0.55228 0.41127 0.98159 0.0
C565 C 0.57877 0.41417 0.02972 0.0
N566 N 0.63294 0.41191 0.04288 0.0
N567 N 0.53002 0.39839 0.85075 0.0
C568 C 0.60787 0.41163 0.99403 0.0
C569 C 0.55497 0.40478 0.89691 0.0
N570 N 0.63809 0.40977 0.87048 0.0
N571 N 0.52458 0.41554 0.01676 0.0
H572 H 0.53096 0.39503 0.78785 0.0
H573 H 0.50859 0.39476 0.87488 0.0
H574 H 0.52172 0.41874 0.0793 0.0
H575 H 0.50452 0.41739 0.98403 0.0
H576 H 0.658 0.4159 0.89983 0.0
H577 H 0.64097 0.40656 0.80798 0.0
H578 H 0.65466 0.40708 0.02249 0.0
H579 H 0.63188 0.4149 0.10586 0.0
C580 C 0.34608 0.80163 0.2282 0.0
C581 C 0.3436 0.82841 0.27518 0.0
C582 C 0.34941 0.85928 0.1515 0.0
C583 C 0.35316 0.83252 0.10498 0.0
N584 N 0.35896 0.77846 0.09854 0.0
N585 N 0.34679 0.88257 0.28548 0.0
C586 C 0.35265 0.80373 0.14329 0.0
C587 C 0.34644 0.85722 0.23786 0.0
N588 N 0.34132 0.77422 0.26459 0.0
N589 N 0.34809 0.88661 0.11267 0.0
H590 H 0.34424 0.88188 0.34868 0.0
H591 H 0.35184 0.90407 0.2638 0.0
H592 H 0.35097 0.88904 0.04989 0.0
H593 H 0.34215 0.90671 0.14125 0.0
H594 H 0.33919 0.75404 0.2327 0.0
H595 H 0.33789 0.77179 0.32719 0.0
H596 H 0.36242 0.75719 0.12392 0.0
H597 H 0.36252 0.77899 0.03567 0.0
C598 C 0.95879 0.59076 0.47842 0.0
C599 C 0.93198 0.59484 0.52448 0.0
C600 C 0.90477 0.61054 0.40105 0.0
C601 C 0.93091 0.60412 0.35401 0.0
N602 N 0.98197 0.58559 0.34483 0.0
N603 N 0.8785 0.60505 0.53005 0.0
C604 C 0.95773 0.59349 0.39188 0.0
C605 C 0.90471 0.6039 0.48596 0.0
N606 N 0.98539 0.58497 0.51797 0.0
N607 N 0.88012 0.62345 0.36462 0.0
H608 H 0.87769 0.60128 0.5928 0.0
H609 H 0.85723 0.60783 0.50401 0.0
H610 H 0.8787 0.62727 0.30196 0.0
H611 H 0.86181 0.63211 0.3968 0.0
H612 H 0.00637 0.5846 0.48938 0.0
H613 H 0.98683 0.58287 0.58124 0.0
H614 H 1.00106 0.57467 0.36731 0.0
H615 H 0.98223 0.58808 0.28158 0.0
C616 C 0.83313 0.80541 0.27717 0.0
C617 C 0.83506 0.83211 0.22938 0.0
C618 C 0.8446 0.8621 0.3524 0.0
C619 C 0.84503 0.83517 0.39932 0.0
N620 N 0.84267 0.78091 0.40744 0.0
N621 N 0.84589 0.88532 0.21836 0.0
C622 C 0.84 0.8067 0.36205 0.0
C623 C 0.84175 0.86031 0.26617 0.0
N624 N 0.82419 0.77898 0.24149 0.0
N625 N 0.84605 0.88948 0.39083 0.0
H626 H 0.84322 0.8851 0.15518 0.0
H627 H 0.85417 0.90578 0.24012 0.0
H628 H 0.84819 0.89164 0.4539 0.0
H629 H 0.84261 0.91005 0.36151 0.0
H630 H 0.81897 0.75947 0.274 0.0
H631 H 0.8203 0.77698 0.17897 0.0
H632 H 0.84265 0.75928 0.3827 0.0
H633 H 0.84667 0.78114 0.47013 0.0
C634 C 0.45974 0.59976 0.06004 0.0
C635 C 0.43526 0.5907 0.00977 0.0
C636 C 0.40203 0.58757 0.12937 0.0
C637 C 0.42604 0.59828 0.17893 0.0
N638 N 0.47675 0.61748 0.19246 0.0
N639 N 0.38243 0.57928 0.99278 0.0
C640 C 0.45464 0.6052 0.14448 0.0
C641 C 0.40618 0.58556 0.04343 0.0
N642 N 0.48803 0.60242 0.02716 0.0
N643 N 0.37545 0.57885 0.16486 0.0
H644 H 0.38479 0.57713 0.92978 0.0
H645 H 0.36003 0.57836 0.01179 0.0
H646 H 0.37134 0.58074 0.22725 0.0
H647 H 0.35817 0.56778 0.13395 0.0
H648 H 0.50756 0.60536 0.06157 0.0
H649 H 0.4923 0.60013 0.96491 0.0
H650 H 0.49682 0.6264 0.16988 0.0
H651 H 0.47441 0.6202 0.25533 0.0
C652 C 0.65731 0.14777 0.8478 0.0
C653 C 0.65978 0.17438 0.89553 0.0
C654 C 0.67459 0.20331 0.77402 0.0
C655 C 0.67023 0.1771 0.72559 0.0
N656 N 0.65403 0.12532 0.7132 0.0
N657 N 0.6671 0.22817 0.90455 0.0
C658 C 0.66049 0.14961 0.76162 0.0
C659 C 0.66749 0.20238 0.8588 0.0
N660 N 0.65303 0.12051 0.88548 0.0
N661 N 0.686 0.22893 0.73899 0.0
H662 H 0.66269 0.22818 0.96703 0.0
H663 H 0.66924 0.24978 0.88016 0.0
H664 H 0.68995 0.23088 0.67649 0.0
H665 H 0.6931 0.24769 0.772 0.0
H666 H 0.6543 0.09982 0.85564 0.0
H667 H 0.65064 0.11825 0.94847 0.0
H668 H 0.64354 0.10578 0.73426 0.0
H669 H 0.6571 0.1254 0.65018 0.0
C670 C 0.05142 0.41417 0.52425 0.0
C671 C 0.0783 0.41581 0.47728 0.0
C672 C 0.10893 0.40859 0.60078 0.0
C673 C 0.08202 0.4056 0.64721 0.0
N674 N 0.02777 0.40173 0.65373 0.0
N675 N 0.13236 0.41087 0.46688 0.0
C676 C 0.05327 0.40729 0.60903 0.0
C677 C 0.107 0.41189 0.51449 0.0
N678 N 0.02419 0.41997 0.48796 0.0
N679 N 0.13628 0.40892 0.63965 0.0
H680 H 0.13182 0.41375 0.40377 0.0
H681 H 0.15368 0.405 0.48846 0.0
H682 H 0.13857 0.40584 0.70242 0.0
H683 H 0.15659 0.41425 0.61116 0.0
H684 H 1.00407 0.42272 0.51991 0.0
H685 H 0.02188 0.42365 0.42542 0.0
H686 H 0.00637 0.39915 0.62836 0.0
H687 H 0.02818 0.3979 0.7165 0.0
C688 C 0.66323 0.7049 0.14305 0.0
C689 C 0.6563 0.67645 0.10781 0.0
C690 C 0.66092 0.65204 0.24196 0.0
C691 C 0.66635 0.6807 0.27779 0.0
N692 N 0.66873 0.73482 0.26647 0.0
N693 N 0.64476 0.62351 0.12348 0.0
C694 C 0.66639 0.70727 0.22936 0.0
C695 C 0.65396 0.6502 0.15734 0.0
N696 N 0.66717 0.72952 0.09376 0.0
N697 N 0.66358 0.62647 0.28832 0.0
H698 H 0.64124 0.62073 0.06106 0.0
H699 H 0.63891 0.60453 0.15746 0.0
H700 H 0.66766 0.62691 0.35095 0.0
H701 H 0.66364 0.60472 0.26432 0.0
H702 H 0.67545 0.75018 0.11405 0.0
H703 H 0.664 0.72884 0.03077 0.0
H704 H 0.666 0.75533 0.23632 0.0
H705 H 0.67111 0.73723 0.32944 0.0
C706 C 0.10609 0.90839 0.48924 0.0
C707 C 0.07827 0.91611 0.52688 0.0
C708 C 0.05295 0.91615 0.3936 0.0
C709 C 0.08036 0.90671 0.35665 0.0
N710 N 0.13205 0.89004 0.36882 0.0
N711 N 0.02451 0.92365 0.51877 0.0
C712 C 0.10666 0.90171 0.40443 0.0
C713 C 0.05147 0.91896 0.48005 0.0
N714 N 0.13216 0.9085 0.53411 0.0
N715 N 0.02852 0.92279 0.34575 0.0
H716 H 0.02275 0.92584 0.58193 0.0
H717 H 1.00363 0.92306 0.48964 0.0
H718 H 0.0286 0.92015 0.28256 0.0
H719 H 0.00885 0.93283 0.36745 0.0
H720 H 0.15363 0.90675 0.50873 0.0
H721 H 0.13256 0.9123 0.59685 0.0
H722 H 0.15067 0.88233 0.40158 0.0
H723 H 0.1339 0.88632 0.30623 0.0
C724 C 0.83819 0.30567 0.7208 0.0
C725 C 0.83985 0.33203 0.76983 0.0
C726 C 0.85106 0.36273 0.64871 0.0
C727 C 0.85113 0.33614 0.60045 0.0
N728 N 0.84848 0.28195 0.5901 0.0
N729 N 0.85121 0.38502 0.78389 0.0
C730 C 0.84566 0.30748 0.63636 0.0
C731 C 0.84735 0.36038 0.73472 0.0
N732 N 0.82892 0.27903 0.75489 0.0
N733 N 0.85354 0.39033 0.61169 0.0
H734 H 0.84768 0.38446 0.84672 0.0
H735 H 0.85999 0.40552 0.7638 0.0
H736 H 0.85648 0.39291 0.54896 0.0
H737 H 0.85037 0.41078 0.64164 0.0
H738 H 0.82375 0.25979 0.72131 0.0
H739 H 0.82479 0.27655 0.81717 0.0
H740 H 0.84813 0.26017 0.61396 0.0
H741 H 0.85307 0.28253 0.52773 0.0
C742 C 0.4539 0.10252 0.8869 0.0
C743 C 0.426 0.09682 0.84681 0.0
C744 C 0.40212 0.0852 0.97822 0.0
C745 C 0.43047 0.08882 0.01756 0.0
N746 N 0.48412 0.09744 0.00999 0.0
N747 N 0.37441 0.07943 0.85145 0.0
C748 C 0.45659 0.09665 0.97211 0.0
C749 C 0.40037 0.08712 0.8917 0.0
N750 N 0.4777 0.11392 0.84349 0.0
N751 N 0.37669 0.08086 0.02417 0.0
H752 H 0.37185 0.08157 0.78852 0.0
H753 H 0.3561 0.06887 0.87925 0.0
H754 H 0.37713 0.07944 0.08766 0.0
H755 H 0.35487 0.0812 1.00054 0.0
H756 H 0.49745 0.12198 0.87016 0.0
H757 H 0.47712 0.11684 0.78038 0.0
H758 H 0.50456 0.09956 0.97917 0.0
H759 H 0.48675 0.09416 0.07259 0.0
C760 C 0.35508 0.30658 0.88204 0.0
C761 C 0.34938 0.33496 0.91924 0.0
C762 C 0.33801 0.35729 0.78556 0.0
C763 C 0.34157 0.32844 0.74932 0.0
N764 N 0.35108 0.27506 0.76137 0.0
N765 N 0.33316 0.38682 0.90963 0.0
C766 C 0.3496 0.30293 0.7971 0.0
C767 C 0.34021 0.36021 0.87183 0.0
N768 N 0.36608 0.28322 0.92801 0.0
N769 N 0.333 0.38194 0.73699 0.0
H770 H 0.33553 0.39012 0.97224 0.0
H771 H 0.32313 0.4051 0.88031 0.0
H772 H 0.33088 0.38047 0.67378 0.0
H773 H 0.33315 0.40411 0.7579 0.0
H774 H 0.37416 0.2631 0.9036 0.0
H775 H 0.36864 0.28444 0.99116 0.0
H776 H 0.35313 0.25493 0.79372 0.0
H777 H 0.34876 0.27181 0.69868 0.0
C778 C 0.90336 0.09512 0.52334 0.0
C779 C 0.93194 0.09352 0.48423 0.0
C780 C 0.95752 0.10005 0.61589 0.0
C781 C 0.92896 0.10327 0.65428 0.0
N782 N 0.87485 0.10833 0.64458 0.0
N783 N 0.98608 0.09833 0.48939 0.0
C784 C 0.90189 0.10205 0.60797 0.0
C785 C 0.95901 0.09719 0.52946 0.0
N786 N 0.87765 0.08921 0.47986 0.0
N787 N 0.98312 0.09891 0.66255 0.0
H788 H 0.98791 0.09586 0.42633 0.0
H789 H 0.00643 0.104 0.51721 0.0
H790 H 0.98282 0.10115 0.72587 0.0
H791 H 1.00438 0.09351 0.63977 0.0
H792 H 0.85649 0.08628 0.50639 0.0
H793 H 0.87768 0.08546 0.41707 0.0
H794 H 0.85472 0.11132 0.61273 0.0
H795 H 0.87277 0.11259 0.70687 0.0
C796 C 0.16667 0.64898 0.26899 0.0
C797 C 0.17238 0.67738 0.23185 0.0
C798 C 0.16887 0.70245 0.36509 0.0
C799 C 0.16138 0.6743 0.40139 0.0
N800 N 0.1498 0.6213 0.38833 0.0
N801 N 0.17575 0.73153 0.24048 0.0
C802 C 0.15932 0.64771 0.35336 0.0
C803 C 0.17263 0.70426 0.27886 0.0
N804 N 0.16923 0.62311 0.22397 0.0
N805 N 0.1727 0.72732 0.41337 0.0
H806 H 0.17882 0.73352 0.17763 0.0
H807 H 0.17319 0.75227 0.26939 0.0
H808 H 0.16916 0.72698 0.47622 0.0
H809 H 0.18125 0.74782 0.39254 0.0
H810 H 0.16905 0.60151 0.24904 0.0
H811 H 0.17345 0.62313 0.16141 0.0
H812 H 0.14405 0.6021 0.35523 0.0
H813 H 0.14595 0.61893 0.45075 0.0
C814 C 0.61313 0.90691 0.09294 0.0
C815 C 0.5866 0.9082 0.14145 0.0
C816 C 0.55666 0.92212 0.02087 0.0
C817 C 0.58286 0.91895 0.97163 0.0
N818 N 0.63527 0.90504 0.95761 0.0
N819 N 0.53255 0.91333 0.15196 0.0
C820 C 0.61087 0.91028 0.0068 0.0
C821 C 0.55818 0.91487 0.10554 0.0
N822 N 0.64067 0.90356 0.12984 0.0
N823 N 0.53047 0.93258 0.98674 0.0
H824 H 0.53293 0.90878 0.21437 0.0
H825 H 0.51079 0.91463 0.12815 0.0
H826 H 0.52813 0.93659 0.92434 0.0
H827 H 0.51155 0.93885 0.02037 0.0
H828 H 0.66121 0.90568 0.0995 0.0
H829 H 0.64322 0.90107 0.19273 0.0
H830 H 0.65536 0.89539 0.97792 0.0
H831 H 0.63484 0.9083 0.89465 0.0
C832 C 0.23163 0.25776 0.32675 0.0
C833 C 0.22783 0.23317 0.27247 0.0
C834 C 0.27648 0.24561 0.20855 0.0
C835 C 0.27992 0.27046 0.26223 0.0
N836 N 0.256 0.30568 0.35313 0.0
N837 N 0.25074 0.19867 0.17766 0.0
C838 C 0.25616 0.27812 0.31611 0.0
C839 C 0.25136 0.22571 0.21732 0.0
N840 N 0.21161 0.26121 0.38944 0.0
N841 N 0.29718 0.24176 0.14764 0.0
H842 H 0.23443 0.18238 0.18968 0.0
H843 H 0.2682 0.19068 0.14111 0.0
H844 H 0.31512 0.25678 0.13917 0.0
H845 H 0.29504 0.22589 0.10125 0.0
H846 H 0.21435 0.27694 0.436 0.0
H847 H 0.19394 0.24596 0.39903 0.0
H848 H 0.23812 0.3136 0.38837 0.0
H849 H 0.27196 0.3222 0.33984 0.0
C850 C 0.48142 0.50797 0.56972 0.0
C851 C 0.48915 0.53175 0.51544 0.0
C852 C 0.5331 0.50259 0.46811 0.0
C853 C 0.52538 0.47889 0.5222 0.0
N854 N 0.49751 0.46206 0.63875 0.0
N855 N 0.51724 0.54845 0.39876 0.0
C856 C 0.50112 0.4827 0.57751 0.0
C857 C 0.51351 0.52792 0.46023 0.0
N858 N 0.45447 0.50855 0.61004 0.0
N859 N 0.56016 0.50184 0.42851 0.0
H860 H 0.5024 0.56656 0.39059 0.0
H861 H 0.53277 0.54591 0.35162 0.0
H862 H 0.57628 0.48541 0.44117 0.0
H863 H 0.56835 0.51937 0.39244 0.0
H864 H 0.44642 0.49076 0.64542 0.0
H865 H 0.43833 0.52521 0.60034 0.0
H866 H 0.48218 0.46456 0.68637 0.0
H867 H 0.5123 0.44385 0.64607 0.0
C868 C 0.24168 0.74782 0.82943 0.0
C869 C 0.22643 0.73792 0.75759 0.0
C870 C 0.26813 0.75708 0.67395 0.0
C871 C 0.28266 0.76825 0.74548 0.0
N872 N 0.28233 0.77744 0.88944 0.0
N873 N 0.2226 0.73697 0.61148 0.0
C874 C 0.26911 0.7645 0.82273 0.0
C875 C 0.23898 0.74363 0.67983 0.0
N876 N 0.2299 0.74109 0.9043 0.0
N877 N 0.28272 0.75833 0.60054 0.0
H878 H 0.2018 0.72593 0.61381 0.0
H879 H 0.22863 0.7439 0.55304 0.0
H880 H 0.30334 0.76923 0.59238 0.0
H881 H 0.27531 0.74711 0.54853 0.0
H882 H 0.24115 0.74458 0.95915 0.0
H883 H 0.20935 0.73009 0.91183 0.0
H884 H 0.27241 0.77852 0.94682 0.0
H885 H 0.30262 0.78934 0.88581 0.0
C886 C 0.01332 0.48805 0.92746 0.0
C887 C 0.01786 0.47513 0.00531 0.0
C888 C 0.99523 0.51987 0.07043 0.0
C889 C 0.98906 0.53202 0.99244 0.0
N890 N 0.99053 0.52772 0.8458 0.0
N891 N 0.00964 0.47636 0.15104 0.0
C892 C 0.99753 0.516 0.92064 0.0
C893 C 0.00798 0.49046 0.07693 0.0
N894 N 0.02477 0.47377 0.86035 0.0
N895 N 0.9896 0.53686 0.13832 0.0
H896 H 0.01978 0.45538 0.15943 0.0
H897 H 0.99932 0.4845 0.20361 0.0
H898 H 0.97878 0.55778 0.1357 0.0
H899 H 0.99702 0.53112 0.19654 0.0
H900 H 0.02512 0.483 0.80203 0.0
H901 H 0.03603 0.45313 0.86405 0.0
H902 H 0.99306 0.51614 0.79112 0.0
H903 H 0.98044 0.54876 0.83818 0.0
C904 C 0.77029 0.76461 0.68177 0.0
C905 C 0.78278 0.77097 0.75919 0.0
C906 C 0.73999 0.7451 0.82594 0.0
C907 C 0.72652 0.74066 0.74883 0.0
N908 N 0.72662 0.74931 0.6032 0.0
N909 N 0.77932 0.769 0.90606 0.0
C910 C 0.74113 0.75118 0.67663 0.0
C911 C 0.76748 0.76174 0.83164 0.0
N912 N 0.78677 0.77056 0.61308 0.0
N913 N 0.72666 0.73281 0.89346 0.0
H914 H 0.79993 0.77995 0.9129 0.0
H915 H 0.76808 0.76596 0.96114 0.0
H916 H 0.70636 0.7209 0.89051 0.0
H917 H 0.73646 0.73231 0.95107 0.0
H918 H 0.78078 0.7631 0.55513 0.0
H919 H 0.80764 0.78151 0.61471 0.0
H920 H 0.73412 0.76 0.5504 0.0
H921 H 0.70598 0.73844 0.5957 0.0
C922 C 0.73964 0.24625 0.1767 0.0
C923 C 0.72761 0.23873 0.25392 0.0
C924 C 0.76954 0.2658 0.32121 0.0
C925 C 0.78259 0.2716 0.24419 0.0
N926 N 0.7824 0.26399 0.09826 0.0
N927 N 0.73194 0.23893 0.4006 0.0
C928 C 0.76819 0.261 0.17177 0.0
C929 C 0.74291 0.24777 0.32646 0.0
N930 N 0.72332 0.23997 0.10798 0.0
N931 N 0.78246 0.27812 0.3892 0.0
H932 H 0.71215 0.22653 0.40698 0.0
H933 H 0.74331 0.24191 0.45551 0.0
H934 H 0.80208 0.2911 0.3865 0.0
H935 H 0.77277 0.27762 0.44695 0.0
H936 H 0.72877 0.24818 0.05033 0.0
H937 H 0.70316 0.22775 0.10938 0.0
H938 H 0.77531 0.25324 0.0452 0.0
H939 H 0.80242 0.27596 0.091 0.0
C940 C 1.00101 0.01692 0.08292 0.0
C941 C 0.9905 0.03237 0.01196 0.0
C942 C 0.01081 0.992 0.92584 0.0
C943 C 0.02003 0.97592 0.99703 0.0
N944 N 0.02038 0.9706 0.14282 0.0
N945 N 0.98275 0.03413 0.86737 0.0
C946 C 0.01415 0.98774 0.07544 0.0
C947 C 0.99472 0.01973 0.93376 0.0
N948 N 0.99954 0.03073 0.15734 0.0
N949 N 0.01744 0.98057 0.85053 0.0
H950 H 0.97123 0.05459 0.87201 0.0
H951 H 0.98224 0.02517 0.80883 0.0
H952 H 0.0278 0.9597 0.8422 0.0
H953 H 0.01431 0.9922 0.79608 0.0
H954 H 0.01034 0.02261 0.20932 0.0
H955 H 0.98896 0.05143 0.16652 0.0
H956 H 0.01322 0.97605 0.20142 0.0
H957 H 0.0314 0.94981 0.1394 0.0
C958 C 0.50295 0.01753 0.41389 0.0
C959 C 0.49227 0.03255 0.48521 0.0
C960 C 0.51287 0.99191 0.57011 0.0
C961 C 0.52188 0.97599 0.49858 0.0
N962 N 0.52216 0.9714 0.35266 0.0
N963 N 0.48438 0.03335 0.6298 0.0
C964 C 0.51601 0.98822 0.4205 0.0
C965 C 0.49647 0.01947 0.56295 0.0
N966 N 0.50158 0.03178 0.33997 0.0
N967 N 0.5203 0.98069 0.64513 0.0
H968 H 0.4731 0.05396 0.62606 0.0
H969 H 0.48355 0.02375 0.68767 0.0
H970 H 0.53138 0.96019 0.65291 0.0
H971 H 0.51746 0.99238 0.69953 0.0
H972 H 0.5124 0.02392 0.28781 0.0
H973 H 0.49111 0.05261 0.33147 0.0
H974 H 0.5151 0.97725 0.29418 0.0
H975 H 0.53297 0.95049 0.35553 0.0
C976 C 0.1582 0.03284 0.09692 0.0
C977 C 0.12694 0.0275 0.08285 0.0
C978 C 0.11525 0.077 0.14195 0.0
C979 C 0.14663 0.08418 0.14394 0.0
N980 N 0.19794 0.07004 0.11195 0.0
N981 N 0.07577 0.04618 0.08239 0.0
C982 C 0.16817 0.0623 0.11909 0.0
C983 C 0.10541 0.04993 0.10346 0.0
N984 N 0.17836 0.00954 0.09126 0.0
N985 N 0.09483 0.09585 0.1782 0.0
H986 H 0.06778 0.02705 0.05237 0.0
H987 H 0.05963 0.06315 0.08792 0.0
H988 H 0.10116 0.11556 0.20828 0.0
H989 H 0.07208 0.09048 0.18568 0.0
H990 H 0.20092 0.01141 0.10866 0.0
H991 H 0.17189 0.98748 0.0773 0.0
H992 H 0.21406 0.05603 0.08535 0.0
H993 H 0.20612 0.09148 0.12579 0.0
C994 C 0.68501 0.37098 0.41288 0.0
C995 C 0.67615 0.40176 0.40894 0.0
C996 C 0.72495 0.41398 0.34599 0.0
C997 C 0.73121 0.38261 0.33649 0.0
N998 N 0.71462 0.33092 0.35227 0.0
N999 N 0.68655 0.45249 0.36346 0.0
C1000 C 0.7107 0.36095 0.36838 0.0
C1001 C 0.69592 0.42335 0.37388 0.0
N1002 N 0.66899 0.35138 0.46038 0.0
N1003 N 0.74704 0.43485 0.33116 0.0
H1004 H 0.66557 0.46021 0.38331 0.0
H1005 H 0.69864 0.46834 0.32965 0.0
H1006 H 0.76897 0.42893 0.31429 0.0
H1007 H 0.74457 0.45773 0.34429 0.0
H1008 H 0.67599 0.32931 0.4719 0.0
H1009 H 0.65064 0.35837 0.49551 0.0
H1010 H 0.69862 0.31451 0.36692 0.0
H1011 H 0.73238 0.32263 0.31712 0.0
C1012 C 0.37328 0.94144 0.71944 0.0
C1013 C 0.35887 0.92334 0.65942 0.0
C1014 C 0.36724 0.96343 0.5572 0.0
C1015 C 0.37972 0.98234 0.61848 0.0
N1016 N 0.39082 0.99114 0.76041 0.0
N1017 N 0.33733 0.91899 0.52501 0.0
C1018 C 0.38149 0.97188 0.70042 0.0
C1019 C 0.3546 0.93489 0.57925 0.0
N1020 N 0.38057 0.92909 0.79331 0.0
N1021 N 0.36748 0.97274 0.47766 0.0
H1022 H 0.32708 0.89846 0.53963 0.0
H1023 H 0.33073 0.92728 0.46834 0.0
H1024 H 0.37524 0.99393 0.45943 0.0
H1025 H 0.36204 0.95874 0.42888 0.0
H1026 H 0.39429 0.93979 0.83599 0.0
H1027 H 0.37481 0.90709 0.80981 0.0
H1028 H 0.38916 0.98622 0.82233 0.0
H1029 H 0.39853 0.01296 0.74853 0.0
C1030 C 0.78544 0.6003 0.86409 0.0
C1031 C 0.77955 0.63147 0.84963 0.0
C1032 C 0.82785 0.6437 0.91556 0.0
C1033 C 0.83611 0.61267 0.91523 0.0
N1034 N 0.82357 0.56146 0.87801 0.0
N1035 N 0.79741 0.68301 0.85369 0.0
C1036 C 0.81501 0.59087 0.88733 0.0
C1037 C 0.80121 0.65332 0.87412 0.0
N1038 N 0.76258 0.57969 0.8578 0.0
N1039 N 0.84544 0.66398 0.95644 0.0
H1040 H 0.77888 0.69088 0.82073 0.0
H1041 H 0.81401 0.69937 0.86262 0.0
H1042 H 0.86451 0.65736 0.98936 0.0
H1043 H 0.83927 0.68646 0.96509 0.0
H1044 H 0.76499 0.55713 0.87487 0.0
H1045 H 0.74035 0.58578 0.84452 0.0
H1046 H 0.8101 0.54536 0.84932 0.0
H1047 H 0.84515 0.55373 0.89219 0.0
C1048 C 0.85102 0.97706 0.88681 0.0
C1049 C 0.88189 0.98188 0.90731 0.0
C1050 C 0.89415 0.9326 0.8476 0.0
C1051 C 0.86284 0.92541 0.84308 0.0
N1052 N 0.81109 0.94044 0.86771 0.0
N1053 N 0.93281 0.96238 0.9143 0.0
C1054 C 0.84108 0.94765 0.86415 0.0
C1055 C 0.90359 0.95932 0.88865 0.0
N1056 N 0.83126 1.00077 0.8869 0.0
N1057 N 0.91487 0.91389 0.81206 0.0
H1058 H 0.94047 0.98099 0.94714 0.0
H1059 H 0.94878 0.94519 0.90969 0.0
H1060 H 0.90861 0.89467 0.77938 0.0
H1061 H 0.93776 0.91913 0.8074 0.0
H1062 H 0.80919 0.9991 0.8652 0.0
H1063 H 0.8379 0.02287 0.89976 0.0
H1064 H 0.79485 0.95489 0.89206 0.0
H1065 H 0.80258 0.91922 0.85288 0.0
C1066 C 0.28653 0.59782 0.68055 0.0
C1067 C 0.28058 0.62912 0.69145 0.0
C1068 C 0.33053 0.64103 0.63543 0.0
C1069 C 0.33818 0.60977 0.63657 0.0
N1070 N 0.32438 0.55846 0.66983 0.0
N1071 N 0.29834 0.68062 0.68875 0.0
C1072 C 0.31635 0.5881 0.66103 0.0
C1073 C 0.30287 0.65081 0.67083 0.0
N1074 N 0.26346 0.57739 0.68639 0.0
N1075 N 0.34942 0.66135 0.59876 0.0
H1076 H 0.27866 0.68867 0.71603 0.0
H1077 H 0.31512 0.69698 0.68336 0.0
H1078 H 0.36953 0.65506 0.57049 0.0
H1079 H 0.34377 0.68391 0.58899 0.0
H1080 H 0.26578 0.55469 0.67098 0.0
H1081 H 0.24119 0.58364 0.69862 0.0
H1082 H 0.31038 0.54234 0.69656 0.0
H1083 H 0.34594 0.55034 0.65674 0.0
C1084 C 0.60777 0.0499 0.38313 0.0
C1085 C 0.62982 0.02776 0.40262 0.0
C1086 C 0.67009 0.06266 0.36066 0.0
C1087 C 0.64801 0.08435 0.33779 0.0
N1088 N 0.59588 0.09482 0.30485 0.0
N1089 N 0.68088 0.00978 0.38392 0.0
C1090 C 0.61683 0.07662 0.34154 0.0
C1091 C 0.66066 0.0331 0.38308 0.0
N1092 N 0.57856 0.04641 0.40843 0.0
N1093 N 0.69985 0.07056 0.36644 0.0
H1094 H 0.67463 0.98754 0.39661 0.0
H1095 H 0.70301 0.01193 0.36292 0.0
H1096 H 0.70783 0.09213 0.35339 0.0
H1097 H 0.71622 0.05642 0.39156 0.0
H1098 H 0.56233 0.06334 0.40314 0.0
H1099 H 0.57116 0.02779 0.44178 0.0
H1100 H 0.57311 0.0891 0.29976 0.0
H1101 H 0.60186 0.11407 0.27181 0.0
C1102 C 0.19185 0.38764 0.03351 0.0
C1103 C 0.1729 0.40091 0.09347 0.0
C1104 C 0.21237 0.39279 0.19723 0.0
C1105 C 0.23212 0.38152 0.13622 0.0
N1106 N 0.24246 0.37225 0.99409 0.0
N1107 N 0.16725 0.4217 0.22836 0.0
C1108 C 0.22241 0.3803 0.05359 0.0
C1109 C 0.18379 0.40498 0.1743 0.0
N1110 N 0.18025 0.38055 0.95868 0.0
N1111 N 0.22088 0.39182 0.27736 0.0
H1112 H 0.14674 0.43184 0.21302 0.0
H1113 H 0.17513 0.42812 0.28558 0.0
H1114 H 0.24208 0.3844 0.29658 0.0
H1115 H 0.20618 0.39625 0.32542 0.0
H1116 H 0.19175 0.36764 0.91573 0.0
H1117 H 0.15811 0.38556 0.94158 0.0
H1118 H 0.23792 0.37434 0.93204 0.0
H1119 H 0.26448 0.36527 0.00664 0.0
C1120 C 0.60867 0.55002 0.63364 0.0
C1121 C 0.63075 0.5288 0.60765 0.0
C1122 C 0.67101 0.5653 0.63859 0.0
C1123 C 0.64908 0.58618 0.66674 0.0
N1124 N 0.59801 0.59525 0.71181 0.0
N1125 N 0.68292 0.51292 0.61142 0.0
C1126 C 0.6182 0.57742 0.67106 0.0
C1127 C 0.66194 0.53541 0.61844 0.0
N1128 N 0.57872 0.54495 0.61874 0.0
N1129 N 0.70014 0.57435 0.62588 0.0
H1130 H 0.67707 0.49048 0.60018 0.0
H1131 H 0.70565 0.51588 0.62599 0.0
H1132 H 0.70764 0.59621 0.63751 0.0
H1133 H 0.71617 0.56093 0.59678 0.0
H1134 H 0.56205 0.56126 0.62719 0.0
H1135 H 0.57064 0.52527 0.59197 0.0
H1136 H 0.57578 0.58885 0.72348 0.0
H1137 H 0.60437 0.61512 0.74133 0.0
C1138 C 0.18154 0.86514 0.90999 0.0
C1139 C 0.1738 0.89628 0.91471 0.0
C1140 C 0.22525 0.90884 0.86996 0.0
C1141 C 0.23061 0.87807 0.84951 0.0
N1142 N 0.21156 0.82698 0.84215 0.0
N1143 N 0.18781 0.94806 0.8877 0.0
C1144 C 0.20828 0.8561 0.86821 0.0
C1145 C 0.19563 0.91829 0.89249 0.0
N1146 N 0.16344 0.84418 0.94659 0.0
N1147 N 0.24863 0.929 0.87012 0.0
H1148 H 0.16621 0.95588 0.90084 0.0
H1149 H 0.202 0.96453 0.86329 0.0
H1150 H 0.27089 0.92272 0.85789 0.0
H1151 H 0.24649 0.95103 0.89165 0.0
H1152 H 0.1692 0.82142 0.95141 0.0
H1153 H 0.14438 0.85028 0.98016 0.0
H1154 H 0.19451 0.81085 0.847 0.0
H1155 H 0.23011 0.81959 0.80859 0.0
C1156 C 0.90444 0.45989 0.11253 0.0
C1157 C 0.88279 0.48236 0.09264 0.0
C1158 C 0.84184 0.44755 0.13084 0.0
C1159 C 0.86352 0.42556 0.15439 0.0
N1160 N 0.91536 0.41422 0.18871 0.0
N1161 N 0.83162 0.50054 0.10645 0.0
C1162 C 0.89482 0.43293 0.15219 0.0
C1163 C 0.85171 0.47711 0.10936 0.0
N1164 N 0.93387 0.46334 0.08925 0.0
N1165 N 0.81206 0.4399 0.12359 0.0
H1166 H 0.83811 0.52269 0.09357 0.0
H1167 H 0.80925 0.49858 0.12556 0.0
H1168 H 0.80387 0.41835 0.13606 0.0
H1169 H 0.79594 0.45418 0.09792 0.0
H1170 H 0.94994 0.44626 0.09447 0.0
H1171 H 0.94161 0.48221 0.05754 0.0
H1172 H 0.93814 0.41964 0.19517 0.0
H1173 H 0.90901 0.39475 0.22022 0.0
C1174 C 0.28569 0.09328 0.35389 0.0
C1175 C 0.2785 0.12441 0.34424 0.0
C1176 C 0.327 0.13746 0.40807 0.0
C1177 C 0.33634 0.10679 0.40277 0.0
N1178 N 0.32519 0.05555 0.36236 0.0
N1179 N 0.29388 0.17661 0.3571 0.0
C1180 C 0.31575 0.08459 0.37438 0.0
C1181 C 0.29941 0.14668 0.37095 0.0
N1182 N 0.26355 0.07197 0.34591 0.0
N1183 N 0.34442 0.15774 0.4498 0.0
H1184 H 0.27401 0.18455 0.33099 0.0
H1185 H 0.31 0.19345 0.36571 0.0
H1186 H 0.36435 0.15159 0.47945 0.0
H1187 H 0.33758 0.17977 0.46229 0.0
H1188 H 0.26683 0.04924 0.35978 0.0
H1189 H 0.24102 0.07749 0.33446 0.0
H1190 H 0.3121 0.03939 0.33266 0.0
H1191 H 0.34695 0.04811 0.37594 0.0
C1192 C 0.3657 0.44415 0.30765 0.0
C1193 C 0.35257 0.42547 0.36877 0.0
C1194 C 0.3625 0.46503 0.47126 0.0
C1195 C 0.37355 0.48448 0.40914 0.0
N1196 N 0.38172 0.49438 0.26628 0.0
N1197 N 0.3334 0.42027 0.50557 0.0
C1198 C 0.3738 0.4746 0.32669 0.0
C1199 C 0.34964 0.43654 0.44979 0.0
N1200 N 0.37206 0.43237 0.2326 0.0
N1201 N 0.36439 0.47373 0.55107 0.0
H1202 H 0.32292 0.39982 0.4915 0.0
H1203 H 0.32776 0.42826 0.56325 0.0
H1204 H 0.37248 0.49481 0.56909 0.0
H1205 H 0.36006 0.4593 0.59985 0.0
H1206 H 0.3849 0.44358 0.18885 0.0
H1207 H 0.36658 0.41034 0.21595 0.0
H1208 H 0.37885 0.48983 0.20449 0.0
H1209 H 0.38939 0.51623 0.27793 0.0
C1210 C 0.78753 0.09809 0.16001 0.0
C1211 C 0.78089 0.12952 0.16509 0.0
C1212 C 0.82748 0.14024 0.08925 0.0
C1213 C 0.83662 0.10966 0.09768 0.0
N1214 N 0.82644 0.05975 0.14972 0.0
N1215 N 0.79687 0.18104 0.14244 0.0
C1216 C 0.81683 0.08854 0.13472 0.0
C1217 C 0.80132 0.15079 0.13099 0.0
N1218 N 0.76557 0.07728 0.17675 0.0
N1219 N 0.84372 0.15914 0.04024 0.0
H1220 H 0.77863 0.18976 0.17495 0.0
H1221 H 0.81276 0.19736 0.12644 0.0
H1222 H 0.86247 0.15172 0.0073 0.0
H1223 H 0.83665 0.18091 0.02544 0.0
H1224 H 0.76834 0.05422 0.16678 0.0
H1225 H 0.74349 0.08327 0.19197 0.0
H1226 H 0.81428 0.04444 0.18513 0.0
H1227 H 0.84765 0.05189 0.13214 0.0
C1228 C 0.11423 0.57681 0.84854 0.0
C1229 C 0.14557 0.58395 0.84545 0.0
C1230 C 0.15715 0.53216 0.88858 0.0
C1231 C 0.12619 0.52726 0.90742 0.0
N1232 N 0.07518 0.54656 0.91224 0.0
N1233 N 0.19705 0.56897 0.87385 0.0
C1234 C 0.10457 0.54987 0.88832 0.0
C1235 C 0.16717 0.56167 0.86749 0.0
N1236 N 0.09371 0.59575 0.81285 0.0
N1237 N 0.17695 0.50848 0.88894 0.0
H1238 H 0.20537 0.59049 0.86197 0.0
H1239 H 0.21315 0.55439 0.8984 0.0
H1240 H 0.17026 0.48631 0.90081 0.0
H1241 H 0.19916 0.51031 0.86836 0.0
H1242 H 0.07084 0.59058 0.80708 0.0
H1243 H 0.10012 0.6152 0.78125 0.0
H1244 H 0.05919 0.56371 0.90727 0.0
H1245 H 0.06734 0.52771 0.9439 0.0
C1246 C 0.69556 0.88943 0.52718 0.0
C1247 C 0.67641 0.90149 0.58849 0.0
C1248 C 0.71662 0.89465 0.69054 0.0
C1249 C 0.7363 0.88408 0.62848 0.0
N1250 N 0.74638 0.87571 0.48573 0.0
N1251 N 0.67054 0.92157 0.72407 0.0
C1252 C 0.72636 0.88293 0.54608 0.0
C1253 C 0.68748 0.90572 0.66903 0.0
N1254 N 0.68394 0.88274 0.45209 0.0
N1255 N 0.72577 0.89414 0.7702 0.0
H1256 H 0.64956 0.9309 0.70966 0.0
H1257 H 0.67836 0.92811 0.78124 0.0
H1258 H 0.7475 0.88796 0.78828 0.0
H1259 H 0.71126 0.89793 0.81909 0.0
H1260 H 0.69564 0.87059 0.40792 0.0
H1261 H 0.66168 0.88743 0.43564 0.0
H1262 H 0.74157 0.87793 0.42387 0.0
H1263 H 0.76866 0.86937 0.49728 0.0
C1264 C 0.1346 0.26999 0.09215 0.0
C1265 C 0.12885 0.25148 0.16054 0.0
C1266 C 0.08055 0.27728 0.18205 0.0
C1267 C 0.08896 0.29906 0.12306 0.0
N1268 N 0.12741 0.31907 0.03235 0.0
N1269 N 0.09836 0.23987 0.27843 0.0
C1270 C 0.11659 0.29595 0.07938 0.0
C1271 C 0.10212 0.25539 0.2071 0.0
N1272 N 0.15829 0.26362 0.04174 0.0
N1273 N 0.05215 0.27777 0.21457 0.0
H1274 H 0.11377 0.22373 0.29903 0.0
H1275 H 0.08102 0.24441 0.31954 0.0
H1276 H 0.036 0.29373 0.19725 0.0
H1277 H 0.04388 0.26077 0.25247 0.0
H1278 H 0.16156 0.27428 0.98575 0.0
H1279 H 0.17319 0.24593 0.05309 0.0
H1280 H 0.14896 0.31918 0.00682 0.0
H1281 H 0.11654 0.33972 0.02608 0.0
C1282 C 0.49102 0.38164 0.34026 0.0
C1283 C 0.50664 0.37901 0.41494 0.0
C1284 C 0.47604 0.33475 0.44987 0.0
C1285 C 0.45688 0.34095 0.3828 0.0
N1286 N 0.44274 0.37595 0.27527 0.0
N1287 N 0.51029 0.3563 0.54864 0.0
C1288 C 0.46373 0.36544 0.32943 0.0
C1289 C 0.49837 0.35623 0.47175 0.0
N1290 N 0.50095 0.40137 0.28222 0.0
N1291 N 0.47265 0.3086 0.49314 0.0
H1292 H 0.527 0.37148 0.56695 0.0
H1293 H 0.50236 0.34237 0.59521 0.0
H1294 H 0.4566 0.29228 0.47773 0.0
H1295 H 0.48769 0.30191 0.53864 0.0
H1296 H 0.49229 0.40191 0.22312 0.0
H1297 H 0.51939 0.4155 0.29176 0.0
H1298 H 0.44568 0.3955 0.24074 0.0
H1299 H 0.42079 0.36785 0.27253 0.0
C1300 C 0.42905 0.72418 0.72268 0.0
C1301 C 0.43077 0.71093 0.64452 0.0
C1302 C 0.39376 0.74699 0.5919 0.0
C1303 C 0.38745 0.75602 0.67296 0.0
N1304 N 0.40096 0.75636 0.81548 0.0
N1305 N 0.4292 0.72222 0.50117 0.0
C1306 C 0.40618 0.74603 0.73825 0.0
C1307 C 0.41781 0.72646 0.57756 0.0
N1308 N 0.45007 0.71658 0.7801 0.0
N1309 N 0.37538 0.75601 0.52968 0.0
H1310 H 0.44865 0.7094 0.49126 0.0
H1311 H 0.42202 0.73447 0.45048 0.0
H1312 H 0.35711 0.7704 0.53879 0.0
H1313 H 0.37693 0.74747 0.47068 0.0
H1314 H 0.4515 0.72654 0.83738 0.0
H1315 H 0.4683 0.70252 0.76625 0.0
H1316 H 0.4113 0.74759 0.86732 0.0
H1317 H 0.38536 0.77342 0.82797 0.0
C1318 C 0.03116 0.66938 0.82288 0.0
C1319 C 0.04831 0.68042 0.8894 0.0
C1320 C 0.01611 0.65262 0.98361 0.0
C1321 C 1.00455 0.63602 0.91677 0.0
N1322 N 1.00091 0.62794 0.77198 0.0
N1323 N 0.04661 0.69536 0.02952 0.0
C1324 C 0.0113 0.6447 0.83582 0.0
C1325 C 0.03727 0.67625 0.96935 0.0
N1326 N 0.03359 0.68292 0.74844 0.0
N1327 N 0.00732 0.64402 0.05981 0.0
H1328 H 0.06036 0.71394 0.01664 0.0
H1329 H 0.03856 0.69497 0.08905 0.0
H1330 H 0.01545 0.65327 0.1139 0.0
H1331 H 0.01545 0.65327 0.1139 0.0
H1332 H 0.02019 0.6771 0.69865 0.0
H1333 H 0.0463 0.70257 0.74036 0.0
H1334 H 0.00761 0.63149 0.71186 0.0
H1335 H 0.98747 0.60889 0.78041 0.0
C1336 C 0.93126 0.73159 0.81405 0.0
C1337 C 0.92703 0.71438 0.88592 0.0
C1338 C 0.88555 0.74803 0.9263 0.0
C1339 C 0.88563 0.7603 0.84688 0.0
N1340 N 0.90877 0.76542 0.71475 0.0
N1341 N 0.90031 0.70687 0.01391 0.0
C1342 C 0.90896 0.75302 0.7911 0.0
C1343 C 0.90492 0.72337 0.9445 0.0
N1344 N 0.95659 0.72716 0.76803 0.0
N1345 N 0.86596 0.75915 0.98309 0.0
H1346 H 0.91294 0.68817 0.03036 0.0
H1347 H 0.88232 0.71028 0.05364 0.0
H1348 H 0.85003 0.77559 0.96899 0.0
H1349 H 0.86704 0.75405 0.04499 0.0
H1350 H 0.9624 0.74064 0.71839 0.0
H1351 H 0.97333 0.71174 0.78487 0.0
H1352 H 0.92302 0.75846 0.66793 0.0
H1353 H 0.89331 0.78202 0.69726 0.0
C1354 C 0.51057 0.65564 0.54307 0.0
C1355 C 0.50365 0.63513 0.60726 0.0
C1356 C 0.53198 0.66676 0.70158 0.0
C1357 C 0.54627 0.68096 0.63463 0.0
N1358 N 0.54243 0.69708 0.49541 0.0
N1359 N 0.50974 0.62017 0.74783 0.0
C1360 C 0.53306 0.67823 0.55628 0.0
C1361 C 0.51435 0.6407 0.68713 0.0
N1362 N 0.49605 0.65295 0.46984 0.0
N1363 N 0.53492 0.6783 0.77819 0.0
H1364 H 0.49885 0.59972 0.73757 0.0
H1365 H 0.51947 0.62216 0.80546 0.0
H1366 H 0.54523 0.69915 0.78859 0.0
H1367 H 0.52345 0.66947 0.82836 0.0
H1368 H 0.49883 0.66778 0.42125 0.0
H1369 H 0.47952 0.6366 0.45927 0.0
H1370 H 0.53619 0.69497 0.43457 0.0
H1371 H 0.55649 0.71551 0.50727 0.0
C1372 C 0.60994 0.28798 0.44462 0.0
C1373 C 0.58691 0.2977 0.3895 0.0
C1374 C 0.60185 0.25854 0.29254 0.0
C1375 C 0.62566 0.25008 0.34565 0.0
N1376 N 0.6476 0.25038 0.47942 0.0
N1377 N 0.55477 0.28599 0.27562 0.0
C1378 C 0.62757 0.26229 0.42485 0.0
C1379 C 0.58075 0.28071 0.31833 0.0
N1380 N 0.61735 0.30484 0.51137 0.0
N1381 N 0.6005 0.2466 0.21584 0.0
H1382 H 0.53883 0.30192 0.29443 0.0
H1383 H 0.54767 0.27268 0.22694 0.0
H1384 H 0.61514 0.22962 0.19619 0.0
H1385 H 0.58585 0.2544 0.17079 0.0
H1386 H 0.63575 0.3004 0.54902 0.0
H1387 H 0.60715 0.32511 0.52596 0.0
H1388 H 0.64759 0.25546 0.54139 0.0
H1389 H 0.66273 0.23344 0.46358 0.0
C1390 C 0.99845 0.36426 0.1644 0.0
C1391 C 0.00613 0.37075 0.08242 0.0
C1392 C 0.9733 0.32954 0.03579 0.0
C1393 C 0.96167 0.32756 0.11576 0.0
N1394 N 0.97602 0.32799 0.25712 0.0
N1395 N 0.00533 0.35684 0.94031 0.0
C1396 C 0.97863 0.33989 0.18073 0.0
C1397 C 0.99539 0.35201 0.01815 0.0
N1398 N 0.00781 0.38281 0.22572 0.0
N1399 N 0.96355 0.30944 0.97849 0.0
H1400 H 0.02244 0.37226 0.92668 0.0
H1401 H 0.99663 0.34606 0.88916 0.0
H1402 H 0.94911 0.29165 0.9938 0.0
H1403 H 0.97157 0.30851 0.91899 0.0
H1404 H 1.00024 0.3808 0.28563 0.0
H1405 H 0.02115 0.40174 0.21504 0.0
H1406 H 0.98936 0.3349 0.30602 0.0
H1407 H 0.96335 0.3085 0.26807 0.0
C1408 C 0.59232 0.77881 0.56971 0.0
C1409 C 0.57963 0.79638 0.63281 0.0
C1410 C 0.60279 0.76297 0.73366 0.0
C1411 C 0.62229 0.75203 0.67132 0.0
N1412 N 0.63586 0.74984 0.52894 0.0
N1413 N 0.56051 0.79592 0.76927 0.0
C1414 C 0.61662 0.75927 0.58858 0.0
C1415 C 0.5808 0.78532 0.71359 0.0
N1416 N 0.58107 0.78089 0.49252 0.0
N1417 N 0.60636 0.7528 0.81182 0.0
H1418 H 0.5429 0.81029 0.75201 0.0
H1419 H 0.55938 0.78891 0.8297 0.0
H1420 H 0.6215 0.73559 0.82682 0.0
H1421 H 0.59453 0.76107 0.86176 0.0
H1422 H 0.58829 0.7671 0.44492 0.0
H1423 H 0.56183 0.79371 0.47967 0.0
H1424 H 0.63427 0.757 0.46854 0.0
H1425 H 0.65496 0.737 0.54155 0.0
C1426 C 0.99807 0.8652 0.83618 0.0
C1427 C 0.0054 0.87228 0.918 0.0
C1428 C 0.97214 0.83164 0.96606 0.0
C1429 C 0.9606 0.82929 0.88621 0.0
N1430 N 0.97468 0.82907 0.74475 0.0
N1431 N 1.0024 0.86048 0.06163 0.0
C1432 C 0.97767 0.84119 0.82073 0.0
C1433 C 0.99377 0.85448 0.98327 0.0
N1434 N 0.00832 0.88297 0.77406 0.0
N1435 N 0.96296 0.81138 0.02374 0.0
H1436 H 0.0192 0.87614 0.07581 0.0
H1437 H 0.99241 0.85074 0.1127 0.0
H1438 H 0.94882 0.7933 0.00894 0.0
H1439 H 0.97166 0.81038 0.08262 0.0
H1440 H 1.00113 0.88068 0.7139 0.0
H1441 H 0.02215 0.90161 0.7841 0.0
H1442 H 0.98804 0.83549 0.6954 0.0
H1443 H 0.96151 0.80987 0.73455 0.0
C1444 C 0.90832 0.25195 0.21812 0.0
C1445 C 0.88552 0.25994 0.16134 0.0
C1446 C 0.9036 0.22172 0.06611 0.0
C1447 C 0.92566 0.21256 0.12473 0.0
N1448 N 0.95533 0.22514 0.24273 0.0
N1449 N 0.86665 0.25899 0.02421 0.0
C1450 C 0.93016 0.2299 0.19619 0.0
C1451 C 0.88538 0.24735 0.08238 0.0
N1452 N 0.90814 0.26438 0.29432 0.0
N1453 N 0.8977 0.20447 0.99893 0.0
H1454 H 0.85142 0.27616 0.0369 0.0
H1455 H 0.86801 0.25357 0.96257 0.0
H1456 H 0.90842 0.18428 0.98605 0.0
H1457 H 0.87996 0.20855 0.95874 0.0
H1458 H 0.92193 0.25696 0.34173 0.0
H1459 H 0.8931 0.28144 0.31103 0.0
H1460 H 0.96131 0.23873 0.29192 0.0
H1461 H 0.97182 0.20933 0.22682 0.0
C1462 C 0.53056 0.16802 0.31367 0.0
C1463 C 0.54719 0.18045 0.37923 0.0
C1464 C 0.51173 0.15706 0.47486 0.0
C1465 C 0.50202 0.13769 0.41088 0.0
N1466 N 0.50207 0.12474 0.26814 0.0
N1467 N 0.54548 0.19782 0.51743 0.0
C1468 C 0.51073 0.14363 0.32944 0.0
C1469 C 0.53494 0.17867 0.45879 0.0
N1470 N 0.53345 0.17982 0.23724 0.0
N1471 N 0.49933 0.15386 0.55072 0.0
H1472 H 0.56015 0.21553 0.50311 0.0
H1473 H 0.53877 0.19749 0.57812 0.0
H1474 H 0.4818 0.13869 0.56244 0.0
H1475 H 0.50545 0.16654 0.60135 0.0
H1476 H 0.52037 0.17268 0.18803 0.0
H1477 H 0.54592 0.19944 0.22645 0.0
H1478 H 0.51042 0.12641 0.20889 0.0
H1479 H 0.48841 0.106 0.2784 0.0
C1480 C 0.42456 0.2256 0.29728 0.0
C1481 C 0.42779 0.21241 0.37538 0.0
C1482 C 0.39107 0.24776 0.43208 0.0
C1483 C 0.38379 0.25748 0.35216 0.0
N1484 N 0.39578 0.25917 0.20881 0.0
N1485 N 0.42868 0.22424 0.51857 0.0
C1486 C 0.40175 0.24794 0.28484 0.0
C1487 C 0.41583 0.22788 0.4436 0.0
N1488 N 0.44415 0.21747 0.23687 0.0
N1489 N 0.37295 0.25533 0.49605 0.0
H1490 H 0.44873 0.21214 0.52639 0.0
H1491 H 0.42202 0.23656 0.56959 0.0
H1492 H 0.35368 0.2685 0.48873 0.0
H1493 H 0.37553 0.24629 0.55433 0.0
H1494 H 0.44433 0.22691 0.17878 0.0
H1495 H 0.46244 0.20318 0.24825 0.0
H1496 H 0.40563 0.25117 0.1555 0.0
H1497 H 0.38025 0.27653 0.19881 0.0
C1498 C 0.01556 0.15489 0.02871 0.0
C1499 C 1.00438 0.13592 0.09208 0.0
C1500 C 0.03231 0.16558 0.19223 0.0
C1501 C 0.04881 0.17891 0.12777 0.0
N1502 N 0.04516 0.19934 0.99292 0.0
N1503 N 1.00253 0.12262 0.23462 0.0
C1504 C 0.03684 0.17781 0.04813 0.0
C1505 C 0.0121 0.14165 0.17446 0.0
N1506 N 0.00683 0.14998 0.94987 0.0
N1507 N 0.03581 0.17618 0.26968 0.0
H1508 H 0.989 0.10393 0.22276 0.0
H1509 H 0.01009 0.12392 0.29465 0.0
H1510 H 0.04911 0.19512 0.28194 0.0
H1511 H 0.02283 0.16878 0.31876 0.0
H1512 H 0.01664 0.1606 0.89983 0.0
H1513 H 0.99021 0.13432 0.93419 0.0
H1514 H 0.036 0.20121 0.9347 0.0
H1515 H 0.05885 0.21753 0.0096 0.0
C1516 C 0.0785 0.77841 0.81521 0.0
C1517 C 0.08288 0.79524 0.88752 0.0
C1518 C 0.12415 0.7611 0.92679 0.0
C1519 C 0.124 0.74928 0.84694 0.0
N1520 N 0.10089 0.74528 0.71443 0.0
N1521 N 0.10972 0.80176 0.01584 0.0
C1522 C 0.10074 0.75709 0.79136 0.0
C1523 C 0.10494 0.78575 0.94584 0.0
N1524 N 0.05309 0.78308 0.76961 0.0
N1525 N 0.1437 0.74959 0.98325 0.0
H1526 H 0.09701 0.82019 0.03367 0.0
H1527 H 0.12796 0.79824 0.05476 0.0
H1528 H 0.15977 0.7334 0.96856 0.0
H1529 H 0.14247 0.7542 0.04539 0.0
H1530 H 0.04719 0.76985 0.71963 0.0
H1531 H 0.03636 0.79838 0.78719 0.0
H1532 H 0.08667 0.75268 0.66794 0.0
H1533 H 0.11631 0.7288 0.69613 0.0
C1534 C 0.48063 0.82845 0.57024 0.0
C1535 C 0.46061 0.83658 0.63387 0.0
C1536 C 0.49377 0.87878 0.66952 0.0
C1537 C 0.50952 0.87462 0.5958 0.0
N1538 N 0.51729 0.84648 0.47191 0.0
N1539 N 0.44565 0.87357 0.7356 0.0
C1540 C 0.50321 0.84936 0.54557 0.0
C1541 C 0.46679 0.86242 0.68287 0.0
N1542 N 0.47776 0.80103 0.53301 0.0
N1543 N 0.50371 0.89959 0.72459 0.0
H1544 H 0.42412 0.86458 0.74195 0.0
H1545 H 0.4481 0.89407 0.76601 0.0
H1546 H 0.52304 0.91244 0.71438 0.0
H1547 H 0.49462 0.90175 0.78291 0.0
H1548 H 0.49334 0.79285 0.49086 0.0
H1549 H 0.46136 0.78534 0.5504 0.0
H1550 H 0.51115 0.83041 0.42863 0.0
H1551 H 0.53413 0.86133 0.45247 0.0
loop_
_geom_bond_atom_site_label_1
_geom_bond_atom_site_label_2
_geom_bond_distance
_geom_bond_site_symmetry_2
_ccdc_geom_bond_type
Zn0 N4 2.020 . S
Zn0 O8 2.019 . S
Zn0 N10 2.119 . S
Zn0 O18 1.975 . S
C1 N2 1.334 . S
C1 N5 1.336 . S
N2 C1 1.334 . S
N2 C3 1.334 . S
C3 N2 1.334 . S
C3 N4 1.336 . S
N4 Zn0 2.020 . S
N4 C3 1.336 . S
N4 N5 1.354 . S
N5 C1 1.336 . S
N5 N4 1.354 . S
N5 Zn9 2.020 . S
C6 O7 1.244 . S
C6 O30 1.257 . S
O7 C6 1.244 . S
O8 Zn0 2.019 . S
O8 C28 1.257 . S
Zn9 N5 2.020 . S
Zn9 O16 1.975 . S
Zn9 N25 2.119 . S
Zn9 O30 2.019 . S
N10 Zn0 2.119 . S
N10 C12 1.334 . S
N10 C13 1.328 1_554 S
C11 C12 1.391 1_556 S
C11 N14 1.329 . S
C11 H32 0.930 . S
C12 N10 1.334 . S
C12 C11 1.391 1_554 S
C12 H19 0.930 . S
C13 N10 1.328 1_556 S
C13 C15 1.392 . S
C13 H20 0.930 . S
N14 C11 1.329 . S
N14 C15 1.331 . S
C15 C13 1.392 . S
C15 N14 1.331 . S
O16 Zn9 1.975 . S
O16 C17 1.252 . S
C17 O16 1.252 . S
C17 O18 1.252 . S
O18 Zn0 1.975 . S
O18 C17 1.252 . S
H19 C12 0.930 . S
H20 C13 0.930 . S
C21 C22 1.392 . S
C21 N25 1.328 . S
C21 H27 0.930 . S
C22 C21 1.392 . S
C22 N26 1.331 . S
C23 C24 1.391 . S
C23 N26 1.329 . S
C23 H33 0.930 . S
C24 C23 1.391 . S
C24 N25 1.334 . S
C24 H31 0.930 . S
N25 Zn9 2.119 . S
N25 C21 1.328 . S
N25 C24 1.334 . S
N26 C22 1.331 . S
N26 C23 1.329 . S
H27 C21 0.930 . S
C28 O8 1.257 . S
C28 O29 1.244 . S
O29 C28 1.244 . S
O30 C6 1.257 . S
O30 Zn9 2.019 . S
H31 C24 0.930 . S
H32 C11 0.930 . S
H33 C23 0.930 . S
Zn34 N38 2.020 . S
Zn34 O42 2.019 . S
Zn34 N44 2.119 . S
Zn34 O52 1.975 . S
C35 N36 1.334 . S
C35 N39 1.336 . S
N36 C35 1.334 . S
N36 C37 1.334 . S
C37 N36 1.334 . S
C37 N38 1.336 . S
N38 Zn34 2.020 . S
N38 C37 1.336 . S
N38 N39 1.354 . S
N39 C35 1.336 . S
N39 N38 1.354 . S
N39 Zn43 2.020 . S
C40 O41 1.244 . S
C40 O64 1.257 . S
O41 C40 1.244 . S
O42 Zn34 2.019 . S
O42 C62 1.257 . S
Zn43 N39 2.020 . S
Zn43 O50 1.975 . S
Zn43 N59 2.119 . S
Zn43 O64 2.019 . S
N44 Zn34 2.119 . S
N44 C46 1.334 . S
N44 C47 1.328 . S
C45 C46 1.391 . S
C45 N48 1.329 . S
C45 H66 0.930 . S
C46 N44 1.334 . S
C46 C45 1.391 . S
C46 H53 0.930 . S
C47 N44 1.328 . S
C47 C49 1.392 . S
C47 H54 0.930 . S
N48 C45 1.329 . S
N48 C49 1.331 . S
C49 C47 1.392 . S
C49 N48 1.331 . S
O50 Zn43 1.975 . S
O50 C51 1.252 . S
C51 O50 1.252 . S
C51 O52 1.252 . S
O52 Zn34 1.975 . S
O52 C51 1.252 . S
H53 C46 0.930 . S
H54 C47 0.930 . S
C55 C56 1.392 . S
C55 N59 1.328 . S
C55 H61 0.930 . S
C56 C55 1.392 . S
C56 N60 1.331 . S
C57 C58 1.391 . S
C57 N60 1.329 . S
C57 H67 0.930 . S
C58 C57 1.391 . S
C58 N59 1.334 . S
C58 H65 0.930 . S
N59 Zn43 2.119 . S
N59 C55 1.328 . S
N59 C58 1.334 . S
N60 C56 1.331 . S
N60 C57 1.329 . S
H61 C55 0.930 . S
C62 O42 1.257 . S
C62 O63 1.244 . S
O63 C62 1.244 . S
O64 C40 1.257 . S
O64 Zn43 2.019 . S
H65 C58 0.930 . S
H66 C45 0.930 . S
H67 C57 0.930 . S
Zn68 N72 2.020 . S
Zn68 O76 2.019 . S
Zn68 N78 2.119 . S
Zn68 O86 1.975 . S
C69 N70 1.334 . S
C69 N73 1.336 . S
N70 C69 1.334 . S
N70 C71 1.334 . S
C71 N70 1.334 . S
C71 N72 1.336 . S
N72 Zn68 2.020 . S
N72 C71 1.336 . S
N72 N73 1.354 . S
N73 C69 1.336 . S
N73 N72 1.354 . S
N73 Zn77 2.020 . S
C74 O75 1.244 . S
C74 O98 1.257 . S
O75 C74 1.244 . S
O76 Zn68 2.019 . S
O76 C96 1.257 . S
Zn77 N73 2.020 . S
Zn77 O84 1.975 . S
Zn77 N93 2.119 . S
Zn77 O98 2.019 . S
N78 Zn68 2.119 . S
N78 C80 1.334 . S
N78 C81 1.328 . S
C79 C80 1.391 . S
C79 N82 1.329 . S
C79 H100 0.930 . S
C80 N78 1.334 . S
C80 C79 1.391 . S
C80 H87 0.930 . S
C81 N78 1.328 . S
C81 C83 1.392 . S
C81 H88 0.930 . S
N82 C79 1.329 . S
N82 C83 1.331 . S
C83 C81 1.392 . S
C83 N82 1.331 . S
O84 Zn77 1.975 . S
O84 C85 1.252 . S
C85 O84 1.252 . S
C85 O86 1.252 . S
O86 Zn68 1.975 . S
O86 C85 1.252 . S
H87 C80 0.930 . S
H88 C81 0.930 . S
C89 C90 1.392 1_556 S
C89 N93 1.328 . S
C89 H95 0.930 . S
C90 C89 1.392 1_554 S
C90 N94 1.331 . S
C91 C92 1.391 . S
C91 N94 1.329 1_556 S
C91 H101 0.930 . S
C92 C91 1.391 . S
C92 N93 1.334 . S
C92 H99 0.930 . S
N93 Zn77 2.119 . S
N93 C89 1.328 . S
N93 C92 1.334 . S
N94 C90 1.331 . S
N94 C91 1.329 1_554 S
H95 C89 0.930 . S
C96 O76 1.257 . S
C96 O97 1.244 . S
O97 C96 1.244 . S
O98 C74 1.257 . S
O98 Zn77 2.019 . S
H99 C92 0.930 . S
H100 C79 0.930 . S
H101 C91 0.930 . S
Zn102 N106 2.020 . S
Zn102 O110 2.019 . S
Zn102 N112 2.119 . S
Zn102 O120 1.975 . S
C103 N104 1.334 . S
C103 N107 1.336 . S
N104 C103 1.334 . S
N104 C105 1.334 1_556 S
C105 N104 1.334 1_554 S
C105 N106 1.336 . S
N106 Zn102 2.020 . S
N106 C105 1.336 . S
N106 N107 1.354 1_554 S
N107 C103 1.336 . S
N107 N106 1.354 1_556 S
N107 Zn111 2.020 . S
C108 O109 1.244 . S
C108 O132 1.257 . S
O109 C108 1.244 . S
O110 Zn102 2.019 . S
O110 C130 1.257 . S
Zn111 N107 2.020 . S
Zn111 O118 1.975 . S
Zn111 N127 2.119 . S
Zn111 O132 2.019 . S
N112 Zn102 2.119 . S
N112 C114 1.334 . S
N112 C115 1.328 . S
C113 C114 1.391 . S
C113 N116 1.329 . S
C113 H134 0.930 . S
C114 N112 1.334 . S
C114 C113 1.391 . S
C114 H121 0.930 . S
C115 N112 1.328 . S
C115 C117 1.392 . S
C115 H122 0.930 . S
N116 C113 1.329 . S
N116 C117 1.331 . S
C117 C115 1.392 . S
C117 N116 1.331 . S
O118 Zn111 1.975 . S
O118 C119 1.252 . S
C119 O118 1.252 . S
C119 O120 1.252 1_556 S
O120 Zn102 1.975 . S
O120 C119 1.252 1_554 S
H121 C114 0.930 . S
H122 C115 0.930 . S
C123 C124 1.392 . S
C123 N127 1.328 . S
C123 H129 0.930 . S
C124 C123 1.392 . S
C124 N128 1.331 . S
C125 C126 1.391 . S
C125 N128 1.329 . S
C125 H135 0.930 . S
C126 C125 1.391 . S
C126 N127 1.334 . S
C126 H133 0.930 . S
N127 Zn111 2.119 . S
N127 C123 1.328 . S
N127 C126 1.334 . S
N128 C124 1.331 . S
N128 C125 1.329 . S
H129 C123 0.930 . S
C130 O110 1.257 . S
C130 O131 1.244 . S
O131 C130 1.244 . S
O132 C108 1.257 . S
O132 Zn111 2.019 . S
H133 C126 0.930 . S
H134 C113 0.930 . S
H135 C125 0.930 . S
Zn136 N140 2.020 . S
Zn136 O144 2.019 . S
Zn136 N146 2.119 . S
Zn136 O154 1.975 . S
C137 N138 1.334 . S
C137 N141 1.336 . S
N138 C137 1.334 . S
N138 C139 1.334 . S
C139 N138 1.334 . S
C139 N140 1.336 . S
N140 Zn136 2.020 . S
N140 C139 1.336 . S
N140 N141 1.354 . S
N141 C137 1.336 . S
N141 N140 1.354 . S
N141 Zn145 2.020 . S
C142 O143 1.244 . S
C142 O166 1.257 . S
O143 C142 1.244 . S
O144 Zn136 2.019 . S
O144 C164 1.257 . S
Zn145 N141 2.020 . S
Zn145 O152 1.975 . S
Zn145 N161 2.119 . S
Zn145 O166 2.019 . S
N146 Zn136 2.119 . S
N146 C148 1.334 . S
N146 C149 1.328 . S
C147 C148 1.391 . S
C147 N150 1.329 . S
C147 H168 0.930 . S
C148 N146 1.334 . S
C148 C147 1.391 . S
C148 H155 0.930 . S
C149 N146 1.328 . S
C149 C151 1.392 . S
C149 H156 0.930 . S
N150 C147 1.329 . S
N150 C151 1.331 . S
C151 C149 1.392 . S
C151 N150 1.331 . S
O152 Zn145 1.975 . S
O152 C153 1.252 . S
C153 O152 1.252 . S
C153 O154 1.252 . S
O154 Zn136 1.975 . S
O154 C153 1.252 . S
H155 C148 0.930 . S
H156 C149 0.930 . S
C157 C158 1.392 . S
C157 N161 1.328 1_554 S
C157 H163 0.930 . S
C158 C157 1.392 . S
C158 N162 1.331 . S
C159 C160 1.391 1_554 S
C159 N162 1.329 . S
C159 H169 0.930 . S
C160 C159 1.391 1_556 S
C160 N161 1.334 . S
C160 H167 0.930 . S
N161 Zn145 2.119 . S
N161 C157 1.328 1_556 S
N161 C160 1.334 . S
N162 C158 1.331 . S
N162 C159 1.329 . S
H163 C157 0.930 . S
C164 O144 1.257 . S
C164 O165 1.244 . S
O165 C164 1.244 . S
O166 C142 1.257 . S
O166 Zn145 2.019 . S
H167 C160 0.930 . S
H168 C147 0.930 . S
H169 C159 0.930 . S
Zn170 N174 2.020 . S
Zn170 O178 2.019 . S
Zn170 N180 2.119 . S
Zn170 O188 1.975 . S
C171 N172 1.334 . S
C171 N175 1.336 . S
N172 C171 1.334 . S
N172 C173 1.334 . S
C173 N172 1.334 . S
C173 N174 1.336 . S
N174 Zn170 2.020 . S
N174 C173 1.336 . S
N174 N175 1.354 . S
N175 C171 1.336 . S
N175 N174 1.354 . S
N175 Zn179 2.020 . S
C176 O177 1.244 . S
C176 O200 1.257 . S
O177 C176 1.244 . S
O178 Zn170 2.019 . S
O178 C198 1.257 . S
Zn179 N175 2.020 . S
Zn179 O186 1.975 . S
Zn179 N195 2.119 . S
Zn179 O200 2.019 . S
N180 Zn170 2.119 . S
N180 C182 1.334 . S
N180 C183 1.328 . S
C181 C182 1.391 . S
C181 N184 1.329 . S
C181 H202 0.930 . S
C182 N180 1.334 . S
C182 C181 1.391 . S
C182 H189 0.930 . S
C183 N180 1.328 . S
C183 C185 1.392 . S
C183 H190 0.930 . S
N184 C181 1.329 . S
N184 C185 1.331 . S
C185 C183 1.392 . S
C185 N184 1.331 . S
O186 Zn179 1.975 . S
O186 C187 1.252 . S
C187 O186 1.252 . S
C187 O188 1.252 . S
O188 Zn170 1.975 . S
O188 C187 1.252 . S
H189 C182 0.930 . S
H190 C183 0.930 . S
C191 C192 1.392 . S
C191 N195 1.328 . S
C191 H197 0.930 . S
C192 C191 1.392 . S
C192 N196 1.331 . S
C193 C194 1.391 . S
C193 N196 1.329 . S
C193 H203 0.930 . S
C194 C193 1.391 . S
C194 N195 1.334 . S
C194 H201 0.930 . S
N195 Zn179 2.119 . S
N195 C191 1.328 . S
N195 C194 1.334 . S
N196 C192 1.331 . S
N196 C193 1.329 . S
H197 C191 0.930 . S
C198 O178 1.257 . S
C198 O199 1.244 . S
O199 C198 1.244 . S
O200 C176 1.257 . S
O200 Zn179 2.019 . S
H201 C194 0.930 . S
H202 C181 0.930 . S
H203 C193 0.930 . S
Zn204 N208 2.020 . S
Zn204 O212 2.019 . S
Zn204 N214 2.119 . S
Zn204 O222 1.975 . S
C205 N206 1.334 . S
C205 N209 1.336 . S
N206 C205 1.334 . S
N206 C207 1.334 . S
C207 N206 1.334 . S
C207 N208 1.336 . S
N208 Zn204 2.020 . S
N208 C207 1.336 . S
N208 N209 1.354 . S
N209 C205 1.336 . S
N209 N208 1.354 . S
N209 Zn213 2.020 . S
C210 O211 1.244 . S
C210 O234 1.257 . S
O211 C210 1.244 . S
O212 Zn204 2.019 . S
O212 C232 1.257 . S
Zn213 N209 2.020 . S
Zn213 O220 1.975 . S
Zn213 N229 2.119 . S
Zn213 O234 2.019 . S
N214 Zn204 2.119 . S
N214 C216 1.334 . S
N214 C217 1.328 . S
C215 C216 1.391 . S
C215 N218 1.329 1_554 S
C215 H236 0.930 . S
C216 N214 1.334 . S
C216 C215 1.391 . S
C216 H223 0.930 . S
C217 N214 1.328 . S
C217 C219 1.392 1_554 S
C217 H224 0.930 . S
N218 C215 1.329 1_556 S
N218 C219 1.331 . S
C219 C217 1.392 1_556 S
C219 N218 1.331 . S
O220 Zn213 1.975 . S
O220 C221 1.252 . S
C221 O220 1.252 . S
C221 O222 1.252 . S
O222 Zn204 1.975 . S
O222 C221 1.252 . S
H223 C216 0.930 . S
H224 C217 0.930 . S
C225 C226 1.392 . S
C225 N229 1.328 . S
C225 H231 0.930 . S
C226 C225 1.392 . S
C226 N230 1.331 . S
C227 C228 1.391 . S
C227 N230 1.329 . S
C227 H237 0.930 . S
C228 C227 1.391 . S
C228 N229 1.334 . S
C228 H235 0.930 . S
N229 Zn213 2.119 . S
N229 C225 1.328 . S
N229 C228 1.334 . S
N230 C226 1.331 . S
N230 C227 1.329 . S
H231 C225 0.930 . S
C232 O212 1.257 . S
C232 O233 1.244 . S
O233 C232 1.244 . S
O234 C210 1.257 . S
O234 Zn213 2.019 . S
H235 C228 0.930 . S
H236 C215 0.930 . S
H237 C227 0.930 . S
Zn238 N242 2.020 . S
Zn238 O246 2.019 . S
Zn238 N248 2.119 . S
Zn238 O256 1.975 . S
C239 N240 1.334 1_556 S
C239 N243 1.336 . S
N240 C239 1.334 1_554 S
N240 C241 1.334 . S
C241 N240 1.334 . S
C241 N242 1.336 . S
N242 Zn238 2.020 . S
N242 C241 1.336 . S
N242 N243 1.354 1_554 S
N243 C239 1.336 . S
N243 N242 1.354 1_556 S
N243 Zn247 2.020 . S
C244 O245 1.244 . S
C244 O268 1.257 . S
O245 C244 1.244 . S
O246 Zn238 2.019 . S
O246 C266 1.257 . S
Zn247 N243 2.020 . S
Zn247 O254 1.975 . S
Zn247 N263 2.119 . S
Zn247 O268 2.019 . S
N248 Zn238 2.119 . S
N248 C250 1.334 . S
N248 C251 1.328 . S
C249 C250 1.391 . S
C249 N252 1.329 . S
C249 H270 0.930 . S
C250 N248 1.334 . S
C250 C249 1.391 . S
C250 H257 0.930 . S
C251 N248 1.328 . S
C251 C253 1.392 . S
C251 H258 0.930 . S
N252 C249 1.329 . S
N252 C253 1.331 . S
C253 C251 1.392 . S
C253 N252 1.331 . S
O254 Zn247 1.975 . S
O254 C255 1.252 1_556 S
C255 O254 1.252 1_554 S
C255 O256 1.252 . S
O256 Zn238 1.975 . S
O256 C255 1.252 . S
H257 C250 0.930 . S
H258 C251 0.930 . S
C259 C260 1.392 . S
C259 N263 1.328 . S
C259 H265 0.930 . S
C260 C259 1.392 . S
C260 N264 1.331 . S
C261 C262 1.391 . S
C261 N264 1.329 . S
C261 H271 0.930 . S
C262 C261 1.391 . S
C262 N263 1.334 . S
C262 H269 0.930 . S
N263 Zn247 2.119 . S
N263 C259 1.328 . S
N263 C262 1.334 . S
N264 C260 1.331 . S
N264 C261 1.329 . S
H265 C259 0.930 . S
C266 O246 1.257 . S
C266 O267 1.244 . S
O267 C266 1.244 . S
O268 C244 1.257 . S
O268 Zn247 2.019 . S
H269 C262 0.930 . S
H270 C249 0.930 . S
H271 C261 0.930 . S
Zn272 N276 2.020 . S
Zn272 O280 2.019 . S
Zn272 N282 2.119 . S
Zn272 O290 1.975 . S
C273 N274 1.334 . S
C273 N277 1.336 . S
N274 C273 1.334 . S
N274 C275 1.334 . S
C275 N274 1.334 . S
C275 N276 1.336 . S
N276 Zn272 2.020 . S
N276 C275 1.336 . S
N276 N277 1.354 . S
N277 C273 1.336 . S
N277 N276 1.354 . S
N277 Zn281 2.020 . S
C278 O279 1.244 . S
C278 O302 1.257 . S
O279 C278 1.244 . S
O280 Zn272 2.019 . S
O280 C300 1.257 . S
Zn281 N277 2.020 . S
Zn281 O288 1.975 . S
Zn281 N297 2.119 . S
Zn281 O302 2.019 . S
N282 Zn272 2.119 . S
N282 C284 1.334 . S
N282 C285 1.328 . S
C283 C284 1.391 . S
C283 N286 1.329 . S
C283 H304 0.930 . S
C284 N282 1.334 . S
C284 C283 1.391 . S
C284 H291 0.930 . S
C285 N282 1.328 . S
C285 C287 1.392 . S
C285 H292 0.930 . S
N286 C283 1.329 . S
N286 C287 1.331 . S
C287 C285 1.392 . S
C287 N286 1.331 . S
O288 Zn281 1.975 . S
O288 C289 1.252 . S
C289 O288 1.252 . S
C289 O290 1.252 . S
O290 Zn272 1.975 . S
O290 C289 1.252 . S
H291 C284 0.930 . S
H292 C285 0.930 . S
C293 C294 1.392 1_556 S
C293 N297 1.328 . S
C293 H299 0.930 . S
C294 C293 1.392 1_554 S
C294 N298 1.331 . S
C295 C296 1.391 . S
C295 N298 1.329 1_556 S
C295 H305 0.930 . S
C296 C295 1.391 . S
C296 N297 1.334 . S
C296 H303 0.930 . S
N297 Zn281 2.119 . S
N297 C293 1.328 . S
N297 C296 1.334 . S
N298 C294 1.331 . S
N298 C295 1.329 1_554 S
H299 C293 0.930 . S
C300 O280 1.257 . S
C300 O301 1.244 . S
O301 C300 1.244 . S
O302 C278 1.257 . S
O302 Zn281 2.019 . S
H303 C296 0.930 . S
H304 C283 0.930 . S
H305 C295 0.930 . S
Zn306 N310 2.020 . S
Zn306 O314 2.019 . S
Zn306 N316 2.119 . S
Zn306 O324 1.975 . S
C307 N308 1.334 1_554 S
C307 N311 1.336 . S
N308 C307 1.334 1_556 S
N308 C309 1.334 . S
C309 N308 1.334 . S
C309 N310 1.336 . S
N310 Zn306 2.020 . S
N310 C309 1.336 . S
N310 N311 1.354 1_556 S
N311 C307 1.336 . S
N311 N310 1.354 1_554 S
N311 Zn315 2.020 . S
C312 O313 1.244 . S
C312 O336 1.257 . S
O313 C312 1.244 . S
O314 Zn306 2.019 . S
O314 C334 1.257 . S
Zn315 N311 2.020 . S
Zn315 O322 1.975 . S
Zn315 N331 2.119 . S
Zn315 O336 2.019 . S
N316 Zn306 2.119 . S
N316 C318 1.334 . S
N316 C319 1.328 . S
C317 C318 1.391 . S
C317 N320 1.329 . S
C317 H338 0.930 . S
C318 N316 1.334 . S
C318 C317 1.391 . S
C318 H325 0.930 . S
C319 N316 1.328 . S
C319 C321 1.392 . S
C319 H326 0.930 . S
N320 C317 1.329 . S
N320 C321 1.331 . S
C321 C319 1.392 . S
C321 N320 1.331 . S
O322 Zn315 1.975 . S
O322 C323 1.252 1_554 S
C323 O322 1.252 1_556 S
C323 O324 1.252 . S
O324 Zn306 1.975 . S
O324 C323 1.252 . S
H325 C318 0.930 . S
H326 C319 0.930 . S
C327 C328 1.392 . S
C327 N331 1.328 . S
C327 H333 0.930 . S
C328 C327 1.392 . S
C328 N332 1.331 . S
C329 C330 1.391 . S
C329 N332 1.329 . S
C329 H339 0.930 . S
C330 C329 1.391 . S
C330 N331 1.334 . S
C330 H337 0.930 . S
N331 Zn315 2.119 . S
N331 C327 1.328 . S
N331 C330 1.334 . S
N332 C328 1.331 . S
N332 C329 1.329 . S
H333 C327 0.930 . S
C334 O314 1.257 . S
C334 O335 1.244 . S
O335 C334 1.244 . S
O336 C312 1.257 . S
O336 Zn315 2.019 . S
H337 C330 0.930 . S
H338 C317 0.930 . S
H339 C329 0.930 . S
Zn340 N344 2.020 . S
Zn340 O348 2.019 . S
Zn340 N350 2.119 . S
Zn340 O358 1.975 . S
C341 N342 1.334 . S
C341 N345 1.336 . S
N342 C341 1.334 . S
N342 C343 1.334 . S
C343 N342 1.334 . S
C343 N344 1.336 . S
N344 Zn340 2.020 . S
N344 C343 1.336 . S
N344 N345 1.354 . S
N345 C341 1.336 . S
N345 N344 1.354 . S
N345 Zn349 2.020 . S
C346 O347 1.244 . S
C346 O370 1.257 . S
O347 C346 1.244 . S
O348 Zn340 2.019 . S
O348 C368 1.257 . S
Zn349 N345 2.020 . S
Zn349 O356 1.975 . S
Zn349 N365 2.119 . S
Zn349 O370 2.019 . S
N350 Zn340 2.119 . S
N350 C352 1.334 . S
N350 C353 1.328 1_554 S
C351 C352 1.391 1_556 S
C351 N354 1.329 . S
C351 H372 0.930 . S
C352 N350 1.334 . S
C352 C351 1.391 1_554 S
C352 H359 0.930 . S
C353 N350 1.328 1_556 S
C353 C355 1.392 . S
C353 H360 0.930 . S
N354 C351 1.329 . S
N354 C355 1.331 . S
C355 C353 1.392 . S
C355 N354 1.331 . S
O356 Zn349 1.975 . S
O356 C357 1.252 . S
C357 O356 1.252 . S
C357 O358 1.252 . S
O358 Zn340 1.975 . S
O358 C357 1.252 . S
H359 C352 0.930 . S
H360 C353 0.930 . S
C361 C362 1.392 . S
C361 N365 1.328 . S
C361 H367 0.930 . S
C362 C361 1.392 . S
C362 N366 1.331 . S
C363 C364 1.391 . S
C363 N366 1.329 . S
C363 H373 0.930 . S
C364 C363 1.391 . S
C364 N365 1.334 . S
C364 H371 0.930 . S
N365 Zn349 2.119 . S
N365 C361 1.328 . S
N365 C364 1.334 . S
N366 C362 1.331 . S
N366 C363 1.329 . S
H367 C361 0.930 . S
C368 O348 1.257 . S
C368 O369 1.244 . S
O369 C368 1.244 . S
O370 C346 1.257 . S
O370 Zn349 2.019 . S
H371 C364 0.930 . S
H372 C351 0.930 . S
H373 C363 0.930 . S
Zn374 N378 2.020 . S
Zn374 O382 2.019 . S
Zn374 N384 2.119 . S
Zn374 O392 1.975 . S
C375 N376 1.334 . S
C375 N379 1.336 . S
N376 C375 1.334 . S
N376 C377 1.334 . S
C377 N376 1.334 . S
C377 N378 1.336 . S
N378 Zn374 2.020 . S
N378 C377 1.336 . S
N378 N379 1.354 . S
N379 C375 1.336 . S
N379 N378 1.354 . S
N379 Zn383 2.020 . S
C380 O381 1.244 . S
C380 O404 1.257 . S
O381 C380 1.244 . S
O382 Zn374 2.019 . S
O382 C402 1.257 . S
Zn383 N379 2.020 . S
Zn383 O390 1.975 . S
Zn383 N399 2.119 . S
Zn383 O404 2.019 . S
N384 Zn374 2.119 . S
N384 C386 1.334 . S
N384 C387 1.328 . S
C385 C386 1.391 . S
C385 N388 1.329 . S
C385 H406 0.930 . S
C386 N384 1.334 . S
C386 C385 1.391 . S
C386 H393 0.930 . S
C387 N384 1.328 . S
C387 C389 1.392 . S
C387 H394 0.930 . S
N388 C385 1.329 . S
N388 C389 1.331 . S
C389 C387 1.392 . S
C389 N388 1.331 . S
O390 Zn383 1.975 . S
O390 C391 1.252 . S
C391 O390 1.252 . S
C391 O392 1.252 . S
O392 Zn374 1.975 . S
O392 C391 1.252 . S
H393 C386 0.930 . S
H394 C387 0.930 . S
C395 C396 1.392 . S
C395 N399 1.328 . S
C395 H401 0.930 . S
C396 C395 1.392 . S
C396 N400 1.331 . S
C397 C398 1.391 . S
C397 N400 1.329 . S
C397 H407 0.930 . S
C398 C397 1.391 . S
C398 N399 1.334 . S
C398 H405 0.930 . S
N399 Zn383 2.119 . S
N399 C395 1.328 . S
N399 C398 1.334 . S
N400 C396 1.331 . S
N400 C397 1.329 . S
H401 C395 0.930 . S
C402 O382 1.257 . S
C402 O403 1.244 . S
O403 C402 1.244 . S
O404 C380 1.257 . S
O404 Zn383 2.019 . S
H405 C398 0.930 . S
H406 C385 0.930 . S
H407 C397 0.930 . S
Zn408 N412 2.020 . S
Zn408 O416 2.019 . S
Zn408 N418 2.119 . S
Zn408 O426 1.975 . S
C409 N410 1.334 . S
C409 N413 1.336 . S
N410 C409 1.334 . S
N410 C411 1.334 . S
C411 N410 1.334 . S
C411 N412 1.336 . S
N412 Zn408 2.020 . S
N412 C411 1.336 . S
N412 N413 1.354 . S
N413 C409 1.336 . S
N413 N412 1.354 . S
N413 Zn417 2.020 . S
C414 O415 1.244 . S
C414 O438 1.257 . S
O415 C414 1.244 . S
O416 Zn408 2.019 . S
O416 C436 1.257 . S
Zn417 N413 2.020 . S
Zn417 O424 1.975 . S
Zn417 N433 2.119 . S
Zn417 O438 2.019 . S
N418 Zn408 2.119 . S
N418 C420 1.334 . S
N418 C421 1.328 . S
C419 C420 1.391 . S
C419 N422 1.329 1_554 S
C419 H440 0.930 . S
C420 N418 1.334 . S
C420 C419 1.391 . S
C420 H427 0.930 . S
C421 N418 1.328 . S
C421 C423 1.392 1_554 S
C421 H428 0.930 . S
N422 C419 1.329 1_556 S
N422 C423 1.331 . S
C423 C421 1.392 1_556 S
C423 N422 1.331 . S
O424 Zn417 1.975 . S
O424 C425 1.252 . S
C425 O424 1.252 . S
C425 O426 1.252 . S
O426 Zn408 1.975 . S
O426 C425 1.252 . S
H427 C420 0.930 . S
H428 C421 0.930 . S
C429 C430 1.392 . S
C429 N433 1.328 . S
C429 H435 0.930 . S
C430 C429 1.392 . S
C430 N434 1.331 . S
C431 C432 1.391 . S
C431 N434 1.329 . S
C431 H441 0.930 . S
C432 C431 1.391 . S
C432 N433 1.334 . S
C432 H439 0.930 . S
N433 Zn417 2.119 . S
N433 C429 1.328 . S
N433 C432 1.334 . S
N434 C430 1.331 . S
N434 C431 1.329 . S
H435 C429 0.930 . S
C436 O416 1.257 . S
C436 O437 1.244 . S
O437 C436 1.244 . S
O438 C414 1.257 . S
O438 Zn417 2.019 . S
H439 C432 0.930 . S
H440 C419 0.930 . S
H441 C431 0.930 . S
Zn442 N446 2.020 . S
Zn442 O450 2.019 . S
Zn442 N452 2.119 . S
Zn442 O460 1.975 . S
C443 N444 1.334 . S
C443 N447 1.336 . S
N444 C443 1.334 . S
N444 C445 1.334 1_554 S
C445 N444 1.334 1_556 S
C445 N446 1.336 . S
N446 Zn442 2.020 . S
N446 C445 1.336 . S
N446 N447 1.354 1_556 S
N447 C443 1.336 . S
N447 N446 1.354 1_554 S
N447 Zn451 2.020 . S
C448 O449 1.244 . S
C448 O472 1.257 . S
O449 C448 1.244 . S
O450 Zn442 2.019 . S
O450 C470 1.257 . S
Zn451 N447 2.020 . S
Zn451 O458 1.975 . S
Zn451 N467 2.119 . S
Zn451 O472 2.019 . S
N452 Zn442 2.119 . S
N452 C454 1.334 . S
N452 C455 1.328 . S
C453 C454 1.391 . S
C453 N456 1.329 . S
C453 H474 0.930 . S
C454 N452 1.334 . S
C454 C453 1.391 . S
C454 H461 0.930 . S
C455 N452 1.328 . S
C455 C457 1.392 . S
C455 H462 0.930 . S
N456 C453 1.329 . S
N456 C457 1.331 . S
C457 C455 1.392 . S
C457 N456 1.331 . S
O458 Zn451 1.975 . S
O458 C459 1.252 . S
C459 O458 1.252 . S
C459 O460 1.252 1_554 S
O460 Zn442 1.975 . S
O460 C459 1.252 1_556 S
H461 C454 0.930 . S
H462 C455 0.930 . S
C463 C464 1.392 . S
C463 N467 1.328 . S
C463 H469 0.930 . S
C464 C463 1.392 . S
C464 N468 1.331 . S
C465 C466 1.391 . S
C465 N468 1.329 . S
C465 H475 0.930 . S
C466 C465 1.391 . S
C466 N467 1.334 . S
C466 H473 0.930 . S
N467 Zn451 2.119 . S
N467 C463 1.328 . S
N467 C466 1.334 . S
N468 C464 1.331 . S
N468 C465 1.329 . S
H469 C463 0.930 . S
C470 O450 1.257 . S
C470 O471 1.244 . S
O471 C470 1.244 . S
O472 C448 1.257 . S
O472 Zn451 2.019 . S
H473 C466 0.930 . S
H474 C453 0.930 . S
H475 C465 0.930 . S
Zn476 N480 2.020 . S
Zn476 O484 2.019 . S
Zn476 N486 2.119 . S
Zn476 O494 1.975 . S
C477 N478 1.334 . S
C477 N481 1.336 . S
N478 C477 1.334 . S
N478 C479 1.334 . S
C479 N478 1.334 . S
C479 N480 1.336 . S
N480 Zn476 2.020 . S
N480 C479 1.336 . S
N480 N481 1.354 . S
N481 C477 1.336 . S
N481 N480 1.354 . S
N481 Zn485 2.020 . S
C482 O483 1.244 . S
C482 O506 1.257 . S
O483 C482 1.244 . S
O484 Zn476 2.019 . S
O484 C504 1.257 . S
Zn485 N481 2.020 . S
Zn485 O492 1.975 . S
Zn485 N501 2.119 . S
Zn485 O506 2.019 . S
N486 Zn476 2.119 . S
N486 C488 1.334 . S
N486 C489 1.328 . S
C487 C488 1.391 . S
C487 N490 1.329 . S
C487 H508 0.930 . S
C488 N486 1.334 . S
C488 C487 1.391 . S
C488 H495 0.930 . S
C489 N486 1.328 . S
C489 C491 1.392 . S
C489 H496 0.930 . S
N490 C487 1.329 . S
N490 C491 1.331 . S
C491 C489 1.392 . S
C491 N490 1.331 . S
O492 Zn485 1.975 . S
O492 C493 1.252 . S
C493 O492 1.252 . S
C493 O494 1.252 . S
O494 Zn476 1.975 . S
O494 C493 1.252 . S
H495 C488 0.930 . S
H496 C489 0.930 . S
C497 C498 1.392 . S
C497 N501 1.328 1_554 S
C497 H503 0.930 . S
C498 C497 1.392 . S
C498 N502 1.331 . S
C499 C500 1.391 1_554 S
C499 N502 1.329 . S
C499 H509 0.930 . S
C500 C499 1.391 1_556 S
C500 N501 1.334 . S
C500 H507 0.930 . S
N501 Zn485 2.119 . S
N501 C497 1.328 1_556 S
N501 C500 1.334 . S
N502 C498 1.331 . S
N502 C499 1.329 . S
H503 C497 0.930 . S
C504 O484 1.257 . S
C504 O505 1.244 . S
O505 C504 1.244 . S
O506 C482 1.257 . S
O506 Zn485 2.019 . S
H507 C500 0.930 . S
H508 C487 0.930 . S
H509 C499 0.930 . S
Zn510 N514 2.020 . S
Zn510 O518 2.019 . S
Zn510 N520 2.119 . S
Zn510 O528 1.975 . S
C511 N512 1.334 . S
C511 N515 1.336 . S
N512 C511 1.334 . S
N512 C513 1.334 . S
C513 N512 1.334 . S
C513 N514 1.336 . S
N514 Zn510 2.020 . S
N514 C513 1.336 . S
N514 N515 1.354 . S
N515 C511 1.336 . S
N515 N514 1.354 . S
N515 Zn519 2.020 . S
C516 O517 1.244 . S
C516 O540 1.257 . S
O517 C516 1.244 . S
O518 Zn510 2.019 . S
O518 C538 1.257 . S
Zn519 N515 2.020 . S
Zn519 O526 1.975 . S
Zn519 N535 2.119 . S
Zn519 O540 2.019 . S
N520 Zn510 2.119 . S
N520 C522 1.334 . S
N520 C523 1.328 . S
C521 C522 1.391 . S
C521 N524 1.329 . S
C521 H542 0.930 . S
C522 N520 1.334 . S
C522 C521 1.391 . S
C522 H529 0.930 . S
C523 N520 1.328 . S
C523 C525 1.392 . S
C523 H530 0.930 . S
N524 C521 1.329 . S
N524 C525 1.331 . S
C525 C523 1.392 . S
C525 N524 1.331 . S
O526 Zn519 1.975 . S
O526 C527 1.252 . S
C527 O526 1.252 . S
C527 O528 1.252 . S
O528 Zn510 1.975 . S
O528 C527 1.252 . S
H529 C522 0.930 . S
H530 C523 0.930 . S
C531 C532 1.392 . S
C531 N535 1.328 . S
C531 H537 0.930 . S
C532 C531 1.392 . S
C532 N536 1.331 . S
C533 C534 1.391 . S
C533 N536 1.329 . S
C533 H543 0.930 . S
C534 C533 1.391 . S
C534 N535 1.334 . S
C534 H541 0.930 . S
N535 Zn519 2.119 . S
N535 C531 1.328 . S
N535 C534 1.334 . S
N536 C532 1.331 . S
N536 C533 1.329 . S
H537 C531 0.930 . S
C538 O518 1.257 . S
C538 O539 1.244 . S
O539 C538 1.244 . S
O540 C516 1.257 . S
O540 Zn519 2.019 . S
H541 C534 0.930 . S
H542 C521 0.930 . S
H543 C533 0.930 . S
C544 C545 1.363 . S
C544 C550 1.379 . S
C544 N552 1.356 . S
C545 C544 1.363 . S
C545 C551 1.363 . S
C546 C547 1.363 . S
C546 C551 1.379 . S
C546 N553 1.356 . S
C547 C546 1.363 . S
C547 C550 1.363 . S
N548 C550 1.356 . S
N548 H560 0.984 . S
N548 H561 0.985 . S
N549 C551 1.356 . S
N549 H554 0.984 . S
N549 H555 0.985 . S
C550 C544 1.379 . S
C550 C547 1.363 . S
C550 N548 1.356 . S
C551 C545 1.363 . S
C551 C546 1.379 . S
C551 N549 1.356 . S
N552 C544 1.356 . S
N552 H558 0.984 . S
N552 H559 0.984 . S
N553 C546 1.356 . S
N553 H556 0.984 . S
N553 H557 0.985 . S
H554 N549 0.984 . S
H555 N549 0.985 . S
H556 N553 0.984 . S
H557 N553 0.985 . S
H558 N552 0.984 . S
H559 N552 0.984 . S
H560 N548 0.984 . S
H561 N548 0.985 . S
C562 C563 1.363 . S
C562 C568 1.379 1_556 S
C562 N570 1.356 . S
C563 C562 1.363 . S
C563 C569 1.363 . S
C564 C565 1.363 . S
C564 C569 1.379 1_554 S
C564 N571 1.356 . S
C565 C564 1.363 . S
C565 C568 1.363 . S
N566 C568 1.356 . S
N566 H578 0.984 . S
N566 H579 0.985 . S
N567 C569 1.356 . S
N567 H572 0.984 . S
N567 H573 0.985 . S
C568 C562 1.379 1_554 S
C568 C565 1.363 . S
C568 N566 1.356 . S
C569 C563 1.363 . S
C569 C564 1.379 1_556 S
C569 N567 1.356 . S
N570 C562 1.356 . S
N570 H576 0.984 . S
N570 H577 0.984 . S
N571 C564 1.356 . S
N571 H574 0.984 . S
N571 H575 0.985 . S
H572 N567 0.984 . S
H573 N567 0.985 . S
H574 N571 0.984 . S
H575 N571 0.985 . S
H576 N570 0.984 . S
H577 N570 0.984 . S
H578 N566 0.984 . S
H579 N566 0.985 . S
C580 C581 1.363 . S
C580 C586 1.379 . S
C580 N588 1.356 . S
C581 C580 1.363 . S
C581 C587 1.363 . S
C582 C583 1.363 . S
C582 C587 1.379 . S
C582 N589 1.356 . S
C583 C582 1.363 . S
C583 C586 1.363 . S
N584 C586 1.356 . S
N584 H596 0.984 . S
N584 H597 0.985 . S
N585 C587 1.356 . S
N585 H590 0.984 . S
N585 H591 0.985 . S
C586 C580 1.379 . S
C586 C583 1.363 . S
C586 N584 1.356 . S
C587 C581 1.363 . S
C587 C582 1.379 . S
C587 N585 1.356 . S
N588 C580 1.356 . S
N588 H594 0.984 . S
N588 H595 0.984 . S
N589 C582 1.356 . S
N589 H592 0.984 . S
N589 H593 0.985 . S
H590 N585 0.984 . S
H591 N585 0.985 . S
H592 N589 0.984 . S
H593 N589 0.985 . S
H594 N588 0.984 . S
H595 N588 0.984 . S
H596 N584 0.984 . S
H597 N584 0.985 . S
C598 C599 1.363 . S
C598 C604 1.379 . S
C598 N606 1.356 . S
C599 C598 1.363 . S
C599 C605 1.363 . S
C600 C601 1.363 . S
C600 C605 1.379 . S
C600 N607 1.356 . S
C601 C600 1.363 . S
C601 C604 1.363 . S
N602 C604 1.356 . S
N602 H614 0.984 . S
N602 H615 0.985 . S
N603 C605 1.356 . S
N603 H608 0.984 . S
N603 H609 0.985 . S
C604 C598 1.379 . S
C604 C601 1.363 . S
C604 N602 1.356 . S
C605 C599 1.363 . S
C605 C600 1.379 . S
C605 N603 1.356 . S
N606 C598 1.356 . S
N606 H612 0.984 . S
N606 H613 0.984 . S
N607 C600 1.356 . S
N607 H610 0.984 . S
N607 H611 0.985 . S
H608 N603 0.984 . S
H609 N603 0.985 . S
H610 N607 0.984 . S
H611 N607 0.985 . S
H612 N606 0.984 . S
H613 N606 0.984 . S
H614 N602 0.984 . S
H615 N602 0.985 . S
C616 C617 1.363 . S
C616 C622 1.379 . S
C616 N624 1.356 . S
C617 C616 1.363 . S
C617 C623 1.363 . S
C618 C619 1.363 . S
C618 C623 1.379 . S
C618 N625 1.356 . S
C619 C618 1.363 . S
C619 C622 1.363 . S
N620 C622 1.356 . S
N620 H632 0.984 . S
N620 H633 0.985 . S
N621 C623 1.356 . S
N621 H626 0.984 . S
N621 H627 0.985 . S
C622 C616 1.379 . S
C622 C619 1.363 . S
C622 N620 1.356 . S
C623 C617 1.363 . S
C623 C618 1.379 . S
C623 N621 1.356 . S
N624 C616 1.356 . S
N624 H630 0.984 . S
N624 H631 0.984 . S
N625 C618 1.356 . S
N625 H628 0.984 . S
N625 H629 0.985 . S
H626 N621 0.984 . S
H627 N621 0.985 . S
H628 N625 0.984 . S
H629 N625 0.985 . S
H630 N624 0.984 . S
H631 N624 0.984 . S
H632 N620 0.984 . S
H633 N620 0.985 . S
C634 C635 1.363 . S
C634 C640 1.379 1_556 S
C634 N642 1.356 . S
C635 C634 1.363 . S
C635 C641 1.363 . S
C636 C637 1.363 . S
C636 C641 1.379 1_554 S
C636 N643 1.356 . S
C637 C636 1.363 . S
C637 C640 1.363 . S
N638 C640 1.356 . S
N638 H650 0.984 . S
N638 H651 0.985 . S
N639 C641 1.356 . S
N639 H644 0.984 . S
N639 H645 0.985 . S
C640 C634 1.379 1_554 S
C640 C637 1.363 . S
C640 N638 1.356 . S
C641 C635 1.363 . S
C641 C636 1.379 1_556 S
C641 N639 1.356 . S
N642 C634 1.356 . S
N642 H648 0.984 . S
N642 H649 0.984 . S
N643 C636 1.356 . S
N643 H646 0.984 . S
N643 H647 0.985 . S
H644 N639 0.984 . S
H645 N639 0.985 . S
H646 N643 0.984 . S
H647 N643 0.985 . S
H648 N642 0.984 . S
H649 N642 0.984 . S
H650 N638 0.984 . S
H651 N638 0.985 . S
C652 C653 1.363 . S
C652 C658 1.379 . S
C652 N660 1.356 . S
C653 C652 1.363 . S
C653 C659 1.363 . S
C654 C655 1.363 . S
C654 C659 1.379 . S
C654 N661 1.356 . S
C655 C654 1.363 . S
C655 C658 1.363 . S
N656 C658 1.356 . S
N656 H668 0.984 . S
N656 H669 0.985 . S
N657 C659 1.356 . S
N657 H662 0.984 . S
N657 H663 0.985 . S
C658 C652 1.379 . S
C658 C655 1.363 . S
C658 N656 1.356 . S
C659 C653 1.363 . S
C659 C654 1.379 . S
C659 N657 1.356 . S
N660 C652 1.356 . S
N660 H666 0.984 . S
N660 H667 0.984 . S
N661 C654 1.356 . S
N661 H664 0.984 . S
N661 H665 0.985 . S
H662 N657 0.984 . S
H663 N657 0.985 . S
H664 N661 0.984 . S
H665 N661 0.985 . S
H666 N660 0.984 . S
H667 N660 0.984 . S
H668 N656 0.984 . S
H669 N656 0.985 . S
C670 C671 1.363 . S
C670 C676 1.379 . S
C670 N678 1.356 . S
C671 C670 1.363 . S
C671 C677 1.363 . S
C672 C673 1.363 . S
C672 C677 1.379 . S
C672 N679 1.356 . S
C673 C672 1.363 . S
C673 C676 1.363 . S
N674 C676 1.356 . S
N674 H686 0.984 . S
N674 H687 0.985 . S
N675 C677 1.356 . S
N675 H680 0.984 . S
N675 H681 0.985 . S
C676 C670 1.379 . S
C676 C673 1.363 . S
C676 N674 1.356 . S
C677 C671 1.363 . S
C677 C672 1.379 . S
C677 N675 1.356 . S
N678 C670 1.356 . S
N678 H684 0.984 . S
N678 H685 0.984 . S
N679 C672 1.356 . S
N679 H682 0.984 . S
N679 H683 0.985 . S
H680 N675 0.984 . S
H681 N675 0.985 . S
H682 N679 0.984 . S
H683 N679 0.985 . S
H684 N678 0.984 . S
H685 N678 0.984 . S
H686 N674 0.984 . S
H687 N674 0.985 . S
C688 C689 1.363 . S
C688 C694 1.379 . S
C688 N696 1.356 . S
C689 C688 1.363 . S
C689 C695 1.363 . S
C690 C691 1.363 . S
C690 C695 1.379 . S
C690 N697 1.356 . S
C691 C690 1.363 . S
C691 C694 1.363 . S
N692 C694 1.356 . S
N692 H704 0.984 . S
N692 H705 0.985 . S
N693 C695 1.356 . S
N693 H698 0.984 . S
N693 H699 0.985 . S
C694 C688 1.379 . S
C694 C691 1.363 . S
C694 N692 1.356 . S
C695 C689 1.363 . S
C695 C690 1.379 . S
C695 N693 1.356 . S
N696 C688 1.356 . S
N696 H702 0.984 . S
N696 H703 0.984 . S
N697 C690 1.356 . S
N697 H700 0.984 . S
N697 H701 0.985 . S
H698 N693 0.984 . S
H699 N693 0.985 . S
H700 N697 0.984 . S
H701 N697 0.985 . S
H702 N696 0.984 . S
H703 N696 0.984 . S
H704 N692 0.984 . S
H705 N692 0.985 . S
C706 C707 1.363 . S
C706 C712 1.379 . S
C706 N714 1.356 . S
C707 C706 1.363 . S
C707 C713 1.363 . S
C708 C709 1.363 . S
C708 C713 1.379 . S
C708 N715 1.356 . S
C709 C708 1.363 . S
C709 C712 1.363 . S
N710 C712 1.356 . S
N710 H722 0.984 . S
N710 H723 0.985 . S
N711 C713 1.356 . S
N711 H716 0.984 . S
N711 H717 0.985 . S
C712 C706 1.379 . S
C712 C709 1.363 . S
C712 N710 1.356 . S
C713 C707 1.363 . S
C713 C708 1.379 . S
C713 N711 1.356 . S
N714 C706 1.356 . S
N714 H720 0.984 . S
N714 H721 0.984 . S
N715 C708 1.356 . S
N715 H718 0.984 . S
N715 H719 0.985 . S
H716 N711 0.984 . S
H717 N711 0.985 . S
H718 N715 0.984 . S
H719 N715 0.985 . S
H720 N714 0.984 . S
H721 N714 0.984 . S
H722 N710 0.984 . S
H723 N710 0.985 . S
C724 C725 1.363 . S
C724 C730 1.379 . S
C724 N732 1.356 . S
C725 C724 1.363 . S
C725 C731 1.363 . S
C726 C727 1.363 . S
C726 C731 1.379 . S
C726 N733 1.356 . S
C727 C726 1.363 . S
C727 C730 1.363 . S
N728 C730 1.356 . S
N728 H740 0.984 . S
N728 H741 0.985 . S
N729 C731 1.356 . S
N729 H734 0.984 . S
N729 H735 0.985 . S
C730 C724 1.379 . S
C730 C727 1.363 . S
C730 N728 1.356 . S
C731 C725 1.363 . S
C731 C726 1.379 . S
C731 N729 1.356 . S
N732 C724 1.356 . S
N732 H738 0.984 . S
N732 H739 0.984 . S
N733 C726 1.356 . S
N733 H736 0.984 . S
N733 H737 0.985 . S
H734 N729 0.984 . S
H735 N729 0.985 . S
H736 N733 0.984 . S
H737 N733 0.985 . S
H738 N732 0.984 . S
H739 N732 0.984 . S
H740 N728 0.984 . S
H741 N728 0.985 . S
C742 C743 1.363 . S
C742 C748 1.379 1_556 S
C742 N750 1.356 . S
C743 C742 1.363 . S
C743 C749 1.363 . S
C744 C745 1.363 . S
C744 C749 1.379 1_554 S
C744 N751 1.356 . S
C745 C744 1.363 . S
C745 C748 1.363 . S
N746 C748 1.356 . S
N746 H758 0.984 . S
N746 H759 0.985 . S
N747 C749 1.356 . S
N747 H752 0.984 . S
N747 H753 0.985 . S
C748 C742 1.379 1_554 S
C748 C745 1.363 . S
C748 N746 1.356 . S
C749 C743 1.363 . S
C749 C744 1.379 1_556 S
C749 N747 1.356 . S
N750 C742 1.356 . S
N750 H756 0.984 . S
N750 H757 0.984 . S
N751 C744 1.356 . S
N751 H754 0.984 . S
N751 H755 0.985 . S
H752 N747 0.984 . S
H753 N747 0.985 . S
H754 N751 0.984 . S
H755 N751 0.985 . S
H756 N750 0.984 . S
H757 N750 0.984 . S
H758 N746 0.984 . S
H759 N746 0.985 . S
C760 C761 1.363 . S
C760 C766 1.379 . S
C760 N768 1.356 . S
C761 C760 1.363 . S
C761 C767 1.363 . S
C762 C763 1.363 . S
C762 C767 1.379 . S
C762 N769 1.356 . S
C763 C762 1.363 . S
C763 C766 1.363 . S
N764 C766 1.356 . S
N764 H776 0.984 . S
N764 H777 0.985 . S
N765 C767 1.356 . S
N765 H770 0.984 . S
N765 H771 0.985 . S
C766 C760 1.379 . S
C766 C763 1.363 . S
C766 N764 1.356 . S
C767 C761 1.363 . S
C767 C762 1.379 . S
C767 N765 1.356 . S
N768 C760 1.356 . S
N768 H774 0.984 . S
N768 H775 0.984 . S
N769 C762 1.356 . S
N769 H772 0.984 . S
N769 H773 0.985 . S
H770 N765 0.984 . S
H771 N765 0.985 . S
H772 N769 0.984 . S
H773 N769 0.985 . S
H774 N768 0.984 . S
H775 N768 0.984 . S
H776 N764 0.984 . S
H777 N764 0.985 . S
C778 C779 1.363 . S
C778 C784 1.379 . S
C778 N786 1.356 . S
C779 C778 1.363 . S
C779 C785 1.363 . S
C780 C781 1.363 . S
C780 C785 1.379 . S
C780 N787 1.356 . S
C781 C780 1.363 . S
C781 C784 1.363 . S
N782 C784 1.356 . S
N782 H794 0.984 . S
N782 H795 0.985 . S
N783 C785 1.356 . S
N783 H788 0.984 . S
N783 H789 0.985 . S
C784 C778 1.379 . S
C784 C781 1.363 . S
C784 N782 1.356 . S
C785 C779 1.363 . S
C785 C780 1.379 . S
C785 N783 1.356 . S
N786 C778 1.356 . S
N786 H792 0.984 . S
N786 H793 0.984 . S
N787 C780 1.356 . S
N787 H790 0.984 . S
N787 H791 0.985 . S
H788 N783 0.984 . S
H789 N783 0.985 . S
H790 N787 0.984 . S
H791 N787 0.985 . S
H792 N786 0.984 . S
H793 N786 0.984 . S
H794 N782 0.984 . S
H795 N782 0.985 . S
C796 C797 1.363 . S
C796 C802 1.379 . S
C796 N804 1.356 . S
C797 C796 1.363 . S
C797 C803 1.363 . S
C798 C799 1.363 . S
C798 C803 1.379 . S
C798 N805 1.356 . S
C799 C798 1.363 . S
C799 C802 1.363 . S
N800 C802 1.356 . S
N800 H812 0.984 . S
N800 H813 0.985 . S
N801 C803 1.356 . S
N801 H806 0.984 . S
N801 H807 0.985 . S
C802 C796 1.379 . S
C802 C799 1.363 . S
C802 N800 1.356 . S
C803 C797 1.363 . S
C803 C798 1.379 . S
C803 N801 1.356 . S
N804 C796 1.356 . S
N804 H810 0.984 . S
N804 H811 0.984 . S
N805 C798 1.356 . S
N805 H808 0.984 . S
N805 H809 0.985 . S
H806 N801 0.984 . S
H807 N801 0.985 . S
H808 N805 0.984 . S
H809 N805 0.985 . S
H810 N804 0.984 . S
H811 N804 0.984 . S
H812 N800 0.984 . S
H813 N800 0.985 . S
C814 C815 1.363 . S
C814 C820 1.379 1_554 S
C814 N822 1.356 . S
C815 C814 1.363 . S
C815 C821 1.363 . S
C816 C817 1.363 . S
C816 C821 1.379 1_556 S
C816 N823 1.356 . S
C817 C816 1.363 . S
C817 C820 1.363 . S
N818 C820 1.356 . S
N818 H830 0.984 . S
N818 H831 0.985 . S
N819 C821 1.356 . S
N819 H824 0.984 . S
N819 H825 0.985 . S
C820 C814 1.379 1_556 S
C820 C817 1.363 . S
C820 N818 1.356 . S
C821 C815 1.363 . S
C821 C816 1.379 1_554 S
C821 N819 1.356 . S
N822 C814 1.356 . S
N822 H828 0.984 . S
N822 H829 0.984 . S
N823 C816 1.356 . S
N823 H826 0.984 . S
N823 H827 0.985 . S
H824 N819 0.984 . S
H825 N819 0.985 . S
H826 N823 0.984 . S
H827 N823 0.985 . S
H828 N822 0.984 . S
H829 N822 0.984 . S
H830 N818 0.984 . S
H831 N818 0.985 . S
C832 C833 1.363 . S
C832 C838 1.379 . S
C832 N840 1.356 . S
C833 C832 1.363 . S
C833 C839 1.363 . S
C834 C835 1.363 . S
C834 C839 1.379 . S
C834 N841 1.356 . S
C835 C834 1.363 . S
C835 C838 1.363 . S
N836 C838 1.356 . S
N836 H848 0.984 . S
N836 H849 0.985 . S
N837 C839 1.356 . S
N837 H842 0.984 . S
N837 H843 0.985 . S
C838 C832 1.379 . S
C838 C835 1.363 . S
C838 N836 1.356 . S
C839 C833 1.363 . S
C839 C834 1.379 . S
C839 N837 1.356 . S
N840 C832 1.356 . S
N840 H846 0.984 . S
N840 H847 0.984 . S
N841 C834 1.356 . S
N841 H844 0.984 . S
N841 H845 0.985 . S
H842 N837 0.984 . S
H843 N837 0.985 . S
H844 N841 0.984 . S
H845 N841 0.985 . S
H846 N840 0.984 . S
H847 N840 0.984 . S
H848 N836 0.984 . S
H849 N836 0.985 . S
C850 C851 1.363 . S
C850 C856 1.379 . S
C850 N858 1.356 . S
C851 C850 1.363 . S
C851 C857 1.363 . S
C852 C853 1.363 . S
C852 C857 1.379 . S
C852 N859 1.356 . S
C853 C852 1.363 . S
C853 C856 1.363 . S
N854 C856 1.356 . S
N854 H866 0.984 . S
N854 H867 0.985 . S
N855 C857 1.356 . S
N855 H860 0.984 . S
N855 H861 0.985 . S
C856 C850 1.379 . S
C856 C853 1.363 . S
C856 N854 1.356 . S
C857 C851 1.363 . S
C857 C852 1.379 . S
C857 N855 1.356 . S
N858 C850 1.356 . S
N858 H864 0.984 . S
N858 H865 0.984 . S
N859 C852 1.356 . S
N859 H862 0.984 . S
N859 H863 0.985 . S
H860 N855 0.984 . S
H861 N855 0.985 . S
H862 N859 0.984 . S
H863 N859 0.985 . S
H864 N858 0.984 . S
H865 N858 0.984 . S
H866 N854 0.984 . S
H867 N854 0.985 . S
C868 C869 1.363 . S
C868 C874 1.379 . S
C868 N876 1.356 . S
C869 C868 1.363 . S
C869 C875 1.363 . S
C870 C871 1.363 . S
C870 C875 1.379 . S
C870 N877 1.356 . S
C871 C870 1.363 . S
C871 C874 1.363 . S
N872 C874 1.356 . S
N872 H884 0.984 . S
N872 H885 0.985 . S
N873 C875 1.356 . S
N873 H878 0.984 . S
N873 H879 0.985 . S
C874 C868 1.379 . S
C874 C871 1.363 . S
C874 N872 1.356 . S
C875 C869 1.363 . S
C875 C870 1.379 . S
C875 N873 1.356 . S
N876 C868 1.356 . S
N876 H882 0.984 . S
N876 H883 0.984 . S
N877 C870 1.356 . S
N877 H880 0.984 . S
N877 H881 0.985 . S
H878 N873 0.984 . S
H879 N873 0.985 . S
H880 N877 0.984 . S
H881 N877 0.985 . S
H882 N876 0.984 . S
H883 N876 0.984 . S
H884 N872 0.984 . S
H885 N872 0.985 . S
C886 C887 1.363 . S
C886 C892 1.379 1_455 S
C886 N894 1.356 . S
C887 C886 1.363 . S
C887 C893 1.363 1_556 S
C888 C889 1.363 . S
C888 C893 1.379 1_655 S
C888 N895 1.356 . S
C889 C888 1.363 . S
C889 C892 1.363 1_554 S
N890 C892 1.356 . S
N890 H902 0.987 . S
N890 H903 0.985 . S
N891 C893 1.356 . S
N891 H896 0.984 . S
N891 H897 0.987 . S
C892 C886 1.379 1_655 S
C892 C889 1.363 1_556 S
C892 N890 1.356 . S
C893 C887 1.363 1_554 S
C893 C888 1.379 1_455 S
C893 N891 1.356 . S
N894 C886 1.356 . S
N894 H900 0.984 . S
N894 H901 0.984 . S
N895 C888 1.356 . S
N895 H898 0.984 . S
N895 H899 0.985 . S
H896 N891 0.984 . S
H897 N891 0.987 . S
H898 N895 0.984 . S
H899 N895 0.985 . S
H900 N894 0.984 . S
H901 N894 0.984 . S
H902 N890 0.987 . S
H903 N890 0.985 . S
C904 C905 1.363 . S
C904 C910 1.379 . S
C904 N912 1.356 . S
C905 C904 1.363 . S
C905 C911 1.363 . S
C906 C907 1.363 . S
C906 C911 1.379 . S
C906 N913 1.356 . S
C907 C906 1.363 . S
C907 C910 1.363 . S
N908 C910 1.356 . S
N908 H920 0.984 . S
N908 H921 0.985 . S
N909 C911 1.356 . S
N909 H914 0.984 . S
N909 H915 0.985 . S
C910 C904 1.379 . S
C910 C907 1.363 . S
C910 N908 1.356 . S
C911 C905 1.363 . S
C911 C906 1.379 . S
C911 N909 1.356 . S
N912 C904 1.356 . S
N912 H918 0.984 . S
N912 H919 0.984 . S
N913 C906 1.356 . S
N913 H916 0.984 . S
N913 H917 0.985 . S
H914 N909 0.984 . S
H915 N909 0.985 . S
H916 N913 0.984 . S
H917 N913 0.985 . S
H918 N912 0.984 . S
H919 N912 0.984 . S
H920 N908 0.984 . S
H921 N908 0.985 . S
C922 C923 1.363 . S
C922 C928 1.379 . S
C922 N930 1.356 . S
C923 C922 1.363 . S
C923 C929 1.363 . S
C924 C925 1.363 . S
C924 C929 1.379 . S
C924 N931 1.356 . S
C925 C924 1.363 . S
C925 C928 1.363 . S
N926 C928 1.356 . S
N926 H938 0.984 . S
N926 H939 0.985 . S
N927 C929 1.356 . S
N927 H932 0.984 . S
N927 H933 0.985 . S
C928 C922 1.379 . S
C928 C925 1.363 . S
C928 N926 1.356 . S
C929 C923 1.363 . S
C929 C924 1.379 . S
C929 N927 1.356 . S
N930 C922 1.356 . S
N930 H936 0.984 . S
N930 H937 0.984 . S
N931 C924 1.356 . S
N931 H934 0.984 . S
N931 H935 0.985 . S
H932 N927 0.984 . S
H933 N927 0.985 . S
H934 N931 0.984 . S
H935 N931 0.985 . S
H936 N930 0.984 . S
H937 N930 0.984 . S
H938 N926 0.984 . S
H939 N926 0.985 . S
C940 C941 1.363 1_454 S
C940 C946 1.379 . S
C940 N948 1.357 . S
C941 C940 1.363 1_656 S
C941 C947 1.363 1_545 S
C942 C943 1.363 1_656 S
C942 C947 1.379 . S
C942 N949 1.357 . S
C943 C942 1.363 1_454 S
C943 C946 1.363 1_565 S
N944 C946 1.356 1_565 S
N944 H956 0.984 1_565 S
N944 H957 0.985 . S
N945 C947 1.356 1_545 S
N945 H950 0.984 . S
N945 H951 0.985 1_545 S
C946 C940 1.379 . S
C946 C943 1.363 1_545 S
C946 N944 1.356 1_545 S
C947 C941 1.363 1_565 S
C947 C942 1.379 . S
C947 N945 1.356 1_565 S
N948 C940 1.357 . S
N948 H954 0.988 . S
N948 H955 0.980 1_455 S
N949 C942 1.357 . S
N949 H952 0.980 1_655 S
N949 H953 0.988 . S
H950 N945 0.984 . S
H951 N945 0.985 1_565 S
H952 N949 0.980 1_455 S
H953 N949 0.988 . S
H954 N948 0.988 . S
H955 N948 0.980 1_655 S
H956 N944 0.984 1_545 S
H957 N944 0.985 . S
C958 C959 1.363 . S
C958 C964 1.362 1_545 S
C958 N966 1.356 . S
C959 C958 1.363 . S
C959 C965 1.380 . S
C960 C961 1.363 . S
C960 C965 1.362 1_565 S
C960 N967 1.356 . S
C961 C960 1.363 . S
C961 C964 1.380 . S
N962 C964 1.362 . S
N962 H974 0.984 1_565 S
N962 H975 0.985 . S
N963 C965 1.362 . S
N963 H968 0.984 . S
N963 H969 0.985 1_545 S
C964 C958 1.362 1_565 S
C964 C961 1.380 . S
C964 N962 1.362 . S
C965 C959 1.380 . S
C965 C960 1.362 1_545 S
C965 N963 1.362 . S
N966 C958 1.356 . S
N966 H972 0.984 . S
N966 H973 0.984 . S
N967 C960 1.356 . S
N967 H970 0.984 . S
N967 H971 0.985 . S
H968 N963 0.984 . S
H969 N963 0.985 1_565 S
H970 N967 0.984 . S
H971 N967 0.985 . S
H972 N966 0.984 . S
H973 N966 0.984 . S
H974 N962 0.984 1_545 S
H975 N962 0.985 . S
C976 C977 1.363 . S
C976 C982 1.379 . S
C976 N984 1.356 1_554 S
C977 C976 1.363 . S
C977 C983 1.363 . S
C978 C979 1.363 . S
C978 C983 1.379 . S
C978 N985 1.356 . S
C979 C978 1.363 . S
C979 C982 1.363 . S
N980 C982 1.356 . S
N980 H992 0.984 . S
N980 H993 0.985 . S
N981 C983 1.356 1_565 S
N981 H986 0.984 . S
N981 H987 0.985 . S
C982 C976 1.379 . S
C982 C979 1.363 . S
C982 N980 1.356 . S
C983 C977 1.363 . S
C983 C978 1.379 . S
C983 N981 1.356 1_545 S
N984 C976 1.356 1_556 S
N984 H990 0.984 . S
N984 H991 0.984 . S
N985 C978 1.356 . S
N985 H988 0.984 . S
N985 H989 0.985 . S
H986 N981 0.984 . S
H987 N981 0.985 . S
H988 N985 0.984 . S
H989 N985 0.985 . S
H990 N984 0.984 . S
H991 N984 0.984 . S
H992 N980 0.984 . S
H993 N980 0.985 . S
C994 C995 1.363 . S
C994 C1000 1.379 . S
C994 N1002 1.356 . S
C995 C994 1.363 . S
C995 C1001 1.363 . S
C996 C997 1.363 . S
C996 C1001 1.379 . S
C996 N1003 1.356 . S
C997 C996 1.363 . S
C997 C1000 1.363 . S
N998 C1000 1.356 . S
N998 H1010 0.984 . S
N998 H1011 0.985 . S
N999 C1001 1.356 . S
N999 H1004 0.984 . S
N999 H1005 0.985 . S
C1000 C994 1.379 . S
C1000 C997 1.363 . S
C1000 N998 1.356 . S
C1001 C995 1.363 . S
C1001 C996 1.379 . S
C1001 N999 1.356 . S
N1002 C994 1.356 . S
N1002 H1008 0.984 . S
N1002 H1009 0.984 . S
N1003 C996 1.356 . S
N1003 H1006 0.984 . S
N1003 H1007 0.985 . S
H1004 N999 0.984 . S
H1005 N999 0.985 . S
H1006 N1003 0.984 . S
H1007 N1003 0.985 . S
H1008 N1002 0.984 . S
H1009 N1002 0.984 . S
H1010 N998 0.984 . S
H1011 N998 0.985 . S
C1012 C1013 1.363 . S
C1012 C1018 1.379 . S
C1012 N1020 1.356 . S
C1013 C1012 1.363 . S
C1013 C1019 1.363 . S
C1014 C1015 1.363 . S
C1014 C1019 1.379 . S
C1014 N1021 1.356 . S
C1015 C1014 1.363 . S
C1015 C1018 1.363 . S
N1016 C1018 1.356 1_545 S
N1016 H1028 0.984 . S
N1016 H1029 0.985 . S
N1017 C1019 1.356 . S
N1017 H1022 0.984 . S
N1017 H1023 0.985 . S
C1018 C1012 1.379 . S
C1018 C1015 1.363 . S
C1018 N1016 1.356 1_565 S
C1019 C1013 1.363 . S
C1019 C1014 1.379 . S
C1019 N1017 1.356 . S
N1020 C1012 1.356 . S
N1020 H1026 0.984 . S
N1020 H1027 0.984 . S
N1021 C1014 1.356 . S
N1021 H1024 0.984 . S
N1021 H1025 0.985 . S
H1022 N1017 0.984 . S
H1023 N1017 0.985 . S
H1024 N1021 0.984 . S
H1025 N1021 0.985 . S
H1026 N1020 0.984 . S
H1027 N1020 0.984 . S
H1028 N1016 0.984 . S
H1029 N1016 0.985 . S
C1030 C1031 1.363 . S
C1030 C1036 1.379 . S
C1030 N1038 1.356 . S
C1031 C1030 1.363 . S
C1031 C1037 1.363 . S
C1032 C1033 1.363 . S
C1032 C1037 1.379 . S
C1032 N1039 1.356 . S
C1033 C1032 1.363 . S
C1033 C1036 1.363 . S
N1034 C1036 1.356 . S
N1034 H1046 0.984 . S
N1034 H1047 0.985 1_556 S
N1035 C1037 1.356 . S
N1035 H1040 0.984 . S
N1035 H1041 0.985 . S
C1036 C1030 1.379 . S
C1036 C1033 1.363 . S
C1036 N1034 1.356 . S
C1037 C1031 1.363 . S
C1037 C1032 1.379 . S
C1037 N1035 1.356 . S
N1038 C1030 1.356 . S
N1038 H1044 0.984 . S
N1038 H1045 0.984 . S
N1039 C1032 1.356 . S
N1039 H1042 0.984 . S
N1039 H1043 0.985 . S
H1040 N1035 0.984 . S
H1041 N1035 0.985 . S
H1042 N1039 0.984 . S
H1043 N1039 0.985 . S
H1044 N1038 0.984 . S
H1045 N1038 0.984 . S
H1046 N1034 0.984 . S
H1047 N1034 0.985 1_554 S
C1048 C1049 1.363 . S
C1048 C1054 1.379 . S
C1048 N1056 1.322 1_565 S
C1049 C1048 1.363 . S
C1049 C1055 1.363 . S
C1050 C1051 1.363 . S
C1050 C1055 1.379 . S
C1050 N1057 1.356 . S
C1051 C1050 1.363 . S
C1051 C1054 1.363 . S
N1052 C1054 1.356 . S
N1052 H1064 0.984 . S
N1052 H1065 0.985 . S
N1053 C1055 1.356 . S
N1053 H1058 0.984 . S
N1053 H1059 0.985 . S
C1054 C1048 1.379 . S
C1054 C1051 1.363 . S
C1054 N1052 1.356 . S
C1055 C1049 1.363 . S
C1055 C1050 1.379 . S
C1055 N1053 1.356 . S
N1056 C1048 1.322 1_545 S
N1056 H1062 0.996 . S
N1056 H1063 1.009 . S
N1057 C1050 1.356 . S
N1057 H1060 0.984 . S
N1057 H1061 0.985 . S
H1058 N1053 0.984 . S
H1059 N1053 0.985 . S
H1060 N1057 0.984 . S
H1061 N1057 0.985 . S
H1062 N1056 0.996 . S
H1063 N1056 1.009 . S
H1064 N1052 0.984 . S
H1065 N1052 0.985 . S
C1066 C1067 1.363 . S
C1066 C1072 1.379 . S
C1066 N1074 1.356 . S
C1067 C1066 1.363 . S
C1067 C1073 1.363 . S
C1068 C1069 1.363 . S
C1068 C1073 1.379 . S
C1068 N1075 1.356 . S
C1069 C1068 1.363 . S
C1069 C1072 1.363 . S
N1070 C1072 1.356 . S
N1070 H1082 0.984 . S
N1070 H1083 0.985 . S
N1071 C1073 1.356 . S
N1071 H1076 0.984 . S
N1071 H1077 0.985 . S
C1072 C1066 1.379 . S
C1072 C1069 1.363 . S
C1072 N1070 1.356 . S
C1073 C1067 1.363 . S
C1073 C1068 1.379 . S
C1073 N1071 1.356 . S
N1074 C1066 1.356 . S
N1074 H1080 0.984 . S
N1074 H1081 0.984 . S
N1075 C1068 1.356 . S
N1075 H1078 0.984 . S
N1075 H1079 0.985 . S
H1076 N1071 0.984 . S
H1077 N1071 0.985 . S
H1078 N1075 0.984 . S
H1079 N1075 0.985 . S
H1080 N1074 0.984 . S
H1081 N1074 0.984 . S
H1082 N1070 0.984 . S
H1083 N1070 0.985 . S
C1084 C1085 1.363 . S
C1084 C1090 1.379 . S
C1084 N1092 1.356 . S
C1085 C1084 1.363 . S
C1085 C1091 1.363 . S
C1086 C1087 1.363 . S
C1086 C1091 1.379 . S
C1086 N1093 1.356 . S
C1087 C1086 1.363 . S
C1087 C1090 1.363 . S
N1088 C1090 1.356 . S
N1088 H1100 0.984 . S
N1088 H1101 0.985 . S
N1089 C1091 1.356 . S
N1089 H1094 0.984 1_545 S
N1089 H1095 0.985 . S
C1090 C1084 1.379 . S
C1090 C1087 1.363 . S
C1090 N1088 1.356 . S
C1091 C1085 1.363 . S
C1091 C1086 1.379 . S
C1091 N1089 1.356 . S
N1092 C1084 1.356 . S
N1092 H1098 0.984 . S
N1092 H1099 0.984 . S
N1093 C1086 1.356 . S
N1093 H1096 0.984 . S
N1093 H1097 0.985 . S
H1094 N1089 0.984 1_565 S
H1095 N1089 0.985 . S
H1096 N1093 0.984 . S
H1097 N1093 0.985 . S
H1098 N1092 0.984 . S
H1099 N1092 0.984 . S
H1100 N1088 0.984 . S
H1101 N1088 0.985 . S
C1102 C1103 1.363 . S
C1102 C1108 1.379 . S
C1102 N1110 1.356 1_554 S
C1103 C1102 1.363 . S
C1103 C1109 1.363 . S
C1104 C1105 1.363 . S
C1104 C1109 1.379 . S
C1104 N1111 1.356 . S
C1105 C1104 1.363 . S
C1105 C1108 1.363 . S
N1106 C1108 1.356 . S
N1106 H1118 0.984 . S
N1106 H1119 0.985 . S
N1107 C1109 1.356 . S
N1107 H1112 0.984 . S
N1107 H1113 0.985 . S
C1108 C1102 1.379 . S
C1108 C1105 1.363 . S
C1108 N1106 1.356 . S
C1109 C1103 1.363 . S
C1109 C1104 1.379 . S
C1109 N1107 1.356 . S
N1110 C1102 1.356 1_556 S
N1110 H1116 0.984 . S
N1110 H1117 0.984 . S
N1111 C1104 1.356 . S
N1111 H1114 0.984 . S
N1111 H1115 0.985 . S
H1112 N1107 0.984 . S
H1113 N1107 0.985 . S
H1114 N1111 0.984 . S
H1115 N1111 0.985 . S
H1116 N1110 0.984 . S
H1117 N1110 0.984 . S
H1118 N1106 0.984 . S
H1119 N1106 0.985 . S
C1120 C1121 1.363 . S
C1120 C1126 1.379 . S
C1120 N1128 1.356 . S
C1121 C1120 1.363 . S
C1121 C1127 1.363 . S
C1122 C1123 1.363 . S
C1122 C1127 1.379 . S
C1122 N1129 1.356 . S
C1123 C1122 1.363 . S
C1123 C1126 1.363 . S
N1124 C1126 1.356 . S
N1124 H1136 0.984 . S
N1124 H1137 0.985 . S
N1125 C1127 1.356 . S
N1125 H1130 0.984 . S
N1125 H1131 0.985 . S
C1126 C1120 1.379 . S
C1126 C1123 1.363 . S
C1126 N1124 1.356 . S
C1127 C1121 1.363 . S
C1127 C1122 1.379 . S
C1127 N1125 1.356 . S
N1128 C1120 1.356 . S
N1128 H1134 0.984 . S
N1128 H1135 0.984 . S
N1129 C1122 1.356 . S
N1129 H1132 0.984 . S
N1129 H1133 0.985 . S
H1130 N1125 0.984 . S
H1131 N1125 0.985 . S
H1132 N1129 0.984 . S
H1133 N1129 0.985 . S
H1134 N1128 0.984 . S
H1135 N1128 0.984 . S
H1136 N1124 0.984 . S
H1137 N1124 0.985 . S
C1138 C1139 1.363 . S
C1138 C1144 1.379 . S
C1138 N1146 1.356 . S
C1139 C1138 1.363 . S
C1139 C1145 1.363 . S
C1140 C1141 1.363 . S
C1140 C1145 1.379 . S
C1140 N1147 1.356 . S
C1141 C1140 1.363 . S
C1141 C1144 1.363 . S
N1142 C1144 1.356 . S
N1142 H1154 0.984 . S
N1142 H1155 0.985 . S
N1143 C1145 1.356 1_554 S
N1143 H1148 0.984 . S
N1143 H1149 0.985 . S
C1144 C1138 1.379 . S
C1144 C1141 1.363 . S
C1144 N1142 1.356 . S
C1145 C1139 1.363 . S
C1145 C1140 1.379 . S
C1145 N1143 1.356 1_556 S
N1146 C1138 1.356 . S
N1146 H1152 0.984 . S
N1146 H1153 0.984 . S
N1147 C1140 1.356 . S
N1147 H1150 0.984 . S
N1147 H1151 0.985 . S
H1148 N1143 0.984 . S
H1149 N1143 0.985 . S
H1150 N1147 0.984 . S
H1151 N1147 0.985 . S
H1152 N1146 0.984 . S
H1153 N1146 0.984 . S
H1154 N1142 0.984 . S
H1155 N1142 0.985 . S
C1156 C1157 1.363 . S
C1156 C1162 1.379 . S
C1156 N1164 1.356 . S
C1157 C1156 1.363 . S
C1157 C1163 1.363 . S
C1158 C1159 1.363 . S
C1158 C1163 1.379 . S
C1158 N1165 1.356 . S
C1159 C1158 1.363 . S
C1159 C1162 1.363 . S
N1160 C1162 1.356 . S
N1160 H1172 0.984 . S
N1160 H1173 0.985 . S
N1161 C1163 1.356 . S
N1161 H1166 0.984 . S
N1161 H1167 0.985 . S
C1162 C1156 1.379 . S
C1162 C1159 1.363 . S
C1162 N1160 1.356 . S
C1163 C1157 1.363 . S
C1163 C1158 1.379 . S
C1163 N1161 1.356 . S
N1164 C1156 1.356 . S
N1164 H1170 0.984 . S
N1164 H1171 0.984 . S
N1165 C1158 1.356 . S
N1165 H1168 0.984 . S
N1165 H1169 0.985 . S
H1166 N1161 0.984 . S
H1167 N1161 0.985 . S
H1168 N1165 0.984 . S
H1169 N1165 0.985 . S
H1170 N1164 0.984 . S
H1171 N1164 0.984 . S
H1172 N1160 0.984 . S
H1173 N1160 0.985 . S
C1174 C1175 1.363 . S
C1174 C1180 1.379 . S
C1174 N1182 1.356 . S
C1175 C1174 1.363 . S
C1175 C1181 1.363 . S
C1176 C1177 1.363 . S
C1176 C1181 1.379 . S
C1176 N1183 1.356 . S
C1177 C1176 1.363 . S
C1177 C1180 1.363 . S
N1178 C1180 1.356 . S
N1178 H1190 0.984 . S
N1178 H1191 0.985 . S
N1179 C1181 1.356 . S
N1179 H1184 0.984 . S
N1179 H1185 0.985 . S
C1180 C1174 1.379 . S
C1180 C1177 1.363 . S
C1180 N1178 1.356 . S
C1181 C1175 1.363 . S
C1181 C1176 1.379 . S
C1181 N1179 1.356 . S
N1182 C1174 1.356 . S
N1182 H1188 0.984 . S
N1182 H1189 0.984 . S
N1183 C1176 1.356 . S
N1183 H1186 0.984 . S
N1183 H1187 0.985 . S
H1184 N1179 0.984 . S
H1185 N1179 0.985 . S
H1186 N1183 0.984 . S
H1187 N1183 0.985 . S
H1188 N1182 0.984 . S
H1189 N1182 0.984 . S
H1190 N1178 0.984 . S
H1191 N1178 0.985 . S
C1192 C1193 1.363 . S
C1192 C1198 1.379 . S
C1192 N1200 1.356 . S
C1193 C1192 1.363 . S
C1193 C1199 1.363 . S
C1194 C1195 1.363 . S
C1194 C1199 1.379 . S
C1194 N1201 1.356 . S
C1195 C1194 1.363 . S
C1195 C1198 1.363 . S
N1196 C1198 1.356 . S
N1196 H1208 0.984 . S
N1196 H1209 0.985 . S
N1197 C1199 1.356 . S
N1197 H1202 0.984 . S
N1197 H1203 0.985 . S
C1198 C1192 1.379 . S
C1198 C1195 1.363 . S
C1198 N1196 1.356 . S
C1199 C1193 1.363 . S
C1199 C1194 1.379 . S
C1199 N1197 1.356 . S
N1200 C1192 1.356 . S
N1200 H1206 0.984 . S
N1200 H1207 0.984 . S
N1201 C1194 1.356 . S
N1201 H1204 0.984 . S
N1201 H1205 0.985 . S
H1202 N1197 0.984 . S
H1203 N1197 0.985 . S
H1204 N1201 0.984 . S
H1205 N1201 0.985 . S
H1206 N1200 0.984 . S
H1207 N1200 0.984 . S
H1208 N1196 0.984 . S
H1209 N1196 0.985 . S
C1210 C1211 1.363 . S
C1210 C1216 1.379 . S
C1210 N1218 1.356 . S
C1211 C1210 1.363 . S
C1211 C1217 1.363 . S
C1212 C1213 1.363 . S
C1212 C1217 1.379 . S
C1212 N1219 1.356 1_554 S
C1213 C1212 1.363 . S
C1213 C1216 1.363 . S
N1214 C1216 1.356 . S
N1214 H1226 0.984 . S
N1214 H1227 0.985 . S
N1215 C1217 1.356 . S
N1215 H1220 0.984 . S
N1215 H1221 0.985 . S
C1216 C1210 1.379 . S
C1216 C1213 1.363 . S
C1216 N1214 1.356 . S
C1217 C1211 1.363 . S
C1217 C1212 1.379 . S
C1217 N1215 1.356 . S
N1218 C1210 1.356 . S
N1218 H1224 0.984 . S
N1218 H1225 0.984 . S
N1219 C1212 1.356 1_556 S
N1219 H1222 0.984 . S
N1219 H1223 0.985 . S
H1220 N1215 0.984 . S
H1221 N1215 0.985 . S
H1222 N1219 0.984 . S
H1223 N1219 0.985 . S
H1224 N1218 0.984 . S
H1225 N1218 0.984 . S
H1226 N1214 0.984 . S
H1227 N1214 0.985 . S
C1228 C1229 1.363 . S
C1228 C1234 1.379 . S
C1228 N1236 1.356 . S
C1229 C1228 1.363 . S
C1229 C1235 1.363 . S
C1230 C1231 1.363 . S
C1230 C1235 1.379 . S
C1230 N1237 1.356 1_556 S
C1231 C1230 1.363 . S
C1231 C1234 1.363 . S
N1232 C1234 1.356 . S
N1232 H1244 0.984 . S
N1232 H1245 0.985 . S
N1233 C1235 1.356 . S
N1233 H1238 0.984 . S
N1233 H1239 0.985 . S
C1234 C1228 1.379 . S
C1234 C1231 1.363 . S
C1234 N1232 1.356 . S
C1235 C1229 1.363 . S
C1235 C1230 1.379 . S
C1235 N1233 1.356 . S
N1236 C1228 1.356 . S
N1236 H1242 0.984 . S
N1236 H1243 0.984 . S
N1237 C1230 1.356 1_554 S
N1237 H1240 0.984 . S
N1237 H1241 0.985 . S
H1238 N1233 0.984 . S
H1239 N1233 0.985 . S
H1240 N1237 0.984 . S
H1241 N1237 0.985 . S
H1242 N1236 0.984 . S
H1243 N1236 0.984 . S
H1244 N1232 0.984 . S
H1245 N1232 0.985 . S
C1246 C1247 1.363 . S
C1246 C1252 1.379 . S
C1246 N1254 1.356 . S
C1247 C1246 1.363 . S
C1247 C1253 1.363 . S
C1248 C1249 1.363 . S
C1248 C1253 1.379 . S
C1248 N1255 1.356 . S
C1249 C1248 1.363 . S
C1249 C1252 1.363 . S
N1250 C1252 1.356 . S
N1250 H1262 0.984 . S
N1250 H1263 0.985 . S
N1251 C1253 1.356 . S
N1251 H1256 0.984 . S
N1251 H1257 0.985 . S
C1252 C1246 1.379 . S
C1252 C1249 1.363 . S
C1252 N1250 1.356 . S
C1253 C1247 1.363 . S
C1253 C1248 1.379 . S
C1253 N1251 1.356 . S
N1254 C1246 1.356 . S
N1254 H1260 0.984 . S
N1254 H1261 0.984 . S
N1255 C1248 1.356 . S
N1255 H1258 0.984 . S
N1255 H1259 0.985 . S
H1256 N1251 0.984 . S
H1257 N1251 0.985 . S
H1258 N1255 0.984 . S
H1259 N1255 0.985 . S
H1260 N1254 0.984 . S
H1261 N1254 0.984 . S
H1262 N1250 0.984 . S
H1263 N1250 0.985 . S
C1264 C1265 1.363 . S
C1264 C1270 1.379 . S
C1264 N1272 1.356 . S
C1265 C1264 1.363 . S
C1265 C1271 1.363 . S
C1266 C1267 1.363 . S
C1266 C1271 1.379 . S
C1266 N1273 1.356 . S
C1267 C1266 1.363 . S
C1267 C1270 1.363 . S
N1268 C1270 1.356 . S
N1268 H1280 0.984 1_554 S
N1268 H1281 0.985 . S
N1269 C1271 1.356 . S
N1269 H1274 0.984 . S
N1269 H1275 0.985 . S
C1270 C1264 1.379 . S
C1270 C1267 1.363 . S
C1270 N1268 1.356 . S
C1271 C1265 1.363 . S
C1271 C1266 1.379 . S
C1271 N1269 1.356 . S
N1272 C1264 1.356 . S
N1272 H1278 0.984 1_554 S
N1272 H1279 0.984 . S
N1273 C1266 1.356 . S
N1273 H1276 0.984 . S
N1273 H1277 0.985 . S
H1274 N1269 0.984 . S
H1275 N1269 0.985 . S
H1276 N1273 0.984 . S
H1277 N1273 0.985 . S
H1278 N1272 0.984 1_556 S
H1279 N1272 0.984 . S
H1280 N1268 0.984 1_556 S
H1281 N1268 0.985 . S
C1282 C1283 1.363 . S
C1282 C1288 1.379 . S
C1282 N1290 1.356 . S
C1283 C1282 1.363 . S
C1283 C1289 1.363 . S
C1284 C1285 1.363 . S
C1284 C1289 1.379 . S
C1284 N1291 1.356 . S
C1285 C1284 1.363 . S
C1285 C1288 1.363 . S
N1286 C1288 1.356 . S
N1286 H1298 0.984 . S
N1286 H1299 0.985 . S
N1287 C1289 1.356 . S
N1287 H1292 0.984 . S
N1287 H1293 0.985 . S
C1288 C1282 1.379 . S
C1288 C1285 1.363 . S
C1288 N1286 1.356 . S
C1289 C1283 1.363 . S
C1289 C1284 1.379 . S
C1289 N1287 1.356 . S
N1290 C1282 1.356 . S
N1290 H1296 0.984 . S
N1290 H1297 0.984 . S
N1291 C1284 1.356 . S
N1291 H1294 0.984 . S
N1291 H1295 0.985 . S
H1292 N1287 0.984 . S
H1293 N1287 0.985 . S
H1294 N1291 0.984 . S
H1295 N1291 0.985 . S
H1296 N1290 0.984 . S
H1297 N1290 0.984 . S
H1298 N1286 0.984 . S
H1299 N1286 0.985 . S
C1300 C1301 1.363 . S
C1300 C1306 1.379 . S
C1300 N1308 1.356 . S
C1301 C1300 1.363 . S
C1301 C1307 1.363 . S
C1302 C1303 1.363 . S
C1302 C1307 1.379 . S
C1302 N1309 1.356 . S
C1303 C1302 1.363 . S
C1303 C1306 1.363 . S
N1304 C1306 1.356 . S
N1304 H1316 0.984 . S
N1304 H1317 0.985 . S
N1305 C1307 1.356 . S
N1305 H1310 0.984 . S
N1305 H1311 0.985 . S
C1306 C1300 1.379 . S
C1306 C1303 1.363 . S
C1306 N1304 1.356 . S
C1307 C1301 1.363 . S
C1307 C1302 1.379 . S
C1307 N1305 1.356 . S
N1308 C1300 1.356 . S
N1308 H1314 0.984 . S
N1308 H1315 0.984 . S
N1309 C1302 1.356 . S
N1309 H1312 0.984 . S
N1309 H1313 0.985 . S
H1310 N1305 0.984 . S
H1311 N1305 0.985 . S
H1312 N1309 0.984 . S
H1313 N1309 0.985 . S
H1314 N1308 0.984 . S
H1315 N1308 0.984 . S
H1316 N1304 0.984 . S
H1317 N1304 0.985 . S
C1318 C1319 1.363 . S
C1318 C1324 1.379 1_455 S
C1318 N1326 1.356 . S
C1319 C1318 1.363 . S
C1319 C1325 1.363 . S
C1320 C1321 1.363 1_455 S
C1320 C1325 1.379 . S
C1320 N1327 1.356 . S
C1321 C1320 1.363 1_655 S
C1321 C1324 1.363 . S
N1322 C1324 1.356 . S
N1322 H1334 0.984 . S
N1322 H1335 0.985 . S
N1323 C1325 1.356 . S
N1323 H1328 0.984 . S
N1323 H1329 0.985 . S
C1324 C1318 1.379 1_655 S
C1324 C1321 1.363 . S
C1324 N1322 1.356 . S
C1325 C1319 1.363 . S
C1325 C1320 1.379 . S
C1325 N1323 1.356 . S
N1326 C1318 1.356 . S
N1326 H1332 0.984 . S
N1326 H1333 0.984 . S
N1327 C1320 1.356 . S
N1327 H1330 0.984 1_455 S
N1327 H1331 0.985 1_556 S
H1328 N1323 0.984 . S
H1329 N1323 0.985 . S
H1330 N1327 0.984 1_655 S
H1331 N1327 0.985 1_554 S
H1332 N1326 0.984 . S
H1333 N1326 0.984 . S
H1334 N1322 0.984 . S
H1335 N1322 0.985 . S
C1336 C1337 1.363 . S
C1336 C1342 1.379 . S
C1336 N1344 1.356 . S
C1337 C1336 1.363 . S
C1337 C1343 1.363 . S
C1338 C1339 1.363 . S
C1338 C1343 1.379 . S
C1338 N1345 1.356 . S
C1339 C1338 1.363 . S
C1339 C1342 1.363 . S
N1340 C1342 1.356 . S
N1340 H1352 0.984 . S
N1340 H1353 0.985 . S
N1341 C1343 1.356 . S
N1341 H1346 0.984 . S
N1341 H1347 0.985 1_556 S
C1342 C1336 1.379 . S
C1342 C1339 1.363 . S
C1342 N1340 1.356 . S
C1343 C1337 1.363 . S
C1343 C1338 1.379 . S
C1343 N1341 1.356 . S
N1344 C1336 1.356 . S
N1344 H1350 0.984 . S
N1344 H1351 0.984 . S
N1345 C1338 1.356 . S
N1345 H1348 0.984 . S
N1345 H1349 0.985 . S
H1346 N1341 0.984 . S
H1347 N1341 0.985 1_554 S
H1348 N1345 0.984 . S
H1349 N1345 0.985 . S
H1350 N1344 0.984 . S
H1351 N1344 0.984 . S
H1352 N1340 0.984 . S
H1353 N1340 0.985 . S
C1354 C1355 1.363 . S
C1354 C1360 1.379 . S
C1354 N1362 1.356 . S
C1355 C1354 1.363 . S
C1355 C1361 1.363 . S
C1356 C1357 1.363 . S
C1356 C1361 1.379 . S
C1356 N1363 1.356 . S
C1357 C1356 1.363 . S
C1357 C1360 1.363 . S
N1358 C1360 1.356 . S
N1358 H1370 0.984 . S
N1358 H1371 0.985 . S
N1359 C1361 1.356 . S
N1359 H1364 0.984 . S
N1359 H1365 0.985 . S
C1360 C1354 1.379 . S
C1360 C1357 1.363 . S
C1360 N1358 1.356 . S
C1361 C1355 1.363 . S
C1361 C1356 1.379 . S
C1361 N1359 1.356 . S
N1362 C1354 1.356 . S
N1362 H1368 0.984 . S
N1362 H1369 0.984 . S
N1363 C1356 1.356 . S
N1363 H1366 0.984 . S
N1363 H1367 0.985 . S
H1364 N1359 0.984 . S
H1365 N1359 0.985 . S
H1366 N1363 0.984 . S
H1367 N1363 0.985 . S
H1368 N1362 0.984 . S
H1369 N1362 0.984 . S
H1370 N1358 0.984 . S
H1371 N1358 0.985 . S
C1372 C1373 1.363 . S
C1372 C1378 1.379 . S
C1372 N1380 1.356 . S
C1373 C1372 1.363 . S
C1373 C1379 1.363 . S
C1374 C1375 1.363 . S
C1374 C1379 1.379 . S
C1374 N1381 1.356 . S
C1375 C1374 1.363 . S
C1375 C1378 1.363 . S
N1376 C1378 1.356 . S
N1376 H1388 0.984 . S
N1376 H1389 0.985 . S
N1377 C1379 1.356 . S
N1377 H1382 0.984 . S
N1377 H1383 0.985 . S
C1378 C1372 1.379 . S
C1378 C1375 1.363 . S
C1378 N1376 1.356 . S
C1379 C1373 1.363 . S
C1379 C1374 1.379 . S
C1379 N1377 1.356 . S
N1380 C1372 1.356 . S
N1380 H1386 0.984 . S
N1380 H1387 0.984 . S
N1381 C1374 1.356 . S
N1381 H1384 0.984 . S
N1381 H1385 0.985 . S
H1382 N1377 0.984 . S
H1383 N1377 0.985 . S
H1384 N1381 0.984 . S
H1385 N1381 0.985 . S
H1386 N1380 0.984 . S
H1387 N1380 0.984 . S
H1388 N1376 0.984 . S
H1389 N1376 0.985 . S
C1390 C1391 1.363 . S
C1390 C1396 1.379 1_455 S
C1390 N1398 1.356 . S
C1391 C1390 1.363 . S
C1391 C1397 1.363 1_455 S
C1392 C1393 1.363 . S
C1392 C1397 1.379 . S
C1392 N1399 1.356 . S
C1393 C1392 1.363 . S
C1393 C1396 1.363 . S
N1394 C1396 1.356 . S
N1394 H1406 0.984 . S
N1394 H1407 0.985 . S
N1395 C1397 1.356 1_456 S
N1395 H1400 0.984 . S
N1395 H1401 0.985 . S
C1396 C1390 1.379 1_655 S
C1396 C1393 1.363 . S
C1396 N1394 1.356 . S
C1397 C1391 1.363 1_655 S
C1397 C1392 1.379 . S
C1397 N1395 1.356 1_654 S
N1398 C1390 1.356 . S
N1398 H1404 0.984 . S
N1398 H1405 0.984 . S
N1399 C1392 1.356 . S
N1399 H1402 0.984 . S
N1399 H1403 0.985 1_554 S
H1400 N1395 0.984 . S
H1401 N1395 0.985 . S
H1402 N1399 0.984 . S
H1403 N1399 0.985 1_556 S
H1404 N1398 0.984 . S
H1405 N1398 0.984 . S
H1406 N1394 0.984 . S
H1407 N1394 0.985 . S
C1408 C1409 1.363 . S
C1408 C1414 1.379 . S
C1408 N1416 1.356 . S
C1409 C1408 1.363 . S
C1409 C1415 1.363 . S
C1410 C1411 1.363 . S
C1410 C1415 1.379 . S
C1410 N1417 1.356 . S
C1411 C1410 1.363 . S
C1411 C1414 1.363 . S
N1412 C1414 1.356 . S
N1412 H1424 0.984 . S
N1412 H1425 0.985 . S
N1413 C1415 1.356 . S
N1413 H1418 0.984 . S
N1413 H1419 0.985 . S
C1414 C1408 1.379 . S
C1414 C1411 1.363 . S
C1414 N1412 1.356 . S
C1415 C1409 1.363 . S
C1415 C1410 1.379 . S
C1415 N1413 1.356 . S
N1416 C1408 1.356 . S
N1416 H1422 0.984 . S
N1416 H1423 0.984 . S
N1417 C1410 1.356 . S
N1417 H1420 0.984 . S
N1417 H1421 0.985 . S
H1418 N1413 0.984 . S
H1419 N1413 0.985 . S
H1420 N1417 0.984 . S
H1421 N1417 0.985 . S
H1422 N1416 0.984 . S
H1423 N1416 0.984 . S
H1424 N1412 0.984 . S
H1425 N1412 0.985 . S
C1426 C1427 1.363 1_655 S
C1426 C1432 1.379 . S
C1426 N1434 1.356 1_655 S
C1427 C1426 1.363 1_455 S
C1427 C1433 1.363 . S
C1428 C1429 1.363 . S
C1428 C1433 1.379 1_655 S
C1428 N1435 1.356 . S
C1429 C1428 1.363 . S
C1429 C1432 1.363 . S
N1430 C1432 1.356 . S
N1430 H1442 0.984 . S
N1430 H1443 0.985 . S
N1431 C1433 1.356 . S
N1431 H1436 0.984 . S
N1431 H1437 0.985 1_556 S
C1432 C1426 1.379 . S
C1432 C1429 1.363 . S
C1432 N1430 1.356 . S
C1433 C1427 1.363 . S
C1433 C1428 1.379 1_455 S
C1433 N1431 1.356 . S
N1434 C1426 1.356 1_455 S
N1434 H1440 0.984 1_455 S
N1434 H1441 0.984 . S
N1435 C1428 1.356 . S
N1435 H1438 0.984 . S
N1435 H1439 0.985 . S
H1436 N1431 0.984 . S
H1437 N1431 0.985 1_554 S
H1438 N1435 0.984 . S
H1439 N1435 0.985 . S
H1440 N1434 0.984 1_655 S
H1441 N1434 0.984 . S
H1442 N1430 0.984 . S
H1443 N1430 0.985 . S
C1444 C1445 1.363 . S
C1444 C1450 1.379 . S
C1444 N1452 1.356 . S
C1445 C1444 1.363 . S
C1445 C1451 1.363 . S
C1446 C1447 1.363 . S
C1446 C1451 1.379 . S
C1446 N1453 1.356 . S
C1447 C1446 1.363 . S
C1447 C1450 1.363 . S
N1448 C1450 1.356 . S
N1448 H1460 0.984 . S
N1448 H1461 0.985 . S
N1449 C1451 1.356 . S
N1449 H1454 0.984 . S
N1449 H1455 0.985 . S
C1450 C1444 1.379 . S
C1450 C1447 1.363 . S
C1450 N1448 1.356 . S
C1451 C1445 1.363 . S
C1451 C1446 1.379 . S
C1451 N1449 1.356 . S
N1452 C1444 1.356 . S
N1452 H1458 0.984 . S
N1452 H1459 0.984 . S
N1453 C1446 1.356 . S
N1453 H1456 0.984 . S
N1453 H1457 0.985 1_554 S
H1454 N1449 0.984 . S
H1455 N1449 0.985 . S
H1456 N1453 0.984 . S
H1457 N1453 0.985 1_556 S
H1458 N1452 0.984 . S
H1459 N1452 0.984 . S
H1460 N1448 0.984 . S
H1461 N1448 0.985 . S
C1462 C1463 1.363 . S
C1462 C1468 1.379 . S
C1462 N1470 1.356 . S
C1463 C1462 1.363 . S
C1463 C1469 1.363 . S
C1464 C1465 1.363 . S
C1464 C1469 1.379 . S
C1464 N1471 1.356 . S
C1465 C1464 1.363 . S
C1465 C1468 1.363 . S
N1466 C1468 1.356 . S
N1466 H1478 0.984 . S
N1466 H1479 0.985 . S
N1467 C1469 1.356 . S
N1467 H1472 0.984 . S
N1467 H1473 0.985 . S
C1468 C1462 1.379 . S
C1468 C1465 1.363 . S
C1468 N1466 1.356 . S
C1469 C1463 1.363 . S
C1469 C1464 1.379 . S
C1469 N1467 1.356 . S
N1470 C1462 1.356 . S
N1470 H1476 0.984 . S
N1470 H1477 0.984 . S
N1471 C1464 1.356 . S
N1471 H1474 0.984 . S
N1471 H1475 0.985 . S
H1472 N1467 0.984 . S
H1473 N1467 0.985 . S
H1474 N1471 0.984 . S
H1475 N1471 0.985 . S
H1476 N1470 0.984 . S
H1477 N1470 0.984 . S
H1478 N1466 0.984 . S
H1479 N1466 0.985 . S
C1480 C1481 1.363 . S
C1480 C1486 1.379 . S
C1480 N1488 1.356 . S
C1481 C1480 1.363 . S
C1481 C1487 1.363 . S
C1482 C1483 1.363 . S
C1482 C1487 1.379 . S
C1482 N1489 1.356 . S
C1483 C1482 1.363 . S
C1483 C1486 1.363 . S
N1484 C1486 1.356 . S
N1484 H1496 0.984 . S
N1484 H1497 0.985 . S
N1485 C1487 1.356 . S
N1485 H1490 0.984 . S
N1485 H1491 0.985 . S
C1486 C1480 1.379 . S
C1486 C1483 1.363 . S
C1486 N1484 1.356 . S
C1487 C1481 1.363 . S
C1487 C1482 1.379 . S
C1487 N1485 1.356 . S
N1488 C1480 1.356 . S
N1488 H1494 0.984 . S
N1488 H1495 0.984 . S
N1489 C1482 1.356 . S
N1489 H1492 0.984 . S
N1489 H1493 0.985 . S
H1490 N1485 0.984 . S
H1491 N1485 0.985 . S
H1492 N1489 0.984 . S
H1493 N1489 0.985 . S
H1494 N1488 0.984 . S
H1495 N1488 0.984 . S
H1496 N1484 0.984 . S
H1497 N1484 0.985 . S
C1498 C1499 1.363 1_455 S
C1498 C1504 1.379 . S
C1498 N1506 1.360 1_554 S
C1499 C1498 1.363 1_655 S
C1499 C1505 1.363 . S
C1500 C1501 1.363 . S
C1500 C1505 1.379 1_455 S
C1500 N1507 1.356 . S
C1501 C1500 1.363 . S
C1501 C1504 1.363 . S
N1502 C1504 1.356 . S
N1502 H1514 0.984 1_554 S
N1502 H1515 0.985 . S
N1503 C1505 1.356 . S
N1503 H1508 0.984 . S
N1503 H1509 0.985 . S
C1504 C1498 1.379 . S
C1504 C1501 1.363 . S
C1504 N1502 1.356 . S
C1505 C1499 1.363 . S
C1505 C1500 1.379 1_655 S
C1505 N1503 1.356 . S
N1506 C1498 1.360 1_556 S
N1506 H1512 0.990 . S
N1506 H1513 0.976 1_455 S
N1507 C1500 1.356 . S
N1507 H1510 0.984 . S
N1507 H1511 0.985 . S
H1508 N1503 0.984 . S
H1509 N1503 0.985 . S
H1510 N1507 0.984 . S
H1511 N1507 0.985 . S
H1512 N1506 0.990 . S
H1513 N1506 0.976 1_655 S
H1514 N1502 0.984 1_556 S
H1515 N1502 0.985 . S
C1516 C1517 1.363 . S
C1516 C1522 1.379 . S
C1516 N1524 1.356 . S
C1517 C1516 1.363 . S
C1517 C1523 1.363 . S
C1518 C1519 1.363 . S
C1518 C1523 1.379 . S
C1518 N1525 1.356 . S
C1519 C1518 1.363 . S
C1519 C1522 1.363 . S
N1520 C1522 1.356 . S
N1520 H1532 0.984 . S
N1520 H1533 0.985 . S
N1521 C1523 1.368 . S
N1521 H1526 0.986 . S
N1521 H1527 0.972 1_556 S
C1522 C1516 1.379 . S
C1522 C1519 1.363 . S
C1522 N1520 1.356 . S
C1523 C1517 1.363 . S
C1523 C1518 1.379 . S
C1523 N1521 1.368 . S
N1524 C1516 1.356 . S
N1524 H1530 0.984 . S
N1524 H1531 0.984 . S
N1525 C1518 1.356 . S
N1525 H1528 0.984 . S
N1525 H1529 0.985 1_556 S
H1526 N1521 0.986 . S
H1527 N1521 0.972 1_554 S
H1528 N1525 0.984 . S
H1529 N1525 0.985 1_554 S
H1530 N1524 0.984 . S
H1531 N1524 0.984 . S
H1532 N1520 0.984 . S
H1533 N1520 0.985 . S
C1534 C1535 1.363 . S
C1534 C1540 1.379 . S
C1534 N1542 1.356 . S
C1535 C1534 1.363 . S
C1535 C1541 1.363 . S
C1536 C1537 1.363 . S
C1536 C1541 1.379 . S
C1536 N1543 1.356 . S
C1537 C1536 1.363 . S
C1537 C1540 1.363 . S
N1538 C1540 1.356 . S
N1538 H1550 0.984 . S
N1538 H1551 0.985 . S
N1539 C1541 1.356 . S
N1539 H1544 0.984 . S
N1539 H1545 0.985 . S
C1540 C1534 1.379 . S
C1540 C1537 1.363 . S
C1540 N1538 1.356 . S
C1541 C1535 1.363 . S
C1541 C1536 1.379 . S
C1541 N1539 1.356 . S
N1542 C1534 1.356 . S
N1542 H1548 0.984 . S
N1542 H1549 0.984 . S
N1543 C1536 1.356 . S
N1543 H1546 0.984 . S
N1543 H1547 0.985 . S
H1544 N1539 0.984 . S
H1545 N1539 0.985 . S
H1546 N1543 0.984 . S
H1547 N1543 0.985 . S
H1548 N1542 0.984 . S
H1549 N1542 0.984 . S
H1550 N1538 0.984 . S
H1551 N1538 0.985 . S
C545 C15 1.481 . S
C547 C22 1.479 . S
C563 C56 1.479 . S
C565 C49 1.481 . S
C581 C83 1.481 . S
C583 C90 1.479 . S
C599 C124 1.481 . S
C601 C117 1.479 . S
C617 C158 1.481 . S
C619 C151 1.479 . S
C635 C192 1.481 . S
C637 C185 1.479 . S
C653 C219 1.479 . S
C655 C226 1.481 . S
C671 C253 1.481 . S
C673 C260 1.479 . S
C689 C294 1.479 . S
C691 C287 1.481 . S
C707 C321 1.481 . S
C709 C328 1.479 . S
C725 C355 1.481 . S
C727 C362 1.479 . S
C743 C389 1.479 . S
C745 C396 1.481 . S
C761 C423 1.479 . S
C763 C430 1.481 . S
C779 C464 1.481 . S
C781 C457 1.479 . S
C797 C498 1.481 . S
C799 C491 1.479 . S
C815 C532 1.479 . S
C817 C525 1.481 . S
C833 C1 2.049 . S
C835 C411 2.049 . S
C851 C173 2.048 . S
C853 C35 2.048 . S
C869 C479 2.049 . S
C871 C69 2.049 . S
C887 C239 2.048 . S
C889 C105 2.048 . S
C905 C139 2.049 . S
C907 C273 2.049 . S
C923 C207 2.049 . S
C925 C341 2.049 . S
C941 C445 2.048 . S
C943 C307 2.048 . S
C959 C377 2.048 . S
C961 C511 2.048 . S
C977 C312 1.429 1_545 S
C979 C17 1.387 . S
C995 C51 1.387 . S
C997 C346 1.429 . S
C1013 C85 1.387 . S
C1015 C402 1.429 1_565 S
C1031 C278 1.429 . S
C1033 C119 1.387 . S
C1049 C470 1.429 1_565 S
C1051 C153 1.387 . S
C1067 C504 1.429 . S
C1069 C187 1.387 . S
C1085 C516 1.429 1_545 S
C1087 C221 1.387 . S
C1103 C255 1.387 . S
C1105 C436 1.429 . S
C1121 C40 1.429 . S
C1123 C289 1.387 . S
C1139 C323 1.387 . S
C1141 C74 1.429 . S
C1157 C130 1.429 . S
C1159 C357 1.387 . S
C1175 C6 1.429 . S
C1177 C391 1.387 . S
C1193 C425 1.387 . S
C1195 C198 1.429 . S
C1211 C232 1.429 . S
C1213 C459 1.387 . S
C1229 C493 1.387 . S
C1231 C244 1.429 . S
C1247 C527 1.387 . S
C1249 C164 1.429 . S
C1265 C3 1.436 . S
C1267 C266 1.451 . S
C1283 C37 1.436 . S
C1285 C414 1.451 . S
C1301 C176 1.451 . S
C1303 C71 1.436 . S
C1319 C482 1.451 . S
C1321 C103 1.436 . S
C1337 C108 1.451 . S
C1339 C137 1.436 . S
C1355 C171 1.436 . S
C1357 C300 1.451 . S
C1373 C62 1.451 . S
C1375 C205 1.436 . S
C1391 C241 1.436 . S
C1393 C368 1.451 . S
C1409 C538 1.451 . S
C1411 C275 1.436 . S
C1427 C309 1.436 . S
C1429 C142 1.451 . S
C1445 C343 1.436 . S
C1447 C448 1.451 . S
C1463 C210 1.451 . S
C1465 C375 1.436 . S
C1481 C380 1.451 . S
C1483 C409 1.436 . S
C1499 C443 1.436 . S
C1501 C28 1.451 . S
C1517 C334 1.451 . S
C1519 C477 1.436 . S
C1535 C96 1.451 . S
C1537 C513 1.436 . S
