# Generated by pormake.
# Topology uoa, (4)-cn, num edge types: 1
# Building blocks:
#     Node 0, Type 0, BuildingBlock: NAWXER_clean_sbu_0, # of connection points: 4
#     Node 1, Type 0, BuildingBlock: NAWXER_clean_sbu_0, # of connection points: 4
#     Node 2, Type 0, BuildingBlock: NAWXER_clean_sbu_0, # of connection points: 4
#     Node 3, Type 0, BuildingBlock: NAWXER_clean_sbu_0, # of connection points: 4
#     Node 4, Type 0, BuildingBlock: NAWXER_clean_sbu_0, # of connection points: 4
#     Node 5, Type 0, BuildingBlock: NAWXER_clean_sbu_0, # of connection points: 4
#     Node 6, Type 0, BuildingBlock: NAWXER_clean_sbu_0, # of connection points: 4
#     Node 7, Type 0, BuildingBlock: NAWXER_clean_sbu_0, # of connection points: 4
#     Node 8, Type 0, BuildingBlock: NAWXER_clean_sbu_0, # of connection points: 4
#     Node 9, Type 0, BuildingBlock: NAWXER_clean_sbu_0, # of connection points: 4
#     Node 10, Type 0, BuildingBlock: NAWXER_clean_sbu_0, # of connection points: 4
#     Node 11, Type 0, BuildingBlock: NAWXER_clean_sbu_0, # of connection points: 4
#     Node 12, Type 0, BuildingBlock: NAWXER_clean_sbu_0, # of connection points: 4
#     Node 13, Type 0, BuildingBlock: NAWXER_clean_sbu_0, # of connection points: 4
#     Node 14, Type 0, BuildingBlock: NAWXER_clean_sbu_0, # of connection points: 4
#     Node 15, Type 0, BuildingBlock: NAWXER_clean_sbu_0, # of connection points: 4
#     Node 16, Type 0, BuildingBlock: NAWXER_clean_sbu_0, # of connection points: 4
#     Node 17, Type 0, BuildingBlock: NAWXER_clean_sbu_0, # of connection points: 4
#     Node 18, Type 0, BuildingBlock: NAWXER_clean_sbu_0, # of connection points: 4
#     Node 19, Type 0, BuildingBlock: NAWXER_clean_sbu_0, # of connection points: 4
#     Node 20, Type 0, BuildingBlock: NAWXER_clean_sbu_0, # of connection points: 4
#     Node 21, Type 0, BuildingBlock: NAWXER_clean_sbu_0, # of connection points: 4
#     Node 22, Type 0, BuildingBlock: NAWXER_clean_sbu_0, # of connection points: 4
#     Node 23, Type 0, BuildingBlock: NAWXER_clean_sbu_0, # of connection points: 4
#     Node 24, Type 0, BuildingBlock: NAWXER_clean_sbu_0, # of connection points: 4
#     Node 25, Type 0, BuildingBlock: NAWXER_clean_sbu_0, # of connection points: 4
#     Node 26, Type 0, BuildingBlock: NAWXER_clean_sbu_0, # of connection points: 4
#     Node 27, Type 0, BuildingBlock: NAWXER_clean_sbu_0, # of connection points: 4
#     Node 28, Type 0, BuildingBlock: NAWXER_clean_sbu_0, # of connection points: 4
#     Node 29, Type 0, BuildingBlock: NAWXER_clean_sbu_0, # of connection points: 4
#     Node 30, Type 0, BuildingBlock: NAWXER_clean_sbu_0, # of connection points: 4
#     Node 31, Type 0, BuildingBlock: NAWXER_clean_sbu_0, # of connection points: 4
#     Edge 32, Type (0, 0), BuildingBlock: CIFDUS_clean_linker_0, # of connection points: 2
#     Edge 33, Type (0, 0), BuildingBlock: CIFDUS_clean_linker_0, # of connection points: 2
#     Edge 34, Type (0, 0), BuildingBlock: CIFDUS_clean_linker_0, # of connection points: 2
#     Edge 35, Type (0, 0), BuildingBlock: CIFDUS_clean_linker_0, # of connection points: 2
#     Edge 36, Type (0, 0), BuildingBlock: CIFDUS_clean_linker_0, # of connection points: 2
#     Edge 37, Type (0, 0), BuildingBlock: CIFDUS_clean_linker_0, # of connection points: 2
#     Edge 38, Type (0, 0), BuildingBlock: CIFDUS_clean_linker_0, # of connection points: 2
#     Edge 39, Type (0, 0), BuildingBlock: CIFDUS_clean_linker_0, # of connection points: 2
#     Edge 40, Type (0, 0), BuildingBlock: CIFDUS_clean_linker_0, # of connection points: 2
#     Edge 41, Type (0, 0), BuildingBlock: CIFDUS_clean_linker_0, # of connection points: 2
#     Edge 42, Type (0, 0), BuildingBlock: CIFDUS_clean_linker_0, # of connection points: 2
#     Edge 43, Type (0, 0), BuildingBlock: CIFDUS_clean_linker_0, # of connection points: 2
#     Edge 44, Type (0, 0), BuildingBlock: CIFDUS_clean_linker_0, # of connection points: 2
#     Edge 45, Type (0, 0), BuildingBlock: CIFDUS_clean_linker_0, # of connection points: 2
#     Edge 46, Type (0, 0), BuildingBlock: CIFDUS_clean_linker_0, # of connection points: 2
#     Edge 47, Type (0, 0), BuildingBlock: CIFDUS_clean_linker_0, # of connection points: 2
#     Edge 48, Type (0, 0), BuildingBlock: CIFDUS_clean_linker_0, # of connection points: 2
#     Edge 49, Type (0, 0), BuildingBlock: CIFDUS_clean_linker_0, # of connection points: 2
#     Edge 50, Type (0, 0), BuildingBlock: CIFDUS_clean_linker_0, # of connection points: 2
#     Edge 51, Type (0, 0), BuildingBlock: CIFDUS_clean_linker_0, # of connection points: 2
#     Edge 52, Type (0, 0), BuildingBlock: CIFDUS_clean_linker_0, # of connection points: 2
#     Edge 53, Type (0, 0), BuildingBlock: CIFDUS_clean_linker_0, # of connection points: 2
#     Edge 54, Type (0, 0), BuildingBlock: CIFDUS_clean_linker_0, # of connection points: 2
#     Edge 55, Type (0, 0), BuildingBlock: CIFDUS_clean_linker_0, # of connection points: 2
#     Edge 56, Type (0, 0), BuildingBlock: CIFDUS_clean_linker_0, # of connection points: 2
#     Edge 57, Type (0, 0), BuildingBlock: CIFDUS_clean_linker_0, # of connection points: 2
#     Edge 58, Type (0, 0), BuildingBlock: CIFDUS_clean_linker_0, # of connection points: 2
#     Edge 59, Type (0, 0), BuildingBlock: CIFDUS_clean_linker_0, # of connection points: 2
#     Edge 60, Type (0, 0), BuildingBlock: CIFDUS_clean_linker_0, # of connection points: 2
#     Edge 61, Type (0, 0), BuildingBlock: CIFDUS_clean_linker_0, # of connection points: 2
#     Edge 62, Type (0, 0), BuildingBlock: CIFDUS_clean_linker_0, # of connection points: 2
#     Edge 63, Type (0, 0), BuildingBlock: CIFDUS_clean_linker_0, # of connection points: 2
#     Edge 64, Type (0, 0), BuildingBlock: CIFDUS_clean_linker_0, # of connection points: 2
#     Edge 65, Type (0, 0), BuildingBlock: CIFDUS_clean_linker_0, # of connection points: 2
#     Edge 66, Type (0, 0), BuildingBlock: CIFDUS_clean_linker_0, # of connection points: 2
#     Edge 67, Type (0, 0), BuildingBlock: CIFDUS_clean_linker_0, # of connection points: 2
#     Edge 68, Type (0, 0), BuildingBlock: CIFDUS_clean_linker_0, # of connection points: 2
#     Edge 69, Type (0, 0), BuildingBlock: CIFDUS_clean_linker_0, # of connection points: 2
#     Edge 70, Type (0, 0), BuildingBlock: CIFDUS_clean_linker_0, # of connection points: 2
#     Edge 71, Type (0, 0), BuildingBlock: CIFDUS_clean_linker_0, # of connection points: 2
#     Edge 72, Type (0, 0), BuildingBlock: CIFDUS_clean_linker_0, # of connection points: 2
#     Edge 73, Type (0, 0), BuildingBlock: CIFDUS_clean_linker_0, # of connection points: 2
#     Edge 74, Type (0, 0), BuildingBlock: CIFDUS_clean_linker_0, # of connection points: 2
#     Edge 75, Type (0, 0), BuildingBlock: CIFDUS_clean_linker_0, # of connection points: 2
#     Edge 76, Type (0, 0), BuildingBlock: CIFDUS_clean_linker_0, # of connection points: 2
#     Edge 77, Type (0, 0), BuildingBlock: CIFDUS_clean_linker_0, # of connection points: 2
#     Edge 78, Type (0, 0), BuildingBlock: CIFDUS_clean_linker_0, # of connection points: 2
#     Edge 79, Type (0, 0), BuildingBlock: CIFDUS_clean_linker_0, # of connection points: 2
#     Edge 80, Type (0, 0), BuildingBlock: CIFDUS_clean_linker_0, # of connection points: 2
#     Edge 81, Type (0, 0), BuildingBlock: CIFDUS_clean_linker_0, # of connection points: 2
#     Edge 82, Type (0, 0), BuildingBlock: CIFDUS_clean_linker_0, # of connection points: 2
#     Edge 83, Type (0, 0), BuildingBlock: CIFDUS_clean_linker_0, # of connection points: 2
#     Edge 84, Type (0, 0), BuildingBlock: CIFDUS_clean_linker_0, # of connection points: 2
#     Edge 85, Type (0, 0), BuildingBlock: CIFDUS_clean_linker_0, # of connection points: 2
#     Edge 86, Type (0, 0), BuildingBlock: CIFDUS_clean_linker_0, # of connection points: 2
#     Edge 87, Type (0, 0), BuildingBlock: CIFDUS_clean_linker_0, # of connection points: 2
#     Edge 88, Type (0, 0), BuildingBlock: CIFDUS_clean_linker_0, # of connection points: 2
#     Edge 89, Type (0, 0), BuildingBlock: CIFDUS_clean_linker_0, # of connection points: 2
#     Edge 90, Type (0, 0), BuildingBlock: CIFDUS_clean_linker_0, # of connection points: 2
#     Edge 91, Type (0, 0), BuildingBlock: CIFDUS_clean_linker_0, # of connection points: 2
#     Edge 92, Type (0, 0), BuildingBlock: CIFDUS_clean_linker_0, # of connection points: 2
#     Edge 93, Type (0, 0), BuildingBlock: CIFDUS_clean_linker_0, # of connection points: 2
#     Edge 94, Type (0, 0), BuildingBlock: CIFDUS_clean_linker_0, # of connection points: 2
#     Edge 95, Type (0, 0), BuildingBlock: CIFDUS_clean_linker_0, # of connection points: 2
# Relax obj value: 0.037
# Max RMSD: 0.224
# Mean RMSD: 0.224
data_MOF--net-uoa--node1-NAWXER_clean_sbu_0--edge1-CIFDUS_clean_linker_0
_symmetry_space_group_name_H-M    P1
_symmetry_Int_Tables_number       1
_symmetry_cell_setting            triclinic
loop_
_symmetry_equiv_pos_as_xyz
'x, y, z'
_cell_length_a     66.195256
_cell_length_b     66.080062
_cell_length_c     25.409693
_cell_angle_alpha  89.980998
_cell_angle_beta   90.027761
_cell_angle_gamma 89.945863
loop_
_atom_site_label
_atom_site_type_symbol
_atom_site_fract_x
_atom_site_fract_y
_atom_site_fract_z
_atom_type_partial_charge
C0 C 0.01029 0.10112 0.96138 0.0
C1 C -0.00058 0.09615 0.1504 0.0
O2 O 0.02557 0.09319 0.98471 0.0
Zn3 Zn 0.03349 0.08527 0.06472 0.0
O4 O 0.99522 0.10698 0.9883 0.0
Zn5 Zn 0.00515 0.09875 0.05599 0.0
O6 O 0.02981 0.11975 0.07268 0.0
O7 O 0.05704 0.10056 0.07814 0.0
O8 O 0.9873 0.10243 0.11528 0.0
O9 O 0.01687 0.08945 0.13694 0.0
O10 O 0.03725 0.05653 0.06047 0.0
O11 O 0.00582 0.06615 0.04665 0.0
C12 C 0.04889 0.11791 0.08084 0.0
C13 C 0.01914 0.05205 0.04914 0.0
C14 C 0.192 0.75993 0.29867 0.0
C15 C 0.13067 0.79769 0.32631 0.0
O16 O 0.17688 0.74774 0.30098 0.0
Zn17 Zn 0.14423 0.75106 0.31365 0.0
O18 O 0.18915 0.77869 0.30562 0.0
Zn19 Zn 0.16073 0.77749 0.31303 0.0
O20 O 0.15662 0.76382 0.38998 0.0
O21 O 0.13991 0.73545 0.37555 0.0
O22 O 0.14876 0.8031 0.31877 0.0
O23 O 0.12629 0.77872 0.32613 0.0
O24 O 0.1335 0.73917 0.25119 0.0
O25 O 0.15144 0.76666 0.23629 0.0
C26 C 0.14849 0.74747 0.40727 0.0
C27 C 0.14126 0.75154 0.21893 0.0
C28 C 0.49577 0.90038 0.65265 0.0
C29 C 0.49248 0.89462 0.45925 0.0
O30 O 0.47869 0.90572 0.63328 0.0
Zn31 Zn 0.46486 0.90859 0.55678 0.0
O32 O 0.50994 0.8952 0.62162 0.0
Zn33 Zn 0.49449 0.89749 0.55601 0.0
O34 O 0.49139 0.92997 0.54631 0.0
O35 O 0.45883 0.93675 0.55161 0.0
O36 O 0.50714 0.89014 0.48942 0.0
O37 O 0.47599 0.90124 0.4794 0.0
O38 O 0.44224 0.89171 0.56483 0.0
O39 O 0.47098 0.8747 0.56836 0.0
C40 C 0.47682 0.94283 0.54528 0.0
C41 C 0.45161 0.87517 0.57159 0.0
C42 C 0.30162 0.23566 0.79286 0.0
C43 C 0.36382 0.2 0.82941 0.0
O44 O 0.31682 0.24768 0.79129 0.0
Zn45 Zn 0.34914 0.24534 0.80196 0.0
O46 O 0.30435 0.21717 0.80421 0.0
Zn47 Zn 0.33314 0.2183 0.81022 0.0
O48 O 0.33839 0.23472 0.88257 0.0
O49 O 0.35402 0.26302 0.861 0.0
O50 O 0.34592 0.19338 0.82486 0.0
O51 O 0.36745 0.21884 0.82115 0.0
O52 O 0.35873 0.25413 0.73427 0.0
O53 O 0.34231 0.22514 0.73061 0.0
C54 C 0.34656 0.25155 0.89604 0.0
C55 C 0.35173 0.23955 0.70736 0.0
C56 C 0.04685 0.87512 0.4276 0.0
C57 C 0.01815 0.94135 0.45981 0.0
O58 O 0.0277 0.8735 0.43499 0.0
Zn59 Zn 0.00329 0.89492 0.45217 0.0
O60 O 0.05516 0.89232 0.43163 0.0
Zn61 Zn 0.0318 0.90787 0.44457 0.0
O62 O 0.02341 0.90002 0.52432 0.0
O63 O 0.99294 0.88668 0.51947 0.0
O64 O 0.0362 0.93642 0.4492 0.0
O65 O 0.00449 0.92757 0.4618 0.0
O66 O 0.98549 0.89179 0.39268 0.0
O67 O 0.01528 0.90434 0.37169 0.0
C68 C 0.00792 0.89229 0.54703 0.0
C69 C -0.00227 0.89803 0.35786 0.0
C70 C 0.35345 0.75614 0.7913 0.0
C71 C 0.34861 0.75332 0.6029 0.0
O72 O 0.34506 0.77232 0.77373 0.0
Zn73 Zn 0.33756 0.78409 0.6963 0.0
O74 O 0.35983 0.7429 0.75933 0.0
Zn75 Zn 0.35105 0.75598 0.69691 0.0
O76 O 0.37193 0.78158 0.68704 0.0
O77 O 0.35207 0.8083 0.69322 0.0
O78 O 0.35468 0.74015 0.63546 0.0
O79 O 0.34208 0.77049 0.61941 0.0
O80 O 0.30924 0.78821 0.70004 0.0
O81 O 0.31827 0.75622 0.70726 0.0
C82 C 0.36956 0.8009 0.68742 0.0
C83 C 0.30445 0.7699 0.70745 0.0
C84 C 0.48166 0.10147 0.04437 0.0
C85 C 0.47988 0.09493 0.85337 0.0
O86 O 0.46612 0.09149 0.0291 0.0
Zn87 Zn 0.45357 0.08192 0.95468 0.0
O88 O 0.49371 0.10865 0.01031 0.0
Zn89 Zn 0.48046 0.09814 0.9487 0.0
O90 O 0.4529 0.11608 0.9411 0.0
O91 O 0.42793 0.09451 0.95331 0.0
O92 O 0.49354 0.10273 0.88198 0.0
O93 O 0.46441 0.08675 0.87519 0.0
O94 O 0.45298 0.05321 0.96135 0.0
O95 O 0.48382 0.06576 0.95997 0.0
C96 C 0.43387 0.11236 0.94369 0.0
C97 C 0.47191 0.05052 0.96424 0.0
C98 C 0.15059 0.24419 0.0908 0.0
C99 C 0.14661 0.24103 0.27946 0.0
O100 O 0.15833 0.22746 0.10691 0.0
Zn101 Zn 0.16419 0.21429 0.18403 0.0
O102 O 0.14394 0.25689 0.12376 0.0
Zn103 Zn 0.14897 0.24131 0.18508 0.0
O104 O 0.18182 0.24349 0.19495 0.0
O105 O 0.19266 0.21214 0.18733 0.0
O106 O 0.13948 0.25385 0.24738 0.0
O107 O 0.15597 0.22537 0.262 0.0
O108 O 0.15163 0.18901 0.18088 0.0
O109 O 0.12978 0.21414 0.17605 0.0
C110 C 0.19645 0.23068 0.19475 0.0
C111 C 0.13358 0.19502 0.17596 0.0
C112 C 0.98683 0.89557 0.04498 0.0
C113 C 0.98368 0.9008 0.85403 0.0
O114 O -0.00072 0.88931 0.01066 0.0
Zn115 Zn 0.98487 0.89852 0.94958 0.0
O116 O 0.97048 0.90431 0.03004 0.0
Zn117 Zn 0.95697 0.91261 0.9554 0.0
O118 O 0.93236 0.89833 0.95583 0.0
O119 O 0.95865 0.87828 0.9446 0.0
O120 O 0.96768 0.90795 0.87572 0.0
O121 O -0.00202 0.89437 0.88281 0.0
O122 O 0.98586 0.93128 0.95997 0.0
O123 O 0.95407 0.94117 0.96074 0.0
C124 C 0.93941 0.88076 0.94785 0.0
C125 C 0.97267 0.9455 0.96359 0.0
C126 C 0.84156 0.22823 0.78086 0.0
C127 C 0.8394 0.23918 0.59129 0.0
O128 O 0.84926 0.24238 0.75372 0.0
Zn129 Zn 0.84018 0.23318 0.68598 0.0
O130 O 0.83204 0.21388 0.75757 0.0
Zn131 Zn 0.82401 0.20674 0.67666 0.0
O132 O 0.83582 0.18137 0.66641 0.0
O133 O 0.85842 0.20583 0.67025 0.0
O134 O 0.83093 0.2224 0.60386 0.0
O135 O 0.84619 0.25063 0.62722 0.0
O136 O 0.80747 0.2361 0.69504 0.0
O137 O 0.79543 0.20575 0.67815 0.0
C138 C 0.85408 0.18699 0.66386 0.0
C139 C 0.79236 0.22402 0.69075 0.0
C140 C 0.49244 0.0958 0.35685 0.0
C141 C 0.50327 0.10183 0.5457 0.0
O142 O 0.48011 0.10156 0.39204 0.0
Zn143 Zn 0.49825 0.09872 0.45103 0.0
O144 O 0.51015 0.0898 0.37021 0.0
Zn145 Zn 0.52688 0.08634 0.44286 0.0
O146 O 0.53195 0.05808 0.44708 0.0
O147 O 0.50008 0.06603 0.46104 0.0
O148 O 0.51882 0.09426 0.52279 0.0
O149 O 0.48809 0.10706 0.51838 0.0
O150 O 0.52231 0.12047 0.43229 0.0
O151 O 0.54997 0.1018 0.42903 0.0
C152 C 0.51414 0.05265 0.4584 0.0
C153 C 0.54143 0.11887 0.4243 0.0
C154 C 0.63296 0.79723 0.18939 0.0
C155 C 0.69344 0.7589 0.22634 0.0
O156 O 0.65088 0.80319 0.1977 0.0
Zn157 Zn 0.66268 0.77756 0.20926 0.0
O158 O 0.62866 0.77834 0.19392 0.0
Zn159 Zn 0.64581 0.7509 0.21136 0.0
O160 O 0.63455 0.74099 0.2757 0.0
O161 O 0.65221 0.76898 0.28625 0.0
O162 O 0.67792 0.74727 0.22487 0.0
O163 O 0.69131 0.77767 0.21761 0.0
O164 O 0.65783 0.76308 0.13424 0.0
O165 O 0.64129 0.73466 0.1498 0.0
C166 C 0.64177 0.75447 0.30583 0.0
C167 C 0.6494 0.74684 0.1175 0.0
C168 C 0.94304 0.11478 0.56592 0.0
C169 C 0.97426 0.04938 0.54255 0.0
O170 O 0.93547 0.09763 0.55557 0.0
Zn171 Zn 0.95961 0.08265 0.55263 0.0
O172 O 0.96236 0.11676 0.56753 0.0
Zn173 Zn 0.98792 0.09588 0.55864 0.0
O174 O 0.00208 0.10531 0.49741 0.0
O175 O 0.97282 0.09127 0.4782 0.0
O176 O 0.98788 0.06315 0.54671 0.0
O177 O 0.9558 0.0543 0.5456 0.0
O178 O 0.97098 0.08604 0.63202 0.0
O179 O 0.00157 0.09895 0.62526 0.0
C180 C 0.9893 0.09968 0.46319 0.0
C181 C 0.98719 0.09258 0.65387 0.0
C182 C 0.64773 0.23475 0.41227 0.0
C183 C 0.64324 0.23808 0.22102 0.0
O184 O 0.64178 0.24922 0.38331 0.0
Zn185 Zn 0.64581 0.23603 0.31651 0.0
O186 O 0.65457 0.21856 0.39073 0.0
Zn187 Zn 0.65938 0.20784 0.31105 0.0
O188 O 0.68779 0.20428 0.30627 0.0
O189 O 0.67852 0.23631 0.30607 0.0
O190 O 0.65161 0.22155 0.2362 0.0
O191 O 0.63707 0.25066 0.25518 0.0
O192 O 0.62512 0.21014 0.32055 0.0
O193 O 0.6448 0.18351 0.30932 0.0
C194 C 0.69245 0.22281 0.30271 0.0
C195 C 0.62734 0.19086 0.31662 0.0
C196 C 0.52028 0.90416 0.15301 0.0
C197 C 0.52422 0.89939 0.9596 0.0
O198 O 0.50723 0.89666 0.12185 0.0
Zn199 Zn 0.52176 0.90202 0.05636 0.0
O200 O 0.53607 0.91263 0.13376 0.0
Zn201 Zn 0.54892 0.91835 0.05689 0.0
O202 O 0.54936 0.94716 0.05161 0.0
O203 O 0.51867 0.93438 0.04688 0.0
O204 O 0.53917 0.90901 0.97967 0.0
O205 O 0.51064 0.89236 0.98985 0.0
O206 O 0.54914 0.88416 0.06783 0.0
O207 O 0.57448 0.9058 0.06316 0.0
C208 C 0.53052 0.94974 0.04556 0.0
C209 C 0.56819 0.88786 0.06989 0.0
C210 C 0.85168 0.73888 0.92512 0.0
C211 C 0.85976 0.74498 0.73703 0.0
O212 O 0.85904 0.72628 0.8928 0.0
Zn213 Zn 0.85582 0.74278 0.83148 0.0
O214 O 0.84455 0.75579 0.90851 0.0
Zn215 Zn 0.84098 0.77039 0.83286 0.0
O216 O 0.81255 0.77298 0.82481 0.0
O217 O 0.82329 0.74153 0.81771 0.0
O218 O 0.85043 0.76043 0.75567 0.0
O219 O 0.86624 0.73143 0.7681 0.0
O220 O 0.87518 0.76905 0.84767 0.0
O221 O 0.85441 0.79512 0.84313 0.0
C222 C 0.8088 0.75449 0.81616 0.0
C223 C 0.87198 0.78821 0.85131 0.0
C224 C 0.51404 0.60602 0.47205 0.0
C225 C 0.5168 0.60045 0.66318 0.0
O226 O 0.53023 0.59698 0.48703 0.0
Zn227 Zn 0.54367 0.58863 0.56178 0.0
O228 O 0.50184 0.61272 0.5064 0.0
Zn229 Zn 0.51599 0.60325 0.56775 0.0
O230 O 0.54247 0.62289 0.57425 0.0
O231 O 0.56844 0.60254 0.56162 0.0
O232 O 0.50271 0.60728 0.63433 0.0
O233 O 0.53276 0.59315 0.64156 0.0
O234 O 0.5463 0.56005 0.5564 0.0
O235 O 0.51468 0.5706 0.55711 0.0
C236 C 0.56165 0.62011 0.57087 0.0
C237 C 0.52761 0.55614 0.5534 0.0
C238 C 0.62392 0.29835 0.84085 0.0
C239 C 0.68891 0.26845 0.80274 0.0
O240 O 0.62177 0.27928 0.83274 0.0
Zn241 Zn 0.64241 0.25447 0.81374 0.0
O242 O 0.64121 0.30638 0.83615 0.0
Zn243 Zn 0.65608 0.28272 0.82143 0.0
O244 O 0.64739 0.27471 0.74174 0.0
O245 O 0.63331 0.24452 0.7468 0.0
O246 O 0.68466 0.28651 0.81543 0.0
O247 O 0.67481 0.25513 0.80101 0.0
O248 O 0.63958 0.23651 0.87329 0.0
O249 O 0.65275 0.26608 0.89404 0.0
C250 C 0.63915 0.25942 0.71916 0.0
C251 C 0.64624 0.2486 0.90797 0.0
C252 C 0.98208 0.39654 0.96816 0.0
C253 C 0.97916 0.40248 0.15877 0.0
O254 O 0.96618 0.40615 0.98271 0.0
Zn255 Zn 0.95336 0.41577 0.05688 0.0
O256 O 0.9944 0.39017 1.00265 0.0
Zn257 Zn 0.98053 0.4004 0.06338 0.0
O258 O 0.95322 0.38161 0.06917 0.0
O259 O 0.928 0.40294 0.05695 0.0
O260 O 0.99329 0.39554 0.13024 0.0
O261 O 0.96361 0.41048 0.13681 0.0
O262 O 0.95203 0.4444 0.051 0.0
O263 O 0.9833 0.43304 0.05304 0.0
C264 C 0.93413 0.38509 0.06598 0.0
C265 C 0.97082 0.44787 0.04901 0.0
C266 C 0.85022 0.74278 0.4254 0.0
C267 C 0.85766 0.73618 0.23738 0.0
O268 O 0.84136 0.72672 0.40884 0.0
Zn269 Zn 0.83606 0.71284 0.33268 0.0
O270 O 0.85869 0.75463 0.39302 0.0
Zn271 Zn 0.85369 0.73869 0.3318 0.0
O272 O 0.82159 0.74357 0.31794 0.0
O273 O 0.80757 0.71346 0.3247 0.0
O274 O 0.86544 0.7489 0.2687 0.0
O275 O 0.84665 0.72184 0.25567 0.0
O276 O 0.84667 0.68665 0.3416 0.0
O277 O 0.86995 0.71036 0.34803 0.0
C278 C 0.80582 0.73227 0.31624 0.0
C279 C 0.86484 0.6916 0.35043 0.0
C280 C 0.50491 0.40177 0.04594 0.0
C281 C 0.50879 0.40634 0.85483 0.0
O282 O 0.52162 0.40984 0.03132 0.0
Zn283 Zn 0.53579 0.41713 0.95664 0.0
O284 O 0.49252 0.39563 0.01134 0.0
Zn285 Zn 0.50755 0.40406 0.95042 0.0
O286 O 0.53315 0.38284 0.94608 0.0
O287 O 0.55985 0.40216 0.95875 0.0
O288 O 0.4943 0.40045 0.88364 0.0
O289 O 0.52509 0.41279 0.87652 0.0
O290 O 0.53998 0.44545 0.9612 0.0
O291 O 0.5078 0.43694 0.96045 0.0
C292 C 0.55241 0.38481 0.95056 0.0
C293 C 0.52158 0.45058 0.9639 0.0
C294 C 0.839 0.25288 0.08882 0.0
C295 C 0.84824 0.2512 0.27938 0.0
O296 O 0.8331 0.26934 0.11078 0.0
Zn297 Zn 0.83102 0.28116 0.19015 0.0
O298 O 0.8456 0.23852 0.11727 0.0
Zn299 Zn 0.84387 0.25258 0.18389 0.0
O300 O 0.81145 0.25328 0.19929 0.0
O301 O 0.80285 0.28553 0.19954 0.0
O302 O 0.8537 0.23841 0.24493 0.0
O303 O 0.83997 0.26783 0.26455 0.0
O304 O 0.84626 0.3051 0.18512 0.0
O305 O 0.86487 0.27782 0.1724 0.0
C306 C 0.79791 0.2671 0.20438 0.0
C307 C 0.86312 0.2972 0.17346 0.0
C308 C 0.95084 0.61789 0.45865 0.0
C309 C 0.98548 0.55392 0.48348 0.0
O310 O 0.97009 0.62037 0.45781 0.0
Zn311 Zn 0.99644 0.60094 0.46635 0.0
O312 O 0.9436 0.60048 0.46803 0.0
Zn313 Zn 0.96845 0.58623 0.47236 0.0
O314 O 0.98096 0.596 0.54604 0.0
O315 O 0.00988 0.61104 0.52815 0.0
O316 O 0.96668 0.55753 0.48107 0.0
O317 O -0.00193 0.56856 0.4783 0.0
O318 O 0.00963 0.60456 0.3992 0.0
O319 O 0.97974 0.58994 0.39359 0.0
C320 C 0.99696 0.60511 0.56172 0.0
C321 C 0.99548 0.59728 0.37122 0.0
C322 C 0.65128 0.75597 0.6174 0.0
C323 C 0.64261 0.74912 0.80553 0.0
O324 O 0.65819 0.73902 0.63417 0.0
Zn325 Zn 0.66172 0.72425 0.70939 0.0
O326 O 0.6444 0.76888 0.64973 0.0
Zn327 Zn 0.64738 0.75229 0.71132 0.0
O328 O 0.67973 0.75295 0.72552 0.0
O329 O 0.69018 0.72142 0.71806 0.0
O330 O 0.63685 0.76324 0.7752 0.0
O331 O 0.65176 0.73369 0.78628 0.0
O332 O 0.64783 0.69983 0.69758 0.0
O333 O 0.62774 0.7265 0.6938 0.0
C334 C 0.69408 0.73986 0.72707 0.0
C335 C 0.63048 0.70732 0.6892 0.0
C336 C 0.48249 0.40273 0.54804 0.0
C337 C 0.49229 0.40689 0.3584 0.0
O338 O 0.49638 0.39517 0.5198 0.0
Zn339 Zn 0.48665 0.40477 0.45288 0.0
O340 O 0.46797 0.41243 0.52593 0.0
Zn341 Zn 0.46014 0.42106 0.44607 0.0
O342 O 0.43484 0.40923 0.43616 0.0
O343 O 0.4594 0.38666 0.4364 0.0
O344 O 0.47557 0.41523 0.37213 0.0
O345 O 0.50377 0.39943 0.39336 0.0
O346 O 0.48947 0.43748 0.4629 0.0
O347 O 0.45888 0.44963 0.44977 0.0
C348 C 0.44053 0.39103 0.43147 0.0
C349 C 0.4773 0.45262 0.46062 0.0
C350 C 0.30598 0.73898 0.21241 0.0
C351 C 0.36746 0.70139 0.18549 0.0
O352 O 0.30888 0.72023 0.2054 0.0
Zn353 Zn 0.33732 0.7214 0.1979 0.0
O354 O 0.32107 0.75119 0.21011 0.0
Zn355 Zn 0.35365 0.74799 0.1973 0.0
O356 O 0.35804 0.76343 0.13529 0.0
O357 O 0.34172 0.73482 0.12095 0.0
O358 O 0.37172 0.72039 0.18571 0.0
O359 O 0.34937 0.69584 0.19239 0.0
O360 O 0.34693 0.73216 0.27436 0.0
O361 O 0.36441 0.75996 0.25937 0.0
C362 C 0.34981 0.75116 0.10359 0.0
C363 C 0.35705 0.74734 0.2916 0.0
C364 C 0.05319 0.61871 0.94145 0.0
C365 C 0.02235 0.55334 0.97432 0.0
O366 O 0.06133 0.60133 0.94416 0.0
Zn367 Zn 0.03764 0.58631 0.95895 0.0
O368 O 0.03421 0.62071 0.95044 0.0
Zn369 Zn 0.00938 0.60025 0.96818 0.0
O370 O 0.00012 0.60881 0.03605 0.0
O371 O 0.0304 0.59482 0.0386 0.0
O372 O 0.00942 0.56779 0.97695 0.0
O373 O 0.0406 0.55737 0.96331 0.0
O374 O 0.02094 0.5911 0.88732 0.0
O375 O 0.99152 0.60444 0.90907 0.0
C376 C 0.01541 0.60309 0.06232 0.0
C377 C 0.00366 0.59822 0.87393 0.0
C378 C 0.12813 0.29746 0.67157 0.0
C379 C 0.18845 0.25822 0.70197 0.0
O380 O 0.14631 0.30255 0.67928 0.0
Zn381 Zn 0.15769 0.27665 0.68624 0.0
O382 O 0.12339 0.27857 0.67253 0.0
Zn383 Zn 0.14059 0.25051 0.68579 0.0
O384 O 0.12944 0.23909 0.74845 0.0
O385 O 0.14786 0.26631 0.76285 0.0
O386 O 0.17304 0.24642 0.69952 0.0
O387 O 0.1861 0.27703 0.69442 0.0
O388 O 0.15352 0.26293 0.60965 0.0
O389 O 0.13616 0.23493 0.62364 0.0
C390 C 0.13735 0.25147 0.78048 0.0
C391 C 0.1451 0.24678 0.59215 0.0
C392 C 0.50183 0.60161 0.15937 0.0
C393 C 0.49171 0.60754 0.97013 0.0
O394 O 0.51407 0.60765 0.12434 0.0
Zn395 Zn 0.49619 0.60475 0.06493 0.0
O396 O 0.48419 0.59548 0.14576 0.0
Zn397 Zn 0.4677 0.59201 0.07265 0.0
O398 O 0.46293 0.56361 0.06805 0.0
O399 O 0.49468 0.5721 0.05432 0.0
O400 O 0.47614 0.59986 0.99268 0.0
O401 O 0.50666 0.61306 0.99787 0.0
O402 O 0.47184 0.62634 0.08207 0.0
O403 O 0.44439 0.60749 0.08526 0.0
C404 C 0.48084 0.5585 0.05648 0.0
C405 C 0.45268 0.62469 0.08931 0.0
C406 C 0.15317 0.74324 0.90836 0.0
C407 C 0.14839 0.74036 0.71985 0.0
O408 O 0.14674 0.75614 0.87555 0.0
Zn409 Zn 0.1509 0.74034 0.81433 0.0
O410 O 0.16023 0.72624 0.8921 0.0
Zn411 Zn 0.16525 0.71284 0.81469 0.0
O412 O 0.19355 0.70956 0.81126 0.0
O413 O 0.18377 0.74131 0.80393 0.0
O414 O 0.15739 0.72443 0.73698 0.0
O415 O 0.14154 0.7532 0.75224 0.0
O416 O 0.13096 0.71387 0.82478 0.0
O417 O 0.15189 0.68803 0.81762 0.0
C418 C 0.19793 0.72797 0.80395 0.0
C419 C 0.13414 0.69464 0.82418 0.0
C420 C 0.04081 0.37381 0.58281 0.0
C421 C 0.00695 0.43808 0.55421 0.0
O422 O 0.04803 0.39156 0.57998 0.0
Zn423 Zn 0.02358 0.40574 0.5679 0.0
O424 O 0.02176 0.3711 0.57588 0.0
Zn425 Zn 0.99584 0.39068 0.56067 0.0
O426 O 0.98594 0.38235 0.49266 0.0
O427 O 0.01559 0.39751 0.4887 0.0
O428 O 0.9945 0.42322 0.5529 0.0
O429 O 0.02552 0.43467 0.56296 0.0
O430 O 0.00759 0.40095 0.64071 0.0
O431 O 0.97874 0.38602 0.62101 0.0
C432 C 0.00065 0.38895 0.46559 0.0
C433 C 0.99067 0.39333 0.65524 0.0
C434 C 0.35234 0.26097 0.20871 0.0
C435 C 0.34448 0.26249 0.39944 0.0
O436 O 0.35767 0.24792 0.24268 0.0
Zn437 Zn 0.34828 0.26197 0.30418 0.0
O438 O 0.34423 0.2776 0.22406 0.0
Zn439 Zn 0.33556 0.29074 0.2986 0.0
O440 O 0.35116 0.31452 0.30319 0.0
O441 O 0.36949 0.28696 0.31472 0.0
O442 O 0.33838 0.27892 0.37767 0.0
O443 O 0.35063 0.248 0.37077 0.0
O444 O 0.31585 0.26286 0.29062 0.0
O445 O 0.3072 0.29509 0.29053 0.0
C446 C 0.368 0.30635 0.31397 0.0
C447 C 0.30225 0.27665 0.2862 0.0
H448 H 0.0209 0.09746 0.71454 0.0
H449 H 0.95611 0.09091 0.72364 0.0
H450 H 0.95746 0.0945 0.81904 0.0
H451 H 0.97696 0.09903 0.90015 0.0
H452 H 0.04189 0.10325 0.89263 0.0
H453 H 0.04058 0.10128 0.79643 0.0
C454 C 0.00709 0.0968 0.73745 0.0
C455 C 0.98844 0.0939 0.71194 0.0
C456 C 0.00799 0.09861 0.79256 0.0
C457 C 0.97069 0.09297 0.74223 0.0
C458 C 0.97142 0.09513 0.79682 0.0
C459 C 0.9908 0.09978 0.87738 0.0
C460 C 0.00947 0.10152 0.90329 0.0
C461 C 0.98997 0.09797 0.82239 0.0
C462 C 0.02732 0.10201 0.87344 0.0
C463 C 0.02658 0.10082 0.81851 0.0
H464 H 0.14363 0.71752 0.98733 0.0
H465 H 0.15943 0.77955 0.95482 0.0
H466 H 0.15644 0.78791 0.04823 0.0
H467 H 0.14974 0.77743 0.13912 0.0
H468 H 0.13183 0.71585 0.1711 0.0
H469 H 0.13484 0.70754 0.07786 0.0
C470 C 0.14655 0.7328 1.00099 0.0
C471 C 0.15201 0.74785 0.9648 0.0
C472 C 0.14417 0.73762 0.05441 0.0
C473 C 0.15531 0.76773 0.98234 0.0
C474 C 0.15356 0.77251 0.03559 0.0
C475 C 0.14633 0.76224 0.1256 0.0
C476 C 0.14065 0.74729 0.16195 0.0
C477 C 0.14799 0.75758 0.07196 0.0
C478 C 0.13614 0.72769 0.14385 0.0
C479 C 0.138 0.72287 0.0906 0.0
H480 H 0.48613 0.89581 0.21036 0.0
H481 H 0.54984 0.90813 0.22667 0.0
H482 H 0.54724 0.90468 0.32191 0.0
H483 H 0.52682 0.89906 0.40145 0.0
H484 H 0.46273 0.8891 0.38638 0.0
H485 H 0.46555 0.89051 0.29042 0.0
C486 C 0.49943 0.89771 0.23477 0.0
C487 C 0.51813 0.90228 0.21114 0.0
C488 C 0.49779 0.89603 0.29 0.0
C489 C 0.5352 0.90478 0.24358 0.0
C490 C 0.53376 0.90272 0.2982 0.0
C491 C 0.51352 0.89693 0.37711 0.0
C492 C 0.49463 0.89378 0.40107 0.0
C493 C 0.51514 0.89842 0.32194 0.0
C494 C 0.47747 0.89148 0.36895 0.0
C495 C 0.47906 0.89234 0.31403 0.0
H496 H 0.34775 0.22857 0.46051 0.0
H497 H 0.34438 0.29374 0.46887 0.0
H498 H 0.34801 0.29239 0.56423 0.0
H499 H 0.35159 0.27283 0.64562 0.0
H500 H 0.35238 0.20765 0.63911 0.0
H501 H 0.35057 0.20884 0.54282 0.0
C502 C 0.34779 0.24245 0.48327 0.0
C503 C 0.34575 0.26121 0.45754 0.0
C504 C 0.34958 0.24158 0.53843 0.0
C505 C 0.34573 0.27908 0.48763 0.0
C506 C 0.34793 0.27834 0.54221 0.0
C507 C 0.35165 0.2589 0.62304 0.0
C508 C 0.35239 0.24019 0.64925 0.0
C509 C 0.34987 0.2597 0.56802 0.0
C510 C 0.35195 0.22224 0.61966 0.0
C511 C 0.35084 0.22292 0.56468 0.0
H512 H 0.01745 0.89546 0.79421 0.0
H513 H 0.95274 0.90247 0.78348 0.0
H514 H 0.95443 0.89892 0.688 0.0
H515 H 0.97427 0.89445 0.60728 0.0
H516 H 0.03916 0.88981 0.61685 0.0
H517 H 0.03742 0.89158 0.713 0.0
C518 C 0.00372 0.8962 0.77095 0.0
C519 C 0.985 0.89924 0.79598 0.0
C520 C 0.00483 0.89444 0.71586 0.0
C521 C 0.96737 0.90029 0.76524 0.0
C522 C 0.9683 0.89816 0.71061 0.0
C523 C 0.98801 0.89357 0.63048 0.0
C524 C 0.0068 0.89178 0.60512 0.0
C525 C 0.98694 0.89525 0.6855 0.0
C526 C 0.02451 0.8911 0.63556 0.0
C527 C 0.02352 0.89217 0.69048 0.0
H528 H 0.35105 0.78351 0.87061 0.0
H529 H 0.3572 0.7196 0.83939 0.0
H530 H 0.3558 0.71235 0.93342 0.0
H531 H 0.35227 0.72409 0.02449 0.0
H532 H 0.34844 0.78805 0.05651 0.0
H533 H 0.34935 0.79541 0.96215 0.0
C534 C 0.35217 0.76802 0.8845 0.0
C535 C 0.35416 0.75213 0.84825 0.0
C536 C 0.35162 0.76397 0.93864 0.0
C537 C 0.35577 0.73212 0.86663 0.0
C538 C 0.35486 0.72794 0.92034 0.0
C539 C 0.35152 0.73961 0.01063 0.0
C540 C 0.35007 0.75551 0.04694 0.0
C541 C 0.35263 0.74372 0.95664 0.0
C542 C 0.34952 0.7756 0.02894 0.0
C543 C 0.35005 0.7798 0.97514 0.0
H544 H 0.45602 0.09623 0.12703 0.0
H545 H 0.51813 0.10972 0.08926 0.0
H546 H 0.52695 0.10875 0.18252 0.0
H547 H 0.51732 0.10288 0.2746 0.0
H548 H 0.45496 0.09147 0.31344 0.0
H549 H 0.44592 0.09273 0.21997 0.0
C550 C 0.47145 0.0991 0.13927 0.0
C551 C 0.48641 0.10295 0.1012 0.0
C552 C 0.4764 0.09872 0.19308 0.0
C553 C 0.50631 0.10681 0.11772 0.0
C554 C 0.5114 0.10614 0.17104 0.0
C555 C 0.50176 0.1006 0.2625 0.0
C556 C 0.48685 0.0968 0.30062 0.0
C557 C 0.49663 0.10186 0.20898 0.0
C558 C 0.46669 0.09433 0.28468 0.0
C559 C 0.46153 0.09505 0.23131 0.0
H560 H 0.14459 0.27354 0.51214 0.0
H561 H 0.14617 0.20963 0.54598 0.0
H562 H 0.14703 0.20199 0.4517 0.0
H563 H 0.14752 0.21369 0.35949 0.0
H564 H 0.14325 0.27763 0.32667 0.0
H565 H 0.14314 0.28508 0.42062 0.0
C566 C 0.14521 0.25796 0.49874 0.0
C567 C 0.14552 0.24217 0.53557 0.0
C568 C 0.14512 0.25371 0.44473 0.0
C569 C 0.14593 0.22202 0.51804 0.0
C570 C 0.14644 0.21766 0.46426 0.0
C571 C 0.14652 0.22922 0.37306 0.0
C572 C 0.14545 0.24507 0.33637 0.0
C573 C 0.14605 0.2334 0.42723 0.0
C574 C 0.14396 0.26515 0.35426 0.0
C575 C 0.14399 0.26945 0.40794 0.0
H576 H 0.02291 0.89379 0.2748 0.0
H577 H 0.95999 0.90066 0.31494 0.0
H578 H 0.95093 0.90023 0.22148 0.0
H579 H 0.96107 0.89856 0.12821 0.0
H580 H 0.02389 0.88965 0.08901 0.0
H581 H 0.03278 0.89002 0.18222 0.0
C582 C 0.00722 0.89526 0.26303 0.0
C583 C 0.99216 0.8975 0.30156 0.0
C584 C 0.00211 0.89452 0.20943 0.0
C585 C 0.97185 0.89898 0.2859 0.0
C586 C 0.96667 0.89874 0.23252 0.0
C587 C 0.97669 0.8966 0.14012 0.0
C588 C 0.9918 0.89418 0.10168 0.0
C589 C 0.98169 0.89659 0.19392 0.0
C590 C 0.01195 0.89147 0.11775 0.0
C591 C 0.01707 0.89178 0.17106 0.0
H592 H 0.8397 0.2186 0.02862 0.0
H593 H 0.83925 0.2838 0.01835 0.0
H594 H 0.84125 0.28187 0.92266 0.0
H595 H 0.8429 0.2618 0.84164 0.0
H596 H 0.84076 0.19668 0.85038 0.0
H597 H 0.84014 0.1984 0.94672 0.0
C598 C 0.84001 0.23236 1.00537 0.0
C599 C 0.83933 0.25131 0.03065 0.0
C600 C 0.84081 0.23116 0.95006 0.0
C601 C 0.8396 0.26901 0.99995 0.0
C602 C 0.84085 0.26794 0.94518 0.0
C603 C 0.8425 0.24798 0.86468 0.0
C604 C 0.84213 0.22913 0.83904 0.0
C605 C 0.84149 0.24911 0.91982 0.0
C606 C 0.84115 0.21136 0.8693 0.0
C607 C 0.84076 0.21235 0.92434 0.0
H608 H 0.51346 0.10077 0.79301 0.0
H609 H 0.44897 0.09196 0.78338 0.0
H610 H 0.45039 0.09483 0.68775 0.0
H611 H 0.46992 0.0992 0.60664 0.0
H612 H 0.53467 0.10545 0.61482 0.0
H613 H 0.5332 0.10442 0.71113 0.0
C614 C 0.49974 0.09949 0.76992 0.0
C615 C 0.48114 0.09614 0.7953 0.0
C616 C 0.5007 0.10081 0.7147 0.0
C617 C 0.4635 0.09438 0.76484 0.0
C618 C 0.46427 0.09612 0.71013 0.0
C619 C 0.48368 0.10058 0.62955 0.0
C620 C 0.50235 0.10263 0.60378 0.0
C621 C 0.48278 0.0993 0.68465 0.0
C622 C 0.52011 0.10395 0.63387 0.0
C623 C 0.51928 0.10332 0.68888 0.0
H624 H 0.64221 0.72839 0.54366 0.0
H625 H 0.65595 0.79163 0.56454 0.0
H626 H 0.65327 0.79708 0.46926 0.0
H627 H 0.64814 0.78338 0.38005 0.0
H628 H 0.63233 0.72043 0.36085 0.0
H629 H 0.63432 0.7154 0.45579 0.0
C630 C 0.64471 0.74334 0.52719 0.0
C631 C 0.64966 0.75953 0.56048 0.0
C632 C 0.64257 0.74641 0.47296 0.0
C633 C 0.65231 0.77895 0.53925 0.0
C634 C 0.65075 0.78205 0.48497 0.0
C635 C 0.64494 0.76862 0.39675 0.0
C636 C 0.64024 0.75228 0.36347 0.0
C637 C 0.646 0.76584 0.45143 0.0
C638 C 0.63592 0.73328 0.38561 0.0
C639 C 0.6372 0.73034 0.43986 0.0
H640 H 0.96324 0.09716 0.38041 0.0
H641 H 0.02626 0.10541 0.41851 0.0
H642 H 0.03488 0.10476 0.3252 0.0
H643 H 0.02476 0.10066 0.23294 0.0
H644 H 0.9617 0.09434 0.19372 0.0
H645 H 0.95283 0.09537 0.2873 0.0
C646 C 0.97884 0.09895 0.36823 0.0
C647 C 0.99408 0.10122 0.40642 0.0
C648 C 0.9837 0.09875 0.31437 0.0
C649 C 0.01421 0.1037 0.38999 0.0
C650 C 0.01918 0.10322 0.33662 0.0
C651 C 0.00908 0.09946 0.24494 0.0
C652 C 0.99392 0.09716 0.20667 0.0
C653 C 0.00409 0.10052 0.29854 0.0
C654 C 0.97363 0.09605 0.22257 0.0
C655 C 0.96857 0.09662 0.27601 0.0
H656 H 0.64602 0.21214 0.13798 0.0
H657 H 0.63814 0.27526 0.17659 0.0
H658 H 0.63888 0.28405 0.08332 0.0
H659 H 0.64254 0.27398 0.99086 0.0
H660 H 0.64834 0.21079 0.95121 0.0
H661 H 0.6477 0.20184 0.04478 0.0
C662 C 0.64437 0.22781 0.12593 0.0
C663 C 0.64212 0.24303 0.16424 0.0
C664 C 0.64457 0.23275 0.07208 0.0
C665 C 0.63982 0.26324 0.14797 0.0
C666 C 0.64034 0.2683 0.09462 0.0
C667 C 0.64375 0.25825 1.00276 0.0
C668 C 0.64574 0.24308 0.96433 0.0
C669 C 0.64288 0.25321 0.05639 0.0
C670 C 0.64686 0.22274 0.98016 0.0
C671 C 0.6465 0.21762 0.0336 0.0
H672 H 0.53083 0.8998 0.71063 0.0
H673 H 0.46592 0.89839 0.72579 0.0
H674 H 0.46894 0.89643 0.82121 0.0
H675 H 0.48986 0.89605 0.90121 0.0
H676 H 0.55464 0.89982 0.88725 0.0
H677 H 0.55186 0.89974 0.79123 0.0
C678 C 0.51737 0.89902 0.73485 0.0
C679 C 0.49819 0.89931 0.71084 0.0
C680 C 0.51918 0.89825 0.7902 0.0
C681 C 0.48089 0.89839 0.743 0.0
C682 C 0.48258 0.89717 0.79774 0.0
C683 C 0.50337 0.89661 0.87713 0.0
C684 C 0.52243 0.89777 0.90144 0.0
C685 C 0.50163 0.89719 0.82186 0.0
C686 C 0.53978 0.89887 0.86958 0.0
C687 C 0.5382 0.89887 0.81461 0.0
H688 H 0.85517 0.77313 0.65993 0.0
H689 H 0.8661 0.70946 0.68553 0.0
H690 H 0.86337 0.70312 0.59129 0.0
H691 H 0.85653 0.71541 0.50193 0.0
H692 H 0.84799 0.77923 0.47483 0.0
H693 H 0.85093 0.78582 0.56946 0.0
C694 C 0.85714 0.75792 0.64477 0.0
C695 C 0.86073 0.74179 0.67964 0.0
C696 C 0.85571 0.75438 0.59044 0.0
C697 C 0.86342 0.72216 0.65948 0.0
C698 C 0.86171 0.71848 0.60564 0.0
C699 C 0.8552 0.73072 0.51697 0.0
C700 C 0.8517 0.74679 0.48209 0.0
C701 C 0.85756 0.73442 0.5709 0.0
C702 C 0.85053 0.76665 0.5014 0.0
C703 C 0.85225 0.7704 0.55531 0.0
H704 H 0.477 0.60678 0.24299 0.0
H705 H 0.53959 0.59826 0.20158 0.0
H706 H 0.54905 0.59914 0.29473 0.0
H707 H 0.53936 0.60179 0.38817 0.0
H708 H 0.47693 0.61245 0.42866 0.0
H709 H 0.46762 0.61147 0.33576 0.0
C710 C 0.4927 0.60504 0.25444 0.0
C711 C 0.50756 0.60222 0.21561 0.0
C712 C 0.49806 0.60607 0.30789 0.0
C713 C 0.52788 0.60039 0.23084 0.0
C714 C 0.53329 0.60089 0.28405 0.0
C715 C 0.52374 0.60401 0.37661 0.0
C716 C 0.50887 0.60712 0.41537 0.0
C717 C 0.51849 0.60367 0.32296 0.0
C718 C 0.48871 0.61013 0.39969 0.0
C719 C 0.48333 0.60946 0.34655 0.0
H720 H 0.64285 0.26871 0.47191 0.0
H721 H 0.64853 0.20378 0.48303 0.0
H722 H 0.64474 0.20561 0.57844 0.0
H723 H 0.64054 0.22564 0.65902 0.0
H724 H 0.63727 0.29071 0.64914 0.0
H725 H 0.63915 0.28886 0.553 0.0
C726 C 0.64324 0.25497 0.49523 0.0
C727 C 0.64598 0.23614 0.47031 0.0
C728 C 0.64135 0.25615 0.5503 0.0
C729 C 0.64658 0.21848 0.50116 0.0
C730 C 0.64432 0.2195 0.55576 0.0
C731 C 0.63996 0.2394 0.63576 0.0
C732 C 0.63852 0.25827 0.66105 0.0
C733 C 0.64173 0.23824 0.58075 0.0
C734 C 0.63825 0.276 0.6305 0.0
C735 C 0.6394 0.27494 0.57559 0.0
H736 H 0.01645 0.39091 0.73735 0.0
H737 H 0.95307 0.39473 0.69939 0.0
H738 H 0.94466 0.39584 0.79328 0.0
H739 H 0.95558 0.39683 0.88618 0.0
H740 H 0.01893 0.39081 0.92329 0.0
H741 H 0.02711 0.38932 0.82972 0.0
C742 C 0.00079 0.39197 0.7497 0.0
C743 C 0.9854 0.39297 0.71169 0.0
C744 C 0.99609 0.39218 0.80353 0.0
C745 C 0.96516 0.39396 0.72806 0.0
C746 C 0.96037 0.39465 0.78166 0.0
C747 C 0.97115 0.39509 0.8737 0.0
C748 C 0.98664 0.39407 0.91157 0.0
C749 C 0.97573 0.39393 0.81975 0.0
C750 C 0.00673 0.39158 0.89493 0.0
C751 C 0.01143 0.39081 0.84142 0.0
H752 H 0.85147 0.70841 0.16008 0.0
H753 H 0.86729 0.77098 0.18626 0.0
H754 H 0.86623 0.77739 0.09182 0.0
H755 H 0.85953 0.76561 1.00208 0.0
H756 H 0.84613 0.70269 0.97437 0.0
H757 H 0.84737 0.69598 0.06924 0.0
C758 C 0.85486 0.72339 0.145 0.0
C759 C 0.85935 0.73921 0.18006 0.0
C760 C 0.85443 0.72694 0.09054 0.0
C761 C 0.86388 0.75851 0.16005 0.0
C762 C 0.86315 0.76224 0.10609 0.0
C763 C 0.8568 0.75046 0.017 0.0
C764 C 0.85242 0.73471 0.98185 0.0
C765 C 0.85816 0.74665 0.0711 0.0
C766 C 0.8494 0.71504 1.00109 0.0
C767 C 0.85013 0.71122 0.05516 0.0
H768 H 0.53022 0.40352 0.13039 0.0
H769 H 0.46724 0.39871 0.08834 0.0
H770 H 0.45774 0.40038 0.18108 0.0
H771 H 0.46723 0.40411 0.27424 0.0
H772 H 0.53023 0.4066 0.31695 0.0
H773 H 0.53982 0.40501 0.22404 0.0
C774 C 0.51443 0.40274 0.14159 0.0
C775 C 0.49947 0.40108 0.10247 0.0
C776 C 0.50907 0.40343 0.19512 0.0
C777 C 0.47907 0.39989 0.11763 0.0
C778 C 0.47361 0.40096 0.17067 0.0
C779 C 0.48305 0.40436 0.26309 0.0
C780 C 0.498 0.4057 0.30224 0.0
C781 C 0.48845 0.40291 0.20973 0.0
C782 C 0.51845 0.40562 0.28744 0.0
C783 C 0.52394 0.40472 0.23435 0.0
H784 H 0.8456 0.27684 0.36322 0.0
H785 H 0.85275 0.21379 0.32301 0.0
H786 H 0.85031 0.2045 0.41574 0.0
H787 H 0.84464 0.21409 0.50811 0.0
H788 H 0.83964 0.27717 0.54939 0.0
H789 H 0.84265 0.28665 0.45655 0.0
C790 C 0.84682 0.26109 0.37482 0.0
C791 C 0.84926 0.24604 0.33612 0.0
C792 C 0.84558 0.25584 0.4284 0.0
C793 C 0.85096 0.2257 0.35189 0.0
C794 C 0.84943 0.22035 0.40495 0.0
C795 C 0.84418 0.2299 0.49667 0.0
C796 C 0.84164 0.2449 0.53533 0.0
C797 C 0.84644 0.23525 0.44345 0.0
C798 C 0.84149 0.26535 0.52023 0.0
C799 C 0.84322 0.27078 0.46719 0.0
H800 H 0.02967 0.60487 0.79431 0.0
H801 H 0.96638 0.59649 0.82787 0.0
H802 H 0.95852 0.59885 0.73375 0.0
H803 H 0.97 0.60191 0.64189 0.0
H804 H 0.03321 0.61197 0.60946 0.0
H805 H 0.04074 0.61066 0.70347 0.0
C806 C 0.01416 0.60351 0.78094 0.0
C807 C -0.00136 0.60017 0.81763 0.0
C808 C 0.00977 0.60532 0.72717 0.0
C809 C 0.97856 0.59894 0.80014 0.0
C810 C 0.97409 0.60029 0.74644 0.0
C811 C 0.98539 0.60399 0.65545 0.0
C812 C 0.00104 0.60688 0.61872 0.0
C813 C 0.98961 0.6033 0.70959 0.0
C814 C 0.02088 0.60977 0.63689 0.0
C815 C 0.02523 0.60889 0.69062 0.0
H816 H 0.64332 0.77506 0.04333 0.0
H817 H 0.65101 0.71082 0.06498 0.0
H818 H 0.64866 0.7056 0.96955 0.0
H819 H 0.64569 0.71971 0.88001 0.0
H820 H 0.63593 0.78389 0.8601 0.0
H821 H 0.63747 0.78871 0.95512 0.0
C822 C 0.64456 0.75993 0.02701 0.0
C823 C 0.64771 0.74337 0.06057 0.0
C824 C 0.64265 0.75705 0.97268 0.0
C825 C 0.64874 0.72377 0.0395 0.0
C826 C 0.64738 0.72081 0.98512 0.0
C827 C 0.64371 0.73471 0.89656 0.0
C828 C 0.64086 0.75143 0.86308 0.0
C829 C 0.64448 0.73738 0.95132 0.0
C830 C 0.6381 0.77076 0.88502 0.0
C831 C 0.63911 0.77357 0.93932 0.0
H832 H 0.47448 0.40493 0.79576 0.0
H833 H 0.53949 0.40517 0.7835 0.0
H834 H 0.53705 0.4026 0.68779 0.0
H835 H 0.51647 0.40094 0.60733 0.0
H836 H 0.45153 0.40334 0.61883 0.0
H837 H 0.45387 0.40405 0.715 0.0
C838 C 0.4881 0.40439 0.77211 0.0
C839 C 0.50714 0.40522 0.79675 0.0
C840 C 0.48659 0.4033 0.71696 0.0
C841 C 0.52465 0.40468 0.76553 0.0
C842 C 0.52327 0.40313 0.71079 0.0
C843 C 0.50284 0.40139 0.63096 0.0
C844 C 0.48385 0.40187 0.60611 0.0
C845 C 0.50433 0.40246 0.68607 0.0
C846 C 0.46631 0.40288 0.63712 0.0
C847 C 0.46765 0.40333 0.69206 0.0
H848 H 0.35026 0.72066 0.37061 0.0
H849 H 0.36621 0.7829 0.34018 0.0
H850 H 0.36435 0.79044 0.43405 0.0
H851 H 0.35698 0.77961 0.52457 0.0
H852 H 0.343 0.71701 0.55551 0.0
H853 H 0.34509 0.70935 0.46151 0.0
C854 C 0.35348 0.73583 0.38461 0.0
C855 C 0.35826 0.75121 0.34859 0.0
C856 C 0.35249 0.74004 0.43857 0.0
C857 C 0.36257 0.77076 0.36721 0.0
C858 C 0.36138 0.77514 0.42082 0.0
C859 C 0.35429 0.76434 0.51049 0.0
C860 C 0.34959 0.74893 0.54636 0.0
C861 C 0.35608 0.75996 0.45674 0.0
C862 C 0.34656 0.7291 0.52823 0.0
C863 C 0.34778 0.72471 0.47465 0.0
H864 H 0.98279 0.60187 0.12579 0.0
H865 H 0.04778 0.60589 0.12852 0.0
H866 H 0.04749 0.60501 0.22491 0.0
H867 H 0.02863 0.60198 0.30843 0.0
H868 H 0.96377 0.59543 0.30381 0.0
H869 H 0.96415 0.59827 0.20828 0.0
C870 C 0.99686 0.60281 0.14754 0.0
C871 C 0.01525 0.60415 0.1203 0.0
C872 C 0.99661 0.60161 0.20262 0.0
C873 C 0.03342 0.60493 0.14881 0.0
C874 C 0.03326 0.60437 0.20384 0.0
C875 C 0.01462 0.60118 0.28642 0.0
C876 C 0.99623 0.59844 0.31318 0.0
C877 C 0.01494 0.6025 0.23118 0.0
C878 C 0.97817 0.59734 0.28417 0.0
C879 C 0.97833 0.59907 0.22951 0.0
H880 H 0.14558 0.27775 0.85953 0.0
H881 H 0.12811 0.21592 0.82928 0.0
H882 H 0.13152 0.20792 0.92266 0.0
H883 H 0.14076 0.21821 0.0127 0.0
H884 H 0.15606 0.28048 0.04354 0.0
H885 H 0.15247 0.28857 0.95006 0.0
C886 C 0.14233 0.26258 0.87348 0.0
C887 C 0.13669 0.24745 0.83757 0.0
C888 C 0.14422 0.2581 0.92718 0.0
C889 C 0.13237 0.22788 0.8562 0.0
C890 C 0.13448 0.22324 0.90953 0.0
C891 C 0.14342 0.23349 0.99866 0.0
C892 C 0.14895 0.24869 0.03436 0.0
C893 C 0.14069 0.23815 0.94524 0.0
C894 C 0.15191 0.26855 0.01637 0.0
C895 C 0.14981 0.27318 0.96309 0.0
H896 H 0.48283 0.60535 0.72254 0.0
H897 H 0.54752 0.59846 0.73428 0.0
H898 H 0.54555 0.60149 0.82986 0.0
H899 H 0.52548 0.60555 0.91033 0.0
H900 H 0.46061 0.61004 0.89976 0.0
H901 H 0.4626 0.60869 0.80358 0.0
C902 C 0.49649 0.60452 0.74605 0.0
C903 C 0.5153 0.60168 0.72127 0.0
C904 C 0.49522 0.60596 0.80119 0.0
C905 C 0.53284 0.6005 0.75232 0.0
C906 C 0.53174 0.60233 0.80701 0.0
C907 C 0.5118 0.60648 0.88692 0.0
C908 C 0.49294 0.60813 0.91202 0.0
C909 C 0.51302 0.60505 0.83186 0.0
C910 C 0.47531 0.60886 0.88127 0.0
C911 C 0.47644 0.60804 0.82633 0.0
H912 H 0.14724 0.77398 0.48798 0.0
H913 H 0.15009 0.71024 0.45257 0.0
H914 H 0.15048 0.70221 0.54659 0.0
H915 H 0.15011 0.71346 0.63901 0.0
H916 H 0.14468 0.77717 0.67357 0.0
H917 H 0.14505 0.78507 0.57986 0.0
C918 C 0.14805 0.75836 0.501 0.0
C919 C 0.14884 0.74272 0.46378 0.0
C920 C 0.14768 0.75385 0.5549 0.0
C921 C 0.14949 0.72251 0.4808 0.0
C922 C 0.14972 0.71792 0.53444 0.0
C923 C 0.14895 0.72904 0.62589 0.0
C924 C 0.14742 0.74469 0.66302 0.0
C925 C 0.14881 0.73348 0.57186 0.0
C926 C 0.14575 0.76483 0.64566 0.0
C927 C 0.14606 0.76939 0.59211 0.0
H928 H 0.01215 0.3948 0.21973 0.0
H929 H 0.94778 0.40481 0.22779 0.0
H930 H 0.94851 0.39966 0.32289 0.0
H931 H 0.96749 0.393 0.40421 0.0
H932 H 0.03214 0.38557 0.39738 0.0
H933 H 0.03125 0.38871 0.30139 0.0
C934 C -0.00171 0.39586 0.24233 0.0
C935 C 0.97996 0.40022 0.21669 0.0
C936 C -0.00115 0.39316 0.29719 0.0
C937 C 0.96214 0.40165 0.24657 0.0
C938 C 0.96251 0.39859 0.30095 0.0
C939 C 0.98132 0.39176 0.38154 0.0
C940 C -0.00018 0.3888 0.40756 0.0
C941 C 0.98077 0.39435 0.32668 0.0
C942 C 0.01771 0.38772 0.37801 0.0
C943 C 0.01721 0.3896 0.32323 0.0
H944 H 0.35052 0.28735 0.12634 0.0
H945 H 0.35663 0.22387 0.16337 0.0
H946 H 0.35501 0.21543 0.07001 0.0
H947 H 0.35053 0.22588 0.97805 0.0
H948 H 0.34653 0.28932 0.93973 0.0
H949 H 0.34857 0.298 0.03337 0.0
C950 C 0.35165 0.27169 0.11391 0.0
C951 C 0.35359 0.25626 0.15183 0.0
C952 C 0.3509 0.26693 0.06 0.0
C953 C 0.35522 0.23605 0.13507 0.0
C954 C 0.35416 0.23119 0.08167 0.0
C955 C 0.35004 0.2416 0.99029 0.0
C956 C 0.34808 0.25694 0.9523 0.0
C957 C 0.35174 0.24646 0.04388 0.0
C958 C 0.34793 0.27727 0.96842 0.0
C959 C 0.3491 0.28222 0.02188 0.0
H960 H 0.983 0.03834 0.01337 0.0
H961 H 0.04306 0.01829 0.05453 0.0
H962 H 0.03432 0.9837 0.0294 0.0
H963 H 0.00949 0.95906 0.99629 0.0
H964 H 0.94942 0.97938 0.95608 0.0
H965 H 0.95842 0.01395 0.97979 0.0
C966 C 0.99418 0.02641 0.01711 0.0
C967 C 0.01363 0.03092 0.03602 0.0
C968 C 0.98911 0.0066 1.00235 0.0
C969 C 0.02794 0.01526 0.04023 0.0
C970 C 0.02299 0.99547 0.02573 0.0
C971 C -0.00156 0.97109 0.99226 0.0
C972 C 0.97883 0.96662 0.97435 0.0
C973 C 0.00362 0.99096 1.00662 0.0
C974 C 0.96462 0.98237 0.96982 0.0
C975 C 0.96973 0.00216 0.98348 0.0
H976 H 0.22557 0.78254 0.28184 0.0
H977 H 0.20417 0.72081 0.28263 0.0
H978 H 0.23747 0.70905 0.2545 0.0
H979 H 0.27242 0.71633 0.22926 0.0
H980 H 0.29379 0.77807 0.22844 0.0
H981 H 0.26049 0.78982 0.25658 0.0
C982 C 0.22817 0.76648 0.27617 0.0
C983 C 0.21239 0.75256 0.28451 0.0
C984 C 0.24725 0.75986 0.25957 0.0
C985 C 0.21605 0.73184 0.27666 0.0
C986 C 0.23507 0.72511 0.26041 0.0
C987 C 0.26981 0.73239 0.23493 0.0
C988 C 0.28559 0.74631 0.22659 0.0
C989 C 0.25072 0.73901 0.25152 0.0
C990 C 0.28192 0.76704 0.23442 0.0
C991 C 0.2629 0.77376 0.25068 0.0
H992 H 0.47906 0.03633 0.49495 0.0
H993 H 0.54015 0.02078 0.45101 0.0
H994 H 0.5342 0.98569 0.47583 0.0
H995 H 0.51178 0.95937 0.51003 0.0
H996 H 0.45056 0.9746 0.55317 0.0
H997 H 0.45653 0.00987 0.52904 0.0
C998 C 0.49103 0.02525 0.49053 0.0
C999 C 0.51 0.03121 0.47107 0.0
C1000 C 0.48756 0.00505 0.50511 0.0
C1001 C 0.52539 0.01665 0.46586 0.0
C1002 C 0.52203 0.99655 0.48016 0.0
C1003 C 0.49978 0.97042 0.51455 0.0
C1004 C 0.48079 0.96437 0.53354 0.0
C1005 C 0.50322 0.9906 0.50003 0.0
C1006 C 0.46534 0.97886 0.53866 0.0
C1007 C 0.46872 -0.00097 0.52477 0.0
H1008 H 0.26763 0.21329 0.77683 0.0
H1009 H 0.29011 0.27463 0.77437 0.0
H1010 H 0.25726 0.28677 0.74449 0.0
H1011 H 0.22245 0.28006 0.71848 0.0
H1012 H 0.19957 0.21889 0.72071 0.0
H1013 H 0.23247 0.20657 0.75079 0.0
C1014 C 0.26531 0.22933 0.77012 0.0
C1015 C 0.28131 0.24303 0.77798 0.0
C1016 C 0.24642 0.23622 0.75244 0.0
C1017 C 0.27807 0.26375 0.76872 0.0
C1018 C 0.25931 0.27071 0.75147 0.0
C1019 C 0.22462 0.26399 0.72523 0.0
C1020 C 0.20857 0.25041 0.71717 0.0
C1021 C 0.24344 0.25707 0.74294 0.0
C1022 C 0.21169 0.22967 0.72642 0.0
C1023 C 0.23047 0.22262 0.74381 0.0
H1024 H 0.98207 0.95623 0.4931 0.0
H1025 H 0.04305 0.97432 0.45565 0.0
H1026 H 0.03514 0.00919 0.4799 0.0
H1027 H 0.01082 0.03463 0.51145 0.0
H1028 H 0.94982 0.01633 0.54801 0.0
H1029 H 0.95792 0.98148 0.52483 0.0
C1030 C 0.99363 0.96779 0.48999 0.0
C1031 C 0.0131 0.96264 0.47242 0.0
C1032 C 0.98902 0.98779 0.5042 0.0
C1033 C 0.0279 0.97784 0.46895 0.0
C1034 C 0.02342 0.9978 0.48293 0.0
C1035 C -0.00064 0.02298 0.51474 0.0
C1036 C 0.97977 0.0281 0.53152 0.0
C1037 C 0.00404 0.00294 0.50075 0.0
C1038 C 0.96503 0.01284 0.53513 0.0
C1039 C 0.96962 0.99288 0.5218 0.0
H1040 H 0.21171 0.76314 0.76135 0.0
H1041 H 0.23145 0.70479 0.81815 0.0
H1042 H 0.26596 0.71225 0.79125 0.0
H1043 H 0.29052 0.73509 0.7507 0.0
H1044 H 0.27103 0.79353 0.69414 0.0
H1045 H 0.23644 0.78617 0.72126 0.0
C1046 C 0.22361 0.75216 0.76831 0.0
C1047 C 0.21902 0.73347 0.79176 0.0
C1048 C 0.24343 0.75643 0.75219 0.0
C1049 C 0.23457 0.7193 0.80009 0.0
C1050 C 0.25432 0.72351 0.78458 0.0
C1051 C 0.27868 0.74613 0.74385 0.0
C1052 C 0.28332 0.76476 0.72023 0.0
C1053 C 0.25889 0.74194 0.76017 0.0
C1054 C 0.26784 0.77903 0.71221 0.0
C1055 C 0.24807 0.77488 0.72786 0.0
H1056 H 0.49216 0.95958 0.01748 0.0
H1057 H 0.55094 0.98565 0.04609 0.0
H1058 H 0.53815 0.019 0.02169 0.0
H1059 H 0.51035 0.04073 0.99189 0.0
H1060 H 0.45155 0.01463 0.96367 0.0
H1061 H 0.46439 0.98128 0.98782 0.0
C1062 C 0.50216 0.97256 0.01872 0.0
C1063 C 0.52246 0.97011 0.03372 0.0
C1064 C 0.49476 0.99167 1.00427 0.0
C1065 C 0.53523 0.9871 0.03476 0.0
C1066 C 0.52795 0.00618 0.02067 0.0
C1067 C 0.50037 0.02773 0.99064 0.0
C1068 C 0.48005 0.03017 0.97584 0.0
C1069 C 0.50778 0.00862 1.0051 0.0
C1070 C 0.46728 0.01318 0.97488 0.0
C1071 C 0.47458 0.9941 0.98881 0.0
H1072 H 0.20968 0.2674 0.2301 0.0
H1073 H 0.23039 0.20768 0.18685 0.0
H1074 H 0.26465 0.21644 0.2129 0.0
H1075 H 0.28873 0.24068 0.24924 0.0
H1076 H 0.26862 0.30064 0.29156 0.0
H1077 H 0.23417 0.29208 0.26504 0.0
C1078 C 0.22173 0.25638 0.22595 0.0
C1079 C 0.21742 0.23692 0.2066 0.0
C1080 C 0.24149 0.26146 0.24137 0.0
C1081 C 0.23322 0.22277 0.20172 0.0
C1082 C 0.25285 0.22773 0.21675 0.0
C1083 C 0.2768 0.25184 0.25305 0.0
C1084 C 0.28122 0.2712 0.27269 0.0
C1085 C 0.25712 0.24693 0.23708 0.0
C1086 C 0.26561 0.28558 0.27668 0.0
C1087 C 0.24591 0.28073 0.2614 0.0
H1088 H 0.78086 0.25871 0.7408 0.0
H1089 H 0.75736 0.20371 0.67246 0.0
H1090 H 0.72352 0.21238 0.70238 0.0
H1091 H 0.70069 0.23498 0.74966 0.0
H1092 H 0.7236 0.29024 0.81757 0.0
H1093 H 0.75758 0.28196 0.78652 0.0
C1094 C 0.76829 0.24875 0.73196 0.0
C1095 C 0.77167 0.23058 0.70448 0.0
C1096 C 0.7488 0.25372 0.74977 0.0
C1097 C 0.75523 0.21777 0.69365 0.0
C1098 C 0.73585 0.22267 0.71089 0.0
C1099 C 0.71313 0.24516 0.75804 0.0
C1100 C 0.70965 0.2631 0.78626 0.0
C1101 C 0.73251 0.24046 0.73951 0.0
C1102 C 0.7259 0.27627 0.79608 0.0
C1103 C 0.74532 0.27158 0.7782 0.0
H1104 H 0.7281 0.77998 0.24338 0.0
H1105 H 0.70358 0.71942 0.24382 0.0
H1106 H 0.73605 0.70605 0.27314 0.0
H1107 H 0.77116 0.71151 0.29908 0.0
H1108 H 0.79593 0.77194 0.29855 0.0
H1109 H 0.76341 0.78543 0.26922 0.0
C1110 C 0.72987 0.76383 0.24959 0.0
C1111 C 0.71342 0.75072 0.24129 0.0
C1112 C 0.74853 0.75625 0.26683 0.0
C1113 C 0.71598 0.72986 0.2498 0.0
C1114 C 0.73452 0.72219 0.26672 0.0
C1115 C 0.76946 0.72766 0.29286 0.0
C1116 C 0.78595 0.7407 0.30118 0.0
C1117 C 0.75085 0.73526 0.27558 0.0
C1118 C 0.78347 0.76157 0.29259 0.0
C1119 C 0.76491 0.76928 0.27567 0.0
H1120 H 0.70625 0.25937 0.26924 0.0
H1121 H 0.72585 0.19871 0.30664 0.0
H1122 H 0.76004 0.20687 0.27799 0.0
H1123 H 0.78425 0.23096 0.24066 0.0
H1124 H 0.76474 0.29164 0.20323 0.0
H1125 H 0.73062 0.28364 0.23303 0.0
C1126 C 0.71805 0.248 0.27167 0.0
C1127 C 0.71349 0.22848 0.29012 0.0
C1128 C 0.73765 0.2527 0.25448 0.0
C1129 C 0.72893 0.21387 0.29256 0.0
C1130 C 0.74849 0.21848 0.27601 0.0
C1131 C 0.7725 0.24239 0.23862 0.0
C1132 C 0.77701 0.26181 0.21946 0.0
C1133 C 0.75296 0.23778 0.25637 0.0
C1134 C 0.76166 0.27653 0.2177 0.0
C1135 C 0.74215 0.272 0.23489 0.0
H1136 H 0.72651 0.71536 0.74327 0.0
H1137 H 0.70809 0.77808 0.7459 0.0
H1138 H 0.7418 0.78796 0.7751 0.0
H1139 H 0.77632 0.77883 0.80019 0.0
H1140 H 0.79488 0.71616 0.79749 0.0
H1141 H 0.76112 0.70622 0.7684 0.0
C1142 C 0.72987 0.73122 0.74995 0.0
C1143 C 0.71478 0.74596 0.74225 0.0
C1144 C 0.74923 0.73679 0.7671 0.0
C1145 C 0.7194 0.76641 0.75139 0.0
C1146 C 0.73867 0.77208 0.76824 0.0
C1147 C 0.773 0.76296 0.79354 0.0
C1148 C 0.78812 0.74825 0.80119 0.0
C1149 C 0.75365 0.75738 0.77642 0.0
C1150 C 0.78352 0.7278 0.79206 0.0
C1151 C 0.76424 0.7221 0.77527 0.0
H1152 H 0.49104 0.54441 0.51668 0.0
H1153 H 0.54951 0.52128 0.56203 0.0
H1154 H 0.53935 0.4872 0.536 0.0
H1155 H 0.51394 0.46404 0.49931 0.0
H1156 H 0.45574 0.48759 0.45261 0.0
H1157 H 0.46583 0.52143 0.47972 0.0
C1158 C 0.50149 0.53188 0.52137 0.0
C1159 C 0.52094 0.53534 0.54148 0.0
C1160 C 0.49569 0.51242 0.50552 0.0
C1161 C 0.53442 0.519 0.54668 0.0
C1162 C 0.52865 0.49951 0.53167 0.0
C1163 C 0.50353 0.4766 0.49472 0.0
C1164 C 0.48414 0.47327 0.47389 0.0
C1165 C 0.50937 0.49608 0.51064 0.0
C1166 C 0.47077 0.48971 0.4685 0.0
C1167 C 0.47649 0.50908 0.48415 0.0
H1168 H 0.00868 0.46024 0.0207 0.0
H1169 H 0.94881 0.48254 0.05555 0.0
H1170 H 0.95947 0.51689 0.03511 0.0
H1171 H 0.98538 0.54059 1.00591 0.0
H1172 H 0.04532 0.51881 0.97008 0.0
H1173 H 0.03497 0.48431 0.99205 0.0
C1174 C -0.00197 0.47265 0.02422 0.0
C1175 C 0.97798 0.46878 0.03966 0.0
C1176 C 0.00419 0.49246 0.01182 0.0
C1177 C 0.96432 0.48503 0.04364 0.0
C1178 C 0.97038 0.50472 0.03188 0.0
C1179 C 0.99621 0.52832 1.00271 0.0
C1180 C 0.01608 0.53231 0.98618 0.0
C1181 C 0.9902 0.50858 0.01554 0.0
C1182 C 0.0299 0.51619 0.98257 0.0
C1183 C 0.02401 0.49644 0.99524 0.0
H1184 H 0.48589 0.46552 1.00034 0.0
H1185 H 0.54593 0.48348 0.95341 0.0
H1186 H 0.53876 0.51832 0.97886 0.0
H1187 H 0.51581 0.54356 0.01623 0.0
H1188 H 0.45585 0.52573 0.06416 0.0
H1189 H 0.46272 0.49098 0.03699 0.0
C1190 C 0.49731 0.47711 0.99514 0.0
C1191 C 0.51638 0.47191 0.97492 0.0
C1192 C 0.49321 0.4971 0.01062 0.0
C1193 C 0.53111 0.48707 0.96895 0.0
C1194 C 0.52706 0.507 0.98363 0.0
C1195 C 0.50427 0.53207 0.02103 0.0
C1196 C 0.48539 0.53725 0.04242 0.0
C1197 C 0.50825 0.51214 1.00503 0.0
C1198 C 0.47055 0.52217 0.04793 0.0
C1199 C 0.47443 0.50228 0.03225 0.0
H1200 H 0.02971 0.47176 0.53733 0.0
H1201 H 0.96796 0.45099 0.5451 0.0
H1202 H 0.95594 0.48484 0.5229 0.0
H1203 H 0.96289 0.52024 0.50085 0.0
H1204 H 0.02461 0.54107 0.49229 0.0
H1205 H 0.03667 0.50723 0.51484 0.0
C1206 C 0.01362 0.47466 0.53447 0.0
C1207 C -0.00023 0.45886 0.54304 0.0
C1208 C 0.00679 0.49413 0.52118 0.0
C1209 C 0.97897 0.46286 0.53875 0.0
C1210 C 0.97206 0.48221 0.52596 0.0
C1211 C 0.97899 0.51739 0.50369 0.0
C1212 C 0.9928 0.53319 0.4948 0.0
C1213 C 0.98584 0.49793 0.51688 0.0
C1214 C 0.01362 0.5292 0.49881 0.0
C1215 C 0.02055 0.50985 0.51185 0.0
H1216 H 0.08283 0.1165 0.13812 0.0
H1217 H 0.04245 0.15847 0.06175 0.0
H1218 H 0.06432 0.1868 0.08794 0.0
H1219 H 0.09631 0.19916 0.12882 0.0
H1220 H 0.13545 0.15596 0.20583 0.0
H1221 H 0.11251 0.12868 0.18372 0.0
C1222 C 0.07879 0.13184 0.127 0.0
C1223 C 0.0613 0.13538 0.09724 0.0
C1224 C 0.09119 0.14786 0.14262 0.0
C1225 C 0.05599 0.15538 0.08432 0.0
C1226 C 0.06848 0.17155 0.09932 0.0
C1227 C 0.09958 0.18382 0.1414 0.0
C1228 C 0.11769 0.17959 0.1684 0.0
C1229 C 0.08628 0.16794 0.12808 0.0
C1230 C 0.12176 0.15963 0.18443 0.0
C1231 C 0.10867 0.14395 0.17177 0.0
H1232 H 0.09285 0.79372 0.37068 0.0
H1233 H 0.13445 0.83761 0.30633 0.0
H1234 H 0.11214 0.86495 0.33189 0.0
H1235 H 0.08202 0.87682 0.37573 0.0
H1236 H 0.03911 0.83432 0.43933 0.0
H1237 H 0.06069 0.80605 0.41086 0.0
C1238 C 0.09684 0.80925 0.36175 0.0
C1239 C 0.11543 0.81356 0.33711 0.0
C1240 C 0.08386 0.82518 0.3769 0.0
C1241 C 0.12039 0.83379 0.32578 0.0
C1242 C 0.10765 0.84952 0.3404 0.0
C1243 C 0.07736 0.86138 0.38367 0.0
C1244 C 0.05919 0.85767 0.41038 0.0
C1245 C 0.08959 0.84542 0.36677 0.0
C1246 C 0.05315 0.83756 0.41916 0.0
C1247 C 0.06547 0.82142 0.40285 0.0
H1248 H 0.40367 0.79538 0.62768 0.0
H1249 H 0.37291 0.8383 0.72769 0.0
H1250 H 0.39643 0.86469 0.70197 0.0
H1251 H 0.42319 0.87654 0.64491 0.0
H1252 H 0.45519 0.83487 0.5448 0.0
H1253 H 0.43378 0.8069 0.57655 0.0
C1254 C 0.40249 0.81039 0.64461 0.0
C1255 C 0.38647 0.815 0.67901 0.0
C1256 C 0.41598 0.82574 0.62889 0.0
C1257 C 0.38498 0.8345 0.70064 0.0
C1258 C 0.39837 0.84962 0.68587 0.0
C1259 C 0.42548 0.86131 0.63006 0.0
C1260 C 0.44026 0.85771 0.59178 0.0
C1261 C 0.41343 0.84557 0.64881 0.0
C1262 C 0.44363 0.8379 0.57391 0.0
C1263 C 0.43142 0.82199 0.59207 0.0
H1264 H 0.44043 0.14965 0.90027 0.0
H1265 H 0.39324 0.11012 0.95696 0.0
H1266 H 0.36768 0.13371 0.92593 0.0
H1267 H 0.35855 0.16454 0.87962 0.0
H1268 H 0.40496 0.20496 0.82366 0.0
H1269 H 0.43105 0.18194 0.85729 0.0
C1270 C 0.42456 0.14635 0.90643 0.0
C1271 C 0.41878 0.12808 0.93066 0.0
C1272 C 0.40982 0.15996 0.88802 0.0
C1273 C 0.39814 0.124 0.93821 0.0
C1274 C 0.38348 0.13745 0.92032 0.0
C1275 C 0.37437 0.16831 0.87442 0.0
C1276 C 0.37984 0.18626 0.8485 0.0
C1277 C 0.38914 0.15525 0.89441 0.0
C1278 C 0.4004 0.19112 0.84315 0.0
C1279 C 0.41529 0.178 0.86247 0.0
H1280 H 0.86618 0.82357 0.90035 0.0
H1281 H 0.91338 0.78422 0.84377 0.0
H1282 H 0.93897 0.80895 0.87184 0.0
H1283 H 0.94746 0.84281 0.90868 0.0
H1284 H 0.89913 0.8809 0.96607 0.0
H1285 H 0.87447 0.85544 0.94185 0.0
C1286 C 0.88207 0.82037 0.89392 0.0
C1287 C 0.8879 0.8023 0.86917 0.0
C1288 C 0.89649 0.83441 0.91053 0.0
C1289 C 0.90855 0.79814 0.8624 0.0
C1290 C 0.92314 0.81227 0.87844 0.0
C1291 C 0.93156 0.84538 0.91647 0.0
C1292 C 0.92518 0.86386 0.93871 0.0
C1293 C 0.91724 0.8306 0.90211 0.0
C1294 C 0.9045 0.86695 0.94858 0.0
C1295 C 0.89033 0.8524 0.93468 0.0
H1296 H 0.90475 0.11098 0.59832 0.0
H1297 H 0.95096 0.15578 0.57163 0.0
H1298 H 0.92778 0.18248 0.60175 0.0
H1299 H 0.89377 0.19284 0.63464 0.0
H1300 H 0.84909 0.14644 0.6633 0.0
H1301 H 0.87245 0.12064 0.63395 0.0
C1302 C 0.90981 0.12659 0.59856 0.0
C1303 C 0.92943 0.13143 0.58196 0.0
C1304 C 0.89669 0.14159 0.61678 0.0
C1305 C 0.93582 0.1517 0.58379 0.0
C1306 C 0.9226 0.16693 0.60116 0.0
C1307 C 0.88928 0.17707 0.63491 0.0
C1308 C 0.86961 0.17168 0.6508 0.0
C1309 C 0.90293 0.16203 0.61779 0.0
C1310 C 0.86403 0.15114 0.65092 0.0
C1311 C 0.87737 0.13629 0.63403 0.0
H1312 H 0.59202 0.19722 0.37052 0.0
H1313 H 0.62471 0.15274 0.27957 0.0
H1314 H 0.6001 0.12702 0.3029 0.0
H1315 H 0.57155 0.11628 0.35531 0.0
H1316 H 0.53788 0.15954 0.447 0.0
H1317 H 0.56055 0.18675 0.41705 0.0
C1318 C 0.59346 0.18199 0.35506 0.0
C1319 C 0.61028 0.17681 0.3239 0.0
C1320 C 0.57931 0.16705 0.36936 0.0
C1321 C 0.61203 0.15703 0.30415 0.0
C1322 C 0.598 0.14229 0.31752 0.0
C1323 C 0.56913 0.13169 0.36874 0.0
C1324 C 0.55345 0.13593 0.40414 0.0
C1325 C 0.58201 0.14699 0.3513 0.0
C1326 C 0.55006 0.15598 0.42007 0.0
C1327 C 0.56301 0.17146 0.403 0.0
H1328 H 0.55984 0.84997 0.10683 0.0
H1329 H 0.60918 0.89014 0.06861 0.0
H1330 H 0.63327 0.86579 0.10356 0.0
H1331 H 0.64036 0.8339 0.14746 0.0
H1332 H 0.59175 0.79289 0.18478 0.0
H1333 H 0.56726 0.81691 0.14802 0.0
C1334 C 0.57588 0.85327 0.10555 0.0
C1335 C 0.58267 0.87189 0.08527 0.0
C1336 C 0.58973 0.83923 0.1262 0.0
C1337 C 0.60351 0.87597 0.08412 0.0
C1338 C 0.61732 0.86209 0.10429 0.0
C1339 C 0.62439 0.83022 0.14799 0.0
C1340 C 0.61784 0.81177 0.16946 0.0
C1341 C 0.61057 0.84385 0.12611 0.0
C1342 C 0.59714 0.80709 0.16882 0.0
C1343 C 0.58317 0.82078 0.14766 0.0
H1344 H 0.55422 0.65661 0.61833 0.0
H1345 H 0.60177 0.62018 0.55038 0.0
H1346 H 0.62695 0.64413 0.58105 0.0
H1347 H 0.63583 0.6739 0.63164 0.0
H1348 H 0.58927 0.71161 0.69845 0.0
H1349 H 0.56327 0.68863 0.66382 0.0
C1350 C 0.57006 0.65413 0.60953 0.0
C1351 C 0.57611 0.63651 0.58258 0.0
C1352 C 0.58463 0.66797 0.62774 0.0
C1353 C 0.5967 0.63349 0.57148 0.0
C1354 C 0.61115 0.64714 0.58912 0.0
C1355 C 0.61998 0.67707 0.63891 0.0
C1356 C 0.61442 0.69411 0.66846 0.0
C1357 C 0.60532 0.66411 0.61829 0.0
C1358 C 0.59386 0.69839 0.67623 0.0
C1359 C 0.57904 0.6853 0.65638 0.0
H1360 H 0.54595 0.34953 0.89595 0.0
H1361 H 0.59059 0.38194 0.98682 0.0
H1362 H 0.61626 0.35746 0.96211 0.0
H1363 H 0.62689 0.32895 0.90889 0.0
H1364 H 0.58331 0.2953 0.81841 0.0
H1365 H 0.5563 0.31811 0.84875 0.0
C1366 C 0.5612 0.35094 0.9111 0.0
C1367 C 0.56642 0.36767 0.94262 0.0
C1368 C 0.57612 0.33683 0.89614 0.0
C1369 C 0.58624 0.36935 0.96196 0.0
C1370 C 0.60097 0.35539 0.94778 0.0
C1371 C 0.61147 0.32659 0.89577 0.0
C1372 C 0.60709 0.31084 0.86063 0.0
C1373 C 0.59622 0.33948 0.91371 0.0
C1374 C 0.587 0.30753 0.84511 0.0
C1375 C 0.57161 0.32055 0.86244 0.0
H1376 H 0.85855 0.33298 0.12599 0.0
H1377 H 0.90429 0.29082 0.17694 0.0
H1378 H 0.93078 0.31388 0.14507 0.0
H1379 H 0.94059 0.34694 0.1057 0.0
H1380 H 0.89362 0.38764 0.05267 0.0
H1381 H 0.86795 0.36401 0.08181 0.0
C1382 C 0.87433 0.32884 0.1305 0.0
C1383 C 0.87953 0.31048 0.15475 0.0
C1384 C 0.88923 0.34184 0.1113 0.0
C1385 C 0.89998 0.30504 0.15886 0.0
C1386 C 0.91507 0.31818 0.14057 0.0
C1387 C 0.92474 0.35047 0.0999 0.0
C1388 C 0.91908 0.36916 0.07746 0.0
C1389 C 0.90985 0.33674 0.11699 0.0
C1390 C 0.89847 0.37349 0.07018 0.0
C1391 C 0.88371 0.36001 0.08697 0.0
H1392 H 0.91225 0.61448 0.4263 0.0
H1393 H 0.9591 0.65857 0.45377 0.0
H1394 H 0.93682 0.68549 0.42135 0.0
H1395 H 0.90389 0.69631 0.38439 0.0
H1396 H 0.85812 0.65114 0.35455 0.0
H1397 H 0.88027 0.62487 0.38813 0.0
C1398 C 0.91757 0.63 0.42578 0.0
C1399 C 0.9372 0.63455 0.44294 0.0
C1400 C 0.90494 0.64521 0.40604 0.0
C1401 C 0.94396 0.6547 0.44105 0.0
C1402 C 0.93127 0.67007 0.42232 0.0
C1403 C 0.89885 0.6807 0.38488 0.0
C1404 C 0.87933 0.67577 0.36702 0.0
C1405 C 0.91174 0.66548 0.40437 0.0
C1406 C 0.87303 0.65544 0.36807 0.0
C1407 C 0.88566 0.64035 0.38745 0.0
H1408 H 0.36419 0.34233 0.36071 0.0
H1409 H 0.40899 0.29878 0.31228 0.0
H1410 H 0.43589 0.32065 0.34732 0.0
H1411 H 0.44639 0.353 0.3899 0.0
H1412 H 0.40012 0.39488 0.44054 0.0
H1413 H 0.37408 0.37259 0.40714 0.0
C1414 C 0.37986 0.33765 0.35728 0.0
C1415 C 0.38467 0.31922 0.33298 0.0
C1416 C 0.39496 0.34992 0.37848 0.0
C1417 C 0.40498 0.31308 0.33032 0.0
C1418 C 0.4203 0.32553 0.3505 0.0
C1419 C 0.4306 0.35704 0.39421 0.0
C1420 C 0.42526 0.3757 0.4172 0.0
C1421 C 0.41546 0.34407 0.37462 0.0
C1422 C 0.40471 0.38075 0.42251 0.0
C1423 C 0.38975 0.36804 0.40331 0.0
H1424 H 0.40552 0.7057 0.14294 0.0
H1425 H 0.36395 0.66149 0.20588 0.0
H1426 H 0.38681 0.63436 0.18219 0.0
H1427 H 0.41737 0.62277 0.14025 0.0
H1428 H 0.4602 0.66556 0.07756 0.0
H1429 H 0.43813 0.69367 0.10462 0.0
C1430 C 0.40165 0.69015 0.15195 0.0
C1431 C 0.38292 0.68566 0.17565 0.0
C1432 C 0.41494 0.67435 0.13785 0.0
C1433 C 0.37811 0.66541 0.18713 0.0
C1434 C 0.39117 0.64982 0.1736 0.0
C1435 C 0.42193 0.63823 0.13222 0.0
C1436 C 0.44021 0.64209 0.10616 0.0
C1437 C 0.40939 0.65408 0.14816 0.0
C1438 C 0.44608 0.66223 0.09726 0.0
C1439 C 0.43347 0.67827 0.11273 0.0
H1440 H 0.08374 0.61705 0.87283 0.0
H1441 H 0.04888 0.65901 0.96556 0.0
H1442 H 0.06971 0.68719 0.93328 0.0
H1443 H 0.09953 0.69929 0.88239 0.0
H1444 H 0.13301 0.65632 0.78863 0.0
H1445 H 0.11074 0.62922 0.81669 0.0
C1446 C 0.08074 0.63237 0.88618 0.0
C1447 C 0.06519 0.63597 0.92235 0.0
C1448 C 0.09241 0.64832 0.86679 0.0
C1449 C 0.06101 0.65592 0.93813 0.0
C1450 C 0.07287 0.67199 0.91959 0.0
C1451 C 0.1016 0.68407 0.86734 0.0
C1452 C 0.118 0.67976 0.83395 0.0
C1453 C 0.08879 0.66833 0.88425 0.0
C1454 C 0.12062 0.65997 0.81484 0.0
C1455 C 0.10795 0.64442 0.83098 0.0
H1456 H 0.07893 0.37633 0.61945 0.0
H1457 H 0.0328 0.33294 0.57918 0.0
H1458 H 0.05543 0.30517 0.60463 0.0
H1459 H 0.08883 0.29335 0.63752 0.0
H1460 H 0.13392 0.33791 0.67859 0.0
H1461 H 0.11109 0.36498 0.65398 0.0
C1462 C 0.07377 0.36081 0.61592 0.0
C1463 C 0.05427 0.35673 0.59699 0.0
C1464 C 0.08668 0.34507 0.63109 0.0
C1465 C 0.0478 0.3365 0.59344 0.0
C1466 C 0.06072 0.32062 0.60807 0.0
C1467 C 0.09355 0.30898 0.64141 0.0
C1468 C 0.11314 0.3135 0.65969 0.0
C1469 C 0.08025 0.32473 0.62697 0.0
C1470 C 0.11902 0.33388 0.66441 0.0
C1471 C 0.10597 0.34946 0.65028 0.0
loop_
_geom_bond_atom_site_label_1
_geom_bond_atom_site_label_2
_geom_bond_distance
_geom_bond_site_symmetry_2
_ccdc_geom_bond_type
C0 O2 1.247 . S
C0 O4 1.258 1_455 S
C1 O8 1.247 1_455 S
C1 O9 1.258 . S
O2 C0 1.247 . S
O2 Zn3 2.028 1_556 S
Zn3 O2 2.028 1_554 S
Zn3 O7 2.035 . S
Zn3 O9 2.035 . S
Zn3 O10 2.028 . S
O4 C0 1.258 1_655 S
O4 Zn5 2.035 1_556 S
Zn5 O4 2.035 1_554 S
Zn5 O6 2.028 1_655 S
Zn5 O8 2.028 . S
Zn5 O11 2.035 . S
O6 Zn5 2.028 1_455 S
O6 C12 1.247 . S
O7 Zn3 2.035 . S
O7 C12 1.258 . S
O8 C1 1.247 1_655 S
O8 Zn5 2.028 . S
O9 C1 1.258 . S
O9 Zn3 2.035 . S
O10 Zn3 2.028 . S
O10 C13 1.247 1_455 S
O11 Zn5 2.035 . S
O11 C13 1.258 . S
C12 O6 1.247 . S
C12 O7 1.258 . S
C13 O10 1.247 1_655 S
C13 O11 1.258 . S
C14 O16 1.247 . S
C14 O18 1.258 . S
C15 O22 1.247 . S
C15 O23 1.258 . S
O16 C14 1.247 . S
O16 Zn17 2.028 . S
Zn17 O16 2.028 . S
Zn17 O21 2.035 . S
Zn17 O23 2.035 . S
Zn17 O24 2.028 . S
O18 C14 1.258 . S
O18 Zn19 2.035 . S
Zn19 O18 2.035 . S
Zn19 O20 2.028 . S
Zn19 O22 2.028 . S
Zn19 O25 2.035 . S
O20 Zn19 2.028 . S
O20 C26 1.247 . S
O21 Zn17 2.035 . S
O21 C26 1.258 . S
O22 C15 1.247 . S
O22 Zn19 2.028 . S
O23 C15 1.258 . S
O23 Zn17 2.035 . S
O24 Zn17 2.028 . S
O24 C27 1.247 . S
O25 Zn19 2.035 . S
O25 C27 1.258 . S
C26 O20 1.247 . S
C26 O21 1.258 . S
C27 O24 1.247 . S
C27 O25 1.258 . S
C28 O30 1.247 . S
C28 O32 1.258 . S
C29 O36 1.247 . S
C29 O37 1.258 . S
O30 C28 1.247 . S
O30 Zn31 2.028 . S
Zn31 O30 2.028 . S
Zn31 O35 2.035 . S
Zn31 O37 2.035 . S
Zn31 O38 2.028 . S
O32 C28 1.258 . S
O32 Zn33 2.035 . S
Zn33 O32 2.035 . S
Zn33 O34 2.028 . S
Zn33 O36 2.028 . S
Zn33 O39 2.035 . S
O34 Zn33 2.028 . S
O34 C40 1.247 . S
O35 Zn31 2.035 . S
O35 C40 1.258 . S
O36 C29 1.247 . S
O36 Zn33 2.028 . S
O37 C29 1.258 . S
O37 Zn31 2.035 . S
O38 Zn31 2.028 . S
O38 C41 1.247 . S
O39 Zn33 2.035 . S
O39 C41 1.258 . S
C40 O34 1.247 . S
C40 O35 1.258 . S
C41 O38 1.247 . S
C41 O39 1.258 . S
C42 O44 1.247 . S
C42 O46 1.258 . S
C43 O50 1.247 . S
C43 O51 1.258 . S
O44 C42 1.247 . S
O44 Zn45 2.028 . S
Zn45 O44 2.028 . S
Zn45 O49 2.035 . S
Zn45 O51 2.035 . S
Zn45 O52 2.028 . S
O46 C42 1.258 . S
O46 Zn47 2.035 . S
Zn47 O46 2.035 . S
Zn47 O48 2.028 . S
Zn47 O50 2.028 . S
Zn47 O53 2.035 . S
O48 Zn47 2.028 . S
O48 C54 1.247 . S
O49 Zn45 2.035 . S
O49 C54 1.258 . S
O50 C43 1.247 . S
O50 Zn47 2.028 . S
O51 C43 1.258 . S
O51 Zn45 2.035 . S
O52 Zn45 2.028 . S
O52 C55 1.247 . S
O53 Zn47 2.035 . S
O53 C55 1.258 . S
C54 O48 1.247 . S
C54 O49 1.258 . S
C55 O52 1.247 . S
C55 O53 1.258 . S
C56 O58 1.247 . S
C56 O60 1.258 . S
C57 O64 1.247 1_655 S
C57 O65 1.258 . S
O58 C56 1.247 . S
O58 Zn59 2.028 1_455 S
Zn59 O58 2.028 1_655 S
Zn59 O63 2.035 . S
Zn59 O65 2.035 . S
Zn59 O66 2.028 . S
O60 C56 1.258 . S
O60 Zn61 2.035 . S
Zn61 O60 2.035 . S
Zn61 O62 2.028 . S
Zn61 O64 2.028 . S
Zn61 O67 2.035 . S
O62 Zn61 2.028 . S
O62 C68 1.247 . S
O63 Zn59 2.035 . S
O63 C68 1.258 1_655 S
O64 C57 1.247 1_455 S
O64 Zn61 2.028 . S
O65 C57 1.258 . S
O65 Zn59 2.035 . S
O66 Zn59 2.028 . S
O66 C69 1.247 1_655 S
O67 Zn61 2.035 . S
O67 C69 1.258 . S
C68 O62 1.247 . S
C68 O63 1.258 1_455 S
C69 O66 1.247 1_455 S
C69 O67 1.258 . S
C70 O72 1.247 . S
C70 O74 1.258 . S
C71 O78 1.247 . S
C71 O79 1.258 . S
O72 C70 1.247 . S
O72 Zn73 2.028 . S
Zn73 O72 2.028 . S
Zn73 O77 2.035 . S
Zn73 O79 2.035 . S
Zn73 O80 2.028 . S
O74 C70 1.258 . S
O74 Zn75 2.035 . S
Zn75 O74 2.035 . S
Zn75 O76 2.028 . S
Zn75 O78 2.028 . S
Zn75 O81 2.035 . S
O76 Zn75 2.028 . S
O76 C82 1.247 . S
O77 Zn73 2.035 . S
O77 C82 1.258 . S
O78 C71 1.247 . S
O78 Zn75 2.028 . S
O79 C71 1.258 . S
O79 Zn73 2.035 . S
O80 Zn73 2.028 . S
O80 C83 1.247 . S
O81 Zn75 2.035 . S
O81 C83 1.258 . S
C82 O76 1.247 . S
C82 O77 1.258 . S
C83 O80 1.247 . S
C83 O81 1.258 . S
C84 O86 1.247 . S
C84 O88 1.258 . S
C85 O92 1.247 . S
C85 O93 1.258 . S
O86 C84 1.247 . S
O86 Zn87 2.028 1_554 S
Zn87 O86 2.028 1_556 S
Zn87 O91 2.035 . S
Zn87 O93 2.035 . S
Zn87 O94 2.028 . S
O88 C84 1.258 . S
O88 Zn89 2.035 1_554 S
Zn89 O88 2.035 1_556 S
Zn89 O90 2.028 . S
Zn89 O92 2.028 . S
Zn89 O95 2.035 . S
O90 Zn89 2.028 . S
O90 C96 1.247 . S
O91 Zn87 2.035 . S
O91 C96 1.258 . S
O92 C85 1.247 . S
O92 Zn89 2.028 . S
O93 C85 1.258 . S
O93 Zn87 2.035 . S
O94 Zn87 2.028 . S
O94 C97 1.247 . S
O95 Zn89 2.035 . S
O95 C97 1.258 . S
C96 O90 1.247 . S
C96 O91 1.258 . S
C97 O94 1.247 . S
C97 O95 1.258 . S
C98 O100 1.247 . S
C98 O102 1.258 . S
C99 O106 1.247 . S
C99 O107 1.258 . S
O100 C98 1.247 . S
O100 Zn101 2.028 . S
Zn101 O100 2.028 . S
Zn101 O105 2.035 . S
Zn101 O107 2.035 . S
Zn101 O108 2.028 . S
O102 C98 1.258 . S
O102 Zn103 2.035 . S
Zn103 O102 2.035 . S
Zn103 O104 2.028 . S
Zn103 O106 2.028 . S
Zn103 O109 2.035 . S
O104 Zn103 2.028 . S
O104 C110 1.247 . S
O105 Zn101 2.035 . S
O105 C110 1.258 . S
O106 C99 1.247 . S
O106 Zn103 2.028 . S
O107 C99 1.258 . S
O107 Zn101 2.035 . S
O108 Zn101 2.028 . S
O108 C111 1.247 . S
O109 Zn103 2.035 . S
O109 C111 1.258 . S
C110 O104 1.247 . S
C110 O105 1.258 . S
C111 O108 1.247 . S
C111 O109 1.258 . S
C112 O114 1.247 1_655 S
C112 O116 1.258 . S
C113 O120 1.247 . S
C113 O121 1.258 1_655 S
O114 C112 1.247 1_455 S
O114 Zn115 2.028 1_554 S
Zn115 O114 2.028 1_556 S
Zn115 O119 2.035 1_455 S
Zn115 O121 2.035 . S
Zn115 O122 2.028 . S
O116 C112 1.258 . S
O116 Zn117 2.035 1_554 S
Zn117 O116 2.035 1_556 S
Zn117 O118 2.028 . S
Zn117 O120 2.028 . S
Zn117 O123 2.035 . S
O118 Zn117 2.028 . S
O118 C124 1.247 . S
O119 Zn115 2.035 1_655 S
O119 C124 1.258 . S
O120 C113 1.247 . S
O120 Zn117 2.028 . S
O121 C113 1.258 1_455 S
O121 Zn115 2.035 . S
O122 Zn115 2.028 . S
O122 C125 1.247 . S
O123 Zn117 2.035 . S
O123 C125 1.258 1_655 S
C124 O118 1.247 . S
C124 O119 1.258 . S
C125 O122 1.247 . S
C125 O123 1.258 1_455 S
C126 O128 1.247 . S
C126 O130 1.258 . S
C127 O134 1.247 . S
C127 O135 1.258 . S
O128 C126 1.247 . S
O128 Zn129 2.028 . S
Zn129 O128 2.028 . S
Zn129 O133 2.035 . S
Zn129 O135 2.035 . S
Zn129 O136 2.028 . S
O130 C126 1.258 . S
O130 Zn131 2.035 . S
Zn131 O130 2.035 . S
Zn131 O132 2.028 . S
Zn131 O134 2.028 . S
Zn131 O137 2.035 . S
O132 Zn131 2.028 . S
O132 C138 1.247 . S
O133 Zn129 2.035 . S
O133 C138 1.258 . S
O134 C127 1.247 . S
O134 Zn131 2.028 . S
O135 C127 1.258 . S
O135 Zn129 2.035 . S
O136 Zn129 2.028 . S
O136 C139 1.247 . S
O137 Zn131 2.035 . S
O137 C139 1.258 . S
C138 O132 1.247 . S
C138 O133 1.258 . S
C139 O136 1.247 . S
C139 O137 1.258 . S
C140 O142 1.247 . S
C140 O144 1.258 . S
C141 O148 1.247 . S
C141 O149 1.258 . S
O142 C140 1.247 . S
O142 Zn143 2.028 . S
Zn143 O142 2.028 . S
Zn143 O147 2.035 . S
Zn143 O149 2.035 . S
Zn143 O150 2.028 . S
O144 C140 1.258 . S
O144 Zn145 2.035 . S
Zn145 O144 2.035 . S
Zn145 O146 2.028 . S
Zn145 O148 2.028 . S
Zn145 O151 2.035 . S
O146 Zn145 2.028 . S
O146 C152 1.247 . S
O147 Zn143 2.035 . S
O147 C152 1.258 . S
O148 C141 1.247 . S
O148 Zn145 2.028 . S
O149 C141 1.258 . S
O149 Zn143 2.035 . S
O150 Zn143 2.028 . S
O150 C153 1.247 . S
O151 Zn145 2.035 . S
O151 C153 1.258 . S
C152 O146 1.247 . S
C152 O147 1.258 . S
C153 O150 1.247 . S
C153 O151 1.258 . S
C154 O156 1.247 . S
C154 O158 1.258 . S
C155 O162 1.247 . S
C155 O163 1.258 . S
O156 C154 1.247 . S
O156 Zn157 2.028 . S
Zn157 O156 2.028 . S
Zn157 O161 2.035 . S
Zn157 O163 2.035 . S
Zn157 O164 2.028 . S
O158 C154 1.258 . S
O158 Zn159 2.035 . S
Zn159 O158 2.035 . S
Zn159 O160 2.028 . S
Zn159 O162 2.028 . S
Zn159 O165 2.035 . S
O160 Zn159 2.028 . S
O160 C166 1.247 . S
O161 Zn157 2.035 . S
O161 C166 1.258 . S
O162 C155 1.247 . S
O162 Zn159 2.028 . S
O163 C155 1.258 . S
O163 Zn157 2.035 . S
O164 Zn157 2.028 . S
O164 C167 1.247 . S
O165 Zn159 2.035 . S
O165 C167 1.258 . S
C166 O160 1.247 . S
C166 O161 1.258 . S
C167 O164 1.247 . S
C167 O165 1.258 . S
C168 O170 1.247 . S
C168 O172 1.258 . S
C169 O176 1.247 . S
C169 O177 1.258 1_455 S
O170 C168 1.247 . S
O170 Zn171 2.028 . S
Zn171 O170 2.028 . S
Zn171 O175 2.035 . S
Zn171 O177 2.035 . S
Zn171 O178 2.028 . S
O172 C168 1.258 . S
O172 Zn173 2.035 1_655 S
Zn173 O172 2.035 1_455 S
Zn173 O174 2.028 . S
Zn173 O176 2.028 . S
Zn173 O179 2.035 . S
O174 Zn173 2.028 . S
O174 C180 1.247 1_455 S
O175 Zn171 2.035 . S
O175 C180 1.258 . S
O176 C169 1.247 . S
O176 Zn173 2.028 . S
O177 C169 1.258 1_655 S
O177 Zn171 2.035 . S
O178 Zn171 2.028 . S
O178 C181 1.247 . S
O179 Zn173 2.035 . S
O179 C181 1.258 1_455 S
C180 O174 1.247 1_655 S
C180 O175 1.258 . S
C181 O178 1.247 . S
C181 O179 1.258 1_655 S
C182 O184 1.247 . S
C182 O186 1.258 . S
C183 O190 1.247 . S
C183 O191 1.258 . S
O184 C182 1.247 . S
O184 Zn185 2.028 . S
Zn185 O184 2.028 . S
Zn185 O189 2.035 . S
Zn185 O191 2.035 . S
Zn185 O192 2.028 . S
O186 C182 1.258 . S
O186 Zn187 2.035 . S
Zn187 O186 2.035 . S
Zn187 O188 2.028 . S
Zn187 O190 2.028 . S
Zn187 O193 2.035 . S
O188 Zn187 2.028 . S
O188 C194 1.247 . S
O189 Zn185 2.035 . S
O189 C194 1.258 . S
O190 C183 1.247 . S
O190 Zn187 2.028 . S
O191 C183 1.258 . S
O191 Zn185 2.035 . S
O192 Zn185 2.028 . S
O192 C195 1.247 . S
O193 Zn187 2.035 . S
O193 C195 1.258 . S
C194 O188 1.247 . S
C194 O189 1.258 . S
C195 O192 1.247 . S
C195 O193 1.258 . S
C196 O198 1.247 . S
C196 O200 1.258 . S
C197 O204 1.247 . S
C197 O205 1.258 . S
O198 C196 1.247 . S
O198 Zn199 2.028 . S
Zn199 O198 2.028 . S
Zn199 O203 2.035 . S
Zn199 O205 2.035 1_554 S
Zn199 O206 2.028 . S
O200 C196 1.258 . S
O200 Zn201 2.035 . S
Zn201 O200 2.035 . S
Zn201 O202 2.028 . S
Zn201 O204 2.028 1_554 S
Zn201 O207 2.035 . S
O202 Zn201 2.028 . S
O202 C208 1.247 . S
O203 Zn199 2.035 . S
O203 C208 1.258 . S
O204 C197 1.247 . S
O204 Zn201 2.028 1_556 S
O205 C197 1.258 . S
O205 Zn199 2.035 1_556 S
O206 Zn199 2.028 . S
O206 C209 1.247 . S
O207 Zn201 2.035 . S
O207 C209 1.258 . S
C208 O202 1.247 . S
C208 O203 1.258 . S
C209 O206 1.247 . S
C209 O207 1.258 . S
C210 O212 1.247 . S
C210 O214 1.258 . S
C211 O218 1.247 . S
C211 O219 1.258 . S
O212 C210 1.247 . S
O212 Zn213 2.028 . S
Zn213 O212 2.028 . S
Zn213 O217 2.035 . S
Zn213 O219 2.035 . S
Zn213 O220 2.028 . S
O214 C210 1.258 . S
O214 Zn215 2.035 . S
Zn215 O214 2.035 . S
Zn215 O216 2.028 . S
Zn215 O218 2.028 . S
Zn215 O221 2.035 . S
O216 Zn215 2.028 . S
O216 C222 1.247 . S
O217 Zn213 2.035 . S
O217 C222 1.258 . S
O218 C211 1.247 . S
O218 Zn215 2.028 . S
O219 C211 1.258 . S
O219 Zn213 2.035 . S
O220 Zn213 2.028 . S
O220 C223 1.247 . S
O221 Zn215 2.035 . S
O221 C223 1.258 . S
C222 O216 1.247 . S
C222 O217 1.258 . S
C223 O220 1.247 . S
C223 O221 1.258 . S
C224 O226 1.247 . S
C224 O228 1.258 . S
C225 O232 1.247 . S
C225 O233 1.258 . S
O226 C224 1.247 . S
O226 Zn227 2.028 . S
Zn227 O226 2.028 . S
Zn227 O231 2.035 . S
Zn227 O233 2.035 . S
Zn227 O234 2.028 . S
O228 C224 1.258 . S
O228 Zn229 2.035 . S
Zn229 O228 2.035 . S
Zn229 O230 2.028 . S
Zn229 O232 2.028 . S
Zn229 O235 2.035 . S
O230 Zn229 2.028 . S
O230 C236 1.247 . S
O231 Zn227 2.035 . S
O231 C236 1.258 . S
O232 C225 1.247 . S
O232 Zn229 2.028 . S
O233 C225 1.258 . S
O233 Zn227 2.035 . S
O234 Zn227 2.028 . S
O234 C237 1.247 . S
O235 Zn229 2.035 . S
O235 C237 1.258 . S
C236 O230 1.247 . S
C236 O231 1.258 . S
C237 O234 1.247 . S
C237 O235 1.258 . S
C238 O240 1.247 . S
C238 O242 1.258 . S
C239 O246 1.247 . S
C239 O247 1.258 . S
O240 C238 1.247 . S
O240 Zn241 2.028 . S
Zn241 O240 2.028 . S
Zn241 O245 2.035 . S
Zn241 O247 2.035 . S
Zn241 O248 2.028 . S
O242 C238 1.258 . S
O242 Zn243 2.035 . S
Zn243 O242 2.035 . S
Zn243 O244 2.028 . S
Zn243 O246 2.028 . S
Zn243 O249 2.035 . S
O244 Zn243 2.028 . S
O244 C250 1.247 . S
O245 Zn241 2.035 . S
O245 C250 1.258 . S
O246 C239 1.247 . S
O246 Zn243 2.028 . S
O247 C239 1.258 . S
O247 Zn241 2.035 . S
O248 Zn241 2.028 . S
O248 C251 1.247 . S
O249 Zn243 2.035 . S
O249 C251 1.258 . S
C250 O244 1.247 . S
C250 O245 1.258 . S
C251 O248 1.247 . S
C251 O249 1.258 . S
C252 O254 1.247 . S
C252 O256 1.258 1_655 S
C253 O260 1.247 1_655 S
C253 O261 1.258 . S
O254 C252 1.247 . S
O254 Zn255 2.028 1_556 S
Zn255 O254 2.028 1_554 S
Zn255 O259 2.035 . S
Zn255 O261 2.035 . S
Zn255 O262 2.028 . S
O256 C252 1.258 1_455 S
O256 Zn257 2.035 1_556 S
Zn257 O256 2.035 1_554 S
Zn257 O258 2.028 1_455 S
Zn257 O260 2.028 . S
Zn257 O263 2.035 . S
O258 Zn257 2.028 1_655 S
O258 C264 1.247 . S
O259 Zn255 2.035 . S
O259 C264 1.258 . S
O260 C253 1.247 1_455 S
O260 Zn257 2.028 . S
O261 C253 1.258 . S
O261 Zn255 2.035 . S
O262 Zn255 2.028 . S
O262 C265 1.247 1_655 S
O263 Zn257 2.035 . S
O263 C265 1.258 . S
C264 O258 1.247 . S
C264 O259 1.258 . S
C265 O262 1.247 1_455 S
C265 O263 1.258 . S
C266 O268 1.247 . S
C266 O270 1.258 . S
C267 O274 1.247 . S
C267 O275 1.258 . S
O268 C266 1.247 . S
O268 Zn269 2.028 . S
Zn269 O268 2.028 . S
Zn269 O273 2.035 . S
Zn269 O275 2.035 . S
Zn269 O276 2.028 . S
O270 C266 1.258 . S
O270 Zn271 2.035 . S
Zn271 O270 2.035 . S
Zn271 O272 2.028 . S
Zn271 O274 2.028 . S
Zn271 O277 2.035 . S
O272 Zn271 2.028 . S
O272 C278 1.247 . S
O273 Zn269 2.035 . S
O273 C278 1.258 . S
O274 C267 1.247 . S
O274 Zn271 2.028 . S
O275 C267 1.258 . S
O275 Zn269 2.035 . S
O276 Zn269 2.028 . S
O276 C279 1.247 . S
O277 Zn271 2.035 . S
O277 C279 1.258 . S
C278 O272 1.247 . S
C278 O273 1.258 . S
C279 O276 1.247 . S
C279 O277 1.258 . S
C280 O282 1.247 . S
C280 O284 1.258 . S
C281 O288 1.247 . S
C281 O289 1.258 . S
O282 C280 1.247 . S
O282 Zn283 2.028 1_554 S
Zn283 O282 2.028 1_556 S
Zn283 O287 2.035 . S
Zn283 O289 2.035 . S
Zn283 O290 2.028 . S
O284 C280 1.258 . S
O284 Zn285 2.035 1_554 S
Zn285 O284 2.035 1_556 S
Zn285 O286 2.028 . S
Zn285 O288 2.028 . S
Zn285 O291 2.035 . S
O286 Zn285 2.028 . S
O286 C292 1.247 . S
O287 Zn283 2.035 . S
O287 C292 1.258 . S
O288 C281 1.247 . S
O288 Zn285 2.028 . S
O289 C281 1.258 . S
O289 Zn283 2.035 . S
O290 Zn283 2.028 . S
O290 C293 1.247 . S
O291 Zn285 2.035 . S
O291 C293 1.258 . S
C292 O286 1.247 . S
C292 O287 1.258 . S
C293 O290 1.247 . S
C293 O291 1.258 . S
C294 O296 1.247 . S
C294 O298 1.258 . S
C295 O302 1.247 . S
C295 O303 1.258 . S
O296 C294 1.247 . S
O296 Zn297 2.028 . S
Zn297 O296 2.028 . S
Zn297 O301 2.035 . S
Zn297 O303 2.035 . S
Zn297 O304 2.028 . S
O298 C294 1.258 . S
O298 Zn299 2.035 . S
Zn299 O298 2.035 . S
Zn299 O300 2.028 . S
Zn299 O302 2.028 . S
Zn299 O305 2.035 . S
O300 Zn299 2.028 . S
O300 C306 1.247 . S
O301 Zn297 2.035 . S
O301 C306 1.258 . S
O302 C295 1.247 . S
O302 Zn299 2.028 . S
O303 C295 1.258 . S
O303 Zn297 2.035 . S
O304 Zn297 2.028 . S
O304 C307 1.247 . S
O305 Zn299 2.035 . S
O305 C307 1.258 . S
C306 O300 1.247 . S
C306 O301 1.258 . S
C307 O304 1.247 . S
C307 O305 1.258 . S
C308 O310 1.247 . S
C308 O312 1.258 . S
C309 O316 1.247 1_455 S
C309 O317 1.258 . S
O310 C308 1.247 . S
O310 Zn311 2.028 1_655 S
Zn311 O310 2.028 1_455 S
Zn311 O315 2.035 . S
Zn311 O317 2.035 . S
Zn311 O318 2.028 . S
O312 C308 1.258 . S
O312 Zn313 2.035 . S
Zn313 O312 2.035 . S
Zn313 O314 2.028 . S
Zn313 O316 2.028 . S
Zn313 O319 2.035 . S
O314 Zn313 2.028 . S
O314 C320 1.247 . S
O315 Zn311 2.035 . S
O315 C320 1.258 1_455 S
O316 C309 1.247 1_655 S
O316 Zn313 2.028 . S
O317 C309 1.258 . S
O317 Zn311 2.035 . S
O318 Zn311 2.028 . S
O318 C321 1.247 1_455 S
O319 Zn313 2.035 . S
O319 C321 1.258 . S
C320 O314 1.247 . S
C320 O315 1.258 1_655 S
C321 O318 1.247 1_655 S
C321 O319 1.258 . S
C322 O324 1.247 . S
C322 O326 1.258 . S
C323 O330 1.247 . S
C323 O331 1.258 . S
O324 C322 1.247 . S
O324 Zn325 2.028 . S
Zn325 O324 2.028 . S
Zn325 O329 2.035 . S
Zn325 O331 2.035 . S
Zn325 O332 2.028 . S
O326 C322 1.258 . S
O326 Zn327 2.035 . S
Zn327 O326 2.035 . S
Zn327 O328 2.028 . S
Zn327 O330 2.028 . S
Zn327 O333 2.035 . S
O328 Zn327 2.028 . S
O328 C334 1.247 . S
O329 Zn325 2.035 . S
O329 C334 1.258 . S
O330 C323 1.247 . S
O330 Zn327 2.028 . S
O331 C323 1.258 . S
O331 Zn325 2.035 . S
O332 Zn325 2.028 . S
O332 C335 1.247 . S
O333 Zn327 2.035 . S
O333 C335 1.258 . S
C334 O328 1.247 . S
C334 O329 1.258 . S
C335 O332 1.247 . S
C335 O333 1.258 . S
C336 O338 1.247 . S
C336 O340 1.258 . S
C337 O344 1.247 . S
C337 O345 1.258 . S
O338 C336 1.247 . S
O338 Zn339 2.028 . S
Zn339 O338 2.028 . S
Zn339 O343 2.035 . S
Zn339 O345 2.035 . S
Zn339 O346 2.028 . S
O340 C336 1.258 . S
O340 Zn341 2.035 . S
Zn341 O340 2.035 . S
Zn341 O342 2.028 . S
Zn341 O344 2.028 . S
Zn341 O347 2.035 . S
O342 Zn341 2.028 . S
O342 C348 1.247 . S
O343 Zn339 2.035 . S
O343 C348 1.258 . S
O344 C337 1.247 . S
O344 Zn341 2.028 . S
O345 C337 1.258 . S
O345 Zn339 2.035 . S
O346 Zn339 2.028 . S
O346 C349 1.247 . S
O347 Zn341 2.035 . S
O347 C349 1.258 . S
C348 O342 1.247 . S
C348 O343 1.258 . S
C349 O346 1.247 . S
C349 O347 1.258 . S
C350 O352 1.247 . S
C350 O354 1.258 . S
C351 O358 1.247 . S
C351 O359 1.258 . S
O352 C350 1.247 . S
O352 Zn353 2.028 . S
Zn353 O352 2.028 . S
Zn353 O357 2.035 . S
Zn353 O359 2.035 . S
Zn353 O360 2.028 . S
O354 C350 1.258 . S
O354 Zn355 2.035 . S
Zn355 O354 2.035 . S
Zn355 O356 2.028 . S
Zn355 O358 2.028 . S
Zn355 O361 2.035 . S
O356 Zn355 2.028 . S
O356 C362 1.247 . S
O357 Zn353 2.035 . S
O357 C362 1.258 . S
O358 C351 1.247 . S
O358 Zn355 2.028 . S
O359 C351 1.258 . S
O359 Zn353 2.035 . S
O360 Zn353 2.028 . S
O360 C363 1.247 . S
O361 Zn355 2.035 . S
O361 C363 1.258 . S
C362 O356 1.247 . S
C362 O357 1.258 . S
C363 O360 1.247 . S
C363 O361 1.258 . S
C364 O366 1.247 . S
C364 O368 1.258 . S
C365 O372 1.247 . S
C365 O373 1.258 1_655 S
O366 C364 1.247 . S
O366 Zn367 2.028 . S
Zn367 O366 2.028 . S
Zn367 O371 2.035 1_556 S
Zn367 O373 2.035 . S
Zn367 O374 2.028 . S
O368 C364 1.258 . S
O368 Zn369 2.035 1_455 S
Zn369 O368 2.035 1_655 S
Zn369 O370 2.028 1_556 S
Zn369 O372 2.028 . S
Zn369 O375 2.035 . S
O370 Zn369 2.028 1_554 S
O370 C376 1.247 1_655 S
O371 Zn367 2.035 1_554 S
O371 C376 1.258 . S
O372 C365 1.247 . S
O372 Zn369 2.028 . S
O373 C365 1.258 1_455 S
O373 Zn367 2.035 . S
O374 Zn367 2.028 . S
O374 C377 1.247 . S
O375 Zn369 2.035 . S
O375 C377 1.258 1_655 S
C376 O370 1.247 1_455 S
C376 O371 1.258 . S
C377 O374 1.247 . S
C377 O375 1.258 1_455 S
C378 O380 1.247 . S
C378 O382 1.258 . S
C379 O386 1.247 . S
C379 O387 1.258 . S
O380 C378 1.247 . S
O380 Zn381 2.028 . S
Zn381 O380 2.028 . S
Zn381 O385 2.035 . S
Zn381 O387 2.035 . S
Zn381 O388 2.028 . S
O382 C378 1.258 . S
O382 Zn383 2.035 . S
Zn383 O382 2.035 . S
Zn383 O384 2.028 . S
Zn383 O386 2.028 . S
Zn383 O389 2.035 . S
O384 Zn383 2.028 . S
O384 C390 1.247 . S
O385 Zn381 2.035 . S
O385 C390 1.258 . S
O386 C379 1.247 . S
O386 Zn383 2.028 . S
O387 C379 1.258 . S
O387 Zn381 2.035 . S
O388 Zn381 2.028 . S
O388 C391 1.247 . S
O389 Zn383 2.035 . S
O389 C391 1.258 . S
C390 O384 1.247 . S
C390 O385 1.258 . S
C391 O388 1.247 . S
C391 O389 1.258 . S
C392 O394 1.247 . S
C392 O396 1.258 . S
C393 O400 1.247 . S
C393 O401 1.258 . S
O394 C392 1.247 . S
O394 Zn395 2.028 . S
Zn395 O394 2.028 . S
Zn395 O399 2.035 . S
Zn395 O401 2.035 1_554 S
Zn395 O402 2.028 . S
O396 C392 1.258 . S
O396 Zn397 2.035 . S
Zn397 O396 2.035 . S
Zn397 O398 2.028 . S
Zn397 O400 2.028 1_554 S
Zn397 O403 2.035 . S
O398 Zn397 2.028 . S
O398 C404 1.247 . S
O399 Zn395 2.035 . S
O399 C404 1.258 . S
O400 C393 1.247 . S
O400 Zn397 2.028 1_556 S
O401 C393 1.258 . S
O401 Zn395 2.035 1_556 S
O402 Zn395 2.028 . S
O402 C405 1.247 . S
O403 Zn397 2.035 . S
O403 C405 1.258 . S
C404 O398 1.247 . S
C404 O399 1.258 . S
C405 O402 1.247 . S
C405 O403 1.258 . S
C406 O408 1.247 . S
C406 O410 1.258 . S
C407 O414 1.247 . S
C407 O415 1.258 . S
O408 C406 1.247 . S
O408 Zn409 2.028 . S
Zn409 O408 2.028 . S
Zn409 O413 2.035 . S
Zn409 O415 2.035 . S
Zn409 O416 2.028 . S
O410 C406 1.258 . S
O410 Zn411 2.035 . S
Zn411 O410 2.035 . S
Zn411 O412 2.028 . S
Zn411 O414 2.028 . S
Zn411 O417 2.035 . S
O412 Zn411 2.028 . S
O412 C418 1.247 . S
O413 Zn409 2.035 . S
O413 C418 1.258 . S
O414 C407 1.247 . S
O414 Zn411 2.028 . S
O415 C407 1.258 . S
O415 Zn409 2.035 . S
O416 Zn409 2.028 . S
O416 C419 1.247 . S
O417 Zn411 2.035 . S
O417 C419 1.258 . S
C418 O412 1.247 . S
C418 O413 1.258 . S
C419 O416 1.247 . S
C419 O417 1.258 . S
C420 O422 1.247 . S
C420 O424 1.258 . S
C421 O428 1.247 . S
C421 O429 1.258 1_655 S
O422 C420 1.247 . S
O422 Zn423 2.028 . S
Zn423 O422 2.028 . S
Zn423 O427 2.035 . S
Zn423 O429 2.035 . S
Zn423 O430 2.028 . S
O424 C420 1.258 . S
O424 Zn425 2.035 1_455 S
Zn425 O424 2.035 1_655 S
Zn425 O426 2.028 . S
Zn425 O428 2.028 . S
Zn425 O431 2.035 . S
O426 Zn425 2.028 . S
O426 C432 1.247 1_655 S
O427 Zn423 2.035 . S
O427 C432 1.258 . S
O428 C421 1.247 . S
O428 Zn425 2.028 . S
O429 C421 1.258 1_455 S
O429 Zn423 2.035 . S
O430 Zn423 2.028 . S
O430 C433 1.247 . S
O431 Zn425 2.035 . S
O431 C433 1.258 1_655 S
C432 O426 1.247 1_455 S
C432 O427 1.258 . S
C433 O430 1.247 . S
C433 O431 1.258 1_455 S
C434 O436 1.247 . S
C434 O438 1.258 . S
C435 O442 1.247 . S
C435 O443 1.258 . S
O436 C434 1.247 . S
O436 Zn437 2.028 . S
Zn437 O436 2.028 . S
Zn437 O441 2.035 . S
Zn437 O443 2.035 . S
Zn437 O444 2.028 . S
O438 C434 1.258 . S
O438 Zn439 2.035 . S
Zn439 O438 2.035 . S
Zn439 O440 2.028 . S
Zn439 O442 2.028 . S
Zn439 O445 2.035 . S
O440 Zn439 2.028 . S
O440 C446 1.247 . S
O441 Zn437 2.035 . S
O441 C446 1.258 . S
O442 C435 1.247 . S
O442 Zn439 2.028 . S
O443 C435 1.258 . S
O443 Zn437 2.035 . S
O444 Zn437 2.028 . S
O444 C447 1.247 . S
O445 Zn439 2.035 . S
O445 C447 1.258 . S
C446 O440 1.247 . S
C446 O441 1.258 . S
C447 O444 1.247 . S
C447 O445 1.258 . S
H448 C454 0.930 . S
H449 C457 0.930 . S
H450 C458 0.930 . S
H451 C459 0.930 . S
H452 C462 0.930 . S
H453 C463 0.930 . S
C454 H448 0.930 . S
C454 C455 1.355 1_455 S
C454 C456 1.415 . S
C455 C454 1.355 1_655 S
C455 C457 1.419 . S
C456 C454 1.415 . S
C456 C461 1.425 1_455 S
C456 C463 1.409 . S
C457 H449 0.930 . S
C457 C455 1.419 . S
C457 C458 1.362 . S
C458 H450 0.930 . S
C458 C457 1.362 . S
C458 C461 1.409 . S
C459 H451 0.930 . S
C459 C460 1.355 1_655 S
C459 C461 1.415 . S
C460 C459 1.355 1_455 S
C460 C462 1.419 . S
C461 C456 1.425 1_655 S
C461 C458 1.409 . S
C461 C459 1.415 . S
C462 H452 0.930 . S
C462 C460 1.419 . S
C462 C463 1.362 . S
C463 H453 0.930 . S
C463 C456 1.409 . S
C463 C462 1.362 . S
H464 C470 0.930 1_556 S
H465 C473 0.930 . S
H466 C474 0.930 . S
H467 C475 0.930 . S
H468 C478 0.930 . S
H469 C479 0.930 . S
C470 H464 0.930 1_554 S
C470 C471 1.355 1_554 S
C470 C472 1.415 . S
C471 C470 1.355 1_556 S
C471 C473 1.419 . S
C472 C470 1.415 . S
C472 C477 1.425 . S
C472 C479 1.409 . S
C473 H465 0.930 . S
C473 C471 1.419 . S
C473 C474 1.362 1_556 S
C474 H466 0.930 . S
C474 C473 1.362 1_554 S
C474 C477 1.409 . S
C475 H467 0.930 . S
C475 C476 1.355 . S
C475 C477 1.415 . S
C476 C475 1.355 . S
C476 C478 1.419 . S
C477 C472 1.425 . S
C477 C474 1.409 . S
C477 C475 1.415 . S
C478 H468 0.930 . S
C478 C476 1.419 . S
C478 C479 1.362 . S
C479 H469 0.930 . S
C479 C472 1.409 . S
C479 C478 1.362 . S
H480 C486 0.930 . S
H481 C489 0.930 . S
H482 C490 0.930 . S
H483 C491 0.930 . S
H484 C494 0.930 . S
H485 C495 0.930 . S
C486 H480 0.930 . S
C486 C487 1.355 . S
C486 C488 1.415 . S
C487 C486 1.355 . S
C487 C489 1.419 . S
C488 C486 1.415 . S
C488 C493 1.425 . S
C488 C495 1.409 . S
C489 H481 0.930 . S
C489 C487 1.419 . S
C489 C490 1.362 . S
C490 H482 0.930 . S
C490 C489 1.362 . S
C490 C493 1.409 . S
C491 H483 0.930 . S
C491 C492 1.355 . S
C491 C493 1.415 . S
C492 C491 1.355 . S
C492 C494 1.419 . S
C493 C488 1.425 . S
C493 C490 1.409 . S
C493 C491 1.415 . S
C494 H484 0.930 . S
C494 C492 1.419 . S
C494 C495 1.362 . S
C495 H485 0.930 . S
C495 C488 1.409 . S
C495 C494 1.362 . S
H496 C502 0.930 . S
H497 C505 0.930 . S
H498 C506 0.930 . S
H499 C507 0.930 . S
H500 C510 0.930 . S
H501 C511 0.930 . S
C502 H496 0.930 . S
C502 C503 1.355 . S
C502 C504 1.415 . S
C503 C502 1.355 . S
C503 C505 1.419 . S
C504 C502 1.415 . S
C504 C509 1.425 . S
C504 C511 1.409 . S
C505 H497 0.930 . S
C505 C503 1.419 . S
C505 C506 1.362 . S
C506 H498 0.930 . S
C506 C505 1.362 . S
C506 C509 1.409 . S
C507 H499 0.930 . S
C507 C508 1.355 . S
C507 C509 1.415 . S
C508 C507 1.355 . S
C508 C510 1.419 . S
C509 C504 1.425 . S
C509 C506 1.409 . S
C509 C507 1.415 . S
C510 H500 0.930 . S
C510 C508 1.419 . S
C510 C511 1.362 . S
C511 H501 0.930 . S
C511 C504 1.409 . S
C511 C510 1.362 . S
H512 C518 0.930 . S
H513 C521 0.930 . S
H514 C522 0.930 . S
H515 C523 0.930 . S
H516 C526 0.930 . S
H517 C527 0.930 . S
C518 H512 0.930 . S
C518 C519 1.355 1_455 S
C518 C520 1.415 . S
C519 C518 1.355 1_655 S
C519 C521 1.419 . S
C520 C518 1.415 . S
C520 C525 1.425 1_455 S
C520 C527 1.409 . S
C521 H513 0.930 . S
C521 C519 1.419 . S
C521 C522 1.362 . S
C522 H514 0.930 . S
C522 C521 1.362 . S
C522 C525 1.409 . S
C523 H515 0.930 . S
C523 C524 1.355 1_655 S
C523 C525 1.415 . S
C524 C523 1.355 1_455 S
C524 C526 1.419 . S
C525 C520 1.425 1_655 S
C525 C522 1.409 . S
C525 C523 1.415 . S
C526 H516 0.930 . S
C526 C524 1.419 . S
C526 C527 1.362 . S
C527 H517 0.930 . S
C527 C520 1.409 . S
C527 C526 1.362 . S
H528 C534 0.930 . S
H529 C537 0.930 . S
H530 C538 0.930 . S
H531 C539 0.930 . S
H532 C542 0.930 . S
H533 C543 0.930 . S
C534 H528 0.930 . S
C534 C535 1.355 . S
C534 C536 1.415 . S
C535 C534 1.355 . S
C535 C537 1.419 . S
C536 C534 1.415 . S
C536 C541 1.425 . S
C536 C543 1.409 . S
C537 H529 0.930 . S
C537 C535 1.419 . S
C537 C538 1.362 . S
C538 H530 0.930 . S
C538 C537 1.362 . S
C538 C541 1.409 . S
C539 H531 0.930 . S
C539 C540 1.355 1_556 S
C539 C541 1.415 . S
C540 C539 1.355 1_554 S
C540 C542 1.419 . S
C541 C536 1.425 . S
C541 C538 1.409 . S
C541 C539 1.415 . S
C542 H532 0.930 . S
C542 C540 1.419 . S
C542 C543 1.362 1_554 S
C543 H533 0.930 . S
C543 C536 1.409 . S
C543 C542 1.362 1_556 S
H544 C550 0.930 . S
H545 C553 0.930 . S
H546 C554 0.930 . S
H547 C555 0.930 . S
H548 C558 0.930 . S
H549 C559 0.930 . S
C550 H544 0.930 . S
C550 C551 1.355 . S
C550 C552 1.415 . S
C551 C550 1.355 . S
C551 C553 1.419 . S
C552 C550 1.415 . S
C552 C557 1.425 . S
C552 C559 1.409 . S
C553 H545 0.930 . S
C553 C551 1.419 . S
C553 C554 1.362 . S
C554 H546 0.930 . S
C554 C553 1.362 . S
C554 C557 1.409 . S
C555 H547 0.930 . S
C555 C556 1.355 . S
C555 C557 1.415 . S
C556 C555 1.355 . S
C556 C558 1.419 . S
C557 C552 1.425 . S
C557 C554 1.409 . S
C557 C555 1.415 . S
C558 H548 0.930 . S
C558 C556 1.419 . S
C558 C559 1.362 . S
C559 H549 0.930 . S
C559 C552 1.409 . S
C559 C558 1.362 . S
H560 C566 0.930 . S
H561 C569 0.930 . S
H562 C570 0.930 . S
H563 C571 0.930 . S
H564 C574 0.930 . S
H565 C575 0.930 . S
C566 H560 0.930 . S
C566 C567 1.355 . S
C566 C568 1.415 . S
C567 C566 1.355 . S
C567 C569 1.419 . S
C568 C566 1.415 . S
C568 C573 1.425 . S
C568 C575 1.409 . S
C569 H561 0.930 . S
C569 C567 1.419 . S
C569 C570 1.362 . S
C570 H562 0.930 . S
C570 C569 1.362 . S
C570 C573 1.409 . S
C571 H563 0.930 . S
C571 C572 1.355 . S
C571 C573 1.415 . S
C572 C571 1.355 . S
C572 C574 1.419 . S
C573 C568 1.425 . S
C573 C570 1.409 . S
C573 C571 1.415 . S
C574 H564 0.930 . S
C574 C572 1.419 . S
C574 C575 1.362 . S
C575 H565 0.930 . S
C575 C568 1.409 . S
C575 C574 1.362 . S
H576 C582 0.930 . S
H577 C585 0.930 . S
H578 C586 0.930 . S
H579 C587 0.930 . S
H580 C590 0.930 . S
H581 C591 0.930 . S
C582 H576 0.930 . S
C582 C583 1.355 . S
C582 C584 1.415 1_455 S
C583 C582 1.355 . S
C583 C585 1.419 . S
C584 C582 1.415 1_655 S
C584 C589 1.426 . S
C584 C591 1.409 . S
C585 H577 0.930 . S
C585 C583 1.419 . S
C585 C586 1.362 . S
C586 H578 0.930 . S
C586 C585 1.362 . S
C586 C589 1.407 1_455 S
C587 H579 0.930 . S
C587 C588 1.355 . S
C587 C589 1.416 . S
C588 C587 1.355 . S
C588 C590 1.419 . S
C589 C584 1.426 . S
C589 C586 1.407 1_655 S
C589 C587 1.416 . S
C590 H580 0.930 . S
C590 C588 1.419 . S
C590 C591 1.362 . S
C591 H581 0.930 . S
C591 C584 1.409 . S
C591 C590 1.362 . S
H592 C598 0.930 . S
H593 C601 0.930 . S
H594 C602 0.930 . S
H595 C603 0.930 . S
H596 C606 0.930 . S
H597 C607 0.930 . S
C598 H592 0.930 . S
C598 C599 1.355 . S
C598 C600 1.415 1_554 S
C599 C598 1.355 . S
C599 C601 1.419 . S
C600 C598 1.415 1_556 S
C600 C605 1.425 . S
C600 C607 1.409 . S
C601 H593 0.930 . S
C601 C599 1.419 . S
C601 C602 1.362 1_554 S
C602 H594 0.930 . S
C602 C601 1.362 1_556 S
C602 C605 1.409 . S
C603 H595 0.930 . S
C603 C604 1.355 . S
C603 C605 1.415 . S
C604 C603 1.355 . S
C604 C606 1.419 . S
C605 C600 1.425 . S
C605 C602 1.409 . S
C605 C603 1.415 . S
C606 H596 0.930 . S
C606 C604 1.419 . S
C606 C607 1.362 . S
C607 H597 0.930 . S
C607 C600 1.409 . S
C607 C606 1.362 . S
H608 C614 0.930 . S
H609 C617 0.930 . S
H610 C618 0.930 . S
H611 C619 0.930 . S
H612 C622 0.930 . S
H613 C623 0.930 . S
C614 H608 0.930 . S
C614 C615 1.355 . S
C614 C616 1.415 . S
C615 C614 1.355 . S
C615 C617 1.419 . S
C616 C614 1.415 . S
C616 C621 1.425 . S
C616 C623 1.409 . S
C617 H609 0.930 . S
C617 C615 1.419 . S
C617 C618 1.362 . S
C618 H610 0.930 . S
C618 C617 1.362 . S
C618 C621 1.409 . S
C619 H611 0.930 . S
C619 C620 1.355 . S
C619 C621 1.415 . S
C620 C619 1.355 . S
C620 C622 1.419 . S
C621 C616 1.425 . S
C621 C618 1.409 . S
C621 C619 1.415 . S
C622 H612 0.930 . S
C622 C620 1.419 . S
C622 C623 1.362 . S
C623 H613 0.930 . S
C623 C616 1.409 . S
C623 C622 1.362 . S
H624 C630 0.930 . S
H625 C633 0.930 . S
H626 C634 0.930 . S
H627 C635 0.930 . S
H628 C638 0.930 . S
H629 C639 0.930 . S
C630 H624 0.930 . S
C630 C631 1.355 . S
C630 C632 1.415 . S
C631 C630 1.355 . S
C631 C633 1.419 . S
C632 C630 1.415 . S
C632 C637 1.425 . S
C632 C639 1.409 . S
C633 H625 0.930 . S
C633 C631 1.419 . S
C633 C634 1.362 . S
C634 H626 0.930 . S
C634 C633 1.362 . S
C634 C637 1.409 . S
C635 H627 0.930 . S
C635 C636 1.355 . S
C635 C637 1.415 . S
C636 C635 1.355 . S
C636 C638 1.419 . S
C637 C632 1.425 . S
C637 C634 1.409 . S
C637 C635 1.415 . S
C638 H628 0.930 . S
C638 C636 1.419 . S
C638 C639 1.362 . S
C639 H629 0.930 . S
C639 C632 1.409 . S
C639 C638 1.362 . S
H640 C646 0.930 . S
H641 C649 0.930 . S
H642 C650 0.930 . S
H643 C651 0.930 . S
H644 C654 0.930 . S
H645 C655 0.930 . S
C646 H640 0.930 . S
C646 C647 1.355 . S
C646 C648 1.415 . S
C647 C646 1.355 . S
C647 C649 1.419 1_655 S
C648 C646 1.415 . S
C648 C653 1.425 1_655 S
C648 C655 1.409 . S
C649 H641 0.930 . S
C649 C647 1.419 1_455 S
C649 C650 1.362 . S
C650 H642 0.930 . S
C650 C649 1.362 . S
C650 C653 1.409 . S
C651 H643 0.930 . S
C651 C652 1.355 . S
C651 C653 1.415 . S
C652 C651 1.355 . S
C652 C654 1.419 1_455 S
C653 C648 1.425 1_455 S
C653 C650 1.409 . S
C653 C651 1.415 . S
C654 H644 0.930 . S
C654 C652 1.419 1_655 S
C654 C655 1.362 . S
C655 H645 0.930 . S
C655 C648 1.409 . S
C655 C654 1.362 . S
H656 C662 0.930 . S
H657 C665 0.930 . S
H658 C666 0.930 . S
H659 C667 0.930 . S
H660 C670 0.930 . S
H661 C671 0.930 . S
C662 H656 0.930 . S
C662 C663 1.355 . S
C662 C664 1.415 . S
C663 C662 1.355 . S
C663 C665 1.419 . S
C664 C662 1.415 . S
C664 C669 1.425 . S
C664 C671 1.409 . S
C665 H657 0.930 . S
C665 C663 1.419 . S
C665 C666 1.362 . S
C666 H658 0.930 . S
C666 C665 1.362 . S
C666 C669 1.409 . S
C667 H659 0.930 . S
C667 C668 1.355 1_554 S
C667 C669 1.415 . S
C668 C667 1.355 1_556 S
C668 C670 1.419 . S
C669 C664 1.425 . S
C669 C666 1.409 . S
C669 C667 1.415 . S
C670 H660 0.930 . S
C670 C668 1.419 . S
C670 C671 1.362 1_556 S
C671 H661 0.930 . S
C671 C664 1.409 . S
C671 C670 1.362 1_554 S
H672 C678 0.930 . S
H673 C681 0.930 . S
H674 C682 0.930 . S
H675 C683 0.930 . S
H676 C686 0.930 . S
H677 C687 0.930 . S
C678 H672 0.930 . S
C678 C679 1.355 . S
C678 C680 1.415 . S
C679 C678 1.355 . S
C679 C681 1.419 . S
C680 C678 1.415 . S
C680 C685 1.425 . S
C680 C687 1.409 . S
C681 H673 0.930 . S
C681 C679 1.419 . S
C681 C682 1.362 . S
C682 H674 0.930 . S
C682 C681 1.362 . S
C682 C685 1.409 . S
C683 H675 0.930 . S
C683 C684 1.355 . S
C683 C685 1.415 . S
C684 C683 1.355 . S
C684 C686 1.419 . S
C685 C680 1.425 . S
C685 C682 1.409 . S
C685 C683 1.415 . S
C686 H676 0.930 . S
C686 C684 1.419 . S
C686 C687 1.362 . S
C687 H677 0.930 . S
C687 C680 1.409 . S
C687 C686 1.362 . S
H688 C694 0.930 . S
H689 C697 0.930 . S
H690 C698 0.930 . S
H691 C699 0.930 . S
H692 C702 0.930 . S
H693 C703 0.930 . S
C694 H688 0.930 . S
C694 C695 1.355 . S
C694 C696 1.415 . S
C695 C694 1.355 . S
C695 C697 1.419 . S
C696 C694 1.415 . S
C696 C701 1.425 . S
C696 C703 1.409 . S
C697 H689 0.930 . S
C697 C695 1.419 . S
C697 C698 1.362 . S
C698 H690 0.930 . S
C698 C697 1.362 . S
C698 C701 1.409 . S
C699 H691 0.930 . S
C699 C700 1.355 . S
C699 C701 1.415 . S
C700 C699 1.355 . S
C700 C702 1.419 . S
C701 C696 1.425 . S
C701 C698 1.409 . S
C701 C699 1.415 . S
C702 H692 0.930 . S
C702 C700 1.419 . S
C702 C703 1.362 . S
C703 H693 0.930 . S
C703 C696 1.409 . S
C703 C702 1.362 . S
H704 C710 0.930 . S
H705 C713 0.930 . S
H706 C714 0.930 . S
H707 C715 0.930 . S
H708 C718 0.930 . S
H709 C719 0.930 . S
C710 H704 0.930 . S
C710 C711 1.355 . S
C710 C712 1.415 . S
C711 C710 1.355 . S
C711 C713 1.419 . S
C712 C710 1.415 . S
C712 C717 1.425 . S
C712 C719 1.409 . S
C713 H705 0.930 . S
C713 C711 1.419 . S
C713 C714 1.362 . S
C714 H706 0.930 . S
C714 C713 1.362 . S
C714 C717 1.409 . S
C715 H707 0.930 . S
C715 C716 1.355 . S
C715 C717 1.415 . S
C716 C715 1.355 . S
C716 C718 1.419 . S
C717 C712 1.425 . S
C717 C714 1.409 . S
C717 C715 1.415 . S
C718 H708 0.930 . S
C718 C716 1.419 . S
C718 C719 1.362 . S
C719 H709 0.930 . S
C719 C712 1.409 . S
C719 C718 1.362 . S
H720 C726 0.930 . S
H721 C729 0.930 . S
H722 C730 0.930 . S
H723 C731 0.930 . S
H724 C734 0.930 . S
H725 C735 0.930 . S
C726 H720 0.930 . S
C726 C727 1.355 . S
C726 C728 1.415 . S
C727 C726 1.355 . S
C727 C729 1.419 . S
C728 C726 1.415 . S
C728 C733 1.425 . S
C728 C735 1.409 . S
C729 H721 0.930 . S
C729 C727 1.419 . S
C729 C730 1.362 . S
C730 H722 0.930 . S
C730 C729 1.362 . S
C730 C733 1.409 . S
C731 H723 0.930 . S
C731 C732 1.355 . S
C731 C733 1.415 . S
C732 C731 1.355 . S
C732 C734 1.419 . S
C733 C728 1.425 . S
C733 C730 1.409 . S
C733 C731 1.415 . S
C734 H724 0.930 . S
C734 C732 1.419 . S
C734 C735 1.362 . S
C735 H725 0.930 . S
C735 C728 1.409 . S
C735 C734 1.362 . S
H736 C742 0.930 . S
H737 C745 0.930 . S
H738 C746 0.930 . S
H739 C747 0.930 . S
H740 C750 0.930 . S
H741 C751 0.930 . S
C742 H736 0.930 . S
C742 C743 1.355 . S
C742 C744 1.415 . S
C743 C742 1.355 . S
C743 C745 1.419 1_455 S
C744 C742 1.415 . S
C744 C749 1.425 1_455 S
C744 C751 1.409 . S
C745 H737 0.930 . S
C745 C743 1.419 1_655 S
C745 C746 1.362 . S
C746 H738 0.930 . S
C746 C745 1.362 . S
C746 C749 1.409 . S
C747 H739 0.930 . S
C747 C748 1.355 . S
C747 C749 1.415 . S
C748 C747 1.355 . S
C748 C750 1.419 1_655 S
C749 C744 1.425 1_655 S
C749 C746 1.409 . S
C749 C747 1.415 . S
C750 H740 0.930 . S
C750 C748 1.419 1_455 S
C750 C751 1.362 . S
C751 H741 0.930 . S
C751 C744 1.409 . S
C751 C750 1.362 . S
H752 C758 0.930 . S
H753 C761 0.930 . S
H754 C762 0.930 . S
H755 C763 0.930 . S
H756 C766 0.930 . S
H757 C767 0.930 . S
C758 H752 0.930 . S
C758 C759 1.355 . S
C758 C760 1.415 . S
C759 C758 1.355 . S
C759 C761 1.419 . S
C760 C758 1.415 . S
C760 C765 1.425 . S
C760 C767 1.409 . S
C761 H753 0.930 . S
C761 C759 1.419 . S
C761 C762 1.362 . S
C762 H754 0.930 . S
C762 C761 1.362 . S
C762 C765 1.409 . S
C763 H755 0.930 . S
C763 C764 1.355 1_554 S
C763 C765 1.415 . S
C764 C763 1.355 1_556 S
C764 C766 1.419 . S
C765 C760 1.425 . S
C765 C762 1.409 . S
C765 C763 1.415 . S
C766 H756 0.930 . S
C766 C764 1.419 . S
C766 C767 1.362 1_556 S
C767 H757 0.930 . S
C767 C760 1.409 . S
C767 C766 1.362 1_554 S
H768 C774 0.930 . S
H769 C777 0.930 . S
H770 C778 0.930 . S
H771 C779 0.930 . S
H772 C782 0.930 . S
H773 C783 0.930 . S
C774 H768 0.930 . S
C774 C775 1.355 . S
C774 C776 1.415 . S
C775 C774 1.355 . S
C775 C777 1.419 . S
C776 C774 1.415 . S
C776 C781 1.425 . S
C776 C783 1.409 . S
C777 H769 0.930 . S
C777 C775 1.419 . S
C777 C778 1.362 . S
C778 H770 0.930 . S
C778 C777 1.362 . S
C778 C781 1.409 . S
C779 H771 0.930 . S
C779 C780 1.355 . S
C779 C781 1.415 . S
C780 C779 1.355 . S
C780 C782 1.419 . S
C781 C776 1.425 . S
C781 C778 1.409 . S
C781 C779 1.415 . S
C782 H772 0.930 . S
C782 C780 1.419 . S
C782 C783 1.362 . S
C783 H773 0.930 . S
C783 C776 1.409 . S
C783 C782 1.362 . S
H784 C790 0.930 . S
H785 C793 0.930 . S
H786 C794 0.930 . S
H787 C795 0.930 . S
H788 C798 0.930 . S
H789 C799 0.930 . S
C790 H784 0.930 . S
C790 C791 1.355 . S
C790 C792 1.415 . S
C791 C790 1.355 . S
C791 C793 1.419 . S
C792 C790 1.415 . S
C792 C797 1.425 . S
C792 C799 1.409 . S
C793 H785 0.930 . S
C793 C791 1.419 . S
C793 C794 1.362 . S
C794 H786 0.930 . S
C794 C793 1.362 . S
C794 C797 1.409 . S
C795 H787 0.930 . S
C795 C796 1.355 . S
C795 C797 1.415 . S
C796 C795 1.355 . S
C796 C798 1.419 . S
C797 C792 1.425 . S
C797 C794 1.409 . S
C797 C795 1.415 . S
C798 H788 0.930 . S
C798 C796 1.419 . S
C798 C799 1.362 . S
C799 H789 0.930 . S
C799 C792 1.409 . S
C799 C798 1.362 . S
H800 C806 0.930 . S
H801 C809 0.930 . S
H802 C810 0.930 . S
H803 C811 0.930 . S
H804 C814 0.930 . S
H805 C815 0.930 . S
C806 H800 0.930 . S
C806 C807 1.355 . S
C806 C808 1.415 . S
C807 C806 1.355 . S
C807 C809 1.419 1_455 S
C808 C806 1.415 . S
C808 C813 1.425 1_455 S
C808 C815 1.409 . S
C809 H801 0.930 . S
C809 C807 1.419 1_655 S
C809 C810 1.362 . S
C810 H802 0.930 . S
C810 C809 1.362 . S
C810 C813 1.409 . S
C811 H803 0.930 . S
C811 C812 1.355 . S
C811 C813 1.415 . S
C812 C811 1.355 . S
C812 C814 1.419 1_655 S
C813 C808 1.425 1_655 S
C813 C810 1.409 . S
C813 C811 1.415 . S
C814 H804 0.930 . S
C814 C812 1.419 1_455 S
C814 C815 1.362 . S
C815 H805 0.930 . S
C815 C808 1.409 . S
C815 C814 1.362 . S
H816 C822 0.930 . S
H817 C825 0.930 . S
H818 C826 0.930 . S
H819 C827 0.930 . S
H820 C830 0.930 . S
H821 C831 0.930 . S
C822 H816 0.930 . S
C822 C823 1.355 . S
C822 C824 1.415 1_554 S
C823 C822 1.355 . S
C823 C825 1.419 . S
C824 C822 1.415 1_556 S
C824 C829 1.425 . S
C824 C831 1.409 . S
C825 H817 0.930 . S
C825 C823 1.419 . S
C825 C826 1.362 1_554 S
C826 H818 0.930 . S
C826 C825 1.362 1_556 S
C826 C829 1.409 . S
C827 H819 0.930 . S
C827 C828 1.355 . S
C827 C829 1.415 . S
C828 C827 1.355 . S
C828 C830 1.419 . S
C829 C824 1.425 . S
C829 C826 1.409 . S
C829 C827 1.415 . S
C830 H820 0.930 . S
C830 C828 1.419 . S
C830 C831 1.362 . S
C831 H821 0.930 . S
C831 C824 1.409 . S
C831 C830 1.362 . S
H832 C838 0.930 . S
H833 C841 0.930 . S
H834 C842 0.930 . S
H835 C843 0.930 . S
H836 C846 0.930 . S
H837 C847 0.930 . S
C838 H832 0.930 . S
C838 C839 1.355 . S
C838 C840 1.415 . S
C839 C838 1.355 . S
C839 C841 1.419 . S
C840 C838 1.415 . S
C840 C845 1.425 . S
C840 C847 1.409 . S
C841 H833 0.930 . S
C841 C839 1.419 . S
C841 C842 1.362 . S
C842 H834 0.930 . S
C842 C841 1.362 . S
C842 C845 1.409 . S
C843 H835 0.930 . S
C843 C844 1.355 . S
C843 C845 1.415 . S
C844 C843 1.355 . S
C844 C846 1.419 . S
C845 C840 1.425 . S
C845 C842 1.409 . S
C845 C843 1.415 . S
C846 H836 0.930 . S
C846 C844 1.419 . S
C846 C847 1.362 . S
C847 H837 0.930 . S
C847 C840 1.409 . S
C847 C846 1.362 . S
H848 C854 0.930 . S
H849 C857 0.930 . S
H850 C858 0.930 . S
H851 C859 0.930 . S
H852 C862 0.930 . S
H853 C863 0.930 . S
C854 H848 0.930 . S
C854 C855 1.355 . S
C854 C856 1.415 . S
C855 C854 1.355 . S
C855 C857 1.419 . S
C856 C854 1.415 . S
C856 C861 1.425 . S
C856 C863 1.409 . S
C857 H849 0.930 . S
C857 C855 1.419 . S
C857 C858 1.362 . S
C858 H850 0.930 . S
C858 C857 1.362 . S
C858 C861 1.409 . S
C859 H851 0.930 . S
C859 C860 1.355 . S
C859 C861 1.415 . S
C860 C859 1.355 . S
C860 C862 1.419 . S
C861 C856 1.425 . S
C861 C858 1.409 . S
C861 C859 1.415 . S
C862 H852 0.930 . S
C862 C860 1.419 . S
C862 C863 1.362 . S
C863 H853 0.930 . S
C863 C856 1.409 . S
C863 C862 1.362 . S
H864 C870 0.930 1_655 S
H865 C873 0.930 . S
H866 C874 0.930 . S
H867 C875 0.941 . S
H868 C878 0.930 . S
H869 C879 0.930 . S
C870 H864 0.930 1_455 S
C870 C871 1.355 . S
C870 C872 1.415 1_455 S
C871 C870 1.355 . S
C871 C873 1.419 . S
C872 C870 1.415 1_655 S
C872 C877 1.425 1_655 S
C872 C879 1.409 . S
C873 H865 0.930 . S
C873 C871 1.419 . S
C873 C874 1.362 . S
C874 H866 0.930 . S
C874 C873 1.362 . S
C874 C877 1.409 . S
C875 H867 0.941 . S
C875 C876 1.337 1_455 S
C875 C877 1.423 . S
C876 C875 1.337 1_655 S
C876 C878 1.419 . S
C877 C872 1.425 1_455 S
C877 C874 1.409 . S
C877 C875 1.423 . S
C878 H868 0.930 . S
C878 C876 1.419 . S
C878 C879 1.362 . S
C879 H869 0.930 . S
C879 C872 1.409 . S
C879 C878 1.362 . S
H880 C886 0.930 . S
H881 C889 0.930 . S
H882 C890 0.930 . S
H883 C891 0.930 1_554 S
H884 C894 0.930 . S
H885 C895 0.930 . S
C886 H880 0.930 . S
C886 C887 1.355 . S
C886 C888 1.415 . S
C887 C886 1.355 . S
C887 C889 1.419 . S
C888 C886 1.415 . S
C888 C893 1.425 . S
C888 C895 1.409 . S
C889 H881 0.930 . S
C889 C887 1.419 . S
C889 C890 1.362 . S
C890 H882 0.930 . S
C890 C889 1.362 . S
C890 C893 1.409 . S
C891 H883 0.930 1_556 S
C891 C892 1.355 1_556 S
C891 C893 1.415 . S
C892 C891 1.355 1_554 S
C892 C894 1.419 . S
C893 C888 1.425 . S
C893 C890 1.409 . S
C893 C891 1.415 . S
C894 H884 0.930 . S
C894 C892 1.419 . S
C894 C895 1.362 1_554 S
C895 H885 0.930 . S
C895 C888 1.409 . S
C895 C894 1.362 1_556 S
H896 C902 0.930 . S
H897 C905 0.930 . S
H898 C906 0.930 . S
H899 C907 0.930 . S
H900 C910 0.930 . S
H901 C911 0.930 . S
C902 H896 0.930 . S
C902 C903 1.355 . S
C902 C904 1.415 . S
C903 C902 1.355 . S
C903 C905 1.419 . S
C904 C902 1.415 . S
C904 C909 1.425 . S
C904 C911 1.409 . S
C905 H897 0.930 . S
C905 C903 1.419 . S
C905 C906 1.362 . S
C906 H898 0.930 . S
C906 C905 1.362 . S
C906 C909 1.409 . S
C907 H899 0.930 . S
C907 C908 1.355 . S
C907 C909 1.415 . S
C908 C907 1.355 . S
C908 C910 1.419 . S
C909 C904 1.425 . S
C909 C906 1.409 . S
C909 C907 1.415 . S
C910 H900 0.930 . S
C910 C908 1.419 . S
C910 C911 1.362 . S
C911 H901 0.930 . S
C911 C904 1.409 . S
C911 C910 1.362 . S
H912 C918 0.930 . S
H913 C921 0.930 . S
H914 C922 0.930 . S
H915 C923 0.930 . S
H916 C926 0.930 . S
H917 C927 0.930 . S
C918 H912 0.930 . S
C918 C919 1.355 . S
C918 C920 1.415 . S
C919 C918 1.355 . S
C919 C921 1.419 . S
C920 C918 1.415 . S
C920 C925 1.425 . S
C920 C927 1.409 . S
C921 H913 0.930 . S
C921 C919 1.419 . S
C921 C922 1.362 . S
C922 H914 0.930 . S
C922 C921 1.362 . S
C922 C925 1.409 . S
C923 H915 0.930 . S
C923 C924 1.355 . S
C923 C925 1.415 . S
C924 C923 1.355 . S
C924 C926 1.419 . S
C925 C920 1.425 . S
C925 C922 1.409 . S
C925 C923 1.415 . S
C926 H916 0.930 . S
C926 C924 1.419 . S
C926 C927 1.362 . S
C927 H917 0.930 . S
C927 C920 1.409 . S
C927 C926 1.362 . S
H928 C934 0.930 . S
H929 C937 0.930 . S
H930 C938 0.930 . S
H931 C939 0.930 . S
H932 C942 0.930 . S
H933 C943 0.930 . S
C934 H928 0.930 . S
C934 C935 1.355 1_455 S
C934 C936 1.415 . S
C935 C934 1.355 1_655 S
C935 C937 1.419 . S
C936 C934 1.415 . S
C936 C941 1.425 1_455 S
C936 C943 1.409 . S
C937 H929 0.930 . S
C937 C935 1.419 . S
C937 C938 1.362 . S
C938 H930 0.930 . S
C938 C937 1.362 . S
C938 C941 1.409 . S
C939 H931 0.930 . S
C939 C940 1.355 1_655 S
C939 C941 1.415 . S
C940 C939 1.355 1_455 S
C940 C942 1.419 . S
C941 C936 1.425 1_655 S
C941 C938 1.409 . S
C941 C939 1.415 . S
C942 H932 0.930 . S
C942 C940 1.419 . S
C942 C943 1.362 . S
C943 H933 0.930 . S
C943 C936 1.409 . S
C943 C942 1.362 . S
H944 C950 0.930 . S
H945 C953 0.930 . S
H946 C954 0.930 . S
H947 C955 0.930 . S
H948 C958 0.930 . S
H949 C959 0.930 . S
C950 H944 0.930 . S
C950 C951 1.355 . S
C950 C952 1.415 . S
C951 C950 1.355 . S
C951 C953 1.419 . S
C952 C950 1.415 . S
C952 C957 1.425 . S
C952 C959 1.409 . S
C953 H945 0.930 . S
C953 C951 1.419 . S
C953 C954 1.362 . S
C954 H946 0.930 . S
C954 C953 1.362 . S
C954 C957 1.409 . S
C955 H947 0.930 . S
C955 C956 1.355 1_554 S
C955 C957 1.415 . S
C956 C955 1.355 1_556 S
C956 C958 1.419 . S
C957 C952 1.425 . S
C957 C954 1.409 . S
C957 C955 1.415 . S
C958 H948 0.930 . S
C958 C956 1.419 . S
C958 C959 1.362 1_556 S
C959 H949 0.930 . S
C959 C952 1.409 . S
C959 C958 1.362 1_554 S
H960 C966 0.930 . S
H961 C969 0.930 . S
H962 C970 0.930 1_565 S
H963 C971 0.930 . S
H964 C974 0.930 . S
H965 C975 0.930 1_545 S
C966 H960 0.930 . S
C966 C967 1.355 1_556 S
C966 C968 1.415 . S
C967 C966 1.355 1_554 S
C967 C969 1.419 1_655 S
C968 C966 1.415 . S
C968 C973 1.425 1_646 S
C968 C975 1.409 1_545 S
C969 H961 0.930 . S
C969 C967 1.419 1_455 S
C969 C970 1.362 . S
C970 H962 0.930 1_545 S
C970 C969 1.362 . S
C970 C973 1.409 1_545 S
C971 H963 0.930 . S
C971 C972 1.355 1_554 S
C971 C973 1.415 . S
C972 C971 1.355 1_556 S
C972 C974 1.419 1_455 S
C973 C968 1.425 1_464 S
C973 C970 1.409 1_565 S
C973 C971 1.415 . S
C974 H964 0.930 . S
C974 C972 1.419 1_655 S
C974 C975 1.362 . S
C975 H965 0.930 1_565 S
C975 C968 1.409 1_565 S
C975 C974 1.362 . S
H976 C982 0.930 . S
H977 C985 0.930 . S
H978 C986 0.930 . S
H979 C987 0.930 . S
H980 C990 0.930 . S
H981 C991 0.930 . S
C982 H976 0.930 . S
C982 C983 1.355 . S
C982 C984 1.415 . S
C983 C982 1.355 . S
C983 C985 1.419 . S
C984 C982 1.415 . S
C984 C989 1.425 . S
C984 C991 1.409 . S
C985 H977 0.930 . S
C985 C983 1.419 . S
C985 C986 1.362 . S
C986 H978 0.930 . S
C986 C985 1.362 . S
C986 C989 1.409 . S
C987 H979 0.930 . S
C987 C988 1.355 . S
C987 C989 1.415 . S
C988 C987 1.355 . S
C988 C990 1.419 . S
C989 C984 1.425 . S
C989 C986 1.409 . S
C989 C987 1.415 . S
C990 H980 0.930 . S
C990 C988 1.419 . S
C990 C991 1.362 . S
C991 H981 0.930 . S
C991 C984 1.409 . S
C991 C990 1.362 . S
H992 C998 0.930 . S
H993 C1001 0.930 . S
H994 C1002 0.930 . S
H995 C1003 0.930 . S
H996 C1006 0.930 . S
H997 C1007 0.930 . S
C998 H992 0.930 . S
C998 C999 1.355 . S
C998 C1000 1.419 . S
C999 C998 1.355 . S
C999 C1001 1.419 . S
C1000 C998 1.419 . S
C1000 C1005 1.425 1_545 S
C1000 C1007 1.405 1_545 S
C1001 H993 0.930 . S
C1001 C999 1.419 . S
C1001 C1002 1.362 . S
C1002 H994 0.930 . S
C1002 C1001 1.362 . S
C1002 C1005 1.405 1_545 S
C1003 H995 0.930 . S
C1003 C1004 1.355 . S
C1003 C1005 1.419 . S
C1004 C1003 1.355 . S
C1004 C1006 1.419 . S
C1005 C1000 1.425 1_565 S
C1005 C1002 1.405 1_565 S
C1005 C1003 1.419 . S
C1006 H996 0.930 . S
C1006 C1004 1.419 . S
C1006 C1007 1.362 . S
C1007 H997 0.930 . S
C1007 C1000 1.405 1_565 S
C1007 C1006 1.362 . S
H1008 C1014 0.930 . S
H1009 C1017 0.930 . S
H1010 C1018 0.930 . S
H1011 C1019 0.930 . S
H1012 C1022 0.930 . S
H1013 C1023 0.930 . S
C1014 H1008 0.930 . S
C1014 C1015 1.355 . S
C1014 C1016 1.415 . S
C1015 C1014 1.355 . S
C1015 C1017 1.419 . S
C1016 C1014 1.415 . S
C1016 C1021 1.425 . S
C1016 C1023 1.409 . S
C1017 H1009 0.930 . S
C1017 C1015 1.419 . S
C1017 C1018 1.362 . S
C1018 H1010 0.930 . S
C1018 C1017 1.362 . S
C1018 C1021 1.409 . S
C1019 H1011 0.930 . S
C1019 C1020 1.355 . S
C1019 C1021 1.415 . S
C1020 C1019 1.355 . S
C1020 C1022 1.419 . S
C1021 C1016 1.425 . S
C1021 C1018 1.409 . S
C1021 C1019 1.415 . S
C1022 H1012 0.930 . S
C1022 C1020 1.419 . S
C1022 C1023 1.362 . S
C1023 H1013 0.930 . S
C1023 C1016 1.409 . S
C1023 C1022 1.362 . S
H1024 C1030 0.930 . S
H1025 C1033 0.930 . S
H1026 C1034 0.930 . S
H1027 C1035 0.930 . S
H1028 C1038 0.930 . S
H1029 C1039 0.930 . S
C1030 H1024 0.930 . S
C1030 C1031 1.355 . S
C1030 C1032 1.429 . S
C1031 C1030 1.355 . S
C1031 C1033 1.419 1_655 S
C1032 C1030 1.429 . S
C1032 C1037 1.425 1_665 S
C1032 C1039 1.396 1_565 S
C1033 H1025 0.930 . S
C1033 C1031 1.419 1_455 S
C1033 C1034 1.362 . S
C1034 H1026 0.930 . S
C1034 C1033 1.362 . S
C1034 C1037 1.395 1_565 S
C1035 H1027 0.930 . S
C1035 C1036 1.355 . S
C1035 C1037 1.429 . S
C1036 C1035 1.355 . S
C1036 C1038 1.419 1_455 S
C1037 C1032 1.425 1_445 S
C1037 C1034 1.395 1_545 S
C1037 C1035 1.429 . S
C1038 H1028 0.930 . S
C1038 C1036 1.419 1_655 S
C1038 C1039 1.362 . S
C1039 H1029 0.930 . S
C1039 C1032 1.396 1_545 S
C1039 C1038 1.362 . S
H1040 C1046 0.930 . S
H1041 C1049 0.930 . S
H1042 C1050 0.930 . S
H1043 C1051 0.930 . S
H1044 C1054 0.930 . S
H1045 C1055 0.930 . S
C1046 H1040 0.930 . S
C1046 C1047 1.355 . S
C1046 C1048 1.415 . S
C1047 C1046 1.355 . S
C1047 C1049 1.419 . S
C1048 C1046 1.415 . S
C1048 C1053 1.425 . S
C1048 C1055 1.409 . S
C1049 H1041 0.930 . S
C1049 C1047 1.419 . S
C1049 C1050 1.362 . S
C1050 H1042 0.930 . S
C1050 C1049 1.362 . S
C1050 C1053 1.409 . S
C1051 H1043 0.930 . S
C1051 C1052 1.355 . S
C1051 C1053 1.415 . S
C1052 C1051 1.355 . S
C1052 C1054 1.419 . S
C1053 C1048 1.425 . S
C1053 C1050 1.409 . S
C1053 C1051 1.415 . S
C1054 H1044 0.930 . S
C1054 C1052 1.419 . S
C1054 C1055 1.362 . S
C1055 H1045 0.930 . S
C1055 C1048 1.409 . S
C1055 C1054 1.362 . S
H1056 C1062 0.930 . S
H1057 C1065 0.930 . S
H1058 C1066 0.930 . S
H1059 C1067 0.930 . S
H1060 C1070 0.930 . S
H1061 C1071 0.930 . S
C1062 H1056 0.930 . S
C1062 C1063 1.355 . S
C1062 C1064 1.415 1_554 S
C1063 C1062 1.355 . S
C1063 C1065 1.419 . S
C1064 C1062 1.415 1_556 S
C1064 C1069 1.425 1_566 S
C1064 C1071 1.409 1_565 S
C1065 H1057 0.930 . S
C1065 C1063 1.419 . S
C1065 C1066 1.362 . S
C1066 H1058 0.930 . S
C1066 C1065 1.362 . S
C1066 C1069 1.409 1_565 S
C1067 H1059 0.930 . S
C1067 C1068 1.355 . S
C1067 C1069 1.415 1_556 S
C1068 C1067 1.355 . S
C1068 C1070 1.419 . S
C1069 C1064 1.425 1_544 S
C1069 C1066 1.409 1_545 S
C1069 C1067 1.415 1_554 S
C1070 H1060 0.930 . S
C1070 C1068 1.419 . S
C1070 C1071 1.362 . S
C1071 H1061 0.930 . S
C1071 C1064 1.409 1_545 S
C1071 C1070 1.362 . S
H1072 C1078 0.930 . S
H1073 C1081 0.930 . S
H1074 C1082 0.930 . S
H1075 C1083 0.930 . S
H1076 C1086 0.930 . S
H1077 C1087 0.930 . S
C1078 H1072 0.930 . S
C1078 C1079 1.355 . S
C1078 C1080 1.415 . S
C1079 C1078 1.355 . S
C1079 C1081 1.419 . S
C1080 C1078 1.415 . S
C1080 C1085 1.425 . S
C1080 C1087 1.409 . S
C1081 H1073 0.930 . S
C1081 C1079 1.419 . S
C1081 C1082 1.362 . S
C1082 H1074 0.930 . S
C1082 C1081 1.362 . S
C1082 C1085 1.409 . S
C1083 H1075 0.930 . S
C1083 C1084 1.355 . S
C1083 C1085 1.415 . S
C1084 C1083 1.355 . S
C1084 C1086 1.419 . S
C1085 C1080 1.425 . S
C1085 C1082 1.409 . S
C1085 C1083 1.415 . S
C1086 H1076 0.930 . S
C1086 C1084 1.419 . S
C1086 C1087 1.362 . S
C1087 H1077 0.930 . S
C1087 C1080 1.409 . S
C1087 C1086 1.362 . S
H1088 C1094 0.930 . S
H1089 C1097 0.930 . S
H1090 C1098 0.930 . S
H1091 C1099 0.930 . S
H1092 C1102 0.930 . S
H1093 C1103 0.930 . S
C1094 H1088 0.930 . S
C1094 C1095 1.355 . S
C1094 C1096 1.415 . S
C1095 C1094 1.355 . S
C1095 C1097 1.419 . S
C1096 C1094 1.415 . S
C1096 C1101 1.425 . S
C1096 C1103 1.409 . S
C1097 H1089 0.930 . S
C1097 C1095 1.419 . S
C1097 C1098 1.362 . S
C1098 H1090 0.930 . S
C1098 C1097 1.362 . S
C1098 C1101 1.409 . S
C1099 H1091 0.930 . S
C1099 C1100 1.355 . S
C1099 C1101 1.415 . S
C1100 C1099 1.355 . S
C1100 C1102 1.419 . S
C1101 C1096 1.425 . S
C1101 C1098 1.409 . S
C1101 C1099 1.415 . S
C1102 H1092 0.930 . S
C1102 C1100 1.419 . S
C1102 C1103 1.362 . S
C1103 H1093 0.930 . S
C1103 C1096 1.409 . S
C1103 C1102 1.362 . S
H1104 C1110 0.930 . S
H1105 C1113 0.930 . S
H1106 C1114 0.930 . S
H1107 C1115 0.930 . S
H1108 C1118 0.930 . S
H1109 C1119 0.930 . S
C1110 H1104 0.930 . S
C1110 C1111 1.355 . S
C1110 C1112 1.415 . S
C1111 C1110 1.355 . S
C1111 C1113 1.419 . S
C1112 C1110 1.415 . S
C1112 C1117 1.425 . S
C1112 C1119 1.409 . S
C1113 H1105 0.930 . S
C1113 C1111 1.419 . S
C1113 C1114 1.362 . S
C1114 H1106 0.930 . S
C1114 C1113 1.362 . S
C1114 C1117 1.409 . S
C1115 H1107 0.930 . S
C1115 C1116 1.355 . S
C1115 C1117 1.415 . S
C1116 C1115 1.355 . S
C1116 C1118 1.419 . S
C1117 C1112 1.425 . S
C1117 C1114 1.409 . S
C1117 C1115 1.415 . S
C1118 H1108 0.930 . S
C1118 C1116 1.419 . S
C1118 C1119 1.362 . S
C1119 H1109 0.930 . S
C1119 C1112 1.409 . S
C1119 C1118 1.362 . S
H1120 C1126 0.930 . S
H1121 C1129 0.930 . S
H1122 C1130 0.930 . S
H1123 C1131 0.930 . S
H1124 C1134 0.930 . S
H1125 C1135 0.930 . S
C1126 H1120 0.930 . S
C1126 C1127 1.355 . S
C1126 C1128 1.415 . S
C1127 C1126 1.355 . S
C1127 C1129 1.419 . S
C1128 C1126 1.415 . S
C1128 C1133 1.425 . S
C1128 C1135 1.409 . S
C1129 H1121 0.930 . S
C1129 C1127 1.419 . S
C1129 C1130 1.362 . S
C1130 H1122 0.930 . S
C1130 C1129 1.362 . S
C1130 C1133 1.409 . S
C1131 H1123 0.930 . S
C1131 C1132 1.355 . S
C1131 C1133 1.415 . S
C1132 C1131 1.355 . S
C1132 C1134 1.419 . S
C1133 C1128 1.425 . S
C1133 C1130 1.409 . S
C1133 C1131 1.415 . S
C1134 H1124 0.930 . S
C1134 C1132 1.419 . S
C1134 C1135 1.362 . S
C1135 H1125 0.930 . S
C1135 C1128 1.409 . S
C1135 C1134 1.362 . S
H1136 C1142 0.930 . S
H1137 C1145 0.930 . S
H1138 C1146 0.930 . S
H1139 C1147 0.930 . S
H1140 C1150 0.930 . S
H1141 C1151 0.930 . S
C1142 H1136 0.930 . S
C1142 C1143 1.355 . S
C1142 C1144 1.415 . S
C1143 C1142 1.355 . S
C1143 C1145 1.419 . S
C1144 C1142 1.415 . S
C1144 C1149 1.425 . S
C1144 C1151 1.409 . S
C1145 H1137 0.930 . S
C1145 C1143 1.419 . S
C1145 C1146 1.362 . S
C1146 H1138 0.930 . S
C1146 C1145 1.362 . S
C1146 C1149 1.409 . S
C1147 H1139 0.930 . S
C1147 C1148 1.355 . S
C1147 C1149 1.415 . S
C1148 C1147 1.355 . S
C1148 C1150 1.419 . S
C1149 C1144 1.425 . S
C1149 C1146 1.409 . S
C1149 C1147 1.415 . S
C1150 H1140 0.930 . S
C1150 C1148 1.419 . S
C1150 C1151 1.362 . S
C1151 H1141 0.930 . S
C1151 C1144 1.409 . S
C1151 C1150 1.362 . S
H1152 C1158 0.930 . S
H1153 C1161 0.930 . S
H1154 C1162 0.930 . S
H1155 C1163 0.930 . S
H1156 C1166 0.930 . S
H1157 C1167 0.930 . S
C1158 H1152 0.930 . S
C1158 C1159 1.355 . S
C1158 C1160 1.415 . S
C1159 C1158 1.355 . S
C1159 C1161 1.419 . S
C1160 C1158 1.415 . S
C1160 C1165 1.425 . S
C1160 C1167 1.409 . S
C1161 H1153 0.930 . S
C1161 C1159 1.419 . S
C1161 C1162 1.362 . S
C1162 H1154 0.930 . S
C1162 C1161 1.362 . S
C1162 C1165 1.409 . S
C1163 H1155 0.930 . S
C1163 C1164 1.355 . S
C1163 C1165 1.415 . S
C1164 C1163 1.355 . S
C1164 C1166 1.419 . S
C1165 C1160 1.425 . S
C1165 C1162 1.409 . S
C1165 C1163 1.415 . S
C1166 H1156 0.930 . S
C1166 C1164 1.419 . S
C1166 C1167 1.362 . S
C1167 H1157 0.930 . S
C1167 C1160 1.409 . S
C1167 C1166 1.362 . S
H1168 C1174 0.930 . S
H1169 C1177 0.930 . S
H1170 C1178 0.930 . S
H1171 C1179 0.930 . S
H1172 C1182 0.930 . S
H1173 C1183 0.930 . S
C1174 H1168 0.930 . S
C1174 C1175 1.355 . S
C1174 C1176 1.415 . S
C1175 C1174 1.355 . S
C1175 C1177 1.419 1_454 S
C1176 C1174 1.415 . S
C1176 C1181 1.425 1_454 S
C1176 C1183 1.409 . S
C1177 H1169 0.930 . S
C1177 C1175 1.419 1_656 S
C1177 C1178 1.362 . S
C1178 H1170 0.930 . S
C1178 C1177 1.362 . S
C1178 C1181 1.409 . S
C1179 H1171 0.930 . S
C1179 C1180 1.355 . S
C1179 C1181 1.415 . S
C1180 C1179 1.355 . S
C1180 C1182 1.419 1_656 S
C1181 C1176 1.425 1_656 S
C1181 C1178 1.409 . S
C1181 C1179 1.415 . S
C1182 H1172 0.930 . S
C1182 C1180 1.419 1_454 S
C1182 C1183 1.362 . S
C1183 H1173 0.930 . S
C1183 C1176 1.409 . S
C1183 C1182 1.362 . S
H1184 C1190 0.930 . S
H1185 C1193 0.930 . S
H1186 C1194 0.930 . S
H1187 C1195 0.930 . S
H1188 C1198 0.930 . S
H1189 C1199 0.930 . S
C1190 H1184 0.930 . S
C1190 C1191 1.355 1_554 S
C1190 C1192 1.415 . S
C1191 C1190 1.355 1_556 S
C1191 C1193 1.419 . S
C1192 C1190 1.415 . S
C1192 C1197 1.425 1_554 S
C1192 C1199 1.409 . S
C1193 H1185 0.930 . S
C1193 C1191 1.419 . S
C1193 C1194 1.362 . S
C1194 H1186 0.930 . S
C1194 C1193 1.362 . S
C1194 C1197 1.409 . S
C1195 H1187 0.930 . S
C1195 C1196 1.355 1_556 S
C1195 C1197 1.415 . S
C1196 C1195 1.355 1_554 S
C1196 C1198 1.419 . S
C1197 C1192 1.425 1_556 S
C1197 C1194 1.409 . S
C1197 C1195 1.415 . S
C1198 H1188 0.930 . S
C1198 C1196 1.419 . S
C1198 C1199 1.362 . S
C1199 H1189 0.930 . S
C1199 C1192 1.409 . S
C1199 C1198 1.362 . S
H1200 C1206 0.930 . S
H1201 C1209 0.930 . S
H1202 C1210 0.930 . S
H1203 C1211 0.930 . S
H1204 C1214 0.930 . S
H1205 C1215 0.930 . S
C1206 H1200 0.930 . S
C1206 C1207 1.355 1_455 S
C1206 C1208 1.415 . S
C1207 C1206 1.355 1_655 S
C1207 C1209 1.419 . S
C1208 C1206 1.415 . S
C1208 C1213 1.425 1_455 S
C1208 C1215 1.409 . S
C1209 H1201 0.930 . S
C1209 C1207 1.419 . S
C1209 C1210 1.362 . S
C1210 H1202 0.930 . S
C1210 C1209 1.362 . S
C1210 C1213 1.409 . S
C1211 H1203 0.930 . S
C1211 C1212 1.355 1_655 S
C1211 C1213 1.415 . S
C1212 C1211 1.355 1_455 S
C1212 C1214 1.419 . S
C1213 C1208 1.425 1_655 S
C1213 C1210 1.409 . S
C1213 C1211 1.415 . S
C1214 H1204 0.930 . S
C1214 C1212 1.419 . S
C1214 C1215 1.362 . S
C1215 H1205 0.930 . S
C1215 C1208 1.409 . S
C1215 C1214 1.362 . S
H1216 C1222 0.930 . S
H1217 C1225 0.930 . S
H1218 C1226 0.930 . S
H1219 C1227 0.930 . S
H1220 C1230 0.930 . S
H1221 C1231 0.930 . S
C1222 H1216 0.930 . S
C1222 C1223 1.355 . S
C1222 C1224 1.415 . S
C1223 C1222 1.355 . S
C1223 C1225 1.419 . S
C1224 C1222 1.415 . S
C1224 C1229 1.425 . S
C1224 C1231 1.409 . S
C1225 H1217 0.930 . S
C1225 C1223 1.419 . S
C1225 C1226 1.362 . S
C1226 H1218 0.930 . S
C1226 C1225 1.362 . S
C1226 C1229 1.409 . S
C1227 H1219 0.930 . S
C1227 C1228 1.355 . S
C1227 C1229 1.415 . S
C1228 C1227 1.355 . S
C1228 C1230 1.419 . S
C1229 C1224 1.425 . S
C1229 C1226 1.409 . S
C1229 C1227 1.415 . S
C1230 H1220 0.930 . S
C1230 C1228 1.419 . S
C1230 C1231 1.362 . S
C1231 H1221 0.930 . S
C1231 C1224 1.409 . S
C1231 C1230 1.362 . S
H1232 C1238 0.930 . S
H1233 C1241 0.930 . S
H1234 C1242 0.930 . S
H1235 C1243 0.930 . S
H1236 C1246 0.930 . S
H1237 C1247 0.930 . S
C1238 H1232 0.930 . S
C1238 C1239 1.355 . S
C1238 C1240 1.415 . S
C1239 C1238 1.355 . S
C1239 C1241 1.419 . S
C1240 C1238 1.415 . S
C1240 C1245 1.425 . S
C1240 C1247 1.409 . S
C1241 H1233 0.930 . S
C1241 C1239 1.419 . S
C1241 C1242 1.362 . S
C1242 H1234 0.930 . S
C1242 C1241 1.362 . S
C1242 C1245 1.409 . S
C1243 H1235 0.930 . S
C1243 C1244 1.355 . S
C1243 C1245 1.415 . S
C1244 C1243 1.355 . S
C1244 C1246 1.419 . S
C1245 C1240 1.425 . S
C1245 C1242 1.409 . S
C1245 C1243 1.415 . S
C1246 H1236 0.930 . S
C1246 C1244 1.419 . S
C1246 C1247 1.362 . S
C1247 H1237 0.930 . S
C1247 C1240 1.409 . S
C1247 C1246 1.362 . S
H1248 C1254 0.930 . S
H1249 C1257 0.930 . S
H1250 C1258 0.930 . S
H1251 C1259 0.930 . S
H1252 C1262 0.930 . S
H1253 C1263 0.930 . S
C1254 H1248 0.930 . S
C1254 C1255 1.355 . S
C1254 C1256 1.415 . S
C1255 C1254 1.355 . S
C1255 C1257 1.419 . S
C1256 C1254 1.415 . S
C1256 C1261 1.425 . S
C1256 C1263 1.409 . S
C1257 H1249 0.930 . S
C1257 C1255 1.419 . S
C1257 C1258 1.362 . S
C1258 H1250 0.930 . S
C1258 C1257 1.362 . S
C1258 C1261 1.409 . S
C1259 H1251 0.930 . S
C1259 C1260 1.355 . S
C1259 C1261 1.415 . S
C1260 C1259 1.355 . S
C1260 C1262 1.419 . S
C1261 C1256 1.425 . S
C1261 C1258 1.409 . S
C1261 C1259 1.415 . S
C1262 H1252 0.930 . S
C1262 C1260 1.419 . S
C1262 C1263 1.362 . S
C1263 H1253 0.930 . S
C1263 C1256 1.409 . S
C1263 C1262 1.362 . S
H1264 C1270 0.930 . S
H1265 C1273 0.930 . S
H1266 C1274 0.930 . S
H1267 C1275 0.930 . S
H1268 C1278 0.930 . S
H1269 C1279 0.930 . S
C1270 H1264 0.930 . S
C1270 C1271 1.355 . S
C1270 C1272 1.415 . S
C1271 C1270 1.355 . S
C1271 C1273 1.419 . S
C1272 C1270 1.415 . S
C1272 C1277 1.425 . S
C1272 C1279 1.409 . S
C1273 H1265 0.930 . S
C1273 C1271 1.419 . S
C1273 C1274 1.362 . S
C1274 H1266 0.930 . S
C1274 C1273 1.362 . S
C1274 C1277 1.409 . S
C1275 H1267 0.930 . S
C1275 C1276 1.355 . S
C1275 C1277 1.415 . S
C1276 C1275 1.355 . S
C1276 C1278 1.419 . S
C1277 C1272 1.425 . S
C1277 C1274 1.409 . S
C1277 C1275 1.415 . S
C1278 H1268 0.930 . S
C1278 C1276 1.419 . S
C1278 C1279 1.362 . S
C1279 H1269 0.930 . S
C1279 C1272 1.409 . S
C1279 C1278 1.362 . S
H1280 C1286 0.930 . S
H1281 C1289 0.930 . S
H1282 C1290 0.930 . S
H1283 C1291 0.930 . S
H1284 C1294 0.930 . S
H1285 C1295 0.930 . S
C1286 H1280 0.930 . S
C1286 C1287 1.355 . S
C1286 C1288 1.415 . S
C1287 C1286 1.355 . S
C1287 C1289 1.419 . S
C1288 C1286 1.415 . S
C1288 C1293 1.425 . S
C1288 C1295 1.409 . S
C1289 H1281 0.930 . S
C1289 C1287 1.419 . S
C1289 C1290 1.362 . S
C1290 H1282 0.930 . S
C1290 C1289 1.362 . S
C1290 C1293 1.409 . S
C1291 H1283 0.930 . S
C1291 C1292 1.355 . S
C1291 C1293 1.415 . S
C1292 C1291 1.355 . S
C1292 C1294 1.419 . S
C1293 C1288 1.425 . S
C1293 C1290 1.409 . S
C1293 C1291 1.415 . S
C1294 H1284 0.930 . S
C1294 C1292 1.419 . S
C1294 C1295 1.362 . S
C1295 H1285 0.930 . S
C1295 C1288 1.409 . S
C1295 C1294 1.362 . S
H1296 C1302 0.930 . S
H1297 C1305 0.930 . S
H1298 C1306 0.930 . S
H1299 C1307 0.930 . S
H1300 C1310 0.930 . S
H1301 C1311 0.930 . S
C1302 H1296 0.930 . S
C1302 C1303 1.355 . S
C1302 C1304 1.415 . S
C1303 C1302 1.355 . S
C1303 C1305 1.419 . S
C1304 C1302 1.415 . S
C1304 C1309 1.425 . S
C1304 C1311 1.409 . S
C1305 H1297 0.930 . S
C1305 C1303 1.419 . S
C1305 C1306 1.362 . S
C1306 H1298 0.930 . S
C1306 C1305 1.362 . S
C1306 C1309 1.409 . S
C1307 H1299 0.930 . S
C1307 C1308 1.355 . S
C1307 C1309 1.415 . S
C1308 C1307 1.355 . S
C1308 C1310 1.419 . S
C1309 C1304 1.425 . S
C1309 C1306 1.409 . S
C1309 C1307 1.415 . S
C1310 H1300 0.930 . S
C1310 C1308 1.419 . S
C1310 C1311 1.362 . S
C1311 H1301 0.930 . S
C1311 C1304 1.409 . S
C1311 C1310 1.362 . S
H1312 C1318 0.930 . S
H1313 C1321 0.930 . S
H1314 C1322 0.930 . S
H1315 C1323 0.930 . S
H1316 C1326 0.930 . S
H1317 C1327 0.930 . S
C1318 H1312 0.930 . S
C1318 C1319 1.355 . S
C1318 C1320 1.415 . S
C1319 C1318 1.355 . S
C1319 C1321 1.419 . S
C1320 C1318 1.415 . S
C1320 C1325 1.425 . S
C1320 C1327 1.409 . S
C1321 H1313 0.930 . S
C1321 C1319 1.419 . S
C1321 C1322 1.362 . S
C1322 H1314 0.930 . S
C1322 C1321 1.362 . S
C1322 C1325 1.409 . S
C1323 H1315 0.930 . S
C1323 C1324 1.355 . S
C1323 C1325 1.415 . S
C1324 C1323 1.355 . S
C1324 C1326 1.419 . S
C1325 C1320 1.425 . S
C1325 C1322 1.409 . S
C1325 C1323 1.415 . S
C1326 H1316 0.930 . S
C1326 C1324 1.419 . S
C1326 C1327 1.362 . S
C1327 H1317 0.930 . S
C1327 C1320 1.409 . S
C1327 C1326 1.362 . S
H1328 C1334 0.930 . S
H1329 C1337 0.930 . S
H1330 C1338 0.930 . S
H1331 C1339 0.930 . S
H1332 C1342 0.930 . S
H1333 C1343 0.930 . S
C1334 H1328 0.930 . S
C1334 C1335 1.355 . S
C1334 C1336 1.415 . S
C1335 C1334 1.355 . S
C1335 C1337 1.419 . S
C1336 C1334 1.415 . S
C1336 C1341 1.425 . S
C1336 C1343 1.409 . S
C1337 H1329 0.930 . S
C1337 C1335 1.419 . S
C1337 C1338 1.362 . S
C1338 H1330 0.930 . S
C1338 C1337 1.362 . S
C1338 C1341 1.409 . S
C1339 H1331 0.930 . S
C1339 C1340 1.355 . S
C1339 C1341 1.415 . S
C1340 C1339 1.355 . S
C1340 C1342 1.419 . S
C1341 C1336 1.425 . S
C1341 C1338 1.409 . S
C1341 C1339 1.415 . S
C1342 H1332 0.930 . S
C1342 C1340 1.419 . S
C1342 C1343 1.362 . S
C1343 H1333 0.930 . S
C1343 C1336 1.409 . S
C1343 C1342 1.362 . S
H1344 C1350 0.930 . S
H1345 C1353 0.930 . S
H1346 C1354 0.930 . S
H1347 C1355 0.930 . S
H1348 C1358 0.930 . S
H1349 C1359 0.930 . S
C1350 H1344 0.930 . S
C1350 C1351 1.355 . S
C1350 C1352 1.415 . S
C1351 C1350 1.355 . S
C1351 C1353 1.419 . S
C1352 C1350 1.415 . S
C1352 C1357 1.425 . S
C1352 C1359 1.409 . S
C1353 H1345 0.930 . S
C1353 C1351 1.419 . S
C1353 C1354 1.362 . S
C1354 H1346 0.930 . S
C1354 C1353 1.362 . S
C1354 C1357 1.409 . S
C1355 H1347 0.930 . S
C1355 C1356 1.355 . S
C1355 C1357 1.415 . S
C1356 C1355 1.355 . S
C1356 C1358 1.419 . S
C1357 C1352 1.425 . S
C1357 C1354 1.409 . S
C1357 C1355 1.415 . S
C1358 H1348 0.930 . S
C1358 C1356 1.419 . S
C1358 C1359 1.362 . S
C1359 H1349 0.930 . S
C1359 C1352 1.409 . S
C1359 C1358 1.362 . S
H1360 C1366 0.930 . S
H1361 C1369 0.930 . S
H1362 C1370 0.930 . S
H1363 C1371 0.930 . S
H1364 C1374 0.930 . S
H1365 C1375 0.930 . S
C1366 H1360 0.930 . S
C1366 C1367 1.355 . S
C1366 C1368 1.415 . S
C1367 C1366 1.355 . S
C1367 C1369 1.419 . S
C1368 C1366 1.415 . S
C1368 C1373 1.425 . S
C1368 C1375 1.409 . S
C1369 H1361 0.930 . S
C1369 C1367 1.419 . S
C1369 C1370 1.362 . S
C1370 H1362 0.930 . S
C1370 C1369 1.362 . S
C1370 C1373 1.409 . S
C1371 H1363 0.930 . S
C1371 C1372 1.355 . S
C1371 C1373 1.415 . S
C1372 C1371 1.355 . S
C1372 C1374 1.419 . S
C1373 C1368 1.425 . S
C1373 C1370 1.409 . S
C1373 C1371 1.415 . S
C1374 H1364 0.930 . S
C1374 C1372 1.419 . S
C1374 C1375 1.362 . S
C1375 H1365 0.930 . S
C1375 C1368 1.409 . S
C1375 C1374 1.362 . S
H1376 C1382 0.930 . S
H1377 C1385 0.930 . S
H1378 C1386 0.930 . S
H1379 C1387 0.930 . S
H1380 C1390 0.930 . S
H1381 C1391 0.930 . S
C1382 H1376 0.930 . S
C1382 C1383 1.355 . S
C1382 C1384 1.415 . S
C1383 C1382 1.355 . S
C1383 C1385 1.419 . S
C1384 C1382 1.415 . S
C1384 C1389 1.425 . S
C1384 C1391 1.409 . S
C1385 H1377 0.930 . S
C1385 C1383 1.419 . S
C1385 C1386 1.362 . S
C1386 H1378 0.930 . S
C1386 C1385 1.362 . S
C1386 C1389 1.409 . S
C1387 H1379 0.930 . S
C1387 C1388 1.355 . S
C1387 C1389 1.415 . S
C1388 C1387 1.355 . S
C1388 C1390 1.419 . S
C1389 C1384 1.425 . S
C1389 C1386 1.409 . S
C1389 C1387 1.415 . S
C1390 H1380 0.930 . S
C1390 C1388 1.419 . S
C1390 C1391 1.362 . S
C1391 H1381 0.930 . S
C1391 C1384 1.409 . S
C1391 C1390 1.362 . S
H1392 C1398 0.930 . S
H1393 C1401 0.930 . S
H1394 C1402 0.930 . S
H1395 C1403 0.930 . S
H1396 C1406 0.930 . S
H1397 C1407 0.930 . S
C1398 H1392 0.930 . S
C1398 C1399 1.355 . S
C1398 C1400 1.415 . S
C1399 C1398 1.355 . S
C1399 C1401 1.419 . S
C1400 C1398 1.415 . S
C1400 C1405 1.425 . S
C1400 C1407 1.409 . S
C1401 H1393 0.930 . S
C1401 C1399 1.419 . S
C1401 C1402 1.362 . S
C1402 H1394 0.930 . S
C1402 C1401 1.362 . S
C1402 C1405 1.409 . S
C1403 H1395 0.930 . S
C1403 C1404 1.355 . S
C1403 C1405 1.415 . S
C1404 C1403 1.355 . S
C1404 C1406 1.419 . S
C1405 C1400 1.425 . S
C1405 C1402 1.409 . S
C1405 C1403 1.415 . S
C1406 H1396 0.930 . S
C1406 C1404 1.419 . S
C1406 C1407 1.362 . S
C1407 H1397 0.930 . S
C1407 C1400 1.409 . S
C1407 C1406 1.362 . S
H1408 C1414 0.930 . S
H1409 C1417 0.930 . S
H1410 C1418 0.930 . S
H1411 C1419 0.930 . S
H1412 C1422 0.930 . S
H1413 C1423 0.930 . S
C1414 H1408 0.930 . S
C1414 C1415 1.355 . S
C1414 C1416 1.415 . S
C1415 C1414 1.355 . S
C1415 C1417 1.419 . S
C1416 C1414 1.415 . S
C1416 C1421 1.425 . S
C1416 C1423 1.409 . S
C1417 H1409 0.930 . S
C1417 C1415 1.419 . S
C1417 C1418 1.362 . S
C1418 H1410 0.930 . S
C1418 C1417 1.362 . S
C1418 C1421 1.409 . S
C1419 H1411 0.930 . S
C1419 C1420 1.355 . S
C1419 C1421 1.415 . S
C1420 C1419 1.355 . S
C1420 C1422 1.419 . S
C1421 C1416 1.425 . S
C1421 C1418 1.409 . S
C1421 C1419 1.415 . S
C1422 H1412 0.930 . S
C1422 C1420 1.419 . S
C1422 C1423 1.362 . S
C1423 H1413 0.930 . S
C1423 C1416 1.409 . S
C1423 C1422 1.362 . S
H1424 C1430 0.930 . S
H1425 C1433 0.930 . S
H1426 C1434 0.930 . S
H1427 C1435 0.930 . S
H1428 C1438 0.930 . S
H1429 C1439 0.930 . S
C1430 H1424 0.930 . S
C1430 C1431 1.355 . S
C1430 C1432 1.415 . S
C1431 C1430 1.355 . S
C1431 C1433 1.419 . S
C1432 C1430 1.415 . S
C1432 C1437 1.425 . S
C1432 C1439 1.409 . S
C1433 H1425 0.930 . S
C1433 C1431 1.419 . S
C1433 C1434 1.362 . S
C1434 H1426 0.930 . S
C1434 C1433 1.362 . S
C1434 C1437 1.409 . S
C1435 H1427 0.930 . S
C1435 C1436 1.355 . S
C1435 C1437 1.415 . S
C1436 C1435 1.355 . S
C1436 C1438 1.419 . S
C1437 C1432 1.425 . S
C1437 C1434 1.409 . S
C1437 C1435 1.415 . S
C1438 H1428 0.930 . S
C1438 C1436 1.419 . S
C1438 C1439 1.362 . S
C1439 H1429 0.930 . S
C1439 C1432 1.409 . S
C1439 C1438 1.362 . S
H1440 C1446 0.930 . S
H1441 C1449 0.930 . S
H1442 C1450 0.930 . S
H1443 C1451 0.930 . S
H1444 C1454 0.930 . S
H1445 C1455 0.930 . S
C1446 H1440 0.930 . S
C1446 C1447 1.355 . S
C1446 C1448 1.415 . S
C1447 C1446 1.355 . S
C1447 C1449 1.419 . S
C1448 C1446 1.415 . S
C1448 C1453 1.425 . S
C1448 C1455 1.409 . S
C1449 H1441 0.930 . S
C1449 C1447 1.419 . S
C1449 C1450 1.362 . S
C1450 H1442 0.930 . S
C1450 C1449 1.362 . S
C1450 C1453 1.409 . S
C1451 H1443 0.930 . S
C1451 C1452 1.355 . S
C1451 C1453 1.415 . S
C1452 C1451 1.355 . S
C1452 C1454 1.419 . S
C1453 C1448 1.425 . S
C1453 C1450 1.409 . S
C1453 C1451 1.415 . S
C1454 H1444 0.930 . S
C1454 C1452 1.419 . S
C1454 C1455 1.362 . S
C1455 H1445 0.930 . S
C1455 C1448 1.409 . S
C1455 C1454 1.362 . S
H1456 C1462 0.930 . S
H1457 C1465 0.930 . S
H1458 C1466 0.930 . S
H1459 C1467 0.930 . S
H1460 C1470 0.930 . S
H1461 C1471 0.930 . S
C1462 H1456 0.930 . S
C1462 C1463 1.355 . S
C1462 C1464 1.415 . S
C1463 C1462 1.355 . S
C1463 C1465 1.419 . S
C1464 C1462 1.415 . S
C1464 C1469 1.425 . S
C1464 C1471 1.409 . S
C1465 H1457 0.930 . S
C1465 C1463 1.419 . S
C1465 C1466 1.362 . S
C1466 H1458 0.930 . S
C1466 C1465 1.362 . S
C1466 C1469 1.409 . S
C1467 H1459 0.930 . S
C1467 C1468 1.355 . S
C1467 C1469 1.415 . S
C1468 C1467 1.355 . S
C1468 C1470 1.419 . S
C1469 C1464 1.425 . S
C1469 C1466 1.409 . S
C1469 C1467 1.415 . S
C1470 H1460 0.930 . S
C1470 C1468 1.419 . S
C1470 C1471 1.362 . S
C1471 H1461 0.930 . S
C1471 C1464 1.409 . S
C1471 C1470 1.362 . S
C455 C181 1.455 . S
C460 C0 1.455 . S
C471 C406 1.437 . S
C476 C27 1.440 . S
C487 C196 1.450 . S
C492 C29 1.450 . S
C503 C435 1.449 . S
C508 C55 1.449 . S
C519 C113 1.455 . S
C524 C68 1.455 . S
C535 C70 1.431 . S
C540 C362 1.426 . S
C551 C84 1.429 . S
C556 C140 1.424 . S
C567 C391 1.433 . S
C572 C99 1.435 . S
C583 C69 1.450 . S
C588 C112 1.451 . S
C599 C294 1.456 . S
C604 C126 1.456 . S
C615 C85 1.454 . S
C620 C141 1.454 . S
C631 C322 1.439 . S
C636 C166 1.440 . S
C647 C180 1.427 . S
C652 C1 1.424 . S
C663 C183 1.430 . S
C668 C251 1.425 . S
C679 C28 1.453 . S
C684 C197 1.453 . S
C695 C211 1.429 . S
C700 C266 1.425 . S
C711 C392 1.425 . S
C716 C224 1.430 . S
C727 C182 1.454 . S
C732 C250 1.455 . S
C743 C433 1.427 . S
C748 C252 1.431 . S
C759 C267 1.427 . S
C764 C210 1.423 . S
C775 C280 1.435 . S
C780 C337 1.432 . S
C791 C295 1.430 . S
C796 C127 1.429 . S
C807 C377 1.430 . S
C812 C320 1.434 . S
C823 C167 1.440 . S
C828 C323 1.442 . S
C839 C281 1.452 . S
C844 C336 1.453 . S
C855 C363 1.440 . S
C860 C71 1.436 . S
C871 C376 1.450 . S
C876 C321 1.449 . S
C887 C390 1.432 . S
C892 C98 1.430 . S
C903 C225 1.443 . S
C908 C393 1.445 . S
C919 C26 1.430 . S
C924 C407 1.433 . S
C935 C253 1.449 . S
C940 C432 1.450 . S
C951 C434 1.431 . S
C956 C54 1.429 . S
C967 C13 1.928 . S
C972 C125 1.932 . S
C983 C14 1.917 . S
C988 C350 1.913 . S
C999 C152 1.927 . S
C1004 C40 1.930 . S
C1015 C42 1.930 . S
C1020 C379 1.930 . S
C1031 C57 1.903 . S
C1036 C169 1.907 . S
C1047 C418 1.902 . S
C1052 C83 1.902 . S
C1063 C208 1.902 . S
C1068 C97 1.902 . S
C1079 C110 1.905 . S
C1084 C447 1.905 . S
C1095 C139 1.922 . S
C1100 C239 1.918 . S
C1111 C155 1.962 . S
C1116 C278 1.962 . S
C1127 C194 1.902 . S
C1132 C306 1.907 . S
C1143 C334 1.943 . S
C1148 C222 1.940 . S
C1159 C237 1.904 . S
C1164 C349 1.908 . S
C1175 C265 1.905 . S
C1180 C365 1.909 . S
C1191 C293 1.934 . S
C1196 C404 1.934 . S
C1207 C421 1.961 . S
C1212 C309 1.958 . S
C1223 C12 1.860 . S
C1228 C111 1.845 . S
C1239 C15 1.836 . S
C1244 C56 1.862 . S
C1255 C82 1.846 . S
C1260 C41 1.852 . S
C1271 C96 1.836 . S
C1276 C43 1.863 . S
C1287 C223 1.869 . S
C1292 C124 1.832 . S
C1303 C168 1.860 . S
C1308 C138 1.841 . S
C1319 C195 1.835 . S
C1324 C153 1.869 . S
C1335 C209 1.835 . S
C1340 C154 1.867 . S
C1351 C236 1.845 . S
C1356 C335 1.854 . S
C1367 C292 1.849 . S
C1372 C238 1.851 . S
C1383 C307 1.867 . S
C1388 C264 1.836 . S
C1399 C308 1.859 . S
C1404 C279 1.845 . S
C1415 C446 1.861 . S
C1420 C348 1.836 . S
C1431 C351 1.851 . S
C1436 C405 1.855 . S
C1447 C364 1.865 . S
C1452 C419 1.835 . S
C1463 C420 1.858 . S
C1468 C378 1.844 . S
