# Generated by pormake.
# Topology wlq, (5)-cn, num edge types: 1
# Building blocks:
#     Node 0, Type 0, BuildingBlock: XOMCOT_clean_sbu_0, # of connection points: 5
#     Node 1, Type 0, BuildingBlock: XOMCOT_clean_sbu_0, # of connection points: 5
#     Node 2, Type 0, BuildingBlock: XOMCOT_clean_sbu_0, # of connection points: 5
#     Node 3, Type 0, BuildingBlock: XOMCOT_clean_sbu_0, # of connection points: 5
#     Node 4, Type 0, BuildingBlock: XOMCOT_clean_sbu_0, # of connection points: 5
#     Node 5, Type 0, BuildingBlock: XOMCOT_clean_sbu_0, # of connection points: 5
#     Node 6, Type 0, BuildingBlock: XOMCOT_clean_sbu_0, # of connection points: 5
#     Node 7, Type 0, BuildingBlock: XOMCOT_clean_sbu_0, # of connection points: 5
#     Node 8, Type 0, BuildingBlock: XOMCOT_clean_sbu_0, # of connection points: 5
#     Node 9, Type 0, BuildingBlock: XOMCOT_clean_sbu_0, # of connection points: 5
#     Node 10, Type 0, BuildingBlock: XOMCOT_clean_sbu_0, # of connection points: 5
#     Node 11, Type 0, BuildingBlock: XOMCOT_clean_sbu_0, # of connection points: 5
#     Node 12, Type 0, BuildingBlock: XOMCOT_clean_sbu_0, # of connection points: 5
#     Node 13, Type 0, BuildingBlock: XOMCOT_clean_sbu_0, # of connection points: 5
#     Node 14, Type 0, BuildingBlock: XOMCOT_clean_sbu_0, # of connection points: 5
#     Node 15, Type 0, BuildingBlock: XOMCOT_clean_sbu_0, # of connection points: 5
#     Node 16, Type 0, BuildingBlock: XOMCOT_clean_sbu_0, # of connection points: 5
#     Node 17, Type 0, BuildingBlock: XOMCOT_clean_sbu_0, # of connection points: 5
#     Node 18, Type 0, BuildingBlock: XOMCOT_clean_sbu_0, # of connection points: 5
#     Node 19, Type 0, BuildingBlock: XOMCOT_clean_sbu_0, # of connection points: 5
#     Node 20, Type 0, BuildingBlock: XOMCOT_clean_sbu_0, # of connection points: 5
#     Node 21, Type 0, BuildingBlock: XOMCOT_clean_sbu_0, # of connection points: 5
#     Node 22, Type 0, BuildingBlock: XOMCOT_clean_sbu_0, # of connection points: 5
#     Node 23, Type 0, BuildingBlock: XOMCOT_clean_sbu_0, # of connection points: 5
#     Node 24, Type 0, BuildingBlock: XOMCOT_clean_sbu_0, # of connection points: 5
#     Node 25, Type 0, BuildingBlock: XOMCOT_clean_sbu_0, # of connection points: 5
#     Node 26, Type 0, BuildingBlock: XOMCOT_clean_sbu_0, # of connection points: 5
#     Node 27, Type 0, BuildingBlock: XOMCOT_clean_sbu_0, # of connection points: 5
#     Node 28, Type 0, BuildingBlock: XOMCOT_clean_sbu_0, # of connection points: 5
#     Node 29, Type 0, BuildingBlock: XOMCOT_clean_sbu_0, # of connection points: 5
#     Node 30, Type 0, BuildingBlock: XOMCOT_clean_sbu_0, # of connection points: 5
#     Node 31, Type 0, BuildingBlock: XOMCOT_clean_sbu_0, # of connection points: 5
#     Node 32, Type 0, BuildingBlock: XOMCOT_clean_sbu_0, # of connection points: 5
#     Node 33, Type 0, BuildingBlock: XOMCOT_clean_sbu_0, # of connection points: 5
#     Node 34, Type 0, BuildingBlock: XOMCOT_clean_sbu_0, # of connection points: 5
#     Node 35, Type 0, BuildingBlock: XOMCOT_clean_sbu_0, # of connection points: 5
#     Edge 36, Type (0, 0), BuildingBlock: CIFDUS_clean_linker_0, # of connection points: 2
#     Edge 37, Type (0, 0), BuildingBlock: CIFDUS_clean_linker_0, # of connection points: 2
#     Edge 38, Type (0, 0), BuildingBlock: CIFDUS_clean_linker_0, # of connection points: 2
#     Edge 39, Type (0, 0), BuildingBlock: CIFDUS_clean_linker_0, # of connection points: 2
#     Edge 40, Type (0, 0), BuildingBlock: CIFDUS_clean_linker_0, # of connection points: 2
#     Edge 41, Type (0, 0), BuildingBlock: CIFDUS_clean_linker_0, # of connection points: 2
#     Edge 42, Type (0, 0), BuildingBlock: CIFDUS_clean_linker_0, # of connection points: 2
#     Edge 43, Type (0, 0), BuildingBlock: CIFDUS_clean_linker_0, # of connection points: 2
#     Edge 44, Type (0, 0), BuildingBlock: CIFDUS_clean_linker_0, # of connection points: 2
#     Edge 45, Type (0, 0), BuildingBlock: CIFDUS_clean_linker_0, # of connection points: 2
#     Edge 46, Type (0, 0), BuildingBlock: CIFDUS_clean_linker_0, # of connection points: 2
#     Edge 47, Type (0, 0), BuildingBlock: CIFDUS_clean_linker_0, # of connection points: 2
#     Edge 48, Type (0, 0), BuildingBlock: CIFDUS_clean_linker_0, # of connection points: 2
#     Edge 49, Type (0, 0), BuildingBlock: CIFDUS_clean_linker_0, # of connection points: 2
#     Edge 50, Type (0, 0), BuildingBlock: CIFDUS_clean_linker_0, # of connection points: 2
#     Edge 51, Type (0, 0), BuildingBlock: CIFDUS_clean_linker_0, # of connection points: 2
#     Edge 52, Type (0, 0), BuildingBlock: CIFDUS_clean_linker_0, # of connection points: 2
#     Edge 53, Type (0, 0), BuildingBlock: CIFDUS_clean_linker_0, # of connection points: 2
#     Edge 54, Type (0, 0), BuildingBlock: CIFDUS_clean_linker_0, # of connection points: 2
#     Edge 55, Type (0, 0), BuildingBlock: CIFDUS_clean_linker_0, # of connection points: 2
#     Edge 56, Type (0, 0), BuildingBlock: CIFDUS_clean_linker_0, # of connection points: 2
#     Edge 57, Type (0, 0), BuildingBlock: CIFDUS_clean_linker_0, # of connection points: 2
#     Edge 58, Type (0, 0), BuildingBlock: CIFDUS_clean_linker_0, # of connection points: 2
#     Edge 59, Type (0, 0), BuildingBlock: CIFDUS_clean_linker_0, # of connection points: 2
#     Edge 60, Type (0, 0), BuildingBlock: CIFDUS_clean_linker_0, # of connection points: 2
#     Edge 61, Type (0, 0), BuildingBlock: CIFDUS_clean_linker_0, # of connection points: 2
#     Edge 62, Type (0, 0), BuildingBlock: CIFDUS_clean_linker_0, # of connection points: 2
#     Edge 63, Type (0, 0), BuildingBlock: CIFDUS_clean_linker_0, # of connection points: 2
#     Edge 64, Type (0, 0), BuildingBlock: CIFDUS_clean_linker_0, # of connection points: 2
#     Edge 65, Type (0, 0), BuildingBlock: CIFDUS_clean_linker_0, # of connection points: 2
#     Edge 66, Type (0, 0), BuildingBlock: CIFDUS_clean_linker_0, # of connection points: 2
#     Edge 67, Type (0, 0), BuildingBlock: CIFDUS_clean_linker_0, # of connection points: 2
#     Edge 68, Type (0, 0), BuildingBlock: CIFDUS_clean_linker_0, # of connection points: 2
#     Edge 69, Type (0, 0), BuildingBlock: CIFDUS_clean_linker_0, # of connection points: 2
#     Edge 70, Type (0, 0), BuildingBlock: CIFDUS_clean_linker_0, # of connection points: 2
#     Edge 71, Type (0, 0), BuildingBlock: CIFDUS_clean_linker_0, # of connection points: 2
#     Edge 72, Type (0, 0), BuildingBlock: CIFDUS_clean_linker_0, # of connection points: 2
#     Edge 73, Type (0, 0), BuildingBlock: CIFDUS_clean_linker_0, # of connection points: 2
#     Edge 74, Type (0, 0), BuildingBlock: CIFDUS_clean_linker_0, # of connection points: 2
#     Edge 75, Type (0, 0), BuildingBlock: CIFDUS_clean_linker_0, # of connection points: 2
#     Edge 76, Type (0, 0), BuildingBlock: CIFDUS_clean_linker_0, # of connection points: 2
#     Edge 77, Type (0, 0), BuildingBlock: CIFDUS_clean_linker_0, # of connection points: 2
#     Edge 78, Type (0, 0), BuildingBlock: CIFDUS_clean_linker_0, # of connection points: 2
#     Edge 79, Type (0, 0), BuildingBlock: CIFDUS_clean_linker_0, # of connection points: 2
#     Edge 80, Type (0, 0), BuildingBlock: CIFDUS_clean_linker_0, # of connection points: 2
#     Edge 81, Type (0, 0), BuildingBlock: CIFDUS_clean_linker_0, # of connection points: 2
#     Edge 82, Type (0, 0), BuildingBlock: CIFDUS_clean_linker_0, # of connection points: 2
#     Edge 83, Type (0, 0), BuildingBlock: CIFDUS_clean_linker_0, # of connection points: 2
#     Edge 84, Type (0, 0), BuildingBlock: CIFDUS_clean_linker_0, # of connection points: 2
#     Edge 85, Type (0, 0), BuildingBlock: CIFDUS_clean_linker_0, # of connection points: 2
#     Edge 86, Type (0, 0), BuildingBlock: CIFDUS_clean_linker_0, # of connection points: 2
#     Edge 87, Type (0, 0), BuildingBlock: CIFDUS_clean_linker_0, # of connection points: 2
#     Edge 88, Type (0, 0), BuildingBlock: CIFDUS_clean_linker_0, # of connection points: 2
#     Edge 89, Type (0, 0), BuildingBlock: CIFDUS_clean_linker_0, # of connection points: 2
#     Edge 90, Type (0, 0), BuildingBlock: CIFDUS_clean_linker_0, # of connection points: 2
#     Edge 91, Type (0, 0), BuildingBlock: CIFDUS_clean_linker_0, # of connection points: 2
#     Edge 92, Type (0, 0), BuildingBlock: CIFDUS_clean_linker_0, # of connection points: 2
#     Edge 93, Type (0, 0), BuildingBlock: CIFDUS_clean_linker_0, # of connection points: 2
#     Edge 94, Type (0, 0), BuildingBlock: CIFDUS_clean_linker_0, # of connection points: 2
#     Edge 95, Type (0, 0), BuildingBlock: CIFDUS_clean_linker_0, # of connection points: 2
#     Edge 96, Type (0, 0), BuildingBlock: CIFDUS_clean_linker_0, # of connection points: 2
#     Edge 97, Type (0, 0), BuildingBlock: CIFDUS_clean_linker_0, # of connection points: 2
#     Edge 98, Type (0, 0), BuildingBlock: CIFDUS_clean_linker_0, # of connection points: 2
#     Edge 99, Type (0, 0), BuildingBlock: CIFDUS_clean_linker_0, # of connection points: 2
#     Edge 100, Type (0, 0), BuildingBlock: CIFDUS_clean_linker_0, # of connection points: 2
#     Edge 101, Type (0, 0), BuildingBlock: CIFDUS_clean_linker_0, # of connection points: 2
#     Edge 102, Type (0, 0), BuildingBlock: CIFDUS_clean_linker_0, # of connection points: 2
#     Edge 103, Type (0, 0), BuildingBlock: CIFDUS_clean_linker_0, # of connection points: 2
#     Edge 104, Type (0, 0), BuildingBlock: CIFDUS_clean_linker_0, # of connection points: 2
#     Edge 105, Type (0, 0), BuildingBlock: CIFDUS_clean_linker_0, # of connection points: 2
#     Edge 106, Type (0, 0), BuildingBlock: CIFDUS_clean_linker_0, # of connection points: 2
#     Edge 107, Type (0, 0), BuildingBlock: CIFDUS_clean_linker_0, # of connection points: 2
#     Edge 108, Type (0, 0), BuildingBlock: CIFDUS_clean_linker_0, # of connection points: 2
#     Edge 109, Type (0, 0), BuildingBlock: CIFDUS_clean_linker_0, # of connection points: 2
#     Edge 110, Type (0, 0), BuildingBlock: CIFDUS_clean_linker_0, # of connection points: 2
#     Edge 111, Type (0, 0), BuildingBlock: CIFDUS_clean_linker_0, # of connection points: 2
#     Edge 112, Type (0, 0), BuildingBlock: CIFDUS_clean_linker_0, # of connection points: 2
#     Edge 113, Type (0, 0), BuildingBlock: CIFDUS_clean_linker_0, # of connection points: 2
#     Edge 114, Type (0, 0), BuildingBlock: CIFDUS_clean_linker_0, # of connection points: 2
#     Edge 115, Type (0, 0), BuildingBlock: CIFDUS_clean_linker_0, # of connection points: 2
#     Edge 116, Type (0, 0), BuildingBlock: CIFDUS_clean_linker_0, # of connection points: 2
#     Edge 117, Type (0, 0), BuildingBlock: CIFDUS_clean_linker_0, # of connection points: 2
#     Edge 118, Type (0, 0), BuildingBlock: CIFDUS_clean_linker_0, # of connection points: 2
#     Edge 119, Type (0, 0), BuildingBlock: CIFDUS_clean_linker_0, # of connection points: 2
#     Edge 120, Type (0, 0), BuildingBlock: CIFDUS_clean_linker_0, # of connection points: 2
#     Edge 121, Type (0, 0), BuildingBlock: CIFDUS_clean_linker_0, # of connection points: 2
#     Edge 122, Type (0, 0), BuildingBlock: CIFDUS_clean_linker_0, # of connection points: 2
#     Edge 123, Type (0, 0), BuildingBlock: CIFDUS_clean_linker_0, # of connection points: 2
#     Edge 124, Type (0, 0), BuildingBlock: CIFDUS_clean_linker_0, # of connection points: 2
#     Edge 125, Type (0, 0), BuildingBlock: CIFDUS_clean_linker_0, # of connection points: 2
# Relax obj value: 0.118
# Max RMSD: 0.175
# Mean RMSD: 0.175
data_MOF--net-wlq--node1-XOMCOT_clean_sbu_0--edge1-CIFDUS_clean_linker_0
_symmetry_space_group_name_H-M    P1
_symmetry_Int_Tables_number       1
_symmetry_cell_setting            triclinic
loop_
_symmetry_equiv_pos_as_xyz
'x, y, z'
_cell_length_a     67.360662
_cell_length_b     67.291917
_cell_length_c     31.44986
_cell_angle_alpha  90.090568
_cell_angle_beta   89.902612
_cell_angle_gamma 120.07009
loop_
_atom_site_label
_atom_site_type_symbol
_atom_site_fract_x
_atom_site_fract_y
_atom_site_fract_z
_atom_type_partial_charge
Co0 Co 0.22941 0.22298 0.03536 0.0
C1 C 0.23137 0.22577 0.13014 0.0
C2 C 0.26155 0.25292 0.1006 0.0
C3 C 0.2635 0.25612 0.14392 0.0
N4 N 0.24147 0.2339 0.09187 0.0
N5 N 0.24448 0.23917 0.1627 0.0
H6 H 0.21452 0.21079 0.13388 0.0
H7 H 0.2738 0.26405 0.07708 0.0
C8 C 0.26941 0.2292 0.98291 0.0
O9 O 0.25566 0.20893 0.96619 0.0
N10 N 0.21703 0.21261 0.97834 0.0
C11 C 0.19671 0.19408 0.96795 0.0
C12 C 0.19282 0.19469 0.92525 0.0
C13 C 0.22485 0.22457 0.94155 0.0
N14 N 0.21055 0.21376 0.90868 0.0
C15 C 0.20653 0.17475 0.05406 0.0
C16 C 0.24476 0.16976 0.05373 0.0
C17 C 0.22294 0.14991 0.05321 0.0
C18 C 0.20375 0.15279 0.05591 0.0
C19 C 0.2467 0.19151 0.05261 0.0
N20 N 0.22766 0.19364 0.04827 0.0
H21 H 0.19144 0.17636 0.05621 0.0
H22 H 0.2636 0.20649 0.05383 0.0
H23 H 0.18467 0.1815 0.98977 0.0
H24 H 0.2403 0.24117 0.93911 0.0
O25 O 0.19915 0.21557 0.05392 0.0
O26 O 0.22504 0.24919 0.02725 0.0
O27 O 0.26198 0.23709 1.01219 0.0
C28 C 0.20433 0.23601 0.04159 0.0
H29 H 0.27796 0.26997 0.16021 0.0
H30 H 0.17792 0.18219 0.90775 0.0
H31 H 0.26023 0.16863 0.05341 0.0
H32 H 0.18659 0.13816 0.05868 0.0
Co33 Co 0.79289 0.02232 0.04641 0.0
C34 C 0.77986 0.01045 0.13813 0.0
C35 C 0.77826 0.04008 0.11814 0.0
C36 C 0.77409 0.03723 0.16124 0.0
N37 N 0.78203 0.0234 0.10347 0.0
N38 N 0.77508 0.01861 0.17373 0.0
H39 H 0.78255 0.9959 0.13797 0.0
H40 H 0.77915 0.05386 0.09915 0.0
C41 C 0.77714 0.04694 0.98741 0.0
O42 O 0.79597 0.05361 0.96528 0.0
N43 N 0.80407 0.02111 0.98965 0.0
C44 C 0.82584 0.03298 0.97491 0.0
C45 C 0.82595 0.0285 0.93229 0.0
C46 C 0.79137 0.0089 0.95579 0.0
N47 N 0.80435 0.01345 0.92044 0.0
C48 C 0.83907 0.05274 0.07317 0.0
C49 C 0.8425 0.09345 0.04681 0.0
C50 C 0.86259 0.09318 0.05717 0.0
C51 C 0.86046 0.07274 0.07289 0.0
C52 C 0.82134 0.07298 0.04786 0.0
N53 N 0.8201 0.05252 0.05715 0.0
H54 H 0.83833 0.03715 0.08359 0.0
H55 H 0.80631 0.07394 0.04037 0.0
H56 H 0.84075 0.04465 0.99299 0.0
H57 H 0.77293 0.99781 0.95648 0.0
O58 O 0.80474 0.00314 0.06606 0.0
O59 O 0.76979 0.98991 0.04053 0.0
O60 O 0.77396 0.03582 0.02226 0.0
C61 C 0.78534 0.98554 0.05488 0.0
H62 H 0.77069 0.04806 0.18191 0.0
H63 H 0.84074 0.03584 0.91141 0.0
H64 H 0.84317 0.10906 0.03609 0.0
H65 H 0.87537 0.07195 0.08329 0.0
Co66 Co 0.9869 0.78056 0.03699 0.0
C67 C 0.98804 0.77748 0.13339 0.0
C68 C 0.0116 0.77012 0.10079 0.0
C69 C 0.01489 0.76954 0.14374 0.0
N70 N 0.99494 0.77532 0.09393 0.0
N71 N 1.00008 0.77412 0.16413 0.0
H72 H 0.97482 0.78159 0.14012 0.0
H73 H 0.02096 0.76712 0.07604 0.0
C74 C 0.96481 0.72989 0.04489 0.0
O75 O 0.95965 0.73294 0.08374 0.0
N76 N 0.98018 0.78615 0.97999 0.0
C77 C 0.96723 0.79533 0.96815 0.0
C78 C 0.9689 0.79842 0.92477 0.0
C79 C 0.98998 0.78432 0.94389 0.0
N80 N 0.98331 0.79164 0.90981 0.0
C81 C 0.9532 0.78829 0.0783 0.0
C82 C 0.91542 0.75345 0.03742 0.0
C83 C 0.91267 0.76917 0.06208 0.0
C84 C 0.93172 0.78654 0.08326 0.0
C85 C 0.93714 0.75573 0.03337 0.0
N86 N 0.95582 0.77293 0.05387 0.0
H87 H 0.96799 0.80288 0.09214 0.0
H88 H 0.93907 0.74485 1.01055 0.0
H89 H 0.95794 0.80033 0.98957 0.0
H90 H 1.00234 0.77852 0.94278 0.0
O91 O 1.0027 0.81327 0.0478 0.0
O92 O 0.01914 0.79457 0.02138 0.0
O93 O 0.97618 0.74738 0.02084 0.0
C94 C 0.02118 0.81403 0.03345 0.0
H95 H 0.02704 0.76577 0.15894 0.0
H96 H 0.96124 0.80628 0.90597 0.0
H97 H 0.90117 0.74031 0.01941 0.0
H98 H 0.93026 0.79941 0.10157 0.0
Co99 Co 0.21793 0.23155 0.53836 0.0
C100 C 0.22602 0.23691 0.44241 0.0
C101 C 0.25667 0.25122 0.4801 0.0
C102 C 0.26285 0.25529 0.43802 0.0
N103 N 0.2336 0.24 0.48329 0.0
N104 N 0.24365 0.24628 0.41433 0.0
H105 H 0.20829 0.22882 0.43294 0.0
H106 H 0.26828 0.25656 0.50688 0.0
C107 C 0.24116 0.28223 0.53485 0.0
O108 O 0.23261 0.27877 0.49626 0.0
N109 N 0.20281 0.22268 0.59314 0.0
C110 C 0.18085 0.20602 0.59864 0.0
C111 C 0.17567 0.20419 0.64108 0.0
C112 C 0.21089 0.23064 0.63262 0.0
N113 N 0.19444 0.21966 0.66257 0.0
C114 C 0.17662 0.22015 0.49294 0.0
C115 C 0.16627 0.24871 0.53939 0.0
C116 C 0.14922 0.23177 0.5137 0.0
C117 C 0.15489 0.21788 0.48919 0.0
C118 C 0.18771 0.25033 0.54241 0.0
N119 N 0.19279 0.23608 0.51959 0.0
H120 H 0.1796 0.20761 0.47726 0.0
H121 H 0.19922 0.2615 0.56663 0.0
H122 H 0.16937 0.19581 0.57338 0.0
H123 H 0.22823 0.24418 0.63921 0.0
O124 O 0.20458 0.19955 0.52401 0.0
O125 O 0.23817 0.22011 0.55572 0.0
O126 O 0.23694 0.26486 0.55797 0.0
C127 C 0.22245 0.20026 0.54106 0.0
H128 H 0.28019 0.26444 0.42568 0.0
H129 H 0.15936 0.19201 0.65519 0.0
H130 H 0.16249 0.25934 0.55991 0.0
H131 H 0.1422 0.20446 0.46908 0.0
Co132 Co 0.7756 0.9857 0.54722 0.0
C133 C 0.77556 0.99654 0.45501 0.0
C134 C 0.74149 0.97453 0.47854 0.0
C135 C 0.74027 0.97759 0.43548 0.0
N136 N 0.76365 0.98627 0.49094 0.0
N137 N 0.76167 0.99146 0.42079 0.0
H138 H 0.79403 0.00707 0.45344 0.0
H139 H 0.72708 0.96407 0.499 0.0
C140 C 0.73632 0.95415 0.6018 0.0
O141 O 0.74926 0.94569 0.61378 0.0
N142 N 0.78773 0.98562 0.60377 0.0
C143 C 0.79968 0.97562 0.61749 0.0
C144 C 0.8028 0.97864 0.66072 0.0
C145 C 0.7844 0.99515 0.6391 0.0
N146 N 0.79318 0.99085 0.67415 0.0
C147 C 0.79406 0.95726 0.52212 0.0
C148 C 0.75315 0.9163 0.51588 0.0
C149 C 0.77378 0.91606 0.51165 0.0
C150 C 0.7944 0.93711 0.51361 0.0
C151 C 0.75366 0.93694 0.52478 0.0
N152 N 0.77402 0.95683 0.5311 0.0
H153 H 0.81025 0.9731 0.52411 0.0
H154 H 0.73755 0.93664 0.52707 0.0
H155 H 0.80557 0.96631 0.59852 0.0
H156 H 0.77506 0.00436 0.63939 0.0
O157 O 0.80654 0.00676 0.52875 0.0
O158 O 0.78314 0.01725 0.55725 0.0
O159 O 0.74335 0.96948 0.57255 0.0
C160 C 0.80344 0.02322 0.54243 0.0
H161 H 0.72481 0.97037 0.41646 0.0
H162 H 0.81161 0.97247 0.6808 0.0
H163 H 0.73675 0.9007 0.51254 0.0
H164 H 0.81085 0.93806 0.5103 0.0
Co165 Co 0.01605 0.79682 0.54055 0.0
C166 C 0.01851 0.79245 0.44547 0.0
C167 C 1.00012 0.76008 0.47752 0.0
C168 C 0.99797 0.75608 0.43441 0.0
N169 N 0.01293 0.7829 0.48472 0.0
N170 N 0.00955 0.77643 0.41443 0.0
H171 H 0.02797 0.81059 0.43904 0.0
H172 H 0.99221 0.74721 0.50209 0.0
C173 C 0.04224 0.77127 0.54854 0.0
O174 O 0.04773 0.77427 0.50804 0.0
N175 N 0.01822 0.80975 0.59635 0.0
C176 C 0.02818 0.83205 0.60784 0.0
C177 C 0.02516 0.83319 0.65098 0.0
C178 C 0.00895 0.79769 0.63224 0.0
N179 N 0.01302 0.81158 0.66589 0.0
C180 C 0.0472 0.84016 0.50032 0.0
C181 C 0.08601 0.84771 0.54381 0.0
C182 C 0.08758 0.86471 0.51627 0.0
C183 C 0.06795 0.86072 0.49394 0.0
C184 C 0.06516 0.82727 0.54857 0.0
N185 N 0.04602 0.82339 0.52648 0.0
H186 H 0.03185 0.8381 0.48536 0.0
H187 H 0.06432 0.81542 0.57242 0.0
H188 H 0.03668 0.84649 0.58644 0.0
H189 H 0.99921 0.77912 0.63364 0.0
O190 O 0.99546 0.80784 0.5232 0.0
O191 O 0.98476 0.77406 0.5525 0.0
O192 O 0.03032 0.77927 0.56481 0.0
C193 C 0.9789 0.78832 0.53751 0.0
H194 H 0.98846 0.73955 0.41886 0.0
H195 H 0.03069 0.8486 0.66968 0.0
H196 H 0.10069 0.85048 0.56247 0.0
H197 H 0.06838 0.87381 0.47331 0.0
Co198 Co 0.77748 0.7964 0.03504 0.0
C199 C 0.77371 0.78999 0.9405 0.0
C200 C 0.74642 0.76163 0.97397 0.0
C201 C 0.74427 0.75653 0.93119 0.0
N202 N 0.76484 0.78258 0.97996 0.0
N203 N 0.76148 0.77425 0.90997 0.0
H204 H 0.78927 0.8061 0.93449 0.0
H205 H 0.73565 0.75047 0.99909 0.0
C206 C 0.73879 0.78812 0.09151 0.0
O207 O 0.75146 0.8099 0.10169 0.0
N208 N 0.79031 0.80933 0.09117 0.0
C209 C 0.80237 0.83132 0.10504 0.0
C210 C 0.80536 0.8314 0.14841 0.0
C211 C 0.78692 0.7965 0.12656 0.0
N212 N 0.79562 0.80954 0.16179 0.0
C213 C 0.79313 0.84332 1.01229 0.0
C214 C 0.75057 0.83998 1.0096 0.0
C215 C 0.77025 0.86185 1.01002 0.0
C216 C 0.79173 0.86326 1.00883 0.0
C217 C 0.75284 0.82044 1.01314 0.0
N218 N 0.77393 0.82257 0.01921 0.0
H219 H 0.80987 0.84486 1.01267 0.0
H220 H 0.73754 0.80372 1.01317 0.0
H221 H 0.8085 0.84656 0.08614 0.0
H222 H 0.77744 0.77791 0.12679 0.0
O223 O 0.80804 0.8073 1.0133 0.0
O224 O 0.78675 0.77369 0.04485 0.0
O225 O 0.7457 0.77952 0.06252 0.0
C226 C 0.80619 0.78827 0.02721 0.0
H227 H 0.73108 0.74078 0.91688 0.0
H228 H 0.81415 0.8464 0.16859 0.0
H229 H 0.73359 0.83799 1.00875 0.0
H230 H 0.8074 0.87973 1.00683 0.0
Co231 Co 0.21559 0.9936 0.05065 0.0
C232 C 0.22078 0.99162 0.95573 0.0
C233 C 0.25265 0.01246 0.9881 0.0
C234 C 0.25681 0.01455 0.94506 0.0
N235 N 0.23005 0.99816 0.99504 0.0
N236 N 0.2368 1.00146 0.92483 0.0
H237 H 0.20275 0.98068 0.94929 0.0
H238 H 0.26525 0.02125 1.01277 0.0
C239 C 0.24342 0.96958 0.05778 0.0
O240 O 0.24176 0.96541 0.01675 0.0
N241 N 0.20211 0.98994 0.10643 0.0
C242 C 0.17987 0.978 0.11833 0.0
C243 C 0.17857 0.9805 0.16165 0.0
C244 C 0.21391 0.99973 0.1423 0.0
N245 N 0.19999 0.99425 0.17629 0.0
C246 C 0.17261 0.96248 1.01056 0.0
C247 C 0.16714 0.9226 0.04653 0.0
C248 C 0.14913 0.92146 0.02246 0.0
C249 C 0.15214 0.94175 1.00404 0.0
C250 C 0.18716 0.94369 0.05281 0.0
N251 N 0.18997 0.9634 0.03453 0.0
H252 H 0.17416 0.97801 0.9974 0.0
H253 H 0.19952 0.94404 0.07483 0.0
H254 H 0.16552 0.96842 0.0972 0.0
H255 H 0.23235 0.0108 0.14352 0.0
O256 O 0.20326 0.01312 0.03405 0.0
O257 O 0.23703 0.0253 0.06434 0.0
O258 O 0.23404 0.98015 0.07448 0.0
C259 C 0.22204 0.03021 0.04938 0.0
H260 H 0.27326 0.02497 0.92971 0.0
H261 H 0.1631 0.97346 0.18067 0.0
H262 H 0.16528 0.9075 0.06248 0.0
H263 H 0.1386 0.94169 0.9854 0.0
Co264 Co 0.01921 0.23805 0.03778 0.0
C265 C 0.01864 0.24268 0.94304 0.0
C266 C 0.01618 0.26918 0.97678 0.0
C267 C 0.01604 0.27295 0.93387 0.0
N268 N 0.01805 0.25039 0.98268 0.0
N269 N 0.01758 0.25635 0.91254 0.0
H270 H 0.02027 0.22774 0.93668 0.0
H271 H 0.01497 0.27948 1.00198 0.0
C272 C 0.05094 0.27843 0.09148 0.0
O273 O 0.05941 0.26607 0.10678 0.0
N274 N 0.01958 0.22539 0.09364 0.0
C275 C 0.0232 0.20785 0.1026 0.0
C276 C 0.02084 0.20375 0.14556 0.0
C277 C 0.01403 0.23097 0.13161 0.0
N278 N 0.01526 0.21838 0.16402 0.0
C279 C 0.04738 0.21944 1.01137 0.0
C280 C 0.08889 0.25999 1.01006 0.0
C281 C 0.08884 0.23919 1.00575 0.0
C282 C 0.06754 0.2188 1.00498 0.0
C283 C 0.06816 0.25978 0.01652 0.0
N284 N 0.04794 0.2395 0.02086 0.0
H285 H 0.0313 0.20348 1.01021 0.0
H286 H 0.06858 0.27599 0.01838 0.0
H287 H 0.02648 0.19786 0.07997 0.0
H288 H 0.00953 0.24422 0.13544 0.0
O289 O 0.99764 0.20743 0.01837 0.0
O290 O 0.98814 0.23103 0.04954 0.0
O291 O 0.03569 0.2703 0.06227 0.0
C292 C 0.98159 0.21086 0.03339 0.0
H293 H 0.01477 0.28685 0.91934 0.0
H294 H 0.02242 0.19044 0.16179 0.0
H295 H 0.10475 0.27628 1.00853 0.0
H296 H 0.06631 0.20225 1.00096 0.0
Co297 Co 0.78259 0.77076 0.5348 0.0
C298 C 0.77714 0.76688 0.63042 0.0
C299 C 0.74837 0.74033 0.59649 0.0
C300 C 0.74401 0.73686 0.63932 0.0
N301 N 0.76921 0.75893 0.5906 0.0
N302 N 0.76202 0.75346 0.66088 0.0
H303 H 0.79362 0.78186 0.63703 0.0
H304 H 0.73695 0.72999 0.57127 0.0
C305 C 0.76938 0.72987 0.47686 0.0
O306 O 0.78732 0.74256 0.45295 0.0
N307 N 0.79584 0.78316 0.47875 0.0
C308 C 0.81801 0.79251 0.46654 0.0
C309 C 0.81982 0.79777 0.42396 0.0
C310 C 0.78465 0.78369 0.44324 0.0
N311 N 0.79892 0.79221 0.4094 0.0
C312 C 0.82755 0.78961 0.5702 0.0
C313 C 0.83669 0.75621 0.54165 0.0
C314 C 0.85502 0.77727 0.55556 0.0
C315 C 0.84992 0.79351 0.57229 0.0
C316 C 0.81443 0.75289 0.54057 0.0
N317 N 0.81041 0.77025 0.55142 0.0
H318 H 0.82456 0.80306 0.58118 0.0
H319 H 0.80092 0.73663 0.52943 0.0
H320 H 0.83209 0.79505 0.48641 0.0
H321 H 0.76636 0.77715 0.4417 0.0
O322 O 0.79163 0.80162 0.55231 0.0
O323 O 0.7581 0.77727 0.5233 0.0
O324 O 0.76635 0.73783 0.51186 0.0
C325 C 0.77187 0.79766 0.5383 0.0
H326 H 0.72858 0.72316 0.65364 0.0
H327 H 0.83534 0.80513 0.40502 0.0
H328 H 0.83957 0.74279 0.52956 0.0
H329 H 0.86329 0.8096 0.58531 0.0
Co330 Co 0.23464 0.02123 0.5468 0.0
C331 C 0.23809 0.02036 0.64284 0.0
C332 C 0.24558 0.99675 0.61075 0.0
C333 C 0.24606 0.99358 0.65384 0.0
N334 N 0.2404 0.01342 0.60355 0.0
N335 N 0.24139 0.00844 0.67389 0.0
H336 H 0.2338 0.0335 0.64923 0.0
H337 H 0.24851 0.98725 0.58618 0.0
C338 C 0.28542 0.04346 0.55333 0.0
O339 O 0.28261 0.04837 0.59252 0.0
N340 N 0.22839 0.02777 0.49009 0.0
C341 C 0.21943 0.041 0.47879 0.0
C342 C 0.21565 0.03906 0.4356 0.0
C343 C 0.22941 0.01757 0.45384 0.0
N344 N 0.22177 0.02422 0.4202 0.0
C345 C 0.22634 0.05458 0.58782 0.0
C346 C 0.26165 0.09289 0.54909 0.0
C347 C 0.24528 0.09531 0.5724 0.0
C348 C 0.22771 0.07589 0.59261 0.0
C349 C 0.25948 0.07121 0.54451 0.0
N350 N 0.24207 0.05225 0.56402 0.0
H351 H 0.21175 0.03966 0.60131 0.0
H352 H 0.27068 0.06961 0.52204 0.0
H353 H 0.21502 0.05067 0.50043 0.0
H354 H 0.23492 0.00498 0.4523 0.0
O355 O 0.20212 0.00509 0.55923 0.0
O356 O 0.22072 0.98892 0.53101 0.0
O357 O 0.26778 0.03227 0.52952 0.0
C358 C 0.20145 0.98671 0.54457 0.0
H359 H 0.24975 0.98143 0.66933 0.0
H360 H 0.2078 0.04692 0.41729 0.0
H361 H 0.27503 0.1073 0.53175 0.0
H362 H 0.21453 0.07698 0.61051 0.0
Co363 Co 0.99008 0.21419 0.53742 0.0
C364 C 0.99355 0.21966 0.63351 0.0
C365 C 0.99579 0.24856 0.60062 0.0
C366 C 0.99932 0.25376 0.64315 0.0
N367 N 0.99163 0.22698 0.59421 0.0
N368 N 0.99803 0.23567 0.66404 0.0
H369 H 0.99323 0.20375 0.63967 0.0
H370 H 0.9971 0.26021 0.57572 0.0
C371 C 0.95649 0.23054 0.5316 0.0
O372 O 0.94763 0.21969 0.56749 0.0
N373 N 0.98951 0.20224 0.48099 0.0
C374 C 0.98624 0.18115 0.47286 0.0
C375 C 0.99022 0.17969 0.43046 0.0
C376 C 0.9955 0.21344 0.44326 0.0
N377 N 0.99603 0.19992 0.41186 0.0
C378 C 0.96 0.17081 0.57873 0.0
C379 C 0.92285 0.15841 0.52571 0.0
C380 C 0.92148 0.14267 0.55618 0.0
C381 C 0.94038 0.1491 0.58303 0.0
C382 C 0.94287 0.17969 0.52202 0.0
N383 N 0.96097 0.1861 0.54916 0.0
H384 H 0.97489 0.1746 0.5973 0.0
H385 H 0.94416 0.19048 0.49557 0.0
H386 H 0.98225 0.16805 0.49659 0.0
H387 H 1.00069 0.23138 0.43942 0.0
O388 O 0.0113 0.20426 0.55461 0.0
O389 O 0.02123 0.23843 0.52754 0.0
O390 O 0.97368 0.23028 0.51494 0.0
C391 C 0.02751 0.22421 0.54147 0.0
H392 H 1.00294 0.26987 0.65745 0.0
H393 H 0.98976 0.16515 0.41468 0.0
H394 H 0.90909 0.15381 0.50313 0.0
H395 H 0.94027 0.13718 0.60626 0.0
Co396 Co 0.89561 0.55032 0.36761 0.0
C397 C 0.90419 0.55791 0.46303 0.0
C398 C 0.92044 0.58867 0.4256 0.0
C399 C 0.92563 0.59461 0.46758 0.0
N400 N 0.90746 0.56564 0.42224 0.0
N401 N 0.91538 0.57534 0.49113 0.0
H402 H 0.8941 0.54017 0.47243 0.0
H403 H 0.92584 0.60044 0.39903 0.0
C404 C 0.94675 0.57686 0.3527 0.0
O405 O 0.95022 0.57178 0.39128 0.0
N406 N 0.88412 0.53634 0.31262 0.0
C407 C 0.87265 0.5139 0.3019 0.0
C408 C 0.86921 0.51217 0.25845 0.0
C409 C 0.88703 0.54787 0.27597 0.0
N410 N 0.87822 0.53355 0.24248 0.0
C411 C 0.88884 0.50948 0.40879 0.0
C412 C 0.91702 0.50165 0.35582 0.0
C413 C 0.90222 0.4842 0.38352 0.0
C414 C 0.88853 0.48859 0.41113 0.0
C415 C 0.91668 0.52224 0.3542 0.0
N416 N 0.9026 0.52603 0.38034 0.0
H417 H 0.87646 0.51139 0.4274 0.0
H418 H 0.92605 0.53395 0.32879 0.0
H419 H 0.86729 0.4998 0.32392 0.0
H420 H 0.89566 0.56641 0.27378 0.0
O421 O 0.8646 0.53578 0.38902 0.0
O422 O 0.88251 0.56987 0.35799 0.0
O423 O 0.92639 0.5701 0.33966 0.0
C424 C 0.86377 0.55351 0.37493 0.0
H425 H 0.93604 0.61183 0.48002 0.0
H426 H 0.86038 0.49647 0.2401 0.0
H427 H 0.92737 0.4987 0.33307 0.0
H428 H 0.87668 0.47548 0.43279 0.0
Co429 Co 0.45172 0.34268 0.36272 0.0
C430 C 0.44849 0.3406 0.45871 0.0
C431 C 0.41662 0.33103 0.42781 0.0
C432 C 0.41276 0.32803 0.47084 0.0
N433 N 0.43909 0.33936 0.41994 0.0
N434 N 0.43276 0.33391 0.49048 0.0
H435 H 0.46607 0.3451 0.46372 0.0
H436 H 0.40373 0.32692 0.40363 0.0
C437 C 0.42921 0.37139 0.36112 0.0
O438 O 0.43756 0.37884 0.3993 0.0
N439 N 0.46357 0.34506 0.30586 0.0
C440 C 0.48441 0.34822 0.29588 0.0
C441 C 0.48545 0.34588 0.25261 0.0
C442 C 0.4522 0.34098 0.26859 0.0
N443 N 0.46525 0.34136 0.23559 0.0
C444 C 0.49544 0.37438 0.40117 0.0
C445 C 0.50214 0.41277 0.35703 0.0
C446 C 0.51938 0.41489 0.38457 0.0
C447 C 0.51596 0.39529 0.40656 0.0
C448 C 0.48221 0.39154 0.35192 0.0
N449 N 0.47845 0.37278 0.3752 0.0
H450 H 0.49379 0.35926 0.41627 0.0
H451 H 0.47042 0.39013 0.32739 0.0
H452 H 0.4976 0.35115 0.3187 0.0
H453 H 0.43445 0.33664 0.26592 0.0
O454 O 0.46378 0.32286 0.37812 0.0
O455 O 0.42916 0.31095 0.35166 0.0
O456 O 0.43332 0.35703 0.34207 0.0
C457 C 0.44431 0.30582 0.36504 0.0
H458 H 0.39634 0.32183 0.48627 0.0
H459 H 0.49974 0.34686 0.23502 0.0
H460 H 0.50453 0.42718 0.3379 0.0
H461 H 0.52917 0.39602 0.42719 0.0
Co462 Co 0.66495 0.11307 0.36597 0.0
C463 C 0.66614 0.11155 0.46142 0.0
C464 C 0.66536 0.08229 0.4327 0.0
C465 C 0.66614 0.0804 0.47612 0.0
N466 N 0.66442 0.10136 0.42319 0.0
N467 N 0.66667 0.0988 0.49413 0.0
H468 H 0.66767 0.12819 0.46555 0.0
H469 H 0.66636 0.07084 0.40982 0.0
C470 C 0.63498 0.06201 0.3504 0.0
O471 O 0.62141 0.06063 0.38173 0.0
N472 N 0.66608 0.12512 0.3097 0.0
C473 C 0.66354 0.14331 0.30124 0.0
C474 C 0.66518 0.1469 0.25814 0.0
C475 C 0.66937 0.11788 0.27161 0.0
N476 N 0.66873 0.13088 0.23934 0.0
C477 C 0.631 0.1221 0.40256 0.0
C478 C 0.59694 0.09753 0.34349 0.0
C479 C 0.59332 0.11053 0.37402 0.0
C480 C 0.61061 0.12281 0.40398 0.0
C481 C 0.61777 0.09763 0.34272 0.0
N482 N 0.63436 0.10935 0.37268 0.0
H483 H 0.6446 0.13306 0.42386 0.0
H484 H 0.62093 0.08916 0.31657 0.0
H485 H 0.66068 0.15329 0.32491 0.0
H486 H 0.67191 0.10333 0.26762 0.0
O487 O 0.6835 0.14436 0.38624 0.0
O488 O 0.69706 0.12253 0.36179 0.0
O489 O 0.65248 0.0813 0.34066 0.0
C490 C 0.70121 0.14234 0.37639 0.0
H491 H 0.66714 0.06695 0.49317 0.0
H492 H 0.66424 0.1606 0.24206 0.0
H493 H 0.58436 0.08847 0.31884 0.0
H494 H 0.6087 0.13352 0.42748 0.0
Co495 Co 0.88979 0.56793 0.86909 0.0
C496 C 0.89478 0.56839 0.77503 0.0
C497 C 0.92456 0.5958 0.80503 0.0
C498 C 0.92834 0.59683 0.76181 0.0
N499 N 0.90353 0.57803 0.81332 0.0
N500 N 0.90966 0.57953 0.74275 0.0
H501 H 0.87807 0.55327 0.7711 0.0
H502 H 0.93646 0.60715 0.82876 0.0
C503 C 0.90161 0.6099 0.92116 0.0
O504 O 0.88114 0.59839 0.93831 0.0
N505 N 0.87599 0.5572 0.92537 0.0
C506 C 0.85403 0.54921 0.93787 0.0
C507 C 0.85216 0.54453 0.98065 0.0
C508 C 0.88698 0.55671 0.9611 0.0
N509 N 0.87281 0.54918 0.99509 0.0
C510 C 0.84403 0.55081 0.83877 0.0
C511 C 0.84394 0.5918 0.84096 0.0
C512 C 0.82305 0.57123 0.83609 0.0
C513 C 0.82353 0.55073 0.83244 0.0
C514 C 0.86419 0.59109 0.84684 0.0
N515 N 0.8636 0.57053 0.84985 0.0
H516 H 0.84355 0.53456 0.83835 0.0
H517 H 0.88005 0.6071 0.85017 0.0
H518 H 0.84015 0.54749 0.91843 0.0
H519 H 0.90509 0.56232 0.96256 0.0
O520 O 0.87896 0.53634 0.8534 0.0
O521 O 0.91263 0.55943 0.88294 0.0
O522 O 0.90736 0.601 0.89087 0.0
C523 C 0.89802 0.53904 0.86888 0.0
H524 H 0.94368 0.60957 0.74577 0.0
H525 H 0.83678 0.53816 0.99979 0.0
H526 H 0.84453 0.60817 0.84228 0.0
H527 H 0.80796 0.53455 0.82671 0.0
Co528 Co 0.44177 0.31686 0.86668 0.0
C529 C 0.43658 0.31771 0.77063 0.0
C530 C 0.4174 0.32967 0.80624 0.0
C531 C 0.41338 0.33075 0.76373 0.0
N532 N 0.43158 0.32109 0.81096 0.0
N533 N 0.42552 0.32338 0.74143 0.0
H534 H 0.44754 0.31092 0.76232 0.0
H535 H 0.41013 0.33448 0.83224 0.0
C536 C 0.39151 0.28515 0.86553 0.0
O537 O 0.39514 0.27927 0.82768 0.0
N538 N 0.45237 0.31359 0.92201 0.0
C539 C 0.47047 0.31054 0.92772 0.0
C540 C 0.47368 0.3093 0.97038 0.0
C541 C 0.44491 0.31451 0.96158 0.0
N542 N 0.45763 0.3117 0.99183 0.0
C543 C 0.45655 0.2885 0.82391 0.0
C544 C 0.42939 0.24931 0.87077 0.0
C545 C 0.44603 0.24957 0.8437 0.0
C546 C 0.45957 0.26944 0.81969 0.0
C547 C 0.42716 0.26875 0.87448 0.0
N548 N 0.44028 0.28801 0.85064 0.0
H549 H 0.4685 0.30421 0.80801 0.0
H550 H 0.41609 0.26875 0.89926 0.0
H551 H 0.48081 0.30951 0.90245 0.0
H552 H 0.43055 0.31706 0.96803 0.0
O553 O 0.47319 0.33799 0.85112 0.0
O554 O 0.44975 0.34805 0.88114 0.0
O555 O 0.40859 0.30016 0.88721 0.0
C556 C 0.47013 0.35419 0.86654 0.0
H557 H 0.40224 0.33633 0.7501 0.0
H558 H 0.48721 0.30733 0.98458 0.0
H559 H 0.41921 0.23474 0.89127 0.0
H560 H 0.47295 0.27056 0.79898 0.0
Co561 Co 0.68412 0.12482 0.86761 0.0
C562 C 0.67647 0.1146 0.77244 0.0
C563 C 0.66843 0.08555 0.81186 0.0
C564 C 0.66293 0.0781 0.7708 0.0
N565 N 0.67741 0.10849 0.81331 0.0
N566 N 0.66773 0.09622 0.74578 0.0
H567 H 0.68082 0.13163 0.76246 0.0
H568 H 0.66555 0.07476 0.8393 0.0
C569 C 0.71236 0.10257 0.86721 0.0
O570 O 0.71819 0.11138 0.82885 0.0
N571 N 0.68952 0.14006 0.92203 0.0
C572 C 0.69587 0.16232 0.9277 0.0
C573 C 0.69389 0.16599 0.97006 0.0
C574 C 0.68371 0.13041 0.96105 0.0
N575 N 0.68623 0.14597 0.99092 0.0
C576 C 0.71478 0.16526 0.81985 0.0
C577 C 0.75303 0.17675 0.86911 0.0
C578 C 0.75374 0.19304 0.8406 0.0
C579 C 0.73449 0.18682 0.8149 0.0
C580 C 0.73297 0.15555 0.87341 0.0
N581 N 0.714 0.14989 0.8491 0.0
H582 H 0.69953 0.16195 0.80297 0.0
H583 H 0.73216 0.14469 0.89933 0.0
H584 H 0.70039 0.17474 0.90243 0.0
H585 H 0.67626 0.1122 0.96693 0.0
O586 O 0.66559 0.13796 0.85147 0.0
O587 O 0.65226 0.10451 0.884 0.0
O588 O 0.6985 0.10629 0.88921 0.0
C589 C 0.64824 0.1201 0.8684 0.0
H590 H 0.65565 0.06048 0.76035 0.0
H591 H 0.69684 0.18191 0.98426 0.0
H592 H 0.76718 0.18102 0.89059 0.0
H593 H 0.7342 0.19899 0.79277 0.0
Co594 Co 0.44533 0.11714 0.37056 0.0
C595 C 0.43858 0.11423 0.27668 0.0
C596 C 0.41884 0.0816 0.30766 0.0
C597 C 0.41671 0.07814 0.26431 0.0
N598 N 0.43259 0.10417 0.31544 0.0
N599 N 0.42909 0.09862 0.24497 0.0
H600 H 0.45048 0.13232 0.27169 0.0
H601 H 0.4117 0.06843 0.33187 0.0
C602 C 0.40549 0.10571 0.42887 0.0
O603 O 0.41819 0.12571 0.4473 0.0
N604 N 0.45882 0.12973 0.42588 0.0
C605 C 0.47696 0.15076 0.43382 0.0
C606 C 0.48383 0.15163 0.47518 0.0
C607 C 0.45532 0.11794 0.46267 0.0
N608 N 0.47017 0.13108 0.49327 0.0
C609 C 0.46291 0.16384 0.34467 0.0
C610 C 0.42406 0.16666 0.35992 0.0
C611 C 0.44502 0.18706 0.35366 0.0
C612 C 0.46425 0.18518 0.34331 0.0
C613 C 0.42346 0.14548 0.36035 0.0
N614 N 0.44325 0.14457 0.35706 0.0
H615 H 0.47831 0.16325 0.33805 0.0
H616 H 0.40711 0.1301 0.36446 0.0
H617 H 0.48576 0.16426 0.41089 0.0
H618 H 0.44282 0.0999 0.46641 0.0
O619 O 0.47586 0.12732 0.34917 0.0
O620 O 0.45361 0.09349 0.37886 0.0
O621 O 0.41317 0.10009 0.39638 0.0
C622 C 0.4734 0.10794 0.36226 0.0
H623 H 0.40708 0.06181 0.24813 0.0
H624 H 0.49822 0.16606 0.49054 0.0
H625 H 0.40845 0.16704 0.36619 0.0
H626 H 0.48053 0.20021 0.33559 0.0
Co627 Co 0.89264 0.32863 0.37336 0.0
C628 C 0.89992 0.33205 0.27825 0.0
C629 C 0.92569 0.32898 0.31258 0.0
C630 C 0.93185 0.33251 0.27064 0.0
N631 N 0.90532 0.32799 0.31774 0.0
N632 N 0.91585 0.33471 0.24887 0.0
H633 H 0.88578 0.33484 0.27155 0.0
H634 H 0.93641 0.32882 0.33789 0.0
C635 C 0.90853 0.29498 0.38951 0.0
O636 O 0.89634 0.28296 0.35674 0.0
N637 N 0.88101 0.33017 0.42867 0.0
C638 C 0.86045 0.32809 0.43699 0.0
C639 C 0.85848 0.32974 0.48021 0.0
C640 C 0.89145 0.33336 0.46669 0.0
N641 N 0.87794 0.333 0.49885 0.0
C642 C 0.85028 0.29629 0.33194 0.0
C643 C 0.83605 0.26289 0.39426 0.0
C644 C 0.82094 0.25991 0.36117 0.0
C645 C 0.82834 0.27685 0.32954 0.0
C646 C 0.85759 0.28268 0.39584 0.0
N647 N 0.86476 0.29901 0.3646 0.0
H648 H 0.85504 0.3097 0.30881 0.0
H649 H 0.86811 0.28534 0.42352 0.0
H650 H 0.84774 0.32542 0.41325 0.0
H651 H 0.90839 0.33558 0.47073 0.0
O652 O 0.88209 0.34854 0.35171 0.0
O653 O 0.91651 0.36037 0.37942 0.0
O654 O 0.90915 0.31362 0.4002 0.0
C655 C 0.90185 0.36558 0.36348 0.0
H656 H 0.94749 0.33424 0.2575 0.0
H657 H 0.84395 0.32893 0.49658 0.0
H658 H 0.83081 0.25061 0.42003 0.0
H659 H 0.81705 0.27535 0.3037 0.0
Co660 Co 0.68016 0.55776 0.36826 0.0
C661 C 0.68024 0.5612 0.27154 0.0
C662 C 0.65524 0.56705 0.30247 0.0
C663 C 0.6527 0.56786 0.25925 0.0
N664 N 0.67236 0.56269 0.31059 0.0
N665 N 0.66841 0.56423 0.23979 0.0
H666 H 0.69411 0.55791 0.26588 0.0
H667 H 0.64511 0.56942 0.32651 0.0
C668 C 0.70178 0.60834 0.35949 0.0
O669 O 0.70697 0.6052 0.32074 0.0
N670 N 0.68683 0.55224 0.42543 0.0
C671 C 0.69528 0.53844 0.43545 0.0
C672 C 0.69414 0.53544 0.47874 0.0
C673 C 0.68065 0.55751 0.46287 0.0
N674 N 0.68496 0.54738 0.49591 0.0
C675 C 0.71424 0.54996 0.32907 0.0
C676 C 0.75167 0.58566 0.36916 0.0
C677 C 0.75476 0.56964 0.34611 0.0
C678 C 0.73579 0.55174 0.32548 0.0
C679 C 0.72978 0.58295 0.37281 0.0
N680 N 0.71132 0.56549 0.35234 0.0
H681 H 0.69963 0.53528 0.31501 0.0
H682 H 0.72762 0.59394 0.39499 0.0
H683 H 0.70079 0.53014 0.41266 0.0
H684 H 0.67191 0.56726 0.46562 0.0
O685 O 0.66461 0.52507 0.35767 0.0
O686 O 0.64785 0.54356 0.3836 0.0
O687 O 0.69063 0.59095 0.38388 0.0
C688 C 0.64605 0.52414 0.37195 0.0
H689 H 0.64046 0.57123 0.24328 0.0
H690 H 0.69889 0.52461 0.49625 0.0
H691 H 0.76575 0.59924 0.3868 0.0
H692 H 0.73746 0.53878 0.30794 0.0
Co693 Co 0.45344 0.10134 0.86719 0.0
C694 C 0.44905 0.09669 0.96302 0.0
C695 C 0.41746 0.08791 0.93161 0.0
C696 C 0.41393 0.08727 0.97481 0.0
N697 N 0.43953 0.09403 0.92387 0.0
N698 N 0.43375 0.09276 0.99445 0.0
H699 H 0.46676 0.10192 0.96895 0.0
H700 H 0.4048 0.08459 0.90738 0.0
C701 C 0.42515 0.04951 0.86863 0.0
O702 O 0.42844 0.04944 0.90975 0.0
N703 N 0.46686 0.10898 0.81102 0.0
C704 C 0.4889 0.1242 0.80196 0.0
C705 C 0.49144 0.12625 0.75856 0.0
C706 C 0.45619 0.10209 0.77304 0.0
N707 N 0.47089 0.11235 0.74022 0.0
C708 C 0.49647 0.1137 0.90723 0.0
C709 C 0.50135 0.07858 0.87265 0.0
C710 C 0.51979 0.09609 0.89493 0.0
C711 C 0.51709 0.11369 0.91282 0.0
C712 C 0.48123 0.07946 0.86709 0.0
N713 N 0.47874 0.09674 0.88462 0.0
H714 H 0.49514 0.12797 0.91959 0.0
H715 H 0.46853 0.06704 0.84593 0.0
H716 H 0.50208 0.13375 0.82528 0.0
H717 H 0.43801 0.09014 0.76968 0.0
O718 O 0.46669 0.13394 0.87927 0.0
O719 O 0.43248 0.11163 0.85082 0.0
O720 O 0.43398 0.06843 0.84814 0.0
C721 C 0.44789 0.13196 0.86361 0.0
H722 H 0.39802 0.08306 0.99068 0.0
H723 H 0.50709 0.13792 0.74198 0.0
H724 H 0.50299 0.06509 0.85713 0.0
H725 H 0.53104 0.12769 0.92993 0.0
Co726 Co 0.89763 0.35106 0.87229 0.0
C727 C 0.89795 0.34741 0.96842 0.0
C728 C 0.92049 0.3384 0.93643 0.0
C729 C 0.92228 0.33614 0.97942 0.0
N730 N 0.90575 0.34609 0.92929 0.0
N731 N 0.9081 0.34176 0.99947 0.0
H732 H 0.88525 0.35231 0.97462 0.0
H733 H 0.92946 0.33476 0.91183 0.0
C734 C 0.94785 0.38206 0.87878 0.0
O735 O 0.94319 0.38774 0.91595 0.0
N736 N 0.88901 0.35497 0.81561 0.0
C737 C 0.87284 0.36065 0.80726 0.0
C738 C 0.86767 0.35747 0.76481 0.0
C739 C 0.8934 0.34822 0.77795 0.0
N740 N 0.8805 0.34963 0.74648 0.0
C741 C 0.88299 0.38017 0.91311 0.0
C742 C 0.91263 0.41955 0.86878 0.0
C743 C 0.89593 0.41988 0.89474 0.0
C744 C 0.8811 0.3999 0.91748 0.0
C745 C 0.91373 0.3995 0.86492 0.0
N746 N 0.89943 0.38015 0.88764 0.0
H747 H 0.87002 0.36446 0.92756 0.0
H748 H 0.925 0.39919 0.84088 0.0
H749 H 0.86427 0.36538 0.83088 0.0
H750 H 0.9044 0.34089 0.77427 0.0
O751 O 0.86553 0.33002 0.8841 0.0
O752 O 0.88989 0.32004 0.85801 0.0
O753 O 0.93137 0.36743 0.85547 0.0
C754 C 0.86905 0.31389 0.86973 0.0
H755 H 0.93292 0.33045 0.99484 0.0
H756 H 0.85462 0.35961 0.74889 0.0
H757 H 0.92374 0.43417 0.8491 0.0
H758 H 0.86754 0.39921 0.93711 0.0
Co759 Co 0.65914 0.54154 0.86272 0.0
C760 C 0.65546 0.5482 0.95668 0.0
C761 C 0.67772 0.5796 0.92409 0.0
C762 C 0.6794 0.584 0.96717 0.0
N763 N 0.66281 0.55709 0.91726 0.0
N764 N 0.6654 0.56425 0.98756 0.0
H765 H 0.64389 0.53034 0.9634 0.0
H766 H 0.68742 0.59188 0.89946 0.0
C767 C 0.63502 0.56868 0.84999 0.0
O768 O 0.62973 0.56675 0.89056 0.0
N769 N 0.65619 0.52628 0.80896 0.0
C770 C 0.65227 0.50474 0.80453 0.0
C771 C 0.65188 0.49999 0.762 0.0
C772 C 0.65828 0.53448 0.76897 0.0
N773 N 0.65553 0.51861 0.73938 0.0
C774 C 0.62744 0.4995 0.90396 0.0
C775 C 0.58917 0.4913 0.85785 0.0
C776 C 0.58803 0.47373 0.88336 0.0
C777 C 0.60732 0.47828 0.9075 0.0
C778 C 0.60972 0.51228 0.85494 0.0
N779 N 0.62868 0.51627 0.87777 0.0
H780 H 0.64249 0.50188 0.92055 0.0
H781 H 0.61062 0.5243 0.83143 0.0
H782 H 0.65018 0.49334 0.83051 0.0
H783 H 0.66178 0.55165 0.76182 0.0
O784 O 0.6777 0.52926 0.88401 0.0
O785 O 0.6912 0.56235 0.85004 0.0
O786 O 0.64634 0.55969 0.83501 0.0
C787 C 0.69528 0.54742 0.86824 0.0
H788 H 0.69026 0.60039 0.9824 0.0
H789 H 0.64965 0.48412 0.749 0.0
H790 H 0.57487 0.48829 0.83778 0.0
H791 H 0.60721 0.46514 0.92753 0.0
Co792 Co 0.55753 0.88011 0.6914 0.0
C793 C 0.56439 0.88544 0.78695 0.0
C794 C 0.57481 0.91712 0.75428 0.0
C795 C 0.5769 0.92142 0.79729 0.0
N796 N 0.56673 0.89452 0.74747 0.0
N797 N 0.57038 0.90154 0.81771 0.0
H798 H 0.5581 0.86757 0.79365 0.0
H799 H 0.57854 0.92966 0.72954 0.0
C800 C 0.60868 0.90383 0.69097 0.0
O801 O 0.60741 0.89658 0.73019 0.0
N802 N 0.54795 0.86613 0.63603 0.0
C803 C 0.53109 0.84436 0.62926 0.0
C804 C 0.5293 0.84007 0.58641 0.0
C805 C 0.55601 0.87503 0.59711 0.0
N806 N 0.54493 0.85927 0.56623 0.0
C807 C 0.54472 0.83711 0.73256 0.0
C808 C 0.57485 0.82831 0.68781 0.0
C809 C 0.55794 0.81075 0.71274 0.0
C810 C 0.543 0.81553 0.73597 0.0
C811 C 0.57587 0.8495 0.68501 0.0
N812 N 0.56107 0.85393 0.70745 0.0
H813 H 0.53197 0.83979 0.74819 0.0
H814 H 0.58733 0.86145 0.66166 0.0
H815 H 0.52084 0.83238 0.65387 0.0
H816 H 0.5698 0.89239 0.59154 0.0
O817 O 0.52551 0.86805 0.70622 0.0
O818 O 0.54805 0.90193 0.67649 0.0
O819 O 0.5903 0.8985 0.67052 0.0
C820 C 0.52786 0.88705 0.69075 0.0
H821 H 0.58284 0.9379 0.81249 0.0
H822 H 0.51722 0.82409 0.57112 0.0
H823 H 0.58623 0.82521 0.66809 0.0
H824 H 0.52953 0.80244 0.75544 0.0
Co825 Co 0.1176 0.67738 0.69067 0.0
C826 C 0.10817 0.6738 0.78609 0.0
C827 C 0.08041 0.67042 0.7477 0.0
C828 C 0.07335 0.66664 0.78922 0.0
N829 N 0.10248 0.67563 0.74521 0.0
N830 N 0.09062 0.66849 0.81368 0.0
H831 H 0.12396 0.67454 0.79526 0.0
H832 H 0.06955 0.66825 0.72079 0.0
C833 C 0.09643 0.70643 0.67374 0.0
O834 O 0.10466 0.71651 0.71051 0.0
N835 N 0.13146 0.67807 0.63616 0.0
C836 C 0.15307 0.68269 0.62903 0.0
C837 C 0.15616 0.68202 0.58581 0.0
C838 C 0.12162 0.6744 0.59733 0.0
N839 N 0.13641 0.67688 0.56577 0.0
C840 C 0.15788 0.71141 0.73439 0.0
C841 C 0.1702 0.74568 0.67443 0.0
C842 C 0.18576 0.74877 0.70668 0.0
C843 C 0.17923 0.73151 0.73739 0.0
C844 C 0.14923 0.72517 0.67212 0.0
N845 N 0.14313 0.70827 0.70195 0.0
H846 H 0.15409 0.69771 0.75632 0.0
H847 H 0.13875 0.72231 0.64433 0.0
H848 H 0.16572 0.68645 0.65353 0.0
H849 H 0.1041 0.67034 0.59231 0.0
O850 O 0.13057 0.66013 0.71442 0.0
O851 O 0.09666 0.64472 0.68272 0.0
O852 O 0.09948 0.69001 0.66154 0.0
C853 C 0.11224 0.64176 0.70149 0.0
H854 H 0.05637 0.66208 0.8003 0.0
H855 H 0.17176 0.68486 0.57048 0.0
H856 H 0.17487 0.75829 0.64936 0.0
H857 H 0.19094 0.73312 0.76249 0.0
Co858 Co 0.32587 0.4455 0.70746 0.0
C859 C 0.32478 0.43955 0.80138 0.0
C860 C 0.34273 0.42509 0.76899 0.0
C861 C 0.34472 0.42309 0.81212 0.0
N862 N 0.33035 0.43548 0.76229 0.0
N863 N 0.33341 0.43214 0.8323 0.0
H864 H 0.31534 0.4484 0.80719 0.0
H865 H 0.35032 0.41991 0.74416 0.0
C866 C 0.29802 0.40329 0.65513 0.0
O867 O 0.28764 0.41376 0.63953 0.0
N868 N 0.32238 0.45585 0.65154 0.0
C869 C 0.30833 0.46349 0.63782 0.0
C870 C 0.31131 0.4674 0.5947 0.0
C871 C 0.33398 0.45577 0.61651 0.0
N872 N 0.32746 0.46261 0.5817 0.0
C873 C 0.29347 0.45842 0.73539 0.0
C874 C 0.25482 0.41531 0.73502 0.0
C875 C 0.25219 0.43467 0.73829 0.0
C876 C 0.27198 0.4563 0.74106 0.0
C877 C 0.27685 0.41825 0.72977 0.0
N878 N 0.29559 0.43977 0.72579 0.0
H879 H 0.30821 0.47548 0.73511 0.0
H880 H 0.27855 0.40318 0.72759 0.0
H881 H 0.29618 0.46559 0.65663 0.0
H882 H 0.34645 0.45011 0.61616 0.0
O883 O 0.3439 0.47718 0.72514 0.0
O884 O 0.35836 0.45769 0.69453 0.0
O885 O 0.3131 0.41292 0.68449 0.0
C886 C 0.36178 0.47716 0.70984 0.0
H887 H 0.35377 0.4156 0.82755 0.0
H888 H 0.30237 0.47333 0.57442 0.0
H889 H 0.24002 0.39816 0.73452 0.0
H890 H 0.27086 0.47167 0.74563 0.0
Co891 Co 0.55555 0.8962 0.19482 0.0
C892 C 0.55769 0.90317 0.10128 0.0
C893 C 0.59119 0.91903 0.12945 0.0
C894 C 0.59365 0.92049 0.08589 0.0
N895 N 0.56867 0.90816 0.13921 0.0
N896 N 0.57262 0.91056 0.06831 0.0
H897 H 0.53924 0.89324 0.09774 0.0
H898 H 0.60493 0.92434 0.15217 0.0
C899 C 0.59031 0.94124 0.23304 0.0
O900 O 0.60591 0.93505 0.23036 0.0
N901 N 0.54262 0.88374 0.2506 0.0
C902 C 0.52629 0.86182 0.25878 0.0
C903 C 0.52476 0.85815 0.30177 0.0
C904 C 0.55099 0.893 0.28934 0.0
N905 N 0.54036 0.87766 0.32096 0.0
C906 C 0.50761 0.87901 0.181 0.0
C907 C 0.51059 0.92115 0.17044 0.0
C908 C 0.48877 0.90167 0.1762 0.0
C909 C 0.48759 0.88028 0.18027 0.0
C910 C 0.53027 0.91916 0.17298 0.0
N911 N 0.52859 0.8984 0.18063 0.0
H912 H 0.50615 0.86239 0.18338 0.0
H913 H 0.54684 0.93446 0.16946 0.0
H914 H 0.5172 0.8486 0.23535 0.0
H915 H 0.56557 0.90993 0.29438 0.0
O916 O 0.5458 0.86558 0.17458 0.0
O917 O 0.57919 0.88838 0.20562 0.0
O918 O 0.57002 0.928 0.2195 0.0
C919 C 0.56504 0.86837 0.18934 0.0
H920 H 0.60963 0.92784 0.06837 0.0
H921 H 0.51372 0.84202 0.31763 0.0
H922 H 0.51267 0.93794 0.16477 0.0
H923 H 0.4715 0.8645 0.18462 0.0
Co924 Co 0.11179 0.66023 0.19219 0.0
C925 C 0.10733 0.66215 0.09742 0.0
C926 C 0.0783 0.65986 0.12981 0.0
C927 C 0.07546 0.66122 0.08671 0.0
N928 N 0.09786 0.65943 0.13679 0.0
N929 N 0.09373 0.66268 0.06629 0.0
H930 H 0.12418 0.66456 0.09146 0.0
H931 H 0.06718 0.66015 0.15427 0.0
C932 C 0.06185 0.62981 0.21447 0.0
O933 O 0.05892 0.61768 0.17986 0.0
N934 N 0.12644 0.66193 0.24633 0.0
C935 C 0.14497 0.65944 0.25072 0.0
C936 C 0.15188 0.66327 0.29241 0.0
C937 C 0.12221 0.66718 0.28572 0.0
N938 N 0.13765 0.66814 0.31445 0.0
C939 C 0.11659 0.62453 0.14941 0.0
C940 C 0.09708 0.59267 0.21413 0.0
C941 C 0.10567 0.58709 0.17837 0.0
C942 C 0.11531 0.60318 0.14548 0.0
C943 C 0.0983 0.61395 0.21642 0.0
N944 N 0.10766 0.62956 0.18408 0.0
H945 H 0.12576 0.63726 0.1255 0.0
H946 H 0.09248 0.61819 0.24523 0.0
H947 H 0.15311 0.65546 0.22505 0.0
H948 H 0.10873 0.67097 0.29289 0.0
O949 O 0.14198 0.67887 0.16763 0.0
O950 O 0.12095 0.69218 0.19717 0.0
O951 O 0.0814 0.64725 0.22285 0.0
C952 C 0.14011 0.69647 0.17929 0.0
H953 H 0.06146 0.66209 0.07167 0.0
H954 H 0.16643 0.6627 0.30558 0.0
H955 H 0.08988 0.58083 0.24055 0.0
H956 H 0.12283 0.59973 0.11799 0.0
Co957 Co 0.34971 0.45239 0.20981 0.0
C958 C 0.35087 0.44814 0.11424 0.0
C959 C 0.32799 0.41639 0.14531 0.0
C960 C 0.32565 0.41283 0.1021 0.0
N961 N 0.34359 0.4386 0.1532 0.0
N962 N 0.34004 0.43276 0.08275 0.0
H963 H 0.36337 0.46587 0.10836 0.0
H964 H 0.31855 0.40363 0.16939 0.0
C965 C 0.37503 0.42621 0.20728 0.0
O966 O 0.37938 0.43119 0.16675 0.0
N967 N 0.35493 0.46548 0.26624 0.0
C968 C 0.36543 0.48791 0.27693 0.0
C969 C 0.36418 0.48967 0.3203 0.0
C970 C 0.34698 0.4539 0.30308 0.0
N971 N 0.35249 0.46831 0.33649 0.0
C972 C 0.37918 0.49548 0.16959 0.0
C973 C 0.41901 0.5037 0.20995 0.0
C974 C 0.4188 0.52179 0.18838 0.0
C975 C 0.39876 0.5172 0.16671 0.0
C976 C 0.39908 0.4822 0.21202 0.0
N977 N 0.37927 0.47831 0.19259 0.0
H978 H 0.36347 0.49293 0.15547 0.0
H979 H 0.39923 0.46964 0.23297 0.0
H980 H 0.37284 0.50209 0.25482 0.0
H981 H 0.33689 0.43538 0.30528 0.0
O982 O 0.33004 0.46504 0.19786 0.0
O983 O 0.31845 0.43073 0.22574 0.0
O984 O 0.36383 0.43359 0.22845 0.0
C985 C 0.31334 0.44601 0.21321 0.0
H986 H 0.31431 0.39684 0.08604 0.0
H987 H 0.37032 0.50539 0.33835 0.0
H988 H 0.4339 0.50654 0.228 0.0
H989 H 0.39783 0.53059 0.14932 0.0
Co990 Co 0.11243 0.45594 0.71375 0.0
C991 C 0.10596 0.45151 0.62051 0.0
C992 C 0.09046 0.41869 0.65159 0.0
C993 C 0.08856 0.41515 0.60823 0.0
N994 N 0.10143 0.44145 0.65916 0.0
N995 N 0.09825 0.43579 0.58896 0.0
H996 H 0.11551 0.46988 0.61543 0.0
H997 H 0.08497 0.40562 0.6759 0.0
C998 C 0.07124 0.44308 0.76734 0.0
O999 O 0.08236 0.46417 0.78204 0.0
N1000 N 0.12391 0.46994 0.7694 0.0
C1001 C 0.1324 0.49185 0.7829 0.0
C1002 C 0.13693 0.49299 0.82573 0.0
C1003 C 0.12394 0.45829 0.8044 0.0
N1004 N 0.13167 0.47194 0.83894 0.0
C1005 C 0.12527 0.50155 0.68709 0.0
C1006 C 0.08178 0.49597 0.68412 0.0
C1007 C 0.10083 0.51818 0.68118 0.0
C1008 C 0.12273 0.52062 0.6804 0.0
C1009 C 0.08516 0.47726 0.69072 0.0
N1010 N 0.10677 0.48059 0.69627 0.0
H1011 H 0.14241 0.50411 0.68821 0.0
H1012 H 0.07031 0.46028 0.69237 0.0
H1013 H 0.13475 0.50622 0.76425 0.0
H1014 H 0.11775 0.44002 0.80495 0.0
O1015 O 0.14356 0.46892 0.69376 0.0
O1016 O 0.12402 0.43512 0.72528 0.0
O1017 O 0.08032 0.43679 0.73832 0.0
C1018 C 0.14316 0.45063 0.70807 0.0
H1019 H 0.08081 0.39874 0.59206 0.0
H1020 H 0.14359 0.5081 0.84572 0.0
H1021 H 0.06449 0.49316 0.68313 0.0
H1022 H 0.13791 0.53732 0.67619 0.0
Co1023 Co 0.55504 0.65733 0.70436 0.0
C1024 C 0.56377 0.66187 0.60906 0.0
C1025 C 0.59178 0.66481 0.64609 0.0
C1026 C 0.5986 0.66915 0.60452 0.0
N1027 N 0.56974 0.65958 0.64939 0.0
N1028 N 0.58119 0.66762 0.58096 0.0
H1029 H 0.54784 0.66112 0.60082 0.0
H1030 H 0.60282 0.66672 0.67254 0.0
C1031 C 0.57712 0.62851 0.71971 0.0
O1032 O 0.56939 0.61842 0.68277 0.0
N1033 N 0.54153 0.65607 0.75923 0.0
C1034 C 0.51978 0.65068 0.76739 0.0
C1035 C 0.51727 0.65162 0.81071 0.0
C1036 C 0.55204 0.66048 0.79739 0.0
N1037 N 0.53756 0.65775 0.82958 0.0
C1038 C 0.51421 0.6232 0.66067 0.0
C1039 C 0.50465 0.58771 0.71644 0.0
C1040 C 0.48899 0.58402 0.68411 0.0
C1041 C 0.49383 0.60205 0.65601 0.0
C1042 C 0.52435 0.60918 0.72073 0.0
N1043 N 0.52939 0.62653 0.69242 0.0
H1044 H 0.51711 0.63723 0.64019 0.0
H1045 H 0.53488 0.61209 0.74845 0.0
H1046 H 0.50669 0.64635 0.74351 0.0
H1047 H 0.56986 0.6654 0.80143 0.0
O1048 O 0.54248 0.67585 0.68331 0.0
O1049 O 0.57657 0.68947 0.71363 0.0
O1050 O 0.57327 0.64439 0.73196 0.0
C1051 C 0.56129 0.69356 0.69709 0.0
H1052 H 0.61553 0.6739 0.59284 0.0
H1053 H 0.50175 0.64841 0.82692 0.0
H1054 H 0.50106 0.57446 0.73972 0.0
H1055 H 0.48174 0.59997 0.63133 0.0
Co1056 Co 0.34323 0.8932 0.6941 0.0
C1057 C 0.33991 0.8996 0.59923 0.0
C1058 C 0.33652 0.92386 0.63827 0.0
C1059 C 0.33317 0.92757 0.59678 0.0
N1060 N 0.34141 0.90677 0.64023 0.0
N1061 N 0.33503 0.91221 0.5719 0.0
H1062 H 0.34084 0.8847 0.58967 0.0
H1063 H 0.33464 0.9326 0.66551 0.0
C1064 C 0.37522 0.94339 0.70669 0.0
O1065 O 0.38361 0.94343 0.66889 0.0
N1066 N 0.34407 0.87939 0.74747 0.0
C1067 C 0.34679 0.86095 0.75112 0.0
C1068 C 0.34361 0.85409 0.79285 0.0
C1069 C 0.33931 0.88361 0.78715 0.0
N1070 N 0.33889 0.86827 0.81544 0.0
C1071 C 0.37351 0.88189 0.64849 0.0
C1072 C 0.41029 0.90482 0.70315 0.0
C1073 C 0.41141 0.8907 0.6717 0.0
C1074 C 0.3928 0.87931 0.64381 0.0
C1075 C 0.39062 0.90658 0.70722 0.0
N1076 N 0.37257 0.89553 0.67973 0.0
H1077 H 0.35872 0.87153 0.629 0.0
H1078 H 0.38939 0.91551 0.73469 0.0
H1079 H 0.35003 0.85255 0.72488 0.0
H1080 H 0.33511 0.89677 0.79474 0.0
O1081 O 0.32255 0.86278 0.67231 0.0
O1082 O 0.31181 0.885 0.70551 0.0
O1083 O 0.35904 0.92463 0.72213 0.0
C1084 C 0.30602 0.86537 0.68766 0.0
H1085 H 0.3292 0.94044 0.58606 0.0
H1086 H 0.34416 0.83943 0.80556 0.0
H1087 H 0.42388 0.91323 0.72639 0.0
H1088 H 0.39279 0.86786 0.61956 0.0
Co1089 Co 0.12706 0.44759 0.21205 0.0
C1090 C 0.12181 0.44233 0.30802 0.0
C1091 C 0.09097 0.43501 0.27529 0.0
C1092 C 0.08665 0.43328 0.31822 0.0
N1093 N 0.11309 0.44098 0.26857 0.0
N1094 N 0.10599 0.43782 0.33862 0.0
H1095 H 0.13911 0.44642 0.31486 0.0
H1096 H 0.07871 0.43218 0.25054 0.0
C1097 C 0.10278 0.3969 0.21937 0.0
O1098 O 0.1109 0.40047 0.25828 0.0
N1099 N 0.13993 0.45431 0.15542 0.0
C1100 C 0.16225 0.4658 0.144 0.0
C1101 C 0.16361 0.46795 0.10038 0.0
C1102 C 0.12806 0.45013 0.11887 0.0
N1103 N 0.14211 0.4582 0.08486 0.0
C1104 C 0.16916 0.45963 0.2545 0.0
C1105 C 0.17743 0.4284 0.21247 0.0
C1106 C 0.19512 0.44589 0.23626 0.0
C1107 C 0.19054 0.46121 0.25851 0.0
C1108 C 0.15631 0.42747 0.20913 0.0
N1109 N 0.1523 0.44305 0.22982 0.0
H1110 H 0.1667 0.47274 0.26926 0.0
H1111 H 0.1442 0.41563 0.18637 0.0
H1112 H 0.17658 0.47279 0.16577 0.0
H1113 H 0.10955 0.44193 0.11729 0.0
O1114 O 0.14126 0.47996 0.22384 0.0
O1115 O 0.10676 0.45905 0.19537 0.0
O1116 O 0.10727 0.41409 0.19558 0.0
C1117 C 0.12285 0.47897 0.20894 0.0
H1118 H 0.07046 0.4287 0.33335 0.0
H1119 H 0.17914 0.47703 0.08167 0.0
H1120 H 0.18042 0.41663 0.19373 0.0
H1121 H 0.20374 0.47501 0.27727 0.0
Co1122 Co 0.56346 0.67931 0.20236 0.0
C1123 C 0.56581 0.67735 0.29788 0.0
C1124 C 0.59299 0.67517 0.26686 0.0
C1125 C 0.59508 0.67352 0.31006 0.0
N1126 N 0.57518 0.67851 0.25898 0.0
N1127 N 0.57796 0.67483 0.32955 0.0
H1128 H 0.55009 0.67752 0.30324 0.0
H1129 H 0.60346 0.67339 0.24278 0.0
C1130 C 0.61391 0.71105 0.19271 0.0
O1131 O 0.61299 0.72037 0.22889 0.0
N1132 N 0.55101 0.67919 0.14686 0.0
C1133 C 0.53305 0.68246 0.14067 0.0
C1134 C 0.52646 0.67807 0.09892 0.0
C1135 C 0.55519 0.67284 0.10856 0.0
N1136 N 0.54031 0.67202 0.07879 0.0
C1137 C 0.55201 0.71126 0.24166 0.0
C1138 C 0.57736 0.74704 0.18606 0.0
C1139 C 0.56335 0.74949 0.21592 0.0
C1140 C 0.55062 0.73132 0.24416 0.0
C1141 C 0.57793 0.72663 0.18417 0.0
N1142 N 0.56589 0.70917 0.21247 0.0
H1143 H 0.54063 0.69688 0.26116 0.0
H1144 H 0.58698 0.72444 0.15791 0.0
H1145 H 0.52469 0.68681 0.16536 0.0
H1146 H 0.56792 0.66777 0.10315 0.0
O1147 O 0.53243 0.65908 0.22203 0.0
O1148 O 0.55542 0.64774 0.1943 0.0
O1149 O 0.59557 0.6943 0.17722 0.0
C1150 C 0.53534 0.64224 0.20948 0.0
H1151 H 0.6077 0.67067 0.32589 0.0
H1152 H 0.51217 0.67865 0.08455 0.0
H1153 H 0.58668 0.7602 0.16244 0.0
H1154 H 0.53907 0.73228 0.26698 0.0
Co1155 Co 0.32881 0.88363 0.19253 0.0
C1156 C 0.33031 0.88797 0.28849 0.0
C1157 C 0.33609 0.91854 0.25667 0.0
C1158 C 0.3374 0.92241 0.29979 0.0
N1159 N 0.33077 0.89666 0.24923 0.0
N1160 N 0.33379 0.90322 0.31983 0.0
H1161 H 0.32814 0.87123 0.29445 0.0
H1162 H 0.33939 0.93116 0.23234 0.0
C1163 C 0.30172 0.90763 0.18008 0.0
O1164 O 0.29097 0.8987 0.21603 0.0
N1165 N 0.32763 0.87121 0.13641 0.0
C1166 C 0.32272 0.84963 0.12775 0.0
C1167 C 0.32331 0.84722 0.08444 0.0
C1168 C 0.33137 0.88177 0.09831 0.0
N1169 N 0.32863 0.86738 0.06581 0.0
C1170 C 0.29447 0.8416 0.23035 0.0
C1171 C 0.26031 0.83299 0.17228 0.0
C1172 C 0.25723 0.81554 0.20032 0.0
C1173 C 0.27435 0.82026 0.23035 0.0
C1174 C 0.28077 0.85405 0.1731 0.0
N1175 N 0.29766 0.85828 0.20194 0.0
H1176 H 0.30821 0.84374 0.25063 0.0
H1177 H 0.28371 0.86604 0.14783 0.0
H1178 H 0.31896 0.83653 0.15136 0.0
H1179 H 0.33578 0.89948 0.09451 0.0
O1180 O 0.34535 0.86898 0.21207 0.0
O1181 O 0.36148 0.90419 0.18527 0.0
O1182 O 0.31742 0.90369 0.16712 0.0
C1183 C 0.36384 0.88734 0.19965 0.0
H1184 H 0.34145 0.93839 0.31527 0.0
H1185 H 0.32037 0.83183 0.06807 0.0
H1186 H 0.24779 0.82982 0.14774 0.0
H1187 H 0.27275 0.80714 0.25231 0.0
H1188 H 0.37498 0.29431 0.93895 0.0
H1189 H 0.35455 0.248 0.83167 0.0
H1190 H 0.31561 0.22695 0.85865 0.0
H1191 H 0.28708 0.22129 0.91196 0.0
H1192 H 0.30587 0.26737 0.019 0.0
H1193 H 0.3455 0.28882 0.99284 0.0
C1194 C 0.36199 0.27961 0.92156 0.0
C1195 C 0.36785 0.27283 0.88328 0.0
C1196 C 0.33925 0.26747 0.93716 0.0
C1197 C 0.3507 0.25376 0.86111 0.0
C1198 C 0.32832 0.2416 0.87653 0.0
C1199 C 0.29981 0.23597 0.92979 0.0
C1200 C 0.29349 0.24258 0.96755 0.0
C1201 C 0.3224 0.24826 0.91444 0.0
C1202 C 0.31024 0.26186 0.98982 0.0
C1203 C 0.33293 0.27413 0.97489 0.0
H1204 H 0.71183 0.08758 0.9495 0.0
H1205 H 0.73741 0.08839 0.82298 0.0
H1206 H 0.75832 0.0703 0.84895 0.0
H1207 H 0.77135 0.05624 0.90717 0.0
H1208 H 0.74669 0.05434 0.03444 0.0
H1209 H 0.72325 0.07049 1.00862 0.0
C1210 C 0.72181 0.08358 0.92766 0.0
C1211 C 0.72319 0.08967 0.88435 0.0
C1212 C 0.73405 0.07303 0.9429 0.0
C1213 C 0.73617 0.08425 0.8565 0.0
C1214 C 0.74818 0.07383 0.87127 0.0
C1215 C 0.76079 0.05927 0.92937 0.0
C1216 C 0.76097 0.05437 0.9727 0.0
C1217 C 0.74757 0.06852 0.91438 0.0
C1218 C 0.74685 0.05799 1.00087 0.0
C1219 C 0.73355 0.06733 0.98611 0.0
H1220 H 0.90374 0.62478 1.00105 0.0
H1221 H 0.93506 0.6475 0.87787 0.0
H1222 H 0.9584 0.68688 0.9053 0.0
H1223 H 0.96807 0.71525 0.96419 0.0
H1224 H 0.93689 0.69054 0.08742 0.0
H1225 H 0.91554 0.6517 0.06009 0.0
C1226 C 0.91574 0.63833 0.98016 0.0
C1227 C 0.91746 0.63334 0.93739 0.0
C1228 C 0.92913 0.66066 0.99622 0.0
C1229 C 0.93341 0.65096 0.91094 0.0
C1230 C 0.94667 0.67347 0.92662 0.0
C1231 C 0.95679 0.70132 0.98512 0.0
C1232 C 0.95401 0.70605 0.02781 0.0
C1233 C 0.94444 0.67862 0.96918 0.0
C1234 C 0.93937 0.68766 0.05444 0.0
C1235 C 0.92704 0.66532 0.03884 0.0
H1236 H 0.26155 0.29813 0.61365 0.0
H1237 H 0.24825 0.32051 0.49363 0.0
H1238 H 0.26547 0.35947 0.51984 0.0
H1239 H 0.28256 0.3872 0.57699 0.0
H1240 H 0.2976 0.36702 0.69712 0.0
H1241 H 0.28181 0.32747 0.67066 0.0
C1242 C 0.26257 0.31158 0.59323 0.0
C1243 C 0.25331 0.30613 0.55175 0.0
C1244 C 0.2728 0.33443 0.60848 0.0
C1245 C 0.25499 0.32391 0.52571 0.0
C1246 C 0.26488 0.34635 0.54064 0.0
C1247 C 0.28249 0.37418 0.59742 0.0
C1248 C 0.29099 0.37995 0.63906 0.0
C1249 C 0.27353 0.35174 0.58201 0.0
C1250 C 0.29116 0.36299 0.66487 0.0
C1251 C 0.28201 0.34037 0.64979 0.0
H1252 H 0.64959 0.91142 0.72111 0.0
H1253 H 0.61854 0.92288 0.611 0.0
H1254 H 0.65552 0.94077 0.57398 0.0
H1255 H 0.69675 0.9518 0.57198 0.0
H1256 H 0.72631 0.9383 0.68209 0.0
H1257 H 0.69003 0.92277 0.7198 0.0
C1258 C 0.65086 0.91794 0.68911 0.0
C1259 C 0.63125 0.91577 0.66897 0.0
C1260 C 0.67202 0.92784 0.66781 0.0
C1261 C 0.63333 0.92429 0.62735 0.0
C1262 C 0.65449 0.93452 0.6061 0.0
C1263 C 0.6952 0.94561 0.60431 0.0
C1264 C 0.71418 0.94608 0.62405 0.0
C1265 C 0.67397 0.93621 0.62586 0.0
C1266 C 0.71192 0.93789 0.66591 0.0
C1267 C 0.69117 0.92903 0.68764 0.0
H1268 H 0.07941 0.73418 0.69417 0.0
H1269 H 0.08923 0.69926 0.58808 0.0
H1270 H 0.0736 0.71636 0.53967 0.0
H1271 H 0.05789 0.74211 0.52721 0.0
H1272 H 0.04697 0.7757 0.63436 0.0
H1273 H 0.0623 0.75834 0.68234 0.0
C1274 C 0.07807 0.73024 0.66047 0.0
C1275 C 0.08555 0.71553 0.64481 0.0
C1276 C 0.06894 0.74001 0.63287 0.0
C1277 C 0.0835 0.71045 0.60107 0.0
C1278 C 0.07466 0.72032 0.57329 0.0
C1279 C 0.05891 0.74562 0.56104 0.0
C1280 C 0.05139 0.76026 0.57706 0.0
C1281 C 0.06747 0.73527 0.58877 0.0
C1282 C 0.05258 0.76445 0.6211 0.0
C1283 C 0.06138 0.75456 0.64865 0.0
H1284 H 0.69925 0.74874 0.06691 0.0
H1285 H 0.73025 0.79617 0.17134 0.0
H1286 H 0.69498 0.77601 0.21202 0.0
H1287 H 0.65499 0.74632 0.21746 0.0
H1288 H 0.62234 0.69886 0.11384 0.0
H1289 H 0.65842 0.71745 0.07368 0.0
C1290 C 0.69825 0.75446 0.09869 0.0
C1291 C 0.71732 0.77409 0.11582 0.0
C1292 C 0.67756 0.74287 0.12209 0.0
C1293 C 0.71577 0.78134 0.15704 0.0
C1294 C 0.69559 0.76978 0.1805 0.0
C1295 C 0.65568 0.73989 0.18616 0.0
C1296 C 0.6359 0.72125 0.16874 0.0
C1297 C 0.67631 0.75077 0.16318 0.0
C1298 C 0.63729 0.71321 0.12811 0.0
C1299 C 0.65793 0.72387 0.10507 0.0
H1300 H 0.27534 0.92625 0.20165 0.0
H1301 H 0.31064 0.91714 0.09542 0.0
H1302 H 0.29599 0.93557 0.04822 0.0
H1303 H 0.27205 0.9533 0.03646 0.0
H1304 H 0.23789 0.96347 0.1435 0.0
H1305 H 0.25318 0.94573 0.19068 0.0
C1306 C 0.27991 0.92838 0.16821 0.0
C1307 C 0.294 0.92022 0.15218 0.0
C1308 C 0.27155 0.93917 0.1412 0.0
C1309 C 0.29989 0.92331 0.10877 0.0
C1310 C 0.29144 0.93379 0.08163 0.0
C1311 C 0.26801 0.95167 0.07011 0.0
C1312 C 0.25375 0.95963 0.08623 0.0
C1313 C 0.27708 0.94162 0.09739 0.0
C1314 C 0.24886 0.95757 0.13008 0.0
C1315 C 0.25755 0.94735 0.1572 0.0
H1316 H 0.06814 0.29383 0.1697 0.0
H1317 H 0.05122 0.315 0.05248 0.0
H1318 H 0.06525 0.35361 0.08169 0.0
H1319 H 0.08337 0.38165 0.14052 0.0
H1320 H 0.09823 0.35886 0.25843 0.0
H1321 H 0.08385 0.3207 0.22905 0.0
C1322 C 0.0676 0.30692 0.15046 0.0
C1323 C 0.05895 0.30169 0.10885 0.0
C1324 C 0.07526 0.32882 0.16768 0.0
C1325 C 0.05789 0.31867 0.08461 0.0
C1326 C 0.06592 0.34073 0.10129 0.0
C1327 C 0.08329 0.36828 0.15984 0.0
C1328 C 0.09204 0.37329 0.2016 0.0
C1329 C 0.07476 0.34606 0.14281 0.0
C1330 C 0.09168 0.35566 0.22622 0.0
C1331 C 0.08351 0.33375 0.20942 0.0
H1332 H 0.70415 0.62329 0.44232 0.0
H1333 H 0.72353 0.64749 0.31335 0.0
H1334 H 0.7453 0.68679 0.3385 0.0
H1335 H 0.76099 0.71428 0.39653 0.0
H1336 H 0.74164 0.69187 0.52594 0.0
H1337 H 0.71765 0.65204 0.50127 0.0
C1338 C 0.71288 0.6372 0.41974 0.0
C1339 C 0.71234 0.63226 0.37594 0.0
C1340 C 0.72557 0.66012 0.43448 0.0
C1341 C 0.72376 0.65059 0.34721 0.0
C1342 C 0.73629 0.67318 0.36153 0.0
C1343 C 0.7515 0.7007 0.41944 0.0
C1344 C 0.75337 0.70595 0.46303 0.0
C1345 C 0.7377 0.67809 0.40503 0.0
C1346 C 0.74057 0.68824 0.49219 0.0
C1347 C 0.7269 0.66547 0.47806 0.0
H1348 H 0.29982 0.04077 0.472 0.0
H1349 H 0.32495 0.07095 0.59572 0.0
H1350 H 0.36375 0.09207 0.5683 0.0
H1351 H 0.39068 0.10374 0.50916 0.0
H1352 H 0.36737 0.0733 0.38548 0.0
H1353 H 0.32801 0.05052 0.41286 0.0
C1354 C 0.31382 0.0518 0.49299 0.0
C1355 C 0.30921 0.05432 0.5359 0.0
C1356 C 0.33652 0.06401 0.477 0.0
C1357 C 0.32771 0.06866 0.56257 0.0
C1358 C 0.35005 0.08086 0.54693 0.0
C1359 C 0.37701 0.09209 0.48813 0.0
C1360 C 0.3819 0.09044 0.44524 0.0
C1361 C 0.35462 0.07895 0.50416 0.0
C1362 C 0.36405 0.07492 0.41865 0.0
C1363 C 0.34153 0.06195 0.4343 0.0
H1364 H 0.89056 0.25433 0.42968 0.0
H1365 H 0.95413 0.31697 0.40667 0.0
H1366 H 0.97507 0.30232 0.44773 0.0
H1367 H 0.97509 0.27127 0.48987 0.0
H1368 H 0.91076 0.21055 0.51914 0.0
H1369 H 0.89019 0.22473 0.47621 0.0
C1370 C 0.909 0.26467 0.43376 0.0
C1371 C 0.92096 0.28647 0.41501 0.0
C1372 C 0.92069 0.25647 0.45858 0.0
C1373 C 0.94473 0.30006 0.42089 0.0
C1374 C 0.95664 0.29169 0.44425 0.0
C1375 C 0.95657 0.26127 0.48681 0.0
C1376 C 0.94438 0.23993 0.50731 0.0
C1377 C 0.94481 0.26988 0.46318 0.0
C1378 C 0.9204 0.22712 0.50372 0.0
C1379 C 0.90867 0.23516 0.47909 0.0
H1380 H 0.99269 0.60223 0.36881 0.0
H1381 H 0.94367 0.57383 0.26635 0.0
H1382 H 0.97479 0.58754 0.21468 0.0
H1383 H 0.01605 0.60653 0.19838 0.0
H1384 H 0.06518 0.63689 0.30008 0.0
H1385 H 0.03406 0.62358 0.352 0.0
C1386 C 0.98885 0.59918 0.33516 0.0
C1387 C 0.96588 0.58695 0.32159 0.0
C1388 C 0.00688 0.60739 0.30537 0.0
C1389 C 0.96118 0.58329 0.27778 0.0
C1390 C 0.97898 0.59103 0.24812 0.0
C1391 C 0.0199 0.61025 0.23191 0.0
C1392 C 0.04286 0.62255 0.24538 0.0
C1393 C 1.0019 0.60291 0.26154 0.0
C1394 C 0.04763 0.62752 0.28887 0.0
C1395 C 0.02983 0.61985 0.31861 0.0
H1396 H 0.37877 0.4226 0.29263 0.0
H1397 H 0.39353 0.40185 0.17224 0.0
H1398 H 0.41059 0.38211 0.20924 0.0
H1399 H 0.4223 0.37165 0.2758 0.0
H1400 H 0.409 0.39399 0.39582 0.0
H1401 H 0.39031 0.4121 0.3589 0.0
C1402 C 0.38558 0.41364 0.27442 0.0
C1403 C 0.38482 0.41369 0.22967 0.0
C1404 C 0.39567 0.40263 0.29585 0.0
C1405 C 0.39393 0.40216 0.20667 0.0
C1406 C 0.40368 0.39083 0.22782 0.0
C1407 C 0.41514 0.38031 0.2939 0.0
C1408 C 0.41699 0.38141 0.33855 0.0
C1409 C 0.40476 0.39107 0.2724 0.0
C1410 C 0.40786 0.39294 0.36146 0.0
C1411 C 0.39716 0.4033 0.34037 0.0
H1412 H 0.63176 0.98029 0.24447 0.0
H1413 H 0.55968 0.94982 0.2734 0.0
H1414 H 0.56712 0.98404 0.31307 0.0
H1415 H 0.59405 0.02272 0.33994 0.0
H1416 H 0.66573 0.05446 0.3072 0.0
H1417 H 0.65855 0.01985 0.26879 0.0
C1418 C 0.61772 0.98118 0.25948 0.0
C1419 C 0.59523 0.9625 0.25602 0.0
C1420 C 0.62204 1.00119 0.28164 0.0
C1421 C 0.57716 0.964 0.27532 0.0
C1422 C 0.58139 0.98355 0.29818 0.0
C1423 C 0.60809 0.02202 0.32448 0.0
C1424 C 0.6304 0.04107 0.32669 0.0
C1425 C 0.60375 1.00224 0.30162 0.0
C1426 C 0.64838 0.04003 0.30595 0.0
C1427 C 0.64429 0.02022 0.28403 0.0
H1428 H 0.37196 0.94875 0.79226 0.0
H1429 H 0.40063 0.98685 0.67634 0.0
H1430 H 0.41773 0.02284 0.71591 0.0
H1431 H 0.42539 0.04357 0.78324 0.0
H1432 H 0.39842 0.00598 0.90016 0.0
H1433 H 0.37983 0.9698 0.86043 0.0
C1434 C 0.38184 0.96495 0.77568 0.0
C1435 C 0.38498 0.96507 0.73135 0.0
C1436 C 0.392 0.9857 0.79881 0.0
C1437 C 0.39802 0.98621 0.71042 0.0
C1438 C 0.40779 0.00684 0.73302 0.0
C1439 C 0.41532 0.0275 0.80013 0.0
C1440 C 0.41326 0.02754 0.84468 0.0
C1441 C 0.40501 0.00679 0.7772 0.0
C1442 C 0.40033 0.00648 0.86592 0.0
C1443 C 0.38968 0.98577 0.8432 0.0
H1444 H 0.96599 0.37422 0.80613 0.0
H1445 H 0.98419 0.4177 0.91735 0.0
H1446 H 0.02361 0.43941 0.89326 0.0
H1447 H 0.05286 0.44718 0.84039 0.0
H1448 H 0.03646 0.40432 0.72907 0.0
H1449 H 0.99659 0.38115 0.75363 0.0
C1450 C 0.97862 0.3884 0.82507 0.0
C1451 C 0.97195 0.39432 0.86343 0.0
C1452 C 1.00163 0.40095 0.8111 0.0
C1453 C 0.98864 0.41268 0.8877 0.0
C1454 C 0.01129 0.4252 0.87397 0.0
C1455 C 0.04061 0.43274 0.82141 0.0
C1456 C 0.04757 0.42761 0.78279 0.0
C1457 C 0.01793 0.41963 0.83567 0.0
C1458 C 0.03154 0.40862 0.75898 0.0
C1459 C 0.00872 0.39545 0.77294 0.0
H1460 H 0.59573 0.60177 0.7008 0.0
H1461 H 0.58401 0.63642 0.80507 0.0
H1462 H 0.60094 0.62119 0.85452 0.0
H1463 H 0.61826 0.59715 0.86869 0.0
H1464 H 0.63098 0.5635 0.76389 0.0
H1465 H 0.6146 0.57922 0.71444 0.0
C1466 C 0.59694 0.60604 0.73432 0.0
C1467 C 0.58854 0.62016 0.74912 0.0
C1468 C 0.60687 0.59736 0.76265 0.0
C1469 C 0.59042 0.62567 0.79266 0.0
C1470 C 0.60003 0.61689 0.82108 0.0
C1471 C 0.61747 0.5933 0.83503 0.0
C1472 C 0.6258 0.57911 0.82016 0.0
C1473 C 0.60818 0.60258 0.80651 0.0
C1474 C 0.62482 0.57446 0.77632 0.0
C1475 C 0.61537 0.58338 0.74792 0.0
H1476 H 0.2195 0.21275 0.35646 0.0
H1477 H 0.26707 0.28515 0.37002 0.0
H1478 H 0.27039 0.28958 0.29284 0.0
H1479 H 0.26162 0.27277 0.22195 0.0
H1480 H 0.21588 0.2 0.20627 0.0
H1481 H 0.20963 0.19582 0.28333 0.0
C1482 C 0.23025 0.22947 0.34226 0.0
C1483 C 0.24304 0.24864 0.36881 0.0
C1484 C 0.23253 0.23179 0.29749 0.0
C1485 C 0.25717 0.27021 0.35017 0.0
C1486 C 0.25909 0.27272 0.30607 0.0
C1487 C 0.25041 0.2559 0.23515 0.0
C1488 C 0.23953 0.23669 0.20797 0.0
C1489 C 0.24723 0.25359 0.27945 0.0
C1490 C 0.22449 0.21514 0.22611 0.0
C1491 C 0.22099 0.21272 0.27033 0.0
H1492 H 0.74602 0.96649 0.34895 0.0
H1493 H 0.79148 0.0347 0.39585 0.0
H1494 H 0.79999 0.04939 0.3228 0.0
H1495 H 0.79312 0.04297 0.24537 0.0
H1496 H 0.74999 0.97435 0.19811 0.0
H1497 H 0.74196 0.95951 0.27115 0.0
C1498 C 0.75786 0.98453 0.34299 0.0
C1499 C 0.76799 0.99957 0.37767 0.0
C1500 C 0.763 0.99271 0.30084 0.0
C1501 C 0.78357 0.02285 0.36966 0.0
C1502 C 0.78833 0.03123 0.32792 0.0
C1503 C 0.78206 0.02477 0.25123 0.0
C1504 C 0.77195 0.00976 0.21652 0.0
C1505 C 0.77796 0.01637 0.29326 0.0
C1506 C 0.75795 0.98616 0.22434 0.0
C1507 C 0.75331 0.97773 0.26608 0.0
H1508 H 0.03398 0.79577 0.2207 0.0
H1509 H 0.96073 0.75336 0.2091 0.0
H1510 H 0.95693 0.75041 0.28685 0.0
H1511 H 0.97499 0.75827 0.3581 0.0
H1512 H 0.04795 0.80292 0.36966 0.0
H1513 H 0.05157 0.80685 0.29203 0.0
C1514 C 0.01722 0.78608 0.23542 0.0
C1515 C 0.99765 0.77463 0.20952 0.0
C1516 C 0.01523 0.78483 0.27997 0.0
C1517 C 0.97595 0.76235 0.2286 0.0
C1518 C 0.97383 0.76058 0.27294 0.0
C1519 C 0.9916 0.76893 0.3434 0.0
C1520 C 0.01125 0.78011 0.3692 0.0
C1521 C 0.9934 0.77145 0.29892 0.0
C1522 C 0.03268 0.79421 0.3502 0.0
C1523 C 0.03472 0.79636 0.30594 0.0
H1524 H 0.77923 0.79163 0.71163 0.0
H1525 H 0.74898 0.71802 0.7142 0.0
H1526 H 0.74707 0.71815 0.79149 0.0
H1527 H 0.75174 0.73848 0.85832 0.0
H1528 H 0.78148 0.81198 0.85863 0.0
H1529 H 0.78618 0.8127 0.78101 0.0
C1530 C 0.77259 0.77573 0.72927 0.0
C1531 C 0.76405 0.75478 0.70689 0.0
C1532 C 0.77128 0.77588 0.77439 0.0
C1533 C 0.75536 0.73431 0.73039 0.0
C1534 C 0.75427 0.73436 0.77471 0.0
C1535 C 0.75918 0.7547 0.84154 0.0
C1536 C 0.76592 0.77511 0.86453 0.0
C1537 C 0.76171 0.75493 0.79702 0.0
C1538 C 0.77613 0.796 0.84198 0.0
C1539 C 0.77872 0.79638 0.79746 0.0
H1540 H 0.25414 0.03542 0.86721 0.0
H1541 H 0.21209 0.96216 0.88092 0.0
H1542 H 0.20933 0.95766 0.80329 0.0
H1543 H 0.22066 0.97469 0.73144 0.0
H1544 H 0.26051 0.04814 0.71783 0.0
H1545 H 0.26234 0.05268 0.7954 0.0
C1546 C 0.24429 0.01853 0.85301 0.0
C1547 C 0.23351 0.99909 0.87947 0.0
C1548 C 0.24247 0.0162 0.8085 0.0
C1549 C 0.22046 0.97729 0.86101 0.0
C1550 C 0.219 0.97475 0.81673 0.0
C1551 C 0.2296 0.99165 0.74565 0.0
C1552 C 0.24063 0.01108 0.71921 0.0
C1553 C 0.23018 0.99406 0.79016 0.0
C1554 C 0.25188 0.03301 0.7377 0.0
C1555 C 0.253 0.03557 0.78196 0.0
H1556 H 0.02515 0.27113 0.71535 0.0
H1557 H 0.97923 0.19794 0.71527 0.0
H1558 H 0.98264 0.1972 0.79296 0.0
H1559 H 0.9965 0.21829 0.86215 0.0
H1560 H 0.04139 0.29168 0.85963 0.0
H1561 H 0.04048 0.29145 0.78218 0.0
C1562 C 0.01578 0.25497 0.73219 0.0
C1563 C 1.00166 0.23467 0.70931 0.0
C1564 C 0.0176 0.25477 0.77672 0.0
C1565 C 0.99023 0.21383 0.73189 0.0
C1566 C 0.99209 0.21345 0.77642 0.0
C1567 C 0.00633 0.2341 0.84447 0.0
C1568 C 0.01887 0.25504 0.86674 0.0
C1569 C 0.00543 0.2339 0.79939 0.0
C1570 C 0.0314 0.27543 0.84336 0.0
C1571 C 0.0309 0.27531 0.79901 0.0
H1572 H 0.88121 0.55546 0.54943 0.0
H1573 H 0.9546 0.59423 0.53494 0.0
H1574 H 0.95942 0.59781 0.61211 0.0
H1575 H 0.94291 0.59196 0.68324 0.0
H1576 H 0.86941 0.55531 0.69927 0.0
H1577 H 0.86446 0.54854 0.62256 0.0
C1578 C 0.89819 0.56429 0.56344 0.0
C1579 C 0.91758 0.57448 0.53665 0.0
C1580 C 0.9008 0.56684 0.60814 0.0
C1581 C 0.93951 0.58625 0.55502 0.0
C1582 C 0.94224 0.58836 0.5991 0.0
C1583 C 0.92575 0.58262 0.67021 0.0
C1584 C 0.9066 0.57442 0.6975 0.0
C1585 C 0.92302 0.57914 0.62595 0.0
C1586 C 0.88455 0.5618 0.67948 0.0
C1587 C 0.88168 0.558 0.63539 0.0
H1588 H 0.40067 0.30722 0.54843 0.0
H1589 H 0.47244 0.35765 0.5356 0.0
H1590 H 0.47729 0.35718 0.61264 0.0
H1591 H 0.46026 0.34438 0.68498 0.0
H1592 H 0.38804 0.29611 0.69632 0.0
H1593 H 0.38413 0.29382 0.61883 0.0
C1594 C 0.41739 0.31828 0.56223 0.0
C1595 C 0.43608 0.33266 0.53581 0.0
C1596 C 0.41994 0.31827 0.60661 0.0
C1597 C 0.45772 0.34632 0.55478 0.0
C1598 C 0.46049 0.34616 0.59902 0.0
C1599 C 0.44384 0.3331 0.67018 0.0
C1600 C 0.42444 0.32023 0.69603 0.0
C1601 C 0.44164 0.33243 0.6254 0.0
C1602 C 0.40313 0.30599 0.67682 0.0
C1603 C 0.40091 0.30479 0.63262 0.0
H1604 H 0.68982 0.12956 0.68573 0.0
H1605 H 0.63442 0.05997 0.70324 0.0
H1606 H 0.62908 0.055 0.62701 0.0
H1607 H 0.64143 0.06916 0.5547 0.0
H1608 H 0.69484 0.13896 0.53444 0.0
H1609 H 0.69946 0.14529 0.61181 0.0
C1610 C 0.67638 0.11346 0.67285 0.0
C1611 C 0.66302 0.09497 0.70056 0.0
C1612 C 0.67308 0.1107 0.62827 0.0
C1613 C 0.64555 0.07428 0.68303 0.0
C1614 C 0.64232 0.07141 0.63923 0.0
C1615 C 0.65396 0.08579 0.56736 0.0
C1616 C 0.66792 0.10348 0.53914 0.0
C1617 C 0.65628 0.08926 0.61154 0.0
C1618 C 0.68388 0.1251 0.55569 0.0
C1619 C 0.68657 0.12865 0.59989 0.0
H1620 H 0.42438 0.11707 0.05055 0.0
H1621 H 0.4507 0.07075 0.03983 0.0
H1622 H 0.45224 0.06877 0.11769 0.0
H1623 H 0.44355 0.07842 0.18899 0.0
H1624 H 0.42025 0.12718 0.19972 0.0
H1625 H 0.42016 0.13033 0.12189 0.0
C1626 C 0.4307 0.1068 0.06548 0.0
C1627 C 0.43729 0.09393 0.03978 0.0
C1628 C 0.43195 0.10618 0.11016 0.0
C1629 C 0.44565 0.08082 0.05916 0.0
C1630 C 0.4464 0.07962 0.10357 0.0
C1631 C 0.43874 0.08991 0.17406 0.0
C1632 C 0.43175 0.10246 0.19974 0.0
C1633 C 0.43923 0.09194 0.12941 0.0
C1634 C 0.42574 0.11747 0.1804 0.0
C1635 C 0.42559 0.11915 0.136 0.0
H1636 H 0.94143 0.35939 0.05723 0.0
H1637 H 0.86809 0.32388 0.04337 0.0
H1638 H 0.86347 0.31961 0.1211 0.0
H1639 H 0.88087 0.32331 0.19296 0.0
H1640 H 0.95466 0.36057 0.20423 0.0
H1641 H 0.95855 0.36685 0.12803 0.0
C1642 C 0.92446 0.35091 0.07139 0.0
C1643 C 0.90515 0.34175 0.04487 0.0
C1644 C 0.92205 0.34866 0.11572 0.0
C1645 C 0.8832 0.33109 0.06335 0.0
C1646 C 0.8806 0.32856 0.10771 0.0
C1647 C 0.89774 0.33309 0.17873 0.0
C1648 C 0.91744 0.34086 0.2044 0.0
C1649 C 0.89995 0.33688 0.13429 0.0
C1650 C 0.9392 0.35368 0.18534 0.0
C1651 C 0.94149 0.35744 0.14164 0.0
H1652 H 0.69853 0.58119 0.04741 0.0
H1653 H 0.62553 0.53963 0.02974 0.0
H1654 H 0.61989 0.53545 0.10698 0.0
H1655 H 0.63574 0.54488 0.17979 0.0
H1656 H 0.70887 0.58422 0.19774 0.0
H1657 H 0.71463 0.58789 0.1204 0.0
C1658 C 0.68143 0.57121 0.06063 0.0
C1659 C 0.66241 0.56092 0.03301 0.0
C1660 C 0.67842 0.56848 0.10509 0.0
C1661 C 0.64036 0.54767 0.05039 0.0
C1662 C 0.63717 0.54535 0.09451 0.0
C1663 C 0.65292 0.55413 0.16664 0.0
C1664 C 0.67187 0.56441 0.19438 0.0
C1665 C 0.65604 0.55584 0.12219 0.0
C1666 C 0.69407 0.57608 0.17702 0.0
C1667 C 0.69732 0.57829 0.13284 0.0
H1668 H 0.55061 0.9153 0.87588 0.0
H1669 H 0.59018 0.88162 0.86112 0.0
H1670 H 0.59407 0.88084 0.93868 0.0
H1671 H 0.58814 0.89213 1.01064 0.0
H1672 H 0.54598 0.92299 0.02569 0.0
H1673 H 0.54088 0.92245 0.94826 0.0
C1674 C 0.55984 0.90759 0.88989 0.0
C1675 C 0.57026 0.89866 0.86311 0.0
C1676 C 0.56156 0.90683 0.93443 0.0
C1677 C 0.58199 0.88848 0.8813 0.0
C1678 C 0.5843 0.88817 0.92553 0.0
C1679 C 0.57766 0.89848 0.99676 0.0
C1680 C 0.56758 0.90778 0.02348 0.0
C1681 C 0.57446 0.89763 0.95239 0.0
C1682 C 0.55381 0.91575 1.00554 0.0
C1683 C 0.55101 0.91552 0.96137 0.0
H1684 H 0.06232 0.64201 1.00487 0.0
H1685 H 0.13437 0.68837 0.02502 0.0
H1686 H 0.14049 0.69369 0.94782 0.0
H1687 H 0.12456 0.68649 0.87381 0.0
H1688 H 0.05243 0.63841 0.85629 0.0
H1689 H 0.04724 0.63255 0.93244 0.0
C1690 C 0.07937 0.6533 0.99236 0.0
C1691 C 0.09778 0.66494 0.02077 0.0
C1692 C 0.08275 0.65607 0.94806 0.0
C1693 C 0.11987 0.67915 1.00393 0.0
C1694 C 0.12335 0.68225 0.95972 0.0
C1695 C 0.10781 0.67454 0.88668 0.0
C1696 C 0.08883 0.66338 0.85891 0.0
C1697 C 0.10484 0.67097 0.9313 0.0
C1698 C 0.06726 0.64784 0.87649 0.0
C1699 C 0.06423 0.64432 0.92028 0.0
H1700 H 0.36728 0.44739 0.88975 0.0
H1701 H 0.29451 0.41938 0.87607 0.0
H1702 H 0.28994 0.41737 0.9537 0.0
H1703 H 0.30668 0.42162 0.02548 0.0
H1704 H 0.37978 0.45236 0.03925 0.0
H1705 H 0.38449 0.45551 0.96165 0.0
C1706 C 0.35051 0.44105 0.904 0.0
C1707 C 0.33119 0.43333 0.87759 0.0
C1708 C 0.34817 0.4404 0.9485 0.0
C1709 C 0.30954 0.42543 0.89602 0.0
C1710 C 0.30696 0.42419 0.94027 0.0
C1711 C 0.3236 0.42915 1.01125 0.0
C1712 C 0.34288 0.43656 0.03763 0.0
C1713 C 0.32612 0.43131 0.96681 0.0
C1714 C 0.36479 0.4466 0.0193 0.0
C1715 C 0.36743 0.44829 0.97507 0.0
H1716 H 0.11371 0.41764 0.53068 0.0
H1717 H 0.08722 0.46358 0.54682 0.0
H1718 H 0.08776 0.46888 0.46955 0.0
H1719 H 0.0941 0.4588 0.39718 0.0
H1720 H 0.12337 0.41527 0.38103 0.0
H1721 H 0.12374 0.41068 0.45847 0.0
C1722 C 0.10819 0.42886 0.51703 0.0
C1723 C 0.10018 0.44003 0.54396 0.0
C1724 C 0.1091 0.4322 0.47278 0.0
C1725 C 0.09341 0.45486 0.52641 0.0
C1726 C 0.09366 0.4578 0.48237 0.0
C1727 C 0.10073 0.44851 0.41089 0.0
C1728 C 0.10855 0.43723 0.38386 0.0
C1729 C 0.10123 0.44635 0.45524 0.0
C1730 C 0.11738 0.42413 0.40152 0.0
C1731 C 0.11745 0.42143 0.44564 0.0
H1732 H 0.54702 0.65049 0.52132 0.0
H1733 H 0.61916 0.69855 0.53899 0.0
H1734 H 0.62422 0.70516 0.46304 0.0
H1735 H 0.60914 0.6958 0.39063 0.0
H1736 H 0.53711 0.64987 0.37021 0.0
H1737 H 0.53092 0.64417 0.44747 0.0
C1738 C 0.56373 0.66263 0.50853 0.0
C1739 C 0.58278 0.67345 0.53616 0.0
C1740 C 0.56661 0.66669 0.46406 0.0
C1741 C 0.6043 0.6893 0.51878 0.0
C1742 C 0.60725 0.69327 0.47514 0.0
C1743 C 0.59208 0.68466 0.4032 0.0
C1744 C 0.57368 0.67311 0.37485 0.0
C1745 C 0.5887 0.68171 0.4474 0.0
C1746 C 0.55154 0.65899 0.39147 0.0
C1747 C 0.54805 0.65566 0.43564 0.0
H1748 H 0.3148 0.91737 0.37836 0.0
H1749 H 0.35348 0.88276 0.36368 0.0
H1750 H 0.35684 0.8815 0.44145 0.0
H1751 H 0.35053 0.89261 0.51404 0.0
H1752 H 0.3095 0.92523 0.52587 0.0
H1753 H 0.30549 0.92499 0.44946 0.0
C1754 C 0.32388 0.90946 0.39226 0.0
C1755 C 0.33406 0.90039 0.36537 0.0
C1756 C 0.32552 0.90865 0.43673 0.0
C1757 C 0.34545 0.88982 0.38375 0.0
C1758 C 0.34746 0.88922 0.42822 0.0
C1759 C 0.3405 0.89941 0.49996 0.0
C1760 C 0.33094 0.90954 0.5263 0.0
C1761 C 0.3378 0.89888 0.45517 0.0
C1762 C 0.31784 0.91808 0.507 0.0
C1763 C 0.31531 0.9178 0.46299 0.0
H1764 H 0.24968 0.1333 0.08576 0.0
H1765 H 0.18948 0.11349 1.00897 0.0
H1766 H 0.18381 0.07502 1.00113 0.0
H1767 H 0.19576 0.04666 0.0159 0.0
H1768 H 0.25687 0.06689 0.08986 0.0
H1769 H 0.26255 0.10546 0.09802 0.0
C1770 C 0.23545 0.1207 0.06693 0.0
C1771 C 0.21992 0.12643 0.04853 0.0
C1772 C 0.23246 0.09857 0.06176 0.0
C1773 C 0.20144 0.10959 0.02456 0.0
C1774 C 0.19826 0.08754 0.01964 0.0
C1775 C 0.21036 0.05954 0.03365 0.0
C1776 C 0.22583 0.05385 0.05222 0.0
C1777 C 0.2136 0.08179 0.03817 0.0
C1778 C 0.2447 0.07078 0.07507 0.0
C1779 C 0.24795 0.09287 0.0799 0.0
H1780 H 0.96508 0.16632 1.01217 0.0
H1781 H 0.94417 0.21274 0.06222 0.0
H1782 H 0.90527 0.18056 0.07344 0.0
H1783 H 0.87763 0.13879 0.07208 0.0
H1784 H 0.89941 0.09288 0.02256 0.0
H1785 H 0.93753 0.12524 1.00869 0.0
C1786 C 0.95198 0.16947 0.02511 0.0
C1787 C 0.95752 0.1919 0.03625 0.0
C1788 C 0.92983 0.15089 0.03217 0.0
C1789 C 0.94034 0.19563 0.05325 0.0
C1790 C 0.91811 0.17722 0.05985 0.0
C1791 C 0.89069 0.13592 0.05802 0.0
C1792 C 0.8857 0.11337 0.04897 0.0
C1793 C 0.91272 0.15471 0.04993 0.0
C1794 C 0.90288 0.10996 0.03084 0.0
C1795 C 0.92467 0.12849 0.02251 0.0
H1796 H 0.81633 0.76318 0.0818 0.0
H1797 H 0.84085 0.80566 0.96974 0.0
H1798 H 0.87561 0.80282 0.96997 0.0
H1799 H 0.89995 0.78972 1.00379 0.0
H1800 H 0.87683 0.74895 0.11772 0.0
H1801 H 0.8407 0.74968 0.11541 0.0
C1802 C 0.82916 0.77151 0.05713 0.0
C1803 C 0.826 0.78449 0.02561 0.0
C1804 C 0.84946 0.77031 0.05817 0.0
C1805 C 0.84292 0.79557 0.99429 0.0
C1806 C 0.86282 0.794 0.99446 0.0
C1807 C 0.88689 0.78098 0.02796 0.0
C1808 C 0.89082 0.76932 0.06088 0.0
C1809 C 0.86642 0.7817 0.02654 0.0
C1810 C 0.874 0.75803 0.09218 0.0
C1811 C 0.85341 0.75844 0.09077 0.0
H1812 H 0.13368 0.26232 0.51604 0.0
H1813 H 0.11049 0.18982 0.52006 0.0
H1814 H 0.07111 0.18121 0.53081 0.0
H1815 H 0.04316 0.19414 0.53999 0.0
H1816 H 0.06585 0.26645 0.53424 0.0
H1817 H 0.10549 0.27528 0.52416 0.0
C1818 C 0.11999 0.24465 0.51922 0.0
C1819 C 0.12508 0.22676 0.51691 0.0
C1820 C 0.0973 0.23978 0.52565 0.0
C1821 C 0.10708 0.20392 0.52084 0.0
C1822 C 0.08454 0.19897 0.52746 0.0
C1823 C 0.05682 0.21185 0.53699 0.0
C1824 C 0.05163 0.22964 0.53834 0.0
C1825 C 0.07946 0.21675 0.53018 0.0
C1826 C 0.06944 0.25246 0.53355 0.0
C1827 C 0.09209 0.25751 0.52763 0.0
H1828 H 0.7965 0.83617 0.49397 0.0
H1829 H 0.73635 0.80089 0.57271 0.0
H1830 H 0.73068 0.83424 0.56951 0.0
H1831 H 0.74483 0.87445 0.54836 0.0
H1832 H 0.80342 0.90813 0.46453 0.0
H1833 H 0.80772 0.87433 0.46563 0.0
C1834 C 0.78209 0.83584 0.51017 0.0
C1835 C 0.76702 0.81651 0.53405 0.0
C1836 C 0.77877 0.85476 0.50742 0.0
C1837 C 0.74816 0.81581 0.55436 0.0
C1838 C 0.74498 0.83483 0.55254 0.0
C1839 C 0.75824 0.87428 0.52952 0.0
C1840 C 0.77409 0.89415 0.50717 0.0
C1841 C 0.76041 0.85456 0.52964 0.0
C1842 C 0.79139 0.89346 0.48314 0.0
C1843 C 0.79381 0.87406 0.48351 0.0
H1844 H 0.18285 0.95495 0.48098 0.0
H1845 H 0.17174 0.96883 0.60998 0.0
H1846 H 0.13576 0.93212 0.61299 0.0
H1847 H 0.10729 0.89603 0.57889 0.0
H1848 H 0.11609 0.88331 0.44796 0.0
H1849 H 0.15291 0.91955 0.44527 0.0
C1850 C 0.17252 0.94978 0.50969 0.0
C1851 C 0.17993 0.96435 0.54541 0.0
C1852 C 0.15139 0.92895 0.51065 0.0
C1853 C 0.1663 0.95781 0.5822 0.0
C1854 C 0.14576 0.93684 0.58392 0.0
C1855 C 0.11731 0.9013 0.54981 0.0
C1856 C 0.1092 0.8871 0.51374 0.0
C1857 C 0.1381 0.9223 0.54835 0.0
C1858 C 0.1221 0.89407 0.47604 0.0
C1859 C 0.14314 0.91471 0.4746 0.0
H1860 H 0.79498 0.89743 0.06305 0.0
H1861 H 0.74164 0.87364 0.96845 0.0
H1862 H 0.74001 0.90908 0.97652 0.0
H1863 H 0.75543 0.94794 1.00816 0.0
H1864 H 0.80932 0.97113 0.10177 0.0
H1865 H 0.80896 0.93483 0.09655 0.0
C1866 C 0.7831 0.90005 0.04391 0.0
C1867 C 0.76872 0.88307 1.0147 0.0
C1868 C 0.78228 0.92035 0.04876 0.0
C1869 C 0.75296 0.88647 0.99107 0.0
C1870 C 0.75205 0.90674 0.99565 0.0
C1871 C 0.76677 0.94483 0.02791 0.0
C1872 C 0.78237 0.96221 0.05535 0.0
C1873 C 0.76678 0.92393 0.02419 0.0
C1874 C 0.79719 0.95807 0.08035 0.0
C1875 C 0.79706 0.93734 0.0773 0.0
H1876 H 0.06365 0.82048 1.01459 0.0
H1877 H 0.02833 0.85711 0.04678 0.0
H1878 H 0.06443 0.8935 0.04388 0.0
H1879 H 0.10629 0.91501 0.03449 0.0
H1880 H 0.14203 0.87858 1.00467 0.0
H1881 H 0.10565 0.84216 1.00431 0.0
C1882 C 0.06386 0.83643 0.02082 0.0
C1883 C 0.04328 0.83602 0.03094 0.0
C1884 C 0.0848 0.85739 0.01955 0.0
C1885 C 0.04389 0.85687 0.03907 0.0
C1886 C 0.06455 0.87774 0.03736 0.0
C1887 C 0.10607 0.89913 0.02732 0.0
C1888 C 0.12684 0.89953 0.01941 0.0
C1889 C 0.08513 0.87822 0.02785 0.0
C1890 C 0.1263 0.87873 1.01101 0.0
C1891 C 0.10549 0.8579 1.01078 0.0
H1892 H 0.16704 0.21382 0.99319 0.0
H1893 H 0.20123 0.27134 0.07839 0.0
H1894 H 0.16882 0.27845 0.07307 0.0
H1895 H 0.12952 0.26625 0.04758 0.0
H1896 H 0.09735 0.21026 0.95775 0.0
H1897 H 0.13027 0.20466 0.96133 0.0
C1898 C 0.1674 0.228 1.01034 0.0
C1899 C 0.18616 0.24189 0.03655 0.0
C1900 C 0.14905 0.23215 1.0064 0.0
C1901 C 0.1868 0.26043 0.05818 0.0
C1902 C 0.16829 0.26442 0.05514 0.0
C1903 C 0.12986 0.25312 0.0281 0.0
C1904 C 0.11057 0.23835 1.00321 0.0
C1905 C 0.14915 0.25016 0.02974 0.0
C1906 C 0.1115 0.22144 0.97826 0.0
C1907 C 0.13041 0.21827 0.98007 0.0
H1908 H 0.96129 0.81661 0.52321 0.0
H1909 H 0.94193 0.74708 0.55716 0.0
H1910 H 0.90222 0.73754 0.56615 0.0
H1911 H 0.87297 0.74903 0.56662 0.0
H1912 H 0.89187 0.81831 0.53165 0.0
H1913 H 0.93157 0.82784 0.5217 0.0
C1914 C 0.94832 0.79934 0.53218 0.0
C1915 C 0.95463 0.78263 0.53945 0.0
C1916 C 0.92538 0.79393 0.53774 0.0
C1917 C 0.93762 0.76034 0.55138 0.0
C1918 C 0.91485 0.75483 0.55665 0.0
C1919 C 0.8857 0.76617 0.5565 0.0
C1920 C 0.87933 0.78292 0.55035 0.0
C1921 C 0.90854 0.77152 0.55028 0.0
C1922 C 0.89626 0.80514 0.53763 0.0
C1923 C 0.919 0.81058 0.53148 0.0
H1924 H 0.25922 0.19579 0.56531 0.0
H1925 H 0.18822 0.1567 0.52704 0.0
H1926 H 0.18881 0.1211 0.53543 0.0
H1927 H 0.20933 0.10077 0.55254 0.0
H1928 H 0.28068 0.13897 0.5877 0.0
H1929 H 0.28016 0.17508 0.5817 0.0
C1930 C 0.24392 0.17947 0.55881 0.0
C1931 C 0.22373 0.17898 0.54552 0.0
C1932 C 0.24441 0.15884 0.56327 0.0
C1933 C 0.20405 0.15767 0.53709 0.0
C1934 C 0.20432 0.13722 0.54201 0.0
C1935 C 0.22468 0.11699 0.55946 0.0
C1936 C 0.24492 0.11721 0.57111 0.0
C1937 C 0.22435 0.13758 0.55507 0.0
C1938 C 0.26486 0.13839 0.57887 0.0
C1939 C 0.26456 0.15901 0.57539 0.0
H1940 H 0.87595 0.12943 0.55456 0.0
H1941 H 0.92221 0.10261 0.55754 0.0
H1942 H 0.88982 0.0635 0.55224 0.0
H1943 H 0.84852 0.03693 0.54519 0.0
H1944 H 0.80167 0.06299 0.5458 0.0
H1945 H 0.83408 0.10241 0.55081 0.0
C1946 C 0.87887 0.11498 0.55421 0.0
C1947 C 0.90146 0.11893 0.55654 0.0
C1948 C 0.8601 0.09246 0.55138 0.0
C1949 C 0.90501 0.10005 0.55637 0.0
C1950 C 0.8865 0.07768 0.55298 0.0
C1951 C 0.8454 0.05125 0.54613 0.0
C1952 C 0.82277 0.04712 0.54452 0.0
C1953 C 0.86402 0.0737 0.55012 0.0
C1954 C 0.81896 0.06579 0.54672 0.0
C1955 C 0.83747 0.08829 0.54965 0.0
H1956 H 0.93493 0.47146 0.37921 0.0
H1957 H 0.86173 0.44416 0.37796 0.0
H1958 H 0.85533 0.4054 0.36886 0.0
H1959 H 0.8703 0.3791 0.36216 0.0
H1960 H 0.94325 0.40546 0.36703 0.0
H1961 H 0.95004 0.44472 0.37315 0.0
C1962 C 0.91762 0.45699 0.37695 0.0
C1963 C 0.89884 0.46068 0.37968 0.0
C1964 C 0.91402 0.4346 0.37199 0.0
C1965 C 0.87647 0.44176 0.37678 0.0
C1966 C 0.87278 0.41959 0.3712 0.0
C1967 C 0.88771 0.39346 0.36401 0.0
C1968 C 0.90626 0.38944 0.36367 0.0
C1969 C 0.8914 0.4158 0.3688 0.0
C1970 C 0.92869 0.40816 0.36699 0.0
C1971 C 0.93256 0.43058 0.37064 0.0
H1972 H 0.56274 0.42214 0.37662 0.0
H1973 H 0.52513 0.45753 0.39783 0.0
H1974 H 0.56095 0.4945 0.39715 0.0
H1975 H 0.60301 0.51693 0.38794 0.0
H1976 H 0.64019 0.4813 0.36351 0.0
H1977 H 0.60468 0.44444 0.3681 0.0
C1978 C 0.56245 0.43794 0.3817 0.0
C1979 C 0.54134 0.4371 0.38752 0.0
C1980 C 0.58307 0.45916 0.38034 0.0
C1981 C 0.54118 0.45775 0.39324 0.0
C1982 C 0.56165 0.47889 0.39282 0.0
C1983 C 0.60332 0.50109 0.38378 0.0
C1984 C 0.62425 0.50192 0.37531 0.0
C1985 C 0.5827 0.47984 0.38593 0.0
C1986 C 0.62433 0.48121 0.36983 0.0
C1987 C 0.60401 0.46007 0.37255 0.0
H1988 H 0.5481 0.07699 0.37071 0.0
H1989 H 0.59276 0.15048 0.37175 0.0
H1990 H 0.55969 0.15599 0.36607 0.0
H1991 H 0.51823 0.14014 0.36137 0.0
H1992 H 0.47276 0.06685 0.36516 0.0
H1993 H 0.50588 0.06096 0.36816 0.0
C1994 C 0.55048 0.09417 0.36968 0.0
C1995 C 0.57282 0.11332 0.37178 0.0
C1996 C 0.53128 0.09722 0.3671 0.0
C1997 C 0.57573 0.1355 0.37068 0.0
C1998 C 0.55685 0.13866 0.3672 0.0
C1999 C 0.51555 0.12284 0.36245 0.0
C2000 C 0.4931 0.10393 0.36248 0.0
C2001 C 0.53457 0.11967 0.36539 0.0
C2002 C 0.4899 0.08167 0.36486 0.0
C2003 C 0.50883 0.07832 0.36663 0.0
H2004 H 0.73379 0.58002 0.82792 0.0
H2005 H 0.70866 0.52054 0.90914 0.0
H2006 H 0.74598 0.52295 0.90643 0.0
H2007 H 0.78532 0.54126 0.87999 0.0
H2008 H 0.81088 0.60032 0.79778 0.0
H2009 H 0.77386 0.59892 0.8022 0.0
C2010 C 0.73655 0.56771 0.84527 0.0
C2011 C 0.71845 0.5501 0.86867 0.0
C2012 C 0.75807 0.56905 0.84324 0.0
C2013 C 0.72227 0.53423 0.89085 0.0
C2014 C 0.7436 0.53556 0.88926 0.0
C2015 C 0.78274 0.55368 0.86258 0.0
C2016 C 0.80073 0.57067 0.83809 0.0
C2017 C 0.76151 0.55273 0.86521 0.0
C2018 C 0.7973 0.58706 0.81681 0.0
C2019 C 0.77613 0.58622 0.81927 0.0
H2020 H 0.41464 0.20394 0.84149 0.0
H2021 H 0.48746 0.25134 0.84779 0.0
H2022 H 0.49461 0.21929 0.85532 0.0
H2023 H 0.47999 0.17761 0.86247 0.0
H2024 H 0.40713 0.13047 0.85455 0.0
H2025 H 0.40018 0.16251 0.84603 0.0
C2026 C 0.43208 0.20724 0.84441 0.0
C2027 C 0.45046 0.23001 0.84406 0.0
C2028 C 0.43605 0.18875 0.84894 0.0
C2029 C 0.47299 0.23398 0.84739 0.0
C2030 C 0.47709 0.21566 0.85212 0.0
C2031 C 0.46261 0.17441 0.85908 0.0
C2032 C 0.4441 0.15171 0.85948 0.0
C2033 C 0.45873 0.19296 0.8534 0.0
C2034 C 0.42168 0.14779 0.85441 0.0
C2035 C 0.41768 0.1661 0.84948 0.0
H2036 H 0.79962 0.20787 0.8441 0.0
H2037 H 0.75142 0.23234 0.84176 0.0
H2038 H 0.78268 0.27171 0.85144 0.0
H2039 H 0.82362 0.29919 0.86296 0.0
H2040 H 0.8721 0.27511 0.86331 0.0
H2041 H 0.84088 0.23564 0.85272 0.0
C2042 C 0.796 0.22185 0.84552 0.0
C2043 C 0.7732 0.21712 0.84202 0.0
C2044 C 0.81409 0.24451 0.8513 0.0
C2045 C 0.76882 0.23547 0.84362 0.0
C2046 C 0.78667 0.258 0.84962 0.0
C2047 C 0.82731 0.28526 0.86098 0.0
C2048 C 0.85008 0.28999 0.86442 0.0
C2049 C 0.80934 0.2627 0.85397 0.0
C2050 C 0.85468 0.27187 0.86096 0.0
C2051 C 0.83684 0.24931 0.85482 0.0
H2052 H 0.41489 0.20179 0.33182 0.0
H2053 H 0.48068 0.22454 0.39088 0.0
H2054 H 0.48604 0.26278 0.40024 0.0
H2055 H 0.47262 0.29027 0.39076 0.0
H2056 H 0.40659 0.26782 0.33341 0.0
H2057 H 0.40065 0.22909 0.32513 0.0
C2058 C 0.43031 0.21504 0.34705 0.0
C2059 C 0.44749 0.21022 0.3599 0.0
C2060 C 0.43326 0.23715 0.35287 0.0
C2061 C 0.46739 0.22777 0.37952 0.0
C2062 C 0.47043 0.24969 0.38529 0.0
C2063 C 0.45686 0.27688 0.37669 0.0
C2064 C 0.44012 0.28199 0.3627 0.0
C2065 C 0.45358 0.25464 0.37185 0.0
C2066 C 0.41979 0.26439 0.34454 0.0
C2067 C 0.41639 0.24221 0.33966 0.0
H2068 H 0.71467 0.18738 0.36643 0.0
H2069 H 0.74069 0.14132 0.3877 0.0
H2070 H 0.78009 0.1736 0.38495 0.0
H2071 H 0.80719 0.2149 0.37494 0.0
H2072 H 0.78118 0.26063 0.34952 0.0
H2073 H 0.7418 0.22855 0.35471 0.0
C2074 C 0.729 0.1845 0.37098 0.0
C2075 C 0.72484 0.16209 0.37782 0.0
C2076 C 0.7516 0.20305 0.36797 0.0
C2077 C 0.74351 0.15847 0.38265 0.0
C2078 C 0.76602 0.1769 0.38094 0.0
C2079 C 0.79287 0.2178 0.37055 0.0
C2080 C 0.7971 0.2401 0.36177 0.0
C2081 C 0.77028 0.19924 0.37329 0.0
C2082 C 0.77839 0.24359 0.35576 0.0
C2083 C 0.75587 0.22528 0.35907 0.0
H2084 H 0.7624 0.5357 0.3714 0.0
H2085 H 0.7971 0.60543 0.32581 0.0
H2086 H 0.83418 0.60699 0.33154 0.0
H2087 H 0.85665 0.58826 0.34945 0.0
H2088 H 0.82157 0.51899 0.39818 0.0
H2089 H 0.78484 0.51758 0.39171 0.0
C2090 C 0.7781 0.55113 0.36232 0.0
C2091 C 0.77709 0.5703 0.3476 0.0
C2092 C 0.7993 0.55205 0.36669 0.0
C2093 C 0.79753 0.59042 0.33692 0.0
C2094 C 0.81869 0.59131 0.34031 0.0
C2095 C 0.84098 0.57293 0.35893 0.0
C2096 C 0.8419 0.55377 0.37427 0.0
C2097 C 0.8198 0.57224 0.35527 0.0
C2098 C 0.82142 0.53403 0.38643 0.0
C2099 C 0.80034 0.53314 0.38255 0.0
H2100 H 0.56117 0.13223 0.87394 0.0
H2101 H 0.52876 0.06185 0.91565 0.0
H2102 H 0.56562 0.06285 0.91168 0.0
H2103 H 0.60717 0.08374 0.89474 0.0
H2104 H 0.63855 0.15368 0.85 0.0
H2105 H 0.60215 0.15282 0.85674 0.0
C2106 C 0.56226 0.11722 0.88275 0.0
C2107 C 0.54235 0.09709 0.89552 0.0
C2108 C 0.58334 0.11778 0.87947 0.0
C2109 C 0.5439 0.07758 0.90584 0.0
C2110 C 0.56495 0.07815 0.90351 0.0
C2111 C 0.60599 0.09875 0.88644 0.0
C2112 C 0.62561 0.11871 0.87179 0.0
C2113 C 0.5848 0.09812 0.89002 0.0
C2114 C 0.62376 0.13802 0.86113 0.0
C2115 C 0.60293 0.13761 0.8651 0.0
H2116 H 0.92857 0.46529 0.89811 0.0
H2117 H 0.8555 0.4197 0.88748 0.0
H2118 H 0.84986 0.45251 0.87762 0.0
H2119 H 0.86571 0.494 0.86937 0.0
H2120 H 0.93858 0.53994 0.8817 0.0
H2121 H 0.94434 0.50714 0.89277 0.0
C2122 C 0.91141 0.46257 0.89382 0.0
C2123 C 0.89248 0.44005 0.89362 0.0
C2124 C 0.90829 0.48154 0.88785 0.0
C2125 C 0.87033 0.43682 0.88843 0.0
C2126 C 0.86711 0.45557 0.88232 0.0
C2127 C 0.88288 0.49683 0.87417 0.0
C2128 C 0.90175 0.51932 0.87411 0.0
C2129 C 0.88597 0.47797 0.88143 0.0
C2130 C 0.92382 0.52276 0.88129 0.0
C2131 C 0.9271 0.50402 0.88775 0.0
H2132 H 0.54232 0.46015 0.88721 0.0
H2133 H 0.58893 0.43416 0.87262 0.0
H2134 H 0.55667 0.39521 0.86504 0.0
H2135 H 0.51536 0.36846 0.86199 0.0
H2136 H 0.46815 0.39346 0.87924 0.0
H2137 H 0.5004 0.43282 0.88598 0.0
C2138 C 0.54534 0.44591 0.88242 0.0
C2139 C 0.568 0.45005 0.88079 0.0
C2140 C 0.52662 0.42341 0.8783 0.0
C2141 C 0.57168 0.43143 0.87473 0.0
C2142 C 0.55324 0.40915 0.87006 0.0
C2143 C 0.5121 0.38254 0.86697 0.0
C2144 C 0.48941 0.3781 0.86973 0.0
C2145 C 0.53067 0.40495 0.87167 0.0
C2146 C 0.48548 0.39646 0.87688 0.0
C2147 C 0.50392 0.41895 0.88077 0.0
H2148 H 0.59089 0.79841 0.71403 0.0
H2149 H 0.51762 0.76992 0.70655 0.0
H2150 H 0.51221 0.73138 0.69897 0.0
H2151 H 0.52829 0.70562 0.6939 0.0
H2152 H 0.60148 0.73407 0.70319 0.0
H2153 H 0.60693 0.7727 0.70964 0.0
C2154 C 0.57374 0.78378 0.71067 0.0
C2155 C 0.5547 0.78713 0.71105 0.0
C2156 C 0.57074 0.76162 0.70612 0.0
C2157 C 0.53257 0.76788 0.70711 0.0
C2158 C 0.52947 0.74582 0.70233 0.0
C2159 C 0.54544 0.72032 0.69684 0.0
C2160 C 0.56447 0.717 0.69765 0.0
C2161 C 0.54842 0.74248 0.70157 0.0
C2162 C 0.58656 0.73617 0.70231 0.0
C2163 C 0.58968 0.75827 0.70614 0.0
H2164 H 0.29181 0.82016 0.69303 0.0
H2165 H 0.26679 0.86777 0.68631 0.0
H2166 H 0.22716 0.83589 0.69143 0.0
H2167 H 0.19962 0.79427 0.69853 0.0
H2168 H 0.22526 0.74729 0.71037 0.0
H2169 H 0.26462 0.77905 0.70309 0.0
C2170 C 0.27764 0.82349 0.69225 0.0
C2171 C 0.2821 0.84618 0.68864 0.0
C2172 C 0.25504 0.8052 0.69666 0.0
C2173 C 0.26368 0.85039 0.68876 0.0
C2174 C 0.24107 0.83219 0.69179 0.0
C2175 C 0.21388 0.79109 0.69965 0.0
C2176 C 0.20958 0.76851 0.70514 0.0
C2177 C 0.23653 0.80951 0.69595 0.0
C2178 C 0.22817 0.76456 0.70675 0.0
C2179 C 0.25066 0.78268 0.70226 0.0
H2180 H 0.24101 0.46103 0.69113 0.0
H2181 H 0.21186 0.40413 0.7787 0.0
H2182 H 0.17487 0.40299 0.77532 0.0
H2183 H 0.15144 0.41971 0.7498 0.0
H2184 H 0.18195 0.47718 0.66321 0.0
H2185 H 0.21777 0.47661 0.66409 0.0
C2186 C 0.22662 0.44847 0.7098 0.0
C2187 C 0.2293 0.43295 0.73569 0.0
C2188 C 0.20563 0.44803 0.70786 0.0
C2189 C 0.21028 0.41632 0.75862 0.0
C2190 C 0.18916 0.41573 0.75678 0.0
C2191 C 0.16588 0.43193 0.73084 0.0
C2192 C 0.16402 0.44853 0.70659 0.0
C2193 C 0.18669 0.43168 0.7318 0.0
C2194 C 0.18291 0.46431 0.68232 0.0
C2195 C 0.20344 0.46402 0.6828 0.0
H2196 H 0.4442 0.86901 0.15764 0.0
H2197 H 0.48491 0.93881 0.20324 0.0
H2198 H 0.45029 0.94114 0.21216 0.0
H2199 H 0.40784 0.92269 0.21032 0.0
H2200 H 0.36785 0.85113 0.17606 0.0
H2201 H 0.40275 0.8499 0.16159 0.0
C2202 C 0.44579 0.88466 0.17054 0.0
C2203 C 0.46757 0.90362 0.17971 0.0
C2204 C 0.42573 0.88549 0.17837 0.0
C2205 C 0.4687 0.92395 0.19476 0.0
C2206 C 0.44878 0.92526 0.20057 0.0
C2207 C 0.4069 0.90686 0.19998 0.0
C2208 C 0.3854 0.88702 0.19445 0.0
C2209 C 0.42715 0.90605 0.19294 0.0
C2210 C 0.38426 0.86655 0.1811 0.0
C2211 C 0.4042 0.86587 0.17249 0.0
H2212 H 0.12453 0.57244 0.2369 0.0
H2213 H 0.08861 0.55358 0.11732 0.0
H2214 H 0.08948 0.51751 0.11693 0.0
H2215 H 0.10101 0.49151 0.15091 0.0
H2216 H 0.1396 0.5126 0.26778 0.0
H2217 H 0.13701 0.54749 0.26928 0.0
C2218 C 0.1168 0.56034 0.2109 0.0
C2219 C 0.10634 0.56543 0.1774 0.0
C2220 C 0.11783 0.54003 0.21054 0.0
C2221 C 0.09674 0.54991 0.14343 0.0
C2222 C 0.09719 0.52931 0.1433 0.0
C2223 C 0.10867 0.50373 0.17674 0.0
C2224 C 0.12034 0.49951 0.20934 0.0
C2225 C 0.10771 0.52418 0.17673 0.0
C2226 C 0.13056 0.51557 0.24233 0.0
C2227 C 0.12909 0.53549 0.24323 0.0
H2228 H 0.46472 0.53653 0.18553 0.0
H2229 H 0.41682 0.56085 0.20164 0.0
H2230 H 0.44849 0.59991 0.21164 0.0
H2231 H 0.48982 0.62735 0.21573 0.0
H2232 H 0.53789 0.60337 0.19874 0.0
H2233 H 0.50619 0.56402 0.19021 0.0
C2234 C 0.46122 0.55036 0.19135 0.0
C2235 C 0.43838 0.54571 0.1924 0.0
C2236 C 0.47956 0.57286 0.19742 0.0
C2237 C 0.4342 0.56393 0.19971 0.0
C2238 C 0.45231 0.58629 0.2059 0.0
C2239 C 0.49335 0.61347 0.21067 0.0
C2240 C 0.51616 0.61825 0.20818 0.0
C2241 C 0.47505 0.59096 0.2049 0.0
C2242 C 0.52047 0.60013 0.20094 0.0
C2243 C 0.50235 0.57763 0.1959 0.0
H2244 H 0.08285 0.60165 0.66029 0.0
H2245 H 0.13795 0.63095 0.75186 0.0
H2246 H 0.13863 0.59516 0.75434 0.0
H2247 H 0.12511 0.55635 0.72836 0.0
H2248 H 0.07059 0.52633 0.63605 0.0
H2249 H 0.06795 0.56142 0.6363 0.0
C2250 C 0.09477 0.60005 0.68115 0.0
C2251 C 0.1104 0.61899 0.70572 0.0
C2252 C 0.09531 0.57936 0.68206 0.0
C2253 C 0.12584 0.61671 0.73244 0.0
C2254 C 0.12628 0.59625 0.73386 0.0
C2255 C 0.11273 0.55752 0.70803 0.0
C2256 C 0.09833 0.53892 0.68171 0.0
C2257 C 0.11141 0.57764 0.70829 0.0
C2258 C 0.08193 0.54045 0.65651 0.0
C2259 C 0.08047 0.56053 0.65659 0.0
H2260 H 0.40385 0.48288 0.68816 0.0
H2261 H 0.36982 0.52038 0.72344 0.0
H2262 H 0.40558 0.55659 0.7152 0.0
H2263 H 0.44686 0.57797 0.69918 0.0
H2264 H 0.48192 0.54107 0.66878 0.0
H2265 H 0.44565 0.50445 0.67339 0.0
C2266 C 0.40432 0.49898 0.69415 0.0
C2267 C 0.38414 0.49884 0.70653 0.0
C2268 C 0.42516 0.51994 0.68984 0.0
C2269 C 0.38507 0.5199 0.7142 0.0
C2270 C 0.40553 0.54069 0.70929 0.0
C2271 C 0.4464 0.56188 0.69299 0.0
C2272 C 0.46683 0.56212 0.68292 0.0
C2273 C 0.42567 0.54096 0.69713 0.0
C2274 C 0.46627 0.54121 0.67603 0.0
C2275 C 0.44557 0.52032 0.6789 0.0
H2276 H 0.48247 0.85553 0.68423 0.0
H2277 H 0.52998 0.92841 0.68966 0.0
H2278 H 0.49827 0.93608 0.68298 0.0
H2279 H 0.45695 0.92206 0.67612 0.0
H2280 H 0.4095 0.84928 0.66745 0.0
H2281 H 0.44121 0.84156 0.674 0.0
C2282 C 0.4858 0.87306 0.6842 0.0
C2283 C 0.50846 0.89138 0.68789 0.0
C2284 C 0.46752 0.87736 0.67924 0.0
C2285 C 0.51265 0.91403 0.68699 0.0
C2286 C 0.49454 0.91843 0.68311 0.0
C2287 C 0.45361 0.90453 0.67546 0.0
C2288 C 0.43093 0.88628 0.67125 0.0
C2289 C 0.47191 0.90023 0.67918 0.0
C2290 C 0.42684 0.86364 0.6701 0.0
C2291 C 0.44493 0.85921 0.67425 0.0
H2292 H 0.29997 0.47792 0.21035 0.0
H2293 H 0.2741 0.40543 0.22748 0.0
H2294 H 0.2353 0.39896 0.23725 0.0
H2295 H 0.20864 0.41392 0.24079 0.0
H2296 H 0.23478 0.48654 0.22477 0.0
H2297 H 0.27352 0.49297 0.21549 0.0
C2298 C 0.28581 0.4607 0.216 0.0
C2299 C 0.28985 0.44217 0.21789 0.0
C2300 C 0.26361 0.45715 0.22227 0.0
C2301 C 0.27141 0.41999 0.22581 0.0
C2302 C 0.24922 0.41627 0.23145 0.0
C2303 C 0.22284 0.43114 0.23532 0.0
C2304 C 0.21882 0.44972 0.23372 0.0
C2305 C 0.24511 0.43472 0.22979 0.0
C2306 C 0.23743 0.47198 0.22691 0.0
C2307 C 0.25958 0.47566 0.22118 0.0
H2308 H 0.59639 0.79469 0.21087 0.0
H2309 H 0.52305 0.74964 0.21539 0.0
H2310 H 0.51724 0.78237 0.20559 0.0
H2311 H 0.53288 0.82358 0.19434 0.0
H2312 H 0.60608 0.86933 0.19379 0.0
H2313 H 0.61216 0.83654 0.20279 0.0
C2314 C 0.57917 0.79212 0.20989 0.0
C2315 C 0.56017 0.76978 0.21397 0.0
C2316 C 0.57596 0.81107 0.20443 0.0
C2317 C 0.53794 0.76668 0.21294 0.0
C2318 C 0.53461 0.78536 0.20694 0.0
C2319 C 0.55017 0.82635 0.19578 0.0
C2320 C 0.56903 0.84876 0.1927 0.0
C2321 C 0.55346 0.80757 0.20228 0.0
C2322 C 0.59133 0.85218 0.19571 0.0
C2323 C 0.59478 0.83347 0.20099 0.0
H2324 H 0.21208 0.80231 0.19015 0.0
H2325 H 0.25844 0.77575 0.19803 0.0
H2326 H 0.22652 0.7367 0.18839 0.0
H2327 H 0.18526 0.70991 0.17993 0.0
H2328 H 0.13848 0.73602 0.17591 0.0
H2329 H 0.17067 0.77541 0.18091 0.0
C2330 C 0.21514 0.78795 0.1896 0.0
C2331 C 0.23753 0.79188 0.19521 0.0
C2332 C 0.19665 0.76548 0.18434 0.0
C2333 C 0.24129 0.77312 0.19459 0.0
C2334 C 0.22308 0.75081 0.18872 0.0
C2335 C 0.18219 0.72427 0.17942 0.0
C2336 C 0.15962 0.72016 0.17715 0.0
C2337 C 0.20068 0.74676 0.18376 0.0
C2338 C 0.15577 0.73884 0.17745 0.0
C2339 C 0.17414 0.76132 0.1805 0.0
H2340 H 0.23131 0.23157 0.71353 0.0
H2341 H 0.16045 0.21449 0.71452 0.0
H2342 H 0.15979 0.21289 0.79179 0.0
H2343 H 0.17797 0.21247 0.85874 0.0
H2344 H 0.2488 0.23012 0.8602 0.0
H2345 H 0.25114 0.23585 0.78271 0.0
C2346 C 0.21593 0.22797 0.73078 0.0
C2347 C 0.19579 0.22263 0.70817 0.0
C2348 C 0.21563 0.22704 0.77567 0.0
C2349 C 0.17598 0.21805 0.73104 0.0
C2350 C 0.17559 0.21721 0.77529 0.0
C2351 C 0.19396 0.21783 0.84202 0.0
C2352 C 0.21309 0.22062 0.86476 0.0
C2353 C 0.19507 0.22098 0.79783 0.0
C2354 C 0.23388 0.22793 0.84313 0.0
C2355 C 0.23514 0.23104 0.79888 0.0
H2356 H 0.80996 0.03894 0.85162 0.0
H2357 H 0.78293 0.96946 0.89466 0.0
H2358 H 0.77585 0.9557 0.82072 0.0
H2359 H 0.78057 0.96424 0.74357 0.0
H2360 H 0.80549 0.03348 0.70076 0.0
H2361 H 0.81004 0.0468 0.77473 0.0
C2362 C 0.8022 0.02078 0.84452 0.0
C2363 C 0.79707 0.00514 0.87801 0.0
C2364 C 0.79798 0.01312 0.80215 0.0
C2365 C 0.78687 0.98163 0.86907 0.0
C2366 C 0.78299 0.97386 0.82693 0.0
C2367 C 0.78673 0.98217 0.75071 0.0
C2368 C 0.79295 0.99799 0.71715 0.0
C2369 C 0.78895 0.98953 0.79319 0.0
C2370 C 0.80061 0.02112 0.72631 0.0
C2371 C 0.8033 0.02869 0.76848 0.0
H2372 H 0.03741 0.82163 0.73759 0.0
H2373 H 0.96875 0.78636 0.68775 0.0
H2374 H 0.953 0.77649 0.76006 0.0
H2375 H 0.95907 0.77935 0.83778 0.0
H2376 H 0.02778 0.81197 0.88745 0.0
H2377 H 0.0435 0.82135 0.81514 0.0
C2378 C 0.01905 0.8117 0.74293 0.0
C2379 C 0.00412 0.80482 0.70803 0.0
C2380 C 0.01027 0.80565 0.78438 0.0
C2381 C 0.98037 0.79173 0.71458 0.0
C2382 C 0.97145 0.78617 0.75574 0.0
C2383 C 0.97744 0.78833 0.83244 0.0
C2384 C 0.99233 0.79508 0.86742 0.0
C2385 C 0.98624 0.79323 0.79089 0.0
C2386 C 0.01612 0.80652 0.86068 0.0
C2387 C 0.02506 0.81198 0.81949 0.0
H2388 H 0.80775 0.77491 0.33989 0.0
H2389 H 0.77856 0.81556 0.38224 0.0
H2390 H 0.77436 0.82442 0.30808 0.0
H2391 H 0.78159 0.82254 0.23109 0.0
H2392 H 0.80821 0.77958 0.18883 0.0
H2393 H 0.81078 0.76942 0.26276 0.0
C2394 C 0.80019 0.78544 0.3326 0.0
C2395 C 0.79354 0.79471 0.36615 0.0
C2396 C 0.79757 0.7901 0.29 0.0
C2397 C 0.78362 0.8082 0.35673 0.0
C2398 C 0.7814 0.81335 0.31444 0.0
C2399 C 0.78776 0.81082 0.23831 0.0
C2400 C 0.79496 0.80196 0.20486 0.0
C2401 C 0.7887 0.80473 0.28082 0.0
C2402 C 0.80261 0.78653 0.2142 0.0
C2403 C 0.80414 0.78083 0.2564 0.0
H2404 H 0.23283 0.04836 0.34807 0.0
H2405 H 0.20137 0.97965 0.39787 0.0
H2406 H 0.19126 0.96383 0.32569 0.0
H2407 H 0.1903 0.96984 0.24817 0.0
H2408 H 0.22445 0.0386 0.19832 0.0
H2409 H 0.23467 0.05437 0.27048 0.0
C2410 C 0.22391 0.02996 0.34281 0.0
C2411 C 0.21775 0.01512 0.37781 0.0
C2412 C 0.21858 0.02111 0.30133 0.0
C2413 C 0.20639 0.99129 0.3711 0.0
C2414 C 0.2005 0.9823 0.32998 0.0
C2415 C 0.2 0.98823 0.25346 0.0
C2416 C 0.20649 0.00316 0.21854 0.0
C2417 C 0.20631 0.99705 0.29487 0.0
C2418 C 0.21935 0.02696 0.2251 0.0
C2419 C 0.22513 0.0359 0.2662 0.0
H2420 H 0.03483 0.20823 0.22832 0.0
H2421 H 0.98718 0.23161 0.20147 0.0
H2422 H 0.97844 0.23028 0.27758 0.0
H2423 H 0.9821 0.21911 0.35179 0.0
H2424 H 0.02864 0.19405 0.37571 0.0
H2425 H 0.04005 0.19931 0.301 0.0
C2426 C 0.02244 0.21296 0.23897 0.0
C2427 C 0.01141 0.21964 0.20901 0.0
C2428 C 0.01728 0.21179 0.28247 0.0
C2429 C 0.99593 0.22639 0.22373 0.0
C2430 C 0.99084 0.22551 0.26729 0.0
C2431 C 0.995 0.21523 0.34051 0.0
C2432 C 0.00451 0.20614 0.36902 0.0
C2433 C 1.00111 0.21782 0.29697 0.0
C2434 C 0.02105 0.20093 0.35417 0.0
C2435 C 0.02753 0.2039 0.31151 0.0
H2436 H 0.86312 0.56564 0.06448 0.0
H2437 H 0.89386 0.52642 0.02195 0.0
H2438 H 0.89833 0.51771 0.09605 0.0
H2439 H 0.89142 0.51978 0.17316 0.0
H2440 H 0.8633 0.56148 0.21516 0.0
H2441 H 0.85977 0.57085 0.14126 0.0
C2442 C 0.871 0.5554 0.07171 0.0
C2443 C 0.87805 0.54652 0.03823 0.0
C2444 C 0.87377 0.55083 0.11418 0.0
C2445 C 0.88846 0.53346 0.0475 0.0
C2446 C 0.89085 0.52839 0.08973 0.0
C2447 C 0.88461 0.53095 0.16582 0.0
C2448 C 0.87736 0.53978 0.19914 0.0
C2449 C 0.88322 0.5367 0.12332 0.0
C2450 C 0.86891 0.55455 0.18977 0.0
C2451 C 0.86688 0.55984 0.14764 0.0
H2452 H 0.47059 0.31151 0.18839 0.0
H2453 H 0.44518 0.35872 0.18492 0.0
H2454 H 0.43847 0.35242 0.10783 0.0
H2455 H 0.44343 0.33582 0.04027 0.0
H2456 H 0.4676 0.28743 0.04679 0.0
H2457 H 0.47105 0.29164 0.12361 0.0
C2458 C 0.4634 0.32023 0.17066 0.0
C2459 C 0.45867 0.33575 0.19179 0.0
C2460 C 0.45951 0.31638 0.12686 0.0
C2461 C 0.44896 0.34671 0.16899 0.0
C2462 C 0.44524 0.34317 0.12501 0.0
C2463 C 0.449 0.3259 0.05867 0.0
C2464 C 0.45579 0.31174 0.0376 0.0
C2465 C 0.45091 0.32836 0.10336 0.0
C2466 C 0.4629 0.29893 0.06199 0.0
C2467 C 0.46481 0.30125 0.10601 0.0
H2468 H 0.69634 0.1236 0.05057 0.0
H2469 H 0.65925 0.15935 0.0286 0.0
H2470 H 0.64887 0.15603 0.10373 0.0
H2471 H 0.65223 0.14514 0.17583 0.0
H2472 H 0.69141 0.11172 0.2007 0.0
H2473 H 0.69865 0.11137 0.1244 0.0
C2474 C 0.68577 0.13034 0.06244 0.0
C2475 C 0.67864 0.14182 0.03442 0.0
C2476 C 0.68034 0.12885 0.1061 0.0
C2477 C 0.66507 0.15068 0.04986 0.0
C2478 C 0.65914 0.14876 0.09271 0.0
C2479 C 0.66252 0.13792 0.16481 0.0
C2480 C 0.67155 0.12883 0.19424 0.0
C2481 C 0.66707 0.13832 0.12123 0.0
C2482 C 0.68419 0.11884 0.1789 0.0
C2483 C 0.68847 0.11877 0.13523 0.0
H2484 H 0.50066 0.12177 0.67566 0.0
H2485 H 0.42965 0.09918 0.70261 0.0
H2486 H 0.42235 0.10031 0.62678 0.0
H2487 H 0.43721 0.11149 0.55297 0.0
H2488 H 0.50887 0.137 0.52852 0.0
H2489 H 0.51497 0.13116 0.60302 0.0
C2490 C 0.48358 0.11718 0.66518 0.0
C2491 C 0.46586 0.11075 0.69519 0.0
C2492 C 0.47966 0.1185 0.62174 0.0
C2493 C 0.44367 0.10417 0.68048 0.0
C2494 C 0.4395 0.10496 0.63702 0.0
C2495 C 0.45399 0.11532 0.56409 0.0
C2496 C 0.47261 0.12464 0.53563 0.0
C2497 C 0.45748 0.11258 0.60741 0.0
C2498 C 0.49439 0.12988 0.55014 0.0
C2499 C 0.49786 0.12659 0.59264 0.0
H2500 H 0.91315 0.36141 0.68662 0.0
H2501 H 0.84082 0.31902 0.71087 0.0
H2502 H 0.83377 0.30855 0.63572 0.0
H2503 H 0.84767 0.31413 0.5626 0.0
H2504 H 0.91968 0.35784 0.53623 0.0
H2505 H 0.92757 0.3649 0.61246 0.0
C2506 C 0.896 0.34954 0.67527 0.0
C2507 C 0.87747 0.34099 0.70382 0.0
C2508 C 0.89204 0.34407 0.63168 0.0
C2509 C 0.85523 0.32581 0.68912 0.0
C2510 C 0.85122 0.31991 0.64626 0.0
C2511 C 0.86508 0.32524 0.57349 0.0
C2512 C 0.88299 0.33571 0.54374 0.0
C2513 C 0.86939 0.32944 0.61712 0.0
C2514 C 0.90558 0.34955 0.55848 0.0
C2515 C 0.91008 0.35368 0.60207 0.0
H2516 H 0.66054 0.50946 0.54159 0.0
H2517 H 0.69505 0.58313 0.54835 0.0
H2518 H 0.6882 0.5811 0.62563 0.0
H2519 H 0.67486 0.5579 0.69185 0.0
H2520 H 0.63836 0.48386 0.68195 0.0
H2521 H 0.64364 0.4865 0.60563 0.0
C2522 C 0.66633 0.52502 0.56008 0.0
C2523 C 0.67843 0.54639 0.53977 0.0
C2524 C 0.66222 0.52362 0.60401 0.0
C2525 C 0.68565 0.56651 0.56359 0.0
C2526 C 0.68184 0.5653 0.60768 0.0
C2527 C 0.66778 0.54233 0.67308 0.0
C2528 C 0.65679 0.52069 0.69341 0.0
C2529 C 0.6705 0.5439 0.62843 0.0
C2530 C 0.64763 0.50078 0.66797 0.0
C2531 C 0.65044 0.50222 0.62398 0.0
H2532 H 0.54245 0.84644 0.36986 0.0
H2533 H 0.55127 0.91435 0.37168 0.0
H2534 H 0.55607 0.91598 0.44942 0.0
H2535 H 0.55358 0.89592 0.51759 0.0
H2536 H 0.54389 0.82758 0.51328 0.0
H2537 H 0.54365 0.82818 0.43582 0.0
C2538 C 0.54549 0.86162 0.38732 0.0
C2539 C 0.54606 0.88006 0.36545 0.0
C2540 C 0.54796 0.86224 0.43155 0.0
C2541 C 0.55067 0.89992 0.38809 0.0
C2542 C 0.55329 0.90077 0.43244 0.0
C2543 C 0.55188 0.88143 0.49949 0.0
C2544 C 0.54843 0.86159 0.52097 0.0
C2545 C 0.55141 0.88177 0.45467 0.0
C2546 C 0.54617 0.84284 0.49733 0.0
C2547 C 0.54605 0.84318 0.45311 0.0
H2548 H 0.16787 0.69655 0.50327 0.0
H2549 H 0.09541 0.65226 0.52505 0.0
H2550 H 0.08881 0.64721 0.44831 0.0
H2551 H 0.10419 0.65343 0.3743 0.0
H2552 H 0.17691 0.69655 0.35455 0.0
H2553 H 0.18285 0.70392 0.43078 0.0
C2554 C 0.15062 0.68565 0.49144 0.0
C2555 C 0.13225 0.67463 0.52029 0.0
C2556 C 0.14699 0.68259 0.4473 0.0
C2557 C 0.10993 0.66106 0.50387 0.0
C2558 C 0.10614 0.65807 0.45985 0.0
C2559 C 0.12122 0.6647 0.38683 0.0
C2560 C 0.14012 0.67437 0.35888 0.0
C2561 C 0.12458 0.66853 0.43116 0.0
C2562 C 0.16216 0.68878 0.37549 0.0
C2563 C 0.16556 0.69298 0.41908 0.0
H2564 H 0.3781 0.48554 0.40626 0.0
H2565 H 0.30965 0.43855 0.36285 0.0
H2566 H 0.29549 0.43221 0.4363 0.0
H2567 H 0.30248 0.44204 0.51269 0.0
H2568 H 0.37131 0.4869 0.55655 0.0
H2569 H 0.38573 0.49224 0.48325 0.0
C2570 C 0.36016 0.47376 0.41321 0.0
C2571 C 0.34484 0.46259 0.37964 0.0
C2572 C 0.35231 0.47004 0.4554 0.0
C2573 C 0.32166 0.44716 0.38851 0.0
C2574 C 0.31359 0.44369 0.43034 0.0
C2575 C 0.32061 0.45285 0.50586 0.0
C2576 C 0.3359 0.46435 0.53928 0.0
C2577 C 0.3287 0.45533 0.46395 0.0
C2578 C 0.35941 0.47803 0.53086 0.0
C2579 C 0.36757 0.48108 0.48914 0.0
H2580 H 0.11326 0.47879 0.90861 0.0
H2581 H 0.15466 0.45092 0.86384 0.0
H2582 H 0.1614 0.44349 0.93739 0.0
H2583 H 0.15711 0.44716 1.01478 0.0
H2584 H 0.11338 0.47249 0.05896 0.0
H2585 H 0.10563 0.47861 0.98545 0.0
C2586 C 0.12357 0.47092 0.91527 0.0
C2587 C 0.13369 0.46556 0.88147 0.0
C2588 C 0.12691 0.46634 0.95735 0.0
C2589 C 0.14678 0.4551 0.88977 0.0
C2590 C 0.15067 0.45097 0.93165 0.0
C2591 C 0.14574 0.4538 1.00799 0.0
C2592 C 0.13589 0.45952 0.0418 0.0
C2593 C 0.14109 0.45684 0.96572 0.0
C2594 C 0.12098 0.4679 0.03315 0.0
C2595 C 0.11668 0.47149 0.99127 0.0
H2596 H 0.50772 0.63739 0.89396 0.0
H2597 H 0.57891 0.68514 0.867 0.0
H2598 H 0.58686 0.69196 0.94309 0.0
H2599 H 0.57275 0.68659 0.01771 0.0
H2600 H 0.50116 0.64029 0.04289 0.0
H2601 H 0.49414 0.6306 0.96743 0.0
C2602 C 0.52496 0.64937 0.9046 0.0
C2603 C 0.54259 0.6609 0.87458 0.0
C2604 C 0.52934 0.65345 0.94832 0.0
C2605 C 0.56498 0.67593 0.88925 0.0
C2606 C 0.56954 0.67993 0.93284 0.0
C2607 C 0.55579 0.67408 1.00649 0.0
C2608 C 0.53746 0.66413 0.03553 0.0
C2609 C 0.55178 0.66905 0.96272 0.0
C2610 C 0.51544 0.64815 0.02087 0.0
C2611 C 0.51143 0.64269 0.9778 0.0
H2612 H 0.3537 0.90125 0.87591 0.0
H2613 H 0.30972 0.82878 0.85399 0.0
H2614 H 0.30143 0.82235 0.9299 0.0
H2615 H 0.30837 0.83678 1.00253 0.0
H2616 H 0.35392 0.90883 0.02679 0.0
H2617 H 0.35957 0.91612 0.95023 0.0
C2618 C 0.34207 0.88418 0.88795 0.0
C2619 C 0.3324 0.86546 0.85961 0.0
C2620 C 0.33778 0.88053 0.93203 0.0
C2621 C 0.3175 0.84335 0.87538 0.0
C2622 C 0.31277 0.83968 0.91873 0.0
C2623 C 0.31968 0.85408 0.99128 0.0
C2624 C 0.33094 0.87213 0.02065 0.0
C2625 C 0.32318 0.85804 0.9474 0.0
C2626 C 0.34498 0.89456 1.00509 0.0
C2627 C 0.34832 0.89873 0.96123 0.0
loop_
_geom_bond_atom_site_label_1
_geom_bond_atom_site_label_2
_geom_bond_distance
_geom_bond_site_symmetry_2
_ccdc_geom_bond_type
Co0 N4 2.148 . S
Co0 N10 2.128 1_554 S
Co0 N20 2.194 . S
Co0 O25 2.351 . S
Co0 O26 2.155 . S
Co0 O27 2.096 1_554 S
C1 N4 1.301 . S
C1 N5 1.328 . S
C1 H6 0.930 . S
C2 C3 1.333 . S
C2 N4 1.317 . S
C2 H7 0.930 . S
C3 C2 1.333 . S
C3 N5 1.350 . S
C3 H29 0.931 . S
N4 Co0 2.148 . S
N4 C1 1.301 . S
N4 C2 1.317 . S
N5 C1 1.328 . S
N5 C3 1.350 . S
H6 C1 0.930 . S
H7 C2 0.930 . S
C8 O9 1.224 . S
C8 O27 1.247 . S
O9 C8 1.224 . S
N10 Co0 2.128 1_556 S
N10 C11 1.355 . S
N10 C13 1.311 . S
C11 N10 1.355 . S
C11 C12 1.363 . S
C11 H23 0.929 . S
C12 C11 1.363 . S
C12 N14 1.375 . S
C12 H30 0.931 . S
C13 N10 1.311 . S
C13 N14 1.347 . S
C13 H24 0.929 . S
N14 C12 1.375 . S
N14 C13 1.347 . S
C15 C18 1.365 . S
C15 N20 1.328 . S
C15 H21 0.929 . S
C16 C17 1.362 . S
C16 C19 1.378 . S
C16 H31 0.929 . S
C17 C16 1.362 . S
C17 C18 1.366 . S
C18 C15 1.365 . S
C18 C17 1.366 . S
C18 H32 0.930 . S
C19 C16 1.378 . S
C19 N20 1.315 . S
C19 H22 0.930 . S
N20 Co0 2.194 . S
N20 C15 1.328 . S
N20 C19 1.315 . S
H21 C15 0.929 . S
H22 C19 0.930 . S
H23 C11 0.929 . S
H24 C13 0.929 . S
O25 Co0 2.351 . S
O25 C28 1.244 . S
O26 Co0 2.155 . S
O26 C28 1.240 . S
O27 Co0 2.096 1_556 S
O27 C8 1.247 . S
C28 O25 1.244 . S
C28 O26 1.240 . S
H29 C3 0.931 . S
H30 C12 0.931 . S
H31 C16 0.929 . S
H32 C18 0.930 . S
Co33 N37 2.148 . S
Co33 N43 2.128 1_554 S
Co33 N53 2.194 . S
Co33 O58 2.351 1_545 S
Co33 O59 2.155 1_545 S
Co33 O60 2.096 1_554 S
C34 N37 1.301 . S
C34 N38 1.328 . S
C34 H39 0.930 . S
C35 C36 1.333 . S
C35 N37 1.317 . S
C35 H40 0.930 . S
C36 C35 1.333 . S
C36 N38 1.350 . S
C36 H62 0.931 . S
N37 Co33 2.148 . S
N37 C34 1.301 . S
N37 C35 1.317 . S
N38 C34 1.328 . S
N38 C36 1.350 . S
H39 C34 0.930 . S
H40 C35 0.930 . S
C41 O42 1.224 . S
C41 O60 1.247 . S
O42 C41 1.224 . S
N43 Co33 2.128 1_556 S
N43 C44 1.355 . S
N43 C46 1.311 . S
C44 N43 1.355 . S
C44 C45 1.363 . S
C44 H56 0.929 . S
C45 C44 1.363 . S
C45 N47 1.375 . S
C45 H63 0.931 . S
C46 N43 1.311 . S
C46 N47 1.347 . S
C46 H57 0.929 . S
N47 C45 1.375 . S
N47 C46 1.347 . S
C48 C51 1.365 . S
C48 N53 1.328 . S
C48 H54 0.929 . S
C49 C50 1.362 . S
C49 C52 1.378 . S
C49 H64 0.929 . S
C50 C49 1.362 . S
C50 C51 1.366 . S
C51 C48 1.365 . S
C51 C50 1.366 . S
C51 H65 0.930 . S
C52 C49 1.378 . S
C52 N53 1.315 . S
C52 H55 0.930 . S
N53 Co33 2.194 . S
N53 C48 1.328 . S
N53 C52 1.315 . S
H54 C48 0.929 . S
H55 C52 0.930 . S
H56 C44 0.929 . S
H57 C46 0.929 . S
O58 Co33 2.351 1_565 S
O58 C61 1.244 . S
O59 Co33 2.155 1_565 S
O59 C61 1.240 . S
O60 Co33 2.096 1_556 S
O60 C41 1.247 . S
C61 O58 1.244 . S
C61 O59 1.240 . S
H62 C36 0.931 . S
H63 C45 0.931 . S
H64 C49 0.929 . S
H65 C51 0.930 . S
Co66 N70 2.148 . S
Co66 N76 2.128 1_554 S
Co66 N86 2.194 . S
Co66 O91 2.351 1_655 S
Co66 O92 2.155 1_655 S
Co66 O93 2.096 1_554 S
C67 N70 1.301 . S
C67 N71 1.328 . S
C67 H72 0.930 . S
C68 C69 1.333 . S
C68 N70 1.317 . S
C68 H73 0.930 . S
C69 C68 1.333 . S
C69 N71 1.350 . S
C69 H95 0.931 . S
N70 Co66 2.148 . S
N70 C67 1.301 . S
N70 C68 1.317 . S
N71 C67 1.328 . S
N71 C69 1.350 . S
H72 C67 0.930 . S
H73 C68 0.930 . S
C74 O75 1.224 . S
C74 O93 1.247 . S
O75 C74 1.224 . S
N76 Co66 2.128 1_556 S
N76 C77 1.355 . S
N76 C79 1.311 . S
C77 N76 1.355 . S
C77 C78 1.363 . S
C77 H89 0.929 . S
C78 C77 1.363 . S
C78 N80 1.375 . S
C78 H96 0.931 . S
C79 N76 1.311 . S
C79 N80 1.347 . S
C79 H90 0.929 . S
N80 C78 1.375 . S
N80 C79 1.347 . S
C81 C84 1.365 . S
C81 N86 1.328 . S
C81 H87 0.929 . S
C82 C83 1.362 . S
C82 C85 1.378 . S
C82 H97 0.929 . S
C83 C82 1.362 . S
C83 C84 1.366 . S
C84 C81 1.365 . S
C84 C83 1.366 . S
C84 H98 0.930 . S
C85 C82 1.378 . S
C85 N86 1.315 . S
C85 H88 0.930 . S
N86 Co66 2.194 . S
N86 C81 1.328 . S
N86 C85 1.315 . S
H87 C81 0.929 . S
H88 C85 0.930 . S
H89 C77 0.929 . S
H90 C79 0.929 . S
O91 Co66 2.351 1_455 S
O91 C94 1.244 . S
O92 Co66 2.155 1_455 S
O92 C94 1.240 . S
O93 Co66 2.096 1_556 S
O93 C74 1.247 . S
C94 O91 1.244 . S
C94 O92 1.240 . S
H95 C69 0.931 . S
H96 C78 0.931 . S
H97 C82 0.929 . S
H98 C84 0.930 . S
Co99 N103 2.148 . S
Co99 N109 2.128 . S
Co99 N119 2.194 . S
Co99 O124 2.351 . S
Co99 O125 2.155 . S
Co99 O126 2.096 . S
C100 N103 1.301 . S
C100 N104 1.328 . S
C100 H105 0.930 . S
C101 C102 1.333 . S
C101 N103 1.317 . S
C101 H106 0.930 . S
C102 C101 1.333 . S
C102 N104 1.350 . S
C102 H128 0.931 . S
N103 Co99 2.148 . S
N103 C100 1.301 . S
N103 C101 1.317 . S
N104 C100 1.328 . S
N104 C102 1.350 . S
H105 C100 0.930 . S
H106 C101 0.930 . S
C107 O108 1.224 . S
C107 O126 1.247 . S
O108 C107 1.224 . S
N109 Co99 2.128 . S
N109 C110 1.355 . S
N109 C112 1.311 . S
C110 N109 1.355 . S
C110 C111 1.363 . S
C110 H122 0.929 . S
C111 C110 1.363 . S
C111 N113 1.375 . S
C111 H129 0.931 . S
C112 N109 1.311 . S
C112 N113 1.347 . S
C112 H123 0.929 . S
N113 C111 1.375 . S
N113 C112 1.347 . S
C114 C117 1.365 . S
C114 N119 1.328 . S
C114 H120 0.929 . S
C115 C116 1.362 . S
C115 C118 1.378 . S
C115 H130 0.929 . S
C116 C115 1.362 . S
C116 C117 1.366 . S
C117 C114 1.365 . S
C117 C116 1.366 . S
C117 H131 0.930 . S
C118 C115 1.378 . S
C118 N119 1.315 . S
C118 H121 0.930 . S
N119 Co99 2.194 . S
N119 C114 1.328 . S
N119 C118 1.315 . S
H120 C114 0.929 . S
H121 C118 0.930 . S
H122 C110 0.929 . S
H123 C112 0.929 . S
O124 Co99 2.351 . S
O124 C127 1.244 . S
O125 Co99 2.155 . S
O125 C127 1.240 . S
O126 Co99 2.096 . S
O126 C107 1.247 . S
C127 O124 1.244 . S
C127 O125 1.240 . S
H128 C102 0.931 . S
H129 C111 0.931 . S
H130 C115 0.929 . S
H131 C117 0.930 . S
Co132 N136 2.148 . S
Co132 N142 2.128 . S
Co132 N152 2.194 . S
Co132 O157 2.351 1_565 S
Co132 O158 2.155 1_565 S
Co132 O159 2.096 . S
C133 N136 1.301 . S
C133 N137 1.328 . S
C133 H138 0.930 . S
C134 C135 1.333 . S
C134 N136 1.317 . S
C134 H139 0.930 . S
C135 C134 1.333 . S
C135 N137 1.350 . S
C135 H161 0.931 . S
N136 Co132 2.148 . S
N136 C133 1.301 . S
N136 C134 1.317 . S
N137 C133 1.328 . S
N137 C135 1.350 . S
H138 C133 0.930 . S
H139 C134 0.930 . S
C140 O141 1.224 . S
C140 O159 1.247 . S
O141 C140 1.224 . S
N142 Co132 2.128 . S
N142 C143 1.355 . S
N142 C145 1.311 . S
C143 N142 1.355 . S
C143 C144 1.363 . S
C143 H155 0.929 . S
C144 C143 1.363 . S
C144 N146 1.375 . S
C144 H162 0.931 . S
C145 N142 1.311 . S
C145 N146 1.347 . S
C145 H156 0.929 . S
N146 C144 1.375 . S
N146 C145 1.347 . S
C147 C150 1.365 . S
C147 N152 1.328 . S
C147 H153 0.929 . S
C148 C149 1.362 . S
C148 C151 1.378 . S
C148 H163 0.929 . S
C149 C148 1.362 . S
C149 C150 1.366 . S
C150 C147 1.365 . S
C150 C149 1.366 . S
C150 H164 0.930 . S
C151 C148 1.378 . S
C151 N152 1.315 . S
C151 H154 0.930 . S
N152 Co132 2.194 . S
N152 C147 1.328 . S
N152 C151 1.315 . S
H153 C147 0.929 . S
H154 C151 0.930 . S
H155 C143 0.929 . S
H156 C145 0.929 . S
O157 Co132 2.351 1_545 S
O157 C160 1.244 . S
O158 Co132 2.155 1_545 S
O158 C160 1.240 . S
O159 Co132 2.096 . S
O159 C140 1.247 . S
C160 O157 1.244 . S
C160 O158 1.240 . S
H161 C135 0.931 . S
H162 C144 0.931 . S
H163 C148 0.929 . S
H164 C150 0.930 . S
Co165 N169 2.148 . S
Co165 N175 2.128 . S
Co165 N185 2.194 . S
Co165 O190 2.351 1_455 S
Co165 O191 2.155 1_455 S
Co165 O192 2.096 . S
C166 N169 1.301 . S
C166 N170 1.328 . S
C166 H171 0.930 . S
C167 C168 1.333 . S
C167 N169 1.317 . S
C167 H172 0.930 . S
C168 C167 1.333 . S
C168 N170 1.350 . S
C168 H194 0.931 . S
N169 Co165 2.148 . S
N169 C166 1.301 . S
N169 C167 1.317 . S
N170 C166 1.328 . S
N170 C168 1.350 . S
H171 C166 0.930 . S
H172 C167 0.930 . S
C173 O174 1.224 . S
C173 O192 1.247 . S
O174 C173 1.224 . S
N175 Co165 2.128 . S
N175 C176 1.355 . S
N175 C178 1.311 . S
C176 N175 1.355 . S
C176 C177 1.363 . S
C176 H188 0.929 . S
C177 C176 1.363 . S
C177 N179 1.375 . S
C177 H195 0.931 . S
C178 N175 1.311 . S
C178 N179 1.347 . S
C178 H189 0.929 . S
N179 C177 1.375 . S
N179 C178 1.347 . S
C180 C183 1.365 . S
C180 N185 1.328 . S
C180 H186 0.929 . S
C181 C182 1.362 . S
C181 C184 1.378 . S
C181 H196 0.929 . S
C182 C181 1.362 . S
C182 C183 1.366 . S
C183 C180 1.365 . S
C183 C182 1.366 . S
C183 H197 0.930 . S
C184 C181 1.378 . S
C184 N185 1.315 . S
C184 H187 0.930 . S
N185 Co165 2.194 . S
N185 C180 1.328 . S
N185 C184 1.315 . S
H186 C180 0.929 . S
H187 C184 0.930 . S
H188 C176 0.929 . S
H189 C178 0.929 . S
O190 Co165 2.351 1_655 S
O190 C193 1.244 . S
O191 Co165 2.155 1_655 S
O191 C193 1.240 . S
O192 Co165 2.096 . S
O192 C173 1.247 . S
C193 O190 1.244 . S
C193 O191 1.240 . S
H194 C168 0.931 . S
H195 C177 0.931 . S
H196 C181 0.929 . S
H197 C183 0.930 . S
Co198 N202 2.148 1_554 S
Co198 N208 2.128 . S
Co198 N218 2.194 . S
Co198 O223 2.351 . S
Co198 O224 2.155 . S
Co198 O225 2.096 . S
C199 N202 1.301 . S
C199 N203 1.328 . S
C199 H204 0.930 . S
C200 C201 1.333 . S
C200 N202 1.317 . S
C200 H205 0.930 . S
C201 C200 1.333 . S
C201 N203 1.350 . S
C201 H227 0.931 . S
N202 Co198 2.148 1_556 S
N202 C199 1.301 . S
N202 C200 1.317 . S
N203 C199 1.328 . S
N203 C201 1.350 . S
H204 C199 0.930 . S
H205 C200 0.930 . S
C206 O207 1.224 . S
C206 O225 1.247 . S
O207 C206 1.224 . S
N208 Co198 2.128 . S
N208 C209 1.355 . S
N208 C211 1.311 . S
C209 N208 1.355 . S
C209 C210 1.363 . S
C209 H221 0.929 . S
C210 C209 1.363 . S
C210 N212 1.375 . S
C210 H228 0.931 . S
C211 N208 1.311 . S
C211 N212 1.347 . S
C211 H222 0.929 . S
N212 C210 1.375 . S
N212 C211 1.347 . S
C213 C216 1.365 . S
C213 N218 1.328 . S
C213 H219 0.936 . S
C214 C215 1.362 . S
C214 C217 1.378 . S
C214 H229 0.929 . S
C215 C214 1.362 . S
C215 C216 1.366 . S
C216 C213 1.365 . S
C216 C215 1.366 . S
C216 H230 0.926 1_554 S
C217 C214 1.378 . S
C217 N218 1.315 . S
C217 H220 0.930 . S
N218 Co198 2.194 . S
N218 C213 1.328 . S
N218 C217 1.315 . S
H219 C213 0.936 . S
H220 C217 0.930 . S
H221 C209 0.929 . S
H222 C211 0.929 . S
O223 Co198 2.351 . S
O223 C226 1.244 . S
O224 Co198 2.155 . S
O224 C226 1.240 . S
O225 Co198 2.096 . S
O225 C206 1.247 . S
C226 O223 1.244 . S
C226 O224 1.240 . S
H227 C201 0.931 . S
H228 C210 0.931 . S
H229 C214 0.929 . S
H230 C216 0.926 1_556 S
Co231 N235 2.148 1_554 S
Co231 N241 2.128 . S
Co231 N251 2.194 . S
Co231 O256 2.351 1_565 S
Co231 O257 2.155 1_565 S
Co231 O258 2.096 . S
C232 N235 1.301 . S
C232 N236 1.328 . S
C232 H237 0.930 . S
C233 C234 1.333 . S
C233 N235 1.317 . S
C233 H238 0.930 . S
C234 C233 1.333 . S
C234 N236 1.350 . S
C234 H260 0.931 . S
N235 Co231 2.148 1_556 S
N235 C232 1.301 . S
N235 C233 1.317 . S
N236 C232 1.328 . S
N236 C234 1.350 . S
H237 C232 0.930 . S
H238 C233 0.930 . S
C239 O240 1.224 . S
C239 O258 1.247 . S
O240 C239 1.224 . S
N241 Co231 2.128 . S
N241 C242 1.355 . S
N241 C244 1.311 . S
C242 N241 1.355 . S
C242 C243 1.363 . S
C242 H254 0.929 . S
C243 C242 1.363 . S
C243 N245 1.375 . S
C243 H261 0.931 . S
C244 N241 1.311 . S
C244 N245 1.347 . S
C244 H255 0.929 . S
N245 C243 1.375 . S
N245 C244 1.347 . S
C246 C249 1.365 . S
C246 N251 1.328 . S
C246 H252 0.936 . S
C247 C248 1.362 . S
C247 C250 1.378 . S
C247 H262 0.929 . S
C248 C247 1.362 . S
C248 C249 1.366 . S
C249 C246 1.365 . S
C249 C248 1.366 . S
C249 H263 0.926 1_554 S
C250 C247 1.378 . S
C250 N251 1.315 . S
C250 H253 0.930 . S
N251 Co231 2.194 . S
N251 C246 1.328 . S
N251 C250 1.315 . S
H252 C246 0.936 . S
H253 C250 0.930 . S
H254 C242 0.929 . S
H255 C244 0.929 . S
O256 Co231 2.351 1_545 S
O256 C259 1.244 . S
O257 Co231 2.155 1_545 S
O257 C259 1.240 . S
O258 Co231 2.096 . S
O258 C239 1.247 . S
C259 O256 1.244 . S
C259 O257 1.240 . S
H260 C234 0.931 . S
H261 C243 0.931 . S
H262 C247 0.929 . S
H263 C249 0.926 1_556 S
Co264 N268 2.148 1_554 S
Co264 N274 2.128 . S
Co264 N284 2.194 . S
Co264 O289 2.351 1_455 S
Co264 O290 2.155 1_455 S
Co264 O291 2.096 . S
C265 N268 1.301 . S
C265 N269 1.328 . S
C265 H270 0.930 . S
C266 C267 1.333 . S
C266 N268 1.317 . S
C266 H271 0.930 . S
C267 C266 1.333 . S
C267 N269 1.350 . S
C267 H293 0.931 . S
N268 Co264 2.148 1_556 S
N268 C265 1.301 . S
N268 C266 1.317 . S
N269 C265 1.328 . S
N269 C267 1.350 . S
H270 C265 0.930 . S
H271 C266 0.930 . S
C272 O273 1.224 . S
C272 O291 1.247 . S
O273 C272 1.224 . S
N274 Co264 2.128 . S
N274 C275 1.355 . S
N274 C277 1.311 . S
C275 N274 1.355 . S
C275 C276 1.363 . S
C275 H287 0.929 . S
C276 C275 1.363 . S
C276 N278 1.375 . S
C276 H294 0.931 . S
C277 N274 1.311 . S
C277 N278 1.347 . S
C277 H288 0.929 . S
N278 C276 1.375 . S
N278 C277 1.347 . S
C279 C282 1.365 . S
C279 N284 1.328 . S
C279 H285 0.936 . S
C280 C281 1.362 . S
C280 C283 1.378 . S
C280 H295 0.929 . S
C281 C280 1.362 . S
C281 C282 1.366 . S
C282 C279 1.365 . S
C282 C281 1.366 . S
C282 H296 0.926 1_554 S
C283 C280 1.378 . S
C283 N284 1.315 . S
C283 H286 0.930 . S
N284 Co264 2.194 . S
N284 C279 1.328 . S
N284 C283 1.315 . S
H285 C279 0.936 . S
H286 C283 0.930 . S
H287 C275 0.929 . S
H288 C277 0.929 . S
O289 Co264 2.351 1_655 S
O289 C292 1.244 . S
O290 Co264 2.155 1_655 S
O290 C292 1.240 . S
O291 Co264 2.096 . S
O291 C272 1.247 . S
C292 O289 1.244 . S
C292 O290 1.240 . S
H293 C267 0.931 . S
H294 C276 0.931 . S
H295 C280 0.929 . S
H296 C282 0.926 1_556 S
Co297 N301 2.148 . S
Co297 N307 2.128 . S
Co297 N317 2.194 . S
Co297 O322 2.351 . S
Co297 O323 2.155 . S
Co297 O324 2.096 . S
C298 N301 1.301 . S
C298 N302 1.328 . S
C298 H303 0.930 . S
C299 C300 1.333 . S
C299 N301 1.317 . S
C299 H304 0.930 . S
C300 C299 1.333 . S
C300 N302 1.350 . S
C300 H326 0.931 . S
N301 Co297 2.148 . S
N301 C298 1.301 . S
N301 C299 1.317 . S
N302 C298 1.328 . S
N302 C300 1.350 . S
H303 C298 0.930 . S
H304 C299 0.930 . S
C305 O306 1.224 . S
C305 O324 1.247 . S
O306 C305 1.224 . S
N307 Co297 2.128 . S
N307 C308 1.355 . S
N307 C310 1.311 . S
C308 N307 1.355 . S
C308 C309 1.363 . S
C308 H320 0.929 . S
C309 C308 1.363 . S
C309 N311 1.375 . S
C309 H327 0.931 . S
C310 N307 1.311 . S
C310 N311 1.347 . S
C310 H321 0.929 . S
N311 C309 1.375 . S
N311 C310 1.347 . S
C312 C315 1.365 . S
C312 N317 1.328 . S
C312 H318 0.929 . S
C313 C314 1.362 . S
C313 C316 1.378 . S
C313 H328 0.929 . S
C314 C313 1.362 . S
C314 C315 1.366 . S
C315 C312 1.365 . S
C315 C314 1.366 . S
C315 H329 0.930 . S
C316 C313 1.378 . S
C316 N317 1.315 . S
C316 H319 0.930 . S
N317 Co297 2.194 . S
N317 C312 1.328 . S
N317 C316 1.315 . S
H318 C312 0.929 . S
H319 C316 0.930 . S
H320 C308 0.929 . S
H321 C310 0.929 . S
O322 Co297 2.351 . S
O322 C325 1.244 . S
O323 Co297 2.155 . S
O323 C325 1.240 . S
O324 Co297 2.096 . S
O324 C305 1.247 . S
C325 O322 1.244 . S
C325 O323 1.240 . S
H326 C300 0.931 . S
H327 C309 0.931 . S
H328 C313 0.929 . S
H329 C315 0.930 . S
Co330 N334 2.148 . S
Co330 N340 2.128 . S
Co330 N350 2.194 . S
Co330 O355 2.351 1_545 S
Co330 O356 2.155 1_545 S
Co330 O357 2.096 . S
C331 N334 1.301 . S
C331 N335 1.328 . S
C331 H336 0.930 . S
C332 C333 1.333 . S
C332 N334 1.317 . S
C332 H337 0.930 . S
C333 C332 1.333 . S
C333 N335 1.350 . S
C333 H359 0.931 . S
N334 Co330 2.148 . S
N334 C331 1.301 . S
N334 C332 1.317 . S
N335 C331 1.328 . S
N335 C333 1.350 . S
H336 C331 0.930 . S
H337 C332 0.930 . S
C338 O339 1.224 . S
C338 O357 1.247 . S
O339 C338 1.224 . S
N340 Co330 2.128 . S
N340 C341 1.355 . S
N340 C343 1.311 . S
C341 N340 1.355 . S
C341 C342 1.363 . S
C341 H353 0.929 . S
C342 C341 1.363 . S
C342 N344 1.375 . S
C342 H360 0.931 . S
C343 N340 1.311 . S
C343 N344 1.347 . S
C343 H354 0.929 . S
N344 C342 1.375 . S
N344 C343 1.347 . S
C345 C348 1.365 . S
C345 N350 1.328 . S
C345 H351 0.929 . S
C346 C347 1.362 . S
C346 C349 1.378 . S
C346 H361 0.929 . S
C347 C346 1.362 . S
C347 C348 1.366 . S
C348 C345 1.365 . S
C348 C347 1.366 . S
C348 H362 0.930 . S
C349 C346 1.378 . S
C349 N350 1.315 . S
C349 H352 0.930 . S
N350 Co330 2.194 . S
N350 C345 1.328 . S
N350 C349 1.315 . S
H351 C345 0.929 . S
H352 C349 0.930 . S
H353 C341 0.929 . S
H354 C343 0.929 . S
O355 Co330 2.351 1_565 S
O355 C358 1.244 . S
O356 Co330 2.155 1_565 S
O356 C358 1.240 . S
O357 Co330 2.096 . S
O357 C338 1.247 . S
C358 O355 1.244 . S
C358 O356 1.240 . S
H359 C333 0.931 . S
H360 C342 0.931 . S
H361 C346 0.929 . S
H362 C348 0.930 . S
Co363 N367 2.148 . S
Co363 N373 2.128 . S
Co363 N383 2.194 . S
Co363 O388 2.351 1_655 S
Co363 O389 2.155 1_655 S
Co363 O390 2.096 . S
C364 N367 1.301 . S
C364 N368 1.328 . S
C364 H369 0.930 . S
C365 C366 1.333 . S
C365 N367 1.317 . S
C365 H370 0.930 . S
C366 C365 1.333 . S
C366 N368 1.350 . S
C366 H392 0.931 . S
N367 Co363 2.148 . S
N367 C364 1.301 . S
N367 C365 1.317 . S
N368 C364 1.328 . S
N368 C366 1.350 . S
H369 C364 0.930 . S
H370 C365 0.930 . S
C371 O372 1.224 . S
C371 O390 1.247 . S
O372 C371 1.224 . S
N373 Co363 2.128 . S
N373 C374 1.355 . S
N373 C376 1.311 . S
C374 N373 1.355 . S
C374 C375 1.363 . S
C374 H386 0.929 . S
C375 C374 1.363 . S
C375 N377 1.375 . S
C375 H393 0.931 . S
C376 N373 1.311 . S
C376 N377 1.347 . S
C376 H387 0.929 . S
N377 C375 1.375 . S
N377 C376 1.347 . S
C378 C381 1.365 . S
C378 N383 1.328 . S
C378 H384 0.929 . S
C379 C380 1.362 . S
C379 C382 1.378 . S
C379 H394 0.929 . S
C380 C379 1.362 . S
C380 C381 1.366 . S
C381 C378 1.365 . S
C381 C380 1.366 . S
C381 H395 0.930 . S
C382 C379 1.378 . S
C382 N383 1.315 . S
C382 H385 0.930 . S
N383 Co363 2.194 . S
N383 C378 1.328 . S
N383 C382 1.315 . S
H384 C378 0.929 . S
H385 C382 0.930 . S
H386 C374 0.929 . S
H387 C376 0.929 . S
O388 Co363 2.351 1_455 S
O388 C391 1.244 . S
O389 Co363 2.155 1_455 S
O389 C391 1.240 . S
O390 Co363 2.096 . S
O390 C371 1.247 . S
C391 O388 1.244 . S
C391 O389 1.240 . S
H392 C366 0.931 . S
H393 C375 0.931 . S
H394 C379 0.929 . S
H395 C381 0.930 . S
Co396 N400 2.148 . S
Co396 N406 2.128 . S
Co396 N416 2.194 . S
Co396 O421 2.351 . S
Co396 O422 2.155 . S
Co396 O423 2.096 . S
C397 N400 1.301 . S
C397 N401 1.328 . S
C397 H402 0.930 . S
C398 C399 1.333 . S
C398 N400 1.317 . S
C398 H403 0.930 . S
C399 C398 1.333 . S
C399 N401 1.350 . S
C399 H425 0.931 . S
N400 Co396 2.148 . S
N400 C397 1.301 . S
N400 C398 1.317 . S
N401 C397 1.328 . S
N401 C399 1.350 . S
H402 C397 0.930 . S
H403 C398 0.930 . S
C404 O405 1.224 . S
C404 O423 1.247 . S
O405 C404 1.224 . S
N406 Co396 2.128 . S
N406 C407 1.355 . S
N406 C409 1.311 . S
C407 N406 1.355 . S
C407 C408 1.363 . S
C407 H419 0.929 . S
C408 C407 1.363 . S
C408 N410 1.375 . S
C408 H426 0.931 . S
C409 N406 1.311 . S
C409 N410 1.347 . S
C409 H420 0.929 . S
N410 C408 1.375 . S
N410 C409 1.347 . S
C411 C414 1.365 . S
C411 N416 1.328 . S
C411 H417 0.929 . S
C412 C413 1.362 . S
C412 C415 1.378 . S
C412 H427 0.929 . S
C413 C412 1.362 . S
C413 C414 1.366 . S
C414 C411 1.365 . S
C414 C413 1.366 . S
C414 H428 0.930 . S
C415 C412 1.378 . S
C415 N416 1.315 . S
C415 H418 0.930 . S
N416 Co396 2.194 . S
N416 C411 1.328 . S
N416 C415 1.315 . S
H417 C411 0.929 . S
H418 C415 0.930 . S
H419 C407 0.929 . S
H420 C409 0.929 . S
O421 Co396 2.351 . S
O421 C424 1.244 . S
O422 Co396 2.155 . S
O422 C424 1.240 . S
O423 Co396 2.096 . S
O423 C404 1.247 . S
C424 O421 1.244 . S
C424 O422 1.240 . S
H425 C399 0.931 . S
H426 C408 0.931 . S
H427 C412 0.929 . S
H428 C414 0.930 . S
Co429 N433 2.148 . S
Co429 N439 2.128 . S
Co429 N449 2.194 . S
Co429 O454 2.351 . S
Co429 O455 2.155 . S
Co429 O456 2.096 . S
C430 N433 1.301 . S
C430 N434 1.328 . S
C430 H435 0.930 . S
C431 C432 1.333 . S
C431 N433 1.317 . S
C431 H436 0.930 . S
C432 C431 1.333 . S
C432 N434 1.350 . S
C432 H458 0.931 . S
N433 Co429 2.148 . S
N433 C430 1.301 . S
N433 C431 1.317 . S
N434 C430 1.328 . S
N434 C432 1.350 . S
H435 C430 0.930 . S
H436 C431 0.930 . S
C437 O438 1.224 . S
C437 O456 1.247 . S
O438 C437 1.224 . S
N439 Co429 2.128 . S
N439 C440 1.355 . S
N439 C442 1.311 . S
C440 N439 1.355 . S
C440 C441 1.363 . S
C440 H452 0.929 . S
C441 C440 1.363 . S
C441 N443 1.375 . S
C441 H459 0.931 . S
C442 N439 1.311 . S
C442 N443 1.347 . S
C442 H453 0.929 . S
N443 C441 1.375 . S
N443 C442 1.347 . S
C444 C447 1.365 . S
C444 N449 1.328 . S
C444 H450 0.929 . S
C445 C446 1.362 . S
C445 C448 1.378 . S
C445 H460 0.929 . S
C446 C445 1.362 . S
C446 C447 1.366 . S
C447 C444 1.365 . S
C447 C446 1.366 . S
C447 H461 0.930 . S
C448 C445 1.378 . S
C448 N449 1.315 . S
C448 H451 0.930 . S
N449 Co429 2.194 . S
N449 C444 1.328 . S
N449 C448 1.315 . S
H450 C444 0.929 . S
H451 C448 0.930 . S
H452 C440 0.929 . S
H453 C442 0.929 . S
O454 Co429 2.351 . S
O454 C457 1.244 . S
O455 Co429 2.155 . S
O455 C457 1.240 . S
O456 Co429 2.096 . S
O456 C437 1.247 . S
C457 O454 1.244 . S
C457 O455 1.240 . S
H458 C432 0.931 . S
H459 C441 0.931 . S
H460 C445 0.929 . S
H461 C447 0.930 . S
Co462 N466 2.148 . S
Co462 N472 2.128 . S
Co462 N482 2.194 . S
Co462 O487 2.351 . S
Co462 O488 2.155 . S
Co462 O489 2.096 . S
C463 N466 1.301 . S
C463 N467 1.328 . S
C463 H468 0.930 . S
C464 C465 1.333 . S
C464 N466 1.317 . S
C464 H469 0.930 . S
C465 C464 1.333 . S
C465 N467 1.350 . S
C465 H491 0.931 . S
N466 Co462 2.148 . S
N466 C463 1.301 . S
N466 C464 1.317 . S
N467 C463 1.328 . S
N467 C465 1.350 . S
H468 C463 0.930 . S
H469 C464 0.930 . S
C470 O471 1.224 . S
C470 O489 1.247 . S
O471 C470 1.224 . S
N472 Co462 2.128 . S
N472 C473 1.355 . S
N472 C475 1.311 . S
C473 N472 1.355 . S
C473 C474 1.363 . S
C473 H485 0.929 . S
C474 C473 1.363 . S
C474 N476 1.375 . S
C474 H492 0.931 . S
C475 N472 1.311 . S
C475 N476 1.347 . S
C475 H486 0.929 . S
N476 C474 1.375 . S
N476 C475 1.347 . S
C477 C480 1.365 . S
C477 N482 1.328 . S
C477 H483 0.929 . S
C478 C479 1.362 . S
C478 C481 1.378 . S
C478 H493 0.929 . S
C479 C478 1.362 . S
C479 C480 1.366 . S
C480 C477 1.365 . S
C480 C479 1.366 . S
C480 H494 0.930 . S
C481 C478 1.378 . S
C481 N482 1.315 . S
C481 H484 0.930 . S
N482 Co462 2.194 . S
N482 C477 1.328 . S
N482 C481 1.315 . S
H483 C477 0.929 . S
H484 C481 0.930 . S
H485 C473 0.929 . S
H486 C475 0.929 . S
O487 Co462 2.351 . S
O487 C490 1.244 . S
O488 Co462 2.155 . S
O488 C490 1.240 . S
O489 Co462 2.096 . S
O489 C470 1.247 . S
C490 O487 1.244 . S
C490 O488 1.240 . S
H491 C465 0.931 . S
H492 C474 0.931 . S
H493 C478 0.929 . S
H494 C480 0.930 . S
Co495 N499 2.148 . S
Co495 N505 2.128 . S
Co495 N515 2.194 . S
Co495 O520 2.351 . S
Co495 O521 2.155 . S
Co495 O522 2.096 . S
C496 N499 1.301 . S
C496 N500 1.328 . S
C496 H501 0.930 . S
C497 C498 1.333 . S
C497 N499 1.317 . S
C497 H502 0.930 . S
C498 C497 1.333 . S
C498 N500 1.350 . S
C498 H524 0.931 . S
N499 Co495 2.148 . S
N499 C496 1.301 . S
N499 C497 1.317 . S
N500 C496 1.328 . S
N500 C498 1.350 . S
H501 C496 0.930 . S
H502 C497 0.930 . S
C503 O504 1.224 . S
C503 O522 1.247 . S
O504 C503 1.224 . S
N505 Co495 2.128 . S
N505 C506 1.355 . S
N505 C508 1.311 . S
C506 N505 1.355 . S
C506 C507 1.363 . S
C506 H518 0.929 . S
C507 C506 1.363 . S
C507 N509 1.375 . S
C507 H525 0.931 1_556 S
C508 N505 1.311 . S
C508 N509 1.347 . S
C508 H519 0.929 . S
N509 C507 1.375 . S
N509 C508 1.347 . S
C510 C513 1.365 . S
C510 N515 1.328 . S
C510 H516 0.929 . S
C511 C512 1.362 . S
C511 C514 1.378 . S
C511 H526 0.929 . S
C512 C511 1.362 . S
C512 C513 1.366 . S
C513 C510 1.365 . S
C513 C512 1.366 . S
C513 H527 0.930 . S
C514 C511 1.378 . S
C514 N515 1.315 . S
C514 H517 0.930 . S
N515 Co495 2.194 . S
N515 C510 1.328 . S
N515 C514 1.315 . S
H516 C510 0.929 . S
H517 C514 0.930 . S
H518 C506 0.929 . S
H519 C508 0.929 . S
O520 Co495 2.351 . S
O520 C523 1.244 . S
O521 Co495 2.155 . S
O521 C523 1.240 . S
O522 Co495 2.096 . S
O522 C503 1.247 . S
C523 O520 1.244 . S
C523 O521 1.240 . S
H524 C498 0.931 . S
H525 C507 0.931 1_554 S
H526 C511 0.929 . S
H527 C513 0.930 . S
Co528 N532 2.148 . S
Co528 N538 2.128 . S
Co528 N548 2.194 . S
Co528 O553 2.351 . S
Co528 O554 2.155 . S
Co528 O555 2.096 . S
C529 N532 1.301 . S
C529 N533 1.328 . S
C529 H534 0.930 . S
C530 C531 1.333 . S
C530 N532 1.317 . S
C530 H535 0.930 . S
C531 C530 1.333 . S
C531 N533 1.350 . S
C531 H557 0.931 . S
N532 Co528 2.148 . S
N532 C529 1.301 . S
N532 C530 1.317 . S
N533 C529 1.328 . S
N533 C531 1.350 . S
H534 C529 0.930 . S
H535 C530 0.930 . S
C536 O537 1.224 . S
C536 O555 1.247 . S
O537 C536 1.224 . S
N538 Co528 2.128 . S
N538 C539 1.355 . S
N538 C541 1.311 . S
C539 N538 1.355 . S
C539 C540 1.363 . S
C539 H551 0.929 . S
C540 C539 1.363 . S
C540 N542 1.375 . S
C540 H558 0.931 1_556 S
C541 N538 1.311 . S
C541 N542 1.347 . S
C541 H552 0.929 . S
N542 C540 1.375 . S
N542 C541 1.347 . S
C543 C546 1.365 . S
C543 N548 1.328 . S
C543 H549 0.929 . S
C544 C545 1.362 . S
C544 C547 1.378 . S
C544 H559 0.929 . S
C545 C544 1.362 . S
C545 C546 1.366 . S
C546 C543 1.365 . S
C546 C545 1.366 . S
C546 H560 0.930 . S
C547 C544 1.378 . S
C547 N548 1.315 . S
C547 H550 0.930 . S
N548 Co528 2.194 . S
N548 C543 1.328 . S
N548 C547 1.315 . S
H549 C543 0.929 . S
H550 C547 0.930 . S
H551 C539 0.929 . S
H552 C541 0.929 . S
O553 Co528 2.351 . S
O553 C556 1.244 . S
O554 Co528 2.155 . S
O554 C556 1.240 . S
O555 Co528 2.096 . S
O555 C536 1.247 . S
C556 O553 1.244 . S
C556 O554 1.240 . S
H557 C531 0.931 . S
H558 C540 0.931 1_554 S
H559 C544 0.929 . S
H560 C546 0.930 . S
Co561 N565 2.148 . S
Co561 N571 2.128 . S
Co561 N581 2.194 . S
Co561 O586 2.351 . S
Co561 O587 2.155 . S
Co561 O588 2.096 . S
C562 N565 1.301 . S
C562 N566 1.328 . S
C562 H567 0.930 . S
C563 C564 1.333 . S
C563 N565 1.317 . S
C563 H568 0.930 . S
C564 C563 1.333 . S
C564 N566 1.350 . S
C564 H590 0.931 . S
N565 Co561 2.148 . S
N565 C562 1.301 . S
N565 C563 1.317 . S
N566 C562 1.328 . S
N566 C564 1.350 . S
H567 C562 0.930 . S
H568 C563 0.930 . S
C569 O570 1.224 . S
C569 O588 1.247 . S
O570 C569 1.224 . S
N571 Co561 2.128 . S
N571 C572 1.355 . S
N571 C574 1.311 . S
C572 N571 1.355 . S
C572 C573 1.363 . S
C572 H584 0.929 . S
C573 C572 1.363 . S
C573 N575 1.375 . S
C573 H591 0.931 1_556 S
C574 N571 1.311 . S
C574 N575 1.347 . S
C574 H585 0.929 . S
N575 C573 1.375 . S
N575 C574 1.347 . S
C576 C579 1.365 . S
C576 N581 1.328 . S
C576 H582 0.929 . S
C577 C578 1.362 . S
C577 C580 1.378 . S
C577 H592 0.929 . S
C578 C577 1.362 . S
C578 C579 1.366 . S
C579 C576 1.365 . S
C579 C578 1.366 . S
C579 H593 0.930 . S
C580 C577 1.378 . S
C580 N581 1.315 . S
C580 H583 0.930 . S
N581 Co561 2.194 . S
N581 C576 1.328 . S
N581 C580 1.315 . S
H582 C576 0.929 . S
H583 C580 0.930 . S
H584 C572 0.929 . S
H585 C574 0.929 . S
O586 Co561 2.351 . S
O586 C589 1.244 . S
O587 Co561 2.155 . S
O587 C589 1.240 . S
O588 Co561 2.096 . S
O588 C569 1.247 . S
C589 O586 1.244 . S
C589 O587 1.240 . S
H590 C564 0.931 . S
H591 C573 0.931 1_554 S
H592 C577 0.929 . S
H593 C579 0.930 . S
Co594 N598 2.148 . S
Co594 N604 2.128 . S
Co594 N614 2.194 . S
Co594 O619 2.351 . S
Co594 O620 2.155 . S
Co594 O621 2.096 . S
C595 N598 1.301 . S
C595 N599 1.328 . S
C595 H600 0.930 . S
C596 C597 1.333 . S
C596 N598 1.317 . S
C596 H601 0.930 . S
C597 C596 1.333 . S
C597 N599 1.350 . S
C597 H623 0.931 . S
N598 Co594 2.148 . S
N598 C595 1.301 . S
N598 C596 1.317 . S
N599 C595 1.328 . S
N599 C597 1.350 . S
H600 C595 0.930 . S
H601 C596 0.930 . S
C602 O603 1.224 . S
C602 O621 1.247 . S
O603 C602 1.224 . S
N604 Co594 2.128 . S
N604 C605 1.355 . S
N604 C607 1.311 . S
C605 N604 1.355 . S
C605 C606 1.363 . S
C605 H617 0.929 . S
C606 C605 1.363 . S
C606 N608 1.375 . S
C606 H624 0.931 . S
C607 N604 1.311 . S
C607 N608 1.347 . S
C607 H618 0.929 . S
N608 C606 1.375 . S
N608 C607 1.347 . S
C609 C612 1.365 . S
C609 N614 1.328 . S
C609 H615 0.929 . S
C610 C611 1.362 . S
C610 C613 1.378 . S
C610 H625 0.929 . S
C611 C610 1.362 . S
C611 C612 1.366 . S
C612 C609 1.365 . S
C612 C611 1.366 . S
C612 H626 0.930 . S
C613 C610 1.378 . S
C613 N614 1.315 . S
C613 H616 0.930 . S
N614 Co594 2.194 . S
N614 C609 1.328 . S
N614 C613 1.315 . S
H615 C609 0.929 . S
H616 C613 0.930 . S
H617 C605 0.929 . S
H618 C607 0.929 . S
O619 Co594 2.351 . S
O619 C622 1.244 . S
O620 Co594 2.155 . S
O620 C622 1.240 . S
O621 Co594 2.096 . S
O621 C602 1.247 . S
C622 O619 1.244 . S
C622 O620 1.240 . S
H623 C597 0.931 . S
H624 C606 0.931 . S
H625 C610 0.929 . S
H626 C612 0.930 . S
Co627 N631 2.148 . S
Co627 N637 2.128 . S
Co627 N647 2.194 . S
Co627 O652 2.351 . S
Co627 O653 2.155 . S
Co627 O654 2.096 . S
C628 N631 1.301 . S
C628 N632 1.328 . S
C628 H633 0.930 . S
C629 C630 1.333 . S
C629 N631 1.317 . S
C629 H634 0.930 . S
C630 C629 1.333 . S
C630 N632 1.350 . S
C630 H656 0.931 . S
N631 Co627 2.148 . S
N631 C628 1.301 . S
N631 C629 1.317 . S
N632 C628 1.328 . S
N632 C630 1.350 . S
H633 C628 0.930 . S
H634 C629 0.930 . S
C635 O636 1.224 . S
C635 O654 1.247 . S
O636 C635 1.224 . S
N637 Co627 2.128 . S
N637 C638 1.355 . S
N637 C640 1.311 . S
C638 N637 1.355 . S
C638 C639 1.363 . S
C638 H650 0.929 . S
C639 C638 1.363 . S
C639 N641 1.375 . S
C639 H657 0.931 . S
C640 N637 1.311 . S
C640 N641 1.347 . S
C640 H651 0.929 . S
N641 C639 1.375 . S
N641 C640 1.347 . S
C642 C645 1.365 . S
C642 N647 1.328 . S
C642 H648 0.929 . S
C643 C644 1.362 . S
C643 C646 1.378 . S
C643 H658 0.929 . S
C644 C643 1.362 . S
C644 C645 1.366 . S
C645 C642 1.365 . S
C645 C644 1.366 . S
C645 H659 0.930 . S
C646 C643 1.378 . S
C646 N647 1.315 . S
C646 H649 0.930 . S
N647 Co627 2.194 . S
N647 C642 1.328 . S
N647 C646 1.315 . S
H648 C642 0.929 . S
H649 C646 0.930 . S
H650 C638 0.929 . S
H651 C640 0.929 . S
O652 Co627 2.351 . S
O652 C655 1.244 . S
O653 Co627 2.155 . S
O653 C655 1.240 . S
O654 Co627 2.096 . S
O654 C635 1.247 . S
C655 O652 1.244 . S
C655 O653 1.240 . S
H656 C630 0.931 . S
H657 C639 0.931 . S
H658 C643 0.929 . S
H659 C645 0.930 . S
Co660 N664 2.148 . S
Co660 N670 2.128 . S
Co660 N680 2.194 . S
Co660 O685 2.351 . S
Co660 O686 2.155 . S
Co660 O687 2.096 . S
C661 N664 1.301 . S
C661 N665 1.328 . S
C661 H666 0.930 . S
C662 C663 1.333 . S
C662 N664 1.317 . S
C662 H667 0.930 . S
C663 C662 1.333 . S
C663 N665 1.350 . S
C663 H689 0.931 . S
N664 Co660 2.148 . S
N664 C661 1.301 . S
N664 C662 1.317 . S
N665 C661 1.328 . S
N665 C663 1.350 . S
H666 C661 0.930 . S
H667 C662 0.930 . S
C668 O669 1.224 . S
C668 O687 1.247 . S
O669 C668 1.224 . S
N670 Co660 2.128 . S
N670 C671 1.355 . S
N670 C673 1.311 . S
C671 N670 1.355 . S
C671 C672 1.363 . S
C671 H683 0.929 . S
C672 C671 1.363 . S
C672 N674 1.375 . S
C672 H690 0.931 . S
C673 N670 1.311 . S
C673 N674 1.347 . S
C673 H684 0.929 . S
N674 C672 1.375 . S
N674 C673 1.347 . S
C675 C678 1.365 . S
C675 N680 1.328 . S
C675 H681 0.929 . S
C676 C677 1.362 . S
C676 C679 1.378 . S
C676 H691 0.929 . S
C677 C676 1.362 . S
C677 C678 1.366 . S
C678 C675 1.365 . S
C678 C677 1.366 . S
C678 H692 0.930 . S
C679 C676 1.378 . S
C679 N680 1.315 . S
C679 H682 0.930 . S
N680 Co660 2.194 . S
N680 C675 1.328 . S
N680 C679 1.315 . S
H681 C675 0.929 . S
H682 C679 0.930 . S
H683 C671 0.929 . S
H684 C673 0.929 . S
O685 Co660 2.351 . S
O685 C688 1.244 . S
O686 Co660 2.155 . S
O686 C688 1.240 . S
O687 Co660 2.096 . S
O687 C668 1.247 . S
C688 O685 1.244 . S
C688 O686 1.240 . S
H689 C663 0.931 . S
H690 C672 0.931 . S
H691 C676 0.929 . S
H692 C678 0.930 . S
Co693 N697 2.148 . S
Co693 N703 2.128 . S
Co693 N713 2.194 . S
Co693 O718 2.351 . S
Co693 O719 2.155 . S
Co693 O720 2.096 . S
C694 N697 1.301 . S
C694 N698 1.328 . S
C694 H699 0.930 . S
C695 C696 1.333 . S
C695 N697 1.317 . S
C695 H700 0.930 . S
C696 C695 1.333 . S
C696 N698 1.350 . S
C696 H722 0.931 . S
N697 Co693 2.148 . S
N697 C694 1.301 . S
N697 C695 1.317 . S
N698 C694 1.328 . S
N698 C696 1.350 . S
H699 C694 0.930 . S
H700 C695 0.930 . S
C701 O702 1.224 . S
C701 O720 1.247 . S
O702 C701 1.224 . S
N703 Co693 2.128 . S
N703 C704 1.355 . S
N703 C706 1.311 . S
C704 N703 1.355 . S
C704 C705 1.363 . S
C704 H716 0.929 . S
C705 C704 1.363 . S
C705 N707 1.375 . S
C705 H723 0.931 . S
C706 N703 1.311 . S
C706 N707 1.347 . S
C706 H717 0.929 . S
N707 C705 1.375 . S
N707 C706 1.347 . S
C708 C711 1.365 . S
C708 N713 1.328 . S
C708 H714 0.929 . S
C709 C710 1.362 . S
C709 C712 1.378 . S
C709 H724 0.929 . S
C710 C709 1.362 . S
C710 C711 1.366 . S
C711 C708 1.365 . S
C711 C710 1.366 . S
C711 H725 0.930 . S
C712 C709 1.378 . S
C712 N713 1.315 . S
C712 H715 0.930 . S
N713 Co693 2.194 . S
N713 C708 1.328 . S
N713 C712 1.315 . S
H714 C708 0.929 . S
H715 C712 0.930 . S
H716 C704 0.929 . S
H717 C706 0.929 . S
O718 Co693 2.351 . S
O718 C721 1.244 . S
O719 Co693 2.155 . S
O719 C721 1.240 . S
O720 Co693 2.096 . S
O720 C701 1.247 . S
C721 O718 1.244 . S
C721 O719 1.240 . S
H722 C696 0.931 . S
H723 C705 0.931 . S
H724 C709 0.929 . S
H725 C711 0.930 . S
Co726 N730 2.148 . S
Co726 N736 2.128 . S
Co726 N746 2.194 . S
Co726 O751 2.351 . S
Co726 O752 2.155 . S
Co726 O753 2.096 . S
C727 N730 1.301 . S
C727 N731 1.328 . S
C727 H732 0.930 . S
C728 C729 1.333 . S
C728 N730 1.317 . S
C728 H733 0.930 . S
C729 C728 1.333 . S
C729 N731 1.350 . S
C729 H755 0.931 . S
N730 Co726 2.148 . S
N730 C727 1.301 . S
N730 C728 1.317 . S
N731 C727 1.328 . S
N731 C729 1.350 . S
H732 C727 0.930 . S
H733 C728 0.930 . S
C734 O735 1.224 . S
C734 O753 1.247 . S
O735 C734 1.224 . S
N736 Co726 2.128 . S
N736 C737 1.355 . S
N736 C739 1.311 . S
C737 N736 1.355 . S
C737 C738 1.363 . S
C737 H749 0.929 . S
C738 C737 1.363 . S
C738 N740 1.375 . S
C738 H756 0.931 . S
C739 N736 1.311 . S
C739 N740 1.347 . S
C739 H750 0.929 . S
N740 C738 1.375 . S
N740 C739 1.347 . S
C741 C744 1.365 . S
C741 N746 1.328 . S
C741 H747 0.929 . S
C742 C743 1.362 . S
C742 C745 1.378 . S
C742 H757 0.929 . S
C743 C742 1.362 . S
C743 C744 1.366 . S
C744 C741 1.365 . S
C744 C743 1.366 . S
C744 H758 0.930 . S
C745 C742 1.378 . S
C745 N746 1.315 . S
C745 H748 0.930 . S
N746 Co726 2.194 . S
N746 C741 1.328 . S
N746 C745 1.315 . S
H747 C741 0.929 . S
H748 C745 0.930 . S
H749 C737 0.929 . S
H750 C739 0.929 . S
O751 Co726 2.351 . S
O751 C754 1.244 . S
O752 Co726 2.155 . S
O752 C754 1.240 . S
O753 Co726 2.096 . S
O753 C734 1.247 . S
C754 O751 1.244 . S
C754 O752 1.240 . S
H755 C729 0.931 . S
H756 C738 0.931 . S
H757 C742 0.929 . S
H758 C744 0.930 . S
Co759 N763 2.148 . S
Co759 N769 2.128 . S
Co759 N779 2.194 . S
Co759 O784 2.351 . S
Co759 O785 2.155 . S
Co759 O786 2.096 . S
C760 N763 1.301 . S
C760 N764 1.328 . S
C760 H765 0.930 . S
C761 C762 1.333 . S
C761 N763 1.317 . S
C761 H766 0.930 . S
C762 C761 1.333 . S
C762 N764 1.350 . S
C762 H788 0.931 . S
N763 Co759 2.148 . S
N763 C760 1.301 . S
N763 C761 1.317 . S
N764 C760 1.328 . S
N764 C762 1.350 . S
H765 C760 0.930 . S
H766 C761 0.930 . S
C767 O768 1.224 . S
C767 O786 1.247 . S
O768 C767 1.224 . S
N769 Co759 2.128 . S
N769 C770 1.355 . S
N769 C772 1.311 . S
C770 N769 1.355 . S
C770 C771 1.363 . S
C770 H782 0.929 . S
C771 C770 1.363 . S
C771 N773 1.375 . S
C771 H789 0.931 . S
C772 N769 1.311 . S
C772 N773 1.347 . S
C772 H783 0.929 . S
N773 C771 1.375 . S
N773 C772 1.347 . S
C774 C777 1.365 . S
C774 N779 1.328 . S
C774 H780 0.929 . S
C775 C776 1.362 . S
C775 C778 1.378 . S
C775 H790 0.929 . S
C776 C775 1.362 . S
C776 C777 1.366 . S
C777 C774 1.365 . S
C777 C776 1.366 . S
C777 H791 0.930 . S
C778 C775 1.378 . S
C778 N779 1.315 . S
C778 H781 0.930 . S
N779 Co759 2.194 . S
N779 C774 1.328 . S
N779 C778 1.315 . S
H780 C774 0.929 . S
H781 C778 0.930 . S
H782 C770 0.929 . S
H783 C772 0.929 . S
O784 Co759 2.351 . S
O784 C787 1.244 . S
O785 Co759 2.155 . S
O785 C787 1.240 . S
O786 Co759 2.096 . S
O786 C767 1.247 . S
C787 O784 1.244 . S
C787 O785 1.240 . S
H788 C762 0.931 . S
H789 C771 0.931 . S
H790 C775 0.929 . S
H791 C777 0.930 . S
Co792 N796 2.148 . S
Co792 N802 2.128 . S
Co792 N812 2.194 . S
Co792 O817 2.351 . S
Co792 O818 2.155 . S
Co792 O819 2.096 . S
C793 N796 1.301 . S
C793 N797 1.328 . S
C793 H798 0.930 . S
C794 C795 1.333 . S
C794 N796 1.317 . S
C794 H799 0.930 . S
C795 C794 1.333 . S
C795 N797 1.350 . S
C795 H821 0.931 . S
N796 Co792 2.148 . S
N796 C793 1.301 . S
N796 C794 1.317 . S
N797 C793 1.328 . S
N797 C795 1.350 . S
H798 C793 0.930 . S
H799 C794 0.930 . S
C800 O801 1.224 . S
C800 O819 1.247 . S
O801 C800 1.224 . S
N802 Co792 2.128 . S
N802 C803 1.355 . S
N802 C805 1.311 . S
C803 N802 1.355 . S
C803 C804 1.363 . S
C803 H815 0.929 . S
C804 C803 1.363 . S
C804 N806 1.375 . S
C804 H822 0.931 . S
C805 N802 1.311 . S
C805 N806 1.347 . S
C805 H816 0.929 . S
N806 C804 1.375 . S
N806 C805 1.347 . S
C807 C810 1.365 . S
C807 N812 1.328 . S
C807 H813 0.929 . S
C808 C809 1.362 . S
C808 C811 1.378 . S
C808 H823 0.929 . S
C809 C808 1.362 . S
C809 C810 1.366 . S
C810 C807 1.365 . S
C810 C809 1.366 . S
C810 H824 0.930 . S
C811 C808 1.378 . S
C811 N812 1.315 . S
C811 H814 0.930 . S
N812 Co792 2.194 . S
N812 C807 1.328 . S
N812 C811 1.315 . S
H813 C807 0.929 . S
H814 C811 0.930 . S
H815 C803 0.929 . S
H816 C805 0.929 . S
O817 Co792 2.351 . S
O817 C820 1.244 . S
O818 Co792 2.155 . S
O818 C820 1.240 . S
O819 Co792 2.096 . S
O819 C800 1.247 . S
C820 O817 1.244 . S
C820 O818 1.240 . S
H821 C795 0.931 . S
H822 C804 0.931 . S
H823 C808 0.929 . S
H824 C810 0.930 . S
Co825 N829 2.148 . S
Co825 N835 2.128 . S
Co825 N845 2.194 . S
Co825 O850 2.351 . S
Co825 O851 2.155 . S
Co825 O852 2.096 . S
C826 N829 1.301 . S
C826 N830 1.328 . S
C826 H831 0.930 . S
C827 C828 1.333 . S
C827 N829 1.317 . S
C827 H832 0.930 . S
C828 C827 1.333 . S
C828 N830 1.350 . S
C828 H854 0.931 . S
N829 Co825 2.148 . S
N829 C826 1.301 . S
N829 C827 1.317 . S
N830 C826 1.328 . S
N830 C828 1.350 . S
H831 C826 0.930 . S
H832 C827 0.930 . S
C833 O834 1.224 . S
C833 O852 1.247 . S
O834 C833 1.224 . S
N835 Co825 2.128 . S
N835 C836 1.355 . S
N835 C838 1.311 . S
C836 N835 1.355 . S
C836 C837 1.363 . S
C836 H848 0.929 . S
C837 C836 1.363 . S
C837 N839 1.375 . S
C837 H855 0.931 . S
C838 N835 1.311 . S
C838 N839 1.347 . S
C838 H849 0.929 . S
N839 C837 1.375 . S
N839 C838 1.347 . S
C840 C843 1.365 . S
C840 N845 1.328 . S
C840 H846 0.929 . S
C841 C842 1.362 . S
C841 C844 1.378 . S
C841 H856 0.929 . S
C842 C841 1.362 . S
C842 C843 1.366 . S
C843 C840 1.365 . S
C843 C842 1.366 . S
C843 H857 0.930 . S
C844 C841 1.378 . S
C844 N845 1.315 . S
C844 H847 0.930 . S
N845 Co825 2.194 . S
N845 C840 1.328 . S
N845 C844 1.315 . S
H846 C840 0.929 . S
H847 C844 0.930 . S
H848 C836 0.929 . S
H849 C838 0.929 . S
O850 Co825 2.351 . S
O850 C853 1.244 . S
O851 Co825 2.155 . S
O851 C853 1.240 . S
O852 Co825 2.096 . S
O852 C833 1.247 . S
C853 O850 1.244 . S
C853 O851 1.240 . S
H854 C828 0.931 . S
H855 C837 0.931 . S
H856 C841 0.929 . S
H857 C843 0.930 . S
Co858 N862 2.148 . S
Co858 N868 2.128 . S
Co858 N878 2.194 . S
Co858 O883 2.351 . S
Co858 O884 2.155 . S
Co858 O885 2.096 . S
C859 N862 1.301 . S
C859 N863 1.328 . S
C859 H864 0.930 . S
C860 C861 1.333 . S
C860 N862 1.317 . S
C860 H865 0.930 . S
C861 C860 1.333 . S
C861 N863 1.350 . S
C861 H887 0.931 . S
N862 Co858 2.148 . S
N862 C859 1.301 . S
N862 C860 1.317 . S
N863 C859 1.328 . S
N863 C861 1.350 . S
H864 C859 0.930 . S
H865 C860 0.930 . S
C866 O867 1.224 . S
C866 O885 1.247 . S
O867 C866 1.224 . S
N868 Co858 2.128 . S
N868 C869 1.355 . S
N868 C871 1.311 . S
C869 N868 1.355 . S
C869 C870 1.363 . S
C869 H881 0.929 . S
C870 C869 1.363 . S
C870 N872 1.375 . S
C870 H888 0.931 . S
C871 N868 1.311 . S
C871 N872 1.347 . S
C871 H882 0.929 . S
N872 C870 1.375 . S
N872 C871 1.347 . S
C873 C876 1.365 . S
C873 N878 1.328 . S
C873 H879 0.929 . S
C874 C875 1.362 . S
C874 C877 1.378 . S
C874 H889 0.929 . S
C875 C874 1.362 . S
C875 C876 1.366 . S
C876 C873 1.365 . S
C876 C875 1.366 . S
C876 H890 0.930 . S
C877 C874 1.378 . S
C877 N878 1.315 . S
C877 H880 0.930 . S
N878 Co858 2.194 . S
N878 C873 1.328 . S
N878 C877 1.315 . S
H879 C873 0.929 . S
H880 C877 0.930 . S
H881 C869 0.929 . S
H882 C871 0.929 . S
O883 Co858 2.351 . S
O883 C886 1.244 . S
O884 Co858 2.155 . S
O884 C886 1.240 . S
O885 Co858 2.096 . S
O885 C866 1.247 . S
C886 O883 1.244 . S
C886 O884 1.240 . S
H887 C861 0.931 . S
H888 C870 0.931 . S
H889 C874 0.929 . S
H890 C876 0.930 . S
Co891 N895 2.148 . S
Co891 N901 2.128 . S
Co891 N911 2.194 . S
Co891 O916 2.351 . S
Co891 O917 2.155 . S
Co891 O918 2.096 . S
C892 N895 1.301 . S
C892 N896 1.328 . S
C892 H897 0.930 . S
C893 C894 1.333 . S
C893 N895 1.317 . S
C893 H898 0.930 . S
C894 C893 1.333 . S
C894 N896 1.350 . S
C894 H920 0.931 . S
N895 Co891 2.148 . S
N895 C892 1.301 . S
N895 C893 1.317 . S
N896 C892 1.328 . S
N896 C894 1.350 . S
H897 C892 0.930 . S
H898 C893 0.930 . S
C899 O900 1.224 . S
C899 O918 1.247 . S
O900 C899 1.224 . S
N901 Co891 2.128 . S
N901 C902 1.355 . S
N901 C904 1.311 . S
C902 N901 1.355 . S
C902 C903 1.363 . S
C902 H914 0.929 . S
C903 C902 1.363 . S
C903 N905 1.375 . S
C903 H921 0.931 . S
C904 N901 1.311 . S
C904 N905 1.347 . S
C904 H915 0.929 . S
N905 C903 1.375 . S
N905 C904 1.347 . S
C906 C909 1.365 . S
C906 N911 1.328 . S
C906 H912 0.929 . S
C907 C908 1.362 . S
C907 C910 1.378 . S
C907 H922 0.929 . S
C908 C907 1.362 . S
C908 C909 1.366 . S
C909 C906 1.365 . S
C909 C908 1.366 . S
C909 H923 0.930 . S
C910 C907 1.378 . S
C910 N911 1.315 . S
C910 H913 0.930 . S
N911 Co891 2.194 . S
N911 C906 1.328 . S
N911 C910 1.315 . S
H912 C906 0.929 . S
H913 C910 0.930 . S
H914 C902 0.929 . S
H915 C904 0.929 . S
O916 Co891 2.351 . S
O916 C919 1.244 . S
O917 Co891 2.155 . S
O917 C919 1.240 . S
O918 Co891 2.096 . S
O918 C899 1.247 . S
C919 O916 1.244 . S
C919 O917 1.240 . S
H920 C894 0.931 . S
H921 C903 0.931 . S
H922 C907 0.929 . S
H923 C909 0.930 . S
Co924 N928 2.148 . S
Co924 N934 2.128 . S
Co924 N944 2.194 . S
Co924 O949 2.351 . S
Co924 O950 2.155 . S
Co924 O951 2.096 . S
C925 N928 1.301 . S
C925 N929 1.328 . S
C925 H930 0.930 . S
C926 C927 1.333 . S
C926 N928 1.317 . S
C926 H931 0.930 . S
C927 C926 1.333 . S
C927 N929 1.350 . S
C927 H953 0.931 . S
N928 Co924 2.148 . S
N928 C925 1.301 . S
N928 C926 1.317 . S
N929 C925 1.328 . S
N929 C927 1.350 . S
H930 C925 0.930 . S
H931 C926 0.930 . S
C932 O933 1.224 . S
C932 O951 1.247 . S
O933 C932 1.224 . S
N934 Co924 2.128 . S
N934 C935 1.355 . S
N934 C937 1.311 . S
C935 N934 1.355 . S
C935 C936 1.363 . S
C935 H947 0.929 . S
C936 C935 1.363 . S
C936 N938 1.375 . S
C936 H954 0.931 . S
C937 N934 1.311 . S
C937 N938 1.347 . S
C937 H948 0.929 . S
N938 C936 1.375 . S
N938 C937 1.347 . S
C939 C942 1.365 . S
C939 N944 1.328 . S
C939 H945 0.929 . S
C940 C941 1.362 . S
C940 C943 1.378 . S
C940 H955 0.929 . S
C941 C940 1.362 . S
C941 C942 1.366 . S
C942 C939 1.365 . S
C942 C941 1.366 . S
C942 H956 0.930 . S
C943 C940 1.378 . S
C943 N944 1.315 . S
C943 H946 0.930 . S
N944 Co924 2.194 . S
N944 C939 1.328 . S
N944 C943 1.315 . S
H945 C939 0.929 . S
H946 C943 0.930 . S
H947 C935 0.929 . S
H948 C937 0.929 . S
O949 Co924 2.351 . S
O949 C952 1.244 . S
O950 Co924 2.155 . S
O950 C952 1.240 . S
O951 Co924 2.096 . S
O951 C932 1.247 . S
C952 O949 1.244 . S
C952 O950 1.240 . S
H953 C927 0.931 . S
H954 C936 0.931 . S
H955 C940 0.929 . S
H956 C942 0.930 . S
Co957 N961 2.148 . S
Co957 N967 2.128 . S
Co957 N977 2.194 . S
Co957 O982 2.351 . S
Co957 O983 2.155 . S
Co957 O984 2.096 . S
C958 N961 1.301 . S
C958 N962 1.328 . S
C958 H963 0.930 . S
C959 C960 1.333 . S
C959 N961 1.317 . S
C959 H964 0.930 . S
C960 C959 1.333 . S
C960 N962 1.350 . S
C960 H986 0.931 . S
N961 Co957 2.148 . S
N961 C958 1.301 . S
N961 C959 1.317 . S
N962 C958 1.328 . S
N962 C960 1.350 . S
H963 C958 0.930 . S
H964 C959 0.930 . S
C965 O966 1.224 . S
C965 O984 1.247 . S
O966 C965 1.224 . S
N967 Co957 2.128 . S
N967 C968 1.355 . S
N967 C970 1.311 . S
C968 N967 1.355 . S
C968 C969 1.363 . S
C968 H980 0.929 . S
C969 C968 1.363 . S
C969 N971 1.375 . S
C969 H987 0.931 . S
C970 N967 1.311 . S
C970 N971 1.347 . S
C970 H981 0.929 . S
N971 C969 1.375 . S
N971 C970 1.347 . S
C972 C975 1.365 . S
C972 N977 1.328 . S
C972 H978 0.929 . S
C973 C974 1.362 . S
C973 C976 1.378 . S
C973 H988 0.929 . S
C974 C973 1.362 . S
C974 C975 1.366 . S
C975 C972 1.365 . S
C975 C974 1.366 . S
C975 H989 0.930 . S
C976 C973 1.378 . S
C976 N977 1.315 . S
C976 H979 0.930 . S
N977 Co957 2.194 . S
N977 C972 1.328 . S
N977 C976 1.315 . S
H978 C972 0.929 . S
H979 C976 0.930 . S
H980 C968 0.929 . S
H981 C970 0.929 . S
O982 Co957 2.351 . S
O982 C985 1.244 . S
O983 Co957 2.155 . S
O983 C985 1.240 . S
O984 Co957 2.096 . S
O984 C965 1.247 . S
C985 O982 1.244 . S
C985 O983 1.240 . S
H986 C960 0.931 . S
H987 C969 0.931 . S
H988 C973 0.929 . S
H989 C975 0.930 . S
Co990 N994 2.148 . S
Co990 N1000 2.128 . S
Co990 N1010 2.194 . S
Co990 O1015 2.351 . S
Co990 O1016 2.155 . S
Co990 O1017 2.096 . S
C991 N994 1.301 . S
C991 N995 1.328 . S
C991 H996 0.930 . S
C992 C993 1.333 . S
C992 N994 1.317 . S
C992 H997 0.930 . S
C993 C992 1.333 . S
C993 N995 1.350 . S
C993 H1019 0.931 . S
N994 Co990 2.148 . S
N994 C991 1.301 . S
N994 C992 1.317 . S
N995 C991 1.328 . S
N995 C993 1.350 . S
H996 C991 0.930 . S
H997 C992 0.930 . S
C998 O999 1.224 . S
C998 O1017 1.247 . S
O999 C998 1.224 . S
N1000 Co990 2.128 . S
N1000 C1001 1.355 . S
N1000 C1003 1.311 . S
C1001 N1000 1.355 . S
C1001 C1002 1.363 . S
C1001 H1013 0.929 . S
C1002 C1001 1.363 . S
C1002 N1004 1.375 . S
C1002 H1020 0.931 . S
C1003 N1000 1.311 . S
C1003 N1004 1.347 . S
C1003 H1014 0.929 . S
N1004 C1002 1.375 . S
N1004 C1003 1.347 . S
C1005 C1008 1.365 . S
C1005 N1010 1.328 . S
C1005 H1011 0.929 . S
C1006 C1007 1.362 . S
C1006 C1009 1.378 . S
C1006 H1021 0.929 . S
C1007 C1006 1.362 . S
C1007 C1008 1.366 . S
C1008 C1005 1.365 . S
C1008 C1007 1.366 . S
C1008 H1022 0.930 . S
C1009 C1006 1.378 . S
C1009 N1010 1.315 . S
C1009 H1012 0.930 . S
N1010 Co990 2.194 . S
N1010 C1005 1.328 . S
N1010 C1009 1.315 . S
H1011 C1005 0.929 . S
H1012 C1009 0.930 . S
H1013 C1001 0.929 . S
H1014 C1003 0.929 . S
O1015 Co990 2.351 . S
O1015 C1018 1.244 . S
O1016 Co990 2.155 . S
O1016 C1018 1.240 . S
O1017 Co990 2.096 . S
O1017 C998 1.247 . S
C1018 O1015 1.244 . S
C1018 O1016 1.240 . S
H1019 C993 0.931 . S
H1020 C1002 0.931 . S
H1021 C1006 0.929 . S
H1022 C1008 0.930 . S
Co1023 N1027 2.148 . S
Co1023 N1033 2.128 . S
Co1023 N1043 2.194 . S
Co1023 O1048 2.351 . S
Co1023 O1049 2.155 . S
Co1023 O1050 2.096 . S
C1024 N1027 1.301 . S
C1024 N1028 1.328 . S
C1024 H1029 0.930 . S
C1025 C1026 1.333 . S
C1025 N1027 1.317 . S
C1025 H1030 0.930 . S
C1026 C1025 1.333 . S
C1026 N1028 1.350 . S
C1026 H1052 0.931 . S
N1027 Co1023 2.148 . S
N1027 C1024 1.301 . S
N1027 C1025 1.317 . S
N1028 C1024 1.328 . S
N1028 C1026 1.350 . S
H1029 C1024 0.930 . S
H1030 C1025 0.930 . S
C1031 O1032 1.224 . S
C1031 O1050 1.247 . S
O1032 C1031 1.224 . S
N1033 Co1023 2.128 . S
N1033 C1034 1.355 . S
N1033 C1036 1.311 . S
C1034 N1033 1.355 . S
C1034 C1035 1.363 . S
C1034 H1046 0.929 . S
C1035 C1034 1.363 . S
C1035 N1037 1.375 . S
C1035 H1053 0.931 . S
C1036 N1033 1.311 . S
C1036 N1037 1.347 . S
C1036 H1047 0.929 . S
N1037 C1035 1.375 . S
N1037 C1036 1.347 . S
C1038 C1041 1.365 . S
C1038 N1043 1.328 . S
C1038 H1044 0.929 . S
C1039 C1040 1.362 . S
C1039 C1042 1.378 . S
C1039 H1054 0.929 . S
C1040 C1039 1.362 . S
C1040 C1041 1.366 . S
C1041 C1038 1.365 . S
C1041 C1040 1.366 . S
C1041 H1055 0.930 . S
C1042 C1039 1.378 . S
C1042 N1043 1.315 . S
C1042 H1045 0.930 . S
N1043 Co1023 2.194 . S
N1043 C1038 1.328 . S
N1043 C1042 1.315 . S
H1044 C1038 0.929 . S
H1045 C1042 0.930 . S
H1046 C1034 0.929 . S
H1047 C1036 0.929 . S
O1048 Co1023 2.351 . S
O1048 C1051 1.244 . S
O1049 Co1023 2.155 . S
O1049 C1051 1.240 . S
O1050 Co1023 2.096 . S
O1050 C1031 1.247 . S
C1051 O1048 1.244 . S
C1051 O1049 1.240 . S
H1052 C1026 0.931 . S
H1053 C1035 0.931 . S
H1054 C1039 0.929 . S
H1055 C1041 0.930 . S
Co1056 N1060 2.148 . S
Co1056 N1066 2.128 . S
Co1056 N1076 2.194 . S
Co1056 O1081 2.351 . S
Co1056 O1082 2.155 . S
Co1056 O1083 2.096 . S
C1057 N1060 1.301 . S
C1057 N1061 1.328 . S
C1057 H1062 0.930 . S
C1058 C1059 1.333 . S
C1058 N1060 1.317 . S
C1058 H1063 0.930 . S
C1059 C1058 1.333 . S
C1059 N1061 1.350 . S
C1059 H1085 0.931 . S
N1060 Co1056 2.148 . S
N1060 C1057 1.301 . S
N1060 C1058 1.317 . S
N1061 C1057 1.328 . S
N1061 C1059 1.350 . S
H1062 C1057 0.930 . S
H1063 C1058 0.930 . S
C1064 O1065 1.224 . S
C1064 O1083 1.247 . S
O1065 C1064 1.224 . S
N1066 Co1056 2.128 . S
N1066 C1067 1.355 . S
N1066 C1069 1.311 . S
C1067 N1066 1.355 . S
C1067 C1068 1.363 . S
C1067 H1079 0.929 . S
C1068 C1067 1.363 . S
C1068 N1070 1.375 . S
C1068 H1086 0.931 . S
C1069 N1066 1.311 . S
C1069 N1070 1.347 . S
C1069 H1080 0.929 . S
N1070 C1068 1.375 . S
N1070 C1069 1.347 . S
C1071 C1074 1.365 . S
C1071 N1076 1.328 . S
C1071 H1077 0.929 . S
C1072 C1073 1.362 . S
C1072 C1075 1.378 . S
C1072 H1087 0.929 . S
C1073 C1072 1.362 . S
C1073 C1074 1.366 . S
C1074 C1071 1.365 . S
C1074 C1073 1.366 . S
C1074 H1088 0.930 . S
C1075 C1072 1.378 . S
C1075 N1076 1.315 . S
C1075 H1078 0.930 . S
N1076 Co1056 2.194 . S
N1076 C1071 1.328 . S
N1076 C1075 1.315 . S
H1077 C1071 0.929 . S
H1078 C1075 0.930 . S
H1079 C1067 0.929 . S
H1080 C1069 0.929 . S
O1081 Co1056 2.351 . S
O1081 C1084 1.244 . S
O1082 Co1056 2.155 . S
O1082 C1084 1.240 . S
O1083 Co1056 2.096 . S
O1083 C1064 1.247 . S
C1084 O1081 1.244 . S
C1084 O1082 1.240 . S
H1085 C1059 0.931 . S
H1086 C1068 0.931 . S
H1087 C1072 0.929 . S
H1088 C1074 0.930 . S
Co1089 N1093 2.148 . S
Co1089 N1099 2.128 . S
Co1089 N1109 2.194 . S
Co1089 O1114 2.351 . S
Co1089 O1115 2.155 . S
Co1089 O1116 2.096 . S
C1090 N1093 1.301 . S
C1090 N1094 1.328 . S
C1090 H1095 0.930 . S
C1091 C1092 1.333 . S
C1091 N1093 1.317 . S
C1091 H1096 0.930 . S
C1092 C1091 1.333 . S
C1092 N1094 1.350 . S
C1092 H1118 0.931 . S
N1093 Co1089 2.148 . S
N1093 C1090 1.301 . S
N1093 C1091 1.317 . S
N1094 C1090 1.328 . S
N1094 C1092 1.350 . S
H1095 C1090 0.930 . S
H1096 C1091 0.930 . S
C1097 O1098 1.224 . S
C1097 O1116 1.247 . S
O1098 C1097 1.224 . S
N1099 Co1089 2.128 . S
N1099 C1100 1.355 . S
N1099 C1102 1.311 . S
C1100 N1099 1.355 . S
C1100 C1101 1.363 . S
C1100 H1112 0.929 . S
C1101 C1100 1.363 . S
C1101 N1103 1.375 . S
C1101 H1119 0.931 . S
C1102 N1099 1.311 . S
C1102 N1103 1.347 . S
C1102 H1113 0.929 . S
N1103 C1101 1.375 . S
N1103 C1102 1.347 . S
C1104 C1107 1.365 . S
C1104 N1109 1.328 . S
C1104 H1110 0.929 . S
C1105 C1106 1.362 . S
C1105 C1108 1.378 . S
C1105 H1120 0.929 . S
C1106 C1105 1.362 . S
C1106 C1107 1.366 . S
C1107 C1104 1.365 . S
C1107 C1106 1.366 . S
C1107 H1121 0.930 . S
C1108 C1105 1.378 . S
C1108 N1109 1.315 . S
C1108 H1111 0.930 . S
N1109 Co1089 2.194 . S
N1109 C1104 1.328 . S
N1109 C1108 1.315 . S
H1110 C1104 0.929 . S
H1111 C1108 0.930 . S
H1112 C1100 0.929 . S
H1113 C1102 0.929 . S
O1114 Co1089 2.351 . S
O1114 C1117 1.244 . S
O1115 Co1089 2.155 . S
O1115 C1117 1.240 . S
O1116 Co1089 2.096 . S
O1116 C1097 1.247 . S
C1117 O1114 1.244 . S
C1117 O1115 1.240 . S
H1118 C1092 0.931 . S
H1119 C1101 0.931 . S
H1120 C1105 0.929 . S
H1121 C1107 0.930 . S
Co1122 N1126 2.148 . S
Co1122 N1132 2.128 . S
Co1122 N1142 2.194 . S
Co1122 O1147 2.351 . S
Co1122 O1148 2.155 . S
Co1122 O1149 2.096 . S
C1123 N1126 1.301 . S
C1123 N1127 1.328 . S
C1123 H1128 0.930 . S
C1124 C1125 1.333 . S
C1124 N1126 1.317 . S
C1124 H1129 0.930 . S
C1125 C1124 1.333 . S
C1125 N1127 1.350 . S
C1125 H1151 0.931 . S
N1126 Co1122 2.148 . S
N1126 C1123 1.301 . S
N1126 C1124 1.317 . S
N1127 C1123 1.328 . S
N1127 C1125 1.350 . S
H1128 C1123 0.930 . S
H1129 C1124 0.930 . S
C1130 O1131 1.224 . S
C1130 O1149 1.247 . S
O1131 C1130 1.224 . S
N1132 Co1122 2.128 . S
N1132 C1133 1.355 . S
N1132 C1135 1.311 . S
C1133 N1132 1.355 . S
C1133 C1134 1.363 . S
C1133 H1145 0.929 . S
C1134 C1133 1.363 . S
C1134 N1136 1.375 . S
C1134 H1152 0.931 . S
C1135 N1132 1.311 . S
C1135 N1136 1.347 . S
C1135 H1146 0.929 . S
N1136 C1134 1.375 . S
N1136 C1135 1.347 . S
C1137 C1140 1.365 . S
C1137 N1142 1.328 . S
C1137 H1143 0.929 . S
C1138 C1139 1.362 . S
C1138 C1141 1.378 . S
C1138 H1153 0.929 . S
C1139 C1138 1.362 . S
C1139 C1140 1.366 . S
C1140 C1137 1.365 . S
C1140 C1139 1.366 . S
C1140 H1154 0.930 . S
C1141 C1138 1.378 . S
C1141 N1142 1.315 . S
C1141 H1144 0.930 . S
N1142 Co1122 2.194 . S
N1142 C1137 1.328 . S
N1142 C1141 1.315 . S
H1143 C1137 0.929 . S
H1144 C1141 0.930 . S
H1145 C1133 0.929 . S
H1146 C1135 0.929 . S
O1147 Co1122 2.351 . S
O1147 C1150 1.244 . S
O1148 Co1122 2.155 . S
O1148 C1150 1.240 . S
O1149 Co1122 2.096 . S
O1149 C1130 1.247 . S
C1150 O1147 1.244 . S
C1150 O1148 1.240 . S
H1151 C1125 0.931 . S
H1152 C1134 0.931 . S
H1153 C1138 0.929 . S
H1154 C1140 0.930 . S
Co1155 N1159 2.148 . S
Co1155 N1165 2.128 . S
Co1155 N1175 2.194 . S
Co1155 O1180 2.351 . S
Co1155 O1181 2.155 . S
Co1155 O1182 2.096 . S
C1156 N1159 1.301 . S
C1156 N1160 1.328 . S
C1156 H1161 0.930 . S
C1157 C1158 1.333 . S
C1157 N1159 1.317 . S
C1157 H1162 0.930 . S
C1158 C1157 1.333 . S
C1158 N1160 1.350 . S
C1158 H1184 0.931 . S
N1159 Co1155 2.148 . S
N1159 C1156 1.301 . S
N1159 C1157 1.317 . S
N1160 C1156 1.328 . S
N1160 C1158 1.350 . S
H1161 C1156 0.930 . S
H1162 C1157 0.930 . S
C1163 O1164 1.224 . S
C1163 O1182 1.247 . S
O1164 C1163 1.224 . S
N1165 Co1155 2.128 . S
N1165 C1166 1.355 . S
N1165 C1168 1.311 . S
C1166 N1165 1.355 . S
C1166 C1167 1.363 . S
C1166 H1178 0.929 . S
C1167 C1166 1.363 . S
C1167 N1169 1.375 . S
C1167 H1185 0.931 . S
C1168 N1165 1.311 . S
C1168 N1169 1.347 . S
C1168 H1179 0.929 . S
N1169 C1167 1.375 . S
N1169 C1168 1.347 . S
C1170 C1173 1.365 . S
C1170 N1175 1.328 . S
C1170 H1176 0.929 . S
C1171 C1172 1.362 . S
C1171 C1174 1.378 . S
C1171 H1186 0.929 . S
C1172 C1171 1.362 . S
C1172 C1173 1.366 . S
C1173 C1170 1.365 . S
C1173 C1172 1.366 . S
C1173 H1187 0.930 . S
C1174 C1171 1.378 . S
C1174 N1175 1.315 . S
C1174 H1177 0.930 . S
N1175 Co1155 2.194 . S
N1175 C1170 1.328 . S
N1175 C1174 1.315 . S
H1176 C1170 0.929 . S
H1177 C1174 0.930 . S
H1178 C1166 0.929 . S
H1179 C1168 0.929 . S
O1180 Co1155 2.351 . S
O1180 C1183 1.244 . S
O1181 Co1155 2.155 . S
O1181 C1183 1.240 . S
O1182 Co1155 2.096 . S
O1182 C1163 1.247 . S
C1183 O1180 1.244 . S
C1183 O1181 1.240 . S
H1184 C1158 0.931 . S
H1185 C1167 0.931 . S
H1186 C1171 0.929 . S
H1187 C1173 0.930 . S
H1188 C1194 0.930 . S
H1189 C1197 0.930 . S
H1190 C1198 0.930 . S
H1191 C1199 0.930 . S
H1192 C1202 0.930 1_554 S
H1193 C1203 0.930 . S
C1194 H1188 0.930 . S
C1194 C1195 1.355 . S
C1194 C1196 1.415 . S
C1195 C1194 1.355 . S
C1195 C1197 1.419 . S
C1196 C1194 1.415 . S
C1196 C1201 1.425 . S
C1196 C1203 1.409 . S
C1197 H1189 0.930 . S
C1197 C1195 1.419 . S
C1197 C1198 1.362 . S
C1198 H1190 0.930 . S
C1198 C1197 1.362 . S
C1198 C1201 1.409 . S
C1199 H1191 0.930 . S
C1199 C1200 1.355 . S
C1199 C1201 1.415 . S
C1200 C1199 1.355 . S
C1200 C1202 1.419 . S
C1201 C1196 1.425 . S
C1201 C1198 1.409 . S
C1201 C1199 1.415 . S
C1202 H1192 0.930 1_556 S
C1202 C1200 1.419 . S
C1202 C1203 1.362 . S
C1203 H1193 0.930 . S
C1203 C1196 1.409 . S
C1203 C1202 1.362 . S
H1204 C1210 0.930 . S
H1205 C1213 0.930 . S
H1206 C1214 0.930 . S
H1207 C1215 0.930 . S
H1208 C1218 0.930 1_554 S
H1209 C1219 0.930 . S
C1210 H1204 0.930 . S
C1210 C1211 1.355 . S
C1210 C1212 1.415 . S
C1211 C1210 1.355 . S
C1211 C1213 1.419 . S
C1212 C1210 1.415 . S
C1212 C1217 1.425 . S
C1212 C1219 1.409 . S
C1213 H1205 0.930 . S
C1213 C1211 1.419 . S
C1213 C1214 1.362 . S
C1214 H1206 0.930 . S
C1214 C1213 1.362 . S
C1214 C1217 1.409 . S
C1215 H1207 0.930 . S
C1215 C1216 1.355 . S
C1215 C1217 1.415 . S
C1216 C1215 1.355 . S
C1216 C1218 1.419 . S
C1217 C1212 1.425 . S
C1217 C1214 1.409 . S
C1217 C1215 1.415 . S
C1218 H1208 0.930 1_556 S
C1218 C1216 1.419 . S
C1218 C1219 1.362 . S
C1219 H1209 0.930 . S
C1219 C1212 1.409 . S
C1219 C1218 1.362 . S
H1220 C1226 0.930 . S
H1221 C1229 0.930 . S
H1222 C1230 0.930 . S
H1223 C1231 0.930 . S
H1224 C1234 0.930 1_554 S
H1225 C1235 0.929 . S
C1226 H1220 0.930 . S
C1226 C1227 1.355 . S
C1226 C1228 1.415 . S
C1227 C1226 1.355 . S
C1227 C1229 1.419 . S
C1228 C1226 1.415 . S
C1228 C1233 1.425 . S
C1228 C1235 1.409 . S
C1229 H1221 0.930 . S
C1229 C1227 1.419 . S
C1229 C1230 1.362 . S
C1230 H1222 0.930 . S
C1230 C1229 1.362 . S
C1230 C1233 1.409 . S
C1231 H1223 0.930 . S
C1231 C1232 1.355 . S
C1231 C1233 1.415 . S
C1232 C1231 1.355 . S
C1232 C1234 1.419 . S
C1233 C1228 1.425 . S
C1233 C1230 1.409 . S
C1233 C1231 1.415 . S
C1234 H1224 0.930 1_556 S
C1234 C1232 1.419 . S
C1234 C1235 1.362 . S
C1235 H1225 0.929 . S
C1235 C1228 1.409 . S
C1235 C1234 1.362 . S
H1236 C1242 0.930 . S
H1237 C1245 0.930 . S
H1238 C1246 0.930 . S
H1239 C1247 0.930 . S
H1240 C1250 0.930 . S
H1241 C1251 0.930 . S
C1242 H1236 0.930 . S
C1242 C1243 1.355 . S
C1242 C1244 1.415 . S
C1243 C1242 1.355 . S
C1243 C1245 1.419 . S
C1244 C1242 1.415 . S
C1244 C1249 1.425 . S
C1244 C1251 1.409 . S
C1245 H1237 0.930 . S
C1245 C1243 1.419 . S
C1245 C1246 1.362 . S
C1246 H1238 0.930 . S
C1246 C1245 1.362 . S
C1246 C1249 1.409 . S
C1247 H1239 0.930 . S
C1247 C1248 1.355 . S
C1247 C1249 1.415 . S
C1248 C1247 1.355 . S
C1248 C1250 1.419 . S
C1249 C1244 1.425 . S
C1249 C1246 1.409 . S
C1249 C1247 1.415 . S
C1250 H1240 0.930 . S
C1250 C1248 1.419 . S
C1250 C1251 1.362 . S
C1251 H1241 0.930 . S
C1251 C1244 1.409 . S
C1251 C1250 1.362 . S
H1252 C1258 0.930 . S
H1253 C1261 0.930 . S
H1254 C1262 0.930 . S
H1255 C1263 0.930 . S
H1256 C1266 0.903 1_545 S
H1257 C1267 0.930 . S
C1258 H1252 0.930 . S
C1258 C1259 1.355 . S
C1258 C1260 1.415 . S
C1259 C1258 1.355 . S
C1259 C1261 1.419 . S
C1260 C1258 1.415 . S
C1260 C1265 1.425 . S
C1260 C1267 1.409 . S
C1261 H1253 0.930 . S
C1261 C1259 1.419 . S
C1261 C1262 1.362 . S
C1262 H1254 0.930 . S
C1262 C1261 1.362 . S
C1262 C1265 1.409 . S
C1263 H1255 0.930 . S
C1263 C1264 1.355 . S
C1263 C1265 1.415 . S
C1264 C1263 1.355 . S
C1264 C1266 1.419 . S
C1265 C1260 1.425 . S
C1265 C1262 1.409 . S
C1265 C1263 1.415 . S
C1266 H1256 0.903 1_565 S
C1266 C1264 1.419 . S
C1266 C1267 1.362 . S
C1267 H1257 0.930 . S
C1267 C1260 1.409 . S
C1267 C1266 1.362 . S
H1268 C1274 0.930 . S
H1269 C1277 0.930 . S
H1270 C1278 0.930 . S
H1271 C1279 0.930 . S
H1272 C1282 0.930 . S
H1273 C1283 0.930 . S
C1274 H1268 0.930 . S
C1274 C1275 1.355 . S
C1274 C1276 1.415 . S
C1275 C1274 1.355 . S
C1275 C1277 1.419 . S
C1276 C1274 1.415 . S
C1276 C1281 1.425 . S
C1276 C1283 1.409 . S
C1277 H1269 0.930 . S
C1277 C1275 1.419 . S
C1277 C1278 1.362 . S
C1278 H1270 0.930 . S
C1278 C1277 1.362 . S
C1278 C1281 1.409 . S
C1279 H1271 0.930 . S
C1279 C1280 1.355 . S
C1279 C1281 1.415 . S
C1280 C1279 1.355 . S
C1280 C1282 1.419 . S
C1281 C1276 1.425 . S
C1281 C1278 1.409 . S
C1281 C1279 1.415 . S
C1282 H1272 0.930 . S
C1282 C1280 1.419 . S
C1282 C1283 1.362 . S
C1283 H1273 0.930 . S
C1283 C1276 1.409 . S
C1283 C1282 1.362 . S
H1284 C1290 0.930 . S
H1285 C1293 0.930 . S
H1286 C1294 0.930 . S
H1287 C1295 0.930 . S
H1288 C1298 0.930 . S
H1289 C1299 0.930 . S
C1290 H1284 0.930 . S
C1290 C1291 1.355 . S
C1290 C1292 1.415 . S
C1291 C1290 1.355 . S
C1291 C1293 1.419 . S
C1292 C1290 1.415 . S
C1292 C1297 1.425 . S
C1292 C1299 1.409 . S
C1293 H1285 0.930 . S
C1293 C1291 1.419 . S
C1293 C1294 1.362 . S
C1294 H1286 0.930 . S
C1294 C1293 1.362 . S
C1294 C1297 1.409 . S
C1295 H1287 0.930 . S
C1295 C1296 1.355 . S
C1295 C1297 1.415 . S
C1296 C1295 1.355 . S
C1296 C1298 1.419 . S
C1297 C1292 1.425 . S
C1297 C1294 1.409 . S
C1297 C1295 1.415 . S
C1298 H1288 0.930 . S
C1298 C1296 1.419 . S
C1298 C1299 1.362 . S
C1299 H1289 0.930 . S
C1299 C1292 1.409 . S
C1299 C1298 1.362 . S
H1300 C1306 0.930 . S
H1301 C1309 0.930 . S
H1302 C1310 0.930 . S
H1303 C1311 0.930 . S
H1304 C1314 0.930 . S
H1305 C1315 0.930 . S
C1306 H1300 0.930 . S
C1306 C1307 1.355 . S
C1306 C1308 1.415 . S
C1307 C1306 1.355 . S
C1307 C1309 1.419 . S
C1308 C1306 1.415 . S
C1308 C1313 1.425 . S
C1308 C1315 1.409 . S
C1309 H1301 0.930 . S
C1309 C1307 1.419 . S
C1309 C1310 1.362 . S
C1310 H1302 0.930 . S
C1310 C1309 1.362 . S
C1310 C1313 1.409 . S
C1311 H1303 0.930 . S
C1311 C1312 1.355 . S
C1311 C1313 1.415 . S
C1312 C1311 1.355 . S
C1312 C1314 1.419 . S
C1313 C1308 1.425 . S
C1313 C1310 1.409 . S
C1313 C1311 1.415 . S
C1314 H1304 0.930 . S
C1314 C1312 1.419 . S
C1314 C1315 1.362 . S
C1315 H1305 0.930 . S
C1315 C1308 1.409 . S
C1315 C1314 1.362 . S
H1316 C1322 0.930 . S
H1317 C1325 0.930 . S
H1318 C1326 0.930 . S
H1319 C1327 0.930 . S
H1320 C1330 0.930 . S
H1321 C1331 0.930 . S
C1322 H1316 0.930 . S
C1322 C1323 1.355 . S
C1322 C1324 1.415 . S
C1323 C1322 1.355 . S
C1323 C1325 1.419 . S
C1324 C1322 1.415 . S
C1324 C1329 1.425 . S
C1324 C1331 1.409 . S
C1325 H1317 0.930 . S
C1325 C1323 1.419 . S
C1325 C1326 1.362 . S
C1326 H1318 0.930 . S
C1326 C1325 1.362 . S
C1326 C1329 1.409 . S
C1327 H1319 0.930 . S
C1327 C1328 1.355 . S
C1327 C1329 1.415 . S
C1328 C1327 1.355 . S
C1328 C1330 1.419 . S
C1329 C1324 1.425 . S
C1329 C1326 1.409 . S
C1329 C1327 1.415 . S
C1330 H1320 0.930 . S
C1330 C1328 1.419 . S
C1330 C1331 1.362 . S
C1331 H1321 0.930 . S
C1331 C1324 1.409 . S
C1331 C1330 1.362 . S
H1332 C1338 0.930 . S
H1333 C1341 0.930 . S
H1334 C1342 0.930 . S
H1335 C1343 0.930 . S
H1336 C1346 0.930 . S
H1337 C1347 0.930 . S
C1338 H1332 0.930 . S
C1338 C1339 1.355 . S
C1338 C1340 1.415 . S
C1339 C1338 1.355 . S
C1339 C1341 1.419 . S
C1340 C1338 1.415 . S
C1340 C1345 1.425 . S
C1340 C1347 1.409 . S
C1341 H1333 0.930 . S
C1341 C1339 1.419 . S
C1341 C1342 1.362 . S
C1342 H1334 0.930 . S
C1342 C1341 1.362 . S
C1342 C1345 1.409 . S
C1343 H1335 0.930 . S
C1343 C1344 1.355 . S
C1343 C1345 1.415 . S
C1344 C1343 1.355 . S
C1344 C1346 1.419 . S
C1345 C1340 1.425 . S
C1345 C1342 1.409 . S
C1345 C1343 1.415 . S
C1346 H1336 0.930 . S
C1346 C1344 1.419 . S
C1346 C1347 1.362 . S
C1347 H1337 0.930 . S
C1347 C1340 1.409 . S
C1347 C1346 1.362 . S
H1348 C1354 0.930 . S
H1349 C1357 0.930 . S
H1350 C1358 0.930 . S
H1351 C1359 0.930 . S
H1352 C1362 0.930 . S
H1353 C1363 0.930 . S
C1354 H1348 0.930 . S
C1354 C1355 1.355 . S
C1354 C1356 1.415 . S
C1355 C1354 1.355 . S
C1355 C1357 1.419 . S
C1356 C1354 1.415 . S
C1356 C1361 1.425 . S
C1356 C1363 1.409 . S
C1357 H1349 0.930 . S
C1357 C1355 1.419 . S
C1357 C1358 1.362 . S
C1358 H1350 0.930 . S
C1358 C1357 1.362 . S
C1358 C1361 1.409 . S
C1359 H1351 0.930 . S
C1359 C1360 1.355 . S
C1359 C1361 1.415 . S
C1360 C1359 1.355 . S
C1360 C1362 1.419 . S
C1361 C1356 1.425 . S
C1361 C1358 1.409 . S
C1361 C1359 1.415 . S
C1362 H1352 0.930 . S
C1362 C1360 1.419 . S
C1362 C1363 1.362 . S
C1363 H1353 0.930 . S
C1363 C1356 1.409 . S
C1363 C1362 1.362 . S
H1364 C1370 0.930 . S
H1365 C1373 0.930 . S
H1366 C1374 0.930 . S
H1367 C1375 0.930 . S
H1368 C1378 0.930 . S
H1369 C1379 0.930 . S
C1370 H1364 0.930 . S
C1370 C1371 1.355 . S
C1370 C1372 1.415 . S
C1371 C1370 1.355 . S
C1371 C1373 1.419 . S
C1372 C1370 1.415 . S
C1372 C1377 1.425 . S
C1372 C1379 1.409 . S
C1373 H1365 0.930 . S
C1373 C1371 1.419 . S
C1373 C1374 1.362 . S
C1374 H1366 0.930 . S
C1374 C1373 1.362 . S
C1374 C1377 1.409 . S
C1375 H1367 0.930 . S
C1375 C1376 1.355 . S
C1375 C1377 1.415 . S
C1376 C1375 1.355 . S
C1376 C1378 1.419 . S
C1377 C1372 1.425 . S
C1377 C1374 1.409 . S
C1377 C1375 1.415 . S
C1378 H1368 0.930 . S
C1378 C1376 1.419 . S
C1378 C1379 1.362 . S
C1379 H1369 0.930 . S
C1379 C1372 1.409 . S
C1379 C1378 1.362 . S
H1380 C1386 0.930 . S
H1381 C1389 0.930 . S
H1382 C1390 0.930 . S
H1383 C1391 0.930 . S
H1384 C1394 0.930 . S
H1385 C1395 0.930 . S
C1386 H1380 0.930 . S
C1386 C1387 1.355 . S
C1386 C1388 1.415 . S
C1387 C1386 1.355 . S
C1387 C1389 1.419 . S
C1388 C1386 1.415 . S
C1388 C1393 1.425 1_655 S
C1388 C1395 1.409 1_655 S
C1389 H1381 0.930 . S
C1389 C1387 1.419 . S
C1389 C1390 1.362 . S
C1390 H1382 0.930 . S
C1390 C1389 1.362 . S
C1390 C1393 1.409 1_655 S
C1391 H1383 0.930 . S
C1391 C1392 1.355 . S
C1391 C1393 1.415 . S
C1392 C1391 1.355 . S
C1392 C1394 1.419 . S
C1393 C1388 1.425 1_455 S
C1393 C1390 1.409 1_455 S
C1393 C1391 1.415 . S
C1394 H1384 0.930 . S
C1394 C1392 1.419 . S
C1394 C1395 1.362 . S
C1395 H1385 0.930 . S
C1395 C1388 1.409 1_455 S
C1395 C1394 1.362 . S
H1396 C1402 0.930 . S
H1397 C1405 0.930 . S
H1398 C1406 0.930 . S
H1399 C1407 0.930 . S
H1400 C1410 0.930 . S
H1401 C1411 0.930 . S
C1402 H1396 0.930 . S
C1402 C1403 1.355 . S
C1402 C1404 1.415 . S
C1403 C1402 1.355 . S
C1403 C1405 1.419 . S
C1404 C1402 1.415 . S
C1404 C1409 1.425 . S
C1404 C1411 1.409 . S
C1405 H1397 0.930 . S
C1405 C1403 1.419 . S
C1405 C1406 1.362 . S
C1406 H1398 0.930 . S
C1406 C1405 1.362 . S
C1406 C1409 1.409 . S
C1407 H1399 0.930 . S
C1407 C1408 1.355 . S
C1407 C1409 1.415 . S
C1408 C1407 1.355 . S
C1408 C1410 1.419 . S
C1409 C1404 1.425 . S
C1409 C1406 1.409 . S
C1409 C1407 1.415 . S
C1410 H1400 0.930 . S
C1410 C1408 1.419 . S
C1410 C1411 1.362 . S
C1411 H1401 0.930 . S
C1411 C1404 1.409 . S
C1411 C1410 1.362 . S
H1412 C1418 0.930 . S
H1413 C1421 0.930 . S
H1414 C1422 0.930 . S
H1415 C1423 0.930 . S
H1416 C1426 0.930 . S
H1417 C1427 0.930 . S
C1418 H1412 0.930 . S
C1418 C1419 1.355 . S
C1418 C1420 1.415 1_565 S
C1419 C1418 1.355 . S
C1419 C1421 1.419 . S
C1420 C1418 1.415 1_545 S
C1420 C1425 1.425 1_545 S
C1420 C1427 1.409 . S
C1421 H1413 0.930 . S
C1421 C1419 1.419 . S
C1421 C1422 1.362 . S
C1422 H1414 0.930 . S
C1422 C1421 1.362 . S
C1422 C1425 1.409 . S
C1423 H1415 0.930 . S
C1423 C1424 1.355 . S
C1423 C1425 1.415 1_545 S
C1424 C1423 1.355 . S
C1424 C1426 1.419 . S
C1425 C1420 1.425 1_565 S
C1425 C1422 1.409 . S
C1425 C1423 1.415 1_565 S
C1426 H1416 0.930 . S
C1426 C1424 1.419 . S
C1426 C1427 1.362 . S
C1427 H1417 0.930 . S
C1427 C1420 1.409 . S
C1427 C1426 1.362 . S
H1428 C1434 0.930 . S
H1429 C1437 0.930 . S
H1430 C1438 0.930 . S
H1431 C1439 0.930 . S
H1432 C1442 0.930 . S
H1433 C1443 0.930 . S
C1434 H1428 0.930 . S
C1434 C1435 1.355 . S
C1434 C1436 1.415 . S
C1435 C1434 1.355 . S
C1435 C1437 1.419 . S
C1436 C1434 1.415 . S
C1436 C1441 1.425 1_565 S
C1436 C1443 1.409 1_565 S
C1437 H1429 0.930 . S
C1437 C1435 1.419 . S
C1437 C1438 1.362 . S
C1438 H1430 0.930 . S
C1438 C1437 1.362 . S
C1438 C1441 1.409 1_565 S
C1439 H1431 0.930 . S
C1439 C1440 1.355 . S
C1439 C1441 1.415 . S
C1440 C1439 1.355 . S
C1440 C1442 1.419 . S
C1441 C1436 1.425 1_545 S
C1441 C1438 1.409 1_545 S
C1441 C1439 1.415 . S
C1442 H1432 0.930 . S
C1442 C1440 1.419 . S
C1442 C1443 1.362 . S
C1443 H1433 0.930 . S
C1443 C1436 1.409 1_545 S
C1443 C1442 1.362 . S
H1444 C1450 0.930 . S
H1445 C1453 0.930 . S
H1446 C1454 0.921 1_455 S
H1447 C1455 0.930 . S
H1448 C1458 0.930 . S
H1449 C1459 0.937 . S
C1450 H1444 0.930 . S
C1450 C1451 1.355 . S
C1450 C1452 1.415 . S
C1451 C1450 1.355 . S
C1451 C1453 1.419 . S
C1452 C1450 1.415 . S
C1452 C1457 1.425 1_655 S
C1452 C1459 1.409 1_655 S
C1453 H1445 0.930 . S
C1453 C1451 1.419 . S
C1453 C1454 1.362 . S
C1454 H1446 0.921 1_655 S
C1454 C1453 1.362 . S
C1454 C1457 1.409 1_655 S
C1455 H1447 0.930 . S
C1455 C1456 1.355 . S
C1455 C1457 1.415 . S
C1456 C1455 1.355 . S
C1456 C1458 1.419 . S
C1457 C1452 1.425 1_455 S
C1457 C1454 1.409 1_455 S
C1457 C1455 1.415 . S
C1458 H1448 0.930 . S
C1458 C1456 1.419 . S
C1458 C1459 1.362 . S
C1459 H1449 0.937 . S
C1459 C1452 1.409 1_455 S
C1459 C1458 1.362 . S
H1460 C1466 0.930 . S
H1461 C1469 0.930 . S
H1462 C1470 0.930 . S
H1463 C1471 0.930 . S
H1464 C1474 0.930 . S
H1465 C1475 0.930 . S
C1466 H1460 0.930 . S
C1466 C1467 1.355 . S
C1466 C1468 1.415 . S
C1467 C1466 1.355 . S
C1467 C1469 1.419 . S
C1468 C1466 1.415 . S
C1468 C1473 1.425 . S
C1468 C1475 1.409 . S
C1469 H1461 0.930 . S
C1469 C1467 1.419 . S
C1469 C1470 1.362 . S
C1470 H1462 0.930 . S
C1470 C1469 1.362 . S
C1470 C1473 1.409 . S
C1471 H1463 0.930 . S
C1471 C1472 1.355 . S
C1471 C1473 1.415 . S
C1472 C1471 1.355 . S
C1472 C1474 1.419 . S
C1473 C1468 1.425 . S
C1473 C1470 1.409 . S
C1473 C1471 1.415 . S
C1474 H1464 0.930 . S
C1474 C1472 1.419 . S
C1474 C1475 1.362 . S
C1475 H1465 0.930 . S
C1475 C1468 1.409 . S
C1475 C1474 1.362 . S
H1476 C1482 0.930 . S
H1477 C1485 0.930 . S
H1478 C1486 0.930 . S
H1479 C1487 0.930 . S
H1480 C1490 0.930 . S
H1481 C1491 0.930 . S
C1482 H1476 0.930 . S
C1482 C1483 1.355 . S
C1482 C1484 1.415 . S
C1483 C1482 1.355 . S
C1483 C1485 1.419 . S
C1484 C1482 1.415 . S
C1484 C1489 1.425 . S
C1484 C1491 1.409 . S
C1485 H1477 0.930 . S
C1485 C1483 1.419 . S
C1485 C1486 1.362 . S
C1486 H1478 0.930 . S
C1486 C1485 1.362 . S
C1486 C1489 1.409 . S
C1487 H1479 0.930 . S
C1487 C1488 1.355 . S
C1487 C1489 1.415 . S
C1488 C1487 1.355 . S
C1488 C1490 1.419 . S
C1489 C1484 1.425 . S
C1489 C1486 1.409 . S
C1489 C1487 1.415 . S
C1490 H1480 0.930 . S
C1490 C1488 1.419 . S
C1490 C1491 1.362 . S
C1491 H1481 0.930 . S
C1491 C1484 1.409 . S
C1491 C1490 1.362 . S
H1492 C1498 0.930 . S
H1493 C1501 0.930 . S
H1494 C1502 0.930 . S
H1495 C1503 0.930 . S
H1496 C1506 0.930 . S
H1497 C1507 0.930 . S
C1498 H1492 0.930 . S
C1498 C1499 1.355 . S
C1498 C1500 1.415 . S
C1499 C1498 1.355 . S
C1499 C1501 1.419 1_565 S
C1500 C1498 1.415 . S
C1500 C1505 1.425 1_565 S
C1500 C1507 1.409 . S
C1501 H1493 0.930 . S
C1501 C1499 1.419 1_545 S
C1501 C1502 1.362 . S
C1502 H1494 0.930 . S
C1502 C1501 1.362 . S
C1502 C1505 1.409 . S
C1503 H1495 0.930 . S
C1503 C1504 1.355 . S
C1503 C1505 1.415 . S
C1504 C1503 1.355 . S
C1504 C1506 1.419 1_545 S
C1505 C1500 1.425 1_545 S
C1505 C1502 1.409 . S
C1505 C1503 1.415 . S
C1506 H1496 0.930 . S
C1506 C1504 1.419 1_565 S
C1506 C1507 1.362 . S
C1507 H1497 0.930 . S
C1507 C1500 1.409 . S
C1507 C1506 1.362 . S
H1508 C1514 0.930 . S
H1509 C1517 0.930 . S
H1510 C1518 0.930 . S
H1511 C1519 0.930 . S
H1512 C1522 0.930 . S
H1513 C1523 0.930 . S
C1514 H1508 0.930 . S
C1514 C1515 1.355 1_455 S
C1514 C1516 1.415 . S
C1515 C1514 1.355 1_655 S
C1515 C1517 1.419 . S
C1516 C1514 1.415 . S
C1516 C1521 1.425 1_455 S
C1516 C1523 1.409 . S
C1517 H1509 0.930 . S
C1517 C1515 1.419 . S
C1517 C1518 1.362 . S
C1518 H1510 0.930 . S
C1518 C1517 1.362 . S
C1518 C1521 1.409 . S
C1519 H1511 0.930 . S
C1519 C1520 1.355 1_655 S
C1519 C1521 1.415 . S
C1520 C1519 1.355 1_455 S
C1520 C1522 1.419 . S
C1521 C1516 1.425 1_655 S
C1521 C1518 1.409 . S
C1521 C1519 1.415 . S
C1522 H1512 0.930 . S
C1522 C1520 1.419 . S
C1522 C1523 1.362 . S
C1523 H1513 0.930 . S
C1523 C1516 1.409 . S
C1523 C1522 1.362 . S
H1524 C1530 0.930 . S
H1525 C1533 0.930 . S
H1526 C1534 0.930 . S
H1527 C1535 0.930 . S
H1528 C1538 0.930 . S
H1529 C1539 0.930 . S
C1530 H1524 0.930 . S
C1530 C1531 1.355 . S
C1530 C1532 1.415 . S
C1531 C1530 1.355 . S
C1531 C1533 1.419 . S
C1532 C1530 1.415 . S
C1532 C1537 1.425 . S
C1532 C1539 1.409 . S
C1533 H1525 0.930 . S
C1533 C1531 1.419 . S
C1533 C1534 1.362 . S
C1534 H1526 0.930 . S
C1534 C1533 1.362 . S
C1534 C1537 1.409 . S
C1535 H1527 0.930 . S
C1535 C1536 1.355 . S
C1535 C1537 1.415 . S
C1536 C1535 1.355 . S
C1536 C1538 1.419 . S
C1537 C1532 1.425 . S
C1537 C1534 1.409 . S
C1537 C1535 1.415 . S
C1538 H1528 0.930 . S
C1538 C1536 1.419 . S
C1538 C1539 1.362 . S
C1539 H1529 0.930 . S
C1539 C1532 1.409 . S
C1539 C1538 1.362 . S
H1540 C1546 0.930 . S
H1541 C1549 0.930 . S
H1542 C1550 0.930 . S
H1543 C1551 0.930 . S
H1544 C1554 0.930 . S
H1545 C1555 0.930 . S
C1546 H1540 0.930 . S
C1546 C1547 1.355 1_545 S
C1546 C1548 1.415 . S
C1547 C1546 1.355 1_565 S
C1547 C1549 1.419 . S
C1548 C1546 1.415 . S
C1548 C1553 1.425 1_545 S
C1548 C1555 1.409 . S
C1549 H1541 0.930 . S
C1549 C1547 1.419 . S
C1549 C1550 1.362 . S
C1550 H1542 0.930 . S
C1550 C1549 1.362 . S
C1550 C1553 1.409 . S
C1551 H1543 0.930 . S
C1551 C1552 1.355 1_565 S
C1551 C1553 1.415 . S
C1552 C1551 1.355 1_545 S
C1552 C1554 1.419 . S
C1553 C1548 1.425 1_565 S
C1553 C1550 1.409 . S
C1553 C1551 1.415 . S
C1554 H1544 0.930 . S
C1554 C1552 1.419 . S
C1554 C1555 1.362 . S
C1555 H1545 0.930 . S
C1555 C1548 1.409 . S
C1555 C1554 1.362 . S
H1556 C1562 0.930 . S
H1557 C1565 0.930 . S
H1558 C1566 0.930 . S
H1559 C1567 0.930 . S
H1560 C1570 0.930 . S
H1561 C1571 0.930 . S
C1562 H1556 0.930 . S
C1562 C1563 1.355 1_455 S
C1562 C1564 1.415 . S
C1563 C1562 1.355 1_655 S
C1563 C1565 1.419 . S
C1564 C1562 1.415 . S
C1564 C1569 1.425 1_455 S
C1564 C1571 1.409 . S
C1565 H1557 0.930 . S
C1565 C1563 1.419 . S
C1565 C1566 1.362 . S
C1566 H1558 0.930 . S
C1566 C1565 1.362 . S
C1566 C1569 1.409 . S
C1567 H1559 0.930 . S
C1567 C1568 1.355 1_655 S
C1567 C1569 1.415 . S
C1568 C1567 1.355 1_455 S
C1568 C1570 1.419 . S
C1569 C1564 1.425 1_655 S
C1569 C1566 1.409 . S
C1569 C1567 1.415 . S
C1570 H1560 0.930 . S
C1570 C1568 1.419 . S
C1570 C1571 1.362 . S
C1571 H1561 0.930 . S
C1571 C1564 1.409 . S
C1571 C1570 1.362 . S
H1572 C1578 0.930 . S
H1573 C1581 0.930 . S
H1574 C1582 0.930 . S
H1575 C1583 0.930 . S
H1576 C1586 0.930 . S
H1577 C1587 0.930 . S
C1578 H1572 0.930 . S
C1578 C1579 1.355 . S
C1578 C1580 1.415 . S
C1579 C1578 1.355 . S
C1579 C1581 1.419 . S
C1580 C1578 1.415 . S
C1580 C1585 1.425 . S
C1580 C1587 1.409 . S
C1581 H1573 0.930 . S
C1581 C1579 1.419 . S
C1581 C1582 1.362 . S
C1582 H1574 0.930 . S
C1582 C1581 1.362 . S
C1582 C1585 1.409 . S
C1583 H1575 0.930 . S
C1583 C1584 1.355 . S
C1583 C1585 1.415 . S
C1584 C1583 1.355 . S
C1584 C1586 1.419 . S
C1585 C1580 1.425 . S
C1585 C1582 1.409 . S
C1585 C1583 1.415 . S
C1586 H1576 0.930 . S
C1586 C1584 1.419 . S
C1586 C1587 1.362 . S
C1587 H1577 0.930 . S
C1587 C1580 1.409 . S
C1587 C1586 1.362 . S
H1588 C1594 0.930 . S
H1589 C1597 0.930 . S
H1590 C1598 0.930 . S
H1591 C1599 0.930 . S
H1592 C1602 0.930 . S
H1593 C1603 0.930 . S
C1594 H1588 0.930 . S
C1594 C1595 1.355 . S
C1594 C1596 1.415 . S
C1595 C1594 1.355 . S
C1595 C1597 1.419 . S
C1596 C1594 1.415 . S
C1596 C1601 1.425 . S
C1596 C1603 1.409 . S
C1597 H1589 0.930 . S
C1597 C1595 1.419 . S
C1597 C1598 1.362 . S
C1598 H1590 0.930 . S
C1598 C1597 1.362 . S
C1598 C1601 1.409 . S
C1599 H1591 0.930 . S
C1599 C1600 1.355 . S
C1599 C1601 1.415 . S
C1600 C1599 1.355 . S
C1600 C1602 1.419 . S
C1601 C1596 1.425 . S
C1601 C1598 1.409 . S
C1601 C1599 1.415 . S
C1602 H1592 0.930 . S
C1602 C1600 1.419 . S
C1602 C1603 1.362 . S
C1603 H1593 0.930 . S
C1603 C1596 1.409 . S
C1603 C1602 1.362 . S
H1604 C1610 0.930 . S
H1605 C1613 0.930 . S
H1606 C1614 0.930 . S
H1607 C1615 0.930 . S
H1608 C1618 0.930 . S
H1609 C1619 0.930 . S
C1610 H1604 0.930 . S
C1610 C1611 1.355 . S
C1610 C1612 1.415 . S
C1611 C1610 1.355 . S
C1611 C1613 1.419 . S
C1612 C1610 1.415 . S
C1612 C1617 1.425 . S
C1612 C1619 1.409 . S
C1613 H1605 0.930 . S
C1613 C1611 1.419 . S
C1613 C1614 1.362 . S
C1614 H1606 0.930 . S
C1614 C1613 1.362 . S
C1614 C1617 1.409 . S
C1615 H1607 0.930 . S
C1615 C1616 1.355 . S
C1615 C1617 1.415 . S
C1616 C1615 1.355 . S
C1616 C1618 1.419 . S
C1617 C1612 1.425 . S
C1617 C1614 1.409 . S
C1617 C1615 1.415 . S
C1618 H1608 0.930 . S
C1618 C1616 1.419 . S
C1618 C1619 1.362 . S
C1619 H1609 0.930 . S
C1619 C1612 1.409 . S
C1619 C1618 1.362 . S
H1620 C1626 0.930 . S
H1621 C1629 0.930 . S
H1622 C1630 0.930 . S
H1623 C1631 0.930 . S
H1624 C1634 0.930 . S
H1625 C1635 0.930 . S
C1626 H1620 0.930 . S
C1626 C1627 1.355 . S
C1626 C1628 1.415 . S
C1627 C1626 1.355 . S
C1627 C1629 1.419 . S
C1628 C1626 1.415 . S
C1628 C1633 1.425 . S
C1628 C1635 1.409 . S
C1629 H1621 0.930 . S
C1629 C1627 1.419 . S
C1629 C1630 1.362 . S
C1630 H1622 0.930 . S
C1630 C1629 1.362 . S
C1630 C1633 1.409 . S
C1631 H1623 0.930 . S
C1631 C1632 1.355 . S
C1631 C1633 1.415 . S
C1632 C1631 1.355 . S
C1632 C1634 1.419 . S
C1633 C1628 1.425 . S
C1633 C1630 1.409 . S
C1633 C1631 1.415 . S
C1634 H1624 0.930 . S
C1634 C1632 1.419 . S
C1634 C1635 1.362 . S
C1635 H1625 0.930 . S
C1635 C1628 1.409 . S
C1635 C1634 1.362 . S
H1636 C1642 0.930 . S
H1637 C1645 0.930 . S
H1638 C1646 0.930 . S
H1639 C1647 0.930 . S
H1640 C1650 0.930 . S
H1641 C1651 0.930 . S
C1642 H1636 0.930 . S
C1642 C1643 1.355 . S
C1642 C1644 1.415 . S
C1643 C1642 1.355 . S
C1643 C1645 1.419 . S
C1644 C1642 1.415 . S
C1644 C1649 1.425 . S
C1644 C1651 1.409 . S
C1645 H1637 0.930 . S
C1645 C1643 1.419 . S
C1645 C1646 1.362 . S
C1646 H1638 0.930 . S
C1646 C1645 1.362 . S
C1646 C1649 1.409 . S
C1647 H1639 0.930 . S
C1647 C1648 1.355 . S
C1647 C1649 1.415 . S
C1648 C1647 1.355 . S
C1648 C1650 1.419 . S
C1649 C1644 1.425 . S
C1649 C1646 1.409 . S
C1649 C1647 1.415 . S
C1650 H1640 0.930 . S
C1650 C1648 1.419 . S
C1650 C1651 1.362 . S
C1651 H1641 0.930 . S
C1651 C1644 1.409 . S
C1651 C1650 1.362 . S
H1652 C1658 0.930 . S
H1653 C1661 0.930 . S
H1654 C1662 0.930 . S
H1655 C1663 0.930 . S
H1656 C1666 0.930 . S
H1657 C1667 0.930 . S
C1658 H1652 0.930 . S
C1658 C1659 1.355 . S
C1658 C1660 1.415 . S
C1659 C1658 1.355 . S
C1659 C1661 1.419 . S
C1660 C1658 1.415 . S
C1660 C1665 1.425 . S
C1660 C1667 1.409 . S
C1661 H1653 0.930 . S
C1661 C1659 1.419 . S
C1661 C1662 1.362 . S
C1662 H1654 0.930 . S
C1662 C1661 1.362 . S
C1662 C1665 1.409 . S
C1663 H1655 0.930 . S
C1663 C1664 1.355 . S
C1663 C1665 1.415 . S
C1664 C1663 1.355 . S
C1664 C1666 1.419 . S
C1665 C1660 1.425 . S
C1665 C1662 1.409 . S
C1665 C1663 1.415 . S
C1666 H1656 0.930 . S
C1666 C1664 1.419 . S
C1666 C1667 1.362 . S
C1667 H1657 0.930 . S
C1667 C1660 1.409 . S
C1667 C1666 1.362 . S
H1668 C1674 0.930 . S
H1669 C1677 0.930 . S
H1670 C1678 0.930 . S
H1671 C1679 0.930 1_554 S
H1672 C1682 0.930 1_554 S
H1673 C1683 0.930 . S
C1674 H1668 0.930 . S
C1674 C1675 1.355 . S
C1674 C1676 1.415 . S
C1675 C1674 1.355 . S
C1675 C1677 1.419 . S
C1676 C1674 1.415 . S
C1676 C1681 1.425 . S
C1676 C1683 1.409 . S
C1677 H1669 0.930 . S
C1677 C1675 1.419 . S
C1677 C1678 1.362 . S
C1678 H1670 0.930 . S
C1678 C1677 1.362 . S
C1678 C1681 1.409 . S
C1679 H1671 0.930 1_556 S
C1679 C1680 1.355 1_556 S
C1679 C1681 1.415 . S
C1680 C1679 1.355 1_554 S
C1680 C1682 1.419 1_554 S
C1681 C1676 1.425 . S
C1681 C1678 1.409 . S
C1681 C1679 1.415 . S
C1682 H1672 0.930 1_556 S
C1682 C1680 1.419 1_556 S
C1682 C1683 1.362 . S
C1683 H1673 0.930 . S
C1683 C1676 1.409 . S
C1683 C1682 1.362 . S
H1684 C1690 0.930 . S
H1685 C1693 0.930 . S
H1686 C1694 0.930 . S
H1687 C1695 0.930 . S
H1688 C1698 0.930 . S
H1689 C1699 0.930 . S
C1690 H1684 0.930 . S
C1690 C1691 1.355 1_556 S
C1690 C1692 1.415 . S
C1691 C1690 1.355 1_554 S
C1691 C1693 1.419 . S
C1692 C1690 1.415 . S
C1692 C1697 1.425 . S
C1692 C1699 1.409 . S
C1693 H1685 0.930 . S
C1693 C1691 1.419 . S
C1693 C1694 1.362 1_554 S
C1694 H1686 0.930 . S
C1694 C1693 1.362 1_556 S
C1694 C1697 1.409 . S
C1695 H1687 0.930 . S
C1695 C1696 1.355 . S
C1695 C1697 1.415 . S
C1696 C1695 1.355 . S
C1696 C1698 1.419 . S
C1697 C1692 1.425 . S
C1697 C1694 1.409 . S
C1697 C1695 1.415 . S
C1698 H1688 0.930 . S
C1698 C1696 1.419 . S
C1698 C1699 1.362 . S
C1699 H1689 0.930 . S
C1699 C1692 1.409 . S
C1699 C1698 1.362 . S
H1700 C1706 0.930 . S
H1701 C1709 0.930 . S
H1702 C1710 0.930 . S
H1703 C1711 0.930 1_554 S
H1704 C1714 0.930 1_554 S
H1705 C1715 0.930 . S
C1706 H1700 0.930 . S
C1706 C1707 1.355 . S
C1706 C1708 1.415 . S
C1707 C1706 1.355 . S
C1707 C1709 1.419 . S
C1708 C1706 1.415 . S
C1708 C1713 1.425 . S
C1708 C1715 1.409 . S
C1709 H1701 0.930 . S
C1709 C1707 1.419 . S
C1709 C1710 1.362 . S
C1710 H1702 0.930 . S
C1710 C1709 1.362 . S
C1710 C1713 1.409 . S
C1711 H1703 0.930 1_556 S
C1711 C1712 1.355 1_556 S
C1711 C1713 1.415 . S
C1712 C1711 1.355 1_554 S
C1712 C1714 1.419 1_554 S
C1713 C1708 1.425 . S
C1713 C1710 1.409 . S
C1713 C1711 1.415 . S
C1714 H1704 0.930 1_556 S
C1714 C1712 1.419 1_556 S
C1714 C1715 1.362 . S
C1715 H1705 0.930 . S
C1715 C1708 1.409 . S
C1715 C1714 1.362 . S
H1716 C1722 0.930 . S
H1717 C1725 0.930 . S
H1718 C1726 0.930 . S
H1719 C1727 0.930 . S
H1720 C1730 0.930 . S
H1721 C1731 0.930 . S
C1722 H1716 0.930 . S
C1722 C1723 1.355 . S
C1722 C1724 1.415 . S
C1723 C1722 1.355 . S
C1723 C1725 1.419 . S
C1724 C1722 1.415 . S
C1724 C1729 1.425 . S
C1724 C1731 1.409 . S
C1725 H1717 0.930 . S
C1725 C1723 1.419 . S
C1725 C1726 1.362 . S
C1726 H1718 0.930 . S
C1726 C1725 1.362 . S
C1726 C1729 1.409 . S
C1727 H1719 0.930 . S
C1727 C1728 1.355 . S
C1727 C1729 1.415 . S
C1728 C1727 1.355 . S
C1728 C1730 1.419 . S
C1729 C1724 1.425 . S
C1729 C1726 1.409 . S
C1729 C1727 1.415 . S
C1730 H1720 0.930 . S
C1730 C1728 1.419 . S
C1730 C1731 1.362 . S
C1731 H1721 0.930 . S
C1731 C1724 1.409 . S
C1731 C1730 1.362 . S
H1732 C1738 0.930 . S
H1733 C1741 0.930 . S
H1734 C1742 0.930 . S
H1735 C1743 0.930 . S
H1736 C1746 0.930 . S
H1737 C1747 0.930 . S
C1738 H1732 0.930 . S
C1738 C1739 1.355 . S
C1738 C1740 1.415 . S
C1739 C1738 1.355 . S
C1739 C1741 1.419 . S
C1740 C1738 1.415 . S
C1740 C1745 1.425 . S
C1740 C1747 1.409 . S
C1741 H1733 0.930 . S
C1741 C1739 1.419 . S
C1741 C1742 1.362 . S
C1742 H1734 0.930 . S
C1742 C1741 1.362 . S
C1742 C1745 1.409 . S
C1743 H1735 0.930 . S
C1743 C1744 1.355 . S
C1743 C1745 1.415 . S
C1744 C1743 1.355 . S
C1744 C1746 1.419 . S
C1745 C1740 1.425 . S
C1745 C1742 1.409 . S
C1745 C1743 1.415 . S
C1746 H1736 0.930 . S
C1746 C1744 1.419 . S
C1746 C1747 1.362 . S
C1747 H1737 0.930 . S
C1747 C1740 1.409 . S
C1747 C1746 1.362 . S
H1748 C1754 0.930 . S
H1749 C1757 0.930 . S
H1750 C1758 0.930 . S
H1751 C1759 0.930 . S
H1752 C1762 0.930 . S
H1753 C1763 0.930 . S
C1754 H1748 0.930 . S
C1754 C1755 1.355 . S
C1754 C1756 1.415 . S
C1755 C1754 1.355 . S
C1755 C1757 1.419 . S
C1756 C1754 1.415 . S
C1756 C1761 1.425 . S
C1756 C1763 1.409 . S
C1757 H1749 0.930 . S
C1757 C1755 1.419 . S
C1757 C1758 1.362 . S
C1758 H1750 0.930 . S
C1758 C1757 1.362 . S
C1758 C1761 1.409 . S
C1759 H1751 0.930 . S
C1759 C1760 1.355 . S
C1759 C1761 1.415 . S
C1760 C1759 1.355 . S
C1760 C1762 1.419 . S
C1761 C1756 1.425 . S
C1761 C1758 1.409 . S
C1761 C1759 1.415 . S
C1762 H1752 0.930 . S
C1762 C1760 1.419 . S
C1762 C1763 1.362 . S
C1763 H1753 0.930 . S
C1763 C1756 1.409 . S
C1763 C1762 1.362 . S
H1764 C1770 0.930 . S
H1765 C1773 0.930 . S
H1766 C1774 0.930 . S
H1767 C1775 0.930 . S
H1768 C1778 0.930 . S
H1769 C1779 0.930 . S
C1770 H1764 0.930 . S
C1770 C1771 1.355 . S
C1770 C1772 1.415 . S
C1771 C1770 1.355 . S
C1771 C1773 1.419 . S
C1772 C1770 1.415 . S
C1772 C1777 1.425 . S
C1772 C1779 1.409 . S
C1773 H1765 0.930 . S
C1773 C1771 1.419 . S
C1773 C1774 1.362 . S
C1774 H1766 0.930 . S
C1774 C1773 1.362 . S
C1774 C1777 1.409 . S
C1775 H1767 0.930 . S
C1775 C1776 1.355 . S
C1775 C1777 1.415 . S
C1776 C1775 1.355 . S
C1776 C1778 1.419 . S
C1777 C1772 1.425 . S
C1777 C1774 1.409 . S
C1777 C1775 1.415 . S
C1778 H1768 0.930 . S
C1778 C1776 1.419 . S
C1778 C1779 1.362 . S
C1779 H1769 0.930 . S
C1779 C1772 1.409 . S
C1779 C1778 1.362 . S
H1780 C1786 0.930 . S
H1781 C1789 0.930 . S
H1782 C1790 0.930 . S
H1783 C1791 0.930 . S
H1784 C1794 0.930 . S
H1785 C1795 0.930 . S
C1786 H1780 0.930 . S
C1786 C1787 1.355 . S
C1786 C1788 1.415 . S
C1787 C1786 1.355 . S
C1787 C1789 1.419 . S
C1788 C1786 1.415 . S
C1788 C1793 1.425 . S
C1788 C1795 1.409 . S
C1789 H1781 0.930 . S
C1789 C1787 1.419 . S
C1789 C1790 1.362 . S
C1790 H1782 0.930 . S
C1790 C1789 1.362 . S
C1790 C1793 1.409 . S
C1791 H1783 0.930 . S
C1791 C1792 1.355 . S
C1791 C1793 1.415 . S
C1792 C1791 1.355 . S
C1792 C1794 1.419 . S
C1793 C1788 1.425 . S
C1793 C1790 1.409 . S
C1793 C1791 1.415 . S
C1794 H1784 0.930 . S
C1794 C1792 1.419 . S
C1794 C1795 1.362 . S
C1795 H1785 0.930 . S
C1795 C1788 1.409 . S
C1795 C1794 1.362 . S
H1796 C1802 0.930 . S
H1797 C1805 0.930 . S
H1798 C1806 0.930 . S
H1799 C1807 0.930 1_556 S
H1800 C1810 0.930 . S
H1801 C1811 0.930 . S
C1802 H1796 0.930 . S
C1802 C1803 1.355 . S
C1802 C1804 1.415 . S
C1803 C1802 1.355 . S
C1803 C1805 1.419 1_554 S
C1804 C1802 1.415 . S
C1804 C1809 1.425 . S
C1804 C1811 1.409 . S
C1805 H1797 0.930 . S
C1805 C1803 1.419 1_556 S
C1805 C1806 1.362 . S
C1806 H1798 0.930 . S
C1806 C1805 1.362 . S
C1806 C1809 1.409 1_556 S
C1807 H1799 0.930 1_554 S
C1807 C1808 1.355 . S
C1807 C1809 1.415 . S
C1808 C1807 1.355 . S
C1808 C1810 1.419 . S
C1809 C1804 1.425 . S
C1809 C1806 1.409 1_554 S
C1809 C1807 1.415 . S
C1810 H1800 0.930 . S
C1810 C1808 1.419 . S
C1810 C1811 1.362 . S
C1811 H1801 0.930 . S
C1811 C1804 1.409 . S
C1811 C1810 1.362 . S
H1812 C1818 0.930 . S
H1813 C1821 0.930 . S
H1814 C1822 0.930 . S
H1815 C1823 0.930 . S
H1816 C1826 0.930 . S
H1817 C1827 0.930 . S
C1818 H1812 0.930 . S
C1818 C1819 1.355 . S
C1818 C1820 1.415 . S
C1819 C1818 1.355 . S
C1819 C1821 1.419 . S
C1820 C1818 1.415 . S
C1820 C1825 1.425 . S
C1820 C1827 1.409 . S
C1821 H1813 0.930 . S
C1821 C1819 1.419 . S
C1821 C1822 1.362 . S
C1822 H1814 0.930 . S
C1822 C1821 1.362 . S
C1822 C1825 1.409 . S
C1823 H1815 0.930 . S
C1823 C1824 1.355 . S
C1823 C1825 1.415 . S
C1824 C1823 1.355 . S
C1824 C1826 1.419 . S
C1825 C1820 1.425 . S
C1825 C1822 1.409 . S
C1825 C1823 1.415 . S
C1826 H1816 0.930 . S
C1826 C1824 1.419 . S
C1826 C1827 1.362 . S
C1827 H1817 0.930 . S
C1827 C1820 1.409 . S
C1827 C1826 1.362 . S
H1828 C1834 0.930 . S
H1829 C1837 0.930 . S
H1830 C1838 0.930 . S
H1831 C1839 0.930 . S
H1832 C1842 0.930 . S
H1833 C1843 0.930 . S
C1834 H1828 0.930 . S
C1834 C1835 1.355 . S
C1834 C1836 1.415 . S
C1835 C1834 1.355 . S
C1835 C1837 1.419 . S
C1836 C1834 1.415 . S
C1836 C1841 1.425 . S
C1836 C1843 1.409 . S
C1837 H1829 0.930 . S
C1837 C1835 1.419 . S
C1837 C1838 1.362 . S
C1838 H1830 0.930 . S
C1838 C1837 1.362 . S
C1838 C1841 1.409 . S
C1839 H1831 0.930 . S
C1839 C1840 1.355 . S
C1839 C1841 1.415 . S
C1840 C1839 1.355 . S
C1840 C1842 1.419 . S
C1841 C1836 1.425 . S
C1841 C1838 1.409 . S
C1841 C1839 1.415 . S
C1842 H1832 0.930 . S
C1842 C1840 1.419 . S
C1842 C1843 1.362 . S
C1843 H1833 0.930 . S
C1843 C1836 1.409 . S
C1843 C1842 1.362 . S
H1844 C1850 0.930 . S
H1845 C1853 0.930 . S
H1846 C1854 0.930 . S
H1847 C1855 0.930 . S
H1848 C1858 0.930 . S
H1849 C1859 0.930 . S
C1850 H1844 0.930 . S
C1850 C1851 1.355 . S
C1850 C1852 1.415 . S
C1851 C1850 1.355 . S
C1851 C1853 1.419 . S
C1852 C1850 1.415 . S
C1852 C1857 1.425 . S
C1852 C1859 1.409 . S
C1853 H1845 0.930 . S
C1853 C1851 1.419 . S
C1853 C1854 1.362 . S
C1854 H1846 0.930 . S
C1854 C1853 1.362 . S
C1854 C1857 1.409 . S
C1855 H1847 0.930 . S
C1855 C1856 1.355 . S
C1855 C1857 1.415 . S
C1856 C1855 1.355 . S
C1856 C1858 1.419 . S
C1857 C1852 1.425 . S
C1857 C1854 1.409 . S
C1857 C1855 1.415 . S
C1858 H1848 0.930 . S
C1858 C1856 1.419 . S
C1858 C1859 1.362 . S
C1859 H1849 0.930 . S
C1859 C1852 1.409 . S
C1859 C1858 1.362 . S
H1860 C1866 0.930 . S
H1861 C1869 0.930 . S
H1862 C1870 0.930 . S
H1863 C1871 0.930 . S
H1864 C1874 0.930 . S
H1865 C1875 0.930 . S
C1866 H1860 0.930 . S
C1866 C1867 1.355 . S
C1866 C1868 1.415 . S
C1867 C1866 1.355 . S
C1867 C1869 1.419 . S
C1868 C1866 1.415 . S
C1868 C1873 1.425 . S
C1868 C1875 1.409 . S
C1869 H1861 0.930 . S
C1869 C1867 1.419 . S
C1869 C1870 1.362 . S
C1870 H1862 0.930 . S
C1870 C1869 1.362 . S
C1870 C1873 1.409 . S
C1871 H1863 0.930 . S
C1871 C1872 1.355 . S
C1871 C1873 1.415 . S
C1872 C1871 1.355 . S
C1872 C1874 1.419 . S
C1873 C1868 1.425 . S
C1873 C1870 1.409 . S
C1873 C1871 1.415 . S
C1874 H1864 0.930 . S
C1874 C1872 1.419 . S
C1874 C1875 1.362 . S
C1875 H1865 0.930 . S
C1875 C1868 1.409 . S
C1875 C1874 1.362 . S
H1876 C1882 0.930 . S
H1877 C1885 0.930 . S
H1878 C1886 0.930 . S
H1879 C1887 0.930 . S
H1880 C1890 0.930 . S
H1881 C1891 0.930 . S
C1882 H1876 0.930 . S
C1882 C1883 1.355 . S
C1882 C1884 1.415 . S
C1883 C1882 1.355 . S
C1883 C1885 1.419 . S
C1884 C1882 1.415 . S
C1884 C1889 1.425 . S
C1884 C1891 1.409 . S
C1885 H1877 0.930 . S
C1885 C1883 1.419 . S
C1885 C1886 1.362 . S
C1886 H1878 0.930 . S
C1886 C1885 1.362 . S
C1886 C1889 1.409 . S
C1887 H1879 0.930 . S
C1887 C1888 1.355 . S
C1887 C1889 1.415 . S
C1888 C1887 1.355 . S
C1888 C1890 1.419 . S
C1889 C1884 1.425 . S
C1889 C1886 1.409 . S
C1889 C1887 1.415 . S
C1890 H1880 0.930 . S
C1890 C1888 1.419 . S
C1890 C1891 1.362 . S
C1891 H1881 0.930 . S
C1891 C1884 1.409 . S
C1891 C1890 1.362 . S
H1892 C1898 0.930 1_556 S
H1893 C1901 0.930 . S
H1894 C1902 0.930 . S
H1895 C1903 0.930 . S
H1896 C1906 0.930 1_556 S
H1897 C1907 0.923 1_556 S
C1898 H1892 0.930 1_554 S
C1898 C1899 1.355 . S
C1898 C1900 1.415 . S
C1899 C1898 1.355 . S
C1899 C1901 1.419 . S
C1900 C1898 1.415 . S
C1900 C1905 1.425 . S
C1900 C1907 1.416 . S
C1901 H1893 0.930 . S
C1901 C1899 1.419 . S
C1901 C1902 1.362 . S
C1902 H1894 0.930 . S
C1902 C1901 1.362 . S
C1902 C1905 1.409 . S
C1903 H1895 0.930 . S
C1903 C1904 1.355 . S
C1903 C1905 1.415 . S
C1904 C1903 1.355 . S
C1904 C1906 1.419 . S
C1905 C1900 1.425 . S
C1905 C1902 1.409 . S
C1905 C1903 1.415 . S
C1906 H1896 0.930 1_554 S
C1906 C1904 1.419 . S
C1906 C1907 1.363 . S
C1907 H1897 0.923 1_554 S
C1907 C1900 1.416 . S
C1907 C1906 1.363 . S
H1908 C1914 0.930 . S
H1909 C1917 0.930 . S
H1910 C1918 0.930 . S
H1911 C1919 0.930 . S
H1912 C1922 0.930 . S
H1913 C1923 0.930 . S
C1914 H1908 0.930 . S
C1914 C1915 1.355 . S
C1914 C1916 1.415 . S
C1915 C1914 1.355 . S
C1915 C1917 1.419 . S
C1916 C1914 1.415 . S
C1916 C1921 1.425 . S
C1916 C1923 1.409 . S
C1917 H1909 0.930 . S
C1917 C1915 1.419 . S
C1917 C1918 1.362 . S
C1918 H1910 0.930 . S
C1918 C1917 1.362 . S
C1918 C1921 1.409 . S
C1919 H1911 0.930 . S
C1919 C1920 1.355 . S
C1919 C1921 1.415 . S
C1920 C1919 1.355 . S
C1920 C1922 1.419 . S
C1921 C1916 1.425 . S
C1921 C1918 1.409 . S
C1921 C1919 1.415 . S
C1922 H1912 0.930 . S
C1922 C1920 1.419 . S
C1922 C1923 1.362 . S
C1923 H1913 0.930 . S
C1923 C1916 1.409 . S
C1923 C1922 1.362 . S
H1924 C1930 0.930 . S
H1925 C1933 0.930 . S
H1926 C1934 0.930 . S
H1927 C1935 0.930 . S
H1928 C1938 0.930 . S
H1929 C1939 0.930 . S
C1930 H1924 0.930 . S
C1930 C1931 1.355 . S
C1930 C1932 1.415 . S
C1931 C1930 1.355 . S
C1931 C1933 1.419 . S
C1932 C1930 1.415 . S
C1932 C1937 1.425 . S
C1932 C1939 1.409 . S
C1933 H1925 0.930 . S
C1933 C1931 1.419 . S
C1933 C1934 1.362 . S
C1934 H1926 0.930 . S
C1934 C1933 1.362 . S
C1934 C1937 1.409 . S
C1935 H1927 0.930 . S
C1935 C1936 1.355 . S
C1935 C1937 1.415 . S
C1936 C1935 1.355 . S
C1936 C1938 1.419 . S
C1937 C1932 1.425 . S
C1937 C1934 1.409 . S
C1937 C1935 1.415 . S
C1938 H1928 0.930 . S
C1938 C1936 1.419 . S
C1938 C1939 1.362 . S
C1939 H1929 0.930 . S
C1939 C1932 1.409 . S
C1939 C1938 1.362 . S
H1940 C1946 0.930 . S
H1941 C1949 0.930 . S
H1942 C1950 0.930 . S
H1943 C1951 0.930 . S
H1944 C1954 0.930 . S
H1945 C1955 0.930 . S
C1946 H1940 0.930 . S
C1946 C1947 1.355 . S
C1946 C1948 1.415 . S
C1947 C1946 1.355 . S
C1947 C1949 1.419 . S
C1948 C1946 1.415 . S
C1948 C1953 1.425 . S
C1948 C1955 1.409 . S
C1949 H1941 0.930 . S
C1949 C1947 1.419 . S
C1949 C1950 1.362 . S
C1950 H1942 0.930 . S
C1950 C1949 1.362 . S
C1950 C1953 1.409 . S
C1951 H1943 0.930 . S
C1951 C1952 1.355 . S
C1951 C1953 1.415 . S
C1952 C1951 1.355 . S
C1952 C1954 1.419 . S
C1953 C1948 1.425 . S
C1953 C1950 1.409 . S
C1953 C1951 1.415 . S
C1954 H1944 0.930 . S
C1954 C1952 1.419 . S
C1954 C1955 1.362 . S
C1955 H1945 0.930 . S
C1955 C1948 1.409 . S
C1955 C1954 1.362 . S
H1956 C1962 0.930 . S
H1957 C1965 0.930 . S
H1958 C1966 0.930 . S
H1959 C1967 0.930 . S
H1960 C1970 0.930 . S
H1961 C1971 0.930 . S
C1962 H1956 0.930 . S
C1962 C1963 1.355 . S
C1962 C1964 1.415 . S
C1963 C1962 1.355 . S
C1963 C1965 1.419 . S
C1964 C1962 1.415 . S
C1964 C1969 1.425 . S
C1964 C1971 1.409 . S
C1965 H1957 0.930 . S
C1965 C1963 1.419 . S
C1965 C1966 1.362 . S
C1966 H1958 0.930 . S
C1966 C1965 1.362 . S
C1966 C1969 1.409 . S
C1967 H1959 0.930 . S
C1967 C1968 1.355 . S
C1967 C1969 1.415 . S
C1968 C1967 1.355 . S
C1968 C1970 1.419 . S
C1969 C1964 1.425 . S
C1969 C1966 1.409 . S
C1969 C1967 1.415 . S
C1970 H1960 0.930 . S
C1970 C1968 1.419 . S
C1970 C1971 1.362 . S
C1971 H1961 0.930 . S
C1971 C1964 1.409 . S
C1971 C1970 1.362 . S
H1972 C1978 0.930 . S
H1973 C1981 0.930 . S
H1974 C1982 0.930 . S
H1975 C1983 0.930 . S
H1976 C1986 0.930 . S
H1977 C1987 0.930 . S
C1978 H1972 0.930 . S
C1978 C1979 1.355 . S
C1978 C1980 1.415 . S
C1979 C1978 1.355 . S
C1979 C1981 1.419 . S
C1980 C1978 1.415 . S
C1980 C1985 1.425 . S
C1980 C1987 1.409 . S
C1981 H1973 0.930 . S
C1981 C1979 1.419 . S
C1981 C1982 1.362 . S
C1982 H1974 0.930 . S
C1982 C1981 1.362 . S
C1982 C1985 1.409 . S
C1983 H1975 0.930 . S
C1983 C1984 1.355 . S
C1983 C1985 1.415 . S
C1984 C1983 1.355 . S
C1984 C1986 1.419 . S
C1985 C1980 1.425 . S
C1985 C1982 1.409 . S
C1985 C1983 1.415 . S
C1986 H1976 0.930 . S
C1986 C1984 1.419 . S
C1986 C1987 1.362 . S
C1987 H1977 0.930 . S
C1987 C1980 1.409 . S
C1987 C1986 1.362 . S
H1988 C1994 0.930 . S
H1989 C1997 0.930 . S
H1990 C1998 0.930 . S
H1991 C1999 0.930 . S
H1992 C2002 0.930 . S
H1993 C2003 0.930 . S
C1994 H1988 0.930 . S
C1994 C1995 1.355 . S
C1994 C1996 1.415 . S
C1995 C1994 1.355 . S
C1995 C1997 1.419 . S
C1996 C1994 1.415 . S
C1996 C2001 1.425 . S
C1996 C2003 1.409 . S
C1997 H1989 0.930 . S
C1997 C1995 1.419 . S
C1997 C1998 1.362 . S
C1998 H1990 0.930 . S
C1998 C1997 1.362 . S
C1998 C2001 1.409 . S
C1999 H1991 0.930 . S
C1999 C2000 1.355 . S
C1999 C2001 1.415 . S
C2000 C1999 1.355 . S
C2000 C2002 1.419 . S
C2001 C1996 1.425 . S
C2001 C1998 1.409 . S
C2001 C1999 1.415 . S
C2002 H1992 0.930 . S
C2002 C2000 1.419 . S
C2002 C2003 1.362 . S
C2003 H1993 0.930 . S
C2003 C1996 1.409 . S
C2003 C2002 1.362 . S
H2004 C2010 0.930 . S
H2005 C2013 0.930 . S
H2006 C2014 0.930 . S
H2007 C2015 0.930 . S
H2008 C2018 0.930 . S
H2009 C2019 0.930 . S
C2010 H2004 0.930 . S
C2010 C2011 1.355 . S
C2010 C2012 1.415 . S
C2011 C2010 1.355 . S
C2011 C2013 1.419 . S
C2012 C2010 1.415 . S
C2012 C2017 1.425 . S
C2012 C2019 1.409 . S
C2013 H2005 0.930 . S
C2013 C2011 1.419 . S
C2013 C2014 1.362 . S
C2014 H2006 0.930 . S
C2014 C2013 1.362 . S
C2014 C2017 1.409 . S
C2015 H2007 0.930 . S
C2015 C2016 1.355 . S
C2015 C2017 1.415 . S
C2016 C2015 1.355 . S
C2016 C2018 1.419 . S
C2017 C2012 1.425 . S
C2017 C2014 1.409 . S
C2017 C2015 1.415 . S
C2018 H2008 0.930 . S
C2018 C2016 1.419 . S
C2018 C2019 1.362 . S
C2019 H2009 0.930 . S
C2019 C2012 1.409 . S
C2019 C2018 1.362 . S
H2020 C2026 0.930 . S
H2021 C2029 0.930 . S
H2022 C2030 0.930 . S
H2023 C2031 0.930 . S
H2024 C2034 0.930 . S
H2025 C2035 0.930 . S
C2026 H2020 0.930 . S
C2026 C2027 1.355 . S
C2026 C2028 1.415 . S
C2027 C2026 1.355 . S
C2027 C2029 1.419 . S
C2028 C2026 1.415 . S
C2028 C2033 1.425 . S
C2028 C2035 1.409 . S
C2029 H2021 0.930 . S
C2029 C2027 1.419 . S
C2029 C2030 1.362 . S
C2030 H2022 0.930 . S
C2030 C2029 1.362 . S
C2030 C2033 1.409 . S
C2031 H2023 0.930 . S
C2031 C2032 1.355 . S
C2031 C2033 1.415 . S
C2032 C2031 1.355 . S
C2032 C2034 1.419 . S
C2033 C2028 1.425 . S
C2033 C2030 1.409 . S
C2033 C2031 1.415 . S
C2034 H2024 0.930 . S
C2034 C2032 1.419 . S
C2034 C2035 1.362 . S
C2035 H2025 0.930 . S
C2035 C2028 1.409 . S
C2035 C2034 1.362 . S
H2036 C2042 0.930 . S
H2037 C2045 0.930 . S
H2038 C2046 0.930 . S
H2039 C2047 0.930 . S
H2040 C2050 0.930 . S
H2041 C2051 0.930 . S
C2042 H2036 0.930 . S
C2042 C2043 1.355 . S
C2042 C2044 1.415 . S
C2043 C2042 1.355 . S
C2043 C2045 1.419 . S
C2044 C2042 1.415 . S
C2044 C2049 1.425 . S
C2044 C2051 1.409 . S
C2045 H2037 0.930 . S
C2045 C2043 1.419 . S
C2045 C2046 1.362 . S
C2046 H2038 0.930 . S
C2046 C2045 1.362 . S
C2046 C2049 1.409 . S
C2047 H2039 0.930 . S
C2047 C2048 1.355 . S
C2047 C2049 1.415 . S
C2048 C2047 1.355 . S
C2048 C2050 1.419 . S
C2049 C2044 1.425 . S
C2049 C2046 1.409 . S
C2049 C2047 1.415 . S
C2050 H2040 0.930 . S
C2050 C2048 1.419 . S
C2050 C2051 1.362 . S
C2051 H2041 0.930 . S
C2051 C2044 1.409 . S
C2051 C2050 1.362 . S
H2052 C2058 0.930 . S
H2053 C2061 0.930 . S
H2054 C2062 0.930 . S
H2055 C2063 0.930 . S
H2056 C2066 0.930 . S
H2057 C2067 0.930 . S
C2058 H2052 0.930 . S
C2058 C2059 1.355 . S
C2058 C2060 1.415 . S
C2059 C2058 1.355 . S
C2059 C2061 1.419 . S
C2060 C2058 1.415 . S
C2060 C2065 1.425 . S
C2060 C2067 1.409 . S
C2061 H2053 0.930 . S
C2061 C2059 1.419 . S
C2061 C2062 1.362 . S
C2062 H2054 0.930 . S
C2062 C2061 1.362 . S
C2062 C2065 1.409 . S
C2063 H2055 0.930 . S
C2063 C2064 1.355 . S
C2063 C2065 1.415 . S
C2064 C2063 1.355 . S
C2064 C2066 1.419 . S
C2065 C2060 1.425 . S
C2065 C2062 1.409 . S
C2065 C2063 1.415 . S
C2066 H2056 0.930 . S
C2066 C2064 1.419 . S
C2066 C2067 1.362 . S
C2067 H2057 0.930 . S
C2067 C2060 1.409 . S
C2067 C2066 1.362 . S
H2068 C2074 0.930 . S
H2069 C2077 0.930 . S
H2070 C2078 0.930 . S
H2071 C2079 0.930 . S
H2072 C2082 0.930 . S
H2073 C2083 0.930 . S
C2074 H2068 0.930 . S
C2074 C2075 1.355 . S
C2074 C2076 1.415 . S
C2075 C2074 1.355 . S
C2075 C2077 1.419 . S
C2076 C2074 1.415 . S
C2076 C2081 1.425 . S
C2076 C2083 1.409 . S
C2077 H2069 0.930 . S
C2077 C2075 1.419 . S
C2077 C2078 1.362 . S
C2078 H2070 0.930 . S
C2078 C2077 1.362 . S
C2078 C2081 1.409 . S
C2079 H2071 0.930 . S
C2079 C2080 1.355 . S
C2079 C2081 1.415 . S
C2080 C2079 1.355 . S
C2080 C2082 1.419 . S
C2081 C2076 1.425 . S
C2081 C2078 1.409 . S
C2081 C2079 1.415 . S
C2082 H2072 0.930 . S
C2082 C2080 1.419 . S
C2082 C2083 1.362 . S
C2083 H2073 0.930 . S
C2083 C2076 1.409 . S
C2083 C2082 1.362 . S
H2084 C2090 0.930 . S
H2085 C2093 0.930 . S
H2086 C2094 0.930 . S
H2087 C2095 0.930 . S
H2088 C2098 0.930 . S
H2089 C2099 0.930 . S
C2090 H2084 0.930 . S
C2090 C2091 1.355 . S
C2090 C2092 1.415 . S
C2091 C2090 1.355 . S
C2091 C2093 1.419 . S
C2092 C2090 1.415 . S
C2092 C2097 1.425 . S
C2092 C2099 1.409 . S
C2093 H2085 0.930 . S
C2093 C2091 1.419 . S
C2093 C2094 1.362 . S
C2094 H2086 0.930 . S
C2094 C2093 1.362 . S
C2094 C2097 1.409 . S
C2095 H2087 0.930 . S
C2095 C2096 1.355 . S
C2095 C2097 1.415 . S
C2096 C2095 1.355 . S
C2096 C2098 1.419 . S
C2097 C2092 1.425 . S
C2097 C2094 1.409 . S
C2097 C2095 1.415 . S
C2098 H2088 0.930 . S
C2098 C2096 1.419 . S
C2098 C2099 1.362 . S
C2099 H2089 0.930 . S
C2099 C2092 1.409 . S
C2099 C2098 1.362 . S
H2100 C2106 0.930 . S
H2101 C2109 0.930 . S
H2102 C2110 0.930 . S
H2103 C2111 0.930 . S
H2104 C2114 0.930 . S
H2105 C2115 0.930 . S
C2106 H2100 0.930 . S
C2106 C2107 1.355 . S
C2106 C2108 1.415 . S
C2107 C2106 1.355 . S
C2107 C2109 1.419 . S
C2108 C2106 1.415 . S
C2108 C2113 1.425 . S
C2108 C2115 1.409 . S
C2109 H2101 0.930 . S
C2109 C2107 1.419 . S
C2109 C2110 1.362 . S
C2110 H2102 0.930 . S
C2110 C2109 1.362 . S
C2110 C2113 1.409 . S
C2111 H2103 0.930 . S
C2111 C2112 1.355 . S
C2111 C2113 1.415 . S
C2112 C2111 1.355 . S
C2112 C2114 1.419 . S
C2113 C2108 1.425 . S
C2113 C2110 1.409 . S
C2113 C2111 1.415 . S
C2114 H2104 0.930 . S
C2114 C2112 1.419 . S
C2114 C2115 1.362 . S
C2115 H2105 0.930 . S
C2115 C2108 1.409 . S
C2115 C2114 1.362 . S
H2116 C2122 0.930 . S
H2117 C2125 0.930 . S
H2118 C2126 0.930 . S
H2119 C2127 0.930 . S
H2120 C2130 0.930 . S
H2121 C2131 0.930 . S
C2122 H2116 0.930 . S
C2122 C2123 1.355 . S
C2122 C2124 1.415 . S
C2123 C2122 1.355 . S
C2123 C2125 1.419 . S
C2124 C2122 1.415 . S
C2124 C2129 1.425 . S
C2124 C2131 1.409 . S
C2125 H2117 0.930 . S
C2125 C2123 1.419 . S
C2125 C2126 1.362 . S
C2126 H2118 0.930 . S
C2126 C2125 1.362 . S
C2126 C2129 1.409 . S
C2127 H2119 0.930 . S
C2127 C2128 1.355 . S
C2127 C2129 1.415 . S
C2128 C2127 1.355 . S
C2128 C2130 1.419 . S
C2129 C2124 1.425 . S
C2129 C2126 1.409 . S
C2129 C2127 1.415 . S
C2130 H2120 0.930 . S
C2130 C2128 1.419 . S
C2130 C2131 1.362 . S
C2131 H2121 0.930 . S
C2131 C2124 1.409 . S
C2131 C2130 1.362 . S
H2132 C2138 0.930 . S
H2133 C2141 0.930 . S
H2134 C2142 0.930 . S
H2135 C2143 0.930 . S
H2136 C2146 0.930 . S
H2137 C2147 0.930 . S
C2138 H2132 0.930 . S
C2138 C2139 1.355 . S
C2138 C2140 1.415 . S
C2139 C2138 1.355 . S
C2139 C2141 1.419 . S
C2140 C2138 1.415 . S
C2140 C2145 1.425 . S
C2140 C2147 1.409 . S
C2141 H2133 0.930 . S
C2141 C2139 1.419 . S
C2141 C2142 1.362 . S
C2142 H2134 0.930 . S
C2142 C2141 1.362 . S
C2142 C2145 1.409 . S
C2143 H2135 0.930 . S
C2143 C2144 1.355 . S
C2143 C2145 1.415 . S
C2144 C2143 1.355 . S
C2144 C2146 1.419 . S
C2145 C2140 1.425 . S
C2145 C2142 1.409 . S
C2145 C2143 1.415 . S
C2146 H2136 0.930 . S
C2146 C2144 1.419 . S
C2146 C2147 1.362 . S
C2147 H2137 0.930 . S
C2147 C2140 1.409 . S
C2147 C2146 1.362 . S
H2148 C2154 0.930 . S
H2149 C2157 0.930 . S
H2150 C2158 0.930 . S
H2151 C2159 0.930 . S
H2152 C2162 0.930 . S
H2153 C2163 0.930 . S
C2154 H2148 0.930 . S
C2154 C2155 1.355 . S
C2154 C2156 1.415 . S
C2155 C2154 1.355 . S
C2155 C2157 1.419 . S
C2156 C2154 1.415 . S
C2156 C2161 1.425 . S
C2156 C2163 1.409 . S
C2157 H2149 0.930 . S
C2157 C2155 1.419 . S
C2157 C2158 1.362 . S
C2158 H2150 0.930 . S
C2158 C2157 1.362 . S
C2158 C2161 1.409 . S
C2159 H2151 0.930 . S
C2159 C2160 1.355 . S
C2159 C2161 1.415 . S
C2160 C2159 1.355 . S
C2160 C2162 1.419 . S
C2161 C2156 1.425 . S
C2161 C2158 1.409 . S
C2161 C2159 1.415 . S
C2162 H2152 0.930 . S
C2162 C2160 1.419 . S
C2162 C2163 1.362 . S
C2163 H2153 0.930 . S
C2163 C2156 1.409 . S
C2163 C2162 1.362 . S
H2164 C2170 0.930 . S
H2165 C2173 0.930 . S
H2166 C2174 0.930 . S
H2167 C2175 0.930 . S
H2168 C2178 0.930 . S
H2169 C2179 0.930 . S
C2170 H2164 0.930 . S
C2170 C2171 1.355 . S
C2170 C2172 1.415 . S
C2171 C2170 1.355 . S
C2171 C2173 1.419 . S
C2172 C2170 1.415 . S
C2172 C2177 1.425 . S
C2172 C2179 1.409 . S
C2173 H2165 0.930 . S
C2173 C2171 1.419 . S
C2173 C2174 1.362 . S
C2174 H2166 0.930 . S
C2174 C2173 1.362 . S
C2174 C2177 1.409 . S
C2175 H2167 0.930 . S
C2175 C2176 1.355 . S
C2175 C2177 1.415 . S
C2176 C2175 1.355 . S
C2176 C2178 1.419 . S
C2177 C2172 1.425 . S
C2177 C2174 1.409 . S
C2177 C2175 1.415 . S
C2178 H2168 0.930 . S
C2178 C2176 1.419 . S
C2178 C2179 1.362 . S
C2179 H2169 0.930 . S
C2179 C2172 1.409 . S
C2179 C2178 1.362 . S
H2180 C2186 0.930 . S
H2181 C2189 0.930 . S
H2182 C2190 0.930 . S
H2183 C2191 0.930 . S
H2184 C2194 0.930 . S
H2185 C2195 0.930 . S
C2186 H2180 0.930 . S
C2186 C2187 1.355 . S
C2186 C2188 1.415 . S
C2187 C2186 1.355 . S
C2187 C2189 1.419 . S
C2188 C2186 1.415 . S
C2188 C2193 1.425 . S
C2188 C2195 1.409 . S
C2189 H2181 0.930 . S
C2189 C2187 1.419 . S
C2189 C2190 1.362 . S
C2190 H2182 0.930 . S
C2190 C2189 1.362 . S
C2190 C2193 1.409 . S
C2191 H2183 0.930 . S
C2191 C2192 1.355 . S
C2191 C2193 1.415 . S
C2192 C2191 1.355 . S
C2192 C2194 1.419 . S
C2193 C2188 1.425 . S
C2193 C2190 1.409 . S
C2193 C2191 1.415 . S
C2194 H2184 0.930 . S
C2194 C2192 1.419 . S
C2194 C2195 1.362 . S
C2195 H2185 0.930 . S
C2195 C2188 1.409 . S
C2195 C2194 1.362 . S
H2196 C2202 0.930 . S
H2197 C2205 0.930 . S
H2198 C2206 0.930 . S
H2199 C2207 0.930 . S
H2200 C2210 0.930 . S
H2201 C2211 0.930 . S
C2202 H2196 0.930 . S
C2202 C2203 1.355 . S
C2202 C2204 1.415 . S
C2203 C2202 1.355 . S
C2203 C2205 1.419 . S
C2204 C2202 1.415 . S
C2204 C2209 1.425 . S
C2204 C2211 1.409 . S
C2205 H2197 0.930 . S
C2205 C2203 1.419 . S
C2205 C2206 1.362 . S
C2206 H2198 0.930 . S
C2206 C2205 1.362 . S
C2206 C2209 1.409 . S
C2207 H2199 0.930 . S
C2207 C2208 1.355 . S
C2207 C2209 1.415 . S
C2208 C2207 1.355 . S
C2208 C2210 1.419 . S
C2209 C2204 1.425 . S
C2209 C2206 1.409 . S
C2209 C2207 1.415 . S
C2210 H2200 0.930 . S
C2210 C2208 1.419 . S
C2210 C2211 1.362 . S
C2211 H2201 0.930 . S
C2211 C2204 1.409 . S
C2211 C2210 1.362 . S
H2212 C2218 0.930 . S
H2213 C2221 0.930 . S
H2214 C2222 0.930 . S
H2215 C2223 0.930 . S
H2216 C2226 0.930 . S
H2217 C2227 0.930 . S
C2218 H2212 0.930 . S
C2218 C2219 1.355 . S
C2218 C2220 1.415 . S
C2219 C2218 1.355 . S
C2219 C2221 1.419 . S
C2220 C2218 1.415 . S
C2220 C2225 1.425 . S
C2220 C2227 1.409 . S
C2221 H2213 0.930 . S
C2221 C2219 1.419 . S
C2221 C2222 1.362 . S
C2222 H2214 0.930 . S
C2222 C2221 1.362 . S
C2222 C2225 1.409 . S
C2223 H2215 0.930 . S
C2223 C2224 1.355 . S
C2223 C2225 1.415 . S
C2224 C2223 1.355 . S
C2224 C2226 1.419 . S
C2225 C2220 1.425 . S
C2225 C2222 1.409 . S
C2225 C2223 1.415 . S
C2226 H2216 0.930 . S
C2226 C2224 1.419 . S
C2226 C2227 1.362 . S
C2227 H2217 0.930 . S
C2227 C2220 1.409 . S
C2227 C2226 1.362 . S
H2228 C2234 0.930 . S
H2229 C2237 0.930 . S
H2230 C2238 0.930 . S
H2231 C2239 0.930 . S
H2232 C2242 0.930 . S
H2233 C2243 0.930 . S
C2234 H2228 0.930 . S
C2234 C2235 1.355 . S
C2234 C2236 1.415 . S
C2235 C2234 1.355 . S
C2235 C2237 1.419 . S
C2236 C2234 1.415 . S
C2236 C2241 1.425 . S
C2236 C2243 1.409 . S
C2237 H2229 0.930 . S
C2237 C2235 1.419 . S
C2237 C2238 1.362 . S
C2238 H2230 0.930 . S
C2238 C2237 1.362 . S
C2238 C2241 1.409 . S
C2239 H2231 0.930 . S
C2239 C2240 1.355 . S
C2239 C2241 1.415 . S
C2240 C2239 1.355 . S
C2240 C2242 1.419 . S
C2241 C2236 1.425 . S
C2241 C2238 1.409 . S
C2241 C2239 1.415 . S
C2242 H2232 0.930 . S
C2242 C2240 1.419 . S
C2242 C2243 1.362 . S
C2243 H2233 0.930 . S
C2243 C2236 1.409 . S
C2243 C2242 1.362 . S
H2244 C2250 0.930 . S
H2245 C2253 0.930 . S
H2246 C2254 0.930 . S
H2247 C2255 0.930 . S
H2248 C2258 0.930 . S
H2249 C2259 0.930 . S
C2250 H2244 0.930 . S
C2250 C2251 1.355 . S
C2250 C2252 1.415 . S
C2251 C2250 1.355 . S
C2251 C2253 1.419 . S
C2252 C2250 1.415 . S
C2252 C2257 1.425 . S
C2252 C2259 1.409 . S
C2253 H2245 0.930 . S
C2253 C2251 1.419 . S
C2253 C2254 1.362 . S
C2254 H2246 0.930 . S
C2254 C2253 1.362 . S
C2254 C2257 1.409 . S
C2255 H2247 0.930 . S
C2255 C2256 1.355 . S
C2255 C2257 1.415 . S
C2256 C2255 1.355 . S
C2256 C2258 1.419 . S
C2257 C2252 1.425 . S
C2257 C2254 1.409 . S
C2257 C2255 1.415 . S
C2258 H2248 0.930 . S
C2258 C2256 1.419 . S
C2258 C2259 1.362 . S
C2259 H2249 0.930 . S
C2259 C2252 1.409 . S
C2259 C2258 1.362 . S
H2260 C2266 0.930 . S
H2261 C2269 0.930 . S
H2262 C2270 0.930 . S
H2263 C2271 0.930 . S
H2264 C2274 0.930 . S
H2265 C2275 0.930 . S
C2266 H2260 0.930 . S
C2266 C2267 1.355 . S
C2266 C2268 1.415 . S
C2267 C2266 1.355 . S
C2267 C2269 1.419 . S
C2268 C2266 1.415 . S
C2268 C2273 1.425 . S
C2268 C2275 1.409 . S
C2269 H2261 0.930 . S
C2269 C2267 1.419 . S
C2269 C2270 1.362 . S
C2270 H2262 0.930 . S
C2270 C2269 1.362 . S
C2270 C2273 1.409 . S
C2271 H2263 0.930 . S
C2271 C2272 1.355 . S
C2271 C2273 1.415 . S
C2272 C2271 1.355 . S
C2272 C2274 1.419 . S
C2273 C2268 1.425 . S
C2273 C2270 1.409 . S
C2273 C2271 1.415 . S
C2274 H2264 0.930 . S
C2274 C2272 1.419 . S
C2274 C2275 1.362 . S
C2275 H2265 0.930 . S
C2275 C2268 1.409 . S
C2275 C2274 1.362 . S
H2276 C2282 0.930 . S
H2277 C2285 0.930 . S
H2278 C2286 0.930 . S
H2279 C2287 0.930 . S
H2280 C2290 0.930 . S
H2281 C2291 0.930 . S
C2282 H2276 0.930 . S
C2282 C2283 1.355 . S
C2282 C2284 1.415 . S
C2283 C2282 1.355 . S
C2283 C2285 1.419 . S
C2284 C2282 1.415 . S
C2284 C2289 1.425 . S
C2284 C2291 1.409 . S
C2285 H2277 0.930 . S
C2285 C2283 1.419 . S
C2285 C2286 1.362 . S
C2286 H2278 0.930 . S
C2286 C2285 1.362 . S
C2286 C2289 1.409 . S
C2287 H2279 0.930 . S
C2287 C2288 1.355 . S
C2287 C2289 1.415 . S
C2288 C2287 1.355 . S
C2288 C2290 1.419 . S
C2289 C2284 1.425 . S
C2289 C2286 1.409 . S
C2289 C2287 1.415 . S
C2290 H2280 0.930 . S
C2290 C2288 1.419 . S
C2290 C2291 1.362 . S
C2291 H2281 0.930 . S
C2291 C2284 1.409 . S
C2291 C2290 1.362 . S
H2292 C2298 0.930 . S
H2293 C2301 0.930 . S
H2294 C2302 0.930 . S
H2295 C2303 0.930 . S
H2296 C2306 0.930 . S
H2297 C2307 0.930 . S
C2298 H2292 0.930 . S
C2298 C2299 1.355 . S
C2298 C2300 1.415 . S
C2299 C2298 1.355 . S
C2299 C2301 1.419 . S
C2300 C2298 1.415 . S
C2300 C2305 1.425 . S
C2300 C2307 1.409 . S
C2301 H2293 0.930 . S
C2301 C2299 1.419 . S
C2301 C2302 1.362 . S
C2302 H2294 0.930 . S
C2302 C2301 1.362 . S
C2302 C2305 1.409 . S
C2303 H2295 0.930 . S
C2303 C2304 1.355 . S
C2303 C2305 1.415 . S
C2304 C2303 1.355 . S
C2304 C2306 1.419 . S
C2305 C2300 1.425 . S
C2305 C2302 1.409 . S
C2305 C2303 1.415 . S
C2306 H2296 0.930 . S
C2306 C2304 1.419 . S
C2306 C2307 1.362 . S
C2307 H2297 0.930 . S
C2307 C2300 1.409 . S
C2307 C2306 1.362 . S
H2308 C2314 0.930 . S
H2309 C2317 0.930 . S
H2310 C2318 0.930 . S
H2311 C2319 0.930 . S
H2312 C2322 0.930 . S
H2313 C2323 0.930 . S
C2314 H2308 0.930 . S
C2314 C2315 1.355 . S
C2314 C2316 1.415 . S
C2315 C2314 1.355 . S
C2315 C2317 1.419 . S
C2316 C2314 1.415 . S
C2316 C2321 1.425 . S
C2316 C2323 1.409 . S
C2317 H2309 0.930 . S
C2317 C2315 1.419 . S
C2317 C2318 1.362 . S
C2318 H2310 0.930 . S
C2318 C2317 1.362 . S
C2318 C2321 1.409 . S
C2319 H2311 0.930 . S
C2319 C2320 1.355 . S
C2319 C2321 1.415 . S
C2320 C2319 1.355 . S
C2320 C2322 1.419 . S
C2321 C2316 1.425 . S
C2321 C2318 1.409 . S
C2321 C2319 1.415 . S
C2322 H2312 0.930 . S
C2322 C2320 1.419 . S
C2322 C2323 1.362 . S
C2323 H2313 0.930 . S
C2323 C2316 1.409 . S
C2323 C2322 1.362 . S
H2324 C2330 0.930 . S
H2325 C2333 0.930 . S
H2326 C2334 0.930 . S
H2327 C2335 0.930 . S
H2328 C2338 0.930 . S
H2329 C2339 0.930 . S
C2330 H2324 0.930 . S
C2330 C2331 1.355 . S
C2330 C2332 1.415 . S
C2331 C2330 1.355 . S
C2331 C2333 1.419 . S
C2332 C2330 1.415 . S
C2332 C2337 1.425 . S
C2332 C2339 1.409 . S
C2333 H2325 0.930 . S
C2333 C2331 1.419 . S
C2333 C2334 1.362 . S
C2334 H2326 0.930 . S
C2334 C2333 1.362 . S
C2334 C2337 1.409 . S
C2335 H2327 0.930 . S
C2335 C2336 1.355 . S
C2335 C2337 1.415 . S
C2336 C2335 1.355 . S
C2336 C2338 1.419 . S
C2337 C2332 1.425 . S
C2337 C2334 1.409 . S
C2337 C2335 1.415 . S
C2338 H2328 0.930 . S
C2338 C2336 1.419 . S
C2338 C2339 1.362 . S
C2339 H2329 0.930 . S
C2339 C2332 1.409 . S
C2339 C2338 1.362 . S
H2340 C2346 0.930 . S
H2341 C2349 0.930 . S
H2342 C2350 0.930 . S
H2343 C2351 0.930 . S
H2344 C2354 0.930 . S
H2345 C2355 0.930 . S
C2346 H2340 0.930 . S
C2346 C2347 1.355 . S
C2346 C2348 1.415 . S
C2347 C2346 1.355 . S
C2347 C2349 1.419 . S
C2348 C2346 1.415 . S
C2348 C2353 1.425 . S
C2348 C2355 1.409 . S
C2349 H2341 0.930 . S
C2349 C2347 1.419 . S
C2349 C2350 1.362 . S
C2350 H2342 0.930 . S
C2350 C2349 1.362 . S
C2350 C2353 1.409 . S
C2351 H2343 0.930 . S
C2351 C2352 1.355 . S
C2351 C2353 1.415 . S
C2352 C2351 1.355 . S
C2352 C2354 1.419 . S
C2353 C2348 1.425 . S
C2353 C2350 1.409 . S
C2353 C2351 1.415 . S
C2354 H2344 0.930 . S
C2354 C2352 1.419 . S
C2354 C2355 1.362 . S
C2355 H2345 0.930 . S
C2355 C2348 1.409 . S
C2355 C2354 1.362 . S
H2356 C2362 0.930 . S
H2357 C2365 0.930 . S
H2358 C2366 0.930 . S
H2359 C2367 0.930 . S
H2360 C2370 0.930 . S
H2361 C2371 0.930 . S
C2362 H2356 0.930 . S
C2362 C2363 1.355 . S
C2362 C2364 1.415 . S
C2363 C2362 1.355 . S
C2363 C2365 1.419 1_545 S
C2364 C2362 1.415 . S
C2364 C2369 1.425 1_545 S
C2364 C2371 1.409 . S
C2365 H2357 0.930 . S
C2365 C2363 1.419 1_565 S
C2365 C2366 1.362 . S
C2366 H2358 0.930 . S
C2366 C2365 1.362 . S
C2366 C2369 1.409 . S
C2367 H2359 0.930 . S
C2367 C2368 1.355 . S
C2367 C2369 1.415 . S
C2368 C2367 1.355 . S
C2368 C2370 1.419 1_565 S
C2369 C2364 1.425 1_565 S
C2369 C2366 1.409 . S
C2369 C2367 1.415 . S
C2370 H2360 0.930 . S
C2370 C2368 1.419 1_545 S
C2370 C2371 1.362 . S
C2371 H2361 0.930 . S
C2371 C2364 1.409 . S
C2371 C2370 1.362 . S
H2372 C2378 0.930 . S
H2373 C2381 0.930 . S
H2374 C2382 0.930 . S
H2375 C2383 0.930 . S
H2376 C2386 0.930 . S
H2377 C2387 0.930 . S
C2378 H2372 0.930 . S
C2378 C2379 1.355 . S
C2378 C2380 1.415 . S
C2379 C2378 1.355 . S
C2379 C2381 1.419 1_455 S
C2380 C2378 1.415 . S
C2380 C2385 1.425 1_455 S
C2380 C2387 1.409 . S
C2381 H2373 0.930 . S
C2381 C2379 1.419 1_655 S
C2381 C2382 1.362 . S
C2382 H2374 0.930 . S
C2382 C2381 1.362 . S
C2382 C2385 1.409 . S
C2383 H2375 0.930 . S
C2383 C2384 1.355 . S
C2383 C2385 1.415 . S
C2384 C2383 1.355 . S
C2384 C2386 1.419 1_655 S
C2385 C2380 1.425 1_655 S
C2385 C2382 1.409 . S
C2385 C2383 1.415 . S
C2386 H2376 0.930 . S
C2386 C2384 1.419 1_455 S
C2386 C2387 1.362 . S
C2387 H2377 0.930 . S
C2387 C2380 1.409 . S
C2387 C2386 1.362 . S
H2388 C2394 0.930 . S
H2389 C2397 0.930 . S
H2390 C2398 0.930 . S
H2391 C2399 0.930 . S
H2392 C2402 0.930 . S
H2393 C2403 0.930 . S
C2394 H2388 0.930 . S
C2394 C2395 1.355 . S
C2394 C2396 1.415 . S
C2395 C2394 1.355 . S
C2395 C2397 1.419 . S
C2396 C2394 1.415 . S
C2396 C2401 1.425 . S
C2396 C2403 1.409 . S
C2397 H2389 0.930 . S
C2397 C2395 1.419 . S
C2397 C2398 1.362 . S
C2398 H2390 0.930 . S
C2398 C2397 1.362 . S
C2398 C2401 1.409 . S
C2399 H2391 0.930 . S
C2399 C2400 1.355 . S
C2399 C2401 1.415 . S
C2400 C2399 1.355 . S
C2400 C2402 1.419 . S
C2401 C2396 1.425 . S
C2401 C2398 1.409 . S
C2401 C2399 1.415 . S
C2402 H2392 0.930 . S
C2402 C2400 1.419 . S
C2402 C2403 1.362 . S
C2403 H2393 0.930 . S
C2403 C2396 1.409 . S
C2403 C2402 1.362 . S
H2404 C2410 0.930 . S
H2405 C2413 0.930 . S
H2406 C2414 0.930 . S
H2407 C2415 0.930 . S
H2408 C2418 0.930 . S
H2409 C2419 0.930 . S
C2410 H2404 0.930 . S
C2410 C2411 1.355 . S
C2410 C2412 1.415 . S
C2411 C2410 1.355 . S
C2411 C2413 1.419 1_545 S
C2412 C2410 1.415 . S
C2412 C2417 1.425 1_545 S
C2412 C2419 1.409 . S
C2413 H2405 0.930 . S
C2413 C2411 1.419 1_565 S
C2413 C2414 1.362 . S
C2414 H2406 0.930 . S
C2414 C2413 1.362 . S
C2414 C2417 1.409 . S
C2415 H2407 0.930 . S
C2415 C2416 1.355 . S
C2415 C2417 1.415 . S
C2416 C2415 1.355 . S
C2416 C2418 1.419 1_565 S
C2417 C2412 1.425 1_565 S
C2417 C2414 1.409 . S
C2417 C2415 1.415 . S
C2418 H2408 0.930 . S
C2418 C2416 1.419 1_545 S
C2418 C2419 1.362 . S
C2419 H2409 0.930 . S
C2419 C2412 1.409 . S
C2419 C2418 1.362 . S
H2420 C2426 0.930 . S
H2421 C2429 0.930 . S
H2422 C2430 0.930 . S
H2423 C2431 0.930 . S
H2424 C2434 0.930 . S
H2425 C2435 0.930 . S
C2426 H2420 0.930 . S
C2426 C2427 1.355 . S
C2426 C2428 1.415 . S
C2427 C2426 1.355 . S
C2427 C2429 1.419 1_455 S
C2428 C2426 1.415 . S
C2428 C2433 1.425 1_455 S
C2428 C2435 1.409 . S
C2429 H2421 0.930 . S
C2429 C2427 1.419 1_655 S
C2429 C2430 1.362 . S
C2430 H2422 0.930 . S
C2430 C2429 1.362 . S
C2430 C2433 1.409 . S
C2431 H2423 0.930 . S
C2431 C2432 1.355 . S
C2431 C2433 1.415 . S
C2432 C2431 1.355 . S
C2432 C2434 1.419 1_655 S
C2433 C2428 1.425 1_655 S
C2433 C2430 1.409 . S
C2433 C2431 1.415 . S
C2434 H2424 0.930 . S
C2434 C2432 1.419 1_455 S
C2434 C2435 1.362 . S
C2435 H2425 0.930 . S
C2435 C2428 1.409 . S
C2435 C2434 1.362 . S
H2436 C2442 0.930 . S
H2437 C2445 0.930 . S
H2438 C2446 0.930 . S
H2439 C2447 0.930 . S
H2440 C2450 0.930 . S
H2441 C2451 0.930 . S
C2442 H2436 0.930 . S
C2442 C2443 1.355 . S
C2442 C2444 1.415 . S
C2443 C2442 1.355 . S
C2443 C2445 1.419 . S
C2444 C2442 1.415 . S
C2444 C2449 1.425 . S
C2444 C2451 1.409 . S
C2445 H2437 0.930 . S
C2445 C2443 1.419 . S
C2445 C2446 1.362 . S
C2446 H2438 0.930 . S
C2446 C2445 1.362 . S
C2446 C2449 1.409 . S
C2447 H2439 0.930 . S
C2447 C2448 1.355 . S
C2447 C2449 1.415 . S
C2448 C2447 1.355 . S
C2448 C2450 1.419 . S
C2449 C2444 1.425 . S
C2449 C2446 1.409 . S
C2449 C2447 1.415 . S
C2450 H2440 0.930 . S
C2450 C2448 1.419 . S
C2450 C2451 1.362 . S
C2451 H2441 0.930 . S
C2451 C2444 1.409 . S
C2451 C2450 1.362 . S
H2452 C2458 0.930 . S
H2453 C2461 0.930 . S
H2454 C2462 0.930 . S
H2455 C2463 0.930 . S
H2456 C2466 0.930 . S
H2457 C2467 0.930 . S
C2458 H2452 0.930 . S
C2458 C2459 1.355 . S
C2458 C2460 1.415 . S
C2459 C2458 1.355 . S
C2459 C2461 1.419 . S
C2460 C2458 1.415 . S
C2460 C2465 1.425 . S
C2460 C2467 1.409 . S
C2461 H2453 0.930 . S
C2461 C2459 1.419 . S
C2461 C2462 1.362 . S
C2462 H2454 0.930 . S
C2462 C2461 1.362 . S
C2462 C2465 1.409 . S
C2463 H2455 0.930 . S
C2463 C2464 1.355 . S
C2463 C2465 1.415 . S
C2464 C2463 1.355 . S
C2464 C2466 1.419 . S
C2465 C2460 1.425 . S
C2465 C2462 1.409 . S
C2465 C2463 1.415 . S
C2466 H2456 0.930 . S
C2466 C2464 1.419 . S
C2466 C2467 1.362 . S
C2467 H2457 0.930 . S
C2467 C2460 1.409 . S
C2467 C2466 1.362 . S
H2468 C2474 0.930 . S
H2469 C2477 0.930 . S
H2470 C2478 0.930 . S
H2471 C2479 0.930 . S
H2472 C2482 0.930 . S
H2473 C2483 0.930 . S
C2474 H2468 0.930 . S
C2474 C2475 1.355 . S
C2474 C2476 1.415 . S
C2475 C2474 1.355 . S
C2475 C2477 1.419 . S
C2476 C2474 1.415 . S
C2476 C2481 1.425 . S
C2476 C2483 1.409 . S
C2477 H2469 0.930 . S
C2477 C2475 1.419 . S
C2477 C2478 1.362 . S
C2478 H2470 0.930 . S
C2478 C2477 1.362 . S
C2478 C2481 1.409 . S
C2479 H2471 0.930 . S
C2479 C2480 1.355 . S
C2479 C2481 1.415 . S
C2480 C2479 1.355 . S
C2480 C2482 1.419 . S
C2481 C2476 1.425 . S
C2481 C2478 1.409 . S
C2481 C2479 1.415 . S
C2482 H2472 0.930 . S
C2482 C2480 1.419 . S
C2482 C2483 1.362 . S
C2483 H2473 0.930 . S
C2483 C2476 1.409 . S
C2483 C2482 1.362 . S
H2484 C2490 0.930 . S
H2485 C2493 0.930 . S
H2486 C2494 0.930 . S
H2487 C2495 0.930 . S
H2488 C2498 0.930 . S
H2489 C2499 0.930 . S
C2490 H2484 0.930 . S
C2490 C2491 1.355 . S
C2490 C2492 1.415 . S
C2491 C2490 1.355 . S
C2491 C2493 1.419 . S
C2492 C2490 1.415 . S
C2492 C2497 1.425 . S
C2492 C2499 1.409 . S
C2493 H2485 0.930 . S
C2493 C2491 1.419 . S
C2493 C2494 1.362 . S
C2494 H2486 0.930 . S
C2494 C2493 1.362 . S
C2494 C2497 1.409 . S
C2495 H2487 0.930 . S
C2495 C2496 1.355 . S
C2495 C2497 1.415 . S
C2496 C2495 1.355 . S
C2496 C2498 1.419 . S
C2497 C2492 1.425 . S
C2497 C2494 1.409 . S
C2497 C2495 1.415 . S
C2498 H2488 0.930 . S
C2498 C2496 1.419 . S
C2498 C2499 1.362 . S
C2499 H2489 0.930 . S
C2499 C2492 1.409 . S
C2499 C2498 1.362 . S
H2500 C2506 0.930 . S
H2501 C2509 0.930 . S
H2502 C2510 0.930 . S
H2503 C2511 0.930 . S
H2504 C2514 0.930 . S
H2505 C2515 0.930 . S
C2506 H2500 0.930 . S
C2506 C2507 1.355 . S
C2506 C2508 1.415 . S
C2507 C2506 1.355 . S
C2507 C2509 1.419 . S
C2508 C2506 1.415 . S
C2508 C2513 1.425 . S
C2508 C2515 1.409 . S
C2509 H2501 0.930 . S
C2509 C2507 1.419 . S
C2509 C2510 1.362 . S
C2510 H2502 0.930 . S
C2510 C2509 1.362 . S
C2510 C2513 1.409 . S
C2511 H2503 0.930 . S
C2511 C2512 1.355 . S
C2511 C2513 1.415 . S
C2512 C2511 1.355 . S
C2512 C2514 1.419 . S
C2513 C2508 1.425 . S
C2513 C2510 1.409 . S
C2513 C2511 1.415 . S
C2514 H2504 0.930 . S
C2514 C2512 1.419 . S
C2514 C2515 1.362 . S
C2515 H2505 0.930 . S
C2515 C2508 1.409 . S
C2515 C2514 1.362 . S
H2516 C2522 0.930 . S
H2517 C2525 0.930 . S
H2518 C2526 0.930 . S
H2519 C2527 0.930 . S
H2520 C2530 0.930 . S
H2521 C2531 0.930 . S
C2522 H2516 0.930 . S
C2522 C2523 1.355 . S
C2522 C2524 1.415 . S
C2523 C2522 1.355 . S
C2523 C2525 1.419 . S
C2524 C2522 1.415 . S
C2524 C2529 1.425 . S
C2524 C2531 1.409 . S
C2525 H2517 0.930 . S
C2525 C2523 1.419 . S
C2525 C2526 1.362 . S
C2526 H2518 0.930 . S
C2526 C2525 1.362 . S
C2526 C2529 1.409 . S
C2527 H2519 0.930 . S
C2527 C2528 1.355 . S
C2527 C2529 1.415 . S
C2528 C2527 1.355 . S
C2528 C2530 1.419 . S
C2529 C2524 1.425 . S
C2529 C2526 1.409 . S
C2529 C2527 1.415 . S
C2530 H2520 0.930 . S
C2530 C2528 1.419 . S
C2530 C2531 1.362 . S
C2531 H2521 0.930 . S
C2531 C2524 1.409 . S
C2531 C2530 1.362 . S
H2532 C2538 0.930 . S
H2533 C2541 0.930 . S
H2534 C2542 0.930 . S
H2535 C2543 0.930 . S
H2536 C2546 0.930 . S
H2537 C2547 0.930 . S
C2538 H2532 0.930 . S
C2538 C2539 1.355 . S
C2538 C2540 1.415 . S
C2539 C2538 1.355 . S
C2539 C2541 1.419 . S
C2540 C2538 1.415 . S
C2540 C2545 1.425 . S
C2540 C2547 1.409 . S
C2541 H2533 0.930 . S
C2541 C2539 1.419 . S
C2541 C2542 1.362 . S
C2542 H2534 0.930 . S
C2542 C2541 1.362 . S
C2542 C2545 1.409 . S
C2543 H2535 0.930 . S
C2543 C2544 1.355 . S
C2543 C2545 1.415 . S
C2544 C2543 1.355 . S
C2544 C2546 1.419 . S
C2545 C2540 1.425 . S
C2545 C2542 1.409 . S
C2545 C2543 1.415 . S
C2546 H2536 0.930 . S
C2546 C2544 1.419 . S
C2546 C2547 1.362 . S
C2547 H2537 0.930 . S
C2547 C2540 1.409 . S
C2547 C2546 1.362 . S
H2548 C2554 0.930 . S
H2549 C2557 0.930 . S
H2550 C2558 0.930 . S
H2551 C2559 0.930 . S
H2552 C2562 0.930 . S
H2553 C2563 0.930 . S
C2554 H2548 0.930 . S
C2554 C2555 1.355 . S
C2554 C2556 1.415 . S
C2555 C2554 1.355 . S
C2555 C2557 1.419 . S
C2556 C2554 1.415 . S
C2556 C2561 1.425 . S
C2556 C2563 1.409 . S
C2557 H2549 0.930 . S
C2557 C2555 1.419 . S
C2557 C2558 1.362 . S
C2558 H2550 0.930 . S
C2558 C2557 1.362 . S
C2558 C2561 1.409 . S
C2559 H2551 0.930 . S
C2559 C2560 1.355 . S
C2559 C2561 1.415 . S
C2560 C2559 1.355 . S
C2560 C2562 1.419 . S
C2561 C2556 1.425 . S
C2561 C2558 1.409 . S
C2561 C2559 1.415 . S
C2562 H2552 0.930 . S
C2562 C2560 1.419 . S
C2562 C2563 1.362 . S
C2563 H2553 0.930 . S
C2563 C2556 1.409 . S
C2563 C2562 1.362 . S
H2564 C2570 0.930 . S
H2565 C2573 0.930 . S
H2566 C2574 0.930 . S
H2567 C2575 0.930 . S
H2568 C2578 0.930 . S
H2569 C2579 0.930 . S
C2570 H2564 0.930 . S
C2570 C2571 1.355 . S
C2570 C2572 1.415 . S
C2571 C2570 1.355 . S
C2571 C2573 1.419 . S
C2572 C2570 1.415 . S
C2572 C2577 1.425 . S
C2572 C2579 1.409 . S
C2573 H2565 0.930 . S
C2573 C2571 1.419 . S
C2573 C2574 1.362 . S
C2574 H2566 0.930 . S
C2574 C2573 1.362 . S
C2574 C2577 1.409 . S
C2575 H2567 0.930 . S
C2575 C2576 1.355 . S
C2575 C2577 1.415 . S
C2576 C2575 1.355 . S
C2576 C2578 1.419 . S
C2577 C2572 1.425 . S
C2577 C2574 1.409 . S
C2577 C2575 1.415 . S
C2578 H2568 0.930 . S
C2578 C2576 1.419 . S
C2578 C2579 1.362 . S
C2579 H2569 0.930 . S
C2579 C2572 1.409 . S
C2579 C2578 1.362 . S
H2580 C2586 0.930 . S
H2581 C2589 0.930 . S
H2582 C2590 0.930 . S
H2583 C2591 0.930 . S
H2584 C2594 0.930 . S
H2585 C2595 0.930 . S
C2586 H2580 0.930 . S
C2586 C2587 1.355 . S
C2586 C2588 1.415 . S
C2587 C2586 1.355 . S
C2587 C2589 1.419 . S
C2588 C2586 1.415 . S
C2588 C2593 1.425 . S
C2588 C2595 1.409 . S
C2589 H2581 0.930 . S
C2589 C2587 1.419 . S
C2589 C2590 1.362 . S
C2590 H2582 0.930 . S
C2590 C2589 1.362 . S
C2590 C2593 1.409 . S
C2591 H2583 0.930 . S
C2591 C2592 1.355 1_556 S
C2591 C2593 1.415 . S
C2592 C2591 1.355 1_554 S
C2592 C2594 1.419 . S
C2593 C2588 1.425 . S
C2593 C2590 1.409 . S
C2593 C2591 1.415 . S
C2594 H2584 0.930 . S
C2594 C2592 1.419 . S
C2594 C2595 1.362 1_554 S
C2595 H2585 0.930 . S
C2595 C2588 1.409 . S
C2595 C2594 1.362 1_556 S
H2596 C2602 0.930 . S
H2597 C2605 0.930 . S
H2598 C2606 0.930 . S
H2599 C2607 0.930 . S
H2600 C2610 0.930 . S
H2601 C2611 0.930 . S
C2602 H2596 0.930 . S
C2602 C2603 1.355 . S
C2602 C2604 1.415 . S
C2603 C2602 1.355 . S
C2603 C2605 1.419 . S
C2604 C2602 1.415 . S
C2604 C2609 1.425 . S
C2604 C2611 1.409 . S
C2605 H2597 0.930 . S
C2605 C2603 1.419 . S
C2605 C2606 1.362 . S
C2606 H2598 0.930 . S
C2606 C2605 1.362 . S
C2606 C2609 1.409 . S
C2607 H2599 0.930 . S
C2607 C2608 1.355 1_556 S
C2607 C2609 1.415 . S
C2608 C2607 1.355 1_554 S
C2608 C2610 1.419 . S
C2609 C2604 1.425 . S
C2609 C2606 1.409 . S
C2609 C2607 1.415 . S
C2610 H2600 0.930 . S
C2610 C2608 1.419 . S
C2610 C2611 1.362 1_554 S
C2611 H2601 0.930 . S
C2611 C2604 1.409 . S
C2611 C2610 1.362 1_556 S
H2612 C2618 0.930 . S
H2613 C2621 0.930 . S
H2614 C2622 0.930 . S
H2615 C2623 0.930 . S
H2616 C2626 0.930 . S
H2617 C2627 0.930 . S
C2618 H2612 0.930 . S
C2618 C2619 1.355 . S
C2618 C2620 1.415 . S
C2619 C2618 1.355 . S
C2619 C2621 1.419 . S
C2620 C2618 1.415 . S
C2620 C2625 1.425 . S
C2620 C2627 1.409 . S
C2621 H2613 0.930 . S
C2621 C2619 1.419 . S
C2621 C2622 1.362 . S
C2622 H2614 0.930 . S
C2622 C2621 1.362 . S
C2622 C2625 1.409 . S
C2623 H2615 0.930 . S
C2623 C2624 1.355 1_556 S
C2623 C2625 1.415 . S
C2624 C2623 1.355 1_554 S
C2624 C2626 1.419 . S
C2625 C2620 1.425 . S
C2625 C2622 1.409 . S
C2625 C2623 1.415 . S
C2626 H2616 0.930 . S
C2626 C2624 1.419 . S
C2626 C2627 1.362 1_554 S
C2627 H2617 0.930 . S
C2627 C2620 1.409 . S
C2627 C2626 1.362 1_556 S
C1195 C536 1.239 . S
C1200 C8 1.197 . S
C1211 C569 1.239 . S
C1216 C41 1.198 . S
C1227 C503 1.191 . S
C1232 C74 1.239 . S
C1243 C107 1.235 . S
C1248 C866 1.211 . S
C1259 C800 1.166 . S
C1264 C140 1.206 . S
C1275 C833 1.170 . S
C1280 C173 1.194 . S
C1291 C206 1.189 . S
C1296 C1130 1.239 . S
C1307 C1163 1.194 . S
C1312 C239 1.170 . S
C1323 C272 1.226 . S
C1328 C1097 1.224 . S
C1339 C668 1.238 . S
C1344 C305 1.184 . S
C1355 C338 1.228 . S
C1360 C602 1.169 . S
C1371 C635 1.225 . S
C1376 C371 1.167 . S
C1387 C404 1.236 . S
C1392 C932 1.178 . S
C1403 C965 1.168 . S
C1408 C437 1.226 . S
C1419 C899 1.200 . S
C1424 C470 1.167 . S
C1435 C1064 1.224 . S
C1440 C701 1.167 . S
C1451 C734 1.231 . S
C1456 C998 1.172 . S
C1467 C1031 1.169 . S
C1472 C767 1.197 . S
C1483 N104 1.729 . S
C1488 N5 1.768 . S
C1499 N137 1.757 . S
C1504 N38 1.741 . S
C1515 N71 1.729 . S
C1520 N170 1.768 . S
C1531 N302 1.749 . S
C1536 N203 1.747 . S
C1547 N236 1.763 . S
C1552 N335 1.733 . S
C1563 N368 1.768 . S
C1568 N269 1.729 . S
C1579 N401 1.737 . S
C1584 N500 1.759 . S
C1595 N434 1.750 . S
C1600 N533 1.746 . S
C1611 N566 1.743 . S
C1616 N467 1.755 . S
C1627 N698 1.757 1_554 S
C1632 N599 1.739 . S
C1643 N731 1.764 1_554 S
C1648 N632 1.734 . S
C1659 N764 1.767 1_554 S
C1664 N665 1.730 . S
C1675 N797 1.748 . S
C1680 N896 1.749 . S
C1691 N929 1.759 . S
C1696 N830 1.739 . S
C1707 N863 1.756 . S
C1712 N962 1.740 . S
C1723 N995 1.744 . S
C1728 N1094 1.752 . S
C1739 N1028 1.733 . S
C1744 N1127 1.764 . S
C1755 N1160 1.763 . S
C1760 N1061 1.735 . S
C1771 C17 1.494 . S
C1776 C259 1.476 . S
C1787 C292 1.492 . S
C1792 C50 1.494 . S
C1803 C226 1.491 . S
C1808 C83 1.486 . S
C1819 C116 1.497 . S
C1824 C391 1.486 . S
C1835 C325 1.492 . S
C1840 C149 1.488 . S
C1851 C358 1.491 . S
C1856 C182 1.486 . S
C1867 C215 1.458 . S
C1872 C61 1.446 . S
C1883 C94 1.455 . S
C1888 C248 1.458 . S
C1899 C28 1.488 . S
C1904 C281 1.497 . S
C1915 C193 1.484 . S
C1920 C314 1.496 . S
C1931 C127 1.477 . S
C1936 C347 1.470 . S
C1947 C380 1.491 . S
C1952 C160 1.492 . S
C1963 C413 1.467 . S
C1968 C655 1.445 . S
C1979 C446 1.462 . S
C1984 C688 1.465 . S
C1995 C479 1.458 . S
C2000 C622 1.447 . S
C2011 C787 1.456 . S
C2016 C512 1.459 . S
C2027 C545 1.496 . S
C2032 C721 1.489 . S
C2043 C578 1.495 . S
C2048 C754 1.492 . S
C2059 C611 1.497 . S
C2064 C457 1.486 . S
C2075 C490 1.460 . S
C2080 C644 1.484 . S
C2091 C677 1.459 . S
C2096 C424 1.445 . S
C2107 C710 1.461 . S
C2112 C589 1.444 . S
C2123 C743 1.495 . S
C2128 C523 1.491 . S
C2139 C776 1.488 . S
C2144 C556 1.464 . S
C2155 C809 1.496 . S
C2160 C1051 1.482 . S
C2171 C1084 1.445 . S
C2176 C842 1.467 . S
C2187 C875 1.475 . S
C2192 C1018 1.483 . S
C2203 C908 1.458 . S
C2208 C1183 1.447 . S
C2219 C941 1.473 . S
C2224 C1117 1.480 . S
C2235 C974 1.482 . S
C2240 C1150 1.457 . S
C2251 C853 1.462 . S
C2256 C1007 1.461 . S
C2267 C886 1.456 . S
C2272 C1040 1.458 . S
C2283 C820 1.476 . S
C2288 C1073 1.494 . S
C2299 C985 1.446 . S
C2304 C1106 1.458 . S
C2315 C1139 1.481 . S
C2320 C919 1.456 . S
C2331 C1172 1.494 . S
C2336 C952 1.492 . S
C2347 N113 1.147 . S
C2352 N14 1.190 . S
C2363 N47 1.142 . S
C2368 N146 1.096 . S
C2379 N179 1.129 . S
C2384 N80 1.098 . S
C2395 N311 1.109 . S
C2400 N212 1.175 . S
C2411 N344 1.101 . S
C2416 N245 1.164 . S
C2427 N278 1.132 . S
C2432 N377 1.097 . S
C2443 N509 1.102 1_554 S
C2448 N410 1.121 . S
C2459 N443 1.189 . S
C2464 N542 1.148 1_554 S
C2475 N575 1.096 1_554 S
C2480 N476 1.141 . S
C2491 N707 1.164 . S
C2496 N608 1.101 . S
C2507 N740 1.121 . S
C2512 N641 1.184 . S
C2523 N674 1.185 . S
C2528 N773 1.165 . S
C2539 N905 1.188 . S
C2544 N806 1.155 . S
C2555 N839 1.177 . S
C2560 N938 1.111 . S
C2571 N971 1.140 . S
C2576 N872 1.096 . S
C2587 N1004 1.110 . S
C2592 N1103 1.110 . S
C2603 N1037 1.132 . S
C2608 N1136 1.097 . S
C2619 N1070 1.101 . S
C2624 N1169 1.165 . S
