# Generated by pormake.
# Topology umb, (4)-cn, num edge types: 1
# Building blocks:
#     Node 0, Type 0, BuildingBlock: QUQFOY_clean_sbu_1, # of connection points: 4
#     Node 1, Type 0, BuildingBlock: QUQFOY_clean_sbu_1, # of connection points: 4
#     Node 2, Type 0, BuildingBlock: QUQFOY_clean_sbu_1, # of connection points: 4
#     Node 3, Type 0, BuildingBlock: QUQFOY_clean_sbu_1, # of connection points: 4
#     Node 4, Type 0, BuildingBlock: QUQFOY_clean_sbu_1, # of connection points: 4
#     Node 5, Type 0, BuildingBlock: QUQFOY_clean_sbu_1, # of connection points: 4
#     Node 6, Type 0, BuildingBlock: QUQFOY_clean_sbu_1, # of connection points: 4
#     Node 7, Type 0, BuildingBlock: QUQFOY_clean_sbu_1, # of connection points: 4
#     Node 8, Type 0, BuildingBlock: QUQFOY_clean_sbu_1, # of connection points: 4
#     Node 9, Type 0, BuildingBlock: QUQFOY_clean_sbu_1, # of connection points: 4
#     Node 10, Type 0, BuildingBlock: QUQFOY_clean_sbu_1, # of connection points: 4
#     Node 11, Type 0, BuildingBlock: QUQFOY_clean_sbu_1, # of connection points: 4
#     Edge 12, Type (0, 0), BuildingBlock: XUDNAN_clean_linker_2, # of connection points: 2
#     Edge 13, Type (0, 0), BuildingBlock: XUDNAN_clean_linker_2, # of connection points: 2
#     Edge 14, Type (0, 0), BuildingBlock: XUDNAN_clean_linker_2, # of connection points: 2
#     Edge 15, Type (0, 0), BuildingBlock: XUDNAN_clean_linker_2, # of connection points: 2
#     Edge 16, Type (0, 0), BuildingBlock: XUDNAN_clean_linker_2, # of connection points: 2
#     Edge 17, Type (0, 0), BuildingBlock: XUDNAN_clean_linker_2, # of connection points: 2
#     Edge 18, Type (0, 0), BuildingBlock: XUDNAN_clean_linker_2, # of connection points: 2
#     Edge 19, Type (0, 0), BuildingBlock: XUDNAN_clean_linker_2, # of connection points: 2
#     Edge 20, Type (0, 0), BuildingBlock: XUDNAN_clean_linker_2, # of connection points: 2
#     Edge 21, Type (0, 0), BuildingBlock: XUDNAN_clean_linker_2, # of connection points: 2
#     Edge 22, Type (0, 0), BuildingBlock: XUDNAN_clean_linker_2, # of connection points: 2
#     Edge 23, Type (0, 0), BuildingBlock: XUDNAN_clean_linker_2, # of connection points: 2
#     Edge 24, Type (0, 0), BuildingBlock: XUDNAN_clean_linker_2, # of connection points: 2
#     Edge 25, Type (0, 0), BuildingBlock: XUDNAN_clean_linker_2, # of connection points: 2
#     Edge 26, Type (0, 0), BuildingBlock: XUDNAN_clean_linker_2, # of connection points: 2
#     Edge 27, Type (0, 0), BuildingBlock: XUDNAN_clean_linker_2, # of connection points: 2
#     Edge 28, Type (0, 0), BuildingBlock: XUDNAN_clean_linker_2, # of connection points: 2
#     Edge 29, Type (0, 0), BuildingBlock: XUDNAN_clean_linker_2, # of connection points: 2
#     Edge 30, Type (0, 0), BuildingBlock: XUDNAN_clean_linker_2, # of connection points: 2
#     Edge 31, Type (0, 0), BuildingBlock: XUDNAN_clean_linker_2, # of connection points: 2
#     Edge 32, Type (0, 0), BuildingBlock: XUDNAN_clean_linker_2, # of connection points: 2
#     Edge 33, Type (0, 0), BuildingBlock: XUDNAN_clean_linker_2, # of connection points: 2
#     Edge 34, Type (0, 0), BuildingBlock: XUDNAN_clean_linker_2, # of connection points: 2
#     Edge 35, Type (0, 0), BuildingBlock: XUDNAN_clean_linker_2, # of connection points: 2
# Relax obj value: 0.093
# Max RMSD: 0.160
# Mean RMSD: 0.160
data_MOF--net-umb--node1-QUQFOY_clean_sbu_1--edge1-XUDNAN_clean_linker_2
_symmetry_space_group_name_H-M    P1
_symmetry_Int_Tables_number       1
_symmetry_cell_setting            triclinic
loop_
_symmetry_equiv_pos_as_xyz
'x, y, z'
_cell_length_a     51.739099
_cell_length_b     52.171684
_cell_length_c     38.625506
_cell_angle_alpha  90.1879
_cell_angle_beta   89.996624
_cell_angle_gamma 119.8472
loop_
_atom_site_label
_atom_site_type_symbol
_atom_site_fract_x
_atom_site_fract_y
_atom_site_fract_z
_atom_type_partial_charge
O0 O 0.5455 0.11196 0.37642 0.0
Cd1 Cd 0.5561 0.11552 0.32465 0.0
Cd2 Cd 0.54525 0.16263 0.32996 0.0
O3 O 0.53441 0.14771 0.3812 0.0
O4 O 0.55835 0.07947 0.31409 0.0
O5 O 0.52509 0.08879 0.28995 0.0
C6 C 0.53622 0.0716 0.29331 0.0
C7 C 0.52116 0.18017 0.29317 0.0
C8 C 0.53762 0.12717 0.39475 0.0
C9 C 0.60769 0.17509 0.31384 0.0
O10 O 0.59002 0.18466 0.32083 0.0
O11 O 0.59861 0.14764 0.31274 0.0
O12 O 0.53341 0.19347 0.32178 0.0
O13 O 0.52015 0.15536 0.28676 0.0
O14 O 0.39616 0.55721 0.74082 0.0
Cd15 Cd 0.41023 0.56641 0.68985 0.0
Cd16 Cd 0.35332 0.5584 0.6847 0.0
O17 O 0.34807 0.54117 0.73405 0.0
O18 O 0.45169 0.57377 0.6936 0.0
O19 O 0.41761 0.53818 0.66098 0.0
C20 C 0.44467 0.55244 0.67221 0.0
C21 C 0.31712 0.5391 0.64054 0.0
C22 C 0.37018 0.5468 0.75353 0.0
C23 C 0.40566 0.61964 0.68118 0.0
O24 O 0.37807 0.60347 0.68746 0.0
O25 O 0.42159 0.60815 0.67424 0.0
O26 O 0.31255 0.5491 0.66906 0.0
O27 O 0.34183 0.53882 0.6374 0.0
O28 O 0.82514 0.41356 0.03554 0.0
Cd29 Cd 0.84017 0.43913 0.99031 0.0
Cd30 Cd 0.78083 0.36294 0.97733 0.0
O31 O 0.79109 0.3653 0.03039 0.0
O32 O 0.87752 0.4758 1.00265 0.0
O33 O 0.87506 0.44409 0.96248 0.0
C34 C 0.89076 0.46825 0.97983 0.0
C35 C 0.74939 0.32101 0.94367 0.0
C36 C 0.80815 0.38812 0.04884 0.0
C37 C 0.78706 0.42395 0.96972 0.0
O38 O 0.79229 0.40383 0.95897 0.0
O39 O 0.80953 0.4496 0.96994 0.0
O40 O 0.73866 0.3322 0.96532 0.0
O41 O 0.77806 0.33283 0.94197 0.0
O42 O 0.44026 0.83587 0.40356 0.0
Cd43 Cd 0.4211 0.8274 0.35496 0.0
Cd44 Cd 0.42254 0.77779 0.3652 0.0
O45 O 0.44629 0.79709 0.41026 0.0
O46 O 0.42362 0.86557 0.34304 0.0
O47 O 0.44543 0.84625 0.31183 0.0
C48 C 0.43976 0.86742 0.31684 0.0
C49 C 0.43527 0.7613 0.31498 0.0
C50 C 0.4484 0.82095 0.42195 0.0
C51 C 0.36342 0.77483 0.369 0.0
O52 O 0.37832 0.7619 0.37438 0.0
O53 O 0.37574 0.80067 0.35648 0.0
O54 O 0.42837 0.74599 0.34319 0.0
O55 O 0.43686 0.78685 0.31617 0.0
O56 O 0.6021 0.43227 0.73919 0.0
Cd57 Cd 0.58933 0.43353 0.68909 0.0
Cd58 Cd 0.63533 0.42126 0.67385 0.0
O59 O 0.63777 0.42171 0.72834 0.0
O60 O 0.55708 0.44295 0.69608 0.0
O61 O 0.59707 0.4711 0.6649 0.0
C62 C 0.57142 0.46556 0.6765 0.0
C63 C 0.67584 0.44106 0.63488 0.0
C64 C 0.62135 0.42575 0.74986 0.0
C65 C 0.57241 0.37601 0.65427 0.0
O66 O 0.59982 0.38347 0.65459 0.0
O67 O 0.56378 0.39299 0.66659 0.0
O68 O 0.67118 0.41997 0.65575 0.0
O69 O 0.65887 0.45258 0.63769 0.0
O70 O 0.16822 0.61495 0.07146 0.0
Cd71 Cd 0.15433 0.59081 1.02648 0.0
Cd72 Cd 0.2113 0.62425 1.00712 0.0
O73 O 0.21605 0.63488 0.05983 0.0
O74 O 0.11064 0.56778 0.03484 0.0
O75 O 0.12988 0.59419 0.98757 0.0
C76 C 0.10665 0.57667 1.00539 0.0
C77 C 0.22874 0.65903 0.96182 0.0
C78 C 0.19517 0.62848 0.08155 0.0
C79 C 0.18912 0.56011 1.01192 0.0
O80 O 0.20923 0.58417 0.99886 0.0
O81 O 0.16609 0.55861 1.02548 0.0
O82 O 0.24691 0.6555 0.98144 0.0
O83 O 0.20059 0.64347 0.96861 0.0
O84 O 0.82409 0.42623 0.30762 0.0
Cd85 Cd 0.82855 0.41654 0.35821 0.0
Cd86 Cd 0.78113 0.42284 0.36673 0.0
O87 O 0.78772 0.43633 0.31501 0.0
O88 O 0.8691 0.42151 0.36095 0.0
O89 O 0.85479 0.44777 0.39239 0.0
C90 C 0.87537 0.44184 0.38378 0.0
C91 C 0.77422 0.44404 0.41729 0.0
C92 C 0.8057 0.43318 0.29512 0.0
C93 C 0.77296 0.36163 0.36954 0.0
O94 O 0.76122 0.37795 0.36815 0.0
O95 O 0.80104 0.3729 0.37011 0.0
O96 O 0.75408 0.43335 0.39334 0.0
O97 O 0.79926 0.445 0.41107 0.0
O98 O 0.43874 0.85533 0.68898 0.0
Cd99 Cd 0.44179 0.85463 0.74198 0.0
Cd100 Cd 0.38889 0.80474 0.73433 0.0
O101 O 0.39364 0.81683 0.68192 0.0
O102 O 0.47076 0.89565 0.75603 0.0
O103 O 0.42322 0.8729 0.77141 0.0
C104 C 0.44916 0.89649 0.77165 0.0
C105 C 0.34597 0.78463 0.76899 0.0
C106 C 0.41746 0.83804 0.66922 0.0
C107 C 0.4426 0.80086 0.75906 0.0
O108 O 0.41571 0.78832 0.74879 0.0
O109 O 0.45836 0.82877 0.7601 0.0
O110 O 0.34747 0.7708 0.74202 0.0
O111 O 0.36768 0.81111 0.77457 0.0
O112 O 0.57209 0.3967 1.00904 0.0
Cd113 Cd 0.57349 0.40617 0.06116 0.0
Cd114 Cd 0.56162 0.34735 0.0659 0.0
O115 O 0.56003 0.3496 1.01167 0.0
O116 O 0.57454 0.44483 0.06356 0.0
O117 O 0.53772 0.40369 0.08543 0.0
C118 C 0.54954 0.43167 0.07976 0.0
C119 C 0.53236 0.30702 0.10258 0.0
C120 C 0.56677 0.3728 0.99402 0.0
C121 C 0.62124 0.3975 0.09111 0.0
O122 O 0.60405 0.37027 0.08477 0.0
O123 O 0.61297 0.41621 0.08502 0.0
O124 O 0.55003 0.3058 0.07994 0.0
O125 O 0.52893 0.32994 0.10196 0.0
O126 O 0.15485 0.57579 0.33865 0.0
Cd127 Cd 0.14034 0.57398 0.38877 0.0
Cd128 Cd 0.19338 0.57264 0.40249 0.0
O129 O 0.19558 0.57306 0.34835 0.0
O130 O 0.1013 0.57197 0.38333 0.0
O131 O 0.10637 0.53718 0.40986 0.0
C132 C 0.08956 0.54768 0.40043 0.0
C133 C 0.2075 0.54608 0.43969 0.0
C134 C 0.178 0.57582 0.32744 0.0
C135 C 0.18769 0.62495 0.42738 0.0
O136 O 0.20315 0.61232 0.42436 0.0
O137 O 0.1615 0.61303 0.41535 0.0
O138 O 0.22675 0.56725 0.42069 0.0
O139 O 0.17974 0.5382 0.43532 0.0
O140 O 0.54519 0.12699 0.66266 0.0
Cd141 Cd 0.53743 0.13725 0.71182 0.0
Cd142 Cd 0.59382 0.1799 0.70381 0.0
O143 O 0.59374 0.1578 0.65878 0.0
O144 O 0.49974 0.10197 0.72688 0.0
O145 O 0.54306 0.11692 0.75288 0.0
C146 C 0.51498 0.09799 0.75045 0.0
C147 C 0.62429 0.19407 0.7534 0.0
C148 C 0.5694 0.13758 0.64569 0.0
C149 C 0.54555 0.19594 0.70046 0.0
O150 O 0.57251 0.20321 0.69462 0.0
O151 O 0.52744 0.17075 0.71274 0.0
O152 O 0.63423 0.20778 0.72436 0.0
O153 O 0.59793 0.171 0.75341 0.0
O154 O 0.40307 0.55732 1.01513 0.0
Cd155 Cd 0.39617 0.54193 0.06504 0.0
Cd156 Cd 0.39109 0.59189 0.07864 0.0
O157 O 0.39799 0.59635 1.02504 0.0
O158 O 0.4063 0.50978 0.06358 0.0
O159 O 0.43068 0.54972 0.09616 0.0
C160 C 0.42749 0.52488 0.08521 0.0
C161 C 0.4111 0.6334 0.1163 0.0
C162 C 0.40149 0.57938 1.00403 0.0
C163 C 0.33647 0.53174 0.08763 0.0
O164 O 0.34841 0.55962 0.09073 0.0
O165 O 0.35185 0.52003 0.07853 0.0
O166 O 0.39216 0.62966 0.09245 0.0
O167 O 0.41978 0.61415 0.11833 0.0
H168 H 0.56037 0.16962 0.4457 0.0
H169 H 0.51369 0.07485 0.42905 0.0
H170 H 0.51879 0.06713 0.49126 0.0
H171 H 0.61399 0.1708 0.50383 0.0
H172 H 0.61588 0.19971 0.53124 0.0
H173 H 0.60602 0.1981 0.48624 0.0
H174 H 0.5569 0.1968 0.50301 0.0
H175 H 0.56697 0.19915 0.54802 0.0
H176 H 0.53179 0.16926 0.53305 0.0
H177 H 0.52915 0.06972 0.55533 0.0
H178 H 0.54311 0.08258 0.61692 0.0
H179 H 0.58737 0.17561 0.59119 0.0
C180 C 0.55045 0.14725 0.45544 0.0
C181 C 0.53598 0.12275 0.43275 0.0
C182 C 0.52436 0.09385 0.44614 0.0
C183 C 0.52734 0.08928 0.48137 0.0
C184 C 0.54252 0.11388 0.50288 0.0
C185 C 0.55384 0.14232 0.4905 0.0
C186 C 0.57048 0.16492 0.5188 0.0
C187 C 0.60356 0.18454 0.50945 0.0
C188 C 0.55564 0.18363 0.52616 0.0
C189 C 0.56668 0.14476 0.54898 0.0
C190 C 0.5503 0.11538 0.53927 0.0
C191 C 0.54237 0.09263 0.56311 0.0
C192 C 0.55061 0.10008 0.59794 0.0
C193 C 0.56723 0.12999 0.6085 0.0
C194 C 0.57579 0.15256 0.58352 0.0
H195 H 0.40259 0.53839 0.80431 0.0
H196 H 0.33308 0.56065 0.78844 0.0
H197 H 0.33637 0.5748 0.85001 0.0
H198 H 0.37679 0.50662 0.89158 0.0
H199 H 0.41423 0.51993 0.90705 0.0
H200 H 0.40556 0.51082 0.86195 0.0
H201 H 0.44751 0.56338 0.84569 0.0
H202 H 0.45575 0.57292 0.89077 0.0
H203 H 0.44674 0.59512 0.86305 0.0
H204 H 0.35129 0.59192 0.9116 0.0
H205 H 0.3678 0.5994 0.97261 0.0
H206 H 0.42426 0.56176 0.95041 0.0
C207 C 0.38754 0.54551 0.81406 0.0
C208 C 0.36742 0.54822 0.7916 0.0
C209 C 0.34828 0.55789 0.80523 0.0
C210 C 0.35029 0.56639 0.84009 0.0
C211 C 0.3711 0.56449 0.86123 0.0
C212 C 0.38866 0.55333 0.84907 0.0
C213 C 0.40839 0.55254 0.87765 0.0
C214 C 0.40078 0.52058 0.885 0.0
C215 C 0.44156 0.57216 0.86874 0.0
C216 C 0.39948 0.56539 0.90759 0.0
C217 C 0.37841 0.57274 0.89733 0.0
C218 C 0.36749 0.58589 0.92006 0.0
C219 C 0.37731 0.59042 0.95459 0.0
C220 C 0.39739 0.58126 0.9663 0.0
C221 C 0.40899 0.56909 0.94221 0.0
H222 H 0.84707 0.45155 0.24259 0.0
H223 H 0.75211 0.40342 0.26279 0.0
H224 H 0.74286 0.38394 0.20292 0.0
H225 H 0.8392 0.4711 0.15144 0.0
H226 H 0.87089 0.46834 0.13712 0.0
H227 H 0.86943 0.4795 0.18093 0.0
H228 H 0.8774 0.43715 0.2032 0.0
H229 H 0.87787 0.42525 0.15951 0.0
H230 H 0.85172 0.39961 0.19036 0.0
H231 H 0.74482 0.36379 0.14362 0.0
H232 H 0.75614 0.35508 0.08402 0.0
H233 H 0.849 0.42096 0.09944 0.0
C234 C 0.82429 0.43778 0.23396 0.0
C235 C 0.80027 0.42931 0.25725 0.0
C236 C 0.77078 0.41077 0.24522 0.0
C237 C 0.76535 0.3992 0.21139 0.0
C238 C 0.78959 0.40698 0.18953 0.0
C239 C 0.81838 0.42679 0.19986 0.0
C240 C 0.84036 0.43222 0.17088 0.0
C241 C 0.85588 0.46472 0.1594 0.0
C242 C 0.86318 0.423 0.18165 0.0
C243 C 0.81953 0.41184 0.14297 0.0
C244 C 0.79043 0.39698 0.15455 0.0
C245 C 0.76746 0.37578 0.13408 0.0
C246 C 0.77416 0.37073 0.10033 0.0
C247 C 0.80339 0.38745 0.08688 0.0
C248 C 0.82643 0.4078 0.10892 0.0
H249 H 0.42314 0.78351 0.4765 0.0
H250 H 0.48188 0.87549 0.4507 0.0
H251 H 0.47959 0.88974 0.51128 0.0
H252 H 0.37547 0.79607 0.52881 0.0
H253 H 0.36834 0.76788 0.56028 0.0
H254 H 0.3779 0.76397 0.51651 0.0
H255 H 0.42222 0.75853 0.53837 0.0
H256 H 0.41235 0.7616 0.58231 0.0
H257 H 0.44948 0.78628 0.56683 0.0
H258 H 0.46823 0.89438 0.57324 0.0
H259 H 0.45149 0.88897 0.63394 0.0
H260 H 0.39717 0.79419 0.61932 0.0
C261 C 0.43656 0.80649 0.48406 0.0
C262 C 0.45353 0.82838 0.45922 0.0
C263 C 0.46947 0.85839 0.46957 0.0
C264 C 0.46804 0.86667 0.50382 0.0
C265 C 0.45013 0.84471 0.52734 0.0
C266 C 0.43486 0.81519 0.51806 0.0
C267 C 0.41556 0.79627 0.54775 0.0
C268 C 0.38236 0.7801 0.53772 0.0
C269 C 0.42551 0.77438 0.55952 0.0
C270 C 0.42234 0.81978 0.57512 0.0
C271 C 0.4424 0.84753 0.56273 0.0
C272 C 0.45254 0.87276 0.58322 0.0
C273 C 0.44275 0.86949 0.61762 0.0
C274 C 0.42272 0.84125 0.63128 0.0
C275 C 0.41194 0.81614 0.60942 0.0
H276 H 0.56566 0.41074 0.94563 0.0
H277 H 0.58381 0.33852 0.95732 0.0
H278 H 0.60321 0.34656 0.89739 0.0
H279 H 0.54122 0.39468 0.85538 0.0
H280 H 0.55736 0.43321 0.8445 0.0
H281 H 0.54454 0.42102 0.88791 0.0
H282 H 0.59681 0.45898 0.91135 0.0
H283 H 0.61 0.47079 0.86794 0.0
H284 H 0.62912 0.45793 0.89577 0.0
H285 H 0.62439 0.36542 0.83704 0.0
H286 H 0.63653 0.38689 0.77824 0.0
H287 H 0.60196 0.44491 0.80519 0.0
C288 C 0.57324 0.39626 0.93541 0.0
C289 C 0.5731 0.3739 0.95625 0.0
C290 C 0.58331 0.35553 0.94182 0.0
C291 C 0.59471 0.36018 0.90789 0.0
C292 C 0.5954 0.38303 0.88846 0.0
C293 C 0.58422 0.40027 0.90145 0.0
C294 C 0.58665 0.42281 0.875 0.0
C295 C 0.5556 0.4176 0.86511 0.0
C296 C 0.60685 0.4545 0.88832 0.0
C297 C 0.60108 0.4157 0.8451 0.0
C298 C 0.60645 0.39305 0.85354 0.0
C299 C 0.62005 0.38302 0.83014 0.0
C300 C 0.62721 0.39561 0.79687 0.0
C301 C 0.62035 0.41771 0.78701 0.0
C302 C 0.60764 0.42818 0.81188 0.0
H303 H 0.14388 0.57957 0.27548 0.0
H304 H 0.2311 0.58983 0.29551 0.0
H305 H 0.24667 0.60881 0.23603 0.0
H306 H 0.13804 0.55562 0.1864 0.0
H307 H 0.11893 0.57488 0.17296 0.0
H308 H 0.11512 0.56171 0.21671 0.0
H309 H 0.13282 0.61477 0.2393 0.0
H310 H 0.1374 0.62822 0.19556 0.0
H311 H 0.1683 0.64473 0.2254 0.0
H312 H 0.25297 0.62818 0.17412 0.0
H313 H 0.24727 0.63968 0.11358 0.0
H314 H 0.15594 0.61691 0.13502 0.0
C315 C 0.16617 0.58547 0.26737 0.0
C316 C 0.18622 0.58312 0.29035 0.0
C317 C 0.2152 0.59118 0.27843 0.0
C318 C 0.22436 0.60226 0.24476 0.0
C319 C 0.20428 0.60513 0.22321 0.0
C320 C 0.17564 0.5965 0.23395 0.0
C321 C 0.15805 0.60117 0.20574 0.0
C322 C 0.13095 0.57159 0.1948 0.0
C323 C 0.1486 0.62356 0.2172 0.0
C324 C 0.18121 0.61371 0.17731 0.0
C325 C 0.20785 0.61613 0.18792 0.0
C326 C 0.23222 0.62645 0.16565 0.0
C327 C 0.22885 0.63326 0.1313 0.0
C328 C 0.20122 0.62948 0.11938 0.0
C329 C 0.17749 0.62044 0.14323 0.0
H330 H 0.72561 0.33887 0.32756 0.0
H331 H 0.77891 0.31422 0.39087 0.0
H332 H 0.74663 0.26173 0.37295 0.0
H333 H 0.65715 0.28089 0.34579 0.0
H334 H 0.64249 0.27793 0.3027 0.0
H335 H 0.67205 0.31275 0.31791 0.0
H336 H 0.70393 0.31507 0.26476 0.0
H337 H 0.67449 0.2797 0.24988 0.0
H338 H 0.71138 0.28529 0.25689 0.0
H339 H 0.70392 0.21168 0.35384 0.0
H340 H 0.65395 0.16974 0.33973 0.0
H341 H 0.6321 0.22932 0.28633 0.0
C342 C 0.73053 0.32246 0.33781 0.0
C343 C 0.75413 0.33021 0.36122 0.0
C344 C 0.7605 0.30839 0.37325 0.0
C345 C 0.74258 0.27874 0.36287 0.0
C346 C 0.7193 0.27188 0.3396 0.0
C347 C 0.71355 0.29333 0.32711 0.0
C348 C 0.68624 0.28064 0.30448 0.0
C349 C 0.66313 0.28849 0.3186 0.0
C350 C 0.69452 0.29078 0.26677 0.0
C351 C 0.67597 0.24826 0.30813 0.0
C352 C 0.69564 0.24347 0.32763 0.0
C353 C 0.68877 0.21514 0.33783 0.0
C354 C 0.66045 0.19144 0.32954 0.0
C355 C 0.63954 0.1966 0.31185 0.0
C356 C 0.64802 0.22496 0.29945 0.0
H357 H 0.41953 0.74998 0.79354 0.0
H358 H 0.49317 0.80853 0.72839 0.0
H359 H 0.49783 0.76635 0.70741 0.0
H360 H 0.44149 0.6878 0.80423 0.0
H361 H 0.40246 0.66063 0.80136 0.0
H362 H 0.41406 0.69548 0.82275 0.0
H363 H 0.37852 0.70319 0.78266 0.0
H364 H 0.36807 0.66961 0.75962 0.0
H365 H 0.38363 0.70402 0.73638 0.0
H366 H 0.48385 0.71747 0.68001 0.0
H367 H 0.45691 0.6667 0.6553 0.0
H368 H 0.38912 0.64144 0.73435 0.0
C369 C 0.43807 0.75401 0.77697 0.0
C370 C 0.45603 0.78212 0.7626 0.0
C371 C 0.4796 0.78706 0.74013 0.0
C372 C 0.48214 0.7631 0.72778 0.0
C373 C 0.46127 0.73477 0.73883 0.0
C374 C 0.44023 0.73024 0.76395 0.0
C375 C 0.41645 0.69808 0.76621 0.0
C376 C 0.41878 0.6847 0.80068 0.0
C377 C 0.38486 0.69352 0.76086 0.0
C378 C 0.42561 0.68582 0.73629 0.0
C379 C 0.45203 0.70684 0.72154 0.0
C380 C 0.4635 0.70069 0.6919 0.0
C381 C 0.44788 0.67208 0.67768 0.0
C382 C 0.42063 0.65061 0.69243 0.0
C383 C 0.40954 0.6577 0.72201 0.0
H384 H 0.66918 0.44898 0.06967 0.0
H385 H 0.64405 0.36655 0.12209 0.0
H386 H 0.69067 0.3694 0.10337 0.0
H387 H 0.69094 0.4371 0.99981 0.0
H388 H 0.72419 0.47152 0.99028 0.0
H389 H 0.69642 0.47128 1.01829 0.0
H390 H 0.73459 0.49614 0.06778 0.0
H391 H 0.76324 0.49819 0.03937 0.0
H392 H 0.75747 0.48082 0.0811 0.0
H393 H 0.72062 0.36731 0.05694 0.0
H394 H 0.75119 0.37275 1.00727 0.0
H395 H 0.76672 0.46113 0.98999 0.0
C396 C 0.67465 0.43283 0.07944 0.0
C397 C 0.65294 0.40727 0.0967 0.0
C398 C 0.66036 0.38615 0.10858 0.0
C399 C 0.68676 0.38752 0.0979 0.0
C400 C 0.70584 0.41079 0.07662 0.0
C401 C 0.70133 0.4342 0.06928 0.0
C402 C 0.7235 0.45439 0.0423 0.0
C403 C 0.70779 0.45878 1.01084 0.0
C404 C 0.74605 0.48415 0.05862 0.0
C405 C 0.73829 0.43657 0.03266 0.0
C406 C 0.72752 0.41148 0.05272 0.0
C407 C 0.73173 0.38814 0.04331 0.0
C408 C 0.74928 0.39139 1.01447 0.0
C409 C 0.76376 0.41821 0.99595 0.0
C410 C 0.75744 0.44088 1.00481 0.0
H411 H 0.34353 0.74075 0.42551 0.0
H412 H 0.3163 0.78073 0.34596 0.0
H413 H 0.26533 0.75627 0.37053 0.0
H414 H 0.2878 0.67453 0.42217 0.0
H415 H 0.28446 0.66637 0.46786 0.0
H416 H 0.31928 0.69401 0.45081 0.0
H417 H 0.3194 0.73179 0.49475 0.0
H418 H 0.28378 0.70398 0.5113 0.0
H419 H 0.28852 0.73863 0.49585 0.0
H420 H 0.21679 0.71849 0.39281 0.0
H421 H 0.17688 0.66756 0.40261 0.0
H422 H 0.23469 0.65288 0.47039 0.0
C423 C 0.32688 0.74472 0.41367 0.0
C424 C 0.33334 0.76191 0.38353 0.0
C425 C 0.31146 0.76727 0.36895 0.0
C426 C 0.28269 0.75389 0.38312 0.0
C427 C 0.27668 0.73617 0.41247 0.0
C428 C 0.29842 0.73191 0.42777 0.0
C429 C 0.28563 0.70802 0.45489 0.0
C430 C 0.29478 0.68435 0.44846 0.0
C431 C 0.29488 0.72142 0.49136 0.0
C432 C 0.25277 0.69638 0.44885 0.0
C433 C 0.24804 0.71413 0.42597 0.0
C434 C 0.22008 0.70491 0.41143 0.0
C435 C 0.19736 0.67586 0.4173 0.0
C436 C 0.20324 0.65643 0.43678 0.0
C437 C 0.22999 0.66767 0.45556 0.0
H438 H 0.57926 0.33917 0.611 0.0
H439 H 0.5174 0.34324 0.68299 0.0
H440 H 0.49246 0.28943 0.69057 0.0
H441 H 0.52458 0.25524 0.58076 0.0
H442 H 0.55665 0.25032 0.57878 0.0
H443 H 0.55984 0.28502 0.56607 0.0
H444 H 0.60344 0.31197 0.60933 0.0
H445 H 0.59994 0.27775 0.62302 0.0
H446 H 0.59748 0.30203 0.65453 0.0
H447 H 0.48815 0.24206 0.70803 0.0
H448 H 0.50105 0.20451 0.72736 0.0
H449 H 0.56598 0.23097 0.64491 0.0
C450 C 0.55922 0.32828 0.62651 0.0
C451 C 0.5504 0.34506 0.64665 0.0
C452 C 0.52439 0.33063 0.66713 0.0
C453 C 0.51007 0.29997 0.67163 0.0
C454 C 0.52161 0.28421 0.6547 0.0
C455 C 0.54495 0.29775 0.63129 0.0
C456 C 0.55747 0.27791 0.62204 0.0
C457 C 0.54912 0.26643 0.5847 0.0
C458 C 0.59154 0.29334 0.62765 0.0
C459 C 0.54078 0.25334 0.64766 0.0
C460 C 0.51917 0.25644 0.66515 0.0
C461 C 0.50419 0.23875 0.69364 0.0
C462 C 0.51185 0.21776 0.70474 0.0
C463 C 0.53482 0.21547 0.68788 0.0
C464 C 0.54854 0.23267 0.65839 0.0
H465 H 0.20381 0.55445 0.0758 0.0
H466 H 0.1968 0.52057 0.97195 0.0
H467 H 0.22189 0.49305 0.99099 0.0
H468 H 0.27387 0.57621 0.08349 0.0
H469 H 0.27478 0.5694 0.12911 0.0
H470 H 0.24592 0.57518 0.11228 0.0
H471 H 0.2061 0.525 0.13762 0.0
H472 H 0.23513 0.51895 0.15448 0.0
H473 H 0.20674 0.49172 0.1266 0.0
H474 H 0.25635 0.47872 1.01709 0.0
H475 H 0.30475 0.48897 0.04039 0.0
H476 H 0.29567 0.53853 0.12491 0.0
C477 C 0.20617 0.53981 0.05771 0.0
C478 C 0.19762 0.53852 1.02289 0.0
C479 C 0.20249 0.52091 0.999 0.0
C480 C 0.21652 0.50512 1.00976 0.0
C481 C 0.22601 0.50784 0.04422 0.0
C482 C 0.22127 0.52516 0.06776 0.0
C483 C 0.24034 0.53147 0.09986 0.0
C484 C 0.25988 0.56502 0.10648 0.0
C485 C 0.22091 0.51584 0.13151 0.0
C486 C 0.25867 0.51742 0.0894 0.0
C487 C 0.24862 0.50212 0.0584 0.0
C488 C 0.26402 0.49011 0.04164 0.0
C489 C 0.29151 0.4959 0.05524 0.0
C490 C 0.3038 0.51459 0.08444 0.0
C491 C 0.28634 0.52377 0.10293 0.0
H492 H 0.4779 0.03009 0.29354 0.0
H493 H 0.56476 0.04678 0.26051 0.0
H494 H 0.54402 -0.0063 0.24782 0.0
H495 H 0.46439 0.97394 0.34244 0.0
H496 H 0.42484 0.9515 0.33517 0.0
H497 H 0.44275 -0.00932 0.3292 0.0
H498 H 0.42285 0.9831 0.26629 0.0
H499 H 0.40447 0.94361 0.27218 0.0
H500 H 0.43003 0.96056 0.23674 0.0
H501 H 0.51778 0.93926 0.25205 0.0
H502 H 0.48969 0.88893 0.27636 0.0
H503 H 0.42064 0.90709 0.3107 0.0
C504 C 0.49196 0.02262 0.28165 0.0
C505 C 0.52259 0.0423 0.27702 0.0
C506 C 0.54104 0.03189 0.26342 0.0
C507 C 0.5294 0.00182 0.25605 0.0
C508 C 0.49934 0.98246 0.26281 0.0
C509 C 0.48078 -0.00751 0.27521 0.0
C510 C 0.45141 0.9671 0.28756 0.0
C511 C 0.44556 0.97105 0.32584 0.0
C512 C 0.42567 0.96337 0.26429 0.0
C513 C 0.45727 0.94164 0.28276 0.0
C514 C 0.48447 0.95068 0.26709 0.0
C515 C 0.4961 0.93173 0.26353 0.0
C516 C 0.48005 0.90319 0.27744 0.0
C517 C 0.4531 0.89428 0.29539 0.0
C518 C 0.44112 0.91335 0.29684 0.0
H519 H 0.43721 0.49717 0.66653 0.0
H520 H 0.50291 0.59005 0.65812 0.0
H521 H 0.54261 0.57732 0.65001 0.0
H522 H 0.47986 0.4804 0.71927 0.0
H523 H 0.46763 0.44399 0.70201 0.0
H524 H 0.44365 0.45966 0.69932 0.0
H525 H 0.4399 0.45218 0.63274 0.0
H526 H 0.46373 0.43619 0.63525 0.0
H527 H 0.47348 0.46726 0.60726 0.0
H528 H 0.57573 0.55477 0.64898 0.0
H529 H 0.59968 0.5244 0.65924 0.0
H530 H 0.51252 0.44709 0.67317 0.0
C531 C 0.4598 0.51464 0.66163 0.0
C532 C 0.46712 0.54447 0.66219 0.0
C533 C 0.49701 0.56701 0.65729 0.0
C534 C 0.51963 0.55999 0.65254 0.0
C535 C 0.51193 0.53034 0.65321 0.0
C536 C 0.48273 0.50802 0.65776 0.0
C537 C 0.48088 0.47841 0.66253 0.0
C538 C 0.46721 0.46485 0.69788 0.0
C539 C 0.46347 0.45727 0.63265 0.0
C540 C 0.51358 0.4877 0.66102 0.0
C541 C 0.53114 0.51758 0.65474 0.0
C542 C 0.56219 0.53128 0.65358 0.0
C543 C 0.57561 0.51396 0.65945 0.0
C544 C 0.5579 0.4836 0.66721 0.0
C545 C 0.52657 0.47036 0.66748 0.0
H546 H 0.93191 0.50134 0.02844 0.0
H547 H 0.92272 0.47516 0.92052 0.0
H548 H 0.97755 0.50516 0.91337 0.0
H549 H -0.00487 0.57612 1.02005 0.0
H550 H 0.01222 0.57361 0.0596 0.0
H551 H 0.97227 0.5531 0.05489 0.0
H552 H 0.97213 0.50446 0.06896 0.0
H553 H 0.01198 0.52482 0.07391 0.0
H554 H -0.00493 0.49436 0.04379 0.0
H555 H 0.03396 0.53764 0.91893 0.0
H556 H 0.08669 0.56353 0.93844 0.0
H557 H 0.05788 0.56419 0.04362 0.0
C558 C 0.94141 0.50236 1.00314 0.0
C559 C 0.92322 0.4864 0.97486 0.0
C560 C 0.93641 0.48745 0.94242 0.0
C561 C 0.96745 0.50455 0.9381 0.0
C562 C 0.98484 0.52002 0.96665 0.0
C563 C 0.97225 0.51866 0.99866 0.0
C564 C -0.00424 0.53464 1.02611 0.0
C565 C -0.00628 0.56093 0.04103 0.0
C566 C -0.0064 0.51329 0.05487 0.0
C567 C 0.02364 0.54497 1.00471 0.0
C568 C 0.01701 0.537 0.9703 0.0
C569 C 0.03937 0.544 0.9458 0.0
C570 C 0.06921 0.55882 0.95701 0.0
C571 C 0.07614 0.56572 0.99245 0.0
C572 C 0.05309 0.55911 1.01635 0.0
H573 H 0.04661 0.49022 0.38959 0.0
H574 H 0.0617 0.57408 0.43011 0.0
H575 H 0.00761 0.55284 0.43931 0.0
H576 H 0.98652 0.47737 0.33986 0.0
H577 H 0.96565 0.43786 0.34547 0.0
H578 H 0.00555 0.45717 0.34939 0.0
H579 H 0.0012 0.43551 0.4108 0.0
H580 H 0.96115 0.41597 0.407 0.0
H581 H 0.97894 0.44055 0.4431 0.0
H582 H 0.95234 0.52497 0.43745 0.0
H583 H 0.89956 0.49353 0.42072 0.0
H584 H 0.92007 0.42867 0.37795 0.0
C585 C 0.03843 0.50361 0.40158 0.0
C586 C 0.058 0.53346 0.40986 0.0
C587 C 0.04679 0.55098 0.42408 0.0
C588 C 0.01621 0.53909 0.42955 0.0
C589 C -0.0028 0.50974 0.42026 0.0
C590 C 0.00781 0.49221 0.40643 0.0
C591 C 0.98248 0.46291 0.39387 0.0
C592 C 0.98522 0.4586 0.35484 0.0
C593 C 0.98085 0.43722 0.41496 0.0
C594 C 0.95619 0.46721 0.40156 0.0
C595 C 0.96508 0.49402 0.41763 0.0
C596 C 0.945 0.50371 0.42533 0.0
C597 C 0.91509 0.48574 0.4157 0.0
C598 C 0.90579 0.45874 0.39802 0.0
C599 C 0.92653 0.44917 0.39158 0.0
H600 H 0.54161 0.06772 0.77322 0.0
H601 H 0.45687 0.06547 0.77019 0.0
H602 H 0.4316 0.014 0.79108 0.0
H603 H 0.51772 0.0039 0.73436 0.0
H604 H 0.53964 -0.00858 0.75753 0.0
H605 H 0.55243 0.03018 0.75451 0.0
H606 H 0.55537 0.03483 0.82138 0.0
H607 H 0.54276 -0.00413 0.82466 0.0
H608 H 0.52307 0.01132 0.84707 0.0
H609 H 0.41433 0.9608 0.79876 0.0
H610 H 0.40642 0.91061 0.78907 0.0
H611 H 0.50202 0.94646 0.78406 0.0
C612 C 0.51799 0.05683 0.77881 0.0
C613 C 0.5012 0.07055 0.77078 0.0
C614 C 0.47011 0.05533 0.7767 0.0
C615 C 0.45562 0.02615 0.78873 0.0
C616 C 0.47254 0.01251 0.79455 0.0
C617 C 0.50316 0.02745 0.78996 0.0
C618 C 0.51541 0.00647 0.79097 0.0
C619 C 0.53224 0.00809 0.75735 0.0
C620 C 0.53533 0.01248 0.82293 0.0
C621 C 0.48674 0.97724 0.79417 0.0
C622 C 0.46237 0.98122 0.79759 0.0
C623 C 0.43328 0.95739 0.79699 0.0
C624 C 0.42898 0.92894 0.79143 0.0
C625 C 0.45363 0.92472 0.78581 0.0
C626 C 0.48279 0.94904 0.78863 0.0
H627 H 0.4189 0.46903 0.07901 0.0
H628 H 0.48354 0.55768 0.11257 0.0
H629 H 0.52081 0.54173 0.12109 0.0
H630 H 0.44409 0.42955 0.1388 0.0
H631 H 0.43707 0.40158 0.10681 0.0
H632 H 0.4146 0.41913 0.10756 0.0
H633 H 0.42781 0.43408 0.04332 0.0
H634 H 0.45042 0.41681 0.04241 0.0
H635 H 0.46641 0.45515 0.03073 0.0
H636 H 0.5529 0.51834 0.11641 0.0
H637 H 0.5764 0.48804 0.10403 0.0
H638 H 0.49009 0.41359 0.07764 0.0
C639 C 0.44069 0.48493 0.08892 0.0
C640 C 0.44839 0.5146 0.09514 0.0
C641 C 0.47714 0.53479 0.1079 0.0
C642 C 0.49844 0.52593 0.11277 0.0
C643 C 0.49037 0.49667 0.10544 0.0
C644 C 0.462 0.47633 0.09442 0.0
C645 C 0.45943 0.44667 0.08653 0.0
C646 C 0.43749 0.42282 0.11142 0.0
C647 C 0.4505 0.43768 0.04849 0.0
C648 C 0.49112 0.45382 0.09343 0.0
C649 C 0.50861 0.48278 0.10438 0.0
C650 C 0.53929 0.49543 0.10879 0.0
C651 C 0.55245 0.47813 0.10157 0.0
C652 C 0.53489 0.44843 0.09055 0.0
C653 C 0.5038 0.43599 0.08705 0.0
H654 H 0.52845 0.18123 0.22289 0.0
H655 H 0.49615 0.21482 0.30482 0.0
H656 H 0.48865 0.24601 0.26241 0.0
H657 H 0.57165 0.24922 0.18379 0.0
H658 H 0.56568 0.23559 0.13989 0.0
H659 H 0.56304 0.21183 0.17497 0.0
H660 H 0.50968 0.17316 0.1554 0.0
H661 H 0.51219 0.19683 0.12011 0.0
H662 H 0.48187 0.18411 0.15051 0.0
H663 H 0.4893 0.27719 0.21211 0.0
H664 H 0.50163 0.30828 0.15988 0.0
H665 H 0.53657 0.25679 0.11118 0.0
C666 C 0.51871 0.1943 0.23159 0.0
C667 C 0.51207 0.195 0.267 0.0
C668 C 0.5008 0.21352 0.27773 0.0
C669 C 0.49646 0.2313 0.25378 0.0
C670 C 0.5039 0.23068 0.21916 0.0
C671 C 0.51493 0.21274 0.2081 0.0
C672 C 0.5248 0.21896 0.17055 0.0
C673 C 0.55827 0.22953 0.16712 0.0
C674 C 0.50601 0.19163 0.1478 0.0
C675 C 0.5182 0.2436 0.16241 0.0
C676 C 0.50559 0.24962 0.19057 0.0
C677 C 0.49888 0.27242 0.1898 0.0
C678 C 0.5059 0.28996 0.15989 0.0
C679 C 0.51992 0.28498 0.13118 0.0
C680 C 0.52551 0.26101 0.1324 0.0
H681 H 0.26427 0.5571 0.45373 0.0
H682 H 0.17352 0.50957 0.49213 0.0
H683 H 0.19138 0.49765 0.54565 0.0
H684 H 0.28919 0.50726 0.49341 0.0
H685 H 0.32574 0.53791 0.50272 0.0
H686 H 0.30533 0.53912 0.46553 0.0
H687 H 0.3109 0.58855 0.48759 0.0
H688 H 0.33105 0.5874 0.52492 0.0
H689 H 0.29804 0.59037 0.53043 0.0
H690 H 0.21993 0.49859 0.59879 0.0
H691 H 0.25661 0.50822 0.64529 0.0
H692 H 0.32862 0.55199 0.57164 0.0
C693 C 0.24801 0.5434 0.47292 0.0
C694 C 0.21741 0.53416 0.46856 0.0
C695 C 0.19699 0.51668 0.49461 0.0
C696 C 0.20696 0.50985 0.52521 0.0
C697 C 0.23738 0.5202 0.5292 0.0
C698 C 0.25756 0.5361 0.50347 0.0
C699 C 0.28926 0.5462 0.51509 0.0
C700 C 0.3032 0.53175 0.49286 0.0
C701 C 0.30842 0.58013 0.51447 0.0
C702 C 0.28387 0.53449 0.55184 0.0
C703 C 0.25376 0.51951 0.55945 0.0
C704 C 0.24347 0.5095 0.59283 0.0
C705 C 0.26443 0.51511 0.6191 0.0
C706 C 0.29532 0.53016 0.61182 0.0
C707 C 0.30507 0.53951 0.57761 0.0
H708 H 0.75602 0.31335 0.87432 0.0
H709 H 0.69615 0.27343 0.96103 0.0
H710 H 0.65997 0.23378 0.92252 0.0
H711 H 0.69923 0.30197 0.81488 0.0
H712 H 0.71619 0.29499 0.77796 0.0
H713 H 0.73913 0.31786 0.81296 0.0
H714 H 0.76207 0.28395 0.81998 0.0
H715 H 0.73916 0.26094 0.78495 0.0
H716 H 0.73791 0.24488 0.8266 0.0
H717 H 0.62938 0.19953 0.87425 0.0
H718 H 0.60441 0.17602 0.81932 0.0
H719 H 0.68211 0.2401 0.76239 0.0
C720 C 0.7356 0.29581 0.88526 0.0
C721 C 0.72912 0.29605 0.92083 0.0
C722 C 0.70168 0.27341 0.93398 0.0
C723 C 0.68104 0.25078 0.91229 0.0
C724 C 0.68786 0.25131 0.87726 0.0
C725 C 0.71434 0.27341 0.86369 0.0
C726 C 0.7148 0.27047 0.82454 0.0
C727 C 0.71749 0.29795 0.80653 0.0
C728 C 0.73998 0.26471 0.81337 0.0
C729 C 0.6844 0.24345 0.8182 0.0
C730 C 0.66949 0.23246 0.84907 0.0
C731 C 0.64089 0.20792 0.84995 0.0
C732 C 0.6269 0.19463 0.81851 0.0
C733 C 0.64121 0.20606 0.78637 0.0
C734 C 0.67057 0.23064 0.78644 0.0
H735 H 0.42064 0.63353 0.18648 0.0
H736 H 0.42253 0.68908 0.10223 0.0
H737 H 0.43434 0.72969 0.14366 0.0
H738 H 0.38257 0.65543 0.24418 0.0
H739 H 0.4016 0.65412 0.28265 0.0
H740 H 0.39773 0.63095 0.24614 0.0
H741 H 0.45495 0.65288 0.24446 0.0
H742 H 0.459 0.67613 0.28106 0.0
H743 H 0.47895 0.69235 0.24156 0.0
H744 H 0.44287 0.76322 0.19432 0.0
H745 H 0.44371 0.78599 0.25065 0.0
H746 H 0.43315 0.70792 0.3032 0.0
C747 C 0.42439 0.65456 0.17676 0.0
C748 C 0.42129 0.65843 0.14104 0.0
C749 C 0.42517 0.68582 0.1294 0.0
C750 C 0.43195 0.70902 0.15275 0.0
C751 C 0.43436 0.70441 0.18786 0.0
C752 C 0.4305 0.6778 0.19992 0.0
C753 C 0.43123 0.67764 0.23927 0.0
C754 C 0.40152 0.65308 0.25391 0.0
C755 C 0.45761 0.67457 0.25235 0.0
C756 C 0.43568 0.70811 0.2474 0.0
C757 C 0.43795 0.72334 0.21732 0.0
C758 C 0.4413 0.75156 0.21804 0.0
C759 C 0.4418 0.76435 0.25026 0.0
C760 C 0.4386 0.74888 0.28152 0.0
C761 C 0.43591 0.7205 0.27989 0.0
H762 H 0.66815 0.44765 0.56601 0.0
H763 H 0.73258 0.4507 0.63989 0.0
H764 H 0.76744 0.45816 0.59197 0.0
H765 H 0.67936 0.40386 0.50594 0.0
H766 H 0.67401 0.42065 0.46792 0.0
H767 H 0.65639 0.42084 0.508 0.0
H768 H 0.68124 0.47785 0.50519 0.0
H769 H 0.69893 0.47783 0.46499 0.0
H770 H 0.72115 0.49987 0.50096 0.0
H771 H 0.79392 0.4619 0.53572 0.0
H772 H 0.80801 0.45683 0.47612 0.0
H773 H 0.72468 0.44717 0.43806 0.0
C774 C 0.69003 0.45093 0.57207 0.0
C775 C 0.69811 0.44951 0.60672 0.0
C776 C 0.72628 0.45236 0.6136 0.0
C777 C 0.7462 0.45661 0.58653 0.0
C778 C 0.73741 0.45739 0.55255 0.0
C779 C 0.70986 0.45436 0.5452 0.0
C780 C 0.70439 0.45234 0.50636 0.0
C781 C 0.67692 0.42266 0.49649 0.0
C782 C 0.70125 0.47854 0.49363 0.0
C783 C 0.73294 0.45427 0.49302 0.0
C784 C 0.75193 0.4578 0.52008 0.0
C785 C 0.77927 0.45931 0.51436 0.0
C786 C 0.78714 0.45649 0.48029 0.0
C787 C 0.76758 0.4517 0.4522 0.0
C788 C 0.7403 0.45106 0.45881 0.0
H789 H 0.28553 0.70489 0.95001 0.0
H790 H 0.19728 0.65799 0.90427 0.0
H791 H 0.2167 0.68788 0.85109 0.0
H792 H 0.30611 0.77766 0.91247 0.0
H793 H 0.34443 0.78729 0.90629 0.0
H794 H 0.32319 0.76329 0.94134 0.0
H795 H 0.33528 0.72352 0.91909 0.0
H796 H 0.35653 0.74737 0.88406 0.0
H797 H 0.32638 0.71064 0.87498 0.0
H798 H 0.24746 0.71845 0.8 0.0
H799 H 0.28603 0.75042 0.75757 0.0
H800 H 0.35302 0.78099 0.8383 0.0
C801 C 0.2702 0.70119 0.92899 0.0
C802 C 0.23984 0.67904 0.93133 0.0
C803 C 0.22055 0.67492 0.90321 0.0
C804 C 0.23141 0.69177 0.87284 0.0
C805 C 0.26154 0.71314 0.87117 0.0
C806 C 0.28055 0.71825 0.89877 0.0
C807 C 0.31206 0.74221 0.89021 0.0
C808 C 0.32203 0.76921 0.91399 0.0
C809 C 0.33384 0.73021 0.8922 0.0
C810 C 0.30802 0.74928 0.85321 0.0
C811 C 0.27875 0.73212 0.84257 0.0
C812 C 0.27025 0.73258 0.80835 0.0
C813 C 0.29224 0.7508 0.78443 0.0
C814 C 0.32221 0.76885 0.79496 0.0
C815 C 0.33002 0.76832 0.82992 0.0
loop_
_geom_bond_atom_site_label_1
_geom_bond_atom_site_label_2
_geom_bond_distance
_geom_bond_site_symmetry_2
_ccdc_geom_bond_type
O0 Cd1 2.223 . S
O0 C8 1.315 . S
Cd1 O0 2.223 . S
Cd1 O4 2.297 . S
Cd1 O5 2.439 . S
Cd1 O11 2.240 . S
Cd2 O3 2.240 . S
Cd2 O10 2.223 . S
Cd2 O12 2.297 . S
Cd2 O13 2.439 . S
O3 Cd2 2.240 . S
O3 C8 1.279 . S
O4 Cd1 2.297 . S
O4 C6 1.247 . S
O5 Cd1 2.439 . S
O5 C6 1.208 . S
C6 O4 1.247 . S
C6 O5 1.208 . S
C7 O12 1.247 . S
C7 O13 1.208 . S
C8 O0 1.315 . S
C8 O3 1.279 . S
C9 O10 1.315 . S
C9 O11 1.279 . S
O10 Cd2 2.223 . S
O10 C9 1.315 . S
O11 Cd1 2.240 . S
O11 C9 1.279 . S
O12 Cd2 2.297 . S
O12 C7 1.247 . S
O13 Cd2 2.439 . S
O13 C7 1.208 . S
O14 Cd15 2.223 . S
O14 C22 1.315 . S
Cd15 O14 2.223 . S
Cd15 O18 2.297 . S
Cd15 O19 2.439 . S
Cd15 O25 2.240 . S
Cd16 O17 2.240 . S
Cd16 O24 2.223 . S
Cd16 O26 2.297 . S
Cd16 O27 2.439 . S
O17 Cd16 2.240 . S
O17 C22 1.279 . S
O18 Cd15 2.297 . S
O18 C20 1.247 . S
O19 Cd15 2.439 . S
O19 C20 1.208 . S
C20 O18 1.247 . S
C20 O19 1.208 . S
C21 O26 1.247 . S
C21 O27 1.208 . S
C22 O14 1.315 . S
C22 O17 1.279 . S
C23 O24 1.315 . S
C23 O25 1.279 . S
O24 Cd16 2.223 . S
O24 C23 1.315 . S
O25 Cd15 2.240 . S
O25 C23 1.279 . S
O26 Cd16 2.297 . S
O26 C21 1.247 . S
O27 Cd16 2.439 . S
O27 C21 1.208 . S
O28 Cd29 2.223 . S
O28 C36 1.315 . S
Cd29 O28 2.223 . S
Cd29 O32 2.297 . S
Cd29 O33 2.439 1_554 S
Cd29 O39 2.240 1_554 S
Cd30 O31 2.240 . S
Cd30 O38 2.223 . S
Cd30 O40 2.297 1_554 S
Cd30 O41 2.439 1_554 S
O31 Cd30 2.240 . S
O31 C36 1.279 . S
O32 Cd29 2.297 . S
O32 C34 1.247 1_554 S
O33 Cd29 2.439 1_556 S
O33 C34 1.208 . S
C34 O32 1.247 1_556 S
C34 O33 1.208 . S
C35 O40 1.247 . S
C35 O41 1.208 . S
C36 O28 1.315 . S
C36 O31 1.279 . S
C37 O38 1.315 . S
C37 O39 1.279 1_554 S
O38 Cd30 2.223 . S
O38 C37 1.315 . S
O39 Cd29 2.240 1_556 S
O39 C37 1.279 1_556 S
O40 Cd30 2.297 1_556 S
O40 C35 1.247 . S
O41 Cd30 2.439 1_556 S
O41 C35 1.208 . S
O42 Cd43 2.223 . S
O42 C50 1.315 . S
Cd43 O42 2.223 . S
Cd43 O46 2.297 . S
Cd43 O47 2.439 . S
Cd43 O53 2.240 . S
Cd44 O45 2.240 . S
Cd44 O52 2.223 . S
Cd44 O54 2.297 . S
Cd44 O55 2.439 . S
O45 Cd44 2.240 . S
O45 C50 1.279 . S
O46 Cd43 2.297 . S
O46 C48 1.247 . S
O47 Cd43 2.439 . S
O47 C48 1.208 . S
C48 O46 1.247 . S
C48 O47 1.208 . S
C49 O54 1.247 . S
C49 O55 1.208 . S
C50 O42 1.315 . S
C50 O45 1.279 . S
C51 O52 1.315 . S
C51 O53 1.279 . S
O52 Cd44 2.223 . S
O52 C51 1.315 . S
O53 Cd43 2.240 . S
O53 C51 1.279 . S
O54 Cd44 2.297 . S
O54 C49 1.247 . S
O55 Cd44 2.439 . S
O55 C49 1.208 . S
O56 Cd57 2.223 . S
O56 C64 1.315 . S
Cd57 O56 2.223 . S
Cd57 O60 2.297 . S
Cd57 O61 2.439 . S
Cd57 O67 2.240 . S
Cd58 O59 2.240 . S
Cd58 O66 2.223 . S
Cd58 O68 2.297 . S
Cd58 O69 2.439 . S
O59 Cd58 2.240 . S
O59 C64 1.279 . S
O60 Cd57 2.297 . S
O60 C62 1.247 . S
O61 Cd57 2.439 . S
O61 C62 1.208 . S
C62 O60 1.247 . S
C62 O61 1.208 . S
C63 O68 1.247 . S
C63 O69 1.208 . S
C64 O56 1.315 . S
C64 O59 1.279 . S
C65 O66 1.315 . S
C65 O67 1.279 . S
O66 Cd58 2.223 . S
O66 C65 1.315 . S
O67 Cd57 2.240 . S
O67 C65 1.279 . S
O68 Cd58 2.297 . S
O68 C63 1.247 . S
O69 Cd58 2.439 . S
O69 C63 1.208 . S
O70 Cd71 2.223 . S
O70 C78 1.315 . S
Cd71 O70 2.223 . S
Cd71 O74 2.297 . S
Cd71 O75 2.439 1_554 S
Cd71 O81 2.240 1_554 S
Cd72 O73 2.240 . S
Cd72 O80 2.223 . S
Cd72 O82 2.297 1_554 S
Cd72 O83 2.439 1_554 S
O73 Cd72 2.240 . S
O73 C78 1.279 . S
O74 Cd71 2.297 . S
O74 C76 1.247 1_554 S
O75 Cd71 2.439 1_556 S
O75 C76 1.208 . S
C76 O74 1.247 1_556 S
C76 O75 1.208 . S
C77 O82 1.247 . S
C77 O83 1.208 . S
C78 O70 1.315 . S
C78 O73 1.279 . S
C79 O80 1.315 . S
C79 O81 1.279 1_554 S
O80 Cd72 2.223 . S
O80 C79 1.315 . S
O81 Cd71 2.240 1_556 S
O81 C79 1.279 1_556 S
O82 Cd72 2.297 1_556 S
O82 C77 1.247 . S
O83 Cd72 2.439 1_556 S
O83 C77 1.208 . S
O84 Cd85 2.223 . S
O84 C92 1.315 . S
Cd85 O84 2.223 . S
Cd85 O88 2.297 . S
Cd85 O89 2.439 . S
Cd85 O95 2.240 . S
Cd86 O87 2.240 . S
Cd86 O94 2.223 . S
Cd86 O96 2.297 . S
Cd86 O97 2.439 . S
O87 Cd86 2.240 . S
O87 C92 1.279 . S
O88 Cd85 2.297 . S
O88 C90 1.247 . S
O89 Cd85 2.439 . S
O89 C90 1.208 . S
C90 O88 1.247 . S
C90 O89 1.208 . S
C91 O96 1.247 . S
C91 O97 1.208 . S
C92 O84 1.315 . S
C92 O87 1.279 . S
C93 O94 1.315 . S
C93 O95 1.279 . S
O94 Cd86 2.223 . S
O94 C93 1.315 . S
O95 Cd85 2.240 . S
O95 C93 1.279 . S
O96 Cd86 2.297 . S
O96 C91 1.247 . S
O97 Cd86 2.439 . S
O97 C91 1.208 . S
O98 Cd99 2.223 . S
O98 C106 1.315 . S
Cd99 O98 2.223 . S
Cd99 O102 2.297 . S
Cd99 O103 2.439 . S
Cd99 O109 2.240 . S
Cd100 O101 2.240 . S
Cd100 O108 2.223 . S
Cd100 O110 2.297 . S
Cd100 O111 2.439 . S
O101 Cd100 2.240 . S
O101 C106 1.279 . S
O102 Cd99 2.297 . S
O102 C104 1.247 . S
O103 Cd99 2.439 . S
O103 C104 1.208 . S
C104 O102 1.247 . S
C104 O103 1.208 . S
C105 O110 1.247 . S
C105 O111 1.208 . S
C106 O98 1.315 . S
C106 O101 1.279 . S
C107 O108 1.315 . S
C107 O109 1.279 . S
O108 Cd100 2.223 . S
O108 C107 1.315 . S
O109 Cd99 2.240 . S
O109 C107 1.279 . S
O110 Cd100 2.297 . S
O110 C105 1.247 . S
O111 Cd100 2.439 . S
O111 C105 1.208 . S
O112 Cd113 2.223 1_556 S
O112 C120 1.315 . S
Cd113 O112 2.223 1_554 S
Cd113 O116 2.297 . S
Cd113 O117 2.439 . S
Cd113 O123 2.240 . S
Cd114 O115 2.240 1_554 S
Cd114 O122 2.227 . S
Cd114 O124 2.297 . S
Cd114 O125 2.439 . S
O115 Cd114 2.240 1_556 S
O115 C120 1.279 . S
O116 Cd113 2.297 . S
O116 C118 1.247 . S
O117 Cd113 2.439 . S
O117 C118 1.208 . S
C118 O116 1.247 . S
C118 O117 1.208 . S
C119 O124 1.247 . S
C119 O125 1.208 . S
C120 O112 1.315 . S
C120 O115 1.279 . S
C121 O122 1.322 . S
C121 O123 1.279 . S
O122 Cd114 2.227 . S
O122 C121 1.322 . S
O123 Cd113 2.240 . S
O123 C121 1.279 . S
O124 Cd114 2.297 . S
O124 C119 1.247 . S
O125 Cd114 2.439 . S
O125 C119 1.208 . S
O126 Cd127 2.223 . S
O126 C134 1.315 . S
Cd127 O126 2.223 . S
Cd127 O130 2.297 . S
Cd127 O131 2.439 . S
Cd127 O137 2.240 . S
Cd128 O129 2.240 . S
Cd128 O136 2.223 . S
Cd128 O138 2.297 . S
Cd128 O139 2.439 . S
O129 Cd128 2.240 . S
O129 C134 1.279 . S
O130 Cd127 2.297 . S
O130 C132 1.247 . S
O131 Cd127 2.439 . S
O131 C132 1.208 . S
C132 O130 1.247 . S
C132 O131 1.208 . S
C133 O138 1.247 . S
C133 O139 1.208 . S
C134 O126 1.315 . S
C134 O129 1.279 . S
C135 O136 1.315 . S
C135 O137 1.279 . S
O136 Cd128 2.223 . S
O136 C135 1.315 . S
O137 Cd127 2.240 . S
O137 C135 1.279 . S
O138 Cd128 2.297 . S
O138 C133 1.247 . S
O139 Cd128 2.439 . S
O139 C133 1.208 . S
O140 Cd141 2.223 . S
O140 C148 1.315 . S
Cd141 O140 2.223 . S
Cd141 O144 2.297 . S
Cd141 O145 2.439 . S
Cd141 O151 2.240 . S
Cd142 O143 2.240 . S
Cd142 O150 2.223 . S
Cd142 O152 2.297 . S
Cd142 O153 2.439 . S
O143 Cd142 2.240 . S
O143 C148 1.279 . S
O144 Cd141 2.297 . S
O144 C146 1.247 . S
O145 Cd141 2.439 . S
O145 C146 1.208 . S
C146 O144 1.247 . S
C146 O145 1.208 . S
C147 O152 1.247 . S
C147 O153 1.208 . S
C148 O140 1.315 . S
C148 O143 1.279 . S
C149 O150 1.315 . S
C149 O151 1.279 . S
O150 Cd142 2.223 . S
O150 C149 1.315 . S
O151 Cd141 2.240 . S
O151 C149 1.279 . S
O152 Cd142 2.297 . S
O152 C147 1.247 . S
O153 Cd142 2.439 . S
O153 C147 1.208 . S
O154 Cd155 2.223 1_556 S
O154 C162 1.315 . S
Cd155 O154 2.223 1_554 S
Cd155 O158 2.297 . S
Cd155 O159 2.439 . S
Cd155 O165 2.240 . S
Cd156 O157 2.240 1_554 S
Cd156 O164 2.227 . S
Cd156 O166 2.297 . S
Cd156 O167 2.439 . S
O157 Cd156 2.240 1_556 S
O157 C162 1.279 . S
O158 Cd155 2.297 . S
O158 C160 1.247 . S
O159 Cd155 2.439 . S
O159 C160 1.208 . S
C160 O158 1.247 . S
C160 O159 1.208 . S
C161 O166 1.247 . S
C161 O167 1.208 . S
C162 O154 1.315 . S
C162 O157 1.279 . S
C163 O164 1.322 . S
C163 O165 1.279 . S
O164 Cd156 2.227 . S
O164 C163 1.322 . S
O165 Cd155 2.240 . S
O165 C163 1.279 . S
O166 Cd156 2.297 . S
O166 C161 1.247 . S
O167 Cd156 2.439 . S
O167 C161 1.208 . S
H168 C180 0.930 . S
H169 C182 0.930 . S
H170 C183 0.930 . S
H171 C187 0.959 . S
H172 C187 0.959 . S
H173 C187 0.961 . S
H174 C188 0.960 . S
H175 C188 0.961 . S
H176 C188 0.959 . S
H177 C191 0.929 . S
H178 C192 0.931 . S
H179 C194 0.930 . S
C180 H168 0.930 . S
C180 C181 1.399 . S
C180 C185 1.399 . S
C181 C180 1.399 . S
C181 C182 1.376 . S
C182 H169 0.930 . S
C182 C181 1.376 . S
C182 C183 1.388 . S
C183 H170 0.930 . S
C183 C182 1.388 . S
C183 C184 1.390 . S
C184 C183 1.390 . S
C184 C185 1.394 . S
C184 C190 1.465 . S
C185 C180 1.399 . S
C185 C184 1.394 . S
C185 C186 1.516 . S
C186 C185 1.516 . S
C186 C187 1.502 . S
C186 C188 1.561 . S
C186 C189 1.526 . S
C187 H171 0.959 . S
C187 H172 0.959 . S
C187 H173 0.961 . S
C187 C186 1.502 . S
C188 H174 0.960 . S
C188 H175 0.961 . S
C188 H176 0.959 . S
C188 C186 1.561 . S
C189 C186 1.526 . S
C189 C190 1.396 . S
C189 C194 1.390 . S
C190 C184 1.465 . S
C190 C189 1.396 . S
C190 C191 1.399 . S
C191 H177 0.929 . S
C191 C190 1.399 . S
C191 C192 1.385 . S
C192 H178 0.931 . S
C192 C191 1.385 . S
C192 C193 1.389 . S
C193 C192 1.389 . S
C193 C194 1.387 . S
C194 H179 0.930 . S
C194 C189 1.390 . S
C194 C193 1.387 . S
H195 C207 0.930 . S
H196 C209 0.930 . S
H197 C210 0.930 . S
H198 C214 0.959 . S
H199 C214 0.959 . S
H200 C214 0.961 . S
H201 C215 0.960 . S
H202 C215 0.961 . S
H203 C215 0.959 . S
H204 C218 0.929 . S
H205 C219 0.931 . S
H206 C221 0.930 . S
C207 H195 0.930 . S
C207 C208 1.399 . S
C207 C212 1.399 . S
C208 C207 1.399 . S
C208 C209 1.376 . S
C209 H196 0.930 . S
C209 C208 1.376 . S
C209 C210 1.388 . S
C210 H197 0.930 . S
C210 C209 1.388 . S
C210 C211 1.390 . S
C211 C210 1.390 . S
C211 C212 1.394 . S
C211 C217 1.465 . S
C212 C207 1.399 . S
C212 C211 1.394 . S
C212 C213 1.516 . S
C213 C212 1.516 . S
C213 C214 1.502 . S
C213 C215 1.561 . S
C213 C216 1.526 . S
C214 H198 0.959 . S
C214 H199 0.959 . S
C214 H200 0.961 . S
C214 C213 1.502 . S
C215 H201 0.960 . S
C215 H202 0.961 . S
C215 H203 0.959 . S
C215 C213 1.561 . S
C216 C213 1.526 . S
C216 C217 1.396 . S
C216 C221 1.390 . S
C217 C211 1.465 . S
C217 C216 1.396 . S
C217 C218 1.399 . S
C218 H204 0.929 . S
C218 C217 1.399 . S
C218 C219 1.385 . S
C219 H205 0.931 . S
C219 C218 1.385 . S
C219 C220 1.389 . S
C220 C219 1.389 . S
C220 C221 1.387 . S
C221 H206 0.930 . S
C221 C216 1.390 . S
C221 C220 1.387 . S
H222 C234 0.930 . S
H223 C236 0.930 . S
H224 C237 0.930 . S
H225 C241 0.959 . S
H226 C241 0.959 . S
H227 C241 0.961 . S
H228 C242 0.960 . S
H229 C242 0.961 . S
H230 C242 0.959 . S
H231 C245 0.929 . S
H232 C246 0.931 . S
H233 C248 0.930 . S
C234 H222 0.930 . S
C234 C235 1.399 . S
C234 C239 1.399 . S
C235 C234 1.399 . S
C235 C236 1.376 . S
C236 H223 0.930 . S
C236 C235 1.376 . S
C236 C237 1.388 . S
C237 H224 0.930 . S
C237 C236 1.388 . S
C237 C238 1.390 . S
C238 C237 1.390 . S
C238 C239 1.394 . S
C238 C244 1.465 . S
C239 C234 1.399 . S
C239 C238 1.394 . S
C239 C240 1.516 . S
C240 C239 1.516 . S
C240 C241 1.502 . S
C240 C242 1.561 . S
C240 C243 1.526 . S
C241 H225 0.959 . S
C241 H226 0.959 . S
C241 H227 0.961 . S
C241 C240 1.502 . S
C242 H228 0.960 . S
C242 H229 0.961 . S
C242 H230 0.959 . S
C242 C240 1.561 . S
C243 C240 1.526 . S
C243 C244 1.396 . S
C243 C248 1.390 . S
C244 C238 1.465 . S
C244 C243 1.396 . S
C244 C245 1.399 . S
C245 H231 0.929 . S
C245 C244 1.399 . S
C245 C246 1.385 . S
C246 H232 0.931 . S
C246 C245 1.385 . S
C246 C247 1.389 . S
C247 C246 1.389 . S
C247 C248 1.387 . S
C248 H233 0.930 . S
C248 C243 1.390 . S
C248 C247 1.387 . S
H249 C261 0.930 . S
H250 C263 0.930 . S
H251 C264 0.930 . S
H252 C268 0.959 . S
H253 C268 0.959 . S
H254 C268 0.961 . S
H255 C269 0.960 . S
H256 C269 0.961 . S
H257 C269 0.959 . S
H258 C272 0.929 . S
H259 C273 0.931 . S
H260 C275 0.930 . S
C261 H249 0.930 . S
C261 C262 1.399 . S
C261 C266 1.399 . S
C262 C261 1.399 . S
C262 C263 1.376 . S
C263 H250 0.930 . S
C263 C262 1.376 . S
C263 C264 1.388 . S
C264 H251 0.930 . S
C264 C263 1.388 . S
C264 C265 1.390 . S
C265 C264 1.390 . S
C265 C266 1.394 . S
C265 C271 1.465 . S
C266 C261 1.399 . S
C266 C265 1.394 . S
C266 C267 1.516 . S
C267 C266 1.516 . S
C267 C268 1.502 . S
C267 C269 1.561 . S
C267 C270 1.526 . S
C268 H252 0.959 . S
C268 H253 0.959 . S
C268 H254 0.961 . S
C268 C267 1.502 . S
C269 H255 0.960 . S
C269 H256 0.961 . S
C269 H257 0.959 . S
C269 C267 1.561 . S
C270 C267 1.526 . S
C270 C271 1.396 . S
C270 C275 1.390 . S
C271 C265 1.465 . S
C271 C270 1.396 . S
C271 C272 1.399 . S
C272 H258 0.929 . S
C272 C271 1.399 . S
C272 C273 1.385 . S
C273 H259 0.931 . S
C273 C272 1.385 . S
C273 C274 1.389 . S
C274 C273 1.389 . S
C274 C275 1.387 . S
C275 H260 0.930 . S
C275 C270 1.390 . S
C275 C274 1.387 . S
H276 C288 0.930 . S
H277 C290 0.930 . S
H278 C291 0.930 . S
H279 C295 0.959 . S
H280 C295 0.959 . S
H281 C295 0.961 . S
H282 C296 0.960 . S
H283 C296 0.961 . S
H284 C296 0.959 . S
H285 C299 0.929 . S
H286 C300 0.931 . S
H287 C302 0.930 . S
C288 H276 0.930 . S
C288 C289 1.399 . S
C288 C293 1.399 . S
C289 C288 1.399 . S
C289 C290 1.376 . S
C290 H277 0.930 . S
C290 C289 1.376 . S
C290 C291 1.388 . S
C291 H278 0.930 . S
C291 C290 1.388 . S
C291 C292 1.390 . S
C292 C291 1.390 . S
C292 C293 1.394 . S
C292 C298 1.465 . S
C293 C288 1.399 . S
C293 C292 1.394 . S
C293 C294 1.516 . S
C294 C293 1.516 . S
C294 C295 1.502 . S
C294 C296 1.561 . S
C294 C297 1.526 . S
C295 H279 0.959 . S
C295 H280 0.959 . S
C295 H281 0.961 . S
C295 C294 1.502 . S
C296 H282 0.960 . S
C296 H283 0.961 . S
C296 H284 0.959 . S
C296 C294 1.561 . S
C297 C294 1.526 . S
C297 C298 1.396 . S
C297 C302 1.390 . S
C298 C292 1.465 . S
C298 C297 1.396 . S
C298 C299 1.399 . S
C299 H285 0.929 . S
C299 C298 1.399 . S
C299 C300 1.385 . S
C300 H286 0.931 . S
C300 C299 1.385 . S
C300 C301 1.389 . S
C301 C300 1.389 . S
C301 C302 1.387 . S
C302 H287 0.930 . S
C302 C297 1.390 . S
C302 C301 1.387 . S
H303 C315 0.930 . S
H304 C317 0.930 . S
H305 C318 0.930 . S
H306 C322 0.959 . S
H307 C322 0.959 . S
H308 C322 0.961 . S
H309 C323 0.960 . S
H310 C323 0.961 . S
H311 C323 0.959 . S
H312 C326 0.929 . S
H313 C327 0.931 . S
H314 C329 0.930 . S
C315 H303 0.930 . S
C315 C316 1.399 . S
C315 C320 1.399 . S
C316 C315 1.399 . S
C316 C317 1.376 . S
C317 H304 0.930 . S
C317 C316 1.376 . S
C317 C318 1.388 . S
C318 H305 0.930 . S
C318 C317 1.388 . S
C318 C319 1.390 . S
C319 C318 1.390 . S
C319 C320 1.394 . S
C319 C325 1.465 . S
C320 C315 1.399 . S
C320 C319 1.394 . S
C320 C321 1.516 . S
C321 C320 1.516 . S
C321 C322 1.502 . S
C321 C323 1.561 . S
C321 C324 1.526 . S
C322 H306 0.959 . S
C322 H307 0.959 . S
C322 H308 0.961 . S
C322 C321 1.502 . S
C323 H309 0.960 . S
C323 H310 0.961 . S
C323 H311 0.959 . S
C323 C321 1.561 . S
C324 C321 1.526 . S
C324 C325 1.396 . S
C324 C329 1.390 . S
C325 C319 1.465 . S
C325 C324 1.396 . S
C325 C326 1.399 . S
C326 H312 0.929 . S
C326 C325 1.399 . S
C326 C327 1.385 . S
C327 H313 0.931 . S
C327 C326 1.385 . S
C327 C328 1.389 . S
C328 C327 1.389 . S
C328 C329 1.387 . S
C329 H314 0.930 . S
C329 C324 1.390 . S
C329 C328 1.387 . S
H330 C342 0.930 . S
H331 C344 0.930 . S
H332 C345 0.930 . S
H333 C349 0.959 . S
H334 C349 0.959 . S
H335 C349 0.961 . S
H336 C350 0.960 . S
H337 C350 0.961 . S
H338 C350 0.959 . S
H339 C353 0.929 . S
H340 C354 0.931 . S
H341 C356 0.930 . S
C342 H330 0.930 . S
C342 C343 1.399 . S
C342 C347 1.399 . S
C343 C342 1.399 . S
C343 C344 1.376 . S
C344 H331 0.930 . S
C344 C343 1.376 . S
C344 C345 1.388 . S
C345 H332 0.930 . S
C345 C344 1.388 . S
C345 C346 1.390 . S
C346 C345 1.390 . S
C346 C347 1.394 . S
C346 C352 1.465 . S
C347 C342 1.399 . S
C347 C346 1.394 . S
C347 C348 1.516 . S
C348 C347 1.516 . S
C348 C349 1.502 . S
C348 C350 1.561 . S
C348 C351 1.526 . S
C349 H333 0.959 . S
C349 H334 0.959 . S
C349 H335 0.961 . S
C349 C348 1.502 . S
C350 H336 0.960 . S
C350 H337 0.961 . S
C350 H338 0.959 . S
C350 C348 1.561 . S
C351 C348 1.526 . S
C351 C352 1.396 . S
C351 C356 1.390 . S
C352 C346 1.465 . S
C352 C351 1.396 . S
C352 C353 1.399 . S
C353 H339 0.929 . S
C353 C352 1.399 . S
C353 C354 1.385 . S
C354 H340 0.931 . S
C354 C353 1.385 . S
C354 C355 1.389 . S
C355 C354 1.389 . S
C355 C356 1.387 . S
C356 H341 0.930 . S
C356 C351 1.390 . S
C356 C355 1.387 . S
H357 C369 0.930 . S
H358 C371 0.930 . S
H359 C372 0.930 . S
H360 C376 0.959 . S
H361 C376 0.959 . S
H362 C376 0.961 . S
H363 C377 0.960 . S
H364 C377 0.961 . S
H365 C377 0.959 . S
H366 C380 0.929 . S
H367 C381 0.931 . S
H368 C383 0.930 . S
C369 H357 0.930 . S
C369 C370 1.399 . S
C369 C374 1.399 . S
C370 C369 1.399 . S
C370 C371 1.376 . S
C371 H358 0.930 . S
C371 C370 1.376 . S
C371 C372 1.388 . S
C372 H359 0.930 . S
C372 C371 1.388 . S
C372 C373 1.390 . S
C373 C372 1.390 . S
C373 C374 1.394 . S
C373 C379 1.465 . S
C374 C369 1.399 . S
C374 C373 1.394 . S
C374 C375 1.516 . S
C375 C374 1.516 . S
C375 C376 1.502 . S
C375 C377 1.561 . S
C375 C378 1.526 . S
C376 H360 0.959 . S
C376 H361 0.959 . S
C376 H362 0.961 . S
C376 C375 1.502 . S
C377 H363 0.960 . S
C377 H364 0.961 . S
C377 H365 0.959 . S
C377 C375 1.561 . S
C378 C375 1.526 . S
C378 C379 1.396 . S
C378 C383 1.390 . S
C379 C373 1.465 . S
C379 C378 1.396 . S
C379 C380 1.399 . S
C380 H366 0.929 . S
C380 C379 1.399 . S
C380 C381 1.385 . S
C381 H367 0.931 . S
C381 C380 1.385 . S
C381 C382 1.389 . S
C382 C381 1.389 . S
C382 C383 1.387 . S
C383 H368 0.930 . S
C383 C378 1.390 . S
C383 C382 1.387 . S
H384 C396 0.930 . S
H385 C398 0.930 . S
H386 C399 0.930 . S
H387 C403 0.959 . S
H388 C403 0.959 . S
H389 C403 0.961 . S
H390 C404 0.960 . S
H391 C404 0.961 1_556 S
H392 C404 0.959 . S
H393 C407 0.929 . S
H394 C408 0.931 . S
H395 C410 0.930 . S
C396 H384 0.930 . S
C396 C397 1.399 1_556 S
C396 C401 1.399 1_556 S
C397 C396 1.399 1_554 S
C397 C398 1.376 . S
C398 H385 0.930 . S
C398 C397 1.376 . S
C398 C399 1.388 . S
C399 H386 0.930 . S
C399 C398 1.388 . S
C399 C400 1.390 . S
C400 C399 1.390 . S
C400 C401 1.394 . S
C400 C406 1.465 . S
C401 C396 1.399 1_554 S
C401 C400 1.394 . S
C401 C402 1.516 1_554 S
C402 C401 1.516 1_556 S
C402 C403 1.502 . S
C402 C404 1.561 1_556 S
C402 C405 1.519 1_556 S
C403 H387 0.959 . S
C403 H388 0.959 . S
C403 H389 0.961 . S
C403 C402 1.502 . S
C404 H390 0.960 . S
C404 H391 0.961 1_554 S
C404 H392 0.959 . S
C404 C402 1.561 1_554 S
C405 C402 1.519 1_554 S
C405 C406 1.409 . S
C405 C410 1.386 1_554 S
C406 C400 1.465 . S
C406 C405 1.409 . S
C406 C407 1.399 . S
C407 H393 0.929 . S
C407 C406 1.399 . S
C407 C408 1.385 . S
C408 H394 0.931 . S
C408 C407 1.385 . S
C408 C409 1.389 . S
C409 C408 1.389 . S
C409 C410 1.387 1_554 S
C410 H395 0.930 . S
C410 C405 1.386 1_556 S
C410 C409 1.387 1_556 S
H411 C423 0.930 . S
H412 C425 0.930 . S
H413 C426 0.930 . S
H414 C430 0.959 . S
H415 C430 0.959 . S
H416 C430 0.961 . S
H417 C431 0.960 . S
H418 C431 0.961 . S
H419 C431 0.959 . S
H420 C434 0.929 . S
H421 C435 0.931 . S
H422 C437 0.930 . S
C423 H411 0.930 . S
C423 C424 1.399 . S
C423 C428 1.399 . S
C424 C423 1.399 . S
C424 C425 1.376 . S
C425 H412 0.930 . S
C425 C424 1.376 . S
C425 C426 1.388 . S
C426 H413 0.930 . S
C426 C425 1.388 . S
C426 C427 1.390 . S
C427 C426 1.390 . S
C427 C428 1.394 . S
C427 C433 1.465 . S
C428 C423 1.399 . S
C428 C427 1.394 . S
C428 C429 1.516 . S
C429 C428 1.516 . S
C429 C430 1.502 . S
C429 C431 1.561 . S
C429 C432 1.526 . S
C430 H414 0.959 . S
C430 H415 0.959 . S
C430 H416 0.961 . S
C430 C429 1.502 . S
C431 H417 0.960 . S
C431 H418 0.961 . S
C431 H419 0.959 . S
C431 C429 1.561 . S
C432 C429 1.526 . S
C432 C433 1.396 . S
C432 C437 1.390 . S
C433 C427 1.465 . S
C433 C432 1.396 . S
C433 C434 1.399 . S
C434 H420 0.929 . S
C434 C433 1.399 . S
C434 C435 1.385 . S
C435 H421 0.931 . S
C435 C434 1.385 . S
C435 C436 1.389 . S
C436 C435 1.389 . S
C436 C437 1.387 . S
C437 H422 0.930 . S
C437 C432 1.390 . S
C437 C436 1.387 . S
H438 C450 0.930 . S
H439 C452 0.930 . S
H440 C453 0.930 . S
H441 C457 0.959 . S
H442 C457 0.959 . S
H443 C457 0.961 . S
H444 C458 0.960 . S
H445 C458 0.961 . S
H446 C458 0.959 . S
H447 C461 0.929 . S
H448 C462 0.931 . S
H449 C464 0.930 . S
C450 H438 0.930 . S
C450 C451 1.399 . S
C450 C455 1.399 . S
C451 C450 1.399 . S
C451 C452 1.376 . S
C452 H439 0.930 . S
C452 C451 1.376 . S
C452 C453 1.388 . S
C453 H440 0.930 . S
C453 C452 1.388 . S
C453 C454 1.390 . S
C454 C453 1.390 . S
C454 C455 1.394 . S
C454 C460 1.465 . S
C455 C450 1.399 . S
C455 C454 1.394 . S
C455 C456 1.516 . S
C456 C455 1.516 . S
C456 C457 1.502 . S
C456 C458 1.561 . S
C456 C459 1.526 . S
C457 H441 0.959 . S
C457 H442 0.959 . S
C457 H443 0.961 . S
C457 C456 1.502 . S
C458 H444 0.960 . S
C458 H445 0.961 . S
C458 H446 0.959 . S
C458 C456 1.561 . S
C459 C456 1.526 . S
C459 C460 1.396 . S
C459 C464 1.390 . S
C460 C454 1.465 . S
C460 C459 1.396 . S
C460 C461 1.399 . S
C461 H447 0.929 . S
C461 C460 1.399 . S
C461 C462 1.385 . S
C462 H448 0.931 . S
C462 C461 1.385 . S
C462 C463 1.389 . S
C463 C462 1.389 . S
C463 C464 1.387 . S
C464 H449 0.930 . S
C464 C459 1.390 . S
C464 C463 1.387 . S
H465 C477 0.930 . S
H466 C479 0.930 . S
H467 C480 0.930 . S
H468 C484 0.959 . S
H469 C484 0.959 . S
H470 C484 0.961 . S
H471 C485 0.960 . S
H472 C485 0.961 . S
H473 C485 0.959 . S
H474 C488 0.928 1_556 S
H475 C489 0.931 . S
H476 C491 0.930 . S
C477 H465 0.930 . S
C477 C478 1.399 . S
C477 C482 1.399 . S
C478 C477 1.399 . S
C478 C479 1.376 1_554 S
C479 H466 0.930 . S
C479 C478 1.376 1_556 S
C479 C480 1.388 . S
C480 H467 0.930 . S
C480 C479 1.388 . S
C480 C481 1.390 1_556 S
C481 C480 1.390 1_554 S
C481 C482 1.394 . S
C481 C487 1.465 . S
C482 C477 1.399 . S
C482 C481 1.394 . S
C482 C483 1.516 . S
C483 C482 1.516 . S
C483 C484 1.502 . S
C483 C485 1.561 1_554 S
C483 C486 1.526 . S
C484 H468 0.959 . S
C484 H469 0.959 . S
C484 H470 0.961 . S
C484 C483 1.502 . S
C485 H471 0.960 . S
C485 H472 0.961 . S
C485 H473 0.959 . S
C485 C483 1.561 1_556 S
C486 C483 1.526 . S
C486 C487 1.396 . S
C486 C491 1.390 . S
C487 C481 1.465 . S
C487 C486 1.396 . S
C487 C488 1.399 . S
C488 H474 0.928 1_554 S
C488 C487 1.399 . S
C488 C489 1.385 . S
C489 H475 0.931 . S
C489 C488 1.385 . S
C489 C490 1.389 . S
C490 C489 1.389 . S
C490 C491 1.387 . S
C491 H476 0.930 . S
C491 C486 1.390 . S
C491 C490 1.387 . S
H492 C504 0.930 . S
H493 C506 0.930 . S
H494 C507 0.930 . S
H495 C511 0.959 . S
H496 C511 0.959 . S
H497 C511 0.961 1_545 S
H498 C512 0.960 . S
H499 C512 0.961 1_565 S
H500 C512 0.959 . S
H501 C515 0.929 . S
H502 C516 0.931 . S
H503 C518 0.930 . S
C504 H492 0.930 . S
C504 C505 1.399 . S
C504 C509 1.399 . S
C505 C504 1.399 . S
C505 C506 1.376 . S
C506 H493 0.930 . S
C506 C505 1.376 . S
C506 C507 1.388 . S
C507 H494 0.930 . S
C507 C506 1.388 . S
C507 C508 1.390 . S
C508 C507 1.390 . S
C508 C509 1.394 . S
C508 C514 1.465 1_545 S
C509 C504 1.399 . S
C509 C508 1.394 . S
C509 C510 1.516 1_545 S
C510 C509 1.516 1_565 S
C510 C511 1.502 . S
C510 C512 1.561 1_565 S
C510 C513 1.526 . S
C511 H495 0.959 . S
C511 H496 0.959 . S
C511 H497 0.961 1_565 S
C511 C510 1.502 . S
C512 H498 0.960 . S
C512 H499 0.961 1_545 S
C512 H500 0.959 . S
C512 C510 1.561 1_545 S
C513 C510 1.526 . S
C513 C514 1.396 . S
C513 C518 1.390 . S
C514 C508 1.465 1_565 S
C514 C513 1.396 . S
C514 C515 1.399 . S
C515 H501 0.929 . S
C515 C514 1.399 . S
C515 C516 1.385 . S
C516 H502 0.931 . S
C516 C515 1.385 . S
C516 C517 1.389 . S
C517 C516 1.389 . S
C517 C518 1.387 . S
C518 H503 0.930 . S
C518 C513 1.390 . S
C518 C517 1.387 . S
H519 C531 0.930 . S
H520 C533 0.930 . S
H521 C534 0.930 . S
H522 C538 0.959 . S
H523 C538 0.959 . S
H524 C538 0.961 . S
H525 C539 0.960 . S
H526 C539 0.961 . S
H527 C539 0.959 . S
H528 C542 0.929 . S
H529 C543 0.931 . S
H530 C545 0.930 . S
C531 H519 0.930 . S
C531 C532 1.399 . S
C531 C536 1.399 . S
C532 C531 1.399 . S
C532 C533 1.376 . S
C533 H520 0.930 . S
C533 C532 1.376 . S
C533 C534 1.388 . S
C534 H521 0.930 . S
C534 C533 1.388 . S
C534 C535 1.390 . S
C535 C534 1.390 . S
C535 C536 1.394 . S
C535 C541 1.465 . S
C536 C531 1.399 . S
C536 C535 1.394 . S
C536 C537 1.516 . S
C537 C536 1.516 . S
C537 C538 1.502 . S
C537 C539 1.561 . S
C537 C540 1.526 . S
C538 H522 0.959 . S
C538 H523 0.959 . S
C538 H524 0.961 . S
C538 C537 1.502 . S
C539 H525 0.960 . S
C539 H526 0.961 . S
C539 H527 0.959 . S
C539 C537 1.561 . S
C540 C537 1.526 . S
C540 C541 1.396 . S
C540 C545 1.390 . S
C541 C535 1.465 . S
C541 C540 1.396 . S
C541 C542 1.399 . S
C542 H528 0.929 . S
C542 C541 1.399 . S
C542 C543 1.385 . S
C543 H529 0.931 . S
C543 C542 1.385 . S
C543 C544 1.389 . S
C544 C543 1.389 . S
C544 C545 1.387 . S
C545 H530 0.930 . S
C545 C540 1.390 . S
C545 C544 1.387 . S
H546 C558 0.930 . S
H547 C560 0.930 . S
H548 C561 0.930 . S
H549 C565 0.959 . S
H550 C565 0.959 1_455 S
H551 C565 0.961 . S
H552 C566 0.960 1_655 S
H553 C566 0.961 . S
H554 C566 0.959 . S
H555 C569 0.929 . S
H556 C570 0.931 . S
H557 C572 0.930 . S
C558 H546 0.930 . S
C558 C559 1.399 1_554 S
C558 C563 1.399 . S
C559 C558 1.399 1_556 S
C559 C560 1.376 . S
C560 H547 0.930 . S
C560 C559 1.376 . S
C560 C561 1.388 . S
C561 H548 0.930 . S
C561 C560 1.388 . S
C561 C562 1.390 . S
C562 C561 1.390 . S
C562 C563 1.394 1_556 S
C562 C568 1.465 1_655 S
C563 C558 1.399 . S
C563 C562 1.394 1_554 S
C563 C564 1.516 . S
C564 C563 1.516 . S
C564 C565 1.502 . S
C564 C566 1.561 1_655 S
C564 C567 1.526 1_655 S
C565 H549 0.959 . S
C565 H550 0.959 1_655 S
C565 H551 0.961 . S
C565 C564 1.502 . S
C566 H552 0.960 1_455 S
C566 H553 0.961 . S
C566 H554 0.959 . S
C566 C564 1.561 1_455 S
C567 C564 1.526 1_455 S
C567 C568 1.396 1_554 S
C567 C572 1.390 . S
C568 C562 1.465 1_455 S
C568 C567 1.396 1_556 S
C568 C569 1.399 . S
C569 H555 0.929 . S
C569 C568 1.399 . S
C569 C570 1.385 . S
C570 H556 0.931 . S
C570 C569 1.385 . S
C570 C571 1.389 . S
C571 C570 1.389 . S
C571 C572 1.387 1_556 S
C572 H557 0.930 . S
C572 C567 1.390 . S
C572 C571 1.387 1_554 S
H573 C585 0.930 . S
H574 C587 0.930 . S
H575 C588 0.930 . S
H576 C592 0.959 . S
H577 C592 0.959 . S
H578 C592 0.961 1_455 S
H579 C593 0.960 . S
H580 C593 0.961 1_655 S
H581 C593 0.959 . S
H582 C596 0.929 . S
H583 C597 0.931 . S
H584 C599 0.930 . S
C585 H573 0.930 . S
C585 C586 1.399 . S
C585 C590 1.399 . S
C586 C585 1.399 . S
C586 C587 1.376 . S
C587 H574 0.930 . S
C587 C586 1.376 . S
C587 C588 1.388 . S
C588 H575 0.930 . S
C588 C587 1.388 . S
C588 C589 1.390 . S
C589 C588 1.390 . S
C589 C590 1.394 . S
C589 C595 1.465 1_455 S
C590 C585 1.399 . S
C590 C589 1.394 . S
C590 C591 1.486 1_455 S
C591 C590 1.486 1_655 S
C591 C592 1.495 . S
C591 C593 1.570 1_655 S
C591 C594 1.558 . S
C592 H576 0.959 . S
C592 H577 0.959 . S
C592 H578 0.961 1_655 S
C592 C591 1.495 . S
C593 H579 0.960 . S
C593 H580 0.961 1_455 S
C593 H581 0.959 . S
C593 C591 1.570 1_455 S
C594 C591 1.558 . S
C594 C595 1.396 . S
C594 C599 1.390 . S
C595 C589 1.465 1_655 S
C595 C594 1.396 . S
C595 C596 1.399 . S
C596 H582 0.929 . S
C596 C595 1.399 . S
C596 C597 1.385 . S
C597 H583 0.931 . S
C597 C596 1.385 . S
C597 C598 1.389 . S
C598 C597 1.389 . S
C598 C599 1.387 . S
C599 H584 0.930 . S
C599 C594 1.390 . S
C599 C598 1.387 . S
H600 C612 0.930 . S
H601 C614 0.930 . S
H602 C615 0.930 . S
H603 C619 0.959 . S
H604 C619 0.959 . S
H605 C619 0.961 1_545 S
H606 C620 0.960 . S
H607 C620 0.961 1_565 S
H608 C620 0.959 . S
H609 C623 0.929 . S
H610 C624 0.931 . S
H611 C626 0.930 . S
C612 H600 0.930 . S
C612 C613 1.399 . S
C612 C617 1.399 . S
C613 C612 1.399 . S
C613 C614 1.376 . S
C614 H601 0.930 . S
C614 C613 1.376 . S
C614 C615 1.388 . S
C615 H602 0.930 . S
C615 C614 1.388 . S
C615 C616 1.390 . S
C616 C615 1.390 . S
C616 C617 1.394 . S
C616 C622 1.465 1_545 S
C617 C612 1.399 . S
C617 C616 1.394 . S
C617 C618 1.516 1_545 S
C618 C617 1.516 1_565 S
C618 C619 1.502 . S
C618 C620 1.561 1_565 S
C618 C621 1.526 . S
C619 H603 0.959 . S
C619 H604 0.959 . S
C619 H605 0.961 1_565 S
C619 C618 1.502 . S
C620 H606 0.960 . S
C620 H607 0.961 1_545 S
C620 H608 0.959 . S
C620 C618 1.561 1_545 S
C621 C618 1.526 . S
C621 C622 1.396 . S
C621 C626 1.390 . S
C622 C616 1.465 1_565 S
C622 C621 1.396 . S
C622 C623 1.399 . S
C623 H609 0.929 . S
C623 C622 1.399 . S
C623 C624 1.385 . S
C624 H610 0.931 . S
C624 C623 1.385 . S
C624 C625 1.389 . S
C625 C624 1.389 . S
C625 C626 1.387 . S
C626 H611 0.930 . S
C626 C621 1.390 . S
C626 C625 1.387 . S
H627 C639 0.930 1_556 S
H628 C641 0.930 . S
H629 C642 0.930 . S
H630 C646 0.959 . S
H631 C646 0.959 . S
H632 C646 0.961 . S
H633 C647 0.960 . S
H634 C647 0.961 . S
H635 C647 0.959 . S
H636 C650 0.929 . S
H637 C651 0.931 . S
H638 C653 0.930 1_556 S
C639 H627 0.930 1_554 S
C639 C640 1.399 . S
C639 C644 1.399 . S
C640 C639 1.399 . S
C640 C641 1.376 . S
C641 H628 0.930 . S
C641 C640 1.376 . S
C641 C642 1.388 . S
C642 H629 0.930 . S
C642 C641 1.388 . S
C642 C643 1.390 . S
C643 C642 1.390 . S
C643 C644 1.394 . S
C643 C649 1.465 . S
C644 C639 1.399 . S
C644 C643 1.394 . S
C644 C645 1.516 1_554 S
C645 C644 1.516 1_556 S
C645 C646 1.502 . S
C645 C647 1.561 . S
C645 C648 1.526 1_556 S
C646 H630 0.959 . S
C646 H631 0.959 . S
C646 H632 0.961 . S
C646 C645 1.502 . S
C647 H633 0.960 . S
C647 H634 0.961 . S
C647 H635 0.959 . S
C647 C645 1.561 . S
C648 C645 1.526 1_554 S
C648 C649 1.396 . S
C648 C653 1.390 . S
C649 C643 1.465 . S
C649 C648 1.396 . S
C649 C650 1.399 . S
C650 H636 0.929 . S
C650 C649 1.399 . S
C650 C651 1.385 . S
C651 H637 0.931 . S
C651 C650 1.385 . S
C651 C652 1.389 . S
C652 C651 1.389 . S
C652 C653 1.387 . S
C653 H638 0.930 1_554 S
C653 C648 1.390 . S
C653 C652 1.387 . S
H654 C666 0.930 . S
H655 C668 0.930 . S
H656 C669 0.930 . S
H657 C673 0.959 . S
H658 C673 0.959 . S
H659 C673 0.961 . S
H660 C674 0.960 . S
H661 C674 0.961 . S
H662 C674 0.959 . S
H663 C677 0.929 . S
H664 C678 0.931 . S
H665 C680 0.930 . S
C666 H654 0.930 . S
C666 C667 1.399 . S
C666 C671 1.399 . S
C667 C666 1.399 . S
C667 C668 1.376 . S
C668 H655 0.930 . S
C668 C667 1.376 . S
C668 C669 1.388 . S
C669 H656 0.930 . S
C669 C668 1.388 . S
C669 C670 1.390 . S
C670 C669 1.390 . S
C670 C671 1.394 . S
C670 C676 1.465 . S
C671 C666 1.399 . S
C671 C670 1.394 . S
C671 C672 1.516 . S
C672 C671 1.516 . S
C672 C673 1.502 . S
C672 C674 1.561 . S
C672 C675 1.526 . S
C673 H657 0.959 . S
C673 H658 0.959 . S
C673 H659 0.961 . S
C673 C672 1.502 . S
C674 H660 0.960 . S
C674 H661 0.961 . S
C674 H662 0.959 . S
C674 C672 1.561 . S
C675 C672 1.526 . S
C675 C676 1.396 . S
C675 C680 1.390 . S
C676 C670 1.465 . S
C676 C675 1.396 . S
C676 C677 1.399 . S
C677 H663 0.929 . S
C677 C676 1.399 . S
C677 C678 1.385 . S
C678 H664 0.931 . S
C678 C677 1.385 . S
C678 C679 1.389 . S
C679 C678 1.389 . S
C679 C680 1.387 . S
C680 H665 0.930 . S
C680 C675 1.390 . S
C680 C679 1.387 . S
H681 C693 0.930 . S
H682 C695 0.930 . S
H683 C696 0.930 . S
H684 C700 0.959 . S
H685 C700 0.959 . S
H686 C700 0.961 . S
H687 C701 0.960 . S
H688 C701 0.961 . S
H689 C701 0.959 . S
H690 C704 0.929 . S
H691 C705 0.931 . S
H692 C707 0.930 . S
C693 H681 0.930 . S
C693 C694 1.399 . S
C693 C698 1.399 . S
C694 C693 1.399 . S
C694 C695 1.376 . S
C695 H682 0.930 . S
C695 C694 1.376 . S
C695 C696 1.388 . S
C696 H683 0.930 . S
C696 C695 1.388 . S
C696 C697 1.390 . S
C697 C696 1.390 . S
C697 C698 1.394 . S
C697 C703 1.465 . S
C698 C693 1.399 . S
C698 C697 1.394 . S
C698 C699 1.516 . S
C699 C698 1.516 . S
C699 C700 1.502 . S
C699 C701 1.561 . S
C699 C702 1.526 . S
C700 H684 0.959 . S
C700 H685 0.959 . S
C700 H686 0.961 . S
C700 C699 1.502 . S
C701 H687 0.960 . S
C701 H688 0.961 . S
C701 H689 0.959 . S
C701 C699 1.561 . S
C702 C699 1.526 . S
C702 C703 1.396 . S
C702 C707 1.390 . S
C703 C697 1.465 . S
C703 C702 1.396 . S
C703 C704 1.399 . S
C704 H690 0.929 . S
C704 C703 1.399 . S
C704 C705 1.385 . S
C705 H691 0.931 . S
C705 C704 1.385 . S
C705 C706 1.389 . S
C706 C705 1.389 . S
C706 C707 1.387 . S
C707 H692 0.930 . S
C707 C702 1.390 . S
C707 C706 1.387 . S
H708 C720 0.930 . S
H709 C722 0.930 . S
H710 C723 0.930 . S
H711 C727 0.959 . S
H712 C727 0.959 . S
H713 C727 0.961 . S
H714 C728 0.960 . S
H715 C728 0.961 . S
H716 C728 0.959 . S
H717 C731 0.929 . S
H718 C732 0.931 . S
H719 C734 0.930 . S
C720 H708 0.930 . S
C720 C721 1.399 . S
C720 C725 1.399 . S
C721 C720 1.399 . S
C721 C722 1.376 . S
C722 H709 0.930 . S
C722 C721 1.376 . S
C722 C723 1.388 . S
C723 H710 0.930 . S
C723 C722 1.388 . S
C723 C724 1.390 . S
C724 C723 1.390 . S
C724 C725 1.394 . S
C724 C730 1.465 . S
C725 C720 1.399 . S
C725 C724 1.394 . S
C725 C726 1.516 . S
C726 C725 1.516 . S
C726 C727 1.502 . S
C726 C728 1.561 . S
C726 C729 1.526 . S
C727 H711 0.959 . S
C727 H712 0.959 . S
C727 H713 0.961 . S
C727 C726 1.502 . S
C728 H714 0.960 . S
C728 H715 0.961 . S
C728 H716 0.959 . S
C728 C726 1.561 . S
C729 C726 1.526 . S
C729 C730 1.396 . S
C729 C734 1.390 . S
C730 C724 1.465 . S
C730 C729 1.396 . S
C730 C731 1.399 . S
C731 H717 0.929 . S
C731 C730 1.399 . S
C731 C732 1.385 . S
C732 H718 0.931 . S
C732 C731 1.385 . S
C732 C733 1.389 . S
C733 C732 1.389 . S
C733 C734 1.387 . S
C734 H719 0.930 . S
C734 C729 1.390 . S
C734 C733 1.387 . S
H735 C747 0.930 . S
H736 C749 0.930 . S
H737 C750 0.930 . S
H738 C754 0.959 . S
H739 C754 0.959 . S
H740 C754 0.961 . S
H741 C755 0.960 . S
H742 C755 0.961 . S
H743 C755 0.959 . S
H744 C758 0.929 . S
H745 C759 0.931 . S
H746 C761 0.930 . S
C747 H735 0.930 . S
C747 C748 1.399 . S
C747 C752 1.399 . S
C748 C747 1.399 . S
C748 C749 1.376 . S
C749 H736 0.930 . S
C749 C748 1.376 . S
C749 C750 1.388 . S
C750 H737 0.930 . S
C750 C749 1.388 . S
C750 C751 1.390 . S
C751 C750 1.390 . S
C751 C752 1.394 . S
C751 C757 1.465 . S
C752 C747 1.399 . S
C752 C751 1.394 . S
C752 C753 1.516 . S
C753 C752 1.516 . S
C753 C754 1.502 . S
C753 C755 1.561 . S
C753 C756 1.526 . S
C754 H738 0.959 . S
C754 H739 0.959 . S
C754 H740 0.961 . S
C754 C753 1.502 . S
C755 H741 0.960 . S
C755 H742 0.961 . S
C755 H743 0.959 . S
C755 C753 1.561 . S
C756 C753 1.526 . S
C756 C757 1.396 . S
C756 C761 1.390 . S
C757 C751 1.465 . S
C757 C756 1.396 . S
C757 C758 1.399 . S
C758 H744 0.929 . S
C758 C757 1.399 . S
C758 C759 1.385 . S
C759 H745 0.931 . S
C759 C758 1.385 . S
C759 C760 1.389 . S
C760 C759 1.389 . S
C760 C761 1.387 . S
C761 H746 0.930 . S
C761 C756 1.390 . S
C761 C760 1.387 . S
H762 C774 0.930 . S
H763 C776 0.930 . S
H764 C777 0.930 . S
H765 C781 0.959 . S
H766 C781 0.959 . S
H767 C781 0.961 . S
H768 C782 0.960 . S
H769 C782 0.961 . S
H770 C782 0.959 . S
H771 C785 0.929 . S
H772 C786 0.931 . S
H773 C788 0.930 . S
C774 H762 0.930 . S
C774 C775 1.399 . S
C774 C779 1.399 . S
C775 C774 1.399 . S
C775 C776 1.376 . S
C776 H763 0.930 . S
C776 C775 1.376 . S
C776 C777 1.388 . S
C777 H764 0.930 . S
C777 C776 1.388 . S
C777 C778 1.390 . S
C778 C777 1.390 . S
C778 C779 1.394 . S
C778 C784 1.465 . S
C779 C774 1.399 . S
C779 C778 1.394 . S
C779 C780 1.516 . S
C780 C779 1.516 . S
C780 C781 1.502 . S
C780 C782 1.561 . S
C780 C783 1.526 . S
C781 H765 0.959 . S
C781 H766 0.959 . S
C781 H767 0.961 . S
C781 C780 1.502 . S
C782 H768 0.960 . S
C782 H769 0.961 . S
C782 H770 0.959 . S
C782 C780 1.561 . S
C783 C780 1.526 . S
C783 C784 1.396 . S
C783 C788 1.390 . S
C784 C778 1.465 . S
C784 C783 1.396 . S
C784 C785 1.399 . S
C785 H771 0.929 . S
C785 C784 1.399 . S
C785 C786 1.385 . S
C786 H772 0.931 . S
C786 C785 1.385 . S
C786 C787 1.389 . S
C787 C786 1.389 . S
C787 C788 1.387 . S
C788 H773 0.930 . S
C788 C783 1.390 . S
C788 C787 1.387 . S
H789 C801 0.930 . S
H790 C803 0.930 . S
H791 C804 0.930 . S
H792 C808 0.959 . S
H793 C808 0.959 . S
H794 C808 0.961 . S
H795 C809 0.960 . S
H796 C809 0.961 . S
H797 C809 0.959 . S
H798 C812 0.929 . S
H799 C813 0.931 . S
H800 C815 0.930 . S
C801 H789 0.930 . S
C801 C802 1.399 . S
C801 C806 1.399 . S
C802 C801 1.399 . S
C802 C803 1.376 . S
C803 H790 0.930 . S
C803 C802 1.376 . S
C803 C804 1.388 . S
C804 H791 0.930 . S
C804 C803 1.388 . S
C804 C805 1.390 . S
C805 C804 1.390 . S
C805 C806 1.394 . S
C805 C811 1.465 . S
C806 C801 1.399 . S
C806 C805 1.394 . S
C806 C807 1.516 . S
C807 C806 1.516 . S
C807 C808 1.502 . S
C807 C809 1.561 . S
C807 C810 1.526 . S
C808 H792 0.959 . S
C808 H793 0.959 . S
C808 H794 0.961 . S
C808 C807 1.502 . S
C809 H795 0.960 . S
C809 H796 0.961 . S
C809 H797 0.959 . S
C809 C807 1.561 . S
C810 C807 1.526 . S
C810 C811 1.396 . S
C810 C815 1.390 . S
C811 C805 1.465 . S
C811 C810 1.396 . S
C811 C812 1.399 . S
C812 H798 0.929 . S
C812 C811 1.399 . S
C812 C813 1.385 . S
C813 H799 0.931 . S
C813 C812 1.385 . S
C813 C814 1.389 . S
C814 C813 1.389 . S
C814 C815 1.387 . S
C815 H800 0.930 . S
C815 C810 1.390 . S
C815 C814 1.387 . S
C181 C8 1.624 . S
C193 C148 1.563 . S
C208 C22 1.548 . S
C220 C162 1.643 . S
C235 C92 1.640 . S
C247 C36 1.565 . S
C262 C50 1.622 . S
C274 C106 1.564 . S
C289 C120 1.631 . S
C301 C64 1.575 . S
C316 C134 1.548 . S
C328 C78 1.643 . S
C343 C93 0.871 . S
C355 C9 0.869 . S
C370 C107 0.805 . S
C382 C23 0.807 . S
C397 C121 0.797 . S
C409 C37 0.796 . S
C424 C51 0.864 . S
C436 C135 0.861 . S
C451 C65 0.794 . S
C463 C149 0.796 . S
C478 C79 0.780 . S
C490 C163 0.780 . S
C505 C6 1.355 . S
C517 C48 1.397 . S
C532 C20 1.356 . S
C544 C62 1.394 . S
C559 C34 1.428 . S
C571 C76 1.393 . S
C586 C132 1.359 . S
C598 C90 1.389 . S
C613 C146 1.356 . S
C625 C104 1.394 . S
C640 C160 1.427 . S
C652 C118 1.395 . S
C667 C7 1.317 . S
C679 C119 1.362 . S
C694 C133 1.356 . S
C706 C21 1.312 . S
C721 C35 1.331 . S
C733 C147 1.369 . S
C748 C161 1.312 . S
C760 C49 1.357 . S
C775 C63 1.302 . S
C787 C91 1.333 . S
C802 C77 1.370 . S
C814 C105 1.332 . S
