# Generated by pormake.
# Topology wme, (6)-cn, num edge types: 1
# Building blocks:
#     Node 0, Type 0, BuildingBlock: JUFBIX_clean_sbu_0, # of connection points: 6
#     Node 1, Type 0, BuildingBlock: JUFBIX_clean_sbu_0, # of connection points: 6
#     Node 2, Type 0, BuildingBlock: JUFBIX_clean_sbu_0, # of connection points: 6
#     Node 3, Type 0, BuildingBlock: JUFBIX_clean_sbu_0, # of connection points: 6
#     Node 4, Type 0, BuildingBlock: JUFBIX_clean_sbu_0, # of connection points: 6
#     Node 5, Type 0, BuildingBlock: JUFBIX_clean_sbu_0, # of connection points: 6
#     Node 6, Type 0, BuildingBlock: JUFBIX_clean_sbu_0, # of connection points: 6
#     Node 7, Type 0, BuildingBlock: JUFBIX_clean_sbu_0, # of connection points: 6
#     Node 8, Type 0, BuildingBlock: JUFBIX_clean_sbu_0, # of connection points: 6
#     Node 9, Type 0, BuildingBlock: JUFBIX_clean_sbu_0, # of connection points: 6
#     Node 10, Type 0, BuildingBlock: JUFBIX_clean_sbu_0, # of connection points: 6
#     Node 11, Type 0, BuildingBlock: JUFBIX_clean_sbu_0, # of connection points: 6
#     Edge 12, Type (0, 0), BuildingBlock: XIVTED_clean_linker_0, # of connection points: 2
#     Edge 13, Type (0, 0), BuildingBlock: XIVTED_clean_linker_0, # of connection points: 2
#     Edge 14, Type (0, 0), BuildingBlock: XIVTED_clean_linker_0, # of connection points: 2
#     Edge 15, Type (0, 0), BuildingBlock: XIVTED_clean_linker_0, # of connection points: 2
#     Edge 16, Type (0, 0), BuildingBlock: XIVTED_clean_linker_0, # of connection points: 2
#     Edge 17, Type (0, 0), BuildingBlock: XIVTED_clean_linker_0, # of connection points: 2
#     Edge 18, Type (0, 0), BuildingBlock: XIVTED_clean_linker_0, # of connection points: 2
#     Edge 19, Type (0, 0), BuildingBlock: XIVTED_clean_linker_0, # of connection points: 2
#     Edge 20, Type (0, 0), BuildingBlock: XIVTED_clean_linker_0, # of connection points: 2
#     Edge 21, Type (0, 0), BuildingBlock: XIVTED_clean_linker_0, # of connection points: 2
#     Edge 22, Type (0, 0), BuildingBlock: XIVTED_clean_linker_0, # of connection points: 2
#     Edge 23, Type (0, 0), BuildingBlock: XIVTED_clean_linker_0, # of connection points: 2
#     Edge 24, Type (0, 0), BuildingBlock: XIVTED_clean_linker_0, # of connection points: 2
#     Edge 25, Type (0, 0), BuildingBlock: XIVTED_clean_linker_0, # of connection points: 2
#     Edge 26, Type (0, 0), BuildingBlock: XIVTED_clean_linker_0, # of connection points: 2
#     Edge 27, Type (0, 0), BuildingBlock: XIVTED_clean_linker_0, # of connection points: 2
#     Edge 28, Type (0, 0), BuildingBlock: XIVTED_clean_linker_0, # of connection points: 2
#     Edge 29, Type (0, 0), BuildingBlock: XIVTED_clean_linker_0, # of connection points: 2
#     Edge 30, Type (0, 0), BuildingBlock: XIVTED_clean_linker_0, # of connection points: 2
#     Edge 31, Type (0, 0), BuildingBlock: XIVTED_clean_linker_0, # of connection points: 2
#     Edge 32, Type (0, 0), BuildingBlock: XIVTED_clean_linker_0, # of connection points: 2
#     Edge 33, Type (0, 0), BuildingBlock: XIVTED_clean_linker_0, # of connection points: 2
#     Edge 34, Type (0, 0), BuildingBlock: XIVTED_clean_linker_0, # of connection points: 2
#     Edge 35, Type (0, 0), BuildingBlock: XIVTED_clean_linker_0, # of connection points: 2
#     Edge 36, Type (0, 0), BuildingBlock: XIVTED_clean_linker_0, # of connection points: 2
#     Edge 37, Type (0, 0), BuildingBlock: XIVTED_clean_linker_0, # of connection points: 2
#     Edge 38, Type (0, 0), BuildingBlock: XIVTED_clean_linker_0, # of connection points: 2
#     Edge 39, Type (0, 0), BuildingBlock: XIVTED_clean_linker_0, # of connection points: 2
#     Edge 40, Type (0, 0), BuildingBlock: XIVTED_clean_linker_0, # of connection points: 2
#     Edge 41, Type (0, 0), BuildingBlock: XIVTED_clean_linker_0, # of connection points: 2
#     Edge 42, Type (0, 0), BuildingBlock: XIVTED_clean_linker_0, # of connection points: 2
#     Edge 43, Type (0, 0), BuildingBlock: XIVTED_clean_linker_0, # of connection points: 2
#     Edge 44, Type (0, 0), BuildingBlock: XIVTED_clean_linker_0, # of connection points: 2
#     Edge 45, Type (0, 0), BuildingBlock: XIVTED_clean_linker_0, # of connection points: 2
#     Edge 46, Type (0, 0), BuildingBlock: XIVTED_clean_linker_0, # of connection points: 2
#     Edge 47, Type (0, 0), BuildingBlock: XIVTED_clean_linker_0, # of connection points: 2
# Relax obj value: 0.306
# Max RMSD: 0.231
# Mean RMSD: 0.231
data_MOF--net-wme--node1-JUFBIX_clean_sbu_0--edge1-XIVTED_clean_linker_0
_symmetry_space_group_name_H-M    P1
_symmetry_Int_Tables_number       1
_symmetry_cell_setting            triclinic
loop_
_symmetry_equiv_pos_as_xyz
'x, y, z'
_cell_length_a     33.455576
_cell_length_b     33.469265
_cell_length_c     55.717986
_cell_angle_alpha  89.942677
_cell_angle_beta   89.997534
_cell_angle_gamma 120.10186
loop_
_atom_site_label
_atom_site_type_symbol
_atom_site_fract_x
_atom_site_fract_y
_atom_site_fract_z
_atom_type_partial_charge
Co0 Co 0.18667 0.35543 0.11492 0.0
C1 C 0.21376 0.31254 0.08122 0.0
Co2 Co 0.21601 0.31579 0.13109 0.0
C3 C 0.16458 0.42795 0.11197 0.0
C4 C 0.13471 0.37999 0.08301 0.0
N5 N 0.16265 0.39014 0.10223 0.0
N6 N 0.13846 0.44152 0.09983 0.0
C7 C 0.11974 0.41147 0.0815 0.0
H8 H 0.18317 0.44396 0.12832 0.0
H9 H 0.12454 0.3506 0.07136 0.0
C10 C 0.19021 0.35714 0.16525 0.0
N11 N 0.23728 0.27893 0.14397 0.0
C12 C 0.22341 0.23578 0.13626 0.0
C13 C 0.26125 0.2836 0.16427 0.0
N14 N 0.23697 0.21297 0.15097 0.0
C15 C 0.26077 0.24273 0.16875 0.0
C16 C 0.28127 0.40656 0.1226 0.0
O17 O 0.17486 0.36903 0.14732 0.0
O18 O 0.21027 0.33414 0.1617 0.0
O19 O 0.27763 0.36829 0.12912 0.0
O20 O 0.24553 0.4076 0.1159 0.0
O21 O 0.22207 0.29723 0.10021 0.0
H22 H 0.27584 0.31369 0.17576 0.0
H23 H 0.20076 0.22008 0.12103 0.0
O24 O 0.19906 0.34099 0.08291 0.0
O25 O 0.12782 0.30366 0.11413 0.0
O26 O 0.15388 0.26439 0.13339 0.0
C27 C 0.1203 0.26672 0.12428 0.0
H28 H 0.09647 0.41183 0.06812 0.0
H29 H 0.27544 0.23501 0.18416 0.0
Co30 Co 0.84754 0.15976 0.61931 0.0
C31 C 0.83914 0.18746 0.66602 0.0
Co32 Co 0.88013 0.2347 0.62475 0.0
C33 C 0.82969 0.0652 0.61573 0.0
C34 C 0.76841 0.0698 0.61878 0.0
N35 N 0.81483 0.09593 0.61666 0.0
N36 N 0.79429 0.02123 0.61716 0.0
C37 C 0.75578 0.02419 0.61891 0.0
H38 H 0.86576 0.07487 0.615 0.0
H39 H 0.74496 0.08272 0.62161 0.0
C40 C 0.89265 0.20786 0.57862 0.0
N41 N 0.90937 0.29806 0.6277 0.0
C42 C 0.88837 0.32176 0.63417 0.0
C43 C 0.95116 0.3302 0.6194 0.0
N44 N 0.91431 0.36718 0.62934 0.0
C45 C 0.95423 0.37282 0.62029 0.0
C46 C 0.93645 0.19744 0.63436 0.0
O47 O 0.86972 0.16686 0.58688 0.0
O48 O 0.89818 0.24134 0.5918 0.0
O49 O 0.93555 0.23499 0.6331 0.0
O50 O 0.90021 0.15942 0.62977 0.0
O51 O 0.86299 0.22801 0.65762 0.0
H52 H 0.97615 0.32268 0.61144 0.0
H53 H 0.85281 0.30532 0.64012 0.0
O54 O 0.82713 0.15316 0.65211 0.0
O55 O 0.79503 0.16059 0.60851 0.0
O56 O 0.82398 0.23354 0.6164 0.0
C57 C 0.79033 0.19562 0.60937 0.0
H58 H 0.72116 0.99559 0.62184 0.0
H59 H 0.98237 0.40481 0.61333 0.0
Co60 Co 0.649 0.85049 0.12558 0.0
C61 C 0.6871 0.91705 0.08925 0.0
Co62 Co 0.68829 0.92161 0.13914 0.0
C63 C 0.57817 0.75387 0.12363 0.0
C64 C 0.62883 0.77305 0.09589 0.0
N65 N 0.61638 0.79037 0.11442 0.0
N66 N 0.56657 0.71439 0.11168 0.0
C67 C 0.59836 0.72642 0.09417 0.0
H68 H 0.56 0.75607 0.13919 0.0
H69 H 0.65874 0.79295 0.08461 0.0
C70 C 0.65218 0.85817 0.17593 0.0
N71 N 0.72332 0.98149 0.15003 0.0
C72 C 0.76444 0.01205 0.14048 0.0
C73 C 0.71996 0.00188 0.17024 0.0
N74 N 0.78727 0.05029 0.15389 0.0
C75 C 0.75978 0.04425 0.17281 0.0
C76 C 0.5955 0.89088 0.13209 0.0
O77 O 0.63844 0.82856 0.15895 0.0
O78 O 0.6737 0.90069 0.17064 0.0
O79 O 0.63361 0.92695 0.13746 0.0
O80 O 0.59519 0.85394 0.12659 0.0
O81 O 0.70327 0.9431 0.10736 0.0
H82 H 0.69184 0.98591 0.18298 0.0
H83 H 0.77921 0.00483 0.12494 0.0
O84 O 0.66026 0.87386 0.09257 0.0
O85 O 0.70253 0.84666 0.12467 0.0
O86 O 0.74224 0.91494 0.14107 0.0
C87 C 0.74021 0.87845 0.13305 0.0
H88 H 0.59937 0.70326 0.08096 0.0
H89 H 0.7686 0.06783 0.18776 0.0
Co90 Co 0.82806 0.67508 0.62635 0.0
C91 C 0.79707 0.63864 0.67279 0.0
Co92 Co 0.75317 0.63218 0.63074 0.0
C93 C 0.92325 0.75225 0.6229 0.0
C94 C 0.9178 0.68655 0.62884 0.0
N95 N 0.89212 0.70674 0.62483 0.0
N96 N 0.96708 0.76081 0.62544 0.0
C97 C 0.96353 0.71942 0.62906 0.0
H98 H 0.91389 0.77862 0.62051 0.0
H99 H 0.90425 0.65035 0.63275 0.0
C100 C 0.78193 0.67047 0.5848 0.0
N101 N 0.6896 0.59789 0.63242 0.0
C102 C 0.66478 0.55246 0.63741 0.0
C103 C 0.65869 0.60898 0.62388 0.0
N104 N 0.62 0.53405 0.63136 0.0
C105 C 0.6158 0.56969 0.62313 0.0
C106 C 0.78918 0.72576 0.63977 0.0
O107 O 0.82251 0.69139 0.59375 0.0
O108 O 0.74856 0.64124 0.59758 0.0
O109 O 0.7519 0.68731 0.63733 0.0
O110 O 0.82772 0.72767 0.63701 0.0
O111 O 0.75732 0.62376 0.66376 0.0
H112 H 0.66741 0.64246 0.61673 0.0
H113 H 0.68014 0.53226 0.64309 0.0
O114 O 0.83244 0.65934 0.65928 0.0
O115 O 0.82823 0.62245 0.61524 0.0
O116 O 0.75578 0.57717 0.62415 0.0
C117 C 0.79384 0.58225 0.61674 0.0
H118 H 0.99179 0.7135 0.63311 0.0
H119 H 0.58481 0.56705 0.61552 0.0
Co120 Co 0.15231 0.81236 0.12406 0.0
C121 C 0.08453 0.78585 0.08887 0.0
Co122 Co 0.08204 0.78279 0.13855 0.0
C123 C 0.24771 0.83551 0.12182 0.0
C124 C 0.2294 0.86568 0.09307 0.0
N125 N 0.21168 0.83734 0.11218 0.0
N126 N 0.28734 0.86202 0.10964 0.0
C127 C 0.27589 0.88094 0.09147 0.0
H128 H 0.2452 0.81645 0.138 0.0
H129 H 0.21001 0.87569 0.08145 0.0
C130 C 0.14674 0.80724 0.17423 0.0
N131 N 0.02297 0.76065 0.15029 0.0
C132 C 0.99399 0.77398 0.14151 0.0
C133 C 0.0025 0.73719 0.17059 0.0
N134 N 0.95672 0.76061 0.15551 0.0
C135 C 0.96173 0.73754 0.17399 0.0
C136 C 0.10841 0.71785 0.13055 0.0
O137 O 0.17567 0.8233 0.15697 0.0
O138 O 0.10401 0.78759 0.16959 0.0
O139 O 0.07328 0.72124 0.1363 0.0
O140 O 0.14606 0.75386 0.12503 0.0
O141 O 0.0595 0.77754 0.10728 0.0
H142 H 0.01752 0.72327 0.18285 0.0
H143 H 0.00189 0.79645 0.1261 0.0
O144 O 0.12751 0.80043 0.09155 0.0
O145 O 0.15902 0.87106 0.12313 0.0
O146 O 0.09221 0.84485 0.14092 0.0
C147 C 0.1288 0.87849 0.13227 0.0
H148 H 0.29942 0.90428 0.07805 0.0
H149 H 0.93858 0.72353 0.18919 0.0
Co150 Co 0.31562 0.14276 0.62445 0.0
C151 C 0.35558 0.15213 0.67021 0.0
Co152 Co 0.35871 0.11086 0.62906 0.0
C153 C 0.23969 0.16188 0.62009 0.0
C154 C 0.30548 0.2215 0.62716 0.0
N155 N 0.28485 0.17567 0.62285 0.0
N156 N 0.23177 0.19753 0.62239 0.0
C157 C 0.27317 0.23499 0.62672 0.0
H158 H 0.2131 0.12633 0.6172 0.0
H159 H 0.34155 0.24365 0.63156 0.0
C160 C 0.31698 0.09825 0.58378 0.0
N161 N 0.39268 0.08133 0.63085 0.0
C162 C 0.43827 0.10225 0.63548 0.0
C163 C 0.38127 0.03893 0.62283 0.0
N164 N 0.45648 0.07564 0.6297 0.0
C165 C 0.42056 0.03539 0.62202 0.0
C166 C 0.26501 0.05412 0.63983 0.0
O167 O 0.29833 0.12033 0.59231 0.0
O168 O 0.34568 0.09329 0.59653 0.0
O169 O 0.30359 0.05533 0.63799 0.0
O170 O 0.26296 0.09031 0.63565 0.0
O171 O 0.37141 0.12789 0.66152 0.0
H172 H 0.34754 0.01378 0.61611 0.0
H173 H 0.45864 0.1381 0.64071 0.0
O174 O 0.33195 0.16348 0.65694 0.0
O175 O 0.36836 0.19515 0.61281 0.0
O176 O 0.41319 0.1669 0.62009 0.0
C177 C 0.40828 0.20012 0.61306 0.0
H178 H 0.27933 0.26926 0.63075 0.0
H179 H 0.42291 0.00665 0.61478 0.0
Co180 Co 0.68078 0.82104 0.39981 0.0
C181 C 0.64505 0.79764 0.35328 0.0
Co182 Co 0.63411 0.74618 0.39426 0.0
C183 C 0.74425 0.91848 0.38942 0.0
C184 C 0.72018 0.90547 0.42574 0.0
N185 N 0.71814 0.88401 0.40492 0.0
N186 N 0.76203 0.96055 0.39978 0.0
C187 C 0.74709 0.95229 0.42267 0.0
H188 H 0.74884 0.91289 0.37074 0.0
H189 H 0.70213 0.88823 0.44202 0.0
C190 C 0.67236 0.76759 0.43999 0.0
N191 N 0.5939 0.68249 0.39029 0.0
C192 C 0.54723 0.66016 0.38853 0.0
C193 C 0.6041 0.64838 0.39188 0.0
N194 N 0.52777 0.61367 0.3894 0.0
C195 C 0.56376 0.60627 0.39129 0.0
C196 C 0.72726 0.77771 0.38484 0.0
O197 O 0.6932 0.80864 0.43181 0.0
O198 O 0.64216 0.73545 0.42696 0.0
O199 O 0.68769 0.74107 0.38622 0.0
O200 O 0.7309 0.81661 0.38911 0.0
O201 O 0.62697 0.75669 0.36145 0.0
H202 H 0.63845 0.6536 0.39438 0.0
H203 H 0.5276 0.67772 0.3878 0.0
O204 O 0.66855 0.83154 0.36738 0.0
O205 O 0.63091 0.82636 0.41062 0.0
O206 O 0.58245 0.75407 0.40235 0.0
C207 C 0.58984 0.79326 0.4094 0.0
H208 H 0.75507 0.97823 0.43632 0.0
H209 H 0.56138 0.57292 0.39277 0.0
Co210 Co 0.85217 0.68258 0.89729 0.0
C211 C 0.84477 0.64798 0.85095 0.0
Co212 Co 0.88278 0.63819 0.89294 0.0
C213 C 0.82163 0.74773 0.88591 0.0
C214 C 0.80022 0.71708 0.92071 0.0
N215 N 0.82499 0.71841 0.90131 0.0
N216 N 0.79531 0.76432 0.8949 0.0
C217 C 0.78198 0.7452 0.91683 0.0
H218 H 0.83734 0.7559 0.86827 0.0
H219 H 0.79515 0.69634 0.93655 0.0
C220 C 0.89484 0.67505 0.9386 0.0
N221 N 0.90803 0.60014 0.89003 0.0
C222 C 0.88468 0.55456 0.88498 0.0
C223 C 0.94971 0.60863 0.89778 0.0
N224 N 0.90925 0.53367 0.89015 0.0
C225 C 0.95058 0.56792 0.89788 0.0
C226 C 0.94326 0.73114 0.88407 0.0
O227 O 0.8739 0.69475 0.92995 0.0
O228 O 0.89912 0.64619 0.92574 0.0
O229 O 0.94106 0.69207 0.88575 0.0
O230 O 0.9073 0.73393 0.88764 0.0
O231 O 0.86775 0.63097 0.86009 0.0
H232 H 0.97631 0.64141 0.9048 0.0
H233 H 0.8492 0.53661 0.87894 0.0
O234 O 0.83214 0.67063 0.86428 0.0
O235 O 0.79668 0.63159 0.90693 0.0
O236 O 0.82346 0.58516 0.90011 0.0
C237 C 0.79017 0.59108 0.90607 0.0
H238 H 0.76105 0.75155 0.92934 0.0
H239 H 0.97826 0.56354 0.90495 0.0
Co240 Co 0.17364 0.85589 0.39692 0.0
C241 C 0.20783 0.85384 0.35053 0.0
Co242 Co 0.24926 0.88975 0.39306 0.0
C243 C 0.07618 0.83389 0.39989 0.0
C244 C 0.08532 0.77676 0.39119 0.0
N245 N 0.1091 0.82207 0.39699 0.0
N246 N 0.03314 0.79739 0.39644 0.0
C247 C 0.03909 0.76159 0.39104 0.0
H248 H 0.08363 0.8686 0.40387 0.0
H249 H 0.10057 0.7561 0.38625 0.0
C250 C 0.21649 0.89476 0.43893 0.0
N251 N 0.31314 0.91909 0.39254 0.0
C252 C 0.33758 0.89859 0.38647 0.0
C253 C 0.34396 0.9591 0.40305 0.0
N254 N 0.38194 0.92289 0.39369 0.0
C255 C 0.38631 0.96147 0.40386 0.0
C256 C 0.21266 0.94725 0.38582 0.0
O257 O 0.17628 0.87416 0.42962 0.0
O258 O 0.25108 0.90138 0.4264 0.0
O259 O 0.25042 0.94665 0.38709 0.0
O260 O 0.1743 0.90978 0.38771 0.0
O261 O 0.24738 0.87881 0.35979 0.0
H262 H 0.33536 0.98298 0.41142 0.0
H263 H 0.32194 0.86414 0.37905 0.0
O264 O 0.17215 0.83907 0.36378 0.0
O265 O 0.17364 0.80257 0.40701 0.0
O266 O 0.2469 0.83221 0.39932 0.0
C267 C 0.20891 0.79824 0.40607 0.0
H268 H 0.01204 0.72732 0.38601 0.0
H269 H 0.41697 0.98803 0.4127 0.0
Co270 Co 0.31655 0.17165 0.89315 0.0
C271 C 0.35575 0.19536 0.84697 0.0
Co272 Co 0.35823 0.24629 0.88553 0.0
C273 C 0.24033 0.07592 0.89875 0.0
C274 C 0.30734 0.08272 0.8974 0.0
N275 N 0.28582 0.1078 0.89766 0.0
N276 N 0.23317 0.03235 0.89941 0.0
C277 C 0.27536 0.03681 0.89867 0.0
H278 H 0.21306 0.08435 0.89826 0.0
H279 H 0.344 0.0964 0.89504 0.0
C280 C 0.31682 0.22391 0.93117 0.0
N281 N 0.39205 0.30942 0.88082 0.0
C282 C 0.43752 0.33318 0.87568 0.0
C283 C 0.38128 0.34172 0.88718 0.0
N284 N 0.45634 0.3788 0.87967 0.0
C285 C 0.42086 0.38448 0.8866 0.0
C286 C 0.26477 0.20608 0.87379 0.0
O287 O 0.30003 0.18198 0.9246 0.0
O288 O 0.34447 0.25606 0.91723 0.0
O289 O 0.30287 0.24427 0.87466 0.0
O290 O 0.26333 0.16918 0.88067 0.0
O291 O 0.37124 0.23658 0.85393 0.0
H292 H 0.34789 0.33431 0.89388 0.0
H293 H 0.45749 0.31675 0.87156 0.0
O294 O 0.33236 0.16223 0.86142 0.0
O295 O 0.37008 0.17478 0.90574 0.0
O296 O 0.41325 0.24716 0.89624 0.0
C297 C 0.40962 0.2103 0.90458 0.0
H298 H 0.2826 0.00876 0.89755 0.0
H299 H 0.4238 0.41663 0.89254 0.0
Co300 Co 0.11633 0.29803 0.38272 0.0
C301 C 0.12703 0.34831 0.33983 0.0
Co302 Co 0.09449 0.34968 0.38395 0.0
C303 C 0.15846 0.2403 0.38956 0.0
C304 C 0.12412 0.23119 0.35584 0.0
N305 N 0.13279 0.25384 0.37697 0.0
N306 N 0.16685 0.21115 0.37668 0.0
C307 C 0.14517 0.2052 0.35558 0.0
H308 H 0.17163 0.25237 0.40744 0.0
H309 H 0.10438 0.23409 0.34126 0.0
C310 C 0.08176 0.29939 0.42689 0.0
N311 N 0.07854 0.39441 0.38844 0.0
C312 C 0.10654 0.44035 0.38605 0.0
C313 C 0.03933 0.38923 0.39818 0.0
N314 N 0.08696 0.46425 0.39444 0.0
C315 C 0.0444 0.43216 0.4019 0.0
C316 C 0.02376 0.26474 0.37084 0.0
O317 O 0.0962 0.27638 0.41511 0.0
O318 O 0.08162 0.33336 0.41677 0.0
O319 O 0.03161 0.30492 0.37628 0.0
O320 O 0.05651 0.25615 0.3718 0.0
O321 O 0.10667 0.366 0.35098 0.0
H322 H 0.00993 0.35654 0.40342 0.0
H323 H 0.14178 0.45609 0.37969 0.0
O324 O 0.13537 0.32001 0.35077 0.0
O325 O 0.17685 0.33988 0.39346 0.0
O326 O 0.15819 0.39378 0.39153 0.0
C327 C 0.18867 0.38223 0.39495 0.0
H328 H 0.14406 0.18296 0.34118 0.0
H329 H 0.01931 0.43913 0.41022 0.0
Co330 Co 0.82402 0.12901 0.89067 0.0
C331 C 0.80308 0.14512 0.84446 0.0
Co332 Co 0.75031 0.10637 0.88538 0.0
C333 C 0.91841 0.15066 0.88104 0.0
C334 C 0.9093 0.17329 0.91552 0.0
N335 N 0.88596 0.14987 0.89578 0.0
N336 N 0.96104 0.17442 0.89076 0.0
C337 C 0.95538 0.18851 0.91246 0.0
H338 H 0.91121 0.13572 0.86324 0.0
H339 H 0.89391 0.18012 0.9309 0.0
C340 C 0.76918 0.08648 0.9311 0.0
N341 N 0.68818 0.08735 0.88148 0.0
C342 C 0.6697 0.11494 0.87924 0.0
C343 C 0.65181 0.04487 0.88559 0.0
N344 N 0.6236 0.09189 0.88266 0.0
C345 C 0.61209 0.04757 0.88636 0.0
C346 C 0.77424 0.03985 0.87455 0.0
O347 O 0.81057 0.10666 0.92335 0.0
O348 O 0.73763 0.08414 0.91751 0.0
O349 O 0.74028 0.04706 0.87517 0.0
O350 O 0.81409 0.07156 0.88089 0.0
O351 O 0.76257 0.12774 0.85314 0.0
H352 H 0.65433 0.0146 0.88964 0.0
H353 H 0.69006 0.15202 0.8772 0.0
O354 O 0.83595 0.14951 0.85785 0.0
O355 O 0.83474 0.18736 0.90014 0.0
O356 O 0.76215 0.16633 0.8955 0.0
C357 C 0.80307 0.19743 0.90063 0.0
H358 H 0.98272 0.20853 0.92515 0.0
H359 H 0.57787 0.01955 0.89071 0.0
H360 H 0.17778 0.94719 0.10059 0.0
H361 H 0.21001 0.14991 0.18694 0.0
H362 H 0.10381 0.91894 0.1676 0.0
H363 H 0.23058 0.16661 0.11043 0.0
H364 H 0.17896 0.0663 0.18219 0.0
H365 H 0.20393 0.02908 0.10539 0.0
C366 C 0.1666 0.9583 0.1162 0.0
C367 C 0.13852 0.92644 0.1337 0.0
C368 C 0.19034 0.08839 0.16649 0.0
C369 C 0.16926 0.0202 0.13962 0.0
C370 C 0.20854 0.13596 0.16923 0.0
C371 C 0.22295 0.16491 0.14903 0.0
C372 C 0.18739 0.07011 0.14345 0.0
C373 C 0.21967 0.14528 0.1264 0.0
C374 C 0.18159 0.005 0.11895 0.0
C375 C 0.1251 0.94253 0.15362 0.0
N376 N 0.20245 0.09915 0.12422 0.0
N377 N 0.14113 0.98859 0.15623 0.0
H378 H 0.21564 0.26649 0.61086 0.0
H379 H 0.94837 0.12398 0.6433 0.0
H380 H 0.14898 0.12603 0.63674 0.0
H381 H 0.02393 0.27165 0.63226 0.0
H382 H 0.0208 0.1232 0.64116 0.0
H383 H 0.14427 0.26759 0.61725 0.0
C384 C 0.18588 0.23583 0.61788 0.0
C385 C 0.1883 0.19624 0.62347 0.0
C386 C 0.02158 0.15582 0.63951 0.0
C387 C 0.10642 0.19717 0.63079 0.0
C388 C 0.98032 0.15636 0.64081 0.0
C389 C 0.98022 0.19794 0.63774 0.0
C390 C 0.06283 0.19707 0.63486 0.0
C391 C 0.02249 0.23885 0.63468 0.0
C392 C 0.14519 0.23651 0.62158 0.0
C393 C 0.14846 0.15712 0.63202 0.0
N394 N 0.06213 0.2373 0.63302 0.0
N395 N 0.10905 0.1586 0.6355 0.0
H396 H 0.8255 0.09142 0.11211 0.0
H397 H 0.08384 0.20269 0.16044 0.0
H398 H 0.85617 0.08616 0.18672 0.0
H399 H 0.04743 0.24787 0.0957 0.0
H400 H 0.00124 0.15023 0.16842 0.0
H401 H 0.90793 0.14179 0.10412 0.0
C402 C 0.84981 0.10162 0.12683 0.0
C403 C 0.83441 0.08527 0.15008 0.0
C404 C 0.01154 0.17147 0.1524 0.0
C405 C 0.92849 0.14154 0.14112 0.0
C406 C 0.0585 0.20084 0.1477 0.0
C407 C 0.07222 0.22951 0.12741 0.0
C408 C 0.97851 0.17051 0.13648 0.0
C409 C 0.03818 0.22638 0.11159 0.0
C410 C 0.89669 0.13006 0.1223 0.0
C411 C 0.86694 0.09885 0.16864 0.0
N412 N 0.99289 0.19744 0.11647 0.0
N413 N 0.91273 0.12597 0.16372 0.0
H414 H 0.71443 0.7376 0.63591 0.0
H415 H 0.86455 0.01299 0.63639 0.0
H416 H 0.86182 0.81223 0.64816 0.0
H417 H 0.72817 0.93462 0.60564 0.0
H418 H 0.8627 0.94059 0.64565 0.0
H419 H 0.71622 0.81103 0.63174 0.0
C420 C 0.74701 0.76942 0.63817 0.0
C421 C 0.78811 0.76892 0.64208 0.0
C422 C 0.83327 0.9394 0.63684 0.0
C423 C 0.79052 0.85277 0.63695 0.0
C424 C 0.83452 0.98066 0.63131 0.0
C425 C 0.79633 0.97975 0.62033 0.0
C426 C 0.7935 0.89721 0.63144 0.0
C427 C 0.758 0.93684 0.61448 0.0
C428 C 0.74809 0.81128 0.63556 0.0
C429 C 0.82938 0.81115 0.64488 0.0
N430 N 0.75747 0.89728 0.62021 0.0
N431 N 0.82963 0.85151 0.64204 0.0
H432 H 0.91747 0.76375 0.11413 0.0
H433 H 0.8048 0.9051 0.1689 0.0
H434 H 0.92252 0.79295 0.1897 0.0
H435 H 0.76193 0.83033 0.10207 0.0
H436 H 0.85893 0.87632 0.17494 0.0
H437 H 0.86893 0.7982 0.10779 0.0
C438 C 0.90779 0.77706 0.12941 0.0
C439 C 0.92347 0.77527 0.15246 0.0
C440 C 0.83795 0.86673 0.15886 0.0
C441 C 0.86897 0.8156 0.14538 0.0
C442 C 0.80767 0.8836 0.15527 0.0
C443 C 0.7791 0.86997 0.13497 0.0
C444 C 0.83985 0.83678 0.14182 0.0
C445 C 0.78338 0.84149 0.11799 0.0
C446 C 0.88032 0.79683 0.12581 0.0
C447 C 0.91037 0.79313 0.17173 0.0
N448 N 0.8131 0.82578 0.12181 0.0
N449 N 0.88403 0.81297 0.16775 0.0
H450 H 0.97668 0.84259 0.64038 0.0
H451 H 0.25256 0.96694 0.63845 0.0
H452 H 0.05347 0.77876 0.6153 0.0
H453 H 0.17874 0.04099 0.64789 0.0
H454 H 0.17877 0.89486 0.63612 0.0
H455 H 0.04975 0.91424 0.64737 0.0
C456 C 0.0088 0.84377 0.63609 0.0
C457 C 0.00902 0.80458 0.62738 0.0
C458 C 0.17876 0.92686 0.63892 0.0
C459 C 0.09242 0.88573 0.63587 0.0
C460 C 0.22087 0.96794 0.64049 0.0
C461 C 0.22173 0.00999 0.64314 0.0
C462 C 0.13734 0.92793 0.64006 0.0
C463 C 0.1796 0.0093 0.64563 0.0
C464 C 0.05046 0.88447 0.64032 0.0
C465 C 0.05171 0.80787 0.62244 0.0
N466 N 0.13903 0.96889 0.64383 0.0
N467 N 0.09165 0.84763 0.62685 0.0
H468 H 0.01749 0.86659 0.38326 0.0
H469 H 0.74205 0.70505 0.39264 0.0
H470 H 0.94914 0.72496 0.40725 0.0
H471 H 0.81081 0.84799 0.37066 0.0
H472 H 0.81747 0.70974 0.39515 0.0
H473 H 0.94179 0.86 0.37751 0.0
C474 C 0.9866 0.83436 0.3876 0.0
C475 C 0.98957 0.79623 0.39561 0.0
C476 C 0.81595 0.73992 0.38952 0.0
C477 C 0.90294 0.78798 0.38864 0.0
C478 C 0.77287 0.73704 0.38782 0.0
C479 C 0.77025 0.77622 0.38157 0.0
C480 C 0.85646 0.78225 0.38492 0.0
C481 C 0.81132 0.81702 0.37576 0.0
C482 C 0.94338 0.83037 0.38407 0.0
C483 C 0.94838 0.755 0.40069 0.0
N484 N 0.8527 0.81908 0.37777 0.0
N485 N 0.90683 0.75192 0.39706 0.0
H486 H 0.95678 0.81422 0.86886 0.0
H487 H 0.21586 0.94949 0.91626 0.0
H488 H 0.03013 0.74651 0.89358 0.0
H489 H 0.15309 0.01658 0.87843 0.0
H490 H 0.14689 0.87505 0.90912 0.0
H491 H 0.02797 0.88858 0.87178 0.0
C492 C 0.98814 0.81499 0.87452 0.0
C493 C 0.98762 0.77425 0.88114 0.0
C494 C 0.14815 0.90599 0.90234 0.0
C495 C 0.06886 0.85925 0.88498 0.0
C496 C 0.18747 0.94853 0.90646 0.0
C497 C 0.19038 0.98928 0.89776 0.0
C498 C 0.11114 0.90405 0.88955 0.0
C499 C 0.15217 0.98609 0.88561 0.0
C500 C 0.02869 0.85746 0.87627 0.0
C501 C 0.02913 0.77711 0.88826 0.0
N502 N 0.11408 0.9441 0.8818 0.0
N503 N 0.06804 0.81906 0.8903 0.0
H504 H 0.23301 0.20547 0.3523 0.0
H505 H 0.146 0.96154 0.40401 0.0
H506 H 0.15008 0.15922 0.41635 0.0
H507 H 0.28013 0.03303 0.37015 0.0
H508 H 0.14671 0.03427 0.40738 0.0
H509 H 0.25411 0.14573 0.35815 0.0
C510 C 0.22061 0.18356 0.36804 0.0
C511 C 0.18971 0.18669 0.38385 0.0
C512 C 0.17617 0.03419 0.39935 0.0
C513 C 0.21208 0.11786 0.39017 0.0
C514 C 0.17548 0.99258 0.39704 0.0
C515 C 0.21275 0.99122 0.38636 0.0
C516 C 0.21389 0.07475 0.39046 0.0
C517 C 0.25052 0.03267 0.37822 0.0
C518 C 0.23248 0.14955 0.37134 0.0
C519 C 0.17412 0.1577 0.40391 0.0
N520 N 0.24984 0.07289 0.38007 0.0
N521 N 0.18453 0.12354 0.4062 0.0
H522 H 0.18287 0.1307 0.86114 0.0
H523 H 0.04253 0.25375 0.89387 0.0
H524 H 0.24752 0.27784 0.87216 0.0
H525 H 0.97781 0.11615 0.8647 0.0
H526 H 0.11795 0.26549 0.88201 0.0
H527 H 0.10802 0.12625 0.85795 0.0
C528 C 0.18139 0.16222 0.86248 0.0
C529 C 0.22133 0.20463 0.8673 0.0
C530 C 0.08731 0.23295 0.8778 0.0
C531 C 0.13569 0.19965 0.864 0.0
C532 C 0.04436 0.22621 0.88469 0.0
C533 C 0.00425 0.1837 0.88056 0.0
C534 C 0.09023 0.19653 0.86712 0.0
C535 C 0.00811 0.14932 0.86825 0.0
C536 C 0.13863 0.15966 0.86061 0.0
C537 C 0.21752 0.24441 0.86861 0.0
N538 N 0.05055 0.15615 0.86235 0.0
N539 N 0.17527 0.24082 0.86744 0.0
H540 H 0.9415 0.25158 0.38863 0.0
H541 H 0.82183 0.98147 0.36256 0.0
H542 H -0.00011 0.18864 0.34392 0.0
H543 H 0.76884 0.042 0.41253 0.0
H544 H 0.87778 0.05887 0.34831 0.0
H545 H 0.86866 0.17757 0.38994 0.0
C546 C 0.93847 0.22261 0.37847 0.0
C547 C 0.97679 0.22588 0.36643 0.0
C548 C 0.85354 0.0552 0.36221 0.0
C549 C 0.89435 0.14127 0.36818 0.0
C550 C 0.82148 0.01095 0.37029 0.0
C551 C 0.7913 0.00527 0.38914 0.0
C552 C 0.85546 0.09404 0.37309 0.0
C553 C 0.7924 0.04482 0.39847 0.0
C554 C 0.89711 0.18026 0.37939 0.0
C555 C 0.97125 0.18727 0.3537 0.0
N556 N 0.82432 0.08751 0.39056 0.0
N557 N 0.93108 0.14642 0.35519 0.0
H558 H 0.8481 0.83233 0.8633 0.0
H559 H 0.69746 0.95436 0.88072 0.0
H560 H 0.71904 0.77158 0.90199 0.0
H561 H 0.83791 0.02244 0.85481 0.0
H562 H 0.69546 0.88009 0.87849 0.0
H563 H 0.83515 0.89457 0.85004 0.0
C564 C 0.81666 0.83164 0.86865 0.0
C565 C 0.78511 0.79734 0.8842 0.0
C566 C 0.72636 0.91123 0.87284 0.0
C567 C 0.77023 0.86854 0.86933 0.0
C568 C 0.72737 0.95346 0.87397 0.0
C569 C 0.76816 0.99442 0.86834 0.0
C570 C 0.76633 0.9103 0.8659 0.0
C571 C 0.80605 0.99158 0.85973 0.0
C572 C 0.80935 0.86726 0.86118 0.0
C573 C 0.74489 0.79813 0.89057 0.0
N574 N 0.80441 0.95032 0.85904 0.0
N575 N 0.73886 0.8335 0.88337 0.0
H576 H 0.17878 0.70434 0.14227 0.0
H577 H 0.06283 0.44904 0.08958 0.0
H578 H 0.03723 0.63109 0.1182 0.0
H579 H 0.1958 0.51925 0.1245 0.0
H580 H 0.05102 0.51345 0.10017 0.0
H581 H 0.18332 0.63472 0.13708 0.0
C582 C 0.1484 0.67324 0.13608 0.0
C583 C 0.10764 0.67343 0.1305 0.0
C584 C 0.0826 0.51452 0.10563 0.0
C585 C 0.11279 0.59337 0.12407 0.0
C586 C 0.0896 0.47799 0.0994 0.0
C587 C 0.13054 0.4788 0.10605 0.0
C588 C 0.11695 0.55225 0.11843 0.0
C589 C 0.1636 0.51684 0.11915 0.0
C590 C 0.15101 0.63343 0.1331 0.0
C591 C 0.06922 0.63218 0.12275 0.0
N592 N 0.15617 0.55202 0.12476 0.0
N593 N 0.0729 0.59377 0.11942 0.0
H594 H 0.75298 0.24266 0.63113 0.0
H595 H 0.49616 0.04685 0.59656 0.0
H596 H 0.72117 0.13098 0.58205 0.0
H597 H 0.52785 0.14404 0.65435 0.0
H598 H 0.57838 0.08258 0.58777 0.0
H599 H 0.67012 0.21514 0.6349 0.0
C600 C 0.72864 0.21328 0.62057 0.0
C601 C 0.74367 0.18876 0.60641 0.0
C602 C 0.56735 0.09606 0.60241 0.0
C603 C 0.6494 0.15653 0.61108 0.0
C604 C 0.52038 0.07522 0.60766 0.0
C605 C 0.505 0.09238 0.62627 0.0
C606 C 0.59925 0.13441 0.61583 0.0
C607 C 0.53814 0.12998 0.63969 0.0
C608 C 0.6814 0.19717 0.62299 0.0
C609 C 0.71082 0.15059 0.59331 0.0
N610 N 0.58369 0.14982 0.63418 0.0
N611 N 0.66517 0.13531 0.59617 0.0
H612 H 0.56105 0.63194 0.10272 0.0
H613 H 0.2915 0.49126 0.12823 0.0
H614 H 0.48397 0.69289 0.13116 0.0
H615 H 0.37086 0.42267 0.12033 0.0
H616 H 0.3625 0.56531 0.12849 0.0
H617 H 0.49306 0.55514 0.10815 0.0
C618 C 0.52987 0.62917 0.11014 0.0
C619 C 0.52802 0.66894 0.11629 0.0
C620 C 0.36466 0.53421 0.12684 0.0
C621 C 0.45037 0.58133 0.12261 0.0
C622 C 0.32405 0.4918 0.12655 0.0
C623 C 0.3253 0.45074 0.124 0.0
C624 C 0.40719 0.536 0.1242 0.0
C625 C 0.36848 0.45359 0.12226 0.0
C626 C 0.49125 0.58534 0.11341 0.0
C627 C 0.48704 0.66328 0.12627 0.0
N628 N 0.40789 0.4957 0.12209 0.0
N629 N 0.44976 0.62037 0.12888 0.0
H630 H 0.8553 0.57835 0.58674 0.0
H631 H 0.84774 0.36724 0.65707 0.0
H632 H 0.75226 0.49909 0.64018 0.0
H633 H 0.94007 0.4383 0.59806 0.0
H634 H 0.81118 0.41393 0.65088 0.0
H635 H 0.88327 0.52386 0.58892 0.0
C636 C 0.83785 0.54869 0.59852 0.0
C637 C 0.80158 0.54315 0.61337 0.0
C638 C 0.83947 0.4193 0.63931 0.0
C639 C 0.83434 0.48147 0.61657 0.0
C640 C 0.86049 0.39284 0.6429 0.0
C641 C 0.89703 0.3988 0.62805 0.0
C642 C 0.85521 0.45215 0.62079 0.0
C643 C 0.91251 0.43285 0.61015 0.0
C644 C 0.85408 0.51781 0.59993 0.0
C645 C 0.78017 0.50433 0.62835 0.0
N646 N 0.89143 0.45812 0.607 0.0
N647 N 0.79741 0.47524 0.62988 0.0
H648 H 0.51123 0.81662 0.13997 0.0
H649 H 0.37018 0.93845 0.10013 0.0
H650 H 0.57852 0.96271 0.12501 0.0
H651 H 0.30797 0.80286 0.13212 0.0
H652 H 0.44673 0.94897 0.10857 0.0
H653 H 0.4366 0.81196 0.1371 0.0
C654 C 0.51024 0.84788 0.13618 0.0
C655 C 0.55107 0.89008 0.13251 0.0
C656 C 0.41629 0.91711 0.1139 0.0
C657 C 0.46534 0.88488 0.12897 0.0
C658 C 0.37261 0.91088 0.1089 0.0
C659 C 0.3326 0.86951 0.11526 0.0
C660 C 0.41992 0.8815 0.12511 0.0
C661 C 0.33779 0.83534 0.12701 0.0
C662 C 0.46754 0.8452 0.13462 0.0
C663 C 0.54776 0.92953 0.12794 0.0
N664 N 0.3806 0.84196 0.13136 0.0
N665 N 0.50544 0.92588 0.12598 0.0
H666 H 0.55262 0.49371 0.59764 0.0
H667 H 0.49372 0.23855 0.63374 0.0
H668 H 0.61641 0.46335 0.65685 0.0
H669 H 0.41114 0.26798 0.5853 0.0
H670 H 0.54875 0.32158 0.63677 0.0
H671 H 0.50684 0.41136 0.58904 0.0
C672 C 0.55651 0.46975 0.60909 0.0
C673 C 0.58839 0.48551 0.62805 0.0
C674 C 0.51898 0.30973 0.62515 0.0
C675 C 0.5371 0.39126 0.61781 0.0
C676 C 0.48802 0.2624 0.62314 0.0
C677 C 0.4478 0.24671 0.60943 0.0
C678 C 0.50948 0.34111 0.61324 0.0
C679 C 0.44165 0.27892 0.59624 0.0
C680 C 0.53082 0.42274 0.60395 0.0
C681 C 0.59259 0.45275 0.64192 0.0
N682 N 0.47187 0.32469 0.59869 0.0
N683 N 0.56735 0.40717 0.63648 0.0
H684 H 0.38445 0.85817 0.36538 0.0
H685 H 0.59006 0.85923 0.43771 0.0
H686 H 0.44941 0.94491 0.42701 0.0
H687 H 0.50601 0.75321 0.38666 0.0
H688 H 0.53779 0.88997 0.43477 0.0
H689 H 0.4296 0.82028 0.37231 0.0
C690 C 0.40828 0.86939 0.38033 0.0
C691 C 0.41286 0.90474 0.39568 0.0
C692 C 0.53024 0.85953 0.42449 0.0
C693 C 0.46477 0.86143 0.40371 0.0
C694 C 0.55987 0.84176 0.4263 0.0
C695 C 0.55229 0.80369 0.41238 0.0
C696 C 0.49314 0.83957 0.40831 0.0
C697 C 0.51285 0.78244 0.39782 0.0
C698 C 0.43392 0.84759 0.38432 0.0
C699 C 0.44495 0.9183 0.41452 0.0
N700 N 0.48507 0.80116 0.39585 0.0
N701 N 0.46959 0.89658 0.418 0.0
H702 H 0.72033 0.58852 0.9319 0.0
H703 H 0.52702 0.37839 0.85607 0.0
H704 H 0.75112 0.50762 0.88309 0.0
H705 H 0.49711 0.45049 0.91099 0.0
H706 H 0.60912 0.42457 0.86585 0.0
H707 H 0.63809 0.53511 0.92618 0.0
C708 C 0.70965 0.55874 0.92042 0.0
C709 C 0.74242 0.55246 0.90787 0.0
C710 C 0.58458 0.43032 0.87572 0.0
C711 C 0.64834 0.49201 0.90059 0.0
C712 C 0.53774 0.40415 0.87007 0.0
C713 C 0.50503 0.41048 0.88274 0.0
C714 C 0.59891 0.46325 0.89413 0.0
C715 C 0.52096 0.44473 0.90052 0.0
C716 C 0.66269 0.52848 0.91698 0.0
C717 C 0.72687 0.51347 0.89318 0.0
N718 N 0.56672 0.46969 0.90572 0.0
N719 N 0.68078 0.48503 0.88962 0.0
H720 H 0.15018 0.73396 0.43738 0.0
H721 H 0.15897 0.53063 0.36894 0.0
H722 H 0.25272 0.75807 0.38367 0.0
H723 H 0.06781 0.51035 0.42835 0.0
H724 H 0.19852 0.61381 0.37608 0.0
H725 H 0.12607 0.65223 0.43745 0.0
C726 C 0.16829 0.722 0.42597 0.0
C727 C 0.20313 0.75241 0.41035 0.0
C728 C 0.17003 0.59109 0.38763 0.0
C729 C 0.17484 0.65878 0.40971 0.0
C730 C 0.14737 0.54359 0.38355 0.0
C731 C 0.10967 0.51342 0.39793 0.0
C732 C 0.15477 0.60852 0.40618 0.0
C733 C 0.09596 0.53224 0.41647 0.0
C734 C 0.15438 0.67532 0.4259 0.0
C735 C 0.22569 0.73549 0.39598 0.0
N736 N 0.11838 0.57855 0.41998 0.0
N737 N 0.21051 0.68942 0.39564 0.0
H738 H 0.63461 0.17162 0.86366 0.0
H739 H 0.41544 0.14822 0.93352 0.0
H740 H 0.54908 0.06036 0.91207 0.0
H741 H 0.49441 0.2574 0.88283 0.0
H742 H 0.47212 0.12312 0.93038 0.0
H743 H 0.5897 0.2089 0.87349 0.0
C744 C 0.60638 0.155 0.87632 0.0
C745 C 0.59541 0.11257 0.8869 0.0
C746 C 0.47762 0.15305 0.92022 0.0
C747 C 0.54415 0.1552 0.89837 0.0
C748 C 0.44549 0.1677 0.92221 0.0
C749 C 0.45013 0.20471 0.90828 0.0
C750 C 0.51442 0.1752 0.90394 0.0
C751 C 0.48966 0.22874 0.89392 0.0
C752 C 0.58085 0.17636 0.88197 0.0
C753 C 0.55831 0.09251 0.9031 0.0
N754 N 0.51996 0.21303 0.89176 0.0
N755 N 0.53409 0.11399 0.90831 0.0
H756 H 0.2289 0.47637 0.39046 0.0
H757 H 0.48762 0.52423 0.40503 0.0
H758 H 0.26175 0.36929 0.40473 0.0
H759 H 0.45478 0.62478 0.37701 0.0
H760 H 0.40532 0.4688 0.4083 0.0
H761 H 0.31157 0.5332 0.38982 0.0
C762 C 0.25341 0.46484 0.39378 0.0
C763 C 0.23821 0.41786 0.39761 0.0
C764 C 0.41618 0.50304 0.40144 0.0
C765 C 0.33313 0.48286 0.39668 0.0
C766 C 0.46342 0.53483 0.39939 0.0
C767 C 0.47886 0.57975 0.39071 0.0
C768 C 0.38373 0.51601 0.39491 0.0
C769 C 0.44509 0.59107 0.38411 0.0
C770 C 0.30067 0.49731 0.39324 0.0
C771 C 0.27176 0.40506 0.40167 0.0
N772 N 0.39932 0.55953 0.38639 0.0
N773 N 0.31753 0.43729 0.40103 0.0
H774 H 0.81909 0.46364 0.89138 0.0
H775 H 0.88694 0.2695 0.91343 0.0
H776 H 0.95956 0.49027 0.89283 0.0
H777 H 0.74889 0.23714 0.89409 0.0
H778 H 0.91191 0.35137 0.91161 0.0
H779 H 0.79141 0.38163 0.89632 0.0
C780 C 0.84432 0.45256 0.89246 0.0
C781 C 0.89207 0.48453 0.89162 0.0
C782 C 0.87608 0.32643 0.90791 0.0
C783 C 0.86004 0.39007 0.89796 0.0
C784 C 0.86164 0.27956 0.90911 0.0
C785 C 0.81575 0.2463 0.90371 0.0
C786 C 0.84449 0.34041 0.90132 0.0
C787 C 0.78458 0.26156 0.89836 0.0
C788 C 0.82828 0.40549 0.89551 0.0
C789 C 0.92259 0.46737 0.89365 0.0
N790 N 0.79961 0.30761 0.89713 0.0
N791 N 0.90607 0.42145 0.8968 0.0
H792 H 0.19375 0.34027 0.3167 0.0
H793 H 0.12455 0.37498 0.18485 0.0
H794 H 0.0916 0.38099 0.30519 0.0
H795 H 0.24455 0.36464 0.2027 0.0
H796 H 0.11227 0.38133 0.22807 0.0
H797 H 0.21306 0.35196 0.27437 0.0
C798 C 0.1755 0.35195 0.30521 0.0
C799 C 0.14084 0.3594 0.31444 0.0
C800 C 0.14161 0.37834 0.22238 0.0
C801 C 0.16248 0.37252 0.26553 0.0
C802 C 0.14867 0.37487 0.19779 0.0
C803 C 0.18514 0.36849 0.19027 0.0
C804 C 0.17133 0.37542 0.23928 0.0
C805 C 0.21544 0.3686 0.20769 0.0
C806 C 0.18663 0.3588 0.28097 0.0
C807 C 0.11859 0.3749 0.29872 0.0
N808 N 0.2076 0.37152 0.23126 0.0
N809 N 0.12937 0.3804 0.27488 0.0
H810 H 0.8323 0.1167 0.69333 0.0
H811 H 0.76051 0.17907 0.81584 0.0
H812 H 0.82712 0.24262 0.69824 0.0
H813 H 0.86149 0.13502 0.81411 0.0
H814 H 0.76864 0.19076 0.77207 0.0
H815 H 0.82553 0.10917 0.73719 0.0
C816 C 0.82898 0.14235 0.7036 0.0
C817 C 0.83013 0.18029 0.69215 0.0
C818 C 0.78917 0.17887 0.78138 0.0
C819 C 0.822 0.17157 0.74217 0.0
C820 C 0.7846 0.17219 0.80625 0.0
C821 C 0.81064 0.15639 0.81857 0.0
C822 C 0.81872 0.16804 0.76869 0.0
C823 C 0.84118 0.14774 0.80531 0.0
C824 C 0.82559 0.13824 0.72858 0.0
C825 C 0.82636 0.21287 0.70639 0.0
N826 N 0.84385 0.15296 0.78102 0.0
N827 N 0.822 0.20756 0.73069 0.0
H828 H 0.61664 0.77164 0.19727 0.0
H829 H 0.67525 0.88002 0.32997 0.0
H830 H 0.67197 0.91594 0.21386 0.0
H831 H 0.60646 0.73311 0.31728 0.0
H832 H 0.67286 0.89253 0.28699 0.0
H833 H 0.61089 0.75509 0.2407 0.0
C834 C 0.62727 0.7997 0.20994 0.0
C835 C 0.64508 0.84526 0.20179 0.0
C836 C 0.65802 0.85746 0.29355 0.0
C837 C 0.63881 0.82674 0.25133 0.0
C838 C 0.65936 0.85033 0.31817 0.0
C839 C 0.64107 0.80548 0.32734 0.0
C840 C 0.63854 0.81952 0.27777 0.0
C841 C 0.62096 0.76834 0.31105 0.0
C842 C 0.62405 0.79029 0.23471 0.0
C843 C 0.65833 0.88027 0.2191 0.0
N844 N 0.62047 0.77618 0.28707 0.0
N845 N 0.65511 0.8703 0.24285 0.0
H846 H 0.73281 0.62143 0.70752 0.0
H847 H 0.88754 0.62459 0.81672 0.0
H848 H 0.87265 0.64966 0.69791 0.0
H849 H 0.78188 0.66147 0.82549 0.0
H850 H 0.87502 0.61993 0.77338 0.0
H851 H 0.74292 0.62205 0.75104 0.0
C852 C 0.76551 0.62726 0.71454 0.0
C853 C 0.802 0.63548 0.69903 0.0
C854 C 0.85454 0.62895 0.7848 0.0
C855 C 0.81354 0.63605 0.74883 0.0
C856 C 0.86142 0.6314 0.80956 0.0
C857 C 0.83567 0.64346 0.82479 0.0
C858 C 0.82108 0.63781 0.77513 0.0
C859 C 0.80255 0.65216 0.81442 0.0
C860 C 0.77128 0.62793 0.73938 0.0
C861 C 0.84366 0.64322 0.7092 0.0
N862 N 0.796 0.64892 0.79021 0.0
N863 N 0.84824 0.64311 0.73347 0.0
H864 H 0.0933 0.75465 0.21086 0.0
H865 H 0.27465 0.89139 0.31545 0.0
H866 H 0.23124 0.86599 0.19578 0.0
H867 H 0.12986 0.79348 0.32617 0.0
H868 H 0.2638 0.87744 0.27204 0.0
H869 H 0.11103 0.7627 0.25327 0.0
C870 C 0.12757 0.78088 0.21648 0.0
C871 C 0.16065 0.81019 0.19969 0.0
C872 C 0.23457 0.85889 0.28395 0.0
C873 C 0.18124 0.81979 0.24878 0.0
C874 C 0.24069 0.86669 0.30872 0.0
C875 C 0.203 0.84371 0.32448 0.0
C876 C 0.19054 0.82764 0.27495 0.0
C877 C 0.15985 0.81219 0.31476 0.0
C878 C 0.13767 0.78544 0.24082 0.0
C879 C 0.20467 0.84286 0.20814 0.0
N880 N 0.15486 0.80522 0.2907 0.0
N881 N 0.21363 0.84714 0.23221 0.0
H882 H 0.29299 0.12388 0.81988 0.0
H883 H 0.4291 0.17222 0.69938 0.0
H884 H 0.42728 0.24684 0.81624 0.0
H885 H 0.29202 0.15408 0.69968 0.0
H886 H 0.4326 0.18281 0.7433 0.0
H887 H 0.29537 0.115 0.77625 0.0
C888 C 0.32337 0.14838 0.80996 0.0
C889 C 0.36003 0.18613 0.82155 0.0
C890 C 0.40202 0.17676 0.73359 0.0
C891 C 0.36301 0.17584 0.77207 0.0
C892 C 0.39998 0.17079 0.7087 0.0
C893 C 0.36034 0.16267 0.69604 0.0
C894 C 0.36351 0.17276 0.74576 0.0
C895 C 0.32336 0.16082 0.70882 0.0
C896 C 0.32447 0.14351 0.78516 0.0
C897 C 0.39835 0.21734 0.80785 0.0
N898 N 0.32552 0.16508 0.73309 0.0
N899 N 0.39904 0.21138 0.78373 0.0
H900 H 0.3327 0.3091 0.94451 0.0
H901 H 0.21107 0.23166 0.07202 0.0
H902 H 0.26437 0.16725 0.9684 0.0
H903 H 0.23723 0.35803 0.03759 0.0
H904 H 0.234 0.20878 0.03532 0.0
H905 H 0.30321 0.32927 0.97971 0.0
C906 C 0.31179 0.28214 0.95725 0.0
C907 C 0.30127 0.23631 0.95349 0.0
C908 C 0.23435 0.2413 0.03565 0.0
C909 C 0.26712 0.25949 0.99394 0.0
C910 C 0.22129 0.25449 0.05661 0.0
C911 C 0.22236 0.29696 0.05789 0.0
C912 C 0.24948 0.2711 0.01582 0.0
C913 C 0.23571 0.32496 0.03734 0.0
C914 C 0.29462 0.29374 0.97726 0.0
C915 C 0.27356 0.20299 0.97058 0.0
N916 N 0.24933 0.31179 0.01721 0.0
N917 N 0.25767 0.21529 0.99013 0.0
H918 H 0.07314 0.35384 0.46004 0.0
H919 H 0.90383 0.14843 0.54844 0.0
H920 H 0.03962 0.21299 0.44849 0.0
H921 H 0.94006 0.29105 0.5558 0.0
H922 H 0.95302 0.16941 0.51243 0.0
H923 H 0.02681 0.33015 0.49639 0.0
C924 C 0.05651 0.31787 0.46536 0.0
C925 C 0.06044 0.28541 0.45112 0.0
C926 C 0.94994 0.19596 0.52191 0.0
C927 C 0.00589 0.25751 0.49292 0.0
C928 C 0.92157 0.18397 0.54236 0.0
C929 C 0.91752 0.21796 0.55522 0.0
C930 C 0.97451 0.24228 0.51428 0.0
C931 C 0.94184 0.26353 0.54658 0.0
C932 C 0.02968 0.30424 0.48613 0.0
C933 C 0.03792 0.23926 0.45902 0.0
N934 N 0.96917 0.27422 0.52682 0.0
N935 N 0.01124 0.22657 0.4793 0.0
H936 H 0.76647 0.99484 0.077 0.0
H937 H 0.6833 0.02167 0.94718 0.0
H938 H 0.6383 0.88905 0.04649 0.0
H939 H 0.82667 0.09389 0.96836 0.0
H940 H 0.66366 0.97748 0.98466 0.0
H941 H 0.7868 0.03525 0.03857 0.0
C942 C 0.74263 0.97989 0.06212 0.0
C943 C 0.70052 0.93839 0.06501 0.0
C944 C 0.69939 0.00299 0.9811 0.0
C945 C 0.72348 0.98529 0.02082 0.0
C946 C 0.71067 0.02861 0.9598 0.0
C947 C 0.75679 0.0619 0.9546 0.0
C948 C 0.7343 0.01105 0.99763 0.0
C949 C 0.79069 0.0688 0.97158 0.0
C950 C 0.75437 0.00305 0.04015 0.0
C951 C 0.67119 0.92074 0.04503 0.0
N952 N 0.77874 0.04385 0.99235 0.0
N953 N 0.68297 0.94458 0.02384 0.0
H954 H 0.70759 0.61763 0.5566 0.0
H955 H 0.74764 0.82366 0.46817 0.0
H956 H 0.82946 0.75266 0.55984 0.0
H957 H 0.63331 0.68404 0.46294 0.0
H958 H 0.77773 0.80002 0.50217 0.0
H959 H 0.68108 0.64212 0.5219 0.0
C960 C 0.72923 0.65232 0.54974 0.0
C961 C 0.77095 0.68306 0.56114 0.0
C962 C 0.74595 0.77467 0.49364 0.0
C963 C 0.74004 0.71194 0.52147 0.0
C964 C 0.72846 0.78823 0.47436 0.0
C965 C 0.68769 0.75586 0.46266 0.0
C966 C 0.72248 0.72842 0.50134 0.0
C967 C 0.66473 0.71031 0.47136 0.0
C968 C 0.71387 0.66642 0.52996 0.0
C969 C 0.79734 0.72766 0.55146 0.0
N970 N 0.68246 0.69803 0.49006 0.0
N971 N 0.78123 0.74094 0.53231 0.0
H972 H 0.88961 0.7307 0.97336 0.0
H973 H 0.10807 0.75841 0.04709 0.0
H974 H 0.96003 0.65614 0.9558 0.0
H975 H 0.00819 0.79006 0.07693 0.0
H976 H 0.06155 0.73179 0.01013 0.0
H977 H 0.93891 0.76199 1.00896 0.0
C978 C 0.91503 0.72052 0.97711 0.0
C979 C 0.92031 0.6904 0.96166 0.0
C980 C 0.05014 0.74495 0.02475 0.0
C981 C 0.9777 0.72707 1.00194 0.0
C982 C 0.0769 0.76055 0.04569 0.0
C983 C 0.06187 0.77629 0.06508 0.0
C984 C 0.00856 0.74583 0.02317 0.0
C985 C 0.0209 0.77789 0.06244 0.0
C986 C 0.94333 0.73857 0.99734 0.0
C987 C 0.9543 0.67884 0.9673 0.0
N988 N -0.00428 0.76285 0.04194 0.0
N989 N 0.98185 0.69741 0.98685 0.0
H990 H 0.28975 0.91768 0.46803 0.0
H991 H 0.23743 0.073 0.55783 0.0
H992 H 0.16521 0.92556 0.46309 0.0
H993 H 0.36167 0.06398 0.55787 0.0
H994 H 0.20888 0.01952 0.52351 0.0
H995 H 0.31348 0.96857 0.50263 0.0
C996 C 0.26695 0.92953 0.47453 0.0
C997 C 0.22541 0.91728 0.46269 0.0
C998 C 0.24251 0.02963 0.53098 0.0
C999 C 0.25303 0.97696 0.50216 0.0
C1000 C 0.25903 0.06052 0.55036 0.0
C1001 C 0.30202 0.07301 0.56073 0.0
C1002 C 0.26924 0.01125 0.52202 0.0
C1003 C 0.32828 0.05528 0.55055 0.0
C1004 C 0.28071 0.959 0.49422 0.0
C1005 C 0.19731 0.93382 0.47188 0.0
N1006 N 0.31141 0.02529 0.53193 0.0
N1007 N 0.21185 0.96326 0.49099 0.0
loop_
_geom_bond_atom_site_label_1
_geom_bond_atom_site_label_2
_geom_bond_distance
_geom_bond_site_symmetry_2
_ccdc_geom_bond_type
Co0 N5 2.057 . S
Co0 O17 2.021 . S
Co0 O20 2.062 . S
Co0 O24 2.117 . S
Co0 O25 2.020 . S
C1 O21 1.259 . S
C1 O24 1.258 . S
Co2 N11 2.057 . S
Co2 O18 2.117 . S
Co2 O19 2.020 . S
Co2 O21 2.021 . S
Co2 O26 2.062 . S
C3 N5 1.316 . S
C3 N6 1.347 . S
C3 H8 0.931 . S
C4 N5 1.375 . S
C4 C7 1.350 . S
C4 H9 0.930 . S
N5 Co0 2.057 . S
N5 C3 1.316 . S
N5 C4 1.375 . S
N6 C3 1.347 . S
N6 C7 1.373 . S
C7 C4 1.350 . S
C7 N6 1.373 . S
C7 H28 0.931 . S
H8 C3 0.931 . S
H9 C4 0.930 . S
C10 O17 1.259 . S
C10 O18 1.258 . S
N11 Co2 2.057 . S
N11 C12 1.316 . S
N11 C13 1.375 . S
C12 N11 1.316 . S
C12 N14 1.347 . S
C12 H23 0.931 . S
C13 N11 1.375 . S
C13 C15 1.350 . S
C13 H22 0.930 . S
N14 C12 1.347 . S
N14 C15 1.373 . S
C15 C13 1.350 . S
C15 N14 1.373 . S
C15 H29 0.931 . S
C16 O19 1.256 . S
C16 O20 1.255 . S
O17 Co0 2.021 . S
O17 C10 1.259 . S
O18 Co2 2.117 . S
O18 C10 1.258 . S
O19 Co2 2.020 . S
O19 C16 1.256 . S
O20 Co0 2.062 . S
O20 C16 1.255 . S
O21 C1 1.259 . S
O21 Co2 2.021 . S
H22 C13 0.930 . S
H23 C12 0.931 . S
O24 Co0 2.117 . S
O24 C1 1.258 . S
O25 Co0 2.020 . S
O25 C27 1.256 . S
O26 Co2 2.062 . S
O26 C27 1.255 . S
C27 O25 1.256 . S
C27 O26 1.255 . S
H28 C7 0.931 . S
H29 C15 0.931 . S
Co30 N35 2.057 . S
Co30 O47 2.021 . S
Co30 O50 2.062 . S
Co30 O54 2.117 . S
Co30 O55 2.020 . S
C31 O51 1.259 . S
C31 O54 1.258 . S
Co32 N41 2.057 . S
Co32 O48 2.117 . S
Co32 O49 2.020 . S
Co32 O51 2.021 . S
Co32 O56 2.062 . S
C33 N35 1.316 . S
C33 N36 1.347 . S
C33 H38 0.931 . S
C34 N35 1.375 . S
C34 C37 1.350 . S
C34 H39 0.930 . S
N35 Co30 2.057 . S
N35 C33 1.316 . S
N35 C34 1.375 . S
N36 C33 1.347 . S
N36 C37 1.373 . S
C37 C34 1.350 . S
C37 N36 1.373 . S
C37 H58 0.931 1_545 S
H38 C33 0.931 . S
H39 C34 0.930 . S
C40 O47 1.259 . S
C40 O48 1.258 . S
N41 Co32 2.057 . S
N41 C42 1.316 . S
N41 C43 1.375 . S
C42 N41 1.316 . S
C42 N44 1.347 . S
C42 H53 0.931 . S
C43 N41 1.375 . S
C43 C45 1.350 . S
C43 H52 0.930 . S
N44 C42 1.347 . S
N44 C45 1.373 . S
C45 C43 1.350 . S
C45 N44 1.373 . S
C45 H59 0.931 . S
C46 O49 1.256 . S
C46 O50 1.255 . S
O47 Co30 2.021 . S
O47 C40 1.259 . S
O48 Co32 2.117 . S
O48 C40 1.258 . S
O49 Co32 2.020 . S
O49 C46 1.256 . S
O50 Co30 2.062 . S
O50 C46 1.255 . S
O51 C31 1.259 . S
O51 Co32 2.021 . S
H52 C43 0.930 . S
H53 C42 0.931 . S
O54 Co30 2.117 . S
O54 C31 1.258 . S
O55 Co30 2.020 . S
O55 C57 1.256 . S
O56 Co32 2.062 . S
O56 C57 1.255 . S
C57 O55 1.256 . S
C57 O56 1.255 . S
H58 C37 0.931 1_565 S
H59 C45 0.931 . S
Co60 N65 2.057 . S
Co60 O77 2.021 . S
Co60 O80 2.062 . S
Co60 O84 2.117 . S
Co60 O85 2.020 . S
C61 O81 1.259 . S
C61 O84 1.258 . S
Co62 N71 2.057 . S
Co62 O78 2.117 . S
Co62 O79 2.020 . S
Co62 O81 2.021 . S
Co62 O86 2.062 . S
C63 N65 1.316 . S
C63 N66 1.347 . S
C63 H68 0.931 . S
C64 N65 1.375 . S
C64 C67 1.350 . S
C64 H69 0.930 . S
N65 Co60 2.057 . S
N65 C63 1.316 . S
N65 C64 1.375 . S
N66 C63 1.347 . S
N66 C67 1.373 . S
C67 C64 1.350 . S
C67 N66 1.373 . S
C67 H88 0.931 . S
H68 C63 0.931 . S
H69 C64 0.930 . S
C70 O77 1.259 . S
C70 O78 1.258 . S
N71 Co62 2.057 . S
N71 C72 1.316 1_565 S
N71 C73 1.375 . S
C72 N71 1.316 1_545 S
C72 N74 1.347 . S
C72 H83 0.931 . S
C73 N71 1.375 . S
C73 C75 1.350 1_565 S
C73 H82 0.930 . S
N74 C72 1.347 . S
N74 C75 1.373 . S
C75 C73 1.350 1_545 S
C75 N74 1.373 . S
C75 H89 0.931 . S
C76 O79 1.256 . S
C76 O80 1.255 . S
O77 Co60 2.021 . S
O77 C70 1.259 . S
O78 Co62 2.117 . S
O78 C70 1.258 . S
O79 Co62 2.020 . S
O79 C76 1.256 . S
O80 Co60 2.062 . S
O80 C76 1.255 . S
O81 C61 1.259 . S
O81 Co62 2.021 . S
H82 C73 0.930 . S
H83 C72 0.931 . S
O84 Co60 2.117 . S
O84 C61 1.258 . S
O85 Co60 2.020 . S
O85 C87 1.256 . S
O86 Co62 2.062 . S
O86 C87 1.255 . S
C87 O85 1.256 . S
C87 O86 1.255 . S
H88 C67 0.931 . S
H89 C75 0.931 . S
Co90 N95 2.057 . S
Co90 O107 2.021 . S
Co90 O110 2.062 . S
Co90 O114 2.117 . S
Co90 O115 2.020 . S
C91 O111 1.259 . S
C91 O114 1.258 . S
Co92 N101 2.057 . S
Co92 O108 2.117 . S
Co92 O109 2.020 . S
Co92 O111 2.021 . S
Co92 O116 2.062 . S
C93 N95 1.316 . S
C93 N96 1.347 . S
C93 H98 0.931 . S
C94 N95 1.375 . S
C94 C97 1.350 . S
C94 H99 0.930 . S
N95 Co90 2.057 . S
N95 C93 1.316 . S
N95 C94 1.375 . S
N96 C93 1.347 . S
N96 C97 1.373 . S
C97 C94 1.350 . S
C97 N96 1.373 . S
C97 H118 0.931 1_655 S
H98 C93 0.931 . S
H99 C94 0.930 . S
C100 O107 1.259 . S
C100 O108 1.258 . S
N101 Co92 2.057 . S
N101 C102 1.316 . S
N101 C103 1.375 . S
C102 N101 1.316 . S
C102 N104 1.347 . S
C102 H113 0.931 . S
C103 N101 1.375 . S
C103 C105 1.350 . S
C103 H112 0.930 . S
N104 C102 1.347 . S
N104 C105 1.373 . S
C105 C103 1.350 . S
C105 N104 1.373 . S
C105 H119 0.931 . S
C106 O109 1.256 . S
C106 O110 1.255 . S
O107 Co90 2.021 . S
O107 C100 1.259 . S
O108 Co92 2.117 . S
O108 C100 1.258 . S
O109 Co92 2.020 . S
O109 C106 1.256 . S
O110 Co90 2.062 . S
O110 C106 1.255 . S
O111 C91 1.259 . S
O111 Co92 2.021 . S
H112 C103 0.930 . S
H113 C102 0.931 . S
O114 Co90 2.117 . S
O114 C91 1.258 . S
O115 Co90 2.020 . S
O115 C117 1.256 . S
O116 Co92 2.062 . S
O116 C117 1.255 . S
C117 O115 1.256 . S
C117 O116 1.255 . S
H118 C97 0.931 1_455 S
H119 C105 0.931 . S
Co120 N125 2.057 . S
Co120 O137 2.021 . S
Co120 O140 2.062 . S
Co120 O144 2.117 . S
Co120 O145 2.020 . S
C121 O141 1.259 . S
C121 O144 1.258 . S
Co122 N131 2.057 . S
Co122 O138 2.117 . S
Co122 O139 2.020 . S
Co122 O141 2.021 . S
Co122 O146 2.062 . S
C123 N125 1.316 . S
C123 N126 1.347 . S
C123 H128 0.931 . S
C124 N125 1.375 . S
C124 C127 1.350 . S
C124 H129 0.930 . S
N125 Co120 2.057 . S
N125 C123 1.316 . S
N125 C124 1.375 . S
N126 C123 1.347 . S
N126 C127 1.373 . S
C127 C124 1.350 . S
C127 N126 1.373 . S
C127 H148 0.931 . S
H128 C123 0.931 . S
H129 C124 0.930 . S
C130 O137 1.259 . S
C130 O138 1.258 . S
N131 Co122 2.057 . S
N131 C132 1.316 1_455 S
N131 C133 1.375 . S
C132 N131 1.316 1_655 S
C132 N134 1.347 . S
C132 H143 0.931 . S
C133 N131 1.375 . S
C133 C135 1.350 1_455 S
C133 H142 0.930 . S
N134 C132 1.347 . S
N134 C135 1.373 . S
C135 C133 1.350 1_655 S
C135 N134 1.373 . S
C135 H149 0.931 . S
C136 O139 1.256 . S
C136 O140 1.255 . S
O137 Co120 2.021 . S
O137 C130 1.259 . S
O138 Co122 2.117 . S
O138 C130 1.258 . S
O139 Co122 2.020 . S
O139 C136 1.256 . S
O140 Co120 2.062 . S
O140 C136 1.255 . S
O141 C121 1.259 . S
O141 Co122 2.021 . S
H142 C133 0.930 . S
H143 C132 0.931 . S
O144 Co120 2.117 . S
O144 C121 1.258 . S
O145 Co120 2.020 . S
O145 C147 1.256 . S
O146 Co122 2.062 . S
O146 C147 1.255 . S
C147 O145 1.256 . S
C147 O146 1.255 . S
H148 C127 0.931 . S
H149 C135 0.931 . S
Co150 N155 2.057 . S
Co150 O167 2.021 . S
Co150 O170 2.062 . S
Co150 O174 2.117 . S
Co150 O175 2.020 . S
C151 O171 1.259 . S
C151 O174 1.258 . S
Co152 N161 2.057 . S
Co152 O168 2.117 . S
Co152 O169 2.020 . S
Co152 O171 2.021 . S
Co152 O176 2.062 . S
C153 N155 1.316 . S
C153 N156 1.347 . S
C153 H158 0.931 . S
C154 N155 1.375 . S
C154 C157 1.350 . S
C154 H159 0.930 . S
N155 Co150 2.057 . S
N155 C153 1.316 . S
N155 C154 1.375 . S
N156 C153 1.347 . S
N156 C157 1.373 . S
C157 C154 1.350 . S
C157 N156 1.373 . S
C157 H178 0.931 . S
H158 C153 0.931 . S
H159 C154 0.930 . S
C160 O167 1.259 . S
C160 O168 1.258 . S
N161 Co152 2.057 . S
N161 C162 1.316 . S
N161 C163 1.375 . S
C162 N161 1.316 . S
C162 N164 1.347 . S
C162 H173 0.931 . S
C163 N161 1.375 . S
C163 C165 1.350 . S
C163 H172 0.930 . S
N164 C162 1.347 . S
N164 C165 1.373 . S
C165 C163 1.350 . S
C165 N164 1.373 . S
C165 H179 0.931 . S
C166 O169 1.256 . S
C166 O170 1.255 . S
O167 Co150 2.021 . S
O167 C160 1.259 . S
O168 Co152 2.117 . S
O168 C160 1.258 . S
O169 Co152 2.020 . S
O169 C166 1.256 . S
O170 Co150 2.062 . S
O170 C166 1.255 . S
O171 C151 1.259 . S
O171 Co152 2.021 . S
H172 C163 0.930 . S
H173 C162 0.931 . S
O174 Co150 2.117 . S
O174 C151 1.258 . S
O175 Co150 2.020 . S
O175 C177 1.256 . S
O176 Co152 2.062 . S
O176 C177 1.255 . S
C177 O175 1.256 . S
C177 O176 1.255 . S
H178 C157 0.931 . S
H179 C165 0.931 . S
Co180 N185 2.057 . S
Co180 O197 2.021 . S
Co180 O200 2.062 . S
Co180 O204 2.117 . S
Co180 O205 2.020 . S
C181 O201 1.259 . S
C181 O204 1.258 . S
Co182 N191 2.057 . S
Co182 O198 2.117 . S
Co182 O199 2.020 . S
Co182 O201 2.021 . S
Co182 O206 2.062 . S
C183 N185 1.316 . S
C183 N186 1.347 . S
C183 H188 0.931 . S
C184 N185 1.375 . S
C184 C187 1.350 . S
C184 H189 0.930 . S
N185 Co180 2.057 . S
N185 C183 1.316 . S
N185 C184 1.375 . S
N186 C183 1.347 . S
N186 C187 1.373 . S
C187 C184 1.350 . S
C187 N186 1.373 . S
C187 H208 0.931 1_565 S
H188 C183 0.931 . S
H189 C184 0.930 . S
C190 O197 1.259 . S
C190 O198 1.258 . S
N191 Co182 2.057 . S
N191 C192 1.316 . S
N191 C193 1.375 . S
C192 N191 1.316 . S
C192 N194 1.347 . S
C192 H203 0.931 . S
C193 N191 1.375 . S
C193 C195 1.350 . S
C193 H202 0.930 . S
N194 C192 1.347 . S
N194 C195 1.373 . S
C195 C193 1.350 . S
C195 N194 1.373 . S
C195 H209 0.931 . S
C196 O199 1.256 . S
C196 O200 1.255 . S
O197 Co180 2.021 . S
O197 C190 1.259 . S
O198 Co182 2.117 . S
O198 C190 1.258 . S
O199 Co182 2.020 . S
O199 C196 1.256 . S
O200 Co180 2.062 . S
O200 C196 1.255 . S
O201 C181 1.259 . S
O201 Co182 2.021 . S
H202 C193 0.930 . S
H203 C192 0.931 . S
O204 Co180 2.117 . S
O204 C181 1.258 . S
O205 Co180 2.020 . S
O205 C207 1.256 . S
O206 Co182 2.062 . S
O206 C207 1.255 . S
C207 O205 1.256 . S
C207 O206 1.255 . S
H208 C187 0.931 1_545 S
H209 C195 0.931 . S
Co210 N215 2.057 . S
Co210 O227 2.021 . S
Co210 O230 2.062 . S
Co210 O234 2.117 . S
Co210 O235 2.020 . S
C211 O231 1.259 . S
C211 O234 1.258 . S
Co212 N221 2.057 . S
Co212 O228 2.117 . S
Co212 O229 2.020 . S
Co212 O231 2.021 . S
Co212 O236 2.062 . S
C213 N215 1.316 . S
C213 N216 1.347 . S
C213 H218 0.931 . S
C214 N215 1.375 . S
C214 C217 1.350 . S
C214 H219 0.930 . S
N215 Co210 2.057 . S
N215 C213 1.316 . S
N215 C214 1.375 . S
N216 C213 1.347 . S
N216 C217 1.373 . S
C217 C214 1.350 . S
C217 N216 1.373 . S
C217 H238 0.931 . S
H218 C213 0.931 . S
H219 C214 0.930 . S
C220 O227 1.259 . S
C220 O228 1.258 . S
N221 Co212 2.057 . S
N221 C222 1.316 . S
N221 C223 1.375 . S
C222 N221 1.316 . S
C222 N224 1.347 . S
C222 H233 0.931 . S
C223 N221 1.375 . S
C223 C225 1.350 . S
C223 H232 0.930 . S
N224 C222 1.347 . S
N224 C225 1.373 . S
C225 C223 1.350 . S
C225 N224 1.373 . S
C225 H239 0.931 . S
C226 O229 1.256 . S
C226 O230 1.255 . S
O227 Co210 2.021 . S
O227 C220 1.259 . S
O228 Co212 2.117 . S
O228 C220 1.258 . S
O229 Co212 2.020 . S
O229 C226 1.256 . S
O230 Co210 2.062 . S
O230 C226 1.255 . S
O231 C211 1.259 . S
O231 Co212 2.021 . S
H232 C223 0.930 . S
H233 C222 0.931 . S
O234 Co210 2.117 . S
O234 C211 1.258 . S
O235 Co210 2.020 . S
O235 C237 1.256 . S
O236 Co212 2.062 . S
O236 C237 1.255 . S
C237 O235 1.256 . S
C237 O236 1.255 . S
H238 C217 0.931 . S
H239 C225 0.931 . S
Co240 N245 2.057 . S
Co240 O257 2.021 . S
Co240 O260 2.062 . S
Co240 O264 2.117 . S
Co240 O265 2.020 . S
C241 O261 1.259 . S
C241 O264 1.258 . S
Co242 N251 2.057 . S
Co242 O258 2.117 . S
Co242 O259 2.020 . S
Co242 O261 2.021 . S
Co242 O266 2.062 . S
C243 N245 1.316 . S
C243 N246 1.347 . S
C243 H248 0.931 . S
C244 N245 1.375 . S
C244 C247 1.350 . S
C244 H249 0.930 . S
N245 Co240 2.057 . S
N245 C243 1.316 . S
N245 C244 1.375 . S
N246 C243 1.347 . S
N246 C247 1.373 . S
C247 C244 1.350 . S
C247 N246 1.373 . S
C247 H268 0.931 1_455 S
H248 C243 0.931 . S
H249 C244 0.930 . S
C250 O257 1.259 . S
C250 O258 1.258 . S
N251 Co242 2.057 . S
N251 C252 1.316 . S
N251 C253 1.375 . S
C252 N251 1.316 . S
C252 N254 1.347 . S
C252 H263 0.931 . S
C253 N251 1.375 . S
C253 C255 1.350 . S
C253 H262 0.930 . S
N254 C252 1.347 . S
N254 C255 1.373 . S
C255 C253 1.350 . S
C255 N254 1.373 . S
C255 H269 0.931 . S
C256 O259 1.256 . S
C256 O260 1.255 . S
O257 Co240 2.021 . S
O257 C250 1.259 . S
O258 Co242 2.117 . S
O258 C250 1.258 . S
O259 Co242 2.020 . S
O259 C256 1.256 . S
O260 Co240 2.062 . S
O260 C256 1.255 . S
O261 C241 1.259 . S
O261 Co242 2.021 . S
H262 C253 0.930 . S
H263 C252 0.931 . S
O264 Co240 2.117 . S
O264 C241 1.258 . S
O265 Co240 2.020 . S
O265 C267 1.256 . S
O266 Co242 2.062 . S
O266 C267 1.255 . S
C267 O265 1.256 . S
C267 O266 1.255 . S
H268 C247 0.931 1_655 S
H269 C255 0.931 . S
Co270 N275 2.057 . S
Co270 O287 2.021 . S
Co270 O290 2.062 . S
Co270 O294 2.117 . S
Co270 O295 2.020 . S
C271 O291 1.259 . S
C271 O294 1.258 . S
Co272 N281 2.057 . S
Co272 O288 2.117 . S
Co272 O289 2.020 . S
Co272 O291 2.021 . S
Co272 O296 2.062 . S
C273 N275 1.316 . S
C273 N276 1.347 . S
C273 H278 0.931 . S
C274 N275 1.375 . S
C274 C277 1.350 . S
C274 H279 0.930 . S
N275 Co270 2.057 . S
N275 C273 1.316 . S
N275 C274 1.375 . S
N276 C273 1.347 . S
N276 C277 1.373 . S
C277 C274 1.350 . S
C277 N276 1.373 . S
C277 H298 0.931 1_545 S
H278 C273 0.931 . S
H279 C274 0.930 . S
C280 O287 1.259 . S
C280 O288 1.258 . S
N281 Co272 2.057 . S
N281 C282 1.316 . S
N281 C283 1.375 . S
C282 N281 1.316 . S
C282 N284 1.347 . S
C282 H293 0.931 . S
C283 N281 1.375 . S
C283 C285 1.350 . S
C283 H292 0.930 . S
N284 C282 1.347 . S
N284 C285 1.373 . S
C285 C283 1.350 . S
C285 N284 1.373 . S
C285 H299 0.931 . S
C286 O289 1.256 . S
C286 O290 1.255 . S
O287 Co270 2.021 . S
O287 C280 1.259 . S
O288 Co272 2.117 . S
O288 C280 1.258 . S
O289 Co272 2.020 . S
O289 C286 1.256 . S
O290 Co270 2.062 . S
O290 C286 1.255 . S
O291 C271 1.259 . S
O291 Co272 2.021 . S
H292 C283 0.930 . S
H293 C282 0.931 . S
O294 Co270 2.117 . S
O294 C271 1.258 . S
O295 Co270 2.020 . S
O295 C297 1.256 . S
O296 Co272 2.062 . S
O296 C297 1.255 . S
C297 O295 1.256 . S
C297 O296 1.255 . S
H298 C277 0.931 1_565 S
H299 C285 0.931 . S
Co300 N305 2.057 . S
Co300 O317 2.021 . S
Co300 O320 2.062 . S
Co300 O324 2.117 . S
Co300 O325 2.020 . S
C301 O321 1.259 . S
C301 O324 1.258 . S
Co302 N311 2.057 . S
Co302 O318 2.117 . S
Co302 O319 2.020 . S
Co302 O321 2.021 . S
Co302 O326 2.062 . S
C303 N305 1.316 . S
C303 N306 1.347 . S
C303 H308 0.931 . S
C304 N305 1.375 . S
C304 C307 1.350 . S
C304 H309 0.930 . S
N305 Co300 2.057 . S
N305 C303 1.316 . S
N305 C304 1.375 . S
N306 C303 1.347 . S
N306 C307 1.373 . S
C307 C304 1.350 . S
C307 N306 1.373 . S
C307 H328 0.931 . S
H308 C303 0.931 . S
H309 C304 0.930 . S
C310 O317 1.259 . S
C310 O318 1.258 . S
N311 Co302 2.057 . S
N311 C312 1.316 . S
N311 C313 1.375 . S
C312 N311 1.316 . S
C312 N314 1.347 . S
C312 H323 0.931 . S
C313 N311 1.375 . S
C313 C315 1.350 . S
C313 H322 0.930 . S
N314 C312 1.347 . S
N314 C315 1.373 . S
C315 C313 1.350 . S
C315 N314 1.373 . S
C315 H329 0.931 . S
C316 O319 1.256 . S
C316 O320 1.255 . S
O317 Co300 2.021 . S
O317 C310 1.259 . S
O318 Co302 2.117 . S
O318 C310 1.258 . S
O319 Co302 2.020 . S
O319 C316 1.256 . S
O320 Co300 2.062 . S
O320 C316 1.255 . S
O321 C301 1.259 . S
O321 Co302 2.021 . S
H322 C313 0.930 . S
H323 C312 0.931 . S
O324 Co300 2.117 . S
O324 C301 1.258 . S
O325 Co300 2.020 . S
O325 C327 1.256 . S
O326 Co302 2.062 . S
O326 C327 1.255 . S
C327 O325 1.256 . S
C327 O326 1.255 . S
H328 C307 0.931 . S
H329 C315 0.931 . S
Co330 N335 2.057 . S
Co330 O347 2.021 . S
Co330 O350 2.062 . S
Co330 O354 2.117 . S
Co330 O355 2.020 . S
C331 O351 1.259 . S
C331 O354 1.258 . S
Co332 N341 2.057 . S
Co332 O348 2.117 . S
Co332 O349 2.020 . S
Co332 O351 2.021 . S
Co332 O356 2.062 . S
C333 N335 1.316 . S
C333 N336 1.347 . S
C333 H338 0.931 . S
C334 N335 1.375 . S
C334 C337 1.350 . S
C334 H339 0.930 . S
N335 Co330 2.057 . S
N335 C333 1.316 . S
N335 C334 1.375 . S
N336 C333 1.347 . S
N336 C337 1.373 . S
C337 C334 1.350 . S
C337 N336 1.373 . S
C337 H358 0.931 1_655 S
H338 C333 0.931 . S
H339 C334 0.930 . S
C340 O347 1.259 . S
C340 O348 1.258 . S
N341 Co332 2.057 . S
N341 C342 1.316 . S
N341 C343 1.375 . S
C342 N341 1.316 . S
C342 N344 1.347 . S
C342 H353 0.931 . S
C343 N341 1.375 . S
C343 C345 1.350 . S
C343 H352 0.930 . S
N344 C342 1.347 . S
N344 C345 1.373 . S
C345 C343 1.350 . S
C345 N344 1.373 . S
C345 H359 0.931 . S
C346 O349 1.256 . S
C346 O350 1.255 . S
O347 Co330 2.021 . S
O347 C340 1.259 . S
O348 Co332 2.117 . S
O348 C340 1.258 . S
O349 Co332 2.020 . S
O349 C346 1.256 . S
O350 Co330 2.062 . S
O350 C346 1.255 . S
O351 C331 1.259 . S
O351 Co332 2.021 . S
H352 C343 0.930 . S
H353 C342 0.931 . S
O354 Co330 2.117 . S
O354 C331 1.258 . S
O355 Co330 2.020 . S
O355 C357 1.256 . S
O356 Co332 2.062 . S
O356 C357 1.255 . S
C357 O355 1.256 . S
C357 O356 1.255 . S
H358 C337 0.931 1_455 S
H359 C345 0.931 . S
H360 C366 0.930 . S
H361 C370 0.930 . S
H362 C375 0.929 . S
H363 C373 0.929 . S
H364 C368 0.929 . S
H365 C374 0.929 . S
C366 H360 0.930 . S
C366 C367 1.367 . S
C366 C374 1.378 1_565 S
C367 C366 1.367 . S
C367 C375 1.433 . S
C368 H364 0.929 . S
C368 C370 1.378 . S
C368 C372 1.350 . S
C369 C372 1.463 . S
C369 C374 1.350 . S
C369 N377 1.427 1_545 S
C370 H361 0.930 . S
C370 C368 1.378 . S
C370 C371 1.367 . S
C371 C370 1.367 . S
C371 C373 1.433 . S
C372 C368 1.350 . S
C372 C369 1.463 . S
C372 N376 1.427 . S
C373 H363 0.929 . S
C373 C371 1.433 . S
C373 N376 1.384 . S
C374 H365 0.929 . S
C374 C366 1.378 1_545 S
C374 C369 1.350 . S
C375 H362 0.929 . S
C375 C367 1.433 . S
C375 N377 1.384 . S
N376 C372 1.427 . S
N376 C373 1.384 . S
N377 C369 1.427 1_565 S
N377 C375 1.384 . S
H378 C384 0.930 . S
H379 C388 0.930 . S
H380 C393 0.929 . S
H381 C391 0.929 1_655 S
H382 C386 0.929 . S
H383 C392 0.929 . S
C384 H378 0.930 . S
C384 C385 1.367 . S
C384 C392 1.378 . S
C385 C384 1.367 . S
C385 C393 1.433 . S
C386 H382 0.929 . S
C386 C388 1.378 1_455 S
C386 C390 1.350 . S
C387 C390 1.463 . S
C387 C392 1.350 . S
C387 N395 1.427 . S
C388 H379 0.930 . S
C388 C386 1.378 1_655 S
C388 C389 1.367 . S
C389 C388 1.367 . S
C389 C391 1.433 1_655 S
C390 C386 1.350 . S
C390 C387 1.463 . S
C390 N394 1.427 . S
C391 H381 0.929 1_455 S
C391 C389 1.433 1_455 S
C391 N394 1.384 . S
C392 H383 0.929 . S
C392 C384 1.378 . S
C392 C387 1.350 . S
C393 H380 0.929 . S
C393 C385 1.433 . S
C393 N395 1.384 . S
N394 C390 1.427 . S
N394 C391 1.384 . S
N395 C387 1.427 . S
N395 C393 1.384 . S
H396 C402 0.930 . S
H397 C406 0.930 . S
H398 C411 0.929 . S
H399 C409 0.929 . S
H400 C404 0.929 . S
H401 C410 0.929 . S
C402 H396 0.930 . S
C402 C403 1.367 . S
C402 C410 1.378 . S
C403 C402 1.367 . S
C403 C411 1.433 . S
C404 H400 0.929 . S
C404 C406 1.378 . S
C404 C408 1.350 1_455 S
C405 C408 1.463 . S
C405 C410 1.350 . S
C405 N413 1.427 . S
C406 H397 0.930 . S
C406 C404 1.378 . S
C406 C407 1.367 . S
C407 C406 1.367 . S
C407 C409 1.433 . S
C408 C404 1.350 1_655 S
C408 C405 1.463 . S
C408 N412 1.427 . S
C409 H399 0.929 . S
C409 C407 1.433 . S
C409 N412 1.384 1_455 S
C410 H401 0.929 . S
C410 C402 1.378 . S
C410 C405 1.350 . S
C411 H398 0.929 . S
C411 C403 1.433 . S
C411 N413 1.384 . S
N412 C408 1.427 . S
N412 C409 1.384 1_655 S
N413 C405 1.427 . S
N413 C411 1.384 . S
H414 C420 0.930 . S
H415 C424 0.941 . S
H416 C429 0.929 . S
H417 C427 0.929 . S
H418 C422 0.929 . S
H419 C428 0.929 . S
C420 H414 0.930 . S
C420 C421 1.367 . S
C420 C428 1.378 . S
C421 C420 1.367 . S
C421 C429 1.433 . S
C422 H418 0.929 . S
C422 C424 1.378 . S
C422 C426 1.350 . S
C423 C426 1.463 . S
C423 C428 1.350 . S
C423 N431 1.427 . S
C424 H415 0.941 . S
C424 C422 1.378 . S
C424 C425 1.367 . S
C425 C424 1.367 . S
C425 C427 1.433 . S
C426 C422 1.350 . S
C426 C423 1.463 . S
C426 N430 1.427 . S
C427 H417 0.929 . S
C427 C425 1.433 . S
C427 N430 1.384 . S
C428 H419 0.929 . S
C428 C420 1.378 . S
C428 C423 1.350 . S
C429 H416 0.929 . S
C429 C421 1.433 . S
C429 N431 1.384 . S
N430 C426 1.427 . S
N430 C427 1.384 . S
N431 C423 1.427 . S
N431 C429 1.384 . S
H432 C438 0.930 . S
H433 C442 0.930 . S
H434 C447 0.929 . S
H435 C445 0.929 . S
H436 C440 0.929 . S
H437 C446 0.929 . S
C438 H432 0.930 . S
C438 C439 1.367 . S
C438 C446 1.378 . S
C439 C438 1.367 . S
C439 C447 1.433 . S
C440 H436 0.929 . S
C440 C442 1.378 . S
C440 C444 1.350 . S
C441 C444 1.463 . S
C441 C446 1.350 . S
C441 N449 1.427 . S
C442 H433 0.930 . S
C442 C440 1.378 . S
C442 C443 1.367 . S
C443 C442 1.367 . S
C443 C445 1.433 . S
C444 C440 1.350 . S
C444 C441 1.463 . S
C444 N448 1.427 . S
C445 H435 0.929 . S
C445 C443 1.433 . S
C445 N448 1.384 . S
C446 H437 0.929 . S
C446 C438 1.378 . S
C446 C441 1.350 . S
C447 H434 0.929 . S
C447 C439 1.433 . S
C447 N449 1.384 . S
N448 C444 1.427 . S
N448 C445 1.384 . S
N449 C441 1.427 . S
N449 C447 1.384 . S
H450 C456 0.930 . S
H451 C460 0.930 . S
H452 C465 0.929 . S
H453 C463 0.929 . S
H454 C458 0.929 . S
H455 C464 0.929 . S
C456 H450 0.930 . S
C456 C457 1.367 . S
C456 C464 1.378 . S
C457 C456 1.367 . S
C457 C465 1.433 . S
C458 H454 0.929 . S
C458 C460 1.378 1_565 S
C458 C462 1.350 . S
C459 C462 1.463 . S
C459 C464 1.350 . S
C459 N467 1.427 . S
C460 H451 0.930 . S
C460 C458 1.378 1_545 S
C460 C461 1.367 . S
C461 C460 1.367 . S
C461 C463 1.433 . S
C462 C458 1.350 . S
C462 C459 1.463 . S
C462 N466 1.427 . S
C463 H453 0.929 . S
C463 C461 1.433 . S
C463 N466 1.384 1_545 S
C464 H455 0.929 . S
C464 C456 1.378 . S
C464 C459 1.350 . S
C465 H452 0.929 . S
C465 C457 1.433 . S
C465 N467 1.384 . S
N466 C462 1.427 . S
N466 C463 1.384 1_565 S
N467 C459 1.427 . S
N467 C465 1.384 . S
H468 C474 0.930 1_455 S
H469 C478 0.930 . S
H470 C483 0.929 . S
H471 C481 0.929 . S
H472 C476 0.929 . S
H473 C482 0.929 . S
C474 H468 0.930 1_655 S
C474 C475 1.367 . S
C474 C482 1.378 . S
C475 C474 1.367 . S
C475 C483 1.433 . S
C476 H472 0.929 . S
C476 C478 1.378 . S
C476 C480 1.350 . S
C477 C480 1.463 . S
C477 C482 1.350 . S
C477 N485 1.427 . S
C478 H469 0.930 . S
C478 C476 1.378 . S
C478 C479 1.367 . S
C479 C478 1.367 . S
C479 C481 1.433 . S
C480 C476 1.350 . S
C480 C477 1.463 . S
C480 N484 1.427 . S
C481 H471 0.929 . S
C481 C479 1.433 . S
C481 N484 1.384 . S
C482 H473 0.929 . S
C482 C474 1.378 . S
C482 C477 1.350 . S
C483 H470 0.929 . S
C483 C475 1.433 . S
C483 N485 1.384 . S
N484 C480 1.427 . S
N484 C481 1.384 . S
N485 C477 1.427 . S
N485 C483 1.384 . S
H486 C492 0.930 . S
H487 C496 0.930 . S
H488 C501 0.929 . S
H489 C499 0.929 . S
H490 C494 0.929 . S
H491 C500 0.929 . S
C492 H486 0.930 . S
C492 C493 1.367 . S
C492 C500 1.378 1_655 S
C493 C492 1.367 . S
C493 C501 1.433 . S
C494 H490 0.929 . S
C494 C496 1.378 . S
C494 C498 1.350 . S
C495 C498 1.463 . S
C495 C500 1.350 . S
C495 N503 1.427 . S
C496 H487 0.930 . S
C496 C494 1.378 . S
C496 C497 1.367 . S
C497 C496 1.367 . S
C497 C499 1.433 . S
C498 C494 1.350 . S
C498 C495 1.463 . S
C498 N502 1.427 . S
C499 H489 0.929 . S
C499 C497 1.433 . S
C499 N502 1.384 . S
C500 H491 0.929 . S
C500 C492 1.378 1_455 S
C500 C495 1.350 . S
C501 H488 0.929 . S
C501 C493 1.433 . S
C501 N503 1.384 1_655 S
N502 C498 1.427 . S
N502 C499 1.384 . S
N503 C495 1.427 . S
N503 C501 1.384 1_455 S
H504 C510 0.930 . S
H505 C514 0.930 . S
H506 C519 0.929 . S
H507 C517 0.929 . S
H508 C512 0.929 . S
H509 C518 0.929 . S
C510 H504 0.930 . S
C510 C511 1.367 . S
C510 C518 1.378 . S
C511 C510 1.367 . S
C511 C519 1.433 . S
C512 H508 0.929 . S
C512 C514 1.378 1_545 S
C512 C516 1.350 . S
C513 C516 1.463 . S
C513 C518 1.350 . S
C513 N521 1.427 . S
C514 H505 0.930 . S
C514 C512 1.378 1_565 S
C514 C515 1.367 . S
C515 C514 1.367 . S
C515 C517 1.433 1_565 S
C516 C512 1.350 . S
C516 C513 1.463 . S
C516 N520 1.427 . S
C517 H507 0.929 . S
C517 C515 1.433 1_545 S
C517 N520 1.384 . S
C518 H509 0.929 . S
C518 C510 1.378 . S
C518 C513 1.350 . S
C519 H506 0.929 . S
C519 C511 1.433 . S
C519 N521 1.384 . S
N520 C516 1.427 . S
N520 C517 1.384 . S
N521 C513 1.427 . S
N521 C519 1.384 . S
H522 C528 0.930 . S
H523 C532 0.930 . S
H524 C537 0.929 . S
H525 C535 0.929 1_655 S
H526 C530 0.929 . S
H527 C536 0.929 . S
C528 H522 0.930 . S
C528 C529 1.367 . S
C528 C536 1.378 . S
C529 C528 1.367 . S
C529 C537 1.433 . S
C530 H526 0.929 . S
C530 C532 1.378 . S
C530 C534 1.350 . S
C531 C534 1.463 . S
C531 C536 1.350 . S
C531 N539 1.427 . S
C532 H523 0.930 . S
C532 C530 1.378 . S
C532 C533 1.367 . S
C533 C532 1.367 . S
C533 C535 1.433 . S
C534 C530 1.350 . S
C534 C531 1.463 . S
C534 N538 1.427 . S
C535 H525 0.929 1_455 S
C535 C533 1.433 . S
C535 N538 1.384 . S
C536 H527 0.929 . S
C536 C528 1.378 . S
C536 C531 1.350 . S
C537 H524 0.929 . S
C537 C529 1.433 . S
C537 N539 1.384 . S
N538 C534 1.427 . S
N538 C535 1.384 . S
N539 C531 1.427 . S
N539 C537 1.384 . S
H540 C546 0.930 . S
H541 C550 0.930 1_565 S
H542 C555 0.929 . S
H543 C553 0.929 . S
H544 C548 0.929 . S
H545 C554 0.929 . S
C546 H540 0.930 . S
C546 C547 1.367 1_655 S
C546 C554 1.378 . S
C547 C546 1.367 1_455 S
C547 C555 1.433 . S
C548 H544 0.929 . S
C548 C550 1.378 . S
C548 C552 1.350 . S
C549 C552 1.463 . S
C549 C554 1.350 . S
C549 N557 1.427 . S
C550 H541 0.930 1_545 S
C550 C548 1.378 . S
C550 C551 1.367 . S
C551 C550 1.367 . S
C551 C553 1.433 . S
C552 C548 1.350 . S
C552 C549 1.463 . S
C552 N556 1.427 . S
C553 H543 0.929 . S
C553 C551 1.433 . S
C553 N556 1.384 . S
C554 H545 0.929 . S
C554 C546 1.378 . S
C554 C549 1.350 . S
C555 H542 0.929 . S
C555 C547 1.433 . S
C555 N557 1.384 1_455 S
N556 C552 1.427 . S
N556 C553 1.384 . S
N557 C549 1.427 . S
N557 C555 1.384 1_655 S
H558 C564 0.930 . S
H559 C568 0.930 . S
H560 C573 0.929 . S
H561 C571 0.929 . S
H562 C566 0.929 . S
H563 C572 0.929 . S
C564 H558 0.930 . S
C564 C565 1.367 . S
C564 C572 1.378 . S
C565 C564 1.367 . S
C565 C573 1.433 . S
C566 H562 0.929 . S
C566 C568 1.378 . S
C566 C570 1.350 . S
C567 C570 1.463 . S
C567 C572 1.350 . S
C567 N575 1.427 . S
C568 H559 0.930 . S
C568 C566 1.378 . S
C568 C569 1.367 1_565 S
C569 C568 1.367 1_545 S
C569 C571 1.433 . S
C570 C566 1.350 . S
C570 C567 1.463 . S
C570 N574 1.427 . S
C571 H561 0.929 . S
C571 C569 1.433 . S
C571 N574 1.384 1_545 S
C572 H563 0.929 . S
C572 C564 1.378 . S
C572 C567 1.350 . S
C573 H560 0.929 . S
C573 C565 1.433 . S
C573 N575 1.384 . S
N574 C570 1.427 . S
N574 C571 1.384 1_565 S
N575 C567 1.427 . S
N575 C573 1.384 . S
H576 C582 0.930 . S
H577 C586 0.930 . S
H578 C591 0.929 . S
H579 C589 0.929 . S
H580 C584 0.929 . S
H581 C590 0.929 . S
C582 H576 0.930 . S
C582 C583 1.367 . S
C582 C590 1.378 . S
C583 C582 1.367 . S
C583 C591 1.433 . S
C584 H580 0.929 . S
C584 C586 1.378 . S
C584 C588 1.350 . S
C585 C588 1.463 . S
C585 C590 1.350 . S
C585 N593 1.427 . S
C586 H577 0.930 . S
C586 C584 1.378 . S
C586 C587 1.367 . S
C587 C586 1.367 . S
C587 C589 1.433 . S
C588 C584 1.350 . S
C588 C585 1.463 . S
C588 N592 1.427 . S
C589 H579 0.929 . S
C589 C587 1.433 . S
C589 N592 1.384 . S
C590 H581 0.929 . S
C590 C582 1.378 . S
C590 C585 1.350 . S
C591 H578 0.929 . S
C591 C583 1.433 . S
C591 N593 1.384 . S
N592 C588 1.427 . S
N592 C589 1.384 . S
N593 C585 1.427 . S
N593 C591 1.384 . S
H594 C600 0.930 . S
H595 C604 0.930 . S
H596 C609 0.929 . S
H597 C607 0.929 . S
H598 C602 0.929 . S
H599 C608 0.929 . S
C600 H594 0.930 . S
C600 C601 1.367 . S
C600 C608 1.378 . S
C601 C600 1.367 . S
C601 C609 1.433 . S
C602 H598 0.929 . S
C602 C604 1.378 . S
C602 C606 1.350 . S
C603 C606 1.463 . S
C603 C608 1.350 . S
C603 N611 1.427 . S
C604 H595 0.930 . S
C604 C602 1.378 . S
C604 C605 1.367 . S
C605 C604 1.367 . S
C605 C607 1.433 . S
C606 C602 1.350 . S
C606 C603 1.463 . S
C606 N610 1.427 . S
C607 H597 0.929 . S
C607 C605 1.433 . S
C607 N610 1.384 . S
C608 H599 0.929 . S
C608 C600 1.378 . S
C608 C603 1.350 . S
C609 H596 0.929 . S
C609 C601 1.433 . S
C609 N611 1.384 . S
N610 C606 1.427 . S
N610 C607 1.384 . S
N611 C603 1.427 . S
N611 C609 1.384 . S
H612 C618 0.930 . S
H613 C622 0.930 . S
H614 C627 0.929 . S
H615 C625 0.929 . S
H616 C620 0.929 . S
H617 C626 0.929 . S
C618 H612 0.930 . S
C618 C619 1.367 . S
C618 C626 1.378 . S
C619 C618 1.367 . S
C619 C627 1.433 . S
C620 H616 0.929 . S
C620 C622 1.378 . S
C620 C624 1.350 . S
C621 C624 1.463 . S
C621 C626 1.350 . S
C621 N629 1.427 . S
C622 H613 0.930 . S
C622 C620 1.378 . S
C622 C623 1.367 . S
C623 C622 1.367 . S
C623 C625 1.433 . S
C624 C620 1.350 . S
C624 C621 1.463 . S
C624 N628 1.427 . S
C625 H615 0.929 . S
C625 C623 1.433 . S
C625 N628 1.384 . S
C626 H617 0.929 . S
C626 C618 1.378 . S
C626 C621 1.350 . S
C627 H614 0.929 . S
C627 C619 1.433 . S
C627 N629 1.384 . S
N628 C624 1.427 . S
N628 C625 1.384 . S
N629 C621 1.427 . S
N629 C627 1.384 . S
H630 C636 0.930 . S
H631 C640 0.930 . S
H632 C645 0.929 . S
H633 C643 0.929 . S
H634 C638 0.929 . S
H635 C644 0.929 . S
C636 H630 0.930 . S
C636 C637 1.367 . S
C636 C644 1.378 . S
C637 C636 1.367 . S
C637 C645 1.433 . S
C638 H634 0.929 . S
C638 C640 1.378 . S
C638 C642 1.350 . S
C639 C642 1.463 . S
C639 C644 1.350 . S
C639 N647 1.427 . S
C640 H631 0.930 . S
C640 C638 1.378 . S
C640 C641 1.367 . S
C641 C640 1.367 . S
C641 C643 1.433 . S
C642 C638 1.350 . S
C642 C639 1.463 . S
C642 N646 1.427 . S
C643 H633 0.929 . S
C643 C641 1.433 . S
C643 N646 1.384 . S
C644 H635 0.929 . S
C644 C636 1.378 . S
C644 C639 1.350 . S
C645 H632 0.929 . S
C645 C637 1.433 . S
C645 N647 1.384 . S
N646 C642 1.427 . S
N646 C643 1.384 . S
N647 C639 1.427 . S
N647 C645 1.384 . S
H648 C654 0.930 . S
H649 C658 0.930 . S
H650 C663 0.929 . S
H651 C661 0.929 . S
H652 C656 0.929 . S
H653 C662 0.929 . S
C654 H648 0.930 . S
C654 C655 1.367 . S
C654 C662 1.378 . S
C655 C654 1.367 . S
C655 C663 1.433 . S
C656 H652 0.929 . S
C656 C658 1.378 . S
C656 C660 1.350 . S
C657 C660 1.463 . S
C657 C662 1.350 . S
C657 N665 1.427 . S
C658 H649 0.930 . S
C658 C656 1.378 . S
C658 C659 1.367 . S
C659 C658 1.367 . S
C659 C661 1.433 . S
C660 C656 1.350 . S
C660 C657 1.463 . S
C660 N664 1.427 . S
C661 H651 0.929 . S
C661 C659 1.433 . S
C661 N664 1.384 . S
C662 H653 0.929 . S
C662 C654 1.378 . S
C662 C657 1.350 . S
C663 H650 0.929 . S
C663 C655 1.433 . S
C663 N665 1.384 . S
N664 C660 1.427 . S
N664 C661 1.384 . S
N665 C657 1.427 . S
N665 C663 1.384 . S
H666 C672 0.930 . S
H667 C676 0.930 . S
H668 C681 0.929 . S
H669 C679 0.929 . S
H670 C674 0.929 . S
H671 C680 0.929 . S
C672 H666 0.930 . S
C672 C673 1.367 . S
C672 C680 1.378 . S
C673 C672 1.367 . S
C673 C681 1.433 . S
C674 H670 0.929 . S
C674 C676 1.378 . S
C674 C678 1.350 . S
C675 C678 1.463 . S
C675 C680 1.350 . S
C675 N683 1.427 . S
C676 H667 0.930 . S
C676 C674 1.378 . S
C676 C677 1.367 . S
C677 C676 1.367 . S
C677 C679 1.433 . S
C678 C674 1.350 . S
C678 C675 1.463 . S
C678 N682 1.427 . S
C679 H669 0.929 . S
C679 C677 1.433 . S
C679 N682 1.384 . S
C680 H671 0.929 . S
C680 C672 1.378 . S
C680 C675 1.350 . S
C681 H668 0.929 . S
C681 C673 1.433 . S
C681 N683 1.384 . S
N682 C678 1.427 . S
N682 C679 1.384 . S
N683 C675 1.427 . S
N683 C681 1.384 . S
H684 C690 0.930 . S
H685 C694 0.930 . S
H686 C699 0.929 . S
H687 C697 0.929 . S
H688 C692 0.929 . S
H689 C698 0.929 . S
C690 H684 0.930 . S
C690 C691 1.367 . S
C690 C698 1.378 . S
C691 C690 1.367 . S
C691 C699 1.433 . S
C692 H688 0.929 . S
C692 C694 1.378 . S
C692 C696 1.350 . S
C693 C696 1.463 . S
C693 C698 1.350 . S
C693 N701 1.427 . S
C694 H685 0.930 . S
C694 C692 1.378 . S
C694 C695 1.367 . S
C695 C694 1.367 . S
C695 C697 1.433 . S
C696 C692 1.350 . S
C696 C693 1.463 . S
C696 N700 1.427 . S
C697 H687 0.929 . S
C697 C695 1.433 . S
C697 N700 1.384 . S
C698 H689 0.929 . S
C698 C690 1.378 . S
C698 C693 1.350 . S
C699 H686 0.929 . S
C699 C691 1.433 . S
C699 N701 1.384 . S
N700 C696 1.427 . S
N700 C697 1.384 . S
N701 C693 1.427 . S
N701 C699 1.384 . S
H702 C708 0.930 . S
H703 C712 0.930 . S
H704 C717 0.929 . S
H705 C715 0.929 . S
H706 C710 0.929 . S
H707 C716 0.929 . S
C708 H702 0.930 . S
C708 C709 1.367 . S
C708 C716 1.378 . S
C709 C708 1.367 . S
C709 C717 1.433 . S
C710 H706 0.929 . S
C710 C712 1.378 . S
C710 C714 1.350 . S
C711 C714 1.463 . S
C711 C716 1.350 . S
C711 N719 1.427 . S
C712 H703 0.930 . S
C712 C710 1.378 . S
C712 C713 1.367 . S
C713 C712 1.367 . S
C713 C715 1.433 . S
C714 C710 1.350 . S
C714 C711 1.463 . S
C714 N718 1.427 . S
C715 H705 0.929 . S
C715 C713 1.433 . S
C715 N718 1.384 . S
C716 H707 0.929 . S
C716 C708 1.378 . S
C716 C711 1.350 . S
C717 H704 0.929 . S
C717 C709 1.433 . S
C717 N719 1.384 . S
N718 C714 1.427 . S
N718 C715 1.384 . S
N719 C711 1.427 . S
N719 C717 1.384 . S
H720 C726 0.930 . S
H721 C730 0.930 . S
H722 C735 0.929 . S
H723 C733 0.929 . S
H724 C728 0.929 . S
H725 C734 0.929 . S
C726 H720 0.930 . S
C726 C727 1.367 . S
C726 C734 1.378 . S
C727 C726 1.367 . S
C727 C735 1.433 . S
C728 H724 0.929 . S
C728 C730 1.378 . S
C728 C732 1.350 . S
C729 C732 1.463 . S
C729 C734 1.350 . S
C729 N737 1.427 . S
C730 H721 0.930 . S
C730 C728 1.378 . S
C730 C731 1.367 . S
C731 C730 1.367 . S
C731 C733 1.433 . S
C732 C728 1.350 . S
C732 C729 1.463 . S
C732 N736 1.427 . S
C733 H723 0.929 . S
C733 C731 1.433 . S
C733 N736 1.384 . S
C734 H725 0.929 . S
C734 C726 1.378 . S
C734 C729 1.350 . S
C735 H722 0.929 . S
C735 C727 1.433 . S
C735 N737 1.384 . S
N736 C732 1.427 . S
N736 C733 1.384 . S
N737 C729 1.427 . S
N737 C735 1.384 . S
H738 C744 0.930 . S
H739 C748 0.930 . S
H740 C753 0.929 . S
H741 C751 0.929 . S
H742 C746 0.929 . S
H743 C752 0.929 . S
C744 H738 0.930 . S
C744 C745 1.367 . S
C744 C752 1.378 . S
C745 C744 1.367 . S
C745 C753 1.433 . S
C746 H742 0.929 . S
C746 C748 1.378 . S
C746 C750 1.350 . S
C747 C750 1.463 . S
C747 C752 1.350 . S
C747 N755 1.427 . S
C748 H739 0.930 . S
C748 C746 1.378 . S
C748 C749 1.367 . S
C749 C748 1.367 . S
C749 C751 1.433 . S
C750 C746 1.350 . S
C750 C747 1.463 . S
C750 N754 1.427 . S
C751 H741 0.929 . S
C751 C749 1.433 . S
C751 N754 1.384 . S
C752 H743 0.929 . S
C752 C744 1.378 . S
C752 C747 1.350 . S
C753 H740 0.929 . S
C753 C745 1.433 . S
C753 N755 1.384 . S
N754 C750 1.427 . S
N754 C751 1.384 . S
N755 C747 1.427 . S
N755 C753 1.384 . S
H756 C762 0.930 . S
H757 C766 0.930 . S
H758 C771 0.929 . S
H759 C769 0.929 . S
H760 C764 0.929 . S
H761 C770 0.929 . S
C762 H756 0.930 . S
C762 C763 1.367 . S
C762 C770 1.378 . S
C763 C762 1.367 . S
C763 C771 1.433 . S
C764 H760 0.929 . S
C764 C766 1.378 . S
C764 C768 1.350 . S
C765 C768 1.463 . S
C765 C770 1.350 . S
C765 N773 1.427 . S
C766 H757 0.930 . S
C766 C764 1.378 . S
C766 C767 1.367 . S
C767 C766 1.367 . S
C767 C769 1.433 . S
C768 C764 1.350 . S
C768 C765 1.463 . S
C768 N772 1.427 . S
C769 H759 0.929 . S
C769 C767 1.433 . S
C769 N772 1.384 . S
C770 H761 0.929 . S
C770 C762 1.378 . S
C770 C765 1.350 . S
C771 H758 0.929 . S
C771 C763 1.433 . S
C771 N773 1.384 . S
N772 C768 1.427 . S
N772 C769 1.384 . S
N773 C765 1.427 . S
N773 C771 1.384 . S
H774 C780 0.930 . S
H775 C784 0.930 . S
H776 C789 0.929 . S
H777 C787 0.929 . S
H778 C782 0.929 . S
H779 C788 0.929 . S
C780 H774 0.930 . S
C780 C781 1.367 . S
C780 C788 1.378 . S
C781 C780 1.367 . S
C781 C789 1.433 . S
C782 H778 0.929 . S
C782 C784 1.378 . S
C782 C786 1.350 . S
C783 C786 1.463 . S
C783 C788 1.350 . S
C783 N791 1.427 . S
C784 H775 0.930 . S
C784 C782 1.378 . S
C784 C785 1.367 . S
C785 C784 1.367 . S
C785 C787 1.433 . S
C786 C782 1.350 . S
C786 C783 1.463 . S
C786 N790 1.427 . S
C787 H777 0.929 . S
C787 C785 1.433 . S
C787 N790 1.384 . S
C788 H779 0.929 . S
C788 C780 1.378 . S
C788 C783 1.350 . S
C789 H776 0.929 . S
C789 C781 1.433 . S
C789 N791 1.384 . S
N790 C786 1.427 . S
N790 C787 1.384 . S
N791 C783 1.427 . S
N791 C789 1.384 . S
H792 C798 0.930 . S
H793 C802 0.930 . S
H794 C807 0.929 . S
H795 C805 0.929 . S
H796 C800 0.929 . S
H797 C806 0.929 . S
C798 H792 0.930 . S
C798 C799 1.367 . S
C798 C806 1.378 . S
C799 C798 1.367 . S
C799 C807 1.433 . S
C800 H796 0.929 . S
C800 C802 1.378 . S
C800 C804 1.350 . S
C801 C804 1.463 . S
C801 C806 1.350 . S
C801 N809 1.427 . S
C802 H793 0.930 . S
C802 C800 1.378 . S
C802 C803 1.367 . S
C803 C802 1.367 . S
C803 C805 1.433 . S
C804 C800 1.350 . S
C804 C801 1.463 . S
C804 N808 1.427 . S
C805 H795 0.929 . S
C805 C803 1.433 . S
C805 N808 1.384 . S
C806 H797 0.929 . S
C806 C798 1.378 . S
C806 C801 1.350 . S
C807 H794 0.929 . S
C807 C799 1.433 . S
C807 N809 1.384 . S
N808 C804 1.427 . S
N808 C805 1.384 . S
N809 C801 1.427 . S
N809 C807 1.384 . S
H810 C816 0.930 . S
H811 C820 0.930 . S
H812 C825 0.929 . S
H813 C823 0.929 . S
H814 C818 0.929 . S
H815 C824 0.929 . S
C816 H810 0.930 . S
C816 C817 1.367 . S
C816 C824 1.378 . S
C817 C816 1.367 . S
C817 C825 1.433 . S
C818 H814 0.929 . S
C818 C820 1.378 . S
C818 C822 1.350 . S
C819 C822 1.463 . S
C819 C824 1.350 . S
C819 N827 1.427 . S
C820 H811 0.930 . S
C820 C818 1.378 . S
C820 C821 1.367 . S
C821 C820 1.367 . S
C821 C823 1.433 . S
C822 C818 1.350 . S
C822 C819 1.463 . S
C822 N826 1.427 . S
C823 H813 0.929 . S
C823 C821 1.433 . S
C823 N826 1.384 . S
C824 H815 0.929 . S
C824 C816 1.378 . S
C824 C819 1.350 . S
C825 H812 0.929 . S
C825 C817 1.433 . S
C825 N827 1.384 . S
N826 C822 1.427 . S
N826 C823 1.384 . S
N827 C819 1.427 . S
N827 C825 1.384 . S
H828 C834 0.930 . S
H829 C838 0.930 . S
H830 C843 0.929 . S
H831 C841 0.929 . S
H832 C836 0.929 . S
H833 C842 0.929 . S
C834 H828 0.930 . S
C834 C835 1.367 . S
C834 C842 1.378 . S
C835 C834 1.367 . S
C835 C843 1.433 . S
C836 H832 0.929 . S
C836 C838 1.378 . S
C836 C840 1.350 . S
C837 C840 1.463 . S
C837 C842 1.350 . S
C837 N845 1.427 . S
C838 H829 0.930 . S
C838 C836 1.378 . S
C838 C839 1.367 . S
C839 C838 1.367 . S
C839 C841 1.433 . S
C840 C836 1.350 . S
C840 C837 1.463 . S
C840 N844 1.427 . S
C841 H831 0.929 . S
C841 C839 1.433 . S
C841 N844 1.384 . S
C842 H833 0.929 . S
C842 C834 1.378 . S
C842 C837 1.350 . S
C843 H830 0.929 . S
C843 C835 1.433 . S
C843 N845 1.384 . S
N844 C840 1.427 . S
N844 C841 1.384 . S
N845 C837 1.427 . S
N845 C843 1.384 . S
H846 C852 0.930 . S
H847 C856 0.930 . S
H848 C861 0.929 . S
H849 C859 0.929 . S
H850 C854 0.929 . S
H851 C860 0.929 . S
C852 H846 0.930 . S
C852 C853 1.367 . S
C852 C860 1.378 . S
C853 C852 1.367 . S
C853 C861 1.433 . S
C854 H850 0.929 . S
C854 C856 1.378 . S
C854 C858 1.350 . S
C855 C858 1.463 . S
C855 C860 1.350 . S
C855 N863 1.427 . S
C856 H847 0.930 . S
C856 C854 1.378 . S
C856 C857 1.367 . S
C857 C856 1.367 . S
C857 C859 1.433 . S
C858 C854 1.350 . S
C858 C855 1.463 . S
C858 N862 1.427 . S
C859 H849 0.929 . S
C859 C857 1.433 . S
C859 N862 1.384 . S
C860 H851 0.929 . S
C860 C852 1.378 . S
C860 C855 1.350 . S
C861 H848 0.929 . S
C861 C853 1.433 . S
C861 N863 1.384 . S
N862 C858 1.427 . S
N862 C859 1.384 . S
N863 C855 1.427 . S
N863 C861 1.384 . S
H864 C870 0.930 . S
H865 C874 0.930 . S
H866 C879 0.929 . S
H867 C877 0.929 . S
H868 C872 0.929 . S
H869 C878 0.929 . S
C870 H864 0.930 . S
C870 C871 1.367 . S
C870 C878 1.378 . S
C871 C870 1.367 . S
C871 C879 1.433 . S
C872 H868 0.929 . S
C872 C874 1.378 . S
C872 C876 1.350 . S
C873 C876 1.463 . S
C873 C878 1.350 . S
C873 N881 1.427 . S
C874 H865 0.930 . S
C874 C872 1.378 . S
C874 C875 1.367 . S
C875 C874 1.367 . S
C875 C877 1.433 . S
C876 C872 1.350 . S
C876 C873 1.463 . S
C876 N880 1.427 . S
C877 H867 0.929 . S
C877 C875 1.433 . S
C877 N880 1.384 . S
C878 H869 0.929 . S
C878 C870 1.378 . S
C878 C873 1.350 . S
C879 H866 0.929 . S
C879 C871 1.433 . S
C879 N881 1.384 . S
N880 C876 1.427 . S
N880 C877 1.384 . S
N881 C873 1.427 . S
N881 C879 1.384 . S
H882 C888 0.930 . S
H883 C892 0.930 . S
H884 C897 0.929 . S
H885 C895 0.929 . S
H886 C890 0.929 . S
H887 C896 0.929 . S
C888 H882 0.930 . S
C888 C889 1.367 . S
C888 C896 1.378 . S
C889 C888 1.367 . S
C889 C897 1.433 . S
C890 H886 0.929 . S
C890 C892 1.378 . S
C890 C894 1.350 . S
C891 C894 1.463 . S
C891 C896 1.350 . S
C891 N899 1.427 . S
C892 H883 0.930 . S
C892 C890 1.378 . S
C892 C893 1.367 . S
C893 C892 1.367 . S
C893 C895 1.433 . S
C894 C890 1.350 . S
C894 C891 1.463 . S
C894 N898 1.427 . S
C895 H885 0.929 . S
C895 C893 1.433 . S
C895 N898 1.384 . S
C896 H887 0.929 . S
C896 C888 1.378 . S
C896 C891 1.350 . S
C897 H884 0.929 . S
C897 C889 1.433 . S
C897 N899 1.384 . S
N898 C894 1.427 . S
N898 C895 1.384 . S
N899 C891 1.427 . S
N899 C897 1.384 . S
H900 C906 0.930 . S
H901 C910 0.930 . S
H902 C915 0.929 . S
H903 C913 0.929 . S
H904 C908 0.929 . S
H905 C914 0.929 . S
C906 H900 0.930 . S
C906 C907 1.367 . S
C906 C914 1.378 . S
C907 C906 1.367 . S
C907 C915 1.433 . S
C908 H904 0.929 . S
C908 C910 1.378 . S
C908 C912 1.350 . S
C909 C912 1.463 1_556 S
C909 C914 1.350 . S
C909 N917 1.427 . S
C910 H901 0.930 . S
C910 C908 1.378 . S
C910 C911 1.367 . S
C911 C910 1.367 . S
C911 C913 1.433 . S
C912 C908 1.350 . S
C912 C909 1.463 1_554 S
C912 N916 1.427 . S
C913 H903 0.929 . S
C913 C911 1.433 . S
C913 N916 1.384 . S
C914 H905 0.929 . S
C914 C906 1.378 . S
C914 C909 1.350 . S
C915 H902 0.929 . S
C915 C907 1.433 . S
C915 N917 1.384 . S
N916 C912 1.427 . S
N916 C913 1.384 . S
N917 C909 1.427 . S
N917 C915 1.384 . S
H918 C924 0.930 . S
H919 C928 0.930 . S
H920 C933 0.929 . S
H921 C931 0.929 . S
H922 C926 0.929 . S
H923 C932 0.929 . S
C924 H918 0.930 . S
C924 C925 1.367 . S
C924 C932 1.378 . S
C925 C924 1.367 . S
C925 C933 1.433 . S
C926 H922 0.929 . S
C926 C928 1.378 . S
C926 C930 1.350 . S
C927 C930 1.463 1_455 S
C927 C932 1.350 . S
C927 N935 1.427 . S
C928 H919 0.930 . S
C928 C926 1.378 . S
C928 C929 1.367 . S
C929 C928 1.367 . S
C929 C931 1.433 . S
C930 C926 1.350 . S
C930 C927 1.463 1_655 S
C930 N934 1.427 . S
C931 H921 0.929 . S
C931 C929 1.433 . S
C931 N934 1.384 . S
C932 H923 0.929 . S
C932 C924 1.378 . S
C932 C927 1.350 . S
C933 H920 0.929 . S
C933 C925 1.433 . S
C933 N935 1.384 . S
N934 C930 1.427 . S
N934 C931 1.384 . S
N935 C927 1.427 . S
N935 C933 1.384 . S
H936 C942 0.930 . S
H937 C946 0.930 . S
H938 C951 0.929 . S
H939 C949 0.929 . S
H940 C944 0.929 1_565 S
H941 C950 0.929 1_545 S
C942 H936 0.930 . S
C942 C943 1.367 . S
C942 C950 1.378 . S
C943 C942 1.367 . S
C943 C951 1.433 . S
C944 H940 0.929 1_545 S
C944 C946 1.378 . S
C944 C948 1.350 . S
C945 C948 1.463 1_564 S
C945 C950 1.350 . S
C945 N953 1.427 . S
C946 H937 0.930 . S
C946 C944 1.378 . S
C946 C947 1.367 . S
C947 C946 1.367 . S
C947 C949 1.433 . S
C948 C944 1.350 . S
C948 C945 1.463 1_546 S
C948 N952 1.427 . S
C949 H939 0.929 . S
C949 C947 1.433 . S
C949 N952 1.384 . S
C950 H941 0.929 1_565 S
C950 C942 1.378 . S
C950 C945 1.350 . S
C951 H938 0.929 . S
C951 C943 1.433 . S
C951 N953 1.384 . S
N952 C948 1.427 . S
N952 C949 1.384 . S
N953 C945 1.427 . S
N953 C951 1.384 . S
H954 C960 0.930 . S
H955 C964 0.930 . S
H956 C969 0.929 . S
H957 C967 0.929 . S
H958 C962 0.929 . S
H959 C968 0.929 . S
C960 H954 0.930 . S
C960 C961 1.367 . S
C960 C968 1.378 . S
C961 C960 1.367 . S
C961 C969 1.433 . S
C962 H958 0.929 . S
C962 C964 1.378 . S
C962 C966 1.350 . S
C963 C966 1.463 . S
C963 C968 1.350 . S
C963 N971 1.427 . S
C964 H955 0.930 . S
C964 C962 1.378 . S
C964 C965 1.367 . S
C965 C964 1.367 . S
C965 C967 1.433 . S
C966 C962 1.350 . S
C966 C963 1.463 . S
C966 N970 1.427 . S
C967 H957 0.929 . S
C967 C965 1.433 . S
C967 N970 1.384 . S
C968 H959 0.929 . S
C968 C960 1.378 . S
C968 C963 1.350 . S
C969 H956 0.929 . S
C969 C961 1.433 . S
C969 N971 1.384 . S
N970 C966 1.427 . S
N970 C967 1.384 . S
N971 C963 1.427 . S
N971 C969 1.384 . S
H972 C978 0.930 . S
H973 C982 0.930 . S
H974 C987 0.929 . S
H975 C985 0.929 . S
H976 C980 0.929 1_556 S
H977 C986 0.929 1_554 S
C978 H972 0.930 . S
C978 C979 1.367 . S
C978 C986 1.378 . S
C979 C978 1.367 . S
C979 C987 1.433 . S
C980 H976 0.929 1_554 S
C980 C982 1.378 . S
C980 C984 1.350 . S
C981 C984 1.463 1_656 S
C981 C986 1.350 . S
C981 N989 1.427 . S
C982 H973 0.930 . S
C982 C980 1.378 . S
C982 C983 1.367 . S
C983 C982 1.367 . S
C983 C985 1.433 . S
C984 C980 1.350 . S
C984 C981 1.463 1_454 S
C984 N988 1.427 . S
C985 H975 0.929 . S
C985 C983 1.433 . S
C985 N988 1.384 . S
C986 H977 0.929 1_556 S
C986 C978 1.378 . S
C986 C981 1.350 . S
C987 H974 0.929 . S
C987 C979 1.433 . S
C987 N989 1.384 . S
N988 C984 1.427 . S
N988 C985 1.384 . S
N989 C981 1.427 . S
N989 C987 1.384 . S
H990 C996 0.930 . S
H991 C1000 0.930 . S
H992 C1005 0.929 . S
H993 C1003 0.929 . S
H994 C998 0.929 . S
H995 C1004 0.929 . S
C996 H990 0.930 . S
C996 C997 1.367 . S
C996 C1004 1.378 . S
C997 C996 1.367 . S
C997 C1005 1.433 . S
C998 H994 0.929 . S
C998 C1000 1.378 . S
C998 C1002 1.350 . S
C999 C1002 1.463 1_565 S
C999 C1004 1.350 . S
C999 N1007 1.427 . S
C1000 H991 0.930 . S
C1000 C998 1.378 . S
C1000 C1001 1.367 . S
C1001 C1000 1.367 . S
C1001 C1003 1.433 . S
C1002 C998 1.350 . S
C1002 C999 1.463 1_545 S
C1002 N1006 1.427 . S
C1003 H993 0.929 . S
C1003 C1001 1.433 . S
C1003 N1006 1.384 . S
C1004 H995 0.929 . S
C1004 C996 1.378 . S
C1004 C999 1.350 . S
C1005 H992 0.929 . S
C1005 C997 1.433 . S
C1005 N1007 1.384 . S
N1006 C1002 1.427 . S
N1006 C1003 1.384 . S
N1007 C999 1.427 . S
N1007 C1005 1.384 . S
C367 C147 0.943 . S
C371 N14 0.934 . S
C385 N156 0.814 . S
C389 C46 0.814 . S
C403 N74 0.941 . S
C407 C27 0.934 . S
C421 C106 0.810 . S
C425 N36 0.799 1_565 S
C439 N134 0.938 . S
C443 C87 0.933 . S
C457 N96 0.793 1_455 S
C461 C166 0.805 . S
C475 N246 0.813 1_655 S
C479 C196 0.820 . S
C493 C226 0.818 . S
C497 N276 0.818 1_565 S
C511 N306 0.792 . S
C515 C256 0.801 . S
C529 C286 0.810 . S
C533 N336 0.809 1_455 S
C547 C316 0.814 . S
C551 N186 0.804 1_545 S
C565 N216 0.809 . S
C569 C346 0.817 . S
C583 C136 1.144 . S
C587 N6 1.163 . S
C601 C57 1.247 . S
C605 N164 1.218 . S
C619 N66 1.162 . S
C623 C16 1.151 . S
C637 C117 1.243 . S
C641 N44 1.211 . S
C655 C76 1.151 . S
C659 N126 1.162 . S
C673 N104 1.211 . S
C677 C177 1.244 . S
C691 N254 1.213 . S
C695 C207 1.243 . S
C709 C237 1.248 . S
C713 N284 1.220 . S
C727 C267 1.246 . S
C731 N314 1.218 . S
C745 N344 1.220 . S
C749 C297 1.248 . S
C763 C327 1.238 . S
C767 N194 1.202 . S
C781 N224 1.203 . S
C785 C357 1.239 . S
C799 C301 1.618 . S
C803 C10 1.632 . S
C817 C31 1.620 . S
C821 C331 1.621 . S
C835 C70 1.631 . S
C839 C181 1.622 . S
C853 C91 1.617 . S
C857 C211 1.618 . S
C871 C130 1.630 . S
C875 C241 1.621 . S
C889 C271 1.620 . S
C893 C151 1.621 . S
C907 C280 1.910 . S
C911 C1 1.842 . S
C925 C310 1.914 . S
C929 C40 1.911 . S
C943 C61 1.843 . S
C947 C340 1.910 . S
C961 C100 1.915 . S
C965 C190 1.913 . S
C979 C220 1.918 . S
C983 C121 1.856 . S
C997 C250 1.918 . S
C1001 C160 1.916 . S
