# Generated by pormake.
# Topology vme, (6)-cn, num edge types: 1
# Building blocks:
#     Node 0, Type 0, BuildingBlock: VOLQOD_clean_sbu_1, # of connection points: 6
#     Node 1, Type 0, BuildingBlock: VOLQOD_clean_sbu_1, # of connection points: 6
#     Node 2, Type 0, BuildingBlock: VOLQOD_clean_sbu_1, # of connection points: 6
#     Node 3, Type 0, BuildingBlock: VOLQOD_clean_sbu_1, # of connection points: 6
#     Edge 4, Type (0, 0), BuildingBlock: FUNLAD_clean_linker_1, # of connection points: 2
#     Edge 5, Type (0, 0), BuildingBlock: FUNLAD_clean_linker_1, # of connection points: 2
#     Edge 6, Type (0, 0), BuildingBlock: FUNLAD_clean_linker_1, # of connection points: 2
#     Edge 7, Type (0, 0), BuildingBlock: FUNLAD_clean_linker_1, # of connection points: 2
#     Edge 8, Type (0, 0), BuildingBlock: FUNLAD_clean_linker_1, # of connection points: 2
#     Edge 9, Type (0, 0), BuildingBlock: FUNLAD_clean_linker_1, # of connection points: 2
#     Edge 10, Type (0, 0), BuildingBlock: FUNLAD_clean_linker_1, # of connection points: 2
#     Edge 11, Type (0, 0), BuildingBlock: FUNLAD_clean_linker_1, # of connection points: 2
#     Edge 12, Type (0, 0), BuildingBlock: FUNLAD_clean_linker_1, # of connection points: 2
#     Edge 13, Type (0, 0), BuildingBlock: FUNLAD_clean_linker_1, # of connection points: 2
#     Edge 14, Type (0, 0), BuildingBlock: FUNLAD_clean_linker_1, # of connection points: 2
#     Edge 15, Type (0, 0), BuildingBlock: FUNLAD_clean_linker_1, # of connection points: 2
# Relax obj value: 0.301
# Max RMSD: 0.246
# Mean RMSD: 0.246
data_MOF--net-vme--node1-VOLQOD_clean_sbu_1--edge1-FUNLAD_clean_linker_1
_symmetry_space_group_name_H-M    P1
_symmetry_Int_Tables_number       1
_symmetry_cell_setting            triclinic
loop_
_symmetry_equiv_pos_as_xyz
'x, y, z'
_cell_length_a     27.759446
_cell_length_b     28.181609
_cell_length_c     30.650203
_cell_angle_alpha  90.185714
_cell_angle_beta   115.3201
_cell_angle_gamma 89.864951
loop_
_atom_site_label
_atom_site_type_symbol
_atom_site_fract_x
_atom_site_fract_y
_atom_site_fract_z
_atom_type_partial_charge
O0 O 0.08028 0.40231 0.36569 0.0
Zn1 Zn 0.11179 0.3711 0.3252 0.0
O2 O 0.18786 0.36353 0.36283 0.0
Zn3 Zn 0.20682 0.29706 0.36266 0.0
Zn4 Zn 0.20937 0.38624 0.42804 0.0
Zn5 Zn 0.2228 0.40271 0.33371 0.0
O6 O 0.24447 0.28839 0.31895 0.0
O7 O 0.24462 0.36172 0.29175 0.0
O8 O 0.07398 0.30889 0.30302 0.0
O9 O 0.14001 0.25675 0.33461 0.0
O10 O 0.24818 0.27271 0.43124 0.0
O11 O 0.23184 0.33083 0.47249 0.0
O12 O 0.27466 0.42776 0.45001 0.0
O13 O 0.09485 0.41561 0.26968 0.0
O14 O 0.28937 0.43228 0.3844 0.0
O15 O 0.17191 0.454 0.29375 0.0
C16 C 0.09926 0.42098 0.40748 0.0
C17 C 0.25367 0.31736 0.29144 0.0
C18 C 0.24951 0.28952 0.47046 0.0
C19 C 0.0906 0.26633 0.31146 0.0
C20 C 0.30332 0.44065 0.42904 0.0
C21 C 0.12192 0.45104 0.26731 0.0
O22 O 0.1489 0.41955 0.43547 0.0
O23 O 0.92247 0.90508 0.13038 0.0
Zn24 Zn 0.89382 0.87226 0.17191 0.0
O25 O 0.81746 0.86405 0.13632 0.0
Zn26 Zn 0.80038 0.79692 0.13505 0.0
Zn27 Zn 0.79254 0.8889 0.07133 0.0
Zn28 Zn 0.78409 0.90079 0.16925 0.0
O29 O 0.76111 0.78579 0.17664 0.0
O30 O 0.76356 0.85681 0.20998 0.0
O31 O 0.93308 0.81064 0.19273 0.0
O32 O 0.86783 0.75762 0.16417 0.0
O33 O 0.7612 0.77275 0.0662 0.0
O34 O 0.76663 0.83516 0.02418 0.0
O35 O 0.72884 0.93177 0.05432 0.0
O36 O 0.91263 0.91547 0.22872 0.0
O37 O 0.71663 0.93167 0.12139 0.0
O38 O 0.83523 0.95174 0.21059 0.0
C39 C 0.90176 0.92409 0.08887 0.0
C40 C 0.75309 0.81251 0.20659 0.0
C41 C 0.75373 0.79215 0.02628 0.0
C42 C 0.91715 0.76788 0.186 0.0
C43 C 0.70154 0.94285 0.07725 0.0
C44 C 0.88573 0.94941 0.23457 0.0
O45 O 0.85178 0.92237 0.06215 0.0
O46 O 0.91447 0.61006 0.6173 0.0
Zn47 Zn 0.88536 0.63451 0.66268 0.0
O48 O 0.80792 0.63462 0.63033 0.0
Zn49 Zn 0.78063 0.69865 0.62692 0.0
Zn50 Zn 0.78382 0.60795 0.56626 0.0
Zn51 Zn 0.78081 0.5951 0.66598 0.0
O52 O 0.74021 0.70483 0.66817 0.0
O53 O 0.75974 0.63654 0.7087 0.0
O54 O 0.91587 0.70049 0.68403 0.0
O55 O 0.84194 0.74408 0.65567 0.0
O56 O 0.73983 0.72067 0.55753 0.0
O57 O 0.75425 0.6599 0.51818 0.0
O58 O 0.72312 0.56233 0.55132 0.0
O59 O 0.91197 0.58644 0.71667 0.0
O60 O 0.71459 0.56061 0.62016 0.0
O61 O 0.83772 0.54756 0.70528 0.0
C62 C 0.89451 0.58637 0.57822 0.0
C63 C 0.74068 0.67855 0.70218 0.0
C64 C 0.73646 0.70149 0.51859 0.0
C65 C 0.89243 0.74063 0.67691 0.0
C66 C 0.69822 0.54942 0.57578 0.0
C67 C 0.88845 0.55106 0.72476 0.0
O68 O 0.84454 0.5789 0.55588 0.0
O69 O 0.08271 0.10062 0.87081 0.0
Zn70 Zn 0.11315 0.12442 0.82665 0.0
O71 O 0.18917 0.13557 0.86304 0.0
Zn72 Zn 0.20426 0.20281 0.86108 0.0
Zn73 Zn 0.21241 0.11413 0.92905 0.0
Zn74 Zn 0.2275 0.09878 0.83482 0.0
O75 O 0.24266 0.21338 0.81837 0.0
O76 O 0.24803 0.14032 0.79281 0.0
O77 O 0.07226 0.18462 0.7965 0.0
O78 O 0.13518 0.23925 0.8301 0.0
O79 O 0.24303 0.23021 0.9288 0.0
O80 O 0.2356 0.17031 0.97265 0.0
O81 O 0.27733 0.07191 0.9507 0.0
O82 O 0.09961 0.06979 0.78016 0.0
O83 O 0.29488 0.07169 0.88645 0.0
O84 O 0.18144 0.04486 0.79554 0.0
C85 C 0.10265 0.08321 0.91304 0.0
C86 C 0.25444 0.18499 0.79186 0.0
C87 C 0.24865 0.21291 0.96912 0.0
C88 C 0.08671 0.22791 0.80459 0.0
C89 C 0.30752 0.06138 0.93043 0.0
C90 C 0.13107 0.03937 0.77527 0.0
O91 O 0.15276 0.08284 0.93925 0.0
H92 H 0.9565 0.98337 0.29025 0.0
C93 C 0.91614 0.9901 0.26323 0.0
H94 H 0.86305 0.04227 0.21895 0.0
H95 H 0.01702 0.20206 0.36436 0.0
H96 H 0.95202 0.19764 0.39761 0.0
H97 H 0.88168 0.13652 0.3696 0.0
H98 H 0.87617 0.07915 0.30824 0.0
C99 C 0.90181 0.03479 0.24819 0.0
C100 C 0.94249 0.07315 0.26354 0.0
C101 C 0.94448 0.10692 0.29852 0.0
C102 C 0.98452 0.14264 0.31404 0.0
C103 C 0.9867 0.17492 0.35034 0.0
C104 C 0.9498 0.17261 0.36995 0.0
C105 C 0.91024 0.13814 0.35423 0.0
C106 C 0.90749 0.10549 0.31902 0.0
H107 H 0.00933 0.23723 0.27383 0.0
C108 C 0.05079 0.22784 0.29563 0.0
H109 H 0.10466 0.17215 0.33045 0.0
H110 H 0.94777 0.01563 0.19315 0.0
H111 H 0.01367 0.01907 0.1611 0.0
H112 H 0.08356 0.08052 0.18856 0.0
H113 H 0.08828 0.13863 0.24885 0.0
C114 C 0.06345 0.18252 0.30919 0.0
C115 C 0.02193 0.14489 0.29382 0.0
C116 C 0.01997 0.11102 0.25885 0.0
C117 C 0.97988 0.07541 0.24328 0.0
C118 C 0.97804 0.04279 0.20728 0.0
C119 C 0.01543 0.04456 0.18823 0.0
C120 C 0.05481 0.07912 0.20374 0.0
C121 C 0.05708 0.11222 0.23841 0.0
H122 H 0.05186 0.4861 0.21169 0.0
C123 C 0.09196 0.49224 0.2395 0.0
H124 H 0.14498 0.54327 0.28584 0.0
H125 H 0.97759 0.69182 0.12778 0.0
H126 H 0.03103 0.67741 0.08377 0.0
H127 H 0.10167 0.61642 0.11106 0.0
H128 H 0.11914 0.56925 0.18256 0.0
C129 C 0.10694 0.53665 0.25527 0.0
C130 C 0.06672 0.57531 0.24013 0.0
C131 C 0.05767 0.60297 0.19891 0.0
C132 C 0.01745 0.63856 0.18365 0.0
C133 C 0.00828 0.66491 0.14155 0.0
C134 C 0.03853 0.65687 0.11583 0.0
C135 C 0.07827 0.62248 0.13116 0.0
C136 C 0.08787 0.59567 0.17217 0.0
H137 H 0.99928 0.74005 0.2206 0.0
C138 C 0.95755 0.72987 0.20247 0.0
H139 H 0.90343 0.67252 0.17717 0.0
H140 H 0.07413 0.52825 0.32097 0.0
H141 H 0.02007 0.54182 0.36435 0.0
H142 H 0.95147 0.6046 0.33891 0.0
H143 H 0.93531 0.65316 0.26863 0.0
C144 C 0.94481 0.68375 0.19438 0.0
C145 C 0.9869 0.64665 0.2101 0.0
C146 C 0.99605 0.61897 0.25141 0.0
C147 C 0.0361 0.5833 0.26652 0.0
C148 C 0.04425 0.5559 0.30782 0.0
C149 C 0.01367 0.56348 0.33327 0.0
C150 C 0.97489 0.59868 0.31879 0.0
C151 C 0.96602 0.62625 0.27838 0.0
H152 H 0.13675 0.96876 0.74612 0.0
C153 C 0.1097 0.99342 0.75167 0.0
H154 H 0.03418 0.00191 0.7521 0.0
H155 H 0.94976 0.81592 0.61793 0.0
H156 H 0.93262 0.87156 0.55261 0.0
H157 H 0.96645 0.95366 0.56954 0.0
H158 H 0.01805 0.98053 0.652 0.0
C159 C 0.06092 0.97855 0.74458 0.0
C160 C 0.04477 0.92804 0.73383 0.0
C161 C 0.01448 0.91307 0.68565 0.0
C162 C 0.99418 0.86599 0.67599 0.0
C163 C 0.96492 0.85165 0.62739 0.0
C164 C 0.9551 0.88313 0.58955 0.0
C165 C 0.97421 0.92935 0.59908 0.0
C166 C 0.00364 0.94434 0.64651 0.0
H167 H 0.90094 0.818 0.68621 0.0
C168 C 0.92323 0.78514 0.69082 0.0
H169 H 0.99977 0.75526 0.71071 0.0
H170 H 0.10452 0.94456 0.83028 0.0
H171 H 0.12398 0.88826 0.89534 0.0
H172 H 0.08855 0.80668 0.87858 0.0
H173 H 0.03351 0.78086 0.79649 0.0
C174 C 0.97618 0.78736 0.70531 0.0
C175 C 0.00345 0.8343 0.71471 0.0
C176 C 0.03625 0.8485 0.76271 0.0
C177 C 0.05671 0.89553 0.77234 0.0
C178 C 0.08823 0.9092 0.82081 0.0
C179 C 0.09972 0.87722 0.85852 0.0
C180 C 0.07974 0.83129 0.84909 0.0
C181 C 0.04817 0.81695 0.80184 0.0
H182 H 0.9646 0.5164 0.77073 0.0
C183 C 0.92186 0.51065 0.75161 0.0
H184 H 0.86092 0.45929 0.72362 0.0
H185 H 0.02391 0.31206 0.70407 0.0
H186 H 0.97155 0.33424 0.62067 0.0
H187 H 0.90358 0.39743 0.59951 0.0
H188 H 0.88844 0.43926 0.66146 0.0
C189 C 0.90298 0.46603 0.74565 0.0
C190 C 0.94023 0.42477 0.759 0.0
C191 C 0.94743 0.39934 0.72218 0.0
C192 C 0.9857 0.36209 0.7344 0.0
C193 C 0.99417 0.33943 0.69692 0.0
C194 C 0.96465 0.35208 0.64882 0.0
C195 C 0.92653 0.3877 0.63687 0.0
C196 C 0.91808 0.41135 0.67292 0.0
H197 H 0.0045 0.25521 0.76465 0.0
C198 C 0.04566 0.2656 0.78612 0.0
H199 H 0.09819 0.32212 0.8204 0.0
H200 H 0.93376 0.4643 0.83779 0.0
H201 H 0.98537 0.44189 0.9215 0.0
H202 H 0.05089 0.37676 0.94294 0.0
H203 H 0.06524 0.33346 0.881 0.0
C204 C 0.05748 0.3117 0.79725 0.0
C205 C 0.01567 0.34934 0.78348 0.0
C206 C 0.00769 0.37428 0.82023 0.0
C207 C 0.96996 0.41198 0.80795 0.0
C208 C 0.96244 0.43586 0.84527 0.0
C209 C 0.99161 0.42322 0.89341 0.0
C210 C 0.02849 0.38651 0.90548 0.0
C211 C 0.03648 0.36209 0.86952 0.0
H212 H 0.97365 0.5737 0.58038 0.0
C213 C 0.93127 0.56715 0.55949 0.0
H214 H 0.87297 0.53386 0.49751 0.0
H215 H 0.09097 0.55258 0.45729 0.0
H216 H 0.07229 0.63715 0.45025 0.0
H217 H 0.99895 0.67 0.46635 0.0
H218 H 0.9443 0.61853 0.49 0.0
C219 C 0.91487 0.54217 0.51834 0.0
C220 C 0.95452 0.52224 0.50266 0.0
C221 C 0.98594 0.55288 0.48871 0.0
C222 C 0.0274 0.53389 0.47842 0.0
C223 C 0.05863 0.5652 0.4651 0.0
C224 C 0.04835 0.61378 0.46093 0.0
C225 C 0.00712 0.63228 0.47005 0.0
C226 C 0.97621 0.60237 0.48384 0.0
H227 H 0.01943 0.44208 0.39888 0.0
C228 C 0.06163 0.44349 0.42331 0.0
H229 H 0.11875 0.46735 0.49138 0.0
H230 H 0.89901 0.45353 0.52496 0.0
H231 H 0.91494 0.36858 0.52781 0.0
H232 H 0.98781 0.33583 0.51119 0.0
H233 H 0.04448 0.38761 0.49043 0.0
C234 C 0.0769 0.46427 0.46655 0.0
C235 C 0.03624 0.4843 0.48073 0.0
C236 C 0.00415 0.45355 0.49369 0.0
C237 C 0.96282 0.47253 0.50419 0.0
C238 C 0.93108 0.44103 0.51671 0.0
C239 C 0.93987 0.39222 0.51866 0.0
C240 C 0.98079 0.37374 0.50912 0.0
C241 C 0.01282 0.40386 0.49696 0.0
H242 H 0.97971 0.95018 0.09712 0.0
C243 C 0.93769 0.94828 0.07228 0.0
H244 H 0.87996 0.96364 0.00164 0.0
H245 H 0.08078 0.10898 0.03265 0.0
H246 H 0.05003 0.15411 0.08354 0.0
H247 H 0.97712 0.12405 0.10159 0.0
H248 H 0.93508 0.04838 0.0695 0.0
C249 C 0.92123 0.96667 0.02798 0.0
C250 C 0.96075 0.9874 0.01291 0.0
C251 C 0.98433 0.03195 0.03149 0.0
C252 C 0.02558 0.04968 0.02033 0.0
C253 C 0.04899 0.09402 0.03976 0.0
C254 C 0.0317 0.12029 0.06897 0.0
C255 C 0.99068 0.10335 0.07917 0.0
C256 C 0.96709 0.05975 0.06073 0.0
H257 H 0.02364 0.06159 0.90592 0.0
C258 C 0.0658 0.06225 0.93053 0.0
H259 H 0.12339 0.04519 0.0008 0.0
H260 H 0.92344 0.90094 0.97143 0.0
H261 H 0.95373 0.85607 0.92001 0.0
H262 H 0.02436 0.88726 0.89977 0.0
H263 H 0.06628 0.96307 0.93144 0.0
C264 C 0.08185 0.04385 0.97478 0.0
C265 C 0.042 0.02339 0.98959 0.0
C266 C 0.01815 0.97898 0.97072 0.0
C267 C 0.97731 0.96102 0.98232 0.0
C268 C 0.95448 0.91633 0.96352 0.0
C269 C 0.97144 0.89023 0.93399 0.0
C270 C 0.01134 0.90778 0.92262 0.0
C271 C 0.03477 0.9515 0.94081 0.0
H272 H 0.27133 0.28166 0.00796 0.0
C273 C 0.26565 0.24405 0.01194 0.0
H274 H 0.26344 0.18981 0.0586 0.0
H275 H 0.3729 0.2925 0.25741 0.0
H276 H 0.44716 0.2442 0.26102 0.0
H277 H 0.44297 0.20243 0.18859 0.0
H278 H 0.3646 0.20883 0.11204 0.0
C279 C 0.268 0.22749 0.05395 0.0
C280 C 0.27379 0.25882 0.09494 0.0
C281 C 0.3199 0.25492 0.13924 0.0
C282 C 0.32218 0.27869 0.18107 0.0
C283 C 0.36882 0.27445 0.2248 0.0
C284 C 0.41178 0.24706 0.22728 0.0
C285 C 0.40943 0.22356 0.18649 0.0
C286 C 0.36417 0.22737 0.14286 0.0
H287 H 0.27135 0.25985 0.2514 0.0
C288 C 0.26998 0.29818 0.25494 0.0
H289 H 0.27404 0.36468 0.22497 0.0
H290 H 0.17811 0.27308 0.01584 0.0
H291 H 0.10533 0.32246 0.01222 0.0
H292 H 0.11083 0.36607 0.08407 0.0
H293 H 0.18903 0.35967 0.16025 0.0
C294 C 0.27704 0.32636 0.22281 0.0
C295 C 0.2782 0.30608 0.17846 0.0
C296 C 0.23317 0.31205 0.13359 0.0
C297 C 0.23054 0.2878 0.09188 0.0
C298 C 0.18337 0.29175 0.04838 0.0
C299 C 0.14093 0.31988 0.04579 0.0
C300 C 0.14398 0.34432 0.08626 0.0
C301 C 0.18927 0.34038 0.12979 0.0
H302 H 0.73088 0.7519 0.23943 0.0
C303 C 0.73634 0.79018 0.24128 0.0
H304 H 0.73888 0.85276 0.28068 0.0
H305 H 0.62241 0.75502 0.39685 0.0
H306 H 0.55194 0.80727 0.34414 0.0
H307 H 0.5618 0.8519 0.2793 0.0
H308 H 0.64213 0.84449 0.26663 0.0
C309 C 0.73405 0.81446 0.27818 0.0
C310 C 0.72895 0.78935 0.31858 0.0
C311 C 0.68215 0.79465 0.3259 0.0
C312 C 0.67662 0.76921 0.36353 0.0
C313 C 0.62891 0.7741 0.36927 0.0
C314 C 0.58812 0.80382 0.33917 0.0
C315 C 0.59366 0.82893 0.30263 0.0
C316 C 0.63996 0.82442 0.29578 0.0
H317 H 0.71789 0.76866 0.4775 0.0
C318 C 0.71886 0.73028 0.47428 0.0
H319 H 0.71497 0.67214 0.42943 0.0
H320 H 0.82771 0.7772 0.31952 0.0
H321 H 0.89835 0.726 0.37272 0.0
H322 H 0.8877 0.68014 0.43634 0.0
H323 H 0.80659 0.68531 0.44731 0.0
C324 C 0.71286 0.71048 0.43228 0.0
C325 C 0.71815 0.73891 0.39387 0.0
C326 C 0.76562 0.73463 0.38738 0.0
C327 C 0.77135 0.76039 0.35015 0.0
C328 C 0.82021 0.75712 0.34596 0.0
C329 C 0.86144 0.72818 0.37662 0.0
C330 C 0.85548 0.70238 0.41246 0.0
C331 C 0.80844 0.70559 0.41816 0.0
H332 H 0.743 0.72464 0.98639 0.0
C333 C 0.73617 0.7627 0.98228 0.0
H334 H 0.7126 0.82077 0.93463 0.0
H335 H 0.81229 0.73931 0.80104 0.0
H336 H 0.86759 0.8077 0.83704 0.0
H337 H 0.85648 0.85402 0.90053 0.0
H338 H 0.79162 0.83127 0.92947 0.0
C339 C 0.71917 0.78266 0.9384 0.0
C340 C 0.7214 0.7566 0.897 0.0
C341 C 0.75918 0.77101 0.87986 0.0
C342 C 0.7643 0.74525 0.84212 0.0
C343 C 0.80473 0.75873 0.82793 0.0
C344 C 0.83732 0.79771 0.84871 0.0
C345 C 0.83129 0.82363 0.88459 0.0
C346 C 0.79335 0.8103 0.90057 0.0
H347 H 0.70834 0.73581 0.7311 0.0
C348 C 0.72419 0.69988 0.73768 0.0
H349 H 0.75102 0.64349 0.78791 0.0
H350 H 0.64199 0.72223 0.91848 0.0
H351 H 0.58514 0.65452 0.88121 0.0
H352 H 0.59407 0.60971 0.81577 0.0
H353 H 0.65977 0.63246 0.787 0.0
C354 C 0.73522 0.67937 0.78046 0.0
C355 C 0.73017 0.70615 0.82026 0.0
C356 C 0.6922 0.69197 0.83716 0.0
C357 C 0.68755 0.7174 0.87539 0.0
C358 C 0.64812 0.7034 0.89046 0.0
C359 C 0.615 0.66481 0.86915 0.0
C360 C 0.61999 0.63961 0.83225 0.0
C361 C 0.65792 0.65297 0.81616 0.0
H362 H 0.26809 0.24317 0.75048 0.0
C363 C 0.27041 0.20493 0.75558 0.0
H364 H 0.2827 0.13871 0.72937 0.0
H365 H 0.18476 0.21769 0.51572 0.0
H366 H 0.11937 0.1595 0.51198 0.0
H367 H 0.12779 0.11699 0.5851 0.0
H368 H 0.20152 0.13291 0.66243 0.0
C369 C 0.28165 0.17705 0.72541 0.0
C370 C 0.28236 0.19686 0.68079 0.0
C371 C 0.24016 0.18556 0.63542 0.0
C372 C 0.23586 0.20945 0.5931 0.0
C373 C 0.19123 0.19978 0.54885 0.0
C374 C 0.15301 0.16655 0.54618 0.0
C375 C 0.15771 0.14267 0.58733 0.0
C376 C 0.20043 0.15212 0.63154 0.0
H377 H 0.2788 0.22255 0.51122 0.0
C378 C 0.26776 0.25914 0.51376 0.0
H379 H 0.25583 0.31159 0.55767 0.0
H380 H 0.37252 0.22069 0.76078 0.0
H381 H 0.43994 0.27744 0.76447 0.0
H382 H 0.43261 0.31902 0.69114 0.0
H383 H 0.35797 0.30393 0.61363 0.0
C384 C 0.2657 0.2748 0.55445 0.0
C385 C 0.2747 0.24365 0.59622 0.0
C386 C 0.31859 0.2527 0.64112 0.0
C387 C 0.32258 0.22911 0.68345 0.0
C388 C 0.36708 0.23846 0.72775 0.0
C389 C 0.40617 0.2707 0.73029 0.0
C390 C 0.40205 0.2941 0.68899 0.0
C391 C 0.35893 0.28527 0.6448 0.0
H392 H 0.36537 0.47057 0.49611 0.0
C393 C 0.35569 0.46222 0.45862 0.0
H394 H 0.38511 0.45685 0.40563 0.0
H395 H 0.56408 0.59842 0.56941 0.0
H396 H 0.49272 0.6561 0.5473 0.0
H397 H 0.40066 0.6349 0.49127 0.0
H398 H 0.37941 0.55579 0.45717 0.0
C399 C 0.39316 0.46755 0.4422 0.0
C400 C 0.44874 0.4812 0.47526 0.0
C401 C 0.46049 0.5277 0.49474 0.0
C402 C 0.51374 0.54006 0.52661 0.0
C403 C 0.52439 0.58691 0.54521 0.0
C404 C 0.4838 0.62049 0.53272 0.0
C405 C 0.43197 0.60854 0.50122 0.0
C406 C 0.42026 0.56285 0.48215 0.0
H407 H 0.63499 0.51497 0.51269 0.0
C408 C 0.6466 0.52517 0.5501 0.0
H409 H 0.62111 0.53309 0.60549 0.0
H410 H 0.43977 0.38878 0.4447 0.0
H411 H 0.51109 0.33094 0.46715 0.0
H412 H 0.60313 0.35214 0.52327 0.0
H413 H 0.62442 0.43141 0.55709 0.0
C414 C 0.61129 0.52056 0.5691 0.0
C415 C 0.55527 0.50614 0.53832 0.0
C416 C 0.54339 0.45949 0.51927 0.0
C417 C 0.49017 0.44713 0.48739 0.0
C418 C 0.47947 0.40024 0.46891 0.0
C419 C 0.52003 0.3666 0.48161 0.0
C420 C 0.57185 0.37854 0.51316 0.0
C421 C 0.5836 0.4243 0.53205 0.0
H422 H 0.36684 0.02572 0.99529 0.0
C423 C 0.35966 0.0394 0.95991 0.0
H424 H 0.39293 0.05306 0.91077 0.0
H425 H 0.60835 0.03411 0.11943 0.0
H426 H 0.57568 0.10432 0.14411 0.0
H427 H 0.48763 0.13805 0.09212 0.0
H428 H 0.43163 0.10162 0.01548 0.0
C429 C 0.39953 0.03956 0.94606 0.0
C430 C 0.45329 0.0203 0.97742 0.0
C431 C 0.48604 0.04279 0.02181 0.0
C432 C 0.53736 0.024 0.05132 0.0
C433 C 0.56909 0.0469 0.09558 0.0
C434 C 0.5509 0.08733 0.11015 0.0
C435 C 0.5013 0.10626 0.08092 0.0
C436 C 0.46928 0.08465 0.03712 0.0
H437 H 0.64042 0.97986 0.01469 0.0
C438 C 0.64939 0.96586 0.05036 0.0
H439 H 0.61921 0.95137 0.10163 0.0
H440 H 0.40104 0.96924 0.89424 0.0
H441 H 0.4334 0.89861 0.86998 0.0
H442 H 0.52134 0.86479 0.92212 0.0
H443 H 0.57758 0.90163 0.99847 0.0
C444 C 0.61105 0.96535 0.06614 0.0
C445 C 0.55647 0.98364 0.03585 0.0
C446 C 0.52346 0.96082 0.99174 0.0
C447 C 0.47219 0.97963 0.96221 0.0
C448 C 0.44032 0.9565 0.91811 0.0
C449 C 0.4583 0.9158 0.90379 0.0
C450 C 0.50784 0.89682 0.9331 0.0
C451 C 0.54001 0.91868 0.9767 0.0
loop_
_geom_bond_atom_site_label_1
_geom_bond_atom_site_label_2
_geom_bond_distance
_geom_bond_site_symmetry_2
_ccdc_geom_bond_type
O0 Zn1 1.953 . S
O0 C16 1.225 . S
Zn1 O0 1.953 . S
Zn1 O2 1.949 . S
Zn1 O8 1.919 . S
Zn1 O13 1.924 . S
O2 Zn1 1.949 . S
O2 Zn3 1.923 . S
O2 Zn4 1.950 . S
O2 Zn5 1.945 . S
Zn3 O2 1.923 . S
Zn3 O6 1.933 . S
Zn3 O9 1.941 . S
Zn3 O10 1.965 . S
Zn4 O2 1.950 . S
Zn4 O11 1.938 . S
Zn4 O12 1.906 . S
Zn4 O22 1.953 . S
Zn5 O2 1.945 . S
Zn5 O7 1.932 . S
Zn5 O14 1.977 . S
Zn5 O15 1.910 . S
O6 Zn3 1.933 . S
O6 C17 1.226 . S
O7 Zn5 1.932 . S
O7 C17 1.307 . S
O8 Zn1 1.919 . S
O8 C19 1.253 . S
O9 Zn3 1.941 . S
O9 C19 1.283 . S
O10 Zn3 1.965 . S
O10 C18 1.303 . S
O11 Zn4 1.938 . S
O11 C18 1.247 . S
O12 Zn4 1.906 . S
O12 C20 1.304 . S
O13 Zn1 1.924 . S
O13 C21 1.311 . S
O14 Zn5 1.977 . S
O14 C20 1.272 . S
O15 Zn5 1.910 . S
O15 C21 1.231 . S
C16 O0 1.225 . S
C16 O22 1.298 . S
C17 O6 1.226 . S
C17 O7 1.307 . S
C18 O10 1.303 . S
C18 O11 1.247 . S
C19 O8 1.253 . S
C19 O9 1.283 . S
C20 O12 1.304 . S
C20 O14 1.272 . S
C21 O13 1.311 . S
C21 O15 1.231 . S
O22 Zn4 1.953 . S
O22 C16 1.298 . S
O23 Zn24 1.953 . S
O23 C39 1.225 . S
Zn24 O23 1.953 . S
Zn24 O25 1.949 . S
Zn24 O31 1.919 . S
Zn24 O36 1.924 . S
O25 Zn24 1.949 . S
O25 Zn26 1.923 . S
O25 Zn27 1.950 . S
O25 Zn28 1.945 . S
Zn26 O25 1.923 . S
Zn26 O29 1.933 . S
Zn26 O32 1.941 . S
Zn26 O33 1.965 . S
Zn27 O25 1.950 . S
Zn27 O34 1.947 . S
Zn27 O35 1.906 . S
Zn27 O45 1.953 . S
Zn28 O25 1.945 . S
Zn28 O30 1.932 . S
Zn28 O37 1.977 . S
Zn28 O38 1.910 . S
O29 Zn26 1.933 . S
O29 C40 1.226 . S
O30 Zn28 1.932 . S
O30 C40 1.307 . S
O31 Zn24 1.919 . S
O31 C42 1.253 . S
O32 Zn26 1.941 . S
O32 C42 1.283 . S
O33 Zn26 1.965 . S
O33 C41 1.303 . S
O34 Zn27 1.947 . S
O34 C41 1.249 . S
O35 Zn27 1.906 . S
O35 C43 1.304 . S
O36 Zn24 1.924 . S
O36 C44 1.311 . S
O37 Zn28 1.977 . S
O37 C43 1.272 . S
O38 Zn28 1.910 . S
O38 C44 1.231 . S
C39 O23 1.225 . S
C39 O45 1.298 . S
C40 O29 1.226 . S
C40 O30 1.307 . S
C41 O33 1.303 . S
C41 O34 1.249 . S
C42 O31 1.253 . S
C42 O32 1.283 . S
C43 O35 1.304 . S
C43 O37 1.272 . S
C44 O36 1.311 . S
C44 O38 1.231 . S
O45 Zn27 1.953 . S
O45 C39 1.298 . S
O46 Zn47 1.953 . S
O46 C62 1.225 . S
Zn47 O46 1.953 . S
Zn47 O48 1.949 . S
Zn47 O54 1.919 . S
Zn47 O59 1.924 . S
O48 Zn47 1.949 . S
O48 Zn49 1.923 . S
O48 Zn50 1.950 . S
O48 Zn51 1.945 . S
Zn49 O48 1.923 . S
Zn49 O52 1.933 . S
Zn49 O55 1.941 . S
Zn49 O56 1.965 . S
Zn50 O48 1.950 . S
Zn50 O57 1.938 . S
Zn50 O58 1.906 . S
Zn50 O68 1.953 . S
Zn51 O48 1.945 . S
Zn51 O53 1.932 . S
Zn51 O60 1.977 . S
Zn51 O61 1.910 . S
O52 Zn49 1.933 . S
O52 C63 1.226 . S
O53 Zn51 1.932 . S
O53 C63 1.307 . S
O54 Zn47 1.919 . S
O54 C65 1.253 . S
O55 Zn49 1.941 . S
O55 C65 1.283 . S
O56 Zn49 1.965 . S
O56 C64 1.303 . S
O57 Zn50 1.938 . S
O57 C64 1.247 . S
O58 Zn50 1.906 . S
O58 C66 1.304 . S
O59 Zn47 1.924 . S
O59 C67 1.311 . S
O60 Zn51 1.977 . S
O60 C66 1.272 . S
O61 Zn51 1.910 . S
O61 C67 1.231 . S
C62 O46 1.225 . S
C62 O68 1.298 . S
C63 O52 1.226 . S
C63 O53 1.307 . S
C64 O56 1.303 . S
C64 O57 1.247 . S
C65 O54 1.253 . S
C65 O55 1.283 . S
C66 O58 1.304 . S
C66 O60 1.272 . S
C67 O59 1.311 . S
C67 O61 1.231 . S
O68 Zn50 1.953 . S
O68 C62 1.298 . S
O69 Zn70 1.953 . S
O69 C85 1.225 . S
Zn70 O69 1.953 . S
Zn70 O71 1.949 . S
Zn70 O77 1.919 . S
Zn70 O82 1.924 . S
O71 Zn70 1.949 . S
O71 Zn72 1.923 . S
O71 Zn73 1.950 . S
O71 Zn74 1.945 . S
Zn72 O71 1.923 . S
Zn72 O75 1.933 . S
Zn72 O78 1.941 . S
Zn72 O79 1.965 . S
Zn73 O71 1.950 . S
Zn73 O80 1.947 . S
Zn73 O81 1.906 . S
Zn73 O91 1.953 . S
Zn74 O71 1.945 . S
Zn74 O76 1.932 . S
Zn74 O83 1.977 . S
Zn74 O84 1.910 . S
O75 Zn72 1.933 . S
O75 C86 1.226 . S
O76 Zn74 1.932 . S
O76 C86 1.307 . S
O77 Zn70 1.919 . S
O77 C88 1.253 . S
O78 Zn72 1.941 . S
O78 C88 1.283 . S
O79 Zn72 1.965 . S
O79 C87 1.303 . S
O80 Zn73 1.947 . S
O80 C87 1.249 . S
O81 Zn73 1.906 . S
O81 C89 1.304 . S
O82 Zn70 1.924 . S
O82 C90 1.311 . S
O83 Zn74 1.977 . S
O83 C89 1.272 . S
O84 Zn74 1.910 . S
O84 C90 1.231 . S
C85 O69 1.225 . S
C85 O91 1.298 . S
C86 O75 1.226 . S
C86 O76 1.307 . S
C87 O79 1.303 . S
C87 O80 1.249 . S
C88 O77 1.253 . S
C88 O78 1.283 . S
C89 O81 1.304 . S
C89 O83 1.272 . S
C90 O82 1.311 . S
C90 O84 1.231 . S
O91 Zn73 1.953 . S
O91 C85 1.298 . S
H92 C93 0.951 . S
C93 H92 0.951 . S
C93 C99 1.265 . S
H94 C99 0.950 . S
H95 C103 0.949 . S
H96 C104 0.950 . S
H97 C105 0.951 . S
H98 C106 0.951 . S
C99 C93 1.265 . S
C99 H94 0.950 . S
C99 C100 1.478 . S
C100 C99 1.478 . S
C100 C101 1.397 . S
C100 C117 1.394 . S
C101 C100 1.397 . S
C101 C102 1.438 . S
C101 C106 1.429 . S
C102 C101 1.438 . S
C102 C103 1.428 . S
C102 C115 1.394 1_655 S
C103 H95 0.949 . S
C103 C102 1.428 . S
C103 C104 1.345 . S
C104 H96 0.950 . S
C104 C103 1.345 . S
C104 C105 1.424 . S
C105 H97 0.951 . S
C105 C104 1.424 . S
C105 C106 1.347 . S
C106 H98 0.951 . S
C106 C101 1.429 . S
C106 C105 1.347 . S
H107 C108 0.951 . S
C108 H107 0.951 . S
C108 C114 1.265 . S
H109 C114 0.950 . S
H110 C118 0.949 1_655 S
H111 C119 0.950 . S
H112 C120 0.951 . S
H113 C121 0.951 . S
C114 C108 1.265 . S
C114 H109 0.950 . S
C114 C115 1.478 . S
C115 C102 1.394 1_455 S
C115 C114 1.478 . S
C115 C116 1.397 . S
C116 C115 1.397 . S
C116 C117 1.438 1_455 S
C116 C121 1.429 . S
C117 C100 1.394 . S
C117 C116 1.438 1_655 S
C117 C118 1.428 1_655 S
C118 H110 0.949 1_455 S
C118 C117 1.428 1_455 S
C118 C119 1.345 . S
C119 H111 0.950 . S
C119 C118 1.345 . S
C119 C120 1.424 . S
C120 H112 0.951 . S
C120 C119 1.424 . S
C120 C121 1.347 . S
C121 H113 0.951 . S
C121 C116 1.429 . S
C121 C120 1.347 . S
H122 C123 0.951 . S
C123 H122 0.951 . S
C123 C129 1.265 . S
H124 C129 0.950 . S
H125 C133 0.949 1_655 S
H126 C134 0.950 . S
H127 C135 0.951 . S
H128 C136 0.951 . S
C129 C123 1.265 . S
C129 H124 0.950 . S
C129 C130 1.478 . S
C130 C129 1.478 . S
C130 C131 1.397 . S
C130 C147 1.394 . S
C131 C130 1.397 . S
C131 C132 1.438 . S
C131 C136 1.429 . S
C132 C131 1.438 . S
C132 C133 1.428 . S
C132 C145 1.394 1_455 S
C133 H125 0.949 1_455 S
C133 C132 1.428 . S
C133 C134 1.345 . S
C134 H126 0.950 . S
C134 C133 1.345 . S
C134 C135 1.424 . S
C135 H127 0.951 . S
C135 C134 1.424 . S
C135 C136 1.347 . S
C136 H128 0.951 . S
C136 C131 1.429 . S
C136 C135 1.347 . S
H137 C138 0.951 . S
C138 H137 0.951 . S
C138 C144 1.265 . S
H139 C144 0.950 . S
H140 C148 0.949 . S
H141 C149 0.950 . S
H142 C150 0.951 . S
H143 C151 0.951 . S
C144 C138 1.265 . S
C144 H139 0.950 . S
C144 C145 1.478 . S
C145 C132 1.394 1_655 S
C145 C144 1.478 . S
C145 C146 1.397 . S
C146 C145 1.397 . S
C146 C147 1.438 1_655 S
C146 C151 1.429 . S
C147 C130 1.394 . S
C147 C146 1.438 1_455 S
C147 C148 1.428 . S
C148 H140 0.949 . S
C148 C147 1.428 . S
C148 C149 1.345 . S
C149 H141 0.950 . S
C149 C148 1.345 . S
C149 C150 1.424 1_455 S
C150 H142 0.951 . S
C150 C149 1.424 1_655 S
C150 C151 1.347 . S
C151 H143 0.951 . S
C151 C146 1.429 . S
C151 C150 1.347 . S
H152 C153 0.951 . S
C153 H152 0.951 . S
C153 C159 1.265 . S
H154 C159 0.950 . S
H155 C163 0.949 . S
H156 C164 0.950 . S
H157 C165 0.951 . S
H158 C166 0.951 . S
C159 C153 1.265 . S
C159 H154 0.950 . S
C159 C160 1.478 . S
C160 C159 1.478 . S
C160 C161 1.397 . S
C160 C177 1.394 . S
C161 C160 1.397 . S
C161 C162 1.437 . S
C161 C166 1.429 . S
C162 C161 1.437 . S
C162 C163 1.428 1_455 S
C162 C175 1.395 . S
C163 H155 0.949 . S
C163 C162 1.428 1_655 S
C163 C164 1.345 . S
C164 H156 0.950 . S
C164 C163 1.345 . S
C164 C165 1.424 . S
C165 H157 0.951 . S
C165 C164 1.424 . S
C165 C166 1.347 1_655 S
C166 H158 0.951 . S
C166 C161 1.429 . S
C166 C165 1.347 1_455 S
H167 C168 0.951 . S
C168 H167 0.951 . S
C168 C174 1.265 . S
H169 C174 0.950 1_455 S
H170 C178 0.949 . S
H171 C179 0.950 . S
H172 C180 0.951 . S
H173 C181 0.951 . S
C174 C168 1.265 . S
C174 H169 0.950 1_655 S
C174 C175 1.478 1_655 S
C175 C162 1.395 . S
C175 C174 1.478 1_455 S
C175 C176 1.397 . S
C176 C175 1.397 . S
C176 C177 1.438 . S
C176 C181 1.429 . S
C177 C160 1.394 . S
C177 C176 1.438 . S
C177 C178 1.428 . S
C178 H170 0.949 . S
C178 C177 1.428 . S
C178 C179 1.345 . S
C179 H171 0.950 . S
C179 C178 1.345 . S
C179 C180 1.424 . S
C180 H172 0.951 . S
C180 C179 1.424 . S
C180 C181 1.347 . S
C181 H173 0.951 . S
C181 C176 1.429 . S
C181 C180 1.347 . S
H182 C183 0.951 . S
C183 H182 0.951 . S
C183 C189 1.265 . S
H184 C189 0.950 . S
H185 C193 0.949 1_455 S
H186 C194 0.950 . S
H187 C195 0.951 . S
H188 C196 0.951 . S
C189 C183 1.265 . S
C189 H184 0.950 . S
C189 C190 1.478 . S
C190 C189 1.478 . S
C190 C191 1.397 . S
C190 C207 1.394 . S
C191 C190 1.397 . S
C191 C192 1.438 . S
C191 C196 1.429 . S
C192 C191 1.438 . S
C192 C193 1.428 . S
C192 C205 1.394 1_655 S
C193 H185 0.949 1_655 S
C193 C192 1.428 . S
C193 C194 1.345 . S
C194 H186 0.950 . S
C194 C193 1.345 . S
C194 C195 1.424 . S
C195 H187 0.951 . S
C195 C194 1.424 . S
C195 C196 1.347 . S
C196 H188 0.951 . S
C196 C191 1.429 . S
C196 C195 1.347 . S
H197 C198 0.951 . S
C198 H197 0.951 . S
C198 C204 1.265 . S
H199 C204 0.950 . S
H200 C208 0.949 . S
H201 C209 0.950 . S
H202 C210 0.951 . S
H203 C211 0.951 . S
C204 C198 1.265 . S
C204 H199 0.950 . S
C204 C205 1.478 . S
C205 C192 1.394 1_455 S
C205 C204 1.478 . S
C205 C206 1.397 . S
C206 C205 1.397 . S
C206 C207 1.438 1_455 S
C206 C211 1.429 . S
C207 C190 1.394 . S
C207 C206 1.438 1_655 S
C207 C208 1.428 . S
C208 H200 0.949 . S
C208 C207 1.428 . S
C208 C209 1.345 1_655 S
C209 H201 0.950 . S
C209 C208 1.345 1_455 S
C209 C210 1.424 . S
C210 H202 0.951 . S
C210 C209 1.424 . S
C210 C211 1.347 . S
C211 H203 0.951 . S
C211 C206 1.429 . S
C211 C210 1.347 . S
H212 C213 0.951 . S
C213 H212 0.951 . S
C213 C219 1.265 . S
H214 C219 0.950 . S
H215 C223 0.949 . S
H216 C224 0.950 . S
H217 C225 0.951 . S
H218 C226 0.951 . S
C219 C213 1.265 . S
C219 H214 0.950 . S
C219 C220 1.478 . S
C220 C219 1.478 . S
C220 C221 1.397 . S
C220 C237 1.394 . S
C221 C220 1.397 . S
C221 C222 1.438 1_655 S
C221 C226 1.429 . S
C222 C221 1.438 1_455 S
C222 C223 1.428 . S
C222 C235 1.394 . S
C223 H215 0.949 . S
C223 C222 1.428 . S
C223 C224 1.345 . S
C224 H216 0.950 . S
C224 C223 1.345 . S
C224 C225 1.424 . S
C225 H217 0.951 . S
C225 C224 1.424 . S
C225 C226 1.347 1_455 S
C226 H218 0.951 . S
C226 C221 1.429 . S
C226 C225 1.347 1_655 S
H227 C228 0.951 . S
C228 H227 0.951 . S
C228 C234 1.265 . S
H229 C234 0.950 . S
H230 C238 0.949 . S
H231 C239 0.950 . S
H232 C240 0.951 . S
H233 C241 0.951 . S
C234 C228 1.265 . S
C234 H229 0.950 . S
C234 C235 1.478 . S
C235 C222 1.394 . S
C235 C234 1.478 . S
C235 C236 1.397 . S
C236 C235 1.397 . S
C236 C237 1.438 1_455 S
C236 C241 1.429 . S
C237 C220 1.394 . S
C237 C236 1.438 1_655 S
C237 C238 1.428 . S
C238 H230 0.949 . S
C238 C237 1.428 . S
C238 C239 1.345 . S
C239 H231 0.950 . S
C239 C238 1.345 . S
C239 C240 1.424 . S
C240 H232 0.951 . S
C240 C239 1.424 . S
C240 C241 1.347 1_655 S
C241 H233 0.951 . S
C241 C236 1.429 . S
C241 C240 1.347 1_455 S
H242 C243 0.951 . S
C243 H242 0.951 . S
C243 C249 1.265 . S
H244 C249 0.950 1_545 S
H245 C253 0.949 . S
H246 C254 0.950 . S
H247 C255 0.951 1_655 S
H248 C256 0.951 . S
C249 C243 1.265 . S
C249 H244 0.950 1_565 S
C249 C250 1.478 . S
C250 C249 1.478 . S
C250 C251 1.397 1_565 S
C250 C267 1.394 1_554 S
C251 C250 1.397 1_545 S
C251 C252 1.438 1_655 S
C251 C256 1.429 . S
C252 C251 1.438 1_455 S
C252 C253 1.428 . S
C252 C265 1.394 1_554 S
C253 H245 0.949 . S
C253 C252 1.428 . S
C253 C254 1.345 . S
C254 H246 0.950 . S
C254 C253 1.345 . S
C254 C255 1.424 . S
C255 H247 0.951 1_455 S
C255 C254 1.424 . S
C255 C256 1.347 1_455 S
C256 H248 0.951 . S
C256 C251 1.429 . S
C256 C255 1.347 1_655 S
H257 C258 0.951 . S
C258 H257 0.951 . S
C258 C264 1.265 . S
H259 C264 0.950 1_565 S
H260 C268 0.949 . S
H261 C269 0.950 . S
H262 C270 0.951 1_455 S
H263 C271 0.951 . S
C264 C258 1.265 . S
C264 H259 0.950 1_545 S
C264 C265 1.478 . S
C265 C252 1.394 1_556 S
C265 C264 1.478 . S
C265 C266 1.397 1_545 S
C266 C265 1.397 1_565 S
C266 C267 1.438 1_455 S
C266 C271 1.429 . S
C267 C250 1.394 1_556 S
C267 C266 1.438 1_655 S
C267 C268 1.428 . S
C268 H260 0.949 . S
C268 C267 1.428 . S
C268 C269 1.345 . S
C269 H261 0.950 . S
C269 C268 1.345 . S
C269 C270 1.424 . S
C270 H262 0.951 1_655 S
C270 C269 1.424 . S
C270 C271 1.347 1_655 S
C271 H263 0.951 . S
C271 C266 1.429 . S
C271 C270 1.347 1_455 S
H272 C273 0.951 . S
C273 H272 0.951 . S
C273 C279 1.265 . S
H274 C279 0.950 . S
H275 C283 0.949 . S
H276 C284 0.950 . S
H277 C285 0.951 . S
H278 C286 0.951 . S
C279 C273 1.265 . S
C279 H274 0.950 . S
C279 C280 1.478 . S
C280 C279 1.478 . S
C280 C281 1.397 . S
C280 C297 1.394 . S
C281 C280 1.397 . S
C281 C282 1.438 . S
C281 C286 1.429 . S
C282 C281 1.438 . S
C282 C283 1.428 . S
C282 C295 1.394 . S
C283 H275 0.949 . S
C283 C282 1.428 . S
C283 C284 1.345 . S
C284 H276 0.950 . S
C284 C283 1.345 . S
C284 C285 1.424 . S
C285 H277 0.951 . S
C285 C284 1.424 . S
C285 C286 1.347 . S
C286 H278 0.951 . S
C286 C281 1.429 . S
C286 C285 1.347 . S
H287 C288 0.951 . S
C288 H287 0.951 . S
C288 C294 1.265 . S
H289 C294 0.950 . S
H290 C298 0.949 . S
H291 C299 0.950 . S
H292 C300 0.951 . S
H293 C301 0.951 . S
C294 C288 1.265 . S
C294 H289 0.950 . S
C294 C295 1.478 . S
C295 C282 1.394 . S
C295 C294 1.478 . S
C295 C296 1.397 . S
C296 C295 1.397 . S
C296 C297 1.438 . S
C296 C301 1.429 . S
C297 C280 1.394 . S
C297 C296 1.438 . S
C297 C298 1.428 . S
C298 H290 0.949 . S
C298 C297 1.428 . S
C298 C299 1.345 . S
C299 H291 0.950 . S
C299 C298 1.345 . S
C299 C300 1.424 . S
C300 H292 0.951 . S
C300 C299 1.424 . S
C300 C301 1.347 . S
C301 H293 0.951 . S
C301 C296 1.429 . S
C301 C300 1.347 . S
H302 C303 0.951 . S
C303 H302 0.951 . S
C303 C309 1.265 . S
H304 C309 0.950 . S
H305 C313 0.949 . S
H306 C314 0.950 . S
H307 C315 0.951 . S
H308 C316 0.951 . S
C309 C303 1.265 . S
C309 H304 0.950 . S
C309 C310 1.478 . S
C310 C309 1.478 . S
C310 C311 1.397 . S
C310 C327 1.394 . S
C311 C310 1.397 . S
C311 C312 1.438 . S
C311 C316 1.429 . S
C312 C311 1.438 . S
C312 C313 1.428 . S
C312 C325 1.394 . S
C313 H305 0.949 . S
C313 C312 1.428 . S
C313 C314 1.345 . S
C314 H306 0.950 . S
C314 C313 1.345 . S
C314 C315 1.424 . S
C315 H307 0.951 . S
C315 C314 1.424 . S
C315 C316 1.347 . S
C316 H308 0.951 . S
C316 C311 1.429 . S
C316 C315 1.347 . S
H317 C318 0.951 . S
C318 H317 0.951 . S
C318 C324 1.265 . S
H319 C324 0.950 . S
H320 C328 0.949 . S
H321 C329 0.950 . S
H322 C330 0.951 . S
H323 C331 0.951 . S
C324 C318 1.265 . S
C324 H319 0.950 . S
C324 C325 1.478 . S
C325 C312 1.394 . S
C325 C324 1.478 . S
C325 C326 1.397 . S
C326 C325 1.397 . S
C326 C327 1.438 . S
C326 C331 1.429 . S
C327 C310 1.394 . S
C327 C326 1.438 . S
C327 C328 1.428 . S
C328 H320 0.949 . S
C328 C327 1.428 . S
C328 C329 1.345 . S
C329 H321 0.950 . S
C329 C328 1.345 . S
C329 C330 1.424 . S
C330 H322 0.951 . S
C330 C329 1.424 . S
C330 C331 1.347 . S
C331 H323 0.951 . S
C331 C326 1.429 . S
C331 C330 1.347 . S
H332 C333 0.951 . S
C333 H332 0.951 . S
C333 C339 1.265 . S
H334 C339 0.950 . S
H335 C343 0.949 . S
H336 C344 0.950 . S
H337 C345 0.951 . S
H338 C346 0.951 . S
C339 C333 1.265 . S
C339 H334 0.950 . S
C339 C340 1.478 . S
C340 C339 1.478 . S
C340 C341 1.397 . S
C340 C357 1.394 . S
C341 C340 1.397 . S
C341 C342 1.438 . S
C341 C346 1.429 . S
C342 C341 1.438 . S
C342 C343 1.428 . S
C342 C355 1.394 . S
C343 H335 0.949 . S
C343 C342 1.428 . S
C343 C344 1.345 . S
C344 H336 0.950 . S
C344 C343 1.345 . S
C344 C345 1.424 . S
C345 H337 0.951 . S
C345 C344 1.424 . S
C345 C346 1.347 . S
C346 H338 0.951 . S
C346 C341 1.429 . S
C346 C345 1.347 . S
H347 C348 0.951 . S
C348 H347 0.951 . S
C348 C354 1.265 . S
H349 C354 0.950 . S
H350 C358 0.949 . S
H351 C359 0.950 . S
H352 C360 0.951 . S
H353 C361 0.951 . S
C354 C348 1.265 . S
C354 H349 0.950 . S
C354 C355 1.478 . S
C355 C342 1.394 . S
C355 C354 1.478 . S
C355 C356 1.397 . S
C356 C355 1.397 . S
C356 C357 1.438 . S
C356 C361 1.429 . S
C357 C340 1.394 . S
C357 C356 1.438 . S
C357 C358 1.428 . S
C358 H350 0.949 . S
C358 C357 1.428 . S
C358 C359 1.345 . S
C359 H351 0.950 . S
C359 C358 1.345 . S
C359 C360 1.424 . S
C360 H352 0.951 . S
C360 C359 1.424 . S
C360 C361 1.347 . S
C361 H353 0.951 . S
C361 C356 1.429 . S
C361 C360 1.347 . S
H362 C363 0.951 . S
C363 H362 0.951 . S
C363 C369 1.265 . S
H364 C369 0.950 . S
H365 C373 0.949 . S
H366 C374 0.950 . S
H367 C375 0.951 . S
H368 C376 0.951 . S
C369 C363 1.265 . S
C369 H364 0.950 . S
C369 C370 1.478 . S
C370 C369 1.478 . S
C370 C371 1.397 . S
C370 C387 1.394 . S
C371 C370 1.397 . S
C371 C372 1.438 . S
C371 C376 1.429 . S
C372 C371 1.438 . S
C372 C373 1.428 . S
C372 C385 1.394 . S
C373 H365 0.949 . S
C373 C372 1.428 . S
C373 C374 1.345 . S
C374 H366 0.950 . S
C374 C373 1.345 . S
C374 C375 1.424 . S
C375 H367 0.951 . S
C375 C374 1.424 . S
C375 C376 1.347 . S
C376 H368 0.951 . S
C376 C371 1.429 . S
C376 C375 1.347 . S
H377 C378 0.951 . S
C378 H377 0.951 . S
C378 C384 1.265 . S
H379 C384 0.950 . S
H380 C388 0.949 . S
H381 C389 0.950 . S
H382 C390 0.951 . S
H383 C391 0.951 . S
C384 C378 1.265 . S
C384 H379 0.950 . S
C384 C385 1.478 . S
C385 C372 1.394 . S
C385 C384 1.478 . S
C385 C386 1.397 . S
C386 C385 1.397 . S
C386 C387 1.438 . S
C386 C391 1.429 . S
C387 C370 1.394 . S
C387 C386 1.438 . S
C387 C388 1.428 . S
C388 H380 0.949 . S
C388 C387 1.428 . S
C388 C389 1.345 . S
C389 H381 0.950 . S
C389 C388 1.345 . S
C389 C390 1.424 . S
C390 H382 0.951 . S
C390 C389 1.424 . S
C390 C391 1.347 . S
C391 H383 0.951 . S
C391 C386 1.429 . S
C391 C390 1.347 . S
H392 C393 0.951 . S
C393 H392 0.951 . S
C393 C399 1.265 . S
H394 C399 0.950 . S
H395 C403 0.949 . S
H396 C404 0.950 . S
H397 C405 0.951 . S
H398 C406 0.951 . S
C399 C393 1.265 . S
C399 H394 0.950 . S
C399 C400 1.478 . S
C400 C399 1.478 . S
C400 C401 1.397 . S
C400 C417 1.394 . S
C401 C400 1.397 . S
C401 C402 1.438 . S
C401 C406 1.429 . S
C402 C401 1.438 . S
C402 C403 1.428 . S
C402 C415 1.394 . S
C403 H395 0.949 . S
C403 C402 1.428 . S
C403 C404 1.345 . S
C404 H396 0.950 . S
C404 C403 1.345 . S
C404 C405 1.424 . S
C405 H397 0.951 . S
C405 C404 1.424 . S
C405 C406 1.347 . S
C406 H398 0.951 . S
C406 C401 1.429 . S
C406 C405 1.347 . S
H407 C408 0.951 . S
C408 H407 0.951 . S
C408 C414 1.265 . S
H409 C414 0.950 . S
H410 C418 0.949 . S
H411 C419 0.950 . S
H412 C420 0.951 . S
H413 C421 0.951 . S
C414 C408 1.265 . S
C414 H409 0.950 . S
C414 C415 1.478 . S
C415 C402 1.394 . S
C415 C414 1.478 . S
C415 C416 1.397 . S
C416 C415 1.397 . S
C416 C417 1.438 . S
C416 C421 1.429 . S
C417 C400 1.394 . S
C417 C416 1.438 . S
C417 C418 1.428 . S
C418 H410 0.949 . S
C418 C417 1.428 . S
C418 C419 1.345 . S
C419 H411 0.950 . S
C419 C418 1.345 . S
C419 C420 1.424 . S
C420 H412 0.951 . S
C420 C419 1.424 . S
C420 C421 1.347 . S
C421 H413 0.951 . S
C421 C416 1.429 . S
C421 C420 1.347 . S
H422 C423 0.933 1_565 S
C423 H422 0.933 1_545 S
C423 C429 1.265 . S
H424 C429 0.950 . S
H425 C433 0.949 1_565 S
H426 C434 0.950 . S
H427 C435 0.951 . S
H428 C436 0.951 . S
C429 C423 1.265 . S
C429 H424 0.950 . S
C429 C430 1.478 . S
C430 C429 1.478 . S
C430 C431 1.397 1_556 S
C430 C447 1.392 1_545 S
C431 C430 1.397 1_554 S
C431 C432 1.440 . S
C431 C436 1.429 . S
C432 C431 1.440 . S
C432 C433 1.428 . S
C432 C445 1.392 1_545 S
C433 H425 0.949 1_545 S
C433 C432 1.428 . S
C433 C434 1.345 . S
C434 H426 0.950 . S
C434 C433 1.345 . S
C434 C435 1.424 . S
C435 H427 0.951 . S
C435 C434 1.424 . S
C435 C436 1.347 . S
C436 H428 0.951 . S
C436 C431 1.429 . S
C436 C435 1.347 . S
H437 C438 0.933 1_545 S
C438 H437 0.933 1_565 S
C438 C444 1.265 . S
H439 C444 0.950 . S
H440 C448 0.949 1_545 S
H441 C449 0.950 . S
H442 C450 0.951 . S
H443 C451 0.951 . S
C444 C438 1.265 . S
C444 H439 0.950 . S
C444 C445 1.478 . S
C445 C432 1.392 1_565 S
C445 C444 1.478 . S
C445 C446 1.397 1_554 S
C446 C445 1.397 1_556 S
C446 C447 1.440 . S
C446 C451 1.429 . S
C447 C430 1.392 1_565 S
C447 C446 1.440 . S
C447 C448 1.428 . S
C448 H440 0.949 1_565 S
C448 C447 1.428 . S
C448 C449 1.345 . S
C449 H441 0.950 . S
C449 C448 1.345 . S
C449 C450 1.424 . S
C450 H442 0.951 . S
C450 C449 1.424 . S
C450 C451 1.347 . S
C451 H443 0.951 . S
C451 C446 1.429 . S
C451 C450 1.347 . S
C93 C44 1.651 1_545 S
C108 C19 1.643 . S
C123 C21 1.646 . S
C138 C42 1.623 . S
C153 C90 1.657 1_565 S
C168 C65 1.587 . S
C183 C67 1.646 . S
C198 C88 1.623 . S
C213 C62 0.787 . S
C228 C16 0.787 . S
C243 C39 0.778 . S
C258 C85 0.778 . S
C273 C87 1.592 1_554 S
C288 C17 1.560 . S
C303 C40 1.587 . S
C318 C64 1.589 . S
C333 C41 1.579 1_556 S
C348 C63 1.587 . S
C363 C86 1.525 . S
C378 C18 1.567 . S
C393 C20 1.310 . S
C408 C66 1.310 . S
C423 C89 1.299 . S
C438 C43 1.299 . S
