# Generated by pormake.
# Topology kag, (6)-cn, num edge types: 1
# Building blocks:
#     Node 0, Type 0, BuildingBlock: BETDIP_clean_sbu_0, # of connection points: 6
#     Node 1, Type 0, BuildingBlock: BETDIP_clean_sbu_0, # of connection points: 6
#     Node 2, Type 0, BuildingBlock: BETDIP_clean_sbu_0, # of connection points: 6
#     Edge 3, Type (0, 0), BuildingBlock: FUNLAD_clean_linker_1, # of connection points: 2
#     Edge 4, Type (0, 0), BuildingBlock: FUNLAD_clean_linker_1, # of connection points: 2
#     Edge 5, Type (0, 0), BuildingBlock: FUNLAD_clean_linker_1, # of connection points: 2
#     Edge 6, Type (0, 0), BuildingBlock: FUNLAD_clean_linker_1, # of connection points: 2
#     Edge 7, Type (0, 0), BuildingBlock: FUNLAD_clean_linker_1, # of connection points: 2
#     Edge 8, Type (0, 0), BuildingBlock: FUNLAD_clean_linker_1, # of connection points: 2
#     Edge 9, Type (0, 0), BuildingBlock: FUNLAD_clean_linker_1, # of connection points: 2
#     Edge 10, Type (0, 0), BuildingBlock: FUNLAD_clean_linker_1, # of connection points: 2
#     Edge 11, Type (0, 0), BuildingBlock: FUNLAD_clean_linker_1, # of connection points: 2
# Relax obj value: 0.013
# Max RMSD: 0.069
# Mean RMSD: 0.060
data_MOF--net-kag--node1-BETDIP_clean_sbu_0--edge1-FUNLAD_clean_linker_1
_symmetry_space_group_name_H-M    P1
_symmetry_Int_Tables_number       1
_symmetry_cell_setting            triclinic
loop_
_symmetry_equiv_pos_as_xyz
'x, y, z'
_cell_length_a     42.09171
_cell_length_b     42.384748
_cell_length_c     15.265977
_cell_angle_alpha  91.816206
_cell_angle_beta   91.784434
_cell_angle_gamma 119.63495
loop_
_atom_site_label
_atom_site_type_symbol
_atom_site_fract_x
_atom_site_fract_y
_atom_site_fract_z
_atom_type_partial_charge
Tb0 Tb 1.00952 0.4734 0.00398 0.0
Tb1 Tb 0.05593 0.55567 0.00473 0.0
C2 C 0.96506 0.40874 0.04032 0.0
C3 C 0.92539 0.38106 0.03573 0.0
C4 C 0.89891 0.38786 0.07195 0.0
C5 C 0.86215 0.36011 0.07199 0.0
C6 C 0.85089 0.32481 0.03651 0.0
C7 C 0.87746 0.31842 0.99853 0.0
C8 C 0.91413 0.34613 0.99858 0.0
C9 C 1.02585 0.50041 0.84705 0.0
C10 C 0.97041 0.52159 1.00331 0.0
C11 C 0.09893 0.62047 0.96587 0.0
C12 C 0.13664 0.65264 0.97822 0.0
C13 C 0.16423 0.65816 0.92056 0.0
C14 C 0.19759 0.69127 0.92394 0.0
C15 C 0.20409 0.71989 0.98479 0.0
C16 C 0.17675 0.71391 0.04334 0.0
C17 C 0.14363 0.68092 0.04019 0.0
C18 C 0.04023 0.52894 0.16221 0.0
C19 C 0.09454 0.50619 0.00687 0.0
O20 O 0.97662 0.43691 0.09596 0.0
O21 O 0.98125 0.41758 0.9661 0.0
O22 O 1.01843 0.51416 0.91212 0.0
O23 O 1.02101 0.46885 0.86639 0.0
O24 O 0.96842 0.49028 0.0203 0.0
O25 O 1.0015 0.55006 0.98215 0.0
O26 O 0.09372 0.59181 0.91839 0.0
O27 O 0.07806 0.6116 0.03287 0.0
O28 O 0.04705 0.51508 0.09643 0.0
O29 O 0.04623 0.56097 0.14363 0.0
O30 O 0.09758 0.53836 0.99248 0.0
O31 O 0.06295 0.47775 0.02461 0.0
H32 H 0.9066 0.41446 0.10116 0.0
H33 H 0.84249 0.36617 0.10107 0.0
H34 H 0.87035 0.29223 0.96818 0.0
H35 H 0.93393 0.34009 0.9702 0.0
H36 H 0.15959 0.63738 0.87062 0.0
H37 H 0.21741 0.69466 0.87642 0.0
H38 H 0.18064 0.73525 0.09079 0.0
H39 H 0.1229 0.67812 0.08453 0.0
Tb40 Tb 0.5516 0.99471 0.02997 0.0
Tb41 Tb 0.51477 0.03553 0.00374 0.0
C42 C 0.5719 0.95001 0.07524 0.0
C43 C 0.56457 0.91228 0.05499 0.0
C44 C 0.55819 0.88891 0.12374 0.0
C45 C 0.5554 0.85474 0.10859 0.0
C46 C 0.55895 0.84299 0.02379 0.0
C47 C 0.56461 0.86621 0.95481 0.0
C48 C 0.56729 0.90032 0.96998 0.0
C49 C 0.553 1.01416 0.86436 0.0
C50 C 0.46558 0.95173 0.9856 0.0
C51 C 0.49488 0.08052 0.95742 0.0
C52 C 0.50291 0.11876 0.97436 0.0
C53 C 0.51058 0.14171 0.90407 0.0
C54 C 0.51348 0.17611 0.91575 0.0
C55 C 0.50868 0.18854 0.99847 0.0
C56 C 0.50184 0.16581 0.06908 0.0
C57 C 0.49907 0.1315 0.05742 0.0
C58 C 0.51323 1.01599 0.16941 0.0
C59 C 0.60091 0.07764 0.05181 0.0
O60 O 0.54679 0.95405 0.11405 0.0
O61 O 0.58723 0.97378 0.01588 0.0
O62 O 0.52576 1.0028 0.91228 0.0
O63 O 0.5793 1.01347 0.90816 0.0
O64 O 0.49432 0.95133 0.021 0.0
O65 O 0.46831 0.98237 0.95923 0.0
O66 O 0.51877 0.0751 0.91671 0.0
O67 O 0.48051 0.05798 0.01962 0.0
O68 O 0.54047 0.02741 0.1215 0.0
O69 O 0.48704 1.01693 0.12568 0.0
O70 O 0.57297 0.07878 0.01302 0.0
O71 O 0.59665 0.04682 0.08017 0.0
H72 H 0.55646 0.89757 0.19012 0.0
H73 H 0.55182 0.83842 0.16434 0.0
H74 H 0.56761 0.85819 0.88885 0.0
H75 H 0.57239 0.91763 0.91541 0.0
H76 H 0.51316 0.13251 0.83902 0.0
H77 H 0.51809 0.19207 0.85883 0.0
H78 H 0.4979 0.17433 0.13356 0.0
H79 H 0.49289 0.11459 0.11313 0.0
Tb80 Tb 0.49264 0.49475 1.00094 0.0
Tb81 Tb 0.57494 0.53757 0.00383 0.0
C82 C 0.42631 0.47037 0.03472 0.0
C83 C 0.39809 0.48162 0.02902 0.0
C84 C 0.40708 0.51821 0.03962 0.0
C85 C 0.37959 0.52781 0.03476 0.0
C86 C 0.34247 0.50118 0.01953 0.0
C87 C 0.33374 0.46455 0.00778 0.0
C88 C 0.36123 0.455 0.01273 0.0
C89 C 0.52045 0.50773 0.84452 0.0
C90 C 0.53418 0.58218 0.01039 0.0
C91 C 0.64135 0.56355 0.96897 0.0
C92 C 0.67334 0.55785 0.98302 0.0
C93 C 0.68455 0.5433 0.9143 0.0
C94 C 0.71727 0.54214 0.92307 0.0
C95 C 0.73977 0.55572 1.00094 0.0
C96 C 0.72821 0.56972 0.06991 0.0
C97 C 0.69551 0.57076 0.06126 0.0
C98 C 0.54726 0.52424 0.16061 0.0
C99 C 0.53328 0.44979 0.99486 0.0
O100 O 0.45381 0.48819 0.09245 0.0
O101 O 0.4369 0.46359 0.96031 0.0
O102 O 0.53216 0.52926 0.91152 0.0
O103 O 0.49039 0.47895 0.86195 0.0
O104 O 0.50442 0.55122 0.02543 0.0
O105 O 0.56448 0.58278 0.98675 0.0
O106 O 0.61391 0.54021 0.91643 0.0
O107 O 0.63025 0.57409 0.03727 0.0
O108 O 0.53551 0.5031 0.09306 0.0
O109 O 0.57775 0.55262 0.14381 0.0
O110 O 0.56347 0.48095 0.98264 0.0
O111 O 0.5024 0.44889 0.01494 0.0
H112 H 0.43529 0.53938 0.05184 0.0
H113 H 0.3874 0.55625 0.04343 0.0
H114 H 0.30591 0.44301 0.99364 0.0
H115 H 0.35364 0.42663 0.00364 0.0
H116 H 0.66857 0.53383 0.85248 0.0
H117 H 0.72533 0.53189 0.86733 0.0
H118 H 0.74491 0.58057 0.13051 0.0
H119 H 0.68819 0.58269 0.11525 0.0
H120 H 1.03001 0.539 0.74729 0.0
C121 C 1.02967 0.51355 0.75692 0.0
H122 H 1.02987 0.46821 0.69677 0.0
H123 H 0.97115 0.47695 0.31914 0.0
H124 H 0.91904 0.42347 0.37017 0.0
H125 H 0.91802 0.40673 0.52372 0.0
H126 H 0.96903 0.44357 0.62742 0.0
C127 C 1.03155 0.49428 0.68715 0.0
C128 C 1.03234 0.50536 0.59441 0.0
C129 C 1.00262 0.4832 0.53356 0.0
C130 C 1.00343 0.49257 0.44428 0.0
C131 C 0.97258 0.47065 0.38669 0.0
C132 C 0.9423 0.43995 0.41531 0.0
C133 C 0.94171 0.43054 0.50178 0.0
C134 C 0.97131 0.45188 0.56056 0.0
H135 H 0.03589 0.49004 0.26132 0.0
C136 C 0.03656 0.51567 0.25218 0.0
H137 H 0.03702 0.56123 0.31304 0.0
H138 H 0.09539 0.55237 0.69045 0.0
H139 H 0.14751 0.60586 0.63947 0.0
H140 H 0.14864 0.6225 0.4858 0.0
H141 H 0.0977 0.58558 0.38197 0.0
C142 C 0.03508 0.53502 0.32233 0.0
C143 C 0.03432 0.52385 0.41499 0.0
C144 C 0.06406 0.546 0.47584 0.0
C145 C 0.06322 0.53665 0.56514 0.0
C146 C 0.09401 0.55863 0.62283 0.0
C147 C 0.1243 0.58934 0.59425 0.0
C148 C 0.12494 0.59869 0.50772 0.0
C149 C 0.09539 0.57731 0.44887 0.0
H150 H 0.48583 1.00371 0.29441 0.0
C151 C 0.51221 1.01214 0.26703 0.0
H152 H 0.56768 0.02938 0.2986 0.0
H153 H 0.5694 0.08053 0.69597 0.0
H154 H 0.60982 0.13721 0.6313 0.0
H155 H 0.61727 0.13972 0.47171 0.0
H156 H 0.58419 0.08557 0.37547 0.0
C157 C 0.54066 0.01928 0.32372 0.0
C158 C 0.53675 1.01699 0.42277 0.0
C159 C 0.55678 0.04866 0.4797 0.0
C160 C 0.55296 0.04708 0.57295 0.0
C161 C 0.57217 0.07972 0.62592 0.0
C162 C 0.59524 0.1126 0.58948 0.0
C163 C 0.5994 0.11403 0.49958 0.0
C164 C 0.58032 0.08264 0.44506 0.0
H165 H 0.58042 0.02647 0.7394 0.0
C166 C 0.55407 1.01815 0.7668 0.0
H167 H 0.49868 1.00129 0.7353 0.0
H168 H 0.49727 0.94996 0.33812 0.0
H169 H 0.45693 0.89327 0.40285 0.0
H170 H 0.44923 0.89081 0.56233 0.0
H171 H 0.48209 0.94502 0.65847 0.0
C172 C 0.52568 1.01126 0.71019 0.0
C173 C 0.52961 1.01357 0.61116 0.0
C174 C 0.50959 0.9819 0.55424 0.0
C175 C 0.51346 0.98347 0.46102 0.0
C176 C 0.4944 0.95079 0.40813 0.0
C177 C 0.47138 0.9179 0.44461 0.0
C178 C 0.46708 0.91651 0.53445 0.0
C179 C 0.48605 0.94793 0.58891 0.0
H180 H 0.5573 0.54406 0.74722 0.0
C181 C 0.53285 0.51808 0.75487 0.0
H182 H 0.48965 0.47061 0.69124 0.0
H183 H 0.53819 0.58348 0.36594 0.0
H184 H 0.52026 0.61941 0.45662 0.0
H185 H 0.50295 0.60381 0.60866 0.0
H186 H 0.50377 0.55246 0.6712 0.0
C187 C 0.51367 0.49691 0.68326 0.0
C188 C 0.52469 0.50718 0.59149 0.0
C189 C 0.52355 0.5371 0.55526 0.0
C190 C 0.5329 0.54573 0.46674 0.0
C191 C 0.53155 0.57578 0.43266 0.0
C192 C 0.52114 0.59656 0.48387 0.0
C193 C 0.51144 0.5878 0.56949 0.0
C194 C 0.51234 0.55835 0.60488 0.0
H195 H 0.51005 0.48771 0.25716 0.0
C196 C 0.53468 0.5136 0.25001 0.0
H197 H 0.57806 0.56071 0.31444 0.0
H198 H 0.52913 0.44775 0.63902 0.0
H199 H 0.54691 0.41174 0.5482 0.0
H200 H 0.56407 0.42725 0.39603 0.0
H201 H 0.56327 0.47862 0.33353 0.0
C202 C 0.55388 0.53448 0.32195 0.0
C203 C 0.54263 0.52406 0.41351 0.0
C204 C 0.54369 0.49409 0.44967 0.0
C205 C 0.53437 0.48548 0.53821 0.0
C206 C 0.53571 0.45543 0.57227 0.0
C207 C 0.54604 0.43459 0.52097 0.0
C208 C 0.55567 0.44331 0.43528 0.0
C209 C 0.55479 0.47278 0.39993 0.0
H210 H 0.12236 0.4738 0.01455 0.0
C211 C 0.12707 0.50119 0.007 0.0
H212 H 0.16736 0.55608 0.99463 0.0
H213 H 0.29077 0.52689 0.16633 0.0
H214 H 0.28325 0.56128 0.28576 0.0
H215 H 0.23484 0.57793 0.27606 0.0
H216 H 0.1934 0.56005 0.14689 0.0
C217 C 0.1616 0.52823 0.99892 0.0
C218 C 0.19304 0.52088 1.00101 0.0
C219 C 0.21786 0.53243 0.07565 0.0
C220 C 0.24624 0.52325 0.08067 0.0
C221 C 0.26936 0.53377 0.15796 0.0
C222 C 0.26523 0.55339 0.22729 0.0
C223 C 0.23794 0.56274 0.22187 0.0
C224 C 0.21438 0.55235 0.14729 0.0
H225 H 0.32374 0.54177 0.01048 0.0
C226 C 0.31414 0.5129 0.01476 0.0
H227 H 0.26668 0.46123 0.0219 0.0
H228 H 0.15332 0.49826 0.84405 0.0
H229 H 0.16139 0.46476 0.72327 0.0
H230 H 0.21007 0.44846 0.73221 0.0
H231 H 0.25116 0.46572 0.86184 0.0
C232 C 0.27769 0.49022 0.01752 0.0
C233 C 0.2503 0.50305 0.01017 0.0
C234 C 0.22618 0.49254 0.93435 0.0
C235 C 0.19777 0.50163 0.92951 0.0
C236 C 0.17478 0.49141 0.85203 0.0
C237 C 0.17924 0.47234 0.78197 0.0
C238 C 0.20667 0.46319 0.78698 0.0
C239 C 0.22999 0.47316 0.86195 0.0
H240 H 0.65951 0.10805 0.09563 0.0
C241 C 0.63778 0.11063 0.06228 0.0
H242 H 0.62481 0.14487 0.99067 0.0
H243 H 0.78839 0.26034 0.19094 0.0
H244 H 0.75754 0.24328 0.32732 0.0
H245 H 0.69283 0.19526 0.32809 0.0
H246 H 0.65867 0.16356 0.1926 0.0
C247 C 0.64596 0.14249 0.02754 0.0
C248 C 0.68459 0.17363 0.02784 0.0
C249 C 0.704 0.19285 0.1073 0.0
C250 C 0.74112 0.22158 0.10651 0.0
C251 C 0.76004 0.23907 0.18734 0.0
C252 C 0.74267 0.22947 0.26619 0.0
C253 C 0.70626 0.20235 0.26666 0.0
C254 C 0.68701 0.18421 0.1884 0.0
H255 H 0.79188 0.30451 0.05695 0.0
C256 C 0.81138 0.29588 0.03959 0.0
H257 H 0.81685 0.24979 0.00735 0.0
H258 H 0.65562 0.14372 0.8631 0.0
H259 H 0.68571 0.16242 0.72638 0.0
H260 H 0.7492 0.21305 0.72482 0.0
H261 H 0.78306 0.24535 0.86022 0.0
C262 C 0.79856 0.25984 0.02454 0.0
C263 C 0.75867 0.2319 0.02599 0.0
C264 C 0.73889 0.21339 0.94641 0.0
C265 C 0.70199 0.18437 0.94727 0.0
C266 C 0.68342 0.1662 0.86651 0.0
C267 C 0.70041 0.17658 0.7874 0.0
C268 C 0.73617 0.20506 0.78654 0.0
C269 C 0.75532 0.22331 0.86481 0.0
H270 H 0.57031 0.80525 0.94392 0.0
C271 C 0.55926 0.80811 0.00523 0.0
H272 H 0.53571 0.78185 0.12094 0.0
H273 H 0.51832 0.64249 0.86744 0.0
H274 H 0.47881 0.65378 0.77019 0.0
H275 H 0.47074 0.70698 0.79766 0.0
H276 H 0.50264 0.74962 0.92155 0.0
C277 C 0.547 0.78021 0.05923 0.0
C278 C 0.55108 0.74729 0.04151 0.0
C279 C 0.53125 0.72182 0.9703 0.0
C280 C 0.53467 0.69013 0.95653 0.0
C281 C 0.51579 0.66621 0.88274 0.0
C282 C 0.49314 0.67246 0.8261 0.0
C283 C 0.4887 0.70249 0.8414 0.0
C284 C 0.50737 0.72691 0.91258 0.0
H285 H 0.50583 0.61353 0.03378 0.0
C286 C 0.53183 0.61606 0.01656 0.0
H287 H 0.58659 0.65262 0.9894 0.0
H288 H 0.59364 0.79035 0.183 0.0
H289 H 0.63165 0.778 0.28259 0.0
H290 H 0.63572 0.7222 0.26186 0.0
H291 H 0.60195 0.67842 0.14108 0.0
C292 C 0.56001 0.64938 1.00341 0.0
C293 C 0.55686 0.68305 0.01569 0.0
C294 C 0.57663 0.70848 0.08678 0.0
C295 C 0.57381 0.7405 0.09955 0.0
C296 C 0.59425 0.76538 0.17082 0.0
C297 C 0.6163 0.75869 0.22843 0.0
C298 C 0.61864 0.7273 0.21668 0.0
C299 C 0.59913 0.70241 0.14689 0.0
H300 H 0.9107 0.49691 0.00992 0.0
C301 C 0.93561 0.52248 1.00163 0.0
H302 H 0.95747 0.57824 0.9808 0.0
H303 H 0.8114 0.56471 0.81471 0.0
H304 H 0.85166 0.58567 0.6939 0.0
H305 H 0.91248 0.59047 0.70483 0.0
H306 H 0.93363 0.5747 0.83691 0.0
C307 C 0.93304 0.55258 0.9912 0.0
C308 C 0.8965 0.55089 0.98662 0.0
C309 C 0.88428 0.55993 0.90861 0.0
C310 C 0.84878 0.55645 0.90162 0.0
C311 C 0.83773 0.56621 0.82321 0.0
C312 C 0.86062 0.57839 0.75333 0.0
C313 C 0.89489 0.58115 0.75953 0.0
C314 C 0.90671 0.57204 0.83595 0.0
H315 H 0.79531 0.57643 0.06344 0.0
C316 C 0.77635 0.55795 0.01144 0.0
H317 H 0.76923 0.51965 0.9094 0.0
H318 H 0.91321 0.53763 0.15133 0.0
H319 H 0.87214 0.51431 0.27009 0.0
H320 H 0.80859 0.50223 0.25256 0.0
H321 H 0.78603 0.5143 0.11711 0.0
C322 C 0.78724 0.53845 0.96186 0.0
C323 C 0.82511 0.5435 0.97218 0.0
C324 C 0.83737 0.53456 0.05043 0.0
C325 C 0.87341 0.53937 0.05862 0.0
C326 C 0.8856 0.53264 0.13974 0.0
C327 C 0.86239 0.51955 0.20881 0.0
C328 C 0.82667 0.51291 0.19908 0.0
C329 C 0.81415 0.52024 0.12104 0.0
H330 H 0.23628 0.77888 0.02265 0.0
C331 C 0.23757 0.75697 0.98687 0.0
H332 H 0.27177 0.74426 0.9126 0.0
H333 H 0.3813 0.89902 0.78754 0.0
H334 H 0.3495 0.86659 0.65046 0.0
H335 H 0.2951 0.80548 0.64947 0.0
H336 H 0.27226 0.7762 0.78533 0.0
C337 C 0.26924 0.76517 0.94924 0.0
C338 C 0.30133 0.80336 0.95144 0.0
C339 C 0.31415 0.82062 0.8715 0.0
C340 C 0.34532 0.85629 0.87204 0.0
C341 C 0.35766 0.87225 0.79098 0.0
C342 C 0.33966 0.85394 0.71179 0.0
C343 C 0.30906 0.8195 0.71124 0.0
C344 C 0.2963 0.80295 0.78982 0.0
H345 H 0.4321 0.89273 0.99759 0.0
C346 C 0.43072 0.91643 0.97745 0.0
H347 H 0.39533 0.93482 0.93021 0.0
H348 H 0.28791 0.77763 0.11669 0.0
H349 H 0.31817 0.81115 0.25345 0.0
H350 H 0.36837 0.87466 0.25471 0.0
H351 H 0.38914 0.90478 0.11888 0.0
C352 C 0.39772 0.91194 0.95236 0.0
C353 C 0.36379 0.87511 0.95243 0.0
C354 C 0.35046 0.8583 0.03257 0.0
C355 C 0.32 0.82218 0.03205 0.0
C356 C 0.30945 0.80547 0.11304 0.0
C357 C 0.32685 0.82432 0.1922 0.0
C358 C 0.35522 0.86003 0.19291 0.0
C359 C 0.36702 0.87692 0.11432 0.0
H360 H 0.56218 0.41865 0.97576 0.0
C361 C 0.53582 0.41591 0.99001 0.0
H362 H 0.48064 0.37895 0.0126 0.0
H363 H 0.47643 0.24096 0.82869 0.0
H364 H 0.44027 0.25327 0.72317 0.0
H365 H 0.43626 0.30926 0.73865 0.0
H366 H 0.46825 0.35329 0.86012 0.0
C367 C 0.50752 0.38241 1.00148 0.0
C368 C 0.51107 0.3488 0.99178 0.0
C369 C 0.49241 0.32321 0.92023 0.0
C370 C 0.49524 0.29106 0.9105 0.0
C371 C 0.47582 0.26604 0.8387 0.0
C372 C 0.45483 0.27269 0.77768 0.0
C373 C 0.45252 0.30419 0.78648 0.0
C374 C 0.47099 0.32922 0.8567 0.0
H375 H 0.49666 0.22702 0.07311 0.0
C376 C 0.50824 0.22361 0.01324 0.0
H377 H 0.53266 0.24883 0.89725 0.0
H378 H 0.54735 0.38963 0.14154 0.0
H379 H 0.58523 0.3785 0.24461 0.0
H380 H 0.59361 0.32525 0.22235 0.0
H381 H 0.5636 0.28235 0.09795 0.0
C382 C 0.52094 0.25107 0.95775 0.0
C383 C 0.5169 0.28426 0.97203 0.0
C384 C 0.53575 0.30998 0.04351 0.0
C385 C 0.53225 0.34177 0.05425 0.0
C386 C 0.55003 0.36585 0.12847 0.0
C387 C 0.57174 0.3597 0.18843 0.0
C388 C 0.57635 0.32963 0.17606 0.0
C389 C 0.55873 0.30505 0.10455 0.0
loop_
_geom_bond_atom_site_label_1
_geom_bond_atom_site_label_2
_geom_bond_distance
_geom_bond_site_symmetry_2
_ccdc_geom_bond_type
Tb0 C2 2.809 . S
Tb0 O20 2.484 1_556 S
Tb0 O21 2.440 . S
Tb0 O22 2.658 1_655 S
Tb0 O23 2.409 . S
Tb0 O24 2.378 . S
Tb0 O28 2.325 1_556 S
Tb0 O31 2.341 1_655 S
Tb1 C11 2.809 . S
Tb1 O22 2.325 1_554 S
Tb1 O25 2.341 1_455 S
Tb1 O26 2.484 1_554 S
Tb1 O27 2.440 . S
Tb1 O28 2.658 1_455 S
Tb1 O29 2.409 . S
Tb1 O30 2.378 . S
C2 Tb0 2.809 . S
C2 C3 1.514 1_556 S
C2 O20 1.248 1_556 S
C2 O21 1.266 . S
C3 C2 1.514 1_554 S
C3 C4 1.359 . S
C3 C8 1.348 1_554 S
C4 C3 1.359 . S
C4 C5 1.380 . S
C4 H32 0.929 . S
C5 C4 1.380 . S
C5 C6 1.347 . S
C5 H33 0.931 . S
C6 C5 1.347 . S
C6 C7 1.369 1_554 S
C7 C6 1.369 1_556 S
C7 C8 1.408 . S
C7 H34 0.930 . S
C8 C3 1.348 1_556 S
C8 C7 1.408 . S
C8 H35 0.930 . S
C9 O22 1.281 1_655 S
C9 O23 1.254 . S
C10 O24 1.236 . S
C10 O25 1.266 1_556 S
C11 Tb1 2.809 . S
C11 C12 1.514 1_554 S
C11 O26 1.248 1_554 S
C11 O27 1.266 . S
C12 C11 1.514 1_556 S
C12 C13 1.359 . S
C12 C17 1.348 1_556 S
C13 C12 1.359 . S
C13 C14 1.380 . S
C13 H36 0.929 . S
C14 C13 1.380 . S
C14 C15 1.347 . S
C14 H37 0.931 . S
C15 C14 1.347 . S
C15 C16 1.369 1_556 S
C16 C15 1.369 1_554 S
C16 C17 1.408 . S
C16 H38 0.930 . S
C17 C12 1.348 1_554 S
C17 C16 1.408 . S
C17 H39 0.930 . S
C18 O28 1.281 1_455 S
C18 O29 1.254 . S
C19 O30 1.236 . S
C19 O31 1.266 1_554 S
O20 Tb0 2.484 1_554 S
O20 C2 1.248 1_554 S
O21 Tb0 2.440 . S
O21 C2 1.266 . S
O22 Tb0 2.658 1_455 S
O22 Tb1 2.325 1_556 S
O22 C9 1.281 1_455 S
O23 Tb0 2.409 . S
O23 C9 1.254 . S
O24 Tb0 2.378 . S
O24 C10 1.236 . S
O25 Tb1 2.341 1_655 S
O25 C10 1.266 1_554 S
O26 Tb1 2.484 1_556 S
O26 C11 1.248 1_556 S
O27 Tb1 2.440 . S
O27 C11 1.266 . S
O28 Tb0 2.325 1_554 S
O28 Tb1 2.658 1_655 S
O28 C18 1.281 1_655 S
O29 Tb1 2.409 . S
O29 C18 1.254 . S
O30 Tb1 2.378 . S
O30 C19 1.236 . S
O31 Tb0 2.341 1_455 S
O31 C19 1.266 1_556 S
H32 C4 0.929 . S
H33 C5 0.931 . S
H34 C7 0.930 . S
H35 C8 0.930 . S
H36 C13 0.929 . S
H37 C14 0.931 . S
H38 C16 0.930 . S
H39 C17 0.930 . S
Tb40 C42 2.809 1_556 S
Tb40 O60 2.484 1_556 S
Tb40 O61 2.440 . S
Tb40 O62 2.658 1_565 S
Tb40 O63 2.409 . S
Tb40 O64 2.378 . S
Tb40 O68 2.325 1_556 S
Tb40 O71 2.341 1_566 S
Tb41 C51 2.809 1_554 S
Tb41 O62 2.325 1_554 S
Tb41 O65 2.341 1_544 S
Tb41 O66 2.484 1_554 S
Tb41 O67 2.440 . S
Tb41 O68 2.658 1_545 S
Tb41 O69 2.409 . S
Tb41 O70 2.378 . S
C42 Tb40 2.809 1_554 S
C42 C43 1.514 . S
C42 O60 1.248 . S
C42 O61 1.266 1_554 S
C43 C42 1.514 . S
C43 C44 1.359 . S
C43 C48 1.348 1_554 S
C44 C43 1.359 . S
C44 C45 1.380 . S
C44 H72 0.929 . S
C45 C44 1.380 . S
C45 C46 1.347 . S
C45 H73 0.931 . S
C46 C45 1.347 . S
C46 C47 1.369 1_554 S
C47 C46 1.369 1_556 S
C47 C48 1.408 . S
C47 H74 0.930 . S
C48 C43 1.348 1_556 S
C48 C47 1.408 . S
C48 H75 0.930 . S
C49 O62 1.281 1_565 S
C49 O63 1.254 . S
C50 O64 1.236 . S
C50 O65 1.266 . S
C51 Tb41 2.809 1_556 S
C51 C52 1.514 . S
C51 O66 1.248 . S
C51 O67 1.266 1_556 S
C52 C51 1.514 . S
C52 C53 1.359 . S
C52 C57 1.348 1_556 S
C53 C52 1.359 . S
C53 C54 1.380 . S
C53 H76 0.929 . S
C54 C53 1.380 . S
C54 C55 1.347 . S
C54 H77 0.931 . S
C55 C54 1.347 . S
C55 C56 1.369 1_556 S
C56 C55 1.369 1_554 S
C56 C57 1.408 . S
C56 H78 0.930 . S
C57 C52 1.348 1_554 S
C57 C56 1.408 . S
C57 H79 0.930 . S
C58 O68 1.281 1_545 S
C58 O69 1.254 . S
C59 O70 1.236 . S
C59 O71 1.266 . S
O60 Tb40 2.484 1_554 S
O60 C42 1.248 . S
O61 Tb40 2.440 . S
O61 C42 1.266 1_556 S
O62 Tb40 2.658 1_545 S
O62 Tb41 2.325 1_556 S
O62 C49 1.281 1_545 S
O63 Tb40 2.409 . S
O63 C49 1.254 . S
O64 Tb40 2.378 . S
O64 C50 1.236 . S
O65 Tb41 2.341 1_566 S
O65 C50 1.266 . S
O66 Tb41 2.484 1_556 S
O66 C51 1.248 . S
O67 Tb41 2.440 . S
O67 C51 1.266 1_554 S
O68 Tb40 2.325 1_554 S
O68 Tb41 2.658 1_565 S
O68 C58 1.281 1_565 S
O69 Tb41 2.409 . S
O69 C58 1.254 . S
O70 Tb41 2.378 . S
O70 C59 1.236 . S
O71 Tb40 2.341 1_544 S
O71 C59 1.266 . S
H72 C44 0.929 . S
H73 C45 0.931 . S
H74 C47 0.930 . S
H75 C48 0.930 . S
H76 C53 0.929 . S
H77 C54 0.931 . S
H78 C56 0.930 . S
H79 C57 0.930 . S
Tb80 C82 2.809 . S
Tb80 O100 2.484 1_556 S
Tb80 O101 2.440 . S
Tb80 O102 2.658 . S
Tb80 O103 2.409 . S
Tb80 O104 2.378 . S
Tb80 O108 2.325 1_556 S
Tb80 O111 2.341 . S
Tb81 C91 2.809 . S
Tb81 O102 2.325 1_554 S
Tb81 O105 2.341 . S
Tb81 O106 2.484 1_554 S
Tb81 O107 2.440 . S
Tb81 O108 2.658 . S
Tb81 O109 2.409 . S
Tb81 O110 2.378 . S
C82 Tb80 2.809 . S
C82 C83 1.514 1_556 S
C82 O100 1.248 1_556 S
C82 O101 1.266 . S
C83 C82 1.514 1_554 S
C83 C84 1.359 . S
C83 C88 1.348 1_554 S
C84 C83 1.359 . S
C84 C85 1.380 . S
C84 H112 0.929 . S
C85 C84 1.380 . S
C85 C86 1.347 . S
C85 H113 0.931 . S
C86 C85 1.347 . S
C86 C87 1.369 1_554 S
C87 C86 1.369 1_556 S
C87 C88 1.408 . S
C87 H114 0.930 . S
C88 C83 1.348 1_556 S
C88 C87 1.408 . S
C88 H115 0.930 . S
C89 O102 1.281 . S
C89 O103 1.254 . S
C90 O104 1.236 . S
C90 O105 1.266 1_556 S
C91 Tb81 2.809 . S
C91 C92 1.514 1_554 S
C91 O106 1.248 1_554 S
C91 O107 1.266 . S
C92 C91 1.514 1_556 S
C92 C93 1.359 . S
C92 C97 1.348 1_556 S
C93 C92 1.359 . S
C93 C94 1.380 . S
C93 H116 0.929 . S
C94 C93 1.380 . S
C94 C95 1.347 . S
C94 H117 0.931 . S
C95 C94 1.347 . S
C95 C96 1.369 1_556 S
C96 C95 1.369 1_554 S
C96 C97 1.408 . S
C96 H118 0.930 . S
C97 C92 1.348 1_554 S
C97 C96 1.408 . S
C97 H119 0.930 . S
C98 O108 1.281 . S
C98 O109 1.254 . S
C99 O110 1.236 . S
C99 O111 1.266 1_554 S
O100 Tb80 2.484 1_554 S
O100 C82 1.248 1_554 S
O101 Tb80 2.440 . S
O101 C82 1.266 . S
O102 Tb80 2.658 . S
O102 Tb81 2.325 1_556 S
O102 C89 1.281 . S
O103 Tb80 2.409 . S
O103 C89 1.254 . S
O104 Tb80 2.378 . S
O104 C90 1.236 . S
O105 Tb81 2.341 . S
O105 C90 1.266 1_554 S
O106 Tb81 2.484 1_556 S
O106 C91 1.248 1_556 S
O107 Tb81 2.440 . S
O107 C91 1.266 . S
O108 Tb80 2.325 1_554 S
O108 Tb81 2.658 . S
O108 C98 1.281 . S
O109 Tb81 2.409 . S
O109 C98 1.254 . S
O110 Tb81 2.378 . S
O110 C99 1.236 . S
O111 Tb80 2.341 . S
O111 C99 1.266 1_556 S
H112 C84 0.929 . S
H113 C85 0.931 . S
H114 C87 0.930 . S
H115 C88 0.930 . S
H116 C93 0.929 . S
H117 C94 0.931 . S
H118 C96 0.930 . S
H119 C97 0.930 . S
H120 C121 0.951 . S
C121 H120 0.951 . S
C121 C127 1.265 1_655 S
H122 C127 0.950 . S
H123 C131 0.949 . S
H124 C132 0.950 . S
H125 C133 0.951 . S
H126 C134 0.951 . S
C127 C121 1.265 1_455 S
C127 H122 0.950 . S
C127 C128 1.478 . S
C128 C127 1.478 . S
C128 C129 1.397 1_455 S
C128 C145 1.394 . S
C129 C128 1.397 1_655 S
C129 C130 1.438 . S
C129 C134 1.429 . S
C130 C129 1.438 . S
C130 C131 1.428 . S
C130 C143 1.394 . S
C131 H123 0.949 . S
C131 C130 1.428 . S
C131 C132 1.345 . S
C132 H124 0.950 . S
C132 C131 1.345 . S
C132 C133 1.424 . S
C133 H125 0.951 . S
C133 C132 1.424 . S
C133 C134 1.347 . S
C134 H126 0.951 . S
C134 C129 1.429 . S
C134 C133 1.347 . S
H135 C136 0.951 . S
C136 H135 0.951 . S
C136 C142 1.265 1_455 S
H137 C142 0.950 . S
H138 C146 0.949 . S
H139 C147 0.950 . S
H140 C148 0.951 . S
H141 C149 0.951 . S
C142 C136 1.265 1_655 S
C142 H137 0.950 . S
C142 C143 1.478 . S
C143 C130 1.394 . S
C143 C142 1.478 . S
C143 C144 1.397 1_655 S
C144 C143 1.397 1_455 S
C144 C145 1.438 . S
C144 C149 1.429 . S
C145 C128 1.394 . S
C145 C144 1.438 . S
C145 C146 1.428 . S
C146 H138 0.949 . S
C146 C145 1.428 . S
C146 C147 1.345 . S
C147 H139 0.950 . S
C147 C146 1.345 . S
C147 C148 1.424 . S
C148 H140 0.951 . S
C148 C147 1.424 . S
C148 C149 1.347 . S
C149 H141 0.951 . S
C149 C144 1.429 . S
C149 C148 1.347 . S
H150 C151 0.951 . S
C151 H150 0.951 . S
C151 C157 1.265 1_565 S
H152 C157 0.950 . S
H153 C161 0.949 . S
H154 C162 0.950 . S
H155 C163 0.951 . S
H156 C164 0.951 . S
C157 C151 1.265 1_545 S
C157 H152 0.950 . S
C157 C158 1.478 . S
C158 C157 1.478 . S
C158 C159 1.397 . S
C158 C175 1.394 1_545 S
C159 C158 1.397 . S
C159 C160 1.438 . S
C159 C164 1.429 . S
C160 C159 1.438 . S
C160 C161 1.428 . S
C160 C173 1.375 1_545 S
C161 H153 0.949 . S
C161 C160 1.428 . S
C161 C162 1.345 . S
C162 H154 0.950 . S
C162 C161 1.345 . S
C162 C163 1.424 . S
C163 H155 0.951 . S
C163 C162 1.424 . S
C163 C164 1.347 . S
C164 H156 0.951 . S
C164 C159 1.429 . S
C164 C163 1.347 . S
H165 C166 0.946 . S
C166 H165 0.946 . S
C166 C172 1.268 1_545 S
H167 C172 0.950 . S
H168 C176 0.949 . S
H169 C177 0.950 . S
H170 C178 0.951 . S
H171 C179 0.951 . S
C172 C166 1.268 1_565 S
C172 H167 0.950 . S
C172 C173 1.476 . S
C173 C160 1.375 1_565 S
C173 C172 1.476 . S
C173 C174 1.419 . S
C174 C173 1.419 . S
C174 C175 1.438 . S
C174 C179 1.429 . S
C175 C158 1.394 1_565 S
C175 C174 1.438 . S
C175 C176 1.428 . S
C176 H168 0.949 . S
C176 C175 1.428 . S
C176 C177 1.345 . S
C177 H169 0.950 . S
C177 C176 1.345 . S
C177 C178 1.424 . S
C178 H170 0.951 . S
C178 C177 1.424 . S
C178 C179 1.347 . S
C179 H171 0.951 . S
C179 C174 1.429 . S
C179 C178 1.347 . S
H180 C181 0.951 . S
C181 H180 0.951 . S
C181 C187 1.265 . S
H182 C187 0.950 . S
H183 C191 0.949 . S
H184 C192 0.950 . S
H185 C193 0.951 . S
H186 C194 0.951 . S
C187 C181 1.265 . S
C187 H182 0.950 . S
C187 C188 1.478 . S
C188 C187 1.478 . S
C188 C189 1.397 . S
C188 C205 1.394 . S
C189 C188 1.397 . S
C189 C190 1.438 . S
C189 C194 1.429 . S
C190 C189 1.438 . S
C190 C191 1.428 . S
C190 C203 1.394 . S
C191 H183 0.949 . S
C191 C190 1.428 . S
C191 C192 1.345 . S
C192 H184 0.950 . S
C192 C191 1.345 . S
C192 C193 1.424 . S
C193 H185 0.951 . S
C193 C192 1.424 . S
C193 C194 1.347 . S
C194 H186 0.951 . S
C194 C189 1.429 . S
C194 C193 1.347 . S
H195 C196 0.951 . S
C196 H195 0.951 . S
C196 C202 1.265 . S
H197 C202 0.950 . S
H198 C206 0.949 . S
H199 C207 0.950 . S
H200 C208 0.951 . S
H201 C209 0.951 . S
C202 C196 1.265 . S
C202 H197 0.950 . S
C202 C203 1.478 . S
C203 C190 1.394 . S
C203 C202 1.478 . S
C203 C204 1.397 . S
C204 C203 1.397 . S
C204 C205 1.438 . S
C204 C209 1.429 . S
C205 C188 1.394 . S
C205 C204 1.438 . S
C205 C206 1.428 . S
C206 H198 0.949 . S
C206 C205 1.428 . S
C206 C207 1.345 . S
C207 H199 0.950 . S
C207 C206 1.345 . S
C207 C208 1.424 . S
C208 H200 0.951 . S
C208 C207 1.424 . S
C208 C209 1.347 . S
C209 H201 0.951 . S
C209 C204 1.429 . S
C209 C208 1.347 . S
H210 C211 0.951 1_556 S
C211 H210 0.951 1_554 S
C211 C217 1.265 . S
H212 C217 0.950 . S
H213 C221 0.949 . S
H214 C222 0.950 . S
H215 C223 0.951 . S
H216 C224 0.951 . S
C217 C211 1.265 . S
C217 H212 0.950 . S
C217 C218 1.478 . S
C218 C217 1.478 . S
C218 C219 1.397 . S
C218 C235 1.394 1_554 S
C219 C218 1.397 . S
C219 C220 1.438 . S
C219 C224 1.429 . S
C220 C219 1.438 . S
C220 C221 1.428 . S
C220 C233 1.394 . S
C221 H213 0.949 . S
C221 C220 1.428 . S
C221 C222 1.345 . S
C222 H214 0.950 . S
C222 C221 1.345 . S
C222 C223 1.424 . S
C223 H215 0.951 . S
C223 C222 1.424 . S
C223 C224 1.347 . S
C224 H216 0.951 . S
C224 C219 1.429 . S
C224 C223 1.347 . S
H225 C226 0.951 . S
C226 H225 0.951 . S
C226 C232 1.265 . S
H227 C232 0.950 1_556 S
H228 C236 0.949 . S
H229 C237 0.950 . S
H230 C238 0.951 . S
H231 C239 0.951 . S
C232 C226 1.265 . S
C232 H227 0.950 1_554 S
C232 C233 1.478 . S
C233 C220 1.394 . S
C233 C232 1.478 . S
C233 C234 1.397 1_554 S
C234 C233 1.397 1_556 S
C234 C235 1.438 . S
C234 C239 1.429 . S
C235 C218 1.394 1_556 S
C235 C234 1.438 . S
C235 C236 1.428 . S
C236 H228 0.949 . S
C236 C235 1.428 . S
C236 C237 1.345 . S
C237 H229 0.950 . S
C237 C236 1.345 . S
C237 C238 1.424 . S
C238 H230 0.951 . S
C238 C237 1.424 . S
C238 C239 1.347 . S
C239 H231 0.951 . S
C239 C234 1.429 . S
C239 C238 1.347 . S
H240 C241 0.951 . S
C241 H240 0.951 . S
C241 C247 1.265 . S
H242 C247 0.950 . S
H243 C251 0.949 . S
H244 C252 0.950 . S
H245 C253 0.951 . S
H246 C254 0.951 . S
C247 C241 1.265 . S
C247 H242 0.950 . S
C247 C248 1.478 . S
C248 C247 1.478 . S
C248 C249 1.397 . S
C248 C265 1.394 1_554 S
C249 C248 1.397 . S
C249 C250 1.438 . S
C249 C254 1.429 . S
C250 C249 1.438 . S
C250 C251 1.428 . S
C250 C263 1.394 . S
C251 H243 0.949 . S
C251 C250 1.428 . S
C251 C252 1.345 . S
C252 H244 0.950 . S
C252 C251 1.345 . S
C252 C253 1.424 . S
C253 H245 0.951 . S
C253 C252 1.424 . S
C253 C254 1.347 . S
C254 H246 0.951 . S
C254 C249 1.429 . S
C254 C253 1.347 . S
H255 C256 0.951 . S
C256 H255 0.951 . S
C256 C262 1.265 . S
H257 C262 0.950 . S
H258 C266 0.949 . S
H259 C267 0.950 . S
H260 C268 0.951 . S
H261 C269 0.951 . S
C262 C256 1.265 . S
C262 H257 0.950 . S
C262 C263 1.478 . S
C263 C250 1.394 . S
C263 C262 1.478 . S
C263 C264 1.397 1_554 S
C264 C263 1.397 1_556 S
C264 C265 1.438 . S
C264 C269 1.429 . S
C265 C248 1.394 1_556 S
C265 C264 1.438 . S
C265 C266 1.428 . S
C266 H258 0.949 . S
C266 C265 1.428 . S
C266 C267 1.345 . S
C267 H259 0.950 . S
C267 C266 1.345 . S
C267 C268 1.424 . S
C268 H260 0.951 . S
C268 C267 1.424 . S
C268 C269 1.347 . S
C269 H261 0.951 . S
C269 C264 1.429 . S
C269 C268 1.347 . S
H270 C271 0.951 . S
C271 H270 0.951 . S
C271 C277 1.265 . S
H272 C277 0.950 . S
H273 C281 0.949 . S
H274 C282 0.950 . S
H275 C283 0.951 . S
H276 C284 0.951 . S
C277 C271 1.265 . S
C277 H272 0.950 . S
C277 C278 1.478 . S
C278 C277 1.478 . S
C278 C279 1.397 1_554 S
C278 C295 1.394 . S
C279 C278 1.397 1_556 S
C279 C280 1.438 . S
C279 C284 1.429 . S
C280 C279 1.438 . S
C280 C281 1.428 . S
C280 C293 1.394 1_556 S
C281 H273 0.949 . S
C281 C280 1.428 . S
C281 C282 1.345 . S
C282 H274 0.950 . S
C282 C281 1.345 . S
C282 C283 1.424 . S
C283 H275 0.951 . S
C283 C282 1.424 . S
C283 C284 1.347 . S
C284 H276 0.951 . S
C284 C279 1.429 . S
C284 C283 1.347 . S
H285 C286 0.951 . S
C286 H285 0.951 . S
C286 C292 1.265 . S
H287 C292 0.950 . S
H288 C296 0.949 . S
H289 C297 0.950 . S
H290 C298 0.951 . S
H291 C299 0.951 . S
C292 C286 1.265 . S
C292 H287 0.950 . S
C292 C293 1.478 . S
C293 C280 1.394 1_554 S
C293 C292 1.478 . S
C293 C294 1.397 . S
C294 C293 1.397 . S
C294 C295 1.438 . S
C294 C299 1.429 . S
C295 C278 1.394 . S
C295 C294 1.438 . S
C295 C296 1.428 . S
C296 H288 0.949 . S
C296 C295 1.428 . S
C296 C297 1.345 . S
C297 H289 0.950 . S
C297 C296 1.345 . S
C297 C298 1.424 . S
C298 H290 0.951 . S
C298 C297 1.424 . S
C298 C299 1.347 . S
C299 H291 0.951 . S
C299 C294 1.429 . S
C299 C298 1.347 . S
H300 C301 0.951 . S
C301 H300 0.951 . S
C301 C307 1.265 . S
H302 C307 0.950 . S
H303 C311 0.949 . S
H304 C312 0.950 . S
H305 C313 0.951 . S
H306 C314 0.951 . S
C307 C301 1.265 . S
C307 H302 0.950 . S
C307 C308 1.478 . S
C308 C307 1.478 . S
C308 C309 1.397 . S
C308 C325 1.394 1_556 S
C309 C308 1.397 . S
C309 C310 1.438 . S
C309 C314 1.429 . S
C310 C309 1.438 . S
C310 C311 1.428 . S
C310 C323 1.394 . S
C311 H303 0.949 . S
C311 C310 1.428 . S
C311 C312 1.345 . S
C312 H304 0.950 . S
C312 C311 1.345 . S
C312 C313 1.424 . S
C313 H305 0.951 . S
C313 C312 1.424 . S
C313 C314 1.347 . S
C314 H306 0.951 . S
C314 C309 1.429 . S
C314 C313 1.347 . S
H315 C316 0.951 . S
C316 H315 0.951 . S
C316 C322 1.265 . S
H317 C322 0.950 . S
H318 C326 0.949 . S
H319 C327 0.950 . S
H320 C328 0.951 . S
H321 C329 0.951 . S
C322 C316 1.265 . S
C322 H317 0.950 . S
C322 C323 1.478 . S
C323 C310 1.394 . S
C323 C322 1.478 . S
C323 C324 1.397 1_556 S
C324 C323 1.397 1_554 S
C324 C325 1.438 . S
C324 C329 1.429 . S
C325 C308 1.394 1_554 S
C325 C324 1.438 . S
C325 C326 1.428 . S
C326 H318 0.949 . S
C326 C325 1.428 . S
C326 C327 1.345 . S
C327 H319 0.950 . S
C327 C326 1.345 . S
C327 C328 1.424 . S
C328 H320 0.951 . S
C328 C327 1.424 . S
C328 C329 1.347 . S
C329 H321 0.951 . S
C329 C324 1.429 . S
C329 C328 1.347 . S
H330 C331 0.951 . S
C331 H330 0.951 . S
C331 C337 1.265 . S
H332 C337 0.950 . S
H333 C341 0.949 . S
H334 C342 0.950 . S
H335 C343 0.951 . S
H336 C344 0.951 . S
C337 C331 1.265 . S
C337 H332 0.950 . S
C337 C338 1.478 . S
C338 C337 1.478 . S
C338 C339 1.397 . S
C338 C355 1.394 1_556 S
C339 C338 1.397 . S
C339 C340 1.438 . S
C339 C344 1.429 . S
C340 C339 1.438 . S
C340 C341 1.428 . S
C340 C353 1.394 . S
C341 H333 0.949 . S
C341 C340 1.428 . S
C341 C342 1.345 . S
C342 H334 0.950 . S
C342 C341 1.345 . S
C342 C343 1.424 . S
C343 H335 0.951 . S
C343 C342 1.424 . S
C343 C344 1.347 . S
C344 H336 0.951 . S
C344 C339 1.429 . S
C344 C343 1.347 . S
H345 C346 0.951 . S
C346 H345 0.951 . S
C346 C352 1.265 . S
H347 C352 0.950 . S
H348 C356 0.949 . S
H349 C357 0.950 . S
H350 C358 0.951 . S
H351 C359 0.951 . S
C352 C346 1.265 . S
C352 H347 0.950 . S
C352 C353 1.478 . S
C353 C340 1.394 . S
C353 C352 1.478 . S
C353 C354 1.397 1_556 S
C354 C353 1.397 1_554 S
C354 C355 1.438 . S
C354 C359 1.429 . S
C355 C338 1.394 1_554 S
C355 C354 1.438 . S
C355 C356 1.428 . S
C356 H348 0.949 . S
C356 C355 1.428 . S
C356 C357 1.345 . S
C357 H349 0.950 . S
C357 C356 1.345 . S
C357 C358 1.424 . S
C358 H350 0.951 . S
C358 C357 1.424 . S
C358 C359 1.347 . S
C359 H351 0.951 . S
C359 C354 1.429 . S
C359 C358 1.347 . S
H360 C361 0.951 1_554 S
C361 H360 0.951 1_556 S
C361 C367 1.265 . S
H362 C367 0.950 . S
H363 C371 0.949 . S
H364 C372 0.950 . S
H365 C373 0.951 . S
H366 C374 0.951 . S
C367 C361 1.265 . S
C367 H362 0.950 . S
C367 C368 1.478 . S
C368 C367 1.478 . S
C368 C369 1.397 . S
C368 C385 1.394 1_556 S
C369 C368 1.397 . S
C369 C370 1.438 . S
C369 C374 1.429 . S
C370 C369 1.438 . S
C370 C371 1.428 . S
C370 C383 1.394 . S
C371 H363 0.949 . S
C371 C370 1.428 . S
C371 C372 1.345 . S
C372 H364 0.950 . S
C372 C371 1.345 . S
C372 C373 1.424 . S
C373 H365 0.951 . S
C373 C372 1.424 . S
C373 C374 1.347 . S
C374 H366 0.951 . S
C374 C369 1.429 . S
C374 C373 1.347 . S
H375 C376 0.951 . S
C376 H375 0.951 . S
C376 C382 1.265 . S
H377 C382 0.950 . S
H378 C386 0.949 . S
H379 C387 0.950 . S
H380 C388 0.951 . S
H381 C389 0.951 . S
C382 C376 1.265 . S
C382 H377 0.950 . S
C382 C383 1.478 . S
C383 C370 1.394 . S
C383 C382 1.478 . S
C383 C384 1.397 1_556 S
C384 C383 1.397 1_554 S
C384 C385 1.438 . S
C384 C389 1.429 . S
C385 C368 1.394 1_554 S
C385 C384 1.438 . S
C385 C386 1.428 . S
C386 H378 0.949 . S
C386 C385 1.428 . S
C386 C387 1.345 . S
C387 H379 0.950 . S
C387 C386 1.345 . S
C387 C388 1.424 . S
C388 H380 0.951 . S
C388 C387 1.424 . S
C388 C389 1.347 . S
C389 H381 0.951 . S
C389 C384 1.429 . S
C389 C388 1.347 . S
C121 C9 1.448 . S
C136 C18 1.448 . S
C151 C58 1.384 1_565 S
C166 C49 1.382 1_545 S
C181 C89 1.473 . S
C196 C98 1.473 . S
C211 C19 1.638 . S
C226 C86 1.661 . S
C241 C59 1.638 . S
C256 C6 1.661 . S
C271 C46 1.640 . S
C286 C90 1.661 1_554 S
C301 C10 1.651 . S
C316 C95 1.636 . S
C331 C15 1.635 . S
C346 C50 1.653 . S
C361 C99 1.659 1_556 S
C376 C55 1.641 . S
