# Generated by pormake.
# Topology reo-e, (6)-cn, num edge types: 1
# Building blocks:
#     Node 0, Type 0, BuildingBlock: IZENUY_clean_sbu_0, # of connection points: 6
#     Node 1, Type 0, BuildingBlock: IZENUY_clean_sbu_0, # of connection points: 6
#     Node 2, Type 0, BuildingBlock: IZENUY_clean_sbu_0, # of connection points: 6
#     Node 3, Type 0, BuildingBlock: IZENUY_clean_sbu_0, # of connection points: 6
#     Node 4, Type 0, BuildingBlock: IZENUY_clean_sbu_0, # of connection points: 6
#     Node 5, Type 0, BuildingBlock: IZENUY_clean_sbu_0, # of connection points: 6
#     Node 6, Type 0, BuildingBlock: IZENUY_clean_sbu_0, # of connection points: 6
#     Node 7, Type 0, BuildingBlock: IZENUY_clean_sbu_0, # of connection points: 6
#     Node 8, Type 0, BuildingBlock: IZENUY_clean_sbu_0, # of connection points: 6
#     Node 9, Type 0, BuildingBlock: IZENUY_clean_sbu_0, # of connection points: 6
#     Node 10, Type 0, BuildingBlock: IZENUY_clean_sbu_0, # of connection points: 6
#     Node 11, Type 0, BuildingBlock: IZENUY_clean_sbu_0, # of connection points: 6
#     Edge 12, Type (0, 0), BuildingBlock: AJUNOK_clean_linker_0, # of connection points: 2
#     Edge 13, Type (0, 0), BuildingBlock: AJUNOK_clean_linker_0, # of connection points: 2
#     Edge 14, Type (0, 0), BuildingBlock: AJUNOK_clean_linker_0, # of connection points: 2
#     Edge 15, Type (0, 0), BuildingBlock: AJUNOK_clean_linker_0, # of connection points: 2
#     Edge 16, Type (0, 0), BuildingBlock: AJUNOK_clean_linker_0, # of connection points: 2
#     Edge 17, Type (0, 0), BuildingBlock: AJUNOK_clean_linker_0, # of connection points: 2
#     Edge 18, Type (0, 0), BuildingBlock: AJUNOK_clean_linker_0, # of connection points: 2
#     Edge 19, Type (0, 0), BuildingBlock: AJUNOK_clean_linker_0, # of connection points: 2
#     Edge 20, Type (0, 0), BuildingBlock: AJUNOK_clean_linker_0, # of connection points: 2
#     Edge 21, Type (0, 0), BuildingBlock: AJUNOK_clean_linker_0, # of connection points: 2
#     Edge 22, Type (0, 0), BuildingBlock: AJUNOK_clean_linker_0, # of connection points: 2
#     Edge 23, Type (0, 0), BuildingBlock: AJUNOK_clean_linker_0, # of connection points: 2
#     Edge 24, Type (0, 0), BuildingBlock: AJUNOK_clean_linker_0, # of connection points: 2
#     Edge 25, Type (0, 0), BuildingBlock: AJUNOK_clean_linker_0, # of connection points: 2
#     Edge 26, Type (0, 0), BuildingBlock: AJUNOK_clean_linker_0, # of connection points: 2
#     Edge 27, Type (0, 0), BuildingBlock: AJUNOK_clean_linker_0, # of connection points: 2
#     Edge 28, Type (0, 0), BuildingBlock: AJUNOK_clean_linker_0, # of connection points: 2
#     Edge 29, Type (0, 0), BuildingBlock: AJUNOK_clean_linker_0, # of connection points: 2
#     Edge 30, Type (0, 0), BuildingBlock: AJUNOK_clean_linker_0, # of connection points: 2
#     Edge 31, Type (0, 0), BuildingBlock: AJUNOK_clean_linker_0, # of connection points: 2
#     Edge 32, Type (0, 0), BuildingBlock: AJUNOK_clean_linker_0, # of connection points: 2
#     Edge 33, Type (0, 0), BuildingBlock: AJUNOK_clean_linker_0, # of connection points: 2
#     Edge 34, Type (0, 0), BuildingBlock: AJUNOK_clean_linker_0, # of connection points: 2
#     Edge 35, Type (0, 0), BuildingBlock: AJUNOK_clean_linker_0, # of connection points: 2
#     Edge 36, Type (0, 0), BuildingBlock: AJUNOK_clean_linker_0, # of connection points: 2
#     Edge 37, Type (0, 0), BuildingBlock: AJUNOK_clean_linker_0, # of connection points: 2
#     Edge 38, Type (0, 0), BuildingBlock: AJUNOK_clean_linker_0, # of connection points: 2
#     Edge 39, Type (0, 0), BuildingBlock: AJUNOK_clean_linker_0, # of connection points: 2
#     Edge 40, Type (0, 0), BuildingBlock: AJUNOK_clean_linker_0, # of connection points: 2
#     Edge 41, Type (0, 0), BuildingBlock: AJUNOK_clean_linker_0, # of connection points: 2
#     Edge 42, Type (0, 0), BuildingBlock: AJUNOK_clean_linker_0, # of connection points: 2
#     Edge 43, Type (0, 0), BuildingBlock: AJUNOK_clean_linker_0, # of connection points: 2
#     Edge 44, Type (0, 0), BuildingBlock: AJUNOK_clean_linker_0, # of connection points: 2
#     Edge 45, Type (0, 0), BuildingBlock: AJUNOK_clean_linker_0, # of connection points: 2
#     Edge 46, Type (0, 0), BuildingBlock: AJUNOK_clean_linker_0, # of connection points: 2
#     Edge 47, Type (0, 0), BuildingBlock: AJUNOK_clean_linker_0, # of connection points: 2
# Relax obj value: 0.074
# Max RMSD: 0.096
# Mean RMSD: 0.095
data_MOF--net-reo-e--node1-IZENUY_clean_sbu_0--edge1-AJUNOK_clean_linker_0
_symmetry_space_group_name_H-M    P1
_symmetry_Int_Tables_number       1
_symmetry_cell_setting            triclinic
loop_
_symmetry_equiv_pos_as_xyz
'x, y, z'
_cell_length_a     28.302256
_cell_length_b     28.273642
_cell_length_c     28.271952
_cell_angle_alpha  89.982803
_cell_angle_beta   89.984846
_cell_angle_gamma 89.91098
loop_
_atom_site_label
_atom_site_type_symbol
_atom_site_fract_x
_atom_site_fract_y
_atom_site_fract_z
_atom_type_partial_charge
Fe0 Fe 0.20441 0.2084 0.57847 0.0
Fe1 Fe 0.27175 0.27472 0.52543 0.0
O2 O 0.22728 0.23081 0.5245 0.0
Fe3 Fe 0.20591 0.20957 0.46944 0.0
O4 O 0.14518 0.19937 0.49021 0.0
O5 O 0.14492 0.22625 0.56303 0.0
O6 O 0.2095 0.26507 0.61028 0.0
C7 C 0.21461 0.30733 0.59595 0.0
C8 C 0.21176 0.12679 0.52003 0.0
O9 O 0.23356 0.31572 0.55644 0.0
C10 C 0.30484 0.21931 0.45392 0.0
O11 O 0.26241 0.18892 0.59874 0.0
O12 O 0.29848 0.25509 0.58078 0.0
O13 O 0.22358 0.14963 0.48359 0.0
O14 O 0.19534 0.14796 0.55604 0.0
C15 C 0.21388 0.30384 0.44959 0.0
O16 O 0.31289 0.2365 0.49432 0.0
O17 O 0.2628 0.21585 0.43878 0.0
C18 C 0.29684 0.21669 0.6035 0.0
O19 O 0.2532 0.3033 0.47064 0.0
O20 O 0.18689 0.26835 0.45094 0.0
C21 C 0.12303 0.21473 0.52601 0.0
Fe22 Fe 0.76948 0.2725 0.51896 0.0
Fe23 Fe 0.83394 0.20632 0.57586 0.0
O24 O 0.81312 0.22766 0.52058 0.0
Fe25 Fe 0.83612 0.20446 0.46682 0.0
O26 O 0.83096 0.25998 0.43371 0.0
O27 O 0.80842 0.31196 0.4867 0.0
O28 O 0.7889 0.30198 0.57298 0.0
C29 C 0.82747 0.30101 0.59543 0.0
C30 C 0.74243 0.2118 0.44391 0.0
O31 O 0.85363 0.26484 0.59416 0.0
C32 C 0.82784 0.12369 0.52536 0.0
O33 O 0.7275 0.23629 0.55136 0.0
O34 O 0.77715 0.21355 0.60654 0.0
O35 O 0.77796 0.1849 0.44714 0.0
O36 O 0.7418 0.25143 0.46462 0.0
C37 C 0.9169 0.21186 0.52004 0.0
O38 O 0.81574 0.14632 0.5619 0.0
O39 O 0.84558 0.14483 0.49017 0.0
C40 C 0.73519 0.21884 0.59174 0.0
O41 O 0.89448 0.19553 0.5552 0.0
O42 O 0.89572 0.22245 0.48222 0.0
C43 C 0.82768 0.30238 0.44758 0.0
Fe44 Fe 0.83978 0.8359 0.57857 0.0
Fe45 Fe 0.83738 0.83582 0.46952 0.0
O46 O 0.81641 0.81395 0.52449 0.0
Fe47 Fe 0.77185 0.77029 0.52537 0.0
O48 O 0.73244 0.80865 0.55823 0.0
O49 O 0.78421 0.83028 0.61171 0.0
O50 O 0.8215 0.89571 0.56427 0.0
C51 C 0.8319 0.91766 0.52688 0.0
C52 C 0.83243 0.74199 0.60064 0.0
O53 O 0.84842 0.89586 0.49141 0.0
C54 C 0.82552 0.73746 0.45208 0.0
O55 O 0.89957 0.84564 0.55506 0.0
O56 O 0.89706 0.81694 0.48294 0.0
O57 O 0.79305 0.74143 0.57939 0.0
O58 O 0.85941 0.77738 0.59741 0.0
C59 C 0.74311 0.82983 0.44938 0.0
O60 O 0.83002 0.77969 0.43777 0.0
O61 O 0.80828 0.729 0.49235 0.0
C62 C 0.92033 0.82899 0.51896 0.0
O63 O 0.77897 0.8562 0.45157 0.0
O64 O 0.74221 0.79091 0.47152 0.0
C65 C 0.7418 0.82698 0.59778 0.0
Fe66 Fe 0.21007 0.8372 0.46705 0.0
Fe67 Fe 0.27383 0.77059 0.52398 0.0
O68 O 0.23042 0.81575 0.52246 0.0
Fe69 Fe 0.20755 0.83915 0.57613 0.0
O70 O 0.14765 0.84868 0.55292 0.0
O71 O 0.14986 0.82032 0.48055 0.0
O72 O 0.2159 0.78028 0.43657 0.0
C73 C 0.21783 0.73833 0.45213 0.0
C74 C 0.21537 0.92027 0.52301 0.0
O75 O 0.23548 0.72981 0.49233 0.0
C76 C 0.30598 0.82799 0.59483 0.0
O77 O 0.26927 0.85539 0.44926 0.0
O78 O 0.30319 0.78858 0.46939 0.0
O79 O 0.22565 0.89879 0.56073 0.0
O80 O 0.20022 0.89798 0.48734 0.0
C81 C 0.21506 0.74645 0.60185 0.0
O82 O 0.31486 0.80839 0.55564 0.0
O83 O 0.26364 0.8337 0.60844 0.0
C84 C 0.30423 0.82761 0.44767 0.0
O85 O 0.25341 0.74417 0.57918 0.0
O86 O 0.18761 0.78125 0.5967 0.0
C87 C 0.12681 0.83218 0.51685 0.0
Fe88 Fe 0.57413 0.2054 0.20779 0.0
Fe89 Fe 0.52162 0.27313 0.27438 0.0
O90 O 0.52033 0.22864 0.23049 0.0
Fe91 Fe 0.46525 0.20728 0.20945 0.0
O92 O 0.47938 0.14753 0.22812 0.0
O93 O 0.55086 0.14554 0.19801 0.0
O94 O 0.59345 0.1855 0.26595 0.0
C95 C 0.5969 0.21226 0.3015 0.0
C96 C 0.52169 0.21247 0.12671 0.0
O97 O 0.57585 0.25178 0.3025 0.0
C98 C 0.4455 0.3019 0.21546 0.0
O99 O 0.60714 0.26108 0.21356 0.0
O100 O 0.55406 0.313 0.23611 0.0
O101 O 0.48644 0.1963 0.14906 0.0
O102 O 0.55911 0.22367 0.14816 0.0
C103 C 0.44913 0.21913 0.30807 0.0
O104 O 0.46759 0.30268 0.25437 0.0
O105 O 0.44666 0.26568 0.18939 0.0
C106 C 0.59373 0.30364 0.2181 0.0
O107 O 0.48936 0.23649 0.31588 0.0
O108 O 0.43422 0.21455 0.26606 0.0
C109 C 0.51538 0.12447 0.21541 0.0
Fe110 Fe 0.83774 0.46586 0.20849 0.0
Fe111 Fe 0.77106 0.52028 0.27427 0.0
O112 O 0.81538 0.52041 0.23012 0.0
Fe113 Fe 0.83713 0.57493 0.20772 0.0
O114 O 0.84683 0.55272 0.14729 0.0
O115 O 0.8194 0.48 0.1487 0.0
O116 O 0.78187 0.43366 0.21509 0.0
C117 C 0.73957 0.4478 0.21902 0.0
C118 C 0.91929 0.52328 0.21466 0.0
O119 O 0.73068 0.48785 0.23654 0.0
C120 C 0.82618 0.59258 0.30645 0.0
O121 O 0.85758 0.4476 0.26705 0.0
O122 O 0.79142 0.46629 0.30298 0.0
O123 O 0.89725 0.5606 0.22548 0.0
O124 O 0.89764 0.48792 0.198 0.0
C125 C 0.74285 0.59594 0.21516 0.0
O126 O 0.80834 0.55265 0.31499 0.0
O127 O 0.83108 0.60677 0.26415 0.0
C128 C 0.83089 0.44544 0.30276 0.0
O129 O 0.74227 0.57427 0.25418 0.0
O130 O 0.77855 0.59382 0.18842 0.0
C131 C 0.83083 0.51667 0.12598 0.0
Fe132 Fe 0.57856 0.83769 0.2098 0.0
Fe133 Fe 0.46952 0.83352 0.20742 0.0
O134 O 0.52439 0.81382 0.23085 0.0
Fe135 Fe 0.52511 0.76991 0.27545 0.0
O136 O 0.57856 0.7914 0.30445 0.0
O137 O 0.59626 0.85782 0.2686 0.0
O138 O 0.55476 0.89728 0.19934 0.0
C139 C 0.51771 0.91763 0.21421 0.0
C140 C 0.59818 0.73975 0.21945 0.0
O141 O 0.48148 0.894 0.22473 0.0
C142 C 0.45046 0.73901 0.21622 0.0
O143 O 0.5658 0.81919 0.14976 0.0
O144 O 0.49209 0.8434 0.14725 0.0
O145 O 0.5588 0.72998 0.23809 0.0
O146 O 0.61185 0.78227 0.21621 0.0
C147 C 0.45135 0.82481 0.30585 0.0
O148 O 0.45272 0.77408 0.18863 0.0
O149 O 0.47185 0.7396 0.2554 0.0
C150 C 0.52905 0.82885 0.12651 0.0
O151 O 0.43721 0.82748 0.26342 0.0
O152 O 0.49129 0.80717 0.31545 0.0
C153 C 0.59936 0.83091 0.30413 0.0
Fe154 Fe 0.20741 0.57713 0.21126 0.0
Fe155 Fe 0.27489 0.52111 0.27484 0.0
O156 O 0.23004 0.52204 0.23131 0.0
Fe157 Fe 0.20783 0.46794 0.20823 0.0
O158 O 0.19739 0.49139 0.14854 0.0
O159 O 0.2245 0.56416 0.15089 0.0
O160 O 0.26378 0.60885 0.21704 0.0
C161 C 0.30605 0.59421 0.21956 0.0
C162 C 0.1256 0.51922 0.21659 0.0
O163 O 0.31513 0.55409 0.2371 0.0
C164 C 0.21875 0.44885 0.30632 0.0
O165 O 0.18887 0.59438 0.27063 0.0
O166 O 0.25558 0.57484 0.30487 0.0
O167 O 0.14822 0.48222 0.22708 0.0
O168 O 0.14698 0.55556 0.20156 0.0
C169 C 0.30206 0.44639 0.21389 0.0
O170 O 0.23756 0.48829 0.3153 0.0
O171 O 0.2142 0.43499 0.26393 0.0
C172 C 0.21631 0.59604 0.30581 0.0
O173 O 0.30286 0.46711 0.25343 0.0
O174 O 0.26602 0.44884 0.18769 0.0
C175 C 0.21321 0.52778 0.12774 0.0
Fe176 Fe 0.57926 0.83423 0.83674 0.0
Fe177 Fe 0.47031 0.83527 0.83828 0.0
O178 O 0.52435 0.81338 0.81476 0.0
Fe179 Fe 0.5234 0.77051 0.7692 0.0
O180 O 0.55582 0.72826 0.80505 0.0
O181 O 0.61058 0.77778 0.82867 0.0
O182 O 0.56518 0.81465 0.89619 0.0
C183 C 0.52912 0.82681 0.91942 0.0
C184 C 0.59868 0.83003 0.742 0.0
O185 O 0.49332 0.8439 0.89852 0.0
C186 C 0.45118 0.82724 0.73968 0.0
O187 O 0.5578 0.89444 0.84852 0.0
O188 O 0.48497 0.89542 0.82139 0.0
O189 O 0.5772 0.79099 0.74045 0.0
O190 O 0.5978 0.85527 0.77878 0.0
C191 C 0.44899 0.74143 0.82912 0.0
O192 O 0.43755 0.83059 0.78227 0.0
O193 O 0.49098 0.80959 0.73006 0.0
C194 C 0.52238 0.91687 0.83269 0.0
O195 O 0.45136 0.77647 0.8567 0.0
O196 O 0.46936 0.74209 0.7894 0.0
C197 C 0.596 0.73581 0.82278 0.0
Fe198 Fe 0.20786 0.57804 0.83879 0.0
Fe199 Fe 0.2747 0.52479 0.7721 0.0
O200 O 0.231 0.52393 0.81671 0.0
Fe201 Fe 0.21096 0.4689 0.83918 0.0
O202 O 0.15089 0.48186 0.82181 0.0
O203 O 0.14807 0.55475 0.84871 0.0
O204 O 0.18791 0.59717 0.78046 0.0
C205 C 0.21573 0.6021 0.746 0.0
C206 C 0.21571 0.52707 0.92105 0.0
O207 O 0.2544 0.57977 0.74473 0.0
C208 C 0.30516 0.44945 0.83043 0.0
O209 O 0.26383 0.61072 0.83312 0.0
O210 O 0.31476 0.55659 0.81036 0.0
O211 O 0.20087 0.49057 0.89972 0.0
O212 O 0.22619 0.56389 0.89837 0.0
C213 C 0.21959 0.45248 0.74032 0.0
O214 O 0.30415 0.4704 0.79099 0.0
O215 O 0.27009 0.45132 0.85797 0.0
C216 C 0.30608 0.59633 0.82877 0.0
O217 O 0.23694 0.49267 0.73136 0.0
O218 O 0.21714 0.43759 0.78257 0.0
C219 C 0.12755 0.51815 0.83301 0.0
Fe220 Fe 0.51978 0.27221 0.77231 0.0
Fe221 Fe 0.46646 0.20561 0.83891 0.0
O222 O 0.52066 0.2277 0.81625 0.0
Fe223 Fe 0.57559 0.20582 0.83729 0.0
O224 O 0.59558 0.26435 0.85575 0.0
O225 O 0.57565 0.29939 0.78963 0.0
O226 O 0.48985 0.31287 0.81192 0.0
C227 C 0.44998 0.3048 0.83035 0.0
C228 C 0.59003 0.21608 0.73756 0.0
O229 O 0.43505 0.26265 0.83434 0.0
C230 C 0.52433 0.12342 0.83249 0.0
O231 O 0.46375 0.2539 0.74611 0.0
O232 O 0.44629 0.18683 0.78066 0.0
O233 O 0.6054 0.21107 0.77953 0.0
O234 O 0.5498 0.2341 0.73021 0.0
C235 C 0.51892 0.21148 0.92039 0.0
O236 O 0.48816 0.1449 0.84793 0.0
O237 O 0.56076 0.14594 0.82042 0.0
C238 C 0.44123 0.2154 0.74685 0.0
O239 O 0.48193 0.2228 0.89837 0.0
O240 O 0.55513 0.19664 0.89848 0.0
C241 C 0.59969 0.29835 0.82721 0.0
Fe242 Fe 0.83941 0.4635 0.83692 0.0
Fe243 Fe 0.77518 0.51851 0.76931 0.0
O244 O 0.81798 0.51831 0.81484 0.0
Fe245 Fe 0.83932 0.57275 0.83794 0.0
O246 O 0.89953 0.55079 0.84874 0.0
O247 O 0.89925 0.4784 0.82048 0.0
O248 O 0.83519 0.4323 0.78009 0.0
C249 C 0.83239 0.44727 0.73795 0.0
C250 C 0.83117 0.52005 0.91938 0.0
O251 O 0.81447 0.48728 0.72926 0.0
C252 C 0.74084 0.58969 0.82482 0.0
O253 O 0.78058 0.44397 0.8547 0.0
O254 O 0.747 0.46333 0.78752 0.0
O255 O 0.82044 0.55748 0.8975 0.0
O256 O 0.84783 0.48468 0.89759 0.0
C257 C 0.83372 0.59589 0.7439 0.0
O258 O 0.73319 0.54977 0.80635 0.0
O259 O 0.78279 0.60415 0.83109 0.0
C260 C 0.747 0.44003 0.82567 0.0
O261 O 0.79515 0.57352 0.74204 0.0
O262 O 0.85982 0.59296 0.78003 0.0
C263 C 0.92135 0.51509 0.83256 0.0
C264 C 0.18937 0.33416 0.37021 0.0
C265 C 0.20494 0.34318 0.41646 0.0
C266 C 0.19159 0.36942 0.3353 0.0
C267 C 0.20919 0.41501 0.34551 0.0
H268 H 0.17838 0.29888 0.36014 0.0
H269 H 0.18143 0.36008 0.29958 0.0
S270 S 0.2461 0.45815 0.46405 0.0
N271 N 0.23274 0.40197 0.47244 0.0
N272 N 0.23626 0.46851 0.40743 0.0
C273 C 0.22101 0.42535 0.39281 0.0
C274 C 0.21911 0.38933 0.42809 0.0
C275 C 0.62395 0.22364 0.38424 0.0
C276 C 0.63093 0.20186 0.34008 0.0
C277 C 0.65922 0.22344 0.41878 0.0
C278 C 0.70315 0.20149 0.41077 0.0
H279 H 0.59165 0.24298 0.39149 0.0
H280 H 0.65273 0.24265 0.45132 0.0
S281 S 0.73709 0.13377 0.30363 0.0
N282 N 0.68324 0.15323 0.29201 0.0
N283 N 0.74989 0.1529 0.35733 0.0
C284 C 0.70933 0.17614 0.36837 0.0
C285 C 0.67312 0.17633 0.33291 0.0
C286 C 0.8445 0.7089 0.37054 0.0
C287 C 0.83268 0.6982 0.41774 0.0
C288 C 0.84474 0.67403 0.33545 0.0
C289 C 0.83321 0.62674 0.34587 0.0
H290 H 0.85187 0.74497 0.35994 0.0
H291 H 0.8522 0.68484 0.29946 0.0
S292 S 0.80744 0.57838 0.46539 0.0
N293 N 0.81477 0.63562 0.47413 0.0
N294 N 0.81531 0.56995 0.40816 0.0
C295 C 0.82467 0.61478 0.39355 0.0
C296 C 0.82438 0.65047 0.42943 0.0
C297 C 0.38705 0.81169 0.42254 0.0
C298 C 0.34416 0.8358 0.41467 0.0
C299 C 0.42284 0.81088 0.38838 0.0
C300 C 0.41703 0.83373 0.3446 0.0
H301 H 0.39238 0.79159 0.45475 0.0
H302 H 0.45414 0.78995 0.39545 0.0
S303 S 0.31462 0.9081 0.30923 0.0
N304 N 0.30027 0.88788 0.36212 0.0
N305 N 0.36745 0.88614 0.29752 0.0
C306 C 0.37577 0.86089 0.33758 0.0
C307 C 0.3394 0.86207 0.37272 0.0
C308 C 0.1712 0.68473 0.64914 0.0
C309 C 0.2103 0.7149 0.64321 0.0
C310 C 0.17148 0.64925 0.68434 0.0
C311 C 0.2109 0.64323 0.71414 0.0
H312 H 0.14151 0.68702 0.62508 0.0
H313 H 0.14192 0.62507 0.68669 0.0
S314 S 0.31838 0.7182 0.71745 0.0
N315 N 0.28661 0.73991 0.67355 0.0
N316 N 0.2872 0.67382 0.7389 0.0
C317 C 0.24858 0.67527 0.71029 0.0
C318 C 0.24825 0.711 0.67498 0.0
C319 C 0.3579 0.17213 0.65065 0.0
C320 C 0.32869 0.21197 0.64442 0.0
C321 C 0.39331 0.17185 0.68577 0.0
C322 C 0.40011 0.21142 0.71518 0.0
H323 H 0.35489 0.14221 0.62693 0.0
H324 H 0.41683 0.1417 0.68838 0.0
S325 S 0.32735 0.3207 0.71788 0.0
N326 N 0.3051 0.28913 0.67416 0.0
N327 N 0.37109 0.28866 0.73951 0.0
C328 C 0.36893 0.24989 0.7111 0.0
C329 C 0.33329 0.25015 0.67582 0.0
C330 C 0.8153 0.41976 0.65582 0.0
C331 C 0.8398 0.41336 0.69859 0.0
C332 C 0.81392 0.38404 0.62163 0.0
C333 C 0.83734 0.34057 0.62846 0.0
H334 H 0.79467 0.45148 0.64969 0.0
H335 H 0.79267 0.38996 0.59029 0.0
S336 S 0.91321 0.30925 0.73083 0.0
N337 N 0.89291 0.36256 0.74346 0.0
N338 N 0.89055 0.29543 0.67882 0.0
C339 C 0.86518 0.33514 0.66931 0.0
C340 C 0.86626 0.37149 0.70447 0.0
C341 C 0.7134 0.85225 0.678 0.0
C342 C 0.70285 0.83696 0.63165 0.0
C343 C 0.67844 0.8541 0.71316 0.0
C344 C 0.63184 0.84046 0.70321 0.0
H345 H 0.74937 0.8606 0.68798 0.0
H346 H 0.68869 0.86301 0.74899 0.0
S347 S 0.58347 0.80644 0.58626 0.0
N348 N 0.64038 0.81475 0.57659 0.0
N349 N 0.57526 0.81747 0.643 0.0
C350 C 0.61993 0.82896 0.6564 0.0
C351 C 0.65527 0.82745 0.6205 0.0
C352 C 0.36897 0.19769 0.33824 0.0
C353 C 0.4156 0.21192 0.34797 0.0
C354 C 0.33424 0.19764 0.37344 0.0
C355 C 0.34444 0.21186 0.42006 0.0
H356 H 0.35847 0.18824 0.30264 0.0
H357 H 0.29859 0.18816 0.36329 0.0
S358 S 0.46295 0.24447 0.46616 0.0
N359 N 0.4716 0.23479 0.40924 0.0
N360 N 0.4062 0.23478 0.47545 0.0
C361 C 0.39174 0.22268 0.43124 0.0
C362 C 0.42729 0.2227 0.39523 0.0
C363 C 0.81934 0.42099 0.38627 0.0
C364 C 0.84057 0.41231 0.34207 0.0
C365 C 0.81819 0.38628 0.42147 0.0
C366 C 0.83783 0.34122 0.41374 0.0
H367 H 0.80139 0.45421 0.39296 0.0
H368 H 0.7993 0.3941 0.45388 0.0
S369 S 0.90483 0.30346 0.30712 0.0
N370 N 0.88712 0.35774 0.29469 0.0
N371 N 0.88502 0.2921 0.36088 0.0
C372 C 0.86272 0.33344 0.37117 0.0
C373 C 0.86416 0.36911 0.33535 0.0
C374 C 0.62577 0.81728 0.38691 0.0
C375 C 0.63278 0.84072 0.34353 0.0
C376 C 0.66058 0.81681 0.42198 0.0
C377 C 0.70413 0.8398 0.41546 0.0
H378 H 0.59379 0.79718 0.39311 0.0
H379 H 0.65396 0.79643 0.45377 0.0
S380 S 0.73798 0.91187 0.31103 0.0
N381 N 0.68475 0.89181 0.29795 0.0
N382 N 0.75045 0.8911 0.36422 0.0
C383 C 0.71031 0.86666 0.37389 0.0
C384 C 0.67458 0.86708 0.33786 0.0
C385 C 0.23193 0.65537 0.42468 0.0
C386 C 0.20864 0.6989 0.4187 0.0
C387 C 0.23149 0.62109 0.38893 0.0
C388 C 0.2074 0.62868 0.34594 0.0
H389 H 0.25305 0.64873 0.45593 0.0
H390 H 0.25201 0.58914 0.39427 0.0
S391 S 0.13388 0.73325 0.31626 0.0
N392 N 0.15562 0.74523 0.36911 0.0
N393 N 0.15472 0.68056 0.302 0.0
C394 C 0.18056 0.67026 0.34118 0.0
C395 C 0.1813 0.70544 0.3775 0.0
C396 C 0.39008 0.81622 0.62056 0.0
C397 C 0.34504 0.83563 0.62922 0.0
C398 C 0.42515 0.81602 0.65559 0.0
C399 C 0.41663 0.83512 0.70083 0.0
H400 H 0.39779 0.79902 0.5872 0.0
H401 H 0.45839 0.79869 0.64771 0.0
S402 S 0.30751 0.89743 0.739 0.0
N403 N 0.29603 0.87986 0.68456 0.0
N404 N 0.36178 0.87927 0.7503 0.0
C405 C 0.37297 0.85764 0.70883 0.0
C406 C 0.33727 0.85796 0.67311 0.0
C407 C 0.23067 0.3906 0.62173 0.0
C408 C 0.20796 0.34699 0.62978 0.0
C409 C 0.23203 0.42573 0.65669 0.0
C410 C 0.21072 0.4187 0.70111 0.0
H411 H 0.2497 0.39689 0.58908 0.0
H412 H 0.25202 0.45759 0.64957 0.0
S413 S 0.139 0.3147 0.73671 0.0
N414 N 0.15811 0.30156 0.68312 0.0
N415 N 0.16061 0.36754 0.74875 0.0
C416 C 0.18482 0.37681 0.70827 0.0
C417 C 0.18343 0.34102 0.67267 0.0
C418 C 0.6702 0.19478 0.70676 0.0
C419 C 0.62366 0.20975 0.69739 0.0
C420 C 0.70518 0.19575 0.67177 0.0
C421 C 0.69539 0.21166 0.62557 0.0
H422 H 0.68047 0.18392 0.74205 0.0
H423 H 0.74069 0.18548 0.68174 0.0
S424 S 0.57755 0.2482 0.58039 0.0
N425 N 0.56843 0.23623 0.63682 0.0
N426 N 0.63421 0.23795 0.57098 0.0
C427 C 0.64827 0.22373 0.6147 0.0
C428 C 0.61247 0.22278 0.65054 0.0
C429 C 0.82159 0.62335 0.66117 0.0
C430 C 0.84338 0.63045 0.70536 0.0
C431 C 0.82112 0.65869 0.62657 0.0
C432 C 0.84253 0.70286 0.63437 0.0
H433 H 0.8028 0.59079 0.65387 0.0
H434 H 0.80203 0.65195 0.59404 0.0
S435 S 0.90927 0.73778 0.74179 0.0
N436 N 0.89081 0.6836 0.75342 0.0
N437 N 0.89008 0.75029 0.68802 0.0
C438 C 0.8676 0.70937 0.67693 0.0
C439 C 0.868 0.67311 0.7125 0.0
C440 C 0.36852 0.33348 0.18326 0.0
C441 C 0.41257 0.3415 0.20511 0.0
C442 C 0.33339 0.36892 0.18251 0.0
C443 C 0.34147 0.41341 0.20338 0.0
H444 H 0.35998 0.29877 0.16953 0.0
H445 H 0.29884 0.36034 0.1685 0.0
S446 S 0.45377 0.45487 0.25663 0.0
N447 N 0.46417 0.39928 0.24211 0.0
N448 N 0.39895 0.46558 0.23997 0.0
C449 C 0.38679 0.42298 0.22129 0.0
C450 C 0.42212 0.3871 0.22239 0.0
C451 C 0.33713 0.67415 0.85849 0.0
C452 C 0.34557 0.62995 0.83682 0.0
C453 C 0.37206 0.70944 0.85945 0.0
C454 C 0.4164 0.70176 0.83843 0.0
H455 H 0.30267 0.68235 0.87302 0.0
H456 H 0.36326 0.74378 0.87401 0.0
S457 S 0.45839 0.59102 0.78204 0.0
N458 N 0.40356 0.57954 0.79788 0.0
N459 N 0.46849 0.64569 0.79951 0.0
C460 C 0.42627 0.65686 0.81956 0.0
C461 C 0.39108 0.62098 0.81883 0.0
C462 C 0.33613 0.37112 0.85847 0.0
C463 C 0.34463 0.41615 0.83928 0.0
C464 C 0.37132 0.33597 0.85782 0.0
C465 C 0.41645 0.34472 0.83839 0.0
H466 H 0.30127 0.36202 0.8714 0.0
H467 H 0.36232 0.3011 0.87084 0.0
S468 S 0.45816 0.45964 0.79034 0.0
N469 N 0.40252 0.46932 0.80496 0.0
N470 N 0.46883 0.40404 0.80449 0.0
C471 C 0.42626 0.39088 0.82245 0.0
C472 C 0.3903 0.42633 0.82263 0.0
C473 C 0.68713 0.39132 0.87061 0.0
C474 C 0.71356 0.40009 0.82931 0.0
C475 C 0.65114 0.35677 0.87098 0.0
C476 C 0.64087 0.33033 0.83005 0.0
H477 H 0.69295 0.41253 0.90197 0.0
H478 H 0.63006 0.35212 0.90262 0.0
S479 S 0.70606 0.334 0.71611 0.0
N480 N 0.73114 0.37519 0.74888 0.0
N481 N 0.6641 0.31108 0.74951 0.0
C482 C 0.66926 0.33687 0.78979 0.0
C483 C 0.70549 0.37157 0.78944 0.0
C484 C 0.71039 0.66981 0.84736 0.0
C485 C 0.70109 0.62369 0.83104 0.0
C486 C 0.67552 0.70502 0.84669 0.0
C487 C 0.6297 0.69582 0.8296 0.0
H488 H 0.74545 0.67953 0.85919 0.0
H489 H 0.68527 0.74023 0.85816 0.0
S490 S 0.58525 0.57916 0.78863 0.0
N491 N 0.64116 0.56944 0.80187 0.0
N492 N 0.57578 0.6356 0.80019 0.0
C493 C 0.61903 0.64906 0.81599 0.0
C494 C 0.65461 0.61307 0.81683 0.0
C495 C 0.62449 0.65582 0.22884 0.0
C496 C 0.63226 0.70098 0.2095 0.0
C497 C 0.65956 0.62096 0.22731 0.0
C498 C 0.70372 0.62954 0.20602 0.0
H499 H 0.5921 0.64797 0.24766 0.0
H500 H 0.65275 0.58761 0.24494 0.0
S501 S 0.73879 0.73882 0.14266 0.0
N502 N 0.68513 0.75023 0.16265 0.0
N503 N 0.75113 0.68438 0.15994 0.0
C504 C 0.71053 0.67297 0.18288 0.0
C505 C 0.67481 0.70878 0.18468 0.0
C506 C 0.42431 0.65612 0.23103 0.0
C507 C 0.4168 0.6996 0.20778 0.0
C508 C 0.38946 0.62098 0.23209 0.0
C509 C 0.34527 0.62803 0.21042 0.0
H510 H 0.4568 0.64986 0.25032 0.0
H511 H 0.39642 0.58915 0.25229 0.0
S512 S 0.31019 0.73263 0.13893 0.0
N513 N 0.3638 0.7455 0.158 0.0
N514 N 0.29803 0.6796 0.16014 0.0
C515 C 0.3385 0.66994 0.18417 0.0
C516 C 0.37432 0.70563 0.18272 0.0
C517 C 0.67631 0.33086 0.20238 0.0
C518 C 0.62862 0.34231 0.21087 0.0
C519 C 0.71147 0.36559 0.20267 0.0
C520 C 0.70061 0.41341 0.21147 0.0
H521 H 0.68713 0.29443 0.19744 0.0
H522 H 0.74776 0.3543 0.19789 0.0
S523 S 0.58035 0.46348 0.22747 0.0
N524 N 0.57172 0.40597 0.22232 0.0
N525 N 0.63792 0.47127 0.22286 0.0
C526 C 0.65272 0.42594 0.21658 0.0
C527 C 0.61677 0.39045 0.21629 0.0
C528 C 0.21092 0.99915 0.56344 0.0
C529 C 0.2167 0.97275 0.52166 0.0
C530 C 0.20944 0.04878 0.56251 0.0
C531 C 0.21436 0.07414 0.51985 0.0
H532 H 0.20646 0.98136 0.59709 0.0
H533 H 0.20435 0.06736 0.59562 0.0
S534 S 0.23375 1.02144 0.4009 0.0
N535 N 0.22953 0.97551 0.43668 0.0
N536 N 0.22731 0.06853 0.4348 0.0
C537 C 0.22145 0.04805 0.47792 0.0
C538 C 0.22243 0.9975 0.47886 0.0
C539 C 0.0459 0.2096 0.48243 0.0
C540 C 0.0704 0.21589 0.52539 0.0
C541 C 0.99634 0.20928 0.4808 0.0
C542 C 0.96919 0.21452 0.52215 0.0
H543 H 0.0651 0.20477 0.44964 0.0
H544 H 0.97921 0.20389 0.44697 0.0
S545 S 1.01533 0.23502 0.64331 0.0
N546 N 0.06308 0.22982 0.61016 0.0
N547 N 0.97018 0.22855 0.60696 0.0
C548 C 0.99303 0.22164 0.56522 0.0
C549 C 0.04349 0.22255 0.56687 0.0
C550 C 0.82448 0.04572 0.5678 0.0
C551 C 0.82602 0.07124 0.52507 0.0
C552 C 0.82576 0.99609 0.56812 0.0
C553 C 0.82861 0.97006 0.52573 0.0
H554 H 0.82339 0.06417 0.60136 0.0
H555 H 0.82545 0.9781 0.60195 0.0
S556 S 0.82734 1.01986 0.40413 0.0
N557 N 0.8263 0.06657 0.43909 0.0
N558 N 0.82869 0.9736 0.43971 0.0
C559 C 0.82837 0.99514 0.48271 0.0
C560 C 0.82707 0.04559 0.48238 0.0
C561 C 0.04838 0.84821 0.55479 0.0
C562 C 0.07426 0.82985 0.5164 0.0
C563 C 0.99891 0.84728 0.55538 0.0
C564 C 0.97292 0.82795 0.5176 0.0
H565 H 0.06636 0.86387 0.58474 0.0
H566 H 0.98099 0.86232 0.58573 0.0
S567 S 0.0235 0.77288 0.4094 0.0
N568 N 0.06997 0.79008 0.44011 0.0
N569 N 0.97707 0.78832 0.4412 0.0
C570 C 0.99829 0.80871 0.47921 0.0
C571 C 0.04882 0.80967 0.47861 0.0
C572 C 0.56167 0.21036 0.99821 0.0
C573 C 0.51883 0.21289 0.97298 0.0
C574 C 0.56245 0.21116 0.04785 0.0
C575 C 0.52037 0.21384 0.07427 0.0
H576 H 0.595 0.20784 0.97951 0.0
H577 H 0.59628 0.20878 0.06561 0.0
S578 S 0.39882 0.2228 0.02573 0.0
N579 N 0.43313 0.21948 0.97865 0.0
N580 N 0.43476 0.22061 0.07161 0.0
C581 C 0.47733 0.21688 0.04959 0.0
C582 C 0.47651 0.21654 0.9991 0.0
C583 C 0.83208 0.56054 0.99845 0.0
C584 C 0.82854 0.51864 0.97186 0.0
C585 C 0.83255 0.55951 0.04812 0.0
C586 C 0.82882 0.51661 0.0733 0.0
H587 H 0.83563 0.59436 0.98081 0.0
H588 H 0.83599 0.59273 0.06688 0.0
S589 S 0.81534 0.3972 1.02009 0.0
N590 N 0.81901 0.43322 0.9743 0.0
N591 N 0.81941 0.43121 0.06734 0.0
C592 C 0.82388 0.47456 0.04702 0.0
C593 C 0.82391 0.4756 0.99647 0.0
C594 C 0.49109 0.84332 0.0476 0.0
C595 C 0.52996 0.82651 0.07381 0.0
C596 C 0.4911 0.84274 0.99802 0.0
C597 C 0.52994 0.82526 0.97217 0.0
H598 H 0.46033 0.85757 0.06542 0.0
H599 H 0.46032 0.85658 0.97991 0.0
S600 S 0.63986 0.77464 0.02361 0.0
N601 N 0.60791 0.7901 0.06994 0.0
N602 N 0.60793 0.78899 0.9769 0.0
C603 C 0.56882 0.80748 0.99788 0.0
C604 C 0.56883 0.80812 0.04852 0.0
C605 C 0.19783 0.48987 0.99954 0.0
C606 C 0.21689 0.52787 0.97368 0.0
C607 C 0.19705 0.49017 0.0491 0.0
C608 C 0.21532 0.52848 0.07513 0.0
H609 H 0.18283 0.45965 0.98146 0.0
H610 H 0.18157 0.46009 0.06703 0.0
S611 S 0.27179 0.63587 0.02468 0.0
N612 N 0.2563 0.60432 0.97811 0.0
N613 N 0.25481 0.60485 0.0711 0.0
C614 C 0.23526 0.56646 0.04979 0.0
C615 C 0.23607 0.56617 0.99922 0.0
C616 C 0.04794 0.5623 0.21387 0.0
C617 C 0.07297 0.51935 0.2184 0.0
C618 C 0.99833 0.56352 0.2138 0.0
C619 C 0.97166 0.52177 0.21759 0.0
H620 H 0.06676 0.59542 0.21014 0.0
H621 H 0.98081 0.59736 0.20964 0.0
S622 S 1.01934 0.40034 0.23338 0.0
N623 N 0.06668 0.4341 0.22919 0.0
N624 N 0.97375 0.43648 0.22857 0.0
C625 C 0.99607 0.4787 0.22314 0.0
C626 C 0.04656 0.47746 0.22372 0.0
C627 C 0.99906 0.55323 0.85091 0.0
C628 C 0.97385 0.51519 0.83112 0.0
C629 C 0.04854 0.55398 0.85098 0.0
C630 C 0.07508 0.51672 0.83127 0.0
H631 H 0.98053 0.58269 0.86695 0.0
H632 H 0.06603 0.58397 0.8671 0.0
S633 S 0.02636 0.40983 0.77234 0.0
N634 N 0.97939 0.43995 0.78944 0.0
N635 N 0.07223 0.44137 0.78957 0.0
C636 C 0.05038 0.47874 0.81057 0.0
C637 C 0.9999 0.47797 0.81049 0.0
C638 C 0.48208 0.04539 0.83428 0.0
C639 C 0.52479 0.07077 0.83131 0.0
C640 C 0.48148 0.99574 0.83391 0.0
C641 C 0.52363 0.96937 0.8313 0.0
H642 H 0.44868 0.06398 0.8368 0.0
H643 H 0.44772 0.97792 0.83653 0.0
S644 S 0.6449 1.01829 0.82129 0.0
N645 N 0.61042 0.06532 0.82432 0.0
N646 N 0.6092 0.97229 0.82412 0.0
C647 C 0.56656 0.9942 0.82786 0.0
C648 C 0.56717 0.04474 0.82769 0.0
C649 C 0.55426 0.99675 0.19834 0.0
C650 C 0.51606 0.97026 0.21605 0.0
C651 C 0.5537 0.04628 0.19869 0.0
C652 C 0.51493 0.07179 0.21681 0.0
H653 H 0.58496 0.97918 0.18362 0.0
H654 H 0.58402 0.06462 0.18424 0.0
S655 S 0.40663 1.01957 0.26973 0.0
N656 N 0.43878 0.97349 0.25387 0.0
N657 N 0.43773 0.06652 0.25454 0.0
C658 C 0.47668 0.04583 0.23539 0.0
C659 C 0.47724 0.99521 0.23499 0.0
loop_
_geom_bond_atom_site_label_1
_geom_bond_atom_site_label_2
_geom_bond_distance
_geom_bond_site_symmetry_2
_ccdc_geom_bond_type
Fe0 O2 1.918 . S
Fe0 O5 1.997 . S
Fe0 O6 2.002 . S
Fe0 O11 1.976 . S
Fe0 O14 1.996 . S
Fe1 O2 1.918 . S
Fe1 O9 1.997 . S
Fe1 O12 1.996 . S
Fe1 O16 1.976 . S
Fe1 O19 2.002 . S
O2 Fe0 1.918 . S
O2 Fe1 1.918 . S
O2 Fe3 1.918 . S
Fe3 O2 1.918 . S
Fe3 O4 2.002 . S
Fe3 O13 1.976 . S
Fe3 O17 1.996 . S
Fe3 O20 1.997 . S
O4 Fe3 2.002 . S
O4 C21 1.295 . S
O5 Fe0 1.997 . S
O5 C21 1.235 . S
O6 Fe0 2.002 . S
O6 C7 1.295 . S
C7 O6 1.295 . S
C7 O9 1.235 . S
C8 O13 1.287 . S
C8 O14 1.255 . S
O9 Fe1 1.997 . S
O9 C7 1.235 . S
C10 O16 1.287 . S
C10 O17 1.255 . S
O11 Fe0 1.976 . S
O11 C18 1.287 . S
O12 Fe1 1.996 . S
O12 C18 1.255 . S
O13 Fe3 1.976 . S
O13 C8 1.287 . S
O14 Fe0 1.996 . S
O14 C8 1.255 . S
C15 O19 1.295 . S
C15 O20 1.235 . S
O16 Fe1 1.976 . S
O16 C10 1.287 . S
O17 Fe3 1.996 . S
O17 C10 1.255 . S
C18 O11 1.287 . S
C18 O12 1.255 . S
O19 Fe1 2.002 . S
O19 C15 1.295 . S
O20 Fe3 1.997 . S
O20 C15 1.235 . S
C21 O4 1.295 . S
C21 O5 1.235 . S
Fe22 O24 1.918 . S
Fe22 O27 1.997 . S
Fe22 O28 2.002 . S
Fe22 O33 1.976 . S
Fe22 O36 1.996 . S
Fe23 O24 1.918 . S
Fe23 O31 1.997 . S
Fe23 O34 1.996 . S
Fe23 O38 1.976 . S
Fe23 O41 2.002 . S
O24 Fe22 1.918 . S
O24 Fe23 1.918 . S
O24 Fe25 1.918 . S
Fe25 O24 1.918 . S
Fe25 O26 2.002 . S
Fe25 O35 1.976 . S
Fe25 O39 1.996 . S
Fe25 O42 1.997 . S
O26 Fe25 2.002 . S
O26 C43 1.295 . S
O27 Fe22 1.997 . S
O27 C43 1.235 . S
O28 Fe22 2.002 . S
O28 C29 1.295 . S
C29 O28 1.295 . S
C29 O31 1.235 . S
C30 O35 1.287 . S
C30 O36 1.255 . S
O31 Fe23 1.997 . S
O31 C29 1.235 . S
C32 O38 1.287 . S
C32 O39 1.255 . S
O33 Fe22 1.976 . S
O33 C40 1.287 . S
O34 Fe23 1.996 . S
O34 C40 1.255 . S
O35 Fe25 1.976 . S
O35 C30 1.287 . S
O36 Fe22 1.996 . S
O36 C30 1.255 . S
C37 O41 1.295 . S
C37 O42 1.235 . S
O38 Fe23 1.976 . S
O38 C32 1.287 . S
O39 Fe25 1.996 . S
O39 C32 1.255 . S
C40 O33 1.287 . S
C40 O34 1.255 . S
O41 Fe23 2.002 . S
O41 C37 1.295 . S
O42 Fe25 1.997 . S
O42 C37 1.235 . S
C43 O26 1.295 . S
C43 O27 1.235 . S
Fe44 O46 1.918 . S
Fe44 O49 1.997 . S
Fe44 O50 2.002 . S
Fe44 O55 1.976 . S
Fe44 O58 1.996 . S
Fe45 O46 1.918 . S
Fe45 O53 1.997 . S
Fe45 O56 1.996 . S
Fe45 O60 1.976 . S
Fe45 O63 2.002 . S
O46 Fe44 1.918 . S
O46 Fe45 1.918 . S
O46 Fe47 1.918 . S
Fe47 O46 1.918 . S
Fe47 O48 2.002 . S
Fe47 O57 1.976 . S
Fe47 O61 1.996 . S
Fe47 O64 1.997 . S
O48 Fe47 2.002 . S
O48 C65 1.295 . S
O49 Fe44 1.997 . S
O49 C65 1.235 . S
O50 Fe44 2.002 . S
O50 C51 1.295 . S
C51 O50 1.295 . S
C51 O53 1.235 . S
C52 O57 1.287 . S
C52 O58 1.255 . S
O53 Fe45 1.997 . S
O53 C51 1.235 . S
C54 O60 1.287 . S
C54 O61 1.255 . S
O55 Fe44 1.976 . S
O55 C62 1.287 . S
O56 Fe45 1.996 . S
O56 C62 1.255 . S
O57 Fe47 1.976 . S
O57 C52 1.287 . S
O58 Fe44 1.996 . S
O58 C52 1.255 . S
C59 O63 1.295 . S
C59 O64 1.235 . S
O60 Fe45 1.976 . S
O60 C54 1.287 . S
O61 Fe47 1.996 . S
O61 C54 1.255 . S
C62 O55 1.287 . S
C62 O56 1.255 . S
O63 Fe45 2.002 . S
O63 C59 1.295 . S
O64 Fe47 1.997 . S
O64 C59 1.235 . S
C65 O48 1.295 . S
C65 O49 1.235 . S
Fe66 O68 1.918 . S
Fe66 O71 1.997 . S
Fe66 O72 2.002 . S
Fe66 O77 1.976 . S
Fe66 O80 1.996 . S
Fe67 O68 1.918 . S
Fe67 O75 1.997 . S
Fe67 O78 1.996 . S
Fe67 O82 1.976 . S
Fe67 O85 2.002 . S
O68 Fe66 1.918 . S
O68 Fe67 1.918 . S
O68 Fe69 1.918 . S
Fe69 O68 1.918 . S
Fe69 O70 2.002 . S
Fe69 O79 1.976 . S
Fe69 O83 1.996 . S
Fe69 O86 1.997 . S
O70 Fe69 2.002 . S
O70 C87 1.295 . S
O71 Fe66 1.997 . S
O71 C87 1.235 . S
O72 Fe66 2.002 . S
O72 C73 1.295 . S
C73 O72 1.295 . S
C73 O75 1.235 . S
C74 O79 1.287 . S
C74 O80 1.255 . S
O75 Fe67 1.997 . S
O75 C73 1.235 . S
C76 O82 1.287 . S
C76 O83 1.255 . S
O77 Fe66 1.976 . S
O77 C84 1.287 . S
O78 Fe67 1.996 . S
O78 C84 1.255 . S
O79 Fe69 1.976 . S
O79 C74 1.287 . S
O80 Fe66 1.996 . S
O80 C74 1.255 . S
C81 O85 1.295 . S
C81 O86 1.235 . S
O82 Fe67 1.976 . S
O82 C76 1.287 . S
O83 Fe69 1.996 . S
O83 C76 1.255 . S
C84 O77 1.287 . S
C84 O78 1.255 . S
O85 Fe67 2.002 . S
O85 C81 1.295 . S
O86 Fe69 1.997 . S
O86 C81 1.235 . S
C87 O70 1.295 . S
C87 O71 1.235 . S
Fe88 O90 1.918 . S
Fe88 O93 1.997 . S
Fe88 O94 2.002 . S
Fe88 O99 1.976 . S
Fe88 O102 1.996 . S
Fe89 O90 1.918 . S
Fe89 O97 1.997 . S
Fe89 O100 1.996 . S
Fe89 O104 1.976 . S
Fe89 O107 2.002 . S
O90 Fe88 1.918 . S
O90 Fe89 1.918 . S
O90 Fe91 1.918 . S
Fe91 O90 1.918 . S
Fe91 O92 2.002 . S
Fe91 O101 1.976 . S
Fe91 O105 1.996 . S
Fe91 O108 1.997 . S
O92 Fe91 2.002 . S
O92 C109 1.295 . S
O93 Fe88 1.997 . S
O93 C109 1.235 . S
O94 Fe88 2.002 . S
O94 C95 1.295 . S
C95 O94 1.295 . S
C95 O97 1.235 . S
C96 O101 1.287 . S
C96 O102 1.255 . S
O97 Fe89 1.997 . S
O97 C95 1.235 . S
C98 O104 1.287 . S
C98 O105 1.255 . S
O99 Fe88 1.976 . S
O99 C106 1.287 . S
O100 Fe89 1.996 . S
O100 C106 1.255 . S
O101 Fe91 1.976 . S
O101 C96 1.287 . S
O102 Fe88 1.996 . S
O102 C96 1.255 . S
C103 O107 1.295 . S
C103 O108 1.235 . S
O104 Fe89 1.976 . S
O104 C98 1.287 . S
O105 Fe91 1.996 . S
O105 C98 1.255 . S
C106 O99 1.287 . S
C106 O100 1.255 . S
O107 Fe89 2.002 . S
O107 C103 1.295 . S
O108 Fe91 1.997 . S
O108 C103 1.235 . S
C109 O92 1.295 . S
C109 O93 1.235 . S
Fe110 O112 1.918 . S
Fe110 O115 1.997 . S
Fe110 O116 2.002 . S
Fe110 O121 1.976 . S
Fe110 O124 1.996 . S
Fe111 O112 1.918 . S
Fe111 O119 1.997 . S
Fe111 O122 1.996 . S
Fe111 O126 1.976 . S
Fe111 O129 2.002 . S
O112 Fe110 1.918 . S
O112 Fe111 1.918 . S
O112 Fe113 1.918 . S
Fe113 O112 1.918 . S
Fe113 O114 2.002 . S
Fe113 O123 1.976 . S
Fe113 O127 1.996 . S
Fe113 O130 1.997 . S
O114 Fe113 2.002 . S
O114 C131 1.295 . S
O115 Fe110 1.997 . S
O115 C131 1.235 . S
O116 Fe110 2.002 . S
O116 C117 1.295 . S
C117 O116 1.295 . S
C117 O119 1.235 . S
C118 O123 1.287 . S
C118 O124 1.255 . S
O119 Fe111 1.997 . S
O119 C117 1.235 . S
C120 O126 1.287 . S
C120 O127 1.255 . S
O121 Fe110 1.976 . S
O121 C128 1.287 . S
O122 Fe111 1.996 . S
O122 C128 1.255 . S
O123 Fe113 1.976 . S
O123 C118 1.287 . S
O124 Fe110 1.996 . S
O124 C118 1.255 . S
C125 O129 1.295 . S
C125 O130 1.235 . S
O126 Fe111 1.976 . S
O126 C120 1.287 . S
O127 Fe113 1.996 . S
O127 C120 1.255 . S
C128 O121 1.287 . S
C128 O122 1.255 . S
O129 Fe111 2.002 . S
O129 C125 1.295 . S
O130 Fe113 1.997 . S
O130 C125 1.235 . S
C131 O114 1.295 . S
C131 O115 1.235 . S
Fe132 O134 1.918 . S
Fe132 O137 1.997 . S
Fe132 O138 2.002 . S
Fe132 O143 1.976 . S
Fe132 O146 1.996 . S
Fe133 O134 1.918 . S
Fe133 O141 1.997 . S
Fe133 O144 1.996 . S
Fe133 O148 1.976 . S
Fe133 O151 2.002 . S
O134 Fe132 1.918 . S
O134 Fe133 1.918 . S
O134 Fe135 1.918 . S
Fe135 O134 1.918 . S
Fe135 O136 2.002 . S
Fe135 O145 1.976 . S
Fe135 O149 1.996 . S
Fe135 O152 1.997 . S
O136 Fe135 2.002 . S
O136 C153 1.295 . S
O137 Fe132 1.997 . S
O137 C153 1.235 . S
O138 Fe132 2.002 . S
O138 C139 1.295 . S
C139 O138 1.295 . S
C139 O141 1.235 . S
C140 O145 1.287 . S
C140 O146 1.255 . S
O141 Fe133 1.997 . S
O141 C139 1.235 . S
C142 O148 1.287 . S
C142 O149 1.255 . S
O143 Fe132 1.976 . S
O143 C150 1.287 . S
O144 Fe133 1.996 . S
O144 C150 1.255 . S
O145 Fe135 1.976 . S
O145 C140 1.287 . S
O146 Fe132 1.996 . S
O146 C140 1.255 . S
C147 O151 1.295 . S
C147 O152 1.235 . S
O148 Fe133 1.976 . S
O148 C142 1.287 . S
O149 Fe135 1.996 . S
O149 C142 1.255 . S
C150 O143 1.287 . S
C150 O144 1.255 . S
O151 Fe133 2.002 . S
O151 C147 1.295 . S
O152 Fe135 1.997 . S
O152 C147 1.235 . S
C153 O136 1.295 . S
C153 O137 1.235 . S
Fe154 O156 1.918 . S
Fe154 O159 1.997 . S
Fe154 O160 2.002 . S
Fe154 O165 1.976 . S
Fe154 O168 1.996 . S
Fe155 O156 1.918 . S
Fe155 O163 1.997 . S
Fe155 O166 1.996 . S
Fe155 O170 1.976 . S
Fe155 O173 2.002 . S
O156 Fe154 1.918 . S
O156 Fe155 1.918 . S
O156 Fe157 1.918 . S
Fe157 O156 1.918 . S
Fe157 O158 2.002 . S
Fe157 O167 1.976 . S
Fe157 O171 1.996 . S
Fe157 O174 1.997 . S
O158 Fe157 2.002 . S
O158 C175 1.295 . S
O159 Fe154 1.997 . S
O159 C175 1.235 . S
O160 Fe154 2.002 . S
O160 C161 1.295 . S
C161 O160 1.295 . S
C161 O163 1.235 . S
C162 O167 1.287 . S
C162 O168 1.255 . S
O163 Fe155 1.997 . S
O163 C161 1.235 . S
C164 O170 1.287 . S
C164 O171 1.255 . S
O165 Fe154 1.976 . S
O165 C172 1.287 . S
O166 Fe155 1.996 . S
O166 C172 1.255 . S
O167 Fe157 1.976 . S
O167 C162 1.287 . S
O168 Fe154 1.996 . S
O168 C162 1.255 . S
C169 O173 1.295 . S
C169 O174 1.235 . S
O170 Fe155 1.976 . S
O170 C164 1.287 . S
O171 Fe157 1.996 . S
O171 C164 1.255 . S
C172 O165 1.287 . S
C172 O166 1.255 . S
O173 Fe155 2.002 . S
O173 C169 1.295 . S
O174 Fe157 1.997 . S
O174 C169 1.235 . S
C175 O158 1.295 . S
C175 O159 1.235 . S
Fe176 O178 1.918 . S
Fe176 O181 1.997 . S
Fe176 O182 2.002 . S
Fe176 O187 1.976 . S
Fe176 O190 1.996 . S
Fe177 O178 1.918 . S
Fe177 O185 1.997 . S
Fe177 O188 1.996 . S
Fe177 O192 1.976 . S
Fe177 O195 2.002 . S
O178 Fe176 1.918 . S
O178 Fe177 1.918 . S
O178 Fe179 1.918 . S
Fe179 O178 1.918 . S
Fe179 O180 2.002 . S
Fe179 O189 1.976 . S
Fe179 O193 1.996 . S
Fe179 O196 1.997 . S
O180 Fe179 2.002 . S
O180 C197 1.295 . S
O181 Fe176 1.997 . S
O181 C197 1.235 . S
O182 Fe176 2.002 . S
O182 C183 1.295 . S
C183 O182 1.295 . S
C183 O185 1.235 . S
C184 O189 1.287 . S
C184 O190 1.255 . S
O185 Fe177 1.997 . S
O185 C183 1.235 . S
C186 O192 1.287 . S
C186 O193 1.255 . S
O187 Fe176 1.976 . S
O187 C194 1.287 . S
O188 Fe177 1.996 . S
O188 C194 1.255 . S
O189 Fe179 1.976 . S
O189 C184 1.287 . S
O190 Fe176 1.996 . S
O190 C184 1.255 . S
C191 O195 1.295 . S
C191 O196 1.235 . S
O192 Fe177 1.976 . S
O192 C186 1.287 . S
O193 Fe179 1.996 . S
O193 C186 1.255 . S
C194 O187 1.287 . S
C194 O188 1.255 . S
O195 Fe177 2.002 . S
O195 C191 1.295 . S
O196 Fe179 1.997 . S
O196 C191 1.235 . S
C197 O180 1.295 . S
C197 O181 1.235 . S
Fe198 O200 1.918 . S
Fe198 O203 1.997 . S
Fe198 O204 2.002 . S
Fe198 O209 1.976 . S
Fe198 O212 1.996 . S
Fe199 O200 1.918 . S
Fe199 O207 1.997 . S
Fe199 O210 1.996 . S
Fe199 O214 1.976 . S
Fe199 O217 2.002 . S
O200 Fe198 1.918 . S
O200 Fe199 1.918 . S
O200 Fe201 1.918 . S
Fe201 O200 1.918 . S
Fe201 O202 2.002 . S
Fe201 O211 1.976 . S
Fe201 O215 1.996 . S
Fe201 O218 1.997 . S
O202 Fe201 2.002 . S
O202 C219 1.295 . S
O203 Fe198 1.997 . S
O203 C219 1.235 . S
O204 Fe198 2.002 . S
O204 C205 1.295 . S
C205 O204 1.295 . S
C205 O207 1.235 . S
C206 O211 1.287 . S
C206 O212 1.255 . S
O207 Fe199 1.997 . S
O207 C205 1.235 . S
C208 O214 1.287 . S
C208 O215 1.255 . S
O209 Fe198 1.976 . S
O209 C216 1.287 . S
O210 Fe199 1.996 . S
O210 C216 1.255 . S
O211 Fe201 1.976 . S
O211 C206 1.287 . S
O212 Fe198 1.996 . S
O212 C206 1.255 . S
C213 O217 1.295 . S
C213 O218 1.235 . S
O214 Fe199 1.976 . S
O214 C208 1.287 . S
O215 Fe201 1.996 . S
O215 C208 1.255 . S
C216 O209 1.287 . S
C216 O210 1.255 . S
O217 Fe199 2.002 . S
O217 C213 1.295 . S
O218 Fe201 1.997 . S
O218 C213 1.235 . S
C219 O202 1.295 . S
C219 O203 1.235 . S
Fe220 O222 1.918 . S
Fe220 O225 1.997 . S
Fe220 O226 2.002 . S
Fe220 O231 1.976 . S
Fe220 O234 1.996 . S
Fe221 O222 1.918 . S
Fe221 O229 1.997 . S
Fe221 O232 1.996 . S
Fe221 O236 1.976 . S
Fe221 O239 2.002 . S
O222 Fe220 1.918 . S
O222 Fe221 1.918 . S
O222 Fe223 1.918 . S
Fe223 O222 1.918 . S
Fe223 O224 2.002 . S
Fe223 O233 1.976 . S
Fe223 O237 1.996 . S
Fe223 O240 1.997 . S
O224 Fe223 2.002 . S
O224 C241 1.295 . S
O225 Fe220 1.997 . S
O225 C241 1.235 . S
O226 Fe220 2.002 . S
O226 C227 1.295 . S
C227 O226 1.295 . S
C227 O229 1.235 . S
C228 O233 1.287 . S
C228 O234 1.255 . S
O229 Fe221 1.997 . S
O229 C227 1.235 . S
C230 O236 1.287 . S
C230 O237 1.255 . S
O231 Fe220 1.976 . S
O231 C238 1.287 . S
O232 Fe221 1.996 . S
O232 C238 1.255 . S
O233 Fe223 1.976 . S
O233 C228 1.287 . S
O234 Fe220 1.996 . S
O234 C228 1.255 . S
C235 O239 1.295 . S
C235 O240 1.235 . S
O236 Fe221 1.976 . S
O236 C230 1.287 . S
O237 Fe223 1.996 . S
O237 C230 1.255 . S
C238 O231 1.287 . S
C238 O232 1.255 . S
O239 Fe221 2.002 . S
O239 C235 1.295 . S
O240 Fe223 1.997 . S
O240 C235 1.235 . S
C241 O224 1.295 . S
C241 O225 1.235 . S
Fe242 O244 1.918 . S
Fe242 O247 1.997 . S
Fe242 O248 2.002 . S
Fe242 O253 1.976 . S
Fe242 O256 1.996 . S
Fe243 O244 1.918 . S
Fe243 O251 1.997 . S
Fe243 O254 1.996 . S
Fe243 O258 1.976 . S
Fe243 O261 2.002 . S
O244 Fe242 1.918 . S
O244 Fe243 1.918 . S
O244 Fe245 1.918 . S
Fe245 O244 1.918 . S
Fe245 O246 2.002 . S
Fe245 O255 1.976 . S
Fe245 O259 1.996 . S
Fe245 O262 1.997 . S
O246 Fe245 2.002 . S
O246 C263 1.295 . S
O247 Fe242 1.997 . S
O247 C263 1.235 . S
O248 Fe242 2.002 . S
O248 C249 1.295 . S
C249 O248 1.295 . S
C249 O251 1.235 . S
C250 O255 1.287 . S
C250 O256 1.255 . S
O251 Fe243 1.997 . S
O251 C249 1.235 . S
C252 O258 1.287 . S
C252 O259 1.255 . S
O253 Fe242 1.976 . S
O253 C260 1.287 . S
O254 Fe243 1.996 . S
O254 C260 1.255 . S
O255 Fe245 1.976 . S
O255 C250 1.287 . S
O256 Fe242 1.996 . S
O256 C250 1.255 . S
C257 O261 1.295 . S
C257 O262 1.235 . S
O258 Fe243 1.976 . S
O258 C252 1.287 . S
O259 Fe245 1.996 . S
O259 C252 1.255 . S
C260 O253 1.287 . S
C260 O254 1.255 . S
O261 Fe243 2.002 . S
O261 C257 1.295 . S
O262 Fe245 1.997 . S
O262 C257 1.235 . S
C263 O246 1.295 . S
C263 O247 1.235 . S
C264 C265 1.369 . S
C264 C266 1.419 . S
C264 H268 0.930 . S
C265 C264 1.369 . S
C265 C274 1.429 . S
C266 C264 1.419 . S
C266 C267 1.363 . S
C266 H269 0.929 . S
C267 C266 1.363 . S
C267 C273 1.428 . S
H268 C264 0.930 . S
H269 C266 0.929 . S
S270 N271 1.613 . S
S270 N272 1.610 . S
N271 S270 1.613 . S
N271 C274 1.350 . S
N272 S270 1.610 . S
N272 C273 1.351 . S
C273 C267 1.428 . S
C273 N272 1.351 . S
C273 C274 1.434 . S
C274 C265 1.429 . S
C274 N271 1.350 . S
C274 C273 1.434 . S
C275 C276 1.369 . S
C275 C277 1.419 . S
C275 H279 0.930 . S
C276 C275 1.369 . S
C276 C285 1.429 . S
C277 C275 1.419 . S
C277 C278 1.363 . S
C277 H280 0.929 . S
C278 C277 1.363 . S
C278 C284 1.428 . S
H279 C275 0.930 . S
H280 C277 0.929 . S
S281 N282 1.613 . S
S281 N283 1.610 . S
N282 S281 1.613 . S
N282 C285 1.350 . S
N283 S281 1.610 . S
N283 C284 1.351 . S
C284 C278 1.428 . S
C284 N283 1.351 . S
C284 C285 1.434 . S
C285 C276 1.429 . S
C285 N282 1.350 . S
C285 C284 1.434 . S
C286 C287 1.369 . S
C286 C288 1.419 . S
C286 H290 0.930 . S
C287 C286 1.369 . S
C287 C296 1.429 . S
C288 C286 1.419 . S
C288 C289 1.363 . S
C288 H291 0.929 . S
C289 C288 1.363 . S
C289 C295 1.428 . S
H290 C286 0.930 . S
H291 C288 0.929 . S
S292 N293 1.613 . S
S292 N294 1.610 . S
N293 S292 1.613 . S
N293 C296 1.350 . S
N294 S292 1.610 . S
N294 C295 1.351 . S
C295 C289 1.428 . S
C295 N294 1.351 . S
C295 C296 1.434 . S
C296 C287 1.429 . S
C296 N293 1.350 . S
C296 C295 1.434 . S
C297 C298 1.369 . S
C297 C299 1.419 . S
C297 H301 0.930 . S
C298 C297 1.369 . S
C298 C307 1.429 . S
C299 C297 1.419 . S
C299 C300 1.363 . S
C299 H302 0.929 . S
C300 C299 1.363 . S
C300 C306 1.428 . S
H301 C297 0.930 . S
H302 C299 0.929 . S
S303 N304 1.613 . S
S303 N305 1.610 . S
N304 S303 1.613 . S
N304 C307 1.350 . S
N305 S303 1.610 . S
N305 C306 1.351 . S
C306 C300 1.428 . S
C306 N305 1.351 . S
C306 C307 1.434 . S
C307 C298 1.429 . S
C307 N304 1.350 . S
C307 C306 1.434 . S
C308 C309 1.369 . S
C308 C310 1.419 . S
C308 H312 0.930 . S
C309 C308 1.369 . S
C309 C318 1.429 . S
C310 C308 1.419 . S
C310 C311 1.363 . S
C310 H313 0.929 . S
C311 C310 1.363 . S
C311 C317 1.428 . S
H312 C308 0.930 . S
H313 C310 0.929 . S
S314 N315 1.613 . S
S314 N316 1.610 . S
N315 S314 1.613 . S
N315 C318 1.350 . S
N316 S314 1.610 . S
N316 C317 1.351 . S
C317 C311 1.428 . S
C317 N316 1.351 . S
C317 C318 1.434 . S
C318 C309 1.429 . S
C318 N315 1.350 . S
C318 C317 1.434 . S
C319 C320 1.369 . S
C319 C321 1.419 . S
C319 H323 0.930 . S
C320 C319 1.369 . S
C320 C329 1.429 . S
C321 C319 1.419 . S
C321 C322 1.363 . S
C321 H324 0.929 . S
C322 C321 1.363 . S
C322 C328 1.428 . S
H323 C319 0.930 . S
H324 C321 0.929 . S
S325 N326 1.613 . S
S325 N327 1.610 . S
N326 S325 1.613 . S
N326 C329 1.350 . S
N327 S325 1.610 . S
N327 C328 1.351 . S
C328 C322 1.428 . S
C328 N327 1.351 . S
C328 C329 1.434 . S
C329 C320 1.429 . S
C329 N326 1.350 . S
C329 C328 1.434 . S
C330 C331 1.369 . S
C330 C332 1.419 . S
C330 H334 0.930 . S
C331 C330 1.369 . S
C331 C340 1.429 . S
C332 C330 1.419 . S
C332 C333 1.363 . S
C332 H335 0.929 . S
C333 C332 1.363 . S
C333 C339 1.428 . S
H334 C330 0.930 . S
H335 C332 0.929 . S
S336 N337 1.613 . S
S336 N338 1.610 . S
N337 S336 1.613 . S
N337 C340 1.350 . S
N338 S336 1.610 . S
N338 C339 1.351 . S
C339 C333 1.428 . S
C339 N338 1.351 . S
C339 C340 1.434 . S
C340 C331 1.429 . S
C340 N337 1.350 . S
C340 C339 1.434 . S
C341 C342 1.369 . S
C341 C343 1.419 . S
C341 H345 0.930 . S
C342 C341 1.369 . S
C342 C351 1.429 . S
C343 C341 1.419 . S
C343 C344 1.363 . S
C343 H346 0.929 . S
C344 C343 1.363 . S
C344 C350 1.428 . S
H345 C341 0.930 . S
H346 C343 0.929 . S
S347 N348 1.613 . S
S347 N349 1.610 . S
N348 S347 1.613 . S
N348 C351 1.350 . S
N349 S347 1.610 . S
N349 C350 1.351 . S
C350 C344 1.428 . S
C350 N349 1.351 . S
C350 C351 1.434 . S
C351 C342 1.429 . S
C351 N348 1.350 . S
C351 C350 1.434 . S
C352 C353 1.369 . S
C352 C354 1.419 . S
C352 H356 0.930 . S
C353 C352 1.369 . S
C353 C362 1.429 . S
C354 C352 1.419 . S
C354 C355 1.363 . S
C354 H357 0.929 . S
C355 C354 1.363 . S
C355 C361 1.428 . S
H356 C352 0.930 . S
H357 C354 0.929 . S
S358 N359 1.613 . S
S358 N360 1.610 . S
N359 S358 1.613 . S
N359 C362 1.350 . S
N360 S358 1.610 . S
N360 C361 1.351 . S
C361 C355 1.428 . S
C361 N360 1.351 . S
C361 C362 1.434 . S
C362 C353 1.429 . S
C362 N359 1.350 . S
C362 C361 1.434 . S
C363 C364 1.369 . S
C363 C365 1.419 . S
C363 H367 0.930 . S
C364 C363 1.369 . S
C364 C373 1.429 . S
C365 C363 1.419 . S
C365 C366 1.363 . S
C365 H368 0.929 . S
C366 C365 1.363 . S
C366 C372 1.428 . S
H367 C363 0.930 . S
H368 C365 0.929 . S
S369 N370 1.613 . S
S369 N371 1.610 . S
N370 S369 1.613 . S
N370 C373 1.350 . S
N371 S369 1.610 . S
N371 C372 1.351 . S
C372 C366 1.428 . S
C372 N371 1.351 . S
C372 C373 1.434 . S
C373 C364 1.429 . S
C373 N370 1.350 . S
C373 C372 1.434 . S
C374 C375 1.369 . S
C374 C376 1.419 . S
C374 H378 0.930 . S
C375 C374 1.369 . S
C375 C384 1.429 . S
C376 C374 1.419 . S
C376 C377 1.363 . S
C376 H379 0.929 . S
C377 C376 1.363 . S
C377 C383 1.428 . S
H378 C374 0.930 . S
H379 C376 0.929 . S
S380 N381 1.613 . S
S380 N382 1.610 . S
N381 S380 1.613 . S
N381 C384 1.350 . S
N382 S380 1.610 . S
N382 C383 1.351 . S
C383 C377 1.428 . S
C383 N382 1.351 . S
C383 C384 1.434 . S
C384 C375 1.429 . S
C384 N381 1.350 . S
C384 C383 1.434 . S
C385 C386 1.369 . S
C385 C387 1.419 . S
C385 H389 0.930 . S
C386 C385 1.369 . S
C386 C395 1.429 . S
C387 C385 1.419 . S
C387 C388 1.363 . S
C387 H390 0.929 . S
C388 C387 1.363 . S
C388 C394 1.428 . S
H389 C385 0.930 . S
H390 C387 0.929 . S
S391 N392 1.613 . S
S391 N393 1.610 . S
N392 S391 1.613 . S
N392 C395 1.350 . S
N393 S391 1.610 . S
N393 C394 1.351 . S
C394 C388 1.428 . S
C394 N393 1.351 . S
C394 C395 1.434 . S
C395 C386 1.429 . S
C395 N392 1.350 . S
C395 C394 1.434 . S
C396 C397 1.369 . S
C396 C398 1.419 . S
C396 H400 0.930 . S
C397 C396 1.369 . S
C397 C406 1.429 . S
C398 C396 1.419 . S
C398 C399 1.363 . S
C398 H401 0.929 . S
C399 C398 1.363 . S
C399 C405 1.428 . S
H400 C396 0.930 . S
H401 C398 0.929 . S
S402 N403 1.613 . S
S402 N404 1.610 . S
N403 S402 1.613 . S
N403 C406 1.350 . S
N404 S402 1.610 . S
N404 C405 1.351 . S
C405 C399 1.428 . S
C405 N404 1.351 . S
C405 C406 1.434 . S
C406 C397 1.429 . S
C406 N403 1.350 . S
C406 C405 1.434 . S
C407 C408 1.369 . S
C407 C409 1.419 . S
C407 H411 0.930 . S
C408 C407 1.369 . S
C408 C417 1.429 . S
C409 C407 1.419 . S
C409 C410 1.363 . S
C409 H412 0.929 . S
C410 C409 1.363 . S
C410 C416 1.428 . S
H411 C407 0.930 . S
H412 C409 0.929 . S
S413 N414 1.613 . S
S413 N415 1.610 . S
N414 S413 1.613 . S
N414 C417 1.350 . S
N415 S413 1.610 . S
N415 C416 1.351 . S
C416 C410 1.428 . S
C416 N415 1.351 . S
C416 C417 1.434 . S
C417 C408 1.429 . S
C417 N414 1.350 . S
C417 C416 1.434 . S
C418 C419 1.369 . S
C418 C420 1.419 . S
C418 H422 0.930 . S
C419 C418 1.369 . S
C419 C428 1.429 . S
C420 C418 1.419 . S
C420 C421 1.363 . S
C420 H423 0.929 . S
C421 C420 1.363 . S
C421 C427 1.428 . S
H422 C418 0.930 . S
H423 C420 0.929 . S
S424 N425 1.613 . S
S424 N426 1.610 . S
N425 S424 1.613 . S
N425 C428 1.350 . S
N426 S424 1.610 . S
N426 C427 1.351 . S
C427 C421 1.428 . S
C427 N426 1.351 . S
C427 C428 1.434 . S
C428 C419 1.429 . S
C428 N425 1.350 . S
C428 C427 1.434 . S
C429 C430 1.369 . S
C429 C431 1.419 . S
C429 H433 0.930 . S
C430 C429 1.369 . S
C430 C439 1.429 . S
C431 C429 1.419 . S
C431 C432 1.363 . S
C431 H434 0.929 . S
C432 C431 1.363 . S
C432 C438 1.428 . S
H433 C429 0.930 . S
H434 C431 0.929 . S
S435 N436 1.613 . S
S435 N437 1.610 . S
N436 S435 1.613 . S
N436 C439 1.350 . S
N437 S435 1.610 . S
N437 C438 1.351 . S
C438 C432 1.428 . S
C438 N437 1.351 . S
C438 C439 1.434 . S
C439 C430 1.429 . S
C439 N436 1.350 . S
C439 C438 1.434 . S
C440 C441 1.369 . S
C440 C442 1.419 . S
C440 H444 0.930 . S
C441 C440 1.369 . S
C441 C450 1.429 . S
C442 C440 1.419 . S
C442 C443 1.363 . S
C442 H445 0.929 . S
C443 C442 1.363 . S
C443 C449 1.428 . S
H444 C440 0.930 . S
H445 C442 0.929 . S
S446 N447 1.613 . S
S446 N448 1.610 . S
N447 S446 1.613 . S
N447 C450 1.350 . S
N448 S446 1.610 . S
N448 C449 1.351 . S
C449 C443 1.428 . S
C449 N448 1.351 . S
C449 C450 1.434 . S
C450 C441 1.429 . S
C450 N447 1.350 . S
C450 C449 1.434 . S
C451 C452 1.369 . S
C451 C453 1.419 . S
C451 H455 0.930 . S
C452 C451 1.369 . S
C452 C461 1.429 . S
C453 C451 1.419 . S
C453 C454 1.363 . S
C453 H456 0.929 . S
C454 C453 1.363 . S
C454 C460 1.428 . S
H455 C451 0.930 . S
H456 C453 0.929 . S
S457 N458 1.613 . S
S457 N459 1.610 . S
N458 S457 1.613 . S
N458 C461 1.350 . S
N459 S457 1.610 . S
N459 C460 1.351 . S
C460 C454 1.428 . S
C460 N459 1.351 . S
C460 C461 1.434 . S
C461 C452 1.429 . S
C461 N458 1.350 . S
C461 C460 1.434 . S
C462 C463 1.369 . S
C462 C464 1.419 . S
C462 H466 0.930 . S
C463 C462 1.369 . S
C463 C472 1.429 . S
C464 C462 1.419 . S
C464 C465 1.363 . S
C464 H467 0.929 . S
C465 C464 1.363 . S
C465 C471 1.428 . S
H466 C462 0.930 . S
H467 C464 0.929 . S
S468 N469 1.613 . S
S468 N470 1.610 . S
N469 S468 1.613 . S
N469 C472 1.350 . S
N470 S468 1.610 . S
N470 C471 1.351 . S
C471 C465 1.428 . S
C471 N470 1.351 . S
C471 C472 1.434 . S
C472 C463 1.429 . S
C472 N469 1.350 . S
C472 C471 1.434 . S
C473 C474 1.369 . S
C473 C475 1.419 . S
C473 H477 0.930 . S
C474 C473 1.369 . S
C474 C483 1.429 . S
C475 C473 1.419 . S
C475 C476 1.363 . S
C475 H478 0.929 . S
C476 C475 1.363 . S
C476 C482 1.428 . S
H477 C473 0.930 . S
H478 C475 0.929 . S
S479 N480 1.613 . S
S479 N481 1.610 . S
N480 S479 1.613 . S
N480 C483 1.350 . S
N481 S479 1.610 . S
N481 C482 1.351 . S
C482 C476 1.428 . S
C482 N481 1.351 . S
C482 C483 1.434 . S
C483 C474 1.429 . S
C483 N480 1.350 . S
C483 C482 1.434 . S
C484 C485 1.369 . S
C484 C486 1.419 . S
C484 H488 0.930 . S
C485 C484 1.369 . S
C485 C494 1.429 . S
C486 C484 1.419 . S
C486 C487 1.363 . S
C486 H489 0.929 . S
C487 C486 1.363 . S
C487 C493 1.428 . S
H488 C484 0.930 . S
H489 C486 0.929 . S
S490 N491 1.613 . S
S490 N492 1.610 . S
N491 S490 1.613 . S
N491 C494 1.350 . S
N492 S490 1.610 . S
N492 C493 1.351 . S
C493 C487 1.428 . S
C493 N492 1.351 . S
C493 C494 1.434 . S
C494 C485 1.429 . S
C494 N491 1.350 . S
C494 C493 1.434 . S
C495 C496 1.369 . S
C495 C497 1.419 . S
C495 H499 0.930 . S
C496 C495 1.369 . S
C496 C505 1.429 . S
C497 C495 1.419 . S
C497 C498 1.363 . S
C497 H500 0.929 . S
C498 C497 1.363 . S
C498 C504 1.428 . S
H499 C495 0.930 . S
H500 C497 0.929 . S
S501 N502 1.613 . S
S501 N503 1.610 . S
N502 S501 1.613 . S
N502 C505 1.350 . S
N503 S501 1.610 . S
N503 C504 1.351 . S
C504 C498 1.428 . S
C504 N503 1.351 . S
C504 C505 1.434 . S
C505 C496 1.429 . S
C505 N502 1.350 . S
C505 C504 1.434 . S
C506 C507 1.369 . S
C506 C508 1.419 . S
C506 H510 0.930 . S
C507 C506 1.369 . S
C507 C516 1.429 . S
C508 C506 1.419 . S
C508 C509 1.363 . S
C508 H511 0.929 . S
C509 C508 1.363 . S
C509 C515 1.428 . S
H510 C506 0.930 . S
H511 C508 0.929 . S
S512 N513 1.613 . S
S512 N514 1.610 . S
N513 S512 1.613 . S
N513 C516 1.350 . S
N514 S512 1.610 . S
N514 C515 1.351 . S
C515 C509 1.428 . S
C515 N514 1.351 . S
C515 C516 1.434 . S
C516 C507 1.429 . S
C516 N513 1.350 . S
C516 C515 1.434 . S
C517 C518 1.369 . S
C517 C519 1.419 . S
C517 H521 0.930 . S
C518 C517 1.369 . S
C518 C527 1.429 . S
C519 C517 1.419 . S
C519 C520 1.363 . S
C519 H522 0.929 . S
C520 C519 1.363 . S
C520 C526 1.428 . S
H521 C517 0.930 . S
H522 C519 0.929 . S
S523 N524 1.613 . S
S523 N525 1.610 . S
N524 S523 1.613 . S
N524 C527 1.350 . S
N525 S523 1.610 . S
N525 C526 1.351 . S
C526 C520 1.428 . S
C526 N525 1.351 . S
C526 C527 1.434 . S
C527 C518 1.429 . S
C527 N524 1.350 . S
C527 C526 1.434 . S
C528 C529 1.369 . S
C528 C530 1.419 1_565 S
C528 H532 0.930 . S
C529 C528 1.369 . S
C529 C538 1.429 . S
C530 C528 1.419 1_545 S
C530 C531 1.363 . S
C530 H533 0.929 . S
C531 C530 1.363 . S
C531 C537 1.428 . S
H532 C528 0.930 . S
H533 C530 0.929 . S
S534 N535 1.613 1_545 S
S534 N536 1.610 . S
N535 S534 1.613 1_565 S
N535 C538 1.350 . S
N536 S534 1.610 . S
N536 C537 1.351 . S
C537 C531 1.428 . S
C537 N536 1.351 . S
C537 C538 1.434 1_545 S
C538 C529 1.429 . S
C538 N535 1.350 . S
C538 C537 1.434 1_565 S
C539 C540 1.369 . S
C539 C541 1.419 1_455 S
C539 H543 0.930 . S
C540 C539 1.369 . S
C540 C549 1.429 . S
C541 C539 1.419 1_655 S
C541 C542 1.363 . S
C541 H544 0.929 . S
C542 C541 1.363 . S
C542 C548 1.428 . S
H543 C539 0.930 . S
H544 C541 0.929 . S
S545 N546 1.613 1_655 S
S545 N547 1.610 . S
N546 S545 1.613 1_455 S
N546 C549 1.350 . S
N547 S545 1.610 . S
N547 C548 1.351 . S
C548 C542 1.428 . S
C548 N547 1.351 . S
C548 C549 1.434 1_655 S
C549 C540 1.429 . S
C549 N546 1.350 . S
C549 C548 1.434 1_455 S
C550 C551 1.369 . S
C550 C552 1.419 1_545 S
C550 H554 0.930 . S
C551 C550 1.369 . S
C551 C560 1.429 . S
C552 C550 1.419 1_565 S
C552 C553 1.363 . S
C552 H555 0.929 . S
C553 C552 1.363 . S
C553 C559 1.428 . S
H554 C550 0.930 . S
H555 C552 0.929 . S
S556 N557 1.613 1_565 S
S556 N558 1.610 . S
N557 S556 1.613 1_545 S
N557 C560 1.350 . S
N558 S556 1.610 . S
N558 C559 1.351 . S
C559 C553 1.428 . S
C559 N558 1.351 . S
C559 C560 1.434 1_565 S
C560 C551 1.429 . S
C560 N557 1.350 . S
C560 C559 1.434 1_545 S
C561 C562 1.369 . S
C561 C563 1.419 1_455 S
C561 H565 0.930 . S
C562 C561 1.369 . S
C562 C571 1.429 . S
C563 C561 1.419 1_655 S
C563 C564 1.363 . S
C563 H566 0.929 . S
C564 C563 1.363 . S
C564 C570 1.428 . S
H565 C561 0.930 . S
H566 C563 0.929 . S
S567 N568 1.613 . S
S567 N569 1.610 1_455 S
N568 S567 1.613 . S
N568 C571 1.350 . S
N569 S567 1.610 1_655 S
N569 C570 1.351 . S
C570 C564 1.428 . S
C570 N569 1.351 . S
C570 C571 1.434 1_655 S
C571 C562 1.429 . S
C571 N568 1.350 . S
C571 C570 1.434 1_455 S
C572 C573 1.369 . S
C572 C574 1.419 1_556 S
C572 H576 0.930 . S
C573 C572 1.369 . S
C573 C582 1.429 . S
C574 C572 1.419 1_554 S
C574 C575 1.363 . S
C574 H577 0.929 . S
C575 C574 1.363 . S
C575 C581 1.428 . S
H576 C572 0.930 . S
H577 C574 0.929 . S
S578 N579 1.613 . S
S578 N580 1.610 1_556 S
N579 S578 1.613 . S
N579 C582 1.350 . S
N580 S578 1.610 1_554 S
N580 C581 1.351 . S
C581 C575 1.428 . S
C581 N580 1.351 . S
C581 C582 1.434 1_554 S
C582 C573 1.429 . S
C582 N579 1.350 . S
C582 C581 1.434 1_556 S
C583 C584 1.369 . S
C583 C585 1.419 1_556 S
C583 H587 0.930 . S
C584 C583 1.369 . S
C584 C593 1.429 . S
C585 C583 1.419 1_554 S
C585 C586 1.363 . S
C585 H588 0.929 . S
C586 C585 1.363 . S
C586 C592 1.428 . S
H587 C583 0.930 . S
H588 C585 0.929 . S
S589 N590 1.613 1_554 S
S589 N591 1.610 . S
N590 S589 1.613 1_556 S
N590 C593 1.350 . S
N591 S589 1.610 . S
N591 C592 1.351 . S
C592 C586 1.428 . S
C592 N591 1.351 . S
C592 C593 1.434 1_554 S
C593 C584 1.429 . S
C593 N590 1.350 . S
C593 C592 1.434 1_556 S
C594 C595 1.369 . S
C594 C596 1.419 1_554 S
C594 H598 0.930 . S
C595 C594 1.369 . S
C595 C604 1.429 . S
C596 C594 1.419 1_556 S
C596 C597 1.363 . S
C596 H599 0.929 . S
C597 C596 1.363 . S
C597 C603 1.428 . S
H598 C594 0.930 . S
H599 C596 0.929 . S
S600 N601 1.613 1_556 S
S600 N602 1.610 . S
N601 S600 1.613 1_554 S
N601 C604 1.350 . S
N602 S600 1.610 . S
N602 C603 1.351 . S
C603 C597 1.428 . S
C603 N602 1.351 . S
C603 C604 1.434 1_556 S
C604 C595 1.429 . S
C604 N601 1.350 . S
C604 C603 1.434 1_554 S
C605 C606 1.369 . S
C605 C607 1.419 1_556 S
C605 H609 0.930 . S
C606 C605 1.369 . S
C606 C615 1.429 . S
C607 C605 1.419 1_554 S
C607 C608 1.363 . S
C607 H610 0.929 . S
C608 C607 1.363 . S
C608 C614 1.428 . S
H609 C605 0.930 . S
H610 C607 0.929 . S
S611 N612 1.603 1_554 S
S611 N613 1.621 . S
N612 S611 1.603 1_556 S
N612 C615 1.350 . S
N613 S611 1.621 . S
N613 C614 1.351 . S
C614 C608 1.428 . S
C614 N613 1.351 . S
C614 C615 1.434 1_554 S
C615 C606 1.429 . S
C615 N612 1.350 . S
C615 C614 1.434 1_556 S
C616 C617 1.369 . S
C616 C618 1.419 1_455 S
C616 H620 0.930 . S
C617 C616 1.369 . S
C617 C626 1.429 . S
C618 C616 1.419 1_655 S
C618 C619 1.363 . S
C618 H621 0.929 . S
C619 C618 1.363 . S
C619 C625 1.428 . S
H620 C616 0.930 . S
H621 C618 0.929 . S
S622 N623 1.613 . S
S622 N624 1.610 1_455 S
N623 S622 1.613 . S
N623 C626 1.350 . S
N624 S622 1.610 1_655 S
N624 C625 1.351 . S
C625 C619 1.428 . S
C625 N624 1.351 . S
C625 C626 1.434 1_655 S
C626 C617 1.429 . S
C626 N623 1.350 . S
C626 C625 1.434 1_455 S
C627 C628 1.369 . S
C627 C629 1.419 1_655 S
C627 H631 0.930 . S
C628 C627 1.369 . S
C628 C637 1.429 . S
C629 C627 1.419 1_455 S
C629 C630 1.363 . S
C629 H632 0.929 . S
C630 C629 1.363 . S
C630 C636 1.428 . S
H631 C627 0.930 . S
H632 C629 0.929 . S
S633 N634 1.622 . S
S633 N635 1.602 1_655 S
N634 S633 1.622 . S
N634 C637 1.350 . S
N635 S633 1.602 1_455 S
N635 C636 1.351 . S
C636 C630 1.428 . S
C636 N635 1.351 . S
C636 C637 1.434 1_455 S
C637 C628 1.429 . S
C637 N634 1.350 . S
C637 C636 1.434 1_655 S
C638 C639 1.369 . S
C638 C640 1.419 1_545 S
C638 H642 0.930 . S
C639 C638 1.369 . S
C639 C648 1.429 . S
C640 C638 1.419 1_565 S
C640 C641 1.363 . S
C640 H643 0.929 . S
C641 C640 1.363 . S
C641 C647 1.428 . S
H642 C638 0.930 . S
H643 C640 0.929 . S
S644 N645 1.609 1_565 S
S644 N646 1.615 . S
N645 S644 1.609 1_545 S
N645 C648 1.350 . S
N646 S644 1.615 . S
N646 C647 1.351 . S
C647 C641 1.428 . S
C647 N646 1.351 . S
C647 C648 1.434 1_565 S
C648 C639 1.429 . S
C648 N645 1.350 . S
C648 C647 1.434 1_545 S
C649 C650 1.369 . S
C649 C651 1.419 1_565 S
C649 H653 0.930 . S
C650 C649 1.369 . S
C650 C659 1.429 . S
C651 C649 1.419 1_545 S
C651 C652 1.363 . S
C651 H654 0.929 . S
C652 C651 1.363 . S
C652 C658 1.428 . S
H653 C649 0.930 . S
H654 C651 0.929 . S
S655 N656 1.614 1_545 S
S655 N657 1.610 . S
N656 S655 1.614 1_565 S
N656 C659 1.350 . S
N657 S655 1.610 . S
N657 C658 1.351 . S
C658 C652 1.428 . S
C658 N657 1.351 . S
C658 C659 1.434 1_545 S
C659 C650 1.429 . S
C659 N656 1.350 . S
C659 C658 1.434 1_565 S
C265 C15 1.452 . S
C267 C164 1.475 . S
C276 C95 1.486 . S
C278 C30 1.502 . S
C287 C54 1.424 . S
C289 C120 1.425 . S
C298 C84 1.493 . S
C300 C147 1.473 . S
C309 C81 1.522 . S
C311 C205 1.524 . S
C320 C18 1.433 . S
C322 C238 1.434 . S
C331 C249 1.532 . S
C333 C29 1.529 . S
C342 C65 1.462 . S
C344 C184 1.485 . S
C353 C103 1.486 . S
C355 C10 1.508 . S
C364 C128 1.483 . S
C366 C43 1.463 . S
C375 C153 1.531 . S
C377 C59 1.534 . S
C386 C73 1.461 . S
C388 C172 1.477 . S
C397 C76 1.428 . S
C399 C186 1.426 . S
C408 C7 1.525 . S
C410 C213 1.525 . S
C419 C228 1.433 . S
C421 C40 1.434 . S
C430 C257 1.471 . S
C432 C52 1.493 . S
C441 C98 1.490 . S
C443 C169 1.471 . S
C452 C216 1.497 . S
C454 C191 1.478 . S
C463 C208 1.489 . S
C465 C227 1.465 . S
C474 C260 1.480 . S
C476 C241 1.460 . S
C485 C252 1.491 . S
C487 C197 1.471 . S
C496 C140 1.491 . S
C498 C125 1.468 . S
C507 C142 1.495 . S
C509 C161 1.477 . S
C518 C106 1.483 . S
C520 C117 1.466 . S
C529 C74 1.474 . S
C531 C8 1.474 . S
C540 C21 1.536 . S
C542 C37 1.536 . S
C551 C32 1.517 . S
C553 C51 1.515 . S
C562 C87 1.492 . S
C564 C62 1.494 . S
C573 C235 1.483 . S
C575 C96 1.488 . S
C584 C250 1.504 . S
C586 C131 1.501 . S
C595 C150 1.508 . S
C597 C183 1.504 . S
C606 C206 1.523 . S
C608 C175 1.522 . S
C617 C162 1.430 . S
C619 C118 1.430 . S
C628 C263 1.554 . S
C630 C219 1.554 . S
C639 C230 1.456 . S
C641 C194 1.456 . S
C650 C139 1.580 . S
C652 C109 1.580 . S
