# Generated by pormake.
# Topology umb, (4)-cn, num edge types: 1
# Building blocks:
#     Node 0, Type 0, BuildingBlock: CEKHIL_clean_sbu_0, # of connection points: 4
#     Node 1, Type 0, BuildingBlock: CEKHIL_clean_sbu_0, # of connection points: 4
#     Node 2, Type 0, BuildingBlock: CEKHIL_clean_sbu_0, # of connection points: 4
#     Node 3, Type 0, BuildingBlock: CEKHIL_clean_sbu_0, # of connection points: 4
#     Node 4, Type 0, BuildingBlock: CEKHIL_clean_sbu_0, # of connection points: 4
#     Node 5, Type 0, BuildingBlock: CEKHIL_clean_sbu_0, # of connection points: 4
#     Node 6, Type 0, BuildingBlock: CEKHIL_clean_sbu_0, # of connection points: 4
#     Node 7, Type 0, BuildingBlock: CEKHIL_clean_sbu_0, # of connection points: 4
#     Node 8, Type 0, BuildingBlock: CEKHIL_clean_sbu_0, # of connection points: 4
#     Node 9, Type 0, BuildingBlock: CEKHIL_clean_sbu_0, # of connection points: 4
#     Node 10, Type 0, BuildingBlock: CEKHIL_clean_sbu_0, # of connection points: 4
#     Node 11, Type 0, BuildingBlock: CEKHIL_clean_sbu_0, # of connection points: 4
#     Edge 12, Type (0, 0), BuildingBlock: KIFKEQ_clean_linker_1, # of connection points: 2
#     Edge 13, Type (0, 0), BuildingBlock: KIFKEQ_clean_linker_1, # of connection points: 2
#     Edge 14, Type (0, 0), BuildingBlock: KIFKEQ_clean_linker_1, # of connection points: 2
#     Edge 15, Type (0, 0), BuildingBlock: KIFKEQ_clean_linker_1, # of connection points: 2
#     Edge 16, Type (0, 0), BuildingBlock: KIFKEQ_clean_linker_1, # of connection points: 2
#     Edge 17, Type (0, 0), BuildingBlock: KIFKEQ_clean_linker_1, # of connection points: 2
#     Edge 18, Type (0, 0), BuildingBlock: KIFKEQ_clean_linker_1, # of connection points: 2
#     Edge 19, Type (0, 0), BuildingBlock: KIFKEQ_clean_linker_1, # of connection points: 2
#     Edge 20, Type (0, 0), BuildingBlock: KIFKEQ_clean_linker_1, # of connection points: 2
#     Edge 21, Type (0, 0), BuildingBlock: KIFKEQ_clean_linker_1, # of connection points: 2
#     Edge 22, Type (0, 0), BuildingBlock: KIFKEQ_clean_linker_1, # of connection points: 2
#     Edge 23, Type (0, 0), BuildingBlock: KIFKEQ_clean_linker_1, # of connection points: 2
#     Edge 24, Type (0, 0), BuildingBlock: KIFKEQ_clean_linker_1, # of connection points: 2
#     Edge 25, Type (0, 0), BuildingBlock: KIFKEQ_clean_linker_1, # of connection points: 2
#     Edge 26, Type (0, 0), BuildingBlock: KIFKEQ_clean_linker_1, # of connection points: 2
#     Edge 27, Type (0, 0), BuildingBlock: KIFKEQ_clean_linker_1, # of connection points: 2
#     Edge 28, Type (0, 0), BuildingBlock: KIFKEQ_clean_linker_1, # of connection points: 2
#     Edge 29, Type (0, 0), BuildingBlock: KIFKEQ_clean_linker_1, # of connection points: 2
#     Edge 30, Type (0, 0), BuildingBlock: KIFKEQ_clean_linker_1, # of connection points: 2
#     Edge 31, Type (0, 0), BuildingBlock: KIFKEQ_clean_linker_1, # of connection points: 2
#     Edge 32, Type (0, 0), BuildingBlock: KIFKEQ_clean_linker_1, # of connection points: 2
#     Edge 33, Type (0, 0), BuildingBlock: KIFKEQ_clean_linker_1, # of connection points: 2
#     Edge 34, Type (0, 0), BuildingBlock: KIFKEQ_clean_linker_1, # of connection points: 2
#     Edge 35, Type (0, 0), BuildingBlock: KIFKEQ_clean_linker_1, # of connection points: 2
# Relax obj value: 0.273
# Max RMSD: 0.248
# Mean RMSD: 0.248
data_MOF--net-umb--node1-CEKHIL_clean_sbu_0--edge1-KIFKEQ_clean_linker_1
_symmetry_space_group_name_H-M    P1
_symmetry_Int_Tables_number       1
_symmetry_cell_setting            triclinic
loop_
_symmetry_equiv_pos_as_xyz
'x, y, z'
_cell_length_a     48.027021
_cell_length_b     48.048576
_cell_length_c     36.899095
_cell_angle_alpha  90.102011
_cell_angle_beta   89.885024
_cell_angle_gamma 120.00526
loop_
_atom_site_label
_atom_site_type_symbol
_atom_site_fract_x
_atom_site_fract_y
_atom_site_fract_z
_atom_type_partial_charge
Co0 Co 0.50606 0.15218 0.32484 0.0
O1 O 0.4725 0.10825 0.32184 0.0
O2 O 0.52481 0.12511 0.32115 0.0
C3 C 0.48651 0.17204 0.28258 0.0
O4 O 0.54707 0.19527 0.32639 0.0
Co5 Co 0.49106 0.20217 0.35517 0.0
O6 O 0.53263 0.23276 0.33254 0.0
C7 C 0.5084 0.16656 0.40649 0.0
C8 C 0.49535 0.10136 0.31966 0.0
C9 C 0.55377 0.22468 0.32682 0.0
O10 O 0.50804 0.14959 0.37936 0.0
O11 O 0.50113 0.18872 0.40324 0.0
O12 O 0.50239 0.15782 0.27371 0.0
O13 O 0.47889 0.17014 0.31681 0.0
Co14 Co 0.36248 0.51804 0.65309 0.0
O15 O 0.37599 0.48692 0.65766 0.0
O16 O 0.40829 0.53902 0.647 0.0
C17 C 0.32117 0.49081 0.61429 0.0
O18 O 0.35662 0.5565 0.6459 0.0
Co19 Co 0.29741 0.50208 0.68537 0.0
O20 O 0.30422 0.53907 0.65526 0.0
C21 C 0.35265 0.52659 0.73446 0.0
C22 C 0.40485 0.51066 0.65191 0.0
C23 C 0.3321 0.56047 0.64476 0.0
O24 O 0.3694 0.52792 0.70666 0.0
O25 O 0.32219 0.51514 0.73267 0.0
O26 O 0.3507 0.50615 0.60313 0.0
O27 O 0.31768 0.48806 0.64941 0.0
Co28 Co 0.82454 0.36512 0.98349 0.0
O29 O 0.8687 0.38434 0.96956 0.0
O30 O 0.84327 0.41118 0.98176 0.0
C31 C 0.80442 0.32605 0.94038 0.0
O32 O 0.77936 0.35357 0.9981 0.0
Co33 Co 0.79181 0.29767 1.0153 0.0
O34 O 0.75438 0.30364 0.02138 0.0
C35 C 0.82554 0.35247 0.06484 0.0
C36 C 0.86979 0.41174 0.97297 0.0
C37 C 0.75518 0.32978 1.01349 0.0
O38 O 0.83644 0.37017 0.03651 0.0
O39 O 0.80754 0.32191 0.06273 0.0
O40 O 0.81095 0.35516 0.9336 0.0
O41 O 0.81401 0.32199 0.97195 0.0
Co42 Co 0.45705 0.83293 0.32837 0.0
O43 O 0.48209 0.87601 0.31132 0.0
O44 O 0.42981 0.85157 0.32345 0.0
C45 C 0.47575 0.81081 0.28754 0.0
O46 O 0.42337 0.78861 0.34554 0.0
Co47 Co 0.49149 0.80233 0.36448 0.0
O48 O 0.44846 0.76472 0.37108 0.0
C49 C 0.47026 0.83826 0.41001 0.0
C50 C 0.45579 0.87728 0.31284 0.0
C51 C 0.42306 0.76506 0.36232 0.0
O52 O 0.46414 0.84802 0.38037 0.0
O53 O 0.48247 0.81991 0.41021 0.0
O54 O 0.45291 0.81668 0.27986 0.0
O55 O 0.48982 0.82191 0.31871 0.0
Co56 Co 0.63621 0.469 0.66758 0.0
O57 O 0.62284 0.49961 0.65754 0.0
O58 O 0.59005 0.44732 0.66608 0.0
C59 C 0.67392 0.48473 0.62305 0.0
O60 O 0.64087 0.43017 0.67815 0.0
Co61 Co 0.70386 0.49308 0.69634 0.0
O62 O 0.69019 0.44725 0.70106 0.0
C63 C 0.65106 0.47578 0.74846 0.0
C64 C 0.59369 0.47552 0.65947 0.0
C65 C 0.66212 0.42499 0.69263 0.0
O66 O 0.63372 0.47488 0.72156 0.0
O67 O 0.68041 0.48299 0.7445 0.0
O68 O 0.64365 0.46566 0.61675 0.0
O69 O 0.68063 0.49728 0.65542 0.0
Co70 Co 0.14664 0.63222 0.99996 0.0
O71 O 0.10325 0.62358 1.00611 0.0
O72 O 0.11765 0.58681 0.99706 0.0
C73 C 0.16305 0.67237 0.95868 0.0
O74 O 0.18801 0.63184 0.9908 0.0
Co75 Co 0.2038 0.69619 0.02489 0.0
O76 O 0.22778 0.68321 0.99184 0.0
C77 C 0.17214 0.64396 0.0784 0.0
C78 C 0.09482 0.59356 1.00153 0.0
C79 C 0.21722 0.65368 0.98471 0.0
O80 O 0.1513 0.62744 0.05389 0.0
O81 O 0.19508 0.67269 0.07272 0.0
O82 O 0.14573 0.64248 0.94935 0.0
O83 O 0.16618 0.67749 0.99352 0.0
Co84 Co 0.83191 0.46173 0.38237 0.0
O85 O 0.87676 0.49266 0.38195 0.0
O86 O 0.85592 0.43982 0.3872 0.0
C87 C 0.81618 0.48659 0.42278 0.0
O88 O 0.78714 0.42311 0.38439 0.0
Co89 Co 0.78522 0.48058 0.35 0.0
O90 O 0.75286 0.44138 0.37549 0.0
C91 C 0.81836 0.45914 0.30012 0.0
C92 C 0.88125 0.46829 0.38523 0.0
C93 C 0.75862 0.41905 0.38387 0.0
O94 O 0.83239 0.45618 0.32818 0.0
O95 O 0.79905 0.47023 0.30217 0.0
O96 O 0.82894 0.46972 0.43312 0.0
O97 O 0.8174 0.49187 0.38798 0.0
Co98 Co 0.35776 0.82705 0.71978 0.0
O99 O 0.37331 0.87015 0.73548 0.0
O100 O 0.40395 0.84852 0.72488 0.0
C101 C 0.31701 0.80341 0.76066 0.0
O102 O 0.34981 0.7833 0.70363 0.0
Co103 Co 0.29287 0.79303 0.68341 0.0
O104 O 0.30085 0.75692 0.678 0.0
C105 C 0.34922 0.83151 0.63785 0.0
C106 C 0.40183 0.87361 0.73393 0.0
C107 C 0.3273 0.75888 0.68704 0.0
O108 O 0.36504 0.84129 0.66753 0.0
O109 O 0.31884 0.81212 0.63757 0.0
O110 O 0.3463 0.8113 0.76853 0.0
O111 O 0.31329 0.81359 0.72924 0.0
Co112 Co 0.5122 0.35919 0.04978 0.0
O113 O 0.48041 0.37192 0.04487 0.0
O114 O 0.53231 0.40481 0.05609 0.0
C115 C 0.48504 0.31769 0.08846 0.0
O116 O 0.55141 0.35457 0.05778 0.0
Co117 Co 0.49937 0.29484 0.01896 0.0
O118 O 0.5349 0.30215 0.05175 0.0
C119 C 0.52423 0.3501 0.96949 0.0
C120 C 0.50376 0.40088 0.05121 0.0
C121 C 0.55588 0.33049 0.06122 0.0
O122 O 0.52237 0.36632 0.99616 0.0
O123 O 0.51557 0.32028 0.97235 0.0
O124 O 0.4999 0.34719 0.09962 0.0
O125 O 0.48294 0.31413 0.05332 0.0
Co126 Co 0.15617 0.51391 0.38376 0.0
O127 O 0.11186 0.48156 0.37829 0.0
O128 O 0.13013 0.53352 0.38831 0.0
C129 C 0.17088 0.48808 0.42375 0.0
O130 O 0.19932 0.55371 0.39223 0.0
Co131 Co 0.20928 0.50252 0.35529 0.0
O132 O 0.23658 0.53883 0.38782 0.0
C133 C 0.17818 0.52489 0.30372 0.0
C134 C 0.10582 0.50481 0.38339 0.0
C135 C 0.2281 0.55914 0.39665 0.0
O136 O 0.1598 0.52325 0.32995 0.0
O137 O 0.1998 0.51694 0.30758 0.0
O138 O 0.15546 0.50246 0.43395 0.0
O139 O 0.17281 0.48547 0.38874 0.0
Co140 Co 0.62518 0.14985 0.71401 0.0
O141 O 0.61445 0.10584 0.70828 0.0
O142 O 0.58029 0.12244 0.72354 0.0
C143 C 0.66917 0.16688 0.74966 0.0
O144 O 0.62775 0.19245 0.72364 0.0
Co145 Co 0.68723 0.20296 0.67915 0.0
O146 O 0.67875 0.23054 0.71205 0.0
C147 C 0.63003 0.16878 0.63304 0.0
C148 C 0.58555 0.09878 0.71763 0.0
C149 C 0.6509 0.22163 0.72489 0.0
O150 O 0.61487 0.15247 0.66124 0.0
O151 O 0.66019 0.18928 0.63355 0.0
O152 O 0.64037 0.15056 0.76274 0.0
O153 O 0.67067 0.16811 0.71436 0.0
Co154 Co 0.46061 0.63117 0.04747 0.0
O155 O 0.49109 0.61749 0.05647 0.0
O156 O 0.43835 0.58507 0.0513 0.0
C157 C 0.47903 0.67084 0.08978 0.0
O158 O 0.42201 0.63651 0.03833 0.0
Co159 Co 0.48565 0.69768 1.01443 0.0
O160 O 0.43968 0.68417 1.01065 0.0
C161 C 0.46759 0.64319 0.96517 0.0
C162 C 0.4667 0.58846 0.05621 0.0
C163 C 0.41717 0.65719 0.02182 0.0
O164 O 0.46362 0.62613 0.9935 0.0
O165 O 0.47767 0.67337 0.9671 0.0
O166 O 0.46 0.641 0.09813 0.0
O167 O 0.48999 0.67581 0.05668 0.0
H168 H 0.50598 0.18927 0.47486 0.0
H169 H 0.54329 0.1365 0.41728 0.0
H170 H 0.53425 0.18805 0.52973 0.0
H171 H 0.57191 0.13613 0.47153 0.0
H172 H 0.65117 0.18403 0.56238 0.0
H173 H 0.61976 0.18137 0.50881 0.0
H174 H 0.53444 0.14517 0.57477 0.0
H175 H 0.56545 0.147 0.62811 0.0
C176 C 0.51981 0.17711 0.47392 0.0
C177 C 0.52203 0.16283 0.44148 0.0
C178 C 0.53608 0.17646 0.50536 0.0
C179 C 0.55559 0.16223 0.50492 0.0
C180 C 0.55737 0.14755 0.47274 0.0
C181 C 0.54062 0.14754 0.44166 0.0
C182 C 0.62567 0.1752 0.56544 0.0
C183 C 0.61092 0.16551 0.59966 0.0
C184 C 0.60765 0.17366 0.53472 0.0
C185 C 0.57458 0.16316 0.53753 0.0
C186 C 0.55986 0.15356 0.5717 0.0
C187 C 0.57767 0.15437 0.60222 0.0
H188 H 0.41702 0.56847 0.74256 0.0
H189 H 0.32878 0.52006 0.80419 0.0
H190 H 0.44625 0.59648 0.79706 0.0
H191 H 0.3585 0.5479 0.85913 0.0
H192 H 0.43103 0.57826 0.95438 0.0
H193 H 0.40362 0.54974 0.89939 0.0
H194 H 0.44708 0.63927 0.84067 0.0
H195 H 0.47425 0.6683 0.89614 0.0
C196 C 0.40381 0.56345 0.7678 0.0
C197 C 0.37038 0.54173 0.76881 0.0
C198 C 0.42065 0.57981 0.79903 0.0
C199 C 0.40478 0.57455 0.83245 0.0
C200 C 0.3715 0.55238 0.8338 0.0
C201 C 0.35444 0.53643 0.80231 0.0
C202 C 0.43526 0.59205 0.92974 0.0
C203 C 0.45516 0.6258 0.92994 0.0
C204 C 0.41916 0.57558 0.89823 0.0
C205 C 0.42287 0.59218 0.86569 0.0
C206 C 0.44373 0.62573 0.86532 0.0
C207 C 0.45941 0.64238 0.89711 0.0
H208 H 0.84438 0.42046 0.29 0.0
H209 H 0.80186 0.46727 0.23057 0.0
H210 H 0.84835 0.39536 0.23438 0.0
H211 H 0.80644 0.44228 0.17446 0.0
H212 H 0.85099 0.41693 0.07733 0.0
H213 H 0.85042 0.44351 0.13334 0.0
H214 H 0.80909 0.35296 0.18985 0.0
H215 H 0.809 0.3259 0.13345 0.0
C216 C 0.83617 0.42578 0.26503 0.0
C217 C 0.82286 0.44615 0.265 0.0
C218 C 0.83826 0.41108 0.23311 0.0
C219 C 0.82764 0.41665 0.19994 0.0
C220 C 0.81502 0.43759 0.19956 0.0
C221 C 0.81236 0.45191 0.23173 0.0
C222 C 0.84217 0.40255 0.1017 0.0
C223 C 0.83013 0.36906 0.1006 0.0
C224 C 0.84156 0.41788 0.13381 0.0
C225 C 0.82943 0.40039 0.16605 0.0
C226 C 0.81866 0.36719 0.16549 0.0
C227 C 0.81873 0.35167 0.13314 0.0
H228 H 0.43137 0.8645 0.41762 0.0
H229 H 0.47899 0.82477 0.4806 0.0
H230 H 0.40299 0.86615 0.47162 0.0
H231 H 0.45082 0.82715 0.53495 0.0
H232 H 0.41473 0.86281 0.63027 0.0
H233 H 0.44602 0.86785 0.57623 0.0
H234 H 0.35914 0.82282 0.51262 0.0
H235 H 0.32733 0.81703 0.56708 0.0
C236 C 0.43641 0.85671 0.44308 0.0
C237 C 0.45775 0.84454 0.44449 0.0
C238 C 0.41978 0.8574 0.47403 0.0
C239 C 0.42436 0.84655 0.50758 0.0
C240 C 0.44679 0.8358 0.50953 0.0
C241 C 0.46304 0.83453 0.47835 0.0
C242 C 0.40209 0.85434 0.60478 0.0
C243 C 0.36823 0.83947 0.60333 0.0
C244 C 0.42018 0.85702 0.57378 0.0
C245 C 0.40515 0.8455 0.54013 0.0
C246 C 0.37152 0.83204 0.53813 0.0
C247 C 0.35325 0.8288 0.56938 0.0
H248 H 0.55362 0.3338 0.91613 0.0
H249 H 0.53161 0.4076 0.94603 0.0
H250 H 0.58512 0.36642 0.86455 0.0
H251 H 0.5628 0.43997 0.89429 0.0
H252 H 0.59429 0.46997 0.77306 0.0
H253 H 0.56261 0.43962 0.82564 0.0
H254 H 0.63731 0.41913 0.85557 0.0
H255 H 0.6692 0.44977 0.80332 0.0
C256 C 0.55502 0.3567 0.91143 0.0
C257 C 0.53989 0.36791 0.93534 0.0
C258 C 0.57342 0.37561 0.88206 0.0
C259 C 0.57679 0.40602 0.87539 0.0
C260 C 0.56071 0.41669 0.89851 0.0
C261 C 0.54279 0.39807 0.92822 0.0
C262 C 0.60433 0.45962 0.79127 0.0
C263 C 0.63455 0.46269 0.78395 0.0
C264 C 0.58606 0.44208 0.8214 0.0
C265 C 0.59718 0.42656 0.84467 0.0
C266 C 0.62778 0.43039 0.83797 0.0
C267 C 0.64631 0.44841 0.80824 0.0
H268 H 0.12786 0.53163 0.27975 0.0
H269 H 0.22298 0.55189 0.24895 0.0
H270 H 0.12574 0.56053 0.22648 0.0
H271 H 0.22083 0.58098 0.19558 0.0
H272 H 0.21997 0.66226 0.12932 0.0
H273 H 0.22075 0.63217 0.18228 0.0
H274 H 0.12356 0.55776 0.15911 0.0
H275 H 0.12273 0.5877 0.10608 0.0
C276 C 0.14822 0.54192 0.26142 0.0
C277 C 0.17557 0.53923 0.26878 0.0
C278 C 0.14696 0.55852 0.23077 0.0
C279 C 0.17319 0.57337 0.20676 0.0
C280 C 0.20033 0.57021 0.21369 0.0
C281 C 0.20142 0.55318 0.24412 0.0
C282 C 0.19856 0.63971 0.13572 0.0
C283 C 0.17123 0.62761 0.11329 0.0
C284 C 0.19917 0.62223 0.16592 0.0
C285 C 0.17232 0.59234 0.17492 0.0
C286 C 0.14465 0.58072 0.15317 0.0
C287 C 0.14418 0.59796 0.12269 0.0
H288 H 0.69788 0.40121 0.40504 0.0
H289 H 0.75702 0.36345 0.3649 0.0
H290 H 0.64978 0.35084 0.38968 0.0
H291 H 0.70872 0.31316 0.34879 0.0
H292 H 0.60505 0.21996 0.35033 0.0
H293 H 0.65692 0.26475 0.3695 0.0
H294 H 0.63007 0.33174 0.32694 0.0
H295 H 0.57823 0.28724 0.30841 0.0
C296 C 0.70054 0.38182 0.3938 0.0
C297 C 0.73102 0.38632 0.38555 0.0
C298 C 0.6731 0.35318 0.38464 0.0
C299 C 0.67573 0.32874 0.36684 0.0
C300 C 0.70615 0.33186 0.36213 0.0
C301 C 0.73373 0.36053 0.37158 0.0
C302 C 0.61068 0.24426 0.3441 0.0
C303 C 0.58755 0.25028 0.32839 0.0
C304 C 0.64021 0.26981 0.35534 0.0
C305 C 0.64686 0.30154 0.3508 0.0
C306 C 0.62496 0.30741 0.3319 0.0
C307 C 0.59551 0.282 0.32089 0.0
H308 H 0.30355 0.72348 0.62629 0.0
H309 H 0.36554 0.73807 0.71767 0.0
H310 H 0.31142 0.68019 0.6046 0.0
H311 H 0.37236 0.69348 0.69677 0.0
H312 H 0.38796 0.61823 0.64836 0.0
H313 H 0.39227 0.67105 0.65074 0.0
H314 H 0.29075 0.62704 0.62706 0.0
H315 H 0.28672 0.57486 0.62372 0.0
C316 C 0.31869 0.71718 0.64191 0.0
C317 C 0.33325 0.7334 0.67421 0.0
C318 C 0.32334 0.69254 0.62934 0.0
C319 C 0.34216 0.68318 0.64917 0.0
C320 C 0.35797 0.7004 0.68067 0.0
C321 C 0.35376 0.72557 0.69294 0.0
C322 C 0.36687 0.62009 0.64242 0.0
C323 C 0.33685 0.59246 0.63655 0.0
C324 C 0.36928 0.65025 0.64417 0.0
C325 C 0.34176 0.65309 0.63979 0.0
C326 C 0.31248 0.62576 0.63044 0.0
C327 C 0.31007 0.59575 0.62875 0.0
H328 H 0.57149 0.28653 0.0844 0.0
H329 H 0.61307 0.38698 0.05685 0.0
H330 H 0.62385 0.29119 0.07997 0.0
H331 H 0.66617 0.39205 0.05369 0.0
H332 H 0.73216 0.36658 0.98436 0.0
H333 H 0.68767 0.37253 1.00736 0.0
H334 H 0.67746 0.31151 0.09843 0.0
H335 H 0.72054 0.30432 0.0744 0.0
C336 C 0.59207 0.30991 0.0786 0.0
C337 C 0.58813 0.33615 0.06998 0.0
C338 C 0.62223 0.31269 0.07629 0.0
C339 C 0.64908 0.34186 0.06563 0.0
C340 C 0.64572 0.36907 0.06106 0.0
C341 C 0.61539 0.36625 0.06329 0.0
C342 C 0.72024 0.35447 1.00921 0.0
C343 C 0.72893 0.3342 0.02699 0.0
C344 C 0.69516 0.35825 0.02275 0.0
C345 C 0.67892 0.34232 0.05467 0.0
C346 C 0.68901 0.32353 0.0734 0.0
C347 C 0.71351 0.31924 0.0595 0.0
H348 H 0.41326 0.72986 0.42292 0.0
H349 H 0.36366 0.74153 0.33179 0.0
H350 H 0.36324 0.6843 0.44393 0.0
H351 H 0.31361 0.69487 0.35196 0.0
H352 H 0.2252 0.61454 0.39591 0.0
H353 H 0.27105 0.66911 0.39708 0.0
H354 H 0.33407 0.63122 0.41977 0.0
H355 H 0.2885 0.57718 0.4196 0.0
C356 C 0.3916 0.72249 0.40728 0.0
C357 C 0.39233 0.73849 0.37516 0.0
C358 C 0.36297 0.69658 0.41946 0.0
C359 C 0.33462 0.68579 0.3994 0.0
C360 C 0.33502 0.70286 0.36825 0.0
C361 C 0.36368 0.72924 0.35638 0.0
C362 C 0.24873 0.618 0.40232 0.0
C363 C 0.2535 0.59163 0.40673 0.0
C364 C 0.27496 0.64921 0.40271 0.0
C365 C 0.30617 0.65436 0.40772 0.0
C366 C 0.31033 0.62812 0.41589 0.0
C367 C 0.28422 0.59705 0.41549 0.0
H368 H 0.67696 0.4097 0.75684 0.0
H369 H 0.62421 0.36779 0.65817 0.0
H370 H 0.66434 0.35682 0.77825 0.0
H371 H 0.6128 0.31467 0.67872 0.0
H372 H 0.59438 0.22181 0.71972 0.0
H373 H 0.58871 0.26961 0.72167 0.0
H374 H 0.68766 0.32613 0.75649 0.0
H375 H 0.69296 0.27864 0.75515 0.0
C376 C 0.66273 0.38902 0.7397 0.0
C377 C 0.65246 0.39262 0.70535 0.0
C378 C 0.65529 0.3588 0.75208 0.0
C379 C 0.63807 0.33173 0.72995 0.0
C380 C 0.62591 0.33509 0.69653 0.0
C381 C 0.63281 0.36542 0.68446 0.0
C382 C 0.61442 0.24427 0.72918 0.0
C383 C 0.64433 0.24692 0.73655 0.0
C384 C 0.61126 0.2716 0.72998 0.0
C385 C 0.63789 0.30165 0.7385 0.0
C386 C 0.66661 0.30335 0.74991 0.0
C387 C 0.66979 0.27619 0.7489 0.0
H388 H 0.21486 0.59702 1.00011 0.0
H389 H 0.27361 0.68955 0.94957 0.0
H390 H 0.261 0.58861 1.00134 0.0
H391 H 0.31952 0.68163 0.95144 0.0
H392 H 0.40008 0.66578 0.95555 0.0
H393 H 0.34714 0.65385 0.93508 0.0
H394 H 0.30811 0.61536 0.04092 0.0
H395 H 0.3612 0.62592 0.0607 0.0
C396 C 0.23731 0.61501 0.9881 0.0
C397 C 0.24102 0.64422 0.9754 0.0
C398 C 0.26374 0.61034 0.98915 0.0
C399 C 0.29398 0.63469 0.97719 0.0
C400 C 0.29657 0.66228 0.96078 0.0
C401 C 0.27031 0.66698 0.95989 0.0
C402 C 0.38004 0.65454 0.9743 0.0
C403 C 0.38458 0.64771 1.01003 0.0
C404 C 0.34977 0.64751 0.96251 0.0
C405 C 0.32362 0.63421 0.98653 0.0
C406 C 0.32778 0.6254 0.02166 0.0
C407 C 0.35812 0.63183 0.03323 0.0
H408 H 0.5371 0.07865 0.32226 0.0
H409 H 0.4368 0.04881 0.30685 0.0
H410 H 0.52454 0.02315 0.31566 0.0
H411 H 0.42434 0.99337 0.29916 0.0
H412 H 0.41402 0.89597 0.33733 0.0
H413 H 0.42213 0.95035 0.33559 0.0
H414 H 0.50777 0.98134 0.27079 0.0
H415 H 0.50019 0.92741 0.27359 0.0
C416 C 0.51243 0.06025 0.31715 0.0
C417 C 0.48792 0.06796 0.31518 0.0
C418 C 0.50524 0.02851 0.31307 0.0
C419 C 0.47345 0.00394 0.30663 0.0
C420 C 0.44898 0.01174 0.30441 0.0
C421 C 0.45615 0.04348 0.30873 0.0
C422 C 0.43414 0.91431 0.32211 0.0
C423 C 0.45671 0.90776 0.30598 0.0
C424 C 0.43881 0.94541 0.32108 0.0
C425 C 0.46593 0.97021 0.3036 0.0
C426 C 0.48713 0.96292 0.28527 0.0
C427 C 0.48267 0.93202 0.28665 0.0
H428 H 0.4074 0.45951 0.67882 0.0
H429 H 0.46418 0.54994 0.62334 0.0
H430 H 0.45315 0.45092 0.67888 0.0
H431 H 0.50965 0.54069 0.62167 0.0
H432 H 0.59394 0.53196 0.66394 0.0
H433 H 0.5481 0.54023 0.66083 0.0
H434 H 0.48542 0.43856 0.64149 0.0
H435 H 0.53132 0.43017 0.64648 0.0
C436 C 0.42963 0.47737 0.66626 0.0
C437 C 0.43242 0.50544 0.65121 0.0
C438 C 0.45577 0.47234 0.66602 0.0
C439 C 0.48506 0.49506 0.65019 0.0
C440 C 0.48761 0.52296 0.63464 0.0
C441 C 0.46158 0.52823 0.63543 0.0
C442 C 0.57036 0.51142 0.65889 0.0
C443 C 0.56605 0.48041 0.6556 0.0
C444 C 0.5441 0.51617 0.65685 0.0
C445 C 0.51307 0.49007 0.6509 0.0
C446 C 0.50893 0.4591 0.64677 0.0
C447 C 0.53518 0.45429 0.6494 0.0
H448 H 0.92349 0.42143 0.93802 0.0
H449 H 0.88612 0.4692 1.00484 0.0
H450 H 0.97741 0.46741 0.94392 0.0
H451 H 0.94045 0.51499 1.01195 0.0
H452 H 0.0426 0.60142 0.9942 0.0
H453 H 0.98697 0.55954 0.98353 0.0
H454 H 0.01498 0.48721 0.99304 0.0
H455 H 0.07048 0.52897 1.00246 0.0
C456 C 0.92683 0.442 0.95364 0.0
C457 C 0.90081 0.44177 0.9712 0.0
C458 C 0.95773 0.46819 0.95734 0.0
C459 C 0.96329 0.49448 0.97914 0.0
C460 C 0.93692 0.49509 0.99493 0.0
C461 C 0.90584 0.46894 0.99084 0.0
C462 C 0.03674 0.57653 0.99425 0.0
C463 C 0.06083 0.56839 0.99889 0.0
C464 C 0.00491 0.55257 0.98816 0.0
C465 C -0.00332 0.52012 0.98683 0.0
C466 C 0.02069 0.51205 0.99286 0.0
C467 C 0.05245 0.53594 0.99862 0.0
H468 H 0.08582 0.54564 0.4063 0.0
H469 H 0.05144 0.45057 0.36219 0.0
H470 H 0.03106 0.53588 0.40814 0.0
H471 H -0.00338 0.44118 0.36269 0.0
H472 H 0.89934 0.42449 0.4029 0.0
H473 H 0.95387 0.43291 0.40341 0.0
H474 H 0.99058 0.53066 0.36695 0.0
H475 H 0.93651 0.52261 0.36782 0.0
C476 C 0.06654 0.52275 0.39671 0.0
C477 C 0.07277 0.49887 0.38401 0.0
C478 C 0.0352 0.5172 0.3976 0.0
C479 C 0.00957 0.48782 0.38538 0.0
C480 C 0.01584 0.46389 0.37274 0.0
C481 C 0.0472 0.46933 0.37222 0.0
C482 C 0.91916 0.44776 0.39513 0.0
C483 C 0.91385 0.47296 0.38554 0.0
C484 C 0.95029 0.45253 0.3952 0.0
C485 C 0.9765 0.48248 0.38534 0.0
C486 C 0.97098 0.50751 0.3754 0.0
C487 C 0.93999 0.50285 0.37571 0.0
H488 H 0.53379 0.07771 0.76162 0.0
H489 H 0.58092 0.04484 0.68746 0.0
H490 H 0.49194 0.02252 0.77239 0.0
H491 H 0.53787 0.98948 0.69629 0.0
H492 H 0.40225 0.92968 0.74236 0.0
H493 H 0.44794 0.98333 0.74115 0.0
H494 H 0.51196 0.94445 0.73539 0.0
H495 H 0.46541 0.89004 0.73457 0.0
C496 C 0.53489 0.05859 0.74727 0.0
C497 C 0.5602 0.06538 0.72336 0.0
C498 C 0.51091 0.02696 0.75336 0.0
C499 C 0.51128 0.00151 0.7349 0.0
C500 C 0.53703 0.00839 0.71137 0.0
C501 C 0.56148 0.04008 0.70595 0.0
C502 C 0.42605 0.93244 0.74127 0.0
C503 C 0.43028 0.90566 0.73838 0.0
C504 C 0.45239 0.96335 0.74085 0.0
C505 C 0.48373 0.96833 0.73821 0.0
C506 C 0.48809 0.94146 0.73686 0.0
C507 C 0.46152 0.91033 0.73673 0.0
H508 H 0.4213 0.52564 0.06764 0.0
H509 H 0.52311 0.58886 0.05048 0.0
H510 H 0.42978 0.4796 0.06938 0.0
H511 H 0.53141 0.5431 0.05044 0.0
H512 H 0.54215 0.45904 0.08232 0.0
H513 H 0.53202 0.50369 0.08753 0.0
H514 H 0.44247 0.44868 0.02944 0.0
H515 H 0.45198 0.40349 0.02593 0.0
C516 C 0.44544 0.52963 0.06424 0.0
C517 C 0.47155 0.56071 0.05901 0.0
C518 C 0.45029 0.50332 0.06496 0.0
C519 C 0.48128 0.50767 0.05998 0.0
C520 C 0.50734 0.5389 0.05508 0.0
C521 C 0.50255 0.56515 0.05489 0.0
C522 C 0.52031 0.45656 0.07071 0.0
C523 C 0.4979 0.42799 0.0536 0.0
C524 C 0.51453 0.48214 0.07358 0.0
C525 C 0.48648 0.47981 0.05877 0.0
C526 C 0.46404 0.45108 0.04169 0.0
C527 C 0.4696 0.42531 0.03937 0.0
H528 H 0.5021 0.17697 0.21145 0.0
H529 H 0.45476 0.20686 0.289 0.0
H530 H 0.49481 0.20766 0.16459 0.0
H531 H 0.44618 0.23713 0.24102 0.0
H532 H 0.46813 0.25397 0.07745 0.0
H533 H 0.46122 0.21479 0.12425 0.0
H534 H 0.47595 0.28441 0.2073 0.0
H535 H 0.48143 0.32242 0.16113 0.0
C536 C 0.48963 0.18979 0.21849 0.0
C537 C 0.47923 0.18958 0.25428 0.0
C538 C 0.48509 0.20721 0.19121 0.0
C539 C 0.46978 0.22499 0.19858 0.0
C540 C 0.45846 0.22409 0.23425 0.0
C541 C 0.4632 0.20663 0.26182 0.0
C542 C 0.46913 0.2605 0.10572 0.0
C543 C 0.4757 0.29146 0.11543 0.0
C544 C 0.4655 0.2382 0.13267 0.0
C545 C 0.46843 0.24641 0.16988 0.0
C546 C 0.47317 0.27681 0.17926 0.0
C547 C 0.47665 0.29887 0.15253 0.0
H548 H 0.21119 0.46278 0.41424 0.0
H549 H 0.17011 0.49553 0.49645 0.0
H550 H 0.24286 0.45499 0.46098 0.0
H551 H 0.20247 0.48956 0.54227 0.0
H552 H 0.25608 0.46794 0.62584 0.0
H553 H 0.21572 0.45918 0.57975 0.0
H554 H 0.28787 0.48592 0.4961 0.0
H555 H 0.32695 0.49287 0.54134 0.0
C556 C 0.20875 0.46811 0.44221 0.0
C557 C 0.18827 0.47999 0.4514 0.0
C558 C 0.2271 0.46393 0.46911 0.0
C559 C 0.22564 0.4719 0.50576 0.0
C560 C 0.20413 0.4826 0.51479 0.0
C561 C 0.18569 0.4864 0.48816 0.0
C562 C 0.26296 0.47124 0.59752 0.0
C563 C 0.29482 0.48137 0.58744 0.0
C564 C 0.23995 0.46654 0.57099 0.0
C565 C 0.24838 0.47211 0.53384 0.0
C566 C 0.27998 0.48085 0.52403 0.0
C567 C 0.30268 0.48522 0.5503 0.0
H568 H 0.78913 0.33393 0.87194 0.0
H569 H 0.78544 0.26122 0.9436 0.0
H570 H 0.76261 0.29413 0.8249 0.0
H571 H 0.75905 0.22087 0.89562 0.0
H572 H 0.67094 0.15693 0.82143 0.0
H573 H 0.7077 0.19363 0.86641 0.0
H574 H 0.76556 0.25861 0.78127 0.0
H575 H 0.72797 0.22158 0.73582 0.0
C576 C 0.78293 0.30938 0.87763 0.0
C577 C 0.78928 0.30081 0.91184 0.0
C578 C 0.76797 0.28651 0.85026 0.0
C579 C 0.75872 0.25414 0.85608 0.0
C580 C 0.7656 0.24553 0.89014 0.0
C581 C 0.78078 0.26862 0.91769 0.0
C582 C 0.69184 0.17877 0.8121 0.0
C583 C 0.69616 0.18652 0.77494 0.0
C584 C 0.71314 0.19983 0.83807 0.0
C585 C 0.73951 0.22945 0.82778 0.0
C586 C 0.74515 0.23628 0.79034 0.0
C587 C 0.72378 0.21496 0.76417 0.0
H588 H 0.47295 0.66152 0.16227 0.0
H589 H 0.50594 0.73679 0.08209 0.0
H590 H 0.48094 0.69964 0.20975 0.0
H591 H 0.51453 0.77567 0.13033 0.0
H592 H 0.46937 0.81397 0.21532 0.0
H593 H 0.47851 0.78476 0.1677 0.0
H594 H 0.51629 0.74584 0.24642 0.0
H595 H 0.50654 0.77527 0.29486 0.0
C596 C 0.48243 0.68645 0.15478 0.0
C597 C 0.48841 0.69601 0.11819 0.0
C598 C 0.48737 0.70847 0.18227 0.0
C599 C 0.4983 0.74084 0.17412 0.0
C600 C 0.50576 0.75083 0.13763 0.0
C601 C 0.50101 0.72865 0.10994 0.0
C602 C 0.48009 0.79957 0.22259 0.0
C603 C 0.48688 0.79665 0.25905 0.0
C604 C 0.48567 0.78301 0.19502 0.0
C605 C 0.49802 0.76271 0.20297 0.0
C606 C 0.50643 0.76102 0.2393 0.0
C607 C 0.50108 0.778 0.26707 0.0
H608 H 0.66095 0.46516 0.55315 0.0
H609 H 0.74058 0.52109 0.62516 0.0
H610 H 0.69783 0.47331 0.50426 0.0
H611 H 0.77813 0.52998 0.57528 0.0
H612 H 0.82736 0.49277 0.4948 0.0
H613 H 0.79583 0.49875 0.54226 0.0
H614 H 0.73667 0.50895 0.4613 0.0
H615 H 0.76829 0.50214 0.41327 0.0
C616 C 0.68647 0.47959 0.55853 0.0
C617 C 0.69775 0.49223 0.59337 0.0
C618 C 0.70773 0.4846 0.53012 0.0
C619 C 0.74111 0.50241 0.53547 0.0
C620 C 0.75255 0.51586 0.57014 0.0
C621 C 0.73109 0.51088 0.59877 0.0
C622 C 0.80793 0.4968 0.48696 0.0
C623 C 0.80011 0.49659 0.45016 0.0
C624 C 0.78994 0.50053 0.51437 0.0
C625 C 0.76338 0.50405 0.50591 0.0
C626 C 0.75666 0.50577 0.46893 0.0
C627 C 0.77491 0.50217 0.44131 0.0
H628 H 0.21454 0.73402 0.96698 0.0
H629 H 0.15363 0.66595 0.88595 0.0
H630 H 0.2491 0.76982 0.91884 0.0
H631 H 0.18816 0.70108 0.83823 0.0
H632 H 0.25075 0.77794 0.75557 0.0
H633 H 0.21075 0.751 0.80402 0.0
H634 H 0.28693 0.76737 0.8782 0.0
H635 H 0.32613 0.79408 0.83088 0.0
C636 C 0.20822 0.72692 0.93898 0.0
C637 C 0.18154 0.69694 0.93043 0.0
C638 C 0.22813 0.7473 0.9113 0.0
C639 C 0.22172 0.73823 0.87445 0.0
C640 C 0.19386 0.70911 0.86607 0.0
C641 C 0.17414 0.68879 0.89361 0.0
C642 C 0.25881 0.77598 0.78234 0.0
C643 C 0.29167 0.78808 0.78911 0.0
C644 C 0.23594 0.76049 0.81013 0.0
C645 C 0.24555 0.75712 0.8453 0.0
C646 C 0.27849 0.76995 0.85192 0.0
C647 C 0.30106 0.78505 0.82438 0.0
loop_
_geom_bond_atom_site_label_1
_geom_bond_atom_site_label_2
_geom_bond_distance
_geom_bond_site_symmetry_2
_ccdc_geom_bond_type
Co0 O1 2.216 . S
Co0 O2 2.091 . S
Co0 O4 2.004 . S
Co0 O10 2.021 . S
Co0 O12 2.137 . S
Co0 O13 2.244 . S
O1 Co0 2.216 . S
O1 C8 1.247 . S
O2 Co0 2.091 . S
O2 C8 1.261 . S
C3 O12 1.247 . S
C3 O13 1.272 . S
O4 Co0 2.004 . S
O4 C9 1.259 . S
Co5 O6 2.061 . S
Co5 O11 2.052 . S
Co5 O13 2.135 . S
O6 Co5 2.061 . S
O6 C9 1.235 . S
C7 O10 1.238 . S
C7 O11 1.241 . S
C8 O1 1.247 . S
C8 O2 1.261 . S
C9 O4 1.259 . S
C9 O6 1.235 . S
O10 Co0 2.021 . S
O10 C7 1.238 . S
O11 Co5 2.052 . S
O11 C7 1.241 . S
O12 Co0 2.137 . S
O12 C3 1.247 . S
O13 Co0 2.244 . S
O13 C3 1.272 . S
O13 Co5 2.135 . S
Co14 O15 2.216 . S
Co14 O16 2.091 . S
Co14 O18 2.004 . S
Co14 O24 2.021 . S
Co14 O26 2.137 . S
Co14 O27 2.244 . S
O15 Co14 2.216 . S
O15 C22 1.247 . S
O16 Co14 2.091 . S
O16 C22 1.261 . S
C17 O26 1.247 . S
C17 O27 1.272 . S
O18 Co14 2.004 . S
O18 C23 1.259 . S
Co19 O20 2.061 . S
Co19 O25 2.052 . S
Co19 O27 2.135 . S
O20 Co19 2.061 . S
O20 C23 1.235 . S
C21 O24 1.238 . S
C21 O25 1.241 . S
C22 O15 1.247 . S
C22 O16 1.261 . S
C23 O18 1.259 . S
C23 O20 1.235 . S
O24 Co14 2.021 . S
O24 C21 1.238 . S
O25 Co19 2.052 . S
O25 C21 1.241 . S
O26 Co14 2.137 . S
O26 C17 1.247 . S
O27 Co14 2.244 . S
O27 C17 1.272 . S
O27 Co19 2.135 . S
Co28 O29 2.216 . S
Co28 O30 2.091 . S
Co28 O32 2.004 . S
Co28 O38 2.021 1_556 S
Co28 O40 2.137 . S
Co28 O41 2.244 . S
O29 Co28 2.216 . S
O29 C36 1.247 . S
O30 Co28 2.091 . S
O30 C36 1.261 . S
C31 O40 1.247 . S
C31 O41 1.272 . S
O32 Co28 2.004 . S
O32 C37 1.259 . S
Co33 O34 2.061 . S
Co33 O39 2.052 . S
Co33 O41 2.135 1_554 S
O34 Co33 2.061 . S
O34 C37 1.235 1_554 S
C35 O38 1.238 . S
C35 O39 1.241 . S
C36 O29 1.247 . S
C36 O30 1.261 . S
C37 O32 1.259 . S
C37 O34 1.235 1_556 S
O38 Co28 2.021 1_554 S
O38 C35 1.238 . S
O39 Co33 2.052 . S
O39 C35 1.241 . S
O40 Co28 2.137 . S
O40 C31 1.247 . S
O41 Co28 2.244 . S
O41 C31 1.272 . S
O41 Co33 2.135 1_556 S
Co42 O43 2.216 . S
Co42 O44 2.091 . S
Co42 O46 2.004 . S
Co42 O52 2.021 . S
Co42 O54 2.137 . S
Co42 O55 2.244 . S
O43 Co42 2.216 . S
O43 C50 1.247 . S
O44 Co42 2.091 . S
O44 C50 1.261 . S
C45 O54 1.247 . S
C45 O55 1.272 . S
O46 Co42 2.004 . S
O46 C51 1.259 . S
Co47 O48 2.061 . S
Co47 O53 2.052 . S
Co47 O55 2.135 . S
O48 Co47 2.061 . S
O48 C51 1.235 . S
C49 O52 1.238 . S
C49 O53 1.241 . S
C50 O43 1.247 . S
C50 O44 1.261 . S
C51 O46 1.259 . S
C51 O48 1.235 . S
O52 Co42 2.021 . S
O52 C49 1.238 . S
O53 Co47 2.052 . S
O53 C49 1.241 . S
O54 Co42 2.137 . S
O54 C45 1.247 . S
O55 Co42 2.244 . S
O55 C45 1.272 . S
O55 Co47 2.135 . S
Co56 O57 2.216 . S
Co56 O58 2.091 . S
Co56 O60 2.004 . S
Co56 O66 2.021 . S
Co56 O68 2.137 . S
Co56 O69 2.244 . S
O57 Co56 2.216 . S
O57 C64 1.247 . S
O58 Co56 2.091 . S
O58 C64 1.261 . S
C59 O68 1.247 . S
C59 O69 1.272 . S
O60 Co56 2.004 . S
O60 C65 1.259 . S
Co61 O62 2.061 . S
Co61 O67 2.052 . S
Co61 O69 2.135 . S
O62 Co61 2.061 . S
O62 C65 1.235 . S
C63 O66 1.238 . S
C63 O67 1.241 . S
C64 O57 1.247 . S
C64 O58 1.261 . S
C65 O60 1.259 . S
C65 O62 1.235 . S
O66 Co56 2.021 . S
O66 C63 1.238 . S
O67 Co61 2.052 . S
O67 C63 1.241 . S
O68 Co56 2.137 . S
O68 C59 1.247 . S
O69 Co56 2.244 . S
O69 C59 1.272 . S
O69 Co61 2.135 . S
Co70 O71 2.216 . S
Co70 O72 2.091 . S
Co70 O74 2.004 . S
Co70 O80 2.021 1_556 S
Co70 O82 2.137 . S
Co70 O83 2.244 . S
O71 Co70 2.216 . S
O71 C78 1.247 . S
O72 Co70 2.091 . S
O72 C78 1.261 . S
C73 O82 1.247 . S
C73 O83 1.272 . S
O74 Co70 2.004 . S
O74 C79 1.259 . S
Co75 O76 2.061 . S
Co75 O81 2.052 . S
Co75 O83 2.135 1_554 S
O76 Co75 2.061 . S
O76 C79 1.235 1_554 S
C77 O80 1.238 . S
C77 O81 1.241 . S
C78 O71 1.247 . S
C78 O72 1.261 . S
C79 O74 1.259 . S
C79 O76 1.235 1_556 S
O80 Co70 2.021 1_554 S
O80 C77 1.238 . S
O81 Co75 2.052 . S
O81 C77 1.241 . S
O82 Co70 2.137 . S
O82 C73 1.247 . S
O83 Co70 2.244 . S
O83 C73 1.272 . S
O83 Co75 2.135 1_556 S
Co84 O85 2.216 . S
Co84 O86 2.091 . S
Co84 O88 2.004 . S
Co84 O94 2.021 . S
Co84 O96 2.137 . S
Co84 O97 2.244 . S
O85 Co84 2.216 . S
O85 C92 1.247 . S
O86 Co84 2.091 . S
O86 C92 1.261 . S
C87 O96 1.247 . S
C87 O97 1.272 . S
O88 Co84 2.004 . S
O88 C93 1.259 . S
Co89 O90 2.061 . S
Co89 O95 2.052 . S
Co89 O97 2.135 . S
O90 Co89 2.061 . S
O90 C93 1.235 . S
C91 O94 1.238 . S
C91 O95 1.241 . S
C92 O85 1.247 . S
C92 O86 1.261 . S
C93 O88 1.259 . S
C93 O90 1.235 . S
O94 Co84 2.021 . S
O94 C91 1.238 . S
O95 Co89 2.052 . S
O95 C91 1.241 . S
O96 Co84 2.137 . S
O96 C87 1.247 . S
O97 Co84 2.244 . S
O97 C87 1.272 . S
O97 Co89 2.135 . S
Co98 O99 2.216 . S
Co98 O100 2.091 . S
Co98 O102 2.004 . S
Co98 O108 2.021 . S
Co98 O110 2.137 . S
Co98 O111 2.244 . S
O99 Co98 2.216 . S
O99 C106 1.247 . S
O100 Co98 2.091 . S
O100 C106 1.261 . S
C101 O110 1.247 . S
C101 O111 1.272 . S
O102 Co98 2.004 . S
O102 C107 1.259 . S
Co103 O104 2.061 . S
Co103 O109 2.052 . S
Co103 O111 2.135 . S
O104 Co103 2.061 . S
O104 C107 1.235 . S
C105 O108 1.238 . S
C105 O109 1.241 . S
C106 O99 1.247 . S
C106 O100 1.261 . S
C107 O102 1.259 . S
C107 O104 1.235 . S
O108 Co98 2.021 . S
O108 C105 1.238 . S
O109 Co103 2.052 . S
O109 C105 1.241 . S
O110 Co98 2.137 . S
O110 C101 1.247 . S
O111 Co98 2.244 . S
O111 C101 1.272 . S
O111 Co103 2.135 . S
Co112 O113 2.216 . S
Co112 O114 2.091 . S
Co112 O116 2.004 . S
Co112 O122 2.021 1_554 S
Co112 O124 2.137 . S
Co112 O125 2.244 . S
O113 Co112 2.216 . S
O113 C120 1.247 . S
O114 Co112 2.091 . S
O114 C120 1.261 . S
C115 O124 1.247 . S
C115 O125 1.272 . S
O116 Co112 2.004 . S
O116 C121 1.259 . S
Co117 O118 2.061 1_556 S
Co117 O123 2.052 . S
Co117 O125 2.135 1_556 S
O118 Co117 2.061 1_554 S
O118 C121 1.235 . S
C119 O122 1.238 . S
C119 O123 1.241 . S
C120 O113 1.247 . S
C120 O114 1.261 . S
C121 O116 1.259 . S
C121 O118 1.235 . S
O122 Co112 2.021 1_556 S
O122 C119 1.238 . S
O123 Co117 2.052 . S
O123 C119 1.241 . S
O124 Co112 2.137 . S
O124 C115 1.247 . S
O125 Co112 2.244 . S
O125 C115 1.272 . S
O125 Co117 2.135 1_554 S
Co126 O127 2.216 . S
Co126 O128 2.091 . S
Co126 O130 2.004 . S
Co126 O136 2.021 . S
Co126 O138 2.137 . S
Co126 O139 2.244 . S
O127 Co126 2.216 . S
O127 C134 1.247 . S
O128 Co126 2.091 . S
O128 C134 1.261 . S
C129 O138 1.247 . S
C129 O139 1.272 . S
O130 Co126 2.004 . S
O130 C135 1.259 . S
Co131 O132 2.061 . S
Co131 O137 2.052 . S
Co131 O139 2.135 . S
O132 Co131 2.061 . S
O132 C135 1.235 . S
C133 O136 1.238 . S
C133 O137 1.241 . S
C134 O127 1.247 . S
C134 O128 1.261 . S
C135 O130 1.259 . S
C135 O132 1.235 . S
O136 Co126 2.021 . S
O136 C133 1.238 . S
O137 Co131 2.052 . S
O137 C133 1.241 . S
O138 Co126 2.137 . S
O138 C129 1.247 . S
O139 Co126 2.244 . S
O139 C129 1.272 . S
O139 Co131 2.135 . S
Co140 O141 2.216 . S
Co140 O142 2.091 . S
Co140 O144 2.004 . S
Co140 O150 2.021 . S
Co140 O152 2.137 . S
Co140 O153 2.244 . S
O141 Co140 2.216 . S
O141 C148 1.247 . S
O142 Co140 2.091 . S
O142 C148 1.261 . S
C143 O152 1.247 . S
C143 O153 1.272 . S
O144 Co140 2.004 . S
O144 C149 1.259 . S
Co145 O146 2.061 . S
Co145 O151 2.052 . S
Co145 O153 2.135 . S
O146 Co145 2.061 . S
O146 C149 1.235 . S
C147 O150 1.238 . S
C147 O151 1.241 . S
C148 O141 1.247 . S
C148 O142 1.261 . S
C149 O144 1.259 . S
C149 O146 1.235 . S
O150 Co140 2.021 . S
O150 C147 1.238 . S
O151 Co145 2.052 . S
O151 C147 1.241 . S
O152 Co140 2.137 . S
O152 C143 1.247 . S
O153 Co140 2.244 . S
O153 C143 1.272 . S
O153 Co145 2.135 . S
Co154 O155 2.216 . S
Co154 O156 2.091 . S
Co154 O158 2.004 . S
Co154 O164 2.021 1_554 S
Co154 O166 2.137 . S
Co154 O167 2.244 . S
O155 Co154 2.216 . S
O155 C162 1.247 . S
O156 Co154 2.091 . S
O156 C162 1.261 . S
C157 O166 1.247 . S
C157 O167 1.272 . S
O158 Co154 2.004 . S
O158 C163 1.259 . S
Co159 O160 2.061 1_556 S
Co159 O165 2.052 . S
Co159 O167 2.135 1_556 S
O160 Co159 2.061 1_554 S
O160 C163 1.235 . S
C161 O164 1.238 . S
C161 O165 1.241 . S
C162 O155 1.247 . S
C162 O156 1.261 . S
C163 O158 1.259 . S
C163 O160 1.235 . S
O164 Co154 2.021 1_556 S
O164 C161 1.238 . S
O165 Co159 2.052 . S
O165 C161 1.241 . S
O166 Co154 2.137 . S
O166 C157 1.247 . S
O167 Co154 2.244 . S
O167 C157 1.272 . S
O167 Co159 2.135 1_554 S
H168 C176 0.950 . S
H169 C181 0.950 . S
H170 C178 0.950 . S
H171 C180 0.950 . S
H172 C182 0.950 . S
H173 C184 0.950 . S
H174 C186 0.950 . S
H175 C187 0.950 . S
C176 H168 0.950 . S
C176 C177 1.386 . S
C176 C178 1.391 . S
C177 C176 1.386 . S
C177 C181 1.393 . S
C178 H170 0.950 . S
C178 C176 1.391 . S
C178 C179 1.400 . S
C179 C178 1.400 . S
C179 C180 1.398 . S
C179 C185 1.491 . S
C180 H171 0.950 . S
C180 C179 1.398 . S
C180 C181 1.391 . S
C181 H169 0.950 . S
C181 C177 1.393 . S
C181 C180 1.391 . S
C182 H172 0.950 . S
C182 C183 1.386 . S
C182 C184 1.391 . S
C183 C182 1.386 . S
C183 C187 1.393 . S
C184 H173 0.950 . S
C184 C182 1.391 . S
C184 C185 1.400 . S
C185 C179 1.491 . S
C185 C184 1.400 . S
C185 C186 1.398 . S
C186 H174 0.950 . S
C186 C185 1.398 . S
C186 C187 1.391 . S
C187 H175 0.950 . S
C187 C183 1.393 . S
C187 C186 1.391 . S
H188 C196 0.950 . S
H189 C201 0.950 . S
H190 C198 0.950 . S
H191 C200 0.950 . S
H192 C202 0.950 . S
H193 C204 0.950 . S
H194 C206 0.950 . S
H195 C207 0.950 . S
C196 H188 0.950 . S
C196 C197 1.386 . S
C196 C198 1.391 . S
C197 C196 1.386 . S
C197 C201 1.393 . S
C198 H190 0.950 . S
C198 C196 1.391 . S
C198 C199 1.400 . S
C199 C198 1.400 . S
C199 C200 1.398 . S
C199 C205 1.491 . S
C200 H191 0.950 . S
C200 C199 1.398 . S
C200 C201 1.391 . S
C201 H189 0.950 . S
C201 C197 1.393 . S
C201 C200 1.391 . S
C202 H192 0.950 . S
C202 C203 1.386 . S
C202 C204 1.391 . S
C203 C202 1.386 . S
C203 C207 1.393 . S
C204 H193 0.950 . S
C204 C202 1.391 . S
C204 C205 1.400 . S
C205 C199 1.491 . S
C205 C204 1.400 . S
C205 C206 1.398 . S
C206 H194 0.950 . S
C206 C205 1.398 . S
C206 C207 1.391 . S
C207 H195 0.950 . S
C207 C203 1.393 . S
C207 C206 1.391 . S
H208 C216 0.950 . S
H209 C221 0.950 . S
H210 C218 0.950 . S
H211 C220 0.950 . S
H212 C222 0.950 . S
H213 C224 0.950 . S
H214 C226 0.950 . S
H215 C227 0.950 . S
C216 H208 0.950 . S
C216 C217 1.386 . S
C216 C218 1.391 . S
C217 C216 1.386 . S
C217 C221 1.393 . S
C218 H210 0.950 . S
C218 C216 1.391 . S
C218 C219 1.400 . S
C219 C218 1.400 . S
C219 C220 1.398 . S
C219 C225 1.491 . S
C220 H211 0.950 . S
C220 C219 1.398 . S
C220 C221 1.391 . S
C221 H209 0.950 . S
C221 C217 1.393 . S
C221 C220 1.391 . S
C222 H212 0.950 . S
C222 C223 1.386 . S
C222 C224 1.391 . S
C223 C222 1.386 . S
C223 C227 1.393 . S
C224 H213 0.950 . S
C224 C222 1.391 . S
C224 C225 1.400 . S
C225 C219 1.491 . S
C225 C224 1.400 . S
C225 C226 1.398 . S
C226 H214 0.950 . S
C226 C225 1.398 . S
C226 C227 1.391 . S
C227 H215 0.950 . S
C227 C223 1.393 . S
C227 C226 1.391 . S
H228 C236 0.950 . S
H229 C241 0.950 . S
H230 C238 0.950 . S
H231 C240 0.950 . S
H232 C242 0.950 . S
H233 C244 0.950 . S
H234 C246 0.950 . S
H235 C247 0.950 . S
C236 H228 0.950 . S
C236 C237 1.386 . S
C236 C238 1.391 . S
C237 C236 1.386 . S
C237 C241 1.393 . S
C238 H230 0.950 . S
C238 C236 1.391 . S
C238 C239 1.400 . S
C239 C238 1.400 . S
C239 C240 1.398 . S
C239 C245 1.491 . S
C240 H231 0.950 . S
C240 C239 1.398 . S
C240 C241 1.391 . S
C241 H229 0.950 . S
C241 C237 1.393 . S
C241 C240 1.391 . S
C242 H232 0.950 . S
C242 C243 1.386 . S
C242 C244 1.391 . S
C243 C242 1.386 . S
C243 C247 1.393 . S
C244 H233 0.950 . S
C244 C242 1.391 . S
C244 C245 1.400 . S
C245 C239 1.491 . S
C245 C244 1.400 . S
C245 C246 1.398 . S
C246 H234 0.950 . S
C246 C245 1.398 . S
C246 C247 1.391 . S
C247 H235 0.950 . S
C247 C243 1.393 . S
C247 C246 1.391 . S
H248 C256 0.950 . S
H249 C261 0.950 . S
H250 C258 0.950 . S
H251 C260 0.950 . S
H252 C262 0.950 . S
H253 C264 0.950 . S
H254 C266 0.950 . S
H255 C267 0.950 . S
C256 H248 0.950 . S
C256 C257 1.386 . S
C256 C258 1.391 . S
C257 C256 1.386 . S
C257 C261 1.393 . S
C258 H250 0.950 . S
C258 C256 1.391 . S
C258 C259 1.400 . S
C259 C258 1.400 . S
C259 C260 1.398 . S
C259 C265 1.491 . S
C260 H251 0.950 . S
C260 C259 1.398 . S
C260 C261 1.391 . S
C261 H249 0.950 . S
C261 C257 1.393 . S
C261 C260 1.391 . S
C262 H252 0.950 . S
C262 C263 1.386 . S
C262 C264 1.391 . S
C263 C262 1.386 . S
C263 C267 1.393 . S
C264 H253 0.950 . S
C264 C262 1.391 . S
C264 C265 1.400 . S
C265 C259 1.491 . S
C265 C264 1.400 . S
C265 C266 1.398 . S
C266 H254 0.950 . S
C266 C265 1.398 . S
C266 C267 1.391 . S
C267 H255 0.950 . S
C267 C263 1.393 . S
C267 C266 1.391 . S
H268 C276 0.950 . S
H269 C281 0.950 . S
H270 C278 0.950 . S
H271 C280 0.950 . S
H272 C282 0.950 . S
H273 C284 0.950 . S
H274 C286 0.950 . S
H275 C287 0.950 . S
C276 H268 0.950 . S
C276 C277 1.386 . S
C276 C278 1.391 . S
C277 C276 1.386 . S
C277 C281 1.393 . S
C278 H270 0.950 . S
C278 C276 1.391 . S
C278 C279 1.400 . S
C279 C278 1.400 . S
C279 C280 1.398 . S
C279 C285 1.491 . S
C280 H271 0.950 . S
C280 C279 1.398 . S
C280 C281 1.391 . S
C281 H269 0.950 . S
C281 C277 1.393 . S
C281 C280 1.391 . S
C282 H272 0.950 . S
C282 C283 1.386 . S
C282 C284 1.391 . S
C283 C282 1.386 . S
C283 C287 1.393 . S
C284 H273 0.950 . S
C284 C282 1.391 . S
C284 C285 1.400 . S
C285 C279 1.491 . S
C285 C284 1.400 . S
C285 C286 1.398 . S
C286 H274 0.950 . S
C286 C285 1.398 . S
C286 C287 1.391 . S
C287 H275 0.950 . S
C287 C283 1.393 . S
C287 C286 1.391 . S
H288 C296 0.950 . S
H289 C301 0.950 . S
H290 C298 0.950 . S
H291 C300 0.950 . S
H292 C302 0.950 . S
H293 C304 0.950 . S
H294 C306 0.950 . S
H295 C307 0.950 . S
C296 H288 0.950 . S
C296 C297 1.386 . S
C296 C298 1.391 . S
C297 C296 1.386 . S
C297 C301 1.393 . S
C298 H290 0.950 . S
C298 C296 1.391 . S
C298 C299 1.400 . S
C299 C298 1.400 . S
C299 C300 1.398 . S
C299 C305 1.491 . S
C300 H291 0.950 . S
C300 C299 1.398 . S
C300 C301 1.391 . S
C301 H289 0.950 . S
C301 C297 1.393 . S
C301 C300 1.391 . S
C302 H292 0.950 . S
C302 C303 1.386 . S
C302 C304 1.391 . S
C303 C302 1.386 . S
C303 C307 1.393 . S
C304 H293 0.950 . S
C304 C302 1.391 . S
C304 C305 1.400 . S
C305 C299 1.491 . S
C305 C304 1.400 . S
C305 C306 1.398 . S
C306 H294 0.950 . S
C306 C305 1.398 . S
C306 C307 1.391 . S
C307 H295 0.950 . S
C307 C303 1.393 . S
C307 C306 1.391 . S
H308 C316 0.950 . S
H309 C321 0.950 . S
H310 C318 0.950 . S
H311 C320 0.950 . S
H312 C322 0.950 . S
H313 C324 0.950 . S
H314 C326 0.950 . S
H315 C327 0.950 . S
C316 H308 0.950 . S
C316 C317 1.386 . S
C316 C318 1.391 . S
C317 C316 1.386 . S
C317 C321 1.393 . S
C318 H310 0.950 . S
C318 C316 1.391 . S
C318 C319 1.400 . S
C319 C318 1.400 . S
C319 C320 1.398 . S
C319 C325 1.491 . S
C320 H311 0.950 . S
C320 C319 1.398 . S
C320 C321 1.391 . S
C321 H309 0.950 . S
C321 C317 1.393 . S
C321 C320 1.391 . S
C322 H312 0.950 . S
C322 C323 1.386 . S
C322 C324 1.391 . S
C323 C322 1.386 . S
C323 C327 1.393 . S
C324 H313 0.950 . S
C324 C322 1.391 . S
C324 C325 1.400 . S
C325 C319 1.491 . S
C325 C324 1.400 . S
C325 C326 1.398 . S
C326 H314 0.950 . S
C326 C325 1.398 . S
C326 C327 1.391 . S
C327 H315 0.950 . S
C327 C323 1.393 . S
C327 C326 1.391 . S
H328 C336 0.950 . S
H329 C341 0.950 . S
H330 C338 0.950 . S
H331 C340 0.950 . S
H332 C342 0.950 . S
H333 C344 0.950 . S
H334 C346 0.950 . S
H335 C347 0.950 . S
C336 H328 0.950 . S
C336 C337 1.386 . S
C336 C338 1.391 . S
C337 C336 1.386 . S
C337 C341 1.393 1_554 S
C338 H330 0.950 . S
C338 C336 1.391 . S
C338 C339 1.400 . S
C339 C338 1.400 . S
C339 C340 1.398 1_554 S
C339 C345 1.491 . S
C340 H331 0.950 . S
C340 C339 1.398 1_556 S
C340 C341 1.391 . S
C341 H329 0.950 . S
C341 C337 1.393 1_556 S
C341 C340 1.391 . S
C342 H332 0.950 . S
C342 C343 1.386 . S
C342 C344 1.391 . S
C343 C342 1.386 . S
C343 C347 1.393 1_556 S
C344 H333 0.950 . S
C344 C342 1.391 . S
C344 C345 1.400 1_556 S
C345 C339 1.491 . S
C345 C344 1.400 1_554 S
C345 C346 1.398 . S
C346 H334 0.950 . S
C346 C345 1.398 . S
C346 C347 1.391 . S
C347 H335 0.950 . S
C347 C343 1.393 1_554 S
C347 C346 1.391 . S
H348 C356 0.950 . S
H349 C361 0.950 . S
H350 C358 0.950 . S
H351 C360 0.950 . S
H352 C362 0.950 . S
H353 C364 0.950 . S
H354 C366 0.950 . S
H355 C367 0.950 . S
C356 H348 0.950 . S
C356 C357 1.386 . S
C356 C358 1.391 . S
C357 C356 1.386 . S
C357 C361 1.393 . S
C358 H350 0.950 . S
C358 C356 1.391 . S
C358 C359 1.400 . S
C359 C358 1.400 . S
C359 C360 1.398 . S
C359 C365 1.491 . S
C360 H351 0.950 . S
C360 C359 1.398 . S
C360 C361 1.391 . S
C361 H349 0.950 . S
C361 C357 1.393 . S
C361 C360 1.391 . S
C362 H352 0.950 . S
C362 C363 1.386 . S
C362 C364 1.391 . S
C363 C362 1.386 . S
C363 C367 1.393 . S
C364 H353 0.950 . S
C364 C362 1.391 . S
C364 C365 1.400 . S
C365 C359 1.491 . S
C365 C364 1.400 . S
C365 C366 1.398 . S
C366 H354 0.950 . S
C366 C365 1.398 . S
C366 C367 1.391 . S
C367 H355 0.950 . S
C367 C363 1.393 . S
C367 C366 1.391 . S
H368 C376 0.950 . S
H369 C381 0.950 . S
H370 C378 0.950 . S
H371 C380 0.950 . S
H372 C382 0.950 . S
H373 C384 0.950 . S
H374 C386 0.950 . S
H375 C387 0.950 . S
C376 H368 0.950 . S
C376 C377 1.386 . S
C376 C378 1.391 . S
C377 C376 1.386 . S
C377 C381 1.393 . S
C378 H370 0.950 . S
C378 C376 1.391 . S
C378 C379 1.400 . S
C379 C378 1.400 . S
C379 C380 1.398 . S
C379 C385 1.491 . S
C380 H371 0.950 . S
C380 C379 1.398 . S
C380 C381 1.391 . S
C381 H369 0.950 . S
C381 C377 1.393 . S
C381 C380 1.391 . S
C382 H372 0.950 . S
C382 C383 1.386 . S
C382 C384 1.391 . S
C383 C382 1.386 . S
C383 C387 1.393 . S
C384 H373 0.950 . S
C384 C382 1.391 . S
C384 C385 1.400 . S
C385 C379 1.491 . S
C385 C384 1.400 . S
C385 C386 1.398 . S
C386 H374 0.950 . S
C386 C385 1.398 . S
C386 C387 1.391 . S
C387 H375 0.950 . S
C387 C383 1.393 . S
C387 C386 1.391 . S
H388 C396 0.950 . S
H389 C401 0.950 . S
H390 C398 0.950 . S
H391 C400 0.950 . S
H392 C402 0.950 . S
H393 C404 0.950 . S
H394 C406 0.950 . S
H395 C407 0.950 . S
C396 H388 0.950 . S
C396 C397 1.386 1_554 S
C396 C398 1.391 . S
C397 C396 1.386 1_556 S
C397 C401 1.393 . S
C398 H390 0.950 . S
C398 C396 1.391 . S
C398 C399 1.400 . S
C399 C398 1.400 . S
C399 C400 1.398 1_554 S
C399 C405 1.491 . S
C400 H391 0.950 . S
C400 C399 1.398 1_556 S
C400 C401 1.391 . S
C401 H389 0.950 . S
C401 C397 1.393 . S
C401 C400 1.391 . S
C402 H392 0.950 . S
C402 C403 1.386 1_556 S
C402 C404 1.391 . S
C403 C402 1.386 1_554 S
C403 C407 1.393 . S
C404 H393 0.950 . S
C404 C402 1.391 . S
C404 C405 1.400 1_556 S
C405 C399 1.491 . S
C405 C404 1.400 1_554 S
C405 C406 1.398 . S
C406 H394 0.950 . S
C406 C405 1.398 . S
C406 C407 1.391 . S
C407 H395 0.950 . S
C407 C403 1.393 . S
C407 C406 1.391 . S
H408 C416 0.950 . S
H409 C421 0.950 . S
H410 C418 0.950 . S
H411 C420 0.950 . S
H412 C422 0.950 . S
H413 C424 0.950 . S
H414 C426 0.950 . S
H415 C427 0.950 . S
C416 H408 0.950 . S
C416 C417 1.386 . S
C416 C418 1.391 . S
C417 C416 1.386 . S
C417 C421 1.393 . S
C418 H410 0.950 . S
C418 C416 1.391 . S
C418 C419 1.400 . S
C419 C418 1.400 . S
C419 C420 1.398 . S
C419 C425 1.491 1_545 S
C420 H411 0.950 . S
C420 C419 1.398 . S
C420 C421 1.391 . S
C421 H409 0.950 . S
C421 C417 1.393 . S
C421 C420 1.391 . S
C422 H412 0.950 . S
C422 C423 1.386 . S
C422 C424 1.391 . S
C423 C422 1.386 . S
C423 C427 1.393 . S
C424 H413 0.950 . S
C424 C422 1.391 . S
C424 C425 1.400 . S
C425 C419 1.491 1_565 S
C425 C424 1.400 . S
C425 C426 1.398 . S
C426 H414 0.950 . S
C426 C425 1.398 . S
C426 C427 1.391 . S
C427 H415 0.950 . S
C427 C423 1.393 . S
C427 C426 1.391 . S
H428 C436 0.950 . S
H429 C441 0.950 . S
H430 C438 0.950 . S
H431 C440 0.950 . S
H432 C442 0.950 . S
H433 C444 0.950 . S
H434 C446 0.950 . S
H435 C447 0.950 . S
C436 H428 0.950 . S
C436 C437 1.386 . S
C436 C438 1.391 . S
C437 C436 1.386 . S
C437 C441 1.393 . S
C438 H430 0.950 . S
C438 C436 1.391 . S
C438 C439 1.400 . S
C439 C438 1.400 . S
C439 C440 1.398 . S
C439 C445 1.491 . S
C440 H431 0.950 . S
C440 C439 1.398 . S
C440 C441 1.391 . S
C441 H429 0.950 . S
C441 C437 1.393 . S
C441 C440 1.391 . S
C442 H432 0.950 . S
C442 C443 1.386 . S
C442 C444 1.391 . S
C443 C442 1.386 . S
C443 C447 1.393 . S
C444 H433 0.950 . S
C444 C442 1.391 . S
C444 C445 1.400 . S
C445 C439 1.491 . S
C445 C444 1.400 . S
C445 C446 1.398 . S
C446 H434 0.950 . S
C446 C445 1.398 . S
C446 C447 1.391 . S
C447 H435 0.950 . S
C447 C443 1.393 . S
C447 C446 1.391 . S
H448 C456 0.950 1_554 S
H449 C461 0.950 . S
H450 C458 0.950 1_554 S
H451 C460 0.950 . S
H452 C462 0.950 . S
H453 C464 0.950 . S
H454 C466 0.950 1_554 S
H455 C467 0.950 1_554 S
C456 H448 0.950 1_556 S
C456 C457 1.386 . S
C456 C458 1.391 . S
C457 C456 1.386 . S
C457 C461 1.393 . S
C458 H450 0.950 1_556 S
C458 C456 1.391 . S
C458 C459 1.400 . S
C459 C458 1.400 . S
C459 C460 1.398 . S
C459 C465 1.491 1_655 S
C460 H451 0.950 . S
C460 C459 1.398 . S
C460 C461 1.391 . S
C461 H449 0.950 . S
C461 C457 1.393 . S
C461 C460 1.391 . S
C462 H452 0.950 . S
C462 C463 1.386 . S
C462 C464 1.391 . S
C463 C462 1.386 . S
C463 C467 1.393 . S
C464 H453 0.950 . S
C464 C462 1.391 . S
C464 C465 1.400 . S
C465 C459 1.491 1_455 S
C465 C464 1.400 . S
C465 C466 1.398 . S
C466 H454 0.950 1_556 S
C466 C465 1.398 . S
C466 C467 1.391 . S
C467 H455 0.950 1_556 S
C467 C463 1.393 . S
C467 C466 1.391 . S
H468 C476 0.950 . S
H469 C481 0.950 . S
H470 C478 0.950 . S
H471 C480 0.950 . S
H472 C482 0.950 . S
H473 C484 0.950 . S
H474 C486 0.950 . S
H475 C487 0.950 . S
C476 H468 0.950 . S
C476 C477 1.386 . S
C476 C478 1.391 . S
C477 C476 1.386 . S
C477 C481 1.393 . S
C478 H470 0.950 . S
C478 C476 1.391 . S
C478 C479 1.400 . S
C479 C478 1.400 . S
C479 C480 1.398 . S
C479 C485 1.491 1_455 S
C480 H471 0.950 . S
C480 C479 1.398 . S
C480 C481 1.391 . S
C481 H469 0.950 . S
C481 C477 1.393 . S
C481 C480 1.391 . S
C482 H472 0.950 . S
C482 C483 1.386 . S
C482 C484 1.391 . S
C483 C482 1.386 . S
C483 C487 1.393 . S
C484 H473 0.950 . S
C484 C482 1.391 . S
C484 C485 1.400 . S
C485 C479 1.491 1_655 S
C485 C484 1.400 . S
C485 C486 1.398 . S
C486 H474 0.950 . S
C486 C485 1.398 . S
C486 C487 1.391 . S
C487 H475 0.950 . S
C487 C483 1.393 . S
C487 C486 1.391 . S
H488 C496 0.950 . S
H489 C501 0.950 . S
H490 C498 0.950 . S
H491 C500 0.950 . S
H492 C502 0.950 . S
H493 C504 0.950 . S
H494 C506 0.950 . S
H495 C507 0.950 . S
C496 H488 0.950 . S
C496 C497 1.386 . S
C496 C498 1.391 . S
C497 C496 1.386 . S
C497 C501 1.393 . S
C498 H490 0.950 . S
C498 C496 1.391 . S
C498 C499 1.400 . S
C499 C498 1.400 . S
C499 C500 1.398 . S
C499 C505 1.491 1_545 S
C500 H491 0.950 . S
C500 C499 1.398 . S
C500 C501 1.391 . S
C501 H489 0.950 . S
C501 C497 1.393 . S
C501 C500 1.391 . S
C502 H492 0.950 . S
C502 C503 1.386 . S
C502 C504 1.391 . S
C503 C502 1.386 . S
C503 C507 1.393 . S
C504 H493 0.950 . S
C504 C502 1.391 . S
C504 C505 1.400 . S
C505 C499 1.491 1_565 S
C505 C504 1.400 . S
C505 C506 1.398 . S
C506 H494 0.950 . S
C506 C505 1.398 . S
C506 C507 1.391 . S
C507 H495 0.950 . S
C507 C503 1.393 . S
C507 C506 1.391 . S
H508 C516 0.950 . S
H509 C521 0.950 . S
H510 C518 0.950 . S
H511 C520 0.950 . S
H512 C522 0.950 . S
H513 C524 0.950 . S
H514 C526 0.950 . S
H515 C527 0.950 . S
C516 H508 0.950 . S
C516 C517 1.386 . S
C516 C518 1.391 . S
C517 C516 1.386 . S
C517 C521 1.393 . S
C518 H510 0.950 . S
C518 C516 1.391 . S
C518 C519 1.400 . S
C519 C518 1.400 . S
C519 C520 1.398 . S
C519 C525 1.491 . S
C520 H511 0.950 . S
C520 C519 1.398 . S
C520 C521 1.391 . S
C521 H509 0.950 . S
C521 C517 1.393 . S
C521 C520 1.391 . S
C522 H512 0.950 . S
C522 C523 1.386 . S
C522 C524 1.391 . S
C523 C522 1.386 . S
C523 C527 1.393 . S
C524 H513 0.950 . S
C524 C522 1.391 . S
C524 C525 1.400 . S
C525 C519 1.491 . S
C525 C524 1.400 . S
C525 C526 1.398 . S
C526 H514 0.950 . S
C526 C525 1.398 . S
C526 C527 1.391 . S
C527 H515 0.950 . S
C527 C523 1.393 . S
C527 C526 1.391 . S
H528 C536 0.950 . S
H529 C541 0.950 . S
H530 C538 0.950 . S
H531 C540 0.950 . S
H532 C542 0.950 . S
H533 C544 0.950 . S
H534 C546 0.950 . S
H535 C547 0.950 . S
C536 H528 0.950 . S
C536 C537 1.386 . S
C536 C538 1.391 . S
C537 C536 1.386 . S
C537 C541 1.393 . S
C538 H530 0.950 . S
C538 C536 1.391 . S
C538 C539 1.400 . S
C539 C538 1.400 . S
C539 C540 1.398 . S
C539 C545 1.491 . S
C540 H531 0.950 . S
C540 C539 1.398 . S
C540 C541 1.391 . S
C541 H529 0.950 . S
C541 C537 1.393 . S
C541 C540 1.391 . S
C542 H532 0.950 . S
C542 C543 1.386 . S
C542 C544 1.391 . S
C543 C542 1.386 . S
C543 C547 1.393 . S
C544 H533 0.950 . S
C544 C542 1.391 . S
C544 C545 1.400 . S
C545 C539 1.491 . S
C545 C544 1.400 . S
C545 C546 1.398 . S
C546 H534 0.950 . S
C546 C545 1.398 . S
C546 C547 1.391 . S
C547 H535 0.950 . S
C547 C543 1.393 . S
C547 C546 1.391 . S
H548 C556 0.950 . S
H549 C561 0.950 . S
H550 C558 0.950 . S
H551 C560 0.950 . S
H552 C562 0.950 . S
H553 C564 0.950 . S
H554 C566 0.950 . S
H555 C567 0.950 . S
C556 H548 0.950 . S
C556 C557 1.386 . S
C556 C558 1.391 . S
C557 C556 1.386 . S
C557 C561 1.393 . S
C558 H550 0.950 . S
C558 C556 1.391 . S
C558 C559 1.400 . S
C559 C558 1.400 . S
C559 C560 1.398 . S
C559 C565 1.491 . S
C560 H551 0.950 . S
C560 C559 1.398 . S
C560 C561 1.391 . S
C561 H549 0.950 . S
C561 C557 1.393 . S
C561 C560 1.391 . S
C562 H552 0.950 . S
C562 C563 1.386 . S
C562 C564 1.391 . S
C563 C562 1.386 . S
C563 C567 1.393 . S
C564 H553 0.950 . S
C564 C562 1.391 . S
C564 C565 1.400 . S
C565 C559 1.491 . S
C565 C564 1.400 . S
C565 C566 1.398 . S
C566 H554 0.950 . S
C566 C565 1.398 . S
C566 C567 1.391 . S
C567 H555 0.950 . S
C567 C563 1.393 . S
C567 C566 1.391 . S
H568 C576 0.950 . S
H569 C581 0.950 . S
H570 C578 0.950 . S
H571 C580 0.950 . S
H572 C582 0.950 . S
H573 C584 0.950 . S
H574 C586 0.950 . S
H575 C587 0.950 . S
C576 H568 0.950 . S
C576 C577 1.386 . S
C576 C578 1.391 . S
C577 C576 1.386 . S
C577 C581 1.393 . S
C578 H570 0.950 . S
C578 C576 1.391 . S
C578 C579 1.400 . S
C579 C578 1.400 . S
C579 C580 1.398 . S
C579 C585 1.491 . S
C580 H571 0.950 . S
C580 C579 1.398 . S
C580 C581 1.391 . S
C581 H569 0.950 . S
C581 C577 1.393 . S
C581 C580 1.391 . S
C582 H572 0.950 . S
C582 C583 1.386 . S
C582 C584 1.391 . S
C583 C582 1.386 . S
C583 C587 1.393 . S
C584 H573 0.950 . S
C584 C582 1.391 . S
C584 C585 1.400 . S
C585 C579 1.491 . S
C585 C584 1.400 . S
C585 C586 1.398 . S
C586 H574 0.950 . S
C586 C585 1.398 . S
C586 C587 1.391 . S
C587 H575 0.950 . S
C587 C583 1.393 . S
C587 C586 1.391 . S
H588 C596 0.950 . S
H589 C601 0.950 . S
H590 C598 0.950 . S
H591 C600 0.950 . S
H592 C602 0.950 . S
H593 C604 0.950 . S
H594 C606 0.950 . S
H595 C607 0.950 . S
C596 H588 0.950 . S
C596 C597 1.386 . S
C596 C598 1.391 . S
C597 C596 1.386 . S
C597 C601 1.393 . S
C598 H590 0.950 . S
C598 C596 1.391 . S
C598 C599 1.400 . S
C599 C598 1.400 . S
C599 C600 1.398 . S
C599 C605 1.491 . S
C600 H591 0.950 . S
C600 C599 1.398 . S
C600 C601 1.391 . S
C601 H589 0.950 . S
C601 C597 1.393 . S
C601 C600 1.391 . S
C602 H592 0.950 . S
C602 C603 1.386 . S
C602 C604 1.391 . S
C603 C602 1.386 . S
C603 C607 1.393 . S
C604 H593 0.950 . S
C604 C602 1.391 . S
C604 C605 1.400 . S
C605 C599 1.491 . S
C605 C604 1.400 . S
C605 C606 1.398 . S
C606 H594 0.950 . S
C606 C605 1.398 . S
C606 C607 1.391 . S
C607 H595 0.950 . S
C607 C603 1.393 . S
C607 C606 1.391 . S
H608 C616 0.950 . S
H609 C621 0.950 . S
H610 C618 0.950 . S
H611 C620 0.950 . S
H612 C622 0.950 . S
H613 C624 0.950 . S
H614 C626 0.950 . S
H615 C627 0.950 . S
C616 H608 0.950 . S
C616 C617 1.386 . S
C616 C618 1.391 . S
C617 C616 1.386 . S
C617 C621 1.393 . S
C618 H610 0.950 . S
C618 C616 1.391 . S
C618 C619 1.400 . S
C619 C618 1.400 . S
C619 C620 1.398 . S
C619 C625 1.491 . S
C620 H611 0.950 . S
C620 C619 1.398 . S
C620 C621 1.391 . S
C621 H609 0.950 . S
C621 C617 1.393 . S
C621 C620 1.391 . S
C622 H612 0.950 . S
C622 C623 1.386 . S
C622 C624 1.391 . S
C623 C622 1.386 . S
C623 C627 1.393 . S
C624 H613 0.950 . S
C624 C622 1.391 . S
C624 C625 1.400 . S
C625 C619 1.491 . S
C625 C624 1.400 . S
C625 C626 1.398 . S
C626 H614 0.950 . S
C626 C625 1.398 . S
C626 C627 1.391 . S
C627 H615 0.950 . S
C627 C623 1.393 . S
C627 C626 1.391 . S
H628 C636 0.950 . S
H629 C641 0.950 . S
H630 C638 0.950 . S
H631 C640 0.950 . S
H632 C642 0.950 . S
H633 C644 0.950 . S
H634 C646 0.950 . S
H635 C647 0.950 . S
C636 H628 0.950 . S
C636 C637 1.386 . S
C636 C638 1.391 . S
C637 C636 1.386 . S
C637 C641 1.393 . S
C638 H630 0.950 . S
C638 C636 1.391 . S
C638 C639 1.400 . S
C639 C638 1.400 . S
C639 C640 1.398 . S
C639 C645 1.491 . S
C640 H631 0.950 . S
C640 C639 1.398 . S
C640 C641 1.391 . S
C641 H629 0.950 . S
C641 C637 1.393 . S
C641 C640 1.391 . S
C642 H632 0.950 . S
C642 C643 1.386 . S
C642 C644 1.391 . S
C643 C642 1.386 . S
C643 C647 1.393 . S
C644 H633 0.950 . S
C644 C642 1.391 . S
C644 C645 1.400 . S
C645 C639 1.491 . S
C645 C644 1.400 . S
C645 C646 1.398 . S
C646 H634 0.950 . S
C646 C645 1.398 . S
C646 C647 1.391 . S
C647 H635 0.950 . S
C647 C643 1.393 . S
C647 C646 1.391 . S
C177 C7 1.609 . S
C183 C147 1.591 . S
C197 C21 1.587 . S
C203 C161 1.605 . S
C217 C91 1.595 . S
C223 C35 1.611 . S
C237 C49 1.593 . S
C243 C105 1.610 . S
C257 C119 1.605 . S
C263 C63 1.610 . S
C277 C133 1.585 . S
C283 C77 1.584 . S
C297 C93 0.455 . S
C303 C9 0.430 . S
C317 C107 0.465 . S
C323 C23 0.428 . S
C337 C121 0.428 . S
C343 C37 0.472 . S
C357 C51 0.475 . S
C363 C135 0.428 . S
C377 C65 0.468 . S
C383 C149 0.427 . S
C397 C79 0.495 . S
C403 C163 0.450 . S
C417 C8 1.464 . S
C423 C50 1.467 . S
C437 C22 1.460 . S
C443 C64 1.455 . S
C457 C36 1.467 . S
C463 C78 1.461 . S
C477 C134 1.461 . S
C483 C92 1.467 . S
C497 C148 1.456 . S
C503 C106 1.455 . S
C517 C162 1.459 . S
C523 C120 1.465 . S
C537 C3 1.536 . S
C543 C115 1.541 . S
C557 C129 1.531 . S
C563 C17 1.552 . S
C577 C31 1.550 . S
C583 C143 1.531 . S
C597 C157 1.553 . S
C603 C45 1.536 . S
C617 C59 1.554 . S
C623 C87 1.536 . S
C637 C73 1.531 . S
C643 C101 1.555 . S
