# Generated by pormake.
# Topology cha, (4)-cn, num edge types: 1
# Building blocks:
#     Node 0, Type 0, BuildingBlock: AZAVOO_clean_sbu_0, # of connection points: 4
#     Node 1, Type 0, BuildingBlock: AZAVOO_clean_sbu_0, # of connection points: 4
#     Node 2, Type 0, BuildingBlock: AZAVOO_clean_sbu_0, # of connection points: 4
#     Node 3, Type 0, BuildingBlock: AZAVOO_clean_sbu_0, # of connection points: 4
#     Node 4, Type 0, BuildingBlock: AZAVOO_clean_sbu_0, # of connection points: 4
#     Node 5, Type 0, BuildingBlock: AZAVOO_clean_sbu_0, # of connection points: 4
#     Node 6, Type 0, BuildingBlock: AZAVOO_clean_sbu_0, # of connection points: 4
#     Node 7, Type 0, BuildingBlock: AZAVOO_clean_sbu_0, # of connection points: 4
#     Node 8, Type 0, BuildingBlock: AZAVOO_clean_sbu_0, # of connection points: 4
#     Node 9, Type 0, BuildingBlock: AZAVOO_clean_sbu_0, # of connection points: 4
#     Node 10, Type 0, BuildingBlock: AZAVOO_clean_sbu_0, # of connection points: 4
#     Node 11, Type 0, BuildingBlock: AZAVOO_clean_sbu_0, # of connection points: 4
#     Node 12, Type 0, BuildingBlock: AZAVOO_clean_sbu_0, # of connection points: 4
#     Node 13, Type 0, BuildingBlock: AZAVOO_clean_sbu_0, # of connection points: 4
#     Node 14, Type 0, BuildingBlock: AZAVOO_clean_sbu_0, # of connection points: 4
#     Node 15, Type 0, BuildingBlock: AZAVOO_clean_sbu_0, # of connection points: 4
#     Node 16, Type 0, BuildingBlock: AZAVOO_clean_sbu_0, # of connection points: 4
#     Node 17, Type 0, BuildingBlock: AZAVOO_clean_sbu_0, # of connection points: 4
#     Node 18, Type 0, BuildingBlock: AZAVOO_clean_sbu_0, # of connection points: 4
#     Node 19, Type 0, BuildingBlock: AZAVOO_clean_sbu_0, # of connection points: 4
#     Node 20, Type 0, BuildingBlock: AZAVOO_clean_sbu_0, # of connection points: 4
#     Node 21, Type 0, BuildingBlock: AZAVOO_clean_sbu_0, # of connection points: 4
#     Node 22, Type 0, BuildingBlock: AZAVOO_clean_sbu_0, # of connection points: 4
#     Node 23, Type 0, BuildingBlock: AZAVOO_clean_sbu_0, # of connection points: 4
#     Node 24, Type 0, BuildingBlock: AZAVOO_clean_sbu_0, # of connection points: 4
#     Node 25, Type 0, BuildingBlock: AZAVOO_clean_sbu_0, # of connection points: 4
#     Node 26, Type 0, BuildingBlock: AZAVOO_clean_sbu_0, # of connection points: 4
#     Node 27, Type 0, BuildingBlock: AZAVOO_clean_sbu_0, # of connection points: 4
#     Node 28, Type 0, BuildingBlock: AZAVOO_clean_sbu_0, # of connection points: 4
#     Node 29, Type 0, BuildingBlock: AZAVOO_clean_sbu_0, # of connection points: 4
#     Node 30, Type 0, BuildingBlock: AZAVOO_clean_sbu_0, # of connection points: 4
#     Node 31, Type 0, BuildingBlock: AZAVOO_clean_sbu_0, # of connection points: 4
#     Node 32, Type 0, BuildingBlock: AZAVOO_clean_sbu_0, # of connection points: 4
#     Node 33, Type 0, BuildingBlock: AZAVOO_clean_sbu_0, # of connection points: 4
#     Node 34, Type 0, BuildingBlock: AZAVOO_clean_sbu_0, # of connection points: 4
#     Node 35, Type 0, BuildingBlock: AZAVOO_clean_sbu_0, # of connection points: 4
#     Edge 36, Type (0, 0), None
#     Edge 37, Type (0, 0), None
#     Edge 38, Type (0, 0), None
#     Edge 39, Type (0, 0), None
#     Edge 40, Type (0, 0), None
#     Edge 41, Type (0, 0), None
#     Edge 42, Type (0, 0), None
#     Edge 43, Type (0, 0), None
#     Edge 44, Type (0, 0), None
#     Edge 45, Type (0, 0), None
#     Edge 46, Type (0, 0), None
#     Edge 47, Type (0, 0), None
#     Edge 48, Type (0, 0), None
#     Edge 49, Type (0, 0), None
#     Edge 50, Type (0, 0), None
#     Edge 51, Type (0, 0), None
#     Edge 52, Type (0, 0), None
#     Edge 53, Type (0, 0), None
#     Edge 54, Type (0, 0), None
#     Edge 55, Type (0, 0), None
#     Edge 56, Type (0, 0), None
#     Edge 57, Type (0, 0), None
#     Edge 58, Type (0, 0), None
#     Edge 59, Type (0, 0), None
#     Edge 60, Type (0, 0), None
#     Edge 61, Type (0, 0), None
#     Edge 62, Type (0, 0), None
#     Edge 63, Type (0, 0), None
#     Edge 64, Type (0, 0), None
#     Edge 65, Type (0, 0), None
#     Edge 66, Type (0, 0), None
#     Edge 67, Type (0, 0), None
#     Edge 68, Type (0, 0), None
#     Edge 69, Type (0, 0), None
#     Edge 70, Type (0, 0), None
#     Edge 71, Type (0, 0), None
#     Edge 72, Type (0, 0), None
#     Edge 73, Type (0, 0), None
#     Edge 74, Type (0, 0), None
#     Edge 75, Type (0, 0), None
#     Edge 76, Type (0, 0), None
#     Edge 77, Type (0, 0), None
#     Edge 78, Type (0, 0), None
#     Edge 79, Type (0, 0), None
#     Edge 80, Type (0, 0), None
#     Edge 81, Type (0, 0), None
#     Edge 82, Type (0, 0), None
#     Edge 83, Type (0, 0), None
#     Edge 84, Type (0, 0), None
#     Edge 85, Type (0, 0), None
#     Edge 86, Type (0, 0), None
#     Edge 87, Type (0, 0), None
#     Edge 88, Type (0, 0), None
#     Edge 89, Type (0, 0), None
#     Edge 90, Type (0, 0), None
#     Edge 91, Type (0, 0), None
#     Edge 92, Type (0, 0), None
#     Edge 93, Type (0, 0), None
#     Edge 94, Type (0, 0), None
#     Edge 95, Type (0, 0), None
#     Edge 96, Type (0, 0), None
#     Edge 97, Type (0, 0), None
#     Edge 98, Type (0, 0), None
#     Edge 99, Type (0, 0), None
#     Edge 100, Type (0, 0), None
#     Edge 101, Type (0, 0), None
#     Edge 102, Type (0, 0), None
#     Edge 103, Type (0, 0), None
#     Edge 104, Type (0, 0), None
#     Edge 105, Type (0, 0), None
#     Edge 106, Type (0, 0), None
#     Edge 107, Type (0, 0), None
# Relax obj value: 0.183
# Max RMSD: 0.162
# Mean RMSD: 0.162
data_MOF--net-cha--node1-AZAVOO_clean_sbu_0--edge1-none
_symmetry_space_group_name_H-M    P1
_symmetry_Int_Tables_number       1
_symmetry_cell_setting            triclinic
loop_
_symmetry_equiv_pos_as_xyz
'x, y, z'
_cell_length_a     30.028649
_cell_length_b     30.031811
_cell_length_c     33.596843
_cell_angle_alpha  90.967667
_cell_angle_beta   89.025139
_cell_angle_gamma 120.35053
loop_
_atom_site_label
_atom_site_type_symbol
_atom_site_fract_x
_atom_site_fract_y
_atom_site_fract_z
_atom_type_partial_charge
Mg0 Mg 0.01552 0.25137 0.07185 0.0
O1 O 0.94821 0.16356 0.0729 0.0
O2 O 0.97157 0.12659 0.0248 0.0
Mg3 Mg 0.05078 0.18081 -0.00092 0.0
C4 C 0.93948 0.12426 0.0513 0.0
C5 C 0.00632 0.32151 0.13029 0.0
O6 O 0.05098 0.35096 0.11262 0.0
O7 O 0.07004 0.23854 0.11529 0.0
O8 O 0.07526 0.20298 0.06052 0.0
O9 O 0.97657 0.26484 0.01943 0.0
O10 O 0.03538 0.24294 0.01075 0.0
C11 C 0.08937 0.21569 0.0958 0.0
C12 C 0.00215 0.25203 -0.00463 0.0
O13 O 0.98132 0.27346 0.12275 0.0
Mg14 Mg 0.77645 0.78901 0.07806 0.0
O15 O 0.86392 0.80647 0.07728 0.0
O16 O 0.90217 0.86439 0.02853 0.0
Mg17 Mg 0.85688 0.90397 0.02473 0.0
C18 C 0.90219 0.83275 0.05338 0.0
C19 C 0.70315 0.70596 0.13059 0.0
O20 O 0.67609 0.7239 0.11406 0.0
O21 O 0.7859 0.85139 0.12595 0.0
O22 O 0.85492 0.89386 0.09209 0.0
O23 O 0.76457 0.7439 0.02202 0.0
O24 O 0.78668 0.82622 0.02149 0.0
C25 C 0.82046 0.89505 0.11349 0.0
C26 C 0.77804 0.78522 0.00202 0.0
O27 O 0.7514 0.72792 0.12409 0.0
Mg28 Mg 0.23639 -0.00067 0.08429 0.0
O29 O 0.22512 0.07307 0.08051 0.0
O30 O 0.16451 0.04809 0.03388 0.0
Mg31 Mg 0.12431 0.96462 0.02646 0.0
C32 C 0.19866 0.08277 0.05602 0.0
C33 C 0.32032 0.01316 0.13641 0.0
O34 O 0.30629 0.96943 0.11757 0.0
O35 O 0.17012 0.95035 0.13057 0.0
O36 O 0.13138 0.97654 0.09368 0.0
O37 O 0.2851 0.02764 0.02936 0.0
O38 O 0.20147 0.97145 0.02693 0.0
C39 C 0.1279 0.94116 0.11559 0.0
C40 C 0.24433 0.00062 0.00827 0.0
O41 O 0.29515 0.03615 0.13175 0.0
Mg42 Mg 0.24599 0.02097 0.88863 0.0
O43 O 0.1582 0.95378 0.8875 0.0
O44 O 0.12138 0.97729 0.93556 0.0
Mg45 Mg 0.17599 0.05615 0.96149 0.0
C46 C 0.1189 0.94519 0.90903 0.0
C47 C 0.31594 0.01197 0.82986 0.0
O48 O 0.34545 0.05656 0.84759 0.0
O49 O 0.23271 0.07547 0.8458 0.0
O50 O 0.1967 0.08219 0.90011 0.0
O51 O 0.25954 0.98191 0.94091 0.0
O52 O 0.23788 0.0409 0.94948 0.0
C53 C 0.20976 0.09524 0.86467 0.0
C54 C 0.24684 0.00764 0.96492 0.0
O55 O 0.2679 0.98697 0.83749 0.0
Mg56 Mg -0.00628 0.24203 0.87601 0.0
O57 O 0.06752 0.23086 0.87966 0.0
O58 O 0.04274 0.1704 0.9264 0.0
Mg59 Mg 0.95924 0.12987 0.93371 0.0
C60 C 0.07734 0.20453 0.90419 0.0
C61 C 0.0076 0.32611 0.82395 0.0
O62 O 0.96387 0.31212 0.8428 0.0
O63 O 0.94482 0.17585 0.82968 0.0
O64 O 0.97107 0.13706 0.86647 0.0
O65 O 0.02203 0.29056 0.93102 0.0
O66 O 0.96588 0.20692 0.93332 0.0
C67 C 0.93565 0.13362 0.84462 0.0
C68 C -0.00492 0.2497 0.95204 0.0
O69 O 0.03055 0.30089 0.82861 0.0
Mg70 Mg 0.78344 0.78223 0.88224 0.0
O71 O 0.80089 0.8697 0.88306 0.0
O72 O 0.85877 0.9079 0.93185 0.0
Mg73 Mg 0.89834 0.86261 0.93565 0.0
C74 C 0.82716 0.90794 0.90698 0.0
C75 C 0.70044 0.70891 0.82967 0.0
O76 O 0.71838 0.68187 0.84622 0.0
O77 O 0.8459 0.79174 0.83439 0.0
O78 O 0.8883 0.86072 0.86829 0.0
O79 O 0.73826 0.77028 0.93826 0.0
O80 O 0.82059 0.79241 0.93882 0.0
C81 C 0.88954 0.82633 0.84685 0.0
C82 C 0.77956 0.78374 0.95828 0.0
O83 O 0.72238 0.75716 0.83617 0.0
Mg84 Mg -0.00403 0.76967 0.88171 0.0
O85 O 0.06341 0.8572 0.88579 0.0
O86 O 0.03546 0.89039 0.9335 0.0
Mg87 Mg 0.95698 0.83152 0.959 0.0
C88 C 0.0695 0.89516 0.9079 0.0
C89 C 0.0099 0.70443 0.82441 0.0
O90 O 0.96681 0.67418 0.84376 0.0
O91 O 0.94476 0.7887 0.83951 0.0
O92 O 0.93664 0.81744 0.89668 0.0
O93 O 0.03177 0.74914 0.93248 0.0
O94 O 0.9732 0.7707 0.94328 0.0
C95 C 0.92468 0.80946 0.86075 0.0
C96 C 0.00426 0.75788 0.95767 0.0
O97 O 0.03269 0.75282 0.83016 0.0
Mg98 Mg 0.24904 0.24227 0.88205 0.0
O99 O 0.16316 0.22738 0.88077 0.0
O100 O 0.12963 0.18109 0.93601 0.0
Mg101 Mg 0.16637 0.1333 0.93808 0.0
C102 C 0.12767 0.20764 0.90759 0.0
C103 C 0.31983 0.3236 0.82748 0.0
O104 O 0.34885 0.30842 0.8446 0.0
O105 O 0.23688 0.17609 0.83684 0.0
O106 O 0.16657 0.14011 0.8701 0.0
O107 O 0.26134 0.29028 0.9366 0.0
O108 O 0.23925 0.20811 0.94019 0.0
C109 C 0.19901 0.13442 0.84946 0.0
C110 C 0.2481 0.25018 0.9581 0.0
O111 O 0.27167 0.29982 0.83412 0.0
Mg112 Mg 0.77223 0.02786 0.88304 0.0
O113 O 0.79234 0.96107 0.88562 0.0
O114 O 0.85305 0.99 0.93249 0.0
Mg115 Mg 0.87452 0.06828 0.95844 0.0
C116 C 0.82373 0.95545 0.90752 0.0
C117 C 0.69376 0.01211 0.82398 0.0
O118 O 0.70526 0.05579 0.84192 0.0
O119 O 0.84233 0.07912 0.83933 0.0
O120 O 0.87877 0.08701 0.89565 0.0
O121 O 0.71777 -0.00827 0.93612 0.0
O122 O 0.79834 0.05214 0.94359 0.0
C123 C 0.88325 0.09895 0.85972 0.0
C124 C 0.75543 0.0197 0.9597 0.0
O125 O 0.71899 0.99 0.83191 0.0
Mg126 Mg 0.76381 0.00153 0.07861 0.0
O127 O 0.8514 0.06892 0.07454 0.0
O128 O 0.88448 0.04089 0.02681 0.0
Mg129 Mg 0.82556 0.96247 0.00128 0.0
C130 C 0.88934 0.07495 0.05241 0.0
C131 C 0.69859 0.01551 0.13598 0.0
O132 O 0.66826 0.97249 0.11659 0.0
O133 O 0.78279 0.95023 0.12076 0.0
O134 O 0.81153 0.94204 0.0636 0.0
O135 O 0.74338 0.03745 0.02784 0.0
O136 O 0.76484 0.9788 0.01703 0.0
C137 C 0.80353 0.93012 0.09953 0.0
C138 C 0.75212 0.00995 0.00265 0.0
O139 O 0.74698 0.03822 0.1302 0.0
Mg140 Mg 0.02212 0.77782 0.07729 0.0
O141 O 0.95532 0.79794 0.07473 0.0
O142 O 0.98425 0.85866 0.02787 0.0
Mg143 Mg 0.06253 0.88017 0.00191 0.0
C144 C 0.9497 0.82933 0.05284 0.0
C145 C 0.00629 0.69926 0.13635 0.0
O146 O 0.04998 0.71074 0.11842 0.0
O147 O 0.07339 0.84788 0.12105 0.0
O148 O 0.08112 0.88412 0.06469 0.0
O149 O -0.01399 0.72344 0.02418 0.0
O150 O 0.04643 0.80401 0.01675 0.0
C151 C 0.09317 0.88874 0.10061 0.0
C152 C 0.01398 0.76114 0.00062 0.0
O153 O 0.98421 0.72452 0.1284 0.0
Mg154 Mg 0.23692 0.25464 0.07779 0.0
O155 O 0.22177 0.16873 0.07921 0.0
O156 O 0.17483 0.13487 0.02428 0.0
Mg157 Mg 0.12759 0.17237 0.02172 0.0
C158 C 0.20165 0.13305 0.05257 0.0
C159 C 0.31792 0.32538 0.13267 0.0
O160 O 0.30264 0.35437 0.11565 0.0
O161 O 0.1707 0.24264 0.12282 0.0
O162 O 0.13434 0.17246 0.08939 0.0
O163 O 0.28493 0.26667 0.02327 0.0
O164 O 0.20282 0.24482 0.01966 0.0
C165 C 0.12892 0.20491 0.11018 0.0
C166 C 0.24483 0.25345 0.00176 0.0
O167 O 0.29437 0.27726 0.12582 0.0
Mg168 Mg 0.68769 0.59287 0.41026 0.0
O169 O 0.62016 0.50552 0.40697 0.0
O170 O 0.64811 0.47177 0.35981 0.0
Mg171 Mg 0.72647 0.53069 0.33411 0.0
C172 C 0.61408 0.46726 0.38531 0.0
C173 C 0.67489 0.658 0.46728 0.0
O174 O 0.71833 0.68776 0.44818 0.0
O175 O 0.73872 0.5742 0.45259 0.0
O176 O 0.74849 0.54409 0.39636 0.0
O177 O 0.65156 0.61286 0.35942 0.0
O178 O 0.71043 0.59154 0.34911 0.0
C179 C 0.75936 0.55308 0.43246 0.0
C180 C 0.67922 0.604 0.33447 0.0
O181 O 0.65134 0.60963 0.46152 0.0
Mg182 Mg 0.43622 0.12012 0.41124 0.0
O183 O 0.52249 0.13597 0.41196 0.0
O184 O 0.55743 0.18608 0.35854 0.0
Mg185 Mg 0.51689 0.23032 0.35499 0.0
C186 C 0.55873 0.15773 0.38584 0.0
C187 C 0.36514 0.0391 0.46586 0.0
O188 O 0.33655 0.05452 0.44836 0.0
O189 O 0.44754 0.18626 0.45626 0.0
O190 O 0.51737 0.22367 0.42257 0.0
O191 O 0.42433 0.072 0.35682 0.0
O192 O 0.44567 0.15393 0.35318 0.0
C193 C 0.48484 0.22844 0.44377 0.0
C194 C 0.43741 0.11206 0.3353 0.0
O195 O 0.41337 0.06248 0.45936 0.0
Mg196 Mg 0.9109 0.33465 0.41031 0.0
O197 O 0.89262 0.4031 0.4091 0.0
O198 O 0.83231 0.37592 0.36202 0.0
Mg199 Mg 0.80721 0.29738 0.33573 0.0
C200 C 0.86208 0.40992 0.38708 0.0
C201 C -0.01068 0.34737 0.46821 0.0
O202 O 0.97592 0.30319 0.45032 0.0
O203 O 0.84165 0.28314 0.45477 0.0
O204 O 0.80865 0.27967 0.39802 0.0
O205 O 0.96416 0.36991 0.3566 0.0
O206 O 0.88287 0.31085 0.34991 0.0
C207 C 0.80181 0.26482 0.43333 0.0
C208 C 0.9258 0.34249 0.33344 0.0
O209 O 0.96547 0.37102 0.4607 0.0
Mg210 Mg 0.91828 0.35887 0.21401 0.0
O211 O 0.83027 0.29095 0.21794 0.0
O212 O 0.79579 0.31794 0.26547 0.0
Mg213 Mg 0.85277 0.39687 0.29094 0.0
C214 C 0.79191 0.28413 0.23999 0.0
C215 C 0.98461 0.34424 0.15712 0.0
O216 O 0.01515 0.38734 0.17633 0.0
O217 O 0.90119 0.41112 0.17076 0.0
O218 O 0.87293 0.41301 0.22896 0.0
O219 O 0.93821 0.32412 0.26566 0.0
O220 O 0.91537 0.382 0.27571 0.0
C221 C 0.88054 0.42918 0.19411 0.0
C222 C 0.92877 0.35152 0.29046 0.0
O223 O 0.93622 0.32182 0.16298 0.0
Mg224 Mg 0.66185 0.58272 0.21494 0.0
O225 O 0.72879 0.56259 0.21834 0.0
O226 O 0.69981 0.50224 0.26553 0.0
Mg227 Mg 0.62138 0.48097 0.29107 0.0
C228 C 0.73446 0.53148 0.24059 0.0
C229 C 0.67802 0.66144 0.1565 0.0
O230 O 0.63452 0.64999 0.17474 0.0
O231 O 0.61034 0.51257 0.17132 0.0
O232 O 0.60353 0.47836 0.22832 0.0
O233 O 0.69765 0.63759 0.26775 0.0
O234 O 0.63729 0.55706 0.27561 0.0
C235 C 0.59061 0.47244 0.19256 0.0
C236 C 0.66957 0.60018 0.29151 0.0
O237 O 0.69988 0.63581 0.16383 0.0
Mg238 Mg 0.44711 0.10736 0.21561 0.0
O239 O 0.46238 0.19334 0.21476 0.0
O240 O 0.51129 0.22778 0.26874 0.0
Mg241 Mg 0.55745 0.18925 0.27108 0.0
C242 C 0.48338 0.22923 0.24118 0.0
C243 C 0.36596 0.03659 0.16103 0.0
O244 O 0.38213 0.00801 0.17751 0.0
O245 O 0.51241 0.11899 0.16974 0.0
O246 O 0.54988 0.18891 0.20329 0.0
O247 O 0.39978 0.09538 0.27048 0.0
O248 O 0.48192 0.11715 0.2734 0.0
C249 C 0.55459 0.15613 0.18233 0.0
C250 C 0.44015 0.10863 0.29165 0.0
O251 O 0.38896 0.08464 0.16813 0.0
Mg252 Mg 0.66668 0.10749 0.22038 0.0
O253 O 0.73389 0.19525 0.21951 0.0
O254 O 0.71012 0.23135 0.26794 0.0
Mg255 Mg 0.63124 0.17644 0.29391 0.0
C256 C 0.74227 0.23429 0.24126 0.0
C257 C 0.67662 0.03817 0.1625 0.0
O258 O 0.63234 0.00862 0.18063 0.0
O259 O 0.61251 0.12129 0.17743 0.0
O260 O 0.6065 0.15622 0.2324 0.0
O261 O 0.70562 0.09341 0.27258 0.0
O262 O 0.64636 0.11459 0.28145 0.0
C263 C 0.59311 0.14409 0.19695 0.0
C264 C 0.67955 0.10544 0.29677 0.0
O265 O 0.70112 0.08637 0.16938 0.0
Mg266 Mg 0.90903 0.57484 0.21797 0.0
O267 O 0.82106 0.55558 0.21745 0.0
O268 O 0.78297 0.4982 0.26658 0.0
Mg269 Mg 0.83057 0.46096 0.27325 0.0
C270 C 0.7825 0.52893 0.241 0.0
C271 C 0.9816 0.6556 0.16314 0.0
O272 O 0.00897 0.63826 0.18001 0.0
O273 O 0.90096 0.51098 0.17212 0.0
O274 O 0.83179 0.46817 0.20608 0.0
O275 O 0.91961 0.62135 0.27329 0.0
O276 O 0.89913 0.5396 0.27516 0.0
C277 C 0.86567 0.46721 0.18387 0.0
C278 C 0.9068 0.58066 0.29395 0.0
O279 O 0.93353 0.63412 0.17039 0.0
Mg280 Mg 0.4462 0.3616 0.21054 0.0
O281 O 0.45858 0.28856 0.21408 0.0
O282 O 0.51918 0.31384 0.26077 0.0
Mg283 Mg 0.55847 0.39742 0.26814 0.0
C284 C 0.48537 0.27912 0.23842 0.0
C285 C 0.36327 0.34838 0.1576 0.0
O286 O 0.378 0.3926 0.1759 0.0
O287 O 0.51236 0.41099 0.16427 0.0
O288 O 0.55123 0.38479 0.20109 0.0
O289 O 0.39759 0.33277 0.26558 0.0
O290 O 0.481 0.38971 0.26787 0.0
C291 C 0.5547 0.41976 0.17874 0.0
C292 C 0.43832 0.36022 0.28661 0.0
O293 O 0.38758 0.32465 0.16301 0.0
Mg294 Mg 0.43768 0.34144 0.40673 0.0
O295 O 0.52576 0.40855 0.40664 0.0
O296 O 0.56205 0.38479 0.35821 0.0
Mg297 Mg 0.5074 0.30525 0.33325 0.0
C298 C 0.56474 0.41712 0.38464 0.0
C299 C 0.36835 0.35217 0.46602 0.0
O300 O 0.33808 0.30785 0.44819 0.0
O301 O 0.45101 0.28712 0.45023 0.0
O302 O 0.4854 0.28231 0.39485 0.0
O303 O 0.42366 0.37957 0.35395 0.0
O304 O 0.4453 0.32055 0.3456 0.0
C305 C 0.47348 0.26788 0.43012 0.0
C306 C 0.43604 0.35353 0.33001 0.0
O307 O 0.41633 0.37649 0.45797 0.0
Mg308 Mg 0.68961 0.1182 0.41612 0.0
O309 O 0.61743 0.13188 0.41251 0.0
O310 O 0.64309 0.19212 0.36549 0.0
Mg311 Mg 0.72659 0.22915 0.35662 0.0
C312 C 0.60833 0.15899 0.38825 0.0
C313 C 0.67463 0.03544 0.47007 0.0
O314 O 0.71846 0.04872 0.45162 0.0
O315 O 0.74077 0.18564 0.46104 0.0
O316 O 0.71416 0.22346 0.42346 0.0
O317 O 0.65928 0.06824 0.36172 0.0
O318 O 0.71729 0.15119 0.35825 0.0
C319 C 0.74904 0.22762 0.44619 0.0
C320 C 0.68702 0.10832 0.3401 0.0
O321 O 0.6522 0.06099 0.4646 0.0
Mg322 Mg 0.9002 0.58239 0.41374 0.0
O323 O 0.8844 0.49539 0.41238 0.0
O324 O 0.82838 0.45816 0.36239 0.0
Mg325 Mg 0.78695 0.50121 0.35904 0.0
C326 C 0.85933 0.45778 0.38769 0.0
C327 C 0.98388 0.65542 0.46572 0.0
O328 O 0.96689 0.68311 0.4489 0.0
O329 O 0.83687 0.57093 0.46136 0.0
O330 O 0.79617 0.50225 0.42673 0.0
O331 O 0.94621 0.59626 0.35791 0.0
O332 O 0.86355 0.57279 0.35695 0.0
C333 C 0.79388 0.53629 0.44792 0.0
C334 C 0.90509 0.58281 0.33766 0.0
O335 O 0.96079 0.60703 0.45983 0.0
Mg336 Mg 0.35301 0.9238 0.74593 0.0
O337 O 0.28505 0.83579 0.74219 0.0
O338 O 0.31202 0.80122 0.69473 0.0
Mg339 Mg 0.39094 0.85813 0.66922 0.0
C340 C 0.27821 0.79739 0.72018 0.0
C341 C 0.33858 0.99028 0.80292 0.0
O342 O 0.38175 0.02081 0.78377 0.0
O343 O 0.40532 0.90688 0.78922 0.0
O344 O 0.40757 0.87828 0.73119 0.0
O345 O 0.31818 0.94356 0.69423 0.0
O346 O 0.37607 0.92072 0.68429 0.0
C347 C 0.42355 0.88616 0.7661 0.0
C348 C 0.34558 0.93404 0.66948 0.0
O349 O 0.31604 0.94192 0.79694 0.0
Mg350 Mg 0.10186 0.45279 0.74462 0.0
O351 O 0.18784 0.46809 0.74541 0.0
O352 O 0.2224 0.51735 0.69159 0.0
Mg353 Mg 0.18365 0.56335 0.6892 0.0
C354 C 0.2238 0.48926 0.71904 0.0
C355 C 0.03105 0.37171 0.79929 0.0
O356 O 0.00251 0.38798 0.7829 0.0
O357 O 0.11358 0.51804 0.79051 0.0
O358 O 0.18338 0.5557 0.75678 0.0
O359 O 0.08987 0.40555 0.68972 0.0
O360 O 0.11166 0.4877 0.68688 0.0
C361 C 0.15055 0.56025 0.77779 0.0
C362 C 0.10315 0.44597 0.66859 0.0
O363 O 0.07908 0.39458 0.79208 0.0
Mg364 Mg 0.57704 0.66758 0.74541 0.0
O365 O 0.55703 0.73462 0.74207 0.0
O366 O 0.4967 0.70578 0.69488 0.0
Mg367 Mg 0.47517 0.62736 0.66929 0.0
C368 C 0.52597 0.74038 0.71983 0.0
C369 C 0.65591 0.68377 0.80378 0.0
O370 O 0.64445 0.64027 0.78555 0.0
O371 O 0.50692 0.61606 0.78908 0.0
O372 O 0.4731 0.60966 0.73201 0.0
O373 O 0.6318 0.70325 0.69252 0.0
O374 O 0.5512 0.643 0.68475 0.0
C375 C 0.46691 0.59648 0.76771 0.0
C376 C 0.59434 0.67518 0.66881 0.0
O377 O 0.63024 0.7056 0.79646 0.0
Mg378 Mg 0.58706 0.69317 0.55004 0.0
O379 O 0.4997 0.62557 0.55325 0.0
O380 O 0.46581 0.65342 0.60035 0.0
Mg381 Mg 0.5246 0.73176 0.62611 0.0
C382 C 0.46138 0.61943 0.57487 0.0
C383 C 0.65234 0.68049 0.49308 0.0
O384 O 0.68205 0.72393 0.51219 0.0
O385 O 0.56849 0.74425 0.5077 0.0
O386 O 0.53826 0.75396 0.56391 0.0
O387 O 0.60703 0.65711 0.60092 0.0
O388 O 0.58559 0.71589 0.61116 0.0
C389 C 0.54739 0.76491 0.52782 0.0
C390 C 0.5981 0.68474 0.62584 0.0
O391 O 0.60396 0.65689 0.49881 0.0
Mg392 Mg 0.32898 0.91624 0.54961 0.0
O393 O 0.39757 0.89811 0.55093 0.0
O394 O 0.3705 0.83787 0.59808 0.0
Mg395 Mg 0.29189 0.81241 0.62427 0.0
C396 C 0.4045 0.86769 0.57303 0.0
C397 C 0.34167 -0.0052 0.49196 0.0
O398 O 0.29752 0.98134 0.50994 0.0
O399 O 0.27745 0.84706 0.50508 0.0
O400 O 0.27477 0.81505 0.56204 0.0
O401 O 0.36399 0.9694 0.60334 0.0
O402 O 0.30508 0.88804 0.61002 0.0
C403 C 0.25937 0.80756 0.52687 0.0
C404 C 0.3366 0.93102 0.62649 0.0
O405 O 0.36534 0.97092 0.4993 0.0
Mg406 Mg 0.11455 0.44205 0.549 0.0
O407 O 0.13047 0.52836 0.54836 0.0
O408 O 0.18102 0.56346 0.60155 0.0
Mg409 Mg 0.22494 0.52261 0.60519 0.0
C410 C 0.15244 0.56466 0.57441 0.0
C411 C 0.03353 0.3709 0.4944 0.0
O412 O 0.049 0.34238 0.51193 0.0
O413 O 0.18061 0.45324 0.50392 0.0
O414 O 0.21822 0.52304 0.53761 0.0
O415 O 0.06648 0.43019 0.60345 0.0
O416 O 0.14842 0.45151 0.60703 0.0
C417 C 0.22285 0.49044 0.51641 0.0
C418 C 0.10657 0.44328 0.62494 0.0
O419 O 0.05684 0.41913 0.50089 0.0
Mg420 Mg 0.33569 0.44302 0.5534 0.0
O421 O 0.40276 0.53111 0.55352 0.0
O422 O 0.37893 0.56728 0.60199 0.0
Mg423 Mg 0.29939 0.51254 0.62695 0.0
C424 C 0.41128 0.57005 0.57554 0.0
C425 C 0.34661 0.37383 0.49409 0.0
O426 O 0.3023 0.3435 0.51193 0.0
O427 O 0.28139 0.45642 0.5099 0.0
O428 O 0.27657 0.49068 0.56533 0.0
O429 O 0.37384 0.42898 0.60617 0.0
O430 O 0.31475 0.45052 0.61454 0.0
C431 C 0.26216 0.47887 0.53006 0.0
C432 C 0.34775 0.44129 0.63012 0.0
O433 O 0.37084 0.42181 0.50213 0.0
Mg434 Mg 0.57707 0.90603 0.54669 0.0
O435 O 0.49004 0.89012 0.54784 0.0
O436 O 0.45289 0.83434 0.59798 0.0
Mg437 Mg 0.49587 0.79284 0.6013 0.0
C438 C 0.45245 0.86513 0.57256 0.0
C439 C 0.65001 0.98962 0.49454 0.0
O440 O 0.67776 0.97264 0.51129 0.0
O441 O 0.56579 0.8427 0.49912 0.0
O442 O 0.49694 0.80211 0.5336 0.0
O443 O 0.59064 0.95201 0.60251 0.0
O444 O 0.56741 0.86942 0.60352 0.0
C445 C 0.53093 0.79971 0.51242 0.0
C446 C 0.57723 0.91091 0.62279 0.0
O447 O 0.60164 0.96655 0.50055 0.0
Mg448 Mg 0.11213 0.69506 0.54447 0.0
O449 O 0.12614 0.62313 0.54801 0.0
O450 O 0.18639 0.64891 0.59502 0.0
Mg451 Mg 0.22291 0.73239 0.60427 0.0
C452 C 0.15341 0.61414 0.57218 0.0
C453 C 0.02968 0.6801 0.49022 0.0
O454 O 0.0429 0.72395 0.50861 0.0
O455 O 0.17976 0.74647 0.49976 0.0
O456 O 0.21757 0.72 0.53751 0.0
O457 O 0.06199 0.66445 0.59882 0.0
O458 O 0.14484 0.72268 0.60239 0.0
C459 C 0.22175 0.75469 0.51457 0.0
C460 C 0.10199 0.69228 0.6205 0.0
O461 O 0.05519 0.65766 0.49584 0.0
Mg462 Mg 0.10166 0.67205 0.74029 0.0
O463 O 0.18939 0.73935 0.74083 0.0
O464 O 0.22537 0.71554 0.69229 0.0
Mg465 Mg 0.17048 0.63641 0.66653 0.0
C466 C 0.22836 0.74775 0.71897 0.0
C467 C 0.03254 0.68237 0.79797 0.0
O468 O 0.00293 0.63819 0.77975 0.0
O469 O 0.11562 0.618 0.78349 0.0
O470 O 0.14997 0.61269 0.72815 0.0
O471 O 0.08725 0.71082 0.68807 0.0
O472 O 0.10852 0.65163 0.67906 0.0
C473 C 0.1383 0.59883 0.76356 0.0
C474 C 0.09915 0.68471 0.6638 0.0
O475 O 0.08077 0.70671 0.79123 0.0
Mg476 Mg 0.35596 0.45174 0.74959 0.0
O477 O 0.28302 0.46427 0.74605 0.0
O478 O 0.30837 0.52485 0.69933 0.0
Mg479 Mg 0.39197 0.56387 0.69183 0.0
C480 C 0.27363 0.49111 0.72172 0.0
C481 C 0.34284 0.36902 0.80263 0.0
O482 O 0.38709 0.38382 0.78435 0.0
O483 O 0.40548 0.51801 0.79575 0.0
O484 O 0.37927 0.55678 0.75884 0.0
O485 O 0.32699 0.40298 0.69462 0.0
O486 O 0.38404 0.48633 0.6922 0.0
C487 C 0.41418 0.56032 0.78129 0.0
C488 C 0.35448 0.44364 0.67352 0.0
O489 O 0.31903 0.39325 0.79721 0.0
Mg490 Mg 0.56918 0.91487 0.7425 0.0
O491 O 0.55 0.82693 0.74305 0.0
O492 O 0.49273 0.78891 0.69386 0.0
Mg493 Mg 0.45533 0.83634 0.68737 0.0
C494 C 0.52344 0.78842 0.71944 0.0
C495 C 0.65007 0.98745 0.79721 0.0
O496 O 0.6328 0.01485 0.7803 0.0
O497 O 0.50532 0.90684 0.78838 0.0
O498 O 0.46273 0.83756 0.75454 0.0
O499 O 0.61569 0.9254 0.68719 0.0
O500 O 0.53394 0.90498 0.68528 0.0
C501 C 0.46159 0.87143 0.77664 0.0
C502 C 0.57502 0.91262 0.6665 0.0
O503 O 0.62848 0.93936 0.79005 0.0
loop_
_geom_bond_atom_site_label_1
_geom_bond_atom_site_label_2
_geom_bond_distance
_geom_bond_site_symmetry_2
_ccdc_geom_bond_type
Mg0 O1 2.028 1_455 S
Mg0 O7 1.986 . S
Mg0 O9 2.114 . S
Mg0 O10 2.251 . S
Mg0 O13 2.010 . S
O1 Mg0 2.028 1_655 S
O1 C4 1.250 . S
O2 Mg3 2.028 1_655 S
O2 C4 1.248 . S
Mg3 O2 2.028 1_455 S
Mg3 O8 2.032 . S
Mg3 O10 2.079 . S
C4 O1 1.250 . S
C4 O2 1.248 . S
C5 O6 1.264 . S
C5 O13 1.249 . S
O6 C5 1.264 . S
O7 Mg0 1.986 . S
O7 C11 1.246 . S
O8 Mg3 2.032 . S
O8 C11 1.259 . S
O9 Mg0 2.114 . S
O9 C12 1.252 . S
O10 Mg0 2.251 . S
O10 Mg3 2.079 . S
O10 C12 1.273 . S
C11 O7 1.246 . S
C11 O8 1.259 . S
C12 O9 1.252 . S
C12 O10 1.273 . S
O13 Mg0 2.010 . S
O13 C5 1.249 . S
Mg14 O15 2.028 . S
Mg14 O21 1.986 . S
Mg14 O23 2.114 . S
Mg14 O24 2.251 . S
Mg14 O27 2.010 . S
O15 Mg14 2.028 . S
O15 C18 1.250 . S
O16 Mg17 2.028 . S
O16 C18 1.248 . S
Mg17 O16 2.028 . S
Mg17 O22 2.032 . S
Mg17 O24 2.079 . S
C18 O15 1.250 . S
C18 O16 1.248 . S
C19 O20 1.264 . S
C19 O27 1.249 . S
O20 C19 1.264 . S
O21 Mg14 1.986 . S
O21 C25 1.246 . S
O22 Mg17 2.032 . S
O22 C25 1.259 . S
O23 Mg14 2.114 . S
O23 C26 1.252 . S
O24 Mg14 2.251 . S
O24 Mg17 2.079 . S
O24 C26 1.273 . S
C25 O21 1.246 . S
C25 O22 1.259 . S
C26 O23 1.252 . S
C26 O24 1.273 . S
O27 Mg14 2.010 . S
O27 C19 1.249 . S
Mg28 O29 2.028 . S
Mg28 O35 1.986 1_545 S
Mg28 O37 2.114 . S
Mg28 O38 2.251 . S
Mg28 O41 2.010 . S
O29 Mg28 2.028 . S
O29 C32 1.250 . S
O30 Mg31 2.028 . S
O30 C32 1.248 . S
Mg31 O30 2.028 . S
Mg31 O36 2.032 1_545 S
Mg31 O38 2.079 . S
C32 O29 1.250 . S
C32 O30 1.248 . S
C33 O34 1.264 . S
C33 O41 1.249 . S
O34 C33 1.264 . S
O35 Mg28 1.986 1_565 S
O35 C39 1.246 . S
O36 Mg31 2.032 1_565 S
O36 C39 1.259 . S
O37 Mg28 2.114 . S
O37 C40 1.252 . S
O38 Mg28 2.251 . S
O38 Mg31 2.079 . S
O38 C40 1.273 . S
C39 O35 1.246 . S
C39 O36 1.259 . S
C40 O37 1.252 . S
C40 O38 1.273 . S
O41 Mg28 2.010 . S
O41 C33 1.249 . S
Mg42 O43 2.028 1_545 S
Mg42 O49 1.986 . S
Mg42 O51 2.114 . S
Mg42 O52 2.251 . S
Mg42 O55 2.010 . S
O43 Mg42 2.028 1_565 S
O43 C46 1.250 . S
O44 Mg45 2.028 1_565 S
O44 C46 1.248 . S
Mg45 O44 2.028 1_545 S
Mg45 O50 2.032 . S
Mg45 O52 2.079 . S
C46 O43 1.250 . S
C46 O44 1.248 . S
C47 O48 1.264 . S
C47 O55 1.249 . S
O48 C47 1.264 . S
O49 Mg42 1.986 . S
O49 C53 1.246 . S
O50 Mg45 2.032 . S
O50 C53 1.259 . S
O51 Mg42 2.114 . S
O51 C54 1.252 . S
O52 Mg42 2.251 . S
O52 Mg45 2.079 . S
O52 C54 1.273 . S
C53 O49 1.246 . S
C53 O50 1.259 . S
C54 O51 1.252 . S
C54 O52 1.273 . S
O55 Mg42 2.010 . S
O55 C47 1.249 . S
Mg56 O57 2.028 . S
Mg56 O63 1.986 1_455 S
Mg56 O65 2.114 . S
Mg56 O66 2.251 . S
Mg56 O69 2.010 . S
O57 Mg56 2.028 . S
O57 C60 1.250 . S
O58 Mg59 2.028 . S
O58 C60 1.248 . S
Mg59 O58 2.028 . S
Mg59 O64 2.032 1_455 S
Mg59 O66 2.079 . S
C60 O57 1.250 . S
C60 O58 1.248 . S
C61 O62 1.264 . S
C61 O69 1.249 . S
O62 C61 1.264 . S
O63 Mg56 1.986 1_655 S
O63 C67 1.246 . S
O64 Mg59 2.032 1_655 S
O64 C67 1.259 . S
O65 Mg56 2.114 . S
O65 C68 1.252 . S
O66 Mg56 2.251 . S
O66 Mg59 2.079 . S
O66 C68 1.273 . S
C67 O63 1.246 . S
C67 O64 1.259 . S
C68 O65 1.252 . S
C68 O66 1.273 . S
O69 Mg56 2.010 . S
O69 C61 1.249 . S
Mg70 O71 2.028 . S
Mg70 O77 1.986 . S
Mg70 O79 2.114 . S
Mg70 O80 2.251 . S
Mg70 O83 2.010 . S
O71 Mg70 2.028 . S
O71 C74 1.250 . S
O72 Mg73 2.028 . S
O72 C74 1.248 . S
Mg73 O72 2.028 . S
Mg73 O78 2.032 . S
Mg73 O80 2.079 . S
C74 O71 1.250 . S
C74 O72 1.248 . S
C75 O76 1.264 . S
C75 O83 1.249 . S
O76 C75 1.264 . S
O77 Mg70 1.986 . S
O77 C81 1.246 . S
O78 Mg73 2.032 . S
O78 C81 1.259 . S
O79 Mg70 2.114 . S
O79 C82 1.252 . S
O80 Mg70 2.251 . S
O80 Mg73 2.079 . S
O80 C82 1.273 . S
C81 O77 1.246 . S
C81 O78 1.259 . S
C82 O79 1.252 . S
C82 O80 1.273 . S
O83 Mg70 2.010 . S
O83 C75 1.249 . S
Mg84 O85 2.028 . S
Mg84 O91 1.986 1_455 S
Mg84 O93 2.114 . S
Mg84 O94 2.251 . S
Mg84 O97 2.010 . S
O85 Mg84 2.028 . S
O85 C88 1.250 . S
O86 Mg87 2.028 . S
O86 C88 1.248 . S
Mg87 O86 2.028 . S
Mg87 O92 2.032 1_455 S
Mg87 O94 2.079 . S
C88 O85 1.250 . S
C88 O86 1.248 . S
C89 O90 1.264 . S
C89 O97 1.249 . S
O90 C89 1.264 . S
O91 Mg84 1.986 1_655 S
O91 C95 1.246 . S
O92 Mg87 2.032 1_655 S
O92 C95 1.259 . S
O93 Mg84 2.114 . S
O93 C96 1.252 . S
O94 Mg84 2.251 . S
O94 Mg87 2.079 . S
O94 C96 1.273 . S
C95 O91 1.246 . S
C95 O92 1.259 . S
C96 O93 1.252 . S
C96 O94 1.273 . S
O97 Mg84 2.010 . S
O97 C89 1.249 . S
Mg98 O99 2.028 . S
Mg98 O105 1.986 . S
Mg98 O107 2.114 . S
Mg98 O108 2.251 . S
Mg98 O111 2.010 . S
O99 Mg98 2.028 . S
O99 C102 1.250 . S
O100 Mg101 2.028 . S
O100 C102 1.248 . S
Mg101 O100 2.028 . S
Mg101 O106 2.032 . S
Mg101 O108 2.079 . S
C102 O99 1.250 . S
C102 O100 1.248 . S
C103 O104 1.264 . S
C103 O111 1.249 . S
O104 C103 1.264 . S
O105 Mg98 1.986 . S
O105 C109 1.246 . S
O106 Mg101 2.032 . S
O106 C109 1.259 . S
O107 Mg98 2.114 . S
O107 C110 1.252 . S
O108 Mg98 2.251 . S
O108 Mg101 2.079 . S
O108 C110 1.273 . S
C109 O105 1.246 . S
C109 O106 1.259 . S
C110 O107 1.252 . S
C110 O108 1.273 . S
O111 Mg98 2.010 . S
O111 C103 1.249 . S
Mg112 O113 2.028 1_545 S
Mg112 O119 1.986 . S
Mg112 O121 2.114 . S
Mg112 O122 2.251 . S
Mg112 O125 2.010 . S
O113 Mg112 2.028 1_565 S
O113 C116 1.250 . S
O114 Mg115 2.028 1_565 S
O114 C116 1.248 . S
Mg115 O114 2.028 1_545 S
Mg115 O120 2.032 . S
Mg115 O122 2.079 . S
C116 O113 1.250 . S
C116 O114 1.248 . S
C117 O118 1.264 . S
C117 O125 1.249 . S
O118 C117 1.264 . S
O119 Mg112 1.986 . S
O119 C123 1.246 . S
O120 Mg115 2.032 . S
O120 C123 1.259 . S
O121 Mg112 2.114 . S
O121 C124 1.252 . S
O122 Mg112 2.251 . S
O122 Mg115 2.079 . S
O122 C124 1.273 . S
C123 O119 1.246 . S
C123 O120 1.259 . S
C124 O121 1.252 . S
C124 O122 1.273 . S
O125 Mg112 2.010 . S
O125 C117 1.249 . S
Mg126 O127 2.028 . S
Mg126 O133 1.986 1_545 S
Mg126 O135 2.114 . S
Mg126 O136 2.251 . S
Mg126 O139 2.010 . S
O127 Mg126 2.028 . S
O127 C130 1.250 . S
O128 Mg129 2.028 . S
O128 C130 1.248 . S
Mg129 O128 2.028 . S
Mg129 O134 2.032 1_545 S
Mg129 O136 2.079 . S
C130 O127 1.250 . S
C130 O128 1.248 . S
C131 O132 1.264 . S
C131 O139 1.249 . S
O132 C131 1.264 . S
O133 Mg126 1.986 1_565 S
O133 C137 1.246 . S
O134 Mg129 2.032 1_565 S
O134 C137 1.259 . S
O135 Mg126 2.114 . S
O135 C138 1.252 . S
O136 Mg126 2.251 . S
O136 Mg129 2.079 . S
O136 C138 1.273 . S
C137 O133 1.246 . S
C137 O134 1.259 . S
C138 O135 1.252 . S
C138 O136 1.273 . S
O139 Mg126 2.010 . S
O139 C131 1.249 . S
Mg140 O141 2.028 1_455 S
Mg140 O147 1.986 . S
Mg140 O149 2.114 . S
Mg140 O150 2.251 . S
Mg140 O153 2.010 . S
O141 Mg140 2.028 1_655 S
O141 C144 1.250 . S
O142 Mg143 2.028 1_655 S
O142 C144 1.248 . S
Mg143 O142 2.028 1_455 S
Mg143 O148 2.032 . S
Mg143 O150 2.079 . S
C144 O141 1.250 . S
C144 O142 1.248 . S
C145 O146 1.264 . S
C145 O153 1.249 . S
O146 C145 1.264 . S
O147 Mg140 1.986 . S
O147 C151 1.246 . S
O148 Mg143 2.032 . S
O148 C151 1.259 . S
O149 Mg140 2.114 . S
O149 C152 1.252 . S
O150 Mg140 2.251 . S
O150 Mg143 2.079 . S
O150 C152 1.273 . S
C151 O147 1.246 . S
C151 O148 1.259 . S
C152 O149 1.252 . S
C152 O150 1.273 . S
O153 Mg140 2.010 . S
O153 C145 1.249 . S
Mg154 O155 2.028 . S
Mg154 O161 1.986 . S
Mg154 O163 2.114 . S
Mg154 O164 2.251 . S
Mg154 O167 2.010 . S
O155 Mg154 2.028 . S
O155 C158 1.250 . S
O156 Mg157 2.028 . S
O156 C158 1.248 . S
Mg157 O156 2.028 . S
Mg157 O162 2.032 . S
Mg157 O164 2.079 . S
C158 O155 1.250 . S
C158 O156 1.248 . S
C159 O160 1.264 . S
C159 O167 1.249 . S
O160 C159 1.264 . S
O161 Mg154 1.986 . S
O161 C165 1.246 . S
O162 Mg157 2.032 . S
O162 C165 1.259 . S
O163 Mg154 2.114 . S
O163 C166 1.252 . S
O164 Mg154 2.251 . S
O164 Mg157 2.079 . S
O164 C166 1.273 . S
C165 O161 1.246 . S
C165 O162 1.259 . S
C166 O163 1.252 . S
C166 O164 1.273 . S
O167 Mg154 2.010 . S
O167 C159 1.249 . S
Mg168 O169 2.028 . S
Mg168 O175 1.986 . S
Mg168 O177 2.114 . S
Mg168 O178 2.251 . S
Mg168 O181 2.010 . S
O169 Mg168 2.028 . S
O169 C172 1.250 . S
O170 Mg171 2.028 . S
O170 C172 1.248 . S
Mg171 O170 2.028 . S
Mg171 O176 2.032 . S
Mg171 O178 2.079 . S
C172 O169 1.250 . S
C172 O170 1.248 . S
C173 O174 1.264 . S
C173 O181 1.249 . S
O174 C173 1.264 . S
O175 Mg168 1.986 . S
O175 C179 1.246 . S
O176 Mg171 2.032 . S
O176 C179 1.259 . S
O177 Mg168 2.114 . S
O177 C180 1.252 . S
O178 Mg168 2.251 . S
O178 Mg171 2.079 . S
O178 C180 1.273 . S
C179 O175 1.246 . S
C179 O176 1.259 . S
C180 O177 1.252 . S
C180 O178 1.273 . S
O181 Mg168 2.010 . S
O181 C173 1.249 . S
Mg182 O183 2.028 . S
Mg182 O189 1.986 . S
Mg182 O191 2.114 . S
Mg182 O192 2.251 . S
Mg182 O195 2.010 . S
O183 Mg182 2.028 . S
O183 C186 1.250 . S
O184 Mg185 2.028 . S
O184 C186 1.248 . S
Mg185 O184 2.028 . S
Mg185 O190 2.032 . S
Mg185 O192 2.079 . S
C186 O183 1.250 . S
C186 O184 1.248 . S
C187 O188 1.264 . S
C187 O195 1.249 . S
O188 C187 1.264 . S
O189 Mg182 1.986 . S
O189 C193 1.246 . S
O190 Mg185 2.032 . S
O190 C193 1.259 . S
O191 Mg182 2.114 . S
O191 C194 1.252 . S
O192 Mg182 2.251 . S
O192 Mg185 2.079 . S
O192 C194 1.273 . S
C193 O189 1.246 . S
C193 O190 1.259 . S
C194 O191 1.252 . S
C194 O192 1.273 . S
O195 Mg182 2.010 . S
O195 C187 1.249 . S
Mg196 O197 2.028 . S
Mg196 O203 1.986 . S
Mg196 O205 2.114 . S
Mg196 O206 2.251 . S
Mg196 O209 2.010 . S
O197 Mg196 2.028 . S
O197 C200 1.250 . S
O198 Mg199 2.028 . S
O198 C200 1.248 . S
Mg199 O198 2.028 . S
Mg199 O204 2.032 . S
Mg199 O206 2.079 . S
C200 O197 1.250 . S
C200 O198 1.248 . S
C201 O202 1.264 . S
C201 O209 1.249 1_455 S
O202 C201 1.264 . S
O203 Mg196 1.986 . S
O203 C207 1.246 . S
O204 Mg199 2.032 . S
O204 C207 1.259 . S
O205 Mg196 2.114 . S
O205 C208 1.252 . S
O206 Mg196 2.251 . S
O206 Mg199 2.079 . S
O206 C208 1.273 . S
C207 O203 1.246 . S
C207 O204 1.259 . S
C208 O205 1.252 . S
C208 O206 1.273 . S
O209 Mg196 2.010 . S
O209 C201 1.249 1_655 S
Mg210 O211 2.028 . S
Mg210 O217 1.986 . S
Mg210 O219 2.114 . S
Mg210 O220 2.251 . S
Mg210 O223 2.010 . S
O211 Mg210 2.028 . S
O211 C214 1.250 . S
O212 Mg213 2.028 . S
O212 C214 1.248 . S
Mg213 O212 2.028 . S
Mg213 O218 2.032 . S
Mg213 O220 2.079 . S
C214 O211 1.250 . S
C214 O212 1.248 . S
C215 O216 1.264 . S
C215 O223 1.249 1_455 S
O216 C215 1.264 . S
O217 Mg210 1.986 . S
O217 C221 1.246 . S
O218 Mg213 2.032 . S
O218 C221 1.259 . S
O219 Mg210 2.114 . S
O219 C222 1.252 . S
O220 Mg210 2.251 . S
O220 Mg213 2.079 . S
O220 C222 1.273 . S
C221 O217 1.246 . S
C221 O218 1.259 . S
C222 O219 1.252 . S
C222 O220 1.273 . S
O223 Mg210 2.010 . S
O223 C215 1.249 1_655 S
Mg224 O225 2.028 . S
Mg224 O231 1.986 . S
Mg224 O233 2.114 . S
Mg224 O234 2.251 . S
Mg224 O237 2.010 . S
O225 Mg224 2.028 . S
O225 C228 1.250 . S
O226 Mg227 2.028 . S
O226 C228 1.248 . S
Mg227 O226 2.028 . S
Mg227 O232 2.032 . S
Mg227 O234 2.079 . S
C228 O225 1.250 . S
C228 O226 1.248 . S
C229 O230 1.264 . S
C229 O237 1.249 . S
O230 C229 1.264 . S
O231 Mg224 1.986 . S
O231 C235 1.246 . S
O232 Mg227 2.032 . S
O232 C235 1.259 . S
O233 Mg224 2.114 . S
O233 C236 1.252 . S
O234 Mg224 2.251 . S
O234 Mg227 2.079 . S
O234 C236 1.273 . S
C235 O231 1.246 . S
C235 O232 1.259 . S
C236 O233 1.252 . S
C236 O234 1.273 . S
O237 Mg224 2.010 . S
O237 C229 1.249 . S
Mg238 O239 2.028 . S
Mg238 O245 1.986 . S
Mg238 O247 2.114 . S
Mg238 O248 2.251 . S
Mg238 O251 2.010 . S
O239 Mg238 2.028 . S
O239 C242 1.250 . S
O240 Mg241 2.028 . S
O240 C242 1.248 . S
Mg241 O240 2.028 . S
Mg241 O246 2.032 . S
Mg241 O248 2.079 . S
C242 O239 1.250 . S
C242 O240 1.248 . S
C243 O244 1.264 1_545 S
C243 O251 1.249 . S
O244 C243 1.264 1_565 S
O245 Mg238 1.986 . S
O245 C249 1.246 . S
O246 Mg241 2.032 . S
O246 C249 1.259 . S
O247 Mg238 2.114 . S
O247 C250 1.252 . S
O248 Mg238 2.251 . S
O248 Mg241 2.079 . S
O248 C250 1.273 . S
C249 O245 1.246 . S
C249 O246 1.259 . S
C250 O247 1.252 . S
C250 O248 1.273 . S
O251 Mg238 2.010 . S
O251 C243 1.249 . S
Mg252 O253 2.028 . S
Mg252 O259 1.986 . S
Mg252 O261 2.114 . S
Mg252 O262 2.251 . S
Mg252 O265 2.010 . S
O253 Mg252 2.028 . S
O253 C256 1.250 . S
O254 Mg255 2.028 . S
O254 C256 1.248 . S
Mg255 O254 2.028 . S
Mg255 O260 2.032 . S
Mg255 O262 2.079 . S
C256 O253 1.250 . S
C256 O254 1.248 . S
C257 O258 1.264 1_545 S
C257 O265 1.249 . S
O258 C257 1.264 1_565 S
O259 Mg252 1.986 . S
O259 C263 1.246 . S
O260 Mg255 2.032 . S
O260 C263 1.259 . S
O261 Mg252 2.114 . S
O261 C264 1.252 . S
O262 Mg252 2.251 . S
O262 Mg255 2.079 . S
O262 C264 1.273 . S
C263 O259 1.246 . S
C263 O260 1.259 . S
C264 O261 1.252 . S
C264 O262 1.273 . S
O265 Mg252 2.010 . S
O265 C257 1.249 . S
Mg266 O267 2.028 . S
Mg266 O273 1.986 . S
Mg266 O275 2.114 . S
Mg266 O276 2.251 . S
Mg266 O279 2.010 . S
O267 Mg266 2.028 . S
O267 C270 1.250 . S
O268 Mg269 2.028 . S
O268 C270 1.248 . S
Mg269 O268 2.028 . S
Mg269 O274 2.032 . S
Mg269 O276 2.079 . S
C270 O267 1.250 . S
C270 O268 1.248 . S
C271 O272 1.264 . S
C271 O279 1.249 1_455 S
O272 C271 1.264 . S
O273 Mg266 1.986 . S
O273 C277 1.246 . S
O274 Mg269 2.032 . S
O274 C277 1.259 . S
O275 Mg266 2.114 . S
O275 C278 1.252 . S
O276 Mg266 2.251 . S
O276 Mg269 2.079 . S
O276 C278 1.273 . S
C277 O273 1.246 . S
C277 O274 1.259 . S
C278 O275 1.252 . S
C278 O276 1.273 . S
O279 Mg266 2.010 . S
O279 C271 1.249 1_655 S
Mg280 O281 2.028 . S
Mg280 O287 1.986 . S
Mg280 O289 2.114 . S
Mg280 O290 2.251 . S
Mg280 O293 2.010 . S
O281 Mg280 2.028 . S
O281 C284 1.250 . S
O282 Mg283 2.028 . S
O282 C284 1.248 . S
Mg283 O282 2.028 . S
Mg283 O288 2.032 . S
Mg283 O290 2.079 . S
C284 O281 1.250 . S
C284 O282 1.248 . S
C285 O286 1.264 . S
C285 O293 1.249 . S
O286 C285 1.264 . S
O287 Mg280 1.986 . S
O287 C291 1.246 . S
O288 Mg283 2.032 . S
O288 C291 1.259 . S
O289 Mg280 2.114 . S
O289 C292 1.252 . S
O290 Mg280 2.251 . S
O290 Mg283 2.079 . S
O290 C292 1.273 . S
C291 O287 1.246 . S
C291 O288 1.259 . S
C292 O289 1.252 . S
C292 O290 1.273 . S
O293 Mg280 2.010 . S
O293 C285 1.249 . S
Mg294 O295 2.028 . S
Mg294 O301 1.986 . S
Mg294 O303 2.114 . S
Mg294 O304 2.251 . S
Mg294 O307 2.010 . S
O295 Mg294 2.028 . S
O295 C298 1.250 . S
O296 Mg297 2.028 . S
O296 C298 1.248 . S
Mg297 O296 2.028 . S
Mg297 O302 2.032 . S
Mg297 O304 2.079 . S
C298 O295 1.250 . S
C298 O296 1.248 . S
C299 O300 1.264 . S
C299 O307 1.249 . S
O300 C299 1.264 . S
O301 Mg294 1.986 . S
O301 C305 1.246 . S
O302 Mg297 2.032 . S
O302 C305 1.259 . S
O303 Mg294 2.114 . S
O303 C306 1.252 . S
O304 Mg294 2.251 . S
O304 Mg297 2.079 . S
O304 C306 1.273 . S
C305 O301 1.246 . S
C305 O302 1.259 . S
C306 O303 1.252 . S
C306 O304 1.273 . S
O307 Mg294 2.010 . S
O307 C299 1.249 . S
Mg308 O309 2.028 . S
Mg308 O315 1.986 . S
Mg308 O317 2.114 . S
Mg308 O318 2.251 . S
Mg308 O321 2.010 . S
O309 Mg308 2.028 . S
O309 C312 1.250 . S
O310 Mg311 2.028 . S
O310 C312 1.248 . S
Mg311 O310 2.028 . S
Mg311 O316 2.032 . S
Mg311 O318 2.079 . S
C312 O309 1.250 . S
C312 O310 1.248 . S
C313 O314 1.264 . S
C313 O321 1.249 . S
O314 C313 1.264 . S
O315 Mg308 1.986 . S
O315 C319 1.246 . S
O316 Mg311 2.032 . S
O316 C319 1.259 . S
O317 Mg308 2.114 . S
O317 C320 1.252 . S
O318 Mg308 2.251 . S
O318 Mg311 2.079 . S
O318 C320 1.273 . S
C319 O315 1.246 . S
C319 O316 1.259 . S
C320 O317 1.252 . S
C320 O318 1.273 . S
O321 Mg308 2.010 . S
O321 C313 1.249 . S
Mg322 O323 2.028 . S
Mg322 O329 1.986 . S
Mg322 O331 2.114 . S
Mg322 O332 2.251 . S
Mg322 O335 2.010 . S
O323 Mg322 2.028 . S
O323 C326 1.250 . S
O324 Mg325 2.028 . S
O324 C326 1.248 . S
Mg325 O324 2.028 . S
Mg325 O330 2.032 . S
Mg325 O332 2.079 . S
C326 O323 1.250 . S
C326 O324 1.248 . S
C327 O328 1.264 . S
C327 O335 1.249 1_455 S
O328 C327 1.264 . S
O329 Mg322 1.986 . S
O329 C333 1.246 . S
O330 Mg325 2.032 . S
O330 C333 1.259 . S
O331 Mg322 2.114 . S
O331 C334 1.252 . S
O332 Mg322 2.251 . S
O332 Mg325 2.079 . S
O332 C334 1.273 . S
C333 O329 1.246 . S
C333 O330 1.259 . S
C334 O331 1.252 . S
C334 O332 1.273 . S
O335 Mg322 2.010 . S
O335 C327 1.249 1_655 S
Mg336 O337 2.028 . S
Mg336 O343 1.986 . S
Mg336 O345 2.114 . S
Mg336 O346 2.251 . S
Mg336 O349 2.010 . S
O337 Mg336 2.028 . S
O337 C340 1.250 . S
O338 Mg339 2.028 . S
O338 C340 1.248 . S
Mg339 O338 2.028 . S
Mg339 O344 2.032 . S
Mg339 O346 2.079 . S
C340 O337 1.250 . S
C340 O338 1.248 . S
C341 O342 1.264 . S
C341 O349 1.249 1_545 S
O342 C341 1.264 . S
O343 Mg336 1.986 . S
O343 C347 1.246 . S
O344 Mg339 2.032 . S
O344 C347 1.259 . S
O345 Mg336 2.114 . S
O345 C348 1.252 . S
O346 Mg336 2.251 . S
O346 Mg339 2.079 . S
O346 C348 1.273 . S
C347 O343 1.246 . S
C347 O344 1.259 . S
C348 O345 1.252 . S
C348 O346 1.273 . S
O349 Mg336 2.010 . S
O349 C341 1.249 1_565 S
Mg350 O351 2.028 . S
Mg350 O357 1.986 . S
Mg350 O359 2.114 . S
Mg350 O360 2.251 . S
Mg350 O363 2.010 . S
O351 Mg350 2.028 . S
O351 C354 1.250 . S
O352 Mg353 2.028 . S
O352 C354 1.248 . S
Mg353 O352 2.028 . S
Mg353 O358 2.032 . S
Mg353 O360 2.079 . S
C354 O351 1.250 . S
C354 O352 1.248 . S
C355 O356 1.264 1_455 S
C355 O363 1.249 . S
O356 C355 1.264 1_655 S
O357 Mg350 1.986 . S
O357 C361 1.246 . S
O358 Mg353 2.032 . S
O358 C361 1.259 . S
O359 Mg350 2.114 . S
O359 C362 1.252 . S
O360 Mg350 2.251 . S
O360 Mg353 2.079 . S
O360 C362 1.273 . S
C361 O357 1.246 . S
C361 O358 1.259 . S
C362 O359 1.252 . S
C362 O360 1.273 . S
O363 Mg350 2.010 . S
O363 C355 1.249 . S
Mg364 O365 2.028 . S
Mg364 O371 1.986 . S
Mg364 O373 2.114 . S
Mg364 O374 2.251 . S
Mg364 O377 2.010 . S
O365 Mg364 2.028 . S
O365 C368 1.250 . S
O366 Mg367 2.028 . S
O366 C368 1.248 . S
Mg367 O366 2.028 . S
Mg367 O372 2.032 . S
Mg367 O374 2.079 . S
C368 O365 1.250 . S
C368 O366 1.248 . S
C369 O370 1.264 . S
C369 O377 1.249 . S
O370 C369 1.264 . S
O371 Mg364 1.986 . S
O371 C375 1.246 . S
O372 Mg367 2.032 . S
O372 C375 1.259 . S
O373 Mg364 2.114 . S
O373 C376 1.252 . S
O374 Mg364 2.251 . S
O374 Mg367 2.079 . S
O374 C376 1.273 . S
C375 O371 1.246 . S
C375 O372 1.259 . S
C376 O373 1.252 . S
C376 O374 1.273 . S
O377 Mg364 2.010 . S
O377 C369 1.249 . S
Mg378 O379 2.028 . S
Mg378 O385 1.986 . S
Mg378 O387 2.114 . S
Mg378 O388 2.251 . S
Mg378 O391 2.010 . S
O379 Mg378 2.028 . S
O379 C382 1.250 . S
O380 Mg381 2.028 . S
O380 C382 1.248 . S
Mg381 O380 2.028 . S
Mg381 O386 2.032 . S
Mg381 O388 2.079 . S
C382 O379 1.250 . S
C382 O380 1.248 . S
C383 O384 1.264 . S
C383 O391 1.249 . S
O384 C383 1.264 . S
O385 Mg378 1.986 . S
O385 C389 1.246 . S
O386 Mg381 2.032 . S
O386 C389 1.259 . S
O387 Mg378 2.114 . S
O387 C390 1.252 . S
O388 Mg378 2.251 . S
O388 Mg381 2.079 . S
O388 C390 1.273 . S
C389 O385 1.246 . S
C389 O386 1.259 . S
C390 O387 1.252 . S
C390 O388 1.273 . S
O391 Mg378 2.010 . S
O391 C383 1.249 . S
Mg392 O393 2.028 . S
Mg392 O399 1.986 . S
Mg392 O401 2.114 . S
Mg392 O402 2.251 . S
Mg392 O405 2.010 . S
O393 Mg392 2.028 . S
O393 C396 1.250 . S
O394 Mg395 2.028 . S
O394 C396 1.248 . S
Mg395 O394 2.028 . S
Mg395 O400 2.032 . S
Mg395 O402 2.079 . S
C396 O393 1.250 . S
C396 O394 1.248 . S
C397 O398 1.264 . S
C397 O405 1.249 1_545 S
O398 C397 1.264 . S
O399 Mg392 1.986 . S
O399 C403 1.246 . S
O400 Mg395 2.032 . S
O400 C403 1.259 . S
O401 Mg392 2.114 . S
O401 C404 1.252 . S
O402 Mg392 2.251 . S
O402 Mg395 2.079 . S
O402 C404 1.273 . S
C403 O399 1.246 . S
C403 O400 1.259 . S
C404 O401 1.252 . S
C404 O402 1.273 . S
O405 Mg392 2.010 . S
O405 C397 1.249 1_565 S
Mg406 O407 2.028 . S
Mg406 O413 1.986 . S
Mg406 O415 2.114 . S
Mg406 O416 2.251 . S
Mg406 O419 2.010 . S
O407 Mg406 2.028 . S
O407 C410 1.250 . S
O408 Mg409 2.028 . S
O408 C410 1.248 . S
Mg409 O408 2.028 . S
Mg409 O414 2.032 . S
Mg409 O416 2.079 . S
C410 O407 1.250 . S
C410 O408 1.248 . S
C411 O412 1.264 . S
C411 O419 1.249 . S
O412 C411 1.264 . S
O413 Mg406 1.986 . S
O413 C417 1.246 . S
O414 Mg409 2.032 . S
O414 C417 1.259 . S
O415 Mg406 2.114 . S
O415 C418 1.252 . S
O416 Mg406 2.251 . S
O416 Mg409 2.079 . S
O416 C418 1.273 . S
C417 O413 1.246 . S
C417 O414 1.259 . S
C418 O415 1.252 . S
C418 O416 1.273 . S
O419 Mg406 2.010 . S
O419 C411 1.249 . S
Mg420 O421 2.028 . S
Mg420 O427 1.986 . S
Mg420 O429 2.114 . S
Mg420 O430 2.251 . S
Mg420 O433 2.010 . S
O421 Mg420 2.028 . S
O421 C424 1.250 . S
O422 Mg423 2.028 . S
O422 C424 1.248 . S
Mg423 O422 2.028 . S
Mg423 O428 2.032 . S
Mg423 O430 2.079 . S
C424 O421 1.250 . S
C424 O422 1.248 . S
C425 O426 1.264 . S
C425 O433 1.249 . S
O426 C425 1.264 . S
O427 Mg420 1.986 . S
O427 C431 1.246 . S
O428 Mg423 2.032 . S
O428 C431 1.259 . S
O429 Mg420 2.114 . S
O429 C432 1.252 . S
O430 Mg420 2.251 . S
O430 Mg423 2.079 . S
O430 C432 1.273 . S
C431 O427 1.246 . S
C431 O428 1.259 . S
C432 O429 1.252 . S
C432 O430 1.273 . S
O433 Mg420 2.010 . S
O433 C425 1.249 . S
Mg434 O435 2.028 . S
Mg434 O441 1.986 . S
Mg434 O443 2.114 . S
Mg434 O444 2.251 . S
Mg434 O447 2.010 . S
O435 Mg434 2.028 . S
O435 C438 1.250 . S
O436 Mg437 2.028 . S
O436 C438 1.248 . S
Mg437 O436 2.028 . S
Mg437 O442 2.032 . S
Mg437 O444 2.079 . S
C438 O435 1.250 . S
C438 O436 1.248 . S
C439 O440 1.264 . S
C439 O447 1.249 1_545 S
O440 C439 1.264 . S
O441 Mg434 1.986 . S
O441 C445 1.246 . S
O442 Mg437 2.032 . S
O442 C445 1.259 . S
O443 Mg434 2.114 . S
O443 C446 1.252 . S
O444 Mg434 2.251 . S
O444 Mg437 2.079 . S
O444 C446 1.273 . S
C445 O441 1.246 . S
C445 O442 1.259 . S
C446 O443 1.252 . S
C446 O444 1.273 . S
O447 Mg434 2.010 . S
O447 C439 1.249 1_565 S
Mg448 O449 2.028 . S
Mg448 O455 1.986 . S
Mg448 O457 2.114 . S
Mg448 O458 2.251 . S
Mg448 O461 2.010 . S
O449 Mg448 2.028 . S
O449 C452 1.250 . S
O450 Mg451 2.028 . S
O450 C452 1.248 . S
Mg451 O450 2.028 . S
Mg451 O456 2.032 . S
Mg451 O458 2.079 . S
C452 O449 1.250 . S
C452 O450 1.248 . S
C453 O454 1.264 . S
C453 O461 1.249 . S
O454 C453 1.264 . S
O455 Mg448 1.986 . S
O455 C459 1.246 . S
O456 Mg451 2.032 . S
O456 C459 1.259 . S
O457 Mg448 2.114 . S
O457 C460 1.252 . S
O458 Mg448 2.251 . S
O458 Mg451 2.079 . S
O458 C460 1.273 . S
C459 O455 1.246 . S
C459 O456 1.259 . S
C460 O457 1.252 . S
C460 O458 1.273 . S
O461 Mg448 2.010 . S
O461 C453 1.249 . S
Mg462 O463 2.028 . S
Mg462 O469 1.986 . S
Mg462 O471 2.114 . S
Mg462 O472 2.251 . S
Mg462 O475 2.010 . S
O463 Mg462 2.028 . S
O463 C466 1.250 . S
O464 Mg465 2.028 . S
O464 C466 1.248 . S
Mg465 O464 2.028 . S
Mg465 O470 2.032 . S
Mg465 O472 2.079 . S
C466 O463 1.250 . S
C466 O464 1.248 . S
C467 O468 1.264 1_455 S
C467 O475 1.249 . S
O468 C467 1.264 1_655 S
O469 Mg462 1.986 . S
O469 C473 1.246 . S
O470 Mg465 2.032 . S
O470 C473 1.259 . S
O471 Mg462 2.114 . S
O471 C474 1.252 . S
O472 Mg462 2.251 . S
O472 Mg465 2.079 . S
O472 C474 1.273 . S
C473 O469 1.246 . S
C473 O470 1.259 . S
C474 O471 1.252 . S
C474 O472 1.273 . S
O475 Mg462 2.010 . S
O475 C467 1.249 . S
Mg476 O477 2.028 . S
Mg476 O483 1.986 . S
Mg476 O485 2.114 . S
Mg476 O486 2.251 . S
Mg476 O489 2.010 . S
O477 Mg476 2.028 . S
O477 C480 1.250 . S
O478 Mg479 2.028 . S
O478 C480 1.248 . S
Mg479 O478 2.028 . S
Mg479 O484 2.032 . S
Mg479 O486 2.079 . S
C480 O477 1.250 . S
C480 O478 1.248 . S
C481 O482 1.264 . S
C481 O489 1.249 . S
O482 C481 1.264 . S
O483 Mg476 1.986 . S
O483 C487 1.246 . S
O484 Mg479 2.032 . S
O484 C487 1.259 . S
O485 Mg476 2.114 . S
O485 C488 1.252 . S
O486 Mg476 2.251 . S
O486 Mg479 2.079 . S
O486 C488 1.273 . S
C487 O483 1.246 . S
C487 O484 1.259 . S
C488 O485 1.252 . S
C488 O486 1.273 . S
O489 Mg476 2.010 . S
O489 C481 1.249 . S
Mg490 O491 2.028 . S
Mg490 O497 1.986 . S
Mg490 O499 2.114 . S
Mg490 O500 2.251 . S
Mg490 O503 2.010 . S
O491 Mg490 2.028 . S
O491 C494 1.250 . S
O492 Mg493 2.028 . S
O492 C494 1.248 . S
Mg493 O492 2.028 . S
Mg493 O498 2.032 . S
Mg493 O500 2.079 . S
C494 O491 1.250 . S
C494 O492 1.248 . S
C495 O496 1.264 . S
C495 O503 1.249 1_545 S
O496 C495 1.264 . S
O497 Mg490 1.986 . S
O497 C501 1.246 . S
O498 Mg493 2.032 . S
O498 C501 1.259 . S
O499 Mg490 2.114 . S
O499 C502 1.252 . S
O500 Mg490 2.251 . S
O500 Mg493 2.079 . S
O500 C502 1.273 . S
C501 O497 1.246 . S
C501 O498 1.259 . S
C502 O499 1.252 . S
C502 O500 1.273 . S
O503 Mg490 2.010 . S
O503 C495 1.249 1_565 S
C11 C165 0.829 . S
C137 C25 0.829 . S
C151 C39 0.829 . S
C53 C109 0.829 . S
C67 C123 0.829 . S
C81 C95 0.829 . S
C179 C333 0.829 . S
C305 C193 0.829 . S
C207 C319 0.829 . S
C221 C277 0.829 . S
C235 C291 0.829 . S
C249 C263 0.829 . S
C347 C501 0.829 . S
C361 C473 0.829 . S
C487 C375 0.829 . S
C389 C445 0.829 . S
C459 C403 0.829 . S
C431 C417 0.829 . S
C5 C215 0.724 . S
C19 C229 0.724 . S
C33 C243 0.724 . S
C47 C341 0.724 . S
C355 C61 0.724 . S
C369 C75 0.724 . S
C89 C467 0.724 . S
C481 C103 0.724 . S
C117 C495 0.724 . S
C131 C257 0.724 . S
C145 C271 0.724 . S
C159 C285 0.724 . S
C383 C173 0.724 . S
C187 C397 0.724 . S
C201 C411 0.724 . S
C425 C299 0.724 . S
C439 C313 0.724 . S
C327 C453 0.724 . S
C12 C68 1.461 1_554 S
C82 C26 1.461 1_556 S
C54 C40 1.461 1_556 S
C96 C152 1.461 1_556 S
C166 C110 1.461 1_554 S
C124 C138 1.461 1_556 S
C236 C180 1.461 . S
C194 C250 1.461 . S
C208 C222 1.461 . S
C320 C264 1.461 . S
C334 C278 1.461 . S
C306 C292 1.461 . S
C348 C404 1.461 . S
C362 C418 1.461 . S
C376 C390 1.461 . S
C488 C432 1.461 . S
C502 C446 1.461 . S
C474 C460 1.461 . S
C130 C4 1.607 . S
C144 C18 1.608 . S
C32 C158 1.608 . S
C46 C88 1.607 . S
C102 C60 1.608 . S
C74 C116 1.608 . S
C298 C172 1.608 . S
C312 C186 1.608 . S
C200 C326 1.608 . S
C256 C214 1.608 . S
C270 C228 1.608 . S
C284 C242 1.608 . S
C340 C466 1.608 . S
C480 C354 1.608 . S
C368 C494 1.608 . S
C382 C424 1.608 . S
C396 C438 1.608 . S
C452 C410 1.608 . S
