# Generated by pormake.
# Topology afi, (4)-cn, num edge types: 1
# Building blocks:
#     Node 0, Type 0, BuildingBlock: ICAMEG_clean_sbu_1, # of connection points: 4
#     Node 1, Type 0, BuildingBlock: ICAMEG_clean_sbu_1, # of connection points: 4
#     Node 2, Type 0, BuildingBlock: ICAMEG_clean_sbu_1, # of connection points: 4
#     Node 3, Type 0, BuildingBlock: ICAMEG_clean_sbu_1, # of connection points: 4
#     Node 4, Type 0, BuildingBlock: ICAMEG_clean_sbu_1, # of connection points: 4
#     Node 5, Type 0, BuildingBlock: ICAMEG_clean_sbu_1, # of connection points: 4
#     Node 6, Type 0, BuildingBlock: ICAMEG_clean_sbu_1, # of connection points: 4
#     Node 7, Type 0, BuildingBlock: ICAMEG_clean_sbu_1, # of connection points: 4
#     Node 8, Type 0, BuildingBlock: ICAMEG_clean_sbu_1, # of connection points: 4
#     Node 9, Type 0, BuildingBlock: ICAMEG_clean_sbu_1, # of connection points: 4
#     Node 10, Type 0, BuildingBlock: ICAMEG_clean_sbu_1, # of connection points: 4
#     Node 11, Type 0, BuildingBlock: ICAMEG_clean_sbu_1, # of connection points: 4
#     Node 12, Type 0, BuildingBlock: ICAMEG_clean_sbu_1, # of connection points: 4
#     Node 13, Type 0, BuildingBlock: ICAMEG_clean_sbu_1, # of connection points: 4
#     Node 14, Type 0, BuildingBlock: ICAMEG_clean_sbu_1, # of connection points: 4
#     Node 15, Type 0, BuildingBlock: ICAMEG_clean_sbu_1, # of connection points: 4
#     Node 16, Type 0, BuildingBlock: ICAMEG_clean_sbu_1, # of connection points: 4
#     Node 17, Type 0, BuildingBlock: ICAMEG_clean_sbu_1, # of connection points: 4
#     Node 18, Type 0, BuildingBlock: ICAMEG_clean_sbu_1, # of connection points: 4
#     Node 19, Type 0, BuildingBlock: ICAMEG_clean_sbu_1, # of connection points: 4
#     Node 20, Type 0, BuildingBlock: ICAMEG_clean_sbu_1, # of connection points: 4
#     Node 21, Type 0, BuildingBlock: ICAMEG_clean_sbu_1, # of connection points: 4
#     Node 22, Type 0, BuildingBlock: ICAMEG_clean_sbu_1, # of connection points: 4
#     Node 23, Type 0, BuildingBlock: ICAMEG_clean_sbu_1, # of connection points: 4
#     Edge 24, Type (0, 0), BuildingBlock: AJUNOK_clean_linker_0, # of connection points: 2
#     Edge 25, Type (0, 0), BuildingBlock: AJUNOK_clean_linker_0, # of connection points: 2
#     Edge 26, Type (0, 0), BuildingBlock: AJUNOK_clean_linker_0, # of connection points: 2
#     Edge 27, Type (0, 0), BuildingBlock: AJUNOK_clean_linker_0, # of connection points: 2
#     Edge 28, Type (0, 0), BuildingBlock: AJUNOK_clean_linker_0, # of connection points: 2
#     Edge 29, Type (0, 0), BuildingBlock: AJUNOK_clean_linker_0, # of connection points: 2
#     Edge 30, Type (0, 0), BuildingBlock: AJUNOK_clean_linker_0, # of connection points: 2
#     Edge 31, Type (0, 0), BuildingBlock: AJUNOK_clean_linker_0, # of connection points: 2
#     Edge 32, Type (0, 0), BuildingBlock: AJUNOK_clean_linker_0, # of connection points: 2
#     Edge 33, Type (0, 0), BuildingBlock: AJUNOK_clean_linker_0, # of connection points: 2
#     Edge 34, Type (0, 0), BuildingBlock: AJUNOK_clean_linker_0, # of connection points: 2
#     Edge 35, Type (0, 0), BuildingBlock: AJUNOK_clean_linker_0, # of connection points: 2
#     Edge 36, Type (0, 0), BuildingBlock: AJUNOK_clean_linker_0, # of connection points: 2
#     Edge 37, Type (0, 0), BuildingBlock: AJUNOK_clean_linker_0, # of connection points: 2
#     Edge 38, Type (0, 0), BuildingBlock: AJUNOK_clean_linker_0, # of connection points: 2
#     Edge 39, Type (0, 0), BuildingBlock: AJUNOK_clean_linker_0, # of connection points: 2
#     Edge 40, Type (0, 0), BuildingBlock: AJUNOK_clean_linker_0, # of connection points: 2
#     Edge 41, Type (0, 0), BuildingBlock: AJUNOK_clean_linker_0, # of connection points: 2
#     Edge 42, Type (0, 0), BuildingBlock: AJUNOK_clean_linker_0, # of connection points: 2
#     Edge 43, Type (0, 0), BuildingBlock: AJUNOK_clean_linker_0, # of connection points: 2
#     Edge 44, Type (0, 0), BuildingBlock: AJUNOK_clean_linker_0, # of connection points: 2
#     Edge 45, Type (0, 0), BuildingBlock: AJUNOK_clean_linker_0, # of connection points: 2
#     Edge 46, Type (0, 0), BuildingBlock: AJUNOK_clean_linker_0, # of connection points: 2
#     Edge 47, Type (0, 0), BuildingBlock: AJUNOK_clean_linker_0, # of connection points: 2
#     Edge 48, Type (0, 0), BuildingBlock: AJUNOK_clean_linker_0, # of connection points: 2
#     Edge 49, Type (0, 0), BuildingBlock: AJUNOK_clean_linker_0, # of connection points: 2
#     Edge 50, Type (0, 0), BuildingBlock: AJUNOK_clean_linker_0, # of connection points: 2
#     Edge 51, Type (0, 0), BuildingBlock: AJUNOK_clean_linker_0, # of connection points: 2
#     Edge 52, Type (0, 0), BuildingBlock: AJUNOK_clean_linker_0, # of connection points: 2
#     Edge 53, Type (0, 0), BuildingBlock: AJUNOK_clean_linker_0, # of connection points: 2
#     Edge 54, Type (0, 0), BuildingBlock: AJUNOK_clean_linker_0, # of connection points: 2
#     Edge 55, Type (0, 0), BuildingBlock: AJUNOK_clean_linker_0, # of connection points: 2
#     Edge 56, Type (0, 0), BuildingBlock: AJUNOK_clean_linker_0, # of connection points: 2
#     Edge 57, Type (0, 0), BuildingBlock: AJUNOK_clean_linker_0, # of connection points: 2
#     Edge 58, Type (0, 0), BuildingBlock: AJUNOK_clean_linker_0, # of connection points: 2
#     Edge 59, Type (0, 0), BuildingBlock: AJUNOK_clean_linker_0, # of connection points: 2
#     Edge 60, Type (0, 0), BuildingBlock: AJUNOK_clean_linker_0, # of connection points: 2
#     Edge 61, Type (0, 0), BuildingBlock: AJUNOK_clean_linker_0, # of connection points: 2
#     Edge 62, Type (0, 0), BuildingBlock: AJUNOK_clean_linker_0, # of connection points: 2
#     Edge 63, Type (0, 0), BuildingBlock: AJUNOK_clean_linker_0, # of connection points: 2
#     Edge 64, Type (0, 0), BuildingBlock: AJUNOK_clean_linker_0, # of connection points: 2
#     Edge 65, Type (0, 0), BuildingBlock: AJUNOK_clean_linker_0, # of connection points: 2
#     Edge 66, Type (0, 0), BuildingBlock: AJUNOK_clean_linker_0, # of connection points: 2
#     Edge 67, Type (0, 0), BuildingBlock: AJUNOK_clean_linker_0, # of connection points: 2
#     Edge 68, Type (0, 0), BuildingBlock: AJUNOK_clean_linker_0, # of connection points: 2
#     Edge 69, Type (0, 0), BuildingBlock: AJUNOK_clean_linker_0, # of connection points: 2
#     Edge 70, Type (0, 0), BuildingBlock: AJUNOK_clean_linker_0, # of connection points: 2
#     Edge 71, Type (0, 0), BuildingBlock: AJUNOK_clean_linker_0, # of connection points: 2
# Relax obj value: 0.121
# Max RMSD: 0.171
# Mean RMSD: 0.171
data_MOF--net-afi--node1-ICAMEG_clean_sbu_1--edge1-AJUNOK_clean_linker_0
_symmetry_space_group_name_H-M    P1
_symmetry_Int_Tables_number       1
_symmetry_cell_setting            triclinic
loop_
_symmetry_equiv_pos_as_xyz
'x, y, z'
_cell_length_a     52.392579
_cell_length_b     52.511881
_cell_length_c     33.435944
_cell_angle_alpha  90.02187
_cell_angle_beta   89.893334
_cell_angle_gamma 119.77757
loop_
_atom_site_label
_atom_site_type_symbol
_atom_site_fract_x
_atom_site_fract_y
_atom_site_fract_z
_atom_type_partial_charge
Co0 Co 0.47861 0.10685 0.1753 0.0
Co1 Co 0.46514 0.12806 0.26592 0.0
O2 O 0.46421 0.12878 0.20699 0.0
C3 C 0.43379 0.07667 0.11222 0.0
O4 O 0.42931 0.05201 0.1284 0.0
C5 C 0.49157 0.19255 0.25052 0.0
O6 O 0.5083 0.19101 0.22245 0.0
O7 O 0.50818 0.14234 0.26452 0.0
O8 O 0.5088 0.1131 0.21652 0.0
H9 H 0.49463 0.10579 0.39855 0.0
H10 H 0.47492 0.15609 0.13838 0.0
O11 O 0.44966 0.1007 0.131 0.0
H12 H 0.57917 0.18303 0.12642 0.0
H13 H 0.51012 0.0764 0.05036 0.0
H14 H 0.49276 0.06028 0.19513 0.0
H15 H 0.54322 0.13618 0.15746 0.0
H16 H 0.49509 0.10626 0.08945 0.0
O17 O 0.47312 0.16954 0.26908 0.0
H18 H 0.49158 0.10591 0.32501 0.0
H19 H 0.44205 0.14985 0.3315 0.0
H20 H 0.50899 0.03069 0.15714 0.0
H21 H 0.51008 0.20304 0.10666 0.0
H22 H 0.51775 0.03855 0.08394 0.0
H23 H 0.56264 0.21681 0.10058 0.0
O24 O 0.44958 0.06977 0.20315 0.0
H25 H 0.37336 0.12869 0.22465 0.0
H26 H 0.41357 0.07982 0.30865 0.0
H27 H 0.36018 0.06148 0.30883 0.0
H28 H 0.33975 0.08604 0.2667 0.0
H29 H 0.42664 0.14611 0.22506 0.0
H30 H 0.44469 0.15032 0.40514 0.0
H31 H 0.47106 0.12811 0.43916 0.0
O32 O 0.45651 0.08632 0.26608 0.0
C33 C 0.52099 0.13076 0.24554 0.0
C34 C 0.48299 0.11546 0.38409 0.0
C35 C 0.45501 0.14048 0.38778 0.0
N36 N 0.46652 0.12772 0.32393 0.0
C37 C 0.48114 0.11554 0.34244 0.0
C38 C 0.45364 0.1402 0.34605 0.0
C39 C 0.4698 0.12801 0.40685 0.0
C40 C 0.49771 0.1618 0.13555 0.0
N41 N 0.50694 0.14331 0.14965 0.0
C42 C 0.51753 0.18847 0.11768 0.0
C43 C 0.54703 0.1962 0.11434 0.0
C44 C 0.55632 0.17728 0.12887 0.0
C45 C 0.53587 0.15081 0.1466 0.0
C46 C 0.50672 0.07288 0.08208 0.0
C47 C 0.4967 0.06401 0.16337 0.0
C48 C 0.49795 0.08962 0.10443 0.0
N49 N 0.49266 0.08483 0.14451 0.0
C50 C 0.50588 0.04713 0.14201 0.0
C51 C 0.5108 0.05156 0.101 0.0
C52 C 0.44691 0.06531 0.24093 0.0
C53 C 0.382 0.11783 0.24317 0.0
C54 C 0.40485 0.09051 0.29004 0.0
C55 C 0.3746 0.08008 0.29037 0.0
C56 C 0.36315 0.09388 0.26675 0.0
N57 N 0.42321 0.11405 0.26689 0.0
C58 C 0.41214 0.12764 0.24358 0.0
Co59 Co 0.3839 0.47645 0.14828 0.0
Co60 Co 0.34425 0.46544 0.23396 0.0
O61 O 0.34638 0.46526 0.17503 0.0
C62 C 0.33799 0.43177 0.0903 0.0
O63 O 0.3153 0.42758 0.11199 0.0
C64 C 0.31173 0.49774 0.24756 0.0
O65 O 0.33443 0.51664 0.26851 0.0
O66 O 0.3754 0.50783 0.23437 0.0
O67 O 0.40646 0.50519 0.19127 0.0
H68 H 0.38683 0.49111 0.37231 0.0
H69 H 0.33604 0.48176 0.10709 0.0
O70 O 0.36413 0.44869 0.10245 0.0
H71 H 0.42447 0.5791 0.09466 0.0
H72 H 0.45388 0.50322 0.03189 0.0
H73 H 0.44133 0.48585 0.17725 0.0
H74 H 0.42664 0.53922 0.13023 0.0
H75 H 0.4063 0.48895 0.06399 0.0
O76 O 0.31241 0.47648 0.22992 0.0
H77 H 0.38852 0.48921 0.29871 0.0
H78 H 0.2952 0.44324 0.29376 0.0
H79 H 0.48902 0.49967 0.14634 0.0
H80 H 0.33304 0.52079 0.07065 0.0
H81 H 0.49575 0.50876 0.073 0.0
H82 H 0.37749 0.56997 0.06412 0.0
O83 O 0.38619 0.44494 0.17823 0.0
H84 H 0.25143 0.37845 0.18428 0.0
H85 H 0.33461 0.41168 0.27782 0.0
H86 H 0.29706 0.35927 0.27541 0.0
H87 H 0.25501 0.34235 0.22849 0.0
H88 H 0.28967 0.43064 0.18736 0.0
H89 H 0.29249 0.44468 0.36731 0.0
H90 H 0.33855 0.46874 0.4071 0.0
O91 O 0.37533 0.45342 0.23977 0.0
C92 C 0.40064 0.51888 0.21787 0.0
C93 C 0.36661 0.48054 0.35531 0.0
C94 C 0.31367 0.45448 0.35251 0.0
N95 N 0.342 0.46608 0.29195 0.0
C96 C 0.36743 0.47937 0.31363 0.0
C97 C 0.31534 0.45374 0.31087 0.0
C98 C 0.33951 0.46799 0.37481 0.0
C99 C 0.35563 0.50275 0.10382 0.0
N100 N 0.38168 0.50768 0.11982 0.0
C101 C 0.35373 0.52495 0.0834 0.0
C102 C 0.37865 0.55256 0.07984 0.0
C103 C 0.405 0.55769 0.09694 0.0
C104 C 0.40607 0.53495 0.11709 0.0
C105 C 0.45125 0.49921 0.06373 0.0
C106 C 0.44393 0.48955 0.14534 0.0
C107 C 0.42435 0.49114 0.08213 0.0
N108 N 0.42107 0.48681 0.12257 0.0
C109 C 0.47106 0.49738 0.12794 0.0
C110 C 0.47475 0.50237 0.08686 0.0
C111 C 0.38624 0.44211 0.21615 0.0
C112 C 0.26962 0.38555 0.2049 0.0
C113 C 0.31652 0.40449 0.2571 0.0
C114 C 0.29525 0.37479 0.25599 0.0
C115 C 0.27166 0.36531 0.22968 0.0
N116 N 0.31432 0.42425 0.23277 0.0
C117 C 0.2913 0.41509 0.20684 0.0
Co118 Co 0.91415 0.37851 0.16712 0.0
Co119 Co 0.88835 0.33792 0.25279 0.0
O120 O 0.89035 0.34074 0.19425 0.0
C121 C 0.94565 0.3656 0.10346 0.0
O122 O 0.97013 0.38535 0.12052 0.0
C123 C 0.82362 0.30404 0.26619 0.0
O124 O 0.82598 0.32682 0.28568 0.0
O125 O 0.87573 0.36804 0.25504 0.0
O126 O 0.90717 0.40039 0.21073 0.0
H127 H 0.90322 0.3788 0.39213 0.0
H128 H 0.8649 0.32886 0.12498 0.0
O129 O 0.92117 0.35764 0.12114 0.0
H130 H 0.84236 0.40945 0.11916 0.0
H131 H 0.94652 0.44844 0.05021 0.0
H132 H 0.95995 0.43735 0.19372 0.0
H133 H 0.88715 0.41639 0.15289 0.0
H134 H 0.91884 0.40014 0.0828 0.0
O135 O 0.84611 0.30536 0.24915 0.0
H136 H 0.90627 0.38126 0.31858 0.0
H137 H 0.86536 0.28853 0.31192 0.0
H138 H 0.9873 0.48597 0.16257 0.0
H139 H 0.82006 0.3211 0.09038 0.0
H140 H 0.98079 0.49193 0.09012 0.0
H141 H 0.80854 0.36159 0.08732 0.0
O142 O 0.94988 0.38372 0.19635 0.0
H143 H 0.88577 0.24713 0.19978 0.0
H144 H 0.93422 0.3296 0.29441 0.0
H145 H 0.9508 0.29323 0.29012 0.0
H146 H 0.92639 0.2515 0.24272 0.0
H147 H 0.87018 0.2843 0.20458 0.0
H148 H 0.86164 0.28493 0.38538 0.0
H149 H 0.88077 0.33034 0.42608 0.0
O150 O 0.93061 0.36965 0.25778 0.0
C151 C 0.88869 0.39339 0.2391 0.0
C152 C 0.89476 0.35884 0.37476 0.0
C153 C 0.87144 0.30618 0.37097 0.0
N154 N 0.88595 0.33506 0.31084 0.0
C155 C 0.8964 0.3601 0.33305 0.0
C156 C 0.87351 0.30832 0.32933 0.0
C157 C 0.88218 0.33166 0.39378 0.0
C158 C 0.8602 0.34667 0.1234 0.0
N159 N 0.87891 0.37317 0.14038 0.0
C160 C 0.8347 0.34211 0.10395 0.0
C161 C 0.82824 0.36482 0.10228 0.0
C162 C 0.8472 0.39167 0.12011 0.0
C163 C 0.87252 0.39544 0.13927 0.0
C164 C 0.94976 0.44615 0.08162 0.0
C165 C 0.95706 0.4396 0.16217 0.0
C166 C 0.93422 0.41883 0.10025 0.0
N167 N 0.93779 0.41587 0.14018 0.0
C168 C 0.97275 0.46726 0.1446 0.0
C169 C 0.96901 0.47055 0.10405 0.0
C170 C 0.95272 0.38249 0.23427 0.0
C171 C 0.89653 0.26517 0.22062 0.0
C172 C 0.92365 0.31168 0.27344 0.0
C173 C 0.93306 0.29107 0.27127 0.0
C174 C 0.91934 0.26765 0.24469 0.0
N175 N 0.90113 0.30901 0.24991 0.0
C176 C 0.88774 0.28624 0.22356 0.0
Co177 Co 0.54466 0.9112 0.17172 0.0
Co178 Co 0.55736 0.88467 0.25777 0.0
O179 O 0.55785 0.88631 0.19855 0.0
C180 C 0.58923 0.91083 0.11206 0.0
O181 O 0.59492 0.89362 0.13424 0.0
C182 C 0.53086 0.82085 0.23781 0.0
O183 O 0.51452 0.82325 0.21 0.0
O184 O 0.51431 0.87042 0.25759 0.0
O185 O 0.51581 0.90393 0.21538 0.0
H186 H 0.52648 0.89859 0.3947 0.0
H187 H 0.54141 0.85865 0.13138 0.0
O188 O 0.57215 0.91985 0.12487 0.0
H189 H 0.44194 0.84556 0.12019 0.0
H190 H 0.51296 0.95133 0.05708 0.0
H191 H 0.53235 0.9571 0.20163 0.0
H192 H 0.48107 0.88865 0.15463 0.0
H193 H 0.53019 0.91999 0.08784 0.0
O194 O 0.54935 0.8432 0.25731 0.0
H195 H 0.52898 0.9016 0.32115 0.0
H196 H 0.58228 0.86163 0.31903 0.0
H197 H 0.51555 0.98894 0.17181 0.0
H198 H 0.50318 0.81563 0.09611 0.0
H199 H 0.50557 0.98615 0.09882 0.0
H200 H 0.4529 0.80876 0.0902 0.0
O201 O 0.57556 0.94602 0.201 0.0
H202 H 0.64882 0.88572 0.21027 0.0
H203 H 0.60927 0.93158 0.30147 0.0
H204 H 0.66269 0.95007 0.29963 0.0
H205 H 0.68279 0.92703 0.25387 0.0
H206 H 0.59552 0.86808 0.21282 0.0
H207 H 0.58017 0.85795 0.3926 0.0
H208 H 0.55224 0.87665 0.43098 0.0
O209 O 0.56594 0.92643 0.26226 0.0
C210 C 0.50254 0.88411 0.24167 0.0
C211 C 0.53892 0.89057 0.37836 0.0
C212 C 0.56903 0.86774 0.37717 0.0
N213 N 0.55628 0.88242 0.31579 0.0
C214 C 0.54055 0.89237 0.33669 0.0
C215 C 0.57016 0.86992 0.33549 0.0
C216 C 0.55334 0.87822 0.39868 0.0
C217 C 0.51999 0.85644 0.12824 0.0
N218 N 0.51403 0.87695 0.144 0.0
C219 C 0.49822 0.83172 0.10854 0.0
C220 C 0.46999 0.82782 0.10536 0.0
C221 C 0.46384 0.84845 0.12216 0.0
C222 C 0.48617 0.87288 0.14164 0.0
C223 C 0.51748 0.95293 0.08866 0.0
C224 C 0.52831 0.95582 0.16982 0.0
C225 C 0.52723 0.93523 0.10634 0.0
N226 N 0.53216 0.93654 0.1466 0.0
C227 C 0.51877 0.97397 0.15309 0.0
C228 C 0.51324 0.97242 0.1122 0.0
C229 C 0.57677 0.94865 0.23902 0.0
C230 C 0.64033 0.8959 0.23038 0.0
C231 C 0.61785 0.92154 0.2813 0.0
C232 C 0.64812 0.93205 0.28049 0.0
C233 C 0.65937 0.9191 0.25483 0.0
N234 N 0.59931 0.89873 0.25728 0.0
C235 C 0.61019 0.88597 0.23201 0.0
Co236 Co 0.64315 0.5396 0.14552 0.0
Co237 Co 0.68042 0.55281 0.23397 0.0
O238 O 0.6796 0.5528 0.17548 0.0
C239 C 0.65874 0.58502 0.08321 0.0
O240 O 0.6384 0.5895 0.09924 0.0
C241 C 0.71227 0.51974 0.24804 0.0
O242 O 0.689 0.50001 0.26745 0.0
O243 O 0.6491 0.51054 0.23522 0.0
O244 O 0.61924 0.51069 0.18762 0.0
H245 H 0.63552 0.53016 0.37139 0.0
H246 H 0.69442 0.54056 0.10648 0.0
O247 O 0.66599 0.56801 0.10101 0.0
H248 H 0.61499 0.43746 0.09953 0.0
H249 H 0.5787 0.50117 0.02365 0.0
H250 H 0.58346 0.52926 0.16514 0.0
H251 H 0.60636 0.47491 0.13116 0.0
H252 H 0.62539 0.52199 0.06045 0.0
O253 O 0.71212 0.54166 0.23172 0.0
H254 H 0.63502 0.53093 0.29766 0.0
H255 H 0.72835 0.57437 0.29494 0.0
H256 H 0.53673 0.51008 0.12879 0.0
H257 H 0.70382 0.50389 0.07382 0.0
H258 H 0.53395 0.49548 0.05746 0.0
H259 H 0.66393 0.4519 0.07021 0.0
O260 O 0.63663 0.56948 0.17422 0.0
H261 H 0.77424 0.63941 0.18532 0.0
H262 H 0.68932 0.60681 0.27602 0.0
H263 H 0.72699 0.6592 0.27354 0.0
H264 H 0.76991 0.67579 0.22807 0.0
H265 H 0.73585 0.58726 0.18839 0.0
H266 H 0.72986 0.57393 0.36865 0.0
H267 H 0.68321 0.55177 0.40738 0.0
O268 O 0.64935 0.56469 0.23683 0.0
C269 C 0.62419 0.49919 0.21792 0.0
C270 C 0.656 0.53991 0.35486 0.0
C271 C 0.70895 0.56445 0.35332 0.0
N272 N 0.68162 0.55271 0.29201 0.0
C273 C 0.65586 0.54042 0.3131 0.0
C274 C 0.70795 0.56459 0.31159 0.0
C275 C 0.68276 0.55202 0.37503 0.0
C276 C 0.67684 0.51806 0.10454 0.0
N277 N 0.64974 0.51006 0.12005 0.0
C278 C 0.68234 0.49735 0.08624 0.0
C279 C 0.65997 0.46818 0.08429 0.0
C280 C 0.63251 0.46006 0.10074 0.0
C281 C 0.62779 0.48138 0.11875 0.0
C282 C 0.57965 0.50783 0.05445 0.0
C283 C 0.58261 0.52348 0.13402 0.0
C284 C 0.60599 0.51939 0.07562 0.0
N285 N 0.60711 0.52652 0.11519 0.0
C286 C 0.55602 0.51255 0.11355 0.0
C287 C 0.55452 0.50446 0.07356 0.0
C288 C 0.63659 0.57336 0.21214 0.0
C289 C 0.75567 0.63244 0.20533 0.0
C290 C 0.70781 0.61387 0.25596 0.0
C291 C 0.72914 0.64356 0.25479 0.0
C292 C 0.75322 0.65285 0.22929 0.0
N293 N 0.71043 0.59395 0.2325 0.0
C294 C 0.73391 0.60293 0.20728 0.0
Co295 Co 0.10861 0.63443 0.15835 0.0
Co296 Co 0.13564 0.67565 0.24294 0.0
O297 O 0.13397 0.67262 0.18406 0.0
C298 C 0.11087 0.67911 0.09705 0.0
O299 O 0.12724 0.70181 0.11986 0.0
C300 C 0.19974 0.70928 0.25896 0.0
O301 O 0.19637 0.68635 0.27908 0.0
O302 O 0.14814 0.64539 0.24537 0.0
O303 O 0.11461 0.61313 0.20341 0.0
H304 H 0.12025 0.63466 0.38234 0.0
H305 H 0.16203 0.68192 0.11719 0.0
O306 O 0.10114 0.65309 0.11024 0.0
H307 H 0.17364 0.59449 0.11295 0.0
H308 H 0.06923 0.56229 0.04426 0.0
H309 H 0.062 0.57687 0.18851 0.0
H310 H 0.13041 0.59231 0.14543 0.0
H311 H 0.1003 0.61077 0.07489 0.0
O312 O 0.17803 0.70812 0.23992 0.0
H313 H 0.11778 0.63227 0.30881 0.0
H314 H 0.15747 0.72495 0.30222 0.0
H315 H 0.03172 0.52798 0.15945 0.0
H316 H 0.2052 0.68488 0.08383 0.0
H317 H 0.03508 0.52026 0.08662 0.0
H318 H 0.21131 0.64094 0.08145 0.0
O319 O 0.07366 0.63178 0.18683 0.0
H320 H 0.13932 0.76673 0.18928 0.0
H321 H 0.08935 0.68411 0.28356 0.0
H322 H 0.07299 0.72062 0.27843 0.0
H323 H 0.09815 0.76241 0.23118 0.0
H324 H 0.1547 0.72947 0.19494 0.0
H325 H 0.16055 0.72843 0.37567 0.0
H326 H 0.14176 0.68301 0.41634 0.0
O327 O 0.0932 0.644 0.24812 0.0
C328 C 0.1337 0.61972 0.23072 0.0
C329 C 0.12857 0.65462 0.36498 0.0
C330 C 0.15115 0.70722 0.36124 0.0
N331 N 0.13755 0.67847 0.30105 0.0
C332 C 0.12727 0.65342 0.32326 0.0
C333 C 0.14944 0.70514 0.31959 0.0
C334 C 0.14061 0.68175 0.38403 0.0
C335 C 0.16396 0.66249 0.11559 0.0
N336 N 0.14293 0.6367 0.13206 0.0
C337 C 0.18873 0.66439 0.09696 0.0
C338 C 0.1922 0.63977 0.09573 0.0
C339 C 0.17107 0.61371 0.11336 0.0
C340 C 0.14656 0.61262 0.13166 0.0
C341 C 0.06752 0.56533 0.07591 0.0
C342 C 0.06378 0.57382 0.1569 0.0
C343 C 0.08489 0.5928 0.09343 0.0
N344 N 0.08312 0.59669 0.13359 0.0
C345 C 0.04635 0.54602 0.14048 0.0
C346 C 0.0483 0.54176 0.09972 0.0
C347 C 0.07091 0.6322 0.22488 0.0
C348 C 0.12822 0.74866 0.21003 0.0
C349 C 0.10025 0.70205 0.26264 0.0
C350 C 0.09096 0.72275 0.26001 0.0
C351 C 0.1051 0.7462 0.23352 0.0
N352 N 0.12305 0.70469 0.23963 0.0
C353 C 0.13689 0.72754 0.21345 0.0
Co354 Co 0.91243 0.54252 0.36313 0.0
Co355 Co 0.88779 0.55183 0.27307 0.0
O356 O 0.88837 0.55375 0.33138 0.0
C357 C 0.93972 0.58972 0.42397 0.0
O358 O 0.96537 0.59475 0.41047 0.0
C359 C 0.82317 0.51936 0.25805 0.0
O360 O 0.82681 0.49974 0.23847 0.0
O361 O 0.87684 0.50954 0.27583 0.0
O362 O 0.90809 0.51222 0.32329 0.0
H363 H 0.90907 0.52279 0.13932 0.0
H364 H 0.86094 0.54265 0.39987 0.0
O365 O 0.91648 0.57202 0.40496 0.0
H366 H 0.84263 0.4417 0.41729 0.0
H367 H 0.94555 0.5168 0.49091 0.0
H368 H 0.96217 0.53225 0.34556 0.0
H369 H 0.88751 0.47897 0.38327 0.0
H370 H 0.9146 0.52967 0.44998 0.0
O371 O 0.8451 0.54106 0.27467 0.0
H372 H 0.91061 0.52677 0.21288 0.0
H373 H 0.86193 0.57162 0.20874 0.0
H374 H 0.99389 0.51969 0.38553 0.0
H375 H 0.81603 0.50618 0.43472 0.0
H376 H 0.9856 0.51182 0.45883 0.0
H377 H 0.80663 0.45527 0.44362 0.0
O378 O 0.94821 0.57232 0.33359 0.0
H379 H 0.88098 0.64046 0.31359 0.0
H380 H 0.93254 0.60408 0.22759 0.0
H381 H 0.94729 0.65653 0.22589 0.0
H382 H 0.92135 0.67503 0.26898 0.0
H383 H 0.86718 0.5882 0.31472 0.0
H384 H 0.8598 0.56808 0.13512 0.0
H385 H 0.88351 0.54354 0.09994 0.0
O386 O 0.93072 0.5636 0.27081 0.0
C387 C 0.89042 0.49872 0.29468 0.0
C388 C 0.89868 0.53356 0.1543 0.0
C389 C 0.87102 0.55897 0.15195 0.0
N390 N 0.88645 0.54947 0.21507 0.0
C391 C 0.8995 0.5359 0.19594 0.0
C392 C 0.87229 0.56089 0.19363 0.0
C393 C 0.88433 0.5452 0.13223 0.0
C394 C 0.85717 0.52063 0.40397 0.0
N395 N 0.87707 0.51312 0.39002 0.0
C396 C 0.83162 0.50003 0.42356 0.0
C397 C 0.82634 0.47146 0.42849 0.0
C398 C 0.84652 0.46383 0.41371 0.0
C399 C 0.87186 0.48503 0.39434 0.0
C400 C 0.94942 0.52021 0.45905 0.0
C401 C 0.9585 0.52896 0.37742 0.0
C402 C 0.93193 0.52747 0.43566 0.0
N403 N 0.93663 0.53186 0.39535 0.0
C404 C 0.9765 0.52179 0.3999 0.0
C405 C 0.97188 0.51741 0.441 0.0
C406 C 0.95216 0.57448 0.29559 0.0
C407 C 0.89241 0.63265 0.2946 0.0
C408 C 0.92127 0.61196 0.24664 0.0
C409 C 0.92965 0.64169 0.24544 0.0
C410 C 0.91508 0.65204 0.2696 0.0
N411 N 0.89892 0.59303 0.27111 0.0
C412 C 0.88463 0.60307 0.29503 0.0
Co413 Co 0.38935 0.91019 0.37931 0.0
Co414 Co 0.34369 0.88301 0.2974 0.0
O415 O 0.34994 0.88558 0.35595 0.0
C416 C 0.34751 0.91361 0.44047 0.0
O417 O 0.32428 0.89815 0.41808 0.0
C418 C 0.30938 0.81889 0.28334 0.0
O419 O 0.33148 0.82222 0.26103 0.0
O420 O 0.3735 0.8703 0.29087 0.0
O421 O 0.40794 0.90032 0.33425 0.0
H422 H 0.37619 0.89565 0.15363 0.0
H423 H 0.34087 0.86009 0.42413 0.0
O424 O 0.37314 0.92098 0.42725 0.0
H425 H 0.42542 0.84357 0.43105 0.0
H426 H 0.4652 0.95254 0.48912 0.0
H427 H 0.44712 0.95283 0.34456 0.0
H428 H 0.4293 0.88596 0.3943 0.0
H429 H 0.41556 0.92118 0.4616 0.0
O430 O 0.31121 0.84074 0.30281 0.0
H431 H 0.38294 0.89924 0.22671 0.0
H432 H 0.29095 0.86074 0.24401 0.0
H433 H 0.4972 0.98383 0.37078 0.0
H434 H 0.33614 0.81763 0.46133 0.0
H435 H 0.50653 0.9838 0.44358 0.0
H436 H 0.37864 0.80909 0.46514 0.0
O437 O 0.39342 0.94497 0.34932 0.0
H438 H 0.25536 0.88037 0.3606 0.0
H439 H 0.33411 0.92948 0.26027 0.0
H440 H 0.29824 0.94631 0.27018 0.0
H441 H 0.25839 0.92159 0.32049 0.0
H442 H 0.29201 0.86453 0.35017 0.0
H443 H 0.283 0.85646 0.17119 0.0
H444 H 0.32586 0.87409 0.12535 0.0
O445 O 0.3754 0.92493 0.28952 0.0
C446 C 0.39916 0.88178 0.30585 0.0
C447 C 0.35731 0.88783 0.17326 0.0
C448 C 0.30505 0.86586 0.18311 0.0
N449 N 0.33741 0.88015 0.23978 0.0
C450 C 0.36103 0.88978 0.21471 0.0
C451 C 0.30966 0.86825 0.22439 0.0
C452 C 0.32909 0.87575 0.15742 0.0
C453 C 0.35965 0.85699 0.42604 0.0
N454 N 0.38562 0.87621 0.40799 0.0
C455 C 0.35676 0.83267 0.44697 0.0
C456 C 0.38058 0.82785 0.44904 0.0
C457 C 0.40682 0.84719 0.42997 0.0
C458 C 0.40889 0.87124 0.40926 0.0
C459 C 0.46141 0.9527 0.45737 0.0
C460 C 0.45096 0.95256 0.37626 0.0
C461 C 0.43329 0.93513 0.4416 0.0
N462 N 0.42839 0.93503 0.40142 0.0
C463 C 0.47938 0.97028 0.39096 0.0
C464 C 0.48459 0.97027 0.43179 0.0
C465 C 0.39039 0.94723 0.31176 0.0
C466 C 0.27259 0.89128 0.33854 0.0
C467 C 0.31706 0.9188 0.28255 0.0
C468 C 0.29669 0.92833 0.28786 0.0
C469 C 0.27432 0.91444 0.31606 0.0
N470 N 0.31514 0.89599 0.30461 0.0
C471 C 0.29335 0.88235 0.33242 0.0
Co472 Co 0.48118 0.38161 0.3546 0.0
Co473 Co 0.46888 0.34073 0.26984 0.0
O474 O 0.46965 0.34355 0.32882 0.0
C475 C 0.4384 0.3362 0.4147 0.0
O476 O 0.43248 0.31382 0.39139 0.0
C477 C 0.49038 0.29904 0.29645 0.0
O478 O 0.49339 0.30781 0.33375 0.0
O479 O 0.51114 0.37173 0.26771 0.0
O480 O 0.50838 0.40349 0.30947 0.0
H481 H 0.49318 0.38274 0.13091 0.0
H482 H 0.48793 0.33575 0.39918 0.0
O483 O 0.45501 0.36238 0.40239 0.0
H484 H 0.58632 0.42363 0.39912 0.0
H485 H 0.51174 0.45323 0.46909 0.0
H486 H 0.48973 0.43856 0.32503 0.0
H487 H 0.54485 0.42451 0.36602 0.0
H488 H 0.49594 0.40514 0.43804 0.0
O489 O 0.48108 0.30992 0.27009 0.0
H490 H 0.49194 0.38474 0.20448 0.0
H491 H 0.44642 0.29165 0.21055 0.0
H492 H 0.50671 0.48721 0.35456 0.0
H493 H 0.52857 0.33413 0.43325 0.0
H494 H 0.51786 0.49489 0.42727 0.0
H495 H 0.57831 0.37828 0.43339 0.0
O496 O 0.44845 0.38335 0.32624 0.0
H497 H 0.38262 0.24856 0.32324 0.0
H498 H 0.41437 0.32989 0.227 0.0
H499 H 0.362 0.29221 0.23093 0.0
H500 H 0.3458 0.25107 0.2792 0.0
H501 H 0.4347 0.28691 0.31864 0.0
H502 H 0.44733 0.28865 0.13703 0.0
H503 H 0.4707 0.33442 0.09666 0.0
O504 O 0.45627 0.3712 0.26518 0.0
C505 C 0.52143 0.39739 0.28216 0.0
C506 C 0.4828 0.36263 0.14814 0.0
C507 C 0.45705 0.30984 0.15158 0.0
N508 N 0.46873 0.33837 0.21184 0.0
C509 C 0.48199 0.36363 0.18984 0.0
C510 C 0.4566 0.31169 0.19322 0.0
C511 C 0.4702 0.33552 0.12895 0.0
C512 C 0.5092 0.35524 0.39959 0.0
N513 N 0.51361 0.38034 0.3812 0.0
C514 C 0.5323 0.35411 0.41872 0.0
C515 C 0.56021 0.37886 0.41871 0.0
C516 C 0.56471 0.40429 0.39948 0.0
C517 C 0.54108 0.4046 0.3807 0.0
C518 C 0.507 0.4502 0.43746 0.0
C519 C 0.49472 0.44169 0.35656 0.0
C520 C 0.49785 0.42295 0.41969 0.0
N521 N 0.4922 0.41907 0.37956 0.0
C522 C 0.50411 0.4693 0.37323 0.0
C523 C 0.51036 0.47356 0.41396 0.0
C524 C 0.44524 0.38266 0.28826 0.0
C525 C 0.38941 0.26631 0.30196 0.0
C526 C 0.40754 0.31217 0.24823 0.0
C527 C 0.37783 0.29083 0.25023 0.0
C528 C 0.36876 0.26775 0.27729 0.0
N529 N 0.42771 0.31053 0.27237 0.0
C530 C 0.41894 0.28804 0.29911 0.0
Co531 Co 0.10934 0.47641 0.36857 0.0
Co532 Co 0.13642 0.46373 0.2826 0.0
O533 O 0.13581 0.46554 0.34139 0.0
C534 C 0.11427 0.43405 0.42694 0.0
O535 O 0.13084 0.42877 0.4027 0.0
C536 C 0.20079 0.49732 0.26606 0.0
O537 O 0.19611 0.51591 0.24551 0.0
O538 O 0.14597 0.5056 0.27969 0.0
O539 O 0.11272 0.50309 0.32382 0.0
H540 H 0.11353 0.48277 0.14361 0.0
H541 H 0.16382 0.48456 0.40893 0.0
O542 O 0.10422 0.45065 0.41607 0.0
H543 H 0.17114 0.58175 0.41182 0.0
H544 H 0.07085 0.50855 0.48489 0.0
H545 H 0.05701 0.47999 0.34287 0.0
H546 H 0.12851 0.53971 0.38058 0.0
H547 H 0.10338 0.49352 0.45197 0.0
O548 O 0.17959 0.47607 0.28467 0.0
H549 H 0.11237 0.4837 0.2173 0.0
H550 H 0.16303 0.44097 0.22322 0.0
H551 H 0.02333 0.4938 0.375 0.0
H552 H 0.20643 0.5258 0.44114 0.0
H553 H 0.03032 0.50851 0.44657 0.0
H554 H 0.21037 0.5749 0.4428 0.0
O555 O 0.07526 0.4432 0.34135 0.0
H556 H 0.14754 0.38026 0.33568 0.0
H557 H 0.09218 0.40796 0.24322 0.0
H558 H 0.07923 0.3561 0.24855 0.0
H559 H 0.10707 0.34196 0.29494 0.0
H560 H 0.15957 0.43186 0.32974 0.0
H561 H 0.16487 0.4397 0.14958 0.0
H562 H 0.13995 0.46067 0.10926 0.0
O563 O 0.0931 0.45047 0.27896 0.0
C564 C 0.13064 0.5158 0.29516 0.0
C565 C 0.12447 0.47356 0.16085 0.0
C566 C 0.15329 0.44939 0.1642 0.0
N567 N 0.13761 0.4624 0.22458 0.0
C568 C 0.12388 0.47401 0.2026 0.0
C569 C 0.15221 0.45021 0.20589 0.0
C570 C 0.1393 0.46116 0.14159 0.0
C571 C 0.16491 0.50556 0.41014 0.0
N572 N 0.14309 0.5093 0.39385 0.0
C573 C 0.18932 0.52899 0.42814 0.0
C574 C 0.19156 0.55655 0.42898 0.0
C575 C 0.16956 0.5604 0.41162 0.0
C576 C 0.14546 0.53646 0.39393 0.0
C577 C 0.06745 0.502 0.45383 0.0
C578 C 0.06015 0.48624 0.37398 0.0
C579 C 0.08593 0.49365 0.43491 0.0
N580 N 0.08255 0.48653 0.39519 0.0
C581 C 0.04095 0.494 0.39208 0.0
C582 C 0.04481 0.50213 0.43223 0.0
C583 C 0.07152 0.43963 0.30356 0.0
C584 C 0.13527 0.38615 0.31532 0.0
C585 C 0.10427 0.40199 0.26372 0.0
C586 C 0.0969 0.37258 0.26648 0.0
C587 C 0.11255 0.36467 0.29249 0.0
N588 N 0.12664 0.42296 0.28616 0.0
C589 C 0.14203 0.41534 0.31176 0.0
Co590 Co 0.63519 0.1049 0.37965 0.0
Co591 Co 0.68034 0.12903 0.29556 0.0
O592 O 0.67418 0.12721 0.35417 0.0
C593 C 0.67566 0.09455 0.43466 0.0
O594 O 0.69851 0.10884 0.41112 0.0
C595 C 0.71337 0.19348 0.28092 0.0
O596 O 0.69157 0.19001 0.25796 0.0
O597 O 0.64926 0.14001 0.28683 0.0
O598 O 0.6178 0.11859 0.33788 0.0
H599 H 0.64775 0.10918 0.1521 0.0
H600 H 0.6878 0.15079 0.42342 0.0
O601 O 0.65048 0.09043 0.4243 0.0
H602 H 0.61042 0.17675 0.4441 0.0
H603 H 0.56209 0.06742 0.49325 0.0
H604 H 0.57536 0.06724 0.3474 0.0
H605 H 0.60085 0.13404 0.40291 0.0
H606 H 0.61161 0.09428 0.46358 0.0
O607 O 0.7116 0.17168 0.30029 0.0
H608 H 0.64093 0.10701 0.22522 0.0
H609 H 0.73332 0.15423 0.24213 0.0
H610 H 0.5255 0.03982 0.37605 0.0
H611 H 0.69809 0.19326 0.46535 0.0
H612 H 0.51859 0.03983 0.44956 0.0
H613 H 0.65923 0.20653 0.47612 0.0
O614 O 0.62637 0.06935 0.34747 0.0
H615 H 0.77049 0.13685 0.36018 0.0
H616 H 0.69257 0.08378 0.2604 0.0
H617 H 0.73017 0.06935 0.27132 0.0
H618 H 0.76961 0.09608 0.32135 0.0
H619 H 0.73215 0.15021 0.34882 0.0
H620 H 0.74127 0.15715 0.16925 0.0
H621 H 0.69825 0.13447 0.12362 0.0
O622 O 0.65008 0.0868 0.28934 0.0
C623 C 0.62535 0.13299 0.30532 0.0
C624 C 0.66668 0.11929 0.17164 0.0
C625 C 0.71915 0.14622 0.18126 0.0
N626 N 0.68669 0.13091 0.23802 0.0
C627 C 0.66294 0.1182 0.21309 0.0
C628 C 0.71453 0.14466 0.22255 0.0
C629 C 0.69501 0.13346 0.15569 0.0
C630 C 0.6706 0.15604 0.42816 0.0
N631 N 0.64351 0.13938 0.41124 0.0
C632 C 0.67665 0.18033 0.45182 0.0
C633 C 0.65487 0.1878 0.4578 0.0
C634 C 0.62749 0.1711 0.43986 0.0
C635 C 0.62224 0.14695 0.41645 0.0
C636 C 0.56484 0.06698 0.4613 0.0
C637 C 0.57258 0.06729 0.37943 0.0
C638 C 0.59285 0.08217 0.44427 0.0
N639 N 0.59641 0.08257 0.4037 0.0
C640 C 0.54427 0.05164 0.39548 0.0
C641 C 0.54042 0.05163 0.43671 0.0
C642 C 0.63197 0.06573 0.31138 0.0
C643 C 0.75345 0.12506 0.33825 0.0
C644 C 0.70943 0.0953 0.28257 0.0
C645 C 0.73077 0.08713 0.28846 0.0
C646 C 0.75292 0.10216 0.31649 0.0
N647 N 0.71013 0.11784 0.30394 0.0
C648 C 0.73173 0.1326 0.33157 0.0
Co649 Co 0.53929 0.63474 0.34902 0.0
Co650 Co 0.55939 0.67814 0.26494 0.0
O651 O 0.55566 0.67366 0.32376 0.0
C652 C 0.58406 0.67617 0.41091 0.0
O653 O 0.59189 0.69979 0.38927 0.0
C654 C 0.53075 0.71409 0.2824 0.0
O655 O 0.51189 0.69372 0.30659 0.0
O656 O 0.5165 0.65001 0.25849 0.0
O657 O 0.51121 0.61625 0.30382 0.0
H658 H 0.53917 0.64291 0.12251 0.0
H659 H 0.53918 0.68556 0.39001 0.0
O660 O 0.56593 0.65084 0.39716 0.0
H661 H 0.43693 0.6045 0.39725 0.0
H662 H 0.50027 0.56143 0.46202 0.0
H663 H 0.52126 0.57549 0.31747 0.0
H664 H 0.47479 0.59765 0.3633 0.0
H665 H 0.52282 0.61086 0.43239 0.0
O666 O 0.55146 0.71171 0.2663 0.0
H667 H 0.53573 0.63754 0.19584 0.0
H668 H 0.58962 0.72956 0.20991 0.0
H669 H 0.49731 0.52569 0.34555 0.0
H670 H 0.50213 0.69325 0.42436 0.0
H671 H 0.4867 0.51829 0.41848 0.0
H672 H 0.45048 0.65252 0.42831 0.0
O673 O 0.56933 0.6281 0.32073 0.0
H674 H 0.64702 0.76466 0.3261 0.0
H675 H 0.61423 0.6841 0.22834 0.0
H676 H 0.66728 0.71784 0.23793 0.0
H677 H 0.68398 0.75853 0.28703 0.0
H678 H 0.59413 0.73018 0.31584 0.0
H679 H 0.59347 0.73606 0.13674 0.0
H680 H 0.56826 0.69252 0.09245 0.0
O681 O 0.56782 0.64494 0.25978 0.0
C682 C 0.50192 0.6247 0.27443 0.0
C683 C 0.55045 0.66205 0.14146 0.0
C684 C 0.58092 0.71431 0.14945 0.0
N685 N 0.56295 0.68304 0.20722 0.0
C686 C 0.54868 0.65908 0.18303 0.0
C687 C 0.5787 0.71046 0.19089 0.0
C688 C 0.56674 0.68988 0.12462 0.0
C689 C 0.51708 0.66748 0.3922 0.0
N690 N 0.50966 0.64085 0.37581 0.0
C691 C 0.49602 0.67208 0.41142 0.0
C692 C 0.46703 0.64926 0.41354 0.0
C693 C 0.45943 0.62233 0.39615 0.0
C694 C 0.48107 0.61858 0.37706 0.0
C695 C 0.50487 0.56435 0.4303 0.0
C696 C 0.51667 0.57256 0.34918 0.0
C697 C 0.51789 0.59233 0.41335 0.0
N698 N 0.52329 0.59612 0.37313 0.0
C699 C 0.50328 0.54425 0.36501 0.0
C700 C 0.49731 0.54015 0.40585 0.0
C701 C 0.57453 0.62996 0.28311 0.0
C702 C 0.64001 0.74704 0.30459 0.0
C703 C 0.62131 0.70162 0.24998 0.0
C704 C 0.65139 0.72073 0.25516 0.0
C705 C 0.66074 0.74357 0.28268 0.0
N706 N 0.60112 0.70519 0.27156 0.0
C707 C 0.61011 0.72751 0.2986 0.0
Co708 Co 0.54455 0.91033 0.87857 0.0
Co709 Co 0.55641 0.88189 0.79364 0.0
O710 O 0.55642 0.88403 0.85281 0.0
C711 C 0.58801 0.90884 0.93907 0.0
O712 O 0.59296 0.89078 0.91762 0.0
C713 C 0.52662 0.81752 0.77888 0.0
O714 O 0.50648 0.82032 0.75927 0.0
O715 O 0.51352 0.86926 0.79352 0.0
O716 O 0.51637 0.90393 0.8345 0.0
H717 H 0.52803 0.89728 0.65607 0.0
H718 H 0.53859 0.85713 0.91999 0.0
O719 O 0.57147 0.91834 0.92577 0.0
H720 H 0.44102 0.84891 0.93044 0.0
H721 H 0.51605 0.9555 0.9909 0.0
H722 H 0.53473 0.95718 0.84648 0.0
H723 H 0.48146 0.89081 0.89561 0.0
H724 H 0.53089 0.92162 0.96194 0.0
O725 O 0.54717 0.83962 0.79706 0.0
H726 H 0.53023 0.9005 0.72962 0.0
H727 H 0.58151 0.85843 0.73262 0.0
H728 H 0.51941 0.9907 0.87421 0.0
H729 H 0.49899 0.81522 0.9557 0.0
H730 H 0.50988 0.99011 0.9472 0.0
H731 H 0.44968 0.81083 0.9612 0.0
O732 O 0.57659 0.94394 0.8491 0.0
H733 H 0.64563 0.87941 0.843 0.0
H734 H 0.60959 0.92715 0.74969 0.0
H735 H 0.66254 0.94351 0.75187 0.0
H736 H 0.68087 0.91947 0.79863 0.0
H737 H 0.59287 0.864 0.84023 0.0
H738 H 0.57978 0.85458 0.65913 0.0
H739 H 0.55289 0.87414 0.62029 0.0
O740 O 0.5668 0.92431 0.78795 0.0
C741 C 0.50238 0.88369 0.80911 0.0
C742 C 0.53977 0.88862 0.67265 0.0
C743 C 0.56878 0.86464 0.67436 0.0
N744 N 0.55579 0.87943 0.73554 0.0
C745 C 0.54106 0.89035 0.71434 0.0
C746 C 0.5696 0.86676 0.71603 0.0
C747 C 0.55371 0.87563 0.65259 0.0
C748 C 0.51755 0.85589 0.92284 0.0
N749 N 0.51286 0.87711 0.90667 0.0
C750 C 0.49502 0.83186 0.94284 0.0
C751 C 0.46735 0.82935 0.94583 0.0
C752 C 0.46249 0.85071 0.92861 0.0
C753 C 0.48555 0.87445 0.9089 0.0
C754 C 0.52019 0.95599 0.95929 0.0
C755 C 0.53066 0.95663 0.87823 0.0
C756 C 0.52871 0.93696 0.94266 0.0
N757 N 0.53353 0.93723 0.90244 0.0
C758 C 0.52206 0.97584 0.89382 0.0
C759 C 0.51674 0.97546 0.93467 0.0
C760 C 0.57872 0.94659 0.81113 0.0
C761 C 0.63791 0.89002 0.82245 0.0
C762 C 0.61738 0.91673 0.77037 0.0
C763 C 0.6474 0.92602 0.77135 0.0
C764 C 0.65767 0.91251 0.79757 0.0
N765 N 0.5981 0.89454 0.79473 0.0
C766 C 0.60805 0.88134 0.82068 0.0
Co767 Co 0.64375 0.54288 0.85053 0.0
Co768 Co 0.68042 0.54704 0.76456 0.0
O769 O 0.67978 0.55014 0.82298 0.0
C770 C 0.66416 0.59091 0.91029 0.0
O771 O 0.64716 0.5992 0.89243 0.0
C772 C 0.71126 0.51227 0.75462 0.0
O773 O 0.68772 0.49209 0.73626 0.0
O774 O 0.64758 0.50546 0.76843 0.0
O775 O 0.61837 0.51332 0.8095 0.0
H776 H 0.6342 0.51548 0.62885 0.0
H777 H 0.6897 0.53681 0.89383 0.0
O778 O 0.66838 0.57138 0.89375 0.0
H779 H 0.59905 0.4414 0.90993 0.0
H780 H 0.57921 0.52937 0.97021 0.0
H781 H 0.58854 0.54011 0.82387 0.0
H782 H 0.59862 0.48119 0.87135 0.0
H783 H 0.62239 0.53254 0.93583 0.0
O784 O 0.71119 0.53457 0.76989 0.0
H785 H 0.63447 0.52106 0.70207 0.0
H786 H 0.7278 0.56438 0.70297 0.0
H787 H 0.54443 0.53548 0.85696 0.0
H788 H 0.69101 0.49779 0.93327 0.0
H789 H 0.53993 0.53077 0.93089 0.0
H790 H 0.64543 0.44966 0.94153 0.0
O791 O 0.64359 0.57465 0.8179 0.0
H792 H 0.77622 0.63389 0.80659 0.0
H793 H 0.69164 0.59912 0.71523 0.0
H794 H 0.73093 0.65087 0.71261 0.0
H795 H 0.7737 0.66854 0.75839 0.0
H796 H 0.73622 0.58236 0.80857 0.0
H797 H 0.72854 0.55918 0.62974 0.0
H798 H 0.68149 0.53465 0.59216 0.0
O799 O 0.65069 0.5607 0.75762 0.0
C800 C 0.62242 0.49757 0.784 0.0
C801 C 0.65485 0.52625 0.64487 0.0
C802 C 0.70779 0.55079 0.64537 0.0
N803 N 0.6811 0.54319 0.7068 0.0
C804 C 0.65514 0.52949 0.68635 0.0
C805 C 0.70723 0.55366 0.68684 0.0
C806 C 0.68139 0.53701 0.62431 0.0
C807 C 0.66972 0.51604 0.89766 0.0
N808 N 0.64404 0.5115 0.88089 0.0
C809 C 0.67063 0.49397 0.91984 0.0
C810 C 0.64505 0.46697 0.92442 0.0
C811 C 0.61903 0.46232 0.9067 0.0
C812 C 0.61894 0.48492 0.88481 0.0
C813 C 0.58087 0.5311 0.93804 0.0
C814 C 0.58641 0.5372 0.85588 0.0
C815 C 0.60531 0.53305 0.91834 0.0
N816 N 0.6081 0.53653 0.87773 0.0
C817 C 0.56142 0.53477 0.87449 0.0
C818 C 0.55883 0.532 0.91592 0.0
C819 C 0.6418 0.57466 0.77975 0.0
C820 C 0.75774 0.62643 0.78641 0.0
C821 C 0.71007 0.60665 0.73543 0.0
C822 C 0.73231 0.63598 0.73371 0.0
C823 C 0.7563 0.64587 0.75939 0.0
N824 N 0.71171 0.58766 0.76187 0.0
C825 C 0.73508 0.59725 0.78731 0.0
Co826 Co 0.11263 0.63536 0.86112 0.0
Co827 Co 0.13648 0.67769 0.77603 0.0
O828 O 0.13721 0.67387 0.83497 0.0
C829 C 0.11401 0.67928 0.92329 0.0
O830 O 0.12921 0.70219 0.90022 0.0
C831 C 0.2009 0.71797 0.79737 0.0
O832 O 0.19705 0.70846 0.83437 0.0
O833 O 0.1475 0.64674 0.76887 0.0
O834 O 0.11769 0.61441 0.8145 0.0
H835 H 0.10914 0.63796 0.63639 0.0
H836 H 0.16521 0.68223 0.90366 0.0
O837 O 0.10599 0.6535 0.9105 0.0
H838 H 0.18063 0.5971 0.89816 0.0
H839 H 0.07778 0.56231 0.97432 0.0
H840 H 0.0655 0.57795 0.83198 0.0
H841 H 0.13632 0.59432 0.86865 0.0
H842 H 0.10723 0.6112 0.94386 0.0
O843 O 0.17937 0.70821 0.77318 0.0
H844 H 0.1102 0.63481 0.70987 0.0
H845 H 0.1613 0.72766 0.71792 0.0
H846 H 0.03611 0.52888 0.86102 0.0
H847 H 0.20953 0.68578 0.93406 0.0
H848 H 0.04208 0.52057 0.93287 0.0
H849 H 0.21759 0.64303 0.9314 0.0
O850 O 0.07654 0.63229 0.83618 0.0
H851 H 0.14588 0.76938 0.83734 0.0
H852 H 0.09092 0.68945 0.74099 0.0
H853 H 0.07686 0.72738 0.75077 0.0
H854 H 0.1045 0.76781 0.79913 0.0
H855 H 0.15896 0.73081 0.82694 0.0
H856 H 0.16107 0.73177 0.64451 0.0
H857 H 0.13474 0.68671 0.60321 0.0
O858 O 0.09357 0.64755 0.77437 0.0
C859 C 0.13495 0.62135 0.78467 0.0
C860 C 0.12062 0.65776 0.65406 0.0
C861 C 0.14978 0.71041 0.65861 0.0
N862 N 0.13562 0.68101 0.71825 0.0
C863 C 0.12124 0.65612 0.6957 0.0
C864 C 0.14988 0.70792 0.70019 0.0
C865 C 0.135 0.68512 0.63546 0.0
C866 C 0.16815 0.66335 0.90287 0.0
N867 N 0.14776 0.63797 0.88491 0.0
C868 C 0.19349 0.66557 0.91992 0.0
C869 C 0.19803 0.64161 0.91835 0.0
C870 C 0.17731 0.61585 0.89972 0.0
C871 C 0.15225 0.61445 0.88298 0.0
C872 C 0.07481 0.56561 0.94316 0.0
C873 C 0.06825 0.57468 0.86324 0.0
C874 C 0.09136 0.59328 0.92573 0.0
N875 N 0.08824 0.59743 0.88606 0.0
C876 C 0.05139 0.54676 0.87963 0.0
C877 C 0.05478 0.5422 0.91985 0.0
C878 C 0.07233 0.63449 0.79904 0.0
C879 C 0.13373 0.75194 0.81607 0.0
C880 C 0.10298 0.70687 0.76223 0.0
C881 C 0.09496 0.72835 0.76755 0.0
C882 C 0.11049 0.75102 0.79467 0.0
N883 N 0.12591 0.70799 0.78319 0.0
C884 C 0.14114 0.73009 0.80993 0.0
Co885 Co 0.48543 0.10812 0.87481 0.0
Co886 Co 0.4696 0.13109 0.78694 0.0
O887 O 0.47077 0.13076 0.84579 0.0
C888 C 0.44155 0.07745 0.93913 0.0
O889 O 0.43815 0.05301 0.92351 0.0
C890 C 0.50086 0.19509 0.76974 0.0
O891 O 0.52003 0.19111 0.74942 0.0
O892 O 0.51222 0.14292 0.78409 0.0
O893 O 0.51421 0.11436 0.83182 0.0
H894 H 0.49188 0.10948 0.64889 0.0
H895 H 0.48306 0.15681 0.91597 0.0
O896 O 0.45752 0.10165 0.92075 0.0
H897 H 0.58756 0.18362 0.91906 0.0
H898 H 0.53058 0.08306 0.99065 0.0
H899 H 0.49799 0.06136 0.85077 0.0
H900 H 0.55068 0.13744 0.88777 0.0
H901 H 0.50549 0.10707 0.95891 0.0
O902 O 0.4798 0.17362 0.78826 0.0
H903 H 0.49189 0.10842 0.7226 0.0
H904 H 0.4451 0.15519 0.72651 0.0
H905 H 0.52085 0.03552 0.88244 0.0
H906 H 0.5192 0.20303 0.94823 0.0
H907 H 0.53758 0.04642 0.953 0.0
H908 H 0.57188 0.21671 0.94989 0.0
O909 O 0.45563 0.0716 0.84679 0.0
H910 H 0.38246 0.13678 0.83864 0.0
H911 H 0.41513 0.08495 0.74709 0.0
H912 H 0.3624 0.06935 0.75154 0.0
H913 H 0.34577 0.09544 0.79744 0.0
H914 H 0.43498 0.15143 0.83362 0.0
H915 H 0.44461 0.1568 0.65281 0.0
H916 H 0.46813 0.13383 0.61349 0.0
O917 O 0.45876 0.08862 0.7843 0.0
C918 C 0.52516 0.13092 0.80155 0.0
C919 C 0.48153 0.11955 0.66568 0.0
C920 C 0.45502 0.14612 0.66788 0.0
N921 N 0.46853 0.13174 0.72887 0.0
C922 C 0.48145 0.119 0.70744 0.0
C923 C 0.45539 0.14517 0.70961 0.0
C924 C 0.46822 0.13322 0.64584 0.0
C925 C 0.5059 0.16247 0.91687 0.0
N926 N 0.51463 0.14423 0.90027 0.0
C927 C 0.52629 0.18874 0.93504 0.0
C928 C 0.55585 0.19643 0.93591 0.0
C929 C 0.56466 0.17789 0.91859 0.0
C930 C 0.54366 0.15179 0.9007 0.0
C931 C 0.52245 0.07744 0.96049 0.0
C932 C 0.5042 0.06558 0.88188 0.0
C933 C 0.50855 0.09118 0.94214 0.0
N934 N 0.5002 0.08565 0.90294 0.0
C935 C 0.51735 0.05094 0.89961 0.0
C936 C 0.52671 0.05709 0.93913 0.0
C937 C 0.45106 0.06747 0.80907 0.0
C938 C 0.38945 0.12529 0.81847 0.0
C939 C 0.40807 0.09627 0.76737 0.0
C940 C 0.37818 0.08741 0.76964 0.0
C941 C 0.36886 0.10206 0.79537 0.0
N942 N 0.42815 0.11916 0.78998 0.0
C943 C 0.41916 0.13353 0.81542 0.0
Co944 Co 0.38784 0.47071 0.85938 0.0
Co945 Co 0.34655 0.4648 0.77778 0.0
O946 O 0.35049 0.46383 0.83625 0.0
C947 C 0.34072 0.42908 0.91827 0.0
O948 O 0.31909 0.42683 0.89598 0.0
C949 C 0.31612 0.49983 0.76934 0.0
O950 O 0.33895 0.51909 0.74873 0.0
O951 O 0.3797 0.50626 0.7778 0.0
O952 O 0.41078 0.49893 0.81533 0.0
H953 H 0.38532 0.49162 0.63745 0.0
H954 H 0.34581 0.48221 0.90632 0.0
O955 O 0.36724 0.4436 0.90591 0.0
H956 H 0.4413 0.57343 0.91469 0.0
H957 H 0.45857 0.48364 0.97013 0.0
H958 H 0.44086 0.47241 0.82494 0.0
H959 H 0.43644 0.53129 0.87616 0.0
H960 H 0.41351 0.48018 0.94178 0.0
O961 O 0.31656 0.47801 0.78559 0.0
H962 H 0.38899 0.48857 0.71057 0.0
H963 H 0.29597 0.44527 0.72114 0.0
H964 H 0.48653 0.47674 0.85197 0.0
H965 H 0.34983 0.52354 0.94573 0.0
H966 H 0.4953 0.48178 0.92523 0.0
H967 H 0.39787 0.56964 0.95024 0.0
O968 O 0.38477 0.43734 0.82726 0.0
H969 H 0.25232 0.38056 0.82979 0.0
H970 H 0.33235 0.41062 0.73124 0.0
H971 H 0.29263 0.35906 0.73354 0.0
H972 H 0.25215 0.34374 0.78298 0.0
H973 H 0.29269 0.43186 0.82677 0.0
H974 H 0.29128 0.44795 0.64813 0.0
H975 H 0.33618 0.47119 0.60572 0.0
O976 O 0.37549 0.45048 0.76796 0.0
C977 C 0.40554 0.51442 0.79083 0.0
C978 C 0.36558 0.48141 0.65559 0.0
C979 C 0.31282 0.45688 0.66158 0.0
N980 N 0.34274 0.46661 0.72016 0.0
C981 C 0.36753 0.47961 0.69704 0.0
C982 C 0.31561 0.45543 0.70293 0.0
C983 C 0.33801 0.46994 0.63781 0.0
C984 C 0.36692 0.50181 0.90865 0.0
N985 N 0.39103 0.50377 0.88992 0.0
C986 C 0.36901 0.52535 0.93078 0.0
C987 C 0.39594 0.55123 0.93322 0.0
C988 C 0.4203 0.55336 0.91332 0.0
C989 C 0.41739 0.52936 0.89155 0.0
C990 C 0.45498 0.48157 0.9382 0.0
C991 C 0.44483 0.4754 0.85671 0.0
C992 C 0.42947 0.47949 0.92193 0.0
N993 N 0.42461 0.4764 0.88158 0.0
C994 C 0.47067 0.47763 0.87188 0.0
C995 C 0.47563 0.48055 0.91296 0.0
C996 C 0.38476 0.43644 0.78909 0.0
C997 C 0.26982 0.38697 0.80809 0.0
C998 C 0.31499 0.40412 0.7531 0.0
C999 C 0.29246 0.37489 0.75413 0.0
C1000 C 0.26975 0.36632 0.78185 0.0
N1001 N 0.31489 0.42428 0.77891 0.0
C1002 C 0.29271 0.41601 0.80619 0.0
Co1003 Co 0.91679 0.37859 0.86464 0.0
Co1004 Co 0.8904 0.33754 0.7799 0.0
O1005 O 0.89224 0.34064 0.83839 0.0
C1006 C 0.94676 0.36515 0.92971 0.0
O1007 O 0.97162 0.38418 0.91262 0.0
C1008 C 0.82574 0.30362 0.76576 0.0
O1009 O 0.82831 0.32621 0.74555 0.0
O1010 O 0.87821 0.36806 0.77722 0.0
O1011 O 0.91118 0.40047 0.81979 0.0
H1012 H 0.90615 0.37809 0.64023 0.0
H1013 H 0.86652 0.33064 0.90789 0.0
O1014 O 0.92256 0.35775 0.91169 0.0
H1015 H 0.84676 0.41316 0.90792 0.0
H1016 H 0.951 0.44996 0.97991 0.0
H1017 H 0.96441 0.43635 0.83714 0.0
H1018 H 0.89134 0.41816 0.87562 0.0
H1019 H 0.92138 0.40164 0.94807 0.0
O1020 O 0.84803 0.3052 0.78361 0.0
H1021 H 0.90895 0.38074 0.71375 0.0
H1022 H 0.86729 0.28796 0.72106 0.0
H1023 H 0.9939 0.48491 0.86763 0.0
H1024 H 0.82193 0.32488 0.94126 0.0
H1025 H 0.98738 0.49215 0.93967 0.0
H1026 H 0.81181 0.36635 0.94137 0.0
O1027 O 0.95226 0.38223 0.83622 0.0
H1028 H 0.88666 0.24658 0.83434 0.0
H1029 H 0.93585 0.32824 0.73849 0.0
H1030 H 0.95182 0.29144 0.74338 0.0
H1031 H 0.92703 0.2501 0.7914 0.0
H1032 H 0.8717 0.28418 0.82892 0.0
H1033 H 0.86386 0.2842 0.64762 0.0
H1034 H 0.88348 0.32954 0.60661 0.0
O1035 O 0.9329 0.36893 0.77487 0.0
C1036 C 0.89256 0.39382 0.79174 0.0
C1037 C 0.89747 0.35816 0.65774 0.0
C1038 C 0.87376 0.30549 0.66189 0.0
N1039 N 0.88822 0.33452 0.72184 0.0
C1040 C 0.89895 0.35952 0.69945 0.0
C1041 C 0.87567 0.30773 0.70352 0.0
C1042 C 0.88477 0.33093 0.63891 0.0
C1043 C 0.86246 0.34889 0.90826 0.0
N1044 N 0.8818 0.37484 0.89043 0.0
C1045 C 0.83708 0.34545 0.92699 0.0
C1046 C 0.83139 0.36871 0.927 0.0
C1047 C 0.85099 0.39498 0.90824 0.0
C1048 C 0.87618 0.39764 0.88989 0.0
C1049 C 0.95416 0.44711 0.94864 0.0
C1050 C 0.96146 0.43915 0.86851 0.0
C1051 C 0.93751 0.41979 0.93042 0.0
N1052 N 0.94117 0.41611 0.89072 0.0
C1053 C 0.97833 0.46678 0.88568 0.0
C1054 C 0.9746 0.47078 0.92602 0.0
C1055 C 0.9551 0.38111 0.79827 0.0
C1056 C 0.89759 0.26445 0.81323 0.0
C1057 C 0.92513 0.31051 0.75973 0.0
C1058 C 0.93419 0.28964 0.76224 0.0
C1059 C 0.92026 0.26645 0.78916 0.0
N1060 N 0.90274 0.3083 0.78325 0.0
C1061 C 0.88915 0.28575 0.80995 0.0
Co1062 Co 0.10778 0.47302 0.65858 0.0
Co1063 Co 0.13928 0.46459 0.74274 0.0
O1064 O 0.13677 0.46487 0.68385 0.0
C1065 C 0.11429 0.43191 0.59953 0.0
O1066 O 0.13334 0.42919 0.62195 0.0
C1067 C 0.20424 0.49859 0.75545 0.0
O1068 O 0.19993 0.51703 0.77696 0.0
O1069 O 0.14837 0.50636 0.74328 0.0
O1070 O 0.11226 0.50092 0.70249 0.0
H1071 H 0.1218 0.48848 0.88208 0.0
H1072 H 0.16288 0.48425 0.61624 0.0
O1073 O 0.10206 0.44619 0.61214 0.0
H1074 H 0.15945 0.57594 0.60379 0.0
H1075 H 0.05065 0.48263 0.54426 0.0
H1076 H 0.05811 0.47889 0.6907 0.0
H1077 H 0.12064 0.53378 0.64046 0.0
H1078 H 0.09279 0.48141 0.57483 0.0
O1079 O 0.18255 0.47723 0.73774 0.0
H1080 H 0.11781 0.48684 0.80855 0.0
H1081 H 0.16808 0.44373 0.80134 0.0
H1082 H 0.01639 0.4814 0.66124 0.0
H1083 H 0.2018 0.52561 0.57884 0.0
H1084 H 1.01192 0.48217 0.58738 0.0
H1085 H 0.2003 0.57196 0.5723 0.0
O1086 O 0.07628 0.4397 0.68874 0.0
H1087 H 0.14931 0.38014 0.69104 0.0
H1088 H 0.09719 0.4099 0.78661 0.0
H1089 H 0.08459 0.35806 0.78337 0.0
H1090 H 0.11081 0.34288 0.73541 0.0
H1091 H 0.16102 0.43173 0.69497 0.0
H1092 H 0.17267 0.44495 0.87479 0.0
H1093 H 0.1494 0.46742 0.91569 0.0
O1094 O 0.09582 0.45089 0.74977 0.0
C1095 C 0.13235 0.51583 0.72791 0.0
C1096 C 0.13202 0.4786 0.8646 0.0
C1097 C 0.16057 0.45417 0.86051 0.0
N1098 N 0.14263 0.46516 0.80065 0.0
C1099 C 0.12982 0.4776 0.82294 0.0
C1100 C 0.1579 0.45356 0.81892 0.0
C1101 C 0.14751 0.46679 0.88343 0.0
C1102 C 0.16158 0.50395 0.61299 0.0
N1103 N 0.13881 0.50603 0.6295 0.0
C1104 C 0.18393 0.52751 0.59201 0.0
C1105 C 0.18312 0.55352 0.58842 0.0
C1106 C 0.1602 0.55575 0.60605 0.0
C1107 C 0.13822 0.53173 0.62672 0.0
C1108 C 0.05241 0.48228 0.57641 0.0
C1109 C 0.05696 0.48031 0.65859 0.0
C1110 C 0.07611 0.48137 0.59395 0.0
N1111 N 0.07786 0.47979 0.6346 0.0
C1112 C 0.03312 0.4815 0.64208 0.0
C1113 C 0.03067 0.48206 0.60067 0.0
C1114 C 0.07353 0.43795 0.72665 0.0
C1115 C 0.13776 0.38648 0.71209 0.0
C1116 C 0.10856 0.40347 0.76544 0.0
C1117 C 0.10141 0.37408 0.76386 0.0
C1118 C 0.11614 0.36559 0.73697 0.0
N1119 N 0.12985 0.42387 0.74099 0.0
C1120 C 0.14434 0.41568 0.71451 0.0
Co1121 Co 0.63508 0.09779 0.66417 0.0
Co1122 Co 0.68236 0.1276 0.74474 0.0
O1123 O 0.67467 0.12293 0.68652 0.0
C1124 C 0.67623 0.09056 0.60658 0.0
O1125 O 0.69929 0.10623 0.62913 0.0
C1126 C 0.71567 0.19251 0.75369 0.0
O1127 O 0.69418 0.18988 0.77673 0.0
O1128 O 0.65165 0.13915 0.75193 0.0
O1129 O 0.61752 0.11105 0.70671 0.0
H1130 H 0.65383 0.11784 0.88994 0.0
H1131 H 0.6844 0.14519 0.61676 0.0
O1132 O 0.6506 0.08396 0.61883 0.0
H1133 H 0.60034 0.16143 0.59821 0.0
H1134 H 0.55818 0.04878 0.5567 0.0
H1135 H 0.57728 0.05921 0.70162 0.0
H1136 H 0.59586 0.12163 0.64179 0.0
H1137 H 0.60826 0.08138 0.58208 0.0
O1138 O 0.71366 0.16996 0.73604 0.0
H1139 H 0.64503 0.11148 0.81731 0.0
H1140 H 0.73676 0.15417 0.79525 0.0
H1141 H 0.52673 0.02787 0.67735 0.0
H1142 H 0.68967 0.18491 0.57264 0.0
H1143 H 0.5169 0.02262 0.60429 0.0
H1144 H 0.64742 0.19324 0.56287 0.0
O1145 O 0.63012 0.06414 0.69779 0.0
H1146 H 0.77089 0.13169 0.67976 0.0
H1147 H 0.6948 0.08363 0.78374 0.0
H1148 H 0.73182 0.06827 0.77405 0.0
H1149 H 0.77034 0.09247 0.7219 0.0
H1150 H 0.73311 0.14603 0.68998 0.0
H1151 H 0.74677 0.1612 0.86753 0.0
H1152 H 0.70509 0.14291 0.91554 0.0
O1153 O 0.65195 0.08562 0.75538 0.0
C1154 C 0.62632 0.12881 0.73606 0.0
C1155 C 0.67221 0.12603 0.86936 0.0
C1156 C 0.72433 0.15032 0.85679 0.0
N1157 N 0.69029 0.13263 0.80192 0.0
C1158 C 0.66731 0.12255 0.82817 0.0
C1159 C 0.71855 0.14638 0.81582 0.0
C1160 C 0.70095 0.14005 0.88369 0.0
C1161 C 0.66574 0.14825 0.61248 0.0
N1162 N 0.63957 0.13036 0.63114 0.0
C1163 C 0.66894 0.17102 0.58756 0.0
C1164 C 0.64526 0.17572 0.58214 0.0
C1165 C 0.61885 0.15786 0.60191 0.0
C1166 C 0.61645 0.1353 0.62656 0.0
C1167 C 0.56221 0.05123 0.5885 0.0
C1168 C 0.5732 0.05733 0.66978 0.0
C1169 C 0.59057 0.06937 0.60311 0.0
N1170 N 0.59575 0.07243 0.64338 0.0
C1171 C 0.54452 0.03935 0.65622 0.0
C1172 C 0.53903 0.03638 0.61527 0.0
C1173 C 0.63531 0.06285 0.73482 0.0
C1174 C 0.75424 0.121 0.70261 0.0
C1175 C 0.71124 0.09404 0.76064 0.0
C1176 C 0.73227 0.08536 0.75546 0.0
C1177 C 0.7539 0.09897 0.72623 0.0
N1178 N 0.71175 0.11573 0.73741 0.0
C1179 C 0.73284 0.12909 0.70863 0.0
Co1180 Co 0.54024 0.6328 0.64773 0.0
Co1181 Co 0.55949 0.67541 0.73226 0.0
O1182 O 0.5548 0.67134 0.67356 0.0
C1183 C 0.58256 0.67594 0.5844 0.0
O1184 O 0.59017 0.69942 0.60624 0.0
C1185 C 0.52885 0.70867 0.75264 0.0
O1186 O 0.51067 0.68602 0.77438 0.0
O1187 O 0.51731 0.6448 0.73976 0.0
O1188 O 0.51459 0.61225 0.69453 0.0
H1189 H 0.54541 0.63662 0.87273 0.0
H1190 H 0.53503 0.6807 0.60705 0.0
O1191 O 0.56481 0.65048 0.59813 0.0
H1192 H 0.43432 0.5964 0.61179 0.0
H1193 H 0.50132 0.5602 0.5342 0.0
H1194 H 0.52873 0.57471 0.67673 0.0
H1195 H 0.47556 0.59257 0.64034 0.0
H1196 H 0.52126 0.60901 0.56503 0.0
O1197 O 0.54865 0.70749 0.73156 0.0
H1198 H 0.54073 0.63303 0.79936 0.0
H1199 H 0.58823 0.72584 0.78949 0.0
H1200 H 0.50751 0.52548 0.6476 0.0
H1201 H 0.49456 0.68531 0.57758 0.0
H1202 H 0.49382 0.51781 0.57562 0.0
H1203 H 0.44369 0.64295 0.57979 0.0
O1204 O 0.57293 0.62917 0.67273 0.0
H1205 H 0.64222 0.76622 0.67056 0.0
H1206 H 0.61665 0.68548 0.76602 0.0
H1207 H 0.6687 0.72253 0.75549 0.0
H1208 H 0.68178 0.76338 0.70763 0.0
H1209 H 0.59043 0.72842 0.68159 0.0
H1210 H 0.59323 0.73053 0.86277 0.0
H1211 H 0.57176 0.68566 0.90497 0.0
O1212 O 0.57124 0.64428 0.73485 0.0
C1213 C 0.50463 0.61916 0.72475 0.0
C1214 C 0.55478 0.65635 0.8547 0.0
C1215 C 0.58159 0.70904 0.84911 0.0
N1216 N 0.56394 0.67923 0.79007 0.0
C1217 C 0.55217 0.65445 0.8131 0.0
C1218 C 0.57857 0.70627 0.8076 0.0
C1219 C 0.56957 0.68386 0.87276 0.0
C1220 C 0.51319 0.66198 0.60753 0.0
N1221 N 0.508 0.63616 0.62446 0.0
C1222 C 0.49023 0.6648 0.59106 0.0
C1223 C 0.46169 0.64106 0.59239 0.0
C1224 C 0.45643 0.61495 0.61032 0.0
C1225 C 0.47993 0.61293 0.62643 0.0
C1226 C 0.50732 0.56321 0.56547 0.0
C1227 C 0.52269 0.57167 0.64549 0.0
C1228 C 0.51881 0.59086 0.58308 0.0
N1229 N 0.52606 0.59475 0.62277 0.0
C1230 C 0.51089 0.54369 0.62902 0.0
C1231 C 0.50315 0.53945 0.58873 0.0
C1232 C 0.57927 0.63112 0.70995 0.0
C1233 C 0.6368 0.74855 0.69155 0.0
C1234 C 0.62214 0.703 0.74485 0.0
C1235 C 0.65167 0.72401 0.73916 0.0
C1236 C 0.65898 0.74693 0.71232 0.0
N1237 N 0.60049 0.70481 0.72449 0.0
C1238 C 0.60751 0.72714 0.69799 0.0
Co1239 Co 0.92511 0.54199 0.65445 0.0
Co1240 Co 0.88853 0.548 0.73506 0.0
O1241 O 0.89433 0.54891 0.67664 0.0
C1242 C 0.92137 0.58413 0.59441 0.0
O1243 O 0.90044 0.58558 0.61413 0.0
C1244 C 0.82307 0.51271 0.74211 0.0
O1245 O 0.8267 0.49369 0.7633 0.0
O1246 O 0.88055 0.5066 0.73574 0.0
O1247 O 0.91892 0.51337 0.69838 0.0
H1248 H 0.89872 0.52186 0.87642 0.0
H1249 H 0.87258 0.53106 0.60581 0.0
O1250 O 0.93297 0.56967 0.60838 0.0
H1251 H 0.8771 0.43977 0.5976 0.0
H1252 H 0.98492 0.53079 0.5447 0.0
H1253 H 0.97605 0.54018 0.69002 0.0
H1254 H 0.91348 0.4815 0.63738 0.0
H1255 H 0.94244 0.53298 0.57251 0.0
O1256 O 0.84538 0.5346 0.72608 0.0
H1257 H 0.90648 0.52462 0.80347 0.0
H1258 H 0.85628 0.5674 0.79008 0.0
H1259 H 0.01861 0.53763 0.66349 0.0
H1260 H 0.83625 0.4902 0.5651 0.0
H1261 H 0.02369 0.53386 0.59019 0.0
H1262 H 0.83831 0.44405 0.56067 0.0
O1263 O 0.9547 0.57503 0.68726 0.0
H1264 H 0.87898 0.63203 0.68057 0.0
H1265 H 0.92744 0.60229 0.78181 0.0
H1266 H 0.93902 0.65383 0.77871 0.0
H1267 H 0.91463 0.66899 0.72791 0.0
H1268 H 0.86826 0.58074 0.68443 0.0
H1269 H 0.84785 0.56497 0.86289 0.0
H1270 H 0.86923 0.54214 0.90663 0.0
O1271 O 0.93162 0.56241 0.74619 0.0
C1272 C 0.89825 0.49824 0.72314 0.0
C1273 C 0.88933 0.5319 0.8577 0.0
C1274 C 0.8608 0.55611 0.85011 0.0
N1275 N 0.88203 0.54633 0.7925 0.0
C1276 C 0.89367 0.53356 0.81635 0.0
C1277 C 0.86565 0.55742 0.80889 0.0
C1278 C 0.87278 0.54329 0.87462 0.0
C1279 C 0.87417 0.51147 0.60351 0.0
N1280 N 0.89589 0.50926 0.62298 0.0
C1281 C 0.85326 0.48818 0.58064 0.0
C1282 C 0.85438 0.46227 0.57825 0.0
C1283 C 0.87614 0.45987 0.59893 0.0
C1284 C 0.89671 0.48363 0.62141 0.0
C1285 C 0.98296 0.53255 0.57668 0.0
C1286 C 0.97759 0.5376 0.65824 0.0
C1287 C 0.95894 0.53377 0.59265 0.0
N1288 N 0.95651 0.53636 0.63302 0.0
C1289 C 1.00188 0.53638 0.64334 0.0
C1290 C 1.00466 0.53413 0.60224 0.0
C1291 C 0.95512 0.57613 0.72538 0.0
C1292 C 0.88972 0.62568 0.70288 0.0
C1293 C 0.91688 0.60872 0.7594 0.0
C1294 C 0.92345 0.63793 0.75791 0.0
C1295 C 0.90974 0.64642 0.72942 0.0
N1296 N 0.89713 0.58847 0.73333 0.0
C1297 C 0.88368 0.59666 0.70526 0.0
Co1298 Co 0.38805 0.90795 0.67473 0.0
Co1299 Co 0.34475 0.88689 0.75937 0.0
O1300 O 0.34911 0.88686 0.7006 0.0
C1301 C 0.34713 0.91339 0.61402 0.0
O1302 O 0.32382 0.89952 0.63694 0.0
C1303 C 0.30729 0.82224 0.74429 0.0
O1304 O 0.32763 0.82247 0.72106 0.0
O1305 O 0.37229 0.87128 0.76657 0.0
O1306 O 0.40607 0.89756 0.71985 0.0
H1307 H 0.38015 0.90342 0.90176 0.0
H1308 H 0.3358 0.85863 0.63449 0.0
O1309 O 0.37238 0.91914 0.62675 0.0
H1310 H 0.41384 0.83248 0.62683 0.0
H1311 H 0.46023 0.93856 0.56032 0.0
H1312 H 0.4482 0.94798 0.7049 0.0
H1313 H 0.42298 0.87803 0.66022 0.0
H1314 H 0.41102 0.91338 0.59117 0.0
O1315 O 0.31039 0.84597 0.75892 0.0
H1316 H 0.38536 0.90378 0.82847 0.0
H1317 H 0.29336 0.86767 0.81438 0.0
H1318 H 0.49788 0.97293 0.67531 0.0
H1319 H 0.32582 0.81306 0.60078 0.0
H1320 H 0.50415 0.96821 0.60251 0.0
H1321 H 0.36501 0.79966 0.5966 0.0
O1322 O 0.39628 0.94518 0.70251 0.0
H1323 H 0.25898 0.88976 0.69741 0.0
H1324 H 0.3403 0.93704 0.79416 0.0
H1325 H 0.30744 0.95746 0.78356 0.0
H1326 H 0.26637 0.93373 0.73497 0.0
H1327 H 0.2926 0.87023 0.70864 0.0
H1328 H 0.28697 0.86657 0.88751 0.0
H1329 H 0.33059 0.88471 0.93179 0.0
O1330 O 0.37866 0.92793 0.76367 0.0
C1331 C 0.39735 0.88058 0.75006 0.0
C1332 C 0.36098 0.89564 0.88282 0.0
C1333 C 0.30871 0.87497 0.87481 0.0
N1334 N 0.3399 0.8864 0.81706 0.0
C1335 C 0.36387 0.89595 0.84127 0.0
C1336 C 0.31249 0.87567 0.83338 0.0
C1337 C 0.33318 0.88512 0.89963 0.0
C1338 C 0.3532 0.85344 0.63231 0.0
N1339 N 0.38026 0.87169 0.64832 0.0
C1340 C 0.34731 0.82735 0.6134 0.0
C1341 C 0.36927 0.8198 0.61116 0.0
C1342 C 0.39666 0.83821 0.62808 0.0
C1343 C 0.40171 0.86406 0.64688 0.0
C1344 C 0.45778 0.94083 0.59203 0.0
C1345 C 0.45071 0.94582 0.67319 0.0
C1346 C 0.42993 0.92677 0.60968 0.0
N1347 N 0.42669 0.92905 0.64991 0.0
C1348 C 0.47891 0.9601 0.65658 0.0
C1349 C 0.48241 0.95746 0.61574 0.0
C1350 C 0.39433 0.94902 0.73994 0.0
C1351 C 0.27677 0.90027 0.7187 0.0
C1352 C 0.32262 0.92671 0.77274 0.0
C1353 C 0.30401 0.9383 0.76699 0.0
C1354 C 0.28095 0.92496 0.73975 0.0
N1355 N 0.31836 0.90246 0.75198 0.0
C1356 C 0.29582 0.88927 0.72525 0.0
Co1357 Co 0.48302 0.37914 0.64972 0.0
Co1358 Co 0.46629 0.33568 0.73295 0.0
O1359 O 0.47018 0.3406 0.67436 0.0
C1360 C 0.44076 0.33531 0.58793 0.0
O1361 O 0.43374 0.31248 0.61085 0.0
C1362 C 0.49938 0.30449 0.74945 0.0
O1363 O 0.51691 0.32693 0.77192 0.0
O1364 O 0.50816 0.3672 0.7397 0.0
O1365 O 0.50889 0.39977 0.69615 0.0
H1366 H 0.47999 0.37162 0.87484 0.0
H1367 H 0.48992 0.33311 0.60638 0.0
O1368 O 0.45815 0.3612 0.60059 0.0
H1369 H 0.58914 0.41982 0.61033 0.0
H1370 H 0.5199 0.45416 0.53892 0.0
H1371 H 0.49226 0.43572 0.68124 0.0
H1372 H 0.54723 0.4214 0.64112 0.0
H1373 H 0.50053 0.40461 0.56734 0.0
O1374 O 0.47868 0.3049 0.72977 0.0
H1375 H 0.48392 0.37674 0.80147 0.0
H1376 H 0.44085 0.28412 0.78846 0.0
H1377 H 0.51257 0.48548 0.65454 0.0
H1378 H 0.53108 0.33079 0.57465 0.0
H1379 H 0.5265 0.4952 0.58261 0.0
H1380 H 0.58119 0.37436 0.57645 0.0
O1381 O 0.44981 0.38088 0.67642 0.0
H1382 H 0.38462 0.24425 0.67125 0.0
H1383 H 0.40899 0.32326 0.7692 0.0
H1384 H 0.35723 0.28518 0.75953 0.0
H1385 H 0.34476 0.24523 0.71037 0.0
H1386 H 0.4361 0.28299 0.68155 0.0
H1387 H 0.43661 0.27799 0.86173 0.0
H1388 H 0.45622 0.32196 0.90545 0.0
O1389 O 0.45316 0.36573 0.73781 0.0
C1390 C 0.51988 0.39297 0.72522 0.0
C1391 C 0.47136 0.35229 0.85612 0.0
C1392 C 0.44702 0.29975 0.84875 0.0
N1393 N 0.46264 0.33076 0.79067 0.0
C1394 C 0.47351 0.35505 0.81453 0.0
C1395 C 0.44953 0.30335 0.80729 0.0
C1396 C 0.45802 0.32443 0.87327 0.0
C1397 C 0.51142 0.35236 0.60672 0.0
N1398 N 0.51581 0.37759 0.6247 0.0
C1399 C 0.53477 0.35083 0.58895 0.0
C1400 C 0.56289 0.37525 0.59005 0.0
C1401 C 0.56736 0.40076 0.60903 0.0
C1402 C 0.54348 0.40149 0.62642 0.0
C1403 C 0.5137 0.45023 0.5701 0.0
C1404 C 0.49826 0.4396 0.65001 0.0
C1405 C 0.50258 0.42219 0.58636 0.0
N1406 N 0.49551 0.41729 0.62606 0.0
C1407 C 0.50956 0.4679 0.63489 0.0
C1408 C 0.5174 0.47326 0.59466 0.0
C1409 C 0.44416 0.37859 0.71389 0.0
C1410 C 0.38977 0.26152 0.6928 0.0
C1411 C 0.40376 0.30611 0.7475 0.0
C1412 C 0.3744 0.28452 0.74229 0.0
C1413 C 0.36742 0.2621 0.71472 0.0
N1414 N 0.42558 0.30536 0.72593 0.0
C1415 C 0.41889 0.28347 0.69883 0.0
C1416 C 0.43043 0.0305 0.29945 0.0
C1417 C 0.43276 0.03479 0.25755 0.0
C1418 C 0.41701 1.00237 0.31654 0.0
C1419 C 0.40507 0.97698 0.29268 0.0
H1420 H 0.43901 0.04907 0.3196 0.0
H1421 H 0.41578 1.00059 0.34884 0.0
S1422 S 0.40675 0.97568 0.18136 0.0
N1423 N 0.4229 0.01086 0.19271 0.0
N1424 N 0.39762 0.95815 0.22453 0.0
C1425 C 0.4076 0.98087 0.25071 0.0
C1426 C 0.42142 0.00962 0.23328 0.0
C1427 C 0.41656 0.40975 0.29308 0.0
C1428 C 0.42972 0.3972 0.26937 0.0
C1429 C 0.40241 0.42391 0.27575 0.0
C1430 C 0.4008 0.42631 0.23385 0.0
H1431 H 0.41723 0.40877 0.32539 0.0
H1432 H 0.39282 0.43322 0.29556 0.0
S1433 S 0.43192 0.39752 0.15792 0.0
N1434 N 0.44013 0.38844 0.20123 0.0
N1435 N 0.41383 0.41481 0.16913 0.0
C1436 C 0.41382 0.41383 0.20979 0.0
C1437 C 0.42816 0.3994 0.22737 0.0
C1438 C 1.00813 0.40835 0.22832 0.0
C1439 C 0.98281 0.39689 0.25257 0.0
C1440 C 0.0365 0.42165 0.24503 0.0
C1441 C 0.04098 0.4242 0.28685 0.0
H1442 H 1.00612 0.40705 0.19605 0.0
H1443 H 0.05509 0.43016 0.22477 0.0
S1444 S 0.98219 0.39825 0.36402 0.0
N1445 N 0.96442 0.38951 0.32109 0.0
N1446 N 0.01733 0.41405 0.35209 0.0
C1447 C 0.01587 0.4128 0.31148 0.0
C1448 C 0.987 0.39933 0.2945 0.0
C1449 C 0.6109 1.00324 0.23673 0.0
C1450 C 0.58981 0.97836 0.25749 0.0
C1451 C 0.62423 0.03121 0.25434 0.0
C1452 C 0.61699 0.03564 0.29353 0.0
H1453 H 0.61757 1.00107 0.20681 0.0
H1454 H 0.64049 0.04948 0.23692 0.0
S1455 S 0.56069 0.97795 0.35922 0.0
N1456 N 0.56067 0.9603 0.31839 0.0
N1457 N 0.58576 0.01254 0.35149 0.0
C1458 C 0.59531 0.01098 0.31422 0.0
C1459 C 0.58176 0.9825 0.29625 0.0
C1460 C 0.60647 0.60654 0.28816 0.0
C1461 C 0.58915 0.61442 0.26486 0.0
C1462 C 0.62168 0.59348 0.27083 0.0
C1463 C 0.6203 0.58761 0.22933 0.0
H1464 H 0.60873 0.61094 0.31999 0.0
H1465 H 0.63476 0.58807 0.29038 0.0
S1466 S 0.57571 0.60149 0.15548 0.0
N1467 N 0.56989 0.61338 0.19829 0.0
N1468 N 0.59865 0.58948 0.16593 0.0
C1469 C 0.60251 0.59481 0.20587 0.0
C1470 C 0.58694 0.60799 0.22353 0.0
C1471 C 0.01549 0.60694 0.21978 0.0
C1472 C 0.04086 0.61746 0.2436 0.0
C1473 C 0.98717 0.59327 0.23685 0.0
C1474 C 0.98274 0.58942 0.27865 0.0
H1475 H 0.01742 0.60934 0.18757 0.0
H1476 H 0.96858 0.58566 0.21682 0.0
S1477 S 0.04167 0.61153 0.35462 0.0
N1478 N 0.05936 0.62191 0.3116 0.0
N1479 N 1.00652 0.59658 0.34327 0.0
C1480 C 1.0079 0.59954 0.30282 0.0
C1481 C 0.03675 0.61341 0.28546 0.0
C1482 C 0.59347 0.97975 0.75081 0.0
C1483 C 0.59374 0.97654 0.7927 0.0
C1484 C 0.6068 0.00753 0.73252 0.0
C1485 C 0.62128 0.03353 0.75515 0.0
H1486 H 0.58269 0.96061 0.73172 0.0
H1487 H 0.60578 0.00852 0.70025 0.0
S1488 S 0.62818 0.03755 0.8661 0.0
N1489 N 0.60966 1.0021 0.85635 0.0
N1490 N 0.63476 0.05401 0.82224 0.0
C1491 C 0.62179 0.03065 0.79713 0.0
C1492 C 0.60805 1.00233 0.81578 0.0
C1493 C 0.61724 0.60543 0.78418 0.0
C1494 C 0.62675 0.5895 0.76057 0.0
C1495 C 0.60221 0.61876 0.76746 0.0
C1496 C 0.59581 0.61689 0.72618 0.0
H1497 H 0.62124 0.60756 0.8161 0.0
H1498 H 0.5954 0.63052 0.78744 0.0
S1499 S 0.61533 0.57736 0.65079 0.0
N1500 N 0.62833 0.5725 0.69326 0.0
N1501 N 0.6001 0.59742 0.66207 0.0
C1502 C 0.60516 0.60104 0.70209 0.0
C1503 C 0.62058 0.58745 0.71916 0.0
C1504 C 1.00995 0.60889 0.72332 0.0
C1505 C 0.98431 0.59194 0.74599 0.0
C1506 C 0.03788 0.62272 0.74097 0.0
C1507 C 0.0418 0.62035 0.7823 0.0
H1508 H 1.00861 0.61135 0.69136 0.0
H1509 H 0.05662 0.63514 0.72156 0.0
S1510 S 0.98189 0.57877 0.85563 0.0
N1511 N 0.96471 0.57388 0.81256 0.0
N1512 N 0.01722 0.59979 0.84562 0.0
C1513 C 0.01635 0.60378 0.80559 0.0
C1514 C 0.98772 0.58967 0.78753 0.0
C1515 C 0.4303 0.03224 0.75097 0.0
C1516 C 0.43703 0.03701 0.79223 0.0
C1517 C 0.41728 1.004 0.73401 0.0
C1518 C 0.41033 0.97918 0.75748 0.0
H1519 H 0.43493 0.05045 0.73137 0.0
H1520 H 0.41207 1.00158 0.70241 0.0
S1521 S 0.42599 0.97955 0.86606 0.0
N1522 N 0.43716 0.01419 0.85543 0.0
N1523 N 0.41334 0.96159 0.82366 0.0
C1524 C 0.41773 0.9837 0.79847 0.0
C1525 C 0.43086 0.01239 0.81577 0.0
C1526 C 0.40868 0.40502 0.79125 0.0
C1527 C 0.39848 0.42076 0.76858 0.0
C1528 C 0.42291 0.39127 0.77322 0.0
C1529 C 0.42779 0.39258 0.73153 0.0
H1530 H 0.40596 0.40346 0.82343 0.0
H1531 H 0.43042 0.37977 0.79249 0.0
S1532 S 0.4053 0.43081 0.65811 0.0
N1533 N 0.39412 0.43651 0.70164 0.0
N1534 N 0.42089 0.41088 0.66798 0.0
C1535 C 0.41749 0.40801 0.70834 0.0
C1536 C 0.40287 0.42198 0.72674 0.0
C1537 C 0.03908 0.42079 0.78631 0.0
C1538 C 0.04322 0.42247 0.74443 0.0
C1539 C 1.01075 0.40749 0.80353 0.0
C1540 C 0.9852 0.39528 0.77969 0.0
H1541 H 0.05789 0.42999 0.80613 0.0
H1542 H 1.00893 0.40686 0.83582 0.0
S1543 S 0.98375 0.39434 0.66823 0.0
N1544 N 0.01896 0.41057 0.67961 0.0
N1545 N 0.96636 0.38642 0.71148 0.0
C1546 C 0.98912 0.39692 0.73772 0.0
C1547 C 0.01786 0.41022 0.72027 0.0
C1548 C 0.48758 0.22537 0.30149 0.0
C1549 C 0.49399 0.22103 0.26191 0.0
C1550 C 0.48787 0.25125 0.31294 0.0
C1551 C 0.49396 0.2736 0.28507 0.0
H1552 H 0.48204 0.20848 0.32385 0.0
H1553 H 0.48215 0.25322 0.34349 0.0
S1554 S 0.5132 0.27365 0.17804 0.0
N1555 N 0.5078 0.24186 0.19525 0.0
N1556 N 0.50771 0.2902 0.21638 0.0
C1557 C 0.50104 0.26984 0.24559 0.0
C1558 C 0.50126 0.24368 0.23412 0.0
C1559 C 0.23025 0.47178 0.25973 0.0
C1560 C 0.22945 0.49815 0.26217 0.0
C1561 C 0.25681 0.47184 0.25339 0.0
C1562 C 0.28372 0.49829 0.25036 0.0
H1563 H 0.21012 0.45086 0.26202 0.0
H1564 H 0.25632 0.45099 0.25186 0.0
S1565 S 0.2937 0.57328 0.25532 0.0
N1566 N 0.25789 0.55139 0.26063 0.0
N1567 N 0.30792 0.55153 0.25049 0.0
C1568 C 0.28326 0.52479 0.25314 0.0
C1569 C 0.25612 0.52472 0.25855 0.0
C1570 C 0.74196 0.24825 0.27353 0.0
C1571 C 0.7417 0.22156 0.27916 0.0
C1572 C 0.76853 0.27488 0.26932 0.0
C1573 C 0.79576 0.27562 0.26885 0.0
H1574 H 0.72147 0.24861 0.27272 0.0
H1575 H 0.76774 0.29498 0.26586 0.0
S1576 S 0.80717 0.21175 0.28169 0.0
N1577 N 0.77124 0.19776 0.285 0.0
N1578 N 0.82073 0.24719 0.27393 0.0
C1579 C 0.79575 0.24901 0.27374 0.0
C1580 C 0.76885 0.22215 0.27976 0.0
C1581 C 0.528 0.78479 0.28889 0.0
C1582 C 0.52764 0.79202 0.24833 0.0
C1583 C 0.52741 0.75869 0.30001 0.0
C1584 C 0.52735 0.73941 0.2709 0.0
H1585 H 0.52906 0.79962 0.31222 0.0
H1586 H 0.52827 0.75419 0.33146 0.0
S1587 S 0.5258 0.74783 0.1609 0.0
N1588 N 0.5261 0.7772 0.17921 0.0
N1589 N 0.52616 0.72875 0.19997 0.0
C1590 C 0.52653 0.74614 0.23033 0.0
C1591 C 0.52634 0.77228 0.21906 0.0
C1592 C 0.76719 0.54517 0.25128 0.0
C1593 C 0.7401 0.51881 0.24968 0.0
C1594 C 0.79383 0.54507 0.25498 0.0
C1595 C 0.79451 0.51862 0.25622 0.0
H1596 H 0.76783 0.5661 0.25042 0.0
H1597 H 0.8141 0.56594 0.25615 0.0
S1598 S 0.72978 0.44364 0.25231 0.0
N1599 N 0.71561 0.46554 0.24973 0.0
N1600 N 0.76576 0.46537 0.25525 0.0
C1601 C 0.76764 0.49211 0.25414 0.0
C1602 C 0.74043 0.49221 0.2513 0.0
C1603 C 0.25441 0.73806 0.2676 0.0
C1604 C 0.22745 0.73763 0.26384 0.0
C1605 C 0.28073 0.76437 0.27466 0.0
C1606 C 0.28095 0.79107 0.28002 0.0
H1607 H 0.25522 0.71793 0.26452 0.0
H1608 H 0.30109 0.76379 0.27609 0.0
S1609 S 0.21606 0.80167 0.27471 0.0
N1610 N 0.20271 0.7664 0.26564 0.0
N1611 N 0.25161 0.81521 0.28223 0.0
C1612 C 0.25401 0.79079 0.27749 0.0
C1613 C 0.22743 0.76426 0.26849 0.0
C1614 C 0.50217 0.73669 0.76377 0.0
C1615 C 0.52882 0.73682 0.75753 0.0
C1616 C 0.50166 0.76283 0.77105 0.0
C1617 C 0.52784 0.78997 0.77417 0.0
H1618 H 0.48149 0.71623 0.7626 0.0
H1619 H 0.48058 0.76174 0.77462 0.0
S1620 S 0.60355 0.80222 0.76141 0.0
N1621 N 0.58208 0.76665 0.75429 0.0
N1622 N 0.58125 0.81519 0.77113 0.0
C1623 C 0.55467 0.7903 0.76889 0.0
C1624 C 0.55513 0.76391 0.75971 0.0
C1625 C 0.76637 0.53802 0.74871 0.0
C1626 C 0.73938 0.51161 0.75202 0.0
C1627 C 0.7931 0.5381 0.7439 0.0
C1628 C 0.79413 0.51179 0.74322 0.0
H1629 H 0.76684 0.55889 0.74917 0.0
H1630 H 0.81322 0.55904 0.74168 0.0
S1631 S 0.7298 0.43669 0.75096 0.0
N1632 N 0.71542 0.4584 0.75366 0.0
N1633 N 0.76565 0.45858 0.74625 0.0
C1634 C 0.76735 0.48524 0.74674 0.0
C1635 C 0.74003 0.48514 0.75067 0.0
C1636 C 0.27201 0.7911 0.79744 0.0
C1637 C 0.28151 0.79428 0.75734 0.0
C1638 C 0.24674 0.76571 0.81069 0.0
C1639 C 0.22954 0.74282 0.78409 0.0
H1640 H 0.28415 0.80852 0.81879 0.0
H1641 H 0.24001 0.76454 0.8416 0.0
S1642 S 0.24525 0.73998 0.6763 0.0
N1643 N 0.27241 0.77192 0.69159 0.0
N1644 N 0.2243 0.72458 0.71595 0.0
C1645 C 0.23907 0.74551 0.74404 0.0
C1646 C 0.26523 0.77111 0.73081 0.0
C1647 C 0.47414 0.24973 0.75449 0.0
C1648 C 0.50044 0.27687 0.75279 0.0
C1649 C 0.47444 0.22348 0.76139 0.0
C1650 C 0.50107 0.22331 0.76571 0.0
H1651 H 0.45311 0.24879 0.7514 0.0
H1652 H 0.45366 0.20312 0.76256 0.0
S1653 S 0.57593 0.28836 0.76271 0.0
N1654 N 0.55377 0.30195 0.75612 0.0
N1655 N 0.55438 0.25251 0.76727 0.0
C1656 C 0.5275 0.25022 0.76341 0.0
C1657 C 0.52717 0.27702 0.75745 0.0
C1658 C 0.23424 0.47342 0.75959 0.0
C1659 C 0.23314 0.49965 0.75761 0.0
C1660 C 0.26102 0.47373 0.76487 0.0
C1661 C 0.28794 0.50029 0.76725 0.0
H1662 H 0.21416 0.45242 0.75792 0.0
H1663 H 0.26064 0.45294 0.76625 0.0
S1664 S 0.29717 0.57501 0.76312 0.0
N1665 N 0.26133 0.5529 0.75888 0.0
N1666 N 0.31172 0.55349 0.76695 0.0
C1667 C 0.28718 0.52665 0.76482 0.0
C1668 C 0.2598 0.52633 0.76053 0.0
C1669 C 0.77067 0.27422 0.76176 0.0
C1670 C 0.79793 0.27508 0.76316 0.0
C1671 C 0.74417 0.24746 0.75807 0.0
C1672 C 0.744 0.22069 0.75388 0.0
H1673 H 0.76977 0.29432 0.76427 0.0
H1674 H 0.72364 0.24776 0.75837 0.0
S1675 S 0.80964 0.21114 0.75369 0.0
N1676 N 0.82306 0.2467 0.7601 0.0
N1677 N 0.7737 0.19698 0.75 0.0
C1678 C 0.77121 0.2214 0.75394 0.0
C1679 C 0.79804 0.24843 0.75945 0.0
C1680 C 0.44523 0.10382 0.04642 0.0
C1681 C 0.42925 0.07742 0.06806 0.0
C1682 C 0.44736 0.10396 1.0044 0.0
C1683 C 0.4335 0.07772 0.98208 0.0
H1684 H 0.45791 0.12442 0.06209 0.0
H1685 H 0.46153 0.12466 0.98965 0.0
S1686 S 0.38408 1.0034 0.02344 0.0
N1687 N 0.39572 0.02486 0.06316 0.0
N1688 N 0.39961 0.02514 0.98462 0.0
C1689 C 0.41527 0.05156 1.00305 0.0
C1690 C 0.41314 0.05141 0.04581 0.0
C1691 C 0.31235 0.42158 0.98228 0.0
C1692 C 0.33594 0.42168 0.96172 0.0
C1693 C 0.3116 0.42216 0.0244 0.0
C1694 C 0.33443 0.42291 0.04746 0.0
H1695 H 0.29544 0.42323 0.96583 0.0
H1696 H 0.29421 0.4243 0.03876 0.0
S1697 S 0.39803 0.41759 1.00853 0.0
N1698 N 0.38022 0.41798 0.96806 0.0
N1699 N 0.37896 0.41936 0.04671 0.0
C1700 C 0.35663 0.42027 0.02732 0.0
C1701 C 0.35734 0.41958 0.98464 0.0
C1702 C 0.97262 0.37421 0.99586 0.0
C1703 C 0.94645 0.35916 0.97357 0.0
C1704 C 0.97235 0.37431 0.03789 0.0
C1705 C 0.9459 0.35935 0.05976 0.0
H1706 H 0.99347 0.38748 0.98085 0.0
H1707 H 0.99301 0.38765 0.0532 0.0
S1708 S 0.87177 0.31213 0.0161 0.0
N1709 N 0.8937 0.32555 0.97692 0.0
N1710 N 0.89319 0.32571 0.05561 0.0
C1711 C 0.91985 0.34214 0.03792 0.0
C1712 C 0.92013 0.34205 0.99502 0.0
C1713 C 0.59886 0.89269 0.04696 0.0
C1714 C 0.59646 0.91452 0.06846 0.0
C1715 C 0.59851 0.89218 1.00476 0.0
C1716 C 0.59577 0.91348 0.98247 0.0
H1717 H 0.59894 0.87472 0.06273 0.0
H1718 H 0.59836 0.87384 0.9897 0.0
S1719 S 0.59435 0.97833 0.02426 0.0
N1720 N 0.59538 0.96019 0.06396 0.0
N1721 N 0.59487 0.95931 0.98526 0.0
C1722 C 0.59596 0.93678 1.00365 0.0
C1723 C 0.59627 0.93728 0.04641 0.0
C1724 C 0.65333 0.60598 0.01831 0.0
C1725 C 0.66675 0.59285 0.04019 0.0
C1726 C 0.65479 0.60761 0.97636 0.0
C1727 C 0.66972 0.59617 0.95423 0.0
H1728 H 0.64003 0.61355 0.03343 0.0
H1729 H 0.64242 0.61621 0.9612 0.0
S1730 S 0.71351 0.56479 0.99719 0.0
N1731 N 0.69916 0.57211 0.03651 0.0
N1732 N 0.70199 0.57528 0.95793 0.0
C1733 C 0.68556 0.58551 0.97587 0.0
C1734 C 0.68406 0.58383 0.01868 0.0
C1735 C 0.08903 0.65812 0.98863 0.0
C1736 C 0.11007 0.6826 0.96692 0.0
C1737 C 0.08814 0.65814 0.03055 0.0
C1738 C 0.10836 0.6826 0.05303 0.0
H1739 H 0.07377 0.63816 0.97316 0.0
H1740 H 0.07222 0.63818 0.04548 0.0
S1741 S 0.16601 0.75353 1.01083 0.0
N1742 N 0.15008 0.73303 0.97114 0.0
N1743 N 0.14855 0.73305 0.05 0.0
C1744 C 0.12825 0.70801 0.03174 0.0
C1745 C 0.12909 0.70801 0.98876 0.0
C1746 C 0.95501 0.59988 0.53528 0.0
C1747 C 0.92762 0.59323 0.55173 0.0
C1748 C 0.95959 0.60149 0.49377 0.0
C1749 C 0.9368 0.59601 0.46679 0.0
H1750 H 0.97264 0.60226 0.55462 0.0
H1751 H 0.98056 0.60491 0.48292 0.0
S1752 S 0.86199 0.58128 0.49445 0.0
N1753 N 0.87826 0.5841 0.53778 0.0
N1754 N 0.88676 0.58694 0.4598 0.0
C1755 C 0.91 0.59158 0.48288 0.0
C1756 C 0.90543 0.59024 0.5253 0.0
C1757 C 0.3697 0.93655 0.5483 0.0
C1758 C 0.34434 0.9175 0.57032 0.0
C1759 C 0.36978 0.93663 0.50635 0.0
C1760 C 0.34454 0.91758 0.48422 0.0
H1761 H 0.39019 0.95067 0.56356 0.0
H1762 H 0.39033 0.95085 0.49119 0.0
S1763 S 0.27134 0.86568 0.52721 0.0
N1764 N 0.29241 0.88094 0.56666 0.0
N1765 N 0.29257 0.88101 0.48781 0.0
C1766 C 0.31839 0.89993 0.50576 0.0
C1767 C 0.3183 0.8999 0.54874 0.0
C1768 C 0.43575 0.35607 0.52305 0.0
C1769 C 0.43328 0.33185 0.54447 0.0
C1770 C 0.43499 0.3562 0.48115 0.0
C1771 C 0.43185 0.33218 0.45849 0.0
H1772 H 0.43969 0.37576 0.53871 0.0
H1773 H 0.43839 0.37602 0.46639 0.0
S1774 S 0.42119 0.26194 0.49994 0.0
N1775 N 0.4248 0.28202 0.53982 0.0
N1776 N 0.42352 0.28232 0.46098 0.0
C1777 C 0.42717 0.30693 0.4795 0.0
C1778 C 0.42786 0.30677 0.52244 0.0
C1779 C 0.08819 0.42447 0.53436 0.0
C1780 C 0.11138 0.4247 0.55598 0.0
C1781 C 0.08829 0.42522 0.49247 0.0
C1782 C 0.11143 0.42595 0.47009 0.0
H1783 H 0.07052 0.4254 0.54994 0.0
H1784 H 0.07076 0.42676 0.47756 0.0
S1785 S 0.17552 0.42292 0.51164 0.0
N1786 N 0.1567 0.42269 0.55146 0.0
N1787 N 0.15671 0.42381 0.47261 0.0
C1788 C 0.1335 0.42364 0.49105 0.0
C1789 C 0.13349 0.42305 0.53398 0.0
C1790 C 0.65441 0.06829 0.49896 0.0
C1791 C 0.67927 0.08873 0.47728 0.0
C1792 C 0.6546 0.06722 0.54083 0.0
C1793 C 0.67959 0.08668 0.56304 0.0
H1794 H 0.634 0.05407 0.48358 0.0
H1795 H 0.63432 0.05215 0.55595 0.0
S1796 S 0.75175 0.14173 0.52053 0.0
N1797 N 0.73068 0.12669 0.48101 0.0
N1798 N 0.73102 0.12483 0.55978 0.0
C1799 C 0.70544 0.10548 0.54166 0.0
C1800 C 0.70527 0.10649 0.49879 0.0
C1801 C 0.59505 0.70344 0.47652 0.0
C1802 C 0.59053 0.67855 0.4547 0.0
C1803 C 0.59459 0.70338 0.51873 0.0
C1804 C 0.5896 0.67841 0.54073 0.0
H1805 H 0.59706 0.72246 0.461 0.0
H1806 H 0.59631 0.72234 0.53405 0.0
S1807 S 0.58188 0.60958 0.49807 0.0
N1808 N 0.58487 0.62977 0.45862 0.0
N1809 N 0.58411 0.62966 0.53731 0.0
C1810 C 0.58747 0.65434 0.51923 0.0
C1811 C 0.58791 0.6544 0.47646 0.0
C1812 C 0.56418 0.123 0.23706 0.0
C1813 C 0.55025 0.13578 0.25884 0.0
C1814 C 0.59013 0.12442 0.25062 0.0
C1815 C 0.60317 0.13856 0.28656 0.0
H1816 H 0.55444 0.11066 0.20999 0.0
H1817 H 0.59891 0.11274 0.23412 0.0
S1818 S 0.57834 0.17879 0.35254 0.0
N1819 N 0.55353 0.16557 0.31657 0.0
N1820 N 0.60235 0.16809 0.34179 0.0
C1821 C 0.59067 0.1529 0.3075 0.0
C1822 C 0.56425 0.1516 0.29369 0.0
C1823 C 0.47803 0.58391 0.2266 0.0
C1824 C 0.47519 0.60191 0.25504 0.0
C1825 C 0.45365 0.55765 0.21438 0.0
C1826 C 0.42535 0.54792 0.23061 0.0
H1827 H 0.49951 0.58935 0.21519 0.0
H1828 H 0.45747 0.54445 0.19293 0.0
S1829 S 0.40659 0.58826 0.3056 0.0
N1830 N 0.44233 0.60933 0.2984 0.0
N1831 N 0.3962 0.55959 0.276 0.0
C1832 C 0.4222 0.56629 0.25852 0.0
C1833 C 0.44719 0.59331 0.27066 0.0
C1834 C 0.90851 0.4627 0.2954 0.0
C1835 C 0.88756 0.47022 0.28198 0.0
C1836 C 0.90774 0.43691 0.28284 0.0
C1837 C 0.88567 0.41726 0.25708 0.0
H1838 H 0.92633 0.47726 0.31487 0.0
H1839 H 0.92509 0.43275 0.2924 0.0
S1840 S 0.82476 0.42509 0.21456 0.0
N1841 N 0.84341 0.45483 0.24211 0.0
N1842 N 0.84193 0.40603 0.21921 0.0
C1843 C 0.86409 0.42375 0.24424 0.0
C1844 C 0.86502 0.45029 0.25657 0.0
C1845 C 0.4629 0.89727 0.23963 0.0
C1846 C 0.47385 0.87985 0.25622 0.0
C1847 C 0.43751 0.89629 0.2544 0.0
C1848 C 0.42166 0.87752 0.28587 0.0
H1849 H 0.47454 0.91279 0.21589 0.0
H1850 H 0.43114 0.91146 0.24236 0.0
S1851 S 0.43894 0.82589 0.33849 0.0
N1852 N 0.46556 0.8421 0.30511 0.0
N1853 N 0.41728 0.8401 0.33236 0.0
C1854 C 0.43135 0.8591 0.30191 0.0
C1855 C 0.45751 0.86021 0.2871 0.0
C1856 C 0.59957 0.44783 0.24567 0.0
C1857 C 0.59859 0.47332 0.23546 0.0
C1858 C 0.57415 0.42254 0.25938 0.0
C1859 C 0.54733 0.42235 0.2637 0.0
H1860 H 0.61988 0.4473 0.24244 0.0
H1861 H 0.57563 0.40334 0.26748 0.0
S1862 S 0.5336 0.48371 0.24156 0.0
N1863 N 0.56879 0.4969 0.23145 0.0
N1864 N 0.52133 0.44958 0.2563 0.0
C1865 C 0.54626 0.44773 0.25358 0.0
C1866 C 0.57184 0.4732 0.23971 0.0
C1867 C 0.1595 0.5921 0.25029 0.0
C1868 C 0.1342 0.59496 0.25045 0.0
C1869 C 0.15829 0.56613 0.26398 0.0
C1870 C 0.13181 0.54251 0.27848 0.0
H1871 H 0.18001 0.60962 0.23849 0.0
H1872 H 0.17817 0.56462 0.26355 0.0
S1873 S 0.05952 0.5396 0.28421 0.0
N1874 N 0.08224 0.57246 0.26608 0.0
N1875 N 0.07968 0.52383 0.291 0.0
C1876 C 0.10651 0.54545 0.2787 0.0
C1877 C 0.10779 0.57165 0.26491 0.0
C1878 C 0.46323 0.89765 0.81219 0.0
C1879 C 0.47335 0.87942 0.79584 0.0
C1880 C 0.43721 0.89616 0.79926 0.0
C1881 C 0.41981 0.87611 0.76985 0.0
H1882 H 0.476 0.91418 0.83428 0.0
H1883 H 0.43164 0.91205 0.8108 0.0
S1884 S 0.43467 0.82235 0.71833 0.0
N1885 N 0.46272 0.83977 0.74917 0.0
N1886 N 0.41337 0.8369 0.72533 0.0
C1887 C 0.42878 0.85703 0.75401 0.0
C1888 C 0.45557 0.85862 0.76697 0.0
C1889 C 0.5982 0.44578 0.75735 0.0
C1890 C 0.59607 0.47019 0.77045 0.0
C1891 C 0.57306 0.41972 0.74501 0.0
C1892 C 0.54518 0.41748 0.74513 0.0
H1893 H 0.61938 0.44684 0.75655 0.0
H1894 H 0.5756 0.40172 0.73391 0.0
S1895 S 0.52753 0.47479 0.77572 0.0
N1896 N 0.56339 0.49005 0.78206 0.0
N1897 N 0.51669 0.44133 0.75931 0.0
C1898 C 0.54273 0.44146 0.75847 0.0
C1899 C 0.56803 0.46776 0.77102 0.0
C1900 C 0.1139 0.57664 0.74311 0.0
C1901 C 0.13747 0.59744 0.76584 0.0
C1902 C 0.11284 0.55069 0.7307 0.0
C1903 C 0.1351 0.54418 0.74119 0.0
H1904 H 0.09567 0.58008 0.73584 0.0
H1905 H 0.09389 0.5353 0.71354 0.0
S1906 S 0.20194 0.59243 0.8003 0.0
N1907 N 0.18386 0.61072 0.79799 0.0
N1908 N 0.18198 0.56171 0.77514 0.0
C1909 C 0.15911 0.56524 0.76358 0.0
C1910 C 0.16025 0.59191 0.77582 0.0
C1911 C 0.59211 0.12132 0.79166 0.0
C1912 C 0.60436 0.13462 0.75498 0.0
C1913 C 0.56722 0.12127 0.80682 0.0
C1914 C 0.55334 0.13442 0.78581 0.0
H1915 H 0.60073 0.1094 0.8078 0.0
H1916 H 0.55826 0.10975 0.83469 0.0
S1917 S 0.57891 0.17439 0.68942 0.0
N1918 N 0.60257 0.16307 0.69905 0.0
N1919 N 0.55536 0.16277 0.72708 0.0
C1920 C 0.56627 0.14892 0.74969 0.0
C1921 C 0.5918 0.14898 0.73435 0.0
C1922 C 0.42762 0.56521 0.761 0.0
C1923 C 0.4311 0.54187 0.77543 0.0
C1924 C 0.45185 0.59129 0.74667 0.0
C1925 C 0.4802 0.59469 0.74616 0.0
H1926 H 0.40606 0.56329 0.76064 0.0
H1927 H 0.44825 0.60841 0.73466 0.0
S1928 S 0.50144 0.54056 0.77955 0.0
N1929 N 0.46567 0.52436 0.7876 0.0
N1930 N 0.51062 0.57308 0.7609 0.0
C1931 C 0.48404 0.57182 0.76071 0.0
C1932 C 0.45965 0.54549 0.77532 0.0
C1933 C 0.86815 0.42272 0.77183 0.0
C1934 C 0.89261 0.4185 0.77082 0.0
C1935 C 0.87002 0.4486 0.75647 0.0
C1936 C 0.89632 0.47088 0.73931 0.0
H1937 H 0.84783 0.40639 0.78563 0.0
H1938 H 0.85078 0.45118 0.75815 0.0
S1939 S 0.96643 0.46943 0.7297 0.0
N1940 N 0.94355 0.43805 0.75151 0.0
N1941 N 0.9473 0.48625 0.7225 0.0
C1942 C 0.92071 0.46634 0.73778 0.0
C1943 C 0.91879 0.44028 0.75362 0.0
loop_
_geom_bond_atom_site_label_1
_geom_bond_atom_site_label_2
_geom_bond_distance
_geom_bond_site_symmetry_2
_ccdc_geom_bond_type
Co0 O2 2.143 . S
Co0 O8 2.074 . S
Co0 O11 2.093 . S
Co0 O24 2.097 . S
Co0 N41 2.151 . S
Co0 N49 2.214 . S
Co1 O2 2.160 . S
Co1 O7 2.058 . S
Co1 O17 2.057 . S
Co1 O32 2.037 . S
Co1 N36 2.145 . S
Co1 N57 2.257 . S
O2 Co0 2.143 . S
O2 Co1 2.160 . S
C3 O4 1.278 . S
C3 O11 1.224 . S
O4 C3 1.278 . S
C5 O6 1.245 . S
C5 O17 1.232 . S
O6 C5 1.245 . S
O7 Co1 2.058 . S
O7 C33 1.269 . S
O8 Co0 2.074 . S
O8 C33 1.257 . S
H9 C34 0.930 . S
H10 C40 0.930 . S
O11 Co0 2.093 . S
O11 C3 1.224 . S
H12 C44 0.929 . S
H13 C46 0.930 . S
H14 C47 0.930 . S
H15 C45 0.929 . S
H16 C48 0.928 . S
O17 Co1 2.057 . S
O17 C5 1.232 . S
H18 C37 0.929 . S
H19 C38 0.929 . S
H20 C50 0.931 . S
H21 C42 0.929 . S
H22 C51 0.930 . S
H23 C43 0.931 . S
O24 Co0 2.097 . S
O24 C52 1.214 . S
H25 C53 0.929 . S
H26 C54 0.929 . S
H27 C55 0.930 . S
H28 C56 0.929 . S
H29 C58 0.930 . S
H30 C35 0.930 . S
H31 C39 0.930 . S
O32 Co1 2.037 . S
O32 C52 1.234 . S
C33 O7 1.269 . S
C33 O8 1.257 . S
C34 H9 0.930 . S
C34 C37 1.388 . S
C34 C39 1.418 . S
C35 H30 0.930 . S
C35 C38 1.404 . S
C35 C39 1.353 . S
N36 Co1 2.145 . S
N36 C37 1.397 . S
N36 C38 1.334 . S
C37 H18 0.929 . S
C37 C34 1.388 . S
C37 N36 1.397 . S
C38 H19 0.929 . S
C38 C35 1.404 . S
C38 N36 1.334 . S
C39 H31 0.930 . S
C39 C34 1.418 . S
C39 C35 1.353 . S
C40 H10 0.930 . S
C40 N41 1.330 . S
C40 C42 1.446 . S
N41 Co0 2.151 . S
N41 C40 1.330 . S
N41 C45 1.418 . S
C42 H21 0.929 . S
C42 C40 1.446 . S
C42 C43 1.332 . S
C43 H23 0.931 . S
C43 C42 1.332 . S
C43 C44 1.267 . S
C44 H12 0.929 . S
C44 C43 1.267 . S
C44 C45 1.251 . S
C45 H15 0.929 . S
C45 N41 1.418 . S
C45 C44 1.251 . S
C46 H13 0.930 . S
C46 C48 1.406 . S
C46 C51 1.261 . S
C47 H14 0.930 . S
C47 N49 1.325 . S
C47 C50 1.357 . S
C48 H16 0.928 . S
C48 C46 1.406 . S
C48 N49 1.261 . S
N49 Co0 2.214 . S
N49 C47 1.325 . S
N49 C48 1.261 . S
C50 H20 0.931 . S
C50 C47 1.357 . S
C50 C51 1.312 . S
C51 H22 0.930 . S
C51 C46 1.261 . S
C51 C50 1.312 . S
C52 O24 1.214 . S
C52 O32 1.234 . S
C53 H25 0.929 . S
C53 C56 1.391 . S
C53 C58 1.391 . S
C54 H26 0.929 . S
C54 C55 1.390 . S
C54 N57 1.391 . S
C55 H27 0.930 . S
C55 C54 1.390 . S
C55 C56 1.392 . S
C56 H28 0.929 . S
C56 C53 1.391 . S
C56 C55 1.392 . S
N57 Co1 2.257 . S
N57 C54 1.391 . S
N57 C58 1.388 . S
C58 H29 0.930 . S
C58 C53 1.391 . S
C58 N57 1.388 . S
Co59 O61 2.143 . S
Co59 O67 2.074 . S
Co59 O70 2.093 . S
Co59 O83 2.097 . S
Co59 N100 2.151 . S
Co59 N108 2.214 . S
Co60 O61 2.160 . S
Co60 O66 2.058 . S
Co60 O76 2.057 . S
Co60 O91 2.037 . S
Co60 N95 2.145 . S
Co60 N116 2.257 . S
O61 Co59 2.143 . S
O61 Co60 2.160 . S
C62 O63 1.278 . S
C62 O70 1.224 . S
O63 C62 1.278 . S
C64 O65 1.245 . S
C64 O76 1.232 . S
O65 C64 1.245 . S
O66 Co60 2.058 . S
O66 C92 1.269 . S
O67 Co59 2.074 . S
O67 C92 1.257 . S
H68 C93 0.930 . S
H69 C99 0.930 . S
O70 Co59 2.093 . S
O70 C62 1.224 . S
H71 C103 0.929 . S
H72 C105 0.930 . S
H73 C106 0.930 . S
H74 C104 0.929 . S
H75 C107 0.928 . S
O76 Co60 2.057 . S
O76 C64 1.232 . S
H77 C96 0.929 . S
H78 C97 0.929 . S
H79 C109 0.931 . S
H80 C101 0.929 . S
H81 C110 0.930 . S
H82 C102 0.931 . S
O83 Co59 2.097 . S
O83 C111 1.214 . S
H84 C112 0.929 . S
H85 C113 0.929 . S
H86 C114 0.930 . S
H87 C115 0.929 . S
H88 C117 0.930 . S
H89 C94 0.930 . S
H90 C98 0.930 . S
O91 Co60 2.037 . S
O91 C111 1.234 . S
C92 O66 1.269 . S
C92 O67 1.257 . S
C93 H68 0.930 . S
C93 C96 1.388 . S
C93 C98 1.418 . S
C94 H89 0.930 . S
C94 C97 1.404 . S
C94 C98 1.353 . S
N95 Co60 2.145 . S
N95 C96 1.397 . S
N95 C97 1.334 . S
C96 H77 0.929 . S
C96 C93 1.388 . S
C96 N95 1.397 . S
C97 H78 0.929 . S
C97 C94 1.404 . S
C97 N95 1.334 . S
C98 H90 0.930 . S
C98 C93 1.418 . S
C98 C94 1.353 . S
C99 H69 0.930 . S
C99 N100 1.330 . S
C99 C101 1.446 . S
N100 Co59 2.151 . S
N100 C99 1.330 . S
N100 C104 1.418 . S
C101 H80 0.929 . S
C101 C99 1.446 . S
C101 C102 1.332 . S
C102 H82 0.931 . S
C102 C101 1.332 . S
C102 C103 1.267 . S
C103 H71 0.929 . S
C103 C102 1.267 . S
C103 C104 1.251 . S
C104 H74 0.929 . S
C104 N100 1.418 . S
C104 C103 1.251 . S
C105 H72 0.930 . S
C105 C107 1.406 . S
C105 C110 1.261 . S
C106 H73 0.930 . S
C106 N108 1.325 . S
C106 C109 1.357 . S
C107 H75 0.928 . S
C107 C105 1.406 . S
C107 N108 1.261 . S
N108 Co59 2.214 . S
N108 C106 1.325 . S
N108 C107 1.261 . S
C109 H79 0.931 . S
C109 C106 1.357 . S
C109 C110 1.312 . S
C110 H81 0.930 . S
C110 C105 1.261 . S
C110 C109 1.312 . S
C111 O83 1.214 . S
C111 O91 1.234 . S
C112 H84 0.929 . S
C112 C115 1.391 . S
C112 C117 1.391 . S
C113 H85 0.929 . S
C113 C114 1.390 . S
C113 N116 1.391 . S
C114 H86 0.930 . S
C114 C113 1.390 . S
C114 C115 1.392 . S
C115 H87 0.929 . S
C115 C112 1.391 . S
C115 C114 1.392 . S
N116 Co60 2.257 . S
N116 C113 1.391 . S
N116 C117 1.388 . S
C117 H88 0.930 . S
C117 C112 1.391 . S
C117 N116 1.388 . S
Co118 O120 2.143 . S
Co118 O126 2.074 . S
Co118 O129 2.093 . S
Co118 O142 2.097 . S
Co118 N159 2.151 . S
Co118 N167 2.214 . S
Co119 O120 2.160 . S
Co119 O125 2.058 . S
Co119 O135 2.057 . S
Co119 O150 2.037 . S
Co119 N154 2.145 . S
Co119 N175 2.257 . S
O120 Co118 2.143 . S
O120 Co119 2.160 . S
C121 O122 1.278 . S
C121 O129 1.224 . S
O122 C121 1.278 . S
C123 O124 1.245 . S
C123 O135 1.232 . S
O124 C123 1.245 . S
O125 Co119 2.058 . S
O125 C151 1.269 . S
O126 Co118 2.074 . S
O126 C151 1.257 . S
H127 C152 0.930 . S
H128 C158 0.930 . S
O129 Co118 2.093 . S
O129 C121 1.224 . S
H130 C162 0.929 . S
H131 C164 0.930 . S
H132 C165 0.930 . S
H133 C163 0.929 . S
H134 C166 0.928 . S
O135 Co119 2.057 . S
O135 C123 1.232 . S
H136 C155 0.929 . S
H137 C156 0.929 . S
H138 C168 0.931 . S
H139 C160 0.929 . S
H140 C169 0.930 . S
H141 C161 0.931 . S
O142 Co118 2.097 . S
O142 C170 1.214 . S
H143 C171 0.929 . S
H144 C172 0.929 . S
H145 C173 0.930 . S
H146 C174 0.929 . S
H147 C176 0.930 . S
H148 C153 0.930 . S
H149 C157 0.930 . S
O150 Co119 2.037 . S
O150 C170 1.234 . S
C151 O125 1.269 . S
C151 O126 1.257 . S
C152 H127 0.930 . S
C152 C155 1.388 . S
C152 C157 1.418 . S
C153 H148 0.930 . S
C153 C156 1.404 . S
C153 C157 1.353 . S
N154 Co119 2.145 . S
N154 C155 1.397 . S
N154 C156 1.334 . S
C155 H136 0.929 . S
C155 C152 1.388 . S
C155 N154 1.397 . S
C156 H137 0.929 . S
C156 C153 1.404 . S
C156 N154 1.334 . S
C157 H149 0.930 . S
C157 C152 1.418 . S
C157 C153 1.353 . S
C158 H128 0.930 . S
C158 N159 1.330 . S
C158 C160 1.446 . S
N159 Co118 2.151 . S
N159 C158 1.330 . S
N159 C163 1.418 . S
C160 H139 0.929 . S
C160 C158 1.446 . S
C160 C161 1.332 . S
C161 H141 0.931 . S
C161 C160 1.332 . S
C161 C162 1.267 . S
C162 H130 0.929 . S
C162 C161 1.267 . S
C162 C163 1.251 . S
C163 H133 0.929 . S
C163 N159 1.418 . S
C163 C162 1.251 . S
C164 H131 0.930 . S
C164 C166 1.406 . S
C164 C169 1.261 . S
C165 H132 0.930 . S
C165 N167 1.325 . S
C165 C168 1.357 . S
C166 H134 0.928 . S
C166 C164 1.406 . S
C166 N167 1.261 . S
N167 Co118 2.214 . S
N167 C165 1.325 . S
N167 C166 1.261 . S
C168 H138 0.931 . S
C168 C165 1.357 . S
C168 C169 1.312 . S
C169 H140 0.930 . S
C169 C164 1.261 . S
C169 C168 1.312 . S
C170 O142 1.214 . S
C170 O150 1.234 . S
C171 H143 0.929 . S
C171 C174 1.391 . S
C171 C176 1.391 . S
C172 H144 0.929 . S
C172 C173 1.390 . S
C172 N175 1.391 . S
C173 H145 0.930 . S
C173 C172 1.390 . S
C173 C174 1.392 . S
C174 H146 0.929 . S
C174 C171 1.391 . S
C174 C173 1.392 . S
N175 Co119 2.257 . S
N175 C172 1.391 . S
N175 C176 1.388 . S
C176 H147 0.930 . S
C176 C171 1.391 . S
C176 N175 1.388 . S
Co177 O179 2.143 . S
Co177 O185 2.074 . S
Co177 O188 2.093 . S
Co177 O201 2.097 . S
Co177 N218 2.151 . S
Co177 N226 2.214 . S
Co178 O179 2.160 . S
Co178 O184 2.058 . S
Co178 O194 2.057 . S
Co178 O209 2.037 . S
Co178 N213 2.145 . S
Co178 N234 2.257 . S
O179 Co177 2.143 . S
O179 Co178 2.160 . S
C180 O181 1.278 . S
C180 O188 1.224 . S
O181 C180 1.278 . S
C182 O183 1.245 . S
C182 O194 1.232 . S
O183 C182 1.245 . S
O184 Co178 2.058 . S
O184 C210 1.269 . S
O185 Co177 2.074 . S
O185 C210 1.257 . S
H186 C211 0.930 . S
H187 C217 0.930 . S
O188 Co177 2.093 . S
O188 C180 1.224 . S
H189 C221 0.929 . S
H190 C223 0.930 . S
H191 C224 0.930 . S
H192 C222 0.929 . S
H193 C225 0.928 . S
O194 Co178 2.057 . S
O194 C182 1.232 . S
H195 C214 0.929 . S
H196 C215 0.929 . S
H197 C227 0.931 . S
H198 C219 0.929 . S
H199 C228 0.930 . S
H200 C220 0.931 . S
O201 Co177 2.097 . S
O201 C229 1.214 . S
H202 C230 0.929 . S
H203 C231 0.929 . S
H204 C232 0.930 . S
H205 C233 0.929 . S
H206 C235 0.930 . S
H207 C212 0.930 . S
H208 C216 0.930 . S
O209 Co178 2.037 . S
O209 C229 1.234 . S
C210 O184 1.269 . S
C210 O185 1.257 . S
C211 H186 0.930 . S
C211 C214 1.388 . S
C211 C216 1.418 . S
C212 H207 0.930 . S
C212 C215 1.404 . S
C212 C216 1.353 . S
N213 Co178 2.145 . S
N213 C214 1.397 . S
N213 C215 1.334 . S
C214 H195 0.929 . S
C214 C211 1.388 . S
C214 N213 1.397 . S
C215 H196 0.929 . S
C215 C212 1.404 . S
C215 N213 1.334 . S
C216 H208 0.930 . S
C216 C211 1.418 . S
C216 C212 1.353 . S
C217 H187 0.930 . S
C217 N218 1.330 . S
C217 C219 1.446 . S
N218 Co177 2.151 . S
N218 C217 1.330 . S
N218 C222 1.418 . S
C219 H198 0.929 . S
C219 C217 1.446 . S
C219 C220 1.332 . S
C220 H200 0.931 . S
C220 C219 1.332 . S
C220 C221 1.267 . S
C221 H189 0.929 . S
C221 C220 1.267 . S
C221 C222 1.251 . S
C222 H192 0.929 . S
C222 N218 1.418 . S
C222 C221 1.251 . S
C223 H190 0.930 . S
C223 C225 1.406 . S
C223 C228 1.261 . S
C224 H191 0.930 . S
C224 N226 1.325 . S
C224 C227 1.357 . S
C225 H193 0.928 . S
C225 C223 1.406 . S
C225 N226 1.261 . S
N226 Co177 2.214 . S
N226 C224 1.325 . S
N226 C225 1.261 . S
C227 H197 0.931 . S
C227 C224 1.357 . S
C227 C228 1.312 . S
C228 H199 0.930 . S
C228 C223 1.261 . S
C228 C227 1.312 . S
C229 O201 1.214 . S
C229 O209 1.234 . S
C230 H202 0.929 . S
C230 C233 1.391 . S
C230 C235 1.391 . S
C231 H203 0.929 . S
C231 C232 1.390 . S
C231 N234 1.391 . S
C232 H204 0.930 . S
C232 C231 1.390 . S
C232 C233 1.392 . S
C233 H205 0.929 . S
C233 C230 1.391 . S
C233 C232 1.392 . S
N234 Co178 2.257 . S
N234 C231 1.391 . S
N234 C235 1.388 . S
C235 H206 0.930 . S
C235 C230 1.391 . S
C235 N234 1.388 . S
Co236 O238 2.143 . S
Co236 O244 2.074 . S
Co236 O247 2.093 . S
Co236 O260 2.097 . S
Co236 N277 2.151 . S
Co236 N285 2.214 . S
Co237 O238 2.160 . S
Co237 O243 2.058 . S
Co237 O253 2.057 . S
Co237 O268 2.037 . S
Co237 N272 2.145 . S
Co237 N293 2.257 . S
O238 Co236 2.143 . S
O238 Co237 2.160 . S
C239 O240 1.278 . S
C239 O247 1.224 . S
O240 C239 1.278 . S
C241 O242 1.245 . S
C241 O253 1.232 . S
O242 C241 1.245 . S
O243 Co237 2.058 . S
O243 C269 1.269 . S
O244 Co236 2.074 . S
O244 C269 1.257 . S
H245 C270 0.930 . S
H246 C276 0.930 . S
O247 Co236 2.093 . S
O247 C239 1.224 . S
H248 C280 0.929 . S
H249 C282 0.930 . S
H250 C283 0.930 . S
H251 C281 0.929 . S
H252 C284 0.928 . S
O253 Co237 2.057 . S
O253 C241 1.232 . S
H254 C273 0.929 . S
H255 C274 0.929 . S
H256 C286 0.931 . S
H257 C278 0.929 . S
H258 C287 0.930 . S
H259 C279 0.931 . S
O260 Co236 2.097 . S
O260 C288 1.214 . S
H261 C289 0.929 . S
H262 C290 0.929 . S
H263 C291 0.930 . S
H264 C292 0.929 . S
H265 C294 0.930 . S
H266 C271 0.930 . S
H267 C275 0.930 . S
O268 Co237 2.037 . S
O268 C288 1.234 . S
C269 O243 1.269 . S
C269 O244 1.257 . S
C270 H245 0.930 . S
C270 C273 1.388 . S
C270 C275 1.418 . S
C271 H266 0.930 . S
C271 C274 1.404 . S
C271 C275 1.353 . S
N272 Co237 2.145 . S
N272 C273 1.397 . S
N272 C274 1.334 . S
C273 H254 0.929 . S
C273 C270 1.388 . S
C273 N272 1.397 . S
C274 H255 0.929 . S
C274 C271 1.404 . S
C274 N272 1.334 . S
C275 H267 0.930 . S
C275 C270 1.418 . S
C275 C271 1.353 . S
C276 H246 0.930 . S
C276 N277 1.330 . S
C276 C278 1.446 . S
N277 Co236 2.151 . S
N277 C276 1.330 . S
N277 C281 1.418 . S
C278 H257 0.929 . S
C278 C276 1.446 . S
C278 C279 1.332 . S
C279 H259 0.931 . S
C279 C278 1.332 . S
C279 C280 1.267 . S
C280 H248 0.929 . S
C280 C279 1.267 . S
C280 C281 1.251 . S
C281 H251 0.929 . S
C281 N277 1.418 . S
C281 C280 1.251 . S
C282 H249 0.930 . S
C282 C284 1.406 . S
C282 C287 1.261 . S
C283 H250 0.930 . S
C283 N285 1.325 . S
C283 C286 1.357 . S
C284 H252 0.928 . S
C284 C282 1.406 . S
C284 N285 1.261 . S
N285 Co236 2.214 . S
N285 C283 1.325 . S
N285 C284 1.261 . S
C286 H256 0.931 . S
C286 C283 1.357 . S
C286 C287 1.312 . S
C287 H258 0.930 . S
C287 C282 1.261 . S
C287 C286 1.312 . S
C288 O260 1.214 . S
C288 O268 1.234 . S
C289 H261 0.929 . S
C289 C292 1.391 . S
C289 C294 1.391 . S
C290 H262 0.929 . S
C290 C291 1.390 . S
C290 N293 1.391 . S
C291 H263 0.930 . S
C291 C290 1.390 . S
C291 C292 1.392 . S
C292 H264 0.929 . S
C292 C289 1.391 . S
C292 C291 1.392 . S
N293 Co237 2.257 . S
N293 C290 1.391 . S
N293 C294 1.388 . S
C294 H265 0.930 . S
C294 C289 1.391 . S
C294 N293 1.388 . S
Co295 O297 2.143 . S
Co295 O303 2.074 . S
Co295 O306 2.093 . S
Co295 O319 2.097 . S
Co295 N336 2.151 . S
Co295 N344 2.214 . S
Co296 O297 2.160 . S
Co296 O302 2.058 . S
Co296 O312 2.057 . S
Co296 O327 2.037 . S
Co296 N331 2.145 . S
Co296 N352 2.257 . S
O297 Co295 2.143 . S
O297 Co296 2.160 . S
C298 O299 1.278 . S
C298 O306 1.224 . S
O299 C298 1.278 . S
C300 O301 1.245 . S
C300 O312 1.232 . S
O301 C300 1.245 . S
O302 Co296 2.058 . S
O302 C328 1.269 . S
O303 Co295 2.074 . S
O303 C328 1.257 . S
H304 C329 0.930 . S
H305 C335 0.930 . S
O306 Co295 2.093 . S
O306 C298 1.224 . S
H307 C339 0.929 . S
H308 C341 0.930 . S
H309 C342 0.930 . S
H310 C340 0.929 . S
H311 C343 0.928 . S
O312 Co296 2.057 . S
O312 C300 1.232 . S
H313 C332 0.929 . S
H314 C333 0.929 . S
H315 C345 0.931 . S
H316 C337 0.929 . S
H317 C346 0.930 . S
H318 C338 0.931 . S
O319 Co295 2.097 . S
O319 C347 1.214 . S
H320 C348 0.929 . S
H321 C349 0.929 . S
H322 C350 0.930 . S
H323 C351 0.929 . S
H324 C353 0.930 . S
H325 C330 0.930 . S
H326 C334 0.930 . S
O327 Co296 2.037 . S
O327 C347 1.234 . S
C328 O302 1.269 . S
C328 O303 1.257 . S
C329 H304 0.930 . S
C329 C332 1.388 . S
C329 C334 1.418 . S
C330 H325 0.930 . S
C330 C333 1.404 . S
C330 C334 1.353 . S
N331 Co296 2.145 . S
N331 C332 1.397 . S
N331 C333 1.334 . S
C332 H313 0.929 . S
C332 C329 1.388 . S
C332 N331 1.397 . S
C333 H314 0.929 . S
C333 C330 1.404 . S
C333 N331 1.334 . S
C334 H326 0.930 . S
C334 C329 1.418 . S
C334 C330 1.353 . S
C335 H305 0.930 . S
C335 N336 1.330 . S
C335 C337 1.446 . S
N336 Co295 2.151 . S
N336 C335 1.330 . S
N336 C340 1.418 . S
C337 H316 0.929 . S
C337 C335 1.446 . S
C337 C338 1.332 . S
C338 H318 0.931 . S
C338 C337 1.332 . S
C338 C339 1.267 . S
C339 H307 0.929 . S
C339 C338 1.267 . S
C339 C340 1.251 . S
C340 H310 0.929 . S
C340 N336 1.418 . S
C340 C339 1.251 . S
C341 H308 0.930 . S
C341 C343 1.406 . S
C341 C346 1.261 . S
C342 H309 0.930 . S
C342 N344 1.325 . S
C342 C345 1.357 . S
C343 H311 0.928 . S
C343 C341 1.406 . S
C343 N344 1.261 . S
N344 Co295 2.214 . S
N344 C342 1.325 . S
N344 C343 1.261 . S
C345 H315 0.931 . S
C345 C342 1.357 . S
C345 C346 1.312 . S
C346 H317 0.930 . S
C346 C341 1.261 . S
C346 C345 1.312 . S
C347 O319 1.214 . S
C347 O327 1.234 . S
C348 H320 0.929 . S
C348 C351 1.391 . S
C348 C353 1.391 . S
C349 H321 0.929 . S
C349 C350 1.390 . S
C349 N352 1.391 . S
C350 H322 0.930 . S
C350 C349 1.390 . S
C350 C351 1.392 . S
C351 H323 0.929 . S
C351 C348 1.391 . S
C351 C350 1.392 . S
N352 Co296 2.257 . S
N352 C349 1.391 . S
N352 C353 1.388 . S
C353 H324 0.930 . S
C353 C348 1.391 . S
C353 N352 1.388 . S
Co354 O356 2.143 . S
Co354 O362 2.074 . S
Co354 O365 2.093 . S
Co354 O378 2.097 . S
Co354 N395 2.151 . S
Co354 N403 2.214 . S
Co355 O356 2.160 . S
Co355 O361 2.058 . S
Co355 O371 2.057 . S
Co355 O386 2.037 . S
Co355 N390 2.145 . S
Co355 N411 2.257 . S
O356 Co354 2.143 . S
O356 Co355 2.160 . S
C357 O358 1.278 . S
C357 O365 1.224 . S
O358 C357 1.278 . S
C359 O360 1.245 . S
C359 O371 1.232 . S
O360 C359 1.245 . S
O361 Co355 2.058 . S
O361 C387 1.269 . S
O362 Co354 2.074 . S
O362 C387 1.257 . S
H363 C388 0.930 . S
H364 C394 0.930 . S
O365 Co354 2.093 . S
O365 C357 1.224 . S
H366 C398 0.929 . S
H367 C400 0.930 . S
H368 C401 0.930 . S
H369 C399 0.929 . S
H370 C402 0.928 . S
O371 Co355 2.057 . S
O371 C359 1.232 . S
H372 C391 0.929 . S
H373 C392 0.929 . S
H374 C404 0.931 . S
H375 C396 0.929 . S
H376 C405 0.930 . S
H377 C397 0.931 . S
O378 Co354 2.097 . S
O378 C406 1.214 . S
H379 C407 0.929 . S
H380 C408 0.929 . S
H381 C409 0.930 . S
H382 C410 0.929 . S
H383 C412 0.930 . S
H384 C389 0.930 . S
H385 C393 0.930 . S
O386 Co355 2.037 . S
O386 C406 1.234 . S
C387 O361 1.269 . S
C387 O362 1.257 . S
C388 H363 0.930 . S
C388 C391 1.388 . S
C388 C393 1.418 . S
C389 H384 0.930 . S
C389 C392 1.404 . S
C389 C393 1.353 . S
N390 Co355 2.145 . S
N390 C391 1.397 . S
N390 C392 1.334 . S
C391 H372 0.929 . S
C391 C388 1.388 . S
C391 N390 1.397 . S
C392 H373 0.929 . S
C392 C389 1.404 . S
C392 N390 1.334 . S
C393 H385 0.930 . S
C393 C388 1.418 . S
C393 C389 1.353 . S
C394 H364 0.930 . S
C394 N395 1.330 . S
C394 C396 1.446 . S
N395 Co354 2.151 . S
N395 C394 1.330 . S
N395 C399 1.418 . S
C396 H375 0.929 . S
C396 C394 1.446 . S
C396 C397 1.332 . S
C397 H377 0.931 . S
C397 C396 1.332 . S
C397 C398 1.267 . S
C398 H366 0.929 . S
C398 C397 1.267 . S
C398 C399 1.251 . S
C399 H369 0.929 . S
C399 N395 1.418 . S
C399 C398 1.251 . S
C400 H367 0.930 . S
C400 C402 1.406 . S
C400 C405 1.261 . S
C401 H368 0.930 . S
C401 N403 1.325 . S
C401 C404 1.357 . S
C402 H370 0.928 . S
C402 C400 1.406 . S
C402 N403 1.261 . S
N403 Co354 2.214 . S
N403 C401 1.325 . S
N403 C402 1.261 . S
C404 H374 0.931 . S
C404 C401 1.357 . S
C404 C405 1.312 . S
C405 H376 0.930 . S
C405 C400 1.261 . S
C405 C404 1.312 . S
C406 O378 1.214 . S
C406 O386 1.234 . S
C407 H379 0.929 . S
C407 C410 1.391 . S
C407 C412 1.391 . S
C408 H380 0.929 . S
C408 C409 1.390 . S
C408 N411 1.391 . S
C409 H381 0.930 . S
C409 C408 1.390 . S
C409 C410 1.392 . S
C410 H382 0.929 . S
C410 C407 1.391 . S
C410 C409 1.392 . S
N411 Co355 2.257 . S
N411 C408 1.391 . S
N411 C412 1.388 . S
C412 H383 0.930 . S
C412 C407 1.391 . S
C412 N411 1.388 . S
Co413 O415 2.143 . S
Co413 O421 2.074 . S
Co413 O424 2.093 . S
Co413 O437 2.097 . S
Co413 N454 2.151 . S
Co413 N462 2.214 . S
Co414 O415 2.160 . S
Co414 O420 2.058 . S
Co414 O430 2.057 . S
Co414 O445 2.037 . S
Co414 N449 2.145 . S
Co414 N470 2.257 . S
O415 Co413 2.143 . S
O415 Co414 2.160 . S
C416 O417 1.278 . S
C416 O424 1.224 . S
O417 C416 1.278 . S
C418 O419 1.245 . S
C418 O430 1.232 . S
O419 C418 1.245 . S
O420 Co414 2.058 . S
O420 C446 1.269 . S
O421 Co413 2.074 . S
O421 C446 1.257 . S
H422 C447 0.930 . S
H423 C453 0.930 . S
O424 Co413 2.093 . S
O424 C416 1.224 . S
H425 C457 0.929 . S
H426 C459 0.930 . S
H427 C460 0.930 . S
H428 C458 0.929 . S
H429 C461 0.928 . S
O430 Co414 2.057 . S
O430 C418 1.232 . S
H431 C450 0.929 . S
H432 C451 0.929 . S
H433 C463 0.931 . S
H434 C455 0.929 . S
H435 C464 0.930 . S
H436 C456 0.931 . S
O437 Co413 2.097 . S
O437 C465 1.214 . S
H438 C466 0.929 . S
H439 C467 0.929 . S
H440 C468 0.930 . S
H441 C469 0.929 . S
H442 C471 0.930 . S
H443 C448 0.930 . S
H444 C452 0.930 . S
O445 Co414 2.037 . S
O445 C465 1.234 . S
C446 O420 1.269 . S
C446 O421 1.257 . S
C447 H422 0.930 . S
C447 C450 1.388 . S
C447 C452 1.418 . S
C448 H443 0.930 . S
C448 C451 1.404 . S
C448 C452 1.353 . S
N449 Co414 2.145 . S
N449 C450 1.397 . S
N449 C451 1.334 . S
C450 H431 0.929 . S
C450 C447 1.388 . S
C450 N449 1.397 . S
C451 H432 0.929 . S
C451 C448 1.404 . S
C451 N449 1.334 . S
C452 H444 0.930 . S
C452 C447 1.418 . S
C452 C448 1.353 . S
C453 H423 0.930 . S
C453 N454 1.330 . S
C453 C455 1.446 . S
N454 Co413 2.151 . S
N454 C453 1.330 . S
N454 C458 1.418 . S
C455 H434 0.929 . S
C455 C453 1.446 . S
C455 C456 1.332 . S
C456 H436 0.931 . S
C456 C455 1.332 . S
C456 C457 1.267 . S
C457 H425 0.929 . S
C457 C456 1.267 . S
C457 C458 1.251 . S
C458 H428 0.929 . S
C458 N454 1.418 . S
C458 C457 1.251 . S
C459 H426 0.930 . S
C459 C461 1.406 . S
C459 C464 1.261 . S
C460 H427 0.930 . S
C460 N462 1.325 . S
C460 C463 1.357 . S
C461 H429 0.928 . S
C461 C459 1.406 . S
C461 N462 1.261 . S
N462 Co413 2.214 . S
N462 C460 1.325 . S
N462 C461 1.261 . S
C463 H433 0.931 . S
C463 C460 1.357 . S
C463 C464 1.312 . S
C464 H435 0.930 . S
C464 C459 1.261 . S
C464 C463 1.312 . S
C465 O437 1.214 . S
C465 O445 1.234 . S
C466 H438 0.929 . S
C466 C469 1.391 . S
C466 C471 1.391 . S
C467 H439 0.929 . S
C467 C468 1.390 . S
C467 N470 1.391 . S
C468 H440 0.930 . S
C468 C467 1.390 . S
C468 C469 1.392 . S
C469 H441 0.929 . S
C469 C466 1.391 . S
C469 C468 1.392 . S
N470 Co414 2.257 . S
N470 C467 1.391 . S
N470 C471 1.388 . S
C471 H442 0.930 . S
C471 C466 1.391 . S
C471 N470 1.388 . S
Co472 O474 2.143 . S
Co472 O480 2.074 . S
Co472 O483 2.093 . S
Co472 O496 2.097 . S
Co472 N513 2.151 . S
Co472 N521 2.214 . S
Co473 O474 2.160 . S
Co473 O479 2.058 . S
Co473 O489 2.057 . S
Co473 O504 2.037 . S
Co473 N508 2.145 . S
Co473 N529 2.257 . S
O474 Co472 2.143 . S
O474 Co473 2.160 . S
C475 O476 1.278 . S
C475 O483 1.224 . S
O476 C475 1.278 . S
C477 O478 1.245 . S
C477 O489 1.232 . S
O478 C477 1.245 . S
O479 Co473 2.058 . S
O479 C505 1.269 . S
O480 Co472 2.074 . S
O480 C505 1.257 . S
H481 C506 0.930 . S
H482 C512 0.930 . S
O483 Co472 2.093 . S
O483 C475 1.224 . S
H484 C516 0.929 . S
H485 C518 0.930 . S
H486 C519 0.930 . S
H487 C517 0.929 . S
H488 C520 0.928 . S
O489 Co473 2.057 . S
O489 C477 1.232 . S
H490 C509 0.929 . S
H491 C510 0.929 . S
H492 C522 0.931 . S
H493 C514 0.929 . S
H494 C523 0.930 . S
H495 C515 0.931 . S
O496 Co472 2.097 . S
O496 C524 1.214 . S
H497 C525 0.929 . S
H498 C526 0.929 . S
H499 C527 0.930 . S
H500 C528 0.929 . S
H501 C530 0.930 . S
H502 C507 0.930 . S
H503 C511 0.930 . S
O504 Co473 2.037 . S
O504 C524 1.234 . S
C505 O479 1.269 . S
C505 O480 1.257 . S
C506 H481 0.930 . S
C506 C509 1.388 . S
C506 C511 1.418 . S
C507 H502 0.930 . S
C507 C510 1.404 . S
C507 C511 1.353 . S
N508 Co473 2.145 . S
N508 C509 1.397 . S
N508 C510 1.334 . S
C509 H490 0.929 . S
C509 C506 1.388 . S
C509 N508 1.397 . S
C510 H491 0.929 . S
C510 C507 1.404 . S
C510 N508 1.334 . S
C511 H503 0.930 . S
C511 C506 1.418 . S
C511 C507 1.353 . S
C512 H482 0.930 . S
C512 N513 1.330 . S
C512 C514 1.446 . S
N513 Co472 2.151 . S
N513 C512 1.330 . S
N513 C517 1.418 . S
C514 H493 0.929 . S
C514 C512 1.446 . S
C514 C515 1.332 . S
C515 H495 0.931 . S
C515 C514 1.332 . S
C515 C516 1.267 . S
C516 H484 0.929 . S
C516 C515 1.267 . S
C516 C517 1.251 . S
C517 H487 0.929 . S
C517 N513 1.418 . S
C517 C516 1.251 . S
C518 H485 0.930 . S
C518 C520 1.406 . S
C518 C523 1.261 . S
C519 H486 0.930 . S
C519 N521 1.325 . S
C519 C522 1.357 . S
C520 H488 0.928 . S
C520 C518 1.406 . S
C520 N521 1.261 . S
N521 Co472 2.214 . S
N521 C519 1.325 . S
N521 C520 1.261 . S
C522 H492 0.931 . S
C522 C519 1.357 . S
C522 C523 1.312 . S
C523 H494 0.930 . S
C523 C518 1.261 . S
C523 C522 1.312 . S
C524 O496 1.214 . S
C524 O504 1.234 . S
C525 H497 0.929 . S
C525 C528 1.391 . S
C525 C530 1.391 . S
C526 H498 0.929 . S
C526 C527 1.390 . S
C526 N529 1.391 . S
C527 H499 0.930 . S
C527 C526 1.390 . S
C527 C528 1.392 . S
C528 H500 0.929 . S
C528 C525 1.391 . S
C528 C527 1.392 . S
N529 Co473 2.257 . S
N529 C526 1.391 . S
N529 C530 1.388 . S
C530 H501 0.930 . S
C530 C525 1.391 . S
C530 N529 1.388 . S
Co531 O533 2.143 . S
Co531 O539 2.074 . S
Co531 O542 2.093 . S
Co531 O555 2.097 . S
Co531 N572 2.151 . S
Co531 N580 2.214 . S
Co532 O533 2.160 . S
Co532 O538 2.058 . S
Co532 O548 2.057 . S
Co532 O563 2.037 . S
Co532 N567 2.145 . S
Co532 N588 2.257 . S
O533 Co531 2.143 . S
O533 Co532 2.160 . S
C534 O535 1.278 . S
C534 O542 1.224 . S
O535 C534 1.278 . S
C536 O537 1.245 . S
C536 O548 1.232 . S
O537 C536 1.245 . S
O538 Co532 2.058 . S
O538 C564 1.269 . S
O539 Co531 2.074 . S
O539 C564 1.257 . S
H540 C565 0.930 . S
H541 C571 0.930 . S
O542 Co531 2.093 . S
O542 C534 1.224 . S
H543 C575 0.929 . S
H544 C577 0.930 . S
H545 C578 0.930 . S
H546 C576 0.929 . S
H547 C579 0.928 . S
O548 Co532 2.057 . S
O548 C536 1.232 . S
H549 C568 0.929 . S
H550 C569 0.929 . S
H551 C581 0.931 . S
H552 C573 0.929 . S
H553 C582 0.930 . S
H554 C574 0.931 . S
O555 Co531 2.097 . S
O555 C583 1.214 . S
H556 C584 0.929 . S
H557 C585 0.929 . S
H558 C586 0.930 . S
H559 C587 0.929 . S
H560 C589 0.930 . S
H561 C566 0.930 . S
H562 C570 0.930 . S
O563 Co532 2.037 . S
O563 C583 1.234 . S
C564 O538 1.269 . S
C564 O539 1.257 . S
C565 H540 0.930 . S
C565 C568 1.388 . S
C565 C570 1.418 . S
C566 H561 0.930 . S
C566 C569 1.404 . S
C566 C570 1.353 . S
N567 Co532 2.145 . S
N567 C568 1.397 . S
N567 C569 1.334 . S
C568 H549 0.929 . S
C568 C565 1.388 . S
C568 N567 1.397 . S
C569 H550 0.929 . S
C569 C566 1.404 . S
C569 N567 1.334 . S
C570 H562 0.930 . S
C570 C565 1.418 . S
C570 C566 1.353 . S
C571 H541 0.930 . S
C571 N572 1.330 . S
C571 C573 1.446 . S
N572 Co531 2.151 . S
N572 C571 1.330 . S
N572 C576 1.418 . S
C573 H552 0.929 . S
C573 C571 1.446 . S
C573 C574 1.332 . S
C574 H554 0.931 . S
C574 C573 1.332 . S
C574 C575 1.267 . S
C575 H543 0.929 . S
C575 C574 1.267 . S
C575 C576 1.251 . S
C576 H546 0.929 . S
C576 N572 1.418 . S
C576 C575 1.251 . S
C577 H544 0.930 . S
C577 C579 1.406 . S
C577 C582 1.261 . S
C578 H545 0.930 . S
C578 N580 1.325 . S
C578 C581 1.357 . S
C579 H547 0.928 . S
C579 C577 1.406 . S
C579 N580 1.261 . S
N580 Co531 2.214 . S
N580 C578 1.325 . S
N580 C579 1.261 . S
C581 H551 0.931 . S
C581 C578 1.357 . S
C581 C582 1.312 . S
C582 H553 0.930 . S
C582 C577 1.261 . S
C582 C581 1.312 . S
C583 O555 1.214 . S
C583 O563 1.234 . S
C584 H556 0.929 . S
C584 C587 1.391 . S
C584 C589 1.391 . S
C585 H557 0.929 . S
C585 C586 1.390 . S
C585 N588 1.391 . S
C586 H558 0.930 . S
C586 C585 1.390 . S
C586 C587 1.392 . S
C587 H559 0.929 . S
C587 C584 1.391 . S
C587 C586 1.392 . S
N588 Co532 2.257 . S
N588 C585 1.391 . S
N588 C589 1.388 . S
C589 H560 0.930 . S
C589 C584 1.391 . S
C589 N588 1.388 . S
Co590 O592 2.143 . S
Co590 O598 2.074 . S
Co590 O601 2.093 . S
Co590 O614 2.097 . S
Co590 N631 2.151 . S
Co590 N639 2.214 . S
Co591 O592 2.160 . S
Co591 O597 2.058 . S
Co591 O607 2.057 . S
Co591 O622 2.037 . S
Co591 N626 2.145 . S
Co591 N647 2.257 . S
O592 Co590 2.143 . S
O592 Co591 2.160 . S
C593 O594 1.278 . S
C593 O601 1.224 . S
O594 C593 1.278 . S
C595 O596 1.245 . S
C595 O607 1.232 . S
O596 C595 1.245 . S
O597 Co591 2.058 . S
O597 C623 1.269 . S
O598 Co590 2.074 . S
O598 C623 1.257 . S
H599 C624 0.930 . S
H600 C630 0.930 . S
O601 Co590 2.093 . S
O601 C593 1.224 . S
H602 C634 0.929 . S
H603 C636 0.930 . S
H604 C637 0.930 . S
H605 C635 0.929 . S
H606 C638 0.928 . S
O607 Co591 2.057 . S
O607 C595 1.232 . S
H608 C627 0.929 . S
H609 C628 0.929 . S
H610 C640 0.931 . S
H611 C632 0.929 . S
H612 C641 0.930 . S
H613 C633 0.931 . S
O614 Co590 2.097 . S
O614 C642 1.214 . S
H615 C643 0.929 . S
H616 C644 0.929 . S
H617 C645 0.930 . S
H618 C646 0.929 . S
H619 C648 0.930 . S
H620 C625 0.930 . S
H621 C629 0.930 . S
O622 Co591 2.037 . S
O622 C642 1.234 . S
C623 O597 1.269 . S
C623 O598 1.257 . S
C624 H599 0.930 . S
C624 C627 1.388 . S
C624 C629 1.418 . S
C625 H620 0.930 . S
C625 C628 1.404 . S
C625 C629 1.353 . S
N626 Co591 2.145 . S
N626 C627 1.397 . S
N626 C628 1.334 . S
C627 H608 0.929 . S
C627 C624 1.388 . S
C627 N626 1.397 . S
C628 H609 0.929 . S
C628 C625 1.404 . S
C628 N626 1.334 . S
C629 H621 0.930 . S
C629 C624 1.418 . S
C629 C625 1.353 . S
C630 H600 0.930 . S
C630 N631 1.330 . S
C630 C632 1.446 . S
N631 Co590 2.151 . S
N631 C630 1.330 . S
N631 C635 1.418 . S
C632 H611 0.929 . S
C632 C630 1.446 . S
C632 C633 1.332 . S
C633 H613 0.931 . S
C633 C632 1.332 . S
C633 C634 1.267 . S
C634 H602 0.929 . S
C634 C633 1.267 . S
C634 C635 1.251 . S
C635 H605 0.929 . S
C635 N631 1.418 . S
C635 C634 1.251 . S
C636 H603 0.930 . S
C636 C638 1.406 . S
C636 C641 1.261 . S
C637 H604 0.930 . S
C637 N639 1.325 . S
C637 C640 1.357 . S
C638 H606 0.928 . S
C638 C636 1.406 . S
C638 N639 1.261 . S
N639 Co590 2.214 . S
N639 C637 1.325 . S
N639 C638 1.261 . S
C640 H610 0.931 . S
C640 C637 1.357 . S
C640 C641 1.312 . S
C641 H612 0.930 . S
C641 C636 1.261 . S
C641 C640 1.312 . S
C642 O614 1.214 . S
C642 O622 1.234 . S
C643 H615 0.929 . S
C643 C646 1.391 . S
C643 C648 1.391 . S
C644 H616 0.929 . S
C644 C645 1.390 . S
C644 N647 1.391 . S
C645 H617 0.930 . S
C645 C644 1.390 . S
C645 C646 1.392 . S
C646 H618 0.929 . S
C646 C643 1.391 . S
C646 C645 1.392 . S
N647 Co591 2.257 . S
N647 C644 1.391 . S
N647 C648 1.388 . S
C648 H619 0.930 . S
C648 C643 1.391 . S
C648 N647 1.388 . S
Co649 O651 2.143 . S
Co649 O657 2.074 . S
Co649 O660 2.093 . S
Co649 O673 2.097 . S
Co649 N690 2.151 . S
Co649 N698 2.214 . S
Co650 O651 2.160 . S
Co650 O656 2.058 . S
Co650 O666 2.057 . S
Co650 O681 2.037 . S
Co650 N685 2.145 . S
Co650 N706 2.257 . S
O651 Co649 2.143 . S
O651 Co650 2.160 . S
C652 O653 1.278 . S
C652 O660 1.224 . S
O653 C652 1.278 . S
C654 O655 1.245 . S
C654 O666 1.232 . S
O655 C654 1.245 . S
O656 Co650 2.058 . S
O656 C682 1.269 . S
O657 Co649 2.074 . S
O657 C682 1.257 . S
H658 C683 0.930 . S
H659 C689 0.930 . S
O660 Co649 2.093 . S
O660 C652 1.224 . S
H661 C693 0.929 . S
H662 C695 0.930 . S
H663 C696 0.930 . S
H664 C694 0.929 . S
H665 C697 0.928 . S
O666 Co650 2.057 . S
O666 C654 1.232 . S
H667 C686 0.929 . S
H668 C687 0.929 . S
H669 C699 0.931 . S
H670 C691 0.929 . S
H671 C700 0.930 . S
H672 C692 0.931 . S
O673 Co649 2.097 . S
O673 C701 1.214 . S
H674 C702 0.929 . S
H675 C703 0.929 . S
H676 C704 0.930 . S
H677 C705 0.929 . S
H678 C707 0.930 . S
H679 C684 0.930 . S
H680 C688 0.930 . S
O681 Co650 2.037 . S
O681 C701 1.234 . S
C682 O656 1.269 . S
C682 O657 1.257 . S
C683 H658 0.930 . S
C683 C686 1.388 . S
C683 C688 1.418 . S
C684 H679 0.930 . S
C684 C687 1.404 . S
C684 C688 1.353 . S
N685 Co650 2.145 . S
N685 C686 1.397 . S
N685 C687 1.334 . S
C686 H667 0.929 . S
C686 C683 1.388 . S
C686 N685 1.397 . S
C687 H668 0.929 . S
C687 C684 1.404 . S
C687 N685 1.334 . S
C688 H680 0.930 . S
C688 C683 1.418 . S
C688 C684 1.353 . S
C689 H659 0.930 . S
C689 N690 1.330 . S
C689 C691 1.446 . S
N690 Co649 2.151 . S
N690 C689 1.330 . S
N690 C694 1.418 . S
C691 H670 0.929 . S
C691 C689 1.446 . S
C691 C692 1.332 . S
C692 H672 0.931 . S
C692 C691 1.332 . S
C692 C693 1.267 . S
C693 H661 0.929 . S
C693 C692 1.267 . S
C693 C694 1.251 . S
C694 H664 0.929 . S
C694 N690 1.418 . S
C694 C693 1.251 . S
C695 H662 0.930 . S
C695 C697 1.406 . S
C695 C700 1.261 . S
C696 H663 0.930 . S
C696 N698 1.325 . S
C696 C699 1.357 . S
C697 H665 0.928 . S
C697 C695 1.406 . S
C697 N698 1.261 . S
N698 Co649 2.214 . S
N698 C696 1.325 . S
N698 C697 1.261 . S
C699 H669 0.931 . S
C699 C696 1.357 . S
C699 C700 1.312 . S
C700 H671 0.930 . S
C700 C695 1.261 . S
C700 C699 1.312 . S
C701 O673 1.214 . S
C701 O681 1.234 . S
C702 H674 0.929 . S
C702 C705 1.391 . S
C702 C707 1.391 . S
C703 H675 0.929 . S
C703 C704 1.390 . S
C703 N706 1.391 . S
C704 H676 0.930 . S
C704 C703 1.390 . S
C704 C705 1.392 . S
C705 H677 0.929 . S
C705 C702 1.391 . S
C705 C704 1.392 . S
N706 Co650 2.257 . S
N706 C703 1.391 . S
N706 C707 1.388 . S
C707 H678 0.930 . S
C707 C702 1.391 . S
C707 N706 1.388 . S
Co708 O710 2.143 . S
Co708 O716 2.074 . S
Co708 O719 2.093 . S
Co708 O732 2.097 . S
Co708 N749 2.151 . S
Co708 N757 2.214 . S
Co709 O710 2.160 . S
Co709 O715 2.058 . S
Co709 O725 2.057 . S
Co709 O740 2.037 . S
Co709 N744 2.145 . S
Co709 N765 2.257 . S
O710 Co708 2.143 . S
O710 Co709 2.160 . S
C711 O712 1.278 . S
C711 O719 1.224 . S
O712 C711 1.278 . S
C713 O714 1.245 . S
C713 O725 1.232 . S
O714 C713 1.245 . S
O715 Co709 2.058 . S
O715 C741 1.269 . S
O716 Co708 2.074 . S
O716 C741 1.257 . S
H717 C742 0.930 . S
H718 C748 0.930 . S
O719 Co708 2.093 . S
O719 C711 1.224 . S
H720 C752 0.929 . S
H721 C754 0.930 . S
H722 C755 0.930 . S
H723 C753 0.929 . S
H724 C756 0.928 . S
O725 Co709 2.057 . S
O725 C713 1.232 . S
H726 C745 0.929 . S
H727 C746 0.929 . S
H728 C758 0.931 . S
H729 C750 0.929 . S
H730 C759 0.930 . S
H731 C751 0.931 . S
O732 Co708 2.097 . S
O732 C760 1.214 . S
H733 C761 0.929 . S
H734 C762 0.929 . S
H735 C763 0.930 . S
H736 C764 0.929 . S
H737 C766 0.930 . S
H738 C743 0.930 . S
H739 C747 0.930 . S
O740 Co709 2.037 . S
O740 C760 1.234 . S
C741 O715 1.269 . S
C741 O716 1.257 . S
C742 H717 0.930 . S
C742 C745 1.388 . S
C742 C747 1.418 . S
C743 H738 0.930 . S
C743 C746 1.404 . S
C743 C747 1.353 . S
N744 Co709 2.145 . S
N744 C745 1.397 . S
N744 C746 1.334 . S
C745 H726 0.929 . S
C745 C742 1.388 . S
C745 N744 1.397 . S
C746 H727 0.929 . S
C746 C743 1.404 . S
C746 N744 1.334 . S
C747 H739 0.930 . S
C747 C742 1.418 . S
C747 C743 1.353 . S
C748 H718 0.930 . S
C748 N749 1.330 . S
C748 C750 1.446 . S
N749 Co708 2.151 . S
N749 C748 1.330 . S
N749 C753 1.418 . S
C750 H729 0.929 . S
C750 C748 1.446 . S
C750 C751 1.332 . S
C751 H731 0.931 . S
C751 C750 1.332 . S
C751 C752 1.267 . S
C752 H720 0.929 . S
C752 C751 1.267 . S
C752 C753 1.251 . S
C753 H723 0.929 . S
C753 N749 1.418 . S
C753 C752 1.251 . S
C754 H721 0.930 . S
C754 C756 1.406 . S
C754 C759 1.261 . S
C755 H722 0.930 . S
C755 N757 1.325 . S
C755 C758 1.357 . S
C756 H724 0.928 . S
C756 C754 1.406 . S
C756 N757 1.261 . S
N757 Co708 2.214 . S
N757 C755 1.325 . S
N757 C756 1.261 . S
C758 H728 0.931 . S
C758 C755 1.357 . S
C758 C759 1.312 . S
C759 H730 0.930 . S
C759 C754 1.261 . S
C759 C758 1.312 . S
C760 O732 1.214 . S
C760 O740 1.234 . S
C761 H733 0.929 . S
C761 C764 1.391 . S
C761 C766 1.391 . S
C762 H734 0.929 . S
C762 C763 1.390 . S
C762 N765 1.391 . S
C763 H735 0.930 . S
C763 C762 1.390 . S
C763 C764 1.392 . S
C764 H736 0.929 . S
C764 C761 1.391 . S
C764 C763 1.392 . S
N765 Co709 2.257 . S
N765 C762 1.391 . S
N765 C766 1.388 . S
C766 H737 0.930 . S
C766 C761 1.391 . S
C766 N765 1.388 . S
Co767 O769 2.143 . S
Co767 O775 2.074 . S
Co767 O778 2.093 . S
Co767 O791 2.097 . S
Co767 N808 2.151 . S
Co767 N816 2.214 . S
Co768 O769 2.160 . S
Co768 O774 2.058 . S
Co768 O784 2.057 . S
Co768 O799 2.037 . S
Co768 N803 2.145 . S
Co768 N824 2.257 . S
O769 Co767 2.143 . S
O769 Co768 2.160 . S
C770 O771 1.278 . S
C770 O778 1.224 . S
O771 C770 1.278 . S
C772 O773 1.245 . S
C772 O784 1.232 . S
O773 C772 1.245 . S
O774 Co768 2.058 . S
O774 C800 1.269 . S
O775 Co767 2.074 . S
O775 C800 1.257 . S
H776 C801 0.930 . S
H777 C807 0.930 . S
O778 Co767 2.093 . S
O778 C770 1.224 . S
H779 C811 0.929 . S
H780 C813 0.930 . S
H781 C814 0.930 . S
H782 C812 0.929 . S
H783 C815 0.928 . S
O784 Co768 2.057 . S
O784 C772 1.232 . S
H785 C804 0.929 . S
H786 C805 0.929 . S
H787 C817 0.931 . S
H788 C809 0.929 . S
H789 C818 0.930 . S
H790 C810 0.931 . S
O791 Co767 2.097 . S
O791 C819 1.214 . S
H792 C820 0.929 . S
H793 C821 0.929 . S
H794 C822 0.930 . S
H795 C823 0.929 . S
H796 C825 0.930 . S
H797 C802 0.930 . S
H798 C806 0.930 . S
O799 Co768 2.037 . S
O799 C819 1.234 . S
C800 O774 1.269 . S
C800 O775 1.257 . S
C801 H776 0.930 . S
C801 C804 1.388 . S
C801 C806 1.418 . S
C802 H797 0.930 . S
C802 C805 1.404 . S
C802 C806 1.353 . S
N803 Co768 2.145 . S
N803 C804 1.397 . S
N803 C805 1.334 . S
C804 H785 0.929 . S
C804 C801 1.388 . S
C804 N803 1.397 . S
C805 H786 0.929 . S
C805 C802 1.404 . S
C805 N803 1.334 . S
C806 H798 0.930 . S
C806 C801 1.418 . S
C806 C802 1.353 . S
C807 H777 0.930 . S
C807 N808 1.330 . S
C807 C809 1.446 . S
N808 Co767 2.151 . S
N808 C807 1.330 . S
N808 C812 1.418 . S
C809 H788 0.929 . S
C809 C807 1.446 . S
C809 C810 1.332 . S
C810 H790 0.931 . S
C810 C809 1.332 . S
C810 C811 1.267 . S
C811 H779 0.929 . S
C811 C810 1.267 . S
C811 C812 1.251 . S
C812 H782 0.929 . S
C812 N808 1.418 . S
C812 C811 1.251 . S
C813 H780 0.930 . S
C813 C815 1.406 . S
C813 C818 1.261 . S
C814 H781 0.930 . S
C814 N816 1.325 . S
C814 C817 1.357 . S
C815 H783 0.928 . S
C815 C813 1.406 . S
C815 N816 1.261 . S
N816 Co767 2.214 . S
N816 C814 1.325 . S
N816 C815 1.261 . S
C817 H787 0.931 . S
C817 C814 1.357 . S
C817 C818 1.312 . S
C818 H789 0.930 . S
C818 C813 1.261 . S
C818 C817 1.312 . S
C819 O791 1.214 . S
C819 O799 1.234 . S
C820 H792 0.929 . S
C820 C823 1.391 . S
C820 C825 1.391 . S
C821 H793 0.929 . S
C821 C822 1.390 . S
C821 N824 1.391 . S
C822 H794 0.930 . S
C822 C821 1.390 . S
C822 C823 1.392 . S
C823 H795 0.929 . S
C823 C820 1.391 . S
C823 C822 1.392 . S
N824 Co768 2.257 . S
N824 C821 1.391 . S
N824 C825 1.388 . S
C825 H796 0.930 . S
C825 C820 1.391 . S
C825 N824 1.388 . S
Co826 O828 2.143 . S
Co826 O834 2.074 . S
Co826 O837 2.093 . S
Co826 O850 2.097 . S
Co826 N867 2.151 . S
Co826 N875 2.214 . S
Co827 O828 2.160 . S
Co827 O833 2.058 . S
Co827 O843 2.057 . S
Co827 O858 2.037 . S
Co827 N862 2.145 . S
Co827 N883 2.257 . S
O828 Co826 2.143 . S
O828 Co827 2.160 . S
C829 O830 1.278 . S
C829 O837 1.224 . S
O830 C829 1.278 . S
C831 O832 1.245 . S
C831 O843 1.232 . S
O832 C831 1.245 . S
O833 Co827 2.058 . S
O833 C859 1.269 . S
O834 Co826 2.074 . S
O834 C859 1.257 . S
H835 C860 0.930 . S
H836 C866 0.930 . S
O837 Co826 2.093 . S
O837 C829 1.224 . S
H838 C870 0.929 . S
H839 C872 0.930 . S
H840 C873 0.930 . S
H841 C871 0.929 . S
H842 C874 0.928 . S
O843 Co827 2.057 . S
O843 C831 1.232 . S
H844 C863 0.929 . S
H845 C864 0.929 . S
H846 C876 0.931 . S
H847 C868 0.929 . S
H848 C877 0.930 . S
H849 C869 0.931 . S
O850 Co826 2.097 . S
O850 C878 1.214 . S
H851 C879 0.929 . S
H852 C880 0.929 . S
H853 C881 0.930 . S
H854 C882 0.929 . S
H855 C884 0.930 . S
H856 C861 0.930 . S
H857 C865 0.930 . S
O858 Co827 2.037 . S
O858 C878 1.234 . S
C859 O833 1.269 . S
C859 O834 1.257 . S
C860 H835 0.930 . S
C860 C863 1.388 . S
C860 C865 1.418 . S
C861 H856 0.930 . S
C861 C864 1.404 . S
C861 C865 1.353 . S
N862 Co827 2.145 . S
N862 C863 1.397 . S
N862 C864 1.334 . S
C863 H844 0.929 . S
C863 C860 1.388 . S
C863 N862 1.397 . S
C864 H845 0.929 . S
C864 C861 1.404 . S
C864 N862 1.334 . S
C865 H857 0.930 . S
C865 C860 1.418 . S
C865 C861 1.353 . S
C866 H836 0.930 . S
C866 N867 1.330 . S
C866 C868 1.446 . S
N867 Co826 2.151 . S
N867 C866 1.330 . S
N867 C871 1.418 . S
C868 H847 0.929 . S
C868 C866 1.446 . S
C868 C869 1.332 . S
C869 H849 0.931 . S
C869 C868 1.332 . S
C869 C870 1.267 . S
C870 H838 0.929 . S
C870 C869 1.267 . S
C870 C871 1.251 . S
C871 H841 0.929 . S
C871 N867 1.418 . S
C871 C870 1.251 . S
C872 H839 0.930 . S
C872 C874 1.406 . S
C872 C877 1.261 . S
C873 H840 0.930 . S
C873 N875 1.325 . S
C873 C876 1.357 . S
C874 H842 0.928 . S
C874 C872 1.406 . S
C874 N875 1.261 . S
N875 Co826 2.214 . S
N875 C873 1.325 . S
N875 C874 1.261 . S
C876 H846 0.931 . S
C876 C873 1.357 . S
C876 C877 1.312 . S
C877 H848 0.930 . S
C877 C872 1.261 . S
C877 C876 1.312 . S
C878 O850 1.214 . S
C878 O858 1.234 . S
C879 H851 0.929 . S
C879 C882 1.391 . S
C879 C884 1.391 . S
C880 H852 0.929 . S
C880 C881 1.390 . S
C880 N883 1.391 . S
C881 H853 0.930 . S
C881 C880 1.390 . S
C881 C882 1.392 . S
C882 H854 0.929 . S
C882 C879 1.391 . S
C882 C881 1.392 . S
N883 Co827 2.257 . S
N883 C880 1.391 . S
N883 C884 1.388 . S
C884 H855 0.930 . S
C884 C879 1.391 . S
C884 N883 1.388 . S
Co885 O887 2.143 . S
Co885 O893 2.074 . S
Co885 O896 2.093 . S
Co885 O909 2.097 . S
Co885 N926 2.151 . S
Co885 N934 2.214 . S
Co886 O887 2.160 . S
Co886 O892 2.058 . S
Co886 O902 2.057 . S
Co886 O917 2.037 . S
Co886 N921 2.145 . S
Co886 N942 2.257 . S
O887 Co885 2.143 . S
O887 Co886 2.160 . S
C888 O889 1.278 . S
C888 O896 1.224 . S
O889 C888 1.278 . S
C890 O891 1.245 . S
C890 O902 1.232 . S
O891 C890 1.245 . S
O892 Co886 2.058 . S
O892 C918 1.269 . S
O893 Co885 2.074 . S
O893 C918 1.257 . S
H894 C919 0.930 . S
H895 C925 0.930 . S
O896 Co885 2.093 . S
O896 C888 1.224 . S
H897 C929 0.929 . S
H898 C931 0.930 . S
H899 C932 0.930 . S
H900 C930 0.929 . S
H901 C933 0.928 . S
O902 Co886 2.057 . S
O902 C890 1.232 . S
H903 C922 0.929 . S
H904 C923 0.929 . S
H905 C935 0.931 . S
H906 C927 0.929 . S
H907 C936 0.930 . S
H908 C928 0.931 . S
O909 Co885 2.097 . S
O909 C937 1.214 . S
H910 C938 0.929 . S
H911 C939 0.929 . S
H912 C940 0.930 . S
H913 C941 0.929 . S
H914 C943 0.930 . S
H915 C920 0.930 . S
H916 C924 0.930 . S
O917 Co886 2.037 . S
O917 C937 1.234 . S
C918 O892 1.269 . S
C918 O893 1.257 . S
C919 H894 0.930 . S
C919 C922 1.388 . S
C919 C924 1.418 . S
C920 H915 0.930 . S
C920 C923 1.404 . S
C920 C924 1.353 . S
N921 Co886 2.145 . S
N921 C922 1.397 . S
N921 C923 1.334 . S
C922 H903 0.929 . S
C922 C919 1.388 . S
C922 N921 1.397 . S
C923 H904 0.929 . S
C923 C920 1.404 . S
C923 N921 1.334 . S
C924 H916 0.930 . S
C924 C919 1.418 . S
C924 C920 1.353 . S
C925 H895 0.930 . S
C925 N926 1.330 . S
C925 C927 1.446 . S
N926 Co885 2.151 . S
N926 C925 1.330 . S
N926 C930 1.418 . S
C927 H906 0.929 . S
C927 C925 1.446 . S
C927 C928 1.332 . S
C928 H908 0.931 . S
C928 C927 1.332 . S
C928 C929 1.267 . S
C929 H897 0.929 . S
C929 C928 1.267 . S
C929 C930 1.251 . S
C930 H900 0.929 . S
C930 N926 1.418 . S
C930 C929 1.251 . S
C931 H898 0.930 . S
C931 C933 1.406 . S
C931 C936 1.261 . S
C932 H899 0.930 . S
C932 N934 1.325 . S
C932 C935 1.357 . S
C933 H901 0.928 . S
C933 C931 1.406 . S
C933 N934 1.261 . S
N934 Co885 2.214 . S
N934 C932 1.325 . S
N934 C933 1.261 . S
C935 H905 0.931 . S
C935 C932 1.357 . S
C935 C936 1.312 . S
C936 H907 0.930 . S
C936 C931 1.261 . S
C936 C935 1.312 . S
C937 O909 1.214 . S
C937 O917 1.234 . S
C938 H910 0.929 . S
C938 C941 1.391 . S
C938 C943 1.391 . S
C939 H911 0.929 . S
C939 C940 1.390 . S
C939 N942 1.391 . S
C940 H912 0.930 . S
C940 C939 1.390 . S
C940 C941 1.392 . S
C941 H913 0.929 . S
C941 C938 1.391 . S
C941 C940 1.392 . S
N942 Co886 2.257 . S
N942 C939 1.391 . S
N942 C943 1.388 . S
C943 H914 0.930 . S
C943 C938 1.391 . S
C943 N942 1.388 . S
Co944 O946 2.143 . S
Co944 O952 2.074 . S
Co944 O955 2.093 . S
Co944 O968 2.097 . S
Co944 N985 2.151 . S
Co944 N993 2.214 . S
Co945 O946 2.160 . S
Co945 O951 2.058 . S
Co945 O961 2.057 . S
Co945 O976 2.037 . S
Co945 N980 2.145 . S
Co945 N1001 2.257 . S
O946 Co944 2.143 . S
O946 Co945 2.160 . S
C947 O948 1.278 . S
C947 O955 1.224 . S
O948 C947 1.278 . S
C949 O950 1.245 . S
C949 O961 1.232 . S
O950 C949 1.245 . S
O951 Co945 2.058 . S
O951 C977 1.269 . S
O952 Co944 2.074 . S
O952 C977 1.257 . S
H953 C978 0.930 . S
H954 C984 0.930 . S
O955 Co944 2.093 . S
O955 C947 1.224 . S
H956 C988 0.929 . S
H957 C990 0.930 . S
H958 C991 0.930 . S
H959 C989 0.929 . S
H960 C992 0.928 . S
O961 Co945 2.057 . S
O961 C949 1.232 . S
H962 C981 0.929 . S
H963 C982 0.929 . S
H964 C994 0.931 . S
H965 C986 0.929 . S
H966 C995 0.930 . S
H967 C987 0.931 . S
O968 Co944 2.097 . S
O968 C996 1.214 . S
H969 C997 0.929 . S
H970 C998 0.929 . S
H971 C999 0.930 . S
H972 C1000 0.929 . S
H973 C1002 0.930 . S
H974 C979 0.930 . S
H975 C983 0.930 . S
O976 Co945 2.037 . S
O976 C996 1.234 . S
C977 O951 1.269 . S
C977 O952 1.257 . S
C978 H953 0.930 . S
C978 C981 1.388 . S
C978 C983 1.418 . S
C979 H974 0.930 . S
C979 C982 1.404 . S
C979 C983 1.353 . S
N980 Co945 2.145 . S
N980 C981 1.397 . S
N980 C982 1.334 . S
C981 H962 0.929 . S
C981 C978 1.388 . S
C981 N980 1.397 . S
C982 H963 0.929 . S
C982 C979 1.404 . S
C982 N980 1.334 . S
C983 H975 0.930 . S
C983 C978 1.418 . S
C983 C979 1.353 . S
C984 H954 0.930 . S
C984 N985 1.330 . S
C984 C986 1.446 . S
N985 Co944 2.151 . S
N985 C984 1.330 . S
N985 C989 1.418 . S
C986 H965 0.929 . S
C986 C984 1.446 . S
C986 C987 1.332 . S
C987 H967 0.931 . S
C987 C986 1.332 . S
C987 C988 1.267 . S
C988 H956 0.929 . S
C988 C987 1.267 . S
C988 C989 1.251 . S
C989 H959 0.929 . S
C989 N985 1.418 . S
C989 C988 1.251 . S
C990 H957 0.930 . S
C990 C992 1.406 . S
C990 C995 1.261 . S
C991 H958 0.930 . S
C991 N993 1.325 . S
C991 C994 1.357 . S
C992 H960 0.928 . S
C992 C990 1.406 . S
C992 N993 1.261 . S
N993 Co944 2.214 . S
N993 C991 1.325 . S
N993 C992 1.261 . S
C994 H964 0.931 . S
C994 C991 1.357 . S
C994 C995 1.312 . S
C995 H966 0.930 . S
C995 C990 1.261 . S
C995 C994 1.312 . S
C996 O968 1.214 . S
C996 O976 1.234 . S
C997 H969 0.929 . S
C997 C1000 1.391 . S
C997 C1002 1.391 . S
C998 H970 0.929 . S
C998 C999 1.390 . S
C998 N1001 1.391 . S
C999 H971 0.930 . S
C999 C998 1.390 . S
C999 C1000 1.392 . S
C1000 H972 0.929 . S
C1000 C997 1.391 . S
C1000 C999 1.392 . S
N1001 Co945 2.257 . S
N1001 C998 1.391 . S
N1001 C1002 1.388 . S
C1002 H973 0.930 . S
C1002 C997 1.391 . S
C1002 N1001 1.388 . S
Co1003 O1005 2.143 . S
Co1003 O1011 2.074 . S
Co1003 O1014 2.093 . S
Co1003 O1027 2.097 . S
Co1003 N1044 2.151 . S
Co1003 N1052 2.214 . S
Co1004 O1005 2.160 . S
Co1004 O1010 2.058 . S
Co1004 O1020 2.057 . S
Co1004 O1035 2.037 . S
Co1004 N1039 2.145 . S
Co1004 N1060 2.257 . S
O1005 Co1003 2.143 . S
O1005 Co1004 2.160 . S
C1006 O1007 1.278 . S
C1006 O1014 1.224 . S
O1007 C1006 1.278 . S
C1008 O1009 1.245 . S
C1008 O1020 1.232 . S
O1009 C1008 1.245 . S
O1010 Co1004 2.058 . S
O1010 C1036 1.269 . S
O1011 Co1003 2.074 . S
O1011 C1036 1.257 . S
H1012 C1037 0.930 . S
H1013 C1043 0.930 . S
O1014 Co1003 2.093 . S
O1014 C1006 1.224 . S
H1015 C1047 0.929 . S
H1016 C1049 0.930 . S
H1017 C1050 0.930 . S
H1018 C1048 0.929 . S
H1019 C1051 0.928 . S
O1020 Co1004 2.057 . S
O1020 C1008 1.232 . S
H1021 C1040 0.929 . S
H1022 C1041 0.929 . S
H1023 C1053 0.931 . S
H1024 C1045 0.929 . S
H1025 C1054 0.930 . S
H1026 C1046 0.931 . S
O1027 Co1003 2.097 . S
O1027 C1055 1.214 . S
H1028 C1056 0.929 . S
H1029 C1057 0.929 . S
H1030 C1058 0.930 . S
H1031 C1059 0.929 . S
H1032 C1061 0.930 . S
H1033 C1038 0.930 . S
H1034 C1042 0.930 . S
O1035 Co1004 2.037 . S
O1035 C1055 1.234 . S
C1036 O1010 1.269 . S
C1036 O1011 1.257 . S
C1037 H1012 0.930 . S
C1037 C1040 1.388 . S
C1037 C1042 1.418 . S
C1038 H1033 0.930 . S
C1038 C1041 1.404 . S
C1038 C1042 1.353 . S
N1039 Co1004 2.145 . S
N1039 C1040 1.397 . S
N1039 C1041 1.334 . S
C1040 H1021 0.929 . S
C1040 C1037 1.388 . S
C1040 N1039 1.397 . S
C1041 H1022 0.929 . S
C1041 C1038 1.404 . S
C1041 N1039 1.334 . S
C1042 H1034 0.930 . S
C1042 C1037 1.418 . S
C1042 C1038 1.353 . S
C1043 H1013 0.930 . S
C1043 N1044 1.330 . S
C1043 C1045 1.446 . S
N1044 Co1003 2.151 . S
N1044 C1043 1.330 . S
N1044 C1048 1.418 . S
C1045 H1024 0.929 . S
C1045 C1043 1.446 . S
C1045 C1046 1.332 . S
C1046 H1026 0.931 . S
C1046 C1045 1.332 . S
C1046 C1047 1.267 . S
C1047 H1015 0.929 . S
C1047 C1046 1.267 . S
C1047 C1048 1.251 . S
C1048 H1018 0.929 . S
C1048 N1044 1.418 . S
C1048 C1047 1.251 . S
C1049 H1016 0.930 . S
C1049 C1051 1.406 . S
C1049 C1054 1.261 . S
C1050 H1017 0.930 . S
C1050 N1052 1.325 . S
C1050 C1053 1.357 . S
C1051 H1019 0.928 . S
C1051 C1049 1.406 . S
C1051 N1052 1.261 . S
N1052 Co1003 2.214 . S
N1052 C1050 1.325 . S
N1052 C1051 1.261 . S
C1053 H1023 0.931 . S
C1053 C1050 1.357 . S
C1053 C1054 1.312 . S
C1054 H1025 0.930 . S
C1054 C1049 1.261 . S
C1054 C1053 1.312 . S
C1055 O1027 1.214 . S
C1055 O1035 1.234 . S
C1056 H1028 0.929 . S
C1056 C1059 1.391 . S
C1056 C1061 1.391 . S
C1057 H1029 0.929 . S
C1057 C1058 1.390 . S
C1057 N1060 1.391 . S
C1058 H1030 0.930 . S
C1058 C1057 1.390 . S
C1058 C1059 1.392 . S
C1059 H1031 0.929 . S
C1059 C1056 1.391 . S
C1059 C1058 1.392 . S
N1060 Co1004 2.257 . S
N1060 C1057 1.391 . S
N1060 C1061 1.388 . S
C1061 H1032 0.930 . S
C1061 C1056 1.391 . S
C1061 N1060 1.388 . S
Co1062 O1064 2.143 . S
Co1062 O1070 2.074 . S
Co1062 O1073 2.093 . S
Co1062 O1086 2.097 . S
Co1062 N1103 2.151 . S
Co1062 N1111 2.214 . S
Co1063 O1064 2.160 . S
Co1063 O1069 2.058 . S
Co1063 O1079 2.057 . S
Co1063 O1094 2.037 . S
Co1063 N1098 2.145 . S
Co1063 N1119 2.257 . S
O1064 Co1062 2.143 . S
O1064 Co1063 2.160 . S
C1065 O1066 1.278 . S
C1065 O1073 1.224 . S
O1066 C1065 1.278 . S
C1067 O1068 1.245 . S
C1067 O1079 1.232 . S
O1068 C1067 1.245 . S
O1069 Co1063 2.058 . S
O1069 C1095 1.269 . S
O1070 Co1062 2.074 . S
O1070 C1095 1.257 . S
H1071 C1096 0.930 . S
H1072 C1102 0.930 . S
O1073 Co1062 2.093 . S
O1073 C1065 1.224 . S
H1074 C1106 0.929 . S
H1075 C1108 0.930 . S
H1076 C1109 0.930 . S
H1077 C1107 0.929 . S
H1078 C1110 0.928 . S
O1079 Co1063 2.057 . S
O1079 C1067 1.232 . S
H1080 C1099 0.929 . S
H1081 C1100 0.929 . S
H1082 C1112 0.931 . S
H1083 C1104 0.929 . S
H1084 C1113 0.930 . S
H1085 C1105 0.931 . S
O1086 Co1062 2.097 . S
O1086 C1114 1.214 . S
H1087 C1115 0.929 . S
H1088 C1116 0.929 . S
H1089 C1117 0.930 . S
H1090 C1118 0.929 . S
H1091 C1120 0.930 . S
H1092 C1097 0.930 . S
H1093 C1101 0.930 . S
O1094 Co1063 2.037 . S
O1094 C1114 1.234 . S
C1095 O1069 1.269 . S
C1095 O1070 1.257 . S
C1096 H1071 0.930 . S
C1096 C1099 1.388 . S
C1096 C1101 1.418 . S
C1097 H1092 0.930 . S
C1097 C1100 1.404 . S
C1097 C1101 1.353 . S
N1098 Co1063 2.145 . S
N1098 C1099 1.397 . S
N1098 C1100 1.334 . S
C1099 H1080 0.929 . S
C1099 C1096 1.388 . S
C1099 N1098 1.397 . S
C1100 H1081 0.929 . S
C1100 C1097 1.404 . S
C1100 N1098 1.334 . S
C1101 H1093 0.930 . S
C1101 C1096 1.418 . S
C1101 C1097 1.353 . S
C1102 H1072 0.930 . S
C1102 N1103 1.330 . S
C1102 C1104 1.446 . S
N1103 Co1062 2.151 . S
N1103 C1102 1.330 . S
N1103 C1107 1.418 . S
C1104 H1083 0.929 . S
C1104 C1102 1.446 . S
C1104 C1105 1.332 . S
C1105 H1085 0.931 . S
C1105 C1104 1.332 . S
C1105 C1106 1.267 . S
C1106 H1074 0.929 . S
C1106 C1105 1.267 . S
C1106 C1107 1.251 . S
C1107 H1077 0.929 . S
C1107 N1103 1.418 . S
C1107 C1106 1.251 . S
C1108 H1075 0.930 . S
C1108 C1110 1.406 . S
C1108 C1113 1.261 . S
C1109 H1076 0.930 . S
C1109 N1111 1.325 . S
C1109 C1112 1.357 . S
C1110 H1078 0.928 . S
C1110 C1108 1.406 . S
C1110 N1111 1.261 . S
N1111 Co1062 2.214 . S
N1111 C1109 1.325 . S
N1111 C1110 1.261 . S
C1112 H1082 0.931 . S
C1112 C1109 1.357 . S
C1112 C1113 1.312 . S
C1113 H1084 0.930 . S
C1113 C1108 1.261 . S
C1113 C1112 1.312 . S
C1114 O1086 1.214 . S
C1114 O1094 1.234 . S
C1115 H1087 0.929 . S
C1115 C1118 1.391 . S
C1115 C1120 1.391 . S
C1116 H1088 0.929 . S
C1116 C1117 1.390 . S
C1116 N1119 1.391 . S
C1117 H1089 0.930 . S
C1117 C1116 1.390 . S
C1117 C1118 1.392 . S
C1118 H1090 0.929 . S
C1118 C1115 1.391 . S
C1118 C1117 1.392 . S
N1119 Co1063 2.257 . S
N1119 C1116 1.391 . S
N1119 C1120 1.388 . S
C1120 H1091 0.930 . S
C1120 C1115 1.391 . S
C1120 N1119 1.388 . S
Co1121 O1123 2.143 . S
Co1121 O1129 2.074 . S
Co1121 O1132 2.093 . S
Co1121 O1145 2.097 . S
Co1121 N1162 2.151 . S
Co1121 N1170 2.214 . S
Co1122 O1123 2.160 . S
Co1122 O1128 2.058 . S
Co1122 O1138 2.057 . S
Co1122 O1153 2.037 . S
Co1122 N1157 2.145 . S
Co1122 N1178 2.257 . S
O1123 Co1121 2.143 . S
O1123 Co1122 2.160 . S
C1124 O1125 1.278 . S
C1124 O1132 1.224 . S
O1125 C1124 1.278 . S
C1126 O1127 1.245 . S
C1126 O1138 1.232 . S
O1127 C1126 1.245 . S
O1128 Co1122 2.058 . S
O1128 C1154 1.269 . S
O1129 Co1121 2.074 . S
O1129 C1154 1.257 . S
H1130 C1155 0.930 . S
H1131 C1161 0.930 . S
O1132 Co1121 2.093 . S
O1132 C1124 1.224 . S
H1133 C1165 0.929 . S
H1134 C1167 0.930 . S
H1135 C1168 0.930 . S
H1136 C1166 0.929 . S
H1137 C1169 0.928 . S
O1138 Co1122 2.057 . S
O1138 C1126 1.232 . S
H1139 C1158 0.929 . S
H1140 C1159 0.929 . S
H1141 C1171 0.931 . S
H1142 C1163 0.929 . S
H1143 C1172 0.930 . S
H1144 C1164 0.931 . S
O1145 Co1121 2.097 . S
O1145 C1173 1.214 . S
H1146 C1174 0.929 . S
H1147 C1175 0.929 . S
H1148 C1176 0.930 . S
H1149 C1177 0.929 . S
H1150 C1179 0.930 . S
H1151 C1156 0.930 . S
H1152 C1160 0.930 . S
O1153 Co1122 2.037 . S
O1153 C1173 1.234 . S
C1154 O1128 1.269 . S
C1154 O1129 1.257 . S
C1155 H1130 0.930 . S
C1155 C1158 1.388 . S
C1155 C1160 1.418 . S
C1156 H1151 0.930 . S
C1156 C1159 1.404 . S
C1156 C1160 1.353 . S
N1157 Co1122 2.145 . S
N1157 C1158 1.397 . S
N1157 C1159 1.334 . S
C1158 H1139 0.929 . S
C1158 C1155 1.388 . S
C1158 N1157 1.397 . S
C1159 H1140 0.929 . S
C1159 C1156 1.404 . S
C1159 N1157 1.334 . S
C1160 H1152 0.930 . S
C1160 C1155 1.418 . S
C1160 C1156 1.353 . S
C1161 H1131 0.930 . S
C1161 N1162 1.330 . S
C1161 C1163 1.446 . S
N1162 Co1121 2.151 . S
N1162 C1161 1.330 . S
N1162 C1166 1.418 . S
C1163 H1142 0.929 . S
C1163 C1161 1.446 . S
C1163 C1164 1.332 . S
C1164 H1144 0.931 . S
C1164 C1163 1.332 . S
C1164 C1165 1.267 . S
C1165 H1133 0.929 . S
C1165 C1164 1.267 . S
C1165 C1166 1.251 . S
C1166 H1136 0.929 . S
C1166 N1162 1.418 . S
C1166 C1165 1.251 . S
C1167 H1134 0.930 . S
C1167 C1169 1.406 . S
C1167 C1172 1.261 . S
C1168 H1135 0.930 . S
C1168 N1170 1.325 . S
C1168 C1171 1.357 . S
C1169 H1137 0.928 . S
C1169 C1167 1.406 . S
C1169 N1170 1.261 . S
N1170 Co1121 2.214 . S
N1170 C1168 1.325 . S
N1170 C1169 1.261 . S
C1171 H1141 0.931 . S
C1171 C1168 1.357 . S
C1171 C1172 1.312 . S
C1172 H1143 0.930 . S
C1172 C1167 1.261 . S
C1172 C1171 1.312 . S
C1173 O1145 1.214 . S
C1173 O1153 1.234 . S
C1174 H1146 0.929 . S
C1174 C1177 1.391 . S
C1174 C1179 1.391 . S
C1175 H1147 0.929 . S
C1175 C1176 1.390 . S
C1175 N1178 1.391 . S
C1176 H1148 0.930 . S
C1176 C1175 1.390 . S
C1176 C1177 1.392 . S
C1177 H1149 0.929 . S
C1177 C1174 1.391 . S
C1177 C1176 1.392 . S
N1178 Co1122 2.257 . S
N1178 C1175 1.391 . S
N1178 C1179 1.388 . S
C1179 H1150 0.930 . S
C1179 C1174 1.391 . S
C1179 N1178 1.388 . S
Co1180 O1182 2.143 . S
Co1180 O1188 2.074 . S
Co1180 O1191 2.093 . S
Co1180 O1204 2.097 . S
Co1180 N1221 2.151 . S
Co1180 N1229 2.214 . S
Co1181 O1182 2.160 . S
Co1181 O1187 2.058 . S
Co1181 O1197 2.057 . S
Co1181 O1212 2.037 . S
Co1181 N1216 2.145 . S
Co1181 N1237 2.257 . S
O1182 Co1180 2.143 . S
O1182 Co1181 2.160 . S
C1183 O1184 1.278 . S
C1183 O1191 1.224 . S
O1184 C1183 1.278 . S
C1185 O1186 1.245 . S
C1185 O1197 1.232 . S
O1186 C1185 1.245 . S
O1187 Co1181 2.058 . S
O1187 C1213 1.269 . S
O1188 Co1180 2.074 . S
O1188 C1213 1.257 . S
H1189 C1214 0.930 . S
H1190 C1220 0.930 . S
O1191 Co1180 2.093 . S
O1191 C1183 1.224 . S
H1192 C1224 0.929 . S
H1193 C1226 0.930 . S
H1194 C1227 0.930 . S
H1195 C1225 0.929 . S
H1196 C1228 0.928 . S
O1197 Co1181 2.057 . S
O1197 C1185 1.232 . S
H1198 C1217 0.929 . S
H1199 C1218 0.929 . S
H1200 C1230 0.931 . S
H1201 C1222 0.929 . S
H1202 C1231 0.930 . S
H1203 C1223 0.931 . S
O1204 Co1180 2.097 . S
O1204 C1232 1.214 . S
H1205 C1233 0.929 . S
H1206 C1234 0.929 . S
H1207 C1235 0.930 . S
H1208 C1236 0.929 . S
H1209 C1238 0.930 . S
H1210 C1215 0.930 . S
H1211 C1219 0.930 . S
O1212 Co1181 2.037 . S
O1212 C1232 1.234 . S
C1213 O1187 1.269 . S
C1213 O1188 1.257 . S
C1214 H1189 0.930 . S
C1214 C1217 1.388 . S
C1214 C1219 1.418 . S
C1215 H1210 0.930 . S
C1215 C1218 1.404 . S
C1215 C1219 1.353 . S
N1216 Co1181 2.145 . S
N1216 C1217 1.397 . S
N1216 C1218 1.334 . S
C1217 H1198 0.929 . S
C1217 C1214 1.388 . S
C1217 N1216 1.397 . S
C1218 H1199 0.929 . S
C1218 C1215 1.404 . S
C1218 N1216 1.334 . S
C1219 H1211 0.930 . S
C1219 C1214 1.418 . S
C1219 C1215 1.353 . S
C1220 H1190 0.930 . S
C1220 N1221 1.330 . S
C1220 C1222 1.446 . S
N1221 Co1180 2.151 . S
N1221 C1220 1.330 . S
N1221 C1225 1.418 . S
C1222 H1201 0.929 . S
C1222 C1220 1.446 . S
C1222 C1223 1.332 . S
C1223 H1203 0.931 . S
C1223 C1222 1.332 . S
C1223 C1224 1.267 . S
C1224 H1192 0.929 . S
C1224 C1223 1.267 . S
C1224 C1225 1.251 . S
C1225 H1195 0.929 . S
C1225 N1221 1.418 . S
C1225 C1224 1.251 . S
C1226 H1193 0.930 . S
C1226 C1228 1.406 . S
C1226 C1231 1.261 . S
C1227 H1194 0.930 . S
C1227 N1229 1.325 . S
C1227 C1230 1.357 . S
C1228 H1196 0.928 . S
C1228 C1226 1.406 . S
C1228 N1229 1.261 . S
N1229 Co1180 2.214 . S
N1229 C1227 1.325 . S
N1229 C1228 1.261 . S
C1230 H1200 0.931 . S
C1230 C1227 1.357 . S
C1230 C1231 1.312 . S
C1231 H1202 0.930 . S
C1231 C1226 1.261 . S
C1231 C1230 1.312 . S
C1232 O1204 1.214 . S
C1232 O1212 1.234 . S
C1233 H1205 0.929 . S
C1233 C1236 1.391 . S
C1233 C1238 1.391 . S
C1234 H1206 0.929 . S
C1234 C1235 1.390 . S
C1234 N1237 1.391 . S
C1235 H1207 0.930 . S
C1235 C1234 1.390 . S
C1235 C1236 1.392 . S
C1236 H1208 0.929 . S
C1236 C1233 1.391 . S
C1236 C1235 1.392 . S
N1237 Co1181 2.257 . S
N1237 C1234 1.391 . S
N1237 C1238 1.388 . S
C1238 H1209 0.930 . S
C1238 C1233 1.391 . S
C1238 N1237 1.388 . S
Co1239 O1241 2.143 . S
Co1239 O1247 2.074 . S
Co1239 O1250 2.093 . S
Co1239 O1263 2.097 . S
Co1239 N1280 2.151 . S
Co1239 N1288 2.214 . S
Co1240 O1241 2.160 . S
Co1240 O1246 2.058 . S
Co1240 O1256 2.057 . S
Co1240 O1271 2.037 . S
Co1240 N1275 2.145 . S
Co1240 N1296 2.257 . S
O1241 Co1239 2.143 . S
O1241 Co1240 2.160 . S
C1242 O1243 1.278 . S
C1242 O1250 1.224 . S
O1243 C1242 1.278 . S
C1244 O1245 1.245 . S
C1244 O1256 1.232 . S
O1245 C1244 1.245 . S
O1246 Co1240 2.058 . S
O1246 C1272 1.269 . S
O1247 Co1239 2.074 . S
O1247 C1272 1.257 . S
H1248 C1273 0.930 . S
H1249 C1279 0.930 . S
O1250 Co1239 2.093 . S
O1250 C1242 1.224 . S
H1251 C1283 0.929 . S
H1252 C1285 0.930 . S
H1253 C1286 0.930 . S
H1254 C1284 0.929 . S
H1255 C1287 0.928 . S
O1256 Co1240 2.057 . S
O1256 C1244 1.232 . S
H1257 C1276 0.929 . S
H1258 C1277 0.929 . S
H1259 C1289 0.931 . S
H1260 C1281 0.929 . S
H1261 C1290 0.930 . S
H1262 C1282 0.931 . S
O1263 Co1239 2.097 . S
O1263 C1291 1.214 . S
H1264 C1292 0.929 . S
H1265 C1293 0.929 . S
H1266 C1294 0.930 . S
H1267 C1295 0.929 . S
H1268 C1297 0.930 . S
H1269 C1274 0.930 . S
H1270 C1278 0.930 . S
O1271 Co1240 2.037 . S
O1271 C1291 1.234 . S
C1272 O1246 1.269 . S
C1272 O1247 1.257 . S
C1273 H1248 0.930 . S
C1273 C1276 1.388 . S
C1273 C1278 1.418 . S
C1274 H1269 0.930 . S
C1274 C1277 1.404 . S
C1274 C1278 1.353 . S
N1275 Co1240 2.145 . S
N1275 C1276 1.397 . S
N1275 C1277 1.334 . S
C1276 H1257 0.929 . S
C1276 C1273 1.388 . S
C1276 N1275 1.397 . S
C1277 H1258 0.929 . S
C1277 C1274 1.404 . S
C1277 N1275 1.334 . S
C1278 H1270 0.930 . S
C1278 C1273 1.418 . S
C1278 C1274 1.353 . S
C1279 H1249 0.930 . S
C1279 N1280 1.330 . S
C1279 C1281 1.446 . S
N1280 Co1239 2.151 . S
N1280 C1279 1.330 . S
N1280 C1284 1.418 . S
C1281 H1260 0.929 . S
C1281 C1279 1.446 . S
C1281 C1282 1.332 . S
C1282 H1262 0.931 . S
C1282 C1281 1.332 . S
C1282 C1283 1.267 . S
C1283 H1251 0.929 . S
C1283 C1282 1.267 . S
C1283 C1284 1.251 . S
C1284 H1254 0.929 . S
C1284 N1280 1.418 . S
C1284 C1283 1.251 . S
C1285 H1252 0.930 . S
C1285 C1287 1.406 . S
C1285 C1290 1.261 . S
C1286 H1253 0.930 . S
C1286 N1288 1.325 . S
C1286 C1289 1.357 . S
C1287 H1255 0.928 . S
C1287 C1285 1.406 . S
C1287 N1288 1.261 . S
N1288 Co1239 2.214 . S
N1288 C1286 1.325 . S
N1288 C1287 1.261 . S
C1289 H1259 0.931 . S
C1289 C1286 1.357 . S
C1289 C1290 1.312 . S
C1290 H1261 0.930 . S
C1290 C1285 1.261 . S
C1290 C1289 1.312 . S
C1291 O1263 1.214 . S
C1291 O1271 1.234 . S
C1292 H1264 0.929 . S
C1292 C1295 1.391 . S
C1292 C1297 1.391 . S
C1293 H1265 0.929 . S
C1293 C1294 1.390 . S
C1293 N1296 1.391 . S
C1294 H1266 0.930 . S
C1294 C1293 1.390 . S
C1294 C1295 1.392 . S
C1295 H1267 0.929 . S
C1295 C1292 1.391 . S
C1295 C1294 1.392 . S
N1296 Co1240 2.257 . S
N1296 C1293 1.391 . S
N1296 C1297 1.388 . S
C1297 H1268 0.930 . S
C1297 C1292 1.391 . S
C1297 N1296 1.388 . S
Co1298 O1300 2.143 . S
Co1298 O1306 2.074 . S
Co1298 O1309 2.093 . S
Co1298 O1322 2.097 . S
Co1298 N1339 2.151 . S
Co1298 N1347 2.214 . S
Co1299 O1300 2.160 . S
Co1299 O1305 2.058 . S
Co1299 O1315 2.057 . S
Co1299 O1330 2.037 . S
Co1299 N1334 2.145 . S
Co1299 N1355 2.257 . S
O1300 Co1298 2.143 . S
O1300 Co1299 2.160 . S
C1301 O1302 1.278 . S
C1301 O1309 1.224 . S
O1302 C1301 1.278 . S
C1303 O1304 1.245 . S
C1303 O1315 1.232 . S
O1304 C1303 1.245 . S
O1305 Co1299 2.058 . S
O1305 C1331 1.269 . S
O1306 Co1298 2.074 . S
O1306 C1331 1.257 . S
H1307 C1332 0.930 . S
H1308 C1338 0.930 . S
O1309 Co1298 2.093 . S
O1309 C1301 1.224 . S
H1310 C1342 0.929 . S
H1311 C1344 0.930 . S
H1312 C1345 0.930 . S
H1313 C1343 0.929 . S
H1314 C1346 0.928 . S
O1315 Co1299 2.057 . S
O1315 C1303 1.232 . S
H1316 C1335 0.929 . S
H1317 C1336 0.929 . S
H1318 C1348 0.931 . S
H1319 C1340 0.929 . S
H1320 C1349 0.930 . S
H1321 C1341 0.931 . S
O1322 Co1298 2.097 . S
O1322 C1350 1.214 . S
H1323 C1351 0.929 . S
H1324 C1352 0.929 . S
H1325 C1353 0.930 . S
H1326 C1354 0.929 . S
H1327 C1356 0.930 . S
H1328 C1333 0.930 . S
H1329 C1337 0.930 . S
O1330 Co1299 2.037 . S
O1330 C1350 1.234 . S
C1331 O1305 1.269 . S
C1331 O1306 1.257 . S
C1332 H1307 0.930 . S
C1332 C1335 1.388 . S
C1332 C1337 1.418 . S
C1333 H1328 0.930 . S
C1333 C1336 1.404 . S
C1333 C1337 1.353 . S
N1334 Co1299 2.145 . S
N1334 C1335 1.397 . S
N1334 C1336 1.334 . S
C1335 H1316 0.929 . S
C1335 C1332 1.388 . S
C1335 N1334 1.397 . S
C1336 H1317 0.929 . S
C1336 C1333 1.404 . S
C1336 N1334 1.334 . S
C1337 H1329 0.930 . S
C1337 C1332 1.418 . S
C1337 C1333 1.353 . S
C1338 H1308 0.930 . S
C1338 N1339 1.330 . S
C1338 C1340 1.446 . S
N1339 Co1298 2.151 . S
N1339 C1338 1.330 . S
N1339 C1343 1.418 . S
C1340 H1319 0.929 . S
C1340 C1338 1.446 . S
C1340 C1341 1.332 . S
C1341 H1321 0.931 . S
C1341 C1340 1.332 . S
C1341 C1342 1.267 . S
C1342 H1310 0.929 . S
C1342 C1341 1.267 . S
C1342 C1343 1.251 . S
C1343 H1313 0.929 . S
C1343 N1339 1.418 . S
C1343 C1342 1.251 . S
C1344 H1311 0.930 . S
C1344 C1346 1.406 . S
C1344 C1349 1.261 . S
C1345 H1312 0.930 . S
C1345 N1347 1.325 . S
C1345 C1348 1.357 . S
C1346 H1314 0.928 . S
C1346 C1344 1.406 . S
C1346 N1347 1.261 . S
N1347 Co1298 2.214 . S
N1347 C1345 1.325 . S
N1347 C1346 1.261 . S
C1348 H1318 0.931 . S
C1348 C1345 1.357 . S
C1348 C1349 1.312 . S
C1349 H1320 0.930 . S
C1349 C1344 1.261 . S
C1349 C1348 1.312 . S
C1350 O1322 1.214 . S
C1350 O1330 1.234 . S
C1351 H1323 0.929 . S
C1351 C1354 1.391 . S
C1351 C1356 1.391 . S
C1352 H1324 0.929 . S
C1352 C1353 1.390 . S
C1352 N1355 1.391 . S
C1353 H1325 0.930 . S
C1353 C1352 1.390 . S
C1353 C1354 1.392 . S
C1354 H1326 0.929 . S
C1354 C1351 1.391 . S
C1354 C1353 1.392 . S
N1355 Co1299 2.257 . S
N1355 C1352 1.391 . S
N1355 C1356 1.388 . S
C1356 H1327 0.930 . S
C1356 C1351 1.391 . S
C1356 N1355 1.388 . S
Co1357 O1359 2.143 . S
Co1357 O1365 2.074 . S
Co1357 O1368 2.093 . S
Co1357 O1381 2.097 . S
Co1357 N1398 2.151 . S
Co1357 N1406 2.214 . S
Co1358 O1359 2.160 . S
Co1358 O1364 2.058 . S
Co1358 O1374 2.057 . S
Co1358 O1389 2.037 . S
Co1358 N1393 2.145 . S
Co1358 N1414 2.257 . S
O1359 Co1357 2.143 . S
O1359 Co1358 2.160 . S
C1360 O1361 1.278 . S
C1360 O1368 1.224 . S
O1361 C1360 1.278 . S
C1362 O1363 1.245 . S
C1362 O1374 1.232 . S
O1363 C1362 1.245 . S
O1364 Co1358 2.058 . S
O1364 C1390 1.269 . S
O1365 Co1357 2.074 . S
O1365 C1390 1.257 . S
H1366 C1391 0.930 . S
H1367 C1397 0.930 . S
O1368 Co1357 2.093 . S
O1368 C1360 1.224 . S
H1369 C1401 0.929 . S
H1370 C1403 0.930 . S
H1371 C1404 0.930 . S
H1372 C1402 0.929 . S
H1373 C1405 0.928 . S
O1374 Co1358 2.057 . S
O1374 C1362 1.232 . S
H1375 C1394 0.929 . S
H1376 C1395 0.929 . S
H1377 C1407 0.931 . S
H1378 C1399 0.929 . S
H1379 C1408 0.930 . S
H1380 C1400 0.931 . S
O1381 Co1357 2.097 . S
O1381 C1409 1.214 . S
H1382 C1410 0.929 . S
H1383 C1411 0.929 . S
H1384 C1412 0.930 . S
H1385 C1413 0.929 . S
H1386 C1415 0.930 . S
H1387 C1392 0.930 . S
H1388 C1396 0.930 . S
O1389 Co1358 2.037 . S
O1389 C1409 1.234 . S
C1390 O1364 1.269 . S
C1390 O1365 1.257 . S
C1391 H1366 0.930 . S
C1391 C1394 1.388 . S
C1391 C1396 1.418 . S
C1392 H1387 0.930 . S
C1392 C1395 1.404 . S
C1392 C1396 1.353 . S
N1393 Co1358 2.145 . S
N1393 C1394 1.397 . S
N1393 C1395 1.334 . S
C1394 H1375 0.929 . S
C1394 C1391 1.388 . S
C1394 N1393 1.397 . S
C1395 H1376 0.929 . S
C1395 C1392 1.404 . S
C1395 N1393 1.334 . S
C1396 H1388 0.930 . S
C1396 C1391 1.418 . S
C1396 C1392 1.353 . S
C1397 H1367 0.930 . S
C1397 N1398 1.330 . S
C1397 C1399 1.446 . S
N1398 Co1357 2.151 . S
N1398 C1397 1.330 . S
N1398 C1402 1.418 . S
C1399 H1378 0.929 . S
C1399 C1397 1.446 . S
C1399 C1400 1.332 . S
C1400 H1380 0.931 . S
C1400 C1399 1.332 . S
C1400 C1401 1.267 . S
C1401 H1369 0.929 . S
C1401 C1400 1.267 . S
C1401 C1402 1.251 . S
C1402 H1372 0.929 . S
C1402 N1398 1.418 . S
C1402 C1401 1.251 . S
C1403 H1370 0.930 . S
C1403 C1405 1.406 . S
C1403 C1408 1.261 . S
C1404 H1371 0.930 . S
C1404 N1406 1.325 . S
C1404 C1407 1.357 . S
C1405 H1373 0.928 . S
C1405 C1403 1.406 . S
C1405 N1406 1.261 . S
N1406 Co1357 2.214 . S
N1406 C1404 1.325 . S
N1406 C1405 1.261 . S
C1407 H1377 0.931 . S
C1407 C1404 1.357 . S
C1407 C1408 1.312 . S
C1408 H1379 0.930 . S
C1408 C1403 1.261 . S
C1408 C1407 1.312 . S
C1409 O1381 1.214 . S
C1409 O1389 1.234 . S
C1410 H1382 0.929 . S
C1410 C1413 1.391 . S
C1410 C1415 1.391 . S
C1411 H1383 0.929 . S
C1411 C1412 1.390 . S
C1411 N1414 1.391 . S
C1412 H1384 0.930 . S
C1412 C1411 1.390 . S
C1412 C1413 1.392 . S
C1413 H1385 0.929 . S
C1413 C1410 1.391 . S
C1413 C1412 1.392 . S
N1414 Co1358 2.257 . S
N1414 C1411 1.391 . S
N1414 C1415 1.388 . S
C1415 H1386 0.930 . S
C1415 C1410 1.391 . S
C1415 N1414 1.388 . S
C1416 C1417 1.369 . S
C1416 C1418 1.385 1_545 S
C1416 H1420 0.930 . S
C1417 C1416 1.369 . S
C1417 C1426 1.419 1_545 S
C1418 C1416 1.385 1_565 S
C1418 C1419 1.409 . S
C1418 H1421 0.923 . S
C1419 C1418 1.409 . S
C1419 C1425 1.428 . S
H1420 C1416 0.930 . S
H1421 C1418 0.923 . S
S1422 N1423 1.613 . S
S1422 N1424 1.610 . S
N1423 S1422 1.613 . S
N1423 C1426 1.353 . S
N1424 S1422 1.610 . S
N1424 C1425 1.351 . S
C1425 C1419 1.428 . S
C1425 N1424 1.351 . S
C1425 C1426 1.441 . S
C1426 C1417 1.419 1_565 S
C1426 N1423 1.353 . S
C1426 C1425 1.441 . S
C1427 C1428 1.369 . S
C1427 C1429 1.419 . S
C1427 H1431 0.930 . S
C1428 C1427 1.369 . S
C1428 C1437 1.429 . S
C1429 C1427 1.419 . S
C1429 C1430 1.363 . S
C1429 H1432 0.929 . S
C1430 C1429 1.363 . S
C1430 C1436 1.428 . S
H1431 C1427 0.930 . S
H1432 C1429 0.929 . S
S1433 N1434 1.613 . S
S1433 N1435 1.610 . S
N1434 S1433 1.613 . S
N1434 C1437 1.350 . S
N1435 S1433 1.610 . S
N1435 C1436 1.351 . S
C1436 C1430 1.428 . S
C1436 N1435 1.351 . S
C1436 C1437 1.434 . S
C1437 C1428 1.429 . S
C1437 N1434 1.350 . S
C1437 C1436 1.434 . S
C1438 C1439 1.369 . S
C1438 C1440 1.419 1_655 S
C1438 H1442 0.930 . S
C1439 C1438 1.369 . S
C1439 C1448 1.429 . S
C1440 C1438 1.419 1_455 S
C1440 C1441 1.363 . S
C1440 H1443 0.929 . S
C1441 C1440 1.363 . S
C1441 C1447 1.428 . S
H1442 C1438 0.930 . S
H1443 C1440 0.929 . S
S1444 N1445 1.613 . S
S1444 N1446 1.610 1_655 S
N1445 S1444 1.613 . S
N1445 C1448 1.350 . S
N1446 S1444 1.610 1_455 S
N1446 C1447 1.351 . S
C1447 C1441 1.428 . S
C1447 N1446 1.351 . S
C1447 C1448 1.434 1_455 S
C1448 C1439 1.429 . S
C1448 N1445 1.350 . S
C1448 C1447 1.434 1_655 S
C1449 C1450 1.363 1_545 S
C1449 C1451 1.426 . S
C1449 H1453 0.929 . S
C1450 C1449 1.363 1_565 S
C1450 C1459 1.429 . S
C1451 C1449 1.426 . S
C1451 C1452 1.363 . S
C1451 H1454 0.929 . S
C1452 C1451 1.363 . S
C1452 C1458 1.428 1_545 S
H1453 C1449 0.929 . S
H1454 C1451 0.929 . S
S1455 N1456 1.613 . S
S1455 N1457 1.610 . S
N1456 S1455 1.613 . S
N1456 C1459 1.350 . S
N1457 S1455 1.610 . S
N1457 C1458 1.351 . S
C1458 C1452 1.428 1_565 S
C1458 N1457 1.351 . S
C1458 C1459 1.434 . S
C1459 C1450 1.429 . S
C1459 N1456 1.350 . S
C1459 C1458 1.434 . S
C1460 C1461 1.369 . S
C1460 C1462 1.419 . S
C1460 H1464 0.930 . S
C1461 C1460 1.369 . S
C1461 C1470 1.429 . S
C1462 C1460 1.419 . S
C1462 C1463 1.363 . S
C1462 H1465 0.929 . S
C1463 C1462 1.363 . S
C1463 C1469 1.428 . S
H1464 C1460 0.930 . S
H1465 C1462 0.929 . S
S1466 N1467 1.613 . S
S1466 N1468 1.610 . S
N1467 S1466 1.613 . S
N1467 C1470 1.350 . S
N1468 S1466 1.610 . S
N1468 C1469 1.351 . S
C1469 C1463 1.428 . S
C1469 N1468 1.351 . S
C1469 C1470 1.434 . S
C1470 C1461 1.429 . S
C1470 N1467 1.350 . S
C1470 C1469 1.434 . S
C1471 C1472 1.332 1_655 S
C1471 C1473 1.452 . S
C1471 H1475 0.935 . S
C1472 C1471 1.332 1_455 S
C1472 C1481 1.429 . S
C1473 C1471 1.452 . S
C1473 C1474 1.363 . S
C1473 H1476 0.929 . S
C1474 C1473 1.363 . S
C1474 C1480 1.428 1_655 S
H1475 C1471 0.935 . S
H1476 C1473 0.929 . S
S1477 N1478 1.613 . S
S1477 N1479 1.610 . S
N1478 S1477 1.613 . S
N1478 C1481 1.350 . S
N1479 S1477 1.610 . S
N1479 C1480 1.351 . S
C1480 C1474 1.428 1_455 S
C1480 N1479 1.351 . S
C1480 C1481 1.434 . S
C1481 C1472 1.429 . S
C1481 N1478 1.350 . S
C1481 C1480 1.434 . S
C1482 C1483 1.369 . S
C1482 C1484 1.419 1_565 S
C1482 H1486 0.930 . S
C1483 C1482 1.369 . S
C1483 C1492 1.429 . S
C1484 C1482 1.419 1_545 S
C1484 C1485 1.363 . S
C1484 H1487 0.929 . S
C1485 C1484 1.363 . S
C1485 C1491 1.428 . S
H1486 C1482 0.930 . S
H1487 C1484 0.929 . S
S1488 N1489 1.625 . S
S1488 N1490 1.570 1_565 S
N1489 S1488 1.625 . S
N1489 C1492 1.350 . S
N1490 S1488 1.570 1_545 S
N1490 C1491 1.351 . S
C1491 C1485 1.428 . S
C1491 N1490 1.351 . S
C1491 C1492 1.434 1_545 S
C1492 C1483 1.429 . S
C1492 N1489 1.350 . S
C1492 C1491 1.434 1_565 S
C1493 C1494 1.369 . S
C1493 C1495 1.419 . S
C1493 H1497 0.930 . S
C1494 C1493 1.369 . S
C1494 C1503 1.429 . S
C1495 C1493 1.419 . S
C1495 C1496 1.363 . S
C1495 H1498 0.929 . S
C1496 C1495 1.363 . S
C1496 C1502 1.428 . S
H1497 C1493 0.930 . S
H1498 C1495 0.929 . S
S1499 N1500 1.613 . S
S1499 N1501 1.610 . S
N1500 S1499 1.613 . S
N1500 C1503 1.350 . S
N1501 S1499 1.610 . S
N1501 C1502 1.351 . S
C1502 C1496 1.428 . S
C1502 N1501 1.351 . S
C1502 C1503 1.434 . S
C1503 C1494 1.429 . S
C1503 N1500 1.350 . S
C1503 C1502 1.434 . S
C1504 C1505 1.369 . S
C1504 C1506 1.419 1_655 S
C1504 H1508 0.930 . S
C1505 C1504 1.369 . S
C1505 C1514 1.429 . S
C1506 C1504 1.419 1_455 S
C1506 C1507 1.363 . S
C1506 H1509 0.929 . S
C1507 C1506 1.363 . S
C1507 C1513 1.428 . S
H1508 C1504 0.930 . S
H1509 C1506 0.929 . S
S1510 N1511 1.613 . S
S1510 N1512 1.610 1_655 S
N1511 S1510 1.613 . S
N1511 C1514 1.350 . S
N1512 S1510 1.610 1_455 S
N1512 C1513 1.351 . S
C1513 C1507 1.428 . S
C1513 N1512 1.351 . S
C1513 C1514 1.434 1_455 S
C1514 C1505 1.429 . S
C1514 N1511 1.350 . S
C1514 C1513 1.434 1_655 S
C1515 C1516 1.369 . S
C1515 C1517 1.419 1_545 S
C1515 H1519 0.930 . S
C1516 C1515 1.369 . S
C1516 C1525 1.429 . S
C1517 C1515 1.419 1_565 S
C1517 C1518 1.363 . S
C1517 H1520 0.929 . S
C1518 C1517 1.363 . S
C1518 C1524 1.428 . S
H1519 C1515 0.930 . S
H1520 C1517 0.929 . S
S1521 N1522 1.613 1_565 S
S1521 N1523 1.610 . S
N1522 S1521 1.613 1_545 S
N1522 C1525 1.350 . S
N1523 S1521 1.610 . S
N1523 C1524 1.351 . S
C1524 C1518 1.428 . S
C1524 N1523 1.351 . S
C1524 C1525 1.434 1_565 S
C1525 C1516 1.429 . S
C1525 N1522 1.350 . S
C1525 C1524 1.434 1_545 S
C1526 C1527 1.369 . S
C1526 C1528 1.419 . S
C1526 H1530 0.930 . S
C1527 C1526 1.369 . S
C1527 C1536 1.429 . S
C1528 C1526 1.419 . S
C1528 C1529 1.363 . S
C1528 H1531 0.929 . S
C1529 C1528 1.363 . S
C1529 C1535 1.428 . S
H1530 C1526 0.930 . S
H1531 C1528 0.929 . S
S1532 N1533 1.613 . S
S1532 N1534 1.610 . S
N1533 S1532 1.613 . S
N1533 C1536 1.350 . S
N1534 S1532 1.610 . S
N1534 C1535 1.351 . S
C1535 C1529 1.428 . S
C1535 N1534 1.351 . S
C1535 C1536 1.434 . S
C1536 C1527 1.429 . S
C1536 N1533 1.350 . S
C1536 C1535 1.434 . S
C1537 C1538 1.369 . S
C1537 C1539 1.407 1_455 S
C1537 H1541 0.930 . S
C1538 C1537 1.369 . S
C1538 C1547 1.410 1_455 S
C1539 C1537 1.407 1_655 S
C1539 C1540 1.378 . S
C1539 H1542 0.920 1_655 S
C1540 C1539 1.378 . S
C1540 C1546 1.428 . S
H1541 C1537 0.930 . S
H1542 C1539 0.920 1_455 S
S1543 N1544 1.613 . S
S1543 N1545 1.610 . S
N1544 S1543 1.613 . S
N1544 C1547 1.357 . S
N1545 S1543 1.610 . S
N1545 C1546 1.351 . S
C1546 C1540 1.428 . S
C1546 N1545 1.351 . S
C1546 C1547 1.449 . S
C1547 C1538 1.410 1_655 S
C1547 N1544 1.357 . S
C1547 C1546 1.449 . S
C1548 C1549 1.369 . S
C1548 C1550 1.419 . S
C1548 H1552 0.930 . S
C1549 C1548 1.369 . S
C1549 C1558 1.429 . S
C1550 C1548 1.419 . S
C1550 C1551 1.363 . S
C1550 H1553 0.929 . S
C1551 C1550 1.363 . S
C1551 C1557 1.428 . S
H1552 C1548 0.930 . S
H1553 C1550 0.929 . S
S1554 N1555 1.613 . S
S1554 N1556 1.610 . S
N1555 S1554 1.613 . S
N1555 C1558 1.350 . S
N1556 S1554 1.610 . S
N1556 C1557 1.351 . S
C1557 C1551 1.428 . S
C1557 N1556 1.351 . S
C1557 C1558 1.434 . S
C1558 C1549 1.429 . S
C1558 N1555 1.350 . S
C1558 C1557 1.434 . S
C1559 C1560 1.369 . S
C1559 C1561 1.419 . S
C1559 H1563 0.930 . S
C1560 C1559 1.369 . S
C1560 C1569 1.429 . S
C1561 C1559 1.419 . S
C1561 C1562 1.363 . S
C1561 H1564 0.929 . S
C1562 C1561 1.363 . S
C1562 C1568 1.428 . S
H1563 C1559 0.930 . S
H1564 C1561 0.929 . S
S1565 N1566 1.613 . S
S1565 N1567 1.610 . S
N1566 S1565 1.613 . S
N1566 C1569 1.350 . S
N1567 S1565 1.610 . S
N1567 C1568 1.351 . S
C1568 C1562 1.428 . S
C1568 N1567 1.351 . S
C1568 C1569 1.434 . S
C1569 C1560 1.429 . S
C1569 N1566 1.350 . S
C1569 C1568 1.434 . S
C1570 C1571 1.369 . S
C1570 C1572 1.419 . S
C1570 H1574 0.930 . S
C1571 C1570 1.369 . S
C1571 C1580 1.429 . S
C1572 C1570 1.419 . S
C1572 C1573 1.363 . S
C1572 H1575 0.929 . S
C1573 C1572 1.363 . S
C1573 C1579 1.428 . S
H1574 C1570 0.930 . S
H1575 C1572 0.929 . S
S1576 N1577 1.613 . S
S1576 N1578 1.610 . S
N1577 S1576 1.613 . S
N1577 C1580 1.350 . S
N1578 S1576 1.610 . S
N1578 C1579 1.351 . S
C1579 C1573 1.428 . S
C1579 N1578 1.351 . S
C1579 C1580 1.434 . S
C1580 C1571 1.429 . S
C1580 N1577 1.350 . S
C1580 C1579 1.434 . S
C1581 C1582 1.369 . S
C1581 C1583 1.419 . S
C1581 H1585 0.930 . S
C1582 C1581 1.369 . S
C1582 C1591 1.429 . S
C1583 C1581 1.419 . S
C1583 C1584 1.363 . S
C1583 H1586 0.929 . S
C1584 C1583 1.363 . S
C1584 C1590 1.428 . S
H1585 C1581 0.930 . S
H1586 C1583 0.929 . S
S1587 N1588 1.613 . S
S1587 N1589 1.610 . S
N1588 S1587 1.613 . S
N1588 C1591 1.350 . S
N1589 S1587 1.610 . S
N1589 C1590 1.351 . S
C1590 C1584 1.428 . S
C1590 N1589 1.351 . S
C1590 C1591 1.434 . S
C1591 C1582 1.429 . S
C1591 N1588 1.350 . S
C1591 C1590 1.434 . S
C1592 C1593 1.369 . S
C1592 C1594 1.419 . S
C1592 H1596 0.930 . S
C1593 C1592 1.369 . S
C1593 C1602 1.429 . S
C1594 C1592 1.419 . S
C1594 C1595 1.363 . S
C1594 H1597 0.929 . S
C1595 C1594 1.363 . S
C1595 C1601 1.428 . S
H1596 C1592 0.930 . S
H1597 C1594 0.929 . S
S1598 N1599 1.613 . S
S1598 N1600 1.610 . S
N1599 S1598 1.613 . S
N1599 C1602 1.350 . S
N1600 S1598 1.610 . S
N1600 C1601 1.351 . S
C1601 C1595 1.428 . S
C1601 N1600 1.351 . S
C1601 C1602 1.434 . S
C1602 C1593 1.429 . S
C1602 N1599 1.350 . S
C1602 C1601 1.434 . S
C1603 C1604 1.369 . S
C1603 C1605 1.419 . S
C1603 H1607 0.930 . S
C1604 C1603 1.369 . S
C1604 C1613 1.429 . S
C1605 C1603 1.419 . S
C1605 C1606 1.363 . S
C1605 H1608 0.929 . S
C1606 C1605 1.363 . S
C1606 C1612 1.428 . S
H1607 C1603 0.930 . S
H1608 C1605 0.929 . S
S1609 N1610 1.613 . S
S1609 N1611 1.610 . S
N1610 S1609 1.613 . S
N1610 C1613 1.350 . S
N1611 S1609 1.610 . S
N1611 C1612 1.351 . S
C1612 C1606 1.428 . S
C1612 N1611 1.351 . S
C1612 C1613 1.434 . S
C1613 C1604 1.429 . S
C1613 N1610 1.350 . S
C1613 C1612 1.434 . S
C1614 C1615 1.369 . S
C1614 C1616 1.419 . S
C1614 H1618 0.930 . S
C1615 C1614 1.369 . S
C1615 C1624 1.429 . S
C1616 C1614 1.419 . S
C1616 C1617 1.363 . S
C1616 H1619 0.929 . S
C1617 C1616 1.363 . S
C1617 C1623 1.428 . S
H1618 C1614 0.930 . S
H1619 C1616 0.929 . S
S1620 N1621 1.613 . S
S1620 N1622 1.610 . S
N1621 S1620 1.613 . S
N1621 C1624 1.350 . S
N1622 S1620 1.610 . S
N1622 C1623 1.351 . S
C1623 C1617 1.428 . S
C1623 N1622 1.351 . S
C1623 C1624 1.434 . S
C1624 C1615 1.429 . S
C1624 N1621 1.350 . S
C1624 C1623 1.434 . S
C1625 C1626 1.369 . S
C1625 C1627 1.419 . S
C1625 H1629 0.930 . S
C1626 C1625 1.369 . S
C1626 C1635 1.429 . S
C1627 C1625 1.419 . S
C1627 C1628 1.363 . S
C1627 H1630 0.929 . S
C1628 C1627 1.363 . S
C1628 C1634 1.428 . S
H1629 C1625 0.930 . S
H1630 C1627 0.929 . S
S1631 N1632 1.613 . S
S1631 N1633 1.610 . S
N1632 S1631 1.613 . S
N1632 C1635 1.350 . S
N1633 S1631 1.610 . S
N1633 C1634 1.351 . S
C1634 C1628 1.428 . S
C1634 N1633 1.351 . S
C1634 C1635 1.434 . S
C1635 C1626 1.429 . S
C1635 N1632 1.350 . S
C1635 C1634 1.434 . S
C1636 C1637 1.369 . S
C1636 C1638 1.419 . S
C1636 H1640 0.930 . S
C1637 C1636 1.369 . S
C1637 C1646 1.429 . S
C1638 C1636 1.419 . S
C1638 C1639 1.363 . S
C1638 H1641 0.929 . S
C1639 C1638 1.363 . S
C1639 C1645 1.428 . S
H1640 C1636 0.930 . S
H1641 C1638 0.929 . S
S1642 N1643 1.613 . S
S1642 N1644 1.610 . S
N1643 S1642 1.613 . S
N1643 C1646 1.350 . S
N1644 S1642 1.610 . S
N1644 C1645 1.351 . S
C1645 C1639 1.428 . S
C1645 N1644 1.351 . S
C1645 C1646 1.434 . S
C1646 C1637 1.429 . S
C1646 N1643 1.350 . S
C1646 C1645 1.434 . S
C1647 C1648 1.369 . S
C1647 C1649 1.419 . S
C1647 H1651 0.930 . S
C1648 C1647 1.369 . S
C1648 C1657 1.429 . S
C1649 C1647 1.419 . S
C1649 C1650 1.363 . S
C1649 H1652 0.929 . S
C1650 C1649 1.363 . S
C1650 C1656 1.428 . S
H1651 C1647 0.930 . S
H1652 C1649 0.929 . S
S1653 N1654 1.613 . S
S1653 N1655 1.610 . S
N1654 S1653 1.613 . S
N1654 C1657 1.350 . S
N1655 S1653 1.610 . S
N1655 C1656 1.351 . S
C1656 C1650 1.428 . S
C1656 N1655 1.351 . S
C1656 C1657 1.434 . S
C1657 C1648 1.429 . S
C1657 N1654 1.350 . S
C1657 C1656 1.434 . S
C1658 C1659 1.369 . S
C1658 C1660 1.419 . S
C1658 H1662 0.930 . S
C1659 C1658 1.369 . S
C1659 C1668 1.429 . S
C1660 C1658 1.419 . S
C1660 C1661 1.363 . S
C1660 H1663 0.929 . S
C1661 C1660 1.363 . S
C1661 C1667 1.428 . S
H1662 C1658 0.930 . S
H1663 C1660 0.929 . S
S1664 N1665 1.613 . S
S1664 N1666 1.610 . S
N1665 S1664 1.613 . S
N1665 C1668 1.350 . S
N1666 S1664 1.610 . S
N1666 C1667 1.351 . S
C1667 C1661 1.428 . S
C1667 N1666 1.351 . S
C1667 C1668 1.434 . S
C1668 C1659 1.429 . S
C1668 N1665 1.350 . S
C1668 C1667 1.434 . S
C1669 C1670 1.369 . S
C1669 C1671 1.419 . S
C1669 H1673 0.930 . S
C1670 C1669 1.369 . S
C1670 C1679 1.429 . S
C1671 C1669 1.419 . S
C1671 C1672 1.363 . S
C1671 H1674 0.929 . S
C1672 C1671 1.363 . S
C1672 C1678 1.428 . S
H1673 C1669 0.930 . S
H1674 C1671 0.929 . S
S1675 N1676 1.613 . S
S1675 N1677 1.610 . S
N1676 S1675 1.613 . S
N1676 C1679 1.350 . S
N1677 S1675 1.610 . S
N1677 C1678 1.351 . S
C1678 C1672 1.428 . S
C1678 N1677 1.351 . S
C1678 C1679 1.434 . S
C1679 C1670 1.429 . S
C1679 N1676 1.350 . S
C1679 C1678 1.434 . S
C1680 C1681 1.369 . S
C1680 C1682 1.419 1_554 S
C1680 H1684 0.930 . S
C1681 C1680 1.369 . S
C1681 C1690 1.429 . S
C1682 C1680 1.419 1_556 S
C1682 C1683 1.363 . S
C1682 H1685 0.929 . S
C1683 C1682 1.363 . S
C1683 C1689 1.428 . S
H1684 C1680 0.930 . S
H1685 C1682 0.929 . S
S1686 N1687 1.615 1_556 S
S1686 N1688 1.608 . S
N1687 S1686 1.615 1_554 S
N1687 C1690 1.350 . S
N1688 S1686 1.608 . S
N1688 C1689 1.351 . S
C1689 C1683 1.428 . S
C1689 N1688 1.351 . S
C1689 C1690 1.434 1_556 S
C1690 C1681 1.429 . S
C1690 N1687 1.350 . S
C1690 C1689 1.434 1_554 S
C1691 C1692 1.369 . S
C1691 C1693 1.419 1_556 S
C1691 H1695 0.930 . S
C1692 C1691 1.369 . S
C1692 C1701 1.429 . S
C1693 C1691 1.419 1_554 S
C1693 C1694 1.363 . S
C1693 H1696 0.929 . S
C1694 C1693 1.363 . S
C1694 C1700 1.428 . S
H1695 C1691 0.930 . S
H1696 C1693 0.929 . S
S1697 N1698 1.615 1_554 S
S1697 N1699 1.608 . S
N1698 S1697 1.615 1_556 S
N1698 C1701 1.350 . S
N1699 S1697 1.608 . S
N1699 C1700 1.351 . S
C1700 C1694 1.428 . S
C1700 N1699 1.351 . S
C1700 C1701 1.434 1_554 S
C1701 C1692 1.429 . S
C1701 N1698 1.350 . S
C1701 C1700 1.434 1_556 S
C1702 C1703 1.369 . S
C1702 C1704 1.419 1_556 S
C1702 H1706 0.930 . S
C1703 C1702 1.369 . S
C1703 C1712 1.429 . S
C1704 C1702 1.419 1_554 S
C1704 C1705 1.363 . S
C1704 H1707 0.929 . S
C1705 C1704 1.363 . S
C1705 C1711 1.428 . S
H1706 C1702 0.930 . S
H1707 C1704 0.929 . S
S1708 N1709 1.615 1_554 S
S1708 N1710 1.608 . S
N1709 S1708 1.615 1_556 S
N1709 C1712 1.350 . S
N1710 S1708 1.608 . S
N1710 C1711 1.351 . S
C1711 C1705 1.428 . S
C1711 N1710 1.351 . S
C1711 C1712 1.434 1_554 S
C1712 C1703 1.429 . S
C1712 N1709 1.350 . S
C1712 C1711 1.434 1_556 S
C1713 C1714 1.369 . S
C1713 C1715 1.419 1_554 S
C1713 H1717 0.930 . S
C1714 C1713 1.369 . S
C1714 C1723 1.429 . S
C1715 C1713 1.419 1_556 S
C1715 C1716 1.363 . S
C1715 H1718 0.929 . S
C1716 C1715 1.363 . S
C1716 C1722 1.428 . S
H1717 C1713 0.930 . S
H1718 C1715 0.929 . S
S1719 N1720 1.615 1_556 S
S1719 N1721 1.608 . S
N1720 S1719 1.615 1_554 S
N1720 C1723 1.350 . S
N1721 S1719 1.608 . S
N1721 C1722 1.351 . S
C1722 C1716 1.428 . S
C1722 N1721 1.351 . S
C1722 C1723 1.434 1_556 S
C1723 C1714 1.429 . S
C1723 N1720 1.350 . S
C1723 C1722 1.434 1_554 S
C1724 C1725 1.369 . S
C1724 C1726 1.419 1_554 S
C1724 H1728 0.930 . S
C1725 C1724 1.369 . S
C1725 C1734 1.429 . S
C1726 C1724 1.419 1_556 S
C1726 C1727 1.363 . S
C1726 H1729 0.929 . S
C1727 C1726 1.363 . S
C1727 C1733 1.428 . S
H1728 C1724 0.930 . S
H1729 C1726 0.929 . S
S1730 N1731 1.615 1_556 S
S1730 N1732 1.608 . S
N1731 S1730 1.615 1_554 S
N1731 C1734 1.350 . S
N1732 S1730 1.608 . S
N1732 C1733 1.351 . S
C1733 C1727 1.428 . S
C1733 N1732 1.351 . S
C1733 C1734 1.434 1_556 S
C1734 C1725 1.429 . S
C1734 N1731 1.350 . S
C1734 C1733 1.434 1_554 S
C1735 C1736 1.369 . S
C1735 C1737 1.419 1_556 S
C1735 H1739 0.930 . S
C1736 C1735 1.369 . S
C1736 C1745 1.429 . S
C1737 C1735 1.419 1_554 S
C1737 C1738 1.363 . S
C1737 H1740 0.929 . S
C1738 C1737 1.363 . S
C1738 C1744 1.428 . S
H1739 C1735 0.930 . S
H1740 C1737 0.929 . S
S1741 N1742 1.615 1_554 S
S1741 N1743 1.608 . S
N1742 S1741 1.615 1_556 S
N1742 C1745 1.350 . S
N1743 S1741 1.608 . S
N1743 C1744 1.351 . S
C1744 C1738 1.428 . S
C1744 N1743 1.351 . S
C1744 C1745 1.434 1_554 S
C1745 C1736 1.429 . S
C1745 N1742 1.350 . S
C1745 C1744 1.434 1_556 S
C1746 C1747 1.369 . S
C1746 C1748 1.419 . S
C1746 H1750 0.930 . S
C1747 C1746 1.369 . S
C1747 C1756 1.429 . S
C1748 C1746 1.419 . S
C1748 C1749 1.363 . S
C1748 H1751 0.929 . S
C1749 C1748 1.363 . S
C1749 C1755 1.428 . S
H1750 C1746 0.930 . S
H1751 C1748 0.929 . S
S1752 N1753 1.613 . S
S1752 N1754 1.610 . S
N1753 S1752 1.613 . S
N1753 C1756 1.350 . S
N1754 S1752 1.610 . S
N1754 C1755 1.351 . S
C1755 C1749 1.428 . S
C1755 N1754 1.351 . S
C1755 C1756 1.434 . S
C1756 C1747 1.429 . S
C1756 N1753 1.350 . S
C1756 C1755 1.434 . S
C1757 C1758 1.369 . S
C1757 C1759 1.419 . S
C1757 H1761 0.930 . S
C1758 C1757 1.369 . S
C1758 C1767 1.429 . S
C1759 C1757 1.419 . S
C1759 C1760 1.363 . S
C1759 H1762 0.929 . S
C1760 C1759 1.363 . S
C1760 C1766 1.428 . S
H1761 C1757 0.930 . S
H1762 C1759 0.929 . S
S1763 N1764 1.613 . S
S1763 N1765 1.610 . S
N1764 S1763 1.613 . S
N1764 C1767 1.350 . S
N1765 S1763 1.610 . S
N1765 C1766 1.351 . S
C1766 C1760 1.428 . S
C1766 N1765 1.351 . S
C1766 C1767 1.434 . S
C1767 C1758 1.429 . S
C1767 N1764 1.350 . S
C1767 C1766 1.434 . S
C1768 C1769 1.369 . S
C1768 C1770 1.419 . S
C1768 H1772 0.930 . S
C1769 C1768 1.369 . S
C1769 C1778 1.429 . S
C1770 C1768 1.419 . S
C1770 C1771 1.363 . S
C1770 H1773 0.929 . S
C1771 C1770 1.363 . S
C1771 C1777 1.428 . S
H1772 C1768 0.930 . S
H1773 C1770 0.929 . S
S1774 N1775 1.613 . S
S1774 N1776 1.610 . S
N1775 S1774 1.613 . S
N1775 C1778 1.350 . S
N1776 S1774 1.610 . S
N1776 C1777 1.351 . S
C1777 C1771 1.428 . S
C1777 N1776 1.351 . S
C1777 C1778 1.434 . S
C1778 C1769 1.429 . S
C1778 N1775 1.350 . S
C1778 C1777 1.434 . S
C1779 C1780 1.369 . S
C1779 C1781 1.419 . S
C1779 H1783 0.930 . S
C1780 C1779 1.369 . S
C1780 C1789 1.429 . S
C1781 C1779 1.419 . S
C1781 C1782 1.363 . S
C1781 H1784 0.929 . S
C1782 C1781 1.363 . S
C1782 C1788 1.428 . S
H1783 C1779 0.930 . S
H1784 C1781 0.929 . S
S1785 N1786 1.613 . S
S1785 N1787 1.610 . S
N1786 S1785 1.613 . S
N1786 C1789 1.350 . S
N1787 S1785 1.610 . S
N1787 C1788 1.351 . S
C1788 C1782 1.428 . S
C1788 N1787 1.351 . S
C1788 C1789 1.434 . S
C1789 C1780 1.429 . S
C1789 N1786 1.350 . S
C1789 C1788 1.434 . S
C1790 C1791 1.369 . S
C1790 C1792 1.419 . S
C1790 H1794 0.930 . S
C1791 C1790 1.369 . S
C1791 C1800 1.429 . S
C1792 C1790 1.419 . S
C1792 C1793 1.363 . S
C1792 H1795 0.929 . S
C1793 C1792 1.363 . S
C1793 C1799 1.428 . S
H1794 C1790 0.930 . S
H1795 C1792 0.929 . S
S1796 N1797 1.613 . S
S1796 N1798 1.610 . S
N1797 S1796 1.613 . S
N1797 C1800 1.350 . S
N1798 S1796 1.610 . S
N1798 C1799 1.351 . S
C1799 C1793 1.428 . S
C1799 N1798 1.351 . S
C1799 C1800 1.434 . S
C1800 C1791 1.429 . S
C1800 N1797 1.350 . S
C1800 C1799 1.434 . S
C1801 C1802 1.369 . S
C1801 C1803 1.419 . S
C1801 H1805 0.930 . S
C1802 C1801 1.369 . S
C1802 C1811 1.429 . S
C1803 C1801 1.419 . S
C1803 C1804 1.363 . S
C1803 H1806 0.929 . S
C1804 C1803 1.363 . S
C1804 C1810 1.428 . S
H1805 C1801 0.930 . S
H1806 C1803 0.929 . S
S1807 N1808 1.613 . S
S1807 N1809 1.610 . S
N1808 S1807 1.613 . S
N1808 C1811 1.350 . S
N1809 S1807 1.610 . S
N1809 C1810 1.351 . S
C1810 C1804 1.428 . S
C1810 N1809 1.351 . S
C1810 C1811 1.434 . S
C1811 C1802 1.429 . S
C1811 N1808 1.350 . S
C1811 C1810 1.434 . S
C1812 C1813 1.369 . S
C1812 C1814 1.419 . S
C1812 H1816 0.930 . S
C1813 C1812 1.369 . S
C1813 C1822 1.429 . S
C1814 C1812 1.419 . S
C1814 C1815 1.363 . S
C1814 H1817 0.929 . S
C1815 C1814 1.363 . S
C1815 C1821 1.428 . S
H1816 C1812 0.930 . S
H1817 C1814 0.929 . S
S1818 N1819 1.613 . S
S1818 N1820 1.610 . S
N1819 S1818 1.613 . S
N1819 C1822 1.350 . S
N1820 S1818 1.610 . S
N1820 C1821 1.351 . S
C1821 C1815 1.428 . S
C1821 N1820 1.351 . S
C1821 C1822 1.434 . S
C1822 C1813 1.429 . S
C1822 N1819 1.350 . S
C1822 C1821 1.434 . S
C1823 C1824 1.369 . S
C1823 C1825 1.419 . S
C1823 H1827 0.930 . S
C1824 C1823 1.369 . S
C1824 C1833 1.429 . S
C1825 C1823 1.419 . S
C1825 C1826 1.363 . S
C1825 H1828 0.929 . S
C1826 C1825 1.363 . S
C1826 C1832 1.428 . S
H1827 C1823 0.930 . S
H1828 C1825 0.929 . S
S1829 N1830 1.613 . S
S1829 N1831 1.610 . S
N1830 S1829 1.613 . S
N1830 C1833 1.350 . S
N1831 S1829 1.610 . S
N1831 C1832 1.351 . S
C1832 C1826 1.428 . S
C1832 N1831 1.351 . S
C1832 C1833 1.434 . S
C1833 C1824 1.429 . S
C1833 N1830 1.350 . S
C1833 C1832 1.434 . S
C1834 C1835 1.369 . S
C1834 C1836 1.419 . S
C1834 H1838 0.930 . S
C1835 C1834 1.369 . S
C1835 C1844 1.429 . S
C1836 C1834 1.419 . S
C1836 C1837 1.363 . S
C1836 H1839 0.929 . S
C1837 C1836 1.363 . S
C1837 C1843 1.428 . S
H1838 C1834 0.930 . S
H1839 C1836 0.929 . S
S1840 N1841 1.613 . S
S1840 N1842 1.610 . S
N1841 S1840 1.613 . S
N1841 C1844 1.350 . S
N1842 S1840 1.610 . S
N1842 C1843 1.351 . S
C1843 C1837 1.428 . S
C1843 N1842 1.351 . S
C1843 C1844 1.434 . S
C1844 C1835 1.429 . S
C1844 N1841 1.350 . S
C1844 C1843 1.434 . S
C1845 C1846 1.369 . S
C1845 C1847 1.419 . S
C1845 H1849 0.930 . S
C1846 C1845 1.369 . S
C1846 C1855 1.429 . S
C1847 C1845 1.419 . S
C1847 C1848 1.363 . S
C1847 H1850 0.929 . S
C1848 C1847 1.363 . S
C1848 C1854 1.428 . S
H1849 C1845 0.930 . S
H1850 C1847 0.929 . S
S1851 N1852 1.613 . S
S1851 N1853 1.610 . S
N1852 S1851 1.613 . S
N1852 C1855 1.350 . S
N1853 S1851 1.610 . S
N1853 C1854 1.351 . S
C1854 C1848 1.428 . S
C1854 N1853 1.351 . S
C1854 C1855 1.434 . S
C1855 C1846 1.429 . S
C1855 N1852 1.350 . S
C1855 C1854 1.434 . S
C1856 C1857 1.369 . S
C1856 C1858 1.419 . S
C1856 H1860 0.930 . S
C1857 C1856 1.369 . S
C1857 C1866 1.429 . S
C1858 C1856 1.419 . S
C1858 C1859 1.363 . S
C1858 H1861 0.929 . S
C1859 C1858 1.363 . S
C1859 C1865 1.428 . S
H1860 C1856 0.930 . S
H1861 C1858 0.929 . S
S1862 N1863 1.613 . S
S1862 N1864 1.610 . S
N1863 S1862 1.613 . S
N1863 C1866 1.350 . S
N1864 S1862 1.610 . S
N1864 C1865 1.351 . S
C1865 C1859 1.428 . S
C1865 N1864 1.351 . S
C1865 C1866 1.434 . S
C1866 C1857 1.429 . S
C1866 N1863 1.350 . S
C1866 C1865 1.434 . S
C1867 C1868 1.369 . S
C1867 C1869 1.419 . S
C1867 H1871 0.930 . S
C1868 C1867 1.369 . S
C1868 C1877 1.429 . S
C1869 C1867 1.419 . S
C1869 C1870 1.363 . S
C1869 H1872 0.929 . S
C1870 C1869 1.363 . S
C1870 C1876 1.428 . S
H1871 C1867 0.930 . S
H1872 C1869 0.929 . S
S1873 N1874 1.613 . S
S1873 N1875 1.610 . S
N1874 S1873 1.613 . S
N1874 C1877 1.350 . S
N1875 S1873 1.610 . S
N1875 C1876 1.351 . S
C1876 C1870 1.428 . S
C1876 N1875 1.351 . S
C1876 C1877 1.434 . S
C1877 C1868 1.429 . S
C1877 N1874 1.350 . S
C1877 C1876 1.434 . S
C1878 C1879 1.369 . S
C1878 C1880 1.419 . S
C1878 H1882 0.930 . S
C1879 C1878 1.369 . S
C1879 C1888 1.429 . S
C1880 C1878 1.419 . S
C1880 C1881 1.363 . S
C1880 H1883 0.929 . S
C1881 C1880 1.363 . S
C1881 C1887 1.428 . S
H1882 C1878 0.930 . S
H1883 C1880 0.929 . S
S1884 N1885 1.613 . S
S1884 N1886 1.610 . S
N1885 S1884 1.613 . S
N1885 C1888 1.350 . S
N1886 S1884 1.610 . S
N1886 C1887 1.351 . S
C1887 C1881 1.428 . S
C1887 N1886 1.351 . S
C1887 C1888 1.434 . S
C1888 C1879 1.429 . S
C1888 N1885 1.350 . S
C1888 C1887 1.434 . S
C1889 C1890 1.369 . S
C1889 C1891 1.419 . S
C1889 H1893 0.930 . S
C1890 C1889 1.369 . S
C1890 C1899 1.429 . S
C1891 C1889 1.419 . S
C1891 C1892 1.363 . S
C1891 H1894 0.929 . S
C1892 C1891 1.363 . S
C1892 C1898 1.428 . S
H1893 C1889 0.930 . S
H1894 C1891 0.929 . S
S1895 N1896 1.613 . S
S1895 N1897 1.610 . S
N1896 S1895 1.613 . S
N1896 C1899 1.350 . S
N1897 S1895 1.610 . S
N1897 C1898 1.351 . S
C1898 C1892 1.428 . S
C1898 N1897 1.351 . S
C1898 C1899 1.434 . S
C1899 C1890 1.429 . S
C1899 N1896 1.350 . S
C1899 C1898 1.434 . S
C1900 C1901 1.369 . S
C1900 C1902 1.419 . S
C1900 H1904 0.930 . S
C1901 C1900 1.369 . S
C1901 C1910 1.429 . S
C1902 C1900 1.419 . S
C1902 C1903 1.363 . S
C1902 H1905 0.929 . S
C1903 C1902 1.363 . S
C1903 C1909 1.428 . S
H1904 C1900 0.930 . S
H1905 C1902 0.929 . S
S1906 N1907 1.613 . S
S1906 N1908 1.610 . S
N1907 S1906 1.613 . S
N1907 C1910 1.350 . S
N1908 S1906 1.610 . S
N1908 C1909 1.351 . S
C1909 C1903 1.428 . S
C1909 N1908 1.351 . S
C1909 C1910 1.434 . S
C1910 C1901 1.429 . S
C1910 N1907 1.350 . S
C1910 C1909 1.434 . S
C1911 C1912 1.369 . S
C1911 C1913 1.419 . S
C1911 H1915 0.930 . S
C1912 C1911 1.369 . S
C1912 C1921 1.429 . S
C1913 C1911 1.419 . S
C1913 C1914 1.363 . S
C1913 H1916 0.929 . S
C1914 C1913 1.363 . S
C1914 C1920 1.428 . S
H1915 C1911 0.930 . S
H1916 C1913 0.929 . S
S1917 N1918 1.613 . S
S1917 N1919 1.610 . S
N1918 S1917 1.613 . S
N1918 C1921 1.350 . S
N1919 S1917 1.610 . S
N1919 C1920 1.351 . S
C1920 C1914 1.428 . S
C1920 N1919 1.351 . S
C1920 C1921 1.434 . S
C1921 C1912 1.429 . S
C1921 N1918 1.350 . S
C1921 C1920 1.434 . S
C1922 C1923 1.369 . S
C1922 C1924 1.419 . S
C1922 H1926 0.930 . S
C1923 C1922 1.369 . S
C1923 C1932 1.429 . S
C1924 C1922 1.419 . S
C1924 C1925 1.363 . S
C1924 H1927 0.929 . S
C1925 C1924 1.363 . S
C1925 C1931 1.428 . S
H1926 C1922 0.930 . S
H1927 C1924 0.929 . S
S1928 N1929 1.613 . S
S1928 N1930 1.610 . S
N1929 S1928 1.613 . S
N1929 C1932 1.350 . S
N1930 S1928 1.610 . S
N1930 C1931 1.351 . S
C1931 C1925 1.428 . S
C1931 N1930 1.351 . S
C1931 C1932 1.434 . S
C1932 C1923 1.429 . S
C1932 N1929 1.350 . S
C1932 C1931 1.434 . S
C1933 C1934 1.369 . S
C1933 C1935 1.419 . S
C1933 H1937 0.930 . S
C1934 C1933 1.369 . S
C1934 C1943 1.429 . S
C1935 C1933 1.419 . S
C1935 C1936 1.363 . S
C1935 H1938 0.929 . S
C1936 C1935 1.363 . S
C1936 C1942 1.428 . S
H1937 C1933 0.930 . S
H1938 C1935 0.929 . S
S1939 N1940 1.613 . S
S1939 N1941 1.610 . S
N1940 S1939 1.613 . S
N1940 C1943 1.350 . S
N1941 S1939 1.610 . S
N1941 C1942 1.351 . S
C1942 C1936 1.428 . S
C1942 N1941 1.351 . S
C1942 C1943 1.434 . S
C1943 C1934 1.429 . S
C1943 N1940 1.350 . S
C1943 C1942 1.434 . S
C1417 C52 1.749 . S
C1419 C465 1.745 . S
C1428 C524 1.745 . S
C1430 C111 1.749 . S
C1439 C170 1.745 . S
C1441 C583 1.748 . S
C1450 C229 1.745 . S
C1452 C642 1.748 . S
C1461 C701 1.747 . S
C1463 C288 1.748 . S
C1472 C347 1.745 . S
C1474 C406 1.749 . S
C1483 C760 1.748 . S
C1485 C1173 1.746 . S
C1494 C819 1.746 . S
C1496 C1232 1.748 . S
C1505 C1291 1.747 . S
C1507 C878 1.747 . S
C1516 C937 1.749 . S
C1518 C1350 1.746 . S
C1527 C996 1.745 . S
C1529 C1409 1.748 . S
C1538 C1114 1.749 . S
C1540 C1055 1.746 . S
C1549 C5 1.558 . S
C1551 C477 1.555 . S
C1560 C536 1.555 . S
C1562 C64 1.556 . S
C1571 C595 1.557 . S
C1573 C123 1.555 . S
C1582 C182 1.558 . S
C1584 C654 1.555 . S
C1593 C241 1.555 . S
C1595 C359 1.557 . S
C1604 C300 1.556 . S
C1606 C418 1.556 . S
C1615 C1185 1.555 . S
C1617 C713 1.557 . S
C1626 C772 1.557 . S
C1628 C1244 1.555 . S
C1637 C1303 1.557 . S
C1639 C831 1.555 . S
C1648 C1362 1.556 . S
C1650 C890 1.556 . S
C1659 C1067 1.556 . S
C1661 C949 1.556 . S
C1670 C1008 1.555 . S
C1672 C1126 1.557 . S
C1681 C3 1.629 . S
C1683 C888 1.630 . S
C1692 C947 1.630 . S
C1694 C62 1.630 . S
C1703 C1006 1.628 . S
C1705 C121 1.628 . S
C1714 C180 1.629 . S
C1716 C711 1.629 . S
C1725 C239 1.629 . S
C1727 C770 1.629 . S
C1736 C829 1.632 . S
C1738 C298 1.632 . S
C1747 C1242 1.628 . S
C1749 C357 1.629 . S
C1758 C1301 1.632 . S
C1760 C416 1.632 . S
C1769 C1360 1.632 . S
C1771 C475 1.632 . S
C1780 C1065 1.629 . S
C1782 C534 1.629 . S
C1791 C593 1.631 . S
C1793 C1124 1.631 . S
C1802 C652 1.628 . S
C1804 C1183 1.628 . S
C1813 C33 1.538 . S
C1815 C623 1.533 . S
C1824 C682 1.531 . S
C1826 C92 1.538 . S
C1835 C387 1.532 . S
C1837 C151 1.538 . S
C1846 C210 1.538 . S
C1848 C446 1.534 . S
C1857 C269 1.536 . S
C1859 C505 1.533 . S
C1868 C328 1.539 . S
C1870 C564 1.532 . S
C1879 C741 1.536 . S
C1881 C1331 1.535 . S
C1890 C800 1.533 . S
C1892 C1390 1.535 . S
C1901 C859 1.535 . S
C1903 C1095 1.536 . S
C1912 C1154 1.538 . S
C1914 C918 1.534 . S
C1923 C977 1.531 . S
C1925 C1213 1.538 . S
C1934 C1036 1.539 . S
C1936 C1272 1.532 . S
