# Generated by pormake.
# Topology unf, (4)-cn, num edge types: 1
# Building blocks:
#     Node 0, Type 0, BuildingBlock: AZAVOO_clean_sbu_0, # of connection points: 4
#     Node 1, Type 0, BuildingBlock: AZAVOO_clean_sbu_0, # of connection points: 4
#     Node 2, Type 0, BuildingBlock: AZAVOO_clean_sbu_0, # of connection points: 4
#     Node 3, Type 0, BuildingBlock: AZAVOO_clean_sbu_0, # of connection points: 4
#     Node 4, Type 0, BuildingBlock: AZAVOO_clean_sbu_0, # of connection points: 4
#     Node 5, Type 0, BuildingBlock: AZAVOO_clean_sbu_0, # of connection points: 4
#     Node 6, Type 0, BuildingBlock: AZAVOO_clean_sbu_0, # of connection points: 4
#     Node 7, Type 0, BuildingBlock: AZAVOO_clean_sbu_0, # of connection points: 4
#     Node 8, Type 0, BuildingBlock: AZAVOO_clean_sbu_0, # of connection points: 4
#     Node 9, Type 0, BuildingBlock: AZAVOO_clean_sbu_0, # of connection points: 4
#     Node 10, Type 0, BuildingBlock: AZAVOO_clean_sbu_0, # of connection points: 4
#     Node 11, Type 0, BuildingBlock: AZAVOO_clean_sbu_0, # of connection points: 4
#     Edge 12, Type (0, 0), BuildingBlock: CIFDUS_clean_linker_0, # of connection points: 2
#     Edge 13, Type (0, 0), BuildingBlock: CIFDUS_clean_linker_0, # of connection points: 2
#     Edge 14, Type (0, 0), BuildingBlock: CIFDUS_clean_linker_0, # of connection points: 2
#     Edge 15, Type (0, 0), BuildingBlock: CIFDUS_clean_linker_0, # of connection points: 2
#     Edge 16, Type (0, 0), BuildingBlock: CIFDUS_clean_linker_0, # of connection points: 2
#     Edge 17, Type (0, 0), BuildingBlock: CIFDUS_clean_linker_0, # of connection points: 2
#     Edge 18, Type (0, 0), BuildingBlock: CIFDUS_clean_linker_0, # of connection points: 2
#     Edge 19, Type (0, 0), BuildingBlock: CIFDUS_clean_linker_0, # of connection points: 2
#     Edge 20, Type (0, 0), BuildingBlock: CIFDUS_clean_linker_0, # of connection points: 2
#     Edge 21, Type (0, 0), BuildingBlock: CIFDUS_clean_linker_0, # of connection points: 2
#     Edge 22, Type (0, 0), BuildingBlock: CIFDUS_clean_linker_0, # of connection points: 2
#     Edge 23, Type (0, 0), BuildingBlock: CIFDUS_clean_linker_0, # of connection points: 2
#     Edge 24, Type (0, 0), BuildingBlock: CIFDUS_clean_linker_0, # of connection points: 2
#     Edge 25, Type (0, 0), BuildingBlock: CIFDUS_clean_linker_0, # of connection points: 2
#     Edge 26, Type (0, 0), BuildingBlock: CIFDUS_clean_linker_0, # of connection points: 2
#     Edge 27, Type (0, 0), BuildingBlock: CIFDUS_clean_linker_0, # of connection points: 2
#     Edge 28, Type (0, 0), BuildingBlock: CIFDUS_clean_linker_0, # of connection points: 2
#     Edge 29, Type (0, 0), BuildingBlock: CIFDUS_clean_linker_0, # of connection points: 2
#     Edge 30, Type (0, 0), BuildingBlock: CIFDUS_clean_linker_0, # of connection points: 2
#     Edge 31, Type (0, 0), BuildingBlock: CIFDUS_clean_linker_0, # of connection points: 2
#     Edge 32, Type (0, 0), BuildingBlock: CIFDUS_clean_linker_0, # of connection points: 2
#     Edge 33, Type (0, 0), BuildingBlock: CIFDUS_clean_linker_0, # of connection points: 2
#     Edge 34, Type (0, 0), BuildingBlock: CIFDUS_clean_linker_0, # of connection points: 2
#     Edge 35, Type (0, 0), BuildingBlock: CIFDUS_clean_linker_0, # of connection points: 2
# Relax obj value: 0.248
# Max RMSD: 0.198
# Mean RMSD: 0.198
data_MOF--net-unf--node1-AZAVOO_clean_sbu_0--edge1-CIFDUS_clean_linker_0
_symmetry_space_group_name_H-M    P1
_symmetry_Int_Tables_number       1
_symmetry_cell_setting            triclinic
loop_
_symmetry_equiv_pos_as_xyz
'x, y, z'
_cell_length_a     32.419167
_cell_length_b     32.514514
_cell_length_c     33.574809
_cell_angle_alpha  90.67068
_cell_angle_beta   90.399415
_cell_angle_gamma 120.13774
loop_
_atom_site_label
_atom_site_type_symbol
_atom_site_fract_x
_atom_site_fract_y
_atom_site_fract_z
_atom_type_partial_charge
Mg0 Mg 0.12787 0.3805 0.00022 0.0
O1 O 0.05788 0.31033 0.00233 0.0
O2 O 0.07082 0.25064 0.01603 0.0
Mg3 Mg 0.1522 0.28429 0.02461 0.0
C4 C 0.04275 0.26644 0.00822 0.0
C5 C 0.07984 0.43545 0.96579 0.0
O6 O 0.10488 0.43606 0.93499 0.0
O7 O 0.13361 0.38375 0.06859 0.0
O8 O 0.15527 0.32906 0.07887 0.0
O9 O 0.13878 0.36654 0.93572 0.0
O10 O 0.16395 0.34437 -0.01198 0.0
C11 C 0.14784 0.36197 0.09147 0.0
C12 C 0.15925 0.34447 0.95017 0.0
O13 O 0.0836 0.41744 -0.0019 0.0
Mg14 Mg 0.58188 0.72715 0.06931 0.0
O15 O 0.64712 0.71871 0.06554 0.0
O16 O 0.7148 0.78812 0.07201 0.0
Mg17 Mg 0.69161 0.84411 0.08035 0.0
C18 C 0.69247 0.74301 0.06699 0.0
C19 C 0.54309 0.62501 0.04217 0.0
O20 O 0.57351 0.65116 0.01486 0.0
O21 O 0.59262 0.73807 0.13709 0.0
O22 O 0.65534 0.81244 0.13938 0.0
O23 O 0.58504 0.74255 0.00374 0.0
O24 O 0.62274 0.79699 0.05104 0.0
C25 C 0.62222 0.7759 0.15636 0.0
C26 C 0.61433 0.78631 0.01389 0.0
O27 O 0.53635 0.64586 0.07164 0.0
Mg28 Mg 0.21942 0.82411 0.02186 0.0
O29 O 0.22172 0.89482 0.02701 0.0
O30 O 0.15128 0.8855 0.04511 0.0
Mg31 Mg 0.10233 0.80486 0.05334 0.0
C32 C 0.19494 0.91176 0.03573 0.0
C33 C 0.32059 0.89745 -0.00856 0.0
O34 O 0.2935 0.90722 0.96881 0.0
O35 O 0.22322 0.82363 0.08979 0.0
O36 O 0.14909 0.80625 0.10558 0.0
O37 O 0.19064 0.81161 0.95868 0.0
O38 O 0.14624 0.79064 0.01244 0.0
C39 C 0.19054 0.81379 0.11526 0.0
C40 C 0.1489 0.79377 0.9744 0.0
O41 O 0.30089 0.8642 0.01654 0.0
Mg42 Mg 0.61702 0.87566 0.47137 0.0
O43 O 0.6858 0.94706 0.46942 0.0
O44 O 0.74816 0.93658 0.46024 0.0
Mg45 Mg 0.71771 0.85582 0.45265 0.0
C46 C 0.73042 0.96346 0.46566 0.0
C47 C 0.5849 0.94939 0.49265 0.0
O48 O 0.61996 0.96224 0.51861 0.0
O49 O 0.61734 0.86885 0.40336 0.0
O50 O 0.67561 0.85124 0.39612 0.0
O51 O 0.63017 0.86837 0.53692 0.0
O52 O 0.65519 0.84276 0.48655 0.0
C53 C 0.64212 0.8568 0.38188 0.0
C54 C 0.65399 0.84884 0.5241 0.0
O55 O 0.57442 0.9145 0.46902 0.0
Mg56 Mg 0.17891 0.76717 0.44189 0.0
O57 O 0.10833 0.76679 0.44394 0.0
O58 O 0.12008 0.8389 0.42916 0.0
Mg59 Mg 0.19969 0.88566 0.41509 0.0
C60 C 0.09297 0.79559 0.43873 0.0
C61 C 0.11012 0.66732 0.47561 0.0
O62 O 0.1037 0.69501 0.50053 0.0
O63 O 0.17304 0.76367 0.37393 0.0
O64 O 0.19178 0.83858 0.36082 0.0
O65 O 0.1974 0.79523 0.50525 0.0
O66 O 0.21502 0.83998 0.45199 0.0
C67 C 0.18186 0.79689 0.34952 0.0
C68 C 0.21464 0.83696 0.49003 0.0
O69 O 0.13899 0.68614 0.44708 0.0
Mg70 Mg 0.29913 0.45541 0.3989 0.0
O71 O 0.28817 0.38161 0.40747 0.0
O72 O 0.21093 0.32697 0.41003 0.0
Mg73 Mg 0.17073 0.36767 0.39876 0.0
C74 C 0.25489 0.33876 0.41126 0.0
C75 C 0.40454 0.51388 0.4189 0.0
O76 O 0.38486 0.53427 0.4391 0.0
O77 O 0.28101 0.43808 0.33218 0.0
O78 O 0.20195 0.38883 0.33645 0.0
O79 O 0.29126 0.46192 0.46479 0.0
O80 O 0.23155 0.43434 0.42112 0.0
C81 C 0.23962 0.41252 0.31606 0.0
C82 C 0.24617 0.44344 0.45745 0.0
O83 O 0.37872 0.4809 0.39399 0.0
Mg84 Mg 0.80748 0.53494 0.93753 0.0
O85 O 0.86939 0.61036 0.93102 0.0
O86 O 0.84295 0.66094 0.91995 0.0
Mg87 Mg 0.76114 0.61481 0.91453 0.0
C88 C 0.87685 0.65219 0.92513 0.0
C89 C 0.86442 0.48909 0.96963 0.0
O90 O 0.83513 0.48243 -0.0011 0.0
O91 O 0.79908 0.52932 0.86955 0.0
O92 O 0.76767 0.57611 0.85944 0.0
O93 O 0.80126 0.55063 0.00205 0.0
O94 O 0.76264 0.56125 0.95236 0.0
C95 C 0.7813 0.54776 0.8466 0.0
C96 C 0.77344 0.56569 -0.01041 0.0
O97 O 0.86127 0.5088 0.93813 0.0
Mg98 Mg 0.41088 0.25067 0.95085 0.0
O99 O 0.33894 0.24344 0.93463 0.0
O100 O 0.28836 0.16911 0.91297 0.0
Mg101 Mg 0.33003 0.12911 0.91295 0.0
C102 C 0.29813 0.21154 0.92127 0.0
C103 C 0.43322 0.34965 0.98575 0.0
O104 O 0.40126 0.32166 0.01137 0.0
O105 O 0.42661 0.25505 0.88444 0.0
O106 O 0.37921 0.17903 0.86503 0.0
O107 O 0.38544 0.22254 0.01226 0.0
O108 O 0.3775 0.17811 0.95916 0.0
C109 C 0.41084 0.22199 0.85786 0.0
C110 C 0.36877 0.18083 -0.00402 0.0
O111 O 0.44434 0.3312 0.95717 0.0
Mg112 Mg 0.69696 0.12829 0.90606 0.0
O113 O 0.68574 0.05212 0.9068 0.0
O114 O 0.75401 0.05112 0.90024 0.0
Mg115 Mg 0.79957 0.12136 0.8692 0.0
C116 C 0.70939 0.03029 0.90752 0.0
C117 C 0.5972 0.06576 0.94342 0.0
O118 O 0.62418 0.05602 0.96623 0.0
O119 O 0.68917 0.1316 0.83774 0.0
O120 O 0.72944 0.09548 0.83723 0.0
O121 O 0.7316 0.142 0.96672 0.0
O122 O 0.7722 0.15594 0.911 0.0
C123 C 0.71822 0.12273 0.81975 0.0
C124 C 0.77169 0.15501 0.94927 0.0
O125 O 0.61664 0.09596 0.91591 0.0
Mg126 Mg 0.44107 0.19314 0.53262 0.0
O127 O 0.37183 0.12241 0.53722 0.0
O128 O 0.31178 0.13447 0.55327 0.0
Mg129 Mg 0.3443 0.21542 0.5609 0.0
C130 C 0.32803 0.10686 0.54497 0.0
C131 C 0.47068 0.11742 0.50881 0.0
O132 O 0.43324 0.10267 0.48516 0.0
O133 O 0.44525 0.1976 0.60043 0.0
O134 O 0.38906 0.21627 0.61447 0.0
O135 O 0.42476 0.20114 0.46856 0.0
O136 O 0.4015 0.2259 0.52066 0.0
C137 C 0.42269 0.20893 0.62513 0.0
C138 C 0.4006 0.21965 0.48279 0.0
O139 O 0.48318 0.15381 0.53115 0.0
Mg140 Mg 0.91521 0.30202 0.59171 0.0
O141 O 0.99236 0.31622 0.58488 0.0
O142 O 0.9984 0.25184 0.59739 0.0
Mg143 Mg 0.93329 0.2094 0.63577 0.0
C144 C 0.01595 0.29428 0.58478 0.0
C145 C 0.96699 0.39652 0.54419 0.0
O146 O 0.97664 0.36909 0.52178 0.0
O147 O 0.921 0.32079 0.65877 0.0
O148 O 0.9591 0.28269 0.66117 0.0
O149 O 0.89548 0.25947 0.53489 0.0
O150 O 0.89091 0.22751 0.59374 0.0
C151 C 0.93163 0.29415 0.67826 0.0
C152 C 0.88693 0.2227 0.55554 0.0
O153 O 0.94122 0.37904 0.5747 0.0
Mg154 Mg 0.74618 0.58424 0.52323 0.0
O155 O 0.73869 0.64738 0.54131 0.0
O156 O 0.80387 0.70514 0.57168 0.0
Mg157 Mg 0.8568 0.67708 0.57178 0.0
C158 C 0.76101 0.68777 0.55894 0.0
C159 C 0.64939 0.52414 0.4758 0.0
O160 O 0.67713 0.51729 0.45159 0.0
O161 O 0.73652 0.56269 0.58888 0.0
O162 O 0.80808 0.61751 0.61375 0.0
O163 O 0.77967 0.61667 0.46488 0.0
O164 O 0.81993 0.62829 0.52122 0.0
C165 C 0.76722 0.58021 0.61744 0.0
C166 C 0.81997 0.63747 0.48413 0.0
O167 O 0.66638 0.54596 0.50884 0.0
H168 H 0.1312 0.25148 0.94901 0.0
H169 H 0.23301 0.38599 0.89955 0.0
H170 H 0.28477 0.35408 0.88167 0.0
H171 H 0.30729 0.29296 0.89255 0.0
H172 H 0.20507 0.15809 0.94164 0.0
H173 H 0.14684 0.18477 0.94722 0.0
C174 C 0.16381 0.273 0.93279 0.0
C175 C 0.17858 0.32083 0.9255 0.0
C176 C 0.1937 0.25471 0.92362 0.0
C177 C 0.22085 0.34883 0.90482 0.0
C178 C 0.25074 0.33082 0.89527 0.0
C179 C 0.27186 0.26918 0.90367 0.0
C180 C 0.26054 0.22408 0.91741 0.0
C181 C 0.23861 0.28466 0.90648 0.0
C182 C 0.21445 0.19307 0.93112 0.0
C183 C 0.18129 0.20836 0.93442 0.0
H184 H 0.57316 0.82385 0.96944 0.0
H185 H 0.70813 0.83443 -0.00338 0.0
H186 H 0.75011 0.90984 0.96134 0.0
H187 H 0.74852 0.97728 0.93089 0.0
H188 H 0.61327 0.96971 0.90972 0.0
H189 H 0.57122 0.88879 0.93445 0.0
C190 C 0.61162 0.8421 0.96635 0.0
C191 C 0.63776 0.8238 0.98469 0.0
C192 C 0.63541 0.88642 0.94791 0.0
C193 C 0.68759 0.84796 0.98194 0.0
C194 C 0.71149 0.89116 0.96219 0.0
C195 C 0.70984 0.95769 0.93113 0.0
C196 C 0.68417 0.97972 0.91884 0.0
C197 C 0.68584 0.91153 0.94632 0.0
C198 C 0.634 0.95383 0.91943 0.0
C199 C 0.60984 0.90746 0.93348 0.0
H200 H 0.07754 0.81292 0.98369 0.0
H201 H 0.1214 0.73086 0.91257 0.0
H202 H 0.03981 0.68185 0.88651 0.0
H203 H 0.95419 0.65441 0.89338 0.0
H204 H 0.91045 0.7374 0.96353 0.0
H205 H 0.99392 0.79447 0.98052 0.0
C206 C 0.06928 0.78499 0.96177 0.0
C207 C 0.10484 0.77478 0.95039 0.0
C208 C 0.02235 0.7569 0.9473 0.0
C209 C 0.09438 0.73925 0.92152 0.0
C210 C 0.0477 0.71098 0.90701 0.0
C211 C 0.96318 0.68566 0.91161 0.0
C212 C 0.92655 0.69159 0.92771 0.0
C213 C 0.01109 0.7182 0.92109 0.0
C214 C 0.93825 0.73231 0.95086 0.0
C215 C 0.98587 0.76468 0.96077 0.0
H216 H 0.79741 0.78412 0.56559 0.0
H217 H 0.66567 0.64945 0.56586 0.0
H218 H 0.62002 0.69016 0.56611 0.0
H219 H 0.61715 0.76255 0.55418 0.0
H220 H 0.74743 0.89673 0.54626 0.0
H221 H 0.79403 0.8585 0.56253 0.0
C222 C 0.75878 0.76388 0.56655 0.0
C223 C 0.73499 0.71387 0.56496 0.0
C224 C 0.73245 0.78761 0.56556 0.0
C225 C 0.68486 0.688 0.56625 0.0
C226 C 0.65864 0.71122 0.56659 0.0
C227 C 0.65561 0.78363 0.55806 0.0
C228 C 0.67894 0.83231 0.55008 0.0
C229 C 0.68196 0.76085 0.56471 0.0
C230 C 0.72883 0.85933 0.55351 0.0
C231 C 0.75543 0.83726 0.562 0.0
H232 H 0.1815 0.89794 0.49103 0.0
H233 H 0.28972 0.87369 0.5416 0.0
H234 H 0.33338 0.95597 0.567 0.0
H235 H 0.34603 0.03726 0.56569 0.0
H236 H 0.2366 0.06096 0.51653 0.0
H237 H 0.18754 0.97613 0.49991 0.0
C238 C 0.21396 0.91049 0.5086 0.0
C239 C 0.23277 0.88041 0.51447 0.0
C240 C 0.23877 0.9577 0.52273 0.0
C241 C 0.27463 0.89646 0.53722 0.0
C242 C 0.29975 0.94352 0.55129 0.0
C243 C 0.31104 0.02358 0.55199 0.0
C244 C 0.29511 0.05514 0.54171 0.0
C245 C 0.28304 0.97488 0.54283 0.0
C246 C 0.24952 0.03719 0.52458 0.0
C247 C 0.22163 0.98882 0.51492 0.0
H248 H 0.06669 0.38565 0.56026 0.0
H249 H 0.07412 0.25719 0.57057 0.0
H250 H 0.15044 0.29498 0.53645 0.0
H251 H 0.21097 0.36185 0.49763 0.0
H252 H 0.20078 0.48806 0.48467 0.0
H253 H 0.12978 0.45409 0.5263 0.0
C254 C 0.08506 0.3659 0.55539 0.0
C255 C 0.06428 0.31839 0.56755 0.0
C256 C 0.12857 0.38759 0.53539 0.0
C257 C 0.08905 0.29368 0.56132 0.0
C258 C 0.13272 0.31525 0.54178 0.0
C259 C 0.19383 0.38223 0.50511 0.0
C260 C 0.21106 0.42751 0.48912 0.0
C261 C 0.15231 0.36182 0.52797 0.0
C262 C 0.18825 0.45344 0.49758 0.0
C263 C 0.14756 0.43387 0.52099 0.0
H264 H 0.65874 0.64837 0.07215 0.0
H265 H 0.78587 0.78055 0.04512 0.0
H266 H 0.82514 0.73671 0.02347 0.0
H267 H 0.8194 0.66017 0.00455 0.0
H268 H 0.69117 0.52881 0.02973 0.0
H269 H 0.65618 0.57288 0.06018 0.0
C270 C 0.69528 0.66774 0.06201 0.0
C271 C 0.7191 0.71767 0.05974 0.0
C272 C 0.71732 0.64235 0.04924 0.0
C273 C 0.76665 0.74214 0.04706 0.0
C274 C 0.78906 0.71708 0.03451 0.0
C275 C 0.78441 0.64145 0.01785 0.0
C276 C 0.75788 0.59158 0.01563 0.0
C277 C 0.76426 0.66714 0.03444 0.0
C278 C 0.71223 0.56726 0.03192 0.0
C279 C 0.69218 0.59244 0.04895 0.0
H280 H 0.27371 0.12382 -0.01171 0.0
H281 H 0.39819 0.13922 0.04913 0.0
H282 H 0.35294 0.05652 0.0706 0.0
H283 H 0.28145 0.97752 0.06359 0.0
H284 H 0.15596 0.9617 0.00405 0.0
H285 H 0.1977 0.04726 -0.00918 0.0
C286 C 0.29023 0.10927 0.00735 0.0
C287 C 0.33882 0.13703 0.01749 0.0
C288 C 0.26404 0.06172 0.01919 0.0
C289 C 0.36053 0.11827 0.04165 0.0
C290 C 0.33483 0.071 0.05351 0.0
C291 C 0.26305 0.99311 0.04839 0.0
C292 C 0.21613 0.96369 0.03426 0.0
C293 C 0.28713 0.04201 0.04118 0.0
C294 C 0.19218 0.98394 0.01509 0.0
C295 C 0.21609 0.03268 0.00738 0.0
H296 H 0.96958 0.27579 0.03548 0.0
H297 H 1.00142 0.18328 0.96583 0.0
H298 H 0.91791 0.13691 0.94366 0.0
H299 H 0.83843 0.12938 0.93782 0.0
H300 H 0.80538 0.21873 0.01063 0.0
H301 H 0.88661 0.25934 0.03856 0.0
C302 C 0.95784 0.2448 0.01617 0.0
C303 C 0.99137 0.23304 0.00195 0.0
C304 C 0.90979 0.21811 0.00399 0.0
C305 C 0.97602 0.19273 0.97721 0.0
C306 C 0.92842 0.1665 0.96432 0.0
C307 C 0.84889 0.15713 0.96036 0.0
C308 C 0.81649 0.17162 0.97191 0.0
C309 C 0.89537 0.17981 0.97655 0.0
C310 C 0.8299 0.20705 0.0015 0.0
C311 C 0.87637 0.23045 0.0172 0.0
H312 H 0.3098 0.20003 0.49248 0.0
H313 H 0.43123 0.273 0.41639 0.0
H314 H 0.39374 0.31331 0.38377 0.0
H315 H 0.3318 0.336 0.38409 0.0
H316 H 0.20978 0.2623 0.45971 0.0
H317 H 0.24184 0.21359 0.4853 0.0
C318 C 0.32763 0.22427 0.46837 0.0
C319 C 0.37345 0.2344 0.4572 0.0
C320 C 0.30594 0.24734 0.45005 0.0
C321 C 0.39588 0.26478 0.42532 0.0
C322 C 0.37464 0.28808 0.40697 0.0
C323 C 0.31183 0.30862 0.40563 0.0
C324 C 0.26887 0.30309 0.42048 0.0
C325 C 0.33051 0.28092 0.42016 0.0
C326 C 0.24291 0.26713 0.44789 0.0
C327 C 0.2614 0.23955 0.4627 0.0
H328 H 0.82418 0.18376 0.49431 0.0
H329 H 0.91099 0.1563 0.57517 0.0
H330 H 0.87458 0.07442 0.54984 0.0
H331 H 0.81175 0.00829 0.50985 0.0
H332 H 0.71823 0.03362 0.43539 0.0
H333 H 0.7636 0.11853 0.45243 0.0
C334 C 0.83571 0.16001 0.50572 0.0
C335 C 0.87012 0.1758 0.53646 0.0
C336 C 0.81309 0.11246 0.49224 0.0
C337 C 0.88429 0.14468 0.55165 0.0
C338 C 0.86349 0.09791 0.53716 0.0
C339 C 0.80216 0.03273 0.49671 0.0
C340 C 0.76218 0.01512 0.47115 0.0
C341 C 0.82696 0.08103 0.50821 0.0
C342 C 0.74914 0.04667 0.455 0.0
C343 C 0.77491 0.0951 0.46484 0.0
H344 H 0.01788 0.72128 0.4021 0.0
H345 H 0.05543 0.83056 0.49191 0.0
H346 H 0.97182 0.79339 0.51197 0.0
H347 H 0.88994 0.72463 0.50852 0.0
H348 H 0.8515 0.61803 0.41608 0.0
H349 H 0.93336 0.65982 0.39154 0.0
C350 C 0.00735 0.73728 0.42552 0.0
C351 C 0.04226 0.7781 0.44587 0.0
C352 C 0.9593 0.71619 0.43631 0.0
C353 C 0.02877 0.79909 0.47594 0.0
C354 C 0.98115 0.77775 0.48747 0.0
C355 C 0.89947 0.71119 0.48258 0.0
C356 C 0.86532 0.66823 0.46431 0.0
C357 C 0.94637 0.73558 0.46858 0.0
C358 C 0.87744 0.65125 0.43037 0.0
C359 C 0.92424 0.67486 0.41661 0.0
H360 H 0.16774 0.41172 0.27484 0.0
H361 H 0.29758 0.40754 0.25979 0.0
H362 H 0.28071 0.39265 0.18806 0.0
H363 H 0.22595 0.37517 0.13099 0.0
H364 H 0.09857 0.38405 0.14522 0.0
H365 H 0.11753 0.40306 0.21638 0.0
C366 C 0.19253 0.40795 0.25571 0.0
C367 C 0.23352 0.41005 0.27239 0.0
C368 C 0.1828 0.39998 0.21472 0.0
C369 C 0.26587 0.40602 0.24746 0.0
C370 C 0.25605 0.39726 0.20661 0.0
C371 C 0.20249 0.38149 0.14974 0.0
C372 C 0.1605 0.37745 0.13336 0.0
C373 C 0.21415 0.39321 0.19014 0.0
C374 C 0.13087 0.38675 0.15744 0.0
C375 C 0.14169 0.39747 0.198 0.0
H376 H 0.62676 0.85047 0.19546 0.0
H377 H 0.60615 0.71034 0.2134 0.0
H378 H 0.60774 0.72239 0.28588 0.0
H379 H 0.62201 0.77589 0.34357 0.0
H380 H 0.63782 0.91405 0.32546 0.0
H381 H 0.63073 0.89979 0.2531 0.0
C382 C 0.62219 0.82245 0.21534 0.0
C383 C 0.61713 0.77989 0.19951 0.0
C384 C 0.62244 0.82945 0.2566 0.0
C385 C 0.61028 0.74338 0.22518 0.0
C386 C 0.61138 0.75039 0.26646 0.0
C387 C 0.62319 0.80248 0.32364 0.0
C388 C 0.63081 0.84607 0.3393 0.0
C389 C 0.61847 0.79368 0.28242 0.0
C390 C 0.63184 0.88027 0.31372 0.0
C391 C 0.62806 0.87218 0.27251 0.0
H392 H 0.13306 0.74863 0.1679 0.0
H393 H 0.27018 0.87584 0.15749 0.0
H394 H 0.28109 0.88008 0.23004 0.0
H395 H 0.24762 0.85175 0.29638 0.0
H396 H 0.11278 0.72196 0.30678 0.0
H397 H 0.10489 0.71396 0.23396 0.0
C398 C 0.16559 0.77683 0.18162 0.0
C399 C 0.20057 0.81225 0.1578 0.0
C400 C 0.17175 0.77858 0.22309 0.0
C401 C 0.2429 0.84828 0.17547 0.0
C402 C 0.24896 0.85082 0.21685 0.0
C403 C 0.21691 0.82138 0.28254 0.0
C404 C 0.1805 0.78773 0.30647 0.0
C405 C 0.21307 0.81683 0.24093 0.0
C406 C 0.14112 0.74815 0.28866 0.0
C407 C 0.13655 0.74379 0.24717 0.0
H408 H 0.71123 0.536 0.79568 0.0
H409 H 0.84727 0.54238 0.80052 0.0
H410 H 0.85207 0.54701 0.7278 0.0
H411 H 0.82301 0.56151 0.66453 0.0
H412 H 0.68606 0.55298 0.65925 0.0
H413 H 0.67553 0.53606 0.73062 0.0
C414 C 0.7414 0.53736 0.78064 0.0
C415 C 0.77923 0.5396 0.8032 0.0
C416 C 0.74381 0.53998 0.73898 0.0
C417 C 0.81783 0.54065 0.78364 0.0
C418 C 0.8207 0.54365 0.74215 0.0
C419 C 0.79038 0.55477 0.67894 0.0
C420 C 0.75554 0.55896 0.65713 0.0
C421 C 0.78475 0.54517 0.71976 0.0
C422 C 0.71319 0.54978 0.67564 0.0
C423 C 0.70741 0.54053 0.71642 0.0
H424 H 0.42992 0.16987 0.80617 0.0
H425 H 0.42451 0.29933 0.81681 0.0
H426 H 0.43246 0.30937 0.74458 0.0
H427 H 0.42986 0.27511 0.67815 0.0
H428 H 0.43869 0.14751 0.66762 0.0
H429 H 0.44113 0.14303 0.74033 0.0
C430 C 0.43152 0.20076 0.79263 0.0
C431 C 0.42604 0.23352 0.81637 0.0
C432 C 0.43624 0.20628 0.75129 0.0
C433 C 0.42873 0.27377 0.79892 0.0
C434 C 0.43289 0.27928 0.75768 0.0
C435 C 0.43321 0.24688 0.69192 0.0
C436 C 0.43338 0.21127 0.66797 0.0
C437 C 0.43496 0.24485 0.73352 0.0
C438 C 0.43846 0.1752 0.68572 0.0
C439 C 0.43955 0.17251 0.72718 0.0
H440 H 0.79971 0.12913 0.79281 0.0
H441 H 0.71337 0.19535 0.78297 0.0
H442 H 0.77248 0.25542 0.73916 0.0
H443 H 0.84918 0.28927 0.70412 0.0
H444 H 0.93591 0.22369 0.71728 0.0
H445 H 0.87644 0.16388 0.76024 0.0
C446 C 0.7937 0.15674 0.78131 0.0
C447 C 0.75224 0.15785 0.79146 0.0
C448 C 0.82814 0.19156 0.75699 0.0
C449 C 0.74503 0.19371 0.77577 0.0
C450 C 0.7789 0.22816 0.75083 0.0
C451 C 0.85519 0.26205 0.71654 0.0
C452 C 0.8968 0.26072 0.70702 0.0
C453 C 0.82076 0.22758 0.74142 0.0
C454 C 0.90407 0.22535 0.7237 0.0
C455 C 0.87003 0.19102 0.74825 0.0
H456 H 0.01051 0.4228 0.01784 0.0
H457 H 0.06875 0.4828 0.90372 0.0
H458 H 0.00722 0.50434 0.89452 0.0
H459 H 0.93586 0.50493 0.91834 0.0
H460 H 0.87741 0.44393 0.03221 0.0
H461 H 0.93976 0.42385 0.04179 0.0
C462 C 0.01002 0.44093 -0.00891 0.0
C463 C 0.04433 0.45124 0.96159 0.0
C464 C 0.97419 0.45274 0.98574 0.0
C465 C 0.04283 0.47442 0.92696 0.0
C466 C 0.00756 0.48668 0.9216 0.0
C467 C 0.93666 0.48712 0.9452 0.0
C468 C 0.90182 0.4759 0.97443 0.0
C469 C 0.97281 0.4757 0.95065 0.0
C470 C 0.90363 0.45298 0.00913 0.0
C471 C 0.93939 0.44152 0.01473 0.0
H472 H 0.55373 0.57351 0.98354 0.0
H473 H 0.47583 0.55836 0.09131 0.0
H474 H 0.43451 0.47165 0.08314 0.0
H475 H 0.42079 0.4003 0.04518 0.0
H476 H 0.49953 0.41695 0.93752 0.0
H477 H 0.54015 0.50313 0.94591 0.0
C478 C 0.52767 0.55139 0.00531 0.0
C479 C 0.51783 0.57248 0.03797 0.0
C480 C 0.50417 0.50182 0.00041 0.0
C481 C 0.48406 0.54308 0.06588 0.0
C482 C 0.46042 0.49351 0.0612 0.0
C483 C 0.44676 0.42276 0.02349 0.0
C484 C 0.45703 0.40205 -0.00926 0.0
C485 C 0.47019 0.47249 0.02853 0.0
C486 C 0.49086 0.43179 0.96299 0.0
C487 C 0.51418 0.48114 0.96777 0.0
H488 H 0.37266 0.97157 0.94239 0.0
H489 H 0.38714 0.88557 0.03228 0.0
H490 H 0.47377 0.9307 0.02586 0.0
H491 H 0.54529 0.99378 -0.00577 0.0
H492 H 0.53093 0.07947 0.90398 0.0
H493 H 0.44433 0.03526 0.9112 0.0
C494 C 0.39469 0.96263 0.96062 0.0
C495 C 0.37327 0.92506 -0.01228 0.0
C496 C 0.44454 0.98871 0.95676 0.0
C497 C 0.40254 0.91419 0.01114 0.0
C498 C 0.45215 0.94002 0.0075 0.0
C499 C 0.52332 0.00301 0.97622 0.0
C500 C 0.54472 0.04 0.94861 0.0
C501 C 0.47351 0.97727 0.98036 0.0
C502 C 0.51551 0.05121 0.92546 0.0
C503 C 0.46594 0.0259 0.92954 0.0
H504 H 0.60283 0.02849 0.53529 0.0
H505 H 0.50731 0.92927 0.4458 0.0
H506 H 0.46378 0.97249 0.44284 0.0
H507 H 0.45271 0.03839 0.46571 0.0
H508 H 0.54866 0.13773 0.55497 0.0
H509 H 0.59207 0.09449 0.55785 0.0
C510 C 0.57246 0.01621 0.51514 0.0
C511 C 0.55839 0.97558 0.49085 0.0
C512 C 0.54765 0.04131 0.51348 0.0
C513 C 0.519 0.9604 0.46484 0.0
C514 C 0.49405 0.98511 0.46312 0.0
C515 C 0.48316 0.05068 0.48576 0.0
C516 C 0.49734 0.09135 0.51005 0.0
C517 C 0.50805 0.02563 0.4873 0.0
C518 C 0.5369 0.10662 0.53588 0.0
C519 C 0.56178 0.08188 0.53759 0.0
H520 H 0.02799 0.44557 0.48461 0.0
H521 H 0.95339 0.46265 0.58372 0.0
H522 H 0.9902 0.54747 0.57057 0.0
H523 H 0.04493 0.61711 0.53208 0.0
H524 H 0.11984 0.60036 0.43308 0.0
H525 H 0.08134 0.51505 0.44503 0.0
C526 C 0.01953 0.46775 0.50323 0.0
C527 C 0.98793 0.44765 0.53513 0.0
C528 C 0.04096 0.51661 0.49559 0.0
C529 C 0.97757 0.47707 0.55898 0.0
C530 C 0.99864 0.52564 0.5515 0.0
C531 C 0.05279 0.59485 0.51299 0.0
C532 C 0.0854 0.61525 0.4818 0.0
C533 C 0.03061 0.54584 0.52007 0.0
C534 C 0.09494 0.5857 0.45733 0.0
C535 C 0.07297 0.53687 0.46416 0.0
H536 H 0.45118 0.4677 0.39365 0.0
H537 H 0.46655 0.58176 0.47108 0.0
H538 H 0.54186 0.59289 0.4969 0.0
H539 H 0.60266 0.56955 0.49891 0.0
H540 H 0.59059 0.45836 0.41994 0.0
H541 H 0.51446 0.44636 0.39377 0.0
C542 C 0.47128 0.49535 0.41582 0.0
C543 C 0.453 0.52374 0.4304 0.0
C544 C 0.51482 0.5016 0.43077 0.0
C545 C 0.47956 0.5593 0.45927 0.0
C546 C 0.52262 0.5656 0.47427 0.0
C547 C 0.58314 0.5423 0.47627 0.0
C548 C 0.60186 0.51438 0.46179 0.0
C549 C 0.54027 0.5366 0.46064 0.0
C550 C 0.57668 0.48004 0.43178 0.0
C551 C 0.53329 0.47334 0.4167 0.0
loop_
_geom_bond_atom_site_label_1
_geom_bond_atom_site_label_2
_geom_bond_distance
_geom_bond_site_symmetry_2
_ccdc_geom_bond_type
Mg0 O1 2.028 . S
Mg0 O7 1.986 . S
Mg0 O9 2.114 . S
Mg0 O10 2.251 . S
Mg0 O13 2.010 . S
O1 Mg0 2.028 . S
O1 C4 1.250 1_455 S
O2 Mg3 2.028 . S
O2 C4 1.248 1_455 S
Mg3 O2 2.028 . S
Mg3 O8 2.032 . S
Mg3 O10 2.079 . S
C4 O1 1.250 1_655 S
C4 O2 1.248 1_655 S
C5 O6 1.264 . S
C5 O13 1.249 . S
O6 C5 1.264 . S
O7 Mg0 1.986 . S
O7 C11 1.246 . S
O8 Mg3 2.032 . S
O8 C11 1.259 . S
O9 Mg0 2.114 . S
O9 C12 1.252 . S
O10 Mg0 2.251 . S
O10 Mg3 2.079 . S
O10 C12 1.273 . S
C11 O7 1.246 . S
C11 O8 1.259 . S
C12 O9 1.252 . S
C12 O10 1.273 . S
O13 Mg0 2.010 . S
O13 C5 1.249 . S
Mg14 O15 2.028 . S
Mg14 O21 1.986 . S
Mg14 O23 2.114 . S
Mg14 O24 2.251 . S
Mg14 O27 2.010 . S
O15 Mg14 2.028 . S
O15 C18 1.250 . S
O16 Mg17 2.028 . S
O16 C18 1.248 . S
Mg17 O16 2.028 . S
Mg17 O22 2.032 . S
Mg17 O24 2.079 . S
C18 O15 1.250 . S
C18 O16 1.248 . S
C19 O20 1.264 . S
C19 O27 1.249 . S
O20 C19 1.264 . S
O21 Mg14 1.986 . S
O21 C25 1.246 . S
O22 Mg17 2.032 . S
O22 C25 1.259 . S
O23 Mg14 2.114 . S
O23 C26 1.252 . S
O24 Mg14 2.251 . S
O24 Mg17 2.079 . S
O24 C26 1.273 . S
C25 O21 1.246 . S
C25 O22 1.259 . S
C26 O23 1.252 . S
C26 O24 1.273 . S
O27 Mg14 2.010 . S
O27 C19 1.249 . S
Mg28 O29 2.028 . S
Mg28 O35 1.986 . S
Mg28 O37 2.114 . S
Mg28 O38 2.251 . S
Mg28 O41 2.010 . S
O29 Mg28 2.028 . S
O29 C32 1.250 1_565 S
O30 Mg31 2.028 . S
O30 C32 1.248 1_565 S
Mg31 O30 2.028 . S
Mg31 O36 2.032 . S
Mg31 O38 2.079 . S
C32 O29 1.250 1_545 S
C32 O30 1.248 1_545 S
C33 O34 1.264 . S
C33 O41 1.249 . S
O34 C33 1.264 . S
O35 Mg28 1.986 . S
O35 C39 1.246 . S
O36 Mg31 2.032 . S
O36 C39 1.259 . S
O37 Mg28 2.114 . S
O37 C40 1.252 . S
O38 Mg28 2.251 . S
O38 Mg31 2.079 . S
O38 C40 1.273 . S
C39 O35 1.246 . S
C39 O36 1.259 . S
C40 O37 1.252 . S
C40 O38 1.273 . S
O41 Mg28 2.010 . S
O41 C33 1.249 . S
Mg42 O43 2.028 . S
Mg42 O49 1.986 . S
Mg42 O51 2.114 . S
Mg42 O52 2.251 . S
Mg42 O55 2.010 . S
O43 Mg42 2.028 . S
O43 C46 1.250 1_565 S
O44 Mg45 2.028 . S
O44 C46 1.248 1_565 S
Mg45 O44 2.028 . S
Mg45 O50 2.032 . S
Mg45 O52 2.079 . S
C46 O43 1.250 1_545 S
C46 O44 1.248 1_545 S
C47 O48 1.264 . S
C47 O55 1.249 . S
O48 C47 1.264 . S
O49 Mg42 1.986 . S
O49 C53 1.246 . S
O50 Mg45 2.032 . S
O50 C53 1.259 . S
O51 Mg42 2.114 . S
O51 C54 1.252 . S
O52 Mg42 2.251 . S
O52 Mg45 2.079 . S
O52 C54 1.273 . S
C53 O49 1.246 . S
C53 O50 1.259 . S
C54 O51 1.252 . S
C54 O52 1.273 . S
O55 Mg42 2.010 . S
O55 C47 1.249 . S
Mg56 O57 2.028 . S
Mg56 O63 1.986 . S
Mg56 O65 2.114 . S
Mg56 O66 2.251 . S
Mg56 O69 2.010 . S
O57 Mg56 2.028 . S
O57 C60 1.250 1_455 S
O58 Mg59 2.028 . S
O58 C60 1.248 1_455 S
Mg59 O58 2.028 . S
Mg59 O64 2.032 . S
Mg59 O66 2.079 . S
C60 O57 1.250 1_655 S
C60 O58 1.248 1_655 S
C61 O62 1.264 . S
C61 O69 1.249 . S
O62 C61 1.264 . S
O63 Mg56 1.986 . S
O63 C67 1.246 . S
O64 Mg59 2.032 . S
O64 C67 1.259 . S
O65 Mg56 2.114 . S
O65 C68 1.252 . S
O66 Mg56 2.251 . S
O66 Mg59 2.079 . S
O66 C68 1.273 . S
C67 O63 1.246 . S
C67 O64 1.259 . S
C68 O65 1.252 . S
C68 O66 1.273 . S
O69 Mg56 2.010 . S
O69 C61 1.249 . S
Mg70 O71 2.028 . S
Mg70 O77 1.986 . S
Mg70 O79 2.114 . S
Mg70 O80 2.251 . S
Mg70 O83 2.010 . S
O71 Mg70 2.028 . S
O71 C74 1.250 . S
O72 Mg73 2.028 . S
O72 C74 1.248 . S
Mg73 O72 2.028 . S
Mg73 O78 2.032 . S
Mg73 O80 2.079 . S
C74 O71 1.250 . S
C74 O72 1.248 . S
C75 O76 1.264 . S
C75 O83 1.249 . S
O76 C75 1.264 . S
O77 Mg70 1.986 . S
O77 C81 1.246 . S
O78 Mg73 2.032 . S
O78 C81 1.259 . S
O79 Mg70 2.114 . S
O79 C82 1.252 . S
O80 Mg70 2.251 . S
O80 Mg73 2.079 . S
O80 C82 1.273 . S
C81 O77 1.246 . S
C81 O78 1.259 . S
C82 O79 1.252 . S
C82 O80 1.273 . S
O83 Mg70 2.010 . S
O83 C75 1.249 . S
Mg84 O85 2.028 . S
Mg84 O91 1.986 . S
Mg84 O93 2.114 . S
Mg84 O94 2.251 . S
Mg84 O97 2.010 . S
O85 Mg84 2.028 . S
O85 C88 1.250 1_655 S
O86 Mg87 2.028 . S
O86 C88 1.248 1_655 S
Mg87 O86 2.028 . S
Mg87 O92 2.032 . S
Mg87 O94 2.079 . S
C88 O85 1.250 1_455 S
C88 O86 1.248 1_455 S
C89 O90 1.264 . S
C89 O97 1.249 . S
O90 C89 1.264 . S
O91 Mg84 1.986 . S
O91 C95 1.246 . S
O92 Mg87 2.032 . S
O92 C95 1.259 . S
O93 Mg84 2.114 . S
O93 C96 1.252 . S
O94 Mg84 2.251 . S
O94 Mg87 2.079 . S
O94 C96 1.273 . S
C95 O91 1.246 . S
C95 O92 1.259 . S
C96 O93 1.252 . S
C96 O94 1.273 . S
O97 Mg84 2.010 . S
O97 C89 1.249 . S
Mg98 O99 2.028 . S
Mg98 O105 1.986 . S
Mg98 O107 2.114 . S
Mg98 O108 2.251 . S
Mg98 O111 2.010 . S
O99 Mg98 2.028 . S
O99 C102 1.250 . S
O100 Mg101 2.028 . S
O100 C102 1.248 . S
Mg101 O100 2.028 . S
Mg101 O106 2.032 . S
Mg101 O108 2.079 . S
C102 O99 1.250 . S
C102 O100 1.248 . S
C103 O104 1.264 . S
C103 O111 1.249 . S
O104 C103 1.264 . S
O105 Mg98 1.986 . S
O105 C109 1.246 . S
O106 Mg101 2.032 . S
O106 C109 1.259 . S
O107 Mg98 2.114 . S
O107 C110 1.252 . S
O108 Mg98 2.251 . S
O108 Mg101 2.079 . S
O108 C110 1.273 . S
C109 O105 1.246 . S
C109 O106 1.259 . S
C110 O107 1.252 . S
C110 O108 1.273 . S
O111 Mg98 2.010 . S
O111 C103 1.249 . S
Mg112 O113 2.028 . S
Mg112 O119 1.986 . S
Mg112 O121 2.114 . S
Mg112 O122 2.251 . S
Mg112 O125 2.010 . S
O113 Mg112 2.028 . S
O113 C116 1.250 1_545 S
O114 Mg115 2.028 . S
O114 C116 1.248 1_545 S
Mg115 O114 2.028 . S
Mg115 O120 2.032 . S
Mg115 O122 2.079 . S
C116 O113 1.250 1_565 S
C116 O114 1.248 1_565 S
C117 O118 1.264 . S
C117 O125 1.249 . S
O118 C117 1.264 . S
O119 Mg112 1.986 . S
O119 C123 1.246 . S
O120 Mg115 2.032 . S
O120 C123 1.259 . S
O121 Mg112 2.114 . S
O121 C124 1.252 . S
O122 Mg112 2.251 . S
O122 Mg115 2.079 . S
O122 C124 1.273 . S
C123 O119 1.246 . S
C123 O120 1.259 . S
C124 O121 1.252 . S
C124 O122 1.273 . S
O125 Mg112 2.010 . S
O125 C117 1.249 . S
Mg126 O127 2.028 . S
Mg126 O133 1.986 . S
Mg126 O135 2.114 . S
Mg126 O136 2.251 . S
Mg126 O139 2.010 . S
O127 Mg126 2.028 . S
O127 C130 1.250 1_545 S
O128 Mg129 2.028 . S
O128 C130 1.248 1_545 S
Mg129 O128 2.028 . S
Mg129 O134 2.032 . S
Mg129 O136 2.079 . S
C130 O127 1.250 1_565 S
C130 O128 1.248 1_565 S
C131 O132 1.264 . S
C131 O139 1.249 . S
O132 C131 1.264 . S
O133 Mg126 1.986 . S
O133 C137 1.246 . S
O134 Mg129 2.032 . S
O134 C137 1.259 . S
O135 Mg126 2.114 . S
O135 C138 1.252 . S
O136 Mg126 2.251 . S
O136 Mg129 2.079 . S
O136 C138 1.273 . S
C137 O133 1.246 . S
C137 O134 1.259 . S
C138 O135 1.252 . S
C138 O136 1.273 . S
O139 Mg126 2.010 . S
O139 C131 1.249 . S
Mg140 O141 2.028 . S
Mg140 O147 1.986 . S
Mg140 O149 2.114 . S
Mg140 O150 2.251 . S
Mg140 O153 2.010 . S
O141 Mg140 2.028 . S
O141 C144 1.250 1_655 S
O142 Mg143 2.028 . S
O142 C144 1.248 1_655 S
Mg143 O142 2.028 . S
Mg143 O148 2.032 . S
Mg143 O150 2.079 . S
C144 O141 1.250 1_455 S
C144 O142 1.248 1_455 S
C145 O146 1.264 . S
C145 O153 1.249 . S
O146 C145 1.264 . S
O147 Mg140 1.986 . S
O147 C151 1.246 . S
O148 Mg143 2.032 . S
O148 C151 1.259 . S
O149 Mg140 2.114 . S
O149 C152 1.252 . S
O150 Mg140 2.251 . S
O150 Mg143 2.079 . S
O150 C152 1.273 . S
C151 O147 1.246 . S
C151 O148 1.259 . S
C152 O149 1.252 . S
C152 O150 1.273 . S
O153 Mg140 2.010 . S
O153 C145 1.249 . S
Mg154 O155 2.028 . S
Mg154 O161 1.986 . S
Mg154 O163 2.114 . S
Mg154 O164 2.251 . S
Mg154 O167 2.010 . S
O155 Mg154 2.028 . S
O155 C158 1.250 . S
O156 Mg157 2.028 . S
O156 C158 1.248 . S
Mg157 O156 2.028 . S
Mg157 O162 2.032 . S
Mg157 O164 2.079 . S
C158 O155 1.250 . S
C158 O156 1.248 . S
C159 O160 1.264 . S
C159 O167 1.249 . S
O160 C159 1.264 . S
O161 Mg154 1.986 . S
O161 C165 1.246 . S
O162 Mg157 2.032 . S
O162 C165 1.259 . S
O163 Mg154 2.114 . S
O163 C166 1.252 . S
O164 Mg154 2.251 . S
O164 Mg157 2.079 . S
O164 C166 1.273 . S
C165 O161 1.246 . S
C165 O162 1.259 . S
C166 O163 1.252 . S
C166 O164 1.273 . S
O167 Mg154 2.010 . S
O167 C159 1.249 . S
H168 C174 0.930 . S
H169 C177 0.930 . S
H170 C178 0.930 . S
H171 C179 0.930 . S
H172 C182 0.930 . S
H173 C183 0.930 . S
C174 H168 0.930 . S
C174 C175 1.355 1_556 S
C174 C176 1.415 . S
C175 C174 1.355 1_554 S
C175 C177 1.419 . S
C176 C174 1.415 . S
C176 C181 1.425 . S
C176 C183 1.409 . S
C177 H169 0.930 . S
C177 C175 1.419 . S
C177 C178 1.362 . S
C178 H170 0.930 . S
C178 C177 1.362 . S
C178 C181 1.409 1_554 S
C179 H171 0.930 . S
C179 C180 1.355 . S
C179 C181 1.415 . S
C180 C179 1.355 . S
C180 C182 1.419 . S
C181 C176 1.425 . S
C181 C178 1.409 1_556 S
C181 C179 1.415 . S
C182 H172 0.930 . S
C182 C180 1.419 . S
C182 C183 1.362 . S
C183 H173 0.930 . S
C183 C176 1.409 . S
C183 C182 1.362 . S
H184 C190 0.930 . S
H185 C193 0.930 . S
H186 C194 0.930 . S
H187 C195 0.930 . S
H188 C198 0.930 . S
H189 C199 0.930 . S
C190 H184 0.930 . S
C190 C191 1.355 1_556 S
C190 C192 1.415 . S
C191 C190 1.355 1_554 S
C191 C193 1.419 . S
C192 C190 1.415 . S
C192 C197 1.425 . S
C192 C199 1.409 . S
C193 H185 0.930 . S
C193 C191 1.419 . S
C193 C194 1.362 . S
C194 H186 0.930 . S
C194 C193 1.362 . S
C194 C197 1.409 1_554 S
C195 H187 0.930 . S
C195 C196 1.355 . S
C195 C197 1.415 . S
C196 C195 1.355 . S
C196 C198 1.419 . S
C197 C192 1.425 . S
C197 C194 1.409 1_556 S
C197 C195 1.415 . S
C198 H188 0.930 . S
C198 C196 1.419 . S
C198 C199 1.362 . S
C199 H189 0.930 . S
C199 C192 1.409 . S
C199 C198 1.362 . S
H200 C206 0.930 . S
H201 C209 0.930 . S
H202 C210 0.930 . S
H203 C211 0.930 . S
H204 C214 0.930 . S
H205 C215 0.930 1_554 S
C206 H200 0.930 . S
C206 C207 1.355 . S
C206 C208 1.415 1_554 S
C207 C206 1.355 . S
C207 C209 1.419 1_554 S
C208 C206 1.415 1_556 S
C208 C213 1.425 . S
C208 C215 1.409 . S
C209 H201 0.930 . S
C209 C207 1.419 1_556 S
C209 C210 1.362 . S
C210 H202 0.930 . S
C210 C209 1.362 . S
C210 C213 1.409 . S
C211 H203 0.930 . S
C211 C212 1.355 . S
C211 C213 1.415 . S
C212 C211 1.355 . S
C212 C214 1.419 . S
C213 C208 1.425 . S
C213 C210 1.409 . S
C213 C211 1.415 . S
C214 H204 0.930 . S
C214 C212 1.419 . S
C214 C215 1.362 . S
C215 H205 0.930 1_556 S
C215 C208 1.409 . S
C215 C214 1.362 . S
H216 C222 0.930 . S
H217 C225 0.930 . S
H218 C226 0.930 . S
H219 C227 0.930 . S
H220 C230 0.930 . S
H221 C231 0.930 . S
C222 H216 0.930 . S
C222 C223 1.355 . S
C222 C224 1.415 . S
C223 C222 1.355 . S
C223 C225 1.419 . S
C224 C222 1.415 . S
C224 C229 1.425 . S
C224 C231 1.409 . S
C225 H217 0.930 . S
C225 C223 1.419 . S
C225 C226 1.362 . S
C226 H218 0.930 . S
C226 C225 1.362 . S
C226 C229 1.409 . S
C227 H219 0.930 . S
C227 C228 1.355 . S
C227 C229 1.415 . S
C228 C227 1.355 . S
C228 C230 1.419 . S
C229 C224 1.425 . S
C229 C226 1.409 . S
C229 C227 1.415 . S
C230 H220 0.930 . S
C230 C228 1.419 . S
C230 C231 1.362 . S
C231 H221 0.930 . S
C231 C224 1.409 . S
C231 C230 1.362 . S
H232 C238 0.930 . S
H233 C241 0.930 . S
H234 C242 0.930 . S
H235 C243 0.930 . S
H236 C246 0.915 1_545 S
H237 C247 0.930 . S
C238 H232 0.930 . S
C238 C239 1.355 . S
C238 C240 1.415 . S
C239 C238 1.355 . S
C239 C241 1.419 . S
C240 C238 1.415 . S
C240 C245 1.425 . S
C240 C247 1.409 . S
C241 H233 0.930 . S
C241 C239 1.419 . S
C241 C242 1.362 . S
C242 H234 0.930 . S
C242 C241 1.362 . S
C242 C245 1.409 . S
C243 H235 0.930 . S
C243 C244 1.355 . S
C243 C245 1.415 . S
C244 C243 1.355 . S
C244 C246 1.419 . S
C245 C240 1.425 . S
C245 C242 1.409 . S
C245 C243 1.415 . S
C246 H236 0.915 1_565 S
C246 C244 1.419 . S
C246 C247 1.362 . S
C247 H237 0.930 . S
C247 C240 1.409 . S
C247 C246 1.362 . S
H248 C254 0.930 . S
H249 C257 0.930 . S
H250 C258 0.930 . S
H251 C259 0.930 . S
H252 C262 0.930 . S
H253 C263 0.930 . S
C254 H248 0.930 . S
C254 C255 1.355 . S
C254 C256 1.415 . S
C255 C254 1.355 . S
C255 C257 1.419 . S
C256 C254 1.415 . S
C256 C261 1.425 . S
C256 C263 1.409 . S
C257 H249 0.930 . S
C257 C255 1.419 . S
C257 C258 1.362 . S
C258 H250 0.930 . S
C258 C257 1.362 . S
C258 C261 1.409 . S
C259 H251 0.930 . S
C259 C260 1.355 . S
C259 C261 1.415 . S
C260 C259 1.355 . S
C260 C262 1.419 . S
C261 C256 1.425 . S
C261 C258 1.409 . S
C261 C259 1.415 . S
C262 H252 0.930 . S
C262 C260 1.419 . S
C262 C263 1.362 . S
C263 H253 0.930 . S
C263 C256 1.409 . S
C263 C262 1.362 . S
H264 C270 0.930 . S
H265 C273 0.930 . S
H266 C274 0.930 . S
H267 C275 0.930 . S
H268 C278 0.930 . S
H269 C279 0.930 . S
C270 H264 0.930 . S
C270 C271 1.355 . S
C270 C272 1.415 . S
C271 C270 1.355 . S
C271 C273 1.419 . S
C272 C270 1.415 . S
C272 C277 1.425 . S
C272 C279 1.409 1_554 S
C273 H265 0.930 . S
C273 C271 1.419 . S
C273 C274 1.362 . S
C274 H266 0.930 . S
C274 C273 1.362 . S
C274 C277 1.409 . S
C275 H267 0.930 . S
C275 C276 1.355 1_554 S
C275 C277 1.415 . S
C276 C275 1.355 1_556 S
C276 C278 1.419 . S
C277 C272 1.425 . S
C277 C274 1.409 . S
C277 C275 1.415 . S
C278 H268 0.930 . S
C278 C276 1.419 . S
C278 C279 1.362 . S
C279 H269 0.930 . S
C279 C272 1.409 1_556 S
C279 C278 1.362 . S
H280 C286 0.930 . S
H281 C289 0.930 . S
H282 C290 0.930 . S
H283 C291 0.930 . S
H284 C294 0.930 . S
H285 C295 0.930 . S
C286 H280 0.930 . S
C286 C287 1.355 1_554 S
C286 C288 1.415 . S
C287 C286 1.355 1_556 S
C287 C289 1.419 . S
C288 C286 1.415 . S
C288 C293 1.425 . S
C288 C295 1.409 . S
C289 H281 0.930 . S
C289 C287 1.419 . S
C289 C290 1.362 . S
C290 H282 0.930 . S
C290 C289 1.362 . S
C290 C293 1.409 1_556 S
C291 H283 0.930 . S
C291 C292 1.355 . S
C291 C293 1.415 . S
C292 C291 1.355 . S
C292 C294 1.419 . S
C293 C288 1.425 . S
C293 C290 1.409 1_554 S
C293 C291 1.415 . S
C294 H284 0.930 . S
C294 C292 1.419 . S
C294 C295 1.362 . S
C295 H285 0.930 . S
C295 C288 1.409 . S
C295 C294 1.362 . S
H296 C302 0.930 . S
H297 C305 0.930 1_455 S
H298 C306 0.930 . S
H299 C307 0.930 . S
H300 C310 0.930 . S
H301 C311 0.930 . S
C302 H296 0.930 . S
C302 C303 1.355 . S
C302 C304 1.415 . S
C303 C302 1.355 . S
C303 C305 1.419 . S
C304 C302 1.415 . S
C304 C309 1.439 . S
C304 C311 1.409 . S
C305 H297 0.930 1_655 S
C305 C303 1.419 . S
C305 C306 1.362 1_554 S
C306 H298 0.930 . S
C306 C305 1.362 1_556 S
C306 C309 1.406 1_556 S
C307 H299 0.930 . S
C307 C308 1.355 . S
C307 C309 1.405 1_556 S
C308 C307 1.355 . S
C308 C310 1.419 1_556 S
C309 C304 1.439 . S
C309 C306 1.406 1_554 S
C309 C307 1.405 1_554 S
C310 H300 0.930 . S
C310 C308 1.419 1_554 S
C310 C311 1.362 . S
C311 H301 0.930 . S
C311 C304 1.409 . S
C311 C310 1.362 . S
H312 C318 0.930 . S
H313 C321 0.930 . S
H314 C322 0.930 . S
H315 C323 0.930 . S
H316 C326 0.930 . S
H317 C327 0.930 . S
C318 H312 0.930 . S
C318 C319 1.355 . S
C318 C320 1.415 . S
C319 C318 1.355 . S
C319 C321 1.419 . S
C320 C318 1.415 . S
C320 C325 1.425 . S
C320 C327 1.409 . S
C321 H313 0.930 . S
C321 C319 1.419 . S
C321 C322 1.362 . S
C322 H314 0.930 . S
C322 C321 1.362 . S
C322 C325 1.409 . S
C323 H315 0.930 . S
C323 C324 1.355 . S
C323 C325 1.415 . S
C324 C323 1.355 . S
C324 C326 1.419 . S
C325 C320 1.425 . S
C325 C322 1.409 . S
C325 C323 1.415 . S
C326 H316 0.930 . S
C326 C324 1.419 . S
C326 C327 1.362 . S
C327 H317 0.930 . S
C327 C320 1.409 . S
C327 C326 1.362 . S
H328 C334 0.930 . S
H329 C337 0.930 . S
H330 C338 0.930 . S
H331 C339 0.930 . S
H332 C342 0.930 . S
H333 C343 0.930 . S
C334 H328 0.930 . S
C334 C335 1.355 . S
C334 C336 1.415 . S
C335 C334 1.355 . S
C335 C337 1.419 . S
C336 C334 1.415 . S
C336 C341 1.425 . S
C336 C343 1.409 . S
C337 H329 0.930 . S
C337 C335 1.419 . S
C337 C338 1.362 . S
C338 H330 0.930 . S
C338 C337 1.362 . S
C338 C341 1.409 . S
C339 H331 0.930 . S
C339 C340 1.355 . S
C339 C341 1.415 . S
C340 C339 1.355 . S
C340 C342 1.419 . S
C341 C336 1.425 . S
C341 C338 1.409 . S
C341 C339 1.415 . S
C342 H332 0.930 . S
C342 C340 1.419 . S
C342 C343 1.362 . S
C343 H333 0.930 . S
C343 C336 1.409 . S
C343 C342 1.362 . S
H344 C350 0.930 . S
H345 C353 0.930 . S
H346 C354 0.930 . S
H347 C355 0.930 . S
H348 C358 0.930 . S
H349 C359 0.930 . S
C350 H344 0.930 . S
C350 C351 1.355 . S
C350 C352 1.415 . S
C351 C350 1.355 . S
C351 C353 1.419 . S
C352 C350 1.415 . S
C352 C357 1.425 . S
C352 C359 1.409 . S
C353 H345 0.930 . S
C353 C351 1.419 . S
C353 C354 1.362 . S
C354 H346 0.930 . S
C354 C353 1.362 . S
C354 C357 1.409 . S
C355 H347 0.930 . S
C355 C356 1.355 . S
C355 C357 1.415 . S
C356 C355 1.355 . S
C356 C358 1.419 . S
C357 C352 1.425 . S
C357 C354 1.409 . S
C357 C355 1.415 . S
C358 H348 0.930 . S
C358 C356 1.419 . S
C358 C359 1.362 . S
C359 H349 0.930 . S
C359 C352 1.409 . S
C359 C358 1.362 . S
H360 C366 0.930 . S
H361 C369 0.930 . S
H362 C370 0.930 . S
H363 C371 0.930 . S
H364 C374 0.930 . S
H365 C375 0.930 . S
C366 H360 0.930 . S
C366 C367 1.355 . S
C366 C368 1.415 . S
C367 C366 1.355 . S
C367 C369 1.419 . S
C368 C366 1.415 . S
C368 C373 1.425 . S
C368 C375 1.409 . S
C369 H361 0.930 . S
C369 C367 1.419 . S
C369 C370 1.362 . S
C370 H362 0.930 . S
C370 C369 1.362 . S
C370 C373 1.409 . S
C371 H363 0.930 . S
C371 C372 1.355 . S
C371 C373 1.415 . S
C372 C371 1.355 . S
C372 C374 1.419 . S
C373 C368 1.425 . S
C373 C370 1.409 . S
C373 C371 1.415 . S
C374 H364 0.930 . S
C374 C372 1.419 . S
C374 C375 1.362 . S
C375 H365 0.930 . S
C375 C368 1.409 . S
C375 C374 1.362 . S
H376 C382 0.930 . S
H377 C385 0.930 . S
H378 C386 0.930 . S
H379 C387 0.930 . S
H380 C390 0.930 . S
H381 C391 0.930 . S
C382 H376 0.930 . S
C382 C383 1.355 . S
C382 C384 1.415 . S
C383 C382 1.355 . S
C383 C385 1.419 . S
C384 C382 1.415 . S
C384 C389 1.425 . S
C384 C391 1.409 . S
C385 H377 0.930 . S
C385 C383 1.419 . S
C385 C386 1.362 . S
C386 H378 0.930 . S
C386 C385 1.362 . S
C386 C389 1.409 . S
C387 H379 0.930 . S
C387 C388 1.355 . S
C387 C389 1.415 . S
C388 C387 1.355 . S
C388 C390 1.419 . S
C389 C384 1.425 . S
C389 C386 1.409 . S
C389 C387 1.415 . S
C390 H380 0.930 . S
C390 C388 1.419 . S
C390 C391 1.362 . S
C391 H381 0.930 . S
C391 C384 1.409 . S
C391 C390 1.362 . S
H392 C398 0.930 . S
H393 C401 0.930 . S
H394 C402 0.930 . S
H395 C403 0.930 . S
H396 C406 0.930 . S
H397 C407 0.930 . S
C398 H392 0.930 . S
C398 C399 1.355 . S
C398 C400 1.415 . S
C399 C398 1.355 . S
C399 C401 1.419 . S
C400 C398 1.415 . S
C400 C405 1.425 . S
C400 C407 1.409 . S
C401 H393 0.930 . S
C401 C399 1.419 . S
C401 C402 1.362 . S
C402 H394 0.930 . S
C402 C401 1.362 . S
C402 C405 1.409 . S
C403 H395 0.930 . S
C403 C404 1.355 . S
C403 C405 1.415 . S
C404 C403 1.355 . S
C404 C406 1.419 . S
C405 C400 1.425 . S
C405 C402 1.409 . S
C405 C403 1.415 . S
C406 H396 0.930 . S
C406 C404 1.419 . S
C406 C407 1.362 . S
C407 H397 0.930 . S
C407 C400 1.409 . S
C407 C406 1.362 . S
H408 C414 0.930 . S
H409 C417 0.930 . S
H410 C418 0.930 . S
H411 C419 0.930 . S
H412 C422 0.930 . S
H413 C423 0.930 . S
C414 H408 0.930 . S
C414 C415 1.355 . S
C414 C416 1.415 . S
C415 C414 1.355 . S
C415 C417 1.419 . S
C416 C414 1.415 . S
C416 C421 1.425 . S
C416 C423 1.409 . S
C417 H409 0.930 . S
C417 C415 1.419 . S
C417 C418 1.362 . S
C418 H410 0.930 . S
C418 C417 1.362 . S
C418 C421 1.409 . S
C419 H411 0.930 . S
C419 C420 1.355 . S
C419 C421 1.415 . S
C420 C419 1.355 . S
C420 C422 1.419 . S
C421 C416 1.425 . S
C421 C418 1.409 . S
C421 C419 1.415 . S
C422 H412 0.930 . S
C422 C420 1.419 . S
C422 C423 1.362 . S
C423 H413 0.930 . S
C423 C416 1.409 . S
C423 C422 1.362 . S
H424 C430 0.930 . S
H425 C433 0.930 . S
H426 C434 0.930 . S
H427 C435 0.930 . S
H428 C438 0.930 . S
H429 C439 0.930 . S
C430 H424 0.930 . S
C430 C431 1.355 . S
C430 C432 1.415 . S
C431 C430 1.355 . S
C431 C433 1.419 . S
C432 C430 1.415 . S
C432 C437 1.425 . S
C432 C439 1.409 . S
C433 H425 0.930 . S
C433 C431 1.419 . S
C433 C434 1.362 . S
C434 H426 0.930 . S
C434 C433 1.362 . S
C434 C437 1.409 . S
C435 H427 0.930 . S
C435 C436 1.355 . S
C435 C437 1.415 . S
C436 C435 1.355 . S
C436 C438 1.419 . S
C437 C432 1.425 . S
C437 C434 1.409 . S
C437 C435 1.415 . S
C438 H428 0.930 . S
C438 C436 1.419 . S
C438 C439 1.362 . S
C439 H429 0.930 . S
C439 C432 1.409 . S
C439 C438 1.362 . S
H440 C446 0.930 . S
H441 C449 0.930 . S
H442 C450 0.930 . S
H443 C451 0.930 . S
H444 C454 0.930 . S
H445 C455 0.930 . S
C446 H440 0.930 . S
C446 C447 1.355 . S
C446 C448 1.415 . S
C447 C446 1.355 . S
C447 C449 1.419 . S
C448 C446 1.415 . S
C448 C453 1.425 . S
C448 C455 1.409 . S
C449 H441 0.930 . S
C449 C447 1.419 . S
C449 C450 1.362 . S
C450 H442 0.930 . S
C450 C449 1.362 . S
C450 C453 1.409 . S
C451 H443 0.930 . S
C451 C452 1.355 . S
C451 C453 1.415 . S
C452 C451 1.355 . S
C452 C454 1.419 . S
C453 C448 1.425 . S
C453 C450 1.409 . S
C453 C451 1.415 . S
C454 H444 0.930 . S
C454 C452 1.419 . S
C454 C455 1.362 . S
C455 H445 0.930 . S
C455 C448 1.409 . S
C455 C454 1.362 . S
H456 C462 0.930 . S
H457 C465 0.930 . S
H458 C466 0.930 1_556 S
H459 C467 0.930 . S
H460 C470 0.930 . S
H461 C471 0.930 1_554 S
C462 H456 0.930 . S
C462 C463 1.355 1_655 S
C462 C464 1.415 . S
C463 C462 1.355 1_455 S
C463 C465 1.419 . S
C464 C462 1.415 . S
C464 C469 1.425 1_654 S
C464 C471 1.409 1_554 S
C465 H457 0.930 . S
C465 C463 1.419 . S
C465 C466 1.362 . S
C466 H458 0.930 1_554 S
C466 C465 1.362 . S
C466 C469 1.409 1_554 S
C467 H459 0.930 . S
C467 C468 1.355 1_455 S
C467 C469 1.415 . S
C468 C467 1.355 1_655 S
C468 C470 1.419 . S
C469 C464 1.425 1_456 S
C469 C466 1.409 1_556 S
C469 C467 1.415 . S
C470 H460 0.930 . S
C470 C468 1.419 . S
C470 C471 1.362 . S
C471 H461 0.930 1_556 S
C471 C464 1.409 1_556 S
C471 C470 1.362 . S
H472 C478 0.930 . S
H473 C481 0.930 . S
H474 C482 0.930 . S
H475 C483 0.930 . S
H476 C486 0.930 . S
H477 C487 0.930 . S
C478 H472 0.930 . S
C478 C479 1.355 . S
C478 C480 1.415 . S
C479 C478 1.355 . S
C479 C481 1.419 1_554 S
C480 C478 1.415 . S
C480 C485 1.425 1_554 S
C480 C487 1.409 . S
C481 H473 0.930 . S
C481 C479 1.419 1_556 S
C481 C482 1.362 . S
C482 H474 0.930 . S
C482 C481 1.362 . S
C482 C485 1.409 . S
C483 H475 0.930 . S
C483 C484 1.355 . S
C483 C485 1.415 . S
C484 C483 1.355 . S
C484 C486 1.419 1_556 S
C485 C480 1.425 1_556 S
C485 C482 1.409 . S
C485 C483 1.415 . S
C486 H476 0.930 . S
C486 C484 1.419 1_554 S
C486 C487 1.362 . S
C487 H477 0.930 . S
C487 C480 1.409 . S
C487 C486 1.362 . S
H488 C494 0.930 . S
H489 C497 0.930 . S
H490 C498 0.933 . S
H491 C499 0.930 . S
H492 C502 0.930 . S
H493 C503 0.933 . S
C494 H488 0.930 . S
C494 C495 1.355 . S
C494 C496 1.415 . S
C495 C494 1.355 . S
C495 C497 1.419 1_565 S
C496 C494 1.415 . S
C496 C501 1.425 1_564 S
C496 C503 1.409 1_554 S
C497 H489 0.930 . S
C497 C495 1.419 1_545 S
C497 C498 1.362 . S
C498 H490 0.933 . S
C498 C497 1.362 . S
C498 C501 1.409 1_554 S
C499 H491 0.930 . S
C499 C500 1.355 . S
C499 C501 1.415 . S
C500 C499 1.355 . S
C500 C502 1.419 1_545 S
C501 C496 1.425 1_546 S
C501 C498 1.409 1_556 S
C501 C499 1.415 . S
C502 H492 0.930 . S
C502 C500 1.419 1_565 S
C502 C503 1.362 . S
C503 H493 0.933 . S
C503 C496 1.409 1_556 S
C503 C502 1.362 . S
H504 C510 0.930 . S
H505 C513 0.930 . S
H506 C514 0.930 . S
H507 C515 0.930 . S
H508 C518 0.930 . S
H509 C519 0.930 . S
C510 H504 0.930 . S
C510 C511 1.355 . S
C510 C512 1.415 . S
C511 C510 1.355 . S
C511 C513 1.419 1_565 S
C512 C510 1.415 . S
C512 C517 1.425 1_565 S
C512 C519 1.409 . S
C513 H505 0.930 . S
C513 C511 1.419 1_545 S
C513 C514 1.362 . S
C514 H506 0.930 . S
C514 C513 1.362 . S
C514 C517 1.409 . S
C515 H507 0.930 . S
C515 C516 1.355 . S
C515 C517 1.415 . S
C516 C515 1.355 . S
C516 C518 1.419 1_545 S
C517 C512 1.425 1_545 S
C517 C514 1.409 . S
C517 C515 1.415 . S
C518 H508 0.930 . S
C518 C516 1.419 1_565 S
C518 C519 1.362 . S
C519 H509 0.930 . S
C519 C512 1.409 . S
C519 C518 1.362 . S
H520 C526 0.930 . S
H521 C529 0.930 . S
H522 C530 0.930 . S
H523 C531 0.930 . S
H524 C534 0.930 . S
H525 C535 0.930 . S
C526 H520 0.930 . S
C526 C527 1.355 . S
C526 C528 1.415 . S
C527 C526 1.355 . S
C527 C529 1.419 1_655 S
C528 C526 1.415 . S
C528 C533 1.425 1_655 S
C528 C535 1.409 . S
C529 H521 0.930 . S
C529 C527 1.419 1_455 S
C529 C530 1.362 . S
C530 H522 0.930 . S
C530 C529 1.362 . S
C530 C533 1.409 . S
C531 H523 0.930 . S
C531 C532 1.355 . S
C531 C533 1.415 . S
C532 C531 1.355 . S
C532 C534 1.419 1_455 S
C533 C528 1.425 1_455 S
C533 C530 1.409 . S
C533 C531 1.415 . S
C534 H524 0.930 . S
C534 C532 1.419 1_655 S
C534 C535 1.362 . S
C535 H525 0.930 . S
C535 C528 1.409 . S
C535 C534 1.362 . S
H536 C542 0.930 . S
H537 C545 0.930 . S
H538 C546 0.930 . S
H539 C547 0.930 . S
H540 C550 0.930 . S
H541 C551 0.930 . S
C542 H536 0.930 . S
C542 C543 1.355 . S
C542 C544 1.415 . S
C543 C542 1.355 . S
C543 C545 1.419 . S
C544 C542 1.415 . S
C544 C549 1.425 . S
C544 C551 1.409 . S
C545 H537 0.930 . S
C545 C543 1.419 . S
C545 C546 1.362 . S
C546 H538 0.930 . S
C546 C545 1.362 . S
C546 C549 1.409 . S
C547 H539 0.930 . S
C547 C548 1.355 . S
C547 C549 1.415 . S
C548 C547 1.355 . S
C548 C550 1.419 . S
C549 C544 1.425 . S
C549 C546 1.409 . S
C549 C547 1.415 . S
C550 H540 0.930 . S
C550 C548 1.419 . S
C550 C551 1.362 . S
C551 H541 0.930 . S
C551 C544 1.409 . S
C551 C550 1.362 . S
C175 C12 0.672 . S
C180 C102 0.715 . S
C191 C26 0.671 . S
C196 C116 0.728 . S
C207 C40 0.684 . S
C212 C88 0.697 . S
C223 C158 0.720 . S
C228 C54 0.670 . S
C239 C68 0.696 . S
C244 C130 0.646 . S
C255 C144 0.665 . S
C260 C82 0.689 . S
C271 C18 0.706 . S
C276 C96 0.674 . S
C287 C110 0.673 . S
C292 C32 0.710 . S
C303 C4 0.640 . S
C308 C124 0.701 . S
C319 C138 0.700 . S
C324 C74 0.644 . S
C335 C152 0.668 . S
C340 C46 0.727 . S
C351 C60 0.673 . S
C356 C166 0.686 . S
C367 C81 1.637 . S
C372 C11 1.604 . S
C383 C25 1.661 . S
C388 C53 1.632 . S
C399 C39 1.580 . S
C404 C67 1.588 . S
C415 C95 1.643 . S
C420 C165 1.609 . S
C431 C109 1.616 . S
C436 C137 1.589 . S
C447 C123 1.668 . S
C452 C151 1.644 . S
C463 C5 1.402 . S
C468 C89 1.402 . S
C479 C19 1.497 . S
C484 C103 1.497 . S
C495 C33 1.503 . S
C500 C117 1.503 . S
C511 C47 1.504 . S
C516 C131 1.504 . S
C527 C145 1.495 . S
C532 C61 1.495 . S
C543 C75 1.400 . S
C548 C159 1.400 . S
