# Generated by pormake.
# Topology vmc, (5)-cn, num edge types: 1
# Building blocks:
#     Node 0, Type 0, BuildingBlock: XOMCOT_clean_sbu_0, # of connection points: 5
#     Node 1, Type 0, BuildingBlock: XOMCOT_clean_sbu_0, # of connection points: 5
#     Node 2, Type 0, BuildingBlock: XOMCOT_clean_sbu_0, # of connection points: 5
#     Node 3, Type 0, BuildingBlock: XOMCOT_clean_sbu_0, # of connection points: 5
#     Node 4, Type 0, BuildingBlock: XOMCOT_clean_sbu_0, # of connection points: 5
#     Node 5, Type 0, BuildingBlock: XOMCOT_clean_sbu_0, # of connection points: 5
#     Node 6, Type 0, BuildingBlock: XOMCOT_clean_sbu_0, # of connection points: 5
#     Node 7, Type 0, BuildingBlock: XOMCOT_clean_sbu_0, # of connection points: 5
#     Edge 8, Type (0, 0), BuildingBlock: XIVTED_clean_linker_0, # of connection points: 2
#     Edge 9, Type (0, 0), BuildingBlock: XIVTED_clean_linker_0, # of connection points: 2
#     Edge 10, Type (0, 0), BuildingBlock: XIVTED_clean_linker_0, # of connection points: 2
#     Edge 11, Type (0, 0), BuildingBlock: XIVTED_clean_linker_0, # of connection points: 2
#     Edge 12, Type (0, 0), BuildingBlock: XIVTED_clean_linker_0, # of connection points: 2
#     Edge 13, Type (0, 0), BuildingBlock: XIVTED_clean_linker_0, # of connection points: 2
#     Edge 14, Type (0, 0), BuildingBlock: XIVTED_clean_linker_0, # of connection points: 2
#     Edge 15, Type (0, 0), BuildingBlock: XIVTED_clean_linker_0, # of connection points: 2
#     Edge 16, Type (0, 0), BuildingBlock: XIVTED_clean_linker_0, # of connection points: 2
#     Edge 17, Type (0, 0), BuildingBlock: XIVTED_clean_linker_0, # of connection points: 2
#     Edge 18, Type (0, 0), BuildingBlock: XIVTED_clean_linker_0, # of connection points: 2
#     Edge 19, Type (0, 0), BuildingBlock: XIVTED_clean_linker_0, # of connection points: 2
#     Edge 20, Type (0, 0), BuildingBlock: XIVTED_clean_linker_0, # of connection points: 2
#     Edge 21, Type (0, 0), BuildingBlock: XIVTED_clean_linker_0, # of connection points: 2
#     Edge 22, Type (0, 0), BuildingBlock: XIVTED_clean_linker_0, # of connection points: 2
#     Edge 23, Type (0, 0), BuildingBlock: XIVTED_clean_linker_0, # of connection points: 2
#     Edge 24, Type (0, 0), BuildingBlock: XIVTED_clean_linker_0, # of connection points: 2
#     Edge 25, Type (0, 0), BuildingBlock: XIVTED_clean_linker_0, # of connection points: 2
#     Edge 26, Type (0, 0), BuildingBlock: XIVTED_clean_linker_0, # of connection points: 2
#     Edge 27, Type (0, 0), BuildingBlock: XIVTED_clean_linker_0, # of connection points: 2
# Relax obj value: 0.325
# Max RMSD: 0.194
# Mean RMSD: 0.194
data_MOF--net-vmc--node1-XOMCOT_clean_sbu_0--edge1-XIVTED_clean_linker_0
_symmetry_space_group_name_H-M    P1
_symmetry_Int_Tables_number       1
_symmetry_cell_setting            triclinic
loop_
_symmetry_equiv_pos_as_xyz
'x, y, z'
_cell_length_a     28.648446
_cell_length_b     48.291863
_cell_length_c     29.429405
_cell_angle_alpha  89.944076
_cell_angle_beta   90.043506
_cell_angle_gamma 90.012448
loop_
_atom_site_label
_atom_site_type_symbol
_atom_site_fract_x
_atom_site_fract_y
_atom_site_fract_z
_atom_type_partial_charge
Co0 Co 0.26813 0.45933 0.06394 0.0
C1 C 0.21249 0.47744 0.98516 0.0
C2 C 0.20398 0.50492 0.0414 0.0
C3 C 0.18506 0.51719 1.00321 0.0
N4 N 0.22087 0.47977 0.03024 0.0
N5 N 0.19104 0.50001 0.96754 0.0
H6 H 0.22543 0.4607 0.96476 0.0
H7 H 0.20912 0.51484 0.07395 0.0
C8 C 0.19344 0.46849 0.13788 0.0
O9 O 0.15826 0.47001 0.10936 0.0
N10 N 0.31628 0.43954 0.09598 0.0
C11 C 0.34206 0.41853 0.07928 0.0
C12 C 0.37907 0.41391 0.108 0.0
C13 C 0.3378 0.44747 0.1345 0.0
N14 N 0.37631 0.43217 0.14247 0.0
C15 C 0.24797 0.41202 1.00878 0.0
C16 C 0.21474 0.37905 0.0783 0.0
C17 C 0.22636 0.36662 0.03679 0.0
C18 C 0.24139 0.38373 1.00124 0.0
C19 C 0.22151 0.4075 0.0844 0.0
N20 N 0.23912 0.42365 0.05022 0.0
H21 H 0.26496 0.42376 0.98244 0.0
H22 H 0.21638 0.41566 0.11803 0.0
H23 H 0.33613 0.40839 0.04708 0.0
H24 H 0.32744 0.46526 0.15443 0.0
O25 O 0.3107 0.46261 1.01296 0.0
O26 O 0.3043 0.49266 0.0694 0.0
O27 O 0.23473 0.46368 0.12376 0.0
C28 C 0.3262 0.48484 0.03303 0.0
H29 H 0.17207 0.53819 1.0012 0.0
H30 H 0.40671 0.39892 0.10318 0.0
H31 H 0.20281 0.36666 0.10671 0.0
H32 H 0.25185 0.37506 0.96889 0.0
Co33 Co 0.71221 0.45807 0.47522 0.0
C34 C 0.75795 0.47872 0.55793 0.0
C35 C 0.79056 0.49617 0.49925 0.0
C36 C 0.80878 0.50878 0.53759 0.0
N37 N 0.75891 0.47699 0.51212 0.0
N38 N 0.78771 0.49792 0.57448 0.0
H39 H 0.7337 0.46738 0.57887 0.0
H40 H 0.79756 0.50227 0.46462 0.0
C41 C 0.78612 0.46337 0.39855 0.0
O42 O 0.82047 0.45098 0.42003 0.0
N43 N 0.66477 0.4396 0.44016 0.0
C44 C 0.63984 0.41758 0.4545 0.0
C45 C 0.60331 0.41348 0.4251 0.0
C46 C 0.64323 0.44867 0.40228 0.0
N47 N 0.60549 0.43305 0.39253 0.0
C48 C 0.74273 0.41137 0.52723 0.0
C49 C 0.7567 0.37688 0.45359 0.0
C50 C 0.75412 0.36518 0.49717 0.0
C51 C 0.74908 0.38303 0.53438 0.0
C52 C 0.75033 0.4054 0.44792 0.0
N53 N 0.74202 0.42222 0.4844 0.0
H54 H 0.73407 0.42399 0.55605 0.0
H55 H 0.74708 0.41331 0.41376 0.0
H56 H 0.64641 0.4062 0.48551 0.0
H57 H 0.65306 0.46726 0.38406 0.0
O58 O 0.66836 0.45806 0.5256 0.0
O59 O 0.67566 0.49127 0.47405 0.0
O60 O 0.74628 0.46631 0.41719 0.0
C61 C 0.65311 0.48135 0.50865 0.0
H62 H 0.83296 0.526 0.53798 0.0
H63 H 0.57643 0.39782 0.42807 0.0
H64 H 0.75972 0.36392 0.42373 0.0
H65 H 0.74734 0.375 0.56871 0.0
Co66 Co 0.71602 0.56778 0.97474 0.0
C67 C 0.76275 0.54891 0.05837 0.0
C68 C 0.79522 0.53089 1.00013 0.0
C69 C 0.81362 0.51872 0.03875 0.0
N70 N 0.76351 0.55013 1.01247 0.0
N71 N 0.79269 0.52992 0.07542 0.0
H72 H 0.73844 0.56041 0.07896 0.0
H73 H 0.80195 0.52431 0.96571 0.0
C74 C 0.78968 0.56226 0.89835 0.0
O75 O 0.8232 0.57564 0.91946 0.0
N76 N 0.66772 0.58473 0.9386 0.0
C77 C 0.64209 0.60687 0.95102 0.0
C78 C 0.60434 0.60895 0.92244 0.0
C79 C 0.64537 0.57359 0.90273 0.0
N80 N 0.60643 0.58796 0.89236 0.0
C81 C 0.74635 0.61574 0.02346 0.0
C82 C 0.75804 0.64889 0.94772 0.0
C83 C 0.75646 0.66141 0.99069 0.0
C84 C 0.7524 0.64425 0.02895 0.0
C85 C 0.75188 0.62027 0.94372 0.0
N86 N 0.74487 0.60409 0.98127 0.0
H87 H 0.73847 0.6036 0.0531 0.0
H88 H 0.74814 0.61169 0.91008 0.0
H89 H 0.64889 0.61962 0.98049 0.0
H90 H 0.65545 0.5543 0.88678 0.0
O91 O 0.67271 0.56876 0.02539 0.0
O92 O 0.68021 0.53428 0.97625 0.0
O93 O 0.75001 0.55866 0.91704 0.0
C94 C 0.65753 0.54506 1.01006 0.0
H95 H 0.83773 0.50148 0.03949 0.0
H96 H 0.57667 0.62416 0.92446 0.0
H97 H 0.76139 0.66125 0.91717 0.0
H98 H 0.75009 0.65291 0.0628 0.0
Co99 Co 0.26247 0.56591 0.56587 0.0
C100 C 0.22394 0.53673 0.48524 0.0
C101 C 0.16898 0.55293 0.52656 0.0
C102 C 0.14964 0.54153 0.48785 0.0
N103 N 0.21576 0.54993 0.52508 0.0
N104 N 0.18434 0.53137 0.46181 0.0
H105 H 0.25834 0.53238 0.47217 0.0
H106 H 0.15002 0.56376 0.55262 0.0
C107 C 0.18867 0.56403 0.64374 0.0
O108 O 0.16174 0.58392 0.62832 0.0
N109 N 0.30979 0.58175 0.60469 0.0
C110 C 0.33735 0.60321 0.59278 0.0
C111 C 0.37369 0.60492 0.62294 0.0
C112 C 0.32971 0.57059 0.64198 0.0
N113 N 0.3689 0.58439 0.65358 0.0
C114 C 0.23241 0.61296 0.51515 0.0
C115 C 0.22775 0.64869 0.58839 0.0
C116 C 0.22786 0.65988 0.54437 0.0
C117 C 0.22829 0.64147 0.50743 0.0
C118 C 0.2323 0.62017 0.59459 0.0
N119 N 0.23586 0.60271 0.55824 0.0
H120 H 0.23678 0.5993 0.48639 0.0
H121 H 0.2373 0.61246 0.62872 0.0
H122 H 0.33279 0.61572 0.56259 0.0
H123 H 0.31785 0.5517 0.65812 0.0
O124 O 0.30836 0.56686 0.51746 0.0
O125 O 0.29719 0.53196 0.56535 0.0
O126 O 0.22475 0.5562 0.62171 0.0
C127 C 0.32233 0.543 0.53339 0.0
H128 H 0.11292 0.54133 0.47922 0.0
H129 H 0.40242 0.61947 0.6216 0.0
H130 H 0.2268 0.66197 0.61801 0.0
H131 H 0.22895 0.64905 0.4728 0.0
Co132 Co 0.76403 0.95802 0.066 0.0
C133 C 0.72151 0.9808 0.98307 0.0
C134 C 0.68695 0.9972 0.04149 0.0
C135 C 0.66942 1.01016 1.00308 0.0
N136 N 0.7194 0.97847 0.02878 0.0
N137 N 0.69169 0.99992 0.96644 0.0
H138 H 0.7462 0.96972 0.96221 0.0
H139 H 0.67856 1.0026 0.07611 0.0
C140 C 0.68947 0.96398 0.14227 0.0
O141 O 0.65456 0.95231 0.12055 0.0
N142 N 0.80941 0.93777 0.10116 0.0
C143 C 0.82984 0.91401 0.08779 0.0
C144 C 0.86376 0.90711 0.11855 0.0
C145 C 0.83186 0.94544 0.1394 0.0
N146 N 0.86513 0.92686 0.15087 0.0
C147 C 0.73172 0.91262 1.01199 0.0
C148 C 0.71348 0.87795 0.0846 0.0
C149 C 0.71755 0.86641 0.04108 0.0
C150 C 0.72454 0.88437 1.00423 0.0
C151 C 0.72095 0.90627 0.09089 0.0
N152 N 0.73166 0.92314 0.05503 0.0
H153 H 0.74217 0.92531 0.98372 0.0
H154 H 0.7235 0.9138 0.12529 0.0
H155 H 0.82176 0.90296 0.05683 0.0
H156 H 0.82479 0.96443 0.15766 0.0
O157 O 0.80897 0.95767 1.01646 0.0
O158 O 0.80282 0.99025 0.0691 0.0
O159 O 0.7295 0.9664 0.12376 0.0
C160 C 0.8253 0.9804 0.03447 0.0
H161 H 0.64467 0.02709 1.00251 0.0
H162 H 0.88717 0.88958 0.11612 0.0
H163 H 0.70775 0.86494 0.11407 0.0
H164 H 0.7286 0.87643 0.97006 0.0
Co165 Co 0.216 0.95682 0.46893 0.0
C166 C 0.26047 0.97855 0.55155 0.0
C167 C 0.2907 0.99751 0.49289 0.0
C168 C 0.30825 1.01036 0.53134 0.0
N169 N 0.26103 0.97723 0.50568 0.0
N170 N 0.28868 0.99851 0.5682 0.0
H171 H 0.23748 0.96633 0.57251 0.0
H172 H 0.29668 1.00409 0.45831 0.0
C173 C 0.29029 0.96402 0.39296 0.0
O174 O 0.32589 0.95394 0.41576 0.0
N175 N 0.17019 0.9366 0.43432 0.0
C176 C 0.15009 0.91275 0.44786 0.0
C177 C 0.1161 0.9057 0.41728 0.0
C178 C 0.14745 0.94418 0.39617 0.0
N179 N 0.11437 0.92544 0.38491 0.0
C180 C 0.24802 0.91073 0.52195 0.0
C181 C 0.26785 0.87715 0.44848 0.0
C182 C 0.26386 0.86504 0.49161 0.0
C183 C 0.25591 0.88246 0.5289 0.0
C184 C 0.25983 0.9055 0.443 0.0
N185 N 0.24849 0.92185 0.47928 0.0
H186 H 0.23672 0.92288 0.55047 0.0
H187 H 0.25755 0.91343 0.40881 0.0
H188 H 0.15851 0.90169 0.47875 0.0
H189 H 0.15428 0.96316 0.37774 0.0
O190 O 0.17164 0.95647 0.51903 0.0
O191 O 0.17739 0.98908 0.46628 0.0
O192 O 0.24978 0.96527 0.41076 0.0
C193 C 0.15531 0.97927 0.50118 0.0
H194 H 0.33083 0.02833 0.53191 0.0
H195 H 0.09299 0.88803 0.41978 0.0
H196 H 0.27416 0.86455 0.41868 0.0
H197 H 0.25175 0.87405 0.56278 0.0
Co198 Co 0.21445 0.06903 0.96885 0.0
C199 C 0.25955 0.04729 0.0512 0.0
C200 C 0.28758 0.02739 0.99241 0.0
C201 C 0.30529 0.01452 0.03079 0.0
N202 N 0.25924 0.04827 1.00531 0.0
N203 N 0.28711 0.02696 0.06776 0.0
H204 H 0.2375 0.05997 0.07229 0.0
H205 H 0.29241 0.02045 0.95786 0.0
C206 C 0.28919 0.06146 0.89334 0.0
O207 O 0.32517 0.07027 0.91696 0.0
N208 N 0.16897 0.08957 0.93434 0.0
C209 C 0.14873 0.11336 0.94787 0.0
C210 C 0.11548 0.12071 0.91664 0.0
C211 C 0.14714 0.08236 0.89555 0.0
N212 N 0.11443 0.10123 0.88389 0.0
C213 C 0.24462 0.11511 0.02257 0.0
C214 C 0.26781 0.14855 0.9498 0.0
C215 C 0.26167 0.16079 0.99259 0.0
C216 C 0.25204 0.1434 0.02962 0.0
C217 C 0.2599 0.1202 0.94417 0.0
N218 N 0.24696 0.1039 0.98005 0.0
H219 H 0.23191 0.10307 0.05068 0.0
H220 H 0.25908 0.11227 0.90997 0.0
H221 H 0.15658 0.1242 0.97907 0.0
H222 H 0.1544 0.06356 0.87686 0.0
O223 O 0.17002 0.06901 0.01887 0.0
O224 O 0.17556 0.03685 0.9655 0.0
O225 O 0.24839 0.06099 0.91061 0.0
C226 C 0.15351 0.04642 1.00059 0.0
H227 H 0.32693 0.99615 0.03131 0.0
H228 H 0.09245 0.13843 0.91887 0.0
H229 H 0.27564 0.16104 0.9202 0.0
H230 H 0.24612 0.15183 0.0632 0.0
Co231 Co 0.76657 0.06732 0.56411 0.0
C232 C 0.71996 0.04438 0.48366 0.0
C233 C 0.69214 0.02576 0.54369 0.0
C234 C 0.67366 1.01238 0.50613 0.0
N235 N 0.72077 0.0462 0.52946 0.0
N236 N 0.69174 0.02403 0.46839 0.0
H237 H 0.74216 0.05643 0.46172 0.0
H238 H 0.68755 0.01946 0.57862 0.0
C239 C 0.69253 0.06184 0.64069 0.0
O240 O 0.65623 0.06953 0.61648 0.0
N241 N 0.81316 0.08814 0.59672 0.0
C242 C 0.83357 0.11155 0.58165 0.0
C243 C 0.86851 0.11876 0.61116 0.0
C244 C 0.83655 0.08101 0.63469 0.0
N245 N 0.87046 0.09955 0.64439 0.0
C246 C 0.73614 0.11231 0.50785 0.0
C247 C 0.71523 0.14771 0.57866 0.0
C248 C 0.71997 0.15872 0.53477 0.0
C249 C 0.72838 0.14033 0.49888 0.0
C250 C 0.72295 0.11947 0.58616 0.0
N251 N 0.73479 0.10221 0.55118 0.0
H252 H 0.74794 0.09955 0.48031 0.0
H253 H 0.72464 0.11238 0.62087 0.0
H254 H 0.82487 0.12211 0.55037 0.0
H255 H 0.82972 0.06238 0.654 0.0
O256 O 0.81036 0.06579 0.51366 0.0
O257 O 0.80453 0.03484 0.56901 0.0
O258 O 0.73321 0.06103 0.62321 0.0
C259 C 0.82644 0.04344 0.53315 0.0
H260 H 0.65149 0.99423 0.5067 0.0
H261 H 0.8921 0.13611 0.60728 0.0
H262 H 0.70963 0.16109 0.60765 0.0
H263 H 0.7319 0.14778 0.46432 0.0
H264 H 0.12858 0.5818 0.71125 0.0
H265 H 0.23581 0.4769 0.89482 0.0
H266 H 0.23289 0.51977 0.68242 0.0
H267 H 0.13353 0.53899 0.92991 0.0
H268 H 0.22933 0.49035 0.81585 0.0
H269 H 0.12434 0.56462 0.7898 0.0
C270 C 0.15015 0.5644 0.72117 0.0
C271 C 0.1813 0.55235 0.69004 0.0
C272 C 0.20801 0.50099 0.84067 0.0
C273 C 0.17682 0.53271 0.77996 0.0
C274 C 0.2114 0.49312 0.88618 0.0
C275 C 0.18515 0.50675 0.91978 0.0
C276 C 0.17831 0.52281 0.82802 0.0
C277 C 0.15491 0.52807 0.90555 0.0
C278 C 0.14784 0.55468 0.76609 0.0
C279 C 0.20851 0.5299 0.70505 0.0
N280 N 0.15248 0.53552 0.86087 0.0
N281 N 0.20577 0.52098 0.74876 0.0
H282 H 0.71999 0.4946 0.63875 0.0
H283 H 0.86073 0.57244 0.83594 0.0
H284 H 0.86071 0.52373 0.61713 0.0
H285 H 0.73094 0.5281 0.85267 0.0
H286 H 0.86326 0.55678 0.75608 0.0
H287 H 0.72452 0.50925 0.71694 0.0
C288 C 0.75227 0.50374 0.65046 0.0
C289 C 0.79038 0.50736 0.62109 0.0
C290 C 0.83448 0.55046 0.77754 0.0
C291 C 0.7955 0.52504 0.71186 0.0
C292 C 0.83307 0.55932 0.82309 0.0
C293 C 0.79539 0.55181 0.85114 0.0
C294 C 0.79788 0.53411 0.76021 0.0
C295 C 0.76051 0.53478 0.83256 0.0
C296 C 0.75473 0.51237 0.69543 0.0
C297 C 0.83051 0.52047 0.63851 0.0
N298 N 0.76257 0.52672 0.78857 0.0
N299 N 0.8321 0.52882 0.68285 0.0
H300 H 0.72604 0.49697 0.35336 0.0
H301 H 0.86467 0.50265 0.1173 0.0
H302 H 0.85799 0.45506 0.3362 0.0
H303 H 0.72648 0.5352 0.14114 0.0
H304 H 0.86696 0.48661 0.19675 0.0
H305 H 0.73042 0.5133 0.27602 0.0
C306 C 0.75617 0.49113 0.33332 0.0
C307 C 0.79156 0.47432 0.35156 0.0
C308 C 0.83635 0.49741 0.18439 0.0
C309 C 0.79676 0.49327 0.26145 0.0
C310 C 0.83491 0.5065 0.13902 0.0
C311 C 0.79552 0.52065 0.1222 0.0
C312 C 0.79811 0.5025 0.21308 0.0
C313 C 0.75814 0.5251 0.15219 0.0
C314 C 0.75862 0.50056 0.2888 0.0
C315 C 0.82987 0.46791 0.32359 0.0
N316 N 0.76047 0.5161 0.19578 0.0
N317 N 0.8314 0.4773 0.27974 0.0
H318 H 0.25334 0.45545 0.20664 0.0
H319 H 0.11498 0.53889 0.39911 0.0
H320 H 0.1197 0.49389 0.18208 0.0
H321 H 0.24586 0.49664 0.42063 0.0
H322 H 0.11285 0.52074 0.32142 0.0
H323 H 0.24793 0.46834 0.28627 0.0
C324 C 0.22259 0.46649 0.21802 0.0
C325 C 0.18705 0.47376 0.18731 0.0
C326 C 0.1419 0.51535 0.34326 0.0
C327 C 0.18076 0.48888 0.27931 0.0
C328 C 0.14306 0.52561 0.38781 0.0
C329 C 0.18092 0.51955 0.41667 0.0
C330 C 0.1788 0.49885 0.3273 0.0
C331 C 0.21643 0.50239 0.39963 0.0
C332 C 0.21953 0.47386 0.26372 0.0
C333 C 0.14791 0.48783 0.20446 0.0
N334 N 0.21456 0.49281 0.35623 0.0
N335 N 0.146 0.49516 0.24923 0.0
H336 H 0.76282 1.00119 0.90609 0.0
H337 H 0.61446 0.06229 0.69735 0.0
H338 H 0.61722 0.022 0.92082 0.0
H339 H 0.76137 0.04227 0.69543 0.0
H340 H 0.6118 0.04801 0.77798 0.0
H341 H 0.7602 0.01642 0.82787 0.0
C342 C 0.73 1.00872 0.89274 0.0
C343 C 0.68998 1.00986 0.92009 0.0
C344 C 0.64449 0.04687 0.75965 0.0
C345 C 0.68677 0.02805 0.82948 0.0
C346 C 0.64603 0.05498 0.71367 0.0
C347 C 0.6882 0.0536 0.68931 0.0
C348 C 0.68539 0.0373 0.78111 0.0
C349 C 0.72798 0.04392 0.71236 0.0
C350 C 0.72856 0.01769 0.84786 0.0
C351 C 0.64887 0.02075 0.9009 0.0
N352 N 0.72549 0.03622 0.75652 0.0
N353 N 0.6482 0.02933 0.85662 0.0
H354 H 0.36469 0.06613 0.83408 0.0
H355 H 0.22081 0.99419 0.632 0.0
H356 H 0.22386 0.03472 0.84302 0.0
H357 H 0.36083 0.02466 0.61156 0.0
H358 H 0.22435 1.00875 0.7104 0.0
H359 H 0.36723 0.05096 0.75395 0.0
C360 C 0.3345 0.05602 0.81943 0.0
C361 C 0.29393 0.0519 0.84548 0.0
C362 C 0.25459 1.01226 0.6891 0.0
C363 C 0.29657 0.0346 0.75423 0.0
C364 C 0.2527 1.00366 0.64406 0.0
C365 C 0.29087 1.00775 0.61495 0.0
C366 C 0.29491 0.02528 0.70591 0.0
C367 C 0.33058 0.0211 0.63275 0.0
C368 C 0.33592 0.04745 0.77371 0.0
C369 C 0.25584 0.03869 0.82458 0.0
N370 N 0.33167 0.02935 0.67717 0.0
N371 N 0.25817 0.03064 0.78058 0.0
H372 H 0.22127 0.03334 0.13315 0.0
H373 H 0.36396 0.95736 0.33214 0.0
H374 H 0.35847 0.99934 0.10993 0.0
H375 H 0.2267 0.99348 0.34463 0.0
H376 H 0.36598 0.97273 0.25205 0.0
H377 H 0.22575 0.01904 0.21165 0.0
C378 C 0.25277 0.02316 0.14459 0.0
C379 C 0.28986 0.01798 0.11465 0.0
C380 C 0.33559 0.97726 0.27259 0.0
C381 C 0.29491 1.00073 0.20576 0.0
C382 C 0.33448 0.96859 0.31828 0.0
C383 C 0.29501 0.97394 0.34528 0.0
C384 C 0.29703 0.99144 0.25409 0.0
C385 C 0.2578 0.98855 0.32541 0.0
C386 C 0.25517 0.01471 0.18971 0.0
C387 C 0.32903 1.00374 0.13175 0.0
N388 N 0.25978 0.99664 0.28138 0.0
N389 N 0.33062 0.99564 0.17624 0.0
H390 H 0.61886 0.99683 0.42799 0.0
H391 H 0.74921 0.99776 0.1872 0.0
H392 H 0.75692 0.02889 0.40203 0.0
H393 H 0.61968 0.95348 0.20599 0.0
H394 H 0.74707 1.01197 0.26573 0.0
H395 H 0.61402 0.9823 0.34771 0.0
C396 C 0.64806 1.00081 0.4056 0.0
C397 C 0.68804 0.01457 0.42186 0.0
C398 C 0.71891 0.99915 0.25306 0.0
C399 C 0.68261 0.99822 0.3303 0.0
C400 C 0.72006 0.99099 0.20786 0.0
C401 C 0.68474 0.97411 0.18975 0.0
C402 C 0.68221 0.99049 0.28124 0.0
C403 C 0.64768 0.96645 0.2185 0.0
C404 C 0.64519 0.99262 0.35982 0.0
C405 C 0.7248 0.01917 0.39124 0.0
N406 N 0.64747 0.97458 0.26303 0.0
N407 N 0.72107 1.01111 0.3473 0.0
H408 H 0.39322 0.46377 0.97669 0.0
H409 H 0.58957 0.57012 0.06102 0.0
H410 H 0.36521 0.53179 0.06768 0.0
H411 H 0.61826 0.4965 0.98282 0.0
H412 H 0.50708 0.557 0.06363 0.0
H413 H 0.47521 0.47768 0.9742 0.0
C414 C 0.40409 0.48202 0.99527 0.0
C415 C 0.3724 0.49663 0.02247 0.0
C416 C 0.53155 0.54356 0.04635 0.0
C417 C 0.46633 0.51221 0.02084 0.0
C418 C 0.57874 0.55086 0.04538 0.0
C419 C 0.61081 0.53438 0.02168 0.0
C420 C 0.51645 0.51971 0.02327 0.0
C421 C 0.59472 0.50985 1.00146 0.0
C422 C 0.45104 0.48973 0.99438 0.0
C423 C 0.38854 0.51992 0.04632 0.0
N424 N 0.54863 0.5034 1.00235 0.0
N425 N 0.43445 0.52688 0.04522 0.0
H426 H 0.61824 0.53177 0.4852 0.0
H427 H 0.35769 0.49296 0.55888 0.0
H428 H 0.58226 0.45645 0.55596 0.0
H429 H 0.3941 0.56812 0.48785 0.0
H430 H 0.43944 0.47886 0.55707 0.0
H431 H 0.53675 0.54621 0.48856 0.0
C432 C 0.5933 0.51851 0.50231 0.0
C433 C 0.60702 0.49286 0.52035 0.0
C434 C 0.42955 0.49831 0.54149 0.0
C435 C 0.51336 0.50895 0.52325 0.0
C436 C 0.38277 0.50626 0.54208 0.0
C437 C 0.36905 0.53174 0.52337 0.0
C438 C 0.46297 0.51603 0.52222 0.0
C439 C 0.40308 0.54821 0.50234 0.0
C440 C 0.54666 0.52665 0.50381 0.0
C441 C 0.57323 0.47648 0.54194 0.0
N442 N 0.44856 0.54016 0.50264 0.0
N443 N 0.52782 0.48469 0.5424 0.0
H444 H 0.08569 0.06944 0.0544 0.0
H445 H 0.89341 0.95705 0.98141 0.0
H446 H 0.1156 0.99788 0.97169 0.0
H447 H 0.86338 0.02888 0.06346 0.0
H448 H 0.97482 0.97218 0.97594 0.0
H449 H 0.0044 0.05413 0.06025 0.0
C450 C 0.07539 0.05022 0.0383 0.0
C451 C 0.10739 0.03493 1.01252 0.0
C452 C 0.9503 0.98476 0.99482 0.0
C453 C 0.01438 0.01765 1.01799 0.0
C454 C 0.90371 0.97628 0.99745 0.0
C455 C 0.87163 0.99172 0.02289 0.0
C456 C 0.96477 1.0088 1.01786 0.0
C457 C 0.887 0.0163 0.04353 0.0
C458 C 0.02888 0.04165 0.04115 0.0
C459 C 0.09203 1.01035 0.99185 0.0
N460 N 0.93249 0.02398 0.04081 0.0
N461 N 0.0466 1.00259 0.99477 0.0
H462 H 0.86169 0.99402 0.56127 0.0
H463 H 0.12001 0.02932 0.47675 0.0
H464 H 0.89638 0.0663 0.48189 0.0
H465 H 0.08495 0.95473 0.55 0.0
H466 H 0.0388 0.04404 0.48135 0.0
H467 H 0.94285 0.97898 0.55695 0.0
C468 C 0.88627 1.00647 0.54215 0.0
C469 C 0.8723 0.03145 0.52185 0.0
C470 C 0.04883 0.02457 0.4968 0.0
C471 C 0.96557 0.01467 0.51775 0.0
C472 C 0.09532 0.01626 0.4946 0.0
C473 C 0.10922 0.99074 0.51304 0.0
C474 C 0.01581 1.00721 0.51749 0.0
C475 C 0.07576 0.97465 0.53564 0.0
C476 C 0.9327 0.99798 0.54006 0.0
C477 C 0.90559 0.0468 0.49771 0.0
N478 N 0.03045 0.98305 0.5369 0.0
N479 N 0.95083 0.03828 0.49668 0.0
H480 H 0.25802 0.32853 0.09872 0.0
H481 H 0.22358 0.1985 0.93344 0.0
H482 H 0.2006 0.3347 0.96347 0.0
H483 H 0.29236 0.19329 0.06377 0.0
H484 H 0.21394 0.24815 0.94437 0.0
H485 H 0.26751 0.27871 0.08801 0.0
C486 C 0.2467 0.31938 0.06699 0.0
C487 C 0.22824 0.33592 0.032 0.0
C488 C 0.23139 0.23621 0.9705 0.0
C489 C 0.24001 0.27876 0.01917 0.0
C490 C 0.23743 0.2078 0.96408 0.0
C491 C 0.25922 0.19152 0.99758 0.0
C492 C 0.24696 0.24863 1.01086 0.0
C493 C 0.27507 0.20486 0.03713 0.0
C494 C 0.25264 0.29092 0.06073 0.0
C495 C 0.21527 0.32286 0.99127 0.0
N496 N 0.26854 0.23257 0.04269 0.0
N497 N 0.22142 0.29511 0.98599 0.0
H498 H 0.80365 0.32434 0.45305 0.0
H499 H 0.6671 0.1996 0.57513 0.0
H500 H 0.69663 0.33615 0.55435 0.0
H501 H 0.7787 0.1877 0.47859 0.0
H502 H 0.67604 0.24973 0.56656 0.0
H503 H 0.79394 0.27418 0.4607 0.0
C504 C 0.77824 0.31642 0.47699 0.0
C505 C 0.7512 0.33459 0.5033 0.0
C506 C 0.6984 0.23613 0.54707 0.0
C507 C 0.73973 0.27711 0.51216 0.0
C508 C 0.69333 0.20747 0.552 0.0
C509 C 0.72197 0.18926 0.5274 0.0
C510 C 0.73247 0.24676 0.51743 0.0
C511 C 0.75514 0.20079 0.49765 0.0
C512 C 0.77274 0.28776 0.48141 0.0
C513 C 0.71895 0.32304 0.53397 0.0
N514 N 0.75953 0.22872 0.49361 0.0
N515 N 0.71406 0.29512 0.53744 0.0
H516 H 0.76248 0.82893 0.09555 0.0
H517 H 0.70925 0.69829 0.93648 0.0
H518 H 0.68195 0.83419 0.97181 0.0
H519 H 0.79569 0.6946 0.05656 0.0
H520 H 0.69916 0.74793 0.94836 0.0
H521 H 0.77304 0.77951 0.08263 0.0
C522 C 0.74632 0.81964 0.06598 0.0
C523 C 0.72086 0.83584 0.03493 0.0
C524 C 0.72054 0.7363 0.97199 0.0
C525 C 0.73395 0.77905 0.01931 0.0
C526 C 0.72677 0.70794 0.96497 0.0
C527 C 0.75358 0.69211 0.99547 0.0
C528 C 0.74107 0.74907 1.00989 0.0
C529 C 0.77437 0.70582 0.03239 0.0
C530 C 0.75287 0.7914 0.05836 0.0
C531 C 0.70199 0.82262 0.99657 0.0
N532 N 0.76758 0.73344 0.0386 0.0
N533 N 0.7089 0.79503 0.98986 0.0
H534 H 0.22045 0.82732 0.43636 0.0
H535 H 0.27951 0.69685 0.59419 0.0
H536 H 0.3013 0.83281 0.55983 0.0
H537 H 0.1882 0.69256 0.47761 0.0
H538 H 0.28967 0.74625 0.5808 0.0
H539 H 0.21193 0.77759 0.44852 0.0
C540 C 0.2371 0.81803 0.46569 0.0
C541 C 0.26195 0.83437 0.49698 0.0
C542 C 0.26725 0.73456 0.55822 0.0
C543 C 0.25135 0.77727 0.51162 0.0
C544 C 0.26099 0.7063 0.56609 0.0
C545 C 0.23247 0.69037 0.53727 0.0
C546 C 0.24512 0.7472 0.52105 0.0
C547 C 0.2107 0.70386 0.5006 0.0
C548 C 0.23175 0.78962 0.47286 0.0
C549 C 0.28165 0.82113 0.53495 0.0
N550 N 0.21747 0.73144 0.49356 0.0
N551 N 0.27591 0.79341 0.54119 0.0
H552 H 0.51206 0.42882 0.39983 0.0
H553 H 0.47 0.42803 0.13518 0.0
H554 H 0.62256 0.44748 0.3054 0.0
H555 H 0.35929 0.44583 0.22984 0.0
H556 H 0.52689 0.43273 0.19683 0.0
H557 H 0.45523 0.43281 0.33806 0.0
C558 C 0.52417 0.43384 0.36597 0.0
C559 C 0.57184 0.43754 0.35727 0.0
C560 C 0.4902 0.43584 0.20402 0.0
C561 C 0.50749 0.44196 0.2867 0.0
C562 C 0.4578 0.43291 0.16905 0.0
C563 C 0.41005 0.43623 0.17783 0.0
C564 C 0.47454 0.44162 0.24815 0.0
C565 C 0.39589 0.44309 0.22195 0.0
C566 C 0.49184 0.4363 0.33089 0.0
C567 C 0.58598 0.44447 0.31316 0.0
N568 N 0.42801 0.4452 0.25574 0.0
N569 N 0.55393 0.44605 0.2792 0.0
H570 H 0.35066 0.57107 0.74092 0.0
H571 H 0.62145 0.56755 0.80823 0.0
H572 H 0.4622 0.58203 0.64452 0.0
H573 H 0.51287 0.59236 0.90092 0.0
H574 H 0.56198 0.55966 0.74943 0.0
H575 H 0.40905 0.56559 0.8018 0.0
C576 C 0.38747 0.5718 0.73266 0.0
C577 C 0.402 0.5774 0.6882 0.0
C578 C 0.55124 0.56658 0.78282 0.0
C579 C 0.46833 0.57101 0.75662 0.0
C580 C 0.58502 0.57098 0.81622 0.0
C581 C 0.57188 0.58106 0.85894 0.0
C582 C 0.50411 0.57189 0.79266 0.0
C583 C 0.52432 0.58518 0.86795 0.0
C584 C 0.42062 0.56883 0.76717 0.0
C585 C 0.44991 0.57822 0.67873 0.0
N586 N 0.49206 0.58067 0.83498 0.0
N587 N 0.48147 0.57519 0.71273 0.0
H588 H 0.07791 0.88209 0.33994 0.0
H589 H 0.90319 0.97302 0.18896 0.0
H590 H 0.07476 0.97124 0.34711 0.0
H591 H 0.90341 0.8838 0.19542 0.0
H592 H 0.96602 0.97394 0.24589 0.0
H593 H 0.01565 0.88329 0.28393 0.0
C594 C 0.06402 0.90196 0.32957 0.0
C595 C 0.08112 0.92656 0.34842 0.0
C596 C 0.9521 0.95421 0.23488 0.0
C597 C 0.00955 0.92824 0.28415 0.0
C598 C 0.91607 0.95369 0.20277 0.0
C599 C 0.89845 0.92826 0.18728 0.0
C600 C 0.97032 0.92912 0.25142 0.0
C601 C 0.91658 0.9038 0.20583 0.0
C602 C 0.02844 0.90268 0.29756 0.0
C603 C 0.06259 0.95182 0.33315 0.0
N604 N 0.95156 0.90485 0.23671 0.0
N605 N 0.02745 0.95203 0.30198 0.0
H606 H 0.07879 0.14489 0.83879 0.0
H607 H 0.90644 0.05381 0.68566 0.0
H608 H 0.07633 0.05567 0.84422 0.0
H609 H 0.91212 0.14307 0.68489 0.0
H610 H 0.96824 0.0532 0.74345 0.0
H611 H 0.01862 0.14388 0.78053 0.0
C612 C 0.06551 0.12505 0.82757 0.0
C613 C 0.0822 0.10036 0.84653 0.0
C614 C 0.95585 0.07288 0.73059 0.0
C615 C 0.01313 0.09891 0.77972 0.0
C616 C 0.92037 0.07325 0.69795 0.0
C617 C 0.90436 0.09855 0.68034 0.0
C618 C 0.97514 0.09801 0.74565 0.0
C619 C 0.92395 0.12312 0.69699 0.0
C620 C 0.03118 0.12444 0.79424 0.0
C621 C 0.06449 0.07516 0.8302 0.0
N622 N 0.95828 0.12222 0.7286 0.0
N623 N 0.03056 0.07506 0.79783 0.0
loop_
_geom_bond_atom_site_label_1
_geom_bond_atom_site_label_2
_geom_bond_distance
_geom_bond_site_symmetry_2
_ccdc_geom_bond_type
Co0 N4 2.148 . S
Co0 N10 2.128 . S
Co0 N20 2.194 . S
Co0 O25 2.351 . S
Co0 O26 2.155 . S
Co0 O27 2.096 . S
C1 N4 1.301 1_556 S
C1 N5 1.328 . S
C1 H6 0.930 . S
C2 C3 1.333 1_554 S
C2 N4 1.317 . S
C2 H7 0.930 . S
C3 C2 1.333 1_556 S
C3 N5 1.350 . S
C3 H29 0.931 . S
N4 Co0 2.148 . S
N4 C1 1.301 1_554 S
N4 C2 1.317 . S
N5 C1 1.328 . S
N5 C3 1.350 . S
H6 C1 0.930 . S
H7 C2 0.930 . S
C8 O9 1.224 . S
C8 O27 1.247 . S
O9 C8 1.224 . S
N10 Co0 2.128 . S
N10 C11 1.355 . S
N10 C13 1.311 . S
C11 N10 1.355 . S
C11 C12 1.363 . S
C11 H23 0.929 . S
C12 C11 1.363 . S
C12 N14 1.375 . S
C12 H30 0.931 . S
C13 N10 1.311 . S
C13 N14 1.347 . S
C13 H24 0.929 . S
N14 C12 1.375 . S
N14 C13 1.347 . S
C15 C18 1.365 . S
C15 N20 1.328 . S
C15 H21 0.929 1_554 S
C16 C17 1.362 . S
C16 C19 1.378 . S
C16 H31 0.929 . S
C17 C16 1.362 . S
C17 C18 1.366 . S
C18 C15 1.365 . S
C18 C17 1.366 . S
C18 H32 0.930 1_554 S
C19 C16 1.378 . S
C19 N20 1.315 . S
C19 H22 0.930 . S
N20 Co0 2.194 . S
N20 C15 1.328 . S
N20 C19 1.315 . S
H21 C15 0.929 1_556 S
H22 C19 0.930 . S
H23 C11 0.929 . S
H24 C13 0.929 . S
O25 Co0 2.351 . S
O25 C28 1.244 . S
O26 Co0 2.155 . S
O26 C28 1.240 . S
O27 Co0 2.096 . S
O27 C8 1.247 . S
C28 O25 1.244 . S
C28 O26 1.240 . S
H29 C3 0.931 . S
H30 C12 0.931 . S
H31 C16 0.929 . S
H32 C18 0.930 1_556 S
Co33 N37 2.148 . S
Co33 N43 2.128 . S
Co33 N53 2.194 . S
Co33 O58 2.351 . S
Co33 O59 2.155 . S
Co33 O60 2.096 . S
C34 N37 1.301 . S
C34 N38 1.328 . S
C34 H39 0.930 . S
C35 C36 1.333 . S
C35 N37 1.317 . S
C35 H40 0.930 . S
C36 C35 1.333 . S
C36 N38 1.350 . S
C36 H62 0.931 . S
N37 Co33 2.148 . S
N37 C34 1.301 . S
N37 C35 1.317 . S
N38 C34 1.328 . S
N38 C36 1.350 . S
H39 C34 0.930 . S
H40 C35 0.930 . S
C41 O42 1.224 . S
C41 O60 1.247 . S
O42 C41 1.224 . S
N43 Co33 2.128 . S
N43 C44 1.355 . S
N43 C46 1.311 . S
C44 N43 1.355 . S
C44 C45 1.363 . S
C44 H56 0.929 . S
C45 C44 1.363 . S
C45 N47 1.375 . S
C45 H63 0.931 . S
C46 N43 1.311 . S
C46 N47 1.347 . S
C46 H57 0.929 . S
N47 C45 1.375 . S
N47 C46 1.347 . S
C48 C51 1.365 . S
C48 N53 1.328 . S
C48 H54 0.929 . S
C49 C50 1.362 . S
C49 C52 1.378 . S
C49 H64 0.929 . S
C50 C49 1.362 . S
C50 C51 1.366 . S
C51 C48 1.365 . S
C51 C50 1.366 . S
C51 H65 0.930 . S
C52 C49 1.378 . S
C52 N53 1.315 . S
C52 H55 0.930 . S
N53 Co33 2.194 . S
N53 C48 1.328 . S
N53 C52 1.315 . S
H54 C48 0.929 . S
H55 C52 0.930 . S
H56 C44 0.929 . S
H57 C46 0.929 . S
O58 Co33 2.351 . S
O58 C61 1.244 . S
O59 Co33 2.155 . S
O59 C61 1.240 . S
O60 Co33 2.096 . S
O60 C41 1.247 . S
C61 O58 1.244 . S
C61 O59 1.240 . S
H62 C36 0.931 . S
H63 C45 0.931 . S
H64 C49 0.929 . S
H65 C51 0.930 . S
Co66 N70 2.148 . S
Co66 N76 2.128 . S
Co66 N86 2.194 . S
Co66 O91 2.351 . S
Co66 O92 2.155 . S
Co66 O93 2.096 . S
C67 N70 1.301 1_554 S
C67 N71 1.328 . S
C67 H72 0.930 . S
C68 C69 1.333 1_556 S
C68 N70 1.317 . S
C68 H73 0.930 . S
C69 C68 1.333 1_554 S
C69 N71 1.350 . S
C69 H95 0.931 . S
N70 Co66 2.148 . S
N70 C67 1.301 1_556 S
N70 C68 1.317 . S
N71 C67 1.328 . S
N71 C69 1.350 . S
H72 C67 0.930 . S
H73 C68 0.930 . S
C74 O75 1.224 . S
C74 O93 1.247 . S
O75 C74 1.224 . S
N76 Co66 2.128 . S
N76 C77 1.355 . S
N76 C79 1.311 . S
C77 N76 1.355 . S
C77 C78 1.363 . S
C77 H89 0.929 . S
C78 C77 1.363 . S
C78 N80 1.375 . S
C78 H96 0.931 . S
C79 N76 1.311 . S
C79 N80 1.347 . S
C79 H90 0.929 . S
N80 C78 1.375 . S
N80 C79 1.347 . S
C81 C84 1.365 . S
C81 N86 1.328 . S
C81 H87 0.929 1_556 S
C82 C83 1.362 . S
C82 C85 1.378 . S
C82 H97 0.929 . S
C83 C82 1.362 . S
C83 C84 1.366 . S
C84 C81 1.365 . S
C84 C83 1.366 . S
C84 H98 0.930 1_556 S
C85 C82 1.378 . S
C85 N86 1.315 . S
C85 H88 0.930 . S
N86 Co66 2.194 . S
N86 C81 1.328 . S
N86 C85 1.315 . S
H87 C81 0.929 1_554 S
H88 C85 0.930 . S
H89 C77 0.929 . S
H90 C79 0.929 . S
O91 Co66 2.351 . S
O91 C94 1.244 . S
O92 Co66 2.155 . S
O92 C94 1.240 . S
O93 Co66 2.096 . S
O93 C74 1.247 . S
C94 O91 1.244 . S
C94 O92 1.240 . S
H95 C69 0.931 . S
H96 C78 0.931 . S
H97 C82 0.929 . S
H98 C84 0.930 1_554 S
Co99 N103 2.148 . S
Co99 N109 2.128 . S
Co99 N119 2.194 . S
Co99 O124 2.351 . S
Co99 O125 2.155 . S
Co99 O126 2.096 . S
C100 N103 1.301 . S
C100 N104 1.328 . S
C100 H105 0.930 . S
C101 C102 1.333 . S
C101 N103 1.317 . S
C101 H106 0.930 . S
C102 C101 1.333 . S
C102 N104 1.350 . S
C102 H128 0.931 . S
N103 Co99 2.148 . S
N103 C100 1.301 . S
N103 C101 1.317 . S
N104 C100 1.328 . S
N104 C102 1.350 . S
H105 C100 0.930 . S
H106 C101 0.930 . S
C107 O108 1.224 . S
C107 O126 1.247 . S
O108 C107 1.224 . S
N109 Co99 2.128 . S
N109 C110 1.355 . S
N109 C112 1.311 . S
C110 N109 1.355 . S
C110 C111 1.363 . S
C110 H122 0.929 . S
C111 C110 1.363 . S
C111 N113 1.375 . S
C111 H129 0.931 . S
C112 N109 1.311 . S
C112 N113 1.347 . S
C112 H123 0.929 . S
N113 C111 1.375 . S
N113 C112 1.347 . S
C114 C117 1.365 . S
C114 N119 1.328 . S
C114 H120 0.929 . S
C115 C116 1.362 . S
C115 C118 1.378 . S
C115 H130 0.929 . S
C116 C115 1.362 . S
C116 C117 1.366 . S
C117 C114 1.365 . S
C117 C116 1.366 . S
C117 H131 0.930 . S
C118 C115 1.378 . S
C118 N119 1.315 . S
C118 H121 0.930 . S
N119 Co99 2.194 . S
N119 C114 1.328 . S
N119 C118 1.315 . S
H120 C114 0.929 . S
H121 C118 0.930 . S
H122 C110 0.929 . S
H123 C112 0.929 . S
O124 Co99 2.351 . S
O124 C127 1.244 . S
O125 Co99 2.155 . S
O125 C127 1.240 . S
O126 Co99 2.096 . S
O126 C107 1.247 . S
C127 O124 1.244 . S
C127 O125 1.240 . S
H128 C102 0.931 . S
H129 C111 0.931 . S
H130 C115 0.929 . S
H131 C117 0.930 . S
Co132 N136 2.148 . S
Co132 N142 2.128 . S
Co132 N152 2.194 . S
Co132 O157 2.351 . S
Co132 O158 2.155 . S
Co132 O159 2.096 . S
C133 N136 1.301 1_556 S
C133 N137 1.328 . S
C133 H138 0.930 . S
C134 C135 1.333 1_554 S
C134 N136 1.317 . S
C134 H139 0.930 . S
C135 C134 1.333 1_556 S
C135 N137 1.350 . S
C135 H161 0.931 . S
N136 Co132 2.148 . S
N136 C133 1.301 1_554 S
N136 C134 1.317 . S
N137 C133 1.328 . S
N137 C135 1.350 . S
H138 C133 0.930 . S
H139 C134 0.930 . S
C140 O141 1.224 . S
C140 O159 1.247 . S
O141 C140 1.224 . S
N142 Co132 2.128 . S
N142 C143 1.355 . S
N142 C145 1.311 . S
C143 N142 1.355 . S
C143 C144 1.363 . S
C143 H155 0.929 . S
C144 C143 1.363 . S
C144 N146 1.375 . S
C144 H162 0.931 . S
C145 N142 1.311 . S
C145 N146 1.347 . S
C145 H156 0.929 . S
N146 C144 1.375 . S
N146 C145 1.347 . S
C147 C150 1.365 . S
C147 N152 1.328 . S
C147 H153 0.929 1_554 S
C148 C149 1.362 . S
C148 C151 1.378 . S
C148 H163 0.929 . S
C149 C148 1.362 . S
C149 C150 1.366 . S
C150 C147 1.365 . S
C150 C149 1.366 . S
C150 H164 0.930 1_554 S
C151 C148 1.378 . S
C151 N152 1.315 . S
C151 H154 0.930 . S
N152 Co132 2.194 . S
N152 C147 1.328 . S
N152 C151 1.315 . S
H153 C147 0.929 1_556 S
H154 C151 0.930 . S
H155 C143 0.929 . S
H156 C145 0.929 . S
O157 Co132 2.351 . S
O157 C160 1.244 . S
O158 Co132 2.155 . S
O158 C160 1.240 . S
O159 Co132 2.096 . S
O159 C140 1.247 . S
C160 O157 1.244 . S
C160 O158 1.240 . S
H161 C135 0.931 . S
H162 C144 0.931 . S
H163 C148 0.929 . S
H164 C150 0.930 1_556 S
Co165 N169 2.148 . S
Co165 N175 2.128 . S
Co165 N185 2.194 . S
Co165 O190 2.351 . S
Co165 O191 2.155 . S
Co165 O192 2.096 . S
C166 N169 1.301 . S
C166 N170 1.328 . S
C166 H171 0.930 . S
C167 C168 1.333 . S
C167 N169 1.317 . S
C167 H172 0.930 . S
C168 C167 1.333 . S
C168 N170 1.350 . S
C168 H194 0.931 . S
N169 Co165 2.148 . S
N169 C166 1.301 . S
N169 C167 1.317 . S
N170 C166 1.328 . S
N170 C168 1.350 . S
H171 C166 0.930 . S
H172 C167 0.930 . S
C173 O174 1.224 . S
C173 O192 1.247 . S
O174 C173 1.224 . S
N175 Co165 2.128 . S
N175 C176 1.355 . S
N175 C178 1.311 . S
C176 N175 1.355 . S
C176 C177 1.363 . S
C176 H188 0.929 . S
C177 C176 1.363 . S
C177 N179 1.375 . S
C177 H195 0.931 . S
C178 N175 1.311 . S
C178 N179 1.347 . S
C178 H189 0.929 . S
N179 C177 1.375 . S
N179 C178 1.347 . S
C180 C183 1.365 . S
C180 N185 1.328 . S
C180 H186 0.929 . S
C181 C182 1.362 . S
C181 C184 1.378 . S
C181 H196 0.929 . S
C182 C181 1.362 . S
C182 C183 1.366 . S
C183 C180 1.365 . S
C183 C182 1.366 . S
C183 H197 0.930 . S
C184 C181 1.378 . S
C184 N185 1.315 . S
C184 H187 0.930 . S
N185 Co165 2.194 . S
N185 C180 1.328 . S
N185 C184 1.315 . S
H186 C180 0.929 . S
H187 C184 0.930 . S
H188 C176 0.929 . S
H189 C178 0.929 . S
O190 Co165 2.351 . S
O190 C193 1.244 . S
O191 Co165 2.155 . S
O191 C193 1.240 . S
O192 Co165 2.096 . S
O192 C173 1.247 . S
C193 O190 1.244 . S
C193 O191 1.240 . S
H194 C168 0.931 . S
H195 C177 0.931 . S
H196 C181 0.929 . S
H197 C183 0.930 . S
Co198 N202 2.148 . S
Co198 N208 2.128 . S
Co198 N218 2.194 . S
Co198 O223 2.351 . S
Co198 O224 2.155 . S
Co198 O225 2.096 . S
C199 N202 1.301 1_554 S
C199 N203 1.328 . S
C199 H204 0.930 . S
C200 C201 1.333 1_556 S
C200 N202 1.317 . S
C200 H205 0.930 . S
C201 C200 1.333 1_554 S
C201 N203 1.350 . S
C201 H227 0.931 . S
N202 Co198 2.148 . S
N202 C199 1.301 1_556 S
N202 C200 1.317 . S
N203 C199 1.328 . S
N203 C201 1.350 . S
H204 C199 0.930 . S
H205 C200 0.930 . S
C206 O207 1.224 . S
C206 O225 1.247 . S
O207 C206 1.224 . S
N208 Co198 2.128 . S
N208 C209 1.355 . S
N208 C211 1.311 . S
C209 N208 1.355 . S
C209 C210 1.363 . S
C209 H221 0.929 . S
C210 C209 1.363 . S
C210 N212 1.375 . S
C210 H228 0.931 . S
C211 N208 1.311 . S
C211 N212 1.347 . S
C211 H222 0.929 . S
N212 C210 1.375 . S
N212 C211 1.347 . S
C213 C216 1.365 . S
C213 N218 1.328 . S
C213 H219 0.929 1_556 S
C214 C215 1.362 . S
C214 C217 1.378 . S
C214 H229 0.929 . S
C215 C214 1.362 . S
C215 C216 1.366 . S
C216 C213 1.365 . S
C216 C215 1.366 . S
C216 H230 0.930 1_556 S
C217 C214 1.378 . S
C217 N218 1.315 . S
C217 H220 0.930 . S
N218 Co198 2.194 . S
N218 C213 1.328 . S
N218 C217 1.315 . S
H219 C213 0.929 1_554 S
H220 C217 0.930 . S
H221 C209 0.929 . S
H222 C211 0.929 . S
O223 Co198 2.351 . S
O223 C226 1.244 . S
O224 Co198 2.155 . S
O224 C226 1.240 . S
O225 Co198 2.096 . S
O225 C206 1.247 . S
C226 O223 1.244 . S
C226 O224 1.240 . S
H227 C201 0.931 . S
H228 C210 0.931 . S
H229 C214 0.929 . S
H230 C216 0.930 1_554 S
Co231 N235 2.148 . S
Co231 N241 2.128 . S
Co231 N251 2.194 . S
Co231 O256 2.351 . S
Co231 O257 2.155 . S
Co231 O258 2.096 . S
C232 N235 1.301 . S
C232 N236 1.328 . S
C232 H237 0.930 . S
C233 C234 1.333 . S
C233 N235 1.317 . S
C233 H238 0.930 . S
C234 C233 1.333 . S
C234 N236 1.350 . S
C234 H260 0.931 . S
N235 Co231 2.148 . S
N235 C232 1.301 . S
N235 C233 1.317 . S
N236 C232 1.328 . S
N236 C234 1.350 . S
H237 C232 0.930 . S
H238 C233 0.930 . S
C239 O240 1.224 . S
C239 O258 1.247 . S
O240 C239 1.224 . S
N241 Co231 2.128 . S
N241 C242 1.355 . S
N241 C244 1.311 . S
C242 N241 1.355 . S
C242 C243 1.363 . S
C242 H254 0.929 . S
C243 C242 1.363 . S
C243 N245 1.375 . S
C243 H261 0.931 . S
C244 N241 1.311 . S
C244 N245 1.347 . S
C244 H255 0.929 . S
N245 C243 1.375 . S
N245 C244 1.347 . S
C246 C249 1.365 . S
C246 N251 1.328 . S
C246 H252 0.929 . S
C247 C248 1.362 . S
C247 C250 1.378 . S
C247 H262 0.929 . S
C248 C247 1.362 . S
C248 C249 1.366 . S
C249 C246 1.365 . S
C249 C248 1.366 . S
C249 H263 0.930 . S
C250 C247 1.378 . S
C250 N251 1.315 . S
C250 H253 0.930 . S
N251 Co231 2.194 . S
N251 C246 1.328 . S
N251 C250 1.315 . S
H252 C246 0.929 . S
H253 C250 0.930 . S
H254 C242 0.929 . S
H255 C244 0.929 . S
O256 Co231 2.351 . S
O256 C259 1.244 . S
O257 Co231 2.155 . S
O257 C259 1.240 . S
O258 Co231 2.096 . S
O258 C239 1.247 . S
C259 O256 1.244 . S
C259 O257 1.240 . S
H260 C234 0.931 . S
H261 C243 0.931 . S
H262 C247 0.929 . S
H263 C249 0.930 . S
H264 C270 0.930 . S
H265 C274 0.930 . S
H266 C279 0.929 . S
H267 C277 0.929 . S
H268 C272 0.929 . S
H269 C278 0.929 . S
C270 H264 0.930 . S
C270 C271 1.367 . S
C270 C278 1.378 . S
C271 C270 1.367 . S
C271 C279 1.433 . S
C272 H268 0.929 . S
C272 C274 1.378 . S
C272 C276 1.350 . S
C273 C276 1.463 . S
C273 C278 1.350 . S
C273 N281 1.427 . S
C274 H265 0.930 . S
C274 C272 1.378 . S
C274 C275 1.367 . S
C275 C274 1.367 . S
C275 C277 1.433 . S
C276 C272 1.350 . S
C276 C273 1.463 . S
C276 N280 1.427 . S
C277 H267 0.929 . S
C277 C275 1.433 . S
C277 N280 1.384 . S
C278 H269 0.929 . S
C278 C270 1.378 . S
C278 C273 1.350 . S
C279 H266 0.929 . S
C279 C271 1.433 . S
C279 N281 1.384 . S
N280 C276 1.427 . S
N280 C277 1.384 . S
N281 C273 1.427 . S
N281 C279 1.384 . S
H282 C288 0.930 . S
H283 C292 0.930 . S
H284 C297 0.929 . S
H285 C295 0.929 . S
H286 C290 0.929 . S
H287 C296 0.929 . S
C288 H282 0.930 . S
C288 C289 1.367 . S
C288 C296 1.378 . S
C289 C288 1.367 . S
C289 C297 1.433 . S
C290 H286 0.929 . S
C290 C292 1.378 . S
C290 C294 1.350 . S
C291 C294 1.463 . S
C291 C296 1.350 . S
C291 N299 1.427 . S
C292 H283 0.930 . S
C292 C290 1.378 . S
C292 C293 1.367 . S
C293 C292 1.367 . S
C293 C295 1.433 . S
C294 C290 1.350 . S
C294 C291 1.463 . S
C294 N298 1.427 . S
C295 H285 0.929 . S
C295 C293 1.433 . S
C295 N298 1.384 . S
C296 H287 0.929 . S
C296 C288 1.378 . S
C296 C291 1.350 . S
C297 H284 0.929 . S
C297 C289 1.433 . S
C297 N299 1.384 . S
N298 C294 1.427 . S
N298 C295 1.384 . S
N299 C291 1.427 . S
N299 C297 1.384 . S
H300 C306 0.930 . S
H301 C310 0.930 . S
H302 C315 0.929 . S
H303 C313 0.929 . S
H304 C308 0.929 . S
H305 C314 0.929 . S
C306 H300 0.930 . S
C306 C307 1.367 . S
C306 C314 1.378 . S
C307 C306 1.367 . S
C307 C315 1.433 . S
C308 H304 0.929 . S
C308 C310 1.378 . S
C308 C312 1.350 . S
C309 C312 1.463 . S
C309 C314 1.350 . S
C309 N317 1.427 . S
C310 H301 0.930 . S
C310 C308 1.378 . S
C310 C311 1.367 . S
C311 C310 1.367 . S
C311 C313 1.433 . S
C312 C308 1.350 . S
C312 C309 1.463 . S
C312 N316 1.427 . S
C313 H303 0.929 . S
C313 C311 1.433 . S
C313 N316 1.384 . S
C314 H305 0.929 . S
C314 C306 1.378 . S
C314 C309 1.350 . S
C315 H302 0.929 . S
C315 C307 1.433 . S
C315 N317 1.384 . S
N316 C312 1.427 . S
N316 C313 1.384 . S
N317 C309 1.427 . S
N317 C315 1.384 . S
H318 C324 0.930 . S
H319 C328 0.930 . S
H320 C333 0.929 . S
H321 C331 0.929 . S
H322 C326 0.929 . S
H323 C332 0.929 . S
C324 H318 0.930 . S
C324 C325 1.367 . S
C324 C332 1.378 . S
C325 C324 1.367 . S
C325 C333 1.433 . S
C326 H322 0.929 . S
C326 C328 1.378 . S
C326 C330 1.350 . S
C327 C330 1.463 . S
C327 C332 1.350 . S
C327 N335 1.427 . S
C328 H319 0.930 . S
C328 C326 1.378 . S
C328 C329 1.367 . S
C329 C328 1.367 . S
C329 C331 1.433 . S
C330 C326 1.350 . S
C330 C327 1.463 . S
C330 N334 1.427 . S
C331 H321 0.929 . S
C331 C329 1.433 . S
C331 N334 1.384 . S
C332 H323 0.929 . S
C332 C324 1.378 . S
C332 C327 1.350 . S
C333 H320 0.929 . S
C333 C325 1.433 . S
C333 N335 1.384 . S
N334 C330 1.427 . S
N334 C331 1.384 . S
N335 C327 1.427 . S
N335 C333 1.384 . S
H336 C342 0.930 1_545 S
H337 C346 0.930 . S
H338 C351 0.929 . S
H339 C349 0.929 . S
H340 C344 0.951 . S
H341 C350 0.929 . S
C342 H336 0.930 1_565 S
C342 C343 1.367 . S
C342 C350 1.378 1_565 S
C343 C342 1.367 . S
C343 C351 1.433 . S
C344 H340 0.951 . S
C344 C346 1.366 1_565 S
C344 C348 1.340 1_565 S
C345 C348 1.463 1_565 S
C345 C350 1.350 1_565 S
C345 N353 1.427 . S
C346 H337 0.930 . S
C346 C344 1.366 1_545 S
C346 C347 1.367 . S
C347 C346 1.367 . S
C347 C349 1.433 . S
C348 C344 1.340 1_545 S
C348 C345 1.463 1_545 S
C348 N352 1.427 . S
C349 H339 0.929 . S
C349 C347 1.433 . S
C349 N352 1.384 . S
C350 H341 0.929 . S
C350 C342 1.378 1_545 S
C350 C345 1.350 1_545 S
C351 H338 0.929 . S
C351 C343 1.433 . S
C351 N353 1.384 . S
N352 C348 1.427 . S
N352 C349 1.384 . S
N353 C345 1.427 . S
N353 C351 1.384 . S
H354 C360 0.930 . S
H355 C364 0.930 . S
H356 C369 0.921 1_565 S
H357 C367 0.916 1_545 S
H358 C362 0.929 . S
H359 C368 0.929 . S
C360 H354 0.930 . S
C360 C361 1.367 . S
C360 C368 1.378 . S
C361 C360 1.367 . S
C361 C369 1.433 . S
C362 H358 0.929 . S
C362 C364 1.378 . S
C362 C366 1.350 . S
C363 C366 1.463 1_545 S
C363 C368 1.350 . S
C363 N371 1.427 1_545 S
C364 H355 0.930 . S
C364 C362 1.378 . S
C364 C365 1.367 . S
C365 C364 1.367 . S
C365 C367 1.460 . S
C366 C362 1.350 . S
C366 C363 1.463 1_565 S
C366 N370 1.427 1_565 S
C367 H357 0.916 1_565 S
C367 C365 1.460 . S
C367 N370 1.372 1_565 S
C368 H359 0.929 . S
C368 C360 1.378 . S
C368 C363 1.350 . S
C369 H356 0.921 1_545 S
C369 C361 1.433 . S
C369 N371 1.384 1_545 S
N370 C366 1.427 1_545 S
N370 C367 1.372 1_545 S
N371 C363 1.427 1_565 S
N371 C369 1.384 1_565 S
H372 C378 0.930 . S
H373 C382 0.930 . S
H374 C387 0.929 . S
H375 C385 0.929 . S
H376 C380 0.929 . S
H377 C386 0.929 . S
C378 H372 0.930 . S
C378 C379 1.367 . S
C378 C386 1.378 . S
C379 C378 1.367 . S
C379 C387 1.433 1_545 S
C380 H376 0.929 . S
C380 C382 1.378 . S
C380 C384 1.350 . S
C381 C384 1.463 1_545 S
C381 C386 1.350 . S
C381 N389 1.427 1_545 S
C382 H373 0.930 . S
C382 C380 1.378 . S
C382 C383 1.367 . S
C383 C382 1.367 . S
C383 C385 1.433 1_565 S
C384 C380 1.350 . S
C384 C381 1.463 1_565 S
C384 N388 1.427 1_565 S
C385 H375 0.929 . S
C385 C383 1.433 1_545 S
C385 N388 1.384 . S
C386 H377 0.929 . S
C386 C378 1.378 . S
C386 C381 1.350 . S
C387 H374 0.929 . S
C387 C379 1.433 1_565 S
C387 N389 1.384 . S
N388 C384 1.427 1_545 S
N388 C385 1.384 . S
N389 C381 1.427 1_565 S
N389 C387 1.384 . S
H390 C396 0.930 . S
H391 C400 0.929 1_545 S
H392 C405 0.929 . S
H393 C403 0.929 . S
H394 C398 0.929 . S
H395 C404 0.929 . S
C396 H390 0.930 . S
C396 C397 1.367 1_565 S
C396 C404 1.378 . S
C397 C396 1.367 1_545 S
C397 C405 1.433 . S
C398 H394 0.929 . S
C398 C400 1.377 1_545 S
C398 C402 1.350 1_545 S
C399 C402 1.463 1_545 S
C399 C404 1.350 1_545 S
C399 N407 1.427 . S
C400 H391 0.929 1_565 S
C400 C398 1.377 1_565 S
C400 C401 1.369 . S
C401 C400 1.369 . S
C401 C403 1.433 . S
C402 C398 1.350 1_565 S
C402 C399 1.463 1_565 S
C402 N406 1.427 . S
C403 H393 0.929 . S
C403 C401 1.433 . S
C403 N406 1.384 . S
C404 H395 0.929 . S
C404 C396 1.378 . S
C404 C399 1.350 1_565 S
C405 H392 0.929 . S
C405 C397 1.433 . S
C405 N407 1.384 . S
N406 C402 1.427 . S
N406 C403 1.384 . S
N407 C399 1.427 . S
N407 C405 1.384 . S
H408 C414 0.930 . S
H409 C418 0.930 . S
H410 C423 0.929 . S
H411 C421 0.929 . S
H412 C416 0.929 . S
H413 C422 0.929 . S
C414 H408 0.930 . S
C414 C415 1.367 . S
C414 C422 1.378 . S
C415 C414 1.367 . S
C415 C423 1.433 1_554 S
C416 H412 0.929 . S
C416 C418 1.378 . S
C416 C420 1.350 . S
C417 C420 1.463 1_554 S
C417 C422 1.350 . S
C417 N425 1.427 1_554 S
C418 H409 0.930 . S
C418 C416 1.378 . S
C418 C419 1.367 . S
C419 C418 1.367 . S
C419 C421 1.433 1_556 S
C420 C416 1.350 . S
C420 C417 1.463 1_556 S
C420 N424 1.427 1_556 S
C421 H411 0.929 . S
C421 C419 1.433 1_554 S
C421 N424 1.384 . S
C422 H413 0.929 . S
C422 C414 1.378 . S
C422 C417 1.350 . S
C423 H410 0.929 . S
C423 C415 1.433 1_556 S
C423 N425 1.384 . S
N424 C420 1.427 1_554 S
N424 C421 1.384 . S
N425 C417 1.427 1_556 S
N425 C423 1.384 . S
H426 C432 0.930 . S
H427 C436 0.930 . S
H428 C441 0.929 . S
H429 C439 0.929 . S
H430 C434 0.929 . S
H431 C440 0.929 . S
C432 H426 0.930 . S
C432 C433 1.367 . S
C432 C440 1.378 . S
C433 C432 1.367 . S
C433 C441 1.433 . S
C434 H430 0.929 . S
C434 C436 1.378 . S
C434 C438 1.350 . S
C435 C438 1.463 . S
C435 C440 1.350 . S
C435 N443 1.427 . S
C436 H427 0.930 . S
C436 C434 1.378 . S
C436 C437 1.367 . S
C437 C436 1.367 . S
C437 C439 1.433 . S
C438 C434 1.350 . S
C438 C435 1.463 . S
C438 N442 1.427 . S
C439 H429 0.929 . S
C439 C437 1.433 . S
C439 N442 1.384 . S
C440 H431 0.929 . S
C440 C432 1.378 . S
C440 C435 1.350 . S
C441 H428 0.929 . S
C441 C433 1.433 . S
C441 N443 1.384 . S
N442 C438 1.427 . S
N442 C439 1.384 . S
N443 C435 1.427 . S
N443 C441 1.384 . S
H444 C450 0.930 . S
H445 C454 0.930 . S
H446 C459 0.929 . S
H447 C457 0.929 . S
H448 C452 0.929 1_545 S
H449 C458 0.929 1_565 S
C450 H444 0.930 . S
C450 C451 1.367 1_554 S
C450 C458 1.378 . S
C451 C450 1.367 1_556 S
C451 C459 1.433 . S
C452 H448 0.929 1_565 S
C452 C454 1.378 . S
C452 C456 1.357 . S
C453 C456 1.462 1_444 S
C453 C458 1.357 . S
C453 N461 1.419 1_554 S
C454 H445 0.930 . S
C454 C452 1.378 . S
C454 C455 1.367 1_556 S
C455 C454 1.367 1_554 S
C455 C457 1.433 . S
C456 C452 1.357 . S
C456 C453 1.462 1_666 S
C456 N460 1.419 1_556 S
C457 H447 0.929 . S
C457 C455 1.433 . S
C457 N460 1.384 . S
C458 H449 0.929 1_545 S
C458 C450 1.378 . S
C458 C453 1.357 . S
C459 H446 0.929 . S
C459 C451 1.433 . S
C459 N461 1.384 . S
N460 C456 1.419 1_554 S
N460 C457 1.384 . S
N461 C453 1.419 1_556 S
N461 C459 1.384 . S
H462 C468 0.930 1_565 S
H463 C472 0.930 1_545 S
H464 C477 0.929 . S
H465 C475 0.929 . S
H466 C470 0.929 . S
H467 C476 0.929 . S
C468 H462 0.930 1_545 S
C468 C469 1.367 . S
C468 C476 1.378 1_545 S
C469 C468 1.367 . S
C469 C477 1.433 . S
C470 H466 0.929 . S
C470 C472 1.378 1_545 S
C470 C474 1.350 1_545 S
C471 C474 1.463 1_645 S
C471 C476 1.350 1_545 S
C471 N479 1.427 . S
C472 H463 0.930 1_565 S
C472 C470 1.378 1_565 S
C472 C473 1.367 . S
C473 C472 1.367 . S
C473 C475 1.433 . S
C474 C470 1.350 1_565 S
C474 C471 1.463 1_465 S
C474 N478 1.427 . S
C475 H465 0.929 . S
C475 C473 1.433 . S
C475 N478 1.384 . S
C476 H467 0.929 . S
C476 C468 1.378 1_565 S
C476 C471 1.350 1_565 S
C477 H464 0.929 . S
C477 C469 1.433 . S
C477 N479 1.384 . S
N478 C474 1.427 . S
N478 C475 1.384 . S
N479 C471 1.427 . S
N479 C477 1.384 . S
H480 C486 0.930 . S
H481 C490 0.930 . S
H482 C495 0.929 1_556 S
H483 C493 0.929 1_554 S
H484 C488 0.929 . S
H485 C494 0.929 . S
C486 H480 0.930 . S
C486 C487 1.367 . S
C486 C494 1.378 . S
C487 C486 1.367 . S
C487 C495 1.433 . S
C488 H484 0.929 . S
C488 C490 1.378 . S
C488 C492 1.350 . S
C489 C492 1.463 1_554 S
C489 C494 1.350 . S
C489 N497 1.427 1_554 S
C490 H481 0.930 . S
C490 C488 1.378 . S
C490 C491 1.367 . S
C491 C490 1.367 . S
C491 C493 1.433 . S
C492 C488 1.350 . S
C492 C489 1.463 1_556 S
C492 N496 1.427 1_556 S
C493 H483 0.929 1_556 S
C493 C491 1.433 . S
C493 N496 1.384 1_556 S
C494 H485 0.929 . S
C494 C486 1.378 . S
C494 C489 1.350 . S
C495 H482 0.929 1_554 S
C495 C487 1.433 . S
C495 N497 1.384 1_554 S
N496 C492 1.427 1_554 S
N496 C493 1.384 1_554 S
N497 C489 1.427 1_556 S
N497 C495 1.384 1_556 S
H498 C504 0.930 . S
H499 C508 0.930 . S
H500 C513 0.929 . S
H501 C511 0.929 . S
H502 C506 0.929 . S
H503 C512 0.929 . S
C504 H498 0.930 . S
C504 C505 1.367 . S
C504 C512 1.378 . S
C505 C504 1.367 . S
C505 C513 1.433 . S
C506 H502 0.929 . S
C506 C508 1.378 . S
C506 C510 1.350 . S
C507 C510 1.463 . S
C507 C512 1.350 . S
C507 N515 1.427 . S
C508 H499 0.930 . S
C508 C506 1.378 . S
C508 C509 1.367 . S
C509 C508 1.367 . S
C509 C511 1.433 . S
C510 C506 1.350 . S
C510 C507 1.463 . S
C510 N514 1.427 . S
C511 H501 0.929 . S
C511 C509 1.433 . S
C511 N514 1.384 . S
C512 H503 0.929 . S
C512 C504 1.378 . S
C512 C507 1.350 . S
C513 H500 0.929 . S
C513 C505 1.433 . S
C513 N515 1.384 . S
N514 C510 1.427 . S
N514 C511 1.384 . S
N515 C507 1.427 . S
N515 C513 1.384 . S
H516 C522 0.930 . S
H517 C526 0.930 . S
H518 C531 0.929 . S
H519 C529 0.929 . S
H520 C524 0.929 . S
H521 C530 0.929 . S
C522 H516 0.930 . S
C522 C523 1.367 . S
C522 C530 1.378 . S
C523 C522 1.367 . S
C523 C531 1.433 1_554 S
C524 H520 0.929 . S
C524 C526 1.378 . S
C524 C528 1.350 . S
C525 C528 1.463 1_554 S
C525 C530 1.350 . S
C525 N533 1.427 1_554 S
C526 H517 0.930 . S
C526 C524 1.378 . S
C526 C527 1.367 . S
C527 C526 1.367 . S
C527 C529 1.433 1_556 S
C528 C524 1.350 . S
C528 C525 1.463 1_556 S
C528 N532 1.427 1_556 S
C529 H519 0.929 . S
C529 C527 1.433 1_554 S
C529 N532 1.384 . S
C530 H521 0.929 . S
C530 C522 1.378 . S
C530 C525 1.350 . S
C531 H518 0.929 . S
C531 C523 1.433 1_556 S
C531 N533 1.384 . S
N532 C528 1.427 1_554 S
N532 C529 1.384 . S
N533 C525 1.427 1_556 S
N533 C531 1.384 . S
H534 C540 0.930 . S
H535 C544 0.930 . S
H536 C549 0.929 . S
H537 C547 0.929 . S
H538 C542 0.929 . S
H539 C548 0.929 . S
C540 H534 0.930 . S
C540 C541 1.367 . S
C540 C548 1.378 . S
C541 C540 1.367 . S
C541 C549 1.433 . S
C542 H538 0.929 . S
C542 C544 1.378 . S
C542 C546 1.350 . S
C543 C546 1.463 . S
C543 C548 1.350 . S
C543 N551 1.427 . S
C544 H535 0.930 . S
C544 C542 1.378 . S
C544 C545 1.367 . S
C545 C544 1.367 . S
C545 C547 1.433 . S
C546 C542 1.350 . S
C546 C543 1.463 . S
C546 N550 1.427 . S
C547 H537 0.929 . S
C547 C545 1.433 . S
C547 N550 1.384 . S
C548 H539 0.929 . S
C548 C540 1.378 . S
C548 C543 1.350 . S
C549 H536 0.929 . S
C549 C541 1.433 . S
C549 N551 1.384 . S
N550 C546 1.427 . S
N550 C547 1.384 . S
N551 C543 1.427 . S
N551 C549 1.384 . S
H552 C558 0.930 . S
H553 C562 0.930 . S
H554 C567 0.929 . S
H555 C565 0.929 . S
H556 C560 0.929 . S
H557 C566 0.929 . S
C558 H552 0.930 . S
C558 C559 1.367 . S
C558 C566 1.378 . S
C559 C558 1.367 . S
C559 C567 1.433 . S
C560 H556 0.929 . S
C560 C562 1.378 . S
C560 C564 1.350 . S
C561 C564 1.463 . S
C561 C566 1.350 . S
C561 N569 1.427 . S
C562 H553 0.930 . S
C562 C560 1.378 . S
C562 C563 1.367 . S
C563 C562 1.367 . S
C563 C565 1.433 . S
C564 C560 1.350 . S
C564 C561 1.463 . S
C564 N568 1.427 . S
C565 H555 0.929 . S
C565 C563 1.433 . S
C565 N568 1.384 . S
C566 H557 0.929 . S
C566 C558 1.378 . S
C566 C561 1.350 . S
C567 H554 0.929 . S
C567 C559 1.433 . S
C567 N569 1.384 . S
N568 C564 1.427 . S
N568 C565 1.384 . S
N569 C561 1.427 . S
N569 C567 1.384 . S
H570 C576 0.930 . S
H571 C580 0.930 . S
H572 C585 0.929 . S
H573 C583 0.929 . S
H574 C578 0.929 . S
H575 C584 0.929 . S
C576 H570 0.930 . S
C576 C577 1.367 . S
C576 C584 1.378 . S
C577 C576 1.367 . S
C577 C585 1.433 . S
C578 H574 0.929 . S
C578 C580 1.378 . S
C578 C582 1.350 . S
C579 C582 1.463 . S
C579 C584 1.350 . S
C579 N587 1.427 . S
C580 H571 0.930 . S
C580 C578 1.378 . S
C580 C581 1.367 . S
C581 C580 1.367 . S
C581 C583 1.433 . S
C582 C578 1.350 . S
C582 C579 1.463 . S
C582 N586 1.427 . S
C583 H573 0.929 . S
C583 C581 1.433 . S
C583 N586 1.384 . S
C584 H575 0.929 . S
C584 C576 1.378 . S
C584 C579 1.350 . S
C585 H572 0.929 . S
C585 C577 1.433 . S
C585 N587 1.384 . S
N586 C582 1.427 . S
N586 C583 1.384 . S
N587 C579 1.427 . S
N587 C585 1.384 . S
H588 C594 0.930 . S
H589 C598 0.930 . S
H590 C603 0.929 . S
H591 C601 0.929 . S
H592 C596 0.929 . S
H593 C602 0.929 . S
C594 H588 0.930 . S
C594 C595 1.367 . S
C594 C602 1.378 . S
C595 C594 1.367 . S
C595 C603 1.433 . S
C596 H592 0.929 . S
C596 C598 1.378 . S
C596 C600 1.350 . S
C597 C600 1.463 1_455 S
C597 C602 1.350 . S
C597 N605 1.427 . S
C598 H589 0.930 . S
C598 C596 1.378 . S
C598 C599 1.367 . S
C599 C598 1.367 . S
C599 C601 1.433 . S
C600 C596 1.350 . S
C600 C597 1.463 1_655 S
C600 N604 1.427 . S
C601 H591 0.929 . S
C601 C599 1.433 . S
C601 N604 1.384 . S
C602 H593 0.929 . S
C602 C594 1.378 . S
C602 C597 1.350 . S
C603 H590 0.929 . S
C603 C595 1.433 . S
C603 N605 1.384 . S
N604 C600 1.427 . S
N604 C601 1.384 . S
N605 C597 1.427 . S
N605 C603 1.384 . S
H606 C612 0.930 . S
H607 C616 0.930 . S
H608 C621 0.929 . S
H609 C619 0.929 . S
H610 C614 0.929 . S
H611 C620 0.929 . S
C612 H606 0.930 . S
C612 C613 1.367 . S
C612 C620 1.378 . S
C613 C612 1.367 . S
C613 C621 1.433 . S
C614 H610 0.929 . S
C614 C616 1.378 . S
C614 C618 1.350 . S
C615 C618 1.463 1_455 S
C615 C620 1.350 . S
C615 N623 1.427 . S
C616 H607 0.930 . S
C616 C614 1.378 . S
C616 C617 1.367 . S
C617 C616 1.367 . S
C617 C619 1.433 . S
C618 C614 1.350 . S
C618 C615 1.463 1_655 S
C618 N622 1.427 . S
C619 H609 0.929 . S
C619 C617 1.433 . S
C619 N622 1.384 . S
C620 H611 0.929 . S
C620 C612 1.378 . S
C620 C615 1.350 . S
C621 H608 0.929 . S
C621 C613 1.433 . S
C621 N623 1.384 . S
N622 C618 1.427 . S
N622 C619 1.384 . S
N623 C615 1.427 . S
N623 C621 1.384 . S
C271 C107 1.849 . S
C275 N5 1.867 . S
C289 N38 1.862 . S
C293 C74 1.854 . S
C307 C41 1.844 . S
C311 N71 1.871 . S
C325 C8 1.844 . S
C329 N104 1.870 . S
C343 N137 1.862 . S
C347 C239 1.854 . S
C361 C206 1.851 . S
C365 N170 1.865 . S
C379 N203 1.869 . S
C383 C173 1.846 . S
C397 N236 1.865 . S
C401 C140 1.850 . S
C415 C28 0.809 . S
C419 C94 0.809 . S
C433 C61 0.801 . S
C437 C127 0.801 . S
C451 C226 0.827 . S
C455 C160 0.827 . S
C469 C259 0.809 . S
C473 C193 0.809 . S
C487 C17 1.488 . S
C491 C215 1.488 . S
C505 C50 1.494 . S
C509 C248 1.494 . S
C523 C149 1.490 . S
C527 C83 1.490 . S
C541 C182 1.491 . S
C545 C116 1.491 . S
C559 N47 0.820 . S
C563 N14 0.820 . S
C577 N113 0.858 . S
C581 N80 0.858 . S
C595 N179 0.849 . S
C599 N146 0.847 . S
C613 N212 0.829 . S
C617 N245 0.827 . S
