# Generated by pormake.
# Topology fnr, (5)-cn, num edge types: 1
# Building blocks:
#     Node 0, Type 0, BuildingBlock: XOMCOT_clean_sbu_1, # of connection points: 5
#     Node 1, Type 0, BuildingBlock: XOMCOT_clean_sbu_1, # of connection points: 5
#     Node 2, Type 0, BuildingBlock: XOMCOT_clean_sbu_1, # of connection points: 5
#     Node 3, Type 0, BuildingBlock: XOMCOT_clean_sbu_1, # of connection points: 5
#     Node 4, Type 0, BuildingBlock: XOMCOT_clean_sbu_1, # of connection points: 5
#     Node 5, Type 0, BuildingBlock: XOMCOT_clean_sbu_1, # of connection points: 5
#     Node 6, Type 0, BuildingBlock: XOMCOT_clean_sbu_1, # of connection points: 5
#     Node 7, Type 0, BuildingBlock: XOMCOT_clean_sbu_1, # of connection points: 5
#     Node 8, Type 0, BuildingBlock: XOMCOT_clean_sbu_1, # of connection points: 5
#     Node 9, Type 0, BuildingBlock: XOMCOT_clean_sbu_1, # of connection points: 5
#     Node 10, Type 0, BuildingBlock: XOMCOT_clean_sbu_1, # of connection points: 5
#     Node 11, Type 0, BuildingBlock: XOMCOT_clean_sbu_1, # of connection points: 5
#     Edge 12, Type (0, 0), BuildingBlock: ZUJKAS_clean_linker_0, # of connection points: 2
#     Edge 13, Type (0, 0), BuildingBlock: ZUJKAS_clean_linker_0, # of connection points: 2
#     Edge 14, Type (0, 0), BuildingBlock: ZUJKAS_clean_linker_0, # of connection points: 2
#     Edge 15, Type (0, 0), BuildingBlock: ZUJKAS_clean_linker_0, # of connection points: 2
#     Edge 16, Type (0, 0), BuildingBlock: ZUJKAS_clean_linker_0, # of connection points: 2
#     Edge 17, Type (0, 0), BuildingBlock: ZUJKAS_clean_linker_0, # of connection points: 2
#     Edge 18, Type (0, 0), BuildingBlock: ZUJKAS_clean_linker_0, # of connection points: 2
#     Edge 19, Type (0, 0), BuildingBlock: ZUJKAS_clean_linker_0, # of connection points: 2
#     Edge 20, Type (0, 0), BuildingBlock: ZUJKAS_clean_linker_0, # of connection points: 2
#     Edge 21, Type (0, 0), BuildingBlock: ZUJKAS_clean_linker_0, # of connection points: 2
#     Edge 22, Type (0, 0), BuildingBlock: ZUJKAS_clean_linker_0, # of connection points: 2
#     Edge 23, Type (0, 0), BuildingBlock: ZUJKAS_clean_linker_0, # of connection points: 2
#     Edge 24, Type (0, 0), BuildingBlock: ZUJKAS_clean_linker_0, # of connection points: 2
#     Edge 25, Type (0, 0), BuildingBlock: ZUJKAS_clean_linker_0, # of connection points: 2
#     Edge 26, Type (0, 0), BuildingBlock: ZUJKAS_clean_linker_0, # of connection points: 2
#     Edge 27, Type (0, 0), BuildingBlock: ZUJKAS_clean_linker_0, # of connection points: 2
#     Edge 28, Type (0, 0), BuildingBlock: ZUJKAS_clean_linker_0, # of connection points: 2
#     Edge 29, Type (0, 0), BuildingBlock: ZUJKAS_clean_linker_0, # of connection points: 2
#     Edge 30, Type (0, 0), BuildingBlock: ZUJKAS_clean_linker_0, # of connection points: 2
#     Edge 31, Type (0, 0), BuildingBlock: ZUJKAS_clean_linker_0, # of connection points: 2
#     Edge 32, Type (0, 0), BuildingBlock: ZUJKAS_clean_linker_0, # of connection points: 2
#     Edge 33, Type (0, 0), BuildingBlock: ZUJKAS_clean_linker_0, # of connection points: 2
#     Edge 34, Type (0, 0), BuildingBlock: ZUJKAS_clean_linker_0, # of connection points: 2
#     Edge 35, Type (0, 0), BuildingBlock: ZUJKAS_clean_linker_0, # of connection points: 2
#     Edge 36, Type (0, 0), BuildingBlock: ZUJKAS_clean_linker_0, # of connection points: 2
#     Edge 37, Type (0, 0), BuildingBlock: ZUJKAS_clean_linker_0, # of connection points: 2
#     Edge 38, Type (0, 0), BuildingBlock: ZUJKAS_clean_linker_0, # of connection points: 2
#     Edge 39, Type (0, 0), BuildingBlock: ZUJKAS_clean_linker_0, # of connection points: 2
#     Edge 40, Type (0, 0), BuildingBlock: ZUJKAS_clean_linker_0, # of connection points: 2
#     Edge 41, Type (0, 0), BuildingBlock: ZUJKAS_clean_linker_0, # of connection points: 2
# Relax obj value: 0.267
# Max RMSD: 0.194
# Mean RMSD: 0.191
data_MOF--net-fnr--node1-XOMCOT_clean_sbu_1--edge1-ZUJKAS_clean_linker_0
_symmetry_space_group_name_H-M    P1
_symmetry_Int_Tables_number       1
_symmetry_cell_setting            triclinic
loop_
_symmetry_equiv_pos_as_xyz
'x, y, z'
_cell_length_a     51.781194
_cell_length_b     51.711282
_cell_length_c     64.445927
_cell_angle_alpha  90.131794
_cell_angle_beta   89.884751
_cell_angle_gamma 120.04524
loop_
_atom_site_label
_atom_site_type_symbol
_atom_site_fract_x
_atom_site_fract_y
_atom_site_fract_z
_atom_type_partial_charge
C0 C 0.38621 0.21453 0.08929 0.0
C1 C 0.36774 0.224 0.08155 0.0
N2 N 0.36995 0.22498 0.06073 0.0
N3 N 0.40005 0.20902 0.07351 0.0
C4 C 0.38927 0.21531 0.05623 0.0
H5 H 0.38998 0.21318 0.1056 0.0
Co6 Co 0.43176 0.20054 0.07557 0.0
C7 C 0.40525 0.13703 0.06361 0.0
O8 O 0.42053 0.13382 0.07861 0.0
N9 N 0.4641 0.19257 0.07731 0.0
C10 C 0.49775 0.1804 0.08775 0.0
C11 C 0.47453 0.18429 0.0938 0.0
C12 C 0.48183 0.19354 0.0614 0.0
N13 N 0.50237 0.1863 0.06738 0.0
O14 O 0.44847 0.22171 0.05015 0.0
H15 H 0.46564 0.18017 0.10933 0.0
H16 H 0.4794 0.1987 0.04554 0.0
O17 O 0.40728 0.1625 0.06072 0.0
C18 C 0.46168 0.24952 0.05444 0.0
O19 O 0.4592 0.25766 0.07333 0.0
N20 N 0.41782 0.18389 0.10188 0.0
C21 C 0.40419 0.17346 0.14401 0.0
C22 C 0.38611 0.15215 0.12912 0.0
C23 C 0.39298 0.15808 0.10794 0.0
C24 C 0.43496 0.20499 0.11618 0.0
C25 C 0.42888 0.20009 0.13723 0.0
H26 H 0.37784 0.14252 0.0966 0.0
H27 H 0.45375 0.22587 0.11104 0.0
H28 H 0.39687 0.21461 0.0407 0.0
H29 H 0.35442 0.23056 0.09071 0.0
H30 H 0.5105 0.17401 0.09763 0.0
H31 H 0.36638 0.13165 0.13376 0.0
H32 H 0.44353 0.21711 0.14812 0.0
C33 C 0.16922 0.39148 0.59474 0.0
C34 C 0.13963 0.37522 0.58932 0.0
N35 N 0.13779 0.37114 0.5686 0.0
N36 N 0.1863 0.39721 0.57763 0.0
C37 C 0.16643 0.38499 0.56191 0.0
H38 H 0.17763 0.39937 0.61018 0.0
Co39 Co 0.22808 0.42259 0.57624 0.0
C40 C 0.22123 0.36628 0.55476 0.0
O41 O 0.19272 0.34855 0.55852 0.0
N42 N 0.26953 0.44835 0.57467 0.0
C43 C 0.31827 0.46503 0.57394 0.0
C44 C 0.29062 0.44075 0.5778 0.0
C45 C 0.28497 0.4775 0.56922 0.0
N46 N 0.31475 0.48823 0.56846 0.0
O47 O 0.22308 0.43947 0.55112 0.0
H48 H 0.28613 0.41872 0.58226 0.0
H49 H 0.27457 0.49063 0.56587 0.0
O50 O 0.23432 0.39339 0.56097 0.0
C51 C 0.21518 0.45804 0.55705 0.0
O52 O 0.21323 0.46184 0.57704 0.0
N53 N 0.23251 0.40838 0.60206 0.0
C54 C 0.22691 0.39321 0.64406 0.0
C55 C 0.21781 0.37107 0.62863 0.0
C56 C 0.22097 0.37916 0.60762 0.0
C57 C 0.24328 0.43023 0.61678 0.0
C58 C 0.24127 0.42321 0.63777 0.0
H59 H 0.21165 0.36174 0.5961 0.0
H60 H 0.25181 0.45324 0.61229 0.0
H61 H 0.17295 0.38708 0.54576 0.0
H62 H 0.12097 0.36728 0.59992 0.0
H63 H 0.33922 0.46518 0.5746 0.0
H64 H 0.20647 0.3476 0.63265 0.0
H65 H 0.24956 0.44123 0.64899 0.0
C66 C 0.79877 0.18427 0.08097 0.0
C67 C 0.79017 0.15559 0.07506 0.0
N68 N 0.7974 0.15579 0.05495 0.0
N69 N 0.81185 0.20289 0.0648 0.0
C70 C 0.81058 0.18482 0.04909 0.0
H71 H 0.79424 0.19075 0.09587 0.0
Co72 Co 0.82273 0.24353 0.06431 0.0
C73 C 0.88728 0.2748 0.05402 0.0
O74 O 0.89197 0.29333 0.06936 0.0
N75 N 0.83298 0.28494 0.06378 0.0
C76 C 0.84728 0.332 0.0728 0.0
C77 C 0.84745 0.30653 0.07828 0.0
C78 C 0.82472 0.29864 0.04943 0.0
N79 N 0.83268 0.32698 0.05473 0.0
O80 O 0.80254 0.23707 0.03814 0.0
H81 H 0.85777 0.30443 0.09222 0.0
H82 H 0.81236 0.28798 0.03557 0.0
O83 O 0.86073 0.25354 0.05032 0.0
C84 C 0.77485 0.2246 0.04264 0.0
O85 O 0.76686 0.21889 0.06221 0.0
N86 N 0.83833 0.24781 0.09121 0.0
C87 C 0.84943 0.24984 0.13369 0.0
C88 C 0.86684 0.2445 0.11942 0.0
C89 C 0.86068 0.24323 0.0981 0.0
C90 C 0.8201 0.25091 0.10503 0.0
C91 C 0.82561 0.25267 0.1262 0.0
H92 H 0.87326 0.23785 0.08729 0.0
H93 H 0.80113 0.25227 0.09941 0.0
H94 H 0.81805 0.19269 0.03348 0.0
H95 H 0.77778 0.13587 0.08455 0.0
H96 H 0.857 0.35259 0.08161 0.0
H97 H 0.88483 0.24122 0.1247 0.0
H98 H 0.81084 0.25551 0.13669 0.0
C99 C 0.62915 0.7855 0.59962 0.0
C100 C 0.64548 0.77323 0.59227 0.0
N101 N 0.65183 0.78071 0.57215 0.0
N102 N 0.62538 0.80112 0.58435 0.0
C103 C 0.63954 0.79784 0.56772 0.0
H104 H 0.61945 0.78207 0.61494 0.0
Co105 Co 0.59941 0.81652 0.58668 0.0
C106 C 0.63691 0.87946 0.57357 0.0
O107 O 0.63209 0.88769 0.59173 0.0
N108 N 0.57201 0.83135 0.58889 0.0
C109 C 0.54785 0.85548 0.59784 0.0
C110 C 0.57137 0.85121 0.60238 0.0
C111 C 0.54808 0.8238 0.57648 0.0
N112 N 0.53318 0.83809 0.58157 0.0
O113 O 0.57832 0.79351 0.56271 0.0
H114 H 0.58696 0.86233 0.61486 0.0
H115 H 0.54154 0.80836 0.56367 0.0
O116 O 0.62596 0.85166 0.5693 0.0
C117 C 0.56161 0.76713 0.56968 0.0
O118 O 0.56259 0.76238 0.58962 0.0
N119 N 0.6183 0.83483 0.61179 0.0
C120 C 0.64148 0.84402 0.65192 0.0
C121 C 0.66043 0.8575 0.63487 0.0
C122 C 0.64843 0.85204 0.61479 0.0
C123 C 0.59974 0.8218 0.62828 0.0
C124 C 0.61074 0.82653 0.64843 0.0
H125 H 0.66343 0.86001 0.60165 0.0
H126 H 0.57628 0.8064 0.62565 0.0
H127 H 0.63918 0.80618 0.5524 0.0
H128 H 0.6515 0.75914 0.60096 0.0
H129 H 0.54164 0.86977 0.60615 0.0
H130 H 0.68439 0.87046 0.63693 0.0
H131 H 0.59537 0.81557 0.66115 0.0
C132 C 0.84502 0.61457 0.08592 0.0
C133 C 0.87472 0.63356 0.08171 0.0
N134 N 0.87688 0.64671 0.06326 0.0
N135 N 0.82839 0.61611 0.07039 0.0
C136 C 0.84845 0.63569 0.05672 0.0
H137 H 0.83608 0.59975 0.09911 0.0
Co138 Co 0.78697 0.59154 0.06717 0.0
C139 C 0.77645 0.64349 0.05948 0.0
O140 O 0.76734 0.64324 0.0785 0.0
N141 N 0.74562 0.56633 0.06315 0.0
C142 C 0.6967 0.54744 0.05979 0.0
C143 C 0.72317 0.57229 0.06513 0.0
C144 C 0.73206 0.53751 0.05679 0.0
N145 N 0.70226 0.52547 0.05449 0.0
O146 O 0.79372 0.57859 0.0407 0.0
H147 H 0.72545 0.59315 0.07024 0.0
H148 H 0.74382 0.52546 0.05414 0.0
O149 O 0.78421 0.62461 0.05365 0.0
C150 C 0.80368 0.56089 0.0442 0.0
O151 O 0.80749 0.55553 0.06354 0.0
N152 N 0.7808 0.60127 0.09466 0.0
C153 C 0.777 0.60759 0.13757 0.0
C154 C 0.79667 0.63206 0.12539 0.0
C155 C 0.79847 0.62837 0.10401 0.0
C156 C 0.76201 0.57723 0.10653 0.0
C157 C 0.75927 0.58004 0.12781 0.0
H158 H 0.81466 0.64721 0.09502 0.0
H159 H 0.75007 0.55514 0.09983 0.0
H160 H 0.84232 0.64093 0.04193 0.0
H161 H 0.89332 0.63623 0.09096 0.0
H162 H 0.67511 0.54595 0.05957 0.0
H163 H 0.81109 0.65367 0.13238 0.0
H164 H 0.74466 0.56029 0.13674 0.0
C165 C 0.24242 0.83917 0.59612 0.0
C166 C 0.25696 0.86844 0.58985 0.0
N167 N 0.24583 0.87009 0.57134 0.0
N168 N 0.22194 0.82229 0.58177 0.0
C169 C 0.22448 0.84173 0.56678 0.0
H170 H 0.24708 0.83051 0.60999 0.0
Co171 Co 0.20089 0.78083 0.58326 0.0
C172 C 0.14054 0.76171 0.56859 0.0
O173 O 0.13107 0.74688 0.58605 0.0
N174 N 0.18015 0.73773 0.58459 0.0
C175 C 0.15428 0.68963 0.5939 0.0
C176 C 0.16267 0.71842 0.59955 0.0
C177 C 0.18135 0.71949 0.56988 0.0
N178 N 0.16635 0.69041 0.57529 0.0
O179 O 0.22377 0.78033 0.56007 0.0
H180 H 0.15584 0.7243 0.61376 0.0
H181 H 0.19315 0.72715 0.55533 0.0
O182 O 0.16863 0.77777 0.56499 0.0
C183 C 0.2449 0.77727 0.5675 0.0
O184 O 0.24517 0.77273 0.58754 0.0
N185 N 0.18274 0.78407 0.6077 0.0
C186 C 0.17097 0.7989 0.64692 0.0
C187 C 0.16149 0.80702 0.62895 0.0
C188 C 0.16803 0.7998 0.60941 0.0
C189 C 0.19327 0.77737 0.62501 0.0
C190 C 0.18696 0.78379 0.64473 0.0
H191 H 0.16259 0.80813 0.59572 0.0
H192 H 0.20737 0.76757 0.62344 0.0
H193 H 0.21202 0.83503 0.55241 0.0
H194 H 0.27469 0.88704 0.59819 0.0
H195 H 0.14122 0.66978 0.60314 0.0
H196 H 0.14987 0.81951 0.62997 0.0
H197 H 0.19584 0.77827 0.65814 0.0
C198 C 0.86594 0.5858 0.41757 0.0
C199 C 0.86855 0.56061 0.41752 0.0
N200 N 0.84332 0.53782 0.42548 0.0
N201 N 0.83916 0.57901 0.42543 0.0
C202 C 0.82589 0.54962 0.43018 0.0
H203 H 0.88252 0.60777 0.41224 0.0
Co204 Co 0.82671 0.60692 0.42811 0.0
C205 C 0.76194 0.57267 0.43872 0.0
O206 O 0.7581 0.59201 0.42793 0.0
N207 N 0.81521 0.63648 0.43095 0.0
C208 C 0.80827 0.67508 0.42545 0.0
C209 C 0.81781 0.65701 0.41689 0.0
C210 C 0.80463 0.64323 0.44819 0.0
N211 N 0.79988 0.66644 0.44516 0.0
O212 O 0.84563 0.61784 0.45485 0.0
H213 H 0.82636 0.65942 0.40135 0.0
H214 H 0.80048 0.63127 0.46269 0.0
O215 O 0.78816 0.576 0.44018 0.0
C216 C 0.8703 0.64236 0.45289 0.0
O217 O 0.87672 0.65591 0.43481 0.0
N218 N 0.81215 0.59805 0.40077 0.0
C219 C 0.80148 0.59285 0.35805 0.0
C220 C 0.78063 0.5716 0.37183 0.0
C221 C 0.78672 0.57419 0.39317 0.0
C222 C 0.8335 0.61738 0.38743 0.0
C223 C 0.82843 0.61568 0.36616 0.0
H224 H 0.77128 0.55659 0.40322 0.0
H225 H 0.85449 0.6349 0.39353 0.0
H226 H 0.80377 0.53696 0.43664 0.0
H227 H 0.88777 0.55933 0.41232 0.0
H228 H 0.80721 0.69297 0.41755 0.0
H229 H 0.76012 0.5528 0.36616 0.0
H230 H 0.84537 0.63253 0.35623 0.0
C231 C 0.16599 0.78496 0.91067 0.0
C232 C 0.13776 0.77394 0.91841 0.0
N233 N 0.13968 0.78048 0.93883 0.0
N234 N 0.18604 0.79909 0.9259 0.0
C235 C 0.16936 0.79591 0.94294 0.0
H236 H 0.17148 0.78213 0.89495 0.0
Co237 Co 0.22733 0.81465 0.92299 0.0
C238 C 0.25277 0.87706 0.93721 0.0
O239 O 0.26638 0.88566 0.91926 0.0
N240 N 0.26957 0.82993 0.92023 0.0
C241 C 0.31758 0.85463 0.91065 0.0
C242 C 0.2894 0.84934 0.90624 0.0
C243 C 0.28676 0.82369 0.93281 0.0
N244 N 0.31579 0.83837 0.92733 0.0
O245 O 0.22619 0.79104 0.94635 0.0
H246 H 0.28427 0.85979 0.89368 0.0
H247 H 0.27859 0.80912 0.9461 0.0
O248 O 0.23579 0.84916 0.94103 0.0
C249 C 0.21643 0.76484 0.93893 0.0
O250 O 0.20965 0.76042 0.91911 0.0
N251 N 0.22605 0.83346 0.89836 0.0
C252 C 0.21087 0.84289 0.85871 0.0
C253 C 0.20653 0.85682 0.87601 0.0
C254 C 0.21365 0.85124 0.89588 0.0
C255 C 0.23051 0.82005 0.8816 0.0
C256 C 0.22363 0.82487 0.86168 0.0
H257 H 0.20738 0.8595 0.90926 0.0
H258 H 0.2382 0.80428 0.88387 0.0
H259 H 0.17885 0.80361 0.95819 0.0
H260 H 0.11742 0.76168 0.90956 0.0
H261 H 0.33776 0.86899 0.90206 0.0
H262 H 0.19594 0.87021 0.87434 0.0
H263 H 0.22714 0.81355 0.84874 0.0
C264 C 0.43615 0.28144 0.41461 0.0
C265 C 0.46199 0.30874 0.4144 0.0
N266 N 0.48129 0.30797 0.42805 0.0
N267 N 0.43912 0.26332 0.42817 0.0
C268 C 0.4667 0.28022 0.43634 0.0
H269 H 0.41639 0.27517 0.40546 0.0
Co270 Co 0.40973 0.22395 0.43338 0.0
C271 C 0.44304 0.19217 0.44266 0.0
O272 O 0.42242 0.16863 0.43275 0.0
N273 N 0.37884 0.18401 0.43899 0.0
C274 C 0.33612 0.14059 0.4378 0.0
C275 C 0.35356 0.16733 0.42801 0.0
C276 C 0.37541 0.16701 0.45595 0.0
N277 N 0.34986 0.14024 0.45537 0.0
O278 O 0.40291 0.23589 0.46016 0.0
H279 H 0.34719 0.17395 0.414 0.0
H280 H 0.39134 0.17423 0.46854 0.0
O281 O 0.44045 0.21549 0.44435 0.0
C282 C 0.37971 0.2384 0.45839 0.0
O283 O 0.36596 0.23222 0.4404 0.0
N284 N 0.41454 0.2139 0.40598 0.0
C285 C 0.41341 0.19918 0.36418 0.0
C286 C 0.43755 0.20422 0.3768 0.0
C287 C 0.43797 0.21216 0.39768 0.0
C288 C 0.39295 0.21252 0.39322 0.0
C289 C 0.39138 0.20428 0.37249 0.0
H290 H 0.45739 0.21739 0.40684 0.0
H291 H 0.37667 0.21784 0.39925 0.0
H292 H 0.476 0.27231 0.44802 0.0
H293 H 0.46603 0.3278 0.40509 0.0
H294 H 0.315 0.12265 0.43219 0.0
H295 H 0.45577 0.20191 0.37066 0.0
H296 H 0.3733 0.20238 0.36295 0.0
C297 C 0.24227 0.39279 0.91029 0.0
C298 C 0.2556 0.37634 0.91516 0.0
N299 N 0.25292 0.37116 0.93575 0.0
N300 N 0.23054 0.39753 0.92762 0.0
C301 C 0.23809 0.3847 0.94295 0.0
H302 H 0.24192 0.40145 0.89511 0.0
Co303 Co 0.21303 0.4218 0.92972 0.0
C304 C 0.16517 0.36442 0.95125 0.0
O305 O 0.17573 0.3469 0.94609 0.0
N306 N 0.19617 0.44647 0.93198 0.0
C307 C 0.1631 0.46176 0.93408 0.0
C308 C 0.16698 0.43776 0.93033 0.0
C309 C 0.20964 0.47597 0.93644 0.0
N310 N 0.18999 0.48591 0.93799 0.0
O311 O 0.23566 0.43938 0.95453 0.0
H312 H 0.1495 0.41521 0.92691 0.0
H313 H 0.23344 0.48989 0.93846 0.0
O314 O 0.17869 0.39176 0.94555 0.0
C315 C 0.2619 0.45826 0.94839 0.0
O316 O 0.26731 0.46172 0.92836 0.0
N317 N 0.19363 0.40709 0.90412 0.0
C318 C 0.18369 0.39212 0.86205 0.0
C319 C 0.17179 0.3698 0.87738 0.0
C320 C 0.17687 0.37779 0.89842 0.0
C321 C 0.20346 0.42902 0.88952 0.0
C322 C 0.19822 0.42208 0.86852 0.0
H323 H 0.16973 0.36032 0.90978 0.0
H324 H 0.21727 0.45213 0.89408 0.0
H325 H 0.23272 0.38532 0.95911 0.0
H326 H 0.26723 0.36959 0.90442 0.0
H327 H 0.14191 0.46113 0.9344 0.0
H328 H 0.16054 0.34637 0.87323 0.0
H329 H 0.20701 0.44019 0.8574 0.0
C330 C 0.7313 0.1546 0.4061 0.0
C331 C 0.70379 0.15258 0.40682 0.0
N332 N 0.70511 0.17305 0.42043 0.0
N333 N 0.75007 0.17644 0.41902 0.0
C334 C 0.73339 0.187 0.42775 0.0
H335 H 0.73724 0.14093 0.39679 0.0
Co336 Co 0.78979 0.18734 0.42328 0.0
C337 C 0.8209 0.25271 0.4325 0.0
O338 O 0.84428 0.25614 0.42211 0.0
N339 N 0.8301 0.19743 0.42796 0.0
C340 C 0.87441 0.20045 0.42538 0.0
C341 C 0.84706 0.18996 0.41625 0.0
C342 C 0.84752 0.2114 0.44468 0.0
N343 N 0.87496 0.21433 0.4432 0.0
O344 O 0.77928 0.16906 0.45021 0.0
H345 H 0.84018 0.17698 0.40218 0.0
H346 H 0.84032 0.2199 0.45744 0.0
O347 O 0.79794 0.22657 0.43428 0.0
C348 C 0.77775 0.14368 0.44892 0.0
O349 O 0.78462 0.136 0.4312 0.0
N350 N 0.79829 0.20162 0.3957 0.0
C351 C 0.8081 0.21312 0.35318 0.0
C352 C 0.80554 0.23333 0.36642 0.0
C353 C 0.79973 0.22672 0.38757 0.0
C354 C 0.79843 0.18085 0.38273 0.0
C355 C 0.80387 0.18632 0.36156 0.0
H356 H 0.79555 0.24143 0.39704 0.0
H357 H 0.79409 0.15962 0.38891 0.0
H358 H 0.74181 0.20464 0.43919 0.0
H359 H 0.68423 0.13688 0.39819 0.0
H360 H 0.89229 0.19747 0.4194 0.0
H361 H 0.80715 0.25361 0.36037 0.0
H362 H 0.80494 0.16972 0.3519 0.0
C363 C 0.6153 0.85177 0.91711 0.0
C364 C 0.63239 0.88128 0.92258 0.0
N365 N 0.64726 0.88306 0.94018 0.0
N366 N 0.61934 0.83479 0.93106 0.0
C367 C 0.63878 0.85439 0.94504 0.0
H368 H 0.60034 0.84308 0.90398 0.0
Co369 Co 0.59839 0.79325 0.92988 0.0
C370 C 0.64121 0.77576 0.9448 0.0
O371 O 0.63744 0.76112 0.92741 0.0
N372 N 0.57572 0.7501 0.92882 0.0
C373 C 0.55604 0.70198 0.91999 0.0
C374 C 0.57701 0.73085 0.91509 0.0
C375 C 0.55356 0.73173 0.94201 0.0
N376 N 0.54114 0.70257 0.93689 0.0
O377 O 0.57587 0.79339 0.95337 0.0
H378 H 0.59229 0.7369 0.9022 0.0
H379 H 0.54645 0.73927 0.95533 0.0
O380 O 0.62777 0.79055 0.94794 0.0
C381 C 0.55278 0.79285 0.94598 0.0
O382 O 0.5484 0.79008 0.92584 0.0
N383 N 0.6189 0.79568 0.90522 0.0
C384 C 0.64356 0.8081 0.86542 0.0
C385 C 0.66203 0.81763 0.88299 0.0
C386 C 0.64922 0.81158 0.90283 0.0
C387 C 0.6008 0.78753 0.88827 0.0
C388 C 0.61257 0.79279 0.86829 0.0
H389 H 0.66359 0.82082 0.91619 0.0
H390 H 0.57693 0.77741 0.89033 0.0
H391 H 0.64628 0.84769 0.95859 0.0
H392 H 0.63293 0.89988 0.91452 0.0
H393 H 0.55154 0.68216 0.91138 0.0
H394 H 0.68608 0.83026 0.88143 0.0
H395 H 0.59749 0.78617 0.85519 0.0
H396 H 0.76591 0.26532 0.02181 0.0
H397 H 0.71629 0.25673 0.01348 0.0
H398 H 0.67956 0.16232 0.02314 0.0
H399 H 0.72915 0.17088 0.03183 0.0
H400 H 0.65208 0.2015 0.98996 0.0
H401 H 0.66684 0.21251 0.0759 0.0
H402 H 0.69821 0.23059 0.05847 0.0
H403 H 0.67986 0.19093 0.06207 0.0
C404 C 0.74771 0.24255 0.02081 0.0
C405 C 0.75137 0.21873 0.02749 0.0
C406 C 0.71923 0.23767 0.01609 0.0
C407 C 0.69428 0.20893 0.01788 0.0
C408 C 0.69858 0.18463 0.02153 0.0
H409 H 0.52152 0.14675 0.07003 0.0
H410 H 0.56626 0.15096 0.05396 0.0
C411 C 0.72697 0.18953 0.02642 0.0
C412 C 0.66464 0.20549 0.02211 0.0
H413 H 0.62033 0.20102 0.06275 0.0
C414 C 0.64503 0.20147 0.00581 0.0
C415 C 0.65572 0.20562 0.04284 0.0
C416 C 0.67617 0.21025 0.06091 0.0
C417 C 0.61624 0.19688 0.00987 0.0
C418 C 0.60724 0.19653 0.03068 0.0
C419 C 0.62719 0.20108 0.04683 0.0
C420 C 0.57714 0.19091 0.03657 0.0
C421 C 0.59544 0.19171 0.99202 0.0
C422 C 0.56786 0.21146 0.03164 0.0
C423 C 0.5421 0.20894 0.04078 0.0
C424 C 0.5256 0.18612 0.05519 0.0
C425 C 0.53406 0.16472 0.05917 0.0
C426 C 0.5595 0.16704 0.04991 0.0
H427 H 0.60331 0.18645 0.97741 0.0
H428 H 0.57262 0.17317 0.99556 0.0
H429 H 0.59407 0.2122 0.98945 0.0
H430 H 0.58142 0.23039 0.02172 0.0
H431 H 0.53618 0.22587 0.03765 0.0
H432 H 0.30872 0.5293 0.54557 0.0
H433 H 0.34839 0.57896 0.53508 0.0
H434 H 0.41317 0.56393 0.56638 0.0
H435 H 0.37387 0.51484 0.57738 0.0
H436 H 0.38898 0.62662 0.56167 0.0
H437 H 0.44874 0.59156 0.50753 0.0
H438 H 0.41054 0.56695 0.5154 0.0
H439 H 0.44081 0.57261 0.53203 0.0
C440 C 0.33132 0.53654 0.55038 0.0
C441 C 0.33794 0.51776 0.56231 0.0
C442 C 0.35402 0.56489 0.54419 0.0
C443 C 0.38379 0.57485 0.54956 0.0
C444 C 0.39043 0.55636 0.56159 0.0
H445 H 0.55126 0.71101 0.57132 0.0
H446 H 0.50677 0.66624 0.55935 0.0
C447 C 0.36783 0.5282 0.56789 0.0
C448 C 0.40803 0.60515 0.54377 0.0
H449 H 0.47751 0.64109 0.52208 0.0
C450 C 0.40806 0.63001 0.55255 0.0
C451 C 0.43269 0.60944 0.5317 0.0
C452 C 0.43314 0.58374 0.52093 0.0
C453 C 0.43329 0.65872 0.55121 0.0
C454 C 0.45893 0.66264 0.54048 0.0
C455 C 0.4579 0.6381 0.5303 0.0
C456 C 0.48841 0.69008 0.54326 0.0
C457 C 0.43319 0.68411 0.56276 0.0
C458 C 0.49383 0.71849 0.53714 0.0
C459 C 0.51965 0.74435 0.5439 0.0
C460 C 0.54006 0.74189 0.5569 0.0
C461 C 0.5358 0.71346 0.56134 0.0
C462 C 0.51034 0.68785 0.55452 0.0
H463 H 0.41274 0.67648 0.57228 0.0
H464 H 0.45292 0.69538 0.57311 0.0
H465 H 0.43442 0.70087 0.55147 0.0
H466 H 0.4774 0.7207 0.52813 0.0
H467 H 0.52237 0.76602 0.54032 0.0
H468 H 0.82299 0.36829 0.07313 0.0
H469 H 0.81124 0.40323 0.05648 0.0
H470 H 0.81166 0.36602 0.99662 0.0
H471 H 0.8241 0.33085 0.01338 0.0
H472 H 0.84476 0.42953 0.99802 0.0
H473 H 0.7324 0.38758 0.0308 0.0
H474 H 0.75817 0.39148 0.05077 0.0
H475 H 0.75026 0.36519 0.02997 0.0
C476 C 0.82075 0.3675 0.05642 0.0
C477 C 0.82475 0.3469 0.04458 0.0
C478 C 0.81359 0.38726 0.04693 0.0
C479 C 0.81004 0.38691 0.02534 0.0
C480 C 0.81398 0.36642 0.01334 0.0
H481 H 0.76316 0.52489 0.01508 0.0
H482 H 0.76236 0.48108 0.99949 0.0
C483 C 0.821 0.34634 0.02292 0.0
C484 C 0.80402 0.40946 0.0158 0.0
H485 H 0.76118 0.44135 0.02433 0.0
C486 C 0.826 0.43173 0.0032 0.0
C487 C 0.77911 0.41194 0.02191 0.0
C488 C 0.75349 0.38754 0.03391 0.0
C489 C 0.8255 0.45809 0.99872 0.0
C490 C 0.80284 0.46244 0.00749 0.0
C491 C 0.77894 0.4385 0.01784 0.0
C492 C 0.80654 0.49273 0.01021 0.0
C493 C 0.85013 0.48161 0.98557 0.0
C494 C 0.83215 0.5147 0.02041 0.0
C495 C 0.83257 0.53956 0.02918 0.0
C496 C 0.80743 0.543 0.02798 0.0
C497 C 0.783 0.52292 0.0159 0.0
C498 C 0.78248 0.49778 0.00714 0.0
H499 H 0.85623 0.47102 0.97292 0.0
H500 H 0.84365 0.49717 0.97862 0.0
H501 H 0.8703 0.49459 0.99527 0.0
H502 H 0.85071 0.51121 0.02356 0.0
H503 H 0.85146 0.55456 0.0387 0.0
H504 H 0.48661 0.78691 0.56702 0.0
H505 H 0.43892 0.77985 0.55457 0.0
H506 H 0.47158 0.87422 0.56208 0.0
H507 H 0.51882 0.88098 0.57541 0.0
H508 H 0.42069 0.84484 0.57952 0.0
H509 H 0.40832 0.79411 0.50214 0.0
H510 H 0.41463 0.77292 0.52137 0.0
H511 H 0.44319 0.81092 0.51612 0.0
C512 C 0.48374 0.80619 0.56564 0.0
C513 C 0.50631 0.83447 0.57226 0.0
C514 C 0.45655 0.80221 0.55833 0.0
C515 C 0.45168 0.82658 0.55697 0.0
C516 C 0.47473 0.85505 0.5629 0.0
H517 H 0.28201 0.82504 0.54364 0.0
H518 H 0.33373 0.83927 0.53492 0.0
C519 C 0.50167 0.85891 0.57058 0.0
C520 C 0.42158 0.82186 0.55182 0.0
H521 H 0.36239 0.78543 0.51872 0.0
C522 C 0.40831 0.83249 0.56593 0.0
C523 C 0.40522 0.80572 0.53408 0.0
C524 C 0.41875 0.79557 0.51748 0.0
C525 C 0.37883 0.82617 0.56341 0.0
C526 C 0.36201 0.80868 0.54633 0.0
C527 C 0.37541 0.79888 0.53178 0.0
C528 C 0.32956 0.79755 0.54521 0.0
C529 C 0.36527 0.83693 0.57963 0.0
C530 C 0.30986 0.76887 0.55277 0.0
C531 C 0.28059 0.76088 0.55786 0.0
C532 C 0.27048 0.78127 0.55513 0.0
C533 C 0.28918 0.80876 0.54547 0.0
C534 C 0.31873 0.81696 0.54062 0.0
H535 H 0.38073 0.84846 0.59276 0.0
H536 H 0.35931 0.85273 0.57245 0.0
H537 H 0.34446 0.81781 0.58586 0.0
H538 H 0.31786 0.75369 0.55653 0.0
H539 H 0.2666 0.7397 0.56553 0.0
H540 H 0.64263 0.49568 0.06175 0.0
H541 H 0.60607 0.44596 0.04976 0.0
H542 H 0.67568 0.43677 0.02002 0.0
H543 H 0.71269 0.48707 0.03166 0.0
H544 H 0.59455 0.42321 0.00641 0.0
H545 H 0.63094 0.36252 0.05957 0.0
H546 H 0.64092 0.40082 0.06442 0.0
H547 H 0.65829 0.39214 0.04357 0.0
C548 C 0.65032 0.48342 0.05247 0.0
C549 C 0.68076 0.49565 0.04766 0.0
C550 C 0.62932 0.45488 0.04566 0.0
C551 C 0.63817 0.43771 0.03402 0.0
C552 C 0.66844 0.44962 0.02912 0.0
H553 H 0.50343 0.24787 0.02906 0.0
H554 H 0.54835 0.29198 0.0157 0.0
C555 C 0.68958 0.47835 0.03589 0.0
C556 C 0.6153 0.4071 0.0277 0.0
H557 H 0.58497 0.3345 0.04291 0.0
C558 C 0.59276 0.40366 0.01399 0.0
C559 C 0.61327 0.38162 0.03733 0.0
C560 C 0.63701 0.38418 0.05211 0.0
C561 C 0.56717 0.37568 0.01084 0.0
C562 C 0.56375 0.35068 0.02206 0.0
C563 C 0.58752 0.35366 0.03433 0.0
C564 C 0.53416 0.32332 0.02472 0.0
C565 C 0.54345 0.37344 0.9962 0.0
C566 C 0.51084 0.32611 0.03348 0.0
C567 C 0.48547 0.30112 0.04116 0.0
C568 C 0.48283 0.27279 0.04022 0.0
C569 C 0.5048 0.26943 0.02976 0.0
C570 C 0.53053 0.29464 0.02225 0.0
H571 H 0.55361 0.3894 0.98312 0.0
H572 H 0.52987 0.35052 0.98983 0.0
H573 H 0.52847 0.37944 0.00464 0.0
H574 H 0.51327 0.34793 0.03604 0.0
H575 H 0.46893 0.3043 0.04929 0.0
H576 H 0.25351 0.51239 0.54119 0.0
H577 H 0.23956 0.55007 0.53334 0.0
H578 H 0.14663 0.48225 0.53557 0.0
H579 H 0.16062 0.44461 0.54367 0.0
H580 H 0.19553 0.55902 0.50594 0.0
H581 H 0.16806 0.53599 0.58995 0.0
H582 H 0.19052 0.52369 0.57643 0.0
H583 H 0.15086 0.5045 0.57265 0.0
C584 C 0.23021 0.50525 0.53871 0.0
C585 C 0.20812 0.47564 0.54278 0.0
C586 C 0.22223 0.52683 0.53436 0.0
C587 C 0.19207 0.51897 0.53415 0.0
C588 C 0.17002 0.48872 0.53567 0.0
H589 H 0.12218 0.63266 0.57473 0.0
H590 H 0.12508 0.59005 0.56088 0.0
C591 C 0.17802 0.46719 0.54009 0.0
C592 C 0.18407 0.54251 0.53718 0.0
H593 H 0.16249 0.57398 0.57502 0.0
C594 C 0.18799 0.56219 0.52095 0.0
C595 C 0.17447 0.54667 0.55684 0.0
C596 C 0.17088 0.5268 0.57507 0.0
C597 C 0.18245 0.586 0.5239 0.0
C598 C 0.17347 0.59052 0.54373 0.0
C599 C 0.16915 0.57045 0.55979 0.0
C600 C 0.16994 0.61666 0.54883 0.0
C601 C 0.1861 0.60589 0.50574 0.0
C602 C 0.19395 0.64589 0.54638 0.0
C603 C 0.1922 0.67026 0.55416 0.0
C604 C 0.16661 0.66583 0.56488 0.0
C605 C 0.14224 0.63669 0.56671 0.0
C606 C 0.14386 0.61237 0.55872 0.0
H607 H 0.18295 0.59398 0.49077 0.0
H608 H 0.17002 0.61413 0.50657 0.0
H609 H 0.20904 0.62544 0.50586 0.0
H610 H 0.21464 0.64982 0.5394 0.0
H611 H 0.21152 0.69239 0.5528 0.0
H612 H 0.80738 0.49829 0.45477 0.0
H613 H 0.7977 0.44719 0.46009 0.0
H614 H 0.85468 0.45737 0.4082 0.0
H615 H 0.86414 0.50811 0.40264 0.0
H616 H 0.79698 0.40199 0.40926 0.0
H617 H 0.86124 0.42626 0.48289 0.0
H618 H 0.83389 0.43794 0.4811 0.0
H619 H 0.86653 0.45537 0.46501 0.0
C620 C 0.81765 0.48956 0.4444 0.0
C621 C 0.83672 0.5074 0.42836 0.0
C622 C 0.81228 0.46045 0.44756 0.0
C623 C 0.82574 0.44863 0.43467 0.0
C624 C 0.84421 0.46612 0.4184 0.0
H625 H 0.86728 0.30964 0.43585 0.0
H626 H 0.86495 0.35547 0.4391 0.0
C627 C 0.84975 0.49521 0.41533 0.0
C628 C 0.82089 0.4181 0.43799 0.0
H629 H 0.83998 0.37738 0.46964 0.0
C630 C 0.806 0.39642 0.42259 0.0
C631 C 0.83292 0.41106 0.45532 0.0
C632 C 0.84973 0.43382 0.47204 0.0
C633 C 0.8034 0.36808 0.4238 0.0
C634 C 0.81586 0.36116 0.44098 0.0
C635 C 0.8302 0.38264 0.45661 0.0
C636 C 0.81689 0.33298 0.44179 0.0
C637 C 0.78856 0.34622 0.40623 0.0
C638 C 0.79069 0.30501 0.44298 0.0
C639 C 0.79195 0.27862 0.44119 0.0
C640 C 0.81944 0.27982 0.43809 0.0
C641 C 0.84571 0.30788 0.43806 0.0
C642 C 0.84445 0.33415 0.43996 0.0
H643 H 0.78451 0.35679 0.39258 0.0
H644 H 0.80245 0.3365 0.40126 0.0
H645 H 0.76675 0.32765 0.41159 0.0
H646 H 0.76921 0.3036 0.44467 0.0
H647 H 0.77131 0.25746 0.44126 0.0
H648 H 0.37187 0.88341 0.93391 0.0
H649 H 0.41402 0.8793 0.94707 0.0
H650 H 0.35643 0.78416 0.95427 0.0
H651 H 0.31396 0.78858 0.94205 0.0
H652 H 0.39631 0.80597 0.98516 0.0
H653 H 0.45521 0.84931 0.91022 0.0
H654 H 0.44752 0.87536 0.92327 0.0
H655 H 0.41717 0.84034 0.91412 0.0
C656 C 0.36827 0.86171 0.93848 0.0
C657 C 0.33986 0.83625 0.93672 0.0
C658 C 0.39233 0.85933 0.94591 0.0
C659 C 0.38864 0.83129 0.95107 0.0
C660 C 0.35991 0.80602 0.95026 0.0
H661 H 0.49548 0.75175 0.95363 0.0
H662 H 0.45596 0.76296 0.96176 0.0
C663 C 0.33568 0.80852 0.94326 0.0
C664 C 0.4149 0.82799 0.95604 0.0
H665 H 0.48127 0.84003 0.93626 0.0
C666 C 0.41496 0.81356 0.97452 0.0
C667 C 0.43919 0.83767 0.94208 0.0
C668 C 0.43972 0.85124 0.92123 0.0
C669 C 0.43852 0.80839 0.97926 0.0
C670 C 0.46263 0.8181 0.96529 0.0
C671 C 0.46294 0.83312 0.94713 0.0
C672 C 0.48613 0.80993 0.96756 0.0
C673 C 0.4374 0.79226 0.99899 0.0
C674 C 0.51624 0.83234 0.96911 0.0
C675 C 0.53888 0.82577 0.96486 0.0
C676 C 0.53156 0.79684 0.95874 0.0
C677 C 0.50159 0.774 0.95889 0.0
C678 C 0.47902 0.78044 0.96346 0.0
H679 H 0.42087 0.79191 0.01018 0.0
H680 H 0.43095 0.76884 0.99522 0.0
H681 H 0.45969 0.80292 0.00648 0.0
H682 H 0.52214 0.85532 0.97193 0.0
H683 H 0.56181 0.84387 0.96422 0.0
H684 H 0.70433 0.56042 0.43857 0.0
H685 H 0.65929 0.51224 0.44314 0.0
H686 H 0.71257 0.47192 0.45745 0.0
H687 H 0.7581 0.52041 0.4529 0.0
H688 H 0.6711 0.44204 0.42642 0.0
H689 H 0.61579 0.46127 0.49327 0.0
H690 H 0.62688 0.48987 0.47399 0.0
H691 H 0.65487 0.4855 0.48748 0.0
C692 C 0.70663 0.54151 0.44307 0.0
C693 C 0.73501 0.54434 0.44509 0.0
C694 C 0.68072 0.51391 0.44582 0.0
C695 C 0.68244 0.48842 0.4508 0.0
C696 C 0.71068 0.4913 0.45366 0.0
H697 H 0.51265 0.31787 0.46392 0.0
H698 H 0.5632 0.35909 0.4712 0.0
C699 C 0.73673 0.51907 0.45104 0.0
C700 C 0.65482 0.45859 0.45088 0.0
H701 H 0.58375 0.42106 0.47011 0.0
C702 C 0.65219 0.43723 0.43625 0.0
C703 C 0.63019 0.45208 0.46384 0.0
C704 C 0.63214 0.47329 0.48068 0.0
C705 C 0.62512 0.41041 0.43339 0.0
C706 C 0.59987 0.40493 0.44529 0.0
C707 C 0.60298 0.42541 0.46079 0.0
C708 C 0.56966 0.37921 0.44085 0.0
C709 C 0.62364 0.38839 0.41737 0.0
C710 C 0.5564 0.37694 0.42146 0.0
C711 C 0.52763 0.35351 0.41727 0.0
C712 C 0.5113 0.33177 0.43241 0.0
C713 C 0.52467 0.33401 0.45184 0.0
C714 C 0.5535 0.35764 0.45606 0.0
H715 H 0.64605 0.39124 0.41429 0.0
H716 H 0.60839 0.36503 0.42238 0.0
H717 H 0.6151 0.39218 0.40258 0.0
H718 H 0.56821 0.39358 0.40958 0.0
H719 H 0.51826 0.35238 0.40208 0.0
H720 H 0.25728 0.76359 0.96565 0.0
H721 H 0.25826 0.71827 0.97595 0.0
H722 H 0.17154 0.66382 0.94833 0.0
H723 H 0.17055 0.70865 0.93812 0.0
H724 H 0.17991 0.63883 0.98473 0.0
H725 H 0.2735 0.67398 0.92838 0.0
H726 H 0.27872 0.69888 0.94954 0.0
H727 H 0.2518 0.69243 0.92975 0.0
C728 C 0.23803 0.74193 0.9625 0.0
C729 C 0.21389 0.73951 0.95101 0.0
C730 C 0.23873 0.71606 0.96817 0.0
C731 C 0.21523 0.68767 0.96249 0.0
C732 C 0.18998 0.68543 0.95279 0.0
H733 H 0.15458 0.50989 0.93078 0.0
H734 H 0.16381 0.55917 0.94082 0.0
C735 C 0.1894 0.71107 0.94701 0.0
C736 C 0.21765 0.66031 0.96415 0.0
H737 H 0.25015 0.62468 0.9402 0.0
C738 C 0.1957 0.63591 0.97537 0.0
C739 C 0.23822 0.65647 0.95186 0.0
C740 C 0.26185 0.68168 0.93907 0.0
C741 C 0.1928 0.60748 0.9738 0.0
C742 C 0.21209 0.60325 0.96044 0.0
C743 C 0.23531 0.628 0.95034 0.0
C744 C 0.20656 0.57295 0.95507 0.0
C745 C 0.1685 0.58197 0.98594 0.0
C746 C 0.22789 0.56452 0.95926 0.0
C747 C 0.2226 0.53607 0.95362 0.0
C748 C 0.19599 0.51561 0.94344 0.0
C749 C 0.175 0.52455 0.93896 0.0
C750 C 0.18023 0.55283 0.94472 0.0
H751 H 0.16188 0.59013 0.99979 0.0
H752 H 0.14853 0.56971 0.97592 0.0
H753 H 0.1757 0.56606 0.99105 0.0
H754 H 0.24851 0.57984 0.96706 0.0
H755 H 0.23921 0.53008 0.95752 0.0
H756 H 0.45365 0.14568 0.44384 0.0
H757 H 0.50172 0.14798 0.44591 0.0
H758 H 0.54567 0.24346 0.45433 0.0
H759 H 0.49746 0.24139 0.45199 0.0
H760 H 0.57043 0.2275 0.42301 0.0
H761 H 0.55911 0.16017 0.49248 0.0
H762 H 0.52819 0.14068 0.47512 0.0
H763 H 0.53442 0.17464 0.48741 0.0
C764 C 0.47343 0.16716 0.44655 0.0
C765 C 0.47162 0.19339 0.44765 0.0
C766 C 0.50095 0.16839 0.44788 0.0
C767 C 0.52735 0.19584 0.4505 0.0
C768 C 0.52557 0.22199 0.45243 0.0
H769 H 0.69813 0.19681 0.45634 0.0
H770 H 0.65746 0.20628 0.465 0.0
C771 C 0.49794 0.22076 0.45116 0.0
C772 C 0.55675 0.19731 0.44899 0.0
H773 H 0.59606 0.16526 0.46733 0.0
C774 C 0.57625 0.21428 0.43294 0.0
C775 C 0.56462 0.18039 0.46207 0.0
C776 C 0.54561 0.1632 0.48037 0.0
C777 C 0.60252 0.21348 0.42892 0.0
C778 C 0.60927 0.19485 0.44104 0.0
C779 C 0.59068 0.17921 0.45784 0.0
C780 C 0.63446 0.18994 0.43575 0.0
C781 C 0.62262 0.23231 0.4115 0.0
C782 C 0.6349 0.17734 0.41654 0.0
C783 C 0.65808 0.17198 0.41154 0.0
C784 C 0.68135 0.17893 0.42568 0.0
C785 C 0.68082 0.19151 0.44498 0.0
C786 C 0.6575 0.19679 0.45 0.0
H787 H 0.61952 0.25163 0.40809 0.0
H788 H 0.64645 0.24079 0.41528 0.0
H789 H 0.6171 0.2185 0.39723 0.0
H790 H 0.61711 0.17137 0.40544 0.0
H791 H 0.65784 0.16258 0.39648 0.0
H792 H 0.27385 0.51118 0.96505 0.0
H793 H 0.32428 0.55174 0.97302 0.0
H794 H 0.35697 0.48986 0.96908 0.0
H795 H 0.30662 0.44947 0.96064 0.0
H796 H 0.37681 0.56564 0.99998 0.0
H797 H 0.38898 0.54489 0.91671 0.0
H798 H 0.35315 0.52875 0.92937 0.0
H799 H 0.37704 0.51337 0.93366 0.0
C800 C 0.29149 0.50596 0.96706 0.0
C801 C 0.28643 0.47726 0.96244 0.0
C802 C 0.32035 0.52918 0.97148 0.0
C803 C 0.34442 0.52388 0.97127 0.0
C804 C 0.33871 0.49444 0.96918 0.0
H805 H 0.52966 0.64552 0.93893 0.0
H806 H 0.48355 0.6019 0.9508 0.0
C807 C 0.30991 0.4713 0.9646 0.0
C808 C 0.37528 0.54935 0.96899 0.0
H809 H 0.43073 0.5838 0.93305 0.0
C810 C 0.38878 0.56957 0.98543 0.0
C811 C 0.39066 0.55459 0.94989 0.0
C812 C 0.37673 0.53446 0.9313 0.0
C813 C 0.4175 0.59474 0.98332 0.0
C814 C 0.43275 0.60003 0.96413 0.0
C815 C 0.4192 0.57964 0.94781 0.0
C816 C 0.46225 0.62701 0.96006 0.0
C817 C 0.43133 0.61521 0.00169 0.0
C818 C 0.46589 0.65576 0.96158 0.0
C819 C 0.49234 0.68076 0.95485 0.0
C820 C 0.51547 0.67744 0.94616 0.0
C821 C 0.51213 0.64876 0.94531 0.0
C822 C 0.48584 0.62384 0.9522 0.0
H823 H 0.4214 0.60352 0.01653 0.0
H824 H 0.45582 0.6243 0.00221 0.0
H825 H 0.42718 0.63422 1.00042 0.0
H826 H 0.44779 0.65878 0.96705 0.0
H827 H 0.49403 0.70246 0.95546 0.0
H828 H 0.45646 0.22299 0.33406 0.0
H829 H 0.45036 0.2108 0.29692 0.0
H830 H 0.35951 0.14133 0.30789 0.0
H831 H 0.36529 0.15395 0.34485 0.0
H832 H 0.43532 0.16054 0.274 0.0
H833 H 0.34849 0.19291 0.26593 0.0
H834 H 0.37071 0.20062 0.28906 0.0
H835 H 0.33947 0.16385 0.28455 0.0
C836 C 0.43535 0.2049 0.32854 0.0
C837 C 0.41123 0.18967 0.34223 0.0
C838 C 0.43184 0.19797 0.30735 0.0
C839 C 0.40425 0.17561 0.29957 0.0
C840 C 0.38072 0.15922 0.31345 0.0
H841 H 0.3889 0.12333 0.16733 0.0
H842 H 0.38493 0.11912 0.20534 0.0
C843 C 0.38408 0.16636 0.33455 0.0
C844 C 0.39974 0.17043 0.27686 0.0
H845 H 0.35919 0.17342 0.23615 0.0
C846 C 0.41858 0.16318 0.26571 0.0
C847 C 0.37803 0.17415 0.26607 0.0
C848 C 0.35819 0.18358 0.27695 0.0
C849 C 0.41668 0.1601 0.244 0.0
C850 C 0.39488 0.16371 0.23323 0.0
C851 C 0.37563 0.1703 0.24446 0.0
C852 C 0.39397 0.16435 0.21022 0.0
C853 C 0.43892 0.15439 0.23273 0.0
C854 C 0.39874 0.19052 0.20036 0.0
C855 C 0.4005 0.19277 0.1788 0.0
C856 C 0.39768 0.16893 0.16658 0.0
C857 C 0.39124 0.14207 0.17636 0.0
C858 C 0.38935 0.13979 0.19806 0.0
H859 H 0.45791 0.1583 0.24284 0.0
H860 H 0.42768 0.1308 0.22744 0.0
H861 H 0.4479 0.16896 0.21886 0.0
H862 H 0.40207 0.20966 0.20938 0.0
H863 H 0.40488 0.21356 0.1717 0.0
H864 H 0.2101 0.42165 0.67219 0.0
H865 H 0.19856 0.41067 0.70866 0.0
H866 H 0.21061 0.33423 0.7031 0.0
H867 H 0.22446 0.34642 0.66653 0.0
H868 H 0.15515 0.36447 0.72797 0.0
H869 H 0.2636 0.37579 0.75168 0.0
H870 H 0.25786 0.38651 0.72627 0.0
H871 H 0.24328 0.34773 0.73241 0.0
C872 C 0.21112 0.4029 0.67869 0.0
C873 C 0.21908 0.38543 0.66638 0.0
C874 C 0.20398 0.39635 0.69959 0.0
C875 C 0.20411 0.37188 0.70881 0.0
C876 C 0.21102 0.35366 0.6965 0.0
H877 H 0.14053 0.34425 0.83955 0.0
H878 H 0.14264 0.33253 0.80292 0.0
C879 C 0.21862 0.36048 0.6755 0.0
C880 C 0.19741 0.36635 0.73137 0.0
H881 H 0.22885 0.36679 0.77799 0.0
C882 C 0.17112 0.36466 0.73893 0.0
C883 C 0.21826 0.36659 0.74565 0.0
C884 C 0.24745 0.36948 0.73869 0.0
C885 C 0.16595 0.3651 0.76031 0.0
C886 C 0.18721 0.3662 0.77459 0.0
C887 C 0.21257 0.36596 0.76703 0.0
C888 C 0.18576 0.37163 0.79715 0.0
C889 C 0.13875 0.36637 0.76728 0.0
C890 C 0.20966 0.39683 0.80634 0.0
C891 C 0.20885 0.40316 0.82727 0.0
C892 C 0.18388 0.38471 0.83966 0.0
C893 C 0.16006 0.35908 0.83054 0.0
C894 C 0.16109 0.3525 0.8095 0.0
H895 H 0.12819 0.37179 0.75429 0.0
H896 H 0.12199 0.34429 0.77359 0.0
H897 H 0.14458 0.38334 0.77968 0.0
H898 H 0.22904 0.41187 0.79723 0.0
H899 H 0.22814 0.4225 0.83376 0.0
H900 H 0.84935 0.26546 0.33484 0.0
H901 H 0.86087 0.27495 0.2977 0.0
H902 H 0.79316 0.18438 0.28377 0.0
H903 H 0.78128 0.17483 0.32069 0.0
H904 H 0.87816 0.24086 0.26907 0.0
H905 H 0.77358 0.2391 0.24691 0.0
H906 H 0.78706 0.24494 0.2733 0.0
H907 H 0.7688 0.20805 0.26232 0.0
C908 C 0.83673 0.24769 0.32382 0.0
C909 C 0.81441 0.21941 0.33069 0.0
C910 C 0.84349 0.25306 0.30267 0.0
C911 C 0.82778 0.23038 0.28804 0.0
C912 C 0.80541 0.20221 0.29482 0.0
H913 H 0.85762 0.21088 0.1578 0.0
H914 H 0.85644 0.2083 0.19586 0.0
C915 C 0.79877 0.19676 0.31593 0.0
C916 C 0.83459 0.23601 0.26563 0.0
H917 H 0.80441 0.23974 0.21952 0.0
C918 C 0.86216 0.24079 0.2582 0.0
C919 C 0.81371 0.23607 0.25158 0.0
C920 C 0.78419 0.23201 0.25886 0.0
C921 C 0.86915 0.24508 0.23692 0.0
C922 C 0.84793 0.24439 0.22282 0.0
C923 C 0.8206 0.24013 0.23036 0.0
C924 C 0.85338 0.24822 0.20014 0.0
C925 C 0.8992 0.25058 0.22971 0.0
C926 C 0.85257 0.27174 0.18997 0.0
C927 C 0.85319 0.27321 0.16835 0.0
C928 C 0.85447 0.25107 0.15642 0.0
C929 C 0.85694 0.2284 0.1666 0.0
C930 C 0.85625 0.22691 0.18833 0.0
H931 H 0.91535 0.25728 0.24273 0.0
H932 H 0.89662 0.22975 0.22279 0.0
H933 H 0.90857 0.26825 0.21763 0.0
H934 H 0.85039 0.28843 0.19878 0.0
H935 H 0.85154 0.29109 0.16091 0.0
H936 H 0.68833 0.86202 0.85117 0.0
H937 H 0.7032 0.87635 0.81494 0.0
H938 H 0.64082 0.78645 0.79532 0.0
H939 H 0.62636 0.77187 0.8314 0.0
H940 H 0.69707 0.81378 0.77381 0.0
H941 H 0.64487 0.88547 0.77582 0.0
H942 H 0.67319 0.89279 0.79477 0.0
H943 H 0.63816 0.85848 0.79585 0.0
C944 C 0.67834 0.84517 0.83917 0.0
C945 C 0.65596 0.81588 0.84409 0.0
C946 C 0.68665 0.85346 0.81848 0.0
C947 C 0.67274 0.83257 0.80246 0.0
C948 C 0.65173 0.80294 0.80746 0.0
H949 H 0.62705 0.79791 0.67826 0.0
H950 H 0.64255 0.80013 0.71419 0.0
C951 C 0.64337 0.79468 0.82806 0.0
C952 C 0.67802 0.84159 0.78035 0.0
H953 H 0.66007 0.87727 0.74348 0.0
C954 C 0.68952 0.82812 0.7672 0.0
C955 C 0.66831 0.86046 0.77179 0.0
C956 C 0.65527 0.87508 0.78517 0.0
C957 C 0.69021 0.83184 0.7456 0.0
C958 C 0.67858 0.84901 0.73695 0.0
C959 C 0.66895 0.8641 0.75017 0.0
C960 C 0.67211 0.84805 0.71447 0.0
C961 C 0.70253 0.81657 0.7322 0.0
C962 C 0.68331 0.87435 0.70267 0.0
C963 C 0.67425 0.87314 0.68202 0.0
C964 C 0.65343 0.84569 0.67308 0.0
C965 C 0.64285 0.81943 0.68482 0.0
C966 C 0.652 0.82062 0.70528 0.0
H967 H 0.71961 0.81374 0.74068 0.0
H968 H 0.68416 0.794 0.7279 0.0
H969 H 0.71264 0.82934 0.71774 0.0
H970 H 0.6986 0.89579 0.70956 0.0
H971 H 0.68266 0.8937 0.67331 0.0
H972 H 0.82499 0.6342 0.16354 0.0
H973 H 0.82484 0.6317 0.20144 0.0
H974 H 0.72861 0.58303 0.20144 0.0
H975 H 0.72863 0.58505 0.16347 0.0
H976 H 0.80171 0.65051 0.2322 0.0
H977 H 0.74748 0.52669 0.23279 0.0
H978 H 0.76178 0.54836 0.20938 0.0
H979 H 0.72641 0.54075 0.21979 0.0
C980 C 0.8038 0.62341 0.17163 0.0
C981 C 0.77682 0.60964 0.16054 0.0
C982 C 0.80374 0.62186 0.19328 0.0
C983 C 0.77673 0.60657 0.20424 0.0
C984 C 0.74972 0.5942 0.19327 0.0
H985 H 0.74883 0.57867 0.33865 0.0
H986 H 0.74056 0.58106 0.30138 0.0
C987 C 0.74976 0.59552 0.17161 0.0
C988 C 0.77704 0.60297 0.22706 0.0
H989 H 0.75698 0.55073 0.26542 0.0
C990 C 0.79183 0.6287 0.23945 0.0
C991 C 0.7642 0.57444 0.23651 0.0
C992 C 0.7493 0.54596 0.22395 0.0
C993 C 0.79429 0.62666 0.26099 0.0
C994 C 0.78174 0.59821 0.27034 0.0
C995 C 0.76641 0.57248 0.25811 0.0
C996 C 0.78599 0.5949 0.29264 0.0
C997 C 0.81054 0.65491 0.27367 0.0
C998 C 0.81401 0.60105 0.29985 0.0
C999 C 0.81871 0.59934 0.32099 0.0
C1000 C 0.7955 0.59163 0.33539 0.0
C1001 C 0.76712 0.58448 0.32799 0.0
C1002 C 0.76239 0.58603 0.30675 0.0
H1003 H 0.81434 0.67491 0.26479 0.0
H1004 H 0.79778 0.65319 0.28798 0.0
H1005 H 0.83254 0.65813 0.27846 0.0
H1006 H 0.83235 0.6075 0.2891 0.0
H1007 H 0.84066 0.60433 0.32606 0.0
H1008 H 0.2209 0.89275 0.83695 0.0
H1009 H 0.20662 0.8945 0.80074 0.0
H1010 H 0.16245 0.79833 0.7975 0.0
H1011 H 0.17616 0.79651 0.83335 0.0
H1012 H 0.22459 0.87382 0.76739 0.0
H1013 H 0.10166 0.81441 0.77 0.0
H1014 H 0.12432 0.82969 0.79297 0.0
H1015 H 0.11575 0.79356 0.7832 0.0
C1016 C 0.20759 0.87205 0.82856 0.0
C1017 C 0.19984 0.84452 0.83783 0.0
C1018 C 0.19949 0.87305 0.80794 0.0
C1019 C 0.18307 0.84651 0.79652 0.0
C1020 C 0.17449 0.81905 0.8061 0.0
H1021 H 0.1524 0.76485 0.6819 0.0
H1022 H 0.15274 0.78165 0.71744 0.0
C1023 C 0.18268 0.81806 0.82652 0.0
C1024 C 0.17766 0.84703 0.77397 0.0
H1025 H 0.12372 0.81131 0.73723 0.0
C1026 C 0.20248 0.86093 0.76072 0.0
C1027 C 0.14878 0.83024 0.76532 0.0
C1028 C 0.12112 0.81641 0.77866 0.0
C1029 C 0.19941 0.85632 0.73917 0.0
C1030 C 0.17072 0.83763 0.7307 0.0
C1031 C 0.1457 0.82549 0.74379 0.0
C1032 C 0.16685 0.82727 0.70888 0.0
C1033 C 0.22708 0.86965 0.7258 0.0
C1034 C 0.17375 0.84716 0.69225 0.0
C1035 C 0.17359 0.83759 0.67187 0.0
C1036 C 0.16661 0.80801 0.66789 0.0
C1037 C 0.15819 0.78784 0.68453 0.0
C1038 C 0.15823 0.79737 0.70481 0.0
H1039 H 0.24788 0.88058 0.73515 0.0
H1040 H 0.22732 0.8521 0.71597 0.0
H1041 H 0.22706 0.88665 0.71534 0.0
H1042 H 0.18018 0.87027 0.69508 0.0
H1043 H 0.18034 0.85367 0.65938 0.0
H1044 H 0.26001 0.87701 0.97947 0.0
H1045 H 0.27948 0.92075 0.00254 0.0
H1046 H 0.2768 0.97385 0.95193 0.0
H1047 H 0.2585 0.93075 0.92889 0.0
H1048 H 0.33033 0.99957 0.96871 0.0
H1049 H 0.24711 0.9674 0.03189 0.0
H1050 H 0.25987 0.94121 0.02826 0.0
H1051 H 0.23913 0.94651 0.00798 0.0
C1052 C 0.26278 0.89782 0.97352 0.0
C1053 C 0.25785 0.90057 0.95243 0.0
C1054 C 0.27386 0.92283 0.98669 0.0
C1055 C 0.27955 0.9507 0.97902 0.0
C1056 C 0.27275 0.95273 0.95824 0.0
H1057 H 0.37399 0.13434 0.02829 0.0
H1058 H 0.34135 0.08969 0.00761 0.0
C1059 C 0.2622 0.92804 0.94509 0.0
C1060 C 0.29561 0.97849 0.99168 0.0
H1061 H 0.2946 0.01117 0.03763 0.0
C1062 C 0.32226 1.00218 0.98367 0.0
C1063 C 0.28522 0.98197 0.01124 0.0
C1064 C 0.25612 0.95804 0.02028 0.0
C1065 C 0.33906 0.02887 0.99479 0.0
C1066 C 0.32892 0.03216 0.01445 0.0
C1067 C 0.30223 0.00863 0.02248 0.0
C1068 C 0.34692 0.05909 0.02743 0.0
C1069 C 0.36806 0.05303 0.98573 0.0
C1070 C 0.36039 0.05659 0.04554 0.0
C1071 C 0.37908 0.08192 0.05724 0.0
C1072 C 0.38454 0.11039 0.0512 0.0
C1073 C 0.37036 0.11279 0.03332 0.0
C1074 C 0.35176 0.08733 0.02149 0.0
H1075 H 0.37516 0.04507 0.97202 0.0
H1076 H 0.36534 0.07208 0.98081 0.0
H1077 H 0.38606 0.06141 0.99755 0.0
H1078 H 0.35698 0.03505 0.0504 0.0
H1079 H 0.38939 0.07911 0.071 0.0
H1080 H 0.20188 0.30881 0.542 0.0
H1081 H 0.23195 0.28799 0.52865 0.0
H1082 H 0.31123 0.3745 0.53348 0.0
H1083 H 0.2814 0.39565 0.54661 0.0
H1084 H 0.27082 0.30829 0.49234 0.0
H1085 H 0.33204 0.31651 0.56516 0.0
H1086 H 0.29761 0.31743 0.565 0.0
H1087 H 0.33179 0.34965 0.55704 0.0
C1088 C 0.2257 0.32349 0.5402 0.0
C1089 C 0.23919 0.35391 0.54559 0.0
C1090 C 0.24286 0.3115 0.53262 0.0
C1091 C 0.2739 0.32956 0.53045 0.0
C1092 C 0.2874 0.36001 0.53545 0.0
H1093 H 0.40861 0.2904 0.48075 0.0
H1094 H 0.38413 0.31328 0.50027 0.0
C1095 C 0.27024 0.37208 0.54289 0.0
C1096 C 0.29189 0.31668 0.52224 0.0
H1097 H 0.34527 0.29905 0.53529 0.0
C1098 C 0.28706 0.30623 0.50173 0.0
C1099 C 0.31333 0.31436 0.53446 0.0
C1100 C 0.31901 0.32487 0.5567 0.0
C1101 C 0.30306 0.29352 0.49308 0.0
C1102 C 0.3239 0.29033 0.50545 0.0
C1103 C 0.32917 0.3013 0.52588 0.0
C1104 C 0.33969 0.27499 0.49734 0.0
C1105 C 0.29777 0.28404 0.47059 0.0
C1106 C 0.32314 0.24536 0.49035 0.0
C1107 C 0.337 0.23248 0.47921 0.0
C1108 C 0.36779 0.24866 0.47529 0.0
C1109 C 0.38491 0.27731 0.48391 0.0
C1110 C 0.3709 0.29044 0.49489 0.0
H1111 H 0.28812 0.29571 0.46186 0.0
H1112 H 0.31881 0.28857 0.46285 0.0
H1113 H 0.28172 0.25969 0.46968 0.0
H1114 H 0.29918 0.23276 0.49248 0.0
H1115 H 0.32333 0.21042 0.47258 0.0
H1116 H 0.88844 0.24644 0.01784 0.0
H1117 H 0.93295 0.25454 0.99842 0.0
H1118 H 0.98943 0.31932 0.04399 0.0
H1119 H 0.94577 0.31155 0.06326 0.0
H1120 H 0.98008 0.31073 0.98187 0.0
H1121 H 0.02337 0.26223 0.03918 0.0
H1122 H 0.98514 0.25417 0.03928 0.0
H1123 H 0.01411 0.28836 0.05044 0.0
C1124 C 0.91037 0.26224 0.02375 0.0
C1125 C 0.91346 0.27831 0.04212 0.0
C1126 C 0.93575 0.26686 0.01264 0.0
C1127 C 0.96452 0.28723 0.01994 0.0
C1128 C 0.96752 0.30311 0.03826 0.0
H1129 H 0.1366 0.39393 0.96475 0.0
H1130 H 0.08677 0.37246 0.97987 0.0
C1131 C 0.94239 0.29873 0.0492 0.0
C1132 C 0.99176 0.29325 0.00825 0.0
H1133 H 0.05852 0.29568 0.01412 0.0
C1134 C 0.99705 0.30701 0.98875 0.0
C1135 C 0.01379 0.28816 0.01714 0.0
C1136 C 1.00876 0.27215 0.03758 0.0
C1137 C 0.0244 0.31717 0.97839 0.0
C1138 C 0.04719 0.31384 0.98794 0.0
C1139 C 0.04126 0.29864 0.00693 0.0
C1140 C 0.0776 0.3268 0.97882 0.0
C1141 C 0.02874 0.33163 0.9574 0.0
C1142 C 0.08955 0.30844 0.97385 0.0
C1143 C 0.11818 0.32069 0.96526 0.0
C1144 C 0.13556 0.35161 0.96157 0.0
C1145 C 0.12378 0.37001 0.96709 0.0
C1146 C 0.09516 0.35773 0.97564 0.0
H1147 H 1.00704 0.32468 0.94969 0.0
H1148 H 0.04051 0.35625 0.95934 0.0
H1149 H 0.0424 0.32595 0.94709 0.0
H1150 H 0.07654 0.28455 0.97637 0.0
H1151 H 0.1265 0.30583 0.96126 0.0
H1152 H 0.68907 0.92976 0.58099 0.0
H1153 H 0.71332 0.97463 0.55951 0.0
H1154 H 0.64761 0.92937 0.51162 0.0
H1155 H 0.62398 0.88373 0.53291 0.0
H1156 H 0.70073 0.96541 0.49483 0.0
H1157 H 0.67986 0.02924 0.55484 0.0
H1158 H 0.70186 0.01424 0.56492 0.0
H1159 H 0.66422 0.98933 0.55636 0.0
C1160 C 0.68026 0.92918 0.56564 0.0
C1161 C 0.65474 0.90335 0.55854 0.0
C1162 C 0.69384 0.95498 0.55351 0.0
C1163 C 0.68165 0.95584 0.53427 0.0
C1164 C 0.65721 0.9294 0.52654 0.0
H1165 H 0.72789 0.12569 0.47296 0.0
H1166 H 0.70318 0.07992 0.49406 0.0
C1167 C 0.64388 0.90327 0.53859 0.0
C1168 C 0.6941 0.98452 0.52262 0.0
H1169 H 0.71438 0.05816 0.52801 0.0
C1170 C 0.7035 0.98562 0.50205 0.0
C1171 C 0.69702 0.01085 0.53177 0.0
C1172 C 0.68488 0.01081 0.5531 0.0
C1173 C 0.71676 0.01243 0.4907 0.0
C1174 C 0.72173 0.03921 0.5004 0.0
C1175 C 0.71123 0.03787 0.52068 0.0
C1176 C 0.73798 0.06874 0.48977 0.0
C1177 C 0.72483 0.01156 0.46829 0.0
C1178 C 0.76643 0.07862 0.48135 0.0
C1179 C 0.78028 0.10442 0.46923 0.0
C1180 C 0.76646 0.12147 0.46581 0.0
C1181 C 0.73917 0.11312 0.47563 0.0
C1182 C 0.72496 0.08684 0.4875 0.0
H1183 H 0.71092 0.98894 0.46149 0.0
H1184 H 0.72203 0.02784 0.45875 0.0
H1185 H 0.74847 0.01714 0.46734 0.0
H1186 H 0.7775 0.06576 0.48351 0.0
H1187 H 0.80136 0.11044 0.46182 0.0
H1188 H 0.7479 0.62818 0.02213 0.0
H1189 H 0.73112 0.6575 0.00238 0.0
H1190 H 0.77985 0.73206 0.04392 0.0
H1191 H 0.79508 0.7021 0.06427 0.0
H1192 H 0.72678 0.72245 0.04085 0.0
H1193 H 0.76524 0.72239 0.9609 0.0
H1194 H 0.74309 0.685 0.97037 0.0
H1195 H 0.77814 0.71012 0.98269 0.0
C1196 C 0.75581 0.65118 0.02654 0.0
C1197 C 0.77303 0.66308 0.04453 0.0
C1198 C 0.74623 0.66799 0.01526 0.0
C1199 C 0.7544 0.69725 0.02147 0.0
C1200 C 0.77314 0.70961 0.03878 0.0
H1201 H 0.70116 0.80085 0.94363 0.0
H1202 H 0.73133 0.78616 0.9644 0.0
C1203 C 0.78208 0.6926 0.0503 0.0
C1204 C 0.74103 0.71381 0.01145 0.0
H1205 H 0.72589 0.73396 0.9646 0.0
C1206 C 0.727 0.72531 0.02417 0.0
C1207 C 0.74152 0.71803 0.98972 0.0
C1208 C 0.75811 0.70851 0.97518 0.0
C1209 C 0.71292 0.74015 0.01581 0.0
C1210 C 0.71175 0.74265 0.99402 0.0
C1211 C 0.72645 0.73187 0.98131 0.0
C1212 C 0.69467 0.75539 0.98393 0.0
C1213 C 0.69983 0.7533 0.03054 0.0
C1214 C 0.66422 0.74387 0.98838 0.0
C1215 C 0.64725 0.75302 0.97692 0.0
C1216 C 0.66032 0.77342 0.9606 0.0
C1217 C 0.69087 0.78569 0.95654 0.0
C1218 C 0.70797 0.77699 0.96823 0.0
H1219 H 0.71172 0.75918 0.04566 0.0
H1220 H 0.70087 0.77364 0.02401 0.0
H1221 H 0.67615 0.73649 0.03363 0.0
H1222 H 0.6531 0.72652 0.9999 0.0
H1223 H 0.62348 0.74248 0.97978 0.0
H1224 H 0.88805 0.61217 0.47879 0.0
H1225 H 0.93451 0.63426 0.49899 0.0
H1226 H 0.95168 0.72249 0.48303 0.0
H1227 H 0.90613 0.70049 0.46232 0.0
H1228 H 0.99892 0.7178 0.47485 0.0
H1229 H 0.96013 0.67477 0.55427 0.0
H1230 H 0.94807 0.64572 0.53516 0.0
H1231 H 0.93482 0.6719 0.53402 0.0
C1232 C 0.9013 0.63624 0.48022 0.0
C1233 C 0.89343 0.65466 0.46918 0.0
C1234 C 0.92792 0.6489 0.49171 0.0
C1235 C 0.94669 0.68014 0.49265 0.0
C1236 C 0.93778 0.69839 0.48251 0.0
H1237 H 0.09594 0.77279 0.57629 0.0
H1238 H 0.05026 0.75539 0.55609 0.0
C1239 C 0.91159 0.6858 0.47082 0.0
C1240 C 0.97663 0.69406 0.50272 0.0
H1241 H 0.01237 0.69881 0.54825 0.0
C1242 C 1.00181 0.71374 0.49095 0.0
C1243 C 0.98053 0.68898 0.52374 0.0
C1244 C 0.95444 0.66943 0.5376 0.0
C1245 C 0.03062 0.72852 0.49959 0.0
C1246 C 0.0346 0.72291 0.52048 0.0
C1247 C 1.00943 0.70312 0.53221 0.0
C1248 C 0.06439 0.7377 0.53079 0.0
C1249 C 0.05631 0.75062 0.4864 0.0
C1250 C 0.08822 0.73477 0.52296 0.0
C1251 C 0.11479 0.74554 0.53431 0.0
C1252 C 0.11765 0.75891 0.55378 0.0
C1253 C 0.09441 0.763 0.56113 0.0
C1254 C 0.06818 0.75274 0.5497 0.0
H1255 H 0.04851 0.75887 0.47328 0.0
H1256 H 0.07255 0.7701 0.49571 0.0
H1257 H 0.06806 0.73951 0.47975 0.0
H1258 H 0.08571 0.7227 0.50866 0.0
H1259 H 0.13206 0.74133 0.52865 0.0
H1260 H 0.78839 0.10201 0.06764 0.0
H1261 H 0.76707 0.05584 0.04747 0.0
H1262 H 0.76511 0.10335 0.99319 0.0
H1263 H 0.7859 0.14971 0.01343 0.0
H1264 H 0.70969 0.03147 0.02633 0.0
H1265 H 0.80286 0.05193 0.97326 0.0
H1266 H 0.80875 0.07201 0.99739 0.0
H1267 H 0.79392 0.08129 0.97533 0.0
C1268 C 0.78358 0.10276 0.05139 0.0
C1269 C 0.78865 0.12962 0.04223 0.0
C1270 C 0.77151 0.07633 0.03986 0.0
C1271 C 0.76459 0.07617 0.01884 0.0
C1272 C 0.77066 0.10308 0.00936 0.0
H1273 H 0.67725 0.93976 0.92526 0.0
H1274 H 0.706 0.98568 0.94499 0.0
C1275 C 0.78263 0.1296 0.02094 0.0
C1276 C 0.74898 0.04741 0.00737 0.0
H1277 H 0.75647 1.00806 0.96747 0.0
C1278 C 0.71993 0.02623 0.01352 0.0
C1279 C 0.76237 0.04078 0.99063 0.0
C1280 C 0.79378 0.06253 0.98376 0.0
C1281 C 0.7036 0.99881 0.00309 0.0
C1282 C 0.71704 0.99198 0.9864 0.0
C1283 C 0.74622 0.01318 0.98033 0.0
C1284 C 0.70067 0.96358 0.97445 0.0
C1285 C 0.67176 0.97792 0.00963 0.0
C1286 C 0.68861 0.93565 0.98429 0.0
C1287 C 0.67161 0.90917 0.97305 0.0
C1288 C 0.66658 0.91005 0.95167 0.0
C1289 C 0.6799 0.93808 0.94175 0.0
C1290 C 0.69667 0.96446 0.953 0.0
H1291 H 0.66244 0.98974 0.01862 0.0
H1292 H 0.65724 0.96713 0.99596 0.0
H1293 H 0.67098 0.96016 0.01968 0.0
H1294 H 0.69201 0.93432 1.00073 0.0
H1295 H 0.66182 0.88812 0.98125 0.0
H1296 H 0.8092 0.72292 0.44518 0.0
H1297 H 0.78475 0.74296 0.46698 0.0
H1298 H 0.7376 0.65891 0.49929 0.0
H1299 H 0.76173 0.63843 0.47724 0.0
H1300 H 0.72227 0.71989 0.47038 0.0
H1301 H 0.77359 0.72161 0.54637 0.0
H1302 H 0.78913 0.71857 0.52199 0.0
H1303 H 0.75711 0.68654 0.53278 0.0
C1304 C 0.79362 0.7086 0.45688 0.0
C1305 C 0.78734 0.67894 0.45934 0.0
C1306 C 0.77975 0.72018 0.4694 0.0
C1307 C 0.75947 0.70252 0.48483 0.0
C1308 C 0.75352 0.6731 0.48767 0.0
H1309 H 0.64894 0.72711 0.57379 0.0
H1310 H 0.67501 0.70923 0.55172 0.0
C1311 C 0.76739 0.66143 0.47509 0.0
C1312 C 0.74377 0.71466 0.49731 0.0
H1313 H 0.73442 0.73268 0.54667 0.0
C1314 C 0.72499 0.72282 0.48706 0.0
C1315 C 0.74738 0.71848 0.51904 0.0
C1316 C 0.76807 0.7111 0.53074 0.0
C1317 C 0.70913 0.73399 0.49803 0.0
C1318 C 0.71269 0.73777 0.5198 0.0
C1319 C 0.7317 0.72983 0.52999 0.0
C1320 C 0.69609 0.74877 0.53249 0.0
C1321 C 0.68804 0.74076 0.48627 0.0
C1322 C 0.69906 0.777 0.52902 0.0
C1323 C 0.68396 0.7873 0.54167 0.0
C1324 C 0.66607 0.76976 0.5582 0.0
C1325 C 0.66297 0.74143 0.56144 0.0
C1326 C 0.67779 0.7311 0.54877 0.0
H1327 H 0.68203 0.72944 0.47092 0.0
H1328 H 0.66723 0.73374 0.49524 0.0
H1329 H 0.69896 0.76518 0.48356 0.0
H1330 H 0.71351 0.79132 0.51682 0.0
H1331 H 0.68697 0.80929 0.53893 0.0
H1332 H 0.88499 0.64921 0.02157 0.0
H1333 H 0.93221 0.67761 0.00286 0.0
H1334 H 0.97763 0.71533 0.06063 0.0
H1335 H 0.93051 0.68656 0.07943 0.0
H1336 H 0.97221 0.73689 0.9992 0.0
H1337 H 0.02589 0.67998 0.03792 0.0
H1338 H 0.98655 0.66695 0.04029 0.0
H1339 H 0.01315 0.69826 0.05543 0.0
C1340 C 0.90496 0.66382 0.03026 0.0
C1341 C 0.90407 0.66546 0.052 0.0
C1342 C 0.93198 0.67996 0.01956 0.0
C1343 C 0.95863 0.69812 0.03037 0.0
C1344 C 0.95756 0.70081 0.052 0.0
H1345 H 0.14019 0.80266 0.97749 0.0
H1346 H 0.09774 0.78575 0.00134 0.0
C1347 C 0.9306 0.68446 0.06271 0.0
C1348 C 0.98748 0.71374 0.01896 0.0
H1349 H 0.05558 0.7185 0.01436 0.0
C1350 C 0.99048 0.73299 0.00262 0.0
C1351 C 0.01138 0.70865 0.0234 0.0
C1352 C 1.0091 0.68714 0.04008 0.0
C1353 C 0.01646 0.74686 0.99043 0.0
C1354 C 0.04003 0.74135 0.99467 0.0
C1355 C 0.03751 0.72286 0.01134 0.0
C1356 C 0.06599 0.75196 0.98055 0.0
C1357 C 0.01842 0.76692 0.97282 0.0
C1358 C 0.06221 0.73821 0.9612 0.0
C1359 C 0.08633 0.74743 0.94771 0.0
C1360 C 0.11494 0.77088 0.95314 0.0
C1361 C 0.11867 0.7845 0.97273 0.0
C1362 C 0.09441 0.77499 0.98637 0.0
H1363 H 1.00113 0.77358 0.97405 0.0
H1364 H 0.04079 0.78736 0.97243 0.0
H1365 H 0.01521 0.75493 0.9579 0.0
H1366 H 0.04052 0.72008 0.95658 0.0
H1367 H 0.08238 0.73573 0.93311 0.0
H1368 H 0.21348 0.88334 0.54475 0.0
H1369 H 0.23132 0.92991 0.52499 0.0
H1370 H 0.31951 0.96343 0.55017 0.0
H1371 H 0.30205 0.91715 0.56961 0.0
H1372 H 0.25988 0.99031 0.54294 0.0
H1373 H 0.33273 0.97559 0.48645 0.0
H1374 H 0.30347 0.94476 0.50071 0.0
H1375 H 0.33823 0.96973 0.51318 0.0
C1376 C 0.23673 0.90051 0.54583 0.0
C1377 C 0.25629 0.89661 0.55882 0.0
C1378 C 0.24685 0.92713 0.53465 0.0
C1379 C 0.27679 0.95002 0.53602 0.0
C1380 C 0.29641 0.94596 0.54872 0.0
H1381 H 0.38374 0.12604 0.47977 0.0
H1382 H 0.36614 0.08102 0.50109 0.0
C1383 C 0.2863 0.91957 0.55998 0.0
C1384 C 0.28752 0.97867 0.52481 0.0
H1385 H 0.33642 0.02312 0.48744 0.0
C1386 C 0.27647 0.99745 0.53071 0.0
C1387 C 0.30944 0.98806 0.50906 0.0
C1388 C 0.32156 0.96844 0.5018 0.0
C1389 C 0.28706 0.02559 0.52146 0.0
C1390 C 0.3088 0.0349 0.50554 0.0
C1391 C 0.31988 0.01609 0.4997 0.0
C1392 C 0.3194 0.06342 0.49408 0.0
C1393 C 0.27534 0.04534 0.52919 0.0
C1394 C 0.29905 0.06865 0.48318 0.0
C1395 C 0.309 0.0944 0.4712 0.0
C1396 C 0.33963 0.11543 0.46958 0.0
C1397 C 0.36001 0.11051 0.48086 0.0
C1398 C 0.34998 0.08467 0.49292 0.0
H1399 H 0.26663 0.03945 0.54529 0.0
H1400 H 0.29292 0.06927 0.52883 0.0
H1401 H 0.25667 0.04229 0.51911 0.0
H1402 H 0.27543 0.05239 0.48346 0.0
H1403 H 0.29265 0.09758 0.46292 0.0
H1404 H 0.26751 0.37729 0.97672 0.0
H1405 H 0.28652 0.3498 0.99625 0.0
H1406 H 0.28274 0.30081 0.94105 0.0
H1407 H 0.26344 0.32787 0.92146 0.0
H1408 H 0.25963 0.28716 0.00201 0.0
H1409 H 0.36883 0.33359 0.96157 0.0
H1410 H 0.34574 0.35053 0.9598 0.0
H1411 H 0.33665 0.3176 0.94497 0.0
C1412 C 0.27052 0.36056 0.96873 0.0
C1413 C 0.26405 0.35497 0.94744 0.0
C1414 C 0.28154 0.34496 0.97991 0.0
C1415 C 0.2865 0.3236 0.97003 0.0
C1416 C 0.27975 0.31768 0.94888 0.0
H1417 H 0.35743 0.21296 0.0196 0.0
H1418 H 0.33585 0.23484 0.99639 0.0
C1419 C 0.26871 0.33323 0.9377 0.0
C1420 C 0.29809 0.30705 0.98199 0.0
H1421 H 0.35743 0.29561 0.98627 0.0
C1422 C 0.281 0.28899 0.99856 0.0
C1423 C 0.32585 0.30924 0.97734 0.0
C1424 C 0.34552 0.32895 0.96006 0.0
C1425 C 0.29097 0.27317 0.01068 0.0
C1426 C 0.31907 0.27595 0.00637 0.0
C1427 C 0.33588 0.29347 0.98951 0.0
C1428 C 0.33223 0.26255 0.02012 0.0
C1429 C 0.27122 0.25351 0.02794 0.0
C1430 C 0.33794 0.27133 0.04096 0.0
C1431 C 0.35026 0.25902 0.05414 0.0
C1432 C 0.35735 0.23764 0.04681 0.0
C1433 C 0.35223 0.22931 0.02575 0.0
C1434 C 0.33982 0.24172 0.01251 0.0
H1435 H 0.24745 0.24668 0.02525 0.0
H1436 H 0.27304 0.23311 0.0296 0.0
H1437 H 0.2782 0.26608 0.04278 0.0
H1438 H 0.3331 0.288 0.04704 0.0
H1439 H 0.35467 0.26673 0.07004 0.0
H1440 H 0.08218 0.35997 0.57911 0.0
H1441 H 0.03645 0.33231 0.55904 0.0
H1442 H 0.08608 0.32105 0.50953 0.0
H1443 H 0.13182 0.34753 0.5299 0.0
H1444 H 0.02068 0.34358 0.5216 0.0
H1445 H 0.01983 0.23606 0.51841 0.0
H1446 H 0.04431 0.26616 0.53544 0.0
H1447 H 0.05367 0.26679 0.50846 0.0
C1448 C 0.08346 0.3513 0.5641 0.0
C1449 C 0.11086 0.3558 0.55631 0.0
C1450 C 0.05722 0.33564 0.55255 0.0
C1451 C 0.05766 0.32407 0.53293 0.0
C1452 C 0.08502 0.32913 0.52484 0.0
H1453 H 0.93346 0.23602 0.43388 0.0
H1454 H 0.9761 0.26203 0.45685 0.0
C1455 C 0.1113 0.34467 0.53643 0.0
C1456 C 0.02955 0.3071 0.52087 0.0
H1457 H 0.98537 0.24053 0.49635 0.0
C1458 C 0.01282 0.32096 0.51624 0.0
C1459 C 0.01916 0.27747 0.51398 0.0
C1460 C 0.035 0.26061 0.51949 0.0
C1461 C 0.98656 0.30636 0.50436 0.0
C1462 C 0.97665 0.27706 0.49707 0.0
C1463 C 0.99308 0.26303 0.50195 0.0
C1464 C 0.95016 0.26113 0.48343 0.0
C1465 C 0.97006 0.32264 0.49915 0.0
C1466 C 0.92125 0.25173 0.49079 0.0
C1467 C 0.8965 0.23637 0.47768 0.0
C1468 C 0.90024 0.2301 0.45697 0.0
C1469 C 0.92939 0.23975 0.44976 0.0
C1470 C 0.95397 0.2549 0.46286 0.0
H1471 H 0.98323 0.34679 0.50305 0.0
H1472 H 0.9644 0.32027 0.48238 0.0
H1473 H 0.94886 0.31268 0.50804 0.0
H1474 H 0.91781 0.25601 0.50673 0.0
H1475 H 0.87449 0.2291 0.48389 0.0
loop_
_geom_bond_atom_site_label_1
_geom_bond_atom_site_label_2
_geom_bond_distance
_geom_bond_site_symmetry_2
_ccdc_geom_bond_type
C0 C1 1.351 . S
C0 N3 1.368 . S
C0 H5 0.931 . S
C1 C0 1.351 . S
C1 N2 1.373 . S
C1 H29 0.930 . S
N2 C1 1.373 . S
N2 C4 1.340 . S
N3 C0 1.368 . S
N3 C4 1.321 . S
N3 Co6 2.135 . S
C4 N2 1.340 . S
C4 N3 1.321 . S
C4 H28 0.930 . S
H5 C0 0.931 . S
Co6 N3 2.135 . S
Co6 N9 2.121 . S
Co6 O14 2.055 . S
Co6 O17 2.039 . S
Co6 N20 2.140 . S
C7 O8 1.227 . S
C7 O17 1.265 . S
O8 C7 1.227 . S
N9 Co6 2.121 . S
N9 C11 1.375 . S
N9 C12 1.313 . S
C10 C11 1.338 . S
C10 N13 1.377 . S
C10 H30 0.930 . S
C11 N9 1.375 . S
C11 C10 1.338 . S
C11 H15 0.931 . S
C12 N9 1.313 . S
C12 N13 1.344 . S
C12 H16 0.930 . S
N13 C10 1.377 . S
N13 C12 1.344 . S
O14 Co6 2.055 . S
O14 C18 1.253 . S
H15 C11 0.931 . S
H16 C12 0.930 . S
O17 Co6 2.039 . S
O17 C7 1.265 . S
C18 O14 1.253 . S
C18 O19 1.227 . S
O19 C18 1.227 . S
N20 Co6 2.140 . S
N20 C23 1.346 . S
N20 C24 1.345 . S
C21 C22 1.387 . S
C21 C25 1.391 . S
C22 C21 1.387 . S
C22 C23 1.369 . S
C22 H31 0.929 . S
C23 N20 1.346 . S
C23 C22 1.369 . S
C23 H26 0.928 . S
C24 N20 1.345 . S
C24 C25 1.371 . S
C24 H27 0.931 . S
C25 C21 1.391 . S
C25 C24 1.371 . S
C25 H32 0.930 . S
H26 C23 0.928 . S
H27 C24 0.931 . S
H28 C4 0.930 . S
H29 C1 0.930 . S
H30 C10 0.930 . S
H31 C22 0.929 . S
H32 C25 0.930 . S
C33 C34 1.351 . S
C33 N36 1.368 . S
C33 H38 0.931 . S
C34 C33 1.351 . S
C34 N35 1.373 . S
C34 H62 0.930 . S
N35 C34 1.373 . S
N35 C37 1.340 . S
N36 C33 1.368 . S
N36 C37 1.321 . S
N36 Co39 2.135 . S
C37 N35 1.340 . S
C37 N36 1.321 . S
C37 H61 0.930 . S
H38 C33 0.931 . S
Co39 N36 2.135 . S
Co39 N42 2.121 . S
Co39 O47 2.055 . S
Co39 O50 2.039 . S
Co39 N53 2.140 . S
C40 O41 1.227 . S
C40 O50 1.265 . S
O41 C40 1.227 . S
N42 Co39 2.121 . S
N42 C44 1.375 . S
N42 C45 1.313 . S
C43 C44 1.338 . S
C43 N46 1.377 . S
C43 H63 0.930 . S
C44 N42 1.375 . S
C44 C43 1.338 . S
C44 H48 0.931 . S
C45 N42 1.313 . S
C45 N46 1.344 . S
C45 H49 0.930 . S
N46 C43 1.377 . S
N46 C45 1.344 . S
O47 Co39 2.055 . S
O47 C51 1.253 . S
H48 C44 0.931 . S
H49 C45 0.930 . S
O50 Co39 2.039 . S
O50 C40 1.265 . S
C51 O47 1.253 . S
C51 O52 1.227 . S
O52 C51 1.227 . S
N53 Co39 2.140 . S
N53 C56 1.346 . S
N53 C57 1.345 . S
C54 C55 1.387 . S
C54 C58 1.391 . S
C55 C54 1.387 . S
C55 C56 1.369 . S
C55 H64 0.929 . S
C56 N53 1.346 . S
C56 C55 1.369 . S
C56 H59 0.928 . S
C57 N53 1.345 . S
C57 C58 1.371 . S
C57 H60 0.931 . S
C58 C54 1.391 . S
C58 C57 1.371 . S
C58 H65 0.930 . S
H59 C56 0.928 . S
H60 C57 0.931 . S
H61 C37 0.930 . S
H62 C34 0.930 . S
H63 C43 0.930 . S
H64 C55 0.929 . S
H65 C58 0.930 . S
C66 C67 1.351 . S
C66 N69 1.368 . S
C66 H71 0.931 . S
C67 C66 1.351 . S
C67 N68 1.373 . S
C67 H95 0.930 . S
N68 C67 1.373 . S
N68 C70 1.340 . S
N69 C66 1.368 . S
N69 C70 1.321 . S
N69 Co72 2.135 . S
C70 N68 1.340 . S
C70 N69 1.321 . S
C70 H94 0.930 . S
H71 C66 0.931 . S
Co72 N69 2.135 . S
Co72 N75 2.121 . S
Co72 O80 2.055 . S
Co72 O83 2.039 . S
Co72 N86 2.140 . S
C73 O74 1.227 . S
C73 O83 1.265 . S
O74 C73 1.227 . S
N75 Co72 2.121 . S
N75 C77 1.375 . S
N75 C78 1.313 . S
C76 C77 1.338 . S
C76 N79 1.377 . S
C76 H96 0.930 . S
C77 N75 1.375 . S
C77 C76 1.338 . S
C77 H81 0.931 . S
C78 N75 1.313 . S
C78 N79 1.344 . S
C78 H82 0.930 . S
N79 C76 1.377 . S
N79 C78 1.344 . S
O80 Co72 2.055 . S
O80 C84 1.253 . S
H81 C77 0.931 . S
H82 C78 0.930 . S
O83 Co72 2.039 . S
O83 C73 1.265 . S
C84 O80 1.253 . S
C84 O85 1.227 . S
O85 C84 1.227 . S
N86 Co72 2.140 . S
N86 C89 1.346 . S
N86 C90 1.345 . S
C87 C88 1.387 . S
C87 C91 1.391 . S
C88 C87 1.387 . S
C88 C89 1.369 . S
C88 H97 0.929 . S
C89 N86 1.346 . S
C89 C88 1.369 . S
C89 H92 0.928 . S
C90 N86 1.345 . S
C90 C91 1.371 . S
C90 H93 0.931 . S
C91 C87 1.391 . S
C91 C90 1.371 . S
C91 H98 0.930 . S
H92 C89 0.928 . S
H93 C90 0.931 . S
H94 C70 0.930 . S
H95 C67 0.930 . S
H96 C76 0.930 . S
H97 C88 0.929 . S
H98 C91 0.930 . S
C99 C100 1.351 . S
C99 N102 1.368 . S
C99 H104 0.931 . S
C100 C99 1.351 . S
C100 N101 1.373 . S
C100 H128 0.930 . S
N101 C100 1.373 . S
N101 C103 1.340 . S
N102 C99 1.368 . S
N102 C103 1.321 . S
N102 Co105 2.135 . S
C103 N101 1.340 . S
C103 N102 1.321 . S
C103 H127 0.930 . S
H104 C99 0.931 . S
Co105 N102 2.135 . S
Co105 N108 2.121 . S
Co105 O113 2.055 . S
Co105 O116 2.039 . S
Co105 N119 2.140 . S
C106 O107 1.227 . S
C106 O116 1.265 . S
O107 C106 1.227 . S
N108 Co105 2.121 . S
N108 C110 1.375 . S
N108 C111 1.313 . S
C109 C110 1.338 . S
C109 N112 1.377 . S
C109 H129 0.930 . S
C110 N108 1.375 . S
C110 C109 1.338 . S
C110 H114 0.931 . S
C111 N108 1.313 . S
C111 N112 1.344 . S
C111 H115 0.930 . S
N112 C109 1.377 . S
N112 C111 1.344 . S
O113 Co105 2.055 . S
O113 C117 1.253 . S
H114 C110 0.931 . S
H115 C111 0.930 . S
O116 Co105 2.039 . S
O116 C106 1.265 . S
C117 O113 1.253 . S
C117 O118 1.227 . S
O118 C117 1.227 . S
N119 Co105 2.140 . S
N119 C122 1.346 . S
N119 C123 1.345 . S
C120 C121 1.387 . S
C120 C124 1.391 . S
C121 C120 1.387 . S
C121 C122 1.369 . S
C121 H130 0.929 . S
C122 N119 1.346 . S
C122 C121 1.369 . S
C122 H125 0.928 . S
C123 N119 1.345 . S
C123 C124 1.371 . S
C123 H126 0.931 . S
C124 C120 1.391 . S
C124 C123 1.371 . S
C124 H131 0.930 . S
H125 C122 0.928 . S
H126 C123 0.931 . S
H127 C103 0.930 . S
H128 C100 0.930 . S
H129 C109 0.930 . S
H130 C121 0.929 . S
H131 C124 0.930 . S
C132 C133 1.351 . S
C132 N135 1.368 . S
C132 H137 0.931 . S
C133 C132 1.351 . S
C133 N134 1.373 . S
C133 H161 0.930 . S
N134 C133 1.373 . S
N134 C136 1.340 . S
N135 C132 1.368 . S
N135 C136 1.321 . S
N135 Co138 2.135 . S
C136 N134 1.340 . S
C136 N135 1.321 . S
C136 H160 0.930 . S
H137 C132 0.931 . S
Co138 N135 2.135 . S
Co138 N141 2.121 . S
Co138 O146 2.055 . S
Co138 O149 2.039 . S
Co138 N152 2.140 . S
C139 O140 1.227 . S
C139 O149 1.265 . S
O140 C139 1.227 . S
N141 Co138 2.121 . S
N141 C143 1.375 . S
N141 C144 1.313 . S
C142 C143 1.338 . S
C142 N145 1.377 . S
C142 H162 0.930 . S
C143 N141 1.375 . S
C143 C142 1.338 . S
C143 H147 0.931 . S
C144 N141 1.313 . S
C144 N145 1.344 . S
C144 H148 0.930 . S
N145 C142 1.377 . S
N145 C144 1.344 . S
O146 Co138 2.055 . S
O146 C150 1.253 . S
H147 C143 0.931 . S
H148 C144 0.930 . S
O149 Co138 2.039 . S
O149 C139 1.265 . S
C150 O146 1.253 . S
C150 O151 1.227 . S
O151 C150 1.227 . S
N152 Co138 2.140 . S
N152 C155 1.346 . S
N152 C156 1.345 . S
C153 C154 1.387 . S
C153 C157 1.391 . S
C154 C153 1.387 . S
C154 C155 1.369 . S
C154 H163 0.929 . S
C155 N152 1.346 . S
C155 C154 1.369 . S
C155 H158 0.928 . S
C156 N152 1.345 . S
C156 C157 1.371 . S
C156 H159 0.931 . S
C157 C153 1.391 . S
C157 C156 1.371 . S
C157 H164 0.930 . S
H158 C155 0.928 . S
H159 C156 0.931 . S
H160 C136 0.930 . S
H161 C133 0.930 . S
H162 C142 0.930 . S
H163 C154 0.929 . S
H164 C157 0.930 . S
C165 C166 1.351 . S
C165 N168 1.368 . S
C165 H170 0.931 . S
C166 C165 1.351 . S
C166 N167 1.373 . S
C166 H194 0.930 . S
N167 C166 1.373 . S
N167 C169 1.340 . S
N168 C165 1.368 . S
N168 C169 1.321 . S
N168 Co171 2.135 . S
C169 N167 1.340 . S
C169 N168 1.321 . S
C169 H193 0.930 . S
H170 C165 0.931 . S
Co171 N168 2.135 . S
Co171 N174 2.121 . S
Co171 O179 2.055 . S
Co171 O182 2.039 . S
Co171 N185 2.140 . S
C172 O173 1.227 . S
C172 O182 1.265 . S
O173 C172 1.227 . S
N174 Co171 2.121 . S
N174 C176 1.375 . S
N174 C177 1.313 . S
C175 C176 1.338 . S
C175 N178 1.377 . S
C175 H195 0.930 . S
C176 N174 1.375 . S
C176 C175 1.338 . S
C176 H180 0.931 . S
C177 N174 1.313 . S
C177 N178 1.344 . S
C177 H181 0.930 . S
N178 C175 1.377 . S
N178 C177 1.344 . S
O179 Co171 2.055 . S
O179 C183 1.253 . S
H180 C176 0.931 . S
H181 C177 0.930 . S
O182 Co171 2.039 . S
O182 C172 1.265 . S
C183 O179 1.253 . S
C183 O184 1.227 . S
O184 C183 1.227 . S
N185 Co171 2.140 . S
N185 C188 1.346 . S
N185 C189 1.345 . S
C186 C187 1.387 . S
C186 C190 1.391 . S
C187 C186 1.387 . S
C187 C188 1.369 . S
C187 H196 0.929 . S
C188 N185 1.346 . S
C188 C187 1.369 . S
C188 H191 0.928 . S
C189 N185 1.345 . S
C189 C190 1.371 . S
C189 H192 0.931 . S
C190 C186 1.391 . S
C190 C189 1.371 . S
C190 H197 0.930 . S
H191 C188 0.928 . S
H192 C189 0.931 . S
H193 C169 0.930 . S
H194 C166 0.930 . S
H195 C175 0.930 . S
H196 C187 0.929 . S
H197 C190 0.930 . S
C198 C199 1.351 . S
C198 N201 1.368 . S
C198 H203 0.931 . S
C199 C198 1.351 . S
C199 N200 1.373 . S
C199 H227 0.930 . S
N200 C199 1.373 . S
N200 C202 1.340 . S
N201 C198 1.368 . S
N201 C202 1.321 . S
N201 Co204 2.135 . S
C202 N200 1.340 . S
C202 N201 1.321 . S
C202 H226 0.930 . S
H203 C198 0.931 . S
Co204 N201 2.135 . S
Co204 N207 2.121 . S
Co204 O212 2.055 . S
Co204 O215 2.039 . S
Co204 N218 2.140 . S
C205 O206 1.227 . S
C205 O215 1.265 . S
O206 C205 1.227 . S
N207 Co204 2.121 . S
N207 C209 1.375 . S
N207 C210 1.313 . S
C208 C209 1.338 . S
C208 N211 1.377 . S
C208 H228 0.930 . S
C209 N207 1.375 . S
C209 C208 1.338 . S
C209 H213 0.931 . S
C210 N207 1.313 . S
C210 N211 1.344 . S
C210 H214 0.930 . S
N211 C208 1.377 . S
N211 C210 1.344 . S
O212 Co204 2.055 . S
O212 C216 1.253 . S
H213 C209 0.931 . S
H214 C210 0.930 . S
O215 Co204 2.039 . S
O215 C205 1.265 . S
C216 O212 1.253 . S
C216 O217 1.227 . S
O217 C216 1.227 . S
N218 Co204 2.140 . S
N218 C221 1.346 . S
N218 C222 1.345 . S
C219 C220 1.387 . S
C219 C223 1.391 . S
C220 C219 1.387 . S
C220 C221 1.369 . S
C220 H229 0.929 . S
C221 N218 1.346 . S
C221 C220 1.369 . S
C221 H224 0.928 . S
C222 N218 1.345 . S
C222 C223 1.371 . S
C222 H225 0.931 . S
C223 C219 1.391 . S
C223 C222 1.371 . S
C223 H230 0.930 . S
H224 C221 0.928 . S
H225 C222 0.931 . S
H226 C202 0.930 . S
H227 C199 0.930 . S
H228 C208 0.930 . S
H229 C220 0.929 . S
H230 C223 0.930 . S
C231 C232 1.351 . S
C231 N234 1.368 . S
C231 H236 0.931 . S
C232 C231 1.351 . S
C232 N233 1.373 . S
C232 H260 0.930 . S
N233 C232 1.373 . S
N233 C235 1.340 . S
N234 C231 1.368 . S
N234 C235 1.321 . S
N234 Co237 2.135 . S
C235 N233 1.340 . S
C235 N234 1.321 . S
C235 H259 0.930 . S
H236 C231 0.931 . S
Co237 N234 2.135 . S
Co237 N240 2.121 . S
Co237 O245 2.055 . S
Co237 O248 2.039 . S
Co237 N251 2.140 . S
C238 O239 1.227 . S
C238 O248 1.265 . S
O239 C238 1.227 . S
N240 Co237 2.121 . S
N240 C242 1.375 . S
N240 C243 1.313 . S
C241 C242 1.338 . S
C241 N244 1.377 . S
C241 H261 0.930 . S
C242 N240 1.375 . S
C242 C241 1.338 . S
C242 H246 0.931 . S
C243 N240 1.313 . S
C243 N244 1.344 . S
C243 H247 0.930 . S
N244 C241 1.377 . S
N244 C243 1.344 . S
O245 Co237 2.055 . S
O245 C249 1.253 . S
H246 C242 0.931 . S
H247 C243 0.930 . S
O248 Co237 2.039 . S
O248 C238 1.265 . S
C249 O245 1.253 . S
C249 O250 1.227 . S
O250 C249 1.227 . S
N251 Co237 2.140 . S
N251 C254 1.346 . S
N251 C255 1.345 . S
C252 C253 1.387 . S
C252 C256 1.391 . S
C253 C252 1.387 . S
C253 C254 1.369 . S
C253 H262 0.929 . S
C254 N251 1.346 . S
C254 C253 1.369 . S
C254 H257 0.928 . S
C255 N251 1.345 . S
C255 C256 1.371 . S
C255 H258 0.931 . S
C256 C252 1.391 . S
C256 C255 1.371 . S
C256 H263 0.930 . S
H257 C254 0.928 . S
H258 C255 0.931 . S
H259 C235 0.930 . S
H260 C232 0.930 . S
H261 C241 0.930 . S
H262 C253 0.929 . S
H263 C256 0.930 . S
C264 C265 1.351 . S
C264 N267 1.368 . S
C264 H269 0.931 . S
C265 C264 1.351 . S
C265 N266 1.373 . S
C265 H293 0.930 . S
N266 C265 1.373 . S
N266 C268 1.340 . S
N267 C264 1.368 . S
N267 C268 1.321 . S
N267 Co270 2.135 . S
C268 N266 1.340 . S
C268 N267 1.321 . S
C268 H292 0.930 . S
H269 C264 0.931 . S
Co270 N267 2.135 . S
Co270 N273 2.121 . S
Co270 O278 2.055 . S
Co270 O281 2.039 . S
Co270 N284 2.140 . S
C271 O272 1.227 . S
C271 O281 1.265 . S
O272 C271 1.227 . S
N273 Co270 2.121 . S
N273 C275 1.375 . S
N273 C276 1.313 . S
C274 C275 1.338 . S
C274 N277 1.377 . S
C274 H294 0.930 . S
C275 N273 1.375 . S
C275 C274 1.338 . S
C275 H279 0.931 . S
C276 N273 1.313 . S
C276 N277 1.344 . S
C276 H280 0.930 . S
N277 C274 1.377 . S
N277 C276 1.344 . S
O278 Co270 2.055 . S
O278 C282 1.253 . S
H279 C275 0.931 . S
H280 C276 0.930 . S
O281 Co270 2.039 . S
O281 C271 1.265 . S
C282 O278 1.253 . S
C282 O283 1.227 . S
O283 C282 1.227 . S
N284 Co270 2.140 . S
N284 C287 1.346 . S
N284 C288 1.345 . S
C285 C286 1.387 . S
C285 C289 1.391 . S
C286 C285 1.387 . S
C286 C287 1.369 . S
C286 H295 0.929 . S
C287 N284 1.346 . S
C287 C286 1.369 . S
C287 H290 0.928 . S
C288 N284 1.345 . S
C288 C289 1.371 . S
C288 H291 0.931 . S
C289 C285 1.391 . S
C289 C288 1.371 . S
C289 H296 0.930 . S
H290 C287 0.928 . S
H291 C288 0.931 . S
H292 C268 0.930 . S
H293 C265 0.930 . S
H294 C274 0.930 . S
H295 C286 0.929 . S
H296 C289 0.930 . S
C297 C298 1.351 . S
C297 N300 1.368 . S
C297 H302 0.931 . S
C298 C297 1.351 . S
C298 N299 1.373 . S
C298 H326 0.930 . S
N299 C298 1.373 . S
N299 C301 1.340 . S
N300 C297 1.368 . S
N300 C301 1.321 . S
N300 Co303 2.135 . S
C301 N299 1.340 . S
C301 N300 1.321 . S
C301 H325 0.930 . S
H302 C297 0.931 . S
Co303 N300 2.135 . S
Co303 N306 2.121 . S
Co303 O311 2.055 . S
Co303 O314 2.039 . S
Co303 N317 2.140 . S
C304 O305 1.227 . S
C304 O314 1.265 . S
O305 C304 1.227 . S
N306 Co303 2.121 . S
N306 C308 1.375 . S
N306 C309 1.313 . S
C307 C308 1.338 . S
C307 N310 1.377 . S
C307 H327 0.930 . S
C308 N306 1.375 . S
C308 C307 1.338 . S
C308 H312 0.931 . S
C309 N306 1.313 . S
C309 N310 1.344 . S
C309 H313 0.930 . S
N310 C307 1.377 . S
N310 C309 1.344 . S
O311 Co303 2.055 . S
O311 C315 1.253 . S
H312 C308 0.931 . S
H313 C309 0.930 . S
O314 Co303 2.039 . S
O314 C304 1.265 . S
C315 O311 1.253 . S
C315 O316 1.227 . S
O316 C315 1.227 . S
N317 Co303 2.140 . S
N317 C320 1.346 . S
N317 C321 1.345 . S
C318 C319 1.387 . S
C318 C322 1.391 . S
C319 C318 1.387 . S
C319 C320 1.369 . S
C319 H328 0.929 . S
C320 N317 1.346 . S
C320 C319 1.369 . S
C320 H323 0.928 . S
C321 N317 1.345 . S
C321 C322 1.371 . S
C321 H324 0.931 . S
C322 C318 1.391 . S
C322 C321 1.371 . S
C322 H329 0.930 . S
H323 C320 0.928 . S
H324 C321 0.931 . S
H325 C301 0.930 . S
H326 C298 0.930 . S
H327 C307 0.930 . S
H328 C319 0.929 . S
H329 C322 0.930 . S
C330 C331 1.351 . S
C330 N333 1.368 . S
C330 H335 0.931 . S
C331 C330 1.351 . S
C331 N332 1.373 . S
C331 H359 0.930 . S
N332 C331 1.373 . S
N332 C334 1.340 . S
N333 C330 1.368 . S
N333 C334 1.321 . S
N333 Co336 2.135 . S
C334 N332 1.340 . S
C334 N333 1.321 . S
C334 H358 0.930 . S
H335 C330 0.931 . S
Co336 N333 2.135 . S
Co336 N339 2.121 . S
Co336 O344 2.055 . S
Co336 O347 2.039 . S
Co336 N350 2.140 . S
C337 O338 1.227 . S
C337 O347 1.265 . S
O338 C337 1.227 . S
N339 Co336 2.121 . S
N339 C341 1.375 . S
N339 C342 1.313 . S
C340 C341 1.338 . S
C340 N343 1.377 . S
C340 H360 0.930 . S
C341 N339 1.375 . S
C341 C340 1.338 . S
C341 H345 0.931 . S
C342 N339 1.313 . S
C342 N343 1.344 . S
C342 H346 0.930 . S
N343 C340 1.377 . S
N343 C342 1.344 . S
O344 Co336 2.055 . S
O344 C348 1.253 . S
H345 C341 0.931 . S
H346 C342 0.930 . S
O347 Co336 2.039 . S
O347 C337 1.265 . S
C348 O344 1.253 . S
C348 O349 1.227 . S
O349 C348 1.227 . S
N350 Co336 2.140 . S
N350 C353 1.346 . S
N350 C354 1.345 . S
C351 C352 1.387 . S
C351 C355 1.391 . S
C352 C351 1.387 . S
C352 C353 1.369 . S
C352 H361 0.929 . S
C353 N350 1.346 . S
C353 C352 1.369 . S
C353 H356 0.928 . S
C354 N350 1.345 . S
C354 C355 1.371 . S
C354 H357 0.931 . S
C355 C351 1.391 . S
C355 C354 1.371 . S
C355 H362 0.930 . S
H356 C353 0.928 . S
H357 C354 0.931 . S
H358 C334 0.930 . S
H359 C331 0.930 . S
H360 C340 0.930 . S
H361 C352 0.929 . S
H362 C355 0.930 . S
C363 C364 1.351 . S
C363 N366 1.368 . S
C363 H368 0.931 . S
C364 C363 1.351 . S
C364 N365 1.373 . S
C364 H392 0.930 . S
N365 C364 1.373 . S
N365 C367 1.340 . S
N366 C363 1.368 . S
N366 C367 1.321 . S
N366 Co369 2.135 . S
C367 N365 1.340 . S
C367 N366 1.321 . S
C367 H391 0.930 . S
H368 C363 0.931 . S
Co369 N366 2.135 . S
Co369 N372 2.121 . S
Co369 O377 2.055 . S
Co369 O380 2.039 . S
Co369 N383 2.140 . S
C370 O371 1.227 . S
C370 O380 1.265 . S
O371 C370 1.227 . S
N372 Co369 2.121 . S
N372 C374 1.375 . S
N372 C375 1.313 . S
C373 C374 1.338 . S
C373 N376 1.377 . S
C373 H393 0.930 . S
C374 N372 1.375 . S
C374 C373 1.338 . S
C374 H378 0.931 . S
C375 N372 1.313 . S
C375 N376 1.344 . S
C375 H379 0.930 . S
N376 C373 1.377 . S
N376 C375 1.344 . S
O377 Co369 2.055 . S
O377 C381 1.253 . S
H378 C374 0.931 . S
H379 C375 0.930 . S
O380 Co369 2.039 . S
O380 C370 1.265 . S
C381 O377 1.253 . S
C381 O382 1.227 . S
O382 C381 1.227 . S
N383 Co369 2.140 . S
N383 C386 1.346 . S
N383 C387 1.345 . S
C384 C385 1.387 . S
C384 C388 1.391 . S
C385 C384 1.387 . S
C385 C386 1.369 . S
C385 H394 0.929 . S
C386 N383 1.346 . S
C386 C385 1.369 . S
C386 H389 0.928 . S
C387 N383 1.345 . S
C387 C388 1.371 . S
C387 H390 0.931 . S
C388 C384 1.391 . S
C388 C387 1.371 . S
C388 H395 0.930 . S
H389 C386 0.928 . S
H390 C387 0.931 . S
H391 C367 0.930 . S
H392 C364 0.930 . S
H393 C373 0.930 . S
H394 C385 0.929 . S
H395 C388 0.930 . S
H396 C404 0.929 . S
H397 C406 0.930 . S
H398 C408 0.930 . S
H399 C411 0.929 . S
H400 C414 0.930 . S
H401 C416 0.960 . S
H402 C416 0.960 . S
H403 C416 0.960 . S
C404 H396 0.929 . S
C404 C405 1.377 . S
C404 C406 1.384 . S
C405 C404 1.377 . S
C405 C411 1.390 . S
C406 H397 0.930 . S
C406 C404 1.384 . S
C406 C407 1.372 . S
C407 C406 1.372 . S
C407 C408 1.400 . S
C407 C412 1.490 . S
C408 H398 0.930 . S
C408 C407 1.400 . S
C408 C411 1.386 . S
H409 C425 0.930 . S
H410 C426 0.931 . S
C411 H399 0.929 . S
C411 C405 1.390 . S
C411 C408 1.386 . S
C412 C407 1.490 . S
C412 C414 1.395 . S
C412 C415 1.403 . S
H413 C419 0.930 . S
C414 H400 0.930 . S
C414 C412 1.395 . S
C414 C417 1.403 . S
C415 C412 1.403 . S
C415 C416 1.524 . S
C415 C419 1.400 . S
C416 H401 0.960 . S
C416 H402 0.960 . S
C416 H403 0.960 . S
C416 C415 1.524 . S
C417 C414 1.403 . S
C417 C418 1.392 . S
C417 C421 1.495 . S
C418 C417 1.392 . S
C418 C419 1.385 . S
C418 C420 1.478 . S
C419 H413 0.930 . S
C419 C415 1.400 . S
C419 C418 1.385 . S
C420 C418 1.478 . S
C420 C422 1.381 . S
C420 C426 1.383 . S
C421 C417 1.495 . S
C421 H427 0.959 . S
C421 H428 0.961 . S
C421 H429 0.960 . S
C422 C420 1.381 . S
C422 C423 1.394 . S
C422 H430 0.930 . S
C423 C422 1.394 . S
C423 C424 1.383 . S
C423 H431 0.929 . S
C424 C423 1.383 . S
C424 C425 1.377 . S
C425 H409 0.930 . S
C425 C424 1.377 . S
C425 C426 1.379 . S
C426 H410 0.931 . S
C426 C420 1.383 . S
C426 C425 1.379 . S
H427 C421 0.959 . S
H428 C421 0.961 . S
H429 C421 0.960 . S
H430 C422 0.930 . S
H431 C423 0.929 . S
H432 C440 0.929 . S
H433 C442 0.930 . S
H434 C444 0.930 . S
H435 C447 0.929 . S
H436 C450 0.930 . S
H437 C452 0.960 . S
H438 C452 0.960 . S
H439 C452 0.960 . S
C440 H432 0.929 . S
C440 C441 1.377 . S
C440 C442 1.384 . S
C441 C440 1.377 . S
C441 C447 1.390 . S
C442 H433 0.930 . S
C442 C440 1.384 . S
C442 C443 1.372 . S
C443 C442 1.372 . S
C443 C444 1.400 . S
C443 C448 1.490 . S
C444 H434 0.930 . S
C444 C443 1.400 . S
C444 C447 1.386 . S
H445 C461 0.930 . S
H446 C462 0.931 . S
C447 H435 0.929 . S
C447 C441 1.390 . S
C447 C444 1.386 . S
C448 C443 1.490 . S
C448 C450 1.395 . S
C448 C451 1.403 . S
H449 C455 0.930 . S
C450 H436 0.930 . S
C450 C448 1.395 . S
C450 C453 1.403 . S
C451 C448 1.403 . S
C451 C452 1.524 . S
C451 C455 1.400 . S
C452 H437 0.960 . S
C452 H438 0.960 . S
C452 H439 0.960 . S
C452 C451 1.524 . S
C453 C450 1.403 . S
C453 C454 1.392 . S
C453 C457 1.495 . S
C454 C453 1.392 . S
C454 C455 1.385 . S
C454 C456 1.478 . S
C455 H449 0.930 . S
C455 C451 1.400 . S
C455 C454 1.385 . S
C456 C454 1.478 . S
C456 C458 1.381 . S
C456 C462 1.383 . S
C457 C453 1.495 . S
C457 H463 0.959 . S
C457 H464 0.961 . S
C457 H465 0.960 . S
C458 C456 1.381 . S
C458 C459 1.394 . S
C458 H466 0.930 . S
C459 C458 1.394 . S
C459 C460 1.383 . S
C459 H467 0.929 . S
C460 C459 1.383 . S
C460 C461 1.377 . S
C461 H445 0.930 . S
C461 C460 1.377 . S
C461 C462 1.379 . S
C462 H446 0.931 . S
C462 C456 1.383 . S
C462 C461 1.379 . S
H463 C457 0.959 . S
H464 C457 0.961 . S
H465 C457 0.960 . S
H466 C458 0.930 . S
H467 C459 0.929 . S
H468 C476 0.929 . S
H469 C478 0.930 . S
H470 C480 0.930 . S
H471 C483 0.929 . S
H472 C486 0.930 . S
H473 C488 0.960 . S
H474 C488 0.960 . S
H475 C488 0.960 . S
C476 H468 0.929 . S
C476 C477 1.377 . S
C476 C478 1.384 . S
C477 C476 1.377 . S
C477 C483 1.390 . S
C478 H469 0.930 . S
C478 C476 1.384 . S
C478 C479 1.372 . S
C479 C478 1.372 . S
C479 C480 1.400 . S
C479 C484 1.490 . S
C480 H470 0.930 . S
C480 C479 1.400 . S
C480 C483 1.386 . S
H481 C497 0.930 . S
H482 C498 0.931 . S
C483 H471 0.929 . S
C483 C477 1.390 . S
C483 C480 1.386 . S
C484 C479 1.490 . S
C484 C486 1.395 . S
C484 C487 1.403 . S
H485 C491 0.930 . S
C486 H472 0.930 . S
C486 C484 1.395 . S
C486 C489 1.403 . S
C487 C484 1.403 . S
C487 C488 1.524 . S
C487 C491 1.400 . S
C488 H473 0.960 . S
C488 H474 0.960 . S
C488 H475 0.960 . S
C488 C487 1.524 . S
C489 C486 1.403 . S
C489 C490 1.392 . S
C489 C493 1.495 . S
C490 C489 1.392 . S
C490 C491 1.385 . S
C490 C492 1.478 . S
C491 H485 0.930 . S
C491 C487 1.400 . S
C491 C490 1.385 . S
C492 C490 1.478 . S
C492 C494 1.381 . S
C492 C498 1.383 . S
C493 C489 1.495 . S
C493 H499 0.959 . S
C493 H500 0.961 . S
C493 H501 0.960 . S
C494 C492 1.381 . S
C494 C495 1.394 . S
C494 H502 0.930 . S
C495 C494 1.394 . S
C495 C496 1.383 . S
C495 H503 0.929 . S
C496 C495 1.383 . S
C496 C497 1.377 . S
C497 H481 0.930 . S
C497 C496 1.377 . S
C497 C498 1.379 . S
C498 H482 0.931 . S
C498 C492 1.383 . S
C498 C497 1.379 . S
H499 C493 0.959 . S
H500 C493 0.961 . S
H501 C493 0.960 . S
H502 C494 0.930 . S
H503 C495 0.929 . S
H504 C512 0.929 . S
H505 C514 0.930 . S
H506 C516 0.930 . S
H507 C519 0.929 . S
H508 C522 0.930 . S
H509 C524 0.960 . S
H510 C524 0.960 . S
H511 C524 0.960 . S
C512 H504 0.929 . S
C512 C513 1.377 . S
C512 C514 1.384 . S
C513 C512 1.377 . S
C513 C519 1.390 . S
C514 H505 0.930 . S
C514 C512 1.384 . S
C514 C515 1.372 . S
C515 C514 1.372 . S
C515 C516 1.400 . S
C515 C520 1.490 . S
C516 H506 0.930 . S
C516 C515 1.400 . S
C516 C519 1.386 . S
H517 C533 0.930 . S
H518 C534 0.931 . S
C519 H507 0.929 . S
C519 C513 1.390 . S
C519 C516 1.386 . S
C520 C515 1.490 . S
C520 C522 1.395 . S
C520 C523 1.403 . S
H521 C527 0.930 . S
C522 H508 0.930 . S
C522 C520 1.395 . S
C522 C525 1.403 . S
C523 C520 1.403 . S
C523 C524 1.524 . S
C523 C527 1.400 . S
C524 H509 0.960 . S
C524 H510 0.960 . S
C524 H511 0.960 . S
C524 C523 1.524 . S
C525 C522 1.403 . S
C525 C526 1.392 . S
C525 C529 1.495 . S
C526 C525 1.392 . S
C526 C527 1.385 . S
C526 C528 1.478 . S
C527 H521 0.930 . S
C527 C523 1.400 . S
C527 C526 1.385 . S
C528 C526 1.478 . S
C528 C530 1.381 . S
C528 C534 1.383 . S
C529 C525 1.495 . S
C529 H535 0.959 . S
C529 H536 0.961 . S
C529 H537 0.960 . S
C530 C528 1.381 . S
C530 C531 1.394 . S
C530 H538 0.930 . S
C531 C530 1.394 . S
C531 C532 1.383 . S
C531 H539 0.929 . S
C532 C531 1.383 . S
C532 C533 1.377 . S
C533 H517 0.930 . S
C533 C532 1.377 . S
C533 C534 1.379 . S
C534 H518 0.931 . S
C534 C528 1.383 . S
C534 C533 1.379 . S
H535 C529 0.959 . S
H536 C529 0.961 . S
H537 C529 0.960 . S
H538 C530 0.930 . S
H539 C531 0.929 . S
H540 C548 0.929 . S
H541 C550 0.930 . S
H542 C552 0.930 . S
H543 C555 0.929 . S
H544 C558 0.930 . S
H545 C560 0.960 . S
H546 C560 0.960 . S
H547 C560 0.960 . S
C548 H540 0.929 . S
C548 C549 1.377 . S
C548 C550 1.384 . S
C549 C548 1.377 . S
C549 C555 1.390 . S
C550 H541 0.930 . S
C550 C548 1.384 . S
C550 C551 1.372 . S
C551 C550 1.372 . S
C551 C552 1.400 . S
C551 C556 1.490 . S
C552 H542 0.930 . S
C552 C551 1.400 . S
C552 C555 1.386 . S
H553 C569 0.930 . S
H554 C570 0.931 . S
C555 H543 0.929 . S
C555 C549 1.390 . S
C555 C552 1.386 . S
C556 C551 1.490 . S
C556 C558 1.395 . S
C556 C559 1.403 . S
H557 C563 0.930 . S
C558 H544 0.930 . S
C558 C556 1.395 . S
C558 C561 1.403 . S
C559 C556 1.403 . S
C559 C560 1.524 . S
C559 C563 1.400 . S
C560 H545 0.960 . S
C560 H546 0.960 . S
C560 H547 0.960 . S
C560 C559 1.524 . S
C561 C558 1.403 . S
C561 C562 1.392 . S
C561 C565 1.495 . S
C562 C561 1.392 . S
C562 C563 1.385 . S
C562 C564 1.478 . S
C563 H557 0.930 . S
C563 C559 1.400 . S
C563 C562 1.385 . S
C564 C562 1.478 . S
C564 C566 1.381 . S
C564 C570 1.383 . S
C565 C561 1.495 . S
C565 H571 0.959 . S
C565 H572 0.961 . S
C565 H573 0.960 . S
C566 C564 1.381 . S
C566 C567 1.394 . S
C566 H574 0.930 . S
C567 C566 1.394 . S
C567 C568 1.383 . S
C567 H575 0.929 . S
C568 C567 1.383 . S
C568 C569 1.377 . S
C569 H553 0.930 . S
C569 C568 1.377 . S
C569 C570 1.379 . S
C570 H554 0.931 . S
C570 C564 1.383 . S
C570 C569 1.379 . S
H571 C565 0.959 . S
H572 C565 0.961 . S
H573 C565 0.960 . S
H574 C566 0.930 . S
H575 C567 0.929 . S
H576 C584 0.929 . S
H577 C586 0.930 . S
H578 C588 0.930 . S
H579 C591 0.929 . S
H580 C594 0.930 . S
H581 C596 0.960 . S
H582 C596 0.960 . S
H583 C596 0.960 . S
C584 H576 0.929 . S
C584 C585 1.377 . S
C584 C586 1.384 . S
C585 C584 1.377 . S
C585 C591 1.390 . S
C586 H577 0.930 . S
C586 C584 1.384 . S
C586 C587 1.372 . S
C587 C586 1.372 . S
C587 C588 1.400 . S
C587 C592 1.490 . S
C588 H578 0.930 . S
C588 C587 1.400 . S
C588 C591 1.386 . S
H589 C605 0.930 . S
H590 C606 0.931 . S
C591 H579 0.929 . S
C591 C585 1.390 . S
C591 C588 1.386 . S
C592 C587 1.490 . S
C592 C594 1.395 . S
C592 C595 1.403 . S
H593 C599 0.930 . S
C594 H580 0.930 . S
C594 C592 1.395 . S
C594 C597 1.403 . S
C595 C592 1.403 . S
C595 C596 1.524 . S
C595 C599 1.400 . S
C596 H581 0.960 . S
C596 H582 0.960 . S
C596 H583 0.960 . S
C596 C595 1.524 . S
C597 C594 1.403 . S
C597 C598 1.392 . S
C597 C601 1.495 . S
C598 C597 1.392 . S
C598 C599 1.385 . S
C598 C600 1.478 . S
C599 H593 0.930 . S
C599 C595 1.400 . S
C599 C598 1.385 . S
C600 C598 1.478 . S
C600 C602 1.381 . S
C600 C606 1.383 . S
C601 C597 1.495 . S
C601 H607 0.959 . S
C601 H608 0.961 . S
C601 H609 0.960 . S
C602 C600 1.381 . S
C602 C603 1.394 . S
C602 H610 0.930 . S
C603 C602 1.394 . S
C603 C604 1.383 . S
C603 H611 0.929 . S
C604 C603 1.383 . S
C604 C605 1.377 . S
C605 H589 0.930 . S
C605 C604 1.377 . S
C605 C606 1.379 . S
C606 H590 0.931 . S
C606 C600 1.383 . S
C606 C605 1.379 . S
H607 C601 0.959 . S
H608 C601 0.961 . S
H609 C601 0.960 . S
H610 C602 0.930 . S
H611 C603 0.929 . S
H612 C620 0.929 . S
H613 C622 0.930 . S
H614 C624 0.930 . S
H615 C627 0.929 . S
H616 C630 0.930 . S
H617 C632 0.960 . S
H618 C632 0.960 . S
H619 C632 0.960 . S
C620 H612 0.929 . S
C620 C621 1.377 . S
C620 C622 1.384 . S
C621 C620 1.377 . S
C621 C627 1.390 . S
C622 H613 0.930 . S
C622 C620 1.384 . S
C622 C623 1.372 . S
C623 C622 1.372 . S
C623 C624 1.400 . S
C623 C628 1.490 . S
C624 H614 0.930 . S
C624 C623 1.400 . S
C624 C627 1.386 . S
H625 C641 0.930 . S
H626 C642 0.931 . S
C627 H615 0.929 . S
C627 C621 1.390 . S
C627 C624 1.386 . S
C628 C623 1.490 . S
C628 C630 1.395 . S
C628 C631 1.403 . S
H629 C635 0.930 . S
C630 H616 0.930 . S
C630 C628 1.395 . S
C630 C633 1.403 . S
C631 C628 1.403 . S
C631 C632 1.524 . S
C631 C635 1.400 . S
C632 H617 0.960 . S
C632 H618 0.960 . S
C632 H619 0.960 . S
C632 C631 1.524 . S
C633 C630 1.403 . S
C633 C634 1.392 . S
C633 C637 1.495 . S
C634 C633 1.392 . S
C634 C635 1.385 . S
C634 C636 1.478 . S
C635 H629 0.930 . S
C635 C631 1.400 . S
C635 C634 1.385 . S
C636 C634 1.478 . S
C636 C638 1.381 . S
C636 C642 1.383 . S
C637 C633 1.495 . S
C637 H643 0.959 . S
C637 H644 0.961 . S
C637 H645 0.960 . S
C638 C636 1.381 . S
C638 C639 1.394 . S
C638 H646 0.930 . S
C639 C638 1.394 . S
C639 C640 1.383 . S
C639 H647 0.929 . S
C640 C639 1.383 . S
C640 C641 1.377 . S
C641 H625 0.930 . S
C641 C640 1.377 . S
C641 C642 1.379 . S
C642 H626 0.931 . S
C642 C636 1.383 . S
C642 C641 1.379 . S
H643 C637 0.959 . S
H644 C637 0.961 . S
H645 C637 0.960 . S
H646 C638 0.930 . S
H647 C639 0.929 . S
H648 C656 0.929 . S
H649 C658 0.930 . S
H650 C660 0.930 . S
H651 C663 0.929 . S
H652 C666 0.930 . S
H653 C668 0.960 . S
H654 C668 0.960 . S
H655 C668 0.960 . S
C656 H648 0.929 . S
C656 C657 1.377 . S
C656 C658 1.384 . S
C657 C656 1.377 . S
C657 C663 1.390 . S
C658 H649 0.930 . S
C658 C656 1.384 . S
C658 C659 1.372 . S
C659 C658 1.372 . S
C659 C660 1.400 . S
C659 C664 1.490 . S
C660 H650 0.930 . S
C660 C659 1.400 . S
C660 C663 1.386 . S
H661 C677 0.930 . S
H662 C678 0.931 . S
C663 H651 0.929 . S
C663 C657 1.390 . S
C663 C660 1.386 . S
C664 C659 1.490 . S
C664 C666 1.395 . S
C664 C667 1.403 . S
H665 C671 0.930 . S
C666 H652 0.930 . S
C666 C664 1.395 . S
C666 C669 1.403 . S
C667 C664 1.403 . S
C667 C668 1.524 . S
C667 C671 1.400 . S
C668 H653 0.960 . S
C668 H654 0.960 . S
C668 H655 0.960 . S
C668 C667 1.524 . S
C669 C666 1.403 . S
C669 C670 1.392 . S
C669 C673 1.495 . S
C670 C669 1.392 . S
C670 C671 1.385 . S
C670 C672 1.478 . S
C671 H665 0.930 . S
C671 C667 1.400 . S
C671 C670 1.385 . S
C672 C670 1.478 . S
C672 C674 1.381 . S
C672 C678 1.383 . S
C673 C669 1.495 . S
C673 H679 0.959 . S
C673 H680 0.961 . S
C673 H681 0.960 . S
C674 C672 1.381 . S
C674 C675 1.394 . S
C674 H682 0.930 . S
C675 C674 1.394 . S
C675 C676 1.383 . S
C675 H683 0.929 . S
C676 C675 1.383 . S
C676 C677 1.377 . S
C677 H661 0.930 . S
C677 C676 1.377 . S
C677 C678 1.379 . S
C678 H662 0.931 . S
C678 C672 1.383 . S
C678 C677 1.379 . S
H679 C673 0.959 . S
H680 C673 0.961 . S
H681 C673 0.960 . S
H682 C674 0.930 . S
H683 C675 0.929 . S
H684 C692 0.929 . S
H685 C694 0.930 . S
H686 C696 0.930 . S
H687 C699 0.929 . S
H688 C702 0.930 . S
H689 C704 0.960 . S
H690 C704 0.960 . S
H691 C704 0.960 . S
C692 H684 0.929 . S
C692 C693 1.377 . S
C692 C694 1.384 . S
C693 C692 1.377 . S
C693 C699 1.390 . S
C694 H685 0.930 . S
C694 C692 1.384 . S
C694 C695 1.372 . S
C695 C694 1.372 . S
C695 C696 1.400 . S
C695 C700 1.490 . S
C696 H686 0.930 . S
C696 C695 1.400 . S
C696 C699 1.386 . S
H697 C713 0.930 . S
H698 C714 0.931 . S
C699 H687 0.929 . S
C699 C693 1.390 . S
C699 C696 1.386 . S
C700 C695 1.490 . S
C700 C702 1.395 . S
C700 C703 1.403 . S
H701 C707 0.930 . S
C702 H688 0.930 . S
C702 C700 1.395 . S
C702 C705 1.403 . S
C703 C700 1.403 . S
C703 C704 1.524 . S
C703 C707 1.400 . S
C704 H689 0.960 . S
C704 H690 0.960 . S
C704 H691 0.960 . S
C704 C703 1.524 . S
C705 C702 1.403 . S
C705 C706 1.392 . S
C705 C709 1.495 . S
C706 C705 1.392 . S
C706 C707 1.385 . S
C706 C708 1.478 . S
C707 H701 0.930 . S
C707 C703 1.400 . S
C707 C706 1.385 . S
C708 C706 1.478 . S
C708 C710 1.381 . S
C708 C714 1.383 . S
C709 C705 1.495 . S
C709 H715 0.959 . S
C709 H716 0.961 . S
C709 H717 0.960 . S
C710 C708 1.381 . S
C710 C711 1.394 . S
C710 H718 0.930 . S
C711 C710 1.394 . S
C711 C712 1.383 . S
C711 H719 0.929 . S
C712 C711 1.383 . S
C712 C713 1.377 . S
C713 H697 0.930 . S
C713 C712 1.377 . S
C713 C714 1.379 . S
C714 H698 0.931 . S
C714 C708 1.383 . S
C714 C713 1.379 . S
H715 C709 0.959 . S
H716 C709 0.961 . S
H717 C709 0.960 . S
H718 C710 0.930 . S
H719 C711 0.929 . S
H720 C728 0.929 . S
H721 C730 0.930 . S
H722 C732 0.930 . S
H723 C735 0.929 . S
H724 C738 0.930 . S
H725 C740 0.960 . S
H726 C740 0.960 . S
H727 C740 0.960 . S
C728 H720 0.929 . S
C728 C729 1.377 . S
C728 C730 1.384 . S
C729 C728 1.377 . S
C729 C735 1.390 . S
C730 H721 0.930 . S
C730 C728 1.384 . S
C730 C731 1.372 . S
C731 C730 1.372 . S
C731 C732 1.400 . S
C731 C736 1.490 . S
C732 H722 0.930 . S
C732 C731 1.400 . S
C732 C735 1.386 . S
H733 C749 0.930 . S
H734 C750 0.931 . S
C735 H723 0.929 . S
C735 C729 1.390 . S
C735 C732 1.386 . S
C736 C731 1.490 . S
C736 C738 1.395 . S
C736 C739 1.403 . S
H737 C743 0.930 . S
C738 H724 0.930 . S
C738 C736 1.395 . S
C738 C741 1.403 . S
C739 C736 1.403 . S
C739 C740 1.524 . S
C739 C743 1.400 . S
C740 H725 0.960 . S
C740 H726 0.960 . S
C740 H727 0.960 . S
C740 C739 1.524 . S
C741 C738 1.403 . S
C741 C742 1.392 . S
C741 C745 1.495 . S
C742 C741 1.392 . S
C742 C743 1.385 . S
C742 C744 1.478 . S
C743 H737 0.930 . S
C743 C739 1.400 . S
C743 C742 1.385 . S
C744 C742 1.478 . S
C744 C746 1.381 . S
C744 C750 1.383 . S
C745 C741 1.495 . S
C745 H751 0.959 . S
C745 H752 0.961 . S
C745 H753 0.960 . S
C746 C744 1.381 . S
C746 C747 1.394 . S
C746 H754 0.930 . S
C747 C746 1.394 . S
C747 C748 1.383 . S
C747 H755 0.929 . S
C748 C747 1.383 . S
C748 C749 1.377 . S
C749 H733 0.930 . S
C749 C748 1.377 . S
C749 C750 1.379 . S
C750 H734 0.931 . S
C750 C744 1.383 . S
C750 C749 1.379 . S
H751 C745 0.959 . S
H752 C745 0.961 . S
H753 C745 0.960 . S
H754 C746 0.930 . S
H755 C747 0.929 . S
H756 C764 0.929 . S
H757 C766 0.930 . S
H758 C768 0.930 . S
H759 C771 0.929 . S
H760 C774 0.930 . S
H761 C776 0.960 . S
H762 C776 0.960 . S
H763 C776 0.960 . S
C764 H756 0.929 . S
C764 C765 1.377 . S
C764 C766 1.384 . S
C765 C764 1.377 . S
C765 C771 1.390 . S
C766 H757 0.930 . S
C766 C764 1.384 . S
C766 C767 1.372 . S
C767 C766 1.372 . S
C767 C768 1.400 . S
C767 C772 1.490 . S
C768 H758 0.930 . S
C768 C767 1.400 . S
C768 C771 1.386 . S
H769 C785 0.930 . S
H770 C786 0.931 . S
C771 H759 0.929 . S
C771 C765 1.390 . S
C771 C768 1.386 . S
C772 C767 1.490 . S
C772 C774 1.395 . S
C772 C775 1.403 . S
H773 C779 0.930 . S
C774 H760 0.930 . S
C774 C772 1.395 . S
C774 C777 1.403 . S
C775 C772 1.403 . S
C775 C776 1.524 . S
C775 C779 1.400 . S
C776 H761 0.960 . S
C776 H762 0.960 . S
C776 H763 0.960 . S
C776 C775 1.524 . S
C777 C774 1.403 . S
C777 C778 1.392 . S
C777 C781 1.495 . S
C778 C777 1.392 . S
C778 C779 1.385 . S
C778 C780 1.478 . S
C779 H773 0.930 . S
C779 C775 1.400 . S
C779 C778 1.385 . S
C780 C778 1.478 . S
C780 C782 1.381 . S
C780 C786 1.383 . S
C781 C777 1.495 . S
C781 H787 0.959 . S
C781 H788 0.961 . S
C781 H789 0.960 . S
C782 C780 1.381 . S
C782 C783 1.394 . S
C782 H790 0.930 . S
C783 C782 1.394 . S
C783 C784 1.383 . S
C783 H791 0.929 . S
C784 C783 1.383 . S
C784 C785 1.377 . S
C785 H769 0.930 . S
C785 C784 1.377 . S
C785 C786 1.379 . S
C786 H770 0.931 . S
C786 C780 1.383 . S
C786 C785 1.379 . S
H787 C781 0.959 . S
H788 C781 0.961 . S
H789 C781 0.960 . S
H790 C782 0.930 . S
H791 C783 0.929 . S
H792 C800 0.929 . S
H793 C802 0.930 . S
H794 C804 0.930 . S
H795 C807 0.929 . S
H796 C810 0.930 . S
H797 C812 0.960 . S
H798 C812 0.960 . S
H799 C812 0.960 . S
C800 H792 0.929 . S
C800 C801 1.377 . S
C800 C802 1.384 . S
C801 C800 1.377 . S
C801 C807 1.390 . S
C802 H793 0.930 . S
C802 C800 1.384 . S
C802 C803 1.372 . S
C803 C802 1.372 . S
C803 C804 1.400 . S
C803 C808 1.490 . S
C804 H794 0.930 . S
C804 C803 1.400 . S
C804 C807 1.386 . S
H805 C821 0.930 . S
H806 C822 0.931 . S
C807 H795 0.929 . S
C807 C801 1.390 . S
C807 C804 1.386 . S
C808 C803 1.490 . S
C808 C810 1.395 . S
C808 C811 1.403 . S
H809 C815 0.930 . S
C810 H796 0.930 . S
C810 C808 1.395 . S
C810 C813 1.403 . S
C811 C808 1.403 . S
C811 C812 1.524 . S
C811 C815 1.400 . S
C812 H797 0.960 . S
C812 H798 0.960 . S
C812 H799 0.960 . S
C812 C811 1.524 . S
C813 C810 1.403 . S
C813 C814 1.392 . S
C813 C817 1.495 . S
C814 C813 1.392 . S
C814 C815 1.385 . S
C814 C816 1.478 . S
C815 H809 0.930 . S
C815 C811 1.400 . S
C815 C814 1.385 . S
C816 C814 1.478 . S
C816 C818 1.381 . S
C816 C822 1.383 . S
C817 C813 1.495 . S
C817 H823 0.959 . S
C817 H824 0.961 . S
C817 H825 0.960 . S
C818 C816 1.381 . S
C818 C819 1.394 . S
C818 H826 0.930 . S
C819 C818 1.394 . S
C819 C820 1.383 . S
C819 H827 0.929 . S
C820 C819 1.383 . S
C820 C821 1.377 . S
C821 H805 0.930 . S
C821 C820 1.377 . S
C821 C822 1.379 . S
C822 H806 0.931 . S
C822 C816 1.383 . S
C822 C821 1.379 . S
H823 C817 0.959 . S
H824 C817 0.961 . S
H825 C817 0.960 . S
H826 C818 0.930 . S
H827 C819 0.929 . S
H828 C836 0.929 . S
H829 C838 0.930 . S
H830 C840 0.930 . S
H831 C843 0.929 . S
H832 C846 0.930 . S
H833 C848 0.960 . S
H834 C848 0.960 . S
H835 C848 0.960 . S
C836 H828 0.929 . S
C836 C837 1.377 . S
C836 C838 1.384 . S
C837 C836 1.377 . S
C837 C843 1.390 . S
C838 H829 0.930 . S
C838 C836 1.384 . S
C838 C839 1.372 . S
C839 C838 1.372 . S
C839 C840 1.400 . S
C839 C844 1.490 . S
C840 H830 0.930 . S
C840 C839 1.400 . S
C840 C843 1.386 . S
H841 C857 0.930 . S
H842 C858 0.931 . S
C843 H831 0.929 . S
C843 C837 1.390 . S
C843 C840 1.386 . S
C844 C839 1.490 . S
C844 C846 1.395 . S
C844 C847 1.403 . S
H845 C851 0.930 . S
C846 H832 0.930 . S
C846 C844 1.395 . S
C846 C849 1.403 . S
C847 C844 1.403 . S
C847 C848 1.524 . S
C847 C851 1.400 . S
C848 H833 0.960 . S
C848 H834 0.960 . S
C848 H835 0.960 . S
C848 C847 1.524 . S
C849 C846 1.403 . S
C849 C850 1.392 . S
C849 C853 1.495 . S
C850 C849 1.392 . S
C850 C851 1.385 . S
C850 C852 1.478 . S
C851 H845 0.930 . S
C851 C847 1.400 . S
C851 C850 1.385 . S
C852 C850 1.478 . S
C852 C854 1.381 . S
C852 C858 1.383 . S
C853 C849 1.495 . S
C853 H859 0.959 . S
C853 H860 0.961 . S
C853 H861 0.960 . S
C854 C852 1.381 . S
C854 C855 1.394 . S
C854 H862 0.930 . S
C855 C854 1.394 . S
C855 C856 1.383 . S
C855 H863 0.929 . S
C856 C855 1.383 . S
C856 C857 1.377 . S
C857 H841 0.930 . S
C857 C856 1.377 . S
C857 C858 1.379 . S
C858 H842 0.931 . S
C858 C852 1.383 . S
C858 C857 1.379 . S
H859 C853 0.959 . S
H860 C853 0.961 . S
H861 C853 0.960 . S
H862 C854 0.930 . S
H863 C855 0.929 . S
H864 C872 0.929 . S
H865 C874 0.930 . S
H866 C876 0.930 . S
H867 C879 0.929 . S
H868 C882 0.930 . S
H869 C884 0.960 . S
H870 C884 0.960 . S
H871 C884 0.960 . S
C872 H864 0.929 . S
C872 C873 1.377 . S
C872 C874 1.384 . S
C873 C872 1.377 . S
C873 C879 1.390 . S
C874 H865 0.930 . S
C874 C872 1.384 . S
C874 C875 1.372 . S
C875 C874 1.372 . S
C875 C876 1.400 . S
C875 C880 1.490 . S
C876 H866 0.930 . S
C876 C875 1.400 . S
C876 C879 1.386 . S
H877 C893 0.930 . S
H878 C894 0.931 . S
C879 H867 0.929 . S
C879 C873 1.390 . S
C879 C876 1.386 . S
C880 C875 1.490 . S
C880 C882 1.395 . S
C880 C883 1.403 . S
H881 C887 0.930 . S
C882 H868 0.930 . S
C882 C880 1.395 . S
C882 C885 1.403 . S
C883 C880 1.403 . S
C883 C884 1.524 . S
C883 C887 1.400 . S
C884 H869 0.960 . S
C884 H870 0.960 . S
C884 H871 0.960 . S
C884 C883 1.524 . S
C885 C882 1.403 . S
C885 C886 1.392 . S
C885 C889 1.495 . S
C886 C885 1.392 . S
C886 C887 1.385 . S
C886 C888 1.478 . S
C887 H881 0.930 . S
C887 C883 1.400 . S
C887 C886 1.385 . S
C888 C886 1.478 . S
C888 C890 1.381 . S
C888 C894 1.383 . S
C889 C885 1.495 . S
C889 H895 0.959 . S
C889 H896 0.961 . S
C889 H897 0.960 . S
C890 C888 1.381 . S
C890 C891 1.394 . S
C890 H898 0.930 . S
C891 C890 1.394 . S
C891 C892 1.383 . S
C891 H899 0.929 . S
C892 C891 1.383 . S
C892 C893 1.377 . S
C893 H877 0.930 . S
C893 C892 1.377 . S
C893 C894 1.379 . S
C894 H878 0.931 . S
C894 C888 1.383 . S
C894 C893 1.379 . S
H895 C889 0.959 . S
H896 C889 0.961 . S
H897 C889 0.960 . S
H898 C890 0.930 . S
H899 C891 0.929 . S
H900 C908 0.929 . S
H901 C910 0.930 . S
H902 C912 0.930 . S
H903 C915 0.929 . S
H904 C918 0.930 . S
H905 C920 0.960 . S
H906 C920 0.960 . S
H907 C920 0.960 . S
C908 H900 0.929 . S
C908 C909 1.377 . S
C908 C910 1.384 . S
C909 C908 1.377 . S
C909 C915 1.390 . S
C910 H901 0.930 . S
C910 C908 1.384 . S
C910 C911 1.372 . S
C911 C910 1.372 . S
C911 C912 1.400 . S
C911 C916 1.490 . S
C912 H902 0.930 . S
C912 C911 1.400 . S
C912 C915 1.386 . S
H913 C929 0.930 . S
H914 C930 0.931 . S
C915 H903 0.929 . S
C915 C909 1.390 . S
C915 C912 1.386 . S
C916 C911 1.490 . S
C916 C918 1.395 . S
C916 C919 1.403 . S
H917 C923 0.930 . S
C918 H904 0.930 . S
C918 C916 1.395 . S
C918 C921 1.403 . S
C919 C916 1.403 . S
C919 C920 1.524 . S
C919 C923 1.400 . S
C920 H905 0.960 . S
C920 H906 0.960 . S
C920 H907 0.960 . S
C920 C919 1.524 . S
C921 C918 1.403 . S
C921 C922 1.392 . S
C921 C925 1.495 . S
C922 C921 1.392 . S
C922 C923 1.385 . S
C922 C924 1.478 . S
C923 H917 0.930 . S
C923 C919 1.400 . S
C923 C922 1.385 . S
C924 C922 1.478 . S
C924 C926 1.381 . S
C924 C930 1.383 . S
C925 C921 1.495 . S
C925 H931 0.959 . S
C925 H932 0.961 . S
C925 H933 0.960 . S
C926 C924 1.381 . S
C926 C927 1.394 . S
C926 H934 0.930 . S
C927 C926 1.394 . S
C927 C928 1.383 . S
C927 H935 0.929 . S
C928 C927 1.383 . S
C928 C929 1.377 . S
C929 H913 0.930 . S
C929 C928 1.377 . S
C929 C930 1.379 . S
C930 H914 0.931 . S
C930 C924 1.383 . S
C930 C929 1.379 . S
H931 C925 0.959 . S
H932 C925 0.961 . S
H933 C925 0.960 . S
H934 C926 0.930 . S
H935 C927 0.929 . S
H936 C944 0.929 . S
H937 C946 0.930 . S
H938 C948 0.930 . S
H939 C951 0.929 . S
H940 C954 0.930 . S
H941 C956 0.960 . S
H942 C956 0.960 . S
H943 C956 0.960 . S
C944 H936 0.929 . S
C944 C945 1.377 . S
C944 C946 1.384 . S
C945 C944 1.377 . S
C945 C951 1.390 . S
C946 H937 0.930 . S
C946 C944 1.384 . S
C946 C947 1.372 . S
C947 C946 1.372 . S
C947 C948 1.400 . S
C947 C952 1.490 . S
C948 H938 0.930 . S
C948 C947 1.400 . S
C948 C951 1.386 . S
H949 C965 0.930 . S
H950 C966 0.931 . S
C951 H939 0.929 . S
C951 C945 1.390 . S
C951 C948 1.386 . S
C952 C947 1.490 . S
C952 C954 1.395 . S
C952 C955 1.403 . S
H953 C959 0.930 . S
C954 H940 0.930 . S
C954 C952 1.395 . S
C954 C957 1.403 . S
C955 C952 1.403 . S
C955 C956 1.524 . S
C955 C959 1.400 . S
C956 H941 0.960 . S
C956 H942 0.960 . S
C956 H943 0.960 . S
C956 C955 1.524 . S
C957 C954 1.403 . S
C957 C958 1.392 . S
C957 C961 1.495 . S
C958 C957 1.392 . S
C958 C959 1.385 . S
C958 C960 1.478 . S
C959 H953 0.930 . S
C959 C955 1.400 . S
C959 C958 1.385 . S
C960 C958 1.478 . S
C960 C962 1.381 . S
C960 C966 1.383 . S
C961 C957 1.495 . S
C961 H967 0.959 . S
C961 H968 0.961 . S
C961 H969 0.960 . S
C962 C960 1.381 . S
C962 C963 1.394 . S
C962 H970 0.930 . S
C963 C962 1.394 . S
C963 C964 1.383 . S
C963 H971 0.929 . S
C964 C963 1.383 . S
C964 C965 1.377 . S
C965 H949 0.930 . S
C965 C964 1.377 . S
C965 C966 1.379 . S
C966 H950 0.931 . S
C966 C960 1.383 . S
C966 C965 1.379 . S
H967 C961 0.959 . S
H968 C961 0.961 . S
H969 C961 0.960 . S
H970 C962 0.930 . S
H971 C963 0.929 . S
H972 C980 0.929 . S
H973 C982 0.930 . S
H974 C984 0.930 . S
H975 C987 0.929 . S
H976 C990 0.930 . S
H977 C992 0.960 . S
H978 C992 0.960 . S
H979 C992 0.960 . S
C980 H972 0.929 . S
C980 C981 1.377 . S
C980 C982 1.384 . S
C981 C980 1.377 . S
C981 C987 1.390 . S
C982 H973 0.930 . S
C982 C980 1.384 . S
C982 C983 1.372 . S
C983 C982 1.372 . S
C983 C984 1.400 . S
C983 C988 1.490 . S
C984 H974 0.930 . S
C984 C983 1.400 . S
C984 C987 1.386 . S
H985 C1001 0.930 . S
H986 C1002 0.931 . S
C987 H975 0.929 . S
C987 C981 1.390 . S
C987 C984 1.386 . S
C988 C983 1.490 . S
C988 C990 1.395 . S
C988 C991 1.403 . S
H989 C995 0.930 . S
C990 H976 0.930 . S
C990 C988 1.395 . S
C990 C993 1.403 . S
C991 C988 1.403 . S
C991 C992 1.524 . S
C991 C995 1.400 . S
C992 H977 0.960 . S
C992 H978 0.960 . S
C992 H979 0.960 . S
C992 C991 1.524 . S
C993 C990 1.403 . S
C993 C994 1.392 . S
C993 C997 1.495 . S
C994 C993 1.392 . S
C994 C995 1.385 . S
C994 C996 1.478 . S
C995 H989 0.930 . S
C995 C991 1.400 . S
C995 C994 1.385 . S
C996 C994 1.478 . S
C996 C998 1.381 . S
C996 C1002 1.383 . S
C997 C993 1.495 . S
C997 H1003 0.959 . S
C997 H1004 0.961 . S
C997 H1005 0.960 . S
C998 C996 1.381 . S
C998 C999 1.394 . S
C998 H1006 0.930 . S
C999 C998 1.394 . S
C999 C1000 1.383 . S
C999 H1007 0.929 . S
C1000 C999 1.383 . S
C1000 C1001 1.377 . S
C1001 H985 0.930 . S
C1001 C1000 1.377 . S
C1001 C1002 1.379 . S
C1002 H986 0.931 . S
C1002 C996 1.383 . S
C1002 C1001 1.379 . S
H1003 C997 0.959 . S
H1004 C997 0.961 . S
H1005 C997 0.960 . S
H1006 C998 0.930 . S
H1007 C999 0.929 . S
H1008 C1016 0.929 . S
H1009 C1018 0.930 . S
H1010 C1020 0.930 . S
H1011 C1023 0.929 . S
H1012 C1026 0.930 . S
H1013 C1028 0.960 . S
H1014 C1028 0.960 . S
H1015 C1028 0.960 . S
C1016 H1008 0.929 . S
C1016 C1017 1.377 . S
C1016 C1018 1.384 . S
C1017 C1016 1.377 . S
C1017 C1023 1.390 . S
C1018 H1009 0.930 . S
C1018 C1016 1.384 . S
C1018 C1019 1.372 . S
C1019 C1018 1.372 . S
C1019 C1020 1.400 . S
C1019 C1024 1.490 . S
C1020 H1010 0.930 . S
C1020 C1019 1.400 . S
C1020 C1023 1.386 . S
H1021 C1037 0.930 . S
H1022 C1038 0.931 . S
C1023 H1011 0.929 . S
C1023 C1017 1.390 . S
C1023 C1020 1.386 . S
C1024 C1019 1.490 . S
C1024 C1026 1.395 . S
C1024 C1027 1.403 . S
H1025 C1031 0.930 . S
C1026 H1012 0.930 . S
C1026 C1024 1.395 . S
C1026 C1029 1.403 . S
C1027 C1024 1.403 . S
C1027 C1028 1.524 . S
C1027 C1031 1.400 . S
C1028 H1013 0.960 . S
C1028 H1014 0.960 . S
C1028 H1015 0.960 . S
C1028 C1027 1.524 . S
C1029 C1026 1.403 . S
C1029 C1030 1.392 . S
C1029 C1033 1.495 . S
C1030 C1029 1.392 . S
C1030 C1031 1.385 . S
C1030 C1032 1.478 . S
C1031 H1025 0.930 . S
C1031 C1027 1.400 . S
C1031 C1030 1.385 . S
C1032 C1030 1.478 . S
C1032 C1034 1.381 . S
C1032 C1038 1.383 . S
C1033 C1029 1.495 . S
C1033 H1039 0.959 . S
C1033 H1040 0.961 . S
C1033 H1041 0.960 . S
C1034 C1032 1.381 . S
C1034 C1035 1.394 . S
C1034 H1042 0.930 . S
C1035 C1034 1.394 . S
C1035 C1036 1.383 . S
C1035 H1043 0.929 . S
C1036 C1035 1.383 . S
C1036 C1037 1.377 . S
C1037 H1021 0.930 . S
C1037 C1036 1.377 . S
C1037 C1038 1.379 . S
C1038 H1022 0.931 . S
C1038 C1032 1.383 . S
C1038 C1037 1.379 . S
H1039 C1033 0.959 . S
H1040 C1033 0.961 . S
H1041 C1033 0.960 . S
H1042 C1034 0.930 . S
H1043 C1035 0.929 . S
H1044 C1052 0.929 . S
H1045 C1054 0.930 . S
H1046 C1056 0.930 . S
H1047 C1059 0.929 . S
H1048 C1062 0.930 . S
H1049 C1064 0.960 . S
H1050 C1064 0.960 . S
H1051 C1064 0.960 . S
C1052 H1044 0.929 . S
C1052 C1053 1.377 . S
C1052 C1054 1.384 . S
C1053 C1052 1.377 . S
C1053 C1059 1.390 . S
C1054 H1045 0.930 . S
C1054 C1052 1.384 . S
C1054 C1055 1.372 . S
C1055 C1054 1.372 . S
C1055 C1056 1.400 . S
C1055 C1060 1.490 . S
C1056 H1046 0.930 . S
C1056 C1055 1.400 . S
C1056 C1059 1.386 . S
H1057 C1073 0.930 . S
H1058 C1074 0.931 . S
C1059 H1047 0.929 . S
C1059 C1053 1.390 . S
C1059 C1056 1.386 . S
C1060 C1055 1.490 . S
C1060 C1062 1.395 . S
C1060 C1063 1.403 1_556 S
H1061 C1067 0.930 . S
C1062 H1048 0.930 . S
C1062 C1060 1.395 . S
C1062 C1065 1.403 1_565 S
C1063 C1060 1.403 1_554 S
C1063 C1064 1.524 . S
C1063 C1067 1.400 1_565 S
C1064 H1049 0.960 . S
C1064 H1050 0.960 . S
C1064 H1051 0.960 . S
C1064 C1063 1.524 . S
C1065 C1062 1.403 1_545 S
C1065 C1066 1.392 1_556 S
C1065 C1069 1.495 . S
C1066 C1065 1.392 1_554 S
C1066 C1067 1.385 . S
C1066 C1068 1.478 . S
C1067 H1061 0.930 . S
C1067 C1063 1.400 1_545 S
C1067 C1066 1.385 . S
C1068 C1066 1.478 . S
C1068 C1070 1.381 . S
C1068 C1074 1.383 . S
C1069 C1065 1.495 . S
C1069 H1075 0.959 . S
C1069 H1076 0.961 . S
C1069 H1077 0.960 . S
C1070 C1068 1.381 . S
C1070 C1071 1.394 . S
C1070 H1078 0.930 . S
C1071 C1070 1.394 . S
C1071 C1072 1.383 . S
C1071 H1079 0.929 . S
C1072 C1071 1.383 . S
C1072 C1073 1.377 . S
C1073 H1057 0.930 . S
C1073 C1072 1.377 . S
C1073 C1074 1.379 . S
C1074 H1058 0.931 . S
C1074 C1068 1.383 . S
C1074 C1073 1.379 . S
H1075 C1069 0.959 . S
H1076 C1069 0.961 . S
H1077 C1069 0.960 . S
H1078 C1070 0.930 . S
H1079 C1071 0.929 . S
H1080 C1088 0.929 . S
H1081 C1090 0.930 . S
H1082 C1092 0.930 . S
H1083 C1095 0.929 . S
H1084 C1098 0.930 . S
H1085 C1100 0.960 . S
H1086 C1100 0.960 . S
H1087 C1100 0.960 . S
C1088 H1080 0.929 . S
C1088 C1089 1.377 . S
C1088 C1090 1.384 . S
C1089 C1088 1.377 . S
C1089 C1095 1.390 . S
C1090 H1081 0.930 . S
C1090 C1088 1.384 . S
C1090 C1091 1.372 . S
C1091 C1090 1.372 . S
C1091 C1092 1.400 . S
C1091 C1096 1.490 . S
C1092 H1082 0.930 . S
C1092 C1091 1.400 . S
C1092 C1095 1.386 . S
H1093 C1109 0.930 . S
H1094 C1110 0.931 . S
C1095 H1083 0.929 . S
C1095 C1089 1.390 . S
C1095 C1092 1.386 . S
C1096 C1091 1.490 . S
C1096 C1098 1.395 . S
C1096 C1099 1.403 . S
H1097 C1103 0.930 . S
C1098 H1084 0.930 . S
C1098 C1096 1.395 . S
C1098 C1101 1.403 . S
C1099 C1096 1.403 . S
C1099 C1100 1.524 . S
C1099 C1103 1.400 . S
C1100 H1085 0.960 . S
C1100 H1086 0.960 . S
C1100 H1087 0.960 . S
C1100 C1099 1.524 . S
C1101 C1098 1.403 . S
C1101 C1102 1.392 . S
C1101 C1105 1.495 . S
C1102 C1101 1.392 . S
C1102 C1103 1.385 . S
C1102 C1104 1.478 . S
C1103 H1097 0.930 . S
C1103 C1099 1.400 . S
C1103 C1102 1.385 . S
C1104 C1102 1.478 . S
C1104 C1106 1.381 . S
C1104 C1110 1.383 . S
C1105 C1101 1.495 . S
C1105 H1111 0.959 . S
C1105 H1112 0.961 . S
C1105 H1113 0.960 . S
C1106 C1104 1.381 . S
C1106 C1107 1.394 . S
C1106 H1114 0.930 . S
C1107 C1106 1.394 . S
C1107 C1108 1.383 . S
C1107 H1115 0.929 . S
C1108 C1107 1.383 . S
C1108 C1109 1.377 . S
C1109 H1093 0.930 . S
C1109 C1108 1.377 . S
C1109 C1110 1.379 . S
C1110 H1094 0.931 . S
C1110 C1104 1.383 . S
C1110 C1109 1.379 . S
H1111 C1105 0.959 . S
H1112 C1105 0.961 . S
H1113 C1105 0.960 . S
H1114 C1106 0.930 . S
H1115 C1107 0.929 . S
H1116 C1124 0.929 . S
H1117 C1126 0.930 1_556 S
H1118 C1128 0.930 . S
H1119 C1131 0.929 . S
H1120 C1134 0.930 . S
H1121 C1136 0.960 1_455 S
H1122 C1136 0.960 . S
H1123 C1136 0.960 . S
C1124 H1116 0.929 . S
C1124 C1125 1.377 . S
C1124 C1126 1.384 . S
C1125 C1124 1.377 . S
C1125 C1131 1.390 . S
C1126 H1117 0.930 1_554 S
C1126 C1124 1.384 . S
C1126 C1127 1.372 . S
C1127 C1126 1.372 . S
C1127 C1128 1.400 . S
C1127 C1132 1.490 . S
C1128 H1118 0.930 . S
C1128 C1127 1.400 . S
C1128 C1131 1.386 . S
H1129 C1145 0.930 . S
H1130 C1146 0.931 1_554 S
C1131 H1119 0.929 . S
C1131 C1125 1.390 . S
C1131 C1128 1.386 . S
C1132 C1127 1.490 . S
C1132 C1134 1.395 1_554 S
C1132 C1135 1.403 . S
H1133 C1139 0.935 . S
C1134 H1120 0.930 . S
C1134 C1132 1.395 1_556 S
C1134 C1137 1.403 1_655 S
C1135 C1132 1.403 . S
C1135 C1136 1.524 . S
C1135 C1139 1.414 1_655 S
C1136 H1121 0.960 1_655 S
C1136 H1122 0.960 . S
C1136 H1123 0.960 . S
C1136 C1135 1.524 . S
C1137 C1134 1.403 1_455 S
C1137 C1138 1.392 . S
C1137 C1141 1.495 . S
C1138 C1137 1.392 . S
C1138 C1139 1.367 1_556 S
C1138 C1140 1.478 . S
C1139 H1133 0.935 . S
C1139 C1135 1.414 1_455 S
C1139 C1138 1.367 1_554 S
C1140 C1138 1.478 . S
C1140 C1142 1.381 . S
C1140 C1146 1.383 . S
C1141 C1137 1.495 . S
C1141 H1147 0.959 1_455 S
C1141 H1148 0.961 . S
C1141 H1149 0.960 . S
C1142 C1140 1.381 . S
C1142 C1143 1.394 . S
C1142 H1150 0.930 . S
C1143 C1142 1.394 . S
C1143 C1144 1.383 . S
C1143 H1151 0.929 . S
C1144 C1143 1.383 . S
C1144 C1145 1.377 . S
C1145 H1129 0.930 . S
C1145 C1144 1.377 . S
C1145 C1146 1.379 . S
C1146 H1130 0.931 1_556 S
C1146 C1140 1.383 . S
C1146 C1145 1.379 . S
H1147 C1141 0.959 1_655 S
H1148 C1141 0.961 . S
H1149 C1141 0.960 . S
H1150 C1142 0.930 . S
H1151 C1143 0.929 . S
H1152 C1160 0.929 . S
H1153 C1162 0.930 . S
H1154 C1164 0.930 . S
H1155 C1167 0.929 . S
H1156 C1170 0.930 . S
H1157 C1172 0.960 . S
H1158 C1172 0.960 1_565 S
H1159 C1172 0.960 1_565 S
C1160 H1152 0.929 . S
C1160 C1161 1.377 . S
C1160 C1162 1.384 . S
C1161 C1160 1.377 . S
C1161 C1167 1.390 . S
C1162 H1153 0.930 . S
C1162 C1160 1.384 . S
C1162 C1163 1.372 . S
C1163 C1162 1.372 . S
C1163 C1164 1.400 . S
C1163 C1168 1.490 . S
C1164 H1154 0.930 . S
C1164 C1163 1.400 . S
C1164 C1167 1.386 . S
H1165 C1181 0.930 . S
H1166 C1182 0.931 . S
C1167 H1155 0.929 . S
C1167 C1161 1.390 . S
C1167 C1164 1.386 . S
C1168 C1163 1.490 . S
C1168 C1170 1.395 . S
C1168 C1171 1.406 . S
H1169 C1175 0.930 . S
C1170 H1156 0.930 . S
C1170 C1168 1.395 . S
C1170 C1173 1.403 . S
C1171 C1168 1.406 . S
C1171 C1172 1.523 1_565 S
C1171 C1175 1.397 1_565 S
C1172 H1157 0.960 . S
C1172 H1158 0.960 1_545 S
C1172 H1159 0.960 1_545 S
C1172 C1171 1.523 1_545 S
C1173 C1170 1.403 . S
C1173 C1174 1.392 1_565 S
C1173 C1177 1.495 . S
C1174 C1173 1.392 1_545 S
C1174 C1175 1.385 . S
C1174 C1176 1.478 . S
C1175 H1169 0.930 . S
C1175 C1171 1.397 1_545 S
C1175 C1174 1.385 . S
C1176 C1174 1.478 . S
C1176 C1178 1.381 . S
C1176 C1182 1.383 . S
C1177 C1173 1.495 . S
C1177 H1183 0.959 . S
C1177 H1184 0.961 1_565 S
C1177 H1185 0.960 1_565 S
C1178 C1176 1.381 . S
C1178 C1179 1.394 . S
C1178 H1186 0.930 . S
C1179 C1178 1.394 . S
C1179 C1180 1.383 . S
C1179 H1187 0.929 . S
C1180 C1179 1.383 . S
C1180 C1181 1.377 . S
C1181 H1165 0.930 . S
C1181 C1180 1.377 . S
C1181 C1182 1.379 . S
C1182 H1166 0.931 . S
C1182 C1176 1.383 . S
C1182 C1181 1.379 . S
H1183 C1177 0.959 . S
H1184 C1177 0.961 1_545 S
H1185 C1177 0.960 1_545 S
H1186 C1178 0.930 . S
H1187 C1179 0.929 . S
H1188 C1196 0.929 . S
H1189 C1198 0.930 . S
H1190 C1200 0.930 . S
H1191 C1203 0.929 . S
H1192 C1206 0.930 . S
H1193 C1208 0.960 . S
H1194 C1208 0.960 . S
H1195 C1208 0.960 . S
C1196 H1188 0.929 . S
C1196 C1197 1.377 . S
C1196 C1198 1.384 . S
C1197 C1196 1.377 . S
C1197 C1203 1.390 . S
C1198 H1189 0.930 . S
C1198 C1196 1.384 . S
C1198 C1199 1.372 . S
C1199 C1198 1.372 . S
C1199 C1200 1.400 . S
C1199 C1204 1.490 . S
C1200 H1190 0.930 . S
C1200 C1199 1.400 . S
C1200 C1203 1.386 . S
H1201 C1217 0.930 . S
H1202 C1218 0.931 . S
C1203 H1191 0.929 . S
C1203 C1197 1.390 . S
C1203 C1200 1.386 . S
C1204 C1199 1.490 . S
C1204 C1206 1.395 . S
C1204 C1207 1.403 1_554 S
H1205 C1211 0.930 . S
C1206 H1192 0.930 . S
C1206 C1204 1.395 . S
C1206 C1209 1.403 . S
C1207 C1204 1.403 1_556 S
C1207 C1208 1.524 . S
C1207 C1211 1.400 . S
C1208 H1193 0.960 . S
C1208 H1194 0.960 . S
C1208 H1195 0.960 . S
C1208 C1207 1.524 . S
C1209 C1206 1.403 . S
C1209 C1210 1.392 1_554 S
C1209 C1213 1.495 . S
C1210 C1209 1.392 1_556 S
C1210 C1211 1.385 . S
C1210 C1212 1.478 . S
C1211 H1205 0.930 . S
C1211 C1207 1.400 . S
C1211 C1210 1.385 . S
C1212 C1210 1.478 . S
C1212 C1214 1.381 . S
C1212 C1218 1.383 . S
C1213 C1209 1.495 . S
C1213 H1219 0.959 . S
C1213 H1220 0.961 . S
C1213 H1221 0.960 . S
C1214 C1212 1.381 . S
C1214 C1215 1.394 . S
C1214 H1222 0.930 . S
C1215 C1214 1.394 . S
C1215 C1216 1.383 . S
C1215 H1223 0.929 . S
C1216 C1215 1.383 . S
C1216 C1217 1.377 . S
C1217 H1201 0.930 . S
C1217 C1216 1.377 . S
C1217 C1218 1.379 . S
C1218 H1202 0.931 . S
C1218 C1212 1.383 . S
C1218 C1217 1.379 . S
H1219 C1213 0.959 . S
H1220 C1213 0.961 . S
H1221 C1213 0.960 . S
H1222 C1214 0.930 . S
H1223 C1215 0.929 . S
H1224 C1232 0.929 . S
H1225 C1234 0.930 . S
H1226 C1236 0.930 . S
H1227 C1239 0.929 . S
H1228 C1242 0.935 . S
H1229 C1244 0.960 . S
H1230 C1244 0.960 . S
H1231 C1244 0.960 . S
C1232 H1224 0.929 . S
C1232 C1233 1.377 . S
C1232 C1234 1.384 . S
C1233 C1232 1.377 . S
C1233 C1239 1.390 . S
C1234 H1225 0.930 . S
C1234 C1232 1.384 . S
C1234 C1235 1.372 . S
C1235 C1234 1.372 . S
C1235 C1236 1.400 . S
C1235 C1240 1.490 . S
C1236 H1226 0.930 . S
C1236 C1235 1.400 . S
C1236 C1239 1.386 . S
H1237 C1253 0.930 . S
H1238 C1254 0.931 . S
C1239 H1227 0.929 . S
C1239 C1233 1.390 . S
C1239 C1236 1.386 . S
C1240 C1235 1.490 . S
C1240 C1242 1.416 . S
C1240 C1243 1.403 . S
H1241 C1247 0.930 . S
C1242 H1228 0.935 . S
C1242 C1240 1.416 . S
C1242 C1245 1.378 1_655 S
C1243 C1240 1.403 . S
C1243 C1244 1.524 . S
C1243 C1247 1.400 1_655 S
C1244 H1229 0.960 . S
C1244 H1230 0.960 . S
C1244 H1231 0.960 . S
C1244 C1243 1.524 . S
C1245 C1242 1.378 1_455 S
C1245 C1246 1.392 . S
C1245 C1249 1.495 . S
C1246 C1245 1.392 . S
C1246 C1247 1.385 . S
C1246 C1248 1.478 . S
C1247 H1241 0.930 . S
C1247 C1243 1.400 1_455 S
C1247 C1246 1.385 . S
C1248 C1246 1.478 . S
C1248 C1250 1.381 . S
C1248 C1254 1.383 . S
C1249 C1245 1.495 . S
C1249 H1255 0.959 . S
C1249 H1256 0.961 . S
C1249 H1257 0.960 . S
C1250 C1248 1.381 . S
C1250 C1251 1.394 . S
C1250 H1258 0.930 . S
C1251 C1250 1.394 . S
C1251 C1252 1.383 . S
C1251 H1259 0.929 . S
C1252 C1251 1.383 . S
C1252 C1253 1.377 . S
C1253 H1237 0.930 . S
C1253 C1252 1.377 . S
C1253 C1254 1.379 . S
C1254 H1238 0.931 . S
C1254 C1248 1.383 . S
C1254 C1253 1.379 . S
H1255 C1249 0.959 . S
H1256 C1249 0.961 . S
H1257 C1249 0.960 . S
H1258 C1250 0.930 . S
H1259 C1251 0.929 . S
H1260 C1268 0.929 . S
H1261 C1270 0.930 . S
H1262 C1272 0.936 . S
H1263 C1275 0.929 . S
H1264 C1278 0.930 . S
H1265 C1280 0.986 . S
H1266 C1280 0.923 1_554 S
H1267 C1280 0.974 . S
C1268 H1260 0.929 . S
C1268 C1269 1.377 . S
C1268 C1270 1.384 . S
C1269 C1268 1.377 . S
C1269 C1275 1.390 . S
C1270 H1261 0.930 . S
C1270 C1268 1.384 . S
C1270 C1271 1.372 . S
C1271 C1270 1.372 . S
C1271 C1272 1.400 . S
C1271 C1276 1.490 . S
C1272 H1262 0.936 . S
C1272 C1271 1.400 . S
C1272 C1275 1.386 . S
H1273 C1289 0.930 . S
H1274 C1290 0.931 . S
C1275 H1263 0.929 . S
C1275 C1269 1.390 . S
C1275 C1272 1.386 . S
C1276 C1271 1.490 . S
C1276 C1278 1.395 . S
C1276 C1279 1.400 . S
H1277 C1283 0.930 . S
C1278 H1264 0.930 . S
C1278 C1276 1.395 . S
C1278 C1281 1.403 1_545 S
C1279 C1276 1.400 . S
C1279 C1280 1.523 1_554 S
C1279 C1283 1.403 1_544 S
C1280 H1265 0.986 . S
C1280 H1266 0.923 1_556 S
C1280 H1267 0.974 . S
C1280 C1279 1.523 1_556 S
C1281 C1278 1.403 1_565 S
C1281 C1282 1.392 1_554 S
C1281 C1285 1.495 . S
C1282 C1281 1.392 1_556 S
C1282 C1283 1.385 . S
C1282 C1284 1.478 . S
C1283 H1277 0.930 . S
C1283 C1279 1.403 1_566 S
C1283 C1282 1.385 . S
C1284 C1282 1.478 . S
C1284 C1286 1.381 . S
C1284 C1290 1.383 . S
C1285 C1281 1.495 . S
C1285 H1291 0.959 . S
C1285 H1292 0.961 1_554 S
C1285 H1293 0.960 . S
C1286 C1284 1.381 . S
C1286 C1287 1.394 . S
C1286 H1294 0.943 . S
C1287 C1286 1.394 . S
C1287 C1288 1.383 . S
C1287 H1295 0.929 . S
C1288 C1287 1.383 . S
C1288 C1289 1.377 . S
C1289 H1273 0.930 . S
C1289 C1288 1.377 . S
C1289 C1290 1.379 . S
C1290 H1274 0.931 . S
C1290 C1284 1.383 . S
C1290 C1289 1.379 . S
H1291 C1285 0.959 . S
H1292 C1285 0.961 1_556 S
H1293 C1285 0.960 . S
H1294 C1286 0.943 . S
H1295 C1287 0.929 . S
H1296 C1304 0.929 . S
H1297 C1306 0.930 . S
H1298 C1308 0.930 . S
H1299 C1311 0.929 . S
H1300 C1314 0.930 . S
H1301 C1316 0.960 . S
H1302 C1316 0.960 . S
H1303 C1316 0.960 . S
C1304 H1296 0.929 . S
C1304 C1305 1.377 . S
C1304 C1306 1.384 . S
C1305 C1304 1.377 . S
C1305 C1311 1.390 . S
C1306 H1297 0.930 . S
C1306 C1304 1.384 . S
C1306 C1307 1.372 . S
C1307 C1306 1.372 . S
C1307 C1308 1.400 . S
C1307 C1312 1.490 . S
C1308 H1298 0.930 . S
C1308 C1307 1.400 . S
C1308 C1311 1.386 . S
H1309 C1325 0.930 . S
H1310 C1326 0.931 . S
C1311 H1299 0.929 . S
C1311 C1305 1.390 . S
C1311 C1308 1.386 . S
C1312 C1307 1.490 . S
C1312 C1314 1.395 . S
C1312 C1315 1.403 . S
H1313 C1319 0.930 . S
C1314 H1300 0.930 . S
C1314 C1312 1.395 . S
C1314 C1317 1.403 . S
C1315 C1312 1.403 . S
C1315 C1316 1.524 . S
C1315 C1319 1.400 . S
C1316 H1301 0.960 . S
C1316 H1302 0.960 . S
C1316 H1303 0.960 . S
C1316 C1315 1.524 . S
C1317 C1314 1.403 . S
C1317 C1318 1.392 . S
C1317 C1321 1.495 . S
C1318 C1317 1.392 . S
C1318 C1319 1.385 . S
C1318 C1320 1.478 . S
C1319 H1313 0.930 . S
C1319 C1315 1.400 . S
C1319 C1318 1.385 . S
C1320 C1318 1.478 . S
C1320 C1322 1.381 . S
C1320 C1326 1.383 . S
C1321 C1317 1.495 . S
C1321 H1327 0.959 . S
C1321 H1328 0.961 . S
C1321 H1329 0.960 . S
C1322 C1320 1.381 . S
C1322 C1323 1.394 . S
C1322 H1330 0.930 . S
C1323 C1322 1.394 . S
C1323 C1324 1.383 . S
C1323 H1331 0.929 . S
C1324 C1323 1.383 . S
C1324 C1325 1.377 . S
C1325 H1309 0.930 . S
C1325 C1324 1.377 . S
C1325 C1326 1.379 . S
C1326 H1310 0.931 . S
C1326 C1320 1.383 . S
C1326 C1325 1.379 . S
H1327 C1321 0.959 . S
H1328 C1321 0.961 . S
H1329 C1321 0.960 . S
H1330 C1322 0.930 . S
H1331 C1323 0.929 . S
H1332 C1340 0.929 . S
H1333 C1342 0.930 . S
H1334 C1344 0.930 . S
H1335 C1347 0.929 . S
H1336 C1350 0.930 . S
H1337 C1352 0.960 . S
H1338 C1352 0.960 1_655 S
H1339 C1352 0.960 1_655 S
C1340 H1332 0.929 . S
C1340 C1341 1.377 . S
C1340 C1342 1.384 . S
C1341 C1340 1.377 . S
C1341 C1347 1.390 . S
C1342 H1333 0.930 . S
C1342 C1340 1.384 . S
C1342 C1343 1.372 . S
C1343 C1342 1.372 . S
C1343 C1344 1.400 . S
C1343 C1348 1.490 . S
C1344 H1334 0.930 . S
C1344 C1343 1.400 . S
C1344 C1347 1.386 . S
H1345 C1361 0.930 . S
H1346 C1362 0.931 . S
C1347 H1335 0.929 . S
C1347 C1341 1.390 . S
C1347 C1344 1.386 . S
C1348 C1343 1.490 . S
C1348 C1350 1.395 1_554 S
C1348 C1351 1.378 1_655 S
H1349 C1355 0.930 . S
C1350 H1336 0.930 . S
C1350 C1348 1.395 1_556 S
C1350 C1353 1.403 . S
C1351 C1348 1.378 1_455 S
C1351 C1352 1.530 . S
C1351 C1355 1.420 . S
C1352 H1337 0.960 . S
C1352 H1338 0.960 1_455 S
C1352 H1339 0.960 1_455 S
C1352 C1351 1.530 . S
C1353 C1350 1.403 . S
C1353 C1354 1.392 1_655 S
C1353 C1357 1.495 . S
C1354 C1353 1.392 1_455 S
C1354 C1355 1.385 1_556 S
C1354 C1356 1.478 . S
C1355 H1349 0.930 . S
C1355 C1351 1.420 . S
C1355 C1354 1.385 1_554 S
C1356 C1354 1.478 . S
C1356 C1358 1.381 . S
C1356 C1362 1.383 . S
C1357 C1353 1.495 . S
C1357 H1363 0.959 . S
C1357 H1364 0.961 . S
C1357 H1365 0.960 . S
C1358 C1356 1.381 . S
C1358 C1359 1.394 . S
C1358 H1366 0.930 . S
C1359 C1358 1.394 . S
C1359 C1360 1.383 . S
C1359 H1367 0.929 . S
C1360 C1359 1.383 . S
C1360 C1361 1.377 . S
C1361 H1345 0.930 . S
C1361 C1360 1.377 . S
C1361 C1362 1.379 . S
C1362 H1346 0.931 . S
C1362 C1356 1.383 . S
C1362 C1361 1.379 . S
H1363 C1357 0.959 . S
H1364 C1357 0.961 . S
H1365 C1357 0.960 . S
H1366 C1358 0.930 . S
H1367 C1359 0.929 . S
H1368 C1376 0.929 . S
H1369 C1378 0.930 . S
H1370 C1380 0.930 . S
H1371 C1383 0.929 . S
H1372 C1386 0.930 . S
H1373 C1388 0.960 . S
H1374 C1388 0.960 . S
H1375 C1388 0.960 . S
C1376 H1368 0.929 . S
C1376 C1377 1.377 . S
C1376 C1378 1.384 . S
C1377 C1376 1.377 . S
C1377 C1383 1.390 . S
C1378 H1369 0.930 . S
C1378 C1376 1.384 . S
C1378 C1379 1.372 . S
C1379 C1378 1.372 . S
C1379 C1380 1.400 . S
C1379 C1384 1.490 . S
C1380 H1370 0.930 . S
C1380 C1379 1.400 . S
C1380 C1383 1.386 . S
H1381 C1397 0.930 . S
H1382 C1398 0.931 . S
C1383 H1371 0.929 . S
C1383 C1377 1.390 . S
C1383 C1380 1.386 . S
C1384 C1379 1.490 . S
C1384 C1386 1.395 . S
C1384 C1387 1.403 . S
H1385 C1391 0.930 . S
C1386 H1372 0.930 . S
C1386 C1384 1.395 . S
C1386 C1389 1.403 1_565 S
C1387 C1384 1.403 . S
C1387 C1388 1.524 . S
C1387 C1391 1.400 1_565 S
C1388 H1373 0.960 . S
C1388 H1374 0.960 . S
C1388 H1375 0.960 . S
C1388 C1387 1.524 . S
C1389 C1386 1.403 1_545 S
C1389 C1390 1.392 . S
C1389 C1393 1.495 . S
C1390 C1389 1.392 . S
C1390 C1391 1.385 . S
C1390 C1392 1.478 . S
C1391 H1385 0.930 . S
C1391 C1387 1.400 1_545 S
C1391 C1390 1.385 . S
C1392 C1390 1.478 . S
C1392 C1394 1.381 . S
C1392 C1398 1.383 . S
C1393 C1389 1.495 . S
C1393 H1399 0.959 . S
C1393 H1400 0.961 . S
C1393 H1401 0.960 . S
C1394 C1392 1.381 . S
C1394 C1395 1.394 . S
C1394 H1402 0.930 . S
C1395 C1394 1.394 . S
C1395 C1396 1.383 . S
C1395 H1403 0.929 . S
C1396 C1395 1.383 . S
C1396 C1397 1.377 . S
C1397 H1381 0.930 . S
C1397 C1396 1.377 . S
C1397 C1398 1.379 . S
C1398 H1382 0.931 . S
C1398 C1392 1.383 . S
C1398 C1397 1.379 . S
H1399 C1393 0.959 . S
H1400 C1393 0.961 . S
H1401 C1393 0.960 . S
H1402 C1394 0.930 . S
H1403 C1395 0.929 . S
H1404 C1412 0.929 . S
H1405 C1414 0.930 . S
H1406 C1416 0.930 . S
H1407 C1419 0.929 . S
H1408 C1422 0.930 . S
H1409 C1424 0.960 . S
H1410 C1424 0.960 . S
H1411 C1424 0.960 . S
C1412 H1404 0.929 . S
C1412 C1413 1.377 . S
C1412 C1414 1.384 . S
C1413 C1412 1.377 . S
C1413 C1419 1.390 . S
C1414 H1405 0.930 . S
C1414 C1412 1.384 . S
C1414 C1415 1.372 . S
C1415 C1414 1.372 . S
C1415 C1416 1.400 . S
C1415 C1420 1.490 . S
C1416 H1406 0.930 . S
C1416 C1415 1.400 . S
C1416 C1419 1.386 . S
H1417 C1433 0.930 . S
H1418 C1434 0.931 . S
C1419 H1407 0.929 . S
C1419 C1413 1.390 . S
C1419 C1416 1.386 . S
C1420 C1415 1.490 . S
C1420 C1422 1.395 1_556 S
C1420 C1423 1.403 . S
H1421 C1427 0.930 . S
C1422 H1408 0.930 . S
C1422 C1420 1.395 1_554 S
C1422 C1425 1.403 . S
C1423 C1420 1.403 . S
C1423 C1424 1.524 . S
C1423 C1427 1.400 . S
C1424 H1409 0.960 . S
C1424 H1410 0.960 . S
C1424 H1411 0.960 . S
C1424 C1423 1.524 . S
C1425 C1422 1.403 . S
C1425 C1426 1.392 . S
C1425 C1429 1.495 . S
C1426 C1425 1.392 . S
C1426 C1427 1.385 1_554 S
C1426 C1428 1.478 . S
C1427 H1421 0.930 . S
C1427 C1423 1.400 . S
C1427 C1426 1.385 1_556 S
C1428 C1426 1.478 . S
C1428 C1430 1.381 . S
C1428 C1434 1.383 . S
C1429 C1425 1.495 . S
C1429 H1435 0.959 . S
C1429 H1436 0.961 . S
C1429 H1437 0.960 . S
C1430 C1428 1.381 . S
C1430 C1431 1.394 . S
C1430 H1438 0.930 . S
C1431 C1430 1.394 . S
C1431 C1432 1.383 . S
C1431 H1439 0.929 . S
C1432 C1431 1.383 . S
C1432 C1433 1.377 . S
C1433 H1417 0.930 . S
C1433 C1432 1.377 . S
C1433 C1434 1.379 . S
C1434 H1418 0.931 . S
C1434 C1428 1.383 . S
C1434 C1433 1.379 . S
H1435 C1429 0.959 . S
H1436 C1429 0.961 . S
H1437 C1429 0.960 . S
H1438 C1430 0.930 . S
H1439 C1431 0.929 . S
H1440 C1448 0.929 . S
H1441 C1450 0.930 . S
H1442 C1452 0.930 . S
H1443 C1455 0.929 . S
H1444 C1458 0.930 . S
H1445 C1460 0.960 . S
H1446 C1460 0.960 . S
H1447 C1460 0.960 . S
C1448 H1440 0.929 . S
C1448 C1449 1.377 . S
C1448 C1450 1.384 . S
C1449 C1448 1.377 . S
C1449 C1455 1.390 . S
C1450 H1441 0.930 . S
C1450 C1448 1.384 . S
C1450 C1451 1.372 . S
C1451 C1450 1.372 . S
C1451 C1452 1.400 . S
C1451 C1456 1.490 . S
C1452 H1442 0.930 . S
C1452 C1451 1.400 . S
C1452 C1455 1.386 . S
H1453 C1469 0.930 . S
H1454 C1470 0.931 . S
C1455 H1443 0.929 . S
C1455 C1449 1.390 . S
C1455 C1452 1.386 . S
C1456 C1451 1.490 . S
C1456 C1458 1.395 . S
C1456 C1459 1.403 . S
H1457 C1463 0.930 . S
C1458 H1444 0.930 . S
C1458 C1456 1.395 . S
C1458 C1461 1.403 1_455 S
C1459 C1456 1.403 . S
C1459 C1460 1.524 . S
C1459 C1463 1.400 1_455 S
C1460 H1445 0.960 . S
C1460 H1446 0.960 . S
C1460 H1447 0.960 . S
C1460 C1459 1.524 . S
C1461 C1458 1.403 1_655 S
C1461 C1462 1.392 . S
C1461 C1465 1.495 . S
C1462 C1461 1.392 . S
C1462 C1463 1.385 . S
C1462 C1464 1.478 . S
C1463 H1457 0.930 . S
C1463 C1459 1.400 1_655 S
C1463 C1462 1.385 . S
C1464 C1462 1.478 . S
C1464 C1466 1.381 . S
C1464 C1470 1.383 . S
C1465 C1461 1.495 . S
C1465 H1471 0.959 . S
C1465 H1472 0.961 . S
C1465 H1473 0.960 . S
C1466 C1464 1.381 . S
C1466 C1467 1.394 . S
C1466 H1474 0.930 . S
C1467 C1466 1.394 . S
C1467 C1468 1.383 . S
C1467 H1475 0.929 . S
C1468 C1467 1.383 . S
C1468 C1469 1.377 . S
C1469 H1453 0.930 . S
C1469 C1468 1.377 . S
C1469 C1470 1.379 . S
C1470 H1454 0.931 . S
C1470 C1464 1.383 . S
C1470 C1469 1.379 . S
H1471 C1465 0.959 . S
H1472 C1465 0.961 . S
H1473 C1465 0.960 . S
H1474 C1466 0.930 . S
H1475 C1467 0.929 . S
C405 C84 1.359 . S
C424 N13 1.367 . S
C441 N46 1.516 . S
C460 C117 1.493 . S
C477 N79 1.380 . S
C496 C150 1.359 . S
C513 N112 1.521 . S
C532 C183 1.491 . S
C549 N145 1.380 . S
C568 C18 1.372 . S
C585 C51 1.506 . S
C604 N178 1.517 . S
C621 N200 1.492 . S
C640 C337 1.499 . S
C657 N244 1.472 . S
C676 C381 1.476 . S
C693 C205 1.495 . S
C712 N266 1.511 . S
C729 C249 1.460 . S
C748 N310 1.454 . S
C765 C271 1.496 . S
C784 N332 1.515 . S
C801 C315 1.459 . S
C820 N376 1.477 . S
C837 C285 1.264 . S
C856 C21 1.251 . S
C873 C54 1.208 . S
C892 C318 1.211 . S
C909 C351 1.262 . S
C928 C87 1.269 . S
C945 C384 1.212 . S
C964 C120 1.218 . S
C981 C153 1.254 . S
C1000 C219 1.276 . S
C1017 C252 1.216 . S
C1036 C186 1.194 . S
C1053 C238 1.246 . S
C1072 C7 1.252 . S
C1089 C40 1.367 . S
C1108 C282 1.352 . S
C1125 C73 1.244 . S
C1144 C304 1.235 . S
C1161 C106 1.366 . S
C1180 C348 1.353 . S
C1197 C139 1.246 . S
C1216 C370 1.253 . S
C1233 C216 1.365 . S
C1252 C172 1.375 . S
C1269 N68 1.324 . S
C1288 N365 1.268 . S
C1305 N211 1.461 . S
C1324 N101 1.434 . S
C1341 N134 1.309 . S
C1360 N233 1.329 . S
C1377 N167 1.430 . S
C1396 N277 1.482 . S
C1413 N299 1.305 . S
C1432 N2 1.336 . S
C1449 N35 1.439 . S
C1468 N343 1.420 . S
