# Generated by pormake.
# Topology uka, (4)-cn, num edge types: 1
# Building blocks:
#     Node 0, Type 0, BuildingBlock: ICAMEG_clean_sbu_1, # of connection points: 4
#     Node 1, Type 0, BuildingBlock: ICAMEG_clean_sbu_1, # of connection points: 4
#     Node 2, Type 0, BuildingBlock: ICAMEG_clean_sbu_1, # of connection points: 4
#     Node 3, Type 0, BuildingBlock: ICAMEG_clean_sbu_1, # of connection points: 4
#     Node 4, Type 0, BuildingBlock: ICAMEG_clean_sbu_1, # of connection points: 4
#     Node 5, Type 0, BuildingBlock: ICAMEG_clean_sbu_1, # of connection points: 4
#     Node 6, Type 0, BuildingBlock: ICAMEG_clean_sbu_1, # of connection points: 4
#     Node 7, Type 0, BuildingBlock: ICAMEG_clean_sbu_1, # of connection points: 4
#     Node 8, Type 0, BuildingBlock: ICAMEG_clean_sbu_1, # of connection points: 4
#     Node 9, Type 0, BuildingBlock: ICAMEG_clean_sbu_1, # of connection points: 4
#     Node 10, Type 0, BuildingBlock: ICAMEG_clean_sbu_1, # of connection points: 4
#     Node 11, Type 0, BuildingBlock: ICAMEG_clean_sbu_1, # of connection points: 4
#     Node 12, Type 0, BuildingBlock: ICAMEG_clean_sbu_1, # of connection points: 4
#     Node 13, Type 0, BuildingBlock: ICAMEG_clean_sbu_1, # of connection points: 4
#     Node 14, Type 0, BuildingBlock: ICAMEG_clean_sbu_1, # of connection points: 4
#     Node 15, Type 0, BuildingBlock: ICAMEG_clean_sbu_1, # of connection points: 4
#     Node 16, Type 0, BuildingBlock: ICAMEG_clean_sbu_1, # of connection points: 4
#     Node 17, Type 0, BuildingBlock: ICAMEG_clean_sbu_1, # of connection points: 4
#     Node 18, Type 0, BuildingBlock: ICAMEG_clean_sbu_1, # of connection points: 4
#     Node 19, Type 0, BuildingBlock: ICAMEG_clean_sbu_1, # of connection points: 4
#     Node 20, Type 0, BuildingBlock: ICAMEG_clean_sbu_1, # of connection points: 4
#     Node 21, Type 0, BuildingBlock: ICAMEG_clean_sbu_1, # of connection points: 4
#     Node 22, Type 0, BuildingBlock: ICAMEG_clean_sbu_1, # of connection points: 4
#     Node 23, Type 0, BuildingBlock: ICAMEG_clean_sbu_1, # of connection points: 4
#     Node 24, Type 0, BuildingBlock: ICAMEG_clean_sbu_1, # of connection points: 4
#     Node 25, Type 0, BuildingBlock: ICAMEG_clean_sbu_1, # of connection points: 4
#     Node 26, Type 0, BuildingBlock: ICAMEG_clean_sbu_1, # of connection points: 4
#     Node 27, Type 0, BuildingBlock: ICAMEG_clean_sbu_1, # of connection points: 4
#     Node 28, Type 0, BuildingBlock: ICAMEG_clean_sbu_1, # of connection points: 4
#     Node 29, Type 0, BuildingBlock: ICAMEG_clean_sbu_1, # of connection points: 4
#     Node 30, Type 0, BuildingBlock: ICAMEG_clean_sbu_1, # of connection points: 4
#     Node 31, Type 0, BuildingBlock: ICAMEG_clean_sbu_1, # of connection points: 4
#     Edge 32, Type (0, 0), BuildingBlock: OJICUG_clean_linker_0, # of connection points: 2
#     Edge 33, Type (0, 0), BuildingBlock: OJICUG_clean_linker_0, # of connection points: 2
#     Edge 34, Type (0, 0), BuildingBlock: OJICUG_clean_linker_0, # of connection points: 2
#     Edge 35, Type (0, 0), BuildingBlock: OJICUG_clean_linker_0, # of connection points: 2
#     Edge 36, Type (0, 0), BuildingBlock: OJICUG_clean_linker_0, # of connection points: 2
#     Edge 37, Type (0, 0), BuildingBlock: OJICUG_clean_linker_0, # of connection points: 2
#     Edge 38, Type (0, 0), BuildingBlock: OJICUG_clean_linker_0, # of connection points: 2
#     Edge 39, Type (0, 0), BuildingBlock: OJICUG_clean_linker_0, # of connection points: 2
#     Edge 40, Type (0, 0), BuildingBlock: OJICUG_clean_linker_0, # of connection points: 2
#     Edge 41, Type (0, 0), BuildingBlock: OJICUG_clean_linker_0, # of connection points: 2
#     Edge 42, Type (0, 0), BuildingBlock: OJICUG_clean_linker_0, # of connection points: 2
#     Edge 43, Type (0, 0), BuildingBlock: OJICUG_clean_linker_0, # of connection points: 2
#     Edge 44, Type (0, 0), BuildingBlock: OJICUG_clean_linker_0, # of connection points: 2
#     Edge 45, Type (0, 0), BuildingBlock: OJICUG_clean_linker_0, # of connection points: 2
#     Edge 46, Type (0, 0), BuildingBlock: OJICUG_clean_linker_0, # of connection points: 2
#     Edge 47, Type (0, 0), BuildingBlock: OJICUG_clean_linker_0, # of connection points: 2
#     Edge 48, Type (0, 0), BuildingBlock: OJICUG_clean_linker_0, # of connection points: 2
#     Edge 49, Type (0, 0), BuildingBlock: OJICUG_clean_linker_0, # of connection points: 2
#     Edge 50, Type (0, 0), BuildingBlock: OJICUG_clean_linker_0, # of connection points: 2
#     Edge 51, Type (0, 0), BuildingBlock: OJICUG_clean_linker_0, # of connection points: 2
#     Edge 52, Type (0, 0), BuildingBlock: OJICUG_clean_linker_0, # of connection points: 2
#     Edge 53, Type (0, 0), BuildingBlock: OJICUG_clean_linker_0, # of connection points: 2
#     Edge 54, Type (0, 0), BuildingBlock: OJICUG_clean_linker_0, # of connection points: 2
#     Edge 55, Type (0, 0), BuildingBlock: OJICUG_clean_linker_0, # of connection points: 2
#     Edge 56, Type (0, 0), BuildingBlock: OJICUG_clean_linker_0, # of connection points: 2
#     Edge 57, Type (0, 0), BuildingBlock: OJICUG_clean_linker_0, # of connection points: 2
#     Edge 58, Type (0, 0), BuildingBlock: OJICUG_clean_linker_0, # of connection points: 2
#     Edge 59, Type (0, 0), BuildingBlock: OJICUG_clean_linker_0, # of connection points: 2
#     Edge 60, Type (0, 0), BuildingBlock: OJICUG_clean_linker_0, # of connection points: 2
#     Edge 61, Type (0, 0), BuildingBlock: OJICUG_clean_linker_0, # of connection points: 2
#     Edge 62, Type (0, 0), BuildingBlock: OJICUG_clean_linker_0, # of connection points: 2
#     Edge 63, Type (0, 0), BuildingBlock: OJICUG_clean_linker_0, # of connection points: 2
#     Edge 64, Type (0, 0), BuildingBlock: OJICUG_clean_linker_0, # of connection points: 2
#     Edge 65, Type (0, 0), BuildingBlock: OJICUG_clean_linker_0, # of connection points: 2
#     Edge 66, Type (0, 0), BuildingBlock: OJICUG_clean_linker_0, # of connection points: 2
#     Edge 67, Type (0, 0), BuildingBlock: OJICUG_clean_linker_0, # of connection points: 2
#     Edge 68, Type (0, 0), BuildingBlock: OJICUG_clean_linker_0, # of connection points: 2
#     Edge 69, Type (0, 0), BuildingBlock: OJICUG_clean_linker_0, # of connection points: 2
#     Edge 70, Type (0, 0), BuildingBlock: OJICUG_clean_linker_0, # of connection points: 2
#     Edge 71, Type (0, 0), BuildingBlock: OJICUG_clean_linker_0, # of connection points: 2
#     Edge 72, Type (0, 0), BuildingBlock: OJICUG_clean_linker_0, # of connection points: 2
#     Edge 73, Type (0, 0), BuildingBlock: OJICUG_clean_linker_0, # of connection points: 2
#     Edge 74, Type (0, 0), BuildingBlock: OJICUG_clean_linker_0, # of connection points: 2
#     Edge 75, Type (0, 0), BuildingBlock: OJICUG_clean_linker_0, # of connection points: 2
#     Edge 76, Type (0, 0), BuildingBlock: OJICUG_clean_linker_0, # of connection points: 2
#     Edge 77, Type (0, 0), BuildingBlock: OJICUG_clean_linker_0, # of connection points: 2
#     Edge 78, Type (0, 0), BuildingBlock: OJICUG_clean_linker_0, # of connection points: 2
#     Edge 79, Type (0, 0), BuildingBlock: OJICUG_clean_linker_0, # of connection points: 2
#     Edge 80, Type (0, 0), BuildingBlock: OJICUG_clean_linker_0, # of connection points: 2
#     Edge 81, Type (0, 0), BuildingBlock: OJICUG_clean_linker_0, # of connection points: 2
#     Edge 82, Type (0, 0), BuildingBlock: OJICUG_clean_linker_0, # of connection points: 2
#     Edge 83, Type (0, 0), BuildingBlock: OJICUG_clean_linker_0, # of connection points: 2
#     Edge 84, Type (0, 0), BuildingBlock: OJICUG_clean_linker_0, # of connection points: 2
#     Edge 85, Type (0, 0), BuildingBlock: OJICUG_clean_linker_0, # of connection points: 2
#     Edge 86, Type (0, 0), BuildingBlock: OJICUG_clean_linker_0, # of connection points: 2
#     Edge 87, Type (0, 0), BuildingBlock: OJICUG_clean_linker_0, # of connection points: 2
#     Edge 88, Type (0, 0), BuildingBlock: OJICUG_clean_linker_0, # of connection points: 2
#     Edge 89, Type (0, 0), BuildingBlock: OJICUG_clean_linker_0, # of connection points: 2
#     Edge 90, Type (0, 0), BuildingBlock: OJICUG_clean_linker_0, # of connection points: 2
#     Edge 91, Type (0, 0), BuildingBlock: OJICUG_clean_linker_0, # of connection points: 2
#     Edge 92, Type (0, 0), BuildingBlock: OJICUG_clean_linker_0, # of connection points: 2
#     Edge 93, Type (0, 0), BuildingBlock: OJICUG_clean_linker_0, # of connection points: 2
#     Edge 94, Type (0, 0), BuildingBlock: OJICUG_clean_linker_0, # of connection points: 2
#     Edge 95, Type (0, 0), BuildingBlock: OJICUG_clean_linker_0, # of connection points: 2
# Relax obj value: 0.037
# Max RMSD: 0.068
# Mean RMSD: 0.068
data_MOF--net-uka--node1-ICAMEG_clean_sbu_1--edge1-OJICUG_clean_linker_0
_symmetry_space_group_name_H-M    P1
_symmetry_Int_Tables_number       1
_symmetry_cell_setting            triclinic
loop_
_symmetry_equiv_pos_as_xyz
'x, y, z'
_cell_length_a     47.099876
_cell_length_b     47.177564
_cell_length_c     34.967319
_cell_angle_alpha  89.999297
_cell_angle_beta   90.005628
_cell_angle_gamma 89.999654
loop_
_atom_site_label
_atom_site_type_symbol
_atom_site_fract_x
_atom_site_fract_y
_atom_site_fract_z
_atom_type_partial_charge
Co0 Co 0.09924 0.28691 0.25983 0.0
Co1 Co 0.1542 0.29793 0.32091 0.0
O2 O 0.13922 0.29468 0.26898 0.0
C3 C 0.10878 0.336 0.20591 0.0
O4 O 0.11681 0.35299 0.23363 0.0
C5 C 0.19605 0.26222 0.27987 0.0
O6 O 0.17466 0.24632 0.26895 0.0
O7 O 0.14093 0.25884 0.3319 0.0
O8 O 0.09721 0.26105 0.30594 0.0
H9 H 0.15225 0.2862 0.46377 0.0
H10 H 0.14258 0.27617 0.2 0.0
O11 O 0.10105 0.31072 0.21288 0.0
H12 H 0.09018 0.18625 0.21363 0.0
H13 H 0.01233 0.28072 0.17697 0.0
H14 H 0.04825 0.28412 0.30931 0.0
H15 H 0.07728 0.22797 0.2524 0.0
H16 H 0.06369 0.27777 0.18993 0.0
O17 O 0.19168 0.28339 0.30172 0.0
H18 H 0.1327 0.28388 0.39846 0.0
H19 H 0.20973 0.31655 0.35323 0.0
H20 H 0.99669 0.28684 0.29763 0.0
H21 H 0.15615 0.2351 0.16035 0.0
H22 H 0.97853 0.28622 0.23095 0.0
H23 H 0.12991 0.1897 0.16711 0.0
O24 O 0.08884 0.32037 0.29142 0.0
H25 H 0.19928 0.37393 0.24065 0.0
H26 H 0.14918 0.35341 0.36135 0.0
H27 H 0.16339 0.40254 0.3467 0.0
H28 H 0.18869 0.41305 0.286 0.0
H29 H 0.1845 0.32514 0.2563 0.0
H30 H 0.2302 0.31904 0.41807 0.0
H31 H 0.20136 0.30388 0.47392 0.0
O32 O 0.11715 0.3127 0.34158 0.0
C33 C 0.11576 0.24921 0.3276 0.0
C34 C 0.16501 0.29295 0.43969 0.0
C35 C 0.20877 0.31134 0.41403 0.0
N36 N 0.16997 0.30026 0.37208 0.0
C37 C 0.15401 0.29176 0.40263 0.0
C38 C 0.19708 0.30982 0.37737 0.0
C39 C 0.19257 0.30284 0.44535 0.0
C40 C 0.13106 0.25649 0.20309 0.0
N41 N 0.10932 0.25435 0.2288 0.0
C42 C 0.13884 0.23331 0.18057 0.0
C43 C 0.12413 0.20783 0.1844 0.0
C44 C 0.10187 0.20587 0.21052 0.0
C45 C 0.09474 0.22949 0.23259 0.0
C46 C 0.02004 0.28142 0.20611 0.0
C47 C 0.04046 0.2829 0.2803 0.0
C48 C 0.0491 0.27954 0.21367 0.0
N49 N 0.05903 0.28104 0.25036 0.0
C50 C 0.01126 0.28481 0.27384 0.0
C51 C 1.00108 0.28453 0.23643 0.0
C52 C 0.09498 0.32353 0.32657 0.0
C53 C 0.18836 0.36961 0.26724 0.0
C54 C 0.16014 0.35782 0.33484 0.0
C55 C 0.16817 0.38568 0.32674 0.0
C56 C 0.18237 0.39155 0.29268 0.0
N57 N 0.16618 0.3364 0.30981 0.0
C58 C 0.18003 0.34201 0.27632 0.0
Co59 Co 0.96384 0.84959 0.51239 0.0
Co60 Co 0.95455 0.90473 0.57443 0.0
O61 O 0.95679 0.88969 0.52219 0.0
C62 C 0.92289 0.86903 0.45008 0.0
O63 O 0.9219 0.89507 0.4631 0.0
C64 C 0.99096 0.94518 0.53237 0.0
O65 O 0.00605 0.92323 0.52143 0.0
O66 O 0.99344 0.89069 0.58487 0.0
O67 O 0.99112 0.84767 0.55717 0.0
H68 H 0.96697 0.90236 0.71723 0.0
H69 H 0.97527 0.89409 0.45318 0.0
O70 O 0.93751 0.85004 0.46707 0.0
H71 H 0.06309 0.83777 0.46165 0.0
H72 H 0.96987 0.76195 0.43071 0.0
H73 H 0.9676 0.79906 0.56248 0.0
H74 H 0.02188 0.82615 0.50201 0.0
H75 H 0.97119 0.81345 0.44265 0.0
O76 O 0.96997 0.9417 0.55488 0.0
H77 H 0.96825 0.88275 0.65193 0.0
H78 H 0.938 0.96074 0.60693 0.0
H79 H 0.96633 0.74742 0.55181 0.0
H80 H 0.01575 0.90626 0.41202 0.0
H81 H 0.96664 0.72859 0.4855 0.0
H82 H 0.06017 0.87805 0.41605 0.0
O83 O 0.93112 0.83968 0.54541 0.0
H84 H 0.87899 0.95494 0.49869 0.0
H85 H 0.89913 0.8995 0.6151 0.0
H86 H 0.85022 0.91545 0.60227 0.0
H87 H 0.83988 0.94343 0.54373 0.0
H88 H 0.92755 0.93833 0.51242 0.0
H89 H 0.93655 0.98126 0.67177 0.0
H90 H 0.95104 0.95198 0.72749 0.0
O91 O 0.93924 0.868 0.59539 0.0
C92 C 0.00292 0.86562 0.57974 0.0
C93 C 0.96055 0.91532 0.69319 0.0
C94 C 0.94352 0.95961 0.66767 0.0
N95 N 0.95311 0.92053 0.62563 0.0
C96 C 0.96117 0.90431 0.65613 0.0
C97 C 0.94445 0.94789 0.63101 0.0
C98 C 0.95163 0.94316 0.69893 0.0
C99 C 0.9942 0.88137 0.45481 0.0
N100 N 0.99588 0.85909 0.47969 0.0
C101 C 0.01723 0.88852 0.43156 0.0
C102 C 0.04216 0.87274 0.4339 0.0
C103 C 0.04382 0.85017 0.45948 0.0
C104 C 0.0204 0.8437 0.48233 0.0
C105 C 0.96939 0.76992 0.45973 0.0
C106 C 0.96847 0.79104 0.53357 0.0
C107 C 0.97031 0.79907 0.46669 0.0
N108 N 0.96931 0.80931 0.50326 0.0
C109 C 0.96743 0.76177 0.5277 0.0
C110 C 0.96753 0.75121 0.49048 0.0
C111 C 0.92822 0.84591 0.58052 0.0
C112 C 0.88321 0.94273 0.52426 0.0
C113 C 0.89479 0.91141 0.58935 0.0
C114 C 0.86705 0.92051 0.58235 0.0
C115 C 0.86128 0.93624 0.54953 0.0
N116 N 0.91618 0.91776 0.56435 0.0
C117 C 0.91069 0.93328 0.53222 0.0
Co118 Co 0.40553 0.71568 0.76123 0.0
Co119 Co 0.35023 0.70505 0.82189 0.0
O120 O 0.36545 0.70821 0.77004 0.0
C121 C 0.39647 0.66652 0.70704 0.0
O122 O 0.38854 0.64937 0.73464 0.0
C123 C 0.30864 0.74084 0.78031 0.0
O124 O 0.33011 0.75668 0.76947 0.0
O125 O 0.36366 0.74408 0.83299 0.0
O126 O 0.40747 0.74153 0.80737 0.0
H127 H 0.35148 0.71678 0.96478 0.0
H128 H 0.36253 0.72678 0.70108 0.0
O129 O 0.40381 0.69189 0.71418 0.0
H130 H 0.41582 0.81617 0.71485 0.0
H131 H 0.49304 0.72103 0.67942 0.0
H132 H 0.4562 0.71831 0.81132 0.0
H133 H 0.42812 0.77438 0.75383 0.0
H134 H 0.44162 0.72431 0.69169 0.0
O135 O 0.31289 0.71974 0.80232 0.0
H136 H 0.37142 0.71894 0.89968 0.0
H137 H 0.29443 0.68676 0.85366 0.0
H138 H 0.50783 0.71543 0.80032 0.0
H139 H 0.34954 0.76793 0.66122 0.0
H140 H 0.52645 0.71573 0.73388 0.0
H141 H 0.37624 0.81307 0.66805 0.0
O142 O 0.41546 0.68217 0.79293 0.0
H143 H 0.30528 0.6292 0.74123 0.0
H144 H 0.35473 0.64959 0.86247 0.0
H145 H 0.34037 0.60051 0.84773 0.0
H146 H 0.3154 0.59007 0.78677 0.0
H147 H 0.32019 0.67794 0.75698 0.0
H148 H 0.27358 0.68443 0.91829 0.0
H149 H 0.3022 0.69942 0.97442 0.0
O150 O 0.38713 0.6901 0.84298 0.0
C151 C 0.38894 0.7535 0.82893 0.0
C152 C 0.33882 0.71011 0.94057 0.0
C153 C 0.29508 0.69199 0.91447 0.0
N154 N 0.33419 0.70282 0.87291 0.0
C155 C 0.35003 0.71122 0.90362 0.0
C156 C 0.30699 0.69342 0.87793 0.0
C157 C 0.31116 0.70039 0.94595 0.0
C158 C 0.37423 0.74635 0.70422 0.0
N159 N 0.39588 0.74831 0.73009 0.0
C160 C 0.36678 0.76958 0.68157 0.0
C161 C 0.38175 0.79491 0.68544 0.0
C162 C 0.40392 0.79668 0.71172 0.0
C163 C 0.41071 0.77302 0.73391 0.0
C164 C 0.48513 0.72049 0.70847 0.0
C165 C 0.46419 0.71942 0.78239 0.0
C166 C 0.45603 0.72254 0.71563 0.0
N167 N 0.44584 0.72124 0.75221 0.0
C168 C 0.49343 0.71741 0.77633 0.0
C169 C 0.50388 0.7175 0.73905 0.0
C170 C 0.40925 0.67909 0.82807 0.0
C171 C 0.31606 0.63349 0.76794 0.0
C172 C 0.34391 0.64521 0.83585 0.0
C173 C 0.3358 0.61738 0.82769 0.0
C174 C 0.32178 0.61154 0.79349 0.0
N175 N 0.33812 0.66663 0.81072 0.0
C176 C 0.32447 0.66106 0.77708 0.0
Co177 Co 0.54093 0.15359 0.01407 0.0
Co178 Co 0.55024 0.09806 0.0755 0.0
O179 O 0.54804 0.11343 0.02339 0.0
C180 C 0.58178 0.13474 0.95128 0.0
O181 O 0.58311 0.10868 0.96418 0.0
C182 C 0.51408 0.05759 0.03286 0.0
O183 O 0.49888 0.07947 0.02195 0.0
O184 O 0.51128 0.11193 0.08598 0.0
O185 O 0.5137 0.15516 0.05889 0.0
H186 H 0.53751 0.09948 0.21827 0.0
H187 H 0.52953 0.10945 0.95441 0.0
O188 O 0.56716 0.15355 0.96863 0.0
H189 H 0.44168 0.1657 0.96335 0.0
H190 H 0.53456 0.24183 0.9336 0.0
H191 H 0.53707 0.20374 0.06485 0.0
H192 H 0.48286 0.17708 0.00392 0.0
H193 H 0.53345 0.19025 0.94483 0.0
O194 O 0.53498 0.06114 0.0555 0.0
H195 H 0.5364 0.11953 0.15321 0.0
H196 H 0.56685 0.04188 0.10742 0.0
H197 H 0.53801 0.25548 0.05489 0.0
H198 H 0.48908 0.09753 0.91304 0.0
H199 H 0.53756 0.27479 0.98883 0.0
H200 H 0.44465 0.12571 0.9173 0.0
O201 O 0.57363 0.16329 0.04726 0.0
H202 H 0.62607 0.04865 0.99933 0.0
H203 H 0.60555 0.10309 0.11648 0.0
H204 H 0.65453 0.08734 0.10363 0.0
H205 H 0.66505 0.05986 0.04472 0.0
H206 H 0.57745 0.06506 0.0131 0.0
H207 H 0.56813 0.02092 0.17201 0.0
H208 H 0.55345 0.04981 0.22801 0.0
O209 O 0.56545 0.13471 0.09698 0.0
C210 C 0.50186 0.13706 0.08119 0.0
C211 C 0.54401 0.08669 0.19411 0.0
C212 C 0.56116 0.04259 0.16814 0.0
N213 N 0.55164 0.08195 0.12652 0.0
C214 C 0.54348 0.09795 0.15718 0.0
C215 C 0.56032 0.05456 0.13162 0.0
C216 C 0.55294 0.05881 0.19955 0.0
C217 C 0.51058 0.12215 0.95616 0.0
N218 N 0.50888 0.14427 0.98128 0.0
C219 C 0.48758 0.11514 0.93278 0.0
C220 C 0.46264 0.1309 0.93525 0.0
C221 C 0.46095 0.15331 0.96108 0.0
C222 C 0.48435 0.15964 0.98406 0.0
C223 C 0.53509 0.23364 0.9625 0.0
C224 C 0.53614 0.21198 0.03605 0.0
C225 C 0.5343 0.20445 0.96907 0.0
N226 N 0.53537 0.19393 0.00549 0.0
C227 C 0.53698 0.2413 0.03058 0.0
C228 C 0.53681 0.25213 0.99351 0.0
C229 C 0.5765 0.15687 0.08232 0.0
C230 C 0.62177 0.06064 0.02507 0.0
C231 C 0.60998 0.0914 0.09058 0.0
C232 C 0.63775 0.08241 0.08356 0.0
C233 C 0.64363 0.06696 0.05053 0.0
N234 N 0.58866 0.08521 0.0654 0.0
C235 C 0.59425 0.06997 0.03305 0.0
Co236 Co 0.09819 0.71558 0.24104 0.0
Co237 Co 0.15355 0.7049 0.18052 0.0
O238 O 0.13829 0.70818 0.23233 0.0
C239 C 0.10731 0.66657 0.29546 0.0
O240 O 0.11537 0.64939 0.26797 0.0
C241 C 0.19513 0.74074 0.22205 0.0
O242 O 0.17368 0.75662 0.23283 0.0
O243 O 0.14012 0.74391 0.16925 0.0
O244 O 0.09628 0.74135 0.19482 0.0
H245 H 0.15245 0.7163 0.03756 0.0
H246 H 0.14117 0.72692 0.30113 0.0
O247 O 0.09988 0.6919 0.28818 0.0
H248 H 0.08752 0.81608 0.28724 0.0
H249 H 0.01049 0.72076 0.32254 0.0
H250 H 0.04761 0.71816 0.19078 0.0
H251 H 0.07535 0.7742 0.24837 0.0
H252 H 0.06193 0.72414 0.31046 0.0
O253 O 0.19088 0.71962 0.20008 0.0
H254 H 0.13245 0.71864 0.10262 0.0
H255 H 0.20937 0.68651 0.14891 0.0
H256 H 0.99597 0.71522 0.20157 0.0
H257 H 0.15402 0.76817 0.34089 0.0
H258 H 0.97721 0.71545 0.26794 0.0
H259 H 0.12715 0.81319 0.33399 0.0
O260 O 0.08835 0.68199 0.20944 0.0
H261 H 0.19841 0.62922 0.26157 0.0
H262 H 0.14908 0.64934 0.14016 0.0
H263 H 0.1634 0.60029 0.15513 0.0
H264 H 0.18831 0.58999 0.21619 0.0
H265 H 0.18353 0.67793 0.24558 0.0
H266 H 0.23028 0.684 0.08433 0.0
H267 H 0.20172 0.69887 0.02808 0.0
O268 O 0.11668 0.68992 0.15941 0.0
C269 C 0.11482 0.75331 0.17326 0.0
C270 C 0.16508 0.70968 0.06183 0.0
C271 C 0.20878 0.69159 0.08809 0.0
N272 N 0.16964 0.70256 0.12953 0.0
C273 C 0.15384 0.71089 0.09875 0.0
C274 C 0.19684 0.69313 0.1246 0.0
C275 C 0.19273 0.69993 0.05654 0.0
C276 C 0.1294 0.74645 0.29796 0.0
N277 N 0.10773 0.74829 0.2721 0.0
C278 C 0.13677 0.76973 0.32055 0.0
C279 C 0.1217 0.79499 0.31665 0.0
C280 C 0.0995 0.79665 0.29039 0.0
C281 C 0.09279 0.77294 0.26825 0.0
C282 C 0.01847 0.72025 0.29352 0.0
C283 C 0.03956 0.71925 0.21967 0.0
C284 C 0.04758 0.72235 0.28646 0.0
N285 N 0.05785 0.72109 0.24993 0.0
C286 C 0.01031 0.7172 0.22562 0.0
C287 C 0.99979 0.71726 0.26286 0.0
C288 C 0.09457 0.6789 0.17432 0.0
C289 C 0.18766 0.63346 0.23482 0.0
C290 C 0.15987 0.64502 0.16681 0.0
C291 C 0.16796 0.61721 0.17511 0.0
C292 C 0.18195 0.61145 0.20936 0.0
N293 N 0.16564 0.66651 0.19186 0.0
C294 C 0.17927 0.66101 0.22555 0.0
Co295 Co 0.53993 0.84948 0.49011 0.0
Co296 Co 0.54895 0.90471 0.42818 0.0
O297 O 0.54686 0.88961 0.4804 0.0
C298 C 0.58092 0.86893 0.55233 0.0
O299 O 0.58188 0.89498 0.5393 0.0
C300 C 0.51269 0.94512 0.47056 0.0
O301 O 0.49762 0.92316 0.48156 0.0
O302 O 0.51004 0.89066 0.41793 0.0
O303 O 0.51258 0.84756 0.44539 0.0
H304 H 0.53605 0.90251 0.28545 0.0
H305 H 0.52847 0.89383 0.5495 0.0
O306 O 0.56631 0.84993 0.53536 0.0
H307 H 0.44079 0.83728 0.54112 0.0
H308 H 0.53423 0.76166 0.57149 0.0
H309 H 0.53617 0.79904 0.43985 0.0
H310 H 0.48196 0.82587 0.50055 0.0
H311 H 0.5328 0.81318 0.55975 0.0
O312 O 0.53358 0.94165 0.44789 0.0
H313 H 0.53505 0.8828 0.3507 0.0
H314 H 0.56535 0.96078 0.3957 0.0
H315 H 0.53753 0.74738 0.45033 0.0
H316 H 0.48804 0.90578 0.59086 0.0
H317 H 0.53738 0.72841 0.51657 0.0
H318 H 0.4437 0.87745 0.58689 0.0
O319 O 0.57262 0.83972 0.45697 0.0
H320 H 0.62472 0.95489 0.50358 0.0
H321 H 0.60424 0.89958 0.38716 0.0
H322 H 0.65318 0.91556 0.39972 0.0
H323 H 0.66369 0.94348 0.45827 0.0
H324 H 0.57613 0.93824 0.49011 0.0
H325 H 0.56651 0.9814 0.3309 0.0
H326 H 0.55186 0.95217 0.2752 0.0
O327 O 0.56423 0.86801 0.40704 0.0
C328 C 0.50066 0.86554 0.42297 0.0
C329 C 0.54255 0.91545 0.30947 0.0
C330 C 0.5596 0.95973 0.33499 0.0
N331 N 0.55023 0.92057 0.377 0.0
C332 C 0.54208 0.90438 0.34651 0.0
C333 C 0.55883 0.94796 0.37163 0.0
C334 C 0.55139 0.94332 0.30375 0.0
C335 C 0.50957 0.88106 0.54788 0.0
N336 N 0.50791 0.85884 0.52292 0.0
C337 C 0.48658 0.88809 0.57126 0.0
C338 C 0.46168 0.87224 0.56894 0.0
C339 C 0.46003 0.84973 0.54327 0.0
C340 C 0.48343 0.84338 0.5203 0.0
C341 C 0.53464 0.76969 0.5425 0.0
C342 C 0.53537 0.79096 0.46874 0.0
C343 C 0.53366 0.79885 0.53565 0.0
N344 N 0.53457 0.80917 0.49912 0.0
C345 C 0.53646 0.76167 0.4745 0.0
C346 C 0.53646 0.75104 0.51168 0.0
C347 C 0.57538 0.84596 0.42185 0.0
C348 C 0.62043 0.9427 0.478 0.0
C349 C 0.60866 0.91146 0.41291 0.0
C350 C 0.63641 0.92058 0.41976 0.0
C351 C 0.64228 0.93628 0.45258 0.0
N352 N 0.58735 0.91775 0.43806 0.0
C353 C 0.59293 0.93324 0.4702 0.0
Co354 Co 0.4047 0.28699 0.74276 0.0
Co355 Co 0.34961 0.29787 0.68186 0.0
O356 O 0.36467 0.29464 0.73375 0.0
C357 C 0.39518 0.33604 0.79676 0.0
O358 O 0.38707 0.35305 0.76911 0.0
C359 C 0.30787 0.2621 0.72302 0.0
O360 O 0.3293 0.24622 0.73389 0.0
O361 O 0.36292 0.2588 0.67083 0.0
O362 O 0.40668 0.26114 0.69664 0.0
H363 H 0.35129 0.28612 0.53898 0.0
H364 H 0.36147 0.27608 0.80267 0.0
O365 O 0.40292 0.31078 0.78972 0.0
H366 H 0.41429 0.18641 0.78906 0.0
H367 H 0.49188 0.2812 0.82517 0.0
H368 H 0.45555 0.2842 0.69301 0.0
H369 H 0.42694 0.22816 0.75021 0.0
H370 H 0.44049 0.27811 0.81252 0.0
O371 O 0.31218 0.28327 0.70117 0.0
H372 H 0.37099 0.28385 0.60422 0.0
H373 H 0.29399 0.31639 0.64973 0.0
H374 H 0.50713 0.28698 0.70438 0.0
H375 H 0.34814 0.23497 0.8424 0.0
H376 H 0.5255 0.28657 0.77096 0.0
H377 H 0.3746 0.18969 0.83565 0.0
O378 O 0.41492 0.32048 0.71114 0.0
H379 H 0.30455 0.37381 0.76224 0.0
H380 H 0.35446 0.35334 0.64138 0.0
H381 H 0.3402 0.40246 0.65606 0.0
H382 H 0.315 0.41293 0.71683 0.0
H383 H 0.31938 0.32504 0.74656 0.0
H384 H 0.27337 0.31883 0.58495 0.0
H385 H 0.30213 0.30372 0.52901 0.0
O386 O 0.3866 0.31268 0.66105 0.0
C387 C 0.38813 0.24923 0.67505 0.0
C388 C 0.33858 0.29285 0.56311 0.0
C389 C 0.29483 0.31117 0.58892 0.0
N390 N 0.33374 0.30017 0.63074 0.0
C391 C 0.34965 0.29169 0.60013 0.0
C392 C 0.3066 0.30968 0.62554 0.0
C393 C 0.31099 0.3027 0.55754 0.0
C394 C 0.37307 0.25645 0.79958 0.0
N395 N 0.39479 0.25439 0.77383 0.0
C396 C 0.36543 0.23325 0.82215 0.0
C397 C 0.38027 0.20784 0.81833 0.0
C398 C 0.4025 0.20597 0.79216 0.0
C399 C 0.40949 0.2296 0.77005 0.0
C400 C 0.48408 0.28181 0.79606 0.0
C401 C 0.46342 0.28305 0.72199 0.0
C402 C 0.455 0.27985 0.78868 0.0
N403 N 0.44495 0.28124 0.75204 0.0
C404 C 0.49265 0.28501 0.72827 0.0
C405 C 0.50295 0.28484 0.76562 0.0
C406 C 0.40876 0.32358 0.676 0.0
C407 C 0.31543 0.3695 0.73561 0.0
C408 C 0.34355 0.35774 0.66792 0.0
C409 C 0.33549 0.38559 0.67604 0.0
C410 C 0.32133 0.39145 0.71014 0.0
N411 N 0.33758 0.33632 0.69298 0.0
C412 C 0.32379 0.34191 0.72651 0.0
Co413 Co 0.96307 0.15375 0.98919 0.0
Co414 Co 0.95356 0.09822 0.92782 0.0
O415 O 0.95587 0.11361 0.97991 0.0
C416 C 0.92223 0.13497 0.05203 0.0
O417 O 0.92082 0.10893 0.03908 0.0
C418 C 0.9897 0.05769 0.97041 0.0
O419 O 0.00495 0.07956 0.98128 0.0
O420 O 0.99253 0.11202 0.91722 0.0
O421 O 0.99026 0.15525 0.94431 0.0
H422 H 0.96606 0.09955 0.78501 0.0
H423 H 0.97444 0.10962 0.04887 0.0
O424 O 0.93689 0.15376 0.03469 0.0
H425 H 0.06239 0.16569 0.0397 0.0
H426 H 0.96964 0.242 0.06961 0.0
H427 H 0.96695 0.20389 0.93838 0.0
H428 H 0.02119 0.17713 0.99921 0.0
H429 H 0.97069 0.19041 0.0584 0.0
O430 O 0.96878 0.06128 0.9478 0.0
H431 H 0.96734 0.11963 0.85005 0.0
H432 H 0.93676 0.04207 0.896 0.0
H433 H 0.96608 0.25563 0.94832 0.0
H434 H 0.01492 0.09764 0.09017 0.0
H435 H 0.96661 0.27495 0.01437 0.0
H436 H 0.05939 0.12573 0.08579 0.0
O437 O 0.93035 0.16351 0.95606 0.0
H438 H 0.87776 0.04897 0.00423 0.0
H439 H 0.89818 0.10337 0.88702 0.0
H440 H 0.84919 0.08775 0.90004 0.0
H441 H 0.83872 0.06029 0.95898 0.0
H442 H 0.9264 0.06526 0.99029 0.0
H443 H 0.93531 0.02109 0.83142 0.0
H444 H 0.94997 0.04992 0.77536 0.0
O445 O 0.93839 0.13489 0.90636 0.0
C446 C 0.00202 0.13712 0.92199 0.0
C447 C 0.95957 0.08679 0.8092 0.0
C448 C 0.94235 0.04275 0.83526 0.0
N449 N 0.95205 0.08209 0.87681 0.0
C450 C 0.96019 0.09807 0.84612 0.0
C451 C 0.94329 0.05472 0.87177 0.0
C452 C 0.95056 0.05894 0.80381 0.0
C453 C 0.99341 0.12228 0.04706 0.0
N454 N 0.99513 0.14438 0.02192 0.0
C455 C 0.01643 0.11523 0.07041 0.0
C456 C 0.0414 0.13095 0.06788 0.0
C457 C 0.0431 0.15334 0.04202 0.0
C458 C 0.01968 0.15971 0.01908 0.0
C459 C 0.96907 0.23381 0.04071 0.0
C460 C 0.96793 0.21213 0.96717 0.0
C461 C 0.96983 0.20461 0.03415 0.0
N462 N 0.96871 0.19408 0.99774 0.0
C463 C 0.96712 0.24145 0.97263 0.0
C464 C 0.96733 0.25229 0.0097 0.0
C465 C 0.92742 0.15708 0.92101 0.0
C466 C 0.88204 0.06096 0.97847 0.0
C467 C 0.89378 0.09169 0.91293 0.0
C468 C 0.866 0.08277 0.92005 0.0
C469 C 0.86014 0.06733 0.95309 0.0
N470 N 0.91513 0.08545 0.93804 0.0
C471 C 0.90956 0.07021 0.9704 0.0
Co472 Co 0.9057 0.71492 0.74114 0.0
Co473 Co 0.85021 0.70431 0.68081 0.0
O474 O 0.86558 0.70753 0.73256 0.0
C475 C 0.89649 0.666 0.79567 0.0
O476 O 0.88829 0.6488 0.76828 0.0
C477 C 0.80876 0.74029 0.72238 0.0
O478 O 0.83028 0.7561 0.7331 0.0
O479 O 0.86365 0.74331 0.66957 0.0
O480 O 0.90755 0.74069 0.69491 0.0
H481 H 0.85108 0.71594 0.53789 0.0
H482 H 0.86284 0.72627 0.80138 0.0
O483 O 0.90407 0.69126 0.78828 0.0
H484 H 0.91646 0.81544 0.78727 0.0
H485 H 0.99352 0.72016 0.82242 0.0
H486 H 0.95622 0.71747 0.69075 0.0
H487 H 0.92853 0.77356 0.74834 0.0
H488 H 0.94206 0.7235 0.81046 0.0
O489 O 0.81293 0.7191 0.70049 0.0
H490 H 0.87119 0.71813 0.6029 0.0
H491 H 0.79431 0.68603 0.64932 0.0
H492 H 0.00788 0.7146 0.70142 0.0
H493 H 0.85009 0.76752 0.8412 0.0
H494 H 0.02673 0.71488 0.76776 0.0
H495 H 0.87695 0.81254 0.8342 0.0
O496 O 0.91548 0.68133 0.70949 0.0
H497 H 0.80537 0.62864 0.76187 0.0
H498 H 0.85452 0.64878 0.64035 0.0
H499 H 0.84016 0.59974 0.6553 0.0
H500 H 0.81534 0.58943 0.71641 0.0
H501 H 0.82029 0.67734 0.74591 0.0
H502 H 0.77328 0.68367 0.58479 0.0
H503 H 0.80176 0.69861 0.5285 0.0
O504 O 0.88703 0.68927 0.65957 0.0
C505 C 0.88895 0.7527 0.67349 0.0
C506 C 0.83848 0.70929 0.56217 0.0
C507 C 0.7948 0.69122 0.5885 0.0
N508 N 0.83402 0.70204 0.62986 0.0
C509 C 0.84979 0.71041 0.59907 0.0
C510 C 0.8068 0.69266 0.62498 0.0
C511 C 0.8108 0.69959 0.55693 0.0
C512 C 0.87461 0.7458 0.79816 0.0
N513 N 0.89622 0.74764 0.77222 0.0
C514 C 0.8673 0.76908 0.82079 0.0
C515 C 0.88236 0.79434 0.81683 0.0
C516 C 0.90449 0.796 0.79047 0.0
C517 C 0.91114 0.77229 0.7683 0.0
C518 C 0.9855 0.71963 0.79342 0.0
C519 C 0.9643 0.71858 0.71962 0.0
C520 C 0.95638 0.72171 0.78643 0.0
N521 N 0.94606 0.72042 0.74992 0.0
C522 C 0.99357 0.71657 0.72551 0.0
C523 C 0.00414 0.71666 0.76272 0.0
C524 C 0.90917 0.67823 0.67439 0.0
C525 C 0.81608 0.63288 0.73509 0.0
C526 C 0.84377 0.64446 0.66703 0.0
C527 C 0.83565 0.61665 0.67531 0.0
C528 C 0.82171 0.61089 0.70959 0.0
N529 N 0.83807 0.66593 0.69213 0.0
C530 C 0.82449 0.66043 0.72584 0.0
Co531 Co 0.04174 0.15269 0.48896 0.0
Co532 Co 0.05041 0.09713 0.42758 0.0
O533 O 0.04847 0.11248 0.4797 0.0
C534 C 0.08257 0.13346 0.55154 0.0
O535 O 0.0833 0.10726 0.53907 0.0
C536 C 0.01434 0.05685 0.47051 0.0
O537 O 0.9993 0.07882 0.48148 0.0
O538 O 0.01144 0.11107 0.41758 0.0
O539 O 0.01419 0.15439 0.44438 0.0
H540 H 0.03676 0.09858 0.28496 0.0
H541 H 0.03002 0.10863 0.54869 0.0
O542 O 0.06823 0.15241 0.53407 0.0
H543 H 0.943 0.16621 0.54069 0.0
H544 H 0.03858 0.24121 0.56905 0.0
H545 H 0.03766 0.20272 0.43799 0.0
H546 H 0.9841 0.17695 0.49967 0.0
H547 H 0.03563 0.18966 0.55817 0.0
O548 O 0.03518 0.06027 0.44773 0.0
H549 H 0.03605 0.11862 0.35003 0.0
H550 H 0.06679 0.04095 0.39546 0.0
H551 H 0.04016 0.25443 0.44761 0.0
H552 H 0.98965 0.09731 0.59048 0.0
H553 H 0.04157 0.27392 0.51354 0.0
H554 H 0.94564 0.12617 0.5867 0.0
O555 O 0.0744 0.16205 0.45561 0.0
H556 H 0.1266 0.04764 0.50299 0.0
H557 H 0.10549 0.10208 0.38602 0.0
H558 H 0.15453 0.08628 0.3984 0.0
H559 H 0.16535 0.05881 0.45721 0.0
H560 H 0.07792 0.06408 0.48967 0.0
H561 H 0.06767 0.02001 0.33084 0.0
H562 H 0.05265 0.04891 0.27502 0.0
O563 O 0.06553 0.13376 0.4059 0.0
C564 C 0.00208 0.13621 0.42243 0.0
C565 C 0.04342 0.08578 0.30903 0.0
C566 C 0.06072 0.04168 0.3348 0.0
N567 N 0.05147 0.08103 0.37653 0.0
C568 C 0.04312 0.09704 0.34597 0.0
C569 C 0.06011 0.05364 0.37134 0.0
C570 C 0.05231 0.05791 0.30349 0.0
C571 C 0.01128 0.12162 0.54715 0.0
N572 N 0.00977 0.14378 0.52207 0.0
C573 C 0.98831 0.11495 0.57077 0.0
C574 C 0.9636 0.1311 0.56857 0.0
C575 C 0.9621 0.15354 0.54277 0.0
C576 C 0.98546 0.15951 0.51955 0.0
C577 C 0.03834 0.23293 0.54019 0.0
C578 C 0.0374 0.21106 0.46676 0.0
C579 C 0.03649 0.20376 0.53382 0.0
N580 N 0.0367 0.19311 0.49744 0.0
C581 C 0.03916 0.24036 0.47202 0.0
C582 C 0.04004 0.25128 0.50903 0.0
C583 C 0.07688 0.15578 0.42048 0.0
C584 C 0.12217 0.05963 0.47728 0.0
C585 C 0.11005 0.09038 0.41188 0.0
C586 C 0.13785 0.08137 0.41863 0.0
C587 C 0.1439 0.06592 0.45161 0.0
N588 N 0.08887 0.08422 0.43727 0.0
C589 C 0.09462 0.06898 0.46957 0.0
Co590 Co 0.60045 0.2904 0.2395 0.0
Co591 Co 0.6563 0.29835 0.17826 0.0
O592 O 0.64075 0.29725 0.23035 0.0
C593 C 0.61904 0.33215 0.3013 0.0
O594 O 0.64534 0.33302 0.28908 0.0
C595 C 0.69699 0.26325 0.22229 0.0
O596 O 0.67513 0.24819 0.23372 0.0
O597 O 0.6426 0.25919 0.16949 0.0
O598 O 0.59907 0.26226 0.19573 0.0
H599 H 0.65537 0.28209 0.03615 0.0
H600 H 0.64443 0.27992 0.29986 0.0
O601 O 0.6003 0.31747 0.2839 0.0
H602 H 0.58748 0.19249 0.29374 0.0
H603 H 0.51157 0.28732 0.31914 0.0
H604 H 0.55053 0.28564 0.18831 0.0
H605 H 0.57658 0.23283 0.25154 0.0
H606 H 0.56325 0.2847 0.30858 0.0
O607 O 0.69332 0.28374 0.19907 0.0
H608 H 0.63513 0.28239 0.10114 0.0
H609 H 0.71254 0.31456 0.14588 0.0
H610 H 0.49868 0.28791 0.19761 0.0
H611 H 0.65589 0.24033 0.34282 0.0
H612 H 0.47896 0.28967 0.26342 0.0
H613 H 0.62735 0.19612 0.33999 0.0
O614 O 0.59105 0.32242 0.20512 0.0
H615 H 0.70494 0.37602 0.25173 0.0
H616 H 0.65131 0.35257 0.13483 0.0
H617 H 0.66676 0.40182 0.14581 0.0
H618 H 0.69383 0.41382 0.20459 0.0
H619 H 0.68884 0.32709 0.23979 0.0
H620 H 0.73368 0.31444 0.08136 0.0
H621 H 0.705 0.29819 0.02591 0.0
O622 O 0.6196 0.31293 0.15582 0.0
C623 C 0.61744 0.24981 0.17445 0.0
C624 C 0.66806 0.28928 0.06006 0.0
C625 C 0.71202 0.3074 0.08544 0.0
N626 N 0.67258 0.2986 0.12728 0.0
C627 C 0.65669 0.28956 0.09694 0.0
C628 C 0.69996 0.30735 0.12193 0.0
C629 C 0.69592 0.29829 0.05434 0.0
C630 C 0.63156 0.26109 0.29873 0.0
N631 N 0.60948 0.25904 0.27354 0.0
C632 C 0.63832 0.23856 0.32301 0.0
C633 C 0.62235 0.21374 0.32135 0.0
C634 C 0.60001 0.21168 0.29541 0.0
C635 C 0.59394 0.23462 0.27153 0.0
C636 C 0.51995 0.28691 0.29033 0.0
C637 C 0.54209 0.28556 0.21704 0.0
C638 C 0.5492 0.28524 0.28415 0.0
N639 N 0.55997 0.28522 0.24782 0.0
C640 C 0.51271 0.28719 0.22212 0.0
C641 C 0.50165 0.28825 0.25905 0.0
C642 C 0.59748 0.32447 0.16998 0.0
C643 C 0.69313 0.37107 0.22603 0.0
C644 C 0.66284 0.35764 0.16067 0.0
C645 C 0.67165 0.38556 0.16663 0.0
C646 C 0.68687 0.39227 0.19959 0.0
N647 N 0.66898 0.33698 0.18681 0.0
C648 C 0.68398 0.34339 0.21909 0.0
Co649 Co 0.46436 0.84977 0.99039 0.0
Co650 Co 0.455 0.90514 0.92875 0.0
O651 O 0.4573 0.88992 0.98091 0.0
C652 C 0.4235 0.86892 0.05298 0.0
O653 O 0.42246 0.89501 0.04016 0.0
C654 C 0.49122 0.94571 0.97108 0.0
O655 O 0.50641 0.92383 0.98204 0.0
O656 O 0.49394 0.89122 0.91823 0.0
O657 O 0.49159 0.84805 0.94552 0.0
H658 H 0.46738 0.90325 0.78593 0.0
H659 H 0.47589 0.89403 0.04988 0.0
O660 O 0.4381 0.85001 0.03579 0.0
H661 H 0.56366 0.83767 0.04088 0.0
H662 H 0.47038 0.76176 0.07134 0.0
H663 H 0.4681 0.79947 0.93988 0.0
H664 H 0.5224 0.82625 1.00048 0.0
H665 H 0.47177 0.81331 0.05982 0.0
O666 O 0.47029 0.94212 0.9485 0.0
H667 H 0.46874 0.88344 0.85112 0.0
H668 H 0.43826 0.9612 0.89656 0.0
H669 H 0.4668 0.74778 0.95012 0.0
H670 H 0.51642 0.90599 0.09108 0.0
H671 H 0.46711 0.72865 0.01629 0.0
H672 H 0.56081 0.87776 0.08678 0.0
O673 O 0.43159 0.84 0.95737 0.0
H674 H 0.3793 0.9548 0.00487 0.0
H675 H 0.39959 0.89992 0.88802 0.0
H676 H 0.35063 0.91566 0.90097 0.0
H677 H 0.34022 0.94336 0.95974 0.0
H678 H 0.42791 0.93839 0.991 0.0
H679 H 0.43673 0.98191 0.83183 0.0
H680 H 0.45128 0.95284 0.77594 0.0
O681 O 0.43977 0.86844 0.90754 0.0
C682 C 0.5034 0.86612 0.92312 0.0
C683 C 0.46092 0.91611 0.81004 0.0
C684 C 0.44376 0.96027 0.83581 0.0
N685 N 0.4535 0.92109 0.87763 0.0
C686 C 0.4616 0.90499 0.84704 0.0
C687 C 0.44475 0.94845 0.87241 0.0
C688 C 0.45192 0.94395 0.80446 0.0
C689 C 0.49481 0.8813 0.04812 0.0
N690 N 0.49645 0.85913 0.02309 0.0
C691 C 0.51786 0.88834 0.07141 0.0
C692 C 0.54278 0.87255 0.06892 0.0
C693 C 0.5444 0.85008 0.04316 0.0
C694 C 0.52095 0.84373 0.02029 0.0
C695 C 0.4699 0.76987 0.04239 0.0
C696 C 0.46898 0.79131 0.96872 0.0
C697 C 0.47086 0.79904 0.03566 0.0
N698 N 0.46984 0.80945 0.99918 0.0
C699 C 0.46793 0.76202 0.97435 0.0
C700 C 0.46802 0.7513 0.01149 0.0
C701 C 0.42871 0.84632 0.92229 0.0
C702 C 0.38355 0.94271 0.97919 0.0
C703 C 0.39521 0.91171 0.91386 0.0
C704 C 0.36745 0.92069 0.92093 0.0
C705 C 0.36163 0.93627 0.95388 0.0
N706 N 0.41659 0.91802 0.9389 0.0
C707 C 0.41106 0.93338 0.97116 0.0
Co708 Co 0.90357 0.29035 0.76342 0.0
Co709 Co 0.84775 0.29853 0.82466 0.0
O710 O 0.86329 0.29727 0.77256 0.0
C711 C 0.88505 0.33209 0.70158 0.0
O712 O 0.85875 0.33301 0.71382 0.0
C713 C 0.80702 0.26334 0.78081 0.0
O714 O 0.82886 0.24825 0.76943 0.0
O715 O 0.86141 0.25938 0.83364 0.0
O716 O 0.90492 0.26228 0.80726 0.0
H717 H 0.84868 0.28273 0.96686 0.0
H718 H 0.85957 0.27987 0.7031 0.0
O719 O 0.90376 0.31736 0.71895 0.0
H720 H 0.91633 0.19232 0.70945 0.0
H721 H 0.99242 0.287 0.68372 0.0
H722 H 0.9535 0.28557 0.81459 0.0
H723 H 0.92734 0.23271 0.75151 0.0
H724 H 0.94074 0.28448 0.69432 0.0
O725 O 0.81071 0.28389 0.80394 0.0
H726 H 0.86891 0.28278 0.90187 0.0
H727 H 0.79153 0.3149 0.85694 0.0
H728 H 0.00535 0.28774 0.80525 0.0
H729 H 0.848 0.24023 0.66027 0.0
H730 H 0.02506 0.28937 0.73942 0.0
H731 H 0.87645 0.19596 0.66321 0.0
O732 O 0.91305 0.3224 0.79767 0.0
H733 H 0.79915 0.37603 0.75079 0.0
H734 H 0.85283 0.35288 0.86776 0.0
H735 H 0.83744 0.40212 0.8565 0.0
H736 H 0.81035 0.41396 0.79768 0.0
H737 H 0.81519 0.32712 0.763 0.0
H738 H 0.7704 0.31503 0.92148 0.0
H739 H 0.79907 0.29894 0.97702 0.0
O740 O 0.88447 0.31314 0.84701 0.0
C741 C 0.88655 0.24993 0.82866 0.0
C742 C 0.83599 0.28985 0.94291 0.0
C743 C 0.79205 0.30794 0.91743 0.0
N744 N 0.83147 0.29895 0.87563 0.0
C745 C 0.84735 0.28999 0.90602 0.0
C746 C 0.80411 0.30775 0.88094 0.0
C747 C 0.80815 0.29892 0.94858 0.0
C748 C 0.87239 0.26101 0.70428 0.0
N749 N 0.89448 0.25896 0.72947 0.0
C750 C 0.86558 0.23846 0.68007 0.0
C751 C 0.88149 0.2136 0.6818 0.0
C752 C 0.90384 0.21154 0.70773 0.0
C753 C 0.90997 0.2345 0.73153 0.0
C754 C 0.98405 0.28664 0.71255 0.0
C755 C 0.96193 0.28543 0.78585 0.0
C756 C 0.9548 0.28503 0.71875 0.0
N757 N 0.94404 0.28508 0.75508 0.0
C758 C 0.99131 0.287 0.78075 0.0
C759 C 0.00236 0.288 0.74381 0.0
C760 C 0.90662 0.32457 0.8328 0.0
C761 C 0.81097 0.37115 0.7765 0.0
C762 C 0.84129 0.35789 0.84191 0.0
C763 C 0.83251 0.3858 0.83579 0.0
C764 C 0.81728 0.39242 0.80281 0.0
N765 N 0.83511 0.33715 0.8159 0.0
C766 C 0.82009 0.34347 0.7836 0.0
Co767 Co 0.46251 0.1526 0.51401 0.0
Co768 Co 0.45355 0.09712 0.57548 0.0
O769 O 0.45566 0.11241 0.52333 0.0
C770 C 0.42175 0.13342 0.45129 0.0
O771 O 0.42095 0.10721 0.46373 0.0
C772 C 0.48967 0.05675 0.53278 0.0
O773 O 0.50478 0.07869 0.52187 0.0
O774 O 0.49251 0.11103 0.5857 0.0
O775 O 0.48994 0.15429 0.55871 0.0
H776 H 0.46665 0.09872 0.71819 0.0
H777 H 0.47425 0.10843 0.45443 0.0
O778 O 0.43612 0.15233 0.46879 0.0
H779 H 0.56143 0.16574 0.46276 0.0
H780 H 0.46609 0.24097 0.43367 0.0
H781 H 0.46653 0.20269 0.56486 0.0
H782 H 0.52023 0.17668 0.50351 0.0
H783 H 0.46893 0.18944 0.44474 0.0
O784 O 0.46878 0.06021 0.55548 0.0
H785 H 0.46767 0.11867 0.65307 0.0
H786 H 0.43698 0.041 0.6076 0.0
H787 H 0.46414 0.25439 0.55507 0.0
H788 H 0.51472 0.09691 0.41291 0.0
H789 H 0.46296 0.27378 0.48906 0.0
H790 H 0.55881 0.12563 0.41685 0.0
O791 O 0.42979 0.16207 0.54719 0.0
H792 H 0.37754 0.04769 0.49966 0.0
H793 H 0.39833 0.10218 0.61668 0.0
H794 H 0.34931 0.08647 0.60401 0.0
H795 H 0.33865 0.05897 0.54516 0.0
H796 H 0.42621 0.06405 0.51326 0.0
H797 H 0.43579 0.02014 0.67226 0.0
H798 H 0.45063 0.04909 0.72813 0.0
O799 O 0.43841 0.13378 0.59698 0.0
C800 C 0.50194 0.13614 0.58082 0.0
C801 C 0.46007 0.0859 0.69409 0.0
C802 C 0.44279 0.04179 0.6683 0.0
N803 N 0.45229 0.08107 0.62655 0.0
C804 C 0.46055 0.09711 0.65713 0.0
C805 C 0.44358 0.0537 0.63174 0.0
C806 C 0.45111 0.05805 0.69964 0.0
C807 C 0.49303 0.12136 0.45604 0.0
N808 N 0.49453 0.14356 0.48106 0.0
C809 C 0.51605 0.11458 0.43257 0.0
C810 C 0.54081 0.13065 0.43486 0.0
C811 C 0.5423 0.15313 0.46061 0.0
C812 C 0.51888 0.15922 0.48367 0.0
C813 C 0.46623 0.23274 0.46257 0.0
C814 C 0.4669 0.21098 0.53607 0.0
C815 C 0.46801 0.20357 0.46904 0.0
N816 N 0.46766 0.19299 0.50544 0.0
C817 C 0.46519 0.24028 0.5307 0.0
C818 C 0.46445 0.25114 0.49366 0.0
C819 C 0.42716 0.15582 0.5823 0.0
C820 C 0.3819 0.05969 0.52537 0.0
C821 C 0.39384 0.09047 0.59081 0.0
C822 C 0.36605 0.08151 0.58389 0.0
C823 C 0.36009 0.06604 0.5509 0.0
N824 N 0.41511 0.08425 0.56556 0.0
C825 C 0.40944 0.069 0.53325 0.0
Co826 Co 0.598 0.71486 0.26138 0.0
Co827 Co 0.65345 0.70438 0.32181 0.0
O828 O 0.63812 0.70748 0.27001 0.0
C829 C 0.60721 0.66589 0.20689 0.0
O830 O 0.61533 0.64867 0.23429 0.0
C831 C 0.69491 0.74028 0.28014 0.0
O832 O 0.67339 0.75606 0.26933 0.0
O833 O 0.63998 0.74339 0.33285 0.0
O834 O 0.59608 0.74066 0.30757 0.0
H835 H 0.65242 0.71642 0.46465 0.0
H836 H 0.64084 0.72616 0.2011 0.0
O837 O 0.59968 0.69117 0.21427 0.0
H838 H 0.58732 0.81537 0.21523 0.0
H839 H 0.51029 0.72007 0.17991 0.0
H840 H 0.54743 0.71735 0.31167 0.0
H841 H 0.57524 0.77352 0.2542 0.0
H842 H 0.56173 0.72344 0.19199 0.0
O843 O 0.69074 0.71915 0.30213 0.0
H844 H 0.63236 0.71838 0.39959 0.0
H845 H 0.70933 0.68624 0.3535 0.0
H846 H 0.49578 0.71442 0.30087 0.0
H847 H 0.6536 0.76738 0.16125 0.0
H848 H 0.47701 0.71472 0.2345 0.0
H849 H 0.62679 0.81243 0.16825 0.0
O850 O 0.58822 0.68128 0.29307 0.0
H851 H 0.69843 0.62854 0.24117 0.0
H852 H 0.64916 0.64896 0.36253 0.0
H853 H 0.6636 0.5999 0.34786 0.0
H854 H 0.68848 0.58945 0.28683 0.0
H855 H 0.68343 0.67727 0.25687 0.0
H856 H 0.7303 0.6841 0.41808 0.0
H857 H 0.70175 0.69918 0.47423 0.0
O858 O 0.61661 0.68935 0.34302 0.0
C859 C 0.61467 0.75274 0.32893 0.0
C860 C 0.66505 0.7097 0.44043 0.0
C861 C 0.70877 0.69161 0.41429 0.0
N862 N 0.66958 0.70225 0.37279 0.0
C863 C 0.65378 0.7107 0.40351 0.0
C864 C 0.69681 0.69292 0.37778 0.0
C865 C 0.69273 0.70006 0.44578 0.0
C866 C 0.62909 0.74569 0.20431 0.0
N867 N 0.60749 0.74756 0.23027 0.0
C868 C 0.63641 0.76896 0.18167 0.0
C869 C 0.62137 0.79424 0.18563 0.0
C870 C 0.59926 0.79592 0.21202 0.0
C871 C 0.5926 0.77223 0.2342 0.0
C872 C 0.51827 0.71954 0.20893 0.0
C873 C 0.53938 0.71846 0.28278 0.0
C874 C 0.54738 0.72163 0.21599 0.0
N875 N 0.55765 0.72034 0.25252 0.0
C876 C 0.51012 0.71642 0.27682 0.0
C877 C 0.49959 0.71652 0.23958 0.0
C878 C 0.59451 0.67823 0.32819 0.0
C879 C 0.68769 0.63284 0.26791 0.0
C880 C 0.65994 0.64457 0.33588 0.0
C881 C 0.6681 0.61676 0.32776 0.0
C882 C 0.68207 0.61091 0.29352 0.0
N883 N 0.66563 0.66598 0.31068 0.0
C884 C 0.67923 0.66041 0.27701 0.0
Co885 Co 0.03922 0.84993 0.01205 0.0
Co886 Co 0.04875 0.90508 0.07401 0.0
O887 O 0.04636 0.89002 0.02179 0.0
C888 C 0.08006 0.86922 0.94953 0.0
O889 O 0.08109 0.8953 0.96242 0.0
C890 C 0.01245 0.94576 0.03203 0.0
O891 O 0.99723 0.92391 0.02106 0.0
O892 O 0.00982 0.89114 0.0846 0.0
O893 O 0.01203 0.84808 0.05695 0.0
H894 H 0.03667 0.90271 0.21686 0.0
H895 H 0.02772 0.89443 0.95288 0.0
O896 O 0.06545 0.85029 0.96664 0.0
H897 H 0.93982 0.83826 0.96173 0.0
H898 H 0.03287 0.76228 0.93046 0.0
H899 H 0.0355 0.79942 0.0622 0.0
H900 H 0.98112 0.82657 0.00191 0.0
H901 H 0.03161 0.81378 0.94238 0.0
O902 O 0.03343 0.94212 0.05452 0.0
H903 H 0.03514 0.88313 0.15156 0.0
H904 H 0.06556 0.96103 0.10648 0.0
H905 H 0.03671 0.74777 0.05155 0.0
H906 H 0.98715 0.90667 0.9119 0.0
H907 H 0.03623 0.72893 0.98524 0.0
H908 H 0.9427 0.87853 0.91612 0.0
O909 O 0.072 0.83996 0.04497 0.0
H910 H 0.12431 0.95497 0.99792 0.0
H911 H 0.10424 0.89972 0.11452 0.0
H912 H 0.15318 0.91549 0.10148 0.0
H913 H 0.16348 0.94338 0.04285 0.0
H914 H 0.07573 0.93853 0.01186 0.0
H915 H 0.06725 0.98152 0.17133 0.0
H916 H 0.05281 0.95227 0.22709 0.0
O917 O 0.06401 0.86831 0.09495 0.0
C918 C 1.0003 0.86607 0.07954 0.0
C919 C 0.04307 0.91566 0.19281 0.0
C920 C 0.06019 0.9599 0.16724 0.0
N921 N 0.05035 0.92087 0.12522 0.0
C922 C 0.0423 0.90466 0.15574 0.0
C923 C 0.05912 0.9482 0.13057 0.0
C924 C 0.0521 0.94347 0.19852 0.0
C925 C 0.00877 0.88175 0.9546 0.0
N926 N 0.00712 0.85947 0.97947 0.0
C927 C 0.9857 0.88894 0.93144 0.0
C928 C 0.96074 0.8732 0.93389 0.0
C929 C 0.95911 0.85063 0.95947 0.0
C930 C 0.98258 0.84412 0.98223 0.0
C931 C 0.03343 0.77026 0.95947 0.0
C932 C 0.03455 0.79139 0.0333 0.0
C933 C 0.03254 0.7994 0.96643 0.0
N934 N 0.03365 0.80966 0.00298 0.0
C935 C 0.03555 0.76211 0.02743 0.0
C936 C 0.03536 0.75155 0.99022 0.0
C937 C 0.07499 0.84621 0.08005 0.0
C938 C 0.1201 0.9428 0.02354 0.0
C939 C 0.10857 0.91159 0.08873 0.0
C940 C 0.13631 0.92059 0.08161 0.0
C941 C 0.14207 0.93627 0.04874 0.0
N942 N 0.08714 0.91798 0.0638 0.0
C943 C 0.09261 0.93345 0.03162 0.0
Co944 Co 0.59851 0.78793 0.76118 0.0
Co945 Co 0.65384 0.79851 0.8218 0.0
O946 O 0.6386 0.79539 0.76996 0.0
C947 C 0.60764 0.83695 0.70676 0.0
O948 O 0.61559 0.8542 0.73421 0.0
C949 C 0.69537 0.76259 0.78032 0.0
O950 O 0.67386 0.74679 0.76955 0.0
O951 O 0.64038 0.7595 0.83286 0.0
O952 O 0.59655 0.76215 0.80735 0.0
H953 H 0.65258 0.78663 0.96466 0.0
H954 H 0.64152 0.77672 0.70109 0.0
O955 O 0.60023 0.81163 0.71409 0.0
H956 H 0.58813 0.6874 0.71497 0.0
H957 H 0.51098 0.78247 0.67936 0.0
H958 H 0.54782 0.78538 0.81126 0.0
H959 H 0.57585 0.72924 0.75386 0.0
H960 H 0.5624 0.77923 0.69166 0.0
O961 O 0.69117 0.78377 0.80222 0.0
H962 H 0.63264 0.78457 0.89955 0.0
H963 H 0.70966 0.81673 0.85362 0.0
H964 H 0.49619 0.78822 0.80025 0.0
H965 H 0.65447 0.73552 0.66131 0.0
H966 H 0.47757 0.78782 0.7338 0.0
H967 H 0.62773 0.69042 0.6682 0.0
O968 O 0.5886 0.82148 0.79286 0.0
H969 H 0.69885 0.87436 0.74121 0.0
H970 H 0.6494 0.85395 0.86243 0.0
H971 H 0.66379 0.90303 0.84774 0.0
H972 H 0.68877 0.91347 0.78678 0.0
H973 H 0.6839 0.82563 0.75692 0.0
H974 H 0.73052 0.81895 0.91826 0.0
H975 H 0.70188 0.80391 0.97435 0.0
O976 O 0.61695 0.8135 0.84288 0.0
C977 C 0.61509 0.75013 0.82884 0.0
C978 C 0.66525 0.79332 0.94046 0.0
C979 C 0.709 0.81142 0.91441 0.0
N980 N 0.66989 0.8007 0.87282 0.0
C981 C 0.65404 0.79228 0.90351 0.0
C982 C 0.6971 0.81005 0.87787 0.0
C983 C 0.69292 0.80299 0.94587 0.0
C984 C 0.62979 0.75716 0.70425 0.0
N985 N 0.60813 0.75525 0.73011 0.0
C986 C 0.63722 0.7339 0.68165 0.0
C987 C 0.62223 0.7086 0.68555 0.0
C988 C 0.60005 0.70688 0.71182 0.0
C989 C 0.59327 0.73056 0.73396 0.0
C990 C 0.5189 0.78305 0.70841 0.0
C991 C 0.53984 0.78424 0.78234 0.0
C992 C 0.548 0.78103 0.71559 0.0
N993 N 0.55819 0.78238 0.75217 0.0
C994 C 0.51059 0.78622 0.77626 0.0
C995 C 0.50015 0.78607 0.73898 0.0
C996 C 0.59481 0.82452 0.82801 0.0
C997 C 0.68807 0.87007 0.76792 0.0
C998 C 0.66022 0.85834 0.83581 0.0
C999 C 0.66835 0.88616 0.82768 0.0
C1000 C 0.68237 0.89201 0.79348 0.0
N1001 N 0.66599 0.83692 0.81066 0.0
C1002 C 0.67964 0.8425 0.77703 0.0
Co1003 Co 0.46451 0.34932 0.01128 0.0
Co1004 Co 0.45614 0.40431 0.07369 0.0
O1005 O 0.45738 0.38937 0.02137 0.0
C1006 C 0.42229 0.36859 0.95052 0.0
O1007 O 0.42136 0.3946 0.96364 0.0
C1008 C 0.49133 0.44514 0.03047 0.0
O1009 O 0.50634 0.42335 0.01876 0.0
O1010 O 0.49534 0.39055 0.08243 0.0
O1011 O 0.49263 0.34745 0.0551 0.0
H1012 H 0.47195 0.40173 0.21586 0.0
H1013 H 0.4745 0.39379 0.95155 0.0
O1014 O 0.43737 0.34967 0.9669 0.0
H1015 H 0.56299 0.33834 0.95757 0.0
H1016 H 0.47013 0.26192 0.92907 0.0
H1017 H 0.46907 0.29869 0.06105 0.0
H1018 H 0.5226 0.32646 0.99929 0.0
H1019 H 0.47117 0.3134 0.94123 0.0
O1020 O 0.47086 0.44142 0.05373 0.0
H1021 H 0.47191 0.3823 0.15043 0.0
H1022 H 0.43981 0.46009 0.10715 0.0
H1023 H 0.46788 0.24706 0.05016 0.0
H1024 H 0.51414 0.40621 0.90905 0.0
H1025 H 0.46765 0.2284 0.98375 0.0
H1026 H 0.55888 0.37843 0.91184 0.0
O1027 O 0.43246 0.33921 0.04536 0.0
H1028 H 0.37863 0.4541 1.00111 0.0
H1029 H 0.40167 0.39871 0.11659 0.0
H1030 H 0.35239 0.41436 0.10574 0.0
H1031 H 0.3406 0.44231 0.04768 0.0
H1032 H 0.42757 0.43779 0.01287 0.0
H1033 H 0.43966 0.48043 0.17213 0.0
H1034 H 0.45574 0.45115 0.22706 0.0
O1035 O 0.44147 0.36748 0.09513 0.0
C1036 C 0.50489 0.36555 0.07696 0.0
C1037 C 0.46483 0.41468 0.19218 0.0
C1038 C 0.44675 0.45886 0.16763 0.0
N1039 N 0.45573 0.41998 0.125 0.0
C1040 C 0.46469 0.40377 0.15505 0.0
C1041 C 0.44694 0.44725 0.13088 0.0
C1042 C 0.45576 0.44241 0.19843 0.0
C1043 C 0.49357 0.38125 0.95264 0.0
N1044 N 0.49589 0.35906 0.97756 0.0
C1045 C 0.51612 0.38855 0.92863 0.0
C1046 C 0.54124 0.37301 0.93027 0.0
C1047 C 0.54357 0.35054 0.95592 0.0
C1048 C 0.5206 0.34392 0.97954 0.0
C1049 C 0.46991 0.26982 0.95814 0.0
C1050 C 0.46964 0.29074 0.03209 0.0
C1051 C 0.47069 0.29895 0.96522 0.0
N1052 N 0.47005 0.30909 0.00185 0.0
C1053 C 0.46867 0.26148 0.02609 0.0
C1054 C 0.46847 0.25102 0.98882 0.0
C1055 C 0.43011 0.34545 0.08054 0.0
C1056 C 0.38348 0.4419 0.02649 0.0
C1057 C 0.39668 0.41061 0.09104 0.0
C1058 C 0.36875 0.41954 0.08516 0.0
C1059 C 0.36215 0.43526 0.05261 0.0
N1060 N 0.41747 0.41711 0.0652 0.0
C1061 C 0.41118 0.43262 0.03333 0.0
Co1062 Co 0.9063 0.21458 0.2631 0.0
Co1063 Co 0.85064 0.20333 0.323 0.0
O1064 O 0.86613 0.20735 0.27137 0.0
C1065 C 0.89672 0.1665 0.20731 0.0
O1066 O 0.88808 0.14916 0.23428 0.0
C1067 C 0.80963 0.24019 0.2822 0.0
O1068 O 0.83133 0.25596 0.27205 0.0
O1069 O 0.8643 0.24201 0.33562 0.0
O1070 O 0.90815 0.23966 0.31003 0.0
H1071 H 0.8512 0.21226 0.46629 0.0
H1072 H 0.86358 0.22712 0.20312 0.0
O1073 O 0.90462 0.19157 0.21531 0.0
H1074 H 0.91808 0.31556 0.21934 0.0
H1075 H 0.99448 0.21966 0.18254 0.0
H1076 H 0.95663 0.21663 0.31389 0.0
H1077 H 0.92974 0.27306 0.25727 0.0
H1078 H 0.94301 0.22335 0.19412 0.0
O1079 O 0.81352 0.21868 0.30361 0.0
H1080 H 0.87154 0.21548 0.4015 0.0
H1081 H 0.79453 0.1849 0.35358 0.0
H1082 H 0.00832 0.21368 0.30361 0.0
H1083 H 0.85123 0.26901 0.1643 0.0
H1084 H 0.02745 0.2141 0.23744 0.0
H1085 H 0.87853 0.31367 0.17237 0.0
O1086 O 0.9158 0.18049 0.29385 0.0
H1087 H 0.80546 0.12935 0.23944 0.0
H1088 H 0.85463 0.14709 0.36164 0.0
H1089 H 0.84001 0.0984 0.34512 0.0
H1090 H 0.81518 0.0893 0.28366 0.0
H1091 H 0.82064 0.17767 0.25697 0.0
H1092 H 0.77328 0.18153 0.41789 0.0
H1093 H 0.8017 0.19518 0.47482 0.0
O1094 O 0.88735 0.1878 0.34392 0.0
C1095 C 0.88967 0.25127 0.33205 0.0
C1096 C 0.83861 0.20617 0.44172 0.0
C1097 C 0.79487 0.18896 0.41455 0.0
N1098 N 0.83431 0.20023 0.37378 0.0
C1099 C 0.85005 0.20788 0.40494 0.0
C1100 C 0.807 0.19099 0.3782 0.0
C1101 C 0.81084 0.19662 0.44648 0.0
C1102 C 0.87553 0.24649 0.20682 0.0
N1103 N 0.89714 0.24779 0.23282 0.0
C1104 C 0.86844 0.27014 0.18475 0.0
C1105 C 0.88376 0.29519 0.18931 0.0
C1106 C 0.9059 0.29629 0.2157 0.0
C1107 C 0.91232 0.27223 0.23731 0.0
C1108 C 0.98635 0.21907 0.21147 0.0
C1109 C 0.96483 0.21787 0.28509 0.0
C1110 C 0.95721 0.22132 0.21825 0.0
N1111 N 0.94672 0.21993 0.25467 0.0
C1112 C 0.99412 0.2158 0.27943 0.0
C1113 C 0.00485 0.21595 0.2423 0.0
C1114 C 0.90953 0.17701 0.32889 0.0
C1115 C 0.81618 0.13306 0.26636 0.0
C1116 C 0.84388 0.14329 0.33481 0.0
C1117 C 0.83561 0.11568 0.32564 0.0
C1118 C 0.82167 0.11059 0.29116 0.0
N1119 N 0.83832 0.16522 0.3104 0.0
C1120 C 0.82473 0.16039 0.2765 0.0
Co1121 Co 0.03961 0.65286 0.51221 0.0
Co1122 Co 0.04911 0.59767 0.57403 0.0
O1123 O 0.04682 0.61275 0.52179 0.0
C1124 C 0.08057 0.63384 0.44968 0.0
O1125 O 0.08171 0.60775 0.4625 0.0
C1126 C 0.01343 0.55653 0.53172 0.0
O1127 O 0.998 0.57815 0.52045 0.0
O1128 O 0.01002 0.61132 0.58425 0.0
O1129 O 0.01234 0.65451 0.55703 0.0
H1130 H 0.03617 0.59978 0.71675 0.0
H1131 H 0.02826 0.60849 0.45284 0.0
O1132 O 0.0659 0.65269 0.46686 0.0
H1133 H 0.94036 0.66468 0.46141 0.0
H1134 H 0.03339 0.74083 0.43119 0.0
H1135 H 0.03562 0.70317 0.56267 0.0
H1136 H 0.98152 0.67623 0.50193 0.0
H1137 H 0.03215 0.68928 0.44273 0.0
O1138 O 0.03423 0.56049 0.5544 0.0
H1139 H 0.03492 0.61944 0.65148 0.0
H1140 H 0.06621 0.54183 0.60659 0.0
H1141 H 0.03678 0.75486 0.5524 0.0
H1142 H 0.98783 0.59639 0.41152 0.0
H1143 H 0.0365 0.77397 0.48622 0.0
H1144 H 0.94338 0.62455 0.4156 0.0
O1145 O 0.07233 0.66277 0.54525 0.0
H1146 H 0.12545 0.54855 0.49845 0.0
H1147 H 0.10434 0.60334 0.61511 0.0
H1148 H 0.15347 0.58797 0.60248 0.0
H1149 H 0.16429 0.56032 0.54382 0.0
H1150 H 0.07667 0.56458 0.51201 0.0
H1151 H 0.06763 0.52126 0.6714 0.0
H1152 H 0.0526 0.55033 0.72706 0.0
O1153 O 0.06399 0.63452 0.59519 0.0
C1154 C 1.00049 0.6364 0.57933 0.0
C1155 C 0.04282 0.58691 0.69275 0.0
C1156 C 0.06044 0.54284 0.66728 0.0
N1157 N 0.05057 0.58185 0.62523 0.0
C1158 C 0.04222 0.59795 0.6557 0.0
C1159 C 0.05952 0.55458 0.63063 0.0
C1160 C 0.05202 0.55916 0.6985 0.0
C1161 C 0.00931 0.62117 0.45451 0.0
N1162 N 0.00758 0.64337 0.47949 0.0
C1163 C 0.98632 0.61406 0.43116 0.0
C1164 C 0.96136 0.62982 0.43352 0.0
C1165 C 0.95965 0.65231 0.45922 0.0
C1166 C 0.98304 0.65873 0.48217 0.0
C1167 C 0.03386 0.73273 0.46014 0.0
C1168 C 0.03476 0.71132 0.53382 0.0
C1169 C 0.03299 0.70356 0.46688 0.0
N1170 N 0.03399 0.69316 0.50337 0.0
C1171 C 0.03573 0.74061 0.52817 0.0
C1172 C 0.03565 0.75132 0.49103 0.0
C1173 C 0.07511 0.65658 0.58037 0.0
C1174 C 0.12102 0.56062 0.52409 0.0
C1175 C 0.10889 0.59157 0.58932 0.0
C1176 C 0.13675 0.58279 0.58242 0.0
C1177 C 0.1428 0.56725 0.54953 0.0
N1178 N 0.08765 0.58507 0.56415 0.0
C1179 C 0.09342 0.56974 0.53194 0.0
Co1180 Co 0.5977 0.21464 0.74043 0.0
Co1181 Co 0.65327 0.20333 0.68038 0.0
O1182 O 0.63784 0.20731 0.73204 0.0
C1183 C 0.60725 0.16647 0.79608 0.0
O1184 O 0.6158 0.14915 0.76903 0.0
C1185 C 0.69433 0.24017 0.72113 0.0
O1186 O 0.67264 0.25594 0.73131 0.0
O1187 O 0.63962 0.24203 0.66783 0.0
O1188 O 0.5958 0.23974 0.69352 0.0
H1189 H 0.65253 0.21237 0.53712 0.0
H1190 H 0.64047 0.22698 0.80042 0.0
O1191 O 0.5994 0.19158 0.78818 0.0
H1192 H 0.58643 0.31568 0.78412 0.0
H1193 H 0.50976 0.22014 0.8214 0.0
H1194 H 0.54724 0.21667 0.68987 0.0
H1195 H 0.57456 0.27324 0.7462 0.0
H1196 H 0.56121 0.22365 0.80953 0.0
O1197 O 0.69042 0.21866 0.69972 0.0
H1198 H 0.63228 0.21554 0.60196 0.0
H1199 H 0.70934 0.18491 0.64965 0.0
H1200 H 0.49557 0.21382 0.70043 0.0
H1201 H 0.65303 0.26882 0.83922 0.0
H1202 H 0.47663 0.21447 0.7667 0.0
H1203 H 0.62595 0.31361 0.83112 0.0
O1204 O 0.58805 0.18059 0.70964 0.0
H1205 H 0.69854 0.12928 0.76374 0.0
H1206 H 0.64921 0.14712 0.64169 0.0
H1207 H 0.66384 0.09841 0.6581 0.0
H1208 H 0.68876 0.08926 0.71949 0.0
H1209 H 0.68334 0.17761 0.74631 0.0
H1210 H 0.73051 0.18159 0.58529 0.0
H1211 H 0.70201 0.1953 0.52845 0.0
O1212 O 0.61653 0.18782 0.65955 0.0
C1213 C 0.61427 0.25132 0.67145 0.0
C1214 C 0.66514 0.20626 0.56164 0.0
C1215 C 0.70892 0.18902 0.58869 0.0
N1216 N 0.66954 0.20026 0.62957 0.0
C1217 C 0.65376 0.20794 0.59845 0.0
C1218 C 0.69684 0.19102 0.62507 0.0
C1219 C 0.69291 0.19671 0.55681 0.0
C1220 C 0.62862 0.24641 0.79671 0.0
N1221 N 0.60701 0.24781 0.77071 0.0
C1222 C 0.63582 0.27002 0.81877 0.0
C1223 C 0.62063 0.29515 0.81419 0.0
C1224 C 0.5985 0.29635 0.78778 0.0
C1225 C 0.59196 0.27232 0.76619 0.0
C1226 C 0.51782 0.21945 0.79242 0.0
C1227 C 0.53912 0.21799 0.7187 0.0
C1228 C 0.54694 0.22161 0.78549 0.0
N1229 N 0.55731 0.22009 0.74902 0.0
C1230 C 0.50984 0.21598 0.72452 0.0
C1231 C 0.49922 0.21626 0.76171 0.0
C1232 C 0.59432 0.17708 0.67459 0.0
C1233 C 0.68779 0.13301 0.73685 0.0
C1234 C 0.65999 0.14329 0.66848 0.0
C1235 C 0.66827 0.11568 0.67759 0.0
C1236 C 0.68226 0.11056 0.71203 0.0
N1237 N 0.66559 0.16521 0.69291 0.0
C1238 C 0.67922 0.16035 0.72677 0.0
Co1239 Co 0.03968 0.3494 0.99137 0.0
Co1240 Co 0.04816 0.40431 0.92883 0.0
O1241 O 0.04686 0.38942 0.98119 0.0
C1242 C 0.08187 0.36868 0.05216 0.0
O1243 O 0.0828 0.3947 0.03906 0.0
C1244 C 0.01289 0.44516 0.97186 0.0
O1245 O 0.99788 0.42336 0.98352 0.0
O1246 O 0.00897 0.39055 0.92003 0.0
O1247 O 0.01157 0.3475 0.94753 0.0
H1248 H 0.03256 0.40157 0.78663 0.0
H1249 H 0.02968 0.39399 0.05093 0.0
O1250 O 0.0668 0.34977 0.03576 0.0
H1251 H 0.94116 0.33858 0.04504 0.0
H1252 H 0.034 0.2621 0.07376 0.0
H1253 H 0.03507 0.29871 0.9417 0.0
H1254 H 0.98157 0.32659 0.00342 0.0
H1255 H 0.03297 0.31357 0.06149 0.0
O1256 O 0.03343 0.44144 0.94869 0.0
H1257 H 0.03247 0.38222 0.8521 0.0
H1258 H 0.06457 0.46003 0.8953 0.0
H1259 H 0.03624 0.24709 0.95271 0.0
H1260 H 0.99003 0.40653 0.09333 0.0
H1261 H 0.03647 0.22852 0.01916 0.0
H1262 H 0.94527 0.37877 0.09061 0.0
O1263 O 0.07173 0.3392 0.95735 0.0
H1264 H 0.12561 0.45413 0.00151 0.0
H1265 H 0.10269 0.39863 0.88608 0.0
H1266 H 0.15196 0.41425 0.89702 0.0
H1267 H 0.16369 0.44227 0.95505 0.0
H1268 H 0.07667 0.43783 0.98965 0.0
H1269 H 0.06484 0.48029 0.83027 0.0
H1270 H 0.04883 0.45096 0.77537 0.0
O1271 O 0.06284 0.36744 0.90751 0.0
C1272 C 0.99936 0.36558 0.92559 0.0
C1273 C 0.03965 0.41454 0.8103 0.0
C1274 C 0.05773 0.45874 0.83481 0.0
N1275 N 0.04864 0.41992 0.8775 0.0
C1276 C 0.03972 0.40368 0.84745 0.0
C1277 C 0.05747 0.44717 0.87158 0.0
C1278 C 0.04876 0.44226 0.80401 0.0
C1279 C 0.0106 0.38146 0.04987 0.0
N1280 N 0.00829 0.35921 0.02504 0.0
C1281 C 0.98805 0.38882 0.07383 0.0
C1282 C 0.96292 0.3733 0.07222 0.0
C1283 C 0.96059 0.35078 0.04666 0.0
C1284 C 0.98357 0.34409 0.0231 0.0
C1285 C 0.03422 0.26996 0.04468 0.0
C1286 C 0.03449 0.29079 0.97069 0.0
C1287 C 0.03344 0.29909 0.03754 0.0
N1288 N 0.03409 0.30919 1.00088 0.0
C1289 C 0.03546 0.26154 0.97674 0.0
C1290 C 0.03566 0.25113 0.01404 0.0
C1291 C 0.07413 0.3454 0.92216 0.0
C1292 C 0.12078 0.4419 0.97614 0.0
C1293 C 0.10765 0.41055 0.91162 0.0
C1294 C 0.13558 0.41947 0.91755 0.0
C1295 C 0.14214 0.43522 0.95008 0.0
N1296 N 0.08682 0.41709 0.93739 0.0
C1297 C 0.09308 0.43263 0.96925 0.0
Co1298 Co 0.90513 0.78772 0.24147 0.0
Co1299 Co 0.84989 0.7983 0.1807 0.0
O1300 O 0.86506 0.79523 0.23257 0.0
C1301 C 0.89609 0.83684 0.29575 0.0
O1302 O 0.8883 0.85411 0.26822 0.0
C1303 C 0.80832 0.76244 0.22217 0.0
O1304 O 0.82981 0.74665 0.23301 0.0
O1305 O 0.86333 0.75926 0.16975 0.0
O1306 O 0.90714 0.76189 0.19535 0.0
H1307 H 0.85133 0.78621 0.03787 0.0
H1308 H 0.86205 0.77666 0.30152 0.0
O1309 O 0.90337 0.81147 0.28851 0.0
H1310 H 0.91521 0.68719 0.28781 0.0
H1311 H 0.99248 0.78215 0.3236 0.0
H1312 H 0.95591 0.78515 0.19156 0.0
H1313 H 0.92763 0.72897 0.24888 0.0
H1314 H 0.94108 0.77894 0.31111 0.0
O1315 O 0.81253 0.78359 0.20022 0.0
H1316 H 0.87119 0.78425 0.10303 0.0
H1317 H 0.79411 0.81647 0.1487 0.0
H1318 H 0.00752 0.788 0.20278 0.0
H1319 H 0.84896 0.73551 0.34133 0.0
H1320 H 0.026 0.78757 0.2693 0.0
H1321 H 0.87559 0.69033 0.33453 0.0
O1322 O 0.91513 0.82122 0.20974 0.0
H1323 H 0.80481 0.87427 0.261 0.0
H1324 H 0.85439 0.85368 0.13994 0.0
H1325 H 0.83999 0.90277 0.15446 0.0
H1326 H 0.81495 0.91331 0.21534 0.0
H1327 H 0.81977 0.82551 0.24545 0.0
H1328 H 0.77334 0.81861 0.084 0.0
H1329 H 0.80205 0.80349 0.02802 0.0
O1330 O 0.88682 0.81324 0.15967 0.0
C1331 C 0.88861 0.74987 0.17384 0.0
C1332 C 0.83864 0.79294 0.06202 0.0
C1333 C 0.79485 0.81108 0.08792 0.0
N1334 N 0.83391 0.80042 0.12963 0.0
C1335 C 0.8498 0.79195 0.099 0.0
C1336 C 0.80671 0.80977 0.12449 0.0
C1337 C 0.81097 0.80261 0.05652 0.0
C1338 C 0.87373 0.75707 0.2984 0.0
N1339 N 0.89541 0.75509 0.27258 0.0
C1340 C 0.86622 0.73384 0.32102 0.0
C1341 C 0.88115 0.7085 0.31717 0.0
C1342 C 0.90335 0.7067 0.29092 0.0
C1343 C 0.9102 0.73035 0.26877 0.0
C1344 C 0.98462 0.78275 0.29452 0.0
C1345 C 0.96384 0.78399 0.22051 0.0
C1346 C 0.95554 0.78074 0.28723 0.0
N1347 N 0.94542 0.78212 0.25062 0.0
C1348 C 0.99307 0.78599 0.2267 0.0
C1349 C 0.00343 0.78581 0.26403 0.0
C1350 C 0.90894 0.82425 0.17458 0.0
C1351 C 0.81561 0.86993 0.23432 0.0
C1352 C 0.84354 0.8581 0.16652 0.0
C1353 C 0.8354 0.88594 0.17455 0.0
C1354 C 0.82135 0.89183 0.20871 0.0
N1355 N 0.83774 0.83672 0.19171 0.0
C1356 C 0.82405 0.84235 0.22531 0.0
Co1357 Co 0.46423 0.65251 0.49045 0.0
Co1358 Co 0.45469 0.5974 0.42848 0.0
O1359 O 0.45698 0.61242 0.48076 0.0
C1360 C 0.42326 0.63347 0.55297 0.0
O1361 O 0.42213 0.60737 0.54018 0.0
C1362 C 0.49043 0.55624 0.47066 0.0
O1363 O 0.50585 0.57787 0.48194 0.0
O1364 O 0.49378 0.61108 0.41826 0.0
O1365 O 0.4915 0.65422 0.44565 0.0
H1366 H 0.46757 0.59973 0.28576 0.0
H1367 H 0.47552 0.60802 0.54969 0.0
O1368 O 0.43794 0.65231 0.53579 0.0
H1369 H 0.56352 0.66407 0.54124 0.0
H1370 H 0.47068 0.74031 0.57178 0.0
H1371 H 0.46823 0.70292 0.44016 0.0
H1372 H 0.52236 0.67578 0.50081 0.0
H1373 H 0.4718 0.68878 0.56005 0.0
O1374 O 0.4696 0.56021 0.44802 0.0
H1375 H 0.46883 0.61929 0.35108 0.0
H1376 H 0.43761 0.5416 0.39581 0.0
H1377 H 0.46716 0.75459 0.45063 0.0
H1378 H 0.51594 0.59577 0.59092 0.0
H1379 H 0.46756 0.77356 0.51687 0.0
H1380 H 0.56044 0.62385 0.58691 0.0
O1381 O 0.43153 0.66252 0.45743 0.0
H1382 H 0.3784 0.54817 0.50401 0.0
H1383 H 0.39945 0.60309 0.38744 0.0
H1384 H 0.35034 0.58766 0.40006 0.0
H1385 H 0.33955 0.55995 0.45868 0.0
H1386 H 0.42717 0.56425 0.49047 0.0
H1387 H 0.43618 0.52112 0.33094 0.0
H1388 H 0.45116 0.55028 0.27534 0.0
O1389 O 0.43978 0.63428 0.40743 0.0
C1390 C 0.50332 0.63616 0.42326 0.0
C1391 C 0.46093 0.58682 0.30974 0.0
C1392 C 0.44336 0.5427 0.33511 0.0
N1393 N 0.45322 0.58165 0.37725 0.0
C1394 C 0.46155 0.59781 0.34682 0.0
C1395 C 0.44429 0.55438 0.37179 0.0
C1396 C 0.45175 0.55907 0.30392 0.0
C1397 C 0.49449 0.62067 0.54805 0.0
N1398 N 0.49625 0.64292 0.52315 0.0
C1399 C 0.51748 0.61348 0.57135 0.0
C1400 C 0.54247 0.62918 0.56902 0.0
C1401 C 0.54421 0.65173 0.5434 0.0
C1402 C 0.52081 0.65824 0.52051 0.0
C1403 C 0.47016 0.73227 0.5428 0.0
C1404 C 0.46913 0.711 0.46904 0.0
C1405 C 0.47097 0.70311 0.53595 0.0
N1406 N 0.4699 0.69279 0.49942 0.0
C1407 C 0.46822 0.74029 0.4748 0.0
C1408 C 0.46836 0.75092 0.51198 0.0
C1409 C 0.4287 0.65634 0.4223 0.0
C1410 C 0.38282 0.56027 0.4784 0.0
C1411 C 0.39491 0.59128 0.41322 0.0
C1412 C 0.36706 0.58248 0.4201 0.0
C1413 C 0.36103 0.5669 0.45297 0.0
N1414 N 0.41616 0.58478 0.43837 0.0
C1415 C 0.41041 0.56941 0.47055 0.0
Co1416 Co 0.40643 0.21585 0.2429 0.0
Co1417 Co 0.35147 0.20468 0.18176 0.0
O1418 O 0.36647 0.20798 0.23368 0.0
C1419 C 0.39687 0.16685 0.2969 0.0
O1420 O 0.38868 0.14996 0.26916 0.0
C1421 C 0.30969 0.24057 0.22268 0.0
O1422 O 0.3311 0.25647 0.23356 0.0
O1423 O 0.36484 0.24371 0.17051 0.0
O1424 O 0.40847 0.24156 0.1967 0.0
H1425 H 0.35337 0.21601 0.03882 0.0
H1426 H 0.36309 0.22651 0.30273 0.0
O1427 O 0.4047 0.19211 0.28997 0.0
H1428 H 0.41495 0.3167 0.28861 0.0
H1429 H 0.49318 0.22438 0.32589 0.0
H1430 H 0.45753 0.21832 0.19358 0.0
H1431 H 0.42807 0.27498 0.25001 0.0
H1432 H 0.44177 0.2258 0.31277 0.0
O1433 O 0.31404 0.21937 0.20089 0.0
H1434 H 0.37301 0.21837 0.10409 0.0
H1435 H 0.29585 0.1862 0.14959 0.0
H1436 H 0.50912 0.21686 0.20544 0.0
H1437 H 0.34933 0.26759 0.34224 0.0
H1438 H 0.52717 0.21898 0.27212 0.0
H1439 H 0.3753 0.31313 0.33523 0.0
O1440 O 0.41692 0.1824 0.21134 0.0
H1441 H 0.30612 0.12901 0.26233 0.0
H1442 H 0.35631 0.1491 0.14156 0.0
H1443 H 0.34192 0.10004 0.15639 0.0
H1444 H 0.31658 0.08976 0.21712 0.0
H1445 H 0.32109 0.17771 0.24649 0.0
H1446 H 0.2753 0.18368 0.08479 0.0
H1447 H 0.30416 0.19857 0.02884 0.0
O1448 O 0.38848 0.18974 0.16116 0.0
C1449 C 0.39004 0.25328 0.17478 0.0
C1450 C 0.34061 0.20938 0.06296 0.0
C1451 C 0.29678 0.19127 0.08877 0.0
N1452 N 0.33567 0.20226 0.13061 0.0
C1453 C 0.35164 0.2106 0.09999 0.0
C1454 C 0.30851 0.19281 0.1254 0.0
C1455 C 0.31299 0.19962 0.05738 0.0
C1456 C 0.3745 0.24625 0.29954 0.0
N1457 N 0.3962 0.24846 0.27378 0.0
C1458 C 0.3666 0.26944 0.32198 0.0
C1459 C 0.38116 0.29499 0.31801 0.0
C1460 C 0.40337 0.29703 0.29182 0.0
C1461 C 0.41062 0.2734 0.26984 0.0
C1462 C 0.48553 0.22307 0.29676 0.0
C1463 C 0.46524 0.22004 0.22258 0.0
C1464 C 0.45644 0.22408 0.28911 0.0
N1465 N 0.4466 0.22194 0.25242 0.0
C1466 C 0.49448 0.21888 0.22915 0.0
C1467 C 0.5046 0.22001 0.26656 0.0
C1468 C 0.41068 0.17902 0.17624 0.0
C1469 C 0.31707 0.13323 0.23572 0.0
C1470 C 0.34534 0.14478 0.16808 0.0
C1471 C 0.3372 0.11697 0.17629 0.0
C1472 C 0.32297 0.11122 0.21036 0.0
N1473 N 0.33937 0.16627 0.19303 0.0
C1474 C 0.3255 0.16079 0.22654 0.0
Co1475 Co 0.53992 0.65327 0.98992 0.0
Co1476 Co 0.54926 0.59826 0.92773 0.0
O1477 O 0.54703 0.61319 0.98006 0.0
C1478 C 0.58083 0.63386 0.05231 0.0
O1479 O 0.58189 0.60782 0.03929 0.0
C1480 C 0.51324 0.55742 0.96976 0.0
O1481 O 0.49804 0.57919 0.98107 0.0
O1482 O 0.51027 0.61215 0.91753 0.0
O1483 O 0.51264 0.6552 0.94513 0.0
H1484 H 0.53639 0.6009 0.78501 0.0
H1485 H 0.52849 0.6087 0.04903 0.0
O1486 O 0.56622 0.65283 0.03527 0.0
H1487 H 0.44067 0.66504 0.0407 0.0
H1488 H 0.53386 0.74088 0.07167 0.0
H1489 H 0.53609 0.70382 0.93987 0.0
H1490 H 0.48187 0.67668 1.00032 0.0
H1491 H 0.53252 0.68938 0.05969 0.0
O1492 O 0.5341 0.56118 0.94712 0.0
H1493 H 0.53524 0.62036 0.85039 0.0
H1494 H 0.56604 0.54243 0.89489 0.0
H1495 H 0.53737 0.75546 0.95058 0.0
H1496 H 0.48803 0.59651 0.09022 0.0
H1497 H 0.53709 0.77426 0.01691 0.0
H1498 H 0.44361 0.62474 0.08626 0.0
O1499 O 0.57265 0.66324 0.95694 0.0
H1500 H 0.62522 0.54836 0.00308 0.0
H1501 H 0.60455 0.60377 0.8868 0.0
H1502 H 0.65357 0.58802 0.89939 0.0
H1503 H 0.66417 0.56006 0.95786 0.0
H1504 H 0.57656 0.56477 0.98958 0.0
H1505 H 0.56736 0.52205 0.82996 0.0
H1506 H 0.55253 0.55138 0.77445 0.0
O1507 O 0.56436 0.63508 0.90685 0.0
C1508 C 0.50078 0.63721 0.92266 0.0
C1509 C 0.54296 0.58792 0.80896 0.0
C1510 C 0.56031 0.54366 0.83419 0.0
N1511 N 0.55066 0.5826 0.87645 0.0
C1512 C 0.54241 0.59885 0.84607 0.0
C1513 C 0.55944 0.55529 0.87091 0.0
C1514 C 0.552 0.56013 0.80306 0.0
C1515 C 0.50956 0.62142 0.04743 0.0
N1516 N 0.50788 0.64372 0.02259 0.0
C1517 C 0.48654 0.61426 0.0707 0.0
C1518 C 0.46161 0.63005 0.0684 0.0
C1519 C 0.45994 0.65263 0.04284 0.0
C1520 C 0.48335 0.65911 0.01997 0.0
C1521 C 0.53434 0.73291 0.04265 0.0
C1522 C 0.53523 0.71183 0.96879 0.0
C1523 C 0.5334 0.70377 0.03566 0.0
N1524 N 0.5344 0.69354 0.99909 0.0
C1525 C 0.53627 0.7411 0.97468 0.0
C1526 C 0.53619 0.75164 0.01191 0.0
C1527 C 0.57547 0.6571 0.9218 0.0
C1528 C 0.62089 0.56057 0.97753 0.0
C1529 C 0.60901 0.59186 0.91252 0.0
C1530 C 0.6368 0.58287 0.91938 0.0
C1531 C 0.64273 0.56715 0.95217 0.0
N1532 N 0.58771 0.5854 0.93761 0.0
C1533 C 0.59335 0.5699 0.96971 0.0
Co1534 Co 0.09843 0.7873 0.74127 0.0
Co1535 Co 0.15356 0.79797 0.68036 0.0
O1536 O 0.13846 0.79487 0.73227 0.0
C1537 C 0.10719 0.83657 0.79542 0.0
O1538 O 0.11472 0.85386 0.76779 0.0
C1539 C 0.19524 0.76226 0.72184 0.0
O1540 O 0.17379 0.74641 0.73271 0.0
O1541 O 0.14016 0.75891 0.66941 0.0
O1542 O 0.09641 0.76144 0.69517 0.0
H1543 H 0.15197 0.786 0.53751 0.0
H1544 H 0.14157 0.77637 0.8013 0.0
O1545 O 0.1002 0.81109 0.7883 0.0
H1546 H 0.08866 0.68675 0.78764 0.0
H1547 H 0.01122 0.78163 0.82362 0.0
H1548 H 0.04758 0.78463 0.69149 0.0
H1549 H 0.07611 0.72849 0.74871 0.0
H1550 H 0.06261 0.77846 0.811 0.0
O1551 O 0.19096 0.78335 0.69982 0.0
H1552 H 0.13219 0.78394 0.60271 0.0
H1553 H 0.20927 0.81626 0.64828 0.0
H1554 H 0.99599 0.78744 0.70283 0.0
H1555 H 0.1548 0.73527 0.8411 0.0
H1556 H 0.97762 0.78701 0.7694 0.0
H1557 H 0.1283 0.69002 0.83433 0.0
O1558 O 0.08833 0.82076 0.70955 0.0
H1559 H 0.19857 0.87403 0.76062 0.0
H1560 H 0.14891 0.85335 0.63962 0.0
H1561 H 0.16323 0.90248 0.65413 0.0
H1562 H 0.18831 0.91306 0.71498 0.0
H1563 H 0.18369 0.82524 0.74508 0.0
H1564 H 0.22996 0.81849 0.58355 0.0
H1565 H 0.20121 0.80338 0.52759 0.0
O1566 O 0.11659 0.81285 0.65941 0.0
C1567 C 0.1149 0.74947 0.67356 0.0
C1568 C 0.16468 0.79273 0.56165 0.0
C1569 C 0.20847 0.81092 0.5875 0.0
N1570 N 0.16948 0.80014 0.62926 0.0
C1571 C 0.15357 0.79168 0.59865 0.0
C1572 C 0.19666 0.80955 0.62409 0.0
C1573 C 0.19232 0.80245 0.55611 0.0
C1574 C 0.12995 0.75675 0.7982 0.0
N1575 N 0.10826 0.7547 0.77239 0.0
C1576 C 0.13754 0.73355 0.82081 0.0
C1577 C 0.12268 0.70816 0.81697 0.0
C1578 C 0.10047 0.70629 0.79074 0.0
C1579 C 0.09354 0.72992 0.76859 0.0
C1580 C 0.01903 0.78223 0.79452 0.0
C1581 C 0.0397 0.78347 0.72046 0.0
C1582 C 0.04811 0.78024 0.78716 0.0
N1583 N 0.05816 0.78162 0.75052 0.0
C1584 C 0.01048 0.78544 0.72673 0.0
C1585 C 1.00017 0.78527 0.76407 0.0
C1586 C 0.09447 0.82382 0.67438 0.0
C1587 C 0.18774 0.86967 0.73395 0.0
C1588 C 0.15978 0.85779 0.66618 0.0
C1589 C 0.16787 0.88564 0.67422 0.0
C1590 C 0.18195 0.89156 0.70835 0.0
N1591 N 0.16564 0.83642 0.69137 0.0
C1592 C 0.17935 0.84207 0.72494 0.0
Co1593 Co 0.96758 0.34739 0.49276 0.0
Co1594 Co 0.95524 0.40226 0.43194 0.0
O1595 O 0.9596 0.38728 0.48372 0.0
C1596 C 0.91917 0.3572 0.54753 0.0
O1597 O 0.90227 0.36559 0.51989 0.0
C1598 C 0.99191 0.4438 0.47189 0.0
O1599 O 0.00796 0.42235 0.48215 0.0
O1600 O 0.99407 0.38884 0.41908 0.0
O1601 O 0.99264 0.3454 0.44581 0.0
H1602 H 0.96323 0.4004 0.28857 0.0
H1603 H 0.97915 0.39069 0.55225 0.0
O1604 O 0.94439 0.34916 0.54041 0.0
H1605 H 0.06922 0.33879 0.53585 0.0
H1606 H 0.97671 0.26072 0.57549 0.0
H1607 H 0.96971 0.29642 0.44332 0.0
H1608 H 0.02684 0.32567 0.49842 0.0
H1609 H 0.97819 0.31205 0.56242 0.0
O1610 O 0.97038 0.4396 0.45059 0.0
H1611 H 0.9671 0.38077 0.35368 0.0
H1612 H 0.93616 0.45785 0.40061 0.0
H1613 H 0.9683 0.24491 0.45512 0.0
H1614 H 0.02091 0.40446 0.59058 0.0
H1615 H 0.97083 0.22683 0.52173 0.0
H1616 H 0.06638 0.37848 0.58242 0.0
O1617 O 0.93361 0.33685 0.46221 0.0
H1618 H 0.88122 0.44763 0.51538 0.0
H1619 H 0.89872 0.39738 0.39398 0.0
H1620 H 0.84993 0.41173 0.41071 0.0
H1621 H 0.84095 0.43711 0.47177 0.0
H1622 H 0.92965 0.43268 0.49766 0.0
H1623 H 0.93214 0.4784 0.33597 0.0
H1624 H 0.94564 0.44957 0.27938 0.0
O1625 O 0.93991 0.36534 0.41191 0.0
C1626 C 0.00376 0.3637 0.4231 0.0
C1627 C 0.95721 0.41315 0.31299 0.0
C1628 C 0.9398 0.45694 0.3396 0.0
N1629 N 0.95172 0.41807 0.38092 0.0
C1630 C 0.95929 0.40212 0.34995 0.0
C1631 C 0.94219 0.44521 0.37614 0.0
C1632 C 0.94737 0.44075 0.30786 0.0
C1633 C 0.99887 0.37928 0.54855 0.0
N1634 N 1.00068 0.3576 0.52277 0.0
C1635 C 0.02244 0.38718 0.57033 0.0
C1636 C 0.04795 0.37261 0.56571 0.0
C1637 C 0.04957 0.35038 0.53954 0.0
C1638 C 0.02558 0.34314 0.51822 0.0
C1639 C 0.9752 0.26839 0.54638 0.0
C1640 C 0.97167 0.2887 0.47229 0.0
C1641 C 0.97623 0.29743 0.53876 0.0
N1642 N 0.97381 0.30729 0.50213 0.0
C1643 C 0.97052 0.25951 0.47882 0.0
C1644 C 0.97187 0.24937 0.5162 0.0
C1645 C 0.92962 0.34308 0.42725 0.0
C1646 C 0.88488 0.43667 0.48863 0.0
C1647 C 0.89498 0.40836 0.42063 0.0
C1648 C 0.86731 0.41648 0.42992 0.0
C1649 C 0.86229 0.43073 0.46417 0.0
N1650 N 0.91704 0.41436 0.44471 0.0
C1651 C 0.91227 0.42825 0.47838 0.0
Co1652 Co 0.40535 0.78707 0.26143 0.0
Co1653 Co 0.35016 0.79769 0.32225 0.0
O1654 O 0.3653 0.79459 0.27036 0.0
C1655 C 0.3965 0.83626 0.20716 0.0
O1656 O 0.38881 0.85354 0.23472 0.0
C1657 C 0.3085 0.76199 0.2807 0.0
O1658 O 0.32995 0.74613 0.26984 0.0
O1659 O 0.36357 0.75863 0.33322 0.0
O1660 O 0.40736 0.76125 0.30757 0.0
H1661 H 0.35165 0.78571 0.4651 0.0
H1662 H 0.36229 0.77602 0.20135 0.0
O1663 O 0.4036 0.81083 0.21436 0.0
H1664 H 0.41538 0.68652 0.21518 0.0
H1665 H 0.49269 0.78155 0.17931 0.0
H1666 H 0.45614 0.78447 0.31135 0.0
H1667 H 0.4278 0.72831 0.2541 0.0
H1668 H 0.44129 0.7783 0.19179 0.0
O1669 O 0.31278 0.78307 0.30275 0.0
H1670 H 0.37148 0.78366 0.39993 0.0
H1671 H 0.29443 0.81596 0.35426 0.0
H1672 H 0.50774 0.78733 0.30014 0.0
H1673 H 0.34918 0.73487 0.16157 0.0
H1674 H 0.52621 0.78694 0.23362 0.0
H1675 H 0.37578 0.68968 0.16842 0.0
O1676 O 0.41536 0.82057 0.29313 0.0
H1677 H 0.30518 0.87372 0.24192 0.0
H1678 H 0.35475 0.85307 0.363 0.0
H1679 H 0.34041 0.90219 0.34846 0.0
H1680 H 0.31538 0.91276 0.28758 0.0
H1681 H 0.32007 0.82494 0.25748 0.0
H1682 H 0.27368 0.81817 0.41896 0.0
H1683 H 0.3024 0.80306 0.47495 0.0
O1684 O 0.38711 0.81258 0.34325 0.0
C1685 C 0.38886 0.74924 0.32913 0.0
C1686 C 0.33895 0.79243 0.44095 0.0
C1687 C 0.29518 0.81061 0.41504 0.0
N1688 N 0.33421 0.79986 0.37333 0.0
C1689 C 0.3501 0.79139 0.40397 0.0
C1690 C 0.30702 0.80925 0.37847 0.0
C1691 C 0.31131 0.80214 0.44645 0.0
C1692 C 0.37395 0.75643 0.2045 0.0
N1693 N 0.39562 0.75444 0.23034 0.0
C1694 C 0.36643 0.7332 0.18189 0.0
C1695 C 0.38135 0.70784 0.18578 0.0
C1696 C 0.40353 0.70604 0.21204 0.0
C1697 C 0.41039 0.72969 0.23419 0.0
C1698 C 0.48484 0.78213 0.20839 0.0
C1699 C 0.46406 0.78332 0.28239 0.0
C1700 C 0.45575 0.7801 0.21568 0.0
N1701 N 0.44564 0.78146 0.25228 0.0
C1702 C 0.49329 0.78532 0.27621 0.0
C1703 C 0.50365 0.78517 0.23889 0.0
C1704 C 0.4092 0.82361 0.32829 0.0
C1705 C 0.31599 0.86937 0.2686 0.0
C1706 C 0.3439 0.85751 0.33642 0.0
C1707 C 0.3358 0.88536 0.32837 0.0
C1708 C 0.32175 0.89127 0.29421 0.0
N1709 N 0.33807 0.83613 0.31122 0.0
C1710 C 0.32439 0.84178 0.27763 0.0
Co1711 Co 0.96375 0.65329 0.01264 0.0
Co1712 Co 0.95459 0.59813 0.07461 0.0
O1713 O 0.95675 0.61317 0.02234 0.0
C1714 C 0.92285 0.63392 0.95023 0.0
O1715 O 0.92184 0.60786 0.96319 0.0
C1716 C 0.99065 0.55742 0.0324 0.0
O1717 O 0.0058 0.57923 0.0211 0.0
O1718 O 0.99355 0.61205 0.0848 0.0
O1719 O 0.99106 0.65517 0.0574 0.0
H1720 H 0.96762 0.60045 0.21731 0.0
H1721 H 0.97526 0.6089 0.95333 0.0
O1722 O 0.93743 0.65289 0.96732 0.0
H1723 H 0.0629 0.66551 0.9617 0.0
H1724 H 0.96943 0.74115 0.93133 0.0
H1725 H 0.96755 0.7037 0.06293 0.0
H1726 H 0.02172 0.67691 0.00224 0.0
H1727 H 0.97093 0.68963 0.94303 0.0
O1728 O 0.96979 0.56111 0.05506 0.0
H1729 H 0.96864 0.62007 0.15202 0.0
H1730 H 0.93793 0.54219 0.10726 0.0
H1731 H 0.96615 0.75537 0.05251 0.0
H1732 H 0.01571 0.59694 0.912 0.0
H1733 H 0.96626 0.77437 0.98628 0.0
H1734 H 0.06003 0.62531 0.91597 0.0
O1735 O 0.93102 0.66309 0.04569 0.0
H1736 H 0.87865 0.54823 0.99921 0.0
H1737 H 0.89932 0.60344 0.11565 0.0
H1738 H 0.85032 0.58762 0.10309 0.0
H1739 H 0.83972 0.55975 0.04454 0.0
H1740 H 0.92729 0.56471 0.01269 0.0
H1741 H 0.93674 0.52165 0.1721 0.0
H1742 H 0.95159 0.55088 0.2277 0.0
O1743 O 0.93944 0.63488 0.09567 0.0
C1744 C 0.00298 0.63715 0.07976 0.0
C1745 C 0.96103 0.58752 0.19333 0.0
C1746 C 0.94375 0.54328 0.16794 0.0
N1747 N 0.95326 0.58235 0.12583 0.0
C1748 C 0.96151 0.59854 0.15627 0.0
C1749 C 0.94454 0.55501 0.13128 0.0
C1750 C 0.95207 0.5597 0.19913 0.0
C1751 C 0.99415 0.62167 0.95495 0.0
N1752 N 0.99579 0.64391 0.97988 0.0
C1753 C 0.01716 0.61465 0.93159 0.0
C1754 C 0.04204 0.63052 0.9339 0.0
C1755 C 0.04367 0.65304 0.95955 0.0
C1756 C 0.02026 0.65938 0.98251 0.0
C1757 C 0.96904 0.7331 0.96031 0.0
C1758 C 0.96834 0.7118 0.03405 0.0
C1759 C 0.97006 0.70394 0.96714 0.0
N1760 N 0.96915 0.6936 0.00366 0.0
C1761 C 0.96723 0.74109 0.02832 0.0
C1762 C 0.96721 0.75173 0.99115 0.0
C1763 C 0.92826 0.65689 0.08082 0.0
C1764 C 0.88298 0.56039 0.02479 0.0
C1765 C 0.89485 0.59158 0.0899 0.0
C1766 C 0.86708 0.58255 0.08305 0.0
C1767 C 0.86115 0.56688 0.05022 0.0
N1768 N 0.91614 0.58522 0.06475 0.0
C1769 C 0.91051 0.56976 0.03261 0.0
Co1770 Co 0.09757 0.21556 0.76014 0.0
Co1771 Co 0.15254 0.20435 0.82125 0.0
O1772 O 0.13753 0.20766 0.76933 0.0
C1773 C 0.10723 0.1666 0.70608 0.0
O1774 O 0.11551 0.14972 0.73378 0.0
C1775 C 0.19429 0.24026 0.78033 0.0
O1776 O 0.17287 0.25616 0.76951 0.0
O1777 O 0.13919 0.24339 0.83251 0.0
O1778 O 0.09555 0.24128 0.80632 0.0
H1779 H 0.15069 0.21567 0.96419 0.0
H1780 H 0.14093 0.22619 0.70032 0.0
O1781 O 0.09927 0.19182 0.71307 0.0
H1782 H 0.08907 0.31639 0.71434 0.0
H1783 H 0.01079 0.22409 0.67719 0.0
H1784 H 0.04648 0.2181 0.80949 0.0
H1785 H 0.07593 0.27468 0.75295 0.0
H1786 H 0.0622 0.22549 0.69027 0.0
O1787 O 0.18997 0.21903 0.80209 0.0
H1788 H 0.13104 0.21806 0.89893 0.0
H1789 H 0.20816 0.18584 0.85338 0.0
H1790 H 0.99489 0.21666 0.79766 0.0
H1791 H 0.15472 0.26726 0.66081 0.0
H1792 H 0.97681 0.21874 0.73099 0.0
H1793 H 0.12875 0.3128 0.66776 0.0
O1794 O 0.08707 0.18211 0.7917 0.0
H1795 H 0.19785 0.12867 0.74067 0.0
H1796 H 0.14766 0.14877 0.86143 0.0
H1797 H 0.16202 0.09971 0.84659 0.0
H1798 H 0.18737 0.08942 0.78587 0.0
H1799 H 0.18291 0.17738 0.75651 0.0
H1800 H 0.22872 0.18327 0.91817 0.0
H1801 H 0.19989 0.19818 0.97414 0.0
O1802 O 0.11552 0.18944 0.84187 0.0
C1803 C 0.11401 0.25299 0.82822 0.0
C1804 C 0.16344 0.20904 0.94005 0.0
C1805 C 0.20725 0.19089 0.91421 0.0
N1806 N 0.16835 0.20192 0.87239 0.0
C1807 C 0.1524 0.21027 0.90302 0.0
C1808 C 0.19551 0.19245 0.87758 0.0
C1809 C 0.19106 0.19925 0.9456 0.0
C1810 C 0.12952 0.24593 0.70349 0.0
N1811 N 0.10781 0.24815 0.72924 0.0
C1812 C 0.13743 0.26912 0.68105 0.0
C1813 C 0.12287 0.29467 0.68499 0.0
C1814 C 0.10065 0.29672 0.71115 0.0
C1815 C 0.09339 0.2731 0.73314 0.0
C1816 C 0.01845 0.22279 0.70632 0.0
C1817 C 0.03876 0.2198 0.78048 0.0
C1818 C 0.04755 0.22379 0.71395 0.0
N1819 N 0.0574 0.22167 0.75063 0.0
C1820 C 0.00953 0.21865 0.77394 0.0
C1821 C 0.99939 0.21976 0.73653 0.0
C1822 C 0.0933 0.17875 0.82681 0.0
C1823 C 0.18691 0.1329 0.76728 0.0
C1824 C 0.15863 0.14445 0.83491 0.0
C1825 C 0.16675 0.11664 0.8267 0.0
C1826 C 0.18099 0.11088 0.79263 0.0
N1827 N 0.16461 0.16594 0.80997 0.0
C1828 C 0.17848 0.16045 0.77647 0.0
Co1829 Co 0.53659 0.34705 0.51024 0.0
Co1830 Co 0.54859 0.40209 0.57087 0.0
O1831 O 0.54444 0.38699 0.51911 0.0
C1832 C 0.58504 0.35692 0.45552 0.0
O1833 O 0.6019 0.36545 0.48313 0.0
C1834 C 0.51204 0.44352 0.53048 0.0
O1835 O 0.49606 0.42204 0.52014 0.0
O1836 O 0.50972 0.38867 0.58345 0.0
O1837 O 0.51142 0.34511 0.55711 0.0
H1838 H 0.53988 0.40054 0.71416 0.0
H1839 H 0.525 0.39012 0.45046 0.0
O1840 O 0.55987 0.34877 0.46266 0.0
H1841 H 0.43509 0.33796 0.4668 0.0
H1842 H 0.52803 0.26011 0.42794 0.0
H1843 H 0.53446 0.29622 0.55995 0.0
H1844 H 0.47741 0.32515 0.50454 0.0
H1845 H 0.5263 0.31147 0.44072 0.0
O1846 O 0.53349 0.43937 0.55196 0.0
H1847 H 0.5364 0.38074 0.6491 0.0
H1848 H 0.56745 0.45777 0.60215 0.0
H1849 H 0.53609 0.24468 0.54844 0.0
H1850 H 0.4833 0.40358 0.41181 0.0
H1851 H 0.53385 0.2264 0.48191 0.0
H1852 H 0.43791 0.37745 0.41994 0.0
O1853 O 0.57053 0.33671 0.54098 0.0
H1854 H 0.62293 0.44736 0.48786 0.0
H1855 H 0.60493 0.39738 0.60933 0.0
H1856 H 0.65378 0.41178 0.59296 0.0
H1857 H 0.66301 0.43702 0.53187 0.0
H1858 H 0.57445 0.43237 0.50522 0.0
H1859 H 0.57108 0.47849 0.66673 0.0
H1860 H 0.55732 0.44977 0.72331 0.0
O1861 O 0.56388 0.36522 0.59116 0.0
C1862 C 0.50013 0.36347 0.57957 0.0
C1863 C 0.54601 0.41324 0.68975 0.0
C1864 C 0.56348 0.457 0.66312 0.0
N1865 N 0.55186 0.41801 0.62185 0.0
C1866 C 0.54416 0.40212 0.65282 0.0
C1867 C 0.56132 0.44518 0.62661 0.0
C1868 C 0.55577 0.44087 0.69486 0.0
C1869 C 0.50532 0.37866 0.45414 0.0
N1870 N 0.50352 0.35706 0.48006 0.0
C1871 C 0.48178 0.38638 0.43219 0.0
C1872 C 0.45631 0.37173 0.43679 0.0
C1873 C 0.4547 0.3496 0.46311 0.0
C1874 C 0.47866 0.34254 0.4846 0.0
C1875 C 0.52941 0.26787 0.45701 0.0
C1876 C 0.53263 0.28841 0.53102 0.0
C1877 C 0.52824 0.29693 0.46447 0.0
N1878 N 0.53051 0.3069 0.50106 0.0
C1879 C 0.5339 0.2592 0.52465 0.0
C1880 C 0.53271 0.24895 0.48731 0.0
C1881 C 0.57434 0.34298 0.57596 0.0
C1882 C 0.61916 0.43646 0.51462 0.0
C1883 C 0.60879 0.4083 0.58266 0.0
C1884 C 0.63649 0.41645 0.57357 0.0
C1885 C 0.64165 0.43062 0.5393 0.0
N1886 N 0.58683 0.4142 0.55836 0.0
C1887 C 0.59174 0.42802 0.52467 0.0
C1888 C 0.07463 0.18459 0.36099 0.0
C1889 C 0.08894 0.17748 0.39486 0.0
H1890 H 0.07105 0.2134 0.31422 0.0
C1891 C 0.11268 0.19348 0.40596 0.0
H1892 H 0.05585 0.17298 0.35229 0.0
C1893 C 0.12199 0.2162 0.38346 0.0
C1894 C 0.1071 0.22399 0.35016 0.0
H1895 H 0.12382 0.18859 0.43225 0.0
H1896 H 0.14031 0.22821 0.39284 0.0
C1897 C 0.08331 0.20787 0.33925 0.0
C1898 C 0.04439 0.83318 0.59094 0.0
C1899 C 0.02771 0.85628 0.60278 0.0
H1900 H 0.07913 0.80547 0.60384 0.0
C1901 C 0.0343 0.86966 0.63768 0.0
H1902 H 0.03988 0.82224 0.56445 0.0
C1903 C 0.05632 0.85947 0.66083 0.0
C1904 C 0.07287 0.83638 0.64889 0.0
H1905 H 0.02192 0.88749 0.64774 0.0
H1906 H 0.06033 0.86953 0.68816 0.0
C1907 C 0.06699 0.82364 0.61344 0.0
C1908 C 0.39271 0.80872 0.90792 0.0
C1909 C 0.41646 0.82467 0.89675 0.0
H1910 H 0.36479 0.77425 0.89463 0.0
C1911 C 0.43053 0.8177 0.86266 0.0
H1912 H 0.38173 0.81353 0.93436 0.0
C1913 C 0.42161 0.7946 0.84074 0.0
C1914 C 0.39778 0.77856 0.85168 0.0
H1915 H 0.44931 0.82927 0.85387 0.0
H1916 H 0.43369 0.78918 0.81552 0.0
C1917 C 0.38312 0.7862 0.88522 0.0
C1918 C 0.4487 0.14322 0.16258 0.0
C1919 C 0.43225 0.16642 0.15077 0.0
H1920 H 0.48291 0.11502 0.14918 0.0
C1921 C 0.43807 0.17918 0.11533 0.0
H1922 H 0.4447 0.13314 0.18989 0.0
C1923 C 0.46054 0.16956 0.09268 0.0
C1924 C 0.47714 0.14636 0.10436 0.0
H1925 H 0.42599 0.19742 0.10582 0.0
H1926 H 0.46502 0.18053 0.06621 0.0
C1927 C 0.47059 0.13294 0.13926 0.0
C1928 C 0.0822 0.79445 0.16152 0.0
C1929 C 0.10596 0.77835 0.15048 0.0
H1930 H 0.05454 0.82917 0.14854 0.0
C1931 C 0.12053 0.78594 0.11684 0.0
H1932 H 0.07019 0.78907 0.18681 0.0
C1933 C 0.11092 0.80847 0.09417 0.0
C1934 C 0.08724 0.82448 0.10548 0.0
H1935 H 0.13882 0.77394 0.10735 0.0
H1936 H 0.12183 0.81325 0.06767 0.0
C1937 C 0.07326 0.81755 0.13964 0.0
C1938 C 0.44716 0.85943 0.34199 0.0
C1939 C 0.43077 0.8362 0.35381 0.0
H1940 H 0.48141 0.8876 0.3552 0.0
C1941 C 0.43677 0.82335 0.38915 0.0
H1942 H 0.44305 0.86957 0.31475 0.0
C1943 C 0.45934 0.83293 0.41167 0.0
C1944 C 0.47588 0.85617 0.39995 0.0
H1945 H 0.42474 0.80507 0.39865 0.0
H1946 H 0.46395 0.82191 0.43807 0.0
C1947 C 0.46915 0.86966 0.36516 0.0
C1948 C 0.42062 0.20794 0.66344 0.0
C1949 C 0.39682 0.22403 0.6525 0.0
H1950 H 0.44812 0.17308 0.65047 0.0
C1951 C 0.38197 0.21623 0.61918 0.0
H1952 H 0.43285 0.21348 0.68849 0.0
C1953 C 0.39133 0.19352 0.59669 0.0
C1954 C 0.41506 0.17754 0.60785 0.0
H1955 H 0.36365 0.22822 0.60977 0.0
H1956 H 0.38021 0.18861 0.57039 0.0
C1957 C 0.42933 0.18466 0.64173 0.0
C1958 C 0.06594 0.17901 0.88776 0.0
C1959 C 0.07169 0.16622 0.85232 0.0
H1960 H 0.03902 0.18047 0.9369 0.0
C1961 C 0.05515 0.14309 0.84053 0.0
H1962 H 0.07809 0.19721 0.89725 0.0
C1963 C 0.03323 0.1329 0.86387 0.0
C1964 C 0.02675 0.14634 0.89877 0.0
H1965 H 0.05909 0.13299 0.81321 0.0
H1966 H 0.02084 0.11503 0.85396 0.0
C1967 C 0.04345 0.16948 0.91043 0.0
C1968 C 0.89234 0.8082 0.59483 0.0
C1969 C 0.91611 0.82413 0.60596 0.0
H1970 H 0.86452 0.77363 0.60807 0.0
C1971 C 0.93036 0.81702 0.63986 0.0
H1972 H 0.88124 0.81312 0.56852 0.0
C1973 C 0.92157 0.79382 0.66165 0.0
C1974 C 0.89771 0.7778 0.65079 0.0
H1975 H 0.94916 0.82857 0.64859 0.0
H1976 H 0.93378 0.7883 0.68672 0.0
C1977 C 0.88289 0.78557 0.61742 0.0
C1978 C 0.96037 0.16842 0.41158 0.0
C1979 C 0.97703 0.14531 0.39973 0.0
H1980 H 0.92536 0.19586 0.39895 0.0
C1981 C 0.97009 0.13158 0.36519 0.0
H1982 H 0.96513 0.1796 0.4378 0.0
C1983 C 0.94776 0.14147 0.34235 0.0
C1984 C 0.93125 0.16457 0.35429 0.0
H1985 H 0.98244 0.11372 0.35515 0.0
H1986 H 0.94352 0.13119 0.31523 0.0
C1987 C 0.93745 0.17765 0.38941 0.0
C1988 C 0.61274 0.19424 0.09615 0.0
C1989 C 0.58914 0.17832 0.10787 0.0
H1990 H 0.64082 0.22867 0.10864 0.0
C1991 C 0.57568 0.18514 0.1425 0.0
H1992 H 0.62331 0.18949 0.06939 0.0
C1993 C 0.58497 0.20821 0.16428 0.0
C1994 C 0.60848 0.22439 0.15252 0.0
H1995 H 0.55709 0.1735 0.15182 0.0
H1996 H 0.57344 0.21356 0.19003 0.0
C1997 C 0.62265 0.21672 0.1186 0.0
C1998 C 0.54484 0.83368 0.91161 0.0
C1999 C 0.52817 0.85685 0.89996 0.0
H2000 H 0.57952 0.80597 0.89847 0.0
C2001 C 0.53474 0.87034 0.86512 0.0
H2002 H 0.54035 0.82265 0.93804 0.0
C2003 C 0.55672 0.8602 0.84186 0.0
C2004 C 0.57325 0.83704 0.85362 0.0
H2005 H 0.52237 0.88822 0.85521 0.0
H2006 H 0.56071 0.87034 0.81458 0.0
C2007 C 0.5674 0.82419 0.889 0.0
C2008 C 0.91889 0.20825 0.83886 0.0
C2009 C 0.89548 0.22455 0.85068 0.0
H2010 H 0.94667 0.17347 0.85133 0.0
C2011 C 0.8814 0.21703 0.88473 0.0
H2012 H 0.93035 0.21347 0.81302 0.0
C2013 C 0.8913 0.19458 0.90724 0.0
C2014 C 0.91479 0.17853 0.89545 0.0
H2015 H 0.86331 0.22909 0.89473 0.0
H2016 H 0.88079 0.18995 0.93408 0.0
C2017 C 0.92816 0.18521 0.86071 0.0
C2018 C 0.55599 0.1416 0.66122 0.0
C2019 C 0.57261 0.16461 0.6492 0.0
H2020 H 0.52128 0.11388 0.6484 0.0
C2021 C 0.56655 0.17755 0.61395 0.0
H2022 H 0.56013 0.13142 0.68843 0.0
C2023 C 0.54369 0.16828 0.59171 0.0
C2024 C 0.52693 0.14526 0.60361 0.0
H2025 H 0.57872 0.1957 0.60434 0.0
H2026 H 0.53904 0.17937 0.56538 0.0
C2027 C 0.53372 0.13167 0.63831 0.0
C2028 C 0.62084 0.7858 0.38477 0.0
C2029 C 0.60589 0.77787 0.35157 0.0
H2030 H 0.6226 0.81347 0.43352 0.0
C2031 C 0.58189 0.79374 0.34085 0.0
H2032 H 0.63932 0.77397 0.394 0.0
C2033 C 0.5731 0.81695 0.36262 0.0
C2034 C 0.58748 0.82422 0.39636 0.0
H2035 H 0.56958 0.78809 0.31592 0.0
H2036 H 0.55419 0.82839 0.35402 0.0
C2037 C 0.61139 0.80844 0.40733 0.0
C2038 C 0.93628 0.82411 0.11352 0.0
C2039 C 0.93051 0.83683 0.14901 0.0
H2040 H 0.96325 0.82274 0.06439 0.0
C2041 C 0.94711 0.8599 0.16091 0.0
H2042 H 0.9241 0.80596 0.10394 0.0
C2043 C 0.96907 0.8701 0.13766 0.0
C2044 C 0.97556 0.85674 0.1027 0.0
H2045 H 0.94318 0.86994 0.18827 0.0
H2046 H 0.9815 0.88791 0.14768 0.0
C2047 C 0.95882 0.83366 0.09091 0.0
C2048 C 0.57341 0.68602 0.8625 0.0
C2049 C 0.58762 0.67887 0.89642 0.0
H2050 H 0.57013 0.71471 0.8156 0.0
C2051 C 0.61146 0.6947 0.90754 0.0
H2052 H 0.55456 0.67454 0.85377 0.0
C2053 C 0.62102 0.71727 0.88493 0.0
C2054 C 0.60624 0.72507 0.85154 0.0
H2055 H 0.62254 0.68974 0.93385 0.0
H2056 H 0.63944 0.72913 0.89427 0.0
C2057 C 0.58231 0.70916 0.84068 0.0
C2058 C 0.56036 0.36077 0.15548 0.0
C2059 C 0.5762 0.33705 0.14405 0.0
H2060 H 0.52606 0.38892 0.1427 0.0
C2061 C 0.56939 0.32352 0.10946 0.0
H2062 H 0.56509 0.37142 0.18218 0.0
C2063 C 0.54638 0.33286 0.08747 0.0
C2064 C 0.53027 0.35647 0.09902 0.0
H2065 H 0.58097 0.30486 0.10035 0.0
H2066 H 0.54103 0.3213 0.06175 0.0
C2067 C 0.53795 0.37068 0.13288 0.0
C2068 C 0.92227 0.29216 0.3449 0.0
C2069 C 0.89868 0.27578 0.35575 0.0
H2070 H 0.94978 0.32681 0.35846 0.0
C2071 C 0.88443 0.2826 0.38996 0.0
H2072 H 0.93403 0.28737 0.31919 0.0
C2073 C 0.89414 0.30476 0.41325 0.0
C2074 C 0.91755 0.32116 0.40198 0.0
H2075 H 0.86628 0.27034 0.3993 0.0
H2076 H 0.88343 0.30907 0.44005 0.0
C2077 C 0.93127 0.31487 0.36738 0.0
C2078 C 0.93652 0.67841 0.61336 0.0
C2079 C 0.93065 0.66559 0.64874 0.0
H2080 H 0.96359 0.67988 0.56433 0.0
C2081 C 0.9471 0.64238 0.6605 0.0
H2082 H 0.92446 0.69667 0.60389 0.0
C2083 C 0.96905 0.63216 0.63723 0.0
C2084 C 0.97568 0.64565 0.60241 0.0
H2085 H 0.94309 0.63225 0.68778 0.0
H2086 H 0.98138 0.61425 0.64715 0.0
C2087 C 0.95906 0.66885 0.59075 0.0
C2088 C 0.60988 0.30479 0.59022 0.0
C2089 C 0.5864 0.32113 0.60135 0.0
H2090 H 0.63778 0.27044 0.60433 0.0
C2091 C 0.57261 0.31484 0.6359 0.0
H2092 H 0.62065 0.3091 0.56347 0.0
C2093 C 0.58161 0.29215 0.65846 0.0
C2094 C 0.60526 0.27582 0.64773 0.0
H2095 H 0.55404 0.32673 0.64472 0.0
H2096 H 0.56979 0.28734 0.68412 0.0
C2097 C 0.61958 0.28266 0.61358 0.0
C2098 C 0.96633 0.37066 0.86962 0.0
C2099 C 0.97396 0.35653 0.90357 0.0
H2100 H 0.9392 0.37135 0.82032 0.0
C2101 C 0.95775 0.33302 0.91526 0.0
H2102 H 0.9783 0.38881 0.8597 0.0
C2103 C 0.9347 0.32371 0.89333 0.0
C2104 C 0.92794 0.33716 0.85867 0.0
H2105 H 0.96306 0.32152 0.94104 0.0
H2106 H 0.92304 0.30512 0.90255 0.0
C2107 C 0.94388 0.36077 0.84709 0.0
C2108 C 0.89222 0.69441 0.09518 0.0
C2109 C 0.91608 0.6786 0.10628 0.0
H2110 H 0.86424 0.72883 0.10847 0.0
C2111 C 0.93029 0.68574 0.1402 0.0
H2112 H 0.88113 0.68946 0.06887 0.0
C2113 C 0.92139 0.70888 0.16203 0.0
C2114 C 0.89745 0.72479 0.15117 0.0
H2115 H 0.94915 0.67427 0.14891 0.0
H2116 H 0.93357 0.71444 0.18712 0.0
C2117 C 0.88266 0.71698 0.1178 0.0
C2118 C 0.56722 0.67828 0.38927 0.0
C2119 C 0.57307 0.66553 0.35383 0.0
H2120 H 0.54021 0.67961 0.43836 0.0
C2121 C 0.55662 0.64232 0.34202 0.0
H2122 H 0.57928 0.69653 0.39879 0.0
C2123 C 0.53471 0.63204 0.36529 0.0
C2124 C 0.52811 0.64545 0.40017 0.0
H2125 H 0.56062 0.63225 0.3147 0.0
H2126 H 0.52239 0.61414 0.35533 0.0
C2127 C 0.54472 0.66864 0.41189 0.0
C2128 C 0.43189 0.3171 0.14044 0.0
C2129 C 0.41787 0.32391 0.10625 0.0
H2130 H 0.43488 0.2889 0.18793 0.0
C2131 C 0.39404 0.30802 0.09525 0.0
H2132 H 0.45071 0.32866 0.14914 0.0
C2133 C 0.38434 0.28569 0.11818 0.0
C2134 C 0.39895 0.2782 0.15182 0.0
H2135 H 0.38307 0.31274 0.06876 0.0
H2136 H 0.36595 0.27376 0.10888 0.0
C2137 C 0.42284 0.29421 0.16262 0.0
C2138 C 0.45936 0.66972 0.91147 0.0
C2139 C 0.47596 0.64654 0.89968 0.0
H2140 H 0.4247 0.69752 0.89852 0.0
C2141 C 0.46926 0.63308 0.86486 0.0
H2142 H 0.46395 0.68072 0.93789 0.0
C2143 C 0.44724 0.64329 0.84173 0.0
C2144 C 0.4308 0.66647 0.85361 0.0
H2145 H 0.48157 0.61519 0.85485 0.0
H2146 H 0.44316 0.63318 0.81445 0.0
C2147 C 0.43675 0.67928 0.88898 0.0
C2148 C 0.08215 0.70844 0.66176 0.0
C2149 C 0.10603 0.72441 0.65085 0.0
H2150 H 0.05439 0.67382 0.64864 0.0
C2151 C 0.12072 0.71669 0.61736 0.0
H2152 H 0.07004 0.71393 0.68694 0.0
C2153 C 0.11112 0.69416 0.5947 0.0
C2154 C 0.08731 0.67829 0.60585 0.0
H2155 H 0.1391 0.72859 0.60798 0.0
H2156 H 0.12213 0.68928 0.56831 0.0
C2157 C 0.0732 0.68534 0.63987 0.0
C2158 C 0.03453 0.36861 0.36452 0.0
C2159 C 0.02817 0.35468 0.39911 0.0
H2160 H 0.06044 0.36932 0.31387 0.0
C2161 C 0.04484 0.33131 0.40999 0.0
H2162 H 0.02204 0.38658 0.35514 0.0
C2163 C 0.06737 0.32221 0.38714 0.0
C2164 C 0.07318 0.33561 0.35216 0.0
H2165 H 0.04042 0.31979 0.43602 0.0
H2166 H 0.07953 0.30388 0.39613 0.0
C2167 C 0.05651 0.35882 0.34091 0.0
C2168 C 0.39267 0.69391 0.40798 0.0
C2169 C 0.41651 0.67808 0.39686 0.0
H2170 H 0.36463 0.72829 0.39467 0.0
C2171 C 0.43065 0.68518 0.36287 0.0
H2172 H 0.38163 0.68898 0.43434 0.0
C2173 C 0.42168 0.70827 0.34099 0.0
C2174 C 0.39776 0.72419 0.35186 0.0
H2175 H 0.44949 0.67369 0.35412 0.0
H2176 H 0.43381 0.7138 0.31585 0.0
C2177 C 0.38304 0.71643 0.38532 0.0
C2178 C 0.04438 0.66967 0.09099 0.0
C2179 C 0.02782 0.64645 0.10273 0.0
H2180 H 0.07904 0.69747 0.10397 0.0
C2181 C 0.03457 0.63292 0.13748 0.0
H2182 H 0.03975 0.68072 0.06463 0.0
C2183 C 0.0566 0.6431 0.16061 0.0
C2184 C 0.07301 0.66631 0.14878 0.0
H2185 H 0.02229 0.61499 0.14744 0.0
H2186 H 0.06073 0.63294 0.18783 0.0
C2187 C 0.067 0.6792 0.11347 0.0
C2188 C 0.11976 0.28547 0.88474 0.0
C2189 C 0.10514 0.27796 0.85111 0.0
H2190 H 0.12109 0.3126 0.93406 0.0
C2191 C 0.08129 0.29401 0.84026 0.0
H2192 H 0.13812 0.27351 0.89408 0.0
C2193 C 0.0723 0.31697 0.86235 0.0
C2194 C 0.08633 0.3238 0.89652 0.0
H2195 H 0.06924 0.28867 0.81496 0.0
H2196 H 0.05351 0.32855 0.85362 0.0
C2197 C 0.11012 0.30787 0.90759 0.0
C2198 C 0.45916 0.33096 0.59281 0.0
C2199 C 0.47567 0.3545 0.60348 0.0
H2200 H 0.42456 0.30346 0.60682 0.0
C2201 C 0.46908 0.36868 0.63781 0.0
H2202 H 0.46376 0.31925 0.56699 0.0
C2203 C 0.44705 0.35897 0.66139 0.0
C2204 C 0.43055 0.33558 0.65035 0.0
H2205 H 0.48143 0.38679 0.64704 0.0
H2206 H 0.44295 0.36966 0.68824 0.0
C2207 C 0.43658 0.32193 0.61562 0.0
C2208 C 0.27546 0.26872 0.26265 0.0
C2209 C 0.28058 0.24635 0.23701 0.0
H2210 H 0.24493 0.29121 0.29636 0.0
C2211 C 0.25765 0.22909 0.22583 0.0
H2212 H 0.29261 0.28236 0.272 0.0
C2213 C 0.23029 0.2341 0.2399 0.0
C2214 C 0.22517 0.25647 0.26554 0.0
H2215 H 0.26081 0.21161 0.20619 0.0
H2216 H 0.21314 0.22046 0.23055 0.0
C2217 C 0.24809 0.27373 0.27672 0.0
C2218 C 0.9808 0.99734 0.52802 0.0
C2219 C 0.99723 0.97382 0.51697 0.0
H2220 H 0.9732 0.04188 0.52203 0.0
C2221 C 0.01918 0.97783 0.49027 0.0
H2222 H 0.96366 0.99502 0.54844 0.0
C2223 C 0.02458 0.00471 0.47501 0.0
C2224 C 0.00813 0.02824 0.48604 0.0
H2225 H 0.03217 0.96018 0.48098 0.0
H2226 H 0.04171 0.00703 0.45458 0.0
C2227 C 0.9862 0.02423 0.51276 0.0
C2228 C 0.2566 0.72934 0.77672 0.0
C2229 C 0.27959 0.74655 0.76565 0.0
H2230 H 0.21211 0.72067 0.77161 0.0
C2231 C 0.27459 0.76882 0.73979 0.0
H2232 H 0.25966 0.71194 0.79651 0.0
C2233 C 0.24729 0.77377 0.7254 0.0
C2234 C 0.2243 0.75655 0.73648 0.0
H2235 H 0.29178 0.78243 0.73052 0.0
H2236 H 0.24423 0.79117 0.70562 0.0
C2237 C 0.2293 0.73429 0.76233 0.0
C2238 C 0.48603 0.02476 0.99072 0.0
C2239 C 0.50798 0.02891 0.01738 0.0
H2240 H 0.4636 0.99541 0.95511 0.0
C2241 C 0.52457 0.00547 0.02838 0.0
H2242 H 0.47292 0.04234 0.98146 0.0
C2243 C 0.5193 0.97855 0.01315 0.0
C2244 C 0.49734 0.97439 0.9865 0.0
H2245 H 0.54172 0.00789 0.04877 0.0
H2246 H 0.53241 0.96097 0.02241 0.0
C2247 C 0.48076 0.99783 0.97548 0.0
C2248 C 0.22919 0.76869 0.26259 0.0
C2249 C 0.22418 0.74642 0.23675 0.0
H2250 H 0.25955 0.791 0.29681 0.0
C2251 C 0.24715 0.72915 0.22574 0.0
H2252 H 0.21201 0.78234 0.27182 0.0
C2253 C 0.27444 0.73406 0.24017 0.0
C2254 C 0.27945 0.75633 0.26602 0.0
H2255 H 0.24408 0.71175 0.20596 0.0
H2256 H 0.29161 0.72041 0.23094 0.0
C2257 C 0.25648 0.77359 0.27703 0.0
C2258 C 0.523 0.99724 0.47506 0.0
C2259 C 0.50651 0.97374 0.48608 0.0
H2260 H 0.53072 0.04175 0.48116 0.0
C2261 C 0.48462 0.97776 0.51286 0.0
H2262 H 0.5401 0.99491 0.45459 0.0
C2263 C 0.47932 0.00464 0.52822 0.0
C2264 C 0.49581 0.02814 0.5172 0.0
H2265 H 0.4716 0.96013 0.52213 0.0
H2266 H 0.46223 0.00697 0.5487 0.0
C2267 C 0.51769 0.02412 0.49042 0.0
C2268 C 0.24635 0.22883 0.7771 0.0
C2269 C 0.22339 0.24607 0.76597 0.0
H2270 H 0.29087 0.22026 0.7723 0.0
C2271 C 0.22847 0.26848 0.74037 0.0
H2272 H 0.24322 0.21133 0.79671 0.0
C2273 C 0.25582 0.27354 0.72627 0.0
C2274 C 0.27877 0.2563 0.7374 0.0
H2275 H 0.21129 0.28211 0.73107 0.0
H2276 H 0.25894 0.29104 0.70666 0.0
C2277 C 0.2737 0.23389 0.763 0.0
C2278 C 0.01774 0.02482 0.01248 0.0
C2279 C 0.99576 0.02901 0.98587 0.0
H2280 H 0.04015 0.99541 0.04802 0.0
C2281 C 0.97911 0.00561 0.9749 0.0
H2282 H 0.03089 0.04236 0.02172 0.0
C2283 C 0.98435 0.97867 0.9901 0.0
C2284 C 0.00634 0.97447 0.01669 0.0
H2285 H 0.96194 0.00806 0.95456 0.0
H2286 H 0.9712 0.96112 0.98086 0.0
C2287 C 0.02298 0.99787 0.02769 0.0
C2288 C 0.77479 0.76863 0.76257 0.0
C2289 C 0.77971 0.74621 0.73693 0.0
H2290 H 0.74449 0.79132 0.79643 0.0
C2291 C 0.75664 0.72907 0.72593 0.0
H2292 H 0.79204 0.78219 0.77178 0.0
C2293 C 0.72934 0.73425 0.74016 0.0
C2294 C 0.72442 0.75667 0.7658 0.0
H2295 H 0.75964 0.71156 0.7063 0.0
H2296 H 0.71209 0.72069 0.73094 0.0
C2297 C 0.74749 0.77381 0.77681 0.0
C2298 C 0.74917 0.274 0.22649 0.0
C2299 C 0.72583 0.25724 0.23748 0.0
H2300 H 0.79378 0.2819 0.23199 0.0
C2301 C 0.73027 0.23507 0.26366 0.0
H2302 H 0.74654 0.29133 0.20647 0.0
C2303 C 0.75739 0.2297 0.27836 0.0
C2304 C 0.78074 0.24643 0.26733 0.0
H2305 H 0.71279 0.22181 0.27288 0.0
H2306 H 0.76003 0.21236 0.29835 0.0
C2307 C 0.77629 0.26866 0.24124 0.0
C2308 C 0.7277 0.26869 0.76198 0.0
C2309 C 0.72323 0.24642 0.73595 0.0
H2310 H 0.75747 0.29142 0.79664 0.0
C2311 C 0.74657 0.22969 0.72493 0.0
H2312 H 0.71021 0.28194 0.77122 0.0
C2313 C 0.77371 0.23508 0.73957 0.0
C2314 C 0.77816 0.2573 0.76569 0.0
H2315 H 0.74393 0.21231 0.70499 0.0
H2316 H 0.79118 0.22181 0.73037 0.0
C2317 C 0.75482 0.27406 0.77667 0.0
C2318 C 0.75619 0.77366 0.22559 0.0
C2319 C 0.77926 0.75656 0.2367 0.0
H2320 H 0.71164 0.78205 0.23054 0.0
C2321 C 0.77433 0.73421 0.26244 0.0
H2322 H 0.75919 0.79112 0.20587 0.0
C2323 C 0.74703 0.72907 0.27669 0.0
C2324 C 0.72396 0.74617 0.26558 0.0
H2325 H 0.79158 0.72068 0.27174 0.0
H2326 H 0.74403 0.71161 0.29641 0.0
C2327 C 0.72889 0.76852 0.23984 0.0
C2328 C 0.48063 0.49722 0.02689 0.0
C2329 C 0.49715 0.47391 0.01522 0.0
H2330 H 0.47263 0.54175 0.02167 0.0
C2331 C 0.51876 0.47829 0.98816 0.0
H2332 H 0.46373 0.49462 0.0476 0.0
C2333 C 0.5238 0.50532 0.97319 0.0
C2334 C 0.5073 0.52864 0.98487 0.0
H2335 H 0.5318 0.46081 0.9784 0.0
H2336 H 0.54071 0.50792 0.95249 0.0
C2337 C 0.48566 0.52426 0.0119 0.0
C2338 C 0.02001 0.47749 0.51271 0.0
C2339 C 0.99774 0.47272 0.48672 0.0
H2340 H 0.04232 0.50751 0.54741 0.0
C2341 C 0.98055 0.49575 0.47586 0.0
H2342 H 0.03359 0.46024 0.52185 0.0
C2343 C 0.9855 0.52289 0.49061 0.0
C2344 C 0.00772 0.52765 0.51666 0.0
H2345 H 0.96316 0.49286 0.45596 0.0
H2346 H 0.97191 0.54014 0.4815 0.0
C2347 C 0.02494 0.50462 0.5275 0.0
C2348 C 0.98533 0.47827 0.01404 0.0
C2349 C 0.007 0.47393 0.98704 0.0
H2350 H 0.96326 0.50787 0.04962 0.0
C2351 C 0.02347 0.49727 0.97538 0.0
H2352 H 0.97232 0.46077 0.02379 0.0
C2353 C 0.01836 0.52431 0.99032 0.0
C2354 C 0.99666 0.52865 0.01729 0.0
H2355 H 0.04041 0.49469 0.95471 0.0
H2356 H 0.03135 0.54182 0.98056 0.0
C2357 C 0.98021 0.5053 0.02896 0.0
C2358 C 0.48398 0.47717 0.48954 0.0
C2359 C 0.5062 0.47243 0.5156 0.0
H2360 H 0.46167 0.50717 0.45481 0.0
C2361 C 0.52334 0.49549 0.52654 0.0
H2362 H 0.47045 0.4599 0.48036 0.0
C2363 C 0.51837 0.52263 0.51179 0.0
C2364 C 0.49617 0.52736 0.48568 0.0
H2365 H 0.5407 0.49262 0.54649 0.0
H2366 H 0.53191 0.53989 0.52096 0.0
C2367 C 0.47902 0.5043 0.47476 0.0
C2368 C 0.09857 0.38241 0.11809 0.0
C2369 C 0.09426 0.3616 0.08981 0.0
H2370 H 0.10661 0.39072 0.17766 0.0
C2371 C 0.09844 0.33302 0.09928 0.0
H2372 H 0.09542 0.40463 0.11158 0.0
C2373 C 0.10475 0.32517 0.13664 0.0
C2374 C 0.10696 0.34566 0.16571 0.0
H2375 H 0.09564 0.3165 0.07807 0.0
H2376 H 0.10678 0.30277 0.14297 0.0
C2377 C 0.10488 0.37448 0.15589 0.0
C2378 C 0.90081 0.82567 0.36492 0.0
C2379 C 0.89822 0.84629 0.33606 0.0
H2380 H 0.91011 0.81676 0.42337 0.0
C2381 C 0.90007 0.87507 0.34618 0.0
H2382 H 0.89899 0.80329 0.35839 0.0
C2383 C 0.90637 0.88287 0.38404 0.0
C2384 C 0.91092 0.86195 0.41214 0.0
H2385 H 0.89806 0.89143 0.32461 0.0
H2386 H 0.90921 0.90509 0.39078 0.0
C2387 C 0.90712 0.83338 0.40235 0.0
C2388 C 0.40024 0.62807 0.65688 0.0
C2389 C 0.39867 0.65691 0.6668 0.0
H2390 H 0.40914 0.59778 0.61252 0.0
C2391 C 0.40153 0.67739 0.63782 0.0
H2392 H 0.39801 0.61182 0.67855 0.0
C2393 C 0.40782 0.66947 0.60046 0.0
C2394 C 0.41134 0.64081 0.59086 0.0
H2395 H 0.39993 0.69981 0.64418 0.0
H2396 H 0.41101 0.68598 0.57934 0.0
C2397 C 0.40653 0.62006 0.61909 0.0
C2398 C 0.60162 0.17818 0.86503 0.0
C2399 C 0.60516 0.15739 0.83658 0.0
H2400 H 0.59207 0.18729 0.92334 0.0
C2401 C 0.60454 0.12867 0.84726 0.0
H2402 H 0.60248 0.20054 0.85807 0.0
C2403 C 0.59859 0.121 0.88529 0.0
C2404 C 0.59321 0.14197 0.91304 0.0
H2405 H 0.60731 0.11219 0.82603 0.0
H2406 H 0.59678 0.09874 0.89245 0.0
C2407 C 0.59571 0.17059 0.90264 0.0
C2408 C 0.09584 0.66978 0.40201 0.0
C2409 C 0.09245 0.64114 0.41175 0.0
H2410 H 0.10363 0.70003 0.35814 0.0
C2411 C 0.09737 0.62033 0.38363 0.0
H2412 H 0.09257 0.68634 0.42304 0.0
C2413 C 0.10365 0.62826 0.34581 0.0
C2414 C 0.10511 0.65707 0.33574 0.0
H2415 H 0.09486 0.59806 0.39032 0.0
H2416 H 0.10598 0.61195 0.32423 0.0
C2417 C 0.10212 0.67762 0.36462 0.0
C2418 C 0.60377 0.8751 0.65621 0.0
C2419 C 0.60554 0.84633 0.66642 0.0
H2420 H 0.5947 0.90506 0.61151 0.0
C2421 C 0.6029 0.82566 0.63763 0.0
H2422 H 0.60582 0.89148 0.67773 0.0
C2423 C 0.59662 0.83333 0.60017 0.0
C2424 C 0.59289 0.86189 0.59029 0.0
H2425 H 0.60467 0.80329 0.64423 0.0
H2426 H 0.59359 0.81668 0.57921 0.0
C2427 C 0.59749 0.88284 0.61832 0.0
C2428 C 0.3991 0.37446 0.84686 0.0
C2429 C 0.39706 0.34565 0.83698 0.0
H2430 H 0.40857 0.40459 0.89121 0.0
C2431 C 0.39937 0.32513 0.866 0.0
H2432 H 0.3973 0.39073 0.82514 0.0
C2433 C 0.40573 0.33295 0.90336 0.0
C2434 C 0.40987 0.36152 0.91288 0.0
H2435 H 0.39737 0.30274 0.85963 0.0
H2436 H 0.40861 0.3164 0.92451 0.0
C2437 C 0.40546 0.38236 0.88465 0.0
C2438 C 0.90253 0.17832 0.13842 0.0
C2439 C 0.89885 0.15749 0.16678 0.0
H2440 H 0.9122 0.18752 0.08016 0.0
C2441 C 0.89936 0.12879 0.15599 0.0
H2442 H 0.90176 0.20068 0.14546 0.0
C2443 C 0.90532 0.12118 0.11796 0.0
C2444 C 0.91083 0.14218 0.09029 0.0
H2445 H 0.89648 0.11228 0.17715 0.0
H2446 H 0.90704 0.09892 0.11071 0.0
C2447 C 0.90845 0.17079 0.10079 0.0
C2448 C 0.90628 0.62009 0.88419 0.0
C2449 C 0.91101 0.64102 0.91221 0.0
H2450 H 0.89792 0.61147 0.82479 0.0
C2451 C 0.90752 0.66961 0.90227 0.0
H2452 H 0.90887 0.59786 0.89104 0.0
C2453 C 0.90135 0.6773 0.86479 0.0
C2454 C 0.89856 0.65663 0.83603 0.0
H2455 H 0.91065 0.68626 0.92322 0.0
H2456 H 0.89977 0.69968 0.85815 0.0
C2457 C 0.90009 0.62786 0.84628 0.0
C2458 C 0.10341 0.17739 0.63672 0.0
C2459 C 0.10569 0.15694 0.66583 0.0
H2460 H 0.09497 0.18592 0.57795 0.0
C2461 C 0.10419 0.12809 0.65596 0.0
H2462 H 0.105 0.19981 0.6431 0.0
C2463 C 0.09846 0.12005 0.61802 0.0
C2464 C 0.09419 0.14078 0.5896 0.0
H2465 H 0.10599 0.11188 0.67774 0.0
H2466 H 0.09581 0.09777 0.61146 0.0
C2467 C 0.09774 0.16943 0.5992 0.0
C2468 C 0.57441 0.35249 0.38614 0.0
C2469 C 0.59478 0.3553 0.4153 0.0
H2470 H 0.56617 0.34367 0.32739 0.0
C2471 C 0.62373 0.35436 0.40553 0.0
H2472 H 0.55191 0.35364 0.39244 0.0
C2473 C 0.63198 0.34864 0.36768 0.0
C2474 C 0.61138 0.34385 0.33921 0.0
H2475 H 0.63989 0.35659 0.42735 0.0
H2476 H 0.65436 0.34641 0.36123 0.0
C2477 C 0.58258 0.34685 0.34868 0.0
C2478 C 0.40797 0.83305 0.1006 0.0
C2479 C 0.41158 0.86167 0.0909 0.0
H2480 H 0.3999 0.80282 0.14441 0.0
C2481 C 0.40683 0.8825 0.11905 0.0
H2482 H 0.41111 0.81649 0.07953 0.0
C2483 C 0.40048 0.87459 0.15686 0.0
C2484 C 0.39877 0.84578 0.16688 0.0
H2485 H 0.40952 0.90475 0.1124 0.0
H2486 H 0.39829 0.89089 0.17846 0.0
C2487 C 0.4016 0.82523 0.13797 0.0
C2488 C 0.88045 0.35451 0.59744 0.0
C2489 C 0.9094 0.3555 0.58773 0.0
H2490 H 0.84978 0.34645 0.64165 0.0
C2491 C 0.92975 0.35264 0.61691 0.0
H2492 H 0.86431 0.35678 0.5756 0.0
C2493 C 0.92154 0.3469 0.65433 0.0
C2494 C 0.89274 0.34386 0.66373 0.0
H2495 H 0.95225 0.35382 0.61066 0.0
H2496 H 0.93794 0.34368 0.67564 0.0
C2497 C 0.87216 0.3487 0.63525 0.0
C2498 C 0.4 0.12825 0.34689 0.0
C2499 C 0.39849 0.15712 0.33712 0.0
H2500 H 0.40844 0.09785 0.39128 0.0
C2501 C 0.40084 0.17751 0.36628 0.0
H2502 H 0.39815 0.11207 0.32507 0.0
C2503 C 0.40658 0.16949 0.40376 0.0
C2504 C 0.41011 0.14081 0.41326 0.0
H2505 H 0.39925 0.19995 0.35998 0.0
H2506 H 0.40939 0.18594 0.42506 0.0
C2507 C 0.40579 0.12014 0.38478 0.0
C2508 C 0.59738 0.62 0.11835 0.0
C2509 C 0.59267 0.64094 0.09034 0.0
H2510 H 0.60573 0.61136 0.17776 0.0
C2511 C 0.59617 0.66953 0.10029 0.0
H2512 H 0.59477 0.59777 0.1115 0.0
C2513 C 0.60236 0.6772 0.13777 0.0
C2514 C 0.60513 0.65652 0.16653 0.0
H2515 H 0.59306 0.68618 0.07935 0.0
H2516 H 0.60396 0.69958 0.14441 0.0
C2517 C 0.60357 0.62776 0.15627 0.0
C2518 C 0.10302 0.87494 0.84563 0.0
C2519 C 0.10491 0.84613 0.83568 0.0
H2520 H 0.09379 0.90509 0.89004 0.0
C2521 C 0.10225 0.82559 0.86464 0.0
H2522 H 0.10508 0.89123 0.82399 0.0
C2523 C 0.09585 0.83342 0.902 0.0
C2524 C 0.09204 0.86202 0.91163 0.0
H2525 H 0.1041 0.80319 0.85825 0.0
H2526 H 0.09282 0.81686 0.9231 0.0
C2527 C 0.09664 0.88285 0.88343 0.0
loop_
_geom_bond_atom_site_label_1
_geom_bond_atom_site_label_2
_geom_bond_distance
_geom_bond_site_symmetry_2
_ccdc_geom_bond_type
Co0 O2 2.143 . S
Co0 O8 2.074 . S
Co0 O11 2.093 . S
Co0 O24 2.097 . S
Co0 N41 2.151 . S
Co0 N49 2.214 . S
Co1 O2 2.160 . S
Co1 O7 2.058 . S
Co1 O17 2.057 . S
Co1 O32 2.037 . S
Co1 N36 2.145 . S
Co1 N57 2.257 . S
O2 Co0 2.143 . S
O2 Co1 2.160 . S
C3 O4 1.278 . S
C3 O11 1.224 . S
O4 C3 1.278 . S
C5 O6 1.245 . S
C5 O17 1.232 . S
O6 C5 1.245 . S
O7 Co1 2.058 . S
O7 C33 1.269 . S
O8 Co0 2.074 . S
O8 C33 1.257 . S
H9 C34 0.930 . S
H10 C40 0.930 . S
O11 Co0 2.093 . S
O11 C3 1.224 . S
H12 C44 0.929 . S
H13 C46 0.930 1_655 S
H14 C47 0.930 . S
H15 C45 0.929 . S
H16 C48 0.928 . S
O17 Co1 2.057 . S
O17 C5 1.232 . S
H18 C37 0.929 . S
H19 C38 0.929 . S
H20 C50 0.931 1_655 S
H21 C42 0.929 . S
H22 C51 0.930 . S
H23 C43 0.931 . S
O24 Co0 2.097 . S
O24 C52 1.214 . S
H25 C53 0.929 . S
H26 C54 0.929 . S
H27 C55 0.930 . S
H28 C56 0.929 . S
H29 C58 0.930 . S
H30 C35 0.930 . S
H31 C39 0.930 . S
O32 Co1 2.037 . S
O32 C52 1.234 . S
C33 O7 1.269 . S
C33 O8 1.257 . S
C34 H9 0.930 . S
C34 C37 1.388 . S
C34 C39 1.418 . S
C35 H30 0.930 . S
C35 C38 1.404 . S
C35 C39 1.353 . S
N36 Co1 2.145 . S
N36 C37 1.397 . S
N36 C38 1.334 . S
C37 H18 0.929 . S
C37 C34 1.388 . S
C37 N36 1.397 . S
C38 H19 0.929 . S
C38 C35 1.404 . S
C38 N36 1.334 . S
C39 H31 0.930 . S
C39 C34 1.418 . S
C39 C35 1.353 . S
C40 H10 0.930 . S
C40 N41 1.330 . S
C40 C42 1.446 . S
N41 Co0 2.151 . S
N41 C40 1.330 . S
N41 C45 1.418 . S
C42 H21 0.929 . S
C42 C40 1.446 . S
C42 C43 1.332 . S
C43 H23 0.931 . S
C43 C42 1.332 . S
C43 C44 1.267 . S
C44 H12 0.929 . S
C44 C43 1.267 . S
C44 C45 1.251 . S
C45 H15 0.929 . S
C45 N41 1.418 . S
C45 C44 1.251 . S
C46 H13 0.930 1_455 S
C46 C48 1.406 . S
C46 C51 1.261 1_455 S
C47 H14 0.930 . S
C47 N49 1.325 . S
C47 C50 1.357 . S
C48 H16 0.928 . S
C48 C46 1.406 . S
C48 N49 1.261 . S
N49 Co0 2.214 . S
N49 C47 1.325 . S
N49 C48 1.261 . S
C50 H20 0.931 1_455 S
C50 C47 1.357 . S
C50 C51 1.312 1_455 S
C51 H22 0.930 . S
C51 C46 1.261 1_655 S
C51 C50 1.312 1_655 S
C52 O24 1.214 . S
C52 O32 1.234 . S
C53 H25 0.929 . S
C53 C56 1.391 . S
C53 C58 1.391 . S
C54 H26 0.929 . S
C54 C55 1.390 . S
C54 N57 1.391 . S
C55 H27 0.930 . S
C55 C54 1.390 . S
C55 C56 1.392 . S
C56 H28 0.929 . S
C56 C53 1.391 . S
C56 C55 1.392 . S
N57 Co1 2.257 . S
N57 C54 1.391 . S
N57 C58 1.388 . S
C58 H29 0.930 . S
C58 C53 1.391 . S
C58 N57 1.388 . S
Co59 O61 2.143 . S
Co59 O67 2.074 . S
Co59 O70 2.093 . S
Co59 O83 2.097 . S
Co59 N100 2.151 . S
Co59 N108 2.214 . S
Co60 O61 2.160 . S
Co60 O66 2.058 . S
Co60 O76 2.057 . S
Co60 O91 2.037 . S
Co60 N95 2.145 . S
Co60 N116 2.257 . S
O61 Co59 2.143 . S
O61 Co60 2.160 . S
C62 O63 1.278 . S
C62 O70 1.224 . S
O63 C62 1.278 . S
C64 O65 1.245 . S
C64 O76 1.232 . S
O65 C64 1.245 . S
O66 Co60 2.058 . S
O66 C92 1.269 . S
O67 Co59 2.074 . S
O67 C92 1.257 . S
H68 C93 0.930 . S
H69 C99 0.930 . S
O70 Co59 2.093 . S
O70 C62 1.224 . S
H71 C103 0.929 . S
H72 C105 0.930 . S
H73 C106 0.930 . S
H74 C104 0.929 . S
H75 C107 0.928 . S
O76 Co60 2.057 . S
O76 C64 1.232 . S
H77 C96 0.929 . S
H78 C97 0.929 . S
H79 C109 0.931 . S
H80 C101 0.929 . S
H81 C110 0.930 . S
H82 C102 0.931 . S
O83 Co59 2.097 . S
O83 C111 1.214 . S
H84 C112 0.929 . S
H85 C113 0.929 . S
H86 C114 0.930 . S
H87 C115 0.929 . S
H88 C117 0.930 . S
H89 C94 0.930 . S
H90 C98 0.930 . S
O91 Co60 2.037 . S
O91 C111 1.234 . S
C92 O66 1.269 . S
C92 O67 1.257 . S
C93 H68 0.930 . S
C93 C96 1.388 . S
C93 C98 1.418 . S
C94 H89 0.930 . S
C94 C97 1.404 . S
C94 C98 1.353 . S
N95 Co60 2.145 . S
N95 C96 1.397 . S
N95 C97 1.334 . S
C96 H77 0.929 . S
C96 C93 1.388 . S
C96 N95 1.397 . S
C97 H78 0.929 . S
C97 C94 1.404 . S
C97 N95 1.334 . S
C98 H90 0.930 . S
C98 C93 1.418 . S
C98 C94 1.353 . S
C99 H69 0.930 . S
C99 N100 1.330 . S
C99 C101 1.446 1_655 S
N100 Co59 2.151 . S
N100 C99 1.330 . S
N100 C104 1.418 1_655 S
C101 H80 0.929 . S
C101 C99 1.446 1_455 S
C101 C102 1.332 . S
C102 H82 0.931 . S
C102 C101 1.332 . S
C102 C103 1.267 . S
C103 H71 0.929 . S
C103 C102 1.267 . S
C103 C104 1.251 . S
C104 H74 0.929 . S
C104 N100 1.418 1_455 S
C104 C103 1.251 . S
C105 H72 0.930 . S
C105 C107 1.406 . S
C105 C110 1.261 . S
C106 H73 0.930 . S
C106 N108 1.325 . S
C106 C109 1.357 . S
C107 H75 0.928 . S
C107 C105 1.406 . S
C107 N108 1.261 . S
N108 Co59 2.214 . S
N108 C106 1.325 . S
N108 C107 1.261 . S
C109 H79 0.931 . S
C109 C106 1.357 . S
C109 C110 1.312 . S
C110 H81 0.930 . S
C110 C105 1.261 . S
C110 C109 1.312 . S
C111 O83 1.214 . S
C111 O91 1.234 . S
C112 H84 0.929 . S
C112 C115 1.391 . S
C112 C117 1.391 . S
C113 H85 0.929 . S
C113 C114 1.390 . S
C113 N116 1.391 . S
C114 H86 0.930 . S
C114 C113 1.390 . S
C114 C115 1.392 . S
C115 H87 0.929 . S
C115 C112 1.391 . S
C115 C114 1.392 . S
N116 Co60 2.257 . S
N116 C113 1.391 . S
N116 C117 1.388 . S
C117 H88 0.930 . S
C117 C112 1.391 . S
C117 N116 1.388 . S
Co118 O120 2.143 . S
Co118 O126 2.074 . S
Co118 O129 2.093 . S
Co118 O142 2.097 . S
Co118 N159 2.151 . S
Co118 N167 2.214 . S
Co119 O120 2.160 . S
Co119 O125 2.058 . S
Co119 O135 2.057 . S
Co119 O150 2.037 . S
Co119 N154 2.145 . S
Co119 N175 2.257 . S
O120 Co118 2.143 . S
O120 Co119 2.160 . S
C121 O122 1.278 . S
C121 O129 1.224 . S
O122 C121 1.278 . S
C123 O124 1.245 . S
C123 O135 1.232 . S
O124 C123 1.245 . S
O125 Co119 2.058 . S
O125 C151 1.269 . S
O126 Co118 2.074 . S
O126 C151 1.257 . S
H127 C152 0.930 . S
H128 C158 0.930 . S
O129 Co118 2.093 . S
O129 C121 1.224 . S
H130 C162 0.929 . S
H131 C164 0.930 . S
H132 C165 0.930 . S
H133 C163 0.929 . S
H134 C166 0.928 . S
O135 Co119 2.057 . S
O135 C123 1.232 . S
H136 C155 0.929 . S
H137 C156 0.929 . S
H138 C168 0.931 . S
H139 C160 0.929 . S
H140 C169 0.930 . S
H141 C161 0.931 . S
O142 Co118 2.097 . S
O142 C170 1.214 . S
H143 C171 0.929 . S
H144 C172 0.929 . S
H145 C173 0.930 . S
H146 C174 0.929 . S
H147 C176 0.930 . S
H148 C153 0.930 . S
H149 C157 0.930 . S
O150 Co119 2.037 . S
O150 C170 1.234 . S
C151 O125 1.269 . S
C151 O126 1.257 . S
C152 H127 0.930 . S
C152 C155 1.388 . S
C152 C157 1.418 . S
C153 H148 0.930 . S
C153 C156 1.404 . S
C153 C157 1.353 . S
N154 Co119 2.145 . S
N154 C155 1.397 . S
N154 C156 1.334 . S
C155 H136 0.929 . S
C155 C152 1.388 . S
C155 N154 1.397 . S
C156 H137 0.929 . S
C156 C153 1.404 . S
C156 N154 1.334 . S
C157 H149 0.930 . S
C157 C152 1.418 . S
C157 C153 1.353 . S
C158 H128 0.930 . S
C158 N159 1.330 . S
C158 C160 1.446 . S
N159 Co118 2.151 . S
N159 C158 1.330 . S
N159 C163 1.418 . S
C160 H139 0.929 . S
C160 C158 1.446 . S
C160 C161 1.332 . S
C161 H141 0.931 . S
C161 C160 1.332 . S
C161 C162 1.267 . S
C162 H130 0.929 . S
C162 C161 1.267 . S
C162 C163 1.251 . S
C163 H133 0.929 . S
C163 N159 1.418 . S
C163 C162 1.251 . S
C164 H131 0.930 . S
C164 C166 1.406 . S
C164 C169 1.261 . S
C165 H132 0.930 . S
C165 N167 1.325 . S
C165 C168 1.357 . S
C166 H134 0.928 . S
C166 C164 1.406 . S
C166 N167 1.261 . S
N167 Co118 2.214 . S
N167 C165 1.325 . S
N167 C166 1.261 . S
C168 H138 0.931 . S
C168 C165 1.357 . S
C168 C169 1.312 . S
C169 H140 0.930 . S
C169 C164 1.261 . S
C169 C168 1.312 . S
C170 O142 1.214 . S
C170 O150 1.234 . S
C171 H143 0.929 . S
C171 C174 1.391 . S
C171 C176 1.391 . S
C172 H144 0.929 . S
C172 C173 1.390 . S
C172 N175 1.391 . S
C173 H145 0.930 . S
C173 C172 1.390 . S
C173 C174 1.392 . S
C174 H146 0.929 . S
C174 C171 1.391 . S
C174 C173 1.392 . S
N175 Co119 2.257 . S
N175 C172 1.391 . S
N175 C176 1.388 . S
C176 H147 0.930 . S
C176 C171 1.391 . S
C176 N175 1.388 . S
Co177 O179 2.143 . S
Co177 O185 2.074 . S
Co177 O188 2.093 1_554 S
Co177 O201 2.097 . S
Co177 N218 2.151 1_554 S
Co177 N226 2.214 . S
Co178 O179 2.160 . S
Co178 O184 2.058 . S
Co178 O194 2.057 . S
Co178 O209 2.037 . S
Co178 N213 2.145 . S
Co178 N234 2.257 . S
O179 Co177 2.143 . S
O179 Co178 2.160 . S
C180 O181 1.278 . S
C180 O188 1.224 . S
O181 C180 1.278 . S
C182 O183 1.245 . S
C182 O194 1.232 . S
O183 C182 1.245 . S
O184 Co178 2.058 . S
O184 C210 1.269 . S
O185 Co177 2.074 . S
O185 C210 1.257 . S
H186 C211 0.930 . S
H187 C217 0.930 . S
O188 Co177 2.093 1_556 S
O188 C180 1.224 . S
H189 C221 0.929 . S
H190 C223 0.930 . S
H191 C224 0.930 . S
H192 C222 0.929 1_554 S
H193 C225 0.928 . S
O194 Co178 2.057 . S
O194 C182 1.232 . S
H195 C214 0.929 . S
H196 C215 0.929 . S
H197 C227 0.931 . S
H198 C219 0.929 . S
H199 C228 0.930 . S
H200 C220 0.931 . S
O201 Co177 2.097 . S
O201 C229 1.214 . S
H202 C230 0.929 1_556 S
H203 C231 0.929 . S
H204 C232 0.930 . S
H205 C233 0.929 . S
H206 C235 0.930 . S
H207 C212 0.930 . S
H208 C216 0.930 . S
O209 Co178 2.037 . S
O209 C229 1.234 . S
C210 O184 1.269 . S
C210 O185 1.257 . S
C211 H186 0.930 . S
C211 C214 1.388 . S
C211 C216 1.418 . S
C212 H207 0.930 . S
C212 C215 1.404 . S
C212 C216 1.353 . S
N213 Co178 2.145 . S
N213 C214 1.397 . S
N213 C215 1.334 . S
C214 H195 0.929 . S
C214 C211 1.388 . S
C214 N213 1.397 . S
C215 H196 0.929 . S
C215 C212 1.404 . S
C215 N213 1.334 . S
C216 H208 0.930 . S
C216 C211 1.418 . S
C216 C212 1.353 . S
C217 H187 0.930 . S
C217 N218 1.330 . S
C217 C219 1.446 . S
N218 Co177 2.151 1_556 S
N218 C217 1.330 . S
N218 C222 1.418 . S
C219 H198 0.929 . S
C219 C217 1.446 . S
C219 C220 1.332 . S
C220 H200 0.931 . S
C220 C219 1.332 . S
C220 C221 1.267 . S
C221 H189 0.929 . S
C221 C220 1.267 . S
C221 C222 1.251 . S
C222 H192 0.929 1_556 S
C222 N218 1.418 . S
C222 C221 1.251 . S
C223 H190 0.930 . S
C223 C225 1.406 . S
C223 C228 1.261 1_556 S
C224 H191 0.930 . S
C224 N226 1.325 . S
C224 C227 1.357 . S
C225 H193 0.928 . S
C225 C223 1.406 . S
C225 N226 1.261 1_556 S
N226 Co177 2.214 . S
N226 C224 1.325 . S
N226 C225 1.261 1_554 S
C227 H197 0.931 . S
C227 C224 1.357 . S
C227 C228 1.312 . S
C228 H199 0.930 . S
C228 C223 1.261 1_554 S
C228 C227 1.312 . S
C229 O201 1.214 . S
C229 O209 1.234 . S
C230 H202 0.929 1_554 S
C230 C233 1.391 . S
C230 C235 1.391 . S
C231 H203 0.929 . S
C231 C232 1.390 . S
C231 N234 1.391 . S
C232 H204 0.930 . S
C232 C231 1.390 . S
C232 C233 1.392 . S
C233 H205 0.929 . S
C233 C230 1.391 . S
C233 C232 1.392 . S
N234 Co178 2.257 . S
N234 C231 1.391 . S
N234 C235 1.388 . S
C235 H206 0.930 . S
C235 C230 1.391 . S
C235 N234 1.388 . S
Co236 O238 2.143 . S
Co236 O244 2.074 . S
Co236 O247 2.093 . S
Co236 O260 2.097 . S
Co236 N277 2.151 . S
Co236 N285 2.214 . S
Co237 O238 2.160 . S
Co237 O243 2.058 . S
Co237 O253 2.057 . S
Co237 O268 2.037 . S
Co237 N272 2.145 . S
Co237 N293 2.257 . S
O238 Co236 2.143 . S
O238 Co237 2.160 . S
C239 O240 1.278 . S
C239 O247 1.224 . S
O240 C239 1.278 . S
C241 O242 1.245 . S
C241 O253 1.232 . S
O242 C241 1.245 . S
O243 Co237 2.058 . S
O243 C269 1.269 . S
O244 Co236 2.074 . S
O244 C269 1.257 . S
H245 C270 0.930 . S
H246 C276 0.930 . S
O247 Co236 2.093 . S
O247 C239 1.224 . S
H248 C280 0.929 . S
H249 C282 0.930 1_655 S
H250 C283 0.930 . S
H251 C281 0.929 . S
H252 C284 0.928 . S
O253 Co237 2.057 . S
O253 C241 1.232 . S
H254 C273 0.929 . S
H255 C274 0.929 . S
H256 C286 0.931 1_655 S
H257 C278 0.929 . S
H258 C287 0.930 . S
H259 C279 0.931 . S
O260 Co236 2.097 . S
O260 C288 1.214 . S
H261 C289 0.929 . S
H262 C290 0.929 . S
H263 C291 0.930 . S
H264 C292 0.929 . S
H265 C294 0.930 . S
H266 C271 0.930 . S
H267 C275 0.930 . S
O268 Co237 2.037 . S
O268 C288 1.234 . S
C269 O243 1.269 . S
C269 O244 1.257 . S
C270 H245 0.930 . S
C270 C273 1.388 . S
C270 C275 1.418 . S
C271 H266 0.930 . S
C271 C274 1.404 . S
C271 C275 1.353 . S
N272 Co237 2.145 . S
N272 C273 1.397 . S
N272 C274 1.334 . S
C273 H254 0.929 . S
C273 C270 1.388 . S
C273 N272 1.397 . S
C274 H255 0.929 . S
C274 C271 1.404 . S
C274 N272 1.334 . S
C275 H267 0.930 . S
C275 C270 1.418 . S
C275 C271 1.353 . S
C276 H246 0.930 . S
C276 N277 1.330 . S
C276 C278 1.446 . S
N277 Co236 2.151 . S
N277 C276 1.330 . S
N277 C281 1.418 . S
C278 H257 0.929 . S
C278 C276 1.446 . S
C278 C279 1.332 . S
C279 H259 0.931 . S
C279 C278 1.332 . S
C279 C280 1.267 . S
C280 H248 0.929 . S
C280 C279 1.267 . S
C280 C281 1.251 . S
C281 H251 0.929 . S
C281 N277 1.418 . S
C281 C280 1.251 . S
C282 H249 0.930 1_455 S
C282 C284 1.406 . S
C282 C287 1.261 1_455 S
C283 H250 0.930 . S
C283 N285 1.325 . S
C283 C286 1.357 . S
C284 H252 0.928 . S
C284 C282 1.406 . S
C284 N285 1.261 . S
N285 Co236 2.214 . S
N285 C283 1.325 . S
N285 C284 1.261 . S
C286 H256 0.931 1_455 S
C286 C283 1.357 . S
C286 C287 1.312 1_455 S
C287 H258 0.930 . S
C287 C282 1.261 1_655 S
C287 C286 1.312 1_655 S
C288 O260 1.214 . S
C288 O268 1.234 . S
C289 H261 0.929 . S
C289 C292 1.391 . S
C289 C294 1.391 . S
C290 H262 0.929 . S
C290 C291 1.390 . S
C290 N293 1.391 . S
C291 H263 0.930 . S
C291 C290 1.390 . S
C291 C292 1.392 . S
C292 H264 0.929 . S
C292 C289 1.391 . S
C292 C291 1.392 . S
N293 Co237 2.257 . S
N293 C290 1.391 . S
N293 C294 1.388 . S
C294 H265 0.930 . S
C294 C289 1.391 . S
C294 N293 1.388 . S
Co295 O297 2.143 . S
Co295 O303 2.074 . S
Co295 O306 2.093 . S
Co295 O319 2.097 . S
Co295 N336 2.151 . S
Co295 N344 2.214 . S
Co296 O297 2.160 . S
Co296 O302 2.058 . S
Co296 O312 2.057 . S
Co296 O327 2.037 . S
Co296 N331 2.145 . S
Co296 N352 2.257 . S
O297 Co295 2.143 . S
O297 Co296 2.160 . S
C298 O299 1.278 . S
C298 O306 1.224 . S
O299 C298 1.278 . S
C300 O301 1.245 . S
C300 O312 1.232 . S
O301 C300 1.245 . S
O302 Co296 2.058 . S
O302 C328 1.269 . S
O303 Co295 2.074 . S
O303 C328 1.257 . S
H304 C329 0.930 . S
H305 C335 0.930 . S
O306 Co295 2.093 . S
O306 C298 1.224 . S
H307 C339 0.929 . S
H308 C341 0.930 . S
H309 C342 0.930 . S
H310 C340 0.929 . S
H311 C343 0.928 . S
O312 Co296 2.057 . S
O312 C300 1.232 . S
H313 C332 0.929 . S
H314 C333 0.929 . S
H315 C345 0.931 . S
H316 C337 0.929 . S
H317 C346 0.930 . S
H318 C338 0.931 . S
O319 Co295 2.097 . S
O319 C347 1.214 . S
H320 C348 0.929 . S
H321 C349 0.929 . S
H322 C350 0.930 . S
H323 C351 0.929 . S
H324 C353 0.930 . S
H325 C330 0.930 . S
H326 C334 0.930 . S
O327 Co296 2.037 . S
O327 C347 1.234 . S
C328 O302 1.269 . S
C328 O303 1.257 . S
C329 H304 0.930 . S
C329 C332 1.388 . S
C329 C334 1.418 . S
C330 H325 0.930 . S
C330 C333 1.404 . S
C330 C334 1.353 . S
N331 Co296 2.145 . S
N331 C332 1.397 . S
N331 C333 1.334 . S
C332 H313 0.929 . S
C332 C329 1.388 . S
C332 N331 1.397 . S
C333 H314 0.929 . S
C333 C330 1.404 . S
C333 N331 1.334 . S
C334 H326 0.930 . S
C334 C329 1.418 . S
C334 C330 1.353 . S
C335 H305 0.930 . S
C335 N336 1.330 . S
C335 C337 1.446 . S
N336 Co295 2.151 . S
N336 C335 1.330 . S
N336 C340 1.418 . S
C337 H316 0.929 . S
C337 C335 1.446 . S
C337 C338 1.332 . S
C338 H318 0.931 . S
C338 C337 1.332 . S
C338 C339 1.267 . S
C339 H307 0.929 . S
C339 C338 1.267 . S
C339 C340 1.251 . S
C340 H310 0.929 . S
C340 N336 1.418 . S
C340 C339 1.251 . S
C341 H308 0.930 . S
C341 C343 1.406 . S
C341 C346 1.261 . S
C342 H309 0.930 . S
C342 N344 1.325 . S
C342 C345 1.357 . S
C343 H311 0.928 . S
C343 C341 1.406 . S
C343 N344 1.261 . S
N344 Co295 2.214 . S
N344 C342 1.325 . S
N344 C343 1.261 . S
C345 H315 0.931 . S
C345 C342 1.357 . S
C345 C346 1.312 . S
C346 H317 0.930 . S
C346 C341 1.261 . S
C346 C345 1.312 . S
C347 O319 1.214 . S
C347 O327 1.234 . S
C348 H320 0.929 . S
C348 C351 1.391 . S
C348 C353 1.391 . S
C349 H321 0.929 . S
C349 C350 1.390 . S
C349 N352 1.391 . S
C350 H322 0.930 . S
C350 C349 1.390 . S
C350 C351 1.392 . S
C351 H323 0.929 . S
C351 C348 1.391 . S
C351 C350 1.392 . S
N352 Co296 2.257 . S
N352 C349 1.391 . S
N352 C353 1.388 . S
C353 H324 0.930 . S
C353 C348 1.391 . S
C353 N352 1.388 . S
Co354 O356 2.143 . S
Co354 O362 2.074 . S
Co354 O365 2.093 . S
Co354 O378 2.097 . S
Co354 N395 2.151 . S
Co354 N403 2.214 . S
Co355 O356 2.160 . S
Co355 O361 2.058 . S
Co355 O371 2.057 . S
Co355 O386 2.037 . S
Co355 N390 2.145 . S
Co355 N411 2.257 . S
O356 Co354 2.143 . S
O356 Co355 2.160 . S
C357 O358 1.278 . S
C357 O365 1.224 . S
O358 C357 1.278 . S
C359 O360 1.245 . S
C359 O371 1.232 . S
O360 C359 1.245 . S
O361 Co355 2.058 . S
O361 C387 1.269 . S
O362 Co354 2.074 . S
O362 C387 1.257 . S
H363 C388 0.930 . S
H364 C394 0.930 . S
O365 Co354 2.093 . S
O365 C357 1.224 . S
H366 C398 0.929 . S
H367 C400 0.930 . S
H368 C401 0.930 . S
H369 C399 0.929 . S
H370 C402 0.928 . S
O371 Co355 2.057 . S
O371 C359 1.232 . S
H372 C391 0.929 . S
H373 C392 0.929 . S
H374 C404 0.931 . S
H375 C396 0.929 . S
H376 C405 0.930 . S
H377 C397 0.931 . S
O378 Co354 2.097 . S
O378 C406 1.214 . S
H379 C407 0.929 . S
H380 C408 0.929 . S
H381 C409 0.930 . S
H382 C410 0.929 . S
H383 C412 0.930 . S
H384 C389 0.930 . S
H385 C393 0.930 . S
O386 Co355 2.037 . S
O386 C406 1.234 . S
C387 O361 1.269 . S
C387 O362 1.257 . S
C388 H363 0.930 . S
C388 C391 1.388 . S
C388 C393 1.418 . S
C389 H384 0.930 . S
C389 C392 1.404 . S
C389 C393 1.353 . S
N390 Co355 2.145 . S
N390 C391 1.397 . S
N390 C392 1.334 . S
C391 H372 0.929 . S
C391 C388 1.388 . S
C391 N390 1.397 . S
C392 H373 0.929 . S
C392 C389 1.404 . S
C392 N390 1.334 . S
C393 H385 0.930 . S
C393 C388 1.418 . S
C393 C389 1.353 . S
C394 H364 0.930 . S
C394 N395 1.330 . S
C394 C396 1.446 . S
N395 Co354 2.151 . S
N395 C394 1.330 . S
N395 C399 1.418 . S
C396 H375 0.929 . S
C396 C394 1.446 . S
C396 C397 1.332 . S
C397 H377 0.931 . S
C397 C396 1.332 . S
C397 C398 1.267 . S
C398 H366 0.929 . S
C398 C397 1.267 . S
C398 C399 1.251 . S
C399 H369 0.929 . S
C399 N395 1.418 . S
C399 C398 1.251 . S
C400 H367 0.930 . S
C400 C402 1.406 . S
C400 C405 1.261 . S
C401 H368 0.930 . S
C401 N403 1.325 . S
C401 C404 1.357 . S
C402 H370 0.928 . S
C402 C400 1.406 . S
C402 N403 1.261 . S
N403 Co354 2.214 . S
N403 C401 1.325 . S
N403 C402 1.261 . S
C404 H374 0.931 . S
C404 C401 1.357 . S
C404 C405 1.312 . S
C405 H376 0.930 . S
C405 C400 1.261 . S
C405 C404 1.312 . S
C406 O378 1.214 . S
C406 O386 1.234 . S
C407 H379 0.929 . S
C407 C410 1.391 . S
C407 C412 1.391 . S
C408 H380 0.929 . S
C408 C409 1.390 . S
C408 N411 1.391 . S
C409 H381 0.930 . S
C409 C408 1.390 . S
C409 C410 1.392 . S
C410 H382 0.929 . S
C410 C407 1.391 . S
C410 C409 1.392 . S
N411 Co355 2.257 . S
N411 C408 1.391 . S
N411 C412 1.388 . S
C412 H383 0.930 . S
C412 C407 1.391 . S
C412 N411 1.388 . S
Co413 O415 2.143 . S
Co413 O421 2.074 . S
Co413 O424 2.093 1_556 S
Co413 O437 2.097 . S
Co413 N454 2.151 1_556 S
Co413 N462 2.214 . S
Co414 O415 2.160 . S
Co414 O420 2.058 . S
Co414 O430 2.057 . S
Co414 O445 2.037 . S
Co414 N449 2.145 . S
Co414 N470 2.257 . S
O415 Co413 2.143 . S
O415 Co414 2.160 . S
C416 O417 1.278 . S
C416 O424 1.224 . S
O417 C416 1.278 . S
C418 O419 1.245 . S
C418 O430 1.232 . S
O419 C418 1.245 . S
O420 Co414 2.058 . S
O420 C446 1.269 . S
O421 Co413 2.074 . S
O421 C446 1.257 . S
H422 C447 0.930 . S
H423 C453 0.930 . S
O424 Co413 2.093 1_554 S
O424 C416 1.224 . S
H425 C457 0.929 . S
H426 C459 0.930 . S
H427 C460 0.930 . S
H428 C458 0.929 1_556 S
H429 C461 0.928 . S
O430 Co414 2.057 . S
O430 C418 1.232 . S
H431 C450 0.929 . S
H432 C451 0.929 . S
H433 C463 0.931 . S
H434 C455 0.929 . S
H435 C464 0.930 . S
H436 C456 0.931 . S
O437 Co413 2.097 . S
O437 C465 1.214 . S
H438 C466 0.929 1_554 S
H439 C467 0.929 . S
H440 C468 0.930 . S
H441 C469 0.929 . S
H442 C471 0.930 . S
H443 C448 0.930 . S
H444 C452 0.930 . S
O445 Co414 2.037 . S
O445 C465 1.234 . S
C446 O420 1.269 . S
C446 O421 1.257 . S
C447 H422 0.930 . S
C447 C450 1.388 . S
C447 C452 1.418 . S
C448 H443 0.930 . S
C448 C451 1.404 . S
C448 C452 1.353 . S
N449 Co414 2.145 . S
N449 C450 1.397 . S
N449 C451 1.334 . S
C450 H431 0.929 . S
C450 C447 1.388 . S
C450 N449 1.397 . S
C451 H432 0.929 . S
C451 C448 1.404 . S
C451 N449 1.334 . S
C452 H444 0.930 . S
C452 C447 1.418 . S
C452 C448 1.353 . S
C453 H423 0.930 . S
C453 N454 1.330 . S
C453 C455 1.446 1_655 S
N454 Co413 2.151 1_554 S
N454 C453 1.330 . S
N454 C458 1.418 1_655 S
C455 H434 0.929 . S
C455 C453 1.446 1_455 S
C455 C456 1.332 . S
C456 H436 0.931 . S
C456 C455 1.332 . S
C456 C457 1.267 . S
C457 H425 0.929 . S
C457 C456 1.267 . S
C457 C458 1.251 . S
C458 H428 0.929 1_554 S
C458 N454 1.418 1_455 S
C458 C457 1.251 . S
C459 H426 0.930 . S
C459 C461 1.406 . S
C459 C464 1.261 1_554 S
C460 H427 0.930 . S
C460 N462 1.325 . S
C460 C463 1.357 . S
C461 H429 0.928 . S
C461 C459 1.406 . S
C461 N462 1.261 1_554 S
N462 Co413 2.214 . S
N462 C460 1.325 . S
N462 C461 1.261 1_556 S
C463 H433 0.931 . S
C463 C460 1.357 . S
C463 C464 1.312 . S
C464 H435 0.930 . S
C464 C459 1.261 1_556 S
C464 C463 1.312 . S
C465 O437 1.214 . S
C465 O445 1.234 . S
C466 H438 0.929 1_556 S
C466 C469 1.391 . S
C466 C471 1.391 . S
C467 H439 0.929 . S
C467 C468 1.390 . S
C467 N470 1.391 . S
C468 H440 0.930 . S
C468 C467 1.390 . S
C468 C469 1.392 . S
C469 H441 0.929 . S
C469 C466 1.391 . S
C469 C468 1.392 . S
N470 Co414 2.257 . S
N470 C467 1.391 . S
N470 C471 1.388 . S
C471 H442 0.930 . S
C471 C466 1.391 . S
C471 N470 1.388 . S
Co472 O474 2.143 . S
Co472 O480 2.074 . S
Co472 O483 2.093 . S
Co472 O496 2.097 . S
Co472 N513 2.151 . S
Co472 N521 2.214 . S
Co473 O474 2.160 . S
Co473 O479 2.058 . S
Co473 O489 2.057 . S
Co473 O504 2.037 . S
Co473 N508 2.145 . S
Co473 N529 2.257 . S
O474 Co472 2.143 . S
O474 Co473 2.160 . S
C475 O476 1.278 . S
C475 O483 1.224 . S
O476 C475 1.278 . S
C477 O478 1.245 . S
C477 O489 1.232 . S
O478 C477 1.245 . S
O479 Co473 2.058 . S
O479 C505 1.269 . S
O480 Co472 2.074 . S
O480 C505 1.257 . S
H481 C506 0.930 . S
H482 C512 0.930 . S
O483 Co472 2.093 . S
O483 C475 1.224 . S
H484 C516 0.929 . S
H485 C518 0.930 1_455 S
H486 C519 0.930 . S
H487 C517 0.929 . S
H488 C520 0.928 . S
O489 Co473 2.057 . S
O489 C477 1.232 . S
H490 C509 0.929 . S
H491 C510 0.929 . S
H492 C522 0.931 1_455 S
H493 C514 0.929 . S
H494 C523 0.930 . S
H495 C515 0.931 . S
O496 Co472 2.097 . S
O496 C524 1.214 . S
H497 C525 0.929 . S
H498 C526 0.929 . S
H499 C527 0.930 . S
H500 C528 0.929 . S
H501 C530 0.930 . S
H502 C507 0.930 . S
H503 C511 0.930 . S
O504 Co473 2.037 . S
O504 C524 1.234 . S
C505 O479 1.269 . S
C505 O480 1.257 . S
C506 H481 0.930 . S
C506 C509 1.388 . S
C506 C511 1.418 . S
C507 H502 0.930 . S
C507 C510 1.404 . S
C507 C511 1.353 . S
N508 Co473 2.145 . S
N508 C509 1.397 . S
N508 C510 1.334 . S
C509 H490 0.929 . S
C509 C506 1.388 . S
C509 N508 1.397 . S
C510 H491 0.929 . S
C510 C507 1.404 . S
C510 N508 1.334 . S
C511 H503 0.930 . S
C511 C506 1.418 . S
C511 C507 1.353 . S
C512 H482 0.930 . S
C512 N513 1.330 . S
C512 C514 1.446 . S
N513 Co472 2.151 . S
N513 C512 1.330 . S
N513 C517 1.418 . S
C514 H493 0.929 . S
C514 C512 1.446 . S
C514 C515 1.332 . S
C515 H495 0.931 . S
C515 C514 1.332 . S
C515 C516 1.267 . S
C516 H484 0.929 . S
C516 C515 1.267 . S
C516 C517 1.251 . S
C517 H487 0.929 . S
C517 N513 1.418 . S
C517 C516 1.251 . S
C518 H485 0.930 1_655 S
C518 C520 1.406 . S
C518 C523 1.261 1_655 S
C519 H486 0.930 . S
C519 N521 1.325 . S
C519 C522 1.357 . S
C520 H488 0.928 . S
C520 C518 1.406 . S
C520 N521 1.261 . S
N521 Co472 2.214 . S
N521 C519 1.325 . S
N521 C520 1.261 . S
C522 H492 0.931 1_655 S
C522 C519 1.357 . S
C522 C523 1.312 1_655 S
C523 H494 0.930 . S
C523 C518 1.261 1_455 S
C523 C522 1.312 1_455 S
C524 O496 1.214 . S
C524 O504 1.234 . S
C525 H497 0.929 . S
C525 C528 1.391 . S
C525 C530 1.391 . S
C526 H498 0.929 . S
C526 C527 1.390 . S
C526 N529 1.391 . S
C527 H499 0.930 . S
C527 C526 1.390 . S
C527 C528 1.392 . S
C528 H500 0.929 . S
C528 C525 1.391 . S
C528 C527 1.392 . S
N529 Co473 2.257 . S
N529 C526 1.391 . S
N529 C530 1.388 . S
C530 H501 0.930 . S
C530 C525 1.391 . S
C530 N529 1.388 . S
Co531 O533 2.143 . S
Co531 O539 2.074 . S
Co531 O542 2.093 . S
Co531 O555 2.097 . S
Co531 N572 2.151 . S
Co531 N580 2.214 . S
Co532 O533 2.160 . S
Co532 O538 2.058 . S
Co532 O548 2.057 . S
Co532 O563 2.037 . S
Co532 N567 2.145 . S
Co532 N588 2.257 . S
O533 Co531 2.143 . S
O533 Co532 2.160 . S
C534 O535 1.278 . S
C534 O542 1.224 . S
O535 C534 1.278 . S
C536 O537 1.245 . S
C536 O548 1.232 . S
O537 C536 1.245 . S
O538 Co532 2.058 . S
O538 C564 1.269 . S
O539 Co531 2.074 . S
O539 C564 1.257 . S
H540 C565 0.930 . S
H541 C571 0.930 . S
O542 Co531 2.093 . S
O542 C534 1.224 . S
H543 C575 0.929 . S
H544 C577 0.930 . S
H545 C578 0.930 . S
H546 C576 0.929 . S
H547 C579 0.928 . S
O548 Co532 2.057 . S
O548 C536 1.232 . S
H549 C568 0.929 . S
H550 C569 0.929 . S
H551 C581 0.931 . S
H552 C573 0.929 . S
H553 C582 0.930 . S
H554 C574 0.931 . S
O555 Co531 2.097 . S
O555 C583 1.214 . S
H556 C584 0.929 . S
H557 C585 0.929 . S
H558 C586 0.930 . S
H559 C587 0.929 . S
H560 C589 0.930 . S
H561 C566 0.930 . S
H562 C570 0.930 . S
O563 Co532 2.037 . S
O563 C583 1.234 . S
C564 O538 1.269 . S
C564 O539 1.257 . S
C565 H540 0.930 . S
C565 C568 1.388 . S
C565 C570 1.418 . S
C566 H561 0.930 . S
C566 C569 1.404 . S
C566 C570 1.353 . S
N567 Co532 2.145 . S
N567 C568 1.397 . S
N567 C569 1.334 . S
C568 H549 0.929 . S
C568 C565 1.388 . S
C568 N567 1.397 . S
C569 H550 0.929 . S
C569 C566 1.404 . S
C569 N567 1.334 . S
C570 H562 0.930 . S
C570 C565 1.418 . S
C570 C566 1.353 . S
C571 H541 0.930 . S
C571 N572 1.330 . S
C571 C573 1.446 1_455 S
N572 Co531 2.151 . S
N572 C571 1.330 . S
N572 C576 1.418 1_455 S
C573 H552 0.929 . S
C573 C571 1.446 1_655 S
C573 C574 1.332 . S
C574 H554 0.931 . S
C574 C573 1.332 . S
C574 C575 1.267 . S
C575 H543 0.929 . S
C575 C574 1.267 . S
C575 C576 1.251 . S
C576 H546 0.929 . S
C576 N572 1.418 1_655 S
C576 C575 1.251 . S
C577 H544 0.930 . S
C577 C579 1.406 . S
C577 C582 1.261 . S
C578 H545 0.930 . S
C578 N580 1.325 . S
C578 C581 1.357 . S
C579 H547 0.928 . S
C579 C577 1.406 . S
C579 N580 1.261 . S
N580 Co531 2.214 . S
N580 C578 1.325 . S
N580 C579 1.261 . S
C581 H551 0.931 . S
C581 C578 1.357 . S
C581 C582 1.312 . S
C582 H553 0.930 . S
C582 C577 1.261 . S
C582 C581 1.312 . S
C583 O555 1.214 . S
C583 O563 1.234 . S
C584 H556 0.929 . S
C584 C587 1.391 . S
C584 C589 1.391 . S
C585 H557 0.929 . S
C585 C586 1.390 . S
C585 N588 1.391 . S
C586 H558 0.930 . S
C586 C585 1.390 . S
C586 C587 1.392 . S
C587 H559 0.929 . S
C587 C584 1.391 . S
C587 C586 1.392 . S
N588 Co532 2.257 . S
N588 C585 1.391 . S
N588 C589 1.388 . S
C589 H560 0.930 . S
C589 C584 1.391 . S
C589 N588 1.388 . S
Co590 O592 2.143 . S
Co590 O598 2.074 . S
Co590 O601 2.093 . S
Co590 O614 2.097 . S
Co590 N631 2.151 . S
Co590 N639 2.214 . S
Co591 O592 2.160 . S
Co591 O597 2.058 . S
Co591 O607 2.057 . S
Co591 O622 2.037 . S
Co591 N626 2.145 . S
Co591 N647 2.257 . S
O592 Co590 2.143 . S
O592 Co591 2.160 . S
C593 O594 1.278 . S
C593 O601 1.224 . S
O594 C593 1.278 . S
C595 O596 1.245 . S
C595 O607 1.232 . S
O596 C595 1.245 . S
O597 Co591 2.058 . S
O597 C623 1.269 . S
O598 Co590 2.074 . S
O598 C623 1.257 . S
H599 C624 0.930 . S
H600 C630 0.930 . S
O601 Co590 2.093 . S
O601 C593 1.224 . S
H602 C634 0.929 . S
H603 C636 0.930 . S
H604 C637 0.930 . S
H605 C635 0.929 . S
H606 C638 0.928 . S
O607 Co591 2.057 . S
O607 C595 1.232 . S
H608 C627 0.929 . S
H609 C628 0.929 . S
H610 C640 0.931 . S
H611 C632 0.929 . S
H612 C641 0.930 . S
H613 C633 0.931 . S
O614 Co590 2.097 . S
O614 C642 1.214 . S
H615 C643 0.929 . S
H616 C644 0.929 . S
H617 C645 0.930 . S
H618 C646 0.929 . S
H619 C648 0.930 . S
H620 C625 0.930 . S
H621 C629 0.930 . S
O622 Co591 2.037 . S
O622 C642 1.234 . S
C623 O597 1.269 . S
C623 O598 1.257 . S
C624 H599 0.930 . S
C624 C627 1.388 . S
C624 C629 1.418 . S
C625 H620 0.930 . S
C625 C628 1.404 . S
C625 C629 1.353 . S
N626 Co591 2.145 . S
N626 C627 1.397 . S
N626 C628 1.334 . S
C627 H608 0.929 . S
C627 C624 1.388 . S
C627 N626 1.397 . S
C628 H609 0.929 . S
C628 C625 1.404 . S
C628 N626 1.334 . S
C629 H621 0.930 . S
C629 C624 1.418 . S
C629 C625 1.353 . S
C630 H600 0.930 . S
C630 N631 1.330 . S
C630 C632 1.446 . S
N631 Co590 2.151 . S
N631 C630 1.330 . S
N631 C635 1.418 . S
C632 H611 0.929 . S
C632 C630 1.446 . S
C632 C633 1.332 . S
C633 H613 0.931 . S
C633 C632 1.332 . S
C633 C634 1.267 . S
C634 H602 0.929 . S
C634 C633 1.267 . S
C634 C635 1.251 . S
C635 H605 0.929 . S
C635 N631 1.418 . S
C635 C634 1.251 . S
C636 H603 0.930 . S
C636 C638 1.406 . S
C636 C641 1.261 . S
C637 H604 0.930 . S
C637 N639 1.325 . S
C637 C640 1.357 . S
C638 H606 0.928 . S
C638 C636 1.406 . S
C638 N639 1.261 . S
N639 Co590 2.214 . S
N639 C637 1.325 . S
N639 C638 1.261 . S
C640 H610 0.931 . S
C640 C637 1.357 . S
C640 C641 1.312 . S
C641 H612 0.930 . S
C641 C636 1.261 . S
C641 C640 1.312 . S
C642 O614 1.214 . S
C642 O622 1.234 . S
C643 H615 0.929 . S
C643 C646 1.391 . S
C643 C648 1.391 . S
C644 H616 0.929 . S
C644 C645 1.390 . S
C644 N647 1.391 . S
C645 H617 0.930 . S
C645 C644 1.390 . S
C645 C646 1.392 . S
C646 H618 0.929 . S
C646 C643 1.391 . S
C646 C645 1.392 . S
N647 Co591 2.257 . S
N647 C644 1.391 . S
N647 C648 1.388 . S
C648 H619 0.930 . S
C648 C643 1.391 . S
C648 N647 1.388 . S
Co649 O651 2.143 . S
Co649 O657 2.074 . S
Co649 O660 2.093 1_556 S
Co649 O673 2.097 . S
Co649 N690 2.151 1_556 S
Co649 N698 2.214 . S
Co650 O651 2.160 . S
Co650 O656 2.058 . S
Co650 O666 2.057 . S
Co650 O681 2.037 . S
Co650 N685 2.145 . S
Co650 N706 2.257 . S
O651 Co649 2.143 . S
O651 Co650 2.160 . S
C652 O653 1.278 . S
C652 O660 1.224 . S
O653 C652 1.278 . S
C654 O655 1.245 . S
C654 O666 1.232 . S
O655 C654 1.245 . S
O656 Co650 2.058 . S
O656 C682 1.269 . S
O657 Co649 2.074 . S
O657 C682 1.257 . S
H658 C683 0.930 . S
H659 C689 0.930 . S
O660 Co649 2.093 1_554 S
O660 C652 1.224 . S
H661 C693 0.929 . S
H662 C695 0.930 . S
H663 C696 0.930 . S
H664 C694 0.929 1_556 S
H665 C697 0.928 . S
O666 Co650 2.057 . S
O666 C654 1.232 . S
H667 C686 0.929 . S
H668 C687 0.929 . S
H669 C699 0.931 . S
H670 C691 0.929 . S
H671 C700 0.930 . S
H672 C692 0.931 . S
O673 Co649 2.097 . S
O673 C701 1.214 . S
H674 C702 0.929 1_554 S
H675 C703 0.929 . S
H676 C704 0.930 . S
H677 C705 0.929 . S
H678 C707 0.930 . S
H679 C684 0.930 . S
H680 C688 0.930 . S
O681 Co650 2.037 . S
O681 C701 1.234 . S
C682 O656 1.269 . S
C682 O657 1.257 . S
C683 H658 0.930 . S
C683 C686 1.388 . S
C683 C688 1.418 . S
C684 H679 0.930 . S
C684 C687 1.404 . S
C684 C688 1.353 . S
N685 Co650 2.145 . S
N685 C686 1.397 . S
N685 C687 1.334 . S
C686 H667 0.929 . S
C686 C683 1.388 . S
C686 N685 1.397 . S
C687 H668 0.929 . S
C687 C684 1.404 . S
C687 N685 1.334 . S
C688 H680 0.930 . S
C688 C683 1.418 . S
C688 C684 1.353 . S
C689 H659 0.930 . S
C689 N690 1.330 . S
C689 C691 1.446 . S
N690 Co649 2.151 1_554 S
N690 C689 1.330 . S
N690 C694 1.418 . S
C691 H670 0.929 . S
C691 C689 1.446 . S
C691 C692 1.332 . S
C692 H672 0.931 . S
C692 C691 1.332 . S
C692 C693 1.267 . S
C693 H661 0.929 . S
C693 C692 1.267 . S
C693 C694 1.251 . S
C694 H664 0.929 1_554 S
C694 N690 1.418 . S
C694 C693 1.251 . S
C695 H662 0.930 . S
C695 C697 1.406 . S
C695 C700 1.261 1_554 S
C696 H663 0.930 . S
C696 N698 1.325 . S
C696 C699 1.357 . S
C697 H665 0.928 . S
C697 C695 1.406 . S
C697 N698 1.261 1_554 S
N698 Co649 2.214 . S
N698 C696 1.325 . S
N698 C697 1.261 1_556 S
C699 H669 0.931 . S
C699 C696 1.357 . S
C699 C700 1.312 . S
C700 H671 0.930 . S
C700 C695 1.261 1_556 S
C700 C699 1.312 . S
C701 O673 1.214 . S
C701 O681 1.234 . S
C702 H674 0.929 1_556 S
C702 C705 1.391 . S
C702 C707 1.391 . S
C703 H675 0.929 . S
C703 C704 1.390 . S
C703 N706 1.391 . S
C704 H676 0.930 . S
C704 C703 1.390 . S
C704 C705 1.392 . S
C705 H677 0.929 . S
C705 C702 1.391 . S
C705 C704 1.392 . S
N706 Co650 2.257 . S
N706 C703 1.391 . S
N706 C707 1.388 . S
C707 H678 0.930 . S
C707 C702 1.391 . S
C707 N706 1.388 . S
Co708 O710 2.143 . S
Co708 O716 2.074 . S
Co708 O719 2.093 . S
Co708 O732 2.097 . S
Co708 N749 2.151 . S
Co708 N757 2.214 . S
Co709 O710 2.160 . S
Co709 O715 2.058 . S
Co709 O725 2.057 . S
Co709 O740 2.037 . S
Co709 N744 2.145 . S
Co709 N765 2.257 . S
O710 Co708 2.143 . S
O710 Co709 2.160 . S
C711 O712 1.278 . S
C711 O719 1.224 . S
O712 C711 1.278 . S
C713 O714 1.245 . S
C713 O725 1.232 . S
O714 C713 1.245 . S
O715 Co709 2.058 . S
O715 C741 1.269 . S
O716 Co708 2.074 . S
O716 C741 1.257 . S
H717 C742 0.930 . S
H718 C748 0.930 . S
O719 Co708 2.093 . S
O719 C711 1.224 . S
H720 C752 0.929 . S
H721 C754 0.930 1_455 S
H722 C755 0.930 . S
H723 C753 0.929 . S
H724 C756 0.928 . S
O725 Co709 2.057 . S
O725 C713 1.232 . S
H726 C745 0.929 . S
H727 C746 0.929 . S
H728 C758 0.931 1_455 S
H729 C750 0.929 . S
H730 C759 0.930 . S
H731 C751 0.931 . S
O732 Co708 2.097 . S
O732 C760 1.214 . S
H733 C761 0.929 . S
H734 C762 0.929 . S
H735 C763 0.930 . S
H736 C764 0.929 . S
H737 C766 0.930 . S
H738 C743 0.930 . S
H739 C747 0.930 . S
O740 Co709 2.037 . S
O740 C760 1.234 . S
C741 O715 1.269 . S
C741 O716 1.257 . S
C742 H717 0.930 . S
C742 C745 1.388 . S
C742 C747 1.418 . S
C743 H738 0.930 . S
C743 C746 1.404 . S
C743 C747 1.353 . S
N744 Co709 2.145 . S
N744 C745 1.397 . S
N744 C746 1.334 . S
C745 H726 0.929 . S
C745 C742 1.388 . S
C745 N744 1.397 . S
C746 H727 0.929 . S
C746 C743 1.404 . S
C746 N744 1.334 . S
C747 H739 0.930 . S
C747 C742 1.418 . S
C747 C743 1.353 . S
C748 H718 0.930 . S
C748 N749 1.330 . S
C748 C750 1.446 . S
N749 Co708 2.151 . S
N749 C748 1.330 . S
N749 C753 1.418 . S
C750 H729 0.929 . S
C750 C748 1.446 . S
C750 C751 1.332 . S
C751 H731 0.931 . S
C751 C750 1.332 . S
C751 C752 1.267 . S
C752 H720 0.929 . S
C752 C751 1.267 . S
C752 C753 1.251 . S
C753 H723 0.929 . S
C753 N749 1.418 . S
C753 C752 1.251 . S
C754 H721 0.930 1_655 S
C754 C756 1.406 . S
C754 C759 1.261 1_655 S
C755 H722 0.930 . S
C755 N757 1.325 . S
C755 C758 1.357 . S
C756 H724 0.928 . S
C756 C754 1.406 . S
C756 N757 1.261 . S
N757 Co708 2.214 . S
N757 C755 1.325 . S
N757 C756 1.261 . S
C758 H728 0.931 1_655 S
C758 C755 1.357 . S
C758 C759 1.312 1_655 S
C759 H730 0.930 . S
C759 C754 1.261 1_455 S
C759 C758 1.312 1_455 S
C760 O732 1.214 . S
C760 O740 1.234 . S
C761 H733 0.929 . S
C761 C764 1.391 . S
C761 C766 1.391 . S
C762 H734 0.929 . S
C762 C763 1.390 . S
C762 N765 1.391 . S
C763 H735 0.930 . S
C763 C762 1.390 . S
C763 C764 1.392 . S
C764 H736 0.929 . S
C764 C761 1.391 . S
C764 C763 1.392 . S
N765 Co709 2.257 . S
N765 C762 1.391 . S
N765 C766 1.388 . S
C766 H737 0.930 . S
C766 C761 1.391 . S
C766 N765 1.388 . S
Co767 O769 2.143 . S
Co767 O775 2.074 . S
Co767 O778 2.093 . S
Co767 O791 2.097 . S
Co767 N808 2.151 . S
Co767 N816 2.214 . S
Co768 O769 2.160 . S
Co768 O774 2.058 . S
Co768 O784 2.057 . S
Co768 O799 2.037 . S
Co768 N803 2.145 . S
Co768 N824 2.257 . S
O769 Co767 2.143 . S
O769 Co768 2.160 . S
C770 O771 1.278 . S
C770 O778 1.224 . S
O771 C770 1.278 . S
C772 O773 1.245 . S
C772 O784 1.232 . S
O773 C772 1.245 . S
O774 Co768 2.058 . S
O774 C800 1.269 . S
O775 Co767 2.074 . S
O775 C800 1.257 . S
H776 C801 0.930 . S
H777 C807 0.930 . S
O778 Co767 2.093 . S
O778 C770 1.224 . S
H779 C811 0.929 . S
H780 C813 0.930 . S
H781 C814 0.930 . S
H782 C812 0.929 . S
H783 C815 0.928 . S
O784 Co768 2.057 . S
O784 C772 1.232 . S
H785 C804 0.929 . S
H786 C805 0.929 . S
H787 C817 0.931 . S
H788 C809 0.929 . S
H789 C818 0.930 . S
H790 C810 0.931 . S
O791 Co767 2.097 . S
O791 C819 1.214 . S
H792 C820 0.929 . S
H793 C821 0.929 . S
H794 C822 0.930 . S
H795 C823 0.929 . S
H796 C825 0.930 . S
H797 C802 0.930 . S
H798 C806 0.930 . S
O799 Co768 2.037 . S
O799 C819 1.234 . S
C800 O774 1.269 . S
C800 O775 1.257 . S
C801 H776 0.930 . S
C801 C804 1.388 . S
C801 C806 1.418 . S
C802 H797 0.930 . S
C802 C805 1.404 . S
C802 C806 1.353 . S
N803 Co768 2.145 . S
N803 C804 1.397 . S
N803 C805 1.334 . S
C804 H785 0.929 . S
C804 C801 1.388 . S
C804 N803 1.397 . S
C805 H786 0.929 . S
C805 C802 1.404 . S
C805 N803 1.334 . S
C806 H798 0.930 . S
C806 C801 1.418 . S
C806 C802 1.353 . S
C807 H777 0.930 . S
C807 N808 1.330 . S
C807 C809 1.446 . S
N808 Co767 2.151 . S
N808 C807 1.330 . S
N808 C812 1.418 . S
C809 H788 0.929 . S
C809 C807 1.446 . S
C809 C810 1.332 . S
C810 H790 0.931 . S
C810 C809 1.332 . S
C810 C811 1.267 . S
C811 H779 0.929 . S
C811 C810 1.267 . S
C811 C812 1.251 . S
C812 H782 0.929 . S
C812 N808 1.418 . S
C812 C811 1.251 . S
C813 H780 0.930 . S
C813 C815 1.406 . S
C813 C818 1.261 . S
C814 H781 0.930 . S
C814 N816 1.325 . S
C814 C817 1.357 . S
C815 H783 0.928 . S
C815 C813 1.406 . S
C815 N816 1.261 . S
N816 Co767 2.214 . S
N816 C814 1.325 . S
N816 C815 1.261 . S
C817 H787 0.931 . S
C817 C814 1.357 . S
C817 C818 1.312 . S
C818 H789 0.930 . S
C818 C813 1.261 . S
C818 C817 1.312 . S
C819 O791 1.214 . S
C819 O799 1.234 . S
C820 H792 0.929 . S
C820 C823 1.391 . S
C820 C825 1.391 . S
C821 H793 0.929 . S
C821 C822 1.390 . S
C821 N824 1.391 . S
C822 H794 0.930 . S
C822 C821 1.390 . S
C822 C823 1.392 . S
C823 H795 0.929 . S
C823 C820 1.391 . S
C823 C822 1.392 . S
N824 Co768 2.257 . S
N824 C821 1.391 . S
N824 C825 1.388 . S
C825 H796 0.930 . S
C825 C820 1.391 . S
C825 N824 1.388 . S
Co826 O828 2.143 . S
Co826 O834 2.074 . S
Co826 O837 2.093 . S
Co826 O850 2.097 . S
Co826 N867 2.151 . S
Co826 N875 2.214 . S
Co827 O828 2.160 . S
Co827 O833 2.058 . S
Co827 O843 2.057 . S
Co827 O858 2.037 . S
Co827 N862 2.145 . S
Co827 N883 2.257 . S
O828 Co826 2.143 . S
O828 Co827 2.160 . S
C829 O830 1.278 . S
C829 O837 1.224 . S
O830 C829 1.278 . S
C831 O832 1.245 . S
C831 O843 1.232 . S
O832 C831 1.245 . S
O833 Co827 2.058 . S
O833 C859 1.269 . S
O834 Co826 2.074 . S
O834 C859 1.257 . S
H835 C860 0.930 . S
H836 C866 0.930 . S
O837 Co826 2.093 . S
O837 C829 1.224 . S
H838 C870 0.929 . S
H839 C872 0.930 . S
H840 C873 0.930 . S
H841 C871 0.929 . S
H842 C874 0.928 . S
O843 Co827 2.057 . S
O843 C831 1.232 . S
H844 C863 0.929 . S
H845 C864 0.929 . S
H846 C876 0.931 . S
H847 C868 0.929 . S
H848 C877 0.930 . S
H849 C869 0.931 . S
O850 Co826 2.097 . S
O850 C878 1.214 . S
H851 C879 0.929 . S
H852 C880 0.929 . S
H853 C881 0.930 . S
H854 C882 0.929 . S
H855 C884 0.930 . S
H856 C861 0.930 . S
H857 C865 0.930 . S
O858 Co827 2.037 . S
O858 C878 1.234 . S
C859 O833 1.269 . S
C859 O834 1.257 . S
C860 H835 0.930 . S
C860 C863 1.388 . S
C860 C865 1.418 . S
C861 H856 0.930 . S
C861 C864 1.404 . S
C861 C865 1.353 . S
N862 Co827 2.145 . S
N862 C863 1.397 . S
N862 C864 1.334 . S
C863 H844 0.929 . S
C863 C860 1.388 . S
C863 N862 1.397 . S
C864 H845 0.929 . S
C864 C861 1.404 . S
C864 N862 1.334 . S
C865 H857 0.930 . S
C865 C860 1.418 . S
C865 C861 1.353 . S
C866 H836 0.930 . S
C866 N867 1.330 . S
C866 C868 1.446 . S
N867 Co826 2.151 . S
N867 C866 1.330 . S
N867 C871 1.418 . S
C868 H847 0.929 . S
C868 C866 1.446 . S
C868 C869 1.332 . S
C869 H849 0.931 . S
C869 C868 1.332 . S
C869 C870 1.267 . S
C870 H838 0.929 . S
C870 C869 1.267 . S
C870 C871 1.251 . S
C871 H841 0.929 . S
C871 N867 1.418 . S
C871 C870 1.251 . S
C872 H839 0.930 . S
C872 C874 1.406 . S
C872 C877 1.261 . S
C873 H840 0.930 . S
C873 N875 1.325 . S
C873 C876 1.357 . S
C874 H842 0.928 . S
C874 C872 1.406 . S
C874 N875 1.261 . S
N875 Co826 2.214 . S
N875 C873 1.325 . S
N875 C874 1.261 . S
C876 H846 0.931 . S
C876 C873 1.357 . S
C876 C877 1.312 . S
C877 H848 0.930 . S
C877 C872 1.261 . S
C877 C876 1.312 . S
C878 O850 1.214 . S
C878 O858 1.234 . S
C879 H851 0.929 . S
C879 C882 1.391 . S
C879 C884 1.391 . S
C880 H852 0.929 . S
C880 C881 1.390 . S
C880 N883 1.391 . S
C881 H853 0.930 . S
C881 C880 1.390 . S
C881 C882 1.392 . S
C882 H854 0.929 . S
C882 C879 1.391 . S
C882 C881 1.392 . S
N883 Co827 2.257 . S
N883 C880 1.391 . S
N883 C884 1.388 . S
C884 H855 0.930 . S
C884 C879 1.391 . S
C884 N883 1.388 . S
Co885 O887 2.143 . S
Co885 O893 2.074 . S
Co885 O896 2.093 1_554 S
Co885 O909 2.097 . S
Co885 N926 2.151 1_554 S
Co885 N934 2.214 . S
Co886 O887 2.160 . S
Co886 O892 2.058 . S
Co886 O902 2.057 . S
Co886 O917 2.037 . S
Co886 N921 2.145 . S
Co886 N942 2.257 . S
O887 Co885 2.143 . S
O887 Co886 2.160 . S
C888 O889 1.278 . S
C888 O896 1.224 . S
O889 C888 1.278 . S
C890 O891 1.245 . S
C890 O902 1.232 . S
O891 C890 1.245 . S
O892 Co886 2.058 . S
O892 C918 1.269 . S
O893 Co885 2.074 . S
O893 C918 1.257 . S
H894 C919 0.930 . S
H895 C925 0.930 . S
O896 Co885 2.093 1_556 S
O896 C888 1.224 . S
H897 C929 0.929 . S
H898 C931 0.930 . S
H899 C932 0.930 . S
H900 C930 0.929 1_554 S
H901 C933 0.928 . S
O902 Co886 2.057 . S
O902 C890 1.232 . S
H903 C922 0.929 . S
H904 C923 0.929 . S
H905 C935 0.931 . S
H906 C927 0.929 . S
H907 C936 0.930 . S
H908 C928 0.931 . S
O909 Co885 2.097 . S
O909 C937 1.214 . S
H910 C938 0.929 1_556 S
H911 C939 0.929 . S
H912 C940 0.930 . S
H913 C941 0.929 . S
H914 C943 0.930 . S
H915 C920 0.930 . S
H916 C924 0.930 . S
O917 Co886 2.037 . S
O917 C937 1.234 . S
C918 O892 1.269 . S
C918 O893 1.257 . S
C919 H894 0.930 . S
C919 C922 1.388 . S
C919 C924 1.418 . S
C920 H915 0.930 . S
C920 C923 1.404 . S
C920 C924 1.353 . S
N921 Co886 2.145 . S
N921 C922 1.397 . S
N921 C923 1.334 . S
C922 H903 0.929 . S
C922 C919 1.388 . S
C922 N921 1.397 . S
C923 H904 0.929 . S
C923 C920 1.404 . S
C923 N921 1.334 . S
C924 H916 0.930 . S
C924 C919 1.418 . S
C924 C920 1.353 . S
C925 H895 0.930 . S
C925 N926 1.330 . S
C925 C927 1.446 1_455 S
N926 Co885 2.151 1_556 S
N926 C925 1.330 . S
N926 C930 1.418 1_455 S
C927 H906 0.929 . S
C927 C925 1.446 1_655 S
C927 C928 1.332 . S
C928 H908 0.931 . S
C928 C927 1.332 . S
C928 C929 1.267 . S
C929 H897 0.929 . S
C929 C928 1.267 . S
C929 C930 1.251 . S
C930 H900 0.929 1_556 S
C930 N926 1.418 1_655 S
C930 C929 1.251 . S
C931 H898 0.930 . S
C931 C933 1.406 . S
C931 C936 1.261 1_556 S
C932 H899 0.930 . S
C932 N934 1.325 . S
C932 C935 1.357 . S
C933 H901 0.928 . S
C933 C931 1.406 . S
C933 N934 1.261 1_556 S
N934 Co885 2.214 . S
N934 C932 1.325 . S
N934 C933 1.261 1_554 S
C935 H905 0.931 . S
C935 C932 1.357 . S
C935 C936 1.312 . S
C936 H907 0.930 . S
C936 C931 1.261 1_554 S
C936 C935 1.312 . S
C937 O909 1.214 . S
C937 O917 1.234 . S
C938 H910 0.929 1_554 S
C938 C941 1.391 . S
C938 C943 1.391 . S
C939 H911 0.929 . S
C939 C940 1.390 . S
C939 N942 1.391 . S
C940 H912 0.930 . S
C940 C939 1.390 . S
C940 C941 1.392 . S
C941 H913 0.929 . S
C941 C938 1.391 . S
C941 C940 1.392 . S
N942 Co886 2.257 . S
N942 C939 1.391 . S
N942 C943 1.388 . S
C943 H914 0.930 . S
C943 C938 1.391 . S
C943 N942 1.388 . S
Co944 O946 2.143 . S
Co944 O952 2.074 . S
Co944 O955 2.093 . S
Co944 O968 2.097 . S
Co944 N985 2.151 . S
Co944 N993 2.214 . S
Co945 O946 2.160 . S
Co945 O951 2.058 . S
Co945 O961 2.057 . S
Co945 O976 2.037 . S
Co945 N980 2.145 . S
Co945 N1001 2.257 . S
O946 Co944 2.143 . S
O946 Co945 2.160 . S
C947 O948 1.278 . S
C947 O955 1.224 . S
O948 C947 1.278 . S
C949 O950 1.245 . S
C949 O961 1.232 . S
O950 C949 1.245 . S
O951 Co945 2.058 . S
O951 C977 1.269 . S
O952 Co944 2.074 . S
O952 C977 1.257 . S
H953 C978 0.930 . S
H954 C984 0.930 . S
O955 Co944 2.093 . S
O955 C947 1.224 . S
H956 C988 0.929 . S
H957 C990 0.930 . S
H958 C991 0.930 . S
H959 C989 0.929 . S
H960 C992 0.928 . S
O961 Co945 2.057 . S
O961 C949 1.232 . S
H962 C981 0.929 . S
H963 C982 0.929 . S
H964 C994 0.931 . S
H965 C986 0.929 . S
H966 C995 0.930 . S
H967 C987 0.931 . S
O968 Co944 2.097 . S
O968 C996 1.214 . S
H969 C997 0.929 . S
H970 C998 0.929 . S
H971 C999 0.930 . S
H972 C1000 0.929 . S
H973 C1002 0.930 . S
H974 C979 0.930 . S
H975 C983 0.930 . S
O976 Co945 2.037 . S
O976 C996 1.234 . S
C977 O951 1.269 . S
C977 O952 1.257 . S
C978 H953 0.930 . S
C978 C981 1.388 . S
C978 C983 1.418 . S
C979 H974 0.930 . S
C979 C982 1.404 . S
C979 C983 1.353 . S
N980 Co945 2.145 . S
N980 C981 1.397 . S
N980 C982 1.334 . S
C981 H962 0.929 . S
C981 C978 1.388 . S
C981 N980 1.397 . S
C982 H963 0.929 . S
C982 C979 1.404 . S
C982 N980 1.334 . S
C983 H975 0.930 . S
C983 C978 1.418 . S
C983 C979 1.353 . S
C984 H954 0.930 . S
C984 N985 1.330 . S
C984 C986 1.446 . S
N985 Co944 2.151 . S
N985 C984 1.330 . S
N985 C989 1.418 . S
C986 H965 0.929 . S
C986 C984 1.446 . S
C986 C987 1.332 . S
C987 H967 0.931 . S
C987 C986 1.332 . S
C987 C988 1.267 . S
C988 H956 0.929 . S
C988 C987 1.267 . S
C988 C989 1.251 . S
C989 H959 0.929 . S
C989 N985 1.418 . S
C989 C988 1.251 . S
C990 H957 0.930 . S
C990 C992 1.406 . S
C990 C995 1.261 . S
C991 H958 0.930 . S
C991 N993 1.325 . S
C991 C994 1.357 . S
C992 H960 0.928 . S
C992 C990 1.406 . S
C992 N993 1.261 . S
N993 Co944 2.214 . S
N993 C991 1.325 . S
N993 C992 1.261 . S
C994 H964 0.931 . S
C994 C991 1.357 . S
C994 C995 1.312 . S
C995 H966 0.930 . S
C995 C990 1.261 . S
C995 C994 1.312 . S
C996 O968 1.214 . S
C996 O976 1.234 . S
C997 H969 0.929 . S
C997 C1000 1.391 . S
C997 C1002 1.391 . S
C998 H970 0.929 . S
C998 C999 1.390 . S
C998 N1001 1.391 . S
C999 H971 0.930 . S
C999 C998 1.390 . S
C999 C1000 1.392 . S
C1000 H972 0.929 . S
C1000 C997 1.391 . S
C1000 C999 1.392 . S
N1001 Co945 2.257 . S
N1001 C998 1.391 . S
N1001 C1002 1.388 . S
C1002 H973 0.930 . S
C1002 C997 1.391 . S
C1002 N1001 1.388 . S
Co1003 O1005 2.143 . S
Co1003 O1011 2.074 . S
Co1003 O1014 2.093 1_554 S
Co1003 O1027 2.097 . S
Co1003 N1044 2.151 1_554 S
Co1003 N1052 2.214 . S
Co1004 O1005 2.160 . S
Co1004 O1010 2.058 . S
Co1004 O1020 2.057 . S
Co1004 O1035 2.037 . S
Co1004 N1039 2.145 . S
Co1004 N1060 2.257 . S
O1005 Co1003 2.143 . S
O1005 Co1004 2.160 . S
C1006 O1007 1.278 . S
C1006 O1014 1.224 . S
O1007 C1006 1.278 . S
C1008 O1009 1.245 . S
C1008 O1020 1.232 . S
O1009 C1008 1.245 . S
O1010 Co1004 2.058 . S
O1010 C1036 1.269 . S
O1011 Co1003 2.074 . S
O1011 C1036 1.257 . S
H1012 C1037 0.930 . S
H1013 C1043 0.930 . S
O1014 Co1003 2.093 1_556 S
O1014 C1006 1.224 . S
H1015 C1047 0.929 . S
H1016 C1049 0.930 . S
H1017 C1050 0.930 . S
H1018 C1048 0.929 1_554 S
H1019 C1051 0.928 . S
O1020 Co1004 2.057 . S
O1020 C1008 1.232 . S
H1021 C1040 0.929 . S
H1022 C1041 0.929 . S
H1023 C1053 0.931 . S
H1024 C1045 0.929 . S
H1025 C1054 0.930 . S
H1026 C1046 0.931 . S
O1027 Co1003 2.097 . S
O1027 C1055 1.214 . S
H1028 C1056 0.929 1_556 S
H1029 C1057 0.929 . S
H1030 C1058 0.930 . S
H1031 C1059 0.929 . S
H1032 C1061 0.930 . S
H1033 C1038 0.930 . S
H1034 C1042 0.930 . S
O1035 Co1004 2.037 . S
O1035 C1055 1.234 . S
C1036 O1010 1.269 . S
C1036 O1011 1.257 . S
C1037 H1012 0.930 . S
C1037 C1040 1.388 . S
C1037 C1042 1.418 . S
C1038 H1033 0.930 . S
C1038 C1041 1.404 . S
C1038 C1042 1.353 . S
N1039 Co1004 2.145 . S
N1039 C1040 1.397 . S
N1039 C1041 1.334 . S
C1040 H1021 0.929 . S
C1040 C1037 1.388 . S
C1040 N1039 1.397 . S
C1041 H1022 0.929 . S
C1041 C1038 1.404 . S
C1041 N1039 1.334 . S
C1042 H1034 0.930 . S
C1042 C1037 1.418 . S
C1042 C1038 1.353 . S
C1043 H1013 0.930 . S
C1043 N1044 1.330 . S
C1043 C1045 1.446 . S
N1044 Co1003 2.151 1_556 S
N1044 C1043 1.330 . S
N1044 C1048 1.418 . S
C1045 H1024 0.929 . S
C1045 C1043 1.446 . S
C1045 C1046 1.332 . S
C1046 H1026 0.931 . S
C1046 C1045 1.332 . S
C1046 C1047 1.267 . S
C1047 H1015 0.929 . S
C1047 C1046 1.267 . S
C1047 C1048 1.251 . S
C1048 H1018 0.929 1_556 S
C1048 N1044 1.418 . S
C1048 C1047 1.251 . S
C1049 H1016 0.930 . S
C1049 C1051 1.406 . S
C1049 C1054 1.261 1_556 S
C1050 H1017 0.930 . S
C1050 N1052 1.325 . S
C1050 C1053 1.357 . S
C1051 H1019 0.928 . S
C1051 C1049 1.406 . S
C1051 N1052 1.261 1_556 S
N1052 Co1003 2.214 . S
N1052 C1050 1.325 . S
N1052 C1051 1.261 1_554 S
C1053 H1023 0.931 . S
C1053 C1050 1.357 . S
C1053 C1054 1.312 . S
C1054 H1025 0.930 . S
C1054 C1049 1.261 1_554 S
C1054 C1053 1.312 . S
C1055 O1027 1.214 . S
C1055 O1035 1.234 . S
C1056 H1028 0.929 1_554 S
C1056 C1059 1.391 . S
C1056 C1061 1.391 . S
C1057 H1029 0.929 . S
C1057 C1058 1.390 . S
C1057 N1060 1.391 . S
C1058 H1030 0.930 . S
C1058 C1057 1.390 . S
C1058 C1059 1.392 . S
C1059 H1031 0.929 . S
C1059 C1056 1.391 . S
C1059 C1058 1.392 . S
N1060 Co1004 2.257 . S
N1060 C1057 1.391 . S
N1060 C1061 1.388 . S
C1061 H1032 0.930 . S
C1061 C1056 1.391 . S
C1061 N1060 1.388 . S
Co1062 O1064 2.143 . S
Co1062 O1070 2.074 . S
Co1062 O1073 2.093 . S
Co1062 O1086 2.097 . S
Co1062 N1103 2.151 . S
Co1062 N1111 2.214 . S
Co1063 O1064 2.160 . S
Co1063 O1069 2.058 . S
Co1063 O1079 2.057 . S
Co1063 O1094 2.037 . S
Co1063 N1098 2.145 . S
Co1063 N1119 2.257 . S
O1064 Co1062 2.143 . S
O1064 Co1063 2.160 . S
C1065 O1066 1.278 . S
C1065 O1073 1.224 . S
O1066 C1065 1.278 . S
C1067 O1068 1.245 . S
C1067 O1079 1.232 . S
O1068 C1067 1.245 . S
O1069 Co1063 2.058 . S
O1069 C1095 1.269 . S
O1070 Co1062 2.074 . S
O1070 C1095 1.257 . S
H1071 C1096 0.930 . S
H1072 C1102 0.930 . S
O1073 Co1062 2.093 . S
O1073 C1065 1.224 . S
H1074 C1106 0.929 . S
H1075 C1108 0.930 1_455 S
H1076 C1109 0.930 . S
H1077 C1107 0.929 . S
H1078 C1110 0.928 . S
O1079 Co1063 2.057 . S
O1079 C1067 1.232 . S
H1080 C1099 0.929 . S
H1081 C1100 0.929 . S
H1082 C1112 0.931 1_455 S
H1083 C1104 0.929 . S
H1084 C1113 0.930 . S
H1085 C1105 0.931 . S
O1086 Co1062 2.097 . S
O1086 C1114 1.214 . S
H1087 C1115 0.929 . S
H1088 C1116 0.929 . S
H1089 C1117 0.930 . S
H1090 C1118 0.929 . S
H1091 C1120 0.930 . S
H1092 C1097 0.930 . S
H1093 C1101 0.930 . S
O1094 Co1063 2.037 . S
O1094 C1114 1.234 . S
C1095 O1069 1.269 . S
C1095 O1070 1.257 . S
C1096 H1071 0.930 . S
C1096 C1099 1.388 . S
C1096 C1101 1.418 . S
C1097 H1092 0.930 . S
C1097 C1100 1.404 . S
C1097 C1101 1.353 . S
N1098 Co1063 2.145 . S
N1098 C1099 1.397 . S
N1098 C1100 1.334 . S
C1099 H1080 0.929 . S
C1099 C1096 1.388 . S
C1099 N1098 1.397 . S
C1100 H1081 0.929 . S
C1100 C1097 1.404 . S
C1100 N1098 1.334 . S
C1101 H1093 0.930 . S
C1101 C1096 1.418 . S
C1101 C1097 1.353 . S
C1102 H1072 0.930 . S
C1102 N1103 1.330 . S
C1102 C1104 1.446 . S
N1103 Co1062 2.151 . S
N1103 C1102 1.330 . S
N1103 C1107 1.418 . S
C1104 H1083 0.929 . S
C1104 C1102 1.446 . S
C1104 C1105 1.332 . S
C1105 H1085 0.931 . S
C1105 C1104 1.332 . S
C1105 C1106 1.267 . S
C1106 H1074 0.929 . S
C1106 C1105 1.267 . S
C1106 C1107 1.251 . S
C1107 H1077 0.929 . S
C1107 N1103 1.418 . S
C1107 C1106 1.251 . S
C1108 H1075 0.930 1_655 S
C1108 C1110 1.406 . S
C1108 C1113 1.261 1_655 S
C1109 H1076 0.930 . S
C1109 N1111 1.325 . S
C1109 C1112 1.357 . S
C1110 H1078 0.928 . S
C1110 C1108 1.406 . S
C1110 N1111 1.261 . S
N1111 Co1062 2.214 . S
N1111 C1109 1.325 . S
N1111 C1110 1.261 . S
C1112 H1082 0.931 1_655 S
C1112 C1109 1.357 . S
C1112 C1113 1.312 1_655 S
C1113 H1084 0.930 . S
C1113 C1108 1.261 1_455 S
C1113 C1112 1.312 1_455 S
C1114 O1086 1.214 . S
C1114 O1094 1.234 . S
C1115 H1087 0.929 . S
C1115 C1118 1.391 . S
C1115 C1120 1.391 . S
C1116 H1088 0.929 . S
C1116 C1117 1.390 . S
C1116 N1119 1.391 . S
C1117 H1089 0.930 . S
C1117 C1116 1.390 . S
C1117 C1118 1.392 . S
C1118 H1090 0.929 . S
C1118 C1115 1.391 . S
C1118 C1117 1.392 . S
N1119 Co1063 2.257 . S
N1119 C1116 1.391 . S
N1119 C1120 1.388 . S
C1120 H1091 0.930 . S
C1120 C1115 1.391 . S
C1120 N1119 1.388 . S
Co1121 O1123 2.143 . S
Co1121 O1129 2.074 . S
Co1121 O1132 2.093 . S
Co1121 O1145 2.097 . S
Co1121 N1162 2.151 . S
Co1121 N1170 2.214 . S
Co1122 O1123 2.160 . S
Co1122 O1128 2.058 . S
Co1122 O1138 2.057 . S
Co1122 O1153 2.037 . S
Co1122 N1157 2.145 . S
Co1122 N1178 2.257 . S
O1123 Co1121 2.143 . S
O1123 Co1122 2.160 . S
C1124 O1125 1.278 . S
C1124 O1132 1.224 . S
O1125 C1124 1.278 . S
C1126 O1127 1.245 . S
C1126 O1138 1.232 . S
O1127 C1126 1.245 . S
O1128 Co1122 2.058 . S
O1128 C1154 1.269 . S
O1129 Co1121 2.074 . S
O1129 C1154 1.257 . S
H1130 C1155 0.930 . S
H1131 C1161 0.930 . S
O1132 Co1121 2.093 . S
O1132 C1124 1.224 . S
H1133 C1165 0.929 . S
H1134 C1167 0.930 . S
H1135 C1168 0.930 . S
H1136 C1166 0.929 . S
H1137 C1169 0.928 . S
O1138 Co1122 2.057 . S
O1138 C1126 1.232 . S
H1139 C1158 0.929 . S
H1140 C1159 0.929 . S
H1141 C1171 0.931 . S
H1142 C1163 0.929 . S
H1143 C1172 0.930 . S
H1144 C1164 0.931 . S
O1145 Co1121 2.097 . S
O1145 C1173 1.214 . S
H1146 C1174 0.929 . S
H1147 C1175 0.929 . S
H1148 C1176 0.930 . S
H1149 C1177 0.929 . S
H1150 C1179 0.930 . S
H1151 C1156 0.930 . S
H1152 C1160 0.930 . S
O1153 Co1122 2.037 . S
O1153 C1173 1.234 . S
C1154 O1128 1.269 . S
C1154 O1129 1.257 . S
C1155 H1130 0.930 . S
C1155 C1158 1.388 . S
C1155 C1160 1.418 . S
C1156 H1151 0.930 . S
C1156 C1159 1.404 . S
C1156 C1160 1.353 . S
N1157 Co1122 2.145 . S
N1157 C1158 1.397 . S
N1157 C1159 1.334 . S
C1158 H1139 0.929 . S
C1158 C1155 1.388 . S
C1158 N1157 1.397 . S
C1159 H1140 0.929 . S
C1159 C1156 1.404 . S
C1159 N1157 1.334 . S
C1160 H1152 0.930 . S
C1160 C1155 1.418 . S
C1160 C1156 1.353 . S
C1161 H1131 0.930 . S
C1161 N1162 1.330 . S
C1161 C1163 1.446 1_455 S
N1162 Co1121 2.151 . S
N1162 C1161 1.330 . S
N1162 C1166 1.418 1_455 S
C1163 H1142 0.929 . S
C1163 C1161 1.446 1_655 S
C1163 C1164 1.332 . S
C1164 H1144 0.931 . S
C1164 C1163 1.332 . S
C1164 C1165 1.267 . S
C1165 H1133 0.929 . S
C1165 C1164 1.267 . S
C1165 C1166 1.251 . S
C1166 H1136 0.929 . S
C1166 N1162 1.418 1_655 S
C1166 C1165 1.251 . S
C1167 H1134 0.930 . S
C1167 C1169 1.406 . S
C1167 C1172 1.261 . S
C1168 H1135 0.930 . S
C1168 N1170 1.325 . S
C1168 C1171 1.357 . S
C1169 H1137 0.928 . S
C1169 C1167 1.406 . S
C1169 N1170 1.261 . S
N1170 Co1121 2.214 . S
N1170 C1168 1.325 . S
N1170 C1169 1.261 . S
C1171 H1141 0.931 . S
C1171 C1168 1.357 . S
C1171 C1172 1.312 . S
C1172 H1143 0.930 . S
C1172 C1167 1.261 . S
C1172 C1171 1.312 . S
C1173 O1145 1.214 . S
C1173 O1153 1.234 . S
C1174 H1146 0.929 . S
C1174 C1177 1.391 . S
C1174 C1179 1.391 . S
C1175 H1147 0.929 . S
C1175 C1176 1.390 . S
C1175 N1178 1.391 . S
C1176 H1148 0.930 . S
C1176 C1175 1.390 . S
C1176 C1177 1.392 . S
C1177 H1149 0.929 . S
C1177 C1174 1.391 . S
C1177 C1176 1.392 . S
N1178 Co1122 2.257 . S
N1178 C1175 1.391 . S
N1178 C1179 1.388 . S
C1179 H1150 0.930 . S
C1179 C1174 1.391 . S
C1179 N1178 1.388 . S
Co1180 O1182 2.143 . S
Co1180 O1188 2.074 . S
Co1180 O1191 2.093 . S
Co1180 O1204 2.097 . S
Co1180 N1221 2.151 . S
Co1180 N1229 2.214 . S
Co1181 O1182 2.160 . S
Co1181 O1187 2.058 . S
Co1181 O1197 2.057 . S
Co1181 O1212 2.037 . S
Co1181 N1216 2.145 . S
Co1181 N1237 2.257 . S
O1182 Co1180 2.143 . S
O1182 Co1181 2.160 . S
C1183 O1184 1.278 . S
C1183 O1191 1.224 . S
O1184 C1183 1.278 . S
C1185 O1186 1.245 . S
C1185 O1197 1.232 . S
O1186 C1185 1.245 . S
O1187 Co1181 2.058 . S
O1187 C1213 1.269 . S
O1188 Co1180 2.074 . S
O1188 C1213 1.257 . S
H1189 C1214 0.930 . S
H1190 C1220 0.930 . S
O1191 Co1180 2.093 . S
O1191 C1183 1.224 . S
H1192 C1224 0.929 . S
H1193 C1226 0.930 . S
H1194 C1227 0.930 . S
H1195 C1225 0.929 . S
H1196 C1228 0.928 . S
O1197 Co1181 2.057 . S
O1197 C1185 1.232 . S
H1198 C1217 0.929 . S
H1199 C1218 0.929 . S
H1200 C1230 0.931 . S
H1201 C1222 0.929 . S
H1202 C1231 0.930 . S
H1203 C1223 0.931 . S
O1204 Co1180 2.097 . S
O1204 C1232 1.214 . S
H1205 C1233 0.929 . S
H1206 C1234 0.929 . S
H1207 C1235 0.930 . S
H1208 C1236 0.929 . S
H1209 C1238 0.930 . S
H1210 C1215 0.930 . S
H1211 C1219 0.930 . S
O1212 Co1181 2.037 . S
O1212 C1232 1.234 . S
C1213 O1187 1.269 . S
C1213 O1188 1.257 . S
C1214 H1189 0.930 . S
C1214 C1217 1.388 . S
C1214 C1219 1.418 . S
C1215 H1210 0.930 . S
C1215 C1218 1.404 . S
C1215 C1219 1.353 . S
N1216 Co1181 2.145 . S
N1216 C1217 1.397 . S
N1216 C1218 1.334 . S
C1217 H1198 0.929 . S
C1217 C1214 1.388 . S
C1217 N1216 1.397 . S
C1218 H1199 0.929 . S
C1218 C1215 1.404 . S
C1218 N1216 1.334 . S
C1219 H1211 0.930 . S
C1219 C1214 1.418 . S
C1219 C1215 1.353 . S
C1220 H1190 0.930 . S
C1220 N1221 1.330 . S
C1220 C1222 1.446 . S
N1221 Co1180 2.151 . S
N1221 C1220 1.330 . S
N1221 C1225 1.418 . S
C1222 H1201 0.929 . S
C1222 C1220 1.446 . S
C1222 C1223 1.332 . S
C1223 H1203 0.931 . S
C1223 C1222 1.332 . S
C1223 C1224 1.267 . S
C1224 H1192 0.929 . S
C1224 C1223 1.267 . S
C1224 C1225 1.251 . S
C1225 H1195 0.929 . S
C1225 N1221 1.418 . S
C1225 C1224 1.251 . S
C1226 H1193 0.930 . S
C1226 C1228 1.406 . S
C1226 C1231 1.261 . S
C1227 H1194 0.930 . S
C1227 N1229 1.325 . S
C1227 C1230 1.357 . S
C1228 H1196 0.928 . S
C1228 C1226 1.406 . S
C1228 N1229 1.261 . S
N1229 Co1180 2.214 . S
N1229 C1227 1.325 . S
N1229 C1228 1.261 . S
C1230 H1200 0.931 . S
C1230 C1227 1.357 . S
C1230 C1231 1.312 . S
C1231 H1202 0.930 . S
C1231 C1226 1.261 . S
C1231 C1230 1.312 . S
C1232 O1204 1.214 . S
C1232 O1212 1.234 . S
C1233 H1205 0.929 . S
C1233 C1236 1.391 . S
C1233 C1238 1.391 . S
C1234 H1206 0.929 . S
C1234 C1235 1.390 . S
C1234 N1237 1.391 . S
C1235 H1207 0.930 . S
C1235 C1234 1.390 . S
C1235 C1236 1.392 . S
C1236 H1208 0.929 . S
C1236 C1233 1.391 . S
C1236 C1235 1.392 . S
N1237 Co1181 2.257 . S
N1237 C1234 1.391 . S
N1237 C1238 1.388 . S
C1238 H1209 0.930 . S
C1238 C1233 1.391 . S
C1238 N1237 1.388 . S
Co1239 O1241 2.143 . S
Co1239 O1247 2.074 . S
Co1239 O1250 2.093 1_556 S
Co1239 O1263 2.097 . S
Co1239 N1280 2.151 1_556 S
Co1239 N1288 2.214 . S
Co1240 O1241 2.160 . S
Co1240 O1246 2.058 . S
Co1240 O1256 2.057 . S
Co1240 O1271 2.037 . S
Co1240 N1275 2.145 . S
Co1240 N1296 2.257 . S
O1241 Co1239 2.143 . S
O1241 Co1240 2.160 . S
C1242 O1243 1.278 . S
C1242 O1250 1.224 . S
O1243 C1242 1.278 . S
C1244 O1245 1.245 . S
C1244 O1256 1.232 . S
O1245 C1244 1.245 . S
O1246 Co1240 2.058 . S
O1246 C1272 1.269 . S
O1247 Co1239 2.074 . S
O1247 C1272 1.257 . S
H1248 C1273 0.930 . S
H1249 C1279 0.930 . S
O1250 Co1239 2.093 1_554 S
O1250 C1242 1.224 . S
H1251 C1283 0.929 . S
H1252 C1285 0.930 . S
H1253 C1286 0.930 . S
H1254 C1284 0.929 1_556 S
H1255 C1287 0.928 . S
O1256 Co1240 2.057 . S
O1256 C1244 1.232 . S
H1257 C1276 0.929 . S
H1258 C1277 0.929 . S
H1259 C1289 0.931 . S
H1260 C1281 0.929 . S
H1261 C1290 0.930 . S
H1262 C1282 0.931 . S
O1263 Co1239 2.097 . S
O1263 C1291 1.214 . S
H1264 C1292 0.929 1_554 S
H1265 C1293 0.929 . S
H1266 C1294 0.930 . S
H1267 C1295 0.929 . S
H1268 C1297 0.930 . S
H1269 C1274 0.930 . S
H1270 C1278 0.930 . S
O1271 Co1240 2.037 . S
O1271 C1291 1.234 . S
C1272 O1246 1.269 . S
C1272 O1247 1.257 . S
C1273 H1248 0.930 . S
C1273 C1276 1.388 . S
C1273 C1278 1.418 . S
C1274 H1269 0.930 . S
C1274 C1277 1.404 . S
C1274 C1278 1.353 . S
N1275 Co1240 2.145 . S
N1275 C1276 1.397 . S
N1275 C1277 1.334 . S
C1276 H1257 0.929 . S
C1276 C1273 1.388 . S
C1276 N1275 1.397 . S
C1277 H1258 0.929 . S
C1277 C1274 1.404 . S
C1277 N1275 1.334 . S
C1278 H1270 0.930 . S
C1278 C1273 1.418 . S
C1278 C1274 1.353 . S
C1279 H1249 0.930 . S
C1279 N1280 1.330 . S
C1279 C1281 1.446 1_455 S
N1280 Co1239 2.151 1_554 S
N1280 C1279 1.330 . S
N1280 C1284 1.418 1_455 S
C1281 H1260 0.929 . S
C1281 C1279 1.446 1_655 S
C1281 C1282 1.332 . S
C1282 H1262 0.931 . S
C1282 C1281 1.332 . S
C1282 C1283 1.267 . S
C1283 H1251 0.929 . S
C1283 C1282 1.267 . S
C1283 C1284 1.251 . S
C1284 H1254 0.929 1_554 S
C1284 N1280 1.418 1_655 S
C1284 C1283 1.251 . S
C1285 H1252 0.930 . S
C1285 C1287 1.406 . S
C1285 C1290 1.261 1_554 S
C1286 H1253 0.930 . S
C1286 N1288 1.325 . S
C1286 C1289 1.357 . S
C1287 H1255 0.928 . S
C1287 C1285 1.406 . S
C1287 N1288 1.261 1_554 S
N1288 Co1239 2.214 . S
N1288 C1286 1.325 . S
N1288 C1287 1.261 1_556 S
C1289 H1259 0.931 . S
C1289 C1286 1.357 . S
C1289 C1290 1.312 . S
C1290 H1261 0.930 . S
C1290 C1285 1.261 1_556 S
C1290 C1289 1.312 . S
C1291 O1263 1.214 . S
C1291 O1271 1.234 . S
C1292 H1264 0.929 1_556 S
C1292 C1295 1.391 . S
C1292 C1297 1.391 . S
C1293 H1265 0.929 . S
C1293 C1294 1.390 . S
C1293 N1296 1.391 . S
C1294 H1266 0.930 . S
C1294 C1293 1.390 . S
C1294 C1295 1.392 . S
C1295 H1267 0.929 . S
C1295 C1292 1.391 . S
C1295 C1294 1.392 . S
N1296 Co1240 2.257 . S
N1296 C1293 1.391 . S
N1296 C1297 1.388 . S
C1297 H1268 0.930 . S
C1297 C1292 1.391 . S
C1297 N1296 1.388 . S
Co1298 O1300 2.143 . S
Co1298 O1306 2.074 . S
Co1298 O1309 2.093 . S
Co1298 O1322 2.097 . S
Co1298 N1339 2.151 . S
Co1298 N1347 2.214 . S
Co1299 O1300 2.160 . S
Co1299 O1305 2.058 . S
Co1299 O1315 2.057 . S
Co1299 O1330 2.037 . S
Co1299 N1334 2.145 . S
Co1299 N1355 2.257 . S
O1300 Co1298 2.143 . S
O1300 Co1299 2.160 . S
C1301 O1302 1.278 . S
C1301 O1309 1.224 . S
O1302 C1301 1.278 . S
C1303 O1304 1.245 . S
C1303 O1315 1.232 . S
O1304 C1303 1.245 . S
O1305 Co1299 2.058 . S
O1305 C1331 1.269 . S
O1306 Co1298 2.074 . S
O1306 C1331 1.257 . S
H1307 C1332 0.930 . S
H1308 C1338 0.930 . S
O1309 Co1298 2.093 . S
O1309 C1301 1.224 . S
H1310 C1342 0.929 . S
H1311 C1344 0.930 1_455 S
H1312 C1345 0.930 . S
H1313 C1343 0.929 . S
H1314 C1346 0.928 . S
O1315 Co1299 2.057 . S
O1315 C1303 1.232 . S
H1316 C1335 0.929 . S
H1317 C1336 0.929 . S
H1318 C1348 0.931 1_455 S
H1319 C1340 0.929 . S
H1320 C1349 0.930 . S
H1321 C1341 0.931 . S
O1322 Co1298 2.097 . S
O1322 C1350 1.214 . S
H1323 C1351 0.929 . S
H1324 C1352 0.929 . S
H1325 C1353 0.930 . S
H1326 C1354 0.929 . S
H1327 C1356 0.930 . S
H1328 C1333 0.930 . S
H1329 C1337 0.930 . S
O1330 Co1299 2.037 . S
O1330 C1350 1.234 . S
C1331 O1305 1.269 . S
C1331 O1306 1.257 . S
C1332 H1307 0.930 . S
C1332 C1335 1.388 . S
C1332 C1337 1.418 . S
C1333 H1328 0.930 . S
C1333 C1336 1.404 . S
C1333 C1337 1.353 . S
N1334 Co1299 2.145 . S
N1334 C1335 1.397 . S
N1334 C1336 1.334 . S
C1335 H1316 0.929 . S
C1335 C1332 1.388 . S
C1335 N1334 1.397 . S
C1336 H1317 0.929 . S
C1336 C1333 1.404 . S
C1336 N1334 1.334 . S
C1337 H1329 0.930 . S
C1337 C1332 1.418 . S
C1337 C1333 1.353 . S
C1338 H1308 0.930 . S
C1338 N1339 1.330 . S
C1338 C1340 1.446 . S
N1339 Co1298 2.151 . S
N1339 C1338 1.330 . S
N1339 C1343 1.418 . S
C1340 H1319 0.929 . S
C1340 C1338 1.446 . S
C1340 C1341 1.332 . S
C1341 H1321 0.931 . S
C1341 C1340 1.332 . S
C1341 C1342 1.267 . S
C1342 H1310 0.929 . S
C1342 C1341 1.267 . S
C1342 C1343 1.251 . S
C1343 H1313 0.929 . S
C1343 N1339 1.418 . S
C1343 C1342 1.251 . S
C1344 H1311 0.930 1_655 S
C1344 C1346 1.406 . S
C1344 C1349 1.261 1_655 S
C1345 H1312 0.930 . S
C1345 N1347 1.325 . S
C1345 C1348 1.357 . S
C1346 H1314 0.928 . S
C1346 C1344 1.406 . S
C1346 N1347 1.261 . S
N1347 Co1298 2.214 . S
N1347 C1345 1.325 . S
N1347 C1346 1.261 . S
C1348 H1318 0.931 1_655 S
C1348 C1345 1.357 . S
C1348 C1349 1.312 1_655 S
C1349 H1320 0.930 . S
C1349 C1344 1.261 1_455 S
C1349 C1348 1.312 1_455 S
C1350 O1322 1.214 . S
C1350 O1330 1.234 . S
C1351 H1323 0.929 . S
C1351 C1354 1.391 . S
C1351 C1356 1.391 . S
C1352 H1324 0.929 . S
C1352 C1353 1.390 . S
C1352 N1355 1.391 . S
C1353 H1325 0.930 . S
C1353 C1352 1.390 . S
C1353 C1354 1.392 . S
C1354 H1326 0.929 . S
C1354 C1351 1.391 . S
C1354 C1353 1.392 . S
N1355 Co1299 2.257 . S
N1355 C1352 1.391 . S
N1355 C1356 1.388 . S
C1356 H1327 0.930 . S
C1356 C1351 1.391 . S
C1356 N1355 1.388 . S
Co1357 O1359 2.143 . S
Co1357 O1365 2.074 . S
Co1357 O1368 2.093 . S
Co1357 O1381 2.097 . S
Co1357 N1398 2.151 . S
Co1357 N1406 2.214 . S
Co1358 O1359 2.160 . S
Co1358 O1364 2.058 . S
Co1358 O1374 2.057 . S
Co1358 O1389 2.037 . S
Co1358 N1393 2.145 . S
Co1358 N1414 2.257 . S
O1359 Co1357 2.143 . S
O1359 Co1358 2.160 . S
C1360 O1361 1.278 . S
C1360 O1368 1.224 . S
O1361 C1360 1.278 . S
C1362 O1363 1.245 . S
C1362 O1374 1.232 . S
O1363 C1362 1.245 . S
O1364 Co1358 2.058 . S
O1364 C1390 1.269 . S
O1365 Co1357 2.074 . S
O1365 C1390 1.257 . S
H1366 C1391 0.930 . S
H1367 C1397 0.930 . S
O1368 Co1357 2.093 . S
O1368 C1360 1.224 . S
H1369 C1401 0.929 . S
H1370 C1403 0.930 . S
H1371 C1404 0.930 . S
H1372 C1402 0.929 . S
H1373 C1405 0.928 . S
O1374 Co1358 2.057 . S
O1374 C1362 1.232 . S
H1375 C1394 0.929 . S
H1376 C1395 0.929 . S
H1377 C1407 0.931 . S
H1378 C1399 0.929 . S
H1379 C1408 0.930 . S
H1380 C1400 0.931 . S
O1381 Co1357 2.097 . S
O1381 C1409 1.214 . S
H1382 C1410 0.929 . S
H1383 C1411 0.929 . S
H1384 C1412 0.930 . S
H1385 C1413 0.929 . S
H1386 C1415 0.930 . S
H1387 C1392 0.930 . S
H1388 C1396 0.930 . S
O1389 Co1358 2.037 . S
O1389 C1409 1.234 . S
C1390 O1364 1.269 . S
C1390 O1365 1.257 . S
C1391 H1366 0.930 . S
C1391 C1394 1.388 . S
C1391 C1396 1.418 . S
C1392 H1387 0.930 . S
C1392 C1395 1.404 . S
C1392 C1396 1.353 . S
N1393 Co1358 2.145 . S
N1393 C1394 1.397 . S
N1393 C1395 1.334 . S
C1394 H1375 0.929 . S
C1394 C1391 1.388 . S
C1394 N1393 1.397 . S
C1395 H1376 0.929 . S
C1395 C1392 1.404 . S
C1395 N1393 1.334 . S
C1396 H1388 0.930 . S
C1396 C1391 1.418 . S
C1396 C1392 1.353 . S
C1397 H1367 0.930 . S
C1397 N1398 1.330 . S
C1397 C1399 1.446 . S
N1398 Co1357 2.151 . S
N1398 C1397 1.330 . S
N1398 C1402 1.418 . S
C1399 H1378 0.929 . S
C1399 C1397 1.446 . S
C1399 C1400 1.332 . S
C1400 H1380 0.931 . S
C1400 C1399 1.332 . S
C1400 C1401 1.267 . S
C1401 H1369 0.929 . S
C1401 C1400 1.267 . S
C1401 C1402 1.251 . S
C1402 H1372 0.929 . S
C1402 N1398 1.418 . S
C1402 C1401 1.251 . S
C1403 H1370 0.930 . S
C1403 C1405 1.406 . S
C1403 C1408 1.261 . S
C1404 H1371 0.930 . S
C1404 N1406 1.325 . S
C1404 C1407 1.357 . S
C1405 H1373 0.928 . S
C1405 C1403 1.406 . S
C1405 N1406 1.261 . S
N1406 Co1357 2.214 . S
N1406 C1404 1.325 . S
N1406 C1405 1.261 . S
C1407 H1377 0.931 . S
C1407 C1404 1.357 . S
C1407 C1408 1.312 . S
C1408 H1379 0.930 . S
C1408 C1403 1.261 . S
C1408 C1407 1.312 . S
C1409 O1381 1.214 . S
C1409 O1389 1.234 . S
C1410 H1382 0.929 . S
C1410 C1413 1.391 . S
C1410 C1415 1.391 . S
C1411 H1383 0.929 . S
C1411 C1412 1.390 . S
C1411 N1414 1.391 . S
C1412 H1384 0.930 . S
C1412 C1411 1.390 . S
C1412 C1413 1.392 . S
C1413 H1385 0.929 . S
C1413 C1410 1.391 . S
C1413 C1412 1.392 . S
N1414 Co1358 2.257 . S
N1414 C1411 1.391 . S
N1414 C1415 1.388 . S
C1415 H1386 0.930 . S
C1415 C1410 1.391 . S
C1415 N1414 1.388 . S
Co1416 O1418 2.143 . S
Co1416 O1424 2.074 . S
Co1416 O1427 2.093 . S
Co1416 O1440 2.097 . S
Co1416 N1457 2.151 . S
Co1416 N1465 2.214 . S
Co1417 O1418 2.160 . S
Co1417 O1423 2.058 . S
Co1417 O1433 2.057 . S
Co1417 O1448 2.037 . S
Co1417 N1452 2.145 . S
Co1417 N1473 2.257 . S
O1418 Co1416 2.143 . S
O1418 Co1417 2.160 . S
C1419 O1420 1.278 . S
C1419 O1427 1.224 . S
O1420 C1419 1.278 . S
C1421 O1422 1.245 . S
C1421 O1433 1.232 . S
O1422 C1421 1.245 . S
O1423 Co1417 2.058 . S
O1423 C1449 1.269 . S
O1424 Co1416 2.074 . S
O1424 C1449 1.257 . S
H1425 C1450 0.930 . S
H1426 C1456 0.930 . S
O1427 Co1416 2.093 . S
O1427 C1419 1.224 . S
H1428 C1460 0.929 . S
H1429 C1462 0.930 . S
H1430 C1463 0.930 . S
H1431 C1461 0.929 . S
H1432 C1464 0.928 . S
O1433 Co1417 2.057 . S
O1433 C1421 1.232 . S
H1434 C1453 0.929 . S
H1435 C1454 0.929 . S
H1436 C1466 0.931 . S
H1437 C1458 0.929 . S
H1438 C1467 0.930 . S
H1439 C1459 0.931 . S
O1440 Co1416 2.097 . S
O1440 C1468 1.214 . S
H1441 C1469 0.929 . S
H1442 C1470 0.929 . S
H1443 C1471 0.930 . S
H1444 C1472 0.929 . S
H1445 C1474 0.930 . S
H1446 C1451 0.930 . S
H1447 C1455 0.930 . S
O1448 Co1417 2.037 . S
O1448 C1468 1.234 . S
C1449 O1423 1.269 . S
C1449 O1424 1.257 . S
C1450 H1425 0.930 . S
C1450 C1453 1.388 . S
C1450 C1455 1.418 . S
C1451 H1446 0.930 . S
C1451 C1454 1.404 . S
C1451 C1455 1.353 . S
N1452 Co1417 2.145 . S
N1452 C1453 1.397 . S
N1452 C1454 1.334 . S
C1453 H1434 0.929 . S
C1453 C1450 1.388 . S
C1453 N1452 1.397 . S
C1454 H1435 0.929 . S
C1454 C1451 1.404 . S
C1454 N1452 1.334 . S
C1455 H1447 0.930 . S
C1455 C1450 1.418 . S
C1455 C1451 1.353 . S
C1456 H1426 0.930 . S
C1456 N1457 1.330 . S
C1456 C1458 1.446 . S
N1457 Co1416 2.151 . S
N1457 C1456 1.330 . S
N1457 C1461 1.418 . S
C1458 H1437 0.929 . S
C1458 C1456 1.446 . S
C1458 C1459 1.332 . S
C1459 H1439 0.931 . S
C1459 C1458 1.332 . S
C1459 C1460 1.267 . S
C1460 H1428 0.929 . S
C1460 C1459 1.267 . S
C1460 C1461 1.251 . S
C1461 H1431 0.929 . S
C1461 N1457 1.418 . S
C1461 C1460 1.251 . S
C1462 H1429 0.930 . S
C1462 C1464 1.406 . S
C1462 C1467 1.261 . S
C1463 H1430 0.930 . S
C1463 N1465 1.325 . S
C1463 C1466 1.357 . S
C1464 H1432 0.928 . S
C1464 C1462 1.406 . S
C1464 N1465 1.261 . S
N1465 Co1416 2.214 . S
N1465 C1463 1.325 . S
N1465 C1464 1.261 . S
C1466 H1436 0.931 . S
C1466 C1463 1.357 . S
C1466 C1467 1.312 . S
C1467 H1438 0.930 . S
C1467 C1462 1.261 . S
C1467 C1466 1.312 . S
C1468 O1440 1.214 . S
C1468 O1448 1.234 . S
C1469 H1441 0.929 . S
C1469 C1472 1.391 . S
C1469 C1474 1.391 . S
C1470 H1442 0.929 . S
C1470 C1471 1.390 . S
C1470 N1473 1.391 . S
C1471 H1443 0.930 . S
C1471 C1470 1.390 . S
C1471 C1472 1.392 . S
C1472 H1444 0.929 . S
C1472 C1469 1.391 . S
C1472 C1471 1.392 . S
N1473 Co1417 2.257 . S
N1473 C1470 1.391 . S
N1473 C1474 1.388 . S
C1474 H1445 0.930 . S
C1474 C1469 1.391 . S
C1474 N1473 1.388 . S
Co1475 O1477 2.143 . S
Co1475 O1483 2.074 . S
Co1475 O1486 2.093 1_556 S
Co1475 O1499 2.097 . S
Co1475 N1516 2.151 1_556 S
Co1475 N1524 2.214 . S
Co1476 O1477 2.160 . S
Co1476 O1482 2.058 . S
Co1476 O1492 2.057 . S
Co1476 O1507 2.037 . S
Co1476 N1511 2.145 . S
Co1476 N1532 2.257 . S
O1477 Co1475 2.143 . S
O1477 Co1476 2.160 . S
C1478 O1479 1.278 . S
C1478 O1486 1.224 . S
O1479 C1478 1.278 . S
C1480 O1481 1.245 . S
C1480 O1492 1.232 . S
O1481 C1480 1.245 . S
O1482 Co1476 2.058 . S
O1482 C1508 1.269 . S
O1483 Co1475 2.074 . S
O1483 C1508 1.257 . S
H1484 C1509 0.930 . S
H1485 C1515 0.930 . S
O1486 Co1475 2.093 1_554 S
O1486 C1478 1.224 . S
H1487 C1519 0.929 . S
H1488 C1521 0.930 . S
H1489 C1522 0.930 . S
H1490 C1520 0.929 1_556 S
H1491 C1523 0.928 . S
O1492 Co1476 2.057 . S
O1492 C1480 1.232 . S
H1493 C1512 0.929 . S
H1494 C1513 0.929 . S
H1495 C1525 0.931 . S
H1496 C1517 0.929 . S
H1497 C1526 0.930 . S
H1498 C1518 0.931 . S
O1499 Co1475 2.097 . S
O1499 C1527 1.214 . S
H1500 C1528 0.929 1_554 S
H1501 C1529 0.929 . S
H1502 C1530 0.930 . S
H1503 C1531 0.929 . S
H1504 C1533 0.930 . S
H1505 C1510 0.930 . S
H1506 C1514 0.930 . S
O1507 Co1476 2.037 . S
O1507 C1527 1.234 . S
C1508 O1482 1.269 . S
C1508 O1483 1.257 . S
C1509 H1484 0.930 . S
C1509 C1512 1.388 . S
C1509 C1514 1.418 . S
C1510 H1505 0.930 . S
C1510 C1513 1.404 . S
C1510 C1514 1.353 . S
N1511 Co1476 2.145 . S
N1511 C1512 1.397 . S
N1511 C1513 1.334 . S
C1512 H1493 0.929 . S
C1512 C1509 1.388 . S
C1512 N1511 1.397 . S
C1513 H1494 0.929 . S
C1513 C1510 1.404 . S
C1513 N1511 1.334 . S
C1514 H1506 0.930 . S
C1514 C1509 1.418 . S
C1514 C1510 1.353 . S
C1515 H1485 0.930 . S
C1515 N1516 1.330 . S
C1515 C1517 1.446 . S
N1516 Co1475 2.151 1_554 S
N1516 C1515 1.330 . S
N1516 C1520 1.418 . S
C1517 H1496 0.929 . S
C1517 C1515 1.446 . S
C1517 C1518 1.332 . S
C1518 H1498 0.931 . S
C1518 C1517 1.332 . S
C1518 C1519 1.267 . S
C1519 H1487 0.929 . S
C1519 C1518 1.267 . S
C1519 C1520 1.251 . S
C1520 H1490 0.929 1_554 S
C1520 N1516 1.418 . S
C1520 C1519 1.251 . S
C1521 H1488 0.930 . S
C1521 C1523 1.406 . S
C1521 C1526 1.261 1_554 S
C1522 H1489 0.930 . S
C1522 N1524 1.325 . S
C1522 C1525 1.357 . S
C1523 H1491 0.928 . S
C1523 C1521 1.406 . S
C1523 N1524 1.261 1_554 S
N1524 Co1475 2.214 . S
N1524 C1522 1.325 . S
N1524 C1523 1.261 1_556 S
C1525 H1495 0.931 . S
C1525 C1522 1.357 . S
C1525 C1526 1.312 . S
C1526 H1497 0.930 . S
C1526 C1521 1.261 1_556 S
C1526 C1525 1.312 . S
C1527 O1499 1.214 . S
C1527 O1507 1.234 . S
C1528 H1500 0.929 1_556 S
C1528 C1531 1.391 . S
C1528 C1533 1.391 . S
C1529 H1501 0.929 . S
C1529 C1530 1.390 . S
C1529 N1532 1.391 . S
C1530 H1502 0.930 . S
C1530 C1529 1.390 . S
C1530 C1531 1.392 . S
C1531 H1503 0.929 . S
C1531 C1528 1.391 . S
C1531 C1530 1.392 . S
N1532 Co1476 2.257 . S
N1532 C1529 1.391 . S
N1532 C1533 1.388 . S
C1533 H1504 0.930 . S
C1533 C1528 1.391 . S
C1533 N1532 1.388 . S
Co1534 O1536 2.143 . S
Co1534 O1542 2.074 . S
Co1534 O1545 2.093 . S
Co1534 O1558 2.097 . S
Co1534 N1575 2.151 . S
Co1534 N1583 2.214 . S
Co1535 O1536 2.160 . S
Co1535 O1541 2.058 . S
Co1535 O1551 2.057 . S
Co1535 O1566 2.037 . S
Co1535 N1570 2.145 . S
Co1535 N1591 2.257 . S
O1536 Co1534 2.143 . S
O1536 Co1535 2.160 . S
C1537 O1538 1.278 . S
C1537 O1545 1.224 . S
O1538 C1537 1.278 . S
C1539 O1540 1.245 . S
C1539 O1551 1.232 . S
O1540 C1539 1.245 . S
O1541 Co1535 2.058 . S
O1541 C1567 1.269 . S
O1542 Co1534 2.074 . S
O1542 C1567 1.257 . S
H1543 C1568 0.930 . S
H1544 C1574 0.930 . S
O1545 Co1534 2.093 . S
O1545 C1537 1.224 . S
H1546 C1578 0.929 . S
H1547 C1580 0.930 1_655 S
H1548 C1581 0.930 . S
H1549 C1579 0.929 . S
H1550 C1582 0.928 . S
O1551 Co1535 2.057 . S
O1551 C1539 1.232 . S
H1552 C1571 0.929 . S
H1553 C1572 0.929 . S
H1554 C1584 0.931 1_655 S
H1555 C1576 0.929 . S
H1556 C1585 0.930 . S
H1557 C1577 0.931 . S
O1558 Co1534 2.097 . S
O1558 C1586 1.214 . S
H1559 C1587 0.929 . S
H1560 C1588 0.929 . S
H1561 C1589 0.930 . S
H1562 C1590 0.929 . S
H1563 C1592 0.930 . S
H1564 C1569 0.930 . S
H1565 C1573 0.930 . S
O1566 Co1535 2.037 . S
O1566 C1586 1.234 . S
C1567 O1541 1.269 . S
C1567 O1542 1.257 . S
C1568 H1543 0.930 . S
C1568 C1571 1.388 . S
C1568 C1573 1.418 . S
C1569 H1564 0.930 . S
C1569 C1572 1.404 . S
C1569 C1573 1.353 . S
N1570 Co1535 2.145 . S
N1570 C1571 1.397 . S
N1570 C1572 1.334 . S
C1571 H1552 0.929 . S
C1571 C1568 1.388 . S
C1571 N1570 1.397 . S
C1572 H1553 0.929 . S
C1572 C1569 1.404 . S
C1572 N1570 1.334 . S
C1573 H1565 0.930 . S
C1573 C1568 1.418 . S
C1573 C1569 1.353 . S
C1574 H1544 0.930 . S
C1574 N1575 1.330 . S
C1574 C1576 1.446 . S
N1575 Co1534 2.151 . S
N1575 C1574 1.330 . S
N1575 C1579 1.418 . S
C1576 H1555 0.929 . S
C1576 C1574 1.446 . S
C1576 C1577 1.332 . S
C1577 H1557 0.931 . S
C1577 C1576 1.332 . S
C1577 C1578 1.267 . S
C1578 H1546 0.929 . S
C1578 C1577 1.267 . S
C1578 C1579 1.251 . S
C1579 H1549 0.929 . S
C1579 N1575 1.418 . S
C1579 C1578 1.251 . S
C1580 H1547 0.930 1_455 S
C1580 C1582 1.406 . S
C1580 C1585 1.261 1_455 S
C1581 H1548 0.930 . S
C1581 N1583 1.325 . S
C1581 C1584 1.357 . S
C1582 H1550 0.928 . S
C1582 C1580 1.406 . S
C1582 N1583 1.261 . S
N1583 Co1534 2.214 . S
N1583 C1581 1.325 . S
N1583 C1582 1.261 . S
C1584 H1554 0.931 1_455 S
C1584 C1581 1.357 . S
C1584 C1585 1.312 1_455 S
C1585 H1556 0.930 . S
C1585 C1580 1.261 1_655 S
C1585 C1584 1.312 1_655 S
C1586 O1558 1.214 . S
C1586 O1566 1.234 . S
C1587 H1559 0.929 . S
C1587 C1590 1.391 . S
C1587 C1592 1.391 . S
C1588 H1560 0.929 . S
C1588 C1589 1.390 . S
C1588 N1591 1.391 . S
C1589 H1561 0.930 . S
C1589 C1588 1.390 . S
C1589 C1590 1.392 . S
C1590 H1562 0.929 . S
C1590 C1587 1.391 . S
C1590 C1589 1.392 . S
N1591 Co1535 2.257 . S
N1591 C1588 1.391 . S
N1591 C1592 1.388 . S
C1592 H1563 0.930 . S
C1592 C1587 1.391 . S
C1592 N1591 1.388 . S
Co1593 O1595 2.143 . S
Co1593 O1601 2.074 . S
Co1593 O1604 2.093 . S
Co1593 O1617 2.097 . S
Co1593 N1634 2.151 . S
Co1593 N1642 2.214 . S
Co1594 O1595 2.160 . S
Co1594 O1600 2.058 . S
Co1594 O1610 2.057 . S
Co1594 O1625 2.037 . S
Co1594 N1629 2.145 . S
Co1594 N1650 2.257 . S
O1595 Co1593 2.143 . S
O1595 Co1594 2.160 . S
C1596 O1597 1.278 . S
C1596 O1604 1.224 . S
O1597 C1596 1.278 . S
C1598 O1599 1.245 . S
C1598 O1610 1.232 . S
O1599 C1598 1.245 . S
O1600 Co1594 2.058 . S
O1600 C1626 1.269 . S
O1601 Co1593 2.074 . S
O1601 C1626 1.257 . S
H1602 C1627 0.930 . S
H1603 C1633 0.930 . S
O1604 Co1593 2.093 . S
O1604 C1596 1.224 . S
H1605 C1637 0.929 . S
H1606 C1639 0.930 . S
H1607 C1640 0.930 . S
H1608 C1638 0.929 . S
H1609 C1641 0.928 . S
O1610 Co1594 2.057 . S
O1610 C1598 1.232 . S
H1611 C1630 0.929 . S
H1612 C1631 0.929 . S
H1613 C1643 0.931 . S
H1614 C1635 0.929 . S
H1615 C1644 0.930 . S
H1616 C1636 0.931 . S
O1617 Co1593 2.097 . S
O1617 C1645 1.214 . S
H1618 C1646 0.929 . S
H1619 C1647 0.929 . S
H1620 C1648 0.930 . S
H1621 C1649 0.929 . S
H1622 C1651 0.930 . S
H1623 C1628 0.930 . S
H1624 C1632 0.930 . S
O1625 Co1594 2.037 . S
O1625 C1645 1.234 . S
C1626 O1600 1.269 . S
C1626 O1601 1.257 . S
C1627 H1602 0.930 . S
C1627 C1630 1.388 . S
C1627 C1632 1.418 . S
C1628 H1623 0.930 . S
C1628 C1631 1.404 . S
C1628 C1632 1.353 . S
N1629 Co1594 2.145 . S
N1629 C1630 1.397 . S
N1629 C1631 1.334 . S
C1630 H1611 0.929 . S
C1630 C1627 1.388 . S
C1630 N1629 1.397 . S
C1631 H1612 0.929 . S
C1631 C1628 1.404 . S
C1631 N1629 1.334 . S
C1632 H1624 0.930 . S
C1632 C1627 1.418 . S
C1632 C1628 1.353 . S
C1633 H1603 0.930 . S
C1633 N1634 1.330 . S
C1633 C1635 1.446 1_655 S
N1634 Co1593 2.151 . S
N1634 C1633 1.330 . S
N1634 C1638 1.418 1_655 S
C1635 H1614 0.929 . S
C1635 C1633 1.446 1_455 S
C1635 C1636 1.332 . S
C1636 H1616 0.931 . S
C1636 C1635 1.332 . S
C1636 C1637 1.267 . S
C1637 H1605 0.929 . S
C1637 C1636 1.267 . S
C1637 C1638 1.251 . S
C1638 H1608 0.929 . S
C1638 N1634 1.418 1_455 S
C1638 C1637 1.251 . S
C1639 H1606 0.930 . S
C1639 C1641 1.406 . S
C1639 C1644 1.261 . S
C1640 H1607 0.930 . S
C1640 N1642 1.325 . S
C1640 C1643 1.357 . S
C1641 H1609 0.928 . S
C1641 C1639 1.406 . S
C1641 N1642 1.261 . S
N1642 Co1593 2.214 . S
N1642 C1640 1.325 . S
N1642 C1641 1.261 . S
C1643 H1613 0.931 . S
C1643 C1640 1.357 . S
C1643 C1644 1.312 . S
C1644 H1615 0.930 . S
C1644 C1639 1.261 . S
C1644 C1643 1.312 . S
C1645 O1617 1.214 . S
C1645 O1625 1.234 . S
C1646 H1618 0.929 . S
C1646 C1649 1.391 . S
C1646 C1651 1.391 . S
C1647 H1619 0.929 . S
C1647 C1648 1.390 . S
C1647 N1650 1.391 . S
C1648 H1620 0.930 . S
C1648 C1647 1.390 . S
C1648 C1649 1.392 . S
C1649 H1621 0.929 . S
C1649 C1646 1.391 . S
C1649 C1648 1.392 . S
N1650 Co1594 2.257 . S
N1650 C1647 1.391 . S
N1650 C1651 1.388 . S
C1651 H1622 0.930 . S
C1651 C1646 1.391 . S
C1651 N1650 1.388 . S
Co1652 O1654 2.143 . S
Co1652 O1660 2.074 . S
Co1652 O1663 2.093 . S
Co1652 O1676 2.097 . S
Co1652 N1693 2.151 . S
Co1652 N1701 2.214 . S
Co1653 O1654 2.160 . S
Co1653 O1659 2.058 . S
Co1653 O1669 2.057 . S
Co1653 O1684 2.037 . S
Co1653 N1688 2.145 . S
Co1653 N1709 2.257 . S
O1654 Co1652 2.143 . S
O1654 Co1653 2.160 . S
C1655 O1656 1.278 . S
C1655 O1663 1.224 . S
O1656 C1655 1.278 . S
C1657 O1658 1.245 . S
C1657 O1669 1.232 . S
O1658 C1657 1.245 . S
O1659 Co1653 2.058 . S
O1659 C1685 1.269 . S
O1660 Co1652 2.074 . S
O1660 C1685 1.257 . S
H1661 C1686 0.930 . S
H1662 C1692 0.930 . S
O1663 Co1652 2.093 . S
O1663 C1655 1.224 . S
H1664 C1696 0.929 . S
H1665 C1698 0.930 . S
H1666 C1699 0.930 . S
H1667 C1697 0.929 . S
H1668 C1700 0.928 . S
O1669 Co1653 2.057 . S
O1669 C1657 1.232 . S
H1670 C1689 0.929 . S
H1671 C1690 0.929 . S
H1672 C1702 0.931 . S
H1673 C1694 0.929 . S
H1674 C1703 0.930 . S
H1675 C1695 0.931 . S
O1676 Co1652 2.097 . S
O1676 C1704 1.214 . S
H1677 C1705 0.929 . S
H1678 C1706 0.929 . S
H1679 C1707 0.930 . S
H1680 C1708 0.929 . S
H1681 C1710 0.930 . S
H1682 C1687 0.930 . S
H1683 C1691 0.930 . S
O1684 Co1653 2.037 . S
O1684 C1704 1.234 . S
C1685 O1659 1.269 . S
C1685 O1660 1.257 . S
C1686 H1661 0.930 . S
C1686 C1689 1.388 . S
C1686 C1691 1.418 . S
C1687 H1682 0.930 . S
C1687 C1690 1.404 . S
C1687 C1691 1.353 . S
N1688 Co1653 2.145 . S
N1688 C1689 1.397 . S
N1688 C1690 1.334 . S
C1689 H1670 0.929 . S
C1689 C1686 1.388 . S
C1689 N1688 1.397 . S
C1690 H1671 0.929 . S
C1690 C1687 1.404 . S
C1690 N1688 1.334 . S
C1691 H1683 0.930 . S
C1691 C1686 1.418 . S
C1691 C1687 1.353 . S
C1692 H1662 0.930 . S
C1692 N1693 1.330 . S
C1692 C1694 1.446 . S
N1693 Co1652 2.151 . S
N1693 C1692 1.330 . S
N1693 C1697 1.418 . S
C1694 H1673 0.929 . S
C1694 C1692 1.446 . S
C1694 C1695 1.332 . S
C1695 H1675 0.931 . S
C1695 C1694 1.332 . S
C1695 C1696 1.267 . S
C1696 H1664 0.929 . S
C1696 C1695 1.267 . S
C1696 C1697 1.251 . S
C1697 H1667 0.929 . S
C1697 N1693 1.418 . S
C1697 C1696 1.251 . S
C1698 H1665 0.930 . S
C1698 C1700 1.406 . S
C1698 C1703 1.261 . S
C1699 H1666 0.930 . S
C1699 N1701 1.325 . S
C1699 C1702 1.357 . S
C1700 H1668 0.928 . S
C1700 C1698 1.406 . S
C1700 N1701 1.261 . S
N1701 Co1652 2.214 . S
N1701 C1699 1.325 . S
N1701 C1700 1.261 . S
C1702 H1672 0.931 . S
C1702 C1699 1.357 . S
C1702 C1703 1.312 . S
C1703 H1674 0.930 . S
C1703 C1698 1.261 . S
C1703 C1702 1.312 . S
C1704 O1676 1.214 . S
C1704 O1684 1.234 . S
C1705 H1677 0.929 . S
C1705 C1708 1.391 . S
C1705 C1710 1.391 . S
C1706 H1678 0.929 . S
C1706 C1707 1.390 . S
C1706 N1709 1.391 . S
C1707 H1679 0.930 . S
C1707 C1706 1.390 . S
C1707 C1708 1.392 . S
C1708 H1680 0.929 . S
C1708 C1705 1.391 . S
C1708 C1707 1.392 . S
N1709 Co1653 2.257 . S
N1709 C1706 1.391 . S
N1709 C1710 1.388 . S
C1710 H1681 0.930 . S
C1710 C1705 1.391 . S
C1710 N1709 1.388 . S
Co1711 O1713 2.143 . S
Co1711 O1719 2.074 . S
Co1711 O1722 2.093 1_554 S
Co1711 O1735 2.097 . S
Co1711 N1752 2.151 1_554 S
Co1711 N1760 2.214 . S
Co1712 O1713 2.160 . S
Co1712 O1718 2.058 . S
Co1712 O1728 2.057 . S
Co1712 O1743 2.037 . S
Co1712 N1747 2.145 . S
Co1712 N1768 2.257 . S
O1713 Co1711 2.143 . S
O1713 Co1712 2.160 . S
C1714 O1715 1.278 . S
C1714 O1722 1.224 . S
O1715 C1714 1.278 . S
C1716 O1717 1.245 . S
C1716 O1728 1.232 . S
O1717 C1716 1.245 . S
O1718 Co1712 2.058 . S
O1718 C1744 1.269 . S
O1719 Co1711 2.074 . S
O1719 C1744 1.257 . S
H1720 C1745 0.930 . S
H1721 C1751 0.930 . S
O1722 Co1711 2.093 1_556 S
O1722 C1714 1.224 . S
H1723 C1755 0.929 . S
H1724 C1757 0.930 . S
H1725 C1758 0.930 . S
H1726 C1756 0.929 1_554 S
H1727 C1759 0.928 . S
O1728 Co1712 2.057 . S
O1728 C1716 1.232 . S
H1729 C1748 0.929 . S
H1730 C1749 0.929 . S
H1731 C1761 0.931 . S
H1732 C1753 0.929 . S
H1733 C1762 0.930 . S
H1734 C1754 0.931 . S
O1735 Co1711 2.097 . S
O1735 C1763 1.214 . S
H1736 C1764 0.929 1_556 S
H1737 C1765 0.929 . S
H1738 C1766 0.930 . S
H1739 C1767 0.929 . S
H1740 C1769 0.930 . S
H1741 C1746 0.930 . S
H1742 C1750 0.930 . S
O1743 Co1712 2.037 . S
O1743 C1763 1.234 . S
C1744 O1718 1.269 . S
C1744 O1719 1.257 . S
C1745 H1720 0.930 . S
C1745 C1748 1.388 . S
C1745 C1750 1.418 . S
C1746 H1741 0.930 . S
C1746 C1749 1.404 . S
C1746 C1750 1.353 . S
N1747 Co1712 2.145 . S
N1747 C1748 1.397 . S
N1747 C1749 1.334 . S
C1748 H1729 0.929 . S
C1748 C1745 1.388 . S
C1748 N1747 1.397 . S
C1749 H1730 0.929 . S
C1749 C1746 1.404 . S
C1749 N1747 1.334 . S
C1750 H1742 0.930 . S
C1750 C1745 1.418 . S
C1750 C1746 1.353 . S
C1751 H1721 0.930 . S
C1751 N1752 1.330 . S
C1751 C1753 1.446 1_655 S
N1752 Co1711 2.151 1_556 S
N1752 C1751 1.330 . S
N1752 C1756 1.418 1_655 S
C1753 H1732 0.929 . S
C1753 C1751 1.446 1_455 S
C1753 C1754 1.332 . S
C1754 H1734 0.931 . S
C1754 C1753 1.332 . S
C1754 C1755 1.267 . S
C1755 H1723 0.929 . S
C1755 C1754 1.267 . S
C1755 C1756 1.251 . S
C1756 H1726 0.929 1_556 S
C1756 N1752 1.418 1_455 S
C1756 C1755 1.251 . S
C1757 H1724 0.930 . S
C1757 C1759 1.406 . S
C1757 C1762 1.261 1_556 S
C1758 H1725 0.930 . S
C1758 N1760 1.325 . S
C1758 C1761 1.357 . S
C1759 H1727 0.928 . S
C1759 C1757 1.406 . S
C1759 N1760 1.261 1_556 S
N1760 Co1711 2.214 . S
N1760 C1758 1.325 . S
N1760 C1759 1.261 1_554 S
C1761 H1731 0.931 . S
C1761 C1758 1.357 . S
C1761 C1762 1.312 . S
C1762 H1733 0.930 . S
C1762 C1757 1.261 1_554 S
C1762 C1761 1.312 . S
C1763 O1735 1.214 . S
C1763 O1743 1.234 . S
C1764 H1736 0.929 1_554 S
C1764 C1767 1.391 . S
C1764 C1769 1.391 . S
C1765 H1737 0.929 . S
C1765 C1766 1.390 . S
C1765 N1768 1.391 . S
C1766 H1738 0.930 . S
C1766 C1765 1.390 . S
C1766 C1767 1.392 . S
C1767 H1739 0.929 . S
C1767 C1764 1.391 . S
C1767 C1766 1.392 . S
N1768 Co1712 2.257 . S
N1768 C1765 1.391 . S
N1768 C1769 1.388 . S
C1769 H1740 0.930 . S
C1769 C1764 1.391 . S
C1769 N1768 1.388 . S
Co1770 O1772 2.143 . S
Co1770 O1778 2.074 . S
Co1770 O1781 2.093 . S
Co1770 O1794 2.097 . S
Co1770 N1811 2.151 . S
Co1770 N1819 2.214 . S
Co1771 O1772 2.160 . S
Co1771 O1777 2.058 . S
Co1771 O1787 2.057 . S
Co1771 O1802 2.037 . S
Co1771 N1806 2.145 . S
Co1771 N1827 2.257 . S
O1772 Co1770 2.143 . S
O1772 Co1771 2.160 . S
C1773 O1774 1.278 . S
C1773 O1781 1.224 . S
O1774 C1773 1.278 . S
C1775 O1776 1.245 . S
C1775 O1787 1.232 . S
O1776 C1775 1.245 . S
O1777 Co1771 2.058 . S
O1777 C1803 1.269 . S
O1778 Co1770 2.074 . S
O1778 C1803 1.257 . S
H1779 C1804 0.930 . S
H1780 C1810 0.930 . S
O1781 Co1770 2.093 . S
O1781 C1773 1.224 . S
H1782 C1814 0.929 . S
H1783 C1816 0.930 1_655 S
H1784 C1817 0.930 . S
H1785 C1815 0.929 . S
H1786 C1818 0.928 . S
O1787 Co1771 2.057 . S
O1787 C1775 1.232 . S
H1788 C1807 0.929 . S
H1789 C1808 0.929 . S
H1790 C1820 0.931 1_655 S
H1791 C1812 0.929 . S
H1792 C1821 0.930 . S
H1793 C1813 0.931 . S
O1794 Co1770 2.097 . S
O1794 C1822 1.214 . S
H1795 C1823 0.929 . S
H1796 C1824 0.929 . S
H1797 C1825 0.930 . S
H1798 C1826 0.929 . S
H1799 C1828 0.930 . S
H1800 C1805 0.930 . S
H1801 C1809 0.930 . S
O1802 Co1771 2.037 . S
O1802 C1822 1.234 . S
C1803 O1777 1.269 . S
C1803 O1778 1.257 . S
C1804 H1779 0.930 . S
C1804 C1807 1.388 . S
C1804 C1809 1.418 . S
C1805 H1800 0.930 . S
C1805 C1808 1.404 . S
C1805 C1809 1.353 . S
N1806 Co1771 2.145 . S
N1806 C1807 1.397 . S
N1806 C1808 1.334 . S
C1807 H1788 0.929 . S
C1807 C1804 1.388 . S
C1807 N1806 1.397 . S
C1808 H1789 0.929 . S
C1808 C1805 1.404 . S
C1808 N1806 1.334 . S
C1809 H1801 0.930 . S
C1809 C1804 1.418 . S
C1809 C1805 1.353 . S
C1810 H1780 0.930 . S
C1810 N1811 1.330 . S
C1810 C1812 1.446 . S
N1811 Co1770 2.151 . S
N1811 C1810 1.330 . S
N1811 C1815 1.418 . S
C1812 H1791 0.929 . S
C1812 C1810 1.446 . S
C1812 C1813 1.332 . S
C1813 H1793 0.931 . S
C1813 C1812 1.332 . S
C1813 C1814 1.267 . S
C1814 H1782 0.929 . S
C1814 C1813 1.267 . S
C1814 C1815 1.251 . S
C1815 H1785 0.929 . S
C1815 N1811 1.418 . S
C1815 C1814 1.251 . S
C1816 H1783 0.930 1_455 S
C1816 C1818 1.406 . S
C1816 C1821 1.261 1_455 S
C1817 H1784 0.930 . S
C1817 N1819 1.325 . S
C1817 C1820 1.357 . S
C1818 H1786 0.928 . S
C1818 C1816 1.406 . S
C1818 N1819 1.261 . S
N1819 Co1770 2.214 . S
N1819 C1817 1.325 . S
N1819 C1818 1.261 . S
C1820 H1790 0.931 1_455 S
C1820 C1817 1.357 . S
C1820 C1821 1.312 1_455 S
C1821 H1792 0.930 . S
C1821 C1816 1.261 1_655 S
C1821 C1820 1.312 1_655 S
C1822 O1794 1.214 . S
C1822 O1802 1.234 . S
C1823 H1795 0.929 . S
C1823 C1826 1.391 . S
C1823 C1828 1.391 . S
C1824 H1796 0.929 . S
C1824 C1825 1.390 . S
C1824 N1827 1.391 . S
C1825 H1797 0.930 . S
C1825 C1824 1.390 . S
C1825 C1826 1.392 . S
C1826 H1798 0.929 . S
C1826 C1823 1.391 . S
C1826 C1825 1.392 . S
N1827 Co1771 2.257 . S
N1827 C1824 1.391 . S
N1827 C1828 1.388 . S
C1828 H1799 0.930 . S
C1828 C1823 1.391 . S
C1828 N1827 1.388 . S
Co1829 O1831 2.143 . S
Co1829 O1837 2.074 . S
Co1829 O1840 2.093 . S
Co1829 O1853 2.097 . S
Co1829 N1870 2.151 . S
Co1829 N1878 2.214 . S
Co1830 O1831 2.160 . S
Co1830 O1836 2.058 . S
Co1830 O1846 2.057 . S
Co1830 O1861 2.037 . S
Co1830 N1865 2.145 . S
Co1830 N1886 2.257 . S
O1831 Co1829 2.143 . S
O1831 Co1830 2.160 . S
C1832 O1833 1.278 . S
C1832 O1840 1.224 . S
O1833 C1832 1.278 . S
C1834 O1835 1.245 . S
C1834 O1846 1.232 . S
O1835 C1834 1.245 . S
O1836 Co1830 2.058 . S
O1836 C1862 1.269 . S
O1837 Co1829 2.074 . S
O1837 C1862 1.257 . S
H1838 C1863 0.930 . S
H1839 C1869 0.930 . S
O1840 Co1829 2.093 . S
O1840 C1832 1.224 . S
H1841 C1873 0.929 . S
H1842 C1875 0.930 . S
H1843 C1876 0.930 . S
H1844 C1874 0.929 . S
H1845 C1877 0.928 . S
O1846 Co1830 2.057 . S
O1846 C1834 1.232 . S
H1847 C1866 0.929 . S
H1848 C1867 0.929 . S
H1849 C1879 0.931 . S
H1850 C1871 0.929 . S
H1851 C1880 0.930 . S
H1852 C1872 0.931 . S
O1853 Co1829 2.097 . S
O1853 C1881 1.214 . S
H1854 C1882 0.929 . S
H1855 C1883 0.929 . S
H1856 C1884 0.930 . S
H1857 C1885 0.929 . S
H1858 C1887 0.930 . S
H1859 C1864 0.930 . S
H1860 C1868 0.930 . S
O1861 Co1830 2.037 . S
O1861 C1881 1.234 . S
C1862 O1836 1.269 . S
C1862 O1837 1.257 . S
C1863 H1838 0.930 . S
C1863 C1866 1.388 . S
C1863 C1868 1.418 . S
C1864 H1859 0.930 . S
C1864 C1867 1.404 . S
C1864 C1868 1.353 . S
N1865 Co1830 2.145 . S
N1865 C1866 1.397 . S
N1865 C1867 1.334 . S
C1866 H1847 0.929 . S
C1866 C1863 1.388 . S
C1866 N1865 1.397 . S
C1867 H1848 0.929 . S
C1867 C1864 1.404 . S
C1867 N1865 1.334 . S
C1868 H1860 0.930 . S
C1868 C1863 1.418 . S
C1868 C1864 1.353 . S
C1869 H1839 0.930 . S
C1869 N1870 1.330 . S
C1869 C1871 1.446 . S
N1870 Co1829 2.151 . S
N1870 C1869 1.330 . S
N1870 C1874 1.418 . S
C1871 H1850 0.929 . S
C1871 C1869 1.446 . S
C1871 C1872 1.332 . S
C1872 H1852 0.931 . S
C1872 C1871 1.332 . S
C1872 C1873 1.267 . S
C1873 H1841 0.929 . S
C1873 C1872 1.267 . S
C1873 C1874 1.251 . S
C1874 H1844 0.929 . S
C1874 N1870 1.418 . S
C1874 C1873 1.251 . S
C1875 H1842 0.930 . S
C1875 C1877 1.406 . S
C1875 C1880 1.261 . S
C1876 H1843 0.930 . S
C1876 N1878 1.325 . S
C1876 C1879 1.357 . S
C1877 H1845 0.928 . S
C1877 C1875 1.406 . S
C1877 N1878 1.261 . S
N1878 Co1829 2.214 . S
N1878 C1876 1.325 . S
N1878 C1877 1.261 . S
C1879 H1849 0.931 . S
C1879 C1876 1.357 . S
C1879 C1880 1.312 . S
C1880 H1851 0.930 . S
C1880 C1875 1.261 . S
C1880 C1879 1.312 . S
C1881 O1853 1.214 . S
C1881 O1861 1.234 . S
C1882 H1854 0.929 . S
C1882 C1885 1.391 . S
C1882 C1887 1.391 . S
C1883 H1855 0.929 . S
C1883 C1884 1.390 . S
C1883 N1886 1.391 . S
C1884 H1856 0.930 . S
C1884 C1883 1.390 . S
C1884 C1885 1.392 . S
C1885 H1857 0.929 . S
C1885 C1882 1.391 . S
C1885 C1884 1.392 . S
N1886 Co1830 2.257 . S
N1886 C1883 1.391 . S
N1886 C1887 1.388 . S
C1887 H1858 0.930 . S
C1887 C1882 1.391 . S
C1887 N1886 1.388 . S
C1888 C1889 1.387 . S
C1888 H1892 0.950 . S
C1888 C1897 1.390 . S
C1889 C1888 1.387 . S
C1889 C1891 1.387 . S
H1890 C1897 0.950 . S
C1891 C1889 1.387 . S
C1891 C1893 1.390 . S
C1891 H1895 0.950 . S
H1892 C1888 0.950 . S
C1893 C1891 1.390 . S
C1893 C1894 1.387 . S
C1893 H1896 0.950 . S
C1894 C1893 1.387 . S
C1894 C1897 1.387 . S
H1895 C1891 0.950 . S
H1896 C1893 0.950 . S
C1897 C1888 1.390 . S
C1897 H1890 0.950 . S
C1897 C1894 1.387 . S
C1898 C1899 1.387 . S
C1898 H1902 0.950 . S
C1898 C1907 1.390 . S
C1899 C1898 1.387 . S
C1899 C1901 1.387 . S
H1900 C1907 0.950 . S
C1901 C1899 1.387 . S
C1901 C1903 1.390 . S
C1901 H1905 0.950 . S
H1902 C1898 0.950 . S
C1903 C1901 1.390 . S
C1903 C1904 1.387 . S
C1903 H1906 0.950 . S
C1904 C1903 1.387 . S
C1904 C1907 1.387 . S
H1905 C1901 0.950 . S
H1906 C1903 0.950 . S
C1907 C1898 1.390 . S
C1907 H1900 0.950 . S
C1907 C1904 1.387 . S
C1908 C1909 1.387 . S
C1908 H1912 0.950 . S
C1908 C1917 1.390 . S
C1909 C1908 1.387 . S
C1909 C1911 1.387 . S
H1910 C1917 0.950 . S
C1911 C1909 1.387 . S
C1911 C1913 1.390 . S
C1911 H1915 0.950 . S
H1912 C1908 0.950 . S
C1913 C1911 1.390 . S
C1913 C1914 1.387 . S
C1913 H1916 0.950 . S
C1914 C1913 1.387 . S
C1914 C1917 1.387 . S
H1915 C1911 0.950 . S
H1916 C1913 0.950 . S
C1917 C1908 1.390 . S
C1917 H1910 0.950 . S
C1917 C1914 1.387 . S
C1918 C1919 1.387 . S
C1918 H1922 0.950 . S
C1918 C1927 1.390 . S
C1919 C1918 1.387 . S
C1919 C1921 1.387 . S
H1920 C1927 0.950 . S
C1921 C1919 1.387 . S
C1921 C1923 1.390 . S
C1921 H1925 0.950 . S
H1922 C1918 0.950 . S
C1923 C1921 1.390 . S
C1923 C1924 1.387 . S
C1923 H1926 0.950 . S
C1924 C1923 1.387 . S
C1924 C1927 1.387 . S
H1925 C1921 0.950 . S
H1926 C1923 0.950 . S
C1927 C1918 1.390 . S
C1927 H1920 0.950 . S
C1927 C1924 1.387 . S
C1928 C1929 1.387 . S
C1928 H1932 0.950 . S
C1928 C1937 1.390 . S
C1929 C1928 1.387 . S
C1929 C1931 1.387 . S
H1930 C1937 0.950 . S
C1931 C1929 1.387 . S
C1931 C1933 1.390 . S
C1931 H1935 0.950 . S
H1932 C1928 0.950 . S
C1933 C1931 1.390 . S
C1933 C1934 1.387 . S
C1933 H1936 0.950 . S
C1934 C1933 1.387 . S
C1934 C1937 1.387 . S
H1935 C1931 0.950 . S
H1936 C1933 0.950 . S
C1937 C1928 1.390 . S
C1937 H1930 0.950 . S
C1937 C1934 1.387 . S
C1938 C1939 1.387 . S
C1938 H1942 0.950 . S
C1938 C1947 1.390 . S
C1939 C1938 1.387 . S
C1939 C1941 1.387 . S
H1940 C1947 0.950 . S
C1941 C1939 1.387 . S
C1941 C1943 1.390 . S
C1941 H1945 0.950 . S
H1942 C1938 0.950 . S
C1943 C1941 1.390 . S
C1943 C1944 1.387 . S
C1943 H1946 0.950 . S
C1944 C1943 1.387 . S
C1944 C1947 1.387 . S
H1945 C1941 0.950 . S
H1946 C1943 0.950 . S
C1947 C1938 1.390 . S
C1947 H1940 0.950 . S
C1947 C1944 1.387 . S
C1948 C1949 1.387 . S
C1948 H1952 0.950 . S
C1948 C1957 1.390 . S
C1949 C1948 1.387 . S
C1949 C1951 1.387 . S
H1950 C1957 0.950 . S
C1951 C1949 1.387 . S
C1951 C1953 1.390 . S
C1951 H1955 0.950 . S
H1952 C1948 0.950 . S
C1953 C1951 1.390 . S
C1953 C1954 1.387 . S
C1953 H1956 0.950 . S
C1954 C1953 1.387 . S
C1954 C1957 1.387 . S
H1955 C1951 0.950 . S
H1956 C1953 0.950 . S
C1957 C1948 1.390 . S
C1957 H1950 0.950 . S
C1957 C1954 1.387 . S
C1958 C1959 1.387 . S
C1958 H1962 0.950 . S
C1958 C1967 1.390 . S
C1959 C1958 1.387 . S
C1959 C1961 1.387 . S
H1960 C1967 0.950 . S
C1961 C1959 1.387 . S
C1961 C1963 1.390 . S
C1961 H1965 0.950 . S
H1962 C1958 0.950 . S
C1963 C1961 1.390 . S
C1963 C1964 1.387 . S
C1963 H1966 0.950 . S
C1964 C1963 1.387 . S
C1964 C1967 1.387 . S
H1965 C1961 0.950 . S
H1966 C1963 0.950 . S
C1967 C1958 1.390 . S
C1967 H1960 0.950 . S
C1967 C1964 1.387 . S
C1968 C1969 1.387 . S
C1968 H1972 0.950 . S
C1968 C1977 1.390 . S
C1969 C1968 1.387 . S
C1969 C1971 1.387 . S
H1970 C1977 0.950 . S
C1971 C1969 1.387 . S
C1971 C1973 1.390 . S
C1971 H1975 0.950 . S
H1972 C1968 0.950 . S
C1973 C1971 1.390 . S
C1973 C1974 1.387 . S
C1973 H1976 0.950 . S
C1974 C1973 1.387 . S
C1974 C1977 1.387 . S
H1975 C1971 0.950 . S
H1976 C1973 0.950 . S
C1977 C1968 1.390 . S
C1977 H1970 0.950 . S
C1977 C1974 1.387 . S
C1978 C1979 1.387 . S
C1978 H1982 0.950 . S
C1978 C1987 1.390 . S
C1979 C1978 1.387 . S
C1979 C1981 1.387 . S
H1980 C1987 0.950 . S
C1981 C1979 1.387 . S
C1981 C1983 1.390 . S
C1981 H1985 0.950 . S
H1982 C1978 0.950 . S
C1983 C1981 1.390 . S
C1983 C1984 1.387 . S
C1983 H1986 0.950 . S
C1984 C1983 1.387 . S
C1984 C1987 1.387 . S
H1985 C1981 0.950 . S
H1986 C1983 0.950 . S
C1987 C1978 1.390 . S
C1987 H1980 0.950 . S
C1987 C1984 1.387 . S
C1988 C1989 1.387 . S
C1988 H1992 0.950 . S
C1988 C1997 1.390 . S
C1989 C1988 1.387 . S
C1989 C1991 1.387 . S
H1990 C1997 0.950 . S
C1991 C1989 1.387 . S
C1991 C1993 1.390 . S
C1991 H1995 0.950 . S
H1992 C1988 0.950 . S
C1993 C1991 1.390 . S
C1993 C1994 1.387 . S
C1993 H1996 0.950 . S
C1994 C1993 1.387 . S
C1994 C1997 1.387 . S
H1995 C1991 0.950 . S
H1996 C1993 0.950 . S
C1997 C1988 1.390 . S
C1997 H1990 0.950 . S
C1997 C1994 1.387 . S
C1998 C1999 1.387 . S
C1998 H2002 0.950 . S
C1998 C2007 1.390 . S
C1999 C1998 1.387 . S
C1999 C2001 1.387 . S
H2000 C2007 0.950 . S
C2001 C1999 1.387 . S
C2001 C2003 1.390 . S
C2001 H2005 0.950 . S
H2002 C1998 0.950 . S
C2003 C2001 1.390 . S
C2003 C2004 1.387 . S
C2003 H2006 0.950 . S
C2004 C2003 1.387 . S
C2004 C2007 1.387 . S
H2005 C2001 0.950 . S
H2006 C2003 0.950 . S
C2007 C1998 1.390 . S
C2007 H2000 0.950 . S
C2007 C2004 1.387 . S
C2008 C2009 1.387 . S
C2008 H2012 0.950 . S
C2008 C2017 1.390 . S
C2009 C2008 1.387 . S
C2009 C2011 1.387 . S
H2010 C2017 0.950 . S
C2011 C2009 1.387 . S
C2011 C2013 1.390 . S
C2011 H2015 0.950 . S
H2012 C2008 0.950 . S
C2013 C2011 1.390 . S
C2013 C2014 1.387 . S
C2013 H2016 0.950 . S
C2014 C2013 1.387 . S
C2014 C2017 1.387 . S
H2015 C2011 0.950 . S
H2016 C2013 0.950 . S
C2017 C2008 1.390 . S
C2017 H2010 0.950 . S
C2017 C2014 1.387 . S
C2018 C2019 1.387 . S
C2018 H2022 0.950 . S
C2018 C2027 1.390 . S
C2019 C2018 1.387 . S
C2019 C2021 1.387 . S
H2020 C2027 0.950 . S
C2021 C2019 1.387 . S
C2021 C2023 1.390 . S
C2021 H2025 0.950 . S
H2022 C2018 0.950 . S
C2023 C2021 1.390 . S
C2023 C2024 1.387 . S
C2023 H2026 0.950 . S
C2024 C2023 1.387 . S
C2024 C2027 1.387 . S
H2025 C2021 0.950 . S
H2026 C2023 0.950 . S
C2027 C2018 1.390 . S
C2027 H2020 0.950 . S
C2027 C2024 1.387 . S
C2028 C2029 1.387 . S
C2028 H2032 0.950 . S
C2028 C2037 1.390 . S
C2029 C2028 1.387 . S
C2029 C2031 1.387 . S
H2030 C2037 0.950 . S
C2031 C2029 1.387 . S
C2031 C2033 1.390 . S
C2031 H2035 0.950 . S
H2032 C2028 0.950 . S
C2033 C2031 1.390 . S
C2033 C2034 1.387 . S
C2033 H2036 0.950 . S
C2034 C2033 1.387 . S
C2034 C2037 1.387 . S
H2035 C2031 0.950 . S
H2036 C2033 0.950 . S
C2037 C2028 1.390 . S
C2037 H2030 0.950 . S
C2037 C2034 1.387 . S
C2038 C2039 1.387 . S
C2038 H2042 0.950 . S
C2038 C2047 1.390 . S
C2039 C2038 1.387 . S
C2039 C2041 1.387 . S
H2040 C2047 0.950 . S
C2041 C2039 1.387 . S
C2041 C2043 1.390 . S
C2041 H2045 0.950 . S
H2042 C2038 0.950 . S
C2043 C2041 1.390 . S
C2043 C2044 1.387 . S
C2043 H2046 0.950 . S
C2044 C2043 1.387 . S
C2044 C2047 1.387 . S
H2045 C2041 0.950 . S
H2046 C2043 0.950 . S
C2047 C2038 1.390 . S
C2047 H2040 0.950 . S
C2047 C2044 1.387 . S
C2048 C2049 1.387 . S
C2048 H2052 0.950 . S
C2048 C2057 1.390 . S
C2049 C2048 1.387 . S
C2049 C2051 1.387 . S
H2050 C2057 0.950 . S
C2051 C2049 1.387 . S
C2051 C2053 1.390 . S
C2051 H2055 0.950 . S
H2052 C2048 0.950 . S
C2053 C2051 1.390 . S
C2053 C2054 1.387 . S
C2053 H2056 0.950 . S
C2054 C2053 1.387 . S
C2054 C2057 1.387 . S
H2055 C2051 0.950 . S
H2056 C2053 0.950 . S
C2057 C2048 1.390 . S
C2057 H2050 0.950 . S
C2057 C2054 1.387 . S
C2058 C2059 1.387 . S
C2058 H2062 0.950 . S
C2058 C2067 1.390 . S
C2059 C2058 1.387 . S
C2059 C2061 1.387 . S
H2060 C2067 0.950 . S
C2061 C2059 1.387 . S
C2061 C2063 1.390 . S
C2061 H2065 0.950 . S
H2062 C2058 0.950 . S
C2063 C2061 1.390 . S
C2063 C2064 1.387 . S
C2063 H2066 0.950 . S
C2064 C2063 1.387 . S
C2064 C2067 1.387 . S
H2065 C2061 0.950 . S
H2066 C2063 0.950 . S
C2067 C2058 1.390 . S
C2067 H2060 0.950 . S
C2067 C2064 1.387 . S
C2068 C2069 1.387 . S
C2068 H2072 0.950 . S
C2068 C2077 1.390 . S
C2069 C2068 1.387 . S
C2069 C2071 1.387 . S
H2070 C2077 0.950 . S
C2071 C2069 1.387 . S
C2071 C2073 1.390 . S
C2071 H2075 0.950 . S
H2072 C2068 0.950 . S
C2073 C2071 1.390 . S
C2073 C2074 1.387 . S
C2073 H2076 0.950 . S
C2074 C2073 1.387 . S
C2074 C2077 1.387 . S
H2075 C2071 0.950 . S
H2076 C2073 0.950 . S
C2077 C2068 1.390 . S
C2077 H2070 0.950 . S
C2077 C2074 1.387 . S
C2078 C2079 1.387 . S
C2078 H2082 0.950 . S
C2078 C2087 1.390 . S
C2079 C2078 1.387 . S
C2079 C2081 1.387 . S
H2080 C2087 0.950 . S
C2081 C2079 1.387 . S
C2081 C2083 1.390 . S
C2081 H2085 0.950 . S
H2082 C2078 0.950 . S
C2083 C2081 1.390 . S
C2083 C2084 1.387 . S
C2083 H2086 0.950 . S
C2084 C2083 1.387 . S
C2084 C2087 1.387 . S
H2085 C2081 0.950 . S
H2086 C2083 0.950 . S
C2087 C2078 1.390 . S
C2087 H2080 0.950 . S
C2087 C2084 1.387 . S
C2088 C2089 1.387 . S
C2088 H2092 0.950 . S
C2088 C2097 1.390 . S
C2089 C2088 1.387 . S
C2089 C2091 1.387 . S
H2090 C2097 0.950 . S
C2091 C2089 1.387 . S
C2091 C2093 1.390 . S
C2091 H2095 0.950 . S
H2092 C2088 0.950 . S
C2093 C2091 1.390 . S
C2093 C2094 1.387 . S
C2093 H2096 0.950 . S
C2094 C2093 1.387 . S
C2094 C2097 1.387 . S
H2095 C2091 0.950 . S
H2096 C2093 0.950 . S
C2097 C2088 1.390 . S
C2097 H2090 0.950 . S
C2097 C2094 1.387 . S
C2098 C2099 1.387 . S
C2098 H2102 0.950 . S
C2098 C2107 1.390 . S
C2099 C2098 1.387 . S
C2099 C2101 1.387 . S
H2100 C2107 0.950 . S
C2101 C2099 1.387 . S
C2101 C2103 1.390 . S
C2101 H2105 0.950 . S
H2102 C2098 0.950 . S
C2103 C2101 1.390 . S
C2103 C2104 1.387 . S
C2103 H2106 0.950 . S
C2104 C2103 1.387 . S
C2104 C2107 1.387 . S
H2105 C2101 0.950 . S
H2106 C2103 0.950 . S
C2107 C2098 1.390 . S
C2107 H2100 0.950 . S
C2107 C2104 1.387 . S
C2108 C2109 1.387 . S
C2108 H2112 0.950 . S
C2108 C2117 1.390 . S
C2109 C2108 1.387 . S
C2109 C2111 1.387 . S
H2110 C2117 0.950 . S
C2111 C2109 1.387 . S
C2111 C2113 1.390 . S
C2111 H2115 0.950 . S
H2112 C2108 0.950 . S
C2113 C2111 1.390 . S
C2113 C2114 1.387 . S
C2113 H2116 0.950 . S
C2114 C2113 1.387 . S
C2114 C2117 1.387 . S
H2115 C2111 0.950 . S
H2116 C2113 0.950 . S
C2117 C2108 1.390 . S
C2117 H2110 0.950 . S
C2117 C2114 1.387 . S
C2118 C2119 1.387 . S
C2118 H2122 0.950 . S
C2118 C2127 1.390 . S
C2119 C2118 1.387 . S
C2119 C2121 1.387 . S
H2120 C2127 0.950 . S
C2121 C2119 1.387 . S
C2121 C2123 1.390 . S
C2121 H2125 0.950 . S
H2122 C2118 0.950 . S
C2123 C2121 1.390 . S
C2123 C2124 1.387 . S
C2123 H2126 0.950 . S
C2124 C2123 1.387 . S
C2124 C2127 1.387 . S
H2125 C2121 0.950 . S
H2126 C2123 0.950 . S
C2127 C2118 1.390 . S
C2127 H2120 0.950 . S
C2127 C2124 1.387 . S
C2128 C2129 1.387 . S
C2128 H2132 0.950 . S
C2128 C2137 1.390 . S
C2129 C2128 1.387 . S
C2129 C2131 1.387 . S
H2130 C2137 0.950 . S
C2131 C2129 1.387 . S
C2131 C2133 1.390 . S
C2131 H2135 0.950 . S
H2132 C2128 0.950 . S
C2133 C2131 1.390 . S
C2133 C2134 1.387 . S
C2133 H2136 0.950 . S
C2134 C2133 1.387 . S
C2134 C2137 1.387 . S
H2135 C2131 0.950 . S
H2136 C2133 0.950 . S
C2137 C2128 1.390 . S
C2137 H2130 0.950 . S
C2137 C2134 1.387 . S
C2138 C2139 1.387 . S
C2138 H2142 0.950 . S
C2138 C2147 1.390 . S
C2139 C2138 1.387 . S
C2139 C2141 1.387 . S
H2140 C2147 0.950 . S
C2141 C2139 1.387 . S
C2141 C2143 1.390 . S
C2141 H2145 0.950 . S
H2142 C2138 0.950 . S
C2143 C2141 1.390 . S
C2143 C2144 1.387 . S
C2143 H2146 0.950 . S
C2144 C2143 1.387 . S
C2144 C2147 1.387 . S
H2145 C2141 0.950 . S
H2146 C2143 0.950 . S
C2147 C2138 1.390 . S
C2147 H2140 0.950 . S
C2147 C2144 1.387 . S
C2148 C2149 1.387 . S
C2148 H2152 0.950 . S
C2148 C2157 1.390 . S
C2149 C2148 1.387 . S
C2149 C2151 1.387 . S
H2150 C2157 0.950 . S
C2151 C2149 1.387 . S
C2151 C2153 1.390 . S
C2151 H2155 0.950 . S
H2152 C2148 0.950 . S
C2153 C2151 1.390 . S
C2153 C2154 1.387 . S
C2153 H2156 0.950 . S
C2154 C2153 1.387 . S
C2154 C2157 1.387 . S
H2155 C2151 0.950 . S
H2156 C2153 0.950 . S
C2157 C2148 1.390 . S
C2157 H2150 0.950 . S
C2157 C2154 1.387 . S
C2158 C2159 1.387 . S
C2158 H2162 0.950 . S
C2158 C2167 1.390 . S
C2159 C2158 1.387 . S
C2159 C2161 1.387 . S
H2160 C2167 0.950 . S
C2161 C2159 1.387 . S
C2161 C2163 1.390 . S
C2161 H2165 0.950 . S
H2162 C2158 0.950 . S
C2163 C2161 1.390 . S
C2163 C2164 1.387 . S
C2163 H2166 0.950 . S
C2164 C2163 1.387 . S
C2164 C2167 1.387 . S
H2165 C2161 0.950 . S
H2166 C2163 0.950 . S
C2167 C2158 1.390 . S
C2167 H2160 0.950 . S
C2167 C2164 1.387 . S
C2168 C2169 1.387 . S
C2168 H2172 0.950 . S
C2168 C2177 1.390 . S
C2169 C2168 1.387 . S
C2169 C2171 1.387 . S
H2170 C2177 0.950 . S
C2171 C2169 1.387 . S
C2171 C2173 1.390 . S
C2171 H2175 0.950 . S
H2172 C2168 0.950 . S
C2173 C2171 1.390 . S
C2173 C2174 1.387 . S
C2173 H2176 0.950 . S
C2174 C2173 1.387 . S
C2174 C2177 1.387 . S
H2175 C2171 0.950 . S
H2176 C2173 0.950 . S
C2177 C2168 1.390 . S
C2177 H2170 0.950 . S
C2177 C2174 1.387 . S
C2178 C2179 1.387 . S
C2178 H2182 0.950 . S
C2178 C2187 1.390 . S
C2179 C2178 1.387 . S
C2179 C2181 1.387 . S
H2180 C2187 0.950 . S
C2181 C2179 1.387 . S
C2181 C2183 1.390 . S
C2181 H2185 0.950 . S
H2182 C2178 0.950 . S
C2183 C2181 1.390 . S
C2183 C2184 1.387 . S
C2183 H2186 0.950 . S
C2184 C2183 1.387 . S
C2184 C2187 1.387 . S
H2185 C2181 0.950 . S
H2186 C2183 0.950 . S
C2187 C2178 1.390 . S
C2187 H2180 0.950 . S
C2187 C2184 1.387 . S
C2188 C2189 1.387 . S
C2188 H2192 0.950 . S
C2188 C2197 1.390 . S
C2189 C2188 1.387 . S
C2189 C2191 1.387 . S
H2190 C2197 0.950 . S
C2191 C2189 1.387 . S
C2191 C2193 1.390 . S
C2191 H2195 0.950 . S
H2192 C2188 0.950 . S
C2193 C2191 1.390 . S
C2193 C2194 1.387 . S
C2193 H2196 0.950 . S
C2194 C2193 1.387 . S
C2194 C2197 1.387 . S
H2195 C2191 0.950 . S
H2196 C2193 0.950 . S
C2197 C2188 1.390 . S
C2197 H2190 0.950 . S
C2197 C2194 1.387 . S
C2198 C2199 1.387 . S
C2198 H2202 0.950 . S
C2198 C2207 1.390 . S
C2199 C2198 1.387 . S
C2199 C2201 1.387 . S
H2200 C2207 0.950 . S
C2201 C2199 1.387 . S
C2201 C2203 1.390 . S
C2201 H2205 0.950 . S
H2202 C2198 0.950 . S
C2203 C2201 1.390 . S
C2203 C2204 1.387 . S
C2203 H2206 0.950 . S
C2204 C2203 1.387 . S
C2204 C2207 1.387 . S
H2205 C2201 0.950 . S
H2206 C2203 0.950 . S
C2207 C2198 1.390 . S
C2207 H2200 0.950 . S
C2207 C2204 1.387 . S
C2208 C2209 1.387 . S
C2208 H2212 0.950 . S
C2208 C2217 1.390 . S
C2209 C2208 1.387 . S
C2209 C2211 1.387 . S
H2210 C2217 0.950 . S
C2211 C2209 1.387 . S
C2211 C2213 1.390 . S
C2211 H2215 0.950 . S
H2212 C2208 0.950 . S
C2213 C2211 1.390 . S
C2213 C2214 1.387 . S
C2213 H2216 0.950 . S
C2214 C2213 1.387 . S
C2214 C2217 1.387 . S
H2215 C2211 0.950 . S
H2216 C2213 0.950 . S
C2217 C2208 1.390 . S
C2217 H2210 0.950 . S
C2217 C2214 1.387 . S
C2218 C2219 1.387 1_545 S
C2218 H2222 0.950 . S
C2218 C2227 1.391 . S
C2219 C2218 1.387 1_565 S
C2219 C2221 1.386 1_655 S
H2220 C2227 0.950 . S
C2221 C2219 1.386 1_455 S
C2221 C2223 1.391 . S
C2221 H2225 0.950 . S
H2222 C2218 0.950 . S
C2223 C2221 1.391 . S
C2223 C2224 1.387 1_565 S
C2223 H2226 0.950 . S
C2224 C2223 1.387 1_545 S
C2224 C2227 1.386 1_455 S
H2225 C2221 0.950 . S
H2226 C2223 0.950 . S
C2227 C2218 1.391 . S
C2227 H2220 0.950 . S
C2227 C2224 1.386 1_655 S
C2228 C2229 1.387 . S
C2228 H2232 0.950 . S
C2228 C2237 1.390 . S
C2229 C2228 1.387 . S
C2229 C2231 1.387 . S
H2230 C2237 0.950 . S
C2231 C2229 1.387 . S
C2231 C2233 1.390 . S
C2231 H2235 0.950 . S
H2232 C2228 0.950 . S
C2233 C2231 1.390 . S
C2233 C2234 1.387 . S
C2233 H2236 0.950 . S
C2234 C2233 1.387 . S
C2234 C2237 1.387 . S
H2235 C2231 0.950 . S
H2236 C2233 0.950 . S
C2237 C2228 1.390 . S
C2237 H2230 0.950 . S
C2237 C2234 1.387 . S
C2238 C2239 1.387 1_556 S
C2238 H2242 0.950 . S
C2238 C2247 1.390 . S
C2239 C2238 1.387 1_554 S
C2239 C2241 1.387 1_545 S
H2240 C2247 0.950 . S
C2241 C2239 1.387 1_565 S
C2241 C2243 1.390 . S
C2241 H2245 0.950 . S
H2242 C2238 0.950 . S
C2243 C2241 1.390 . S
C2243 C2244 1.387 1_554 S
C2243 H2246 0.950 . S
C2244 C2243 1.387 1_556 S
C2244 C2247 1.387 1_565 S
H2245 C2241 0.950 . S
H2246 C2243 0.950 . S
C2247 C2238 1.390 . S
C2247 H2240 0.950 . S
C2247 C2244 1.387 1_545 S
C2248 C2249 1.387 . S
C2248 H2252 0.950 . S
C2248 C2257 1.390 . S
C2249 C2248 1.387 . S
C2249 C2251 1.387 . S
H2250 C2257 0.950 . S
C2251 C2249 1.387 . S
C2251 C2253 1.390 . S
C2251 H2255 0.950 . S
H2252 C2248 0.950 . S
C2253 C2251 1.390 . S
C2253 C2254 1.387 . S
C2253 H2256 0.950 . S
C2254 C2253 1.387 . S
C2254 C2257 1.387 . S
H2255 C2251 0.950 . S
H2256 C2253 0.950 . S
C2257 C2248 1.390 . S
C2257 H2250 0.950 . S
C2257 C2254 1.387 . S
C2258 C2259 1.387 . S
C2258 H2262 0.950 . S
C2258 C2267 1.390 1_565 S
C2259 C2258 1.387 . S
C2259 C2261 1.387 . S
H2260 C2267 0.950 . S
C2261 C2259 1.387 . S
C2261 C2263 1.390 1_565 S
C2261 H2265 0.950 . S
H2262 C2258 0.950 . S
C2263 C2261 1.390 1_545 S
C2263 C2264 1.387 . S
C2263 H2266 0.950 . S
C2264 C2263 1.387 . S
C2264 C2267 1.387 . S
H2265 C2261 0.950 . S
H2266 C2263 0.950 . S
C2267 C2258 1.390 1_545 S
C2267 H2260 0.950 . S
C2267 C2264 1.387 . S
C2268 C2269 1.387 . S
C2268 H2272 0.950 . S
C2268 C2277 1.390 . S
C2269 C2268 1.387 . S
C2269 C2271 1.387 . S
H2270 C2277 0.950 . S
C2271 C2269 1.387 . S
C2271 C2273 1.390 . S
C2271 H2275 0.950 . S
H2272 C2268 0.950 . S
C2273 C2271 1.390 . S
C2273 C2274 1.387 . S
C2273 H2276 0.950 . S
C2274 C2273 1.387 . S
C2274 C2277 1.387 . S
H2275 C2271 0.950 . S
H2276 C2273 0.950 . S
C2277 C2268 1.390 . S
C2277 H2270 0.950 . S
C2277 C2274 1.387 . S
C2278 C2279 1.387 1_554 S
C2278 H2282 0.950 . S
C2278 C2287 1.388 1_655 S
C2279 C2278 1.387 1_556 S
C2279 C2281 1.390 1_545 S
H2280 C2287 0.950 . S
C2281 C2279 1.390 1_565 S
C2281 C2283 1.388 1_655 S
C2281 H2285 0.950 . S
H2282 C2278 0.950 . S
C2283 C2281 1.388 1_455 S
C2283 C2284 1.387 1_556 S
C2283 H2286 0.950 . S
C2284 C2283 1.387 1_554 S
C2284 C2287 1.390 1_565 S
H2285 C2281 0.950 . S
H2286 C2283 0.950 . S
C2287 C2278 1.388 1_455 S
C2287 H2280 0.950 . S
C2287 C2284 1.390 1_545 S
C2288 C2289 1.387 . S
C2288 H2292 0.950 . S
C2288 C2297 1.390 . S
C2289 C2288 1.387 . S
C2289 C2291 1.387 . S
H2290 C2297 0.950 . S
C2291 C2289 1.387 . S
C2291 C2293 1.390 . S
C2291 H2295 0.950 . S
H2292 C2288 0.950 . S
C2293 C2291 1.390 . S
C2293 C2294 1.387 . S
C2293 H2296 0.950 . S
C2294 C2293 1.387 . S
C2294 C2297 1.387 . S
H2295 C2291 0.950 . S
H2296 C2293 0.950 . S
C2297 C2288 1.390 . S
C2297 H2290 0.950 . S
C2297 C2294 1.387 . S
C2298 C2299 1.387 . S
C2298 H2302 0.950 . S
C2298 C2307 1.390 . S
C2299 C2298 1.387 . S
C2299 C2301 1.387 . S
H2300 C2307 0.950 . S
C2301 C2299 1.387 . S
C2301 C2303 1.390 . S
C2301 H2305 0.950 . S
H2302 C2298 0.950 . S
C2303 C2301 1.390 . S
C2303 C2304 1.387 . S
C2303 H2306 0.950 . S
C2304 C2303 1.387 . S
C2304 C2307 1.387 . S
H2305 C2301 0.950 . S
H2306 C2303 0.950 . S
C2307 C2298 1.390 . S
C2307 H2300 0.950 . S
C2307 C2304 1.387 . S
C2308 C2309 1.387 . S
C2308 H2312 0.950 . S
C2308 C2317 1.390 . S
C2309 C2308 1.387 . S
C2309 C2311 1.387 . S
H2310 C2317 0.950 . S
C2311 C2309 1.387 . S
C2311 C2313 1.390 . S
C2311 H2315 0.950 . S
H2312 C2308 0.950 . S
C2313 C2311 1.390 . S
C2313 C2314 1.387 . S
C2313 H2316 0.950 . S
C2314 C2313 1.387 . S
C2314 C2317 1.387 . S
H2315 C2311 0.950 . S
H2316 C2313 0.950 . S
C2317 C2308 1.390 . S
C2317 H2310 0.950 . S
C2317 C2314 1.387 . S
C2318 C2319 1.387 . S
C2318 H2322 0.950 . S
C2318 C2327 1.390 . S
C2319 C2318 1.387 . S
C2319 C2321 1.387 . S
H2320 C2327 0.950 . S
C2321 C2319 1.387 . S
C2321 C2323 1.390 . S
C2321 H2325 0.950 . S
H2322 C2318 0.950 . S
C2323 C2321 1.390 . S
C2323 C2324 1.387 . S
C2323 H2326 0.950 . S
C2324 C2323 1.387 . S
C2324 C2327 1.387 . S
H2325 C2321 0.950 . S
H2326 C2323 0.950 . S
C2327 C2318 1.390 . S
C2327 H2320 0.950 . S
C2327 C2324 1.387 . S
C2328 C2329 1.387 . S
C2328 H2332 0.950 . S
C2328 C2337 1.390 . S
C2329 C2328 1.387 . S
C2329 C2331 1.387 1_554 S
H2330 C2337 0.950 . S
C2331 C2329 1.387 1_556 S
C2331 C2333 1.390 . S
C2331 H2335 0.950 . S
H2332 C2328 0.950 . S
C2333 C2331 1.390 . S
C2333 C2334 1.387 . S
C2333 H2336 0.950 . S
C2334 C2333 1.387 . S
C2334 C2337 1.387 1_556 S
H2335 C2331 0.950 . S
H2336 C2333 0.950 . S
C2337 C2328 1.390 . S
C2337 H2330 0.950 . S
C2337 C2334 1.387 1_554 S
C2338 C2339 1.387 . S
C2338 H2342 0.950 . S
C2338 C2347 1.390 . S
C2339 C2338 1.387 . S
C2339 C2341 1.387 1_655 S
H2340 C2347 0.950 . S
C2341 C2339 1.387 1_455 S
C2341 C2343 1.390 . S
C2341 H2345 0.950 . S
H2342 C2338 0.950 . S
C2343 C2341 1.390 . S
C2343 C2344 1.387 . S
C2343 H2346 0.950 . S
C2344 C2343 1.387 . S
C2344 C2347 1.387 1_455 S
H2345 C2341 0.950 . S
H2346 C2343 0.950 . S
C2347 C2338 1.390 . S
C2347 H2340 0.950 . S
C2347 C2344 1.387 1_655 S
C2348 C2349 1.387 1_554 S
C2348 H2352 0.950 . S
C2348 C2357 1.382 1_455 S
C2349 C2348 1.387 1_556 S
C2349 C2351 1.395 . S
H2350 C2357 0.950 . S
C2351 C2349 1.395 . S
C2351 C2353 1.382 1_455 S
C2351 H2355 0.950 . S
H2352 C2348 0.950 . S
C2353 C2351 1.382 1_655 S
C2353 C2354 1.387 1_556 S
C2353 H2356 0.950 . S
C2354 C2353 1.387 1_554 S
C2354 C2357 1.395 . S
H2355 C2351 0.950 . S
H2356 C2353 0.950 . S
C2357 C2348 1.382 1_655 S
C2357 H2350 0.950 . S
C2357 C2354 1.395 . S
C2358 C2359 1.387 . S
C2358 H2362 0.950 . S
C2358 C2367 1.390 . S
C2359 C2358 1.387 . S
C2359 C2361 1.387 . S
H2360 C2367 0.950 . S
C2361 C2359 1.387 . S
C2361 C2363 1.390 . S
C2361 H2365 0.950 . S
H2362 C2358 0.950 . S
C2363 C2361 1.390 . S
C2363 C2364 1.387 . S
C2363 H2366 0.950 . S
C2364 C2363 1.387 . S
C2364 C2367 1.387 . S
H2365 C2361 0.950 . S
H2366 C2363 0.950 . S
C2367 C2358 1.390 . S
C2367 H2360 0.950 . S
C2367 C2364 1.387 . S
C2368 C2369 1.387 . S
C2368 H2372 0.950 . S
C2368 C2377 1.390 . S
C2369 C2368 1.387 . S
C2369 C2371 1.387 . S
H2370 C2377 0.950 . S
C2371 C2369 1.387 . S
C2371 C2373 1.390 . S
C2371 H2375 0.950 . S
H2372 C2368 0.950 . S
C2373 C2371 1.390 . S
C2373 C2374 1.387 . S
C2373 H2376 0.950 . S
C2374 C2373 1.387 . S
C2374 C2377 1.387 . S
H2375 C2371 0.950 . S
H2376 C2373 0.950 . S
C2377 C2368 1.390 . S
C2377 H2370 0.950 . S
C2377 C2374 1.387 . S
C2378 C2379 1.387 . S
C2378 H2382 0.950 . S
C2378 C2387 1.390 . S
C2379 C2378 1.387 . S
C2379 C2381 1.387 . S
H2380 C2387 0.950 . S
C2381 C2379 1.387 . S
C2381 C2383 1.390 . S
C2381 H2385 0.950 . S
H2382 C2378 0.950 . S
C2383 C2381 1.390 . S
C2383 C2384 1.387 . S
C2383 H2386 0.950 . S
C2384 C2383 1.387 . S
C2384 C2387 1.387 . S
H2385 C2381 0.950 . S
H2386 C2383 0.950 . S
C2387 C2378 1.390 . S
C2387 H2380 0.950 . S
C2387 C2384 1.387 . S
C2388 C2389 1.387 . S
C2388 H2392 0.950 . S
C2388 C2397 1.390 . S
C2389 C2388 1.387 . S
C2389 C2391 1.387 . S
H2390 C2397 0.950 . S
C2391 C2389 1.387 . S
C2391 C2393 1.390 . S
C2391 H2395 0.950 . S
H2392 C2388 0.950 . S
C2393 C2391 1.390 . S
C2393 C2394 1.387 . S
C2393 H2396 0.950 . S
C2394 C2393 1.387 . S
C2394 C2397 1.387 . S
H2395 C2391 0.950 . S
H2396 C2393 0.950 . S
C2397 C2388 1.390 . S
C2397 H2390 0.950 . S
C2397 C2394 1.387 . S
C2398 C2399 1.387 . S
C2398 H2402 0.950 . S
C2398 C2407 1.390 . S
C2399 C2398 1.387 . S
C2399 C2401 1.387 . S
H2400 C2407 0.950 . S
C2401 C2399 1.387 . S
C2401 C2403 1.390 . S
C2401 H2405 0.950 . S
H2402 C2398 0.950 . S
C2403 C2401 1.390 . S
C2403 C2404 1.387 . S
C2403 H2406 0.950 . S
C2404 C2403 1.387 . S
C2404 C2407 1.387 . S
H2405 C2401 0.950 . S
H2406 C2403 0.950 . S
C2407 C2398 1.390 . S
C2407 H2400 0.950 . S
C2407 C2404 1.387 . S
C2408 C2409 1.387 . S
C2408 H2412 0.950 . S
C2408 C2417 1.390 . S
C2409 C2408 1.387 . S
C2409 C2411 1.387 . S
H2410 C2417 0.950 . S
C2411 C2409 1.387 . S
C2411 C2413 1.390 . S
C2411 H2415 0.950 . S
H2412 C2408 0.950 . S
C2413 C2411 1.390 . S
C2413 C2414 1.387 . S
C2413 H2416 0.950 . S
C2414 C2413 1.387 . S
C2414 C2417 1.387 . S
H2415 C2411 0.950 . S
H2416 C2413 0.950 . S
C2417 C2408 1.390 . S
C2417 H2410 0.950 . S
C2417 C2414 1.387 . S
C2418 C2419 1.387 . S
C2418 H2422 0.950 . S
C2418 C2427 1.390 . S
C2419 C2418 1.387 . S
C2419 C2421 1.387 . S
H2420 C2427 0.950 . S
C2421 C2419 1.387 . S
C2421 C2423 1.390 . S
C2421 H2425 0.950 . S
H2422 C2418 0.950 . S
C2423 C2421 1.390 . S
C2423 C2424 1.387 . S
C2423 H2426 0.950 . S
C2424 C2423 1.387 . S
C2424 C2427 1.387 . S
H2425 C2421 0.950 . S
H2426 C2423 0.950 . S
C2427 C2418 1.390 . S
C2427 H2420 0.950 . S
C2427 C2424 1.387 . S
C2428 C2429 1.387 . S
C2428 H2432 0.950 . S
C2428 C2437 1.390 . S
C2429 C2428 1.387 . S
C2429 C2431 1.387 . S
H2430 C2437 0.950 . S
C2431 C2429 1.387 . S
C2431 C2433 1.390 . S
C2431 H2435 0.950 . S
H2432 C2428 0.950 . S
C2433 C2431 1.390 . S
C2433 C2434 1.387 . S
C2433 H2436 0.950 . S
C2434 C2433 1.387 . S
C2434 C2437 1.387 . S
H2435 C2431 0.950 . S
H2436 C2433 0.950 . S
C2437 C2428 1.390 . S
C2437 H2430 0.950 . S
C2437 C2434 1.387 . S
C2438 C2439 1.387 . S
C2438 H2442 0.950 . S
C2438 C2447 1.390 . S
C2439 C2438 1.387 . S
C2439 C2441 1.387 . S
H2440 C2447 0.950 . S
C2441 C2439 1.387 . S
C2441 C2443 1.390 . S
C2441 H2445 0.950 . S
H2442 C2438 0.950 . S
C2443 C2441 1.390 . S
C2443 C2444 1.387 . S
C2443 H2446 0.950 . S
C2444 C2443 1.387 . S
C2444 C2447 1.387 . S
H2445 C2441 0.950 . S
H2446 C2443 0.950 . S
C2447 C2438 1.390 . S
C2447 H2440 0.950 . S
C2447 C2444 1.387 . S
C2448 C2449 1.387 . S
C2448 H2452 0.950 . S
C2448 C2457 1.390 . S
C2449 C2448 1.387 . S
C2449 C2451 1.387 . S
H2450 C2457 0.950 . S
C2451 C2449 1.387 . S
C2451 C2453 1.390 . S
C2451 H2455 0.950 . S
H2452 C2448 0.950 . S
C2453 C2451 1.390 . S
C2453 C2454 1.387 . S
C2453 H2456 0.950 . S
C2454 C2453 1.387 . S
C2454 C2457 1.387 . S
H2455 C2451 0.950 . S
H2456 C2453 0.950 . S
C2457 C2448 1.390 . S
C2457 H2450 0.950 . S
C2457 C2454 1.387 . S
C2458 C2459 1.387 . S
C2458 H2462 0.950 . S
C2458 C2467 1.390 . S
C2459 C2458 1.387 . S
C2459 C2461 1.387 . S
H2460 C2467 0.950 . S
C2461 C2459 1.387 . S
C2461 C2463 1.390 . S
C2461 H2465 0.950 . S
H2462 C2458 0.950 . S
C2463 C2461 1.390 . S
C2463 C2464 1.387 . S
C2463 H2466 0.950 . S
C2464 C2463 1.387 . S
C2464 C2467 1.387 . S
H2465 C2461 0.950 . S
H2466 C2463 0.950 . S
C2467 C2458 1.390 . S
C2467 H2460 0.950 . S
C2467 C2464 1.387 . S
C2468 C2469 1.387 . S
C2468 H2472 0.950 . S
C2468 C2477 1.390 . S
C2469 C2468 1.387 . S
C2469 C2471 1.387 . S
H2470 C2477 0.950 . S
C2471 C2469 1.387 . S
C2471 C2473 1.390 . S
C2471 H2475 0.950 . S
H2472 C2468 0.950 . S
C2473 C2471 1.390 . S
C2473 C2474 1.387 . S
C2473 H2476 0.950 . S
C2474 C2473 1.387 . S
C2474 C2477 1.387 . S
H2475 C2471 0.950 . S
H2476 C2473 0.950 . S
C2477 C2468 1.390 . S
C2477 H2470 0.950 . S
C2477 C2474 1.387 . S
C2478 C2479 1.387 . S
C2478 H2482 0.950 . S
C2478 C2487 1.390 . S
C2479 C2478 1.387 . S
C2479 C2481 1.387 . S
H2480 C2487 0.950 . S
C2481 C2479 1.387 . S
C2481 C2483 1.390 . S
C2481 H2485 0.950 . S
H2482 C2478 0.950 . S
C2483 C2481 1.390 . S
C2483 C2484 1.387 . S
C2483 H2486 0.950 . S
C2484 C2483 1.387 . S
C2484 C2487 1.387 . S
H2485 C2481 0.950 . S
H2486 C2483 0.950 . S
C2487 C2478 1.390 . S
C2487 H2480 0.950 . S
C2487 C2484 1.387 . S
C2488 C2489 1.387 . S
C2488 H2492 0.950 . S
C2488 C2497 1.390 . S
C2489 C2488 1.387 . S
C2489 C2491 1.387 . S
H2490 C2497 0.950 . S
C2491 C2489 1.387 . S
C2491 C2493 1.390 . S
C2491 H2495 0.950 . S
H2492 C2488 0.950 . S
C2493 C2491 1.390 . S
C2493 C2494 1.387 . S
C2493 H2496 0.950 . S
C2494 C2493 1.387 . S
C2494 C2497 1.387 . S
H2495 C2491 0.950 . S
H2496 C2493 0.950 . S
C2497 C2488 1.390 . S
C2497 H2490 0.950 . S
C2497 C2494 1.387 . S
C2498 C2499 1.387 . S
C2498 H2502 0.950 . S
C2498 C2507 1.390 . S
C2499 C2498 1.387 . S
C2499 C2501 1.387 . S
H2500 C2507 0.950 . S
C2501 C2499 1.387 . S
C2501 C2503 1.390 . S
C2501 H2505 0.950 . S
H2502 C2498 0.950 . S
C2503 C2501 1.390 . S
C2503 C2504 1.387 . S
C2503 H2506 0.950 . S
C2504 C2503 1.387 . S
C2504 C2507 1.387 . S
H2505 C2501 0.950 . S
H2506 C2503 0.950 . S
C2507 C2498 1.390 . S
C2507 H2500 0.950 . S
C2507 C2504 1.387 . S
C2508 C2509 1.387 . S
C2508 H2512 0.950 . S
C2508 C2517 1.390 . S
C2509 C2508 1.387 . S
C2509 C2511 1.387 . S
H2510 C2517 0.950 . S
C2511 C2509 1.387 . S
C2511 C2513 1.390 . S
C2511 H2515 0.950 . S
H2512 C2508 0.950 . S
C2513 C2511 1.390 . S
C2513 C2514 1.387 . S
C2513 H2516 0.950 . S
C2514 C2513 1.387 . S
C2514 C2517 1.387 . S
H2515 C2511 0.950 . S
H2516 C2513 0.950 . S
C2517 C2508 1.390 . S
C2517 H2510 0.950 . S
C2517 C2514 1.387 . S
C2518 C2519 1.387 . S
C2518 H2522 0.950 . S
C2518 C2527 1.390 . S
C2519 C2518 1.387 . S
C2519 C2521 1.387 . S
H2520 C2527 0.950 . S
C2521 C2519 1.387 . S
C2521 C2523 1.390 . S
C2521 H2525 0.950 . S
H2522 C2518 0.950 . S
C2523 C2521 1.390 . S
C2523 C2524 1.387 . S
C2523 H2526 0.950 . S
C2524 C2523 1.387 . S
C2524 C2527 1.387 . S
H2525 C2521 0.950 . S
H2526 C2523 0.950 . S
C2527 C2518 1.390 . S
C2527 H2520 0.950 . S
C2527 C2524 1.387 . S
C1889 C583 1.500 . S
C1894 C33 1.527 . S
C1899 C92 1.527 1_455 S
C1904 C1586 1.500 . S
C1909 C701 1.498 . S
C1914 C151 1.527 . S
C1919 C1468 1.498 . S
C1924 C210 1.527 . S
C1929 C269 1.527 . S
C1934 C937 1.499 . S
C1939 C1704 1.498 . S
C1944 C328 1.527 . S
C1949 C387 1.527 . S
C1954 C819 1.500 . S
C1959 C1822 1.500 . S
C1964 C446 1.527 1_455 S
C1969 C111 1.500 . S
C1974 C505 1.527 . S
C1979 C564 1.527 1_655 S
C1984 C1114 1.498 . S
C1989 C229 1.500 . S
C1994 C623 1.527 . S
C1999 C682 1.527 . S
C2004 C996 1.498 . S
C2009 C741 1.527 . S
C2014 C465 1.499 . S
C2019 C1232 1.500 . S
C2024 C800 1.527 . S
C2029 C859 1.527 . S
C2034 C347 1.500 . S
C2039 C1350 1.498 . S
C2044 C918 1.527 1_655 S
C2049 C1527 1.500 . S
C2054 C977 1.527 . S
C2059 C642 1.498 . S
C2064 C1036 1.527 . S
C2069 C1095 1.527 . S
C2074 C1645 1.500 . S
C2079 C524 1.500 . S
C2084 C1154 1.527 1_655 S
C2089 C1881 1.498 . S
C2094 C1213 1.527 . S
C2099 C1272 1.527 1_655 S
C2104 C760 1.498 . S
C2109 C1763 1.498 . S
C2114 C1331 1.527 . S
C2119 C878 1.500 . S
C2124 C1390 1.527 . S
C2129 C1055 1.498 . S
C2134 C1449 1.527 . S
C2139 C1508 1.527 . S
C2144 C170 1.498 . S
C2149 C1567 1.527 . S
C2154 C1173 1.498 . S
C2159 C1626 1.527 1_455 S
C2164 C52 1.500 . S
C2169 C1409 1.500 . S
C2174 C1685 1.527 . S
C2179 C1744 1.527 1_455 S
C2184 C288 1.498 . S
C2189 C1803 1.527 . S
C2194 C1291 1.500 . S
C2199 C1862 1.527 . S
C2204 C406 1.498 . S
C2209 C1421 1.505 . S
C2214 C5 1.505 . S
C2219 C64 1.507 . S
C2224 C536 1.507 . S
C2229 C123 1.508 . S
C2234 C1539 1.508 . S
C2239 C182 1.507 . S
C2244 C654 1.507 . S
C2249 C241 1.505 . S
C2254 C1657 1.505 . S
C2259 C300 1.508 . S
C2264 C772 1.508 . S
C2269 C1775 1.506 . S
C2274 C359 1.506 . S
C2279 C418 1.505 . S
C2284 C890 1.505 . S
C2289 C477 1.508 . S
C2294 C949 1.508 . S
C2299 C595 1.505 . S
C2304 C1067 1.505 . S
C2309 C1185 1.505 . S
C2314 C713 1.505 . S
C2319 C1303 1.508 . S
C2324 C831 1.508 . S
C2329 C1008 1.508 . S
C2334 C1480 1.508 . S
C2339 C1598 1.508 . S
C2344 C1126 1.508 . S
C2349 C1244 1.505 . S
C2354 C1716 1.505 . S
C2359 C1834 1.506 . S
C2364 C1362 1.506 . S
C2369 C1242 1.552 . S
C2374 C3 1.552 . S
C2379 C1301 1.553 . S
C2384 C62 1.552 . S
C2389 C121 1.552 . S
C2394 C1360 1.552 . S
C2399 C1183 1.553 . S
C2404 C180 1.552 . S
C2409 C1124 1.553 . S
C2414 C239 1.553 . S
C2419 C947 1.552 . S
C2424 C298 1.553 . S
C2429 C357 1.552 . S
C2434 C1006 1.552 . S
C2439 C1065 1.553 . S
C2444 C416 1.552 . S
C2449 C1714 1.552 . S
C2454 C475 1.553 . S
C2459 C1773 1.552 . S
C2464 C534 1.552 . S
C2469 C1832 1.552 . S
C2474 C593 1.552 . S
C2479 C652 1.552 . S
C2484 C1655 1.552 . S
C2489 C1596 1.553 . S
C2494 C711 1.552 . S
C2499 C1419 1.553 . S
C2504 C770 1.552 . S
C2509 C1478 1.553 . S
C2514 C829 1.553 . S
C2519 C1537 1.553 . S
C2524 C888 1.552 . S
