# Generated by pormake.
# Topology wjd, (6)-cn, num edge types: 1
# Building blocks:
#     Node 0, Type 0, BuildingBlock: BETFEN_clean_sbu_0, # of connection points: 6
#     Node 1, Type 0, BuildingBlock: BETFEN_clean_sbu_0, # of connection points: 6
#     Node 2, Type 0, BuildingBlock: BETFEN_clean_sbu_0, # of connection points: 6
#     Node 3, Type 0, BuildingBlock: BETFEN_clean_sbu_0, # of connection points: 6
#     Node 4, Type 0, BuildingBlock: BETFEN_clean_sbu_0, # of connection points: 6
#     Node 5, Type 0, BuildingBlock: BETFEN_clean_sbu_0, # of connection points: 6
#     Node 6, Type 0, BuildingBlock: BETFEN_clean_sbu_0, # of connection points: 6
#     Node 7, Type 0, BuildingBlock: BETFEN_clean_sbu_0, # of connection points: 6
#     Node 8, Type 0, BuildingBlock: BETFEN_clean_sbu_0, # of connection points: 6
#     Node 9, Type 0, BuildingBlock: BETFEN_clean_sbu_0, # of connection points: 6
#     Node 10, Type 0, BuildingBlock: BETFEN_clean_sbu_0, # of connection points: 6
#     Node 11, Type 0, BuildingBlock: BETFEN_clean_sbu_0, # of connection points: 6
#     Edge 12, Type (0, 0), BuildingBlock: XUDNAN_clean_linker_2, # of connection points: 2
#     Edge 13, Type (0, 0), BuildingBlock: XUDNAN_clean_linker_2, # of connection points: 2
#     Edge 14, Type (0, 0), BuildingBlock: XUDNAN_clean_linker_2, # of connection points: 2
#     Edge 15, Type (0, 0), BuildingBlock: XUDNAN_clean_linker_2, # of connection points: 2
#     Edge 16, Type (0, 0), BuildingBlock: XUDNAN_clean_linker_2, # of connection points: 2
#     Edge 17, Type (0, 0), BuildingBlock: XUDNAN_clean_linker_2, # of connection points: 2
#     Edge 18, Type (0, 0), BuildingBlock: XUDNAN_clean_linker_2, # of connection points: 2
#     Edge 19, Type (0, 0), BuildingBlock: XUDNAN_clean_linker_2, # of connection points: 2
#     Edge 20, Type (0, 0), BuildingBlock: XUDNAN_clean_linker_2, # of connection points: 2
#     Edge 21, Type (0, 0), BuildingBlock: XUDNAN_clean_linker_2, # of connection points: 2
#     Edge 22, Type (0, 0), BuildingBlock: XUDNAN_clean_linker_2, # of connection points: 2
#     Edge 23, Type (0, 0), BuildingBlock: XUDNAN_clean_linker_2, # of connection points: 2
#     Edge 24, Type (0, 0), BuildingBlock: XUDNAN_clean_linker_2, # of connection points: 2
#     Edge 25, Type (0, 0), BuildingBlock: XUDNAN_clean_linker_2, # of connection points: 2
#     Edge 26, Type (0, 0), BuildingBlock: XUDNAN_clean_linker_2, # of connection points: 2
#     Edge 27, Type (0, 0), BuildingBlock: XUDNAN_clean_linker_2, # of connection points: 2
#     Edge 28, Type (0, 0), BuildingBlock: XUDNAN_clean_linker_2, # of connection points: 2
#     Edge 29, Type (0, 0), BuildingBlock: XUDNAN_clean_linker_2, # of connection points: 2
#     Edge 30, Type (0, 0), BuildingBlock: XUDNAN_clean_linker_2, # of connection points: 2
#     Edge 31, Type (0, 0), BuildingBlock: XUDNAN_clean_linker_2, # of connection points: 2
#     Edge 32, Type (0, 0), BuildingBlock: XUDNAN_clean_linker_2, # of connection points: 2
#     Edge 33, Type (0, 0), BuildingBlock: XUDNAN_clean_linker_2, # of connection points: 2
#     Edge 34, Type (0, 0), BuildingBlock: XUDNAN_clean_linker_2, # of connection points: 2
#     Edge 35, Type (0, 0), BuildingBlock: XUDNAN_clean_linker_2, # of connection points: 2
#     Edge 36, Type (0, 0), BuildingBlock: XUDNAN_clean_linker_2, # of connection points: 2
#     Edge 37, Type (0, 0), BuildingBlock: XUDNAN_clean_linker_2, # of connection points: 2
#     Edge 38, Type (0, 0), BuildingBlock: XUDNAN_clean_linker_2, # of connection points: 2
#     Edge 39, Type (0, 0), BuildingBlock: XUDNAN_clean_linker_2, # of connection points: 2
#     Edge 40, Type (0, 0), BuildingBlock: XUDNAN_clean_linker_2, # of connection points: 2
#     Edge 41, Type (0, 0), BuildingBlock: XUDNAN_clean_linker_2, # of connection points: 2
#     Edge 42, Type (0, 0), BuildingBlock: XUDNAN_clean_linker_2, # of connection points: 2
#     Edge 43, Type (0, 0), BuildingBlock: XUDNAN_clean_linker_2, # of connection points: 2
#     Edge 44, Type (0, 0), BuildingBlock: XUDNAN_clean_linker_2, # of connection points: 2
#     Edge 45, Type (0, 0), BuildingBlock: XUDNAN_clean_linker_2, # of connection points: 2
#     Edge 46, Type (0, 0), BuildingBlock: XUDNAN_clean_linker_2, # of connection points: 2
#     Edge 47, Type (0, 0), BuildingBlock: XUDNAN_clean_linker_2, # of connection points: 2
# Relax obj value: 0.106
# Max RMSD: 0.220
# Mean RMSD: 0.220
data_MOF--net-wjd--node1-BETFEN_clean_sbu_0--edge1-XUDNAN_clean_linker_2
_symmetry_space_group_name_H-M    P1
_symmetry_Int_Tables_number       1
_symmetry_cell_setting            triclinic
loop_
_symmetry_equiv_pos_as_xyz
'x, y, z'
_cell_length_a     40.697111
_cell_length_b     40.595506
_cell_length_c     53.851792
_cell_angle_alpha  90.174618
_cell_angle_beta   89.773776
_cell_angle_gamma 119.87912
loop_
_atom_site_label
_atom_site_type_symbol
_atom_site_fract_x
_atom_site_fract_y
_atom_site_fract_z
_atom_type_partial_charge
Pr0 Pr 0.39055 0.17106 0.11345 0.0
Pr1 Pr 0.33678 0.09613 0.13396 0.0
C2 C 0.44868 0.23967 0.09974 0.0
C3 C 0.47036 0.28122 0.10335 0.0
C4 C 0.49895 0.30316 0.08622 0.0
C5 C 0.52234 0.3422 0.08986 0.0
C6 C 0.51766 0.36033 0.11077 0.0
C7 C 0.48817 0.33845 0.12763 0.0
C8 C 0.4648 0.29911 0.12402 0.0
C9 C 0.35435 0.1124 0.07745 0.0
C10 C 0.42577 0.11644 0.12956 0.0
C11 C 0.27673 0.02556 0.14057 0.0
C12 C 0.23477 1.00284 0.14294 0.0
C13 C 0.21768 0.99247 0.16649 0.0
C14 C 0.17888 0.9666 0.16883 0.0
C15 C 0.15618 0.95017 0.1477 0.0
C16 C 0.17289 0.96189 0.12412 0.0
C17 C 0.21176 0.98778 0.12176 0.0
C18 C 0.37649 0.146 0.17228 0.0
C19 C 0.30926 0.16098 0.12554 0.0
O20 O 0.415 0.22453 0.08975 0.0
O21 O 0.45139 0.21841 0.11685 0.0
O22 O 0.36874 0.11094 0.09759 0.0
O23 O 0.35813 0.14585 0.07473 0.0
O24 O 0.3905 0.08768 0.13112 0.0
O25 O 0.43265 0.1513 0.12594 0.0
O26 O 0.29087 0.03999 0.11884 0.0
O27 O 0.29641 0.04757 0.159 0.0
O28 O 0.36356 0.15527 0.15358 0.0
O29 O 0.36963 0.1112 0.17066 0.0
O30 O 0.34552 0.186 0.12583 0.0
O31 O 0.29799 0.12418 0.1254 0.0
H32 H 0.5037 0.2899 0.07015 0.0
H33 H 0.54431 0.35821 0.07631 0.0
H34 H 0.48393 0.3515 0.14398 0.0
H35 H 0.44295 0.2826 0.13753 0.0
H36 H 0.23452 1.0033 0.18318 0.0
H37 H 0.16684 0.9586 0.18729 0.0
H38 H 0.15638 0.94956 0.10747 0.0
H39 H 0.22399 0.9948 0.1033 0.0
Pr40 Pr 0.78912 0.71287 0.3877 0.0
Pr41 Pr 0.8156 0.66318 0.40823 0.0
C42 C 0.77328 0.76936 0.38008 0.0
C43 C 0.79243 0.81104 0.38314 0.0
C44 C 0.78035 0.83221 0.3693 0.0
C45 C 0.79777 0.87167 0.3723 0.0
C46 C 0.82771 0.89086 0.38928 0.0
C47 C 0.83987 0.86942 0.40302 0.0
C48 C 0.82245 0.82995 0.39997 0.0
C49 C 0.80243 0.675 0.34939 0.0
C50 C 0.8813 0.74947 0.40096 0.0
C51 C 0.83177 0.60838 0.42198 0.0
C52 C 0.84304 0.58047 0.41382 0.0
C53 C 0.83168 0.54772 0.42814 0.0
C54 C 0.84296 0.52133 0.42176 0.0
C55 C 0.86594 0.52693 0.40078 0.0
C56 C 0.87696 0.55972 0.38624 0.0
C57 C 0.86562 0.5862 0.39269 0.0
C58 C 0.78778 0.69547 0.44404 0.0
C59 C 0.72724 0.62198 0.38913 0.0
O60 O 0.7646 0.74931 0.40046 0.0
O61 O 0.78631 0.7564 0.36267 0.0
O62 O 0.82461 0.68911 0.36801 0.0
O63 O 0.77355 0.68031 0.35083 0.0
O64 O 0.87524 0.71461 0.40041 0.0
O65 O 0.85256 0.75597 0.40029 0.0
O66 O 0.85696 0.64447 0.42098 0.0
O67 O 0.79774 0.6015 0.41651 0.0
O68 O 0.77349 0.68036 0.42376 0.0
O69 O 0.81858 0.69403 0.44737 0.0
O70 O 0.73023 0.65596 0.39069 0.0
O71 O 0.75781 0.61863 0.39029 0.0
H72 H 0.75734 0.81818 0.35615 0.0
H73 H 0.78801 0.88719 0.3611 0.0
H74 H 0.86248 0.88302 0.41647 0.0
H75 H 0.83224 0.81416 0.41089 0.0
H76 H 0.81441 0.54276 0.44459 0.0
H77 H 0.83435 0.49696 0.4337 0.0
H78 H 0.89421 0.56487 0.36978 0.0
H79 H 0.87466 0.6112 0.38127 0.0
Pr80 Pr 0.87632 0.21856 0.11237 0.0
Pr81 Pr 0.95558 0.2472 0.13178 0.0
C82 C 0.80274 0.19457 0.10086 0.0
C83 C 0.76398 0.18401 0.11003 0.0
C84 C 0.74931 0.2085 0.10627 0.0
C85 C 0.71135 0.19691 0.11201 0.0
C86 C 0.68676 0.1603 0.12151 0.0
C87 C 0.70178 0.13615 0.12573 0.0
C88 C 0.73973 0.14778 0.12006 0.0
C89 C 0.93461 0.24337 0.0756 0.0
C90 C 0.92252 0.30766 0.13241 0.0
C91 C 0.0308 0.27426 0.136 0.0
C92 C 0.05769 0.26005 0.13955 0.0
C93 C 0.0931 0.28395 0.15027 0.0
C94 C 0.12128 0.27375 0.1502 0.0
C95 C 0.11483 0.23943 0.13926 0.0
C96 C 0.07848 0.21437 0.12992 0.0
C97 C 0.05019 0.22462 0.13001 0.0
C98 C 0.90179 0.21136 0.16962 0.0
C99 C 0.9016 0.15662 0.123 0.0
O100 O 0.81589 0.17178 0.10578 0.0
O101 O 0.82927 0.23031 0.10052 0.0
O102 O 0.93472 0.25866 0.09574 0.0
O103 O 0.9021 0.21262 0.07297 0.0
O104 O 0.95291 0.30405 0.13566 0.0
O105 O 0.88959 0.27861 0.12568 0.0
O106 O 1.01273 0.26559 0.11481 0.0
O107 O 1.00975 0.27305 0.15487 0.0
O108 O 0.89975 0.23272 0.15317 0.0
O109 O 0.93148 0.20782 0.16618 0.0
O110 O 0.87381 0.16362 0.12673 0.0
O111 O 0.93597 0.18472 0.11794 0.0
H112 H 0.76697 0.23643 0.09833 0.0
H113 H 0.70128 0.21669 0.10883 0.0
H114 H 0.68391 0.1076 0.13265 0.0
H115 H 0.74969 0.12783 0.1229 0.0
H116 H 0.09955 0.31131 0.15779 0.0
H117 H 0.14872 0.29345 0.15797 0.0
H118 H 0.07255 0.18784 0.12129 0.0
H119 H 1.023 0.20558 0.12167 0.0
Pr120 Pr 0.3265 0.09553 0.39234 0.0
Pr121 Pr 0.36669 0.17559 0.40742 0.0
C122 C 0.2736 0.02084 0.38853 0.0
C123 C 0.23198 0.99606 0.39241 0.0
C124 C 0.20991 0.96897 0.37436 0.0
C125 C 0.17092 0.94429 0.37812 0.0
C126 C 0.153 0.94588 0.40016 0.0
C127 C 0.17507 0.97368 0.41797 0.0
C128 C 0.21397 0.99847 0.41414 0.0
C129 C 0.36291 0.14183 0.3514 0.0
C130 C 0.28082 0.14528 0.39361 0.0
C131 C 0.41399 0.25013 0.41844 0.0
C132 C 0.44575 0.28764 0.41016 0.0
C133 C 0.47997 0.30499 0.42349 0.0
C134 C 0.50848 0.3423 0.41813 0.0
C135 C 0.50347 0.36347 0.39935 0.0
C136 C 0.46968 0.34556 0.38546 0.0
C137 C 0.44121 0.30823 0.39079 0.0
C138 C 0.32981 0.12304 0.4467 0.0
C139 C 0.41795 0.13498 0.39867 0.0
O140 O 0.29464 0.0359 0.4082 0.0
O141 O 0.28457 0.04418 0.3697 0.0
O142 O 0.34543 0.14968 0.36796 0.0
O143 O 0.36196 0.10994 0.35607 0.0
O144 O 0.31421 0.17583 0.39176 0.0
O145 O 0.27823 0.11203 0.39814 0.0
O146 O 0.38073 0.23715 0.40823 0.0
O147 O 0.42131 0.2232 0.42414 0.0
O148 O 0.35052 0.12108 0.4302 0.0
O149 O 0.3266 0.15288 0.44325 0.0
O150 O 0.38644 0.1019 0.40155 0.0
O151 O 0.41613 0.16598 0.39449 0.0
H152 H 0.22299 0.96649 0.35743 0.0
H153 H 0.15508 0.92316 0.36408 0.0
H154 H 0.16229 0.97625 0.435 0.0
H155 H 0.22998 0.01926 0.42833 0.0
H156 H 0.4842 0.29009 0.4387 0.0
H157 H 0.53382 0.35506 0.42943 0.0
H158 H 0.46495 0.3606 0.37058 0.0
H159 H 0.41526 0.29589 0.38012 0.0
Pr160 Pr 0.82881 0.66113 0.11427 0.0
Pr161 Pr 0.79832 0.70938 0.12939 0.0
C162 C 0.84609 0.60646 0.10272 0.0
C163 C 0.86339 0.58306 0.10898 0.0
C164 C 0.86244 0.55742 0.09112 0.0
C165 C 0.87522 0.53212 0.0968 0.0
C166 C 0.88941 0.53188 0.12054 0.0
C167 C 0.89139 0.55844 0.13828 0.0
C168 C 0.87824 0.58369 0.13259 0.0
C169 C 0.81478 0.69836 0.07477 0.0
C170 C 0.73582 0.62021 0.12309 0.0
C171 C 0.78317 0.76705 0.13148 0.0
C172 C 0.80242 0.80909 0.13328 0.0
C173 C 0.8208 0.82833 0.15515 0.0
C174 C 0.83616 0.8677 0.1571 0.0
C175 C 0.83351 0.88877 0.13727 0.0
C176 C 0.81627 0.86967 0.11511 0.0
C177 C 0.80078 0.83026 0.11319 0.0
C178 C 0.8054 0.67161 0.1706 0.0
C179 C 0.89156 0.74342 0.13182 0.0
O180 O 0.86791 0.64217 0.09686 0.0
O181 O 0.81565 0.60002 0.11488 0.0
O182 O 0.79264 0.68038 0.09219 0.0
O183 O 0.84682 0.69935 0.07772 0.0
O184 O 0.73956 0.65442 0.12238 0.0
O185 O 0.76592 0.61607 0.12364 0.0
O186 O 0.78723 0.7528 0.11067 0.0
O187 O 0.78297 0.74786 0.15101 0.0
O188 O 0.83012 0.68631 0.15348 0.0
O189 O 0.77639 0.67604 0.16638 0.0
O190 O 0.88268 0.70767 0.13356 0.0
O191 O 0.86515 0.75195 0.1259 0.0
H192 H 0.85101 0.5564 0.07281 0.0
H193 H 0.8738 0.51253 0.08258 0.0
H194 H 0.90199 0.55889 0.15676 0.0
H195 H 0.87896 0.60311 0.14671 0.0
H196 H 0.82276 0.81297 0.17095 0.0
H197 H 0.84969 0.8816 0.17432 0.0
H198 H 0.81337 0.88492 0.09958 0.0
H199 H 0.78665 0.81617 0.09613 0.0
Pr200 Pr 0.94612 0.25134 0.3866 0.0
Pr201 Pr 0.86569 0.21825 0.40554 0.0
C202 C 1.02149 0.28088 0.38063 0.0
C203 C 0.04621 0.26406 0.37746 0.0
C204 C 0.0321 0.22761 0.36725 0.0
C205 C 0.05395 0.20967 0.36758 0.0
C206 C 0.09029 0.22755 0.37843 0.0
C207 C 0.10453 0.26445 0.38817 0.0
C208 C 0.08272 0.28242 0.3877 0.0
C209 C 0.89282 0.21065 0.34947 0.0
C210 C 0.89944 0.1612 0.40163 0.0
C211 C 0.79132 0.19018 0.41657 0.0
C212 C 0.75418 0.18896 0.41485 0.0
C213 C 0.73688 0.19136 0.43683 0.0
C214 C 0.70056 0.18703 0.43656 0.0
C215 C 0.68021 0.18029 0.41422 0.0
C216 C 0.69741 0.1776 0.39211 0.0
C217 C 0.73398 0.18184 0.39242 0.0
C218 C 0.92367 0.2459 0.44222 0.0
C219 C 0.90861 0.30811 0.38656 0.0
O220 O 1.00493 0.27459 0.4023 0.0
O221 O 0.99895 0.27754 0.36225 0.0
O222 O 0.88992 0.23274 0.36496 0.0
O223 O 0.92247 0.20769 0.35419 0.0
O224 O 0.86869 0.16335 0.39785 0.0
O225 O 0.93266 0.19248 0.40366 0.0
O226 O 0.80325 0.17813 0.39792 0.0
O227 O 0.81881 0.21706 0.42951 0.0
O228 O 0.92288 0.26116 0.42228 0.0
O229 O 0.89276 0.21323 0.44436 0.0
O230 O 0.93993 0.30618 0.38297 0.0
O231 O 0.87642 0.27808 0.39346 0.0
H232 H 1.00373 0.21254 0.35961 0.0
H233 H 0.04212 0.18156 0.35956 0.0
H234 H 0.13199 0.279 0.39706 0.0
H235 H 0.09389 0.31021 0.39615 0.0
H236 H 0.75126 0.1959 0.45447 0.0
H237 H 0.68818 0.18843 0.45408 0.0
H238 H 0.68283 0.17266 0.37454 0.0
H239 H 0.74629 0.17931 0.37515 0.0
Pr240 Pr 0.09207 0.32094 0.62815 0.0
Pr241 Pr 0.17716 0.37436 0.61112 0.0
C242 C 1.0191 0.26643 0.63408 0.0
C243 C 0.99555 0.22511 0.63033 0.0
C244 C 0.96401 0.2042 0.6457 0.0
C245 C 0.94263 0.16465 0.64361 0.0
C246 C 0.9524 0.14514 0.62609 0.0
C247 C 0.98383 0.16636 0.61044 0.0
C248 C 1.00525 0.20598 0.61258 0.0
C249 C 0.14013 0.3629 0.667 0.0
C250 C 0.14694 0.28256 0.61392 0.0
C251 C 0.25305 0.42061 0.60758 0.0
C252 C 0.29152 0.45079 0.61534 0.0
C253 C 0.30837 0.48657 0.60377 0.0
C254 C 0.3467 0.5132 0.60759 0.0
C255 C 0.36938 0.50475 0.62301 0.0
C256 C 0.3521 0.46944 0.63532 0.0
C257 C 0.31372 0.44277 0.63148 0.0
C258 C 0.12835 0.347 0.56894 0.0
C259 C 0.12362 0.41271 0.62123 0.0
O260 O 0.0317 0.2877 0.61417 0.0
O261 O 0.04429 0.27711 0.65179 0.0
O262 O 0.14945 0.34747 0.64975 0.0
O263 O 0.10605 0.35715 0.66372 0.0
O264 O 0.17539 0.31651 0.60858 0.0
O265 O 0.11362 0.27686 0.62181 0.0
O266 O 0.23736 0.38695 0.61793 0.0
O267 O 0.22853 0.42994 0.59937 0.0
O268 O 0.12026 0.34007 0.59141 0.0
O269 O 0.16453 0.37035 0.56735 0.0
O270 O 0.09327 0.37847 0.61857 0.0
O271 O 0.15779 0.41703 0.624 0.0
H272 H 0.9563 0.21844 0.65966 0.0
H273 H 0.91903 0.14929 0.65622 0.0
H274 H 0.9919 0.15237 0.59654 0.0
H275 H 0.02964 0.22161 0.60059 0.0
H276 H 0.29232 0.49346 0.59088 0.0
H277 H 0.35892 0.53979 0.59752 0.0
H278 H 0.3684 0.46208 0.64765 0.0
H279 H 0.30183 0.41541 0.64056 0.0
Pr280 Pr 0.22939 0.86737 0.90404 0.0
Pr281 Pr 0.26264 0.94651 0.88766 0.0
C282 C 0.20782 0.79415 0.91538 0.0
C283 C 0.19776 0.75479 0.90832 0.0
C284 C 0.21657 0.73794 0.91993 0.0
C285 C 0.20466 0.69939 0.91634 0.0
C286 C 0.17348 0.6765 0.90101 0.0
C287 C 0.15541 0.6938 0.88874 0.0
C288 C 0.16733 0.73243 0.89239 0.0
C289 C 0.24453 0.91969 0.94353 0.0
C290 C 0.3212 0.91459 0.89288 0.0
C291 C 0.28054 0.01969 0.88154 0.0
C292 C 0.26037 0.04164 0.88266 0.0
C293 C 0.2266 0.02997 0.86945 0.0
C294 C 0.20805 0.05116 0.87059 0.0
C295 C 0.2226 0.08441 0.88511 0.0
C296 C 0.25624 0.09576 0.89851 0.0
C297 C 0.27489 0.07462 0.89727 0.0
C298 C 0.25383 0.89934 0.84742 0.0
C299 C 0.16868 0.89307 0.89224 0.0
O300 O 0.18404 0.80608 0.91066 0.0
O301 O 0.2432 0.82113 0.91434 0.0
O302 O 0.2661 0.92415 0.92558 0.0
O303 O 0.21499 0.88614 0.94248 0.0
O304 O 0.3193 0.94604 0.89513 0.0
O305 O 0.28998 0.88134 0.89102 0.0
O306 O 0.285 1.00638 0.90253 0.0
O307 O 0.27228 0.99578 0.86315 0.0
O308 O 0.22891 0.89065 0.86439 0.0
O309 O 0.28377 0.93201 0.85167 0.0
O310 O 0.17347 0.86347 0.89059 0.0
O311 O 0.19823 0.92738 0.89517 0.0
H312 H 0.2398 0.75434 0.93255 0.0
H313 H 0.21906 0.68724 0.9264 0.0
H314 H 0.13173 0.67739 0.87646 0.0
H315 H 0.15216 0.74451 0.88319 0.0
H316 H 0.21449 1.0045 0.85815 0.0
H317 H 0.18253 0.04169 0.85976 0.0
H318 H 0.268 0.12077 0.91023 0.0
H319 H 0.30069 0.08403 0.90781 0.0
Pr320 Pr 0.72702 0.77649 0.62902 0.0
Pr321 Pr 0.67114 0.81596 0.6229 0.0
C322 C 0.77709 0.75292 0.61956 0.0
C323 C 0.81683 0.76514 0.62591 0.0
C324 C 0.83071 0.77601 0.65016 0.0
C325 C 0.86925 0.79035 0.65517 0.0
C326 C 0.89466 0.79452 0.63598 0.0
C327 C 0.88058 0.7836 0.61177 0.0
C328 C 0.84211 0.76902 0.60683 0.0
C329 C 0.71293 0.79902 0.67542 0.0
C330 C 0.76542 0.87114 0.6269 0.0
C331 C 0.63032 0.85056 0.63205 0.0
C332 C 0.60123 0.86119 0.62615 0.0
C333 C 0.61064 0.89923 0.62918 0.0
C334 C 0.58342 0.9103 0.62598 0.0
C335 C 0.54585 0.88361 0.61951 0.0
C336 C 0.53656 0.84542 0.61612 0.0
C337 C 0.56393 0.8343 0.61948 0.0
C338 C 0.68916 0.79332 0.57701 0.0
C339 C 0.63169 0.72169 0.6275 0.0
O340 O 0.77273 0.77648 0.60541 0.0
O341 O 0.75122 0.73779 0.63707 0.0
O342 O 0.70044 0.80245 0.65465 0.0
O343 O 0.73386 0.78346 0.67221 0.0
O344 O 0.73164 0.86797 0.62984 0.0
O345 O 0.77039 0.84149 0.62396 0.0
O346 O 0.61971 0.81583 0.63936 0.0
O347 O 0.66252 0.86694 0.61983 0.0
O348 O 0.69975 0.79237 0.59865 0.0
O349 O 0.66629 0.80709 0.57833 0.0
O350 O 0.66509 0.72356 0.62409 0.0
O351 O 0.62797 0.75211 0.63058 0.0
H352 H 0.81197 0.77399 0.66515 0.0
H353 H 0.87929 0.79881 0.67399 0.0
H354 H 0.89926 0.78594 0.59665 0.0
H355 H 0.83223 0.76126 0.58794 0.0
H356 H 0.63905 0.92043 0.63466 0.0
H357 H 0.59173 0.93975 0.62929 0.0
H358 H 0.50814 0.82407 0.61086 0.0
H359 H 0.55581 0.80471 0.61711 0.0
Pr360 Pr 0.17876 0.36951 0.90025 0.0
Pr361 Pr 0.08808 0.31842 0.88977 0.0
C362 C 0.25522 0.40623 0.89784 0.0
C363 C 0.29454 0.43751 0.90177 0.0
C364 C 0.32402 0.42932 0.89946 0.0
C365 C 0.36187 0.45813 0.90118 0.0
C366 C 0.37152 0.49616 0.90559 0.0
C367 C 0.34173 0.50435 0.90796 0.0
C368 C 0.3036 0.4753 0.90598 0.0
C369 C 0.13055 0.3475 0.94198 0.0
C370 C 0.12859 0.4133 0.89585 0.0
C371 C 1.01314 0.26894 0.89388 0.0
C372 C 0.98909 0.22816 0.89961 0.0
C373 C 0.95339 0.20763 0.88845 0.0
C374 C 0.93211 0.16806 0.89076 0.0
C375 C 0.94598 0.14804 0.90444 0.0
C376 C 0.9814 0.16904 0.91629 0.0
C377 C 1.00287 0.20861 0.91369 0.0
C378 C 0.12723 0.34586 0.84457 0.0
C379 C 0.14069 0.27621 0.89024 0.0
O380 O 0.234 0.41068 0.8815 0.0
O381 O 0.23617 0.38312 0.91606 0.0
O382 O 0.12633 0.32701 0.92318 0.0
O383 O 0.1621 0.37987 0.94028 0.0
O384 O 0.09677 0.37985 0.89748 0.0
O385 O 0.16247 0.41639 0.89386 0.0
O386 O 0.03312 0.29191 0.91193 0.0
O387 O 0.03187 0.27618 0.87298 0.0
O388 O 0.14155 0.35156 0.86597 0.0
O389 O 0.09062 0.32634 0.8463 0.0
O390 O 0.17166 0.30997 0.89074 0.0
O391 O 0.10627 0.27188 0.89161 0.0
H392 H 0.31778 0.40051 0.89579 0.0
H393 H 0.38361 0.45048 0.89854 0.0
H394 H 0.34781 0.5331 0.91153 0.0
H395 H 0.28128 0.48236 0.90761 0.0
H396 H 0.94251 0.22209 0.87715 0.0
H397 H 0.90542 0.15313 0.88097 0.0
H398 H 0.99287 0.15492 0.92734 0.0
H399 H 0.0306 0.2238 0.92221 0.0
Pr400 Pr 0.25831 0.94384 0.62645 0.0
Pr401 Pr 0.22932 0.86589 0.61057 0.0
C402 C 0.27108 1.01573 0.63134 0.0
C403 C 0.25156 0.03785 0.62717 0.0
C404 C 0.25468 0.06472 0.64489 0.0
C405 C 0.23865 0.08778 0.64055 0.0
C406 C 0.21931 0.08464 0.61828 0.0
C407 C 0.21522 0.05683 0.60089 0.0
C408 C 0.23107 0.03365 0.6053 0.0
C409 C 0.2546 0.89917 0.66706 0.0
C410 C 0.16655 0.88347 0.62934 0.0
C411 C 0.21019 0.7935 0.59842 0.0
C412 C 0.19207 0.75253 0.60518 0.0
C413 C 0.16045 0.72564 0.59173 0.0
C414 C 0.14578 0.68658 0.5954 0.0
C415 C 0.16245 0.67321 0.61257 0.0
C416 C 0.19362 0.70021 0.62646 0.0
C417 C 0.20827 0.73933 0.6228 0.0
C418 C 0.23906 0.91738 0.57179 0.0
C419 C 0.32201 0.91844 0.61901 0.0
O420 O 0.28065 1.0034 0.6117 0.0
O421 O 0.25881 0.99123 0.64952 0.0
O422 O 0.22913 0.88851 0.65048 0.0
O423 O 0.28282 0.9329 0.66238 0.0
O424 O 0.17702 0.858 0.63237 0.0
O425 O 0.19156 0.91774 0.62134 0.0
O426 O 0.18877 0.8082 0.59345 0.0
O427 O 0.24217 0.81763 0.60897 0.0
O428 O 0.26265 0.9221 0.58827 0.0
O429 O 0.20809 0.88546 0.57527 0.0
O430 O 0.31753 0.94853 0.61882 0.0
O431 O 0.29241 0.88393 0.61918 0.0
H432 H 0.27032 0.06848 0.66189 0.0
H433 H 0.24266 0.10906 0.65424 0.0
H434 H 0.20006 0.05322 0.5837 0.0
H435 H 0.22784 1.01292 0.59138 0.0
H436 H 0.14771 0.73481 0.57772 0.0
H437 H 0.12218 0.66688 0.58405 0.0
H438 H 0.20695 0.69114 0.64009 0.0
H439 H 0.23284 0.75917 0.63339 0.0
Pr440 Pr 0.6727 0.81341 0.9117 0.0
Pr441 Pr 0.72287 0.77827 0.90108 0.0
C442 C 0.62338 0.83926 0.9185 0.0
C443 C 0.59182 0.8451 0.91018 0.0
C444 C 0.55775 0.82893 0.92376 0.0
C445 C 0.53028 0.83938 0.91903 0.0
C446 C 0.53638 0.86656 0.90074 0.0
C447 C 0.56979 0.88147 0.88643 0.0
C448 C 0.59715 0.87091 0.89109 0.0
C449 C 0.70589 0.79887 0.95319 0.0
C450 C 0.63028 0.72089 0.90095 0.0
C451 C 0.77502 0.75704 0.90943 0.0
C452 C 0.81539 0.77212 0.90333 0.0
C453 C 0.83429 0.80294 0.88704 0.0
C454 C 0.87356 0.82006 0.88361 0.0
C455 C 0.89483 0.80687 0.89653 0.0
C456 C 0.87547 0.77534 0.91239 0.0
C457 C 0.83618 0.75824 0.91578 0.0
C458 C 0.70839 0.79823 0.85443 0.0
C459 C 0.76165 0.87269 0.90262 0.0
O460 O 0.65642 0.85875 0.90773 0.0
O461 O 0.61642 0.80585 0.9262 0.0
O462 O 0.68944 0.77698 0.93533 0.0
O463 O 0.70688 0.83092 0.94981 0.0
O464 O 0.66343 0.72299 0.90471 0.0
O465 O 0.62755 0.75186 0.89855 0.0
O466 O 0.7683 0.778 0.9248 0.0
O467 O 0.7506 0.74327 0.89114 0.0
O468 O 0.69534 0.80399 0.87448 0.0
O469 O 0.72843 0.78204 0.85837 0.0
O470 O 0.72755 0.86799 0.8995 0.0
O471 O 0.76657 0.84344 0.90693 0.0
H472 H 0.55301 0.80939 0.93881 0.0
H473 H 0.50509 0.8275 0.93055 0.0
H474 H 0.57519 0.90199 0.87192 0.0
H475 H 0.62309 0.88409 0.88029 0.0
H476 H 0.81879 0.81435 0.87745 0.0
H477 H 0.88731 0.8439 0.871 0.0
H478 H 0.89083 0.7647 0.92292 0.0
H479 H 0.82218 0.73484 0.92873 0.0
H480 H 0.11747 0.17238 0.14569 0.0
H481 H 0.18543 0.29031 0.12304 0.0
H482 H 0.23992 0.28107 0.11604 0.0
H483 H 0.19217 0.16714 0.17819 0.0
H484 H 0.17813 0.11944 0.16838 0.0
H485 H 0.14321 0.1342 0.17113 0.0
H486 H 0.12333 0.11464 0.12547 0.0
H487 H 0.15825 0.09987 0.12257 0.0
H488 H 0.15864 0.13422 0.10126 0.0
H489 H 0.28705 0.26111 0.11193 0.0
H490 H 0.32681 0.23177 0.11181 0.0
H491 H 0.23132 0.12516 0.13703 0.0
C492 C 0.14381 0.19613 0.13916 0.0
C493 C 0.14717 0.23232 0.13524 0.0
C494 C 0.1822 0.26263 0.12672 0.0
C495 C 0.21332 0.25758 0.12246 0.0
C496 C 0.20927 0.22195 0.1267 0.0
C497 C 0.17561 0.19163 0.13488 0.0
C498 C 0.17995 0.15667 0.13843 0.0
C499 C 0.17295 0.1436 0.16566 0.0
C500 C 0.15346 0.12444 0.12089 0.0
C501 C 0.22138 0.17242 0.13116 0.0
C502 C 0.23729 0.21012 0.12434 0.0
C503 C 0.27498 0.23162 0.11722 0.0
C504 C 0.29742 0.21452 0.11733 0.0
C505 C 0.28249 0.17605 0.12456 0.0
C506 C 0.24362 0.15451 0.1313 0.0
H507 H 0.09164 0.91733 0.36775 0.0
H508 H 0.12142 0.90937 0.44394 0.0
H509 H 0.05496 0.86147 0.45263 0.0
H510 H 0.99822 0.90566 0.38176 0.0
H511 H 0.97635 0.87768 0.35439 0.0
H512 H 1.02611 0.9126 0.35414 0.0
H513 H 0.04221 0.8609 0.34084 0.0
H514 H 0.99254 0.82589 0.34099 0.0
H515 H 1.02527 0.81853 0.35936 0.0
H516 H 0.98616 0.81139 0.4527 0.0
H517 H 0.91925 0.76368 0.4442 0.0
H518 H 0.93197 0.80411 0.36849 0.0
C519 C 0.08418 0.90557 0.38628 0.0
C520 C 0.11208 0.91755 0.4052 0.0
C521 C 0.10079 0.90139 0.4292 0.0
C522 C 0.06301 0.87391 0.43431 0.0
C523 C 0.03637 0.86277 0.41532 0.0
C524 C 0.04633 0.87819 0.39179 0.0
C525 C 1.01202 0.86069 0.37469 0.0
C526 C 1.00263 0.89097 0.36572 0.0
C527 C 1.0184 0.84029 0.35267 0.0
C528 C 0.98146 0.83255 0.39214 0.0
C529 C 0.99625 0.83435 0.41551 0.0
C530 C 0.9742 0.8101 0.43457 0.0
C531 C 0.93623 0.78313 0.42961 0.0
C532 C 0.92037 0.78073 0.4059 0.0
C533 C 0.94323 0.80596 0.38695 0.0
H534 H 0.91479 0.10624 0.09576 0.0
H535 H 0.87248 0.12163 0.16632 0.0
H536 H 0.85524 0.05656 0.17867 0.0
H537 H 0.84087 1.01197 0.08634 0.0
H538 H 0.86985 0.99489 0.07227 0.0
H539 H 0.88354 0.04432 0.06986 0.0
H540 H 0.94879 0.06339 0.08922 0.0
H541 H 0.93536 1.01396 0.09158 0.0
H542 H 0.95078 0.0438 0.1188 0.0
H543 H 0.83874 0.98945 0.18263 0.0
H544 H 0.82184 0.92257 0.17754 0.0
H545 H 0.87223 0.94777 0.10388 0.0
C546 C 0.90271 0.096 0.11399 0.0
C547 C 0.89534 0.11892 0.13028 0.0
C548 C 0.87852 0.10445 0.15371 0.0
C549 C 0.86871 0.0676 0.1609 0.0
C550 C 0.87554 0.04529 0.14435 0.0
C551 C 0.89204 0.05872 0.12135 0.0
C552 C 0.89335 0.02749 0.10649 0.0
C553 C 0.87053 0.01919 0.08231 0.0
C554 C 0.93452 0.03778 0.10122 0.0
C555 C 0.87438 0.99445 0.12457 0.0
C556 C 0.86491 1.00568 0.1464 0.0
C557 C 0.84638 0.98035 0.16574 0.0
C558 C 0.83706 0.9424 0.16271 0.0
C559 C 0.84597 0.92985 0.14043 0.0
C560 C 0.86503 0.95643 0.12114 0.0
H561 H 0.2777 0.21002 0.38417 0.0
H562 H 0.20589 0.08937 0.39825 0.0
H563 H 0.14919 0.09682 0.39529 0.0
H564 H 0.22357 0.24114 0.41949 0.0
H565 H 0.2317 0.27865 0.39819 0.0
H566 H 0.26624 0.26349 0.40102 0.0
H567 H 0.26229 0.25044 0.35369 0.0
H568 H 0.22779 0.26563 0.35069 0.0
H569 H 0.21691 0.21927 0.33977 0.0
H570 H 0.10021 0.11839 0.39158 0.0
H571 H 0.06354 0.15148 0.38737 0.0
H572 H 0.16794 0.25771 0.37461 0.0
C573 C 0.25009 0.18502 0.38658 0.0
C574 C 0.24635 0.14902 0.39143 0.0
C575 C 0.20958 0.11721 0.39448 0.0
C576 C 0.17719 0.1212 0.39284 0.0
C577 C 0.182 0.15717 0.38811 0.0
C578 C 0.2176 0.18848 0.38499 0.0
C579 C 0.2153 0.22409 0.38028 0.0
C580 C 0.23539 0.25357 0.40098 0.0
C581 C 0.23153 0.24083 0.35458 0.0
C582 C 0.1728 0.20804 0.38122 0.0
C583 C 0.15404 0.16941 0.38578 0.0
C584 C 0.11467 0.14858 0.38781 0.0
C585 C 0.09402 0.16768 0.38518 0.0
C586 C 0.1126 0.20735 0.38046 0.0
C587 C 0.15264 0.22753 0.37842 0.0
H588 H 0.09214 0.93658 0.12114 0.0
H589 H 0.13049 0.89058 0.17975 0.0
H590 H 0.0663 0.83547 0.18332 0.0
H591 H 0.9971 0.90429 0.14728 0.0
H592 H 0.97423 0.89287 0.1174 0.0
H593 H 1.02285 0.93028 0.12009 0.0
H594 H 0.04276 0.89705 0.08705 0.0
H595 H 0.99425 0.85958 0.08426 0.0
H596 H 0.03069 0.84832 0.09167 0.0
H597 H 1.00061 0.78316 0.17855 0.0
H598 H 0.935 0.73703 0.16703 0.0
H599 H 0.93582 0.816 0.11256 0.0
C600 C 0.08689 0.91502 0.13485 0.0
C601 C 0.11644 0.91824 0.15038 0.0
C602 C 0.10834 0.88932 0.16802 0.0
C603 C 0.07195 0.85771 0.1701 0.0
C604 C 0.04363 0.85533 0.15452 0.0
C605 C 0.05039 0.88322 0.13735 0.0
C606 C 1.0147 0.87284 0.12257 0.0
C607 C 1.00144 0.9018 0.12711 0.0
C608 C 1.02099 0.86923 0.09474 0.0
C609 C 0.98719 0.83445 0.13384 0.0
C610 C 1.00474 0.82509 0.15221 0.0
C611 C 0.98636 0.79035 0.16446 0.0
C612 C 0.94909 0.76427 0.15772 0.0
C613 C 0.93021 0.77305 0.13908 0.0
C614 C 0.94938 0.80886 0.12718 0.0
H615 H 0.79369 0.93504 0.38979 0.0
H616 H 0.90342 0.94234 0.39626 0.0
H617 H 0.93366 1.01186 0.40168 0.0
H618 H 0.82592 0.02032 0.35422 0.0
H619 H 0.79415 0.03318 0.36911 0.0
H620 H 0.78125 0.98395 0.36657 0.0
H621 H 0.77172 0.97649 0.41426 0.0
H622 H 0.78474 0.02576 0.41695 0.0
H623 H 0.80993 1.00763 0.4345 0.0
H624 H 0.95221 0.0816 0.40535 0.0
H625 H 0.95716 0.14486 0.40667 0.0
H626 H 0.83529 0.09139 0.39728 0.0
C627 C 0.82412 0.95118 0.39217 0.0
C628 C 0.84607 0.93295 0.39263 0.0
C629 C 0.88579 0.95537 0.39619 0.0
C630 C 0.9033 0.99498 0.39915 0.0
C631 C 0.88079 1.01195 0.39855 0.0
C632 C 0.84205 0.9907 0.39513 0.0
C633 C 0.82424 1.01577 0.39484 0.0
C634 C 0.80528 1.01315 0.36969 0.0
C635 C 0.79599 1.00581 0.41643 0.0
C636 C 0.859 0.05449 0.39852 0.0
C637 C 0.89139 0.05178 0.40067 0.0
C638 C 0.92697 0.08398 0.40379 0.0
C639 C 0.9295 0.11983 0.40456 0.0
C640 C 0.89664 0.12325 0.40221 0.0
C641 C 0.861 0.08993 0.39929 0.0
H642 H 0.18311 0.11153 0.64926 0.0
H643 H 0.22586 0.1204 0.57414 0.0
H644 H 0.20704 0.16791 0.56433 0.0
H645 H 0.10172 0.12336 0.63268 0.0
H646 H 0.10611 0.15106 0.65998 0.0
H647 H 0.12067 0.11578 0.66092 0.0
H648 H 0.18741 0.16685 0.67571 0.0
H649 H 0.17305 0.20221 0.67487 0.0
H650 H 0.21412 0.20941 0.65758 0.0
H651 H 0.18953 0.21848 0.56351 0.0
H652 H 0.17203 0.26774 0.57134 0.0
H653 H 0.13752 0.2256 0.64626 0.0
C654 C 0.18825 0.12329 0.6307 0.0
C655 C 0.20577 0.11188 0.6124 0.0
C656 C 0.21191 0.12801 0.58835 0.0
C657 C 0.20146 0.15521 0.58262 0.0
C658 C 0.1845 0.16593 0.60103 0.0
C659 C 0.1776 0.15034 0.62455 0.0
C660 C 0.15986 0.16782 0.64104 0.0
C661 C 0.1197 0.1377 0.64913 0.0
C662 C 0.18512 0.18776 0.66363 0.0
C663 C 0.15878 0.19632 0.62329 0.0
C664 C 0.17314 0.19458 0.6003 0.0
C665 C 0.17762 0.21966 0.58127 0.0
C666 C 0.16763 0.24753 0.58588 0.0
C667 C 0.15283 0.24995 0.60919 0.0
C668 C 0.14782 0.22365 0.62806 0.0
H669 H 0.10067 0.82583 0.89265 0.0
H670 H 0.14848 0.94822 0.89052 0.0
H671 H 0.08391 0.93948 0.89036 0.0
H672 H 1.0204 0.80171 0.85272 0.0
H673 H 0.98862 0.76001 0.87025 0.0
H674 H 0.03858 0.77589 0.86952 0.0
H675 H 0.04053 0.7787 0.9176 0.0
H676 H 0.9906 0.7629 0.91848 0.0
H677 H 1.02377 0.80656 0.93367 0.0
H678 H 1.01383 0.91733 0.89127 0.0
H679 H 0.94404 0.88377 0.89372 0.0
H680 H 0.94172 0.77567 0.89493 0.0
C681 C 0.09763 0.85083 0.89198 0.0
C682 C 0.1298 0.88775 0.89153 0.0
C683 C 0.1244 0.91965 0.89088 0.0
C684 C 0.08778 0.91498 0.89076 0.0
C685 C 0.05674 0.87821 0.89134 0.0
C686 C 0.06129 0.84669 0.89196 0.0
C687 C 1.02325 0.81031 0.89305 0.0
C688 C 1.01738 0.78552 0.87001 0.0
C689 C 1.01932 0.78833 0.91713 0.0
C690 C 0.99656 0.82627 0.893 0.0
C691 C 1.01645 0.86548 0.89193 0.0
C692 C 0.99799 0.88661 0.89194 0.0
C693 C 0.95822 0.8672 0.89316 0.0
C694 C 0.93709 0.82695 0.89436 0.0
C695 C 0.95682 0.80641 0.89421 0.0
H696 H 0.76717 0.93945 0.63189 0.0
H697 H 0.84022 0.89098 0.62079 0.0
H698 H 0.89586 0.95559 0.61897 0.0
H699 H 0.81639 0.01839 0.59071 0.0
H700 H 0.8095 0.05079 0.61004 0.0
H701 H 0.77552 1.00074 0.61078 0.0
H702 H 0.7842 0.99997 0.65838 0.0
H703 H 0.81814 0.05004 0.6578 0.0
H704 H 0.83101 1.01722 0.67087 0.0
H705 H 0.94373 0.02599 0.61807 0.0
H706 H 0.97989 0.09612 0.61918 0.0
H707 H 0.87514 0.09813 0.63012 0.0
C708 C 0.79482 0.94225 0.62915 0.0
C709 C 0.79916 0.90992 0.6265 0.0
C710 C 0.83601 0.91516 0.6229 0.0
C711 C 0.86785 0.9518 0.62181 0.0
C712 C 0.86245 0.98298 0.62434 0.0
C713 C 0.82685 0.97854 0.628 0.0
C714 C 0.82865 1.01663 0.63016 0.0
C715 C 0.80619 0.02194 0.60917 0.0
C716 C 0.81468 0.02122 0.65583 0.0
C717 C 0.87084 0.04325 0.62714 0.0
C718 C 0.88987 0.02333 0.62377 0.0
C719 C 0.92908 0.04186 0.62062 0.0
C720 C 0.94935 0.08176 0.6211 0.0
C721 C 0.93046 0.10282 0.62468 0.0
C722 C 0.89059 0.08302 0.62762 0.0
H723 H 0.20687 0.27337 0.8894 0.0
H724 H 0.08443 0.20119 0.88835 0.0
H725 H 0.09194 0.14444 0.88715 0.0
H726 H 0.22847 0.21721 0.84789 0.0
H727 H 0.27034 0.22585 0.86458 0.0
H728 H 0.2552 0.26064 0.86523 0.0
H729 H 0.2537 0.25848 0.91332 0.0
H730 H 0.26868 0.22355 0.91282 0.0
H731 H 0.22577 0.21362 0.92887 0.0
H732 H 0.11304 0.0953 0.88653 0.0
H733 H 0.14578 0.05794 0.88598 0.0
H734 H 0.25441 0.16247 0.88668 0.0
C735 C 0.18153 0.24569 0.88882 0.0
C736 C 0.145 0.24192 0.88889 0.0
C737 C 0.11273 0.20499 0.88824 0.0
C738 C 0.11671 0.17252 0.8876 0.0
C739 C 0.15313 0.17734 0.88765 0.0
C740 C 0.18497 0.21302 0.88822 0.0
C741 C 0.22091 0.21049 0.88827 0.0
C742 C 0.24515 0.22968 0.86511 0.0
C743 C 0.24359 0.22755 0.91225 0.0
C744 C 0.20437 0.16779 0.88747 0.0
C745 C 0.16523 0.14916 0.88721 0.0
C746 C 0.14369 0.10964 0.8866 0.0
C747 C 0.16262 0.08864 0.88612 0.0
C748 C 0.2028 0.10709 0.88614 0.0
C749 C 0.22373 0.1473 0.88692 0.0
H750 H 0.11716 0.90091 0.60552 0.0
H751 H 0.12799 0.8418 0.66911 0.0
H752 H 0.06101 0.81789 0.67991 0.0
H753 H 0.0469 0.9241 0.63356 0.0
H754 H 1.02086 0.91502 0.60497 0.0
H755 H 0.07116 0.93236 0.60418 0.0
H756 H 0.05966 0.87503 0.57681 0.0
H757 H 1.00941 0.8574 0.57765 0.0
H758 H 0.0279 0.82748 0.58764 0.0
H759 H 0.99232 0.79598 0.68214 0.0
H760 H 0.92502 0.77536 0.67469 0.0
H761 H 0.95659 0.84608 0.60878 0.0
C762 C 0.10554 0.88383 0.62207 0.0
C763 C 0.12774 0.87355 0.63671 0.0
C764 C 0.11144 0.85014 0.65778 0.0
C765 C 0.07346 0.83652 0.66411 0.0
C766 C 0.05193 0.84626 0.64904 0.0
C767 C 0.06721 0.8693 0.62843 0.0
C768 C 0.03671 0.87229 0.61414 0.0
C769 C 0.04437 0.91339 0.61423 0.0
C770 C 0.03323 0.85713 0.58749 0.0
C771 C 1.00197 0.84656 0.6296 0.0
C772 C 1.01159 0.83245 0.64988 0.0
C773 C 0.98441 0.80717 0.66648 0.0
C774 C 0.94626 0.7957 0.66215 0.0
C775 C 0.9355 0.80914 0.64122 0.0
C776 C 0.96391 0.8352 0.62489 0.0
H777 H 0.86823 0.09982 0.90553 0.0
H778 H 0.97469 0.09922 0.90458 0.0
H779 H 0.93945 0.02923 0.90451 0.0
H780 H 0.81586 1.01774 0.94422 0.0
H781 H 0.77238 1.00065 0.92708 0.0
H782 H 0.80604 0.05078 0.92815 0.0
H783 H 0.80827 0.05298 0.88006 0.0
H784 H 0.77468 1.00284 0.87885 0.0
H785 H 0.81974 0.02154 0.86325 0.0
H786 H 0.89227 0.95862 0.904 0.0
H787 H 0.83706 0.8936 0.90303 0.0
H788 H 0.76168 0.94049 0.90217 0.0
C789 C 0.8843 0.08515 0.90517 0.0
C790 C 0.92448 0.10549 0.90525 0.0
C791 C 0.94404 0.08469 0.9051 0.0
C792 C 0.92424 0.04477 0.90482 0.0
C793 C 0.88476 0.0258 0.90452 0.0
C794 C 0.86501 0.04532 0.90464 0.0
C795 C 0.82261 0.01818 0.90376 0.0
C796 C 0.80308 0.02208 0.9272 0.0
C797 C 0.80532 0.02425 0.88007 0.0
C798 C 0.82157 0.98034 0.90316 0.0
C799 C 0.85771 0.9853 0.90368 0.0
C800 C 0.86386 0.95443 0.90355 0.0
C801 C 0.83228 0.91756 0.90299 0.0
C802 C 0.79494 0.91178 0.90243 0.0
C803 C 0.78977 0.94379 0.90242 0.0
H804 H 0.40144 0.12863 0.31511 0.0
H805 H 0.34034 0.18883 0.32931 0.0
H806 H 0.34526 0.20556 0.28459 0.0
H807 H 0.465 0.19242 0.26538 0.0
H808 H 0.46243 0.1529 0.24836 0.0
H809 H 0.45882 0.15103 0.28176 0.0
H810 H 0.39472 0.08806 0.27886 0.0
H811 H 0.39817 0.08972 0.24558 0.0
H812 H 0.35698 0.08651 0.26055 0.0
H813 H 0.34953 0.20751 0.23639 0.0
H814 H 0.35218 0.1938 0.19161 0.0
H815 H 0.41176 0.13381 0.2104 0.0
C816 C 0.38992 0.14619 0.30897 0.0
C817 C 0.37064 0.15754 0.32574 0.0
C818 C 0.35558 0.18012 0.31686 0.0
C819 C 0.35822 0.18971 0.29145 0.0
C820 C 0.3765 0.177 0.27521 0.0
C821 C 0.39246 0.15606 0.28384 0.0
C822 C 0.40785 0.14293 0.26274 0.0
C823 C 0.4511 0.16091 0.26468 0.0
C824 C 0.38824 0.09924 0.26189 0.0
C825 C 0.39698 0.1585 0.24071 0.0
C826 C 0.37931 0.1785 0.24806 0.0
C827 C 0.36404 0.19256 0.23054 0.0
C828 C 0.36588 0.18491 0.20508 0.0
C829 C 0.38259 0.16314 0.19748 0.0
C830 C 0.39934 0.15106 0.21558 0.0
H831 H 0.75392 0.63588 0.31269 0.0
H832 H 0.87381 0.6976 0.32956 0.0
H833 H 0.88837 0.69522 0.28488 0.0
H834 H 0.75697 0.57679 0.26021 0.0
H835 H 0.72113 0.58143 0.24358 0.0
H836 H 0.721 0.58124 0.27705 0.0
H837 H 0.72212 0.64563 0.27721 0.0
H838 H 0.72265 0.64626 0.24387 0.0
H839 H 0.75946 0.68554 0.26089 0.0
H840 H 0.88876 0.69387 0.23668 0.0
H841 H 0.87526 0.6947 0.19184 0.0
H842 H 0.75496 0.63614 0.20791 0.0
C843 C 0.78329 0.64778 0.30716 0.0
C844 C 0.81274 0.66659 0.32462 0.0
C845 C 0.85079 0.68242 0.31658 0.0
C846 C 0.85924 0.68133 0.29119 0.0
C847 C 0.8293 0.66404 0.27422 0.0
C848 C 0.79203 0.6472 0.2821 0.0
C849 C 0.76481 0.63431 0.26043 0.0
C850 C 0.73949 0.59086 0.26031 0.0
C851 C 0.74089 0.65413 0.26062 0.0
C852 C 0.7924 0.64761 0.23891 0.0
C853 C 0.8295 0.66408 0.24704 0.0
C854 C 0.85976 0.68049 0.23024 0.0
C855 C 0.85186 0.68077 0.20477 0.0
C856 C 0.81404 0.66533 0.19637 0.0
C857 C 0.78413 0.64784 0.21372 0.0
H858 H 0.90849 0.17096 0.20751 0.0
H859 H 0.8598 0.2416 0.18958 0.0
H860 H 0.84345 0.24182 0.23401 0.0
H861 H 0.84197 0.11589 0.25902 0.0
H862 H 0.87949 0.11573 0.27659 0.0
H863 H 0.88111 0.11604 0.24312 0.0
H864 H 0.94746 0.1765 0.24427 0.0
H865 H 0.94597 0.1765 0.27762 0.0
H866 H 0.95353 0.21795 0.26068 0.0
H867 H 0.84081 0.24135 0.28187 0.0
H868 H 0.85254 0.24059 0.32698 0.0
H869 H 0.90313 0.17035 0.31275 0.0
C870 C 0.89338 0.1856 0.21278 0.0
C871 C 0.88523 0.20609 0.195 0.0
C872 C 0.86595 0.22533 0.20278 0.0
C873 C 0.85664 0.22565 0.22803 0.0
C874 C 0.86643 0.20627 0.24525 0.0
C875 C 0.88405 0.18625 0.23779 0.0
C876 C 0.89488 0.17065 0.25987 0.0
C877 C 0.87305 0.12698 0.25963 0.0
C878 C 0.938 0.18635 0.26064 0.0
C879 C 0.8819 0.18606 0.28107 0.0
C880 C 0.86503 0.2061 0.2724 0.0
C881 C 0.85339 0.22516 0.28877 0.0
C882 C 0.86004 0.22448 0.31442 0.0
C883 C 0.87852 0.2052 0.32348 0.0
C884 C 0.88851 0.18496 0.3065 0.0
H885 H 0.11878 0.39217 0.70464 0.0
H886 H 0.19496 0.34949 0.68778 0.0
H887 H 0.20931 0.35118 0.73278 0.0
H888 H 0.16909 0.4514 0.75998 0.0
H889 H 0.12474 0.43763 0.77544 0.0
H890 H 0.12773 0.4411 0.74205 0.0
H891 H 0.07258 0.37162 0.73853 0.0
H892 H 0.06949 0.36792 0.77175 0.0
H893 H 0.07651 0.33431 0.75386 0.0
H894 H 0.20779 0.34952 0.78121 0.0
H895 H 0.18744 0.34061 0.82551 0.0
H896 H 0.10883 0.37989 0.80883 0.0
C897 C 0.13947 0.3843 0.71024 0.0
C898 C 0.15598 0.37099 0.69262 0.0
C899 C 0.18237 0.36033 0.70087 0.0
C900 C 0.19058 0.36114 0.72644 0.0
C901 C 0.17227 0.37281 0.74348 0.0
C902 C 0.14733 0.38434 0.73549 0.0
C903 C 0.12718 0.39075 0.75704 0.0
C904 C 0.13784 0.43272 0.75872 0.0
C905 C 0.08391 0.36458 0.75518 0.0
C906 C 0.14347 0.37976 0.77855 0.0
C907 C 0.17024 0.37045 0.77065 0.0
C908 C 0.18731 0.35735 0.78748 0.0
C909 C 0.17584 0.35261 0.81265 0.0
C910 C 0.14702 0.36014 0.82054 0.0
C911 C 0.13144 0.37463 0.80332 0.0
H912 H 0.3047 0.91889 0.80991 0.0
H913 H 0.18509 0.84761 0.82613 0.0
H914 H 0.17263 0.83251 0.78118 0.0
H915 H 0.29354 0.96094 0.75792 0.0
H916 H 0.33331 0.96389 0.74111 0.0
H917 H 0.33311 0.96336 0.77447 0.0
H918 H 0.34305 0.90507 0.77413 0.0
H919 H 0.34347 0.90551 0.74066 0.0
H920 H 0.31066 0.86301 0.75711 0.0
H921 H 0.17327 0.83183 0.73307 0.0
H922 H 0.18648 0.84674 0.68825 0.0
H923 H 0.3055 0.92009 0.70479 0.0
C924 C 0.27593 0.89927 0.80416 0.0
C925 C 0.24588 0.88423 0.82159 0.0
C926 C 0.20862 0.85911 0.81318 0.0
C927 C 0.20134 0.85048 0.78765 0.0
C928 C 0.23163 0.867 0.77084 0.0
C929 C 0.26826 0.89069 0.77893 0.0
C930 C 0.29558 0.90791 0.75737 0.0
C931 C 0.315 0.95159 0.75775 0.0
C932 C 0.32492 0.89456 0.75732 0.0
C933 C 0.26864 0.89125 0.7357 0.0
C934 C 0.23192 0.8672 0.74367 0.0
C935 C 0.20202 0.85026 0.72675 0.0
C936 C 0.20977 0.85882 0.70128 0.0
C937 C 0.24703 0.88455 0.69298 0.0
C938 C 0.27676 0.9001 0.71049 0.0
H939 H 0.76188 0.82073 0.7131 0.0
H940 H 0.64998 0.80066 0.69469 0.0
H941 H 0.63814 0.80677 0.73952 0.0
H942 H 0.7368 0.7651 0.76428 0.0
H943 H 0.77928 0.79488 0.78166 0.0
H944 H 0.78056 0.79603 0.74834 0.0
H945 H 0.80668 0.86876 0.74902 0.0
H946 H 0.8058 0.86793 0.78249 0.0
H947 H 0.7813 0.88766 0.7658 0.0
H948 H 0.63703 0.80662 0.78864 0.0
H949 H 0.64658 0.79979 0.83366 0.0
H950 H 0.75886 0.8187 0.81726 0.0
C951 C 0.73523 0.81876 0.71835 0.0
C952 C 0.70696 0.81054 0.70046 0.0
C953 C 0.67229 0.80765 0.70809 0.0
C954 C 0.66535 0.81089 0.73354 0.0
C955 C 0.6936 0.81754 0.75094 0.0
C956 C 0.72808 0.82195 0.74335 0.0
C957 C 0.7529 0.82539 0.76512 0.0
C958 C 0.76293 0.79345 0.76482 0.0
C959 C 0.78879 0.86478 0.76564 0.0
C960 C 0.72671 0.82076 0.78641 0.0
C961 C 0.6928 0.81693 0.77821 0.0
C962 C 0.66376 0.81018 0.79508 0.0
C963 C 0.6694 0.80648 0.82064 0.0
C964 C 0.70351 0.80886 0.82891 0.0
C965 C 0.73254 0.81692 0.81151 0.0
H966 H 0.26933 0.99618 0.94927 0.0
H967 H 0.24911 0.89565 0.98971 0.0
H968 H 0.27485 0.93434 0.02779 0.0
H969 H 0.35596 0.06304 0.97898 0.0
H970 H 0.34517 0.10103 0.98025 0.0
H971 H 0.32521 0.06575 0.95605 0.0
H972 H 0.25784 0.05062 0.96875 0.0
H973 H 0.27744 0.0859 0.99297 0.0
H974 H 0.2423 0.03768 1.00042 0.0
H975 H 0.30814 0.98431 0.06001 0.0
H976 H 0.33879 0.04066 0.08678 0.0
H977 H 0.33158 0.10959 0.02793 0.0
C978 C 0.27042 0.98245 0.96616 0.0
C979 C 0.25762 0.94294 0.96653 0.0
C980 C 0.25872 0.92578 0.98907 0.0
C981 C 0.27344 0.94759 0.01073 0.0
C982 C 0.28623 0.9865 1.00973 0.0
C983 C 0.28419 1.00376 0.9882 0.0
C984 C 0.29883 0.04596 0.99259 0.0
C985 C 0.33334 0.07038 0.97598 0.0
C986 C 0.26721 0.0556 0.98844 0.0
C987 C 0.31001 0.04982 0.01987 0.0
C988 C 0.30286 1.01509 0.02913 0.0
C989 C 0.31293 1.0114 0.05317 0.0
C990 C 0.33023 0.04373 0.06832 0.0
C991 C 0.33649 0.07949 0.05991 0.0
C992 C 0.32635 0.08255 0.03518 0.0
H993 H 0.81007 0.72795 0.49147 0.0
H994 H 0.72152 0.69418 0.43627 0.0
H995 H 0.6878 0.71632 0.46341 0.0
H996 H 0.74608 0.69816 0.54355 0.0
H997 H 0.77592 0.73641 0.56405 0.0
H998 H 0.79691 0.72066 0.54071 0.0
H999 H 0.8345 0.78732 0.52151 0.0
H1000 H 0.81652 0.80498 0.54562 0.0
H1001 H 0.81031 0.81282 0.51345 0.0
H1002 H 0.66255 0.74185 0.49664 0.0
H1003 H 0.64797 0.76788 0.53413 0.0
H1004 H 0.75267 0.78773 0.56737 0.0
C1005 C 0.78371 0.72543 0.4851 0.0
C1006 C 0.76876 0.7095 0.46152 0.0
C1007 C 0.7339 0.70646 0.45408 0.0
C1008 C 0.71436 0.71896 0.46941 0.0
C1009 C 0.72968 0.7345 0.49244 0.0
C1010 C 0.76354 0.7378 0.50034 0.0
C1011 C 0.77289 0.7546 0.52637 0.0
C1012 C 0.77301 0.72576 0.54474 0.0
C1013 C 0.81081 0.79218 0.52675 0.0
C1014 C 0.73964 0.76102 0.53146 0.0
C1015 C 0.71484 0.74885 0.51173 0.0
C1016 C 0.68181 0.75138 0.51224 0.0
C1017 C 0.67377 0.76633 0.53359 0.0
C1018 C 0.69856 0.7786 0.5542 0.0
C1019 C 0.73222 0.77654 0.5527 0.0
H1020 H 0.06314 0.27926 0.95127 0.0
H1021 H 0.13824 0.39074 0.98233 0.0
H1022 H 0.09652 0.37507 0.01879 0.0
H1023 H 0.97504 0.27559 0.97232 0.0
H1024 H 0.95095 0.22538 0.97886 0.0
H1025 H 0.98679 0.24482 0.95502 0.0
H1026 H 1.02289 0.21557 0.97666 0.0
H1027 H 0.98738 0.19649 1.00076 0.0
H1028 H 0.0365 0.2269 1.00875 0.0
H1029 H 0.04858 0.34856 0.05194 0.0
H1030 H 0.99525 0.31332 0.08029 0.0
H1031 H 0.94627 0.218 0.02896 0.0
C1032 C 0.07048 0.30046 0.96563 0.0
C1033 C 0.10409 0.3365 0.96371 0.0
C1034 C 0.11289 0.36308 0.98319 0.0
C1035 C 0.08926 0.35443 1.00405 0.0
C1036 C 0.05643 0.31902 1.00532 0.0
C1037 C 0.04665 0.29241 0.98665 0.0
C1038 C 1.00906 0.25673 0.99291 0.0
C1039 C 0.97866 0.25025 0.97363 0.0
C1040 C 1.01429 0.22186 0.99489 0.0
C1041 C 0.99974 0.2674 0.01817 0.0
C1042 C 0.02775 0.30358 0.02472 0.0
C1043 C 0.02642 0.32028 0.04698 0.0
C1044 C 0.99578 0.29981 0.06304 0.0
C1045 C 0.96618 0.26271 0.05706 0.0
C1046 C 0.96825 0.24626 0.03415 0.0
H1047 H 0.35691 0.08364 0.47285 0.0
H1048 H 0.2573 0.09499 0.46389 0.0
H1049 H 0.22244 0.04256 0.49398 0.0
H1050 H 0.31081 0.98279 0.48035 0.0
H1051 H 0.34245 0.98409 0.50416 0.0
H1052 H 0.35899 0.02154 0.48145 0.0
H1053 H 0.37917 0.07157 0.51659 0.0
H1054 H 0.36293 0.03429 0.53941 0.0
H1055 H 0.34489 0.06682 0.53969 0.0
H1056 H 0.19731 0.98527 0.52347 0.0
H1057 H 0.18679 0.93471 0.55355 0.0
H1058 H 0.30492 0.96589 0.5471 0.0
C1059 C 0.32779 0.07514 0.47735 0.0
C1060 C 0.30971 0.0933 0.46599 0.0
C1061 C 0.27173 0.08164 0.47248 0.0
C1062 C 0.25168 0.05172 0.48946 0.0
C1063 C 0.27027 0.03429 0.50033 0.0
C1064 C 0.30779 0.04618 0.49489 0.0
C1065 C 0.32185 0.02413 0.51003 0.0
C1066 C 0.33425 1.00181 0.49298 0.0
C1067 C 0.35412 0.05079 0.52747 0.0
C1068 C 0.28633 0.99756 0.52458 0.0
C1069 C 0.25666 1.0034 0.51843 0.0
C1070 C 0.22053 0.98088 0.52859 0.0
C1071 C 0.21472 0.95206 0.54556 0.0
C1072 C 0.24501 0.94646 0.55275 0.0
C1073 C 0.28128 0.96972 0.54212 0.0
H1074 H 0.74782 0.67502 0.05039 0.0
H1075 H 0.86255 0.76937 0.05633 0.0
H1076 H 0.84687 0.80652 0.02695 0.0
H1077 H 0.73982 0.68626 0.98378 0.0
H1078 H 0.69021 0.6718 0.98561 0.0
H1079 H 0.71045 0.65362 1.00761 0.0
H1080 H 0.68614 0.67808 0.04379 0.0
H1081 H 0.66618 0.69668 0.0219 0.0
H1082 H 0.69938 0.72757 0.04491 0.0
H1083 H 0.81633 0.83493 0.99898 0.0
H1084 H 0.77718 0.84848 0.97007 0.0
H1085 H 0.68506 0.73284 0.9784 0.0
C1086 C 0.76966 0.70345 0.04535 0.0
C1087 C 0.8064 0.71947 0.05566 0.0
C1088 C 0.83434 0.75656 0.04852 0.0
C1089 C 0.82557 0.7779 0.03197 0.0
C1090 C 0.78896 0.76139 0.02222 0.0
C1091 C 0.76174 0.72462 0.02822 0.0
C1092 C 0.72517 0.71269 0.01421 0.0
C1093 C 0.71588 0.6791 0.99677 0.0
C1094 C 0.69228 0.7032 0.03228 0.0
C1095 C 0.73576 0.74861 0.99965 0.0
C1096 C 0.77245 0.77667 1.00486 0.0
C1097 C 0.78777 0.81296 0.99457 0.0
C1098 C 0.76528 0.82052 0.97831 0.0
C1099 C 0.72822 0.79171 0.97199 0.0
C1100 C 0.71342 0.75532 0.98281 0.0
H1101 H 0.05518 0.28453 0.56477 0.0
H1102 H 0.1401 0.38391 0.52534 0.0
H1103 H 0.09642 0.36844 0.49011 0.0
H1104 H 1.0211 0.22372 0.50966 0.0
H1105 H 0.97215 0.19894 0.51932 0.0
H1106 H 1.00926 0.2179 0.54226 0.0
H1107 H 0.98039 0.25574 0.56213 0.0
H1108 H 0.94315 0.23704 0.53928 0.0
H1109 H 0.97242 0.28767 0.54322 0.0
H1110 H 0.04395 0.34566 0.46045 0.0
H1111 H 0.9872 0.31285 0.43476 0.0
H1112 H 0.9349 0.22284 0.48963 0.0
C1113 C 0.06436 0.303 0.5487 0.0
C1114 C 0.10109 0.33577 0.54791 0.0
C1115 C 0.11228 0.35882 0.52643 0.0
C1116 C 0.08756 0.3503 0.50632 0.0
C1117 C 0.0517 0.3181 0.50762 0.0
C1118 C 0.04009 0.29434 0.52799 0.0
C1119 C 1.00026 0.26071 0.52372 0.0
C1120 C 1.00073 0.22308 0.52374 0.0
C1121 C 0.97241 0.26028 0.54325 0.0
C1122 C 0.99135 0.26969 0.49788 0.0
C1123 C 1.02157 0.30329 0.48933 0.0
C1124 C 1.02039 0.31899 0.46671 0.0
C1125 C 0.98782 0.29986 0.45216 0.0
C1126 C 0.95665 0.26457 0.45965 0.0
C1127 C 0.95838 0.24937 0.48308 0.0
H1128 H 0.63863 0.17688 0.09497 0.0
H1129 H 0.64073 0.11339 0.15907 0.0
H1130 H 0.57271 0.09035 0.16626 0.0
H1131 H 0.57849 0.20801 0.12178 0.0
H1132 H 0.55409 0.20433 0.09314 0.0
H1133 H 0.60217 0.21361 0.09242 0.0
H1134 H 0.58151 0.15486 0.06405 0.0
H1135 H 0.53322 0.14515 0.06495 0.0
H1136 H 0.54415 0.10905 0.07416 0.0
H1137 H 0.50277 0.0746 0.16664 0.0
H1138 H 0.44124 0.07326 0.16209 0.0
H1139 H 0.48703 0.14954 0.09931 0.0
C1140 C 0.62508 0.15839 0.11068 0.0
C1141 C 0.64552 0.14696 0.12633 0.0
C1142 C 0.62594 0.12218 0.14644 0.0
C1143 C 0.58716 0.10896 0.15076 0.0
C1144 C 0.56795 0.12068 0.13487 0.0
C1145 C 0.58648 0.14511 0.11534 0.0
C1146 C 0.56004 0.15473 0.10146 0.0
C1147 C 0.57456 0.19771 0.10227 0.0
C1148 C 0.5544 0.14007 0.07456 0.0
C1149 C 0.52399 0.13269 0.11652 0.0
C1150 C 0.52867 0.11255 0.13547 0.0
C1151 C 0.4989 0.09025 0.15179 0.0
C1152 C 0.46393 0.08934 0.149 0.0
C1153 C 0.45934 0.11112 0.13031 0.0
C1154 C 0.48969 0.1325 0.11375 0.0
H1155 H 0.71127 0.54802 0.39389 0.0
H1156 H 0.65732 0.6157 0.38162 0.0
H1157 H 0.59462 0.55695 0.3814 0.0
H1158 H 0.6477 0.46693 0.35591 0.0
H1159 H 0.64839 0.43284 0.37696 0.0
H1160 H 0.68888 0.47995 0.3748 0.0
H1161 H 0.68546 0.4889 0.42217 0.0
H1162 H 0.64489 0.44191 0.42449 0.0
H1163 H 0.64198 0.48226 0.43571 0.0
H1164 H 0.53733 0.49031 0.38375 0.0
H1165 H 0.49056 0.4224 0.38928 0.0
H1166 H 0.582 0.39819 0.40048 0.0
C1167 C 0.68637 0.55061 0.39083 0.0
C1168 C 0.68942 0.58671 0.38756 0.0
C1169 C 0.65589 0.58854 0.38404 0.0
C1170 C 0.6201 0.55525 0.38389 0.0
C1171 C 0.61817 0.52023 0.3874 0.0
C1172 C 0.65048 0.51775 0.39083 0.0
C1173 C 0.64069 0.47687 0.39514 0.0
C1174 C 0.6574 0.46336 0.37447 0.0
C1175 C 0.65405 0.47223 0.42091 0.0
C1176 C 0.59776 0.45663 0.39372 0.0
C1177 C 0.58534 0.48212 0.38909 0.0
C1178 C 0.54684 0.47016 0.38722 0.0
C1179 C 0.52041 0.43133 0.39023 0.0
C1180 C 0.53231 0.40453 0.39518 0.0
C1181 C 0.57172 0.4177 0.39687 0.0
H1182 H 0.87065 0.32693 0.11665 0.0
H1183 H 0.97972 0.37408 0.15324 0.0
H1184 H 0.98269 0.43662 0.1558 0.0
H1185 H 0.89371 0.40745 0.07928 0.0
H1186 H 0.84696 0.40184 0.08122 0.0
H1187 H 0.85297 0.36094 0.08367 0.0
H1188 H 0.81788 0.34389 0.126 0.0
H1189 H 0.81168 0.3847 0.12368 0.0
H1190 H 0.83451 0.37877 0.15054 0.0
H1191 H 0.97282 0.49486 0.1538 0.0
H1192 H 0.95308 0.5426 0.14558 0.0
H1193 H 0.85158 0.45595 0.1093 0.0
C1194 C 0.8951 0.35017 0.1255 0.0
C1195 C 0.92483 0.34534 0.135 0.0
C1196 C 0.9565 0.37693 0.14595 0.0
C1197 C 0.95838 0.41256 0.14749 0.0
C1198 C 0.9285 0.41621 0.13782 0.0
C1199 C 0.89758 0.38574 0.12692 0.0
C1200 C 0.86979 0.39692 0.11693 0.0
C1201 C 0.86564 0.39147 0.0886 0.0
C1202 C 0.83119 0.37475 0.13008 0.0
C1203 C 0.88973 0.43857 0.12387 0.0
C1204 C 0.92342 0.44929 0.13608 0.0
C1205 C 0.94649 0.48661 0.14424 0.0
C1206 C 0.93498 0.51353 0.13959 0.0
C1207 C 0.9009 0.50316 0.12665 0.0
C1208 C 0.87804 0.46501 0.11894 0.0
H1209 H 0.45917 0.10196 0.37896 0.0
H1210 H 0.46325 0.18314 0.43321 0.0
H1211 H 0.52939 0.20239 0.44277 0.0
H1212 H 0.52119 0.07513 0.41372 0.0
H1213 H 0.54484 0.07191 0.38623 0.0
H1214 H 0.49656 0.06207 0.38444 0.0
H1215 H 0.51594 0.1127 0.34993 0.0
H1216 H 0.56434 0.12297 0.35181 0.0
H1217 H 0.55342 0.1606 0.35574 0.0
H1218 H 0.59537 0.2167 0.44492 0.0
H1219 H 0.65821 0.22258 0.44175 0.0
H1220 H 0.61507 0.13197 0.38687 0.0
C1221 C 0.47387 0.1231 0.39321 0.0
C1222 C 0.45589 0.14088 0.40554 0.0
C1223 C 0.47636 0.1691 0.42363 0.0
C1224 C 0.51402 0.1803 0.42918 0.0
C1225 C 0.53135 0.16318 0.41645 0.0
C1226 C 0.51214 0.13497 0.39899 0.0
C1227 C 0.5387 0.12247 0.38773 0.0
C1228 C 0.52447 0.08039 0.39337 0.0
C1229 C 0.54336 0.13014 0.35963 0.0
C1230 C 0.57553 0.14825 0.4015 0.0
C1231 C 0.5703 0.17142 0.41792 0.0
C1232 C 0.59974 0.1983 0.43243 0.0
C1233 C 0.63545 0.20127 0.43056 0.0
C1234 C 0.64187 0.17735 0.41443 0.0
C1235 C 0.61135 0.15073 0.39943 0.0
H1236 H 0.59486 0.39832 0.10574 0.0
H1237 H 0.5013 0.41574 0.1257 0.0
H1238 H 0.54635 0.48461 0.13121 0.0
H1239 H 0.66219 0.46535 0.14897 0.0
H1240 H 0.70167 0.48042 0.12794 0.0
H1241 H 0.66184 0.43294 0.12587 0.0
H1242 H 0.65344 0.44395 0.07948 0.0
H1243 H 0.69319 0.49149 0.08144 0.0
H1244 H 0.64792 0.48381 0.0709 0.0
H1245 H 0.60318 0.55331 0.13273 0.0
H1246 H 0.66555 0.61289 0.13268 0.0
H1247 H 0.72022 0.54815 0.11257 0.0
C1248 C 0.58372 0.41658 0.11116 0.0
C1249 C 0.54446 0.40161 0.1151 0.0
C1250 C 0.53127 0.4265 0.12267 0.0
C1251 C 0.55665 0.4657 0.12571 0.0
C1252 C 0.59519 0.47955 0.12135 0.0
C1253 C 0.60857 0.45551 0.11443 0.0
C1254 C 0.65114 0.47695 0.11107 0.0
C1255 C 0.67033 0.46309 0.12957 0.0
C1256 C 0.66205 0.47386 0.08412 0.0
C1257 C 0.65983 0.51692 0.11707 0.0
C1258 C 0.62734 0.51814 0.12281 0.0
C1259 C 0.62876 0.5525 0.12841 0.0
C1260 C 0.66427 0.58623 0.12827 0.0
C1261 C 0.69788 0.58528 0.12282 0.0
C1262 C 0.69525 0.55 0.11711 0.0
H1263 H 0.82596 0.44866 0.4052 0.0
H1264 H 0.93557 0.54176 0.3827 0.0
H1265 H 0.95779 0.49613 0.37447 0.0
H1266 H 0.86135 0.39638 0.43747 0.0
H1267 H 0.82304 0.35059 0.42818 0.0
H1268 H 0.81532 0.39044 0.43082 0.0
H1269 H 0.79169 0.3802 0.38532 0.0
H1270 H 0.79942 0.34034 0.38255 0.0
H1271 H 0.82156 0.37918 0.36087 0.0
H1272 H 0.96915 0.43949 0.37083 0.0
H1273 H 0.96788 0.37783 0.37179 0.0
H1274 H 0.85094 0.32271 0.39692 0.0
C1275 C 0.85469 0.45963 0.39857 0.0
C1276 C 0.87889 0.49908 0.39461 0.0
C1277 C 0.91613 0.51178 0.38558 0.0
C1278 C 0.92914 0.48602 0.38098 0.0
C1279 C 0.90464 0.44744 0.38538 0.0
C1280 C 0.86812 0.43435 0.39391 0.0
C1281 C 0.84761 0.3917 0.3978 0.0
C1282 C 0.83617 0.38171 0.42519 0.0
C1283 C 0.81302 0.37168 0.3806 0.0
C1284 C 0.87833 0.3828 0.39035 0.0
C1285 C 0.91105 0.41522 0.38319 0.0
C1286 C 0.94352 0.41393 0.37625 0.0
C1287 C 0.94255 0.37871 0.37683 0.0
C1288 C 0.90931 0.34514 0.38428 0.0
C1289 C 0.87681 0.34755 0.3909 0.0
H1290 H 0.20409 0.63709 0.61929 0.0
H1291 H 0.08848 0.61422 0.61154 0.0
H1292 H 0.06536 0.5453 0.61368 0.0
H1293 H 0.19434 0.56009 0.58253 0.0
H1294 H 0.22444 0.55013 0.60182 0.0
H1295 H 0.23163 0.59758 0.60045 0.0
H1296 H 0.22485 0.59808 0.64829 0.0
H1297 H 0.21777 0.55065 0.64981 0.0
H1298 H 0.18306 0.56081 0.66311 0.0
H1299 H 0.05504 0.47761 0.61547 0.0
H1300 H 0.05896 0.41862 0.61709 0.0
H1301 H 0.18117 0.48671 0.62449 0.0
C1302 C 0.17383 0.61773 0.61846 0.0
C1303 C 0.14821 0.63144 0.61523 0.0
C1304 C 0.10887 0.60471 0.61371 0.0
C1305 C 0.09539 0.56538 0.61505 0.0
C1306 C 0.12149 0.55293 0.618 0.0
C1307 C 0.1599 0.57841 0.61979 0.0
C1308 C 0.18221 0.55785 0.62242 0.0
C1309 C 0.20977 0.56695 0.6005 0.0
C1310 C 0.2032 0.56741 0.6474 0.0
C1311 C 0.15045 0.51684 0.62167 0.0
C1312 C 0.11557 0.51443 0.61916 0.0
C1313 C 0.08225 0.47927 0.61756 0.0
C1314 C 0.08473 0.44584 0.61849 0.0
C1315 C 0.12028 0.44772 0.621 0.0
C1316 C 0.1534 0.48392 0.6227 0.0
H1317 H 0.33373 0.85438 0.89653 0.0
H1318 H 0.3928 0.9771 0.88887 0.0
H1319 H 0.45414 0.97805 0.88893 0.0
H1320 H 0.39971 0.85056 0.93835 0.0
H1321 H 0.395 0.80748 0.9253 0.0
H1322 H 0.35599 0.8165 0.92373 0.0
H1323 H 0.35378 0.80837 0.87595 0.0
H1324 H 0.39278 0.7993 0.87734 0.0
H1325 H 0.39598 0.83682 0.85785 0.0
H1326 H 0.50923 0.96517 0.89005 0.0
H1327 H 0.55337 0.94032 0.8937 0.0
H1328 H 0.45797 0.82595 0.90125 0.0
C1329 C 0.3595 0.88153 0.89468 0.0
C1330 C 0.35834 0.91573 0.89253 0.0
C1331 C 0.39287 0.95056 0.89049 0.0
C1332 C 0.42786 0.95134 0.89047 0.0
C1333 C 0.42789 0.91707 0.89266 0.0
C1334 C 0.39456 0.88284 0.89484 0.0
C1335 C 0.40223 0.85008 0.89766 0.0
C1336 C 0.38735 0.82998 0.92276 0.0
C1337 C 0.38518 0.82199 0.8759 0.0
C1338 C 0.44517 0.87116 0.89675 0.0
C1339 C 0.45943 0.90975 0.89371 0.0
C1340 C 0.4983 0.935 0.89235 0.0
C1341 C 0.52318 0.92052 0.89428 0.0
C1342 C 0.5093 0.88109 0.89764 0.0
C1343 C 0.46962 0.85623 0.89884 0.0
H1344 H 0.55848 0.70805 0.62727 0.0
H1345 H 0.62365 0.64987 0.62735 0.0
H1346 H 0.56384 0.58801 0.62716 0.0
H1347 H 0.48299 0.64325 0.66708 0.0
H1348 H 0.44692 0.64709 0.65016 0.0
H1349 H 0.49477 0.68639 0.65065 0.0
H1350 H 0.49643 0.68677 0.60256 0.0
H1351 H 0.44859 0.64747 0.6019 0.0
H1352 H 0.48578 0.64387 0.58608 0.0
H1353 H 0.49587 0.53213 0.6268 0.0
H1354 H 0.42691 0.48774 0.62497 0.0
H1355 H 0.40694 0.58328 0.62537 0.0
C1356 C 0.56044 0.68242 0.62738 0.0
C1357 C 0.59607 0.68404 0.62746 0.0
C1358 C 0.59689 0.64955 0.62733 0.0
C1359 C 0.56299 0.61424 0.62725 0.0
C1360 C 0.52845 0.61382 0.62721 0.0
C1361 C 0.52704 0.6471 0.62718 0.0
C1362 C 0.48648 0.63919 0.62663 0.0
C1363 C 0.47726 0.65491 0.65003 0.0
C1364 C 0.47889 0.65528 0.60288 0.0
C1365 C 0.46506 0.59615 0.62644 0.0
C1366 C 0.48972 0.58199 0.62684 0.0
C1367 C 0.4764 0.54301 0.62659 0.0
C1368 C 0.43704 0.51795 0.62576 0.0
C1369 C 0.41114 0.53178 0.62515 0.0
C1370 C 0.42571 0.57157 0.62561 0.0
H1371 H 0.21456 0.63889 0.89913 0.0
H1372 H 0.09927 0.61862 0.8984 0.0
H1373 H 0.07506 0.54955 0.89643 0.0
H1374 H 0.19968 0.56295 0.85749 0.0
H1375 H 0.23079 0.5513 0.87424 0.0
H1376 H 0.23896 0.59917 0.87483 0.0
H1377 H 0.23668 0.59745 0.92293 0.0
H1378 H 0.22845 0.54956 0.92246 0.0
H1379 H 0.1958 0.56012 0.93847 0.0
H1380 H 0.06321 0.48159 0.89584 0.0
H1381 H 0.06526 0.42165 0.89554 0.0
H1382 H 0.18821 0.48676 0.8972 0.0
C1383 C 0.18419 0.62004 0.89864 0.0
C1384 C 0.15895 0.6346 0.89881 0.0
C1385 C 0.11939 0.60855 0.89784 0.0
C1386 C 0.10528 0.56911 0.89692 0.0
C1387 C 0.13096 0.55583 0.89698 0.0
C1388 C 0.16961 0.58058 0.89775 0.0
C1389 C 0.19124 0.55909 0.89786 0.0
C1390 C 0.21666 0.5687 0.87472 0.0
C1391 C 0.2144 0.56703 0.92186 0.0
C1392 C 0.15877 0.5184 0.89705 0.0
C1393 C 0.12419 0.51702 0.89661 0.0
C1394 C 0.0902 0.48242 0.89612 0.0
C1395 C 0.09163 0.44844 0.89599 0.0
C1396 C 0.12682 0.44918 0.89628 0.0
C1397 C 0.16072 0.48487 0.89685 0.0
H1398 H 0.34088 0.86511 0.63267 0.0
H1399 H 0.3898 0.98009 0.60443 0.0
H1400 H 0.45229 0.98365 0.60104 0.0
H1401 H 0.42247 0.88157 0.66946 0.0
H1402 H 0.41584 0.83501 0.66317 0.0
H1403 H 0.37562 0.84225 0.66367 0.0
H1404 H 0.35772 0.81426 0.61928 0.0
H1405 H 0.39809 0.8073 0.61852 0.0
H1406 H 0.39212 0.83484 0.5946 0.0
H1407 H 0.50879 0.97273 0.59865 0.0
H1408 H 0.55544 0.95093 0.60057 0.0
H1409 H 0.46977 0.84402 0.63247 0.0
C1410 C 0.36474 0.89119 0.62587 0.0
C1411 C 0.36036 0.92234 0.61871 0.0
C1412 C 0.39245 0.95595 0.61012 0.0
C1413 C 0.42801 0.95813 0.60803 0.0
C1414 C 0.43111 0.9266 0.61489 0.0
C1415 C 0.40038 0.89397 0.62396 0.0
C1416 C 0.41114 0.8642 0.63039 0.0
C1417 C 0.40597 0.85524 0.65833 0.0
C1418 C 0.38841 0.82802 0.61476 0.0
C1419 C 0.45268 0.88486 0.62315 0.0
C1420 C 0.46365 0.92077 0.61419 0.0
C1421 C 0.50054 0.94486 0.60596 0.0
C1422 C 0.52696 0.9322 0.60726 0.0
C1423 C 0.51671 0.89577 0.61692 0.0
C1424 C 0.47877 0.87184 0.62477 0.0
H1425 H 0.55756 0.70237 0.88686 0.0
H1426 H 0.62252 0.65367 0.91737 0.0
H1427 H 0.56373 0.59223 0.92245 0.0
H1428 H 0.47621 0.6536 0.92601 0.0
H1429 H 0.44219 0.64573 0.90209 0.0
H1430 H 0.48936 0.68611 0.90027 0.0
H1431 H 0.49828 0.66469 0.85665 0.0
H1432 H 0.45099 0.62447 0.85821 0.0
H1433 H 0.49065 0.61731 0.85244 0.0
H1434 H 0.49781 0.53722 0.92683 0.0
H1435 H 0.42994 0.48997 0.92613 0.0
H1436 H 0.40665 0.57184 0.89016 0.0
C1437 C 0.55948 0.6787 0.89442 0.0
C1438 C 0.59492 0.68306 0.90171 0.0
C1439 C 0.59598 0.65122 0.91148 0.0
C1440 C 0.56262 0.61615 0.91458 0.0
C1441 C 0.52822 0.613 0.90759 0.0
C1442 C 0.52637 0.64318 0.89735 0.0
C1443 C 0.48564 0.63175 0.89101 0.0
C1444 C 0.47259 0.65573 0.90573 0.0
C1445 C 0.48113 0.63473 0.86291 0.0
C1446 C 0.46489 0.59057 0.89956 0.0
C1447 C 0.49009 0.58057 0.90922 0.0
C1448 C 0.4779 0.54454 0.91889 0.0
C1449 C 0.4391 0.51771 0.91823 0.0
C1450 C 0.41249 0.52651 0.90762 0.0
C1451 C 0.42585 0.56387 0.89846 0.0
loop_
_geom_bond_atom_site_label_1
_geom_bond_atom_site_label_2
_geom_bond_distance
_geom_bond_site_symmetry_2
_ccdc_geom_bond_type
Pr0 C2 2.880 . S
Pr0 O20 2.562 . S
Pr0 O21 2.490 . S
Pr0 O22 2.695 . S
Pr0 O23 2.512 . S
Pr0 O25 2.437 . S
Pr0 O28 2.436 . S
Pr0 O30 2.438 . S
Pr1 C11 2.880 . S
Pr1 O22 2.436 . S
Pr1 O24 2.438 . S
Pr1 O26 2.562 . S
Pr1 O27 2.490 . S
Pr1 O28 2.695 . S
Pr1 O29 2.512 . S
Pr1 O31 2.437 . S
C2 Pr0 2.880 . S
C2 C3 1.491 . S
C2 O20 1.254 . S
C2 O21 1.225 . S
C3 C2 1.491 . S
C3 C4 1.392 . S
C3 C8 1.356 . S
C4 C3 1.392 . S
C4 C5 1.368 . S
C4 H32 0.929 . S
C5 C4 1.368 . S
C5 C6 1.386 . S
C5 H33 0.929 . S
C6 C5 1.386 . S
C6 C7 1.373 . S
C7 C6 1.373 . S
C7 C8 1.409 . S
C7 H34 0.931 . S
C8 C3 1.356 . S
C8 C7 1.409 . S
C8 H35 0.930 . S
C9 O22 1.270 . S
C9 O23 1.248 . S
C10 O24 1.267 . S
C10 O25 1.278 . S
C11 Pr1 2.880 . S
C11 C12 1.491 1_545 S
C11 O26 1.254 . S
C11 O27 1.225 . S
C12 C11 1.491 1_565 S
C12 C13 1.392 . S
C12 C17 1.356 . S
C13 C12 1.392 . S
C13 C14 1.368 . S
C13 H36 0.929 . S
C14 C13 1.368 . S
C14 C15 1.386 . S
C14 H37 0.929 . S
C15 C14 1.386 . S
C15 C16 1.373 . S
C16 C15 1.373 . S
C16 C17 1.409 . S
C16 H38 0.931 . S
C17 C12 1.356 . S
C17 C16 1.409 . S
C17 H39 0.930 . S
C18 O28 1.270 . S
C18 O29 1.248 . S
C19 O30 1.267 . S
C19 O31 1.278 . S
O20 Pr0 2.562 . S
O20 C2 1.254 . S
O21 Pr0 2.490 . S
O21 C2 1.225 . S
O22 Pr0 2.695 . S
O22 Pr1 2.436 . S
O22 C9 1.270 . S
O23 Pr0 2.512 . S
O23 C9 1.248 . S
O24 Pr1 2.438 . S
O24 C10 1.267 . S
O25 Pr0 2.437 . S
O25 C10 1.278 . S
O26 Pr1 2.562 . S
O26 C11 1.254 . S
O27 Pr1 2.490 . S
O27 C11 1.225 . S
O28 Pr0 2.436 . S
O28 Pr1 2.695 . S
O28 C18 1.270 . S
O29 Pr1 2.512 . S
O29 C18 1.248 . S
O30 Pr0 2.438 . S
O30 C19 1.267 . S
O31 Pr1 2.437 . S
O31 C19 1.278 . S
H32 C4 0.929 . S
H33 C5 0.929 . S
H34 C7 0.931 . S
H35 C8 0.930 . S
H36 C13 0.929 . S
H37 C14 0.929 . S
H38 C16 0.931 . S
H39 C17 0.930 . S
Pr40 C42 2.880 . S
Pr40 O60 2.562 . S
Pr40 O61 2.490 . S
Pr40 O62 2.695 . S
Pr40 O63 2.512 . S
Pr40 O65 2.437 . S
Pr40 O68 2.436 . S
Pr40 O70 2.438 . S
Pr41 C51 2.880 . S
Pr41 O62 2.436 . S
Pr41 O64 2.438 . S
Pr41 O66 2.562 . S
Pr41 O67 2.490 . S
Pr41 O68 2.695 . S
Pr41 O69 2.512 . S
Pr41 O71 2.437 . S
C42 Pr40 2.880 . S
C42 C43 1.491 . S
C42 O60 1.254 . S
C42 O61 1.225 . S
C43 C42 1.491 . S
C43 C44 1.392 . S
C43 C48 1.356 . S
C44 C43 1.392 . S
C44 C45 1.368 . S
C44 H72 0.929 . S
C45 C44 1.368 . S
C45 C46 1.386 . S
C45 H73 0.929 . S
C46 C45 1.386 . S
C46 C47 1.373 . S
C47 C46 1.373 . S
C47 C48 1.409 . S
C47 H74 0.931 . S
C48 C43 1.356 . S
C48 C47 1.409 . S
C48 H75 0.930 . S
C49 O62 1.270 . S
C49 O63 1.248 . S
C50 O64 1.267 . S
C50 O65 1.278 . S
C51 Pr41 2.880 . S
C51 C52 1.491 . S
C51 O66 1.254 . S
C51 O67 1.225 . S
C52 C51 1.491 . S
C52 C53 1.392 . S
C52 C57 1.356 . S
C53 C52 1.392 . S
C53 C54 1.368 . S
C53 H76 0.929 . S
C54 C53 1.368 . S
C54 C55 1.386 . S
C54 H77 0.929 . S
C55 C54 1.386 . S
C55 C56 1.373 . S
C56 C55 1.373 . S
C56 C57 1.409 . S
C56 H78 0.931 . S
C57 C52 1.356 . S
C57 C56 1.409 . S
C57 H79 0.930 . S
C58 O68 1.270 . S
C58 O69 1.248 . S
C59 O70 1.267 . S
C59 O71 1.278 . S
O60 Pr40 2.562 . S
O60 C42 1.254 . S
O61 Pr40 2.490 . S
O61 C42 1.225 . S
O62 Pr40 2.695 . S
O62 Pr41 2.436 . S
O62 C49 1.270 . S
O63 Pr40 2.512 . S
O63 C49 1.248 . S
O64 Pr41 2.438 . S
O64 C50 1.267 . S
O65 Pr40 2.437 . S
O65 C50 1.278 . S
O66 Pr41 2.562 . S
O66 C51 1.254 . S
O67 Pr41 2.490 . S
O67 C51 1.225 . S
O68 Pr40 2.436 . S
O68 Pr41 2.695 . S
O68 C58 1.270 . S
O69 Pr41 2.512 . S
O69 C58 1.248 . S
O70 Pr40 2.438 . S
O70 C59 1.267 . S
O71 Pr41 2.437 . S
O71 C59 1.278 . S
H72 C44 0.929 . S
H73 C45 0.929 . S
H74 C47 0.931 . S
H75 C48 0.930 . S
H76 C53 0.929 . S
H77 C54 0.929 . S
H78 C56 0.931 . S
H79 C57 0.930 . S
Pr80 C82 2.880 . S
Pr80 O100 2.562 . S
Pr80 O101 2.490 . S
Pr80 O102 2.695 . S
Pr80 O103 2.512 . S
Pr80 O105 2.437 . S
Pr80 O108 2.436 . S
Pr80 O110 2.438 . S
Pr81 C91 2.880 . S
Pr81 O102 2.436 . S
Pr81 O104 2.438 . S
Pr81 O106 2.562 . S
Pr81 O107 2.490 . S
Pr81 O108 2.695 . S
Pr81 O109 2.512 . S
Pr81 O111 2.437 . S
C82 Pr80 2.880 . S
C82 C83 1.491 . S
C82 O100 1.254 . S
C82 O101 1.225 . S
C83 C82 1.491 . S
C83 C84 1.392 . S
C83 C88 1.356 . S
C84 C83 1.392 . S
C84 C85 1.368 . S
C84 H112 0.929 . S
C85 C84 1.368 . S
C85 C86 1.386 . S
C85 H113 0.929 . S
C86 C85 1.386 . S
C86 C87 1.373 . S
C87 C86 1.373 . S
C87 C88 1.409 . S
C87 H114 0.931 . S
C88 C83 1.356 . S
C88 C87 1.409 . S
C88 H115 0.930 . S
C89 O102 1.270 . S
C89 O103 1.248 . S
C90 O104 1.267 . S
C90 O105 1.278 . S
C91 Pr81 2.880 . S
C91 C92 1.491 1_655 S
C91 O106 1.254 . S
C91 O107 1.225 . S
C92 C91 1.491 1_455 S
C92 C93 1.392 . S
C92 C97 1.356 . S
C93 C92 1.392 . S
C93 C94 1.368 . S
C93 H116 0.929 . S
C94 C93 1.368 . S
C94 C95 1.386 . S
C94 H117 0.929 . S
C95 C94 1.386 . S
C95 C96 1.373 . S
C96 C95 1.373 . S
C96 C97 1.409 . S
C96 H118 0.931 . S
C97 C92 1.356 . S
C97 C96 1.409 . S
C97 H119 0.930 . S
C98 O108 1.270 . S
C98 O109 1.248 . S
C99 O110 1.267 . S
C99 O111 1.278 . S
O100 Pr80 2.562 . S
O100 C82 1.254 . S
O101 Pr80 2.490 . S
O101 C82 1.225 . S
O102 Pr80 2.695 . S
O102 Pr81 2.436 . S
O102 C89 1.270 . S
O103 Pr80 2.512 . S
O103 C89 1.248 . S
O104 Pr81 2.438 . S
O104 C90 1.267 . S
O105 Pr80 2.437 . S
O105 C90 1.278 . S
O106 Pr81 2.562 . S
O106 C91 1.254 . S
O107 Pr81 2.490 . S
O107 C91 1.225 . S
O108 Pr80 2.436 . S
O108 Pr81 2.695 . S
O108 C98 1.270 . S
O109 Pr81 2.512 . S
O109 C98 1.248 . S
O110 Pr80 2.438 . S
O110 C99 1.267 . S
O111 Pr81 2.437 . S
O111 C99 1.278 . S
H112 C84 0.929 . S
H113 C85 0.929 . S
H114 C87 0.931 . S
H115 C88 0.930 . S
H116 C93 0.929 . S
H117 C94 0.929 . S
H118 C96 0.931 . S
H119 C97 0.930 . S
Pr120 C122 2.880 . S
Pr120 O140 2.562 . S
Pr120 O141 2.490 . S
Pr120 O142 2.695 . S
Pr120 O143 2.512 . S
Pr120 O145 2.437 . S
Pr120 O148 2.436 . S
Pr120 O150 2.438 . S
Pr121 C131 2.880 . S
Pr121 O142 2.436 . S
Pr121 O144 2.438 . S
Pr121 O146 2.562 . S
Pr121 O147 2.490 . S
Pr121 O148 2.695 . S
Pr121 O149 2.512 . S
Pr121 O151 2.437 . S
C122 Pr120 2.880 . S
C122 C123 1.491 1_545 S
C122 O140 1.254 . S
C122 O141 1.225 . S
C123 C122 1.491 1_565 S
C123 C124 1.392 . S
C123 C128 1.356 . S
C124 C123 1.392 . S
C124 C125 1.368 . S
C124 H152 0.929 . S
C125 C124 1.368 . S
C125 C126 1.386 . S
C125 H153 0.929 . S
C126 C125 1.386 . S
C126 C127 1.373 . S
C127 C126 1.373 . S
C127 C128 1.409 . S
C127 H154 0.931 . S
C128 C123 1.356 . S
C128 C127 1.409 . S
C128 H155 0.930 . S
C129 O142 1.270 . S
C129 O143 1.248 . S
C130 O144 1.267 . S
C130 O145 1.278 . S
C131 Pr121 2.880 . S
C131 C132 1.491 . S
C131 O146 1.254 . S
C131 O147 1.225 . S
C132 C131 1.491 . S
C132 C133 1.392 . S
C132 C137 1.356 . S
C133 C132 1.392 . S
C133 C134 1.368 . S
C133 H156 0.929 . S
C134 C133 1.368 . S
C134 C135 1.386 . S
C134 H157 0.929 . S
C135 C134 1.386 . S
C135 C136 1.373 . S
C136 C135 1.373 . S
C136 C137 1.409 . S
C136 H158 0.931 . S
C137 C132 1.356 . S
C137 C136 1.409 . S
C137 H159 0.930 . S
C138 O148 1.270 . S
C138 O149 1.248 . S
C139 O150 1.267 . S
C139 O151 1.278 . S
O140 Pr120 2.562 . S
O140 C122 1.254 . S
O141 Pr120 2.490 . S
O141 C122 1.225 . S
O142 Pr120 2.695 . S
O142 Pr121 2.436 . S
O142 C129 1.270 . S
O143 Pr120 2.512 . S
O143 C129 1.248 . S
O144 Pr121 2.438 . S
O144 C130 1.267 . S
O145 Pr120 2.437 . S
O145 C130 1.278 . S
O146 Pr121 2.562 . S
O146 C131 1.254 . S
O147 Pr121 2.490 . S
O147 C131 1.225 . S
O148 Pr120 2.436 . S
O148 Pr121 2.695 . S
O148 C138 1.270 . S
O149 Pr121 2.512 . S
O149 C138 1.248 . S
O150 Pr120 2.438 . S
O150 C139 1.267 . S
O151 Pr121 2.437 . S
O151 C139 1.278 . S
H152 C124 0.929 . S
H153 C125 0.929 . S
H154 C127 0.931 . S
H155 C128 0.930 . S
H156 C133 0.929 . S
H157 C134 0.929 . S
H158 C136 0.931 . S
H159 C137 0.930 . S
Pr160 C162 2.880 . S
Pr160 O180 2.562 . S
Pr160 O181 2.490 . S
Pr160 O182 2.695 . S
Pr160 O183 2.512 . S
Pr160 O185 2.437 . S
Pr160 O188 2.436 . S
Pr160 O190 2.438 . S
Pr161 C171 2.880 . S
Pr161 O182 2.436 . S
Pr161 O184 2.438 . S
Pr161 O186 2.562 . S
Pr161 O187 2.490 . S
Pr161 O188 2.695 . S
Pr161 O189 2.512 . S
Pr161 O191 2.437 . S
C162 Pr160 2.880 . S
C162 C163 1.491 . S
C162 O180 1.254 . S
C162 O181 1.225 . S
C163 C162 1.491 . S
C163 C164 1.392 . S
C163 C168 1.356 . S
C164 C163 1.392 . S
C164 C165 1.368 . S
C164 H192 0.929 . S
C165 C164 1.368 . S
C165 C166 1.386 . S
C165 H193 0.929 . S
C166 C165 1.386 . S
C166 C167 1.373 . S
C167 C166 1.373 . S
C167 C168 1.409 . S
C167 H194 0.931 . S
C168 C163 1.356 . S
C168 C167 1.409 . S
C168 H195 0.930 . S
C169 O182 1.270 . S
C169 O183 1.248 . S
C170 O184 1.267 . S
C170 O185 1.278 . S
C171 Pr161 2.880 . S
C171 C172 1.491 . S
C171 O186 1.254 . S
C171 O187 1.225 . S
C172 C171 1.491 . S
C172 C173 1.392 . S
C172 C177 1.356 . S
C173 C172 1.392 . S
C173 C174 1.368 . S
C173 H196 0.929 . S
C174 C173 1.368 . S
C174 C175 1.386 . S
C174 H197 0.929 . S
C175 C174 1.386 . S
C175 C176 1.373 . S
C176 C175 1.373 . S
C176 C177 1.409 . S
C176 H198 0.931 . S
C177 C172 1.356 . S
C177 C176 1.409 . S
C177 H199 0.930 . S
C178 O188 1.270 . S
C178 O189 1.248 . S
C179 O190 1.267 . S
C179 O191 1.278 . S
O180 Pr160 2.562 . S
O180 C162 1.254 . S
O181 Pr160 2.490 . S
O181 C162 1.225 . S
O182 Pr160 2.695 . S
O182 Pr161 2.436 . S
O182 C169 1.270 . S
O183 Pr160 2.512 . S
O183 C169 1.248 . S
O184 Pr161 2.438 . S
O184 C170 1.267 . S
O185 Pr160 2.437 . S
O185 C170 1.278 . S
O186 Pr161 2.562 . S
O186 C171 1.254 . S
O187 Pr161 2.490 . S
O187 C171 1.225 . S
O188 Pr160 2.436 . S
O188 Pr161 2.695 . S
O188 C178 1.270 . S
O189 Pr161 2.512 . S
O189 C178 1.248 . S
O190 Pr160 2.438 . S
O190 C179 1.267 . S
O191 Pr161 2.437 . S
O191 C179 1.278 . S
H192 C164 0.929 . S
H193 C165 0.929 . S
H194 C167 0.931 . S
H195 C168 0.930 . S
H196 C173 0.929 . S
H197 C174 0.929 . S
H198 C176 0.931 . S
H199 C177 0.930 . S
Pr200 C202 2.880 . S
Pr200 O220 2.562 . S
Pr200 O221 2.490 . S
Pr200 O222 2.695 . S
Pr200 O223 2.512 . S
Pr200 O225 2.437 . S
Pr200 O228 2.436 . S
Pr200 O230 2.438 . S
Pr201 C211 2.880 . S
Pr201 O222 2.436 . S
Pr201 O224 2.438 . S
Pr201 O226 2.562 . S
Pr201 O227 2.490 . S
Pr201 O228 2.695 . S
Pr201 O229 2.512 . S
Pr201 O231 2.437 . S
C202 Pr200 2.880 . S
C202 C203 1.491 1_655 S
C202 O220 1.254 . S
C202 O221 1.225 . S
C203 C202 1.491 1_455 S
C203 C204 1.392 . S
C203 C208 1.356 . S
C204 C203 1.392 . S
C204 C205 1.368 . S
C204 H232 0.929 . S
C205 C204 1.368 . S
C205 C206 1.386 . S
C205 H233 0.929 . S
C206 C205 1.386 . S
C206 C207 1.373 . S
C207 C206 1.373 . S
C207 C208 1.409 . S
C207 H234 0.931 . S
C208 C203 1.356 . S
C208 C207 1.409 . S
C208 H235 0.930 . S
C209 O222 1.270 . S
C209 O223 1.248 . S
C210 O224 1.267 . S
C210 O225 1.278 . S
C211 Pr201 2.880 . S
C211 C212 1.491 . S
C211 O226 1.254 . S
C211 O227 1.225 . S
C212 C211 1.491 . S
C212 C213 1.392 . S
C212 C217 1.356 . S
C213 C212 1.392 . S
C213 C214 1.368 . S
C213 H236 0.929 . S
C214 C213 1.368 . S
C214 C215 1.386 . S
C214 H237 0.929 . S
C215 C214 1.386 . S
C215 C216 1.373 . S
C216 C215 1.373 . S
C216 C217 1.409 . S
C216 H238 0.931 . S
C217 C212 1.356 . S
C217 C216 1.409 . S
C217 H239 0.930 . S
C218 O228 1.270 . S
C218 O229 1.248 . S
C219 O230 1.267 . S
C219 O231 1.278 . S
O220 Pr200 2.562 . S
O220 C202 1.254 . S
O221 Pr200 2.490 . S
O221 C202 1.225 . S
O222 Pr200 2.695 . S
O222 Pr201 2.436 . S
O222 C209 1.270 . S
O223 Pr200 2.512 . S
O223 C209 1.248 . S
O224 Pr201 2.438 . S
O224 C210 1.267 . S
O225 Pr200 2.437 . S
O225 C210 1.278 . S
O226 Pr201 2.562 . S
O226 C211 1.254 . S
O227 Pr201 2.490 . S
O227 C211 1.225 . S
O228 Pr200 2.436 . S
O228 Pr201 2.695 . S
O228 C218 1.270 . S
O229 Pr201 2.512 . S
O229 C218 1.248 . S
O230 Pr200 2.438 . S
O230 C219 1.267 . S
O231 Pr201 2.437 . S
O231 C219 1.278 . S
H232 C204 0.929 . S
H233 C205 0.929 . S
H234 C207 0.931 . S
H235 C208 0.930 . S
H236 C213 0.929 . S
H237 C214 0.929 . S
H238 C216 0.931 . S
H239 C217 0.930 . S
Pr240 C242 2.880 . S
Pr240 O260 2.562 . S
Pr240 O261 2.490 . S
Pr240 O262 2.695 . S
Pr240 O263 2.512 . S
Pr240 O265 2.437 . S
Pr240 O268 2.436 . S
Pr240 O270 2.438 . S
Pr241 C251 2.880 . S
Pr241 O262 2.436 . S
Pr241 O264 2.438 . S
Pr241 O266 2.562 . S
Pr241 O267 2.490 . S
Pr241 O268 2.695 . S
Pr241 O269 2.512 . S
Pr241 O271 2.437 . S
C242 Pr240 2.880 . S
C242 C243 1.491 1_455 S
C242 O260 1.254 . S
C242 O261 1.225 . S
C243 C242 1.491 1_655 S
C243 C244 1.392 . S
C243 C248 1.356 . S
C244 C243 1.392 . S
C244 C245 1.368 . S
C244 H272 0.929 . S
C245 C244 1.368 . S
C245 C246 1.386 . S
C245 H273 0.929 . S
C246 C245 1.386 . S
C246 C247 1.373 . S
C247 C246 1.373 . S
C247 C248 1.409 . S
C247 H274 0.931 . S
C248 C243 1.356 . S
C248 C247 1.409 . S
C248 H275 0.930 . S
C249 O262 1.270 . S
C249 O263 1.248 . S
C250 O264 1.267 . S
C250 O265 1.278 . S
C251 Pr241 2.880 . S
C251 C252 1.491 . S
C251 O266 1.254 . S
C251 O267 1.225 . S
C252 C251 1.491 . S
C252 C253 1.392 . S
C252 C257 1.356 . S
C253 C252 1.392 . S
C253 C254 1.368 . S
C253 H276 0.929 . S
C254 C253 1.368 . S
C254 C255 1.386 . S
C254 H277 0.929 . S
C255 C254 1.386 . S
C255 C256 1.373 . S
C256 C255 1.373 . S
C256 C257 1.409 . S
C256 H278 0.931 . S
C257 C252 1.356 . S
C257 C256 1.409 . S
C257 H279 0.930 . S
C258 O268 1.270 . S
C258 O269 1.248 . S
C259 O270 1.267 . S
C259 O271 1.278 . S
O260 Pr240 2.562 . S
O260 C242 1.254 . S
O261 Pr240 2.490 . S
O261 C242 1.225 . S
O262 Pr240 2.695 . S
O262 Pr241 2.436 . S
O262 C249 1.270 . S
O263 Pr240 2.512 . S
O263 C249 1.248 . S
O264 Pr241 2.438 . S
O264 C250 1.267 . S
O265 Pr240 2.437 . S
O265 C250 1.278 . S
O266 Pr241 2.562 . S
O266 C251 1.254 . S
O267 Pr241 2.490 . S
O267 C251 1.225 . S
O268 Pr240 2.436 . S
O268 Pr241 2.695 . S
O268 C258 1.270 . S
O269 Pr241 2.512 . S
O269 C258 1.248 . S
O270 Pr240 2.438 . S
O270 C259 1.267 . S
O271 Pr241 2.437 . S
O271 C259 1.278 . S
H272 C244 0.929 . S
H273 C245 0.929 . S
H274 C247 0.931 . S
H275 C248 0.930 . S
H276 C253 0.929 . S
H277 C254 0.929 . S
H278 C256 0.931 . S
H279 C257 0.930 . S
Pr280 C282 2.880 . S
Pr280 O300 2.562 . S
Pr280 O301 2.490 . S
Pr280 O302 2.695 . S
Pr280 O303 2.512 . S
Pr280 O305 2.437 . S
Pr280 O308 2.436 . S
Pr280 O310 2.438 . S
Pr281 C291 2.880 . S
Pr281 O302 2.436 . S
Pr281 O304 2.438 . S
Pr281 O306 2.562 . S
Pr281 O307 2.490 . S
Pr281 O308 2.695 . S
Pr281 O309 2.512 . S
Pr281 O311 2.437 . S
C282 Pr280 2.880 . S
C282 C283 1.491 . S
C282 O300 1.254 . S
C282 O301 1.225 . S
C283 C282 1.491 . S
C283 C284 1.392 . S
C283 C288 1.356 . S
C284 C283 1.392 . S
C284 C285 1.368 . S
C284 H312 0.929 . S
C285 C284 1.368 . S
C285 C286 1.386 . S
C285 H313 0.929 . S
C286 C285 1.386 . S
C286 C287 1.373 . S
C287 C286 1.373 . S
C287 C288 1.409 . S
C287 H314 0.931 . S
C288 C283 1.356 . S
C288 C287 1.409 . S
C288 H315 0.930 . S
C289 O302 1.270 . S
C289 O303 1.248 . S
C290 O304 1.267 . S
C290 O305 1.278 . S
C291 Pr281 2.880 . S
C291 C292 1.491 1_565 S
C291 O306 1.254 . S
C291 O307 1.225 . S
C292 C291 1.491 1_545 S
C292 C293 1.392 . S
C292 C297 1.356 . S
C293 C292 1.392 . S
C293 C294 1.368 . S
C293 H316 0.929 . S
C294 C293 1.368 . S
C294 C295 1.386 . S
C294 H317 0.929 . S
C295 C294 1.386 . S
C295 C296 1.373 . S
C296 C295 1.373 . S
C296 C297 1.409 . S
C296 H318 0.931 . S
C297 C292 1.356 . S
C297 C296 1.409 . S
C297 H319 0.930 . S
C298 O308 1.270 . S
C298 O309 1.248 . S
C299 O310 1.267 . S
C299 O311 1.278 . S
O300 Pr280 2.562 . S
O300 C282 1.254 . S
O301 Pr280 2.490 . S
O301 C282 1.225 . S
O302 Pr280 2.695 . S
O302 Pr281 2.436 . S
O302 C289 1.270 . S
O303 Pr280 2.512 . S
O303 C289 1.248 . S
O304 Pr281 2.438 . S
O304 C290 1.267 . S
O305 Pr280 2.437 . S
O305 C290 1.278 . S
O306 Pr281 2.562 . S
O306 C291 1.254 . S
O307 Pr281 2.490 . S
O307 C291 1.225 . S
O308 Pr280 2.436 . S
O308 Pr281 2.695 . S
O308 C298 1.270 . S
O309 Pr281 2.512 . S
O309 C298 1.248 . S
O310 Pr280 2.438 . S
O310 C299 1.267 . S
O311 Pr281 2.437 . S
O311 C299 1.278 . S
H312 C284 0.929 . S
H313 C285 0.929 . S
H314 C287 0.931 . S
H315 C288 0.930 . S
H316 C293 0.929 . S
H317 C294 0.929 . S
H318 C296 0.931 . S
H319 C297 0.930 . S
Pr320 C322 2.880 . S
Pr320 O340 2.562 . S
Pr320 O341 2.490 . S
Pr320 O342 2.695 . S
Pr320 O343 2.512 . S
Pr320 O345 2.437 . S
Pr320 O348 2.436 . S
Pr320 O350 2.438 . S
Pr321 C331 2.880 . S
Pr321 O342 2.436 . S
Pr321 O344 2.438 . S
Pr321 O346 2.562 . S
Pr321 O347 2.490 . S
Pr321 O348 2.695 . S
Pr321 O349 2.512 . S
Pr321 O351 2.437 . S
C322 Pr320 2.880 . S
C322 C323 1.491 . S
C322 O340 1.254 . S
C322 O341 1.225 . S
C323 C322 1.491 . S
C323 C324 1.392 . S
C323 C328 1.356 . S
C324 C323 1.392 . S
C324 C325 1.368 . S
C324 H352 0.929 . S
C325 C324 1.368 . S
C325 C326 1.386 . S
C325 H353 0.929 . S
C326 C325 1.386 . S
C326 C327 1.373 . S
C327 C326 1.373 . S
C327 C328 1.409 . S
C327 H354 0.931 . S
C328 C323 1.356 . S
C328 C327 1.409 . S
C328 H355 0.930 . S
C329 O342 1.270 . S
C329 O343 1.248 . S
C330 O344 1.267 . S
C330 O345 1.278 . S
C331 Pr321 2.880 . S
C331 C332 1.491 . S
C331 O346 1.254 . S
C331 O347 1.225 . S
C332 C331 1.491 . S
C332 C333 1.392 . S
C332 C337 1.356 . S
C333 C332 1.392 . S
C333 C334 1.368 . S
C333 H356 0.929 . S
C334 C333 1.368 . S
C334 C335 1.386 . S
C334 H357 0.929 . S
C335 C334 1.386 . S
C335 C336 1.373 . S
C336 C335 1.373 . S
C336 C337 1.409 . S
C336 H358 0.931 . S
C337 C332 1.356 . S
C337 C336 1.409 . S
C337 H359 0.930 . S
C338 O348 1.270 . S
C338 O349 1.248 . S
C339 O350 1.267 . S
C339 O351 1.278 . S
O340 Pr320 2.562 . S
O340 C322 1.254 . S
O341 Pr320 2.490 . S
O341 C322 1.225 . S
O342 Pr320 2.695 . S
O342 Pr321 2.436 . S
O342 C329 1.270 . S
O343 Pr320 2.512 . S
O343 C329 1.248 . S
O344 Pr321 2.438 . S
O344 C330 1.267 . S
O345 Pr320 2.437 . S
O345 C330 1.278 . S
O346 Pr321 2.562 . S
O346 C331 1.254 . S
O347 Pr321 2.490 . S
O347 C331 1.225 . S
O348 Pr320 2.436 . S
O348 Pr321 2.695 . S
O348 C338 1.270 . S
O349 Pr321 2.512 . S
O349 C338 1.248 . S
O350 Pr320 2.438 . S
O350 C339 1.267 . S
O351 Pr321 2.437 . S
O351 C339 1.278 . S
H352 C324 0.929 . S
H353 C325 0.929 . S
H354 C327 0.931 . S
H355 C328 0.930 . S
H356 C333 0.929 . S
H357 C334 0.929 . S
H358 C336 0.931 . S
H359 C337 0.930 . S
Pr360 C362 2.880 . S
Pr360 O380 2.562 . S
Pr360 O381 2.490 . S
Pr360 O382 2.695 . S
Pr360 O383 2.512 . S
Pr360 O385 2.437 . S
Pr360 O388 2.436 . S
Pr360 O390 2.438 . S
Pr361 C371 2.880 . S
Pr361 O382 2.436 . S
Pr361 O384 2.438 . S
Pr361 O386 2.562 . S
Pr361 O387 2.490 . S
Pr361 O388 2.695 . S
Pr361 O389 2.512 . S
Pr361 O391 2.437 . S
C362 Pr360 2.880 . S
C362 C363 1.491 . S
C362 O380 1.254 . S
C362 O381 1.225 . S
C363 C362 1.491 . S
C363 C364 1.392 . S
C363 C368 1.356 . S
C364 C363 1.392 . S
C364 C365 1.368 . S
C364 H392 0.929 . S
C365 C364 1.368 . S
C365 C366 1.386 . S
C365 H393 0.929 . S
C366 C365 1.386 . S
C366 C367 1.373 . S
C367 C366 1.373 . S
C367 C368 1.409 . S
C367 H394 0.931 . S
C368 C363 1.356 . S
C368 C367 1.409 . S
C368 H395 0.930 . S
C369 O382 1.270 . S
C369 O383 1.248 . S
C370 O384 1.267 . S
C370 O385 1.278 . S
C371 Pr361 2.880 . S
C371 C372 1.491 1_455 S
C371 O386 1.254 . S
C371 O387 1.225 . S
C372 C371 1.491 1_655 S
C372 C373 1.392 . S
C372 C377 1.356 . S
C373 C372 1.392 . S
C373 C374 1.368 . S
C373 H396 0.929 . S
C374 C373 1.368 . S
C374 C375 1.386 . S
C374 H397 0.929 . S
C375 C374 1.386 . S
C375 C376 1.373 . S
C376 C375 1.373 . S
C376 C377 1.409 . S
C376 H398 0.931 . S
C377 C372 1.356 . S
C377 C376 1.409 . S
C377 H399 0.930 . S
C378 O388 1.270 . S
C378 O389 1.248 . S
C379 O390 1.267 . S
C379 O391 1.278 . S
O380 Pr360 2.562 . S
O380 C362 1.254 . S
O381 Pr360 2.490 . S
O381 C362 1.225 . S
O382 Pr360 2.695 . S
O382 Pr361 2.436 . S
O382 C369 1.270 . S
O383 Pr360 2.512 . S
O383 C369 1.248 . S
O384 Pr361 2.438 . S
O384 C370 1.267 . S
O385 Pr360 2.437 . S
O385 C370 1.278 . S
O386 Pr361 2.562 . S
O386 C371 1.254 . S
O387 Pr361 2.490 . S
O387 C371 1.225 . S
O388 Pr360 2.436 . S
O388 Pr361 2.695 . S
O388 C378 1.270 . S
O389 Pr361 2.512 . S
O389 C378 1.248 . S
O390 Pr360 2.438 . S
O390 C379 1.267 . S
O391 Pr361 2.437 . S
O391 C379 1.278 . S
H392 C364 0.929 . S
H393 C365 0.929 . S
H394 C367 0.931 . S
H395 C368 0.930 . S
H396 C373 0.929 . S
H397 C374 0.929 . S
H398 C376 0.931 . S
H399 C377 0.930 . S
Pr400 C402 2.880 . S
Pr400 O420 2.562 . S
Pr400 O421 2.490 . S
Pr400 O422 2.695 . S
Pr400 O423 2.512 . S
Pr400 O425 2.437 . S
Pr400 O428 2.436 . S
Pr400 O430 2.438 . S
Pr401 C411 2.880 . S
Pr401 O422 2.436 . S
Pr401 O424 2.438 . S
Pr401 O426 2.562 . S
Pr401 O427 2.490 . S
Pr401 O428 2.695 . S
Pr401 O429 2.512 . S
Pr401 O431 2.437 . S
C402 Pr400 2.880 . S
C402 C403 1.491 1_565 S
C402 O420 1.254 . S
C402 O421 1.225 . S
C403 C402 1.491 1_545 S
C403 C404 1.392 . S
C403 C408 1.356 . S
C404 C403 1.392 . S
C404 C405 1.368 . S
C404 H432 0.929 . S
C405 C404 1.368 . S
C405 C406 1.386 . S
C405 H433 0.929 . S
C406 C405 1.386 . S
C406 C407 1.373 . S
C407 C406 1.373 . S
C407 C408 1.409 . S
C407 H434 0.931 . S
C408 C403 1.356 . S
C408 C407 1.409 . S
C408 H435 0.930 . S
C409 O422 1.270 . S
C409 O423 1.248 . S
C410 O424 1.267 . S
C410 O425 1.278 . S
C411 Pr401 2.880 . S
C411 C412 1.491 . S
C411 O426 1.254 . S
C411 O427 1.225 . S
C412 C411 1.491 . S
C412 C413 1.392 . S
C412 C417 1.356 . S
C413 C412 1.392 . S
C413 C414 1.368 . S
C413 H436 0.929 . S
C414 C413 1.368 . S
C414 C415 1.386 . S
C414 H437 0.929 . S
C415 C414 1.386 . S
C415 C416 1.373 . S
C416 C415 1.373 . S
C416 C417 1.409 . S
C416 H438 0.931 . S
C417 C412 1.356 . S
C417 C416 1.409 . S
C417 H439 0.930 . S
C418 O428 1.270 . S
C418 O429 1.248 . S
C419 O430 1.267 . S
C419 O431 1.278 . S
O420 Pr400 2.562 . S
O420 C402 1.254 . S
O421 Pr400 2.490 . S
O421 C402 1.225 . S
O422 Pr400 2.695 . S
O422 Pr401 2.436 . S
O422 C409 1.270 . S
O423 Pr400 2.512 . S
O423 C409 1.248 . S
O424 Pr401 2.438 . S
O424 C410 1.267 . S
O425 Pr400 2.437 . S
O425 C410 1.278 . S
O426 Pr401 2.562 . S
O426 C411 1.254 . S
O427 Pr401 2.490 . S
O427 C411 1.225 . S
O428 Pr400 2.436 . S
O428 Pr401 2.695 . S
O428 C418 1.270 . S
O429 Pr401 2.512 . S
O429 C418 1.248 . S
O430 Pr400 2.438 . S
O430 C419 1.267 . S
O431 Pr401 2.437 . S
O431 C419 1.278 . S
H432 C404 0.929 . S
H433 C405 0.929 . S
H434 C407 0.931 . S
H435 C408 0.930 . S
H436 C413 0.929 . S
H437 C414 0.929 . S
H438 C416 0.931 . S
H439 C417 0.930 . S
Pr440 C442 2.880 . S
Pr440 O460 2.562 . S
Pr440 O461 2.490 . S
Pr440 O462 2.695 . S
Pr440 O463 2.512 . S
Pr440 O465 2.437 . S
Pr440 O468 2.436 . S
Pr440 O470 2.438 . S
Pr441 C451 2.880 . S
Pr441 O462 2.436 . S
Pr441 O464 2.438 . S
Pr441 O466 2.562 . S
Pr441 O467 2.490 . S
Pr441 O468 2.695 . S
Pr441 O469 2.512 . S
Pr441 O471 2.437 . S
C442 Pr440 2.880 . S
C442 C443 1.491 . S
C442 O460 1.254 . S
C442 O461 1.225 . S
C443 C442 1.491 . S
C443 C444 1.392 . S
C443 C448 1.356 . S
C444 C443 1.392 . S
C444 C445 1.368 . S
C444 H472 0.929 . S
C445 C444 1.368 . S
C445 C446 1.386 . S
C445 H473 0.929 . S
C446 C445 1.386 . S
C446 C447 1.373 . S
C447 C446 1.373 . S
C447 C448 1.409 . S
C447 H474 0.931 . S
C448 C443 1.356 . S
C448 C447 1.409 . S
C448 H475 0.930 . S
C449 O462 1.270 . S
C449 O463 1.248 . S
C450 O464 1.267 . S
C450 O465 1.278 . S
C451 Pr441 2.880 . S
C451 C452 1.491 . S
C451 O466 1.254 . S
C451 O467 1.225 . S
C452 C451 1.491 . S
C452 C453 1.392 . S
C452 C457 1.356 . S
C453 C452 1.392 . S
C453 C454 1.368 . S
C453 H476 0.929 . S
C454 C453 1.368 . S
C454 C455 1.386 . S
C454 H477 0.929 . S
C455 C454 1.386 . S
C455 C456 1.373 . S
C456 C455 1.373 . S
C456 C457 1.409 . S
C456 H478 0.931 . S
C457 C452 1.356 . S
C457 C456 1.409 . S
C457 H479 0.930 . S
C458 O468 1.270 . S
C458 O469 1.248 . S
C459 O470 1.267 . S
C459 O471 1.278 . S
O460 Pr440 2.562 . S
O460 C442 1.254 . S
O461 Pr440 2.490 . S
O461 C442 1.225 . S
O462 Pr440 2.695 . S
O462 Pr441 2.436 . S
O462 C449 1.270 . S
O463 Pr440 2.512 . S
O463 C449 1.248 . S
O464 Pr441 2.438 . S
O464 C450 1.267 . S
O465 Pr440 2.437 . S
O465 C450 1.278 . S
O466 Pr441 2.562 . S
O466 C451 1.254 . S
O467 Pr441 2.490 . S
O467 C451 1.225 . S
O468 Pr440 2.436 . S
O468 Pr441 2.695 . S
O468 C458 1.270 . S
O469 Pr441 2.512 . S
O469 C458 1.248 . S
O470 Pr440 2.438 . S
O470 C459 1.267 . S
O471 Pr441 2.437 . S
O471 C459 1.278 . S
H472 C444 0.929 . S
H473 C445 0.929 . S
H474 C447 0.931 . S
H475 C448 0.930 . S
H476 C453 0.929 . S
H477 C454 0.929 . S
H478 C456 0.931 . S
H479 C457 0.930 . S
H480 C492 0.930 . S
H481 C494 0.930 . S
H482 C495 0.930 . S
H483 C499 0.959 . S
H484 C499 0.959 . S
H485 C499 0.961 . S
H486 C500 0.960 . S
H487 C500 0.961 . S
H488 C500 0.959 . S
H489 C503 0.929 . S
H490 C504 0.931 . S
H491 C506 0.930 . S
C492 H480 0.930 . S
C492 C493 1.399 . S
C492 C497 1.399 . S
C493 C492 1.399 . S
C493 C494 1.376 . S
C494 H481 0.930 . S
C494 C493 1.376 . S
C494 C495 1.388 . S
C495 H482 0.930 . S
C495 C494 1.388 . S
C495 C496 1.390 . S
C496 C495 1.390 . S
C496 C497 1.394 . S
C496 C502 1.465 . S
C497 C492 1.399 . S
C497 C496 1.394 . S
C497 C498 1.516 . S
C498 C497 1.516 . S
C498 C499 1.502 . S
C498 C500 1.561 . S
C498 C501 1.526 . S
C499 H483 0.959 . S
C499 H484 0.959 . S
C499 H485 0.961 . S
C499 C498 1.502 . S
C500 H486 0.960 . S
C500 H487 0.961 . S
C500 H488 0.959 . S
C500 C498 1.561 . S
C501 C498 1.526 . S
C501 C502 1.396 . S
C501 C506 1.390 . S
C502 C496 1.465 . S
C502 C501 1.396 . S
C502 C503 1.399 . S
C503 H489 0.929 . S
C503 C502 1.399 . S
C503 C504 1.385 . S
C504 H490 0.931 . S
C504 C503 1.385 . S
C504 C505 1.389 . S
C505 C504 1.389 . S
C505 C506 1.387 . S
C506 H491 0.930 . S
C506 C501 1.390 . S
C506 C505 1.387 . S
H507 C519 0.930 . S
H508 C521 0.930 . S
H509 C522 0.930 . S
H510 C526 0.959 . S
H511 C526 0.959 . S
H512 C526 0.961 . S
H513 C527 0.960 . S
H514 C527 0.961 . S
H515 C527 0.959 . S
H516 C530 0.929 . S
H517 C531 0.931 . S
H518 C533 0.930 . S
C519 H507 0.930 . S
C519 C520 1.399 . S
C519 C524 1.399 . S
C520 C519 1.399 . S
C520 C521 1.376 . S
C521 H508 0.930 . S
C521 C520 1.376 . S
C521 C522 1.388 . S
C522 H509 0.930 . S
C522 C521 1.388 . S
C522 C523 1.390 . S
C523 C522 1.390 . S
C523 C524 1.394 . S
C523 C529 1.465 1_455 S
C524 C519 1.399 . S
C524 C523 1.394 . S
C524 C525 1.516 1_455 S
C525 C524 1.516 1_655 S
C525 C526 1.502 . S
C525 C527 1.561 . S
C525 C528 1.526 . S
C526 H510 0.959 . S
C526 H511 0.959 . S
C526 H512 0.961 . S
C526 C525 1.502 . S
C527 H513 0.960 . S
C527 H514 0.961 . S
C527 H515 0.959 . S
C527 C525 1.561 . S
C528 C525 1.526 . S
C528 C529 1.396 . S
C528 C533 1.390 . S
C529 C523 1.465 1_655 S
C529 C528 1.396 . S
C529 C530 1.399 . S
C530 H516 0.929 . S
C530 C529 1.399 . S
C530 C531 1.385 . S
C531 H517 0.931 . S
C531 C530 1.385 . S
C531 C532 1.389 . S
C532 C531 1.389 . S
C532 C533 1.387 . S
C533 H518 0.930 . S
C533 C528 1.390 . S
C533 C532 1.387 . S
H534 C546 0.930 . S
H535 C548 0.930 . S
H536 C549 0.930 . S
H537 C553 0.959 1_565 S
H538 C553 0.959 1_565 S
H539 C553 0.961 . S
H540 C554 0.960 . S
H541 C554 0.961 . S
H542 C554 0.959 . S
H543 C557 0.929 . S
H544 C558 0.931 . S
H545 C560 0.930 . S
C546 H534 0.930 . S
C546 C547 1.399 . S
C546 C551 1.399 . S
C547 C546 1.399 . S
C547 C548 1.376 . S
C548 H535 0.930 . S
C548 C547 1.376 . S
C548 C549 1.388 . S
C549 H536 0.930 . S
C549 C548 1.388 . S
C549 C550 1.390 . S
C550 C549 1.390 . S
C550 C551 1.394 . S
C550 C556 1.465 1_545 S
C551 C546 1.399 . S
C551 C550 1.394 . S
C551 C552 1.516 . S
C552 C551 1.516 . S
C552 C553 1.502 . S
C552 C554 1.561 . S
C552 C555 1.526 1_545 S
C553 H537 0.959 1_545 S
C553 H538 0.959 1_545 S
C553 H539 0.961 . S
C553 C552 1.502 . S
C554 H540 0.960 . S
C554 H541 0.961 . S
C554 H542 0.959 . S
C554 C552 1.561 . S
C555 C552 1.526 1_565 S
C555 C556 1.396 . S
C555 C560 1.390 . S
C556 C550 1.465 1_565 S
C556 C555 1.396 . S
C556 C557 1.399 . S
C557 H543 0.929 . S
C557 C556 1.399 . S
C557 C558 1.385 . S
C558 H544 0.931 . S
C558 C557 1.385 . S
C558 C559 1.389 . S
C559 C558 1.389 . S
C559 C560 1.387 . S
C560 H545 0.930 . S
C560 C555 1.390 . S
C560 C559 1.387 . S
H561 C573 0.930 . S
H562 C575 0.930 . S
H563 C576 0.930 . S
H564 C580 0.959 . S
H565 C580 0.959 . S
H566 C580 0.961 . S
H567 C581 0.960 . S
H568 C581 0.961 . S
H569 C581 0.959 . S
H570 C584 0.929 . S
H571 C585 0.931 . S
H572 C587 0.930 . S
C573 H561 0.930 . S
C573 C574 1.399 . S
C573 C578 1.399 . S
C574 C573 1.399 . S
C574 C575 1.376 . S
C575 H562 0.930 . S
C575 C574 1.376 . S
C575 C576 1.388 . S
C576 H563 0.930 . S
C576 C575 1.388 . S
C576 C577 1.390 . S
C577 C576 1.390 . S
C577 C578 1.394 . S
C577 C583 1.465 . S
C578 C573 1.399 . S
C578 C577 1.394 . S
C578 C579 1.516 . S
C579 C578 1.516 . S
C579 C580 1.502 . S
C579 C581 1.561 . S
C579 C582 1.526 . S
C580 H564 0.959 . S
C580 H565 0.959 . S
C580 H566 0.961 . S
C580 C579 1.502 . S
C581 H567 0.960 . S
C581 H568 0.961 . S
C581 H569 0.959 . S
C581 C579 1.561 . S
C582 C579 1.526 . S
C582 C583 1.396 . S
C582 C587 1.390 . S
C583 C577 1.465 . S
C583 C582 1.396 . S
C583 C584 1.399 . S
C584 H570 0.929 . S
C584 C583 1.399 . S
C584 C585 1.385 . S
C585 H571 0.931 . S
C585 C584 1.385 . S
C585 C586 1.389 . S
C586 C585 1.389 . S
C586 C587 1.387 . S
C587 H572 0.930 . S
C587 C582 1.390 . S
C587 C586 1.387 . S
H588 C600 0.930 . S
H589 C602 0.930 . S
H590 C603 0.930 . S
H591 C607 0.959 . S
H592 C607 0.959 . S
H593 C607 0.961 1_455 S
H594 C608 0.960 . S
H595 C608 0.961 1_655 S
H596 C608 0.959 . S
H597 C611 0.929 . S
H598 C612 0.931 . S
H599 C614 0.930 . S
C600 H588 0.930 . S
C600 C601 1.399 . S
C600 C605 1.399 . S
C601 C600 1.399 . S
C601 C602 1.376 . S
C602 H589 0.930 . S
C602 C601 1.376 . S
C602 C603 1.388 . S
C603 H590 0.930 . S
C603 C602 1.388 . S
C603 C604 1.390 . S
C604 C603 1.390 . S
C604 C605 1.394 . S
C604 C610 1.465 1_455 S
C605 C600 1.399 . S
C605 C604 1.394 . S
C605 C606 1.516 1_455 S
C606 C605 1.516 1_655 S
C606 C607 1.502 . S
C606 C608 1.561 1_655 S
C606 C609 1.526 . S
C607 H591 0.959 . S
C607 H592 0.959 . S
C607 H593 0.961 1_655 S
C607 C606 1.502 . S
C608 H594 0.960 . S
C608 H595 0.961 1_455 S
C608 H596 0.959 . S
C608 C606 1.561 1_455 S
C609 C606 1.526 . S
C609 C610 1.396 . S
C609 C614 1.390 . S
C610 C604 1.465 1_655 S
C610 C609 1.396 . S
C610 C611 1.399 . S
C611 H597 0.929 . S
C611 C610 1.399 . S
C611 C612 1.385 . S
C612 H598 0.931 . S
C612 C611 1.385 . S
C612 C613 1.389 . S
C613 C612 1.389 . S
C613 C614 1.387 . S
C614 H599 0.930 . S
C614 C609 1.390 . S
C614 C613 1.387 . S
H615 C627 0.930 . S
H616 C629 0.930 . S
H617 C630 0.930 . S
H618 C634 0.959 . S
H619 C634 0.959 . S
H620 C634 0.961 1_565 S
H621 C635 0.960 . S
H622 C635 0.961 1_545 S
H623 C635 0.959 . S
H624 C638 0.929 . S
H625 C639 0.931 . S
H626 C641 0.930 . S
C627 H615 0.930 . S
C627 C628 1.399 . S
C627 C632 1.399 . S
C628 C627 1.399 . S
C628 C629 1.376 . S
C629 H616 0.930 . S
C629 C628 1.376 . S
C629 C630 1.388 . S
C630 H617 0.930 . S
C630 C629 1.388 . S
C630 C631 1.390 . S
C631 C630 1.390 . S
C631 C632 1.394 . S
C631 C637 1.465 1_565 S
C632 C627 1.399 . S
C632 C631 1.394 . S
C632 C633 1.516 1_565 S
C633 C632 1.516 1_545 S
C633 C634 1.502 . S
C633 C635 1.561 1_545 S
C633 C636 1.526 . S
C634 H618 0.959 . S
C634 H619 0.959 . S
C634 H620 0.961 1_545 S
C634 C633 1.502 . S
C635 H621 0.960 . S
C635 H622 0.961 1_565 S
C635 H623 0.959 . S
C635 C633 1.561 1_565 S
C636 C633 1.526 . S
C636 C637 1.396 . S
C636 C641 1.390 . S
C637 C631 1.465 1_545 S
C637 C636 1.396 . S
C637 C638 1.399 . S
C638 H624 0.929 . S
C638 C637 1.399 . S
C638 C639 1.385 . S
C639 H625 0.931 . S
C639 C638 1.385 . S
C639 C640 1.389 . S
C640 C639 1.389 . S
C640 C641 1.387 . S
C641 H626 0.930 . S
C641 C636 1.390 . S
C641 C640 1.387 . S
H642 C654 0.930 . S
H643 C656 0.930 . S
H644 C657 0.930 . S
H645 C661 0.959 . S
H646 C661 0.959 . S
H647 C661 0.961 . S
H648 C662 0.960 . S
H649 C662 0.961 . S
H650 C662 0.959 . S
H651 C665 0.929 . S
H652 C666 0.931 . S
H653 C668 0.930 . S
C654 H642 0.930 . S
C654 C655 1.399 . S
C654 C659 1.399 . S
C655 C654 1.399 . S
C655 C656 1.376 . S
C656 H643 0.930 . S
C656 C655 1.376 . S
C656 C657 1.388 . S
C657 H644 0.930 . S
C657 C656 1.388 . S
C657 C658 1.390 . S
C658 C657 1.390 . S
C658 C659 1.394 . S
C658 C664 1.465 . S
C659 C654 1.399 . S
C659 C658 1.394 . S
C659 C660 1.516 . S
C660 C659 1.516 . S
C660 C661 1.502 . S
C660 C662 1.561 . S
C660 C663 1.526 . S
C661 H645 0.959 . S
C661 H646 0.959 . S
C661 H647 0.961 . S
C661 C660 1.502 . S
C662 H648 0.960 . S
C662 H649 0.961 . S
C662 H650 0.959 . S
C662 C660 1.561 . S
C663 C660 1.526 . S
C663 C664 1.396 . S
C663 C668 1.390 . S
C664 C658 1.465 . S
C664 C663 1.396 . S
C664 C665 1.399 . S
C665 H651 0.929 . S
C665 C664 1.399 . S
C665 C666 1.385 . S
C666 H652 0.931 . S
C666 C665 1.385 . S
C666 C667 1.389 . S
C667 C666 1.389 . S
C667 C668 1.387 . S
C668 H653 0.930 . S
C668 C663 1.390 . S
C668 C667 1.387 . S
H669 C681 0.930 . S
H670 C683 0.930 . S
H671 C684 0.930 . S
H672 C688 0.959 . S
H673 C688 0.959 . S
H674 C688 0.961 . S
H675 C689 0.960 1_455 S
H676 C689 0.961 . S
H677 C689 0.959 . S
H678 C692 0.929 . S
H679 C693 0.931 . S
H680 C695 0.930 . S
C681 H669 0.930 . S
C681 C682 1.399 . S
C681 C686 1.399 . S
C682 C681 1.399 . S
C682 C683 1.376 . S
C683 H670 0.930 . S
C683 C682 1.376 . S
C683 C684 1.388 . S
C684 H671 0.930 . S
C684 C683 1.388 . S
C684 C685 1.390 . S
C685 C684 1.390 . S
C685 C686 1.394 . S
C685 C691 1.465 1_455 S
C686 C681 1.399 . S
C686 C685 1.394 . S
C686 C687 1.516 1_455 S
C687 C686 1.516 1_655 S
C687 C688 1.502 . S
C687 C689 1.561 . S
C687 C690 1.526 . S
C688 H672 0.959 . S
C688 H673 0.959 . S
C688 H674 0.961 . S
C688 C687 1.502 . S
C689 H675 0.960 1_655 S
C689 H676 0.961 . S
C689 H677 0.959 . S
C689 C687 1.561 . S
C690 C687 1.526 . S
C690 C691 1.396 . S
C690 C695 1.390 . S
C691 C685 1.465 1_655 S
C691 C690 1.396 . S
C691 C692 1.399 . S
C692 H678 0.929 . S
C692 C691 1.399 . S
C692 C693 1.385 . S
C693 H679 0.931 . S
C693 C692 1.385 . S
C693 C694 1.389 . S
C694 C693 1.389 . S
C694 C695 1.387 . S
C695 H680 0.930 . S
C695 C690 1.390 . S
C695 C694 1.387 . S
H696 C708 0.930 . S
H697 C710 0.930 . S
H698 C711 0.930 . S
H699 C715 0.959 1_545 S
H700 C715 0.959 1_545 S
H701 C715 0.961 . S
H702 C716 0.960 . S
H703 C716 0.961 . S
H704 C716 0.959 . S
H705 C719 0.929 . S
H706 C720 0.931 . S
H707 C722 0.930 . S
C708 H696 0.930 . S
C708 C709 1.399 . S
C708 C713 1.399 . S
C709 C708 1.399 . S
C709 C710 1.376 . S
C710 H697 0.930 . S
C710 C709 1.376 . S
C710 C711 1.388 . S
C711 H698 0.930 . S
C711 C710 1.388 . S
C711 C712 1.390 . S
C712 C711 1.390 . S
C712 C713 1.394 . S
C712 C718 1.465 1_565 S
C713 C708 1.399 . S
C713 C712 1.394 . S
C713 C714 1.516 . S
C714 C713 1.516 . S
C714 C715 1.502 . S
C714 C716 1.561 . S
C714 C717 1.526 1_565 S
C715 H699 0.959 1_565 S
C715 H700 0.959 1_565 S
C715 H701 0.961 . S
C715 C714 1.502 . S
C716 H702 0.960 . S
C716 H703 0.961 . S
C716 H704 0.959 . S
C716 C714 1.561 . S
C717 C714 1.526 1_545 S
C717 C718 1.396 . S
C717 C722 1.390 . S
C718 C712 1.465 1_545 S
C718 C717 1.396 . S
C718 C719 1.399 . S
C719 H705 0.929 . S
C719 C718 1.399 . S
C719 C720 1.385 . S
C720 H706 0.931 . S
C720 C719 1.385 . S
C720 C721 1.389 . S
C721 C720 1.389 . S
C721 C722 1.387 . S
C722 H707 0.930 . S
C722 C717 1.390 . S
C722 C721 1.387 . S
H723 C735 0.930 . S
H724 C737 0.930 . S
H725 C738 0.930 . S
H726 C742 0.959 . S
H727 C742 0.959 . S
H728 C742 0.961 . S
H729 C743 0.960 . S
H730 C743 0.961 . S
H731 C743 0.959 . S
H732 C746 0.929 . S
H733 C747 0.931 . S
H734 C749 0.930 . S
C735 H723 0.930 . S
C735 C736 1.399 . S
C735 C740 1.399 . S
C736 C735 1.399 . S
C736 C737 1.376 . S
C737 H724 0.930 . S
C737 C736 1.376 . S
C737 C738 1.388 . S
C738 H725 0.930 . S
C738 C737 1.388 . S
C738 C739 1.390 . S
C739 C738 1.390 . S
C739 C740 1.394 . S
C739 C745 1.465 . S
C740 C735 1.399 . S
C740 C739 1.394 . S
C740 C741 1.516 . S
C741 C740 1.516 . S
C741 C742 1.502 . S
C741 C743 1.561 . S
C741 C744 1.526 . S
C742 H726 0.959 . S
C742 H727 0.959 . S
C742 H728 0.961 . S
C742 C741 1.502 . S
C743 H729 0.960 . S
C743 H730 0.961 . S
C743 H731 0.959 . S
C743 C741 1.561 . S
C744 C741 1.526 . S
C744 C745 1.396 . S
C744 C749 1.390 . S
C745 C739 1.465 . S
C745 C744 1.396 . S
C745 C746 1.399 . S
C746 H732 0.929 . S
C746 C745 1.399 . S
C746 C747 1.385 . S
C747 H733 0.931 . S
C747 C746 1.385 . S
C747 C748 1.389 . S
C748 C747 1.389 . S
C748 C749 1.387 . S
C749 H734 0.930 . S
C749 C744 1.390 . S
C749 C748 1.387 . S
H750 C762 0.930 . S
H751 C764 0.930 . S
H752 C765 0.930 . S
H753 C769 0.959 . S
H754 C769 0.959 . S
H755 C769 0.961 . S
H756 C770 0.979 . S
H757 C770 0.936 1_655 S
H758 C770 0.963 1_655 S
H759 C773 0.929 . S
H760 C774 0.931 . S
H761 C776 0.930 . S
C762 H750 0.930 . S
C762 C763 1.399 . S
C762 C767 1.399 . S
C763 C762 1.399 . S
C763 C764 1.376 . S
C764 H751 0.930 . S
C764 C763 1.376 . S
C764 C765 1.388 . S
C765 H752 0.930 . S
C765 C764 1.388 . S
C765 C766 1.390 . S
C766 C765 1.390 . S
C766 C767 1.394 . S
C766 C772 1.465 1_455 S
C767 C762 1.399 . S
C767 C766 1.394 . S
C767 C768 1.516 . S
C768 C767 1.516 . S
C768 C769 1.502 . S
C768 C770 1.563 . S
C768 C771 1.526 1_455 S
C769 H753 0.959 . S
C769 H754 0.959 . S
C769 H755 0.961 . S
C769 C768 1.502 . S
C770 H756 0.979 . S
C770 H757 0.936 1_455 S
C770 H758 0.963 1_455 S
C770 C768 1.563 . S
C771 C768 1.526 1_655 S
C771 C772 1.396 . S
C771 C776 1.390 . S
C772 C766 1.465 1_655 S
C772 C771 1.396 . S
C772 C773 1.399 . S
C773 H759 0.929 . S
C773 C772 1.399 . S
C773 C774 1.385 . S
C774 H760 0.931 . S
C774 C773 1.385 . S
C774 C775 1.389 . S
C775 C774 1.389 . S
C775 C776 1.387 . S
C776 H761 0.930 . S
C776 C771 1.390 . S
C776 C775 1.387 . S
H777 C789 0.930 . S
H778 C791 0.930 . S
H779 C792 0.930 . S
H780 C796 0.959 . S
H781 C796 0.959 1_565 S
H782 C796 0.961 . S
H783 C797 0.958 . S
H784 C797 0.961 . S
H785 C797 0.959 . S
H786 C800 0.929 . S
H787 C801 0.931 . S
H788 C803 0.930 . S
C789 H777 0.930 . S
C789 C790 1.399 . S
C789 C794 1.399 . S
C790 C789 1.399 . S
C790 C791 1.376 . S
C791 H778 0.930 . S
C791 C790 1.376 . S
C791 C792 1.388 . S
C792 H779 0.930 . S
C792 C791 1.388 . S
C792 C793 1.390 . S
C793 C792 1.390 . S
C793 C794 1.394 . S
C793 C799 1.465 1_545 S
C794 C789 1.399 . S
C794 C793 1.394 . S
C794 C795 1.516 1_545 S
C795 C794 1.516 1_565 S
C795 C796 1.502 1_565 S
C795 C797 1.561 . S
C795 C798 1.526 . S
C796 H780 0.959 . S
C796 H781 0.959 1_545 S
C796 H782 0.961 . S
C796 C795 1.502 1_545 S
C797 H783 0.958 . S
C797 H784 0.961 . S
C797 H785 0.959 . S
C797 C795 1.561 . S
C798 C795 1.526 . S
C798 C799 1.396 . S
C798 C803 1.390 . S
C799 C793 1.465 1_565 S
C799 C798 1.396 . S
C799 C800 1.399 . S
C800 H786 0.929 . S
C800 C799 1.399 . S
C800 C801 1.385 . S
C801 H787 0.931 . S
C801 C800 1.385 . S
C801 C802 1.389 . S
C802 C801 1.389 . S
C802 C803 1.387 . S
C803 H788 0.930 . S
C803 C798 1.390 . S
C803 C802 1.387 . S
H804 C816 0.930 . S
H805 C818 0.930 . S
H806 C819 0.930 . S
H807 C823 0.959 . S
H808 C823 0.959 . S
H809 C823 0.961 . S
H810 C824 0.960 . S
H811 C824 0.961 . S
H812 C824 0.959 . S
H813 C827 0.929 . S
H814 C828 0.931 . S
H815 C830 0.930 . S
C816 H804 0.930 . S
C816 C817 1.399 . S
C816 C821 1.399 . S
C817 C816 1.399 . S
C817 C818 1.376 . S
C818 H805 0.930 . S
C818 C817 1.376 . S
C818 C819 1.388 . S
C819 H806 0.930 . S
C819 C818 1.388 . S
C819 C820 1.390 . S
C820 C819 1.390 . S
C820 C821 1.394 . S
C820 C826 1.465 . S
C821 C816 1.399 . S
C821 C820 1.394 . S
C821 C822 1.516 . S
C822 C821 1.516 . S
C822 C823 1.502 . S
C822 C824 1.561 . S
C822 C825 1.526 . S
C823 H807 0.959 . S
C823 H808 0.959 . S
C823 H809 0.961 . S
C823 C822 1.502 . S
C824 H810 0.960 . S
C824 H811 0.961 . S
C824 H812 0.959 . S
C824 C822 1.561 . S
C825 C822 1.526 . S
C825 C826 1.396 . S
C825 C830 1.390 . S
C826 C820 1.465 . S
C826 C825 1.396 . S
C826 C827 1.399 . S
C827 H813 0.929 . S
C827 C826 1.399 . S
C827 C828 1.385 . S
C828 H814 0.931 . S
C828 C827 1.385 . S
C828 C829 1.389 . S
C829 C828 1.389 . S
C829 C830 1.387 . S
C830 H815 0.930 . S
C830 C825 1.390 . S
C830 C829 1.387 . S
H831 C843 0.930 . S
H832 C845 0.930 . S
H833 C846 0.930 . S
H834 C850 0.959 . S
H835 C850 0.959 . S
H836 C850 0.961 . S
H837 C851 0.960 . S
H838 C851 0.961 . S
H839 C851 0.959 . S
H840 C854 0.929 . S
H841 C855 0.931 . S
H842 C857 0.930 . S
C843 H831 0.930 . S
C843 C844 1.399 . S
C843 C848 1.399 . S
C844 C843 1.399 . S
C844 C845 1.376 . S
C845 H832 0.930 . S
C845 C844 1.376 . S
C845 C846 1.388 . S
C846 H833 0.930 . S
C846 C845 1.388 . S
C846 C847 1.390 . S
C847 C846 1.390 . S
C847 C848 1.394 . S
C847 C853 1.465 . S
C848 C843 1.399 . S
C848 C847 1.394 . S
C848 C849 1.516 . S
C849 C848 1.516 . S
C849 C850 1.502 . S
C849 C851 1.561 . S
C849 C852 1.526 . S
C850 H834 0.959 . S
C850 H835 0.959 . S
C850 H836 0.961 . S
C850 C849 1.502 . S
C851 H837 0.960 . S
C851 H838 0.961 . S
C851 H839 0.959 . S
C851 C849 1.561 . S
C852 C849 1.526 . S
C852 C853 1.396 . S
C852 C857 1.390 . S
C853 C847 1.465 . S
C853 C852 1.396 . S
C853 C854 1.399 . S
C854 H840 0.929 . S
C854 C853 1.399 . S
C854 C855 1.385 . S
C855 H841 0.931 . S
C855 C854 1.385 . S
C855 C856 1.389 . S
C856 C855 1.389 . S
C856 C857 1.387 . S
C857 H842 0.930 . S
C857 C852 1.390 . S
C857 C856 1.387 . S
H858 C870 0.930 . S
H859 C872 0.930 . S
H860 C873 0.930 . S
H861 C877 0.959 . S
H862 C877 0.959 . S
H863 C877 0.961 . S
H864 C878 0.960 . S
H865 C878 0.961 . S
H866 C878 0.959 . S
H867 C881 0.929 . S
H868 C882 0.931 . S
H869 C884 0.930 . S
C870 H858 0.930 . S
C870 C871 1.399 . S
C870 C875 1.399 . S
C871 C870 1.399 . S
C871 C872 1.376 . S
C872 H859 0.930 . S
C872 C871 1.376 . S
C872 C873 1.388 . S
C873 H860 0.930 . S
C873 C872 1.388 . S
C873 C874 1.390 . S
C874 C873 1.390 . S
C874 C875 1.394 . S
C874 C880 1.465 . S
C875 C870 1.399 . S
C875 C874 1.394 . S
C875 C876 1.516 . S
C876 C875 1.516 . S
C876 C877 1.502 . S
C876 C878 1.561 . S
C876 C879 1.526 . S
C877 H861 0.959 . S
C877 H862 0.959 . S
C877 H863 0.961 . S
C877 C876 1.502 . S
C878 H864 0.960 . S
C878 H865 0.961 . S
C878 H866 0.959 . S
C878 C876 1.561 . S
C879 C876 1.526 . S
C879 C880 1.396 . S
C879 C884 1.390 . S
C880 C874 1.465 . S
C880 C879 1.396 . S
C880 C881 1.399 . S
C881 H867 0.929 . S
C881 C880 1.399 . S
C881 C882 1.385 . S
C882 H868 0.931 . S
C882 C881 1.385 . S
C882 C883 1.389 . S
C883 C882 1.389 . S
C883 C884 1.387 . S
C884 H869 0.930 . S
C884 C879 1.390 . S
C884 C883 1.387 . S
H885 C897 0.930 . S
H886 C899 0.930 . S
H887 C900 0.930 . S
H888 C904 0.959 . S
H889 C904 0.959 . S
H890 C904 0.961 . S
H891 C905 0.960 . S
H892 C905 0.961 . S
H893 C905 0.959 . S
H894 C908 0.929 . S
H895 C909 0.931 . S
H896 C911 0.930 . S
C897 H885 0.930 . S
C897 C898 1.399 . S
C897 C902 1.399 . S
C898 C897 1.399 . S
C898 C899 1.376 . S
C899 H886 0.930 . S
C899 C898 1.376 . S
C899 C900 1.388 . S
C900 H887 0.930 . S
C900 C899 1.388 . S
C900 C901 1.390 . S
C901 C900 1.390 . S
C901 C902 1.394 . S
C901 C907 1.465 . S
C902 C897 1.399 . S
C902 C901 1.394 . S
C902 C903 1.516 . S
C903 C902 1.516 . S
C903 C904 1.502 . S
C903 C905 1.561 . S
C903 C906 1.526 . S
C904 H888 0.959 . S
C904 H889 0.959 . S
C904 H890 0.961 . S
C904 C903 1.502 . S
C905 H891 0.960 . S
C905 H892 0.961 . S
C905 H893 0.959 . S
C905 C903 1.561 . S
C906 C903 1.526 . S
C906 C907 1.396 . S
C906 C911 1.390 . S
C907 C901 1.465 . S
C907 C906 1.396 . S
C907 C908 1.399 . S
C908 H894 0.929 . S
C908 C907 1.399 . S
C908 C909 1.385 . S
C909 H895 0.931 . S
C909 C908 1.385 . S
C909 C910 1.389 . S
C910 C909 1.389 . S
C910 C911 1.387 . S
C911 H896 0.930 . S
C911 C906 1.390 . S
C911 C910 1.387 . S
H912 C924 0.930 . S
H913 C926 0.930 . S
H914 C927 0.930 . S
H915 C931 0.959 . S
H916 C931 0.959 . S
H917 C931 0.961 . S
H918 C932 0.960 . S
H919 C932 0.961 . S
H920 C932 0.959 . S
H921 C935 0.929 . S
H922 C936 0.931 . S
H923 C938 0.930 . S
C924 H912 0.930 . S
C924 C925 1.399 . S
C924 C929 1.399 . S
C925 C924 1.399 . S
C925 C926 1.376 . S
C926 H913 0.930 . S
C926 C925 1.376 . S
C926 C927 1.388 . S
C927 H914 0.930 . S
C927 C926 1.388 . S
C927 C928 1.390 . S
C928 C927 1.390 . S
C928 C929 1.394 . S
C928 C934 1.465 . S
C929 C924 1.399 . S
C929 C928 1.394 . S
C929 C930 1.516 . S
C930 C929 1.516 . S
C930 C931 1.502 . S
C930 C932 1.561 . S
C930 C933 1.526 . S
C931 H915 0.959 . S
C931 H916 0.959 . S
C931 H917 0.961 . S
C931 C930 1.502 . S
C932 H918 0.960 . S
C932 H919 0.961 . S
C932 H920 0.959 . S
C932 C930 1.561 . S
C933 C930 1.526 . S
C933 C934 1.396 . S
C933 C938 1.390 . S
C934 C928 1.465 . S
C934 C933 1.396 . S
C934 C935 1.399 . S
C935 H921 0.929 . S
C935 C934 1.399 . S
C935 C936 1.385 . S
C936 H922 0.931 . S
C936 C935 1.385 . S
C936 C937 1.389 . S
C937 C936 1.389 . S
C937 C938 1.387 . S
C938 H923 0.930 . S
C938 C933 1.390 . S
C938 C937 1.387 . S
H939 C951 0.930 . S
H940 C953 0.930 . S
H941 C954 0.930 . S
H942 C958 0.959 . S
H943 C958 0.959 . S
H944 C958 0.961 . S
H945 C959 0.960 . S
H946 C959 0.961 . S
H947 C959 0.959 . S
H948 C962 0.929 . S
H949 C963 0.931 . S
H950 C965 0.930 . S
C951 H939 0.930 . S
C951 C952 1.399 . S
C951 C956 1.399 . S
C952 C951 1.399 . S
C952 C953 1.376 . S
C953 H940 0.930 . S
C953 C952 1.376 . S
C953 C954 1.388 . S
C954 H941 0.930 . S
C954 C953 1.388 . S
C954 C955 1.390 . S
C955 C954 1.390 . S
C955 C956 1.394 . S
C955 C961 1.465 . S
C956 C951 1.399 . S
C956 C955 1.394 . S
C956 C957 1.516 . S
C957 C956 1.516 . S
C957 C958 1.502 . S
C957 C959 1.561 . S
C957 C960 1.526 . S
C958 H942 0.959 . S
C958 H943 0.959 . S
C958 H944 0.961 . S
C958 C957 1.502 . S
C959 H945 0.960 . S
C959 H946 0.961 . S
C959 H947 0.959 . S
C959 C957 1.561 . S
C960 C957 1.526 . S
C960 C961 1.396 . S
C960 C965 1.390 . S
C961 C955 1.465 . S
C961 C960 1.396 . S
C961 C962 1.399 . S
C962 H948 0.929 . S
C962 C961 1.399 . S
C962 C963 1.385 . S
C963 H949 0.931 . S
C963 C962 1.385 . S
C963 C964 1.389 . S
C964 C963 1.389 . S
C964 C965 1.387 . S
C965 H950 0.930 . S
C965 C960 1.390 . S
C965 C964 1.387 . S
H966 C978 0.930 . S
H967 C980 0.930 . S
H968 C981 0.930 . S
H969 C985 0.959 . S
H970 C985 0.959 . S
H971 C985 0.961 . S
H972 C986 0.960 . S
H973 C986 0.961 . S
H974 C986 0.959 . S
H975 C989 0.929 1_565 S
H976 C990 0.931 . S
H977 C992 0.930 . S
C978 H966 0.930 . S
C978 C979 1.399 . S
C978 C983 1.399 . S
C979 C978 1.399 . S
C979 C980 1.376 . S
C980 H967 0.930 . S
C980 C979 1.376 . S
C980 C981 1.388 1_556 S
C981 H968 0.930 . S
C981 C980 1.388 1_554 S
C981 C982 1.390 . S
C982 C981 1.390 . S
C982 C983 1.394 1_554 S
C982 C988 1.465 1_565 S
C983 C978 1.399 . S
C983 C982 1.394 1_556 S
C983 C984 1.516 1_565 S
C984 C983 1.516 1_545 S
C984 C985 1.502 . S
C984 C986 1.561 . S
C984 C987 1.526 1_556 S
C985 H969 0.959 . S
C985 H970 0.959 . S
C985 H971 0.961 . S
C985 C984 1.502 . S
C986 H972 0.960 . S
C986 H973 0.961 . S
C986 H974 0.959 . S
C986 C984 1.561 . S
C987 C984 1.526 1_554 S
C987 C988 1.396 . S
C987 C992 1.390 . S
C988 C982 1.465 1_545 S
C988 C987 1.396 . S
C988 C989 1.399 . S
C989 H975 0.929 1_545 S
C989 C988 1.399 . S
C989 C990 1.385 . S
C990 H976 0.931 . S
C990 C989 1.385 . S
C990 C991 1.389 . S
C991 C990 1.389 . S
C991 C992 1.387 . S
C992 H977 0.930 . S
C992 C987 1.390 . S
C992 C991 1.387 . S
H993 C1005 0.930 . S
H994 C1007 0.930 . S
H995 C1008 0.930 . S
H996 C1012 0.959 . S
H997 C1012 0.959 . S
H998 C1012 0.961 . S
H999 C1013 0.960 . S
H1000 C1013 0.961 . S
H1001 C1013 0.959 . S
H1002 C1016 0.929 . S
H1003 C1017 0.931 . S
H1004 C1019 0.930 . S
C1005 H993 0.930 . S
C1005 C1006 1.399 . S
C1005 C1010 1.399 . S
C1006 C1005 1.399 . S
C1006 C1007 1.376 . S
C1007 H994 0.930 . S
C1007 C1006 1.376 . S
C1007 C1008 1.388 . S
C1008 H995 0.930 . S
C1008 C1007 1.388 . S
C1008 C1009 1.390 . S
C1009 C1008 1.390 . S
C1009 C1010 1.394 . S
C1009 C1015 1.465 . S
C1010 C1005 1.399 . S
C1010 C1009 1.394 . S
C1010 C1011 1.516 . S
C1011 C1010 1.516 . S
C1011 C1012 1.502 . S
C1011 C1013 1.561 . S
C1011 C1014 1.526 . S
C1012 H996 0.959 . S
C1012 H997 0.959 . S
C1012 H998 0.961 . S
C1012 C1011 1.502 . S
C1013 H999 0.960 . S
C1013 H1000 0.961 . S
C1013 H1001 0.959 . S
C1013 C1011 1.561 . S
C1014 C1011 1.526 . S
C1014 C1015 1.396 . S
C1014 C1019 1.390 . S
C1015 C1009 1.465 . S
C1015 C1014 1.396 . S
C1015 C1016 1.399 . S
C1016 H1002 0.929 . S
C1016 C1015 1.399 . S
C1016 C1017 1.385 . S
C1017 H1003 0.931 . S
C1017 C1016 1.385 . S
C1017 C1018 1.389 . S
C1018 C1017 1.389 . S
C1018 C1019 1.387 . S
C1019 H1004 0.930 . S
C1019 C1014 1.390 . S
C1019 C1018 1.387 . S
H1020 C1032 0.930 . S
H1021 C1034 0.930 . S
H1022 C1035 0.930 . S
H1023 C1039 0.959 . S
H1024 C1039 0.959 . S
H1025 C1039 0.961 . S
H1026 C1040 0.960 . S
H1027 C1040 0.961 . S
H1028 C1040 0.959 . S
H1029 C1043 0.929 1_455 S
H1030 C1044 0.931 . S
H1031 C1046 0.930 . S
C1032 H1020 0.930 . S
C1032 C1033 1.399 . S
C1032 C1037 1.399 . S
C1033 C1032 1.399 . S
C1033 C1034 1.376 . S
C1034 H1021 0.930 . S
C1034 C1033 1.376 . S
C1034 C1035 1.388 1_556 S
C1035 H1022 0.930 . S
C1035 C1034 1.388 1_554 S
C1035 C1036 1.390 . S
C1036 C1035 1.390 . S
C1036 C1037 1.394 1_554 S
C1036 C1042 1.465 1_455 S
C1037 C1032 1.399 . S
C1037 C1036 1.394 1_556 S
C1037 C1038 1.516 1_455 S
C1038 C1037 1.516 1_655 S
C1038 C1039 1.502 . S
C1038 C1040 1.561 . S
C1038 C1041 1.526 1_556 S
C1039 H1023 0.959 . S
C1039 H1024 0.959 . S
C1039 H1025 0.961 . S
C1039 C1038 1.502 . S
C1040 H1026 0.960 . S
C1040 H1027 0.961 . S
C1040 H1028 0.959 . S
C1040 C1038 1.561 . S
C1041 C1038 1.526 1_554 S
C1041 C1042 1.396 . S
C1041 C1046 1.390 . S
C1042 C1036 1.465 1_655 S
C1042 C1041 1.396 . S
C1042 C1043 1.399 . S
C1043 H1029 0.929 1_655 S
C1043 C1042 1.399 . S
C1043 C1044 1.385 . S
C1044 H1030 0.931 . S
C1044 C1043 1.385 . S
C1044 C1045 1.389 . S
C1045 C1044 1.389 . S
C1045 C1046 1.387 . S
C1046 H1031 0.930 . S
C1046 C1041 1.390 . S
C1046 C1045 1.387 . S
H1047 C1059 0.930 . S
H1048 C1061 0.930 . S
H1049 C1062 0.930 . S
H1050 C1066 0.959 1_565 S
H1051 C1066 0.959 1_565 S
H1052 C1066 0.961 . S
H1053 C1067 0.960 . S
H1054 C1067 0.961 . S
H1055 C1067 0.959 . S
H1056 C1070 0.929 . S
H1057 C1071 0.931 . S
H1058 C1073 0.930 . S
C1059 H1047 0.930 . S
C1059 C1060 1.399 . S
C1059 C1064 1.399 . S
C1060 C1059 1.399 . S
C1060 C1061 1.376 . S
C1061 H1048 0.930 . S
C1061 C1060 1.376 . S
C1061 C1062 1.388 . S
C1062 H1049 0.930 . S
C1062 C1061 1.388 . S
C1062 C1063 1.390 . S
C1063 C1062 1.390 . S
C1063 C1064 1.394 . S
C1063 C1069 1.465 1_545 S
C1064 C1059 1.399 . S
C1064 C1063 1.394 . S
C1064 C1065 1.516 . S
C1065 C1064 1.516 . S
C1065 C1066 1.502 . S
C1065 C1067 1.561 . S
C1065 C1068 1.526 1_545 S
C1066 H1050 0.959 1_545 S
C1066 H1051 0.959 1_545 S
C1066 H1052 0.961 . S
C1066 C1065 1.502 . S
C1067 H1053 0.960 . S
C1067 H1054 0.961 . S
C1067 H1055 0.959 . S
C1067 C1065 1.561 . S
C1068 C1065 1.526 1_565 S
C1068 C1069 1.396 . S
C1068 C1073 1.390 . S
C1069 C1063 1.465 1_565 S
C1069 C1068 1.396 . S
C1069 C1070 1.399 . S
C1070 H1056 0.929 . S
C1070 C1069 1.399 . S
C1070 C1071 1.385 . S
C1071 H1057 0.931 . S
C1071 C1070 1.385 . S
C1071 C1072 1.389 . S
C1072 C1071 1.389 . S
C1072 C1073 1.387 . S
C1073 H1058 0.930 . S
C1073 C1068 1.390 . S
C1073 C1072 1.387 . S
H1074 C1086 0.930 . S
H1075 C1088 0.930 . S
H1076 C1089 0.930 . S
H1077 C1093 0.959 . S
H1078 C1093 0.959 . S
H1079 C1093 0.961 . S
H1080 C1094 0.960 . S
H1081 C1094 0.961 . S
H1082 C1094 0.959 . S
H1083 C1097 0.929 . S
H1084 C1098 0.931 . S
H1085 C1100 0.930 . S
C1086 H1074 0.930 . S
C1086 C1087 1.399 . S
C1086 C1091 1.399 . S
C1087 C1086 1.399 . S
C1087 C1088 1.376 . S
C1088 H1075 0.930 . S
C1088 C1087 1.376 . S
C1088 C1089 1.388 1_554 S
C1089 H1076 0.930 . S
C1089 C1088 1.388 1_556 S
C1089 C1090 1.386 1_556 S
C1090 C1089 1.386 1_554 S
C1090 C1091 1.428 . S
C1090 C1096 1.440 1_554 S
C1091 C1086 1.399 . S
C1091 C1090 1.428 . S
C1091 C1092 1.516 . S
C1092 C1091 1.516 . S
C1092 C1093 1.502 . S
C1092 C1094 1.561 . S
C1092 C1095 1.526 1_554 S
C1093 H1077 0.959 . S
C1093 H1078 0.959 . S
C1093 H1079 0.961 . S
C1093 C1092 1.502 . S
C1094 H1080 0.960 . S
C1094 H1081 0.961 . S
C1094 H1082 0.959 . S
C1094 C1092 1.561 . S
C1095 C1092 1.526 1_556 S
C1095 C1096 1.396 . S
C1095 C1100 1.390 . S
C1096 C1090 1.440 1_556 S
C1096 C1095 1.396 . S
C1096 C1097 1.399 . S
C1097 H1083 0.929 . S
C1097 C1096 1.399 . S
C1097 C1098 1.385 . S
C1098 H1084 0.931 . S
C1098 C1097 1.385 . S
C1098 C1099 1.389 . S
C1099 C1098 1.389 . S
C1099 C1100 1.387 . S
C1100 H1085 0.930 . S
C1100 C1095 1.390 . S
C1100 C1099 1.387 . S
H1101 C1113 0.930 . S
H1102 C1115 0.930 . S
H1103 C1116 0.930 . S
H1104 C1120 0.959 . S
H1105 C1120 0.959 . S
H1106 C1120 0.961 . S
H1107 C1121 0.960 . S
H1108 C1121 0.961 . S
H1109 C1121 0.959 . S
H1110 C1124 0.929 1_455 S
H1111 C1125 0.931 . S
H1112 C1127 0.930 . S
C1113 H1101 0.930 . S
C1113 C1114 1.399 . S
C1113 C1118 1.399 . S
C1114 C1113 1.399 . S
C1114 C1115 1.376 . S
C1115 H1102 0.930 . S
C1115 C1114 1.376 . S
C1115 C1116 1.388 . S
C1116 H1103 0.930 . S
C1116 C1115 1.388 . S
C1116 C1117 1.390 . S
C1117 C1116 1.390 . S
C1117 C1118 1.394 . S
C1117 C1123 1.465 1_455 S
C1118 C1113 1.399 . S
C1118 C1117 1.394 . S
C1118 C1119 1.516 1_455 S
C1119 C1118 1.516 1_655 S
C1119 C1120 1.502 . S
C1119 C1121 1.561 . S
C1119 C1122 1.526 . S
C1120 H1104 0.959 . S
C1120 H1105 0.959 . S
C1120 H1106 0.961 . S
C1120 C1119 1.502 . S
C1121 H1107 0.960 . S
C1121 H1108 0.961 . S
C1121 H1109 0.959 . S
C1121 C1119 1.561 . S
C1122 C1119 1.526 . S
C1122 C1123 1.396 . S
C1122 C1127 1.390 . S
C1123 C1117 1.465 1_655 S
C1123 C1122 1.396 . S
C1123 C1124 1.399 . S
C1124 H1110 0.929 1_655 S
C1124 C1123 1.399 . S
C1124 C1125 1.385 . S
C1125 H1111 0.931 . S
C1125 C1124 1.385 . S
C1125 C1126 1.389 . S
C1126 C1125 1.389 . S
C1126 C1127 1.387 . S
C1127 H1112 0.930 . S
C1127 C1122 1.390 . S
C1127 C1126 1.387 . S
H1128 C1140 0.930 . S
H1129 C1142 0.930 . S
H1130 C1143 0.930 . S
H1131 C1147 0.959 . S
H1132 C1147 0.959 . S
H1133 C1147 0.961 . S
H1134 C1148 0.960 . S
H1135 C1148 0.961 . S
H1136 C1148 0.959 . S
H1137 C1151 0.929 . S
H1138 C1152 0.931 . S
H1139 C1154 0.930 . S
C1140 H1128 0.930 . S
C1140 C1141 1.399 . S
C1140 C1145 1.399 . S
C1141 C1140 1.399 . S
C1141 C1142 1.376 . S
C1142 H1129 0.930 . S
C1142 C1141 1.376 . S
C1142 C1143 1.388 . S
C1143 H1130 0.930 . S
C1143 C1142 1.388 . S
C1143 C1144 1.390 . S
C1144 C1143 1.390 . S
C1144 C1145 1.394 . S
C1144 C1150 1.465 . S
C1145 C1140 1.399 . S
C1145 C1144 1.394 . S
C1145 C1146 1.516 . S
C1146 C1145 1.516 . S
C1146 C1147 1.502 . S
C1146 C1148 1.561 . S
C1146 C1149 1.526 . S
C1147 H1131 0.959 . S
C1147 H1132 0.959 . S
C1147 H1133 0.961 . S
C1147 C1146 1.502 . S
C1148 H1134 0.960 . S
C1148 H1135 0.961 . S
C1148 H1136 0.959 . S
C1148 C1146 1.561 . S
C1149 C1146 1.526 . S
C1149 C1150 1.396 . S
C1149 C1154 1.390 . S
C1150 C1144 1.465 . S
C1150 C1149 1.396 . S
C1150 C1151 1.399 . S
C1151 H1137 0.929 . S
C1151 C1150 1.399 . S
C1151 C1152 1.385 . S
C1152 H1138 0.931 . S
C1152 C1151 1.385 . S
C1152 C1153 1.389 . S
C1153 C1152 1.389 . S
C1153 C1154 1.387 . S
C1154 H1139 0.930 . S
C1154 C1149 1.390 . S
C1154 C1153 1.387 . S
H1155 C1167 0.930 . S
H1156 C1169 0.930 . S
H1157 C1170 0.930 . S
H1158 C1174 0.959 . S
H1159 C1174 0.959 . S
H1160 C1174 0.961 . S
H1161 C1175 0.960 . S
H1162 C1175 0.961 . S
H1163 C1175 0.959 . S
H1164 C1178 0.929 . S
H1165 C1179 0.931 . S
H1166 C1181 0.930 . S
C1167 H1155 0.930 . S
C1167 C1168 1.399 . S
C1167 C1172 1.399 . S
C1168 C1167 1.399 . S
C1168 C1169 1.376 . S
C1169 H1156 0.930 . S
C1169 C1168 1.376 . S
C1169 C1170 1.388 . S
C1170 H1157 0.930 . S
C1170 C1169 1.388 . S
C1170 C1171 1.390 . S
C1171 C1170 1.390 . S
C1171 C1172 1.394 . S
C1171 C1177 1.465 . S
C1172 C1167 1.399 . S
C1172 C1171 1.394 . S
C1172 C1173 1.516 . S
C1173 C1172 1.516 . S
C1173 C1174 1.502 . S
C1173 C1175 1.561 . S
C1173 C1176 1.526 . S
C1174 H1158 0.959 . S
C1174 H1159 0.959 . S
C1174 H1160 0.961 . S
C1174 C1173 1.502 . S
C1175 H1161 0.960 . S
C1175 H1162 0.961 . S
C1175 H1163 0.959 . S
C1175 C1173 1.561 . S
C1176 C1173 1.526 . S
C1176 C1177 1.396 . S
C1176 C1181 1.390 . S
C1177 C1171 1.465 . S
C1177 C1176 1.396 . S
C1177 C1178 1.399 . S
C1178 H1164 0.929 . S
C1178 C1177 1.399 . S
C1178 C1179 1.385 . S
C1179 H1165 0.931 . S
C1179 C1178 1.385 . S
C1179 C1180 1.389 . S
C1180 C1179 1.389 . S
C1180 C1181 1.387 . S
C1181 H1166 0.930 . S
C1181 C1176 1.390 . S
C1181 C1180 1.387 . S
H1182 C1194 0.930 . S
H1183 C1196 0.930 . S
H1184 C1197 0.930 . S
H1185 C1201 0.959 . S
H1186 C1201 0.959 . S
H1187 C1201 0.961 . S
H1188 C1202 0.960 . S
H1189 C1202 0.961 . S
H1190 C1202 0.959 . S
H1191 C1205 0.929 . S
H1192 C1206 0.931 . S
H1193 C1208 0.930 . S
C1194 H1182 0.930 . S
C1194 C1195 1.399 . S
C1194 C1199 1.399 . S
C1195 C1194 1.399 . S
C1195 C1196 1.376 . S
C1196 H1183 0.930 . S
C1196 C1195 1.376 . S
C1196 C1197 1.388 . S
C1197 H1184 0.930 . S
C1197 C1196 1.388 . S
C1197 C1198 1.390 . S
C1198 C1197 1.390 . S
C1198 C1199 1.394 . S
C1198 C1204 1.465 . S
C1199 C1194 1.399 . S
C1199 C1198 1.394 . S
C1199 C1200 1.516 . S
C1200 C1199 1.516 . S
C1200 C1201 1.502 . S
C1200 C1202 1.561 . S
C1200 C1203 1.526 . S
C1201 H1185 0.959 . S
C1201 H1186 0.959 . S
C1201 H1187 0.961 . S
C1201 C1200 1.502 . S
C1202 H1188 0.960 . S
C1202 H1189 0.961 . S
C1202 H1190 0.959 . S
C1202 C1200 1.561 . S
C1203 C1200 1.526 . S
C1203 C1204 1.396 . S
C1203 C1208 1.390 . S
C1204 C1198 1.465 . S
C1204 C1203 1.396 . S
C1204 C1205 1.399 . S
C1205 H1191 0.929 . S
C1205 C1204 1.399 . S
C1205 C1206 1.385 . S
C1206 H1192 0.931 . S
C1206 C1205 1.385 . S
C1206 C1207 1.389 . S
C1207 C1206 1.389 . S
C1207 C1208 1.387 . S
C1208 H1193 0.930 . S
C1208 C1203 1.390 . S
C1208 C1207 1.387 . S
H1209 C1221 0.930 . S
H1210 C1223 0.930 . S
H1211 C1224 0.930 . S
H1212 C1228 0.959 . S
H1213 C1228 0.959 . S
H1214 C1228 0.961 . S
H1215 C1229 0.960 . S
H1216 C1229 0.961 . S
H1217 C1229 0.959 . S
H1218 C1232 0.929 . S
H1219 C1233 0.931 . S
H1220 C1235 0.930 . S
C1221 H1209 0.930 . S
C1221 C1222 1.399 . S
C1221 C1226 1.399 . S
C1222 C1221 1.399 . S
C1222 C1223 1.376 . S
C1223 H1210 0.930 . S
C1223 C1222 1.376 . S
C1223 C1224 1.388 . S
C1224 H1211 0.930 . S
C1224 C1223 1.388 . S
C1224 C1225 1.390 . S
C1225 C1224 1.390 . S
C1225 C1226 1.394 . S
C1225 C1231 1.465 . S
C1226 C1221 1.399 . S
C1226 C1225 1.394 . S
C1226 C1227 1.516 . S
C1227 C1226 1.516 . S
C1227 C1228 1.502 . S
C1227 C1229 1.561 . S
C1227 C1230 1.526 . S
C1228 H1212 0.959 . S
C1228 H1213 0.959 . S
C1228 H1214 0.961 . S
C1228 C1227 1.502 . S
C1229 H1215 0.960 . S
C1229 H1216 0.961 . S
C1229 H1217 0.959 . S
C1229 C1227 1.561 . S
C1230 C1227 1.526 . S
C1230 C1231 1.396 . S
C1230 C1235 1.390 . S
C1231 C1225 1.465 . S
C1231 C1230 1.396 . S
C1231 C1232 1.399 . S
C1232 H1218 0.929 . S
C1232 C1231 1.399 . S
C1232 C1233 1.385 . S
C1233 H1219 0.931 . S
C1233 C1232 1.385 . S
C1233 C1234 1.389 . S
C1234 C1233 1.389 . S
C1234 C1235 1.387 . S
C1235 H1220 0.930 . S
C1235 C1230 1.390 . S
C1235 C1234 1.387 . S
H1236 C1248 0.930 . S
H1237 C1250 0.930 . S
H1238 C1251 0.930 . S
H1239 C1255 0.959 . S
H1240 C1255 0.959 . S
H1241 C1255 0.961 . S
H1242 C1256 0.960 . S
H1243 C1256 0.961 . S
H1244 C1256 0.959 . S
H1245 C1259 0.929 . S
H1246 C1260 0.931 . S
H1247 C1262 0.930 . S
C1248 H1236 0.930 . S
C1248 C1249 1.399 . S
C1248 C1253 1.399 . S
C1249 C1248 1.399 . S
C1249 C1250 1.376 . S
C1250 H1237 0.930 . S
C1250 C1249 1.376 . S
C1250 C1251 1.388 . S
C1251 H1238 0.930 . S
C1251 C1250 1.388 . S
C1251 C1252 1.390 . S
C1252 C1251 1.390 . S
C1252 C1253 1.394 . S
C1252 C1258 1.465 . S
C1253 C1248 1.399 . S
C1253 C1252 1.394 . S
C1253 C1254 1.516 . S
C1254 C1253 1.516 . S
C1254 C1255 1.502 . S
C1254 C1256 1.561 . S
C1254 C1257 1.526 . S
C1255 H1239 0.959 . S
C1255 H1240 0.959 . S
C1255 H1241 0.961 . S
C1255 C1254 1.502 . S
C1256 H1242 0.960 . S
C1256 H1243 0.961 . S
C1256 H1244 0.959 . S
C1256 C1254 1.561 . S
C1257 C1254 1.526 . S
C1257 C1258 1.396 . S
C1257 C1262 1.390 . S
C1258 C1252 1.465 . S
C1258 C1257 1.396 . S
C1258 C1259 1.399 . S
C1259 H1245 0.929 . S
C1259 C1258 1.399 . S
C1259 C1260 1.385 . S
C1260 H1246 0.931 . S
C1260 C1259 1.385 . S
C1260 C1261 1.389 . S
C1261 C1260 1.389 . S
C1261 C1262 1.387 . S
C1262 H1247 0.930 . S
C1262 C1257 1.390 . S
C1262 C1261 1.387 . S
H1263 C1275 0.930 . S
H1264 C1277 0.930 . S
H1265 C1278 0.930 . S
H1266 C1282 0.959 . S
H1267 C1282 0.959 . S
H1268 C1282 0.961 . S
H1269 C1283 0.960 . S
H1270 C1283 0.961 . S
H1271 C1283 0.959 . S
H1272 C1286 0.929 . S
H1273 C1287 0.931 . S
H1274 C1289 0.930 . S
C1275 H1263 0.930 . S
C1275 C1276 1.399 . S
C1275 C1280 1.399 . S
C1276 C1275 1.399 . S
C1276 C1277 1.376 . S
C1277 H1264 0.930 . S
C1277 C1276 1.376 . S
C1277 C1278 1.388 . S
C1278 H1265 0.930 . S
C1278 C1277 1.388 . S
C1278 C1279 1.390 . S
C1279 C1278 1.390 . S
C1279 C1280 1.394 . S
C1279 C1285 1.465 . S
C1280 C1275 1.399 . S
C1280 C1279 1.394 . S
C1280 C1281 1.516 . S
C1281 C1280 1.516 . S
C1281 C1282 1.502 . S
C1281 C1283 1.561 . S
C1281 C1284 1.526 . S
C1282 H1266 0.959 . S
C1282 H1267 0.959 . S
C1282 H1268 0.961 . S
C1282 C1281 1.502 . S
C1283 H1269 0.960 . S
C1283 H1270 0.961 . S
C1283 H1271 0.959 . S
C1283 C1281 1.561 . S
C1284 C1281 1.526 . S
C1284 C1285 1.396 . S
C1284 C1289 1.390 . S
C1285 C1279 1.465 . S
C1285 C1284 1.396 . S
C1285 C1286 1.399 . S
C1286 H1272 0.929 . S
C1286 C1285 1.399 . S
C1286 C1287 1.385 . S
C1287 H1273 0.931 . S
C1287 C1286 1.385 . S
C1287 C1288 1.389 . S
C1288 C1287 1.389 . S
C1288 C1289 1.387 . S
C1289 H1274 0.930 . S
C1289 C1284 1.390 . S
C1289 C1288 1.387 . S
H1290 C1302 0.930 . S
H1291 C1304 0.930 . S
H1292 C1305 0.930 . S
H1293 C1309 0.959 . S
H1294 C1309 0.959 . S
H1295 C1309 0.961 . S
H1296 C1310 0.960 . S
H1297 C1310 0.961 . S
H1298 C1310 0.959 . S
H1299 C1313 0.929 . S
H1300 C1314 0.931 . S
H1301 C1316 0.930 . S
C1302 H1290 0.930 . S
C1302 C1303 1.399 . S
C1302 C1307 1.399 . S
C1303 C1302 1.399 . S
C1303 C1304 1.376 . S
C1304 H1291 0.930 . S
C1304 C1303 1.376 . S
C1304 C1305 1.388 . S
C1305 H1292 0.930 . S
C1305 C1304 1.388 . S
C1305 C1306 1.390 . S
C1306 C1305 1.390 . S
C1306 C1307 1.394 . S
C1306 C1312 1.465 . S
C1307 C1302 1.399 . S
C1307 C1306 1.394 . S
C1307 C1308 1.516 . S
C1308 C1307 1.516 . S
C1308 C1309 1.502 . S
C1308 C1310 1.561 . S
C1308 C1311 1.526 . S
C1309 H1293 0.959 . S
C1309 H1294 0.959 . S
C1309 H1295 0.961 . S
C1309 C1308 1.502 . S
C1310 H1296 0.960 . S
C1310 H1297 0.961 . S
C1310 H1298 0.959 . S
C1310 C1308 1.561 . S
C1311 C1308 1.526 . S
C1311 C1312 1.396 . S
C1311 C1316 1.390 . S
C1312 C1306 1.465 . S
C1312 C1311 1.396 . S
C1312 C1313 1.399 . S
C1313 H1299 0.929 . S
C1313 C1312 1.399 . S
C1313 C1314 1.385 . S
C1314 H1300 0.931 . S
C1314 C1313 1.385 . S
C1314 C1315 1.389 . S
C1315 C1314 1.389 . S
C1315 C1316 1.387 . S
C1316 H1301 0.930 . S
C1316 C1311 1.390 . S
C1316 C1315 1.387 . S
H1317 C1329 0.930 . S
H1318 C1331 0.930 . S
H1319 C1332 0.930 . S
H1320 C1336 0.959 . S
H1321 C1336 0.959 . S
H1322 C1336 0.961 . S
H1323 C1337 0.960 . S
H1324 C1337 0.961 . S
H1325 C1337 0.959 . S
H1326 C1340 0.929 . S
H1327 C1341 0.931 . S
H1328 C1343 0.930 . S
C1329 H1317 0.930 . S
C1329 C1330 1.399 . S
C1329 C1334 1.399 . S
C1330 C1329 1.399 . S
C1330 C1331 1.376 . S
C1331 H1318 0.930 . S
C1331 C1330 1.376 . S
C1331 C1332 1.388 . S
C1332 H1319 0.930 . S
C1332 C1331 1.388 . S
C1332 C1333 1.390 . S
C1333 C1332 1.390 . S
C1333 C1334 1.394 . S
C1333 C1339 1.465 . S
C1334 C1329 1.399 . S
C1334 C1333 1.394 . S
C1334 C1335 1.516 . S
C1335 C1334 1.516 . S
C1335 C1336 1.502 . S
C1335 C1337 1.561 . S
C1335 C1338 1.526 . S
C1336 H1320 0.959 . S
C1336 H1321 0.959 . S
C1336 H1322 0.961 . S
C1336 C1335 1.502 . S
C1337 H1323 0.960 . S
C1337 H1324 0.961 . S
C1337 H1325 0.959 . S
C1337 C1335 1.561 . S
C1338 C1335 1.526 . S
C1338 C1339 1.396 . S
C1338 C1343 1.390 . S
C1339 C1333 1.465 . S
C1339 C1338 1.396 . S
C1339 C1340 1.399 . S
C1340 H1326 0.929 . S
C1340 C1339 1.399 . S
C1340 C1341 1.385 . S
C1341 H1327 0.931 . S
C1341 C1340 1.385 . S
C1341 C1342 1.389 . S
C1342 C1341 1.389 . S
C1342 C1343 1.387 . S
C1343 H1328 0.930 . S
C1343 C1338 1.390 . S
C1343 C1342 1.387 . S
H1344 C1356 0.930 . S
H1345 C1358 0.930 . S
H1346 C1359 0.930 . S
H1347 C1363 0.959 . S
H1348 C1363 0.959 . S
H1349 C1363 0.961 . S
H1350 C1364 0.960 . S
H1351 C1364 0.961 . S
H1352 C1364 0.959 . S
H1353 C1367 0.929 . S
H1354 C1368 0.931 . S
H1355 C1370 0.930 . S
C1356 H1344 0.930 . S
C1356 C1357 1.399 . S
C1356 C1361 1.399 . S
C1357 C1356 1.399 . S
C1357 C1358 1.376 . S
C1358 H1345 0.930 . S
C1358 C1357 1.376 . S
C1358 C1359 1.388 . S
C1359 H1346 0.930 . S
C1359 C1358 1.388 . S
C1359 C1360 1.390 . S
C1360 C1359 1.390 . S
C1360 C1361 1.394 . S
C1360 C1366 1.465 . S
C1361 C1356 1.399 . S
C1361 C1360 1.394 . S
C1361 C1362 1.516 . S
C1362 C1361 1.516 . S
C1362 C1363 1.502 . S
C1362 C1364 1.561 . S
C1362 C1365 1.526 . S
C1363 H1347 0.959 . S
C1363 H1348 0.959 . S
C1363 H1349 0.961 . S
C1363 C1362 1.502 . S
C1364 H1350 0.960 . S
C1364 H1351 0.961 . S
C1364 H1352 0.959 . S
C1364 C1362 1.561 . S
C1365 C1362 1.526 . S
C1365 C1366 1.396 . S
C1365 C1370 1.390 . S
C1366 C1360 1.465 . S
C1366 C1365 1.396 . S
C1366 C1367 1.399 . S
C1367 H1353 0.929 . S
C1367 C1366 1.399 . S
C1367 C1368 1.385 . S
C1368 H1354 0.931 . S
C1368 C1367 1.385 . S
C1368 C1369 1.389 . S
C1369 C1368 1.389 . S
C1369 C1370 1.387 . S
C1370 H1355 0.930 . S
C1370 C1365 1.390 . S
C1370 C1369 1.387 . S
H1371 C1383 0.930 . S
H1372 C1385 0.930 . S
H1373 C1386 0.930 . S
H1374 C1390 0.959 . S
H1375 C1390 0.959 . S
H1376 C1390 0.961 . S
H1377 C1391 0.960 . S
H1378 C1391 0.961 . S
H1379 C1391 0.959 . S
H1380 C1394 0.929 . S
H1381 C1395 0.931 . S
H1382 C1397 0.930 . S
C1383 H1371 0.930 . S
C1383 C1384 1.399 . S
C1383 C1388 1.399 . S
C1384 C1383 1.399 . S
C1384 C1385 1.376 . S
C1385 H1372 0.930 . S
C1385 C1384 1.376 . S
C1385 C1386 1.388 . S
C1386 H1373 0.930 . S
C1386 C1385 1.388 . S
C1386 C1387 1.390 . S
C1387 C1386 1.390 . S
C1387 C1388 1.394 . S
C1387 C1393 1.465 . S
C1388 C1383 1.399 . S
C1388 C1387 1.394 . S
C1388 C1389 1.516 . S
C1389 C1388 1.516 . S
C1389 C1390 1.502 . S
C1389 C1391 1.561 . S
C1389 C1392 1.526 . S
C1390 H1374 0.959 . S
C1390 H1375 0.959 . S
C1390 H1376 0.961 . S
C1390 C1389 1.502 . S
C1391 H1377 0.960 . S
C1391 H1378 0.961 . S
C1391 H1379 0.959 . S
C1391 C1389 1.561 . S
C1392 C1389 1.526 . S
C1392 C1393 1.396 . S
C1392 C1397 1.390 . S
C1393 C1387 1.465 . S
C1393 C1392 1.396 . S
C1393 C1394 1.399 . S
C1394 H1380 0.929 . S
C1394 C1393 1.399 . S
C1394 C1395 1.385 . S
C1395 H1381 0.931 . S
C1395 C1394 1.385 . S
C1395 C1396 1.389 . S
C1396 C1395 1.389 . S
C1396 C1397 1.387 . S
C1397 H1382 0.930 . S
C1397 C1392 1.390 . S
C1397 C1396 1.387 . S
H1398 C1410 0.930 . S
H1399 C1412 0.930 . S
H1400 C1413 0.930 . S
H1401 C1417 0.959 . S
H1402 C1417 0.959 . S
H1403 C1417 0.961 . S
H1404 C1418 0.960 . S
H1405 C1418 0.961 . S
H1406 C1418 0.959 . S
H1407 C1421 0.929 . S
H1408 C1422 0.931 . S
H1409 C1424 0.930 . S
C1410 H1398 0.930 . S
C1410 C1411 1.399 . S
C1410 C1415 1.399 . S
C1411 C1410 1.399 . S
C1411 C1412 1.376 . S
C1412 H1399 0.930 . S
C1412 C1411 1.376 . S
C1412 C1413 1.388 . S
C1413 H1400 0.930 . S
C1413 C1412 1.388 . S
C1413 C1414 1.390 . S
C1414 C1413 1.390 . S
C1414 C1415 1.394 . S
C1414 C1420 1.465 . S
C1415 C1410 1.399 . S
C1415 C1414 1.394 . S
C1415 C1416 1.516 . S
C1416 C1415 1.516 . S
C1416 C1417 1.502 . S
C1416 C1418 1.561 . S
C1416 C1419 1.526 . S
C1417 H1401 0.959 . S
C1417 H1402 0.959 . S
C1417 H1403 0.961 . S
C1417 C1416 1.502 . S
C1418 H1404 0.960 . S
C1418 H1405 0.961 . S
C1418 H1406 0.959 . S
C1418 C1416 1.561 . S
C1419 C1416 1.526 . S
C1419 C1420 1.396 . S
C1419 C1424 1.390 . S
C1420 C1414 1.465 . S
C1420 C1419 1.396 . S
C1420 C1421 1.399 . S
C1421 H1407 0.929 . S
C1421 C1420 1.399 . S
C1421 C1422 1.385 . S
C1422 H1408 0.931 . S
C1422 C1421 1.385 . S
C1422 C1423 1.389 . S
C1423 C1422 1.389 . S
C1423 C1424 1.387 . S
C1424 H1409 0.930 . S
C1424 C1419 1.390 . S
C1424 C1423 1.387 . S
H1425 C1437 0.930 . S
H1426 C1439 0.930 . S
H1427 C1440 0.930 . S
H1428 C1444 0.959 . S
H1429 C1444 0.959 . S
H1430 C1444 0.961 . S
H1431 C1445 0.960 . S
H1432 C1445 0.961 . S
H1433 C1445 0.959 . S
H1434 C1448 0.929 . S
H1435 C1449 0.931 . S
H1436 C1451 0.930 . S
C1437 H1425 0.930 . S
C1437 C1438 1.399 . S
C1437 C1442 1.399 . S
C1438 C1437 1.399 . S
C1438 C1439 1.376 . S
C1439 H1426 0.930 . S
C1439 C1438 1.376 . S
C1439 C1440 1.388 . S
C1440 H1427 0.930 . S
C1440 C1439 1.388 . S
C1440 C1441 1.390 . S
C1441 C1440 1.390 . S
C1441 C1442 1.394 . S
C1441 C1447 1.465 . S
C1442 C1437 1.399 . S
C1442 C1441 1.394 . S
C1442 C1443 1.516 . S
C1443 C1442 1.516 . S
C1443 C1444 1.502 . S
C1443 C1445 1.561 . S
C1443 C1446 1.526 . S
C1444 H1428 0.959 . S
C1444 H1429 0.959 . S
C1444 H1430 0.961 . S
C1444 C1443 1.502 . S
C1445 H1431 0.960 . S
C1445 H1432 0.961 . S
C1445 H1433 0.959 . S
C1445 C1443 1.561 . S
C1446 C1443 1.526 . S
C1446 C1447 1.396 . S
C1446 C1451 1.390 . S
C1447 C1441 1.465 . S
C1447 C1446 1.396 . S
C1447 C1448 1.399 . S
C1448 H1434 0.929 . S
C1448 C1447 1.399 . S
C1448 C1449 1.385 . S
C1449 H1435 0.931 . S
C1449 C1448 1.385 . S
C1449 C1450 1.389 . S
C1450 C1449 1.389 . S
C1450 C1451 1.387 . S
C1451 H1436 0.930 . S
C1451 C1446 1.390 . S
C1451 C1450 1.387 . S
C493 C95 1.292 . S
C505 C19 1.255 . S
C520 C126 1.301 . S
C532 C50 1.261 . S
C547 C99 1.228 . S
C559 C175 1.322 . S
C574 C130 1.254 . S
C586 C206 1.308 . S
C601 C15 1.320 . S
C613 C179 1.220 . S
C628 C46 1.283 . S
C640 C210 1.303 . S
C655 C406 1.293 . S
C667 C250 1.280 . S
C682 C299 1.284 . S
C694 C455 1.308 . S
C709 C330 1.308 . S
C721 C246 1.282 . S
C736 C379 1.252 . S
C748 C295 1.319 . S
C763 C410 1.220 . S
C775 C326 1.320 . S
C790 C375 1.284 . S
C802 C459 1.307 . S
C817 C129 1.725 . S
C829 C18 1.732 . S
C844 C49 1.649 . S
C856 C178 1.655 . S
C871 C98 1.649 . S
C883 C209 1.653 . S
C898 C249 1.697 . S
C910 C378 1.710 . S
C925 C298 1.663 . S
C937 C409 1.655 . S
C952 C329 1.697 . S
C964 C458 1.684 . S
C979 C289 2.368 . S
C991 C9 2.351 . S
C1006 C58 2.353 . S
C1018 C338 2.368 . S
C1033 C369 2.370 . S
C1045 C89 2.352 . S
C1060 C138 2.359 . S
C1072 C418 2.364 . S
C1087 C169 2.364 . S
C1099 C449 2.354 . S
C1114 C258 2.369 . S
C1126 C218 2.352 . S
C1141 C86 1.772 . S
C1153 C10 1.769 . S
C1168 C59 1.790 . S
C1180 C135 1.738 . S
C1195 C90 1.787 . S
C1207 C166 1.746 . S
C1222 C139 1.760 . S
C1234 C215 1.782 . S
C1249 C6 1.732 . S
C1261 C170 1.792 . S
C1276 C55 1.757 . S
C1288 C219 1.789 . S
C1303 C415 1.743 . S
C1315 C259 1.756 . S
C1330 C290 1.792 . S
C1342 C446 1.732 . S
C1357 C339 1.787 . S
C1369 C255 1.733 . S
C1384 C286 1.731 . S
C1396 C370 1.791 . S
C1411 C419 1.755 . S
C1423 C335 1.781 . S
C1438 C450 1.748 . S
C1450 C366 1.773 . S
