# Generated by pormake.
# Topology dia-f, (3)-cn, num edge types: 1
# Building blocks:
#     Node 0, Type 0, BuildingBlock: OLANEW_clean_sbu_2, # of connection points: 3
#     Node 1, Type 0, BuildingBlock: OLANEW_clean_sbu_2, # of connection points: 3
#     Node 2, Type 0, BuildingBlock: OLANEW_clean_sbu_2, # of connection points: 3
#     Node 3, Type 0, BuildingBlock: OLANEW_clean_sbu_2, # of connection points: 3
#     Node 4, Type 0, BuildingBlock: OLANEW_clean_sbu_2, # of connection points: 3
#     Node 5, Type 0, BuildingBlock: OLANEW_clean_sbu_2, # of connection points: 3
#     Node 6, Type 0, BuildingBlock: OLANEW_clean_sbu_2, # of connection points: 3
#     Node 7, Type 0, BuildingBlock: OLANEW_clean_sbu_2, # of connection points: 3
#     Node 8, Type 0, BuildingBlock: OLANEW_clean_sbu_2, # of connection points: 3
#     Node 9, Type 0, BuildingBlock: OLANEW_clean_sbu_2, # of connection points: 3
#     Node 10, Type 0, BuildingBlock: OLANEW_clean_sbu_2, # of connection points: 3
#     Node 11, Type 0, BuildingBlock: OLANEW_clean_sbu_2, # of connection points: 3
#     Node 12, Type 0, BuildingBlock: OLANEW_clean_sbu_2, # of connection points: 3
#     Node 13, Type 0, BuildingBlock: OLANEW_clean_sbu_2, # of connection points: 3
#     Node 14, Type 0, BuildingBlock: OLANEW_clean_sbu_2, # of connection points: 3
#     Node 15, Type 0, BuildingBlock: OLANEW_clean_sbu_2, # of connection points: 3
#     Edge 16, Type (0, 0), BuildingBlock: EZIPEK_clean_linker_0, # of connection points: 2
#     Edge 17, Type (0, 0), BuildingBlock: EZIPEK_clean_linker_0, # of connection points: 2
#     Edge 18, Type (0, 0), BuildingBlock: EZIPEK_clean_linker_0, # of connection points: 2
#     Edge 19, Type (0, 0), BuildingBlock: EZIPEK_clean_linker_0, # of connection points: 2
#     Edge 20, Type (0, 0), BuildingBlock: EZIPEK_clean_linker_0, # of connection points: 2
#     Edge 21, Type (0, 0), BuildingBlock: EZIPEK_clean_linker_0, # of connection points: 2
#     Edge 22, Type (0, 0), BuildingBlock: EZIPEK_clean_linker_0, # of connection points: 2
#     Edge 23, Type (0, 0), BuildingBlock: EZIPEK_clean_linker_0, # of connection points: 2
#     Edge 24, Type (0, 0), BuildingBlock: EZIPEK_clean_linker_0, # of connection points: 2
#     Edge 25, Type (0, 0), BuildingBlock: EZIPEK_clean_linker_0, # of connection points: 2
#     Edge 26, Type (0, 0), BuildingBlock: EZIPEK_clean_linker_0, # of connection points: 2
#     Edge 27, Type (0, 0), BuildingBlock: EZIPEK_clean_linker_0, # of connection points: 2
#     Edge 28, Type (0, 0), BuildingBlock: EZIPEK_clean_linker_0, # of connection points: 2
#     Edge 29, Type (0, 0), BuildingBlock: EZIPEK_clean_linker_0, # of connection points: 2
#     Edge 30, Type (0, 0), BuildingBlock: EZIPEK_clean_linker_0, # of connection points: 2
#     Edge 31, Type (0, 0), BuildingBlock: EZIPEK_clean_linker_0, # of connection points: 2
#     Edge 32, Type (0, 0), BuildingBlock: EZIPEK_clean_linker_0, # of connection points: 2
#     Edge 33, Type (0, 0), BuildingBlock: EZIPEK_clean_linker_0, # of connection points: 2
#     Edge 34, Type (0, 0), BuildingBlock: EZIPEK_clean_linker_0, # of connection points: 2
#     Edge 35, Type (0, 0), BuildingBlock: EZIPEK_clean_linker_0, # of connection points: 2
#     Edge 36, Type (0, 0), BuildingBlock: EZIPEK_clean_linker_0, # of connection points: 2
#     Edge 37, Type (0, 0), BuildingBlock: EZIPEK_clean_linker_0, # of connection points: 2
#     Edge 38, Type (0, 0), BuildingBlock: EZIPEK_clean_linker_0, # of connection points: 2
#     Edge 39, Type (0, 0), BuildingBlock: EZIPEK_clean_linker_0, # of connection points: 2
# Relax obj value: 0.009
# Max RMSD: 0.057
# Mean RMSD: 0.038
data_MOF--net-dia-f--node1-OLANEW_clean_sbu_2--edge1-EZIPEK_clean_linker_0
_symmetry_space_group_name_H-M    P1
_symmetry_Int_Tables_number       1
_symmetry_cell_setting            triclinic
loop_
_symmetry_equiv_pos_as_xyz
'x, y, z'
_cell_length_a     55.746627
_cell_length_b     55.269511
_cell_length_c     15.803546
_cell_angle_alpha  90.004586
_cell_angle_beta   89.989097
_cell_angle_gamma 98.238785
loop_
_atom_site_label
_atom_site_type_symbol
_atom_site_fract_x
_atom_site_fract_y
_atom_site_fract_z
_atom_type_partial_charge
O0 O 0.07868 0.60049 0.103 0.0
Cd1 Cd 0.06074 0.56412 0.18076 0.0
O2 O 0.10229 0.6143 0.20942 0.0
Cd3 Cd 0.08172 0.5894 0.29826 0.0
O4 O 0.05019 0.59861 0.36601 0.0
C5 C 0.04681 0.62051 0.35178 0.0
O6 O 0.06166 0.63415 0.30075 0.0
C7 C 0.09525 0.61628 0.13358 0.0
C8 C 0.04991 0.52357 0.07619 0.0
O9 O 0.07087 0.52864 0.11043 0.0
O10 O 0.03403 0.53767 0.09109 0.0
O11 O 0.64908 0.7066 0.5956 0.0
Cd12 Cd 0.67227 0.74013 0.67455 0.0
O13 O 0.6349 0.73469 0.52094 0.0
Cd14 Cd 0.61323 0.75034 0.42583 0.0
O15 O 0.59659 0.77869 0.36095 0.0
C16 C 0.60257 0.80072 0.38474 0.0
O17 O 0.61854 0.80562 0.4457 0.0
C18 C 0.63558 0.71221 0.53613 0.0
C19 C 0.72205 0.73985 0.66496 0.0
O20 O 0.70942 0.72833 0.724 0.0
O21 O 0.71119 0.75139 0.60985 0.0
O22 O 0.58092 0.36823 0.61981 0.0
Cd23 Cd 0.55196 0.39325 0.67663 0.0
O24 O 0.55567 0.33353 0.6207 0.0
Cd25 Cd 0.52591 0.34589 0.69081 0.0
O26 O 0.49592 0.33876 0.78102 0.0
C27 C 0.48428 0.31723 0.78234 0.0
O28 O 0.49013 0.3008 0.72903 0.0
C29 C 0.57616 0.34561 0.6023 0.0
C30 C 0.55833 0.438 0.59237 0.0
O31 O 0.56976 0.43523 0.66123 0.0
O32 O 0.54354 0.41989 0.56427 0.0
O33 O 0.91571 0.26848 0.59652 0.0
Cd34 Cd 0.88827 0.22993 0.5858 0.0
O35 O 0.93127 0.26544 0.46939 0.0
Cd36 Cd 0.91478 0.22732 0.4595 0.0
O37 O 0.92782 0.19516 0.5124 0.0
C38 C 0.94995 0.19414 0.4959 0.0
O39 O 0.96163 0.21048 0.44466 0.0
C40 C 0.92985 0.27736 0.53759 0.0
C41 C 0.84032 0.23731 0.56613 0.0
O42 O 0.84926 0.23512 0.63998 0.0
O43 O 0.85398 0.23604 0.50151 0.0
O44 O 0.05359 0.37277 0.77783 0.0
Cd45 Cd 0.02049 0.39686 0.75989 0.0
O46 O 0.07292 0.38644 0.66175 0.0
Cd47 Cd 0.04054 0.40082 0.61853 0.0
O48 O 0.00449 0.38131 0.59114 0.0
C49 C 0.00552 0.35899 0.57457 0.0
O50 O 0.02678 0.35138 0.57261 0.0
C51 C 0.07193 0.37383 0.72934 0.0
C52 C 0.02865 0.43834 0.86121 0.0
O53 O 0.03709 0.43858 0.78573 0.0
O54 O 0.01604 0.41865 0.8884 0.0
O55 O 0.9023 0.766 0.60317 0.0
Cd56 Cd 0.87484 0.73565 0.68228 0.0
O57 O 0.92242 0.73543 0.5808 0.0
Cd58 Cd 0.95254 0.71855 0.53136 0.0
O59 O 0.97845 0.69576 0.48422 0.0
C60 C 0.97346 0.67264 0.48936 0.0
O61 O 0.95275 0.66273 0.5224 0.0
C62 C 0.92055 0.75792 0.57162 0.0
C63 C 0.82567 0.73858 0.66624 0.0
O64 O 0.83833 0.75037 0.72465 0.0
O65 O 0.83632 0.72595 0.61389 0.0
O66 O 0.599 0.6081 0.37702 0.0
Cd67 Cd 0.58326 0.57034 0.30235 0.0
O68 O 0.57048 0.62461 0.31312 0.0
Cd69 Cd 0.55014 0.65426 0.2816 0.0
O70 O 0.5246 0.67714 0.23172 0.0
C71 C 0.50197 0.67051 0.24106 0.0
O72 O 0.49419 0.65016 0.28167 0.0
C73 C 0.58863 0.6267 0.36256 0.0
C74 C 0.57581 0.52846 0.40256 0.0
O75 O 0.59623 0.53505 0.366 0.0
O76 O 0.55903 0.54186 0.39337 0.0
O77 O 0.66485 0.22183 0.54945 0.0
Cd78 Cd 0.69215 0.25863 0.5089 0.0
O79 O 0.65089 0.21348 0.42062 0.0
Cd80 Cd 0.66703 0.24974 0.37846 0.0
O81 O 0.65577 0.28454 0.41434 0.0
C82 C 0.63447 0.28135 0.4449 0.0
O83 O 0.62247 0.25913 0.44845 0.0
C84 C 0.65164 0.2079 0.49855 0.0
C85 C 0.74036 0.25212 0.52665 0.0
O86 O 0.72915 0.24698 0.45674 0.0
O87 O 0.72893 0.2604 0.5881 0.0
O88 O 0.4009 0.30319 0.07457 0.0
Cd89 Cd 0.37248 0.29053 0.18945 0.0
O90 O 0.40492 0.26474 0.0529 0.0
Cd91 Cd 0.42238 0.23686 0.98883 0.0
O92 O 0.4436 0.21106 0.93038 0.0
C93 C 0.45509 0.1979 0.97694 0.0
O94 O 0.45354 0.19955 0.05962 0.0
C95 C 0.41073 0.28723 0.03476 0.0
C96 C 0.32395 0.28571 0.14216 0.0
O97 O 0.33527 0.30637 0.16655 0.0
O98 O 0.33561 0.26736 0.13891 0.0
O99 O 0.14511 0.7191 0.94967 0.0
Cd100 Cd 0.16106 0.76201 0.92579 0.0
O101 O 0.12106 0.72758 0.05318 0.0
Cd102 Cd 0.12653 0.76729 0.04205 0.0
O103 O 0.11461 0.80264 0.06545 0.0
C104 C 0.1076 0.80677 0.13993 0.0
O105 O 0.10877 0.79042 0.19951 0.0
C106 C 0.13005 0.71208 0.00806 0.0
C107 C 0.21108 0.76798 0.94594 0.0
O108 O 0.19723 0.77088 0.00872 0.0
O109 O 0.20144 0.7628 0.8734 0.0
O110 O 0.15605 0.23378 0.95492 0.0
Cd111 Cd 0.17288 0.27298 0.01794 0.0
O112 O 0.17023 0.24336 0.82716 0.0
Cd113 Cd 0.1793 0.2819 0.85956 0.0
O114 O 0.15971 0.31324 0.85083 0.0
C115 C 0.14555 0.31198 0.78751 0.0
O116 O 0.14522 0.29365 0.7344 0.0
C117 C 0.15908 0.22791 0.8783 0.0
C118 C 0.22192 0.27608 0.05714 0.0
O119 O 0.20564 0.26687 0.10981 0.0
O120 O 0.2151 0.28364 0.98566 0.0
O121 O 0.38724 0.8147 0.00399 0.0
Cd122 Cd 0.36479 0.7735 0.99203 0.0
O123 O 0.42172 0.79982 0.99086 0.0
Cd124 Cd 0.40848 0.76082 0.99343 0.0
O125 O 0.42374 0.72925 0.04093 0.0
C126 C 0.43891 0.73437 0.10058 0.0
O127 O 0.44282 0.75681 0.13012 0.0
C128 C 0.41023 0.81792 0.99939 0.0
C129 C 0.31494 0.77298 0.98053 0.0
O130 O 0.32517 0.77168 0.05268 0.0
O131 O 0.32819 0.77475 0.91394 0.0
O132 O 0.56151 0.12447 0.56821 0.0
Cd133 Cd 0.52586 0.09492 0.60269 0.0
O134 O 0.58028 0.11946 0.68831 0.0
Cd135 Cd 0.54642 0.10213 0.74444 0.0
O136 O 0.51568 0.11692 0.7999 0.0
C137 C 0.52164 0.13649 0.84179 0.0
O138 O 0.54473 0.14489 0.85173 0.0
C139 C 0.58018 0.12887 0.61495 0.0
C140 C 0.5247 0.05135 0.51319 0.0
O141 O 0.5154 0.06932 0.48221 0.0
O142 O 0.53465 0.05393 0.58637 0.0
O143 O 0.07875 0.91495 0.20088 0.0
Cd144 Cd 0.06171 0.95236 0.2309 0.0
O145 O 0.04488 0.89365 0.24561 0.0
Cd146 Cd 0.02128 0.85969 0.27739 0.0
O147 O 0.99316 0.83216 0.33083 0.0
C148 C 0.99654 0.82303 0.40291 0.0
O149 O 0.01714 0.82966 0.4426 0.0
C150 C 0.06611 0.89438 0.21546 0.0
C151 C 0.06707 0.98448 0.09455 0.0
O152 O 0.08331 0.98561 0.15236 0.0
O153 O 0.04829 0.96824 0.10098 0.0
O154 O 0.54033 0.88763 0.28218 0.0
Cd155 Cd 0.51643 0.91823 0.22856 0.0
O156 O 0.56152 0.88595 0.165 0.0
Cd157 Cd 0.53934 0.9094 0.0986 0.0
O158 O 0.50287 0.90485 0.04529 0.0
C159 C 0.49033 0.88579 0.0753 0.0
O160 O 0.49984 0.87335 0.1342 0.0
C161 C 0.55673 0.87899 0.24063 0.0
C162 C 0.52016 0.96084 0.32457 0.0
O163 O 0.50441 0.94232 0.34271 0.0
O164 O 0.53443 0.95915 0.26192 0.0
O165 O 0.11102 0.12146 0.72104 0.0
Cd166 Cd 0.08444 0.08454 0.67781 0.0
O167 O 0.0804 0.13676 0.77844 0.0
Cd168 Cd 0.0514 0.11126 0.72158 0.0
O169 O 0.02123 0.12092 0.64705 0.0
C170 C 0.00815 0.13448 0.68518 0.0
O171 O 0.01199 0.13915 0.76597 0.0
C172 C 0.10297 0.13798 0.76406 0.0
C173 C 0.07826 0.0514 0.81108 0.0
O174 O 0.09524 0.05074 0.75684 0.0
O175 O 0.06403 0.06747 0.80202 0.0
C176 C 0.13853 0.67021 0.05127 0.0
C177 C 0.12196 0.68576 0.02324 0.0
C178 C 0.08775 0.65472 0.05976 0.0
C179 C 0.10424 0.63879 0.08574 0.0
N180 N 0.14493 0.62889 0.08669 0.0
N181 N 0.08166 0.69012 0.97668 0.0
C182 C 0.12955 0.64575 0.07499 0.0
C183 C 0.09683 0.67705 0.01942 0.0
N184 N 0.16256 0.67914 0.06002 0.0
N185 N 0.06363 0.64958 0.07904 0.0
H186 H 0.08786 0.70643 0.94527 0.0
H187 H 0.06352 0.68348 0.96482 0.0
H188 H 0.05597 0.63391 0.11117 0.0
H189 H 0.05149 0.66204 0.07024 0.0
H190 H 0.17496 0.66948 0.08948 0.0
H191 H 0.1699 0.69691 0.04344 0.0
H192 H 0.16334 0.63219 0.0722 0.0
H193 H 0.13879 0.61077 0.10311 0.0
C194 C 0.6054 0.84129 0.31049 0.0
C195 C 0.59091 0.82067 0.34692 0.0
C196 C 0.55419 0.83723 0.30525 0.0
C197 C 0.56864 0.85909 0.27766 0.0
N198 N 0.60794 0.88364 0.26702 0.0
N199 N 0.55159 0.80155 0.39508 0.0
C200 C 0.59426 0.86161 0.28377 0.0
C201 C 0.56531 0.81931 0.34877 0.0
N202 N 0.62965 0.84109 0.29826 0.0
N203 N 0.53 0.83298 0.28667 0.0
H204 H 0.55898 0.78841 0.42994 0.0
H205 H 0.53312 0.80136 0.40589 0.0
H206 H 0.52114 0.84521 0.25262 0.0
H207 H 0.51925 0.81623 0.29736 0.0
H208 H 0.64061 0.85449 0.26404 0.0
H209 H 0.63839 0.82635 0.31518 0.0
H210 H 0.62648 0.88728 0.27902 0.0
H211 H 0.60041 0.89904 0.24851 0.0
C212 C 0.4237 0.30822 0.89776 0.0
C213 C 0.42954 0.29491 0.96994 0.0
C214 C 0.4709 0.29511 0.91635 0.0
C215 C 0.46558 0.31002 0.84766 0.0
N216 N 0.43821 0.33354 0.77767 0.0
N217 N 0.4597 0.27947 0.05627 0.0
C218 C 0.44238 0.31751 0.84002 0.0
C219 C 0.4534 0.28927 0.98138 0.0
N220 N 0.4001 0.31092 0.88219 0.0
N221 N 0.4927 0.28651 0.91947 0.0
H222 H 0.44759 0.27534 0.10624 0.0
H223 H 0.47741 0.2774 0.07217 0.0
H224 H 0.50661 0.29155 0.87608 0.0
H225 H 0.4965 0.27317 0.96194 0.0
H226 H 0.39426 0.31811 0.82621 0.0
H227 H 0.38585 0.30399 0.92209 0.0
H228 H 0.42264 0.34191 0.77462 0.0
H229 H 0.45108 0.33988 0.73195 0.0
C230 C 0.9829 0.18959 0.59879 0.0
C231 C 0.96379 0.17836 0.5466 0.0
C232 C 0.97224 0.13788 0.59129 0.0
C233 C 0.9929 0.14925 0.63604 0.0
N234 N 0.02104 0.18573 0.66612 0.0
N235 N 0.94171 0.14197 0.4846 0.0
C236 C 0.99911 0.17506 0.63537 0.0
C237 C 0.95875 0.1525 0.54064 0.0
N238 N 0.98505 0.21405 0.61618 0.0
N239 N 0.96514 0.11327 0.59916 0.0
H240 H 0.9314 0.15214 0.44719 0.0
H241 H 0.93901 0.12338 0.47058 0.0
H242 H 0.97472 0.10207 0.63521 0.0
H243 H 0.94884 0.10427 0.57545 0.0
H244 H 0.9971 0.22264 0.66094 0.0
H245 H 0.97309 0.22532 0.59278 0.0
H246 H 0.02749 0.20426 0.65887 0.0
H247 H 0.03395 0.17577 0.69087 0.0
C248 C 0.1155 0.3693 0.75823 0.0
C249 C 0.091 0.35847 0.74782 0.0
C250 C 0.10221 0.31825 0.78032 0.0
C251 C 0.12701 0.32853 0.77979 0.0
N252 N 0.1578 0.36338 0.75917 0.0
N253 N 0.06172 0.32194 0.73297 0.0
C254 C 0.13385 0.35399 0.76675 0.0
C255 C 0.0845 0.33275 0.75481 0.0
N256 N 0.12111 0.39416 0.76266 0.0
N257 N 0.09546 0.2948 0.80785 0.0
H258 H 0.04829 0.33171 0.71134 0.0
H259 H 0.05688 0.30308 0.72808 0.0
H260 H 0.10787 0.28377 0.82956 0.0
H261 H 0.07747 0.28721 0.81773 0.0
H262 H 0.13824 0.40306 0.77889 0.0
H263 H 0.10811 0.4059 0.75743 0.0
H264 H 0.16381 0.38127 0.74022 0.0
H265 H 0.17172 0.35276 0.76558 0.0
C266 C 0.96817 0.81286 0.52513 0.0
C267 C 0.97677 0.80645 0.44483 0.0
C268 C 0.94643 0.76961 0.44322 0.0
C269 C 0.93979 0.77464 0.52751 0.0
N270 N 0.94801 0.79853 0.65498 0.0
N271 N 0.97697 0.77662 0.33338 0.0
C272 C 0.95165 0.79559 0.57025 0.0
C273 C 0.96667 0.78425 0.40532 0.0
N274 N 0.97497 0.83582 0.55701 0.0
N275 N 0.93286 0.75145 0.39816 0.0
H276 H 0.99199 0.78666 0.30424 0.0
H277 H 0.97204 0.75935 0.30703 0.0
H278 H 0.91765 0.74062 0.42307 0.0
H279 H 0.93533 0.74864 0.33375 0.0
H280 H 0.96722 0.84227 0.611 0.0
H281 H 0.9865 0.84931 0.52502 0.0
H282 H 0.95819 0.8121 0.69098 0.0
H283 H 0.93661 0.786 0.69131 0.0
C284 C 0.46983 0.70593 0.08126 0.0
C285 C 0.45317 0.7159 0.13431 0.0
C286 C 0.46879 0.69641 0.25803 0.0
C287 C 0.48447 0.68534 0.20429 0.0
N288 N 0.49617 0.67503 0.06331 0.0
N289 N 0.43314 0.71671 0.26922 0.0
C290 C 0.48387 0.68874 0.11538 0.0
C291 C 0.45155 0.70994 0.22161 0.0
N292 N 0.47321 0.71378 0.99951 0.0
N293 N 0.47111 0.69498 0.34395 0.0
H294 H 0.42003 0.7264 0.24425 0.0
H295 H 0.42949 0.71078 0.33105 0.0
H296 H 0.48361 0.68537 0.3732 0.0
H297 H 0.4621 0.70498 0.38626 0.0
H298 H 0.48712 0.70931 0.96111 0.0
H299 H 0.46346 0.72646 0.97187 0.0
H300 H 0.49432 0.67481 0.99773 0.0
H301 H 0.50648 0.66208 0.08592 0.0
C302 C 0.60056 0.17195 0.62539 0.0
C303 C 0.59994 0.1483 0.58977 0.0
C304 C 0.63548 0.163 0.50258 0.0
C305 C 0.63457 0.18711 0.53212 0.0
N306 N 0.61357 0.21535 0.61027 0.0
N307 N 0.61502 0.12127 0.48968 0.0
C308 C 0.61654 0.1918 0.59111 0.0
C309 C 0.6169 0.14379 0.52687 0.0
N310 N 0.58568 0.17556 0.69169 0.0
N311 N 0.65455 0.15838 0.45372 0.0
H312 H 0.60231 0.10655 0.50876 0.0
H313 H 0.62502 0.1175 0.43688 0.0
H314 H 0.66854 0.172 0.43564 0.0
H315 H 0.65763 0.14088 0.43689 0.0
H316 H 0.58751 0.19157 0.72732 0.0
H317 H 0.57253 0.16197 0.71549 0.0
H318 H 0.59888 0.21995 0.6443 0.0
H319 H 0.62448 0.23062 0.58587 0.0
C320 C 0.98041 0.32227 0.63447 0.0
C321 C 0.98339 0.34072 0.57172 0.0
C322 C 0.94756 0.32024 0.49713 0.0
C323 C 0.94707 0.29996 0.55259 0.0
N324 N 0.96581 0.28004 0.66637 0.0
N325 N 0.97089 0.35715 0.44033 0.0
C326 C 0.96407 0.30059 0.61985 0.0
C327 C 0.96709 0.33986 0.50255 0.0
N328 N 0.99301 0.32565 0.70878 0.0
N329 N 0.92912 0.3209 0.44059 0.0
H330 H 0.9847 0.37201 0.44334 0.0
H331 H 0.96136 0.35599 0.38347 0.0
H332 H 0.91449 0.3069 0.43577 0.0
H333 H 0.92719 0.33616 0.40393 0.0
H334 H 0.98986 0.31383 0.7602 0.0
H335 H 0.00474 0.34164 0.7223 0.0
H336 H 0.97976 0.27884 0.70937 0.0
H337 H 0.95487 0.26336 0.65653 0.0
C338 C 0.4852 0.14165 0.93081 0.0
C339 C 0.50313 0.15131 0.87139 0.0
C340 C 0.4902 0.1917 0.88382 0.0
C341 C 0.47113 0.1817 0.93853 0.0
N342 N 0.44729 0.14615 4e-05 0.0
N343 N 0.51866 0.18375 0.77527 0.0
C344 C 0.46769 0.15635 0.958 0.0
C345 C 0.50442 0.17582 0.84306 0.0
N346 N 0.4855 0.11887 0.96409 0.0
N347 N 0.49559 0.21647 0.8739 0.0
H348 H 0.52877 0.17244 0.74187 0.0
H349 H 0.51843 0.2007 0.74663 0.0
H350 H 0.48611 0.22891 0.90427 0.0
H351 H 0.51097 0.2248 0.84213 0.0
H352 H 0.47461 0.11198 0.01461 0.0
H353 H 0.49805 0.10755 0.946 0.0
H354 H 0.44257 0.12738 0.00833 0.0
H355 H 0.43385 0.15624 0.01965 0.0
C356 C 0.61118 0.66938 0.35648 0.0
C357 C 0.59759 0.65034 0.40394 0.0
C358 C 0.60398 0.67523 0.53258 0.0
C359 C 0.62056 0.69253 0.48788 0.0
N360 N 0.64155 0.70549 0.35846 0.0
N361 N 0.58129 0.63439 0.53724 0.0
C362 C 0.62431 0.6897 0.39974 0.0
C363 C 0.59398 0.6531 0.49204 0.0
N364 N 0.61173 0.66792 0.27016 0.0
N365 N 0.59722 0.68038 0.61304 0.0
H366 H 0.5724 0.61853 0.509 0.0
H367 H 0.58061 0.63397 0.60306 0.0
H368 H 0.60375 0.69672 0.64375 0.0
H369 H 0.58347 0.6697 0.64634 0.0
H370 H 0.61903 0.68237 0.23145 0.0
H371 H 0.60317 0.6529 0.23649 0.0
H372 H 0.64722 0.70274 0.29687 0.0
H373 H 0.65162 0.72055 0.38762 0.0
C374 C 0.09709 0.86662 0.24232 0.0
C375 C 0.07624 0.87157 0.19772 0.0
C376 C 0.07479 0.83292 0.12048 0.0
C377 C 0.09699 0.82922 0.15889 0.0
N378 N 0.1313 0.84407 0.2468 0.0
N379 N 0.04727 0.86158 0.08515 0.0
C380 C 0.10869 0.84647 0.21737 0.0
C381 C 0.06558 0.85528 0.13437 0.0
N382 N 0.10527 0.88065 0.31053 0.0
N383 N 0.06201 0.81471 0.07335 0.0
H384 H 0.03999 0.87779 0.0932 0.0
H385 H 0.04067 0.85177 0.03174 0.0
H386 H 0.06806 0.798 0.06194 0.0
H387 H 0.04444 0.81526 0.05179 0.0
H388 H 0.11876 0.87638 0.35114 0.0
H389 H 0.09708 0.8954 0.33132 0.0
H390 H 0.14189 0.85747 0.2822 0.0
H391 H 0.14042 0.8296 0.22971 0.0
C392 C 0.02416 0.63361 0.47752 0.0
C393 C 0.026 0.6307 0.38861 0.0
C394 C 0.99276 0.65462 0.36603 0.0
C395 C 0.99051 0.65701 0.45492 0.0
N396 N 0.00056 0.64522 0.59601 0.0
N397 N 0.00878 0.63324 0.24958 0.0
C398 C 0.005 0.6452 0.51092 0.0
C399 C 0.00931 0.6397 0.3332 0.0
N400 N 0.04154 0.6267 0.52968 0.0
N401 N 0.9793 0.66687 0.31297 0.0
H402 H 0.02023 0.62177 0.22395 0.0
H403 H 0.99557 0.63721 0.20729 0.0
H404 H 0.96597 0.67684 0.33444 0.0
H405 H 0.98226 0.66837 0.24802 0.0
H406 H 0.04285 0.63098 0.59382 0.0
H407 H 0.05589 0.61821 0.50789 0.0
H408 H 0.00864 0.63466 0.63916 0.0
H409 H 0.9874 0.65442 0.62313 0.0
C410 C 0.11513 0.18296 0.75224 0.0
C411 C 0.11919 0.16044 0.78856 0.0
C412 C 0.15224 0.18191 0.8745 0.0
C413 C 0.14617 0.20455 0.84537 0.0
N414 N 0.11884 0.2268 0.76836 0.0
N415 N 0.13982 0.13817 0.88983 0.0
C416 C 0.12688 0.20515 0.78708 0.0
C417 C 0.1374 0.15976 0.85089 0.0
N418 N 0.10048 0.18313 0.68287 0.0
N419 N 0.17248 0.18161 0.92308 0.0
H420 H 0.1294 0.12162 0.87348 0.0
H421 H 0.1509 0.13687 0.94217 0.0
H422 H 0.18364 0.19753 0.94144 0.0
H423 H 0.1793 0.16567 0.93944 0.0
H424 H 0.09889 0.19888 0.64833 0.0
H425 H 0.09175 0.16721 0.65453 0.0
H426 H 0.10306 0.22789 0.73415 0.0
H427 H 0.12651 0.24356 0.79359 0.0
C428 C 0.62133 0.30089 0.57529 0.0
C429 C 0.62409 0.30148 0.48618 0.0
C430 C 0.60074 0.33577 0.47712 0.0
C431 C 0.59491 0.33258 0.56424 0.0
N432 N 0.59957 0.31273 0.69792 0.0
N433 N 0.61683 0.3189 0.3506 0.0
C434 C 0.60536 0.31544 0.614 0.0
C435 C 0.61429 0.31908 0.43665 0.0
N436 N 0.63443 0.28673 0.62271 0.0
N437 N 0.59309 0.35456 0.43313 0.0
H438 H 0.62721 0.30737 0.31946 0.0
H439 H 0.60778 0.3292 0.30953 0.0
H440 H 0.58241 0.36654 0.46004 0.0
H441 H 0.59868 0.35942 0.37186 0.0
H442 H 0.63501 0.28699 0.68851 0.0
H443 H 0.64657 0.27619 0.5959 0.0
H444 H 0.60399 0.29852 0.73534 0.0
H445 H 0.58928 0.3242 0.72982 0.0
C446 C 0.42683 0.8539 0.08899 0.0
C447 C 0.4246 0.84244 0.0085 0.0
C448 C 0.46237 0.86675 0.96117 0.0
C449 C 0.46572 0.8765 0.04411 0.0
N450 N 0.44813 0.88629 0.17625 0.0
N451 N 0.43499 0.84358 0.8611 0.0
C452 C 0.44674 0.87248 0.10423 0.0
C453 C 0.44059 0.85101 0.94204 0.0
N454 N 0.41108 0.84578 0.15253 0.0
N455 N 0.48063 0.87092 0.90299 0.0
H456 H 0.41898 0.83207 0.84657 0.0
H457 H 0.44479 0.85058 0.80829 0.0
H458 H 0.49662 0.88275 0.91381 0.0
H459 H 0.48044 0.86181 0.84529 0.0
H460 H 0.41361 0.8512 0.21538 0.0
H461 H 0.3959 0.83271 0.14318 0.0
H462 H 0.43408 0.88573 0.21992 0.0
H463 H 0.46263 0.90008 0.18785 0.0
C464 C 0.03559 0.5043 0.93765 0.0
C465 C 0.04412 0.50176 0.02136 0.0
C466 C 0.04481 0.4581 0.9966 0.0
C467 C 0.0338 0.46014 0.91642 0.0
N468 N 0.01421 0.48431 0.81767 0.0
N469 N 0.05185 0.47526 0.1367 0.0
C470 C 0.02792 0.48301 0.88879 0.0
C471 C 0.04734 0.47837 0.05267 0.0
N472 N 0.03576 0.52703 0.90331 0.0
N473 N 0.05387 0.43721 0.01796 0.0
H474 H 0.05316 0.48948 0.18058 0.0
H475 H 0.05182 0.45814 0.16435 0.0
H476 H 0.05312 0.42215 0.97781 0.0
H477 H 0.06432 0.43576 0.07187 0.0
H478 H 0.03216 0.52988 0.83968 0.0
H479 H 0.04182 0.54312 0.93607 0.0
H480 H 0.00727 0.50006 0.79964 0.0
H481 H 0.00771 0.46905 0.78118 0.0
C482 C 0.7577 0.71703 0.65651 0.0
C483 C 0.74858 0.73967 0.66065 0.0
C484 C 0.79006 0.76152 0.65453 0.0
C485 C 0.79916 0.73891 0.66137 0.0
N486 N 0.79151 0.69524 0.68441 0.0
N487 N 0.75609 0.78354 0.67758 0.0
C488 C 0.78296 0.71664 0.66625 0.0
C489 C 0.76474 0.76199 0.66309 0.0
N490 N 0.74236 0.69594 0.64046 0.0
N491 N 0.80548 0.78245 0.6371 0.0
H492 H 0.73774 0.7847 0.68587 0.0
H493 H 0.76728 0.79997 0.68922 0.0
H494 H 0.82409 0.78277 0.62879 0.0
H495 H 0.79956 0.79901 0.62269 0.0
H496 H 0.74837 0.6793 0.62794 0.0
H497 H 0.72378 0.6955 0.63109 0.0
H498 H 0.78022 0.67899 0.69785 0.0
H499 H 0.8098 0.69412 0.6943 0.0
C500 C 0.55827 0.48341 0.58235 0.0
C501 C 0.56286 0.46125 0.54439 0.0
C502 C 0.57371 0.48289 0.41138 0.0
C503 C 0.57142 0.5054 0.45171 0.0
N504 N 0.56563 0.52771 0.57959 0.0
N505 N 0.57965 0.44065 0.4285 0.0
C506 C 0.56479 0.50585 0.53837 0.0
C507 C 0.57188 0.46118 0.46042 0.0
N508 N 0.54683 0.48294 0.65899 0.0
N509 N 0.57661 0.48202 0.32555 0.0
H510 H 0.57908 0.42445 0.46277 0.0
H511 H 0.58884 0.44038 0.37119 0.0
H512 H 0.57754 0.4974 0.2868 0.0
H513 H 0.57571 0.46573 0.29178 0.0
H514 H 0.54064 0.49815 0.68554 0.0
H515 H 0.54153 0.46684 0.69275 0.0
H516 H 0.56353 0.52914 0.6448 0.0
H517 H 0.57063 0.54452 0.54989 0.0
C518 C 0.80921 0.26257 0.51533 0.0
C519 C 0.81472 0.24109 0.55573 0.0
C520 C 0.77149 0.22789 0.58289 0.0
C521 C 0.76592 0.24834 0.53654 0.0
N522 N 0.77878 0.28361 0.44927 0.0
N523 N 0.80122 0.20122 0.6149 0.0
C524 C 0.78459 0.26517 0.49961 0.0
C525 C 0.7959 0.22321 0.5864 0.0
N526 N 0.82744 0.28103 0.49584 0.0
N527 N 0.75347 0.21297 0.62382 0.0
H528 H 0.81881 0.19687 0.61695 0.0
H529 H 0.78811 0.18642 0.62939 0.0
H530 H 0.7352 0.21503 0.61929 0.0
H531 H 0.75671 0.19955 0.66688 0.0
H532 H 0.82446 0.2982 0.47485 0.0
H533 H 0.84568 0.28003 0.5077 0.0
H534 H 0.7914 0.29469 0.41249 0.0
H535 H 0.76101 0.28683 0.43956 0.0
C536 C 0.28964 0.27324 0.04065 0.0
C537 C 0.29783 0.28302 0.12033 0.0
C538 C 0.25666 0.29054 0.15439 0.0
C539 C 0.24802 0.27832 0.07898 0.0
N540 N 0.25565 0.25356 0.95868 0.0
N541 N 0.28811 0.29588 0.26083 0.0
C542 C 0.26433 0.26841 0.02429 0.0
C543 C 0.28106 0.29026 0.17948 0.0
N544 N 0.30597 0.26951 0.97921 0.0
N545 N 0.24193 0.30336 0.20032 0.0
H546 H 0.30562 0.29515 0.28289 0.0
H547 H 0.27597 0.29879 0.30865 0.0
H548 H 0.22414 0.30476 0.1829 0.0
H549 H 0.24814 0.31468 0.2508 0.0
H550 H 0.30098 0.26484 0.91714 0.0
H551 H 0.32468 0.27341 0.98772 0.0
H552 H 0.26658 0.24383 0.92228 0.0
H553 H 0.23721 0.24898 0.94586 0.0
C554 C 0.27854 0.79214 0.93863 0.0
C555 C 0.28832 0.77206 0.97402 0.0
C556 C 0.24728 0.75063 0.99962 0.0
C557 C 0.23761 0.76973 0.95737 0.0
N558 N 0.2436 0.80751 0.87877 0.0
N559 N 0.28248 0.73059 0.02615 0.0
C560 C 0.25314 0.79013 0.92429 0.0
C561 C 0.27282 0.75092 0.00191 0.0
N562 N 0.29342 0.81353 0.92235 0.0
N563 N 0.23205 0.73214 0.03735 0.0
H564 H 0.30107 0.72988 0.02746 0.0
H565 H 0.27215 0.71371 0.03797 0.0
H566 H 0.21322 0.73043 0.03297 0.0
H567 H 0.23798 0.71936 0.0778 0.0
H568 H 0.28715 0.82968 0.9051 0.0
H569 H 0.31207 0.81582 0.93324 0.0
H570 H 0.25408 0.8212 0.84431 0.0
H571 H 0.22501 0.80742 0.87096 0.0
C572 C 0.54363 0.9946 0.41042 0.0
C573 C 0.52139 0.9839 0.37355 0.0
C574 C 0.50092 0.0158 0.43748 0.0
C575 C 0.52362 0.02803 0.46589 0.0
N576 N 0.5673 0.03144 0.46496 0.0
N577 N 0.47992 0.98732 0.33694 0.0
C578 C 0.54521 0.01808 0.44851 0.0
C579 C 0.50029 0.99531 0.38294 0.0
N580 N 0.56299 0.98197 0.41212 0.0
N581 N 0.47985 0.0231 0.4652 0.0
H582 H 0.47886 0.97288 0.29403 0.0
H583 H 0.46494 0.99662 0.3348 0.0
H584 H 0.47942 0.03756 0.50727 0.0
H585 H 0.46282 0.01322 0.45343 0.0
H586 H 0.5788 0.98784 0.44592 0.0
H587 H 0.56242 0.96447 0.38687 0.0
H588 H 0.58361 0.02613 0.4453 0.0
H589 H 0.56932 0.04898 0.49077 0.0
C590 C 0.0774 0.04351 0.96733 0.0
C591 C 0.07539 0.03424 0.8835 0.0
C592 C 0.07038 0.99233 0.93826 0.0
C593 C 0.06992 0.00159 0.02193 0.0
N594 N 0.06849 0.03585 0.11568 0.0
N595 N 0.06571 1.00001 0.78869 0.0
C596 C 0.07222 0.02716 0.03645 0.0
C597 C 0.07073 0.00868 0.86873 0.0
N598 N 0.08519 0.0678 0.98115 0.0
N599 N 0.07148 0.96805 0.92516 0.0
H600 H 0.0655 0.01139 0.73616 0.0
H601 H 0.05958 0.9817 0.77546 0.0
H602 H 0.07167 0.95552 0.97439 0.0
H603 H 0.07451 0.96075 0.866 0.0
H604 H 0.08952 0.07509 0.04092 0.0
H605 H 0.08954 0.08035 0.93232 0.0
H606 H 0.06733 0.05415 0.12816 0.0
H607 H 0.06427 0.02448 0.16786 0.0
loop_
_geom_bond_atom_site_label_1
_geom_bond_atom_site_label_2
_geom_bond_distance
_geom_bond_site_symmetry_2
_ccdc_geom_bond_type
O0 Cd1 2.300 . S
O0 C7 1.275 . S
Cd1 O0 2.300 . S
Cd1 O9 2.381 . S
Cd1 O10 2.378 . S
O2 Cd3 2.385 . S
O2 C7 1.255 . S
Cd3 O2 2.385 . S
Cd3 O4 2.317 . S
O4 Cd3 2.317 . S
O4 C5 1.232 . S
C5 O4 1.232 . S
C5 O6 1.218 . S
O6 C5 1.218 . S
C7 O0 1.275 . S
C7 O2 1.255 . S
C8 O9 1.258 . S
C8 O10 1.256 . S
O9 Cd1 2.381 . S
O9 C8 1.258 . S
O10 Cd1 2.378 . S
O10 C8 1.256 . S
O11 Cd12 2.300 . S
O11 C18 1.275 . S
Cd12 O11 2.300 . S
Cd12 O20 2.381 . S
Cd12 O21 2.378 . S
O13 Cd14 2.385 . S
O13 C18 1.255 . S
Cd14 O13 2.385 . S
Cd14 O15 2.317 . S
O15 Cd14 2.317 . S
O15 C16 1.232 . S
C16 O15 1.232 . S
C16 O17 1.218 . S
O17 C16 1.218 . S
C18 O11 1.275 . S
C18 O13 1.255 . S
C19 O20 1.258 . S
C19 O21 1.256 . S
O20 Cd12 2.381 . S
O20 C19 1.258 . S
O21 Cd12 2.378 . S
O21 C19 1.256 . S
O22 Cd23 2.300 . S
O22 C29 1.275 . S
Cd23 O22 2.300 . S
Cd23 O31 2.381 . S
Cd23 O32 2.378 . S
O24 Cd25 2.385 . S
O24 C29 1.255 . S
Cd25 O24 2.385 . S
Cd25 O26 2.317 . S
O26 Cd25 2.317 . S
O26 C27 1.232 . S
C27 O26 1.232 . S
C27 O28 1.218 . S
O28 C27 1.218 . S
C29 O22 1.275 . S
C29 O24 1.255 . S
C30 O31 1.258 . S
C30 O32 1.256 . S
O31 Cd23 2.381 . S
O31 C30 1.258 . S
O32 Cd23 2.378 . S
O32 C30 1.256 . S
O33 Cd34 2.300 . S
O33 C40 1.275 . S
Cd34 O33 2.300 . S
Cd34 O42 2.381 . S
Cd34 O43 2.378 . S
O35 Cd36 2.385 . S
O35 C40 1.255 . S
Cd36 O35 2.385 . S
Cd36 O37 2.317 . S
O37 Cd36 2.317 . S
O37 C38 1.232 . S
C38 O37 1.232 . S
C38 O39 1.218 . S
O39 C38 1.218 . S
C40 O33 1.275 . S
C40 O35 1.255 . S
C41 O42 1.258 . S
C41 O43 1.256 . S
O42 Cd34 2.381 . S
O42 C41 1.258 . S
O43 Cd34 2.378 . S
O43 C41 1.256 . S
O44 Cd45 2.300 . S
O44 C51 1.275 . S
Cd45 O44 2.300 . S
Cd45 O53 2.381 . S
Cd45 O54 2.378 . S
O46 Cd47 2.385 . S
O46 C51 1.255 . S
Cd47 O46 2.385 . S
Cd47 O48 2.317 . S
O48 Cd47 2.317 . S
O48 C49 1.232 . S
C49 O48 1.232 . S
C49 O50 1.218 . S
O50 C49 1.218 . S
C51 O44 1.275 . S
C51 O46 1.255 . S
C52 O53 1.258 . S
C52 O54 1.256 . S
O53 Cd45 2.381 . S
O53 C52 1.258 . S
O54 Cd45 2.378 . S
O54 C52 1.256 . S
O55 Cd56 2.300 . S
O55 C62 1.275 . S
Cd56 O55 2.300 . S
Cd56 O64 2.381 . S
Cd56 O65 2.378 . S
O57 Cd58 2.385 . S
O57 C62 1.255 . S
Cd58 O57 2.385 . S
Cd58 O59 2.317 . S
O59 Cd58 2.317 . S
O59 C60 1.232 . S
C60 O59 1.232 . S
C60 O61 1.218 . S
O61 C60 1.218 . S
C62 O55 1.275 . S
C62 O57 1.255 . S
C63 O64 1.258 . S
C63 O65 1.256 . S
O64 Cd56 2.381 . S
O64 C63 1.258 . S
O65 Cd56 2.378 . S
O65 C63 1.256 . S
O66 Cd67 2.300 . S
O66 C73 1.275 . S
Cd67 O66 2.300 . S
Cd67 O75 2.381 . S
Cd67 O76 2.378 . S
O68 Cd69 2.385 . S
O68 C73 1.255 . S
Cd69 O68 2.385 . S
Cd69 O70 2.317 . S
O70 Cd69 2.317 . S
O70 C71 1.232 . S
C71 O70 1.232 . S
C71 O72 1.218 . S
O72 C71 1.218 . S
C73 O66 1.275 . S
C73 O68 1.255 . S
C74 O75 1.258 . S
C74 O76 1.256 . S
O75 Cd67 2.381 . S
O75 C74 1.258 . S
O76 Cd67 2.378 . S
O76 C74 1.256 . S
O77 Cd78 2.300 . S
O77 C84 1.275 . S
Cd78 O77 2.300 . S
Cd78 O86 2.381 . S
Cd78 O87 2.378 . S
O79 Cd80 2.385 . S
O79 C84 1.255 . S
Cd80 O79 2.385 . S
Cd80 O81 2.317 . S
O81 Cd80 2.317 . S
O81 C82 1.232 . S
C82 O81 1.232 . S
C82 O83 1.218 . S
O83 C82 1.218 . S
C84 O77 1.275 . S
C84 O79 1.255 . S
C85 O86 1.258 . S
C85 O87 1.256 . S
O86 Cd78 2.381 . S
O86 C85 1.258 . S
O87 Cd78 2.378 . S
O87 C85 1.256 . S
O88 Cd89 2.300 . S
O88 C95 1.275 . S
Cd89 O88 2.300 . S
Cd89 O97 2.381 1_556 S
Cd89 O98 2.378 . S
O90 Cd91 2.385 . S
O90 C95 1.255 . S
Cd91 O90 2.385 . S
Cd91 O92 2.317 . S
O92 Cd91 2.317 . S
O92 C93 1.232 . S
C93 O92 1.232 . S
C93 O94 1.218 . S
O94 C93 1.218 . S
C95 O88 1.275 . S
C95 O90 1.255 . S
C96 O97 1.258 1_556 S
C96 O98 1.256 . S
O97 Cd89 2.381 1_554 S
O97 C96 1.258 1_554 S
O98 Cd89 2.378 . S
O98 C96 1.256 . S
O99 Cd100 2.300 1_554 S
O99 C106 1.275 . S
Cd100 O99 2.300 1_556 S
Cd100 O108 2.381 1_556 S
Cd100 O109 2.378 . S
O101 Cd102 2.385 . S
O101 C106 1.255 1_556 S
Cd102 O101 2.385 . S
Cd102 O103 2.317 . S
O103 Cd102 2.317 . S
O103 C104 1.232 1_556 S
C104 O103 1.232 1_554 S
C104 O105 1.218 1_554 S
O105 C104 1.218 1_556 S
C106 O99 1.275 . S
C106 O101 1.255 1_554 S
C107 O108 1.258 1_556 S
C107 O109 1.256 . S
O108 Cd100 2.381 1_554 S
O108 C107 1.258 1_554 S
O109 Cd100 2.378 . S
O109 C107 1.256 . S
O110 Cd111 2.300 . S
O110 C117 1.275 . S
Cd111 O110 2.300 . S
Cd111 O119 2.381 1_556 S
Cd111 O120 2.378 . S
O112 Cd113 2.385 . S
O112 C117 1.255 . S
Cd113 O112 2.385 . S
Cd113 O114 2.317 . S
O114 Cd113 2.317 . S
O114 C115 1.232 . S
C115 O114 1.232 . S
C115 O116 1.218 . S
O116 C115 1.218 . S
C117 O110 1.275 . S
C117 O112 1.255 . S
C118 O119 1.258 1_556 S
C118 O120 1.256 . S
O119 Cd111 2.381 1_554 S
O119 C118 1.258 1_554 S
O120 Cd111 2.378 . S
O120 C118 1.256 . S
O121 Cd122 2.300 1_554 S
O121 C128 1.275 . S
Cd122 O121 2.300 1_556 S
Cd122 O130 2.381 1_556 S
Cd122 O131 2.378 . S
O123 Cd124 2.385 . S
O123 C128 1.255 1_556 S
Cd124 O123 2.385 . S
Cd124 O125 2.317 . S
O125 Cd124 2.317 . S
O125 C126 1.232 1_556 S
C126 O125 1.232 1_554 S
C126 O127 1.218 . S
O127 C126 1.218 . S
C128 O121 1.275 . S
C128 O123 1.255 1_554 S
C129 O130 1.258 1_556 S
C129 O131 1.256 . S
O130 Cd122 2.381 1_554 S
O130 C129 1.258 1_554 S
O131 Cd122 2.378 . S
O131 C129 1.256 . S
O132 Cd133 2.300 . S
O132 C139 1.275 . S
Cd133 O132 2.300 . S
Cd133 O141 2.381 . S
Cd133 O142 2.378 . S
O134 Cd135 2.385 . S
O134 C139 1.255 . S
Cd135 O134 2.385 . S
Cd135 O136 2.317 . S
O136 Cd135 2.317 . S
O136 C137 1.232 . S
C137 O136 1.232 . S
C137 O138 1.218 . S
O138 C137 1.218 . S
C139 O132 1.275 . S
C139 O134 1.255 . S
C140 O141 1.258 . S
C140 O142 1.256 . S
O141 Cd133 2.381 . S
O141 C140 1.258 . S
O142 Cd133 2.378 . S
O142 C140 1.256 . S
O143 Cd144 2.300 . S
O143 C150 1.275 . S
Cd144 O143 2.300 . S
Cd144 O152 2.381 . S
Cd144 O153 2.378 . S
O145 Cd146 2.385 . S
O145 C150 1.255 . S
Cd146 O145 2.385 . S
Cd146 O147 2.317 1_455 S
O147 Cd146 2.317 1_655 S
O147 C148 1.232 . S
C148 O147 1.232 . S
C148 O149 1.230 . S
O149 C148 1.230 . S
C150 O143 1.275 . S
C150 O145 1.255 . S
C151 O152 1.258 . S
C151 O153 1.256 . S
O152 Cd144 2.381 . S
O152 C151 1.258 . S
O153 Cd144 2.378 . S
O153 C151 1.256 . S
O154 Cd155 2.300 . S
O154 C161 1.275 . S
Cd155 O154 2.300 . S
Cd155 O163 2.381 . S
Cd155 O164 2.378 . S
O156 Cd157 2.385 . S
O156 C161 1.255 . S
Cd157 O156 2.385 . S
Cd157 O158 2.317 . S
O158 Cd157 2.317 . S
O158 C159 1.232 . S
C159 O158 1.232 . S
C159 O160 1.218 . S
O160 C159 1.218 . S
C161 O154 1.275 . S
C161 O156 1.255 . S
C162 O163 1.258 . S
C162 O164 1.256 . S
O163 Cd155 2.381 . S
O163 C162 1.258 . S
O164 Cd155 2.378 . S
O164 C162 1.256 . S
O165 Cd166 2.300 . S
O165 C172 1.275 . S
Cd166 O165 2.300 . S
Cd166 O174 2.381 . S
Cd166 O175 2.378 . S
O167 Cd168 2.385 . S
O167 C172 1.255 . S
Cd168 O167 2.385 . S
Cd168 O169 2.317 . S
O169 Cd168 2.317 . S
O169 C170 1.232 . S
C170 O169 1.232 . S
C170 O171 1.218 . S
O171 C170 1.218 . S
C172 O165 1.275 . S
C172 O167 1.255 . S
C173 O174 1.258 . S
C173 O175 1.256 . S
O174 Cd166 2.381 . S
O174 C173 1.258 . S
O175 Cd166 2.378 . S
O175 C173 1.256 . S
C176 C177 1.363 . S
C176 C182 1.379 . S
C176 N184 1.356 . S
C177 C176 1.363 . S
C177 C183 1.363 . S
C178 C179 1.363 . S
C178 C183 1.379 . S
C178 N185 1.356 . S
C179 C178 1.363 . S
C179 C182 1.363 . S
N180 C182 1.356 . S
N180 H192 0.984 . S
N180 H193 0.985 . S
N181 C183 1.356 1_556 S
N181 H186 0.984 . S
N181 H187 0.985 . S
C182 C176 1.379 . S
C182 C179 1.363 . S
C182 N180 1.356 . S
C183 C177 1.363 . S
C183 C178 1.379 . S
C183 N181 1.356 1_554 S
N184 C176 1.356 . S
N184 H190 0.984 . S
N184 H191 0.984 . S
N185 C178 1.356 . S
N185 H188 0.984 . S
N185 H189 0.985 . S
H186 N181 0.984 . S
H187 N181 0.985 . S
H188 N185 0.984 . S
H189 N185 0.985 . S
H190 N184 0.984 . S
H191 N184 0.984 . S
H192 N180 0.984 . S
H193 N180 0.985 . S
C194 C195 1.363 . S
C194 C200 1.379 . S
C194 N202 1.356 . S
C195 C194 1.363 . S
C195 C201 1.363 . S
C196 C197 1.363 . S
C196 C201 1.379 . S
C196 N203 1.356 . S
C197 C196 1.363 . S
C197 C200 1.363 . S
N198 C200 1.356 . S
N198 H210 0.984 . S
N198 H211 0.985 . S
N199 C201 1.356 . S
N199 H204 0.984 . S
N199 H205 0.985 . S
C200 C194 1.379 . S
C200 C197 1.363 . S
C200 N198 1.356 . S
C201 C195 1.363 . S
C201 C196 1.379 . S
C201 N199 1.356 . S
N202 C194 1.356 . S
N202 H208 0.984 . S
N202 H209 0.984 . S
N203 C196 1.356 . S
N203 H206 0.984 . S
N203 H207 0.985 . S
H204 N199 0.984 . S
H205 N199 0.985 . S
H206 N203 0.984 . S
H207 N203 0.985 . S
H208 N202 0.984 . S
H209 N202 0.984 . S
H210 N198 0.984 . S
H211 N198 0.985 . S
C212 C213 1.363 . S
C212 C218 1.379 . S
C212 N220 1.356 1_556 S
C213 C212 1.363 . S
C213 C219 1.363 . S
C214 C215 1.363 . S
C214 C219 1.379 . S
C214 N221 1.356 . S
C215 C214 1.363 . S
C215 C218 1.363 . S
N216 C218 1.356 . S
N216 H228 0.984 . S
N216 H229 0.985 . S
N217 C219 1.356 . S
N217 H222 0.984 . S
N217 H223 0.985 . S
C218 C212 1.379 . S
C218 C215 1.363 . S
C218 N216 1.356 . S
C219 C213 1.363 . S
C219 C214 1.379 . S
C219 N217 1.356 . S
N220 C212 1.356 1_554 S
N220 H226 0.984 . S
N220 H227 0.984 . S
N221 C214 1.356 . S
N221 H224 0.984 . S
N221 H225 0.985 . S
H222 N217 0.984 . S
H223 N217 0.985 . S
H224 N221 0.984 . S
H225 N221 0.985 . S
H226 N220 0.984 . S
H227 N220 0.984 . S
H228 N216 0.984 . S
H229 N216 0.985 . S
C230 C231 1.363 . S
C230 C236 1.379 . S
C230 N238 1.356 . S
C231 C230 1.363 . S
C231 C237 1.363 . S
C232 C233 1.363 . S
C232 C237 1.379 . S
C232 N239 1.356 . S
C233 C232 1.363 . S
C233 C236 1.363 . S
N234 C236 1.356 1_455 S
N234 H246 0.984 . S
N234 H247 0.985 . S
N235 C237 1.356 . S
N235 H240 0.984 . S
N235 H241 0.985 . S
C236 C230 1.379 . S
C236 C233 1.363 . S
C236 N234 1.356 1_655 S
C237 C231 1.363 . S
C237 C232 1.379 . S
C237 N235 1.356 . S
N238 C230 1.356 . S
N238 H244 0.984 . S
N238 H245 0.984 . S
N239 C232 1.356 . S
N239 H242 0.984 . S
N239 H243 0.985 . S
H240 N235 0.984 . S
H241 N235 0.985 . S
H242 N239 0.984 . S
H243 N239 0.985 . S
H244 N238 0.984 . S
H245 N238 0.984 . S
H246 N234 0.984 . S
H247 N234 0.985 . S
C248 C249 1.363 . S
C248 C254 1.379 . S
C248 N256 1.356 . S
C249 C248 1.363 . S
C249 C255 1.363 . S
C250 C251 1.363 . S
C250 C255 1.379 . S
C250 N257 1.356 . S
C251 C250 1.363 . S
C251 C254 1.363 . S
N252 C254 1.356 . S
N252 H264 0.984 . S
N252 H265 0.985 . S
N253 C255 1.356 . S
N253 H258 0.984 . S
N253 H259 0.985 . S
C254 C248 1.379 . S
C254 C251 1.363 . S
C254 N252 1.356 . S
C255 C249 1.363 . S
C255 C250 1.379 . S
C255 N253 1.356 . S
N256 C248 1.356 . S
N256 H262 0.984 . S
N256 H263 0.984 . S
N257 C250 1.356 . S
N257 H260 0.984 . S
N257 H261 0.985 . S
H258 N253 0.984 . S
H259 N253 0.985 . S
H260 N257 0.984 . S
H261 N257 0.985 . S
H262 N256 0.984 . S
H263 N256 0.984 . S
H264 N252 0.984 . S
H265 N252 0.985 . S
C266 C267 1.363 . S
C266 C272 1.379 . S
C266 N274 1.369 . S
C267 C266 1.363 . S
C267 C273 1.363 . S
C268 C269 1.363 . S
C268 C273 1.379 . S
C268 N275 1.356 . S
C269 C268 1.363 . S
C269 C272 1.363 . S
N270 C272 1.356 . S
N270 H282 0.984 . S
N270 H283 0.985 . S
N271 C273 1.356 . S
N271 H276 0.984 . S
N271 H277 0.985 . S
C272 C266 1.379 . S
C272 C269 1.363 . S
C272 N270 1.356 . S
C273 C267 1.363 . S
C273 C268 1.379 . S
C273 N271 1.356 . S
N274 C266 1.369 . S
N274 H280 0.981 1_655 S
N274 H281 0.976 1_655 S
N275 C268 1.356 . S
N275 H278 0.984 . S
N275 H279 0.985 . S
H276 N271 0.984 . S
H277 N271 0.985 . S
H278 N275 0.984 . S
H279 N275 0.985 . S
H280 N274 0.981 1_455 S
H281 N274 0.976 1_455 S
H282 N270 0.984 . S
H283 N270 0.985 . S
C284 C285 1.363 . S
C284 C290 1.379 . S
C284 N292 1.356 . S
C285 C284 1.363 . S
C285 C291 1.363 . S
C286 C287 1.363 . S
C286 C291 1.379 . S
C286 N293 1.356 . S
C287 C286 1.363 . S
C287 C290 1.363 . S
N288 C290 1.356 . S
N288 H300 0.984 . S
N288 H301 0.985 . S
N289 C291 1.356 . S
N289 H294 0.984 . S
N289 H295 0.985 . S
C290 C284 1.379 . S
C290 C287 1.363 . S
C290 N288 1.356 . S
C291 C285 1.363 . S
C291 C286 1.379 . S
C291 N289 1.356 . S
N292 C284 1.356 . S
N292 H298 0.984 . S
N292 H299 0.984 . S
N293 C286 1.356 . S
N293 H296 0.984 . S
N293 H297 0.985 . S
H294 N289 0.984 . S
H295 N289 0.985 . S
H296 N293 0.984 . S
H297 N293 0.985 . S
H298 N292 0.984 . S
H299 N292 0.984 . S
H300 N288 0.984 . S
H301 N288 0.985 . S
C302 C303 1.363 . S
C302 C308 1.379 . S
C302 N310 1.356 . S
C303 C302 1.363 . S
C303 C309 1.363 . S
C304 C305 1.363 . S
C304 C309 1.379 . S
C304 N311 1.356 . S
C305 C304 1.363 . S
C305 C308 1.363 . S
N306 C308 1.356 . S
N306 H318 0.984 . S
N306 H319 0.985 . S
N307 C309 1.356 . S
N307 H312 0.984 . S
N307 H313 0.985 . S
C308 C302 1.379 . S
C308 C305 1.363 . S
C308 N306 1.356 . S
C309 C303 1.363 . S
C309 C304 1.379 . S
C309 N307 1.356 . S
N310 C302 1.356 . S
N310 H316 0.984 . S
N310 H317 0.984 . S
N311 C304 1.356 . S
N311 H314 0.984 . S
N311 H315 0.985 . S
H312 N307 0.984 . S
H313 N307 0.985 . S
H314 N311 0.984 . S
H315 N311 0.985 . S
H316 N310 0.984 . S
H317 N310 0.984 . S
H318 N306 0.984 . S
H319 N306 0.985 . S
C320 C321 1.363 . S
C320 C326 1.379 . S
C320 N328 1.356 1_655 S
C321 C320 1.363 . S
C321 C327 1.363 . S
C322 C323 1.363 . S
C322 C327 1.379 . S
C322 N329 1.356 . S
C323 C322 1.363 . S
C323 C326 1.363 . S
N324 C326 1.356 . S
N324 H336 0.984 . S
N324 H337 0.985 . S
N325 C327 1.356 . S
N325 H330 0.984 . S
N325 H331 0.985 . S
C326 C320 1.379 . S
C326 C323 1.363 . S
C326 N324 1.356 . S
C327 C321 1.363 . S
C327 C322 1.379 . S
C327 N325 1.356 . S
N328 C320 1.356 1_455 S
N328 H334 0.984 . S
N328 H335 0.984 . S
N329 C322 1.356 . S
N329 H332 0.984 . S
N329 H333 0.985 . S
H330 N325 0.984 . S
H331 N325 0.985 . S
H332 N329 0.984 . S
H333 N329 0.985 . S
H334 N328 0.984 . S
H335 N328 0.984 . S
H336 N324 0.984 . S
H337 N324 0.985 . S
C338 C339 1.363 . S
C338 C344 1.379 . S
C338 N346 1.356 . S
C339 C338 1.363 . S
C339 C345 1.363 . S
C340 C341 1.363 . S
C340 C345 1.379 . S
C340 N347 1.356 . S
C341 C340 1.363 . S
C341 C344 1.363 . S
N342 C344 1.356 . S
N342 H354 0.984 1_556 S
N342 H355 0.985 . S
N343 C345 1.356 . S
N343 H348 0.984 . S
N343 H349 0.985 . S
C344 C338 1.379 . S
C344 C341 1.363 . S
C344 N342 1.356 . S
C345 C339 1.363 . S
C345 C340 1.379 . S
C345 N343 1.356 . S
N346 C338 1.356 . S
N346 H352 0.984 . S
N346 H353 0.984 . S
N347 C340 1.356 . S
N347 H350 0.984 . S
N347 H351 0.985 . S
H348 N343 0.984 . S
H349 N343 0.985 . S
H350 N347 0.984 . S
H351 N347 0.985 . S
H352 N346 0.984 . S
H353 N346 0.984 . S
H354 N342 0.984 1_554 S
H355 N342 0.985 . S
C356 C357 1.363 . S
C356 C362 1.379 . S
C356 N364 1.356 . S
C357 C356 1.363 . S
C357 C363 1.363 . S
C358 C359 1.363 . S
C358 C363 1.379 . S
C358 N365 1.356 . S
C359 C358 1.363 . S
C359 C362 1.363 . S
N360 C362 1.356 . S
N360 H372 0.984 . S
N360 H373 0.985 . S
N361 C363 1.356 . S
N361 H366 0.984 . S
N361 H367 0.985 . S
C362 C356 1.379 . S
C362 C359 1.363 . S
C362 N360 1.356 . S
C363 C357 1.363 . S
C363 C358 1.379 . S
C363 N361 1.356 . S
N364 C356 1.356 . S
N364 H370 0.984 . S
N364 H371 0.984 . S
N365 C358 1.356 . S
N365 H368 0.984 . S
N365 H369 0.985 . S
H366 N361 0.984 . S
H367 N361 0.985 . S
H368 N365 0.984 . S
H369 N365 0.985 . S
H370 N364 0.984 . S
H371 N364 0.984 . S
H372 N360 0.984 . S
H373 N360 0.985 . S
C374 C375 1.363 . S
C374 C380 1.379 . S
C374 N382 1.356 . S
C375 C374 1.363 . S
C375 C381 1.363 . S
C376 C377 1.363 . S
C376 C381 1.379 . S
C376 N383 1.356 1_554 S
C377 C376 1.363 . S
C377 C380 1.363 . S
N378 C380 1.356 . S
N378 H390 0.984 . S
N378 H391 0.985 . S
N379 C381 1.356 . S
N379 H384 0.984 . S
N379 H385 0.985 . S
C380 C374 1.379 . S
C380 C377 1.363 . S
C380 N378 1.356 . S
C381 C375 1.363 . S
C381 C376 1.379 . S
C381 N379 1.356 . S
N382 C374 1.356 . S
N382 H388 0.984 . S
N382 H389 0.984 . S
N383 C376 1.356 1_556 S
N383 H386 0.984 . S
N383 H387 0.985 . S
H384 N379 0.984 . S
H385 N379 0.985 . S
H386 N383 0.984 . S
H387 N383 0.985 . S
H388 N382 0.984 . S
H389 N382 0.984 . S
H390 N378 0.984 . S
H391 N378 0.985 . S
C392 C393 1.363 . S
C392 C398 1.379 . S
C392 N400 1.356 . S
C393 C392 1.363 . S
C393 C399 1.363 . S
C394 C395 1.363 . S
C394 C399 1.379 . S
C394 N401 1.356 . S
C395 C394 1.363 . S
C395 C398 1.363 . S
N396 C398 1.356 . S
N396 H408 0.984 . S
N396 H409 0.985 . S
N397 C399 1.356 1_455 S
N397 H402 0.984 . S
N397 H403 0.985 . S
C398 C392 1.379 . S
C398 C395 1.363 . S
C398 N396 1.356 . S
C399 C393 1.363 . S
C399 C394 1.379 . S
C399 N397 1.356 1_655 S
N400 C392 1.356 . S
N400 H406 0.984 . S
N400 H407 0.984 . S
N401 C394 1.356 . S
N401 H404 0.984 . S
N401 H405 0.985 . S
H402 N397 0.984 . S
H403 N397 0.985 . S
H404 N401 0.984 . S
H405 N401 0.985 . S
H406 N400 0.984 . S
H407 N400 0.984 . S
H408 N396 0.984 . S
H409 N396 0.985 . S
C410 C411 1.363 . S
C410 C416 1.379 . S
C410 N418 1.356 . S
C411 C410 1.363 . S
C411 C417 1.363 . S
C412 C413 1.363 . S
C412 C417 1.379 . S
C412 N419 1.356 1_556 S
C413 C412 1.363 . S
C413 C416 1.363 . S
N414 C416 1.356 . S
N414 H426 0.984 . S
N414 H427 0.985 . S
N415 C417 1.356 . S
N415 H420 0.984 . S
N415 H421 0.986 . S
C416 C410 1.379 . S
C416 C413 1.363 . S
C416 N414 1.356 . S
C417 C411 1.363 . S
C417 C412 1.379 . S
C417 N415 1.356 . S
N418 C410 1.356 . S
N418 H424 0.984 . S
N418 H425 0.984 . S
N419 C412 1.356 1_554 S
N419 H422 0.984 . S
N419 H423 0.985 . S
H420 N415 0.984 . S
H421 N415 0.986 . S
H422 N419 0.984 . S
H423 N419 0.985 . S
H424 N418 0.984 . S
H425 N418 0.984 . S
H426 N414 0.984 . S
H427 N414 0.985 . S
C428 C429 1.363 . S
C428 C434 1.379 . S
C428 N436 1.356 . S
C429 C428 1.363 . S
C429 C435 1.363 . S
C430 C431 1.363 . S
C430 C435 1.379 . S
C430 N437 1.356 . S
C431 C430 1.363 . S
C431 C434 1.363 . S
N432 C434 1.356 . S
N432 H444 0.984 . S
N432 H445 0.985 . S
N433 C435 1.356 . S
N433 H438 0.984 . S
N433 H439 0.985 . S
C434 C428 1.379 . S
C434 C431 1.363 . S
C434 N432 1.356 . S
C435 C429 1.363 . S
C435 C430 1.379 . S
C435 N433 1.356 . S
N436 C428 1.356 . S
N436 H442 0.984 . S
N436 H443 0.984 . S
N437 C430 1.356 . S
N437 H440 0.984 . S
N437 H441 0.985 . S
H438 N433 0.984 . S
H439 N433 0.985 . S
H440 N437 0.984 . S
H441 N437 0.985 . S
H442 N436 0.984 . S
H443 N436 0.984 . S
H444 N432 0.984 . S
H445 N432 0.985 . S
C446 C447 1.363 . S
C446 C452 1.379 . S
C446 N454 1.356 . S
C447 C446 1.363 . S
C447 C453 1.363 . S
C448 C449 1.363 . S
C448 C453 1.379 . S
C448 N455 1.356 . S
C449 C448 1.363 . S
C449 C452 1.363 . S
N450 C452 1.356 . S
N450 H462 0.984 . S
N450 H463 0.985 . S
N451 C453 1.356 1_556 S
N451 H456 0.984 . S
N451 H457 0.985 . S
C452 C446 1.379 . S
C452 C449 1.363 . S
C452 N450 1.356 . S
C453 C447 1.363 . S
C453 C448 1.379 . S
C453 N451 1.356 1_554 S
N454 C446 1.356 . S
N454 H460 0.984 . S
N454 H461 0.984 . S
N455 C448 1.356 . S
N455 H458 0.984 . S
N455 H459 0.985 1_554 S
H456 N451 0.984 . S
H457 N451 0.985 . S
H458 N455 0.984 . S
H459 N455 0.985 1_556 S
H460 N454 0.984 . S
H461 N454 0.984 . S
H462 N450 0.984 . S
H463 N450 0.985 . S
C464 C465 1.363 1_556 S
C464 C470 1.379 . S
C464 N472 1.356 . S
C465 C464 1.363 1_554 S
C465 C471 1.363 . S
C466 C467 1.363 1_554 S
C466 C471 1.379 . S
C466 N473 1.356 . S
C467 C466 1.363 1_556 S
C467 C470 1.363 . S
N468 C470 1.356 . S
N468 H480 0.984 . S
N468 H481 0.985 . S
N469 C471 1.356 . S
N469 H474 0.984 . S
N469 H475 0.985 . S
C470 C464 1.379 . S
C470 C467 1.363 . S
C470 N468 1.356 . S
C471 C465 1.363 . S
C471 C466 1.379 . S
C471 N469 1.356 . S
N472 C464 1.356 . S
N472 H478 0.984 . S
N472 H479 0.984 1_556 S
N473 C466 1.356 . S
N473 H476 0.984 1_554 S
N473 H477 0.985 . S
H474 N469 0.984 . S
H475 N469 0.985 . S
H476 N473 0.984 1_556 S
H477 N473 0.985 . S
H478 N472 0.984 . S
H479 N472 0.984 1_554 S
H480 N468 0.984 . S
H481 N468 0.985 . S
C482 C483 1.363 . S
C482 C488 1.379 . S
C482 N490 1.356 . S
C483 C482 1.363 . S
C483 C489 1.363 . S
C484 C485 1.363 . S
C484 C489 1.379 . S
C484 N491 1.356 . S
C485 C484 1.363 . S
C485 C488 1.363 . S
N486 C488 1.356 . S
N486 H498 0.984 . S
N486 H499 0.985 . S
N487 C489 1.356 . S
N487 H492 0.984 . S
N487 H493 0.985 . S
C488 C482 1.379 . S
C488 C485 1.363 . S
C488 N486 1.356 . S
C489 C483 1.363 . S
C489 C484 1.379 . S
C489 N487 1.356 . S
N490 C482 1.356 . S
N490 H496 0.984 . S
N490 H497 0.984 . S
N491 C484 1.356 . S
N491 H494 0.984 . S
N491 H495 0.985 . S
H492 N487 0.984 . S
H493 N487 0.985 . S
H494 N491 0.984 . S
H495 N491 0.985 . S
H496 N490 0.984 . S
H497 N490 0.984 . S
H498 N486 0.984 . S
H499 N486 0.985 . S
C500 C501 1.363 . S
C500 C506 1.379 . S
C500 N508 1.356 . S
C501 C500 1.363 . S
C501 C507 1.363 . S
C502 C503 1.363 . S
C502 C507 1.379 . S
C502 N509 1.356 . S
C503 C502 1.363 . S
C503 C506 1.363 . S
N504 C506 1.356 . S
N504 H516 0.984 . S
N504 H517 0.985 . S
N505 C507 1.356 . S
N505 H510 0.984 . S
N505 H511 0.985 . S
C506 C500 1.379 . S
C506 C503 1.363 . S
C506 N504 1.356 . S
C507 C501 1.363 . S
C507 C502 1.379 . S
C507 N505 1.356 . S
N508 C500 1.356 . S
N508 H514 0.984 . S
N508 H515 0.984 . S
N509 C502 1.356 . S
N509 H512 0.984 . S
N509 H513 0.985 . S
H510 N505 0.984 . S
H511 N505 0.985 . S
H512 N509 0.984 . S
H513 N509 0.985 . S
H514 N508 0.984 . S
H515 N508 0.984 . S
H516 N504 0.984 . S
H517 N504 0.985 . S
C518 C519 1.363 . S
C518 C524 1.379 . S
C518 N526 1.356 . S
C519 C518 1.363 . S
C519 C525 1.363 . S
C520 C521 1.363 . S
C520 C525 1.379 . S
C520 N527 1.356 . S
C521 C520 1.363 . S
C521 C524 1.363 . S
N522 C524 1.356 . S
N522 H534 0.984 . S
N522 H535 0.985 . S
N523 C525 1.356 . S
N523 H528 0.984 . S
N523 H529 0.985 . S
C524 C518 1.379 . S
C524 C521 1.363 . S
C524 N522 1.356 . S
C525 C519 1.363 . S
C525 C520 1.379 . S
C525 N523 1.356 . S
N526 C518 1.356 . S
N526 H532 0.984 . S
N526 H533 0.984 . S
N527 C520 1.356 . S
N527 H530 0.984 . S
N527 H531 0.985 . S
H528 N523 0.984 . S
H529 N523 0.985 . S
H530 N527 0.984 . S
H531 N527 0.985 . S
H532 N526 0.984 . S
H533 N526 0.984 . S
H534 N522 0.984 . S
H535 N522 0.985 . S
C536 C537 1.363 1_556 S
C536 C542 1.379 . S
C536 N544 1.356 . S
C537 C536 1.363 1_554 S
C537 C543 1.363 . S
C538 C539 1.363 . S
C538 C543 1.379 . S
C538 N545 1.356 . S
C539 C538 1.363 . S
C539 C542 1.363 1_554 S
N540 C542 1.356 . S
N540 H552 0.984 . S
N540 H553 0.985 . S
N541 C543 1.356 . S
N541 H546 0.984 . S
N541 H547 0.985 . S
C542 C536 1.379 . S
C542 C539 1.363 1_556 S
C542 N540 1.356 . S
C543 C537 1.363 . S
C543 C538 1.379 . S
C543 N541 1.356 . S
N544 C536 1.356 . S
N544 H550 0.984 . S
N544 H551 0.984 . S
N545 C538 1.356 . S
N545 H548 0.984 . S
N545 H549 0.985 . S
H546 N541 0.984 . S
H547 N541 0.985 . S
H548 N545 0.984 . S
H549 N545 0.985 . S
H550 N544 0.984 . S
H551 N544 0.984 . S
H552 N540 0.984 . S
H553 N540 0.985 . S
C554 C555 1.363 . S
C554 C560 1.379 . S
C554 N562 1.356 . S
C555 C554 1.363 . S
C555 C561 1.363 1_556 S
C556 C557 1.363 1_554 S
C556 C561 1.379 . S
C556 N563 1.356 . S
C557 C556 1.363 1_556 S
C557 C560 1.363 . S
N558 C560 1.356 . S
N558 H570 0.984 . S
N558 H571 0.985 . S
N559 C561 1.356 . S
N559 H564 0.984 . S
N559 H565 0.985 . S
C560 C554 1.379 . S
C560 C557 1.363 . S
C560 N558 1.356 . S
C561 C555 1.363 1_554 S
C561 C556 1.379 . S
C561 N559 1.356 . S
N562 C554 1.356 . S
N562 H568 0.984 . S
N562 H569 0.984 . S
N563 C556 1.356 . S
N563 H566 0.984 . S
N563 H567 0.985 . S
H564 N559 0.984 . S
H565 N559 0.985 . S
H566 N563 0.984 . S
H567 N563 0.985 . S
H568 N562 0.984 . S
H569 N562 0.984 . S
H570 N558 0.984 . S
H571 N558 0.985 . S
C572 C573 1.363 1_545 S
C572 C578 1.379 . S
C572 N580 1.356 . S
C573 C572 1.363 1_565 S
C573 C579 1.363 . S
C574 C575 1.363 1_565 S
C574 C579 1.379 . S
C574 N581 1.356 . S
C575 C574 1.363 1_545 S
C575 C578 1.363 . S
N576 C578 1.356 . S
N576 H588 0.984 . S
N576 H589 0.985 . S
N577 C579 1.356 . S
N577 H582 0.984 . S
N577 H583 0.985 . S
C578 C572 1.379 . S
C578 C575 1.363 . S
C578 N576 1.356 . S
C579 C573 1.363 . S
C579 C574 1.379 . S
C579 N577 1.356 . S
N580 C572 1.356 . S
N580 H586 0.984 . S
N580 H587 0.984 1_545 S
N581 C574 1.356 . S
N581 H584 0.985 1_565 S
N581 H585 0.984 . S
H582 N577 0.984 . S
H583 N577 0.985 . S
H584 N581 0.985 1_545 S
H585 N581 0.984 . S
H586 N580 0.984 . S
H587 N580 0.984 1_565 S
H588 N576 0.984 . S
H589 N576 0.985 . S
C590 C591 1.363 1_554 S
C590 C596 1.379 . S
C590 N598 1.356 . S
C591 C590 1.363 1_556 S
C591 C597 1.363 1_545 S
C592 C593 1.363 1_556 S
C592 C597 1.379 . S
C592 N599 1.356 . S
C593 C592 1.363 1_554 S
C593 C596 1.363 1_565 S
N594 C596 1.356 . S
N594 H606 0.984 . S
N594 H607 0.985 1_545 S
N595 C597 1.356 . S
N595 H600 0.984 1_565 S
N595 H601 0.985 . S
C596 C590 1.379 . S
C596 C593 1.363 1_545 S
C596 N594 1.356 . S
C597 C591 1.363 1_565 S
C597 C592 1.379 . S
C597 N595 1.356 . S
N598 C590 1.356 . S
N598 H604 0.984 . S
N598 H605 0.984 1_554 S
N599 C592 1.356 . S
N599 H602 0.984 1_556 S
N599 H603 0.985 . S
H600 N595 0.984 1_545 S
H601 N595 0.985 . S
H602 N599 0.984 1_554 S
H603 N599 0.985 . S
H604 N598 0.984 . S
H605 N598 0.984 1_556 S
H606 N594 0.984 . S
H607 N594 0.985 1_565 S
C177 C106 1.684 . S
C179 C7 1.697 . S
C195 C16 1.305 . S
C197 C161 1.684 . S
C213 C95 1.455 . S
C215 C27 1.229 . S
C231 C38 1.386 . S
C233 C170 1.267 1_655 S
C249 C51 1.684 . S
C251 C115 1.305 . S
C267 C148 1.229 . S
C269 C62 1.456 . S
C285 C126 1.387 . S
C287 C71 1.267 . S
C303 C139 1.697 . S
C305 C84 1.684 . S
C321 C49 1.374 1_655 S
C323 C40 1.507 . S
C339 C137 1.375 . S
C341 C93 1.222 . S
C357 C73 1.575 . S
C359 C18 1.571 . S
C375 C150 1.570 . S
C377 C104 1.615 . S
C393 C5 1.376 1_655 S
C395 C60 1.223 . S
C411 C172 1.575 . S
C413 C117 1.571 . S
C429 C82 1.616 . S
C431 C29 1.571 . S
C447 C128 1.508 . S
C449 C159 1.375 . S
C465 C8 1.648 . S
C467 C52 1.650 . S
C483 C19 1.565 . S
C485 C63 1.547 . S
C501 C30 1.580 . S
C503 C74 1.578 . S
C519 C41 1.583 . S
C521 C85 1.581 . S
C537 C96 1.547 1_554 S
C539 C118 1.565 1_554 S
C555 C129 1.584 . S
C557 C107 1.582 . S
C573 C162 1.650 . S
C575 C140 1.649 . S
C591 C173 1.578 . S
C593 C151 1.580 . S
