# Generated by pormake.
# Topology wme, (6)-cn, num edge types: 1
# Building blocks:
#     Node 0, Type 0, BuildingBlock: KUMJIN_clean_sbu_1, # of connection points: 6
#     Node 1, Type 0, BuildingBlock: KUMJIN_clean_sbu_1, # of connection points: 6
#     Node 2, Type 0, BuildingBlock: KUMJIN_clean_sbu_1, # of connection points: 6
#     Node 3, Type 0, BuildingBlock: KUMJIN_clean_sbu_1, # of connection points: 6
#     Node 4, Type 0, BuildingBlock: KUMJIN_clean_sbu_1, # of connection points: 6
#     Node 5, Type 0, BuildingBlock: KUMJIN_clean_sbu_1, # of connection points: 6
#     Node 6, Type 0, BuildingBlock: KUMJIN_clean_sbu_1, # of connection points: 6
#     Node 7, Type 0, BuildingBlock: KUMJIN_clean_sbu_1, # of connection points: 6
#     Node 8, Type 0, BuildingBlock: KUMJIN_clean_sbu_1, # of connection points: 6
#     Node 9, Type 0, BuildingBlock: KUMJIN_clean_sbu_1, # of connection points: 6
#     Node 10, Type 0, BuildingBlock: KUMJIN_clean_sbu_1, # of connection points: 6
#     Node 11, Type 0, BuildingBlock: KUMJIN_clean_sbu_1, # of connection points: 6
#     Edge 12, Type (0, 0), BuildingBlock: ZUJKAS_clean_linker_0, # of connection points: 2
#     Edge 13, Type (0, 0), BuildingBlock: ZUJKAS_clean_linker_0, # of connection points: 2
#     Edge 14, Type (0, 0), BuildingBlock: ZUJKAS_clean_linker_0, # of connection points: 2
#     Edge 15, Type (0, 0), BuildingBlock: ZUJKAS_clean_linker_0, # of connection points: 2
#     Edge 16, Type (0, 0), BuildingBlock: ZUJKAS_clean_linker_0, # of connection points: 2
#     Edge 17, Type (0, 0), BuildingBlock: ZUJKAS_clean_linker_0, # of connection points: 2
#     Edge 18, Type (0, 0), BuildingBlock: ZUJKAS_clean_linker_0, # of connection points: 2
#     Edge 19, Type (0, 0), BuildingBlock: ZUJKAS_clean_linker_0, # of connection points: 2
#     Edge 20, Type (0, 0), BuildingBlock: ZUJKAS_clean_linker_0, # of connection points: 2
#     Edge 21, Type (0, 0), BuildingBlock: ZUJKAS_clean_linker_0, # of connection points: 2
#     Edge 22, Type (0, 0), BuildingBlock: ZUJKAS_clean_linker_0, # of connection points: 2
#     Edge 23, Type (0, 0), BuildingBlock: ZUJKAS_clean_linker_0, # of connection points: 2
#     Edge 24, Type (0, 0), BuildingBlock: ZUJKAS_clean_linker_0, # of connection points: 2
#     Edge 25, Type (0, 0), BuildingBlock: ZUJKAS_clean_linker_0, # of connection points: 2
#     Edge 26, Type (0, 0), BuildingBlock: ZUJKAS_clean_linker_0, # of connection points: 2
#     Edge 27, Type (0, 0), BuildingBlock: ZUJKAS_clean_linker_0, # of connection points: 2
#     Edge 28, Type (0, 0), BuildingBlock: ZUJKAS_clean_linker_0, # of connection points: 2
#     Edge 29, Type (0, 0), BuildingBlock: ZUJKAS_clean_linker_0, # of connection points: 2
#     Edge 30, Type (0, 0), BuildingBlock: ZUJKAS_clean_linker_0, # of connection points: 2
#     Edge 31, Type (0, 0), BuildingBlock: ZUJKAS_clean_linker_0, # of connection points: 2
#     Edge 32, Type (0, 0), BuildingBlock: ZUJKAS_clean_linker_0, # of connection points: 2
#     Edge 33, Type (0, 0), BuildingBlock: ZUJKAS_clean_linker_0, # of connection points: 2
#     Edge 34, Type (0, 0), BuildingBlock: ZUJKAS_clean_linker_0, # of connection points: 2
#     Edge 35, Type (0, 0), BuildingBlock: ZUJKAS_clean_linker_0, # of connection points: 2
#     Edge 36, Type (0, 0), BuildingBlock: ZUJKAS_clean_linker_0, # of connection points: 2
#     Edge 37, Type (0, 0), BuildingBlock: ZUJKAS_clean_linker_0, # of connection points: 2
#     Edge 38, Type (0, 0), BuildingBlock: ZUJKAS_clean_linker_0, # of connection points: 2
#     Edge 39, Type (0, 0), BuildingBlock: ZUJKAS_clean_linker_0, # of connection points: 2
#     Edge 40, Type (0, 0), BuildingBlock: ZUJKAS_clean_linker_0, # of connection points: 2
#     Edge 41, Type (0, 0), BuildingBlock: ZUJKAS_clean_linker_0, # of connection points: 2
#     Edge 42, Type (0, 0), BuildingBlock: ZUJKAS_clean_linker_0, # of connection points: 2
#     Edge 43, Type (0, 0), BuildingBlock: ZUJKAS_clean_linker_0, # of connection points: 2
#     Edge 44, Type (0, 0), BuildingBlock: ZUJKAS_clean_linker_0, # of connection points: 2
#     Edge 45, Type (0, 0), BuildingBlock: ZUJKAS_clean_linker_0, # of connection points: 2
#     Edge 46, Type (0, 0), BuildingBlock: ZUJKAS_clean_linker_0, # of connection points: 2
#     Edge 47, Type (0, 0), BuildingBlock: ZUJKAS_clean_linker_0, # of connection points: 2
# Relax obj value: 0.062
# Max RMSD: 0.165
# Mean RMSD: 0.165
data_MOF--net-wme--node1-KUMJIN_clean_sbu_1--edge1-ZUJKAS_clean_linker_0
_symmetry_space_group_name_H-M    P1
_symmetry_Int_Tables_number       1
_symmetry_cell_setting            triclinic
loop_
_symmetry_equiv_pos_as_xyz
'x, y, z'
_cell_length_a     48.299706
_cell_length_b     48.40791
_cell_length_c     69.920612
_cell_angle_alpha  90.066179
_cell_angle_beta   90.01071
_cell_angle_gamma 120.03518
loop_
_atom_site_label
_atom_site_type_symbol
_atom_site_fract_x
_atom_site_fract_y
_atom_site_fract_z
_atom_type_partial_charge
Eu0 Eu 0.2229 0.31153 0.13982 0.0
C1 C 0.12938 0.33881 0.08897 0.0
N2 N 0.16128 0.35132 0.08613 0.0
C3 C 0.15318 0.34482 0.05226 0.0
C4 C 0.10794 0.32825 0.07339 0.0
C5 C 0.17347 0.35456 0.06816 0.0
C6 C 0.12026 0.33153 0.05488 0.0
C7 C 0.08495 0.32209 0.11097 0.0
C8 C 0.11805 0.3358 0.10757 0.0
C9 C 0.06352 0.3113 0.0955 0.0
C10 C 0.07498 0.31447 0.07677 0.0
Eu11 Eu 0.1938 0.36698 0.11361 0.0
N12 N 0.13934 0.34578 0.12232 0.0
C13 C 0.07437 0.31972 0.12983 0.0
C14 C 0.12923 0.34538 0.14058 0.0
C15 C 0.09666 0.33182 0.14467 0.0
H16 H 0.19894 0.36507 0.06605 0.0
H17 H 0.08881 0.33112 0.15925 0.0
H18 H 0.21528 0.31592 0.18716 0.0
H19 H 0.33017 0.34969 0.09613 0.0
H20 H 0.14598 0.35616 0.15206 0.0
H21 H 0.04914 0.30926 0.13304 0.0
H22 H 0.27256 0.32445 0.10221 0.0
H23 H 0.16293 0.34754 0.03801 0.0
H24 H 0.03802 0.30057 0.09787 0.0
H25 H 0.05814 0.30609 0.06498 0.0
H26 H 0.25017 0.33648 0.21564 0.0
H27 H 0.10458 0.32383 0.04254 0.0
H28 H 0.36845 0.3722 0.123 0.0
N29 N 0.25393 0.33027 0.16778 0.0
C30 C 0.28603 0.34322 0.16548 0.0
C31 C 0.26057 0.33868 0.20162 0.0
C32 C 0.3068 0.35508 0.18134 0.0
C33 C 0.24092 0.3274 0.18548 0.0
C34 C 0.29366 0.3527 0.19954 0.0
N35 N 0.2777 0.33453 0.13196 0.0
C36 C 0.28875 0.33511 0.11395 0.0
C37 C 0.33153 0.35955 0.14433 0.0
C38 C 0.29826 0.34541 0.14712 0.0
C39 C 0.34305 0.36148 0.12573 0.0
C40 C 0.32154 0.34897 0.11051 0.0
H41 H 0.30884 0.36151 0.21208 0.0
H42 H 0.35624 0.37834 0.19058 0.0
H43 H 0.37786 0.38229 0.15823 0.0
O44 O 0.22176 0.26722 0.13045 0.0
O45 O 0.25472 0.36573 0.14228 0.0
O46 O 0.24489 0.37857 0.11302 0.0
O47 O 0.2133 0.27437 0.16036 0.0
O48 O 0.21355 0.3041 0.10789 0.0
O49 O 0.22251 0.35181 0.09449 0.0
O50 O 0.19601 0.41107 0.12381 0.0
O51 O 0.16134 0.31342 0.11042 0.0
O52 O 0.16973 0.29418 0.13853 0.0
O53 O 0.21021 0.40832 0.09499 0.0
O54 O 0.20292 0.37239 0.14615 0.0
O55 O 0.18832 0.32141 0.15566 0.0
C56 C 0.26225 0.38647 0.12844 0.0
C57 C 0.21233 0.22509 0.15358 0.0
C58 C 0.20285 0.17191 0.14618 0.0
C59 C 0.20528 0.16674 0.16569 0.0
C60 C 0.21473 0.21942 0.17307 0.0
C61 C 0.21126 0.19043 0.17904 0.0
C62 C 0.20654 0.20121 0.14004 0.0
C63 C 0.21984 0.32324 0.09312 0.0
C64 C 0.21592 0.25597 0.14785 0.0
C65 C 0.33992 0.36908 0.17856 0.0
C66 C 0.35224 0.37134 0.16012 0.0
C67 C 0.15254 0.29072 0.1232 0.0
C68 C 0.18736 0.44121 0.10003 0.0
C69 C 0.17609 0.48516 0.10166 0.0
C70 C 0.15899 0.47458 0.08444 0.0
C71 C 0.16962 0.43088 0.08295 0.0
C72 C 0.19016 0.46827 0.10954 0.0
C73 C 0.15559 0.44749 0.07526 0.0
C74 C 0.1946 0.35043 0.15955 0.0
C75 C 0.20453 0.42512 0.10724 0.0
H76 H 0.20259 0.14428 0.17057 0.0
H77 H 0.21942 0.23749 0.18375 0.0
H78 H 0.21319 0.1863 0.19407 0.0
H79 H 0.20464 0.20519 0.12496 0.0
H80 H 0.14806 0.48727 0.07815 0.0
H81 H 0.16697 0.41026 0.07531 0.0
H82 H 0.20382 0.47659 0.12268 0.0
H83 H 0.14226 0.4395 0.06201 0.0
Eu84 Eu 0.91896 0.22078 0.63617 0.0
C85 C 0.79381 0.11968 0.59133 0.0
N86 N 0.81576 0.15053 0.58731 0.0
C87 C 0.81681 0.13709 0.55444 0.0
C88 C 0.78285 0.09612 0.57692 0.0
C89 C 0.82699 0.15963 0.56916 0.0
C90 C 0.79473 0.10518 0.55833 0.0
C91 C 0.75993 0.07968 0.61453 0.0
C92 C 0.78277 0.11155 0.61003 0.0
C93 C 0.74902 0.05619 0.60021 0.0
C94 C 0.76049 0.06437 0.58148 0.0
Eu95 Eu 0.83081 0.18685 0.61296 0.0
N96 N 0.79443 0.13463 0.6238 0.0
C97 C 0.74869 0.07233 0.63333 0.0
C98 C 0.78229 0.12779 0.64191 0.0
C99 C 0.75971 0.09655 0.64702 0.0
H100 H 0.84338 0.18436 0.5659 0.0
H101 H 0.75048 0.09125 0.66147 0.0
H102 H 0.9103 0.22291 0.68349 0.0
H103 H 0.98772 0.31817 0.58583 0.0
H104 H 0.78904 0.14627 0.65245 0.0
H105 H 0.73117 0.04816 0.63735 0.0
H106 H 0.95776 0.26236 0.59645 0.0
H107 H 0.82583 0.14438 0.54006 0.0
H108 H 0.73164 0.03159 0.60346 0.0
H109 H 0.75183 0.04595 0.57059 0.0
H110 H 0.92593 0.26325 0.70913 0.0
H111 H 0.78687 0.08777 0.54688 0.0
H112 H 1.00104 0.36166 0.60906 0.0
N113 N 0.93205 0.25727 0.66149 0.0
C114 C 0.95028 0.28867 0.65689 0.0
C115 C 0.93251 0.27068 0.69448 0.0
C116 C 0.95957 0.31247 0.67104 0.0
C117 C 0.92347 0.24793 0.67995 0.0
C118 C 0.95042 0.30309 0.69001 0.0
N119 N 0.94944 0.2735 0.62441 0.0
C120 C 0.96104 0.28079 0.60624 0.0
C121 C 0.9773 0.32944 0.63267 0.0
C122 C 0.9588 0.29701 0.63782 0.0
C123 C 0.98679 0.33704 0.61359 0.0
C124 C 0.9791 0.31258 0.6004 0.0
H125 H 0.95725 0.32065 0.70131 0.0
H126 H 0.98474 0.36336 0.67651 0.0
H127 H 1.00037 0.37821 0.64297 0.0
O128 O 0.96356 0.22188 0.62757 0.0
O129 O 0.89306 0.2492 0.64049 0.0
O130 O 0.8689 0.23828 0.61176 0.0
O131 O 0.94817 0.21476 0.65751 0.0
O132 O 0.91289 0.20767 0.60456 0.0
O133 O 0.87361 0.21777 0.5937 0.0
O134 O 0.79147 0.19494 0.62232 0.0
O135 O 0.85104 0.1536 0.61089 0.0
O136 O 0.88816 0.16685 0.6354 0.0
O137 O 0.80196 0.19397 0.59198 0.0
O138 O 0.83656 0.19553 0.64551 0.0
O139 O 0.87699 0.18548 0.65372 0.0
C140 C 0.87791 0.25551 0.62721 0.0
C141 C 0.99799 0.21613 0.65116 0.0
C142 C 0.0424 0.20722 0.64445 0.0
C143 C 0.05176 0.21354 0.66369 0.0
C144 C 1.00771 0.22223 0.67039 0.0
C145 C 0.03447 0.22098 0.67657 0.0
C146 C 0.01546 0.20856 0.63812 0.0
C147 C 0.89858 0.21408 0.59067 0.0
C148 C 0.96951 0.21755 0.64516 0.0
C149 C 0.97748 0.34474 0.66583 0.0
C150 C 0.98628 0.3532 0.64672 0.0
C151 C 0.86898 0.14736 0.62213 0.0
C152 C 0.75836 0.20333 0.59877 0.0
C153 C 0.70755 0.20177 0.6041 0.0
C154 C 0.71046 0.21552 0.58599 0.0
C155 C 0.7605 0.21697 0.58072 0.0
C156 C 0.73161 0.19551 0.61049 0.0
C157 C 0.7367 0.22298 0.5744 0.0
C158 C 0.85204 0.1881 0.65826 0.0
C159 C 0.78388 0.19678 0.60466 0.0
H160 H 0.07239 0.21244 0.66877 0.0
H161 H 0.99469 0.22813 0.68067 0.0
H162 H 0.04179 0.2257 0.6914 0.0
H163 H 1.00809 0.20349 0.62328 0.0
H164 H 0.69203 0.22001 0.58062 0.0
H165 H 0.78068 0.22304 0.5714 0.0
H166 H 0.72945 0.1846 0.62435 0.0
H167 H 0.73853 0.23333 0.56042 0.0
Eu168 Eu 0.706 0.91448 0.13667 0.0
C169 C 0.6785 0.79085 0.09084 0.0
N170 N 0.66718 0.81087 0.08685 0.0
C171 C 0.67734 0.80912 0.05346 0.0
C172 C 0.69018 0.77948 0.07612 0.0
C173 C 0.66633 0.82006 0.06852 0.0
C174 C 0.68935 0.78877 0.05727 0.0
C175 C 0.69224 0.76288 0.11438 0.0
C176 C 0.67969 0.78286 0.10981 0.0
C177 C 0.70387 0.75151 0.09976 0.0
C178 C 0.70281 0.75976 0.08069 0.0
Eu179 Eu 0.64894 0.8281 0.11298 0.0
N180 N 0.66894 0.79485 0.12377 0.0
C181 C 0.69255 0.75471 0.13352 0.0
C182 C 0.66733 0.78519 0.14227 0.0
C183 C 0.67965 0.76558 0.14748 0.0
H184 H 0.65679 0.83556 0.06547 0.0
H185 H 0.6787 0.75843 0.16224 0.0
H186 H 0.69784 0.90637 0.18419 0.0
H187 H 0.68325 0.99018 0.08852 0.0
H188 H 0.65574 0.79149 0.15309 0.0
H189 H 0.70199 0.73944 0.13761 0.0
H190 H 0.70557 0.95647 0.09788 0.0
H191 H 0.67657 0.81639 0.03893 0.0
H192 H 0.71369 0.73626 0.10304 0.0
H193 H 0.71198 0.75087 0.06958 0.0
H194 H 0.67498 0.92304 0.21055 0.0
H195 H 0.69807 0.78051 0.04558 0.0
H196 H 0.65607 0.00573 0.11263 0.0
N197 N 0.68666 0.93039 0.16288 0.0
C198 C 0.67472 0.94993 0.15889 0.0
C199 C 0.67467 0.9305 0.19607 0.0
C200 C 0.66165 0.96003 0.17349 0.0
C201 C 0.68728 0.92095 0.18114 0.0
C202 C 0.66166 0.94996 0.19223 0.0
N203 N 0.6876 0.94904 0.12622 0.0
C204 C 0.69197 0.96111 0.10817 0.0
C205 C 0.66294 0.97973 0.13556 0.0
C206 C 0.67509 0.9594 0.14006 0.0
C207 C 0.66506 0.99006 0.11666 0.0
C208 C 0.68016 0.98115 0.10298 0.0
H209 H 0.65186 0.95722 0.20385 0.0
H210 H 0.6387 0.98758 0.17998 0.0
H211 H 0.64001 1.005 0.14681 0.0
O212 O 0.75217 0.9523 0.12629 0.0
O213 O 0.65177 0.89311 0.13985 0.0
O214 O 0.63672 0.86703 0.11153 0.0
O215 O 0.74446 0.9433 0.15668 0.0
O216 O 0.71108 0.90941 0.10469 0.0
O217 O 0.66156 0.87074 0.09335 0.0
O218 O 0.60295 0.78734 0.12294 0.0
O219 O 0.70236 0.84953 0.1088 0.0
O220 O 0.72078 0.87684 0.13684 0.0
O221 O 0.61078 0.80068 0.09274 0.0
O222 O 0.64418 0.83381 0.14552 0.0
O223 O 0.6955 0.87136 0.15417 0.0
C224 C 0.63007 0.8785 0.12655 0.0
C225 C 0.78163 0.99588 0.14692 0.0
C226 C 0.8311 0.04665 0.14413 0.0
C227 C 0.81735 0.06139 0.15467 0.0
C228 C 0.76791 0.01093 0.15723 0.0
C229 C 0.78579 0.0436 0.16107 0.0
C230 C 0.81314 0.0139 0.1402 0.0
C231 C 0.69017 0.89613 0.09073 0.0
C232 C 0.76398 0.96139 0.14339 0.0
C233 C 0.64894 0.97969 0.16895 0.0
C234 C 0.64961 0.98954 0.15005 0.0
C235 C 0.72514 0.86393 0.12148 0.0
C236 C 0.55887 0.75616 0.10044 0.0
C237 C 0.51209 0.7034 0.1049 0.0
C238 C 0.49765 0.70858 0.08896 0.0
C239 C 0.54394 0.76078 0.0845 0.0
C240 C 0.54273 0.72734 0.11077 0.0
C241 C 0.51349 0.73715 0.07886 0.0
C242 C 0.66658 0.8487 0.15868 0.0
C243 C 0.59148 0.78135 0.10561 0.0
H244 H 0.83104 0.08666 0.1579 0.0
H245 H 0.74359 0.99744 0.16244 0.0
H246 H 0.77525 0.05511 0.16913 0.0
H247 H 0.82386 1.00239 0.13223 0.0
H248 H 0.47409 0.69036 0.08428 0.0
H249 H 0.55582 0.78275 0.07637 0.0
H250 H 0.55406 0.72333 0.123 0.0
H251 H 0.50219 0.74094 0.06656 0.0
Eu252 Eu 0.79139 0.69962 0.63751 0.0
C253 C 0.88301 0.66146 0.58759 0.0
N254 N 0.85238 0.65504 0.58524 0.0
C255 C 0.85996 0.66061 0.55125 0.0
C256 C 0.90352 0.6683 0.57175 0.0
C257 C 0.84042 0.65369 0.56734 0.0
C258 C 0.8917 0.66813 0.55346 0.0
C259 C 0.92529 0.6667 0.60876 0.0
C260 C 0.89374 0.66041 0.60586 0.0
C261 C 0.94581 0.67384 0.59303 0.0
C262 C 0.93495 0.67459 0.57458 0.0
Eu263 Eu 0.82079 0.64111 0.61329 0.0
N264 N 0.87357 0.65407 0.62088 0.0
C265 C 0.93537 0.66593 0.62742 0.0
C266 C 0.88295 0.65222 0.63903 0.0
C267 C 0.91406 0.65857 0.6426 0.0
H268 H 0.81555 0.64631 0.56523 0.0
H269 H 0.92149 0.65744 0.65705 0.0
H270 H 0.79525 0.69245 0.68482 0.0
H271 H 0.68787 0.66484 0.59075 0.0
H272 H 0.86646 0.64548 0.65079 0.0
H273 H 0.95946 0.67077 0.63023 0.0
H274 H 0.74496 0.68981 0.59844 0.0
H275 H 0.85037 0.6596 0.53711 0.0
H276 H 0.97012 0.67876 0.59499 0.0
H277 H 0.951 0.67991 0.56257 0.0
H278 H 0.7581 0.66931 0.71212 0.0
H279 H 0.90668 0.67318 0.54093 0.0
H280 H 0.64751 0.64001 0.61636 0.0
N281 N 0.75824 0.67866 0.66435 0.0
C282 C 0.72637 0.66594 0.66109 0.0
C283 C 0.74885 0.66798 0.69784 0.0
C284 C 0.70431 0.65279 0.67624 0.0
C285 C 0.76982 0.68061 0.68237 0.0
C286 C 0.71594 0.65385 0.69476 0.0
N287 N 0.73747 0.67728 0.62785 0.0
C288 C 0.72786 0.67808 0.60963 0.0
C289 C 0.68268 0.651 0.63863 0.0
C290 C 0.7157 0.66502 0.64237 0.0
C291 C 0.67267 0.65056 0.6198 0.0
C292 C 0.69537 0.6644 0.60528 0.0
H293 H 0.69973 0.64401 0.70678 0.0
H294 H 0.65415 0.62857 0.68393 0.0
H295 H 0.63524 0.62702 0.65109 0.0
O296 O 0.78401 0.74009 0.63219 0.0
O297 O 0.76172 0.64562 0.64179 0.0
O298 O 0.77162 0.63449 0.6125 0.0
O299 O 0.80754 0.73806 0.65862 0.0
O300 O 0.80118 0.70644 0.60571 0.0
O301 O 0.79611 0.65961 0.59299 0.0
O302 O 0.812 0.59502 0.62478 0.0
O303 O 0.86163 0.69158 0.61819 0.0
O304 O 0.84133 0.72528 0.62513 0.0
O305 O 0.8029 0.59909 0.59511 0.0
O306 O 0.8127 0.63931 0.64582 0.0
O307 O 0.82748 0.69137 0.65322 0.0
C308 C 0.75445 0.62507 0.62791 0.0
C309 C 0.80127 0.7845 0.65436 0.0
C310 C 0.81008 0.83751 0.64714 0.0
C311 C 0.8094 0.84313 0.66678 0.0
C312 C 0.80091 0.79065 0.67394 0.0
C313 C 0.80481 0.8198 0.68008 0.0
C314 C 0.80582 0.80805 0.64088 0.0
C315 C 0.79803 0.6878 0.59115 0.0
C316 C 0.7977 0.75383 0.64824 0.0
C317 C 0.67146 0.63883 0.67246 0.0
C318 C 0.66069 0.63792 0.65374 0.0
C319 C 0.86471 0.72004 0.62038 0.0
C320 C 0.82442 0.56591 0.60218 0.0
C321 C 0.84045 0.5258 0.60684 0.0
C322 C 0.86059 0.53785 0.59086 0.0
C323 C 0.84451 0.57711 0.58604 0.0
C324 C 0.82216 0.53978 0.61248 0.0
C325 C 0.86248 0.56324 0.5805 0.0
C326 C 0.82262 0.66314 0.6582 0.0
C327 C 0.80594 0.58146 0.60801 0.0
H328 H 0.81268 0.86577 0.67181 0.0
H329 H 0.79747 0.77285 0.6845 0.0
H330 H 0.80444 0.82438 0.69521 0.0
H331 H 0.80653 0.80372 0.62571 0.0
H332 H 0.87463 0.52726 0.58623 0.0
H333 H 0.84631 0.59651 0.57749 0.0
H334 H 0.8066 0.53061 0.62483 0.0
H335 H 0.87784 0.57215 0.56808 0.0
Eu336 Eu 0.10121 0.79371 0.13508 0.0
C337 C 0.22254 0.89267 0.0893 0.0
N338 N 0.20409 0.8609 0.0857 0.0
C339 C 0.2066 0.87089 0.05203 0.0
C340 C 0.23349 0.91493 0.07419 0.0
C341 C 0.19607 0.8497 0.06745 0.0
C342 C 0.2254 0.90363 0.0554 0.0
C343 C 0.24732 0.93602 0.11231 0.0
C344 C 0.22924 0.90308 0.10823 0.0
C345 C 0.25848 0.95818 0.09726 0.0
C346 C 0.25162 0.94767 0.07828 0.0
Eu347 Eu 0.18885 0.82707 0.11249 0.0
N348 N 0.21737 0.88112 0.12261 0.0
C349 C 0.25366 0.94579 0.13142 0.0
C350 C 0.22512 0.89055 0.14118 0.0
C351 C 0.24279 0.92293 0.14589 0.0
H352 H 0.18205 0.82437 0.06472 0.0
H353 H 0.24845 0.93022 0.16068 0.0
H354 H 0.10782 0.79429 0.18275 0.0
H355 H 0.02762 0.69446 0.08678 0.0
H356 H 0.21873 0.87348 0.15246 0.0
H357 H 0.2674 0.97087 0.13513 0.0
H358 H 0.06041 0.75068 0.09617 0.0
H359 H 0.2003 0.86195 0.03756 0.0
H360 H 0.27237 0.98355 0.10017 0.0
H361 H 0.26024 0.9651 0.06685 0.0
H362 H 0.09047 0.75518 0.20928 0.0
H363 H 0.2334 0.91999 0.04342 0.0
H364 H 0.01217 0.65204 0.11102 0.0
N365 N 0.08524 0.75874 0.16137 0.0
C366 C 0.0662 0.72718 0.1574 0.0
C367 C 0.08382 0.74714 0.19473 0.0
C368 C 0.05579 0.70422 0.17208 0.0
C369 C 0.09377 0.76909 0.1797 0.0
C370 C 0.06496 0.71459 0.19091 0.0
N371 N 0.06755 0.74055 0.12466 0.0
C372 C 0.05587 0.73258 0.10652 0.0
C373 C 0.03737 0.68525 0.13402 0.0
C374 C 0.05728 0.71782 0.13853 0.0
C375 C 0.0275 0.67678 0.11505 0.0
C376 C 0.03634 0.70062 0.10131 0.0
H377 H 0.05737 0.69769 0.20261 0.0
H378 H 0.02848 0.65377 0.17867 0.0
H379 H 0.01226 0.63716 0.14537 0.0
O380 O 0.06149 0.79896 0.12432 0.0
O381 O 0.12411 0.76221 0.13821 0.0
O382 O 0.15423 0.77425 0.11094 0.0
O383 O 0.07255 0.80406 0.1546 0.0
O384 O 0.10754 0.80388 0.10319 0.0
O385 O 0.14744 0.79434 0.09254 0.0
O386 O 0.23189 0.82865 0.12392 0.0
O387 O 0.16446 0.85625 0.10787 0.0
O388 O 0.137 0.84661 0.13578 0.0
O389 O 0.22242 0.8226 0.09361 0.0
O390 O 0.1828 0.81591 0.14491 0.0
O391 O 0.14334 0.827 0.15311 0.0
C392 C 0.14012 0.75555 0.12555 0.0
C393 C 0.01937 0.78811 0.14588 0.0
C394 C 0.96956 0.78906 0.14436 0.0
C395 C 0.95582 0.76373 0.15744 0.0
C396 C 1.00522 0.76238 0.1587 0.0
C397 C 0.97352 0.75027 0.16441 0.0
C398 C 1.00128 0.80104 0.13849 0.0
C399 C 0.12112 0.79587 0.08963 0.0
C400 C 0.05353 0.80372 0.1413 0.0
C401 C 0.03658 0.67175 0.16756 0.0
C402 C 0.02741 0.66229 0.14859 0.0
C403 C 0.14955 0.86404 0.12049 0.0
C404 C 0.25725 0.80569 0.10615 0.0
C405 C 0.30442 0.80048 0.11131 0.0
C406 C 0.2878 0.76948 0.10369 0.0
C407 C 0.24136 0.77504 0.09809 0.0
C408 C 0.28898 0.81851 0.11253 0.0
C409 C 0.25652 0.75695 0.09701 0.0
C410 C 0.16644 0.82165 0.15793 0.0
C411 C 0.24193 0.82537 0.10726 0.0
H412 H 0.93138 0.75437 0.1622 0.0
H413 H 0.01882 0.75213 0.16457 0.0
H414 H 0.96277 0.7307 0.17448 0.0
H415 H 0.01218 0.82109 0.12871 0.0
H416 H 0.29932 0.75526 0.1025 0.0
H417 H 0.21751 0.76533 0.09238 0.0
H418 H 0.30166 0.84246 0.11841 0.0
H419 H 0.2441 0.73328 0.09081 0.0
Eu420 Eu 0.31395 0.09393 0.63765 0.0
C421 C 0.34785 0.22055 0.58848 0.0
N422 N 0.3567 0.19828 0.58559 0.0
C423 C 0.35142 0.2013 0.55171 0.0
C424 C 0.34015 0.23395 0.57289 0.0
C425 C 0.35883 0.18867 0.56758 0.0
C426 C 0.34202 0.22402 0.55437 0.0
C427 C 0.3367 0.25261 0.61047 0.0
C428 C 0.34614 0.22974 0.60711 0.0
C429 C 0.3291 0.26602 0.59497 0.0
C430 C 0.33084 0.25674 0.57625 0.0
Eu431 Eu 0.37089 0.18008 0.61302 0.0
N432 N 0.35309 0.21593 0.6219 0.0
C433 C 0.33522 0.2614 0.62934 0.0
C434 C 0.35305 0.22558 0.64025 0.0
C435 C 0.34364 0.24798 0.64426 0.0
H436 H 0.36698 0.17183 0.56536 0.0
H437 H 0.3434 0.25527 0.65888 0.0
H438 H 0.32134 0.10346 0.6851 0.0
H439 H 0.34602 0.024 0.59022 0.0
H440 H 0.36109 0.21704 0.65191 0.0
H441 H 0.32808 0.27887 0.6325 0.0
H442 H 0.32119 0.05581 0.59868 0.0
H443 H 0.35323 0.19371 0.53743 0.0
H444 H 0.32184 0.28362 0.59732 0.0
H445 H 0.32489 0.26732 0.56444 0.0
H446 H 0.34364 0.08803 0.71213 0.0
H447 H 0.33638 0.23382 0.54203 0.0
H448 H 0.37198 0.00877 0.61528 0.0
N449 N 0.33481 0.08063 0.66425 0.0
C450 C 0.3474 0.06151 0.66072 0.0
C451 C 0.3453 0.08083 0.69773 0.0
C452 C 0.36041 0.05209 0.6757 0.0
C453 C 0.33306 0.08989 0.68241 0.0
C454 C 0.35928 0.06206 0.69436 0.0
N455 N 0.33592 0.06211 0.62767 0.0
C456 C 0.33394 0.05113 0.60949 0.0
C457 C 0.36188 0.03305 0.63788 0.0
C458 C 0.34821 0.05222 0.64194 0.0
C459 C 0.36174 0.02351 0.61897 0.0
C460 C 0.34732 0.03225 0.60477 0.0
H461 H 0.36889 0.05519 0.70627 0.0
H462 H 0.38441 0.02583 0.68294 0.0
H463 H 0.38566 0.00913 0.64989 0.0
O464 O 0.26956 0.04964 0.62941 0.0
O465 O 0.36812 0.11731 0.64156 0.0
O466 O 0.38105 0.13981 0.61246 0.0
O467 O 0.27761 0.06743 0.65887 0.0
O468 O 0.30672 0.09797 0.60587 0.0
O469 O 0.35538 0.13661 0.5934 0.0
O470 O 0.41606 0.21969 0.62405 0.0
O471 O 0.31763 0.16185 0.61011 0.0
O472 O 0.29479 0.12826 0.63603 0.0
O473 O 0.41248 0.20559 0.59453 0.0
O474 O 0.37414 0.17524 0.64569 0.0
O475 O 0.32284 0.13754 0.6541 0.0
C476 C 0.38935 0.13125 0.62804 0.0
C477 C 0.22851 0.01815 0.65347 0.0
C478 C 0.17547 0.97289 0.64732 0.0
C479 C 0.17185 0.9659 0.66695 0.0
C480 C 0.2243 0.0108 0.67308 0.0
C481 C 0.19611 0.98484 0.67974 0.0
C482 C 0.20383 0.99916 0.64053 0.0
C483 C 0.32647 0.11125 0.59137 0.0
C484 C 0.25892 0.04537 0.64693 0.0
C485 C 0.37423 0.03323 0.67162 0.0
C486 C 0.37499 0.02377 0.65278 0.0
C487 C 0.29328 0.14488 0.62154 0.0
C488 C 0.44533 0.26068 0.60134 0.0
C489 C 0.48898 0.31592 0.60391 0.0
C490 C 0.47583 0.32423 0.5886 0.0
C491 C 0.43285 0.26974 0.58594 0.0
C492 C 0.47344 0.28411 0.61048 0.0
C493 C 0.44785 0.30129 0.57977 0.0
C494 C 0.35144 0.16073 0.65867 0.0
C495 C 0.42977 0.22681 0.60733 0.0
H496 H 0.15002 0.94584 0.67238 0.0
H497 H 0.24294 0.02499 0.68331 0.0
H498 H 0.19309 0.97935 0.69486 0.0
H499 H 0.20666 1.0046 0.62538 0.0
H500 H 0.48737 0.34858 0.58341 0.0
H501 H 0.4118 0.25242 0.57837 0.0
H502 H 0.48359 0.27751 0.62223 0.0
H503 H 0.43798 0.30791 0.5679 0.0
Eu504 Eu 0.70356 0.79005 0.38496 0.0
C505 C 0.68262 0.8886 0.43027 0.0
N506 N 0.67079 0.85719 0.43431 0.0
C507 C 0.6849 0.86959 0.46731 0.0
C508 C 0.69665 0.91191 0.44475 0.0
C509 C 0.67144 0.84734 0.45249 0.0
C510 C 0.6976 0.90201 0.46344 0.0
C511 C 0.6951 0.9301 0.4068 0.0
C512 C 0.68202 0.89753 0.41141 0.0
C513 C 0.70888 0.95332 0.42123 0.0
C514 C 0.70972 0.94427 0.44012 0.0
Eu515 Eu 0.64784 0.82125 0.40863 0.0
N516 N 0.66889 0.87453 0.39761 0.0
C517 C 0.69368 0.93843 0.38784 0.0
C518 C 0.66539 0.88253 0.3794 0.0
C519 C 0.67838 0.91451 0.37415 0.0
H520 H 0.66125 0.82226 0.45561 0.0
H521 H 0.676 0.92065 0.3596 0.0
H522 H 0.69031 0.78662 0.33791 0.0
H523 H 0.68793 0.69466 0.43363 0.0
H524 H 0.65174 0.86462 0.3689 0.0
H525 H 0.70354 0.96318 0.38372 0.0
H526 H 0.71026 0.75022 0.42295 0.0
H527 H 0.68542 0.86171 0.48172 0.0
H528 H 0.71887 0.9784 0.41792 0.0
H529 H 0.72063 0.96252 0.45105 0.0
H530 H 0.66254 0.74593 0.31279 0.0
H531 H 0.70817 0.91921 0.47494 0.0
H532 H 0.65445 0.65027 0.41159 0.0
N533 N 0.67959 0.75281 0.35993 0.0
C534 C 0.66724 0.72156 0.36457 0.0
C535 C 0.6634 0.73872 0.32733 0.0
C536 C 0.65142 0.69746 0.35073 0.0
C537 C 0.6787 0.76173 0.34157 0.0
C538 C 0.64942 0.7064 0.33196 0.0
N539 N 0.68576 0.7377 0.39632 0.0
C540 C 0.69388 0.73121 0.41373 0.0
C541 C 0.65792 0.68159 0.38849 0.0
C542 C 0.6701 0.71379 0.38333 0.0
C543 C 0.66338 0.67469 0.40706 0.0
C544 C 0.68208 0.69966 0.41959 0.0
H545 H 0.63752 0.6886 0.3209 0.0
H546 H 0.62582 0.64646 0.34563 0.0
H547 H 0.63172 0.63256 0.37863 0.0
O548 O 0.75058 0.7956 0.39283 0.0
O549 O 0.64944 0.76091 0.38034 0.0
O550 O 0.62883 0.76812 0.40823 0.0
O551 O 0.73815 0.79742 0.36297 0.0
O552 O 0.70707 0.79833 0.41717 0.0
O553 O 0.65668 0.7873 0.42708 0.0
O554 O 0.60249 0.81977 0.40035 0.0
O555 O 0.70159 0.8497 0.41369 0.0
O556 O 0.72187 0.84322 0.38558 0.0
O557 O 0.61259 0.81423 0.43003 0.0
O558 O 0.644 0.81285 0.37597 0.0
O559 O 0.6951 0.8248 0.36812 0.0
C560 C 0.62668 0.75109 0.39319 0.0
C561 C 0.79063 0.8041 0.3682 0.0
C562 C 0.84362 0.81098 0.37383 0.0
C563 C 0.84884 0.81301 0.35399 0.0
C564 C 0.79659 0.8063 0.34841 0.0
C565 C 0.82552 0.81081 0.34141 0.0
C566 C 0.8145 0.80682 0.38099 0.0
C567 C 0.68445 0.78889 0.43023 0.0
C568 C 0.75944 0.79901 0.37496 0.0
C569 C 0.63824 0.66534 0.35604 0.0
C570 C 0.6415 0.65743 0.37485 0.0
C571 C 0.72378 0.86053 0.4005 0.0
C572 C 0.56209 0.8121 0.42484 0.0
C573 C 0.51302 0.81475 0.42054 0.0
C574 C 0.5047 0.80475 0.4396 0.0
C575 C 0.55279 0.80207 0.4438 0.0
C576 C 0.54212 0.81873 0.41317 0.0
C577 C 0.52442 0.79852 0.45107 0.0
C578 C 0.66693 0.82037 0.3632 0.0
C579 C 0.59294 0.8159 0.41808 0.0
H580 H 0.87123 0.81659 0.34821 0.0
H581 H 0.77884 0.80451 0.33824 0.0
H582 H 0.82986 0.81254 0.32615 0.0
H583 H 0.81038 0.80529 0.39629 0.0
H584 H 0.48292 0.80212 0.44576 0.0
H585 H 0.56753 0.79695 0.45316 0.0
H586 H 0.54898 0.82668 0.39856 0.0
H587 H 0.51771 0.79096 0.46573 0.0
Eu588 Eu 0.92327 0.69775 0.88541 0.0
C589 C 0.80292 0.68366 0.92928 0.0
N590 N 0.82155 0.67087 0.93368 0.0
C591 C 0.8224 0.68479 0.96667 0.0
C592 C 0.79359 0.69796 0.94356 0.0
C593 C 0.83115 0.67096 0.95206 0.0
C594 C 0.80358 0.6984 0.96241 0.0
C595 C 0.7751 0.69696 0.90536 0.0
C596 C 0.79405 0.68337 0.91031 0.0
C597 C 0.76554 0.71094 0.91958 0.0
C598 C 0.77487 0.71157 0.9386 0.0
Eu599 Eu 0.83493 0.64772 0.90826 0.0
N600 N 0.80377 0.66976 0.89677 0.0
C601 C 0.76589 0.69572 0.88628 0.0
C602 C 0.79283 0.66654 0.87842 0.0
C603 C 0.77447 0.68009 0.87282 0.0
H604 H 0.84519 0.65995 0.95553 0.0
H605 H 0.76639 0.67789 0.85816 0.0
H606 H 0.9164 0.69002 0.83793 0.0
H607 H 0.98613 0.6612 0.9356 0.0
H608 H 0.79707 0.6527 0.86806 0.0
H609 H 0.75145 0.70599 0.88191 0.0
H610 H 0.95904 0.69006 0.92538 0.0
H611 H 0.83007 0.68482 0.98122 0.0
H612 H 0.75077 0.72122 0.91603 0.0
H613 H 0.76744 0.72263 0.94938 0.0
H614 H 0.92978 0.66399 0.81196 0.0
H615 H 0.79689 0.70916 0.97377 0.0
H616 H 0.99816 0.63069 0.91191 0.0
N617 N 0.936 0.67469 0.85975 0.0
C618 C 0.95249 0.65959 0.86422 0.0
C619 C 0.93612 0.66239 0.8266 0.0
C620 C 0.96088 0.64461 0.84989 0.0
C621 C 0.92818 0.67675 0.8413 0.0
C622 C 0.95242 0.64612 0.83091 0.0
N623 N 0.95116 0.67247 0.89692 0.0
C624 C 0.9618 0.67502 0.91525 0.0
C625 C 0.97673 0.6423 0.88833 0.0
C626 C 0.96 0.65818 0.88331 0.0
C627 C 0.98524 0.64255 0.90749 0.0
C628 C 0.97825 0.65949 0.92093 0.0
H629 H 0.95844 0.6349 0.81949 0.0
H630 H 0.98356 0.61656 0.84413 0.0
H631 H 0.99763 0.61473 0.87772 0.0
O632 O 0.96688 0.73967 0.89563 0.0
O633 O 0.89557 0.64346 0.88126 0.0
O634 O 0.86967 0.62992 0.90959 0.0
O635 O 0.95673 0.73335 0.86538 0.0
O636 O 0.91773 0.70464 0.917 0.0
O637 O 0.87649 0.6566 0.92812 0.0
O638 O 0.79263 0.60178 0.89907 0.0
O639 O 0.86124 0.70134 0.9121 0.0
O640 O 0.89175 0.72049 0.88488 0.0
O641 O 0.80451 0.61302 0.92924 0.0
O642 O 0.84027 0.64419 0.87549 0.0
O643 O 0.88295 0.69335 0.86716 0.0
C644 C 0.87909 0.62185 0.89423 0.0
C645 C 0.98169 0.78578 0.87752 0.0
C646 C 0.01708 0.84243 0.8838 0.0
C647 C 0.99321 0.84852 0.87707 0.0
C648 C 0.95819 0.79238 0.87084 0.0
C649 C 0.964 0.82363 0.8706 0.0
C650 C 0.01123 0.81089 0.88389 0.0
C651 C 0.90283 0.68437 0.93098 0.0
C652 C 0.97489 0.75265 0.87875 0.0
C653 C 0.97703 0.62832 0.85494 0.0
C654 C 0.98493 0.62718 0.87409 0.0
C655 C 0.87519 0.72329 0.89896 0.0
C656 C 0.758 0.56173 0.92311 0.0
C657 C 0.70665 0.51297 0.91798 0.0
C658 C 0.70789 0.50356 0.9368 0.0
C659 C 0.75839 0.55162 0.94192 0.0
C660 C 0.73176 0.54231 0.9111 0.0
C661 C 0.73352 0.52282 0.94867 0.0
C662 C 0.857 0.66657 0.8626 0.0
C663 C 0.78507 0.59271 0.91677 0.0
H664 H 0.9973 0.87265 0.87659 0.0
H665 H 0.9353 0.77338 0.86585 0.0
H666 H 0.94579 0.82856 0.86542 0.0
H667 H 0.02932 0.80584 0.88923 0.0
H668 H 0.68867 0.48134 0.94241 0.0
H669 H 0.77806 0.566 0.95151 0.0
H670 H 0.73086 0.54984 0.89663 0.0
H671 H 0.73409 0.5154 0.96319 0.0
Eu672 Eu 0.22217 0.91643 0.38874 0.0
C673 C 0.12215 0.79895 0.43112 0.0
N674 N 0.15424 0.8166 0.43438 0.0
C675 C 0.14447 0.81879 0.46787 0.0
C676 C 0.1 0.79171 0.44611 0.0
C677 C 0.16551 0.82488 0.45265 0.0
C678 C 0.11158 0.80263 0.46454 0.0
C679 C 0.07837 0.76659 0.40936 0.0
C680 C 0.11131 0.7865 0.41295 0.0
C681 C 0.05631 0.76022 0.42413 0.0
C682 C 0.06708 0.77289 0.44242 0.0
Eu683 Eu 0.18722 0.82595 0.40711 0.0
N684 N 0.13306 0.79365 0.39876 0.0
C685 C 0.06862 0.75341 0.39106 0.0
C686 C 0.12395 0.77971 0.38117 0.0
C687 C 0.09155 0.75972 0.37697 0.0
H688 H 0.19062 0.83542 0.45585 0.0
H689 H 0.08429 0.74915 0.3629 0.0
H690 H 0.22019 0.91614 0.341 0.0
H691 H 0.3233 0.98459 0.43708 0.0
H692 H 0.14175 0.78435 0.37036 0.0
H693 H 0.04352 0.73798 0.38776 0.0
H694 H 0.26648 0.95376 0.42813 0.0
H695 H 0.15363 0.826 0.48224 0.0
H696 H 0.03089 0.74513 0.42162 0.0
H697 H 0.04976 0.76731 0.45375 0.0
H698 H 0.2581 0.93308 0.31397 0.0
H699 H 0.09534 0.79756 0.47643 0.0
H700 H 0.36502 1.00051 0.41223 0.0
N701 N 0.25646 0.93393 0.36216 0.0
C702 C 0.28822 0.9517 0.36596 0.0
C703 C 0.26692 0.93814 0.32852 0.0
C704 C 0.31082 0.96238 0.35102 0.0
C705 C 0.24548 0.92805 0.34383 0.0
C706 C 0.29978 0.95506 0.33213 0.0
N707 N 0.27563 0.94922 0.39895 0.0
C708 C 0.28428 0.95906 0.41736 0.0
C709 C 0.33094 0.97788 0.38922 0.0
C710 C 0.2981 0.95935 0.38488 0.0
C711 C 0.34003 0.9863 0.4083 0.0
C712 C 0.31656 0.97724 0.42238 0.0
H713 H 0.31638 0.96287 0.32025 0.0
H714 H 0.3613 0.98839 0.34409 0.0
H715 H 0.37893 1.00192 0.37751 0.0
O716 O 0.23049 0.96465 0.39352 0.0
O717 O 0.25196 0.89201 0.38372 0.0
O718 O 0.2396 0.86141 0.41057 0.0
O719 O 0.1958 0.93386 0.37221 0.0
O720 O 0.21276 0.90862 0.42051 0.0
O721 O 0.21848 0.8654 0.42904 0.0
O722 O 0.19862 0.79148 0.39425 0.0
O723 O 0.15436 0.84204 0.3947 0.0
O724 O 0.17755 0.89185 0.40701 0.0
O725 O 0.18015 0.78422 0.42302 0.0
O726 O 0.19924 0.83502 0.37509 0.0
O727 O 0.19113 0.87721 0.36784 0.0
C728 C 0.25862 0.87569 0.39611 0.0
C729 C 0.21387 0.98952 0.37048 0.0
C730 C 0.20855 0.03688 0.36996 0.0
C731 C 0.21672 0.04099 0.35051 0.0
C732 C 0.22228 0.99392 0.35107 0.0
C733 C 0.22379 0.0197 0.34116 0.0
C734 C 0.20738 0.01126 0.37993 0.0
C735 C 0.21881 0.89233 0.4332 0.0
C736 C 0.20902 0.96134 0.38102 0.0
C737 C 0.34356 0.98016 0.35537 0.0
C738 C 0.35359 0.98785 0.37441 0.0
C739 C 0.15194 0.86583 0.40154 0.0
C740 C 0.20795 0.7575 0.41441 0.0
C741 C 0.21422 0.71065 0.41271 0.0
C742 C 0.24125 0.72612 0.42458 0.0
C743 C 0.23425 0.77221 0.42679 0.0
C744 C 0.19774 0.72657 0.40759 0.0
C745 C 0.25105 0.75668 0.43166 0.0
C746 C 0.1936 0.85232 0.36269 0.0
C747 C 0.18956 0.77297 0.40918 0.0
H748 H 0.2176 0.06063 0.34259 0.0
H749 H 0.22716 0.97726 0.34356 0.0
H750 H 0.23006 0.02298 0.32615 0.0
H751 H 0.20052 0.00775 0.39489 0.0
H752 H 0.25422 0.71421 0.4288 0.0
H753 H 0.24142 0.79537 0.43289 0.0
H754 H 0.17689 0.71481 0.39839 0.0
H755 H 0.27144 0.76815 0.44117 0.0
Eu756 Eu 0.31503 0.22244 0.88316 0.0
C757 C 0.33408 0.12094 0.92972 0.0
N758 N 0.34798 0.15245 0.93408 0.0
C759 C 0.33761 0.14001 0.9674 0.0
C760 C 0.32064 0.09755 0.94416 0.0
C761 C 0.35023 0.16229 0.95258 0.0
C762 C 0.32258 0.10748 0.96317 0.0
C763 C 0.31787 0.07947 0.90571 0.0
C764 C 0.3327 0.11208 0.91069 0.0
C765 C 0.30406 0.0561 0.92002 0.0
C766 C 0.30552 0.06512 0.93919 0.0
Eu767 Eu 0.36749 0.18868 0.90833 0.0
N768 N 0.34571 0.13527 0.89707 0.0
C769 C 0.31759 0.07126 0.88651 0.0
C770 C 0.34755 0.12728 0.87856 0.0
C771 C 0.33296 0.0953 0.87294 0.0
H772 H 0.36222 0.18739 0.95593 0.0
H773 H 0.33402 0.08921 0.85816 0.0
H774 H 0.31427 0.21505 0.83553 0.0
H775 H 0.36589 0.33054 0.92767 0.0
H776 H 0.36094 0.14516 0.86805 0.0
H777 H 0.30638 0.0465 0.88211 0.0
H778 H 0.33933 0.27323 0.92148 0.0
H779 H 0.33948 0.14795 0.98207 0.0
H780 H 0.2924 0.03096 0.91642 0.0
H781 H 0.29489 0.04682 0.95008 0.0
H782 H 0.32751 0.24969 0.80714 0.0
H783 H 0.31264 0.09024 0.97467 0.0
H784 H 0.38284 0.36839 0.90064 0.0
N785 N 0.3317 0.2536 0.8552 0.0
C786 C 0.34512 0.28565 0.85769 0.0
C787 C 0.3336 0.26011 0.82122 0.0
C788 C 0.35426 0.30632 0.84181 0.0
C789 C 0.32608 0.24061 0.83732 0.0
C790 C 0.34815 0.29311 0.82343 0.0
N791 N 0.34154 0.27749 0.8913 0.0
C792 C 0.34667 0.28895 0.90955 0.0
C793 C 0.36542 0.33125 0.8791 0.0
C794 C 0.35025 0.29795 0.87619 0.0
C795 C 0.37117 0.34299 0.89783 0.0
C796 C 0.36172 0.32172 0.91311 0.0
H797 H 0.3542 0.30812 0.81087 0.0
H798 H 0.37607 0.35558 0.83266 0.0
H799 H 0.3862 0.37742 0.86529 0.0
O800 O 0.27201 0.22392 0.89339 0.0
O801 O 0.36945 0.25301 0.8804 0.0
O802 O 0.38184 0.24044 0.90902 0.0
O803 O 0.27675 0.21278 0.86366 0.0
O804 O 0.30719 0.21166 0.91486 0.0
O805 O 0.35354 0.21728 0.92864 0.0
O806 O 0.41276 0.19159 0.89892 0.0
O807 O 0.31374 0.15941 0.91154 0.0
O808 O 0.29599 0.16882 0.88317 0.0
O809 O 0.40542 0.19962 0.92879 0.0
O810 O 0.37369 0.199 0.87575 0.0
O811 O 0.32356 0.18793 0.86629 0.0
C812 C 0.39067 0.25796 0.89366 0.0
C813 C 0.22941 0.21522 0.87033 0.0
C814 C 0.17555 0.20512 0.87674 0.0
C815 C 0.17208 0.21001 0.85732 0.0
C816 C 0.22538 0.22016 0.85094 0.0
C817 C 0.1969 0.21756 0.84452 0.0
C818 C 0.20436 0.20785 0.88334 0.0
C819 C 0.32602 0.21717 0.92973 0.0
C820 C 0.25957 0.21705 0.87626 0.0
C821 C 0.36891 0.33938 0.84471 0.0
C822 C 0.37461 0.35182 0.86329 0.0
C823 C 0.29235 0.15044 0.89792 0.0
C824 C 0.45667 0.20473 0.92162 0.0
C825 C 0.50438 0.20052 0.91627 0.0
C826 C 0.51847 0.21943 0.93254 0.0
C827 C 0.47126 0.22343 0.93792 0.0
C828 C 0.47331 0.19306 0.91078 0.0
C829 C 0.50194 0.23071 0.94331 0.0
C830 C 0.35207 0.19263 0.86223 0.0
C831 C 0.42438 0.19813 0.91621 0.0
H832 H 0.15001 0.20798 0.85206 0.0
H833 H 0.24431 0.22601 0.84066 0.0
H834 H 0.19403 0.22131 0.82957 0.0
H835 H 0.20704 0.20388 0.89832 0.0
H836 H 0.54225 0.22519 0.93703 0.0
H837 H 0.45903 0.23273 0.94647 0.0
H838 H 0.4623 0.1784 0.89825 0.0
H839 H 0.51296 0.24515 0.95589 0.0
Eu840 Eu 0.09615 0.31113 0.3846 0.0
C841 C 0.21552 0.32903 0.43141 0.0
N842 N 0.1972 0.34235 0.43539 0.0
C843 C 0.197 0.33062 0.46868 0.0
C844 C 0.22493 0.31545 0.44605 0.0
C845 C 0.18796 0.34349 0.45367 0.0
C846 C 0.21551 0.31647 0.46486 0.0
C847 C 0.24248 0.31381 0.40793 0.0
C848 C 0.22401 0.32808 0.41251 0.0
C849 C 0.25172 0.30009 0.42247 0.0
C850 C 0.24302 0.30096 0.44148 0.0
Eu851 Eu 0.18266 0.36305 0.40928 0.0
N852 N 0.21413 0.34096 0.39863 0.0
C853 C 0.25142 0.31404 0.38888 0.0
C854 C 0.22488 0.34333 0.38032 0.0
C855 C 0.24299 0.32931 0.37508 0.0
H856 H 0.17388 0.35464 0.45672 0.0
H857 H 0.25091 0.33078 0.36044 0.0
H858 H 0.10467 0.31223 0.33702 0.0
H859 H 0.03512 0.35722 0.42923 0.0
H860 H 0.22061 0.35683 0.36976 0.0
H861 H 0.26557 0.30332 0.38478 0.0
H862 H 0.06315 0.32768 0.42258 0.0
H863 H 0.18967 0.33159 0.48317 0.0
H864 H 0.26575 0.2889 0.41917 0.0
H865 H 0.25037 0.2903 0.45253 0.0
H866 H 0.09187 0.33446 0.30875 0.0
H867 H 0.22232 0.30636 0.47651 0.0
H868 H 0.02161 0.38211 0.40267 0.0
N869 N 0.08417 0.33026 0.35675 0.0
C870 C 0.06762 0.34591 0.35935 0.0
C871 C 0.08502 0.33794 0.3229 0.0
C872 C 0.0597 0.35884 0.34364 0.0
C873 C 0.09248 0.32564 0.33891 0.0
C874 C 0.0687 0.35475 0.32528 0.0
N875 N 0.06802 0.33774 0.39285 0.0
C876 C 0.05863 0.33937 0.411 0.0
C877 C 0.04261 0.36632 0.38096 0.0
C878 C 0.05921 0.34966 0.37786 0.0
C879 C 0.03438 0.36949 0.3997 0.0
C880 C 0.04213 0.35564 0.41475 0.0
H881 H 0.06307 0.36436 0.31284 0.0
H882 H 0.03703 0.38569 0.33483 0.0
H883 H 0.02207 0.39221 0.36744 0.0
O884 O 0.05305 0.26991 0.39586 0.0
O885 O 0.12185 0.36554 0.38218 0.0
O886 O 0.14693 0.37972 0.411 0.0
O887 O 0.06246 0.27368 0.36551 0.0
O888 O 0.09977 0.30439 0.41648 0.0
O889 O 0.14016 0.35234 0.42859 0.0
O890 O 0.22423 0.40841 0.39889 0.0
O891 O 0.15778 0.30918 0.41245 0.0
O892 O 0.12905 0.29024 0.38457 0.0
O893 O 0.21308 0.3999 0.42936 0.0
O894 O 0.17767 0.36796 0.37686 0.0
O895 O 0.13833 0.3178 0.36725 0.0
C896 C 0.1358 0.38655 0.39587 0.0
C897 C 0.03692 0.22224 0.37901 0.0
C898 C 1.00031 0.16622 0.38612 0.0
C899 C 0.0237 0.15894 0.38008 0.0
C900 C 0.05993 0.21449 0.37296 0.0
C901 C 0.05327 0.18296 0.37346 0.0
C902 C 1.00698 0.19799 0.38544 0.0
C903 C 0.11389 0.32432 0.43078 0.0
C904 C 0.04446 0.25563 0.37932 0.0
C905 C 0.04326 0.37554 0.34673 0.0
C906 C 0.03476 0.37927 0.36532 0.0
C907 C 0.14408 0.287 0.39933 0.0
C908 C 0.25775 0.45151 0.42167 0.0
C909 C 0.31062 0.49838 0.41697 0.0
C910 C 0.30557 0.51267 0.43304 0.0
C911 C 0.25338 0.4664 0.43772 0.0
C912 C 0.28656 0.46768 0.41119 0.0
C913 C 0.27713 0.49678 0.44332 0.0
C914 C 0.16296 0.34598 0.36352 0.0
C915 C 0.23196 0.4192 0.41631 0.0
H916 H 0.01891 0.13455 0.38025 0.0
H917 H 0.08304 0.23285 0.36787 0.0
H918 H 0.0711 0.17714 0.36875 0.0
H919 H 0.98918 0.20387 0.3902 0.0
H920 H 0.32382 0.53622 0.43768 0.0
H921 H 0.23145 0.45459 0.44594 0.0
H922 H 0.29034 0.45647 0.39881 0.0
H923 H 0.2735 0.50802 0.4557 0.0
Eu924 Eu 0.78789 0.08949 0.88389 0.0
C925 C 0.88302 0.21448 0.93222 0.0
N926 N 0.85129 0.19396 0.93489 0.0
C927 C 0.85869 0.19762 0.96887 0.0
C928 C 0.90398 0.22721 0.94796 0.0
C929 C 0.83883 0.18556 0.95285 0.0
C930 C 0.8914 0.21851 0.96643 0.0
C931 C 0.9275 0.24378 0.91048 0.0
C932 C 0.89461 0.2227 0.91366 0.0
C933 C 0.94842 0.25642 0.92613 0.0
C934 C 0.93669 0.24822 0.94481 0.0
Eu935 Eu 0.81932 0.17639 0.90717 0.0
N936 N 0.8738 0.20992 0.89876 0.0
C937 C 0.93838 0.25178 0.89166 0.0
C938 C 0.88416 0.21893 0.88044 0.0
C939 C 0.91656 0.23949 0.8766 0.0
H940 H 0.81344 0.17015 0.95488 0.0
H941 H 0.92461 0.24624 0.86202 0.0
H942 H 0.78737 0.09703 0.83644 0.0
H943 H 0.68826 0.02416 0.93371 0.0
H944 H 0.86768 0.21121 0.86869 0.0
H945 H 0.96345 0.26787 0.88863 0.0
H946 H 0.74446 0.05296 0.92377 0.0
H947 H 0.8487 0.191 0.9831 0.0
H948 H 0.97372 0.27269 0.92393 0.0
H949 H 0.95312 0.25827 0.95673 0.0
H950 H 0.74773 0.08158 0.81034 0.0
H951 H 0.90671 0.22789 0.97888 0.0
H952 H 0.6456 0.01057 0.90978 0.0
N953 N 0.75216 0.07614 0.85813 0.0
C954 C 0.7205 0.05856 0.86245 0.0
C955 C 0.73982 0.0754 0.82494 0.0
C956 C 0.69713 0.04952 0.84803 0.0
C957 C 0.76216 0.08428 0.83972 0.0
C958 C 0.70719 0.05818 0.82911 0.0
N959 N 0.73458 0.06001 0.89521 0.0
C960 C 0.72651 0.04939 0.91352 0.0
C961 C 0.67878 0.03285 0.88636 0.0
C962 C 0.71147 0.05054 0.8815 0.0
C963 C 0.67045 0.02416 0.90547 0.0
C964 C 0.69444 0.03202 0.91905 0.0
H965 H 0.68997 0.05151 0.8176 0.0
H966 H 0.64632 0.0252 0.84203 0.0
H967 H 0.63025 0.01054 0.87553 0.0
O968 O 0.78613 0.0456 0.8934 0.0
O969 O 0.75948 0.1151 0.87929 0.0
O970 O 0.76763 0.13836 0.90835 0.0
O971 O 0.79288 0.05813 0.8635 0.0
O972 O 0.80065 0.09556 0.91546 0.0
O973 O 0.78998 0.13401 0.92702 0.0
O974 O 0.81721 0.21757 0.89559 0.0
O975 O 0.85248 0.1562 0.91057 0.0
O976 O 0.842 0.1225 0.88466 0.0
O977 O 0.80416 0.20345 0.92489 0.0
O978 O 0.8117 0.17048 0.87444 0.0
O979 O 0.82297 0.13093 0.86607 0.0
C980 C 0.75102 0.12816 0.89272 0.0
C981 C 0.81855 0.03137 0.87579 0.0
C982 C 0.83869 0.99539 0.8829 0.0
C983 C 0.86896 0.01842 0.87616 0.0
C984 C 0.84886 0.05396 0.86888 0.0
C985 C 0.87392 0.04748 0.86909 0.0
C986 C 0.81342 1.00187 0.88262 0.0
C987 C 0.79406 0.10923 0.92965 0.0
C988 C 0.79257 0.03883 0.87654 0.0
C989 C 0.66461 0.0323 0.85293 0.0
C990 C 0.65546 0.02401 0.87202 0.0
C991 C 0.86081 0.14077 0.89854 0.0
C992 C 0.82861 0.25869 0.91828 0.0
C993 C 0.84103 0.31413 0.91614 0.0
C994 C 0.86147 0.32176 0.93195 0.0
C995 C 0.84931 0.26706 0.9341 0.0
C996 C 0.82474 0.28255 0.90917 0.0
C997 C 0.86568 0.29837 0.94079 0.0
C998 C 0.81959 0.15541 0.86161 0.0
C999 C 0.80986 0.22498 0.91199 0.0
H1000 H 0.88865 0.01369 0.87613 0.0
H1001 H 0.85312 0.0766 0.86333 0.0
H1002 H 0.89724 0.06502 0.86376 0.0
H1003 H 0.79006 0.98427 0.88794 0.0
H1004 H 0.87413 0.34592 0.93749 0.0
H1005 H 0.85248 0.24937 0.9416 0.0
H1006 H 0.80866 0.27648 0.89708 0.0
H1007 H 0.88141 0.30445 0.95303 0.0
H1008 H 0.17064 0.90466 0.08994 0.0
H1009 H 0.18037 0.95919 0.08864 0.0
H1010 H 0.1417 0.94879 0.14548 0.0
H1011 H 0.13352 0.89478 0.14733 0.0
H1012 H 0.14044 0.98472 0.09209 0.0
H1013 H 0.23021 0.02708 0.15053 0.0
H1014 H 0.21587 0.98897 0.13895 0.0
H1015 H 0.19237 0.9937 0.15725 0.0
C1016 C 0.16456 0.91407 0.10227 0.0
C1017 C 0.15222 0.89573 0.11897 0.0
C1018 C 0.16981 0.94513 0.1014 0.0
C1019 C 0.16237 0.95822 0.1171 0.0
C1020 C 0.14835 0.93936 0.13338 0.0
H1021 H 0.1453 0.12165 0.13675 0.0
H1022 H 0.1362 0.07053 0.12416 0.0
C1023 C 0.1435 0.90843 0.13437 0.0
C1024 C 0.17016 0.99191 0.11673 0.0
H1025 H 0.21191 0.06228 0.1408 0.0
C1026 C 0.15626 1.00181 0.10263 0.0
C1027 C 0.19135 0.01427 0.13023 0.0
C1028 C 0.20858 0.0056 0.14497 0.0
C1029 C 0.16202 0.03328 0.10221 0.0
C1030 C 0.18191 0.05512 0.11632 0.0
C1031 C 0.19664 0.04546 0.12997 0.0
C1032 C 0.1862 0.08746 0.11835 0.0
C1033 C 0.14682 0.04297 0.08675 0.0
C1034 C 0.21715 0.11419 0.11857 0.0
C1035 C 0.22229 0.14335 0.12573 0.0
C1036 C 0.19655 0.14603 0.13275 0.0
C1037 C 0.16534 0.12012 0.13102 0.0
C1038 C 0.16017 0.09097 0.12383 0.0
H1039 H 0.13943 0.02646 0.07431 0.0
H1040 H 0.12519 0.04244 0.09257 0.0
H1041 H 0.16352 0.06761 0.08175 0.0
H1042 H 0.23754 0.11185 0.11456 0.0
H1043 H 0.24658 0.16295 0.1273 0.0
H1044 H 0.28441 0.18617 0.59882 0.0
H1045 H 0.23867 0.19424 0.59815 0.0
H1046 H 0.18799 0.11443 0.63636 0.0
H1047 H 0.2351 0.10839 0.63863 0.0
H1048 H 0.18011 0.1626 0.58727 0.0
H1049 H 0.17876 0.17876 0.66563 0.0
H1050 H 0.21065 0.17628 0.65394 0.0
H1051 H 0.17375 0.14051 0.65981 0.0
C1052 C 0.264 0.1709 0.60752 0.0
C1053 C 0.2642 0.14769 0.61951 0.0
C1054 C 0.2375 0.1752 0.60687 0.0
C1055 C 0.21014 0.15567 0.61773 0.0
C1056 C 0.20931 0.1308 0.62854 0.0
H1057 H 0.02937 0.14763 0.63509 0.0
H1058 H 0.06859 0.13323 0.62368 0.0
C1059 C 0.23624 0.12721 0.62971 0.0
C1060 C 0.1829 0.16183 0.61807 0.0
H1061 H 0.1343 0.17375 0.64831 0.0
C1062 C 0.17017 0.16509 0.60064 0.0
C1063 C 0.17015 0.16564 0.63549 0.0
C1064 C 0.18428 0.16548 0.65474 0.0
C1065 C 0.14487 0.1716 0.60024 0.0
C1066 C 0.13168 0.17427 0.61764 0.0
C1067 C 0.14427 0.17107 0.63499 0.0
C1068 C 0.10574 0.18195 0.61858 0.0
C1069 C 0.13233 0.17575 0.58137 0.0
C1070 C 0.11342 0.21399 0.61875 0.0
C1071 C 0.09115 0.2222 0.62532 0.0
C1072 C 0.06096 0.19843 0.63166 0.0
C1073 C 0.05234 0.16623 0.6299 0.0
C1074 C 0.0747 0.15803 0.62345 0.0
H1075 H 0.14408 0.17138 0.569 0.0
H1076 H 0.10612 0.15916 0.58051 0.0
H1077 H 0.13644 0.20042 0.58037 0.0
H1078 H 0.13745 0.23275 0.61534 0.0
H1079 H 0.09838 0.24718 0.62693 0.0
H1080 H 0.85269 0.06923 0.10839 0.0
H1081 H 0.90846 0.10577 0.0988 0.0
H1082 H 0.93975 0.10296 0.15621 0.0
H1083 H 0.88417 0.06682 0.16576 0.0
H1084 H 0.94673 0.16636 0.11647 0.0
H1085 H 1.00321 0.09145 0.12202 0.0
H1086 H 0.9605 0.07478 0.11968 0.0
H1087 H 0.97957 0.08848 0.14257 0.0
C1088 C 0.87168 0.0761 0.11878 0.0
C1089 C 0.86453 0.0655 0.13776 0.0
C1090 C 0.90337 0.09685 0.11333 0.0
C1091 C 0.9282 0.10672 0.12675 0.0
C1092 C 0.92101 0.09516 0.14556 0.0
H1093 H 0.11953 0.24571 0.15048 0.0
H1094 H 0.06525 0.20032 0.14827 0.0
C1095 C 0.88937 0.07475 0.15104 0.0
C1096 C 0.96119 0.13165 0.12188 0.0
H1097 H 0.03861 0.14821 0.12347 0.0
C1098 C 0.96685 0.16236 0.11761 0.0
C1099 C 0.98726 0.12622 0.12337 0.0
C1100 C 0.98238 0.09337 0.12698 0.0
C1101 C 0.99809 0.18831 0.11602 0.0
C1102 C 0.02423 0.18315 0.11844 0.0
C1103 C 0.0185 0.15211 0.12176 0.0
C1104 C 0.05761 0.20994 0.11911 0.0
C1105 C 1.00283 0.22127 0.11284 0.0
C1106 C 0.07148 0.23009 0.10333 0.0
C1107 C 0.1025 0.25616 0.10456 0.0
C1108 C 0.12022 0.26243 0.12159 0.0
C1109 C 0.10653 0.24165 0.13718 0.0
C1110 C 0.07552 0.21566 0.13594 0.0
H1111 H 0.98047 0.222 0.11522 0.0
H1112 H 0.02166 0.23894 0.1225 0.0
H1113 H 0.01063 0.22873 0.09788 0.0
H1114 H 0.05829 0.22572 0.09008 0.0
H1115 H 0.11256 0.27136 0.09217 0.0
H1116 H 0.86714 0.88241 0.6327 0.0
H1117 H 0.87914 0.93479 0.62044 0.0
H1118 H 0.77857 0.9041 0.62073 0.0
H1119 H 0.76659 0.85187 0.6331 0.0
H1120 H 0.84509 0.96097 0.58861 0.0
H1121 H 0.83397 0.97257 0.66722 0.0
H1122 H 0.84418 0.94435 0.65735 0.0
H1123 H 0.80398 0.93688 0.65553 0.0
C1124 C 0.84757 0.88642 0.6292 0.0
C1125 C 0.81598 0.86335 0.63373 0.0
C1126 C 0.85442 0.91626 0.62221 0.0
C1127 C 0.82972 0.9232 0.61975 0.0
C1128 C 0.79787 0.899 0.62239 0.0
H1129 H 0.81752 0.09244 0.63336 0.0
H1130 H 0.80852 0.03829 0.63012 0.0
C1131 C 0.79105 0.86924 0.62944 0.0
C1132 C 0.83735 0.95678 0.61902 0.0
H1133 H 0.84276 0.01589 0.64808 0.0
C1134 C 0.84473 0.97315 0.60155 0.0
C1135 C 0.83693 0.97244 0.636 0.0
C1136 C 0.82951 0.95588 0.65516 0.0
C1137 C 0.85094 1.00483 0.60061 0.0
C1138 C 0.85018 0.02034 0.61763 0.0
C1139 C 0.84328 1.00394 0.63507 0.0
C1140 C 0.85508 0.05311 0.61785 0.0
C1141 C 0.85729 0.02108 0.58142 0.0
C1142 C 0.88427 0.07948 0.61215 0.0
C1143 C 0.88906 0.11044 0.61368 0.0
C1144 C 0.86476 0.11525 0.62101 0.0
C1145 C 0.83595 0.08903 0.627 0.0
C1146 C 0.83102 0.0582 0.62533 0.0
H1147 H 0.84979 1.00371 0.56943 0.0
H1148 H 0.84459 0.0348 0.58013 0.0
H1149 H 0.8833 0.03807 0.57996 0.0
H1150 H 0.90349 0.07619 0.60685 0.0
H1151 H 0.91159 0.13055 0.60913 0.0
H1152 H 0.95075 0.82428 0.1648 0.0
H1153 H 0.91448 0.84311 0.15447 0.0
H1154 H 0.90968 0.80445 0.09815 0.0
H1155 H 0.94642 0.78592 0.10845 0.0
H1156 H 0.91603 0.88281 0.12099 0.0
H1157 H 0.81604 0.75661 0.12113 0.0
H1158 H 0.85359 0.76862 0.133 0.0
H1159 H 0.85117 0.76586 0.10741 0.0
C1160 C 0.94227 0.82029 0.15015 0.0
C1161 C 0.95091 0.80351 0.13741 0.0
C1162 C 0.92176 0.83112 0.14425 0.0
C1163 C 0.90928 0.82488 0.12563 0.0
C1164 C 0.91903 0.80934 0.1126 0.0
H1165 H 0.74321 0.8406 0.09124 0.0
H1166 H 0.7894 0.8329 0.08932 0.0
C1167 C 0.93991 0.79883 0.11845 0.0
C1168 C 0.8838 0.83202 0.12065 0.0
H1169 H 0.80276 0.79641 0.11596 0.0
C1170 C 0.89131 0.86397 0.11962 0.0
C1171 C 0.85164 0.80732 0.11884 0.0
C1172 C 0.84236 0.77262 0.12024 0.0
C1173 C 0.86721 0.87187 0.11736 0.0
C1174 C 0.83494 0.84716 0.11652 0.0
C1175 C 0.82759 0.81524 0.11667 0.0
C1176 C 0.80823 0.85378 0.11703 0.0
C1177 C 0.87634 0.90651 0.11611 0.0
C1178 C 0.80346 0.86782 0.13332 0.0
C1179 C 0.77673 0.87164 0.13465 0.0
C1180 C 0.75428 0.8614 0.1197 0.0
C1181 C 0.75962 0.84808 0.10319 0.0
C1182 C 0.78617 0.84394 0.10197 0.0
H1183 H 0.9017 0.92179 0.11174 0.0
H1184 H 0.8608 0.90983 0.10576 0.0
H1185 H 0.87325 0.91474 0.13036 0.0
H1186 H 0.81998 0.87505 0.14524 0.0
H1187 H 0.7734 0.88206 0.14754 0.0
H1188 H 0.88091 0.78303 0.62093 0.0
H1189 H 0.93413 0.8299 0.61837 0.0
H1190 H 0.97523 0.76911 0.61295 0.0
H1191 H 0.92229 0.7223 0.61546 0.0
H1192 H 0.98339 0.84732 0.64222 0.0
H1193 H 0.01967 0.83135 0.56988 0.0
H1194 H 0.97886 0.80882 0.57817 0.0
H1195 H 1.00742 0.79687 0.58465 0.0
C1196 C 0.90116 0.77949 0.61896 0.0
C1197 C 0.89705 0.74857 0.61815 0.0
C1198 C 0.93161 0.8064 0.61746 0.0
C1199 C 0.95862 0.80306 0.61501 0.0
C1200 C 0.95467 0.77234 0.61421 0.0
H1201 H 0.15594 0.91192 0.63735 0.0
H1202 H 0.10312 0.87319 0.62479 0.0
C1203 C 0.92424 0.74543 0.61572 0.0
C1204 C 0.99111 0.8316 0.61494 0.0
H1205 H 0.06211 0.86789 0.59073 0.0
C1206 C 1.00039 0.85216 0.63078 0.0
C1207 C 0.0133 0.83787 0.60001 0.0
C1208 C 1.00421 0.81772 0.58213 0.0
C1209 C 0.03163 0.87795 0.63253 0.0
C1210 C 0.0541 0.88354 0.61793 0.0
C1211 C 0.04471 0.86358 0.60183 0.0
C1212 C 0.08814 0.90799 0.62038 0.0
C1213 C 0.04082 0.89818 0.65041 0.0
C1214 C 0.0977 0.94057 0.62101 0.0
C1215 C 0.12797 0.96273 0.62804 0.0
C1216 C 0.1488 0.95241 0.6345 0.0
C1217 C 0.14024 0.92029 0.63227 0.0
C1218 C 0.11014 0.89823 0.62514 0.0
H1219 H 0.02188 0.88785 0.66152 0.0
H1220 H 0.0633 0.90098 0.65654 0.0
H1221 H 0.04508 0.92231 0.64676 0.0
H1222 H 0.08098 0.94847 0.61735 0.0
H1223 H 0.13405 0.98736 0.62989 0.0
H1224 H 0.13465 0.90139 0.42383 0.0
H1225 H 0.08084 0.8944 0.4274 0.0
H1226 H 0.04373 0.81602 0.38743 0.0
H1227 H 0.09728 0.82379 0.38312 0.0
H1228 H 0.03904 0.89257 0.39352 0.0
H1229 H 0.98676 0.78385 0.4387 0.0
H1230 H 0.02935 0.81128 0.43716 0.0
H1231 H 0.00895 0.78322 0.41822 0.0
C1232 C 0.115 0.88277 0.41576 0.0
C1233 C 0.12002 0.86267 0.40348 0.0
C1234 C 0.08434 0.87871 0.41791 0.0
C1235 C 0.05835 0.85429 0.40797 0.0
C1236 C 0.06342 0.83458 0.39552 0.0
H1237 H 0.86919 0.77251 0.37401 0.0
H1238 H 0.92062 0.78465 0.38764 0.0
C1239 C 0.09401 0.83894 0.39315 0.0
C1240 C 0.02594 0.85004 0.40965 0.0
H1241 H 0.94979 0.79548 0.42286 0.0
C1242 C 0.01953 0.87181 0.40032 0.0
C1243 C 1.00075 0.82279 0.41844 0.0
C1244 C 1.00672 0.79901 0.42886 0.0
C1245 C 0.9881 0.86595 0.39841 0.0
C1246 C 0.96258 0.83795 0.40656 0.0
C1247 C 0.96934 0.81705 0.41678 0.0
C1248 C 0.92873 0.82766 0.40208 0.0
C1249 C 0.98233 0.88857 0.38648 0.0
C1250 C 0.9153 0.84678 0.40659 0.0
C1251 C 0.88574 0.83979 0.39877 0.0
C1252 C 0.86937 0.81355 0.38645 0.0
C1253 C 0.88149 0.79291 0.38344 0.0
C1254 C 0.91086 0.79986 0.39122 0.0
H1255 H 1.00399 0.90575 0.37841 0.0
H1256 H 0.96261 0.87519 0.37611 0.0
H1257 H 0.97534 0.90244 0.39597 0.0
H1258 H 0.92843 0.86801 0.41527 0.0
H1259 H 0.87688 0.8561 0.40121 0.0
H1260 H 0.07743 0.85632 0.87363 0.0
H1261 H 0.12752 0.90598 0.88017 0.0
H1262 H 0.07627 0.93863 0.91544 0.0
H1263 H 0.02627 0.88943 0.90868 0.0
H1264 H 0.108 0.97927 0.88698 0.0
H1265 H 0.18944 0.94778 0.92464 0.0
H1266 H 0.17229 0.92503 0.90321 0.0
H1267 H 0.14681 0.92085 0.92306 0.0
C1268 C 0.07709 0.87377 0.88318 0.0
C1269 C 0.048 0.86934 0.89044 0.0
C1270 C 0.10571 0.90205 0.88699 0.0
C1271 C 0.10564 0.92599 0.89834 0.0
C1272 C 0.07687 0.92051 0.90663 0.0
H1273 H 0.26727 0.11127 0.92878 0.0
H1274 H 0.22326 0.05598 0.92912 0.0
C1275 C 0.04833 0.89249 0.9027 0.0
C1276 C 0.13415 0.95836 0.89929 0.0
H1277 H 0.21326 1.00038 0.91141 0.0
C1278 C 0.13094 0.98386 0.89247 0.0
C1279 C 0.16399 0.96435 0.90656 0.0
C1280 C 0.16837 0.93812 0.91496 0.0
C1281 C 0.15674 0.01514 0.89249 0.0
C1282 C 0.18694 0.02103 0.89898 0.0
C1283 C 0.19015 0.99568 0.90617 0.0
C1284 C 0.21521 0.05354 0.89856 0.0
C1285 C 0.15118 0.04165 0.88583 0.0
C1286 C 0.22568 0.07023 0.88122 0.0
C1287 C 0.25055 0.10188 0.88101 0.0
C1288 C 0.26573 0.11718 0.89811 0.0
C1289 C 0.25591 0.10008 0.91538 0.0
C1290 C 0.23089 0.06849 0.9156 0.0
H1291 H 0.12549 0.03457 0.88657 0.0
H1292 H 0.16512 0.06356 0.89454 0.0
H1293 H 0.15888 0.04742 0.8707 0.0
H1294 H 0.21435 0.05884 0.86786 0.0
H1295 H 0.25806 0.11426 0.86745 0.0
H1296 H 0.16015 0.26414 0.4306 0.0
H1297 H 0.17212 0.22059 0.43154 0.0
H1298 H 0.14917 0.20256 0.37157 0.0
H1299 H 0.13863 0.24687 0.37028 0.0
H1300 H 0.13237 0.15306 0.42053 0.0
H1301 H 0.24252 0.21978 0.37707 0.0
H1302 H 0.2237 0.23902 0.38923 0.0
H1303 H 0.20781 0.2187 0.36692 0.0
C1304 C 0.15778 0.25097 0.41759 0.0
C1305 C 0.14869 0.2591 0.40031 0.0
C1306 C 0.16436 0.22596 0.41822 0.0
C1307 C 0.1618 0.20866 0.40159 0.0
C1308 C 0.15161 0.21594 0.3845 0.0
H1309 H 0.15272 0.03721 0.36785 0.0
H1310 H 0.14154 0.07789 0.38061 0.0
C1311 C 0.14529 0.24106 0.38383 0.0
C1312 C 0.17091 0.18373 0.4017 0.0
H1313 H 0.22212 0.16386 0.38051 0.0
C1314 C 0.15221 0.15546 0.41199 0.0
C1315 C 0.19724 0.18733 0.39091 0.0
C1316 C 0.21922 0.21795 0.38054 0.0
C1317 C 0.1581 0.12987 0.41078 0.0
C1318 C 0.18305 0.13271 0.39888 0.0
C1319 C 0.20283 0.16166 0.38952 0.0
C1320 C 0.18759 0.10534 0.39445 0.0
C1321 C 0.13742 0.09988 0.42201 0.0
C1322 C 0.21703 0.10715 0.39819 0.0
C1323 C 0.22336 0.08394 0.39094 0.0
C1324 C 0.20049 0.05896 0.37964 0.0
C1325 C 0.17062 0.05641 0.37653 0.0
C1326 C 0.16416 0.07941 0.38394 0.0
H1327 H 0.12564 0.10452 0.43426 0.0
H1328 H 0.11846 0.08204 0.41253 0.0
H1329 H 0.15173 0.0894 0.42751 0.0
H1330 H 0.2355 0.12715 0.40611 0.0
H1331 H 0.24654 0.08619 0.39345 0.0
H1332 H 0.16336 0.24645 0.89582 0.0
H1333 H 0.11069 0.23523 0.90713 0.0
H1334 H 0.07263 0.13514 0.8953 0.0
H1335 H 0.12539 0.14643 0.8842 0.0
H1336 H 0.06247 0.21113 0.88056 0.0
H1337 H 0.02493 0.13275 0.94434 0.0
H1338 H 0.06632 0.15686 0.93729 0.0
H1339 H 0.04078 0.11961 0.92542 0.0
C1340 C 0.14408 0.22191 0.89661 0.0
C1341 C 0.14831 0.1972 0.88947 0.0
C1342 C 0.11399 0.21552 0.90291 0.0
C1343 C 0.08773 0.18433 0.90214 0.0
C1344 C 0.09261 0.15927 0.89641 0.0
H1345 H 0.89393 0.12727 0.87193 0.0
H1346 H 0.94849 0.13685 0.87433 0.0
C1347 C 0.12274 0.16568 0.8901 0.0
C1348 C 0.05478 0.17894 0.90385 0.0
H1349 H 0.98323 0.13446 0.92661 0.0
C1350 C 0.04529 0.19467 0.89081 0.0
C1351 C 0.03238 0.15747 0.9172 0.0
C1352 C 0.04163 0.1409 0.93199 0.0
C1353 C 0.01383 0.1889 0.89041 0.0
C1354 C 0.99107 0.16642 0.90319 0.0
C1355 C 1.00069 0.15139 0.91667 0.0
C1356 C 0.95715 0.15817 0.9025 0.0
C1357 C 1.00514 0.20688 0.87626 0.0
C1358 C 0.94364 0.1661 0.91778 0.0
C1359 C 0.91217 0.15999 0.9166 0.0
C1360 C 0.89368 0.14594 0.90008 0.0
C1361 C 0.90721 0.13758 0.88495 0.0
C1362 C 0.93855 0.1434 0.88622 0.0
H1363 H 0.02666 0.22835 0.87064 0.0
H1364 H 0.99231 0.19106 0.86397 0.0
H1365 H 0.98908 0.21442 0.88291 0.0
H1366 H 0.95764 0.17755 0.93046 0.0
H1367 H 0.90244 0.16644 0.92862 0.0
H1368 H 0.98948 0.12288 0.41392 0.0
H1369 H 0.93899 0.07425 0.42106 0.0
H1370 H 0.89038 0.10166 0.38009 0.0
H1371 H 0.94088 0.15089 0.37324 0.0
H1372 H 0.8526 0.06859 0.41343 0.0
H1373 H 0.90949 0.00613 0.37866 0.0
H1374 H 0.93126 0.03076 0.39865 0.0
H1375 H 0.92642 0.04879 0.3774 0.0
C1376 C 0.96786 0.1188 0.40675 0.0
C1377 C 0.96902 0.14022 0.39283 0.0
C1378 C 0.9391 0.0911 0.41083 0.0
C1379 C 0.91119 0.0841 0.40079 0.0
C1380 C 0.91174 0.10663 0.38793 0.0
H1381 H 0.75808 0.89823 0.37077 0.0
H1382 H 0.80158 0.95355 0.372 0.0
C1383 C 0.94052 0.13465 0.38402 0.0
C1384 C 0.8828 0.05174 0.40189 0.0
H1385 H 0.85814 0.97389 0.3916 0.0
C1386 C 0.85372 0.04782 0.40874 0.0
C1387 C 0.88432 0.02481 0.39544 0.0
C1388 C 0.91443 0.02771 0.38696 0.0
C1389 C 0.82609 0.01745 0.40941 0.0
C1390 C 0.82786 0.99055 0.40323 0.0
C1391 C 0.85695 0.99458 0.39643 0.0
C1392 C 0.79966 0.95801 0.4027 0.0
C1393 C 0.79499 0.01443 0.41604 0.0
C1394 C 0.78422 0.94215 0.4196 0.0
C1395 C 0.75942 0.91039 0.41893 0.0
C1396 C 0.74978 0.89407 0.40138 0.0
C1397 C 0.76516 0.91011 0.38452 0.0
C1398 C 0.78984 0.94177 0.38518 0.0
H1399 H 0.79637 0.03799 0.41713 0.0
H1400 H 0.7754 0.99908 0.40603 0.0
H1401 H 0.78879 1.00301 0.43035 0.0
H1402 H 0.79191 0.95401 0.43331 0.0
H1403 H 0.74827 0.89841 0.43218 0.0
H1404 H 0.85934 0.74701 0.9298 0.0
H1405 H 0.84751 0.79056 0.93036 0.0
H1406 H 0.86802 0.80586 0.87003 0.0
H1407 H 0.87898 0.76165 0.86923 0.0
H1408 H 0.89944 0.86155 0.89359 0.0
H1409 H 0.76851 0.79169 0.90745 0.0
H1410 H 0.79373 0.78391 0.9228 0.0
H1411 H 0.79067 0.77386 0.89786 0.0
C1412 C 0.86094 0.75938 0.91659 0.0
C1413 C 0.86989 0.75079 0.89943 0.0
C1414 C 0.85414 0.78422 0.91695 0.0
C1415 C 0.85641 0.80104 0.90018 0.0
C1416 C 0.86592 0.79294 0.8831 0.0
H1417 H 0.80001 0.93656 0.86765 0.0
H1418 H 0.80146 0.8876 0.87472 0.0
C1419 C 0.87246 0.76791 0.88269 0.0
C1420 C 0.85046 0.82817 0.90055 0.0
H1421 H 0.79221 0.84786 0.90646 0.0
C1422 C 0.87605 0.85864 0.89647 0.0
C1423 C 0.81986 0.82411 0.90427 0.0
C1424 C 0.79146 0.79164 0.90823 0.0
C1425 C 0.87187 0.88524 0.89575 0.0
C1426 C 0.84129 0.88131 0.89955 0.0
C1427 C 0.81566 0.85082 0.90376 0.0
C1428 C 0.83544 0.90848 0.89795 0.0
C1429 C 0.90008 0.91714 0.89032 0.0
C1430 C 0.85277 0.93581 0.9093 0.0
C1431 C 0.85236 0.96378 0.90506 0.0
C1432 C 0.83397 0.96453 0.88976 0.0
C1433 C 0.81432 0.9364 0.87953 0.0
C1434 C 0.81514 0.90852 0.88357 0.0
H1435 H 0.91956 0.9146 0.88363 0.0
H1436 H 0.89279 0.93001 0.8802 0.0
H1437 H 0.90992 0.932 0.90336 0.0
H1438 H 0.86799 0.93602 0.92074 0.0
H1439 H 0.86747 0.98522 0.9132 0.0
H1440 H 0.11931 0.71139 0.15499 0.0
H1441 H 0.12654 0.66463 0.15762 0.0
H1442 H 0.17443 0.68757 0.10308 0.0
H1443 H 0.16543 0.73246 0.09975 0.0
H1444 H 0.10745 0.61222 0.12516 0.0
H1445 H 0.23592 0.6793 0.14541 0.0
H1446 H 0.20881 0.69403 0.15022 0.0
H1447 H 0.22384 0.69619 0.12647 0.0
C1448 C 0.13115 0.70631 0.14351 0.0
C1449 C 0.14249 0.72621 0.12733 0.0
C1450 C 0.13545 0.67973 0.1451 0.0
C1451 C 0.15166 0.67313 0.13072 0.0
C1452 C 0.16242 0.6926 0.1145 0.0
H1453 H 0.20908 0.54595 0.08858 0.0
H1454 H 0.20439 0.59158 0.0995 0.0
C1455 C 0.15749 0.71849 0.11271 0.0
C1456 C 0.15659 0.6453 0.13191 0.0
H1457 H 0.21554 0.62596 0.13429 0.0
C1458 C 0.13087 0.61496 0.12761 0.0
C1459 C 0.18733 0.64921 0.13479 0.0
C1460 C 0.21562 0.68138 0.13961 0.0
C1461 C 0.13535 0.58861 0.1252 0.0
C1462 C 0.16628 0.59259 0.12763 0.0
C1463 C 0.19182 0.62282 0.13259 0.0
C1464 C 0.17299 0.56642 0.12319 0.0
C1465 C 0.10731 0.55716 0.11892 0.0
C1466 C 0.15808 0.53751 0.13338 0.0
C1467 C 0.16104 0.5115 0.12724 0.0
C1468 C 0.17893 0.51406 0.11083 0.0
C1469 C 0.19533 0.54352 0.10134 0.0
C1470 C 0.19259 0.56952 0.10755 0.0
H1471 H 0.08679 0.55971 0.11409 0.0
H1472 H 0.11433 0.54664 0.10707 0.0
H1473 H 0.09919 0.5402 0.13109 0.0
H1474 H 0.14317 0.53469 0.14563 0.0
H1475 H 0.14791 0.4889 0.13464 0.0
H1476 H 0.6641 0.14331 0.6186 0.0
H1477 H 0.60973 0.12709 0.62967 0.0
H1478 H 0.63055 0.22448 0.62517 0.0
H1479 H 0.68471 0.24071 0.6143 0.0
H1480 H 0.58927 0.18912 0.657 0.0
H1481 H 0.55 0.12755 0.58662 0.0
H1482 H 0.57289 0.11604 0.60151 0.0
H1483 H 0.59132 0.1557 0.59189 0.0
C1484 C 0.65737 0.16135 0.62065 0.0
C1485 C 0.67842 0.1932 0.61546 0.0
C1486 C 0.62628 0.15206 0.62682 0.0
C1487 C 0.61599 0.17453 0.62793 0.0
C1488 C 0.63796 0.20676 0.62438 0.0
H1489 H 0.43899 0.16414 0.6036 0.0
H1490 H 0.49315 0.17314 0.60592 0.0
C1491 C 0.66886 0.21599 0.61815 0.0
C1492 C 0.58164 0.16434 0.63023 0.0
H1493 H 0.51062 0.12752 0.60612 0.0
C1494 C 0.57188 0.17525 0.64605 0.0
C1495 C 0.55924 0.14684 0.61569 0.0
C1496 C 0.56875 0.13599 0.59787 0.0
C1497 C 0.54035 0.16946 0.64757 0.0
C1498 C 0.51803 0.15206 0.63296 0.0
C1499 C 0.52771 0.14065 0.61737 0.0
C1500 C 0.48529 0.14759 0.63257 0.0
C1501 C 0.53155 0.18319 0.66432 0.0
C1502 C 0.46275 0.13034 0.64688 0.0
C1503 C 0.43158 0.12533 0.64567 0.0
C1504 C 0.42239 0.13713 0.63 0.0
C1505 C 0.44514 0.15455 0.61582 0.0
C1506 C 0.47619 0.15973 0.61711 0.0
H1507 H 0.55299 0.20134 0.67218 0.0
H1508 H 0.51747 0.19433 0.6595 0.0
H1509 H 0.51654 0.16372 0.67443 0.0
H1510 H 0.46907 0.12028 0.65878 0.0
H1511 H 0.41467 0.11191 0.65685 0.0
H1512 H 0.4702 0.68781 0.13425 0.0
H1513 H 0.43144 0.63371 0.14505 0.0
H1514 H 0.47362 0.59502 0.1068 0.0
H1515 H 0.5126 0.6491 0.09633 0.0
H1516 H 0.38818 0.59055 0.1212 0.0
H1517 H 0.45721 0.53943 0.15338 0.0
H1518 H 0.47407 0.58179 0.1497 0.0
H1519 H 0.47231 0.55646 0.1303 0.0
C1520 C 0.4719 0.66775 0.1288 0.0
C1521 C 0.49458 0.67242 0.11478 0.0
C1522 C 0.44969 0.6369 0.13485 0.0
C1523 C 0.4498 0.61025 0.12692 0.0
C1524 C 0.47352 0.61513 0.11352 0.0
H1525 H 0.29005 0.42909 0.09955 0.0
H1526 H 0.33572 0.48294 0.10132 0.0
C1527 C 0.49576 0.646 0.10751 0.0
C1528 C 0.42267 0.57755 0.13052 0.0
H1529 H 0.40416 0.50165 0.1422 0.0
C1530 C 0.39168 0.57126 0.12611 0.0
C1531 C 0.42708 0.55234 0.13706 0.0
C1532 C 0.45945 0.55789 0.14307 0.0
C1533 C 0.36523 0.54033 0.12728 0.0
C1534 C 0.36994 0.51478 0.13261 0.0
C1535 C 0.40065 0.5212 0.13789 0.0
C1536 C 0.34352 0.48117 0.13166 0.0
C1537 C 0.33251 0.5353 0.12257 0.0
C1538 C 0.33361 0.46164 0.14799 0.0
C1539 C 0.30756 0.43044 0.14698 0.0
C1540 C 0.29111 0.41843 0.12962 0.0
C1541 C 0.30187 0.43774 0.11322 0.0
C1542 C 0.32792 0.46864 0.1142 0.0
H1543 H 0.33148 0.55752 0.12468 0.0
H1544 H 0.327 0.52827 0.10732 0.0
H1545 H 0.31372 0.51614 0.13151 0.0
H1546 H 0.34555 0.47079 0.16157 0.0
H1547 H 0.29988 0.41605 0.15984 0.0
H1548 H 0.88847 0.52487 0.62618 0.0
H1549 H 0.89149 0.47753 0.63518 0.0
H1550 H 0.79339 0.41725 0.61788 0.0
H1551 H 0.79023 0.4648 0.60896 0.0
H1552 H 0.82259 0.4002 0.65525 0.0
H1553 H 0.88447 0.4202 0.58507 0.0
H1554 H 0.89635 0.4542 0.60044 0.0
H1555 H 0.85719 0.43461 0.58998 0.0
C1556 C 0.86722 0.50156 0.625 0.0
C1557 C 0.83907 0.49836 0.61702 0.0
C1558 C 0.86898 0.47459 0.63009 0.0
C1559 C 0.84272 0.44398 0.62713 0.0
C1560 C 0.81382 0.44074 0.62041 0.0
H1561 H 0.84321 0.2703 0.60301 0.0
H1562 H 0.8337 0.31505 0.60483 0.0
C1563 C 0.81198 0.46783 0.6154 0.0
C1564 C 0.8471 0.41585 0.62832 0.0
H1565 H 0.88024 0.37831 0.60406 0.0
C1566 C 0.83517 0.39531 0.64411 0.0
C1567 C 0.86338 0.40956 0.61368 0.0
C1568 C 0.87603 0.4306 0.59623 0.0
C1569 C 0.83923 0.36852 0.64562 0.0
C1570 C 0.85586 0.36245 0.63104 0.0
C1571 C 0.86766 0.38307 0.61527 0.0
C1572 C 0.86004 0.33405 0.63117 0.0
C1573 C 0.82513 0.34654 0.66254 0.0
C1574 C 0.87791 0.32963 0.64548 0.0
C1575 C 0.88332 0.30375 0.64454 0.0
C1576 C 0.87133 0.28219 0.62913 0.0
C1577 C 0.85308 0.28654 0.61502 0.0
C1578 C 0.84754 0.31214 0.61603 0.0
H1579 H 0.80733 0.35057 0.67024 0.0
H1580 H 0.81342 0.32118 0.65795 0.0
H1581 H 0.84454 0.35089 0.67271 0.0
H1582 H 0.88825 0.34654 0.65713 0.0
H1583 H 0.89724 0.30096 0.65569 0.0
H1584 H 0.58522 0.8581 0.09855 0.0
H1585 H 0.53149 0.84994 0.10016 0.0
H1586 H 0.54755 0.88297 0.15863 0.0
H1587 H 0.6024 0.8921 0.15698 0.0
H1588 H 0.48468 0.80905 0.12306 0.0
H1589 H 0.50725 0.93198 0.13579 0.0
H1590 H 0.53829 0.924 0.12819 0.0
H1591 H 0.52544 0.91793 0.15269 0.0
C1592 C 0.57764 0.86405 0.11175 0.0
C1593 C 0.59817 0.87575 0.12767 0.0
C1594 C 0.54678 0.85931 0.11263 0.0
C1595 C 0.53544 0.86599 0.12946 0.0
C1596 C 0.55595 0.87817 0.14537 0.0
H1597 H 0.32741 0.77781 0.13888 0.0
H1598 H 0.38354 0.79588 0.14631 0.0
C1599 C 0.5872 0.88322 0.14445 0.0
C1600 C 0.50152 0.85819 0.13024 0.0
H1601 H 0.45317 0.8906 0.13487 0.0
C1602 C 0.47779 0.82686 0.12577 0.0
C1603 C 0.4926 0.88152 0.13356 0.0
C1604 C 0.51718 0.91583 0.13768 0.0
C1605 C 0.44555 0.81832 0.12403 0.0
C1606 C 0.43645 0.8415 0.12756 0.0
C1607 C 0.4601 0.87278 0.13235 0.0
C1608 C 0.40269 0.83386 0.12534 0.0
C1609 C 0.42186 0.78483 0.11756 0.0
C1610 C 0.39477 0.85052 0.11201 0.0
C1611 C 0.36268 0.84071 0.10813 0.0
C1612 C 0.3381 0.81392 0.1174 0.0
C1613 C 0.34603 0.79832 0.13142 0.0
C1614 C 0.37804 0.80851 0.13557 0.0
H1615 H 0.4339 0.77307 0.11054 0.0
H1616 H 0.40876 0.77025 0.13017 0.0
H1617 H 0.40419 0.7848 0.10738 0.0
H1618 H 0.41335 0.87024 0.104 0.0
H1619 H 0.35708 0.85305 0.09723 0.0
H1620 H 0.73777 0.57717 0.60207 0.0
H1621 H 0.69442 0.52205 0.60422 0.0
H1622 H 0.66899 0.54107 0.65981 0.0
H1623 H 0.71264 0.59669 0.65779 0.0
H1624 H 0.68237 0.47442 0.63171 0.0
H1625 H 0.58509 0.50426 0.62891 0.0
H1626 H 0.62588 0.53266 0.62259 0.0
H1627 H 0.61475 0.5237 0.64727 0.0
C1628 C 0.72313 0.56971 0.61483 0.0
C1629 C 0.72864 0.5914 0.62975 0.0
C1630 C 0.69835 0.53811 0.61603 0.0
C1631 C 0.67828 0.52749 0.63208 0.0
C1632 C 0.68394 0.54888 0.64718 0.0
H1633 H 0.49875 0.3436 0.63919 0.0
H1634 H 0.54646 0.39313 0.64973 0.0
C1635 C 0.70894 0.58061 0.64603 0.0
C1636 C 0.65112 0.49416 0.63254 0.0
H1637 H 0.56966 0.44995 0.62993 0.0
C1638 C 0.65769 0.46902 0.63155 0.0
C1639 C 0.61896 0.48716 0.63233 0.0
C1640 C 0.61054 0.51327 0.63269 0.0
C1641 C 0.63299 0.43712 0.62996 0.0
C1642 C 0.60088 0.4302 0.62903 0.0
C1643 C 0.59426 0.45525 0.63074 0.0
C1644 C 0.57407 0.39779 0.62432 0.0
C1645 C 0.64155 0.41115 0.62907 0.0
C1646 C 0.57396 0.38369 0.60674 0.0
C1647 C 0.54688 0.35561 0.60077 0.0
C1648 C 0.5194 0.34102 0.61227 0.0
C1649 C 0.51991 0.35417 0.63026 0.0
C1650 C 0.54701 0.3825 0.6362 0.0
H1651 H 0.66483 0.41867 0.6362 0.0
H1652 H 0.62286 0.38887 0.6359 0.0
H1653 H 0.6438 0.4059 0.61388 0.0
H1654 H 0.59417 0.39533 0.59712 0.0
H1655 H 0.54679 0.34611 0.58671 0.0
H1656 H 0.30633 0.90209 0.36866 0.0
H1657 H 0.35365 0.89564 0.36598 0.0
H1658 H 0.32297 0.83494 0.41566 0.0
H1659 H 0.27695 0.84234 0.41891 0.0
H1660 H 0.39632 0.89887 0.40941 0.0
H1661 H 0.3457 0.79666 0.35843 0.0
H1662 H 0.33552 0.82782 0.35695 0.0
H1663 H 0.32019 0.79966 0.37617 0.0
C1664 C 0.30973 0.88749 0.37904 0.0
C1665 C 0.28758 0.87252 0.39395 0.0
C1666 C 0.33668 0.88371 0.37743 0.0
C1667 C 0.34161 0.86461 0.39055 0.0
C1668 C 0.31955 0.84966 0.40534 0.0
H1669 H 0.44909 0.77576 0.41588 0.0
H1670 H 0.41036 0.79062 0.405 0.0
C1671 C 0.29307 0.85377 0.40709 0.0
C1672 C 0.37011 0.86063 0.38953 0.0
H1673 H 0.3948 0.80995 0.3732 0.0
C1674 C 0.39645 0.87992 0.40119 0.0
C1675 C 0.36971 0.83544 0.3791 0.0
C1676 C 0.34136 0.81358 0.36688 0.0
C1677 C 0.42202 0.87402 0.40325 0.0
C1678 C 0.42159 0.8485 0.39297 0.0
C1679 C 0.39549 0.82978 0.38086 0.0
C1680 C 0.4458 0.83846 0.39646 0.0
C1681 C 0.44817 0.89393 0.41738 0.0
C1682 C 0.47886 0.85975 0.39439 0.0
C1683 C 0.50122 0.85128 0.4008 0.0
C1684 C 0.49081 0.82131 0.40922 0.0
C1685 C 0.45782 0.79916 0.40965 0.0
C1686 C 0.43562 0.80764 0.40339 0.0
H1687 H 0.44125 0.90762 0.42711 0.0
H1688 H 0.45434 0.87871 0.42621 0.0
H1689 H 0.46991 0.91128 0.40948 0.0
H1690 H 0.48738 0.88337 0.38859 0.0
H1691 H 0.52647 0.86884 0.40028 0.0
H1692 H 0.68824 0.45295 0.90607 0.0
H1693 H 0.63452 0.41249 0.89572 0.0
H1694 H 0.60567 0.48358 0.89535 0.0
H1695 H 0.6597 0.52428 0.90558 0.0
H1696 H 0.57092 0.42795 0.92104 0.0
H1697 H 0.57743 0.39288 0.84613 0.0
H1698 H 0.60949 0.39901 0.86192 0.0
H1699 H 0.60464 0.4322 0.8555 0.0
C1700 C 0.6708 0.46017 0.90296 0.0
C1701 C 0.67811 0.49173 0.90639 0.0
C1702 C 0.64012 0.43705 0.89709 0.0
C1703 C 0.61615 0.44506 0.89467 0.0
C1704 C 0.62394 0.477 0.89697 0.0
H1705 H 0.41532 0.30765 0.86793 0.0
H1706 H 0.46964 0.35395 0.86739 0.0
C1707 C 0.65481 0.50026 0.90266 0.0
C1708 C 0.58229 0.41937 0.89269 0.0
H1709 H 0.53019 0.35882 0.86353 0.0
C1710 C 0.56188 0.41307 0.90838 0.0
C1711 C 0.57064 0.39996 0.8762 0.0
C1712 C 0.59151 0.40631 0.85887 0.0
C1713 C 0.53033 0.38741 0.90821 0.0
C1714 C 0.5189 0.36727 0.89196 0.0
C1715 C 0.53902 0.37414 0.87602 0.0
C1716 C 0.48642 0.33854 0.89159 0.0
C1717 C 0.50956 0.38208 0.92552 0.0
C1718 C 0.47801 0.31418 0.90508 0.0
C1719 C 0.447 0.28802 0.90558 0.0
C1720 C 0.42375 0.28536 0.89242 0.0
C1721 C 0.43252 0.30914 0.8784 0.0
C1722 C 0.4636 0.33555 0.87802 0.0
H1723 H 0.51847 0.40416 0.9342 0.0
H1724 H 0.48442 0.37373 0.9213 0.0
H1725 H 0.50985 0.36356 0.93472 0.0
H1726 H 0.49542 0.31553 0.91537 0.0
H1727 H 0.44127 0.2699 0.91637 0.0
H1728 H 0.2474 0.68833 0.39286 0.0
H1729 H 0.23015 0.6328 0.38472 0.0
H1730 H 0.13881 0.60273 0.4114 0.0
H1731 H 0.15555 0.65847 0.41862 0.0
H1732 H 0.2179 0.58788 0.40839 0.0
H1733 H 0.10852 0.54802 0.36513 0.0
H1734 H 0.13529 0.58954 0.37065 0.0
H1735 H 0.10554 0.56386 0.38771 0.0
C1736 C 0.22343 0.66983 0.39661 0.0
C1737 C 0.20275 0.67752 0.4063 0.0
C1738 C 0.21356 0.63815 0.39197 0.0
C1739 C 0.18298 0.61346 0.39721 0.0
C1740 C 0.16211 0.62127 0.40665 0.0
H1741 H 0.13908 0.42409 0.42554 0.0
H1742 H 0.14848 0.47849 0.42418 0.0
C1743 C 0.17176 0.65309 0.41093 0.0
C1744 C 0.17445 0.57958 0.3946 0.0
H1745 H 0.11588 0.50646 0.37888 0.0
C1746 C 0.19576 0.57027 0.40169 0.0
C1747 C 0.14568 0.55645 0.38571 0.0
C1748 C 0.12264 0.56507 0.37669 0.0
C1749 C 0.18879 0.53852 0.40065 0.0
C1750 C 0.15925 0.51516 0.39281 0.0
C1751 C 0.13832 0.52443 0.38512 0.0
C1752 C 0.14952 0.48091 0.39327 0.0
C1753 C 0.21317 0.53025 0.40799 0.0
C1754 C 0.14528 0.46368 0.3763 0.0
C1755 C 0.13939 0.43226 0.37704 0.0
C1756 C 0.13802 0.41797 0.39476 0.0
C1757 C 0.14067 0.43478 0.41168 0.0
C1758 C 0.14607 0.46584 0.41093 0.0
H1759 H 0.23746 0.55161 0.40881 0.0
H1760 H 0.20635 0.52015 0.42261 0.0
H1761 H 0.21418 0.51216 0.3987 0.0
H1762 H 0.14769 0.4749 0.36253 0.0
H1763 H 0.1373 0.4197 0.3638 0.0
H1764 H 0.74058 0.16435 0.86734 0.0
H1765 H 0.69546 0.17444 0.86731 0.0
H1766 H 0.65125 0.10635 0.91309 0.0
H1767 H 0.69733 0.09815 0.91393 0.0
H1768 H 0.63345 0.14145 0.86165 0.0
H1769 H 0.65364 0.18162 0.93702 0.0
H1770 H 0.68142 0.17405 0.92409 0.0
H1771 H 0.64638 0.14166 0.93502 0.0
C1772 C 0.72098 0.15146 0.87723 0.0
C1773 C 0.72215 0.13062 0.89068 0.0
C1774 C 0.69529 0.1572 0.87725 0.0
C1775 C 0.67031 0.14182 0.89057 0.0
C1776 C 0.67072 0.1194 0.90316 0.0
H1777 H 0.4945 0.14012 0.91647 0.0
H1778 H 0.53342 0.12402 0.90695 0.0
C1779 C 0.69677 0.11438 0.90349 0.0
C1780 C 0.64434 0.14981 0.89173 0.0
H1781 H 0.60434 0.17151 0.92313 0.0
C1782 C 0.62722 0.14817 0.87508 0.0
C1783 C 0.63651 0.15922 0.90919 0.0
C1784 C 0.65571 0.1646 0.92727 0.0
C1785 C 0.60194 0.15473 0.87559 0.0
C1786 C 0.59333 0.16259 0.89319 0.0
C1787 C 0.61067 0.16476 0.90973 0.0
C1788 C 0.56712 0.16988 0.89489 0.0
C1789 C 0.58436 0.1531 0.85744 0.0
C1790 C 0.57294 0.20068 0.89077 0.0
C1791 C 0.5509 0.20989 0.89627 0.0
C1792 C 0.52264 0.18834 0.90581 0.0
C1793 C 0.51584 0.15688 0.90877 0.0
C1794 C 0.53807 0.14776 0.90344 0.0
H1795 H 0.59264 0.14472 0.84506 0.0
H1796 H 0.55829 0.13681 0.85943 0.0
H1797 H 0.58804 0.17714 0.85412 0.0
H1798 H 0.59543 0.21817 0.88442 0.0
H1799 H 0.55681 0.23442 0.89417 0.0
H1800 H 0.36458 0.49547 0.42324 0.0
H1801 H 0.41908 0.53555 0.41367 0.0
H1802 H 0.38109 0.58312 0.37955 0.0
H1803 H 0.3267 0.54346 0.38951 0.0
H1804 H 0.45367 0.56071 0.38002 0.0
H1805 H 0.43582 0.65095 0.4186 0.0
H1806 H 0.4078 0.60875 0.42022 0.0
H1807 H 0.4076 0.63098 0.39967 0.0
C1808 C 0.36792 0.5139 0.41319 0.0
C1809 C 0.34159 0.51632 0.40693 0.0
C1810 C 0.39902 0.53689 0.40781 0.0
C1811 C 0.40426 0.56277 0.39623 0.0
C1812 C 0.37771 0.56375 0.3888 0.0
H1813 H 0.57796 0.74265 0.37024 0.0
H1814 H 0.52403 0.69549 0.36875 0.0
C1815 C 0.34664 0.54088 0.39427 0.0
C1816 C 0.4373 0.59004 0.39341 0.0
H1817 H 0.48497 0.66973 0.40258 0.0
C1818 C 0.46049 0.58456 0.3849 0.0
C1819 C 0.44634 0.62117 0.39995 0.0
C1820 C 0.42322 0.62837 0.41029 0.0
C1821 C 0.49231 0.6094 0.38261 0.0
C1822 C 0.50119 0.64041 0.38913 0.0
C1823 C 0.478 0.64596 0.39746 0.0
C1824 C 0.53467 0.66732 0.38823 0.0
C1825 C 0.51622 0.60245 0.37315 0.0
C1826 C 0.55853 0.66704 0.39959 0.0
C1827 C 0.58911 0.694 0.40057 0.0
C1828 C 0.59633 0.72141 0.39002 0.0
C1829 C 0.57289 0.72145 0.37821 0.0
C1830 C 0.54218 0.69465 0.37742 0.0
H1831 H 0.50431 0.57955 0.36512 0.0
H1832 H 0.53179 0.62196 0.36318 0.0
H1833 H 0.53174 0.60082 0.38426 0.0
H1834 H 0.55311 0.64647 0.40832 0.0
H1835 H 0.60683 0.69382 0.41 0.0
H1836 H 0.90063 0.59645 0.86665 0.0
H1837 H 0.89102 0.54174 0.86488 0.0
H1838 H 0.8317 0.51696 0.91517 0.0
H1839 H 0.84164 0.57145 0.91729 0.0
H1840 H 0.90502 0.5092 0.89542 0.0
H1841 H 0.77657 0.44627 0.87545 0.0
H1842 H 0.8027 0.48857 0.87176 0.0
H1843 H 0.78692 0.47362 0.89514 0.0
C1844 C 0.88568 0.57943 0.87736 0.0
C1845 C 0.87236 0.58854 0.89226 0.0
C1846 C 0.88004 0.54812 0.87626 0.0
C1847 C 0.86036 0.52524 0.88977 0.0
C1848 C 0.84659 0.53412 0.90443 0.0
H1849 H 0.8067 0.3396 0.9305 0.0
H1850 H 0.80992 0.38983 0.92087 0.0
C1851 C 0.85252 0.56541 0.90568 0.0
C1852 C 0.85546 0.49245 0.88935 0.0
H1853 H 0.79744 0.41388 0.88699 0.0
C1854 C 0.88164 0.48832 0.89324 0.0
C1855 C 0.82486 0.46534 0.88666 0.0
C1856 C 0.79615 0.46853 0.88186 0.0
C1857 C 0.8778 0.45774 0.89537 0.0
C1858 C 0.84704 0.43053 0.89307 0.0
C1859 C 0.821 0.43471 0.88865 0.0
C1860 C 0.84117 0.39781 0.89677 0.0
C1861 C 0.9064 0.45485 0.90106 0.0
C1862 C 0.85647 0.38488 0.8859 0.0
C1863 C 0.8544 0.35604 0.89132 0.0
C1864 C 0.83688 0.33972 0.9076 0.0
C1865 C 0.82003 0.35166 0.91776 0.0
C1866 C 0.82198 0.38036 0.91231 0.0
H1867 H 0.92661 0.47792 0.90616 0.0
H1868 H 0.89997 0.43682 0.91254 0.0
H1869 H 0.91475 0.447 0.88851 0.0
H1870 H 0.87105 0.39775 0.87371 0.0
H1871 H 0.86792 0.34743 0.88347 0.0
H1872 H 0.16048 0.38987 0.34055 0.0
H1873 H 0.16659 0.39374 0.3057 0.0
H1874 H 0.19674 0.32345 0.30677 0.0
H1875 H 0.18688 0.31702 0.34124 0.0
H1876 H 0.20778 0.4101 0.28083 0.0
H1877 H 0.13045 0.28076 0.26885 0.0
H1878 H 0.13546 0.29818 0.29222 0.0
H1879 H 0.16417 0.28791 0.28307 0.0
C1880 C 0.1687 0.37553 0.33325 0.0
C1881 C 0.17316 0.35311 0.34342 0.0
C1882 C 0.17212 0.37763 0.31332 0.0
C1883 C 0.18108 0.35806 0.30328 0.0
C1884 C 0.1882 0.33765 0.31385 0.0
H1885 H 0.24048 0.39514 0.18267 0.0
H1886 H 0.23806 0.39831 0.21753 0.0
C1887 C 0.18326 0.33444 0.33362 0.0
C1888 C 0.18245 0.3587 0.28187 0.0
H1889 H 0.16188 0.3109 0.24232 0.0
C1890 C 0.19733 0.38833 0.27243 0.0
C1891 C 0.16829 0.33044 0.27064 0.0
C1892 C 0.1484 0.29761 0.27924 0.0
C1893 C 0.19855 0.39053 0.25234 0.0
C1894 C 0.18634 0.36231 0.24119 0.0
C1895 C 0.17154 0.33271 0.25065 0.0
C1896 C 0.1878 0.36248 0.21978 0.0
C1897 C 0.21186 0.42313 0.24344 0.0
C1898 C 0.16079 0.34077 0.20916 0.0
C1899 C 0.16269 0.33798 0.18938 0.0
C1900 C 0.19125 0.35768 0.1796 0.0
C1901 C 0.21789 0.38046 0.18988 0.0
C1902 C 0.21642 0.38231 0.20985 0.0
H1903 H 0.20899 0.43972 0.25314 0.0
H1904 H 0.23785 0.43338 0.24087 0.0
H1905 H 0.19992 0.42202 0.22967 0.0
H1906 H 0.13834 0.32517 0.21626 0.0
H1907 H 0.14199 0.31985 0.18175 0.0
H1908 H 0.81856 0.21164 0.67768 0.0
H1909 H 0.80964 0.20998 0.71247 0.0
H1910 H 0.85634 0.1547 0.71981 0.0
H1911 H 0.865 0.15587 0.68535 0.0
H1912 H 0.78188 0.143 0.73979 0.0
H1913 H 0.90328 0.24711 0.75301 0.0
H1914 H 0.88077 0.24397 0.73165 0.0
H1915 H 0.89796 0.21886 0.7345 0.0
C1916 C 0.82638 0.19865 0.68669 0.0
C1917 C 0.84265 0.18406 0.67875 0.0
C1918 C 0.82143 0.19788 0.70654 0.0
C1919 C 0.83262 0.18246 0.71867 0.0
C1920 C 0.8477 0.16687 0.7107 0.0
H1921 H 0.85669 0.14826 0.8351 0.0
H1922 H 0.85847 0.15746 0.80062 0.0
C1923 C 0.85258 0.16756 0.69098 0.0
C1924 C 0.82967 0.18318 0.73978 0.0
H1925 H 0.87347 0.21858 0.78003 0.0
C1926 C 0.80156 0.15995 0.74863 0.0
C1927 C 0.85568 0.2049 0.75121 0.0
C1928 C 0.88624 0.23029 0.74224 0.0
C1929 C 0.79913 0.15741 0.76869 0.0
C1930 C 0.82539 0.17877 0.78014 0.0
C1931 C 0.85327 0.2024 0.77125 0.0
C1932 C 0.82532 0.17517 0.80127 0.0
C1933 C 0.76948 0.13043 0.77752 0.0
C1934 C 0.80674 0.18292 0.81318 0.0
C1935 C 0.8059 0.17795 0.83302 0.0
C1936 C 0.82344 0.16491 0.84118 0.0
C1937 C 0.84279 0.1582 0.82923 0.0
C1938 C 0.84382 0.1634 0.80952 0.0
H1939 H 0.75106 0.11591 0.76666 0.0
H1940 H 0.77619 0.11474 0.78535 0.0
H1941 H 0.75894 0.13986 0.78794 0.0
H1942 H 0.79252 0.19231 0.8071 0.0
H1943 H 0.79062 0.18315 0.84183 0.0
H1944 H 0.61122 0.82759 0.17954 0.0
H1945 H 0.60557 0.82064 0.21453 0.0
H1946 H 0.70319 0.84132 0.21857 0.0
H1947 H 0.70901 0.84863 0.18398 0.0
H1948 H 0.61613 0.78128 0.24162 0.0
H1949 H 0.70054 0.91006 0.25166 0.0
H1950 H 0.68808 0.89249 0.22825 0.0
H1951 H 0.71944 0.89029 0.24063 0.0
C1952 C 0.63118 0.82997 0.1879 0.0
C1953 C 0.66061 0.83891 0.17906 0.0
C1954 C 0.62801 0.82615 0.20788 0.0
C1955 C 0.65418 0.8311 0.21924 0.0
C1956 C 0.68287 0.83799 0.2102 0.0
H1957 H 0.71279 0.84973 0.33605 0.0
H1958 H 0.70609 0.85064 0.3018 0.0
C1959 C 0.68611 0.84205 0.1904 0.0
C1960 C 0.65244 0.8308 0.24055 0.0
H1961 H 0.68711 0.87755 0.27983 0.0
C1962 C 0.63141 0.80234 0.25004 0.0
C1963 C 0.67265 0.85821 0.25155 0.0
C1964 C 0.69625 0.88955 0.24247 0.0
C1965 C 0.63112 0.80015 0.27018 0.0
C1966 C 0.65133 0.82769 0.28121 0.0
C1967 C 0.67149 0.85637 0.27159 0.0
C1968 C 0.65434 0.82708 0.30253 0.0
C1969 C 0.61045 0.76793 0.27927 0.0
C1970 C 0.6276 0.81417 0.3148 0.0
C1971 C 0.63138 0.81272 0.33467 0.0
C1972 C 0.66203 0.82484 0.34266 0.0
C1973 C 0.68872 0.83966 0.33045 0.0
C1974 C 0.68492 0.84029 0.31073 0.0
H1975 H 0.60384 0.74821 0.26888 0.0
H1976 H 0.62276 0.76426 0.29158 0.0
H1977 H 0.58798 0.76631 0.28445 0.0
H1978 H 0.60377 0.80496 0.30906 0.0
H1979 H 0.61034 0.8015 0.34368 0.0
H1980 H 0.86446 0.70616 0.68367 0.0
H1981 H 0.86516 0.70081 0.71839 0.0
H1982 H 0.78752 0.60367 0.71436 0.0
H1983 H 0.7872 0.6088 0.67939 0.0
H1984 H 0.81569 0.6889 0.74246 0.0
H1985 H 0.84765 0.59409 0.7509 0.0
H1986 H 0.85283 0.61485 0.72858 0.0
H1987 H 0.81375 0.58413 0.73588 0.0
C1988 C 0.84798 0.68343 0.69014 0.0
C1989 C 0.8259 0.65784 0.67879 0.0
C1990 C 0.84829 0.68043 0.71002 0.0
C1991 C 0.82656 0.65178 0.71909 0.0
C1992 C 0.805 0.62581 0.70773 0.0
H1993 H 0.81309 0.61182 0.8434 0.0
H1994 H 0.80089 0.60623 0.80894 0.0
C1995 C 0.80485 0.62873 0.68773 0.0
C1996 C 0.82547 0.65023 0.74045 0.0
H1997 H 0.8369 0.61378 0.7791 0.0
C1998 C 0.82022 0.67237 0.75045 0.0
C1999 C 0.83081 0.62834 0.75097 0.0
C2000 C 0.83682 0.60412 0.7411 0.0
C2001 C 0.82071 0.67367 0.77055 0.0
C2002 C 0.8276 0.65281 0.78113 0.0
C2003 C 0.83172 0.62987 0.77113 0.0
C2004 C 0.83302 0.65604 0.80231 0.0
C2005 C 0.81354 0.69735 0.78013 0.0
C2006 C 0.85497 0.68575 0.8102 0.0
C2007 C 0.86124 0.6891 0.8298 0.0
C2008 C 0.84681 0.66257 0.84214 0.0
C2009 C 0.82462 0.63274 0.83436 0.0
C2010 C 0.81781 0.62951 0.81462 0.0
H2011 H 0.79713 0.70188 0.77126 0.0
H2012 H 0.80254 0.68897 0.79444 0.0
H2013 H 0.83609 0.72046 0.78181 0.0
H2014 H 0.86796 0.70644 0.80113 0.0
H2015 H 0.87837 0.71256 0.83517 0.0
H2016 H 0.1898 0.78979 0.17917 0.0
H2017 H 0.19651 0.79171 0.21422 0.0
H2018 H 0.17065 0.86487 0.21769 0.0
H2019 H 0.16358 0.86276 0.18308 0.0
H2020 H 0.23386 0.84178 0.24111 0.0
H2021 H 0.10422 0.79347 0.25131 0.0
H2022 H 0.12166 0.79745 0.22797 0.0
H2023 H 0.12264 0.83124 0.23927 0.0
C2024 C 0.18618 0.80666 0.18743 0.0
C2025 C 0.17589 0.8259 0.17841 0.0
C2026 C 0.18985 0.80765 0.20744 0.0
C2027 C 0.18338 0.82795 0.21865 0.0
C2028 C 0.17508 0.84852 0.20944 0.0
H2029 H 0.16604 0.87073 0.33532 0.0
H2030 H 0.16535 0.86321 0.30095 0.0
C2031 C 0.17119 0.84736 0.18962 0.0
C2032 C 0.18385 0.82698 0.23998 0.0
H2033 H 0.13704 0.81488 0.27925 0.0
C2034 C 0.21267 0.83559 0.2495 0.0
C2035 C 0.15624 0.81916 0.25097 0.0
C2036 C 0.12438 0.80954 0.24184 0.0
C2037 C 0.21495 0.83801 0.26963 0.0
C2038 C 0.18728 0.83034 0.2806 0.0
C2039 C 0.1583 0.82075 0.271 0.0
C2040 C 0.18798 0.83428 0.30186 0.0
C2041 C 0.24733 0.85037 0.27879 0.0
C2042 C 0.2003 0.82001 0.31417 0.0
C2043 C 0.20144 0.82499 0.33404 0.0
C2044 C 0.18982 0.84394 0.342 0.0
C2045 C 0.1759 0.8566 0.32972 0.0
C2046 C 0.17534 0.85217 0.30996 0.0
H2047 H 0.26703 0.86335 0.26836 0.0
H2048 H 0.25077 0.86666 0.29089 0.0
H2049 H 0.24927 0.82995 0.28434 0.0
H2050 H 0.20915 0.80511 0.30845 0.0
H2051 H 0.21199 0.81457 0.3431 0.0
H2052 H 0.40953 0.22164 0.84282 0.0
H2053 H 0.41729 0.21983 0.80804 0.0
H2054 H 0.31663 0.1532 0.80123 0.0
H2055 H 0.30878 0.15474 0.8356 0.0
H2056 H 0.39308 0.15909 0.78038 0.0
H2057 H 0.34072 0.23708 0.76799 0.0
H2058 H 0.36256 0.23926 0.78946 0.0
H2059 H 0.32259 0.2065 0.78595 0.0
C2060 C 0.38925 0.20614 0.83391 0.0
C2061 C 0.35851 0.1886 0.84192 0.0
C2062 C 0.39367 0.2052 0.81407 0.0
C2063 C 0.36745 0.18663 0.80203 0.0
C2064 C 0.33714 0.16789 0.8102 0.0
H2065 H 0.30783 0.15316 0.68572 0.0
H2066 H 0.31586 0.16143 0.72009 0.0
C2067 C 0.33272 0.16884 0.82987 0.0
C2068 C 0.37077 0.18794 0.78083 0.0
H2069 H 0.3489 0.21325 0.74101 0.0
C2070 C 0.38385 0.17125 0.77171 0.0
C2071 C 0.35863 0.20371 0.76955 0.0
C2072 C 0.3454 0.22285 0.77861 0.0
C2073 C 0.38382 0.16883 0.75158 0.0
C2074 C 0.37083 0.18398 0.74031 0.0
C2075 C 0.35876 0.20152 0.74954 0.0
C2076 C 0.36699 0.18003 0.71912 0.0
C2077 C 0.39641 0.14891 0.74267 0.0
C2078 C 0.39316 0.18853 0.70686 0.0
C2079 C 0.38854 0.18358 0.68702 0.0
C2080 C 0.35769 0.1702 0.67913 0.0
C2081 C 0.33188 0.16323 0.69134 0.0
C2082 C 0.33644 0.16793 0.71105 0.0
H2083 H 0.39785 0.13251 0.75321 0.0
H2084 H 0.38111 0.13458 0.73056 0.0
H2085 H 0.42085 0.16492 0.73709 0.0
H2086 H 0.41711 0.19875 0.71263 0.0
H2087 H 0.4089 0.18925 0.67798 0.0
H2088 H 0.27899 0.23216 0.93329 0.0
H2089 H 0.26369 0.25121 0.96082 0.0
H2090 H 0.33266 0.2418 0.99527 0.0
H2091 H 0.35057 0.22536 0.96683 0.0
H2092 H 0.23646 0.22586 0.99116 0.0
H2093 H 0.3544 0.32751 0.01241 0.0
H2094 H 0.34893 0.30582 0.99045 0.0
H2095 H 0.35311 0.28988 0.01285 0.0
C2096 C 0.29127 0.23412 0.94662 0.0
C2097 C 0.31618 0.22695 0.94764 0.0
C2098 C 0.28229 0.2451 0.96252 0.0
C2099 C 0.2971 0.24848 0.98029 0.0
C2100 C 0.32138 0.24044 0.98166 0.0
H2101 H 0.20738 0.26343 0.08404 0.0
H2102 H 0.22623 0.24655 0.0567 0.0
C2103 C 0.33127 0.23041 0.96541 0.0
C2104 C 0.28602 0.25973 0.99705 0.0
H2105 H 0.31064 0.31538 0.03292 0.0
C2106 C 0.25286 0.24557 1.00017 0.0
C2107 C 0.30711 0.28569 1.00887 0.0
C2108 C 0.34283 0.30333 1.00589 0.0
C2109 C 0.2403 0.25666 0.01441 0.0
C2110 C 0.26137 0.28187 0.02655 0.0
C2111 C 0.29449 0.29605 0.0236 0.0
C2112 C 0.24938 0.2927 0.04291 0.0
C2113 C 0.20445 0.2417 0.01599 0.0
C2114 C 0.25633 0.32454 0.04448 0.0
C2115 C 0.24563 0.33451 0.06034 0.0
C2116 C 0.22807 0.31283 0.07498 0.0
C2117 C 0.22078 0.28089 0.07309 0.0
C2118 C 0.23145 0.27106 0.05736 0.0
H2119 H 0.19228 0.23002 1.0024 0.0
H2120 H 0.1955 0.22315 0.0273 0.0
H2121 H 0.19762 0.25975 0.01987 0.0
H2122 H 0.27023 0.34171 0.03351 0.0
H2123 H 0.25194 0.3593 0.06142 0.0
H2124 H 0.11126 0.3637 0.45828 0.0
H2125 H 0.0751 0.34723 0.48611 0.0
H2126 H 0.04071 0.2485 0.47236 0.0
H2127 H 0.07626 0.26461 0.44464 0.0
H2128 H 0.99641 0.28859 0.47905 0.0
H2129 H 0.07146 0.27524 0.53467 0.0
H2130 H 0.08902 0.30505 0.51608 0.0
H2131 H 0.07289 0.26375 0.51029 0.0
C2132 C 0.09651 0.33854 0.46149 0.0
C2133 C 0.09662 0.31545 0.44931 0.0
C2134 C 0.07571 0.32917 0.47725 0.0
C2135 C 0.05518 0.29665 0.48119 0.0
C2136 C 0.05629 0.27369 0.46953 0.0
H2137 H 0.92927 0.18693 0.57328 0.0
H2138 H 0.96514 0.20707 0.54576 0.0
C2139 C 0.07669 0.28296 0.45373 0.0
C2140 C 0.03137 0.28619 0.4969 0.0
H2141 H 0.01824 0.25903 0.54285 0.0
C2142 C 1.00113 0.28237 0.4931 0.0
C2143 C 0.03752 0.27754 0.51498 0.0
C2144 C 0.06946 0.28056 0.51944 0.0
C2145 C 0.97655 0.26952 0.50686 0.0
C2146 C 0.9827 0.26111 0.52516 0.0
C2147 C 0.01328 0.2654 0.52892 0.0
C2148 C 0.95784 0.24708 0.54052 0.0
C2149 C 0.94395 0.2639 0.50126 0.0
C2150 C 0.94083 0.26214 0.54658 0.0
C2151 C 0.91933 0.24987 0.56195 0.0
C2152 C 0.9153 0.22297 0.57199 0.0
C2153 C 0.93175 0.20758 0.56571 0.0
C2154 C 0.95252 0.21929 0.55008 0.0
H2155 H 0.94052 0.26174 0.4855 0.0
H2156 H 0.92458 0.24195 0.50799 0.0
H2157 H 0.94161 0.28453 0.50598 0.0
H2158 H 0.94508 0.28412 0.53996 0.0
H2159 H 0.9076 0.2627 0.56681 0.0
H2160 H 0.65001 0.89894 0.06379 0.0
H2161 H 0.66569 0.93592 0.03658 0.0
H2162 H 0.76509 0.97062 0.04936 0.0
H2163 H 0.74969 0.93421 0.07647 0.0
H2164 H 0.75168 0.01949 0.04496 0.0
H2165 H 0.70265 0.9341 0.98422 0.0
H2166 H 0.67463 0.92809 1.0029 0.0
H2167 H 0.70785 0.92224 1.00781 0.0
C2168 C 0.67516 0.91385 0.06045 0.0
C2169 C 0.69859 0.91354 0.07223 0.0
C2170 C 0.68412 0.93511 0.04495 0.0
C2171 C 0.71663 0.9561 0.04087 0.0
C2172 C 0.73991 0.95484 0.05223 0.0
H2173 H 0.8109 0.06612 0.94135 0.0
H2174 H 0.79154 0.03114 0.96906 0.0
C2175 C 0.73102 0.93382 0.06767 0.0
C2176 C 0.72681 0.98031 0.02531 0.0
H2177 H 0.72595 0.98883 0.97683 0.0
C2178 C 0.74588 0.0128 0.03007 0.0
C2179 C 0.71952 0.97161 1.00586 0.0
C2180 C 0.70027 0.93713 0.99977 0.0
C2181 C 0.75803 0.0367 0.01592 0.0
C2182 C 0.75066 0.02797 0.9965 0.0
C2183 C 0.73136 0.99553 0.99175 0.0
C2184 C 0.76444 0.05171 0.9807 0.0
C2185 C 0.77956 0.07099 0.02178 0.0
C2186 C 0.75632 0.07564 0.97819 0.0
C2187 C 0.76743 0.09592 0.96218 0.0
C2188 C 0.78674 0.09247 0.94842 0.0
C2189 C 0.79594 0.06944 0.95156 0.0
C2190 C 0.78479 0.04925 0.9674 0.0
H2191 H 0.78763 0.07312 0.03687 0.0
H2192 H 0.80093 0.0826 0.01238 0.0
H2193 H 0.7664 0.08419 0.02025 0.0
H2194 H 0.74043 0.07785 0.9882 0.0
H2195 H 0.75965 0.11317 0.96013 0.0
H2196 H 0.76097 0.6489 0.56167 0.0
H2197 H 0.74078 0.66462 0.53385 0.0
H2198 H 0.79484 0.76301 0.55156 0.0
H2199 H 0.81508 0.74765 0.57914 0.0
H2200 H 0.70528 0.69994 0.5368 0.0
H2201 H 0.81634 0.7648 0.4938 0.0
H2202 H 0.81145 0.73635 0.51209 0.0
H2203 H 0.81988 0.7757 0.51863 0.0
C2204 C 0.7692 0.67395 0.55934 0.0
C2205 C 0.78984 0.69702 0.57258 0.0
C2206 C 0.75739 0.68287 0.54355 0.0
C2207 C 0.76641 0.71504 0.54055 0.0
C2208 C 0.78781 0.73813 0.55341 0.0
H2209 H 0.73393 0.82441 0.45411 0.0
H2210 H 0.75088 0.80611 0.48199 0.0
C2211 C 0.79937 0.72925 0.5692 0.0
C2212 C 0.75242 0.7246 0.52461 0.0
H2213 H 0.77214 0.76951 0.48396 0.0
C2214 C 0.71977 0.71498 0.52513 0.0
C2215 C 0.77145 0.74468 0.50961 0.0
C2216 C 0.8067 0.75587 0.50833 0.0
C2217 C 0.70578 0.72559 0.5114 0.0
C2218 C 0.7247 0.74539 0.49612 0.0
C2219 C 0.75737 0.75453 0.49555 0.0
C2220 C 0.71163 0.75727 0.48064 0.0
C2221 C 0.67124 0.71648 0.51407 0.0
C2222 C 0.68322 0.73653 0.47072 0.0
C2223 C 0.67262 0.74759 0.45538 0.0
C2224 C 0.69106 0.77917 0.44898 0.0
C2225 C 0.71915 0.80001 0.45891 0.0
C2226 C 0.72901 0.78936 0.47472 0.0
H2227 H 0.66408 0.71169 0.52935 0.0
H2228 H 0.66661 0.73548 0.50893 0.0
H2229 H 0.65579 0.6942 0.506 0.0
H2230 H 0.66984 0.71143 0.47423 0.0
H2231 H 0.65132 0.73084 0.44762 0.0
H2232 H 0.94101 0.74378 0.94514 0.0
H2233 H 0.97725 0.75924 0.97246 0.0
H2234 H 0.93983 0.66024 0.98667 0.0
H2235 H 0.90323 0.64438 0.95902 0.0
H2236 H 0.9528 0.71184 0.01927 0.0
H2237 H 0.05436 0.73764 0.97085 0.0
H2238 H 0.02755 0.75137 0.96352 0.0
H2239 H 0.01331 0.70937 0.96472 0.0
C2240 C 0.93999 0.7252 0.95426 0.0
C2241 C 0.91926 0.6928 0.94987 0.0
C2242 C 0.96086 0.73413 0.96983 0.0
C2243 C 0.96159 0.71093 0.98143 0.0
C2244 C 0.93969 0.67853 0.97783 0.0
H2245 H 0.11611 0.75054 0.06366 0.0
H2246 H 0.07769 0.72825 0.03696 0.0
C2247 C 0.91861 0.66949 0.96215 0.0
C2248 C 0.9864 0.72095 0.99663 0.0
H2249 H 0.06713 0.75411 1.0031 0.0
C2250 C 0.97773 0.72075 0.01579 0.0
C2251 C 0.01893 0.73253 0.99206 0.0
C2252 C 0.02931 0.73268 0.9717 0.0
C2253 C 1.00088 0.73259 0.03045 0.0
C2254 C 0.03366 0.74532 0.02581 0.0
C2255 C 0.04213 0.74453 1.00669 0.0
C2256 C 0.05939 0.76063 0.04054 0.0
C2257 C 0.98997 0.73143 0.05081 0.0
C2258 C 0.06309 0.78723 0.05075 0.0
C2259 C 0.08499 0.79999 0.06579 0.0
C2260 C 0.10405 0.78671 0.07096 0.0
C2261 C 0.10203 0.76149 0.05991 0.0
C2262 C 0.07985 0.74855 0.04479 0.0
H2263 H 0.96436 0.71313 0.05263 0.0
H2264 H 1.00447 0.72619 0.06093 0.0
H2265 H 0.99278 0.75494 0.05466 0.0
H2266 H 0.04832 0.7976 0.04744 0.0
H2267 H 0.08608 0.81958 0.07394 0.0
H2268 H 0.2704 0.90387 0.45557 0.0
H2269 H 0.29184 0.94176 0.48246 0.0
H2270 H 0.20919 0.95371 0.48018 0.0
H2271 H 0.18837 0.91674 0.45321 0.0
H2272 H 0.26347 0.01057 0.47972 0.0
H2273 H 0.26976 0.93707 0.53862 0.0
H2274 H 0.29002 0.93693 0.51713 0.0
H2275 H 0.24729 0.91965 0.51699 0.0
C2276 C 0.25629 0.91362 0.46137 0.0
C2277 C 0.22751 0.90701 0.4525 0.0
C2278 C 0.26865 0.93551 0.47664 0.0
C2279 C 0.25215 0.9507 0.48347 0.0
C2280 C 0.22253 0.94256 0.47521 0.0
H2281 H 0.26695 0.06365 0.58131 0.0
H2282 H 0.25191 0.02711 0.5543 0.0
C2283 C 0.21044 0.92111 0.45992 0.0
C2284 C 0.26622 0.9765 0.49829 0.0
H2285 H 0.29204 0.9923 0.54473 0.0
C2286 C 0.2699 0.00656 0.49388 0.0
C2287 C 0.27448 0.9714 0.51687 0.0
C2288 C 0.26996 0.93947 0.52282 0.0
C2289 C 0.28128 0.03133 0.50751 0.0
C2290 C 0.28947 0.02616 0.52601 0.0
C2291 C 0.28613 0.99633 0.53042 0.0
C2292 C 0.29887 0.05043 0.54148 0.0
C2293 C 0.2836 0.06265 0.50233 0.0
C2294 C 0.33027 0.07631 0.54306 0.0
C2295 C 0.33919 0.09743 0.5587 0.0
C2296 C 0.31679 0.093 0.57299 0.0
C2297 C 0.28501 0.06787 0.57071 0.0
C2298 C 0.27628 0.04678 0.55527 0.0
H2299 H 0.2754 0.06268 0.48749 0.0
H2300 H 0.26892 0.06777 0.51238 0.0
H2301 H 0.30876 0.08223 0.5038 0.0
H2302 H 0.34807 0.07959 0.53251 0.0
H2303 H 0.36385 0.11631 0.56 0.0
loop_
_geom_bond_atom_site_label_1
_geom_bond_atom_site_label_2
_geom_bond_distance
_geom_bond_site_symmetry_2
_ccdc_geom_bond_type
Eu0 N29 2.600 . S
Eu0 N35 2.562 . S
Eu0 O44 2.462 . S
Eu0 O45 2.373 . S
Eu0 O47 2.432 . S
Eu0 O48 2.291 . S
Eu0 O52 2.335 . S
Eu0 O55 2.372 . S
Eu0 C64 2.787 . S
C1 N2 1.365 . S
C1 C4 1.405 . S
C1 C8 1.448 . S
N2 C1 1.365 . S
N2 C5 1.319 . S
N2 Eu11 2.600 . S
C3 C5 1.397 . S
C3 C6 1.367 . S
C3 H23 0.931 . S
C4 C1 1.405 . S
C4 C6 1.403 . S
C4 C10 1.439 . S
C5 N2 1.319 . S
C5 C3 1.397 . S
C5 H16 0.930 . S
C6 C3 1.367 . S
C6 C4 1.403 . S
C6 H27 0.929 . S
C7 C8 1.430 . S
C7 C9 1.387 . S
C7 C13 1.404 . S
C8 C1 1.448 . S
C8 C7 1.430 . S
C8 N12 1.351 . S
C9 C7 1.387 . S
C9 C10 1.374 . S
C9 H24 0.931 . S
C10 C4 1.439 . S
C10 C9 1.374 . S
C10 H25 0.931 . S
Eu11 N2 2.600 . S
Eu11 N12 2.562 . S
Eu11 O46 2.335 . S
Eu11 O49 2.372 . S
Eu11 O50 2.462 . S
Eu11 O51 2.373 . S
Eu11 O53 2.432 . S
Eu11 O54 2.291 . S
Eu11 C75 2.787 . S
N12 C8 1.351 . S
N12 Eu11 2.562 . S
N12 C14 1.325 . S
C13 C7 1.404 . S
C13 C15 1.366 . S
C13 H21 0.930 . S
C14 N12 1.325 . S
C14 C15 1.416 . S
C14 H20 0.929 . S
C15 C13 1.366 . S
C15 C14 1.416 . S
C15 H17 0.930 . S
H16 C5 0.930 . S
H17 C15 0.930 . S
H18 C33 0.930 . S
H19 C40 0.930 . S
H20 C14 0.929 . S
H21 C13 0.930 . S
H22 C36 0.929 . S
H23 C3 0.931 . S
H24 C9 0.931 . S
H25 C10 0.931 . S
H26 C31 0.931 . S
H27 C6 0.929 . S
H28 C39 0.930 . S
N29 Eu0 2.600 . S
N29 C30 1.365 . S
N29 C33 1.319 . S
C30 N29 1.365 . S
C30 C32 1.405 . S
C30 C38 1.448 . S
C31 H26 0.931 . S
C31 C33 1.397 . S
C31 C34 1.367 . S
C32 C30 1.405 . S
C32 C34 1.403 . S
C32 C65 1.439 . S
C33 H18 0.930 . S
C33 N29 1.319 . S
C33 C31 1.397 . S
C34 C31 1.367 . S
C34 C32 1.403 . S
C34 H41 0.929 . S
N35 Eu0 2.562 . S
N35 C36 1.325 . S
N35 C38 1.351 . S
C36 H22 0.929 . S
C36 N35 1.325 . S
C36 C40 1.416 . S
C37 C38 1.430 . S
C37 C39 1.404 . S
C37 C66 1.387 . S
C38 C30 1.448 . S
C38 N35 1.351 . S
C38 C37 1.430 . S
C39 H28 0.930 . S
C39 C37 1.404 . S
C39 C40 1.366 . S
C40 H19 0.930 . S
C40 C36 1.416 . S
C40 C39 1.366 . S
H41 C34 0.929 . S
H42 C65 0.931 . S
H43 C66 0.931 . S
O44 Eu0 2.462 . S
O44 C64 1.252 . S
O45 Eu0 2.373 . S
O45 C56 1.249 . S
O46 Eu11 2.335 . S
O46 C56 1.264 . S
O47 Eu0 2.432 . S
O47 C64 1.268 . S
O48 Eu0 2.291 . S
O48 C63 1.255 . S
O49 Eu11 2.372 . S
O49 C63 1.257 . S
O50 Eu11 2.462 . S
O50 C75 1.252 . S
O51 Eu11 2.373 . S
O51 C67 1.249 . S
O52 Eu0 2.335 . S
O52 C67 1.264 . S
O53 Eu11 2.432 . S
O53 C75 1.268 . S
O54 Eu11 2.291 . S
O54 C74 1.255 . S
O55 Eu0 2.372 . S
O55 C74 1.257 . S
C56 O45 1.249 . S
C56 O46 1.264 . S
C57 C60 1.382 . S
C57 C62 1.390 . S
C57 C64 1.506 . S
C58 C59 1.398 . S
C58 C62 1.392 . S
C59 C58 1.398 . S
C59 C61 1.372 . S
C59 H76 0.931 . S
C60 C57 1.382 . S
C60 C61 1.390 . S
C60 H77 0.931 . S
C61 C59 1.372 . S
C61 C60 1.390 . S
C61 H78 0.929 . S
C62 C57 1.390 . S
C62 C58 1.392 . S
C62 H79 0.930 . S
C63 O48 1.255 . S
C63 O49 1.257 . S
C64 Eu0 2.787 . S
C64 O44 1.252 . S
C64 O47 1.268 . S
C64 C57 1.506 . S
C65 C32 1.439 . S
C65 H42 0.931 . S
C65 C66 1.374 . S
C66 C37 1.387 . S
C66 H43 0.931 . S
C66 C65 1.374 . S
C67 O51 1.249 . S
C67 O52 1.264 . S
C68 C71 1.382 . S
C68 C72 1.390 . S
C68 C75 1.506 . S
C69 C70 1.398 . S
C69 C72 1.392 . S
C70 C69 1.398 . S
C70 C73 1.372 . S
C70 H80 0.931 . S
C71 C68 1.382 . S
C71 C73 1.390 . S
C71 H81 0.931 . S
C72 C68 1.390 . S
C72 C69 1.392 . S
C72 H82 0.930 . S
C73 C70 1.372 . S
C73 C71 1.390 . S
C73 H83 0.929 . S
C74 O54 1.255 . S
C74 O55 1.257 . S
C75 Eu11 2.787 . S
C75 O50 1.252 . S
C75 O53 1.268 . S
C75 C68 1.506 . S
H76 C59 0.931 . S
H77 C60 0.931 . S
H78 C61 0.929 . S
H79 C62 0.930 . S
H80 C70 0.931 . S
H81 C71 0.931 . S
H82 C72 0.930 . S
H83 C73 0.929 . S
Eu84 N113 2.600 . S
Eu84 N119 2.562 . S
Eu84 O128 2.462 . S
Eu84 O129 2.373 . S
Eu84 O131 2.432 . S
Eu84 O132 2.291 . S
Eu84 O136 2.335 . S
Eu84 O139 2.372 . S
Eu84 C148 2.787 . S
C85 N86 1.365 . S
C85 C88 1.405 . S
C85 C92 1.448 . S
N86 C85 1.365 . S
N86 C89 1.319 . S
N86 Eu95 2.600 . S
C87 C89 1.397 . S
C87 C90 1.367 . S
C87 H107 0.931 . S
C88 C85 1.405 . S
C88 C90 1.403 . S
C88 C94 1.439 . S
C89 N86 1.319 . S
C89 C87 1.397 . S
C89 H100 0.930 . S
C90 C87 1.367 . S
C90 C88 1.403 . S
C90 H111 0.929 . S
C91 C92 1.430 . S
C91 C93 1.387 . S
C91 C97 1.404 . S
C92 C85 1.448 . S
C92 C91 1.430 . S
C92 N96 1.351 . S
C93 C91 1.387 . S
C93 C94 1.374 . S
C93 H108 0.931 . S
C94 C88 1.439 . S
C94 C93 1.374 . S
C94 H109 0.931 . S
Eu95 N86 2.600 . S
Eu95 N96 2.562 . S
Eu95 O130 2.335 . S
Eu95 O133 2.372 . S
Eu95 O134 2.462 . S
Eu95 O135 2.373 . S
Eu95 O137 2.432 . S
Eu95 O138 2.291 . S
Eu95 C159 2.787 . S
N96 C92 1.351 . S
N96 Eu95 2.562 . S
N96 C98 1.325 . S
C97 C91 1.404 . S
C97 C99 1.366 . S
C97 H105 0.930 . S
C98 N96 1.325 . S
C98 C99 1.416 . S
C98 H104 0.929 . S
C99 C97 1.366 . S
C99 C98 1.416 . S
C99 H101 0.930 . S
H100 C89 0.930 . S
H101 C99 0.930 . S
H102 C117 0.930 . S
H103 C124 0.930 . S
H104 C98 0.929 . S
H105 C97 0.930 . S
H106 C120 0.929 . S
H107 C87 0.931 . S
H108 C93 0.931 . S
H109 C94 0.931 . S
H110 C115 0.931 . S
H111 C90 0.929 . S
H112 C123 0.930 . S
N113 Eu84 2.600 . S
N113 C114 1.365 . S
N113 C117 1.319 . S
C114 N113 1.365 . S
C114 C116 1.405 . S
C114 C122 1.448 . S
C115 H110 0.931 . S
C115 C117 1.397 . S
C115 C118 1.367 . S
C116 C114 1.405 . S
C116 C118 1.403 . S
C116 C149 1.439 . S
C117 H102 0.930 . S
C117 N113 1.319 . S
C117 C115 1.397 . S
C118 C115 1.367 . S
C118 C116 1.403 . S
C118 H125 0.929 . S
N119 Eu84 2.562 . S
N119 C120 1.325 . S
N119 C122 1.351 . S
C120 H106 0.929 . S
C120 N119 1.325 . S
C120 C124 1.416 . S
C121 C122 1.430 . S
C121 C123 1.404 . S
C121 C150 1.387 . S
C122 C114 1.448 . S
C122 N119 1.351 . S
C122 C121 1.430 . S
C123 H112 0.930 . S
C123 C121 1.404 . S
C123 C124 1.366 . S
C124 H103 0.930 . S
C124 C120 1.416 . S
C124 C123 1.366 . S
H125 C118 0.929 . S
H126 C149 0.931 . S
H127 C150 0.931 . S
O128 Eu84 2.462 . S
O128 C148 1.252 . S
O129 Eu84 2.373 . S
O129 C140 1.249 . S
O130 Eu95 2.335 . S
O130 C140 1.264 . S
O131 Eu84 2.432 . S
O131 C148 1.268 . S
O132 Eu84 2.291 . S
O132 C147 1.255 . S
O133 Eu95 2.372 . S
O133 C147 1.257 . S
O134 Eu95 2.462 . S
O134 C159 1.252 . S
O135 Eu95 2.373 . S
O135 C151 1.249 . S
O136 Eu84 2.335 . S
O136 C151 1.264 . S
O137 Eu95 2.432 . S
O137 C159 1.268 . S
O138 Eu95 2.291 . S
O138 C158 1.255 . S
O139 Eu84 2.372 . S
O139 C158 1.257 . S
C140 O129 1.249 . S
C140 O130 1.264 . S
C141 C144 1.382 . S
C141 C146 1.390 . S
C141 C148 1.506 . S
C142 C143 1.398 . S
C142 C146 1.392 1_455 S
C143 C142 1.398 . S
C143 C145 1.372 . S
C143 H160 0.931 . S
C144 C141 1.382 . S
C144 C145 1.390 1_655 S
C144 H161 0.931 . S
C145 C143 1.372 . S
C145 C144 1.390 1_455 S
C145 H162 0.929 . S
C146 C141 1.390 . S
C146 C142 1.392 1_655 S
C146 H163 0.930 . S
C147 O132 1.255 . S
C147 O133 1.257 . S
C148 Eu84 2.787 . S
C148 O128 1.252 . S
C148 O131 1.268 . S
C148 C141 1.506 . S
C149 C116 1.439 . S
C149 H126 0.931 . S
C149 C150 1.374 . S
C150 C121 1.387 . S
C150 H127 0.931 . S
C150 C149 1.374 . S
C151 O135 1.249 . S
C151 O136 1.264 . S
C152 C155 1.382 . S
C152 C156 1.390 . S
C152 C159 1.506 . S
C153 C154 1.398 . S
C153 C156 1.392 . S
C154 C153 1.398 . S
C154 C157 1.372 . S
C154 H164 0.931 . S
C155 C152 1.382 . S
C155 C157 1.390 . S
C155 H165 0.931 . S
C156 C152 1.390 . S
C156 C153 1.392 . S
C156 H166 0.930 . S
C157 C154 1.372 . S
C157 C155 1.390 . S
C157 H167 0.929 . S
C158 O138 1.255 . S
C158 O139 1.257 . S
C159 Eu95 2.787 . S
C159 O134 1.252 . S
C159 O137 1.268 . S
C159 C152 1.506 . S
H160 C143 0.931 . S
H161 C144 0.931 . S
H162 C145 0.929 . S
H163 C146 0.930 . S
H164 C154 0.931 . S
H165 C155 0.931 . S
H166 C156 0.930 . S
H167 C157 0.929 . S
Eu168 N197 2.600 . S
Eu168 N203 2.562 . S
Eu168 O212 2.462 . S
Eu168 O213 2.373 . S
Eu168 O215 2.432 . S
Eu168 O216 2.291 . S
Eu168 O220 2.335 . S
Eu168 O223 2.372 . S
Eu168 C232 2.787 . S
C169 N170 1.365 . S
C169 C172 1.405 . S
C169 C176 1.448 . S
N170 C169 1.365 . S
N170 C173 1.319 . S
N170 Eu179 2.600 . S
C171 C173 1.397 . S
C171 C174 1.367 . S
C171 H191 0.931 . S
C172 C169 1.405 . S
C172 C174 1.403 . S
C172 C178 1.439 . S
C173 N170 1.319 . S
C173 C171 1.397 . S
C173 H184 0.930 . S
C174 C171 1.367 . S
C174 C172 1.403 . S
C174 H195 0.929 . S
C175 C176 1.430 . S
C175 C177 1.387 . S
C175 C181 1.404 . S
C176 C169 1.448 . S
C176 C175 1.430 . S
C176 N180 1.351 . S
C177 C175 1.387 . S
C177 C178 1.374 . S
C177 H192 0.931 . S
C178 C172 1.439 . S
C178 C177 1.374 . S
C178 H193 0.931 . S
Eu179 N170 2.600 . S
Eu179 N180 2.562 . S
Eu179 O214 2.335 . S
Eu179 O217 2.372 . S
Eu179 O218 2.462 . S
Eu179 O219 2.373 . S
Eu179 O221 2.432 . S
Eu179 O222 2.291 . S
Eu179 C243 2.787 . S
N180 C176 1.351 . S
N180 Eu179 2.562 . S
N180 C182 1.325 . S
C181 C175 1.404 . S
C181 C183 1.366 . S
C181 H189 0.930 . S
C182 N180 1.325 . S
C182 C183 1.416 . S
C182 H188 0.929 . S
C183 C181 1.366 . S
C183 C182 1.416 . S
C183 H185 0.930 . S
H184 C173 0.930 . S
H185 C183 0.930 . S
H186 C201 0.930 . S
H187 C208 0.930 . S
H188 C182 0.929 . S
H189 C181 0.930 . S
H190 C204 0.929 . S
H191 C171 0.931 . S
H192 C177 0.931 . S
H193 C178 0.931 . S
H194 C199 0.931 . S
H195 C174 0.929 . S
H196 C207 0.930 . S
N197 Eu168 2.600 . S
N197 C198 1.365 . S
N197 C201 1.319 . S
C198 N197 1.365 . S
C198 C200 1.405 . S
C198 C206 1.448 . S
C199 H194 0.931 . S
C199 C201 1.397 . S
C199 C202 1.367 . S
C200 C198 1.405 . S
C200 C202 1.403 . S
C200 C233 1.439 . S
C201 H186 0.930 . S
C201 N197 1.319 . S
C201 C199 1.397 . S
C202 C199 1.367 . S
C202 C200 1.403 . S
C202 H209 0.929 . S
N203 Eu168 2.562 . S
N203 C204 1.325 . S
N203 C206 1.351 . S
C204 H190 0.929 . S
C204 N203 1.325 . S
C204 C208 1.416 . S
C205 C206 1.430 . S
C205 C207 1.404 . S
C205 C234 1.387 . S
C206 C198 1.448 . S
C206 N203 1.351 . S
C206 C205 1.430 . S
C207 H196 0.930 . S
C207 C205 1.404 . S
C207 C208 1.366 . S
C208 H187 0.930 . S
C208 C204 1.416 . S
C208 C207 1.366 . S
H209 C202 0.929 . S
H210 C233 0.931 . S
H211 C234 0.931 . S
O212 Eu168 2.462 . S
O212 C232 1.252 . S
O213 Eu168 2.373 . S
O213 C224 1.249 . S
O214 Eu179 2.335 . S
O214 C224 1.264 . S
O215 Eu168 2.432 . S
O215 C232 1.268 . S
O216 Eu168 2.291 . S
O216 C231 1.255 . S
O217 Eu179 2.372 . S
O217 C231 1.257 . S
O218 Eu179 2.462 . S
O218 C243 1.252 . S
O219 Eu179 2.373 . S
O219 C235 1.249 . S
O220 Eu168 2.335 . S
O220 C235 1.264 . S
O221 Eu179 2.432 . S
O221 C243 1.268 . S
O222 Eu179 2.291 . S
O222 C242 1.255 . S
O223 Eu168 2.372 . S
O223 C242 1.257 . S
C224 O213 1.249 . S
C224 O214 1.264 . S
C225 C228 1.382 . S
C225 C230 1.390 . S
C225 C232 1.506 . S
C226 C227 1.398 . S
C226 C230 1.392 1_545 S
C227 C226 1.398 . S
C227 C229 1.372 . S
C227 H244 0.931 . S
C228 C225 1.382 . S
C228 C229 1.390 1_565 S
C228 H245 0.931 . S
C229 C227 1.372 . S
C229 C228 1.390 1_545 S
C229 H246 0.929 . S
C230 C225 1.390 . S
C230 C226 1.392 1_565 S
C230 H247 0.930 . S
C231 O216 1.255 . S
C231 O217 1.257 . S
C232 Eu168 2.787 . S
C232 O212 1.252 . S
C232 O215 1.268 . S
C232 C225 1.506 . S
C233 C200 1.439 . S
C233 H210 0.931 . S
C233 C234 1.374 . S
C234 C205 1.387 . S
C234 H211 0.931 . S
C234 C233 1.374 . S
C235 O219 1.249 . S
C235 O220 1.264 . S
C236 C239 1.382 . S
C236 C240 1.390 . S
C236 C243 1.506 . S
C237 C238 1.398 . S
C237 C240 1.392 . S
C238 C237 1.398 . S
C238 C241 1.372 . S
C238 H248 0.931 . S
C239 C236 1.382 . S
C239 C241 1.390 . S
C239 H249 0.931 . S
C240 C236 1.390 . S
C240 C237 1.392 . S
C240 H250 0.930 . S
C241 C238 1.372 . S
C241 C239 1.390 . S
C241 H251 0.929 . S
C242 O222 1.255 . S
C242 O223 1.257 . S
C243 Eu179 2.787 . S
C243 O218 1.252 . S
C243 O221 1.268 . S
C243 C236 1.506 . S
H244 C227 0.931 . S
H245 C228 0.931 . S
H246 C229 0.929 . S
H247 C230 0.930 . S
H248 C238 0.931 . S
H249 C239 0.931 . S
H250 C240 0.930 . S
H251 C241 0.929 . S
Eu252 N281 2.600 . S
Eu252 N287 2.562 . S
Eu252 O296 2.462 . S
Eu252 O297 2.373 . S
Eu252 O299 2.432 . S
Eu252 O300 2.291 . S
Eu252 O304 2.335 . S
Eu252 O307 2.372 . S
Eu252 C316 2.787 . S
C253 N254 1.365 . S
C253 C256 1.405 . S
C253 C260 1.448 . S
N254 C253 1.365 . S
N254 C257 1.319 . S
N254 Eu263 2.600 . S
C255 C257 1.397 . S
C255 C258 1.367 . S
C255 H275 0.931 . S
C256 C253 1.405 . S
C256 C258 1.403 . S
C256 C262 1.439 . S
C257 N254 1.319 . S
C257 C255 1.397 . S
C257 H268 0.930 . S
C258 C255 1.367 . S
C258 C256 1.403 . S
C258 H279 0.929 . S
C259 C260 1.430 . S
C259 C261 1.387 . S
C259 C265 1.404 . S
C260 C253 1.448 . S
C260 C259 1.430 . S
C260 N264 1.351 . S
C261 C259 1.387 . S
C261 C262 1.374 . S
C261 H276 0.931 . S
C262 C256 1.439 . S
C262 C261 1.374 . S
C262 H277 0.931 . S
Eu263 N254 2.600 . S
Eu263 N264 2.562 . S
Eu263 O298 2.335 . S
Eu263 O301 2.372 . S
Eu263 O302 2.462 . S
Eu263 O303 2.373 . S
Eu263 O305 2.432 . S
Eu263 O306 2.291 . S
Eu263 C327 2.787 . S
N264 C260 1.351 . S
N264 Eu263 2.562 . S
N264 C266 1.325 . S
C265 C259 1.404 . S
C265 C267 1.366 . S
C265 H273 0.930 . S
C266 N264 1.325 . S
C266 C267 1.416 . S
C266 H272 0.929 . S
C267 C265 1.366 . S
C267 C266 1.416 . S
C267 H269 0.930 . S
H268 C257 0.930 . S
H269 C267 0.930 . S
H270 C285 0.930 . S
H271 C292 0.930 . S
H272 C266 0.929 . S
H273 C265 0.930 . S
H274 C288 0.929 . S
H275 C255 0.931 . S
H276 C261 0.931 . S
H277 C262 0.931 . S
H278 C283 0.931 . S
H279 C258 0.929 . S
H280 C291 0.930 . S
N281 Eu252 2.600 . S
N281 C282 1.365 . S
N281 C285 1.319 . S
C282 N281 1.365 . S
C282 C284 1.405 . S
C282 C290 1.448 . S
C283 H278 0.931 . S
C283 C285 1.397 . S
C283 C286 1.367 . S
C284 C282 1.405 . S
C284 C286 1.403 . S
C284 C317 1.439 . S
C285 H270 0.930 . S
C285 N281 1.319 . S
C285 C283 1.397 . S
C286 C283 1.367 . S
C286 C284 1.403 . S
C286 H293 0.929 . S
N287 Eu252 2.562 . S
N287 C288 1.325 . S
N287 C290 1.351 . S
C288 H274 0.929 . S
C288 N287 1.325 . S
C288 C292 1.416 . S
C289 C290 1.430 . S
C289 C291 1.404 . S
C289 C318 1.387 . S
C290 C282 1.448 . S
C290 N287 1.351 . S
C290 C289 1.430 . S
C291 H280 0.930 . S
C291 C289 1.404 . S
C291 C292 1.366 . S
C292 H271 0.930 . S
C292 C288 1.416 . S
C292 C291 1.366 . S
H293 C286 0.929 . S
H294 C317 0.931 . S
H295 C318 0.931 . S
O296 Eu252 2.462 . S
O296 C316 1.252 . S
O297 Eu252 2.373 . S
O297 C308 1.249 . S
O298 Eu263 2.335 . S
O298 C308 1.264 . S
O299 Eu252 2.432 . S
O299 C316 1.268 . S
O300 Eu252 2.291 . S
O300 C315 1.255 . S
O301 Eu263 2.372 . S
O301 C315 1.257 . S
O302 Eu263 2.462 . S
O302 C327 1.252 . S
O303 Eu263 2.373 . S
O303 C319 1.249 . S
O304 Eu252 2.335 . S
O304 C319 1.264 . S
O305 Eu263 2.432 . S
O305 C327 1.268 . S
O306 Eu263 2.291 . S
O306 C326 1.255 . S
O307 Eu252 2.372 . S
O307 C326 1.257 . S
C308 O297 1.249 . S
C308 O298 1.264 . S
C309 C312 1.382 . S
C309 C314 1.390 . S
C309 C316 1.506 . S
C310 C311 1.398 . S
C310 C314 1.392 . S
C311 C310 1.398 . S
C311 C313 1.372 . S
C311 H328 0.931 . S
C312 C309 1.382 . S
C312 C313 1.390 . S
C312 H329 0.931 . S
C313 C311 1.372 . S
C313 C312 1.390 . S
C313 H330 0.929 . S
C314 C309 1.390 . S
C314 C310 1.392 . S
C314 H331 0.930 . S
C315 O300 1.255 . S
C315 O301 1.257 . S
C316 Eu252 2.787 . S
C316 O296 1.252 . S
C316 O299 1.268 . S
C316 C309 1.506 . S
C317 C284 1.439 . S
C317 H294 0.931 . S
C317 C318 1.374 . S
C318 C289 1.387 . S
C318 H295 0.931 . S
C318 C317 1.374 . S
C319 O303 1.249 . S
C319 O304 1.264 . S
C320 C323 1.382 . S
C320 C324 1.390 . S
C320 C327 1.506 . S
C321 C322 1.398 . S
C321 C324 1.392 . S
C322 C321 1.398 . S
C322 C325 1.372 . S
C322 H332 0.931 . S
C323 C320 1.382 . S
C323 C325 1.390 . S
C323 H333 0.931 . S
C324 C320 1.390 . S
C324 C321 1.392 . S
C324 H334 0.930 . S
C325 C322 1.372 . S
C325 C323 1.390 . S
C325 H335 0.929 . S
C326 O306 1.255 . S
C326 O307 1.257 . S
C327 Eu263 2.787 . S
C327 O302 1.252 . S
C327 O305 1.268 . S
C327 C320 1.506 . S
H328 C311 0.931 . S
H329 C312 0.931 . S
H330 C313 0.929 . S
H331 C314 0.930 . S
H332 C322 0.931 . S
H333 C323 0.931 . S
H334 C324 0.930 . S
H335 C325 0.929 . S
Eu336 N365 2.600 . S
Eu336 N371 2.562 . S
Eu336 O380 2.462 . S
Eu336 O381 2.373 . S
Eu336 O383 2.432 . S
Eu336 O384 2.291 . S
Eu336 O388 2.335 . S
Eu336 O391 2.372 . S
Eu336 C400 2.787 . S
C337 N338 1.365 . S
C337 C340 1.405 . S
C337 C344 1.448 . S
N338 C337 1.365 . S
N338 C341 1.319 . S
N338 Eu347 2.600 . S
C339 C341 1.397 . S
C339 C342 1.367 . S
C339 H359 0.931 . S
C340 C337 1.405 . S
C340 C342 1.403 . S
C340 C346 1.439 . S
C341 N338 1.319 . S
C341 C339 1.397 . S
C341 H352 0.930 . S
C342 C339 1.367 . S
C342 C340 1.403 . S
C342 H363 0.929 . S
C343 C344 1.430 . S
C343 C345 1.387 . S
C343 C349 1.404 . S
C344 C337 1.448 . S
C344 C343 1.430 . S
C344 N348 1.351 . S
C345 C343 1.387 . S
C345 C346 1.374 . S
C345 H360 0.931 . S
C346 C340 1.439 . S
C346 C345 1.374 . S
C346 H361 0.931 . S
Eu347 N338 2.600 . S
Eu347 N348 2.562 . S
Eu347 O382 2.335 . S
Eu347 O385 2.372 . S
Eu347 O386 2.462 . S
Eu347 O387 2.373 . S
Eu347 O389 2.432 . S
Eu347 O390 2.291 . S
Eu347 C411 2.787 . S
N348 C344 1.351 . S
N348 Eu347 2.562 . S
N348 C350 1.325 . S
C349 C343 1.404 . S
C349 C351 1.366 . S
C349 H357 0.930 . S
C350 N348 1.325 . S
C350 C351 1.416 . S
C350 H356 0.929 . S
C351 C349 1.366 . S
C351 C350 1.416 . S
C351 H353 0.930 . S
H352 C341 0.930 . S
H353 C351 0.930 . S
H354 C369 0.930 . S
H355 C376 0.930 . S
H356 C350 0.929 . S
H357 C349 0.930 . S
H358 C372 0.929 . S
H359 C339 0.931 . S
H360 C345 0.931 . S
H361 C346 0.931 . S
H362 C367 0.931 . S
H363 C342 0.929 . S
H364 C375 0.930 . S
N365 Eu336 2.600 . S
N365 C366 1.365 . S
N365 C369 1.319 . S
C366 N365 1.365 . S
C366 C368 1.405 . S
C366 C374 1.448 . S
C367 H362 0.931 . S
C367 C369 1.397 . S
C367 C370 1.367 . S
C368 C366 1.405 . S
C368 C370 1.403 . S
C368 C401 1.439 . S
C369 H354 0.930 . S
C369 N365 1.319 . S
C369 C367 1.397 . S
C370 C367 1.367 . S
C370 C368 1.403 . S
C370 H377 0.929 . S
N371 Eu336 2.562 . S
N371 C372 1.325 . S
N371 C374 1.351 . S
C372 H358 0.929 . S
C372 N371 1.325 . S
C372 C376 1.416 . S
C373 C374 1.430 . S
C373 C375 1.404 . S
C373 C402 1.387 . S
C374 C366 1.448 . S
C374 N371 1.351 . S
C374 C373 1.430 . S
C375 H364 0.930 . S
C375 C373 1.404 . S
C375 C376 1.366 . S
C376 H355 0.930 . S
C376 C372 1.416 . S
C376 C375 1.366 . S
H377 C370 0.929 . S
H378 C401 0.931 . S
H379 C402 0.931 . S
O380 Eu336 2.462 . S
O380 C400 1.252 . S
O381 Eu336 2.373 . S
O381 C392 1.249 . S
O382 Eu347 2.335 . S
O382 C392 1.264 . S
O383 Eu336 2.432 . S
O383 C400 1.268 . S
O384 Eu336 2.291 . S
O384 C399 1.255 . S
O385 Eu347 2.372 . S
O385 C399 1.257 . S
O386 Eu347 2.462 . S
O386 C411 1.252 . S
O387 Eu347 2.373 . S
O387 C403 1.249 . S
O388 Eu336 2.335 . S
O388 C403 1.264 . S
O389 Eu347 2.432 . S
O389 C411 1.268 . S
O390 Eu347 2.291 . S
O390 C410 1.255 . S
O391 Eu336 2.372 . S
O391 C410 1.257 . S
C392 O381 1.249 . S
C392 O382 1.264 . S
C393 C396 1.382 . S
C393 C398 1.390 . S
C393 C400 1.506 . S
C394 C395 1.398 . S
C394 C398 1.392 1_655 S
C395 C394 1.398 . S
C395 C397 1.372 . S
C395 H412 0.931 . S
C396 C393 1.382 . S
C396 C397 1.390 1_455 S
C396 H413 0.931 . S
C397 C395 1.372 . S
C397 C396 1.390 1_655 S
C397 H414 0.929 . S
C398 C393 1.390 . S
C398 C394 1.392 1_455 S
C398 H415 0.930 . S
C399 O384 1.255 . S
C399 O385 1.257 . S
C400 Eu336 2.787 . S
C400 O380 1.252 . S
C400 O383 1.268 . S
C400 C393 1.506 . S
C401 C368 1.439 . S
C401 H378 0.931 . S
C401 C402 1.374 . S
C402 C373 1.387 . S
C402 H379 0.931 . S
C402 C401 1.374 . S
C403 O387 1.249 . S
C403 O388 1.264 . S
C404 C407 1.382 . S
C404 C408 1.390 . S
C404 C411 1.506 . S
C405 C406 1.398 . S
C405 C408 1.392 . S
C406 C405 1.398 . S
C406 C409 1.372 . S
C406 H416 0.931 . S
C407 C404 1.382 . S
C407 C409 1.390 . S
C407 H417 0.931 . S
C408 C404 1.390 . S
C408 C405 1.392 . S
C408 H418 0.930 . S
C409 C406 1.372 . S
C409 C407 1.390 . S
C409 H419 0.929 . S
C410 O390 1.255 . S
C410 O391 1.257 . S
C411 Eu347 2.787 . S
C411 O386 1.252 . S
C411 O389 1.268 . S
C411 C404 1.506 . S
H412 C395 0.931 . S
H413 C396 0.931 . S
H414 C397 0.929 . S
H415 C398 0.930 . S
H416 C406 0.931 . S
H417 C407 0.931 . S
H418 C408 0.930 . S
H419 C409 0.929 . S
Eu420 N449 2.600 . S
Eu420 N455 2.562 . S
Eu420 O464 2.462 . S
Eu420 O465 2.373 . S
Eu420 O467 2.432 . S
Eu420 O468 2.291 . S
Eu420 O472 2.335 . S
Eu420 O475 2.372 . S
Eu420 C484 2.787 . S
C421 N422 1.365 . S
C421 C424 1.405 . S
C421 C428 1.448 . S
N422 C421 1.365 . S
N422 C425 1.319 . S
N422 Eu431 2.600 . S
C423 C425 1.397 . S
C423 C426 1.367 . S
C423 H443 0.931 . S
C424 C421 1.405 . S
C424 C426 1.403 . S
C424 C430 1.439 . S
C425 N422 1.319 . S
C425 C423 1.397 . S
C425 H436 0.930 . S
C426 C423 1.367 . S
C426 C424 1.403 . S
C426 H447 0.929 . S
C427 C428 1.430 . S
C427 C429 1.387 . S
C427 C433 1.404 . S
C428 C421 1.448 . S
C428 C427 1.430 . S
C428 N432 1.351 . S
C429 C427 1.387 . S
C429 C430 1.374 . S
C429 H444 0.931 . S
C430 C424 1.439 . S
C430 C429 1.374 . S
C430 H445 0.931 . S
Eu431 N422 2.600 . S
Eu431 N432 2.562 . S
Eu431 O466 2.335 . S
Eu431 O469 2.372 . S
Eu431 O470 2.462 . S
Eu431 O471 2.373 . S
Eu431 O473 2.432 . S
Eu431 O474 2.291 . S
Eu431 C495 2.787 . S
N432 C428 1.351 . S
N432 Eu431 2.562 . S
N432 C434 1.325 . S
C433 C427 1.404 . S
C433 C435 1.366 . S
C433 H441 0.930 . S
C434 N432 1.325 . S
C434 C435 1.416 . S
C434 H440 0.929 . S
C435 C433 1.366 . S
C435 C434 1.416 . S
C435 H437 0.930 . S
H436 C425 0.930 . S
H437 C435 0.930 . S
H438 C453 0.930 . S
H439 C460 0.930 . S
H440 C434 0.929 . S
H441 C433 0.930 . S
H442 C456 0.929 . S
H443 C423 0.931 . S
H444 C429 0.931 . S
H445 C430 0.931 . S
H446 C451 0.931 . S
H447 C426 0.929 . S
H448 C459 0.930 . S
N449 Eu420 2.600 . S
N449 C450 1.365 . S
N449 C453 1.319 . S
C450 N449 1.365 . S
C450 C452 1.405 . S
C450 C458 1.448 . S
C451 H446 0.931 . S
C451 C453 1.397 . S
C451 C454 1.367 . S
C452 C450 1.405 . S
C452 C454 1.403 . S
C452 C485 1.439 . S
C453 H438 0.930 . S
C453 N449 1.319 . S
C453 C451 1.397 . S
C454 C451 1.367 . S
C454 C452 1.403 . S
C454 H461 0.929 . S
N455 Eu420 2.562 . S
N455 C456 1.325 . S
N455 C458 1.351 . S
C456 H442 0.929 . S
C456 N455 1.325 . S
C456 C460 1.416 . S
C457 C458 1.430 . S
C457 C459 1.404 . S
C457 C486 1.387 . S
C458 C450 1.448 . S
C458 N455 1.351 . S
C458 C457 1.430 . S
C459 H448 0.930 . S
C459 C457 1.404 . S
C459 C460 1.366 . S
C460 H439 0.930 . S
C460 C456 1.416 . S
C460 C459 1.366 . S
H461 C454 0.929 . S
H462 C485 0.931 . S
H463 C486 0.931 . S
O464 Eu420 2.462 . S
O464 C484 1.252 . S
O465 Eu420 2.373 . S
O465 C476 1.249 . S
O466 Eu431 2.335 . S
O466 C476 1.264 . S
O467 Eu420 2.432 . S
O467 C484 1.268 . S
O468 Eu420 2.291 . S
O468 C483 1.255 . S
O469 Eu431 2.372 . S
O469 C483 1.257 . S
O470 Eu431 2.462 . S
O470 C495 1.252 . S
O471 Eu431 2.373 . S
O471 C487 1.249 . S
O472 Eu420 2.335 . S
O472 C487 1.264 . S
O473 Eu431 2.432 . S
O473 C495 1.268 . S
O474 Eu431 2.291 . S
O474 C494 1.255 . S
O475 Eu420 2.372 . S
O475 C494 1.257 . S
C476 O465 1.249 . S
C476 O466 1.264 . S
C477 C480 1.382 . S
C477 C482 1.390 . S
C477 C484 1.506 . S
C478 C479 1.398 . S
C478 C482 1.392 1_565 S
C479 C478 1.398 . S
C479 C481 1.372 . S
C479 H496 0.931 . S
C480 C477 1.382 . S
C480 C481 1.390 1_545 S
C480 H497 0.931 . S
C481 C479 1.372 . S
C481 C480 1.390 1_565 S
C481 H498 0.929 . S
C482 C477 1.390 . S
C482 C478 1.392 1_545 S
C482 H499 0.930 . S
C483 O468 1.255 . S
C483 O469 1.257 . S
C484 Eu420 2.787 . S
C484 O464 1.252 . S
C484 O467 1.268 . S
C484 C477 1.506 . S
C485 C452 1.439 . S
C485 H462 0.931 . S
C485 C486 1.374 . S
C486 C457 1.387 . S
C486 H463 0.931 . S
C486 C485 1.374 . S
C487 O471 1.249 . S
C487 O472 1.264 . S
C488 C491 1.382 . S
C488 C492 1.390 . S
C488 C495 1.506 . S
C489 C490 1.398 . S
C489 C492 1.392 . S
C490 C489 1.398 . S
C490 C493 1.372 . S
C490 H500 0.931 . S
C491 C488 1.382 . S
C491 C493 1.390 . S
C491 H501 0.931 . S
C492 C488 1.390 . S
C492 C489 1.392 . S
C492 H502 0.930 . S
C493 C490 1.372 . S
C493 C491 1.390 . S
C493 H503 0.929 . S
C494 O474 1.255 . S
C494 O475 1.257 . S
C495 Eu431 2.787 . S
C495 O470 1.252 . S
C495 O473 1.268 . S
C495 C488 1.506 . S
H496 C479 0.931 . S
H497 C480 0.931 . S
H498 C481 0.929 . S
H499 C482 0.930 . S
H500 C490 0.931 . S
H501 C491 0.931 . S
H502 C492 0.930 . S
H503 C493 0.929 . S
Eu504 N533 2.600 . S
Eu504 N539 2.562 . S
Eu504 O548 2.462 . S
Eu504 O549 2.373 . S
Eu504 O551 2.432 . S
Eu504 O552 2.291 . S
Eu504 O556 2.335 . S
Eu504 O559 2.372 . S
Eu504 C568 2.787 . S
C505 N506 1.365 . S
C505 C508 1.405 . S
C505 C512 1.448 . S
N506 C505 1.365 . S
N506 C509 1.319 . S
N506 Eu515 2.600 . S
C507 C509 1.397 . S
C507 C510 1.367 . S
C507 H527 0.931 . S
C508 C505 1.405 . S
C508 C510 1.403 . S
C508 C514 1.439 . S
C509 N506 1.319 . S
C509 C507 1.397 . S
C509 H520 0.930 . S
C510 C507 1.367 . S
C510 C508 1.403 . S
C510 H531 0.929 . S
C511 C512 1.430 . S
C511 C513 1.387 . S
C511 C517 1.404 . S
C512 C505 1.448 . S
C512 C511 1.430 . S
C512 N516 1.351 . S
C513 C511 1.387 . S
C513 C514 1.374 . S
C513 H528 0.931 . S
C514 C508 1.439 . S
C514 C513 1.374 . S
C514 H529 0.931 . S
Eu515 N506 2.600 . S
Eu515 N516 2.562 . S
Eu515 O550 2.335 . S
Eu515 O553 2.372 . S
Eu515 O554 2.462 . S
Eu515 O555 2.373 . S
Eu515 O557 2.432 . S
Eu515 O558 2.291 . S
Eu515 C579 2.787 . S
N516 C512 1.351 . S
N516 Eu515 2.562 . S
N516 C518 1.325 . S
C517 C511 1.404 . S
C517 C519 1.366 . S
C517 H525 0.930 . S
C518 N516 1.325 . S
C518 C519 1.416 . S
C518 H524 0.929 . S
C519 C517 1.366 . S
C519 C518 1.416 . S
C519 H521 0.930 . S
H520 C509 0.930 . S
H521 C519 0.930 . S
H522 C537 0.930 . S
H523 C544 0.930 . S
H524 C518 0.929 . S
H525 C517 0.930 . S
H526 C540 0.929 . S
H527 C507 0.931 . S
H528 C513 0.931 . S
H529 C514 0.931 . S
H530 C535 0.931 . S
H531 C510 0.929 . S
H532 C543 0.930 . S
N533 Eu504 2.600 . S
N533 C534 1.365 . S
N533 C537 1.319 . S
C534 N533 1.365 . S
C534 C536 1.405 . S
C534 C542 1.448 . S
C535 H530 0.931 . S
C535 C537 1.397 . S
C535 C538 1.367 . S
C536 C534 1.405 . S
C536 C538 1.403 . S
C536 C569 1.439 . S
C537 H522 0.930 . S
C537 N533 1.319 . S
C537 C535 1.397 . S
C538 C535 1.367 . S
C538 C536 1.403 . S
C538 H545 0.929 . S
N539 Eu504 2.562 . S
N539 C540 1.325 . S
N539 C542 1.351 . S
C540 H526 0.929 . S
C540 N539 1.325 . S
C540 C544 1.416 . S
C541 C542 1.430 . S
C541 C543 1.404 . S
C541 C570 1.387 . S
C542 C534 1.448 . S
C542 N539 1.351 . S
C542 C541 1.430 . S
C543 H532 0.930 . S
C543 C541 1.404 . S
C543 C544 1.366 . S
C544 H523 0.930 . S
C544 C540 1.416 . S
C544 C543 1.366 . S
H545 C538 0.929 . S
H546 C569 0.931 . S
H547 C570 0.931 . S
O548 Eu504 2.462 . S
O548 C568 1.252 . S
O549 Eu504 2.373 . S
O549 C560 1.249 . S
O550 Eu515 2.335 . S
O550 C560 1.264 . S
O551 Eu504 2.432 . S
O551 C568 1.268 . S
O552 Eu504 2.291 . S
O552 C567 1.255 . S
O553 Eu515 2.372 . S
O553 C567 1.257 . S
O554 Eu515 2.462 . S
O554 C579 1.252 . S
O555 Eu515 2.373 . S
O555 C571 1.249 . S
O556 Eu504 2.335 . S
O556 C571 1.264 . S
O557 Eu515 2.432 . S
O557 C579 1.268 . S
O558 Eu515 2.291 . S
O558 C578 1.255 . S
O559 Eu504 2.372 . S
O559 C578 1.257 . S
C560 O549 1.249 . S
C560 O550 1.264 . S
C561 C564 1.382 . S
C561 C566 1.390 . S
C561 C568 1.506 . S
C562 C563 1.398 . S
C562 C566 1.392 . S
C563 C562 1.398 . S
C563 C565 1.372 . S
C563 H580 0.931 . S
C564 C561 1.382 . S
C564 C565 1.390 . S
C564 H581 0.931 . S
C565 C563 1.372 . S
C565 C564 1.390 . S
C565 H582 0.929 . S
C566 C561 1.390 . S
C566 C562 1.392 . S
C566 H583 0.930 . S
C567 O552 1.255 . S
C567 O553 1.257 . S
C568 Eu504 2.787 . S
C568 O548 1.252 . S
C568 O551 1.268 . S
C568 C561 1.506 . S
C569 C536 1.439 . S
C569 H546 0.931 . S
C569 C570 1.374 . S
C570 C541 1.387 . S
C570 H547 0.931 . S
C570 C569 1.374 . S
C571 O555 1.249 . S
C571 O556 1.264 . S
C572 C575 1.382 . S
C572 C576 1.390 . S
C572 C579 1.506 . S
C573 C574 1.398 . S
C573 C576 1.392 . S
C574 C573 1.398 . S
C574 C577 1.372 . S
C574 H584 0.931 . S
C575 C572 1.382 . S
C575 C577 1.390 . S
C575 H585 0.931 . S
C576 C572 1.390 . S
C576 C573 1.392 . S
C576 H586 0.930 . S
C577 C574 1.372 . S
C577 C575 1.390 . S
C577 H587 0.929 . S
C578 O558 1.255 . S
C578 O559 1.257 . S
C579 Eu515 2.787 . S
C579 O554 1.252 . S
C579 O557 1.268 . S
C579 C572 1.506 . S
H580 C563 0.931 . S
H581 C564 0.931 . S
H582 C565 0.929 . S
H583 C566 0.930 . S
H584 C574 0.931 . S
H585 C575 0.931 . S
H586 C576 0.930 . S
H587 C577 0.929 . S
Eu588 N617 2.600 . S
Eu588 N623 2.562 . S
Eu588 O632 2.462 . S
Eu588 O633 2.373 . S
Eu588 O635 2.432 . S
Eu588 O636 2.291 . S
Eu588 O640 2.335 . S
Eu588 O643 2.372 . S
Eu588 C652 2.787 . S
C589 N590 1.365 . S
C589 C592 1.405 . S
C589 C596 1.448 . S
N590 C589 1.365 . S
N590 C593 1.319 . S
N590 Eu599 2.600 . S
C591 C593 1.397 . S
C591 C594 1.367 . S
C591 H611 0.931 . S
C592 C589 1.405 . S
C592 C594 1.403 . S
C592 C598 1.439 . S
C593 N590 1.319 . S
C593 C591 1.397 . S
C593 H604 0.930 . S
C594 C591 1.367 . S
C594 C592 1.403 . S
C594 H615 0.929 . S
C595 C596 1.430 . S
C595 C597 1.387 . S
C595 C601 1.404 . S
C596 C589 1.448 . S
C596 C595 1.430 . S
C596 N600 1.351 . S
C597 C595 1.387 . S
C597 C598 1.374 . S
C597 H612 0.931 . S
C598 C592 1.439 . S
C598 C597 1.374 . S
C598 H613 0.931 . S
Eu599 N590 2.600 . S
Eu599 N600 2.562 . S
Eu599 O634 2.335 . S
Eu599 O637 2.372 . S
Eu599 O638 2.462 . S
Eu599 O639 2.373 . S
Eu599 O641 2.432 . S
Eu599 O642 2.291 . S
Eu599 C663 2.787 . S
N600 C596 1.351 . S
N600 Eu599 2.562 . S
N600 C602 1.325 . S
C601 C595 1.404 . S
C601 C603 1.366 . S
C601 H609 0.930 . S
C602 N600 1.325 . S
C602 C603 1.416 . S
C602 H608 0.929 . S
C603 C601 1.366 . S
C603 C602 1.416 . S
C603 H605 0.930 . S
H604 C593 0.930 . S
H605 C603 0.930 . S
H606 C621 0.930 . S
H607 C628 0.930 . S
H608 C602 0.929 . S
H609 C601 0.930 . S
H610 C624 0.929 . S
H611 C591 0.931 . S
H612 C597 0.931 . S
H613 C598 0.931 . S
H614 C619 0.931 . S
H615 C594 0.929 . S
H616 C627 0.930 . S
N617 Eu588 2.600 . S
N617 C618 1.365 . S
N617 C621 1.319 . S
C618 N617 1.365 . S
C618 C620 1.405 . S
C618 C626 1.448 . S
C619 H614 0.931 . S
C619 C621 1.397 . S
C619 C622 1.367 . S
C620 C618 1.405 . S
C620 C622 1.403 . S
C620 C653 1.439 . S
C621 H606 0.930 . S
C621 N617 1.319 . S
C621 C619 1.397 . S
C622 C619 1.367 . S
C622 C620 1.403 . S
C622 H629 0.929 . S
N623 Eu588 2.562 . S
N623 C624 1.325 . S
N623 C626 1.351 . S
C624 H610 0.929 . S
C624 N623 1.325 . S
C624 C628 1.416 . S
C625 C626 1.430 . S
C625 C627 1.404 . S
C625 C654 1.387 . S
C626 C618 1.448 . S
C626 N623 1.351 . S
C626 C625 1.430 . S
C627 H616 0.930 . S
C627 C625 1.404 . S
C627 C628 1.366 . S
C628 H607 0.930 . S
C628 C624 1.416 . S
C628 C627 1.366 . S
H629 C622 0.929 . S
H630 C653 0.931 . S
H631 C654 0.931 . S
O632 Eu588 2.462 . S
O632 C652 1.252 . S
O633 Eu588 2.373 . S
O633 C644 1.249 . S
O634 Eu599 2.335 . S
O634 C644 1.264 . S
O635 Eu588 2.432 . S
O635 C652 1.268 . S
O636 Eu588 2.291 . S
O636 C651 1.255 . S
O637 Eu599 2.372 . S
O637 C651 1.257 . S
O638 Eu599 2.462 . S
O638 C663 1.252 . S
O639 Eu599 2.373 . S
O639 C655 1.249 . S
O640 Eu588 2.335 . S
O640 C655 1.264 . S
O641 Eu599 2.432 . S
O641 C663 1.268 . S
O642 Eu599 2.291 . S
O642 C662 1.255 . S
O643 Eu588 2.372 . S
O643 C662 1.257 . S
C644 O633 1.249 . S
C644 O634 1.264 . S
C645 C648 1.382 . S
C645 C650 1.390 . S
C645 C652 1.506 . S
C646 C647 1.398 . S
C646 C650 1.392 1_455 S
C647 C646 1.398 . S
C647 C649 1.372 . S
C647 H664 0.931 . S
C648 C645 1.382 . S
C648 C649 1.390 1_655 S
C648 H665 0.931 . S
C649 C647 1.372 . S
C649 C648 1.390 1_455 S
C649 H666 0.929 . S
C650 C645 1.390 . S
C650 C646 1.392 1_655 S
C650 H667 0.930 . S
C651 O636 1.255 . S
C651 O637 1.257 . S
C652 Eu588 2.787 . S
C652 O632 1.252 . S
C652 O635 1.268 . S
C652 C645 1.506 . S
C653 C620 1.439 . S
C653 H630 0.931 . S
C653 C654 1.374 . S
C654 C625 1.387 . S
C654 H631 0.931 . S
C654 C653 1.374 . S
C655 O639 1.249 . S
C655 O640 1.264 . S
C656 C659 1.382 . S
C656 C660 1.390 . S
C656 C663 1.506 . S
C657 C658 1.398 . S
C657 C660 1.392 . S
C658 C657 1.398 . S
C658 C661 1.372 . S
C658 H668 0.931 . S
C659 C656 1.382 . S
C659 C661 1.390 . S
C659 H669 0.931 . S
C660 C656 1.390 . S
C660 C657 1.392 . S
C660 H670 0.930 . S
C661 C658 1.372 . S
C661 C659 1.390 . S
C661 H671 0.929 . S
C662 O642 1.255 . S
C662 O643 1.257 . S
C663 Eu599 2.787 . S
C663 O638 1.252 . S
C663 O641 1.268 . S
C663 C656 1.506 . S
H664 C647 0.931 . S
H665 C648 0.931 . S
H666 C649 0.929 . S
H667 C650 0.930 . S
H668 C658 0.931 . S
H669 C659 0.931 . S
H670 C660 0.930 . S
H671 C661 0.929 . S
Eu672 N701 2.600 . S
Eu672 N707 2.562 . S
Eu672 O716 2.462 . S
Eu672 O717 2.373 . S
Eu672 O719 2.432 . S
Eu672 O720 2.291 . S
Eu672 O724 2.335 . S
Eu672 O727 2.372 . S
Eu672 C736 2.787 . S
C673 N674 1.365 . S
C673 C676 1.405 . S
C673 C680 1.448 . S
N674 C673 1.365 . S
N674 C677 1.319 . S
N674 Eu683 2.600 . S
C675 C677 1.397 . S
C675 C678 1.367 . S
C675 H695 0.931 . S
C676 C673 1.405 . S
C676 C678 1.403 . S
C676 C682 1.439 . S
C677 N674 1.319 . S
C677 C675 1.397 . S
C677 H688 0.930 . S
C678 C675 1.367 . S
C678 C676 1.403 . S
C678 H699 0.929 . S
C679 C680 1.430 . S
C679 C681 1.387 . S
C679 C685 1.404 . S
C680 C673 1.448 . S
C680 C679 1.430 . S
C680 N684 1.351 . S
C681 C679 1.387 . S
C681 C682 1.374 . S
C681 H696 0.931 . S
C682 C676 1.439 . S
C682 C681 1.374 . S
C682 H697 0.931 . S
Eu683 N674 2.600 . S
Eu683 N684 2.562 . S
Eu683 O718 2.335 . S
Eu683 O721 2.372 . S
Eu683 O722 2.462 . S
Eu683 O723 2.373 . S
Eu683 O725 2.432 . S
Eu683 O726 2.291 . S
Eu683 C747 2.787 . S
N684 C680 1.351 . S
N684 Eu683 2.562 . S
N684 C686 1.325 . S
C685 C679 1.404 . S
C685 C687 1.366 . S
C685 H693 0.930 . S
C686 N684 1.325 . S
C686 C687 1.416 . S
C686 H692 0.929 . S
C687 C685 1.366 . S
C687 C686 1.416 . S
C687 H689 0.930 . S
H688 C677 0.930 . S
H689 C687 0.930 . S
H690 C705 0.930 . S
H691 C712 0.930 . S
H692 C686 0.929 . S
H693 C685 0.930 . S
H694 C708 0.929 . S
H695 C675 0.931 . S
H696 C681 0.931 . S
H697 C682 0.931 . S
H698 C703 0.931 . S
H699 C678 0.929 . S
H700 C711 0.930 . S
N701 Eu672 2.600 . S
N701 C702 1.365 . S
N701 C705 1.319 . S
C702 N701 1.365 . S
C702 C704 1.405 . S
C702 C710 1.448 . S
C703 H698 0.931 . S
C703 C705 1.397 . S
C703 C706 1.367 . S
C704 C702 1.405 . S
C704 C706 1.403 . S
C704 C737 1.439 . S
C705 H690 0.930 . S
C705 N701 1.319 . S
C705 C703 1.397 . S
C706 C703 1.367 . S
C706 C704 1.403 . S
C706 H713 0.929 . S
N707 Eu672 2.562 . S
N707 C708 1.325 . S
N707 C710 1.351 . S
C708 H694 0.929 . S
C708 N707 1.325 . S
C708 C712 1.416 . S
C709 C710 1.430 . S
C709 C711 1.404 . S
C709 C738 1.387 . S
C710 C702 1.448 . S
C710 N707 1.351 . S
C710 C709 1.430 . S
C711 H700 0.930 . S
C711 C709 1.404 . S
C711 C712 1.366 . S
C712 H691 0.930 . S
C712 C708 1.416 . S
C712 C711 1.366 . S
H713 C706 0.929 . S
H714 C737 0.931 . S
H715 C738 0.931 . S
O716 Eu672 2.462 . S
O716 C736 1.252 . S
O717 Eu672 2.373 . S
O717 C728 1.249 . S
O718 Eu683 2.335 . S
O718 C728 1.264 . S
O719 Eu672 2.432 . S
O719 C736 1.268 . S
O720 Eu672 2.291 . S
O720 C735 1.255 . S
O721 Eu683 2.372 . S
O721 C735 1.257 . S
O722 Eu683 2.462 . S
O722 C747 1.252 . S
O723 Eu683 2.373 . S
O723 C739 1.249 . S
O724 Eu672 2.335 . S
O724 C739 1.264 . S
O725 Eu683 2.432 . S
O725 C747 1.268 . S
O726 Eu683 2.291 . S
O726 C746 1.255 . S
O727 Eu672 2.372 . S
O727 C746 1.257 . S
C728 O717 1.249 . S
C728 O718 1.264 . S
C729 C732 1.382 . S
C729 C734 1.390 . S
C729 C736 1.506 . S
C730 C731 1.398 . S
C730 C734 1.392 1_545 S
C731 C730 1.398 . S
C731 C733 1.372 . S
C731 H748 0.931 . S
C732 C729 1.382 . S
C732 C733 1.390 1_565 S
C732 H749 0.931 . S
C733 C731 1.372 . S
C733 C732 1.390 1_545 S
C733 H750 0.929 . S
C734 C729 1.390 . S
C734 C730 1.392 1_565 S
C734 H751 0.930 . S
C735 O720 1.255 . S
C735 O721 1.257 . S
C736 Eu672 2.787 . S
C736 O716 1.252 . S
C736 O719 1.268 . S
C736 C729 1.506 . S
C737 C704 1.439 . S
C737 H714 0.931 . S
C737 C738 1.374 . S
C738 C709 1.387 . S
C738 H715 0.931 . S
C738 C737 1.374 . S
C739 O723 1.249 . S
C739 O724 1.264 . S
C740 C743 1.382 . S
C740 C744 1.390 . S
C740 C747 1.506 . S
C741 C742 1.398 . S
C741 C744 1.392 . S
C742 C741 1.398 . S
C742 C745 1.372 . S
C742 H752 0.931 . S
C743 C740 1.382 . S
C743 C745 1.390 . S
C743 H753 0.931 . S
C744 C740 1.390 . S
C744 C741 1.392 . S
C744 H754 0.930 . S
C745 C742 1.372 . S
C745 C743 1.390 . S
C745 H755 0.929 . S
C746 O726 1.255 . S
C746 O727 1.257 . S
C747 Eu683 2.787 . S
C747 O722 1.252 . S
C747 O725 1.268 . S
C747 C740 1.506 . S
H748 C731 0.931 . S
H749 C732 0.931 . S
H750 C733 0.929 . S
H751 C734 0.930 . S
H752 C742 0.931 . S
H753 C743 0.931 . S
H754 C744 0.930 . S
H755 C745 0.929 . S
Eu756 N785 2.600 . S
Eu756 N791 2.562 . S
Eu756 O800 2.462 . S
Eu756 O801 2.373 . S
Eu756 O803 2.432 . S
Eu756 O804 2.291 . S
Eu756 O808 2.335 . S
Eu756 O811 2.372 . S
Eu756 C820 2.787 . S
C757 N758 1.365 . S
C757 C760 1.405 . S
C757 C764 1.448 . S
N758 C757 1.365 . S
N758 C761 1.319 . S
N758 Eu767 2.600 . S
C759 C761 1.397 . S
C759 C762 1.367 . S
C759 H779 0.931 . S
C760 C757 1.405 . S
C760 C762 1.403 . S
C760 C766 1.439 . S
C761 N758 1.319 . S
C761 C759 1.397 . S
C761 H772 0.930 . S
C762 C759 1.367 . S
C762 C760 1.403 . S
C762 H783 0.929 . S
C763 C764 1.430 . S
C763 C765 1.387 . S
C763 C769 1.404 . S
C764 C757 1.448 . S
C764 C763 1.430 . S
C764 N768 1.351 . S
C765 C763 1.387 . S
C765 C766 1.374 . S
C765 H780 0.931 . S
C766 C760 1.439 . S
C766 C765 1.374 . S
C766 H781 0.931 . S
Eu767 N758 2.600 . S
Eu767 N768 2.562 . S
Eu767 O802 2.335 . S
Eu767 O805 2.372 . S
Eu767 O806 2.462 . S
Eu767 O807 2.373 . S
Eu767 O809 2.432 . S
Eu767 O810 2.291 . S
Eu767 C831 2.787 . S
N768 C764 1.351 . S
N768 Eu767 2.562 . S
N768 C770 1.325 . S
C769 C763 1.404 . S
C769 C771 1.366 . S
C769 H777 0.930 . S
C770 N768 1.325 . S
C770 C771 1.416 . S
C770 H776 0.929 . S
C771 C769 1.366 . S
C771 C770 1.416 . S
C771 H773 0.930 . S
H772 C761 0.930 . S
H773 C771 0.930 . S
H774 C789 0.930 . S
H775 C796 0.930 . S
H776 C770 0.929 . S
H777 C769 0.930 . S
H778 C792 0.929 . S
H779 C759 0.931 . S
H780 C765 0.931 . S
H781 C766 0.931 . S
H782 C787 0.931 . S
H783 C762 0.929 . S
H784 C795 0.930 . S
N785 Eu756 2.600 . S
N785 C786 1.365 . S
N785 C789 1.319 . S
C786 N785 1.365 . S
C786 C788 1.405 . S
C786 C794 1.448 . S
C787 H782 0.931 . S
C787 C789 1.397 . S
C787 C790 1.367 . S
C788 C786 1.405 . S
C788 C790 1.403 . S
C788 C821 1.439 . S
C789 H774 0.930 . S
C789 N785 1.319 . S
C789 C787 1.397 . S
C790 C787 1.367 . S
C790 C788 1.403 . S
C790 H797 0.929 . S
N791 Eu756 2.562 . S
N791 C792 1.325 . S
N791 C794 1.351 . S
C792 H778 0.929 . S
C792 N791 1.325 . S
C792 C796 1.416 . S
C793 C794 1.430 . S
C793 C795 1.404 . S
C793 C822 1.387 . S
C794 C786 1.448 . S
C794 N791 1.351 . S
C794 C793 1.430 . S
C795 H784 0.930 . S
C795 C793 1.404 . S
C795 C796 1.366 . S
C796 H775 0.930 . S
C796 C792 1.416 . S
C796 C795 1.366 . S
H797 C790 0.929 . S
H798 C821 0.931 . S
H799 C822 0.931 . S
O800 Eu756 2.462 . S
O800 C820 1.252 . S
O801 Eu756 2.373 . S
O801 C812 1.249 . S
O802 Eu767 2.335 . S
O802 C812 1.264 . S
O803 Eu756 2.432 . S
O803 C820 1.268 . S
O804 Eu756 2.291 . S
O804 C819 1.255 . S
O805 Eu767 2.372 . S
O805 C819 1.257 . S
O806 Eu767 2.462 . S
O806 C831 1.252 . S
O807 Eu767 2.373 . S
O807 C823 1.249 . S
O808 Eu756 2.335 . S
O808 C823 1.264 . S
O809 Eu767 2.432 . S
O809 C831 1.268 . S
O810 Eu767 2.291 . S
O810 C830 1.255 . S
O811 Eu756 2.372 . S
O811 C830 1.257 . S
C812 O801 1.249 . S
C812 O802 1.264 . S
C813 C816 1.382 . S
C813 C818 1.390 . S
C813 C820 1.506 . S
C814 C815 1.398 . S
C814 C818 1.392 . S
C815 C814 1.398 . S
C815 C817 1.372 . S
C815 H832 0.931 . S
C816 C813 1.382 . S
C816 C817 1.390 . S
C816 H833 0.931 . S
C817 C815 1.372 . S
C817 C816 1.390 . S
C817 H834 0.929 . S
C818 C813 1.390 . S
C818 C814 1.392 . S
C818 H835 0.930 . S
C819 O804 1.255 . S
C819 O805 1.257 . S
C820 Eu756 2.787 . S
C820 O800 1.252 . S
C820 O803 1.268 . S
C820 C813 1.506 . S
C821 C788 1.439 . S
C821 H798 0.931 . S
C821 C822 1.374 . S
C822 C793 1.387 . S
C822 H799 0.931 . S
C822 C821 1.374 . S
C823 O807 1.249 . S
C823 O808 1.264 . S
C824 C827 1.382 . S
C824 C828 1.390 . S
C824 C831 1.506 . S
C825 C826 1.398 . S
C825 C828 1.392 . S
C826 C825 1.398 . S
C826 C829 1.372 . S
C826 H836 0.931 . S
C827 C824 1.382 . S
C827 C829 1.390 . S
C827 H837 0.931 . S
C828 C824 1.390 . S
C828 C825 1.392 . S
C828 H838 0.930 . S
C829 C826 1.372 . S
C829 C827 1.390 . S
C829 H839 0.929 . S
C830 O810 1.255 . S
C830 O811 1.257 . S
C831 Eu767 2.787 . S
C831 O806 1.252 . S
C831 O809 1.268 . S
C831 C824 1.506 . S
H832 C815 0.931 . S
H833 C816 0.931 . S
H834 C817 0.929 . S
H835 C818 0.930 . S
H836 C826 0.931 . S
H837 C827 0.931 . S
H838 C828 0.930 . S
H839 C829 0.929 . S
Eu840 N869 2.600 . S
Eu840 N875 2.562 . S
Eu840 O884 2.462 . S
Eu840 O885 2.373 . S
Eu840 O887 2.432 . S
Eu840 O888 2.291 . S
Eu840 O892 2.335 . S
Eu840 O895 2.372 . S
Eu840 C904 2.787 . S
C841 N842 1.365 . S
C841 C844 1.405 . S
C841 C848 1.448 . S
N842 C841 1.365 . S
N842 C845 1.319 . S
N842 Eu851 2.600 . S
C843 C845 1.397 . S
C843 C846 1.367 . S
C843 H863 0.931 . S
C844 C841 1.405 . S
C844 C846 1.403 . S
C844 C850 1.439 . S
C845 N842 1.319 . S
C845 C843 1.397 . S
C845 H856 0.930 . S
C846 C843 1.367 . S
C846 C844 1.403 . S
C846 H867 0.929 . S
C847 C848 1.430 . S
C847 C849 1.387 . S
C847 C853 1.404 . S
C848 C841 1.448 . S
C848 C847 1.430 . S
C848 N852 1.351 . S
C849 C847 1.387 . S
C849 C850 1.374 . S
C849 H864 0.931 . S
C850 C844 1.439 . S
C850 C849 1.374 . S
C850 H865 0.931 . S
Eu851 N842 2.600 . S
Eu851 N852 2.562 . S
Eu851 O886 2.335 . S
Eu851 O889 2.372 . S
Eu851 O890 2.462 . S
Eu851 O891 2.373 . S
Eu851 O893 2.432 . S
Eu851 O894 2.291 . S
Eu851 C915 2.787 . S
N852 C848 1.351 . S
N852 Eu851 2.562 . S
N852 C854 1.325 . S
C853 C847 1.404 . S
C853 C855 1.366 . S
C853 H861 0.930 . S
C854 N852 1.325 . S
C854 C855 1.416 . S
C854 H860 0.929 . S
C855 C853 1.366 . S
C855 C854 1.416 . S
C855 H857 0.930 . S
H856 C845 0.930 . S
H857 C855 0.930 . S
H858 C873 0.930 . S
H859 C880 0.930 . S
H860 C854 0.929 . S
H861 C853 0.930 . S
H862 C876 0.929 . S
H863 C843 0.931 . S
H864 C849 0.931 . S
H865 C850 0.931 . S
H866 C871 0.931 . S
H867 C846 0.929 . S
H868 C879 0.930 . S
N869 Eu840 2.600 . S
N869 C870 1.365 . S
N869 C873 1.319 . S
C870 N869 1.365 . S
C870 C872 1.405 . S
C870 C878 1.448 . S
C871 H866 0.931 . S
C871 C873 1.397 . S
C871 C874 1.367 . S
C872 C870 1.405 . S
C872 C874 1.403 . S
C872 C905 1.439 . S
C873 H858 0.930 . S
C873 N869 1.319 . S
C873 C871 1.397 . S
C874 C871 1.367 . S
C874 C872 1.403 . S
C874 H881 0.929 . S
N875 Eu840 2.562 . S
N875 C876 1.325 . S
N875 C878 1.351 . S
C876 H862 0.929 . S
C876 N875 1.325 . S
C876 C880 1.416 . S
C877 C878 1.430 . S
C877 C879 1.404 . S
C877 C906 1.387 . S
C878 C870 1.448 . S
C878 N875 1.351 . S
C878 C877 1.430 . S
C879 H868 0.930 . S
C879 C877 1.404 . S
C879 C880 1.366 . S
C880 H859 0.930 . S
C880 C876 1.416 . S
C880 C879 1.366 . S
H881 C874 0.929 . S
H882 C905 0.931 . S
H883 C906 0.931 . S
O884 Eu840 2.462 . S
O884 C904 1.252 . S
O885 Eu840 2.373 . S
O885 C896 1.249 . S
O886 Eu851 2.335 . S
O886 C896 1.264 . S
O887 Eu840 2.432 . S
O887 C904 1.268 . S
O888 Eu840 2.291 . S
O888 C903 1.255 . S
O889 Eu851 2.372 . S
O889 C903 1.257 . S
O890 Eu851 2.462 . S
O890 C915 1.252 . S
O891 Eu851 2.373 . S
O891 C907 1.249 . S
O892 Eu840 2.335 . S
O892 C907 1.264 . S
O893 Eu851 2.432 . S
O893 C915 1.268 . S
O894 Eu851 2.291 . S
O894 C914 1.255 . S
O895 Eu840 2.372 . S
O895 C914 1.257 . S
C896 O885 1.249 . S
C896 O886 1.264 . S
C897 C900 1.382 . S
C897 C902 1.390 . S
C897 C904 1.506 . S
C898 C899 1.398 . S
C898 C902 1.392 1_655 S
C899 C898 1.398 . S
C899 C901 1.372 . S
C899 H916 0.931 . S
C900 C897 1.382 . S
C900 C901 1.390 1_455 S
C900 H917 0.931 . S
C901 C899 1.372 . S
C901 C900 1.390 1_655 S
C901 H918 0.929 . S
C902 C897 1.390 . S
C902 C898 1.392 1_455 S
C902 H919 0.930 . S
C903 O888 1.255 . S
C903 O889 1.257 . S
C904 Eu840 2.787 . S
C904 O884 1.252 . S
C904 O887 1.268 . S
C904 C897 1.506 . S
C905 C872 1.439 . S
C905 H882 0.931 . S
C905 C906 1.374 . S
C906 C877 1.387 . S
C906 H883 0.931 . S
C906 C905 1.374 . S
C907 O891 1.249 . S
C907 O892 1.264 . S
C908 C911 1.382 . S
C908 C912 1.390 . S
C908 C915 1.506 . S
C909 C910 1.398 . S
C909 C912 1.392 . S
C910 C909 1.398 . S
C910 C913 1.372 . S
C910 H920 0.931 . S
C911 C908 1.382 . S
C911 C913 1.390 . S
C911 H921 0.931 . S
C912 C908 1.390 . S
C912 C909 1.392 . S
C912 H922 0.930 . S
C913 C910 1.372 . S
C913 C911 1.390 . S
C913 H923 0.929 . S
C914 O894 1.255 . S
C914 O895 1.257 . S
C915 Eu851 2.787 . S
C915 O890 1.252 . S
C915 O893 1.268 . S
C915 C908 1.506 . S
H916 C899 0.931 . S
H917 C900 0.931 . S
H918 C901 0.929 . S
H919 C902 0.930 . S
H920 C910 0.931 . S
H921 C911 0.931 . S
H922 C912 0.930 . S
H923 C913 0.929 . S
Eu924 N953 2.600 . S
Eu924 N959 2.562 . S
Eu924 O968 2.462 . S
Eu924 O969 2.373 . S
Eu924 O971 2.432 . S
Eu924 O972 2.291 . S
Eu924 O976 2.335 . S
Eu924 O979 2.372 . S
Eu924 C988 2.787 . S
C925 N926 1.365 . S
C925 C928 1.405 . S
C925 C932 1.448 . S
N926 C925 1.365 . S
N926 C929 1.319 . S
N926 Eu935 2.600 . S
C927 C929 1.397 . S
C927 C930 1.367 . S
C927 H947 0.931 . S
C928 C925 1.405 . S
C928 C930 1.403 . S
C928 C934 1.439 . S
C929 N926 1.319 . S
C929 C927 1.397 . S
C929 H940 0.930 . S
C930 C927 1.367 . S
C930 C928 1.403 . S
C930 H951 0.929 . S
C931 C932 1.430 . S
C931 C933 1.387 . S
C931 C937 1.404 . S
C932 C925 1.448 . S
C932 C931 1.430 . S
C932 N936 1.351 . S
C933 C931 1.387 . S
C933 C934 1.374 . S
C933 H948 0.931 . S
C934 C928 1.439 . S
C934 C933 1.374 . S
C934 H949 0.931 . S
Eu935 N926 2.600 . S
Eu935 N936 2.562 . S
Eu935 O970 2.335 . S
Eu935 O973 2.372 . S
Eu935 O974 2.462 . S
Eu935 O975 2.373 . S
Eu935 O977 2.432 . S
Eu935 O978 2.291 . S
Eu935 C999 2.787 . S
N936 C932 1.351 . S
N936 Eu935 2.562 . S
N936 C938 1.325 . S
C937 C931 1.404 . S
C937 C939 1.366 . S
C937 H945 0.930 . S
C938 N936 1.325 . S
C938 C939 1.416 . S
C938 H944 0.929 . S
C939 C937 1.366 . S
C939 C938 1.416 . S
C939 H941 0.930 . S
H940 C929 0.930 . S
H941 C939 0.930 . S
H942 C957 0.930 . S
H943 C964 0.930 . S
H944 C938 0.929 . S
H945 C937 0.930 . S
H946 C960 0.929 . S
H947 C927 0.931 . S
H948 C933 0.931 . S
H949 C934 0.931 . S
H950 C955 0.931 . S
H951 C930 0.929 . S
H952 C963 0.930 . S
N953 Eu924 2.600 . S
N953 C954 1.365 . S
N953 C957 1.319 . S
C954 N953 1.365 . S
C954 C956 1.405 . S
C954 C962 1.448 . S
C955 H950 0.931 . S
C955 C957 1.397 . S
C955 C958 1.367 . S
C956 C954 1.405 . S
C956 C958 1.403 . S
C956 C989 1.439 . S
C957 H942 0.930 . S
C957 N953 1.319 . S
C957 C955 1.397 . S
C958 C955 1.367 . S
C958 C956 1.403 . S
C958 H965 0.929 . S
N959 Eu924 2.562 . S
N959 C960 1.325 . S
N959 C962 1.351 . S
C960 H946 0.929 . S
C960 N959 1.325 . S
C960 C964 1.416 . S
C961 C962 1.430 . S
C961 C963 1.404 . S
C961 C990 1.387 . S
C962 C954 1.448 . S
C962 N959 1.351 . S
C962 C961 1.430 . S
C963 H952 0.930 . S
C963 C961 1.404 . S
C963 C964 1.366 . S
C964 H943 0.930 . S
C964 C960 1.416 . S
C964 C963 1.366 . S
H965 C958 0.929 . S
H966 C989 0.931 . S
H967 C990 0.931 . S
O968 Eu924 2.462 . S
O968 C988 1.252 . S
O969 Eu924 2.373 . S
O969 C980 1.249 . S
O970 Eu935 2.335 . S
O970 C980 1.264 . S
O971 Eu924 2.432 . S
O971 C988 1.268 . S
O972 Eu924 2.291 . S
O972 C987 1.255 . S
O973 Eu935 2.372 . S
O973 C987 1.257 . S
O974 Eu935 2.462 . S
O974 C999 1.252 . S
O975 Eu935 2.373 . S
O975 C991 1.249 . S
O976 Eu924 2.335 . S
O976 C991 1.264 . S
O977 Eu935 2.432 . S
O977 C999 1.268 . S
O978 Eu935 2.291 . S
O978 C998 1.255 . S
O979 Eu924 2.372 . S
O979 C998 1.257 . S
C980 O969 1.249 . S
C980 O970 1.264 . S
C981 C984 1.382 . S
C981 C986 1.390 . S
C981 C988 1.506 . S
C982 C983 1.398 . S
C982 C986 1.392 1_565 S
C983 C982 1.398 . S
C983 C985 1.372 . S
C983 H1000 0.931 . S
C984 C981 1.382 . S
C984 C985 1.390 1_545 S
C984 H1001 0.931 . S
C985 C983 1.372 . S
C985 C984 1.390 1_565 S
C985 H1002 0.929 . S
C986 C981 1.390 . S
C986 C982 1.392 1_545 S
C986 H1003 0.930 . S
C987 O972 1.255 . S
C987 O973 1.257 . S
C988 Eu924 2.787 . S
C988 O968 1.252 . S
C988 O971 1.268 . S
C988 C981 1.506 . S
C989 C956 1.439 . S
C989 H966 0.931 . S
C989 C990 1.374 . S
C990 C961 1.387 . S
C990 H967 0.931 . S
C990 C989 1.374 . S
C991 O975 1.249 . S
C991 O976 1.264 . S
C992 C995 1.382 . S
C992 C996 1.390 . S
C992 C999 1.506 . S
C993 C994 1.398 . S
C993 C996 1.392 . S
C994 C993 1.398 . S
C994 C997 1.372 . S
C994 H1004 0.931 . S
C995 C992 1.382 . S
C995 C997 1.390 . S
C995 H1005 0.931 . S
C996 C992 1.390 . S
C996 C993 1.392 . S
C996 H1006 0.930 . S
C997 C994 1.372 . S
C997 C995 1.390 . S
C997 H1007 0.929 . S
C998 O978 1.255 . S
C998 O979 1.257 . S
C999 Eu935 2.787 . S
C999 O974 1.252 . S
C999 O977 1.268 . S
C999 C992 1.506 . S
H1000 C983 0.931 . S
H1001 C984 0.931 . S
H1002 C985 0.929 . S
H1003 C986 0.930 . S
H1004 C994 0.931 . S
H1005 C995 0.931 . S
H1006 C996 0.930 . S
H1007 C997 0.929 . S
H1008 C1016 0.929 . S
H1009 C1018 0.930 . S
H1010 C1020 0.930 . S
H1011 C1023 0.929 . S
H1012 C1026 0.920 1_565 S
H1013 C1028 0.960 . S
H1014 C1028 0.978 . S
H1015 C1028 0.960 1_565 S
C1016 H1008 0.929 . S
C1016 C1017 1.377 . S
C1016 C1018 1.384 . S
C1017 C1016 1.377 . S
C1017 C1023 1.390 . S
C1018 H1009 0.930 . S
C1018 C1016 1.384 . S
C1018 C1019 1.372 . S
C1019 C1018 1.372 . S
C1019 C1020 1.400 . S
C1019 C1024 1.490 . S
C1020 H1010 0.930 . S
C1020 C1019 1.400 . S
C1020 C1023 1.386 . S
H1021 C1037 0.930 . S
H1022 C1038 0.931 . S
C1023 H1011 0.929 . S
C1023 C1017 1.390 . S
C1023 C1020 1.386 . S
C1024 C1019 1.490 . S
C1024 C1026 1.386 1_565 S
C1024 C1027 1.403 1_565 S
H1025 C1031 0.930 . S
C1026 H1012 0.920 1_545 S
C1026 C1024 1.386 1_545 S
C1026 C1029 1.422 . S
C1027 C1024 1.403 1_545 S
C1027 C1028 1.524 . S
C1027 C1031 1.400 . S
C1028 H1013 0.960 . S
C1028 H1014 0.978 . S
C1028 H1015 0.960 1_545 S
C1028 C1027 1.524 . S
C1029 C1026 1.422 . S
C1029 C1030 1.392 . S
C1029 C1033 1.495 . S
C1030 C1029 1.392 . S
C1030 C1031 1.385 . S
C1030 C1032 1.478 . S
C1031 H1025 0.930 . S
C1031 C1027 1.400 . S
C1031 C1030 1.385 . S
C1032 C1030 1.478 . S
C1032 C1034 1.381 . S
C1032 C1038 1.383 . S
C1033 C1029 1.495 . S
C1033 H1039 0.959 . S
C1033 H1040 0.961 . S
C1033 H1041 0.960 . S
C1034 C1032 1.381 . S
C1034 C1035 1.394 . S
C1034 H1042 0.930 . S
C1035 C1034 1.394 . S
C1035 C1036 1.383 . S
C1035 H1043 0.929 . S
C1036 C1035 1.383 . S
C1036 C1037 1.377 . S
C1037 H1021 0.930 . S
C1037 C1036 1.377 . S
C1037 C1038 1.379 . S
C1038 H1022 0.931 . S
C1038 C1032 1.383 . S
C1038 C1037 1.379 . S
H1039 C1033 0.959 . S
H1040 C1033 0.961 . S
H1041 C1033 0.960 . S
H1042 C1034 0.930 . S
H1043 C1035 0.929 . S
H1044 C1052 0.929 . S
H1045 C1054 0.930 . S
H1046 C1056 0.930 . S
H1047 C1059 0.929 . S
H1048 C1062 0.930 . S
H1049 C1064 0.960 . S
H1050 C1064 0.960 . S
H1051 C1064 0.960 . S
C1052 H1044 0.929 . S
C1052 C1053 1.377 . S
C1052 C1054 1.384 . S
C1053 C1052 1.377 . S
C1053 C1059 1.390 . S
C1054 H1045 0.930 . S
C1054 C1052 1.384 . S
C1054 C1055 1.372 . S
C1055 C1054 1.372 . S
C1055 C1056 1.400 . S
C1055 C1060 1.490 . S
C1056 H1046 0.930 . S
C1056 C1055 1.400 . S
C1056 C1059 1.386 . S
H1057 C1073 0.930 . S
H1058 C1074 0.931 . S
C1059 H1047 0.929 . S
C1059 C1053 1.390 . S
C1059 C1056 1.386 . S
C1060 C1055 1.490 . S
C1060 C1062 1.395 . S
C1060 C1063 1.403 . S
H1061 C1067 0.930 . S
C1062 H1048 0.930 . S
C1062 C1060 1.395 . S
C1062 C1065 1.403 . S
C1063 C1060 1.403 . S
C1063 C1064 1.524 . S
C1063 C1067 1.400 . S
C1064 H1049 0.960 . S
C1064 H1050 0.960 . S
C1064 H1051 0.960 . S
C1064 C1063 1.524 . S
C1065 C1062 1.403 . S
C1065 C1066 1.392 . S
C1065 C1069 1.495 . S
C1066 C1065 1.392 . S
C1066 C1067 1.385 . S
C1066 C1068 1.478 . S
C1067 H1061 0.930 . S
C1067 C1063 1.400 . S
C1067 C1066 1.385 . S
C1068 C1066 1.478 . S
C1068 C1070 1.381 . S
C1068 C1074 1.383 . S
C1069 C1065 1.495 . S
C1069 H1075 0.959 . S
C1069 H1076 0.961 . S
C1069 H1077 0.960 . S
C1070 C1068 1.381 . S
C1070 C1071 1.394 . S
C1070 H1078 0.930 . S
C1071 C1070 1.394 . S
C1071 C1072 1.383 . S
C1071 H1079 0.929 . S
C1072 C1071 1.383 . S
C1072 C1073 1.377 . S
C1073 H1057 0.930 . S
C1073 C1072 1.377 . S
C1073 C1074 1.379 . S
C1074 H1058 0.931 . S
C1074 C1068 1.383 . S
C1074 C1073 1.379 . S
H1075 C1069 0.959 . S
H1076 C1069 0.961 . S
H1077 C1069 0.960 . S
H1078 C1070 0.930 . S
H1079 C1071 0.929 . S
H1080 C1088 0.929 . S
H1081 C1090 0.930 . S
H1082 C1092 0.930 . S
H1083 C1095 0.929 . S
H1084 C1098 0.930 . S
H1085 C1100 0.960 . S
H1086 C1100 0.960 . S
H1087 C1100 0.960 . S
C1088 H1080 0.929 . S
C1088 C1089 1.377 . S
C1088 C1090 1.384 . S
C1089 C1088 1.377 . S
C1089 C1095 1.390 . S
C1090 H1081 0.930 . S
C1090 C1088 1.384 . S
C1090 C1091 1.372 . S
C1091 C1090 1.372 . S
C1091 C1092 1.400 . S
C1091 C1096 1.490 . S
C1092 H1082 0.930 . S
C1092 C1091 1.400 . S
C1092 C1095 1.386 . S
H1093 C1109 0.930 . S
H1094 C1110 0.931 . S
C1095 H1083 0.929 . S
C1095 C1089 1.390 . S
C1095 C1092 1.386 . S
C1096 C1091 1.490 . S
C1096 C1098 1.395 . S
C1096 C1099 1.403 . S
H1097 C1103 0.930 . S
C1098 H1084 0.930 . S
C1098 C1096 1.395 . S
C1098 C1101 1.403 . S
C1099 C1096 1.403 . S
C1099 C1100 1.524 . S
C1099 C1103 1.400 1_655 S
C1100 H1085 0.960 . S
C1100 H1086 0.960 . S
C1100 H1087 0.960 . S
C1100 C1099 1.524 . S
C1101 C1098 1.403 . S
C1101 C1102 1.392 1_655 S
C1101 C1105 1.495 . S
C1102 C1101 1.392 1_455 S
C1102 C1103 1.385 . S
C1102 C1104 1.478 . S
C1103 H1097 0.930 . S
C1103 C1099 1.400 1_455 S
C1103 C1102 1.385 . S
C1104 C1102 1.478 . S
C1104 C1106 1.381 . S
C1104 C1110 1.383 . S
C1105 C1101 1.495 . S
C1105 H1111 0.959 . S
C1105 H1112 0.961 . S
C1105 H1113 0.960 1_655 S
C1106 C1104 1.381 . S
C1106 C1107 1.394 . S
C1106 H1114 0.930 . S
C1107 C1106 1.394 . S
C1107 C1108 1.383 . S
C1107 H1115 0.929 . S
C1108 C1107 1.383 . S
C1108 C1109 1.377 . S
C1109 H1093 0.930 . S
C1109 C1108 1.377 . S
C1109 C1110 1.379 . S
C1110 H1094 0.931 . S
C1110 C1104 1.383 . S
C1110 C1109 1.379 . S
H1111 C1105 0.959 . S
H1112 C1105 0.961 . S
H1113 C1105 0.960 1_455 S
H1114 C1106 0.930 . S
H1115 C1107 0.929 . S
H1116 C1124 0.929 . S
H1117 C1126 0.930 . S
H1118 C1128 0.930 . S
H1119 C1131 0.929 . S
H1120 C1134 0.930 . S
H1121 C1136 0.960 . S
H1122 C1136 0.960 . S
H1123 C1136 0.960 . S
C1124 H1116 0.929 . S
C1124 C1125 1.377 . S
C1124 C1126 1.384 . S
C1125 C1124 1.377 . S
C1125 C1131 1.390 . S
C1126 H1117 0.930 . S
C1126 C1124 1.384 . S
C1126 C1127 1.372 . S
C1127 C1126 1.372 . S
C1127 C1128 1.400 . S
C1127 C1132 1.490 . S
C1128 H1118 0.930 . S
C1128 C1127 1.400 . S
C1128 C1131 1.386 . S
H1129 C1145 0.930 . S
H1130 C1146 0.931 . S
C1131 H1119 0.929 . S
C1131 C1125 1.390 . S
C1131 C1128 1.386 . S
C1132 C1127 1.490 . S
C1132 C1134 1.395 . S
C1132 C1135 1.403 . S
H1133 C1139 0.930 1_545 S
C1134 H1120 0.930 . S
C1134 C1132 1.395 . S
C1134 C1137 1.403 . S
C1135 C1132 1.403 . S
C1135 C1136 1.524 . S
C1135 C1139 1.400 . S
C1136 H1121 0.960 . S
C1136 H1122 0.960 . S
C1136 H1123 0.960 . S
C1136 C1135 1.524 . S
C1137 C1134 1.403 . S
C1137 C1138 1.392 1_565 S
C1137 C1141 1.495 1_565 S
C1138 C1137 1.392 1_545 S
C1138 C1139 1.385 1_545 S
C1138 C1140 1.478 . S
C1139 H1133 0.930 1_565 S
C1139 C1135 1.400 . S
C1139 C1138 1.385 1_565 S
C1140 C1138 1.478 . S
C1140 C1142 1.381 . S
C1140 C1146 1.383 . S
C1141 C1137 1.495 1_545 S
C1141 H1147 0.955 1_545 S
C1141 H1148 0.961 . S
C1141 H1149 0.960 . S
C1142 C1140 1.381 . S
C1142 C1143 1.394 . S
C1142 H1150 0.930 . S
C1143 C1142 1.394 . S
C1143 C1144 1.383 . S
C1143 H1151 0.929 . S
C1144 C1143 1.383 . S
C1144 C1145 1.377 . S
C1145 H1129 0.930 . S
C1145 C1144 1.377 . S
C1145 C1146 1.379 . S
C1146 H1130 0.931 . S
C1146 C1140 1.383 . S
C1146 C1145 1.379 . S
H1147 C1141 0.955 1_565 S
H1148 C1141 0.961 . S
H1149 C1141 0.960 . S
H1150 C1142 0.930 . S
H1151 C1143 0.929 . S
H1152 C1160 0.929 . S
H1153 C1162 0.930 . S
H1154 C1164 0.930 . S
H1155 C1167 0.929 . S
H1156 C1170 0.930 . S
H1157 C1172 0.960 . S
H1158 C1172 0.960 . S
H1159 C1172 0.960 . S
C1160 H1152 0.929 . S
C1160 C1161 1.377 . S
C1160 C1162 1.384 . S
C1161 C1160 1.377 . S
C1161 C1167 1.390 . S
C1162 H1153 0.930 . S
C1162 C1160 1.384 . S
C1162 C1163 1.372 . S
C1163 C1162 1.372 . S
C1163 C1164 1.400 . S
C1163 C1168 1.490 . S
C1164 H1154 0.930 . S
C1164 C1163 1.400 . S
C1164 C1167 1.386 . S
H1165 C1181 0.930 . S
H1166 C1182 0.931 . S
C1167 H1155 0.929 . S
C1167 C1161 1.390 . S
C1167 C1164 1.386 . S
C1168 C1163 1.490 . S
C1168 C1170 1.395 . S
C1168 C1171 1.403 . S
H1169 C1175 0.930 . S
C1170 H1156 0.930 . S
C1170 C1168 1.395 . S
C1170 C1173 1.403 . S
C1171 C1168 1.403 . S
C1171 C1172 1.524 . S
C1171 C1175 1.400 . S
C1172 H1157 0.960 . S
C1172 H1158 0.960 . S
C1172 H1159 0.960 . S
C1172 C1171 1.524 . S
C1173 C1170 1.403 . S
C1173 C1174 1.392 . S
C1173 C1177 1.495 . S
C1174 C1173 1.392 . S
C1174 C1175 1.385 . S
C1174 C1176 1.478 . S
C1175 H1169 0.930 . S
C1175 C1171 1.400 . S
C1175 C1174 1.385 . S
C1176 C1174 1.478 . S
C1176 C1178 1.381 . S
C1176 C1182 1.383 . S
C1177 C1173 1.495 . S
C1177 H1183 0.959 . S
C1177 H1184 0.961 . S
C1177 H1185 0.960 . S
C1178 C1176 1.381 . S
C1178 C1179 1.394 . S
C1178 H1186 0.930 . S
C1179 C1178 1.394 . S
C1179 C1180 1.383 . S
C1179 H1187 0.929 . S
C1180 C1179 1.383 . S
C1180 C1181 1.377 . S
C1181 H1165 0.930 . S
C1181 C1180 1.377 . S
C1181 C1182 1.379 . S
C1182 H1166 0.931 . S
C1182 C1176 1.383 . S
C1182 C1181 1.379 . S
H1183 C1177 0.959 . S
H1184 C1177 0.961 . S
H1185 C1177 0.960 . S
H1186 C1178 0.930 . S
H1187 C1179 0.929 . S
H1188 C1196 0.929 . S
H1189 C1198 0.930 . S
H1190 C1200 0.930 . S
H1191 C1203 0.929 . S
H1192 C1206 0.906 1_655 S
H1193 C1208 0.968 . S
H1194 C1208 0.950 1_655 S
H1195 C1208 0.963 1_655 S
C1196 H1188 0.929 . S
C1196 C1197 1.377 . S
C1196 C1198 1.384 . S
C1197 C1196 1.377 . S
C1197 C1203 1.390 . S
C1198 H1189 0.930 . S
C1198 C1196 1.384 . S
C1198 C1199 1.372 . S
C1199 C1198 1.372 . S
C1199 C1200 1.400 . S
C1199 C1204 1.490 . S
C1200 H1190 0.930 . S
C1200 C1199 1.400 . S
C1200 C1203 1.386 . S
H1201 C1217 0.930 . S
H1202 C1218 0.931 . S
C1203 H1191 0.929 . S
C1203 C1197 1.390 . S
C1203 C1200 1.386 . S
C1204 C1199 1.490 . S
C1204 C1206 1.395 1_655 S
C1204 C1207 1.403 1_655 S
H1205 C1211 0.930 . S
C1206 H1192 0.906 1_455 S
C1206 C1204 1.395 1_455 S
C1206 C1209 1.429 . S
C1207 C1204 1.403 1_455 S
C1207 C1208 1.524 . S
C1207 C1211 1.400 . S
C1208 H1193 0.968 . S
C1208 H1194 0.950 1_455 S
C1208 H1195 0.963 1_455 S
C1208 C1207 1.524 . S
C1209 C1206 1.429 . S
C1209 C1210 1.392 . S
C1209 C1213 1.495 . S
C1210 C1209 1.392 . S
C1210 C1211 1.385 . S
C1210 C1212 1.478 . S
C1211 H1205 0.930 . S
C1211 C1207 1.400 . S
C1211 C1210 1.385 . S
C1212 C1210 1.478 . S
C1212 C1214 1.381 . S
C1212 C1218 1.383 . S
C1213 C1209 1.495 . S
C1213 H1219 0.959 . S
C1213 H1220 0.961 . S
C1213 H1221 0.960 . S
C1214 C1212 1.381 . S
C1214 C1215 1.394 . S
C1214 H1222 0.930 . S
C1215 C1214 1.394 . S
C1215 C1216 1.383 . S
C1215 H1223 0.929 . S
C1216 C1215 1.383 . S
C1216 C1217 1.377 . S
C1217 H1201 0.930 . S
C1217 C1216 1.377 . S
C1217 C1218 1.379 . S
C1218 H1202 0.931 . S
C1218 C1212 1.383 . S
C1218 C1217 1.379 . S
H1219 C1213 0.959 . S
H1220 C1213 0.961 . S
H1221 C1213 0.960 . S
H1222 C1214 0.930 . S
H1223 C1215 0.929 . S
H1224 C1232 0.929 . S
H1225 C1234 0.930 . S
H1226 C1236 0.930 . S
H1227 C1239 0.929 . S
H1228 C1242 0.930 . S
H1229 C1244 0.960 . S
H1230 C1244 0.960 1_455 S
H1231 C1244 0.960 . S
C1232 H1224 0.929 . S
C1232 C1233 1.377 . S
C1232 C1234 1.384 . S
C1233 C1232 1.377 . S
C1233 C1239 1.390 . S
C1234 H1225 0.930 . S
C1234 C1232 1.384 . S
C1234 C1235 1.372 . S
C1235 C1234 1.372 . S
C1235 C1236 1.400 . S
C1235 C1240 1.490 . S
C1236 H1226 0.930 . S
C1236 C1235 1.400 . S
C1236 C1239 1.386 . S
H1237 C1253 0.930 . S
H1238 C1254 0.931 . S
C1239 H1227 0.929 . S
C1239 C1233 1.390 . S
C1239 C1236 1.386 . S
C1240 C1235 1.490 . S
C1240 C1242 1.395 . S
C1240 C1243 1.403 1_455 S
H1241 C1247 0.930 . S
C1242 H1228 0.930 . S
C1242 C1240 1.395 . S
C1242 C1245 1.403 1_455 S
C1243 C1240 1.403 1_655 S
C1243 C1244 1.524 . S
C1243 C1247 1.400 . S
C1244 H1229 0.960 . S
C1244 H1230 0.960 1_655 S
C1244 H1231 0.960 . S
C1244 C1243 1.524 . S
C1245 C1242 1.403 1_655 S
C1245 C1246 1.392 . S
C1245 C1249 1.495 . S
C1246 C1245 1.392 . S
C1246 C1247 1.385 . S
C1246 C1248 1.478 . S
C1247 H1241 0.930 . S
C1247 C1243 1.400 . S
C1247 C1246 1.385 . S
C1248 C1246 1.478 . S
C1248 C1250 1.381 . S
C1248 C1254 1.383 . S
C1249 C1245 1.495 . S
C1249 H1255 0.959 . S
C1249 H1256 0.961 . S
C1249 H1257 0.960 . S
C1250 C1248 1.381 . S
C1250 C1251 1.394 . S
C1250 H1258 0.930 . S
C1251 C1250 1.394 . S
C1251 C1252 1.383 . S
C1251 H1259 0.929 . S
C1252 C1251 1.383 . S
C1252 C1253 1.377 . S
C1253 H1237 0.930 . S
C1253 C1252 1.377 . S
C1253 C1254 1.379 . S
C1254 H1238 0.931 . S
C1254 C1248 1.383 . S
C1254 C1253 1.379 . S
H1255 C1249 0.959 . S
H1256 C1249 0.961 . S
H1257 C1249 0.960 . S
H1258 C1250 0.930 . S
H1259 C1251 0.929 . S
H1260 C1268 0.929 . S
H1261 C1270 0.930 . S
H1262 C1272 0.930 . S
H1263 C1275 0.929 . S
H1264 C1278 0.930 . S
H1265 C1280 0.960 . S
H1266 C1280 0.960 . S
H1267 C1280 0.960 . S
C1268 H1260 0.929 . S
C1268 C1269 1.377 . S
C1268 C1270 1.384 . S
C1269 C1268 1.377 . S
C1269 C1275 1.390 . S
C1270 H1261 0.930 . S
C1270 C1268 1.384 . S
C1270 C1271 1.372 . S
C1271 C1270 1.372 . S
C1271 C1272 1.400 . S
C1271 C1276 1.490 . S
C1272 H1262 0.930 . S
C1272 C1271 1.400 . S
C1272 C1275 1.386 . S
H1273 C1289 0.930 . S
H1274 C1290 0.931 . S
C1275 H1263 0.929 . S
C1275 C1269 1.390 . S
C1275 C1272 1.386 . S
C1276 C1271 1.490 . S
C1276 C1278 1.395 . S
C1276 C1279 1.403 . S
H1277 C1283 0.930 . S
C1278 H1264 0.930 . S
C1278 C1276 1.395 . S
C1278 C1281 1.403 1_565 S
C1279 C1276 1.403 . S
C1279 C1280 1.524 . S
C1279 C1283 1.400 . S
C1280 H1265 0.960 . S
C1280 H1266 0.960 . S
C1280 H1267 0.960 . S
C1280 C1279 1.524 . S
C1281 C1278 1.403 1_545 S
C1281 C1282 1.392 . S
C1281 C1285 1.495 . S
C1282 C1281 1.392 . S
C1282 C1283 1.385 1_545 S
C1282 C1284 1.478 . S
C1283 H1277 0.930 . S
C1283 C1279 1.400 . S
C1283 C1282 1.385 1_565 S
C1284 C1282 1.478 . S
C1284 C1286 1.381 . S
C1284 C1290 1.383 . S
C1285 C1281 1.495 . S
C1285 H1291 0.959 . S
C1285 H1292 0.961 . S
C1285 H1293 0.960 . S
C1286 C1284 1.381 . S
C1286 C1287 1.394 . S
C1286 H1294 0.930 . S
C1287 C1286 1.394 . S
C1287 C1288 1.383 . S
C1287 H1295 0.929 . S
C1288 C1287 1.383 . S
C1288 C1289 1.377 . S
C1289 H1273 0.930 . S
C1289 C1288 1.377 . S
C1289 C1290 1.379 . S
C1290 H1274 0.931 . S
C1290 C1284 1.383 . S
C1290 C1289 1.379 . S
H1291 C1285 0.959 . S
H1292 C1285 0.961 . S
H1293 C1285 0.960 . S
H1294 C1286 0.930 . S
H1295 C1287 0.929 . S
H1296 C1304 0.929 . S
H1297 C1306 0.930 . S
H1298 C1308 0.930 . S
H1299 C1311 0.929 . S
H1300 C1314 0.930 . S
H1301 C1316 0.960 . S
H1302 C1316 0.960 . S
H1303 C1316 0.960 . S
C1304 H1296 0.929 . S
C1304 C1305 1.377 . S
C1304 C1306 1.384 . S
C1305 C1304 1.377 . S
C1305 C1311 1.390 . S
C1306 H1297 0.930 . S
C1306 C1304 1.384 . S
C1306 C1307 1.372 . S
C1307 C1306 1.372 . S
C1307 C1308 1.400 . S
C1307 C1312 1.490 . S
C1308 H1298 0.930 . S
C1308 C1307 1.400 . S
C1308 C1311 1.386 . S
H1309 C1325 0.930 . S
H1310 C1326 0.931 . S
C1311 H1299 0.929 . S
C1311 C1305 1.390 . S
C1311 C1308 1.386 . S
C1312 C1307 1.490 . S
C1312 C1314 1.395 . S
C1312 C1315 1.403 . S
H1313 C1319 0.930 . S
C1314 H1300 0.930 . S
C1314 C1312 1.395 . S
C1314 C1317 1.403 . S
C1315 C1312 1.403 . S
C1315 C1316 1.524 . S
C1315 C1319 1.400 . S
C1316 H1301 0.960 . S
C1316 H1302 0.960 . S
C1316 H1303 0.960 . S
C1316 C1315 1.524 . S
C1317 C1314 1.403 . S
C1317 C1318 1.392 . S
C1317 C1321 1.495 . S
C1318 C1317 1.392 . S
C1318 C1319 1.385 . S
C1318 C1320 1.478 . S
C1319 H1313 0.930 . S
C1319 C1315 1.400 . S
C1319 C1318 1.385 . S
C1320 C1318 1.478 . S
C1320 C1322 1.381 . S
C1320 C1326 1.383 . S
C1321 C1317 1.495 . S
C1321 H1327 0.959 . S
C1321 H1328 0.961 . S
C1321 H1329 0.960 . S
C1322 C1320 1.381 . S
C1322 C1323 1.394 . S
C1322 H1330 0.930 . S
C1323 C1322 1.394 . S
C1323 C1324 1.383 . S
C1323 H1331 0.929 . S
C1324 C1323 1.383 . S
C1324 C1325 1.377 . S
C1325 H1309 0.930 . S
C1325 C1324 1.377 . S
C1325 C1326 1.379 . S
C1326 H1310 0.931 . S
C1326 C1320 1.383 . S
C1326 C1325 1.379 . S
H1327 C1321 0.959 . S
H1328 C1321 0.961 . S
H1329 C1321 0.960 . S
H1330 C1322 0.930 . S
H1331 C1323 0.929 . S
H1332 C1340 0.929 . S
H1333 C1342 0.930 . S
H1334 C1344 0.930 . S
H1335 C1347 0.929 . S
H1336 C1350 0.930 . S
H1337 C1352 0.960 . S
H1338 C1352 0.960 . S
H1339 C1352 0.960 . S
C1340 H1332 0.929 . S
C1340 C1341 1.377 . S
C1340 C1342 1.384 . S
C1341 C1340 1.377 . S
C1341 C1347 1.390 . S
C1342 H1333 0.930 . S
C1342 C1340 1.384 . S
C1342 C1343 1.372 . S
C1343 C1342 1.372 . S
C1343 C1344 1.400 . S
C1343 C1348 1.490 . S
C1344 H1334 0.930 . S
C1344 C1343 1.400 . S
C1344 C1347 1.386 . S
H1345 C1361 0.930 . S
H1346 C1362 0.931 . S
C1347 H1335 0.929 . S
C1347 C1341 1.390 . S
C1347 C1344 1.386 . S
C1348 C1343 1.490 . S
C1348 C1350 1.395 . S
C1348 C1351 1.403 . S
H1349 C1355 0.930 . S
C1350 H1336 0.930 . S
C1350 C1348 1.395 . S
C1350 C1353 1.403 . S
C1351 C1348 1.403 . S
C1351 C1352 1.524 . S
C1351 C1355 1.400 1_455 S
C1352 H1337 0.960 . S
C1352 H1338 0.960 . S
C1352 H1339 0.960 . S
C1352 C1351 1.524 . S
C1353 C1350 1.403 . S
C1353 C1354 1.392 1_455 S
C1353 C1357 1.495 . S
C1354 C1353 1.392 1_655 S
C1354 C1355 1.385 . S
C1354 C1356 1.478 . S
C1355 H1349 0.930 . S
C1355 C1351 1.400 1_655 S
C1355 C1354 1.385 . S
C1356 C1354 1.478 . S
C1356 C1358 1.381 . S
C1356 C1362 1.383 . S
C1357 C1353 1.495 . S
C1357 H1363 0.959 . S
C1357 H1364 0.961 1_455 S
C1357 H1365 0.960 . S
C1358 C1356 1.381 . S
C1358 C1359 1.394 . S
C1358 H1366 0.930 . S
C1359 C1358 1.394 . S
C1359 C1360 1.383 . S
C1359 H1367 0.929 . S
C1360 C1359 1.383 . S
C1360 C1361 1.377 . S
C1361 H1345 0.930 . S
C1361 C1360 1.377 . S
C1361 C1362 1.379 . S
C1362 H1346 0.931 . S
C1362 C1356 1.383 . S
C1362 C1361 1.379 . S
H1363 C1357 0.959 . S
H1364 C1357 0.961 1_655 S
H1365 C1357 0.960 . S
H1366 C1358 0.930 . S
H1367 C1359 0.929 . S
H1368 C1376 0.929 . S
H1369 C1378 0.930 . S
H1370 C1380 0.930 . S
H1371 C1383 0.929 . S
H1372 C1386 0.930 . S
H1373 C1388 0.960 . S
H1374 C1388 0.960 . S
H1375 C1388 0.960 . S
C1376 H1368 0.929 . S
C1376 C1377 1.377 . S
C1376 C1378 1.384 . S
C1377 C1376 1.377 . S
C1377 C1383 1.390 . S
C1378 H1369 0.930 . S
C1378 C1376 1.384 . S
C1378 C1379 1.372 . S
C1379 C1378 1.372 . S
C1379 C1380 1.400 . S
C1379 C1384 1.490 . S
C1380 H1370 0.930 . S
C1380 C1379 1.400 . S
C1380 C1383 1.386 . S
H1381 C1397 0.930 . S
H1382 C1398 0.931 . S
C1383 H1371 0.929 . S
C1383 C1377 1.390 . S
C1383 C1380 1.386 . S
C1384 C1379 1.490 . S
C1384 C1386 1.395 . S
C1384 C1387 1.403 . S
H1385 C1391 0.930 . S
C1386 H1372 0.930 . S
C1386 C1384 1.395 . S
C1386 C1389 1.403 . S
C1387 C1384 1.403 . S
C1387 C1388 1.524 . S
C1387 C1391 1.400 1_545 S
C1388 H1373 0.960 . S
C1388 H1374 0.960 . S
C1388 H1375 0.960 . S
C1388 C1387 1.524 . S
C1389 C1386 1.403 . S
C1389 C1390 1.392 1_545 S
C1389 C1393 1.495 . S
C1390 C1389 1.392 1_565 S
C1390 C1391 1.385 . S
C1390 C1392 1.478 . S
C1391 H1385 0.930 . S
C1391 C1387 1.400 1_565 S
C1391 C1390 1.385 . S
C1392 C1390 1.478 . S
C1392 C1394 1.381 . S
C1392 C1398 1.383 . S
C1393 C1389 1.495 . S
C1393 H1399 0.959 . S
C1393 H1400 0.961 . S
C1393 H1401 0.960 1_545 S
C1394 C1392 1.381 . S
C1394 C1395 1.394 . S
C1394 H1402 0.930 . S
C1395 C1394 1.394 . S
C1395 C1396 1.383 . S
C1395 H1403 0.929 . S
C1396 C1395 1.383 . S
C1396 C1397 1.377 . S
C1397 H1381 0.930 . S
C1397 C1396 1.377 . S
C1397 C1398 1.379 . S
C1398 H1382 0.931 . S
C1398 C1392 1.383 . S
C1398 C1397 1.379 . S
H1399 C1393 0.959 . S
H1400 C1393 0.961 . S
H1401 C1393 0.960 1_565 S
H1402 C1394 0.930 . S
H1403 C1395 0.929 . S
H1404 C1412 0.929 . S
H1405 C1414 0.930 . S
H1406 C1416 0.930 . S
H1407 C1419 0.929 . S
H1408 C1422 0.930 . S
H1409 C1424 0.960 . S
H1410 C1424 0.960 . S
H1411 C1424 0.960 . S
C1412 H1404 0.929 . S
C1412 C1413 1.377 . S
C1412 C1414 1.384 . S
C1413 C1412 1.377 . S
C1413 C1419 1.390 . S
C1414 H1405 0.930 . S
C1414 C1412 1.384 . S
C1414 C1415 1.372 . S
C1415 C1414 1.372 . S
C1415 C1416 1.400 . S
C1415 C1420 1.490 . S
C1416 H1406 0.930 . S
C1416 C1415 1.400 . S
C1416 C1419 1.386 . S
H1417 C1433 0.930 . S
H1418 C1434 0.931 . S
C1419 H1407 0.929 . S
C1419 C1413 1.390 . S
C1419 C1416 1.386 . S
C1420 C1415 1.490 . S
C1420 C1422 1.395 . S
C1420 C1423 1.403 . S
H1421 C1427 0.930 . S
C1422 H1408 0.930 . S
C1422 C1420 1.395 . S
C1422 C1425 1.403 . S
C1423 C1420 1.403 . S
C1423 C1424 1.524 . S
C1423 C1427 1.400 . S
C1424 H1409 0.960 . S
C1424 H1410 0.960 . S
C1424 H1411 0.960 . S
C1424 C1423 1.524 . S
C1425 C1422 1.403 . S
C1425 C1426 1.392 . S
C1425 C1429 1.495 . S
C1426 C1425 1.392 . S
C1426 C1427 1.385 . S
C1426 C1428 1.478 . S
C1427 H1421 0.930 . S
C1427 C1423 1.400 . S
C1427 C1426 1.385 . S
C1428 C1426 1.478 . S
C1428 C1430 1.381 . S
C1428 C1434 1.383 . S
C1429 C1425 1.495 . S
C1429 H1435 0.959 . S
C1429 H1436 0.961 . S
C1429 H1437 0.960 . S
C1430 C1428 1.381 . S
C1430 C1431 1.394 . S
C1430 H1438 0.930 . S
C1431 C1430 1.394 . S
C1431 C1432 1.383 . S
C1431 H1439 0.929 . S
C1432 C1431 1.383 . S
C1432 C1433 1.377 . S
C1433 H1417 0.930 . S
C1433 C1432 1.377 . S
C1433 C1434 1.379 . S
C1434 H1418 0.931 . S
C1434 C1428 1.383 . S
C1434 C1433 1.379 . S
H1435 C1429 0.959 . S
H1436 C1429 0.961 . S
H1437 C1429 0.960 . S
H1438 C1430 0.930 . S
H1439 C1431 0.929 . S
H1440 C1448 0.929 . S
H1441 C1450 0.930 . S
H1442 C1452 0.930 . S
H1443 C1455 0.929 . S
H1444 C1458 0.930 . S
H1445 C1460 0.960 . S
H1446 C1460 0.960 . S
H1447 C1460 0.960 . S
C1448 H1440 0.929 . S
C1448 C1449 1.377 . S
C1448 C1450 1.384 . S
C1449 C1448 1.377 . S
C1449 C1455 1.390 . S
C1450 H1441 0.930 . S
C1450 C1448 1.384 . S
C1450 C1451 1.372 . S
C1451 C1450 1.372 . S
C1451 C1452 1.400 . S
C1451 C1456 1.490 . S
C1452 H1442 0.930 . S
C1452 C1451 1.400 . S
C1452 C1455 1.386 . S
H1453 C1469 0.930 . S
H1454 C1470 0.931 . S
C1455 H1443 0.929 . S
C1455 C1449 1.390 . S
C1455 C1452 1.386 . S
C1456 C1451 1.490 . S
C1456 C1458 1.395 . S
C1456 C1459 1.403 . S
H1457 C1463 0.930 . S
C1458 H1444 0.930 . S
C1458 C1456 1.395 . S
C1458 C1461 1.403 . S
C1459 C1456 1.403 . S
C1459 C1460 1.524 . S
C1459 C1463 1.400 . S
C1460 H1445 0.960 . S
C1460 H1446 0.960 . S
C1460 H1447 0.960 . S
C1460 C1459 1.524 . S
C1461 C1458 1.403 . S
C1461 C1462 1.392 . S
C1461 C1465 1.495 . S
C1462 C1461 1.392 . S
C1462 C1463 1.385 . S
C1462 C1464 1.478 . S
C1463 H1457 0.930 . S
C1463 C1459 1.400 . S
C1463 C1462 1.385 . S
C1464 C1462 1.478 . S
C1464 C1466 1.381 . S
C1464 C1470 1.383 . S
C1465 C1461 1.495 . S
C1465 H1471 0.959 . S
C1465 H1472 0.961 . S
C1465 H1473 0.960 . S
C1466 C1464 1.381 . S
C1466 C1467 1.394 . S
C1466 H1474 0.930 . S
C1467 C1466 1.394 . S
C1467 C1468 1.383 . S
C1467 H1475 0.929 . S
C1468 C1467 1.383 . S
C1468 C1469 1.377 . S
C1469 H1453 0.930 . S
C1469 C1468 1.377 . S
C1469 C1470 1.379 . S
C1470 H1454 0.931 . S
C1470 C1464 1.383 . S
C1470 C1469 1.379 . S
H1471 C1465 0.959 . S
H1472 C1465 0.961 . S
H1473 C1465 0.960 . S
H1474 C1466 0.930 . S
H1475 C1467 0.929 . S
H1476 C1484 0.929 . S
H1477 C1486 0.930 . S
H1478 C1488 0.930 . S
H1479 C1491 0.929 . S
H1480 C1494 0.930 . S
H1481 C1496 0.960 . S
H1482 C1496 0.960 . S
H1483 C1496 0.960 . S
C1484 H1476 0.929 . S
C1484 C1485 1.377 . S
C1484 C1486 1.384 . S
C1485 C1484 1.377 . S
C1485 C1491 1.390 . S
C1486 H1477 0.930 . S
C1486 C1484 1.384 . S
C1486 C1487 1.372 . S
C1487 C1486 1.372 . S
C1487 C1488 1.400 . S
C1487 C1492 1.490 . S
C1488 H1478 0.930 . S
C1488 C1487 1.400 . S
C1488 C1491 1.386 . S
H1489 C1505 0.930 . S
H1490 C1506 0.931 . S
C1491 H1479 0.929 . S
C1491 C1485 1.390 . S
C1491 C1488 1.386 . S
C1492 C1487 1.490 . S
C1492 C1494 1.395 . S
C1492 C1495 1.403 . S
H1493 C1499 0.930 . S
C1494 H1480 0.930 . S
C1494 C1492 1.395 . S
C1494 C1497 1.403 . S
C1495 C1492 1.403 . S
C1495 C1496 1.524 . S
C1495 C1499 1.400 . S
C1496 H1481 0.960 . S
C1496 H1482 0.960 . S
C1496 H1483 0.960 . S
C1496 C1495 1.524 . S
C1497 C1494 1.403 . S
C1497 C1498 1.392 . S
C1497 C1501 1.495 . S
C1498 C1497 1.392 . S
C1498 C1499 1.385 . S
C1498 C1500 1.478 . S
C1499 H1493 0.930 . S
C1499 C1495 1.400 . S
C1499 C1498 1.385 . S
C1500 C1498 1.478 . S
C1500 C1502 1.381 . S
C1500 C1506 1.383 . S
C1501 C1497 1.495 . S
C1501 H1507 0.959 . S
C1501 H1508 0.961 . S
C1501 H1509 0.960 . S
C1502 C1500 1.381 . S
C1502 C1503 1.394 . S
C1502 H1510 0.930 . S
C1503 C1502 1.394 . S
C1503 C1504 1.383 . S
C1503 H1511 0.929 . S
C1504 C1503 1.383 . S
C1504 C1505 1.377 . S
C1505 H1489 0.930 . S
C1505 C1504 1.377 . S
C1505 C1506 1.379 . S
C1506 H1490 0.931 . S
C1506 C1500 1.383 . S
C1506 C1505 1.379 . S
H1507 C1501 0.959 . S
H1508 C1501 0.961 . S
H1509 C1501 0.960 . S
H1510 C1502 0.930 . S
H1511 C1503 0.929 . S
H1512 C1520 0.929 . S
H1513 C1522 0.930 . S
H1514 C1524 0.930 . S
H1515 C1527 0.929 . S
H1516 C1530 0.930 . S
H1517 C1532 0.960 . S
H1518 C1532 0.960 . S
H1519 C1532 0.960 . S
C1520 H1512 0.929 . S
C1520 C1521 1.377 . S
C1520 C1522 1.384 . S
C1521 C1520 1.377 . S
C1521 C1527 1.390 . S
C1522 H1513 0.930 . S
C1522 C1520 1.384 . S
C1522 C1523 1.372 . S
C1523 C1522 1.372 . S
C1523 C1524 1.400 . S
C1523 C1528 1.490 . S
C1524 H1514 0.930 . S
C1524 C1523 1.400 . S
C1524 C1527 1.386 . S
H1525 C1541 0.930 . S
H1526 C1542 0.931 . S
C1527 H1515 0.929 . S
C1527 C1521 1.390 . S
C1527 C1524 1.386 . S
C1528 C1523 1.490 . S
C1528 C1530 1.395 . S
C1528 C1531 1.403 . S
H1529 C1535 0.930 . S
C1530 H1516 0.930 . S
C1530 C1528 1.395 . S
C1530 C1533 1.403 . S
C1531 C1528 1.403 . S
C1531 C1532 1.524 . S
C1531 C1535 1.400 . S
C1532 H1517 0.960 . S
C1532 H1518 0.960 . S
C1532 H1519 0.960 . S
C1532 C1531 1.524 . S
C1533 C1530 1.403 . S
C1533 C1534 1.392 . S
C1533 C1537 1.495 . S
C1534 C1533 1.392 . S
C1534 C1535 1.385 . S
C1534 C1536 1.478 . S
C1535 H1529 0.930 . S
C1535 C1531 1.400 . S
C1535 C1534 1.385 . S
C1536 C1534 1.478 . S
C1536 C1538 1.381 . S
C1536 C1542 1.383 . S
C1537 C1533 1.495 . S
C1537 H1543 0.959 . S
C1537 H1544 0.961 . S
C1537 H1545 0.960 . S
C1538 C1536 1.381 . S
C1538 C1539 1.394 . S
C1538 H1546 0.930 . S
C1539 C1538 1.394 . S
C1539 C1540 1.383 . S
C1539 H1547 0.929 . S
C1540 C1539 1.383 . S
C1540 C1541 1.377 . S
C1541 H1525 0.930 . S
C1541 C1540 1.377 . S
C1541 C1542 1.379 . S
C1542 H1526 0.931 . S
C1542 C1536 1.383 . S
C1542 C1541 1.379 . S
H1543 C1537 0.959 . S
H1544 C1537 0.961 . S
H1545 C1537 0.960 . S
H1546 C1538 0.930 . S
H1547 C1539 0.929 . S
H1548 C1556 0.929 . S
H1549 C1558 0.930 . S
H1550 C1560 0.930 . S
H1551 C1563 0.929 . S
H1552 C1566 0.930 . S
H1553 C1568 0.960 . S
H1554 C1568 0.960 . S
H1555 C1568 0.960 . S
C1556 H1548 0.929 . S
C1556 C1557 1.377 . S
C1556 C1558 1.384 . S
C1557 C1556 1.377 . S
C1557 C1563 1.390 . S
C1558 H1549 0.930 . S
C1558 C1556 1.384 . S
C1558 C1559 1.372 . S
C1559 C1558 1.372 . S
C1559 C1560 1.400 . S
C1559 C1564 1.490 . S
C1560 H1550 0.930 . S
C1560 C1559 1.400 . S
C1560 C1563 1.386 . S
H1561 C1577 0.930 . S
H1562 C1578 0.931 . S
C1563 H1551 0.929 . S
C1563 C1557 1.390 . S
C1563 C1560 1.386 . S
C1564 C1559 1.490 . S
C1564 C1566 1.395 . S
C1564 C1567 1.403 . S
H1565 C1571 0.930 . S
C1566 H1552 0.930 . S
C1566 C1564 1.395 . S
C1566 C1569 1.403 . S
C1567 C1564 1.403 . S
C1567 C1568 1.524 . S
C1567 C1571 1.400 . S
C1568 H1553 0.960 . S
C1568 H1554 0.960 . S
C1568 H1555 0.960 . S
C1568 C1567 1.524 . S
C1569 C1566 1.403 . S
C1569 C1570 1.392 . S
C1569 C1573 1.495 . S
C1570 C1569 1.392 . S
C1570 C1571 1.385 . S
C1570 C1572 1.478 . S
C1571 H1565 0.930 . S
C1571 C1567 1.400 . S
C1571 C1570 1.385 . S
C1572 C1570 1.478 . S
C1572 C1574 1.381 . S
C1572 C1578 1.383 . S
C1573 C1569 1.495 . S
C1573 H1579 0.959 . S
C1573 H1580 0.961 . S
C1573 H1581 0.960 . S
C1574 C1572 1.381 . S
C1574 C1575 1.394 . S
C1574 H1582 0.930 . S
C1575 C1574 1.394 . S
C1575 C1576 1.383 . S
C1575 H1583 0.929 . S
C1576 C1575 1.383 . S
C1576 C1577 1.377 . S
C1577 H1561 0.930 . S
C1577 C1576 1.377 . S
C1577 C1578 1.379 . S
C1578 H1562 0.931 . S
C1578 C1572 1.383 . S
C1578 C1577 1.379 . S
H1579 C1573 0.959 . S
H1580 C1573 0.961 . S
H1581 C1573 0.960 . S
H1582 C1574 0.930 . S
H1583 C1575 0.929 . S
H1584 C1592 0.929 . S
H1585 C1594 0.930 . S
H1586 C1596 0.930 . S
H1587 C1599 0.929 . S
H1588 C1602 0.930 . S
H1589 C1604 0.960 . S
H1590 C1604 0.960 . S
H1591 C1604 0.960 . S
C1592 H1584 0.929 . S
C1592 C1593 1.377 . S
C1592 C1594 1.384 . S
C1593 C1592 1.377 . S
C1593 C1599 1.390 . S
C1594 H1585 0.930 . S
C1594 C1592 1.384 . S
C1594 C1595 1.372 . S
C1595 C1594 1.372 . S
C1595 C1596 1.400 . S
C1595 C1600 1.490 . S
C1596 H1586 0.930 . S
C1596 C1595 1.400 . S
C1596 C1599 1.386 . S
H1597 C1613 0.930 . S
H1598 C1614 0.931 . S
C1599 H1587 0.929 . S
C1599 C1593 1.390 . S
C1599 C1596 1.386 . S
C1600 C1595 1.490 . S
C1600 C1602 1.395 . S
C1600 C1603 1.403 . S
H1601 C1607 0.930 . S
C1602 H1588 0.930 . S
C1602 C1600 1.395 . S
C1602 C1605 1.403 . S
C1603 C1600 1.403 . S
C1603 C1604 1.524 . S
C1603 C1607 1.400 . S
C1604 H1589 0.960 . S
C1604 H1590 0.960 . S
C1604 H1591 0.960 . S
C1604 C1603 1.524 . S
C1605 C1602 1.403 . S
C1605 C1606 1.392 . S
C1605 C1609 1.495 . S
C1606 C1605 1.392 . S
C1606 C1607 1.385 . S
C1606 C1608 1.478 . S
C1607 H1601 0.930 . S
C1607 C1603 1.400 . S
C1607 C1606 1.385 . S
C1608 C1606 1.478 . S
C1608 C1610 1.381 . S
C1608 C1614 1.383 . S
C1609 C1605 1.495 . S
C1609 H1615 0.959 . S
C1609 H1616 0.961 . S
C1609 H1617 0.960 . S
C1610 C1608 1.381 . S
C1610 C1611 1.394 . S
C1610 H1618 0.930 . S
C1611 C1610 1.394 . S
C1611 C1612 1.383 . S
C1611 H1619 0.929 . S
C1612 C1611 1.383 . S
C1612 C1613 1.377 . S
C1613 H1597 0.930 . S
C1613 C1612 1.377 . S
C1613 C1614 1.379 . S
C1614 H1598 0.931 . S
C1614 C1608 1.383 . S
C1614 C1613 1.379 . S
H1615 C1609 0.959 . S
H1616 C1609 0.961 . S
H1617 C1609 0.960 . S
H1618 C1610 0.930 . S
H1619 C1611 0.929 . S
H1620 C1628 0.929 . S
H1621 C1630 0.930 . S
H1622 C1632 0.930 . S
H1623 C1635 0.929 . S
H1624 C1638 0.930 . S
H1625 C1640 0.960 . S
H1626 C1640 0.960 . S
H1627 C1640 0.960 . S
C1628 H1620 0.929 . S
C1628 C1629 1.377 . S
C1628 C1630 1.384 . S
C1629 C1628 1.377 . S
C1629 C1635 1.390 . S
C1630 H1621 0.930 . S
C1630 C1628 1.384 . S
C1630 C1631 1.372 . S
C1631 C1630 1.372 . S
C1631 C1632 1.400 . S
C1631 C1636 1.490 . S
C1632 H1622 0.930 . S
C1632 C1631 1.400 . S
C1632 C1635 1.386 . S
H1633 C1649 0.930 . S
H1634 C1650 0.931 . S
C1635 H1623 0.929 . S
C1635 C1629 1.390 . S
C1635 C1632 1.386 . S
C1636 C1631 1.490 . S
C1636 C1638 1.395 . S
C1636 C1639 1.403 . S
H1637 C1643 0.930 . S
C1638 H1624 0.930 . S
C1638 C1636 1.395 . S
C1638 C1641 1.403 . S
C1639 C1636 1.403 . S
C1639 C1640 1.524 . S
C1639 C1643 1.400 . S
C1640 H1625 0.960 . S
C1640 H1626 0.960 . S
C1640 H1627 0.960 . S
C1640 C1639 1.524 . S
C1641 C1638 1.403 . S
C1641 C1642 1.392 . S
C1641 C1645 1.495 . S
C1642 C1641 1.392 . S
C1642 C1643 1.385 . S
C1642 C1644 1.478 . S
C1643 H1637 0.930 . S
C1643 C1639 1.400 . S
C1643 C1642 1.385 . S
C1644 C1642 1.478 . S
C1644 C1646 1.381 . S
C1644 C1650 1.383 . S
C1645 C1641 1.495 . S
C1645 H1651 0.959 . S
C1645 H1652 0.961 . S
C1645 H1653 0.960 . S
C1646 C1644 1.381 . S
C1646 C1647 1.394 . S
C1646 H1654 0.930 . S
C1647 C1646 1.394 . S
C1647 C1648 1.383 . S
C1647 H1655 0.929 . S
C1648 C1647 1.383 . S
C1648 C1649 1.377 . S
C1649 H1633 0.930 . S
C1649 C1648 1.377 . S
C1649 C1650 1.379 . S
C1650 H1634 0.931 . S
C1650 C1644 1.383 . S
C1650 C1649 1.379 . S
H1651 C1645 0.959 . S
H1652 C1645 0.961 . S
H1653 C1645 0.960 . S
H1654 C1646 0.930 . S
H1655 C1647 0.929 . S
H1656 C1664 0.929 . S
H1657 C1666 0.930 . S
H1658 C1668 0.930 . S
H1659 C1671 0.929 . S
H1660 C1674 0.930 . S
H1661 C1676 0.960 . S
H1662 C1676 0.960 . S
H1663 C1676 0.960 . S
C1664 H1656 0.929 . S
C1664 C1665 1.377 . S
C1664 C1666 1.384 . S
C1665 C1664 1.377 . S
C1665 C1671 1.390 . S
C1666 H1657 0.930 . S
C1666 C1664 1.384 . S
C1666 C1667 1.372 . S
C1667 C1666 1.372 . S
C1667 C1668 1.400 . S
C1667 C1672 1.490 . S
C1668 H1658 0.930 . S
C1668 C1667 1.400 . S
C1668 C1671 1.386 . S
H1669 C1685 0.930 . S
H1670 C1686 0.931 . S
C1671 H1659 0.929 . S
C1671 C1665 1.390 . S
C1671 C1668 1.386 . S
C1672 C1667 1.490 . S
C1672 C1674 1.395 . S
C1672 C1675 1.403 . S
H1673 C1679 0.930 . S
C1674 H1660 0.930 . S
C1674 C1672 1.395 . S
C1674 C1677 1.403 . S
C1675 C1672 1.403 . S
C1675 C1676 1.524 . S
C1675 C1679 1.400 . S
C1676 H1661 0.960 . S
C1676 H1662 0.960 . S
C1676 H1663 0.960 . S
C1676 C1675 1.524 . S
C1677 C1674 1.403 . S
C1677 C1678 1.392 . S
C1677 C1681 1.495 . S
C1678 C1677 1.392 . S
C1678 C1679 1.385 . S
C1678 C1680 1.478 . S
C1679 H1673 0.930 . S
C1679 C1675 1.400 . S
C1679 C1678 1.385 . S
C1680 C1678 1.478 . S
C1680 C1682 1.381 . S
C1680 C1686 1.383 . S
C1681 C1677 1.495 . S
C1681 H1687 0.959 . S
C1681 H1688 0.961 . S
C1681 H1689 0.960 . S
C1682 C1680 1.381 . S
C1682 C1683 1.394 . S
C1682 H1690 0.930 . S
C1683 C1682 1.394 . S
C1683 C1684 1.383 . S
C1683 H1691 0.929 . S
C1684 C1683 1.383 . S
C1684 C1685 1.377 . S
C1685 H1669 0.930 . S
C1685 C1684 1.377 . S
C1685 C1686 1.379 . S
C1686 H1670 0.931 . S
C1686 C1680 1.383 . S
C1686 C1685 1.379 . S
H1687 C1681 0.959 . S
H1688 C1681 0.961 . S
H1689 C1681 0.960 . S
H1690 C1682 0.930 . S
H1691 C1683 0.929 . S
H1692 C1700 0.929 . S
H1693 C1702 0.930 . S
H1694 C1704 0.930 . S
H1695 C1707 0.929 . S
H1696 C1710 0.930 . S
H1697 C1712 0.960 . S
H1698 C1712 0.960 . S
H1699 C1712 0.960 . S
C1700 H1692 0.929 . S
C1700 C1701 1.377 . S
C1700 C1702 1.384 . S
C1701 C1700 1.377 . S
C1701 C1707 1.390 . S
C1702 H1693 0.930 . S
C1702 C1700 1.384 . S
C1702 C1703 1.372 . S
C1703 C1702 1.372 . S
C1703 C1704 1.400 . S
C1703 C1708 1.490 . S
C1704 H1694 0.930 . S
C1704 C1703 1.400 . S
C1704 C1707 1.386 . S
H1705 C1721 0.930 . S
H1706 C1722 0.931 . S
C1707 H1695 0.929 . S
C1707 C1701 1.390 . S
C1707 C1704 1.386 . S
C1708 C1703 1.490 . S
C1708 C1710 1.395 . S
C1708 C1711 1.403 . S
H1709 C1715 0.930 . S
C1710 H1696 0.930 . S
C1710 C1708 1.395 . S
C1710 C1713 1.403 . S
C1711 C1708 1.403 . S
C1711 C1712 1.524 . S
C1711 C1715 1.400 . S
C1712 H1697 0.960 . S
C1712 H1698 0.960 . S
C1712 H1699 0.960 . S
C1712 C1711 1.524 . S
C1713 C1710 1.403 . S
C1713 C1714 1.392 . S
C1713 C1717 1.495 . S
C1714 C1713 1.392 . S
C1714 C1715 1.385 . S
C1714 C1716 1.478 . S
C1715 H1709 0.930 . S
C1715 C1711 1.400 . S
C1715 C1714 1.385 . S
C1716 C1714 1.478 . S
C1716 C1718 1.381 . S
C1716 C1722 1.383 . S
C1717 C1713 1.495 . S
C1717 H1723 0.959 . S
C1717 H1724 0.961 . S
C1717 H1725 0.960 . S
C1718 C1716 1.381 . S
C1718 C1719 1.394 . S
C1718 H1726 0.930 . S
C1719 C1718 1.394 . S
C1719 C1720 1.383 . S
C1719 H1727 0.929 . S
C1720 C1719 1.383 . S
C1720 C1721 1.377 . S
C1721 H1705 0.930 . S
C1721 C1720 1.377 . S
C1721 C1722 1.379 . S
C1722 H1706 0.931 . S
C1722 C1716 1.383 . S
C1722 C1721 1.379 . S
H1723 C1717 0.959 . S
H1724 C1717 0.961 . S
H1725 C1717 0.960 . S
H1726 C1718 0.930 . S
H1727 C1719 0.929 . S
H1728 C1736 0.929 . S
H1729 C1738 0.930 . S
H1730 C1740 0.930 . S
H1731 C1743 0.929 . S
H1732 C1746 0.930 . S
H1733 C1748 0.960 . S
H1734 C1748 0.960 . S
H1735 C1748 0.960 . S
C1736 H1728 0.929 . S
C1736 C1737 1.377 . S
C1736 C1738 1.384 . S
C1737 C1736 1.377 . S
C1737 C1743 1.390 . S
C1738 H1729 0.930 . S
C1738 C1736 1.384 . S
C1738 C1739 1.372 . S
C1739 C1738 1.372 . S
C1739 C1740 1.400 . S
C1739 C1744 1.490 . S
C1740 H1730 0.930 . S
C1740 C1739 1.400 . S
C1740 C1743 1.386 . S
H1741 C1757 0.930 . S
H1742 C1758 0.931 . S
C1743 H1731 0.929 . S
C1743 C1737 1.390 . S
C1743 C1740 1.386 . S
C1744 C1739 1.490 . S
C1744 C1746 1.395 . S
C1744 C1747 1.403 . S
H1745 C1751 0.930 . S
C1746 H1732 0.930 . S
C1746 C1744 1.395 . S
C1746 C1749 1.403 . S
C1747 C1744 1.403 . S
C1747 C1748 1.524 . S
C1747 C1751 1.400 . S
C1748 H1733 0.960 . S
C1748 H1734 0.960 . S
C1748 H1735 0.960 . S
C1748 C1747 1.524 . S
C1749 C1746 1.403 . S
C1749 C1750 1.392 . S
C1749 C1753 1.495 . S
C1750 C1749 1.392 . S
C1750 C1751 1.385 . S
C1750 C1752 1.478 . S
C1751 H1745 0.930 . S
C1751 C1747 1.400 . S
C1751 C1750 1.385 . S
C1752 C1750 1.478 . S
C1752 C1754 1.381 . S
C1752 C1758 1.383 . S
C1753 C1749 1.495 . S
C1753 H1759 0.959 . S
C1753 H1760 0.961 . S
C1753 H1761 0.960 . S
C1754 C1752 1.381 . S
C1754 C1755 1.394 . S
C1754 H1762 0.930 . S
C1755 C1754 1.394 . S
C1755 C1756 1.383 . S
C1755 H1763 0.929 . S
C1756 C1755 1.383 . S
C1756 C1757 1.377 . S
C1757 H1741 0.930 . S
C1757 C1756 1.377 . S
C1757 C1758 1.379 . S
C1758 H1742 0.931 . S
C1758 C1752 1.383 . S
C1758 C1757 1.379 . S
H1759 C1753 0.959 . S
H1760 C1753 0.961 . S
H1761 C1753 0.960 . S
H1762 C1754 0.930 . S
H1763 C1755 0.929 . S
H1764 C1772 0.929 . S
H1765 C1774 0.930 . S
H1766 C1776 0.930 . S
H1767 C1779 0.929 . S
H1768 C1782 0.930 . S
H1769 C1784 0.960 . S
H1770 C1784 0.960 . S
H1771 C1784 0.960 . S
C1772 H1764 0.929 . S
C1772 C1773 1.377 . S
C1772 C1774 1.384 . S
C1773 C1772 1.377 . S
C1773 C1779 1.390 . S
C1774 H1765 0.930 . S
C1774 C1772 1.384 . S
C1774 C1775 1.372 . S
C1775 C1774 1.372 . S
C1775 C1776 1.400 . S
C1775 C1780 1.490 . S
C1776 H1766 0.930 . S
C1776 C1775 1.400 . S
C1776 C1779 1.386 . S
H1777 C1793 0.930 . S
H1778 C1794 0.931 . S
C1779 H1767 0.929 . S
C1779 C1773 1.390 . S
C1779 C1776 1.386 . S
C1780 C1775 1.490 . S
C1780 C1782 1.395 . S
C1780 C1783 1.403 . S
H1781 C1787 0.930 . S
C1782 H1768 0.930 . S
C1782 C1780 1.395 . S
C1782 C1785 1.403 . S
C1783 C1780 1.403 . S
C1783 C1784 1.524 . S
C1783 C1787 1.400 . S
C1784 H1769 0.960 . S
C1784 H1770 0.960 . S
C1784 H1771 0.960 . S
C1784 C1783 1.524 . S
C1785 C1782 1.403 . S
C1785 C1786 1.392 . S
C1785 C1789 1.495 . S
C1786 C1785 1.392 . S
C1786 C1787 1.385 . S
C1786 C1788 1.478 . S
C1787 H1781 0.930 . S
C1787 C1783 1.400 . S
C1787 C1786 1.385 . S
C1788 C1786 1.478 . S
C1788 C1790 1.381 . S
C1788 C1794 1.383 . S
C1789 C1785 1.495 . S
C1789 H1795 0.959 . S
C1789 H1796 0.961 . S
C1789 H1797 0.960 . S
C1790 C1788 1.381 . S
C1790 C1791 1.394 . S
C1790 H1798 0.930 . S
C1791 C1790 1.394 . S
C1791 C1792 1.383 . S
C1791 H1799 0.929 . S
C1792 C1791 1.383 . S
C1792 C1793 1.377 . S
C1793 H1777 0.930 . S
C1793 C1792 1.377 . S
C1793 C1794 1.379 . S
C1794 H1778 0.931 . S
C1794 C1788 1.383 . S
C1794 C1793 1.379 . S
H1795 C1789 0.959 . S
H1796 C1789 0.961 . S
H1797 C1789 0.960 . S
H1798 C1790 0.930 . S
H1799 C1791 0.929 . S
H1800 C1808 0.929 . S
H1801 C1810 0.930 . S
H1802 C1812 0.930 . S
H1803 C1815 0.929 . S
H1804 C1818 0.930 . S
H1805 C1820 0.960 . S
H1806 C1820 0.960 . S
H1807 C1820 0.960 . S
C1808 H1800 0.929 . S
C1808 C1809 1.377 . S
C1808 C1810 1.384 . S
C1809 C1808 1.377 . S
C1809 C1815 1.390 . S
C1810 H1801 0.930 . S
C1810 C1808 1.384 . S
C1810 C1811 1.372 . S
C1811 C1810 1.372 . S
C1811 C1812 1.400 . S
C1811 C1816 1.490 . S
C1812 H1802 0.930 . S
C1812 C1811 1.400 . S
C1812 C1815 1.386 . S
H1813 C1829 0.930 . S
H1814 C1830 0.931 . S
C1815 H1803 0.929 . S
C1815 C1809 1.390 . S
C1815 C1812 1.386 . S
C1816 C1811 1.490 . S
C1816 C1818 1.395 . S
C1816 C1819 1.403 . S
H1817 C1823 0.930 . S
C1818 H1804 0.930 . S
C1818 C1816 1.395 . S
C1818 C1821 1.403 . S
C1819 C1816 1.403 . S
C1819 C1820 1.524 . S
C1819 C1823 1.400 . S
C1820 H1805 0.960 . S
C1820 H1806 0.960 . S
C1820 H1807 0.960 . S
C1820 C1819 1.524 . S
C1821 C1818 1.403 . S
C1821 C1822 1.392 . S
C1821 C1825 1.495 . S
C1822 C1821 1.392 . S
C1822 C1823 1.385 . S
C1822 C1824 1.478 . S
C1823 H1817 0.930 . S
C1823 C1819 1.400 . S
C1823 C1822 1.385 . S
C1824 C1822 1.478 . S
C1824 C1826 1.381 . S
C1824 C1830 1.383 . S
C1825 C1821 1.495 . S
C1825 H1831 0.959 . S
C1825 H1832 0.961 . S
C1825 H1833 0.960 . S
C1826 C1824 1.381 . S
C1826 C1827 1.394 . S
C1826 H1834 0.930 . S
C1827 C1826 1.394 . S
C1827 C1828 1.383 . S
C1827 H1835 0.929 . S
C1828 C1827 1.383 . S
C1828 C1829 1.377 . S
C1829 H1813 0.930 . S
C1829 C1828 1.377 . S
C1829 C1830 1.379 . S
C1830 H1814 0.931 . S
C1830 C1824 1.383 . S
C1830 C1829 1.379 . S
H1831 C1825 0.959 . S
H1832 C1825 0.961 . S
H1833 C1825 0.960 . S
H1834 C1826 0.930 . S
H1835 C1827 0.929 . S
H1836 C1844 0.929 . S
H1837 C1846 0.930 . S
H1838 C1848 0.930 . S
H1839 C1851 0.929 . S
H1840 C1854 0.930 . S
H1841 C1856 0.960 . S
H1842 C1856 0.960 . S
H1843 C1856 0.960 . S
C1844 H1836 0.929 . S
C1844 C1845 1.377 . S
C1844 C1846 1.384 . S
C1845 C1844 1.377 . S
C1845 C1851 1.390 . S
C1846 H1837 0.930 . S
C1846 C1844 1.384 . S
C1846 C1847 1.372 . S
C1847 C1846 1.372 . S
C1847 C1848 1.400 . S
C1847 C1852 1.490 . S
C1848 H1838 0.930 . S
C1848 C1847 1.400 . S
C1848 C1851 1.386 . S
H1849 C1865 0.930 . S
H1850 C1866 0.931 . S
C1851 H1839 0.929 . S
C1851 C1845 1.390 . S
C1851 C1848 1.386 . S
C1852 C1847 1.490 . S
C1852 C1854 1.395 . S
C1852 C1855 1.403 . S
H1853 C1859 0.930 . S
C1854 H1840 0.930 . S
C1854 C1852 1.395 . S
C1854 C1857 1.403 . S
C1855 C1852 1.403 . S
C1855 C1856 1.524 . S
C1855 C1859 1.400 . S
C1856 H1841 0.960 . S
C1856 H1842 0.960 . S
C1856 H1843 0.960 . S
C1856 C1855 1.524 . S
C1857 C1854 1.403 . S
C1857 C1858 1.392 . S
C1857 C1861 1.495 . S
C1858 C1857 1.392 . S
C1858 C1859 1.385 . S
C1858 C1860 1.478 . S
C1859 H1853 0.930 . S
C1859 C1855 1.400 . S
C1859 C1858 1.385 . S
C1860 C1858 1.478 . S
C1860 C1862 1.381 . S
C1860 C1866 1.383 . S
C1861 C1857 1.495 . S
C1861 H1867 0.959 . S
C1861 H1868 0.961 . S
C1861 H1869 0.960 . S
C1862 C1860 1.381 . S
C1862 C1863 1.394 . S
C1862 H1870 0.930 . S
C1863 C1862 1.394 . S
C1863 C1864 1.383 . S
C1863 H1871 0.929 . S
C1864 C1863 1.383 . S
C1864 C1865 1.377 . S
C1865 H1849 0.930 . S
C1865 C1864 1.377 . S
C1865 C1866 1.379 . S
C1866 H1850 0.931 . S
C1866 C1860 1.383 . S
C1866 C1865 1.379 . S
H1867 C1861 0.959 . S
H1868 C1861 0.961 . S
H1869 C1861 0.960 . S
H1870 C1862 0.930 . S
H1871 C1863 0.929 . S
H1872 C1880 0.929 . S
H1873 C1882 0.930 . S
H1874 C1884 0.930 . S
H1875 C1887 0.929 . S
H1876 C1890 0.930 . S
H1877 C1892 0.960 . S
H1878 C1892 0.960 . S
H1879 C1892 0.960 . S
C1880 H1872 0.929 . S
C1880 C1881 1.377 . S
C1880 C1882 1.384 . S
C1881 C1880 1.377 . S
C1881 C1887 1.390 . S
C1882 H1873 0.930 . S
C1882 C1880 1.384 . S
C1882 C1883 1.372 . S
C1883 C1882 1.372 . S
C1883 C1884 1.400 . S
C1883 C1888 1.490 . S
C1884 H1874 0.930 . S
C1884 C1883 1.400 . S
C1884 C1887 1.386 . S
H1885 C1901 0.930 . S
H1886 C1902 0.931 . S
C1887 H1875 0.929 . S
C1887 C1881 1.390 . S
C1887 C1884 1.386 . S
C1888 C1883 1.490 . S
C1888 C1890 1.395 . S
C1888 C1891 1.403 . S
H1889 C1895 0.930 . S
C1890 H1876 0.930 . S
C1890 C1888 1.395 . S
C1890 C1893 1.403 . S
C1891 C1888 1.403 . S
C1891 C1892 1.524 . S
C1891 C1895 1.400 . S
C1892 H1877 0.960 . S
C1892 H1878 0.960 . S
C1892 H1879 0.960 . S
C1892 C1891 1.524 . S
C1893 C1890 1.403 . S
C1893 C1894 1.392 . S
C1893 C1897 1.495 . S
C1894 C1893 1.392 . S
C1894 C1895 1.385 . S
C1894 C1896 1.478 . S
C1895 H1889 0.930 . S
C1895 C1891 1.400 . S
C1895 C1894 1.385 . S
C1896 C1894 1.478 . S
C1896 C1898 1.381 . S
C1896 C1902 1.383 . S
C1897 C1893 1.495 . S
C1897 H1903 0.959 . S
C1897 H1904 0.961 . S
C1897 H1905 0.960 . S
C1898 C1896 1.381 . S
C1898 C1899 1.394 . S
C1898 H1906 0.930 . S
C1899 C1898 1.394 . S
C1899 C1900 1.383 . S
C1899 H1907 0.929 . S
C1900 C1899 1.383 . S
C1900 C1901 1.377 . S
C1901 H1885 0.930 . S
C1901 C1900 1.377 . S
C1901 C1902 1.379 . S
C1902 H1886 0.931 . S
C1902 C1896 1.383 . S
C1902 C1901 1.379 . S
H1903 C1897 0.959 . S
H1904 C1897 0.961 . S
H1905 C1897 0.960 . S
H1906 C1898 0.930 . S
H1907 C1899 0.929 . S
H1908 C1916 0.929 . S
H1909 C1918 0.930 . S
H1910 C1920 0.930 . S
H1911 C1923 0.929 . S
H1912 C1926 0.930 . S
H1913 C1928 0.960 . S
H1914 C1928 0.960 . S
H1915 C1928 0.960 . S
C1916 H1908 0.929 . S
C1916 C1917 1.377 . S
C1916 C1918 1.384 . S
C1917 C1916 1.377 . S
C1917 C1923 1.390 . S
C1918 H1909 0.930 . S
C1918 C1916 1.384 . S
C1918 C1919 1.372 . S
C1919 C1918 1.372 . S
C1919 C1920 1.400 . S
C1919 C1924 1.490 . S
C1920 H1910 0.930 . S
C1920 C1919 1.400 . S
C1920 C1923 1.386 . S
H1921 C1937 0.930 . S
H1922 C1938 0.931 . S
C1923 H1911 0.929 . S
C1923 C1917 1.390 . S
C1923 C1920 1.386 . S
C1924 C1919 1.490 . S
C1924 C1926 1.395 . S
C1924 C1927 1.403 . S
H1925 C1931 0.930 . S
C1926 H1912 0.930 . S
C1926 C1924 1.395 . S
C1926 C1929 1.403 . S
C1927 C1924 1.403 . S
C1927 C1928 1.524 . S
C1927 C1931 1.400 . S
C1928 H1913 0.960 . S
C1928 H1914 0.960 . S
C1928 H1915 0.960 . S
C1928 C1927 1.524 . S
C1929 C1926 1.403 . S
C1929 C1930 1.392 . S
C1929 C1933 1.495 . S
C1930 C1929 1.392 . S
C1930 C1931 1.385 . S
C1930 C1932 1.478 . S
C1931 H1925 0.930 . S
C1931 C1927 1.400 . S
C1931 C1930 1.385 . S
C1932 C1930 1.478 . S
C1932 C1934 1.381 . S
C1932 C1938 1.383 . S
C1933 C1929 1.495 . S
C1933 H1939 0.959 . S
C1933 H1940 0.961 . S
C1933 H1941 0.960 . S
C1934 C1932 1.381 . S
C1934 C1935 1.394 . S
C1934 H1942 0.930 . S
C1935 C1934 1.394 . S
C1935 C1936 1.383 . S
C1935 H1943 0.929 . S
C1936 C1935 1.383 . S
C1936 C1937 1.377 . S
C1937 H1921 0.930 . S
C1937 C1936 1.377 . S
C1937 C1938 1.379 . S
C1938 H1922 0.931 . S
C1938 C1932 1.383 . S
C1938 C1937 1.379 . S
H1939 C1933 0.959 . S
H1940 C1933 0.961 . S
H1941 C1933 0.960 . S
H1942 C1934 0.930 . S
H1943 C1935 0.929 . S
H1944 C1952 0.929 . S
H1945 C1954 0.930 . S
H1946 C1956 0.930 . S
H1947 C1959 0.929 . S
H1948 C1962 0.930 . S
H1949 C1964 0.960 . S
H1950 C1964 0.960 . S
H1951 C1964 0.960 . S
C1952 H1944 0.929 . S
C1952 C1953 1.377 . S
C1952 C1954 1.384 . S
C1953 C1952 1.377 . S
C1953 C1959 1.390 . S
C1954 H1945 0.930 . S
C1954 C1952 1.384 . S
C1954 C1955 1.372 . S
C1955 C1954 1.372 . S
C1955 C1956 1.400 . S
C1955 C1960 1.490 . S
C1956 H1946 0.930 . S
C1956 C1955 1.400 . S
C1956 C1959 1.386 . S
H1957 C1973 0.930 . S
H1958 C1974 0.931 . S
C1959 H1947 0.929 . S
C1959 C1953 1.390 . S
C1959 C1956 1.386 . S
C1960 C1955 1.490 . S
C1960 C1962 1.395 . S
C1960 C1963 1.403 . S
H1961 C1967 0.930 . S
C1962 H1948 0.930 . S
C1962 C1960 1.395 . S
C1962 C1965 1.403 . S
C1963 C1960 1.403 . S
C1963 C1964 1.524 . S
C1963 C1967 1.400 . S
C1964 H1949 0.960 . S
C1964 H1950 0.960 . S
C1964 H1951 0.960 . S
C1964 C1963 1.524 . S
C1965 C1962 1.403 . S
C1965 C1966 1.392 . S
C1965 C1969 1.495 . S
C1966 C1965 1.392 . S
C1966 C1967 1.385 . S
C1966 C1968 1.478 . S
C1967 H1961 0.930 . S
C1967 C1963 1.400 . S
C1967 C1966 1.385 . S
C1968 C1966 1.478 . S
C1968 C1970 1.381 . S
C1968 C1974 1.383 . S
C1969 C1965 1.495 . S
C1969 H1975 0.959 . S
C1969 H1976 0.961 . S
C1969 H1977 0.960 . S
C1970 C1968 1.381 . S
C1970 C1971 1.394 . S
C1970 H1978 0.930 . S
C1971 C1970 1.394 . S
C1971 C1972 1.383 . S
C1971 H1979 0.929 . S
C1972 C1971 1.383 . S
C1972 C1973 1.377 . S
C1973 H1957 0.930 . S
C1973 C1972 1.377 . S
C1973 C1974 1.379 . S
C1974 H1958 0.931 . S
C1974 C1968 1.383 . S
C1974 C1973 1.379 . S
H1975 C1969 0.959 . S
H1976 C1969 0.961 . S
H1977 C1969 0.960 . S
H1978 C1970 0.930 . S
H1979 C1971 0.929 . S
H1980 C1988 0.929 . S
H1981 C1990 0.930 . S
H1982 C1992 0.930 . S
H1983 C1995 0.929 . S
H1984 C1998 0.930 . S
H1985 C2000 0.960 . S
H1986 C2000 0.960 . S
H1987 C2000 0.960 . S
C1988 H1980 0.929 . S
C1988 C1989 1.377 . S
C1988 C1990 1.384 . S
C1989 C1988 1.377 . S
C1989 C1995 1.390 . S
C1990 H1981 0.930 . S
C1990 C1988 1.384 . S
C1990 C1991 1.372 . S
C1991 C1990 1.372 . S
C1991 C1992 1.400 . S
C1991 C1996 1.490 . S
C1992 H1982 0.930 . S
C1992 C1991 1.400 . S
C1992 C1995 1.386 . S
H1993 C2009 0.930 . S
H1994 C2010 0.931 . S
C1995 H1983 0.929 . S
C1995 C1989 1.390 . S
C1995 C1992 1.386 . S
C1996 C1991 1.490 . S
C1996 C1998 1.395 . S
C1996 C1999 1.403 . S
H1997 C2003 0.930 . S
C1998 H1984 0.930 . S
C1998 C1996 1.395 . S
C1998 C2001 1.403 . S
C1999 C1996 1.403 . S
C1999 C2000 1.524 . S
C1999 C2003 1.400 . S
C2000 H1985 0.960 . S
C2000 H1986 0.960 . S
C2000 H1987 0.960 . S
C2000 C1999 1.524 . S
C2001 C1998 1.403 . S
C2001 C2002 1.392 . S
C2001 C2005 1.495 . S
C2002 C2001 1.392 . S
C2002 C2003 1.385 . S
C2002 C2004 1.478 . S
C2003 H1997 0.930 . S
C2003 C1999 1.400 . S
C2003 C2002 1.385 . S
C2004 C2002 1.478 . S
C2004 C2006 1.381 . S
C2004 C2010 1.383 . S
C2005 C2001 1.495 . S
C2005 H2011 0.959 . S
C2005 H2012 0.961 . S
C2005 H2013 0.960 . S
C2006 C2004 1.381 . S
C2006 C2007 1.394 . S
C2006 H2014 0.930 . S
C2007 C2006 1.394 . S
C2007 C2008 1.383 . S
C2007 H2015 0.929 . S
C2008 C2007 1.383 . S
C2008 C2009 1.377 . S
C2009 H1993 0.930 . S
C2009 C2008 1.377 . S
C2009 C2010 1.379 . S
C2010 H1994 0.931 . S
C2010 C2004 1.383 . S
C2010 C2009 1.379 . S
H2011 C2005 0.959 . S
H2012 C2005 0.961 . S
H2013 C2005 0.960 . S
H2014 C2006 0.930 . S
H2015 C2007 0.929 . S
H2016 C2024 0.929 . S
H2017 C2026 0.930 . S
H2018 C2028 0.930 . S
H2019 C2031 0.929 . S
H2020 C2034 0.930 . S
H2021 C2036 0.960 . S
H2022 C2036 0.960 . S
H2023 C2036 0.960 . S
C2024 H2016 0.929 . S
C2024 C2025 1.377 . S
C2024 C2026 1.384 . S
C2025 C2024 1.377 . S
C2025 C2031 1.390 . S
C2026 H2017 0.930 . S
C2026 C2024 1.384 . S
C2026 C2027 1.372 . S
C2027 C2026 1.372 . S
C2027 C2028 1.400 . S
C2027 C2032 1.490 . S
C2028 H2018 0.930 . S
C2028 C2027 1.400 . S
C2028 C2031 1.386 . S
H2029 C2045 0.930 . S
H2030 C2046 0.931 . S
C2031 H2019 0.929 . S
C2031 C2025 1.390 . S
C2031 C2028 1.386 . S
C2032 C2027 1.490 . S
C2032 C2034 1.395 . S
C2032 C2035 1.403 . S
H2033 C2039 0.930 . S
C2034 H2020 0.930 . S
C2034 C2032 1.395 . S
C2034 C2037 1.403 . S
C2035 C2032 1.403 . S
C2035 C2036 1.524 . S
C2035 C2039 1.400 . S
C2036 H2021 0.960 . S
C2036 H2022 0.960 . S
C2036 H2023 0.960 . S
C2036 C2035 1.524 . S
C2037 C2034 1.403 . S
C2037 C2038 1.392 . S
C2037 C2041 1.495 . S
C2038 C2037 1.392 . S
C2038 C2039 1.385 . S
C2038 C2040 1.478 . S
C2039 H2033 0.930 . S
C2039 C2035 1.400 . S
C2039 C2038 1.385 . S
C2040 C2038 1.478 . S
C2040 C2042 1.381 . S
C2040 C2046 1.383 . S
C2041 C2037 1.495 . S
C2041 H2047 0.959 . S
C2041 H2048 0.961 . S
C2041 H2049 0.960 . S
C2042 C2040 1.381 . S
C2042 C2043 1.394 . S
C2042 H2050 0.930 . S
C2043 C2042 1.394 . S
C2043 C2044 1.383 . S
C2043 H2051 0.929 . S
C2044 C2043 1.383 . S
C2044 C2045 1.377 . S
C2045 H2029 0.930 . S
C2045 C2044 1.377 . S
C2045 C2046 1.379 . S
C2046 H2030 0.931 . S
C2046 C2040 1.383 . S
C2046 C2045 1.379 . S
H2047 C2041 0.959 . S
H2048 C2041 0.961 . S
H2049 C2041 0.960 . S
H2050 C2042 0.930 . S
H2051 C2043 0.929 . S
H2052 C2060 0.929 . S
H2053 C2062 0.930 . S
H2054 C2064 0.930 . S
H2055 C2067 0.929 . S
H2056 C2070 0.930 . S
H2057 C2072 0.960 . S
H2058 C2072 0.960 . S
H2059 C2072 0.960 . S
C2060 H2052 0.929 . S
C2060 C2061 1.377 . S
C2060 C2062 1.384 . S
C2061 C2060 1.377 . S
C2061 C2067 1.390 . S
C2062 H2053 0.930 . S
C2062 C2060 1.384 . S
C2062 C2063 1.372 . S
C2063 C2062 1.372 . S
C2063 C2064 1.400 . S
C2063 C2068 1.490 . S
C2064 H2054 0.930 . S
C2064 C2063 1.400 . S
C2064 C2067 1.386 . S
H2065 C2081 0.930 . S
H2066 C2082 0.931 . S
C2067 H2055 0.929 . S
C2067 C2061 1.390 . S
C2067 C2064 1.386 . S
C2068 C2063 1.490 . S
C2068 C2070 1.395 . S
C2068 C2071 1.403 . S
H2069 C2075 0.930 . S
C2070 H2056 0.930 . S
C2070 C2068 1.395 . S
C2070 C2073 1.403 . S
C2071 C2068 1.403 . S
C2071 C2072 1.524 . S
C2071 C2075 1.400 . S
C2072 H2057 0.960 . S
C2072 H2058 0.960 . S
C2072 H2059 0.960 . S
C2072 C2071 1.524 . S
C2073 C2070 1.403 . S
C2073 C2074 1.392 . S
C2073 C2077 1.495 . S
C2074 C2073 1.392 . S
C2074 C2075 1.385 . S
C2074 C2076 1.478 . S
C2075 H2069 0.930 . S
C2075 C2071 1.400 . S
C2075 C2074 1.385 . S
C2076 C2074 1.478 . S
C2076 C2078 1.381 . S
C2076 C2082 1.383 . S
C2077 C2073 1.495 . S
C2077 H2083 0.959 . S
C2077 H2084 0.961 . S
C2077 H2085 0.960 . S
C2078 C2076 1.381 . S
C2078 C2079 1.394 . S
C2078 H2086 0.930 . S
C2079 C2078 1.394 . S
C2079 C2080 1.383 . S
C2079 H2087 0.929 . S
C2080 C2079 1.383 . S
C2080 C2081 1.377 . S
C2081 H2065 0.930 . S
C2081 C2080 1.377 . S
C2081 C2082 1.379 . S
C2082 H2066 0.931 . S
C2082 C2076 1.383 . S
C2082 C2081 1.379 . S
H2083 C2077 0.959 . S
H2084 C2077 0.961 . S
H2085 C2077 0.960 . S
H2086 C2078 0.930 . S
H2087 C2079 0.929 . S
H2088 C2096 0.929 . S
H2089 C2098 0.930 . S
H2090 C2100 0.930 . S
H2091 C2103 0.929 . S
H2092 C2106 0.930 . S
H2093 C2108 0.960 . S
H2094 C2108 0.960 1_556 S
H2095 C2108 0.960 . S
C2096 H2088 0.929 . S
C2096 C2097 1.377 . S
C2096 C2098 1.384 . S
C2097 C2096 1.377 . S
C2097 C2103 1.390 . S
C2098 H2089 0.930 . S
C2098 C2096 1.384 . S
C2098 C2099 1.372 . S
C2099 C2098 1.372 . S
C2099 C2100 1.400 . S
C2099 C2104 1.490 . S
C2100 H2090 0.930 . S
C2100 C2099 1.400 . S
C2100 C2103 1.386 . S
H2101 C2117 0.930 . S
H2102 C2118 0.931 . S
C2103 H2091 0.929 . S
C2103 C2097 1.390 . S
C2103 C2100 1.386 . S
C2104 C2099 1.490 . S
C2104 C2106 1.395 . S
C2104 C2107 1.410 . S
H2105 C2111 0.930 . S
C2106 H2092 0.930 . S
C2106 C2104 1.395 . S
C2106 C2109 1.403 . S
C2107 C2104 1.410 . S
C2107 C2108 1.523 1_556 S
C2107 C2111 1.393 1_556 S
C2108 H2093 0.960 . S
C2108 H2094 0.960 1_554 S
C2108 H2095 0.960 . S
C2108 C2107 1.523 1_554 S
C2109 C2106 1.403 . S
C2109 C2110 1.392 1_556 S
C2109 C2113 1.495 . S
C2110 C2109 1.392 1_554 S
C2110 C2111 1.385 . S
C2110 C2112 1.478 . S
C2111 H2105 0.930 . S
C2111 C2107 1.393 1_554 S
C2111 C2110 1.385 . S
C2112 C2110 1.478 . S
C2112 C2114 1.381 . S
C2112 C2118 1.383 . S
C2113 C2109 1.495 . S
C2113 H2119 0.959 . S
C2113 H2120 0.961 1_556 S
C2113 H2121 0.960 . S
C2114 C2112 1.381 . S
C2114 C2115 1.394 . S
C2114 H2122 0.930 . S
C2115 C2114 1.394 . S
C2115 C2116 1.383 . S
C2115 H2123 0.929 . S
C2116 C2115 1.383 . S
C2116 C2117 1.377 . S
C2117 H2101 0.930 . S
C2117 C2116 1.377 . S
C2117 C2118 1.379 . S
C2118 H2102 0.931 . S
C2118 C2112 1.383 . S
C2118 C2117 1.379 . S
H2119 C2113 0.959 . S
H2120 C2113 0.961 1_554 S
H2121 C2113 0.960 . S
H2122 C2114 0.930 . S
H2123 C2115 0.929 . S
H2124 C2132 0.929 . S
H2125 C2134 0.930 . S
H2126 C2136 0.930 . S
H2127 C2139 0.929 . S
H2128 C2142 0.930 . S
H2129 C2144 0.960 . S
H2130 C2144 0.960 . S
H2131 C2144 0.960 . S
C2132 H2124 0.929 . S
C2132 C2133 1.377 . S
C2132 C2134 1.384 . S
C2133 C2132 1.377 . S
C2133 C2139 1.390 . S
C2134 H2125 0.930 . S
C2134 C2132 1.384 . S
C2134 C2135 1.372 . S
C2135 C2134 1.372 . S
C2135 C2136 1.400 . S
C2135 C2140 1.490 . S
C2136 H2126 0.930 . S
C2136 C2135 1.400 . S
C2136 C2139 1.386 . S
H2137 C2153 0.930 . S
H2138 C2154 0.931 . S
C2139 H2127 0.929 . S
C2139 C2133 1.390 . S
C2139 C2136 1.386 . S
C2140 C2135 1.490 . S
C2140 C2142 1.395 1_455 S
C2140 C2143 1.403 . S
H2141 C2147 0.930 . S
C2142 H2128 0.930 . S
C2142 C2140 1.395 1_655 S
C2142 C2145 1.403 . S
C2143 C2140 1.403 . S
C2143 C2144 1.524 . S
C2143 C2147 1.400 . S
C2144 H2129 0.960 . S
C2144 H2130 0.960 . S
C2144 H2131 0.960 . S
C2144 C2143 1.524 . S
C2145 C2142 1.403 . S
C2145 C2146 1.392 . S
C2145 C2149 1.495 . S
C2146 C2145 1.392 . S
C2146 C2147 1.385 1_655 S
C2146 C2148 1.478 . S
C2147 H2141 0.930 . S
C2147 C2143 1.400 . S
C2147 C2146 1.385 1_455 S
C2148 C2146 1.478 . S
C2148 C2150 1.381 . S
C2148 C2154 1.383 . S
C2149 C2145 1.495 . S
C2149 H2155 0.959 . S
C2149 H2156 0.961 . S
C2149 H2157 0.960 . S
C2150 C2148 1.381 . S
C2150 C2151 1.394 . S
C2150 H2158 0.930 . S
C2151 C2150 1.394 . S
C2151 C2152 1.383 . S
C2151 H2159 0.929 . S
C2152 C2151 1.383 . S
C2152 C2153 1.377 . S
C2153 H2137 0.930 . S
C2153 C2152 1.377 . S
C2153 C2154 1.379 . S
C2154 H2138 0.931 . S
C2154 C2148 1.383 . S
C2154 C2153 1.379 . S
H2155 C2149 0.959 . S
H2156 C2149 0.961 . S
H2157 C2149 0.960 . S
H2158 C2150 0.930 . S
H2159 C2151 0.929 . S
H2160 C2168 0.929 . S
H2161 C2170 0.930 . S
H2162 C2172 0.930 . S
H2163 C2175 0.929 . S
H2164 C2178 0.930 . S
H2165 C2180 0.960 . S
H2166 C2180 0.960 . S
H2167 C2180 0.960 . S
C2168 H2160 0.929 . S
C2168 C2169 1.377 . S
C2168 C2170 1.384 . S
C2169 C2168 1.377 . S
C2169 C2175 1.390 . S
C2170 H2161 0.930 . S
C2170 C2168 1.384 . S
C2170 C2171 1.372 . S
C2171 C2170 1.372 . S
C2171 C2172 1.400 . S
C2171 C2176 1.490 . S
C2172 H2162 0.930 . S
C2172 C2171 1.400 . S
C2172 C2175 1.386 . S
H2173 C2189 0.930 . S
H2174 C2190 0.931 . S
C2175 H2163 0.929 . S
C2175 C2169 1.390 . S
C2175 C2172 1.386 . S
C2176 C2171 1.490 . S
C2176 C2178 1.395 1_565 S
C2176 C2179 1.403 1_554 S
H2177 C2183 0.930 . S
C2178 H2164 0.930 . S
C2178 C2176 1.395 1_545 S
C2178 C2181 1.403 . S
C2179 C2176 1.403 1_556 S
C2179 C2180 1.524 . S
C2179 C2183 1.400 . S
C2180 H2165 0.960 . S
C2180 H2166 0.960 . S
C2180 H2167 0.960 . S
C2180 C2179 1.524 . S
C2181 C2178 1.403 . S
C2181 C2182 1.392 1_554 S
C2181 C2185 1.495 . S
C2182 C2181 1.392 1_556 S
C2182 C2183 1.385 1_545 S
C2182 C2184 1.478 . S
C2183 H2177 0.930 . S
C2183 C2179 1.400 . S
C2183 C2182 1.385 1_565 S
C2184 C2182 1.478 . S
C2184 C2186 1.381 . S
C2184 C2190 1.383 . S
C2185 C2181 1.495 . S
C2185 H2191 0.959 . S
C2185 H2192 0.961 . S
C2185 H2193 0.960 . S
C2186 C2184 1.381 . S
C2186 C2187 1.394 . S
C2186 H2194 0.930 . S
C2187 C2186 1.394 . S
C2187 C2188 1.383 . S
C2187 H2195 0.929 . S
C2188 C2187 1.383 . S
C2188 C2189 1.377 . S
C2189 H2173 0.930 . S
C2189 C2188 1.377 . S
C2189 C2190 1.379 . S
C2190 H2174 0.931 . S
C2190 C2184 1.383 . S
C2190 C2189 1.379 . S
H2191 C2185 0.959 . S
H2192 C2185 0.961 . S
H2193 C2185 0.960 . S
H2194 C2186 0.930 . S
H2195 C2187 0.929 . S
H2196 C2204 0.929 . S
H2197 C2206 0.930 . S
H2198 C2208 0.930 . S
H2199 C2211 0.929 . S
H2200 C2214 0.930 . S
H2201 C2216 0.960 . S
H2202 C2216 0.960 . S
H2203 C2216 0.960 . S
C2204 H2196 0.929 . S
C2204 C2205 1.377 . S
C2204 C2206 1.384 . S
C2205 C2204 1.377 . S
C2205 C2211 1.390 . S
C2206 H2197 0.930 . S
C2206 C2204 1.384 . S
C2206 C2207 1.372 . S
C2207 C2206 1.372 . S
C2207 C2208 1.400 . S
C2207 C2212 1.490 . S
C2208 H2198 0.930 . S
C2208 C2207 1.400 . S
C2208 C2211 1.386 . S
H2209 C2225 0.930 . S
H2210 C2226 0.931 . S
C2211 H2199 0.929 . S
C2211 C2205 1.390 . S
C2211 C2208 1.386 . S
C2212 C2207 1.490 . S
C2212 C2214 1.395 . S
C2212 C2215 1.403 . S
H2213 C2219 0.930 . S
C2214 H2200 0.930 . S
C2214 C2212 1.395 . S
C2214 C2217 1.403 . S
C2215 C2212 1.403 . S
C2215 C2216 1.524 . S
C2215 C2219 1.400 . S
C2216 H2201 0.960 . S
C2216 H2202 0.960 . S
C2216 H2203 0.960 . S
C2216 C2215 1.524 . S
C2217 C2214 1.403 . S
C2217 C2218 1.392 . S
C2217 C2221 1.495 . S
C2218 C2217 1.392 . S
C2218 C2219 1.385 . S
C2218 C2220 1.478 . S
C2219 H2213 0.930 . S
C2219 C2215 1.400 . S
C2219 C2218 1.385 . S
C2220 C2218 1.478 . S
C2220 C2222 1.381 . S
C2220 C2226 1.383 . S
C2221 C2217 1.495 . S
C2221 H2227 0.959 . S
C2221 H2228 0.961 . S
C2221 H2229 0.960 . S
C2222 C2220 1.381 . S
C2222 C2223 1.394 . S
C2222 H2230 0.930 . S
C2223 C2222 1.394 . S
C2223 C2224 1.383 . S
C2223 H2231 0.929 . S
C2224 C2223 1.383 . S
C2224 C2225 1.377 . S
C2225 H2209 0.930 . S
C2225 C2224 1.377 . S
C2225 C2226 1.379 . S
C2226 H2210 0.931 . S
C2226 C2220 1.383 . S
C2226 C2225 1.379 . S
H2227 C2221 0.959 . S
H2228 C2221 0.961 . S
H2229 C2221 0.960 . S
H2230 C2222 0.930 . S
H2231 C2223 0.929 . S
H2232 C2240 0.929 . S
H2233 C2242 0.930 . S
H2234 C2244 0.930 . S
H2235 C2247 0.929 . S
H2236 C2250 0.930 . S
H2237 C2252 0.960 . S
H2238 C2252 0.960 . S
H2239 C2252 0.960 . S
C2240 H2232 0.929 . S
C2240 C2241 1.377 . S
C2240 C2242 1.384 . S
C2241 C2240 1.377 . S
C2241 C2247 1.390 . S
C2242 H2233 0.930 . S
C2242 C2240 1.384 . S
C2242 C2243 1.372 . S
C2243 C2242 1.372 . S
C2243 C2244 1.400 . S
C2243 C2248 1.490 . S
C2244 H2234 0.930 . S
C2244 C2243 1.400 . S
C2244 C2247 1.386 . S
H2245 C2261 0.930 . S
H2246 C2262 0.931 . S
C2247 H2235 0.929 . S
C2247 C2241 1.390 . S
C2247 C2244 1.386 . S
C2248 C2243 1.490 . S
C2248 C2250 1.395 1_556 S
C2248 C2251 1.403 1_655 S
H2249 C2255 0.930 . S
C2250 H2236 0.930 . S
C2250 C2248 1.395 1_554 S
C2250 C2253 1.403 . S
C2251 C2248 1.403 1_455 S
C2251 C2252 1.524 . S
C2251 C2255 1.400 . S
C2252 H2237 0.960 . S
C2252 H2238 0.960 . S
C2252 H2239 0.960 . S
C2252 C2251 1.524 . S
C2253 C2250 1.403 . S
C2253 C2254 1.392 1_655 S
C2253 C2257 1.495 . S
C2254 C2253 1.392 1_455 S
C2254 C2255 1.385 1_554 S
C2254 C2256 1.478 . S
C2255 H2249 0.930 . S
C2255 C2251 1.400 . S
C2255 C2254 1.385 1_556 S
C2256 C2254 1.478 . S
C2256 C2258 1.381 . S
C2256 C2262 1.383 . S
C2257 C2253 1.495 . S
C2257 H2263 0.959 . S
C2257 H2264 0.961 . S
C2257 H2265 0.960 . S
C2258 C2256 1.381 . S
C2258 C2259 1.394 . S
C2258 H2266 0.930 . S
C2259 C2258 1.394 . S
C2259 C2260 1.383 . S
C2259 H2267 0.929 . S
C2260 C2259 1.383 . S
C2260 C2261 1.377 . S
C2261 H2245 0.930 . S
C2261 C2260 1.377 . S
C2261 C2262 1.379 . S
C2262 H2246 0.931 . S
C2262 C2256 1.383 . S
C2262 C2261 1.379 . S
H2263 C2257 0.959 . S
H2264 C2257 0.961 . S
H2265 C2257 0.960 . S
H2266 C2258 0.930 . S
H2267 C2259 0.929 . S
H2268 C2276 0.929 . S
H2269 C2278 0.930 . S
H2270 C2280 0.930 . S
H2271 C2283 0.929 . S
H2272 C2286 0.930 . S
H2273 C2288 0.960 . S
H2274 C2288 0.960 . S
H2275 C2288 0.960 . S
C2276 H2268 0.929 . S
C2276 C2277 1.377 . S
C2276 C2278 1.384 . S
C2277 C2276 1.377 . S
C2277 C2283 1.390 . S
C2278 H2269 0.930 . S
C2278 C2276 1.384 . S
C2278 C2279 1.372 . S
C2279 C2278 1.372 . S
C2279 C2280 1.400 . S
C2279 C2284 1.490 . S
C2280 H2270 0.930 . S
C2280 C2279 1.400 . S
C2280 C2283 1.386 . S
H2281 C2297 0.930 . S
H2282 C2298 0.931 . S
C2283 H2271 0.929 . S
C2283 C2277 1.390 . S
C2283 C2280 1.386 . S
C2284 C2279 1.490 . S
C2284 C2286 1.395 1_565 S
C2284 C2287 1.403 . S
H2285 C2291 0.944 . S
C2286 H2272 0.930 . S
C2286 C2284 1.395 1_545 S
C2286 C2289 1.403 . S
C2287 C2284 1.403 . S
C2287 C2288 1.524 . S
C2287 C2291 1.427 . S
C2288 H2273 0.960 . S
C2288 H2274 0.960 . S
C2288 H2275 0.960 . S
C2288 C2287 1.524 . S
C2289 C2286 1.403 . S
C2289 C2290 1.392 . S
C2289 C2293 1.495 . S
C2290 C2289 1.392 . S
C2290 C2291 1.346 1_545 S
C2290 C2292 1.478 . S
C2291 H2285 0.944 . S
C2291 C2287 1.427 . S
C2291 C2290 1.346 1_565 S
C2292 C2290 1.478 . S
C2292 C2294 1.381 . S
C2292 C2298 1.383 . S
C2293 C2289 1.495 . S
C2293 H2299 0.959 . S
C2293 H2300 0.961 . S
C2293 H2301 0.960 . S
C2294 C2292 1.381 . S
C2294 C2295 1.394 . S
C2294 H2302 0.930 . S
C2295 C2294 1.394 . S
C2295 C2296 1.383 . S
C2295 H2303 0.929 . S
C2296 C2295 1.383 . S
C2296 C2297 1.377 . S
C2297 H2281 0.930 . S
C2297 C2296 1.377 . S
C2297 C2298 1.379 . S
C2298 H2282 0.931 . S
C2298 C2292 1.383 . S
C2298 C2297 1.379 . S
H2299 C2293 0.959 . S
H2300 C2293 0.961 . S
H2301 C2293 0.960 . S
H2302 C2294 0.930 . S
H2303 C2295 0.929 . S
C1017 C403 1.330 . S
C1036 C58 1.219 . S
C1053 C487 1.331 . S
C1072 C142 1.230 . S
C1089 C226 1.185 . S
C1108 C67 1.321 . S
C1125 C310 1.171 . S
C1144 C151 1.318 . S
C1161 C394 1.170 . S
C1180 C235 1.332 . S
C1197 C319 1.330 . S
C1216 C478 1.124 . S
C1233 C739 1.329 . S
C1252 C562 1.135 . S
C1269 C646 1.175 . S
C1288 C823 1.337 . S
C1305 C907 1.329 . S
C1324 C730 1.207 . S
C1341 C814 1.190 . S
C1360 C991 1.333 . S
C1377 C898 1.184 . S
C1396 C571 1.320 . S
C1413 C655 1.328 . S
C1432 C982 1.159 . S
C1449 C392 1.418 . S
C1468 C69 1.249 . S
C1485 C153 1.268 . S
C1504 C476 1.403 . S
C1521 C237 1.279 . S
C1540 C56 1.408 . S
C1557 C321 1.269 . S
C1576 C140 1.403 . S
C1593 C224 1.423 . S
C1612 C405 1.255 . S
C1629 C308 1.423 . S
C1648 C489 1.265 . S
C1665 C728 1.419 . S
C1684 C573 1.230 . S
C1701 C657 1.271 . S
C1720 C812 1.430 . S
C1737 C741 1.279 . S
C1756 C896 1.411 . S
C1773 C980 1.418 . S
C1792 C825 1.314 . S
C1809 C909 1.259 . S
C1828 C560 1.421 . S
C1845 C644 1.418 . S
C1864 C993 1.251 . S
C1881 C914 1.827 . S
C1900 C74 1.851 . S
C1917 C158 1.835 . S
C1936 C998 1.813 . S
C1953 C242 1.831 . S
C1972 C578 1.834 . S
C1989 C326 1.836 . S
C2008 C662 1.814 . S
C2025 C410 1.831 . S
C2044 C746 1.831 . S
C2061 C830 1.832 . S
C2080 C494 1.827 . S
C2097 C819 1.925 . S
C2116 C63 1.935 . S
C2133 C903 1.927 . S
C2152 C147 1.924 . S
C2169 C231 1.926 . S
C2188 C987 1.931 . S
C2205 C315 1.929 . S
C2224 C567 1.916 . S
C2241 C651 1.929 . S
C2260 C399 1.920 . S
C2277 C735 1.925 . S
C2296 C483 1.933 . S
