# Generated by pormake.
# Topology yfl, (5)-cn, num edge types: 1
# Building blocks:
#     Node 0, Type 0, BuildingBlock: BEQFEK_clean_sbu_0, # of connection points: 5
#     Node 1, Type 0, BuildingBlock: BEQFEK_clean_sbu_0, # of connection points: 5
#     Node 2, Type 0, BuildingBlock: BEQFEK_clean_sbu_0, # of connection points: 5
#     Node 3, Type 0, BuildingBlock: BEQFEK_clean_sbu_0, # of connection points: 5
#     Node 4, Type 0, BuildingBlock: BEQFEK_clean_sbu_0, # of connection points: 5
#     Node 5, Type 0, BuildingBlock: BEQFEK_clean_sbu_0, # of connection points: 5
#     Node 6, Type 0, BuildingBlock: BEQFEK_clean_sbu_0, # of connection points: 5
#     Node 7, Type 0, BuildingBlock: BEQFEK_clean_sbu_0, # of connection points: 5
#     Node 8, Type 0, BuildingBlock: BEQFEK_clean_sbu_0, # of connection points: 5
#     Node 9, Type 0, BuildingBlock: BEQFEK_clean_sbu_0, # of connection points: 5
#     Node 10, Type 0, BuildingBlock: BEQFEK_clean_sbu_0, # of connection points: 5
#     Node 11, Type 0, BuildingBlock: BEQFEK_clean_sbu_0, # of connection points: 5
#     Node 12, Type 0, BuildingBlock: BEQFEK_clean_sbu_0, # of connection points: 5
#     Node 13, Type 0, BuildingBlock: BEQFEK_clean_sbu_0, # of connection points: 5
#     Node 14, Type 0, BuildingBlock: BEQFEK_clean_sbu_0, # of connection points: 5
#     Node 15, Type 0, BuildingBlock: BEQFEK_clean_sbu_0, # of connection points: 5
#     Edge 16, Type (0, 0), BuildingBlock: ZUJKAS_clean_linker_0, # of connection points: 2
#     Edge 17, Type (0, 0), BuildingBlock: ZUJKAS_clean_linker_0, # of connection points: 2
#     Edge 18, Type (0, 0), BuildingBlock: ZUJKAS_clean_linker_0, # of connection points: 2
#     Edge 19, Type (0, 0), BuildingBlock: ZUJKAS_clean_linker_0, # of connection points: 2
#     Edge 20, Type (0, 0), BuildingBlock: ZUJKAS_clean_linker_0, # of connection points: 2
#     Edge 21, Type (0, 0), BuildingBlock: ZUJKAS_clean_linker_0, # of connection points: 2
#     Edge 22, Type (0, 0), BuildingBlock: ZUJKAS_clean_linker_0, # of connection points: 2
#     Edge 23, Type (0, 0), BuildingBlock: ZUJKAS_clean_linker_0, # of connection points: 2
#     Edge 24, Type (0, 0), BuildingBlock: ZUJKAS_clean_linker_0, # of connection points: 2
#     Edge 25, Type (0, 0), BuildingBlock: ZUJKAS_clean_linker_0, # of connection points: 2
#     Edge 26, Type (0, 0), BuildingBlock: ZUJKAS_clean_linker_0, # of connection points: 2
#     Edge 27, Type (0, 0), BuildingBlock: ZUJKAS_clean_linker_0, # of connection points: 2
#     Edge 28, Type (0, 0), BuildingBlock: ZUJKAS_clean_linker_0, # of connection points: 2
#     Edge 29, Type (0, 0), BuildingBlock: ZUJKAS_clean_linker_0, # of connection points: 2
#     Edge 30, Type (0, 0), BuildingBlock: ZUJKAS_clean_linker_0, # of connection points: 2
#     Edge 31, Type (0, 0), BuildingBlock: ZUJKAS_clean_linker_0, # of connection points: 2
#     Edge 32, Type (0, 0), BuildingBlock: ZUJKAS_clean_linker_0, # of connection points: 2
#     Edge 33, Type (0, 0), BuildingBlock: ZUJKAS_clean_linker_0, # of connection points: 2
#     Edge 34, Type (0, 0), BuildingBlock: ZUJKAS_clean_linker_0, # of connection points: 2
#     Edge 35, Type (0, 0), BuildingBlock: ZUJKAS_clean_linker_0, # of connection points: 2
#     Edge 36, Type (0, 0), BuildingBlock: ZUJKAS_clean_linker_0, # of connection points: 2
#     Edge 37, Type (0, 0), BuildingBlock: ZUJKAS_clean_linker_0, # of connection points: 2
#     Edge 38, Type (0, 0), BuildingBlock: ZUJKAS_clean_linker_0, # of connection points: 2
#     Edge 39, Type (0, 0), BuildingBlock: ZUJKAS_clean_linker_0, # of connection points: 2
#     Edge 40, Type (0, 0), BuildingBlock: ZUJKAS_clean_linker_0, # of connection points: 2
#     Edge 41, Type (0, 0), BuildingBlock: ZUJKAS_clean_linker_0, # of connection points: 2
#     Edge 42, Type (0, 0), BuildingBlock: ZUJKAS_clean_linker_0, # of connection points: 2
#     Edge 43, Type (0, 0), BuildingBlock: ZUJKAS_clean_linker_0, # of connection points: 2
#     Edge 44, Type (0, 0), BuildingBlock: ZUJKAS_clean_linker_0, # of connection points: 2
#     Edge 45, Type (0, 0), BuildingBlock: ZUJKAS_clean_linker_0, # of connection points: 2
#     Edge 46, Type (0, 0), BuildingBlock: ZUJKAS_clean_linker_0, # of connection points: 2
#     Edge 47, Type (0, 0), BuildingBlock: ZUJKAS_clean_linker_0, # of connection points: 2
#     Edge 48, Type (0, 0), BuildingBlock: ZUJKAS_clean_linker_0, # of connection points: 2
#     Edge 49, Type (0, 0), BuildingBlock: ZUJKAS_clean_linker_0, # of connection points: 2
#     Edge 50, Type (0, 0), BuildingBlock: ZUJKAS_clean_linker_0, # of connection points: 2
#     Edge 51, Type (0, 0), BuildingBlock: ZUJKAS_clean_linker_0, # of connection points: 2
#     Edge 52, Type (0, 0), BuildingBlock: ZUJKAS_clean_linker_0, # of connection points: 2
#     Edge 53, Type (0, 0), BuildingBlock: ZUJKAS_clean_linker_0, # of connection points: 2
#     Edge 54, Type (0, 0), BuildingBlock: ZUJKAS_clean_linker_0, # of connection points: 2
#     Edge 55, Type (0, 0), BuildingBlock: ZUJKAS_clean_linker_0, # of connection points: 2
# Relax obj value: 0.269
# Max RMSD: 0.170
# Mean RMSD: 0.170
data_MOF--net-yfl--node1-BEQFEK_clean_sbu_0--edge1-ZUJKAS_clean_linker_0
_symmetry_space_group_name_H-M    P1
_symmetry_Int_Tables_number       1
_symmetry_cell_setting            triclinic
loop_
_symmetry_equiv_pos_as_xyz
'x, y, z'
_cell_length_a     38.25831
_cell_length_b     38.244106
_cell_length_c     139.91543
_cell_angle_alpha  89.997551
_cell_angle_beta   90.040165
_cell_angle_gamma 90.040829
loop_
_atom_site_label
_atom_site_type_symbol
_atom_site_fract_x
_atom_site_fract_y
_atom_site_fract_z
_atom_type_partial_charge
Co0 Co 0.02726 0.26383 0.29452 0.0
Co1 Co 0.09855 0.26688 0.3054 0.0
C2 C 0.0445 0.32292 0.30769 0.0
O3 O 0.02368 0.30742 0.302 0.0
O4 O 0.07449 0.31031 0.30961 0.0
C5 C 0.95362 0.26946 0.29077 0.0
O6 O 0.95344 0.28929 0.29843 0.0
C7 C 0.1427 0.26774 0.32222 0.0
C8 C 0.19364 0.24963 0.31667 0.0
C9 C 0.1767 0.2601 0.32494 0.0
N10 N 0.13976 0.26218 0.3128 0.0
N11 N 0.17031 0.25163 0.30948 0.0
C12 C 0.11244 0.27703 0.32851 0.0
H13 H 0.08748 0.26893 0.32511 0.0
H14 H 0.11496 0.26435 0.33561 0.0
H15 H 0.11184 0.30579 0.32952 0.0
C16 C 0.02328 0.19562 0.30415 0.0
N17 N 0.0394 0.22623 0.30247 0.0
N18 N 0.06948 0.22687 0.30703 0.0
C19 C 0.07351 0.19635 0.31175 0.0
C20 C 0.04431 0.17569 0.31009 0.0
C21 C 0.98863 0.18567 0.29998 0.0
H22 H 0.96922 0.20629 0.30166 0.0
H23 H 0.97908 0.16035 0.30284 0.0
H24 H 0.99096 0.18399 0.29209 0.0
O25 O 0.06227 0.26963 0.2842 0.0
O26 O 0.11293 0.2722 0.2919 0.0
H27 H 0.12925 0.19199 0.31256 0.0
H28 H 0.10603 0.1575 0.31869 0.0
C29 C 0.106 0.18582 0.31697 0.0
H30 H 0.10784 0.20082 0.32373 0.0
H31 H 0.17504 0.24517 0.30235 0.0
O32 O 0.98201 0.25527 0.2881 0.0
C33 C 0.0954 0.27276 0.28416 0.0
Co34 Co 0.26948 0.9689 0.69981 0.0
Co35 Co 0.27051 0.89615 0.68948 0.0
C36 C 0.32671 0.94948 0.68635 0.0
O37 O 0.3119 0.97124 0.69189 0.0
O38 O 0.31405 0.91914 0.68489 0.0
C39 C 0.27896 0.04228 0.70376 0.0
O40 O 0.29989 0.04156 0.69632 0.0
C41 C 0.26831 0.84976 0.67301 0.0
C42 C 0.24837 0.80047 0.67923 0.0
C43 C 0.25824 0.81597 0.6707 0.0
N44 N 0.26389 0.85424 0.68244 0.0
N45 N 0.25231 0.82464 0.68615 0.0
C46 C 0.28354 0.87713 0.66657 0.0
H47 H 0.31029 0.88359 0.66907 0.0
H48 H 0.26775 0.90139 0.66705 0.0
H49 H 0.28532 0.86834 0.65905 0.0
C50 C 0.20143 0.97373 0.69021 0.0
N51 N 0.23127 0.95665 0.69214 0.0
N52 N 0.23087 0.92591 0.68791 0.0
C53 C 0.20016 0.92223 0.68326 0.0
C54 C 0.18081 0.95258 0.68449 0.0
C55 C 0.19209 0.00847 0.69443 0.0
H56 H 0.19469 0.00716 0.70232 0.0
H57 H 0.21075 0.0285 0.6918 0.0
H58 H 0.16506 0.01648 0.69259 0.0
O59 O 0.27559 0.93455 0.71028 0.0
O60 O 0.27666 0.88296 0.70303 0.0
H61 H 0.19308 0.86678 0.68238 0.0
H62 H 0.16171 0.89168 0.67549 0.0
C63 C 0.18935 0.89026 0.67784 0.0
H64 H 0.206 0.88755 0.67141 0.0
H65 H 0.24649 0.82113 0.69337 0.0
O66 O 0.26251 0.01472 0.70612 0.0
C67 C 0.2781 0.90138 0.71059 0.0
Co68 Co 0.96655 0.73139 0.29423 0.0
Co69 Co 0.89556 0.73311 0.30534 0.0
C70 C 0.94816 0.67526 0.30795 0.0
O71 O 0.96976 0.68972 0.30231 0.0
O72 O 0.91817 0.68847 0.30956 0.0
C73 C 0.03921 0.72166 0.28968 0.0
O74 O 0.03933 0.70165 0.29731 0.0
C75 C 0.85396 0.73668 0.32265 0.0
C76 C 0.80183 0.75215 0.31728 0.0
C77 C 0.82017 0.74435 0.32555 0.0
N78 N 0.85559 0.74025 0.31313 0.0
N79 N 0.82439 0.74944 0.30994 0.0
C80 C 0.88377 0.72331 0.32856 0.0
H81 H 0.88842 0.69549 0.32672 0.0
H82 H 0.90793 0.73797 0.32676 0.0
H83 H 0.87861 0.72493 0.33633 0.0
C84 C 0.97446 0.80015 0.30332 0.0
N85 N 0.95641 0.77054 0.30182 0.0
N86 N 0.92657 0.77194 0.30648 0.0
C87 C 0.92447 0.80305 0.311 0.0
C88 C 0.95481 0.82185 0.30915 0.0
C89 C 0.01023 0.80689 0.2994 0.0
H90 H 0.00852 0.8101 0.29153 0.0
H91 H 0.02721 0.78405 0.30089 0.0
H92 H 0.02236 0.83051 0.30259 0.0
O93 O 0.93018 0.7242 0.28431 0.0
O94 O 0.8795 0.72818 0.29196 0.0
H95 H 0.86893 0.80885 0.31224 0.0
H96 H 0.89368 0.84448 0.31735 0.0
C97 C 0.89291 0.81575 0.31627 0.0
H98 H 0.89176 0.80283 0.32336 0.0
H99 H 0.81851 0.75381 0.30275 0.0
O100 O 0.0113 0.73749 0.28732 0.0
C101 C 0.89688 0.72409 0.28429 0.0
Co102 Co 0.73035 0.02968 0.70066 0.0
Co103 Co 0.73282 0.09763 0.68827 0.0
C104 C 0.67664 0.04344 0.68575 0.0
O105 O 0.68978 0.02379 0.69215 0.0
O106 O 0.69035 0.07282 0.68366 0.0
C107 C 0.72813 0.95615 0.70598 0.0
O108 O 0.72045 0.94984 0.69699 0.0
C109 C 0.73695 0.13683 0.67052 0.0
C110 C 0.75202 0.18964 0.67544 0.0
C111 C 0.7441 0.17045 0.66731 0.0
N112 N 0.74029 0.13637 0.68006 0.0
N113 N 0.74921 0.16799 0.68298 0.0
C114 C 0.72939 0.10485 0.66471 0.0
H115 H 0.73747 0.08102 0.66866 0.0
H116 H 0.74318 0.10595 0.65774 0.0
H117 H 0.70085 0.10315 0.66338 0.0
C118 C 0.80156 0.02172 0.69278 0.0
N119 N 0.771 0.03883 0.69349 0.0
N120 N 0.77243 0.06761 0.68834 0.0
C121 C 0.80422 0.06987 0.68424 0.0
C122 C 0.82362 0.0408 0.6869 0.0
C123 C 0.80888 0.98738 0.69751 0.0
H124 H 0.78916 0.96802 0.69514 0.0
H125 H 0.83518 0.97718 0.69572 0.0
H126 H 0.80644 0.99035 0.70537 0.0
O127 O 0.72161 0.06813 0.70983 0.0
O128 O 0.724 0.11658 0.70116 0.0
H129 H 0.84559 0.10058 0.67778 0.0
H130 H 0.80459 0.10011 0.67141 0.0
C131 C 0.81676 0.10068 0.6786 0.0
H132 H 0.80884 0.12522 0.68221 0.0
H133 H 0.75346 0.17474 0.69012 0.0
O134 O 0.73452 0.98729 0.70863 0.0
C135 C 0.71996 0.10128 0.70915 0.0
Co136 Co 0.03292 0.23105 0.95295 0.0
Co137 Co 0.09999 0.22964 0.94023 0.0
C138 C 0.04608 0.17329 0.93893 0.0
O139 O 0.02731 0.18823 0.94523 0.0
O140 O 0.07522 0.18624 0.93631 0.0
C141 C 0.95886 0.23366 0.95758 0.0
O142 O 0.95301 0.22885 0.94842 0.0
C143 C 0.14358 0.22873 0.92301 0.0
C144 C 0.19197 0.25413 0.9282 0.0
C145 C 0.17646 0.2399 0.92015 0.0
N146 N 0.13965 0.23663 0.9323 0.0
N147 N 0.16873 0.25153 0.93538 0.0
C148 C 0.11686 0.20917 0.91728 0.0
H149 H 0.11169 0.18365 0.92076 0.0
H150 H 0.09195 0.224 0.91722 0.0
H151 H 0.12562 0.20409 0.90987 0.0
C152 C 0.02515 0.30043 0.94382 0.0
N153 N 0.04189 0.26982 0.94502 0.0
N154 N 0.06983 0.2692 0.93953 0.0
C155 C 0.07155 0.29944 0.93459 0.0
C156 C 0.04322 0.32008 0.93712 0.0
C157 C 0.9943 0.3118 0.94962 0.0
H158 H 0.99689 0.30224 0.95706 0.0
H159 H 0.97021 0.30048 0.94647 0.0
H160 H 0.99173 0.34069 0.94971 0.0
O161 O 0.07098 0.22489 0.96233 0.0
O162 O 0.11858 0.22361 0.95334 0.0
H163 H 0.1251 0.30956 0.93121 0.0
H164 H 0.09437 0.33336 0.92384 0.0
C165 C 0.0995 0.30818 0.9275 0.0
H166 H 0.1009 0.28728 0.92204 0.0
H167 H 0.17254 0.26029 0.94237 0.0
O168 O 0.99006 0.2365 0.96059 0.0
C169 C 0.10397 0.22229 0.96149 0.0
Co170 Co 0.22977 0.96408 0.04397 0.0
Co171 Co 0.22734 0.89262 0.05485 0.0
C172 C 0.17094 0.94624 0.05717 0.0
O173 O 0.18622 0.96717 0.05147 0.0
O174 O 0.18375 0.91632 0.05907 0.0
C175 C 0.22281 0.03768 0.04015 0.0
O176 O 0.203 0.03764 0.04782 0.0
C177 C 0.22489 0.84742 0.0715 0.0
C178 C 0.24635 0.79766 0.06603 0.0
C179 C 0.23328 0.81353 0.07419 0.0
N180 N 0.23249 0.85129 0.06221 0.0
N181 N 0.24507 0.82143 0.05894 0.0
C182 C 0.21306 0.87686 0.07777 0.0
H183 H 0.22147 0.90231 0.07473 0.0
H184 H 0.22377 0.87403 0.0851 0.0
H185 H 0.1841 0.87669 0.07817 0.0
C186 C 0.29774 0.96879 0.05369 0.0
N187 N 0.26741 0.95226 0.05194 0.0
N188 N 0.26703 0.92211 0.05648 0.0
C189 C 0.29748 0.91839 0.06123 0.0
C190 C 0.31775 0.94798 0.05968 0.0
C191 C 0.30835 0.00222 0.04893 0.0
H192 H 0.30427 -0.00012 0.04111 0.0
H193 H 0.29145 0.02373 0.05156 0.0
H194 H 0.33611 0.00888 0.0503 0.0
O195 O 0.22445 0.92902 0.03366 0.0
O196 O 0.22216 0.87829 0.04133 0.0
H197 H 0.30535 0.8632 0.06251 0.0
H198 H 0.33386 0.88913 0.07005 0.0
C199 C 0.30713 0.88696 0.06703 0.0
H200 H 0.28842 0.8841 0.07302 0.0
H201 H 0.25329 0.81747 0.05191 0.0
O202 O 0.23759 0.00952 0.03754 0.0
C203 C 0.22159 0.89585 0.03361 0.0
Co204 Co 0.96043 0.76521 0.95229 0.0
Co205 Co 0.88999 0.76542 0.9409 0.0
C206 C 0.94301 0.82273 0.93874 0.0
O207 O 0.96391 0.80759 0.94446 0.0
O208 O 0.91297 0.81004 0.93688 0.0
C209 C 0.03426 0.77007 0.95554 0.0
O210 O 0.03482 0.78226 0.94677 0.0
C211 C 0.84658 0.76626 0.92382 0.0
C212 C 0.79712 0.7429 0.92891 0.0
C213 C 0.81339 0.7564 0.92086 0.0
N214 N 0.84968 0.759 0.93317 0.0
N215 N 0.81997 0.74532 0.9362 0.0
C216 C 0.87623 0.7791 0.91779 0.0
H217 H 0.90162 0.77195 0.92109 0.0
H218 H 0.87474 0.76797 0.91047 0.0
H219 H 0.87488 0.80802 0.91728 0.0
C220 C 0.96738 0.69658 0.94293 0.0
N221 N 0.95011 0.72663 0.94447 0.0
N222 N 0.92068 0.72644 0.93959 0.0
C223 C 0.91821 0.69589 0.93481 0.0
C224 C 0.94785 0.67618 0.93672 0.0
C225 C 0.00043 0.68662 0.94798 0.0
H226 H -0.00168 0.69336 0.95567 0.0
H227 H 0.02246 0.70178 0.94492 0.0
H228 H 0.00612 0.6583 0.94729 0.0
O229 O 0.9242 0.77146 0.96223 0.0
O230 O 0.87391 0.76942 0.95432 0.0
H231 H 0.86352 0.6867 0.93283 0.0
H232 H 0.89128 0.6592 0.92554 0.0
C233 C 0.888 0.68573 0.9286 0.0
H234 H 0.88569 0.70461 0.92264 0.0
H235 H 0.81553 0.73703 0.94321 0.0
O236 O 0.00545 0.7598 0.95909 0.0
C237 C 0.89094 0.77213 0.9621 0.0
Co238 Co 0.7649 0.03137 0.04335 0.0
Co239 Co 0.76404 0.10069 0.05516 0.0
C240 C 0.82075 0.04697 0.05747 0.0
O241 O 0.80596 0.0262 0.05164 0.0
O242 O 0.80825 0.07715 0.05926 0.0
C243 C 0.76379 0.95696 0.03875 0.0
O244 O 0.76944 0.95118 0.04788 0.0
C245 C 0.7645 0.14392 0.07234 0.0
C246 C 0.74003 0.19285 0.06725 0.0
C247 C 0.75411 0.17698 0.07528 0.0
N248 N 0.75697 0.14054 0.06301 0.0
N249 N 0.74262 0.16993 0.05998 0.0
C250 C 0.7782 0.11467 0.07838 0.0
H251 H 0.8071 0.11661 0.07878 0.0
H252 H 0.77136 0.08905 0.07515 0.0
H253 H 0.76741 0.11609 0.08573 0.0
C254 C 0.69482 0.02403 0.05202 0.0
N255 N 0.72518 0.04119 0.05081 0.0
N256 N 0.72493 0.06994 0.05599 0.0
C257 C 0.69424 0.07191 0.0607 0.0
C258 C 0.67431 0.04277 0.05837 0.0
C259 C 0.68468 0.99183 0.0466 0.0
H260 H 0.69399 0.99375 0.03912 0.0
H261 H 0.69719 0.96877 0.04998 0.0
H262 H 0.65595 0.98792 0.04657 0.0
O263 O 0.77315 0.06866 0.03384 0.0
O264 O 0.76915 0.11832 0.04195 0.0
H265 H 0.68403 0.12598 0.0634 0.0
H266 H 0.65856 0.09643 0.07072 0.0
C267 C 0.68442 0.10088 0.06736 0.0
H268 H 0.70426 0.10288 0.0731 0.0
H269 H 0.73405 0.17412 0.05299 0.0
O270 O 0.76003 0.98813 0.03578 0.0
C271 C 0.77335 0.1019 0.03414 0.0
Co272 Co 0.53041 0.76468 0.7941 0.0
Co273 Co 0.60149 0.76082 0.80516 0.0
C274 C 0.55028 0.81945 0.80812 0.0
O275 O 0.52837 0.8057 0.80242 0.0
O276 O 0.58012 0.80574 0.80962 0.0
C277 C 0.45745 0.77511 0.79043 0.0
O278 O 0.45783 0.78978 0.79892 0.0
C279 C 0.64373 0.75856 0.82234 0.0
C280 C 0.69427 0.73784 0.81723 0.0
C281 C 0.67711 0.74965 0.82533 0.0
N282 N 0.64138 0.75261 0.81291 0.0
N283 N 0.67166 0.74031 0.80987 0.0
C284 C 0.61348 0.77004 0.82835 0.0
H285 H 0.58847 0.7621 0.82496 0.0
H286 H 0.61519 0.75869 0.83563 0.0
H287 H 0.61374 0.79897 0.82893 0.0
C288 C 0.52139 0.69531 0.80277 0.0
N289 N 0.53981 0.72479 0.80145 0.0
N290 N 0.56951 0.72275 0.80617 0.0
C291 C 0.57103 0.69146 0.81061 0.0
C292 C 0.54055 0.67314 0.8086 0.0
C293 C 0.48586 0.68903 0.79862 0.0
H294 H 0.48781 0.68802 0.79072 0.0
H295 H 0.4685 0.71116 0.80052 0.0
H296 H 0.47399 0.66446 0.80131 0.0
O297 O 0.56676 0.77172 0.78422 0.0
O298 O 0.61751 0.76613 0.79178 0.0
H299 H 0.62621 0.68315 0.81174 0.0
H300 H 0.60015 0.6499 0.81751 0.0
C301 C 0.60221 0.67828 0.81597 0.0
H302 H 0.60453 0.69269 0.82282 0.0
H303 H 0.67682 0.73345 0.80279 0.0
O304 O 0.48525 0.76119 0.78723 0.0
C305 C 0.60004 0.77108 0.78416 0.0
Co306 Co 0.76553 0.46004 0.2036 0.0
Co307 Co 0.76631 0.39272 0.1909 0.0
C308 C 0.82219 0.44708 0.18936 0.0
O309 O 0.8073 0.46618 0.19558 0.0
O310 O 0.80983 0.4174 0.18698 0.0
C311 C 0.76489 0.53387 0.20839 0.0
O312 O 0.77111 0.53935 0.19928 0.0
C313 C 0.76657 0.35125 0.17338 0.0
C314 C 0.74326 0.30141 0.17823 0.0
C315 C 0.75646 0.31832 0.17024 0.0
N316 N 0.75966 0.35357 0.18276 0.0
N317 N 0.74602 0.32363 0.18565 0.0
C318 C 0.77945 0.38131 0.1675 0.0
H319 H 0.7728 0.40648 0.171 0.0
H320 H 0.76791 0.38063 0.16022 0.0
H321 H 0.80831 0.37966 0.16687 0.0
C322 C 0.69605 0.46801 0.19465 0.0
N323 N 0.72648 0.45099 0.19581 0.0
N324 N 0.7267 0.4229 0.19036 0.0
C325 C 0.69619 0.42118 0.18555 0.0
C326 C 0.67598 0.44984 0.18806 0.0
C327 C 0.68544 0.4995 0.2003 0.0
H328 H 0.69432 0.49676 0.2078 0.0
H329 H 0.69806 0.523 0.19718 0.0
H330 H 0.65669 0.50326 0.20021 0.0
O331 O 0.77252 0.42162 0.21285 0.0
O332 O 0.77231 0.37376 0.20393 0.0
H333 H 0.68743 0.36722 0.18231 0.0
H334 H 0.66052 0.39696 0.17545 0.0
C335 C 0.68675 0.39288 0.17862 0.0
H336 H 0.70619 0.39238 0.17277 0.0
H337 H 0.73802 0.31861 0.19264 0.0
O338 O 0.76038 0.50281 0.21138 0.0
C339 C 0.77445 0.38854 0.21205 0.0
Co340 Co 0.46722 0.22755 0.79383 0.0
Co341 Co 0.39749 0.22622 0.80551 0.0
C342 C 0.4519 0.16985 0.80745 0.0
O343 O 0.47219 0.18482 0.80153 0.0
O344 O 0.42214 0.1827 0.8095 0.0
C345 C 0.53976 0.22061 0.78884 0.0
O346 O 0.54137 0.20119 0.79657 0.0
C347 C 0.3567 0.23118 0.82307 0.0
C348 C 0.30293 0.23774 0.81757 0.0
C349 C 0.32225 0.2354 0.82592 0.0
N350 N 0.35772 0.23148 0.81348 0.0
N351 N 0.32552 0.23542 0.81022 0.0
C352 C 0.38789 0.22464 0.8293 0.0
H353 H 0.40999 0.21417 0.82508 0.0
H354 H 0.39654 0.24948 0.83262 0.0
H355 H 0.38102 0.20616 0.83513 0.0
C356 C 0.47331 0.29644 0.80302 0.0
N357 N 0.45664 0.26589 0.80171 0.0
N358 N 0.42689 0.26624 0.80643 0.0
C359 C 0.42334 0.29761 0.81074 0.0
C360 C 0.45279 0.31755 0.80879 0.0
C361 C 0.50805 0.30512 0.79872 0.0
H362 H 0.52654 0.28336 0.80007 0.0
H363 H 0.51909 0.32957 0.80174 0.0
H364 H 0.50507 0.30799 0.79087 0.0
O365 O 0.43015 0.2208 0.78406 0.0
O366 O 0.38059 0.22048 0.79227 0.0
H367 H 0.38902 0.339 0.81551 0.0
H368 H 0.39072 0.30116 0.82309 0.0
C369 C 0.39069 0.31003 0.81555 0.0
H370 H 0.36736 0.29917 0.81191 0.0
H371 H 0.31895 0.23629 0.80299 0.0
O372 O 0.51108 0.23529 0.78663 0.0
C373 C 0.39695 0.21859 0.78437 0.0
Co374 Co 0.22972 0.53323 0.2022 0.0
Co375 Co 0.23021 0.60161 0.1899 0.0
C376 C 0.17218 0.54967 0.18839 0.0
O377 O 0.18665 0.52977 0.19451 0.0
O378 O 0.18589 0.5787 0.186 0.0
C379 C 0.22365 0.4599 0.20597 0.0
O380 O 0.21183 0.45881 0.19716 0.0
C381 C 0.2287 0.64397 0.17264 0.0
C382 C 0.25371 0.69317 0.17734 0.0
C383 C 0.23871 0.67688 0.16949 0.0
N384 N 0.23723 0.64107 0.18191 0.0
N385 N 0.25197 0.6706 0.18471 0.0
C386 C 0.2143 0.6144 0.16683 0.0
H387 H 0.22197 0.58896 0.17001 0.0
H388 H 0.22382 0.61573 0.15934 0.0
H389 H 0.18534 0.61596 0.1668 0.0
C390 C 0.29855 0.52439 0.19303 0.0
N391 N 0.26838 0.54182 0.19424 0.0
N392 N 0.2687 0.57034 0.18898 0.0
C393 C 0.29923 0.57191 0.18419 0.0
C394 C 0.31906 0.5428 0.18658 0.0
C395 C 0.30857 0.49263 0.19865 0.0
H396 H 0.30082 0.49606 0.20622 0.0
H397 H 0.29432 0.46965 0.19577 0.0
H398 H 0.33707 0.4875 0.19831 0.0
O399 O 0.22477 0.57088 0.2118 0.0
O400 O 0.22535 0.61937 0.2031 0.0
H401 H 0.31042 0.62581 0.1815 0.0
H402 H 0.33476 0.59586 0.17402 0.0
C403 C 0.30923 0.60079 0.17751 0.0
H404 H 0.28907 0.60329 0.17187 0.0
H405 H 0.26122 0.67517 0.19162 0.0
O406 O 0.23426 0.48885 0.20937 0.0
C407 C 0.22343 0.60407 0.21116 0.0
Co408 Co 0.53112 0.72935 0.4518 0.0
Co409 Co 0.60126 0.72836 0.44021 0.0
C410 C 0.54937 0.67011 0.43874 0.0
O411 O 0.5289 0.68506 0.44462 0.0
O412 O 0.57847 0.68383 0.43641 0.0
C413 C 0.45806 0.72047 0.45599 0.0
O414 O 0.45797 0.70159 0.44815 0.0
C415 C 0.645 0.72817 0.42314 0.0
C416 C 0.6944 0.75112 0.42845 0.0
C417 C 0.67813 0.73858 0.42029 0.0
N418 N 0.64165 0.73489 0.43251 0.0
N419 N 0.67133 0.74831 0.43567 0.0
C420 C 0.61735 0.71042 0.4173 0.0
H421 H 0.6128 0.68386 0.42022 0.0
H422 H 0.5924 0.72503 0.41792 0.0
H423 H 0.62483 0.70773 0.40969 0.0
C424 C 0.52282 0.79617 0.44167 0.0
N425 N 0.54061 0.76662 0.44347 0.0
N426 N 0.57015 0.76684 0.43865 0.0
C427 C 0.57217 0.79691 0.43364 0.0
C428 C 0.54213 0.81627 0.43534 0.0
C429 C 0.48966 0.80607 0.44665 0.0
H430 H 0.49289 0.80235 0.45447 0.0
H431 H 0.46834 0.7885 0.44423 0.0
H432 H 0.48216 0.83359 0.44525 0.0
O433 O 0.56754 0.72644 0.46179 0.0
O434 O 0.61727 0.72466 0.45365 0.0
H435 H 0.62689 0.80616 0.43168 0.0
H436 H 0.5991 0.83358 0.42436 0.0
C437 C 0.60239 0.80709 0.42744 0.0
H438 H 0.6047 0.7882 0.42148 0.0
H439 H 0.67564 0.75602 0.44273 0.0
O440 O 0.48608 0.73566 0.45857 0.0
C441 C 0.60074 0.7245 0.46154 0.0
Co442 Co 0.73226 0.46948 0.5428 0.0
Co443 Co 0.72746 0.39837 0.55383 0.0
C444 C 0.67427 0.45514 0.55648 0.0
O445 O 0.69024 0.47527 0.55073 0.0
O446 O 0.68527 0.42438 0.55822 0.0
C447 C 0.73046 0.54343 0.53962 0.0
O448 O 0.71723 0.54417 0.54828 0.0
C449 C 0.73118 0.35453 0.5709 0.0
C450 C 0.73461 0.30141 0.56474 0.0
C451 C 0.73371 0.31946 0.57332 0.0
N452 N 0.73103 0.3571 0.56133 0.0
N453 N 0.73309 0.32528 0.55768 0.0
C454 C 0.72648 0.38492 0.57753 0.0
H455 H 0.71812 0.40855 0.57356 0.0
H456 H 0.75152 0.39094 0.58115 0.0
H457 H 0.70698 0.37835 0.58312 0.0
C458 C 0.80181 0.47067 0.55176 0.0
N459 N 0.77029 0.45594 0.55044 0.0
N460 N 0.76909 0.4257 0.55493 0.0
C461 C 0.80035 0.41998 0.55913 0.0
C462 C 0.82186 0.44843 0.55733 0.0
C463 C 0.81235 0.50523 0.54765 0.0
H464 H 0.79277 0.52524 0.54967 0.0
H465 H 0.83841 0.5137 0.55024 0.0
H466 H 0.81264 0.50337 0.53973 0.0
O467 O 0.72389 0.43425 0.53264 0.0
O468 O 0.72041 0.38378 0.54041 0.0
H469 H 0.83991 0.38323 0.56371 0.0
H470 H 0.80209 0.38606 0.57125 0.0
C471 C 0.81107 0.3863 0.56373 0.0
H472 H 0.79913 0.36388 0.55991 0.0
H473 H 0.73323 0.31985 0.55037 0.0
O474 O 0.74054 0.51441 0.53616 0.0
C475 C 0.71971 0.4012 0.53266 0.0
Co476 Co 0.46526 0.26031 0.45109 0.0
Co477 Co 0.39538 0.26331 0.43948 0.0
C478 C 0.44932 0.31913 0.43761 0.0
O479 O 0.4693 0.30338 0.44347 0.0
O480 O 0.41928 0.30712 0.43548 0.0
C481 C 0.53903 0.2647 0.45432 0.0
O482 O 0.5395 0.27707 0.44556 0.0
C483 C 0.35029 0.266 0.42273 0.0
C484 C 0.30153 0.24178 0.42803 0.0
C485 C 0.31686 0.25618 0.41997 0.0
N486 N 0.35443 0.25782 0.43199 0.0
N487 N 0.32513 0.24367 0.43516 0.0
C488 C 0.37919 0.27953 0.41654 0.0
H489 H 0.40497 0.27217 0.41956 0.0
H490 H 0.37691 0.26909 0.40916 0.0
H491 H 0.37767 0.30849 0.41624 0.0
C492 C 0.47058 0.19205 0.44145 0.0
N493 N 0.45423 0.22255 0.44306 0.0
N494 N 0.42507 0.22364 0.43807 0.0
C495 C 0.42194 0.19359 0.4331 0.0
C496 C 0.45075 0.17272 0.43504 0.0
C497 C 0.50291 0.1807 0.44662 0.0
H498 H 0.50092 0.18791 0.45428 0.0
H499 H 0.52578 0.19459 0.44356 0.0
H500 H 0.50719 0.1521 0.44604 0.0
O501 O 0.42924 0.26601 0.46109 0.0
O502 O 0.37973 0.26802 0.45287 0.0
H503 H 0.36734 0.18492 0.43078 0.0
H504 H 0.39539 0.15941 0.42305 0.0
C505 C 0.39199 0.18506 0.42661 0.0
H506 H 0.3899 0.20543 0.42102 0.0
H507 H 0.32152 0.23463 0.44212 0.0
O508 O 0.51029 0.25409 0.45782 0.0
C509 C 0.3961 0.26869 0.46078 0.0
Co510 Co 0.27079 0.5281 0.54474 0.0
Co511 Co 0.26381 0.59798 0.5562 0.0
C512 C 0.32465 0.54951 0.55899 0.0
O513 O 0.31248 0.52781 0.55297 0.0
O514 O 0.30885 0.57801 0.56085 0.0
C515 C 0.28643 0.45664 0.53996 0.0
O516 O 0.30763 0.45824 0.54733 0.0
C517 C 0.25585 0.63894 0.57347 0.0
C518 C 0.23782 0.69018 0.56804 0.0
C519 C 0.246 0.67219 0.57634 0.0
N520 N 0.25317 0.63725 0.56392 0.0
N521 N 0.24238 0.66788 0.5607 0.0
C522 C 0.27072 0.60997 0.57942 0.0
H523 H 0.29941 0.60904 0.57829 0.0
H524 H 0.25981 0.58454 0.57701 0.0
H525 H 0.26585 0.61361 0.58715 0.0
C526 C 0.20188 0.51541 0.5533 0.0
N527 N 0.23058 0.5352 0.55214 0.0
N528 N 0.22688 0.56466 0.55689 0.0
C529 C 0.19521 0.56472 0.56113 0.0
C530 C 0.17843 0.53346 0.559 0.0
C531 C 0.19742 0.47974 0.54906 0.0
H532 H 0.19512 0.48206 0.54118 0.0
H533 H 0.22085 0.46373 0.55066 0.0
H534 H 0.17402 0.46621 0.55193 0.0
O535 O 0.27554 0.56511 0.53489 0.0
O536 O 0.27017 0.61477 0.54295 0.0
H537 H 0.18565 0.61974 0.5624 0.0
H538 H 0.15142 0.59264 0.5673 0.0
C539 C 0.18009 0.59529 0.56637 0.0
H540 H 0.19245 0.5972 0.57352 0.0
H541 H 0.23835 0.6736 0.55348 0.0
O542 O 0.26797 0.48311 0.5378 0.0
C543 C 0.27478 0.5984 0.53513 0.0
H544 H 0.07004 0.26357 0.26606 0.0
H545 H 0.09738 0.28158 0.25107 0.0
H546 H 0.18805 0.31733 0.26662 0.0
H547 H 0.16147 0.29827 0.28157 0.0
H548 H 0.1116 0.34655 0.24681 0.0
H549 H 0.2349 0.27208 0.24433 0.0
H550 H 0.20056 0.2603 0.25257 0.0
H551 H 0.23153 0.29408 0.2556 0.0
C552 C 0.09613 0.27458 0.26626 0.0
C553 C 0.11352 0.27965 0.27501 0.0
C554 C 0.11175 0.2848 0.25768 0.0
C555 C 0.14497 0.30045 0.25768 0.0
C556 C 0.16286 0.30444 0.26638 0.0
H557 H 0.24847 0.45224 0.22416 0.0
H558 H 0.23177 0.40735 0.23574 0.0
C559 C 0.14745 0.2938 0.27495 0.0
C560 C 0.15881 0.31672 0.24883 0.0
H561 H 0.23227 0.32584 0.23515 0.0
C562 C 0.13772 0.34141 0.24415 0.0
C563 C 0.19295 0.31014 0.24536 0.0
C564 C 0.21611 0.28242 0.24968 0.0
C565 C 0.15033 0.36081 0.23639 0.0
C566 C 0.18491 0.35531 0.2332 0.0
C567 C 0.20576 0.32995 0.23766 0.0
C568 C 0.20026 0.37787 0.22575 0.0
C569 C 0.12713 0.38822 0.23191 0.0
C570 C 0.18906 0.37526 0.21623 0.0
C571 C 0.19856 0.40085 0.20958 0.0
C572 C 0.21919 0.42953 0.2124 0.0
C573 C 0.23229 0.43066 0.22179 0.0
C574 C 0.22293 0.40497 0.2284 0.0
H575 H 0.1024 0.39198 0.23594 0.0
H576 H 0.14106 0.41367 0.23152 0.0
H577 H 0.12046 0.38026 0.2245 0.0
H578 H 0.17159 0.3544 0.21407 0.0
H579 H 0.18815 0.39914 0.2024 0.0
H580 H 0.40083 0.81746 0.79314 0.0
H581 H 0.35697 0.83366 0.78121 0.0
H582 H 0.40181 0.76029 0.76131 0.0
H583 H 0.44583 0.74396 0.77315 0.0
H584 H 0.38278 0.86179 0.76342 0.0
H585 H 0.29382 0.74892 0.75774 0.0
H586 H 0.31819 0.75528 0.76868 0.0
H587 H 0.3396 0.7384 0.75824 0.0
C588 C 0.4008 0.80404 0.78632 0.0
C589 C 0.42705 0.77972 0.78404 0.0
C590 C 0.37568 0.81332 0.77953 0.0
C591 C 0.37608 0.798 0.77042 0.0
C592 C 0.40076 0.772 0.76835 0.0
H593 H 0.30577 0.83653 0.71366 0.0
H594 H 0.3245 0.81158 0.7289 0.0
C595 C 0.42605 0.76291 0.7751 0.0
C596 C 0.35481 0.81306 0.76263 0.0
H597 H 0.29386 0.79312 0.74567 0.0
C598 C 0.36287 0.84707 0.75962 0.0
C599 C 0.32932 0.79349 0.75766 0.0
C600 C 0.31942 0.75706 0.76077 0.0
C601 C 0.34723 0.86161 0.75149 0.0
C602 C 0.32191 0.84195 0.74642 0.0
C603 C 0.31312 0.80821 0.7496 0.0
C604 C 0.30627 0.85514 0.73742 0.0
C605 C 0.35951 0.89711 0.74814 0.0
C606 C 0.28866 0.88731 0.73719 0.0
C607 C 0.27854 0.90195 0.72848 0.0
C608 C 0.2851 0.88424 0.71986 0.0
C609 C 0.30048 0.85089 0.72017 0.0
C610 C 0.31113 0.83655 0.72888 0.0
H611 H 0.38504 0.90443 0.75136 0.0
H612 H 0.36222 0.89781 0.74024 0.0
H613 H 0.34012 0.91719 0.75028 0.0
H614 H 0.28375 0.90163 0.74373 0.0
H615 H 0.2662 0.92744 0.72847 0.0
H616 H 0.76951 0.5285 0.22772 0.0
H617 H 0.78078 0.57478 0.23915 0.0
H618 H 0.77633 0.65142 0.21654 0.0
H619 H 0.76663 0.60452 0.20487 0.0
H620 H 0.83042 0.66346 0.22668 0.0
H621 H 0.72353 0.64536 0.25226 0.0
H622 H 0.7445 0.60393 0.2508 0.0
H623 H 0.72315 0.62434 0.24071 0.0
C624 C 0.77027 0.55523 0.22516 0.0
C625 C 0.76719 0.56282 0.21538 0.0
C626 C 0.77637 0.58183 0.23176 0.0
C627 C 0.77857 0.61682 0.22878 0.0
C628 C 0.77444 0.62467 0.21903 0.0
H629 H 0.82957 0.74138 0.27957 0.0
H630 H 0.79785 0.72549 0.26498 0.0
C631 C 0.76889 0.59786 0.21237 0.0
C632 C 0.78917 0.64412 0.23577 0.0
H633 H 0.77908 0.66631 0.25919 0.0
C634 C 0.8186 0.66477 0.23371 0.0
C635 C 0.77322 0.64706 0.24486 0.0
C636 C 0.73909 0.62924 0.24721 0.0
C637 C 0.83437 0.68555 0.24077 0.0
C638 C 0.82129 0.68443 0.25023 0.0
C639 C 0.7899 0.66651 0.25203 0.0
C640 C 0.84147 0.69825 0.2585 0.0
C641 C 0.86526 0.70789 0.23799 0.0
C642 C 0.87659 0.6885 0.25973 0.0
C643 C 0.8949 0.69821 0.26794 0.0
C644 C 0.87818 0.71692 0.27526 0.0
C645 C 0.8431 0.72689 0.27404 0.0
C646 C 0.82498 0.71784 0.26571 0.0
H647 H 0.86226 0.71778 0.23057 0.0
H648 H 0.86854 0.73058 0.24287 0.0
H649 H 0.88936 0.69179 0.23818 0.0
H650 H 0.88962 0.67219 0.25451 0.0
H651 H 0.92175 0.68969 0.26872 0.0
H652 H 0.59544 0.17619 0.78819 0.0
H653 H 0.63659 0.16908 0.77506 0.0
H654 H 0.59164 0.25841 0.76078 0.0
H655 H 0.54948 0.26494 0.77378 0.0
H656 H 0.59058 0.20338 0.74969 0.0
H657 H 0.72337 0.21344 0.76486 0.0
H658 H 0.69753 0.1829 0.77152 0.0
H659 H 0.68518 0.22837 0.77125 0.0
C660 C 0.59491 0.19492 0.78239 0.0
C661 C 0.56898 0.22087 0.78196 0.0
C662 C 0.61871 0.191 0.7749 0.0
C663 C 0.61748 0.21342 0.76696 0.0
C664 C 0.59312 0.24086 0.76685 0.0
H665 H 0.70654 0.17157 0.7102 0.0
H666 H 0.68608 0.20437 0.72415 0.0
C667 C 0.56902 0.24452 0.77427 0.0
C668 C 0.63752 0.20474 0.75821 0.0
H669 H 0.71796 0.1794 0.75022 0.0
C670 C 0.61858 0.199 0.74975 0.0
C671 C 0.67404 0.19885 0.7583 0.0
C672 C 0.6962 0.20659 0.76696 0.0
C673 C 0.63476 0.18571 0.74155 0.0
C674 C 0.67088 0.17817 0.74179 0.0
C675 C 0.69021 0.18516 0.7501 0.0
C676 C 0.68799 0.1601 0.73374 0.0
C677 C 0.61278 0.17803 0.73283 0.0
C678 C 0.69673 0.12468 0.73465 0.0
C679 C 0.70824 0.10581 0.72671 0.0
C680 C 0.71133 0.12214 0.71774 0.0
C681 C 0.70424 0.15815 0.71699 0.0
C682 C 0.69259 0.17696 0.72494 0.0
H683 H 0.58438 0.18116 0.73424 0.0
H684 H 0.62018 0.19619 0.72698 0.0
H685 H 0.61757 0.15095 0.73028 0.0
H686 H 0.69326 0.11128 0.7414 0.0
H687 H 0.71374 0.07821 0.72757 0.0
H688 H 0.17523 0.09065 0.03937 0.0
H689 H 0.16789 0.13282 0.02641 0.0
H690 H 0.26311 0.09608 0.01334 0.0
H691 H 0.26988 0.05278 0.02609 0.0
H692 H 0.20406 0.18611 0.01777 0.0
H693 H 0.19088 0.07199 0.99334 0.0
H694 H 0.19278 0.0672 0.00614 0.0
H695 H 0.23211 0.07483 -0.00059 0.0
C696 C 0.195 0.09201 0.03384 0.0
C697 C 0.22272 0.06795 0.03361 0.0
C698 C 0.19079 0.11617 0.02645 0.0
C699 C 0.21443 0.11688 0.01878 0.0
C700 C 0.24403 0.09524 0.01905 0.0
H701 H 0.17349 0.2055 0.96232 0.0
H702 H 0.20644 0.18624 0.97635 0.0
C703 C 0.24794 0.07065 0.02635 0.0
C704 C 0.20578 0.13728 0.0101 0.0
H705 H 0.18319 0.12748 0.98665 0.0
C706 C 0.19988 0.1734 0.01093 0.0
C707 C 0.20009 0.12055 0.0012 0.0
C708 C 0.20396 0.08149 -6e-05 0.0
C709 C 0.18776 0.1931 0.00313 0.0
C710 C 0.1813 0.17614 0.99433 0.0
C711 C 0.18849 0.14038 0.9934 0.0
C712 C 0.16371 0.19374 0.98625 0.0
C713 C 0.18139 0.23172 0.00439 0.0
C714 C 0.12893 0.20472 0.98722 0.0
C715 C 0.10993 0.21545 0.97922 0.0
C716 C 0.12536 0.21528 0.9701 0.0
C717 C 0.16078 0.20588 0.96923 0.0
C718 C 0.1797 0.19496 0.97724 0.0
H719 H 0.19677 0.24249 0.01046 0.0
H720 H 0.18815 0.24637 -0.00221 0.0
H721 H 0.15328 0.2361 0.00593 0.0
H722 H 0.11589 0.20328 0.99408 0.0
H723 H 0.08276 0.22264 0.98015 0.0
H724 H 0.04299 0.74419 0.97358 0.0
H725 H 0.08863 0.76018 0.985 0.0
H726 H 0.14072 0.82079 0.96329 0.0
H727 H 0.09517 0.80498 0.95176 0.0
H728 H 0.16941 0.75941 0.98441 0.0
H729 H 0.1045 0.88994 0.98515 0.0
H730 H 0.08265 0.85152 0.98062 0.0
H731 H 0.11639 0.87203 0.97371 0.0
C732 C 0.06455 0.76029 0.97116 0.0
C733 C 0.06517 0.77381 0.96181 0.0
C734 C 0.09067 0.76924 0.97769 0.0
C735 C 0.11772 0.79188 0.97498 0.0
C736 C 0.11989 0.80335 0.96548 0.0
H737 H 0.23196 0.92114 0.01556 0.0
H738 H 0.21457 0.89393 0.00049 0.0
C739 C 0.09384 0.79429 0.95892 0.0
C740 C 0.1405 0.80711 0.98241 0.0
H741 H 0.14974 0.88036 0.99604 0.0
C742 C 0.16556 0.78599 0.9869 0.0
C743 C 0.13531 0.84177 0.98559 0.0
C744 C 0.10818 0.86526 0.98109 0.0
C745 C 0.18532 0.7986 0.99464 0.0
C746 C 0.17901 0.83282 -0.00189 0.0
C747 C 0.15468 0.85419 0.99338 0.0
C748 C 0.19506 0.84645 0.00701 0.0
C749 C 0.21267 0.77514 -0.00098 0.0
C750 C 0.19052 0.82855 0.01569 0.0
C751 C 0.2008 0.84388 0.02431 0.0
C752 C 0.21513 0.87775 0.02443 0.0
C753 C 0.22078 0.89512 0.01571 0.0
C754 C 0.21094 0.87956 0.00709 0.0
H755 H 0.22301 0.7563 0.99368 0.0
H756 H 0.23482 0.79046 0.00198 0.0
H757 H 0.20067 0.75978 0.00489 0.0
H758 H 0.17744 0.80344 0.01587 0.0
H759 H 0.1959 0.8299 0.03091 0.0
H760 H 0.91578 0.80298 0.97823 0.0
H761 H 0.88339 0.81838 0.99255 0.0
H762 H 0.79091 0.7693 0.98098 0.0
H763 H 0.82297 0.75555 0.9663 0.0
H764 H 0.77325 0.82763 0.98749 0.0
H765 H 0.85346 0.76956 0.01576 0.0
H766 H 0.88189 0.79586 0.00861 0.0
H767 H 0.86009 0.75856 0.00335 0.0
C768 C 0.8887 0.79493 0.97879 0.0
C769 C 0.87191 0.77808 0.97114 0.0
C770 C 0.87024 0.80339 0.98705 0.0
C771 C 0.83484 0.79422 0.98801 0.0
C772 C 0.81825 0.77644 0.98047 0.0
H773 H 0.7628 0.88613 0.04212 0.0
H774 H 0.77052 0.83926 0.03032 0.0
C775 C 0.83656 0.76864 0.97208 0.0
C776 C 0.8146 0.80709 0.99637 0.0
H777 H 0.82386 0.82493 0.02011 0.0
C778 C 0.78385 0.82616 0.99467 0.0
C779 C 0.82729 0.80428 0.00585 0.0
C780 C 0.85725 0.78053 0.00848 0.0
C781 C 0.76772 0.84536 0.00197 0.0
C782 C 0.78365 0.84682 0.01109 0.0
C783 C 0.81213 0.8248 0.01305 0.0
C784 C 0.77442 0.87422 0.01818 0.0
C785 C 0.73434 0.86466 -0.0003 0.0
C786 C 0.77396 0.90938 0.01531 0.0
C787 C 0.76902 0.93595 0.02197 0.0
C788 C 0.76538 0.92813 0.03173 0.0
C789 C 0.76551 0.89294 0.03464 0.0
C790 C 0.7699 0.86617 0.02791 0.0
H791 H 0.71813 0.84946 0.99458 0.0
H792 H 0.71863 0.86978 0.00622 0.0
H793 H 0.74076 0.88994 0.99623 0.0
H794 H 0.7788 0.91653 0.00794 0.0
H795 H 0.76949 0.96277 0.01948 0.0
H796 H 0.81062 0.07979 0.01882 0.0
H797 H 0.82717 0.11335 0.00476 0.0
H798 H 0.76711 0.20121 0.01501 0.0
H799 H 0.75228 0.16821 0.02949 0.0
H800 H 0.79418 0.14188 0.99056 0.0
H801 H 0.85829 0.24811 0.0114 0.0
H802 H 0.8423 0.20889 0.017 0.0
H803 H 0.81235 0.2428 0.01348 0.0
C804 C 0.80085 0.10623 0.01807 0.0
C805 C 0.78056 0.12158 0.02529 0.0
C806 C 0.81021 0.1254 0.01001 0.0
C807 C 0.79896 0.16012 0.00888 0.0
C808 C 0.77705 0.17491 0.01585 0.0
H809 H 0.88804 0.23701 0.95428 0.0
H810 H 0.84116 0.22778 0.96599 0.0
C811 C 0.76841 0.15598 0.02408 0.0
C812 C 0.81201 0.18061 0.0006 0.0
H813 H 0.86504 0.24924 0.99486 0.0
C814 C 0.80936 0.16562 0.99146 0.0
C815 C 0.83153 0.2118 0.00179 0.0
C816 C 0.8366 0.22878 0.01144 0.0
C817 C 0.82834 0.17889 0.98369 0.0
C818 C 0.84926 0.20907 0.985 0.0
C819 C 0.8491 0.22603 0.9939 0.0
C820 C 0.87625 0.21959 0.97794 0.0
C821 C 0.82801 0.1587 0.97441 0.0
C822 C 0.91135 0.22008 0.98085 0.0
C823 C 0.9379 0.22623 0.97428 0.0
C824 C 0.93005 0.23154 0.96458 0.0
C825 C 0.89485 0.23253 0.96169 0.0
C826 C 0.86808 0.22703 0.96836 0.0
H827 H 0.81554 0.13261 0.97519 0.0
H828 H 0.81304 0.17356 0.96897 0.0
H829 H 0.855 0.15486 0.9717 0.0
H830 H 0.91841 0.21442 0.98819 0.0
H831 H 0.9647 0.22534 0.97677 0.0
H832 H 0.66646 0.75184 0.77901 0.0
H833 H 0.69778 0.76813 0.76438 0.0
H834 H 0.60721 0.8254 0.75471 0.0
H835 H 0.57537 0.80752 0.76894 0.0
H836 H 0.63584 0.79393 0.74029 0.0
H837 H 0.74102 0.86127 0.76072 0.0
H838 H 0.73761 0.81514 0.76282 0.0
H839 H 0.70275 0.84375 0.76647 0.0
C840 C 0.65324 0.76764 0.7737 0.0
C841 C 0.61859 0.77866 0.77514 0.0
C842 C 0.67122 0.77713 0.76538 0.0
C843 C 0.6552 0.79875 0.75854 0.0
C844 C 0.62022 0.80874 0.75987 0.0
H845 H 0.71991 0.96452 0.72509 0.0
H846 H 0.70811 0.91976 0.73696 0.0
C847 C 0.60203 0.79857 0.76803 0.0
C848 C 0.67465 0.81273 0.75018 0.0
H849 H 0.74184 0.86715 0.74413 0.0
C850 C 0.65924 0.80969 0.7411 0.0
C851 C 0.70533 0.83313 0.75124 0.0
C852 C 0.72256 0.83884 0.76084 0.0
C853 C 0.6718 0.82872 0.73324 0.0
C854 C 0.70171 0.85016 0.73439 0.0
C855 C 0.71887 0.8508 0.74327 0.0
C856 C 0.71227 0.8763 0.72709 0.0
C857 C 0.65122 0.82769 0.72403 0.0
C858 C 0.71939 0.8669 0.71757 0.0
C859 C 0.72531 0.89276 0.71066 0.0
C860 C 0.72522 0.92829 0.71324 0.0
C861 C 0.72018 0.93739 0.72286 0.0
C862 C 0.7135 0.91174 0.72968 0.0
H863 H 0.62502 0.81565 0.725 0.0
H864 H 0.6476 0.85441 0.72109 0.0
H865 H 0.66562 0.81187 0.71868 0.0
H866 H 0.71967 0.83969 0.71544 0.0
H867 H 0.72958 0.88501 0.70331 0.0
H868 H 0.78016 0.41093 0.23054 0.0
H869 H 0.79847 0.37678 0.24441 0.0
H870 H 0.80225 0.2837 0.22706 0.0
H871 H 0.78415 0.31763 0.21308 0.0
H872 H 0.77215 0.31126 0.25342 0.0
H873 H 0.90429 0.30134 0.23684 0.0
H874 H 0.87213 0.33236 0.23272 0.0
H875 H 0.86757 0.28685 0.22985 0.0
C876 C 0.78441 0.38311 0.22967 0.0
C877 C 0.78125 0.36712 0.22066 0.0
C878 C 0.79466 0.36362 0.23762 0.0
C879 C 0.80196 0.32789 0.2367 0.0
C880 C 0.79694 0.31137 0.22786 0.0
H881 H 0.94003 0.22235 0.27661 0.0
H882 H 0.89589 0.22757 0.26405 0.0
C883 C 0.78666 0.33083 0.21989 0.0
C884 C 0.81854 0.30918 0.24474 0.0
H885 H 0.89801 0.2805 0.25239 0.0
C886 C 0.79953 0.30396 0.25319 0.0
C887 C 0.85418 0.29964 0.24436 0.0
C888 C 0.87596 0.30543 0.23549 0.0
C889 C 0.81563 0.29027 0.2614 0.0
C890 C 0.85178 0.28251 0.26117 0.0
C891 C 0.87026 0.28629 0.25257 0.0
C892 C 0.87222 0.27432 0.26989 0.0
C893 C 0.79383 0.28467 0.27025 0.0
C894 C 0.87273 0.29806 0.27755 0.0
C895 C 0.89764 0.29486 0.2848 0.0
C896 C 0.92295 0.26833 0.28438 0.0
C897 C 0.92101 0.24326 0.27706 0.0
C898 C 0.89576 0.24617 0.26989 0.0
H899 H 0.76628 0.2786 0.26835 0.0
H900 H 0.8043 0.26312 0.27473 0.0
H901 H 0.79372 0.30906 0.27455 0.0
H902 H 0.85551 0.32052 0.2776 0.0
H903 H 0.89859 0.31466 0.29033 0.0
H904 H 0.23327 0.05651 0.71822 0.0
H905 H 0.24112 0.0991 0.73107 0.0
H906 H 0.33496 0.13694 0.71745 0.0
H907 H 0.32665 0.09533 0.70446 0.0
H908 H 0.29511 0.09446 0.74259 0.0
H909 H 0.29564 0.22719 0.72707 0.0
H910 H 0.27869 0.18983 0.72067 0.0
H911 H 0.32493 0.1989 0.72075 0.0
C912 C 0.25499 0.07464 0.71783 0.0
C913 C 0.27954 0.07235 0.71038 0.0
C914 C 0.25942 0.09899 0.72517 0.0
C915 C 0.28852 0.12139 0.72522 0.0
C916 C 0.31185 0.12059 0.71747 0.0
H917 H 0.42272 0.21313 0.76619 0.0
H918 H 0.39131 0.19425 0.75188 0.0
C919 C 0.3072 0.09653 0.71007 0.0
C920 C 0.29765 0.14115 0.73399 0.0
H921 H 0.32665 0.22028 0.74211 0.0
C922 C 0.3012 0.12217 0.74253 0.0
C923 C 0.30586 0.17724 0.7339 0.0
C924 C 0.30072 0.1995 0.72511 0.0
C925 C 0.31434 0.1378 0.75084 0.0
C926 C 0.3239 0.17348 0.75063 0.0
C927 C 0.31931 0.19288 0.74221 0.0
C928 C 0.3412 0.18999 0.75892 0.0
C929 C 0.31956 0.11559 0.75965 0.0
C930 C 0.32309 0.19477 0.76753 0.0
C931 C 0.34095 0.20543 0.77574 0.0
C932 C 0.37724 0.21146 0.77547 0.0
C933 C 0.39486 0.20844 0.76668 0.0
C934 C 0.37694 0.19784 0.75848 0.0
H935 H 0.31598 0.08728 0.75816 0.0
H936 H 0.34615 0.11965 0.76264 0.0
H937 H 0.30033 0.12339 0.76518 0.0
H938 H 0.2954 0.18905 0.76797 0.0
H939 H 0.32651 0.20776 0.78237 0.0
H940 H 0.21801 0.58072 0.22959 0.0
H941 H 0.19842 0.61387 0.2435 0.0
H942 H 0.19413 0.70776 0.22649 0.0
H943 H 0.21356 0.67488 0.21247 0.0
H944 H 0.22251 0.68029 0.25289 0.0
H945 H 0.09143 0.68632 0.2355 0.0
H946 H 0.12481 0.65625 0.23159 0.0
H947 H 0.12826 0.70187 0.22874 0.0
C948 C 0.21347 0.60853 0.22881 0.0
C949 C 0.21678 0.62502 0.21987 0.0
C950 C 0.20247 0.62745 0.23679 0.0
C951 C 0.19454 0.66308 0.23596 0.0
C952 C 0.19992 0.68016 0.22722 0.0
H953 H 0.05227 0.76729 0.27511 0.0
H954 H 0.09646 0.76132 0.2626 0.0
C955 C 0.21098 0.66129 0.21923 0.0
C956 C 0.17675 0.68102 0.24393 0.0
H957 H 0.09593 0.70752 0.25108 0.0
C958 C 0.19495 0.68678 0.2525 0.0
C959 C 0.14088 0.68948 0.24333 0.0
C960 C 0.11997 0.68306 0.23434 0.0
C961 C 0.17785 0.7001 0.2606 0.0
C962 C 0.14153 0.7069 0.26014 0.0
C963 C 0.1238 0.70245 0.25143 0.0
C964 C 0.12031 0.7151 0.26871 0.0
C965 C 0.19882 0.70645 0.26956 0.0
C966 C 0.11971 0.69176 0.27646 0.0
C967 C 0.09472 0.69533 0.28366 0.0
C968 C 0.06942 0.72187 0.28313 0.0
C969 C 0.07126 0.74638 0.27566 0.0
C970 C 0.09655 0.74306 0.26853 0.0
H971 H 0.22643 0.71286 0.26783 0.0
H972 H 0.18762 0.72805 0.27389 0.0
H973 H 0.1989 0.68228 0.27395 0.0
H974 H 0.1371 0.66945 0.27665 0.0
H975 H 0.09389 0.67596 0.2893 0.0
H976 H 0.69759 0.60545 0.54336 0.0
H977 H 0.68228 0.65076 0.53174 0.0
H978 H 0.74088 0.59652 0.51002 0.0
H979 H 0.75642 0.55111 0.52155 0.0
H980 H 0.74238 0.67711 0.51003 0.0
H981 H 0.61122 0.61336 0.51057 0.0
H982 H 0.62995 0.62641 0.52182 0.0
H983 H 0.64974 0.59176 0.5151 0.0
C984 C 0.70802 0.6036 0.53618 0.0
C985 C 0.72768 0.57435 0.53332 0.0
C986 C 0.69925 0.62954 0.52956 0.0
C987 C 0.71017 0.62665 0.52003 0.0
C988 C 0.73224 0.59911 0.51736 0.0
H989 H 0.66704 0.69932 0.46386 0.0
H990 H 0.69526 0.68273 0.47883 0.0
C991 C 0.74093 0.57312 0.52395 0.0
C992 C 0.69456 0.64894 0.51256 0.0
H993 H 0.62016 0.65773 0.49939 0.0
C994 C 0.71553 0.67334 0.50775 0.0
C995 C 0.65956 0.64382 0.50965 0.0
C996 C 0.63618 0.61733 0.51448 0.0
C997 C 0.70241 0.69253 0.49997 0.0
C998 C 0.6678 0.68629 0.4968 0.0
C999 C 0.64663 0.66263 0.50183 0.0
C1000 C 0.65345 0.70165 0.48789 0.0
C1001 C 0.72575 0.71917 0.49524 0.0
C1002 C 0.62047 0.71774 0.48796 0.0
C1003 C 0.6039 0.72648 0.47939 0.0
C1004 C 0.62012 0.71953 0.47059 0.0
C1005 C 0.65394 0.70518 0.47054 0.0
C1006 C 0.67029 0.69598 0.47911 0.0
H1007 H 0.74526 0.72978 0.50036 0.0
H1008 H 0.74034 0.70644 0.48934 0.0
H1009 H 0.71042 0.74123 0.49223 0.0
H1010 H 0.60693 0.72227 0.49464 0.0
H1011 H 0.57795 0.73775 0.47967 0.0
H1012 H 0.54788 0.23933 0.4724 0.0
H1013 H 0.59187 0.25779 0.48403 0.0
H1014 H 0.64268 0.32007 0.46244 0.0
H1015 H 0.5988 0.30178 0.45072 0.0
H1016 H 0.67267 0.26109 0.48391 0.0
H1017 H 0.60122 0.38817 0.48388 0.0
H1018 H 0.5817 0.34852 0.47935 0.0
H1019 H 0.61487 0.37048 0.47257 0.0
C1020 C 0.56887 0.25628 0.47005 0.0
C1021 C 0.56953 0.26956 0.46068 0.0
C1022 C 0.59405 0.26667 0.4767 0.0
C1023 C 0.62016 0.29053 0.47409 0.0
C1024 C 0.62255 0.30172 0.46457 0.0
H1025 H 0.7277 0.42646 0.51451 0.0
H1026 H 0.71063 0.39816 0.49956 0.0
C1027 C 0.59746 0.29121 0.45789 0.0
C1028 C 0.64156 0.30717 0.4816 0.0
H1029 H 0.64627 0.38143 0.495 0.0
C1030 C 0.66732 0.28754 0.48629 0.0
C1031 C 0.6344 0.34167 0.48464 0.0
C1032 C 0.60646 0.36356 0.47992 0.0
C1033 C 0.68592 0.30148 0.49407 0.0
C1034 C 0.67769 0.3355 0.49738 0.0
C1035 C 0.65263 0.3554 0.49247 0.0
C1036 C 0.69274 0.35039 0.50627 0.0
C1037 C 0.71413 0.27964 0.49866 0.0
C1038 C 0.68873 0.33282 0.51501 0.0
C1039 C 0.69875 0.3488 0.52356 0.0
C1040 C 0.71234 0.38298 0.52355 0.0
C1041 C 0.71712 0.4002 0.51477 0.0
C1042 C 0.70747 0.38402 0.50621 0.0
H1043 H 0.72554 0.26087 0.49346 0.0
H1044 H 0.73545 0.29619 0.50159 0.0
H1045 H 0.70262 0.26422 0.50459 0.0
H1046 H 0.67649 0.3073 0.51528 0.0
H1047 H 0.69453 0.33489 0.5302 0.0
H1048 H 0.33759 0.40735 0.53849 0.0
H1049 H 0.34442 0.36417 0.52576 0.0
H1050 H 0.24413 0.39349 0.51416 0.0
H1051 H 0.23769 0.43773 0.52668 0.0
H1052 H 0.30864 0.30755 0.51846 0.0
H1053 H 0.31009 0.41816 0.49261 0.0
H1054 H 0.31119 0.42489 0.50535 0.0
H1055 H 0.27069 0.41435 0.49948 0.0
C1056 C 0.31671 0.40422 0.53332 0.0
C1057 C 0.28746 0.42639 0.53343 0.0
C1058 C 0.32062 0.37947 0.52607 0.0
C1059 C 0.29518 0.37629 0.51889 0.0
C1060 C 0.26449 0.39623 0.51949 0.0
H1061 H 0.32623 0.28225 0.46276 0.0
H1062 H 0.29594 0.30145 0.47721 0.0
C1063 C 0.26081 0.42139 0.52665 0.0
C1064 C 0.30271 0.35498 0.51031 0.0
H1065 H 0.31889 0.36208 0.48641 0.0
C1066 C 0.31051 0.31933 0.51143 0.0
C1067 C 0.30534 0.37052 0.50115 0.0
C1068 C 0.29921 0.40911 0.49954 0.0
C1069 C 0.32155 0.29896 0.50365 0.0
C1070 C 0.32499 0.31479 0.49457 0.0
C1071 C 0.31592 0.35002 0.49339 0.0
C1072 C 0.34125 0.29674 0.48637 0.0
C1073 C 0.32996 0.26088 0.50521 0.0
C1074 C 0.37661 0.28722 0.4868 0.0
C1075 C 0.39409 0.27648 0.47855 0.0
C1076 C 0.37653 0.27526 0.46972 0.0
C1077 C 0.3406 0.28304 0.46943 0.0
C1078 C 0.32318 0.29389 0.47768 0.0
H1079 H 0.31648 0.2504 0.51163 0.0
H1080 H 0.32241 0.24494 0.4989 0.0
H1081 H 0.35853 0.25797 0.50632 0.0
H1082 H 0.3912 0.28994 0.49339 0.0
H1083 H 0.42172 0.27056 0.47904 0.0
H1084 H 0.28307 0.57283 0.51701 0.0
H1085 H 0.3032 0.60474 0.50291 0.0
H1086 H 0.3036 0.70076 0.51903 0.0
H1087 H 0.28345 0.66919 0.53321 0.0
H1088 H 0.27682 0.67151 0.49304 0.0
H1089 H 0.40801 0.67913 0.51032 0.0
H1090 H 0.37529 0.64809 0.51413 0.0
H1091 H 0.37077 0.69346 0.51712 0.0
C1092 C 0.28687 0.60083 0.51754 0.0
C1093 C 0.28211 0.61836 0.52628 0.0
C1094 C 0.2982 0.61901 0.50946 0.0
C1095 C 0.30507 0.65495 0.50999 0.0
C1096 C 0.29852 0.67295 0.51853 0.0
H1097 H 0.44466 0.76384 0.47104 0.0
H1098 H 0.40128 0.75511 0.48365 0.0
C1099 C 0.28705 0.65482 0.52661 0.0
C1100 C 0.32273 0.67256 0.50193 0.0
H1101 H 0.40312 0.70028 0.49472 0.0
C1102 C 0.30433 0.67826 0.4934 0.0
C1103 C 0.35853 0.68136 0.50249 0.0
C1104 C 0.37955 0.67512 0.51147 0.0
C1105 C 0.3211 0.69212 0.48531 0.0
C1106 C 0.35734 0.6995 0.48573 0.0
C1107 C 0.37533 0.69479 0.49439 0.0
C1108 C 0.37816 0.70914 0.47718 0.0
C1109 C 0.29982 0.69862 0.47641 0.0
C1110 C 0.37888 0.6869 0.4692 0.0
C1111 C 0.40335 0.69211 0.46193 0.0
C1112 C 0.42805 0.7192 0.46262 0.0
C1113 C 0.4261 0.74258 0.47035 0.0
C1114 C 0.4013 0.73764 0.47755 0.0
H1115 H 0.27211 0.70428 0.47821 0.0
H1116 H 0.31046 0.72079 0.47219 0.0
H1117 H 0.30018 0.67479 0.47189 0.0
H1118 H 0.362 0.6642 0.46885 0.0
H1119 H 0.40433 0.67354 0.45609 0.0
H1120 H 0.03972 0.14732 0.32792 0.0
H1121 H 0.02837 0.08548 0.33193 0.0
H1122 H 0.02655 0.06012 0.30188 0.0
H1123 H 0.03752 0.12148 0.29791 0.0
H1124 H 0.96648 0.04412 0.32392 0.0
H1125 H 0.09682 0.98936 0.31526 0.0
H1126 H 0.0903 0.03464 0.31853 0.0
H1127 H 0.08055 0.02006 0.3066 0.0
C1128 C 0.03711 0.12829 0.32223 0.0
C1129 C 0.03927 0.13874 0.31263 0.0
C1130 C 0.03063 0.09323 0.32451 0.0
C1131 C 0.02695 0.06844 0.31719 0.0
C1132 C 0.02968 0.07893 0.30761 0.0
H1133 H 0.97212 0.87461 0.29724 0.0
H1134 H 0.99001 0.93395 0.30153 0.0
C1135 C 0.03577 0.11384 0.30535 0.0
C1136 C 0.01864 0.03163 0.3193 0.0
H1137 H 0.04829 0.94944 0.31465 0.0
C1138 C 0.98454 0.02322 0.32219 0.0
C1139 C 0.04243 0.00471 0.31704 0.0
C1140 C 0.07971 0.01254 0.31426 0.0
C1141 C 0.97272 0.98846 0.32206 0.0
C1142 C 0.99581 0.96183 0.31906 0.0
C1143 C 0.03065 0.97006 0.3169 0.0
C1144 C 0.98329 0.92636 0.31674 0.0
C1145 C 0.93505 0.98066 0.32442 0.0
C1146 C 0.9732 0.90272 0.3239 0.0
C1147 C 0.96298 0.86873 0.32145 0.0
C1148 C 0.96304 0.85817 0.31183 0.0
C1149 C 0.97234 0.88215 0.3047 0.0
C1150 C 0.98249 0.91594 0.30714 0.0
H1151 H 0.91989 0.00474 0.326 0.0
H1152 H 0.92244 0.96675 0.31836 0.0
H1153 H 0.93383 0.96321 0.33074 0.0
H1154 H 0.9739 0.91034 0.33135 0.0
H1155 H 0.95595 0.85045 0.32704 0.0
H1156 H 0.15799 0.00476 0.67295 0.0
H1157 H 0.09697 0.02122 0.66983 0.0
H1158 H 0.06197 0.93322 0.68661 0.0
H1159 H 0.12287 0.91646 0.68956 0.0
H1160 H 0.02095 0.94534 0.67029 0.0
H1161 H 0.04221 0.0662 0.69172 0.0
H1162 H 0.07011 0.06104 0.6815 0.0
H1163 H 0.07368 0.03115 0.69136 0.0
C1164 C 0.1371 0.98869 0.67578 0.0
C1165 C 0.14469 0.95951 0.68149 0.0
C1166 C 0.10244 -0.00189 0.67404 0.0
C1167 C 0.0751 0.97872 0.67812 0.0
C1168 C 0.08276 0.94847 0.6834 0.0
H1169 H 0.87576 0.02875 0.69954 0.0
H1170 H 0.93686 0.01501 0.69603 0.0
C1171 C 0.11739 0.93892 0.68508 0.0
C1172 C 0.03871 0.99139 0.67768 0.0
H1173 H 0.9854 0.05587 0.68609 0.0
C1174 C 0.01311 0.96971 0.67362 0.0
C1175 C 0.02875 0.02305 0.68215 0.0
C1176 C 0.05499 0.04665 0.687 0.0
C1177 C 0.97754 0.97835 0.67416 0.0
C1178 C 0.9676 0.00971 0.67876 0.0
C1179 C 0.99329 0.03195 0.68252 0.0
C1180 C 0.93066 0.01822 0.68067 0.0
C1181 C 0.95079 0.95308 0.67026 0.0
C1182 C 0.90715 0.02489 0.67318 0.0
C1183 C 0.87218 0.03243 0.67519 0.0
C1184 C 0.8605 0.03346 0.6847 0.0
C1185 C 0.8842 0.0275 0.69216 0.0
C1186 C 0.91901 0.01989 0.69016 0.0
H1187 H 0.96251 0.92737 0.66842 0.0
H1188 H 0.92947 0.94883 0.67552 0.0
H1189 H 0.93899 0.9642 0.66368 0.0
H1190 H 0.91586 0.02429 0.66582 0.0
H1191 H 0.8542 0.03716 0.66935 0.0
H1192 H 0.90757 0.6189 0.93982 0.0
H1193 H 0.92394 0.55763 0.93713 0.0
H1194 H 0.02188 0.59092 0.92489 0.0
H1195 H 0.00549 0.6523 0.92753 0.0
H1196 H 0.97706 0.52755 0.91563 0.0
H1197 H 0.01367 0.52236 0.95418 0.0
H1198 H 0.97241 0.54201 0.95107 0.0
H1199 H 0.01235 0.56293 0.94757 0.0
C1200 C 0.93213 0.61305 0.93632 0.0
C1201 C 0.95535 0.63996 0.93385 0.0
C1202 C 0.94144 0.57822 0.93481 0.0
C1203 C 0.97403 0.57005 0.93082 0.0
C1204 C 0.99654 0.59694 0.92792 0.0
H1205 H 0.08677 0.37601 0.9381 0.0
H1206 H 0.07198 0.43738 0.93505 0.0
C1207 C 0.98727 0.63178 0.92945 0.0
C1208 C 0.98621 0.53358 0.93071 0.0
H1209 H 0.01778 0.47002 0.94542 0.0
C1210 C 0.98606 0.51485 0.9221 0.0
C1211 C -0.00177 0.51756 0.93919 0.0
C1212 C -0.00053 0.53714 0.94855 0.0
C1213 C 0.99717 0.47987 0.92181 0.0
C1214 C 0.00845 0.46361 0.93034 0.0
C1215 C 0.00913 0.48268 0.9389 0.0
C1216 C 0.01875 0.42648 0.93072 0.0
C1217 C 0.99701 0.46064 0.9124 0.0
C1218 C 0.99377 0.40021 0.92919 0.0
C1219 C 0.0022 0.36527 0.93092 0.0
C1220 C 0.03565 0.35627 0.93421 0.0
C1221 C 0.06096 0.38243 0.93544 0.0
C1222 C 0.05252 0.41735 0.93373 0.0
H1223 H 0.99562 0.4789 0.90624 0.0
H1224 H 0.02075 0.44416 0.91167 0.0
H1225 H 0.97385 0.44318 0.91211 0.0
H1226 H 0.96738 0.40685 0.92706 0.0
H1227 H 0.98233 0.34538 0.92996 0.0
H1228 H 0.61746 0.08464 0.05655 0.0
H1229 H 0.55633 0.06899 0.05962 0.0
H1230 H 0.58877 0.96667 0.06911 0.0
H1231 H 0.65001 0.98258 0.06622 0.0
H1232 H 0.52463 0.0131 0.05003 0.0
H1233 H 0.51616 0.99655 0.08941 0.0
H1234 H 0.5508 0.02098 0.08371 0.0
H1235 H 0.5519 0.97403 0.0838 0.0
C1236 C 0.61149 0.0592 0.05954 0.0
C1237 C 0.63814 0.0348 0.06122 0.0
C1238 C 0.57671 0.05025 0.06125 0.0
C1239 C 0.56818 0.01685 0.06469 0.0
C1240 C 0.59492 0.9928 0.06664 0.0
H1241 H 0.37384 0.90726 0.05567 0.0
H1242 H 0.43561 0.92223 0.05808 0.0
C1243 C 0.62973 0.00176 0.06492 0.0
C1244 C 0.53125 0.0059 0.06518 0.0
H1245 H 0.46763 0.97621 0.08025 0.0
C1246 C 0.51211 0.00521 0.05664 0.0
C1247 C 0.51514 0.99569 0.07384 0.0
C1248 C 0.5344 0.99707 0.08324 0.0
C1249 C 0.47727 0.99415 0.05648 0.0
C1250 C 0.46138 0.98316 0.06508 0.0
C1251 C 0.48023 0.98432 0.07367 0.0
C1252 C 0.42477 0.9713 0.06518 0.0
C1253 C 0.45755 0.99445 0.04713 0.0
C1254 C 0.39859 0.99348 0.06867 0.0
C1255 C 0.36346 0.98496 0.06731 0.0
C1256 C 0.35427 0.95412 0.06249 0.0
C1257 C 0.38048 0.93102 0.05948 0.0
C1258 C 0.4156 0.93956 0.06082 0.0
H1259 H 0.47168 0.00925 0.04149 0.0
H1260 H 0.45395 0.96717 0.04461 0.0
H1261 H 0.43123 0.00617 0.04809 0.0
H1262 H 0.40534 0.01813 0.07201 0.0
H1263 H 0.34347 0.00307 0.06967 0.0
H1264 H 0.45301 0.34778 0.82641 0.0
H1265 H 0.46387 0.40984 0.83018 0.0
H1266 H 0.47584 0.43187 0.80012 0.0
H1267 H 0.46517 0.37026 0.79637 0.0
H1268 H 0.52867 0.45081 0.82316 0.0
H1269 H 0.40028 0.50302 0.81146 0.0
H1270 H 0.40636 0.45825 0.81528 0.0
H1271 H 0.41941 0.47148 0.80349 0.0
C1272 C 0.45788 0.36608 0.82066 0.0
C1273 C 0.45861 0.35458 0.81113 0.0
C1274 C 0.46407 0.40127 0.8228 0.0
C1275 C 0.47039 0.42519 0.81541 0.0
C1276 C 0.47075 0.41369 0.8059 0.0
H1277 H 0.52549 0.62098 0.79629 0.0
H1278 H 0.50758 0.56123 0.80013 0.0
C1279 C 0.4649 0.37862 0.80377 0.0
C1280 C 0.47773 0.46223 0.81744 0.0
H1281 H 0.44794 0.54369 0.81197 0.0
C1282 C 0.51081 0.47132 0.82098 0.0
C1283 C 0.45417 0.48861 0.81459 0.0
C1284 C 0.41791 0.47998 0.81107 0.0
C1285 C 0.52203 0.50628 0.821 0.0
C1286 C 0.4993 0.5324 0.81748 0.0
C1287 C 0.46531 0.52346 0.81462 0.0
C1288 C 0.51163 0.56816 0.81545 0.0
C1289 C 0.55883 0.51478 0.8241 0.0
C1290 C 0.52018 0.59157 0.82281 0.0
C1291 C 0.53047 0.62576 0.82061 0.0
C1292 C 0.53201 0.63673 0.81104 0.0
C1293 C 0.5241 0.61305 0.80371 0.0
C1294 C 0.51392 0.57906 0.8059 0.0
H1295 H 0.57424 0.49093 0.82577 0.0
H1296 H 0.57252 0.52972 0.81842 0.0
H1297 H 0.55802 0.53145 0.83059 0.0
H1298 H 0.51825 0.58363 0.83022 0.0
H1299 H 0.53641 0.64383 0.82635 0.0
H1300 H 0.65227 0.51016 0.18022 0.0
H1301 H 0.59104 0.52649 0.17734 0.0
H1302 H 0.55783 0.42438 0.18676 0.0
H1303 H 0.61896 0.40804 0.1897 0.0
H1304 H 0.52897 0.47971 0.16639 0.0
H1305 H 0.51972 0.51227 0.20518 0.0
H1306 H 0.5606 0.51471 0.19876 0.0
H1307 H 0.54223 0.47293 0.20165 0.0
C1308 C 0.63183 0.4911 0.18149 0.0
C1309 C 0.63996 0.45792 0.18515 0.0
C1310 C 0.59709 0.50033 0.17981 0.0
C1311 C 0.57026 0.47651 0.18181 0.0
C1312 C 0.57842 0.44287 0.1851 0.0
H1313 H 0.34538 0.4828 0.1791 0.0
H1314 H 0.40724 0.46832 0.17667 0.0
C1315 C 0.61315 0.4336 0.18676 0.0
C1316 C 0.53367 0.48807 0.18155 0.0
H1317 H 0.46854 0.51763 0.19601 0.0
C1318 C 0.51562 0.4881 0.17283 0.0
C1319 C 0.51682 0.49922 0.18998 0.0
C1320 C 0.53568 0.50003 0.19945 0.0
C1321 C 0.48053 0.49872 0.17236 0.0
C1322 C 0.46344 0.5092 0.18085 0.0
C1323 C 0.48182 0.50959 0.18952 0.0
C1324 C 0.42624 0.51921 0.18104 0.0
C1325 C 0.46213 0.49899 0.16283 0.0
C1326 C 0.41664 0.55251 0.18432 0.0
C1327 C 0.38153 0.56061 0.18579 0.0
C1328 C 0.35561 0.53549 0.18401 0.0
C1329 C 0.3651 0.50253 0.18047 0.0
C1330 C 0.40026 0.49439 0.17901 0.0
H1331 H 0.48097 0.49869 0.15679 0.0
H1332 H 0.44538 0.47539 0.16225 0.0
H1333 H 0.4451 0.52236 0.16214 0.0
H1334 H 0.43641 0.57183 0.18602 0.0
H1335 H 0.37474 0.58602 0.18866 0.0
H1336 H 0.58172 0.87389 0.43849 0.0
H1337 H 0.56513 0.9349 0.43555 0.0
H1338 H 0.46816 0.90052 0.42291 0.0
H1339 H 0.48487 0.83933 0.42577 0.0
H1340 H 0.50974 0.96296 0.41361 0.0
H1341 H 0.47774 0.97109 0.45238 0.0
H1342 H 0.51962 0.95288 0.44931 0.0
H1343 H 0.48043 0.92996 0.44608 0.0
C1344 C 0.55734 0.87943 0.43485 0.0
C1345 C 0.53448 0.85228 0.43233 0.0
C1346 C 0.54789 0.91411 0.4332 0.0
C1347 C 0.51547 0.92193 0.42904 0.0
C1348 C 0.49336 0.89478 0.42608 0.0
H1349 H 0.40673 0.11768 0.43714 0.0
H1350 H 0.41954 0.05596 0.43403 0.0
C1351 C 0.5028 0.86006 0.42774 0.0
C1352 C 0.50306 0.9583 0.42883 0.0
H1353 H 0.47433 0.0233 0.44348 0.0
C1354 C 0.50184 0.97626 0.4201 0.0
C1355 C 0.49239 0.97509 0.43732 0.0
C1356 C 0.49229 0.95633 0.44682 0.0
C1357 C 0.49089 0.01127 0.41971 0.0
C1358 C 0.48124 0.02838 0.42826 0.0
C1359 C 0.48177 0.01002 0.43694 0.0
C1360 C 0.47156 0.06568 0.42856 0.0
C1361 C 0.48955 0.02962 0.41017 0.0
C1362 C 0.49643 0.09143 0.42638 0.0
C1363 C 0.48908 0.12661 0.42811 0.0
C1364 C 0.45686 0.13634 0.43208 0.0
C1365 C 0.43156 0.1107 0.43395 0.0
C1366 C 0.43888 0.07557 0.4322 0.0
H1367 H 0.48898 0.01073 0.40414 0.0
H1368 H 0.46623 0.04682 0.40969 0.0
H1369 H 0.51317 0.04621 0.40937 0.0
H1370 H 0.52207 0.08422 0.42376 0.0
H1371 H 0.50894 0.14611 0.42666 0.0
H1372 H 0.12856 0.51529 0.54627 0.0
H1373 H 0.06874 0.49643 0.5496 0.0
H1374 H 0.08667 0.51018 0.57982 0.0
H1375 H 0.14692 0.52935 0.57646 0.0
H1376 H 0.04857 0.43854 0.56121 0.0
H1377 H 0.99551 0.5655 0.57439 0.0
H1378 H 0.03581 0.56298 0.56772 0.0
H1379 H 0.03455 0.54883 0.57994 0.0
C1380 C 0.11968 0.51424 0.55362 0.0
C1381 C 0.1421 0.52348 0.56113 0.0
C1382 C 0.08563 0.50352 0.55551 0.0
C1383 C 0.07337 0.502 0.56494 0.0
C1384 C 0.09561 0.51156 0.57249 0.0
H1385 H 0.85159 0.44779 0.575 0.0
H1386 H 0.91385 0.45674 0.57889 0.0
C1387 C 0.12985 0.52241 0.57058 0.0
C1388 C 0.03728 0.48996 0.56668 0.0
H1389 H 0.9555 0.51979 0.57194 0.0
C1390 C 0.02829 0.45605 0.56373 0.0
C1391 C 0.01103 0.51286 0.57004 0.0
C1392 C 0.01943 0.54967 0.57317 0.0
C1393 C 0.99337 0.44512 0.56352 0.0
C1394 C 0.96696 0.4688 0.56626 0.0
C1395 C 0.97604 0.50182 0.56985 0.0
C1396 C 0.92993 0.46167 0.56413 0.0
C1397 C 0.98476 0.40891 0.55995 0.0
C1398 C 0.91878 0.46166 0.55458 0.0
C1399 C 0.88359 0.45694 0.55239 0.0
C1400 C 0.8591 0.45216 0.55972 0.0
C1401 C 0.87026 0.4515 0.56927 0.0
C1402 C 0.90557 0.4566 0.57148 0.0
H1403 H 0.00763 0.39113 0.56048 0.0
H1404 H 0.96264 0.39751 0.56404 0.0
H1405 H 0.97688 0.41047 0.55232 0.0
H1406 H 0.93728 0.46587 0.54884 0.0
H1407 H 0.87543 0.45722 0.54497 0.0
H1408 H 0.01285 0.6535 0.31322 0.0
H1409 H 0.03067 0.59394 0.31725 0.0
H1410 H 0.92331 0.55998 0.31545 0.0
H1411 H 0.90512 0.62007 0.31186 0.0
H1412 H 0.95935 0.52412 0.32925 0.0
H1413 H 0.03448 0.52606 0.29531 0.0
H1414 H 0.04829 0.5589 0.30364 0.0
H1415 H 0.00499 0.56069 0.29861 0.0
C1416 C 0.99298 0.63345 0.31388 0.0
C1417 C 0.9577 0.64114 0.31209 0.0
C1418 C 0.0032 0.59944 0.31614 0.0
C1419 C 0.97846 0.57236 0.31633 0.0
C1420 C 0.94286 0.58047 0.31525 0.0
H1421 H 0.97943 0.35219 0.30798 0.0
H1422 H 0.96429 0.41227 0.31219 0.0
C1423 C 0.93249 0.61475 0.3132 0.0
C1424 C 0.98999 0.53541 0.31671 0.0
H1425 H 0.03919 0.47526 0.30472 0.0
C1426 C 0.97692 0.51344 0.32392 0.0
C1427 C 0.01265 0.52144 0.30967 0.0
C1428 C 0.02565 0.54286 0.30132 0.0
C1429 C 0.98599 0.47785 0.32427 0.0
C1430 C 0.00869 0.46415 0.31726 0.0
C1431 C 0.02218 0.48615 0.31016 0.0
C1432 C 0.01665 0.42648 0.31655 0.0
C1433 C 0.97117 0.45501 0.33205 0.0
C1434 C 0.05104 0.41456 0.31773 0.0
C1435 C 0.05982 0.38016 0.31536 0.0
C1436 C 0.03441 0.35743 0.31158 0.0
C1437 C -0.00035 0.3691 0.31081 0.0
C1438 C 0.99086 0.40333 0.31329 0.0
H1439 H 0.95983 0.4707 0.33797 0.0
H1440 H 0.95022 0.43828 0.32901 0.0
H1441 H 0.99171 0.43753 0.335 0.0
H1442 H 0.07132 0.43227 0.32015 0.0
H1443 H 0.08681 0.37198 0.31603 0.0
H1444 H 0.3821 0.90694 0.6825 0.0
H1445 H 0.44145 0.9254 0.67826 0.0
H1446 H 0.40608 0.03216 0.67583 0.0
H1447 H 0.34728 0.01411 0.68059 0.0
H1448 H 0.4753 0.95895 0.66402 0.0
H1449 H 0.47649 0.04067 0.69685 0.0
H1450 H 0.44152 0.01065 0.69421 0.0
H1451 H 0.44302 0.05289 0.68853 0.0
C1452 C 0.38696 0.93425 0.68092 0.0
C1453 C 0.36045 0.95926 0.68206 0.0
C1454 C 0.42081 0.94477 0.67848 0.0
C1455 C 0.42837 0.98031 0.67701 0.0
C1456 C 0.40106 0.00478 0.67725 0.0
H1457 H 0.6308 0.08503 0.67595 0.0
H1458 H 0.57081 0.07032 0.67135 0.0
C1459 C 0.3675 0.99444 0.67992 0.0
C1460 C 0.46515 0.99205 0.67617 0.0
H1461 H 0.52664 0.04262 0.68721 0.0
C1462 C 0.48649 0.97743 0.66904 0.0
C1463 C 0.4798 0.01593 0.68281 0.0
C1464 C 0.45916 0.03068 0.69109 0.0
C1465 C 0.52219 0.98583 0.66845 0.0
C1466 C 0.5366 0.00952 0.6751 0.0
C1467 C 0.51517 0.02483 0.68205 0.0
C1468 C 0.57448 0.01627 0.67577 0.0
C1469 C 0.54444 0.96905 0.66085 0.0
C1470 C 0.59642 0.99048 0.67959 0.0
C1471 C 0.63045 -0.00113 0.68236 0.0
C1472 C 0.64309 0.0332 0.68132 0.0
C1473 C 0.62181 0.05837 0.67686 0.0
C1474 C 0.5876 0.05003 0.6742 0.0
H1475 H 0.52832 0.95705 0.65511 0.0
H1476 H 0.56239 0.98858 0.65762 0.0
H1477 H 0.56067 0.94825 0.66414 0.0
H1478 H 0.58652 0.96442 0.68098 0.0
H1479 H 0.64629 0.97883 0.6857 0.0
H1480 H 0.98182 0.14288 0.94067 0.0
H1481 H 0.96568 0.08288 0.93659 0.0
H1482 H 0.0682 0.06564 0.92477 0.0
H1483 H 0.08475 0.1258 0.92877 0.0
H1484 H 0.97699 0.03835 0.91696 0.0
H1485 H 0.04848 0.00016 0.95013 0.0
H1486 H 0.03079 0.04356 0.94862 0.0
H1487 H 0.06853 0.0305 0.94194 0.0
C1488 C 0.00079 0.1266 0.93704 0.0
C1489 C 0.03474 0.13897 0.93515 0.0
C1490 C 0.9914 0.09242 0.93466 0.0
C1491 C 0.0158 0.07004 0.9304 0.0
C1492 C 0.04904 0.08275 0.92802 0.0
H1493 H 0.00902 0.84468 0.93496 0.0
H1494 H 0.0278 0.90359 0.93066 0.0
C1495 C 0.05843 0.11707 0.93033 0.0
C1496 C 0.00791 0.03239 0.92971 0.0
H1497 H 0.01814 0.95629 0.94201 0.0
C1498 C 0.98622 0.02017 0.92235 0.0
C1499 C 0.02009 0.00902 0.93676 0.0
C1500 C 0.0432 0.02122 0.94486 0.0
C1501 C 0.97614 0.98483 0.92191 0.0
C1502 C 0.98736 0.96162 0.92917 0.0
C1503 C 0.00963 0.97398 0.93641 0.0
C1504 C 0.97542 0.92476 0.9298 0.0
C1505 C 0.95384 0.97276 0.91365 0.0
C1506 C 0.93963 0.9167 0.93044 0.0
C1507 C 0.9288 0.88275 0.93273 0.0
C1508 C 0.95364 0.85668 0.93467 0.0
C1509 C 0.98932 0.8644 0.93359 0.0
C1510 C 8e-05 0.89803 0.93112 0.0
H1511 H 0.95769 0.98964 0.90727 0.0
H1512 H 0.95976 0.94529 0.91166 0.0
H1513 H 0.92589 0.97443 0.91571 0.0
H1514 H 0.92011 0.93699 0.9297 0.0
H1515 H 0.90114 0.87752 0.93358 0.0
H1516 H 0.8769 0.08835 0.06159 0.0
H1517 H 0.93629 0.06853 0.06532 0.0
H1518 H 0.89943 0.96203 0.06688 0.0
H1519 H 0.84057 0.98149 0.06263 0.0
H1520 H 0.97083 0.03229 0.07903 0.0
H1521 H 0.96793 0.95564 0.04532 0.0
H1522 H 0.93378 0.98585 0.04849 0.0
H1523 H 0.93481 0.94272 0.05366 0.0
C1524 C 0.88144 0.06081 0.06289 0.0
C1525 C 0.85445 0.03633 0.06164 0.0
C1526 C 0.91532 0.0495 0.06503 0.0
C1527 C 0.92245 0.01368 0.06609 0.0
C1528 C 0.89473 0.98965 0.06577 0.0
H1529 H 0.12232 0.90378 0.06563 0.0
H1530 H 0.06222 0.91918 0.06995 0.0
C1531 C 0.86112 0.0008 0.0634 0.0
C1532 C 0.95909 0.00125 0.06658 0.0
H1533 H 0.0186 0.95083 0.05473 0.0
C1534 C 0.98124 0.01433 0.07376 0.0
C1535 C 0.97276 0.97806 0.05961 0.0
C1536 C 0.95122 0.96502 0.05128 0.0
C1537 C 0.01672 0.00492 0.07412 0.0
C1538 C 0.03014 0.98182 0.06716 0.0
C1539 C 0.00792 0.96816 0.06013 0.0
C1540 C 0.06777 0.97389 0.06636 0.0
C1541 C 0.03978 0.01993 0.08183 0.0
C1542 C 0.09072 -0.00027 0.06303 0.0
C1543 C 0.12482 0.99098 0.06043 0.0
C1544 C 0.13656 0.95623 0.06114 0.0
C1545 C 0.11406 0.93077 0.06499 0.0
C1546 C 0.07978 0.9395 0.06749 0.0
H1547 H 0.02425 0.0312 0.08779 0.0
H1548 H 0.05754 -0.00044 0.08473 0.0
H1549 H 0.0562 0.04102 0.07874 0.0
H1550 H 0.0817 0.02629 0.06197 0.0
H1551 H 0.14155 0.01125 0.05755 0.0
H1552 H 0.4103 0.12112 0.81617 0.0
H1553 H 0.42644 0.06128 0.82059 0.0
H1554 H 0.53298 0.08154 0.81224 0.0
H1555 H 0.51718 0.14115 0.80773 0.0
H1556 H 0.45774 0.0177 0.80534 0.0
H1557 H 0.53958 0.02458 0.83813 0.0
H1558 H 0.50749 0.05754 0.83514 0.0
H1559 H 0.54861 0.05644 0.82899 0.0
C1560 C 0.43733 0.1131 0.81548 0.0
C1561 C 0.46239 0.13572 0.8115 0.0
C1562 C 0.44649 0.07898 0.81803 0.0
C1563 C 0.48093 0.06725 0.81682 0.0
C1564 C 0.50639 0.09035 0.81337 0.0
H1565 H 0.59352 0.87476 0.81171 0.0
H1566 H 0.5753 0.93472 0.81547 0.0
C1567 C 0.49721 0.1243 0.81071 0.0
C1568 C 0.48918 0.02969 0.81765 0.0
H1569 H 0.54016 0.97079 0.82955 0.0
C1570 C 0.4753 0.00723 0.81072 0.0
C1571 C 0.5126 0.01655 0.82458 0.0
C1572 C 0.52786 0.03989 0.83219 0.0
C1573 C 0.48514 0.97204 0.81029 0.0
C1574 C 0.50854 0.95863 0.81724 0.0
C1575 C 0.52201 0.98104 0.82429 0.0
C1576 C 0.52042 0.92181 0.8169 0.0
C1577 C 0.47166 0.95009 0.80209 0.0
C1578 C 0.49591 0.89453 0.81698 0.0
C1579 C 0.50611 0.86063 0.81462 0.0
C1580 C 0.54118 0.85328 0.81246 0.0
C1581 C 0.56631 0.87985 0.81334 0.0
C1582 C 0.55593 0.91404 0.81548 0.0
H1583 H 0.46203 0.96652 0.79609 0.0
H1584 H 0.49233 0.93245 0.79931 0.0
H1585 H 0.44949 0.93382 0.80461 0.0
H1586 H 0.46855 0.8998 0.81833 0.0
H1587 H 0.48634 0.8404 0.81413 0.0
H1588 H 0.87787 0.40717 0.18398 0.0
H1589 H 0.93684 0.42804 0.1802 0.0
H1590 H 0.90034 0.53468 0.18145 0.0
H1591 H 0.84194 0.51401 0.18576 0.0
H1592 H 0.96934 0.46781 0.167 0.0
H1593 H 0.97229 0.53495 0.2022 0.0
H1594 H 0.93739 0.50588 0.19879 0.0
H1595 H 0.93802 0.55033 0.19454 0.0
C1596 C 0.8824 0.43503 0.18331 0.0
C1597 C 0.85568 0.45905 0.18534 0.0
C1598 C 0.91603 0.44693 0.18114 0.0
C1599 C 0.92318 0.48295 0.18083 0.0
C1600 C 0.89566 0.50682 0.18197 0.0
H1601 H 0.12381 0.59191 0.17978 0.0
H1602 H 0.06323 0.57681 0.1758 0.0
C1603 C 0.86232 0.495 0.18438 0.0
C1604 C 0.95977 0.49543 0.18017 0.0
H1605 H 0.02144 0.54236 0.19231 0.0
C1606 C 0.98068 0.48427 0.1725 0.0
C1607 C 0.97467 0.5166 0.18743 0.0
C1608 C 0.95457 0.52736 0.19625 0.0
C1609 C 0.01615 0.49361 0.17194 0.0
C1610 C 0.03073 0.51477 0.17918 0.0
C1611 C 0.00978 0.52654 0.18671 0.0
C1612 C 0.06845 0.52235 0.17969 0.0
C1613 C 0.03806 0.4805 0.16375 0.0
C1614 C 0.09128 0.49652 0.18307 0.0
C1615 C 0.12559 0.50512 0.18549 0.0
C1616 C 0.13765 0.53969 0.18453 0.0
C1617 C 0.11527 0.56507 0.1806 0.0
C1618 C 0.08075 0.55651 0.1783 0.0
H1619 H 0.02181 0.46903 0.15796 0.0
H1620 H 0.05407 0.50211 0.16075 0.0
H1621 H 0.05627 0.4601 0.1664 0.0
H1622 H 0.082 0.47013 0.1843 0.0
H1623 H 0.14228 0.48494 0.18844 0.0
H1624 H 0.486 0.6376 0.43994 0.0
H1625 H 0.47214 0.57728 0.43566 0.0
H1626 H 0.57676 0.56296 0.42496 0.0
H1627 H 0.59104 0.62354 0.42916 0.0
H1628 H 0.4866 0.53427 0.41619 0.0
H1629 H 0.55578 0.49564 0.44969 0.0
H1630 H 0.53768 0.53888 0.4482 0.0
H1631 H 0.57612 0.52654 0.44171 0.0
C1632 C 0.50597 0.62189 0.43653 0.0
C1633 C 0.53979 0.63523 0.43501 0.0
C1634 C 0.49788 0.58752 0.43403 0.0
C1635 C 0.52347 0.5659 0.43002 0.0
C1636 C 0.55671 0.57949 0.42803 0.0
H1637 H 0.5161 0.34026 0.43447 0.0
H1638 H 0.53609 0.39886 0.43025 0.0
C1639 C 0.5648 0.61402 0.43046 0.0
C1640 C 0.51651 0.52816 0.42911 0.0
H1641 H 0.52625 0.45185 0.44133 0.0
C1642 C 0.49557 0.51599 0.42159 0.0
C1643 C 0.52837 0.50468 0.43618 0.0
C1644 C 0.55067 0.51684 0.44445 0.0
C1645 C 0.48577 0.48063 0.42102 0.0
C1646 C 0.49644 0.45734 0.42833 0.0
C1647 C 0.51816 0.4696 0.4357 0.0
C1648 C 0.48408 0.42064 0.42892 0.0
C1649 C 0.46422 0.46867 0.4126 0.0
C1650 C 0.44815 0.41304 0.42928 0.0
C1651 C 0.43666 0.3793 0.43152 0.0
C1652 C 0.46095 0.35295 0.43369 0.0
C1653 C 0.49682 0.3602 0.43292 0.0
C1654 C 0.50826 0.39365 0.43048 0.0
H1655 H 0.46901 0.48539 0.40624 0.0
H1656 H 0.46999 0.44109 0.41069 0.0
H1657 H 0.43608 0.47079 0.41442 0.0
H1658 H 0.42895 0.43355 0.42836 0.0
H1659 H 0.40885 0.37442 0.43213 0.0
H1660 H 0.35654 0.48633 0.56098 0.0
H1661 H 0.41741 0.47548 0.56525 0.0
H1662 H 0.43245 0.58548 0.57062 0.0
H1663 H 0.37119 0.59663 0.56643 0.0
H1664 H 0.47532 0.55274 0.55578 0.0
H1665 H 0.47936 0.47958 0.59002 0.0
H1666 H 0.44658 0.46531 0.58167 0.0
H1667 H 0.44366 0.50825 0.5868 0.0
C1668 C 0.37253 0.50813 0.56329 0.0
C1669 C 0.35923 0.54239 0.56327 0.0
C1670 C 0.40721 0.50182 0.56582 0.0
C1671 C 0.42925 0.52964 0.56832 0.0
C1672 C 0.41563 0.56365 0.56881 0.0
H1673 H 0.656 0.5221 0.5607 0.0
H1674 H 0.59847 0.54334 0.56559 0.0
C1675 C 0.3807 0.56996 0.5664 0.0
C1676 C 0.46735 0.5237 0.56876 0.0
H1677 H 0.53026 0.47611 0.58013 0.0
C1678 C 0.48761 0.53661 0.56121 0.0
C1679 C 0.4829 0.50218 0.57576 0.0
C1680 C 0.46212 0.48818 0.58408 0.0
C1681 C 0.52273 0.52705 0.56016 0.0
C1682 C 0.53836 0.50499 0.56709 0.0
C1683 C 0.51832 0.49312 0.57486 0.0
C1684 C 0.57462 0.49201 0.56595 0.0
C1685 C 0.54195 0.53893 0.5513 0.0
C1686 C 0.58097 0.45592 0.56524 0.0
C1687 C 0.61411 0.44365 0.56271 0.0
C1688 C 0.64118 0.46736 0.56071 0.0
C1689 C 0.63536 0.50331 0.56203 0.0
C1690 C 0.60249 0.51548 0.56477 0.0
H1691 H 0.52371 0.54773 0.54561 0.0
H1692 H 0.55912 0.56134 0.55313 0.0
H1693 H 0.55846 0.51763 0.54836 0.0
H1694 H 0.55988 0.43732 0.56619 0.0
H1695 H 0.61795 0.4158 0.56178 0.0
H1696 H 0.27559 0.20714 0.41163 0.0
H1697 H 0.25181 0.20761 0.39537 0.0
H1698 H 0.29804 0.30898 0.39052 0.0
H1699 H 0.3218 0.30867 0.40676 0.0
H1700 H 0.20696 0.25434 0.38656 0.0
H1701 H 0.33552 0.25064 0.36823 0.0
H1702 H 0.33057 0.24141 0.38081 0.0
H1703 H 0.33109 0.28586 0.37663 0.0
C1704 C 0.28059 0.22953 0.40709 0.0
C1705 C 0.30126 0.25746 0.41034 0.0
C1706 C 0.26709 0.22973 0.39782 0.0
C1707 C 0.27392 0.25795 0.3917 0.0
C1708 C 0.2934 0.2865 0.39506 0.0
H1709 H 0.16653 0.30852 0.33904 0.0
H1710 H 0.1899 0.30732 0.3553 0.0
C1711 C 0.30701 0.28625 0.40431 0.0
C1712 C 0.26038 0.25763 0.38181 0.0
H1713 H 0.28573 0.26089 0.35845 0.0
C1714 C 0.22413 0.25566 0.38041 0.0
C1715 C 0.28297 0.2588 0.37382 0.0
C1716 C 0.32222 0.25896 0.37491 0.0
C1717 C 0.20976 0.25551 0.37119 0.0
C1718 C 0.23228 0.25806 0.36321 0.0
C1719 C 0.26856 0.25934 0.36461 0.0
C1720 C 0.21869 0.25917 0.35333 0.0
C1721 C 0.17066 0.25209 0.37007 0.0
C1722 C 0.22818 0.23317 0.34676 0.0
C1723 C 0.21489 0.23383 0.33746 0.0
C1724 C 0.19178 0.2604 0.33464 0.0
C1725 C 0.18324 0.28704 0.34114 0.0
C1726 C 0.19664 0.28644 0.35041 0.0
H1727 H 0.1583 0.24112 0.37661 0.0
H1728 H 0.15925 0.27833 0.36878 0.0
H1729 H 0.16395 0.2351 0.3639 0.0
H1730 H 0.24546 0.21209 0.34886 0.0
H1731 H 0.22205 0.21314 0.33256 0.0
H1732 H 0.22926 0.84424 0.6547 0.0
H1733 H 0.22538 0.81779 0.63881 0.0
H1734 H 0.27426 0.72404 0.64956 0.0
H1735 H 0.27913 0.75093 0.66544 0.0
H1736 H 0.30358 0.74906 0.63251 0.0
H1737 H 0.15911 0.73988 0.63002 0.0
H1738 H 0.17481 0.78282 0.63297 0.0
H1739 H 0.18167 0.74732 0.64118 0.0
C1740 C 0.23964 0.8182 0.65362 0.0
C1741 C 0.25539 0.79988 0.66118 0.0
C1742 C 0.23689 0.80293 0.6446 0.0
C1743 C 0.24929 0.7689 0.64305 0.0
C1744 C 0.26453 0.75034 0.65064 0.0
H1745 H 0.21508 0.64389 0.59207 0.0
H1746 H 0.21626 0.66679 0.60844 0.0
C1747 C 0.26727 0.76563 0.65967 0.0
C1748 C 0.24755 0.75326 0.63342 0.0
H1749 H 0.191 0.73026 0.61563 0.0
C1750 C 0.27898 0.74473 0.62883 0.0
C1751 C 0.21538 0.74736 0.62871 0.0
C1752 C 0.18079 0.7545 0.6335 0.0
C1753 C 0.27915 0.73113 0.61953 0.0
C1754 C 0.24705 0.72652 0.61468 0.0
C1755 C 0.21557 0.73426 0.61935 0.0
C1756 C 0.24566 0.71327 0.60477 0.0
C1757 C 0.31364 0.72149 0.61501 0.0
C1758 C 0.26106 0.73229 0.5973 0.0
C1759 C 0.26073 0.71907 0.588 0.0
C1760 C 0.24514 0.68662 0.58608 0.0
C1761 C 0.22843 0.66834 0.59348 0.0
C1762 C 0.22877 0.68154 0.60278 0.0
H1763 H 0.33459 0.71831 0.62045 0.0
H1764 H 0.31135 0.69683 0.61087 0.0
H1765 H 0.32172 0.74258 0.61003 0.0
H1766 H 0.27346 0.75726 0.59868 0.0
H1767 H 0.27324 0.73385 0.58235 0.0
H1768 H 0.8476 0.77558 0.34137 0.0
H1769 H 0.82421 0.77426 0.35767 0.0
H1770 H 0.73541 0.71478 0.34779 0.0
H1771 H 0.7593 0.71519 0.33151 0.0
H1772 H 0.75977 0.79892 0.36438 0.0
H1773 H 0.77393 0.65589 0.37011 0.0
H1774 H 0.7957 0.67877 0.36052 0.0
H1775 H 0.75019 0.66772 0.35951 0.0
C1776 C 0.82347 0.76163 0.34274 0.0
C1777 C 0.80577 0.74445 0.33531 0.0
C1778 C 0.80997 0.76122 0.35201 0.0
C1779 C 0.77851 0.74377 0.35395 0.0
C1780 C 0.76016 0.72765 0.34646 0.0
H1781 H 0.64734 0.7626 0.40401 0.0
H1782 H 0.67239 0.76403 0.38791 0.0
C1783 C 0.77366 0.72808 0.33719 0.0
C1784 C 0.76469 0.74288 0.3638 0.0
H1785 H 0.74279 0.6875 0.38196 0.0
C1786 C 0.75612 0.77461 0.36825 0.0
C1787 C 0.76046 0.71111 0.36884 0.0
C1788 C 0.77083 0.67642 0.36455 0.0
C1789 C 0.74275 0.77536 0.37758 0.0
C1790 C 0.73746 0.7435 0.3825 0.0
C1791 C 0.74665 0.71183 0.37812 0.0
C1792 C 0.72229 0.74245 0.39219 0.0
C1793 C 0.7348 0.81022 0.38213 0.0
C1794 C 0.74188 0.72927 0.39987 0.0
C1795 C 0.72743 0.72798 0.40903 0.0
C1796 C 0.69302 0.73926 0.41059 0.0
C1797 C 0.67355 0.7527 0.40291 0.0
C1798 C 0.688 0.75403 0.39377 0.0
H1799 H 0.74841 0.83202 0.37842 0.0
H1800 H 0.70626 0.81518 0.38173 0.0
H1801 H 0.74255 0.81037 0.38978 0.0
H1802 H 0.7684 0.72022 0.39878 0.0
H1803 H 0.74302 0.71789 0.41488 0.0
H1804 H 0.69987 0.15281 0.65261 0.0
H1805 H 0.69987 0.17604 0.63637 0.0
H1806 H 0.78477 0.24527 0.64373 0.0
H1807 H 0.78604 0.2209 0.65989 0.0
H1808 H 0.68826 0.24328 0.6307 0.0
H1809 H 0.82033 0.20046 0.61927 0.0
H1810 H 0.79916 0.18337 0.62981 0.0
H1811 H 0.8204 0.22532 0.63015 0.0
C1812 C 0.7193 0.17212 0.65071 0.0
C1813 C 0.74376 0.18418 0.65744 0.0
C1814 C 0.71894 0.18574 0.64145 0.0
C1815 C 0.74284 0.21179 0.63879 0.0
C1816 C 0.76675 0.22448 0.64556 0.0
H1817 H 0.77169 0.3409 0.5888 0.0
H1818 H 0.77273 0.31456 0.60473 0.0
C1819 C 0.76723 0.21076 0.65481 0.0
C1820 C 0.74173 0.22672 0.62905 0.0
H1821 H 0.791 0.2408 0.60908 0.0
C1822 C 0.71062 0.24252 0.62594 0.0
C1823 C 0.77098 0.22565 0.62287 0.0
C1824 C 0.80451 0.2075 0.62564 0.0
C1825 C 0.7082 0.25791 0.61687 0.0
C1826 C 0.73756 0.25719 0.61077 0.0
C1827 C 0.76862 0.24131 0.61383 0.0
C1828 C 0.73657 0.27306 0.60117 0.0
C1829 C 0.67455 0.27545 0.61393 0.0
C1830 C 0.71621 0.25808 0.5939 0.0
C1831 C 0.71542 0.27319 0.58482 0.0
C1832 C 0.73469 0.30367 0.58292 0.0
C1833 C 0.75553 0.31823 0.59017 0.0
C1834 C 0.7565 0.30298 0.59923 0.0
H1835 H 0.65656 0.2792 0.62008 0.0
H1836 H 0.67996 0.30129 0.61062 0.0
H1837 H 0.66108 0.25902 0.60852 0.0
H1838 H 0.70108 0.23464 0.59526 0.0
H1839 H 0.69944 0.2613 0.57931 0.0
H1840 H 0.24265 0.22157 0.91539 0.0
H1841 H 0.26914 0.2221 0.89941 0.0
H1842 H 0.17184 0.25853 0.88742 0.0
H1843 H 0.14562 0.25893 0.90338 0.0
H1844 H 0.24631 0.18474 0.88299 0.0
H1845 H 0.24522 0.3285 0.87737 0.0
H1846 H 0.23967 0.3088 0.889 0.0
H1847 H 0.20373 0.31024 0.88073 0.0
C1848 C 0.22702 0.22965 0.90932 0.0
C1849 C 0.19194 0.23939 0.91053 0.0
C1850 C 0.24209 0.22992 0.90023 0.0
C1851 C 0.22243 0.24052 0.89228 0.0
C1852 C 0.18747 0.25054 0.89349 0.0
H1853 H 0.2623 0.20529 0.83222 0.0
H1854 H 0.23849 0.20629 0.84848 0.0
C1855 C 0.17239 0.25023 0.90257 0.0
C1856 C 0.23829 0.24045 0.88267 0.0
H1857 H 0.25916 0.29333 0.86389 0.0
C1858 C 0.24928 0.20846 0.87881 0.0
C1859 C 0.24241 0.27155 0.87733 0.0
C1860 C 0.23245 0.3068 0.88133 0.0
C1861 C 0.26369 0.20663 0.86962 0.0
C1862 C 0.26673 0.23756 0.86415 0.0
C1863 C 0.25642 0.26966 0.86809 0.0
C1864 C 0.28081 0.23716 0.85434 0.0
C1865 C 0.27588 0.17173 0.86586 0.0
C1866 C 0.3119 0.25499 0.85225 0.0
C1867 C 0.32543 0.25454 0.843 0.0
C1868 C 0.30804 0.23625 0.8357 0.0
C1869 C 0.27639 0.21923 0.83776 0.0
C1870 C 0.26292 0.2196 0.84703 0.0
H1871 H 0.27925 0.15228 0.87169 0.0
H1872 H 0.25616 0.16137 0.86077 0.0
H1873 H 0.30104 0.17447 0.86198 0.0
H1874 H 0.32574 0.26914 0.8578 0.0
H1875 H 0.34908 0.26907 0.84154 0.0
H1876 H 0.28603 0.71823 0.16046 0.0
H1877 H 0.28265 0.74165 0.14419 0.0
H1878 H 0.18175 0.69311 0.14048 0.0
H1879 H 0.18482 0.66992 0.15674 0.0
H1880 H 0.22853 0.68059 0.12537 0.0
H1881 H 0.22057 0.82169 0.13444 0.0
H1882 H 0.25679 0.79927 0.13984 0.0
H1883 H 0.21289 0.7876 0.14312 0.0
C1884 C 0.26305 0.71276 0.15618 0.0
C1885 C 0.236 0.69169 0.15978 0.0
C1886 C 0.26111 0.72621 0.14692 0.0
C1887 C 0.23187 0.71921 0.14118 0.0
C1888 C 0.20461 0.69861 0.1448 0.0
H1889 H 0.18165 0.82135 0.08754 0.0
H1890 H 0.18026 0.79713 0.10371 0.0
C1891 C 0.20654 0.68513 0.15406 0.0
C1892 C 0.23014 0.73256 0.13128 0.0
H1893 H 0.22993 0.80756 0.1181 0.0
C1894 C 0.22867 0.70834 0.12376 0.0
C1895 C 0.22992 0.76876 0.12925 0.0
C1896 C 0.2298 0.7959 0.13708 0.0
C1897 C 0.22767 0.7194 0.11421 0.0
C1898 C 0.22867 0.75558 0.11217 0.0
C1899 C 0.22945 0.77981 0.1197 0.0
C1900 C 0.22901 0.76898 0.10227 0.0
C1901 C 0.22518 0.69231 0.1064 0.0
C1902 C 0.25687 0.76108 0.09613 0.0
C1903 C 0.25784 0.77509 0.08692 0.0
C1904 C 0.23124 0.79763 0.08378 0.0
C1905 C 0.20305 0.80495 0.08988 0.0
C1906 C 0.20206 0.7909 0.09908 0.0
H1907 H 0.21549 0.66686 0.10917 0.0
H1908 H 0.20755 0.70121 0.10058 0.0
H1909 H 0.25152 0.68799 0.1033 0.0
H1910 H 0.27819 0.74465 0.09852 0.0
H1911 H 0.27985 0.76904 0.08234 0.0
H1912 H 0.82087 0.80759 0.90732 0.0
H1913 H 0.79742 0.80771 0.89105 0.0
H1914 H 0.74787 0.70819 0.89628 0.0
H1915 H 0.77142 0.70783 0.91255 0.0
H1916 H 0.80897 0.75891 0.87659 0.0
H1917 H 0.66815 0.76813 0.88574 0.0
H1918 H 0.70237 0.77691 0.89431 0.0
H1919 H 0.69045 0.7326 0.89151 0.0
C1920 C 0.80533 0.78555 0.90496 0.0
C1921 C 0.79847 0.75737 0.91113 0.0
C1922 C 0.79173 0.7858 0.8957 0.0
C1923 C 0.77074 0.75809 0.8925 0.0
C1924 C 0.76355 0.7301 0.89867 0.0
H1925 H 0.72112 0.70332 0.83383 0.0
H1926 H 0.74495 0.70586 0.85008 0.0
C1927 C 0.77708 0.72988 0.90794 0.0
C1928 C 0.75716 0.75804 0.8826 0.0
H1929 H 0.68192 0.75584 0.86952 0.0
C1930 C 0.7812 0.75838 0.87503 0.0
C1931 C 0.72093 0.75776 0.88061 0.0
C1932 C 0.69393 0.75917 0.88846 0.0
C1933 C 0.76994 0.75786 0.86549 0.0
C1934 C 0.73372 0.75638 0.86351 0.0
C1935 C 0.70969 0.75663 0.87108 0.0
C1936 C 0.72009 0.75502 0.85362 0.0
C1937 C 0.79686 0.75944 0.85762 0.0
C1938 C 0.69791 0.78154 0.8503 0.0
C1939 C 0.68413 0.78 0.84107 0.0
C1940 C 0.69201 0.75168 0.83505 0.0
C1941 C 0.71462 0.72539 0.83834 0.0
C1942 C 0.72833 0.72689 0.84759 0.0
H1943 H 0.8223 0.76965 0.86026 0.0
H1944 H 0.80129 0.73271 0.85479 0.0
H1945 H 0.78778 0.77623 0.85164 0.0
H1946 H 0.69142 0.80356 0.85483 0.0
H1947 H 0.66771 0.80121 0.83862 0.0
H1948 H 0.80593 0.17083 0.0887 0.0
H1949 H 0.80632 0.19489 0.10489 0.0
H1950 H 0.70613 0.24303 0.09976 0.0
H1951 H 0.70547 0.21881 0.08355 0.0
H1952 H 0.7547 0.28743 0.10841 0.0
H1953 H 0.74616 0.15992 0.12727 0.0
H1954 H 0.78142 0.16296 0.11884 0.0
H1955 H 0.73699 0.16458 0.11467 0.0
C1956 C 0.7837 0.18597 0.09108 0.0
C1957 C 0.75521 0.19217 0.08497 0.0
C1958 C 0.78404 0.19983 0.10031 0.0
C1959 C 0.75591 0.22007 0.10356 0.0
C1960 C 0.72794 0.2272 0.09738 0.0
H1961 H 0.70796 0.27606 0.16205 0.0
H1962 H 0.70773 0.25279 0.14575 0.0
C1963 C 0.72762 0.21341 0.08815 0.0
C1964 C 0.7558 0.23417 0.11339 0.0
H1965 H 0.75682 0.20998 0.13686 0.0
C1966 C 0.7551 0.27056 0.11465 0.0
C1967 C 0.75585 0.21198 0.12148 0.0
C1968 C 0.75482 0.17268 0.12054 0.0
C1969 C 0.75496 0.28543 0.12381 0.0
C1970 C 0.75611 0.26325 0.13189 0.0
C1971 C 0.7563 0.22686 0.13063 0.0
C1972 C 0.75654 0.27728 0.14172 0.0
C1973 C 0.75297 0.32468 0.12476 0.0
C1974 C 0.7844 0.29817 0.14488 0.0
C1975 C 0.78459 0.31148 0.15417 0.0
C1976 C 0.75689 0.30409 0.16044 0.0
C1977 C 0.72951 0.28237 0.15734 0.0
C1978 C 0.72931 0.26913 0.14805 0.0
H1979 H 0.74353 0.33722 0.11808 0.0
H1980 H 0.73533 0.33226 0.13071 0.0
H1981 H 0.77941 0.33512 0.12635 0.0
H1982 H 0.80615 0.30392 0.14018 0.0
H1983 H 0.80668 0.32702 0.15647 0.0
loop_
_geom_bond_atom_site_label_1
_geom_bond_atom_site_label_2
_geom_bond_distance
_geom_bond_site_symmetry_2
_ccdc_geom_bond_type
Co0 O3 1.970 . S
Co0 N17 1.989 . S
Co0 O25 1.967 . S
Co0 O32 1.920 1_455 S
Co1 O4 1.966 . S
Co1 N10 2.022 . S
Co1 N18 1.993 . S
Co1 O26 1.941 . S
C2 O3 1.258 . S
C2 O4 1.263 . S
O3 Co0 1.970 . S
O3 C2 1.258 . S
O4 Co1 1.966 . S
O4 C2 1.263 . S
C5 O6 1.235 . S
C5 O32 1.289 . S
O6 C5 1.235 . S
C7 C9 1.400 . S
C7 N10 1.351 . S
C7 C12 1.501 . S
C8 C9 1.387 . S
C8 N11 1.341 . S
C9 C7 1.400 . S
C9 C8 1.387 . S
N10 Co1 2.022 . S
N10 C7 1.351 . S
N10 N11 1.365 . S
N11 C8 1.341 . S
N11 N10 1.365 . S
N11 H31 0.862 . S
C12 C7 1.501 . S
C12 H13 0.961 . S
C12 H14 0.961 . S
C12 H15 0.960 . S
H13 C12 0.961 . S
H14 C12 0.961 . S
H15 C12 0.960 . S
C16 N17 1.342 . S
C16 C20 1.401 . S
C16 C21 1.499 1_455 S
N17 Co0 1.989 . S
N17 C16 1.342 . S
N17 N18 1.388 . S
N18 Co1 1.993 . S
N18 N17 1.388 . S
N18 C19 1.346 . S
C19 N18 1.346 . S
C19 C20 1.396 . S
C19 C29 1.510 . S
C20 C16 1.401 . S
C20 C19 1.396 . S
C21 C16 1.499 1_655 S
C21 H22 0.959 . S
C21 H23 0.960 . S
C21 H24 0.961 1_655 S
H22 C21 0.959 . S
H23 C21 0.960 . S
H24 C21 0.961 1_455 S
O25 Co0 1.967 . S
O25 C33 1.258 . S
O26 Co1 1.941 . S
O26 C33 1.266 . S
H27 C29 0.959 . S
H28 C29 0.961 . S
C29 C19 1.510 . S
C29 H27 0.959 . S
C29 H28 0.961 . S
C29 H30 0.960 . S
H30 C29 0.960 . S
H31 N11 0.862 . S
O32 Co0 1.920 1_655 S
O32 C5 1.289 . S
C33 O25 1.258 . S
C33 O26 1.266 . S
Co34 O37 1.970 . S
Co34 N51 1.989 . S
Co34 O59 1.967 . S
Co34 O66 1.920 1_565 S
Co35 O38 1.966 . S
Co35 N44 2.022 . S
Co35 N52 1.993 . S
Co35 O60 1.941 . S
C36 O37 1.258 . S
C36 O38 1.263 . S
O37 Co34 1.970 . S
O37 C36 1.258 . S
O38 Co35 1.966 . S
O38 C36 1.263 . S
C39 O40 1.235 . S
C39 O66 1.289 . S
O40 C39 1.235 . S
C41 C43 1.400 . S
C41 N44 1.351 . S
C41 C46 1.501 . S
C42 C43 1.387 . S
C42 N45 1.341 . S
C43 C41 1.400 . S
C43 C42 1.387 . S
N44 Co35 2.022 . S
N44 C41 1.351 . S
N44 N45 1.365 . S
N45 C42 1.341 . S
N45 N44 1.365 . S
N45 H65 0.862 . S
C46 C41 1.501 . S
C46 H47 0.961 . S
C46 H48 0.961 . S
C46 H49 0.960 . S
H47 C46 0.961 . S
H48 C46 0.961 . S
H49 C46 0.960 . S
C50 N51 1.342 . S
C50 C54 1.401 . S
C50 C55 1.499 1_565 S
N51 Co34 1.989 . S
N51 C50 1.342 . S
N51 N52 1.388 . S
N52 Co35 1.993 . S
N52 N51 1.388 . S
N52 C53 1.346 . S
C53 N52 1.346 . S
C53 C54 1.396 . S
C53 C63 1.510 . S
C54 C50 1.401 . S
C54 C53 1.396 . S
C55 C50 1.499 1_545 S
C55 H56 0.959 . S
C55 H57 0.960 . S
C55 H58 0.961 1_545 S
H56 C55 0.959 . S
H57 C55 0.960 . S
H58 C55 0.961 1_565 S
O59 Co34 1.967 . S
O59 C67 1.258 . S
O60 Co35 1.941 . S
O60 C67 1.266 . S
H61 C63 0.959 . S
H62 C63 0.961 . S
C63 C53 1.510 . S
C63 H61 0.959 . S
C63 H62 0.961 . S
C63 H64 0.960 . S
H64 C63 0.960 . S
H65 N45 0.862 . S
O66 Co34 1.920 1_545 S
O66 C39 1.289 . S
C67 O59 1.258 . S
C67 O60 1.266 . S
Co68 O71 1.970 . S
Co68 N85 1.989 . S
Co68 O93 1.967 . S
Co68 O100 1.920 1_655 S
Co69 O72 1.966 . S
Co69 N78 2.022 . S
Co69 N86 1.993 . S
Co69 O94 1.941 . S
C70 O71 1.258 . S
C70 O72 1.263 . S
O71 Co68 1.970 . S
O71 C70 1.258 . S
O72 Co69 1.966 . S
O72 C70 1.263 . S
C73 O74 1.235 . S
C73 O100 1.289 . S
O74 C73 1.235 . S
C75 C77 1.400 . S
C75 N78 1.351 . S
C75 C80 1.501 . S
C76 C77 1.387 . S
C76 N79 1.341 . S
C77 C75 1.400 . S
C77 C76 1.387 . S
N78 Co69 2.022 . S
N78 C75 1.351 . S
N78 N79 1.365 . S
N79 C76 1.341 . S
N79 N78 1.365 . S
N79 H99 0.862 . S
C80 C75 1.501 . S
C80 H81 0.961 . S
C80 H82 0.961 . S
C80 H83 0.960 . S
H81 C80 0.961 . S
H82 C80 0.961 . S
H83 C80 0.960 . S
C84 N85 1.342 . S
C84 C88 1.401 . S
C84 C89 1.499 1_655 S
N85 Co68 1.989 . S
N85 C84 1.342 . S
N85 N86 1.388 . S
N86 Co69 1.993 . S
N86 N85 1.388 . S
N86 C87 1.346 . S
C87 N86 1.346 . S
C87 C88 1.396 . S
C87 C97 1.510 . S
C88 C84 1.401 . S
C88 C87 1.396 . S
C89 C84 1.499 1_455 S
C89 H90 0.959 . S
C89 H91 0.960 . S
C89 H92 0.961 1_455 S
H90 C89 0.959 . S
H91 C89 0.960 . S
H92 C89 0.961 1_655 S
O93 Co68 1.967 . S
O93 C101 1.258 . S
O94 Co69 1.941 . S
O94 C101 1.266 . S
H95 C97 0.959 . S
H96 C97 0.961 . S
C97 C87 1.510 . S
C97 H95 0.959 . S
C97 H96 0.961 . S
C97 H98 0.960 . S
H98 C97 0.960 . S
H99 N79 0.862 . S
O100 Co68 1.920 1_455 S
O100 C73 1.289 . S
C101 O93 1.258 . S
C101 O94 1.266 . S
Co102 O105 1.970 . S
Co102 N119 1.989 . S
Co102 O127 1.967 . S
Co102 O134 1.920 1_545 S
Co103 O106 1.966 . S
Co103 N112 2.022 . S
Co103 N120 1.993 . S
Co103 O128 1.941 . S
C104 O105 1.258 . S
C104 O106 1.263 . S
O105 Co102 1.970 . S
O105 C104 1.258 . S
O106 Co103 1.966 . S
O106 C104 1.263 . S
C107 O108 1.235 . S
C107 O134 1.289 . S
O108 C107 1.235 . S
C109 C111 1.400 . S
C109 N112 1.351 . S
C109 C114 1.501 . S
C110 C111 1.387 . S
C110 N113 1.341 . S
C111 C109 1.400 . S
C111 C110 1.387 . S
N112 Co103 2.022 . S
N112 C109 1.351 . S
N112 N113 1.365 . S
N113 C110 1.341 . S
N113 N112 1.365 . S
N113 H133 0.862 . S
C114 C109 1.501 . S
C114 H115 0.961 . S
C114 H116 0.961 . S
C114 H117 0.960 . S
H115 C114 0.961 . S
H116 C114 0.961 . S
H117 C114 0.960 . S
C118 N119 1.342 . S
C118 C122 1.401 . S
C118 C123 1.499 1_545 S
N119 Co102 1.989 . S
N119 C118 1.342 . S
N119 N120 1.388 . S
N120 Co103 1.993 . S
N120 N119 1.388 . S
N120 C121 1.346 . S
C121 N120 1.346 . S
C121 C122 1.396 . S
C121 C131 1.510 . S
C122 C118 1.401 . S
C122 C121 1.396 . S
C123 C118 1.499 1_565 S
C123 H124 0.959 . S
C123 H125 0.960 . S
C123 H126 0.961 1_565 S
H124 C123 0.959 . S
H125 C123 0.960 . S
H126 C123 0.961 1_545 S
O127 Co102 1.967 . S
O127 C135 1.258 . S
O128 Co103 1.941 . S
O128 C135 1.266 . S
H129 C131 0.959 . S
H130 C131 0.961 . S
C131 C121 1.510 . S
C131 H129 0.959 . S
C131 H130 0.961 . S
C131 H132 0.960 . S
H132 C131 0.960 . S
H133 N113 0.862 . S
O134 Co102 1.920 1_565 S
O134 C107 1.289 . S
C135 O127 1.258 . S
C135 O128 1.266 . S
Co136 O139 1.970 . S
Co136 N153 1.989 . S
Co136 O161 1.967 . S
Co136 O168 1.920 1_455 S
Co137 O140 1.966 . S
Co137 N146 2.022 . S
Co137 N154 1.993 . S
Co137 O162 1.941 . S
C138 O139 1.258 . S
C138 O140 1.263 . S
O139 Co136 1.970 . S
O139 C138 1.258 . S
O140 Co137 1.966 . S
O140 C138 1.263 . S
C141 O142 1.235 . S
C141 O168 1.289 . S
O142 C141 1.235 . S
C143 C145 1.400 . S
C143 N146 1.351 . S
C143 C148 1.501 . S
C144 C145 1.387 . S
C144 N147 1.341 . S
C145 C143 1.400 . S
C145 C144 1.387 . S
N146 Co137 2.022 . S
N146 C143 1.351 . S
N146 N147 1.365 . S
N147 C144 1.341 . S
N147 N146 1.365 . S
N147 H167 0.862 . S
C148 C143 1.501 . S
C148 H149 0.961 . S
C148 H150 0.961 . S
C148 H151 0.960 . S
H149 C148 0.961 . S
H150 C148 0.961 . S
H151 C148 0.960 . S
C152 N153 1.342 . S
C152 C156 1.401 . S
C152 C157 1.499 1_455 S
N153 Co136 1.989 . S
N153 C152 1.342 . S
N153 N154 1.388 . S
N154 Co137 1.993 . S
N154 N153 1.388 . S
N154 C155 1.346 . S
C155 N154 1.346 . S
C155 C156 1.396 . S
C155 C165 1.510 . S
C156 C152 1.401 . S
C156 C155 1.396 . S
C157 C152 1.499 1_655 S
C157 H158 0.959 . S
C157 H159 0.960 . S
C157 H160 0.961 1_655 S
H158 C157 0.959 . S
H159 C157 0.960 . S
H160 C157 0.961 1_455 S
O161 Co136 1.967 . S
O161 C169 1.258 . S
O162 Co137 1.941 . S
O162 C169 1.266 . S
H163 C165 0.959 . S
H164 C165 0.961 . S
C165 C155 1.510 . S
C165 H163 0.959 . S
C165 H164 0.961 . S
C165 H166 0.960 . S
H166 C165 0.960 . S
H167 N147 0.862 . S
O168 Co136 1.920 1_655 S
O168 C141 1.289 . S
C169 O161 1.258 . S
C169 O162 1.266 . S
Co170 O173 1.970 . S
Co170 N187 1.989 . S
Co170 O195 1.967 . S
Co170 O202 1.920 1_565 S
Co171 O174 1.966 . S
Co171 N180 2.022 . S
Co171 N188 1.993 . S
Co171 O196 1.941 . S
C172 O173 1.258 . S
C172 O174 1.263 . S
O173 Co170 1.970 . S
O173 C172 1.258 . S
O174 Co171 1.966 . S
O174 C172 1.263 . S
C175 O176 1.235 . S
C175 O202 1.289 . S
O176 C175 1.235 . S
C177 C179 1.400 . S
C177 N180 1.351 . S
C177 C182 1.501 . S
C178 C179 1.387 . S
C178 N181 1.341 . S
C179 C177 1.400 . S
C179 C178 1.387 . S
N180 Co171 2.022 . S
N180 C177 1.351 . S
N180 N181 1.365 . S
N181 C178 1.341 . S
N181 N180 1.365 . S
N181 H201 0.862 . S
C182 C177 1.501 . S
C182 H183 0.961 . S
C182 H184 0.961 . S
C182 H185 0.960 . S
H183 C182 0.961 . S
H184 C182 0.961 . S
H185 C182 0.960 . S
C186 N187 1.342 . S
C186 C190 1.401 . S
C186 C191 1.499 1_565 S
N187 Co170 1.989 . S
N187 C186 1.342 . S
N187 N188 1.388 . S
N188 Co171 1.993 . S
N188 N187 1.388 . S
N188 C189 1.346 . S
C189 N188 1.346 . S
C189 C190 1.396 . S
C189 C199 1.510 . S
C190 C186 1.401 . S
C190 C189 1.396 . S
C191 C186 1.499 1_545 S
C191 H192 0.959 . S
C191 H193 0.960 . S
C191 H194 0.961 1_545 S
H192 C191 0.959 . S
H193 C191 0.960 . S
H194 C191 0.961 1_565 S
O195 Co170 1.967 . S
O195 C203 1.258 . S
O196 Co171 1.941 . S
O196 C203 1.266 . S
H197 C199 0.959 . S
H198 C199 0.961 . S
C199 C189 1.510 . S
C199 H197 0.959 . S
C199 H198 0.961 . S
C199 H200 0.960 . S
H200 C199 0.960 . S
H201 N181 0.862 . S
O202 Co170 1.920 1_545 S
O202 C175 1.289 . S
C203 O195 1.258 . S
C203 O196 1.266 . S
Co204 O207 1.970 . S
Co204 N221 1.989 . S
Co204 O229 1.967 . S
Co204 O236 1.920 1_655 S
Co205 O208 1.966 . S
Co205 N214 2.022 . S
Co205 N222 1.993 . S
Co205 O230 1.941 . S
C206 O207 1.258 . S
C206 O208 1.263 . S
O207 Co204 1.970 . S
O207 C206 1.258 . S
O208 Co205 1.966 . S
O208 C206 1.263 . S
C209 O210 1.235 . S
C209 O236 1.289 . S
O210 C209 1.235 . S
C211 C213 1.400 . S
C211 N214 1.351 . S
C211 C216 1.501 . S
C212 C213 1.387 . S
C212 N215 1.341 . S
C213 C211 1.400 . S
C213 C212 1.387 . S
N214 Co205 2.022 . S
N214 C211 1.351 . S
N214 N215 1.365 . S
N215 C212 1.341 . S
N215 N214 1.365 . S
N215 H235 0.862 . S
C216 C211 1.501 . S
C216 H217 0.961 . S
C216 H218 0.961 . S
C216 H219 0.960 . S
H217 C216 0.961 . S
H218 C216 0.961 . S
H219 C216 0.960 . S
C220 N221 1.342 . S
C220 C224 1.401 . S
C220 C225 1.499 1_655 S
N221 Co204 1.989 . S
N221 C220 1.342 . S
N221 N222 1.388 . S
N222 Co205 1.993 . S
N222 N221 1.388 . S
N222 C223 1.346 . S
C223 N222 1.346 . S
C223 C224 1.396 . S
C223 C233 1.510 . S
C224 C220 1.401 . S
C224 C223 1.396 . S
C225 C220 1.499 1_455 S
C225 H226 0.959 . S
C225 H227 0.960 . S
C225 H228 0.961 1_455 S
H226 C225 0.959 . S
H227 C225 0.960 . S
H228 C225 0.961 1_655 S
O229 Co204 1.967 . S
O229 C237 1.258 . S
O230 Co205 1.941 . S
O230 C237 1.266 . S
H231 C233 0.959 . S
H232 C233 0.961 . S
C233 C223 1.510 . S
C233 H231 0.959 . S
C233 H232 0.961 . S
C233 H234 0.960 . S
H234 C233 0.960 . S
H235 N215 0.862 . S
O236 Co204 1.920 1_455 S
O236 C209 1.289 . S
C237 O229 1.258 . S
C237 O230 1.266 . S
Co238 O241 1.970 . S
Co238 N255 1.989 . S
Co238 O263 1.967 . S
Co238 O270 1.920 1_545 S
Co239 O242 1.966 . S
Co239 N248 2.022 . S
Co239 N256 1.993 . S
Co239 O264 1.941 . S
C240 O241 1.258 . S
C240 O242 1.263 . S
O241 Co238 1.970 . S
O241 C240 1.258 . S
O242 Co239 1.966 . S
O242 C240 1.263 . S
C243 O244 1.235 . S
C243 O270 1.289 . S
O244 C243 1.235 . S
C245 C247 1.400 . S
C245 N248 1.351 . S
C245 C250 1.501 . S
C246 C247 1.387 . S
C246 N249 1.341 . S
C247 C245 1.400 . S
C247 C246 1.387 . S
N248 Co239 2.022 . S
N248 C245 1.351 . S
N248 N249 1.365 . S
N249 C246 1.341 . S
N249 N248 1.365 . S
N249 H269 0.862 . S
C250 C245 1.501 . S
C250 H251 0.961 . S
C250 H252 0.961 . S
C250 H253 0.960 . S
H251 C250 0.961 . S
H252 C250 0.961 . S
H253 C250 0.960 . S
C254 N255 1.342 . S
C254 C258 1.401 . S
C254 C259 1.499 1_545 S
N255 Co238 1.989 . S
N255 C254 1.342 . S
N255 N256 1.388 . S
N256 Co239 1.993 . S
N256 N255 1.388 . S
N256 C257 1.346 . S
C257 N256 1.346 . S
C257 C258 1.396 . S
C257 C267 1.510 . S
C258 C254 1.401 . S
C258 C257 1.396 . S
C259 C254 1.499 1_565 S
C259 H260 0.959 . S
C259 H261 0.960 . S
C259 H262 0.961 1_565 S
H260 C259 0.959 . S
H261 C259 0.960 . S
H262 C259 0.961 1_545 S
O263 Co238 1.967 . S
O263 C271 1.258 . S
O264 Co239 1.941 . S
O264 C271 1.266 . S
H265 C267 0.959 . S
H266 C267 0.961 . S
C267 C257 1.510 . S
C267 H265 0.959 . S
C267 H266 0.961 . S
C267 H268 0.960 . S
H268 C267 0.960 . S
H269 N249 0.862 . S
O270 Co238 1.920 1_565 S
O270 C243 1.289 . S
C271 O263 1.258 . S
C271 O264 1.266 . S
Co272 O275 1.970 . S
Co272 N289 1.989 . S
Co272 O297 1.967 . S
Co272 O304 1.920 . S
Co273 O276 1.966 . S
Co273 N282 2.022 . S
Co273 N290 1.993 . S
Co273 O298 1.941 . S
C274 O275 1.258 . S
C274 O276 1.263 . S
O275 Co272 1.970 . S
O275 C274 1.258 . S
O276 Co273 1.966 . S
O276 C274 1.263 . S
C277 O278 1.235 . S
C277 O304 1.289 . S
O278 C277 1.235 . S
C279 C281 1.400 . S
C279 N282 1.351 . S
C279 C284 1.501 . S
C280 C281 1.387 . S
C280 N283 1.341 . S
C281 C279 1.400 . S
C281 C280 1.387 . S
N282 Co273 2.022 . S
N282 C279 1.351 . S
N282 N283 1.365 . S
N283 C280 1.341 . S
N283 N282 1.365 . S
N283 H303 0.862 . S
C284 C279 1.501 . S
C284 H285 0.961 . S
C284 H286 0.961 . S
C284 H287 0.960 . S
H285 C284 0.961 . S
H286 C284 0.961 . S
H287 C284 0.960 . S
C288 N289 1.342 . S
C288 C292 1.401 . S
C288 C293 1.499 . S
N289 Co272 1.989 . S
N289 C288 1.342 . S
N289 N290 1.388 . S
N290 Co273 1.993 . S
N290 N289 1.388 . S
N290 C291 1.346 . S
C291 N290 1.346 . S
C291 C292 1.396 . S
C291 C301 1.510 . S
C292 C288 1.401 . S
C292 C291 1.396 . S
C293 C288 1.499 . S
C293 H294 0.959 . S
C293 H295 0.960 . S
C293 H296 0.961 . S
H294 C293 0.959 . S
H295 C293 0.960 . S
H296 C293 0.961 . S
O297 Co272 1.967 . S
O297 C305 1.258 . S
O298 Co273 1.941 . S
O298 C305 1.266 . S
H299 C301 0.959 . S
H300 C301 0.961 . S
C301 C291 1.510 . S
C301 H299 0.959 . S
C301 H300 0.961 . S
C301 H302 0.960 . S
H302 C301 0.960 . S
H303 N283 0.862 . S
O304 Co272 1.920 . S
O304 C277 1.289 . S
C305 O297 1.258 . S
C305 O298 1.266 . S
Co306 O309 1.970 . S
Co306 N323 1.989 . S
Co306 O331 1.967 . S
Co306 O338 1.920 . S
Co307 O310 1.966 . S
Co307 N316 2.022 . S
Co307 N324 1.993 . S
Co307 O332 1.941 . S
C308 O309 1.258 . S
C308 O310 1.263 . S
O309 Co306 1.970 . S
O309 C308 1.258 . S
O310 Co307 1.966 . S
O310 C308 1.263 . S
C311 O312 1.235 . S
C311 O338 1.289 . S
O312 C311 1.235 . S
C313 C315 1.400 . S
C313 N316 1.351 . S
C313 C318 1.501 . S
C314 C315 1.387 . S
C314 N317 1.341 . S
C315 C313 1.400 . S
C315 C314 1.387 . S
N316 Co307 2.022 . S
N316 C313 1.351 . S
N316 N317 1.365 . S
N317 C314 1.341 . S
N317 N316 1.365 . S
N317 H337 0.862 . S
C318 C313 1.501 . S
C318 H319 0.961 . S
C318 H320 0.961 . S
C318 H321 0.960 . S
H319 C318 0.961 . S
H320 C318 0.961 . S
H321 C318 0.960 . S
C322 N323 1.342 . S
C322 C326 1.401 . S
C322 C327 1.499 . S
N323 Co306 1.989 . S
N323 C322 1.342 . S
N323 N324 1.388 . S
N324 Co307 1.993 . S
N324 N323 1.388 . S
N324 C325 1.346 . S
C325 N324 1.346 . S
C325 C326 1.396 . S
C325 C335 1.510 . S
C326 C322 1.401 . S
C326 C325 1.396 . S
C327 C322 1.499 . S
C327 H328 0.959 . S
C327 H329 0.960 . S
C327 H330 0.961 . S
H328 C327 0.959 . S
H329 C327 0.960 . S
H330 C327 0.961 . S
O331 Co306 1.967 . S
O331 C339 1.258 . S
O332 Co307 1.941 . S
O332 C339 1.266 . S
H333 C335 0.959 . S
H334 C335 0.961 . S
C335 C325 1.510 . S
C335 H333 0.959 . S
C335 H334 0.961 . S
C335 H336 0.960 . S
H336 C335 0.960 . S
H337 N317 0.862 . S
O338 Co306 1.920 . S
O338 C311 1.289 . S
C339 O331 1.258 . S
C339 O332 1.266 . S
Co340 O343 1.970 . S
Co340 N357 1.989 . S
Co340 O365 1.967 . S
Co340 O372 1.920 . S
Co341 O344 1.966 . S
Co341 N350 2.022 . S
Co341 N358 1.993 . S
Co341 O366 1.941 . S
C342 O343 1.258 . S
C342 O344 1.263 . S
O343 Co340 1.970 . S
O343 C342 1.258 . S
O344 Co341 1.966 . S
O344 C342 1.263 . S
C345 O346 1.235 . S
C345 O372 1.289 . S
O346 C345 1.235 . S
C347 C349 1.400 . S
C347 N350 1.351 . S
C347 C352 1.501 . S
C348 C349 1.387 . S
C348 N351 1.341 . S
C349 C347 1.400 . S
C349 C348 1.387 . S
N350 Co341 2.022 . S
N350 C347 1.351 . S
N350 N351 1.365 . S
N351 C348 1.341 . S
N351 N350 1.365 . S
N351 H371 0.862 . S
C352 C347 1.501 . S
C352 H353 0.961 . S
C352 H354 0.961 . S
C352 H355 0.960 . S
H353 C352 0.961 . S
H354 C352 0.961 . S
H355 C352 0.960 . S
C356 N357 1.342 . S
C356 C360 1.401 . S
C356 C361 1.499 . S
N357 Co340 1.989 . S
N357 C356 1.342 . S
N357 N358 1.388 . S
N358 Co341 1.993 . S
N358 N357 1.388 . S
N358 C359 1.346 . S
C359 N358 1.346 . S
C359 C360 1.396 . S
C359 C369 1.510 . S
C360 C356 1.401 . S
C360 C359 1.396 . S
C361 C356 1.499 . S
C361 H362 0.959 . S
C361 H363 0.960 . S
C361 H364 0.961 . S
H362 C361 0.959 . S
H363 C361 0.960 . S
H364 C361 0.961 . S
O365 Co340 1.967 . S
O365 C373 1.258 . S
O366 Co341 1.941 . S
O366 C373 1.266 . S
H367 C369 0.959 . S
H368 C369 0.961 . S
C369 C359 1.510 . S
C369 H367 0.959 . S
C369 H368 0.961 . S
C369 H370 0.960 . S
H370 C369 0.960 . S
H371 N351 0.862 . S
O372 Co340 1.920 . S
O372 C345 1.289 . S
C373 O365 1.258 . S
C373 O366 1.266 . S
Co374 O377 1.970 . S
Co374 N391 1.989 . S
Co374 O399 1.967 . S
Co374 O406 1.920 . S
Co375 O378 1.966 . S
Co375 N384 2.022 . S
Co375 N392 1.993 . S
Co375 O400 1.941 . S
C376 O377 1.258 . S
C376 O378 1.263 . S
O377 Co374 1.970 . S
O377 C376 1.258 . S
O378 Co375 1.966 . S
O378 C376 1.263 . S
C379 O380 1.235 . S
C379 O406 1.289 . S
O380 C379 1.235 . S
C381 C383 1.400 . S
C381 N384 1.351 . S
C381 C386 1.501 . S
C382 C383 1.387 . S
C382 N385 1.341 . S
C383 C381 1.400 . S
C383 C382 1.387 . S
N384 Co375 2.022 . S
N384 C381 1.351 . S
N384 N385 1.365 . S
N385 C382 1.341 . S
N385 N384 1.365 . S
N385 H405 0.862 . S
C386 C381 1.501 . S
C386 H387 0.961 . S
C386 H388 0.961 . S
C386 H389 0.960 . S
H387 C386 0.961 . S
H388 C386 0.961 . S
H389 C386 0.960 . S
C390 N391 1.342 . S
C390 C394 1.401 . S
C390 C395 1.499 . S
N391 Co374 1.989 . S
N391 C390 1.342 . S
N391 N392 1.388 . S
N392 Co375 1.993 . S
N392 N391 1.388 . S
N392 C393 1.346 . S
C393 N392 1.346 . S
C393 C394 1.396 . S
C393 C403 1.510 . S
C394 C390 1.401 . S
C394 C393 1.396 . S
C395 C390 1.499 . S
C395 H396 0.959 . S
C395 H397 0.960 . S
C395 H398 0.961 . S
H396 C395 0.959 . S
H397 C395 0.960 . S
H398 C395 0.961 . S
O399 Co374 1.967 . S
O399 C407 1.258 . S
O400 Co375 1.941 . S
O400 C407 1.266 . S
H401 C403 0.959 . S
H402 C403 0.961 . S
C403 C393 1.510 . S
C403 H401 0.959 . S
C403 H402 0.961 . S
C403 H404 0.960 . S
H404 C403 0.960 . S
H405 N385 0.862 . S
O406 Co374 1.920 . S
O406 C379 1.289 . S
C407 O399 1.258 . S
C407 O400 1.266 . S
Co408 O411 1.970 . S
Co408 N425 1.989 . S
Co408 O433 1.967 . S
Co408 O440 1.920 . S
Co409 O412 1.966 . S
Co409 N418 2.022 . S
Co409 N426 1.993 . S
Co409 O434 1.941 . S
C410 O411 1.258 . S
C410 O412 1.263 . S
O411 Co408 1.970 . S
O411 C410 1.258 . S
O412 Co409 1.966 . S
O412 C410 1.263 . S
C413 O414 1.235 . S
C413 O440 1.289 . S
O414 C413 1.235 . S
C415 C417 1.400 . S
C415 N418 1.351 . S
C415 C420 1.501 . S
C416 C417 1.387 . S
C416 N419 1.341 . S
C417 C415 1.400 . S
C417 C416 1.387 . S
N418 Co409 2.022 . S
N418 C415 1.351 . S
N418 N419 1.365 . S
N419 C416 1.341 . S
N419 N418 1.365 . S
N419 H439 0.862 . S
C420 C415 1.501 . S
C420 H421 0.961 . S
C420 H422 0.961 . S
C420 H423 0.960 . S
H421 C420 0.961 . S
H422 C420 0.961 . S
H423 C420 0.960 . S
C424 N425 1.342 . S
C424 C428 1.401 . S
C424 C429 1.499 . S
N425 Co408 1.989 . S
N425 C424 1.342 . S
N425 N426 1.388 . S
N426 Co409 1.993 . S
N426 N425 1.388 . S
N426 C427 1.346 . S
C427 N426 1.346 . S
C427 C428 1.396 . S
C427 C437 1.510 . S
C428 C424 1.401 . S
C428 C427 1.396 . S
C429 C424 1.499 . S
C429 H430 0.959 . S
C429 H431 0.960 . S
C429 H432 0.961 . S
H430 C429 0.959 . S
H431 C429 0.960 . S
H432 C429 0.961 . S
O433 Co408 1.967 . S
O433 C441 1.258 . S
O434 Co409 1.941 . S
O434 C441 1.266 . S
H435 C437 0.959 . S
H436 C437 0.961 . S
C437 C427 1.510 . S
C437 H435 0.959 . S
C437 H436 0.961 . S
C437 H438 0.960 . S
H438 C437 0.960 . S
H439 N419 0.862 . S
O440 Co408 1.920 . S
O440 C413 1.289 . S
C441 O433 1.258 . S
C441 O434 1.266 . S
Co442 O445 1.970 . S
Co442 N459 1.989 . S
Co442 O467 1.967 . S
Co442 O474 1.920 . S
Co443 O446 1.966 . S
Co443 N452 2.022 . S
Co443 N460 1.993 . S
Co443 O468 1.941 . S
C444 O445 1.258 . S
C444 O446 1.263 . S
O445 Co442 1.970 . S
O445 C444 1.258 . S
O446 Co443 1.966 . S
O446 C444 1.263 . S
C447 O448 1.235 . S
C447 O474 1.289 . S
O448 C447 1.235 . S
C449 C451 1.400 . S
C449 N452 1.351 . S
C449 C454 1.501 . S
C450 C451 1.387 . S
C450 N453 1.341 . S
C451 C449 1.400 . S
C451 C450 1.387 . S
N452 Co443 2.022 . S
N452 C449 1.351 . S
N452 N453 1.365 . S
N453 C450 1.341 . S
N453 N452 1.365 . S
N453 H473 0.862 . S
C454 C449 1.501 . S
C454 H455 0.961 . S
C454 H456 0.961 . S
C454 H457 0.960 . S
H455 C454 0.961 . S
H456 C454 0.961 . S
H457 C454 0.960 . S
C458 N459 1.342 . S
C458 C462 1.401 . S
C458 C463 1.499 . S
N459 Co442 1.989 . S
N459 C458 1.342 . S
N459 N460 1.388 . S
N460 Co443 1.993 . S
N460 N459 1.388 . S
N460 C461 1.346 . S
C461 N460 1.346 . S
C461 C462 1.396 . S
C461 C471 1.510 . S
C462 C458 1.401 . S
C462 C461 1.396 . S
C463 C458 1.499 . S
C463 H464 0.959 . S
C463 H465 0.960 . S
C463 H466 0.961 . S
H464 C463 0.959 . S
H465 C463 0.960 . S
H466 C463 0.961 . S
O467 Co442 1.967 . S
O467 C475 1.258 . S
O468 Co443 1.941 . S
O468 C475 1.266 . S
H469 C471 0.959 . S
H470 C471 0.961 . S
C471 C461 1.510 . S
C471 H469 0.959 . S
C471 H470 0.961 . S
C471 H472 0.960 . S
H472 C471 0.960 . S
H473 N453 0.862 . S
O474 Co442 1.920 . S
O474 C447 1.289 . S
C475 O467 1.258 . S
C475 O468 1.266 . S
Co476 O479 1.970 . S
Co476 N493 1.989 . S
Co476 O501 1.967 . S
Co476 O508 1.920 . S
Co477 O480 1.966 . S
Co477 N486 2.022 . S
Co477 N494 1.993 . S
Co477 O502 1.941 . S
C478 O479 1.258 . S
C478 O480 1.263 . S
O479 Co476 1.970 . S
O479 C478 1.258 . S
O480 Co477 1.966 . S
O480 C478 1.263 . S
C481 O482 1.235 . S
C481 O508 1.289 . S
O482 C481 1.235 . S
C483 C485 1.400 . S
C483 N486 1.351 . S
C483 C488 1.501 . S
C484 C485 1.387 . S
C484 N487 1.341 . S
C485 C483 1.400 . S
C485 C484 1.387 . S
N486 Co477 2.022 . S
N486 C483 1.351 . S
N486 N487 1.365 . S
N487 C484 1.341 . S
N487 N486 1.365 . S
N487 H507 0.862 . S
C488 C483 1.501 . S
C488 H489 0.961 . S
C488 H490 0.961 . S
C488 H491 0.960 . S
H489 C488 0.961 . S
H490 C488 0.961 . S
H491 C488 0.960 . S
C492 N493 1.342 . S
C492 C496 1.401 . S
C492 C497 1.499 . S
N493 Co476 1.989 . S
N493 C492 1.342 . S
N493 N494 1.388 . S
N494 Co477 1.993 . S
N494 N493 1.388 . S
N494 C495 1.346 . S
C495 N494 1.346 . S
C495 C496 1.396 . S
C495 C505 1.510 . S
C496 C492 1.401 . S
C496 C495 1.396 . S
C497 C492 1.499 . S
C497 H498 0.959 . S
C497 H499 0.960 . S
C497 H500 0.961 . S
H498 C497 0.959 . S
H499 C497 0.960 . S
H500 C497 0.961 . S
O501 Co476 1.967 . S
O501 C509 1.258 . S
O502 Co477 1.941 . S
O502 C509 1.266 . S
H503 C505 0.959 . S
H504 C505 0.961 . S
C505 C495 1.510 . S
C505 H503 0.959 . S
C505 H504 0.961 . S
C505 H506 0.960 . S
H506 C505 0.960 . S
H507 N487 0.862 . S
O508 Co476 1.920 . S
O508 C481 1.289 . S
C509 O501 1.258 . S
C509 O502 1.266 . S
Co510 O513 1.970 . S
Co510 N527 1.989 . S
Co510 O535 1.967 . S
Co510 O542 1.920 . S
Co511 O514 1.966 . S
Co511 N520 2.022 . S
Co511 N528 1.993 . S
Co511 O536 1.941 . S
C512 O513 1.258 . S
C512 O514 1.263 . S
O513 Co510 1.970 . S
O513 C512 1.258 . S
O514 Co511 1.966 . S
O514 C512 1.263 . S
C515 O516 1.235 . S
C515 O542 1.289 . S
O516 C515 1.235 . S
C517 C519 1.400 . S
C517 N520 1.351 . S
C517 C522 1.501 . S
C518 C519 1.387 . S
C518 N521 1.341 . S
C519 C517 1.400 . S
C519 C518 1.387 . S
N520 Co511 2.022 . S
N520 C517 1.351 . S
N520 N521 1.365 . S
N521 C518 1.341 . S
N521 N520 1.365 . S
N521 H541 0.862 . S
C522 C517 1.501 . S
C522 H523 0.961 . S
C522 H524 0.961 . S
C522 H525 0.960 . S
H523 C522 0.961 . S
H524 C522 0.961 . S
H525 C522 0.960 . S
C526 N527 1.342 . S
C526 C530 1.401 . S
C526 C531 1.499 . S
N527 Co510 1.989 . S
N527 C526 1.342 . S
N527 N528 1.388 . S
N528 Co511 1.993 . S
N528 N527 1.388 . S
N528 C529 1.346 . S
C529 N528 1.346 . S
C529 C530 1.396 . S
C529 C539 1.510 . S
C530 C526 1.401 . S
C530 C529 1.396 . S
C531 C526 1.499 . S
C531 H532 0.959 . S
C531 H533 0.960 . S
C531 H534 0.961 . S
H532 C531 0.959 . S
H533 C531 0.960 . S
H534 C531 0.961 . S
O535 Co510 1.967 . S
O535 C543 1.258 . S
O536 Co511 1.941 . S
O536 C543 1.266 . S
H537 C539 0.959 . S
H538 C539 0.961 . S
C539 C529 1.510 . S
C539 H537 0.959 . S
C539 H538 0.961 . S
C539 H540 0.960 . S
H540 C539 0.960 . S
H541 N521 0.862 . S
O542 Co510 1.920 . S
O542 C515 1.289 . S
C543 O535 1.258 . S
C543 O536 1.266 . S
H544 C552 0.929 . S
H545 C554 0.930 . S
H546 C556 0.930 . S
H547 C559 0.929 . S
H548 C562 0.930 . S
H549 C564 0.960 . S
H550 C564 0.960 . S
H551 C564 0.960 . S
C552 H544 0.929 . S
C552 C553 1.377 . S
C552 C554 1.384 . S
C553 C552 1.377 . S
C553 C559 1.390 . S
C554 H545 0.930 . S
C554 C552 1.384 . S
C554 C555 1.372 . S
C555 C554 1.372 . S
C555 C556 1.400 . S
C555 C560 1.490 . S
C556 H546 0.930 . S
C556 C555 1.400 . S
C556 C559 1.386 . S
H557 C573 0.930 . S
H558 C574 0.931 . S
C559 H547 0.929 . S
C559 C553 1.390 . S
C559 C556 1.386 . S
C560 C555 1.490 . S
C560 C562 1.395 . S
C560 C563 1.403 . S
H561 C567 0.930 . S
C562 H548 0.930 . S
C562 C560 1.395 . S
C562 C565 1.403 . S
C563 C560 1.403 . S
C563 C564 1.524 . S
C563 C567 1.400 . S
C564 H549 0.960 . S
C564 H550 0.960 . S
C564 H551 0.960 . S
C564 C563 1.524 . S
C565 C562 1.403 . S
C565 C566 1.392 . S
C565 C569 1.495 . S
C566 C565 1.392 . S
C566 C567 1.385 . S
C566 C568 1.478 . S
C567 H561 0.930 . S
C567 C563 1.400 . S
C567 C566 1.385 . S
C568 C566 1.478 . S
C568 C570 1.381 . S
C568 C574 1.383 . S
C569 C565 1.495 . S
C569 H575 0.959 . S
C569 H576 0.961 . S
C569 H577 0.960 . S
C570 C568 1.381 . S
C570 C571 1.394 . S
C570 H578 0.930 . S
C571 C570 1.394 . S
C571 C572 1.383 . S
C571 H579 0.929 . S
C572 C571 1.383 . S
C572 C573 1.377 . S
C573 H557 0.930 . S
C573 C572 1.377 . S
C573 C574 1.379 . S
C574 H558 0.931 . S
C574 C568 1.383 . S
C574 C573 1.379 . S
H575 C569 0.959 . S
H576 C569 0.961 . S
H577 C569 0.960 . S
H578 C570 0.930 . S
H579 C571 0.929 . S
H580 C588 0.929 . S
H581 C590 0.930 . S
H582 C592 0.930 . S
H583 C595 0.929 . S
H584 C598 0.930 . S
H585 C600 0.960 . S
H586 C600 0.960 . S
H587 C600 0.960 . S
C588 H580 0.929 . S
C588 C589 1.377 . S
C588 C590 1.384 . S
C589 C588 1.377 . S
C589 C595 1.390 . S
C590 H581 0.930 . S
C590 C588 1.384 . S
C590 C591 1.372 . S
C591 C590 1.372 . S
C591 C592 1.400 . S
C591 C596 1.490 . S
C592 H582 0.930 . S
C592 C591 1.400 . S
C592 C595 1.386 . S
H593 C609 0.930 . S
H594 C610 0.931 . S
C595 H583 0.929 . S
C595 C589 1.390 . S
C595 C592 1.386 . S
C596 C591 1.490 . S
C596 C598 1.395 . S
C596 C599 1.403 . S
H597 C603 0.930 . S
C598 H584 0.930 . S
C598 C596 1.395 . S
C598 C601 1.403 . S
C599 C596 1.403 . S
C599 C600 1.524 . S
C599 C603 1.400 . S
C600 H585 0.960 . S
C600 H586 0.960 . S
C600 H587 0.960 . S
C600 C599 1.524 . S
C601 C598 1.403 . S
C601 C602 1.392 . S
C601 C605 1.495 . S
C602 C601 1.392 . S
C602 C603 1.385 . S
C602 C604 1.478 . S
C603 H597 0.930 . S
C603 C599 1.400 . S
C603 C602 1.385 . S
C604 C602 1.478 . S
C604 C606 1.381 . S
C604 C610 1.383 . S
C605 C601 1.495 . S
C605 H611 0.959 . S
C605 H612 0.961 . S
C605 H613 0.960 . S
C606 C604 1.381 . S
C606 C607 1.394 . S
C606 H614 0.930 . S
C607 C606 1.394 . S
C607 C608 1.383 . S
C607 H615 0.929 . S
C608 C607 1.383 . S
C608 C609 1.377 . S
C609 H593 0.930 . S
C609 C608 1.377 . S
C609 C610 1.379 . S
C610 H594 0.931 . S
C610 C604 1.383 . S
C610 C609 1.379 . S
H611 C605 0.959 . S
H612 C605 0.961 . S
H613 C605 0.960 . S
H614 C606 0.930 . S
H615 C607 0.929 . S
H616 C624 0.929 . S
H617 C626 0.930 . S
H618 C628 0.930 . S
H619 C631 0.929 . S
H620 C634 0.930 . S
H621 C636 0.960 . S
H622 C636 0.960 . S
H623 C636 0.960 . S
C624 H616 0.929 . S
C624 C625 1.377 . S
C624 C626 1.384 . S
C625 C624 1.377 . S
C625 C631 1.390 . S
C626 H617 0.930 . S
C626 C624 1.384 . S
C626 C627 1.372 . S
C627 C626 1.372 . S
C627 C628 1.400 . S
C627 C632 1.490 . S
C628 H618 0.930 . S
C628 C627 1.400 . S
C628 C631 1.386 . S
H629 C645 0.930 . S
H630 C646 0.931 . S
C631 H619 0.929 . S
C631 C625 1.390 . S
C631 C628 1.386 . S
C632 C627 1.490 . S
C632 C634 1.395 . S
C632 C635 1.403 . S
H633 C639 0.930 . S
C634 H620 0.930 . S
C634 C632 1.395 . S
C634 C637 1.403 . S
C635 C632 1.403 . S
C635 C636 1.524 . S
C635 C639 1.400 . S
C636 H621 0.960 . S
C636 H622 0.960 . S
C636 H623 0.960 . S
C636 C635 1.524 . S
C637 C634 1.403 . S
C637 C638 1.392 . S
C637 C641 1.495 . S
C638 C637 1.392 . S
C638 C639 1.385 . S
C638 C640 1.478 . S
C639 H633 0.930 . S
C639 C635 1.400 . S
C639 C638 1.385 . S
C640 C638 1.478 . S
C640 C642 1.381 . S
C640 C646 1.383 . S
C641 C637 1.495 . S
C641 H647 0.959 . S
C641 H648 0.961 . S
C641 H649 0.960 . S
C642 C640 1.381 . S
C642 C643 1.394 . S
C642 H650 0.930 . S
C643 C642 1.394 . S
C643 C644 1.383 . S
C643 H651 0.929 . S
C644 C643 1.383 . S
C644 C645 1.377 . S
C645 H629 0.930 . S
C645 C644 1.377 . S
C645 C646 1.379 . S
C646 H630 0.931 . S
C646 C640 1.383 . S
C646 C645 1.379 . S
H647 C641 0.959 . S
H648 C641 0.961 . S
H649 C641 0.960 . S
H650 C642 0.930 . S
H651 C643 0.929 . S
H652 C660 0.929 . S
H653 C662 0.930 . S
H654 C664 0.930 . S
H655 C667 0.929 . S
H656 C670 0.930 . S
H657 C672 0.960 . S
H658 C672 0.960 . S
H659 C672 0.960 . S
C660 H652 0.929 . S
C660 C661 1.377 . S
C660 C662 1.384 . S
C661 C660 1.377 . S
C661 C667 1.390 . S
C662 H653 0.930 . S
C662 C660 1.384 . S
C662 C663 1.372 . S
C663 C662 1.372 . S
C663 C664 1.400 . S
C663 C668 1.490 . S
C664 H654 0.930 . S
C664 C663 1.400 . S
C664 C667 1.386 . S
H665 C681 0.930 . S
H666 C682 0.931 . S
C667 H655 0.929 . S
C667 C661 1.390 . S
C667 C664 1.386 . S
C668 C663 1.490 . S
C668 C670 1.395 . S
C668 C671 1.403 . S
H669 C675 0.930 . S
C670 H656 0.930 . S
C670 C668 1.395 . S
C670 C673 1.403 . S
C671 C668 1.403 . S
C671 C672 1.524 . S
C671 C675 1.400 . S
C672 H657 0.960 . S
C672 H658 0.960 . S
C672 H659 0.960 . S
C672 C671 1.524 . S
C673 C670 1.403 . S
C673 C674 1.392 . S
C673 C677 1.495 . S
C674 C673 1.392 . S
C674 C675 1.385 . S
C674 C676 1.478 . S
C675 H669 0.930 . S
C675 C671 1.400 . S
C675 C674 1.385 . S
C676 C674 1.478 . S
C676 C678 1.381 . S
C676 C682 1.383 . S
C677 C673 1.495 . S
C677 H683 0.959 . S
C677 H684 0.961 . S
C677 H685 0.960 . S
C678 C676 1.381 . S
C678 C679 1.394 . S
C678 H686 0.930 . S
C679 C678 1.394 . S
C679 C680 1.383 . S
C679 H687 0.929 . S
C680 C679 1.383 . S
C680 C681 1.377 . S
C681 H665 0.930 . S
C681 C680 1.377 . S
C681 C682 1.379 . S
C682 H666 0.931 . S
C682 C676 1.383 . S
C682 C681 1.379 . S
H683 C677 0.959 . S
H684 C677 0.961 . S
H685 C677 0.960 . S
H686 C678 0.930 . S
H687 C679 0.929 . S
H688 C696 0.929 . S
H689 C698 0.930 . S
H690 C700 0.930 . S
H691 C703 0.929 . S
H692 C706 0.930 . S
H693 C708 0.960 . S
H694 C708 0.960 . S
H695 C708 0.960 . S
C696 H688 0.929 . S
C696 C697 1.377 . S
C696 C698 1.384 . S
C697 C696 1.377 . S
C697 C703 1.390 . S
C698 H689 0.930 . S
C698 C696 1.384 . S
C698 C699 1.372 . S
C699 C698 1.372 . S
C699 C700 1.400 . S
C699 C704 1.490 . S
C700 H690 0.930 . S
C700 C699 1.400 . S
C700 C703 1.386 . S
H701 C717 0.930 . S
H702 C718 0.931 . S
C703 H691 0.929 . S
C703 C697 1.390 . S
C703 C700 1.386 . S
C704 C699 1.490 . S
C704 C706 1.395 . S
C704 C707 1.403 1_554 S
H705 C711 0.930 . S
C706 H692 0.930 . S
C706 C704 1.395 . S
C706 C709 1.398 1_554 S
C707 C704 1.403 1_556 S
C707 C708 1.524 . S
C707 C711 1.400 . S
C708 H693 0.960 . S
C708 H694 0.960 . S
C708 H695 0.960 . S
C708 C707 1.524 . S
C709 C706 1.398 1_556 S
C709 C710 1.400 . S
C709 C713 1.493 1_556 S
C710 C709 1.400 . S
C710 C711 1.385 . S
C710 C712 1.478 . S
C711 H705 0.930 . S
C711 C707 1.400 . S
C711 C710 1.385 . S
C712 C710 1.478 . S
C712 C714 1.381 . S
C712 C718 1.383 . S
C713 C709 1.493 1_554 S
C713 H719 0.959 . S
C713 H720 0.982 . S
C713 H721 0.917 1_554 S
C714 C712 1.381 . S
C714 C715 1.394 . S
C714 H722 0.930 . S
C715 C714 1.394 . S
C715 C716 1.383 . S
C715 H723 0.929 . S
C716 C715 1.383 . S
C716 C717 1.377 . S
C717 H701 0.930 . S
C717 C716 1.377 . S
C717 C718 1.379 . S
C718 H702 0.931 . S
C718 C712 1.383 . S
C718 C717 1.379 . S
H719 C713 0.959 . S
H720 C713 0.982 . S
H721 C713 0.917 1_556 S
H722 C714 0.930 . S
H723 C715 0.929 . S
H724 C732 0.929 . S
H725 C734 0.930 . S
H726 C736 0.930 . S
H727 C739 0.929 . S
H728 C742 0.931 1_556 S
H729 C744 0.960 . S
H730 C744 0.960 . S
H731 C744 0.960 . S
C732 H724 0.929 . S
C732 C733 1.377 . S
C732 C734 1.384 . S
C733 C732 1.377 . S
C733 C739 1.390 . S
C734 H725 0.930 . S
C734 C732 1.384 . S
C734 C735 1.372 . S
C735 C734 1.372 . S
C735 C736 1.400 . S
C735 C740 1.490 . S
C736 H726 0.930 . S
C736 C735 1.400 . S
C736 C739 1.386 . S
H737 C753 0.930 . S
H738 C754 0.931 . S
C739 H727 0.929 . S
C739 C733 1.390 . S
C739 C736 1.386 . S
C740 C735 1.490 . S
C740 C742 1.395 1_556 S
C740 C743 1.403 . S
H741 C747 0.930 . S
C742 H728 0.931 1_554 S
C742 C740 1.395 1_554 S
C742 C745 1.403 . S
C743 C740 1.403 . S
C743 C744 1.524 . S
C743 C747 1.400 1_556 S
C744 H729 0.960 . S
C744 H730 0.960 . S
C744 H731 0.960 . S
C744 C743 1.524 . S
C745 C742 1.403 . S
C745 C746 1.392 . S
C745 C749 1.495 . S
C746 C745 1.392 . S
C746 C747 1.385 . S
C746 C748 1.478 . S
C747 H741 0.930 . S
C747 C743 1.400 1_554 S
C747 C746 1.385 . S
C748 C746 1.478 . S
C748 C750 1.381 . S
C748 C754 1.383 . S
C749 C745 1.495 . S
C749 H755 0.959 . S
C749 H756 0.961 . S
C749 H757 0.960 . S
C750 C748 1.381 . S
C750 C751 1.394 . S
C750 H758 0.930 . S
C751 C750 1.394 . S
C751 C752 1.383 . S
C751 H759 0.929 . S
C752 C751 1.383 . S
C752 C753 1.377 . S
C753 H737 0.930 . S
C753 C752 1.377 . S
C753 C754 1.379 . S
C754 H738 0.931 . S
C754 C748 1.383 . S
C754 C753 1.379 . S
H755 C749 0.959 . S
H756 C749 0.961 . S
H757 C749 0.960 . S
H758 C750 0.930 . S
H759 C751 0.929 . S
H760 C768 0.929 . S
H761 C770 0.930 . S
H762 C772 0.930 . S
H763 C775 0.929 . S
H764 C778 0.930 . S
H765 C780 0.976 . S
H766 C780 0.958 1_556 S
H767 C780 0.949 1_556 S
C768 H760 0.929 . S
C768 C769 1.377 . S
C768 C770 1.384 . S
C769 C768 1.377 . S
C769 C775 1.390 . S
C770 H761 0.930 . S
C770 C768 1.384 . S
C770 C771 1.372 . S
C771 C770 1.372 . S
C771 C772 1.400 . S
C771 C776 1.490 . S
C772 H762 0.930 . S
C772 C771 1.400 . S
C772 C775 1.386 . S
H773 C789 0.930 . S
H774 C790 0.931 . S
C775 H763 0.929 . S
C775 C769 1.390 . S
C775 C772 1.386 . S
C776 C771 1.490 . S
C776 C778 1.395 . S
C776 C779 1.403 . S
H777 C783 0.930 . S
C778 H764 0.930 . S
C778 C776 1.395 . S
C778 C781 1.403 . S
C779 C776 1.403 . S
C779 C780 1.520 1_556 S
C779 C783 1.400 1_556 S
C780 H765 0.976 . S
C780 H766 0.958 1_554 S
C780 H767 0.949 1_554 S
C780 C779 1.520 1_554 S
C781 C778 1.403 . S
C781 C782 1.392 1_556 S
C781 C785 1.495 . S
C782 C781 1.392 1_554 S
C782 C783 1.385 . S
C782 C784 1.478 . S
C783 H777 0.930 . S
C783 C779 1.400 1_554 S
C783 C782 1.385 . S
C784 C782 1.478 . S
C784 C786 1.381 . S
C784 C790 1.383 . S
C785 C781 1.495 . S
C785 H791 0.959 . S
C785 H792 0.961 . S
C785 H793 0.960 . S
C786 C784 1.381 . S
C786 C787 1.394 . S
C786 H794 0.930 . S
C787 C786 1.394 . S
C787 C788 1.383 . S
C787 H795 0.929 . S
C788 C787 1.383 . S
C788 C789 1.377 . S
C789 H773 0.930 . S
C789 C788 1.377 . S
C789 C790 1.379 . S
C790 H774 0.931 . S
C790 C784 1.383 . S
C790 C789 1.379 . S
H791 C785 0.959 . S
H792 C785 0.961 . S
H793 C785 0.960 . S
H794 C786 0.930 . S
H795 C787 0.929 . S
H796 C804 0.929 . S
H797 C806 0.930 . S
H798 C808 0.930 . S
H799 C811 0.929 . S
H800 C814 0.930 . S
H801 C816 0.960 . S
H802 C816 0.960 . S
H803 C816 0.960 . S
C804 H796 0.929 . S
C804 C805 1.377 . S
C804 C806 1.384 . S
C805 C804 1.377 . S
C805 C811 1.390 . S
C806 H797 0.930 . S
C806 C804 1.384 . S
C806 C807 1.372 . S
C807 C806 1.372 . S
C807 C808 1.400 . S
C807 C812 1.490 . S
C808 H798 0.930 . S
C808 C807 1.400 . S
C808 C811 1.386 . S
H809 C825 0.930 . S
H810 C826 0.931 . S
C811 H799 0.929 . S
C811 C805 1.390 . S
C811 C808 1.386 . S
C812 C807 1.490 . S
C812 C814 1.395 . S
C812 C815 1.403 . S
H813 C819 0.950 . S
C814 H800 0.930 . S
C814 C812 1.395 . S
C814 C817 1.403 1_554 S
C815 C812 1.403 . S
C815 C816 1.524 . S
C815 C819 1.400 . S
C816 H801 0.960 . S
C816 H802 0.960 . S
C816 H803 0.960 . S
C816 C815 1.524 . S
C817 C814 1.403 1_556 S
C817 C818 1.392 . S
C817 C821 1.495 . S
C818 C817 1.392 . S
C818 C819 1.385 1_556 S
C818 C820 1.478 . S
C819 H813 0.950 . S
C819 C815 1.400 . S
C819 C818 1.385 1_554 S
C820 C818 1.478 . S
C820 C822 1.381 . S
C820 C826 1.383 . S
C821 C817 1.495 . S
C821 H827 0.959 . S
C821 H828 0.961 . S
C821 H829 0.960 . S
C822 C820 1.381 . S
C822 C823 1.394 . S
C822 H830 0.930 . S
C823 C822 1.394 . S
C823 C824 1.383 . S
C823 H831 0.929 . S
C824 C823 1.383 . S
C824 C825 1.377 . S
C825 H809 0.930 . S
C825 C824 1.377 . S
C825 C826 1.379 . S
C826 H810 0.931 . S
C826 C820 1.383 . S
C826 C825 1.379 . S
H827 C821 0.959 . S
H828 C821 0.961 . S
H829 C821 0.960 . S
H830 C822 0.930 . S
H831 C823 0.929 . S
H832 C840 0.929 . S
H833 C842 0.930 . S
H834 C844 0.930 . S
H835 C847 0.929 . S
H836 C850 0.930 . S
H837 C852 0.960 . S
H838 C852 0.960 . S
H839 C852 0.960 . S
C840 H832 0.929 . S
C840 C841 1.377 . S
C840 C842 1.384 . S
C841 C840 1.377 . S
C841 C847 1.390 . S
C842 H833 0.930 . S
C842 C840 1.384 . S
C842 C843 1.372 . S
C843 C842 1.372 . S
C843 C844 1.400 . S
C843 C848 1.490 . S
C844 H834 0.930 . S
C844 C843 1.400 . S
C844 C847 1.386 . S
H845 C861 0.930 . S
H846 C862 0.931 . S
C847 H835 0.929 . S
C847 C841 1.390 . S
C847 C844 1.386 . S
C848 C843 1.490 . S
C848 C850 1.395 . S
C848 C851 1.403 . S
H849 C855 0.930 . S
C850 H836 0.930 . S
C850 C848 1.395 . S
C850 C853 1.403 . S
C851 C848 1.403 . S
C851 C852 1.524 . S
C851 C855 1.400 . S
C852 H837 0.960 . S
C852 H838 0.960 . S
C852 H839 0.960 . S
C852 C851 1.524 . S
C853 C850 1.403 . S
C853 C854 1.392 . S
C853 C857 1.495 . S
C854 C853 1.392 . S
C854 C855 1.385 . S
C854 C856 1.478 . S
C855 H849 0.930 . S
C855 C851 1.400 . S
C855 C854 1.385 . S
C856 C854 1.478 . S
C856 C858 1.381 . S
C856 C862 1.383 . S
C857 C853 1.495 . S
C857 H863 0.959 . S
C857 H864 0.961 . S
C857 H865 0.960 . S
C858 C856 1.381 . S
C858 C859 1.394 . S
C858 H866 0.930 . S
C859 C858 1.394 . S
C859 C860 1.383 . S
C859 H867 0.929 . S
C860 C859 1.383 . S
C860 C861 1.377 . S
C861 H845 0.930 . S
C861 C860 1.377 . S
C861 C862 1.379 . S
C862 H846 0.931 . S
C862 C856 1.383 . S
C862 C861 1.379 . S
H863 C857 0.959 . S
H864 C857 0.961 . S
H865 C857 0.960 . S
H866 C858 0.930 . S
H867 C859 0.929 . S
H868 C876 0.929 . S
H869 C878 0.930 . S
H870 C880 0.930 . S
H871 C883 0.929 . S
H872 C886 0.930 . S
H873 C888 0.960 . S
H874 C888 0.960 . S
H875 C888 0.960 . S
C876 H868 0.929 . S
C876 C877 1.377 . S
C876 C878 1.384 . S
C877 C876 1.377 . S
C877 C883 1.390 . S
C878 H869 0.930 . S
C878 C876 1.384 . S
C878 C879 1.372 . S
C879 C878 1.372 . S
C879 C880 1.400 . S
C879 C884 1.490 . S
C880 H870 0.930 . S
C880 C879 1.400 . S
C880 C883 1.386 . S
H881 C897 0.930 . S
H882 C898 0.931 . S
C883 H871 0.929 . S
C883 C877 1.390 . S
C883 C880 1.386 . S
C884 C879 1.490 . S
C884 C886 1.395 . S
C884 C887 1.403 . S
H885 C891 0.930 . S
C886 H872 0.930 . S
C886 C884 1.395 . S
C886 C889 1.403 . S
C887 C884 1.403 . S
C887 C888 1.524 . S
C887 C891 1.400 . S
C888 H873 0.960 . S
C888 H874 0.960 . S
C888 H875 0.960 . S
C888 C887 1.524 . S
C889 C886 1.403 . S
C889 C890 1.392 . S
C889 C893 1.495 . S
C890 C889 1.392 . S
C890 C891 1.385 . S
C890 C892 1.478 . S
C891 H885 0.930 . S
C891 C887 1.400 . S
C891 C890 1.385 . S
C892 C890 1.478 . S
C892 C894 1.381 . S
C892 C898 1.383 . S
C893 C889 1.495 . S
C893 H899 0.959 . S
C893 H900 0.961 . S
C893 H901 0.960 . S
C894 C892 1.381 . S
C894 C895 1.394 . S
C894 H902 0.930 . S
C895 C894 1.394 . S
C895 C896 1.383 . S
C895 H903 0.929 . S
C896 C895 1.383 . S
C896 C897 1.377 . S
C897 H881 0.930 . S
C897 C896 1.377 . S
C897 C898 1.379 . S
C898 H882 0.931 . S
C898 C892 1.383 . S
C898 C897 1.379 . S
H899 C893 0.959 . S
H900 C893 0.961 . S
H901 C893 0.960 . S
H902 C894 0.930 . S
H903 C895 0.929 . S
H904 C912 0.929 . S
H905 C914 0.930 . S
H906 C916 0.930 . S
H907 C919 0.929 . S
H908 C922 0.930 . S
H909 C924 0.960 . S
H910 C924 0.960 . S
H911 C924 0.960 . S
C912 H904 0.929 . S
C912 C913 1.377 . S
C912 C914 1.384 . S
C913 C912 1.377 . S
C913 C919 1.390 . S
C914 H905 0.930 . S
C914 C912 1.384 . S
C914 C915 1.372 . S
C915 C914 1.372 . S
C915 C916 1.400 . S
C915 C920 1.490 . S
C916 H906 0.930 . S
C916 C915 1.400 . S
C916 C919 1.386 . S
H917 C933 0.930 . S
H918 C934 0.931 . S
C919 H907 0.929 . S
C919 C913 1.390 . S
C919 C916 1.386 . S
C920 C915 1.490 . S
C920 C922 1.395 . S
C920 C923 1.403 . S
H921 C927 0.930 . S
C922 H908 0.930 . S
C922 C920 1.395 . S
C922 C925 1.403 . S
C923 C920 1.403 . S
C923 C924 1.524 . S
C923 C927 1.400 . S
C924 H909 0.960 . S
C924 H910 0.960 . S
C924 H911 0.960 . S
C924 C923 1.524 . S
C925 C922 1.403 . S
C925 C926 1.392 . S
C925 C929 1.495 . S
C926 C925 1.392 . S
C926 C927 1.385 . S
C926 C928 1.478 . S
C927 H921 0.930 . S
C927 C923 1.400 . S
C927 C926 1.385 . S
C928 C926 1.478 . S
C928 C930 1.381 . S
C928 C934 1.383 . S
C929 C925 1.495 . S
C929 H935 0.959 . S
C929 H936 0.961 . S
C929 H937 0.960 . S
C930 C928 1.381 . S
C930 C931 1.394 . S
C930 H938 0.930 . S
C931 C930 1.394 . S
C931 C932 1.383 . S
C931 H939 0.929 . S
C932 C931 1.383 . S
C932 C933 1.377 . S
C933 H917 0.930 . S
C933 C932 1.377 . S
C933 C934 1.379 . S
C934 H918 0.931 . S
C934 C928 1.383 . S
C934 C933 1.379 . S
H935 C929 0.959 . S
H936 C929 0.961 . S
H937 C929 0.960 . S
H938 C930 0.930 . S
H939 C931 0.929 . S
H940 C948 0.929 . S
H941 C950 0.930 . S
H942 C952 0.930 . S
H943 C955 0.929 . S
H944 C958 0.930 . S
H945 C960 0.960 . S
H946 C960 0.960 . S
H947 C960 0.960 . S
C948 H940 0.929 . S
C948 C949 1.377 . S
C948 C950 1.384 . S
C949 C948 1.377 . S
C949 C955 1.390 . S
C950 H941 0.930 . S
C950 C948 1.384 . S
C950 C951 1.372 . S
C951 C950 1.372 . S
C951 C952 1.400 . S
C951 C956 1.490 . S
C952 H942 0.930 . S
C952 C951 1.400 . S
C952 C955 1.386 . S
H953 C969 0.930 . S
H954 C970 0.931 . S
C955 H943 0.929 . S
C955 C949 1.390 . S
C955 C952 1.386 . S
C956 C951 1.490 . S
C956 C958 1.395 . S
C956 C959 1.403 . S
H957 C963 0.930 . S
C958 H944 0.930 . S
C958 C956 1.395 . S
C958 C961 1.403 . S
C959 C956 1.403 . S
C959 C960 1.524 . S
C959 C963 1.400 . S
C960 H945 0.960 . S
C960 H946 0.960 . S
C960 H947 0.960 . S
C960 C959 1.524 . S
C961 C958 1.403 . S
C961 C962 1.392 . S
C961 C965 1.495 . S
C962 C961 1.392 . S
C962 C963 1.385 . S
C962 C964 1.478 . S
C963 H957 0.930 . S
C963 C959 1.400 . S
C963 C962 1.385 . S
C964 C962 1.478 . S
C964 C966 1.381 . S
C964 C970 1.383 . S
C965 C961 1.495 . S
C965 H971 0.959 . S
C965 H972 0.961 . S
C965 H973 0.960 . S
C966 C964 1.381 . S
C966 C967 1.394 . S
C966 H974 0.930 . S
C967 C966 1.394 . S
C967 C968 1.383 . S
C967 H975 0.929 . S
C968 C967 1.383 . S
C968 C969 1.377 . S
C969 H953 0.930 . S
C969 C968 1.377 . S
C969 C970 1.379 . S
C970 H954 0.931 . S
C970 C964 1.383 . S
C970 C969 1.379 . S
H971 C965 0.959 . S
H972 C965 0.961 . S
H973 C965 0.960 . S
H974 C966 0.930 . S
H975 C967 0.929 . S
H976 C984 0.929 . S
H977 C986 0.930 . S
H978 C988 0.930 . S
H979 C991 0.929 . S
H980 C994 0.930 . S
H981 C996 0.960 . S
H982 C996 0.960 . S
H983 C996 0.960 . S
C984 H976 0.929 . S
C984 C985 1.377 . S
C984 C986 1.384 . S
C985 C984 1.377 . S
C985 C991 1.390 . S
C986 H977 0.930 . S
C986 C984 1.384 . S
C986 C987 1.372 . S
C987 C986 1.372 . S
C987 C988 1.400 . S
C987 C992 1.490 . S
C988 H978 0.930 . S
C988 C987 1.400 . S
C988 C991 1.386 . S
H989 C1005 0.930 . S
H990 C1006 0.931 . S
C991 H979 0.929 . S
C991 C985 1.390 . S
C991 C988 1.386 . S
C992 C987 1.490 . S
C992 C994 1.395 . S
C992 C995 1.403 . S
H993 C999 0.930 . S
C994 H980 0.930 . S
C994 C992 1.395 . S
C994 C997 1.403 . S
C995 C992 1.403 . S
C995 C996 1.524 . S
C995 C999 1.400 . S
C996 H981 0.960 . S
C996 H982 0.960 . S
C996 H983 0.960 . S
C996 C995 1.524 . S
C997 C994 1.403 . S
C997 C998 1.392 . S
C997 C1001 1.495 . S
C998 C997 1.392 . S
C998 C999 1.385 . S
C998 C1000 1.478 . S
C999 H993 0.930 . S
C999 C995 1.400 . S
C999 C998 1.385 . S
C1000 C998 1.478 . S
C1000 C1002 1.381 . S
C1000 C1006 1.383 . S
C1001 C997 1.495 . S
C1001 H1007 0.959 . S
C1001 H1008 0.961 . S
C1001 H1009 0.960 . S
C1002 C1000 1.381 . S
C1002 C1003 1.394 . S
C1002 H1010 0.930 . S
C1003 C1002 1.394 . S
C1003 C1004 1.383 . S
C1003 H1011 0.929 . S
C1004 C1003 1.383 . S
C1004 C1005 1.377 . S
C1005 H989 0.930 . S
C1005 C1004 1.377 . S
C1005 C1006 1.379 . S
C1006 H990 0.931 . S
C1006 C1000 1.383 . S
C1006 C1005 1.379 . S
H1007 C1001 0.959 . S
H1008 C1001 0.961 . S
H1009 C1001 0.960 . S
H1010 C1002 0.930 . S
H1011 C1003 0.929 . S
H1012 C1020 0.929 . S
H1013 C1022 0.930 . S
H1014 C1024 0.930 . S
H1015 C1027 0.929 . S
H1016 C1030 0.930 . S
H1017 C1032 0.960 . S
H1018 C1032 0.960 . S
H1019 C1032 0.960 . S
C1020 H1012 0.929 . S
C1020 C1021 1.377 . S
C1020 C1022 1.384 . S
C1021 C1020 1.377 . S
C1021 C1027 1.390 . S
C1022 H1013 0.930 . S
C1022 C1020 1.384 . S
C1022 C1023 1.372 . S
C1023 C1022 1.372 . S
C1023 C1024 1.400 . S
C1023 C1028 1.490 . S
C1024 H1014 0.930 . S
C1024 C1023 1.400 . S
C1024 C1027 1.386 . S
H1025 C1041 0.930 . S
H1026 C1042 0.931 . S
C1027 H1015 0.929 . S
C1027 C1021 1.390 . S
C1027 C1024 1.386 . S
C1028 C1023 1.490 . S
C1028 C1030 1.395 . S
C1028 C1031 1.403 . S
H1029 C1035 0.930 . S
C1030 H1016 0.930 . S
C1030 C1028 1.395 . S
C1030 C1033 1.403 . S
C1031 C1028 1.403 . S
C1031 C1032 1.524 . S
C1031 C1035 1.400 . S
C1032 H1017 0.960 . S
C1032 H1018 0.960 . S
C1032 H1019 0.960 . S
C1032 C1031 1.524 . S
C1033 C1030 1.403 . S
C1033 C1034 1.392 . S
C1033 C1037 1.495 . S
C1034 C1033 1.392 . S
C1034 C1035 1.385 . S
C1034 C1036 1.478 . S
C1035 H1029 0.930 . S
C1035 C1031 1.400 . S
C1035 C1034 1.385 . S
C1036 C1034 1.478 . S
C1036 C1038 1.381 . S
C1036 C1042 1.383 . S
C1037 C1033 1.495 . S
C1037 H1043 0.959 . S
C1037 H1044 0.961 . S
C1037 H1045 0.960 . S
C1038 C1036 1.381 . S
C1038 C1039 1.394 . S
C1038 H1046 0.930 . S
C1039 C1038 1.394 . S
C1039 C1040 1.383 . S
C1039 H1047 0.929 . S
C1040 C1039 1.383 . S
C1040 C1041 1.377 . S
C1041 H1025 0.930 . S
C1041 C1040 1.377 . S
C1041 C1042 1.379 . S
C1042 H1026 0.931 . S
C1042 C1036 1.383 . S
C1042 C1041 1.379 . S
H1043 C1037 0.959 . S
H1044 C1037 0.961 . S
H1045 C1037 0.960 . S
H1046 C1038 0.930 . S
H1047 C1039 0.929 . S
H1048 C1056 0.929 . S
H1049 C1058 0.930 . S
H1050 C1060 0.930 . S
H1051 C1063 0.929 . S
H1052 C1066 0.930 . S
H1053 C1068 0.960 . S
H1054 C1068 0.960 . S
H1055 C1068 0.960 . S
C1056 H1048 0.929 . S
C1056 C1057 1.377 . S
C1056 C1058 1.384 . S
C1057 C1056 1.377 . S
C1057 C1063 1.390 . S
C1058 H1049 0.930 . S
C1058 C1056 1.384 . S
C1058 C1059 1.372 . S
C1059 C1058 1.372 . S
C1059 C1060 1.400 . S
C1059 C1064 1.490 . S
C1060 H1050 0.930 . S
C1060 C1059 1.400 . S
C1060 C1063 1.386 . S
H1061 C1077 0.930 . S
H1062 C1078 0.931 . S
C1063 H1051 0.929 . S
C1063 C1057 1.390 . S
C1063 C1060 1.386 . S
C1064 C1059 1.490 . S
C1064 C1066 1.395 . S
C1064 C1067 1.403 . S
H1065 C1071 0.930 . S
C1066 H1052 0.930 . S
C1066 C1064 1.395 . S
C1066 C1069 1.403 . S
C1067 C1064 1.403 . S
C1067 C1068 1.524 . S
C1067 C1071 1.400 . S
C1068 H1053 0.960 . S
C1068 H1054 0.960 . S
C1068 H1055 0.960 . S
C1068 C1067 1.524 . S
C1069 C1066 1.403 . S
C1069 C1070 1.392 . S
C1069 C1073 1.495 . S
C1070 C1069 1.392 . S
C1070 C1071 1.385 . S
C1070 C1072 1.478 . S
C1071 H1065 0.930 . S
C1071 C1067 1.400 . S
C1071 C1070 1.385 . S
C1072 C1070 1.478 . S
C1072 C1074 1.381 . S
C1072 C1078 1.383 . S
C1073 C1069 1.495 . S
C1073 H1079 0.959 . S
C1073 H1080 0.961 . S
C1073 H1081 0.960 . S
C1074 C1072 1.381 . S
C1074 C1075 1.394 . S
C1074 H1082 0.930 . S
C1075 C1074 1.394 . S
C1075 C1076 1.383 . S
C1075 H1083 0.929 . S
C1076 C1075 1.383 . S
C1076 C1077 1.377 . S
C1077 H1061 0.930 . S
C1077 C1076 1.377 . S
C1077 C1078 1.379 . S
C1078 H1062 0.931 . S
C1078 C1072 1.383 . S
C1078 C1077 1.379 . S
H1079 C1073 0.959 . S
H1080 C1073 0.961 . S
H1081 C1073 0.960 . S
H1082 C1074 0.930 . S
H1083 C1075 0.929 . S
H1084 C1092 0.929 . S
H1085 C1094 0.930 . S
H1086 C1096 0.930 . S
H1087 C1099 0.929 . S
H1088 C1102 0.930 . S
H1089 C1104 0.960 . S
H1090 C1104 0.960 . S
H1091 C1104 0.960 . S
C1092 H1084 0.929 . S
C1092 C1093 1.377 . S
C1092 C1094 1.384 . S
C1093 C1092 1.377 . S
C1093 C1099 1.390 . S
C1094 H1085 0.930 . S
C1094 C1092 1.384 . S
C1094 C1095 1.372 . S
C1095 C1094 1.372 . S
C1095 C1096 1.400 . S
C1095 C1100 1.490 . S
C1096 H1086 0.930 . S
C1096 C1095 1.400 . S
C1096 C1099 1.386 . S
H1097 C1113 0.930 . S
H1098 C1114 0.931 . S
C1099 H1087 0.929 . S
C1099 C1093 1.390 . S
C1099 C1096 1.386 . S
C1100 C1095 1.490 . S
C1100 C1102 1.395 . S
C1100 C1103 1.403 . S
H1101 C1107 0.930 . S
C1102 H1088 0.930 . S
C1102 C1100 1.395 . S
C1102 C1105 1.403 . S
C1103 C1100 1.403 . S
C1103 C1104 1.524 . S
C1103 C1107 1.400 . S
C1104 H1089 0.960 . S
C1104 H1090 0.960 . S
C1104 H1091 0.960 . S
C1104 C1103 1.524 . S
C1105 C1102 1.403 . S
C1105 C1106 1.392 . S
C1105 C1109 1.495 . S
C1106 C1105 1.392 . S
C1106 C1107 1.385 . S
C1106 C1108 1.478 . S
C1107 H1101 0.930 . S
C1107 C1103 1.400 . S
C1107 C1106 1.385 . S
C1108 C1106 1.478 . S
C1108 C1110 1.381 . S
C1108 C1114 1.383 . S
C1109 C1105 1.495 . S
C1109 H1115 0.959 . S
C1109 H1116 0.961 . S
C1109 H1117 0.960 . S
C1110 C1108 1.381 . S
C1110 C1111 1.394 . S
C1110 H1118 0.930 . S
C1111 C1110 1.394 . S
C1111 C1112 1.383 . S
C1111 H1119 0.929 . S
C1112 C1111 1.383 . S
C1112 C1113 1.377 . S
C1113 H1097 0.930 . S
C1113 C1112 1.377 . S
C1113 C1114 1.379 . S
C1114 H1098 0.931 . S
C1114 C1108 1.383 . S
C1114 C1113 1.379 . S
H1115 C1109 0.959 . S
H1116 C1109 0.961 . S
H1117 C1109 0.960 . S
H1118 C1110 0.930 . S
H1119 C1111 0.929 . S
H1120 C1128 0.929 . S
H1121 C1130 0.930 . S
H1122 C1132 0.930 . S
H1123 C1135 0.929 . S
H1124 C1138 0.930 . S
H1125 C1140 0.960 1_565 S
H1126 C1140 0.960 . S
H1127 C1140 0.960 . S
C1128 H1120 0.929 . S
C1128 C1129 1.377 . S
C1128 C1130 1.384 . S
C1129 C1128 1.377 . S
C1129 C1135 1.390 . S
C1130 H1121 0.930 . S
C1130 C1128 1.384 . S
C1130 C1131 1.372 . S
C1131 C1130 1.372 . S
C1131 C1132 1.400 . S
C1131 C1136 1.490 . S
C1132 H1122 0.930 . S
C1132 C1131 1.400 . S
C1132 C1135 1.386 . S
H1133 C1149 0.930 . S
H1134 C1150 0.931 . S
C1135 H1123 0.929 . S
C1135 C1129 1.390 . S
C1135 C1132 1.386 . S
C1136 C1131 1.490 . S
C1136 C1138 1.395 1_455 S
C1136 C1139 1.403 . S
H1137 C1143 0.930 . S
C1138 H1124 0.930 . S
C1138 C1136 1.395 1_655 S
C1138 C1141 1.403 1_545 S
C1139 C1136 1.403 . S
C1139 C1140 1.524 . S
C1139 C1143 1.400 1_545 S
C1140 H1125 0.960 1_545 S
C1140 H1126 0.960 . S
C1140 H1127 0.960 . S
C1140 C1139 1.524 . S
C1141 C1138 1.403 1_565 S
C1141 C1142 1.392 . S
C1141 C1145 1.495 . S
C1142 C1141 1.392 . S
C1142 C1143 1.385 1_655 S
C1142 C1144 1.478 . S
C1143 H1137 0.930 . S
C1143 C1139 1.400 1_565 S
C1143 C1142 1.385 1_455 S
C1144 C1142 1.478 . S
C1144 C1146 1.381 . S
C1144 C1150 1.383 . S
C1145 C1141 1.495 . S
C1145 H1151 0.959 1_565 S
C1145 H1152 0.961 . S
C1145 H1153 0.960 . S
C1146 C1144 1.381 . S
C1146 C1147 1.394 . S
C1146 H1154 0.930 . S
C1147 C1146 1.394 . S
C1147 C1148 1.383 . S
C1147 H1155 0.929 . S
C1148 C1147 1.383 . S
C1148 C1149 1.377 . S
C1149 H1133 0.930 . S
C1149 C1148 1.377 . S
C1149 C1150 1.379 . S
C1150 H1134 0.931 . S
C1150 C1144 1.383 . S
C1150 C1149 1.379 . S
H1151 C1145 0.959 1_545 S
H1152 C1145 0.961 . S
H1153 C1145 0.960 . S
H1154 C1146 0.930 . S
H1155 C1147 0.929 . S
H1156 C1164 0.929 . S
H1157 C1166 0.940 . S
H1158 C1168 0.930 . S
H1159 C1171 0.929 . S
H1160 C1174 0.930 . S
H1161 C1176 0.960 . S
H1162 C1176 0.960 . S
H1163 C1176 0.960 . S
C1164 H1156 0.929 . S
C1164 C1165 1.377 . S
C1164 C1166 1.384 . S
C1165 C1164 1.377 . S
C1165 C1171 1.390 . S
C1166 H1157 0.940 . S
C1166 C1164 1.384 . S
C1166 C1167 1.372 . S
C1167 C1166 1.372 . S
C1167 C1168 1.400 . S
C1167 C1172 1.490 . S
C1168 H1158 0.930 . S
C1168 C1167 1.400 . S
C1168 C1171 1.386 . S
H1169 C1185 0.930 . S
H1170 C1186 0.931 1_565 S
C1171 H1159 0.929 . S
C1171 C1165 1.390 . S
C1171 C1168 1.386 . S
C1172 C1167 1.490 . S
C1172 C1174 1.395 . S
C1172 C1175 1.403 1_565 S
H1173 C1179 0.930 . S
C1174 H1160 0.930 . S
C1174 C1172 1.395 . S
C1174 C1177 1.403 1_455 S
C1175 C1172 1.403 1_545 S
C1175 C1176 1.524 . S
C1175 C1179 1.400 1_455 S
C1176 H1161 0.960 . S
C1176 H1162 0.960 . S
C1176 H1163 0.960 . S
C1176 C1175 1.524 . S
C1177 C1174 1.403 1_655 S
C1177 C1178 1.392 1_565 S
C1177 C1181 1.495 . S
C1178 C1177 1.392 1_545 S
C1178 C1179 1.385 . S
C1178 C1180 1.478 . S
C1179 H1173 0.930 . S
C1179 C1175 1.400 1_655 S
C1179 C1178 1.385 . S
C1180 C1178 1.478 . S
C1180 C1182 1.381 . S
C1180 C1186 1.383 . S
C1181 C1177 1.495 . S
C1181 H1187 0.959 . S
C1181 H1188 0.961 . S
C1181 H1189 0.960 . S
C1182 C1180 1.381 . S
C1182 C1183 1.394 . S
C1182 H1190 0.930 . S
C1183 C1182 1.394 . S
C1183 C1184 1.383 . S
C1183 H1191 0.929 . S
C1184 C1183 1.383 . S
C1184 C1185 1.377 . S
C1185 H1169 0.930 . S
C1185 C1184 1.377 . S
C1185 C1186 1.379 . S
C1186 H1170 0.931 1_545 S
C1186 C1180 1.383 . S
C1186 C1185 1.379 . S
H1187 C1181 0.959 . S
H1188 C1181 0.961 . S
H1189 C1181 0.960 . S
H1190 C1182 0.930 . S
H1191 C1183 0.929 . S
H1192 C1200 0.929 . S
H1193 C1202 0.930 . S
H1194 C1204 0.930 . S
H1195 C1207 0.929 1_455 S
H1196 C1210 0.930 . S
H1197 C1212 0.960 . S
H1198 C1212 0.960 . S
H1199 C1212 0.960 . S
C1200 H1192 0.929 . S
C1200 C1201 1.377 . S
C1200 C1202 1.384 . S
C1201 C1200 1.377 . S
C1201 C1207 1.390 . S
C1202 H1193 0.930 . S
C1202 C1200 1.384 . S
C1202 C1203 1.372 . S
C1203 C1202 1.372 . S
C1203 C1204 1.400 1_655 S
C1203 C1208 1.490 . S
C1204 H1194 0.930 . S
C1204 C1203 1.400 1_455 S
C1204 C1207 1.386 1_455 S
H1205 C1221 0.930 . S
H1206 C1222 0.931 . S
C1207 H1195 0.929 1_655 S
C1207 C1201 1.390 . S
C1207 C1204 1.386 1_655 S
C1208 C1203 1.490 . S
C1208 C1210 1.395 . S
C1208 C1211 1.403 . S
H1209 C1215 0.932 . S
C1210 H1196 0.930 . S
C1210 C1208 1.395 . S
C1210 C1213 1.403 1_655 S
C1211 C1208 1.403 . S
C1211 C1212 1.524 . S
C1211 C1215 1.394 1_655 S
C1212 H1197 0.960 . S
C1212 H1198 0.960 . S
C1212 H1199 0.960 . S
C1212 C1211 1.524 . S
C1213 C1210 1.403 1_455 S
C1213 C1214 1.392 . S
C1213 C1217 1.495 . S
C1214 C1213 1.392 . S
C1214 C1215 1.390 . S
C1214 C1216 1.478 . S
C1215 H1209 0.932 . S
C1215 C1211 1.394 1_455 S
C1215 C1214 1.390 . S
C1216 C1214 1.478 . S
C1216 C1218 1.381 1_455 S
C1216 C1222 1.383 . S
C1217 C1213 1.495 . S
C1217 H1223 0.959 . S
C1217 H1224 0.961 . S
C1217 H1225 0.940 1_455 S
C1218 C1216 1.381 1_655 S
C1218 C1219 1.394 1_655 S
C1218 H1226 0.930 . S
C1219 C1218 1.394 1_455 S
C1219 C1220 1.383 . S
C1219 H1227 0.929 1_455 S
C1220 C1219 1.383 . S
C1220 C1221 1.377 . S
C1221 H1205 0.930 . S
C1221 C1220 1.377 . S
C1221 C1222 1.379 . S
C1222 H1206 0.931 . S
C1222 C1216 1.383 . S
C1222 C1221 1.379 . S
H1223 C1217 0.959 . S
H1224 C1217 0.961 . S
H1225 C1217 0.940 1_655 S
H1226 C1218 0.930 . S
H1227 C1219 0.929 1_655 S
H1228 C1236 0.929 . S
H1229 C1238 0.930 . S
H1230 C1240 0.930 . S
H1231 C1243 0.929 1_565 S
H1232 C1246 0.930 . S
H1233 C1248 0.960 . S
H1234 C1248 0.960 . S
H1235 C1248 0.960 . S
C1236 H1228 0.929 . S
C1236 C1237 1.377 . S
C1236 C1238 1.384 . S
C1237 C1236 1.377 . S
C1237 C1243 1.390 . S
C1238 H1229 0.930 . S
C1238 C1236 1.384 . S
C1238 C1239 1.372 . S
C1239 C1238 1.372 . S
C1239 C1240 1.400 1_545 S
C1239 C1244 1.490 . S
C1240 H1230 0.930 . S
C1240 C1239 1.400 1_565 S
C1240 C1243 1.386 1_565 S
H1241 C1257 0.930 . S
H1242 C1258 0.931 . S
C1243 H1231 0.929 1_545 S
C1243 C1237 1.390 . S
C1243 C1240 1.386 1_545 S
C1244 C1239 1.490 . S
C1244 C1246 1.395 . S
C1244 C1247 1.403 1_545 S
H1245 C1251 0.930 . S
C1246 H1232 0.930 . S
C1246 C1244 1.395 . S
C1246 C1249 1.403 . S
C1247 C1244 1.403 1_565 S
C1247 C1248 1.524 . S
C1247 C1251 1.400 . S
C1248 H1233 0.960 . S
C1248 H1234 0.960 . S
C1248 H1235 0.960 . S
C1248 C1247 1.524 . S
C1249 C1246 1.403 . S
C1249 C1250 1.392 1_545 S
C1249 C1253 1.495 . S
C1250 C1249 1.392 1_565 S
C1250 C1251 1.385 . S
C1250 C1252 1.478 . S
C1251 H1245 0.930 . S
C1251 C1247 1.400 . S
C1251 C1250 1.385 . S
C1252 C1250 1.478 . S
C1252 C1254 1.381 1_565 S
C1252 C1258 1.383 . S
C1253 C1249 1.495 . S
C1253 H1259 0.959 . S
C1253 H1260 0.961 . S
C1253 H1261 0.960 . S
C1254 C1252 1.381 1_545 S
C1254 C1255 1.394 . S
C1254 H1262 0.930 . S
C1255 C1254 1.394 . S
C1255 C1256 1.384 1_545 S
C1255 H1263 0.928 . S
C1256 C1255 1.384 1_565 S
C1256 C1257 1.377 . S
C1257 H1241 0.930 . S
C1257 C1256 1.377 . S
C1257 C1258 1.379 . S
C1258 H1242 0.931 . S
C1258 C1252 1.383 . S
C1258 C1257 1.379 . S
H1259 C1253 0.959 . S
H1260 C1253 0.961 . S
H1261 C1253 0.960 . S
H1262 C1254 0.930 . S
H1263 C1255 0.928 . S
H1264 C1272 0.929 . S
H1265 C1274 0.930 . S
H1266 C1276 0.930 . S
H1267 C1279 0.929 . S
H1268 C1282 0.930 . S
H1269 C1284 0.960 . S
H1270 C1284 0.960 . S
H1271 C1284 0.960 . S
C1272 H1264 0.929 . S
C1272 C1273 1.377 . S
C1272 C1274 1.384 . S
C1273 C1272 1.377 . S
C1273 C1279 1.390 . S
C1274 H1265 0.930 . S
C1274 C1272 1.384 . S
C1274 C1275 1.372 . S
C1275 C1274 1.372 . S
C1275 C1276 1.400 . S
C1275 C1280 1.490 . S
C1276 H1266 0.930 . S
C1276 C1275 1.400 . S
C1276 C1279 1.386 . S
H1277 C1293 0.930 . S
H1278 C1294 0.931 . S
C1279 H1267 0.929 . S
C1279 C1273 1.390 . S
C1279 C1276 1.386 . S
C1280 C1275 1.490 . S
C1280 C1282 1.395 . S
C1280 C1283 1.403 . S
H1281 C1287 0.930 . S
C1282 H1268 0.930 . S
C1282 C1280 1.395 . S
C1282 C1285 1.403 . S
C1283 C1280 1.403 . S
C1283 C1284 1.524 . S
C1283 C1287 1.400 . S
C1284 H1269 0.960 . S
C1284 H1270 0.960 . S
C1284 H1271 0.960 . S
C1284 C1283 1.524 . S
C1285 C1282 1.403 . S
C1285 C1286 1.392 . S
C1285 C1289 1.495 . S
C1286 C1285 1.392 . S
C1286 C1287 1.385 . S
C1286 C1288 1.478 . S
C1287 H1281 0.930 . S
C1287 C1283 1.400 . S
C1287 C1286 1.385 . S
C1288 C1286 1.478 . S
C1288 C1290 1.381 . S
C1288 C1294 1.383 . S
C1289 C1285 1.495 . S
C1289 H1295 0.959 . S
C1289 H1296 0.961 . S
C1289 H1297 0.960 . S
C1290 C1288 1.381 . S
C1290 C1291 1.394 . S
C1290 H1298 0.930 . S
C1291 C1290 1.394 . S
C1291 C1292 1.383 . S
C1291 H1299 0.929 . S
C1292 C1291 1.383 . S
C1292 C1293 1.377 . S
C1293 H1277 0.930 . S
C1293 C1292 1.377 . S
C1293 C1294 1.379 . S
C1294 H1278 0.931 . S
C1294 C1288 1.383 . S
C1294 C1293 1.379 . S
H1295 C1289 0.959 . S
H1296 C1289 0.961 . S
H1297 C1289 0.960 . S
H1298 C1290 0.930 . S
H1299 C1291 0.929 . S
H1300 C1308 0.929 . S
H1301 C1310 0.930 . S
H1302 C1312 0.930 . S
H1303 C1315 0.929 . S
H1304 C1318 0.930 . S
H1305 C1320 0.960 . S
H1306 C1320 0.960 . S
H1307 C1320 0.960 . S
C1308 H1300 0.929 . S
C1308 C1309 1.377 . S
C1308 C1310 1.384 . S
C1309 C1308 1.377 . S
C1309 C1315 1.390 . S
C1310 H1301 0.930 . S
C1310 C1308 1.384 . S
C1310 C1311 1.372 . S
C1311 C1310 1.372 . S
C1311 C1312 1.400 . S
C1311 C1316 1.490 . S
C1312 H1302 0.930 . S
C1312 C1311 1.400 . S
C1312 C1315 1.386 . S
H1313 C1329 0.930 . S
H1314 C1330 0.931 . S
C1315 H1303 0.929 . S
C1315 C1309 1.390 . S
C1315 C1312 1.386 . S
C1316 C1311 1.490 . S
C1316 C1318 1.395 . S
C1316 C1319 1.403 . S
H1317 C1323 0.930 . S
C1318 H1304 0.930 . S
C1318 C1316 1.395 . S
C1318 C1321 1.403 . S
C1319 C1316 1.403 . S
C1319 C1320 1.524 . S
C1319 C1323 1.400 . S
C1320 H1305 0.960 . S
C1320 H1306 0.960 . S
C1320 H1307 0.960 . S
C1320 C1319 1.524 . S
C1321 C1318 1.403 . S
C1321 C1322 1.392 . S
C1321 C1325 1.495 . S
C1322 C1321 1.392 . S
C1322 C1323 1.385 . S
C1322 C1324 1.478 . S
C1323 H1317 0.930 . S
C1323 C1319 1.400 . S
C1323 C1322 1.385 . S
C1324 C1322 1.478 . S
C1324 C1326 1.381 . S
C1324 C1330 1.383 . S
C1325 C1321 1.495 . S
C1325 H1331 0.959 . S
C1325 H1332 0.961 . S
C1325 H1333 0.960 . S
C1326 C1324 1.381 . S
C1326 C1327 1.394 . S
C1326 H1334 0.930 . S
C1327 C1326 1.394 . S
C1327 C1328 1.383 . S
C1327 H1335 0.929 . S
C1328 C1327 1.383 . S
C1328 C1329 1.377 . S
C1329 H1313 0.930 . S
C1329 C1328 1.377 . S
C1329 C1330 1.379 . S
C1330 H1314 0.931 . S
C1330 C1324 1.383 . S
C1330 C1329 1.379 . S
H1331 C1325 0.959 . S
H1332 C1325 0.961 . S
H1333 C1325 0.960 . S
H1334 C1326 0.930 . S
H1335 C1327 0.929 . S
H1336 C1344 0.929 . S
H1337 C1346 0.930 . S
H1338 C1348 0.930 . S
H1339 C1351 0.929 . S
H1340 C1354 0.930 . S
H1341 C1356 0.960 . S
H1342 C1356 0.960 . S
H1343 C1356 0.960 . S
C1344 H1336 0.929 . S
C1344 C1345 1.377 . S
C1344 C1346 1.384 . S
C1345 C1344 1.377 . S
C1345 C1351 1.390 . S
C1346 H1337 0.930 . S
C1346 C1344 1.384 . S
C1346 C1347 1.372 . S
C1347 C1346 1.372 . S
C1347 C1348 1.400 . S
C1347 C1352 1.490 . S
C1348 H1338 0.930 . S
C1348 C1347 1.400 . S
C1348 C1351 1.386 . S
H1349 C1365 0.930 . S
H1350 C1366 0.931 . S
C1351 H1339 0.929 . S
C1351 C1345 1.390 . S
C1351 C1348 1.386 . S
C1352 C1347 1.490 . S
C1352 C1354 1.395 . S
C1352 C1355 1.403 . S
H1353 C1359 0.930 . S
C1354 H1340 0.930 . S
C1354 C1352 1.395 . S
C1354 C1357 1.403 1_565 S
C1355 C1352 1.403 . S
C1355 C1356 1.524 . S
C1355 C1359 1.400 1_565 S
C1356 H1341 0.960 . S
C1356 H1342 0.960 . S
C1356 H1343 0.960 . S
C1356 C1355 1.524 . S
C1357 C1354 1.403 1_545 S
C1357 C1358 1.392 . S
C1357 C1361 1.495 . S
C1358 C1357 1.392 . S
C1358 C1359 1.385 . S
C1358 C1360 1.478 . S
C1359 H1353 0.930 . S
C1359 C1355 1.400 1_545 S
C1359 C1358 1.385 . S
C1360 C1358 1.478 . S
C1360 C1362 1.381 . S
C1360 C1366 1.383 . S
C1361 C1357 1.495 . S
C1361 H1367 0.959 . S
C1361 H1368 0.961 . S
C1361 H1369 0.960 . S
C1362 C1360 1.381 . S
C1362 C1363 1.394 . S
C1362 H1370 0.930 . S
C1363 C1362 1.394 . S
C1363 C1364 1.383 . S
C1363 H1371 0.929 . S
C1364 C1363 1.383 . S
C1364 C1365 1.377 . S
C1365 H1349 0.930 . S
C1365 C1364 1.377 . S
C1365 C1366 1.379 . S
C1366 H1350 0.931 . S
C1366 C1360 1.383 . S
C1366 C1365 1.379 . S
H1367 C1361 0.959 . S
H1368 C1361 0.961 . S
H1369 C1361 0.960 . S
H1370 C1362 0.930 . S
H1371 C1363 0.929 . S
H1372 C1380 0.929 . S
H1373 C1382 0.930 . S
H1374 C1384 0.930 . S
H1375 C1387 0.929 . S
H1376 C1390 0.930 . S
H1377 C1392 0.960 1_655 S
H1378 C1392 0.960 . S
H1379 C1392 0.960 . S
C1380 H1372 0.929 . S
C1380 C1381 1.377 . S
C1380 C1382 1.384 . S
C1381 C1380 1.377 . S
C1381 C1387 1.390 . S
C1382 H1373 0.930 . S
C1382 C1380 1.384 . S
C1382 C1383 1.372 . S
C1383 C1382 1.372 . S
C1383 C1384 1.400 . S
C1383 C1388 1.490 . S
C1384 H1374 0.930 . S
C1384 C1383 1.400 . S
C1384 C1387 1.386 . S
H1385 C1401 0.930 . S
H1386 C1402 0.931 . S
C1387 H1375 0.929 . S
C1387 C1381 1.390 . S
C1387 C1384 1.386 . S
C1388 C1383 1.490 . S
C1388 C1390 1.395 . S
C1388 C1391 1.403 . S
H1389 C1395 0.930 . S
C1390 H1376 0.930 . S
C1390 C1388 1.395 . S
C1390 C1393 1.403 1_455 S
C1391 C1388 1.403 . S
C1391 C1392 1.524 . S
C1391 C1395 1.400 1_455 S
C1392 H1377 0.960 1_455 S
C1392 H1378 0.960 . S
C1392 H1379 0.960 . S
C1392 C1391 1.524 . S
C1393 C1390 1.403 1_655 S
C1393 C1394 1.392 . S
C1393 C1397 1.495 . S
C1394 C1393 1.392 . S
C1394 C1395 1.385 . S
C1394 C1396 1.478 . S
C1395 H1389 0.930 . S
C1395 C1391 1.400 1_655 S
C1395 C1394 1.385 . S
C1396 C1394 1.478 . S
C1396 C1398 1.381 . S
C1396 C1402 1.383 . S
C1397 C1393 1.495 . S
C1397 H1403 0.959 1_655 S
C1397 H1404 0.961 . S
C1397 H1405 0.960 . S
C1398 C1396 1.381 . S
C1398 C1399 1.394 . S
C1398 H1406 0.930 . S
C1399 C1398 1.394 . S
C1399 C1400 1.383 . S
C1399 H1407 0.929 . S
C1400 C1399 1.383 . S
C1400 C1401 1.377 . S
C1401 H1385 0.930 . S
C1401 C1400 1.377 . S
C1401 C1402 1.379 . S
C1402 H1386 0.931 . S
C1402 C1396 1.383 . S
C1402 C1401 1.379 . S
H1403 C1397 0.959 1_455 S
H1404 C1397 0.961 . S
H1405 C1397 0.960 . S
H1406 C1398 0.930 . S
H1407 C1399 0.929 . S
H1408 C1416 0.929 1_455 S
H1409 C1418 0.914 1_455 S
H1410 C1420 0.930 . S
H1411 C1423 0.929 . S
H1412 C1426 0.930 . S
H1413 C1428 0.960 . S
H1414 C1428 0.960 . S
H1415 C1428 0.960 . S
C1416 H1408 0.929 1_655 S
C1416 C1417 1.377 . S
C1416 C1418 1.390 . S
C1417 C1416 1.377 . S
C1417 C1423 1.390 . S
C1418 H1409 0.914 1_655 S
C1418 C1416 1.390 . S
C1418 C1419 1.382 . S
C1419 C1418 1.382 . S
C1419 C1420 1.400 . S
C1419 C1424 1.490 . S
C1420 H1410 0.930 . S
C1420 C1419 1.400 . S
C1420 C1423 1.386 . S
H1421 C1437 0.930 1_655 S
H1422 C1438 0.931 . S
C1423 H1411 0.929 . S
C1423 C1417 1.390 . S
C1423 C1420 1.386 . S
C1424 C1419 1.490 . S
C1424 C1426 1.395 . S
C1424 C1427 1.403 1_655 S
H1425 C1431 0.930 . S
C1426 H1412 0.930 . S
C1426 C1424 1.395 . S
C1426 C1429 1.403 . S
C1427 C1424 1.403 1_455 S
C1427 C1428 1.524 . S
C1427 C1431 1.400 . S
C1428 H1413 0.960 . S
C1428 H1414 0.960 . S
C1428 H1415 0.960 . S
C1428 C1427 1.524 . S
C1429 C1426 1.403 . S
C1429 C1430 1.392 1_655 S
C1429 C1433 1.495 . S
C1430 C1429 1.392 1_455 S
C1430 C1431 1.385 . S
C1430 C1432 1.478 . S
C1431 H1425 0.930 . S
C1431 C1427 1.400 . S
C1431 C1430 1.385 . S
C1432 C1430 1.478 . S
C1432 C1434 1.381 . S
C1432 C1438 1.383 1_455 S
C1433 C1429 1.495 . S
C1433 H1439 0.959 . S
C1433 H1440 0.961 . S
C1433 H1441 0.960 . S
C1434 C1432 1.381 . S
C1434 C1435 1.394 . S
C1434 H1442 0.930 . S
C1435 C1434 1.394 . S
C1435 C1436 1.383 . S
C1435 H1443 0.929 . S
C1436 C1435 1.383 . S
C1436 C1437 1.377 . S
C1437 H1421 0.930 1_455 S
C1437 C1436 1.377 . S
C1437 C1438 1.379 1_455 S
C1438 H1422 0.931 . S
C1438 C1432 1.383 1_655 S
C1438 C1437 1.379 1_655 S
H1439 C1433 0.959 . S
H1440 C1433 0.961 . S
H1441 C1433 0.960 . S
H1442 C1434 0.930 . S
H1443 C1435 0.929 . S
H1444 C1452 0.929 . S
H1445 C1454 0.930 . S
H1446 C1456 0.930 . S
H1447 C1459 0.929 1_545 S
H1448 C1462 0.930 . S
H1449 C1464 0.960 . S
H1450 C1464 0.960 . S
H1451 C1464 0.960 . S
C1452 H1444 0.929 . S
C1452 C1453 1.377 . S
C1452 C1454 1.384 . S
C1453 C1452 1.377 . S
C1453 C1459 1.390 . S
C1454 H1445 0.930 . S
C1454 C1452 1.384 . S
C1454 C1455 1.372 . S
C1455 C1454 1.372 . S
C1455 C1456 1.400 1_565 S
C1455 C1460 1.490 . S
C1456 H1446 0.930 . S
C1456 C1455 1.400 1_545 S
C1456 C1459 1.386 1_545 S
H1457 C1473 0.930 . S
H1458 C1474 0.931 . S
C1459 H1447 0.929 1_565 S
C1459 C1453 1.390 . S
C1459 C1456 1.386 1_565 S
C1460 C1455 1.490 . S
C1460 C1462 1.395 . S
C1460 C1463 1.403 1_565 S
H1461 C1467 0.930 . S
C1462 H1448 0.930 . S
C1462 C1460 1.395 . S
C1462 C1465 1.403 . S
C1463 C1460 1.403 1_545 S
C1463 C1464 1.524 . S
C1463 C1467 1.400 . S
C1464 H1449 0.960 . S
C1464 H1450 0.960 . S
C1464 H1451 0.960 . S
C1464 C1463 1.524 . S
C1465 C1462 1.403 . S
C1465 C1466 1.379 1_565 S
C1465 C1469 1.495 . S
C1466 C1465 1.379 1_545 S
C1466 C1467 1.396 . S
C1466 C1468 1.481 . S
C1467 H1461 0.930 . S
C1467 C1463 1.400 . S
C1467 C1466 1.396 . S
C1468 C1466 1.481 . S
C1468 C1470 1.381 1_545 S
C1468 C1474 1.383 . S
C1469 C1465 1.495 . S
C1469 H1475 0.959 . S
C1469 H1476 0.961 . S
C1469 H1477 0.960 . S
C1470 C1468 1.381 1_565 S
C1470 C1471 1.394 1_565 S
C1470 H1478 0.930 . S
C1471 C1470 1.394 1_545 S
C1471 C1472 1.383 . S
C1471 H1479 0.919 1_545 S
C1472 C1471 1.383 . S
C1472 C1473 1.377 . S
C1473 H1457 0.930 . S
C1473 C1472 1.377 . S
C1473 C1474 1.379 . S
C1474 H1458 0.931 . S
C1474 C1468 1.383 . S
C1474 C1473 1.379 . S
H1475 C1469 0.959 . S
H1476 C1469 0.961 . S
H1477 C1469 0.960 . S
H1478 C1470 0.930 . S
H1479 C1471 0.919 1_565 S
H1480 C1488 0.929 . S
H1481 C1490 0.930 . S
H1482 C1492 0.930 . S
H1483 C1495 0.929 . S
H1484 C1498 0.930 . S
H1485 C1500 0.960 . S
H1486 C1500 0.960 . S
H1487 C1500 0.960 . S
C1488 H1480 0.929 . S
C1488 C1489 1.377 1_655 S
C1488 C1490 1.384 . S
C1489 C1488 1.377 1_455 S
C1489 C1495 1.390 . S
C1490 H1481 0.930 . S
C1490 C1488 1.384 . S
C1490 C1491 1.372 1_655 S
C1491 C1490 1.372 1_455 S
C1491 C1492 1.400 . S
C1491 C1496 1.490 . S
C1492 H1482 0.930 . S
C1492 C1491 1.400 . S
C1492 C1495 1.386 . S
H1493 C1509 0.912 1_455 S
H1494 C1510 0.931 . S
C1495 H1483 0.929 . S
C1495 C1489 1.390 . S
C1495 C1492 1.386 . S
C1496 C1491 1.490 . S
C1496 C1498 1.395 1_455 S
C1496 C1499 1.403 . S
H1497 C1503 0.930 . S
C1498 H1484 0.930 . S
C1498 C1496 1.395 1_655 S
C1498 C1501 1.403 1_545 S
C1499 C1496 1.403 . S
C1499 C1500 1.524 . S
C1499 C1503 1.400 1_545 S
C1500 H1485 0.960 . S
C1500 H1486 0.960 . S
C1500 H1487 0.960 . S
C1500 C1499 1.524 . S
C1501 C1498 1.403 1_565 S
C1501 C1502 1.392 . S
C1501 C1505 1.495 . S
C1502 C1501 1.392 . S
C1502 C1503 1.385 1_655 S
C1502 C1504 1.478 . S
C1503 H1497 0.930 . S
C1503 C1499 1.400 1_565 S
C1503 C1502 1.385 1_455 S
C1504 C1502 1.478 . S
C1504 C1506 1.381 . S
C1504 C1510 1.383 1_655 S
C1505 C1501 1.495 . S
C1505 H1511 0.959 . S
C1505 H1512 0.961 . S
C1505 H1513 0.960 . S
C1506 C1504 1.381 . S
C1506 C1507 1.394 . S
C1506 H1514 0.930 . S
C1507 C1506 1.394 . S
C1507 C1508 1.383 . S
C1507 H1515 0.929 . S
C1508 C1507 1.383 . S
C1508 C1509 1.398 . S
C1509 H1493 0.912 1_655 S
C1509 C1508 1.398 . S
C1509 C1510 1.376 1_655 S
C1510 H1494 0.931 . S
C1510 C1504 1.383 1_455 S
C1510 C1509 1.376 1_455 S
H1511 C1505 0.959 . S
H1512 C1505 0.961 . S
H1513 C1505 0.960 . S
H1514 C1506 0.930 . S
H1515 C1507 0.929 . S
H1516 C1524 0.929 . S
H1517 C1526 0.930 . S
H1518 C1528 0.930 1_565 S
H1519 C1531 0.929 . S
H1520 C1534 0.930 . S
H1521 C1536 0.960 . S
H1522 C1536 0.960 . S
H1523 C1536 0.960 . S
C1524 H1516 0.929 . S
C1524 C1525 1.377 . S
C1524 C1526 1.384 . S
C1525 C1524 1.377 . S
C1525 C1531 1.390 . S
C1526 H1517 0.930 . S
C1526 C1524 1.384 . S
C1526 C1527 1.372 . S
C1527 C1526 1.372 . S
C1527 C1528 1.400 . S
C1527 C1532 1.490 . S
C1528 H1518 0.930 1_545 S
C1528 C1527 1.400 . S
C1528 C1531 1.386 . S
H1529 C1545 0.930 . S
H1530 C1546 0.931 . S
C1531 H1519 0.929 . S
C1531 C1525 1.390 . S
C1531 C1528 1.386 . S
C1532 C1527 1.490 . S
C1532 C1534 1.395 . S
C1532 C1535 1.403 1_545 S
H1533 C1539 0.930 . S
C1534 H1520 0.930 . S
C1534 C1532 1.395 . S
C1534 C1537 1.403 1_655 S
C1535 C1532 1.403 1_565 S
C1535 C1536 1.524 . S
C1535 C1539 1.400 1_655 S
C1536 H1521 0.960 . S
C1536 H1522 0.960 . S
C1536 H1523 0.960 . S
C1536 C1535 1.524 . S
C1537 C1534 1.403 1_455 S
C1537 C1538 1.377 1_545 S
C1537 C1541 1.495 . S
C1538 C1537 1.377 1_565 S
C1538 C1539 1.398 . S
C1538 C1540 1.481 . S
C1539 H1533 0.930 . S
C1539 C1535 1.400 1_455 S
C1539 C1538 1.398 . S
C1540 C1538 1.481 . S
C1540 C1542 1.381 1_565 S
C1540 C1546 1.383 . S
C1541 C1537 1.495 . S
C1541 H1547 0.959 . S
C1541 H1548 0.961 . S
C1541 H1549 0.960 . S
C1542 C1540 1.381 1_545 S
C1542 C1543 1.394 1_545 S
C1542 H1550 0.930 . S
C1543 C1542 1.394 1_565 S
C1543 C1544 1.383 . S
C1543 H1551 0.929 . S
C1544 C1543 1.383 . S
C1544 C1545 1.377 . S
C1545 H1529 0.930 . S
C1545 C1544 1.377 . S
C1545 C1546 1.379 . S
C1546 H1530 0.931 . S
C1546 C1540 1.383 . S
C1546 C1545 1.379 . S
H1547 C1541 0.959 . S
H1548 C1541 0.961 . S
H1549 C1541 0.960 . S
H1550 C1542 0.930 . S
H1551 C1543 0.929 . S
H1552 C1560 0.929 . S
H1553 C1562 0.930 . S
H1554 C1564 0.930 . S
H1555 C1567 0.929 . S
H1556 C1570 0.930 . S
H1557 C1572 0.960 . S
H1558 C1572 0.960 . S
H1559 C1572 0.960 . S
C1560 H1552 0.929 . S
C1560 C1561 1.377 . S
C1560 C1562 1.384 . S
C1561 C1560 1.377 . S
C1561 C1567 1.390 . S
C1562 H1553 0.930 . S
C1562 C1560 1.384 . S
C1562 C1563 1.372 . S
C1563 C1562 1.372 . S
C1563 C1564 1.400 . S
C1563 C1568 1.490 . S
C1564 H1554 0.930 . S
C1564 C1563 1.400 . S
C1564 C1567 1.386 . S
H1565 C1581 0.930 . S
H1566 C1582 0.931 . S
C1567 H1555 0.929 . S
C1567 C1561 1.390 . S
C1567 C1564 1.386 . S
C1568 C1563 1.490 . S
C1568 C1570 1.395 . S
C1568 C1571 1.403 . S
H1569 C1575 0.930 . S
C1570 H1556 0.930 . S
C1570 C1568 1.395 . S
C1570 C1573 1.403 1_545 S
C1571 C1568 1.403 . S
C1571 C1572 1.524 . S
C1571 C1575 1.400 1_545 S
C1572 H1557 0.960 . S
C1572 H1558 0.960 . S
C1572 H1559 0.960 . S
C1572 C1571 1.524 . S
C1573 C1570 1.403 1_565 S
C1573 C1574 1.392 . S
C1573 C1577 1.495 . S
C1574 C1573 1.392 . S
C1574 C1575 1.385 . S
C1574 C1576 1.478 . S
C1575 H1569 0.930 . S
C1575 C1571 1.400 1_565 S
C1575 C1574 1.385 . S
C1576 C1574 1.478 . S
C1576 C1578 1.381 . S
C1576 C1582 1.383 . S
C1577 C1573 1.495 . S
C1577 H1583 0.959 . S
C1577 H1584 0.961 . S
C1577 H1585 0.960 . S
C1578 C1576 1.381 . S
C1578 C1579 1.394 . S
C1578 H1586 0.930 . S
C1579 C1578 1.394 . S
C1579 C1580 1.383 . S
C1579 H1587 0.929 . S
C1580 C1579 1.383 . S
C1580 C1581 1.377 . S
C1581 H1565 0.930 . S
C1581 C1580 1.377 . S
C1581 C1582 1.379 . S
C1582 H1566 0.931 . S
C1582 C1576 1.383 . S
C1582 C1581 1.379 . S
H1583 C1577 0.959 . S
H1584 C1577 0.961 . S
H1585 C1577 0.960 . S
H1586 C1578 0.930 . S
H1587 C1579 0.929 . S
H1588 C1596 0.929 . S
H1589 C1598 0.930 . S
H1590 C1600 0.930 . S
H1591 C1603 0.929 . S
H1592 C1606 0.930 . S
H1593 C1608 0.960 . S
H1594 C1608 0.960 . S
H1595 C1608 0.960 . S
C1596 H1588 0.929 . S
C1596 C1597 1.377 . S
C1596 C1598 1.384 . S
C1597 C1596 1.377 . S
C1597 C1603 1.390 . S
C1598 H1589 0.930 . S
C1598 C1596 1.384 . S
C1598 C1599 1.372 . S
C1599 C1598 1.372 . S
C1599 C1600 1.400 . S
C1599 C1604 1.490 . S
C1600 H1590 0.930 . S
C1600 C1599 1.400 . S
C1600 C1603 1.386 . S
H1601 C1617 0.930 . S
H1602 C1618 0.931 . S
C1603 H1591 0.929 . S
C1603 C1597 1.390 . S
C1603 C1600 1.386 . S
C1604 C1599 1.490 . S
C1604 C1606 1.395 . S
C1604 C1607 1.403 . S
H1605 C1611 0.930 . S
C1606 H1592 0.930 . S
C1606 C1604 1.395 . S
C1606 C1609 1.403 1_655 S
C1607 C1604 1.403 . S
C1607 C1608 1.524 . S
C1607 C1611 1.400 1_655 S
C1608 H1593 0.960 . S
C1608 H1594 0.960 . S
C1608 H1595 0.960 . S
C1608 C1607 1.524 . S
C1609 C1606 1.403 1_455 S
C1609 C1610 1.392 . S
C1609 C1613 1.495 . S
C1610 C1609 1.392 . S
C1610 C1611 1.385 . S
C1610 C1612 1.478 . S
C1611 H1605 0.930 . S
C1611 C1607 1.400 1_455 S
C1611 C1610 1.385 . S
C1612 C1610 1.478 . S
C1612 C1614 1.381 . S
C1612 C1618 1.383 . S
C1613 C1609 1.495 . S
C1613 H1619 0.959 . S
C1613 H1620 0.961 . S
C1613 H1621 0.960 . S
C1614 C1612 1.381 . S
C1614 C1615 1.394 . S
C1614 H1622 0.930 . S
C1615 C1614 1.394 . S
C1615 C1616 1.383 . S
C1615 H1623 0.929 . S
C1616 C1615 1.383 . S
C1616 C1617 1.377 . S
C1617 H1601 0.930 . S
C1617 C1616 1.377 . S
C1617 C1618 1.379 . S
C1618 H1602 0.931 . S
C1618 C1612 1.383 . S
C1618 C1617 1.379 . S
H1619 C1613 0.959 . S
H1620 C1613 0.961 . S
H1621 C1613 0.960 . S
H1622 C1614 0.930 . S
H1623 C1615 0.929 . S
H1624 C1632 0.929 . S
H1625 C1634 0.930 . S
H1626 C1636 0.930 . S
H1627 C1639 0.929 . S
H1628 C1642 0.930 . S
H1629 C1644 0.960 . S
H1630 C1644 0.960 . S
H1631 C1644 0.960 . S
C1632 H1624 0.929 . S
C1632 C1633 1.377 . S
C1632 C1634 1.384 . S
C1633 C1632 1.377 . S
C1633 C1639 1.390 . S
C1634 H1625 0.930 . S
C1634 C1632 1.384 . S
C1634 C1635 1.372 . S
C1635 C1634 1.372 . S
C1635 C1636 1.400 . S
C1635 C1640 1.490 . S
C1636 H1626 0.930 . S
C1636 C1635 1.400 . S
C1636 C1639 1.386 . S
H1637 C1653 0.930 . S
H1638 C1654 0.931 . S
C1639 H1627 0.929 . S
C1639 C1633 1.390 . S
C1639 C1636 1.386 . S
C1640 C1635 1.490 . S
C1640 C1642 1.395 . S
C1640 C1643 1.403 . S
H1641 C1647 0.930 . S
C1642 H1628 0.930 . S
C1642 C1640 1.395 . S
C1642 C1645 1.403 . S
C1643 C1640 1.403 . S
C1643 C1644 1.524 . S
C1643 C1647 1.400 . S
C1644 H1629 0.960 . S
C1644 H1630 0.960 . S
C1644 H1631 0.960 . S
C1644 C1643 1.524 . S
C1645 C1642 1.403 . S
C1645 C1646 1.392 . S
C1645 C1649 1.495 . S
C1646 C1645 1.392 . S
C1646 C1647 1.385 . S
C1646 C1648 1.478 . S
C1647 H1641 0.930 . S
C1647 C1643 1.400 . S
C1647 C1646 1.385 . S
C1648 C1646 1.478 . S
C1648 C1650 1.381 . S
C1648 C1654 1.383 . S
C1649 C1645 1.495 . S
C1649 H1655 0.959 . S
C1649 H1656 0.961 . S
C1649 H1657 0.960 . S
C1650 C1648 1.381 . S
C1650 C1651 1.394 . S
C1650 H1658 0.930 . S
C1651 C1650 1.394 . S
C1651 C1652 1.383 . S
C1651 H1659 0.929 . S
C1652 C1651 1.383 . S
C1652 C1653 1.377 . S
C1653 H1637 0.930 . S
C1653 C1652 1.377 . S
C1653 C1654 1.379 . S
C1654 H1638 0.931 . S
C1654 C1648 1.383 . S
C1654 C1653 1.379 . S
H1655 C1649 0.959 . S
H1656 C1649 0.961 . S
H1657 C1649 0.960 . S
H1658 C1650 0.930 . S
H1659 C1651 0.929 . S
H1660 C1668 0.929 . S
H1661 C1670 0.930 . S
H1662 C1672 0.930 . S
H1663 C1675 0.929 . S
H1664 C1678 0.930 . S
H1665 C1680 0.960 . S
H1666 C1680 0.960 . S
H1667 C1680 0.960 . S
C1668 H1660 0.929 . S
C1668 C1669 1.377 . S
C1668 C1670 1.384 . S
C1669 C1668 1.377 . S
C1669 C1675 1.390 . S
C1670 H1661 0.930 . S
C1670 C1668 1.384 . S
C1670 C1671 1.372 . S
C1671 C1670 1.372 . S
C1671 C1672 1.400 . S
C1671 C1676 1.490 . S
C1672 H1662 0.930 . S
C1672 C1671 1.400 . S
C1672 C1675 1.386 . S
H1673 C1689 0.930 . S
H1674 C1690 0.931 . S
C1675 H1663 0.929 . S
C1675 C1669 1.390 . S
C1675 C1672 1.386 . S
C1676 C1671 1.490 . S
C1676 C1678 1.395 . S
C1676 C1679 1.403 . S
H1677 C1683 0.930 . S
C1678 H1664 0.930 . S
C1678 C1676 1.395 . S
C1678 C1681 1.403 . S
C1679 C1676 1.403 . S
C1679 C1680 1.524 . S
C1679 C1683 1.400 . S
C1680 H1665 0.960 . S
C1680 H1666 0.960 . S
C1680 H1667 0.960 . S
C1680 C1679 1.524 . S
C1681 C1678 1.403 . S
C1681 C1682 1.392 . S
C1681 C1685 1.495 . S
C1682 C1681 1.392 . S
C1682 C1683 1.385 . S
C1682 C1684 1.478 . S
C1683 H1677 0.930 . S
C1683 C1679 1.400 . S
C1683 C1682 1.385 . S
C1684 C1682 1.478 . S
C1684 C1686 1.381 . S
C1684 C1690 1.383 . S
C1685 C1681 1.495 . S
C1685 H1691 0.959 . S
C1685 H1692 0.961 . S
C1685 H1693 0.960 . S
C1686 C1684 1.381 . S
C1686 C1687 1.394 . S
C1686 H1694 0.930 . S
C1687 C1686 1.394 . S
C1687 C1688 1.383 . S
C1687 H1695 0.929 . S
C1688 C1687 1.383 . S
C1688 C1689 1.377 . S
C1689 H1673 0.930 . S
C1689 C1688 1.377 . S
C1689 C1690 1.379 . S
C1690 H1674 0.931 . S
C1690 C1684 1.383 . S
C1690 C1689 1.379 . S
H1691 C1685 0.959 . S
H1692 C1685 0.961 . S
H1693 C1685 0.960 . S
H1694 C1686 0.930 . S
H1695 C1687 0.929 . S
H1696 C1704 0.929 . S
H1697 C1706 0.930 . S
H1698 C1708 0.930 . S
H1699 C1711 0.929 . S
H1700 C1714 0.930 . S
H1701 C1716 0.960 . S
H1702 C1716 0.960 . S
H1703 C1716 0.960 . S
C1704 H1696 0.929 . S
C1704 C1705 1.377 . S
C1704 C1706 1.384 . S
C1705 C1704 1.377 . S
C1705 C1711 1.390 . S
C1706 H1697 0.930 . S
C1706 C1704 1.384 . S
C1706 C1707 1.372 . S
C1707 C1706 1.372 . S
C1707 C1708 1.400 . S
C1707 C1712 1.490 . S
C1708 H1698 0.930 . S
C1708 C1707 1.400 . S
C1708 C1711 1.386 . S
H1709 C1725 0.930 . S
H1710 C1726 0.931 . S
C1711 H1699 0.929 . S
C1711 C1705 1.390 . S
C1711 C1708 1.386 . S
C1712 C1707 1.490 . S
C1712 C1714 1.395 . S
C1712 C1715 1.403 . S
H1713 C1719 0.930 . S
C1714 H1700 0.930 . S
C1714 C1712 1.395 . S
C1714 C1717 1.403 . S
C1715 C1712 1.403 . S
C1715 C1716 1.524 . S
C1715 C1719 1.400 . S
C1716 H1701 0.960 . S
C1716 H1702 0.960 . S
C1716 H1703 0.960 . S
C1716 C1715 1.524 . S
C1717 C1714 1.403 . S
C1717 C1718 1.392 . S
C1717 C1721 1.495 . S
C1718 C1717 1.392 . S
C1718 C1719 1.385 . S
C1718 C1720 1.478 . S
C1719 H1713 0.930 . S
C1719 C1715 1.400 . S
C1719 C1718 1.385 . S
C1720 C1718 1.478 . S
C1720 C1722 1.381 . S
C1720 C1726 1.383 . S
C1721 C1717 1.495 . S
C1721 H1727 0.959 . S
C1721 H1728 0.961 . S
C1721 H1729 0.960 . S
C1722 C1720 1.381 . S
C1722 C1723 1.394 . S
C1722 H1730 0.930 . S
C1723 C1722 1.394 . S
C1723 C1724 1.383 . S
C1723 H1731 0.929 . S
C1724 C1723 1.383 . S
C1724 C1725 1.377 . S
C1725 H1709 0.930 . S
C1725 C1724 1.377 . S
C1725 C1726 1.379 . S
C1726 H1710 0.931 . S
C1726 C1720 1.383 . S
C1726 C1725 1.379 . S
H1727 C1721 0.959 . S
H1728 C1721 0.961 . S
H1729 C1721 0.960 . S
H1730 C1722 0.930 . S
H1731 C1723 0.929 . S
H1732 C1740 0.929 . S
H1733 C1742 0.930 . S
H1734 C1744 0.930 . S
H1735 C1747 0.929 . S
H1736 C1750 0.930 . S
H1737 C1752 0.960 . S
H1738 C1752 0.960 . S
H1739 C1752 0.960 . S
C1740 H1732 0.929 . S
C1740 C1741 1.377 . S
C1740 C1742 1.384 . S
C1741 C1740 1.377 . S
C1741 C1747 1.390 . S
C1742 H1733 0.930 . S
C1742 C1740 1.384 . S
C1742 C1743 1.372 . S
C1743 C1742 1.372 . S
C1743 C1744 1.400 . S
C1743 C1748 1.490 . S
C1744 H1734 0.930 . S
C1744 C1743 1.400 . S
C1744 C1747 1.386 . S
H1745 C1761 0.930 . S
H1746 C1762 0.931 . S
C1747 H1735 0.929 . S
C1747 C1741 1.390 . S
C1747 C1744 1.386 . S
C1748 C1743 1.490 . S
C1748 C1750 1.395 . S
C1748 C1751 1.403 . S
H1749 C1755 0.930 . S
C1750 H1736 0.930 . S
C1750 C1748 1.395 . S
C1750 C1753 1.403 . S
C1751 C1748 1.403 . S
C1751 C1752 1.524 . S
C1751 C1755 1.400 . S
C1752 H1737 0.960 . S
C1752 H1738 0.960 . S
C1752 H1739 0.960 . S
C1752 C1751 1.524 . S
C1753 C1750 1.403 . S
C1753 C1754 1.392 . S
C1753 C1757 1.495 . S
C1754 C1753 1.392 . S
C1754 C1755 1.385 . S
C1754 C1756 1.478 . S
C1755 H1749 0.930 . S
C1755 C1751 1.400 . S
C1755 C1754 1.385 . S
C1756 C1754 1.478 . S
C1756 C1758 1.381 . S
C1756 C1762 1.383 . S
C1757 C1753 1.495 . S
C1757 H1763 0.959 . S
C1757 H1764 0.961 . S
C1757 H1765 0.960 . S
C1758 C1756 1.381 . S
C1758 C1759 1.394 . S
C1758 H1766 0.930 . S
C1759 C1758 1.394 . S
C1759 C1760 1.383 . S
C1759 H1767 0.929 . S
C1760 C1759 1.383 . S
C1760 C1761 1.377 . S
C1761 H1745 0.930 . S
C1761 C1760 1.377 . S
C1761 C1762 1.379 . S
C1762 H1746 0.931 . S
C1762 C1756 1.383 . S
C1762 C1761 1.379 . S
H1763 C1757 0.959 . S
H1764 C1757 0.961 . S
H1765 C1757 0.960 . S
H1766 C1758 0.930 . S
H1767 C1759 0.929 . S
H1768 C1776 0.929 . S
H1769 C1778 0.930 . S
H1770 C1780 0.930 . S
H1771 C1783 0.929 . S
H1772 C1786 0.930 . S
H1773 C1788 0.960 . S
H1774 C1788 0.960 . S
H1775 C1788 0.960 . S
C1776 H1768 0.929 . S
C1776 C1777 1.377 . S
C1776 C1778 1.384 . S
C1777 C1776 1.377 . S
C1777 C1783 1.390 . S
C1778 H1769 0.930 . S
C1778 C1776 1.384 . S
C1778 C1779 1.372 . S
C1779 C1778 1.372 . S
C1779 C1780 1.400 . S
C1779 C1784 1.490 . S
C1780 H1770 0.930 . S
C1780 C1779 1.400 . S
C1780 C1783 1.386 . S
H1781 C1797 0.930 . S
H1782 C1798 0.931 . S
C1783 H1771 0.929 . S
C1783 C1777 1.390 . S
C1783 C1780 1.386 . S
C1784 C1779 1.490 . S
C1784 C1786 1.395 . S
C1784 C1787 1.403 . S
H1785 C1791 0.930 . S
C1786 H1772 0.930 . S
C1786 C1784 1.395 . S
C1786 C1789 1.403 . S
C1787 C1784 1.403 . S
C1787 C1788 1.524 . S
C1787 C1791 1.400 . S
C1788 H1773 0.960 . S
C1788 H1774 0.960 . S
C1788 H1775 0.960 . S
C1788 C1787 1.524 . S
C1789 C1786 1.403 . S
C1789 C1790 1.392 . S
C1789 C1793 1.495 . S
C1790 C1789 1.392 . S
C1790 C1791 1.385 . S
C1790 C1792 1.478 . S
C1791 H1785 0.930 . S
C1791 C1787 1.400 . S
C1791 C1790 1.385 . S
C1792 C1790 1.478 . S
C1792 C1794 1.381 . S
C1792 C1798 1.383 . S
C1793 C1789 1.495 . S
C1793 H1799 0.959 . S
C1793 H1800 0.961 . S
C1793 H1801 0.960 . S
C1794 C1792 1.381 . S
C1794 C1795 1.394 . S
C1794 H1802 0.930 . S
C1795 C1794 1.394 . S
C1795 C1796 1.383 . S
C1795 H1803 0.929 . S
C1796 C1795 1.383 . S
C1796 C1797 1.377 . S
C1797 H1781 0.930 . S
C1797 C1796 1.377 . S
C1797 C1798 1.379 . S
C1798 H1782 0.931 . S
C1798 C1792 1.383 . S
C1798 C1797 1.379 . S
H1799 C1793 0.959 . S
H1800 C1793 0.961 . S
H1801 C1793 0.960 . S
H1802 C1794 0.930 . S
H1803 C1795 0.929 . S
H1804 C1812 0.929 . S
H1805 C1814 0.930 . S
H1806 C1816 0.930 . S
H1807 C1819 0.929 . S
H1808 C1822 0.930 . S
H1809 C1824 0.960 . S
H1810 C1824 0.960 . S
H1811 C1824 0.960 . S
C1812 H1804 0.929 . S
C1812 C1813 1.377 . S
C1812 C1814 1.384 . S
C1813 C1812 1.377 . S
C1813 C1819 1.390 . S
C1814 H1805 0.930 . S
C1814 C1812 1.384 . S
C1814 C1815 1.372 . S
C1815 C1814 1.372 . S
C1815 C1816 1.400 . S
C1815 C1820 1.490 . S
C1816 H1806 0.930 . S
C1816 C1815 1.400 . S
C1816 C1819 1.386 . S
H1817 C1833 0.930 . S
H1818 C1834 0.931 . S
C1819 H1807 0.929 . S
C1819 C1813 1.390 . S
C1819 C1816 1.386 . S
C1820 C1815 1.490 . S
C1820 C1822 1.395 . S
C1820 C1823 1.403 . S
H1821 C1827 0.930 . S
C1822 H1808 0.930 . S
C1822 C1820 1.395 . S
C1822 C1825 1.403 . S
C1823 C1820 1.403 . S
C1823 C1824 1.524 . S
C1823 C1827 1.400 . S
C1824 H1809 0.960 . S
C1824 H1810 0.960 . S
C1824 H1811 0.960 . S
C1824 C1823 1.524 . S
C1825 C1822 1.403 . S
C1825 C1826 1.392 . S
C1825 C1829 1.495 . S
C1826 C1825 1.392 . S
C1826 C1827 1.385 . S
C1826 C1828 1.478 . S
C1827 H1821 0.930 . S
C1827 C1823 1.400 . S
C1827 C1826 1.385 . S
C1828 C1826 1.478 . S
C1828 C1830 1.381 . S
C1828 C1834 1.383 . S
C1829 C1825 1.495 . S
C1829 H1835 0.959 . S
C1829 H1836 0.961 . S
C1829 H1837 0.960 . S
C1830 C1828 1.381 . S
C1830 C1831 1.394 . S
C1830 H1838 0.930 . S
C1831 C1830 1.394 . S
C1831 C1832 1.383 . S
C1831 H1839 0.929 . S
C1832 C1831 1.383 . S
C1832 C1833 1.377 . S
C1833 H1817 0.930 . S
C1833 C1832 1.377 . S
C1833 C1834 1.379 . S
C1834 H1818 0.931 . S
C1834 C1828 1.383 . S
C1834 C1833 1.379 . S
H1835 C1829 0.959 . S
H1836 C1829 0.961 . S
H1837 C1829 0.960 . S
H1838 C1830 0.930 . S
H1839 C1831 0.929 . S
H1840 C1848 0.929 . S
H1841 C1850 0.930 . S
H1842 C1852 0.930 . S
H1843 C1855 0.929 . S
H1844 C1858 0.930 . S
H1845 C1860 0.960 . S
H1846 C1860 0.960 . S
H1847 C1860 0.960 . S
C1848 H1840 0.929 . S
C1848 C1849 1.377 . S
C1848 C1850 1.384 . S
C1849 C1848 1.377 . S
C1849 C1855 1.390 . S
C1850 H1841 0.930 . S
C1850 C1848 1.384 . S
C1850 C1851 1.372 . S
C1851 C1850 1.372 . S
C1851 C1852 1.400 . S
C1851 C1856 1.490 . S
C1852 H1842 0.930 . S
C1852 C1851 1.400 . S
C1852 C1855 1.386 . S
H1853 C1869 0.930 . S
H1854 C1870 0.931 . S
C1855 H1843 0.929 . S
C1855 C1849 1.390 . S
C1855 C1852 1.386 . S
C1856 C1851 1.490 . S
C1856 C1858 1.395 . S
C1856 C1859 1.403 . S
H1857 C1863 0.930 . S
C1858 H1844 0.930 . S
C1858 C1856 1.395 . S
C1858 C1861 1.403 . S
C1859 C1856 1.403 . S
C1859 C1860 1.524 . S
C1859 C1863 1.400 . S
C1860 H1845 0.960 . S
C1860 H1846 0.960 . S
C1860 H1847 0.960 . S
C1860 C1859 1.524 . S
C1861 C1858 1.403 . S
C1861 C1862 1.392 . S
C1861 C1865 1.495 . S
C1862 C1861 1.392 . S
C1862 C1863 1.385 . S
C1862 C1864 1.478 . S
C1863 H1857 0.930 . S
C1863 C1859 1.400 . S
C1863 C1862 1.385 . S
C1864 C1862 1.478 . S
C1864 C1866 1.381 . S
C1864 C1870 1.383 . S
C1865 C1861 1.495 . S
C1865 H1871 0.959 . S
C1865 H1872 0.961 . S
C1865 H1873 0.960 . S
C1866 C1864 1.381 . S
C1866 C1867 1.394 . S
C1866 H1874 0.930 . S
C1867 C1866 1.394 . S
C1867 C1868 1.383 . S
C1867 H1875 0.929 . S
C1868 C1867 1.383 . S
C1868 C1869 1.377 . S
C1869 H1853 0.930 . S
C1869 C1868 1.377 . S
C1869 C1870 1.379 . S
C1870 H1854 0.931 . S
C1870 C1864 1.383 . S
C1870 C1869 1.379 . S
H1871 C1865 0.959 . S
H1872 C1865 0.961 . S
H1873 C1865 0.960 . S
H1874 C1866 0.930 . S
H1875 C1867 0.929 . S
H1876 C1884 0.929 . S
H1877 C1886 0.930 . S
H1878 C1888 0.930 . S
H1879 C1891 0.929 . S
H1880 C1894 0.930 . S
H1881 C1896 0.960 . S
H1882 C1896 0.960 . S
H1883 C1896 0.960 . S
C1884 H1876 0.929 . S
C1884 C1885 1.377 . S
C1884 C1886 1.384 . S
C1885 C1884 1.377 . S
C1885 C1891 1.390 . S
C1886 H1877 0.930 . S
C1886 C1884 1.384 . S
C1886 C1887 1.372 . S
C1887 C1886 1.372 . S
C1887 C1888 1.400 . S
C1887 C1892 1.490 . S
C1888 H1878 0.930 . S
C1888 C1887 1.400 . S
C1888 C1891 1.386 . S
H1889 C1905 0.930 . S
H1890 C1906 0.931 . S
C1891 H1879 0.929 . S
C1891 C1885 1.390 . S
C1891 C1888 1.386 . S
C1892 C1887 1.490 . S
C1892 C1894 1.395 . S
C1892 C1895 1.403 . S
H1893 C1899 0.930 . S
C1894 H1880 0.930 . S
C1894 C1892 1.395 . S
C1894 C1897 1.403 . S
C1895 C1892 1.403 . S
C1895 C1896 1.524 . S
C1895 C1899 1.400 . S
C1896 H1881 0.960 . S
C1896 H1882 0.960 . S
C1896 H1883 0.960 . S
C1896 C1895 1.524 . S
C1897 C1894 1.403 . S
C1897 C1898 1.392 . S
C1897 C1901 1.495 . S
C1898 C1897 1.392 . S
C1898 C1899 1.385 . S
C1898 C1900 1.478 . S
C1899 H1893 0.930 . S
C1899 C1895 1.400 . S
C1899 C1898 1.385 . S
C1900 C1898 1.478 . S
C1900 C1902 1.381 . S
C1900 C1906 1.383 . S
C1901 C1897 1.495 . S
C1901 H1907 0.959 . S
C1901 H1908 0.961 . S
C1901 H1909 0.960 . S
C1902 C1900 1.381 . S
C1902 C1903 1.394 . S
C1902 H1910 0.930 . S
C1903 C1902 1.394 . S
C1903 C1904 1.383 . S
C1903 H1911 0.929 . S
C1904 C1903 1.383 . S
C1904 C1905 1.377 . S
C1905 H1889 0.930 . S
C1905 C1904 1.377 . S
C1905 C1906 1.379 . S
C1906 H1890 0.931 . S
C1906 C1900 1.383 . S
C1906 C1905 1.379 . S
H1907 C1901 0.959 . S
H1908 C1901 0.961 . S
H1909 C1901 0.960 . S
H1910 C1902 0.930 . S
H1911 C1903 0.929 . S
H1912 C1920 0.929 . S
H1913 C1922 0.930 . S
H1914 C1924 0.930 . S
H1915 C1927 0.929 . S
H1916 C1930 0.930 . S
H1917 C1932 0.960 . S
H1918 C1932 0.960 . S
H1919 C1932 0.960 . S
C1920 H1912 0.929 . S
C1920 C1921 1.377 . S
C1920 C1922 1.384 . S
C1921 C1920 1.377 . S
C1921 C1927 1.390 . S
C1922 H1913 0.930 . S
C1922 C1920 1.384 . S
C1922 C1923 1.372 . S
C1923 C1922 1.372 . S
C1923 C1924 1.400 . S
C1923 C1928 1.490 . S
C1924 H1914 0.930 . S
C1924 C1923 1.400 . S
C1924 C1927 1.386 . S
H1925 C1941 0.930 . S
H1926 C1942 0.931 . S
C1927 H1915 0.929 . S
C1927 C1921 1.390 . S
C1927 C1924 1.386 . S
C1928 C1923 1.490 . S
C1928 C1930 1.395 . S
C1928 C1931 1.403 . S
H1929 C1935 0.930 . S
C1930 H1916 0.930 . S
C1930 C1928 1.395 . S
C1930 C1933 1.403 . S
C1931 C1928 1.403 . S
C1931 C1932 1.524 . S
C1931 C1935 1.400 . S
C1932 H1917 0.960 . S
C1932 H1918 0.960 . S
C1932 H1919 0.960 . S
C1932 C1931 1.524 . S
C1933 C1930 1.403 . S
C1933 C1934 1.392 . S
C1933 C1937 1.495 . S
C1934 C1933 1.392 . S
C1934 C1935 1.385 . S
C1934 C1936 1.478 . S
C1935 H1929 0.930 . S
C1935 C1931 1.400 . S
C1935 C1934 1.385 . S
C1936 C1934 1.478 . S
C1936 C1938 1.381 . S
C1936 C1942 1.383 . S
C1937 C1933 1.495 . S
C1937 H1943 0.959 . S
C1937 H1944 0.961 . S
C1937 H1945 0.960 . S
C1938 C1936 1.381 . S
C1938 C1939 1.394 . S
C1938 H1946 0.930 . S
C1939 C1938 1.394 . S
C1939 C1940 1.383 . S
C1939 H1947 0.929 . S
C1940 C1939 1.383 . S
C1940 C1941 1.377 . S
C1941 H1925 0.930 . S
C1941 C1940 1.377 . S
C1941 C1942 1.379 . S
C1942 H1926 0.931 . S
C1942 C1936 1.383 . S
C1942 C1941 1.379 . S
H1943 C1937 0.959 . S
H1944 C1937 0.961 . S
H1945 C1937 0.960 . S
H1946 C1938 0.930 . S
H1947 C1939 0.929 . S
H1948 C1956 0.929 . S
H1949 C1958 0.930 . S
H1950 C1960 0.930 . S
H1951 C1963 0.929 . S
H1952 C1966 0.930 . S
H1953 C1968 0.960 . S
H1954 C1968 0.960 . S
H1955 C1968 0.960 . S
C1956 H1948 0.929 . S
C1956 C1957 1.377 . S
C1956 C1958 1.384 . S
C1957 C1956 1.377 . S
C1957 C1963 1.390 . S
C1958 H1949 0.930 . S
C1958 C1956 1.384 . S
C1958 C1959 1.372 . S
C1959 C1958 1.372 . S
C1959 C1960 1.400 . S
C1959 C1964 1.490 . S
C1960 H1950 0.930 . S
C1960 C1959 1.400 . S
C1960 C1963 1.386 . S
H1961 C1977 0.930 . S
H1962 C1978 0.931 . S
C1963 H1951 0.929 . S
C1963 C1957 1.390 . S
C1963 C1960 1.386 . S
C1964 C1959 1.490 . S
C1964 C1966 1.395 . S
C1964 C1967 1.403 . S
H1965 C1971 0.930 . S
C1966 H1952 0.930 . S
C1966 C1964 1.395 . S
C1966 C1969 1.403 . S
C1967 C1964 1.403 . S
C1967 C1968 1.524 . S
C1967 C1971 1.400 . S
C1968 H1953 0.960 . S
C1968 H1954 0.960 . S
C1968 H1955 0.960 . S
C1968 C1967 1.524 . S
C1969 C1966 1.403 . S
C1969 C1970 1.392 . S
C1969 C1973 1.495 . S
C1970 C1969 1.392 . S
C1970 C1971 1.385 . S
C1970 C1972 1.478 . S
C1971 H1965 0.930 . S
C1971 C1967 1.400 . S
C1971 C1970 1.385 . S
C1972 C1970 1.478 . S
C1972 C1974 1.381 . S
C1972 C1978 1.383 . S
C1973 C1969 1.495 . S
C1973 H1979 0.959 . S
C1973 H1980 0.961 . S
C1973 H1981 0.960 . S
C1974 C1972 1.381 . S
C1974 C1975 1.394 . S
C1974 H1982 0.930 . S
C1975 C1974 1.394 . S
C1975 C1976 1.383 . S
C1975 H1983 0.929 . S
C1976 C1975 1.383 . S
C1976 C1977 1.377 . S
C1977 H1961 0.930 . S
C1977 C1976 1.377 . S
C1977 C1978 1.379 . S
C1978 H1962 0.931 . S
C1978 C1972 1.383 . S
C1978 C1977 1.379 . S
H1979 C1973 0.959 . S
H1980 C1973 0.961 . S
H1981 C1973 0.960 . S
H1982 C1974 0.930 . S
H1983 C1975 0.929 . S
C553 C33 0.624 . S
C572 C379 0.578 . S
C589 C277 0.619 . S
C608 C67 0.579 . S
C625 C311 0.618 . S
C644 C101 0.599 . S
C661 C345 0.614 . S
C680 C135 0.585 . S
C697 C175 0.614 . S
C716 C169 0.617 . S
C733 C209 0.616 . S
C752 C203 0.654 . S
C769 C237 0.613 . S
C788 C243 0.621 . S
C805 C271 0.614 . S
C824 C141 0.581 . S
C841 C305 0.623 . S
C860 C107 0.614 . S
C877 C339 0.609 . S
C896 C5 0.612 . S
C913 C39 0.627 . S
C932 C373 0.589 . S
C949 C407 0.612 . S
C968 C73 0.648 . S
C985 C447 0.612 . S
C1004 C441 0.655 . S
C1021 C481 0.620 . S
C1040 C475 0.656 . S
C1057 C515 0.616 . S
C1076 C509 0.609 . S
C1093 C543 0.609 . S
C1112 C413 0.608 . S
C1129 C20 1.312 . S
C1148 C88 1.316 . S
C1165 C54 1.308 . S
C1184 C122 1.303 . S
C1201 C224 1.311 . S
C1220 C156 1.312 . S
C1237 C258 1.311 . S
C1256 C190 1.298 . S
C1273 C360 1.311 . S
C1292 C292 1.316 . S
C1309 C326 1.308 . S
C1328 C394 1.306 . S
C1345 C428 1.311 . S
C1364 C496 1.313 . S
C1381 C530 1.311 . S
C1400 C462 1.312 . S
C1417 C70 0.919 . S
C1436 C2 0.946 . S
C1453 C36 0.911 . S
C1472 C104 0.929 . S
C1489 C138 0.912 . S
C1508 C206 0.937 . S
C1525 C240 0.912 . S
C1544 C172 0.926 . S
C1561 C342 0.922 . S
C1580 C274 0.892 . S
C1597 C308 0.911 . S
C1616 C376 0.943 . S
C1633 C410 0.911 . S
C1652 C478 0.938 . S
C1669 C512 0.917 . S
C1688 C444 0.893 . S
C1705 C485 1.514 . S
C1724 C9 1.536 . S
C1741 C43 1.516 . S
C1760 C519 1.503 . S
C1777 C77 1.514 . S
C1796 C417 1.490 . S
C1813 C111 1.517 . S
C1832 C451 1.518 . S
C1849 C145 1.510 . S
C1868 C349 1.530 . S
C1885 C383 1.507 . S
C1904 C179 1.481 . S
C1921 C213 1.508 . S
C1940 C281 1.481 . S
C1957 C247 1.514 . S
C1976 C315 1.536 . S
