# Generated by pormake.
# Topology wir, (6)-cn, num edge types: 1
# Building blocks:
#     Node 0, Type 0, BuildingBlock: CUKXOW_clean_sbu_0, # of connection points: 6
#     Node 1, Type 0, BuildingBlock: CUKXOW_clean_sbu_0, # of connection points: 6
#     Node 2, Type 0, BuildingBlock: CUKXOW_clean_sbu_0, # of connection points: 6
#     Node 3, Type 0, BuildingBlock: CUKXOW_clean_sbu_0, # of connection points: 6
#     Node 4, Type 0, BuildingBlock: CUKXOW_clean_sbu_0, # of connection points: 6
#     Node 5, Type 0, BuildingBlock: CUKXOW_clean_sbu_0, # of connection points: 6
#     Node 6, Type 0, BuildingBlock: CUKXOW_clean_sbu_0, # of connection points: 6
#     Node 7, Type 0, BuildingBlock: CUKXOW_clean_sbu_0, # of connection points: 6
#     Node 8, Type 0, BuildingBlock: CUKXOW_clean_sbu_0, # of connection points: 6
#     Node 9, Type 0, BuildingBlock: CUKXOW_clean_sbu_0, # of connection points: 6
#     Node 10, Type 0, BuildingBlock: CUKXOW_clean_sbu_0, # of connection points: 6
#     Node 11, Type 0, BuildingBlock: CUKXOW_clean_sbu_0, # of connection points: 6
#     Node 12, Type 0, BuildingBlock: CUKXOW_clean_sbu_0, # of connection points: 6
#     Node 13, Type 0, BuildingBlock: CUKXOW_clean_sbu_0, # of connection points: 6
#     Node 14, Type 0, BuildingBlock: CUKXOW_clean_sbu_0, # of connection points: 6
#     Node 15, Type 0, BuildingBlock: CUKXOW_clean_sbu_0, # of connection points: 6
#     Node 16, Type 0, BuildingBlock: CUKXOW_clean_sbu_0, # of connection points: 6
#     Node 17, Type 0, BuildingBlock: CUKXOW_clean_sbu_0, # of connection points: 6
#     Node 18, Type 0, BuildingBlock: CUKXOW_clean_sbu_0, # of connection points: 6
#     Node 19, Type 0, BuildingBlock: CUKXOW_clean_sbu_0, # of connection points: 6
#     Node 20, Type 0, BuildingBlock: CUKXOW_clean_sbu_0, # of connection points: 6
#     Node 21, Type 0, BuildingBlock: CUKXOW_clean_sbu_0, # of connection points: 6
#     Node 22, Type 0, BuildingBlock: CUKXOW_clean_sbu_0, # of connection points: 6
#     Node 23, Type 0, BuildingBlock: CUKXOW_clean_sbu_0, # of connection points: 6
#     Node 24, Type 0, BuildingBlock: CUKXOW_clean_sbu_0, # of connection points: 6
#     Node 25, Type 0, BuildingBlock: CUKXOW_clean_sbu_0, # of connection points: 6
#     Node 26, Type 0, BuildingBlock: CUKXOW_clean_sbu_0, # of connection points: 6
#     Node 27, Type 0, BuildingBlock: CUKXOW_clean_sbu_0, # of connection points: 6
#     Node 28, Type 0, BuildingBlock: CUKXOW_clean_sbu_0, # of connection points: 6
#     Node 29, Type 0, BuildingBlock: CUKXOW_clean_sbu_0, # of connection points: 6
#     Node 30, Type 0, BuildingBlock: CUKXOW_clean_sbu_0, # of connection points: 6
#     Node 31, Type 0, BuildingBlock: CUKXOW_clean_sbu_0, # of connection points: 6
#     Edge 32, Type (0, 0), BuildingBlock: TEMPAE_clean_linker_10, # of connection points: 2
#     Edge 33, Type (0, 0), BuildingBlock: TEMPAE_clean_linker_10, # of connection points: 2
#     Edge 34, Type (0, 0), BuildingBlock: TEMPAE_clean_linker_10, # of connection points: 2
#     Edge 35, Type (0, 0), BuildingBlock: TEMPAE_clean_linker_10, # of connection points: 2
#     Edge 36, Type (0, 0), BuildingBlock: TEMPAE_clean_linker_10, # of connection points: 2
#     Edge 37, Type (0, 0), BuildingBlock: TEMPAE_clean_linker_10, # of connection points: 2
#     Edge 38, Type (0, 0), BuildingBlock: TEMPAE_clean_linker_10, # of connection points: 2
#     Edge 39, Type (0, 0), BuildingBlock: TEMPAE_clean_linker_10, # of connection points: 2
#     Edge 40, Type (0, 0), BuildingBlock: TEMPAE_clean_linker_10, # of connection points: 2
#     Edge 41, Type (0, 0), BuildingBlock: TEMPAE_clean_linker_10, # of connection points: 2
#     Edge 42, Type (0, 0), BuildingBlock: TEMPAE_clean_linker_10, # of connection points: 2
#     Edge 43, Type (0, 0), BuildingBlock: TEMPAE_clean_linker_10, # of connection points: 2
#     Edge 44, Type (0, 0), BuildingBlock: TEMPAE_clean_linker_10, # of connection points: 2
#     Edge 45, Type (0, 0), BuildingBlock: TEMPAE_clean_linker_10, # of connection points: 2
#     Edge 46, Type (0, 0), BuildingBlock: TEMPAE_clean_linker_10, # of connection points: 2
#     Edge 47, Type (0, 0), BuildingBlock: TEMPAE_clean_linker_10, # of connection points: 2
#     Edge 48, Type (0, 0), BuildingBlock: TEMPAE_clean_linker_10, # of connection points: 2
#     Edge 49, Type (0, 0), BuildingBlock: TEMPAE_clean_linker_10, # of connection points: 2
#     Edge 50, Type (0, 0), BuildingBlock: TEMPAE_clean_linker_10, # of connection points: 2
#     Edge 51, Type (0, 0), BuildingBlock: TEMPAE_clean_linker_10, # of connection points: 2
#     Edge 52, Type (0, 0), BuildingBlock: TEMPAE_clean_linker_10, # of connection points: 2
#     Edge 53, Type (0, 0), BuildingBlock: TEMPAE_clean_linker_10, # of connection points: 2
#     Edge 54, Type (0, 0), BuildingBlock: TEMPAE_clean_linker_10, # of connection points: 2
#     Edge 55, Type (0, 0), BuildingBlock: TEMPAE_clean_linker_10, # of connection points: 2
#     Edge 56, Type (0, 0), BuildingBlock: TEMPAE_clean_linker_10, # of connection points: 2
#     Edge 57, Type (0, 0), BuildingBlock: TEMPAE_clean_linker_10, # of connection points: 2
#     Edge 58, Type (0, 0), BuildingBlock: TEMPAE_clean_linker_10, # of connection points: 2
#     Edge 59, Type (0, 0), BuildingBlock: TEMPAE_clean_linker_10, # of connection points: 2
#     Edge 60, Type (0, 0), BuildingBlock: TEMPAE_clean_linker_10, # of connection points: 2
#     Edge 61, Type (0, 0), BuildingBlock: TEMPAE_clean_linker_10, # of connection points: 2
#     Edge 62, Type (0, 0), BuildingBlock: TEMPAE_clean_linker_10, # of connection points: 2
#     Edge 63, Type (0, 0), BuildingBlock: TEMPAE_clean_linker_10, # of connection points: 2
#     Edge 64, Type (0, 0), BuildingBlock: TEMPAE_clean_linker_10, # of connection points: 2
#     Edge 65, Type (0, 0), BuildingBlock: TEMPAE_clean_linker_10, # of connection points: 2
#     Edge 66, Type (0, 0), BuildingBlock: TEMPAE_clean_linker_10, # of connection points: 2
#     Edge 67, Type (0, 0), BuildingBlock: TEMPAE_clean_linker_10, # of connection points: 2
#     Edge 68, Type (0, 0), BuildingBlock: TEMPAE_clean_linker_10, # of connection points: 2
#     Edge 69, Type (0, 0), BuildingBlock: TEMPAE_clean_linker_10, # of connection points: 2
#     Edge 70, Type (0, 0), BuildingBlock: TEMPAE_clean_linker_10, # of connection points: 2
#     Edge 71, Type (0, 0), BuildingBlock: TEMPAE_clean_linker_10, # of connection points: 2
#     Edge 72, Type (0, 0), BuildingBlock: TEMPAE_clean_linker_10, # of connection points: 2
#     Edge 73, Type (0, 0), BuildingBlock: TEMPAE_clean_linker_10, # of connection points: 2
#     Edge 74, Type (0, 0), BuildingBlock: TEMPAE_clean_linker_10, # of connection points: 2
#     Edge 75, Type (0, 0), BuildingBlock: TEMPAE_clean_linker_10, # of connection points: 2
#     Edge 76, Type (0, 0), BuildingBlock: TEMPAE_clean_linker_10, # of connection points: 2
#     Edge 77, Type (0, 0), BuildingBlock: TEMPAE_clean_linker_10, # of connection points: 2
#     Edge 78, Type (0, 0), BuildingBlock: TEMPAE_clean_linker_10, # of connection points: 2
#     Edge 79, Type (0, 0), BuildingBlock: TEMPAE_clean_linker_10, # of connection points: 2
#     Edge 80, Type (0, 0), BuildingBlock: TEMPAE_clean_linker_10, # of connection points: 2
#     Edge 81, Type (0, 0), BuildingBlock: TEMPAE_clean_linker_10, # of connection points: 2
#     Edge 82, Type (0, 0), BuildingBlock: TEMPAE_clean_linker_10, # of connection points: 2
#     Edge 83, Type (0, 0), BuildingBlock: TEMPAE_clean_linker_10, # of connection points: 2
#     Edge 84, Type (0, 0), BuildingBlock: TEMPAE_clean_linker_10, # of connection points: 2
#     Edge 85, Type (0, 0), BuildingBlock: TEMPAE_clean_linker_10, # of connection points: 2
#     Edge 86, Type (0, 0), BuildingBlock: TEMPAE_clean_linker_10, # of connection points: 2
#     Edge 87, Type (0, 0), BuildingBlock: TEMPAE_clean_linker_10, # of connection points: 2
#     Edge 88, Type (0, 0), BuildingBlock: TEMPAE_clean_linker_10, # of connection points: 2
#     Edge 89, Type (0, 0), BuildingBlock: TEMPAE_clean_linker_10, # of connection points: 2
#     Edge 90, Type (0, 0), BuildingBlock: TEMPAE_clean_linker_10, # of connection points: 2
#     Edge 91, Type (0, 0), BuildingBlock: TEMPAE_clean_linker_10, # of connection points: 2
#     Edge 92, Type (0, 0), BuildingBlock: TEMPAE_clean_linker_10, # of connection points: 2
#     Edge 93, Type (0, 0), BuildingBlock: TEMPAE_clean_linker_10, # of connection points: 2
#     Edge 94, Type (0, 0), BuildingBlock: TEMPAE_clean_linker_10, # of connection points: 2
#     Edge 95, Type (0, 0), BuildingBlock: TEMPAE_clean_linker_10, # of connection points: 2
#     Edge 96, Type (0, 0), BuildingBlock: TEMPAE_clean_linker_10, # of connection points: 2
#     Edge 97, Type (0, 0), BuildingBlock: TEMPAE_clean_linker_10, # of connection points: 2
#     Edge 98, Type (0, 0), BuildingBlock: TEMPAE_clean_linker_10, # of connection points: 2
#     Edge 99, Type (0, 0), BuildingBlock: TEMPAE_clean_linker_10, # of connection points: 2
#     Edge 100, Type (0, 0), BuildingBlock: TEMPAE_clean_linker_10, # of connection points: 2
#     Edge 101, Type (0, 0), BuildingBlock: TEMPAE_clean_linker_10, # of connection points: 2
#     Edge 102, Type (0, 0), BuildingBlock: TEMPAE_clean_linker_10, # of connection points: 2
#     Edge 103, Type (0, 0), BuildingBlock: TEMPAE_clean_linker_10, # of connection points: 2
#     Edge 104, Type (0, 0), BuildingBlock: TEMPAE_clean_linker_10, # of connection points: 2
#     Edge 105, Type (0, 0), BuildingBlock: TEMPAE_clean_linker_10, # of connection points: 2
#     Edge 106, Type (0, 0), BuildingBlock: TEMPAE_clean_linker_10, # of connection points: 2
#     Edge 107, Type (0, 0), BuildingBlock: TEMPAE_clean_linker_10, # of connection points: 2
#     Edge 108, Type (0, 0), BuildingBlock: TEMPAE_clean_linker_10, # of connection points: 2
#     Edge 109, Type (0, 0), BuildingBlock: TEMPAE_clean_linker_10, # of connection points: 2
#     Edge 110, Type (0, 0), BuildingBlock: TEMPAE_clean_linker_10, # of connection points: 2
#     Edge 111, Type (0, 0), BuildingBlock: TEMPAE_clean_linker_10, # of connection points: 2
#     Edge 112, Type (0, 0), BuildingBlock: TEMPAE_clean_linker_10, # of connection points: 2
#     Edge 113, Type (0, 0), BuildingBlock: TEMPAE_clean_linker_10, # of connection points: 2
#     Edge 114, Type (0, 0), BuildingBlock: TEMPAE_clean_linker_10, # of connection points: 2
#     Edge 115, Type (0, 0), BuildingBlock: TEMPAE_clean_linker_10, # of connection points: 2
#     Edge 116, Type (0, 0), BuildingBlock: TEMPAE_clean_linker_10, # of connection points: 2
#     Edge 117, Type (0, 0), BuildingBlock: TEMPAE_clean_linker_10, # of connection points: 2
#     Edge 118, Type (0, 0), BuildingBlock: TEMPAE_clean_linker_10, # of connection points: 2
#     Edge 119, Type (0, 0), BuildingBlock: TEMPAE_clean_linker_10, # of connection points: 2
#     Edge 120, Type (0, 0), BuildingBlock: TEMPAE_clean_linker_10, # of connection points: 2
#     Edge 121, Type (0, 0), BuildingBlock: TEMPAE_clean_linker_10, # of connection points: 2
#     Edge 122, Type (0, 0), BuildingBlock: TEMPAE_clean_linker_10, # of connection points: 2
#     Edge 123, Type (0, 0), BuildingBlock: TEMPAE_clean_linker_10, # of connection points: 2
#     Edge 124, Type (0, 0), BuildingBlock: TEMPAE_clean_linker_10, # of connection points: 2
#     Edge 125, Type (0, 0), BuildingBlock: TEMPAE_clean_linker_10, # of connection points: 2
#     Edge 126, Type (0, 0), BuildingBlock: TEMPAE_clean_linker_10, # of connection points: 2
#     Edge 127, Type (0, 0), BuildingBlock: TEMPAE_clean_linker_10, # of connection points: 2
# Relax obj value: 0.264
# Max RMSD: 0.202
# Mean RMSD: 0.202
data_MOF--net-wir--node1-CUKXOW_clean_sbu_0--edge1-TEMPAE_clean_linker_10
_symmetry_space_group_name_H-M    P1
_symmetry_Int_Tables_number       1
_symmetry_cell_setting            triclinic
loop_
_symmetry_equiv_pos_as_xyz
'x, y, z'
_cell_length_a     39.011997
_cell_length_b     38.928846
_cell_length_c     91.261412
_cell_angle_alpha  90.006232
_cell_angle_beta   89.950081
_cell_angle_gamma 90.028186
loop_
_atom_site_label
_atom_site_type_symbol
_atom_site_fract_x
_atom_site_fract_y
_atom_site_fract_z
_atom_type_partial_charge
Tb0 Tb 0.1381 0.10788 0.33506 0.0
C1 C 0.21426 0.08962 0.34401 0.0
Tb2 Tb 0.19606 0.14645 0.31857 0.0
O3 O 0.13191 0.06419 0.31989 0.0
O4 O 0.16735 0.10161 0.31583 0.0
O5 O 0.18127 0.08912 0.34779 0.0
C6 C 0.22757 0.17358 0.29501 0.0
O7 O 0.22528 0.10597 0.33168 0.0
C8 C 0.188 0.16482 0.34521 0.0
C9 C 0.11821 0.17859 0.31894 0.0
O10 O 0.23833 0.17576 0.30847 0.0
O11 O 0.2002 0.15463 0.29485 0.0
O12 O 0.21671 0.16951 0.33816 0.0
O13 O 0.16444 0.15536 0.33662 0.0
O14 O 0.15097 0.18211 0.31454 0.0
O15 O 0.10881 0.15185 0.32697 0.0
C16 C 0.08242 0.09521 0.3504 0.0
O17 O 0.08376 0.09854 0.33632 0.0
O18 O 0.11309 0.09743 0.35602 0.0
C19 C 0.15492 0.07442 0.31063 0.0
Tb20 Tb 0.17246 0.87744 0.58052 0.0
C21 C 0.18299 0.95431 0.59159 0.0
Tb22 Tb 0.12841 0.93268 0.56527 0.0
O23 O 0.21277 0.8708 0.56399 0.0
O24 O 0.173 0.90437 0.56049 0.0
O25 O 0.18769 0.92088 0.59418 0.0
C26 C 0.1013 0.9732 0.5445 0.0
O27 O 0.16346 0.96519 0.58008 0.0
C28 C 0.10198 0.90648 0.58913 0.0
C29 C 0.10423 0.85325 0.56382 0.0
O30 O 0.09915 0.97854 0.55858 0.0
O31 O 0.12077 0.94662 0.5423 0.0
O32 O 0.08383 0.91942 0.57854 0.0
O33 O 0.133 0.91185 0.58629 0.0
O34 O 0.10067 0.8848 0.55818 0.0
O35 O 0.12956 0.84617 0.57292 0.0
C36 C 0.18417 0.82187 0.59606 0.0
O37 O 0.15762 0.82743 0.58797 0.0
O38 O 0.20457 0.84848 0.59589 0.0
C39 C 0.19994 0.89255 0.55475 0.0
Tb40 Tb 0.39902 0.93142 0.83487 0.0
C41 C 0.32226 0.94542 0.84493 0.0
Tb42 Tb 0.34257 0.88755 0.82032 0.0
O43 O 0.4022 0.97298 0.81859 0.0
O44 O 0.36956 0.93262 0.8154 0.0
O45 O 0.35554 0.94914 0.84778 0.0
C46 C 0.30858 0.84723 0.80133 0.0
O47 O 0.31105 0.92652 0.83333 0.0
C48 C 0.35269 0.87478 0.84755 0.0
C49 C 0.42257 0.86219 0.81933 0.0
O50 O 0.32398 0.83753 0.81317 0.0
O51 O 0.31076 0.88066 0.80037 0.0
O52 O 0.32328 0.87004 0.84113 0.0
O53 O 0.37562 0.88281 0.83837 0.0
O54 O 0.39093 0.85939 0.81369 0.0
O55 O 0.42993 0.88716 0.82863 0.0
C56 C 0.45389 0.95099 0.84951 0.0
O57 O 0.45312 0.94303 0.83574 0.0
O58 O 0.42316 0.94908 0.85508 0.0
C59 C 0.38004 0.96005 0.80961 0.0
Tb60 Tb 0.348 0.15094 0.08414 0.0
C61 C 0.33852 0.07586 0.09609 0.0
Tb62 Tb 0.39346 0.09989 0.07059 0.0
O63 O 0.30426 0.13169 0.07197 0.0
O64 O 0.3526 0.13065 0.06241 0.0
O65 O 0.33363 0.1091 0.09866 0.0
C66 C 0.42371 0.05826 0.05083 0.0
O67 O 0.35837 0.06582 0.08463 0.0
C68 C 0.41914 0.12673 0.09442 0.0
C69 C 0.41672 0.17871 0.0697 0.0
O70 O 0.42786 0.05678 0.06495 0.0
O71 O 0.4008 0.0815 0.04808 0.0
O72 O 0.4375 0.11555 0.08355 0.0
O73 O 0.38827 0.11969 0.09193 0.0
O74 O 0.41976 0.14806 0.06325 0.0
O75 O 0.39212 0.18402 0.07941 0.0
C76 C 0.32088 0.20783 0.09545 0.0
O77 O 0.33277 0.20455 0.08229 0.0
O78 O 0.32353 0.17856 0.10217 0.0
C79 C 0.32165 0.12181 0.06066 0.0
Tb80 Tb 0.13531 0.9281 0.18859 0.0
C81 C 0.21071 0.93914 0.17689 0.0
Tb82 Tb 0.18784 0.88369 0.20238 0.0
O83 O 0.15091 0.97263 0.2011 0.0
O84 O 0.15558 0.92397 0.21046 0.0
O85 O 0.17745 0.94384 0.17443 0.0
C86 C 0.23179 0.85034 0.22032 0.0
O87 O 0.22118 0.91929 0.18827 0.0
C88 C 0.16105 0.85825 0.17845 0.0
C89 C 0.10969 0.85944 0.20386 0.0
O90 O 0.22653 0.84391 0.20657 0.0
O91 O 0.21403 0.87745 0.22372 0.0
O92 O 0.17214 0.83966 0.18923 0.0
O93 O 0.16798 0.889 0.18116 0.0
O94 O 0.14024 0.85764 0.21042 0.0
O95 O 0.1038 0.88333 0.1939 0.0
C96 C 0.07882 0.94993 0.17514 0.0
O97 O 0.0807 0.94027 0.18868 0.0
O98 O 0.10918 0.94876 0.16935 0.0
C99 C 0.16235 0.95562 0.21228 0.0
Tb100 Tb 0.3624 0.88725 0.43614 0.0
C101 C 0.3465 0.96373 0.42693 0.0
Tb102 Tb 0.39923 0.94475 0.45376 0.0
O103 O 0.31557 0.88292 0.4495 0.0
O104 O 0.35359 0.91661 0.45522 0.0
O105 O 0.34715 0.93088 0.42294 0.0
C106 C 0.42604 0.97585 0.47754 0.0
O107 O 0.36002 0.97429 0.43994 0.0
C108 C 0.42155 0.93622 0.42769 0.0
C109 C 0.42992 0.86589 0.45399 0.0
O110 O 0.42527 0.98859 0.46436 0.0
O111 O 0.40996 0.94667 0.47736 0.0
O112 O 0.42594 0.96486 0.43483 0.0
O113 O 0.41001 0.91313 0.43602 0.0
O114 O 0.43372 0.89882 0.45824 0.0
O115 O 0.40367 0.85669 0.44568 0.0
C116 C 0.35182 0.83353 0.41928 0.0
O117 O 0.35301 0.83298 0.43345 0.0
O118 O 0.35505 0.86489 0.41446 0.0
C119 C 0.32478 0.90544 0.4592 0.0
Tb120 Tb 0.39181 0.09612 0.68483 0.0
C121 C 0.31519 0.08128 0.67434 0.0
Tb122 Tb 0.33463 0.13993 0.69871 0.0
O123 O 0.39559 0.05538 0.70127 0.0
O124 O 0.36175 0.09506 0.70426 0.0
O125 O 0.34865 0.07734 0.67185 0.0
C126 C 0.2991 0.17976 0.71747 0.0
O127 O 0.30352 0.10111 0.68556 0.0
C128 C 0.34672 0.15212 0.67146 0.0
C129 C 0.41417 0.16654 0.69999 0.0
O130 O 0.31408 0.18955 0.70552 0.0
O131 O 0.30264 0.1465 0.71865 0.0
O132 O 0.31682 0.15688 0.6775 0.0
O133 O 0.36868 0.1444 0.68104 0.0
O134 O 0.38228 0.16919 0.70541 0.0
O135 O 0.42214 0.14115 0.69096 0.0
C136 C 0.44748 0.07651 0.67062 0.0
O137 O 0.44604 0.08515 0.6843 0.0
O138 O 0.41691 0.07782 0.66488 0.0
C139 C 0.37318 0.06811 0.71019 0.0
Tb140 Tb 0.17515 0.15126 0.9383 0.0
C141 C 0.1948 0.07581 0.92793 0.0
Tb142 Tb 0.13433 0.09658 0.9506 0.0
O143 O 0.18998 0.16747 0.96025 0.0
O144 O 0.18352 0.11579 0.95615 0.0
O145 O 0.20037 0.10933 0.92656 0.0
C146 C 0.0961 0.0595 0.96947 0.0
O147 O 0.17232 0.06391 0.938 0.0
C148 C 0.12286 0.10508 0.92316 0.0
C149 C 0.10506 0.17478 0.95051 0.0
O150 O 0.08584 0.07306 0.9573 0.0
O151 O 0.12878 0.06555 0.97083 0.0
O152 O 0.12008 0.07555 0.92973 0.0
O153 O 0.1277 0.12905 0.93228 0.0
O154 O 0.10598 0.14482 0.95772 0.0
O155 O 0.12764 0.18004 0.93999 0.0
C156 C 0.20707 0.20192 0.92424 0.0
O157 O 0.19753 0.20235 0.93777 0.0
O158 O 0.19976 0.17212 0.91867 0.0
C159 C 0.19013 0.13733 0.96606 0.0
Tb160 Tb 0.84417 0.88502 0.70223 0.0
C161 C 0.92292 0.86191 0.70483 0.0
Tb162 Tb 0.89933 0.93047 0.68821 0.0
O163 O 0.86096 0.84074 0.68953 0.0
O164 O 0.86686 0.89016 0.68144 0.0
O165 O 0.89184 0.86012 0.71102 0.0
C166 C 0.95576 0.94664 0.67377 0.0
O167 O 0.92958 0.88564 0.69485 0.0
C168 C 0.8816 0.95784 0.71367 0.0
C169 C 0.82329 0.94035 0.67618 0.0
O170 O 0.95366 0.92557 0.68467 0.0
O171 O 0.92554 0.9592 0.67084 0.0
O172 O 0.90338 0.97121 0.70461 0.0
O173 O 0.87035 0.93065 0.70785 0.0
O174 O 0.85668 0.94654 0.67426 0.0
O175 O 0.81215 0.91946 0.68716 0.0
C176 C 0.79894 0.85453 0.72029 0.0
O177 O 0.80101 0.85006 0.7062 0.0
O178 O 0.82093 0.87807 0.72403 0.0
C179 C 0.8739 0.85922 0.67907 0.0
Tb180 Tb 0.89033 0.08753 0.44896 0.0
C181 C 0.91698 0.16716 0.45034 0.0
Tb182 Tb 0.84743 0.14493 0.43462 0.0
O183 O 0.90802 0.06906 0.42799 0.0
O184 O 0.89563 0.12132 0.43118 0.0
O185 O 0.91906 0.13532 0.45588 0.0
C186 C 0.82829 0.20074 0.42042 0.0
O187 O 0.89225 0.17516 0.44103 0.0
C188 C 0.81808 0.12581 0.45963 0.0
C189 C 0.83247 0.06803 0.42436 0.0
O190 O 0.83666 0.19929 0.43412 0.0
O191 O 0.82971 0.17014 0.41462 0.0
O192 O 0.8058 0.14841 0.45068 0.0
O193 O 0.84545 0.11487 0.45396 0.0
O194 O 0.82913 0.10153 0.42163 0.0
O195 O 0.8517 0.05642 0.43575 0.0
C196 C 0.92978 0.05288 0.46806 0.0
O197 O 0.93985 0.0681 0.45621 0.0
O198 O 0.89644 0.05552 0.46893 0.0
C199 C 0.9036 0.09888 0.4218 0.0
Tb200 Tb 0.69422 0.14826 0.20223 0.0
C201 C 0.61415 0.17297 0.20283 0.0
Tb202 Tb 0.63884 0.1051 0.18656 0.0
O203 O 0.71387 0.16821 0.18184 0.0
O204 O 0.66177 0.15414 0.18407 0.0
O205 O 0.64539 0.17539 0.20888 0.0
C206 C 0.58455 0.08527 0.17161 0.0
O207 O 0.60746 0.14878 0.19308 0.0
C208 C 0.65697 0.07417 0.21134 0.0
C209 C 0.71596 0.09324 0.17679 0.0
O210 O 0.5848 0.09376 0.18532 0.0
O211 O 0.61546 0.08718 0.16621 0.0
O212 O 0.63541 0.06202 0.20192 0.0
O213 O 0.66759 0.10231 0.20623 0.0
O214 O 0.68288 0.08952 0.1736 0.0
O215 O 0.72659 0.11099 0.18879 0.0
C216 C 0.72725 0.18707 0.22214 0.0
O217 O 0.71176 0.19777 0.21047 0.0
O218 O 0.72565 0.15352 0.22242 0.0
C219 C 0.68473 0.16356 0.17517 0.0
Tb220 Tb 0.63085 0.94306 0.95366 0.0
C221 C 0.60282 0.86367 0.95389 0.0
Tb222 Tb 0.67205 0.88589 0.93817 0.0
O223 O 0.61322 0.96434 0.93323 0.0
O224 O 0.6245 0.91136 0.93527 0.0
O225 O 0.60111 0.89519 0.95981 0.0
C226 C 0.68846 0.83226 0.92199 0.0
O227 O 0.62735 0.8559 0.94448 0.0
C228 C 0.70226 0.90209 0.96342 0.0
C229 C 0.68907 0.96293 0.92909 0.0
O230 O 0.68183 0.83151 0.93588 0.0
O231 O 0.68719 0.86375 0.91717 0.0
O232 O 0.71375 0.87975 0.95412 0.0
O233 O 0.6751 0.91416 0.95798 0.0
O234 O 0.69178 0.92963 0.92596 0.0
O235 O 0.66992 0.97425 0.94059 0.0
C236 C 0.59289 0.97697 0.97358 0.0
O237 O 0.58187 0.9619 0.96186 0.0
O238 O 0.6263 0.97447 0.9739 0.0
C239 C 0.61696 0.93516 0.92642 0.0
Tb240 Tb 0.84042 0.14673 0.8207 0.0
C241 C 0.92102 0.17024 0.82013 0.0
Tb242 Tb 0.89505 0.10259 0.83634 0.0
O243 O 0.82081 0.16686 0.84101 0.0
O244 O 0.87282 0.15201 0.83893 0.0
O245 O 0.8898 0.17331 0.81408 0.0
C246 C 0.9507 0.08316 0.85035 0.0
O247 O 0.9271 0.14586 0.82986 0.0
C248 C 0.87594 0.07227 0.81148 0.0
C249 C 0.81809 0.09142 0.84627 0.0
O250 O 0.94869 0.08953 0.83647 0.0
O251 O 0.92062 0.08646 0.85646 0.0
O252 O 0.89698 0.05929 0.82091 0.0
O253 O 0.86631 0.10061 0.81671 0.0
O254 O 0.85113 0.08717 0.84942 0.0
O255 O 0.80775 0.10959 0.8343 0.0
C256 C 0.80727 0.18512 0.80072 0.0
O257 O 0.82337 0.19615 0.81219 0.0
O258 O 0.80843 0.15157 0.80069 0.0
C259 C 0.84976 0.16169 0.84775 0.0
Tb260 Tb 0.63422 0.09796 0.57041 0.0
C261 C 0.6132 0.17745 0.56844 0.0
Tb262 Tb 0.68226 0.15141 0.5836 0.0
O263 O 0.59164 0.11595 0.58376 0.0
O264 O 0.64151 0.12022 0.5912 0.0
O265 O 0.61054 0.14671 0.56196 0.0
C266 C 0.7038 0.20848 0.59623 0.0
O267 O 0.63733 0.18288 0.57834 0.0
C268 C 0.70783 0.13186 0.55803 0.0
C269 C 0.691 0.07546 0.59575 0.0
O270 O 0.68473 0.20659 0.5847 0.0
O271 O 0.71107 0.17764 0.60089 0.0
O272 O 0.72248 0.15299 0.56697 0.0
O273 O 0.68046 0.12187 0.56409 0.0
O274 O 0.69894 0.10864 0.5973 0.0
O275 O 0.66844 0.06494 0.58527 0.0
C276 C 0.60186 0.05364 0.55246 0.0
O277 O 0.59759 0.05599 0.56656 0.0
O278 O 0.62603 0.07484 0.54866 0.0
C279 C 0.61096 0.12772 0.5942 0.0
Tb280 Tb 0.68133 0.87967 0.31659 0.0
C281 C 0.6023 0.85472 0.31688 0.0
Tb282 Tb 0.62671 0.92392 0.33237 0.0
O283 O 0.67018 0.83464 0.32996 0.0
O284 O 0.66089 0.88362 0.33773 0.0
O285 O 0.63243 0.85326 0.30985 0.0
C286 C 0.57149 0.94282 0.34683 0.0
O287 O 0.59685 0.87815 0.32708 0.0
C288 C 0.64423 0.95306 0.30712 0.0
C289 C 0.70364 0.93484 0.34268 0.0
O290 O 0.57173 0.92673 0.33444 0.0
O291 O 0.60276 0.94856 0.35126 0.0
O292 O 0.62311 0.96626 0.31649 0.0
O293 O 0.65422 0.92513 0.31256 0.0
O294 O 0.67046 0.94044 0.34537 0.0
O295 O 0.7141 0.91475 0.33125 0.0
C296 C 0.71977 0.85336 0.29492 0.0
O297 O 0.72748 0.85232 0.30883 0.0
O298 O 0.69186 0.87117 0.29336 0.0
C299 C 0.65682 0.85235 0.34062 0.0
Tb300 Tb 0.89953 0.94245 0.06989 0.0
C301 C 0.92711 0.86301 0.06974 0.0
Tb302 Tb 0.85627 0.88722 0.08414 0.0
O303 O 0.92022 0.96143 0.09018 0.0
O304 O 0.90541 0.90933 0.08798 0.0
O305 O 0.93289 0.89576 0.0658 0.0
C306 C 0.83364 0.83268 0.09814 0.0
O307 O 0.89887 0.85476 0.07698 0.0
C308 C 0.82449 0.90773 0.05992 0.0
C309 C 0.84201 0.96304 0.09424 0.0
O310 O 0.84383 0.83331 0.08466 0.0
O311 O 0.83592 0.86324 0.10391 0.0
O312 O 0.81301 0.88502 0.06897 0.0
O313 O 0.85267 0.91832 0.06502 0.0
O314 O 0.83999 0.92995 0.09763 0.0
O315 O 0.85964 0.97376 0.08225 0.0
C316 C 0.93134 0.97582 0.04786 0.0
O317 O 0.93282 0.98405 0.06164 0.0
O318 O 0.91077 0.94984 0.04651 0.0
C319 C 0.91451 0.93252 0.09693 0.0
Tb320 Tb 0.63417 0.60645 0.83379 0.0
C321 C 0.71043 0.59285 0.84343 0.0
Tb322 Tb 0.69052 0.64661 0.81741 0.0
O323 O 0.63118 0.56102 0.81952 0.0
O324 O 0.66426 0.60012 0.81468 0.0
O325 O 0.67759 0.59242 0.84731 0.0
C326 C 0.72151 0.67601 0.79419 0.0
O327 O 0.72081 0.60716 0.83058 0.0
C328 C 0.6813 0.66616 0.84392 0.0
C329 C 0.61165 0.67621 0.81768 0.0
O330 O 0.73398 0.67441 0.80738 0.0
O331 O 0.69266 0.65944 0.79402 0.0
O332 O 0.70975 0.67176 0.83683 0.0
O333 O 0.65836 0.65515 0.83537 0.0
O334 O 0.6443 0.68063 0.8133 0.0
O335 O 0.60294 0.64911 0.82564 0.0
C336 C 0.58008 0.58929 0.8494 0.0
O337 O 0.57985 0.59703 0.83561 0.0
O338 O 0.61125 0.59053 0.85451 0.0
C339 C 0.6538 0.57143 0.81016 0.0
Tb340 Tb 0.67329 0.38833 0.08443 0.0
C341 C 0.69115 0.46526 0.09327 0.0
Tb342 Tb 0.63184 0.44582 0.06923 0.0
O343 O 0.7147 0.38255 0.06832 0.0
O344 O 0.67574 0.41664 0.06465 0.0
O345 O 0.69354 0.43198 0.09651 0.0
C346 C 0.59311 0.47975 0.04968 0.0
O347 O 0.67185 0.47663 0.08184 0.0
C348 C 0.61908 0.43779 0.09658 0.0
C349 C 0.60345 0.36663 0.0691 0.0
O350 O 0.58277 0.46586 0.06178 0.0
O351 O 0.62636 0.47618 0.04878 0.0
O352 O 0.61536 0.46709 0.08988 0.0
O353 O 0.62599 0.41407 0.0876 0.0
O354 O 0.60162 0.39821 0.06326 0.0
O355 O 0.6282 0.35871 0.07836 0.0
C356 C 0.69009 0.33337 0.09964 0.0
O357 O 0.68335 0.33392 0.08576 0.0
O358 O 0.68866 0.36437 0.10503 0.0
C359 C 0.70283 0.40476 0.05908 0.0
Tb360 Tb 0.90313 0.4341 0.33353 0.0
C361 C 0.82624 0.44384 0.34468 0.0
Tb362 Tb 0.84875 0.38659 0.31946 0.0
O363 O 0.90656 0.47343 0.31629 0.0
O364 O 0.87484 0.43187 0.31396 0.0
O365 O 0.85941 0.4513 0.34659 0.0
C366 C 0.80862 0.35732 0.29906 0.0
O367 O 0.81583 0.42163 0.334 0.0
C368 C 0.87656 0.36271 0.34347 0.0
C369 C 0.9281 0.36392 0.31881 0.0
O370 O 0.80414 0.35498 0.3132 0.0
O371 O 0.8341 0.37806 0.2966 0.0
O372 O 0.86338 0.34343 0.33328 0.0
O373 O 0.87055 0.3935 0.34026 0.0
O374 O 0.89765 0.36129 0.31215 0.0
O375 O 0.93359 0.38826 0.32865 0.0
C376 C 0.95972 0.45446 0.34676 0.0
O377 O 0.95809 0.43574 0.33509 0.0
O378 O 0.92884 0.46213 0.35121 0.0
C379 C 0.88531 0.45842 0.30751 0.0
Tb380 Tb 0.85303 0.63928 0.58545 0.0
C381 C 0.83808 0.5627 0.59499 0.0
Tb382 Tb 0.89163 0.58188 0.56865 0.0
O383 O 0.80747 0.643 0.57123 0.0
O384 O 0.8459 0.60928 0.56646 0.0
O385 O 0.83845 0.59562 0.59893 0.0
C386 C 0.92008 0.55067 0.54523 0.0
O387 O 0.85196 0.55217 0.58205 0.0
C388 C 0.9124 0.59154 0.59495 0.0
C389 C 0.92167 0.6609 0.56827 0.0
O390 O 0.91955 0.53855 0.55852 0.0
O391 O 0.9029 0.57918 0.54511 0.0
O392 O 0.91735 0.56278 0.58797 0.0
O393 O 0.90132 0.61437 0.58638 0.0
O394 O 0.92518 0.62818 0.56374 0.0
O395 O 0.89577 0.66985 0.57687 0.0
C396 C 0.83868 0.69402 0.60126 0.0
O397 O 0.84472 0.69389 0.58731 0.0
O398 O 0.8397 0.6628 0.60641 0.0
C399 C 0.81753 0.62008 0.56189 0.0
Tb400 Tb 0.62634 0.42506 0.68795 0.0
C401 C 0.70313 0.43705 0.67731 0.0
Tb402 Tb 0.68123 0.37917 0.70247 0.0
O403 O 0.62275 0.46563 0.70454 0.0
O404 O 0.65435 0.42437 0.70771 0.0
O405 O 0.66989 0.44377 0.67524 0.0
C406 C 0.72125 0.3512 0.7232 0.0
O407 O 0.71373 0.41475 0.68793 0.0
C408 C 0.65573 0.35479 0.67804 0.0
C409 C 0.60244 0.35412 0.70235 0.0
O410 O 0.72701 0.34977 0.70913 0.0
O411 O 0.69441 0.37021 0.72543 0.0
O412 O 0.66886 0.33572 0.68832 0.0
O413 O 0.66031 0.38558 0.68159 0.0
O414 O 0.63277 0.35203 0.70915 0.0
O415 O 0.59664 0.37861 0.69263 0.0
C416 C 0.57049 0.44515 0.67423 0.0
O417 O 0.57131 0.42855 0.68649 0.0
O418 O 0.60157 0.45075 0.6695 0.0
C419 C 0.64393 0.45168 0.71366 0.0
Tb420 Tb 0.84961 0.38584 0.93674 0.0
C421 C 0.83483 0.46252 0.92658 0.0
Tb422 Tb 0.89288 0.44288 0.95108 0.0
O423 O 0.80786 0.38241 0.95271 0.0
O424 O 0.84774 0.41582 0.95614 0.0
O425 O 0.83093 0.42911 0.92389 0.0
C426 C 0.93163 0.47861 0.9701 0.0
O427 O 0.85453 0.47407 0.93783 0.0
C428 C 0.90586 0.4315 0.9239 0.0
C429 C 0.91888 0.36305 0.95245 0.0
O430 O 0.94199 0.46365 0.95823 0.0
O431 O 0.89842 0.47486 0.97107 0.0
O432 O 0.91032 0.46135 0.93006 0.0
O433 O 0.89796 0.40916 0.93333 0.0
O434 O 0.92202 0.3951 0.95771 0.0
O435 O 0.89353 0.35513 0.94347 0.0
C436 C 0.83177 0.33006 0.92228 0.0
O437 O 0.83785 0.33168 0.93619 0.0
O438 O 0.8343 0.36053 0.91643 0.0
C439 C 0.82026 0.40481 0.96174 0.0
Tb440 Tb 0.8973 0.60347 0.18687 0.0
C441 C 0.82186 0.59425 0.17508 0.0
Tb442 Tb 0.84552 0.64838 0.20089 0.0
O443 O 0.87966 0.55888 0.19879 0.0
O444 O 0.87678 0.60718 0.20866 0.0
O445 O 0.85504 0.58909 0.17251 0.0
C446 C 0.80165 0.68101 0.21903 0.0
O447 O 0.81172 0.61389 0.18658 0.0
C448 C 0.87272 0.67393 0.17702 0.0
C449 C 0.92386 0.67117 0.2027 0.0
O450 O 0.80804 0.68892 0.20551 0.0
O451 O 0.81831 0.65299 0.22208 0.0
O452 O 0.86188 0.69249 0.18787 0.0
O453 O 0.8654 0.64328 0.17969 0.0
O454 O 0.89335 0.67303 0.2093 0.0
O455 O 0.92942 0.6477 0.1925 0.0
C456 C 0.95373 0.58004 0.17397 0.0
O457 O 0.95109 0.5884 0.18764 0.0
O458 O 0.92412 0.58358 0.16769 0.0
C459 C 0.8688 0.57573 0.21012 0.0
Tb460 Tb 0.68153 0.64845 0.43769 0.0
C461 C 0.68914 0.57227 0.42557 0.0
Tb462 Tb 0.63363 0.59476 0.45143 0.0
O463 O 0.72192 0.65032 0.4543 0.0
O464 O 0.67986 0.61932 0.45725 0.0
O465 O 0.69668 0.60545 0.42377 0.0
C466 C 0.60112 0.55103 0.46962 0.0
O467 O 0.66748 0.56169 0.4364 0.0
C468 C 0.60969 0.6253 0.42798 0.0
C469 C 0.61356 0.67449 0.45378 0.0
O470 O 0.59657 0.55328 0.45554 0.0
O471 O 0.62572 0.5719 0.47325 0.0
O472 O 0.59059 0.61311 0.43841 0.0
O473 O 0.64022 0.61732 0.43068 0.0
O474 O 0.61079 0.64363 0.46015 0.0
O475 O 0.63734 0.68005 0.44373 0.0
C476 C 0.70119 0.70487 0.42397 0.0
O477 O 0.68117 0.70344 0.43524 0.0
O478 O 0.71069 0.67394 0.42026 0.0
C479 C 0.70723 0.62923 0.46328 0.0
Tb480 Tb 0.34544 0.37844 0.20024 0.0
C481 C 0.42405 0.35665 0.20231 0.0
Tb482 Tb 0.39976 0.42625 0.18713 0.0
O483 O 0.36212 0.33628 0.18615 0.0
O484 O 0.36736 0.38664 0.1795 0.0
O485 O 0.39344 0.35442 0.20881 0.0
C486 C 0.4566 0.44643 0.17397 0.0
O487 O 0.42976 0.38031 0.19223 0.0
C488 C 0.38108 0.45102 0.21296 0.0
C489 C 0.3236 0.43722 0.17573 0.0
O490 O 0.45491 0.42918 0.18604 0.0
O491 O 0.4258 0.45284 0.16914 0.0
O492 O 0.40231 0.46581 0.20407 0.0
O493 O 0.37062 0.42404 0.20669 0.0
O494 O 0.3567 0.4453 0.17426 0.0
O495 O 0.31297 0.41356 0.18574 0.0
C496 C 0.30085 0.34664 0.2182 0.0
O497 O 0.30408 0.34126 0.20422 0.0
O498 O 0.32134 0.37152 0.22186 0.0
C499 C 0.37383 0.35621 0.17588 0.0
Tb500 Tb 0.39323 0.59626 0.95234 0.0
C501 C 0.41617 0.6755 0.95359 0.0
Tb502 Tb 0.34769 0.65107 0.93729 0.0
O503 O 0.43789 0.61045 0.93931 0.0
O504 O 0.38867 0.61832 0.93153 0.0
O505 O 0.41811 0.64487 0.96018 0.0
C506 C 0.33183 0.70838 0.92343 0.0
O507 O 0.39283 0.68128 0.9434 0.0
C508 C 0.31937 0.63202 0.96247 0.0
C509 C 0.33788 0.57419 0.92628 0.0
O510 O 0.34415 0.70628 0.93654 0.0
O511 O 0.32721 0.67764 0.91806 0.0
O512 O 0.30553 0.65316 0.95324 0.0
O513 O 0.34724 0.62234 0.95683 0.0
O514 O 0.33058 0.6074 0.92421 0.0
O515 O 0.35951 0.56371 0.93714 0.0
C516 C 0.421 0.55594 0.97299 0.0
O517 O 0.42329 0.55083 0.9589 0.0
O518 O 0.40105 0.58211 0.97526 0.0
C519 C 0.41968 0.62418 0.92892 0.0
Tb520 Tb 0.18842 0.64698 0.70484 0.0
C521 C 0.10977 0.67306 0.70543 0.0
Tb522 Tb 0.13274 0.60396 0.6892 0.0
O523 O 0.17671 0.69273 0.69205 0.0
O524 O 0.16718 0.6439 0.68391 0.0
O525 O 0.1403 0.67405 0.71215 0.0
C526 C 0.07732 0.58919 0.67391 0.0
O527 O 0.10345 0.64969 0.69528 0.0
C528 C 0.14905 0.57431 0.71451 0.0
C529 C 0.20941 0.59317 0.67796 0.0
O530 O 0.07797 0.60614 0.68608 0.0
O531 O 0.10825 0.5798 0.67025 0.0
O532 O 0.12763 0.56179 0.70508 0.0
O533 O 0.16041 0.6018 0.70905 0.0
O534 O 0.17602 0.58766 0.67569 0.0
O535 O 0.22047 0.61276 0.68945 0.0
C536 C 0.22892 0.67335 0.72576 0.0
O537 O 0.23474 0.67515 0.71171 0.0
O538 O 0.20185 0.65454 0.72786 0.0
C539 C 0.16293 0.67528 0.68143 0.0
Tb540 Tb 0.12989 0.43216 0.45247 0.0
C541 C 0.10618 0.35336 0.45379 0.0
Tb542 Tb 0.17673 0.37733 0.43922 0.0
O543 O 0.08743 0.41625 0.43853 0.0
O544 O 0.13756 0.41027 0.43174 0.0
O545 O 0.10404 0.38405 0.46034 0.0
C546 C 0.19676 0.32118 0.42544 0.0
O547 O 0.13065 0.34728 0.44411 0.0
C548 C 0.20195 0.39532 0.46508 0.0
C549 C 0.1881 0.45355 0.4275 0.0
O550 O 0.17829 0.3221 0.43719 0.0
O551 O 0.20442 0.35231 0.42131 0.0
O552 O 0.21611 0.37379 0.45614 0.0
O553 O 0.17511 0.40634 0.4589 0.0
O554 O 0.1957 0.42026 0.4261 0.0
O555 O 0.16492 0.46448 0.43766 0.0
C556 C 0.09834 0.47659 0.47062 0.0
O557 O 0.09413 0.47472 0.45651 0.0
O558 O 0.12209 0.45487 0.47432 0.0
C559 C 0.10705 0.40423 0.42823 0.0
Tb560 Tb 0.33323 0.6398 0.31824 0.0
C561 C 0.41233 0.66916 0.31779 0.0
Tb562 Tb 0.39036 0.59976 0.33448 0.0
O563 O 0.31521 0.66522 0.33786 0.0
O564 O 0.36629 0.64833 0.33583 0.0
O565 O 0.37951 0.67354 0.31368 0.0
C566 C 0.44474 0.58458 0.35038 0.0
O567 O 0.42131 0.64222 0.3258 0.0
C568 C 0.37037 0.56487 0.31088 0.0
C569 C 0.31376 0.58583 0.34434 0.0
O570 O 0.44477 0.59049 0.33642 0.0
O571 O 0.41354 0.58612 0.35547 0.0
O572 O 0.39321 0.55439 0.32015 0.0
O573 O 0.35986 0.59344 0.31552 0.0
O574 O 0.34677 0.58537 0.34805 0.0
O575 O 0.3031 0.60039 0.33157 0.0
C576 C 0.30232 0.67015 0.29517 0.0
O577 O 0.29044 0.6692 0.30849 0.0
O578 O 0.33033 0.65222 0.29479 0.0
C579 C 0.34405 0.65956 0.34463 0.0
Tb580 Tb 0.13332 0.58728 0.07018 0.0
C581 C 0.10668 0.66712 0.07051 0.0
Tb582 Tb 0.17673 0.64212 0.08551 0.0
O583 O 0.11128 0.56802 0.0902 0.0
O584 O 0.12742 0.61976 0.08844 0.0
O585 O 0.10109 0.63469 0.06605 0.0
C586 C 0.19831 0.69628 0.10011 0.0
O587 O 0.13424 0.6748 0.07833 0.0
C588 C 0.2084 0.62208 0.06112 0.0
C589 C 0.18972 0.56537 0.09475 0.0
O590 O 0.18925 0.696 0.08648 0.0
O591 O 0.19571 0.66553 0.10567 0.0
O592 O 0.22037 0.64421 0.07034 0.0
O593 O 0.18015 0.61199 0.06624 0.0
O594 O 0.19157 0.59821 0.09866 0.0
O595 O 0.17339 0.55557 0.08229 0.0
C596 C 0.10093 0.55513 0.048 0.0
O597 O 0.09959 0.54636 0.06172 0.0
O598 O 0.12189 0.58086 0.04675 0.0
C599 C 0.11742 0.59653 0.09717 0.0
Tb600 Tb 0.1949 0.38033 0.8188 0.0
C601 C 0.1162 0.35032 0.81941 0.0
Tb602 Tb 0.13902 0.41929 0.83592 0.0
O603 O 0.21661 0.35659 0.83788 0.0
O604 O 0.16422 0.37091 0.83726 0.0
O605 O 0.14863 0.3462 0.81471 0.0
C606 C 0.08411 0.43287 0.85164 0.0
O607 O 0.10789 0.37694 0.82767 0.0
C608 C 0.15639 0.45459 0.81199 0.0
C609 C 0.21523 0.43561 0.84455 0.0
O610 O 0.08484 0.42926 0.83756 0.0
O611 O 0.11496 0.43033 0.85703 0.0
O612 O 0.13453 0.46489 0.82172 0.0
O613 O 0.1676 0.42616 0.81646 0.0
O614 O 0.18265 0.43548 0.84881 0.0
O615 O 0.22512 0.42086 0.83167 0.0
C616 C 0.22658 0.35099 0.79568 0.0
O617 O 0.23681 0.34964 0.80921 0.0
O618 O 0.19968 0.37057 0.79513 0.0
C619 C 0.18855 0.36088 0.84538 0.0
Tb620 Tb 0.39599 0.44668 0.56868 0.0
C621 C 0.42783 0.36833 0.56852 0.0
Tb622 Tb 0.35819 0.38861 0.58518 0.0
O623 O 0.42025 0.467 0.58806 0.0
O624 O 0.40567 0.41472 0.58648 0.0
O625 O 0.43174 0.40146 0.5646 0.0
C626 C 0.34664 0.33281 0.60066 0.0
O627 O 0.4007 0.35863 0.57619 0.0
C628 C 0.32211 0.40724 0.56173 0.0
C629 C 0.34051 0.4645 0.59481 0.0
O630 O 0.34902 0.33411 0.58653 0.0
O631 O 0.34912 0.36356 0.60624 0.0
O632 O 0.31248 0.38437 0.57119 0.0
O633 O 0.35052 0.41864 0.56615 0.0
O634 O 0.34099 0.43143 0.59849 0.0
O635 O 0.35581 0.47576 0.58224 0.0
C636 C 0.4241 0.47764 0.5451 0.0
O637 O 0.42341 0.49012 0.55833 0.0
O638 O 0.40723 0.44891 0.54512 0.0
C639 C 0.41571 0.43814 0.59503 0.0
C640 C 0.15546 0.18996 0.36577 0.0
C641 C 0.18418 0.17224 0.36071 0.0
C642 C 0.15683 0.20716 0.37922 0.0
C643 C 0.1874 0.20565 0.38758 0.0
C644 C 0.21405 0.18305 0.38351 0.0
C645 C 0.21235 0.16694 0.36989 0.0
C646 C 0.12752 0.2304 0.38347 0.0
C647 C 0.24616 0.17931 0.39258 0.0
C648 C 0.2127 0.29233 0.4023 0.0
C649 C 0.20086 0.29008 0.41669 0.0
C650 C 0.20972 0.26423 0.39287 0.0
C651 C 0.19478 0.23333 0.39811 0.0
C652 C 0.18516 0.2302 0.41296 0.0
C653 C 0.18822 0.25883 0.4221 0.0
C654 C 0.2207 0.26833 0.37707 0.0
C655 C 0.16965 0.1976 0.41901 0.0
H656 H 0.13356 0.19345 0.3586 0.0
H657 H 0.23416 0.15229 0.36597 0.0
H658 H 0.122 0.22831 0.39536 0.0
H659 H 0.1347 0.25747 0.38117 0.0
H660 H 0.1038 0.22432 0.37725 0.0
H661 H 0.26014 0.15527 0.38986 0.0
H662 H 0.26344 0.20136 0.39037 0.0
H663 H 0.24006 0.17935 0.40446 0.0
H664 H 0.22249 0.31657 0.3982 0.0
H665 H 0.17913 0.25716 0.43331 0.0
H666 H 0.19812 0.26557 0.36977 0.0
H667 H 0.23928 0.24795 0.37407 0.0
H668 H 0.23274 0.29371 0.37494 0.0
H669 H 0.17311 0.19589 0.43107 0.0
H670 H 0.18098 0.17443 0.41385 0.0
H671 H 0.14173 0.19746 0.41672 0.0
C672 C 0.05767 0.89163 0.60726 0.0
C673 C 0.0889 0.90732 0.60405 0.0
C674 C 0.04097 0.89864 0.62047 0.0
C675 C 0.05552 0.92289 0.63024 0.0
C676 C 0.08806 0.93726 0.62739 0.0
C677 C 0.10464 0.92889 0.61431 0.0
C678 C 1.00689 0.88168 0.62357 0.0
C679 C 0.10412 0.9634 0.63752 0.0
C680 C 0.98517 0.96671 0.65123 0.0
C681 C 0.98574 0.94777 0.66421 0.0
C682 C 1.01005 0.96098 0.64045 0.0
C683 C 0.0351 0.93518 0.64274 0.0
C684 C 0.03748 0.91826 0.65637 0.0
C685 C 1.01289 0.92515 0.66706 0.0
C686 C 1.00785 0.98051 0.62619 0.0
C687 C 0.06353 0.89033 0.65921 0.0
H688 H 0.04574 0.875 0.59919 0.0
H689 H 0.12859 0.94141 0.61164 0.0
H690 H 1.00648 0.87112 0.63486 0.0
H691 H 0.98608 0.90102 0.62278 0.0
H692 H 1.00127 0.86057 0.61573 0.0
H693 H 0.13116 0.96905 0.63454 0.0
H694 H 0.08927 0.98767 0.63699 0.0
H695 H 0.10332 0.95433 0.64903 0.0
H696 H 0.96431 0.98444 0.64916 0.0
H697 H 1.01347 0.91067 0.67721 0.0
H698 H 0.99789 0.96329 0.61749 0.0
H699 H 0.03363 0.98942 0.62273 0.0
H700 H 0.99056 1.0031 0.62704 0.0
H701 H 0.05345 0.86563 0.65491 0.0
H702 H 0.06839 0.88714 0.67112 0.0
H703 H 0.08825 0.89556 0.65364 0.0
C704 C 0.38643 0.84713 0.86718 0.0
C705 C 0.35797 0.86636 0.8629 0.0
C706 C 0.38501 0.82759 0.88005 0.0
C707 C 0.35461 0.82812 0.88858 0.0
C708 C 0.32849 0.85211 0.88547 0.0
C709 C 0.33033 0.87075 0.87247 0.0
C710 C 0.41381 0.8029 0.88331 0.0
C711 C 0.29622 0.8544 0.89457 0.0
C712 C 0.32399 0.74035 0.90022 0.0
C713 C 0.33274 0.74031 0.91503 0.0
C714 C 0.3305 0.76925 0.89157 0.0
C715 C 0.34634 0.79846 0.89797 0.0
C716 C 0.35407 0.79897 0.91305 0.0
C717 C 0.34698 0.76981 0.92146 0.0
C718 C 0.32138 0.76809 0.87548 0.0
C719 C 0.37102 0.8296 0.92018 0.0
H720 H 0.40789 0.84417 0.85972 0.0
H721 H 0.30855 0.88616 0.86912 0.0
H722 H 0.41827 0.80074 0.89527 0.0
H723 H 0.40681 0.77702 0.87917 0.0
H724 H 0.43804 0.81092 0.87789 0.0
H725 H 0.28314 0.87949 0.89301 0.0
H726 H 0.27831 0.83374 0.89115 0.0
H727 H 0.30175 0.85088 0.90639 0.0
H728 H 0.31315 0.71743 0.89531 0.0
H729 H 0.354 0.76963 0.93295 0.0
H730 H 0.34488 0.77108 0.86874 0.0
H731 H 0.30395 0.78965 0.87272 0.0
H732 H 0.30866 0.74362 0.87235 0.0
H733 H 0.3977 0.83203 0.9161 0.0
H734 H 0.37178 0.82729 0.93231 0.0
H735 H 0.35744 0.85366 0.91724 0.0
C736 C 0.5245 0.10268 0.16821 0.0
C737 C 0.55325 0.085 0.16291 0.0
C738 C 0.49697 0.1101 0.15899 0.0
C739 C 0.49804 0.09846 0.14436 0.0
C740 C 0.52559 0.07778 0.13939 0.0
C741 C 0.55339 0.07183 0.1487 0.0
C742 C 0.46842 0.13288 0.16453 0.0
C743 C 0.52679 0.0639 0.12394 0.0
C744 C 0.42263 0.1004 0.11881 0.0
C745 C 0.43332 0.12608 0.1091 0.0
C746 C 0.44242 0.09227 0.13107 0.0
C747 C 0.47278 0.1111 0.13369 0.0
C748 C 0.48142 0.13961 0.12477 0.0
C749 C 0.46182 0.14633 0.1123 0.0
C750 C 0.43274 0.06138 0.14019 0.0
C751 C 0.5129 0.16117 0.12767 0.0
H752 H 0.52461 0.11307 0.17924 0.0
H753 H 0.57569 0.05806 0.14473 0.0
H754 H 0.44302 0.12286 0.16114 0.0
H755 H 0.4688 0.13543 0.17665 0.0
H756 H 0.47125 0.15886 0.15967 0.0
H757 H 0.54731 0.04438 0.12252 0.0
H758 H 0.50184 0.05213 0.12096 0.0
H759 H 0.53168 0.08525 0.11616 0.0
H760 H 0.40063 0.08459 0.11611 0.0
H761 H 0.46974 0.16616 0.10466 0.0
H762 H 0.43707 0.0662 0.15202 0.0
H763 H 0.44914 0.03934 0.13697 0.0
H764 H 0.40551 0.05393 0.13854 0.0
H765 H 0.51474 0.16777 0.13948 0.0
H766 H 0.51281 0.18533 0.12118 0.0
H767 H 0.53619 0.14635 0.12472 0.0
C768 C 0.18594 0.85689 0.15376 0.0
C769 C 0.16138 0.84473 0.16367 0.0
C770 C 0.19367 0.8382 0.14114 0.0
C771 C 0.17555 0.80746 0.13839 0.0
C772 C 0.14796 0.7974 0.14755 0.0
C773 C 0.14169 0.81591 0.16037 0.0
C774 C 0.22359 0.84943 0.13178 0.0
C775 C 0.12707 0.7655 0.14452 0.0
C776 C 0.18203 0.75665 0.10361 0.0
C777 C 0.19994 0.72778 0.10866 0.0
C778 C 0.17545 0.78422 0.11295 0.0
C779 C 0.18824 0.78304 0.12739 0.0
C780 C 0.2095 0.75557 0.13198 0.0
C781 C 0.21453 0.72769 0.12259 0.0
C782 C 0.15214 0.81278 0.10784 0.0
C783 C 0.22469 0.75436 0.14719 0.0
H784 H 0.20129 0.8792 0.15652 0.0
H785 H 0.12264 0.80694 0.16815 0.0
H786 H 0.24671 0.83479 0.13512 0.0
H787 H 0.21901 0.84414 0.12001 0.0
H788 H 0.22914 0.87725 0.13318 0.0
H789 H 0.10335 0.7646 0.15126 0.0
H790 H 0.11985 0.76418 0.13277 0.0
H791 H 0.14259 0.74238 0.14705 0.0
H792 H 0.17064 0.75649 0.09277 0.0
H793 H 0.22855 0.70531 0.12634 0.0
H794 H 0.16251 0.83824 0.111 0.0
H795 H 0.12676 0.81 0.11321 0.0
H796 H 0.1483 0.81229 0.09577 0.0
H797 H 0.23602 0.77959 0.15013 0.0
H798 H 0.24478 0.73428 0.14817 0.0
H799 H 0.20418 0.74866 0.15527 0.0
C800 C 0.54316 0.95688 0.37022 0.0
C801 C 0.54057 0.94689 0.35562 0.0
C802 C 0.51488 0.95421 0.37951 0.0
C803 C 0.48339 0.94156 0.37388 0.0
C804 C 0.48004 0.93381 0.35885 0.0
C805 C 0.50892 0.9364 0.34986 0.0
C806 C 0.51932 0.96326 0.39552 0.0
C807 C 0.44687 0.92091 0.35235 0.0
C808 C 0.44046 0.90299 0.40613 0.0
C809 C 0.42671 0.93305 0.412 0.0
C810 C 0.45523 0.90364 0.39216 0.0
C811 C 0.45522 0.93488 0.38419 0.0
C812 C 0.43544 0.96297 0.38906 0.0
C813 C 0.42215 0.9621 0.40322 0.0
C814 C 0.47502 0.87269 0.38694 0.0
C815 C 0.43254 0.99564 0.38027 0.0
H816 H 0.56771 0.96506 0.37457 0.0
H817 H 0.50701 0.92876 0.33846 0.0
H818 H 0.50071 0.98345 0.39871 0.0
H819 H 0.51423 0.94035 0.40243 0.0
H820 H 0.54554 0.97274 0.39802 0.0
H821 H 0.44474 0.92829 0.34063 0.0
H822 H 0.44642 0.89244 0.35291 0.0
H823 H 0.42414 0.93081 0.35831 0.0
H824 H 0.44302 0.88034 0.41296 0.0
H825 H 0.41026 0.98494 0.40775 0.0
H826 H 0.50281 0.87707 0.3888 0.0
H827 H 0.47114 0.8686 0.37504 0.0
H828 H 0.46735 0.84902 0.39291 0.0
H829 H 0.45537 1.01195 0.38238 0.0
H830 H 0.40933 1.01046 0.38343 0.0
H831 H 0.43153 0.99009 0.36835 0.0
C832 C 0.34396 0.3004 0.62395 0.0
C833 C 0.34931 0.30076 0.60885 0.0
C834 C 0.3485 0.27008 0.63191 0.0
C835 C 0.35919 0.23984 0.62451 0.0
C836 C 0.36547 0.24037 0.60929 0.0
C837 C 0.3601 0.2709 0.60158 0.0
C838 C 0.34133 0.27032 0.64819 0.0
C839 C 0.37793 0.20889 0.60121 0.0
C840 C 0.38647 0.17797 0.65342 0.0
C841 C 0.35445 0.16377 0.65668 0.0
C842 C 0.39005 0.19997 0.64138 0.0
C843 C 0.36085 0.20738 0.63274 0.0
C844 C 0.33019 0.18854 0.6347 0.0
C845 C 0.32738 0.16679 0.64676 0.0
C846 C 0.42358 0.21862 0.63922 0.0
C847 C 0.29871 0.19511 0.6255 0.0
H848 H 0.33608 0.32373 0.6295 0.0
H849 H 0.36504 0.27155 0.58989 0.0
H850 H 0.32047 0.25189 0.65077 0.0
H851 H 0.36446 0.26203 0.6543 0.0
H852 H 0.33364 0.29612 0.65222 0.0
H853 H 0.38126 0.21366 0.5893 0.0
H854 H 0.40285 0.20044 0.60581 0.0
H855 H 0.35962 0.18736 0.60269 0.0
H856 H 0.40759 0.1749 0.66103 0.0
H857 H 0.30293 0.15477 0.6492 0.0
H858 H 0.42269 0.24346 0.64518 0.0
H859 H 0.42835 0.22421 0.62748 0.0
H860 H 0.44541 0.20347 0.64362 0.0
H861 H 0.28635 0.21929 0.6292 0.0
H862 H 0.27972 0.17396 0.62652 0.0
H863 H 0.30551 0.19822 0.61378 0.0
C864 C 0.11702 0.08116 0.89857 0.0
C865 C 0.1132 0.10937 0.9079 0.0
C866 C 0.0974 0.07856 0.88588 0.0
C867 C 0.07369 0.10492 0.88271 0.0
C868 C 0.0742 0.13601 0.89079 0.0
C869 C 0.0942 0.1379 0.90348 0.0
C870 C 0.09827 0.04535 0.87734 0.0
C871 C 0.05007 0.16518 0.88732 0.0
C872 C 1.01266 0.09558 0.85096 0.0
C873 C 0.98325 0.08348 0.85818 0.0
C874 C 0.04268 0.10253 0.85874 0.0
C875 C 0.04321 0.09643 0.87396 0.0
C876 C 1.01407 0.08249 0.88115 0.0
C877 C 0.98418 0.0765 0.87314 0.0
C878 C 0.0731 0.11786 0.85083 0.0
C879 C 1.01404 0.07499 0.89741 0.0
H880 H 0.13273 0.05955 0.90195 0.0
H881 H 0.09193 0.15996 0.91068 0.0
H882 H 0.07773 0.02812 0.88147 0.0
H883 H 0.09367 0.04973 0.86551 0.0
H884 H 0.12322 0.03194 0.8787 0.0
H885 H 0.05907 0.18973 0.89219 0.0
H886 H 0.04718 0.16856 0.87532 0.0
H887 H 0.02438 0.15928 0.89192 0.0
H888 H 1.0117 0.10137 0.83934 0.0
H889 H 0.96129 0.0673 0.87864 0.0
H890 H 0.09673 0.10315 0.8533 0.0
H891 H 0.07736 0.14452 0.85471 0.0
H892 H 0.06936 0.11846 0.83877 0.0
H893 H 0.03569 0.05774 0.90023 0.0
H894 H 0.98982 0.06269 0.90109 0.0
H895 H 0.01752 0.09921 0.90364 0.0
C896 C 0.89789 0.81585 0.6625 0.0
C897 C 0.87791 0.84517 0.66445 0.0
C898 C 0.8944 0.7961 0.64982 0.0
C899 C 0.86922 0.80545 0.63939 0.0
C900 C 0.85135 0.83688 0.64073 0.0
C901 C 0.85639 0.85683 0.65327 0.0
C902 C 0.91514 0.76354 0.64832 0.0
C903 C 0.82402 0.84745 0.62993 0.0
C904 C 0.86334 0.75137 0.60528 0.0
C905 C 0.84176 0.72491 0.61014 0.0
C906 C 0.87194 0.77859 0.61454 0.0
C907 C 0.85759 0.77962 0.62873 0.0
C908 C 0.83388 0.75412 0.63329 0.0
C909 C 0.82681 0.72649 0.62399 0.0
C910 C 0.89816 0.80463 0.60952 0.0
C911 C 0.81721 0.75518 0.64823 0.0
H912 H 0.91466 0.8073 0.67125 0.0
H913 H 0.84089 0.87961 0.65496 0.0
H914 H 0.89881 0.74109 0.65106 0.0
H915 H 0.92422 0.76023 0.63688 0.0
H916 H 0.93765 0.76345 0.65577 0.0
H917 H 0.81735 0.87508 0.63102 0.0
H918 H 0.83224 0.84241 0.6185 0.0
H919 H 0.80054 0.83206 0.63198 0.0
H920 H 0.8753 0.74968 0.59457 0.0
H921 H 0.81016 0.70584 0.62762 0.0
H922 H 0.89026 0.83109 0.61248 0.0
H923 H 0.90252 0.80343 0.5975 0.0
H924 H 0.92289 0.79949 0.61511 0.0
H925 H 0.83669 0.74994 0.65679 0.0
H926 H 0.79636 0.73589 0.64932 0.0
H927 H 0.80642 0.78107 0.65039 0.0
C928 C 0.9295 0.13755 0.40335 0.0
C929 C 0.91477 0.1059 0.40689 0.0
C930 C 0.95108 0.14022 0.39114 0.0
C931 C 0.95752 0.1105 0.38263 0.0
C932 C 0.93803 0.08033 0.38487 0.0
C933 C 0.91676 0.07839 0.3971 0.0
C934 C 0.9704 0.17329 0.38865 0.0
C935 C 0.94342 0.04841 0.37575 0.0
C936 C 0.02059 0.10831 0.35134 0.0
C937 C 0.05038 0.09748 0.35859 0.0
C938 C 0.99016 0.11382 0.35906 0.0
C939 C 0.98968 0.10777 0.37429 0.0
C940 C 0.01977 0.09673 0.38165 0.0
C941 C 0.04997 0.09197 0.37367 0.0
C942 C 0.95886 0.1266 0.35099 0.0
C943 C 0.02003 0.08967 0.39794 0.0
H944 H 0.92721 0.15901 0.41087 0.0
H945 H 0.90429 0.05425 0.39976 0.0
H946 H 0.99568 0.17173 0.39418 0.0
H947 H 0.97506 0.17778 0.37681 0.0
H948 H 0.95631 0.19563 0.39325 0.0
H949 H 0.92184 0.02999 0.37699 0.0
H950 H 0.94631 0.05489 0.36398 0.0
H951 H 0.96732 0.03546 0.37934 0.0
H952 H 0.02124 0.11335 0.33965 0.0
H953 H 0.07323 0.084 0.37921 0.0
H954 H 0.95271 0.15304 0.35467 0.0
H955 H 0.93626 0.11032 0.35351 0.0
H956 H 0.96275 0.12703 0.33893 0.0
H957 H 0.04563 0.08141 0.40192 0.0
H958 H 1.00118 0.06923 0.4006 0.0
H959 H 1.01237 0.1131 0.40404 0.0
C960 C 0.69677 0.30293 0.12324 0.0
C961 C 0.69036 0.30175 0.10823 0.0
C962 C 0.69278 0.2735 0.13183 0.0
C963 C 0.6818 0.24245 0.12515 0.0
C964 C 0.67584 0.24102 0.10992 0.0
C965 C 0.68035 0.27082 0.10159 0.0
C966 C 0.69989 0.2758 0.14808 0.0
C967 C 0.6635 0.20863 0.10249 0.0
C968 C 0.70768 0.17296 0.15054 0.0
C969 C 0.67937 0.17298 0.15992 0.0
C970 C 0.70711 0.19195 0.13761 0.0
C971 C 0.6777 0.21166 0.13436 0.0
C972 C 0.64727 0.20733 0.14264 0.0
C973 C 0.64844 0.1877 0.15548 0.0
C974 C 0.73956 0.19473 0.12866 0.0
C975 C 0.61501 0.22695 0.13907 0.0
H976 H 0.70426 0.32699 0.1283 0.0
H977 H 0.67484 0.27013 0.08995 0.0
H978 H 0.67639 0.2693 0.15436 0.0
H979 H 0.71999 0.25702 0.15119 0.0
H980 H 0.70853 0.30183 0.15145 0.0
H981 H 0.667 0.20981 0.09042 0.0
H982 H 0.67706 0.18566 0.10674 0.0
H983 H 0.63579 0.20515 0.10478 0.0
H984 H 0.73128 0.16053 0.15392 0.0
H985 H 0.62639 0.18699 0.16273 0.0
H986 H 0.75328 0.21866 0.13173 0.0
H987 H 0.73375 0.19606 0.11678 0.0
H988 H 0.75696 0.17263 0.13067 0.0
H989 H 0.61749 0.25366 0.1432 0.0
H990 H 0.59214 0.2151 0.1443 0.0
H991 H 0.61088 0.22822 0.12706 0.0
C992 C 0.4845 0.95913 0.87294 0.0
C993 C 0.48559 0.95191 0.85799 0.0
C994 C 0.51353 0.95427 0.88164 0.0
C995 C 0.54406 0.9415 0.87515 0.0
C996 C 0.54565 0.93547 0.85992 0.0
C997 C 0.51627 0.94093 0.85147 0.0
C998 C 0.51111 0.96165 0.89787 0.0
C999 C 0.57749 0.92149 0.85264 0.0
C1000 C 0.61314 0.9598 0.90183 0.0
C1001 C 0.60947 0.93112 0.91091 0.0
C1002 C 0.59557 0.96158 0.88856 0.0
C1003 C 0.57367 0.9342 0.88465 0.0
C1004 C 0.57449 0.903 0.89264 0.0
C1005 C 0.59268 0.90176 0.90585 0.0
C1006 C 0.59659 0.99467 0.87994 0.0
C1007 C 0.55248 0.87275 0.88837 0.0
H1008 H 0.46067 0.96751 0.87791 0.0
H1009 H 0.51693 0.93495 0.83987 0.0
H1010 H 0.51516 0.93763 0.90418 0.0
H1011 H 0.53139 0.98009 0.90116 0.0
H1012 H 0.48583 0.97255 0.90102 0.0
H1013 H 0.57749 0.92659 0.84066 0.0
H1014 H 0.60111 0.93258 0.85747 0.0
H1015 H 0.57846 0.89326 0.85426 0.0
H1016 H 0.62719 0.98208 0.9057 0.0
H1017 H 0.59058 0.87939 0.91288 0.0
H1018 H 0.57402 1.01056 0.88293 0.0
H1019 H 0.59541 0.98963 0.86799 0.0
H1020 H 0.62013 1.00971 0.88237 0.0
H1021 H 0.56134 0.84867 0.89369 0.0
H1022 H 0.5525 0.8691 0.87632 0.0
H1023 H 0.52564 0.87763 0.89185 0.0
C1024 C 0.88417 0.18606 0.868 0.0
C1025 C 0.85439 0.16971 0.86318 0.0
C1026 C 0.88348 0.20529 0.88098 0.0
C1027 C 0.85242 0.20746 0.88899 0.0
C1028 C 0.82458 0.18585 0.88542 0.0
C1029 C 0.82575 0.16749 0.87234 0.0
C1030 C 0.91413 0.22708 0.88485 0.0
C1031 C 0.79152 0.18629 0.89403 0.0
C1032 C 0.84387 0.26782 0.92118 0.0
C1033 C 0.83268 0.29781 0.91412 0.0
C1034 C 0.8506 0.23792 0.91319 0.0
C1035 C 0.84554 0.23824 0.89789 0.0
C1036 C 0.83302 0.26819 0.89081 0.0
C1037 C 0.82695 0.29779 0.89906 0.0
C1038 C 0.86441 0.20669 0.92103 0.0
C1039 C 0.8267 0.26927 0.87447 0.0
H1040 H 0.90646 0.18717 0.8609 0.0
H1041 H 0.80298 0.15408 0.86862 0.0
H1042 H 0.9174 0.22882 0.8969 0.0
H1043 H 0.93804 0.2167 0.87992 0.0
H1044 H 0.91019 0.2535 0.8806 0.0
H1045 H 0.77633 0.16253 0.89213 0.0
H1046 H 0.79639 0.18897 0.90594 0.0
H1047 H 0.77587 0.20859 0.89048 0.0
H1048 H 0.84884 0.26809 0.93287 0.0
H1049 H 0.81853 0.32115 0.89368 0.0
H1050 H 0.89215 0.20403 0.91861 0.0
H1051 H 0.8516 0.18291 0.91718 0.0
H1052 H 0.86122 0.20869 0.9331 0.0
H1053 H 0.85095 0.26424 0.86849 0.0
H1054 H 0.81644 0.29446 0.87081 0.0
H1055 H 0.80815 0.24896 0.87132 0.0
C1056 C 0.61002 0.10202 0.61877 0.0
C1057 C 0.59803 0.12728 0.60914 0.0
C1058 C 0.59073 0.09269 0.63104 0.0
C1059 C 0.55952 0.10994 0.6338 0.0
C1060 C 0.54971 0.13842 0.62509 0.0
C1061 C 0.56885 0.14631 0.61258 0.0
C1062 C 0.60179 0.06184 0.63988 0.0
C1063 C 0.51731 0.15844 0.62815 0.0
C1064 C 0.48037 0.06565 0.64786 0.0
C1065 C 0.47931 0.07785 0.66223 0.0
C1066 C 0.50817 0.07363 0.63879 0.0
C1067 C 0.53451 0.09534 0.64417 0.0
C1068 C 0.53448 0.10599 0.65895 0.0
C1069 C 0.50703 0.09654 0.66792 0.0
C1070 C 0.50817 0.06078 0.62318 0.0
C1071 C 0.56182 0.12964 0.66492 0.0
H1072 H 0.63254 0.08712 0.61593 0.0
H1073 H 0.55986 0.16583 0.60502 0.0
H1074 H 0.59573 0.06502 0.65167 0.0
H1075 H 0.58772 0.03887 0.63591 0.0
H1076 H 0.6297 0.05683 0.63868 0.0
H1077 H 0.51657 0.18302 0.62197 0.0
H1078 H 0.49472 0.14288 0.62491 0.0
H1079 H 0.51492 0.16412 0.64002 0.0
H1080 H 0.45888 0.05113 0.64357 0.0
H1081 H 0.50603 0.10616 0.67906 0.0
H1082 H 0.53376 0.05043 0.62022 0.0
H1083 H 0.50256 0.0824 0.61563 0.0
H1084 H 0.48866 0.0404 0.62139 0.0
H1085 H 0.58772 0.11939 0.66249 0.0
H1086 H 0.55942 0.13343 0.67694 0.0
H1087 H 0.55986 0.15506 0.65947 0.0
C1088 C 0.64367 0.80839 0.35915 0.0
C1089 C 0.65922 0.83947 0.35553 0.0
C1090 C 0.65203 0.7918 0.37224 0.0
C1091 C 0.6775 0.80627 0.38144 0.0
C1092 C 0.69184 0.83868 0.37818 0.0
C1093 C 0.68213 0.85516 0.36526 0.0
C1094 C 0.63516 0.75784 0.37576 0.0
C1095 C 0.71948 0.85459 0.38758 0.0
C1096 C 0.68218 0.76344 0.41811 0.0
C1097 C 0.70335 0.73541 0.41474 0.0
C1098 C 0.67525 0.78854 0.40763 0.0
C1099 C 0.69084 0.78585 0.39373 0.0
C1100 C 0.71562 0.76005 0.39096 0.0
C1101 C 0.72126 0.7346 0.40151 0.0
C1102 C 0.64845 0.81546 0.41093 0.0
C1103 C 0.73384 0.75755 0.3764 0.0
H1104 H 0.62606 0.79648 0.35148 0.0
H1105 H 0.69458 0.87897 0.36223 0.0
H1106 H 0.65409 0.73677 0.37453 0.0
H1107 H 0.62606 0.75759 0.38729 0.0
H1108 H 0.61306 0.7524 0.36844 0.0
H1109 H 0.72309 0.88231 0.3851 0.0
H1110 H 0.71358 0.85173 0.3994 0.0
H1111 H 0.74409 0.84116 0.38548 0.0
H1112 H 0.66855 0.76422 0.42847 0.0
H1113 H 0.73793 0.71308 0.39904 0.0
H1114 H 0.62393 0.80788 0.40568 0.0
H1115 H 0.65587 0.84084 0.40641 0.0
H1116 H 0.64393 0.8182 0.4229 0.0
H1117 H 0.7158 0.74772 0.36799 0.0
H1118 H 0.75621 0.73993 0.3769 0.0
H1119 H 0.74277 0.78325 0.37278 0.0
C1120 C 0.04803 0.96059 0.15193 0.0
C1121 C 0.04701 0.95047 0.1666 0.0
C1122 C 0.01993 0.95497 0.14274 0.0
C1123 C 0.99025 0.93859 0.14838 0.0
C1124 C 0.98852 0.92964 0.16338 0.0
C1125 C 0.01703 0.93582 0.17236 0.0
C1126 C 0.02259 0.96544 0.12682 0.0
C1127 C 0.95744 0.91203 0.16977 0.0
C1128 C 0.91935 0.95504 0.1219 0.0
C1129 C 0.92414 0.92756 0.11224 0.0
C1130 C 0.93764 0.95681 0.13502 0.0
C1131 C 0.96166 0.93074 0.13826 0.0
C1132 C 0.96307 0.90072 0.12946 0.0
C1133 C 0.94398 0.8994 0.11644 0.0
C1134 C 0.93442 0.98865 0.14436 0.0
C1135 C 0.9878 0.87199 0.13279 0.0
H1136 H 0.07131 0.97177 0.14751 0.0
H1137 H 0.01646 0.92752 0.1837 0.0
H1138 H 0.02049 0.94241 0.11971 0.0
H1139 H 1.0012 0.98294 0.12393 0.0
H1140 H 0.04717 0.97862 0.12431 0.0
H1141 H 0.95764 0.9125 0.18194 0.0
H1142 H 0.93344 0.92418 0.16583 0.0
H1143 H 0.95705 0.88481 0.16617 0.0
H1144 H 0.90336 0.97652 0.11863 0.0
H1145 H 0.94737 0.87809 0.10892 0.0
H1146 H 0.95585 1.00641 0.14177 0.0
H1147 H 0.93599 0.98224 0.15618 0.0
H1148 H 0.90991 1.00234 0.14227 0.0
H1149 H 1.01402 0.87989 0.12945 0.0
H1150 H 0.98107 0.8481 0.12678 0.0
H1151 H 0.98837 0.8664 0.1447 0.0
C1152 C 0.6944 0.80445 0.89776 0.0
C1153 C 0.68836 0.80159 0.91277 0.0
C1154 C 0.69011 0.77607 0.88858 0.0
C1155 C 0.67921 0.74433 0.89465 0.0
C1156 C 0.6735 0.74121 0.90986 0.0
C1157 C 0.6783 0.77 0.91879 0.0
C1158 C 0.69692 0.78017 0.87237 0.0
C1159 C 0.66134 0.70795 0.91663 0.0
C1160 C 0.64566 0.69101 0.86374 0.0
C1161 C 0.67646 0.67629 0.85912 0.0
C1162 C 0.64476 0.71042 0.87666 0.0
C1163 C 0.67531 0.71447 0.88487 0.0
C1164 C 0.70479 0.69514 0.88131 0.0
C1165 C 0.70509 0.67643 0.8683 0.0
C1166 C 0.61252 0.72986 0.88046 0.0
C1167 C 0.73747 0.6978 0.89009 0.0
H1168 H 0.7019 0.82903 0.89317 0.0
H1169 H 0.67307 0.76802 0.93043 0.0
H1170 H 0.71716 0.76194 0.86883 0.0
H1171 H 0.6734 0.77408 0.86605 0.0
H1172 H 0.70525 0.80662 0.86948 0.0
H1173 H 0.66301 0.70843 0.92878 0.0
H1174 H 0.63422 0.70343 0.91353 0.0
H1175 H 0.67648 0.68588 0.91248 0.0
H1176 H 0.62343 0.69028 0.85661 0.0
H1177 H 0.72861 0.66408 0.86475 0.0
H1178 H 0.61493 0.75674 0.87652 0.0
H1179 H 0.60851 0.73069 0.89248 0.0
H1180 H 0.58959 0.71821 0.87521 0.0
H1181 H 0.75077 0.72211 0.88724 0.0
H1182 H 0.75513 0.67609 0.88773 0.0
H1183 H 0.732 0.69828 0.90201 0.0
C1184 C 0.51912 0.43812 0.17184 0.0
C1185 C 0.48846 0.45034 0.16574 0.0
C1186 C 0.54865 0.43486 0.16328 0.0
C1187 C 0.5471 0.44398 0.14833 0.0
C1188 C 0.51678 0.45854 0.1424 0.0
C1189 C 0.48769 0.46159 0.15125 0.0
C1190 C 0.5805 0.41961 0.17004 0.0
C1191 C 0.51441 0.46908 0.12649 0.0
C1192 C 0.61617 0.46153 0.12139 0.0
C1193 C 0.61146 0.43343 0.11206 0.0
C1194 C 0.59884 0.46322 0.13474 0.0
C1195 C 0.57593 0.4365 0.13841 0.0
C1196 C 0.57533 0.4058 0.13006 0.0
C1197 C 0.5935 0.40453 0.11685 0.0
C1198 C 0.60152 0.49552 0.14381 0.0
C1199 C 0.55194 0.37631 0.13398 0.0
H1200 H 0.51965 0.42946 0.18313 0.0
H1201 H 0.46391 0.47105 0.14661 0.0
H1202 H 0.58088 0.39154 0.16794 0.0
H1203 H 0.60416 0.43079 0.16526 0.0
H1204 H 0.58093 0.42353 0.1821 0.0
H1205 H 0.48936 0.48111 0.12381 0.0
H1206 H 0.53509 0.4876 0.12379 0.0
H1207 H 0.51787 0.44624 0.11936 0.0
H1208 H 0.63105 0.48345 0.1177 0.0
H1209 H 0.5905 0.38265 0.1096 0.0
H1210 H 0.60013 0.4896 0.15568 0.0
H1211 H 0.57979 0.51277 0.1411 0.0
H1212 H 0.62578 0.50953 0.14154 0.0
H1213 H 0.55894 0.35245 0.128 0.0
H1214 H 0.52517 0.38315 0.13109 0.0
H1215 H 0.55272 0.37112 0.14592 0.0
C1216 C 0.84833 0.26037 0.4177 0.0
C1217 C 0.82944 0.23269 0.41207 0.0
C1218 C 0.85746 0.28796 0.40873 0.0
C1219 C 0.84632 0.28812 0.39403 0.0
C1220 C 0.82439 0.26182 0.38875 0.0
C1221 C 0.81673 0.23389 0.39781 0.0
C1222 C 0.88141 0.31519 0.41458 0.0
C1223 C 0.81104 0.26194 0.37322 0.0
C1224 C 0.85226 0.36303 0.36828 0.0
C1225 C 0.87691 0.35051 0.3585 0.0
C1226 C 0.84354 0.34424 0.38078 0.0
C1227 C 0.86078 0.313 0.38356 0.0
C1228 C 0.88878 0.30277 0.37467 0.0
C1229 C 0.89606 0.32141 0.36197 0.0
C1230 C 0.81326 0.35575 0.38984 0.0
C1231 C 0.90876 0.27033 0.37773 0.0
H1232 H 0.85835 0.25923 0.42877 0.0
H1233 H 0.80205 0.21242 0.39357 0.0
H1234 H 0.90698 0.31217 0.4094 0.0
H1235 H 0.87202 0.34124 0.41177 0.0
H1236 H 0.88455 0.31344 0.42666 0.0
H1237 H 0.79055 0.2425 0.37155 0.0
H1238 H 0.80076 0.28764 0.37034 0.0
H1239 H 0.83234 0.2562 0.36553 0.0
H1240 H 0.8373 0.38551 0.3654 0.0
H1241 H 0.91513 0.31205 0.35428 0.0
H1242 H 0.81708 0.35017 0.40164 0.0
H1243 H 0.79011 0.34153 0.38621 0.0
H1244 H 0.80823 0.38368 0.38849 0.0
H1245 H 0.91475 0.26813 0.38958 0.0
H1246 H 0.93312 0.26941 0.37142 0.0
H1247 H 0.89309 0.24766 0.37464 0.0
C1248 C 0.94068 0.627 0.61385 0.0
C1249 C 0.92342 0.59694 0.60996 0.0
C1250 C 0.96039 0.62786 0.62665 0.0
C1251 C 0.96188 0.59816 0.6356 0.0
C1252 C 0.94036 0.56978 0.6327 0.0
C1253 C 0.92165 0.56932 0.6197 0.0
C1254 C 0.98268 0.65881 0.62957 0.0
C1255 C 0.94017 0.53827 0.64234 0.0
C1256 C 0.04956 0.57617 0.65018 0.0
C1257 C 0.04689 0.58739 0.66464 0.0
C1258 C 0.02172 0.57932 0.64065 0.0
C1259 C 0.99064 0.59378 0.64587 0.0
C1260 C 0.98744 0.60388 0.66065 0.0
C1261 C 0.0158 0.60066 0.66989 0.0
C1262 C 0.0259 0.56809 0.62489 0.0
C1263 C 0.95464 0.61914 0.66657 0.0
H1264 H 0.94155 0.6484 0.60624 0.0
H1265 H 0.90746 0.54641 0.61667 0.0
H1266 H 0.98311 0.66514 0.64141 0.0
H1267 H 1.00939 0.65299 0.62617 0.0
H1268 H 0.97383 0.68171 0.62336 0.0
H1269 H 0.91704 0.52222 0.64042 0.0
H1270 H 0.96316 0.52249 0.6399 0.0
H1271 H 0.94116 0.54545 0.65409 0.0
H1272 H 0.07374 0.56613 0.64617 0.0
H1273 H 1.01388 0.60948 0.68113 0.0
H1274 H 0.0215 0.59023 0.61746 0.0
H1275 H 1.00657 0.54817 0.62217 0.0
H1276 H 0.0518 0.55748 0.62264 0.0
H1277 H 0.95129 0.64545 0.66214 0.0
H1278 H 0.95477 0.62075 0.67873 0.0
H1279 H 0.93214 0.60378 0.66307 0.0
C1280 C 0.72373 0.24004 0.61821 0.0
C1281 C 0.7067 0.24002 0.60477 0.0
C1282 C 0.71782 0.26646 0.62828 0.0
C1283 C 0.69359 0.29232 0.62482 0.0
C1284 C 0.6794 0.29437 0.61065 0.0
C1285 C 0.68669 0.26832 0.60063 0.0
C1286 C 0.73465 0.26466 0.64314 0.0
C1287 C 0.65341 0.32153 0.60664 0.0
C1288 C 0.64294 0.31301 0.65863 0.0
C1289 C 0.65831 0.34371 0.66288 0.0
C1290 C 0.6522 0.29747 0.64542 0.0
C1291 C 0.67842 0.31257 0.63677 0.0
C1292 C 0.69224 0.34487 0.64057 0.0
C1293 C 0.68156 0.36037 0.65358 0.0
C1294 C 0.6358 0.26365 0.64131 0.0
C1295 C 0.72067 0.3615 0.63183 0.0
H1296 H 0.73963 0.21835 0.62125 0.0
H1297 H 0.67389 0.26849 0.59008 0.0
H1298 H 0.7431 0.29055 0.64673 0.0
H1299 H 0.71587 0.25503 0.65131 0.0
H1300 H 0.75712 0.24714 0.64313 0.0
H1301 H 0.64851 0.32237 0.59465 0.0
H1302 H 0.62884 0.3159 0.6123 0.0
H1303 H 0.662 0.34728 0.61031 0.0
H1304 H 0.62498 0.30041 0.66596 0.0
H1305 H 0.69373 0.384 0.65704 0.0
H1306 H 0.65454 0.24253 0.64288 0.0
H1307 H 0.6282 0.26371 0.62959 0.0
H1308 H 0.61279 0.25802 0.64808 0.0
H1309 H 0.74553 0.35011 0.63519 0.0
H1310 H 0.72197 0.38963 0.63387 0.0
H1311 H 0.71761 0.35704 0.61991 0.0
C1312 C 0.02223 0.42031 0.85312 0.0
C1313 C 0.05238 0.43127 0.86007 0.0
C1314 C 0.99208 0.41535 0.8611 0.0
C1315 C 0.99223 0.4222 0.87627 0.0
C1316 C 0.02264 0.43348 0.88332 0.0
C1317 C 0.05258 0.43758 0.87509 0.0
C1318 C 0.96036 0.40239 0.85339 0.0
C1319 C 0.02353 0.44138 0.89953 0.0
C1320 C 0.91936 0.45172 0.8992 0.0
C1321 C 0.9174 0.42435 0.90906 0.0
C1322 C 0.94078 0.44975 0.88701 0.0
C1323 C 0.96043 0.41966 0.88488 0.0
C1324 C 0.9543 0.39011 0.89354 0.0
C1325 C 0.93254 0.39281 0.90568 0.0
C1326 C 0.94601 0.48155 0.8778 0.0
C1327 C 0.97404 0.35722 0.89124 0.0
H1328 H 0.0224 0.41471 0.84148 0.0
H1329 H 0.07611 0.44569 0.88039 0.0
H1330 H 0.9528 0.37713 0.85799 0.0
H1331 H 0.9386 0.42021 0.85522 0.0
H1332 H 0.96437 0.39941 0.8414 0.0
H1333 H 0.0493 0.44987 0.90325 0.0
H1334 H 1.00479 0.46194 0.90214 0.0
H1335 H 0.01611 0.41828 0.9059 0.0
H1336 H 0.90668 0.4758 0.90176 0.0
H1337 H 0.93036 0.3715 0.91328 0.0
H1338 H 0.94904 0.47491 0.86605 0.0
H1339 H 0.96979 0.49476 0.88138 0.0
H1340 H 0.92429 0.49982 0.87895 0.0
H1341 H 0.97854 0.35228 0.87942 0.0
H1342 H 0.96037 0.33488 0.89607 0.0
H1343 H 0.9994 0.35941 0.89666 0.0
C1344 C 0.84957 0.77228 0.10158 0.0
C1345 C 0.83133 0.80105 0.10652 0.0
C1346 C 0.85631 0.74499 0.11103 0.0
C1347 C 0.84332 0.7464 0.12544 0.0
C1348 C 0.82137 0.77349 0.12985 0.0
C1349 C 0.81618 0.80109 0.12035 0.0
C1350 C 0.8801 0.71664 0.10611 0.0
C1351 C 0.80585 0.77479 0.145 0.0
C1352 C 0.84734 0.67419 0.15245 0.0
C1353 C 0.87167 0.68734 0.16222 0.0
C1354 C 0.83926 0.69192 0.13966 0.0
C1355 C 0.85664 0.7229 0.13662 0.0
C1356 C 0.88391 0.73416 0.1457 0.0
C1357 C 0.89065 0.71646 0.15867 0.0
C1358 C 0.80968 0.67938 0.13042 0.0
C1359 C 0.90396 0.76645 0.14236 0.0
H1360 H 0.86129 0.77244 0.0908 0.0
H1361 H 0.80182 0.82337 0.12399 0.0
H1362 H 0.86991 0.69112 0.1093 0.0
H1363 H 0.88429 0.71698 0.09406 0.0
H1364 H 0.90528 0.71978 0.1116 0.0
H1365 H 0.78522 0.79437 0.14581 0.0
H1366 H 0.79512 0.74937 0.14806 0.0
H1367 H 0.82605 0.7813 0.1531 0.0
H1368 H 0.83241 0.6518 0.15542 0.0
H1369 H 0.90952 0.72622 0.16635 0.0
H1370 H 0.81359 0.68507 0.11863 0.0
H1371 H 0.78593 0.69269 0.13397 0.0
H1372 H 0.80562 0.65129 0.13175 0.0
H1373 H 0.91128 0.76729 0.13061 0.0
H1374 H 0.92757 0.76838 0.14912 0.0
H1375 H 0.88778 0.78926 0.14464 0.0
C1376 C 0.60671 0.60243 0.40295 0.0
C1377 C 0.59624 0.62708 0.41316 0.0
C1378 C 0.5867 0.59563 0.39059 0.0
C1379 C 0.55639 0.61483 0.38837 0.0
C1380 C 0.54828 0.6427 0.39774 0.0
C1381 C 0.56803 0.64801 0.4103 0.0
C1382 C 0.59594 0.56544 0.38098 0.0
C1383 C 0.51701 0.6648 0.39524 0.0
C1384 C 0.50365 0.60574 0.35402 0.0
C1385 C 0.47561 0.58691 0.35933 0.0
C1386 C 0.53097 0.61423 0.36322 0.0
C1387 C 0.53043 0.60265 0.37787 0.0
C1388 C 0.50332 0.58147 0.38295 0.0
C1389 C 0.47573 0.5744 0.37364 0.0
C1390 C 0.55894 0.63759 0.35757 0.0
C1391 C 0.50263 0.56764 0.39841 0.0
H1392 H 0.62851 0.5861 0.40535 0.0
H1393 H 0.56027 0.66709 0.41832 0.0
H1394 H 0.57942 0.54327 0.38394 0.0
H1395 H 0.59142 0.57126 0.36925 0.0
H1396 H 0.62314 0.55767 0.38242 0.0
H1397 H 0.51781 0.68871 0.40189 0.0
H1398 H 0.5147 0.67184 0.3835 0.0
H1399 H 0.49364 0.65022 0.39831 0.0
H1400 H 0.50323 0.61578 0.34293 0.0
H1401 H 0.45394 0.55984 0.37764 0.0
H1402 H 0.55874 0.63942 0.34542 0.0
H1403 H 0.58458 0.62864 0.36114 0.0
H1404 H 0.55516 0.66372 0.36216 0.0
H1405 H 0.52766 0.55579 0.4012 0.0
H1406 H 0.48211 0.54819 0.4 0.0
H1407 H 0.49819 0.58902 0.40622 0.0
C1408 C 0.38646 0.31376 0.15656 0.0
C1409 C 0.37196 0.34506 0.16062 0.0
C1410 C 0.37753 0.29835 0.14326 0.0
C1411 C 0.35246 0.31417 0.13425 0.0
C1412 C 0.33983 0.34714 0.13779 0.0
C1413 C 0.35023 0.36249 0.15091 0.0
C1414 C 0.39273 0.26377 0.13948 0.0
C1415 C 0.31264 0.3647 0.12872 0.0
C1416 C 0.34136 0.26726 0.0986 0.0
C1417 C 0.31956 0.24068 0.10317 0.0
C1418 C 0.35042 0.29362 0.10828 0.0
C1419 C 0.33629 0.29365 0.12254 0.0
C1420 C 0.31064 0.2695 0.12639 0.0
C1421 C 0.30303 0.24274 0.1167 0.0
C1422 C 0.37773 0.31907 0.10384 0.0
C1423 C 0.29389 0.26977 0.14131 0.0
H1424 H 0.40336 0.30054 0.16413 0.0
H1425 H 0.33884 0.38671 0.15412 0.0
H1426 H 0.37318 0.24344 0.14119 0.0
H1427 H 0.40056 0.26299 0.12779 0.0
H1428 H 0.41537 0.25765 0.14638 0.0
H1429 H 0.31316 0.39301 0.13032 0.0
H1430 H 0.31552 0.359 0.11688 0.0
H1431 H 0.28706 0.35527 0.13222 0.0
H1432 H 0.35416 0.26555 0.08807 0.0
H1433 H 0.28601 0.22219 0.12011 0.0
H1434 H 0.40112 0.31476 0.11051 0.0
H1435 H 0.369 0.34568 0.10604 0.0
H1436 H 0.38464 0.31682 0.09207 0.0
H1437 H 0.31228 0.26 0.14959 0.0
H1438 H 0.27061 0.25334 0.14162 0.0
H1439 H 0.28669 0.29631 0.1445 0.0
C1440 C 0.42103 0.60287 0.90367 0.0
C1441 C 0.43304 0.62618 0.91414 0.0
C1442 C 0.4399 0.59668 0.89094 0.0
C1443 C 0.47063 0.61516 0.88866 0.0
C1444 C 0.48046 0.64169 0.89842 0.0
C1445 C 0.46181 0.64636 0.91133 0.0
C1446 C 0.42897 0.56783 0.88091 0.0
C1447 C 0.51233 0.66296 0.89592 0.0
C1448 C 0.54937 0.57511 0.8723 0.0
C1449 C 0.5493 0.58993 0.8584 0.0
C1450 C 0.52214 0.58101 0.88192 0.0
C1451 C 0.49531 0.60336 0.87759 0.0
C1452 C 0.49436 0.61697 0.86328 0.0
C1453 C 0.52129 0.60958 0.85371 0.0
C1454 C 0.52315 0.56504 0.897 0.0
C1455 C 0.46666 0.64158 0.85846 0.0
H1456 H 0.39876 0.58714 0.90606 0.0
H1457 H 0.47067 0.66441 0.91956 0.0
H1458 H 0.43265 0.57485 0.86924 0.0
H1459 H 0.4451 0.54493 0.88313 0.0
H1460 H 0.40171 0.5606 0.88266 0.0
H1461 H 0.51293 0.68607 0.90306 0.0
H1462 H 0.53535 0.64722 0.89833 0.0
H1463 H 0.51402 0.67128 0.88431 0.0
H1464 H 0.57115 0.55984 0.87578 0.0
H1465 H 0.52158 0.62131 0.84293 0.0
H1466 H 0.49788 0.55369 0.89979 0.0
H1467 H 0.52885 0.58513 0.90527 0.0
H1468 H 0.54304 0.54472 0.89784 0.0
H1469 H 0.46624 0.64485 0.84636 0.0
H1470 H 0.47136 0.66706 0.86353 0.0
H1471 H 0.44101 0.63281 0.86213 0.0
C1472 C 0.17673 0.67125 0.65517 0.0
C1473 C 0.1613 0.68918 0.66671 0.0
C1474 C 0.18289 0.68748 0.6418 0.0
C1475 C 0.17239 0.72193 0.64003 0.0
C1476 C 0.15425 0.73912 0.65132 0.0
C1477 C 0.1494 0.72257 0.6647 0.0
C1478 C 0.20271 0.66862 0.63007 0.0
C1479 C 0.14142 0.77552 0.64952 0.0
C1480 C 0.21229 0.78875 0.61596 0.0
C1481 C 0.18696 0.79143 0.60525 0.0
C1482 C 0.20988 0.76323 0.62671 0.0
C1483 C 0.18116 0.74094 0.62668 0.0
C1484 C 0.15751 0.74151 0.61502 0.0
C1485 C 0.16097 0.76666 0.6043 0.0
C1486 C 0.23622 0.76216 0.6388 0.0
C1487 C 0.12644 0.7183 0.61473 0.0
H1488 H 0.18621 0.64542 0.65689 0.0
H1489 H 0.13742 0.73607 0.67376 0.0
H1490 H 0.19151 0.67313 0.61907 0.0
H1491 H 0.22943 0.67841 0.62983 0.0
H1492 H 0.20356 0.6405 0.63214 0.0
H1493 H 0.12518 0.78383 0.65888 0.0
H1494 H 0.16353 0.79335 0.64866 0.0
H1495 H 0.12628 0.77793 0.63929 0.0
H1496 H 0.23264 0.80769 0.61648 0.0
H1497 H 0.1417 0.7684 0.59577 0.0
H1498 H 0.24334 0.73523 0.64137 0.0
H1499 H 0.22521 0.77367 0.64888 0.0
H1500 H 0.25977 0.77667 0.63585 0.0
H1501 H 0.13336 0.6916 0.61774 0.0
H1502 H 0.11394 0.71802 0.6038 0.0
H1503 H 0.10746 0.72755 0.62289 0.0
C1504 C 0.11181 0.43059 0.40383 0.0
C1505 C 0.09576 0.40681 0.4131 0.0
C1506 C 0.0958 0.44154 0.39099 0.0
C1507 C 0.06363 0.42739 0.3873 0.0
C1508 C 0.04919 0.40061 0.39585 0.0
C1509 C 0.06522 0.3911 0.40891 0.0
C1510 C 0.11172 0.47058 0.38236 0.0
C1511 C 0.01556 0.38384 0.39181 0.0
C1512 C 0.99068 0.47294 0.36913 0.0
C1513 C 0.99093 0.45668 0.35551 0.0
C1514 C 0.01695 0.46657 0.37919 0.0
C1515 C 0.04295 0.44265 0.37552 0.0
C1516 C 0.04513 0.42908 0.36123 0.0
C1517 C 0.01924 0.43683 0.35124 0.0
C1518 C 0.015 0.48273 0.3942 0.0
C1519 C 0.07241 0.40338 0.35701 0.0
H1520 H 0.13533 0.443 0.40722 0.0
H1521 H 0.05307 0.37274 0.41619 0.0
H1522 H 0.10711 0.46779 0.37044 0.0
H1523 H 0.09995 0.49517 0.3859 0.0
H1524 H 0.13979 0.47234 0.3843 0.0
H1525 H 1.01047 0.36047 0.39845 0.0
H1526 H 0.99428 0.40225 0.39362 0.0
H1527 H 0.01541 0.37664 0.38004 0.0
H1528 H 0.96896 0.48868 0.37228 0.0
H1529 H 0.01962 0.42461 0.34056 0.0
H1530 H 0.04074 0.4914 0.39782 0.0
H1531 H 1.00572 0.46341 0.40222 0.0
H1532 H 0.99721 0.50501 0.39441 0.0
H1533 H 0.0981 0.41228 0.36055 0.0
H1534 H 0.07298 0.39859 0.34501 0.0
H1535 H 0.06728 0.37865 0.36265 0.0
C1536 C 0.35071 0.80494 0.39511 0.0
C1537 C 0.35366 0.80263 0.4103 0.0
C1538 C 0.35381 0.77557 0.38643 0.0
C1539 C 0.36047 0.74345 0.3932 0.0
C1540 C 0.36478 0.74127 0.40852 0.0
C1541 C 0.36086 0.77098 0.41695 0.0
C1542 C 0.34908 0.7788 0.37005 0.0
C1543 C 0.37261 0.70766 0.41607 0.0
C1544 C 0.32304 0.67717 0.36876 0.0
C1545 C 0.35085 0.67141 0.35946 0.0
C1546 C 0.32686 0.69742 0.38123 0.0
C1547 C 0.35924 0.71217 0.38419 0.0
C1548 C 0.3884 0.70217 0.376 0.0
C1549 C 0.38383 0.68162 0.36357 0.0
C1550 C 0.29536 0.70666 0.39002 0.0
C1551 C 0.42358 0.71634 0.37927 0.0
H1552 H 0.34565 0.82962 0.39005 0.0
H1553 H 0.36384 0.76944 0.42874 0.0
H1554 H 0.37179 0.76836 0.36424 0.0
H1555 H 0.32646 0.76359 0.36654 0.0
H1556 H 0.34527 0.80586 0.36654 0.0
H1557 H 0.38386 0.71179 0.42711 0.0
H1558 H 0.34855 0.69279 0.41741 0.0
H1559 H 0.39056 0.69181 0.40949 0.0
H1560 H 0.29774 0.6681 0.36569 0.0
H1561 H 0.40543 0.67632 0.35642 0.0
H1562 H 0.28694 0.73297 0.38701 0.0
H1563 H 0.30101 0.70657 0.40191 0.0
H1564 H 0.27381 0.68866 0.38789 0.0
H1565 H 0.42599 0.74228 0.37434 0.0
H1566 H 0.44405 0.69979 0.37459 0.0
H1567 H 0.42772 0.71888 0.39125 0.0
C1568 C 0.01641 0.59067 0.17248 0.0
C1569 C 0.98622 0.57853 0.16595 0.0
C1570 C 0.04594 0.59643 0.16406 0.0
C1571 C 0.04488 0.58977 0.14884 0.0
C1572 C 0.01488 0.57573 0.1424 0.0
C1573 C 0.98588 0.57033 0.15108 0.0
C1574 C 0.07732 0.61135 0.17133 0.0
C1575 C 1.01287 0.56764 0.12622 0.0
C1576 C 0.09267 0.62986 0.1178 0.0
C1577 C 0.10965 0.60065 0.1127 0.0
C1578 C 0.07467 0.62858 0.1311 0.0
C1579 C 0.07443 0.59755 0.13925 0.0
C1580 C 0.09652 0.57039 0.13526 0.0
C1581 C 0.11337 0.57199 0.1218 0.0
C1582 C 0.05231 0.65856 0.13536 0.0
C1583 C 0.0985 0.53766 0.14407 0.0
H1584 H 0.01648 0.59744 0.18401 0.0
H1585 H 0.96243 0.56101 0.14608 0.0
H1586 H 0.10129 0.60122 0.16642 0.0
H1587 H 0.07727 0.63964 0.16986 0.0
H1588 H 0.07751 0.60593 0.18329 0.0
H1589 H 0.9877 0.55654 0.12305 0.0
H1590 H 0.01707 0.59138 0.11973 0.0
H1591 H 0.03323 0.54909 0.12316 0.0
H1592 H 0.09028 0.65214 0.11073 0.0
H1593 H 0.12716 0.54963 0.11786 0.0
H1594 H 0.05277 0.6626 0.14739 0.0
H1595 H 0.02543 0.65304 0.13214 0.0
H1596 H 0.06054 0.68262 0.12983 0.0
H1597 H 0.09723 0.54306 0.156 0.0
H1598 H 0.1225 0.5233 0.14169 0.0
H1599 H 0.07644 0.52095 0.14121 0.0
C1600 C 0.15849 0.33662 0.86698 0.0
C1601 C 0.18681 0.35344 0.861 0.0
C1602 C 0.16181 0.31908 0.88032 0.0
C1603 C 0.19401 0.31899 0.88753 0.0
C1604 C 0.22062 0.34066 0.88261 0.0
C1605 C 0.21681 0.35737 0.86922 0.0
C1606 C 0.13241 0.29722 0.88567 0.0
C1607 C 0.25479 0.34247 0.89032 0.0
C1608 C 0.20293 0.26501 0.92172 0.0
C1609 C 0.21174 0.23316 0.91558 0.0
C1610 C 0.198 0.29384 0.91281 0.0
C1611 C 0.20253 0.29051 0.89753 0.0
C1612 C 0.21418 0.25904 0.89147 0.0
C1613 C 0.21845 0.23059 0.90061 0.0
C1614 C 0.18557 0.32685 0.91968 0.0
C1615 C 0.22029 0.25483 0.87521 0.0
H1616 H 0.13518 0.33412 0.8606 0.0
H1617 H 0.23843 0.3712 0.8646 0.0
H1618 H 0.1301 0.29868 0.89777 0.0
H1619 H 0.1077 0.30516 0.88066 0.0
H1620 H 0.13729 0.27 0.88271 0.0
H1621 H 0.26906 0.36616 0.88731 0.0
H1622 H 0.25156 0.34175 0.90239 0.0
H1623 H 0.27052 0.31996 0.88709 0.0
H1624 H 0.19752 0.26691 0.93335 0.0
H1625 H 0.22528 0.2059 0.89594 0.0
H1626 H 0.15727 0.32825 0.91864 0.0
H1627 H 0.19651 0.3497 0.91411 0.0
H1628 H 0.19208 0.32807 0.93152 0.0
H1629 H 0.19578 0.25806 0.8692 0.0
H1630 H 0.23105 0.22921 0.87244 0.0
H1631 H 0.23826 0.27484 0.87122 0.0
C1632 C 0.41641 0.46302 0.61967 0.0
C1633 C 0.42154 0.43445 0.61065 0.0
C1634 C 0.43137 0.46437 0.63352 0.0
C1635 C 0.45271 0.43702 0.63792 0.0
C1636 C 0.45329 0.40598 0.62981 0.0
C1637 C 0.43727 0.40497 0.61611 0.0
C1638 C 0.4283 0.49692 0.6424 0.0
C1639 C 0.47481 0.37577 0.63454 0.0
C1640 C 0.5408 0.46039 0.65127 0.0
C1641 C 0.53908 0.44961 0.66581 0.0
C1642 C 0.51207 0.45781 0.64224 0.0
C1643 C 0.48109 0.44431 0.64805 0.0
C1644 C 0.47858 0.43587 0.66304 0.0
C1645 C 0.50783 0.43853 0.67178 0.0
C1646 C 0.51553 0.46764 0.62627 0.0
C1647 C 0.44598 0.42196 0.66971 0.0
H1648 H 0.40301 0.48536 0.61547 0.0
H1649 H 0.44035 0.38267 0.6091 0.0
H1650 H 0.42827 0.49125 0.65431 0.0
H1651 H 0.4506 0.51375 0.64004 0.0
H1652 H 0.40456 0.51125 0.63959 0.0
H1653 H 0.46767 0.35194 0.62857 0.0
H1654 H 0.50221 0.38139 0.63228 0.0
H1655 H 0.4721 0.37119 0.64648 0.0
H1656 H 0.56503 0.46904 0.64675 0.0
H1657 H 0.50658 0.43032 0.68312 0.0
H1658 H 0.49582 0.48696 0.62332 0.0
H1659 H 0.51135 0.44473 0.61926 0.0
H1660 H 0.54117 0.47849 0.62368 0.0
H1661 H 0.42281 0.43218 0.66419 0.0
H1662 H 0.44448 0.42816 0.68158 0.0
H1663 H 0.44577 0.39357 0.66862 0.0
C1664 C 0.09588 0.23612 0.30828 0.0
C1665 C 0.09096 0.20631 0.31678 0.0
C1666 C 0.06989 0.26185 0.30705 0.0
C1667 C 0.03804 0.25839 0.31464 0.0
C1668 C 0.03302 0.22825 0.32311 0.0
C1669 C 0.05898 0.20294 0.32396 0.0
C1670 C 0.07668 0.29304 0.29771 0.0
C1671 C 1.00034 0.223 0.33172 0.0
C1672 C 0.98527 0.33795 0.32621 0.0
C1673 C 0.95659 0.33748 0.31676 0.0
C1674 C 1.0118 0.31318 0.3254 0.0
C1675 C 1.01083 0.28682 0.31466 0.0
C1676 C 0.98242 0.28651 0.30482 0.0
C1677 C 0.95571 0.31143 0.30605 0.0
C1678 C 0.04062 0.31482 0.33641 0.0
C1679 C 0.98 0.25944 0.29306 0.0
H1680 H 0.12007 0.23949 0.30261 0.0
H1681 H 0.05416 0.18047 0.33066 0.0
H1682 H 0.05532 0.29691 0.28986 0.0
H1683 H 0.07796 0.31624 0.30475 0.0
H1684 H 0.10108 0.29087 0.29149 0.0
H1685 H 0.99975 0.19788 0.3375 0.0
H1686 H 0.99753 0.24376 0.33998 0.0
H1687 H 0.97783 0.22447 0.32434 0.0
H1688 H 0.98683 0.3575 0.33463 0.0
H1689 H 0.93408 0.31039 0.29862 0.0
H1690 H 0.0655 0.31779 0.33066 0.0
H1691 H 0.0418 0.29048 0.34273 0.0
H1692 H 0.03757 0.33643 0.34425 0.0
H1693 H 1.00416 0.25859 0.28664 0.0
H1694 H 0.95827 0.26414 0.28546 0.0
H1695 H 0.97656 0.23381 0.29817 0.0
C1696 C 0.95168 0.71605 0.57562 0.0
C1697 C 0.94904 0.68825 0.56572 0.0
C1698 C 0.97639 0.74247 0.574 0.0
C1699 C 0.99929 0.74245 0.56191 0.0
C1700 C 0.99664 0.71473 0.55172 0.0
C1701 C 0.97206 0.68792 0.55382 0.0
C1702 C 0.97822 0.7703 0.5855 0.0
C1703 C 0.01991 0.71336 0.53854 0.0
C1704 C 0.04615 0.82938 0.55453 0.0
C1705 C 0.07808 0.82453 0.56145 0.0
C1706 C 0.02097 0.80271 0.554 0.0
C1707 C 0.02721 0.77012 0.56067 0.0
C1708 C 0.05971 0.76494 0.56726 0.0
C1709 C 0.08435 0.79167 0.56748 0.0
C1710 C 0.98721 0.80974 0.54658 0.0
C1711 C 0.06812 0.73153 0.57485 0.0
H1712 H 0.93459 0.71696 0.58498 0.0
H1713 H 0.97055 0.667 0.54602 0.0
H1714 H 1.00456 0.77194 0.59003 0.0
H1715 H 0.97222 0.79554 0.58049 0.0
H1716 H 0.96009 0.76576 0.59469 0.0
H1717 H 1.01352 0.69167 0.53112 0.0
H1718 H 0.01813 0.73777 0.53231 0.0
H1719 H 0.04692 0.71056 0.54215 0.0
H1720 H 0.04043 0.85429 0.54984 0.0
H1721 H 0.1086 0.78681 0.57285 0.0
H1722 H 0.96653 0.81091 0.55492 0.0
H1723 H 0.98079 0.78854 0.53892 0.0
H1724 H 0.98749 0.83435 0.54042 0.0
H1725 H 0.05303 0.72962 0.58514 0.0
H1726 H 0.09576 0.72953 0.57763 0.0
H1727 H 0.06106 0.70927 0.5679 0.0
C1728 C 0.44687 0.80709 0.80733 0.0
C1729 C 0.4506 0.83551 0.81675 0.0
C1730 C 0.47317 0.78179 0.80586 0.0
C1731 C 0.50412 0.78424 0.81413 0.0
C1732 C 0.50804 0.8131 0.82348 0.0
C1733 C 0.48178 0.83807 0.82457 0.0
C1734 C 0.46758 0.75201 0.79558 0.0
C1735 C 0.53968 0.81713 0.83286 0.0
C1736 C 0.55445 0.70249 0.82467 0.0
C1737 C 0.58423 0.7038 0.81585 0.0
C1738 C 0.5285 0.72785 0.82402 0.0
C1739 C 0.53116 0.75569 0.81406 0.0
C1740 C 0.56079 0.75701 0.80488 0.0
C1741 C 0.58697 0.73149 0.80598 0.0
C1742 C 0.4984 0.72513 0.83438 0.0
C1743 C 0.56497 0.78566 0.79392 0.0
H1744 H 0.42328 0.80437 0.80118 0.0
H1745 H 0.48563 0.8595 0.83196 0.0
H1746 H 0.48994 0.74913 0.78816 0.0
H1747 H 0.46529 0.72787 0.80197 0.0
H1748 H 0.44405 0.75519 0.78887 0.0
H1749 H 0.5397 0.84157 0.83915 0.0
H1750 H 0.54137 0.79544 0.84072 0.0
H1751 H 0.56304 0.81631 0.82593 0.0
H1752 H 0.55155 0.68175 0.83249 0.0
H1753 H 0.60949 0.73318 0.79907 0.0
H1754 H 0.47424 0.72289 0.82806 0.0
H1755 H 0.4965 0.74872 0.84116 0.0
H1756 H 0.50047 0.70265 0.84181 0.0
H1757 H 0.54175 0.78756 0.78695 0.0
H1758 H 0.58771 0.78188 0.78676 0.0
H1759 H 0.56776 0.81051 0.79975 0.0
C1760 C 0.44326 0.23576 0.07701 0.0
C1761 C 0.44312 0.20707 0.06755 0.0
C1762 C 0.46846 0.26189 0.07611 0.0
C1763 C 0.4944 0.2605 0.0652 0.0
C1764 C 0.494 0.23209 0.05534 0.0
C1765 C 0.46879 0.20575 0.05671 0.0
C1766 C 0.46761 0.29081 0.08713 0.0
C1767 C 0.52063 0.22924 0.04342 0.0
C1768 C 0.54617 0.34463 0.05838 0.0
C1769 C 0.57598 0.33931 0.06677 0.0
C1770 C 0.52003 0.31905 0.05735 0.0
C1771 C 0.52319 0.28722 0.06498 0.0
C1772 C 0.55344 0.28168 0.07326 0.0
C1773 C 0.57912 0.30729 0.07395 0.0
C1774 C 0.48865 0.32637 0.04826 0.0
C1775 C 0.55832 0.24893 0.08189 0.0
H1776 H 0.42392 0.23756 0.08551 0.0
H1777 H 0.4693 0.18404 0.04928 0.0
H1778 H 0.49297 0.29366 0.09249 0.0
H1779 H 0.46187 0.31534 0.08146 0.0
H1780 H 0.448 0.2866 0.09577 0.0
H1781 H 0.51541 0.2075 0.03586 0.0
H1782 H 0.52163 0.25341 0.03699 0.0
H1783 H 0.5463 0.22548 0.04839 0.0
H1784 H 0.54297 0.36895 0.05277 0.0
H1785 H 0.60168 0.30221 0.08053 0.0
H1786 H 0.46588 0.32831 0.0555 0.0
H1787 H 0.48392 0.30491 0.04051 0.0
H1788 H 0.49109 0.35065 0.04194 0.0
H1789 H 0.53795 0.24672 0.09033 0.0
H1790 H 0.58365 0.24786 0.08743 0.0
H1791 H 0.55597 0.22631 0.07457 0.0
C1792 C 0.9821 0.69673 0.19675 0.0
C1793 C 0.95182 0.69777 0.20523 0.0
C1794 C 1.00776 0.72235 0.19775 0.0
C1795 C 1.00397 0.75024 0.20764 0.0
C1796 C 0.97398 0.75105 0.21657 0.0
C1797 C 0.94834 0.72515 0.21521 0.0
C1798 C 0.03859 0.72005 0.18778 0.0
C1799 C 0.96861 0.77978 0.2274 0.0
C1800 C 0.08578 0.80419 0.21561 0.0
C1801 C 0.082 0.83239 0.20608 0.0
C1802 C 0.06032 0.77801 0.21662 0.0
C1803 C 0.03022 0.77941 0.2078 0.0
C1804 C 0.02615 0.80808 0.19836 0.0
C1805 C 0.05163 0.83393 0.1977 0.0
C1806 C 0.06597 0.74842 0.22699 0.0
C1807 C 0.99518 0.81106 0.18852 0.0
H1808 H 0.9856 0.67606 0.18893 0.0
H1809 H 0.92535 0.72665 0.22184 0.0
H1810 H 0.03899 0.74244 0.18025 0.0
H1811 H 0.06254 0.72094 0.19431 0.0
H1812 H 0.03865 0.69617 0.1811 0.0
H1813 H 0.94571 0.77551 0.23441 0.0
H1814 H 0.99148 0.78249 0.23454 0.0
H1815 H 0.96537 0.80442 0.22146 0.0
H1816 H 0.10887 0.80228 0.22215 0.0
H1817 H 0.04787 0.85522 0.19022 0.0
H1818 H 0.06913 0.72429 0.22067 0.0
H1819 H 0.04325 0.74507 0.23418 0.0
H1820 H 0.08901 0.75217 0.23396 0.0
H1821 H 0.99471 0.78923 0.1807 0.0
H1822 H 0.99501 0.83541 0.18216 0.0
H1823 H 0.97133 0.80967 0.19511 0.0
C1824 C 0.45349 0.80602 0.44949 0.0
C1825 C 0.45712 0.83826 0.45649 0.0
C1826 C 0.47864 0.77991 0.4504 0.0
C1827 C 0.50884 0.78501 0.45876 0.0
C1828 C 0.51249 0.81705 0.46623 0.0
C1829 C 0.48695 0.84322 0.46492 0.0
C1830 C 0.47323 0.74705 0.44189 0.0
C1831 C 0.54374 0.82392 0.47546 0.0
C1832 C 0.56189 0.70235 0.46705 0.0
C1833 C 0.58757 0.70326 0.45619 0.0
C1834 C 0.53715 0.72922 0.46846 0.0
C1835 C 0.53724 0.75777 0.45864 0.0
C1836 C 0.56326 0.75877 0.44777 0.0
C1837 C 0.58786 0.73213 0.44679 0.0
C1838 C 0.51048 0.72678 0.48036 0.0
C1839 C 0.56459 0.78767 0.43674 0.0
H1840 H 0.43101 0.80115 0.44284 0.0
H1841 H 0.49054 0.86762 0.47042 0.0
H1842 H 0.49376 0.74416 0.43356 0.0
H1843 H 0.47486 0.72459 0.44932 0.0
H1844 H 0.44804 0.74639 0.43622 0.0
H1845 H 0.54151 0.84825 0.48175 0.0
H1846 H 0.54794 0.80242 0.48324 0.0
H1847 H 0.56673 0.82552 0.46833 0.0
H1848 H 0.56094 0.68057 0.47443 0.0
H1849 H 0.60707 0.73369 0.43824 0.0
H1850 H 0.4848 0.72307 0.4754 0.0
H1851 H 0.50962 0.75108 0.48672 0.0
H1852 H 0.51552 0.70514 0.488 0.0
H1853 H 0.54027 0.78863 0.43046 0.0
H1854 H 0.58614 0.7848 0.42888 0.0
H1855 H 0.56738 0.81264 0.44247 0.0
C1856 C 0.57728 0.29847 0.71357 0.0
C1857 C 0.57429 0.32715 0.70423 0.0
C1858 C 0.55114 0.27281 0.71439 0.0
C1859 C 0.52102 0.27519 0.70558 0.0
C1860 C 0.51779 0.30433 0.69633 0.0
C1861 C 0.54394 0.3296 0.69584 0.0
C1862 C 0.55605 0.24272 0.72455 0.0
C1863 C 0.48699 0.3084 0.68646 0.0
C1864 C 0.47193 0.19327 0.69392 0.0
C1865 C 0.44157 0.19403 0.70239 0.0
C1866 C 0.49765 0.21886 0.69502 0.0
C1867 C 0.49412 0.24641 0.7051 0.0
C1868 C 0.46391 0.24715 0.71393 0.0
C1869 C 0.43806 0.22137 0.7124 0.0
C1870 C 0.52852 0.21663 0.68507 0.0
C1871 C 0.45868 0.27553 0.72494 0.0
H1872 H 0.60024 0.2958 0.72014 0.0
H1873 H 0.54066 0.35124 0.68851 0.0
H1874 H 0.5331 0.23945 0.73162 0.0
H1875 H 0.55898 0.21882 0.71805 0.0
H1876 H 0.57898 0.24581 0.73164 0.0
H1877 H 0.4873 0.3331 0.68036 0.0
H1878 H 0.48625 0.28703 0.67842 0.0
H1879 H 0.46303 0.30705 0.69299 0.0
H1880 H 0.47552 0.17276 0.68604 0.0
H1881 H 0.41507 0.22271 0.71905 0.0
H1882 H 0.55211 0.21364 0.69173 0.0
H1883 H 0.53125 0.2407 0.67866 0.0
H1884 H 0.5268 0.19475 0.6773 0.0
H1885 H 0.48127 0.27733 0.73229 0.0
H1886 H 0.43535 0.2715 0.73171 0.0
H1887 H 0.45635 0.3005 0.71918 0.0
C1888 C 0.07592 0.23031 0.94311 0.0
C1889 C 0.07769 0.20216 0.95285 0.0
C1890 C 0.05083 0.25639 0.94441 0.0
C1891 C 0.02631 0.25533 0.95589 0.0
C1892 C 0.02812 0.22734 0.96595 0.0
C1893 C 0.05346 0.20115 0.96429 0.0
C1894 C 0.05016 0.28484 0.93316 0.0
C1895 C 1.003 0.22488 0.97847 0.0
C1896 C 0.97632 0.34044 0.96279 0.0
C1897 C 0.94574 0.33518 0.95491 0.0
C1898 C 1.00202 0.31443 0.96375 0.0
C1899 C 0.99767 0.28218 0.95655 0.0
C1900 C 0.96656 0.27664 0.94886 0.0
C1901 C 0.94132 0.30269 0.94824 0.0
C1902 C 0.03433 0.3218 0.97223 0.0
C1903 C 0.96028 0.24342 0.94074 0.0
H1904 H 0.09409 0.2319 0.93415 0.0
H1905 H 0.05425 0.17993 0.97196 0.0
H1906 H 0.02558 0.28408 0.92705 0.0
H1907 H 0.05169 0.3102 0.93865 0.0
H1908 H 0.07156 0.28285 0.92516 0.0
H1909 H 1.00896 0.2032 0.98596 0.0
H1910 H 1.00307 0.24916 0.98484 0.0
H1911 H 0.9767 0.22131 0.97411 0.0
H1912 H 0.98051 0.36509 0.968 0.0
H1913 H 0.91814 0.29761 0.94208 0.0
H1914 H 0.05641 0.32324 0.96459 0.0
H1915 H 0.0396 0.30062 0.98005 0.0
H1916 H 0.03274 0.34635 0.9784 0.0
H1917 H 0.97936 0.24063 0.93179 0.0
H1918 H 0.9342 0.24219 0.93588 0.0
H1919 H 0.96358 0.22121 0.94821 0.0
C1920 C 0.05149 0.69881 0.69947 0.0
C1921 C 0.08202 0.70025 0.7078 0.0
C1922 C 0.02574 0.72443 0.7003 0.0
C1923 C 0.02954 0.75294 0.70987 0.0
C1924 C 0.05982 0.75429 0.71863 0.0
C1925 C 0.08556 0.7283 0.71746 0.0
C1926 C 0.99474 0.72139 0.69048 0.0
C1927 C 0.06533 0.78368 0.72912 0.0
C1928 C 0.98109 0.83578 0.69894 0.0
C1929 C 0.9507 0.83486 0.70739 0.0
C1930 C 1.00675 0.8101 0.6999 0.0
C1931 C 1.00305 0.78213 0.70976 0.0
C1932 C 0.97289 0.78129 0.71862 0.0
C1933 C 0.94719 0.80727 0.71728 0.0
C1934 C 0.03759 0.81251 0.68994 0.0
C1935 C 0.96745 0.75246 0.7294 0.0
H1936 H 0.04775 0.67772 0.69189 0.0
H1937 H 0.10866 0.73024 0.72399 0.0
H1938 H 0.9709 0.7227 0.69709 0.0
H1939 H 0.99419 0.74324 0.68268 0.0
H1940 H 0.99457 0.69707 0.68411 0.0
H1941 H 0.08835 0.77986 0.73608 0.0
H1942 H 0.06846 0.80794 0.72288 0.0
H1943 H 0.04256 0.78679 0.7363 0.0
H1944 H 0.98472 0.85644 0.69114 0.0
H1945 H 0.92415 0.80569 0.72389 0.0
H1946 H 0.03865 0.78967 0.68268 0.0
H1947 H 0.06146 0.81269 0.69653 0.0
H1948 H 0.03711 0.83591 0.68299 0.0
H1949 H 0.96425 0.72788 0.7234 0.0
H1950 H 0.94449 0.75666 0.73638 0.0
H1951 H 0.99028 0.74971 0.73655 0.0
C1952 C 0.9713 0.19054 0.46318 0.0
C1953 C 0.94447 0.1944 0.45298 0.0
C1954 C 0.99726 0.21612 0.46491 0.0
C1955 C 0.99722 0.24641 0.45611 0.0
C1956 C 0.97012 0.25035 0.44587 0.0
C1957 C 0.94435 0.22487 0.44456 0.0
C1958 C 0.02508 0.2105 0.47611 0.0
C1959 C 0.96867 0.28134 0.43594 0.0
C1960 C 0.05014 0.32894 0.46485 0.0
C1961 C 0.07903 0.32543 0.45569 0.0
C1962 C 0.02413 0.30315 0.46554 0.0
C1963 C 0.02633 0.2729 0.45675 0.0
C1964 C 0.05568 0.26912 0.44769 0.0
C1965 C 0.08132 0.2949 0.44736 0.0
C1966 C 0.99384 0.30859 0.47554 0.0
C1967 C 0.05958 0.23816 0.43786 0.0
H1968 H 0.97214 0.16745 0.4698 0.0
H1969 H 0.92424 0.22872 0.43654 0.0
H1970 H 0.05017 0.20773 0.4705 0.0
H1971 H 0.02697 0.23315 0.48345 0.0
H1972 H 0.02045 0.18722 0.48286 0.0
H1973 H 0.9465 0.28046 0.42833 0.0
H1974 H 0.96688 0.30512 0.44259 0.0
H1975 H 0.99254 0.28309 0.42936 0.0
H1976 H 0.04757 0.35207 0.47136 0.0
H1977 H 0.10311 0.29124 0.44015 0.0
H1978 H 0.98991 0.28564 0.48256 0.0
H1979 H 0.97028 0.312 0.4689 0.0
H1980 H 0.9971 0.33149 0.48267 0.0
H1981 H 0.05762 0.21419 0.44438 0.0
H1982 H 0.08444 0.23805 0.4319 0.0
H1983 H 0.03852 0.23774 0.42969 0.0
C1984 C 0.58937 0.22743 0.21507 0.0
C1985 C 0.58617 0.19963 0.20529 0.0
C1986 C 0.56325 0.25292 0.21636 0.0
C1987 C 0.53313 0.25126 0.20753 0.0
C1988 C 0.52975 0.22305 0.19781 0.0
C1989 C 0.55575 0.19784 0.19692 0.0
C1990 C 0.56815 0.28204 0.22704 0.0
C1991 C 0.49891 0.21989 0.1879 0.0
C1992 C 0.44948 0.30291 0.21476 0.0
C1993 C 0.4525 0.33061 0.20492 0.0
C1994 C 0.4759 0.27782 0.21621 0.0
C1995 C 0.50624 0.27984 0.20753 0.0
C1996 C 0.50957 0.3081 0.19781 0.0
C1997 C 0.48315 0.33286 0.19672 0.0
C1998 C 0.471 0.24866 0.22688 0.0
C1999 C 0.54069 0.31166 0.18807 0.0
H2000 H 0.61241 0.22952 0.22163 0.0
H2001 H 0.55236 0.17688 0.18925 0.0
H2002 H 0.57089 0.30657 0.22097 0.0
H2003 H 0.54528 0.28449 0.2342 0.0
H2004 H 0.59119 0.27839 0.23402 0.0
H2005 H 0.49991 0.19652 0.18094 0.0
H2006 H 0.47509 0.21909 0.19453 0.0
H2007 H 0.49723 0.24271 0.18064 0.0
H2008 H 0.42627 0.30051 0.22121 0.0
H2009 H 0.48641 0.35382 0.18903 0.0
H2010 H 0.49389 0.24611 0.234 0.0
H2011 H 0.46816 0.22417 0.22078 0.0
H2012 H 0.448 0.25231 0.23389 0.0
H2013 H 0.56444 0.3109 0.19473 0.0
H2014 H 0.54047 0.33591 0.18165 0.0
H2015 H 0.54177 0.28973 0.18031 0.0
C2016 C 0.57718 0.80521 0.94827 0.0
C2017 C 0.5754 0.83625 0.95629 0.0
C2018 C 0.55158 0.77952 0.94917 0.0
C2019 C 0.52284 0.7839 0.95851 0.0
C2020 C 0.5211 0.81471 0.96696 0.0
C2021 C 0.54705 0.84045 0.96569 0.0
C2022 C 0.55494 0.74792 0.93966 0.0
C2023 C 0.49143 0.82074 0.97723 0.0
C2024 C 0.44128 0.73397 0.94747 0.0
C2025 C 0.44252 0.70384 0.9561 0.0
C2026 C 0.46636 0.76017 0.94846 0.0
C2027 C 0.49394 0.75724 0.95852 0.0
C2028 C 0.49496 0.72743 0.9676 0.0
C2029 C 0.4696 0.70117 0.96623 0.0
C2030 C 0.46383 0.79065 0.93828 0.0
C2031 C 0.52334 0.72293 0.97863 0.0
H2032 H 0.59853 0.80099 0.94089 0.0
H2033 H 0.54492 0.86397 0.97197 0.0
H2034 H 0.55377 0.7244 0.9465 0.0
H2035 H 0.5332 0.74673 0.93184 0.0
H2036 H 0.57926 0.74759 0.93332 0.0
H2037 H 0.49489 0.84431 0.98393 0.0
H2038 H 0.46738 0.82326 0.97085 0.0
H2039 H 0.48827 0.7984 0.98466 0.0
H2040 H 0.42087 0.73696 0.93953 0.0
H2041 H 0.47128 0.67837 0.973 0.0
H2042 H 0.48652 0.79133 0.93095 0.0
H2043 H 0.46381 0.81489 0.94467 0.0
H2044 H 0.44036 0.7899 0.93141 0.0
H2045 H 0.54812 0.7195 0.97283 0.0
H2046 H 0.51903 0.70036 0.98585 0.0
H2047 H 0.52569 0.74629 0.98553 0.0
C2048 C 0.05716 0.32659 0.82529 0.0
C2049 C 0.08806 0.32345 0.81727 0.0
C2050 C 0.03037 0.30213 0.82441 0.0
C2051 C 0.03335 0.27318 0.81506 0.0
C2052 C 0.06408 0.27001 0.80664 0.0
C2053 C 0.09099 0.29479 0.80792 0.0
C2054 C 0.99906 0.30694 0.83395 0.0
C2055 C 0.06867 0.24012 0.79633 0.0
C2056 C 0.98022 0.19349 0.82612 0.0
C2057 C 0.95001 0.196 0.81761 0.0
C2058 C 1.00733 0.21758 0.8251 0.0
C2059 C 1.00543 0.2454 0.8151 0.0
C2060 C 0.97552 0.24775 0.80614 0.0
C2061 C 0.94826 0.22342 0.80757 0.0
C2062 C 0.03773 0.2137 0.83521 0.0
C2063 C 0.97208 0.27641 0.79514 0.0
H2064 H 0.05389 0.34814 0.83267 0.0
H2065 H 0.1143 0.29165 0.8016 0.0
H2066 H 0.97557 0.30715 0.82712 0.0
H2067 H 0.99675 0.2851 0.8417 0.0
H2068 H 0.99999 0.33118 0.84038 0.0
H2069 H 0.09221 0.24264 0.78956 0.0
H2070 H 0.07025 0.21589 0.80268 0.0
H2071 H 0.04615 0.23796 0.78896 0.0
H2072 H 0.98261 0.17282 0.834 0.0
H2073 H 0.92549 0.22607 0.80087 0.0
H2074 H 0.03989 0.23665 0.84236 0.0
H2075 H 0.06173 0.21199 0.82873 0.0
H2076 H 0.03576 0.19055 0.84228 0.0
H2077 H 0.96984 0.30134 0.80094 0.0
H2078 H 0.94928 0.2731 0.78799 0.0
H2079 H 0.99536 0.27775 0.78816 0.0
C2080 C 0.45219 0.30887 0.57346 0.0
C2081 C 0.45558 0.34099 0.56633 0.0
C2082 C 0.47752 0.28286 0.57263 0.0
C2083 C 0.50772 0.2879 0.56422 0.0
C2084 C 0.5112 0.31989 0.55669 0.0
C2085 C 0.48549 0.34596 0.55792 0.0
C2086 C 0.47221 0.2501 0.58122 0.0
C2087 C 0.54241 0.32676 0.5474 0.0
C2088 C 0.58728 0.23493 0.57574 0.0
C2089 C 0.58689 0.20614 0.56629 0.0
C2090 C 0.56249 0.26151 0.57497 0.0
C2091 C 0.53616 0.26056 0.56424 0.0
C2092 C 0.53594 0.23205 0.55439 0.0
C2093 C 0.56085 0.20526 0.5556 0.0
C2094 C 0.56405 0.29034 0.58601 0.0
C2095 C 0.50899 0.22962 0.54261 0.0
H2096 H 0.42969 0.30401 0.58012 0.0
H2097 H 0.48893 0.37024 0.55231 0.0
H2098 H 0.47352 0.22758 0.57379 0.0
H2099 H 0.49297 0.24715 0.58943 0.0
H2100 H 0.44718 0.24959 0.58704 0.0
H2101 H 0.54024 0.35119 0.54118 0.0
H2102 H 0.56548 0.32812 0.55447 0.0
H2103 H 0.54641 0.30535 0.53955 0.0
H2104 H 0.60677 0.23651 0.58417 0.0
H2105 H 0.5598 0.18356 0.54818 0.0
H2106 H 0.53978 0.29139 0.59235 0.0
H2107 H 0.56691 0.31531 0.5803 0.0
H2108 H 0.58566 0.28733 0.59382 0.0
H2109 H 0.48341 0.22604 0.54771 0.0
H2110 H 0.51379 0.20792 0.53498 0.0
H2111 H 0.50808 0.25388 0.53624 0.0
C2112 C 0.57643 0.80016 0.30498 0.0
C2113 C 0.57383 0.82827 0.31464 0.0
C2114 C 0.54994 0.77492 0.3039 0.0
C2115 C 0.51985 0.77719 0.31276 0.0
C2116 C 0.51698 0.8058 0.32232 0.0
C2117 C 0.54347 0.83065 0.32306 0.0
C2118 C 0.55445 0.74536 0.29342 0.0
C2119 C 0.48626 0.8097 0.33227 0.0
C2120 C 0.43623 0.72455 0.30584 0.0
C2121 C 0.43973 0.69669 0.31557 0.0
C2122 C 0.46232 0.75012 0.30439 0.0
C2123 C 0.49272 0.74865 0.31307 0.0
C2124 C 0.49617 0.72064 0.3229 0.0
C2125 C 0.47024 0.69525 0.32389 0.0
C2126 C 0.4572 0.77901 0.29362 0.0
C2127 C 0.52716 0.71771 0.33273 0.0
H2128 H 0.59937 0.79757 0.29837 0.0
H2129 H 0.54044 0.85188 0.33063 0.0
H2130 H 0.55735 0.7211 0.29967 0.0
H2131 H 0.53135 0.74261 0.28642 0.0
H2132 H 0.57727 0.74868 0.28627 0.0
H2133 H 0.48682 0.8341 0.33858 0.0
H2134 H 0.46226 0.80887 0.32577 0.0
H2135 H 0.48536 0.78796 0.34013 0.0
H2136 H 0.41313 0.72639 0.2993 0.0
H2137 H 0.47377 0.67439 0.3316 0.0
H2138 H 0.47975 0.78102 0.28625 0.0
H2139 H 0.45503 0.80373 0.29959 0.0
H2140 H 0.4338 0.77541 0.28686 0.0
H2141 H 0.55063 0.71485 0.32598 0.0
H2142 H 0.52536 0.69549 0.34031 0.0
H2143 H 0.53016 0.74144 0.33934 0.0
C2144 C 0.98266 0.83708 0.05882 0.0
C2145 C 0.95385 0.83466 0.06808 0.0
C2146 C 1.00717 0.80991 0.05777 0.0
C2147 C 1.00363 0.77951 0.06639 0.0
C2148 C 0.97468 0.77716 0.07576 0.0
C2149 C 0.95038 0.80415 0.07635 0.0
C2150 C 0.03708 0.81383 0.04744 0.0
C2151 C 0.96962 0.74628 0.08553 0.0
C2152 C 0.05238 0.6938 0.05887 0.0
C2153 C 0.0803 0.69572 0.06862 0.0
C2154 C 0.0281 0.72111 0.05761 0.0
C2155 C 0.03094 0.75117 0.06649 0.0
C2156 C 0.05903 0.75304 0.07633 0.0
C2157 C 0.08314 0.72592 0.07714 0.0
C2158 C 0.99914 0.71767 0.04679 0.0
C2159 C 0.06329 0.78355 0.08639 0.0
H2160 H 0.98601 0.86013 0.05231 0.0
H2161 H 0.92871 0.80143 0.08369 0.0
H2162 H 0.06129 0.81508 0.05378 0.0
H2163 H 0.0388 0.79112 0.04013 0.0
H2164 H 0.03501 0.83736 0.04061 0.0
H2165 H 0.94644 0.74861 0.09253 0.0
H2166 H 0.96721 0.72272 0.07878 0.0
H2167 H 0.99226 0.74287 0.09274 0.0
H2168 H 0.04954 0.67101 0.05216 0.0
H2169 H 0.10413 0.72825 0.08485 0.0
H2170 H 0.99808 0.74071 0.03964 0.0
H2171 H 0.97438 0.71616 0.05273 0.0
H2172 H 1.00182 0.69446 0.0398 0.0
H2173 H 0.06621 0.80737 0.07985 0.0
H2174 H 0.0859 0.78095 0.09369 0.0
H2175 H 0.04007 0.78666 0.0933 0.0
C2176 C 0.21368 0.20894 0.273 0.0
C2177 C 0.23832 0.19658 0.28287 0.0
C2178 C 0.22203 0.23391 0.26242 0.0
C2179 C 0.25623 0.24589 0.26123 0.0
C2180 C 0.28149 0.23255 0.27088 0.0
C2181 C 0.27206 0.20866 0.28179 0.0
C2182 C 0.19397 0.24825 0.25282 0.0
C2183 C 0.31848 0.24354 0.26968 0.0
C2184 C 0.28316 0.28703 0.22498 0.0
C2185 C 0.28552 0.3219 0.22873 0.0
C2186 C 0.27391 0.26209 0.23544 0.0
C2187 C 0.26553 0.27231 0.24992 0.0
C2188 C 0.26642 0.30776 0.25357 0.0
C2189 C 0.27712 0.33202 0.24303 0.0
C2190 C 0.27448 0.22464 0.23114 0.0
C2191 C 0.25645 0.32004 0.26867 0.0
H2192 H 0.1874 0.20015 0.27396 0.0
H2193 H 0.29111 0.19927 0.28944 0.0
H2194 H 0.19246 0.27653 0.25423 0.0
H2195 H 0.19986 0.24329 0.24112 0.0
H2196 H 0.1685 0.23697 0.25538 0.0
H2197 H 0.33537 0.22902 0.27727 0.0
H2198 H 0.3278 0.23971 0.2583 0.0
H2199 H 0.32083 0.2713 0.27219 0.0
H2200 H 0.29024 0.27897 0.21402 0.0
H2201 H 0.27912 0.35892 0.246 0.0
H2202 H 0.24892 0.21291 0.23292 0.0
H2203 H 0.29294 0.21055 0.23817 0.0
H2204 H 0.28188 0.22086 0.21949 0.0
H2205 H 0.23088 0.30972 0.2717 0.0
H2206 H 0.25568 0.34852 0.2694 0.0
H2207 H 0.27506 0.31035 0.27686 0.0
C2208 C 0.98803 0.05233 0.47921 0.0
C2209 C 0.95386 0.04098 0.47965 0.0
C2210 C 1.01171 0.04313 0.49011 0.0
C2211 C 1.00147 0.02108 0.50164 0.0
C2212 C 0.96697 1.00932 0.50214 0.0
C2213 C 0.94342 0.01983 0.49125 0.0
C2214 C 0.0478 0.05708 0.48926 0.0
C2215 C 0.95513 0.98518 0.51404 0.0
C2216 C 0.07352 0.97037 0.51987 0.0
C2217 C 0.07783 0.98771 0.53323 0.0
C2218 C 0.04837 0.9805 0.50972 0.0
C2219 C 0.0274 1.00936 0.51274 0.0
C2220 C 0.03229 0.02762 0.52604 0.0
C2221 C 0.0571 0.0163 0.53622 0.0
C2222 C 0.04387 0.95989 0.49583 0.0
C2223 C 1.01129 0.05913 0.52953 0.0
H2224 H 0.99625 0.0691 0.47039 0.0
H2225 H 0.91705 1.01111 0.49169 0.0
H2226 H 0.05464 0.07 0.49969 0.0
H2227 H 0.06621 0.0357 0.48765 0.0
H2228 H 0.0511 0.07571 0.48014 0.0
H2229 H 0.92759 0.9784 0.51295 0.0
H2230 H 0.97052 0.96122 0.51369 0.0
H2231 H 0.95928 0.99702 0.52495 0.0
H2232 H 0.08912 0.94798 0.51754 0.0
H2233 H 0.06012 0.02968 0.54655 0.0
H2234 H 0.04908 0.97629 0.48614 0.0
H2235 H 0.01698 0.95083 0.49494 0.0
H2236 H 0.06117 0.93726 0.49539 0.0
H2237 H 1.01443 0.0785 0.52071 0.0
H2238 H 0.01873 0.07098 0.54014 0.0
H2239 H 0.9837 0.05232 0.53 0.0
C2240 C 0.27566 0.83289 0.77821 0.0
C2241 C 0.29658 0.82274 0.78991 0.0
C2242 C 0.26509 0.80894 0.76747 0.0
C2243 C 0.27651 0.77431 0.76824 0.0
C2244 C 0.29825 0.76432 0.77989 0.0
C2245 C 0.30757 0.78843 0.79062 0.0
C2246 C 0.24128 0.82051 0.75543 0.0
C2247 C 0.31178 0.72806 0.78104 0.0
C2248 C 0.22578 0.70183 0.75025 0.0
C2249 C 0.2434 0.69694 0.737 0.0
C2250 C 0.23584 0.72732 0.7603 0.0
C2251 C 0.26488 0.74802 0.75727 0.0
C2252 C 0.28342 0.74252 0.74409 0.0
C2253 C 0.27219 0.71737 0.73402 0.0
C2254 C 0.21496 0.73247 0.77407 0.0
C2255 C 0.31508 0.76325 0.7406 0.0
H2256 H 0.2672 0.85937 0.77757 0.0
H2257 H 0.32412 0.78041 0.79953 0.0
H2258 H 0.25325 0.81589 0.74459 0.0
H2259 H 0.21726 0.80525 0.75582 0.0
H2260 H 0.23469 0.84819 0.75633 0.0
H2261 H 0.33007 0.72491 0.79026 0.0
H2262 H 0.29022 0.70986 0.78264 0.0
H2263 H 0.32491 0.72072 0.77071 0.0
H2264 H 0.20323 0.68647 0.75257 0.0
H2265 H 0.28577 0.7139 0.72376 0.0
H2266 H 0.20604 0.7595 0.77473 0.0
H2267 H 0.23106 0.72759 0.78386 0.0
H2268 H 0.19227 0.71525 0.77453 0.0
H2269 H 0.30849 0.79091 0.73994 0.0
H2270 H 0.32712 0.75534 0.73009 0.0
H2271 H 0.33418 0.76031 0.74952 0.0
C2272 C 0.44999 0.05933 0.02584 0.0
C2273 C 0.44766 0.04386 0.03969 0.0
C2274 C 0.47505 0.04916 0.01561 0.0
C2275 C 0.49791 0.02206 0.01909 0.0
C2276 C 0.49515 1.00578 0.03296 0.0
C2277 C 0.47044 0.01723 0.04318 0.0
C2278 C 0.47732 0.06777 1.00113 0.0
C2279 C 0.51816 0.9761 0.03698 0.0
C2280 C 0.53616 0.97584 0.98608 0.0
C2281 C 0.56972 0.98886 0.98552 0.0
C2282 C 0.51315 0.98553 0.99719 0.0
C2283 C 0.52337 1.00981 1.00788 0.0
C2284 C 0.55729 0.02318 1.00738 0.0
C2285 C 0.58027 1.0121 0.99635 0.0
C2286 C 0.47776 0.96976 0.99743 0.0
C2287 C 0.56902 0.04974 0.01832 0.0
H2288 H 0.43283 0.08028 0.02312 0.0
H2289 H 0.46893 1.00533 0.0539 0.0
H2290 H 0.50368 0.07779 0.99947 0.0
H2291 H 0.47191 0.04972 0.99202 0.0
H2292 H 0.459 0.08955 1.00042 0.0
H2293 H 0.51248 0.96581 0.04807 0.0
H2294 H 0.51513 0.95508 0.02887 0.0
H2295 H 0.54537 0.98432 0.03663 0.0
H2296 H 0.52791 0.95747 0.97787 0.0
H2297 H 0.60616 0.02218 0.99599 0.0
H2298 H 0.4582 0.98989 0.99545 0.0
H2299 H 0.47244 0.95849 1.00837 0.0
H2300 H 0.47465 0.94938 0.98901 0.0
H2301 H 0.55257 0.07291 0.01749 0.0
H2302 H 0.59613 0.05746 0.01656 0.0
H2303 H 0.56628 0.03965 0.02962 0.0
C2304 C 0.31634 0.70834 0.27394 0.0
C2305 C 0.29169 0.695 0.28361 0.0
C2306 C 0.30813 0.73452 0.26387 0.0
C2307 C 0.27404 0.74696 0.26298 0.0
C2308 C 0.24881 0.73287 0.27247 0.0
C2309 C 0.25808 0.70763 0.28287 0.0
C2310 C 0.3362 0.7494 0.25439 0.0
C2311 C 0.21193 0.74435 0.27161 0.0
C2312 C 0.25432 0.83435 0.24534 0.0
C2313 C 0.24588 0.82493 0.23096 0.0
C2314 C 0.2644 0.80945 0.25576 0.0
C2315 C 0.26474 0.77409 0.2519 0.0
C2316 C 0.25616 0.76458 0.23736 0.0
C2317 C 0.24746 0.79007 0.22706 0.0
C2318 C 0.27449 0.82099 0.27094 0.0
C2319 C 0.25509 0.72732 0.23279 0.0
H2320 H 0.34253 0.69917 0.27461 0.0
H2321 H 0.23898 0.69756 0.29036 0.0
H2322 H 0.33041 0.74479 0.24266 0.0
H2323 H 0.33757 0.77764 0.25598 0.0
H2324 H 0.3617 0.73817 0.2569 0.0
H2325 H 0.19511 0.72982 0.27923 0.0
H2326 H 0.21002 0.77208 0.27427 0.0
H2327 H 0.2022 0.74096 0.26027 0.0
H2328 H 0.25294 0.86118 0.24846 0.0
H2329 H 0.24044 0.78245 0.21603 0.0
H2330 H 0.30013 0.81062 0.27378 0.0
H2331 H 0.25604 0.81077 0.2791 0.0
H2332 H 0.27519 0.84943 0.27194 0.0
H2333 H 0.28068 0.71541 0.23421 0.0
H2334 H 0.2471 0.72407 0.22119 0.0
H2335 H 0.23692 0.71301 0.23989 0.0
C2336 C 0.58595 0.03088 0.52758 0.0
C2337 C 0.57682 0.03799 0.54213 0.0
C2338 C 0.5613 0.01966 0.51732 0.0
C2339 C 0.52636 0.01684 0.52153 0.0
C2340 C 0.51713 0.02396 0.53626 0.0
C2341 C 0.54251 0.03381 0.5464 0.0
C2342 C 0.57263 1.01115 0.50193 0.0
C2343 C 0.4802 0.02242 0.54118 0.0
C2344 C 0.45964 0.02161 0.49076 0.0
C2345 C 0.44938 0.98724 0.48948 0.0
C2346 C 0.48391 0.03176 0.50139 0.0
C2347 C 0.49944 1.00672 0.51055 0.0
C2348 C 0.48922 0.97191 0.50919 0.0
C2349 C 0.46392 0.96276 0.49889 0.0
C2350 C 0.49302 0.0693 0.50278 0.0
C2351 C 0.5058 0.94411 0.51828 0.0
H2352 H 0.61239 0.03426 0.5242 0.0
H2353 H 0.53515 0.03986 0.55757 0.0
H2354 H 0.56347 0.98515 0.49884 0.0
H2355 H 0.56117 0.02963 0.4941 0.0
H2356 H 0.60096 1.012 0.5007 0.0
H2357 H 0.47714 0.02907 0.55294 0.0
H2358 H 0.4646 0.04051 0.53456 0.0
H2359 H 0.46964 0.99632 0.53936 0.0
H2360 H 0.4486 0.0406 0.48347 0.0
H2361 H 0.45655 0.93602 0.49779 0.0
H2362 H 0.52032 0.07325 0.49985 0.0
H2363 H 0.48974 0.07782 0.5143 0.0
H2364 H 0.477 0.08581 0.4956 0.0
H2365 H 0.53391 0.94414 0.51639 0.0
H2366 H 0.49563 0.91817 0.51566 0.0
H2367 H 0.5016 0.94917 0.5301 0.0
C2368 C 0.29407 0.23924 0.7274 0.0
C2369 C 0.28626 0.20416 0.7288 0.0
C2370 C 0.28479 0.26316 0.73824 0.0
C2371 C 0.2664 0.25209 0.75077 0.0
C2372 C 0.2578 0.21674 0.75214 0.0
C2373 C 0.26822 0.19311 0.74123 0.0
C2374 C 0.29526 0.30027 0.73639 0.0
C2375 C 0.23761 0.20391 0.76514 0.0
C2376 C 0.26857 0.30868 0.78511 0.0
C2377 C 0.23815 0.32759 0.78375 0.0
C2378 C 0.27813 0.28416 0.77447 0.0
C2379 C 0.25633 0.27769 0.76234 0.0
C2380 C 0.22553 0.29675 0.76096 0.0
C2381 C 0.21704 0.32167 0.77156 0.0
C2382 C 0.31161 0.26521 0.77622 0.0
C2383 C 0.20123 0.29046 0.74838 0.0
H2384 H 0.30831 0.24803 0.71791 0.0
H2385 H 0.26222 0.16606 0.74242 0.0
H2386 H 0.27222 0.31693 0.73616 0.0
H2387 H 0.31107 0.30852 0.74587 0.0
H2388 H 0.31015 0.30463 0.72618 0.0
H2389 H 0.23187 0.17601 0.76436 0.0
H2390 H 0.25216 0.20867 0.77537 0.0
H2391 H 0.2131 0.21822 0.76602 0.0
H2392 H 0.28489 0.31298 0.79454 0.0
H2393 H 0.19325 0.33584 0.77053 0.0
H2394 H 0.32799 0.26946 0.76644 0.0
H2395 H 0.3068 0.23719 0.77701 0.0
H2396 H 0.32596 0.27355 0.78611 0.0
H2397 H 0.21418 0.29618 0.73783 0.0
H2398 H 0.17771 0.30644 0.74915 0.0
H2399 H 0.19363 0.26299 0.74812 0.0
C2400 C 0.03736 0.05212 0.9798 0.0
C2401 C 0.07264 0.04548 0.98084 0.0
C2402 C 1.01441 0.04148 0.99078 0.0
C2403 C 0.02674 0.02281 1.003 0.0
C2404 C 0.06232 1.01541 1.00399 0.0
C2405 C 0.08493 0.02727 0.993 0.0
C2406 C 0.97695 0.05074 0.9894 0.0
C2407 C 0.07646 0.99485 0.01662 0.0
C2408 C 0.97225 0.01995 0.03789 0.0
C2409 C 0.95436 0.98898 0.03616 0.0
C2410 C 0.99569 0.03139 0.02717 0.0
C2411 C 1.00221 1.01088 0.01462 0.0
C2412 C 0.98434 0.97941 0.01292 0.0
C2413 C 0.96034 0.96913 0.02358 0.0
C2414 C 1.01334 0.06556 0.02924 0.0
C2415 C 0.99092 0.95633 0.99992 0.0
H2416 H 0.02769 0.06652 0.97052 0.0
H2417 H 0.11216 0.02215 0.99387 0.0
H2418 H 0.96115 0.02708 0.98891 0.0
H2419 H 0.96857 0.06544 0.99919 0.0
H2420 H 0.97163 0.06635 0.97947 0.0
H2421 H 0.10445 0.99025 0.01555 0.0
H2422 H 0.07162 1.00852 0.02708 0.0
H2423 H 0.06317 0.96968 0.0173 0.0
H2424 H 0.9678 0.03532 0.04761 0.0
H2425 H 0.94691 0.94493 0.02226 0.0
H2426 H 1.00792 0.08252 0.01975 0.0
H2427 H 0.0415 0.06186 0.0297 0.0
H2428 H 1.00497 0.0788 0.03942 0.0
H2429 H 0.98396 0.96981 0.98964 0.0
H2430 H 0.9761 0.932 1.00053 0.0
H2431 H 0.01861 0.95003 0.99924 0.0
C2432 C 0.70823 0.7157 0.77347 0.0
C2433 C 0.73277 0.70034 0.78259 0.0
C2434 C 0.71732 0.74161 0.76343 0.0
C2435 C 0.7521 0.75159 0.76201 0.0
C2436 C 0.77718 0.73536 0.7709 0.0
C2437 C 0.76711 0.71049 0.78131 0.0
C2438 C 0.68951 0.75895 0.75463 0.0
C2439 C 0.81468 0.74421 0.76941 0.0
C2440 C 0.77849 0.79532 0.72623 0.0
C2441 C 0.78322 0.82954 0.73063 0.0
C2442 C 0.76871 0.76976 0.73632 0.0
C2443 C 0.7622 0.77874 0.75112 0.0
C2444 C 0.76554 0.81361 0.75547 0.0
C2445 C 0.77671 0.83843 0.74525 0.0
C2446 C 0.76661 0.73289 0.73125 0.0
C2447 C 0.75765 0.82466 0.77096 0.0
H2448 H 0.68153 0.70839 0.7746 0.0
H2449 H 0.78612 0.69879 0.78838 0.0
H2450 H 0.69015 0.78708 0.7566 0.0
H2451 H 0.69396 0.75485 0.74276 0.0
H2452 H 0.66355 0.7492 0.75743 0.0
H2453 H 0.83117 0.72787 0.77646 0.0
H2454 H 0.82293 0.74108 0.75784 0.0
H2455 H 0.81892 0.77148 0.77241 0.0
H2456 H 0.78408 0.78813 0.715 0.0
H2457 H 0.78054 0.8648 0.74872 0.0
H2458 H 0.74047 0.72261 0.73312 0.0
H2459 H 0.78458 0.71686 0.73774 0.0
H2460 H 0.77298 0.73003 0.71945 0.0
H2461 H 0.73171 0.81565 0.77417 0.0
H2462 H 0.75881 0.853 0.7723 0.0
H2463 H 0.77622 0.81279 0.77862 0.0
C2464 C 0.76622 0.31204 0.29109 0.0
C2465 C 0.79417 0.33346 0.28789 0.0
C2466 C 0.75473 0.28724 0.28091 0.0
C2467 C 0.77216 0.28306 0.26736 0.0
C2468 C 0.80047 0.30463 0.26415 0.0
C2469 C 0.81079 0.32974 0.27433 0.0
C2470 C 0.72384 0.26559 0.28463 0.0
C2471 C 0.82022 0.30091 0.25 0.0
C2472 C 0.76117 0.19981 0.2452 0.0
C2473 C 0.73919 0.21058 0.23397 0.0
C2474 C 0.77209 0.22299 0.2562 0.0
C2475 C 0.75997 0.25744 0.25618 0.0
C2476 C 0.73706 0.26798 0.24504 0.0
C2477 C 0.7274 0.24467 0.23402 0.0
C2478 C 0.79711 0.21084 0.26767 0.0
C2479 C 0.72274 0.30402 0.24469 0.0
H2480 H 0.75341 0.31461 0.30157 0.0
H2481 H 0.8327 0.34585 0.27183 0.0
H2482 H 0.70377 0.26902 0.27614 0.0
H2483 H 0.73095 0.23801 0.28467 0.0
H2484 H 0.71279 0.27226 0.29548 0.0
H2485 H 0.84266 0.31845 0.24946 0.0
H2486 H 0.82938 0.27407 0.24877 0.0
H2487 H 0.80323 0.30644 0.24055 0.0
H2488 H 0.77029 0.17351 0.24525 0.0
H2489 H 0.71004 0.25316 0.22549 0.0
H2490 H 0.78611 0.21452 0.27877 0.0
H2491 H 0.8209 0.22643 0.26709 0.0
H2492 H 0.80394 0.18333 0.26629 0.0
H2493 H 0.71058 0.31028 0.25535 0.0
H2494 H 0.70345 0.30751 0.23586 0.0
H2495 H 0.74378 0.32275 0.24294 0.0
C2496 C 0.76515 0.30769 0.73141 0.0
C2497 C 0.73643 0.32813 0.73447 0.0
C2498 C 0.77737 0.28352 0.7417 0.0
C2499 C 0.75997 0.27906 0.75524 0.0
C2500 C 0.73095 0.29971 0.75833 0.0
C2501 C 0.71984 0.32417 0.74803 0.0
C2502 C 0.80893 0.26278 0.7381 0.0
C2503 C 0.71127 0.29569 0.77249 0.0
C2504 C 0.77301 0.19662 0.77767 0.0
C2505 C 0.7947 0.20819 0.78888 0.0
C2506 C 0.76157 0.21927 0.76659 0.0
C2507 C 0.77281 0.25402 0.7665 0.0
C2508 C 0.79536 0.26541 0.77763 0.0
C2509 C 0.80561 0.24257 0.78872 0.0
C2510 C 0.73699 0.20621 0.75512 0.0
C2511 C 0.80866 0.30186 0.77789 0.0
H2512 H 0.77796 0.31045 0.72093 0.0
H2513 H 0.69739 0.33957 0.75044 0.0
H2514 H 0.82882 0.26698 0.7466 0.0
H2515 H 0.80265 0.23499 0.73813 0.0
H2516 H 0.81987 0.2696 0.72723 0.0
H2517 H 0.68838 0.31262 0.77297 0.0
H2518 H 0.70281 0.26864 0.77379 0.0
H2519 H 0.72809 0.30183 0.78193 0.0
H2520 H 0.76459 0.17009 0.7777 0.0
H2521 H 0.82272 0.25167 0.79723 0.0
H2522 H 0.74797 0.21003 0.74402 0.0
H2523 H 0.71277 0.2211 0.75562 0.0
H2524 H 0.73093 0.17853 0.75657 0.0
H2525 H 0.82081 0.30824 0.76723 0.0
H2526 H 0.82771 0.3061 0.78675 0.0
H2527 H 0.78708 0.32001 0.7795 0.0
C2528 C 0.76658 0.81619 0.28423 0.0
C2529 C 0.73337 0.82979 0.28347 0.0
C2530 C 0.77816 0.79198 0.27379 0.0
C2531 C 0.7555 0.77998 0.26273 0.0
C2532 C 0.72179 0.79342 0.26211 0.0
C2533 C 0.71144 0.81855 0.27226 0.0
C2534 C 0.81468 0.7794 0.27455 0.0
C2535 C 0.69633 0.78074 0.25088 0.0
C2536 C 0.78882 0.74091 0.22708 0.0
C2537 C 0.78751 0.70552 0.22998 0.0
C2538 C 0.77941 0.76526 0.23775 0.0
C2539 C 0.76706 0.7541 0.25155 0.0
C2540 C 0.76483 0.71829 0.25442 0.0
C2541 C 0.77576 0.69445 0.24371 0.0
C2542 C 0.78337 0.80301 0.23432 0.0
C2543 C 0.75067 0.70515 0.26875 0.0
H2544 H 0.78356 0.82466 0.2929 0.0
H2545 H 0.68551 0.8285 0.27175 0.0
H2546 H 0.81508 0.75133 0.2766 0.0
H2547 H 0.8277 0.78389 0.2639 0.0
H2548 H 0.82954 0.79239 0.28333 0.0
H2549 H 0.67056 0.79237 0.25236 0.0
H2550 H 0.70554 0.78682 0.23968 0.0
H2551 H 0.69385 0.75239 0.25163 0.0
H2552 H 0.79848 0.74971 0.21659 0.0
H2553 H 0.77495 0.66716 0.24605 0.0
H2554 H 0.79955 0.81552 0.24278 0.0
H2555 H 0.758 0.81582 0.23457 0.0
H2556 H 0.79517 0.80747 0.2234 0.0
H2557 H 0.76697 0.71401 0.27795 0.0
H2558 H 0.74926 0.67665 0.26906 0.0
H2559 H 0.72459 0.71571 0.27059 0.0
C2560 C 0.57968 0.51169 0.0262 0.0
C2561 C 0.5692 0.49094 0.03793 0.0
C2562 C 0.55616 0.52172 0.01522 0.0
C2563 C 0.52172 0.50981 0.01575 0.0
C2564 C 0.51149 0.48807 0.02739 0.0
C2565 C 0.5351 0.47939 0.03838 0.0
C2566 C 0.56795 0.5456 1.00321 0.0
C2567 C 0.47546 0.47395 0.02828 0.0
C2568 C 0.44919 0.55961 0.99749 0.0
C2569 C 0.44483 0.54191 0.98421 0.0
C2570 C 0.47461 0.54995 1.0076 0.0
C2571 C 0.49576 0.5212 1.00463 0.0
C2572 C 0.49086 0.50261 0.99141 0.0
C2573 C 0.46581 0.5135 0.98126 0.0
C2574 C 0.47915 0.57093 0.02138 0.0
C2575 C 0.51205 0.47119 0.988 0.0
H2576 H 0.606 0.52055 0.02576 0.0
H2577 H 0.52688 0.46291 0.0473 0.0
H2578 H 0.56371 0.53357 0.99235 0.0
H2579 H 0.55259 0.56958 1.00351 0.0
H2580 H 0.59551 0.55238 1.00425 0.0
H2581 H 0.47228 0.45537 0.03742 0.0
H2582 H 0.45698 0.49527 0.02987 0.0
H2583 H 0.46864 0.46094 0.01786 0.0
H2584 H 0.43342 0.58189 0.99978 0.0
H2585 H 0.46274 0.49987 0.97099 0.0
H2586 H 0.50606 0.57999 0.02223 0.0
H2587 H 0.47393 0.55478 0.03115 0.0
H2588 H 0.46187 0.59359 0.02172 0.0
H2589 H 0.5396 0.47814 0.98753 0.0
H2590 H 0.50469 0.45915 0.97743 0.0
H2591 H 0.509 0.45192 0.99687 0.0
C2592 C 0.95502 0.50565 0.53217 0.0
C2593 C 0.94421 0.53983 0.53348 0.0
C2594 C 0.97976 0.49607 0.52162 0.0
C2595 C 0.99521 0.52153 0.51262 0.0
C2596 C 0.98455 0.55616 0.51408 0.0
C2597 C 0.95876 0.56473 0.52425 0.0
C2598 C 0.98934 0.45869 0.52011 0.0
C2599 C 1.00106 0.58439 0.50519 0.0
C2600 C 0.08211 0.49865 0.49559 0.0
C2601 C 0.07318 0.49188 0.481 0.0
C2602 C 0.05727 0.50938 0.50587 0.0
C2603 C 0.02235 0.51198 0.50164 0.0
C2604 C 1.01332 0.50521 0.48687 0.0
C2605 C 0.03888 0.4959 0.4767 0.0
C2606 C 0.06838 0.5176 0.52131 0.0
C2607 C 0.97643 0.50651 0.48191 0.0
H2608 H 0.94396 0.48637 0.53932 0.0
H2609 H 0.95097 0.59132 0.5254 0.0
H2610 H 0.98626 0.45036 0.50855 0.0
H2611 H 0.01666 0.45503 0.52305 0.0
H2612 H 0.97346 0.44182 0.52721 0.0
H2613 H 0.99083 0.61019 0.50801 0.0
H2614 H 0.02918 0.5844 0.50704 0.0
H2615 H 0.99685 0.5798 0.49333 0.0
H2616 H 0.10854 0.49537 0.49898 0.0
H2617 H 0.03168 0.4901 0.4655 0.0
H2618 H 0.05709 0.49874 0.52904 0.0
H2619 H 0.05886 0.54339 0.52454 0.0
H2620 H 0.0967 0.5171 0.52256 0.0
H2621 H 0.9609 0.48816 0.48844 0.0
H2622 H 0.97354 0.50008 0.47012 0.0
H2623 H 0.96565 0.53248 0.48381 0.0
C2624 C 0.07174 0.56322 0.02383 0.0
C2625 C 0.07708 0.54311 0.03637 0.0
C2626 C 0.04688 0.55418 0.01333 0.0
C2627 C 0.02736 0.52375 0.01518 0.0
C2628 C 0.03314 0.503 0.02772 0.0
C2629 C 0.05757 0.51317 0.03825 0.0
C2630 C 0.04127 0.57741 1.0003 0.0
C2631 C 1.01369 0.46989 0.02997 0.0
C2632 C 0.94391 0.51087 0.9936 0.0
C2633 C 0.95541 0.49176 0.98154 0.0
C2634 C 0.96703 0.5219 1.00456 0.0
C2635 C 1.00225 0.5128 1.00363 0.0
C2636 C 1.01372 0.49321 0.99151 0.0
C2637 C 0.99035 0.48338 0.98059 0.0
C2638 C 0.95384 0.54341 0.0171 0.0
C2639 C 0.05071 0.48215 0.99016 0.0
H2640 H 0.0864 0.58665 0.0224 0.0
H2641 H 0.06147 0.49763 0.04797 0.0
H2642 H 0.0475 0.5635 0.99003 0.0
H2643 H 1.0139 0.58501 0.99967 0.0
H2644 H 0.05724 0.60101 1.00083 0.0
H2645 H 0.0213 0.45652 0.04021 0.0
H2646 H 0.98576 0.47509 0.03039 0.0
H2647 H 0.01826 0.45239 0.02056 0.0
H2648 H 0.91695 0.51732 0.99442 0.0
H2649 H 0.99943 0.46829 0.97138 0.0
H2650 H 0.96824 0.56797 0.01764 0.0
H2651 H 0.95811 0.52982 0.02762 0.0
H2652 H 0.92608 0.54921 0.01604 0.0
H2653 H 0.0676 0.50503 0.98956 0.0
H2654 H 0.05532 0.46604 0.98031 0.0
H2655 H 0.05838 0.46733 1.00002 0.0
C2656 C 0.459 0.5227 0.53196 0.0
C2657 C 0.44795 0.48856 0.53323 0.0
C2658 C 0.48348 0.53232 0.5213 0.0
C2659 C 0.49841 0.50695 0.51209 0.0
C2660 C 0.48747 0.47238 0.51349 0.0
C2661 C 0.46198 0.46378 0.5238 0.0
C2662 C 0.49335 0.56965 0.51988 0.0
C2663 C 0.50339 0.44422 0.50436 0.0
C2664 C 0.54143 0.53274 0.47601 0.0
C2665 C 0.57593 0.53614 0.48012 0.0
C2666 C 0.51602 0.52365 0.4863 0.0
C2667 C 0.52535 0.5165 0.501 0.0
C2668 C 0.56044 0.51856 0.50505 0.0
C2669 C 0.58515 0.52905 0.49465 0.0
C2670 C 0.47897 0.52292 0.48153 0.0
C2671 C 0.57187 0.50996 0.52041 0.0
H2672 H 0.44836 0.54192 0.53926 0.0
H2673 H 0.454 0.43721 0.52489 0.0
H2674 H 0.5208 0.57302 0.52268 0.0
H2675 H 0.48999 0.57826 0.50838 0.0
H2676 H 0.47785 0.58649 0.52714 0.0
H2677 H 0.49289 0.41847 0.50709 0.0
H2678 H 0.49897 0.44922 0.49256 0.0
H2679 H 0.53155 0.44382 0.5061 0.0
H2680 H 0.53399 0.53879 0.46486 0.0
H2681 H 0.61173 0.53185 0.49791 0.0
H2682 H 0.46387 0.54128 0.48824 0.0
H2683 H 0.46792 0.49703 0.48336 0.0
H2684 H 0.47582 0.5297 0.46979 0.0
H2685 H 0.56089 0.52871 0.52826 0.0
H2686 H 0.60023 0.51028 0.52152 0.0
H2687 H 0.56227 0.48416 0.52357 0.0
C2688 C 0.22469 0.04718 0.36473 0.0
C2689 C 0.23827 0.07213 0.35505 0.0
C2690 C 0.24375 0.03295 0.37651 0.0
C2691 C 0.27803 0.04348 0.37922 0.0
C2692 C 0.29226 0.06844 0.36945 0.0
C2693 C 0.27246 0.08233 0.3576 0.0
C2694 C 0.22688 1.00633 0.38615 0.0
C2695 C 0.32844 0.08094 0.37167 0.0
C2696 C 0.31514 0.01932 0.4179 0.0
C2697 C 0.33186 0.98785 0.41515 0.0
C2698 C 0.29876 0.03839 0.40638 0.0
C2699 C 0.29906 0.0263 0.39155 0.0
C2700 C 0.31728 0.99547 0.38875 0.0
C2701 C 0.33296 0.977 0.40034 0.0
C2702 C 0.28016 0.07112 0.41016 0.0
C2703 C 0.31926 0.98097 0.37342 0.0
H2704 H 0.19848 0.03872 0.36318 0.0
H2705 H 0.28349 0.10194 0.35062 0.0
H2706 H 0.24129 0.98181 0.38549 0.0
H2707 H 0.22745 1.01485 0.39775 0.0
H2708 H 0.19983 1.00136 0.38299 0.0
H2709 H 0.33636 0.09973 0.36315 0.0
H2710 H 0.3307 0.09325 0.38259 0.0
H2711 H 0.34649 0.05893 0.37149 0.0
H2712 H 0.31374 0.02849 0.42909 0.0
H2713 H 0.34599 0.95323 0.39768 0.0
H2714 H 0.25221 0.06743 0.40856 0.0
H2715 H 0.28834 0.09213 0.40271 0.0
H2716 H 0.28475 0.07916 0.42167 0.0
H2717 H 0.29334 0.97275 0.36984 0.0
H2718 H 0.33679 0.95855 0.37269 0.0
H2719 H 0.32821 1.00091 0.36563 0.0
C2720 C 0.30585 0.04267 0.6521 0.0
C2721 C 0.29151 0.0645 0.6629 0.0
C2722 C 0.2864 0.02826 0.64048 0.0
C2723 C 0.25079 0.03508 0.63916 0.0
C2724 C 0.23581 0.05694 0.65001 0.0
C2725 C 0.25611 0.07136 0.6616 0.0
C2726 C 0.30427 1.00529 0.62955 0.0
C2727 C 0.19811 0.06516 0.64937 0.0
C2728 C 0.20892 1.01192 0.60129 0.0
C2729 C 0.19698 0.97815 0.6036 0.0
C2730 C 0.22524 0.03123 0.61274 0.0
C2731 C 0.22953 0.0171 0.62711 0.0
C2732 C 0.21602 0.98373 0.62955 0.0
C2733 C 0.20053 0.965 0.61798 0.0
C2734 C 0.23902 0.06648 0.60932 0.0
C2735 C 0.21894 0.967 0.64442 0.0
H2736 H 0.33294 0.03669 0.65261 0.0
H2737 H 0.24424 0.08829 0.66953 0.0
H2738 H 0.29335 0.97901 0.63012 0.0
H2739 H 0.3 1.01495 0.61826 0.0
H2740 H 0.33232 1.00364 0.63152 0.0
H2741 H 0.19 0.08259 0.65836 0.0
H2742 H 0.19193 0.07742 0.63872 0.0
H2743 H 0.18291 0.04111 0.65005 0.0
H2744 H 0.20675 0.02283 0.59041 0.0
H2745 H 0.1913 0.9393 0.62028 0.0
H2746 H 0.26743 0.0661 0.6099 0.0
H2747 H 0.22989 0.08528 0.61758 0.0
H2748 H 0.23129 0.07541 0.59824 0.0
H2749 H 0.24626 0.96154 0.64684 0.0
H2750 H 0.20434 0.94254 0.64508 0.0
H2751 H 0.20939 0.98459 0.65307 0.0
C2752 C 0.20394 0.01771 0.9144 0.0
C2753 C 0.212 0.05274 0.91643 0.0
C2754 C 0.21845 0.99796 0.90268 0.0
C2755 C 0.24153 1.01323 0.8924 0.0
C2756 C 0.24953 0.0485 0.89442 0.0
C2757 C 0.23506 0.06738 0.90621 0.0
C2758 C 0.209 0.96057 0.90128 0.0
C2759 C 0.27376 0.06658 0.88407 0.0
C2760 C 0.31091 0.9621 0.87132 0.0
C2761 C 0.2985 0.96 0.85679 0.0
C2762 C 0.29211 0.9775 0.88288 0.0
C2763 C 0.25951 0.99239 0.88024 0.0
C2764 C 0.24612 0.98963 0.8657 0.0
C2765 C 0.26543 0.97332 0.85426 0.0
C2766 C 0.30791 0.97866 0.89797 0.0
C2767 C 0.2117 1.00498 0.8621 0.0
H2768 H 0.18596 1.00572 0.92187 0.0
H2769 H 0.2418 0.09426 0.90728 0.0
H2770 H 0.19702 0.95586 0.89044 0.0
H2771 H 0.23243 0.94447 0.90184 0.0
H2772 H 0.19096 0.95216 0.90999 0.0
H2773 H 0.27619 0.09442 0.88653 0.0
H2774 H 0.29956 0.05473 0.88475 0.0
H2775 H 0.26474 0.06361 0.87261 0.0
H2776 H 0.336 0.95163 0.87376 0.0
H2777 H 0.25512 0.97217 0.84325 0.0
H2778 H 0.28952 0.96887 0.90625 0.0
H2779 H 0.31399 1.00565 0.9009 0.0
H2780 H 0.33184 0.96329 0.89867 0.0
H2781 H 0.19205 0.99575 0.86997 0.0
H2782 H 0.2033 0.99857 0.85079 0.0
H2783 H 0.21302 0.03334 0.86318 0.0
C2784 C 0.22108 0.96049 0.15101 0.0
C2785 C 0.23466 0.95367 0.16508 0.0
C2786 C 0.24029 0.97648 0.13971 0.0
C2787 C 0.27474 0.98669 0.14211 0.0
C2788 C 0.28929 0.97884 0.15611 0.0
C2789 C 0.26935 0.9624 0.16731 0.0
C2790 C 0.22295 0.98363 0.12524 0.0
C2791 C 0.32578 0.98885 0.15941 0.0
C2792 C 0.32746 1.01535 0.10755 0.0
C2793 C 0.32313 0.05134 0.10755 0.0
C2794 C 0.31293 0.99407 0.1188 0.0
C2795 C 0.29353 1.00866 0.13056 0.0
C2796 C 0.28961 0.04488 0.13063 0.0
C2797 C 0.30409 0.06529 0.11935 0.0
C2798 C 0.31809 0.95577 0.11803 0.0
C2799 C 0.26937 0.06238 0.14261 0.0
H2800 H 0.19471 0.95357 0.14874 0.0
H2801 H 0.28064 0.95747 0.17794 0.0
H2802 H 0.22013 1.01177 0.12374 0.0
H2803 H 0.23886 0.97392 0.11605 0.0
H2804 H 0.19715 0.97165 0.12453 0.0
H2805 H 0.33477 0.97812 0.17001 0.0
H2806 H 0.34305 0.97987 0.15054 0.0
H2807 H 0.32786 0.01726 0.15987 0.0
H2808 H 0.34211 1.00373 0.09877 0.0
H2809 H 0.30019 0.0928 0.11988 0.0
H2810 H 0.29296 0.94278 0.11674 0.0
H2811 H 0.32949 0.94636 0.12842 0.0
H2812 H 0.33497 0.94818 0.10877 0.0
H2813 H 0.24224 0.05389 0.14216 0.0
H2814 H 0.27005 0.09083 0.14168 0.0
H2815 H 0.27956 0.05501 0.15351 0.0
C2816 C 0.81383 0.96732 0.65106 0.0
C2817 C 0.7995 0.95564 0.66442 0.0
C2818 C 0.79412 0.9832 0.63987 0.0
C2819 C 0.75834 0.9884 0.64166 0.0
C2820 C 0.74328 0.97599 0.65495 0.0
C2821 C 0.76375 0.95972 0.66602 0.0
C2822 C 0.81211 0.99532 0.62616 0.0
C2823 C 0.70546 0.98067 0.65763 0.0
C2824 C 0.72151 0.06593 0.6201 0.0
C2825 C 0.70623 0.05142 0.60746 0.0
C2826 C 0.737 0.0459 0.63128 0.0
C2827 C 0.73807 1.00953 0.63024 0.0
C2828 C 0.72213 0.99437 0.61769 0.0
C2829 C 0.70637 1.01522 0.6066 0.0
C2830 C 0.75304 0.06406 0.64419 0.0
C2831 C 0.72232 0.95592 0.61583 0.0
H2832 H 0.8411 0.96421 0.64924 0.0
H2833 H 0.7518 0.951 0.67607 0.0
H2834 H 0.79899 0.98508 0.61631 0.0
H2835 H 0.81099 0.02377 0.62554 0.0
H2836 H 0.83942 0.98732 0.62582 0.0
H2837 H 0.69681 0.96763 0.66781 0.0
H2838 H 0.69951 1.00846 0.65853 0.0
H2839 H 0.69058 0.97047 0.64824 0.0
H2840 H 0.72157 0.09359 0.62138 0.0
H2841 H 0.69477 1.00311 0.59714 0.0
H2842 H 0.78114 0.05963 0.64418 0.0
H2843 H 0.74279 0.05348 0.6546 0.0
H2844 H 0.74834 0.0922 0.64401 0.0
H2845 H 0.74909 0.94679 0.61451 0.0
H2846 H 0.7072 0.94757 0.60615 0.0
H2847 H 0.71176 0.94337 0.62577 0.0
C2848 C 0.79425 0.0585 0.40209 0.0
C2849 C 0.81561 0.04417 0.41303 0.0
C2850 C 0.77965 0.03878 0.3906 0.0
C2851 C 0.78581 1.00293 0.38958 0.0
C2852 C 0.80724 0.98797 0.40057 0.0
C2853 C 0.82184 1.00854 0.41202 0.0
C2854 C 0.75712 0.05661 0.37951 0.0
C2855 C 0.81478 0.95003 0.40021 0.0
C2856 C 0.71494 0.95294 0.36892 0.0
C2857 C 0.72782 0.9488 0.35453 0.0
C2858 C 0.73398 0.96859 0.38035 0.0
C2859 C 0.76747 0.98144 0.37773 0.0
C2860 C 0.78138 0.97639 0.36337 0.0
C2861 C 0.76169 0.96006 0.35206 0.0
C2862 C 0.71744 0.97246 0.39522 0.0
C2863 C 0.81681 0.98933 0.35981 0.0
H2864 H 0.78877 0.08576 0.40239 0.0
H2865 H 0.8384 0.99668 0.42009 0.0
H2866 H 0.76674 0.05164 0.36827 0.0
H2867 H 0.73069 0.04616 0.38015 0.0
H2868 H 0.75598 0.08482 0.38126 0.0
H2869 H 0.83211 0.94201 0.40923 0.0
H2870 H 0.79053 0.93524 0.40106 0.0
H2871 H 0.8268 0.94313 0.38958 0.0
H2872 H 0.68921 0.94409 0.37135 0.0
H2873 H 0.7724 0.95734 0.34116 0.0
H2874 H 0.7127 1.00006 0.39748 0.0
H2875 H 0.7348 0.96276 0.4039 0.0
H2876 H 0.69267 0.95848 0.396 0.0
H2877 H 0.81695 0.01783 0.36009 0.0
H2878 H 0.82558 0.98077 0.34882 0.0
H2879 H 0.83539 0.98033 0.36816 0.0
C2880 C 0.8013 0.97337 0.11543 0.0
C2881 C 0.82504 0.98718 0.1053 0.0
C2882 C 0.78726 0.99272 0.12712 0.0
C2883 C 0.79653 0.02763 0.12914 0.0
C2884 C 0.82018 0.04217 0.1189 0.0
C2885 C 0.83412 0.02195 0.10721 0.0
C2886 C 0.76217 0.9755 0.13738 0.0
C2887 C 0.83101 0.07916 0.12039 0.0
C2888 C 0.72846 0.07992 0.15023 0.0
C2889 C 0.7402 0.08009 0.16488 0.0
C2890 C 0.74724 0.06489 0.13861 0.0
C2891 C 0.77923 0.04882 0.14129 0.0
C2892 C 0.79219 0.05009 0.15594 0.0
C2893 C 0.77278 0.06576 0.16748 0.0
C2894 C 0.73181 0.06496 0.12344 0.0
C2895 C 0.82611 0.03365 0.15954 0.0
H2896 H 0.7936 0.94674 0.11434 0.0
H2897 H 0.85268 0.03321 0.09979 0.0
H2898 H 0.77126 0.97774 0.14886 0.0
H2899 H 0.73694 0.98854 0.13674 0.0
H2900 H 0.75848 0.94786 0.13479 0.0
H2901 H 0.84928 0.08702 0.11167 0.0
H2902 H 0.80821 0.09615 0.11992 0.0
H2903 H 0.84326 0.08322 0.13122 0.0
H2904 H 0.70376 0.09128 0.14778 0.0
H2905 H 0.78253 0.06551 0.17859 0.0
H2906 H 0.72458 0.03837 0.12033 0.0
H2907 H 0.75082 0.07416 0.11528 0.0
H2908 H 0.70862 0.08143 0.12273 0.0
H2909 H 0.82384 1.00534 0.15851 0.0
H2910 H 0.83473 0.03989 0.17083 0.0
H2911 H 0.84604 0.04215 0.15165 0.0
C2912 C 0.69752 0.02143 0.91566 0.0
C2913 C 0.70662 0.98678 0.91797 0.0
C2914 C 0.71202 0.04126 0.90394 0.0
C2915 C 0.73623 0.02646 0.894 0.0
C2916 C 0.7455 0.99168 0.89641 0.0
C2917 C 0.73097 0.97274 0.90815 0.0
C2918 C 0.70116 0.07813 0.9021 0.0
C2919 C 0.77107 0.97411 0.88649 0.0
C2920 C 0.76104 0.06382 0.85552 0.0
C2921 C 0.7936 0.07825 0.85815 0.0
C2922 C 0.74143 0.0482 0.86705 0.0
C2923 C 0.754 0.04726 0.88177 0.0
C2924 C 0.78597 0.06342 0.88449 0.0
C2925 C 0.8051 0.0781 0.87285 0.0
C2926 C 0.70769 0.03147 0.86335 0.0
C2927 C 0.80091 0.06416 0.89974 0.0
H2928 H 0.67852 0.03292 0.9228 0.0
H2929 H 0.73874 0.94621 0.90951 0.0
H2930 H 0.72394 0.0952 0.90239 0.0
H2931 H 0.68889 0.08156 0.89123 0.0
H2932 H 0.68287 0.08642 0.91074 0.0
H2933 H 0.77462 0.94657 0.88929 0.0
H2934 H 0.76253 0.97594 0.87493 0.0
H2935 H 0.79627 0.9872 0.88727 0.0
H2936 H 0.75147 0.0634 0.84438 0.0
H2937 H 0.82983 0.08936 0.87535 0.0
H2938 H 0.68743 0.04036 0.871 0.0
H2939 H 0.70996 1.00323 0.86469 0.0
H2940 H 0.69954 0.03703 0.85194 0.0
H2941 H 0.78157 0.07346 0.90772 0.0
H2942 H 0.82394 0.08087 0.90046 0.0
H2943 H 0.80827 0.03775 0.90305 0.0
C2944 C 0.76521 0.5608 0.85229 0.0
C2945 C 0.73481 0.57914 0.85516 0.0
C2946 C 0.78421 0.54461 0.86382 0.0
C2947 C 0.77309 0.5468 0.87874 0.0
C2948 C 0.74343 0.56675 0.88163 0.0
C2949 C 0.72499 0.58225 0.87002 0.0
C2950 C 0.81563 0.52401 0.85997 0.0
C2951 C 0.73004 0.57064 0.89707 0.0
C2952 C 0.79172 0.4734 0.90626 0.0
C2953 C 0.81806 0.48638 0.91534 0.0
C2954 C 0.77771 0.49234 0.89442 0.0
C2955 C 0.78986 0.52584 0.89112 0.0
C2956 C 0.81621 0.53949 0.9003 0.0
C2957 C 0.8299 0.5198 0.91219 0.0
C2958 C 0.7496 0.47621 0.88537 0.0
C2959 C 0.8303 0.5749 0.89743 0.0
H2960 H 0.77341 0.55784 0.84102 0.0
H2961 H 0.70198 0.59659 0.87266 0.0
H2962 H 0.83738 0.53143 0.86713 0.0
H2963 H 0.81049 0.49634 0.86189 0.0
H2964 H 0.82332 0.52754 0.84834 0.0
H2965 H 0.70879 0.58956 0.8978 0.0
H2966 H 0.72052 0.54546 0.90108 0.0
H2967 H 0.75089 0.5789 0.90454 0.0
H2968 H 0.78196 0.44779 0.90832 0.0
H2969 H 0.85051 0.5303 0.91876 0.0
H2970 H 0.75726 0.47552 0.87366 0.0
H2971 H 0.72597 0.49197 0.88615 0.0
H2972 H 0.74348 0.44964 0.88896 0.0
H2973 H 0.84123 0.57606 0.88621 0.0
H2974 H 0.85051 0.5822 0.90541 0.0
H2975 H 0.80935 0.59414 0.89796 0.0
C2976 C 0.73249 0.47489 0.11436 0.0
C2977 C 0.70911 0.48916 0.10419 0.0
C2978 C 0.74741 0.49416 0.12588 0.0
C2979 C 0.73963 0.52951 0.12765 0.0
C2980 C 0.71646 0.54452 0.11736 0.0
C2981 C 0.70146 0.52434 0.10589 0.0
C2982 C 0.77177 0.47635 0.13624 0.0
C2983 C 0.7073 0.582 0.11853 0.0
C2984 C 0.76428 0.5688 0.16568 0.0
C2985 C 0.79763 0.58134 0.16312 0.0
C2986 C 0.74451 0.55321 0.15424 0.0
C2987 C 0.75777 0.55047 0.13967 0.0
C2988 C 0.79064 0.56478 0.13699 0.0
C2989 C 0.80992 0.57942 0.14857 0.0
C2990 C 0.70985 0.53839 0.15788 0.0
C2991 C 0.80631 0.56352 0.12187 0.0
H2992 H 0.73915 0.44796 0.11346 0.0
H2993 H 0.68328 0.53603 0.09844 0.0
H2994 H 0.79759 0.48816 0.13541 0.0
H2995 H 0.76292 0.47963 0.14771 0.0
H2996 H 0.77414 0.44844 0.13392 0.0
H2997 H 0.68966 0.59033 0.10967 0.0
H2998 H 0.69492 0.58704 0.12927 0.0
H2999 H 0.73087 0.59793 0.11806 0.0
H3000 H 0.75415 0.56979 0.17673 0.0
H3001 H 0.83532 0.5892 0.14616 0.0
H3002 H 0.71081 0.50999 0.15692 0.0
H3003 H 0.69037 0.54768 0.14997 0.0
H3004 H 0.70148 0.54516 0.16916 0.0
H3005 H 0.81261 0.53654 0.11902 0.0
H3006 H 0.8301 0.5791 0.12109 0.0
H3007 H 0.78778 0.57298 0.11359 0.0
C3008 C 0.76583 0.45557 0.3561 0.0
C3009 C 0.80183 0.45931 0.35621 0.0
C3010 C 0.74454 0.47042 0.36727 0.0
C3011 C 0.75908 0.48944 0.37916 0.0
C3012 C 0.79532 0.49262 0.3794 0.0
C3013 C 0.81576 0.47793 0.36815 0.0
C3014 C 0.70625 0.46607 0.36627 0.0
C3015 C 0.81284 0.51223 0.39155 0.0
C3016 C 0.71142 0.56238 0.39974 0.0
C3017 C 0.70352 0.54838 0.41365 0.0
C3018 C 0.72764 0.54324 0.38845 0.0
C3019 C 0.73709 0.50842 0.3907 0.0
C3020 C 0.72822 0.49351 0.40453 0.0
C3021 C 0.7115 0.51338 0.4157 0.0
C3022 C 0.73577 0.56097 0.37415 0.0
C3023 C 0.73744 0.4567 0.40772 0.0
H3024 H 0.75417 0.44127 0.34722 0.0
H3025 H 0.84327 0.48122 0.36884 0.0
H3026 H 0.69624 0.45468 0.37656 0.0
H3027 H 0.6939 0.49156 0.36496 0.0
H3028 H 0.69862 0.44948 0.35692 0.0
H3029 H 0.84123 0.51094 0.39077 0.0
H3030 H 0.80499 0.53961 0.39117 0.0
H3031 H 0.80488 0.50192 0.40236 0.0
H3032 H 0.70518 0.58905 0.39761 0.0
H3033 H 0.70583 0.50176 0.42622 0.0
H3034 H 0.7262 0.54552 0.3648 0.0
H3035 H 0.76396 0.56334 0.37288 0.0
H3036 H 0.72434 0.58706 0.3735 0.0
H3037 H 0.7284 0.43978 0.39873 0.0
H3038 H 0.72629 0.44759 0.41822 0.0
H3039 H 0.76573 0.45409 0.40828 0.0
C3040 C 0.76127 0.44224 0.66328 0.0
C3041 C 0.72732 0.4532 0.66589 0.0
C3042 C 0.78157 0.4562 0.65157 0.0
C3043 C 0.76805 0.48184 0.64195 0.0
C3044 C 0.73391 0.49283 0.64461 0.0
C3045 C 0.71446 0.47874 0.65632 0.0
C3046 C 0.81765 0.44335 0.64945 0.0
C3047 C 0.71766 0.51992 0.63504 0.0
C3048 C 0.82413 0.54868 0.62149 0.0
C3049 C 0.82321 0.53834 0.60662 0.0
C3050 C 0.80799 0.52991 0.63291 0.0
C3051 C 0.78965 0.49924 0.62984 0.0
C3052 C 0.78962 0.48767 0.61495 0.0
C3053 C 0.80636 0.50706 0.60362 0.0
C3054 C 0.80959 0.5439 0.64832 0.0
C3055 C 0.77082 0.45524 0.61088 0.0
H3056 H 0.77189 0.42237 0.67023 0.0
H3057 H 0.68851 0.48795 0.65787 0.0
H3058 H 0.82048 0.43243 0.63828 0.0
H3059 H 0.836 0.46504 0.65035 0.0
H3060 H 0.82471 0.4234 0.65761 0.0
H3061 H 0.69048 0.52487 0.638 0.0
H3062 H 0.73214 0.54435 0.63601 0.0
H3063 H 0.71876 0.51192 0.62338 0.0
H3064 H 0.83733 0.57227 0.62431 0.0
H3065 H 0.80512 0.49831 0.59237 0.0
H3066 H 0.81813 0.52362 0.65604 0.0
H3067 H 0.78364 0.55218 0.65182 0.0
H3068 H 0.82726 0.56617 0.64927 0.0
H3069 H 0.77836 0.43395 0.61829 0.0
H3070 H 0.77588 0.44742 0.59938 0.0
H3071 H 0.74284 0.45922 0.61226 0.0
C3072 C 0.31226 0.47973 0.15515 0.0
C3073 C 0.29964 0.45335 0.16435 0.0
C3074 C 0.29281 0.49404 0.14355 0.0
C3075 C 0.25901 0.48236 0.14068 0.0
C3076 C 0.24577 0.45584 0.14991 0.0
C3077 C 0.26607 0.44168 0.1615 0.0
C3078 C 0.30864 0.52212 0.13435 0.0
C3079 C 0.21 0.44237 0.14752 0.0
C3080 C 0.20298 0.54984 0.12102 0.0
C3081 C 0.20407 0.5403 0.10608 0.0
C3082 C 0.2187 0.53032 0.13224 0.0
C3083 C 0.23732 0.50008 0.12881 0.0
C3084 C 0.23774 0.48942 0.11381 0.0
C3085 C 0.22099 0.50932 0.10271 0.0
C3086 C 0.21646 0.54311 0.14783 0.0
C3087 C 0.25713 0.45759 0.10939 0.0
H3088 H 0.33795 0.48945 0.15693 0.0
H3089 H 0.25573 0.42116 0.1682 0.0
H3090 H 0.30767 0.515 0.12258 0.0
H3091 H 0.29377 0.54622 0.13567 0.0
H3092 H 0.33573 0.52731 0.13737 0.0
H3093 H 0.2032 0.42173 0.15541 0.0
H3094 H 0.1912 0.46359 0.14863 0.0
H3095 H 0.2076 0.43213 0.13622 0.0
H3096 H 0.18995 0.57339 0.12404 0.0
H3097 H 0.22246 0.50136 0.09135 0.0
H3098 H 0.24204 0.55224 0.15144 0.0
H3099 H 0.20869 0.52198 0.15529 0.0
H3100 H 0.19788 0.56455 0.14904 0.0
H3101 H 0.28502 0.46198 0.11088 0.0
H3102 H 0.25238 0.45047 0.09778 0.0
H3103 H 0.24985 0.43568 0.11652 0.0
C3104 C 0.29573 0.56137 0.90567 0.0
C3105 C 0.32246 0.54962 0.91486 0.0
C3106 C 0.2821 0.54147 0.894 0.0
C3107 C 0.295 0.50812 0.89095 0.0
C3108 C 0.32191 0.49576 0.90018 0.0
C3109 C 0.33521 0.51641 0.9119 0.0
C3110 C 0.25339 0.55634 0.88492 0.0
C3111 C 0.33687 0.4606 0.8976 0.0
C3112 C 0.23073 0.44861 0.87091 0.0
C3113 C 0.23989 0.45082 0.85593 0.0
C3114 C 0.24923 0.46535 0.88221 0.0
C3115 C 0.27828 0.48588 0.87889 0.0
C3116 C 0.28874 0.48731 0.86386 0.0
C3117 C 0.26972 0.4698 0.85265 0.0
C3118 C 0.23653 0.46211 0.89778 0.0
C3119 C 0.31946 0.50845 0.85953 0.0
H3120 H 0.28515 0.58672 0.90754 0.0
H3121 H 0.35603 0.5067 0.91856 0.0
H3122 H 0.26063 0.55633 0.87316 0.0
H3123 H 0.23012 0.54015 0.88605 0.0
H3124 H 0.24684 0.58303 0.88819 0.0
H3125 H 0.35778 0.4545 0.90544 0.0
H3126 H 0.31655 0.4408 0.89864 0.0
H3127 H 0.34712 0.45893 0.88628 0.0
H3128 H 0.20816 0.43396 0.87391 0.0
H3129 H 0.27743 0.47221 0.84129 0.0
H3130 H 0.2265 0.48727 0.90156 0.0
H3131 H 0.25787 0.45489 0.90519 0.0
H3132 H 0.21582 0.44267 0.89888 0.0
H3133 H 0.31365 0.53611 0.86111 0.0
H3134 H 0.32685 0.50427 0.84791 0.0
H3135 H 0.34164 0.50218 0.86666 0.0
C3136 C 0.32495 0.52423 0.60638 0.0
C3137 C 0.32294 0.48801 0.60619 0.0
C3138 C 0.30971 0.5443 0.61792 0.0
C3139 C 0.29192 0.5283 0.62983 0.0
C3140 C 0.29005 0.4919 0.62964 0.0
C3141 C 0.30514 0.47271 0.61808 0.0
C3142 C 0.31269 0.58285 0.61736 0.0
C3143 C 0.2716 0.47282 0.64171 0.0
C3144 C 0.26833 0.57226 0.66735 0.0
C3145 C 0.23305 0.57935 0.66575 0.0
C3146 C 0.28811 0.55703 0.65573 0.0
C3147 C 0.27287 0.54881 0.6419 0.0
C3148 C 0.23772 0.55727 0.64014 0.0
C3149 C 0.21869 0.57197 0.65184 0.0
C3150 C 0.32531 0.54883 0.65842 0.0
C3151 C 0.21955 0.54977 0.6259 0.0
H3152 H 0.33867 0.53698 0.59761 0.0
H3153 H 0.30284 0.44501 0.61849 0.0
H3154 H 0.28677 0.59453 0.61696 0.0
H3155 H 0.3253 0.59236 0.62747 0.0
H3156 H 0.32759 0.59176 0.6077 0.0
H3157 H 0.27361 0.4445 0.6405 0.0
H3158 H 0.28225 0.4802 0.65253 0.0
H3159 H 0.24407 0.47995 0.64171 0.0
H3160 H 0.28035 0.57764 0.67779 0.0
H3161 H 0.19184 0.57756 0.64999 0.0
H3162 H 0.34138 0.55944 0.64945 0.0
H3163 H 0.32898 0.52057 0.65842 0.0
H3164 H 0.33453 0.55926 0.66904 0.0
H3165 H 0.23416 0.56064 0.61655 0.0
H3166 H 0.19314 0.56041 0.62566 0.0
H3167 H 0.21802 0.52158 0.62422 0.0
C3168 C 0.19358 0.51129 0.41311 0.0
C3169 C 0.20406 0.47716 0.41579 0.0
C3170 C 0.20761 0.53122 0.4013 0.0
C3171 C 0.23279 0.5171 0.39162 0.0
C3172 C 0.24319 0.48273 0.3943 0.0
C3173 C 0.22908 0.46367 0.40613 0.0
C3174 C 0.19542 0.56758 0.39917 0.0
C3175 C 0.26971 0.46583 0.38464 0.0
C3176 C 0.25792 0.55498 0.35319 0.0
C3177 C 0.2895 0.57129 0.35607 0.0
C3178 C 0.23852 0.53852 0.36459 0.0
C3179 C 0.25037 0.53834 0.37943 0.0
C3180 C 0.28139 0.55612 0.38237 0.0
C3181 C 0.30017 0.57196 0.37089 0.0
C3182 C 0.20576 0.52024 0.36065 0.0
C3183 C 0.29568 0.55745 0.39773 0.0
H3184 H 0.17414 0.52242 0.42014 0.0
H3185 H 0.23787 0.43754 0.4077 0.0
H3186 H 0.21737 0.58558 0.40012 0.0
H3187 H 0.18471 0.57063 0.38799 0.0
H3188 H 0.17554 0.575 0.4073 0.0
H3189 H 0.2741 0.4385 0.38759 0.0
H3190 H 0.26157 0.46708 0.37301 0.0
H3191 H 0.29441 0.47981 0.38554 0.0
H3192 H 0.24892 0.55392 0.34197 0.0
H3193 H 0.32402 0.58476 0.3736 0.0
H3194 H 0.18477 0.52821 0.36812 0.0
H3195 H 0.20926 0.49214 0.36203 0.0
H3196 H 0.19786 0.52538 0.34916 0.0
H3197 H 0.2758 0.56652 0.40552 0.0
H3198 H 0.31835 0.57462 0.39858 0.0
H3199 H 0.30339 0.53126 0.40122 0.0
C3200 C 0.19188 0.06115 0.28846 0.0
C3201 C 0.16093 0.058 0.29615 0.0
C3202 C 0.19692 0.04364 0.27503 0.0
C3203 C 0.16997 0.02352 0.26898 0.0
C3204 C 0.1386 0.02086 0.27671 0.0
C3205 C 0.13475 0.03759 0.29023 0.0
C3206 C 0.23108 0.04639 0.26738 0.0
C3207 C 0.10867 1.00087 0.27056 0.0
C3208 C 0.16202 1.00833 0.22791 0.0
C3209 C 0.16816 0.97287 0.22667 0.0
C3210 C 0.16388 0.02533 0.24148 0.0
C3211 C 0.17322 1.00679 0.25421 0.0
C3212 C 0.18144 0.97135 0.25291 0.0
C3213 C 0.17824 0.95469 0.23921 0.0
C3214 C 0.15378 0.06274 0.24229 0.0
C3215 C 0.19251 0.95075 0.26607 0.0
H3216 H 0.21232 0.07661 0.29308 0.0
H3217 H 0.11069 0.03514 0.29609 0.0
H3218 H 0.24155 0.02033 0.26531 0.0
H3219 H 0.22785 0.05899 0.25657 0.0
H3220 H 0.25002 0.06131 0.27387 0.0
H3221 H 0.08578 1.00188 0.2778 0.0
H3222 H 0.10151 1.01126 0.25966 0.0
H3223 H 0.11593 0.97358 0.26899 0.0
H3224 H 0.1543 0.02277 0.21831 0.0
H3225 H 0.18314 0.92739 0.23839 0.0
H3226 H 0.17396 0.07792 0.24787 0.0
H3227 H 0.12996 0.06535 0.24886 0.0
H3228 H 0.1492 0.07406 0.23129 0.0
H3229 H 0.21192 0.96514 0.27251 0.0
H3230 H 0.20342 0.92545 0.2629 0.0
H3231 H 0.17016 0.94621 0.27334 0.0
C3232 C 0.24377 0.88065 0.5358 0.0
C3233 C 0.21666 0.90146 0.54062 0.0
C3234 C 0.26097 0.88719 0.52261 0.0
C3235 C 0.25113 0.91556 0.51389 0.0
C3236 C 0.22425 0.93733 0.51882 0.0
C3237 C 0.2072 0.92995 0.53215 0.0
C3238 C 0.28904 0.8629 0.51781 0.0
C3239 C 0.21327 0.96806 0.50994 0.0
C3240 C 0.31733 0.93373 0.484 0.0
C3241 C 0.30434 0.91385 0.47247 0.0
C3242 C 0.29899 0.93695 0.49729 0.0
C3243 C 0.26709 0.91978 0.49905 0.0
C3244 C 0.25303 0.90164 0.48704 0.0
C3245 C 0.27175 0.89897 0.47396 0.0
C3246 C 0.31473 0.95697 0.50973 0.0
C3247 C 0.21935 0.88268 0.48832 0.0
H3248 H 0.25138 0.85863 0.5423 0.0
H3249 H 0.18677 0.94651 0.53595 0.0
H3250 H 0.28148 0.84995 0.50747 0.0
H3251 H 0.31299 0.87735 0.51559 0.0
H3252 H 0.29458 0.84287 0.52615 0.0
H3253 H 0.19385 0.98388 0.51575 0.0
H3254 H 0.23581 0.98438 0.50735 0.0
H3255 H 0.20225 0.95943 0.49936 0.0
H3256 H 0.3423 0.94558 0.48286 0.0
H3257 H 0.26132 0.88382 0.46504 0.0
H3258 H 0.32468 0.93885 0.51809 0.0
H3259 H 0.29518 0.97334 0.51514 0.0
H3260 H 0.33626 0.97344 0.50596 0.0
H3261 H 0.22255 0.86029 0.49572 0.0
H3262 H 0.21005 0.87321 0.47755 0.0
H3263 H 0.19941 0.89949 0.49317 0.0
C3264 C 0.34143 0.06597 0.7346 0.0
C3265 C 0.36464 0.05188 0.72452 0.0
C3266 C 0.33667 0.05075 0.74856 0.0
C3267 C 0.35601 0.02123 0.75255 0.0
C3268 C 0.37837 1.00636 0.74212 0.0
C3269 C 0.38214 0.02165 0.72832 0.0
C3270 C 0.31196 0.06699 0.75921 0.0
C3271 C 0.40011 0.97541 0.74582 0.0
C3272 C 0.38776 1.00649 0.79131 0.0
C3273 C 0.37006 0.9767 0.79556 0.0
C3274 C 0.38185 0.02231 0.77774 0.0
C3275 C 0.35715 1.0084 0.76806 0.0
C3276 C 0.33775 0.97933 0.77259 0.0
C3277 C 0.34464 0.9636 0.78626 0.0
C3278 C 0.40375 0.05271 0.77341 0.0
C3279 C 0.31065 0.9641 0.76277 0.0
H3280 H 0.32764 0.08914 0.73173 0.0
H3281 H 0.40001 1.01034 0.7206 0.0
H3282 H 0.29606 0.04701 0.76461 0.0
H3283 H 0.32647 0.08052 0.76792 0.0
H3284 H 0.29482 0.08584 0.75375 0.0
H3285 H 0.41463 0.96568 0.73619 0.0
H3286 H 0.41873 0.9823 0.75453 0.0
H3287 H 0.3839 0.95429 0.75011 0.0
H3288 H 0.40734 0.017 0.79844 0.0
H3289 H 0.33059 0.94088 0.78953 0.0
H3290 H 0.38745 0.07427 0.76964 0.0
H3291 H 0.42071 0.0454 0.76415 0.0
H3292 H 0.42004 0.06196 0.78258 0.0
H3293 H 0.29431 0.98467 0.75808 0.0
H3294 H 0.29411 0.94548 0.76871 0.0
H3295 H 0.32306 0.95053 0.75349 0.0
C3296 C 0.21687 0.1574 0.98931 0.0
C3297 C 0.20865 0.13005 0.97995 0.0
C3298 C 0.2364 0.1523 1.00204 0.0
C3299 C 0.24824 0.11893 1.0056 0.0
C3300 C 0.23973 0.09103 0.99627 0.0
C3301 C 0.21992 0.09689 0.98356 0.0
C3302 C 0.24441 0.18279 0.0117 0.0
C3303 C 0.25179 0.05509 0.99965 0.0
C3304 C 0.32224 0.11924 0.03301 0.0
C3305 C 0.30465 0.11551 0.04633 0.0
C3306 C 0.30452 0.11833 0.01954 0.0
C3307 C 0.26842 0.11361 0.01939 0.0
C3308 C 0.25102 0.10776 0.03278 0.0
C3309 C 0.26931 0.10875 0.04603 0.0
C3310 C 0.32418 0.12434 1.00553 0.0
C3311 C 0.21267 0.10255 0.03323 0.0
H3312 H 0.20818 0.18308 0.98662 0.0
H3313 H 0.21377 0.07566 0.97634 0.0
H3314 H 0.23398 0.17847 0.02286 0.0
H3315 H 0.27257 0.18588 0.01276 0.0
H3316 H 0.23353 0.2071 1.00734 0.0
H3317 H 0.24318 0.0362 0.9913 0.0
H3318 H 0.28019 0.05455 1.00021 0.0
H3319 H 0.24203 0.04693 1.01053 0.0
H3320 H 0.34954 0.12439 0.03315 0.0
H3321 H 0.25558 0.10552 0.05627 0.0
H3322 H 0.31779 0.15012 1.00113 0.0
H3323 H 0.31676 0.10517 0.99711 0.0
H3324 H 0.35234 0.12297 1.00724 0.0
H3325 H 0.19963 0.12688 0.03021 0.0
H3326 H 0.20356 0.09461 0.04426 0.0
H3327 H 0.20475 0.08281 0.02515 0.0
C3328 C 0.89396 1.0006 0.73299 0.0
C3329 C 0.87276 0.97399 0.72794 0.0
C3330 C 0.88803 0.0169 0.74644 0.0
C3331 C 0.85971 1.00688 0.75514 0.0
C3332 C 0.83734 0.98078 0.7499 0.0
C3333 C 0.84429 0.96437 0.73638 0.0
C3334 C 0.91314 0.04392 0.75159 0.0
C3335 C 0.80647 0.96985 0.7587 0.0
C3336 C 0.87884 0.02131 0.7953 0.0
C3337 C 0.8659 0.05449 0.79772 0.0
C3338 C 0.87471 1.00453 0.78183 0.0
C3339 C 0.85675 0.02104 0.77036 0.0
C3340 C 0.8414 0.05358 0.77305 0.0
C3341 C 0.8464 0.07011 0.78669 0.0
C3342 C 0.89213 0.97027 0.77954 0.0
C3343 C 0.82135 0.07176 0.76126 0.0
H3344 H 0.916 1.0083 0.72654 0.0
H3345 H 0.82749 0.94427 0.73242 0.0
H3346 H 0.89947 0.06808 0.75428 0.0
H3347 H 0.92609 0.03502 0.76172 0.0
H3348 H 0.93309 0.04972 0.74325 0.0
H3349 H 0.78952 0.95221 0.75244 0.0
H3350 H 0.81489 0.95657 0.76882 0.0
H3351 H 0.79145 0.9927 0.76211 0.0
H3352 H 0.89372 1.00883 0.8038 0.0
H3353 H 0.83621 0.09562 0.78849 0.0
H3354 H 0.91395 0.97349 0.77185 0.0
H3355 H 0.87418 0.95153 0.77457 0.0
H3356 H 0.90209 0.9593 0.78994 0.0
H3357 H 0.83932 0.0827 0.75307 0.0
H3358 H 0.8056 0.09304 0.7658 0.0
H3359 H 0.80431 0.05347 0.75543 0.0
C3360 C 0.71132 0.09501 0.53501 0.0
C3361 C 0.72337 0.12204 0.54375 0.0
C3362 C 0.72691 0.08766 0.52134 0.0
C3363 C 0.7547 0.10817 0.5163 0.0
C3364 C 0.76737 0.13474 0.52538 0.0
C3365 C 0.75177 0.14109 0.53892 0.0
C3366 C 0.71314 0.05858 0.51215 0.0
C3367 C 0.79635 0.15787 0.52048 0.0
C3368 C 0.815 0.09366 0.48385 0.0
C3369 C 0.80051 0.11576 0.47344 0.0
C3370 C 0.79878 0.08824 0.49753 0.0
C3371 C 0.76777 0.10579 0.50089 0.0
C3372 C 0.75227 0.12647 0.49002 0.0
C3373 C 0.76866 0.13097 0.47649 0.0
C3374 C 0.81575 0.06525 0.50866 0.0
C3375 C 0.71971 0.14629 0.49304 0.0
H3376 H 0.68983 0.07979 0.53877 0.0
H3377 H 0.76143 0.16196 0.54562 0.0
H3378 H 0.69935 0.0691 0.50253 0.0
H3379 H 0.73451 0.04255 0.50794 0.0
H3380 H 0.69515 0.04201 0.51842 0.0
H3381 H 0.8043 0.17626 0.52915 0.0
H3382 H 0.81898 0.14235 0.51729 0.0
H3383 H 0.78829 0.17278 0.51071 0.0
H3384 H 0.83942 0.08161 0.48153 0.0
H3385 H 0.75701 0.14784 0.46847 0.0
H3386 H 0.79641 0.04915 0.51436 0.0
H3387 H 0.82868 0.08124 0.51706 0.0
H3388 H 0.83525 0.04827 0.50353 0.0
H3389 H 0.6998 0.12921 0.49774 0.0
H3390 H 0.7092 0.15854 0.48301 0.0
H3391 H 0.72498 0.16674 0.50121 0.0
C3392 C 0.68335 0.961 0.28513 0.0
C3393 C 0.65455 0.97053 0.29336 0.0
C3394 C 0.69174 0.97861 0.27204 0.0
C3395 C 0.67041 1.00577 0.26703 0.0
C3396 C 0.64189 0.01583 0.2756 0.0
C3397 C 0.63457 0.99833 0.28863 0.0
C3398 C 0.72285 0.96765 0.26342 0.0
C3399 C 0.61786 0.044 0.27066 0.0
C3400 C 0.68605 0.07032 0.23619 0.0
C3401 C 0.66649 0.05561 0.22495 0.0
C3402 C 0.69036 0.05299 0.24969 0.0
C3403 C 0.67424 0.02065 0.25199 0.0
C3404 C 0.65632 1.00503 0.24029 0.0
C3405 C 0.65292 0.02254 0.22698 0.0
C3406 C 0.71051 0.07013 0.26174 0.0
C3407 C 0.63815 0.97099 0.24216 0.0
H3408 H 0.69928 0.94001 0.28889 0.0
H3409 H 0.61234 1.00597 0.29498 0.0
H3410 H 0.71467 0.9539 0.25337 0.0
H3411 H 0.73786 0.99045 0.25991 0.0
H3412 H 0.73973 0.95032 0.26986 0.0
H3413 H 0.59782 0.04983 0.27894 0.0
H3414 H 0.63239 0.06788 0.26836 0.0
H3415 H 0.60499 0.03621 0.26033 0.0
H3416 H 0.69681 0.09572 0.23466 0.0
H3417 H 0.63806 1.01073 0.2183 0.0
H3418 H 0.72667 0.05112 0.26759 0.0
H3419 H 0.69257 0.08144 0.26984 0.0
H3420 H 0.72714 0.091 0.25743 0.0
H3421 H 0.65567 0.95157 0.24692 0.0
H3422 H 0.62801 0.96088 0.23164 0.0
H3423 H 0.61636 0.97416 0.24988 0.0
C3424 C 0.77392 0.90181 0.0437 0.0
C3425 C 0.80608 0.917 0.04616 0.0
C3426 C 0.75651 0.9056 0.03037 0.0
C3427 C 0.77124 0.92553 0.01904 0.0
C3428 C 0.80277 0.94282 0.02172 0.0
C3429 C 0.81998 0.93822 0.03526 0.0
C3430 C 0.72336 0.88618 0.02811 0.0
C3431 C 0.81908 0.9649 1.01007 0.0
C3432 C 0.74866 0.89093 0.98136 0.0
C3433 C 0.72034 0.91101 0.97728 0.0
C3434 C 0.76636 0.89664 0.99451 0.0
C3435 C 0.75595 0.92354 1.00395 0.0
C3436 C 0.7282 0.94496 0.99965 0.0
C3437 C 0.7105 0.93828 0.9864 0.0
C3438 C 0.79519 0.87258 0.99862 0.0
C3439 C 0.71664 0.97432 1.00922 0.0
H3440 H 0.76268 0.88561 0.05209 0.0
H3441 H 0.84459 0.95033 0.03709 0.0
H3442 H 0.70316 0.90355 0.02388 0.0
H3443 H 0.72731 0.86568 0.01983 0.0
H3444 H 0.71391 0.87408 0.03837 0.0
H3445 H 0.83996 0.98117 0.01458 0.0
H3446 H 0.83004 0.94828 1.00138 0.0
H3447 H 0.79961 0.98168 1.00485 0.0
H3448 H 0.75663 0.86986 0.97437 0.0
H3449 H 0.68897 0.95418 0.98325 0.0
H3450 H 0.78787 0.85762 1.00849 0.0
H3451 H 0.81861 0.88737 1.00138 0.0
H3452 H 0.80152 0.85425 0.98968 0.0
H3453 H 0.70403 0.96408 0.01921 0.0
H3454 H 0.69824 0.99143 1.00349 0.0
H3455 H 0.73903 0.98973 0.01284 0.0
C3456 C 0.68414 0.56554 0.78567 0.0
C3457 C 0.6632 0.55196 0.79673 0.0
C3458 C 0.68854 0.54783 0.77227 0.0
C3459 C 0.67134 0.5161 0.76988 0.0
C3460 C 0.65208 0.50146 0.78145 0.0
C3461 C 0.6484 0.51945 0.79466 0.0
C3462 C 0.7099 0.56406 0.76036 0.0
C3463 C 0.63286 0.46806 0.7795 0.0
C3464 C 0.63365 0.49577 0.73263 0.0
C3465 C 0.65354 0.46794 0.72781 0.0
C3466 C 0.64024 0.51238 0.74594 0.0
C3467 C 0.66782 0.50127 0.7548 0.0
C3468 C 0.6889 0.47385 0.74982 0.0
C3469 C 0.68139 0.4573 0.73638 0.0
C3470 C 0.61658 0.54099 0.75077 0.0
C3471 C 0.71892 0.46163 0.75881 0.0
H3472 H 0.69597 0.59044 0.78726 0.0
H3473 H 0.63247 0.50852 0.80322 0.0
H3474 H 0.72606 0.54446 0.75485 0.0
H3475 H 0.69278 0.57536 0.75194 0.0
H3476 H 0.72667 0.58476 0.7647 0.0
H3477 H 0.62228 0.45823 0.79 0.0
H3478 H 0.61127 0.47202 0.77176 0.0
H3479 H 0.64979 0.44812 0.77472 0.0
H3480 H 0.61212 0.50432 0.72607 0.0
H3481 H 0.69726 0.43628 0.7326 0.0
H3482 H 0.63154 0.56445 0.75333 0.0
H3483 H 0.60289 0.53327 0.76092 0.0
H3484 H 0.59721 0.54754 0.74231 0.0
H3485 H 0.73498 0.48379 0.7622 0.0
H3486 H 0.73513 0.44302 0.75272 0.0
H3487 H 0.70951 0.44905 0.76895 0.0
C3488 C 0.81628 0.43789 0.98576 0.0
C3489 C 0.80265 0.41459 0.9756 0.0
C3490 C 0.79966 0.44379 0.99933 0.0
C3491 C 0.76913 0.42556 1.00285 0.0
C3492 C 0.7547 0.40325 0.99228 0.0
C3493 C 0.77144 0.39829 0.97887 0.0
C3494 C 0.81552 0.4684 1.01013 0.0
C3495 C 0.72268 0.38268 0.99549 0.0
C3496 C 0.75005 0.395 0.04141 0.0
C3497 C 0.72063 0.4138 0.04518 0.0
C3498 C 0.76712 0.40012 0.02808 0.0
C3499 C 0.75488 0.42511 0.01812 0.0
C3500 C 0.72617 0.44557 0.02214 0.0
C3501 C 0.70916 0.43948 0.0356 0.0
C3502 C 0.79708 0.37714 0.0243 0.0
C3503 C 0.71272 0.47299 0.012 0.0
H3504 H 0.84018 0.45078 0.98329 0.0
H3505 H 0.76047 0.3804 0.97106 0.0
H3506 H 0.79555 0.48498 0.01514 0.0
H3507 H 0.82784 0.45373 0.01911 0.0
H3508 H 0.83527 0.48495 1.00491 0.0
H3509 H 0.71335 0.36841 0.98573 0.0
H3510 H 0.72802 0.36386 1.00433 0.0
H3511 H 0.70185 0.39974 0.9994 0.0
H3512 H 0.75932 0.3752 0.04877 0.0
H3513 H 0.68674 0.45438 0.0385 0.0
H3514 H 0.81948 0.39274 0.02086 0.0
H3515 H 0.7901 0.3603 0.01495 0.0
H3516 H 0.80491 0.36061 0.03363 0.0
H3517 H 0.73416 0.48859 1.00756 0.0
H3518 H 0.69422 0.49028 0.0176 0.0
H3519 H 0.69956 0.4608 1.00257 0.0
C3520 C 0.90401 0.48754 0.28491 0.0
C3521 C 0.87758 0.4712 0.29263 0.0
C3522 C 0.89803 0.50372 0.27145 0.0
C3523 C 0.8644 0.50467 0.26566 0.0
C3524 C 0.83744 0.48793 0.27336 0.0
C3525 C 0.84446 0.47091 0.28672 0.0
C3526 C 0.92787 0.52003 0.26348 0.0
C3527 C 0.80111 0.48907 0.26775 0.0
C3528 C 0.85668 0.57616 0.23732 0.0
C3529 C 0.86205 0.55799 0.22426 0.0
C3530 C 0.85435 0.5588 0.25086 0.0
C3531 C 0.85839 0.52255 0.25137 0.0
C3532 C 0.86206 0.50407 0.23811 0.0
C3533 C 0.8634 0.52194 0.22476 0.0
C3534 C 0.8494 0.57944 0.26469 0.0
C3535 C 0.86726 0.46562 0.23806 0.0
H3536 H 0.92965 0.48778 0.2895 0.0
H3537 H 0.8239 0.45877 0.29281 0.0
H3538 H 0.92976 0.50955 0.25219 0.0
H3539 H 0.92377 0.54813 0.26253 0.0
H3540 H 0.95267 0.51559 0.26914 0.0
H3541 H 0.78337 0.47359 0.27462 0.0
H3542 H 0.79202 0.51607 0.26761 0.0
H3543 H 0.79994 0.47948 0.25632 0.0
H3544 H 0.85537 0.60395 0.23703 0.0
H3545 H 0.86723 0.50758 0.21472 0.0
H3546 H 0.87401 0.58092 0.27073 0.0
H3547 H 0.83043 0.5668 0.27198 0.0
H3548 H 0.84063 0.60602 0.26232 0.0
H3549 H 0.89279 0.45955 0.24275 0.0
H3550 H 0.86593 0.45464 0.22684 0.0
H3551 H 0.84778 0.45273 0.24499 0.0
C3552 C 0.70927 0.59347 0.4866 0.0
C3553 C 0.72223 0.61979 0.4777 0.0
C3554 C 0.72404 0.5865 0.50044 0.0
C3555 C 0.75212 0.60657 0.50547 0.0
C3556 C 0.76568 0.63249 0.49628 0.0
C3557 C 0.75075 0.63857 0.48257 0.0
C3558 C 0.70921 0.55823 0.5098 0.0
C3559 C 0.79516 0.65498 0.50114 0.0
C3560 C 0.76783 0.62839 0.54533 0.0
C3561 C 0.79884 0.61144 0.5482 0.0
C3562 C 0.75103 0.62492 0.53183 0.0
C3563 C 0.76536 0.60369 0.52083 0.0
C3564 C 0.79546 0.58456 0.52402 0.0
C3565 C 0.81197 0.58876 0.53768 0.0
C3566 C 0.71931 0.64616 0.529 0.0
C3567 C 0.8113 0.56118 0.51272 0.0
H3568 H 0.6877 0.57847 0.48281 0.0
H3569 H 0.76109 0.65891 0.47576 0.0
H3570 H 0.72992 0.54095 0.51368 0.0
H3571 H 0.69685 0.56947 0.51964 0.0
H3572 H 0.68983 0.54277 0.50379 0.0
H3573 H 0.80369 0.67297 0.49242 0.0
H3574 H 0.78737 0.67028 0.51085 0.0
H3575 H 0.81733 0.63894 0.50443 0.0
H3576 H 0.75729 0.64573 0.55347 0.0
H3577 H 0.8356 0.57518 0.53992 0.0
H3578 H 0.69874 0.6301 0.52417 0.0
H3579 H 0.72543 0.66672 0.52098 0.0
H3580 H 0.70933 0.65838 0.53914 0.0
H3581 H 0.79128 0.54552 0.50724 0.0
H3582 H 0.8307 0.54374 0.51762 0.0
H3583 H 0.82407 0.57686 0.50415 0.0
C3584 C 0.34031 0.55984 0.28633 0.0
C3585 C 0.36122 0.54589 0.29729 0.0
C3586 C 0.33624 0.54283 0.27274 0.0
C3587 C 0.35368 0.51138 0.27008 0.0
C3588 C 0.3729 0.49629 0.28155 0.0
C3589 C 0.37629 0.51362 0.29494 0.0
C3590 C 0.31498 0.55956 0.26094 0.0
C3591 C 0.39234 0.46314 0.27931 0.0
C3592 C 0.34383 0.45476 0.23586 0.0
C3593 C 0.3716 0.46611 0.22738 0.0
C3594 C 0.3364 0.47024 0.24955 0.0
C3595 C 0.35743 0.49737 0.25486 0.0
C3596 C 0.38499 0.50915 0.24611 0.0
C3597 C 0.39153 0.49356 0.23257 0.0
C3598 C 0.30642 0.45732 0.25841 0.0
C3599 C 0.4086 0.53747 0.25129 0.0
H3600 H 0.32825 0.58453 0.28813 0.0
H3601 H 0.39221 0.50241 0.30341 0.0
H3602 H 0.33217 0.57125 0.25264 0.0
H3603 H 0.29889 0.54019 0.25526 0.0
H3604 H 0.29815 0.58004 0.26544 0.0
H3605 H 0.40271 0.45276 0.28974 0.0
H3606 H 0.37564 0.44338 0.27425 0.0
H3607 H 0.4141 0.46769 0.27171 0.0
H3608 H 0.32795 0.43405 0.23182 0.0
H3609 H 0.41302 0.50265 0.2261 0.0
H3610 H 0.28969 0.4791 0.26162 0.0
H3611 H 0.31577 0.44522 0.26866 0.0
H3612 H 0.29089 0.43816 0.2523 0.0
H3613 H 0.3936 0.56075 0.2541 0.0
H3614 H 0.42805 0.54457 0.24292 0.0
H3615 H 0.4222 0.52916 0.26136 0.0
C3616 C 0.31458 0.59487 0.9853 0.0
C3617 C 0.30315 0.62227 0.97663 0.0
C3618 C 0.29884 0.58759 0.99894 0.0
C3619 C 0.27142 0.60848 1.00402 0.0
C3620 C 0.25929 0.63543 0.995 0.0
C3621 C 0.2751 0.64176 0.98147 0.0
C3622 C 0.3121 0.55817 1.00806 0.0
C3623 C 0.23066 0.65889 0.99995 0.0
C3624 C 0.21126 0.59195 0.03643 0.0
C3625 C 0.22584 0.61329 0.04711 0.0
C3626 C 0.22714 0.58783 0.02259 0.0
C3627 C 0.25805 0.60571 0.01939 0.0
C3628 C 0.27366 0.62562 0.0305 0.0
C3629 C 0.25752 0.62897 0.04415 0.0
C3630 C 0.20998 0.56573 0.01118 0.0
C3631 C 0.30625 0.64558 0.02767 0.0
H3632 H 0.3357 0.57923 0.98149 0.0
H3633 H 0.26594 0.66291 0.97482 0.0
H3634 H 0.3257 0.56835 0.0178 0.0
H3635 H 0.29048 0.54221 0.01208 0.0
H3636 H 0.33011 0.5416 1.00181 0.0
H3637 H 0.22297 0.67745 0.99131 0.0
H3638 H 0.20784 0.64363 1.00314 0.0
H3639 H 0.23897 0.67359 1.00975 0.0
H3640 H 0.18709 0.57936 0.0387 0.0
H3641 H 0.26925 0.64525 0.05238 0.0
H3642 H 0.22914 0.54945 1.00547 0.0
H3643 H 0.19777 0.58237 1.00282 0.0
H3644 H 0.18991 0.54896 0.01604 0.0
H3645 H 0.32614 0.62869 0.02284 0.0
H3646 H 0.31674 0.65735 0.03782 0.0
H3647 H 0.30105 0.6664 0.01967 0.0
C3648 C 0.18378 0.56835 0.73798 0.0
C3649 C 0.1575 0.55717 0.72866 0.0
C3650 C 0.18981 0.55183 0.75156 0.0
C3651 C 0.16894 0.52365 0.75591 0.0
C3652 C 0.14309 0.51184 0.74626 0.0
C3653 C 0.13786 0.52857 0.73284 0.0
C3654 C 0.21793 0.56499 0.7614 0.0
C3655 C 0.11984 0.48229 0.75037 0.0
C3656 C 0.18624 0.46086 0.78739 0.0
C3657 C 0.16413 0.4736 0.79822 0.0
C3658 C 0.18999 0.47807 0.77382 0.0
C3659 C 0.17106 0.50858 0.77103 0.0
C3660 C 0.15012 0.52228 0.78227 0.0
C3661 C 0.14703 0.50475 0.79565 0.0
C3662 C 0.21298 0.46277 0.76225 0.0
C3663 C 0.12915 0.55441 0.77988 0.0
H3664 H 0.19949 0.58995 0.73472 0.0
H3665 H 0.11756 0.51956 0.7257 0.0
H3666 H 0.20655 0.57653 0.77139 0.0
H3667 H 0.23455 0.54345 0.76499 0.0
H3668 H 0.23404 0.58469 0.7559 0.0
H3669 H 0.10224 0.475 0.74133 0.0
H3670 H 0.13524 0.45946 0.75343 0.0
H3671 H 0.10418 0.48945 0.76006 0.0
H3672 H 0.19989 0.43711 0.78935 0.0
H3673 H 0.13006 0.515 0.80398 0.0
H3674 H 0.22939 0.48294 0.75728 0.0
H3675 H 0.19708 0.45168 0.75335 0.0
H3676 H 0.22962 0.44215 0.76674 0.0
H3677 H 0.14549 0.5754 0.77554 0.0
H3678 H 0.1166 0.56346 0.79011 0.0
H3679 H 0.10893 0.54925 0.77161 0.0
C3680 C 0.24565 0.38507 0.48422 0.0
C3681 C 0.21775 0.40481 0.47938 0.0
C3682 C 0.26205 0.39168 0.49757 0.0
C3683 C 0.25065 0.4191 0.50651 0.0
C3684 C 0.22299 0.4399 0.50156 0.0
C3685 C 0.20671 0.43241 0.48805 0.0
C3686 C 0.29092 0.36833 0.50235 0.0
C3687 C 0.21036 0.46968 0.51064 0.0
C3688 C 0.27007 0.40032 0.54638 0.0
C3689 C 0.30217 0.41599 0.54834 0.0
C3690 C 0.2518 0.40344 0.53321 0.0
C3691 C 0.26573 0.42296 0.52155 0.0
C3692 C 0.29705 0.44091 0.5238 0.0
C3693 C 0.31501 0.43713 0.53718 0.0
C3694 C 0.21884 0.38348 0.53142 0.0
C3695 C 0.3126 0.46246 0.51179 0.0
H3696 H 0.25452 0.36369 0.47761 0.0
H3697 H 0.18558 0.44811 0.4843 0.0
H3698 H 0.31416 0.38363 0.50488 0.0
H3699 H 0.28348 0.3545 0.5125 0.0
H3700 H 0.29764 0.349 0.49386 0.0
H3701 H 0.19064 0.48504 0.5048 0.0
H3702 H 0.19913 0.46005 0.52103 0.0
H3703 H 0.23211 0.4867 0.51359 0.0
H3704 H 0.2597 0.38419 0.555 0.0
H3705 H 0.33956 0.44964 0.53865 0.0
H3706 H 0.22313 0.36176 0.52375 0.0
H3707 H 0.19855 0.39994 0.52664 0.0
H3708 H 0.20939 0.3729 0.54198 0.0
H3709 H 0.32375 0.4454 0.50329 0.0
H3710 H 0.33323 0.4795 0.51599 0.0
H3711 H 0.29269 0.47842 0.50642 0.0
loop_
_geom_bond_atom_site_label_1
_geom_bond_atom_site_label_2
_geom_bond_distance
_geom_bond_site_symmetry_2
_ccdc_geom_bond_type
Tb0 O3 2.453 . S
Tb0 O4 2.596 . S
Tb0 O5 2.374 . S
Tb0 O13 2.343 . S
Tb0 O15 2.353 . S
Tb0 O17 2.427 . S
Tb0 O18 2.513 . S
C1 O5 1.251 . S
C1 O7 1.263 . S
Tb2 O4 2.343 . S
Tb2 O7 2.353 . S
Tb2 O10 2.427 . S
Tb2 O11 2.513 . S
Tb2 O12 2.453 . S
Tb2 O13 2.596 . S
Tb2 O14 2.374 . S
O3 Tb0 2.453 . S
O3 C19 1.245 . S
O4 Tb0 2.596 . S
O4 Tb2 2.343 . S
O4 C19 1.259 . S
O5 Tb0 2.374 . S
O5 C1 1.251 . S
C6 O10 1.275 . S
C6 O11 1.246 . S
O7 C1 1.263 . S
O7 Tb2 2.353 . S
C8 O12 1.245 . S
C8 O13 1.259 . S
C9 O14 1.250 . S
C9 O15 1.263 . S
O10 Tb2 2.427 . S
O10 C6 1.275 . S
O11 Tb2 2.513 . S
O11 C6 1.246 . S
O12 Tb2 2.453 . S
O12 C8 1.245 . S
O13 Tb0 2.343 . S
O13 Tb2 2.596 . S
O13 C8 1.259 . S
O14 Tb2 2.374 . S
O14 C9 1.250 . S
O15 Tb0 2.353 . S
O15 C9 1.263 . S
C16 O17 1.275 . S
C16 O18 1.246 . S
O17 Tb0 2.427 . S
O17 C16 1.275 . S
O18 Tb0 2.513 . S
O18 C16 1.246 . S
C19 O3 1.245 . S
C19 O4 1.259 . S
Tb20 O23 2.453 . S
Tb20 O24 2.596 . S
Tb20 O25 2.374 . S
Tb20 O33 2.343 . S
Tb20 O35 2.353 . S
Tb20 O37 2.427 . S
Tb20 O38 2.513 . S
C21 O25 1.251 . S
C21 O27 1.263 . S
Tb22 O24 2.343 . S
Tb22 O27 2.353 . S
Tb22 O30 2.427 . S
Tb22 O31 2.513 . S
Tb22 O32 2.453 . S
Tb22 O33 2.596 . S
Tb22 O34 2.374 . S
O23 Tb20 2.453 . S
O23 C39 1.245 . S
O24 Tb20 2.596 . S
O24 Tb22 2.343 . S
O24 C39 1.259 . S
O25 Tb20 2.374 . S
O25 C21 1.251 . S
C26 O30 1.275 . S
C26 O31 1.246 . S
O27 C21 1.263 . S
O27 Tb22 2.353 . S
C28 O32 1.245 . S
C28 O33 1.259 . S
C29 O34 1.250 . S
C29 O35 1.263 . S
O30 Tb22 2.427 . S
O30 C26 1.275 . S
O31 Tb22 2.513 . S
O31 C26 1.246 . S
O32 Tb22 2.453 . S
O32 C28 1.245 . S
O33 Tb20 2.343 . S
O33 Tb22 2.596 . S
O33 C28 1.259 . S
O34 Tb22 2.374 . S
O34 C29 1.250 . S
O35 Tb20 2.353 . S
O35 C29 1.263 . S
C36 O37 1.275 . S
C36 O38 1.246 . S
O37 Tb20 2.427 . S
O37 C36 1.275 . S
O38 Tb20 2.513 . S
O38 C36 1.246 . S
C39 O23 1.245 . S
C39 O24 1.259 . S
Tb40 O43 2.453 . S
Tb40 O44 2.596 . S
Tb40 O45 2.374 . S
Tb40 O53 2.343 . S
Tb40 O55 2.353 . S
Tb40 O57 2.427 . S
Tb40 O58 2.513 . S
C41 O45 1.251 . S
C41 O47 1.263 . S
Tb42 O44 2.343 . S
Tb42 O47 2.353 . S
Tb42 O50 2.427 . S
Tb42 O51 2.513 . S
Tb42 O52 2.453 . S
Tb42 O53 2.596 . S
Tb42 O54 2.374 . S
O43 Tb40 2.453 . S
O43 C59 1.245 . S
O44 Tb40 2.596 . S
O44 Tb42 2.343 . S
O44 C59 1.259 . S
O45 Tb40 2.374 . S
O45 C41 1.251 . S
C46 O50 1.275 . S
C46 O51 1.246 . S
O47 C41 1.263 . S
O47 Tb42 2.353 . S
C48 O52 1.245 . S
C48 O53 1.259 . S
C49 O54 1.250 . S
C49 O55 1.263 . S
O50 Tb42 2.427 . S
O50 C46 1.275 . S
O51 Tb42 2.513 . S
O51 C46 1.246 . S
O52 Tb42 2.453 . S
O52 C48 1.245 . S
O53 Tb40 2.343 . S
O53 Tb42 2.596 . S
O53 C48 1.259 . S
O54 Tb42 2.374 . S
O54 C49 1.250 . S
O55 Tb40 2.353 . S
O55 C49 1.263 . S
C56 O57 1.275 . S
C56 O58 1.246 . S
O57 Tb40 2.427 . S
O57 C56 1.275 . S
O58 Tb40 2.513 . S
O58 C56 1.246 . S
C59 O43 1.245 . S
C59 O44 1.259 . S
Tb60 O63 2.453 . S
Tb60 O64 2.596 . S
Tb60 O65 2.374 . S
Tb60 O73 2.343 . S
Tb60 O75 2.353 . S
Tb60 O77 2.427 . S
Tb60 O78 2.513 . S
C61 O65 1.251 . S
C61 O67 1.263 . S
Tb62 O64 2.343 . S
Tb62 O67 2.353 . S
Tb62 O70 2.427 . S
Tb62 O71 2.513 . S
Tb62 O72 2.453 . S
Tb62 O73 2.596 . S
Tb62 O74 2.374 . S
O63 Tb60 2.453 . S
O63 C79 1.245 . S
O64 Tb60 2.596 . S
O64 Tb62 2.343 . S
O64 C79 1.259 . S
O65 Tb60 2.374 . S
O65 C61 1.251 . S
C66 O70 1.275 . S
C66 O71 1.246 . S
O67 C61 1.263 . S
O67 Tb62 2.353 . S
C68 O72 1.245 . S
C68 O73 1.259 . S
C69 O74 1.250 . S
C69 O75 1.263 . S
O70 Tb62 2.427 . S
O70 C66 1.275 . S
O71 Tb62 2.513 . S
O71 C66 1.246 . S
O72 Tb62 2.453 . S
O72 C68 1.245 . S
O73 Tb60 2.343 . S
O73 Tb62 2.596 . S
O73 C68 1.259 . S
O74 Tb62 2.374 . S
O74 C69 1.250 . S
O75 Tb60 2.353 . S
O75 C69 1.263 . S
C76 O77 1.275 . S
C76 O78 1.246 . S
O77 Tb60 2.427 . S
O77 C76 1.275 . S
O78 Tb60 2.513 . S
O78 C76 1.246 . S
C79 O63 1.245 . S
C79 O64 1.259 . S
Tb80 O83 2.453 . S
Tb80 O84 2.596 . S
Tb80 O85 2.374 . S
Tb80 O93 2.343 . S
Tb80 O95 2.353 . S
Tb80 O97 2.427 . S
Tb80 O98 2.513 . S
C81 O85 1.251 . S
C81 O87 1.263 . S
Tb82 O84 2.343 . S
Tb82 O87 2.353 . S
Tb82 O90 2.427 . S
Tb82 O91 2.513 . S
Tb82 O92 2.453 . S
Tb82 O93 2.596 . S
Tb82 O94 2.374 . S
O83 Tb80 2.453 . S
O83 C99 1.245 . S
O84 Tb80 2.596 . S
O84 Tb82 2.343 . S
O84 C99 1.259 . S
O85 Tb80 2.374 . S
O85 C81 1.251 . S
C86 O90 1.275 . S
C86 O91 1.246 . S
O87 C81 1.263 . S
O87 Tb82 2.353 . S
C88 O92 1.245 . S
C88 O93 1.259 . S
C89 O94 1.250 . S
C89 O95 1.263 . S
O90 Tb82 2.427 . S
O90 C86 1.275 . S
O91 Tb82 2.513 . S
O91 C86 1.246 . S
O92 Tb82 2.453 . S
O92 C88 1.245 . S
O93 Tb80 2.343 . S
O93 Tb82 2.596 . S
O93 C88 1.259 . S
O94 Tb82 2.374 . S
O94 C89 1.250 . S
O95 Tb80 2.353 . S
O95 C89 1.263 . S
C96 O97 1.275 . S
C96 O98 1.246 . S
O97 Tb80 2.427 . S
O97 C96 1.275 . S
O98 Tb80 2.513 . S
O98 C96 1.246 . S
C99 O83 1.245 . S
C99 O84 1.259 . S
Tb100 O103 2.453 . S
Tb100 O104 2.596 . S
Tb100 O105 2.374 . S
Tb100 O113 2.343 . S
Tb100 O115 2.353 . S
Tb100 O117 2.427 . S
Tb100 O118 2.513 . S
C101 O105 1.251 . S
C101 O107 1.263 . S
Tb102 O104 2.343 . S
Tb102 O107 2.353 . S
Tb102 O110 2.427 . S
Tb102 O111 2.513 . S
Tb102 O112 2.453 . S
Tb102 O113 2.596 . S
Tb102 O114 2.374 . S
O103 Tb100 2.453 . S
O103 C119 1.245 . S
O104 Tb100 2.596 . S
O104 Tb102 2.343 . S
O104 C119 1.259 . S
O105 Tb100 2.374 . S
O105 C101 1.251 . S
C106 O110 1.275 . S
C106 O111 1.246 . S
O107 C101 1.263 . S
O107 Tb102 2.353 . S
C108 O112 1.245 . S
C108 O113 1.259 . S
C109 O114 1.250 . S
C109 O115 1.263 . S
O110 Tb102 2.427 . S
O110 C106 1.275 . S
O111 Tb102 2.513 . S
O111 C106 1.246 . S
O112 Tb102 2.453 . S
O112 C108 1.245 . S
O113 Tb100 2.343 . S
O113 Tb102 2.596 . S
O113 C108 1.259 . S
O114 Tb102 2.374 . S
O114 C109 1.250 . S
O115 Tb100 2.353 . S
O115 C109 1.263 . S
C116 O117 1.275 . S
C116 O118 1.246 . S
O117 Tb100 2.427 . S
O117 C116 1.275 . S
O118 Tb100 2.513 . S
O118 C116 1.246 . S
C119 O103 1.245 . S
C119 O104 1.259 . S
Tb120 O123 2.453 . S
Tb120 O124 2.596 . S
Tb120 O125 2.374 . S
Tb120 O133 2.343 . S
Tb120 O135 2.353 . S
Tb120 O137 2.427 . S
Tb120 O138 2.513 . S
C121 O125 1.251 . S
C121 O127 1.263 . S
Tb122 O124 2.343 . S
Tb122 O127 2.353 . S
Tb122 O130 2.427 . S
Tb122 O131 2.513 . S
Tb122 O132 2.453 . S
Tb122 O133 2.596 . S
Tb122 O134 2.374 . S
O123 Tb120 2.453 . S
O123 C139 1.245 . S
O124 Tb120 2.596 . S
O124 Tb122 2.343 . S
O124 C139 1.259 . S
O125 Tb120 2.374 . S
O125 C121 1.251 . S
C126 O130 1.275 . S
C126 O131 1.246 . S
O127 C121 1.263 . S
O127 Tb122 2.353 . S
C128 O132 1.245 . S
C128 O133 1.259 . S
C129 O134 1.250 . S
C129 O135 1.263 . S
O130 Tb122 2.427 . S
O130 C126 1.275 . S
O131 Tb122 2.513 . S
O131 C126 1.246 . S
O132 Tb122 2.453 . S
O132 C128 1.245 . S
O133 Tb120 2.343 . S
O133 Tb122 2.596 . S
O133 C128 1.259 . S
O134 Tb122 2.374 . S
O134 C129 1.250 . S
O135 Tb120 2.353 . S
O135 C129 1.263 . S
C136 O137 1.275 . S
C136 O138 1.246 . S
O137 Tb120 2.427 . S
O137 C136 1.275 . S
O138 Tb120 2.513 . S
O138 C136 1.246 . S
C139 O123 1.245 . S
C139 O124 1.259 . S
Tb140 O143 2.453 . S
Tb140 O144 2.596 . S
Tb140 O145 2.374 . S
Tb140 O153 2.343 . S
Tb140 O155 2.353 . S
Tb140 O157 2.427 . S
Tb140 O158 2.513 . S
C141 O145 1.251 . S
C141 O147 1.263 . S
Tb142 O144 2.343 . S
Tb142 O147 2.353 . S
Tb142 O150 2.427 . S
Tb142 O151 2.513 . S
Tb142 O152 2.453 . S
Tb142 O153 2.596 . S
Tb142 O154 2.374 . S
O143 Tb140 2.453 . S
O143 C159 1.245 . S
O144 Tb140 2.596 . S
O144 Tb142 2.343 . S
O144 C159 1.259 . S
O145 Tb140 2.374 . S
O145 C141 1.251 . S
C146 O150 1.275 . S
C146 O151 1.246 . S
O147 C141 1.263 . S
O147 Tb142 2.353 . S
C148 O152 1.245 . S
C148 O153 1.259 . S
C149 O154 1.250 . S
C149 O155 1.263 . S
O150 Tb142 2.427 . S
O150 C146 1.275 . S
O151 Tb142 2.513 . S
O151 C146 1.246 . S
O152 Tb142 2.453 . S
O152 C148 1.245 . S
O153 Tb140 2.343 . S
O153 Tb142 2.596 . S
O153 C148 1.259 . S
O154 Tb142 2.374 . S
O154 C149 1.250 . S
O155 Tb140 2.353 . S
O155 C149 1.263 . S
C156 O157 1.275 . S
C156 O158 1.246 . S
O157 Tb140 2.427 . S
O157 C156 1.275 . S
O158 Tb140 2.513 . S
O158 C156 1.246 . S
C159 O143 1.245 . S
C159 O144 1.259 . S
Tb160 O163 2.453 . S
Tb160 O164 2.596 . S
Tb160 O165 2.374 . S
Tb160 O173 2.343 . S
Tb160 O175 2.353 . S
Tb160 O177 2.427 . S
Tb160 O178 2.513 . S
C161 O165 1.251 . S
C161 O167 1.263 . S
Tb162 O164 2.343 . S
Tb162 O167 2.353 . S
Tb162 O170 2.427 . S
Tb162 O171 2.513 . S
Tb162 O172 2.453 . S
Tb162 O173 2.596 . S
Tb162 O174 2.374 . S
O163 Tb160 2.453 . S
O163 C179 1.245 . S
O164 Tb160 2.596 . S
O164 Tb162 2.343 . S
O164 C179 1.259 . S
O165 Tb160 2.374 . S
O165 C161 1.251 . S
C166 O170 1.275 . S
C166 O171 1.246 . S
O167 C161 1.263 . S
O167 Tb162 2.353 . S
C168 O172 1.245 . S
C168 O173 1.259 . S
C169 O174 1.250 . S
C169 O175 1.263 . S
O170 Tb162 2.427 . S
O170 C166 1.275 . S
O171 Tb162 2.513 . S
O171 C166 1.246 . S
O172 Tb162 2.453 . S
O172 C168 1.245 . S
O173 Tb160 2.343 . S
O173 Tb162 2.596 . S
O173 C168 1.259 . S
O174 Tb162 2.374 . S
O174 C169 1.250 . S
O175 Tb160 2.353 . S
O175 C169 1.263 . S
C176 O177 1.275 . S
C176 O178 1.246 . S
O177 Tb160 2.427 . S
O177 C176 1.275 . S
O178 Tb160 2.513 . S
O178 C176 1.246 . S
C179 O163 1.245 . S
C179 O164 1.259 . S
Tb180 O183 2.453 . S
Tb180 O184 2.596 . S
Tb180 O185 2.374 . S
Tb180 O193 2.343 . S
Tb180 O195 2.353 . S
Tb180 O197 2.427 . S
Tb180 O198 2.513 . S
C181 O185 1.251 . S
C181 O187 1.263 . S
Tb182 O184 2.343 . S
Tb182 O187 2.353 . S
Tb182 O190 2.427 . S
Tb182 O191 2.513 . S
Tb182 O192 2.453 . S
Tb182 O193 2.596 . S
Tb182 O194 2.374 . S
O183 Tb180 2.453 . S
O183 C199 1.245 . S
O184 Tb180 2.596 . S
O184 Tb182 2.343 . S
O184 C199 1.259 . S
O185 Tb180 2.374 . S
O185 C181 1.251 . S
C186 O190 1.275 . S
C186 O191 1.246 . S
O187 C181 1.263 . S
O187 Tb182 2.353 . S
C188 O192 1.245 . S
C188 O193 1.259 . S
C189 O194 1.250 . S
C189 O195 1.263 . S
O190 Tb182 2.427 . S
O190 C186 1.275 . S
O191 Tb182 2.513 . S
O191 C186 1.246 . S
O192 Tb182 2.453 . S
O192 C188 1.245 . S
O193 Tb180 2.343 . S
O193 Tb182 2.596 . S
O193 C188 1.259 . S
O194 Tb182 2.374 . S
O194 C189 1.250 . S
O195 Tb180 2.353 . S
O195 C189 1.263 . S
C196 O197 1.275 . S
C196 O198 1.246 . S
O197 Tb180 2.427 . S
O197 C196 1.275 . S
O198 Tb180 2.513 . S
O198 C196 1.246 . S
C199 O183 1.245 . S
C199 O184 1.259 . S
Tb200 O203 2.453 . S
Tb200 O204 2.596 . S
Tb200 O205 2.374 . S
Tb200 O213 2.343 . S
Tb200 O215 2.353 . S
Tb200 O217 2.427 . S
Tb200 O218 2.513 . S
C201 O205 1.251 . S
C201 O207 1.263 . S
Tb202 O204 2.343 . S
Tb202 O207 2.353 . S
Tb202 O210 2.427 . S
Tb202 O211 2.513 . S
Tb202 O212 2.453 . S
Tb202 O213 2.596 . S
Tb202 O214 2.374 . S
O203 Tb200 2.453 . S
O203 C219 1.245 . S
O204 Tb200 2.596 . S
O204 Tb202 2.343 . S
O204 C219 1.259 . S
O205 Tb200 2.374 . S
O205 C201 1.251 . S
C206 O210 1.275 . S
C206 O211 1.246 . S
O207 C201 1.263 . S
O207 Tb202 2.353 . S
C208 O212 1.245 . S
C208 O213 1.259 . S
C209 O214 1.250 . S
C209 O215 1.263 . S
O210 Tb202 2.427 . S
O210 C206 1.275 . S
O211 Tb202 2.513 . S
O211 C206 1.246 . S
O212 Tb202 2.453 . S
O212 C208 1.245 . S
O213 Tb200 2.343 . S
O213 Tb202 2.596 . S
O213 C208 1.259 . S
O214 Tb202 2.374 . S
O214 C209 1.250 . S
O215 Tb200 2.353 . S
O215 C209 1.263 . S
C216 O217 1.275 . S
C216 O218 1.246 . S
O217 Tb200 2.427 . S
O217 C216 1.275 . S
O218 Tb200 2.513 . S
O218 C216 1.246 . S
C219 O203 1.245 . S
C219 O204 1.259 . S
Tb220 O223 2.453 . S
Tb220 O224 2.596 . S
Tb220 O225 2.374 . S
Tb220 O233 2.343 . S
Tb220 O235 2.353 . S
Tb220 O237 2.427 . S
Tb220 O238 2.513 . S
C221 O225 1.251 . S
C221 O227 1.263 . S
Tb222 O224 2.343 . S
Tb222 O227 2.353 . S
Tb222 O230 2.427 . S
Tb222 O231 2.513 . S
Tb222 O232 2.453 . S
Tb222 O233 2.596 . S
Tb222 O234 2.374 . S
O223 Tb220 2.453 . S
O223 C239 1.245 . S
O224 Tb220 2.596 . S
O224 Tb222 2.343 . S
O224 C239 1.259 . S
O225 Tb220 2.374 . S
O225 C221 1.251 . S
C226 O230 1.275 . S
C226 O231 1.246 . S
O227 C221 1.263 . S
O227 Tb222 2.353 . S
C228 O232 1.245 . S
C228 O233 1.259 . S
C229 O234 1.250 . S
C229 O235 1.263 . S
O230 Tb222 2.427 . S
O230 C226 1.275 . S
O231 Tb222 2.513 . S
O231 C226 1.246 . S
O232 Tb222 2.453 . S
O232 C228 1.245 . S
O233 Tb220 2.343 . S
O233 Tb222 2.596 . S
O233 C228 1.259 . S
O234 Tb222 2.374 . S
O234 C229 1.250 . S
O235 Tb220 2.353 . S
O235 C229 1.263 . S
C236 O237 1.275 . S
C236 O238 1.246 . S
O237 Tb220 2.427 . S
O237 C236 1.275 . S
O238 Tb220 2.513 . S
O238 C236 1.246 . S
C239 O223 1.245 . S
C239 O224 1.259 . S
Tb240 O243 2.453 . S
Tb240 O244 2.596 . S
Tb240 O245 2.374 . S
Tb240 O253 2.343 . S
Tb240 O255 2.353 . S
Tb240 O257 2.427 . S
Tb240 O258 2.513 . S
C241 O245 1.251 . S
C241 O247 1.263 . S
Tb242 O244 2.343 . S
Tb242 O247 2.353 . S
Tb242 O250 2.427 . S
Tb242 O251 2.513 . S
Tb242 O252 2.453 . S
Tb242 O253 2.596 . S
Tb242 O254 2.374 . S
O243 Tb240 2.453 . S
O243 C259 1.245 . S
O244 Tb240 2.596 . S
O244 Tb242 2.343 . S
O244 C259 1.259 . S
O245 Tb240 2.374 . S
O245 C241 1.251 . S
C246 O250 1.275 . S
C246 O251 1.246 . S
O247 C241 1.263 . S
O247 Tb242 2.353 . S
C248 O252 1.245 . S
C248 O253 1.259 . S
C249 O254 1.250 . S
C249 O255 1.263 . S
O250 Tb242 2.427 . S
O250 C246 1.275 . S
O251 Tb242 2.513 . S
O251 C246 1.246 . S
O252 Tb242 2.453 . S
O252 C248 1.245 . S
O253 Tb240 2.343 . S
O253 Tb242 2.596 . S
O253 C248 1.259 . S
O254 Tb242 2.374 . S
O254 C249 1.250 . S
O255 Tb240 2.353 . S
O255 C249 1.263 . S
C256 O257 1.275 . S
C256 O258 1.246 . S
O257 Tb240 2.427 . S
O257 C256 1.275 . S
O258 Tb240 2.513 . S
O258 C256 1.246 . S
C259 O243 1.245 . S
C259 O244 1.259 . S
Tb260 O263 2.453 . S
Tb260 O264 2.596 . S
Tb260 O265 2.374 . S
Tb260 O273 2.343 . S
Tb260 O275 2.353 . S
Tb260 O277 2.427 . S
Tb260 O278 2.513 . S
C261 O265 1.251 . S
C261 O267 1.263 . S
Tb262 O264 2.343 . S
Tb262 O267 2.353 . S
Tb262 O270 2.427 . S
Tb262 O271 2.513 . S
Tb262 O272 2.453 . S
Tb262 O273 2.596 . S
Tb262 O274 2.374 . S
O263 Tb260 2.453 . S
O263 C279 1.245 . S
O264 Tb260 2.596 . S
O264 Tb262 2.343 . S
O264 C279 1.259 . S
O265 Tb260 2.374 . S
O265 C261 1.251 . S
C266 O270 1.275 . S
C266 O271 1.246 . S
O267 C261 1.263 . S
O267 Tb262 2.353 . S
C268 O272 1.245 . S
C268 O273 1.259 . S
C269 O274 1.250 . S
C269 O275 1.263 . S
O270 Tb262 2.427 . S
O270 C266 1.275 . S
O271 Tb262 2.513 . S
O271 C266 1.246 . S
O272 Tb262 2.453 . S
O272 C268 1.245 . S
O273 Tb260 2.343 . S
O273 Tb262 2.596 . S
O273 C268 1.259 . S
O274 Tb262 2.374 . S
O274 C269 1.250 . S
O275 Tb260 2.353 . S
O275 C269 1.263 . S
C276 O277 1.275 . S
C276 O278 1.246 . S
O277 Tb260 2.427 . S
O277 C276 1.275 . S
O278 Tb260 2.513 . S
O278 C276 1.246 . S
C279 O263 1.245 . S
C279 O264 1.259 . S
Tb280 O283 2.453 . S
Tb280 O284 2.596 . S
Tb280 O285 2.374 . S
Tb280 O293 2.343 . S
Tb280 O295 2.353 . S
Tb280 O297 2.427 . S
Tb280 O298 2.513 . S
C281 O285 1.251 . S
C281 O287 1.263 . S
Tb282 O284 2.343 . S
Tb282 O287 2.353 . S
Tb282 O290 2.427 . S
Tb282 O291 2.513 . S
Tb282 O292 2.453 . S
Tb282 O293 2.596 . S
Tb282 O294 2.374 . S
O283 Tb280 2.453 . S
O283 C299 1.245 . S
O284 Tb280 2.596 . S
O284 Tb282 2.343 . S
O284 C299 1.259 . S
O285 Tb280 2.374 . S
O285 C281 1.251 . S
C286 O290 1.275 . S
C286 O291 1.246 . S
O287 C281 1.263 . S
O287 Tb282 2.353 . S
C288 O292 1.245 . S
C288 O293 1.259 . S
C289 O294 1.250 . S
C289 O295 1.263 . S
O290 Tb282 2.427 . S
O290 C286 1.275 . S
O291 Tb282 2.513 . S
O291 C286 1.246 . S
O292 Tb282 2.453 . S
O292 C288 1.245 . S
O293 Tb280 2.343 . S
O293 Tb282 2.596 . S
O293 C288 1.259 . S
O294 Tb282 2.374 . S
O294 C289 1.250 . S
O295 Tb280 2.353 . S
O295 C289 1.263 . S
C296 O297 1.275 . S
C296 O298 1.246 . S
O297 Tb280 2.427 . S
O297 C296 1.275 . S
O298 Tb280 2.513 . S
O298 C296 1.246 . S
C299 O283 1.245 . S
C299 O284 1.259 . S
Tb300 O303 2.453 . S
Tb300 O304 2.596 . S
Tb300 O305 2.374 . S
Tb300 O313 2.343 . S
Tb300 O315 2.353 . S
Tb300 O317 2.427 . S
Tb300 O318 2.513 . S
C301 O305 1.251 . S
C301 O307 1.263 . S
Tb302 O304 2.343 . S
Tb302 O307 2.353 . S
Tb302 O310 2.427 . S
Tb302 O311 2.513 . S
Tb302 O312 2.453 . S
Tb302 O313 2.596 . S
Tb302 O314 2.374 . S
O303 Tb300 2.453 . S
O303 C319 1.245 . S
O304 Tb300 2.596 . S
O304 Tb302 2.343 . S
O304 C319 1.259 . S
O305 Tb300 2.374 . S
O305 C301 1.251 . S
C306 O310 1.275 . S
C306 O311 1.246 . S
O307 C301 1.263 . S
O307 Tb302 2.353 . S
C308 O312 1.245 . S
C308 O313 1.259 . S
C309 O314 1.250 . S
C309 O315 1.263 . S
O310 Tb302 2.427 . S
O310 C306 1.275 . S
O311 Tb302 2.513 . S
O311 C306 1.246 . S
O312 Tb302 2.453 . S
O312 C308 1.245 . S
O313 Tb300 2.343 . S
O313 Tb302 2.596 . S
O313 C308 1.259 . S
O314 Tb302 2.374 . S
O314 C309 1.250 . S
O315 Tb300 2.353 . S
O315 C309 1.263 . S
C316 O317 1.275 . S
C316 O318 1.246 . S
O317 Tb300 2.427 . S
O317 C316 1.275 . S
O318 Tb300 2.513 . S
O318 C316 1.246 . S
C319 O303 1.245 . S
C319 O304 1.259 . S
Tb320 O323 2.453 . S
Tb320 O324 2.596 . S
Tb320 O325 2.374 . S
Tb320 O333 2.343 . S
Tb320 O335 2.353 . S
Tb320 O337 2.427 . S
Tb320 O338 2.513 . S
C321 O325 1.251 . S
C321 O327 1.263 . S
Tb322 O324 2.343 . S
Tb322 O327 2.353 . S
Tb322 O330 2.427 . S
Tb322 O331 2.513 . S
Tb322 O332 2.453 . S
Tb322 O333 2.596 . S
Tb322 O334 2.374 . S
O323 Tb320 2.453 . S
O323 C339 1.245 . S
O324 Tb320 2.596 . S
O324 Tb322 2.343 . S
O324 C339 1.259 . S
O325 Tb320 2.374 . S
O325 C321 1.251 . S
C326 O330 1.275 . S
C326 O331 1.246 . S
O327 C321 1.263 . S
O327 Tb322 2.353 . S
C328 O332 1.245 . S
C328 O333 1.259 . S
C329 O334 1.250 . S
C329 O335 1.263 . S
O330 Tb322 2.427 . S
O330 C326 1.275 . S
O331 Tb322 2.513 . S
O331 C326 1.246 . S
O332 Tb322 2.453 . S
O332 C328 1.245 . S
O333 Tb320 2.343 . S
O333 Tb322 2.596 . S
O333 C328 1.259 . S
O334 Tb322 2.374 . S
O334 C329 1.250 . S
O335 Tb320 2.353 . S
O335 C329 1.263 . S
C336 O337 1.275 . S
C336 O338 1.246 . S
O337 Tb320 2.427 . S
O337 C336 1.275 . S
O338 Tb320 2.513 . S
O338 C336 1.246 . S
C339 O323 1.245 . S
C339 O324 1.259 . S
Tb340 O343 2.453 . S
Tb340 O344 2.596 . S
Tb340 O345 2.374 . S
Tb340 O353 2.343 . S
Tb340 O355 2.353 . S
Tb340 O357 2.427 . S
Tb340 O358 2.513 . S
C341 O345 1.251 . S
C341 O347 1.263 . S
Tb342 O344 2.343 . S
Tb342 O347 2.353 . S
Tb342 O350 2.427 . S
Tb342 O351 2.513 . S
Tb342 O352 2.453 . S
Tb342 O353 2.596 . S
Tb342 O354 2.374 . S
O343 Tb340 2.453 . S
O343 C359 1.245 . S
O344 Tb340 2.596 . S
O344 Tb342 2.343 . S
O344 C359 1.259 . S
O345 Tb340 2.374 . S
O345 C341 1.251 . S
C346 O350 1.275 . S
C346 O351 1.246 . S
O347 C341 1.263 . S
O347 Tb342 2.353 . S
C348 O352 1.245 . S
C348 O353 1.259 . S
C349 O354 1.250 . S
C349 O355 1.263 . S
O350 Tb342 2.427 . S
O350 C346 1.275 . S
O351 Tb342 2.513 . S
O351 C346 1.246 . S
O352 Tb342 2.453 . S
O352 C348 1.245 . S
O353 Tb340 2.343 . S
O353 Tb342 2.596 . S
O353 C348 1.259 . S
O354 Tb342 2.374 . S
O354 C349 1.250 . S
O355 Tb340 2.353 . S
O355 C349 1.263 . S
C356 O357 1.275 . S
C356 O358 1.246 . S
O357 Tb340 2.427 . S
O357 C356 1.275 . S
O358 Tb340 2.513 . S
O358 C356 1.246 . S
C359 O343 1.245 . S
C359 O344 1.259 . S
Tb360 O363 2.453 . S
Tb360 O364 2.596 . S
Tb360 O365 2.374 . S
Tb360 O373 2.343 . S
Tb360 O375 2.353 . S
Tb360 O377 2.427 . S
Tb360 O378 2.513 . S
C361 O365 1.251 . S
C361 O367 1.263 . S
Tb362 O364 2.343 . S
Tb362 O367 2.353 . S
Tb362 O370 2.427 . S
Tb362 O371 2.513 . S
Tb362 O372 2.453 . S
Tb362 O373 2.596 . S
Tb362 O374 2.374 . S
O363 Tb360 2.453 . S
O363 C379 1.245 . S
O364 Tb360 2.596 . S
O364 Tb362 2.343 . S
O364 C379 1.259 . S
O365 Tb360 2.374 . S
O365 C361 1.251 . S
C366 O370 1.275 . S
C366 O371 1.246 . S
O367 C361 1.263 . S
O367 Tb362 2.353 . S
C368 O372 1.245 . S
C368 O373 1.259 . S
C369 O374 1.250 . S
C369 O375 1.263 . S
O370 Tb362 2.427 . S
O370 C366 1.275 . S
O371 Tb362 2.513 . S
O371 C366 1.246 . S
O372 Tb362 2.453 . S
O372 C368 1.245 . S
O373 Tb360 2.343 . S
O373 Tb362 2.596 . S
O373 C368 1.259 . S
O374 Tb362 2.374 . S
O374 C369 1.250 . S
O375 Tb360 2.353 . S
O375 C369 1.263 . S
C376 O377 1.275 . S
C376 O378 1.246 . S
O377 Tb360 2.427 . S
O377 C376 1.275 . S
O378 Tb360 2.513 . S
O378 C376 1.246 . S
C379 O363 1.245 . S
C379 O364 1.259 . S
Tb380 O383 2.453 . S
Tb380 O384 2.596 . S
Tb380 O385 2.374 . S
Tb380 O393 2.343 . S
Tb380 O395 2.353 . S
Tb380 O397 2.427 . S
Tb380 O398 2.513 . S
C381 O385 1.251 . S
C381 O387 1.263 . S
Tb382 O384 2.343 . S
Tb382 O387 2.353 . S
Tb382 O390 2.427 . S
Tb382 O391 2.513 . S
Tb382 O392 2.453 . S
Tb382 O393 2.596 . S
Tb382 O394 2.374 . S
O383 Tb380 2.453 . S
O383 C399 1.245 . S
O384 Tb380 2.596 . S
O384 Tb382 2.343 . S
O384 C399 1.259 . S
O385 Tb380 2.374 . S
O385 C381 1.251 . S
C386 O390 1.275 . S
C386 O391 1.246 . S
O387 C381 1.263 . S
O387 Tb382 2.353 . S
C388 O392 1.245 . S
C388 O393 1.259 . S
C389 O394 1.250 . S
C389 O395 1.263 . S
O390 Tb382 2.427 . S
O390 C386 1.275 . S
O391 Tb382 2.513 . S
O391 C386 1.246 . S
O392 Tb382 2.453 . S
O392 C388 1.245 . S
O393 Tb380 2.343 . S
O393 Tb382 2.596 . S
O393 C388 1.259 . S
O394 Tb382 2.374 . S
O394 C389 1.250 . S
O395 Tb380 2.353 . S
O395 C389 1.263 . S
C396 O397 1.275 . S
C396 O398 1.246 . S
O397 Tb380 2.427 . S
O397 C396 1.275 . S
O398 Tb380 2.513 . S
O398 C396 1.246 . S
C399 O383 1.245 . S
C399 O384 1.259 . S
Tb400 O403 2.453 . S
Tb400 O404 2.596 . S
Tb400 O405 2.374 . S
Tb400 O413 2.343 . S
Tb400 O415 2.353 . S
Tb400 O417 2.427 . S
Tb400 O418 2.513 . S
C401 O405 1.251 . S
C401 O407 1.263 . S
Tb402 O404 2.343 . S
Tb402 O407 2.353 . S
Tb402 O410 2.427 . S
Tb402 O411 2.513 . S
Tb402 O412 2.453 . S
Tb402 O413 2.596 . S
Tb402 O414 2.374 . S
O403 Tb400 2.453 . S
O403 C419 1.245 . S
O404 Tb400 2.596 . S
O404 Tb402 2.343 . S
O404 C419 1.259 . S
O405 Tb400 2.374 . S
O405 C401 1.251 . S
C406 O410 1.275 . S
C406 O411 1.246 . S
O407 C401 1.263 . S
O407 Tb402 2.353 . S
C408 O412 1.245 . S
C408 O413 1.259 . S
C409 O414 1.250 . S
C409 O415 1.263 . S
O410 Tb402 2.427 . S
O410 C406 1.275 . S
O411 Tb402 2.513 . S
O411 C406 1.246 . S
O412 Tb402 2.453 . S
O412 C408 1.245 . S
O413 Tb400 2.343 . S
O413 Tb402 2.596 . S
O413 C408 1.259 . S
O414 Tb402 2.374 . S
O414 C409 1.250 . S
O415 Tb400 2.353 . S
O415 C409 1.263 . S
C416 O417 1.275 . S
C416 O418 1.246 . S
O417 Tb400 2.427 . S
O417 C416 1.275 . S
O418 Tb400 2.513 . S
O418 C416 1.246 . S
C419 O403 1.245 . S
C419 O404 1.259 . S
Tb420 O423 2.453 . S
Tb420 O424 2.596 . S
Tb420 O425 2.374 . S
Tb420 O433 2.343 . S
Tb420 O435 2.353 . S
Tb420 O437 2.427 . S
Tb420 O438 2.513 . S
C421 O425 1.251 . S
C421 O427 1.263 . S
Tb422 O424 2.343 . S
Tb422 O427 2.353 . S
Tb422 O430 2.427 . S
Tb422 O431 2.513 . S
Tb422 O432 2.453 . S
Tb422 O433 2.596 . S
Tb422 O434 2.374 . S
O423 Tb420 2.453 . S
O423 C439 1.245 . S
O424 Tb420 2.596 . S
O424 Tb422 2.343 . S
O424 C439 1.259 . S
O425 Tb420 2.374 . S
O425 C421 1.251 . S
C426 O430 1.275 . S
C426 O431 1.246 . S
O427 C421 1.263 . S
O427 Tb422 2.353 . S
C428 O432 1.245 . S
C428 O433 1.259 . S
C429 O434 1.250 . S
C429 O435 1.263 . S
O430 Tb422 2.427 . S
O430 C426 1.275 . S
O431 Tb422 2.513 . S
O431 C426 1.246 . S
O432 Tb422 2.453 . S
O432 C428 1.245 . S
O433 Tb420 2.343 . S
O433 Tb422 2.596 . S
O433 C428 1.259 . S
O434 Tb422 2.374 . S
O434 C429 1.250 . S
O435 Tb420 2.353 . S
O435 C429 1.263 . S
C436 O437 1.275 . S
C436 O438 1.246 . S
O437 Tb420 2.427 . S
O437 C436 1.275 . S
O438 Tb420 2.513 . S
O438 C436 1.246 . S
C439 O423 1.245 . S
C439 O424 1.259 . S
Tb440 O443 2.453 . S
Tb440 O444 2.596 . S
Tb440 O445 2.374 . S
Tb440 O453 2.343 . S
Tb440 O455 2.353 . S
Tb440 O457 2.427 . S
Tb440 O458 2.513 . S
C441 O445 1.251 . S
C441 O447 1.263 . S
Tb442 O444 2.343 . S
Tb442 O447 2.353 . S
Tb442 O450 2.427 . S
Tb442 O451 2.513 . S
Tb442 O452 2.453 . S
Tb442 O453 2.596 . S
Tb442 O454 2.374 . S
O443 Tb440 2.453 . S
O443 C459 1.245 . S
O444 Tb440 2.596 . S
O444 Tb442 2.343 . S
O444 C459 1.259 . S
O445 Tb440 2.374 . S
O445 C441 1.251 . S
C446 O450 1.275 . S
C446 O451 1.246 . S
O447 C441 1.263 . S
O447 Tb442 2.353 . S
C448 O452 1.245 . S
C448 O453 1.259 . S
C449 O454 1.250 . S
C449 O455 1.263 . S
O450 Tb442 2.427 . S
O450 C446 1.275 . S
O451 Tb442 2.513 . S
O451 C446 1.246 . S
O452 Tb442 2.453 . S
O452 C448 1.245 . S
O453 Tb440 2.343 . S
O453 Tb442 2.596 . S
O453 C448 1.259 . S
O454 Tb442 2.374 . S
O454 C449 1.250 . S
O455 Tb440 2.353 . S
O455 C449 1.263 . S
C456 O457 1.275 . S
C456 O458 1.246 . S
O457 Tb440 2.427 . S
O457 C456 1.275 . S
O458 Tb440 2.513 . S
O458 C456 1.246 . S
C459 O443 1.245 . S
C459 O444 1.259 . S
Tb460 O463 2.453 . S
Tb460 O464 2.596 . S
Tb460 O465 2.374 . S
Tb460 O473 2.343 . S
Tb460 O475 2.353 . S
Tb460 O477 2.427 . S
Tb460 O478 2.513 . S
C461 O465 1.251 . S
C461 O467 1.263 . S
Tb462 O464 2.343 . S
Tb462 O467 2.353 . S
Tb462 O470 2.427 . S
Tb462 O471 2.513 . S
Tb462 O472 2.453 . S
Tb462 O473 2.596 . S
Tb462 O474 2.374 . S
O463 Tb460 2.453 . S
O463 C479 1.245 . S
O464 Tb460 2.596 . S
O464 Tb462 2.343 . S
O464 C479 1.259 . S
O465 Tb460 2.374 . S
O465 C461 1.251 . S
C466 O470 1.275 . S
C466 O471 1.246 . S
O467 C461 1.263 . S
O467 Tb462 2.353 . S
C468 O472 1.245 . S
C468 O473 1.259 . S
C469 O474 1.250 . S
C469 O475 1.263 . S
O470 Tb462 2.427 . S
O470 C466 1.275 . S
O471 Tb462 2.513 . S
O471 C466 1.246 . S
O472 Tb462 2.453 . S
O472 C468 1.245 . S
O473 Tb460 2.343 . S
O473 Tb462 2.596 . S
O473 C468 1.259 . S
O474 Tb462 2.374 . S
O474 C469 1.250 . S
O475 Tb460 2.353 . S
O475 C469 1.263 . S
C476 O477 1.275 . S
C476 O478 1.246 . S
O477 Tb460 2.427 . S
O477 C476 1.275 . S
O478 Tb460 2.513 . S
O478 C476 1.246 . S
C479 O463 1.245 . S
C479 O464 1.259 . S
Tb480 O483 2.453 . S
Tb480 O484 2.596 . S
Tb480 O485 2.374 . S
Tb480 O493 2.343 . S
Tb480 O495 2.353 . S
Tb480 O497 2.427 . S
Tb480 O498 2.513 . S
C481 O485 1.251 . S
C481 O487 1.263 . S
Tb482 O484 2.343 . S
Tb482 O487 2.353 . S
Tb482 O490 2.427 . S
Tb482 O491 2.513 . S
Tb482 O492 2.453 . S
Tb482 O493 2.596 . S
Tb482 O494 2.374 . S
O483 Tb480 2.453 . S
O483 C499 1.245 . S
O484 Tb480 2.596 . S
O484 Tb482 2.343 . S
O484 C499 1.259 . S
O485 Tb480 2.374 . S
O485 C481 1.251 . S
C486 O490 1.275 . S
C486 O491 1.246 . S
O487 C481 1.263 . S
O487 Tb482 2.353 . S
C488 O492 1.245 . S
C488 O493 1.259 . S
C489 O494 1.250 . S
C489 O495 1.263 . S
O490 Tb482 2.427 . S
O490 C486 1.275 . S
O491 Tb482 2.513 . S
O491 C486 1.246 . S
O492 Tb482 2.453 . S
O492 C488 1.245 . S
O493 Tb480 2.343 . S
O493 Tb482 2.596 . S
O493 C488 1.259 . S
O494 Tb482 2.374 . S
O494 C489 1.250 . S
O495 Tb480 2.353 . S
O495 C489 1.263 . S
C496 O497 1.275 . S
C496 O498 1.246 . S
O497 Tb480 2.427 . S
O497 C496 1.275 . S
O498 Tb480 2.513 . S
O498 C496 1.246 . S
C499 O483 1.245 . S
C499 O484 1.259 . S
Tb500 O503 2.453 . S
Tb500 O504 2.596 . S
Tb500 O505 2.374 . S
Tb500 O513 2.343 . S
Tb500 O515 2.353 . S
Tb500 O517 2.427 . S
Tb500 O518 2.513 . S
C501 O505 1.251 . S
C501 O507 1.263 . S
Tb502 O504 2.343 . S
Tb502 O507 2.353 . S
Tb502 O510 2.427 . S
Tb502 O511 2.513 . S
Tb502 O512 2.453 . S
Tb502 O513 2.596 . S
Tb502 O514 2.374 . S
O503 Tb500 2.453 . S
O503 C519 1.245 . S
O504 Tb500 2.596 . S
O504 Tb502 2.343 . S
O504 C519 1.259 . S
O505 Tb500 2.374 . S
O505 C501 1.251 . S
C506 O510 1.275 . S
C506 O511 1.246 . S
O507 C501 1.263 . S
O507 Tb502 2.353 . S
C508 O512 1.245 . S
C508 O513 1.259 . S
C509 O514 1.250 . S
C509 O515 1.263 . S
O510 Tb502 2.427 . S
O510 C506 1.275 . S
O511 Tb502 2.513 . S
O511 C506 1.246 . S
O512 Tb502 2.453 . S
O512 C508 1.245 . S
O513 Tb500 2.343 . S
O513 Tb502 2.596 . S
O513 C508 1.259 . S
O514 Tb502 2.374 . S
O514 C509 1.250 . S
O515 Tb500 2.353 . S
O515 C509 1.263 . S
C516 O517 1.275 . S
C516 O518 1.246 . S
O517 Tb500 2.427 . S
O517 C516 1.275 . S
O518 Tb500 2.513 . S
O518 C516 1.246 . S
C519 O503 1.245 . S
C519 O504 1.259 . S
Tb520 O523 2.453 . S
Tb520 O524 2.596 . S
Tb520 O525 2.374 . S
Tb520 O533 2.343 . S
Tb520 O535 2.353 . S
Tb520 O537 2.427 . S
Tb520 O538 2.513 . S
C521 O525 1.251 . S
C521 O527 1.263 . S
Tb522 O524 2.343 . S
Tb522 O527 2.353 . S
Tb522 O530 2.427 . S
Tb522 O531 2.513 . S
Tb522 O532 2.453 . S
Tb522 O533 2.596 . S
Tb522 O534 2.374 . S
O523 Tb520 2.453 . S
O523 C539 1.245 . S
O524 Tb520 2.596 . S
O524 Tb522 2.343 . S
O524 C539 1.259 . S
O525 Tb520 2.374 . S
O525 C521 1.251 . S
C526 O530 1.275 . S
C526 O531 1.246 . S
O527 C521 1.263 . S
O527 Tb522 2.353 . S
C528 O532 1.245 . S
C528 O533 1.259 . S
C529 O534 1.250 . S
C529 O535 1.263 . S
O530 Tb522 2.427 . S
O530 C526 1.275 . S
O531 Tb522 2.513 . S
O531 C526 1.246 . S
O532 Tb522 2.453 . S
O532 C528 1.245 . S
O533 Tb520 2.343 . S
O533 Tb522 2.596 . S
O533 C528 1.259 . S
O534 Tb522 2.374 . S
O534 C529 1.250 . S
O535 Tb520 2.353 . S
O535 C529 1.263 . S
C536 O537 1.275 . S
C536 O538 1.246 . S
O537 Tb520 2.427 . S
O537 C536 1.275 . S
O538 Tb520 2.513 . S
O538 C536 1.246 . S
C539 O523 1.245 . S
C539 O524 1.259 . S
Tb540 O543 2.453 . S
Tb540 O544 2.596 . S
Tb540 O545 2.374 . S
Tb540 O553 2.343 . S
Tb540 O555 2.353 . S
Tb540 O557 2.427 . S
Tb540 O558 2.513 . S
C541 O545 1.251 . S
C541 O547 1.263 . S
Tb542 O544 2.343 . S
Tb542 O547 2.353 . S
Tb542 O550 2.427 . S
Tb542 O551 2.513 . S
Tb542 O552 2.453 . S
Tb542 O553 2.596 . S
Tb542 O554 2.374 . S
O543 Tb540 2.453 . S
O543 C559 1.245 . S
O544 Tb540 2.596 . S
O544 Tb542 2.343 . S
O544 C559 1.259 . S
O545 Tb540 2.374 . S
O545 C541 1.251 . S
C546 O550 1.275 . S
C546 O551 1.246 . S
O547 C541 1.263 . S
O547 Tb542 2.353 . S
C548 O552 1.245 . S
C548 O553 1.259 . S
C549 O554 1.250 . S
C549 O555 1.263 . S
O550 Tb542 2.427 . S
O550 C546 1.275 . S
O551 Tb542 2.513 . S
O551 C546 1.246 . S
O552 Tb542 2.453 . S
O552 C548 1.245 . S
O553 Tb540 2.343 . S
O553 Tb542 2.596 . S
O553 C548 1.259 . S
O554 Tb542 2.374 . S
O554 C549 1.250 . S
O555 Tb540 2.353 . S
O555 C549 1.263 . S
C556 O557 1.275 . S
C556 O558 1.246 . S
O557 Tb540 2.427 . S
O557 C556 1.275 . S
O558 Tb540 2.513 . S
O558 C556 1.246 . S
C559 O543 1.245 . S
C559 O544 1.259 . S
Tb560 O563 2.453 . S
Tb560 O564 2.596 . S
Tb560 O565 2.374 . S
Tb560 O573 2.343 . S
Tb560 O575 2.353 . S
Tb560 O577 2.427 . S
Tb560 O578 2.513 . S
C561 O565 1.251 . S
C561 O567 1.263 . S
Tb562 O564 2.343 . S
Tb562 O567 2.353 . S
Tb562 O570 2.427 . S
Tb562 O571 2.513 . S
Tb562 O572 2.453 . S
Tb562 O573 2.596 . S
Tb562 O574 2.374 . S
O563 Tb560 2.453 . S
O563 C579 1.245 . S
O564 Tb560 2.596 . S
O564 Tb562 2.343 . S
O564 C579 1.259 . S
O565 Tb560 2.374 . S
O565 C561 1.251 . S
C566 O570 1.275 . S
C566 O571 1.246 . S
O567 C561 1.263 . S
O567 Tb562 2.353 . S
C568 O572 1.245 . S
C568 O573 1.259 . S
C569 O574 1.250 . S
C569 O575 1.263 . S
O570 Tb562 2.427 . S
O570 C566 1.275 . S
O571 Tb562 2.513 . S
O571 C566 1.246 . S
O572 Tb562 2.453 . S
O572 C568 1.245 . S
O573 Tb560 2.343 . S
O573 Tb562 2.596 . S
O573 C568 1.259 . S
O574 Tb562 2.374 . S
O574 C569 1.250 . S
O575 Tb560 2.353 . S
O575 C569 1.263 . S
C576 O577 1.275 . S
C576 O578 1.246 . S
O577 Tb560 2.427 . S
O577 C576 1.275 . S
O578 Tb560 2.513 . S
O578 C576 1.246 . S
C579 O563 1.245 . S
C579 O564 1.259 . S
Tb580 O583 2.453 . S
Tb580 O584 2.596 . S
Tb580 O585 2.374 . S
Tb580 O593 2.343 . S
Tb580 O595 2.353 . S
Tb580 O597 2.427 . S
Tb580 O598 2.513 . S
C581 O585 1.251 . S
C581 O587 1.263 . S
Tb582 O584 2.343 . S
Tb582 O587 2.353 . S
Tb582 O590 2.427 . S
Tb582 O591 2.513 . S
Tb582 O592 2.453 . S
Tb582 O593 2.596 . S
Tb582 O594 2.374 . S
O583 Tb580 2.453 . S
O583 C599 1.245 . S
O584 Tb580 2.596 . S
O584 Tb582 2.343 . S
O584 C599 1.259 . S
O585 Tb580 2.374 . S
O585 C581 1.251 . S
C586 O590 1.275 . S
C586 O591 1.246 . S
O587 C581 1.263 . S
O587 Tb582 2.353 . S
C588 O592 1.245 . S
C588 O593 1.259 . S
C589 O594 1.250 . S
C589 O595 1.263 . S
O590 Tb582 2.427 . S
O590 C586 1.275 . S
O591 Tb582 2.513 . S
O591 C586 1.246 . S
O592 Tb582 2.453 . S
O592 C588 1.245 . S
O593 Tb580 2.343 . S
O593 Tb582 2.596 . S
O593 C588 1.259 . S
O594 Tb582 2.374 . S
O594 C589 1.250 . S
O595 Tb580 2.353 . S
O595 C589 1.263 . S
C596 O597 1.275 . S
C596 O598 1.246 . S
O597 Tb580 2.427 . S
O597 C596 1.275 . S
O598 Tb580 2.513 . S
O598 C596 1.246 . S
C599 O583 1.245 . S
C599 O584 1.259 . S
Tb600 O603 2.453 . S
Tb600 O604 2.596 . S
Tb600 O605 2.374 . S
Tb600 O613 2.343 . S
Tb600 O615 2.353 . S
Tb600 O617 2.427 . S
Tb600 O618 2.513 . S
C601 O605 1.251 . S
C601 O607 1.263 . S
Tb602 O604 2.343 . S
Tb602 O607 2.353 . S
Tb602 O610 2.427 . S
Tb602 O611 2.513 . S
Tb602 O612 2.453 . S
Tb602 O613 2.596 . S
Tb602 O614 2.374 . S
O603 Tb600 2.453 . S
O603 C619 1.245 . S
O604 Tb600 2.596 . S
O604 Tb602 2.343 . S
O604 C619 1.259 . S
O605 Tb600 2.374 . S
O605 C601 1.251 . S
C606 O610 1.275 . S
C606 O611 1.246 . S
O607 C601 1.263 . S
O607 Tb602 2.353 . S
C608 O612 1.245 . S
C608 O613 1.259 . S
C609 O614 1.250 . S
C609 O615 1.263 . S
O610 Tb602 2.427 . S
O610 C606 1.275 . S
O611 Tb602 2.513 . S
O611 C606 1.246 . S
O612 Tb602 2.453 . S
O612 C608 1.245 . S
O613 Tb600 2.343 . S
O613 Tb602 2.596 . S
O613 C608 1.259 . S
O614 Tb602 2.374 . S
O614 C609 1.250 . S
O615 Tb600 2.353 . S
O615 C609 1.263 . S
C616 O617 1.275 . S
C616 O618 1.246 . S
O617 Tb600 2.427 . S
O617 C616 1.275 . S
O618 Tb600 2.513 . S
O618 C616 1.246 . S
C619 O603 1.245 . S
C619 O604 1.259 . S
Tb620 O623 2.453 . S
Tb620 O624 2.596 . S
Tb620 O625 2.374 . S
Tb620 O633 2.343 . S
Tb620 O635 2.353 . S
Tb620 O637 2.427 . S
Tb620 O638 2.513 . S
C621 O625 1.251 . S
C621 O627 1.263 . S
Tb622 O624 2.343 . S
Tb622 O627 2.353 . S
Tb622 O630 2.427 . S
Tb622 O631 2.513 . S
Tb622 O632 2.453 . S
Tb622 O633 2.596 . S
Tb622 O634 2.374 . S
O623 Tb620 2.453 . S
O623 C639 1.245 . S
O624 Tb620 2.596 . S
O624 Tb622 2.343 . S
O624 C639 1.259 . S
O625 Tb620 2.374 . S
O625 C621 1.251 . S
C626 O630 1.275 . S
C626 O631 1.246 . S
O627 C621 1.263 . S
O627 Tb622 2.353 . S
C628 O632 1.245 . S
C628 O633 1.259 . S
C629 O634 1.250 . S
C629 O635 1.263 . S
O630 Tb622 2.427 . S
O630 C626 1.275 . S
O631 Tb622 2.513 . S
O631 C626 1.246 . S
O632 Tb622 2.453 . S
O632 C628 1.245 . S
O633 Tb620 2.343 . S
O633 Tb622 2.596 . S
O633 C628 1.259 . S
O634 Tb622 2.374 . S
O634 C629 1.250 . S
O635 Tb620 2.353 . S
O635 C629 1.263 . S
C636 O637 1.275 . S
C636 O638 1.246 . S
O637 Tb620 2.427 . S
O637 C636 1.275 . S
O638 Tb620 2.513 . S
O638 C636 1.246 . S
C639 O623 1.245 . S
C639 O624 1.259 . S
C640 C641 1.391 . S
C640 C642 1.394 . S
C640 H656 0.931 . S
C641 C640 1.391 . S
C641 C645 1.376 . S
C642 C640 1.394 . S
C642 C643 1.369 . S
C642 C646 1.531 . S
C643 C642 1.369 . S
C643 C644 1.410 . S
C643 C651 1.503 . S
C644 C643 1.410 . S
C644 C645 1.392 . S
C644 C647 1.511 . S
C645 C641 1.376 . S
C645 C644 1.392 . S
C645 H657 0.929 . S
C646 C642 1.531 . S
C646 H658 0.960 . S
C646 H659 0.962 . S
C646 H660 0.960 . S
C647 C644 1.511 . S
C647 H661 0.961 . S
C647 H662 0.961 . S
C647 H663 0.961 . S
C648 C649 1.370 . S
C648 C650 1.363 . S
C648 H664 0.931 . S
C649 C648 1.370 . S
C649 C653 1.408 . S
C650 C648 1.363 . S
C650 C651 1.370 . S
C650 C654 1.524 . S
C651 C643 1.503 . S
C651 C650 1.370 . S
C651 C652 1.403 . S
C652 C651 1.403 . S
C652 C653 1.404 . S
C652 C655 1.539 . S
C653 C649 1.408 . S
C653 C652 1.404 . S
C653 H665 0.930 . S
C654 C650 1.524 . S
C654 H666 0.956 . S
C654 H667 0.961 . S
C654 H668 0.961 . S
C655 C652 1.539 . S
C655 H669 0.958 . S
C655 H670 0.961 . S
C655 H671 0.960 . S
H656 C640 0.931 . S
H657 C645 0.929 . S
H658 C646 0.960 . S
H659 C646 0.962 . S
H660 C646 0.960 . S
H661 C647 0.961 . S
H662 C647 0.961 . S
H663 C647 0.961 . S
H664 C648 0.931 . S
H665 C653 0.930 . S
H666 C654 0.956 . S
H667 C654 0.961 . S
H668 C654 0.961 . S
H669 C655 0.958 . S
H670 C655 0.961 . S
H671 C655 0.960 . S
C672 C673 1.391 . S
C672 C674 1.394 . S
C672 H688 0.931 . S
C673 C672 1.391 . S
C673 C677 1.376 . S
C674 C672 1.394 . S
C674 C675 1.369 . S
C674 C678 1.531 1_455 S
C675 C674 1.369 . S
C675 C676 1.410 . S
C675 C683 1.503 1_455 S
C676 C675 1.410 . S
C676 C677 1.392 . S
C676 C679 1.511 . S
C677 C673 1.376 . S
C677 C676 1.392 . S
C677 H689 0.929 . S
C678 C674 1.531 1_655 S
C678 H690 0.960 . S
C678 H691 0.962 . S
C678 H692 0.960 . S
C679 C676 1.511 . S
C679 H693 0.961 . S
C679 H694 0.961 . S
C679 H695 0.961 . S
C680 C681 1.370 . S
C680 C682 1.363 . S
C680 H696 0.931 . S
C681 C680 1.370 . S
C681 C685 1.408 . S
C682 C680 1.363 . S
C682 C683 1.370 . S
C682 C686 1.524 . S
C683 C675 1.503 1_655 S
C683 C682 1.370 . S
C683 C684 1.403 . S
C684 C683 1.403 . S
C684 C685 1.404 . S
C684 C687 1.539 . S
C685 C681 1.408 . S
C685 C684 1.404 . S
C685 H697 0.930 . S
C686 C682 1.524 . S
C686 H698 0.956 . S
C686 H699 0.961 . S
C686 H700 0.961 . S
C687 C684 1.539 . S
C687 H701 0.958 . S
C687 H702 0.961 . S
C687 H703 0.960 1_655 S
H688 C672 0.931 . S
H689 C677 0.929 . S
H690 C678 0.960 . S
H691 C678 0.962 . S
H692 C678 0.960 . S
H693 C679 0.961 . S
H694 C679 0.961 . S
H695 C679 0.961 . S
H696 C680 0.931 . S
H697 C685 0.930 . S
H698 C686 0.956 . S
H699 C686 0.961 . S
H700 C686 0.961 . S
H701 C687 0.958 . S
H702 C687 0.961 . S
H703 C687 0.960 1_455 S
C704 C705 1.391 . S
C704 C706 1.394 . S
C704 H720 0.931 . S
C705 C704 1.391 . S
C705 C709 1.376 . S
C706 C704 1.394 . S
C706 C707 1.369 . S
C706 C710 1.531 . S
C707 C706 1.369 . S
C707 C708 1.410 . S
C707 C715 1.503 . S
C708 C707 1.410 . S
C708 C709 1.392 . S
C708 C711 1.511 . S
C709 C705 1.376 . S
C709 C708 1.392 . S
C709 H721 0.929 . S
C710 C706 1.531 . S
C710 H722 0.960 . S
C710 H723 0.962 . S
C710 H724 0.960 . S
C711 C708 1.511 . S
C711 H725 0.961 . S
C711 H726 0.961 . S
C711 H727 0.961 . S
C712 C713 1.370 . S
C712 C714 1.363 . S
C712 H728 0.931 . S
C713 C712 1.370 . S
C713 C717 1.408 . S
C714 C712 1.363 . S
C714 C715 1.370 . S
C714 C718 1.524 . S
C715 C707 1.503 . S
C715 C714 1.370 . S
C715 C716 1.403 . S
C716 C715 1.403 . S
C716 C717 1.404 . S
C716 C719 1.539 . S
C717 C713 1.408 . S
C717 C716 1.404 . S
C717 H729 0.930 . S
C718 C714 1.524 . S
C718 H730 0.956 . S
C718 H731 0.961 . S
C718 H732 0.961 . S
C719 C716 1.539 . S
C719 H733 0.958 . S
C719 H734 0.961 . S
C719 H735 0.960 . S
H720 C704 0.931 . S
H721 C709 0.929 . S
H722 C710 0.960 . S
H723 C710 0.962 . S
H724 C710 0.960 . S
H725 C711 0.961 . S
H726 C711 0.961 . S
H727 C711 0.961 . S
H728 C712 0.931 . S
H729 C717 0.930 . S
H730 C718 0.956 . S
H731 C718 0.961 . S
H732 C718 0.961 . S
H733 C719 0.958 . S
H734 C719 0.961 . S
H735 C719 0.960 . S
C736 C737 1.391 . S
C736 C738 1.394 . S
C736 H752 0.931 . S
C737 C736 1.391 . S
C737 C741 1.376 . S
C738 C736 1.394 . S
C738 C739 1.369 . S
C738 C742 1.531 . S
C739 C738 1.369 . S
C739 C740 1.410 . S
C739 C747 1.503 . S
C740 C739 1.410 . S
C740 C741 1.392 . S
C740 C743 1.511 . S
C741 C737 1.376 . S
C741 C740 1.392 . S
C741 H753 0.929 . S
C742 C738 1.531 . S
C742 H754 0.960 . S
C742 H755 0.962 . S
C742 H756 0.960 . S
C743 C740 1.511 . S
C743 H757 0.961 . S
C743 H758 0.961 . S
C743 H759 0.961 . S
C744 C745 1.370 . S
C744 C746 1.363 . S
C744 H760 0.931 . S
C745 C744 1.370 . S
C745 C749 1.408 . S
C746 C744 1.363 . S
C746 C747 1.370 . S
C746 C750 1.524 . S
C747 C739 1.503 . S
C747 C746 1.370 . S
C747 C748 1.403 . S
C748 C747 1.403 . S
C748 C749 1.404 . S
C748 C751 1.539 . S
C749 C745 1.408 . S
C749 C748 1.404 . S
C749 H761 0.930 . S
C750 C746 1.524 . S
C750 H762 0.956 . S
C750 H763 0.961 . S
C750 H764 0.961 . S
C751 C748 1.539 . S
C751 H765 0.958 . S
C751 H766 0.961 . S
C751 H767 0.960 . S
H752 C736 0.931 . S
H753 C741 0.929 . S
H754 C742 0.960 . S
H755 C742 0.962 . S
H756 C742 0.960 . S
H757 C743 0.961 . S
H758 C743 0.961 . S
H759 C743 0.961 . S
H760 C744 0.931 . S
H761 C749 0.930 . S
H762 C750 0.956 . S
H763 C750 0.961 . S
H764 C750 0.961 . S
H765 C751 0.958 . S
H766 C751 0.961 . S
H767 C751 0.960 . S
C768 C769 1.391 . S
C768 C770 1.394 . S
C768 H784 0.931 . S
C769 C768 1.391 . S
C769 C773 1.376 . S
C770 C768 1.394 . S
C770 C771 1.369 . S
C770 C774 1.531 . S
C771 C770 1.369 . S
C771 C772 1.410 . S
C771 C779 1.503 . S
C772 C771 1.410 . S
C772 C773 1.392 . S
C772 C775 1.511 . S
C773 C769 1.376 . S
C773 C772 1.392 . S
C773 H785 0.929 . S
C774 C770 1.531 . S
C774 H786 0.960 . S
C774 H787 0.962 . S
C774 H788 0.960 . S
C775 C772 1.511 . S
C775 H789 0.961 . S
C775 H790 0.961 . S
C775 H791 0.961 . S
C776 C777 1.370 . S
C776 C778 1.363 . S
C776 H792 0.931 . S
C777 C776 1.370 . S
C777 C781 1.408 . S
C778 C776 1.363 . S
C778 C779 1.370 . S
C778 C782 1.524 . S
C779 C771 1.503 . S
C779 C778 1.370 . S
C779 C780 1.403 . S
C780 C779 1.403 . S
C780 C781 1.404 . S
C780 C783 1.539 . S
C781 C777 1.408 . S
C781 C780 1.404 . S
C781 H793 0.930 . S
C782 C778 1.524 . S
C782 H794 0.956 . S
C782 H795 0.961 . S
C782 H796 0.961 . S
C783 C780 1.539 . S
C783 H797 0.958 . S
C783 H798 0.961 . S
C783 H799 0.960 . S
H784 C768 0.931 . S
H785 C773 0.929 . S
H786 C774 0.960 . S
H787 C774 0.962 . S
H788 C774 0.960 . S
H789 C775 0.961 . S
H790 C775 0.961 . S
H791 C775 0.961 . S
H792 C776 0.931 . S
H793 C781 0.930 . S
H794 C782 0.956 . S
H795 C782 0.961 . S
H796 C782 0.961 . S
H797 C783 0.958 . S
H798 C783 0.961 . S
H799 C783 0.960 . S
C800 C801 1.391 . S
C800 C802 1.394 . S
C800 H816 0.931 . S
C801 C800 1.391 . S
C801 C805 1.376 . S
C802 C800 1.394 . S
C802 C803 1.369 . S
C802 C806 1.531 . S
C803 C802 1.369 . S
C803 C804 1.410 . S
C803 C811 1.503 . S
C804 C803 1.410 . S
C804 C805 1.392 . S
C804 C807 1.511 . S
C805 C801 1.376 . S
C805 C804 1.392 . S
C805 H817 0.929 . S
C806 C802 1.531 . S
C806 H818 0.960 . S
C806 H819 0.962 . S
C806 H820 0.960 . S
C807 C804 1.511 . S
C807 H821 0.961 . S
C807 H822 0.961 . S
C807 H823 0.961 . S
C808 C809 1.370 . S
C808 C810 1.363 . S
C808 H824 0.931 . S
C809 C808 1.370 . S
C809 C813 1.408 . S
C810 C808 1.363 . S
C810 C811 1.370 . S
C810 C814 1.524 . S
C811 C803 1.503 . S
C811 C810 1.370 . S
C811 C812 1.403 . S
C812 C811 1.403 . S
C812 C813 1.404 . S
C812 C815 1.539 . S
C813 C809 1.408 . S
C813 C812 1.404 . S
C813 H825 0.930 . S
C814 C810 1.524 . S
C814 H826 0.956 . S
C814 H827 0.961 . S
C814 H828 0.961 . S
C815 C812 1.539 . S
C815 H829 0.958 . S
C815 H830 0.961 . S
C815 H831 0.960 . S
H816 C800 0.931 . S
H817 C805 0.929 . S
H818 C806 0.960 . S
H819 C806 0.962 . S
H820 C806 0.960 . S
H821 C807 0.961 . S
H822 C807 0.961 . S
H823 C807 0.961 . S
H824 C808 0.931 . S
H825 C813 0.930 . S
H826 C814 0.956 . S
H827 C814 0.961 . S
H828 C814 0.961 . S
H829 C815 0.958 . S
H830 C815 0.961 . S
H831 C815 0.960 . S
C832 C833 1.391 . S
C832 C834 1.394 . S
C832 H848 0.931 . S
C833 C832 1.391 . S
C833 C837 1.376 . S
C834 C832 1.394 . S
C834 C835 1.369 . S
C834 C838 1.531 . S
C835 C834 1.369 . S
C835 C836 1.410 . S
C835 C843 1.503 . S
C836 C835 1.410 . S
C836 C837 1.392 . S
C836 C839 1.511 . S
C837 C833 1.376 . S
C837 C836 1.392 . S
C837 H849 0.929 . S
C838 C834 1.531 . S
C838 H850 0.960 . S
C838 H851 0.962 . S
C838 H852 0.960 . S
C839 C836 1.511 . S
C839 H853 0.961 . S
C839 H854 0.961 . S
C839 H855 0.961 . S
C840 C841 1.370 . S
C840 C842 1.363 . S
C840 H856 0.931 . S
C841 C840 1.370 . S
C841 C845 1.408 . S
C842 C840 1.363 . S
C842 C843 1.370 . S
C842 C846 1.524 . S
C843 C835 1.503 . S
C843 C842 1.370 . S
C843 C844 1.403 . S
C844 C843 1.403 . S
C844 C845 1.404 . S
C844 C847 1.539 . S
C845 C841 1.408 . S
C845 C844 1.404 . S
C845 H857 0.930 . S
C846 C842 1.524 . S
C846 H858 0.956 . S
C846 H859 0.961 . S
C846 H860 0.961 . S
C847 C844 1.539 . S
C847 H861 0.958 . S
C847 H862 0.961 . S
C847 H863 0.960 . S
H848 C832 0.931 . S
H849 C837 0.929 . S
H850 C838 0.960 . S
H851 C838 0.962 . S
H852 C838 0.960 . S
H853 C839 0.961 . S
H854 C839 0.961 . S
H855 C839 0.961 . S
H856 C840 0.931 . S
H857 C845 0.930 . S
H858 C846 0.956 . S
H859 C846 0.961 . S
H860 C846 0.961 . S
H861 C847 0.958 . S
H862 C847 0.961 . S
H863 C847 0.960 . S
C864 C865 1.391 . S
C864 C866 1.394 . S
C864 H880 0.931 . S
C865 C864 1.391 . S
C865 C869 1.376 . S
C866 C864 1.394 . S
C866 C867 1.369 . S
C866 C870 1.531 . S
C867 C866 1.369 . S
C867 C868 1.410 . S
C867 C875 1.503 1_455 S
C868 C867 1.410 . S
C868 C869 1.394 . S
C868 C871 1.509 1_455 S
C869 C865 1.376 . S
C869 C868 1.394 . S
C869 H881 0.929 . S
C870 C866 1.531 . S
C870 H882 0.960 . S
C870 H883 0.962 . S
C870 H884 0.960 . S
C871 C868 1.509 1_655 S
C871 H885 0.961 . S
C871 H886 0.961 . S
C871 H887 0.961 . S
C872 C873 1.370 . S
C872 C874 1.363 . S
C872 H888 0.931 . S
C873 C872 1.370 . S
C873 C877 1.408 . S
C874 C872 1.363 . S
C874 C875 1.370 . S
C874 C878 1.524 . S
C875 C867 1.503 1_655 S
C875 C874 1.370 . S
C875 C876 1.403 . S
C876 C875 1.403 . S
C876 C877 1.404 . S
C876 C879 1.539 . S
C877 C873 1.408 . S
C877 C876 1.404 . S
C877 H889 0.930 . S
C878 C874 1.524 . S
C878 H890 0.956 1_655 S
C878 H891 0.961 . S
C878 H892 0.961 . S
C879 C876 1.539 . S
C879 H893 0.958 . S
C879 H894 0.961 . S
C879 H895 0.960 . S
H880 C864 0.931 . S
H881 C869 0.929 . S
H882 C870 0.960 . S
H883 C870 0.962 . S
H884 C870 0.960 . S
H885 C871 0.961 . S
H886 C871 0.961 . S
H887 C871 0.961 . S
H888 C872 0.931 . S
H889 C877 0.930 . S
H890 C878 0.956 1_455 S
H891 C878 0.961 . S
H892 C878 0.961 . S
H893 C879 0.958 . S
H894 C879 0.961 . S
H895 C879 0.960 . S
C896 C897 1.391 . S
C896 C898 1.394 . S
C896 H912 0.931 . S
C897 C896 1.391 . S
C897 C901 1.376 . S
C898 C896 1.394 . S
C898 C899 1.369 . S
C898 C902 1.531 . S
C899 C898 1.369 . S
C899 C900 1.410 . S
C899 C907 1.503 . S
C900 C899 1.410 . S
C900 C901 1.392 . S
C900 C903 1.511 . S
C901 C897 1.376 . S
C901 C900 1.392 . S
C901 H913 0.929 . S
C902 C898 1.531 . S
C902 H914 0.960 . S
C902 H915 0.962 . S
C902 H916 0.960 . S
C903 C900 1.511 . S
C903 H917 0.961 . S
C903 H918 0.961 . S
C903 H919 0.961 . S
C904 C905 1.370 . S
C904 C906 1.363 . S
C904 H920 0.931 . S
C905 C904 1.370 . S
C905 C909 1.408 . S
C906 C904 1.363 . S
C906 C907 1.370 . S
C906 C910 1.524 . S
C907 C899 1.503 . S
C907 C906 1.370 . S
C907 C908 1.403 . S
C908 C907 1.403 . S
C908 C909 1.404 . S
C908 C911 1.539 . S
C909 C905 1.408 . S
C909 C908 1.404 . S
C909 H921 0.930 . S
C910 C906 1.524 . S
C910 H922 0.956 . S
C910 H923 0.961 . S
C910 H924 0.961 . S
C911 C908 1.539 . S
C911 H925 0.958 . S
C911 H926 0.961 . S
C911 H927 0.960 . S
H912 C896 0.931 . S
H913 C901 0.929 . S
H914 C902 0.960 . S
H915 C902 0.962 . S
H916 C902 0.960 . S
H917 C903 0.961 . S
H918 C903 0.961 . S
H919 C903 0.961 . S
H920 C904 0.931 . S
H921 C909 0.930 . S
H922 C910 0.956 . S
H923 C910 0.961 . S
H924 C910 0.961 . S
H925 C911 0.958 . S
H926 C911 0.961 . S
H927 C911 0.960 . S
C928 C929 1.391 . S
C928 C930 1.394 . S
C928 H944 0.931 . S
C929 C928 1.391 . S
C929 C933 1.376 . S
C930 C928 1.394 . S
C930 C931 1.369 . S
C930 C934 1.531 . S
C931 C930 1.369 . S
C931 C932 1.410 . S
C931 C939 1.503 1_655 S
C932 C931 1.410 . S
C932 C933 1.394 . S
C932 C935 1.509 1_655 S
C933 C929 1.376 . S
C933 C932 1.394 . S
C933 H945 0.929 . S
C934 C930 1.531 . S
C934 H946 0.960 . S
C934 H947 0.962 . S
C934 H948 0.960 . S
C935 C932 1.509 1_455 S
C935 H949 0.961 . S
C935 H950 0.961 . S
C935 H951 0.961 . S
C936 C937 1.370 . S
C936 C938 1.363 . S
C936 H952 0.931 . S
C937 C936 1.370 . S
C937 C941 1.408 . S
C938 C936 1.363 . S
C938 C939 1.370 . S
C938 C942 1.524 . S
C939 C931 1.503 1_455 S
C939 C938 1.370 . S
C939 C940 1.403 . S
C940 C939 1.403 . S
C940 C941 1.404 . S
C940 C943 1.539 . S
C941 C937 1.408 . S
C941 C940 1.404 . S
C941 H953 0.930 . S
C942 C938 1.524 . S
C942 H954 0.956 1_455 S
C942 H955 0.961 . S
C942 H956 0.961 . S
C943 C940 1.539 . S
C943 H957 0.958 . S
C943 H958 0.961 . S
C943 H959 0.960 . S
H944 C928 0.931 . S
H945 C933 0.929 . S
H946 C934 0.960 . S
H947 C934 0.962 . S
H948 C934 0.960 . S
H949 C935 0.961 . S
H950 C935 0.961 . S
H951 C935 0.961 . S
H952 C936 0.931 . S
H953 C941 0.930 . S
H954 C942 0.956 1_655 S
H955 C942 0.961 . S
H956 C942 0.961 . S
H957 C943 0.958 . S
H958 C943 0.961 . S
H959 C943 0.960 . S
C960 C961 1.391 . S
C960 C962 1.394 . S
C960 H976 0.931 . S
C961 C960 1.391 . S
C961 C965 1.376 . S
C962 C960 1.394 . S
C962 C963 1.369 . S
C962 C966 1.531 . S
C963 C962 1.369 . S
C963 C964 1.410 . S
C963 C971 1.503 . S
C964 C963 1.410 . S
C964 C965 1.392 . S
C964 C967 1.511 . S
C965 C961 1.376 . S
C965 C964 1.392 . S
C965 H977 0.929 . S
C966 C962 1.531 . S
C966 H978 0.960 . S
C966 H979 0.962 . S
C966 H980 0.960 . S
C967 C964 1.511 . S
C967 H981 0.961 . S
C967 H982 0.961 . S
C967 H983 0.961 . S
C968 C969 1.370 . S
C968 C970 1.363 . S
C968 H984 0.931 . S
C969 C968 1.370 . S
C969 C973 1.408 . S
C970 C968 1.363 . S
C970 C971 1.370 . S
C970 C974 1.524 . S
C971 C963 1.503 . S
C971 C970 1.370 . S
C971 C972 1.403 . S
C972 C971 1.403 . S
C972 C973 1.404 . S
C972 C975 1.539 . S
C973 C969 1.408 . S
C973 C972 1.404 . S
C973 H985 0.930 . S
C974 C970 1.524 . S
C974 H986 0.956 . S
C974 H987 0.961 . S
C974 H988 0.961 . S
C975 C972 1.539 . S
C975 H989 0.958 . S
C975 H990 0.961 . S
C975 H991 0.960 . S
H976 C960 0.931 . S
H977 C965 0.929 . S
H978 C966 0.960 . S
H979 C966 0.962 . S
H980 C966 0.960 . S
H981 C967 0.961 . S
H982 C967 0.961 . S
H983 C967 0.961 . S
H984 C968 0.931 . S
H985 C973 0.930 . S
H986 C974 0.956 . S
H987 C974 0.961 . S
H988 C974 0.961 . S
H989 C975 0.958 . S
H990 C975 0.961 . S
H991 C975 0.960 . S
C992 C993 1.391 . S
C992 C994 1.394 . S
C992 H1008 0.931 . S
C993 C992 1.391 . S
C993 C997 1.376 . S
C994 C992 1.394 . S
C994 C995 1.369 . S
C994 C998 1.531 . S
C995 C994 1.369 . S
C995 C996 1.410 . S
C995 C1003 1.503 . S
C996 C995 1.410 . S
C996 C997 1.392 . S
C996 C999 1.511 . S
C997 C993 1.376 . S
C997 C996 1.392 . S
C997 H1009 0.929 . S
C998 C994 1.531 . S
C998 H1010 0.960 . S
C998 H1011 0.962 . S
C998 H1012 0.960 . S
C999 C996 1.511 . S
C999 H1013 0.961 . S
C999 H1014 0.961 . S
C999 H1015 0.961 . S
C1000 C1001 1.370 . S
C1000 C1002 1.363 . S
C1000 H1016 0.931 . S
C1001 C1000 1.370 . S
C1001 C1005 1.408 . S
C1002 C1000 1.363 . S
C1002 C1003 1.370 . S
C1002 C1006 1.524 . S
C1003 C995 1.503 . S
C1003 C1002 1.370 . S
C1003 C1004 1.403 . S
C1004 C1003 1.403 . S
C1004 C1005 1.404 . S
C1004 C1007 1.539 . S
C1005 C1001 1.408 . S
C1005 C1004 1.404 . S
C1005 H1017 0.930 . S
C1006 C1002 1.524 . S
C1006 H1018 0.956 . S
C1006 H1019 0.961 . S
C1006 H1020 0.961 . S
C1007 C1004 1.539 . S
C1007 H1021 0.958 . S
C1007 H1022 0.961 . S
C1007 H1023 0.960 . S
H1008 C992 0.931 . S
H1009 C997 0.929 . S
H1010 C998 0.960 . S
H1011 C998 0.962 . S
H1012 C998 0.960 . S
H1013 C999 0.961 . S
H1014 C999 0.961 . S
H1015 C999 0.961 . S
H1016 C1000 0.931 . S
H1017 C1005 0.930 . S
H1018 C1006 0.956 . S
H1019 C1006 0.961 . S
H1020 C1006 0.961 . S
H1021 C1007 0.958 . S
H1022 C1007 0.961 . S
H1023 C1007 0.960 . S
C1024 C1025 1.391 . S
C1024 C1026 1.394 . S
C1024 H1040 0.931 . S
C1025 C1024 1.391 . S
C1025 C1029 1.376 . S
C1026 C1024 1.394 . S
C1026 C1027 1.369 . S
C1026 C1030 1.531 . S
C1027 C1026 1.369 . S
C1027 C1028 1.410 . S
C1027 C1035 1.503 . S
C1028 C1027 1.410 . S
C1028 C1029 1.392 . S
C1028 C1031 1.511 . S
C1029 C1025 1.376 . S
C1029 C1028 1.392 . S
C1029 H1041 0.929 . S
C1030 C1026 1.531 . S
C1030 H1042 0.960 . S
C1030 H1043 0.962 . S
C1030 H1044 0.960 . S
C1031 C1028 1.511 . S
C1031 H1045 0.961 . S
C1031 H1046 0.961 . S
C1031 H1047 0.961 . S
C1032 C1033 1.370 . S
C1032 C1034 1.363 . S
C1032 H1048 0.931 . S
C1033 C1032 1.370 . S
C1033 C1037 1.408 . S
C1034 C1032 1.363 . S
C1034 C1035 1.370 . S
C1034 C1038 1.524 . S
C1035 C1027 1.503 . S
C1035 C1034 1.370 . S
C1035 C1036 1.403 . S
C1036 C1035 1.403 . S
C1036 C1037 1.404 . S
C1036 C1039 1.539 . S
C1037 C1033 1.408 . S
C1037 C1036 1.404 . S
C1037 H1049 0.930 . S
C1038 C1034 1.524 . S
C1038 H1050 0.956 . S
C1038 H1051 0.961 . S
C1038 H1052 0.961 . S
C1039 C1036 1.539 . S
C1039 H1053 0.958 . S
C1039 H1054 0.961 . S
C1039 H1055 0.960 . S
H1040 C1024 0.931 . S
H1041 C1029 0.929 . S
H1042 C1030 0.960 . S
H1043 C1030 0.962 . S
H1044 C1030 0.960 . S
H1045 C1031 0.961 . S
H1046 C1031 0.961 . S
H1047 C1031 0.961 . S
H1048 C1032 0.931 . S
H1049 C1037 0.930 . S
H1050 C1038 0.956 . S
H1051 C1038 0.961 . S
H1052 C1038 0.961 . S
H1053 C1039 0.958 . S
H1054 C1039 0.961 . S
H1055 C1039 0.960 . S
C1056 C1057 1.391 . S
C1056 C1058 1.394 . S
C1056 H1072 0.931 . S
C1057 C1056 1.391 . S
C1057 C1061 1.376 . S
C1058 C1056 1.394 . S
C1058 C1059 1.369 . S
C1058 C1062 1.531 . S
C1059 C1058 1.369 . S
C1059 C1060 1.410 . S
C1059 C1067 1.503 . S
C1060 C1059 1.410 . S
C1060 C1061 1.392 . S
C1060 C1063 1.511 . S
C1061 C1057 1.376 . S
C1061 C1060 1.392 . S
C1061 H1073 0.929 . S
C1062 C1058 1.531 . S
C1062 H1074 0.960 . S
C1062 H1075 0.962 . S
C1062 H1076 0.960 . S
C1063 C1060 1.511 . S
C1063 H1077 0.961 . S
C1063 H1078 0.961 . S
C1063 H1079 0.961 . S
C1064 C1065 1.370 . S
C1064 C1066 1.363 . S
C1064 H1080 0.931 . S
C1065 C1064 1.370 . S
C1065 C1069 1.408 . S
C1066 C1064 1.363 . S
C1066 C1067 1.370 . S
C1066 C1070 1.524 . S
C1067 C1059 1.503 . S
C1067 C1066 1.370 . S
C1067 C1068 1.403 . S
C1068 C1067 1.403 . S
C1068 C1069 1.404 . S
C1068 C1071 1.539 . S
C1069 C1065 1.408 . S
C1069 C1068 1.404 . S
C1069 H1081 0.930 . S
C1070 C1066 1.524 . S
C1070 H1082 0.956 . S
C1070 H1083 0.961 . S
C1070 H1084 0.961 . S
C1071 C1068 1.539 . S
C1071 H1085 0.958 . S
C1071 H1086 0.961 . S
C1071 H1087 0.960 . S
H1072 C1056 0.931 . S
H1073 C1061 0.929 . S
H1074 C1062 0.960 . S
H1075 C1062 0.962 . S
H1076 C1062 0.960 . S
H1077 C1063 0.961 . S
H1078 C1063 0.961 . S
H1079 C1063 0.961 . S
H1080 C1064 0.931 . S
H1081 C1069 0.930 . S
H1082 C1070 0.956 . S
H1083 C1070 0.961 . S
H1084 C1070 0.961 . S
H1085 C1071 0.958 . S
H1086 C1071 0.961 . S
H1087 C1071 0.960 . S
C1088 C1089 1.391 . S
C1088 C1090 1.394 . S
C1088 H1104 0.931 . S
C1089 C1088 1.391 . S
C1089 C1093 1.376 . S
C1090 C1088 1.394 . S
C1090 C1091 1.369 . S
C1090 C1094 1.531 . S
C1091 C1090 1.369 . S
C1091 C1092 1.410 . S
C1091 C1099 1.503 . S
C1092 C1091 1.410 . S
C1092 C1093 1.392 . S
C1092 C1095 1.511 . S
C1093 C1089 1.376 . S
C1093 C1092 1.392 . S
C1093 H1105 0.929 . S
C1094 C1090 1.531 . S
C1094 H1106 0.960 . S
C1094 H1107 0.962 . S
C1094 H1108 0.960 . S
C1095 C1092 1.511 . S
C1095 H1109 0.961 . S
C1095 H1110 0.961 . S
C1095 H1111 0.961 . S
C1096 C1097 1.370 . S
C1096 C1098 1.363 . S
C1096 H1112 0.931 . S
C1097 C1096 1.370 . S
C1097 C1101 1.408 . S
C1098 C1096 1.363 . S
C1098 C1099 1.370 . S
C1098 C1102 1.524 . S
C1099 C1091 1.503 . S
C1099 C1098 1.370 . S
C1099 C1100 1.403 . S
C1100 C1099 1.403 . S
C1100 C1101 1.404 . S
C1100 C1103 1.539 . S
C1101 C1097 1.408 . S
C1101 C1100 1.404 . S
C1101 H1113 0.930 . S
C1102 C1098 1.524 . S
C1102 H1114 0.956 . S
C1102 H1115 0.961 . S
C1102 H1116 0.961 . S
C1103 C1100 1.539 . S
C1103 H1117 0.958 . S
C1103 H1118 0.961 . S
C1103 H1119 0.960 . S
H1104 C1088 0.931 . S
H1105 C1093 0.929 . S
H1106 C1094 0.960 . S
H1107 C1094 0.962 . S
H1108 C1094 0.960 . S
H1109 C1095 0.961 . S
H1110 C1095 0.961 . S
H1111 C1095 0.961 . S
H1112 C1096 0.931 . S
H1113 C1101 0.930 . S
H1114 C1102 0.956 . S
H1115 C1102 0.961 . S
H1116 C1102 0.961 . S
H1117 C1103 0.958 . S
H1118 C1103 0.961 . S
H1119 C1103 0.960 . S
C1120 C1121 1.391 . S
C1120 C1122 1.394 . S
C1120 H1136 0.931 . S
C1121 C1120 1.391 . S
C1121 C1125 1.376 . S
C1122 C1120 1.394 . S
C1122 C1123 1.369 . S
C1122 C1126 1.531 . S
C1123 C1122 1.369 . S
C1123 C1124 1.410 . S
C1123 C1131 1.503 1_455 S
C1124 C1123 1.410 . S
C1124 C1125 1.392 . S
C1124 C1127 1.511 1_455 S
C1125 C1121 1.376 . S
C1125 C1124 1.392 . S
C1125 H1137 0.929 . S
C1126 C1122 1.531 . S
C1126 H1138 0.960 . S
C1126 H1139 0.962 . S
C1126 H1140 0.960 . S
C1127 C1124 1.511 1_655 S
C1127 H1141 0.961 . S
C1127 H1142 0.961 . S
C1127 H1143 0.961 . S
C1128 C1129 1.370 . S
C1128 C1130 1.363 . S
C1128 H1144 0.931 . S
C1129 C1128 1.370 . S
C1129 C1133 1.408 . S
C1130 C1128 1.363 . S
C1130 C1131 1.370 . S
C1130 C1134 1.524 1_655 S
C1131 C1123 1.503 1_655 S
C1131 C1130 1.370 . S
C1131 C1132 1.403 . S
C1132 C1131 1.403 . S
C1132 C1133 1.404 . S
C1132 C1135 1.539 . S
C1133 C1129 1.408 . S
C1133 C1132 1.404 . S
C1133 H1145 0.930 . S
C1134 C1130 1.524 1_455 S
C1134 H1146 0.956 . S
C1134 H1147 0.961 . S
C1134 H1148 0.961 . S
C1135 C1132 1.539 . S
C1135 H1149 0.958 . S
C1135 H1150 0.961 . S
C1135 H1151 0.960 . S
H1136 C1120 0.931 . S
H1137 C1125 0.929 . S
H1138 C1126 0.960 . S
H1139 C1126 0.962 . S
H1140 C1126 0.960 . S
H1141 C1127 0.961 . S
H1142 C1127 0.961 . S
H1143 C1127 0.961 . S
H1144 C1128 0.931 . S
H1145 C1133 0.930 . S
H1146 C1134 0.956 . S
H1147 C1134 0.961 . S
H1148 C1134 0.961 . S
H1149 C1135 0.958 . S
H1150 C1135 0.961 . S
H1151 C1135 0.960 . S
C1152 C1153 1.391 . S
C1152 C1154 1.394 . S
C1152 H1168 0.931 . S
C1153 C1152 1.391 . S
C1153 C1157 1.376 . S
C1154 C1152 1.394 . S
C1154 C1155 1.369 . S
C1154 C1158 1.531 . S
C1155 C1154 1.369 . S
C1155 C1156 1.410 . S
C1155 C1163 1.503 . S
C1156 C1155 1.410 . S
C1156 C1157 1.392 . S
C1156 C1159 1.511 . S
C1157 C1153 1.376 . S
C1157 C1156 1.392 . S
C1157 H1169 0.929 . S
C1158 C1154 1.531 . S
C1158 H1170 0.960 . S
C1158 H1171 0.962 . S
C1158 H1172 0.960 . S
C1159 C1156 1.511 . S
C1159 H1173 0.961 . S
C1159 H1174 0.961 . S
C1159 H1175 0.961 . S
C1160 C1161 1.370 . S
C1160 C1162 1.363 . S
C1160 H1176 0.931 . S
C1161 C1160 1.370 . S
C1161 C1165 1.408 . S
C1162 C1160 1.363 . S
C1162 C1163 1.370 . S
C1162 C1166 1.524 . S
C1163 C1155 1.503 . S
C1163 C1162 1.370 . S
C1163 C1164 1.403 . S
C1164 C1163 1.403 . S
C1164 C1165 1.404 . S
C1164 C1167 1.539 . S
C1165 C1161 1.408 . S
C1165 C1164 1.404 . S
C1165 H1177 0.930 . S
C1166 C1162 1.524 . S
C1166 H1178 0.956 . S
C1166 H1179 0.961 . S
C1166 H1180 0.961 . S
C1167 C1164 1.539 . S
C1167 H1181 0.958 . S
C1167 H1182 0.961 . S
C1167 H1183 0.960 . S
H1168 C1152 0.931 . S
H1169 C1157 0.929 . S
H1170 C1158 0.960 . S
H1171 C1158 0.962 . S
H1172 C1158 0.960 . S
H1173 C1159 0.961 . S
H1174 C1159 0.961 . S
H1175 C1159 0.961 . S
H1176 C1160 0.931 . S
H1177 C1165 0.930 . S
H1178 C1166 0.956 . S
H1179 C1166 0.961 . S
H1180 C1166 0.961 . S
H1181 C1167 0.958 . S
H1182 C1167 0.961 . S
H1183 C1167 0.960 . S
C1184 C1185 1.391 . S
C1184 C1186 1.394 . S
C1184 H1200 0.931 . S
C1185 C1184 1.391 . S
C1185 C1189 1.376 . S
C1186 C1184 1.394 . S
C1186 C1187 1.369 . S
C1186 C1190 1.531 . S
C1187 C1186 1.369 . S
C1187 C1188 1.410 . S
C1187 C1195 1.503 . S
C1188 C1187 1.410 . S
C1188 C1189 1.392 . S
C1188 C1191 1.511 . S
C1189 C1185 1.376 . S
C1189 C1188 1.392 . S
C1189 H1201 0.929 . S
C1190 C1186 1.531 . S
C1190 H1202 0.960 . S
C1190 H1203 0.962 . S
C1190 H1204 0.960 . S
C1191 C1188 1.511 . S
C1191 H1205 0.961 . S
C1191 H1206 0.961 . S
C1191 H1207 0.961 . S
C1192 C1193 1.370 . S
C1192 C1194 1.363 . S
C1192 H1208 0.931 . S
C1193 C1192 1.370 . S
C1193 C1197 1.408 . S
C1194 C1192 1.363 . S
C1194 C1195 1.370 . S
C1194 C1198 1.524 . S
C1195 C1187 1.503 . S
C1195 C1194 1.370 . S
C1195 C1196 1.403 . S
C1196 C1195 1.403 . S
C1196 C1197 1.404 . S
C1196 C1199 1.539 . S
C1197 C1193 1.408 . S
C1197 C1196 1.404 . S
C1197 H1209 0.930 . S
C1198 C1194 1.524 . S
C1198 H1210 0.956 . S
C1198 H1211 0.961 . S
C1198 H1212 0.961 . S
C1199 C1196 1.539 . S
C1199 H1213 0.958 . S
C1199 H1214 0.961 . S
C1199 H1215 0.960 . S
H1200 C1184 0.931 . S
H1201 C1189 0.929 . S
H1202 C1190 0.960 . S
H1203 C1190 0.962 . S
H1204 C1190 0.960 . S
H1205 C1191 0.961 . S
H1206 C1191 0.961 . S
H1207 C1191 0.961 . S
H1208 C1192 0.931 . S
H1209 C1197 0.930 . S
H1210 C1198 0.956 . S
H1211 C1198 0.961 . S
H1212 C1198 0.961 . S
H1213 C1199 0.958 . S
H1214 C1199 0.961 . S
H1215 C1199 0.960 . S
C1216 C1217 1.391 . S
C1216 C1218 1.394 . S
C1216 H1232 0.931 . S
C1217 C1216 1.391 . S
C1217 C1221 1.376 . S
C1218 C1216 1.394 . S
C1218 C1219 1.369 . S
C1218 C1222 1.531 . S
C1219 C1218 1.369 . S
C1219 C1220 1.410 . S
C1219 C1227 1.503 . S
C1220 C1219 1.410 . S
C1220 C1221 1.392 . S
C1220 C1223 1.511 . S
C1221 C1217 1.376 . S
C1221 C1220 1.392 . S
C1221 H1233 0.929 . S
C1222 C1218 1.531 . S
C1222 H1234 0.960 . S
C1222 H1235 0.962 . S
C1222 H1236 0.960 . S
C1223 C1220 1.511 . S
C1223 H1237 0.961 . S
C1223 H1238 0.961 . S
C1223 H1239 0.961 . S
C1224 C1225 1.370 . S
C1224 C1226 1.363 . S
C1224 H1240 0.931 . S
C1225 C1224 1.370 . S
C1225 C1229 1.408 . S
C1226 C1224 1.363 . S
C1226 C1227 1.370 . S
C1226 C1230 1.524 . S
C1227 C1219 1.503 . S
C1227 C1226 1.370 . S
C1227 C1228 1.403 . S
C1228 C1227 1.403 . S
C1228 C1229 1.404 . S
C1228 C1231 1.539 . S
C1229 C1225 1.408 . S
C1229 C1228 1.404 . S
C1229 H1241 0.930 . S
C1230 C1226 1.524 . S
C1230 H1242 0.956 . S
C1230 H1243 0.961 . S
C1230 H1244 0.961 . S
C1231 C1228 1.539 . S
C1231 H1245 0.958 . S
C1231 H1246 0.961 . S
C1231 H1247 0.960 . S
H1232 C1216 0.931 . S
H1233 C1221 0.929 . S
H1234 C1222 0.960 . S
H1235 C1222 0.962 . S
H1236 C1222 0.960 . S
H1237 C1223 0.961 . S
H1238 C1223 0.961 . S
H1239 C1223 0.961 . S
H1240 C1224 0.931 . S
H1241 C1229 0.930 . S
H1242 C1230 0.956 . S
H1243 C1230 0.961 . S
H1244 C1230 0.961 . S
H1245 C1231 0.958 . S
H1246 C1231 0.961 . S
H1247 C1231 0.960 . S
C1248 C1249 1.391 . S
C1248 C1250 1.412 . S
C1248 H1264 0.931 . S
C1249 C1248 1.391 . S
C1249 C1253 1.376 . S
C1250 C1248 1.412 . S
C1250 C1251 1.371 . S
C1250 C1254 1.510 1_655 S
C1251 C1250 1.371 . S
C1251 C1252 1.410 . S
C1251 C1259 1.503 1_655 S
C1252 C1251 1.410 . S
C1252 C1253 1.392 . S
C1252 C1255 1.511 . S
C1253 C1249 1.376 . S
C1253 C1252 1.392 . S
C1253 H1265 0.929 . S
C1254 C1250 1.510 1_455 S
C1254 H1266 0.960 . S
C1254 H1267 0.962 . S
C1254 H1268 0.960 . S
C1255 C1252 1.511 . S
C1255 H1269 0.961 . S
C1255 H1270 0.961 . S
C1255 H1271 0.961 . S
C1256 C1257 1.370 . S
C1256 C1258 1.363 . S
C1256 H1272 0.931 . S
C1257 C1256 1.370 . S
C1257 C1261 1.408 . S
C1258 C1256 1.363 . S
C1258 C1259 1.370 . S
C1258 C1262 1.524 . S
C1259 C1251 1.503 1_455 S
C1259 C1258 1.370 . S
C1259 C1260 1.403 . S
C1260 C1259 1.403 . S
C1260 C1261 1.404 . S
C1260 C1263 1.539 . S
C1261 C1257 1.408 . S
C1261 C1260 1.404 . S
C1261 H1273 0.930 . S
C1262 C1258 1.524 . S
C1262 H1274 0.956 . S
C1262 H1275 0.961 1_455 S
C1262 H1276 0.961 . S
C1263 C1260 1.539 . S
C1263 H1277 0.958 . S
C1263 H1278 0.961 . S
C1263 H1279 0.960 . S
H1264 C1248 0.931 . S
H1265 C1253 0.929 . S
H1266 C1254 0.960 . S
H1267 C1254 0.962 . S
H1268 C1254 0.960 . S
H1269 C1255 0.961 . S
H1270 C1255 0.961 . S
H1271 C1255 0.961 . S
H1272 C1256 0.931 . S
H1273 C1261 0.930 . S
H1274 C1262 0.956 . S
H1275 C1262 0.961 1_655 S
H1276 C1262 0.961 . S
H1277 C1263 0.958 . S
H1278 C1263 0.961 . S
H1279 C1263 0.960 . S
C1280 C1281 1.391 . S
C1280 C1282 1.394 . S
C1280 H1296 0.931 . S
C1281 C1280 1.391 . S
C1281 C1285 1.376 . S
C1282 C1280 1.394 . S
C1282 C1283 1.369 . S
C1282 C1286 1.531 . S
C1283 C1282 1.369 . S
C1283 C1284 1.410 . S
C1283 C1291 1.503 . S
C1284 C1283 1.410 . S
C1284 C1285 1.392 . S
C1284 C1287 1.511 . S
C1285 C1281 1.376 . S
C1285 C1284 1.392 . S
C1285 H1297 0.929 . S
C1286 C1282 1.531 . S
C1286 H1298 0.960 . S
C1286 H1299 0.962 . S
C1286 H1300 0.960 . S
C1287 C1284 1.511 . S
C1287 H1301 0.961 . S
C1287 H1302 0.961 . S
C1287 H1303 0.961 . S
C1288 C1289 1.370 . S
C1288 C1290 1.363 . S
C1288 H1304 0.931 . S
C1289 C1288 1.370 . S
C1289 C1293 1.408 . S
C1290 C1288 1.363 . S
C1290 C1291 1.370 . S
C1290 C1294 1.524 . S
C1291 C1283 1.503 . S
C1291 C1290 1.370 . S
C1291 C1292 1.403 . S
C1292 C1291 1.403 . S
C1292 C1293 1.404 . S
C1292 C1295 1.539 . S
C1293 C1289 1.408 . S
C1293 C1292 1.404 . S
C1293 H1305 0.930 . S
C1294 C1290 1.524 . S
C1294 H1306 0.956 . S
C1294 H1307 0.961 . S
C1294 H1308 0.961 . S
C1295 C1292 1.539 . S
C1295 H1309 0.958 . S
C1295 H1310 0.961 . S
C1295 H1311 0.960 . S
H1296 C1280 0.931 . S
H1297 C1285 0.929 . S
H1298 C1286 0.960 . S
H1299 C1286 0.962 . S
H1300 C1286 0.960 . S
H1301 C1287 0.961 . S
H1302 C1287 0.961 . S
H1303 C1287 0.961 . S
H1304 C1288 0.931 . S
H1305 C1293 0.930 . S
H1306 C1294 0.956 . S
H1307 C1294 0.961 . S
H1308 C1294 0.961 . S
H1309 C1295 0.958 . S
H1310 C1295 0.961 . S
H1311 C1295 0.960 . S
C1312 C1313 1.391 . S
C1312 C1314 1.394 . S
C1312 H1328 0.931 . S
C1313 C1312 1.391 . S
C1313 C1317 1.376 . S
C1314 C1312 1.394 . S
C1314 C1315 1.369 . S
C1314 C1318 1.531 1_455 S
C1315 C1314 1.369 . S
C1315 C1316 1.410 . S
C1315 C1323 1.503 1_455 S
C1316 C1315 1.410 . S
C1316 C1317 1.392 . S
C1316 C1319 1.511 . S
C1317 C1313 1.376 . S
C1317 C1316 1.392 . S
C1317 H1329 0.929 . S
C1318 C1314 1.531 1_655 S
C1318 H1330 0.960 . S
C1318 H1331 0.962 . S
C1318 H1332 0.960 . S
C1319 C1316 1.511 . S
C1319 H1333 0.961 . S
C1319 H1334 0.961 . S
C1319 H1335 0.961 . S
C1320 C1321 1.370 . S
C1320 C1322 1.363 . S
C1320 H1336 0.931 . S
C1321 C1320 1.370 . S
C1321 C1325 1.408 . S
C1322 C1320 1.363 . S
C1322 C1323 1.370 . S
C1322 C1326 1.524 . S
C1323 C1315 1.503 1_655 S
C1323 C1322 1.370 . S
C1323 C1324 1.403 . S
C1324 C1323 1.403 . S
C1324 C1325 1.404 . S
C1324 C1327 1.539 1_655 S
C1325 C1321 1.408 . S
C1325 C1324 1.404 . S
C1325 H1337 0.930 . S
C1326 C1322 1.524 . S
C1326 H1338 0.956 . S
C1326 H1339 0.961 1_655 S
C1326 H1340 0.961 . S
C1327 C1324 1.539 1_455 S
C1327 H1341 0.958 1_455 S
C1327 H1342 0.961 . S
C1327 H1343 0.960 . S
H1328 C1312 0.931 . S
H1329 C1317 0.929 . S
H1330 C1318 0.960 . S
H1331 C1318 0.962 . S
H1332 C1318 0.960 . S
H1333 C1319 0.961 . S
H1334 C1319 0.961 . S
H1335 C1319 0.961 . S
H1336 C1320 0.931 . S
H1337 C1325 0.930 . S
H1338 C1326 0.956 . S
H1339 C1326 0.961 1_455 S
H1340 C1326 0.961 . S
H1341 C1327 0.958 1_655 S
H1342 C1327 0.961 . S
H1343 C1327 0.960 . S
C1344 C1345 1.391 . S
C1344 C1346 1.394 . S
C1344 H1360 0.931 . S
C1345 C1344 1.391 . S
C1345 C1349 1.376 . S
C1346 C1344 1.394 . S
C1346 C1347 1.369 . S
C1346 C1350 1.531 . S
C1347 C1346 1.369 . S
C1347 C1348 1.410 . S
C1347 C1355 1.503 . S
C1348 C1347 1.410 . S
C1348 C1349 1.392 . S
C1348 C1351 1.511 . S
C1349 C1345 1.376 . S
C1349 C1348 1.392 . S
C1349 H1361 0.929 . S
C1350 C1346 1.531 . S
C1350 H1362 0.960 . S
C1350 H1363 0.962 . S
C1350 H1364 0.960 . S
C1351 C1348 1.511 . S
C1351 H1365 0.961 . S
C1351 H1366 0.961 . S
C1351 H1367 0.961 . S
C1352 C1353 1.370 . S
C1352 C1354 1.363 . S
C1352 H1368 0.931 . S
C1353 C1352 1.370 . S
C1353 C1357 1.408 . S
C1354 C1352 1.363 . S
C1354 C1355 1.370 . S
C1354 C1358 1.524 . S
C1355 C1347 1.503 . S
C1355 C1354 1.370 . S
C1355 C1356 1.403 . S
C1356 C1355 1.403 . S
C1356 C1357 1.404 . S
C1356 C1359 1.539 . S
C1357 C1353 1.408 . S
C1357 C1356 1.404 . S
C1357 H1369 0.930 . S
C1358 C1354 1.524 . S
C1358 H1370 0.956 . S
C1358 H1371 0.961 . S
C1358 H1372 0.961 . S
C1359 C1356 1.539 . S
C1359 H1373 0.958 . S
C1359 H1374 0.961 . S
C1359 H1375 0.960 . S
H1360 C1344 0.931 . S
H1361 C1349 0.929 . S
H1362 C1350 0.960 . S
H1363 C1350 0.962 . S
H1364 C1350 0.960 . S
H1365 C1351 0.961 . S
H1366 C1351 0.961 . S
H1367 C1351 0.961 . S
H1368 C1352 0.931 . S
H1369 C1357 0.930 . S
H1370 C1358 0.956 . S
H1371 C1358 0.961 . S
H1372 C1358 0.961 . S
H1373 C1359 0.958 . S
H1374 C1359 0.961 . S
H1375 C1359 0.960 . S
C1376 C1377 1.391 . S
C1376 C1378 1.394 . S
C1376 H1392 0.931 . S
C1377 C1376 1.391 . S
C1377 C1381 1.376 . S
C1378 C1376 1.394 . S
C1378 C1379 1.369 . S
C1378 C1382 1.531 . S
C1379 C1378 1.369 . S
C1379 C1380 1.410 . S
C1379 C1387 1.503 . S
C1380 C1379 1.410 . S
C1380 C1381 1.392 . S
C1380 C1383 1.511 . S
C1381 C1377 1.376 . S
C1381 C1380 1.392 . S
C1381 H1393 0.929 . S
C1382 C1378 1.531 . S
C1382 H1394 0.960 . S
C1382 H1395 0.962 . S
C1382 H1396 0.960 . S
C1383 C1380 1.511 . S
C1383 H1397 0.961 . S
C1383 H1398 0.961 . S
C1383 H1399 0.961 . S
C1384 C1385 1.370 . S
C1384 C1386 1.363 . S
C1384 H1400 0.931 . S
C1385 C1384 1.370 . S
C1385 C1389 1.408 . S
C1386 C1384 1.363 . S
C1386 C1387 1.370 . S
C1386 C1390 1.524 . S
C1387 C1379 1.503 . S
C1387 C1386 1.370 . S
C1387 C1388 1.403 . S
C1388 C1387 1.403 . S
C1388 C1389 1.404 . S
C1388 C1391 1.539 . S
C1389 C1385 1.408 . S
C1389 C1388 1.404 . S
C1389 H1401 0.930 . S
C1390 C1386 1.524 . S
C1390 H1402 0.956 . S
C1390 H1403 0.961 . S
C1390 H1404 0.961 . S
C1391 C1388 1.539 . S
C1391 H1405 0.958 . S
C1391 H1406 0.961 . S
C1391 H1407 0.960 . S
H1392 C1376 0.931 . S
H1393 C1381 0.929 . S
H1394 C1382 0.960 . S
H1395 C1382 0.962 . S
H1396 C1382 0.960 . S
H1397 C1383 0.961 . S
H1398 C1383 0.961 . S
H1399 C1383 0.961 . S
H1400 C1384 0.931 . S
H1401 C1389 0.930 . S
H1402 C1390 0.956 . S
H1403 C1390 0.961 . S
H1404 C1390 0.961 . S
H1405 C1391 0.958 . S
H1406 C1391 0.961 . S
H1407 C1391 0.960 . S
C1408 C1409 1.391 . S
C1408 C1410 1.394 . S
C1408 H1424 0.931 . S
C1409 C1408 1.391 . S
C1409 C1413 1.376 . S
C1410 C1408 1.394 . S
C1410 C1411 1.369 . S
C1410 C1414 1.531 . S
C1411 C1410 1.369 . S
C1411 C1412 1.410 . S
C1411 C1419 1.503 . S
C1412 C1411 1.410 . S
C1412 C1413 1.392 . S
C1412 C1415 1.511 . S
C1413 C1409 1.376 . S
C1413 C1412 1.392 . S
C1413 H1425 0.929 . S
C1414 C1410 1.531 . S
C1414 H1426 0.960 . S
C1414 H1427 0.962 . S
C1414 H1428 0.960 . S
C1415 C1412 1.511 . S
C1415 H1429 0.961 . S
C1415 H1430 0.961 . S
C1415 H1431 0.961 . S
C1416 C1417 1.370 . S
C1416 C1418 1.363 . S
C1416 H1432 0.931 . S
C1417 C1416 1.370 . S
C1417 C1421 1.408 . S
C1418 C1416 1.363 . S
C1418 C1419 1.370 . S
C1418 C1422 1.524 . S
C1419 C1411 1.503 . S
C1419 C1418 1.370 . S
C1419 C1420 1.403 . S
C1420 C1419 1.403 . S
C1420 C1421 1.404 . S
C1420 C1423 1.539 . S
C1421 C1417 1.408 . S
C1421 C1420 1.404 . S
C1421 H1433 0.930 . S
C1422 C1418 1.524 . S
C1422 H1434 0.956 . S
C1422 H1435 0.961 . S
C1422 H1436 0.961 . S
C1423 C1420 1.539 . S
C1423 H1437 0.958 . S
C1423 H1438 0.961 . S
C1423 H1439 0.960 . S
H1424 C1408 0.931 . S
H1425 C1413 0.929 . S
H1426 C1414 0.960 . S
H1427 C1414 0.962 . S
H1428 C1414 0.960 . S
H1429 C1415 0.961 . S
H1430 C1415 0.961 . S
H1431 C1415 0.961 . S
H1432 C1416 0.931 . S
H1433 C1421 0.930 . S
H1434 C1422 0.956 . S
H1435 C1422 0.961 . S
H1436 C1422 0.961 . S
H1437 C1423 0.958 . S
H1438 C1423 0.961 . S
H1439 C1423 0.960 . S
C1440 C1441 1.391 . S
C1440 C1442 1.394 . S
C1440 H1456 0.931 . S
C1441 C1440 1.391 . S
C1441 C1445 1.376 . S
C1442 C1440 1.394 . S
C1442 C1443 1.369 . S
C1442 C1446 1.531 . S
C1443 C1442 1.369 . S
C1443 C1444 1.410 . S
C1443 C1451 1.503 . S
C1444 C1443 1.410 . S
C1444 C1445 1.392 . S
C1444 C1447 1.511 . S
C1445 C1441 1.376 . S
C1445 C1444 1.392 . S
C1445 H1457 0.929 . S
C1446 C1442 1.531 . S
C1446 H1458 0.960 . S
C1446 H1459 0.962 . S
C1446 H1460 0.960 . S
C1447 C1444 1.511 . S
C1447 H1461 0.961 . S
C1447 H1462 0.961 . S
C1447 H1463 0.961 . S
C1448 C1449 1.370 . S
C1448 C1450 1.363 . S
C1448 H1464 0.931 . S
C1449 C1448 1.370 . S
C1449 C1453 1.408 . S
C1450 C1448 1.363 . S
C1450 C1451 1.370 . S
C1450 C1454 1.524 . S
C1451 C1443 1.503 . S
C1451 C1450 1.370 . S
C1451 C1452 1.403 . S
C1452 C1451 1.403 . S
C1452 C1453 1.404 . S
C1452 C1455 1.539 . S
C1453 C1449 1.408 . S
C1453 C1452 1.404 . S
C1453 H1465 0.930 . S
C1454 C1450 1.524 . S
C1454 H1466 0.956 . S
C1454 H1467 0.961 . S
C1454 H1468 0.961 . S
C1455 C1452 1.539 . S
C1455 H1469 0.958 . S
C1455 H1470 0.961 . S
C1455 H1471 0.960 . S
H1456 C1440 0.931 . S
H1457 C1445 0.929 . S
H1458 C1446 0.960 . S
H1459 C1446 0.962 . S
H1460 C1446 0.960 . S
H1461 C1447 0.961 . S
H1462 C1447 0.961 . S
H1463 C1447 0.961 . S
H1464 C1448 0.931 . S
H1465 C1453 0.930 . S
H1466 C1454 0.956 . S
H1467 C1454 0.961 . S
H1468 C1454 0.961 . S
H1469 C1455 0.958 . S
H1470 C1455 0.961 . S
H1471 C1455 0.960 . S
C1472 C1473 1.391 . S
C1472 C1474 1.394 . S
C1472 H1488 0.931 . S
C1473 C1472 1.391 . S
C1473 C1477 1.376 . S
C1474 C1472 1.394 . S
C1474 C1475 1.369 . S
C1474 C1478 1.531 . S
C1475 C1474 1.369 . S
C1475 C1476 1.410 . S
C1475 C1483 1.503 . S
C1476 C1475 1.410 . S
C1476 C1477 1.392 . S
C1476 C1479 1.511 . S
C1477 C1473 1.376 . S
C1477 C1476 1.392 . S
C1477 H1489 0.929 . S
C1478 C1474 1.531 . S
C1478 H1490 0.960 . S
C1478 H1491 0.962 . S
C1478 H1492 0.960 . S
C1479 C1476 1.511 . S
C1479 H1493 0.961 . S
C1479 H1494 0.961 . S
C1479 H1495 0.961 . S
C1480 C1481 1.370 . S
C1480 C1482 1.363 . S
C1480 H1496 0.931 . S
C1481 C1480 1.370 . S
C1481 C1485 1.408 . S
C1482 C1480 1.363 . S
C1482 C1483 1.370 . S
C1482 C1486 1.524 . S
C1483 C1475 1.503 . S
C1483 C1482 1.370 . S
C1483 C1484 1.403 . S
C1484 C1483 1.403 . S
C1484 C1485 1.404 . S
C1484 C1487 1.539 . S
C1485 C1481 1.408 . S
C1485 C1484 1.404 . S
C1485 H1497 0.930 . S
C1486 C1482 1.524 . S
C1486 H1498 0.956 . S
C1486 H1499 0.961 . S
C1486 H1500 0.961 . S
C1487 C1484 1.539 . S
C1487 H1501 0.958 . S
C1487 H1502 0.961 . S
C1487 H1503 0.960 . S
H1488 C1472 0.931 . S
H1489 C1477 0.929 . S
H1490 C1478 0.960 . S
H1491 C1478 0.962 . S
H1492 C1478 0.960 . S
H1493 C1479 0.961 . S
H1494 C1479 0.961 . S
H1495 C1479 0.961 . S
H1496 C1480 0.931 . S
H1497 C1485 0.930 . S
H1498 C1486 0.956 . S
H1499 C1486 0.961 . S
H1500 C1486 0.961 . S
H1501 C1487 0.958 . S
H1502 C1487 0.961 . S
H1503 C1487 0.960 . S
C1504 C1505 1.391 . S
C1504 C1506 1.394 . S
C1504 H1520 0.931 . S
C1505 C1504 1.391 . S
C1505 C1509 1.376 . S
C1506 C1504 1.394 . S
C1506 C1507 1.369 . S
C1506 C1510 1.531 1_455 S
C1507 C1506 1.369 . S
C1507 C1508 1.410 . S
C1507 C1515 1.503 1_455 S
C1508 C1507 1.410 . S
C1508 C1509 1.392 . S
C1508 C1511 1.511 . S
C1509 C1505 1.376 . S
C1509 C1508 1.392 . S
C1509 H1521 0.929 . S
C1510 C1506 1.531 1_655 S
C1510 H1522 0.960 . S
C1510 H1523 0.962 . S
C1510 H1524 0.960 1_655 S
C1511 C1508 1.511 . S
C1511 H1525 0.961 . S
C1511 H1526 0.961 . S
C1511 H1527 0.961 . S
C1512 C1513 1.370 . S
C1512 C1514 1.363 . S
C1512 H1528 0.931 . S
C1513 C1512 1.370 . S
C1513 C1517 1.408 . S
C1514 C1512 1.363 . S
C1514 C1515 1.370 . S
C1514 C1518 1.524 . S
C1515 C1507 1.503 1_655 S
C1515 C1514 1.370 . S
C1515 C1516 1.403 . S
C1516 C1515 1.403 . S
C1516 C1517 1.404 . S
C1516 C1519 1.539 1_655 S
C1517 C1513 1.408 . S
C1517 C1516 1.404 . S
C1517 H1529 0.930 . S
C1518 C1514 1.524 . S
C1518 H1530 0.956 . S
C1518 H1531 0.961 . S
C1518 H1532 0.961 . S
C1519 C1516 1.539 1_455 S
C1519 H1533 0.958 . S
C1519 H1534 0.961 . S
C1519 H1535 0.960 . S
H1520 C1504 0.931 . S
H1521 C1509 0.929 . S
H1522 C1510 0.960 . S
H1523 C1510 0.962 . S
H1524 C1510 0.960 1_455 S
H1525 C1511 0.961 . S
H1526 C1511 0.961 . S
H1527 C1511 0.961 . S
H1528 C1512 0.931 . S
H1529 C1517 0.930 . S
H1530 C1518 0.956 . S
H1531 C1518 0.961 . S
H1532 C1518 0.961 . S
H1533 C1519 0.958 . S
H1534 C1519 0.961 . S
H1535 C1519 0.960 . S
C1536 C1537 1.391 . S
C1536 C1538 1.394 . S
C1536 H1552 0.931 . S
C1537 C1536 1.391 . S
C1537 C1541 1.376 . S
C1538 C1536 1.394 . S
C1538 C1539 1.369 . S
C1538 C1542 1.531 . S
C1539 C1538 1.369 . S
C1539 C1540 1.410 . S
C1539 C1547 1.503 . S
C1540 C1539 1.410 . S
C1540 C1541 1.392 . S
C1540 C1543 1.511 . S
C1541 C1537 1.376 . S
C1541 C1540 1.392 . S
C1541 H1553 0.929 . S
C1542 C1538 1.531 . S
C1542 H1554 0.960 . S
C1542 H1555 0.962 . S
C1542 H1556 0.960 . S
C1543 C1540 1.511 . S
C1543 H1557 0.961 . S
C1543 H1558 0.961 . S
C1543 H1559 0.961 . S
C1544 C1545 1.370 . S
C1544 C1546 1.363 . S
C1544 H1560 0.931 . S
C1545 C1544 1.370 . S
C1545 C1549 1.408 . S
C1546 C1544 1.363 . S
C1546 C1547 1.370 . S
C1546 C1550 1.524 . S
C1547 C1539 1.503 . S
C1547 C1546 1.370 . S
C1547 C1548 1.403 . S
C1548 C1547 1.403 . S
C1548 C1549 1.404 . S
C1548 C1551 1.539 . S
C1549 C1545 1.408 . S
C1549 C1548 1.404 . S
C1549 H1561 0.930 . S
C1550 C1546 1.524 . S
C1550 H1562 0.956 . S
C1550 H1563 0.961 . S
C1550 H1564 0.961 . S
C1551 C1548 1.539 . S
C1551 H1565 0.958 . S
C1551 H1566 0.961 . S
C1551 H1567 0.960 . S
H1552 C1536 0.931 . S
H1553 C1541 0.929 . S
H1554 C1542 0.960 . S
H1555 C1542 0.962 . S
H1556 C1542 0.960 . S
H1557 C1543 0.961 . S
H1558 C1543 0.961 . S
H1559 C1543 0.961 . S
H1560 C1544 0.931 . S
H1561 C1549 0.930 . S
H1562 C1550 0.956 . S
H1563 C1550 0.961 . S
H1564 C1550 0.961 . S
H1565 C1551 0.958 . S
H1566 C1551 0.961 . S
H1567 C1551 0.960 . S
C1568 C1569 1.391 . S
C1568 C1570 1.394 . S
C1568 H1584 0.931 . S
C1569 C1568 1.391 . S
C1569 C1573 1.376 . S
C1570 C1568 1.394 . S
C1570 C1571 1.369 . S
C1570 C1574 1.531 . S
C1571 C1570 1.369 . S
C1571 C1572 1.410 . S
C1571 C1579 1.503 1_655 S
C1572 C1571 1.410 . S
C1572 C1573 1.392 . S
C1572 C1575 1.511 . S
C1573 C1569 1.376 . S
C1573 C1572 1.392 . S
C1573 H1585 0.929 . S
C1574 C1570 1.531 . S
C1574 H1586 0.960 1_655 S
C1574 H1587 0.962 1_655 S
C1574 H1588 0.960 . S
C1575 C1572 1.511 . S
C1575 H1589 0.961 . S
C1575 H1590 0.961 . S
C1575 H1591 0.961 . S
C1576 C1577 1.370 . S
C1576 C1578 1.363 . S
C1576 H1592 0.931 . S
C1577 C1576 1.370 . S
C1577 C1581 1.408 . S
C1578 C1576 1.363 . S
C1578 C1579 1.370 . S
C1578 C1582 1.524 . S
C1579 C1571 1.503 1_455 S
C1579 C1578 1.370 . S
C1579 C1580 1.403 . S
C1580 C1579 1.403 . S
C1580 C1581 1.404 . S
C1580 C1583 1.539 1_455 S
C1581 C1577 1.408 . S
C1581 C1580 1.404 . S
C1581 H1593 0.930 . S
C1582 C1578 1.524 . S
C1582 H1594 0.956 . S
C1582 H1595 0.961 . S
C1582 H1596 0.961 . S
C1583 C1580 1.539 1_655 S
C1583 H1597 0.958 . S
C1583 H1598 0.961 . S
C1583 H1599 0.960 . S
H1584 C1568 0.931 . S
H1585 C1573 0.929 . S
H1586 C1574 0.960 1_455 S
H1587 C1574 0.962 1_455 S
H1588 C1574 0.960 . S
H1589 C1575 0.961 . S
H1590 C1575 0.961 . S
H1591 C1575 0.961 . S
H1592 C1576 0.931 . S
H1593 C1581 0.930 . S
H1594 C1582 0.956 . S
H1595 C1582 0.961 . S
H1596 C1582 0.961 . S
H1597 C1583 0.958 . S
H1598 C1583 0.961 . S
H1599 C1583 0.960 . S
C1600 C1601 1.391 . S
C1600 C1602 1.394 . S
C1600 H1616 0.931 . S
C1601 C1600 1.391 . S
C1601 C1605 1.376 . S
C1602 C1600 1.394 . S
C1602 C1603 1.369 . S
C1602 C1606 1.531 . S
C1603 C1602 1.369 . S
C1603 C1604 1.410 . S
C1603 C1611 1.503 . S
C1604 C1603 1.410 . S
C1604 C1605 1.392 . S
C1604 C1607 1.511 . S
C1605 C1601 1.376 . S
C1605 C1604 1.392 . S
C1605 H1617 0.929 . S
C1606 C1602 1.531 . S
C1606 H1618 0.960 . S
C1606 H1619 0.962 . S
C1606 H1620 0.960 . S
C1607 C1604 1.511 . S
C1607 H1621 0.961 . S
C1607 H1622 0.961 . S
C1607 H1623 0.961 . S
C1608 C1609 1.370 . S
C1608 C1610 1.363 . S
C1608 H1624 0.931 . S
C1609 C1608 1.370 . S
C1609 C1613 1.408 . S
C1610 C1608 1.363 . S
C1610 C1611 1.370 . S
C1610 C1614 1.524 . S
C1611 C1603 1.503 . S
C1611 C1610 1.370 . S
C1611 C1612 1.403 . S
C1612 C1611 1.403 . S
C1612 C1613 1.404 . S
C1612 C1615 1.539 . S
C1613 C1609 1.408 . S
C1613 C1612 1.404 . S
C1613 H1625 0.930 . S
C1614 C1610 1.524 . S
C1614 H1626 0.956 . S
C1614 H1627 0.961 . S
C1614 H1628 0.961 . S
C1615 C1612 1.539 . S
C1615 H1629 0.958 . S
C1615 H1630 0.961 . S
C1615 H1631 0.960 . S
H1616 C1600 0.931 . S
H1617 C1605 0.929 . S
H1618 C1606 0.960 . S
H1619 C1606 0.962 . S
H1620 C1606 0.960 . S
H1621 C1607 0.961 . S
H1622 C1607 0.961 . S
H1623 C1607 0.961 . S
H1624 C1608 0.931 . S
H1625 C1613 0.930 . S
H1626 C1614 0.956 . S
H1627 C1614 0.961 . S
H1628 C1614 0.961 . S
H1629 C1615 0.958 . S
H1630 C1615 0.961 . S
H1631 C1615 0.960 . S
C1632 C1633 1.391 . S
C1632 C1634 1.394 . S
C1632 H1648 0.931 . S
C1633 C1632 1.391 . S
C1633 C1637 1.376 . S
C1634 C1632 1.394 . S
C1634 C1635 1.369 . S
C1634 C1638 1.531 . S
C1635 C1634 1.369 . S
C1635 C1636 1.410 . S
C1635 C1643 1.503 . S
C1636 C1635 1.410 . S
C1636 C1637 1.392 . S
C1636 C1639 1.511 . S
C1637 C1633 1.376 . S
C1637 C1636 1.392 . S
C1637 H1649 0.929 . S
C1638 C1634 1.531 . S
C1638 H1650 0.960 . S
C1638 H1651 0.962 . S
C1638 H1652 0.960 . S
C1639 C1636 1.511 . S
C1639 H1653 0.961 . S
C1639 H1654 0.961 . S
C1639 H1655 0.961 . S
C1640 C1641 1.370 . S
C1640 C1642 1.363 . S
C1640 H1656 0.931 . S
C1641 C1640 1.370 . S
C1641 C1645 1.408 . S
C1642 C1640 1.363 . S
C1642 C1643 1.370 . S
C1642 C1646 1.524 . S
C1643 C1635 1.503 . S
C1643 C1642 1.370 . S
C1643 C1644 1.403 . S
C1644 C1643 1.403 . S
C1644 C1645 1.404 . S
C1644 C1647 1.539 . S
C1645 C1641 1.408 . S
C1645 C1644 1.404 . S
C1645 H1657 0.930 . S
C1646 C1642 1.524 . S
C1646 H1658 0.956 . S
C1646 H1659 0.961 . S
C1646 H1660 0.961 . S
C1647 C1644 1.539 . S
C1647 H1661 0.958 . S
C1647 H1662 0.961 . S
C1647 H1663 0.960 . S
H1648 C1632 0.931 . S
H1649 C1637 0.929 . S
H1650 C1638 0.960 . S
H1651 C1638 0.962 . S
H1652 C1638 0.960 . S
H1653 C1639 0.961 . S
H1654 C1639 0.961 . S
H1655 C1639 0.961 . S
H1656 C1640 0.931 . S
H1657 C1645 0.930 . S
H1658 C1646 0.956 . S
H1659 C1646 0.961 . S
H1660 C1646 0.961 . S
H1661 C1647 0.958 . S
H1662 C1647 0.961 . S
H1663 C1647 0.960 . S
C1664 C1665 1.391 . S
C1664 C1666 1.394 . S
C1664 H1680 0.931 . S
C1665 C1664 1.391 . S
C1665 C1669 1.376 . S
C1666 C1664 1.394 . S
C1666 C1667 1.369 . S
C1666 C1670 1.531 . S
C1667 C1666 1.369 . S
C1667 C1668 1.410 . S
C1667 C1675 1.503 1_455 S
C1668 C1667 1.410 . S
C1668 C1669 1.392 . S
C1668 C1671 1.511 1_455 S
C1669 C1665 1.376 . S
C1669 C1668 1.392 . S
C1669 H1681 0.929 . S
C1670 C1666 1.531 . S
C1670 H1682 0.960 . S
C1670 H1683 0.962 . S
C1670 H1684 0.960 . S
C1671 C1668 1.511 1_655 S
C1671 H1685 0.961 . S
C1671 H1686 0.961 . S
C1671 H1687 0.961 . S
C1672 C1673 1.370 . S
C1672 C1674 1.363 . S
C1672 H1688 0.931 . S
C1673 C1672 1.370 . S
C1673 C1677 1.408 . S
C1674 C1672 1.363 . S
C1674 C1675 1.370 . S
C1674 C1678 1.524 1_655 S
C1675 C1667 1.503 1_655 S
C1675 C1674 1.370 . S
C1675 C1676 1.403 . S
C1676 C1675 1.403 . S
C1676 C1677 1.404 . S
C1676 C1679 1.539 . S
C1677 C1673 1.408 . S
C1677 C1676 1.404 . S
C1677 H1689 0.930 . S
C1678 C1674 1.524 1_455 S
C1678 H1690 0.956 . S
C1678 H1691 0.961 . S
C1678 H1692 0.954 1_455 S
C1679 C1676 1.539 . S
C1679 H1693 0.958 . S
C1679 H1694 0.961 . S
C1679 H1695 0.960 . S
H1680 C1664 0.931 . S
H1681 C1669 0.929 . S
H1682 C1670 0.960 . S
H1683 C1670 0.962 . S
H1684 C1670 0.960 . S
H1685 C1671 0.961 . S
H1686 C1671 0.961 . S
H1687 C1671 0.961 . S
H1688 C1672 0.931 . S
H1689 C1677 0.930 . S
H1690 C1678 0.956 . S
H1691 C1678 0.961 . S
H1692 C1678 0.954 1_655 S
H1693 C1679 0.958 . S
H1694 C1679 0.961 . S
H1695 C1679 0.960 . S
C1696 C1697 1.391 . S
C1696 C1698 1.394 . S
C1696 H1712 0.931 . S
C1697 C1696 1.391 . S
C1697 C1701 1.376 . S
C1698 C1696 1.394 . S
C1698 C1699 1.369 . S
C1698 C1702 1.531 . S
C1699 C1698 1.369 . S
C1699 C1700 1.410 1_655 S
C1699 C1707 1.503 1_655 S
C1700 C1699 1.410 1_455 S
C1700 C1701 1.392 1_455 S
C1700 C1703 1.511 . S
C1701 C1697 1.376 . S
C1701 C1700 1.392 1_655 S
C1701 H1713 0.929 . S
C1702 C1698 1.531 . S
C1702 H1714 0.960 . S
C1702 H1715 0.962 . S
C1702 H1716 0.960 . S
C1703 C1700 1.511 . S
C1703 H1717 0.961 . S
C1703 H1718 0.961 . S
C1703 H1719 0.961 . S
C1704 C1705 1.370 . S
C1704 C1706 1.363 . S
C1704 H1720 0.931 . S
C1705 C1704 1.370 . S
C1705 C1709 1.408 . S
C1706 C1704 1.363 . S
C1706 C1707 1.370 . S
C1706 C1710 1.524 1_455 S
C1707 C1699 1.503 1_455 S
C1707 C1706 1.370 . S
C1707 C1708 1.403 . S
C1708 C1707 1.403 . S
C1708 C1709 1.404 . S
C1708 C1711 1.539 . S
C1709 C1705 1.408 . S
C1709 C1708 1.404 . S
C1709 H1721 0.930 . S
C1710 C1706 1.524 1_655 S
C1710 H1722 0.956 . S
C1710 H1723 0.961 . S
C1710 H1724 0.961 . S
C1711 C1708 1.539 . S
C1711 H1725 0.958 . S
C1711 H1726 0.961 . S
C1711 H1727 0.960 . S
H1712 C1696 0.931 . S
H1713 C1701 0.929 . S
H1714 C1702 0.960 . S
H1715 C1702 0.962 . S
H1716 C1702 0.960 . S
H1717 C1703 0.961 . S
H1718 C1703 0.961 . S
H1719 C1703 0.961 . S
H1720 C1704 0.931 . S
H1721 C1709 0.930 . S
H1722 C1710 0.956 . S
H1723 C1710 0.961 . S
H1724 C1710 0.961 . S
H1725 C1711 0.958 . S
H1726 C1711 0.961 . S
H1727 C1711 0.960 . S
C1728 C1729 1.391 . S
C1728 C1730 1.394 . S
C1728 H1744 0.931 . S
C1729 C1728 1.391 . S
C1729 C1733 1.376 . S
C1730 C1728 1.394 . S
C1730 C1731 1.369 . S
C1730 C1734 1.531 . S
C1731 C1730 1.369 . S
C1731 C1732 1.410 . S
C1731 C1739 1.503 . S
C1732 C1731 1.410 . S
C1732 C1733 1.392 . S
C1732 C1735 1.511 . S
C1733 C1729 1.376 . S
C1733 C1732 1.392 . S
C1733 H1745 0.929 . S
C1734 C1730 1.531 . S
C1734 H1746 0.960 . S
C1734 H1747 0.962 . S
C1734 H1748 0.960 . S
C1735 C1732 1.511 . S
C1735 H1749 0.961 . S
C1735 H1750 0.961 . S
C1735 H1751 0.961 . S
C1736 C1737 1.370 . S
C1736 C1738 1.363 . S
C1736 H1752 0.931 . S
C1737 C1736 1.370 . S
C1737 C1741 1.408 . S
C1738 C1736 1.363 . S
C1738 C1739 1.370 . S
C1738 C1742 1.524 . S
C1739 C1731 1.503 . S
C1739 C1738 1.370 . S
C1739 C1740 1.403 . S
C1740 C1739 1.403 . S
C1740 C1741 1.404 . S
C1740 C1743 1.539 . S
C1741 C1737 1.408 . S
C1741 C1740 1.404 . S
C1741 H1753 0.930 . S
C1742 C1738 1.524 . S
C1742 H1754 0.956 . S
C1742 H1755 0.961 . S
C1742 H1756 0.961 . S
C1743 C1740 1.539 . S
C1743 H1757 0.958 . S
C1743 H1758 0.961 . S
C1743 H1759 0.960 . S
H1744 C1728 0.931 . S
H1745 C1733 0.929 . S
H1746 C1734 0.960 . S
H1747 C1734 0.962 . S
H1748 C1734 0.960 . S
H1749 C1735 0.961 . S
H1750 C1735 0.961 . S
H1751 C1735 0.961 . S
H1752 C1736 0.931 . S
H1753 C1741 0.930 . S
H1754 C1742 0.956 . S
H1755 C1742 0.961 . S
H1756 C1742 0.961 . S
H1757 C1743 0.958 . S
H1758 C1743 0.961 . S
H1759 C1743 0.960 . S
C1760 C1761 1.391 . S
C1760 C1762 1.394 . S
C1760 H1776 0.931 . S
C1761 C1760 1.391 . S
C1761 C1765 1.376 . S
C1762 C1760 1.394 . S
C1762 C1763 1.369 . S
C1762 C1766 1.531 . S
C1763 C1762 1.369 . S
C1763 C1764 1.410 . S
C1763 C1771 1.503 . S
C1764 C1763 1.410 . S
C1764 C1765 1.392 . S
C1764 C1767 1.511 . S
C1765 C1761 1.376 . S
C1765 C1764 1.392 . S
C1765 H1777 0.929 . S
C1766 C1762 1.531 . S
C1766 H1778 0.960 . S
C1766 H1779 0.962 . S
C1766 H1780 0.960 . S
C1767 C1764 1.511 . S
C1767 H1781 0.961 . S
C1767 H1782 0.961 . S
C1767 H1783 0.961 . S
C1768 C1769 1.370 . S
C1768 C1770 1.363 . S
C1768 H1784 0.931 . S
C1769 C1768 1.370 . S
C1769 C1773 1.408 . S
C1770 C1768 1.363 . S
C1770 C1771 1.370 . S
C1770 C1774 1.524 . S
C1771 C1763 1.503 . S
C1771 C1770 1.370 . S
C1771 C1772 1.403 . S
C1772 C1771 1.403 . S
C1772 C1773 1.404 . S
C1772 C1775 1.539 . S
C1773 C1769 1.408 . S
C1773 C1772 1.404 . S
C1773 H1785 0.930 . S
C1774 C1770 1.524 . S
C1774 H1786 0.956 . S
C1774 H1787 0.961 . S
C1774 H1788 0.961 . S
C1775 C1772 1.539 . S
C1775 H1789 0.958 . S
C1775 H1790 0.961 . S
C1775 H1791 0.960 . S
H1776 C1760 0.931 . S
H1777 C1765 0.929 . S
H1778 C1766 0.960 . S
H1779 C1766 0.962 . S
H1780 C1766 0.960 . S
H1781 C1767 0.961 . S
H1782 C1767 0.961 . S
H1783 C1767 0.961 . S
H1784 C1768 0.931 . S
H1785 C1773 0.930 . S
H1786 C1774 0.956 . S
H1787 C1774 0.961 . S
H1788 C1774 0.961 . S
H1789 C1775 0.958 . S
H1790 C1775 0.961 . S
H1791 C1775 0.960 . S
C1792 C1793 1.391 . S
C1792 C1794 1.394 . S
C1792 H1808 0.931 . S
C1793 C1792 1.391 . S
C1793 C1797 1.376 . S
C1794 C1792 1.394 . S
C1794 C1795 1.369 . S
C1794 C1798 1.531 1_655 S
C1795 C1794 1.369 . S
C1795 C1796 1.410 . S
C1795 C1803 1.503 1_655 S
C1796 C1795 1.410 . S
C1796 C1797 1.392 . S
C1796 C1799 1.511 . S
C1797 C1793 1.376 . S
C1797 C1796 1.392 . S
C1797 H1809 0.929 . S
C1798 C1794 1.531 1_455 S
C1798 H1810 0.960 . S
C1798 H1811 0.962 . S
C1798 H1812 0.967 . S
C1799 C1796 1.511 . S
C1799 H1813 0.961 . S
C1799 H1814 0.961 . S
C1799 H1815 0.961 . S
C1800 C1801 1.370 . S
C1800 C1802 1.363 . S
C1800 H1816 0.931 . S
C1801 C1800 1.370 . S
C1801 C1805 1.408 . S
C1802 C1800 1.363 . S
C1802 C1803 1.370 . S
C1802 C1806 1.524 . S
C1803 C1795 1.503 1_455 S
C1803 C1802 1.370 . S
C1803 C1804 1.403 . S
C1804 C1803 1.403 . S
C1804 C1805 1.404 . S
C1804 C1807 1.539 1_455 S
C1805 C1801 1.408 . S
C1805 C1804 1.404 . S
C1805 H1817 0.930 . S
C1806 C1802 1.524 . S
C1806 H1818 0.956 . S
C1806 H1819 0.961 . S
C1806 H1820 0.961 . S
C1807 C1804 1.539 1_655 S
C1807 H1821 0.958 . S
C1807 H1822 0.961 . S
C1807 H1823 0.960 . S
H1808 C1792 0.931 . S
H1809 C1797 0.929 . S
H1810 C1798 0.960 . S
H1811 C1798 0.962 . S
H1812 C1798 0.967 . S
H1813 C1799 0.961 . S
H1814 C1799 0.961 . S
H1815 C1799 0.961 . S
H1816 C1800 0.931 . S
H1817 C1805 0.930 . S
H1818 C1806 0.956 . S
H1819 C1806 0.961 . S
H1820 C1806 0.961 . S
H1821 C1807 0.958 . S
H1822 C1807 0.961 . S
H1823 C1807 0.960 . S
C1824 C1825 1.391 . S
C1824 C1826 1.394 . S
C1824 H1840 0.931 . S
C1825 C1824 1.391 . S
C1825 C1829 1.376 . S
C1826 C1824 1.394 . S
C1826 C1827 1.369 . S
C1826 C1830 1.531 . S
C1827 C1826 1.369 . S
C1827 C1828 1.410 . S
C1827 C1835 1.503 . S
C1828 C1827 1.410 . S
C1828 C1829 1.392 . S
C1828 C1831 1.511 . S
C1829 C1825 1.376 . S
C1829 C1828 1.392 . S
C1829 H1841 0.929 . S
C1830 C1826 1.531 . S
C1830 H1842 0.960 . S
C1830 H1843 0.962 . S
C1830 H1844 0.960 . S
C1831 C1828 1.511 . S
C1831 H1845 0.961 . S
C1831 H1846 0.961 . S
C1831 H1847 0.961 . S
C1832 C1833 1.370 . S
C1832 C1834 1.363 . S
C1832 H1848 0.931 . S
C1833 C1832 1.370 . S
C1833 C1837 1.408 . S
C1834 C1832 1.363 . S
C1834 C1835 1.370 . S
C1834 C1838 1.524 . S
C1835 C1827 1.503 . S
C1835 C1834 1.370 . S
C1835 C1836 1.403 . S
C1836 C1835 1.403 . S
C1836 C1837 1.404 . S
C1836 C1839 1.539 . S
C1837 C1833 1.408 . S
C1837 C1836 1.404 . S
C1837 H1849 0.930 . S
C1838 C1834 1.524 . S
C1838 H1850 0.956 . S
C1838 H1851 0.961 . S
C1838 H1852 0.961 . S
C1839 C1836 1.539 . S
C1839 H1853 0.958 . S
C1839 H1854 0.961 . S
C1839 H1855 0.960 . S
H1840 C1824 0.931 . S
H1841 C1829 0.929 . S
H1842 C1830 0.960 . S
H1843 C1830 0.962 . S
H1844 C1830 0.960 . S
H1845 C1831 0.961 . S
H1846 C1831 0.961 . S
H1847 C1831 0.961 . S
H1848 C1832 0.931 . S
H1849 C1837 0.930 . S
H1850 C1838 0.956 . S
H1851 C1838 0.961 . S
H1852 C1838 0.961 . S
H1853 C1839 0.958 . S
H1854 C1839 0.961 . S
H1855 C1839 0.960 . S
C1856 C1857 1.391 . S
C1856 C1858 1.394 . S
C1856 H1872 0.931 . S
C1857 C1856 1.391 . S
C1857 C1861 1.376 . S
C1858 C1856 1.394 . S
C1858 C1859 1.369 . S
C1858 C1862 1.531 . S
C1859 C1858 1.369 . S
C1859 C1860 1.410 . S
C1859 C1867 1.503 . S
C1860 C1859 1.410 . S
C1860 C1861 1.392 . S
C1860 C1863 1.511 . S
C1861 C1857 1.376 . S
C1861 C1860 1.392 . S
C1861 H1873 0.929 . S
C1862 C1858 1.531 . S
C1862 H1874 0.960 . S
C1862 H1875 0.962 . S
C1862 H1876 0.960 . S
C1863 C1860 1.511 . S
C1863 H1877 0.961 . S
C1863 H1878 0.961 . S
C1863 H1879 0.961 . S
C1864 C1865 1.370 . S
C1864 C1866 1.363 . S
C1864 H1880 0.931 . S
C1865 C1864 1.370 . S
C1865 C1869 1.408 . S
C1866 C1864 1.363 . S
C1866 C1867 1.370 . S
C1866 C1870 1.524 . S
C1867 C1859 1.503 . S
C1867 C1866 1.370 . S
C1867 C1868 1.403 . S
C1868 C1867 1.403 . S
C1868 C1869 1.404 . S
C1868 C1871 1.539 . S
C1869 C1865 1.408 . S
C1869 C1868 1.404 . S
C1869 H1881 0.930 . S
C1870 C1866 1.524 . S
C1870 H1882 0.956 . S
C1870 H1883 0.961 . S
C1870 H1884 0.961 . S
C1871 C1868 1.539 . S
C1871 H1885 0.958 . S
C1871 H1886 0.961 . S
C1871 H1887 0.960 . S
H1872 C1856 0.931 . S
H1873 C1861 0.929 . S
H1874 C1862 0.960 . S
H1875 C1862 0.962 . S
H1876 C1862 0.960 . S
H1877 C1863 0.961 . S
H1878 C1863 0.961 . S
H1879 C1863 0.961 . S
H1880 C1864 0.931 . S
H1881 C1869 0.930 . S
H1882 C1870 0.956 . S
H1883 C1870 0.961 . S
H1884 C1870 0.961 . S
H1885 C1871 0.958 . S
H1886 C1871 0.961 . S
H1887 C1871 0.960 . S
C1888 C1889 1.391 . S
C1888 C1890 1.394 . S
C1888 H1904 0.931 . S
C1889 C1888 1.391 . S
C1889 C1893 1.376 . S
C1890 C1888 1.394 . S
C1890 C1891 1.369 . S
C1890 C1894 1.531 . S
C1891 C1890 1.369 . S
C1891 C1892 1.410 1_455 S
C1891 C1899 1.503 1_455 S
C1892 C1891 1.410 1_655 S
C1892 C1893 1.392 1_655 S
C1892 C1895 1.511 . S
C1893 C1889 1.376 . S
C1893 C1892 1.392 1_455 S
C1893 H1905 0.929 . S
C1894 C1890 1.531 . S
C1894 H1906 0.960 . S
C1894 H1907 0.962 . S
C1894 H1908 0.960 . S
C1895 C1892 1.511 . S
C1895 H1909 0.961 . S
C1895 H1910 0.961 . S
C1895 H1911 0.961 . S
C1896 C1897 1.370 . S
C1896 C1898 1.363 . S
C1896 H1912 0.931 . S
C1897 C1896 1.370 . S
C1897 C1901 1.408 . S
C1898 C1896 1.363 . S
C1898 C1899 1.370 . S
C1898 C1902 1.524 1_655 S
C1899 C1891 1.503 1_655 S
C1899 C1898 1.370 . S
C1899 C1900 1.403 . S
C1900 C1899 1.403 . S
C1900 C1901 1.404 . S
C1900 C1903 1.539 . S
C1901 C1897 1.408 . S
C1901 C1900 1.404 . S
C1901 H1913 0.930 . S
C1902 C1898 1.524 1_455 S
C1902 H1914 0.956 . S
C1902 H1915 0.961 1_455 S
C1902 H1916 0.958 1_455 S
C1903 C1900 1.539 . S
C1903 H1917 0.958 . S
C1903 H1918 0.961 . S
C1903 H1919 0.960 . S
H1904 C1888 0.931 . S
H1905 C1893 0.929 . S
H1906 C1894 0.960 . S
H1907 C1894 0.962 . S
H1908 C1894 0.960 . S
H1909 C1895 0.961 . S
H1910 C1895 0.961 . S
H1911 C1895 0.961 . S
H1912 C1896 0.931 . S
H1913 C1901 0.930 . S
H1914 C1902 0.956 . S
H1915 C1902 0.961 1_655 S
H1916 C1902 0.958 1_655 S
H1917 C1903 0.958 . S
H1918 C1903 0.961 . S
H1919 C1903 0.960 . S
C1920 C1921 1.391 . S
C1920 C1922 1.394 . S
C1920 H1936 0.931 . S
C1921 C1920 1.391 . S
C1921 C1925 1.376 . S
C1922 C1920 1.394 . S
C1922 C1923 1.369 . S
C1922 C1926 1.531 1_455 S
C1923 C1922 1.369 . S
C1923 C1924 1.410 . S
C1923 C1931 1.503 1_455 S
C1924 C1923 1.410 . S
C1924 C1925 1.392 . S
C1924 C1927 1.511 . S
C1925 C1921 1.376 . S
C1925 C1924 1.392 . S
C1925 H1937 0.929 . S
C1926 C1922 1.531 1_655 S
C1926 H1938 0.960 . S
C1926 H1939 0.962 . S
C1926 H1940 0.960 . S
C1927 C1924 1.511 . S
C1927 H1941 0.961 . S
C1927 H1942 0.961 . S
C1927 H1943 0.961 . S
C1928 C1929 1.370 . S
C1928 C1930 1.363 . S
C1928 H1944 0.931 . S
C1929 C1928 1.370 . S
C1929 C1933 1.408 . S
C1930 C1928 1.363 . S
C1930 C1931 1.370 . S
C1930 C1934 1.524 1_655 S
C1931 C1923 1.503 1_655 S
C1931 C1930 1.370 . S
C1931 C1932 1.403 . S
C1932 C1931 1.403 . S
C1932 C1933 1.404 . S
C1932 C1935 1.539 . S
C1933 C1929 1.408 . S
C1933 C1932 1.404 . S
C1933 H1945 0.930 . S
C1934 C1930 1.524 1_455 S
C1934 H1946 0.956 . S
C1934 H1947 0.961 . S
C1934 H1948 0.961 1_455 S
C1935 C1932 1.539 . S
C1935 H1949 0.958 . S
C1935 H1950 0.961 . S
C1935 H1951 0.960 . S
H1936 C1920 0.931 . S
H1937 C1925 0.929 . S
H1938 C1926 0.960 . S
H1939 C1926 0.962 . S
H1940 C1926 0.960 . S
H1941 C1927 0.961 . S
H1942 C1927 0.961 . S
H1943 C1927 0.961 . S
H1944 C1928 0.931 . S
H1945 C1933 0.930 . S
H1946 C1934 0.956 . S
H1947 C1934 0.961 . S
H1948 C1934 0.961 1_655 S
H1949 C1935 0.958 . S
H1950 C1935 0.961 . S
H1951 C1935 0.960 . S
C1952 C1953 1.391 . S
C1952 C1954 1.394 . S
C1952 H1968 0.931 . S
C1953 C1952 1.391 . S
C1953 C1957 1.376 . S
C1954 C1952 1.394 . S
C1954 C1955 1.369 . S
C1954 C1958 1.531 . S
C1955 C1954 1.369 . S
C1955 C1956 1.410 . S
C1955 C1963 1.503 1_655 S
C1956 C1955 1.410 . S
C1956 C1957 1.392 . S
C1956 C1959 1.511 1_655 S
C1957 C1953 1.376 . S
C1957 C1956 1.392 . S
C1957 H1969 0.929 . S
C1958 C1954 1.531 . S
C1958 H1970 0.960 1_655 S
C1958 H1971 0.962 . S
C1958 H1972 0.960 . S
C1959 C1956 1.511 1_455 S
C1959 H1973 0.961 . S
C1959 H1974 0.961 . S
C1959 H1975 0.961 . S
C1960 C1961 1.370 . S
C1960 C1962 1.363 1_455 S
C1960 H1976 0.931 . S
C1961 C1960 1.370 . S
C1961 C1965 1.408 . S
C1962 C1960 1.363 1_655 S
C1962 C1963 1.370 1_655 S
C1962 C1966 1.524 . S
C1963 C1955 1.503 1_455 S
C1963 C1962 1.370 1_455 S
C1963 C1964 1.403 . S
C1964 C1963 1.403 . S
C1964 C1965 1.404 . S
C1964 C1967 1.539 . S
C1965 C1961 1.408 . S
C1965 C1964 1.404 . S
C1965 H1977 0.930 . S
C1966 C1962 1.524 . S
C1966 H1978 0.956 . S
C1966 H1979 0.961 . S
C1966 H1980 0.961 . S
C1967 C1964 1.539 . S
C1967 H1981 0.958 . S
C1967 H1982 0.961 . S
C1967 H1983 0.960 . S
H1968 C1952 0.931 . S
H1969 C1957 0.929 . S
H1970 C1958 0.960 1_455 S
H1971 C1958 0.962 . S
H1972 C1958 0.960 . S
H1973 C1959 0.961 . S
H1974 C1959 0.961 . S
H1975 C1959 0.961 . S
H1976 C1960 0.931 . S
H1977 C1965 0.930 . S
H1978 C1966 0.956 . S
H1979 C1966 0.961 . S
H1980 C1966 0.961 . S
H1981 C1967 0.958 . S
H1982 C1967 0.961 . S
H1983 C1967 0.960 . S
C1984 C1985 1.391 . S
C1984 C1986 1.394 . S
C1984 H2000 0.931 . S
C1985 C1984 1.391 . S
C1985 C1989 1.376 . S
C1986 C1984 1.394 . S
C1986 C1987 1.369 . S
C1986 C1990 1.531 . S
C1987 C1986 1.369 . S
C1987 C1988 1.410 . S
C1987 C1995 1.503 . S
C1988 C1987 1.410 . S
C1988 C1989 1.392 . S
C1988 C1991 1.511 . S
C1989 C1985 1.376 . S
C1989 C1988 1.392 . S
C1989 H2001 0.929 . S
C1990 C1986 1.531 . S
C1990 H2002 0.960 . S
C1990 H2003 0.962 . S
C1990 H2004 0.960 . S
C1991 C1988 1.511 . S
C1991 H2005 0.961 . S
C1991 H2006 0.961 . S
C1991 H2007 0.961 . S
C1992 C1993 1.370 . S
C1992 C1994 1.363 . S
C1992 H2008 0.931 . S
C1993 C1992 1.370 . S
C1993 C1997 1.408 . S
C1994 C1992 1.363 . S
C1994 C1995 1.370 . S
C1994 C1998 1.524 . S
C1995 C1987 1.503 . S
C1995 C1994 1.370 . S
C1995 C1996 1.403 . S
C1996 C1995 1.403 . S
C1996 C1997 1.404 . S
C1996 C1999 1.539 . S
C1997 C1993 1.408 . S
C1997 C1996 1.404 . S
C1997 H2009 0.930 . S
C1998 C1994 1.524 . S
C1998 H2010 0.956 . S
C1998 H2011 0.961 . S
C1998 H2012 0.961 . S
C1999 C1996 1.539 . S
C1999 H2013 0.958 . S
C1999 H2014 0.961 . S
C1999 H2015 0.960 . S
H2000 C1984 0.931 . S
H2001 C1989 0.929 . S
H2002 C1990 0.960 . S
H2003 C1990 0.962 . S
H2004 C1990 0.960 . S
H2005 C1991 0.961 . S
H2006 C1991 0.961 . S
H2007 C1991 0.961 . S
H2008 C1992 0.931 . S
H2009 C1997 0.930 . S
H2010 C1998 0.956 . S
H2011 C1998 0.961 . S
H2012 C1998 0.961 . S
H2013 C1999 0.958 . S
H2014 C1999 0.961 . S
H2015 C1999 0.960 . S
C2016 C2017 1.391 . S
C2016 C2018 1.394 . S
C2016 H2032 0.931 . S
C2017 C2016 1.391 . S
C2017 C2021 1.376 . S
C2018 C2016 1.394 . S
C2018 C2019 1.369 . S
C2018 C2022 1.531 . S
C2019 C2018 1.369 . S
C2019 C2020 1.410 . S
C2019 C2027 1.503 . S
C2020 C2019 1.410 . S
C2020 C2021 1.392 . S
C2020 C2023 1.511 . S
C2021 C2017 1.376 . S
C2021 C2020 1.392 . S
C2021 H2033 0.929 . S
C2022 C2018 1.531 . S
C2022 H2034 0.960 . S
C2022 H2035 0.962 . S
C2022 H2036 0.960 . S
C2023 C2020 1.511 . S
C2023 H2037 0.961 . S
C2023 H2038 0.961 . S
C2023 H2039 0.961 . S
C2024 C2025 1.370 . S
C2024 C2026 1.363 . S
C2024 H2040 0.931 . S
C2025 C2024 1.370 . S
C2025 C2029 1.408 . S
C2026 C2024 1.363 . S
C2026 C2027 1.370 . S
C2026 C2030 1.524 . S
C2027 C2019 1.503 . S
C2027 C2026 1.370 . S
C2027 C2028 1.403 . S
C2028 C2027 1.403 . S
C2028 C2029 1.404 . S
C2028 C2031 1.539 . S
C2029 C2025 1.408 . S
C2029 C2028 1.404 . S
C2029 H2041 0.930 . S
C2030 C2026 1.524 . S
C2030 H2042 0.956 . S
C2030 H2043 0.961 . S
C2030 H2044 0.961 . S
C2031 C2028 1.539 . S
C2031 H2045 0.958 . S
C2031 H2046 0.961 . S
C2031 H2047 0.960 . S
H2032 C2016 0.931 . S
H2033 C2021 0.929 . S
H2034 C2022 0.960 . S
H2035 C2022 0.962 . S
H2036 C2022 0.960 . S
H2037 C2023 0.961 . S
H2038 C2023 0.961 . S
H2039 C2023 0.961 . S
H2040 C2024 0.931 . S
H2041 C2029 0.930 . S
H2042 C2030 0.956 . S
H2043 C2030 0.961 . S
H2044 C2030 0.961 . S
H2045 C2031 0.958 . S
H2046 C2031 0.961 . S
H2047 C2031 0.960 . S
C2048 C2049 1.391 . S
C2048 C2050 1.394 . S
C2048 H2064 0.931 . S
C2049 C2048 1.391 . S
C2049 C2053 1.376 . S
C2050 C2048 1.394 . S
C2050 C2051 1.369 . S
C2050 C2054 1.531 . S
C2051 C2050 1.369 . S
C2051 C2052 1.410 . S
C2051 C2059 1.503 1_455 S
C2052 C2051 1.410 . S
C2052 C2053 1.392 . S
C2052 C2055 1.511 1_455 S
C2053 C2049 1.376 . S
C2053 C2052 1.392 . S
C2053 H2065 0.929 . S
C2054 C2050 1.531 . S
C2054 H2066 0.960 . S
C2054 H2067 0.962 . S
C2054 H2068 0.960 . S
C2055 C2052 1.511 1_655 S
C2055 H2069 0.961 . S
C2055 H2070 0.961 . S
C2055 H2071 0.961 . S
C2056 C2057 1.370 . S
C2056 C2058 1.363 . S
C2056 H2072 0.931 . S
C2057 C2056 1.370 . S
C2057 C2061 1.408 . S
C2058 C2056 1.363 . S
C2058 C2059 1.370 . S
C2058 C2062 1.524 1_655 S
C2059 C2051 1.503 1_655 S
C2059 C2058 1.370 . S
C2059 C2060 1.403 . S
C2060 C2059 1.403 . S
C2060 C2061 1.404 . S
C2060 C2063 1.539 . S
C2061 C2057 1.408 . S
C2061 C2060 1.404 . S
C2061 H2073 0.930 . S
C2062 C2058 1.524 1_455 S
C2062 H2074 0.956 . S
C2062 H2075 0.961 . S
C2062 H2076 0.961 . S
C2063 C2060 1.539 . S
C2063 H2077 0.958 . S
C2063 H2078 0.961 . S
C2063 H2079 0.960 . S
H2064 C2048 0.931 . S
H2065 C2053 0.929 . S
H2066 C2054 0.960 . S
H2067 C2054 0.962 . S
H2068 C2054 0.960 . S
H2069 C2055 0.961 . S
H2070 C2055 0.961 . S
H2071 C2055 0.961 . S
H2072 C2056 0.931 . S
H2073 C2061 0.930 . S
H2074 C2062 0.956 . S
H2075 C2062 0.961 . S
H2076 C2062 0.961 . S
H2077 C2063 0.958 . S
H2078 C2063 0.961 . S
H2079 C2063 0.960 . S
C2080 C2081 1.391 . S
C2080 C2082 1.394 . S
C2080 H2096 0.931 . S
C2081 C2080 1.391 . S
C2081 C2085 1.376 . S
C2082 C2080 1.394 . S
C2082 C2083 1.369 . S
C2082 C2086 1.531 . S
C2083 C2082 1.369 . S
C2083 C2084 1.410 . S
C2083 C2091 1.503 . S
C2084 C2083 1.410 . S
C2084 C2085 1.392 . S
C2084 C2087 1.511 . S
C2085 C2081 1.376 . S
C2085 C2084 1.392 . S
C2085 H2097 0.929 . S
C2086 C2082 1.531 . S
C2086 H2098 0.960 . S
C2086 H2099 0.962 . S
C2086 H2100 0.960 . S
C2087 C2084 1.511 . S
C2087 H2101 0.961 . S
C2087 H2102 0.961 . S
C2087 H2103 0.961 . S
C2088 C2089 1.370 . S
C2088 C2090 1.363 . S
C2088 H2104 0.931 . S
C2089 C2088 1.370 . S
C2089 C2093 1.408 . S
C2090 C2088 1.363 . S
C2090 C2091 1.370 . S
C2090 C2094 1.524 . S
C2091 C2083 1.503 . S
C2091 C2090 1.370 . S
C2091 C2092 1.403 . S
C2092 C2091 1.403 . S
C2092 C2093 1.404 . S
C2092 C2095 1.539 . S
C2093 C2089 1.408 . S
C2093 C2092 1.404 . S
C2093 H2105 0.930 . S
C2094 C2090 1.524 . S
C2094 H2106 0.956 . S
C2094 H2107 0.961 . S
C2094 H2108 0.961 . S
C2095 C2092 1.539 . S
C2095 H2109 0.958 . S
C2095 H2110 0.961 . S
C2095 H2111 0.960 . S
H2096 C2080 0.931 . S
H2097 C2085 0.929 . S
H2098 C2086 0.960 . S
H2099 C2086 0.962 . S
H2100 C2086 0.960 . S
H2101 C2087 0.961 . S
H2102 C2087 0.961 . S
H2103 C2087 0.961 . S
H2104 C2088 0.931 . S
H2105 C2093 0.930 . S
H2106 C2094 0.956 . S
H2107 C2094 0.961 . S
H2108 C2094 0.961 . S
H2109 C2095 0.958 . S
H2110 C2095 0.961 . S
H2111 C2095 0.960 . S
C2112 C2113 1.391 . S
C2112 C2114 1.394 . S
C2112 H2128 0.931 . S
C2113 C2112 1.391 . S
C2113 C2117 1.376 . S
C2114 C2112 1.394 . S
C2114 C2115 1.369 . S
C2114 C2118 1.531 . S
C2115 C2114 1.369 . S
C2115 C2116 1.410 . S
C2115 C2123 1.503 . S
C2116 C2115 1.410 . S
C2116 C2117 1.392 . S
C2116 C2119 1.511 . S
C2117 C2113 1.376 . S
C2117 C2116 1.392 . S
C2117 H2129 0.929 . S
C2118 C2114 1.531 . S
C2118 H2130 0.960 . S
C2118 H2131 0.962 . S
C2118 H2132 0.960 . S
C2119 C2116 1.511 . S
C2119 H2133 0.961 . S
C2119 H2134 0.961 . S
C2119 H2135 0.961 . S
C2120 C2121 1.370 . S
C2120 C2122 1.363 . S
C2120 H2136 0.931 . S
C2121 C2120 1.370 . S
C2121 C2125 1.408 . S
C2122 C2120 1.363 . S
C2122 C2123 1.370 . S
C2122 C2126 1.524 . S
C2123 C2115 1.503 . S
C2123 C2122 1.370 . S
C2123 C2124 1.403 . S
C2124 C2123 1.403 . S
C2124 C2125 1.404 . S
C2124 C2127 1.539 . S
C2125 C2121 1.408 . S
C2125 C2124 1.404 . S
C2125 H2137 0.930 . S
C2126 C2122 1.524 . S
C2126 H2138 0.956 . S
C2126 H2139 0.961 . S
C2126 H2140 0.961 . S
C2127 C2124 1.539 . S
C2127 H2141 0.958 . S
C2127 H2142 0.961 . S
C2127 H2143 0.960 . S
H2128 C2112 0.931 . S
H2129 C2117 0.929 . S
H2130 C2118 0.960 . S
H2131 C2118 0.962 . S
H2132 C2118 0.960 . S
H2133 C2119 0.961 . S
H2134 C2119 0.961 . S
H2135 C2119 0.961 . S
H2136 C2120 0.931 . S
H2137 C2125 0.930 . S
H2138 C2126 0.956 . S
H2139 C2126 0.961 . S
H2140 C2126 0.961 . S
H2141 C2127 0.958 . S
H2142 C2127 0.961 . S
H2143 C2127 0.960 . S
C2144 C2145 1.391 . S
C2144 C2146 1.394 1_655 S
C2144 H2160 0.931 . S
C2145 C2144 1.391 . S
C2145 C2149 1.376 . S
C2146 C2144 1.394 1_455 S
C2146 C2147 1.369 1_455 S
C2146 C2150 1.531 . S
C2147 C2146 1.369 1_655 S
C2147 C2148 1.410 . S
C2147 C2155 1.503 1_655 S
C2148 C2147 1.410 . S
C2148 C2149 1.392 . S
C2148 C2151 1.511 . S
C2149 C2145 1.376 . S
C2149 C2148 1.392 . S
C2149 H2161 0.929 . S
C2150 C2146 1.531 . S
C2150 H2162 0.960 . S
C2150 H2163 0.962 . S
C2150 H2164 0.960 . S
C2151 C2148 1.511 . S
C2151 H2165 0.961 . S
C2151 H2166 0.961 . S
C2151 H2167 0.961 . S
C2152 C2153 1.370 . S
C2152 C2154 1.363 . S
C2152 H2168 0.931 . S
C2153 C2152 1.370 . S
C2153 C2157 1.408 . S
C2154 C2152 1.363 . S
C2154 C2155 1.370 . S
C2154 C2158 1.524 . S
C2155 C2147 1.503 1_455 S
C2155 C2154 1.370 . S
C2155 C2156 1.403 . S
C2156 C2155 1.403 . S
C2156 C2157 1.404 . S
C2156 C2159 1.539 1_455 S
C2157 C2153 1.408 . S
C2157 C2156 1.404 . S
C2157 H2169 0.930 . S
C2158 C2154 1.524 . S
C2158 H2170 0.956 . S
C2158 H2171 0.961 1_455 S
C2158 H2172 0.961 . S
C2159 C2156 1.539 1_655 S
C2159 H2173 0.958 1_655 S
C2159 H2174 0.961 . S
C2159 H2175 0.960 . S
H2160 C2144 0.931 . S
H2161 C2149 0.929 . S
H2162 C2150 0.960 . S
H2163 C2150 0.962 . S
H2164 C2150 0.960 . S
H2165 C2151 0.961 . S
H2166 C2151 0.961 . S
H2167 C2151 0.961 . S
H2168 C2152 0.931 . S
H2169 C2157 0.930 . S
H2170 C2158 0.956 . S
H2171 C2158 0.961 1_655 S
H2172 C2158 0.961 . S
H2173 C2159 0.958 1_455 S
H2174 C2159 0.961 . S
H2175 C2159 0.960 . S
C2176 C2177 1.391 . S
C2176 C2178 1.394 . S
C2176 H2192 0.931 . S
C2177 C2176 1.391 . S
C2177 C2181 1.376 . S
C2178 C2176 1.394 . S
C2178 C2179 1.369 . S
C2178 C2182 1.531 . S
C2179 C2178 1.369 . S
C2179 C2180 1.410 . S
C2179 C2187 1.503 . S
C2180 C2179 1.410 . S
C2180 C2181 1.392 . S
C2180 C2183 1.511 . S
C2181 C2177 1.376 . S
C2181 C2180 1.392 . S
C2181 H2193 0.929 . S
C2182 C2178 1.531 . S
C2182 H2194 0.960 . S
C2182 H2195 0.962 . S
C2182 H2196 0.960 . S
C2183 C2180 1.511 . S
C2183 H2197 0.961 . S
C2183 H2198 0.961 . S
C2183 H2199 0.961 . S
C2184 C2185 1.370 . S
C2184 C2186 1.363 . S
C2184 H2200 0.931 . S
C2185 C2184 1.370 . S
C2185 C2189 1.408 . S
C2186 C2184 1.363 . S
C2186 C2187 1.370 . S
C2186 C2190 1.524 . S
C2187 C2179 1.503 . S
C2187 C2186 1.370 . S
C2187 C2188 1.403 . S
C2188 C2187 1.403 . S
C2188 C2189 1.404 . S
C2188 C2191 1.539 . S
C2189 C2185 1.408 . S
C2189 C2188 1.404 . S
C2189 H2201 0.930 . S
C2190 C2186 1.524 . S
C2190 H2202 0.956 . S
C2190 H2203 0.961 . S
C2190 H2204 0.961 . S
C2191 C2188 1.539 . S
C2191 H2205 0.958 . S
C2191 H2206 0.961 . S
C2191 H2207 0.960 . S
H2192 C2176 0.931 . S
H2193 C2181 0.929 . S
H2194 C2182 0.960 . S
H2195 C2182 0.962 . S
H2196 C2182 0.960 . S
H2197 C2183 0.961 . S
H2198 C2183 0.961 . S
H2199 C2183 0.961 . S
H2200 C2184 0.931 . S
H2201 C2189 0.930 . S
H2202 C2190 0.956 . S
H2203 C2190 0.961 . S
H2204 C2190 0.961 . S
H2205 C2191 0.958 . S
H2206 C2191 0.961 . S
H2207 C2191 0.960 . S
C2208 C2209 1.391 . S
C2208 C2210 1.394 . S
C2208 H2224 0.931 . S
C2209 C2208 1.391 . S
C2209 C2213 1.376 . S
C2210 C2208 1.394 . S
C2210 C2211 1.369 . S
C2210 C2214 1.531 1_655 S
C2211 C2210 1.369 . S
C2211 C2212 1.410 . S
C2211 C2219 1.503 1_645 S
C2212 C2211 1.410 . S
C2212 C2213 1.392 . S
C2212 C2215 1.511 1_545 S
C2213 C2209 1.376 . S
C2213 C2212 1.392 . S
C2213 H2225 0.929 . S
C2214 C2210 1.531 1_455 S
C2214 H2226 0.960 . S
C2214 H2227 0.962 . S
C2214 H2228 0.960 . S
C2215 C2212 1.511 1_565 S
C2215 H2229 0.961 . S
C2215 H2230 0.961 . S
C2215 H2231 0.944 1_565 S
C2216 C2217 1.370 . S
C2216 C2218 1.363 . S
C2216 H2232 0.931 . S
C2217 C2216 1.370 . S
C2217 C2221 1.408 1_565 S
C2218 C2216 1.363 . S
C2218 C2219 1.370 . S
C2218 C2222 1.524 . S
C2219 C2211 1.503 1_465 S
C2219 C2218 1.370 . S
C2219 C2220 1.403 1_565 S
C2220 C2219 1.403 1_545 S
C2220 C2221 1.404 . S
C2220 C2223 1.539 . S
C2221 C2217 1.408 1_545 S
C2221 C2220 1.404 . S
C2221 H2233 0.930 . S
C2222 C2218 1.524 . S
C2222 H2234 0.956 . S
C2222 H2235 0.961 1_455 S
C2222 H2236 0.961 . S
C2223 C2220 1.539 . S
C2223 H2237 0.958 . S
C2223 H2238 0.961 . S
C2223 H2239 0.960 1_455 S
H2224 C2208 0.931 . S
H2225 C2213 0.929 . S
H2226 C2214 0.960 . S
H2227 C2214 0.962 . S
H2228 C2214 0.960 . S
H2229 C2215 0.961 . S
H2230 C2215 0.961 . S
H2231 C2215 0.944 1_545 S
H2232 C2216 0.931 . S
H2233 C2221 0.930 . S
H2234 C2222 0.956 . S
H2235 C2222 0.961 1_655 S
H2236 C2222 0.961 . S
H2237 C2223 0.958 . S
H2238 C2223 0.961 . S
H2239 C2223 0.960 1_655 S
C2240 C2241 1.391 . S
C2240 C2242 1.394 . S
C2240 H2256 0.931 . S
C2241 C2240 1.391 . S
C2241 C2245 1.376 . S
C2242 C2240 1.394 . S
C2242 C2243 1.369 . S
C2242 C2246 1.531 . S
C2243 C2242 1.369 . S
C2243 C2244 1.410 . S
C2243 C2251 1.503 . S
C2244 C2243 1.410 . S
C2244 C2245 1.392 . S
C2244 C2247 1.511 . S
C2245 C2241 1.376 . S
C2245 C2244 1.392 . S
C2245 H2257 0.929 . S
C2246 C2242 1.531 . S
C2246 H2258 0.960 . S
C2246 H2259 0.962 . S
C2246 H2260 0.960 . S
C2247 C2244 1.511 . S
C2247 H2261 0.961 . S
C2247 H2262 0.961 . S
C2247 H2263 0.961 . S
C2248 C2249 1.370 . S
C2248 C2250 1.363 . S
C2248 H2264 0.931 . S
C2249 C2248 1.370 . S
C2249 C2253 1.408 . S
C2250 C2248 1.363 . S
C2250 C2251 1.370 . S
C2250 C2254 1.524 . S
C2251 C2243 1.503 . S
C2251 C2250 1.370 . S
C2251 C2252 1.403 . S
C2252 C2251 1.403 . S
C2252 C2253 1.404 . S
C2252 C2255 1.539 . S
C2253 C2249 1.408 . S
C2253 C2252 1.404 . S
C2253 H2265 0.930 . S
C2254 C2250 1.524 . S
C2254 H2266 0.956 . S
C2254 H2267 0.961 . S
C2254 H2268 0.961 . S
C2255 C2252 1.539 . S
C2255 H2269 0.958 . S
C2255 H2270 0.961 . S
C2255 H2271 0.960 . S
H2256 C2240 0.931 . S
H2257 C2245 0.929 . S
H2258 C2246 0.960 . S
H2259 C2246 0.962 . S
H2260 C2246 0.960 . S
H2261 C2247 0.961 . S
H2262 C2247 0.961 . S
H2263 C2247 0.961 . S
H2264 C2248 0.931 . S
H2265 C2253 0.930 . S
H2266 C2254 0.956 . S
H2267 C2254 0.961 . S
H2268 C2254 0.961 . S
H2269 C2255 0.958 . S
H2270 C2255 0.961 . S
H2271 C2255 0.960 . S
C2272 C2273 1.391 . S
C2272 C2274 1.394 . S
C2272 H2288 0.931 . S
C2273 C2272 1.391 . S
C2273 C2277 1.376 1_545 S
C2274 C2272 1.394 . S
C2274 C2275 1.369 . S
C2274 C2278 1.531 . S
C2275 C2274 1.369 . S
C2275 C2276 1.410 1_545 S
C2275 C2283 1.503 1_544 S
C2276 C2275 1.410 1_565 S
C2276 C2277 1.392 . S
C2276 C2279 1.511 . S
C2277 C2273 1.376 1_565 S
C2277 C2276 1.392 . S
C2277 H2289 0.929 . S
C2278 C2274 1.531 . S
C2278 H2290 0.960 . S
C2278 H2291 0.962 . S
C2278 H2292 0.960 . S
C2279 C2276 1.511 . S
C2279 H2293 0.961 . S
C2279 H2294 0.961 1_554 S
C2279 H2295 0.961 . S
C2280 C2281 1.370 . S
C2280 C2282 1.363 . S
C2280 H2296 0.931 . S
C2281 C2280 1.370 . S
C2281 C2285 1.408 . S
C2282 C2280 1.363 . S
C2282 C2283 1.370 . S
C2282 C2286 1.524 1_565 S
C2283 C2275 1.503 1_566 S
C2283 C2282 1.370 . S
C2283 C2284 1.403 1_556 S
C2284 C2283 1.403 1_554 S
C2284 C2285 1.404 1_554 S
C2284 C2287 1.539 . S
C2285 C2281 1.408 . S
C2285 C2284 1.404 1_556 S
C2285 H2297 0.930 . S
C2286 C2282 1.524 1_545 S
C2286 H2298 0.956 . S
C2286 H2299 0.961 . S
C2286 H2300 0.961 . S
C2287 C2284 1.539 . S
C2287 H2301 0.958 . S
C2287 H2302 0.961 . S
C2287 H2303 0.960 . S
H2288 C2272 0.931 . S
H2289 C2277 0.929 . S
H2290 C2278 0.960 . S
H2291 C2278 0.962 . S
H2292 C2278 0.960 . S
H2293 C2279 0.961 . S
H2294 C2279 0.961 1_556 S
H2295 C2279 0.961 . S
H2296 C2280 0.931 . S
H2297 C2285 0.930 . S
H2298 C2286 0.956 . S
H2299 C2286 0.961 . S
H2300 C2286 0.961 . S
H2301 C2287 0.958 . S
H2302 C2287 0.961 . S
H2303 C2287 0.960 . S
C2304 C2305 1.391 . S
C2304 C2306 1.394 . S
C2304 H2320 0.931 . S
C2305 C2304 1.391 . S
C2305 C2309 1.376 . S
C2306 C2304 1.394 . S
C2306 C2307 1.369 . S
C2306 C2310 1.531 . S
C2307 C2306 1.369 . S
C2307 C2308 1.410 . S
C2307 C2315 1.503 . S
C2308 C2307 1.410 . S
C2308 C2309 1.392 . S
C2308 C2311 1.511 . S
C2309 C2305 1.376 . S
C2309 C2308 1.392 . S
C2309 H2321 0.929 . S
C2310 C2306 1.531 . S
C2310 H2322 0.960 . S
C2310 H2323 0.962 . S
C2310 H2324 0.960 . S
C2311 C2308 1.511 . S
C2311 H2325 0.961 . S
C2311 H2326 0.961 . S
C2311 H2327 0.961 . S
C2312 C2313 1.370 . S
C2312 C2314 1.363 . S
C2312 H2328 0.931 . S
C2313 C2312 1.370 . S
C2313 C2317 1.408 . S
C2314 C2312 1.363 . S
C2314 C2315 1.370 . S
C2314 C2318 1.524 . S
C2315 C2307 1.503 . S
C2315 C2314 1.370 . S
C2315 C2316 1.403 . S
C2316 C2315 1.403 . S
C2316 C2317 1.404 . S
C2316 C2319 1.539 . S
C2317 C2313 1.408 . S
C2317 C2316 1.404 . S
C2317 H2329 0.930 . S
C2318 C2314 1.524 . S
C2318 H2330 0.956 . S
C2318 H2331 0.961 . S
C2318 H2332 0.961 . S
C2319 C2316 1.539 . S
C2319 H2333 0.958 . S
C2319 H2334 0.961 . S
C2319 H2335 0.960 . S
H2320 C2304 0.931 . S
H2321 C2309 0.929 . S
H2322 C2310 0.960 . S
H2323 C2310 0.962 . S
H2324 C2310 0.960 . S
H2325 C2311 0.961 . S
H2326 C2311 0.961 . S
H2327 C2311 0.961 . S
H2328 C2312 0.931 . S
H2329 C2317 0.930 . S
H2330 C2318 0.956 . S
H2331 C2318 0.961 . S
H2332 C2318 0.961 . S
H2333 C2319 0.958 . S
H2334 C2319 0.961 . S
H2335 C2319 0.960 . S
C2336 C2337 1.391 . S
C2336 C2338 1.394 . S
C2336 H2352 0.931 . S
C2337 C2336 1.391 . S
C2337 C2341 1.376 . S
C2338 C2336 1.394 . S
C2338 C2339 1.369 1_545 S
C2338 C2342 1.531 1_545 S
C2339 C2338 1.369 1_565 S
C2339 C2340 1.410 1_565 S
C2339 C2347 1.503 . S
C2340 C2339 1.410 1_545 S
C2340 C2341 1.392 . S
C2340 C2343 1.510 1_545 S
C2341 C2337 1.376 . S
C2341 C2340 1.392 . S
C2341 H2353 0.929 . S
C2342 C2338 1.531 1_565 S
C2342 H2354 0.960 . S
C2342 H2355 0.962 1_565 S
C2342 H2356 0.960 . S
C2343 C2340 1.510 1_565 S
C2343 H2357 0.956 1_565 S
C2343 H2358 0.960 1_565 S
C2343 H2359 0.967 . S
C2344 C2345 1.370 1_545 S
C2344 C2346 1.363 . S
C2344 H2360 0.931 . S
C2345 C2344 1.370 1_565 S
C2345 C2349 1.408 . S
C2346 C2344 1.363 . S
C2346 C2347 1.370 1_545 S
C2346 C2350 1.524 . S
C2347 C2339 1.503 . S
C2347 C2346 1.370 1_565 S
C2347 C2348 1.403 . S
C2348 C2347 1.403 . S
C2348 C2349 1.404 . S
C2348 C2351 1.539 . S
C2349 C2345 1.408 . S
C2349 C2348 1.404 . S
C2349 H2361 0.930 . S
C2350 C2346 1.524 . S
C2350 H2362 0.956 . S
C2350 H2363 0.961 . S
C2350 H2364 0.961 . S
C2351 C2348 1.539 . S
C2351 H2365 0.958 . S
C2351 H2366 0.961 . S
C2351 H2367 0.960 . S
H2352 C2336 0.931 . S
H2353 C2341 0.929 . S
H2354 C2342 0.960 . S
H2355 C2342 0.962 1_545 S
H2356 C2342 0.960 . S
H2357 C2343 0.956 1_545 S
H2358 C2343 0.960 1_545 S
H2359 C2343 0.967 . S
H2360 C2344 0.931 . S
H2361 C2349 0.930 . S
H2362 C2350 0.956 . S
H2363 C2350 0.961 . S
H2364 C2350 0.961 . S
H2365 C2351 0.958 . S
H2366 C2351 0.961 . S
H2367 C2351 0.960 . S
C2368 C2369 1.391 . S
C2368 C2370 1.394 . S
C2368 H2384 0.931 . S
C2369 C2368 1.391 . S
C2369 C2373 1.376 . S
C2370 C2368 1.394 . S
C2370 C2371 1.369 . S
C2370 C2374 1.531 . S
C2371 C2370 1.369 . S
C2371 C2372 1.410 . S
C2371 C2379 1.503 . S
C2372 C2371 1.410 . S
C2372 C2373 1.392 . S
C2372 C2375 1.511 . S
C2373 C2369 1.376 . S
C2373 C2372 1.392 . S
C2373 H2385 0.929 . S
C2374 C2370 1.531 . S
C2374 H2386 0.960 . S
C2374 H2387 0.962 . S
C2374 H2388 0.960 . S
C2375 C2372 1.511 . S
C2375 H2389 0.961 . S
C2375 H2390 0.961 . S
C2375 H2391 0.961 . S
C2376 C2377 1.370 . S
C2376 C2378 1.363 . S
C2376 H2392 0.931 . S
C2377 C2376 1.370 . S
C2377 C2381 1.408 . S
C2378 C2376 1.363 . S
C2378 C2379 1.370 . S
C2378 C2382 1.524 . S
C2379 C2371 1.503 . S
C2379 C2378 1.370 . S
C2379 C2380 1.403 . S
C2380 C2379 1.403 . S
C2380 C2381 1.404 . S
C2380 C2383 1.539 . S
C2381 C2377 1.408 . S
C2381 C2380 1.404 . S
C2381 H2393 0.930 . S
C2382 C2378 1.524 . S
C2382 H2394 0.956 . S
C2382 H2395 0.961 . S
C2382 H2396 0.961 . S
C2383 C2380 1.539 . S
C2383 H2397 0.958 . S
C2383 H2398 0.961 . S
C2383 H2399 0.960 . S
H2384 C2368 0.931 . S
H2385 C2373 0.929 . S
H2386 C2374 0.960 . S
H2387 C2374 0.962 . S
H2388 C2374 0.960 . S
H2389 C2375 0.961 . S
H2390 C2375 0.961 . S
H2391 C2375 0.961 . S
H2392 C2376 0.931 . S
H2393 C2381 0.930 . S
H2394 C2382 0.956 . S
H2395 C2382 0.961 . S
H2396 C2382 0.961 . S
H2397 C2383 0.958 . S
H2398 C2383 0.961 . S
H2399 C2383 0.960 . S
C2400 C2401 1.391 . S
C2400 C2402 1.394 1_545 S
C2400 H2416 0.931 1_545 S
C2401 C2400 1.391 . S
C2401 C2405 1.376 . S
C2402 C2400 1.394 1_565 S
C2402 C2403 1.369 . S
C2402 C2406 1.531 1_455 S
C2403 C2402 1.369 . S
C2403 C2404 1.409 1_566 S
C2403 C2411 1.504 1_456 S
C2404 C2403 1.409 1_544 S
C2404 C2405 1.392 1_554 S
C2404 C2407 1.511 . S
C2405 C2401 1.376 . S
C2405 C2404 1.392 1_556 S
C2405 H2417 0.929 . S
C2406 C2402 1.531 1_655 S
C2406 H2418 0.960 . S
C2406 H2419 0.962 . S
C2406 H2420 0.960 1_655 S
C2407 C2404 1.511 . S
C2407 H2421 0.961 . S
C2407 H2422 0.961 . S
C2407 H2423 0.961 . S
C2408 C2409 1.370 . S
C2408 C2410 1.363 1_565 S
C2408 H2424 0.931 1_565 S
C2409 C2408 1.370 . S
C2409 C2413 1.408 . S
C2410 C2408 1.363 1_545 S
C2410 C2411 1.370 1_545 S
C2410 C2414 1.524 1_554 S
C2411 C2403 1.504 1_654 S
C2411 C2410 1.370 1_565 S
C2411 C2412 1.403 . S
C2412 C2411 1.403 . S
C2412 C2413 1.404 . S
C2412 C2415 1.539 1_655 S
C2413 C2409 1.408 . S
C2413 C2412 1.404 . S
C2413 H2425 0.930 . S
C2414 C2410 1.524 1_556 S
C2414 H2426 0.956 . S
C2414 H2427 0.961 . S
C2414 H2428 0.961 . S
C2415 C2412 1.539 1_455 S
C2415 H2429 0.958 . S
C2415 H2430 0.961 . S
C2415 H2431 0.960 . S
H2416 C2400 0.931 1_565 S
H2417 C2405 0.929 . S
H2418 C2406 0.960 . S
H2419 C2406 0.962 . S
H2420 C2406 0.960 1_455 S
H2421 C2407 0.961 . S
H2422 C2407 0.961 . S
H2423 C2407 0.961 . S
H2424 C2408 0.931 1_545 S
H2425 C2413 0.930 . S
H2426 C2414 0.956 . S
H2427 C2414 0.961 . S
H2428 C2414 0.961 . S
H2429 C2415 0.958 . S
H2430 C2415 0.961 . S
H2431 C2415 0.960 . S
C2432 C2433 1.391 . S
C2432 C2434 1.394 . S
C2432 H2448 0.931 . S
C2433 C2432 1.391 . S
C2433 C2437 1.376 . S
C2434 C2432 1.394 . S
C2434 C2435 1.369 . S
C2434 C2438 1.531 . S
C2435 C2434 1.369 . S
C2435 C2436 1.410 . S
C2435 C2443 1.503 . S
C2436 C2435 1.410 . S
C2436 C2437 1.392 . S
C2436 C2439 1.511 . S
C2437 C2433 1.376 . S
C2437 C2436 1.392 . S
C2437 H2449 0.929 . S
C2438 C2434 1.531 . S
C2438 H2450 0.960 . S
C2438 H2451 0.962 . S
C2438 H2452 0.960 . S
C2439 C2436 1.511 . S
C2439 H2453 0.961 . S
C2439 H2454 0.961 . S
C2439 H2455 0.961 . S
C2440 C2441 1.370 . S
C2440 C2442 1.363 . S
C2440 H2456 0.931 . S
C2441 C2440 1.370 . S
C2441 C2445 1.408 . S
C2442 C2440 1.363 . S
C2442 C2443 1.370 . S
C2442 C2446 1.524 . S
C2443 C2435 1.503 . S
C2443 C2442 1.370 . S
C2443 C2444 1.403 . S
C2444 C2443 1.403 . S
C2444 C2445 1.404 . S
C2444 C2447 1.539 . S
C2445 C2441 1.408 . S
C2445 C2444 1.404 . S
C2445 H2457 0.930 . S
C2446 C2442 1.524 . S
C2446 H2458 0.956 . S
C2446 H2459 0.961 . S
C2446 H2460 0.961 . S
C2447 C2444 1.539 . S
C2447 H2461 0.958 . S
C2447 H2462 0.961 . S
C2447 H2463 0.960 . S
H2448 C2432 0.931 . S
H2449 C2437 0.929 . S
H2450 C2438 0.960 . S
H2451 C2438 0.962 . S
H2452 C2438 0.960 . S
H2453 C2439 0.961 . S
H2454 C2439 0.961 . S
H2455 C2439 0.961 . S
H2456 C2440 0.931 . S
H2457 C2445 0.930 . S
H2458 C2446 0.956 . S
H2459 C2446 0.961 . S
H2460 C2446 0.961 . S
H2461 C2447 0.958 . S
H2462 C2447 0.961 . S
H2463 C2447 0.960 . S
C2464 C2465 1.391 . S
C2464 C2466 1.394 . S
C2464 H2480 0.931 . S
C2465 C2464 1.391 . S
C2465 C2469 1.376 . S
C2466 C2464 1.394 . S
C2466 C2467 1.369 . S
C2466 C2470 1.531 . S
C2467 C2466 1.369 . S
C2467 C2468 1.410 . S
C2467 C2475 1.503 . S
C2468 C2467 1.410 . S
C2468 C2469 1.392 . S
C2468 C2471 1.511 . S
C2469 C2465 1.376 . S
C2469 C2468 1.392 . S
C2469 H2481 0.929 . S
C2470 C2466 1.531 . S
C2470 H2482 0.960 . S
C2470 H2483 0.962 . S
C2470 H2484 0.960 . S
C2471 C2468 1.511 . S
C2471 H2485 0.961 . S
C2471 H2486 0.961 . S
C2471 H2487 0.961 . S
C2472 C2473 1.370 . S
C2472 C2474 1.363 . S
C2472 H2488 0.931 . S
C2473 C2472 1.370 . S
C2473 C2477 1.408 . S
C2474 C2472 1.363 . S
C2474 C2475 1.370 . S
C2474 C2478 1.524 . S
C2475 C2467 1.503 . S
C2475 C2474 1.370 . S
C2475 C2476 1.403 . S
C2476 C2475 1.403 . S
C2476 C2477 1.404 . S
C2476 C2479 1.539 . S
C2477 C2473 1.408 . S
C2477 C2476 1.404 . S
C2477 H2489 0.930 . S
C2478 C2474 1.524 . S
C2478 H2490 0.956 . S
C2478 H2491 0.961 . S
C2478 H2492 0.961 . S
C2479 C2476 1.539 . S
C2479 H2493 0.958 . S
C2479 H2494 0.961 . S
C2479 H2495 0.960 . S
H2480 C2464 0.931 . S
H2481 C2469 0.929 . S
H2482 C2470 0.960 . S
H2483 C2470 0.962 . S
H2484 C2470 0.960 . S
H2485 C2471 0.961 . S
H2486 C2471 0.961 . S
H2487 C2471 0.961 . S
H2488 C2472 0.931 . S
H2489 C2477 0.930 . S
H2490 C2478 0.956 . S
H2491 C2478 0.961 . S
H2492 C2478 0.961 . S
H2493 C2479 0.958 . S
H2494 C2479 0.961 . S
H2495 C2479 0.960 . S
C2496 C2497 1.391 . S
C2496 C2498 1.394 . S
C2496 H2512 0.931 . S
C2497 C2496 1.391 . S
C2497 C2501 1.376 . S
C2498 C2496 1.394 . S
C2498 C2499 1.369 . S
C2498 C2502 1.531 . S
C2499 C2498 1.369 . S
C2499 C2500 1.410 . S
C2499 C2507 1.503 . S
C2500 C2499 1.410 . S
C2500 C2501 1.392 . S
C2500 C2503 1.511 . S
C2501 C2497 1.376 . S
C2501 C2500 1.392 . S
C2501 H2513 0.929 . S
C2502 C2498 1.531 . S
C2502 H2514 0.960 . S
C2502 H2515 0.962 . S
C2502 H2516 0.960 . S
C2503 C2500 1.511 . S
C2503 H2517 0.961 . S
C2503 H2518 0.961 . S
C2503 H2519 0.961 . S
C2504 C2505 1.370 . S
C2504 C2506 1.363 . S
C2504 H2520 0.931 . S
C2505 C2504 1.370 . S
C2505 C2509 1.408 . S
C2506 C2504 1.363 . S
C2506 C2507 1.370 . S
C2506 C2510 1.524 . S
C2507 C2499 1.503 . S
C2507 C2506 1.370 . S
C2507 C2508 1.403 . S
C2508 C2507 1.403 . S
C2508 C2509 1.404 . S
C2508 C2511 1.539 . S
C2509 C2505 1.408 . S
C2509 C2508 1.404 . S
C2509 H2521 0.930 . S
C2510 C2506 1.524 . S
C2510 H2522 0.956 . S
C2510 H2523 0.961 . S
C2510 H2524 0.961 . S
C2511 C2508 1.539 . S
C2511 H2525 0.958 . S
C2511 H2526 0.961 . S
C2511 H2527 0.960 . S
H2512 C2496 0.931 . S
H2513 C2501 0.929 . S
H2514 C2502 0.960 . S
H2515 C2502 0.962 . S
H2516 C2502 0.960 . S
H2517 C2503 0.961 . S
H2518 C2503 0.961 . S
H2519 C2503 0.961 . S
H2520 C2504 0.931 . S
H2521 C2509 0.930 . S
H2522 C2510 0.956 . S
H2523 C2510 0.961 . S
H2524 C2510 0.961 . S
H2525 C2511 0.958 . S
H2526 C2511 0.961 . S
H2527 C2511 0.960 . S
C2528 C2529 1.391 . S
C2528 C2530 1.394 . S
C2528 H2544 0.931 . S
C2529 C2528 1.391 . S
C2529 C2533 1.376 . S
C2530 C2528 1.394 . S
C2530 C2531 1.369 . S
C2530 C2534 1.531 . S
C2531 C2530 1.369 . S
C2531 C2532 1.410 . S
C2531 C2539 1.503 . S
C2532 C2531 1.410 . S
C2532 C2533 1.392 . S
C2532 C2535 1.511 . S
C2533 C2529 1.376 . S
C2533 C2532 1.392 . S
C2533 H2545 0.929 . S
C2534 C2530 1.531 . S
C2534 H2546 0.960 . S
C2534 H2547 0.962 . S
C2534 H2548 0.960 . S
C2535 C2532 1.511 . S
C2535 H2549 0.961 . S
C2535 H2550 0.961 . S
C2535 H2551 0.961 . S
C2536 C2537 1.370 . S
C2536 C2538 1.363 . S
C2536 H2552 0.931 . S
C2537 C2536 1.370 . S
C2537 C2541 1.408 . S
C2538 C2536 1.363 . S
C2538 C2539 1.370 . S
C2538 C2542 1.524 . S
C2539 C2531 1.503 . S
C2539 C2538 1.370 . S
C2539 C2540 1.403 . S
C2540 C2539 1.403 . S
C2540 C2541 1.404 . S
C2540 C2543 1.539 . S
C2541 C2537 1.408 . S
C2541 C2540 1.404 . S
C2541 H2553 0.930 . S
C2542 C2538 1.524 . S
C2542 H2554 0.956 . S
C2542 H2555 0.961 . S
C2542 H2556 0.961 . S
C2543 C2540 1.539 . S
C2543 H2557 0.958 . S
C2543 H2558 0.961 . S
C2543 H2559 0.960 . S
H2544 C2528 0.931 . S
H2545 C2533 0.929 . S
H2546 C2534 0.960 . S
H2547 C2534 0.962 . S
H2548 C2534 0.960 . S
H2549 C2535 0.961 . S
H2550 C2535 0.961 . S
H2551 C2535 0.961 . S
H2552 C2536 0.931 . S
H2553 C2541 0.930 . S
H2554 C2542 0.956 . S
H2555 C2542 0.961 . S
H2556 C2542 0.961 . S
H2557 C2543 0.958 . S
H2558 C2543 0.961 . S
H2559 C2543 0.960 . S
C2560 C2561 1.391 . S
C2560 C2562 1.383 1_554 S
C2560 H2576 0.931 . S
C2561 C2560 1.391 . S
C2561 C2565 1.376 . S
C2562 C2560 1.383 1_556 S
C2562 C2563 1.362 1_556 S
C2562 C2566 1.548 . S
C2563 C2562 1.362 1_554 S
C2563 C2564 1.410 . S
C2563 C2571 1.503 1_554 S
C2564 C2563 1.410 . S
C2564 C2565 1.392 . S
C2564 C2567 1.511 . S
C2565 C2561 1.376 . S
C2565 C2564 1.392 . S
C2565 H2577 0.929 . S
C2566 C2562 1.548 . S
C2566 H2578 0.960 . S
C2566 H2579 0.962 . S
C2566 H2580 0.960 . S
C2567 C2564 1.511 . S
C2567 H2581 0.961 . S
C2567 H2582 0.961 . S
C2567 H2583 0.961 . S
C2568 C2569 1.370 . S
C2568 C2570 1.363 . S
C2568 H2584 0.931 . S
C2569 C2568 1.370 . S
C2569 C2573 1.408 . S
C2570 C2568 1.363 . S
C2570 C2571 1.370 . S
C2570 C2574 1.524 . S
C2571 C2563 1.503 1_556 S
C2571 C2570 1.370 . S
C2571 C2572 1.403 . S
C2572 C2571 1.403 . S
C2572 C2573 1.404 . S
C2572 C2575 1.539 . S
C2573 C2569 1.408 . S
C2573 C2572 1.404 . S
C2573 H2585 0.930 . S
C2574 C2570 1.524 . S
C2574 H2586 0.956 . S
C2574 H2587 0.961 1_556 S
C2574 H2588 0.961 . S
C2575 C2572 1.539 . S
C2575 H2589 0.958 . S
C2575 H2590 0.968 . S
C2575 H2591 0.960 1_556 S
H2576 C2560 0.931 . S
H2577 C2565 0.929 . S
H2578 C2566 0.960 . S
H2579 C2566 0.962 . S
H2580 C2566 0.960 . S
H2581 C2567 0.961 . S
H2582 C2567 0.961 . S
H2583 C2567 0.961 . S
H2584 C2568 0.931 . S
H2585 C2573 0.930 . S
H2586 C2574 0.956 . S
H2587 C2574 0.961 1_554 S
H2588 C2574 0.961 . S
H2589 C2575 0.958 . S
H2590 C2575 0.968 . S
H2591 C2575 0.960 1_554 S
C2592 C2593 1.391 . S
C2592 C2594 1.394 . S
C2592 H2608 0.931 . S
C2593 C2592 1.391 . S
C2593 C2597 1.376 . S
C2594 C2592 1.394 . S
C2594 C2595 1.369 . S
C2594 C2598 1.531 . S
C2595 C2594 1.369 . S
C2595 C2596 1.410 . S
C2595 C2603 1.503 1_655 S
C2596 C2595 1.410 . S
C2596 C2597 1.392 . S
C2596 C2599 1.511 . S
C2597 C2593 1.376 . S
C2597 C2596 1.392 . S
C2597 H2609 0.929 . S
C2598 C2594 1.531 . S
C2598 H2610 0.960 . S
C2598 H2611 0.962 1_655 S
C2598 H2612 0.960 . S
C2599 C2596 1.511 . S
C2599 H2613 0.961 . S
C2599 H2614 0.961 . S
C2599 H2615 0.961 . S
C2600 C2601 1.370 . S
C2600 C2602 1.363 . S
C2600 H2616 0.931 . S
C2601 C2600 1.370 . S
C2601 C2605 1.408 . S
C2602 C2600 1.363 . S
C2602 C2603 1.370 . S
C2602 C2606 1.524 . S
C2603 C2595 1.503 1_455 S
C2603 C2602 1.370 . S
C2603 C2604 1.403 . S
C2604 C2603 1.403 . S
C2604 C2605 1.404 . S
C2604 C2607 1.539 1_455 S
C2605 C2601 1.408 . S
C2605 C2604 1.404 . S
C2605 H2617 0.930 . S
C2606 C2602 1.524 . S
C2606 H2618 0.956 . S
C2606 H2619 0.961 . S
C2606 H2620 0.961 . S
C2607 C2604 1.539 1_655 S
C2607 H2621 0.958 . S
C2607 H2622 0.961 . S
C2607 H2623 0.960 . S
H2608 C2592 0.931 . S
H2609 C2597 0.929 . S
H2610 C2598 0.960 . S
H2611 C2598 0.962 1_455 S
H2612 C2598 0.960 . S
H2613 C2599 0.961 . S
H2614 C2599 0.961 . S
H2615 C2599 0.961 . S
H2616 C2600 0.931 . S
H2617 C2605 0.930 . S
H2618 C2606 0.956 . S
H2619 C2606 0.961 . S
H2620 C2606 0.961 . S
H2621 C2607 0.958 . S
H2622 C2607 0.961 . S
H2623 C2607 0.960 . S
C2624 C2625 1.391 . S
C2624 C2626 1.376 1_554 S
C2624 H2640 0.931 . S
C2625 C2624 1.391 . S
C2625 C2629 1.376 . S
C2626 C2624 1.376 1_556 S
C2626 C2627 1.362 1_556 S
C2626 C2630 1.556 . S
C2627 C2626 1.362 1_554 S
C2627 C2628 1.410 . S
C2627 C2635 1.503 1_454 S
C2628 C2627 1.410 . S
C2628 C2629 1.392 . S
C2628 C2631 1.511 . S
C2629 C2625 1.376 . S
C2629 C2628 1.392 . S
C2629 H2641 0.929 . S
C2630 C2626 1.556 . S
C2630 H2642 0.960 . S
C2630 H2643 0.962 . S
C2630 H2644 0.960 . S
C2631 C2628 1.511 . S
C2631 H2645 0.961 . S
C2631 H2646 0.961 1_455 S
C2631 H2647 0.961 . S
C2632 C2633 1.370 . S
C2632 C2634 1.363 . S
C2632 H2648 0.931 . S
C2633 C2632 1.370 . S
C2633 C2637 1.408 . S
C2634 C2632 1.363 . S
C2634 C2635 1.370 . S
C2634 C2638 1.524 1_556 S
C2635 C2627 1.503 1_656 S
C2635 C2634 1.370 . S
C2635 C2636 1.403 . S
C2636 C2635 1.403 . S
C2636 C2637 1.404 . S
C2636 C2639 1.539 1_655 S
C2637 C2633 1.408 . S
C2637 C2636 1.404 . S
C2637 H2649 0.930 . S
C2638 C2634 1.524 1_554 S
C2638 H2650 0.956 . S
C2638 H2651 0.961 . S
C2638 H2652 0.961 . S
C2639 C2636 1.539 1_455 S
C2639 H2653 0.958 . S
C2639 H2654 0.961 . S
C2639 H2655 0.960 . S
H2640 C2624 0.931 . S
H2641 C2629 0.929 . S
H2642 C2630 0.960 . S
H2643 C2630 0.962 . S
H2644 C2630 0.960 . S
H2645 C2631 0.961 . S
H2646 C2631 0.961 1_655 S
H2647 C2631 0.961 . S
H2648 C2632 0.931 . S
H2649 C2637 0.930 . S
H2650 C2638 0.956 . S
H2651 C2638 0.961 . S
H2652 C2638 0.961 . S
H2653 C2639 0.958 . S
H2654 C2639 0.961 . S
H2655 C2639 0.960 . S
C2656 C2657 1.391 . S
C2656 C2658 1.394 . S
C2656 H2672 0.931 . S
C2657 C2656 1.391 . S
C2657 C2661 1.376 . S
C2658 C2656 1.394 . S
C2658 C2659 1.369 . S
C2658 C2662 1.531 . S
C2659 C2658 1.369 . S
C2659 C2660 1.410 . S
C2659 C2667 1.503 . S
C2660 C2659 1.410 . S
C2660 C2661 1.392 . S
C2660 C2663 1.511 . S
C2661 C2657 1.376 . S
C2661 C2660 1.392 . S
C2661 H2673 0.929 . S
C2662 C2658 1.531 . S
C2662 H2674 0.960 . S
C2662 H2675 0.962 . S
C2662 H2676 0.960 . S
C2663 C2660 1.511 . S
C2663 H2677 0.961 . S
C2663 H2678 0.961 . S
C2663 H2679 0.961 . S
C2664 C2665 1.370 . S
C2664 C2666 1.363 . S
C2664 H2680 0.931 . S
C2665 C2664 1.370 . S
C2665 C2669 1.408 . S
C2666 C2664 1.363 . S
C2666 C2667 1.370 . S
C2666 C2670 1.524 . S
C2667 C2659 1.503 . S
C2667 C2666 1.370 . S
C2667 C2668 1.403 . S
C2668 C2667 1.403 . S
C2668 C2669 1.404 . S
C2668 C2671 1.539 . S
C2669 C2665 1.408 . S
C2669 C2668 1.404 . S
C2669 H2681 0.930 . S
C2670 C2666 1.524 . S
C2670 H2682 0.956 . S
C2670 H2683 0.961 . S
C2670 H2684 0.961 . S
C2671 C2668 1.539 . S
C2671 H2685 0.958 . S
C2671 H2686 0.961 . S
C2671 H2687 0.960 . S
H2672 C2656 0.931 . S
H2673 C2661 0.929 . S
H2674 C2662 0.960 . S
H2675 C2662 0.962 . S
H2676 C2662 0.960 . S
H2677 C2663 0.961 . S
H2678 C2663 0.961 . S
H2679 C2663 0.961 . S
H2680 C2664 0.931 . S
H2681 C2669 0.930 . S
H2682 C2670 0.956 . S
H2683 C2670 0.961 . S
H2684 C2670 0.961 . S
H2685 C2671 0.958 . S
H2686 C2671 0.961 . S
H2687 C2671 0.960 . S
C2688 C2689 1.391 . S
C2688 C2690 1.394 . S
C2688 H2704 0.931 . S
C2689 C2688 1.391 . S
C2689 C2693 1.376 . S
C2690 C2688 1.394 . S
C2690 C2691 1.369 . S
C2690 C2694 1.531 1_545 S
C2691 C2690 1.369 . S
C2691 C2692 1.410 . S
C2691 C2699 1.503 . S
C2692 C2691 1.410 . S
C2692 C2693 1.392 . S
C2692 C2695 1.511 . S
C2693 C2689 1.376 . S
C2693 C2692 1.392 . S
C2693 H2705 0.929 . S
C2694 C2690 1.531 1_565 S
C2694 H2706 0.960 . S
C2694 H2707 0.962 . S
C2694 H2708 0.960 . S
C2695 C2692 1.511 . S
C2695 H2709 0.961 . S
C2695 H2710 0.961 . S
C2695 H2711 0.961 . S
C2696 C2697 1.370 1_545 S
C2696 C2698 1.363 . S
C2696 H2712 0.931 . S
C2697 C2696 1.370 1_565 S
C2697 C2701 1.408 . S
C2698 C2696 1.363 . S
C2698 C2699 1.370 . S
C2698 C2702 1.524 . S
C2699 C2691 1.503 . S
C2699 C2698 1.370 . S
C2699 C2700 1.403 1_545 S
C2700 C2699 1.403 1_565 S
C2700 C2701 1.404 . S
C2700 C2703 1.539 . S
C2701 C2697 1.408 . S
C2701 C2700 1.404 . S
C2701 H2713 0.930 . S
C2702 C2698 1.524 . S
C2702 H2714 0.956 . S
C2702 H2715 0.961 . S
C2702 H2716 0.961 . S
C2703 C2700 1.539 . S
C2703 H2717 0.958 . S
C2703 H2718 0.961 . S
C2703 H2719 0.960 1_565 S
H2704 C2688 0.931 . S
H2705 C2693 0.929 . S
H2706 C2694 0.960 . S
H2707 C2694 0.962 . S
H2708 C2694 0.960 . S
H2709 C2695 0.961 . S
H2710 C2695 0.961 . S
H2711 C2695 0.961 . S
H2712 C2696 0.931 . S
H2713 C2701 0.930 . S
H2714 C2702 0.956 . S
H2715 C2702 0.961 . S
H2716 C2702 0.961 . S
H2717 C2703 0.958 . S
H2718 C2703 0.961 . S
H2719 C2703 0.960 1_545 S
C2720 C2721 1.391 . S
C2720 C2722 1.394 . S
C2720 H2736 0.931 . S
C2721 C2720 1.391 . S
C2721 C2725 1.376 . S
C2722 C2720 1.394 . S
C2722 C2723 1.369 . S
C2722 C2726 1.531 1_545 S
C2723 C2722 1.369 . S
C2723 C2724 1.410 . S
C2723 C2731 1.503 . S
C2724 C2723 1.410 . S
C2724 C2725 1.392 . S
C2724 C2727 1.511 . S
C2725 C2721 1.376 . S
C2725 C2724 1.392 . S
C2725 H2737 0.929 . S
C2726 C2722 1.531 1_565 S
C2726 H2738 0.960 . S
C2726 H2739 0.962 1_565 S
C2726 H2740 0.960 . S
C2727 C2724 1.511 . S
C2727 H2741 0.961 . S
C2727 H2742 0.961 . S
C2727 H2743 0.961 . S
C2728 C2729 1.370 1_545 S
C2728 C2730 1.363 . S
C2728 H2744 0.931 . S
C2729 C2728 1.370 1_565 S
C2729 C2733 1.408 . S
C2730 C2728 1.363 . S
C2730 C2731 1.370 . S
C2730 C2734 1.524 . S
C2731 C2723 1.503 . S
C2731 C2730 1.370 . S
C2731 C2732 1.403 1_545 S
C2732 C2731 1.403 1_565 S
C2732 C2733 1.404 . S
C2732 C2735 1.539 . S
C2733 C2729 1.408 . S
C2733 C2732 1.404 . S
C2733 H2745 0.930 . S
C2734 C2730 1.524 . S
C2734 H2746 0.956 . S
C2734 H2747 0.961 . S
C2734 H2748 0.961 . S
C2735 C2732 1.539 . S
C2735 H2749 0.958 . S
C2735 H2750 0.961 . S
C2735 H2751 0.960 . S
H2736 C2720 0.931 . S
H2737 C2725 0.929 . S
H2738 C2726 0.960 . S
H2739 C2726 0.962 1_545 S
H2740 C2726 0.960 . S
H2741 C2727 0.961 . S
H2742 C2727 0.961 . S
H2743 C2727 0.961 . S
H2744 C2728 0.931 . S
H2745 C2733 0.930 . S
H2746 C2734 0.956 . S
H2747 C2734 0.961 . S
H2748 C2734 0.961 . S
H2749 C2735 0.958 . S
H2750 C2735 0.961 . S
H2751 C2735 0.960 . S
C2752 C2753 1.391 1_565 S
C2752 C2754 1.394 . S
C2752 H2768 0.931 . S
C2753 C2752 1.391 1_545 S
C2753 C2757 1.376 . S
C2754 C2752 1.394 . S
C2754 C2755 1.369 . S
C2754 C2758 1.531 . S
C2755 C2754 1.369 . S
C2755 C2756 1.410 1_565 S
C2755 C2763 1.503 . S
C2756 C2755 1.410 1_545 S
C2756 C2757 1.392 . S
C2756 C2759 1.511 . S
C2757 C2753 1.376 . S
C2757 C2756 1.392 . S
C2757 H2769 0.929 . S
C2758 C2754 1.531 . S
C2758 H2770 0.960 . S
C2758 H2771 0.962 . S
C2758 H2772 0.960 . S
C2759 C2756 1.511 . S
C2759 H2773 0.961 . S
C2759 H2774 0.961 . S
C2759 H2775 0.961 . S
C2760 C2761 1.370 . S
C2760 C2762 1.363 . S
C2760 H2776 0.931 . S
C2761 C2760 1.370 . S
C2761 C2765 1.408 . S
C2762 C2760 1.363 . S
C2762 C2763 1.370 . S
C2762 C2766 1.524 . S
C2763 C2755 1.503 . S
C2763 C2762 1.370 . S
C2763 C2764 1.403 . S
C2764 C2763 1.403 . S
C2764 C2765 1.404 . S
C2764 C2767 1.539 . S
C2765 C2761 1.408 . S
C2765 C2764 1.404 . S
C2765 H2777 0.930 . S
C2766 C2762 1.524 . S
C2766 H2778 0.956 . S
C2766 H2779 0.961 . S
C2766 H2780 0.961 . S
C2767 C2764 1.539 . S
C2767 H2781 0.958 . S
C2767 H2782 0.961 . S
C2767 H2783 0.960 1_565 S
H2768 C2752 0.931 . S
H2769 C2757 0.929 . S
H2770 C2758 0.960 . S
H2771 C2758 0.962 . S
H2772 C2758 0.960 . S
H2773 C2759 0.961 . S
H2774 C2759 0.961 . S
H2775 C2759 0.961 . S
H2776 C2760 0.931 . S
H2777 C2765 0.930 . S
H2778 C2766 0.956 . S
H2779 C2766 0.961 . S
H2780 C2766 0.961 . S
H2781 C2767 0.958 . S
H2782 C2767 0.961 . S
H2783 C2767 0.960 1_545 S
C2784 C2785 1.391 . S
C2784 C2786 1.394 . S
C2784 H2800 0.931 . S
C2785 C2784 1.391 . S
C2785 C2789 1.376 . S
C2786 C2784 1.394 . S
C2786 C2787 1.369 . S
C2786 C2790 1.531 . S
C2787 C2786 1.369 . S
C2787 C2788 1.410 . S
C2787 C2795 1.503 . S
C2788 C2787 1.410 . S
C2788 C2789 1.392 . S
C2788 C2791 1.511 1_565 S
C2789 C2785 1.376 . S
C2789 C2788 1.392 . S
C2789 H2801 0.929 . S
C2790 C2786 1.531 . S
C2790 H2802 0.960 . S
C2790 H2803 0.962 . S
C2790 H2804 0.960 . S
C2791 C2788 1.511 1_545 S
C2791 H2805 0.961 . S
C2791 H2806 0.961 . S
C2791 H2807 0.961 . S
C2792 C2793 1.370 1_565 S
C2792 C2794 1.363 . S
C2792 H2808 0.931 . S
C2793 C2792 1.370 1_545 S
C2793 C2797 1.408 . S
C2794 C2792 1.363 . S
C2794 C2795 1.370 . S
C2794 C2798 1.524 . S
C2795 C2787 1.503 . S
C2795 C2794 1.370 . S
C2795 C2796 1.403 1_565 S
C2796 C2795 1.403 1_545 S
C2796 C2797 1.404 . S
C2796 C2799 1.539 . S
C2797 C2793 1.408 . S
C2797 C2796 1.404 . S
C2797 H2809 0.930 . S
C2798 C2794 1.524 . S
C2798 H2810 0.956 . S
C2798 H2811 0.961 . S
C2798 H2812 0.961 . S
C2799 C2796 1.539 . S
C2799 H2813 0.958 . S
C2799 H2814 0.961 . S
C2799 H2815 0.960 . S
H2800 C2784 0.931 . S
H2801 C2789 0.929 . S
H2802 C2790 0.960 . S
H2803 C2790 0.962 . S
H2804 C2790 0.960 . S
H2805 C2791 0.961 . S
H2806 C2791 0.961 . S
H2807 C2791 0.961 . S
H2808 C2792 0.931 . S
H2809 C2797 0.930 . S
H2810 C2798 0.956 . S
H2811 C2798 0.961 . S
H2812 C2798 0.961 . S
H2813 C2799 0.958 . S
H2814 C2799 0.961 . S
H2815 C2799 0.960 . S
C2816 C2817 1.391 . S
C2816 C2818 1.394 . S
C2816 H2832 0.931 . S
C2817 C2816 1.391 . S
C2817 C2821 1.376 . S
C2818 C2816 1.394 . S
C2818 C2819 1.369 . S
C2818 C2822 1.531 . S
C2819 C2818 1.369 . S
C2819 C2820 1.410 . S
C2819 C2827 1.503 . S
C2820 C2819 1.410 . S
C2820 C2821 1.392 . S
C2820 C2823 1.511 . S
C2821 C2817 1.376 . S
C2821 C2820 1.392 . S
C2821 H2833 0.929 . S
C2822 C2818 1.531 . S
C2822 H2834 0.960 . S
C2822 H2835 0.962 . S
C2822 H2836 0.960 . S
C2823 C2820 1.511 . S
C2823 H2837 0.961 . S
C2823 H2838 0.961 . S
C2823 H2839 0.961 . S
C2824 C2825 1.370 . S
C2824 C2826 1.363 . S
C2824 H2840 0.931 . S
C2825 C2824 1.370 . S
C2825 C2829 1.408 1_545 S
C2826 C2824 1.363 . S
C2826 C2827 1.370 1_545 S
C2826 C2830 1.524 . S
C2827 C2819 1.503 . S
C2827 C2826 1.370 1_565 S
C2827 C2828 1.403 . S
C2828 C2827 1.403 . S
C2828 C2829 1.404 . S
C2828 C2831 1.539 . S
C2829 C2825 1.408 1_565 S
C2829 C2828 1.404 . S
C2829 H2841 0.930 . S
C2830 C2826 1.524 . S
C2830 H2842 0.956 . S
C2830 H2843 0.961 . S
C2830 H2844 0.961 . S
C2831 C2828 1.539 . S
C2831 H2845 0.958 . S
C2831 H2846 0.961 . S
C2831 H2847 0.960 . S
H2832 C2816 0.931 . S
H2833 C2821 0.929 . S
H2834 C2822 0.960 . S
H2835 C2822 0.962 . S
H2836 C2822 0.960 . S
H2837 C2823 0.961 . S
H2838 C2823 0.961 . S
H2839 C2823 0.961 . S
H2840 C2824 0.931 . S
H2841 C2829 0.930 . S
H2842 C2830 0.956 . S
H2843 C2830 0.961 . S
H2844 C2830 0.961 . S
H2845 C2831 0.958 . S
H2846 C2831 0.961 . S
H2847 C2831 0.960 . S
C2848 C2849 1.391 . S
C2848 C2850 1.394 . S
C2848 H2864 0.931 . S
C2849 C2848 1.391 . S
C2849 C2853 1.376 1_545 S
C2850 C2848 1.394 . S
C2850 C2851 1.369 1_545 S
C2850 C2854 1.531 . S
C2851 C2850 1.369 1_565 S
C2851 C2852 1.410 . S
C2851 C2859 1.503 . S
C2852 C2851 1.410 . S
C2852 C2853 1.392 . S
C2852 C2855 1.511 . S
C2853 C2849 1.376 1_565 S
C2853 C2852 1.392 . S
C2853 H2865 0.929 . S
C2854 C2850 1.531 . S
C2854 H2866 0.960 . S
C2854 H2867 0.962 . S
C2854 H2868 0.960 . S
C2855 C2852 1.511 . S
C2855 H2869 0.961 . S
C2855 H2870 0.961 . S
C2855 H2871 0.961 . S
C2856 C2857 1.370 . S
C2856 C2858 1.363 . S
C2856 H2872 0.931 . S
C2857 C2856 1.370 . S
C2857 C2861 1.408 . S
C2858 C2856 1.363 . S
C2858 C2859 1.370 . S
C2858 C2862 1.524 . S
C2859 C2851 1.503 . S
C2859 C2858 1.370 . S
C2859 C2860 1.403 . S
C2860 C2859 1.403 . S
C2860 C2861 1.404 . S
C2860 C2863 1.539 . S
C2861 C2857 1.408 . S
C2861 C2860 1.404 . S
C2861 H2873 0.930 . S
C2862 C2858 1.524 . S
C2862 H2874 0.956 1_565 S
C2862 H2875 0.961 . S
C2862 H2876 0.961 . S
C2863 C2860 1.539 . S
C2863 H2877 0.958 . S
C2863 H2878 0.961 . S
C2863 H2879 0.960 . S
H2864 C2848 0.931 . S
H2865 C2853 0.929 . S
H2866 C2854 0.960 . S
H2867 C2854 0.962 . S
H2868 C2854 0.960 . S
H2869 C2855 0.961 . S
H2870 C2855 0.961 . S
H2871 C2855 0.961 . S
H2872 C2856 0.931 . S
H2873 C2861 0.930 . S
H2874 C2862 0.956 1_545 S
H2875 C2862 0.961 . S
H2876 C2862 0.961 . S
H2877 C2863 0.958 . S
H2878 C2863 0.961 . S
H2879 C2863 0.960 . S
C2880 C2881 1.391 . S
C2880 C2882 1.394 . S
C2880 H2896 0.931 . S
C2881 C2880 1.391 . S
C2881 C2885 1.376 1_565 S
C2882 C2880 1.394 . S
C2882 C2883 1.369 1_565 S
C2882 C2886 1.531 . S
C2883 C2882 1.369 1_545 S
C2883 C2884 1.410 . S
C2883 C2891 1.503 . S
C2884 C2883 1.410 . S
C2884 C2885 1.392 . S
C2884 C2887 1.511 . S
C2885 C2881 1.376 1_545 S
C2885 C2884 1.392 . S
C2885 H2897 0.929 . S
C2886 C2882 1.531 . S
C2886 H2898 0.960 . S
C2886 H2899 0.962 . S
C2886 H2900 0.960 . S
C2887 C2884 1.511 . S
C2887 H2901 0.961 . S
C2887 H2902 0.961 . S
C2887 H2903 0.961 . S
C2888 C2889 1.370 . S
C2888 C2890 1.363 . S
C2888 H2904 0.931 . S
C2889 C2888 1.370 . S
C2889 C2893 1.408 . S
C2890 C2888 1.363 . S
C2890 C2891 1.370 . S
C2890 C2894 1.524 . S
C2891 C2883 1.503 . S
C2891 C2890 1.370 . S
C2891 C2892 1.403 . S
C2892 C2891 1.403 . S
C2892 C2893 1.404 . S
C2892 C2895 1.535 1_545 S
C2893 C2889 1.408 . S
C2893 C2892 1.404 . S
C2893 H2905 0.930 . S
C2894 C2890 1.524 . S
C2894 H2906 0.956 . S
C2894 H2907 0.961 . S
C2894 H2908 0.961 . S
C2895 C2892 1.535 1_565 S
C2895 H2909 0.964 . S
C2895 H2910 0.959 1_565 S
C2895 H2911 0.960 . S
H2896 C2880 0.931 . S
H2897 C2885 0.929 . S
H2898 C2886 0.960 . S
H2899 C2886 0.962 . S
H2900 C2886 0.960 . S
H2901 C2887 0.961 . S
H2902 C2887 0.961 . S
H2903 C2887 0.961 . S
H2904 C2888 0.931 . S
H2905 C2893 0.930 . S
H2906 C2894 0.956 . S
H2907 C2894 0.961 . S
H2908 C2894 0.961 . S
H2909 C2895 0.964 . S
H2910 C2895 0.959 1_545 S
H2911 C2895 0.960 . S
C2912 C2913 1.391 1_545 S
C2912 C2914 1.394 . S
C2912 H2928 0.931 . S
C2913 C2912 1.391 1_565 S
C2913 C2917 1.376 . S
C2914 C2912 1.394 . S
C2914 C2915 1.369 . S
C2914 C2918 1.531 . S
C2915 C2914 1.369 . S
C2915 C2916 1.410 1_545 S
C2915 C2923 1.503 . S
C2916 C2915 1.410 1_565 S
C2916 C2917 1.392 . S
C2916 C2919 1.511 . S
C2917 C2913 1.376 . S
C2917 C2916 1.392 . S
C2917 H2929 0.929 . S
C2918 C2914 1.531 . S
C2918 H2930 0.960 . S
C2918 H2931 0.962 . S
C2918 H2932 0.960 . S
C2919 C2916 1.511 . S
C2919 H2933 0.961 . S
C2919 H2934 0.961 . S
C2919 H2935 0.961 . S
C2920 C2921 1.370 . S
C2920 C2922 1.363 . S
C2920 H2936 0.931 . S
C2921 C2920 1.370 . S
C2921 C2925 1.408 . S
C2922 C2920 1.363 . S
C2922 C2923 1.370 . S
C2922 C2926 1.524 . S
C2923 C2915 1.503 . S
C2923 C2922 1.370 . S
C2923 C2924 1.403 . S
C2924 C2923 1.403 . S
C2924 C2925 1.404 . S
C2924 C2927 1.539 . S
C2925 C2921 1.408 . S
C2925 C2924 1.404 . S
C2925 H2937 0.930 . S
C2926 C2922 1.524 . S
C2926 H2938 0.956 . S
C2926 H2939 0.961 1_545 S
C2926 H2940 0.961 1_545 S
C2927 C2924 1.539 . S
C2927 H2941 0.958 . S
C2927 H2942 0.961 . S
C2927 H2943 0.960 . S
H2928 C2912 0.931 . S
H2929 C2917 0.929 . S
H2930 C2918 0.960 . S
H2931 C2918 0.962 . S
H2932 C2918 0.960 . S
H2933 C2919 0.961 . S
H2934 C2919 0.961 . S
H2935 C2919 0.961 . S
H2936 C2920 0.931 . S
H2937 C2925 0.930 . S
H2938 C2926 0.956 . S
H2939 C2926 0.961 1_565 S
H2940 C2926 0.961 1_565 S
H2941 C2927 0.958 . S
H2942 C2927 0.961 . S
H2943 C2927 0.960 . S
C2944 C2945 1.391 . S
C2944 C2946 1.394 . S
C2944 H2960 0.931 . S
C2945 C2944 1.391 . S
C2945 C2949 1.376 . S
C2946 C2944 1.394 . S
C2946 C2947 1.369 . S
C2946 C2950 1.531 . S
C2947 C2946 1.369 . S
C2947 C2948 1.410 . S
C2947 C2955 1.503 . S
C2948 C2947 1.410 . S
C2948 C2949 1.392 . S
C2948 C2951 1.511 . S
C2949 C2945 1.376 . S
C2949 C2948 1.392 . S
C2949 H2961 0.929 . S
C2950 C2946 1.531 . S
C2950 H2962 0.960 . S
C2950 H2963 0.962 . S
C2950 H2964 0.960 . S
C2951 C2948 1.511 . S
C2951 H2965 0.961 . S
C2951 H2966 0.961 . S
C2951 H2967 0.961 . S
C2952 C2953 1.370 . S
C2952 C2954 1.363 . S
C2952 H2968 0.931 . S
C2953 C2952 1.370 . S
C2953 C2957 1.408 . S
C2954 C2952 1.363 . S
C2954 C2955 1.370 . S
C2954 C2958 1.524 . S
C2955 C2947 1.503 . S
C2955 C2954 1.370 . S
C2955 C2956 1.403 . S
C2956 C2955 1.403 . S
C2956 C2957 1.404 . S
C2956 C2959 1.539 . S
C2957 C2953 1.408 . S
C2957 C2956 1.404 . S
C2957 H2969 0.930 . S
C2958 C2954 1.524 . S
C2958 H2970 0.956 . S
C2958 H2971 0.961 . S
C2958 H2972 0.961 . S
C2959 C2956 1.539 . S
C2959 H2973 0.958 . S
C2959 H2974 0.961 . S
C2959 H2975 0.960 . S
H2960 C2944 0.931 . S
H2961 C2949 0.929 . S
H2962 C2950 0.960 . S
H2963 C2950 0.962 . S
H2964 C2950 0.960 . S
H2965 C2951 0.961 . S
H2966 C2951 0.961 . S
H2967 C2951 0.961 . S
H2968 C2952 0.931 . S
H2969 C2957 0.930 . S
H2970 C2958 0.956 . S
H2971 C2958 0.961 . S
H2972 C2958 0.961 . S
H2973 C2959 0.958 . S
H2974 C2959 0.961 . S
H2975 C2959 0.960 . S
C2976 C2977 1.391 . S
C2976 C2978 1.394 . S
C2976 H2992 0.931 . S
C2977 C2976 1.391 . S
C2977 C2981 1.376 . S
C2978 C2976 1.394 . S
C2978 C2979 1.369 . S
C2978 C2982 1.531 . S
C2979 C2978 1.369 . S
C2979 C2980 1.410 . S
C2979 C2987 1.503 . S
C2980 C2979 1.410 . S
C2980 C2981 1.392 . S
C2980 C2983 1.511 . S
C2981 C2977 1.376 . S
C2981 C2980 1.392 . S
C2981 H2993 0.929 . S
C2982 C2978 1.531 . S
C2982 H2994 0.960 . S
C2982 H2995 0.962 . S
C2982 H2996 0.960 . S
C2983 C2980 1.511 . S
C2983 H2997 0.961 . S
C2983 H2998 0.961 . S
C2983 H2999 0.961 . S
C2984 C2985 1.370 . S
C2984 C2986 1.363 . S
C2984 H3000 0.931 . S
C2985 C2984 1.370 . S
C2985 C2989 1.408 . S
C2986 C2984 1.363 . S
C2986 C2987 1.370 . S
C2986 C2990 1.524 . S
C2987 C2979 1.503 . S
C2987 C2986 1.370 . S
C2987 C2988 1.403 . S
C2988 C2987 1.403 . S
C2988 C2989 1.404 . S
C2988 C2991 1.539 . S
C2989 C2985 1.408 . S
C2989 C2988 1.404 . S
C2989 H3001 0.930 . S
C2990 C2986 1.524 . S
C2990 H3002 0.956 . S
C2990 H3003 0.961 . S
C2990 H3004 0.961 . S
C2991 C2988 1.539 . S
C2991 H3005 0.958 . S
C2991 H3006 0.961 . S
C2991 H3007 0.960 . S
H2992 C2976 0.931 . S
H2993 C2981 0.929 . S
H2994 C2982 0.960 . S
H2995 C2982 0.962 . S
H2996 C2982 0.960 . S
H2997 C2983 0.961 . S
H2998 C2983 0.961 . S
H2999 C2983 0.961 . S
H3000 C2984 0.931 . S
H3001 C2989 0.930 . S
H3002 C2990 0.956 . S
H3003 C2990 0.961 . S
H3004 C2990 0.961 . S
H3005 C2991 0.958 . S
H3006 C2991 0.961 . S
H3007 C2991 0.960 . S
C3008 C3009 1.391 . S
C3008 C3010 1.394 . S
C3008 H3024 0.931 . S
C3009 C3008 1.391 . S
C3009 C3013 1.376 . S
C3010 C3008 1.394 . S
C3010 C3011 1.369 . S
C3010 C3014 1.531 . S
C3011 C3010 1.369 . S
C3011 C3012 1.410 . S
C3011 C3019 1.503 . S
C3012 C3011 1.410 . S
C3012 C3013 1.392 . S
C3012 C3015 1.511 . S
C3013 C3009 1.376 . S
C3013 C3012 1.392 . S
C3013 H3025 0.929 . S
C3014 C3010 1.531 . S
C3014 H3026 0.960 . S
C3014 H3027 0.962 . S
C3014 H3028 0.960 . S
C3015 C3012 1.511 . S
C3015 H3029 0.961 . S
C3015 H3030 0.961 . S
C3015 H3031 0.961 . S
C3016 C3017 1.370 . S
C3016 C3018 1.363 . S
C3016 H3032 0.931 . S
C3017 C3016 1.370 . S
C3017 C3021 1.408 . S
C3018 C3016 1.363 . S
C3018 C3019 1.370 . S
C3018 C3022 1.524 . S
C3019 C3011 1.503 . S
C3019 C3018 1.370 . S
C3019 C3020 1.403 . S
C3020 C3019 1.403 . S
C3020 C3021 1.404 . S
C3020 C3023 1.539 . S
C3021 C3017 1.408 . S
C3021 C3020 1.404 . S
C3021 H3033 0.930 . S
C3022 C3018 1.524 . S
C3022 H3034 0.956 . S
C3022 H3035 0.961 . S
C3022 H3036 0.961 . S
C3023 C3020 1.539 . S
C3023 H3037 0.958 . S
C3023 H3038 0.961 . S
C3023 H3039 0.960 . S
H3024 C3008 0.931 . S
H3025 C3013 0.929 . S
H3026 C3014 0.960 . S
H3027 C3014 0.962 . S
H3028 C3014 0.960 . S
H3029 C3015 0.961 . S
H3030 C3015 0.961 . S
H3031 C3015 0.961 . S
H3032 C3016 0.931 . S
H3033 C3021 0.930 . S
H3034 C3022 0.956 . S
H3035 C3022 0.961 . S
H3036 C3022 0.961 . S
H3037 C3023 0.958 . S
H3038 C3023 0.961 . S
H3039 C3023 0.960 . S
C3040 C3041 1.391 . S
C3040 C3042 1.394 . S
C3040 H3056 0.931 . S
C3041 C3040 1.391 . S
C3041 C3045 1.376 . S
C3042 C3040 1.394 . S
C3042 C3043 1.369 . S
C3042 C3046 1.531 . S
C3043 C3042 1.369 . S
C3043 C3044 1.410 . S
C3043 C3051 1.503 . S
C3044 C3043 1.410 . S
C3044 C3045 1.392 . S
C3044 C3047 1.511 . S
C3045 C3041 1.376 . S
C3045 C3044 1.392 . S
C3045 H3057 0.929 . S
C3046 C3042 1.531 . S
C3046 H3058 0.960 . S
C3046 H3059 0.962 . S
C3046 H3060 0.960 . S
C3047 C3044 1.511 . S
C3047 H3061 0.961 . S
C3047 H3062 0.961 . S
C3047 H3063 0.961 . S
C3048 C3049 1.370 . S
C3048 C3050 1.363 . S
C3048 H3064 0.931 . S
C3049 C3048 1.370 . S
C3049 C3053 1.408 . S
C3050 C3048 1.363 . S
C3050 C3051 1.370 . S
C3050 C3054 1.524 . S
C3051 C3043 1.503 . S
C3051 C3050 1.370 . S
C3051 C3052 1.403 . S
C3052 C3051 1.403 . S
C3052 C3053 1.404 . S
C3052 C3055 1.539 . S
C3053 C3049 1.408 . S
C3053 C3052 1.404 . S
C3053 H3065 0.930 . S
C3054 C3050 1.524 . S
C3054 H3066 0.956 . S
C3054 H3067 0.961 . S
C3054 H3068 0.961 . S
C3055 C3052 1.539 . S
C3055 H3069 0.958 . S
C3055 H3070 0.961 . S
C3055 H3071 0.960 . S
H3056 C3040 0.931 . S
H3057 C3045 0.929 . S
H3058 C3046 0.960 . S
H3059 C3046 0.962 . S
H3060 C3046 0.960 . S
H3061 C3047 0.961 . S
H3062 C3047 0.961 . S
H3063 C3047 0.961 . S
H3064 C3048 0.931 . S
H3065 C3053 0.930 . S
H3066 C3054 0.956 . S
H3067 C3054 0.961 . S
H3068 C3054 0.961 . S
H3069 C3055 0.958 . S
H3070 C3055 0.961 . S
H3071 C3055 0.960 . S
C3072 C3073 1.391 . S
C3072 C3074 1.394 . S
C3072 H3088 0.931 . S
C3073 C3072 1.391 . S
C3073 C3077 1.376 . S
C3074 C3072 1.394 . S
C3074 C3075 1.369 . S
C3074 C3078 1.531 . S
C3075 C3074 1.369 . S
C3075 C3076 1.410 . S
C3075 C3083 1.503 . S
C3076 C3075 1.410 . S
C3076 C3077 1.392 . S
C3076 C3079 1.511 . S
C3077 C3073 1.376 . S
C3077 C3076 1.392 . S
C3077 H3089 0.929 . S
C3078 C3074 1.531 . S
C3078 H3090 0.960 . S
C3078 H3091 0.962 . S
C3078 H3092 0.960 . S
C3079 C3076 1.511 . S
C3079 H3093 0.961 . S
C3079 H3094 0.961 . S
C3079 H3095 0.961 . S
C3080 C3081 1.370 . S
C3080 C3082 1.363 . S
C3080 H3096 0.931 . S
C3081 C3080 1.370 . S
C3081 C3085 1.408 . S
C3082 C3080 1.363 . S
C3082 C3083 1.370 . S
C3082 C3086 1.524 . S
C3083 C3075 1.503 . S
C3083 C3082 1.370 . S
C3083 C3084 1.403 . S
C3084 C3083 1.403 . S
C3084 C3085 1.404 . S
C3084 C3087 1.539 . S
C3085 C3081 1.408 . S
C3085 C3084 1.404 . S
C3085 H3097 0.930 . S
C3086 C3082 1.524 . S
C3086 H3098 0.956 . S
C3086 H3099 0.961 . S
C3086 H3100 0.961 . S
C3087 C3084 1.539 . S
C3087 H3101 0.958 . S
C3087 H3102 0.961 . S
C3087 H3103 0.960 . S
H3088 C3072 0.931 . S
H3089 C3077 0.929 . S
H3090 C3078 0.960 . S
H3091 C3078 0.962 . S
H3092 C3078 0.960 . S
H3093 C3079 0.961 . S
H3094 C3079 0.961 . S
H3095 C3079 0.961 . S
H3096 C3080 0.931 . S
H3097 C3085 0.930 . S
H3098 C3086 0.956 . S
H3099 C3086 0.961 . S
H3100 C3086 0.961 . S
H3101 C3087 0.958 . S
H3102 C3087 0.961 . S
H3103 C3087 0.960 . S
C3104 C3105 1.391 . S
C3104 C3106 1.394 . S
C3104 H3120 0.931 . S
C3105 C3104 1.391 . S
C3105 C3109 1.376 . S
C3106 C3104 1.394 . S
C3106 C3107 1.369 . S
C3106 C3110 1.531 . S
C3107 C3106 1.369 . S
C3107 C3108 1.410 . S
C3107 C3115 1.503 . S
C3108 C3107 1.410 . S
C3108 C3109 1.392 . S
C3108 C3111 1.511 . S
C3109 C3105 1.376 . S
C3109 C3108 1.392 . S
C3109 H3121 0.929 . S
C3110 C3106 1.531 . S
C3110 H3122 0.960 . S
C3110 H3123 0.962 . S
C3110 H3124 0.960 . S
C3111 C3108 1.511 . S
C3111 H3125 0.961 . S
C3111 H3126 0.961 . S
C3111 H3127 0.961 . S
C3112 C3113 1.370 . S
C3112 C3114 1.363 . S
C3112 H3128 0.931 . S
C3113 C3112 1.370 . S
C3113 C3117 1.408 . S
C3114 C3112 1.363 . S
C3114 C3115 1.370 . S
C3114 C3118 1.524 . S
C3115 C3107 1.503 . S
C3115 C3114 1.370 . S
C3115 C3116 1.403 . S
C3116 C3115 1.403 . S
C3116 C3117 1.404 . S
C3116 C3119 1.539 . S
C3117 C3113 1.408 . S
C3117 C3116 1.404 . S
C3117 H3129 0.930 . S
C3118 C3114 1.524 . S
C3118 H3130 0.956 . S
C3118 H3131 0.961 . S
C3118 H3132 0.961 . S
C3119 C3116 1.539 . S
C3119 H3133 0.958 . S
C3119 H3134 0.961 . S
C3119 H3135 0.960 . S
H3120 C3104 0.931 . S
H3121 C3109 0.929 . S
H3122 C3110 0.960 . S
H3123 C3110 0.962 . S
H3124 C3110 0.960 . S
H3125 C3111 0.961 . S
H3126 C3111 0.961 . S
H3127 C3111 0.961 . S
H3128 C3112 0.931 . S
H3129 C3117 0.930 . S
H3130 C3118 0.956 . S
H3131 C3118 0.961 . S
H3132 C3118 0.961 . S
H3133 C3119 0.958 . S
H3134 C3119 0.961 . S
H3135 C3119 0.960 . S
C3136 C3137 1.391 . S
C3136 C3138 1.394 . S
C3136 H3152 0.931 . S
C3137 C3136 1.391 . S
C3137 C3141 1.376 . S
C3138 C3136 1.394 . S
C3138 C3139 1.369 . S
C3138 C3142 1.531 . S
C3139 C3138 1.369 . S
C3139 C3140 1.410 . S
C3139 C3147 1.503 . S
C3140 C3139 1.410 . S
C3140 C3141 1.392 . S
C3140 C3143 1.511 . S
C3141 C3137 1.376 . S
C3141 C3140 1.392 . S
C3141 H3153 0.929 . S
C3142 C3138 1.531 . S
C3142 H3154 0.960 . S
C3142 H3155 0.962 . S
C3142 H3156 0.960 . S
C3143 C3140 1.511 . S
C3143 H3157 0.961 . S
C3143 H3158 0.961 . S
C3143 H3159 0.961 . S
C3144 C3145 1.370 . S
C3144 C3146 1.363 . S
C3144 H3160 0.931 . S
C3145 C3144 1.370 . S
C3145 C3149 1.408 . S
C3146 C3144 1.363 . S
C3146 C3147 1.370 . S
C3146 C3150 1.524 . S
C3147 C3139 1.503 . S
C3147 C3146 1.370 . S
C3147 C3148 1.403 . S
C3148 C3147 1.403 . S
C3148 C3149 1.404 . S
C3148 C3151 1.539 . S
C3149 C3145 1.408 . S
C3149 C3148 1.404 . S
C3149 H3161 0.930 . S
C3150 C3146 1.524 . S
C3150 H3162 0.956 . S
C3150 H3163 0.961 . S
C3150 H3164 0.961 . S
C3151 C3148 1.539 . S
C3151 H3165 0.958 . S
C3151 H3166 0.961 . S
C3151 H3167 0.960 . S
H3152 C3136 0.931 . S
H3153 C3141 0.929 . S
H3154 C3142 0.960 . S
H3155 C3142 0.962 . S
H3156 C3142 0.960 . S
H3157 C3143 0.961 . S
H3158 C3143 0.961 . S
H3159 C3143 0.961 . S
H3160 C3144 0.931 . S
H3161 C3149 0.930 . S
H3162 C3150 0.956 . S
H3163 C3150 0.961 . S
H3164 C3150 0.961 . S
H3165 C3151 0.958 . S
H3166 C3151 0.961 . S
H3167 C3151 0.960 . S
C3168 C3169 1.391 . S
C3168 C3170 1.394 . S
C3168 H3184 0.931 . S
C3169 C3168 1.391 . S
C3169 C3173 1.376 . S
C3170 C3168 1.394 . S
C3170 C3171 1.369 . S
C3170 C3174 1.531 . S
C3171 C3170 1.369 . S
C3171 C3172 1.410 . S
C3171 C3179 1.503 . S
C3172 C3171 1.410 . S
C3172 C3173 1.392 . S
C3172 C3175 1.511 . S
C3173 C3169 1.376 . S
C3173 C3172 1.392 . S
C3173 H3185 0.929 . S
C3174 C3170 1.531 . S
C3174 H3186 0.960 . S
C3174 H3187 0.962 . S
C3174 H3188 0.960 . S
C3175 C3172 1.511 . S
C3175 H3189 0.961 . S
C3175 H3190 0.961 . S
C3175 H3191 0.961 . S
C3176 C3177 1.370 . S
C3176 C3178 1.363 . S
C3176 H3192 0.931 . S
C3177 C3176 1.370 . S
C3177 C3181 1.408 . S
C3178 C3176 1.363 . S
C3178 C3179 1.370 . S
C3178 C3182 1.524 . S
C3179 C3171 1.503 . S
C3179 C3178 1.370 . S
C3179 C3180 1.403 . S
C3180 C3179 1.403 . S
C3180 C3181 1.404 . S
C3180 C3183 1.539 . S
C3181 C3177 1.408 . S
C3181 C3180 1.404 . S
C3181 H3193 0.930 . S
C3182 C3178 1.524 . S
C3182 H3194 0.956 . S
C3182 H3195 0.961 . S
C3182 H3196 0.961 . S
C3183 C3180 1.539 . S
C3183 H3197 0.958 . S
C3183 H3198 0.961 . S
C3183 H3199 0.960 . S
H3184 C3168 0.931 . S
H3185 C3173 0.929 . S
H3186 C3174 0.960 . S
H3187 C3174 0.962 . S
H3188 C3174 0.960 . S
H3189 C3175 0.961 . S
H3190 C3175 0.961 . S
H3191 C3175 0.961 . S
H3192 C3176 0.931 . S
H3193 C3181 0.930 . S
H3194 C3182 0.956 . S
H3195 C3182 0.961 . S
H3196 C3182 0.961 . S
H3197 C3183 0.958 . S
H3198 C3183 0.961 . S
H3199 C3183 0.960 . S
C3200 C3201 1.391 . S
C3200 C3202 1.394 . S
C3200 H3216 0.931 . S
C3201 C3200 1.391 . S
C3201 C3205 1.376 . S
C3202 C3200 1.394 . S
C3202 C3203 1.369 . S
C3202 C3206 1.531 1_545 S
C3203 C3202 1.369 . S
C3203 C3204 1.410 . S
C3203 C3211 1.503 1_545 S
C3204 C3203 1.410 . S
C3204 C3205 1.392 . S
C3204 C3207 1.511 . S
C3205 C3201 1.376 . S
C3205 C3204 1.392 . S
C3205 H3217 0.929 . S
C3206 C3202 1.531 1_565 S
C3206 H3218 0.960 . S
C3206 H3219 0.962 . S
C3206 H3220 0.960 . S
C3207 C3204 1.511 . S
C3207 H3221 0.961 . S
C3207 H3222 0.961 . S
C3207 H3223 0.961 . S
C3208 C3209 1.370 . S
C3208 C3210 1.363 . S
C3208 H3224 0.931 . S
C3209 C3208 1.370 . S
C3209 C3213 1.408 . S
C3210 C3208 1.363 . S
C3210 C3211 1.370 . S
C3210 C3214 1.524 1_565 S
C3211 C3203 1.503 1_565 S
C3211 C3210 1.370 . S
C3211 C3212 1.403 . S
C3212 C3211 1.403 . S
C3212 C3213 1.404 . S
C3212 C3215 1.539 . S
C3213 C3209 1.408 . S
C3213 C3212 1.404 . S
C3213 H3225 0.930 . S
C3214 C3210 1.524 1_545 S
C3214 H3226 0.956 . S
C3214 H3227 0.961 . S
C3214 H3228 0.961 . S
C3215 C3212 1.539 . S
C3215 H3229 0.958 . S
C3215 H3230 0.961 . S
C3215 H3231 0.960 . S
H3216 C3200 0.931 . S
H3217 C3205 0.929 . S
H3218 C3206 0.960 . S
H3219 C3206 0.962 . S
H3220 C3206 0.960 . S
H3221 C3207 0.961 . S
H3222 C3207 0.961 . S
H3223 C3207 0.961 . S
H3224 C3208 0.931 . S
H3225 C3213 0.930 . S
H3226 C3214 0.956 . S
H3227 C3214 0.961 . S
H3228 C3214 0.961 . S
H3229 C3215 0.958 . S
H3230 C3215 0.961 . S
H3231 C3215 0.960 . S
C3232 C3233 1.391 . S
C3232 C3234 1.394 . S
C3232 H3248 0.931 . S
C3233 C3232 1.391 . S
C3233 C3237 1.376 . S
C3234 C3232 1.394 . S
C3234 C3235 1.369 . S
C3234 C3238 1.531 . S
C3235 C3234 1.369 . S
C3235 C3236 1.410 . S
C3235 C3243 1.503 . S
C3236 C3235 1.410 . S
C3236 C3237 1.392 . S
C3236 C3239 1.511 . S
C3237 C3233 1.376 . S
C3237 C3236 1.392 . S
C3237 H3249 0.929 . S
C3238 C3234 1.531 . S
C3238 H3250 0.960 . S
C3238 H3251 0.962 . S
C3238 H3252 0.960 . S
C3239 C3236 1.511 . S
C3239 H3253 0.961 . S
C3239 H3254 0.961 . S
C3239 H3255 0.961 . S
C3240 C3241 1.370 . S
C3240 C3242 1.363 . S
C3240 H3256 0.931 . S
C3241 C3240 1.370 . S
C3241 C3245 1.408 . S
C3242 C3240 1.363 . S
C3242 C3243 1.370 . S
C3242 C3246 1.524 . S
C3243 C3235 1.503 . S
C3243 C3242 1.370 . S
C3243 C3244 1.403 . S
C3244 C3243 1.403 . S
C3244 C3245 1.404 . S
C3244 C3247 1.539 . S
C3245 C3241 1.408 . S
C3245 C3244 1.404 . S
C3245 H3257 0.930 . S
C3246 C3242 1.524 . S
C3246 H3258 0.956 . S
C3246 H3259 0.961 . S
C3246 H3260 0.961 . S
C3247 C3244 1.539 . S
C3247 H3261 0.958 . S
C3247 H3262 0.961 . S
C3247 H3263 0.960 . S
H3248 C3232 0.931 . S
H3249 C3237 0.929 . S
H3250 C3238 0.960 . S
H3251 C3238 0.962 . S
H3252 C3238 0.960 . S
H3253 C3239 0.961 . S
H3254 C3239 0.961 . S
H3255 C3239 0.961 . S
H3256 C3240 0.931 . S
H3257 C3245 0.930 . S
H3258 C3246 0.956 . S
H3259 C3246 0.961 . S
H3260 C3246 0.961 . S
H3261 C3247 0.958 . S
H3262 C3247 0.961 . S
H3263 C3247 0.960 . S
C3264 C3265 1.391 . S
C3264 C3266 1.394 . S
C3264 H3280 0.931 . S
C3265 C3264 1.391 . S
C3265 C3269 1.376 . S
C3266 C3264 1.394 . S
C3266 C3267 1.369 . S
C3266 C3270 1.531 1_545 S
C3267 C3266 1.369 . S
C3267 C3268 1.410 . S
C3267 C3275 1.503 1_545 S
C3268 C3267 1.410 . S
C3268 C3269 1.392 . S
C3268 C3271 1.511 . S
C3269 C3265 1.376 . S
C3269 C3268 1.392 . S
C3269 H3281 0.929 . S
C3270 C3266 1.531 1_565 S
C3270 H3282 0.960 . S
C3270 H3283 0.962 . S
C3270 H3284 0.960 . S
C3271 C3268 1.511 . S
C3271 H3285 0.961 . S
C3271 H3286 0.961 . S
C3271 H3287 0.961 . S
C3272 C3273 1.370 . S
C3272 C3274 1.363 . S
C3272 H3288 0.931 . S
C3273 C3272 1.370 . S
C3273 C3277 1.408 . S
C3274 C3272 1.363 . S
C3274 C3275 1.370 . S
C3274 C3278 1.524 1_565 S
C3275 C3267 1.503 1_565 S
C3275 C3274 1.370 . S
C3275 C3276 1.403 . S
C3276 C3275 1.403 . S
C3276 C3277 1.404 . S
C3276 C3279 1.539 . S
C3277 C3273 1.408 . S
C3277 C3276 1.404 . S
C3277 H3289 0.930 . S
C3278 C3274 1.524 1_545 S
C3278 H3290 0.956 . S
C3278 H3291 0.961 . S
C3278 H3292 0.961 . S
C3279 C3276 1.539 . S
C3279 H3293 0.958 . S
C3279 H3294 0.961 . S
C3279 H3295 0.960 . S
H3280 C3264 0.931 . S
H3281 C3269 0.929 . S
H3282 C3270 0.960 . S
H3283 C3270 0.962 . S
H3284 C3270 0.960 . S
H3285 C3271 0.961 . S
H3286 C3271 0.961 . S
H3287 C3271 0.961 . S
H3288 C3272 0.931 . S
H3289 C3277 0.930 . S
H3290 C3278 0.956 . S
H3291 C3278 0.961 . S
H3292 C3278 0.961 . S
H3293 C3279 0.958 . S
H3294 C3279 0.961 . S
H3295 C3279 0.960 . S
C3296 C3297 1.391 . S
C3296 C3298 1.394 . S
C3296 H3312 0.931 . S
C3297 C3296 1.391 . S
C3297 C3301 1.376 . S
C3298 C3296 1.394 . S
C3298 C3299 1.369 . S
C3298 C3302 1.531 . S
C3299 C3298 1.369 . S
C3299 C3300 1.410 . S
C3299 C3307 1.503 1_556 S
C3300 C3299 1.410 . S
C3300 C3301 1.392 . S
C3300 C3303 1.511 1_556 S
C3301 C3297 1.376 . S
C3301 C3300 1.392 . S
C3301 H3313 0.929 . S
C3302 C3298 1.531 . S
C3302 H3314 0.960 . S
C3302 H3315 0.962 . S
C3302 H3316 0.960 . S
C3303 C3300 1.511 1_554 S
C3303 H3317 0.961 . S
C3303 H3318 0.961 . S
C3303 H3319 0.961 . S
C3304 C3305 1.370 . S
C3304 C3306 1.363 . S
C3304 H3320 0.931 . S
C3305 C3304 1.370 . S
C3305 C3309 1.408 . S
C3306 C3304 1.363 . S
C3306 C3307 1.370 . S
C3306 C3310 1.524 1_554 S
C3307 C3299 1.503 1_554 S
C3307 C3306 1.370 . S
C3307 C3308 1.403 . S
C3308 C3307 1.403 . S
C3308 C3309 1.404 . S
C3308 C3311 1.539 . S
C3309 C3305 1.408 . S
C3309 C3308 1.404 . S
C3309 H3321 0.930 . S
C3310 C3306 1.524 1_556 S
C3310 H3322 0.956 . S
C3310 H3323 0.961 . S
C3310 H3324 0.961 . S
C3311 C3308 1.539 . S
C3311 H3325 0.958 . S
C3311 H3326 0.961 . S
C3311 H3327 0.960 . S
H3312 C3296 0.931 . S
H3313 C3301 0.929 . S
H3314 C3302 0.960 . S
H3315 C3302 0.962 . S
H3316 C3302 0.960 . S
H3317 C3303 0.961 . S
H3318 C3303 0.961 . S
H3319 C3303 0.961 . S
H3320 C3304 0.931 . S
H3321 C3309 0.930 . S
H3322 C3310 0.956 . S
H3323 C3310 0.961 . S
H3324 C3310 0.961 . S
H3325 C3311 0.958 . S
H3326 C3311 0.961 . S
H3327 C3311 0.960 . S
C3328 C3329 1.391 . S
C3328 C3330 1.394 . S
C3328 H3344 0.931 . S
C3329 C3328 1.391 . S
C3329 C3333 1.376 . S
C3330 C3328 1.394 . S
C3330 C3331 1.369 . S
C3330 C3334 1.531 1_565 S
C3331 C3330 1.369 . S
C3331 C3332 1.410 . S
C3331 C3339 1.503 1_565 S
C3332 C3331 1.410 . S
C3332 C3333 1.392 . S
C3332 C3335 1.511 . S
C3333 C3329 1.376 . S
C3333 C3332 1.392 . S
C3333 H3345 0.929 . S
C3334 C3330 1.531 1_545 S
C3334 H3346 0.960 . S
C3334 H3347 0.962 1_545 S
C3334 H3348 0.960 . S
C3335 C3332 1.511 . S
C3335 H3349 0.961 . S
C3335 H3350 0.961 . S
C3335 H3351 0.961 . S
C3336 C3337 1.370 . S
C3336 C3338 1.363 . S
C3336 H3352 0.931 . S
C3337 C3336 1.370 . S
C3337 C3341 1.408 . S
C3338 C3336 1.363 . S
C3338 C3339 1.370 . S
C3338 C3342 1.524 1_545 S
C3339 C3331 1.503 1_545 S
C3339 C3338 1.370 . S
C3339 C3340 1.403 . S
C3340 C3339 1.403 . S
C3340 C3341 1.404 . S
C3340 C3343 1.539 . S
C3341 C3337 1.408 . S
C3341 C3340 1.404 . S
C3341 H3353 0.930 . S
C3342 C3338 1.524 1_565 S
C3342 H3354 0.956 . S
C3342 H3355 0.961 . S
C3342 H3356 0.961 . S
C3343 C3340 1.539 . S
C3343 H3357 0.958 . S
C3343 H3358 0.961 . S
C3343 H3359 0.960 . S
H3344 C3328 0.931 . S
H3345 C3333 0.929 . S
H3346 C3334 0.960 . S
H3347 C3334 0.962 1_565 S
H3348 C3334 0.960 . S
H3349 C3335 0.961 . S
H3350 C3335 0.961 . S
H3351 C3335 0.961 . S
H3352 C3336 0.931 . S
H3353 C3341 0.930 . S
H3354 C3342 0.956 . S
H3355 C3342 0.961 . S
H3356 C3342 0.961 . S
H3357 C3343 0.958 . S
H3358 C3343 0.961 . S
H3359 C3343 0.960 . S
C3360 C3361 1.391 . S
C3360 C3362 1.394 . S
C3360 H3376 0.931 . S
C3361 C3360 1.391 . S
C3361 C3365 1.376 . S
C3362 C3360 1.394 . S
C3362 C3363 1.369 . S
C3362 C3366 1.531 . S
C3363 C3362 1.369 . S
C3363 C3364 1.410 . S
C3363 C3371 1.503 . S
C3364 C3363 1.410 . S
C3364 C3365 1.392 . S
C3364 C3367 1.511 . S
C3365 C3361 1.376 . S
C3365 C3364 1.392 . S
C3365 H3377 0.929 . S
C3366 C3362 1.531 . S
C3366 H3378 0.960 . S
C3366 H3379 0.962 . S
C3366 H3380 0.960 . S
C3367 C3364 1.511 . S
C3367 H3381 0.961 . S
C3367 H3382 0.961 . S
C3367 H3383 0.961 . S
C3368 C3369 1.370 . S
C3368 C3370 1.363 . S
C3368 H3384 0.931 . S
C3369 C3368 1.370 . S
C3369 C3373 1.408 . S
C3370 C3368 1.363 . S
C3370 C3371 1.370 . S
C3370 C3374 1.524 . S
C3371 C3363 1.503 . S
C3371 C3370 1.370 . S
C3371 C3372 1.403 . S
C3372 C3371 1.403 . S
C3372 C3373 1.404 . S
C3372 C3375 1.539 . S
C3373 C3369 1.408 . S
C3373 C3372 1.404 . S
C3373 H3385 0.930 . S
C3374 C3370 1.524 . S
C3374 H3386 0.956 . S
C3374 H3387 0.961 . S
C3374 H3388 0.961 . S
C3375 C3372 1.539 . S
C3375 H3389 0.958 . S
C3375 H3390 0.961 . S
C3375 H3391 0.960 . S
H3376 C3360 0.931 . S
H3377 C3365 0.929 . S
H3378 C3366 0.960 . S
H3379 C3366 0.962 . S
H3380 C3366 0.960 . S
H3381 C3367 0.961 . S
H3382 C3367 0.961 . S
H3383 C3367 0.961 . S
H3384 C3368 0.931 . S
H3385 C3373 0.930 . S
H3386 C3374 0.956 . S
H3387 C3374 0.961 . S
H3388 C3374 0.961 . S
H3389 C3375 0.958 . S
H3390 C3375 0.961 . S
H3391 C3375 0.960 . S
C3392 C3393 1.391 . S
C3392 C3394 1.394 . S
C3392 H3408 0.931 . S
C3393 C3392 1.391 . S
C3393 C3397 1.376 . S
C3394 C3392 1.394 . S
C3394 C3395 1.369 . S
C3394 C3398 1.531 . S
C3395 C3394 1.369 . S
C3395 C3396 1.410 . S
C3395 C3403 1.503 1_565 S
C3396 C3395 1.410 . S
C3396 C3397 1.392 . S
C3396 C3399 1.511 1_565 S
C3397 C3393 1.376 . S
C3397 C3396 1.392 . S
C3397 H3409 0.929 . S
C3398 C3394 1.531 . S
C3398 H3410 0.960 . S
C3398 H3411 0.962 . S
C3398 H3412 0.960 . S
C3399 C3396 1.511 1_545 S
C3399 H3413 0.961 . S
C3399 H3414 0.961 . S
C3399 H3415 0.961 . S
C3400 C3401 1.370 . S
C3400 C3402 1.363 . S
C3400 H3416 0.931 . S
C3401 C3400 1.370 . S
C3401 C3405 1.408 . S
C3402 C3400 1.363 . S
C3402 C3403 1.370 . S
C3402 C3406 1.524 . S
C3403 C3395 1.503 1_545 S
C3403 C3402 1.370 . S
C3403 C3404 1.403 . S
C3404 C3403 1.403 . S
C3404 C3405 1.404 . S
C3404 C3407 1.539 . S
C3405 C3401 1.408 . S
C3405 C3404 1.404 . S
C3405 H3417 0.930 . S
C3406 C3402 1.524 . S
C3406 H3418 0.956 1_545 S
C3406 H3419 0.961 . S
C3406 H3420 0.961 . S
C3407 C3404 1.539 . S
C3407 H3421 0.958 . S
C3407 H3422 0.961 . S
C3407 H3423 0.960 . S
H3408 C3392 0.931 . S
H3409 C3397 0.929 . S
H3410 C3398 0.960 . S
H3411 C3398 0.962 . S
H3412 C3398 0.960 . S
H3413 C3399 0.961 . S
H3414 C3399 0.961 . S
H3415 C3399 0.961 . S
H3416 C3400 0.931 . S
H3417 C3405 0.930 . S
H3418 C3406 0.956 1_565 S
H3419 C3406 0.961 . S
H3420 C3406 0.961 . S
H3421 C3407 0.958 . S
H3422 C3407 0.961 . S
H3423 C3407 0.960 . S
C3424 C3425 1.391 . S
C3424 C3426 1.394 . S
C3424 H3440 0.931 . S
C3425 C3424 1.391 . S
C3425 C3429 1.376 . S
C3426 C3424 1.394 . S
C3426 C3427 1.369 . S
C3426 C3430 1.531 . S
C3427 C3426 1.369 . S
C3427 C3428 1.410 . S
C3427 C3435 1.503 1_554 S
C3428 C3427 1.410 . S
C3428 C3429 1.392 . S
C3428 C3431 1.511 1_554 S
C3429 C3425 1.376 . S
C3429 C3428 1.392 . S
C3429 H3441 0.929 . S
C3430 C3426 1.531 . S
C3430 H3442 0.960 . S
C3430 H3443 0.962 . S
C3430 H3444 0.960 . S
C3431 C3428 1.511 1_556 S
C3431 H3445 0.961 . S
C3431 H3446 0.961 . S
C3431 H3447 0.961 . S
C3432 C3433 1.370 . S
C3432 C3434 1.363 . S
C3432 H3448 0.931 . S
C3433 C3432 1.370 . S
C3433 C3437 1.408 . S
C3434 C3432 1.363 . S
C3434 C3435 1.370 . S
C3434 C3438 1.524 1_556 S
C3435 C3427 1.503 1_556 S
C3435 C3434 1.370 . S
C3435 C3436 1.403 . S
C3436 C3435 1.403 . S
C3436 C3437 1.404 . S
C3436 C3439 1.539 . S
C3437 C3433 1.408 . S
C3437 C3436 1.404 . S
C3437 H3449 0.930 . S
C3438 C3434 1.524 1_554 S
C3438 H3450 0.956 . S
C3438 H3451 0.961 . S
C3438 H3452 0.961 . S
C3439 C3436 1.539 . S
C3439 H3453 0.958 . S
C3439 H3454 0.961 . S
C3439 H3455 0.960 . S
H3440 C3424 0.931 . S
H3441 C3429 0.929 . S
H3442 C3430 0.960 . S
H3443 C3430 0.962 . S
H3444 C3430 0.960 . S
H3445 C3431 0.961 . S
H3446 C3431 0.961 . S
H3447 C3431 0.961 . S
H3448 C3432 0.931 . S
H3449 C3437 0.930 . S
H3450 C3438 0.956 . S
H3451 C3438 0.961 . S
H3452 C3438 0.961 . S
H3453 C3439 0.958 . S
H3454 C3439 0.961 . S
H3455 C3439 0.960 . S
C3456 C3457 1.391 . S
C3456 C3458 1.394 . S
C3456 H3472 0.931 . S
C3457 C3456 1.391 . S
C3457 C3461 1.376 . S
C3458 C3456 1.394 . S
C3458 C3459 1.369 . S
C3458 C3462 1.531 . S
C3459 C3458 1.369 . S
C3459 C3460 1.410 . S
C3459 C3467 1.503 . S
C3460 C3459 1.410 . S
C3460 C3461 1.392 . S
C3460 C3463 1.511 . S
C3461 C3457 1.376 . S
C3461 C3460 1.392 . S
C3461 H3473 0.929 . S
C3462 C3458 1.531 . S
C3462 H3474 0.960 . S
C3462 H3475 0.962 . S
C3462 H3476 0.960 . S
C3463 C3460 1.511 . S
C3463 H3477 0.961 . S
C3463 H3478 0.961 . S
C3463 H3479 0.961 . S
C3464 C3465 1.370 . S
C3464 C3466 1.363 . S
C3464 H3480 0.931 . S
C3465 C3464 1.370 . S
C3465 C3469 1.408 . S
C3466 C3464 1.363 . S
C3466 C3467 1.370 . S
C3466 C3470 1.524 . S
C3467 C3459 1.503 . S
C3467 C3466 1.370 . S
C3467 C3468 1.403 . S
C3468 C3467 1.403 . S
C3468 C3469 1.404 . S
C3468 C3471 1.539 . S
C3469 C3465 1.408 . S
C3469 C3468 1.404 . S
C3469 H3481 0.930 . S
C3470 C3466 1.524 . S
C3470 H3482 0.956 . S
C3470 H3483 0.961 . S
C3470 H3484 0.961 . S
C3471 C3468 1.539 . S
C3471 H3485 0.958 . S
C3471 H3486 0.961 . S
C3471 H3487 0.960 . S
H3472 C3456 0.931 . S
H3473 C3461 0.929 . S
H3474 C3462 0.960 . S
H3475 C3462 0.962 . S
H3476 C3462 0.960 . S
H3477 C3463 0.961 . S
H3478 C3463 0.961 . S
H3479 C3463 0.961 . S
H3480 C3464 0.931 . S
H3481 C3469 0.930 . S
H3482 C3470 0.956 . S
H3483 C3470 0.961 . S
H3484 C3470 0.961 . S
H3485 C3471 0.958 . S
H3486 C3471 0.961 . S
H3487 C3471 0.960 . S
C3488 C3489 1.391 . S
C3488 C3490 1.394 . S
C3488 H3504 0.931 . S
C3489 C3488 1.391 . S
C3489 C3493 1.376 . S
C3490 C3488 1.394 . S
C3490 C3491 1.369 . S
C3490 C3494 1.531 1_556 S
C3491 C3490 1.369 . S
C3491 C3492 1.410 . S
C3491 C3499 1.503 1_556 S
C3492 C3491 1.410 . S
C3492 C3493 1.392 . S
C3492 C3495 1.511 . S
C3493 C3489 1.376 . S
C3493 C3492 1.392 . S
C3493 H3505 0.929 . S
C3494 C3490 1.531 1_554 S
C3494 H3506 0.960 . S
C3494 H3507 0.962 . S
C3494 H3508 0.960 . S
C3495 C3492 1.511 . S
C3495 H3509 0.961 . S
C3495 H3510 0.961 . S
C3495 H3511 0.961 . S
C3496 C3497 1.370 . S
C3496 C3498 1.363 . S
C3496 H3512 0.931 . S
C3497 C3496 1.370 . S
C3497 C3501 1.408 . S
C3498 C3496 1.363 . S
C3498 C3499 1.370 . S
C3498 C3502 1.524 . S
C3499 C3491 1.503 1_554 S
C3499 C3498 1.370 . S
C3499 C3500 1.403 . S
C3500 C3499 1.403 . S
C3500 C3501 1.404 . S
C3500 C3503 1.539 1_554 S
C3501 C3497 1.408 . S
C3501 C3500 1.404 . S
C3501 H3513 0.930 . S
C3502 C3498 1.524 . S
C3502 H3514 0.956 . S
C3502 H3515 0.961 . S
C3502 H3516 0.961 . S
C3503 C3500 1.539 1_556 S
C3503 H3517 0.958 . S
C3503 H3518 0.961 . S
C3503 H3519 0.960 . S
H3504 C3488 0.931 . S
H3505 C3493 0.929 . S
H3506 C3494 0.960 . S
H3507 C3494 0.962 . S
H3508 C3494 0.960 . S
H3509 C3495 0.961 . S
H3510 C3495 0.961 . S
H3511 C3495 0.961 . S
H3512 C3496 0.931 . S
H3513 C3501 0.930 . S
H3514 C3502 0.956 . S
H3515 C3502 0.961 . S
H3516 C3502 0.961 . S
H3517 C3503 0.958 . S
H3518 C3503 0.961 . S
H3519 C3503 0.960 . S
C3520 C3521 1.391 . S
C3520 C3522 1.394 . S
C3520 H3536 0.931 . S
C3521 C3520 1.391 . S
C3521 C3525 1.376 . S
C3522 C3520 1.394 . S
C3522 C3523 1.369 . S
C3522 C3526 1.531 . S
C3523 C3522 1.369 . S
C3523 C3524 1.410 . S
C3523 C3531 1.503 . S
C3524 C3523 1.410 . S
C3524 C3525 1.392 . S
C3524 C3527 1.511 . S
C3525 C3521 1.376 . S
C3525 C3524 1.392 . S
C3525 H3537 0.929 . S
C3526 C3522 1.531 . S
C3526 H3538 0.960 . S
C3526 H3539 0.962 . S
C3526 H3540 0.960 . S
C3527 C3524 1.511 . S
C3527 H3541 0.961 . S
C3527 H3542 0.961 . S
C3527 H3543 0.961 . S
C3528 C3529 1.370 . S
C3528 C3530 1.363 . S
C3528 H3544 0.931 . S
C3529 C3528 1.370 . S
C3529 C3533 1.408 . S
C3530 C3528 1.363 . S
C3530 C3531 1.370 . S
C3530 C3534 1.524 . S
C3531 C3523 1.503 . S
C3531 C3530 1.370 . S
C3531 C3532 1.403 . S
C3532 C3531 1.403 . S
C3532 C3533 1.404 . S
C3532 C3535 1.539 . S
C3533 C3529 1.408 . S
C3533 C3532 1.404 . S
C3533 H3545 0.930 . S
C3534 C3530 1.524 . S
C3534 H3546 0.956 . S
C3534 H3547 0.961 . S
C3534 H3548 0.961 . S
C3535 C3532 1.539 . S
C3535 H3549 0.958 . S
C3535 H3550 0.961 . S
C3535 H3551 0.960 . S
H3536 C3520 0.931 . S
H3537 C3525 0.929 . S
H3538 C3526 0.960 . S
H3539 C3526 0.962 . S
H3540 C3526 0.960 . S
H3541 C3527 0.961 . S
H3542 C3527 0.961 . S
H3543 C3527 0.961 . S
H3544 C3528 0.931 . S
H3545 C3533 0.930 . S
H3546 C3534 0.956 . S
H3547 C3534 0.961 . S
H3548 C3534 0.961 . S
H3549 C3535 0.958 . S
H3550 C3535 0.961 . S
H3551 C3535 0.960 . S
C3552 C3553 1.391 . S
C3552 C3554 1.394 . S
C3552 H3568 0.931 . S
C3553 C3552 1.391 . S
C3553 C3557 1.376 . S
C3554 C3552 1.394 . S
C3554 C3555 1.369 . S
C3554 C3558 1.531 . S
C3555 C3554 1.369 . S
C3555 C3556 1.410 . S
C3555 C3563 1.503 . S
C3556 C3555 1.410 . S
C3556 C3557 1.392 . S
C3556 C3559 1.511 . S
C3557 C3553 1.376 . S
C3557 C3556 1.392 . S
C3557 H3569 0.929 . S
C3558 C3554 1.531 . S
C3558 H3570 0.960 . S
C3558 H3571 0.962 . S
C3558 H3572 0.960 . S
C3559 C3556 1.511 . S
C3559 H3573 0.961 . S
C3559 H3574 0.961 . S
C3559 H3575 0.961 . S
C3560 C3561 1.370 . S
C3560 C3562 1.363 . S
C3560 H3576 0.931 . S
C3561 C3560 1.370 . S
C3561 C3565 1.408 . S
C3562 C3560 1.363 . S
C3562 C3563 1.370 . S
C3562 C3566 1.524 . S
C3563 C3555 1.503 . S
C3563 C3562 1.370 . S
C3563 C3564 1.403 . S
C3564 C3563 1.403 . S
C3564 C3565 1.404 . S
C3564 C3567 1.539 . S
C3565 C3561 1.408 . S
C3565 C3564 1.404 . S
C3565 H3577 0.930 . S
C3566 C3562 1.524 . S
C3566 H3578 0.956 . S
C3566 H3579 0.961 . S
C3566 H3580 0.961 . S
C3567 C3564 1.539 . S
C3567 H3581 0.958 . S
C3567 H3582 0.961 . S
C3567 H3583 0.960 . S
H3568 C3552 0.931 . S
H3569 C3557 0.929 . S
H3570 C3558 0.960 . S
H3571 C3558 0.962 . S
H3572 C3558 0.960 . S
H3573 C3559 0.961 . S
H3574 C3559 0.961 . S
H3575 C3559 0.961 . S
H3576 C3560 0.931 . S
H3577 C3565 0.930 . S
H3578 C3566 0.956 . S
H3579 C3566 0.961 . S
H3580 C3566 0.961 . S
H3581 C3567 0.958 . S
H3582 C3567 0.961 . S
H3583 C3567 0.960 . S
C3584 C3585 1.391 . S
C3584 C3586 1.394 . S
C3584 H3600 0.931 . S
C3585 C3584 1.391 . S
C3585 C3589 1.376 . S
C3586 C3584 1.394 . S
C3586 C3587 1.369 . S
C3586 C3590 1.531 . S
C3587 C3586 1.369 . S
C3587 C3588 1.410 . S
C3587 C3595 1.503 . S
C3588 C3587 1.410 . S
C3588 C3589 1.392 . S
C3588 C3591 1.511 . S
C3589 C3585 1.376 . S
C3589 C3588 1.392 . S
C3589 H3601 0.929 . S
C3590 C3586 1.531 . S
C3590 H3602 0.960 . S
C3590 H3603 0.962 . S
C3590 H3604 0.960 . S
C3591 C3588 1.511 . S
C3591 H3605 0.961 . S
C3591 H3606 0.961 . S
C3591 H3607 0.961 . S
C3592 C3593 1.370 . S
C3592 C3594 1.363 . S
C3592 H3608 0.931 . S
C3593 C3592 1.370 . S
C3593 C3597 1.408 . S
C3594 C3592 1.363 . S
C3594 C3595 1.370 . S
C3594 C3598 1.524 . S
C3595 C3587 1.503 . S
C3595 C3594 1.370 . S
C3595 C3596 1.403 . S
C3596 C3595 1.403 . S
C3596 C3597 1.404 . S
C3596 C3599 1.539 . S
C3597 C3593 1.408 . S
C3597 C3596 1.404 . S
C3597 H3609 0.930 . S
C3598 C3594 1.524 . S
C3598 H3610 0.956 . S
C3598 H3611 0.961 . S
C3598 H3612 0.961 . S
C3599 C3596 1.539 . S
C3599 H3613 0.958 . S
C3599 H3614 0.961 . S
C3599 H3615 0.960 . S
H3600 C3584 0.931 . S
H3601 C3589 0.929 . S
H3602 C3590 0.960 . S
H3603 C3590 0.962 . S
H3604 C3590 0.960 . S
H3605 C3591 0.961 . S
H3606 C3591 0.961 . S
H3607 C3591 0.961 . S
H3608 C3592 0.931 . S
H3609 C3597 0.930 . S
H3610 C3598 0.956 . S
H3611 C3598 0.961 . S
H3612 C3598 0.961 . S
H3613 C3599 0.958 . S
H3614 C3599 0.961 . S
H3615 C3599 0.960 . S
C3616 C3617 1.391 . S
C3616 C3618 1.394 . S
C3616 H3632 0.931 . S
C3617 C3616 1.391 . S
C3617 C3621 1.376 . S
C3618 C3616 1.394 . S
C3618 C3619 1.369 . S
C3618 C3622 1.531 1_556 S
C3619 C3618 1.369 . S
C3619 C3620 1.410 . S
C3619 C3627 1.503 1_556 S
C3620 C3619 1.410 . S
C3620 C3621 1.392 . S
C3620 C3623 1.511 . S
C3621 C3617 1.376 . S
C3621 C3620 1.392 . S
C3621 H3633 0.929 . S
C3622 C3618 1.531 1_554 S
C3622 H3634 0.960 . S
C3622 H3635 0.962 . S
C3622 H3636 0.960 . S
C3623 C3620 1.511 . S
C3623 H3637 0.961 . S
C3623 H3638 0.961 . S
C3623 H3639 0.961 . S
C3624 C3625 1.370 . S
C3624 C3626 1.363 . S
C3624 H3640 0.931 . S
C3625 C3624 1.370 . S
C3625 C3629 1.408 . S
C3626 C3624 1.363 . S
C3626 C3627 1.370 . S
C3626 C3630 1.524 . S
C3627 C3619 1.503 1_554 S
C3627 C3626 1.370 . S
C3627 C3628 1.403 . S
C3628 C3627 1.403 . S
C3628 C3629 1.404 . S
C3628 C3631 1.539 1_554 S
C3629 C3625 1.408 . S
C3629 C3628 1.404 . S
C3629 H3641 0.930 . S
C3630 C3626 1.524 . S
C3630 H3642 0.956 . S
C3630 H3643 0.961 . S
C3630 H3644 0.961 . S
C3631 C3628 1.539 1_556 S
C3631 H3645 0.958 1_556 S
C3631 H3646 0.961 . S
C3631 H3647 0.960 . S
H3632 C3616 0.931 . S
H3633 C3621 0.929 . S
H3634 C3622 0.960 . S
H3635 C3622 0.962 . S
H3636 C3622 0.960 . S
H3637 C3623 0.961 . S
H3638 C3623 0.961 . S
H3639 C3623 0.961 . S
H3640 C3624 0.931 . S
H3641 C3629 0.930 . S
H3642 C3630 0.956 . S
H3643 C3630 0.961 . S
H3644 C3630 0.961 . S
H3645 C3631 0.958 1_554 S
H3646 C3631 0.961 . S
H3647 C3631 0.960 . S
C3648 C3649 1.391 . S
C3648 C3650 1.394 . S
C3648 H3664 0.931 . S
C3649 C3648 1.391 . S
C3649 C3653 1.376 . S
C3650 C3648 1.394 . S
C3650 C3651 1.369 . S
C3650 C3654 1.531 . S
C3651 C3650 1.369 . S
C3651 C3652 1.410 . S
C3651 C3659 1.503 . S
C3652 C3651 1.410 . S
C3652 C3653 1.392 . S
C3652 C3655 1.511 . S
C3653 C3649 1.376 . S
C3653 C3652 1.392 . S
C3653 H3665 0.929 . S
C3654 C3650 1.531 . S
C3654 H3666 0.960 . S
C3654 H3667 0.962 . S
C3654 H3668 0.960 . S
C3655 C3652 1.511 . S
C3655 H3669 0.961 . S
C3655 H3670 0.961 . S
C3655 H3671 0.961 . S
C3656 C3657 1.370 . S
C3656 C3658 1.363 . S
C3656 H3672 0.931 . S
C3657 C3656 1.370 . S
C3657 C3661 1.408 . S
C3658 C3656 1.363 . S
C3658 C3659 1.370 . S
C3658 C3662 1.524 . S
C3659 C3651 1.503 . S
C3659 C3658 1.370 . S
C3659 C3660 1.403 . S
C3660 C3659 1.403 . S
C3660 C3661 1.404 . S
C3660 C3663 1.539 . S
C3661 C3657 1.408 . S
C3661 C3660 1.404 . S
C3661 H3673 0.930 . S
C3662 C3658 1.524 . S
C3662 H3674 0.956 . S
C3662 H3675 0.961 . S
C3662 H3676 0.961 . S
C3663 C3660 1.539 . S
C3663 H3677 0.958 . S
C3663 H3678 0.961 . S
C3663 H3679 0.960 . S
H3664 C3648 0.931 . S
H3665 C3653 0.929 . S
H3666 C3654 0.960 . S
H3667 C3654 0.962 . S
H3668 C3654 0.960 . S
H3669 C3655 0.961 . S
H3670 C3655 0.961 . S
H3671 C3655 0.961 . S
H3672 C3656 0.931 . S
H3673 C3661 0.930 . S
H3674 C3662 0.956 . S
H3675 C3662 0.961 . S
H3676 C3662 0.961 . S
H3677 C3663 0.958 . S
H3678 C3663 0.961 . S
H3679 C3663 0.960 . S
C3680 C3681 1.391 . S
C3680 C3682 1.394 . S
C3680 H3696 0.931 . S
C3681 C3680 1.391 . S
C3681 C3685 1.376 . S
C3682 C3680 1.394 . S
C3682 C3683 1.369 . S
C3682 C3686 1.531 . S
C3683 C3682 1.369 . S
C3683 C3684 1.410 . S
C3683 C3691 1.503 . S
C3684 C3683 1.410 . S
C3684 C3685 1.392 . S
C3684 C3687 1.511 . S
C3685 C3681 1.376 . S
C3685 C3684 1.392 . S
C3685 H3697 0.929 . S
C3686 C3682 1.531 . S
C3686 H3698 0.960 . S
C3686 H3699 0.962 . S
C3686 H3700 0.960 . S
C3687 C3684 1.511 . S
C3687 H3701 0.961 . S
C3687 H3702 0.961 . S
C3687 H3703 0.961 . S
C3688 C3689 1.370 . S
C3688 C3690 1.363 . S
C3688 H3704 0.931 . S
C3689 C3688 1.370 . S
C3689 C3693 1.408 . S
C3690 C3688 1.363 . S
C3690 C3691 1.370 . S
C3690 C3694 1.524 . S
C3691 C3683 1.503 . S
C3691 C3690 1.370 . S
C3691 C3692 1.403 . S
C3692 C3691 1.403 . S
C3692 C3693 1.404 . S
C3692 C3695 1.539 . S
C3693 C3689 1.408 . S
C3693 C3692 1.404 . S
C3693 H3705 0.930 . S
C3694 C3690 1.524 . S
C3694 H3706 0.956 . S
C3694 H3707 0.961 . S
C3694 H3708 0.961 . S
C3695 C3692 1.539 . S
C3695 H3709 0.958 . S
C3695 H3710 0.961 . S
C3695 H3711 0.960 . S
H3696 C3680 0.931 . S
H3697 C3685 0.929 . S
H3698 C3686 0.960 . S
H3699 C3686 0.962 . S
H3700 C3686 0.960 . S
H3701 C3687 0.961 . S
H3702 C3687 0.961 . S
H3703 C3687 0.961 . S
H3704 C3688 0.931 . S
H3705 C3693 0.930 . S
H3706 C3694 0.956 . S
H3707 C3694 0.961 . S
H3708 C3694 0.961 . S
H3709 C3695 0.958 . S
H3710 C3695 0.961 . S
H3711 C3695 0.960 . S
C641 C8 0.611 . S
C649 C546 0.507 . S
C673 C28 0.662 . S
C681 C166 0.481 . S
C705 C48 0.616 . S
C713 C506 0.506 . S
C737 C206 0.558 . S
C745 C68 0.563 . S
C769 C88 0.533 . S
C777 C586 0.517 . S
C801 C286 0.462 . S
C809 C108 0.604 . S
C833 C626 0.540 . S
C841 C128 0.516 . S
C865 C148 0.462 . S
C873 C246 0.484 . S
C897 C179 0.450 . S
C905 C396 0.490 . S
C929 C199 0.630 . S
C937 C16 0.509 . S
C961 C356 0.553 . S
C969 C219 0.583 . S
C993 C56 0.456 . S
C1001 C239 0.601 . S
C1025 C259 0.450 . S
C1033 C436 0.491 . S
C1057 C279 0.646 . S
C1065 C136 0.462 . S
C1089 C299 0.521 . S
C1097 C476 0.515 . S
C1121 C96 0.485 . S
C1129 C319 0.604 . S
C1153 C226 0.523 . S
C1161 C328 0.514 . S
C1185 C486 0.531 . S
C1193 C348 0.587 . S
C1217 C186 0.483 . S
C1225 C368 0.603 . S
C1249 C388 0.624 . S
C1257 C526 0.503 . S
C1281 C266 0.405 . S
C1289 C408 0.584 . S
C1313 C606 0.545 . S
C1321 C428 0.577 . S
C1345 C306 0.565 . S
C1353 C448 0.544 . S
C1377 C468 0.454 . S
C1385 C566 0.505 . S
C1409 C499 0.484 . S
C1417 C76 0.509 . S
C1441 C519 0.666 . S
C1449 C336 0.486 . S
C1473 C539 0.666 . S
C1481 C36 0.485 . S
C1505 C559 0.590 . S
C1513 C376 0.451 . S
C1537 C116 0.565 . S
C1545 C579 0.558 . S
C1569 C456 0.532 . S
C1577 C599 0.520 . S
C1601 C619 0.457 . S
C1609 C156 0.498 . S
C1633 C639 0.665 . S
C1641 C416 0.487 . S
C1665 C9 1.006 . S
C1673 C369 1.023 . S
C1697 C389 1.023 . S
C1705 C29 1.011 . S
C1729 C49 1.015 . S
C1737 C329 1.020 . S
C1761 C69 1.017 . S
C1769 C349 1.013 . S
C1793 C449 1.024 . S
C1801 C89 1.011 . S
C1825 C109 1.013 . S
C1833 C469 1.014 . S
C1857 C409 1.018 . S
C1865 C129 1.019 . S
C1889 C149 1.017 . S
C1897 C429 1.013 . S
C1921 C521 1.009 . S
C1929 C161 1.020 . S
C1953 C181 1.032 . S
C1961 C541 1.010 . S
C1985 C201 1.018 . S
C1993 C481 1.014 . S
C2017 C221 1.017 . S
C2025 C501 1.017 . S
C2049 C601 1.000 . S
C2057 C241 1.022 . S
C2081 C621 1.029 . S
C2089 C261 1.012 . S
C2113 C281 1.032 . S
C2121 C561 1.010 . S
C2145 C301 1.008 . S
C2153 C581 1.019 . S
C2177 C6 1.472 . S
C2185 C496 1.518 . S
C2209 C196 1.510 . S
C2217 C26 1.502 . S
C2241 C46 1.478 . S
C2249 C536 1.521 . S
C2273 C66 1.470 . S
C2281 C236 1.519 . S
C2305 C576 1.539 . S
C2313 C86 1.491 . S
C2337 C276 1.519 . S
C2345 C106 1.505 . S
C2369 C126 1.501 . S
C2377 C616 1.506 . S
C2401 C146 1.545 . S
C2409 C316 1.489 . S
C2433 C326 1.464 . S
C2441 C176 1.522 . S
C2465 C366 1.534 . S
C2473 C216 1.498 . S
C2497 C406 1.550 . S
C2505 C256 1.488 . S
C2529 C296 1.456 . S
C2537 C446 1.527 . S
C2561 C346 1.470 . S
C2569 C516 1.524 . S
C2593 C386 1.550 . S
C2601 C556 1.488 . S
C2625 C596 1.548 . S
C2633 C426 1.490 . S
C2657 C636 1.460 . S
C2665 C466 1.524 . S
C2689 C1 2.789 . S
C2697 C101 2.763 . S
C2721 C121 2.787 . S
C2729 C21 2.763 . S
C2753 C141 2.745 . S
C2761 C41 2.781 . S
C2785 C81 2.759 . S
C2793 C61 2.773 . S
C2817 C169 2.754 . S
C2825 C269 2.776 . S
C2849 C189 2.758 . S
C2857 C289 2.775 . S
C2881 C309 2.744 . S
C2889 C209 2.781 . S
C2913 C229 2.789 . S
C2921 C249 2.763 . S
C2945 C321 2.753 . S
C2953 C421 2.779 . S
C2977 C341 2.785 . S
C2985 C441 2.766 . S
C3009 C361 2.744 . S
C3017 C461 2.781 . S
C3041 C401 2.746 . S
C3049 C381 2.781 . S
C3073 C489 2.747 . S
C3081 C589 2.780 . S
C3105 C509 2.744 . S
C3113 C609 2.781 . S
C3137 C629 2.789 . S
C3145 C529 2.762 . S
C3169 C549 2.787 . S
C3177 C569 2.763 . S
C3201 C19 2.759 . S
C3209 C99 2.780 . S
C3233 C39 2.791 . S
C3241 C119 2.782 . S
C3265 C139 2.757 . S
C3273 C59 2.779 . S
C3297 C159 2.775 . S
C3305 C79 2.776 . S
C3329 C168 2.774 . S
C3337 C248 2.789 . S
C3361 C268 2.756 . S
C3369 C188 2.777 . S
C3393 C288 2.757 . S
C3401 C208 2.776 . S
C3425 C308 2.797 . S
C3433 C228 2.784 . S
C3457 C339 2.763 . S
C3465 C419 2.782 . S
C3489 C439 2.782 . S
C3497 C359 2.789 . S
C3521 C379 2.796 . S
C3529 C459 2.786 . S
C3553 C479 2.792 . S
C3561 C399 2.791 . S
C3585 C568 2.775 . S
C3593 C488 2.774 . S
C3617 C508 2.756 . S
C3625 C588 2.778 . S
C3649 C528 2.777 . S
C3657 C608 2.774 . S
C3681 C548 2.797 . S
C3689 C628 2.788 . S
