# Generated by pormake.
# Topology hcp, (12)-cn, num edge types: 1
# Building blocks:
#     Node 0, Type 0, BuildingBlock: EZIPEK_clean_sbu_0, # of connection points: 12
#     Node 1, Type 0, BuildingBlock: EZIPEK_clean_sbu_0, # of connection points: 12
#     Edge 2, Type (0, 0), BuildingBlock: KIFKEQ_clean_linker_1, # of connection points: 2
#     Edge 3, Type (0, 0), BuildingBlock: KIFKEQ_clean_linker_1, # of connection points: 2
#     Edge 4, Type (0, 0), BuildingBlock: KIFKEQ_clean_linker_1, # of connection points: 2
#     Edge 5, Type (0, 0), BuildingBlock: KIFKEQ_clean_linker_1, # of connection points: 2
#     Edge 6, Type (0, 0), BuildingBlock: KIFKEQ_clean_linker_1, # of connection points: 2
#     Edge 7, Type (0, 0), BuildingBlock: KIFKEQ_clean_linker_1, # of connection points: 2
#     Edge 8, Type (0, 0), BuildingBlock: KIFKEQ_clean_linker_1, # of connection points: 2
#     Edge 9, Type (0, 0), BuildingBlock: KIFKEQ_clean_linker_1, # of connection points: 2
#     Edge 10, Type (0, 0), BuildingBlock: KIFKEQ_clean_linker_1, # of connection points: 2
#     Edge 11, Type (0, 0), BuildingBlock: KIFKEQ_clean_linker_1, # of connection points: 2
#     Edge 12, Type (0, 0), BuildingBlock: KIFKEQ_clean_linker_1, # of connection points: 2
#     Edge 13, Type (0, 0), BuildingBlock: KIFKEQ_clean_linker_1, # of connection points: 2
# Relax obj value: 0.186
# Max RMSD: 0.270
# Mean RMSD: 0.270
data_MOF--net-hcp--node1-EZIPEK_clean_sbu_0--edge1-KIFKEQ_clean_linker_1
_symmetry_space_group_name_H-M    P1
_symmetry_Int_Tables_number       1
_symmetry_cell_setting            triclinic
loop_
_symmetry_equiv_pos_as_xyz
'x, y, z'
_cell_length_a     19.169192
_cell_length_b     19.187094
_cell_length_c     28.637747
_cell_angle_alpha  90.298741
_cell_angle_beta   90.180499
_cell_angle_gamma 119.96199
loop_
_atom_site_label
_atom_site_type_symbol
_atom_site_fract_x
_atom_site_fract_y
_atom_site_fract_z
_atom_type_partial_charge
C0 C 0.65648 0.08776 0.30673 0.0
C1 C 0.82367 0.40256 0.18025 0.0
C2 C 0.50114 0.23369 0.43269 0.0
C3 C 0.6492 0.55937 0.30609 0.0
C4 C 0.40776 0.31591 0.30957 0.0
C5 C 0.55566 0.15358 0.17826 0.0
C6 C 0.71311 0.47328 0.44106 0.0
C7 C 0.88663 0.32391 0.30617 0.0
C8 C 0.88979 0.56481 0.30869 0.0
C9 C 0.57446 0.42228 0.18101 0.0
C10 C 0.73347 0.25752 0.43938 0.0
C11 C 0.42001 0.08387 0.2997 0.0
Eu12 Eu 0.71004 0.25989 0.2529 0.0
O13 O 0.65164 0.32553 0.22954 0.0
O14 O 0.70981 0.26832 0.32794 0.0
Eu15 Eu 0.52782 0.26677 0.25279 0.0
Eu16 Eu 0.77416 0.38855 0.35792 0.0
O17 O 0.59251 0.21074 0.28038 0.0
O18 O 0.7652 0.37943 0.2829 0.0
Eu19 Eu 0.59106 0.20011 0.35491 0.0
Eu20 Eu 0.71652 0.44844 0.25489 0.0
O21 O 0.53574 0.26609 0.32773 0.0
O22 O 0.59654 0.38364 0.28307 0.0
O23 O 0.70819 0.44188 0.33036 0.0
O24 O 0.65067 0.3231 0.37805 0.0
Eu25 Eu 0.58671 0.38361 0.35811 0.0
O26 O 0.6922 0.13733 0.27104 0.0
O27 O 0.78898 0.32555 0.19214 0.0
O28 O 0.539 0.31397 0.42865 0.0
O29 O 0.60355 0.50522 0.33806 0.0
O30 O 0.42265 0.28282 0.27261 0.0
O31 O 0.51456 0.18972 0.19038 0.0
O32 O 0.76148 0.4443 0.42814 0.0
O33 O 0.87732 0.36826 0.33907 0.0
O34 O 0.83975 0.55119 0.27301 0.0
O35 O 0.65127 0.46423 0.19416 0.0
O36 O 0.65653 0.20882 0.42558 0.0
O37 O 0.4746 0.09208 0.33166 0.0
O38 O 0.6534 0.4688 0.41563 0.0
O39 O 0.45792 0.35237 0.34539 0.0
O40 O 0.83331 0.28033 0.27282 0.0
O41 O 0.62628 0.16859 0.19697 0.0
O42 O 0.80729 0.45723 0.19885 0.0
O43 O 0.69529 0.5507 0.27433 0.0
O44 O 0.61857 0.10056 0.34177 0.0
O45 O 0.4875 0.1891 0.39541 0.0
O46 O 0.42699 0.14041 0.26975 0.0
O47 O 0.51955 0.35044 0.19798 0.0
O48 O 0.78823 0.32024 0.41591 0.0
O49 O 0.87599 0.5151 0.34435 0.0
C50 C 0.30823 0.41309 0.80826 0.0
C51 C 0.14044 0.56063 0.6813 0.0
C52 C 0.46791 0.72016 0.94113 0.0
C53 C 0.31492 0.89165 0.80845 0.0
C54 C 0.24813 0.74326 0.94114 0.0
C55 C 0.07702 0.41984 0.80636 0.0
C56 C 0.55625 0.89101 0.8106 0.0
C57 C 0.40733 0.57942 0.68057 0.0
C58 C 0.39413 0.83594 0.68755 0.0
C59 C 0.07515 0.65837 0.80905 0.0
C60 C 0.54639 0.65019 0.80618 0.0
C61 C 0.22633 0.5027 0.94068 0.0
Eu62 Eu 0.25424 0.53154 0.75521 0.0
O63 O 0.19899 0.59643 0.78417 0.0
O64 O 0.37186 0.59929 0.78423 0.0
Eu65 Eu 0.19 0.59672 0.85898 0.0
Eu66 Eu 0.43632 0.71937 0.75631 0.0
O67 O 0.25285 0.53833 0.83071 0.0
O68 O 0.31264 0.65528 0.73184 0.0
Eu69 Eu 0.37148 0.58962 0.85904 0.0
Eu70 Eu 0.24807 0.71403 0.75656 0.0
O71 O 0.31365 0.65514 0.8805 0.0
O72 O 0.25722 0.7157 0.83195 0.0
O73 O 0.36825 0.76844 0.78532 0.0
O74 O 0.43008 0.71106 0.83172 0.0
Eu75 Eu 0.37911 0.77866 0.86005 0.0
O76 O 0.27255 0.42694 0.77233 0.0
O77 O 0.17463 0.51794 0.69393 0.0
O78 O 0.44397 0.77219 0.92765 0.0
O79 O 0.36062 0.88284 0.84064 0.0
O80 O 0.19607 0.66758 0.9268 0.0
O81 O 0.08657 0.47372 0.83921 0.0
O82 O 0.54251 0.84037 0.77517 0.0
O83 O 0.44796 0.65657 0.69304 0.0
O84 O 0.31662 0.79987 0.69897 0.0
O85 O 0.1259 0.69692 0.77437 0.0
O86 O 0.49407 0.60852 0.83981 0.0
O87 O 0.30208 0.52669 0.92689 0.0
O88 O 0.50552 0.87913 0.8454 0.0
O89 O 0.31475 0.79483 0.91936 0.0
O90 O 0.33737 0.5237 0.69935 0.0
O91 O 0.13059 0.42899 0.77369 0.0
O92 O 0.1577 0.63232 0.69949 0.0
O93 O 0.26879 0.83708 0.77634 0.0
O94 O 0.34517 0.46326 0.84391 0.0
O95 O 0.4528 0.65376 0.91851 0.0
O96 O 0.17418 0.5166 0.91823 0.0
O97 O 0.0877 0.61947 0.8435 0.0
O98 O 0.53665 0.69353 0.7731 0.0
O99 O 0.44697 0.81464 0.70329 0.0
H100 H 0.22012 0.86546 0.9612 0.0
H101 H 0.27756 0.69796 1.02453 0.0
H102 H 0.29167 0.9623 1.02343 0.0
H103 H 0.35609 0.79638 0.08465 0.0
H104 H 0.48925 -0.00622 0.19522 0.0
H105 H 0.3899 0.88277 0.14696 0.0
H106 H 0.42394 0.05178 1.03771 0.0
H107 H 0.51844 0.16197 0.08767 0.0
C108 C 0.24496 0.84777 0.9898 0.0
C109 C 0.24347 0.77386 0.98779 0.0
C110 C 0.28899 0.90466 1.02473 0.0
C111 C 0.33429 0.88988 1.05814 0.0
C112 C 0.32357 0.81161 1.0596 0.0
C113 C 0.27746 0.75407 1.02527 0.0
C114 C 0.47664 0.00643 0.16034 0.0
C115 C 0.51305 0.0862 0.14465 0.0
C116 C 0.41896 0.94279 0.13264 0.0
C117 C 0.3967 0.95722 0.08822 0.0
C118 C 0.43644 0.03735 0.07208 0.0
C119 C 0.49256 0.10086 0.1002 0.0
H120 H 0.47751 0.65438 0.5997 0.0
H121 H 0.43832 0.45495 0.68595 0.0
H122 H 0.56792 0.63263 0.55044 0.0
H123 H 0.53335 0.43558 0.63871 0.0
H124 H 0.63663 0.37089 0.51016 0.0
H125 H 0.56378 0.39342 0.57151 0.0
H126 H 0.69237 0.64759 0.54079 0.0
H127 H 0.76282 0.62263 0.4779 0.0
C128 C 0.48777 0.60508 0.60776 0.0
C129 C 0.44932 0.55529 0.64607 0.0
C130 C 0.54143 0.59359 0.5801 0.0
C131 C 0.56055 0.53325 0.59061 0.0
C132 C 0.52047 0.48229 0.6287 0.0
C133 C 0.46516 0.49281 0.65579 0.0
C134 C 0.65375 0.43221 0.51879 0.0
C135 C 0.70794 0.495 0.49005 0.0
C136 C 0.60994 0.44528 0.55348 0.0
C137 C 0.61914 0.52211 0.56067 0.0
C138 C 0.68048 0.58675 0.53544 0.0
C139 C 0.72338 0.57314 0.50021 0.0
H140 H 0.8124 0.36012 0.08884 0.0
H141 H -0.01562 0.49446 0.19729 0.0
H142 H 0.92082 0.37593 1.03799 0.0
H143 H 0.09371 0.5064 0.14793 0.0
H144 H 0.27523 0.57752 1.02458 0.0
H145 H 0.17878 0.55934 0.08521 0.0
H146 H 0.00803 0.33037 1.02303 0.0
H147 H 0.10249 0.35404 0.96039 0.0
C148 C 0.87396 0.39441 0.10139 0.0
C149 C 0.89018 0.42806 0.14641 0.0
C150 C 0.93644 0.40185 0.07272 0.0
C151 C 0.01707 0.44083 0.08879 0.0
C152 C 0.03318 0.4764 0.13372 0.0
C153 C 0.97053 0.47027 0.16206 0.0
C154 C 0.21823 0.52213 1.02509 0.0
C155 C 0.19629 0.46824 0.9873 0.0
C156 C 0.162 0.51165 1.05973 0.0
C157 C 0.08307 0.44499 1.05821 0.0
C158 C 0.06622 0.38473 1.02439 0.0
C159 C 0.12171 0.39664 0.98919 0.0
H160 H 0.53277 0.91267 0.63476 0.0
H161 H 0.32153 0.92562 0.67279 0.0
H162 H 0.57233 0.02611 0.58169 0.0
H163 H 0.36108 0.03806 0.61996 0.0
H164 H 0.48182 0.26915 0.52595 0.0
H165 H 0.46935 0.18706 0.59548 0.0
H166 H 0.49721 0.01945 0.50757 0.0
H167 H 0.50687 0.09654 0.44043 0.0
C168 C 0.49516 0.93985 0.63219 0.0
C169 C 0.42272 0.908 0.65705 0.0
C170 C 0.51803 0.00524 0.60204 0.0
C171 C 0.46966 0.04112 0.59653 0.0
C172 C 0.40003 0.01252 0.62361 0.0
C173 C 0.37673 0.94679 0.65328 0.0
C174 C 0.48648 0.21554 0.52193 0.0
C175 C 0.49641 0.19094 0.47729 0.0
C176 C 0.47918 0.1684 0.56155 0.0
C177 C 0.48393 0.09735 0.5571 0.0
C178 C 0.49525 0.07445 0.5127 0.0
C179 C 0.50011 0.1193 0.47378 0.0
H180 H 0.49743 0.50489 0.20103 0.0
H181 H 0.60303 0.44191 0.08773 0.0
H182 H 0.48465 0.60099 0.15089 0.0
H183 H 0.5872 0.53455 1.03659 0.0
H184 H 0.61591 0.74087 0.95854 0.0
H185 H 0.64166 0.67109 1.02105 0.0
H186 H 0.42038 0.62395 0.08756 0.0
H187 H 0.39878 0.69896 1.02623 0.0
C188 C 0.51514 0.50962 0.16476 0.0
C189 C 0.54916 0.46443 0.1478 0.0
C190 C 0.50854 0.56529 0.13603 0.0
C191 C 0.53601 0.57725 0.08954 0.0
C192 C 0.56743 0.52938 0.07241 0.0
C193 C 0.5749 0.47465 0.10133 0.0
C194 C 0.57559 0.7202 0.98815 0.0
C195 C 0.50495 0.72532 0.98732 0.0
C196 C 0.58876 0.67747 1.02333 0.0
C197 C 0.53116 0.63789 1.0585 0.0
C198 C 0.46593 0.6523 1.06099 0.0
C199 C 0.45373 0.69641 1.02603 0.0
H200 H 0.85365 0.22826 0.46249 0.0
H201 H 0.68613 0.28978 0.52223 0.0
H202 H 0.94868 0.29913 0.52547 0.0
H203 H 0.78409 0.36925 0.58277 0.0
H204 H 0.97991 0.50029 0.69562 0.0
H205 H 0.86889 0.40388 0.64607 0.0
H206 H 0.04063 0.42964 0.54019 0.0
H207 H 0.15033 0.52099 0.59138 0.0
C208 C 0.83577 0.25449 0.4903 0.0
C209 C 0.76265 0.25454 0.48687 0.0
C210 C 0.89178 0.29819 0.52568 0.0
C211 C 0.87723 0.34501 0.55817 0.0
C212 C 0.7994 0.33596 0.55828 0.0
C213 C 0.74241 0.28983 0.52355 0.0
C214 C -0.00672 0.48646 0.66121 0.0
C215 C 0.0737 0.51958 0.64689 0.0
C216 C 0.92954 0.43045 0.63274 0.0
C217 C 0.94452 0.40649 0.58891 0.0
C218 C 0.02546 0.44323 0.57409 0.0
C219 C 0.08889 0.49761 0.60295 0.0
H220 H 0.62232 0.98447 0.37962 0.0
H221 H 0.69231 0.01785 0.23438 0.0
H222 H 0.62122 0.85716 0.37955 0.0
H223 H 0.68896 0.8895 0.23407 0.0
H224 H 0.54264 0.59478 0.34836 0.0
H225 H 0.54465 0.72267 0.34818 0.0
H226 H 0.76073 0.82708 0.26488 0.0
H227 H 0.75766 0.69906 0.26391 0.0
C228 C 0.63713 0.96454 0.34762 0.0
C229 C 0.65756 0.01141 0.30702 0.0
C230 C 0.63601 0.89131 0.34753 0.0
C231 C 0.65475 0.86312 0.30678 0.0
C232 C 0.67538 0.91011 0.26623 0.0
C233 C 0.67707 0.98361 0.26639 0.0
C234 C 0.59058 0.64502 0.33002 0.0
C235 C 0.64986 0.63662 0.30608 0.0
C236 C 0.59193 0.71842 0.3301 0.0
C237 C 0.65289 0.78502 0.30654 0.0
C238 C 0.7122 0.77658 0.28271 0.0
C239 C 0.71054 0.70314 0.28233 0.0
H240 H 0.93708 0.55334 0.85384 0.0
H241 H 0.03804 0.76035 0.76332 0.0
H242 H 0.80821 0.54907 0.85191 0.0
H243 H 0.9096 0.75745 0.76251 0.0
H244 H 0.64711 0.67852 0.73264 0.0
H245 H 0.77438 0.67888 0.73293 0.0
H246 H 0.74617 0.6226 0.8801 0.0
H247 H 0.61803 0.61996 0.87949 0.0
C248 C 0.93202 0.59851 0.83395 0.0
C249 C -0.00224 0.65731 0.80881 0.0
C250 C 0.85818 0.59615 0.83294 0.0
C251 C 0.8487 0.65298 0.80712 0.0
C252 C 0.9146 0.71202 0.78213 0.0
C253 C -0.01169 0.71395 0.7828 0.0
C254 C 0.6682 0.66628 0.76503 0.0
C255 C 0.62271 0.64924 0.80604 0.0
C256 C 0.74122 0.6668 0.76525 0.0
C257 C 0.77048 0.65101 0.80657 0.0
C258 C 0.72471 0.63375 0.84752 0.0
C259 C 0.65139 0.63247 0.8472 0.0
H260 H 0.38836 0.94334 0.34163 0.0
H261 H 0.27896 0.04825 0.25584 0.0
H262 H 0.261 0.81733 0.34333 0.0
H263 H 0.15129 0.92286 0.25862 0.0
H264 H 0.95764 0.66355 0.23422 0.0
H265 H 0.08683 0.78654 0.23085 0.0
H266 H 0.12825 0.76195 0.37674 0.0
H267 H -0.00071 0.63701 0.37992 0.0
C268 C 0.33719 0.93969 0.32319 0.0
C269 C 0.34389 0.00605 0.29865 0.0
C270 C 0.26405 0.86753 0.32445 0.0
C271 C 0.19592 0.86022 0.30137 0.0
C272 C 0.20292 0.9262 0.2763 0.0
C273 C 0.27616 -0.00178 0.2748 0.0
C274 C -0.00609 0.68438 0.26575 0.0
C275 C 0.96784 0.64059 0.30748 0.0
C276 C 0.06802 0.75515 0.26378 0.0
C277 C 0.11768 0.78423 0.30354 0.0
C278 C 0.09178 0.74051 0.34532 0.0
C279 C 0.01769 0.6692 0.34722 0.0
H280 H 0.33041 0.33805 0.88276 0.0
H281 H 0.28655 0.31489 0.73376 0.0
H282 H 0.33204 0.21205 0.88268 0.0
H283 H 0.29058 0.19009 0.73347 0.0
H284 H 0.21555 0.92817 0.75877 0.0
H285 H 0.21356 0.05357 0.75913 0.0
H286 H 0.41298 0.15591 0.85688 0.0
H287 H 0.41375 0.02949 0.85767 0.0
C288 C 0.32161 0.3063 0.84994 0.0
C289 C 0.30806 0.3362 0.80829 0.0
C290 C 0.323 0.23433 0.84986 0.0
C291 C 0.31162 0.19116 0.80806 0.0
C292 C 0.29825 0.22125 0.76638 0.0
C293 C 0.2961 0.29284 0.76653 0.0
C294 C 0.25916 0.9773 0.78036 0.0
C295 C 0.31475 0.96856 0.80829 0.0
C296 C 0.25823 0.04944 0.78033 0.0
C297 C 0.31313 0.11473 0.80798 0.0
C298 C 0.36907 0.10627 0.83571 0.0
C299 C 0.36973 0.03388 0.83598 0.0
H300 H 0.33675 0.34737 0.38327 0.0
H301 H 0.30215 0.27992 0.23704 0.0
H302 H 0.20957 0.34704 0.38323 0.0
H303 H 0.17652 0.28186 0.23681 0.0
H304 H 0.0271 0.42798 0.35115 0.0
H305 H 0.1521 0.42416 0.35254 0.0
H306 H 0.04184 0.20978 0.26612 0.0
H307 H 0.91767 0.21472 0.26361 0.0
C308 C 0.30223 0.33271 0.3511 0.0
C309 C 0.32961 0.31357 0.31018 0.0
C310 C 0.22956 0.33295 0.35103 0.0
C311 C 0.18307 0.3146 0.30999 0.0
C312 C 0.21028 0.29504 0.26919 0.0
C313 C 0.28256 0.29422 0.26932 0.0
C314 C 0.02949 0.37998 0.33247 0.0
C315 C 0.96254 0.32186 0.30711 0.0
C316 C 0.10101 0.37756 0.3335 0.0
C317 C 0.10685 0.31665 0.30946 0.0
C318 C 0.0397 0.25826 0.28437 0.0
C319 C 0.96843 0.26102 0.28304 0.0
H320 H 0.93682 0.38536 0.85 0.0
H321 H 0.04435 0.27905 0.76359 0.0
H322 H 0.81136 0.25733 0.85103 0.0
H323 H 0.91964 0.15065 0.76574 0.0
H324 H 0.6593 0.95882 0.73766 0.0
H325 H 0.7843 0.08685 0.73656 0.0
H326 H 0.75431 0.12402 0.88245 0.0
H327 H 0.62778 -0.00324 0.88328 0.0
C328 C 0.93391 0.3346 0.83147 0.0
C329 C 0.00057 0.34246 0.80664 0.0
C330 C 0.86209 0.26109 0.83228 0.0
C331 C 0.85556 0.19375 0.80856 0.0
C332 C 0.92228 0.20167 0.78378 0.0
C333 C -0.00611 0.27529 0.78267 0.0
C334 C 0.67948 -0.00601 0.76962 0.0
C335 C 0.63359 0.96751 0.81059 0.0
C336 C 0.75136 0.06735 0.769 0.0
C337 C 0.77932 0.11561 0.80942 0.0
C338 C 0.73376 0.08882 0.85052 0.0
C339 C 0.66147 0.01567 0.85106 0.0
loop_
_geom_bond_atom_site_label_1
_geom_bond_atom_site_label_2
_geom_bond_distance
_geom_bond_site_symmetry_2
_ccdc_geom_bond_type
C0 O26 1.283 . S
C0 O44 1.283 . S
C1 O27 1.283 . S
C1 O42 1.283 . S
C2 O28 1.283 . S
C2 O45 1.283 . S
C3 O29 1.283 . S
C3 O43 1.283 . S
C4 O30 1.283 . S
C4 O39 1.283 . S
C5 O31 1.283 . S
C5 O41 1.283 . S
C6 O32 1.283 . S
C6 O38 1.283 . S
C7 O33 1.283 . S
C7 O40 1.283 . S
C8 O34 1.283 . S
C8 O49 1.283 . S
C9 O35 1.283 . S
C9 O47 1.283 . S
C10 O36 1.283 . S
C10 O48 1.283 . S
C11 O37 1.283 . S
C11 O46 1.283 . S
Eu12 O13 2.370 . S
Eu12 O14 2.370 . S
Eu12 O17 2.370 . S
Eu12 O18 2.370 . S
Eu12 O26 2.363 . S
Eu12 O27 2.363 . S
Eu12 O40 2.363 . S
Eu12 O41 2.363 . S
O13 Eu12 2.370 . S
O13 Eu15 2.370 . S
O13 Eu20 2.370 . S
O14 Eu12 2.370 . S
O14 Eu16 2.370 . S
O14 Eu19 2.370 . S
Eu15 O13 2.370 . S
Eu15 O17 2.370 . S
Eu15 O21 2.370 . S
Eu15 O22 2.370 . S
Eu15 O30 2.363 . S
Eu15 O31 2.363 . S
Eu15 O46 2.363 . S
Eu15 O47 2.363 . S
Eu16 O14 2.370 . S
Eu16 O18 2.370 . S
Eu16 O23 2.370 . S
Eu16 O24 2.370 . S
Eu16 O32 2.363 . S
Eu16 O33 2.363 . S
Eu16 O48 2.363 . S
Eu16 O49 2.363 . S
O17 Eu12 2.370 . S
O17 Eu15 2.370 . S
O17 Eu19 2.370 . S
O18 Eu12 2.370 . S
O18 Eu16 2.370 . S
O18 Eu20 2.370 . S
Eu19 O14 2.370 . S
Eu19 O17 2.370 . S
Eu19 O21 2.370 . S
Eu19 O24 2.370 . S
Eu19 O36 2.363 . S
Eu19 O37 2.363 . S
Eu19 O44 2.363 . S
Eu19 O45 2.363 . S
Eu20 O13 2.370 . S
Eu20 O18 2.370 . S
Eu20 O22 2.370 . S
Eu20 O23 2.370 . S
Eu20 O34 2.363 . S
Eu20 O35 2.363 . S
Eu20 O42 2.363 . S
Eu20 O43 2.363 . S
O21 Eu15 2.370 . S
O21 Eu19 2.370 . S
O21 Eu25 2.370 . S
O22 Eu15 2.370 . S
O22 Eu20 2.370 . S
O22 Eu25 2.370 . S
O23 Eu16 2.370 . S
O23 Eu20 2.370 . S
O23 Eu25 2.370 . S
O24 Eu16 2.370 . S
O24 Eu19 2.370 . S
O24 Eu25 2.370 . S
Eu25 O21 2.370 . S
Eu25 O22 2.370 . S
Eu25 O23 2.370 . S
Eu25 O24 2.370 . S
Eu25 O28 2.363 . S
Eu25 O29 2.363 . S
Eu25 O38 2.363 . S
Eu25 O39 2.363 . S
O26 C0 1.283 . S
O26 Eu12 2.363 . S
O27 C1 1.283 . S
O27 Eu12 2.363 . S
O28 C2 1.283 . S
O28 Eu25 2.363 . S
O29 C3 1.283 . S
O29 Eu25 2.363 . S
O30 C4 1.283 . S
O30 Eu15 2.363 . S
O31 C5 1.283 . S
O31 Eu15 2.363 . S
O32 C6 1.283 . S
O32 Eu16 2.363 . S
O33 C7 1.283 . S
O33 Eu16 2.363 . S
O34 C8 1.283 . S
O34 Eu20 2.363 . S
O35 C9 1.283 . S
O35 Eu20 2.363 . S
O36 C10 1.283 . S
O36 Eu19 2.363 . S
O37 C11 1.283 . S
O37 Eu19 2.363 . S
O38 C6 1.283 . S
O38 Eu25 2.363 . S
O39 C4 1.283 . S
O39 Eu25 2.363 . S
O40 C7 1.283 . S
O40 Eu12 2.363 . S
O41 C5 1.283 . S
O41 Eu12 2.363 . S
O42 C1 1.283 . S
O42 Eu20 2.363 . S
O43 C3 1.283 . S
O43 Eu20 2.363 . S
O44 C0 1.283 . S
O44 Eu19 2.363 . S
O45 C2 1.283 . S
O45 Eu19 2.363 . S
O46 C11 1.283 . S
O46 Eu15 2.363 . S
O47 C9 1.283 . S
O47 Eu15 2.363 . S
O48 C10 1.283 . S
O48 Eu16 2.363 . S
O49 C8 1.283 . S
O49 Eu16 2.363 . S
C50 O76 1.283 . S
C50 O94 1.283 . S
C51 O77 1.283 . S
C51 O92 1.283 . S
C52 O78 1.283 . S
C52 O95 1.283 . S
C53 O79 1.283 . S
C53 O93 1.283 . S
C54 O80 1.283 . S
C54 O89 1.283 . S
C55 O81 1.283 . S
C55 O91 1.283 . S
C56 O82 1.283 . S
C56 O88 1.283 . S
C57 O83 1.283 . S
C57 O90 1.283 . S
C58 O84 1.283 . S
C58 O99 1.283 . S
C59 O85 1.283 . S
C59 O97 1.283 . S
C60 O86 1.283 . S
C60 O98 1.283 . S
C61 O87 1.283 . S
C61 O96 1.283 . S
Eu62 O63 2.370 . S
Eu62 O64 2.370 . S
Eu62 O67 2.370 . S
Eu62 O68 2.370 . S
Eu62 O76 2.363 . S
Eu62 O77 2.363 . S
Eu62 O90 2.363 . S
Eu62 O91 2.363 . S
O63 Eu62 2.370 . S
O63 Eu65 2.370 . S
O63 Eu70 2.370 . S
O64 Eu62 2.370 . S
O64 Eu66 2.370 . S
O64 Eu69 2.370 . S
Eu65 O63 2.370 . S
Eu65 O67 2.370 . S
Eu65 O71 2.370 . S
Eu65 O72 2.370 . S
Eu65 O80 2.363 . S
Eu65 O81 2.363 . S
Eu65 O96 2.363 . S
Eu65 O97 2.363 . S
Eu66 O64 2.370 . S
Eu66 O68 2.370 . S
Eu66 O73 2.370 . S
Eu66 O74 2.370 . S
Eu66 O82 2.363 . S
Eu66 O83 2.363 . S
Eu66 O98 2.363 . S
Eu66 O99 2.363 . S
O67 Eu62 2.370 . S
O67 Eu65 2.370 . S
O67 Eu69 2.370 . S
O68 Eu62 2.370 . S
O68 Eu66 2.370 . S
O68 Eu70 2.370 . S
Eu69 O64 2.370 . S
Eu69 O67 2.370 . S
Eu69 O71 2.370 . S
Eu69 O74 2.370 . S
Eu69 O86 2.363 . S
Eu69 O87 2.363 . S
Eu69 O94 2.363 . S
Eu69 O95 2.363 . S
Eu70 O63 2.370 . S
Eu70 O68 2.370 . S
Eu70 O72 2.370 . S
Eu70 O73 2.370 . S
Eu70 O84 2.363 . S
Eu70 O85 2.363 . S
Eu70 O92 2.363 . S
Eu70 O93 2.363 . S
O71 Eu65 2.370 . S
O71 Eu69 2.370 . S
O71 Eu75 2.370 . S
O72 Eu65 2.370 . S
O72 Eu70 2.370 . S
O72 Eu75 2.370 . S
O73 Eu66 2.370 . S
O73 Eu70 2.370 . S
O73 Eu75 2.370 . S
O74 Eu66 2.370 . S
O74 Eu69 2.370 . S
O74 Eu75 2.370 . S
Eu75 O71 2.370 . S
Eu75 O72 2.370 . S
Eu75 O73 2.370 . S
Eu75 O74 2.370 . S
Eu75 O78 2.363 . S
Eu75 O79 2.363 . S
Eu75 O88 2.363 . S
Eu75 O89 2.363 . S
O76 C50 1.283 . S
O76 Eu62 2.363 . S
O77 C51 1.283 . S
O77 Eu62 2.363 . S
O78 C52 1.283 . S
O78 Eu75 2.363 . S
O79 C53 1.283 . S
O79 Eu75 2.363 . S
O80 C54 1.283 . S
O80 Eu65 2.363 . S
O81 C55 1.283 . S
O81 Eu65 2.363 . S
O82 C56 1.283 . S
O82 Eu66 2.363 . S
O83 C57 1.283 . S
O83 Eu66 2.363 . S
O84 C58 1.283 . S
O84 Eu70 2.363 . S
O85 C59 1.283 . S
O85 Eu70 2.363 . S
O86 C60 1.283 . S
O86 Eu69 2.363 . S
O87 C61 1.283 . S
O87 Eu69 2.363 . S
O88 C56 1.283 . S
O88 Eu75 2.363 . S
O89 C54 1.283 . S
O89 Eu75 2.363 . S
O90 C57 1.283 . S
O90 Eu62 2.363 . S
O91 C55 1.283 . S
O91 Eu62 2.363 . S
O92 C51 1.283 . S
O92 Eu70 2.363 . S
O93 C53 1.283 . S
O93 Eu70 2.363 . S
O94 C50 1.283 . S
O94 Eu69 2.363 . S
O95 C52 1.283 . S
O95 Eu69 2.363 . S
O96 C61 1.283 . S
O96 Eu65 2.363 . S
O97 C59 1.283 . S
O97 Eu65 2.363 . S
O98 C60 1.283 . S
O98 Eu66 2.363 . S
O99 C58 1.283 . S
O99 Eu66 2.363 . S
H100 C108 0.950 . S
H101 C113 0.950 . S
H102 C110 0.950 1_545 S
H103 C112 0.950 1_554 S
H104 C114 0.950 1_565 S
H105 C116 0.950 . S
H106 C118 0.950 1_556 S
H107 C119 0.950 . S
C108 H100 0.950 . S
C108 C109 1.386 . S
C108 C110 1.391 . S
C109 C108 1.386 . S
C109 C113 1.393 . S
C110 H102 0.950 1_565 S
C110 C108 1.391 . S
C110 C111 1.400 . S
C111 C110 1.400 . S
C111 C112 1.398 . S
C111 C117 1.491 1_556 S
C112 H103 0.950 1_556 S
C112 C111 1.398 . S
C112 C113 1.391 . S
C113 H101 0.950 . S
C113 C109 1.393 . S
C113 C112 1.391 . S
C114 H104 0.950 1_545 S
C114 C115 1.386 . S
C114 C116 1.391 1_545 S
C115 C114 1.386 . S
C115 C119 1.393 . S
C116 H105 0.950 . S
C116 C114 1.391 1_565 S
C116 C117 1.400 . S
C117 C111 1.491 1_554 S
C117 C116 1.400 . S
C117 C118 1.398 1_565 S
C118 H106 0.950 1_554 S
C118 C117 1.398 1_545 S
C118 C119 1.391 . S
C119 H107 0.950 . S
C119 C115 1.393 . S
C119 C118 1.391 . S
H120 C128 0.950 . S
H121 C133 0.950 . S
H122 C130 0.950 . S
H123 C132 0.950 . S
H124 C134 0.950 . S
H125 C136 0.950 . S
H126 C138 0.950 . S
H127 C139 0.950 . S
C128 H120 0.950 . S
C128 C129 1.386 . S
C128 C130 1.391 . S
C129 C128 1.386 . S
C129 C133 1.393 . S
C130 H122 0.950 . S
C130 C128 1.391 . S
C130 C131 1.400 . S
C131 C130 1.400 . S
C131 C132 1.398 . S
C131 C137 1.491 . S
C132 H123 0.950 . S
C132 C131 1.398 . S
C132 C133 1.391 . S
C133 H121 0.950 . S
C133 C129 1.393 . S
C133 C132 1.391 . S
C134 H124 0.950 . S
C134 C135 1.386 . S
C134 C136 1.391 . S
C135 C134 1.386 . S
C135 C139 1.393 . S
C136 H125 0.950 . S
C136 C134 1.391 . S
C136 C137 1.400 . S
C137 C131 1.491 . S
C137 C136 1.400 . S
C137 C138 1.398 . S
C138 H126 0.950 . S
C138 C137 1.398 . S
C138 C139 1.391 . S
C139 H127 0.950 . S
C139 C135 1.393 . S
C139 C138 1.391 . S
H140 C148 0.950 . S
H141 C153 0.950 . S
H142 C150 0.950 1_556 S
H143 C152 0.950 . S
H144 C154 0.950 . S
H145 C156 0.950 1_554 S
H146 C158 0.950 . S
H147 C159 0.950 . S
C148 H140 0.950 . S
C148 C149 1.386 . S
C148 C150 1.391 . S
C149 C148 1.386 . S
C149 C153 1.393 . S
C150 H142 0.950 1_554 S
C150 C148 1.391 . S
C150 C151 1.400 1_655 S
C151 C150 1.400 1_455 S
C151 C152 1.398 . S
C151 C157 1.491 1_554 S
C152 H143 0.950 . S
C152 C151 1.398 . S
C152 C153 1.391 1_455 S
C153 H141 0.950 . S
C153 C149 1.393 . S
C153 C152 1.391 1_655 S
C154 H144 0.950 . S
C154 C155 1.386 . S
C154 C156 1.391 . S
C155 C154 1.386 . S
C155 C159 1.393 . S
C156 H145 0.950 1_556 S
C156 C154 1.391 . S
C156 C157 1.400 . S
C157 C151 1.491 1_556 S
C157 C156 1.400 . S
C157 C158 1.398 . S
C158 H146 0.950 . S
C158 C157 1.398 . S
C158 C159 1.391 . S
C159 H147 0.950 . S
C159 C155 1.393 . S
C159 C158 1.391 . S
H160 C168 0.950 . S
H161 C173 0.950 . S
H162 C170 0.950 . S
H163 C172 0.950 . S
H164 C174 0.950 . S
H165 C176 0.950 . S
H166 C178 0.950 . S
H167 C179 0.950 . S
C168 H160 0.950 . S
C168 C169 1.386 . S
C168 C170 1.391 . S
C169 C168 1.386 . S
C169 C173 1.393 . S
C170 H162 0.950 . S
C170 C168 1.391 . S
C170 C171 1.400 1_565 S
C171 C170 1.400 1_545 S
C171 C172 1.398 . S
C171 C177 1.491 . S
C172 H163 0.950 . S
C172 C171 1.398 . S
C172 C173 1.391 1_545 S
C173 H161 0.950 . S
C173 C169 1.393 . S
C173 C172 1.391 1_565 S
C174 H164 0.950 . S
C174 C175 1.386 . S
C174 C176 1.391 . S
C175 C174 1.386 . S
C175 C179 1.393 . S
C176 H165 0.950 . S
C176 C174 1.391 . S
C176 C177 1.400 . S
C177 C171 1.491 . S
C177 C176 1.400 . S
C177 C178 1.398 . S
C178 H166 0.950 . S
C178 C177 1.398 . S
C178 C179 1.391 . S
C179 H167 0.950 . S
C179 C175 1.393 . S
C179 C178 1.391 . S
H180 C188 0.950 . S
H181 C193 0.950 . S
H182 C190 0.950 . S
H183 C192 0.950 1_556 S
H184 C194 0.950 . S
H185 C196 0.950 . S
H186 C198 0.950 1_554 S
H187 C199 0.950 . S
C188 H180 0.950 . S
C188 C189 1.386 . S
C188 C190 1.391 . S
C189 C188 1.386 . S
C189 C193 1.393 . S
C190 H182 0.950 . S
C190 C188 1.391 . S
C190 C191 1.400 . S
C191 C190 1.400 . S
C191 C192 1.398 . S
C191 C197 1.491 1_554 S
C192 H183 0.950 1_554 S
C192 C191 1.398 . S
C192 C193 1.391 . S
C193 H181 0.950 . S
C193 C189 1.393 . S
C193 C192 1.391 . S
C194 H184 0.950 . S
C194 C195 1.386 . S
C194 C196 1.391 . S
C195 C194 1.386 . S
C195 C199 1.393 . S
C196 H185 0.950 . S
C196 C194 1.391 . S
C196 C197 1.400 . S
C197 C191 1.491 1_556 S
C197 C196 1.400 . S
C197 C198 1.398 . S
C198 H186 0.950 1_556 S
C198 C197 1.398 . S
C198 C199 1.391 . S
C199 H187 0.950 . S
C199 C195 1.393 . S
C199 C198 1.391 . S
H200 C208 0.950 . S
H201 C213 0.950 . S
H202 C210 0.950 1_455 S
H203 C212 0.950 . S
H204 C214 0.950 1_655 S
H205 C216 0.950 . S
H206 C218 0.950 . S
H207 C219 0.950 . S
C208 H200 0.950 . S
C208 C209 1.386 . S
C208 C210 1.391 . S
C209 C208 1.386 . S
C209 C213 1.393 . S
C210 H202 0.950 1_655 S
C210 C208 1.391 . S
C210 C211 1.400 . S
C211 C210 1.400 . S
C211 C212 1.398 . S
C211 C217 1.491 . S
C212 H203 0.950 . S
C212 C211 1.398 . S
C212 C213 1.391 . S
C213 H201 0.950 . S
C213 C209 1.393 . S
C213 C212 1.391 . S
C214 H204 0.950 1_455 S
C214 C215 1.386 . S
C214 C216 1.391 1_455 S
C215 C214 1.386 . S
C215 C219 1.393 . S
C216 H205 0.950 . S
C216 C214 1.391 1_655 S
C216 C217 1.400 . S
C217 C211 1.491 . S
C217 C216 1.400 . S
C217 C218 1.398 1_655 S
C218 H206 0.950 . S
C218 C217 1.398 1_455 S
C218 C219 1.391 . S
C219 H207 0.950 . S
C219 C215 1.393 . S
C219 C218 1.391 . S
H220 C228 0.950 . S
H221 C233 0.950 . S
H222 C230 0.950 . S
H223 C232 0.950 . S
H224 C234 0.950 . S
H225 C236 0.950 . S
H226 C238 0.950 . S
H227 C239 0.950 . S
C228 H220 0.950 . S
C228 C229 1.386 . S
C228 C230 1.391 1_545 S
C229 C228 1.386 . S
C229 C233 1.393 1_545 S
C230 H222 0.950 . S
C230 C228 1.391 1_565 S
C230 C231 1.400 . S
C231 C230 1.400 . S
C231 C232 1.398 . S
C231 C237 1.491 . S
C232 H223 0.950 . S
C232 C231 1.398 . S
C232 C233 1.391 . S
C233 H221 0.950 . S
C233 C229 1.393 1_565 S
C233 C232 1.391 . S
C234 H224 0.950 . S
C234 C235 1.386 . S
C234 C236 1.391 . S
C235 C234 1.386 . S
C235 C239 1.393 . S
C236 H225 0.950 . S
C236 C234 1.391 . S
C236 C237 1.400 . S
C237 C231 1.491 . S
C237 C236 1.400 . S
C237 C238 1.398 . S
C238 H226 0.950 . S
C238 C237 1.398 . S
C238 C239 1.391 . S
C239 H227 0.950 . S
C239 C235 1.393 . S
C239 C238 1.391 . S
H240 C248 0.950 . S
H241 C253 0.950 . S
H242 C250 0.950 . S
H243 C252 0.950 . S
H244 C254 0.950 . S
H245 C256 0.950 . S
H246 C258 0.950 . S
H247 C259 0.950 . S
C248 H240 0.950 . S
C248 C249 1.386 1_655 S
C248 C250 1.391 . S
C249 C248 1.386 1_455 S
C249 C253 1.393 . S
C250 H242 0.950 . S
C250 C248 1.391 . S
C250 C251 1.400 . S
C251 C250 1.400 . S
C251 C252 1.398 . S
C251 C257 1.491 . S
C252 H243 0.950 . S
C252 C251 1.398 . S
C252 C253 1.391 1_655 S
C253 H241 0.950 . S
C253 C249 1.393 . S
C253 C252 1.391 1_455 S
C254 H244 0.950 . S
C254 C255 1.386 . S
C254 C256 1.391 . S
C255 C254 1.386 . S
C255 C259 1.393 . S
C256 H245 0.950 . S
C256 C254 1.391 . S
C256 C257 1.400 . S
C257 C251 1.491 . S
C257 C256 1.400 . S
C257 C258 1.398 . S
C258 H246 0.950 . S
C258 C257 1.398 . S
C258 C259 1.391 . S
C259 H247 0.950 . S
C259 C255 1.393 . S
C259 C258 1.391 . S
H260 C268 0.950 . S
H261 C273 0.950 . S
H262 C270 0.950 . S
H263 C272 0.950 . S
H264 C274 0.950 . S
H265 C276 0.950 . S
H266 C278 0.950 . S
H267 C279 0.950 . S
C268 H260 0.950 . S
C268 C269 1.386 1_565 S
C268 C270 1.391 . S
C269 C268 1.386 1_545 S
C269 C273 1.393 . S
C270 H262 0.950 . S
C270 C268 1.391 . S
C270 C271 1.400 . S
C271 C270 1.400 . S
C271 C272 1.398 . S
C271 C277 1.491 . S
C272 H263 0.950 . S
C272 C271 1.398 . S
C272 C273 1.391 1_565 S
C273 H261 0.950 . S
C273 C269 1.393 . S
C273 C272 1.391 1_545 S
C274 H264 0.950 . S
C274 C275 1.386 . S
C274 C276 1.391 1_655 S
C275 C274 1.386 . S
C275 C279 1.393 1_655 S
C276 H265 0.950 . S
C276 C274 1.391 1_455 S
C276 C277 1.400 . S
C277 C271 1.491 . S
C277 C276 1.400 . S
C277 C278 1.398 . S
C278 H266 0.950 . S
C278 C277 1.398 . S
C278 C279 1.391 . S
C279 H267 0.950 . S
C279 C275 1.393 1_455 S
C279 C278 1.391 . S
H280 C288 0.950 . S
H281 C293 0.950 . S
H282 C290 0.950 . S
H283 C292 0.950 . S
H284 C294 0.950 1_565 S
H285 C296 0.950 . S
H286 C298 0.950 . S
H287 C299 0.950 . S
C288 H280 0.950 . S
C288 C289 1.386 . S
C288 C290 1.391 . S
C289 C288 1.386 . S
C289 C293 1.393 . S
C290 H282 0.950 . S
C290 C288 1.391 . S
C290 C291 1.400 . S
C291 C290 1.400 . S
C291 C292 1.398 . S
C291 C297 1.491 . S
C292 H283 0.950 . S
C292 C291 1.398 . S
C292 C293 1.391 . S
C293 H281 0.950 . S
C293 C289 1.393 . S
C293 C292 1.391 . S
C294 H284 0.950 1_545 S
C294 C295 1.386 1_545 S
C294 C296 1.391 . S
C295 C294 1.386 1_565 S
C295 C299 1.393 1_565 S
C296 H285 0.950 . S
C296 C294 1.391 . S
C296 C297 1.400 . S
C297 C291 1.491 . S
C297 C296 1.400 . S
C297 C298 1.398 . S
C298 H286 0.950 . S
C298 C297 1.398 . S
C298 C299 1.391 . S
C299 H287 0.950 . S
C299 C295 1.393 1_545 S
C299 C298 1.391 . S
H300 C308 0.950 . S
H301 C313 0.950 . S
H302 C310 0.950 . S
H303 C312 0.950 . S
H304 C314 0.950 . S
H305 C316 0.950 . S
H306 C318 0.950 . S
H307 C319 0.950 . S
C308 H300 0.950 . S
C308 C309 1.386 . S
C308 C310 1.391 . S
C309 C308 1.386 . S
C309 C313 1.393 . S
C310 H302 0.950 . S
C310 C308 1.391 . S
C310 C311 1.400 . S
C311 C310 1.400 . S
C311 C312 1.398 . S
C311 C317 1.491 . S
C312 H303 0.950 . S
C312 C311 1.398 . S
C312 C313 1.391 . S
C313 H301 0.950 . S
C313 C309 1.393 . S
C313 C312 1.391 . S
C314 H304 0.950 . S
C314 C315 1.386 1_455 S
C314 C316 1.391 . S
C315 C314 1.386 1_655 S
C315 C319 1.393 . S
C316 H305 0.950 . S
C316 C314 1.391 . S
C316 C317 1.400 . S
C317 C311 1.491 . S
C317 C316 1.400 . S
C317 C318 1.398 . S
C318 H306 0.950 . S
C318 C317 1.398 . S
C318 C319 1.391 1_455 S
C319 H307 0.950 . S
C319 C315 1.393 . S
C319 C318 1.391 1_655 S
H320 C328 0.950 . S
H321 C333 0.950 . S
H322 C330 0.950 . S
H323 C332 0.950 . S
H324 C334 0.950 . S
H325 C336 0.950 . S
H326 C338 0.950 . S
H327 C339 0.950 . S
C328 H320 0.950 . S
C328 C329 1.386 1_655 S
C328 C330 1.391 . S
C329 C328 1.386 1_455 S
C329 C333 1.393 . S
C330 H322 0.950 . S
C330 C328 1.391 . S
C330 C331 1.400 . S
C331 C330 1.400 . S
C331 C332 1.398 . S
C331 C337 1.491 . S
C332 H323 0.950 . S
C332 C331 1.398 . S
C332 C333 1.391 1_655 S
C333 H321 0.950 . S
C333 C329 1.393 . S
C333 C332 1.391 1_455 S
C334 H324 0.950 . S
C334 C335 1.386 . S
C334 C336 1.391 1_565 S
C335 C334 1.386 . S
C335 C339 1.393 1_565 S
C336 H325 0.950 . S
C336 C334 1.391 1_545 S
C336 C337 1.400 . S
C337 C331 1.491 . S
C337 C336 1.400 . S
C337 C338 1.398 . S
C338 H326 0.950 . S
C338 C337 1.398 . S
C338 C339 1.391 . S
C339 H327 0.950 . S
C339 C335 1.393 1_545 S
C339 C338 1.391 . S
C109 C54 1.838 . S
C115 C5 1.958 . S
C129 C57 1.944 . S
C135 C6 1.809 . S
C149 C1 1.954 . S
C155 C61 1.829 . S
C169 C58 1.946 . S
C175 C2 1.815 . S
C189 C9 1.946 . S
C195 C52 1.814 . S
C209 C10 1.809 . S
C215 C51 1.944 . S
C229 C0 1.111 . S
C235 C3 1.111 . S
C249 C59 1.124 . S
C255 C60 1.124 . S
C269 C11 1.111 . S
C275 C8 1.111 . S
C289 C50 1.126 . S
C295 C53 1.126 . S
C309 C4 1.113 . S
C315 C7 1.113 . S
C329 C55 1.115 . S
C335 C56 1.115 . S
