# Generated by pormake.
# Topology nfb, (4)-cn, num edge types: 1
# Building blocks:
#     Node 0, Type 0, BuildingBlock: ICAMEG_clean_sbu_1, # of connection points: 4
#     Node 1, Type 0, BuildingBlock: ICAMEG_clean_sbu_1, # of connection points: 4
#     Node 2, Type 0, BuildingBlock: ICAMEG_clean_sbu_1, # of connection points: 4
#     Node 3, Type 0, BuildingBlock: ICAMEG_clean_sbu_1, # of connection points: 4
#     Node 4, Type 0, BuildingBlock: ICAMEG_clean_sbu_1, # of connection points: 4
#     Node 5, Type 0, BuildingBlock: ICAMEG_clean_sbu_1, # of connection points: 4
#     Node 6, Type 0, BuildingBlock: ICAMEG_clean_sbu_1, # of connection points: 4
#     Node 7, Type 0, BuildingBlock: ICAMEG_clean_sbu_1, # of connection points: 4
#     Node 8, Type 0, BuildingBlock: ICAMEG_clean_sbu_1, # of connection points: 4
#     Node 9, Type 0, BuildingBlock: ICAMEG_clean_sbu_1, # of connection points: 4
#     Node 10, Type 0, BuildingBlock: ICAMEG_clean_sbu_1, # of connection points: 4
#     Node 11, Type 0, BuildingBlock: ICAMEG_clean_sbu_1, # of connection points: 4
#     Node 12, Type 0, BuildingBlock: ICAMEG_clean_sbu_1, # of connection points: 4
#     Node 13, Type 0, BuildingBlock: ICAMEG_clean_sbu_1, # of connection points: 4
#     Node 14, Type 0, BuildingBlock: ICAMEG_clean_sbu_1, # of connection points: 4
#     Node 15, Type 0, BuildingBlock: ICAMEG_clean_sbu_1, # of connection points: 4
#     Node 16, Type 0, BuildingBlock: ICAMEG_clean_sbu_1, # of connection points: 4
#     Node 17, Type 0, BuildingBlock: ICAMEG_clean_sbu_1, # of connection points: 4
#     Node 18, Type 0, BuildingBlock: ICAMEG_clean_sbu_1, # of connection points: 4
#     Node 19, Type 0, BuildingBlock: ICAMEG_clean_sbu_1, # of connection points: 4
#     Node 20, Type 0, BuildingBlock: ICAMEG_clean_sbu_1, # of connection points: 4
#     Node 21, Type 0, BuildingBlock: ICAMEG_clean_sbu_1, # of connection points: 4
#     Node 22, Type 0, BuildingBlock: ICAMEG_clean_sbu_1, # of connection points: 4
#     Node 23, Type 0, BuildingBlock: ICAMEG_clean_sbu_1, # of connection points: 4
#     Node 24, Type 0, BuildingBlock: ICAMEG_clean_sbu_1, # of connection points: 4
#     Node 25, Type 0, BuildingBlock: ICAMEG_clean_sbu_1, # of connection points: 4
#     Node 26, Type 0, BuildingBlock: ICAMEG_clean_sbu_1, # of connection points: 4
#     Node 27, Type 0, BuildingBlock: ICAMEG_clean_sbu_1, # of connection points: 4
#     Node 28, Type 0, BuildingBlock: ICAMEG_clean_sbu_1, # of connection points: 4
#     Node 29, Type 0, BuildingBlock: ICAMEG_clean_sbu_1, # of connection points: 4
#     Node 30, Type 0, BuildingBlock: ICAMEG_clean_sbu_1, # of connection points: 4
#     Node 31, Type 0, BuildingBlock: ICAMEG_clean_sbu_1, # of connection points: 4
#     Node 32, Type 0, BuildingBlock: ICAMEG_clean_sbu_1, # of connection points: 4
#     Node 33, Type 0, BuildingBlock: ICAMEG_clean_sbu_1, # of connection points: 4
#     Node 34, Type 0, BuildingBlock: ICAMEG_clean_sbu_1, # of connection points: 4
#     Node 35, Type 0, BuildingBlock: ICAMEG_clean_sbu_1, # of connection points: 4
#     Node 36, Type 0, BuildingBlock: ICAMEG_clean_sbu_1, # of connection points: 4
#     Node 37, Type 0, BuildingBlock: ICAMEG_clean_sbu_1, # of connection points: 4
#     Node 38, Type 0, BuildingBlock: ICAMEG_clean_sbu_1, # of connection points: 4
#     Node 39, Type 0, BuildingBlock: ICAMEG_clean_sbu_1, # of connection points: 4
#     Node 40, Type 0, BuildingBlock: ICAMEG_clean_sbu_1, # of connection points: 4
#     Node 41, Type 0, BuildingBlock: ICAMEG_clean_sbu_1, # of connection points: 4
#     Node 42, Type 0, BuildingBlock: ICAMEG_clean_sbu_1, # of connection points: 4
#     Node 43, Type 0, BuildingBlock: ICAMEG_clean_sbu_1, # of connection points: 4
#     Node 44, Type 0, BuildingBlock: ICAMEG_clean_sbu_1, # of connection points: 4
#     Node 45, Type 0, BuildingBlock: ICAMEG_clean_sbu_1, # of connection points: 4
#     Node 46, Type 0, BuildingBlock: ICAMEG_clean_sbu_1, # of connection points: 4
#     Node 47, Type 0, BuildingBlock: ICAMEG_clean_sbu_1, # of connection points: 4
#     Edge 48, Type (0, 0), BuildingBlock: OJICUG_clean_linker_0, # of connection points: 2
#     Edge 49, Type (0, 0), BuildingBlock: OJICUG_clean_linker_0, # of connection points: 2
#     Edge 50, Type (0, 0), BuildingBlock: OJICUG_clean_linker_0, # of connection points: 2
#     Edge 51, Type (0, 0), BuildingBlock: OJICUG_clean_linker_0, # of connection points: 2
#     Edge 52, Type (0, 0), BuildingBlock: OJICUG_clean_linker_0, # of connection points: 2
#     Edge 53, Type (0, 0), BuildingBlock: OJICUG_clean_linker_0, # of connection points: 2
#     Edge 54, Type (0, 0), BuildingBlock: OJICUG_clean_linker_0, # of connection points: 2
#     Edge 55, Type (0, 0), BuildingBlock: OJICUG_clean_linker_0, # of connection points: 2
#     Edge 56, Type (0, 0), BuildingBlock: OJICUG_clean_linker_0, # of connection points: 2
#     Edge 57, Type (0, 0), BuildingBlock: OJICUG_clean_linker_0, # of connection points: 2
#     Edge 58, Type (0, 0), BuildingBlock: OJICUG_clean_linker_0, # of connection points: 2
#     Edge 59, Type (0, 0), BuildingBlock: OJICUG_clean_linker_0, # of connection points: 2
#     Edge 60, Type (0, 0), BuildingBlock: OJICUG_clean_linker_0, # of connection points: 2
#     Edge 61, Type (0, 0), BuildingBlock: OJICUG_clean_linker_0, # of connection points: 2
#     Edge 62, Type (0, 0), BuildingBlock: OJICUG_clean_linker_0, # of connection points: 2
#     Edge 63, Type (0, 0), BuildingBlock: OJICUG_clean_linker_0, # of connection points: 2
#     Edge 64, Type (0, 0), BuildingBlock: OJICUG_clean_linker_0, # of connection points: 2
#     Edge 65, Type (0, 0), BuildingBlock: OJICUG_clean_linker_0, # of connection points: 2
#     Edge 66, Type (0, 0), BuildingBlock: OJICUG_clean_linker_0, # of connection points: 2
#     Edge 67, Type (0, 0), BuildingBlock: OJICUG_clean_linker_0, # of connection points: 2
#     Edge 68, Type (0, 0), BuildingBlock: OJICUG_clean_linker_0, # of connection points: 2
#     Edge 69, Type (0, 0), BuildingBlock: OJICUG_clean_linker_0, # of connection points: 2
#     Edge 70, Type (0, 0), BuildingBlock: OJICUG_clean_linker_0, # of connection points: 2
#     Edge 71, Type (0, 0), BuildingBlock: OJICUG_clean_linker_0, # of connection points: 2
#     Edge 72, Type (0, 0), BuildingBlock: OJICUG_clean_linker_0, # of connection points: 2
#     Edge 73, Type (0, 0), BuildingBlock: OJICUG_clean_linker_0, # of connection points: 2
#     Edge 74, Type (0, 0), BuildingBlock: OJICUG_clean_linker_0, # of connection points: 2
#     Edge 75, Type (0, 0), BuildingBlock: OJICUG_clean_linker_0, # of connection points: 2
#     Edge 76, Type (0, 0), BuildingBlock: OJICUG_clean_linker_0, # of connection points: 2
#     Edge 77, Type (0, 0), BuildingBlock: OJICUG_clean_linker_0, # of connection points: 2
#     Edge 78, Type (0, 0), BuildingBlock: OJICUG_clean_linker_0, # of connection points: 2
#     Edge 79, Type (0, 0), BuildingBlock: OJICUG_clean_linker_0, # of connection points: 2
#     Edge 80, Type (0, 0), BuildingBlock: OJICUG_clean_linker_0, # of connection points: 2
#     Edge 81, Type (0, 0), BuildingBlock: OJICUG_clean_linker_0, # of connection points: 2
#     Edge 82, Type (0, 0), BuildingBlock: OJICUG_clean_linker_0, # of connection points: 2
#     Edge 83, Type (0, 0), BuildingBlock: OJICUG_clean_linker_0, # of connection points: 2
#     Edge 84, Type (0, 0), BuildingBlock: OJICUG_clean_linker_0, # of connection points: 2
#     Edge 85, Type (0, 0), BuildingBlock: OJICUG_clean_linker_0, # of connection points: 2
#     Edge 86, Type (0, 0), BuildingBlock: OJICUG_clean_linker_0, # of connection points: 2
#     Edge 87, Type (0, 0), BuildingBlock: OJICUG_clean_linker_0, # of connection points: 2
#     Edge 88, Type (0, 0), BuildingBlock: OJICUG_clean_linker_0, # of connection points: 2
#     Edge 89, Type (0, 0), BuildingBlock: OJICUG_clean_linker_0, # of connection points: 2
#     Edge 90, Type (0, 0), BuildingBlock: OJICUG_clean_linker_0, # of connection points: 2
#     Edge 91, Type (0, 0), BuildingBlock: OJICUG_clean_linker_0, # of connection points: 2
#     Edge 92, Type (0, 0), BuildingBlock: OJICUG_clean_linker_0, # of connection points: 2
#     Edge 93, Type (0, 0), BuildingBlock: OJICUG_clean_linker_0, # of connection points: 2
#     Edge 94, Type (0, 0), BuildingBlock: OJICUG_clean_linker_0, # of connection points: 2
#     Edge 95, Type (0, 0), BuildingBlock: OJICUG_clean_linker_0, # of connection points: 2
#     Edge 96, Type (0, 0), BuildingBlock: OJICUG_clean_linker_0, # of connection points: 2
#     Edge 97, Type (0, 0), BuildingBlock: OJICUG_clean_linker_0, # of connection points: 2
#     Edge 98, Type (0, 0), BuildingBlock: OJICUG_clean_linker_0, # of connection points: 2
#     Edge 99, Type (0, 0), BuildingBlock: OJICUG_clean_linker_0, # of connection points: 2
#     Edge 100, Type (0, 0), BuildingBlock: OJICUG_clean_linker_0, # of connection points: 2
#     Edge 101, Type (0, 0), BuildingBlock: OJICUG_clean_linker_0, # of connection points: 2
#     Edge 102, Type (0, 0), BuildingBlock: OJICUG_clean_linker_0, # of connection points: 2
#     Edge 103, Type (0, 0), BuildingBlock: OJICUG_clean_linker_0, # of connection points: 2
#     Edge 104, Type (0, 0), BuildingBlock: OJICUG_clean_linker_0, # of connection points: 2
#     Edge 105, Type (0, 0), BuildingBlock: OJICUG_clean_linker_0, # of connection points: 2
#     Edge 106, Type (0, 0), BuildingBlock: OJICUG_clean_linker_0, # of connection points: 2
#     Edge 107, Type (0, 0), BuildingBlock: OJICUG_clean_linker_0, # of connection points: 2
#     Edge 108, Type (0, 0), BuildingBlock: OJICUG_clean_linker_0, # of connection points: 2
#     Edge 109, Type (0, 0), BuildingBlock: OJICUG_clean_linker_0, # of connection points: 2
#     Edge 110, Type (0, 0), BuildingBlock: OJICUG_clean_linker_0, # of connection points: 2
#     Edge 111, Type (0, 0), BuildingBlock: OJICUG_clean_linker_0, # of connection points: 2
#     Edge 112, Type (0, 0), BuildingBlock: OJICUG_clean_linker_0, # of connection points: 2
#     Edge 113, Type (0, 0), BuildingBlock: OJICUG_clean_linker_0, # of connection points: 2
#     Edge 114, Type (0, 0), BuildingBlock: OJICUG_clean_linker_0, # of connection points: 2
#     Edge 115, Type (0, 0), BuildingBlock: OJICUG_clean_linker_0, # of connection points: 2
#     Edge 116, Type (0, 0), BuildingBlock: OJICUG_clean_linker_0, # of connection points: 2
#     Edge 117, Type (0, 0), BuildingBlock: OJICUG_clean_linker_0, # of connection points: 2
#     Edge 118, Type (0, 0), BuildingBlock: OJICUG_clean_linker_0, # of connection points: 2
#     Edge 119, Type (0, 0), BuildingBlock: OJICUG_clean_linker_0, # of connection points: 2
#     Edge 120, Type (0, 0), BuildingBlock: OJICUG_clean_linker_0, # of connection points: 2
#     Edge 121, Type (0, 0), BuildingBlock: OJICUG_clean_linker_0, # of connection points: 2
#     Edge 122, Type (0, 0), BuildingBlock: OJICUG_clean_linker_0, # of connection points: 2
#     Edge 123, Type (0, 0), BuildingBlock: OJICUG_clean_linker_0, # of connection points: 2
#     Edge 124, Type (0, 0), BuildingBlock: OJICUG_clean_linker_0, # of connection points: 2
#     Edge 125, Type (0, 0), BuildingBlock: OJICUG_clean_linker_0, # of connection points: 2
#     Edge 126, Type (0, 0), BuildingBlock: OJICUG_clean_linker_0, # of connection points: 2
#     Edge 127, Type (0, 0), BuildingBlock: OJICUG_clean_linker_0, # of connection points: 2
#     Edge 128, Type (0, 0), BuildingBlock: OJICUG_clean_linker_0, # of connection points: 2
#     Edge 129, Type (0, 0), BuildingBlock: OJICUG_clean_linker_0, # of connection points: 2
#     Edge 130, Type (0, 0), BuildingBlock: OJICUG_clean_linker_0, # of connection points: 2
#     Edge 131, Type (0, 0), BuildingBlock: OJICUG_clean_linker_0, # of connection points: 2
#     Edge 132, Type (0, 0), BuildingBlock: OJICUG_clean_linker_0, # of connection points: 2
#     Edge 133, Type (0, 0), BuildingBlock: OJICUG_clean_linker_0, # of connection points: 2
#     Edge 134, Type (0, 0), BuildingBlock: OJICUG_clean_linker_0, # of connection points: 2
#     Edge 135, Type (0, 0), BuildingBlock: OJICUG_clean_linker_0, # of connection points: 2
#     Edge 136, Type (0, 0), BuildingBlock: OJICUG_clean_linker_0, # of connection points: 2
#     Edge 137, Type (0, 0), BuildingBlock: OJICUG_clean_linker_0, # of connection points: 2
#     Edge 138, Type (0, 0), BuildingBlock: OJICUG_clean_linker_0, # of connection points: 2
#     Edge 139, Type (0, 0), BuildingBlock: OJICUG_clean_linker_0, # of connection points: 2
#     Edge 140, Type (0, 0), BuildingBlock: OJICUG_clean_linker_0, # of connection points: 2
#     Edge 141, Type (0, 0), BuildingBlock: OJICUG_clean_linker_0, # of connection points: 2
#     Edge 142, Type (0, 0), BuildingBlock: OJICUG_clean_linker_0, # of connection points: 2
#     Edge 143, Type (0, 0), BuildingBlock: OJICUG_clean_linker_0, # of connection points: 2
# Relax obj value: 0.319
# Max RMSD: 0.133
# Mean RMSD: 0.106
data_MOF--net-nfb--node1-ICAMEG_clean_sbu_1--edge1-OJICUG_clean_linker_0
_symmetry_space_group_name_H-M    P1
_symmetry_Int_Tables_number       1
_symmetry_cell_setting            triclinic
loop_
_symmetry_equiv_pos_as_xyz
'x, y, z'
_cell_length_a     46.354954
_cell_length_b     46.536496
_cell_length_c     46.505322
_cell_angle_alpha  90.563609
_cell_angle_beta   91.805372
_cell_angle_gamma 93.217334
loop_
_atom_site_label
_atom_site_type_symbol
_atom_site_fract_x
_atom_site_fract_y
_atom_site_fract_z
_atom_type_partial_charge
Co0 Co 0.09174 0.09838 0.38942 0.0
Co1 Co 0.07683 0.16059 0.42399 0.0
O2 O 0.09924 0.13932 0.39717 0.0
C3 C 0.15406 0.1048 0.40839 0.0
O4 O 0.14372 0.11812 0.43044 0.0
C5 C 0.0897 0.20122 0.37498 0.0
O6 O 0.08909 0.18036 0.35575 0.0
O7 O 0.04052 0.14877 0.40193 0.0
O8 O 0.0476 0.10249 0.39116 0.0
H9 H 0.99152 0.17509 0.4855 0.0
H10 H 0.1307 0.13084 0.35042 0.0
O11 O 0.1361 0.09418 0.3887 0.0
H12 H 0.04672 0.09645 0.28929 0.0
H13 H 0.0967 1.00707 0.33128 0.0
H14 H 0.05397 0.05275 0.41463 0.0
H15 H 0.04914 0.08479 0.34086 0.0
H16 H 0.11269 0.05671 0.34635 0.0
O17 O 0.08237 0.19635 0.40071 0.0
H18 H 0.02246 0.14774 0.45435 0.0
H19 H 0.08241 0.21991 0.45006 0.0
H20 H 0.03936 1.0024 0.4019 0.0
H21 H 0.12942 0.14247 0.29881 0.0
H22 H 0.06042 0.9794 0.35954 0.0
H23 H 0.08713 0.12535 0.26789 0.0
O24 O 0.09382 0.08958 0.43111 0.0
H25 H 0.18144 0.19419 0.43042 0.0
H26 H 0.09775 0.15936 0.48589 0.0
H27 H 0.14594 0.16764 0.51026 0.0
H28 H 0.18768 0.18571 0.48248 0.0
H29 H 0.1343 0.18338 0.40648 0.0
H30 H 0.05208 0.24792 0.48135 0.0
H31 H 1.00605 0.22579 0.4988 0.0
O32 O 0.07111 0.12633 0.44947 0.0
C33 C 0.03085 0.12355 0.39401 0.0
C34 C 0.01141 0.18512 0.47778 0.0
C35 C 0.04519 0.22614 0.47507 0.0
N36 N 0.05428 0.18216 0.45036 0.0
C37 C 0.02914 0.16968 0.46026 0.0
C38 C 0.06244 0.21003 0.4576 0.0
C39 C 0.01949 0.21359 0.48511 0.0
C40 C 0.11241 0.12296 0.33705 0.0
N41 N 0.0901 0.10705 0.34867 0.0
C42 C 0.11172 0.12977 0.30786 0.0
C43 C 0.08796 0.12022 0.29054 0.0
C44 C 0.06526 0.10405 0.30255 0.0
C45 C 0.06667 0.09767 0.33182 0.0
C46 C 0.08767 0.01679 0.34997 0.0
C47 C 0.06404 0.04258 0.39684 0.0
C48 C 0.09659 0.04486 0.35855 0.0
N49 N 0.08416 0.05766 0.38123 0.0
C50 C 0.05545 0.01413 0.38955 0.0
C51 C 0.06722 1.00127 0.36578 0.0
C52 C 0.08254 0.10216 0.45198 0.0
C53 C 0.16315 0.18689 0.44286 0.0
C54 C 0.11596 0.16727 0.47375 0.0
C55 C 0.14301 0.17209 0.48772 0.0
C56 C 0.16661 0.1821 0.47213 0.0
N57 N 0.11282 0.17158 0.44486 0.0
C58 C 0.1361 0.18118 0.4295 0.0
Co59 Co 0.38492 0.65495 0.92526 0.0
Co60 Co 0.3937 0.63026 0.85674 0.0
O61 O 0.40114 0.6287 0.89824 0.0
C62 C 0.43599 0.67512 0.96033 0.0
O63 O 0.4356 0.70004 0.94737 0.0
C64 C 0.37689 0.5695 0.87258 0.0
O65 O 0.36078 0.58188 0.89126 0.0
O66 O 0.35119 0.62997 0.86192 0.0
O67 O 0.34877 0.65703 0.90172 0.0
H68 H 0.34761 0.66557 0.76547 0.0
H69 H 0.40731 0.6006 0.9473 0.0
O70 O 0.4209 0.65351 0.94992 0.0
H71 H 0.30411 0.59599 0.97053 0.0
H72 H 0.3599 0.69198 0.02318 0.0
H73 H 0.35618 0.70965 0.91895 0.0
H74 H 0.32592 0.63833 0.94625 0.0
H75 H 0.37898 0.65718 0.98944 0.0
O76 O 0.39174 0.58567 0.85559 0.0
H77 H 0.35748 0.66455 0.81789 0.0
H78 H 0.41396 0.59677 0.80718 0.0
H79 H 0.33725 0.74508 0.95195 0.0
H80 H 0.38645 0.5581 0.97212 0.0
H81 H 0.33937 0.73667 1.00428 0.0
H82 H 0.33447 0.55554 0.98377 0.0
O83 O 0.40185 0.688 0.90422 0.0
H84 H 0.49396 0.59717 0.87457 0.0
H85 H 0.43516 0.66645 0.8229 0.0
H86 H 0.488 0.66841 0.81714 0.0
H87 H 0.51771 0.63355 0.84313 0.0
H88 H 0.44114 0.59616 0.87992 0.0
H89 H 0.40456 0.5969 0.75463 0.0
H90 H 0.37125 0.63157 0.73347 0.0
O91 O 0.39541 0.67487 0.85771 0.0
C92 C 0.33719 0.64471 0.87944 0.0
C93 C 0.36224 0.65044 0.77442 0.0
C94 C 0.39418 0.61186 0.76835 0.0
N95 N 0.38646 0.63079 0.8155 0.0
C96 C 0.36798 0.64982 0.80407 0.0
C97 C 0.39937 0.61184 0.7981 0.0
C98 C 0.37549 0.63133 0.75648 0.0
C99 C 0.38476 0.59985 0.95263 0.0
N100 N 0.36793 0.62205 0.94541 0.0
C101 C 0.37303 0.57563 0.96654 0.0
C102 C 0.34384 0.57417 0.973 0.0
C103 C 0.32679 0.59684 0.96554 0.0
C104 C 0.33926 0.62074 0.95168 0.0
C105 C 0.359 0.69602 1.00035 0.0
C106 C 0.35726 0.70572 0.9418 0.0
C107 C 0.36981 0.67639 0.98113 0.0
N108 N 0.3691 0.68152 0.95224 0.0
C109 C 0.34637 0.72584 0.96036 0.0
C110 C 0.34745 0.721 0.98982 0.0
C111 C 0.40053 0.69411 0.8777 0.0
C112 C 0.48122 0.61242 0.8631 0.0
C113 C 0.44799 0.65127 0.83429 0.0
C114 C 0.47787 0.65244 0.83091 0.0
C115 C 0.49454 0.63287 0.84545 0.0
N116 N 0.43508 0.6311 0.8516 0.0
C117 C 0.45129 0.61189 0.86596 0.0
Co118 Co 0.89458 0.91937 0.40199 0.0
Co119 Co 0.91263 0.86132 0.44032 0.0
O120 O 0.88665 0.87958 0.41333 0.0
C121 C 0.83253 0.91593 0.41854 0.0
O122 O 0.84288 0.90538 0.4425 0.0
C123 C 0.88923 0.81349 0.3996 0.0
O124 O 0.88251 0.83101 0.37882 0.0
O125 O 0.94484 0.86871 0.41356 0.0
O126 O 0.939 0.91524 0.40481 0.0
H127 H 0.01058 0.84608 0.48359 0.0
H128 H 0.85397 0.88293 0.36483 0.0
O129 O 0.8504 0.92404 0.39911 0.0
H130 H 0.93512 0.91093 0.30305 0.0
H131 H 0.88967 1.00205 0.33432 0.0
H132 H 0.93406 0.96716 0.42395 0.0
H133 H 0.93498 0.928 0.35334 0.0
H134 H 0.87161 0.95625 0.3554 0.0
O135 O 0.9026 0.8227 0.42241 0.0
H136 H 0.97279 0.87498 0.46192 0.0
H137 H 0.90969 0.80677 0.47383 0.0
H138 H 0.95039 0.01454 0.40534 0.0
H139 H 0.853 0.86584 0.31446 0.0
H140 H 0.92855 0.03176 0.35944 0.0
H141 H 0.89385 0.87974 0.28322 0.0
O142 O 0.89436 0.93176 0.44323 0.0
H143 H 0.8086 0.83802 0.46115 0.0
H144 H 0.90411 0.87007 0.50299 0.0
H145 H 0.86084 0.87202 0.53257 0.0
H146 H 0.81258 0.85683 0.5111 0.0
H147 H 0.85166 0.83891 0.43189 0.0
H148 H 0.94662 0.77744 0.49636 0.0
H149 H 0.99784 0.79641 0.49975 0.0
O150 O 0.92332 0.89908 0.46091 0.0
C151 C 0.9551 0.8935 0.40613 0.0
C152 C 0.98847 0.83733 0.48161 0.0
C153 C 0.9526 0.79874 0.48862 0.0
N154 N 0.93913 0.84237 0.466 0.0
C155 C 0.96691 0.85367 0.46953 0.0
C156 C 0.93169 0.81559 0.47614 0.0
C157 C 0.98132 0.80944 0.4906 0.0
C158 C 0.87168 0.88936 0.35131 0.0
N159 N 0.89445 0.9065 0.36209 0.0
C160 C 0.87108 0.87948 0.32283 0.0
C161 C 0.89403 0.88724 0.30533 0.0
C162 C 0.91721 0.90469 0.31646 0.0
C163 C 0.91709 0.91414 0.34505 0.0
C164 C 0.8985 0.99515 0.3547 0.0
C165 C 0.92346 0.97526 0.4049 0.0
C166 C 0.88867 0.96912 0.36656 0.0
N167 N 0.90206 0.95892 0.39064 0.0
C168 C 0.93298 1.00199 0.3943 0.0
C169 C 0.92069 0.0117 0.36871 0.0
C170 C 0.90885 0.92143 0.46404 0.0
C171 C 0.82951 0.84483 0.47066 0.0
C172 C 0.88325 0.86285 0.49395 0.0
C173 C 0.85888 0.86384 0.51076 0.0
C174 C 0.83182 0.85519 0.49881 0.0
N175 N 0.88054 0.85467 0.46574 0.0
C176 C 0.8542 0.84492 0.4543 0.0
Co177 Co 0.69145 0.38135 0.92117 0.0
Co178 Co 0.66854 0.39587 0.85329 0.0
O179 O 0.66778 0.40188 0.89441 0.0
C180 C 0.63341 0.37824 0.94524 0.0
O181 O 0.62273 0.36652 0.92113 0.0
C182 C 0.67751 0.45996 0.83851 0.0
O183 O 0.70015 0.45408 0.82368 0.0
O184 O 0.71139 0.4033 0.85414 0.0
O185 O 0.72261 0.37839 0.8934 0.0
H186 H 0.70509 0.35683 0.76108 0.0
H187 H 0.66854 0.43569 0.9416 0.0
O188 O 0.66044 0.38369 0.94928 0.0
H189 H 0.7745 0.45051 0.95218 0.0
H190 H 0.74082 0.36809 0.01722 0.0
H191 H 0.72673 0.33003 0.91815 0.0
H192 H 0.75237 0.40544 0.93101 0.0
H193 H 0.70533 0.38844 0.98385 0.0
O194 O 0.66266 0.43932 0.8502 0.0
H195 H 0.70343 0.36283 0.81379 0.0
H196 H 0.63529 0.41954 0.80401 0.0
H197 H 0.7619 0.30837 0.95114 0.0
H198 H 0.68949 0.47924 0.96551 0.0
H199 H 0.77001 0.32821 1.00067 0.0
H200 H 0.74298 0.48775 0.97033 0.0
O201 O 0.67388 0.34441 0.90611 0.0
H202 H 0.56636 0.41499 0.87782 0.0
H203 H 0.62852 0.35029 0.82659 0.0
H204 H 0.57579 0.33971 0.8256 0.0
H205 H 0.54431 0.37225 0.85112 0.0
H206 H 0.61923 0.42452 0.87864 0.0
H207 H 0.63627 0.41434 0.75116 0.0
H208 H 0.67133 0.38273 0.7294 0.0
O209 O 0.67384 0.35197 0.85823 0.0
C210 C 0.72932 0.39017 0.86983 0.0
C211 C 0.68968 0.37062 0.7703 0.0
C212 C 0.65107 0.40292 0.76474 0.0
N213 N 0.6692 0.39139 0.81188 0.0
C214 C 0.68861 0.37404 0.80012 0.0
C215 C 0.65064 0.40583 0.79464 0.0
C216 C 0.67074 0.38517 0.75254 0.0
C217 C 0.69175 0.43862 0.94417 0.0
N218 N 0.70909 0.41777 0.93529 0.0
C219 C 0.70362 0.4637 0.95739 0.0
C220 C 0.73355 0.46822 0.96022 0.0
C221 C 0.75121 0.44735 0.95006 0.0
C222 C 0.73853 0.42201 0.93773 0.0
C223 C 0.73772 0.3594 0.99561 0.0
C224 C 0.72957 0.33822 0.93993 0.0
C225 C 0.71754 0.37076 0.97664 0.0
N226 N 0.71453 0.36091 0.94885 0.0
C227 C 0.7496 0.32597 0.95847 0.0
C228 C 0.75409 0.33707 0.98628 0.0
C229 C 0.67258 0.33503 0.8802 0.0
C230 C 0.57983 0.40069 0.8665 0.0
C231 C 0.61499 0.36447 0.83795 0.0
C232 C 0.58513 0.35841 0.83724 0.0
C233 C 0.56748 0.3767 0.85158 0.0
N234 N 0.62695 0.38812 0.85248 0.0
C235 C 0.6098 0.40606 0.86676 0.0
Co236 Co 0.10975 0.86798 0.67493 0.0
Co237 Co 0.12129 0.84665 0.60674 0.0
O238 O 0.10076 0.86847 0.63403 0.0
C239 C 0.04678 0.85409 0.69243 0.0
O240 O 0.05451 0.83142 0.70672 0.0
C241 C 0.11958 0.90345 0.58025 0.0
O242 O 0.13129 0.91488 0.60408 0.0
O243 O 0.15793 0.86715 0.61944 0.0
O244 O 0.15372 0.86651 0.66775 0.0
H245 H 0.19348 0.77654 0.57958 0.0
H246 H 0.07463 0.91331 0.64964 0.0
O247 O 0.06606 0.87016 0.68016 0.0
H248 H 0.15814 0.96533 0.69852 0.0
H249 H 0.0956 0.8982 0.77744 0.0
H250 H 0.14922 0.83684 0.71332 0.0
H251 H 0.1534 0.91218 0.69874 0.0
H252 H 0.08644 0.89859 0.72487 0.0
O253 O 0.11434 0.8764 0.57774 0.0
H254 H 0.17585 0.81604 0.60861 0.0
H255 H 0.11074 0.83019 0.54483 0.0
H256 H 0.15925 0.8359 0.76573 0.0
H257 H 0.07833 0.96626 0.64924 0.0
H258 H 0.1323 0.86673 0.79816 0.0
H259 H 0.12002 0.99254 0.67394 0.0
O260 O 0.10634 0.82485 0.67528 0.0
H261 H 0.01751 0.83916 0.57331 0.0
H262 H 0.10199 0.78445 0.60004 0.0
H263 H 0.05647 0.75821 0.58467 0.0
H264 H 0.014 0.78533 0.57048 0.0
H265 H 0.06292 0.86432 0.58966 0.0
H266 H 0.12755 0.79042 0.51525 0.0
H267 H 0.16751 0.76185 0.53387 0.0
O268 O 0.12942 0.81703 0.63486 0.0
C269 C 0.16902 0.86892 0.64492 0.0
C270 C 0.17544 0.78833 0.5717 0.0
C271 C 0.13848 0.79626 0.53553 0.0
N272 N 0.14162 0.82469 0.57889 0.0
C273 C 0.16552 0.81093 0.5879 0.0
C274 C 0.12931 0.81893 0.55222 0.0
C275 C 0.16101 0.78027 0.54592 0.0
C276 C 0.09284 0.92457 0.66065 0.0
N277 N 0.11357 0.90967 0.67456 0.0
C278 C 0.09487 0.95457 0.66021 0.0
C279 C 0.1184 0.96932 0.67402 0.0
C280 C 0.13971 0.95403 0.68783 0.0
C281 C 0.13695 0.92398 0.68782 0.0
C282 C 0.10748 0.88468 0.76354 0.0
C283 C 0.13752 0.8504 0.72731 0.0
C284 C 0.10234 0.88477 0.73379 0.0
N285 N 0.11735 0.86782 0.71612 0.0
C286 C 0.14324 0.84974 0.75696 0.0
C287 C 0.12809 0.86703 0.77514 0.0
C288 C 0.12088 0.80916 0.65918 0.0
C289 C 0.03576 0.82681 0.57923 0.0
C290 C 0.08338 0.79651 0.59456 0.0
C291 C 0.05772 0.78149 0.58565 0.0
C292 C 0.03384 0.7968 0.57773 0.0
N293 N 0.08521 0.82596 0.59545 0.0
C294 C 0.06168 0.84108 0.58838 0.0
Co295 Co 0.66734 0.61424 0.08706 0.0
Co296 Co 0.6084 0.62944 0.12458 0.0
O297 O 0.64778 0.63861 0.11341 0.0
C298 C 0.71046 0.6298 0.13408 0.0
O299 O 0.69054 0.6236 0.15284 0.0
C300 C 0.61082 0.69164 0.1078 0.0
O301 O 0.62204 0.68208 0.08427 0.0
O302 O 0.59551 0.62936 0.0832 0.0
O303 O 0.62992 0.60289 0.06514 0.0
H304 H 0.51353 0.57188 0.12204 0.0
H305 H 0.6906 0.67477 0.09575 0.0
O306 O 0.70499 0.62552 0.10739 0.0
H307 H 0.65355 0.66797 0.99546 0.0
H308 H 0.75217 0.59053 0.02828 0.0
H309 H 0.65942 0.55351 0.06628 0.0
H310 H 0.65632 0.6245 0.02467 0.0
H311 H 0.72122 0.62279 0.05409 0.0
O312 O 0.60252 0.67325 0.12686 0.0
H313 H 0.56109 0.58825 0.10385 0.0
H314 H 0.57138 0.65165 0.17019 0.0
H315 H 0.69114 0.5199 0.04336 0.0
H316 H 0.69187 0.71826 0.06603 0.0
H317 H 0.73767 0.53846 0.0236 0.0
H318 H 0.67197 0.71537 0.01583 0.0
O319 O 0.66043 0.5807 0.11298 0.0
H320 H 0.66252 0.6715 0.2119 0.0
H321 H 0.60187 0.58856 0.17355 0.0
H322 H 0.61994 0.58837 0.22394 0.0
H323 H 0.65038 0.63012 0.24349 0.0
H324 H 0.6445 0.67056 0.16145 0.0
H325 H 0.52432 0.63541 0.18966 0.0
H326 H 0.49523 0.59502 0.1657 0.0
O327 O 0.61377 0.58562 0.12195 0.0
C328 C 0.60609 0.6155 0.06253 0.0
C329 C 0.52612 0.58934 0.1328 0.0
C330 C 0.53222 0.62493 0.17082 0.0
N331 N 0.56906 0.6207 0.13609 0.0
C332 C 0.55293 0.59887 0.12244 0.0
C333 C 0.55874 0.63417 0.15958 0.0
C334 C 0.51591 0.60227 0.15736 0.0
C335 C 0.6836 0.67292 0.07341 0.0
N336 N 0.67303 0.64707 0.06206 0.0
C337 C 0.68394 0.69777 0.05681 0.0
C338 C 0.67274 0.69614 0.02866 0.0
C339 C 0.66257 0.66959 0.01714 0.0
C340 C 0.6638 0.64504 0.03392 0.0
C341 C 0.7319 0.58219 0.03669 0.0
C342 C 0.67993 0.56165 0.05846 0.0
C343 C 0.71403 0.60045 0.05097 0.0
N344 N 0.68843 0.59007 0.06178 0.0
C345 C 0.69774 0.54254 0.04529 0.0
C346 C 0.72383 0.55296 0.03419 0.0
C347 C 0.63564 0.56984 0.11985 0.0
C348 C 0.64917 0.65324 0.20367 0.0
C349 C 0.61535 0.60669 0.18176 0.0
C350 C 0.62538 0.60653 0.21039 0.0
C351 C 0.64241 0.62998 0.22136 0.0
N352 N 0.622 0.62962 0.16454 0.0
C353 C 0.63872 0.65267 0.17515 0.0
Co354 Co 0.91648 0.11 0.65886 0.0
Co355 Co 0.9008 0.14664 0.59677 0.0
O356 O 0.92031 0.11756 0.61799 0.0
C357 C 0.9794 0.12394 0.6783 0.0
O358 O 0.97018 0.13872 0.70005 0.0
C359 C 0.88428 0.09308 0.56484 0.0
O360 O 0.87655 0.08129 0.58914 0.0
O361 O 0.86288 0.13406 0.61298 0.0
O362 O 0.87213 0.1111 0.65465 0.0
H363 H 0.83947 0.23164 0.58956 0.0
H364 H 0.951 0.07201 0.62318 0.0
O365 O 0.96094 0.11017 0.66126 0.0
H366 H 0.87051 0.0096 0.65831 0.0
H367 H 0.9422 0.05883 0.75011 0.0
H368 H 0.88098 0.13077 0.70587 0.0
H369 H 0.87584 0.06075 0.6727 0.0
H370 H 0.94582 0.07046 0.6986 0.0
O371 O 0.89356 0.11932 0.56394 0.0
H372 H 0.85883 0.18911 0.61254 0.0
H373 H 0.90145 0.16827 0.53634 0.0
H374 H 0.87653 0.11977 0.75742 0.0
H375 H 0.94696 0.0207 0.60899 0.0
H376 H 0.9073 0.08356 0.77984 0.0
H377 H 0.90638 0.9891 0.62651 0.0
O378 O 0.91873 0.15179 0.66981 0.0
H379 H 0.99495 0.13201 0.54925 0.0
H380 H 0.93405 0.20339 0.59247 0.0
H381 H 0.98168 0.21912 0.57437 0.0
H382 H 0.01222 0.18344 0.55198 0.0
H383 H 0.94763 0.11692 0.56864 0.0
H384 H 0.88288 0.2115 0.51263 0.0
H385 H 0.85248 0.24362 0.53958 0.0
O386 O 0.90743 0.17371 0.6286 0.0
C387 C 0.85447 0.12138 0.63577 0.0
C388 C 0.85292 0.21781 0.57761 0.0
C389 C 0.87727 0.20629 0.53439 0.0
N390 N 0.88153 0.17637 0.57583 0.0
C391 C 0.86383 0.19354 0.59044 0.0
C392 C 0.88758 0.18195 0.54784 0.0
C393 C 0.86016 0.22446 0.54956 0.0
C394 C 0.93357 0.05831 0.63129 0.0
N395 N 0.91379 0.06933 0.64893 0.0
C396 C 0.93129 0.0293 0.62304 0.0
C397 C 0.90851 0.01159 0.63284 0.0
C398 C 0.8884 0.02304 0.65074 0.0
C399 C 0.89144 0.05208 0.65868 0.0
C400 C 0.92868 0.07465 0.74059 0.0
C401 C 0.89438 0.11495 0.71551 0.0
C402 C 0.93067 0.08133 0.71148 0.0
N403 N 0.9136 0.10122 0.69933 0.0
C404 C 0.8918 0.10884 0.74469 0.0
C405 C 0.90908 0.08852 0.75726 0.0
C406 C 0.91358 0.17399 0.65524 0.0
C407 C 0.9817 0.14781 0.55868 0.0
C408 C 0.94734 0.18761 0.58314 0.0
C409 C 0.97423 0.19672 0.57271 0.0
C410 C 0.99141 0.17667 0.56027 0.0
N411 N 0.93787 0.15926 0.58138 0.0
C412 C 0.95479 0.13943 0.56955 0.0
Co413 Co 0.35715 0.42898 0.09508 0.0
Co414 Co 0.412 0.40642 0.13728 0.0
O415 O 0.37182 0.40192 0.12301 0.0
C416 C 0.30526 0.40912 0.12973 0.0
O417 O 0.32121 0.4027 0.15232 0.0
C418 C 0.40448 0.3441 0.1186 0.0
O419 O 0.39504 0.35413 0.09402 0.0
O420 O 0.4259 0.40518 0.09691 0.0
O421 O 0.39651 0.4373 0.07964 0.0
H422 H 0.51202 0.4538 0.14522 0.0
H423 H 0.32948 0.37014 0.09905 0.0
O424 O 0.31652 0.42185 0.1083 0.0
H425 H 0.37145 0.37373 1.00357 0.0
H426 H 0.28586 0.46765 0.02278 0.0
H427 H 0.37876 0.48649 0.07548 0.0
H428 H 0.37008 0.41815 0.033 0.0
H429 H 0.30464 0.43119 0.05577 0.0
O430 O 0.41321 0.36206 0.1387 0.0
H431 H 0.46268 0.44533 0.12417 0.0
H432 H 0.44655 0.37608 0.18131 0.0
H433 H 0.36077 0.52307 0.0428 0.0
H434 H 0.32527 0.32718 0.06816 0.0
H435 H 0.31382 0.51378 0.01626 0.0
H436 H 0.34779 0.32826 0.02058 0.0
O437 O 0.36537 0.46077 0.12351 0.0
H438 H 0.35248 0.37007 0.21914 0.0
H439 H 0.424 0.44507 0.18839 0.0
H440 H 0.40631 0.44649 0.2378 0.0
H441 H 0.37035 0.40874 0.2535 0.0
H442 H 0.37052 0.36966 0.1698 0.0
H443 H 0.49593 0.38335 0.20251 0.0
H444 H 0.52867 0.42295 0.18501 0.0
O445 O 0.41101 0.45114 0.13596 0.0
C446 C 0.41805 0.42192 0.07702 0.0
C447 C 0.49779 0.43669 0.15326 0.0
C448 C 0.48879 0.39708 0.18536 0.0
N449 N 0.4517 0.41043 0.15171 0.0
C450 C 0.46984 0.4318 0.14143 0.0
C451 C 0.46095 0.39291 0.17311 0.0
C452 C 0.5072 0.41927 0.17547 0.0
C453 C 0.33714 0.37181 0.07749 0.0
N454 N 0.35008 0.39698 0.06799 0.0
C455 C 0.3353 0.34701 0.06029 0.0
C456 C 0.34797 0.34762 0.03362 0.0
C457 C 0.36118 0.3732 0.02408 0.0
C458 C 0.36082 0.39815 0.04104 0.0
C459 C 0.30623 0.47179 0.03437 0.0
C460 C 0.35841 0.48202 0.06397 0.0
C461 C 0.317 0.45127 0.05304 0.0
N462 N 0.3428 0.45654 0.06766 0.0
C463 C 0.34832 0.50294 0.04547 0.0
C464 C 0.322 0.49775 0.03061 0.0
C465 C 0.39075 0.46905 0.13302 0.0
C466 C 0.36818 0.38661 0.21257 0.0
C467 C 0.40819 0.42869 0.19497 0.0
C468 C 0.39834 0.42954 0.22303 0.0
C469 C 0.37819 0.40834 0.23183 0.0
N470 N 0.39831 0.40728 0.17624 0.0
C471 C 0.37855 0.38643 0.1847 0.0
Co472 Co 0.41772 0.13274 0.18007 0.0
Co473 Co 0.38413 0.15592 0.12012 0.0
O474 O 0.39478 0.16029 0.16045 0.0
C475 C 0.37121 0.14703 0.21854 0.0
O476 O 0.35208 0.14131 0.19758 0.0
C477 C 0.40656 0.21795 0.12805 0.0
O478 O 0.42921 0.20753 0.14094 0.0
O479 O 0.42577 0.15555 0.1109 0.0
O480 O 0.43899 0.12418 0.14445 0.0
H481 H 0.38488 0.11547 0.01939 0.0
H482 H 0.41481 0.19192 0.20311 0.0
O483 O 0.39754 0.14154 0.21584 0.0
H484 H 0.51814 0.17891 0.18981 0.0
H485 H 0.47319 0.0952 0.26493 0.0
H486 H 0.43731 0.07481 0.16561 0.0
H487 H 0.48212 0.13957 0.17807 0.0
H488 H 0.44595 0.13079 0.23844 0.0
O489 O 0.38645 0.20035 0.11745 0.0
H490 H 0.39986 0.11881 0.07094 0.0
H491 H 0.34537 0.18807 0.08269 0.0
H492 H 0.46392 0.03823 0.19157 0.0
H493 H 0.45025 0.23165 0.21578 0.0
H494 H 0.48197 0.04808 0.24154 0.0
H495 H 0.50213 0.22564 0.20893 0.0
O496 O 0.38826 0.10181 0.16945 0.0
H497 H 0.29886 0.19462 0.16879 0.0
H498 H 0.33149 0.11837 0.10514 0.0
H499 H 0.2802 0.11803 0.1178 0.0
H500 H 0.26357 0.15642 0.14976 0.0
H501 H 0.35004 0.19384 0.15601 0.0
H502 H 0.32992 0.18558 0.03165 0.0
H503 H 0.34905 0.14912 0.99991 0.0
O504 O 0.38224 0.11084 0.12253 0.0
C505 C 0.44366 0.13843 0.12164 0.0
C506 C 0.3761 0.13144 0.0332 0.0
C507 C 0.34529 0.17086 0.04004 0.0
N508 N 0.37331 0.15342 0.07972 0.0
C509 C 0.3845 0.13337 0.06232 0.0
C510 C 0.35421 0.1722 0.06889 0.0
C511 C 0.35621 0.15027 0.02218 0.0
C512 C 0.43751 0.18878 0.20065 0.0
N513 N 0.44638 0.16334 0.19007 0.0
C514 C 0.45745 0.21148 0.20764 0.0
C515 C 0.48666 0.20803 0.20371 0.0
C516 C 0.49559 0.18199 0.19299 0.0
C517 C 0.47504 0.15973 0.18627 0.0
C518 C 0.46532 0.09039 0.24319 0.0
C519 C 0.44503 0.07933 0.18742 0.0
C520 C 0.44983 0.11054 0.22808 0.0
N521 N 0.43992 0.10488 0.20053 0.0
C522 C 0.46013 0.05851 0.20199 0.0
C523 C 0.47025 0.06409 0.2301 0.0
C524 C 0.38199 0.09305 0.14384 0.0
C525 C 0.30583 0.17782 0.15479 0.0
C526 C 0.32448 0.13499 0.11928 0.0
C527 C 0.29538 0.13477 0.12626 0.0
C528 C 0.28605 0.15634 0.14415 0.0
N529 N 0.34374 0.15611 0.12983 0.0
C530 C 0.33475 0.17736 0.14734 0.0
Co531 Co 0.35543 0.85186 0.63602 0.0
Co532 Co 0.34065 0.91901 0.6572 0.0
O533 O 0.36189 0.8934 0.63314 0.0
C534 C 0.41795 0.83637 0.64449 0.0
O535 O 0.40896 0.81979 0.66548 0.0
C536 C 0.35541 0.95235 0.60304 0.0
O537 O 0.36063 0.92942 0.58786 0.0
O538 O 0.30474 0.90302 0.63805 0.0
O539 O 0.31173 0.85589 0.64354 0.0
H540 H 0.25759 0.9415 0.71895 0.0
H541 H 0.38285 0.87369 0.58227 0.0
O542 O 0.39917 0.84942 0.62912 0.0
H543 H 0.29317 0.81864 0.55051 0.0
H544 H 0.36966 0.74895 0.60805 0.0
H545 H 0.3232 0.81312 0.67539 0.0
H546 H 0.30721 0.82281 0.60184 0.0
H547 H 0.37651 0.80177 0.60407 0.0
O548 O 0.34455 0.95012 0.62785 0.0
H549 H 0.28842 0.91025 0.69197 0.0
H550 H 0.34335 0.98258 0.67068 0.0
H551 H 0.31559 0.76045 0.6801 0.0
H552 H 0.36947 0.86915 0.53016 0.0
H553 H 0.33893 0.72802 0.64626 0.0
H554 H 0.32457 0.84198 0.51428 0.0
O555 O 0.36486 0.85489 0.67755 0.0
H556 H 0.44731 0.9472 0.66212 0.0
H557 H 0.35849 0.93712 0.7175 0.0
H558 H 0.40428 0.95373 0.74207 0.0
H559 H 0.44914 0.95913 0.71431 0.0
H560 H 0.4011 0.93081 0.63831 0.0
H561 H 0.31213 0.01469 0.69634 0.0
H562 H 0.26931 0.99421 0.72118 0.0
O563 O 0.33642 0.88996 0.68855 0.0
C564 C 0.29491 0.87699 0.64001 0.0
C565 C 0.27641 0.95069 0.70844 0.0
C566 C 0.30713 0.99174 0.69583 0.0
N567 N 0.31796 0.94441 0.67984 0.0
C568 C 0.29412 0.93306 0.69322 0.0
C569 C 0.32457 0.97341 0.68107 0.0
C570 C 0.28298 0.98024 0.70967 0.0
C571 C 0.36323 0.86158 0.57536 0.0
N572 N 0.34574 0.84876 0.59513 0.0
C573 C 0.35584 0.85923 0.54597 0.0
C574 C 0.3305 0.84384 0.53694 0.0
C575 C 0.31286 0.83079 0.55724 0.0
C576 C 0.32089 0.83344 0.58634 0.0
C577 C 0.35936 0.76286 0.62291 0.0
C578 C 0.33335 0.7991 0.66057 0.0
C579 C 0.36319 0.79274 0.62077 0.0
N580 N 0.35017 0.81041 0.63942 0.0
C581 C 0.329 0.76932 0.66335 0.0
C582 C 0.34211 0.75113 0.64435 0.0
C583 C 0.35209 0.86955 0.69587 0.0
C584 C 0.42786 0.94519 0.6744 0.0
C585 C 0.37775 0.93964 0.70511 0.0
C586 C 0.40371 0.94895 0.71923 0.0
C587 C 0.42888 0.95187 0.70368 0.0
N588 N 0.37672 0.93362 0.67623 0.0
C589 C 0.40153 0.93584 0.66103 0.0
Co590 Co 0.60011 0.90943 0.1678 0.0
Co591 Co 0.62176 0.87999 0.10601 0.0
O592 O 0.62029 0.8797 0.14772 0.0
C593 C 0.64463 0.88739 0.21018 0.0
O594 O 0.65975 0.87597 0.1901 0.0
C595 C 0.60264 0.8175 0.1173 0.0
O596 O 0.58087 0.82731 0.13097 0.0
O597 O 0.57873 0.8786 0.10358 0.0
O598 O 0.57388 0.91545 0.13359 0.0
H599 H 0.59292 0.91251 1.00708 0.0
H600 H 0.60379 0.84883 0.18693 0.0
O601 O 0.62443 0.90395 0.20376 0.0
H602 H 0.5005 0.86769 0.18783 0.0
H603 H 0.55894 0.95706 0.25432 0.0
H604 H 0.57834 0.96619 0.15117 0.0
H605 H 0.53615 0.90601 0.17517 0.0
H606 H 0.58073 0.91783 0.22817 0.0
O607 O 0.62064 0.83548 0.10547 0.0
H608 H 0.59314 0.91299 0.06019 0.0
H609 H 0.65179 0.8461 0.0626 0.0
H610 H 0.55601 1.00552 0.17643 0.0
H611 H 0.56885 0.81009 0.2 0.0
H612 H 0.54618 1.00111 0.22843 0.0
H613 H 0.51695 0.81892 0.19991 0.0
O614 O 0.62805 0.93907 0.1525 0.0
H615 H 0.71774 0.84787 0.14246 0.0
H616 H 0.66887 0.91626 0.07983 0.0
H617 H 0.72215 0.91839 0.08362 0.0
H618 H 0.74693 0.88397 0.11506 0.0
H619 H 0.66449 0.84667 0.13819 0.0
H620 H 0.65214 0.8448 0.00956 0.0
H621 H 0.62248 0.87809 0.98159 0.0
O622 O 0.62328 0.92473 0.10622 0.0
C623 C 0.56364 0.89771 0.11444 0.0
C624 C 0.60596 0.89792 0.01912 0.0
C625 C 0.63916 0.85987 0.0205 0.0
N626 N 0.62258 0.87972 0.06441 0.0
C627 C 0.60622 0.89815 0.04916 0.0
C628 C 0.63884 0.86067 0.05051 0.0
C629 C 0.62255 0.87861 1.00479 0.0
C630 C 0.58127 0.85337 0.18758 0.0
N631 N 0.57229 0.88008 0.181 0.0
C632 C 0.56153 0.83119 0.19494 0.0
C633 C 0.5323 0.83627 0.19501 0.0
C634 C 0.52316 0.86348 0.18824 0.0
C635 C 0.54356 0.88523 0.18122 0.0
C636 C 0.56309 0.95913 0.23166 0.0
C637 C 0.57409 0.96391 0.17373 0.0
C638 C 0.57563 0.93706 0.21672 0.0
N639 N 0.58109 0.93962 0.18808 0.0
C640 C 0.56144 0.98635 0.18796 0.0
C641 C 0.55598 0.98391 0.21713 0.0
C642 C 0.62858 0.94472 0.1256 0.0
C643 C 0.7072 0.86298 0.12868 0.0
C644 C 0.6795 0.90136 0.09373 0.0
C645 C 0.70967 0.90259 0.09569 0.0
C646 C 0.72356 0.88325 0.11332 0.0
N647 N 0.66362 0.88138 0.10884 0.0
C648 C 0.67707 0.86236 0.12614 0.0
Co649 Co 0.66785 0.13675 0.63651 0.0
Co650 Co 0.68201 0.07662 0.67365 0.0
O651 O 0.6592 0.09683 0.64562 0.0
C652 C 0.60704 0.1587 0.64102 0.0
O653 O 0.61818 0.17891 0.65862 0.0
C654 C 0.67421 0.03672 0.62385 0.0
O655 O 0.68766 0.05624 0.60823 0.0
O656 O 0.71724 0.08513 0.65146 0.0
O657 O 0.71197 0.13195 0.64212 0.0
H658 H 0.76639 0.06531 0.74221 0.0
H659 H 0.63395 0.09669 0.59692 0.0
O660 O 0.62382 0.14052 0.63022 0.0
H661 H 0.71727 0.13328 0.54192 0.0
H662 H 0.65455 0.22763 0.58101 0.0
H663 H 0.70699 0.1834 0.66158 0.0
H664 H 0.70947 0.15206 0.59068 0.0
H665 H 0.64501 0.17632 0.59236 0.0
O666 O 0.67192 0.04048 0.65087 0.0
H667 H 0.73833 0.08909 0.70447 0.0
H668 H 0.67481 0.01971 0.70268 0.0
H669 H 0.71738 0.23476 0.65094 0.0
H670 H 0.64237 0.07555 0.54942 0.0
H671 H 0.69103 0.25717 0.61039 0.0
H672 H 0.68384 0.09434 0.52116 0.0
O673 O 0.66493 0.14704 0.67814 0.0
H674 H 0.57611 0.05342 0.68656 0.0
H675 H 0.66964 0.07873 0.73611 0.0
H676 H 0.62693 0.06837 0.76462 0.0
H677 H 0.57917 0.05614 0.74002 0.0
H678 H 0.62022 0.06075 0.65899 0.0
H679 H 0.70145 0.99603 0.74207 0.0
H680 H 0.74772 0.01856 0.76154 0.0
O681 O 0.69131 0.11241 0.6967 0.0
C682 C 0.72788 0.11005 0.64495 0.0
C683 C 0.74637 0.05507 0.73363 0.0
C684 C 0.71002 0.01605 0.73326 0.0
N685 N 0.70502 0.05571 0.7012 0.0
C686 C 0.73044 0.06834 0.71207 0.0
C687 C 0.69507 0.02954 0.71105 0.0
C688 C 0.73591 0.02884 0.74443 0.0
C689 C 0.6521 0.10497 0.58485 0.0
N690 N 0.6711 0.12568 0.59651 0.0
C691 C 0.65677 0.09291 0.55794 0.0
C692 C 0.68018 0.1033 0.54221 0.0
C693 C 0.69891 0.12516 0.55383 0.0
C694 C 0.69421 0.13591 0.58133 0.0
C695 C 0.66617 0.21812 0.59872 0.0
C696 C 0.69553 0.19304 0.64388 0.0
C697 C 0.66082 0.18912 0.60527 0.0
N698 N 0.67549 0.17697 0.62756 0.0
C699 C 0.70146 0.22211 0.63796 0.0
C700 C 0.68665 0.23467 0.61522 0.0
C701 C 0.67909 0.13613 0.69894 0.0
C702 C 0.59664 0.05811 0.6977 0.0
C703 C 0.64931 0.07251 0.72515 0.0
C704 C 0.62496 0.06703 0.74147 0.0
C705 C 0.59837 0.05997 0.72764 0.0
N706 N 0.64766 0.06951 0.69588 0.0
C707 C 0.62172 0.06253 0.68213 0.0
Co708 Co 0.45391 0.85994 0.83893 0.0
Co709 Co 0.39522 0.88198 0.87356 0.0
O710 O 0.43584 0.8863 0.86436 0.0
C711 C 0.49133 0.86297 0.8911 0.0
O712 O 0.46773 0.85758 0.90537 0.0
C713 C 0.37817 0.94306 0.86101 0.0
O714 O 0.35613 0.9316 0.84562 0.0
O715 O 0.384 0.88159 0.83203 0.0
O716 O 0.41801 0.85451 0.81445 0.0
H717 H 0.2928 0.84092 0.86371 0.0
H718 H 0.48214 0.918 0.8513 0.0
O719 O 0.49031 0.86473 0.86366 0.0
H720 H 0.46387 0.914 0.74621 0.0
H721 H 0.53082 0.82835 0.77327 0.0
H722 H 0.43573 0.80299 0.81317 0.0
H723 H 0.4511 0.87215 0.77608 0.0
H724 H 0.51004 0.85996 0.80975 0.0
O725 O 0.39538 0.92638 0.8741 0.0
H726 H 0.34448 0.84545 0.85224 0.0
H727 H 0.35913 0.91207 0.9149 0.0
H728 H 0.45625 0.77011 0.77853 0.0
H729 H 0.49471 0.96074 0.822 0.0
H730 H 0.50404 0.78295 0.75803 0.0
H731 H 0.48598 0.95874 0.76917 0.0
O732 O 0.44094 0.82702 0.86242 0.0
H733 H 0.4527 0.91903 0.96073 0.0
H734 H 0.38085 0.84452 0.92351 0.0
H735 H 0.39837 0.84287 0.97412 0.0
H736 H 0.43496 0.88019 0.99281 0.0
H737 H 0.43502 0.9196 0.91027 0.0
H738 H 0.30761 0.90833 0.92706 0.0
H739 H 0.27408 0.87252 0.90137 0.0
O740 O 0.39548 0.83724 0.87227 0.0
C741 C 0.39392 0.86629 0.81215 0.0
C742 C 0.3072 0.85657 0.87508 0.0
C743 C 0.31551 0.89442 0.91063 0.0
N744 N 0.35475 0.87889 0.883 0.0
C745 C 0.33647 0.8592 0.86871 0.0
C746 C 0.34463 0.89644 0.90367 0.0
C747 C 0.29671 0.87432 0.89621 0.0
C748 C 0.47835 0.91696 0.82824 0.0
N749 N 0.4661 0.8925 0.81544 0.0
C750 C 0.48557 0.94119 0.81182 0.0
C751 C 0.48048 0.94014 0.78212 0.0
C752 C 0.46807 0.91509 0.76923 0.0
C753 C 0.46085 0.89143 0.78631 0.0
C754 C 0.51024 0.8224 0.78251 0.0
C755 C 0.45692 0.80838 0.80508 0.0
C756 C 0.49849 0.84016 0.80303 0.0
N757 N 0.47191 0.83333 0.81359 0.0
C758 C 0.46832 0.78974 0.78525 0.0
C759 C 0.49511 0.79695 0.77378 0.0
C760 C 0.41551 0.8192 0.86969 0.0
C761 C 0.4368 0.90269 0.9528 0.0
C762 C 0.39657 0.86089 0.93161 0.0
C763 C 0.40639 0.85988 0.96028 0.0
C764 C 0.42679 0.88086 0.97081 0.0
N765 N 0.40682 0.88218 0.91398 0.0
C766 C 0.42652 0.90302 0.92429 0.0
Co767 Co 0.64547 0.89677 0.42664 0.0
Co768 Co 0.60846 0.90082 0.3627 0.0
O769 O 0.64301 0.89137 0.38484 0.0
C770 C 0.7055 0.91791 0.4074 0.0
O771 O 0.69316 0.9332 0.38741 0.0
C772 C 0.63565 0.85547 0.32751 0.0
O773 O 0.65774 0.85294 0.34549 0.0
O774 O 0.58438 0.87509 0.38737 0.0
O775 O 0.60142 0.89091 0.43024 0.0
H776 H 0.50479 0.92761 0.35109 0.0
H777 H 0.68216 0.85422 0.40008 0.0
O778 O 0.68964 0.90302 0.4246 0.0
H779 H 0.62211 0.79913 0.46836 0.0
H780 H 0.69092 0.88358 0.52473 0.0
H781 H 0.61271 0.92827 0.46994 0.0
H782 H 0.6174 0.8513 0.46273 0.0
H783 H 0.68638 0.8779 0.47207 0.0
O784 O 0.61315 0.86768 0.33544 0.0
H785 H 0.55029 0.91992 0.378 0.0
H786 H 0.59113 0.90103 0.30028 0.0
H787 H 0.61629 0.9342 0.5228 0.0
H788 H 0.6877 0.80207 0.4051 0.0
H789 H 0.65549 0.91122 0.55038 0.0
H790 H 0.65752 0.77417 0.43946 0.0
O791 O 0.63991 0.93855 0.42158 0.0
H792 H 0.69371 0.93076 0.30238 0.0
H793 H 0.59943 0.95799 0.33652 0.0
H794 H 0.62298 0.98638 0.29872 0.0
H795 H 0.66985 0.97178 0.28017 0.0
H796 H 0.66939 0.90303 0.33984 0.0
H797 H 0.54582 0.90711 0.27263 0.0
H798 H 0.50238 0.9209 0.29788 0.0
O799 O 0.60292 0.93424 0.38898 0.0
C800 C 0.58051 0.88046 0.41381 0.0
C801 C 0.5236 0.92148 0.33979 0.0
C802 C 0.5466 0.90996 0.29577 0.0
N803 N 0.57328 0.90912 0.3409 0.0
C804 C 0.54947 0.91706 0.35496 0.0
C805 C 0.5721 0.90599 0.31161 0.0
C806 C 0.5222 0.91772 0.31 0.0
C807 C 0.66899 0.84222 0.41508 0.0
N808 N 0.64949 0.85577 0.43106 0.0
C809 C 0.67219 0.8127 0.41782 0.0
C810 C 0.65524 0.79705 0.43708 0.0
C811 C 0.63535 0.81103 0.45328 0.0
C812 C 0.6327 0.84056 0.44991 0.0
C813 C 0.67373 0.8935 0.51286 0.0
C814 C 0.62981 0.91837 0.48188 0.0
C815 C 0.67107 0.89045 0.48303 0.0
N816 N 0.64911 0.90251 0.46796 0.0
C817 C 0.63178 0.92186 0.51177 0.0
C818 C 0.65382 0.90916 0.52727 0.0
C819 C 0.61776 0.9483 0.40865 0.0
C820 C 0.67273 0.93656 0.30935 0.0
C821 C 0.61982 0.95148 0.32874 0.0
C822 C 0.63316 0.96783 0.3074 0.0
C823 C 0.65949 0.95981 0.29717 0.0
N824 N 0.63147 0.92684 0.33848 0.0
C825 C 0.6585 0.92051 0.33036 0.0
Co826 Co 0.62383 0.16301 0.86254 0.0
Co827 Co 0.69324 0.14873 0.87697 0.0
O828 O 0.65256 0.14149 0.88232 0.0
C829 C 0.58476 0.17284 0.91059 0.0
O830 O 0.59073 0.20055 0.90757 0.0
C831 C 0.70538 0.08646 0.86206 0.0
O832 O 0.71854 0.09583 0.83908 0.0
O833 O 0.68692 0.14468 0.8349 0.0
O834 O 0.64833 0.17074 0.82826 0.0
H835 H 0.78124 0.19339 0.83101 0.0
H836 H 0.61401 0.10203 0.88064 0.0
O837 O 0.59821 0.15484 0.89592 0.0
H838 H 0.58826 0.10319 0.77698 0.0
H839 H 0.52217 0.18401 0.83677 0.0
H840 H 0.62398 0.21865 0.83147 0.0
H841 H 0.60134 0.1482 0.80332 0.0
H842 H 0.56027 0.15474 0.85495 0.0
O843 O 0.6959 0.10475 0.87988 0.0
H844 H 0.72897 0.18578 0.83893 0.0
H845 H 0.7456 0.12376 0.90278 0.0
H846 H 0.58605 0.24841 0.8112 0.0
H847 H 0.60284 0.0561 0.85458 0.0
H848 H 0.53445 0.23139 0.81394 0.0
H849 H 0.59017 0.05668 0.8021 0.0
O850 O 0.64128 0.19846 0.88124 0.0
H851 H 0.68208 0.11939 0.97989 0.0
H852 H 0.72499 0.19214 0.91528 0.0
H853 H 0.73258 0.19819 0.96778 0.0
H854 H 0.71109 0.16153 1.00051 0.0
H855 H 0.67413 0.11468 0.92739 0.0
H856 H 0.79809 0.13055 0.89551 0.0
H857 H 0.81618 0.16564 0.85944 0.0
O858 O 0.68851 0.19285 0.87394 0.0
C859 C 0.67006 0.15849 0.81873 0.0
C860 C 0.77363 0.1781 0.84685 0.0
C861 C 0.78309 0.1428 0.88303 0.0
N862 N 0.73437 0.1545 0.87141 0.0
C863 C 0.74409 0.17376 0.85146 0.0
C864 C 0.75339 0.13903 0.88704 0.0
C865 C 0.79322 0.1625 0.86279 0.0
C866 C 0.60846 0.10235 0.8579 0.0
N867 N 0.60849 0.12783 0.84352 0.0
C868 C 0.6023 0.07626 0.84323 0.0
C869 C 0.59531 0.07652 0.81385 0.0
C870 C 0.59418 0.10265 0.79965 0.0
C871 C 0.60122 0.12816 0.81481 0.0
C872 C 0.54423 0.19183 0.83478 0.0
C873 C 0.6016 0.21089 0.83216 0.0
C874 C 0.56606 0.17527 0.8454 0.0
N875 N 0.59429 0.18503 0.84441 0.0
C876 C 0.58023 0.22788 0.82077 0.0
C877 C 0.55129 0.21829 0.82228 0.0
C878 C 0.66714 0.20891 0.87872 0.0
C879 C 0.69137 0.13556 0.96591 0.0
C880 C 0.7153 0.17628 0.92939 0.0
C881 C 0.71978 0.17976 0.9591 0.0
C882 C 0.70773 0.1592 0.97744 0.0
N883 N 0.69924 0.15301 0.91828 0.0
C884 C 0.68714 0.1329 0.93612 0.0
Co885 Co 0.34232 0.1183 0.4266 0.0
Co886 Co 0.3701 0.10205 0.36264 0.0
O887 O 0.34042 0.11906 0.38483 0.0
C888 C 0.2809 0.09832 0.4092 0.0
O889 O 0.2923 0.08022 0.39164 0.0
C890 C 0.35782 0.15606 0.33237 0.0
O891 O 0.36217 0.17152 0.35602 0.0
O892 O 0.3994 0.12939 0.38123 0.0
O893 O 0.38737 0.12242 0.42714 0.0
H894 H 0.46554 0.05843 0.3476 0.0
H895 H 0.30629 0.16046 0.39705 0.0
O896 O 0.29772 0.11442 0.42592 0.0
H897 H 0.37503 0.21814 0.46038 0.0
H898 H 0.30438 0.13627 0.52494 0.0
H899 H 0.37815 0.08902 0.47012 0.0
H900 H 0.37597 0.1652 0.45872 0.0
H901 H 0.3074 0.14304 0.47251 0.0
O902 O 0.36215 0.1294 0.33172 0.0
H903 H 0.42897 0.08174 0.3756 0.0
H904 H 0.37551 0.08829 0.30031 0.0
H905 H 0.37554 0.08118 0.52234 0.0
H906 H 0.30443 0.21336 0.39816 0.0
H907 H 0.33826 0.10467 0.5501 0.0
H908 H 0.339 0.24256 0.42998 0.0
O909 O 0.34408 0.07589 0.42532 0.0
H910 H 0.27545 0.07269 0.3117 0.0
H911 H 0.36689 0.03876 0.35217 0.0
H912 H 0.33189 1.00423 0.32837 0.0
H913 H 0.28542 0.0209 0.3081 0.0
H914 H 0.31156 0.10681 0.33537 0.0
H915 H 0.41145 0.06488 0.27156 0.0
H916 H 0.45649 0.04907 0.29536 0.0
O917 O 0.37852 0.0737 0.39304 0.0
C918 C 0.40634 0.12903 0.408 0.0
C919 C 0.44585 0.06497 0.33705 0.0
C920 C 0.41554 0.06865 0.29436 0.0
N921 N 0.39993 0.08617 0.33974 0.0
C922 C 0.42505 0.07826 0.35281 0.0
C923 C 0.39532 0.08204 0.31076 0.0
C924 C 0.44083 0.05984 0.30771 0.0
C925 C 0.32126 0.17303 0.41108 0.0
N926 N 0.34111 0.15981 0.42789 0.0
C927 C 0.32017 0.20297 0.41156 0.0
C928 C 0.33961 0.21934 0.42939 0.0
C929 C 0.35984 0.20567 0.44644 0.0
C930 C 0.36032 0.1757 0.44536 0.0
C931 C 0.32064 0.12582 0.51307 0.0
C932 C 0.36207 0.09957 0.48206 0.0
C933 C 0.32256 0.12971 0.48342 0.0
N934 N 0.34296 0.11648 0.46828 0.0
C935 C 0.36057 0.09488 0.51162 0.0
C936 C 0.3396 0.10802 0.52717 0.0
C937 C 0.36473 0.06338 0.4141 0.0
C938 C 0.29549 0.06509 0.3205 0.0
C939 C 0.34678 0.04631 0.34356 0.0
C940 C 0.32695 0.02657 0.33006 0.0
C941 C 0.30106 0.03602 0.31856 0.0
N942 N 0.34132 0.07484 0.34516 0.0
C943 C 0.31606 0.08433 0.33384 0.0
Co944 Co 0.14751 0.41594 0.0797 0.0
Co945 Co 0.08 0.39751 0.103 0.0
O946 O 0.12213 0.39654 0.10728 0.0
C947 C 0.18607 0.37298 0.1076 0.0
O948 O 0.16757 0.3639 0.12676 0.0
C949 C 0.09222 0.41766 0.16474 0.0
O950 O 0.10898 0.43827 0.15404 0.0
O951 O 0.0825 0.44007 0.10109 0.0
O952 O 0.11933 0.44589 0.07163 0.0
H953 H 0.9804 0.38483 0.05378 0.0
H954 H 0.16032 0.40993 0.14378 0.0
O955 O 0.17786 0.38714 0.08576 0.0
H956 H 0.1955 0.50812 0.12102 0.0
H957 H 0.24254 0.45527 0.04309 0.0
H958 H 0.13798 0.44082 0.02158 0.0
H959 H 0.16805 0.47822 0.08434 0.0
H960 H 0.21097 0.43042 0.07726 0.0
O961 O 0.07802 0.39993 0.14738 0.0
H962 H 0.03197 0.37824 0.05859 0.0
H963 H 0.03694 0.42662 0.13676 0.0
H964 H 0.16889 0.46635 0.98682 0.0
H965 H 0.18776 0.43869 0.18037 0.0
H966 H 0.22159 0.47432 0.99775 0.0
H967 H 0.20664 0.48791 0.16889 0.0
O968 O 0.12893 0.39132 0.04832 0.0
H969 H 0.09285 0.30293 0.15241 0.0
H970 H 0.06297 0.34701 0.06152 0.0
H971 H 0.05833 0.29502 0.066 0.0
H972 H 0.07296 0.27222 0.11177 0.0
H973 H 0.09717 0.35508 0.14734 0.0
H974 H 0.9853 0.43449 0.132 0.0
H975 H 0.9564 0.41346 0.09038 0.0
O976 O 0.08233 0.39585 0.05848 0.0
C977 C 0.09714 0.45493 0.08341 0.0
C978 C 0.9926 0.39347 0.07245 0.0
C979 C 0.99535 0.42136 0.11625 0.0
N980 N 0.03788 0.39968 0.09941 0.0
C981 C 0.02211 0.38908 0.07582 0.0
C982 C 0.02471 0.4162 0.11913 0.0
C983 C 0.97917 0.40968 0.09286 0.0
C984 C 0.16918 0.43066 0.1378 0.0
N985 N 0.16508 0.44087 0.11057 0.0
C986 C 0.18417 0.4473 0.1591 0.0
C987 C 0.19439 0.47506 0.15277 0.0
C988 C 0.18822 0.48631 0.12581 0.0
C989 C 0.17291 0.46906 0.10508 0.0
C990 C 0.21971 0.45205 0.03798 0.0
C991 C 0.16091 0.44391 0.02637 0.0
C992 C 0.20168 0.43769 0.05723 0.0
N993 N 0.17256 0.43425 0.05161 0.0
C994 C 0.17832 0.45836 1.00655 0.0
C995 C 0.20789 0.46267 0.01259 0.0
C996 C 0.10223 0.3907 0.04053 0.0
C997 C 0.08539 0.31263 0.13268 0.0
C998 C 0.06817 0.33818 0.08211 0.0
C999 C 0.06604 0.30822 0.08426 0.0
C1000 C 0.07438 0.29542 0.10986 0.0
N1001 N 0.0775 0.35528 0.1051 0.0
C1002 C 0.08719 0.34252 0.12976 0.0
Co1003 Co 0.16595 0.59635 0.85647 0.0
Co1004 Co 0.15584 0.66447 0.87901 0.0
O1005 O 0.14772 0.62307 0.88092 0.0
C1006 C 0.11361 0.56305 0.83447 0.0
O1007 O 0.11718 0.57529 0.80944 0.0
C1008 C 0.1654 0.67701 0.94358 0.0
O1009 O 0.18778 0.69433 0.9378 0.0
O1010 O 0.19803 0.6592 0.8851 0.0
O1011 O 0.20229 0.62077 0.85652 0.0
H1012 H 0.20961 0.75582 0.85014 0.0
H1013 H 0.13944 0.57546 0.91015 0.0
O1014 O 0.1297 0.57106 0.85613 0.0
H1015 H 0.24158 0.5514 0.91895 0.0
H1016 H 0.19132 0.49889 0.82042 0.0
H1017 H 0.20099 0.60336 0.80495 0.0
H1018 H 0.22317 0.57534 0.87558 0.0
H1019 H 0.1685 0.53217 0.8531 0.0
O1020 O 0.15051 0.66444 0.92282 0.0
H1021 H 0.19882 0.70328 0.85079 0.0
H1022 H 0.1298 0.71433 0.90702 0.0
H1023 H 0.2237 0.57082 0.77165 0.0
H1024 H 0.1569 0.55121 0.95378 0.0
H1025 H 0.21907 0.51839 0.77913 0.0
H1026 H 0.20833 0.53908 0.95841 0.0
O1027 O 0.15194 0.61684 0.82278 0.0
H1028 H 0.05049 0.64142 0.89456 0.0
H1029 H 0.12092 0.69856 0.83823 0.0
H1030 H 0.06878 0.70198 0.82756 0.0
H1031 H 0.03314 0.67324 0.85573 0.0
H1032 H 0.10265 0.63936 0.90509 0.0
H1033 H 0.13982 0.76701 0.90703 0.0
H1034 H 0.17997 0.78805 0.87842 0.0
O1035 O 0.16067 0.66339 0.83461 0.0
C1036 C 0.21317 0.64235 0.87078 0.0
C1037 C 0.19204 0.74692 0.86267 0.0
C1038 C 0.15287 0.7532 0.89461 0.0
N1039 N 0.16369 0.70583 0.87886 0.0
C1040 C 0.18583 0.71721 0.8631 0.0
C1041 C 0.1473 0.72339 0.89452 0.0
C1042 C 0.1754 0.76498 0.87855 0.0
C1043 C 0.1618 0.57004 0.9119 0.0
N1044 N 0.1802 0.57666 0.89025 0.0
C1045 C 0.17158 0.55641 0.93671 0.0
C1046 C 0.20046 0.54967 0.93932 0.0
C1047 C 0.21913 0.55657 0.91719 0.0
C1048 C 0.20857 0.57017 0.89269 0.0
C1049 C 0.19344 0.52174 0.8168 0.0
C1050 C 0.19876 0.58044 0.80846 0.0
C1051 C 0.18062 0.54069 0.83529 0.0
N1052 N 0.18358 0.56968 0.83107 0.0
C1053 C 0.21169 0.56214 0.78949 0.0
C1054 C 0.20903 0.53261 0.79375 0.0
C1055 C 0.1556 0.64298 0.81578 0.0
C1056 C 0.06572 0.65441 0.88236 0.0
C1057 C 0.10552 0.68627 0.85086 0.0
C1058 C 0.07603 0.68825 0.84467 0.0
C1059 C 0.05604 0.67211 0.8605 0.0
N1060 N 0.11483 0.66899 0.87246 0.0
C1061 C 0.09534 0.6533 0.88823 0.0
Co1062 Co 0.94592 0.6681 0.39137 0.0
Co1063 Co 0.88354 0.63061 0.40962 0.0
O1064 O 0.92485 0.63953 0.41377 0.0
C1065 C 0.98038 0.61677 0.38462 0.0
O1066 O 0.95753 0.60232 0.37344 0.0
C1067 C 0.8657 0.6375 0.4721 0.0
O1068 O 0.84403 0.65218 0.46261 0.0
O1069 O 0.87514 0.67245 0.41253 0.0
O1070 O 0.9132 0.69323 0.39061 0.0
H1071 H 0.78281 0.64144 0.36987 0.0
H1072 H 0.97211 0.64653 0.44564 0.0
O1073 O 0.97948 0.64318 0.39173 0.0
H1074 H 0.97172 0.75172 0.45838 0.0
H1075 H 0.03153 0.73509 0.37224 0.0
H1076 H 0.93118 0.70585 0.34252 0.0
H1077 H 0.95075 0.72837 0.41432 0.0
H1078 H 1.00662 0.69248 0.3935 0.0
O1079 O 0.88302 0.62739 0.45391 0.0
H1080 H 0.83531 0.65333 0.37519 0.0
H1081 H 0.84351 0.58701 0.43644 0.0
H1082 H 0.95562 0.7476 0.31968 0.0
H1083 H 0.99243 0.66904 0.49065 0.0
H1084 H 1.00571 0.76327 0.33545 0.0
H1085 H 0.99245 0.7221 0.49723 0.0
O1086 O 0.93031 0.6502 0.3546 0.0
H1087 H 0.93346 0.54151 0.43799 0.0
H1088 H 0.86547 0.58311 0.36845 0.0
H1089 H 0.8796 0.53346 0.36119 0.0
H1090 H 0.91344 0.51205 0.39643 0.0
H1091 H 0.92004 0.59176 0.44347 0.0
H1092 H 0.79111 0.57438 0.43186 0.0
H1093 H 0.76042 0.60171 0.39836 0.0
O1094 O 0.88517 0.63384 0.36539 0.0
C1095 C 0.88801 0.69378 0.40027 0.0
C1096 C 0.79596 0.62939 0.38455 0.0
C1097 C 0.80061 0.59175 0.41935 0.0
N1098 N 0.84236 0.6209 0.40612 0.0
C1099 C 0.82566 0.63603 0.38764 0.0
C1100 C 0.83024 0.599 0.42187 0.0
C1101 C 0.7834 0.60709 0.40054 0.0
C1102 C 0.97183 0.66959 0.44843 0.0
N1103 N 0.96049 0.68612 0.42722 0.0
C1104 C 0.98337 0.68222 0.47398 0.0
C1105 C 0.98333 0.71197 0.47768 0.0
C1106 C 0.97152 0.72861 0.45603 0.0
C1107 C 0.95975 0.71523 0.43102 0.0
C1108 C 1.00973 0.72841 0.36514 0.0
C1109 C 0.95342 0.71169 0.34858 0.0
C1110 C 0.99561 0.70425 0.37699 0.0
N1111 N 0.96746 0.69681 0.36944 0.0
C1112 C 0.96706 0.73556 0.33576 0.0
C1113 C 0.9952 0.74428 0.34457 0.0
C1114 C 0.90491 0.64017 0.34706 0.0
C1115 C 0.9185 0.55047 0.42263 0.0
C1116 C 0.8805 0.57415 0.38365 0.0
C1117 C 0.88825 0.54589 0.37958 0.0
C1118 C 0.9073 0.53396 0.39929 0.0
N1119 N 0.89188 0.59034 0.40637 0.0
C1120 C 0.91063 0.57885 0.42576 0.0
Co1121 Co 0.90053 0.44033 0.85571 0.0
Co1122 Co 0.90623 0.37354 0.88483 0.0
O1123 O 0.91391 0.41524 0.88657 0.0
C1124 C 0.95535 0.46838 0.8825 0.0
O1125 O 0.96175 0.44464 0.89558 0.0
C1126 C 0.88824 0.38881 0.94492 0.0
O1127 O 0.87088 0.40634 0.9321 0.0
O1128 O 0.86458 0.37953 0.88067 0.0
O1129 O 0.86487 0.41445 0.84786 0.0
H1130 H 0.85756 0.28189 0.84484 0.0
H1131 H 0.90974 0.45899 0.91727 0.0
O1132 O 0.93504 0.46805 0.86331 0.0
H1133 H 0.81106 0.48432 0.88951 0.0
H1134 H 0.89455 0.53383 0.80212 0.0
H1135 H 0.87046 0.42944 0.7988 0.0
H1136 H 0.84289 0.46537 0.85353 0.0
H1137 H 0.90441 0.50405 0.84449 0.0
O1138 O 0.90369 0.3732 0.92926 0.0
H1139 H 0.86969 0.33416 0.8466 0.0
H1140 H 0.92327 0.3244 0.92125 0.0
H1141 H 0.85831 0.45881 0.75708 0.0
H1142 H 0.87894 0.47852 0.95374 0.0
H1143 H 0.87075 0.51141 0.75833 0.0
H1144 H 0.82873 0.49075 0.94006 0.0
O1145 O 0.92212 0.41836 0.82772 0.0
H1146 H 1.0038 0.38486 0.93462 0.0
H1147 H 0.94703 0.33732 0.85431 0.0
H1148 H 0.9974 0.32448 0.86402 0.0
H1149 H 0.02582 0.34798 0.90492 0.0
H1150 H 0.95324 0.39643 0.92464 0.0
H1151 H 0.9115 0.27205 0.92046 0.0
H1152 H 0.87852 0.25045 0.88197 0.0
O1153 O 0.90852 0.37339 0.8403 0.0
C1154 C 0.85179 0.39467 0.86208 0.0
C1155 C 0.87207 0.29103 0.86164 0.0
C1156 C 0.90229 0.28551 0.90411 0.0
N1157 N 0.89744 0.33229 0.88379 0.0
C1158 C 0.87912 0.3206 0.86267 0.0
C1159 C 0.90883 0.31519 0.90448 0.0
C1160 C 0.8838 0.2734 0.88251 0.0
C1161 C 0.88857 0.46539 0.91074 0.0
N1162 N 0.87845 0.46127 0.88303 0.0
C1163 C 0.87098 0.47613 0.93167 0.0
C1164 C 0.84287 0.4829 0.92405 0.0
C1165 C 0.8329 0.4793 0.89566 0.0
C1166 C 0.85114 0.46862 0.87532 0.0
C1167 C 0.88882 0.51096 0.80149 0.0
C1168 C 0.87526 0.45238 0.80008 0.0
C1169 C 0.89469 0.49386 0.8253 0.0
N1170 N 0.8884 0.46479 0.82425 0.0
C1171 C 0.8685 0.4689 0.77616 0.0
C1172 C 0.87552 0.49838 0.77685 0.0
C1173 C 0.91627 0.39199 0.82111 0.0
C1174 C 0.99152 0.37434 0.91693 0.0
C1175 C 0.95952 0.34799 0.87174 0.0
C1176 C 0.9879 0.34042 0.87732 0.0
C1177 C 1.00388 0.35361 0.90021 0.0
N1178 N 0.94723 0.3676 0.8889 0.0
C1179 C 0.96297 0.38099 0.911 0.0
Co1180 Co 0.09049 0.36116 0.38449 0.0
Co1181 Co 0.10588 0.42517 0.35283 0.0
O1182 O 0.10852 0.38328 0.35349 0.0
C1183 C 0.13062 0.31804 0.36112 0.0
O1184 O 0.13671 0.33145 0.3372 0.0
C1185 C 0.0862 0.40938 0.29112 0.0
O1186 O 0.06542 0.39294 0.30192 0.0
O1187 O 0.0631 0.42012 0.35303 0.0
O1188 O 0.06046 0.38965 0.38956 0.0
H1189 H 0.06835 0.51911 0.38495 0.0
H1190 H 0.092 0.34483 0.3211 0.0
O1191 O 0.11974 0.33104 0.38208 0.0
H1192 H 0.99756 0.30659 0.35248 0.0
H1193 H 0.0542 0.27153 0.43483 0.0
H1194 H 0.06778 0.37714 0.44142 0.0
H1195 H 0.02844 0.33833 0.38456 0.0
H1196 H 0.07695 0.29875 0.39594 0.0
O1197 O 0.10419 0.4236 0.30832 0.0
H1198 H 0.07502 0.46695 0.38731 0.0
H1199 H 0.12876 0.47211 0.31503 0.0
H1200 H 0.04507 0.35063 0.48111 0.0
H1201 H 0.06246 0.31291 0.2889 0.0
H1202 H 0.0376 0.29751 0.47787 0.0
H1203 H 0.01565 0.2921 0.30484 0.0
O1204 O 0.1165 0.3829 0.41244 0.0
H1205 H 0.20419 0.40344 0.31905 0.0
H1206 H 0.15041 0.46191 0.38576 0.0
H1207 H 0.20371 0.46707 0.38647 0.0
H1208 H 0.23092 0.43794 0.35273 0.0
H1209 H 0.1509 0.39845 0.31958 0.0
H1210 H 0.12116 0.52395 0.31081 0.0
H1211 H 0.09134 0.54791 0.34631 0.0
O1212 O 0.10799 0.42739 0.39766 0.0
C1213 C 0.04907 0.40721 0.37254 0.0
C1214 C 0.0816 0.50895 0.36949 0.0
C1215 C 0.11119 0.51165 0.32785 0.0
N1216 N 0.10246 0.46651 0.35148 0.0
C1217 C 0.08568 0.47946 0.37087 0.0
C1218 C 0.11532 0.48225 0.33027 0.0
C1219 C 0.09443 0.52509 0.34776 0.0
C1220 C 0.07241 0.33515 0.32913 0.0
N1221 N 0.06411 0.34042 0.35656 0.0
C1222 C 0.05519 0.31765 0.31023 0.0
C1223 C 0.0286 0.30641 0.31905 0.0
C1224 C 0.01872 0.3143 0.34581 0.0
C1225 C 0.03659 0.332 0.36407 0.0
C1226 C 0.05744 0.29465 0.43676 0.0
C1227 C 0.0651 0.35397 0.43995 0.0
C1228 C 0.0706 0.31021 0.4148 0.0
N1229 N 0.07382 0.33958 0.41625 0.0
C1230 C 0.05214 0.33908 0.46253 0.0
C1231 C 0.04808 0.30923 0.46076 0.0
C1232 C 0.11541 0.40974 0.41757 0.0
C1233 C 0.19256 0.41637 0.33376 0.0
C1234 C 0.16214 0.44901 0.37116 0.0
C1235 C 0.19229 0.45213 0.37157 0.0
C1236 C 0.20755 0.43572 0.35267 0.0
N1237 N 0.14763 0.42995 0.35258 0.0
C1238 C 0.16241 0.4137 0.33408 0.0
Co1239 Co 0.85271 0.59024 0.17734 0.0
Co1240 Co 0.89126 0.65094 0.16051 0.0
O1241 O 0.88234 0.61023 0.15522 0.0
C1242 C 0.8997 0.54959 0.17377 0.0
O1243 O 0.91824 0.56896 0.18548 0.0
C1244 C 0.88588 0.6692 0.0978 0.0
O1245 O 0.86869 0.68909 0.10582 0.0
O1246 O 0.84933 0.65796 0.15342 0.0
O1247 O 0.83167 0.62574 0.18393 0.0
H1248 H 0.8762 0.74917 0.20074 0.0
H1249 H 0.86698 0.57259 0.11835 0.0
O1250 O 0.87294 0.55416 0.17098 0.0
H1251 H 0.76139 0.58064 0.11466 0.0
H1252 H 0.77705 0.51146 0.19277 0.0
H1253 H 0.82285 0.60216 0.23152 0.0
H1254 H 0.78972 0.59123 0.15963 0.0
H1255 H 0.81995 0.53361 0.17035 0.0
O1256 O 0.89704 0.65298 0.1169 0.0
H1257 H 0.86613 0.69676 0.1943 0.0
H1258 H 0.93468 0.69302 0.13625 0.0
H1259 H 0.78238 0.57849 0.25699 0.0
H1260 H 0.83953 0.56099 0.07332 0.0
H1261 H 0.75875 0.53291 0.23731 0.0
H1262 H 0.78624 0.56503 0.07111 0.0
O1263 O 0.87578 0.59999 0.21318 0.0
H1264 H 0.98218 0.60124 0.14118 0.0
H1265 H 0.93734 0.67146 0.20325 0.0
H1266 H 0.98789 0.65986 0.21327 0.0
H1267 H 0.01059 0.62439 0.18227 0.0
H1268 H 0.93187 0.61391 0.13163 0.0
H1269 H 0.94545 0.74539 0.14187 0.0
H1270 H 0.91611 0.77378 0.17438 0.0
O1271 O 0.88637 0.64712 0.20464 0.0
C1272 C 0.82839 0.64682 0.16737 0.0
C1273 C 0.88915 0.73703 0.18654 0.0
C1274 C 0.92801 0.73492 0.15347 0.0
N1275 N 0.89984 0.69198 0.165 0.0
C1276 C 0.88356 0.70739 0.18286 0.0
C1277 C 0.92179 0.70532 0.15033 0.0
C1278 C 0.91154 0.75083 0.17173 0.0
C1279 C 0.84384 0.57413 0.11778 0.0
N1280 N 0.83005 0.58225 0.14182 0.0
C1281 C 0.82836 0.56771 0.09208 0.0
C1282 C 0.79851 0.57 0.09088 0.0
C1283 C 0.78457 0.57872 0.11532 0.0
C1284 C 0.80077 0.58483 0.14071 0.0
C1285 C 0.78788 0.53048 0.20238 0.0
C1286 C 0.81366 0.58163 0.22366 0.0
C1287 C 0.812 0.5434 0.18951 0.0
N1288 N 0.82384 0.56927 0.19949 0.0
C1289 C 0.7905 0.56848 0.238 0.0
C1290 C 0.77731 0.54289 0.22701 0.0
C1291 C 0.88383 0.62547 0.22201 0.0
C1292 C 0.97263 0.61692 0.15473 0.0
C1293 C 0.94715 0.6562 0.1895 0.0
C1294 C 0.97578 0.64971 0.19527 0.0
C1295 C 0.98852 0.62983 0.17781 0.0
N1296 N 0.9317 0.64345 0.16683 0.0
C1297 C 0.94415 0.62419 0.14941 0.0
Co1298 Co 0.92215 0.33039 0.60132 0.0
Co1299 Co 0.88478 0.38137 0.63396 0.0
O1300 O 0.89915 0.34301 0.6333 0.0
C1301 C 0.89068 0.27943 0.62601 0.0
O1302 O 0.86854 0.29423 0.63268 0.0
C1303 C 0.89834 0.36538 0.69745 0.0
O1304 O 0.90216 0.33895 0.6893 0.0
O1305 O 0.92547 0.39754 0.63133 0.0
O1306 O 0.93666 0.37087 0.59367 0.0
H1307 H 0.86581 0.47725 0.59143 0.0
H1308 H 0.92826 0.30753 0.66026 0.0
O1309 O 0.90936 0.28946 0.60869 0.0
H1310 H 0.02532 0.34563 0.63748 0.0
H1311 H 0.98585 0.26351 0.54955 0.0
H1312 H 0.93371 0.35266 0.5428 0.0
H1313 H 0.98649 0.34327 0.60006 0.0
H1314 H 0.9585 0.28022 0.59058 0.0
O1315 O 0.89056 0.38397 0.67865 0.0
H1316 H 0.8926 0.4331 0.59717 0.0
H1317 H 0.84622 0.41177 0.67203 0.0
H1318 H 0.96056 0.33654 0.50137 0.0
H1319 H 0.96571 0.3116 0.69851 0.0
H1320 H 0.98689 0.29161 0.50458 0.0
H1321 H 0.01387 0.33331 0.68783 0.0
O1322 O 0.88882 0.33582 0.57433 0.0
H1323 H 0.80378 0.3169 0.67298 0.0
H1324 H 0.82994 0.39052 0.60153 0.0
H1325 H 0.77975 0.37067 0.60281 0.0
H1326 H 0.76624 0.33367 0.63883 0.0
H1327 H 0.8536 0.33682 0.67063 0.0
H1328 H 0.81963 0.45591 0.66763 0.0
H1329 H 0.82763 0.48767 0.62595 0.0
O1330 O 0.88 0.38034 0.58935 0.0
C1331 C 0.94241 0.39166 0.61126 0.0
C1332 C 0.86159 0.46309 0.60933 0.0
C1333 C 0.83573 0.45119 0.65217 0.0
N1334 N 0.87054 0.41967 0.63455 0.0
C1335 C 0.87678 0.43819 0.61273 0.0
C1336 C 0.8512 0.42646 0.65479 0.0
C1337 C 0.84038 0.4691 0.62879 0.0
C1338 C 0.9493 0.3163 0.65511 0.0
N1339 N 0.9546 0.32626 0.62815 0.0
C1340 C 0.97058 0.31831 0.6769 0.0
C1341 C 0.99784 0.32989 0.67071 0.0
C1342 C 1.004 0.33742 0.64258 0.0
C1343 C 0.98193 0.33575 0.62144 0.0
C1344 C 0.97425 0.28297 0.5479 0.0
C1345 C 0.94497 0.33304 0.54448 0.0
C1346 C 0.95866 0.29255 0.57105 0.0
N1347 N 0.94429 0.31738 0.5692 0.0
C1348 C 0.9602 0.32403 0.52088 0.0
C1349 C 0.97493 0.29881 0.52266 0.0
C1350 C 0.87956 0.36073 0.56938 0.0
C1351 C 0.80935 0.33313 0.65727 0.0
C1352 C 0.82449 0.37425 0.61718 0.0
C1353 C 0.79588 0.36319 0.61785 0.0
C1354 C 0.78831 0.34248 0.63807 0.0
N1355 N 0.84512 0.36512 0.63618 0.0
C1356 C 0.83773 0.34473 0.65597 0.0
Co1357 Co 0.101 0.63372 0.64715 0.0
Co1358 Co 0.17136 0.64366 0.62861 0.0
O1359 O 0.13276 0.62452 0.62313 0.0
C1360 C 0.07086 0.5785 0.66118 0.0
O1361 O 0.07941 0.58238 0.68821 0.0
C1362 C 0.15438 0.65381 0.56698 0.0
O1363 O 0.13231 0.66553 0.57848 0.0
O1364 O 0.15592 0.6829 0.62871 0.0
O1365 O 0.11617 0.67362 0.65327 0.0
H1366 H 0.24739 0.71332 0.67285 0.0
H1367 H 0.08591 0.60496 0.59139 0.0
O1368 O 0.08377 0.59324 0.64195 0.0
H1369 H 0.05309 0.70302 0.58048 0.0
H1370 H 0.99835 0.63589 0.67978 0.0
H1371 H 0.09982 0.66428 0.70273 0.0
H1372 H 0.07163 0.68691 0.62762 0.0
H1373 H 0.03546 0.62849 0.64404 0.0
O1374 O 0.17398 0.64424 0.58405 0.0
H1375 H 0.19878 0.68915 0.6675 0.0
H1376 H 0.2265 0.63791 0.59867 0.0
H1377 H 0.06343 0.67265 0.73838 0.0
H1378 H 0.06389 0.61908 0.54532 0.0
H1379 H 0.0124 0.65717 0.72762 0.0
H1380 H 0.04779 0.66872 0.53945 0.0
O1381 O 0.12415 0.62245 0.68127 0.0
H1382 H 0.18752 0.54411 0.59125 0.0
H1383 H 0.21158 0.61525 0.66866 0.0
H1384 H 0.23267 0.56782 0.67057 0.0
H1385 H 0.22073 0.53191 0.63152 0.0
H1386 H 0.16537 0.59117 0.59102 0.0
H1387 H 0.27542 0.66167 0.60316 0.0
H1388 H 0.28611 0.69965 0.6405 0.0
O1389 O 0.16785 0.64368 0.67313 0.0
C1390 C 0.1355 0.69097 0.64406 0.0
C1391 C 0.24302 0.69676 0.65654 0.0
C1392 C 0.25874 0.66781 0.61739 0.0
N1393 N 0.20985 0.66207 0.63286 0.0
C1394 C 0.21554 0.68293 0.65345 0.0
C1395 C 0.23099 0.65448 0.6149 0.0
C1396 C 0.26473 0.6891 0.63836 0.0
C1397 C 0.0774 0.62603 0.58974 0.0
N1398 N 0.07967 0.64484 0.61263 0.0
C1399 C 0.06541 0.63408 0.56332 0.0
C1400 C 0.05644 0.66191 0.56001 0.0
C1401 C 0.05916 0.68111 0.5832 0.0
C1402 C 0.07014 0.67196 0.60972 0.0
C1403 C 0.02054 0.64217 0.68483 0.0
C1404 C 0.07766 0.65742 0.69762 0.0
C1405 C 0.04172 0.63764 0.66486 0.0
N1406 N 0.07012 0.64378 0.67204 0.0
C1407 C 0.05707 0.66259 0.71789 0.0
C1408 C 0.02837 0.65422 0.71166 0.0
C1409 C 0.14856 0.63361 0.69048 0.0
C1410 C 0.19243 0.55943 0.60855 0.0
C1411 C 0.20577 0.59953 0.65191 0.0
C1412 C 0.21796 0.57278 0.65301 0.0
C1413 C 0.21126 0.55265 0.6311 0.0
N1414 N 0.18724 0.60599 0.62976 0.0
C1415 C 0.18026 0.58624 0.60839 0.0
Co1416 Co 0.85793 0.86676 0.67908 0.0
Co1417 Co 0.88956 0.86174 0.61388 0.0
O1418 O 0.86107 0.8781 0.63841 0.0
C1419 C 0.79657 0.85302 0.65731 0.0
O1420 O 0.80746 0.83495 0.63937 0.0
C1421 C 0.88114 0.918 0.58065 0.0
O1422 O 0.85507 0.92197 0.58953 0.0
O1423 O 0.92062 0.87617 0.6412 0.0
O1424 O 0.90243 0.8644 0.68389 0.0
H1425 H 0.97286 0.7997 0.59917 0.0
H1426 H 0.82939 0.91852 0.65869 0.0
O1427 O 0.81365 0.86815 0.67466 0.0
H1428 H 0.89854 0.95324 0.7358 0.0
H1429 H 0.81415 0.87032 0.77648 0.0
H1430 H 0.88587 0.82507 0.71735 0.0
H1431 H 0.89405 0.90178 0.72207 0.0
H1432 H 0.82092 0.88508 0.72627 0.0
O1433 O 0.89609 0.89834 0.59144 0.0
H1434 H 0.9364 0.82262 0.6271 0.0
H1435 H 0.90794 0.86687 0.55302 0.0
H1436 H 0.88042 0.81029 0.76778 0.0
H1437 H 0.83271 0.97005 0.67212 0.0
H1438 H 0.84427 0.83295 0.79771 0.0
H1439 H 0.86757 0.98772 0.71089 0.0
O1440 O 0.85416 0.82515 0.66899 0.0
H1441 H 0.78789 0.85521 0.57069 0.0
H1442 H 0.88136 0.81025 0.57412 0.0
H1443 H 0.84079 0.78683 0.54677 0.0
H1444 H 0.79324 0.80879 0.54529 0.0
H1445 H 0.82872 0.87804 0.59797 0.0
H1446 H 0.94681 0.84787 0.52555 0.0
H1447 H 0.97814 0.81196 0.5478 0.0
O1448 O 0.88545 0.82446 0.63378 0.0
C1449 C 0.92402 0.87089 0.66782 0.0
C1450 C 0.9588 0.81456 0.58887 0.0
C1451 C 0.94401 0.84128 0.54742 0.0
N1452 N 0.91927 0.84549 0.59144 0.0
C1453 C 0.93779 0.82739 0.60449 0.0
C1454 C 0.9224 0.85265 0.56333 0.0
C1455 C 0.96174 0.82148 0.56006 0.0
C1456 C 0.84448 0.92604 0.67569 0.0
N1457 N 0.86145 0.90721 0.68964 0.0
C1458 C 0.84633 0.95525 0.68314 0.0
C1459 C 0.86589 0.96514 0.70489 0.0
C1460 C 0.88329 0.94581 0.71887 0.0
C1461 C 0.88076 0.91673 0.71091 0.0
C1462 C 0.83016 0.8605 0.76379 0.0
C1463 C 0.87042 0.83534 0.73038 0.0
C1464 C 0.83398 0.86867 0.73529 0.0
N1465 N 0.85394 0.85613 0.719 0.0
C1466 C 0.86732 0.82677 0.75887 0.0
C1467 C 0.84702 0.83947 0.77564 0.0
C1468 C 0.8689 0.81172 0.65134 0.0
C1469 C 0.80859 0.84554 0.57093 0.0
C1470 C 0.86143 0.82099 0.57297 0.0
C1471 C 0.83819 0.80717 0.5576 0.0
C1472 C 0.81152 0.81941 0.55686 0.0
N1473 N 0.85859 0.84666 0.58707 0.0
C1474 C 0.83235 0.85884 0.58596 0.0
Co1475 Co 0.66732 0.36086 0.09462 0.0
Co1476 Co 0.60258 0.38126 0.12134 0.0
O1477 O 0.64479 0.38237 0.12158 0.0
C1478 C 0.69645 0.32133 0.13382 0.0
O1479 O 0.68572 0.29988 0.1175 0.0
C1480 C 0.62285 0.44317 0.11157 0.0
O1481 O 0.64155 0.43233 0.0945 0.0
O1482 O 0.59974 0.38253 0.07856 0.0
O1483 O 0.64351 0.37363 0.06179 0.0
H1484 H 0.50425 0.33783 0.14403 0.0
H1485 H 0.69794 0.40132 0.13664 0.0
O1486 O 0.69074 0.34724 0.12805 0.0
H1487 H 0.72227 0.4384 0.04088 0.0
H1488 H 0.75875 0.31937 0.062 0.0
H1489 H 0.6537 0.32323 0.04351 0.0
H1490 H 0.69193 0.39354 0.04553 0.0
H1491 H 0.73039 0.35254 0.0898 0.0
O1492 O 0.60432 0.42592 0.12366 0.0
H1493 H 0.55736 0.3443 0.14963 0.0
H1494 H 0.55789 0.41445 0.09192 0.0
H1495 H 0.68138 0.29031 0.01466 0.0
H1496 H 0.72853 0.44622 0.13294 0.0
H1497 H 0.73403 0.28731 0.02471 0.0
H1498 H 0.74048 0.46524 0.08484 0.0
O1499 O 0.64128 0.32598 0.0972 0.0
H1500 H 0.57789 0.41212 0.22105 0.0
H1501 H 0.63425 0.34666 0.16397 0.0
H1502 H 0.63688 0.34436 0.21695 0.0
H1503 H 0.60851 0.37723 0.24586 0.0
H1504 H 0.57589 0.41355 0.16795 0.0
H1505 H 0.50478 0.40857 0.08548 0.0
H1506 H 0.47774 0.36958 0.11112 0.0
O1507 O 0.60102 0.33716 0.11939 0.0
C1508 C 0.61726 0.37985 0.05835 0.0
C1509 C 0.51585 0.35472 0.13254 0.0
C1510 C 0.51615 0.39445 0.09969 0.0
N1511 N 0.56067 0.37972 0.12108 0.0
C1512 C 0.54588 0.35862 0.13578 0.0
C1513 C 0.54616 0.39785 0.10363 0.0
C1514 C 0.50098 0.37256 0.11408 0.0
C1515 C 0.70345 0.40924 0.11563 0.0
N1516 N 0.69311 0.39488 0.09134 0.0
C1517 C 0.72069 0.43471 0.11367 0.0
C1518 C 0.72735 0.4454 0.08665 0.0
C1519 C 0.71708 0.4304 0.06199 0.0
C1520 C 0.69991 0.40502 0.06476 0.0
C1521 C 0.73573 0.32018 0.0577 0.0
C1522 C 0.6768 0.3228 0.0473 0.0
C1523 C 0.7196 0.33909 0.0732 0.0
N1524 N 0.69036 0.33959 0.06849 0.0
C1525 C 0.6923 0.30389 0.03111 0.0
C1526 C 0.72184 0.3022 0.03679 0.0
C1527 C 0.61723 0.31886 0.10802 0.0
C1528 C 0.59029 0.39763 0.2087 0.0
C1529 C 0.62172 0.3609 0.1764 0.0
C1530 C 0.62336 0.35957 0.2064 0.0
C1531 C 0.60746 0.37804 0.2226 0.0
N1532 N 0.60464 0.38 0.16296 0.0
C1533 C 0.58923 0.39838 0.17867 0.0
Co1534 Co 0.16803 0.13756 0.65867 0.0
Co1535 Co 0.13374 0.16208 0.59696 0.0
O1536 O 0.16097 0.13737 0.6165 0.0
C1537 C 0.22746 0.1549 0.63613 0.0
O1538 O 0.21479 0.17301 0.61909 0.0
C1539 C 0.12208 0.10393 0.5658 0.0
O1540 O 0.14274 0.0907 0.57923 0.0
O1541 O 0.10325 0.15083 0.62406 0.0
O1542 O 0.12407 0.13564 0.66504 0.0
H1543 H 0.06375 0.24102 0.59556 0.0
H1544 H 0.19531 0.09498 0.62207 0.0
O1545 O 0.212 0.13906 0.65296 0.0
H1546 H 0.1384 0.03797 0.69137 0.0
H1547 H 0.21933 0.10866 0.75006 0.0
H1548 H 0.14238 0.16592 0.70829 0.0
H1549 H 0.13807 0.09081 0.6916 0.0
H1550 H 0.20953 0.10867 0.6976 0.0
O1551 O 0.11767 0.13011 0.57129 0.0
H1552 H 0.09884 0.2094 0.6178 0.0
H1553 H 0.10758 0.16683 0.53777 0.0
H1554 H 0.15121 0.16628 0.76092 0.0
H1555 H 0.19585 0.04198 0.62064 0.0
H1556 H 0.18997 0.13752 0.7821 0.0
H1557 H 0.16752 0.01309 0.65561 0.0
O1558 O 0.17036 0.18058 0.66144 0.0
H1559 H 0.21969 0.14537 0.53678 0.0
H1560 H 0.15352 0.21718 0.56984 0.0
H1561 H 0.19471 0.2327 0.54054 0.0
H1562 H 0.22864 0.19681 0.52443 0.0
H1563 H 0.17838 0.1308 0.56618 0.0
H1564 H 0.07211 0.19669 0.51521 0.0
H1565 H 0.05004 0.23493 0.54374 0.0
O1566 O 0.14854 0.19494 0.62095 0.0
C1567 C 0.10157 0.14062 0.64924 0.0
C1568 C 0.07355 0.22496 0.58266 0.0
C1569 C 0.07823 0.20034 0.53749 0.0
N1570 N 0.10634 0.18694 0.5788 0.0
C1571 C 0.09371 0.20715 0.59504 0.0
C1572 C 0.09851 0.18327 0.55045 0.0
C1573 C 0.06585 0.22153 0.5536 0.0
C1574 C 0.18268 0.08249 0.63716 0.0
N1575 N 0.16671 0.09591 0.65691 0.0
C1576 C 0.18308 0.05252 0.63626 0.0
C1577 C 0.1671 0.03631 0.65586 0.0
C1578 C 0.15071 0.0502 0.67583 0.0
C1579 C 0.15057 0.08018 0.67586 0.0
C1580 C 0.20235 0.12124 0.74109 0.0
C1581 C 0.15911 0.15317 0.7174 0.0
C1582 C 0.19677 0.1214 0.7114 0.0
N1583 N 0.17527 0.13714 0.69995 0.0
C1584 C 0.16409 0.15354 0.74719 0.0
C1585 C 0.18586 0.13743 0.75906 0.0
C1586 C 0.16242 0.20006 0.64445 0.0
C1587 C 0.20516 0.16124 0.54381 0.0
C1588 C 0.16769 0.20124 0.56236 0.0
C1589 C 0.19116 0.21024 0.54594 0.0
C1590 C 0.21021 0.19011 0.53697 0.0
N1591 N 0.16326 0.17299 0.5697 0.0
C1592 C 0.18145 0.15304 0.56027 0.0
Co1593 Co 0.35562 0.67178 0.10924 0.0
Co1594 Co 0.4222 0.65718 0.13855 0.0
O1595 O 0.38045 0.6505 0.13529 0.0
C1596 C 0.31325 0.69145 0.14946 0.0
O1597 O 0.32192 0.71801 0.14348 0.0
C1598 C 0.41056 0.59432 0.12527 0.0
O1599 O 0.39427 0.60346 0.10406 0.0
O1600 O 0.42505 0.65526 0.09637 0.0
O1601 O 0.3849 0.67439 0.07872 0.0
H1602 H 0.51373 0.715 0.16538 0.0
H1603 H 0.32966 0.61787 0.13424 0.0
O1604 O 0.32655 0.67043 0.13966 0.0
H1605 H 0.32671 0.60107 0.02935 0.0
H1606 H 0.25845 0.69222 0.06516 0.0
H1607 H 0.36127 0.72515 0.07461 0.0
H1608 H 0.34693 0.6471 0.0499 0.0
H1609 H 0.29313 0.66355 0.09182 0.0
O1610 O 0.42542 0.61301 0.14108 0.0
H1611 H 0.46287 0.69821 0.17148 0.0
H1612 H 0.4707 0.63224 0.10893 0.0
H1613 H 0.32679 0.7558 0.04996 0.0
H1614 H 0.30784 0.57209 0.11434 0.0
H1615 H 0.2751 0.73903 0.04439 0.0
H1616 H 0.30697 0.56314 0.06161 0.0
O1617 O 0.37233 0.70883 0.1247 0.0
H1618 H 0.45198 0.6325 0.23974 0.0
H1619 H 0.38462 0.68608 0.1794 0.0
H1620 H 0.38168 0.68852 0.23218 0.0
H1621 H 0.41555 0.66159 0.26275 0.0
H1622 H 0.45433 0.63095 0.1868 0.0
H1623 H 0.52083 0.64986 0.10042 0.0
H1624 H 0.54253 0.69159 0.12854 0.0
O1625 O 0.41874 0.70122 0.13641 0.0
C1626 C 0.41035 0.66591 0.07616 0.0
C1627 C 0.50445 0.69679 0.15294 0.0
C1628 C 0.50842 0.66027 0.11643 0.0
N1629 N 0.46384 0.66419 0.14065 0.0
C1630 C 0.47582 0.68686 0.15667 0.0
C1631 C 0.4801 0.65027 0.1215 0.0
C1632 C 0.52058 0.68375 0.13222 0.0
C1633 C 0.32875 0.61448 0.11121 0.0
N1634 N 0.33961 0.63526 0.09331 0.0
C1635 C 0.31653 0.5884 0.10008 0.0
C1636 C 0.31605 0.58338 0.07049 0.0
C1637 C 0.32723 0.60461 0.05238 0.0
C1638 C 0.33888 0.63059 0.06421 0.0
C1639 C 0.28099 0.69964 0.0671 0.0
C1640 C 0.33876 0.71797 0.07278 0.0
C1641 C 0.30086 0.6833 0.0819 0.0
N1642 N 0.32937 0.69259 0.08472 0.0
C1643 C 0.31934 0.73528 0.05858 0.0
C1644 C 0.29032 0.72591 0.05554 0.0
C1645 C 0.3979 0.71801 0.13164 0.0
C1646 C 0.43719 0.64443 0.22667 0.0
C1647 C 0.39964 0.67459 0.19252 0.0
C1648 C 0.39777 0.67591 0.22242 0.0
C1649 C 0.41675 0.66076 0.23956 0.0
N1650 N 0.41995 0.6588 0.18007 0.0
C1651 C 0.4384 0.64361 0.1967 0.0
Co1652 Co 0.84101 0.09808 0.39036 0.0
Co1653 Co 0.83152 0.15446 0.43722 0.0
O1654 O 0.84688 0.13797 0.40271 0.0
C1655 C 0.90505 0.10909 0.39953 0.0
O1656 O 0.89801 0.12246 0.42298 0.0
C1657 C 0.8054 0.18547 0.38955 0.0
O1658 O 0.80009 0.16044 0.37672 0.0
O1659 O 0.79282 0.1349 0.43039 0.0
O1660 O 0.79775 0.09933 0.39809 0.0
H1661 H 0.77986 0.15358 0.53066 0.0
H1662 H 0.87229 0.13923 0.35245 0.0
O1663 O 0.88486 0.09696 0.38309 0.0
H1664 H 0.78408 0.1061 0.29694 0.0
H1665 H 0.8439 0.01691 0.31871 0.0
H1666 H 0.80877 0.04685 0.41267 0.0
H1667 H 0.79388 0.08749 0.34552 0.0
H1668 H 0.85911 0.06458 0.33956 0.0
O1669 O 0.81819 0.18729 0.41421 0.0
H1670 H 0.79973 0.13187 0.48747 0.0
H1671 H 0.83173 0.21421 0.46042 0.0
H1672 H 0.79554 0.99788 0.39403 0.0
H1673 H 0.86368 0.15786 0.30367 0.0
H1674 H 0.81262 0.98295 0.3463 0.0
H1675 H 0.81922 0.1414 0.27562 0.0
O1676 O 0.84866 0.08357 0.42996 0.0
H1677 H 0.91895 0.21474 0.40828 0.0
H1678 H 0.87546 0.15721 0.48596 0.0
H1679 H 0.92575 0.17754 0.49202 0.0
H1680 H 0.94757 0.2068 0.45324 0.0
H1681 H 0.86961 0.19271 0.40229 0.0
H1682 H 0.81087 0.23697 0.50251 0.0
H1683 H 0.78517 0.20654 0.53827 0.0
O1684 O 0.8435 0.12122 0.45989 0.0
C1685 C 0.78217 0.11442 0.41433 0.0
C1686 C 0.79117 0.16705 0.51534 0.0
C1687 C 0.80855 0.21386 0.49952 0.0
N1688 N 0.81705 0.17174 0.47157 0.0
C1689 C 0.80267 0.15486 0.49095 0.0
C1690 C 0.82025 0.20087 0.47568 0.0
C1691 C 0.79409 0.19677 0.51955 0.0
C1692 C 0.85312 0.13161 0.34022 0.0
N1693 N 0.83377 0.11206 0.35174 0.0
C1694 C 0.84829 0.14235 0.31266 0.0
C1695 C 0.8233 0.13317 0.29696 0.0
C1696 C 0.80355 0.11339 0.30893 0.0
C1697 C 0.80915 0.10304 0.33651 0.0
C1698 C 0.83671 0.02304 0.3397 0.0
C1699 C 0.81723 0.04004 0.39247 0.0
C1700 C 0.84516 0.05002 0.35155 0.0
N1701 N 0.83461 0.05855 0.37716 0.0
C1702 C 0.80942 0.01241 0.38188 0.0
C1703 C 0.81899 1.00403 0.35513 0.0
C1704 C 0.84851 0.09505 0.45492 0.0
C1705 C 0.90955 0.20221 0.42548 0.0
C1706 C 0.88488 0.16977 0.46886 0.0
C1707 C 0.91332 0.18129 0.47247 0.0
C1708 C 0.92562 0.1977 0.45067 0.0
N1709 N 0.86937 0.17397 0.44392 0.0
C1710 C 0.88141 0.18997 0.42239 0.0
Co1711 Co 0.35563 0.39599 0.92239 0.0
Co1712 Co 0.39106 0.38164 0.85975 0.0
O1713 O 0.38572 0.37787 0.90138 0.0
C1714 C 0.41073 0.40565 0.9591 0.0
O1715 O 0.42601 0.39342 0.93969 0.0
C1716 C 0.37664 0.3184 0.8684 0.0
O1717 O 0.35641 0.32673 0.88517 0.0
O1718 O 0.34881 0.37641 0.8503 0.0
O1719 O 0.32694 0.38432 0.89161 0.0
H1720 H 0.37263 0.42026 0.76078 0.0
H1721 H 0.3906 0.35008 0.94799 0.0
O1722 O 0.38354 0.40818 0.95517 0.0
H1723 H 0.28915 0.31449 0.95605 0.0
H1724 H 0.29203 0.4152 1.00548 0.0
H1725 H 0.30999 0.43414 0.90343 0.0
H1726 H 0.30097 0.36222 0.93585 0.0
H1727 H 0.33481 0.39736 0.9825 0.0
O1728 O 0.39322 0.33758 0.85636 0.0
H1729 H 0.36543 0.41576 0.81294 0.0
H1730 H 0.42949 0.35416 0.81884 0.0
H1731 H 0.26779 0.4541 0.92565 0.0
H1732 H 0.37976 0.30236 0.96837 0.0
H1733 H 0.2582 0.44411 0.97693 0.0
H1734 H 0.32871 0.28407 0.97235 0.0
O1735 O 0.36507 0.43338 0.90359 0.0
H1736 H 0.48523 0.35465 0.9055 0.0
H1737 H 0.43776 0.42462 0.84361 0.0
H1738 H 0.48993 0.43173 0.85551 0.0
H1739 H 0.51388 0.39677 0.88697 0.0
H1740 H 0.43302 0.34864 0.89349 0.0
H1741 H 0.43726 0.35781 0.76671 0.0
H1742 H 0.40877 0.39114 0.73735 0.0
O1743 O 0.38815 0.42571 0.86268 0.0
C1744 C 0.32633 0.37731 0.86517 0.0
C1745 C 0.38525 0.40574 0.77336 0.0
C1746 C 0.4215 0.37066 0.77668 0.0
N1747 N 0.3972 0.38491 0.81889 0.0
C1748 C 0.38133 0.40318 0.8029 0.0
C1749 C 0.41698 0.36864 0.80616 0.0
C1750 C 0.40551 0.38937 0.76022 0.0
C1751 C 0.36833 0.34269 0.95001 0.0
N1752 N 0.3465 0.35933 0.94094 0.0
C1753 C 0.36232 0.31543 0.96139 0.0
C1754 C 0.33368 0.30515 0.96356 0.0
C1755 C 0.3115 0.32221 0.95444 0.0
C1756 C 0.31835 0.34928 0.943 0.0
C1757 C 0.29618 0.42014 0.98327 0.0
C1758 C 0.30649 0.43045 0.926 0.0
C1759 C 0.32044 0.41002 0.9703 0.0
N1760 N 0.32491 0.4144 0.94184 0.0
C1761 C 0.28243 0.44168 0.93841 0.0
C1762 C 0.2771 0.43615 0.96718 0.0
C1763 C 0.37728 0.44269 0.88101 0.0
C1764 C 0.47499 0.37009 0.89188 0.0
C1765 C 0.44803 0.40935 0.85735 0.0
C1766 C 0.4776 0.41341 0.8639 0.0
C1767 C 0.49107 0.39371 0.88143 0.0
N1768 N 0.43233 0.38633 0.86801 0.0
C1769 C 0.44547 0.36671 0.88486 0.0
Co1770 Co 0.14572 0.91412 0.40439 0.0
Co1771 Co 0.15602 0.84958 0.43817 0.0
O1772 O 0.13911 0.87248 0.40783 0.0
C1773 C 0.08194 0.90217 0.41067 0.0
O1774 O 0.0903 0.88455 0.43069 0.0
C1775 C 0.1806 0.82843 0.38499 0.0
O1776 O 0.18384 0.8551 0.37635 0.0
O1777 O 0.19378 0.87009 0.43581 0.0
O1778 O 0.18961 0.91144 0.41236 0.0
H1779 H 0.22188 0.83465 0.52338 0.0
H1780 H 0.11259 0.88168 0.3579 0.0
O1781 O 0.1014 0.91719 0.39712 0.0
H1782 H 0.19969 0.92337 0.31224 0.0
H1783 H 0.1448 1.00852 0.35265 0.0
H1784 H 0.1782 0.95891 0.43934 0.0
H1785 H 0.19148 0.93277 0.36351 0.0
H1786 H 0.12837 0.95785 0.36104 0.0
O1787 O 0.16848 0.82219 0.4085 0.0
H1788 H 0.19064 0.86283 0.49191 0.0
H1789 H 0.1599 0.78674 0.44705 0.0
H1790 H 0.19119 0.01054 0.43377 0.0
H1791 H 0.11979 0.872 0.30647 0.0
H1792 H 0.17452 0.03549 0.38997 0.0
H1793 H 0.16365 0.89285 0.28333 0.0
O1794 O 0.13981 0.92039 0.44593 0.0
H1795 H 0.06761 0.79275 0.39916 0.0
H1796 H 0.1177 0.83422 0.48637 0.0
H1797 H 0.07025 0.80801 0.49045 0.0
H1798 H 0.04487 0.78709 0.44659 0.0
H1799 H 0.11484 0.81964 0.39606 0.0
H1800 H 0.19147 0.7578 0.47744 0.0
H1801 H 0.22353 0.78196 0.51527 0.0
O1802 O 0.14466 0.87766 0.46766 0.0
C1803 C 0.2049 0.89291 0.42533 0.0
C1804 C 0.20825 0.82394 0.50675 0.0
C1805 C 0.19124 0.78081 0.48092 0.0
N1806 N 0.17341 0.82641 0.46769 0.0
C1807 C 0.1901 0.83971 0.48921 0.0
C1808 C 0.17315 0.79724 0.464 0.0
C1809 C 0.20927 0.7944 0.50209 0.0
C1810 C 0.13151 0.89117 0.3479 0.0
N1811 N 0.1514 0.90802 0.36364 0.0
C1812 C 0.13557 0.88547 0.3188 0.0
C1813 C 0.16021 0.89712 0.30585 0.0
C1814 C 0.18045 0.91423 0.32206 0.0
C1815 C 0.17572 0.91941 0.35112 0.0
C1816 C 0.15086 0.99807 0.37238 0.0
C1817 C 0.16971 0.96995 0.42086 0.0
C1818 C 0.14215 0.96931 0.37702 0.0
N1819 N 0.15239 0.95538 0.4006 0.0
C1820 C 0.17747 0.99912 0.41768 0.0
C1821 C 0.16813 0.01314 0.39311 0.0
C1822 C 0.13996 0.90443 0.46792 0.0
C1823 C 0.07845 0.80179 0.41842 0.0
C1824 C 0.10676 0.8252 0.46723 0.0
C1825 C 0.07991 0.81037 0.46965 0.0
C1826 C 0.06568 0.79864 0.44503 0.0
N1827 N 0.11908 0.82829 0.44105 0.0
C1828 C 0.10527 0.81688 0.41681 0.0
Co1829 Co 0.66017 0.6161 0.91482 0.0
Co1830 Co 0.66584 0.64673 0.84918 0.0
O1831 O 0.64886 0.64534 0.88727 0.0
C1832 C 0.60591 0.63429 0.94428 0.0
O1833 O 0.60759 0.66072 0.93475 0.0
C1834 C 0.6806 0.70961 0.86586 0.0
O1835 O 0.69885 0.70047 0.88537 0.0
O1836 O 0.70526 0.64954 0.86719 0.0
O1837 O 0.6991 0.61425 0.8985 0.0
H1838 H 0.73489 0.61887 0.77401 0.0
H1839 H 0.65384 0.68052 0.92337 0.0
O1840 O 0.62118 0.61519 0.93341 0.0
H1841 H 0.73589 0.65698 0.98659 0.0
H1842 H 0.65365 0.56149 1.00662 0.0
H1843 H 0.69236 0.56282 0.90931 0.0
H1844 H 0.7082 0.6189 0.96021 0.0
H1845 H 0.65034 0.60422 0.9766 0.0
O1846 O 0.66528 0.69119 0.85008 0.0
H1847 H 0.71254 0.61673 0.82146 0.0
H1848 H 0.65599 0.68141 0.7966 0.0
H1849 H 0.70082 0.52181 0.94028 0.0
H1850 H 0.68128 0.71891 0.94944 0.0
H1851 H 0.68026 0.52022 0.98933 0.0
H1852 H 0.7232 0.70773 0.98099 0.0
O1853 O 0.64479 0.58587 0.88698 0.0
H1854 H 0.56291 0.67399 0.83701 0.0
H1855 H 0.63652 0.61058 0.8024 0.0
H1856 H 0.58736 0.60687 0.78023 0.0
H1857 H 0.55023 0.63888 0.79742 0.0
H1858 H 0.61229 0.67675 0.85876 0.0
H1859 H 0.67787 0.68445 0.74895 0.0
H1860 H 0.71754 0.65293 0.73737 0.0
O1861 O 0.66681 0.60221 0.84763 0.0
C1862 C 0.7151 0.63307 0.88628 0.0
C1863 C 0.71755 0.63264 0.77876 0.0
C1864 C 0.68558 0.66948 0.76471 0.0
N1865 N 0.68283 0.64873 0.81166 0.0
C1866 C 0.70475 0.63145 0.80555 0.0
C1867 C 0.67331 0.66771 0.79173 0.0
C1868 C 0.70783 0.65178 0.75822 0.0
C1869 C 0.67065 0.67443 0.93812 0.0
N1870 N 0.67739 0.64628 0.94126 0.0
C1871 C 0.68677 0.69681 0.95245 0.0
C1872 C 0.71038 0.69058 0.96998 0.0
C1873 C 0.71737 0.66214 0.97325 0.0
C1874 C 0.70083 0.64034 0.95857 0.0
C1875 C 0.66307 0.56187 0.9857 0.0
C1876 C 0.68459 0.56304 0.93095 0.0
C1877 C 0.66034 0.5857 0.96825 0.0
N1878 N 0.67009 0.58569 0.94088 0.0
C1879 C 0.6891 0.53944 0.94836 0.0
C1880 C 0.67772 0.53864 0.97575 0.0
C1881 C 0.6555 0.58134 0.86246 0.0
C1882 C 0.57893 0.66 0.82927 0.0
C1883 C 0.6204 0.62442 0.81013 0.0
C1884 C 0.59264 0.62229 0.79743 0.0
C1885 C 0.57182 0.64026 0.80708 0.0
N1886 N 0.62725 0.64396 0.83174 0.0
C1887 C 0.60692 0.66151 0.84145 0.0
Co1888 Co 0.62486 0.92224 0.86627 0.0
Co1889 Co 0.69245 0.89796 0.86217 0.0
O1890 O 0.6543 0.89618 0.87846 0.0
C1891 C 0.60476 0.89968 0.92262 0.0
O1892 O 0.62624 0.88281 0.92678 0.0
C1893 C 0.67466 0.83481 0.85169 0.0
O1894 O 0.65395 0.84369 0.83475 0.0
O1895 O 0.67467 0.89387 0.82283 0.0
O1896 O 0.64018 0.92493 0.82652 0.0
H1897 H 0.7687 0.93454 0.79527 0.0
H1898 H 0.6173 0.859 0.88159 0.0
O1899 O 0.60767 0.92092 0.90564 0.0
H1900 H 0.55734 0.87037 0.79423 0.0
H1901 H 0.52604 0.96195 0.86483 0.0
H1902 H 0.62601 0.97604 0.83234 0.0
H1903 H 0.58091 0.91244 0.81811 0.0
H1904 H 0.56184 0.92617 0.87549 0.0
O1905 O 0.69242 0.85352 0.86442 0.0
H1906 H 0.71993 0.93094 0.8153 0.0
H1907 H 0.74612 0.86712 0.87367 0.0
H1908 H 0.5903 0.01092 0.81864 0.0
H1909 H 0.59133 0.81695 0.86024 0.0
H1910 H 0.53995 1.00448 0.83545 0.0
H1911 H 0.56182 0.82174 0.81564 0.0
O1912 O 0.65121 0.95543 0.87911 0.0
H1913 H 0.70343 0.87103 0.96606 0.0
H1914 H 0.73798 0.93728 0.89081 0.0
H1915 H 0.75877 0.94261 0.94019 0.0
H1916 H 0.7415 0.90931 0.97821 0.0
H1917 H 0.68321 0.86653 0.9164 0.0
H1918 H 0.79511 0.86978 0.85413 0.0
H1919 H 0.8068 0.90423 0.81516 0.0
O1920 O 0.69261 0.9425 0.86004 0.0
C1921 C 0.65361 0.90691 0.81201 0.0
C1922 C 0.76393 0.91967 0.81246 0.0
C1923 C 0.77874 0.88328 0.84547 0.0
N1924 N 0.73038 0.89911 0.84582 0.0
C1925 C 0.7364 0.91759 0.8239 0.0
C1926 C 0.75097 0.88179 0.85637 0.0
C1927 C 0.78527 0.90254 0.82353 0.0
C1928 C 0.60282 0.86238 0.86368 0.0
N1929 N 0.59984 0.88919 0.85245 0.0
C1930 C 0.58855 0.83797 0.85115 0.0
C1931 C 0.57198 0.84071 0.82608 0.0
C1932 C 0.56932 0.86782 0.81428 0.0
C1933 C 0.58293 0.89185 0.82808 0.0
C1934 C 0.54787 0.96518 0.85743 0.0
C1935 C 0.60405 0.97269 0.83925 0.0
C1936 C 0.56837 0.94525 0.86403 0.0
N1937 N 0.59612 0.94922 0.85518 0.0
C1938 C 0.58394 0.99272 0.83163 0.0
C1939 C 0.55572 0.98904 0.84099 0.0
C1940 C 0.67662 0.96181 0.87035 0.0
C1941 C 0.71119 0.88563 0.94967 0.0
C1942 C 0.73031 0.92276 0.90726 0.0
C1943 C 0.74221 0.92584 0.93516 0.0
C1944 C 0.73252 0.90713 0.95648 0.0
N1945 N 0.70944 0.90157 0.90075 0.0
C1946 C 0.69985 0.88315 0.92152 0.0
Co1947 Co 0.59451 0.12742 0.41272 0.0
Co1948 Co 0.61218 0.09269 0.35005 0.0
O1949 O 0.59211 0.12142 0.371 0.0
C1950 C 0.53127 0.11936 0.42773 0.0
O1951 O 0.53973 0.10236 0.44835 0.0
C1952 C 0.63791 0.14634 0.32628 0.0
O1953 O 0.64035 0.15782 0.35218 0.0
O1954 O 0.6483 0.10157 0.37243 0.0
O1955 O 0.6386 0.12317 0.41411 0.0
H1956 H 0.68362 0.01656 0.34038 0.0
H1957 H 0.56529 0.16922 0.37558 0.0
O1958 O 0.55031 0.13115 0.4113 0.0
H1959 H 0.64657 0.2249 0.42442 0.0
H1960 H 0.56873 0.17754 0.50405 0.0
H1961 H 0.62255 0.09956 0.46234 0.0
H1962 H 0.63742 0.17328 0.4344 0.0
H1963 H 0.56867 0.16975 0.45148 0.0
O1964 O 0.62486 0.12188 0.32165 0.0
H1965 H 0.6499 0.0456 0.36658 0.0
H1966 H 0.61868 0.07959 0.28781 0.0
H1967 H 0.62183 0.10568 0.51474 0.0
H1968 H 0.5735 0.22084 0.36517 0.0
H1969 H 0.59547 0.14519 0.53623 0.0
H1970 H 0.61444 0.24902 0.38962 0.0
O1971 O 0.58898 0.08513 0.41978 0.0
H1972 H 0.52472 0.11462 0.28926 0.0
H1973 H 0.57946 0.03805 0.33413 0.0
H1974 H 0.53459 0.02507 0.30599 0.0
H1975 H 0.50702 0.06339 0.28361 0.0
H1976 H 0.56966 0.1267 0.31798 0.0
H1977 H 0.65217 0.051 0.26082 0.0
H1978 H 0.68605 0.02056 0.28727 0.0
O1979 O 0.60088 0.06346 0.37847 0.0
C1980 C 0.65634 0.11226 0.39677 0.0
C1981 C 0.66929 0.03019 0.32868 0.0
C1982 C 0.65162 0.04951 0.28401 0.0
N1983 N 0.63259 0.06453 0.32879 0.0
C1984 C 0.6499 0.04643 0.34336 0.0
C1985 C 0.63261 0.06552 0.29941 0.0
C1986 C 0.67054 0.03231 0.29886 0.0
C1987 C 0.58295 0.1814 0.38655 0.0
N1988 N 0.60071 0.16831 0.40575 0.0
C1989 C 0.58758 0.2106 0.38046 0.0
C1990 C 0.61059 0.22638 0.39415 0.0
C1991 C 0.62863 0.21286 0.41367 0.0
C1992 C 0.62339 0.18361 0.41918 0.0
C1993 C 0.58063 0.1604 0.49509 0.0
C1994 C 0.61078 0.11672 0.47138 0.0
C1995 C 0.58081 0.15598 0.46535 0.0
N1996 N 0.59577 0.13432 0.45389 0.0
C1997 C 0.61065 0.12022 0.50116 0.0
C1998 C 0.59563 0.14228 0.51311 0.0
C1999 C 0.593 0.06292 0.40441 0.0
C2000 C 0.5366 0.09772 0.29911 0.0
C2001 C 0.56742 0.05492 0.32449 0.0
C2002 C 0.54212 0.04742 0.30851 0.0
C2003 C 0.52666 0.06901 0.29585 0.0
N2004 N 0.57702 0.08311 0.32771 0.0
C2005 C 0.56202 0.10443 0.3153 0.0
Co2006 Co 0.44454 0.11476 0.85317 0.0
Co2007 Co 0.37434 0.13036 0.85645 0.0
O2008 O 0.4145 0.13681 0.86932 0.0
C2009 C 0.4691 0.13497 0.9121 0.0
O2010 O 0.4467 0.14969 0.9182 0.0
C2011 C 0.38488 0.19418 0.84738 0.0
O2012 O 0.40332 0.18675 0.82825 0.0
O2013 O 0.38491 0.13593 0.81564 0.0
O2014 O 0.42252 0.10851 0.81592 0.0
H2015 H 0.29244 0.08703 0.79414 0.0
H2016 H 0.4531 0.17639 0.87396 0.0
O2017 O 0.46899 0.11934 0.88947 0.0
H2018 H 0.48454 0.17628 0.77394 0.0
H2019 H 0.54685 0.09316 0.83649 0.0
H2020 H 0.44509 0.06025 0.81894 0.0
H2021 H 0.47424 0.13074 0.79881 0.0
H2022 H 0.50847 0.12085 0.85495 0.0
O2023 O 0.37018 0.17429 0.86059 0.0
H2024 H 0.34326 0.09404 0.81155 0.0
H2025 H 0.31964 0.1553 0.8735 0.0
H2026 H 0.48339 0.03191 0.79896 0.0
H2027 H 0.46495 0.22224 0.85067 0.0
H2028 H 0.53489 0.04849 0.80724 0.0
H2029 H 0.47902 0.22265 0.79958 0.0
O2030 O 0.42498 0.07899 0.86798 0.0
H2031 H 0.3831 0.149 0.96266 0.0
H2032 H 0.3369 0.08696 0.88595 0.0
H2033 H 0.3287 0.07492 0.93657 0.0
H2034 H 0.35256 0.10523 0.97529 0.0
H2035 H 0.38972 0.16081 0.91168 0.0
H2036 H 0.26857 0.14919 0.85666 0.0
H2037 H 0.25472 0.11479 0.81672 0.0
O2038 O 0.37922 0.08633 0.8531 0.0
C2039 C 0.40462 0.12368 0.80265 0.0
C2040 C 0.29819 0.10203 0.8116 0.0
C2041 C 0.2848 0.13695 0.84666 0.0
N2042 N 0.33427 0.12491 0.84359 0.0
C2043 C 0.32689 0.106 0.82158 0.0
C2044 C 0.31372 0.14038 0.85606 0.0
C2045 C 0.27704 0.11763 0.82427 0.0
C2046 C 0.46083 0.17589 0.85246 0.0
N2047 N 0.46228 0.1504 0.83778 0.0
C2048 C 0.46699 0.2022 0.83908 0.0
C2049 C 0.47474 0.20244 0.81039 0.0
C2050 C 0.4778 0.17646 0.79601 0.0
C2051 C 0.47194 0.15061 0.81028 0.0
C2052 C 0.52481 0.0856 0.83219 0.0
C2053 C 0.46746 0.06754 0.82259 0.0
C2054 C 0.5028 0.10122 0.84295 0.0
N2055 N 0.47454 0.0923 0.83789 0.0
C2056 C 0.48904 0.05139 0.81128 0.0
C2057 C 0.51794 0.06064 0.81602 0.0
C2058 C 0.39901 0.06948 0.86181 0.0
C2059 C 0.37244 0.1355 0.94601 0.0
C2060 C 0.34666 0.10089 0.90272 0.0
C2061 C 0.34204 0.09387 0.93133 0.0
C2062 C 0.3554 0.11106 0.95308 0.0
N2063 N 0.36393 0.12448 0.89596 0.0
C2064 C 0.37619 0.14211 0.91711 0.0
Co2065 Co 0.39503 0.88933 0.43449 0.0
Co2066 Co 0.36445 0.90663 0.36941 0.0
O2067 O 0.39046 0.88436 0.39289 0.0
C2068 C 0.46014 0.89842 0.44054 0.0
O2069 O 0.45567 0.92127 0.45625 0.0
C2070 C 0.33373 0.86221 0.33302 0.0
O2071 O 0.30966 0.87013 0.34414 0.0
O2072 O 0.33198 0.8928 0.39277 0.0
O2073 O 0.35132 0.89568 0.43799 0.0
H2074 H 0.27935 0.96709 0.35072 0.0
H2075 H 0.41588 0.83706 0.40659 0.0
O2076 O 0.43831 0.88301 0.43015 0.0
H2077 H 0.34578 0.80164 0.4775 0.0
H2078 H 0.44195 0.87094 0.53113 0.0
H2079 H 0.37461 0.93057 0.47733 0.0
H2080 H 0.35671 0.85373 0.47173 0.0
H2081 H 0.42843 0.85972 0.48031 0.0
O2082 O 0.35809 0.87264 0.3431 0.0
H2083 H 0.31639 0.94439 0.38062 0.0
H2084 H 0.35662 0.91535 0.30597 0.0
H2085 H 0.38744 0.94249 0.52811 0.0
H2086 H 0.40578 0.78474 0.41173 0.0
H2087 H 0.42189 0.91302 0.55516 0.0
H2088 H 0.37049 0.76675 0.44739 0.0
O2089 O 0.40281 0.93128 0.43001 0.0
H2090 H 0.45452 0.89764 0.31318 0.0
H2091 H 0.38554 0.96466 0.35011 0.0
H2092 H 0.4261 0.9834 0.32145 0.0
H2093 H 0.46066 0.94977 0.30235 0.0
H2094 H 0.41337 0.87964 0.34166 0.0
H2095 H 0.32076 0.93855 0.27512 0.0
H2096 H 0.28127 0.964 0.29745 0.0
O2097 O 0.36973 0.94045 0.39557 0.0
C2098 C 0.32947 0.89455 0.41989 0.0
C2099 C 0.29618 0.9557 0.34071 0.0
C2100 C 0.3195 0.93982 0.29829 0.0
N2101 N 0.33816 0.92791 0.34523 0.0
C2102 C 0.31713 0.94275 0.3576 0.0
C2103 C 0.33984 0.92685 0.31591 0.0
C2104 C 0.29732 0.95402 0.31083 0.0
C2105 C 0.40063 0.82935 0.42225 0.0
N2106 N 0.38702 0.84835 0.43897 0.0
C2107 C 0.39494 0.79973 0.42502 0.0
C2108 C 0.37511 0.78964 0.44502 0.0
C2109 C 0.36122 0.8092 0.4619 0.0
C2110 C 0.36744 0.83866 0.45851 0.0
C2111 C 0.42712 0.88411 0.51951 0.0
C2112 C 0.38913 0.91726 0.48913 0.0
C2113 C 0.41916 0.87769 0.49082 0.0
N2114 N 0.4009 0.8946 0.47582 0.0
C2115 C 0.3965 0.92427 0.51782 0.0
C2116 C 0.41591 0.90777 0.53296 0.0
C2117 C 0.38657 0.94809 0.41668 0.0
C2118 C 0.43935 0.91242 0.32102 0.0
C2119 C 0.40064 0.94985 0.34212 0.0
C2120 C 0.42351 0.9606 0.3258 0.0
C2121 C 0.44291 0.9417 0.31511 0.0
N2122 N 0.39696 0.92101 0.34735 0.0
C2123 C 0.41607 0.90237 0.33722 0.0
Co2124 Co 0.605 0.15609 0.17527 0.0
Co2125 Co 0.62415 0.13149 0.10983 0.0
O2126 O 0.62714 0.1316 0.15156 0.0
C2127 C 0.64965 0.18189 0.21548 0.0
O2128 O 0.64291 0.20717 0.20588 0.0
C2129 C 0.61488 0.06671 0.09941 0.0
O2130 O 0.59345 0.0722 0.08152 0.0
O2131 O 0.58158 0.12407 0.11114 0.0
O2132 O 0.5714 0.15407 0.14711 0.0
H2133 H 0.58148 0.15583 0.01299 0.0
H2134 H 0.62984 0.10459 0.20149 0.0
O2135 O 0.63834 0.15894 0.20355 0.0
H2136 H 0.52483 0.09231 0.21508 0.0
H2137 H 0.57201 0.19315 0.27018 0.0
H2138 H 0.57094 0.20738 0.16527 0.0
H2139 H 0.54545 0.13461 0.18996 0.0
H2140 H 0.59351 0.15827 0.23821 0.0
O2141 O 0.62961 0.08779 0.11191 0.0
H2142 H 0.58669 0.15828 0.06597 0.0
H2143 H 0.65493 0.10119 0.06427 0.0
H2144 H 0.55164 0.2442 0.19663 0.0
H2145 H 0.61004 0.06186 0.22685 0.0
H2146 H 0.55163 0.23699 0.24951 0.0
H2147 H 0.55721 0.05569 0.23407 0.0
O2148 O 0.62127 0.18994 0.15514 0.0
H2149 H 0.72764 0.11637 0.13847 0.0
H2150 H 0.6626 0.1727 0.0782 0.0
H2151 H 0.71532 0.18296 0.07675 0.0
H2152 H 0.74823 0.15461 0.10698 0.0
H2153 H 0.67476 0.10697 0.13939 0.0
H2154 H 0.64951 0.09695 0.0115 0.0
H2155 H 0.61301 0.12492 0.98537 0.0
O2156 O 0.61857 0.17559 0.10889 0.0
C2157 C 0.56408 0.13883 0.12485 0.0
C2158 C 0.59766 0.14376 0.02407 0.0
C2159 C 0.63596 0.11087 0.02317 0.0
N2160 N 0.62115 0.12997 0.06814 0.0
C2161 C 0.60079 0.14516 0.05404 0.0
C2162 C 0.63879 0.11317 0.05309 0.0
C2163 C 0.61535 0.12641 1.00858 0.0
C2164 C 0.60682 0.10201 0.2045 0.0
N2165 N 0.58887 0.12222 0.19445 0.0
C2166 C 0.59573 0.07777 0.21886 0.0
C2167 C 0.56607 0.07425 0.22283 0.0
C2168 C 0.54788 0.09478 0.21219 0.0
C2169 C 0.5597 0.11867 0.19787 0.0
C2170 C 0.57184 0.19656 0.24718 0.0
C2171 C 0.57169 0.20445 0.18827 0.0
C2172 C 0.58369 0.17671 0.22891 0.0
N2173 N 0.58394 0.18104 0.19985 0.0
C2174 C 0.56053 0.22526 0.20594 0.0
C2175 C 0.56052 0.22118 0.23559 0.0
C2176 C 0.61994 0.19564 0.12848 0.0
C2177 C 0.71352 0.12881 0.12514 0.0
C2178 C 0.67678 0.16036 0.0915 0.0
C2179 C 0.70661 0.16622 0.09054 0.0
C2180 C 0.72506 0.15029 0.10749 0.0
N2181 N 0.66565 0.13913 0.10872 0.0
C2182 C 0.68357 0.12353 0.12551 0.0
Co2183 Co 0.41689 0.16513 0.62606 0.0
Co2184 Co 0.44188 0.09975 0.64099 0.0
O2185 O 0.4134 0.12298 0.62133 0.0
C2186 C 0.35451 0.15056 0.63925 0.0
O2187 O 0.36531 0.1338 0.6588 0.0
C2188 C 0.41635 0.06309 0.59147 0.0
O2189 O 0.40241 0.08406 0.57984 0.0
O2190 O 0.47211 0.11971 0.6185 0.0
O2191 O 0.46218 0.16493 0.62933 0.0
H2192 H 0.53126 0.0918 0.70342 0.0
H2193 H 0.38175 0.14249 0.57509 0.0
O2194 O 0.37204 0.16538 0.62334 0.0
H2195 H 0.46044 0.2048 0.53606 0.0
H2196 H 0.38867 0.26611 0.60681 0.0
H2197 H 0.4525 0.20558 0.66389 0.0
H2198 H 0.45712 0.19782 0.58827 0.0
H2199 H 0.38611 0.21335 0.59991 0.0
O2200 O 0.43649 0.06851 0.61054 0.0
H2201 H 0.49662 0.11666 0.67324 0.0
H2202 H 0.45484 0.03657 0.64754 0.0
H2203 H 0.45599 0.25827 0.67135 0.0
H2204 H 0.38354 0.15047 0.52252 0.0
H2205 H 0.42389 0.28889 0.64267 0.0
H2206 H 0.42322 0.18109 0.50281 0.0
O2207 O 0.41403 0.16092 0.6682 0.0
H2208 H 0.33997 0.0616 0.65958 0.0
H2209 H 0.43914 0.07413 0.70029 0.0
H2210 H 0.40112 0.05236 0.72951 0.0
H2211 H 0.351 0.04632 0.70963 0.0
H2212 H 0.37864 0.08348 0.63084 0.0
H2213 H 0.48868 0.01101 0.67735 0.0
H2214 H 0.52651 0.03893 0.70741 0.0
O2215 O 0.44751 0.12917 0.67281 0.0
C2216 C 0.4804 0.146 0.62251 0.0
C2217 C 0.51434 0.07955 0.69135 0.0
C2218 C 0.49059 0.03423 0.67676 0.0
N2219 N 0.47214 0.07835 0.6598 0.0
C2220 C 0.49442 0.0935 0.67419 0.0
C2221 C 0.47114 0.04895 0.65975 0.0
C2222 C 0.51185 0.04976 0.69326 0.0
C2223 C 0.39901 0.15616 0.56661 0.0
N2224 N 0.41941 0.1695 0.58474 0.0
C2225 C 0.39998 0.16035 0.5369 0.0
C2226 C 0.42226 0.17776 0.52578 0.0
C2227 C 0.44313 0.19104 0.5444 0.0
C2228 C 0.44127 0.18676 0.57397 0.0
C2229 C 0.40282 0.25301 0.61938 0.0
C2230 C 0.43864 0.21882 0.6512 0.0
C2231 C 0.40142 0.22315 0.6156 0.0
N2232 N 0.41934 0.20652 0.6313 0.0
C2233 C 0.44063 0.24861 0.65558 0.0
C2234 C 0.42259 0.26578 0.6395 0.0
C2235 C 0.42921 0.14505 0.68376 0.0
C2236 C 0.36179 0.06423 0.66858 0.0
C2237 C 0.41766 0.07143 0.6909 0.0
C2238 C 0.39606 0.059 0.70777 0.0
C2239 C 0.36793 0.05554 0.69655 0.0
N2240 N 0.41164 0.08032 0.66348 0.0
C2241 C 0.38396 0.0767 0.65235 0.0
Co2242 Co 0.4141 0.88674 0.19014 0.0
Co2243 Co 0.38275 0.90402 0.1253 0.0
O2244 O 0.38749 0.9086 0.16702 0.0
C2245 C 0.36005 0.87243 0.21929 0.0
O2246 O 0.34685 0.86739 0.19422 0.0
C2247 C 0.39244 0.96809 0.13574 0.0
O2248 O 0.41413 0.96122 0.15265 0.0
O2249 O 0.42497 0.91098 0.12065 0.0
O2250 O 0.44307 0.8881 0.15914 0.0
H2251 H 0.40264 0.86251 0.02846 0.0
H2252 H 0.3903 0.93812 0.21675 0.0
O2253 O 0.38579 0.88351 0.22119 0.0
H2254 H 0.49602 0.95768 0.21944 0.0
H2255 H 0.46134 0.85769 0.28354 0.0
H2256 H 0.44727 0.83495 0.18021 0.0
H2257 H 0.47429 0.91236 0.19843 0.0
H2258 H 0.43469 0.88986 0.25171 0.0
O2259 O 0.37721 0.94786 0.12236 0.0
H2260 H 0.41067 0.87036 0.08052 0.0
H2261 H 0.34423 0.92959 0.08114 0.0
H2262 H 0.47077 0.80066 0.21198 0.0
H2263 H 0.41117 0.98369 0.23826 0.0
H2264 H 0.47903 0.81252 0.26384 0.0
H2265 H 0.4644 0.99365 0.23972 0.0
O2266 O 0.39703 0.85035 0.17388 0.0
H2267 H 0.28611 0.92364 0.16487 0.0
H2268 H 0.33899 0.85913 0.1033 0.0
H2269 H 0.28687 0.8489 0.11008 0.0
H2270 H 0.26007 0.88133 0.14101 0.0
H2271 H 0.33831 0.93291 0.15769 0.0
H2272 H 0.3366 0.92363 0.0286 0.0
H2273 H 0.36572 0.88965 1.00191 0.0
O2274 O 0.38865 0.86013 0.12748 0.0
C2275 C 0.44548 0.89947 0.13438 0.0
C2276 C 0.39 0.87762 0.03969 0.0
C2277 C 0.35286 0.91182 0.03984 0.0
N2278 N 0.37776 0.90022 0.08389 0.0
C2279 C 0.39426 0.88194 0.06929 0.0
C2280 C 0.35741 0.91525 0.06955 0.0
C2281 C 0.36921 0.89275 0.02488 0.0
C2282 C 0.41349 0.9423 0.21744 0.0
N2283 N 0.43106 0.9226 0.20642 0.0
C2284 C 0.42518 0.96815 0.22956 0.0
C2285 C 0.45505 0.97376 0.23032 0.0
C2286 C 0.4728 0.95361 0.21892 0.0
C2287 C 0.46036 0.92802 0.20693 0.0
C2288 C 0.4583 0.85264 0.26088 0.0
C2289 C 0.45007 0.84001 0.20287 0.0
C2290 C 0.4436 0.87094 0.24263 0.0
N2291 N 0.43962 0.8645 0.21396 0.0
C2292 C 0.4637 0.82063 0.22072 0.0
C2293 C 0.46816 0.8272 0.24984 0.0
C2294 C 0.39255 0.84212 0.148 0.0
C2295 C 0.29753 0.90942 0.15126 0.0
C2296 C 0.32749 0.8733 0.11684 0.0
C2297 C 0.29797 0.86743 0.12055 0.0
C2298 C 0.28294 0.88565 0.1379 0.0
N2299 N 0.34161 0.8967 0.12994 0.0
C2300 C 0.32705 0.91463 0.14701 0.0
Co2301 Co 0.60758 0.84187 0.64594 0.0
Co2302 Co 0.58603 0.91038 0.65412 0.0
O2303 O 0.61042 0.88263 0.63651 0.0
C2304 C 0.67025 0.85831 0.65943 0.0
O2305 O 0.66034 0.8776 0.67665 0.0
C2306 C 0.60463 0.93584 0.59836 0.0
O2307 O 0.61519 0.91195 0.58923 0.0
O2308 O 0.55115 0.88795 0.63843 0.0
O2309 O 0.56283 0.84252 0.64752 0.0
H2310 H 0.5048 0.93583 0.71621 0.0
H2311 H 0.64068 0.85944 0.59489 0.0
O2312 O 0.65215 0.84148 0.64473 0.0
H2313 H 0.56125 0.79312 0.55757 0.0
H2314 H 0.63515 0.73917 0.63801 0.0
H2315 H 0.57357 0.80642 0.68663 0.0
H2316 H 0.5665 0.80442 0.60947 0.0
H2317 H 0.63738 0.79075 0.62578 0.0
O2318 O 0.58668 0.93499 0.61862 0.0
H2319 H 0.53405 0.90327 0.68896 0.0
H2320 H 0.58326 0.97462 0.65603 0.0
H2321 H 0.57041 0.75497 0.6994 0.0
H2322 H 0.63654 0.84829 0.54288 0.0
H2323 H 0.60139 0.72099 0.67499 0.0
H2324 H 0.59649 0.81511 0.52389 0.0
O2325 O 0.61236 0.85115 0.68756 0.0
H2326 H 0.69132 0.94414 0.65433 0.0
H2327 H 0.60194 0.9443 0.70869 0.0
H2328 H 0.64699 0.96629 0.73025 0.0
H2329 H 0.69244 0.96537 0.70309 0.0
H2330 H 0.6466 0.92131 0.63426 0.0
H2331 H 0.55418 1.00782 0.68232 0.0
H2332 H 0.51563 0.98836 0.71441 0.0
O2333 O 0.58448 0.88822 0.69075 0.0
C2334 C 0.54398 0.86124 0.64127 0.0
C2335 C 0.52189 0.94453 0.70298 0.0
C2336 C 0.54951 0.98498 0.68396 0.0
N2337 N 0.56081 0.93703 0.67139 0.0
C2338 C 0.53856 0.92623 0.68744 0.0
C2339 C 0.56572 0.96605 0.6687 0.0
C2340 C 0.52786 0.97408 0.7017 0.0
C2341 C 0.6233 0.84483 0.58681 0.0
N2342 N 0.60379 0.8327 0.60517 0.0
C2343 C 0.621 0.83869 0.55733 0.0
C2344 C 0.59853 0.82004 0.54668 0.0
C2345 C 0.57873 0.80772 0.56557 0.0
C2346 C 0.58173 0.81431 0.59492 0.0
C2347 C 0.6215 0.75375 0.64874 0.0
C2348 C 0.58692 0.79167 0.6758 0.0
C2349 C 0.62271 0.78295 0.64194 0.0
N2350 N 0.60542 0.80141 0.65532 0.0
C2351 C 0.58513 0.76261 0.68317 0.0
C2352 C 0.60254 0.74356 0.66949 0.0
C2353 C 0.60148 0.87077 0.70212 0.0
C2354 C 0.67166 0.94465 0.66625 0.0
C2355 C 0.62125 0.94435 0.69643 0.0
C2356 C 0.64683 0.9569 0.70885 0.0
C2357 C 0.67222 0.95667 0.69367 0.0
N2358 N 0.62082 0.93185 0.66965 0.0
C2359 C 0.64579 0.93216 0.65467 0.0
Co2360 Co 0.87731 0.59461 0.93955 0.0
Co2361 Co 0.8946 0.65979 0.90946 0.0
O2362 O 0.89711 0.61796 0.91053 0.0
C2363 C 0.93628 0.57295 0.93523 0.0
O2364 O 0.94674 0.59952 0.93264 0.0
C2365 C 0.87883 0.64045 0.84868 0.0
O2366 O 0.86077 0.62171 0.8605 0.0
O2367 O 0.85243 0.65487 0.90658 0.0
O2368 O 0.84382 0.62041 0.93892 0.0
H2369 H 0.85537 0.75427 0.93716 0.0
H2370 H 0.89468 0.56972 0.8842 0.0
O2371 O 0.90955 0.56765 0.93966 0.0
H2372 H 0.79027 0.54447 0.88972 0.0
H2373 H 0.8476 0.50319 0.99094 0.0
H2374 H 0.84313 0.60871 0.99016 0.0
H2375 H 0.81695 0.56959 0.93003 0.0
H2376 H 0.87168 0.53204 0.95325 0.0
O2377 O 0.89497 0.6576 0.86508 0.0
H2378 H 0.85999 0.70177 0.93955 0.0
H2379 H 0.9222 0.70625 0.87442 0.0
H2380 H 0.81748 0.58082 0.02703 0.0
H2381 H 0.86861 0.54549 0.84315 0.0
H2382 H 0.81974 0.52759 0.02777 0.0
H2383 H 0.81617 0.53238 0.8456 0.0
O2384 O 0.89765 0.61784 0.97036 0.0
H2385 H 0.99539 0.64077 0.88086 0.0
H2386 H 0.93656 0.69532 0.94633 0.0
H2387 H 0.98968 0.7017 0.95013 0.0
H2388 H 0.01944 0.67454 0.91728 0.0
H2389 H 0.94214 0.6349 0.87799 0.0
H2390 H 0.9181 0.75877 0.87112 0.0
H2391 H 0.88457 0.78312 0.90274 0.0
O2392 O 0.89311 0.66253 0.95402 0.0
C2393 C 0.83528 0.63929 0.92128 0.0
C2394 C 0.87015 0.74393 0.92337 0.0
C2395 C 0.90533 0.74645 0.88627 0.0
N2396 N 0.89159 0.70107 0.90739 0.0
C2397 C 0.87294 0.71424 0.92471 0.0
C2398 C 0.90754 0.71672 0.8882 0.0
C2399 C 0.88652 0.7601 0.90402 0.0
C2400 C 0.87185 0.56405 0.88561 0.0
N2401 N 0.85728 0.57155 0.90935 0.0
C2402 C 0.85723 0.55018 0.86228 0.0
C2403 C 0.8277 0.54317 0.86359 0.0
C2404 C 0.81317 0.54999 0.88828 0.0
C2405 C 0.82841 0.56424 0.91107 0.0
C2406 C 0.84629 0.52633 0.99069 0.0
C2407 C 0.84379 0.58554 0.98985 0.0
C2408 C 0.86001 0.54272 0.96952 0.0
N2409 N 0.8584 0.5719 0.96911 0.0
C2410 C 0.8294 0.56985 0.01102 0.0
C2411 C 0.83068 0.54003 0.0114 0.0
C2412 C 0.89714 0.64479 0.97478 0.0
C2413 C 0.98267 0.65288 0.89528 0.0
C2414 C 0.94939 0.68314 0.9321 0.0
C2415 C 0.97944 0.68697 0.93425 0.0
C2416 C 0.99614 0.6717 0.91572 0.0
N2417 N 0.93634 0.66466 0.91202 0.0
C2418 C 0.95252 0.6497 0.89367 0.0
Co2419 Co 0.83588 0.40482 0.15014 0.0
Co2420 Co 0.89828 0.37178 0.13335 0.0
O2421 O 0.85718 0.37787 0.1281 0.0
C2422 C 0.80707 0.34859 0.16385 0.0
O2423 O 0.83215 0.33692 0.1658 0.0
C2424 C 0.89004 0.39118 0.07225 0.0
O2425 O 0.87524 0.41128 0.08385 0.0
O2426 O 0.90863 0.41418 0.1366 0.0
O2427 O 0.86689 0.43506 0.14544 0.0
H2428 H 0.99623 0.38145 0.18325 0.0
H2429 H 0.80597 0.37298 0.10121 0.0
O2430 O 0.80497 0.37453 0.15603 0.0
H2431 H 0.8046 0.47555 0.07584 0.0
H2432 H 0.74463 0.44131 0.18789 0.0
H2433 H 0.85115 0.44916 0.19524 0.0
H2434 H 0.82579 0.46099 0.12246 0.0
H2435 H 0.77354 0.41644 0.15275 0.0
O2436 O 0.90221 0.37329 0.08904 0.0
H2437 H 0.94506 0.39211 0.17503 0.0
H2438 H 0.93901 0.33658 0.10183 0.0
H2439 H 0.82307 0.47453 0.23072 0.0
H2440 H 0.78399 0.38659 0.05464 0.0
H2441 H 0.76943 0.46937 0.22807 0.0
H2442 H 0.78373 0.43818 0.04149 0.0
O2443 O 0.85447 0.39378 0.18682 0.0
H2444 H 0.84792 0.28239 0.09007 0.0
H2445 H 0.91331 0.32126 0.1685 0.0
H2446 H 0.89981 0.26923 0.16641 0.0
H2447 H 0.86691 0.24948 0.12695 0.0
H2448 H 0.86182 0.33429 0.09309 0.0
H2449 H 0.9903 0.32584 0.10885 0.0
H2450 H 0.01915 0.3481 0.14999 0.0
O2451 O 0.89425 0.3704 0.17727 0.0
C2452 C 0.89397 0.43609 0.14138 0.0
C2453 C 0.98381 0.37145 0.16537 0.0
C2454 C 0.9805 0.34028 0.12357 0.0
N2455 N 0.93902 0.36481 0.13811 0.0
C2456 C 0.95484 0.3774 0.16061 0.0
C2457 C 0.95153 0.34661 0.11958 0.0
C2458 C 0.99667 0.35273 0.1467 0.0
C2459 C 0.80545 0.39549 0.09584 0.0
N2460 N 0.81717 0.41617 0.11448 0.0
C2461 C 0.79316 0.40306 0.06937 0.0
C2462 C 0.79306 0.43201 0.06199 0.0
C2463 C 0.80477 0.45299 0.08126 0.0
C2464 C 0.81673 0.44463 0.10761 0.0
C2465 C 0.768 0.44329 0.18955 0.0
C2466 C 0.82782 0.44784 0.19321 0.0
C2467 C 0.78449 0.42947 0.16958 0.0
N2468 N 0.81399 0.4311 0.17215 0.0
C2469 C 0.81204 0.46192 0.2136 0.0
C2470 C 0.78194 0.45897 0.21212 0.0
C2471 C 0.87655 0.38076 0.19501 0.0
C2472 C 0.86237 0.29071 0.10729 0.0
C2473 C 0.89899 0.31282 0.15127 0.0
C2474 C 0.89145 0.28334 0.15018 0.0
C2475 C 0.873 0.27227 0.12802 0.0
N2476 N 0.88855 0.33075 0.13081 0.0
C2477 C 0.87043 0.32007 0.10904 0.0
Co2478 Co 0.10521 0.34982 0.62485 0.0
Co2479 Co 0.12376 0.41977 0.60469 0.0
O2480 O 0.12748 0.37821 0.60279 0.0
C2481 C 0.15035 0.31847 0.6549 0.0
O2482 O 0.14111 0.32931 0.67885 0.0
C2483 C 0.10984 0.43174 0.54166 0.0
O2484 O 0.08853 0.44675 0.55039 0.0
O2485 O 0.08111 0.41486 0.60068 0.0
O2486 O 0.06956 0.37207 0.62085 0.0
H2487 H 0.08112 0.51084 0.63795 0.0
H2488 H 0.13869 0.32927 0.5762 0.0
O2489 O 0.14066 0.32713 0.63054 0.0
H2490 H 0.03707 0.29976 0.55136 0.0
H2491 H 0.07837 0.24782 0.65248 0.0
H2492 H 0.06992 0.35004 0.6778 0.0
H2493 H 0.04992 0.32631 0.59651 0.0
H2494 H 0.09765 0.28576 0.621 0.0
O2495 O 0.12626 0.41996 0.56046 0.0
H2496 H 0.08776 0.45858 0.63724 0.0
H2497 H 0.15168 0.46973 0.57427 0.0
H2498 H 0.05362 0.31249 0.71161 0.0
H2499 H 0.12682 0.30235 0.53098 0.0
H2500 H 0.05677 0.26102 0.69858 0.0
H2501 H 0.07571 0.28728 0.51843 0.0
O2502 O 0.11499 0.37173 0.66048 0.0
H2503 H 0.22588 0.40237 0.579 0.0
H2504 H 0.16432 0.45388 0.64443 0.0
H2505 H 0.21737 0.4604 0.65021 0.0
H2506 H 0.24853 0.43459 0.61727 0.0
H2507 H 0.17271 0.39636 0.57411 0.0
H2508 H 0.14433 0.52181 0.57292 0.0
H2509 H 0.10946 0.54284 0.6055 0.0
O2510 O 0.12103 0.41857 0.64886 0.0
C2511 C 0.06297 0.3963 0.61055 0.0
C2512 C 0.09666 0.50201 0.62391 0.0
C2513 C 0.13232 0.50821 0.58759 0.0
N2514 N 0.12018 0.46115 0.60583 0.0
C2515 C 0.10064 0.47246 0.62354 0.0
C2516 C 0.13619 0.47867 0.58825 0.0
C2517 C 0.11256 0.51995 0.60571 0.0
C2518 C 0.1164 0.32272 0.5709 0.0
N2519 N 0.09506 0.32918 0.5891 0.0
C2520 C 0.1098 0.30756 0.54523 0.0
C2521 C 0.0811 0.29918 0.53815 0.0
C2522 C 0.05941 0.30617 0.55663 0.0
C2523 C 0.06681 0.32136 0.58211 0.0
C2524 C 0.07627 0.27021 0.65811 0.0
C2525 C 0.07194 0.32772 0.6721 0.0
C2526 C 0.08659 0.29193 0.64001 0.0
N2527 N 0.08436 0.32039 0.647 0.0
C2528 C 0.06247 0.30652 0.69129 0.0
C2529 C 0.06431 0.27761 0.68403 0.0
C2530 C 0.11831 0.39816 0.66734 0.0
C2531 C 0.21253 0.41379 0.59343 0.0
C2532 C 0.17774 0.44249 0.6301 0.0
C2533 C 0.20776 0.44631 0.63343 0.0
C2534 C 0.22523 0.43184 0.61493 0.0
N2535 N 0.16547 0.42488 0.60885 0.0
C2536 C 0.18242 0.41053 0.59071 0.0
Co2537 Co 0.1692 0.59836 0.10179 0.0
Co2538 Co 0.13487 0.65656 0.12838 0.0
O2539 O 0.13958 0.6154 0.12415 0.0
C2540 C 0.11315 0.5718 0.07933 0.0
O2541 O 0.10059 0.59599 0.08338 0.0
C2542 C 0.14794 0.63651 0.18871 0.0
O2543 O 0.1682 0.62188 0.17738 0.0
O2544 O 0.17667 0.66499 0.13508 0.0
O2545 O 0.1989 0.62672 0.11851 0.0
H2546 H 0.15647 0.76166 0.11003 0.0
H2547 H 0.13195 0.5624 0.13961 0.0
O2548 O 0.13989 0.56956 0.08531 0.0
H2549 H 0.23161 0.5525 0.17685 0.0
H2550 H 0.21801 0.51601 0.05648 0.0
H2551 H 0.21973 0.62138 0.06979 0.0
H2552 H 0.22231 0.58023 0.1329 0.0
H2553 H 0.18097 0.53831 0.08481 0.0
O2554 O 0.13158 0.6512 0.17216 0.0
H2555 H 0.16243 0.70959 0.10404 0.0
H2556 H 0.09647 0.6909 0.16348 0.0
H2557 H 0.25727 0.60004 0.04126 0.0
H2558 H 0.14028 0.53398 0.18324 0.0
H2559 H 0.25659 0.54696 0.03449 0.0
H2560 H 0.19034 0.52963 0.20264 0.0
O2561 O 0.16143 0.62358 0.06855 0.0
H2562 H 0.03965 0.60274 0.14293 0.0
H2563 H 0.08989 0.68136 0.09061 0.0
H2564 H 0.03786 0.67016 0.08063 0.0
H2565 H 0.01247 0.63049 0.10667 0.0
H2566 H 0.09155 0.61498 0.15252 0.0
H2567 H 0.08991 0.74278 0.17032 0.0
H2568 H 0.11999 0.77853 0.14338 0.0
O2569 O 0.13939 0.66223 0.08482 0.0
C2570 C 0.19905 0.65126 0.13091 0.0
C2571 C 0.14315 0.74629 0.12179 0.0
C2572 C 0.10582 0.73569 0.15567 0.0
N2573 N 0.12961 0.6973 0.13319 0.0
C2574 C 0.14636 0.71679 0.11841 0.0
C2575 C 0.10966 0.70637 0.15176 0.0
C2576 C 0.1227 0.75574 0.14054 0.0
C2577 C 0.15385 0.56003 0.1475 0.0
N2578 N 0.17661 0.57322 0.13389 0.0
C2579 C 0.15841 0.5441 0.17236 0.0
C2580 C 0.1865 0.54172 0.18325 0.0
C2581 C 0.20967 0.55456 0.16881 0.0
C2582 C 0.20428 0.57022 0.14394 0.0
C2583 C 0.21867 0.53914 0.05941 0.0
C2584 C 0.21949 0.59825 0.06721 0.0
C2585 C 0.19778 0.55187 0.07552 0.0
N2586 N 0.19855 0.58104 0.07951 0.0
C2587 C 0.24071 0.5863 0.05091 0.0
C2588 C 0.24029 0.55652 0.04708 0.0
C2589 C 0.14998 0.64751 0.06441 0.0
C2590 C 0.0504 0.62023 0.13156 0.0
C2591 C 0.0789 0.6642 0.1022 0.0
C2592 C 0.04945 0.65797 0.09648 0.0
C2593 C 0.0352 0.63573 0.11118 0.0
N2594 N 0.09366 0.64885 0.12215 0.0
C2595 C 0.07977 0.62728 0.13696 0.0
Co2596 Co 0.92982 0.65503 0.63975 0.0
Co2597 Co 0.86416 0.62855 0.66075 0.0
O2598 O 0.90576 0.63163 0.66435 0.0
C2599 C 0.95672 0.59874 0.63942 0.0
O2600 O 0.93139 0.58634 0.63217 0.0
C2601 C 0.87624 0.64748 0.72214 0.0
O2602 O 0.89012 0.66972 0.71085 0.0
O2603 O 0.86172 0.67105 0.66153 0.0
O2604 O 0.90033 0.68412 0.63587 0.0
H2605 H 0.76604 0.65043 0.62068 0.0
H2606 H 0.94911 0.63699 0.69812 0.0
O2607 O 0.96 0.62598 0.64305 0.0
H2608 H 0.95664 0.74311 0.70072 0.0
H2609 H 0.02097 0.71203 0.61682 0.0
H2610 H 0.92103 0.68477 0.58414 0.0
H2611 H 0.94208 0.71694 0.65585 0.0
H2612 H 0.99165 0.67609 0.64315 0.0
O2613 O 0.86313 0.62851 0.70521 0.0
H2614 H 0.81935 0.65499 0.62441 0.0
H2615 H 0.81951 0.59383 0.69153 0.0
H2616 H 0.95085 0.71827 0.55507 0.0
H2617 H 0.96222 0.66242 0.74383 0.0
H2618 H 1.00117 0.73242 0.57156 0.0
H2619 H 0.96655 0.71582 0.74525 0.0
O2620 O 0.91264 0.63473 0.60496 0.0
H2621 H 0.90268 0.53582 0.69447 0.0
H2622 H 0.84191 0.58131 0.62088 0.0
H2623 H 0.85284 0.5306 0.61495 0.0
H2624 H 0.88346 0.50736 0.65219 0.0
H2625 H 0.89328 0.5872 0.69822 0.0
H2626 H 0.76616 0.58873 0.68874 0.0
H2627 H 0.73911 0.61713 0.65304 0.0
O2628 O 0.8657 0.62965 0.6161 0.0
C2629 C 0.87693 0.68962 0.64789 0.0
C2630 C 0.77758 0.63789 0.63626 0.0
C2631 C 0.77765 0.60327 0.67449 0.0
N2632 N 0.82242 0.62453 0.65802 0.0
C2633 C 0.80775 0.64032 0.6384 0.0
C2634 C 0.80782 0.60626 0.676 0.0
C2635 C 0.76249 0.61921 0.65445 0.0
C2636 C 0.95108 0.66025 0.69848 0.0
N2637 N 0.94537 0.67537 0.67411 0.0
C2638 C 0.9584 0.67454 0.72447 0.0
C2639 C 0.96073 0.70451 0.72528 0.0
C2640 C 0.9552 0.71982 0.70031 0.0
C2641 C 0.94718 0.70483 0.67489 0.0
C2642 C 0.99949 0.70534 0.60877 0.0
C2643 C 0.94326 0.68994 0.59082 0.0
C2644 C 0.98266 0.68517 0.62382 0.0
N2645 N 0.9546 0.67848 0.61536 0.0
C2646 C 0.95995 0.70916 0.57443 0.0
C2647 C 0.98818 0.7171 0.58368 0.0
C2648 C 0.886 0.6302 0.59753 0.0
C2649 C 0.8892 0.54559 0.6783 0.0
C2650 C 0.8552 0.57143 0.63707 0.0
C2651 C 0.8611 0.54254 0.63378 0.0
C2652 C 0.87829 0.5296 0.65454 0.0
N2653 N 0.86691 0.58723 0.65986 0.0
C2654 C 0.88344 0.57461 0.68051 0.0
Co2655 Co 0.16597 0.41169 0.83924 0.0
Co2656 Co 0.0975 0.38408 0.85168 0.0
O2657 O 0.13901 0.38688 0.86057 0.0
C2658 C 0.21048 0.37272 0.82284 0.0
O2659 O 0.20378 0.37857 0.79598 0.0
C2660 C 0.08903 0.3987 0.91557 0.0
O2661 O 0.08784 0.42589 0.90877 0.0
O2662 O 0.09593 0.42624 0.85465 0.0
O2663 O 0.13723 0.44169 0.83438 0.0
H2664 H 1.0092 0.35386 0.79124 0.0
H2665 H 0.18603 0.38951 0.89576 0.0
O2666 O 0.19533 0.38193 0.84311 0.0
H2667 H 0.1933 0.49526 0.90592 0.0
H2668 H 0.26504 0.45433 0.81786 0.0
H2669 H 0.16279 0.44469 0.78491 0.0
H2670 H 0.17507 0.47221 0.86063 0.0
H2671 H 0.22845 0.43039 0.84808 0.0
O2672 O 0.09179 0.37955 0.89567 0.0
H2673 H 0.05992 0.35197 0.80813 0.0
H2674 H 0.04632 0.41264 0.87444 0.0
H2675 H 0.19895 0.46732 0.75327 0.0
H2676 H 0.20482 0.41178 0.94154 0.0
H2677 H 0.25058 0.472 0.76959 0.0
H2678 H 0.2088 0.46505 0.94663 0.0
O2679 O 0.15131 0.39398 0.80257 0.0
H2680 H 0.0641 0.28174 0.87139 0.0
H2681 H 0.13644 0.34425 0.82308 0.0
H2682 H 0.13845 0.29166 0.81888 0.0
H2683 H 0.10206 0.25994 0.84314 0.0
H2684 H 0.06279 0.33459 0.87465 0.0
H2685 H 0.99582 0.4159 0.85762 0.0
H2686 H 0.97702 0.38661 0.81551 0.0
O2687 O 0.10348 0.38906 0.80802 0.0
C2688 C 0.11196 0.44554 0.84314 0.0
C2689 C 0.01715 0.36669 0.80966 0.0
C2690 C 1.00968 0.40156 0.84687 0.0
N2691 N 0.05613 0.38171 0.84274 0.0
C2692 C 0.04578 0.36544 0.81959 0.0
C2693 C 0.03832 0.39938 0.85652 0.0
C2694 C 0.99911 0.38513 0.82323 0.0
C2695 C 0.18776 0.4127 0.89787 0.0
N2696 N 0.1798 0.42953 0.87539 0.0
C2697 C 0.19831 0.42517 0.92386 0.0
C2698 C 0.20045 0.45506 0.92677 0.0
C2699 C 0.19184 0.47205 0.90392 0.0
C2700 C 0.18144 0.45885 0.87829 0.0
C2701 C 0.24265 0.45225 0.81042 0.0
C2702 C 0.18519 0.44652 0.79211 0.0
C2703 C 0.22174 0.43903 0.8276 0.0
N2704 N 0.1935 0.43569 0.81808 0.0
C2705 C 0.20559 0.45937 0.77411 0.0
C2706 C 0.23454 0.46203 0.7833 0.0
C2707 C 0.12567 0.39182 0.79198 0.0
C2708 C 0.07996 0.29531 0.86055 0.0
C2709 C 0.12026 0.33073 0.83328 0.0
C2710 C 0.12163 0.30089 0.83102 0.0
C2711 C 0.10126 0.2831 0.84469 0.0
N2712 N 0.09906 0.34255 0.84849 0.0
C2713 C 0.07931 0.32524 0.86234 0.0
Co2714 Co 0.11442 0.68458 0.35683 0.0
Co2715 Co 0.16031 0.63221 0.37831 0.0
O2716 O 0.14698 0.67119 0.37925 0.0
C2717 C 0.16411 0.72156 0.33911 0.0
O2718 O 0.17901 0.69852 0.33711 0.0
C2719 C 0.14585 0.64391 0.43988 0.0
O2720 O 0.12204 0.65334 0.42834 0.0
O2721 O 0.12003 0.61466 0.38123 0.0
O2722 O 0.09108 0.64916 0.3658 0.0
H2723 H 0.16681 0.53059 0.34185 0.0
H2724 H 0.14285 0.72331 0.40174 0.0
O2725 O 0.1381 0.7198 0.34715 0.0
H2726 H 0.04241 0.70575 0.43189 0.0
H2727 H 0.05542 0.76104 0.31269 0.0
H2728 H 0.06858 0.65685 0.31802 0.0
H2729 H 0.05851 0.68475 0.38647 0.0
H2730 H 0.0916 0.74237 0.3465 0.0
O2731 O 0.16435 0.63366 0.423 0.0
H2732 H 0.14597 0.57839 0.34418 0.0
H2733 H 0.20553 0.60373 0.41223 0.0
H2734 H 0.0306 0.67447 0.2856 0.0
H2735 H 0.12757 0.74477 0.44717 0.0
H2736 H 0.02432 0.72698 0.28219 0.0
H2737 H 0.07712 0.73595 0.46248 0.0
O2738 O 0.12698 0.66619 0.32168 0.0
H2739 H 0.24455 0.70038 0.40668 0.0
H2740 H 0.20915 0.62224 0.33999 0.0
H2741 H 0.25857 0.64395 0.33549 0.0
H2742 H 0.27658 0.68327 0.36905 0.0
H2743 H 0.19517 0.67832 0.41017 0.0
H2744 H 0.2256 0.55583 0.41164 0.0
H2745 H 0.20642 0.51906 0.37591 0.0
O2746 O 0.15602 0.63082 0.3336 0.0
C2747 C 0.09527 0.62388 0.37462 0.0
C2748 C 0.17492 0.54641 0.35766 0.0
C2749 C 0.20811 0.56057 0.39677 0.0
N2750 N 0.17459 0.59384 0.37825 0.0
C2751 C 0.16348 0.57355 0.35892 0.0
C2752 C 0.19648 0.58759 0.39715 0.0
C2753 C 0.19732 0.53993 0.37676 0.0
C2754 C 0.1207 0.71974 0.40804 0.0
N2755 N 0.1015 0.703 0.39136 0.0
C2756 C 0.11224 0.73186 0.43383 0.0
C2757 C 0.08392 0.72681 0.44248 0.0
C2758 C 0.06443 0.70985 0.42529 0.0
C2759 C 0.07366 0.69804 0.39964 0.0
C2760 C 0.05796 0.7381 0.31395 0.0
C2761 C 0.06523 0.67963 0.3176 0.0
C2762 C 0.07849 0.72739 0.33302 0.0
N2763 N 0.08228 0.69852 0.33429 0.0
C2764 C 0.04395 0.68952 0.29885 0.0
C2765 C 0.04052 0.71899 0.29685 0.0
C2766 C 0.1422 0.64556 0.31472 0.0
C2767 C 0.23699 0.68319 0.392 0.0
C2768 C 0.21681 0.63941 0.3546 0.0
C2769 C 0.24483 0.65157 0.352 0.0
C2770 C 0.25493 0.67361 0.37085 0.0
N2771 N 0.19937 0.64889 0.37543 0.0
C2772 C 0.20909 0.67053 0.39396 0.0
Co2773 Co 0.90117 0.31641 0.36099 0.0
Co2774 Co 0.86801 0.37668 0.38279 0.0
O2775 O 0.87405 0.33602 0.38374 0.0
C2776 C 0.84497 0.28806 0.34623 0.0
O2777 O 0.83558 0.31378 0.34196 0.0
C2778 C 0.87709 0.39029 0.44684 0.0
O2779 O 0.89315 0.41315 0.43983 0.0
O2780 O 0.91023 0.3862 0.38751 0.0
O2781 O 0.93075 0.34872 0.3665 0.0
H2782 H 0.88427 0.47934 0.35198 0.0
H2783 H 0.87269 0.28582 0.40923 0.0
O2784 O 0.87108 0.28478 0.35434 0.0
H2785 H 0.97716 0.28839 0.43358 0.0
H2786 H 0.94552 0.22745 0.325 0.0
H2787 H 0.94152 0.33256 0.31483 0.0
H2788 H 0.95929 0.30922 0.38823 0.0
H2789 H 0.91665 0.25539 0.35776 0.0
O2790 O 0.86484 0.37424 0.42683 0.0
H2791 H 0.89389 0.42771 0.35326 0.0
H2792 H 0.8277 0.4129 0.4133 0.0
H2793 H 0.969 0.30526 0.2804 0.0
H2794 H 0.8896 0.26461 0.45474 0.0
H2795 H 0.97137 0.25232 0.28551 0.0
H2796 H 0.94216 0.26596 0.46722 0.0
O2797 O 0.88772 0.33477 0.32548 0.0
H2798 H 0.77325 0.32555 0.40613 0.0
H2799 H 0.82207 0.39521 0.342 0.0
H2800 H 0.76985 0.38315 0.33472 0.0
H2801 H 0.74507 0.34819 0.36702 0.0
H2802 H 0.82554 0.33773 0.41228 0.0
H2803 H 0.81755 0.46436 0.41294 0.0
H2804 H 0.84552 0.49782 0.38185 0.0
O2805 O 0.87207 0.37779 0.33851 0.0
C2806 C 0.9318 0.37401 0.37749 0.0
C2807 C 0.8718 0.46494 0.36556 0.0
C2808 C 0.83435 0.45653 0.39979 0.0
N2809 N 0.86127 0.41738 0.38321 0.0
C2810 C 0.87714 0.43571 0.36634 0.0
C2811 C 0.84024 0.42746 0.39996 0.0
C2812 C 0.85015 0.47532 0.38235 0.0
C2813 C 0.89561 0.28624 0.41438 0.0
N2814 N 0.915 0.29859 0.39601 0.0
C2815 C 0.90505 0.27434 0.44025 0.0
C2816 C 0.93455 0.27511 0.44725 0.0
C2817 C 0.95419 0.28767 0.42837 0.0
C2818 C 0.94396 0.29942 0.40273 0.0
C2819 C 0.94471 0.2505 0.32257 0.0
C2820 C 0.94237 0.30953 0.31714 0.0
C2821 C 0.92862 0.26646 0.3412 0.0
N2822 N 0.92744 0.29556 0.33818 0.0
C2823 C 0.95789 0.29416 0.29754 0.0
C2824 C 0.95916 0.26446 0.3004 0.0
C2825 C 0.87938 0.35956 0.31921 0.0
C2826 C 0.78378 0.3409 0.39199 0.0
C2827 C 0.81149 0.3798 0.35601 0.0
C2828 C 0.78189 0.37315 0.35185 0.0
C2829 C 0.768 0.35356 0.37 0.0
N2830 N 0.82683 0.36733 0.37766 0.0
C2831 C 0.81338 0.34802 0.39547 0.0
C2832 C 0.12979 0.27304 0.38874 0.0
C2833 C 0.12777 0.28631 0.36191 0.0
H2834 H 0.11855 0.23656 0.41392 0.0
C2835 C 0.11608 0.27015 0.3381 0.0
H2836 H 0.13858 0.28497 0.40746 0.0
C2837 C 0.10454 0.24185 0.34175 0.0
C2838 C 0.10418 0.22972 0.3693 0.0
H2839 H 0.11386 0.28003 0.31722 0.0
H2840 H 0.09449 0.23018 0.32346 0.0
C2841 C 0.11783 0.24533 0.39247 0.0
C2842 C 0.2906 0.63133 0.85293 0.0
C2843 C 0.30571 0.64688 0.87508 0.0
H2844 H 0.24958 0.61818 0.83396 0.0
C2845 C 0.29022 0.66357 0.89415 0.0
H2846 H 0.30184 0.61858 0.83772 0.0
C2847 C 0.2601 0.66335 0.89208 0.0
C2848 C 0.24495 0.64643 0.87094 0.0
H2849 H 0.30124 0.67618 0.9113 0.0
H2850 H 0.2487 0.67544 0.90771 0.0
C2851 C 0.26057 0.63112 0.85088 0.0
C2852 C 0.87497 0.76769 0.42408 0.0
C2853 C 0.88008 0.78259 0.3983 0.0
H2854 H 0.87208 0.72671 0.4448 0.0
C2855 C 0.87935 0.76711 0.37232 0.0
H2856 H 0.87452 0.77922 0.44437 0.0
C2857 C 0.87733 0.73701 0.37262 0.0
C2858 C 0.87579 0.72213 0.39883 0.0
H2859 H 0.88293 0.77804 0.35217 0.0
H2860 H 0.88001 0.72536 0.35267 0.0
C2861 C 0.87281 0.73764 0.42435 0.0
C2862 C 0.80379 0.4106 0.84344 0.0
C2863 C 0.82011 0.39048 0.85836 0.0
H2864 H 0.76169 0.42656 0.83547 0.0
C2865 C 0.80562 0.36768 0.87235 0.0
H2866 H 0.81429 0.42789 0.83159 0.0
C2867 C 0.77575 0.36662 0.87395 0.0
C2868 C 0.75964 0.38847 0.86185 0.0
H2869 H 0.81739 0.35133 0.88333 0.0
H2870 H 0.76542 0.34935 0.88602 0.0
C2871 C 0.77367 0.40973 0.84536 0.0
C2872 C 0.15699 0.74122 0.65034 0.0
C2873 C 0.13349 0.72132 0.65276 0.0
H2874 H 0.17183 0.78539 0.65346 0.0
C2875 C 0.10775 0.73044 0.66465 0.0
H2876 H 0.1773 0.73479 0.64215 0.0
C2877 C 0.10452 0.75942 0.67095 0.0
C2878 C 0.12717 0.77954 0.66595 0.0
H2879 H 0.08941 0.71548 0.66773 0.0
H2880 H 0.08359 0.7663 0.67706 0.0
C2881 C 0.15399 0.77002 0.6574 0.0
C2882 C 0.76026 0.64976 0.12313 0.0
C2883 C 0.73981 0.64097 0.14355 0.0
H2884 H 0.80492 0.65987 0.115 0.0
C2885 C 0.74825 0.64155 0.17278 0.0
H2886 H 0.7543 0.65014 0.10043 0.0
C2887 C 0.77718 0.64763 0.18111 0.0
C2888 C 0.79819 0.6532 0.16035 0.0
H2889 H 0.73295 0.63546 0.18909 0.0
H2890 H 0.78357 0.64531 0.20354 0.0
C2891 C 0.78921 0.65597 0.13148 0.0
C2892 C 0.93467 0.22174 0.65916 0.0
C2893 C 0.91278 0.20239 0.6683 0.0
H2894 H 0.94432 0.25958 0.63538 0.0
C2895 C 0.8848 0.21217 0.67106 0.0
H2896 H 0.95649 0.21485 0.65715 0.0
C2897 C 0.87745 0.238 0.65827 0.0
C2898 C 0.89832 0.25439 0.64339 0.0
H2899 H 0.86753 0.19762 0.67836 0.0
H2900 H 0.85513 0.24376 0.65788 0.0
C2901 C 0.92734 0.24692 0.64558 0.0
C2902 C 0.26507 0.3892 0.09735 0.0
C2903 C 0.27537 0.39623 0.12547 0.0
H2904 H 0.22926 0.37481 0.06996 0.0
C2905 C 0.25698 0.39063 0.14847 0.0
H2906 H 0.27878 0.39235 0.07912 0.0
C2907 C 0.22813 0.3804 0.14308 0.0
C2908 C 0.21752 0.37526 0.11465 0.0
H2909 H 0.26444 0.39545 0.17039 0.0
H2910 H 0.21373 0.37836 0.16093 0.0
C2911 C 0.23671 0.37863 0.09207 0.0
C2912 C 0.33573 0.15258 0.25715 0.0
C2913 C 0.3629 0.1595 0.24597 0.0
H2914 H 0.3119 0.14802 0.29562 0.0
C2915 C 0.38383 0.17551 0.26296 0.0
H2916 H 0.31911 0.14066 0.24431 0.0
C2917 C 0.37929 0.18065 0.29196 0.0
C2918 C 0.35418 0.16905 0.30427 0.0
H2919 H 0.40477 0.18174 0.25459 0.0
H2920 H 0.3972 0.18949 0.30544 0.0
C2921 C 0.3314 0.15733 0.28635 0.0
C2922 C 0.34645 0.88253 0.74769 0.0
C2923 C 0.35766 0.86457 0.72674 0.0
H2924 H 0.34925 0.89729 0.7915 0.0
C2925 C 0.37705 0.84401 0.73535 0.0
H2926 H 0.33091 0.89816 0.74184 0.0
C2927 C 0.38729 0.84337 0.76372 0.0
C2928 C 0.37838 0.8633 0.78408 0.0
H2929 H 0.38563 0.82942 0.71992 0.0
H2930 H 0.40335 0.82816 0.76929 0.0
C2931 C 0.35684 0.88198 0.77618 0.0
C2932 C 0.66934 0.87054 0.25585 0.0
C2933 C 0.64413 0.87451 0.23914 0.0
H2934 H 0.68667 0.8612 0.29799 0.0
C2935 C 0.61724 0.86627 0.25048 0.0
H2936 H 0.69038 0.87649 0.24753 0.0
C2937 C 0.61527 0.85521 0.27794 0.0
C2938 C 0.63987 0.85479 0.2961 0.0
H2939 H 0.59732 0.86939 0.2387 0.0
H2940 H 0.59395 0.84997 0.28603 0.0
C2941 C 0.66722 0.86123 0.28447 0.0
C2942 C 0.65383 0.1682 0.76774 0.0
C2943 C 0.67493 0.15879 0.78744 0.0
H2944 H 0.63866 0.1686 0.72363 0.0
C2945 C 0.69985 0.14723 0.77682 0.0
H2946 H 0.63464 0.1778 0.7752 0.0
C2947 C 0.70233 0.14254 0.74744 0.0
C2948 C 0.67991 0.14917 0.72798 0.0
H2949 H 0.71687 0.14039 0.79126 0.0
H2950 H 0.72107 0.13198 0.74013 0.0
C2951 C 0.65625 0.16331 0.73817 0.0
C2952 C 0.85433 0.76286 0.67136 0.0
C2953 C 0.86717 0.77997 0.64996 0.0
H2954 H 0.84713 0.71994 0.68752 0.0
C2955 C 0.87943 0.76645 0.62651 0.0
H2956 H 0.84459 0.77269 0.68961 0.0
C2957 C 0.88007 0.73687 0.6249 0.0
C2958 C 0.8692 0.71976 0.64709 0.0
H2959 H 0.88959 0.77863 0.60959 0.0
H2960 H 0.89055 0.72748 0.60684 0.0
C2961 C 0.85547 0.73277 0.67 0.0
C2962 C 0.758 0.34453 0.18172 0.0
C2963 C 0.78002 0.33159 0.16717 0.0
H2964 H 0.71271 0.3504 0.18271 0.0
C2965 C 0.77316 0.30807 0.14872 0.0
H2966 H 0.76305 0.36268 0.19615 0.0
C2967 C 0.74423 0.30095 0.14106 0.0
C2968 C 0.72246 0.3176 0.15175 0.0
H2969 H 0.78996 0.29798 0.13722 0.0
H2970 H 0.73944 0.28545 0.12379 0.0
C2971 C 0.72924 0.33753 0.17404 0.0
C2972 C 0.16125 0.24247 0.67748 0.0
C2973 C 0.16906 0.23062 0.65128 0.0
H2974 H 0.14971 0.28049 0.69946 0.0
C2975 C 0.17744 0.24901 0.62886 0.0
H2976 H 0.15466 0.22865 0.695 0.0
C2977 C 0.17427 0.27851 0.63109 0.0
C2978 C 0.16301 0.2901 0.65598 0.0
H2979 H 0.18424 0.2403 0.60868 0.0
H2980 H 0.17839 0.29182 0.61251 0.0
C2981 C 0.15837 0.27216 0.67989 0.0
C2982 C 0.2338 0.69318 0.14007 0.0
C2983 C 0.22658 0.66368 0.14257 0.0
H2984 H 0.26798 0.72593 0.14153 0.0
C2985 C 0.24637 0.6457 0.15542 0.0
H2986 H 0.21844 0.70748 0.13083 0.0
C2987 C 0.27429 0.65634 0.16244 0.0
C2988 C 0.28289 0.68486 0.15586 0.0
H2989 H 0.24072 0.62313 0.15873 0.0
H2990 H 0.28993 0.64145 0.17001 0.0
C2991 C 0.26197 0.70379 0.14669 0.0
C2992 C 0.79868 0.23748 0.38675 0.0
C2993 C 0.80451 0.21171 0.37284 0.0
H2994 H 0.80655 0.28312 0.38783 0.0
C2995 C 0.81678 0.21233 0.34566 0.0
H2996 H 0.78931 0.23727 0.40781 0.0
C2997 C 0.82729 0.23844 0.33465 0.0
C2998 C 0.82445 0.26391 0.3503 0.0
H2999 H 0.82156 0.19259 0.33474 0.0
H3000 H 0.84006 0.23844 0.31552 0.0
C3001 C 0.80836 0.26363 0.37527 0.0
C3002 C 0.26294 0.37321 0.81209 0.0
C3003 C 0.24025 0.36556 0.83048 0.0
H3004 H 0.3085 0.38323 0.80884 0.0
C3005 C 0.24685 0.35701 0.85859 0.0
H3006 H 0.25846 0.38003 0.79027 0.0
C3007 C 0.27529 0.35901 0.8691 0.0
C3008 C 0.29769 0.36967 0.85178 0.0
H3009 H 0.22984 0.35075 0.87311 0.0
H3010 H 0.27948 0.35353 0.89129 0.0
C3011 C 0.29157 0.37527 0.82272 0.0
C3012 C 0.20266 0.78247 0.37636 0.0
C3013 C 0.18637 0.80476 0.36576 0.0
H3014 H 0.20939 0.73748 0.37426 0.0
C3015 C 0.16948 0.80068 0.34043 0.0
H3016 H 0.21563 0.78541 0.39609 0.0
C3017 C 0.1654 0.77317 0.32836 0.0
C3018 C 0.17878 0.75001 0.34126 0.0
H3019 H 0.15657 0.81769 0.33224 0.0
H3020 H 0.14923 0.76937 0.3112 0.0
C3021 C 0.19926 0.75517 0.36377 0.0
C3022 C 0.78438 0.6214 0.92799 0.0
C3023 C 0.80407 0.64058 0.91479 0.0
H3024 H 0.74169 0.60242 0.92788 0.0
C3025 C 0.79407 0.65821 0.89255 0.0
H3026 H 0.79112 0.60792 0.94552 0.0
C3027 C 0.76516 0.65584 0.88303 0.0
C3028 C 0.74589 0.63552 0.8953 0.0
H3029 H 0.80871 0.67331 0.88191 0.0
H3030 H 0.75806 0.6696 0.86586 0.0
C3031 C 0.75586 0.61838 0.91789 0.0
C3032 C 0.65155 0.87439 0.7683 0.0
C3033 C 0.64163 0.8983 0.78303 0.0
H3034 H 0.64642 0.8465 0.73132 0.0
C3035 C 0.6173 0.91148 0.77169 0.0
H3036 H 0.67008 0.86348 0.77651 0.0
C3037 C 0.60234 0.90024 0.7473 0.0
C3038 C 0.61286 0.87721 0.7318 0.0
H3039 H 0.60924 0.93022 0.78205 0.0
H3040 H 0.58312 0.91052 0.73991 0.0
C3041 C 0.63753 0.86417 0.74277 0.0
C3042 C 0.66982 0.15289 0.25441 0.0
C3043 C 0.65932 0.17918 0.24564 0.0
H3044 H 0.67098 0.12182 0.2878 0.0
C3045 C 0.64934 0.19813 0.26644 0.0
H3046 H 0.67786 0.13807 0.23884 0.0
C3047 C 0.6452 0.1887 0.29455 0.0
C3048 C 0.65131 0.1605 0.30177 0.0
H3049 H 0.6411 0.21857 0.26021 0.0
H3050 H 0.63426 0.2021 0.30944 0.0
C3051 C 0.66562 0.14351 0.2823 0.0
C3052 C 0.44071 0.12438 0.73141 0.0
C3053 C 0.42392 0.14253 0.71484 0.0
H3054 H 0.44515 0.1008 0.76986 0.0
C3055 C 0.39999 0.15455 0.72732 0.0
H3056 H 0.45964 0.11519 0.72286 0.0
C3057 C 0.39298 0.14811 0.75578 0.0
C3058 C 0.40916 0.12874 0.77171 0.0
H3059 H 0.3865 0.16856 0.71504 0.0
H3060 H 0.37498 0.15821 0.76521 0.0
C3061 C 0.43249 0.11633 0.7587 0.0
C3062 C 0.36582 0.8455 0.26408 0.0
C3063 C 0.34785 0.86068 0.24557 0.0
H3064 H 0.37425 0.83239 0.3072 0.0
C3065 C 0.32057 0.86784 0.25445 0.0
H3066 H 0.38667 0.83908 0.25723 0.0
C3067 C 0.31326 0.86367 0.28314 0.0
C3068 C 0.33344 0.85266 0.30283 0.0
H3069 H 0.30635 0.87928 0.24024 0.0
H3070 H 0.29368 0.8726 0.29054 0.0
C3071 C 0.35853 0.84126 0.29252 0.0
C3072 C 0.07972 0.10079 0.53211 0.0
C3073 C 0.10753 0.09199 0.5393 0.0
H3074 H 0.04957 0.1104 0.49834 0.0
C3075 C 0.12352 0.07926 0.51797 0.0
H3076 H 0.0669 0.11062 0.54823 0.0
C3077 C 0.11349 0.07905 0.48918 0.0
C3078 C 0.08748 0.09175 0.48158 0.0
H3079 H 0.14511 0.07255 0.52291 0.0
H3080 H 0.12761 0.07197 0.47272 0.0
C3081 C 0.06981 0.10074 0.50351 0.0
C3082 C 0.43466 0.69947 1.00767 0.0
C3083 C 0.44095 0.67493 0.99169 0.0
H3084 H 0.41832 0.71526 0.04705 0.0
C3085 C 0.44261 0.6484 1.00573 0.0
H3086 H 0.43322 0.72022 0.99752 0.0
C3087 C 0.43427 0.64573 0.03417 0.0
C3088 C 0.42392 0.66946 0.04851 0.0
H3089 H 0.44751 0.6292 0.99388 0.0
H3090 H 0.43369 0.62475 0.04411 0.0
C3091 C 0.42558 0.6966 0.0358 0.0
C3092 C 0.92631 0.92725 0.51529 0.0
C3093 C 0.905 0.93184 0.49394 0.0
H3094 H 0.9357 0.92056 0.55993 0.0
C3095 C 0.87761 0.93957 0.50259 0.0
H3096 H 0.94766 0.92145 0.50937 0.0
C3097 C 0.87048 0.93849 0.53173 0.0
C3098 C 0.89076 0.92998 0.55268 0.0
H3099 H 0.8607 0.94331 0.4867 0.0
H3100 H 0.84832 0.94139 0.53732 0.0
C3101 C 0.91935 0.92663 0.54434 0.0
C3102 C 0.60287 0.35779 0.98307 0.0
C3103 C 0.6154 0.38215 0.96991 0.0
H3104 H 0.593 0.33829 0.02337 0.0
C3105 C 0.6193 0.4082 0.98537 0.0
H3106 H 0.60011 0.33745 0.97148 0.0
C3107 C 0.61524 0.4087 0.01487 0.0
C3108 C 0.6071 0.38318 0.02881 0.0
H3109 H 0.62904 0.42718 0.97545 0.0
H3110 H 0.62205 0.42794 0.02716 0.0
C3111 C 0.59885 0.35828 0.01268 0.0
C3112 C 0.09802 0.9133 0.53314 0.0
C3113 C 0.1208 0.91901 0.55332 0.0
H3114 H 0.08676 0.90405 0.48894 0.0
C3115 C 0.14816 0.92847 0.54397 0.0
H3116 H 0.07685 0.90573 0.5401 0.0
C3117 C 0.15394 0.92697 0.51476 0.0
C3118 C 0.13213 0.91678 0.49514 0.0
H3119 H 0.16606 0.9326 0.55929 0.0
H3120 H 0.17599 0.9306 0.50799 0.0
C3121 C 0.10374 0.91199 0.50401 0.0
C3122 C 0.58938 0.6508 0.99244 0.0
C3123 C 0.59378 0.62815 0.97308 0.0
H3124 H 0.5888 0.66416 0.03666 0.0
C3125 C 0.59324 0.5999 0.98377 0.0
H3126 H 0.58926 0.67279 0.98505 0.0
C3127 C 0.59417 0.59512 0.01346 0.0
C3128 C 0.59389 0.61831 0.03293 0.0
H3129 H 0.59575 0.58179 0.96943 0.0
H3130 H 0.59761 0.57364 0.02116 0.0
C3131 C 0.58913 0.64584 0.02215 0.0
C3132 C 0.83788 0.07319 0.5014 0.0
C3133 C 0.85786 0.07898 0.47988 0.0
H3134 H 0.83134 0.07197 0.54674 0.0
C3135 C 0.88752 0.08008 0.48682 0.0
H3136 H 0.81487 0.07281 0.49635 0.0
C3137 C 0.89688 0.08037 0.51558 0.0
C3138 C 0.87659 0.07888 0.53734 0.0
H3139 H 0.90317 0.08498 0.47049 0.0
H3140 H 0.91957 0.08531 0.52084 0.0
C3141 C 0.84729 0.07279 0.53018 0.0
C3142 C 0.43282 0.38992 1.00557 0.0
C3143 C 0.42359 0.41223 0.98793 0.0
H3144 H 0.43905 0.37564 0.049 0.0
C3145 C 0.42153 0.43972 0.99983 0.0
H3146 H 0.43447 0.36848 0.9967 0.0
C3147 C 0.42537 0.44413 0.02946 0.0
C3148 C 0.42976 0.42072 0.0478 0.0
H3149 H 0.41466 0.45725 0.98657 0.0
H3150 H 0.42099 0.46501 0.03831 0.0
C3151 C 0.43576 0.39409 0.03549 0.0
C3152 C 0.51729 0.11232 0.11224 0.0
C3153 C 0.53366 0.13845 0.11524 0.0
H3154 H 0.47468 0.09188 0.11155 0.0
C3155 C 0.51986 0.1645 0.1134 0.0
H3156 H 0.52761 0.09204 0.11382 0.0
C3157 C 0.48978 0.16444 0.111 0.0
C3158 C 0.47322 0.13832 0.11139 0.0
H3159 H 0.53226 0.18489 0.1157 0.0
H3160 H 0.47952 0.18476 0.11218 0.0
C3161 C 0.48714 0.11225 0.11073 0.0
C3162 C 0.3851 0.9942 0.62117 0.0
C3163 C 0.37115 0.98015 0.59749 0.0
H3164 H 0.40991 0.0297 0.63763 0.0
C3165 C 0.3729 0.99309 0.57028 0.0
H3166 H 0.38414 0.98543 0.64252 0.0
C3167 C 0.38784 0.02025 0.56752 0.0
C3168 C 0.40205 0.03379 0.59172 0.0
H3169 H 0.36212 0.98278 0.55161 0.0
H3170 H 0.38828 0.03056 0.54675 0.0
C3171 C 0.40051 0.02002 0.61825 0.0
C3172 C 0.48668 0.87214 0.11896 0.0
C3173 C 0.47365 0.89854 0.12121 0.0
H3174 H 0.52603 0.85111 0.11321 0.0
C3175 C 0.48925 0.92409 0.11455 0.0
H3176 H 0.4748 0.85221 0.12407 0.0
C3177 C 0.51859 0.9235 0.10879 0.0
C3178 C 0.53231 0.8973 0.10899 0.0
H3179 H 0.47948 0.94463 0.11631 0.0
H3180 H 0.53109 0.9437 0.10655 0.0
C3181 C 0.5158 0.87147 0.11238 0.0
C3182 C 0.66917 0.98861 0.59948 0.0
C3183 C 0.65655 0.01317 0.60974 0.0
H3184 H 0.6623 0.94444 0.58707 0.0
C3185 C 0.62635 0.01387 0.60958 0.0
H3186 H 0.69247 0.98775 0.5994 0.0
C3187 C 0.60897 0.98931 0.60212 0.0
C3188 C 0.62156 0.96353 0.59503 0.0
H3189 H 0.61619 0.03295 0.61672 0.0
H3190 H 0.5858 0.98984 0.60424 0.0
C3191 C 0.65175 0.96394 0.59198 0.0
C3192 C 0.52441 0.89842 0.91754 0.0
C3193 C 0.51856 0.87032 0.90704 0.0
H3194 H 0.55722 0.92982 0.93235 0.0
C3195 C 0.53973 0.85013 0.90991 0.0
H3196 H 0.50804 0.91412 0.916 0.0
C3197 C 0.56756 0.85883 0.92027 0.0
C3198 C 0.57473 0.88809 0.92628 0.0
H3199 H 0.53528 0.82813 0.90251 0.0
H3200 H 0.58413 0.84333 0.92014 0.0
C3201 C 0.55238 0.90725 0.92729 0.0
C3202 C 0.62676 0.99799 0.42988 0.0
C3203 C 0.60808 0.97708 0.41604 0.0
H3204 H 0.6354 0.04309 0.43825 0.0
C3205 C 0.58044 0.98472 0.40641 0.0
H3206 H 0.64801 0.99268 0.43782 0.0
C3207 C 0.57321 0.01332 0.40694 0.0
C3208 C 0.59327 0.03465 0.41753 0.0
H3209 H 0.56514 0.969 0.39634 0.0
H3210 H 0.55327 0.0191 0.39624 0.0
C3211 C 0.61934 0.02672 0.43062 0.0
C3212 C 0.51978 0.1236 0.92361 0.0
C3213 C 0.49809 0.14347 0.92451 0.0
H3214 H 0.56475 0.11736 0.91927 0.0
C3215 C 0.50622 0.17278 0.92877 0.0
H3216 H 0.5141 0.10085 0.92041 0.0
C3217 C 0.53537 0.18237 0.92778 0.0
C3218 C 0.55671 0.16275 0.92258 0.0
H3219 H 0.48998 0.18861 0.92936 0.0
H3220 H 0.54069 0.20533 0.92805 0.0
C3221 C 0.54884 0.13313 0.92276 0.0
C3222 C 0.40703 0.99781 0.4207 0.0
C3223 C 0.38486 0.97748 0.42674 0.0
H3224 H 0.41783 0.04207 0.41258 0.0
C3225 C 0.35789 0.98634 0.4351 0.0
H3226 H 0.42784 0.99114 0.414 0.0
C3227 C 0.35194 0.01529 0.43406 0.0
C3228 C 0.37295 0.0353 0.4243 0.0
H3229 H 0.34063 0.97059 0.43979 0.0
H3230 H 0.33021 0.02148 0.438 0.0
C3231 C 0.4011 0.02675 0.41955 0.0
C3232 C 0.10066 0.49797 0.05257 0.0
C3233 C 0.09047 0.4849 0.0777 0.0
H3234 H 0.11504 0.53735 0.03301 0.0
C3235 C 0.0791 0.50199 0.09917 0.0
H3236 H 0.10898 0.48522 0.0354 0.0
C3237 C 0.08202 0.532 0.09738 0.0
C3238 C 0.09627 0.54481 0.07418 0.0
H3239 H 0.071 0.49239 0.11867 0.0
H3240 H 0.07664 0.5449 0.11578 0.0
C3241 C 0.1037 0.52778 0.05091 0.0
C3242 C 0.0959 0.52056 0.86193 0.0
C3243 C 0.10046 0.53368 0.83521 0.0
H3244 H 0.09587 0.48116 0.88535 0.0
C3245 C 0.10086 0.51646 0.81027 0.0
H3246 H 0.09531 0.53345 0.88142 0.0
C3247 C 0.10192 0.48679 0.81269 0.0
C3248 C 0.10144 0.47417 0.83986 0.0
H3249 H 0.10417 0.52592 0.78935 0.0
H3250 H 0.10561 0.47401 0.79368 0.0
C3251 C 0.09632 0.49075 0.86423 0.0
C3252 C 0.05081 0.59781 0.35653 0.0
C3253 C 0.06892 0.60645 0.3802 0.0
H3254 H 1.00717 0.59343 0.33974 0.0
C3255 C 0.05696 0.60976 0.40724 0.0
H3256 H 0.05967 0.59577 0.33537 0.0
C3257 C 0.02701 0.60928 0.40957 0.0
C3258 C 1.0089 0.60471 0.38501 0.0
H3259 H 0.07051 0.61698 0.42562 0.0
H3260 H 0.01817 0.61569 0.4298 0.0
C3261 C 0.02079 0.59667 0.35899 0.0
C3262 C 0.95451 0.52409 0.94056 0.0
C3263 C 0.95214 0.54899 0.92415 0.0
H3264 H 0.95951 0.47871 0.94011 0.0
C3265 C 0.95798 0.54809 0.89474 0.0
H3266 H 0.94962 0.5243 0.9632 0.0
C3267 C 0.96258 0.52182 0.88125 0.0
C3268 C 0.96219 0.49632 0.89719 0.0
H3269 H 0.95575 0.567 0.88161 0.0
H3270 H 0.96378 0.52104 0.85802 0.0
C3271 C 0.96023 0.49803 0.92728 0.0
C3272 C 1.00085 0.40467 0.34834 0.0
C3273 C 0.0177 0.40865 0.37374 0.0
H3274 H 0.9597 0.38979 0.32997 0.0
C3275 C 1.00452 0.40624 0.40053 0.0
H3276 H 0.01068 0.40595 0.32753 0.0
C3277 C 0.97536 0.39734 0.40191 0.0
C3278 C 0.95946 0.39036 0.37653 0.0
H3279 H 0.01732 0.40898 0.42037 0.0
H3280 H 0.966 0.39357 0.42269 0.0
C3281 C 0.9719 0.39517 0.34975 0.0
C3282 C 0.92103 0.47324 0.17105 0.0
C3283 C 0.90833 0.46475 0.14423 0.0
H3284 H 0.92851 0.50792 0.20175 0.0
C3285 C 0.8996 0.48574 0.12499 0.0
H3286 H 0.92722 0.45718 0.18644 0.0
C3287 C 0.9 0.51442 0.13381 0.0
C3288 C 0.9092 0.52247 0.16193 0.0
H3289 H 0.88925 0.47953 0.10446 0.0
H3290 H 0.89064 0.5298 0.1195 0.0
C3291 C 0.92152 0.50215 0.1799 0.0
C3292 C 0.9866 0.40507 0.58475 0.0
C3293 C 0.97218 0.40449 0.61096 0.0
H3294 H 0.02722 0.40268 0.56419 0.0
C3295 C 0.9885 0.40724 0.63689 0.0
H3296 H 0.97446 0.40294 0.56446 0.0
C3297 C 0.01862 0.40639 0.63665 0.0
C3298 C 0.03257 0.40336 0.61052 0.0
H3299 H 0.97797 0.40647 0.65736 0.0
H3300 H 0.03079 0.40589 0.65691 0.0
C3301 C 0.01668 0.40457 0.58454 0.0
C3302 C 0.02907 0.57091 0.62612 0.0
C3303 C 0.04003 0.56949 0.65467 0.0
H3304 H 0.99333 0.58224 0.59888 0.0
C3305 C 0.02028 0.56861 0.6771 0.0
H3306 H 0.04351 0.57088 0.60826 0.0
C3307 C 0.99147 0.5749 0.67159 0.0
C3308 C 0.98205 0.58149 0.64361 0.0
H3309 H 0.02775 0.56705 0.6993 0.0
H3310 H 0.97752 0.57777 0.68954 0.0
C3311 C 1.00033 0.57745 0.62068 0.0
C3312 C 0.95046 0.13891 0.39053 0.0
C3313 C 0.93637 0.11143 0.39196 0.0
H3314 H 0.9904 0.16422 0.38947 0.0
C3315 C 0.95365 0.08748 0.39184 0.0
H3316 H 0.938 0.1579 0.39119 0.0
C3317 C 0.9842 0.09099 0.39084 0.0
C3318 C 0.99834 0.11869 0.39046 0.0
H3319 H 0.94368 0.06619 0.39443 0.0
H3320 H 0.99675 0.07207 0.39194 0.0
C3321 C 0.98074 0.14249 0.38968 0.0
C3322 C 0.36218 0.49174 0.89592 0.0
C3323 C 0.37781 0.47508 0.87695 0.0
H3324 H 0.34969 0.53298 0.90938 0.0
C3325 C 0.39339 0.49009 0.85553 0.0
H3326 H 0.34971 0.48164 0.91275 0.0
C3327 C 0.3934 0.52065 0.85361 0.0
C3328 C 0.37769 0.53698 0.87293 0.0
H3329 H 0.40575 0.47831 0.84047 0.0
H3330 H 0.40573 0.53145 0.83709 0.0
C3331 C 0.3621 0.52172 0.89395 0.0
C3332 C 0.03432 0.87459 0.40348 0.0
C3333 C 0.0499 0.90145 0.40352 0.0
H3334 H 0.99343 0.85105 0.40358 0.0
C3335 C 0.03378 0.92626 0.40157 0.0
H3336 H 0.04575 0.85496 0.4051 0.0
C3337 C 1.003 0.92407 0.401 0.0
C3338 C 0.98755 0.89698 0.40231 0.0
H3339 H 0.0449 0.94734 0.4022 0.0
H3340 H 0.99138 0.94362 0.40083 0.0
C3341 C 1.00399 0.87237 0.4027 0.0
C3342 C 0.68399 0.51355 0.82744 0.0
C3343 C 0.66998 0.49094 0.84269 0.0
H3344 H 0.6902 0.55926 0.82099 0.0
C3345 C 0.6496 0.49854 0.86288 0.0
H3346 H 0.69981 0.50881 0.81168 0.0
C3347 C 0.64416 0.5276 0.86829 0.0
C3348 C 0.65863 0.5503 0.85355 0.0
H3349 H 0.63833 0.48203 0.87518 0.0
H3350 H 0.62896 0.53229 0.88468 0.0
C3351 C 0.67832 0.54267 0.83265 0.0
C3352 C 0.97687 0.88623 0.66487 0.0
C3353 C 0.95496 0.86967 0.67857 0.0
H3354 H 0.02215 0.89469 0.65848 0.0
C3355 C 0.96371 0.8491 0.6986 0.0
H3356 H 0.97118 0.90217 0.64915 0.0
C3357 C 0.99338 0.84444 0.70368 0.0
C3358 C 0.0152 0.86041 0.68912 0.0
H3359 H 0.94763 0.83555 0.70921 0.0
H3360 H 0.99916 0.82776 0.71851 0.0
C3361 C 1.00633 0.88184 0.67015 0.0
C3362 C 0.60143 0.49186 0.12288 0.0
C3363 C 0.62529 0.47531 0.11724 0.0
H3364 H 0.58559 0.53441 0.12793 0.0
C3365 C 0.65247 0.49018 0.11516 0.0
H3366 H 0.58013 0.48133 0.12461 0.0
C3367 C 0.65574 0.52031 0.11772 0.0
C3368 C 0.63186 0.53725 0.12174 0.0
H3369 H 0.6715 0.47844 0.11115 0.0
H3370 H 0.67718 0.53038 0.1155 0.0
C3371 C 0.60462 0.52241 0.12482 0.0
C3372 C 0.03248 0.13492 0.69333 0.0
C3373 C 0.01128 0.12529 0.67228 0.0
H3374 H 0.07758 0.14662 0.70322 0.0
C3375 C 0.02079 0.11878 0.64468 0.0
H3376 H 0.0261 0.14019 0.71487 0.0
C3377 C 0.0501 0.12291 0.638 0.0
C3378 C 0.07127 0.13317 0.65873 0.0
H3379 H 1.00539 0.11149 0.62779 0.0
H3380 H 0.05618 0.11849 0.61615 0.0
C3381 C 0.06211 0.1385 0.68675 0.0
C3382 C 0.43046 0.54475 0.13597 0.0
C3383 C 0.40713 0.5628 0.13254 0.0
H3384 H 0.44396 0.50104 0.13888 0.0
C3385 C 0.37905 0.54973 0.13257 0.0
H3386 H 0.45245 0.55393 0.13581 0.0
C3387 C 0.37413 0.51981 0.13453 0.0
C3388 C 0.39716 0.50129 0.13628 0.0
H3389 H 0.36056 0.56278 0.13037 0.0
H3390 H 0.35194 0.51112 0.13353 0.0
C3391 C 0.42554 0.51435 0.13771 0.0
C3392 C 0.38071 0.04642 0.11273 0.0
C3393 C 0.37904 0.0605 0.13969 0.0
H3394 H 0.38562 1.00617 0.08996 0.0
C3395 C 0.37852 0.04285 0.1643 0.0
H3396 H 0.38149 0.05895 0.09325 0.0
C3397 C 0.38155 0.01304 0.16244 0.0
C3398 C 0.38436 0.99908 0.13585 0.0
H3399 H 0.37719 0.05226 0.18558 0.0
H3400 H 0.38253 1.00088 0.18217 0.0
C3401 C 0.38312 0.01607 0.11083 0.0
C3402 C 0.4698 0.82225 0.65324 0.0
C3403 C 0.45018 0.84105 0.64057 0.0
H3404 H 0.51417 0.81318 0.66296 0.0
C3405 C 0.46203 0.86533 0.62639 0.0
H3406 H 0.46173 0.8033 0.66442 0.0
C3407 C 0.49226 0.87118 0.62592 0.0
C3408 C 0.51191 0.85276 0.63919 0.0
H3409 H 0.44792 0.88047 0.61654 0.0
H3410 H 0.50025 0.89064 0.61553 0.0
C3411 C 0.50007 0.82785 0.65234 0.0
C3412 C 0.61203 0.01374 0.08522 0.0
C3413 C 0.62142 0.03576 0.10503 0.0
H3414 H 0.60765 0.96839 0.07551 0.0
C3415 C 0.63558 0.02749 0.13064 0.0
H3416 H 0.60112 0.01908 0.0652 0.0
C3417 C 0.63903 0.99815 0.13675 0.0
C3418 C 0.62904 0.97606 0.11719 0.0
H3419 H 0.64302 0.04363 0.14653 0.0
H3420 H 0.64893 0.99272 0.15724 0.0
C3421 C 0.61602 0.9845 0.09104 0.0
C3422 C 0.56156 0.13481 0.61684 0.0
C3423 C 0.57476 0.15711 0.63412 0.0
H3424 H 0.52226 0.11431 0.59922 0.0
C3425 C 0.5565 0.17761 0.6454 0.0
H3426 H 0.57453 0.11864 0.60759 0.0
C3427 C 0.52614 0.17531 0.64035 0.0
C3428 C 0.51289 0.15234 0.62393 0.0
H3429 H 0.56562 0.19525 0.65875 0.0
H3430 H 0.51297 0.19086 0.65035 0.0
C3431 C 0.53132 0.13245 0.61193 0.0
C3432 C 0.41347 0.01904 0.87463 0.0
C3433 C 0.39268 0.03722 0.86302 0.0
H3434 H 0.42539 0.97586 0.88343 0.0
C3435 C 0.36671 0.02391 0.85158 0.0
H3436 H 0.43382 0.02815 0.88367 0.0
C3437 C 0.36201 0.99362 0.85124 0.0
C3438 C 0.38296 0.97548 0.86258 0.0
H3439 H 0.35015 0.03685 0.84234 0.0
H3440 H 0.34187 0.98441 0.84184 0.0
C3441 C 0.40866 0.98882 0.87454 0.0
C3442 C 0.54281 0.89845 0.44683 0.0
C3443 C 0.54979 0.88088 0.42352 0.0
H3444 H 0.50963 0.91786 0.47018 0.0
C3445 C 0.52664 0.86738 0.407 0.0
H3446 H 0.55976 0.90954 0.45991 0.0
C3447 C 0.4976 0.87213 0.41298 0.0
C3448 C 0.49076 0.89085 0.43543 0.0
H3449 H 0.53098 0.8539 0.3887 0.0
H3450 H 0.48055 0.86198 0.39929 0.0
C3451 C 0.51386 0.90349 0.45254 0.0
C3452 C 0.71465 0.03422 0.84993 0.0
C3453 C 0.69997 0.0544 0.8661 0.0
H3454 H 0.71956 0.98967 0.83888 0.0
C3455 C 0.67884 0.04348 0.88483 0.0
H3456 H 0.73103 0.0416 0.83519 0.0
C3457 C 0.67201 0.01364 0.88665 0.0
C3458 C 0.68634 0.99342 0.87018 0.0
H3459 H 0.66683 0.05808 0.8975 0.0
H3460 H 0.65502 1.00642 0.9008 0.0
C3461 C 0.70815 1.00427 0.85212 0.0
C3462 C 0.44949 0.11792 0.44052 0.0
C3463 C 0.43835 0.13072 0.41554 0.0
H3464 H 0.48694 0.10411 0.46379 0.0
C3465 C 0.45847 0.14137 0.39541 0.0
H3466 H 0.43495 0.10908 0.45637 0.0
C3467 C 0.48844 0.13848 0.3996 0.0
C3468 C 0.49947 0.12457 0.42397 0.0
H3469 H 0.45095 0.15122 0.37575 0.0
H3470 H 0.50289 0.1464 0.38324 0.0
C3471 C 0.47948 0.11479 0.44459 0.0
C3472 C 0.07001 0.40521 0.96548 0.0
C3473 C 0.08876 0.39147 0.94708 0.0
H3474 H 0.05868 0.41491 1.00894 0.0
C3475 C 0.10994 0.3748 0.95989 0.0
H3476 H 0.05361 0.41848 0.95645 0.0
C3477 C 0.11336 0.37338 0.99017 0.0
C3478 C 0.0952 0.38792 1.00863 0.0
H3479 H 0.1251 0.36436 0.94657 0.0
H3480 H 0.13097 0.36164 0.99917 0.0
C3481 C 0.07286 0.4031 0.9957 0.0
C3482 C 0.16748 0.69075 0.99687 0.0
C3483 C 0.15831 0.67118 0.97452 0.0
H3484 H 0.17112 0.69932 0.04263 0.0
C3485 C 0.14373 0.64521 0.98234 0.0
H3486 H 0.17877 0.71098 0.99181 0.0
C3487 C 0.13982 0.6384 0.01148 0.0
C3488 C 0.14948 0.65766 0.03383 0.0
H3489 H 0.13648 0.62947 0.96597 0.0
H3490 H 0.12985 0.61754 0.01664 0.0
C3491 C 0.16284 0.68423 0.02607 0.0
C3492 C 0.89623 0.62408 0.51599 0.0
C3493 C 0.86996 0.6331 0.50414 0.0
H3494 H 0.92172 0.61594 0.5541 0.0
C3495 C 0.848 0.63886 0.52351 0.0
H3496 H 0.91371 0.61942 0.50207 0.0
C3497 C 0.8524 0.63637 0.55362 0.0
C3498 C 0.87909 0.62843 0.5655 0.0
H3499 H 0.82738 0.64575 0.51542 0.0
H3500 H 0.83524 0.64182 0.56763 0.0
C3501 C 0.90077 0.62203 0.54604 0.0
C3502 C 0.90681 0.36967 0.99376 0.0
C3503 C 0.88965 0.3883 0.97756 0.0
H3504 H 0.92063 0.3556 0.03605 0.0
C3505 C 0.87328 0.40742 0.99307 0.0
H3506 H 0.91982 0.35464 0.98279 0.0
C3507 C 0.87383 0.40803 0.02326 0.0
C3508 C 0.89075 0.38952 0.03968 0.0
H3509 H 0.8598 0.42225 0.98186 0.0
H3510 H 0.86062 0.42322 0.03374 0.0
C3511 C 0.90729 0.37021 0.02439 0.0
C3512 C 0.1003 0.44592 0.48962 0.0
C3513 C 0.11414 0.42827 0.50978 0.0
H3514 H 0.09044 0.45472 0.44505 0.0
C3515 C 0.13083 0.40654 0.49891 0.0
H3516 H 0.08732 0.463 0.49699 0.0
C3517 C 0.13246 0.40173 0.46904 0.0
C3518 C 0.11789 0.41877 0.44885 0.0
H3519 H 0.14179 0.39245 0.51352 0.0
H3520 H 0.14454 0.38394 0.46172 0.0
C3521 C 0.10232 0.4414 0.45968 0.0
C3522 C 0.90958 0.63612 0.02714 0.0
C3523 C 0.89809 0.65422 1.00593 0.0
H3524 H 0.91505 0.62651 0.07199 0.0
C3525 C 0.8842 0.67855 0.01546 0.0
H3526 H 0.9204 0.61711 0.02088 0.0
C3527 C 0.88082 0.68377 0.04516 0.0
C3528 C 0.89144 0.665 0.06626 0.0
H3529 H 0.87472 0.6928 0.99999 0.0
H3530 H 0.86923 0.70224 0.05154 0.0
C3531 C 0.90644 0.64146 0.05667 0.0
C3532 C 0.87893 0.40433 0.4998 0.0
C3533 C 0.87419 0.38291 0.4782 0.0
H3534 H 0.88334 0.41452 0.54497 0.0
C3535 C 0.8685 0.35437 0.48716 0.0
H3536 H 0.88333 0.42657 0.49391 0.0
C3537 C 0.86892 0.34735 0.51667 0.0
C3538 C 0.87435 0.36872 0.53829 0.0
H3539 H 0.86493 0.3372 0.47133 0.0
H3540 H 0.86575 0.32496 0.52254 0.0
C3541 C 0.87869 0.39743 0.52927 0.0
C3542 C 0.13251 0.66405 0.51814 0.0
C3543 C 0.1546 0.65146 0.53437 0.0
H3544 H 0.11273 0.67171 0.47713 0.0
C3545 C 0.17498 0.63648 0.51888 0.0
H3546 H 0.11632 0.6759 0.52869 0.0
C3547 C 0.17287 0.63403 0.48826 0.0
C3548 C 0.15024 0.64637 0.47235 0.0
H3549 H 0.19231 0.62638 0.53037 0.0
H3550 H 0.18868 0.62218 0.47715 0.0
C3551 C 0.13039 0.66157 0.48807 0.0
C3552 C 0.23455 0.11387 0.43101 0.0
C3553 C 0.24846 0.1002 0.40869 0.0
H3554 H 0.1947 0.12557 0.44856 0.0
C3555 C 0.23089 0.08827 0.3856 0.0
H3556 H 0.24707 0.12339 0.44909 0.0
C3557 C 0.20049 0.08996 0.38491 0.0
C3558 C 0.18654 0.10301 0.40765 0.0
H3559 H 0.2407 0.07779 0.36776 0.0
H3560 H 0.18794 0.0809 0.36664 0.0
C3561 C 0.20425 0.11507 0.43059 0.0
C3562 C 0.38119 0.74196 0.86293 0.0
C3563 C 0.40462 0.7255 0.87139 0.0
H3564 H 0.36562 0.78449 0.85648 0.0
C3565 C 0.43048 0.74031 0.88078 0.0
H3566 H 0.36055 0.73124 0.85672 0.0
C3567 C 0.43321 0.77047 0.88115 0.0
C3568 C 0.40997 0.7872 0.87276 0.0
H3569 H 0.44858 0.72843 0.88846 0.0
H3570 H 0.45379 0.78081 0.88817 0.0
C3571 C 0.38382 0.77248 0.8636 0.0
C3572 C 0.75598 0.93021 0.38865 0.0
C3573 C 0.73808 0.91778 0.40986 0.0
H3574 H 0.7994 0.93916 0.37421 0.0
C3575 C 0.75177 0.90501 0.43352 0.0
H3576 H 0.74641 0.9402 0.36999 0.0
C3577 C 0.78207 0.9048 0.43604 0.0
C3578 C 0.80009 0.91704 0.41487 0.0
H3579 H 0.73905 0.89523 0.45034 0.0
H3580 H 0.79136 0.89477 0.45481 0.0
C3581 C 0.78649 0.92967 0.39102 0.0
C3582 C 0.6889 0.25706 0.8607 0.0
C3583 C 0.6708 0.24125 0.87947 0.0
H3584 H 0.70304 0.29911 0.84517 0.0
C3585 C 0.65257 0.25677 0.89675 0.0
H3586 H 0.7028 0.24587 0.84662 0.0
C3587 C 0.65256 0.28686 0.89576 0.0
C3588 C 0.67032 0.30282 0.87701 0.0
H3589 H 0.6381 0.24555 0.91126 0.0
H3590 H 0.63859 0.29779 0.91002 0.0
C3591 C 0.68854 0.28752 0.85936 0.0
C3592 C 0.24856 0.85369 0.65996 0.0
C3593 C 0.26263 0.87281 0.64088 0.0
H3594 H 0.20787 0.83811 0.67725 0.0
C3595 C 0.24555 0.89146 0.62493 0.0
H3596 H 0.26105 0.83942 0.673 0.0
C3597 C 0.21552 0.89088 0.62752 0.0
C3598 C 0.20133 0.87209 0.64664 0.0
H3599 H 0.25551 0.90668 0.61025 0.0
H3600 H 0.20322 0.9051 0.61421 0.0
C3601 C 0.21821 0.85345 0.66293 0.0
C3602 C 0.6235 0.74276 0.09222 0.0
C3603 C 0.60908 0.72386 0.11144 0.0
H3604 H 0.63336 0.78637 0.07911 0.0
C3605 C 0.5933 0.73637 0.1332 0.0
H3606 H 0.63607 0.73429 0.07518 0.0
C3607 C 0.59131 0.76657 0.13504 0.0
C3608 C 0.60562 0.78536 0.11565 0.0
H3609 H 0.58217 0.72287 0.14864 0.0
H3610 H 0.57855 0.77523 0.15185 0.0
C3611 C 0.62205 0.77288 0.09445 0.0
C3612 C 0.80861 0.09508 0.65288 0.0
C3613 C 0.82227 0.11893 0.63964 0.0
H3614 H 0.76874 0.07305 0.66388 0.0
C3615 C 0.80448 0.1401 0.62827 0.0
H3616 H 0.82135 0.07819 0.66157 0.0
C3617 C 0.77413 0.13762 0.6302 0.0
C3618 C 0.76037 0.11345 0.64288 0.0
H3619 H 0.81404 0.15882 0.61781 0.0
H3620 H 0.76143 0.15446 0.62132 0.0
C3621 C 0.77822 0.09217 0.65406 0.0
C3622 C 0.38677 0.26311 0.10606 0.0
C3623 C 0.40494 0.25023 0.12635 0.0
H3624 H 0.37271 0.30223 0.08753 0.0
C3625 C 0.42246 0.26874 0.14486 0.0
H3626 H 0.37301 0.24982 0.0914 0.0
C3627 C 0.42192 0.29901 0.14305 0.0
C3628 C 0.40429 0.31186 0.12223 0.0
H3629 H 0.43672 0.2598 0.16091 0.0
H3630 H 0.43583 0.31233 0.15753 0.0
C3631 C 0.38669 0.29334 0.10384 0.0
C3632 C 0.07094 0.39552 0.21004 0.0
C3633 C 0.09055 0.41523 0.19707 0.0
H3634 H 0.05415 0.37827 0.24922 0.0
C3635 C 0.10903 0.43282 0.21554 0.0
H3636 H 0.05639 0.38155 0.19681 0.0
C3637 C 0.10791 0.43086 0.24577 0.0
C3638 C 0.08814 0.41134 0.25876 0.0
H3639 H 0.12461 0.44822 0.20662 0.0
H3640 H 0.12247 0.44484 0.25898 0.0
C3641 C 0.0697 0.39369 0.24029 0.0
C3642 C 0.12862 0.62838 0.73999 0.0
C3643 C 0.15179 0.63786 0.72281 0.0
H3644 H 0.11067 0.62539 0.78161 0.0
C3645 C 0.17557 0.65303 0.73693 0.0
H3646 H 0.10977 0.61661 0.73064 0.0
C3647 C 0.17628 0.65746 0.76729 0.0
C3648 C 0.15283 0.64768 0.78401 0.0
H3649 H 0.19378 0.66094 0.72468 0.0
H3650 H 0.19562 0.66729 0.77777 0.0
C3651 C 0.12888 0.63375 0.76957 0.0
C3652 C 0.90667 0.65275 0.26554 0.0
C3653 C 0.88863 0.62989 0.25407 0.0
H3654 H 0.92657 0.67325 0.30318 0.0
C3655 C 0.87542 0.61066 0.27376 0.0
H3656 H 0.91735 0.66797 0.25137 0.0
C3657 C 0.87975 0.61439 0.30378 0.0
C3658 C 0.8984 0.63681 0.31517 0.0
H3659 H 0.86155 0.59257 0.26604 0.0
H3660 H 0.86913 0.59918 0.318 0.0
C3661 C 0.9119 0.65579 0.29548 0.0
C3662 C 0.90493 0.35657 0.77945 0.0
C3663 C 0.91398 0.38439 0.78935 0.0
H3664 H 0.89297 0.32895 0.74323 0.0
C3665 C 0.91797 0.40601 0.76834 0.0
H3666 H 0.90141 0.3393 0.79461 0.0
C3667 C 0.91206 0.40034 0.73881 0.0
C3668 C 0.90285 0.37258 0.72902 0.0
H3669 H 0.92509 0.42776 0.77473 0.0
H3670 H 0.91519 0.41762 0.72359 0.0
C3671 C 0.8998 0.35072 0.74983 0.0
C3672 C 0.71556 0.8377 0.6396 0.0
C3673 C 0.70254 0.85674 0.65819 0.0
H3674 H 0.75503 0.82175 0.62458 0.0
C3675 C 0.72092 0.87489 0.67623 0.0
H3676 H 0.70233 0.82348 0.62535 0.0
C3677 C 0.75119 0.87388 0.67594 0.0
C3678 C 0.76425 0.85477 0.65749 0.0
H3679 H 0.71194 0.88998 0.6909 0.0
H3680 H 0.76434 0.88806 0.69029 0.0
C3681 C 0.74592 0.83679 0.63921 0.0
C3682 C 0.61758 0.23794 0.09344 0.0
C3683 C 0.61736 0.22709 0.12158 0.0
H3684 H 0.6176 0.27577 0.06696 0.0
C3685 C 0.6139 0.24698 0.14434 0.0
H3686 H 0.62031 0.22366 0.07533 0.0
C3687 C 0.61047 0.27624 0.13941 0.0
C3688 C 0.61173 0.28723 0.11161 0.0
H3689 H 0.61437 0.24022 0.16649 0.0
H3690 H 0.60896 0.29063 0.1577 0.0
C3691 C 0.61547 0.26775 0.08862 0.0
C3692 C 0.27716 0.17101 0.61777 0.0
C3693 C 0.25996 0.15348 0.63605 0.0
H3694 H 0.32002 0.18409 0.6041 0.0
C3695 C 0.27432 0.13486 0.65452 0.0
H3696 H 0.26705 0.18563 0.6031 0.0
C3697 C 0.30462 0.134 0.65502 0.0
C3698 C 0.32197 0.15173 0.63709 0.0
H3699 H 0.26214 0.12096 0.66887 0.0
H3700 H 0.31446 0.11932 0.66982 0.0
C3701 C 0.30767 0.17016 0.61827 0.0
C3702 C 0.39797 0.79172 0.16651 0.0
C3703 C 0.39457 0.81024 0.14273 0.0
H3704 H 0.40295 0.74869 0.18166 0.0
C3705 C 0.39536 0.79794 0.11503 0.0
H3706 H 0.39749 0.79994 0.18835 0.0
C3707 C 0.39876 0.76813 0.11141 0.0
C3708 C 0.40193 0.74989 0.1353 0.0
H3709 H 0.3932 0.81124 0.09619 0.0
H3710 H 0.39833 0.7592 0.08982 0.0
C3711 C 0.40166 0.76218 0.16285 0.0
C3712 C 0.70546 0.0947 0.38605 0.0
C3713 C 0.68822 0.11124 0.40381 0.0
H3714 H 0.74771 0.08216 0.37554 0.0
C3715 C 0.70219 0.12681 0.42675 0.0
H3716 H 0.69587 0.08214 0.36817 0.0
C3717 C 0.7325 0.12679 0.43088 0.0
C3718 C 0.74972 0.11103 0.41234 0.0
H3719 H 0.6899 0.13965 0.44097 0.0
H3720 H 0.74253 0.13981 0.44828 0.0
C3721 C 0.73552 0.09451 0.39028 0.0
C3722 C 0.39841 0.27619 0.84353 0.0
C3723 C 0.37921 0.2866 0.86341 0.0
H3724 H 0.41501 0.23959 0.82286 0.0
C3725 C 0.36175 0.26609 0.87829 0.0
H3726 H 0.41217 0.29106 0.83161 0.0
C3727 C 0.36335 0.23624 0.87334 0.0
C3728 C 0.38242 0.22588 0.85326 0.0
H3729 H 0.34667 0.27309 0.89388 0.0
H3730 H 0.34961 0.22132 0.88521 0.0
C3731 C 0.39993 0.24644 0.83851 0.0
C3732 C 0.25237 0.8697 0.43145 0.0
C3733 C 0.23741 0.89513 0.42704 0.0
H3734 H 0.29305 0.84977 0.43351 0.0
C3735 C 0.25399 0.92121 0.4251 0.0
H3736 H 0.24067 0.84899 0.43309 0.0
C3737 C 0.28451 0.92151 0.42652 0.0
C3738 C 0.29917 0.89578 0.42931 0.0
H3739 H 0.24346 0.94122 0.42218 0.0
H3740 H 0.29664 0.94182 0.42417 0.0
C3741 C 0.28262 0.87001 0.43226 0.0
C3742 C 0.65891 0.75321 0.84271 0.0
C3743 C 0.67881 0.74165 0.86222 0.0
H3744 H 0.64197 0.79104 0.82426 0.0
C3745 C 0.69754 0.76124 0.87836 0.0
H3746 H 0.64413 0.73907 0.8299 0.0
C3747 C 0.69651 0.79128 0.87502 0.0
C3748 C 0.67657 0.80281 0.85553 0.0
H3749 H 0.71325 0.75339 0.89367 0.0
H3750 H 0.71127 0.80544 0.88782 0.0
C3751 C 0.65775 0.78322 0.83951 0.0
C3752 C 0.89442 0.66404 0.80204 0.0
C3753 C 0.87911 0.64179 0.81627 0.0
H3754 H 0.9053 0.68336 0.76189 0.0
C3755 C 0.86297 0.62095 0.79905 0.0
H3756 H 0.90702 0.68051 0.81429 0.0
C3757 C 0.86198 0.62247 0.76872 0.0
C3758 C 0.87698 0.64499 0.75452 0.0
H3759 H 0.85089 0.60334 0.80902 0.0
H3760 H 0.84932 0.60608 0.75643 0.0
C3761 C 0.8933 0.66565 0.77177 0.0
C3762 C 0.86743 0.39102 0.27614 0.0
C3763 C 0.87962 0.36651 0.2876 0.0
H3764 H 0.8571 0.41472 0.23824 0.0
C3765 C 0.89257 0.34775 0.26816 0.0
H3766 H 0.85741 0.40604 0.2901 0.0
C3767 C 0.89303 0.35299 0.23848 0.0
C3768 C 0.87998 0.37688 0.22693 0.0
H3769 H 0.90219 0.32848 0.27571 0.0
H3770 H 0.90259 0.33768 0.22447 0.0
C3771 C 0.86739 0.39596 0.24626 0.0
C3772 C 0.09582 0.39623 0.74506 0.0
C3773 C 0.12272 0.39494 0.75977 0.0
H3774 H 0.07332 0.39933 0.70399 0.0
C3775 C 0.1479 0.39868 0.74341 0.0
H3776 H 0.07595 0.39366 0.75665 0.0
C3777 C 0.14637 0.40308 0.71364 0.0
C3778 C 0.11964 0.4037 0.6989 0.0
H3779 H 0.16917 0.3978 0.75348 0.0
H3780 H 0.16619 0.40431 0.70184 0.0
C3781 C 0.09433 0.4002 0.71496 0.0
C3782 C 0.16386 0.62405 0.2695 0.0
C3783 C 0.14307 0.64024 0.28261 0.0
H3784 H 0.18173 0.61012 0.22987 0.0
C3785 C 0.12305 0.65375 0.2642 0.0
H3786 H 0.17964 0.61337 0.28262 0.0
C3787 C 0.12428 0.65211 0.23413 0.0
C3788 C 0.1455 0.63676 0.22097 0.0
H3789 H 0.10636 0.66628 0.27297 0.0
H3790 H 0.10875 0.66333 0.2212 0.0
C3791 C 0.16504 0.62234 0.23913 0.0
loop_
_geom_bond_atom_site_label_1
_geom_bond_atom_site_label_2
_geom_bond_distance
_geom_bond_site_symmetry_2
_ccdc_geom_bond_type
Co0 O2 2.143 . S
Co0 O8 2.074 . S
Co0 O11 2.093 . S
Co0 O24 2.097 . S
Co0 N41 2.151 . S
Co0 N49 2.214 . S
Co1 O2 2.160 . S
Co1 O7 2.058 . S
Co1 O17 2.057 . S
Co1 O32 2.037 . S
Co1 N36 2.145 . S
Co1 N57 2.257 . S
O2 Co0 2.143 . S
O2 Co1 2.160 . S
C3 O4 1.278 . S
C3 O11 1.224 . S
O4 C3 1.278 . S
C5 O6 1.245 . S
C5 O17 1.232 . S
O6 C5 1.245 . S
O7 Co1 2.058 . S
O7 C33 1.269 . S
O8 Co0 2.074 . S
O8 C33 1.257 . S
H9 C34 0.930 . S
H10 C40 0.930 . S
O11 Co0 2.093 . S
O11 C3 1.224 . S
H12 C44 0.929 . S
H13 C46 0.930 . S
H14 C47 0.930 . S
H15 C45 0.929 . S
H16 C48 0.928 . S
O17 Co1 2.057 . S
O17 C5 1.232 . S
H18 C37 0.929 . S
H19 C38 0.929 . S
H20 C50 0.931 . S
H21 C42 0.929 . S
H22 C51 0.930 . S
H23 C43 0.931 . S
O24 Co0 2.097 . S
O24 C52 1.214 . S
H25 C53 0.929 . S
H26 C54 0.929 . S
H27 C55 0.930 . S
H28 C56 0.929 . S
H29 C58 0.930 . S
H30 C35 0.930 . S
H31 C39 0.930 . S
O32 Co1 2.037 . S
O32 C52 1.234 . S
C33 O7 1.269 . S
C33 O8 1.257 . S
C34 H9 0.930 . S
C34 C37 1.388 . S
C34 C39 1.418 . S
C35 H30 0.930 . S
C35 C38 1.404 . S
C35 C39 1.353 . S
N36 Co1 2.145 . S
N36 C37 1.397 . S
N36 C38 1.334 . S
C37 H18 0.929 . S
C37 C34 1.388 . S
C37 N36 1.397 . S
C38 H19 0.929 . S
C38 C35 1.404 . S
C38 N36 1.334 . S
C39 H31 0.930 . S
C39 C34 1.418 . S
C39 C35 1.353 . S
C40 H10 0.930 . S
C40 N41 1.330 . S
C40 C42 1.446 . S
N41 Co0 2.151 . S
N41 C40 1.330 . S
N41 C45 1.418 . S
C42 H21 0.929 . S
C42 C40 1.446 . S
C42 C43 1.332 . S
C43 H23 0.931 . S
C43 C42 1.332 . S
C43 C44 1.267 . S
C44 H12 0.929 . S
C44 C43 1.267 . S
C44 C45 1.251 . S
C45 H15 0.929 . S
C45 N41 1.418 . S
C45 C44 1.251 . S
C46 H13 0.930 . S
C46 C48 1.406 1_565 S
C46 C51 1.261 . S
C47 H14 0.930 . S
C47 N49 1.325 . S
C47 C50 1.357 1_545 S
C48 H16 0.928 . S
C48 C46 1.406 1_545 S
C48 N49 1.261 . S
N49 Co0 2.214 . S
N49 C47 1.325 . S
N49 C48 1.261 . S
C50 H20 0.931 . S
C50 C47 1.357 1_565 S
C50 C51 1.312 . S
C51 H22 0.930 . S
C51 C46 1.261 . S
C51 C50 1.312 . S
C52 O24 1.214 . S
C52 O32 1.234 . S
C53 H25 0.929 . S
C53 C56 1.391 . S
C53 C58 1.391 . S
C54 H26 0.929 . S
C54 C55 1.390 . S
C54 N57 1.391 . S
C55 H27 0.930 . S
C55 C54 1.390 . S
C55 C56 1.392 . S
C56 H28 0.929 . S
C56 C53 1.391 . S
C56 C55 1.392 . S
N57 Co1 2.257 . S
N57 C54 1.391 . S
N57 C58 1.388 . S
C58 H29 0.930 . S
C58 C53 1.391 . S
C58 N57 1.388 . S
Co59 O61 2.143 . S
Co59 O67 2.074 . S
Co59 O70 2.093 . S
Co59 O83 2.097 . S
Co59 N100 2.151 . S
Co59 N108 2.214 . S
Co60 O61 2.160 . S
Co60 O66 2.058 . S
Co60 O76 2.057 . S
Co60 O91 2.037 . S
Co60 N95 2.145 . S
Co60 N116 2.257 . S
O61 Co59 2.143 . S
O61 Co60 2.160 . S
C62 O63 1.278 . S
C62 O70 1.224 . S
O63 C62 1.278 . S
C64 O65 1.245 . S
C64 O76 1.232 . S
O65 C64 1.245 . S
O66 Co60 2.058 . S
O66 C92 1.269 . S
O67 Co59 2.074 . S
O67 C92 1.257 . S
H68 C93 0.930 . S
H69 C99 0.930 . S
O70 Co59 2.093 . S
O70 C62 1.224 . S
H71 C103 0.929 . S
H72 C105 0.930 . S
H73 C106 0.930 . S
H74 C104 0.929 . S
H75 C107 0.928 . S
O76 Co60 2.057 . S
O76 C64 1.232 . S
H77 C96 0.929 . S
H78 C97 0.929 . S
H79 C109 0.931 . S
H80 C101 0.929 . S
H81 C110 0.930 . S
H82 C102 0.931 . S
O83 Co59 2.097 . S
O83 C111 1.214 . S
H84 C112 0.929 . S
H85 C113 0.929 . S
H86 C114 0.930 . S
H87 C115 0.929 . S
H88 C117 0.930 . S
H89 C94 0.930 . S
H90 C98 0.930 . S
O91 Co60 2.037 . S
O91 C111 1.234 . S
C92 O66 1.269 . S
C92 O67 1.257 . S
C93 H68 0.930 . S
C93 C96 1.388 . S
C93 C98 1.418 . S
C94 H89 0.930 . S
C94 C97 1.404 . S
C94 C98 1.353 . S
N95 Co60 2.145 . S
N95 C96 1.397 . S
N95 C97 1.334 . S
C96 H77 0.929 . S
C96 C93 1.388 . S
C96 N95 1.397 . S
C97 H78 0.929 . S
C97 C94 1.404 . S
C97 N95 1.334 . S
C98 H90 0.930 . S
C98 C93 1.418 . S
C98 C94 1.353 . S
C99 H69 0.930 . S
C99 N100 1.330 . S
C99 C101 1.446 . S
N100 Co59 2.151 . S
N100 C99 1.330 . S
N100 C104 1.418 . S
C101 H80 0.929 . S
C101 C99 1.446 . S
C101 C102 1.332 . S
C102 H82 0.931 . S
C102 C101 1.332 . S
C102 C103 1.267 . S
C103 H71 0.929 . S
C103 C102 1.267 . S
C103 C104 1.251 . S
C104 H74 0.929 . S
C104 N100 1.418 . S
C104 C103 1.251 . S
C105 H72 0.930 . S
C105 C107 1.406 . S
C105 C110 1.261 . S
C106 H73 0.930 . S
C106 N108 1.325 . S
C106 C109 1.357 . S
C107 H75 0.928 . S
C107 C105 1.406 . S
C107 N108 1.261 . S
N108 Co59 2.214 . S
N108 C106 1.325 . S
N108 C107 1.261 . S
C109 H79 0.931 . S
C109 C106 1.357 . S
C109 C110 1.312 . S
C110 H81 0.930 . S
C110 C105 1.261 . S
C110 C109 1.312 . S
C111 O83 1.214 . S
C111 O91 1.234 . S
C112 H84 0.929 . S
C112 C115 1.391 . S
C112 C117 1.391 . S
C113 H85 0.929 . S
C113 C114 1.390 . S
C113 N116 1.391 . S
C114 H86 0.930 . S
C114 C113 1.390 . S
C114 C115 1.392 . S
C115 H87 0.929 . S
C115 C112 1.391 . S
C115 C114 1.392 . S
N116 Co60 2.257 . S
N116 C113 1.391 . S
N116 C117 1.388 . S
C117 H88 0.930 . S
C117 C112 1.391 . S
C117 N116 1.388 . S
Co118 O120 2.143 . S
Co118 O126 2.074 . S
Co118 O129 2.093 . S
Co118 O142 2.097 . S
Co118 N159 2.151 . S
Co118 N167 2.214 . S
Co119 O120 2.160 . S
Co119 O125 2.058 . S
Co119 O135 2.057 . S
Co119 O150 2.037 . S
Co119 N154 2.145 . S
Co119 N175 2.257 . S
O120 Co118 2.143 . S
O120 Co119 2.160 . S
C121 O122 1.278 . S
C121 O129 1.224 . S
O122 C121 1.278 . S
C123 O124 1.245 . S
C123 O135 1.232 . S
O124 C123 1.245 . S
O125 Co119 2.058 . S
O125 C151 1.269 . S
O126 Co118 2.074 . S
O126 C151 1.257 . S
H127 C152 0.930 . S
H128 C158 0.930 . S
O129 Co118 2.093 . S
O129 C121 1.224 . S
H130 C162 0.929 . S
H131 C164 0.930 . S
H132 C165 0.930 . S
H133 C163 0.929 . S
H134 C166 0.928 . S
O135 Co119 2.057 . S
O135 C123 1.232 . S
H136 C155 0.929 . S
H137 C156 0.929 . S
H138 C168 0.932 . S
H139 C160 0.929 . S
H140 C169 0.930 . S
H141 C161 0.931 . S
O142 Co118 2.097 . S
O142 C170 1.214 . S
H143 C171 0.929 . S
H144 C172 0.929 . S
H145 C173 0.930 . S
H146 C174 0.929 . S
H147 C176 0.930 . S
H148 C153 0.930 . S
H149 C157 0.930 . S
O150 Co119 2.037 . S
O150 C170 1.234 . S
C151 O125 1.269 . S
C151 O126 1.257 . S
C152 H127 0.930 . S
C152 C155 1.388 . S
C152 C157 1.418 . S
C153 H148 0.930 . S
C153 C156 1.404 . S
C153 C157 1.353 . S
N154 Co119 2.145 . S
N154 C155 1.397 . S
N154 C156 1.334 . S
C155 H136 0.929 . S
C155 C152 1.388 . S
C155 N154 1.397 . S
C156 H137 0.929 . S
C156 C153 1.404 . S
C156 N154 1.334 . S
C157 H149 0.930 . S
C157 C152 1.418 . S
C157 C153 1.353 . S
C158 H128 0.930 . S
C158 N159 1.330 . S
C158 C160 1.446 . S
N159 Co118 2.151 . S
N159 C158 1.330 . S
N159 C163 1.418 . S
C160 H139 0.929 . S
C160 C158 1.446 . S
C160 C161 1.332 . S
C161 H141 0.931 . S
C161 C160 1.332 . S
C161 C162 1.267 . S
C162 H130 0.929 . S
C162 C161 1.267 . S
C162 C163 1.251 . S
C163 H133 0.929 . S
C163 N159 1.418 . S
C163 C162 1.251 . S
C164 H131 0.930 . S
C164 C166 1.406 1_545 S
C164 C169 1.261 . S
C165 H132 0.930 . S
C165 N167 1.325 . S
C165 C168 1.357 . S
C166 H134 0.928 . S
C166 C164 1.406 1_565 S
C166 N167 1.261 . S
N167 Co118 2.214 . S
N167 C165 1.325 . S
N167 C166 1.261 . S
C168 H138 0.932 . S
C168 C165 1.357 . S
C168 C169 1.312 1_565 S
C169 H140 0.930 . S
C169 C164 1.261 . S
C169 C168 1.312 1_545 S
C170 O142 1.214 . S
C170 O150 1.234 . S
C171 H143 0.929 . S
C171 C174 1.391 . S
C171 C176 1.391 . S
C172 H144 0.929 . S
C172 C173 1.390 . S
C172 N175 1.391 . S
C173 H145 0.930 . S
C173 C172 1.390 . S
C173 C174 1.392 . S
C174 H146 0.929 . S
C174 C171 1.391 . S
C174 C173 1.392 . S
N175 Co119 2.257 . S
N175 C172 1.391 . S
N175 C176 1.388 . S
C176 H147 0.930 . S
C176 C171 1.391 . S
C176 N175 1.388 . S
Co177 O179 2.143 . S
Co177 O185 2.074 . S
Co177 O188 2.093 . S
Co177 O201 2.097 . S
Co177 N218 2.151 . S
Co177 N226 2.214 . S
Co178 O179 2.160 . S
Co178 O184 2.058 . S
Co178 O194 2.057 . S
Co178 O209 2.037 . S
Co178 N213 2.145 . S
Co178 N234 2.257 . S
O179 Co177 2.143 . S
O179 Co178 2.160 . S
C180 O181 1.278 . S
C180 O188 1.224 . S
O181 C180 1.278 . S
C182 O183 1.245 . S
C182 O194 1.232 . S
O183 C182 1.245 . S
O184 Co178 2.058 . S
O184 C210 1.269 . S
O185 Co177 2.074 . S
O185 C210 1.257 . S
H186 C211 0.930 . S
H187 C217 0.930 . S
O188 Co177 2.093 . S
O188 C180 1.224 . S
H189 C221 0.929 . S
H190 C223 0.930 . S
H191 C224 0.930 . S
H192 C222 0.929 . S
H193 C225 0.928 . S
O194 Co178 2.057 . S
O194 C182 1.232 . S
H195 C214 0.929 . S
H196 C215 0.929 . S
H197 C227 0.931 . S
H198 C219 0.929 . S
H199 C228 0.930 . S
H200 C220 0.931 . S
O201 Co177 2.097 . S
O201 C229 1.214 . S
H202 C230 0.929 . S
H203 C231 0.929 . S
H204 C232 0.930 . S
H205 C233 0.929 . S
H206 C235 0.930 . S
H207 C212 0.930 . S
H208 C216 0.930 . S
O209 Co178 2.037 . S
O209 C229 1.234 . S
C210 O184 1.269 . S
C210 O185 1.257 . S
C211 H186 0.930 . S
C211 C214 1.388 . S
C211 C216 1.418 . S
C212 H207 0.930 . S
C212 C215 1.404 . S
C212 C216 1.353 . S
N213 Co178 2.145 . S
N213 C214 1.397 . S
N213 C215 1.334 . S
C214 H195 0.929 . S
C214 C211 1.388 . S
C214 N213 1.397 . S
C215 H196 0.929 . S
C215 C212 1.404 . S
C215 N213 1.334 . S
C216 H208 0.930 . S
C216 C211 1.418 . S
C216 C212 1.353 . S
C217 H187 0.930 . S
C217 N218 1.330 . S
C217 C219 1.446 . S
N218 Co177 2.151 . S
N218 C217 1.330 . S
N218 C222 1.418 . S
C219 H198 0.929 . S
C219 C217 1.446 . S
C219 C220 1.332 . S
C220 H200 0.931 . S
C220 C219 1.332 . S
C220 C221 1.267 . S
C221 H189 0.929 . S
C221 C220 1.267 . S
C221 C222 1.251 . S
C222 H192 0.929 . S
C222 N218 1.418 . S
C222 C221 1.251 . S
C223 H190 0.930 . S
C223 C225 1.406 . S
C223 C228 1.261 . S
C224 H191 0.930 . S
C224 N226 1.325 . S
C224 C227 1.357 . S
C225 H193 0.928 . S
C225 C223 1.406 . S
C225 N226 1.261 . S
N226 Co177 2.214 . S
N226 C224 1.325 . S
N226 C225 1.261 . S
C227 H197 0.931 . S
C227 C224 1.357 . S
C227 C228 1.312 . S
C228 H199 0.930 . S
C228 C223 1.261 . S
C228 C227 1.312 . S
C229 O201 1.214 . S
C229 O209 1.234 . S
C230 H202 0.929 . S
C230 C233 1.391 . S
C230 C235 1.391 . S
C231 H203 0.929 . S
C231 C232 1.390 . S
C231 N234 1.391 . S
C232 H204 0.930 . S
C232 C231 1.390 . S
C232 C233 1.392 . S
C233 H205 0.929 . S
C233 C230 1.391 . S
C233 C232 1.392 . S
N234 Co178 2.257 . S
N234 C231 1.391 . S
N234 C235 1.388 . S
C235 H206 0.930 . S
C235 C230 1.391 . S
C235 N234 1.388 . S
Co236 O238 2.143 . S
Co236 O244 2.074 . S
Co236 O247 2.093 . S
Co236 O260 2.097 . S
Co236 N277 2.151 . S
Co236 N285 2.214 . S
Co237 O238 2.160 . S
Co237 O243 2.058 . S
Co237 O253 2.057 . S
Co237 O268 2.037 . S
Co237 N272 2.145 . S
Co237 N293 2.257 . S
O238 Co236 2.143 . S
O238 Co237 2.160 . S
C239 O240 1.278 . S
C239 O247 1.224 . S
O240 C239 1.278 . S
C241 O242 1.245 . S
C241 O253 1.232 . S
O242 C241 1.245 . S
O243 Co237 2.058 . S
O243 C269 1.269 . S
O244 Co236 2.074 . S
O244 C269 1.257 . S
H245 C270 0.930 . S
H246 C276 0.930 . S
O247 Co236 2.093 . S
O247 C239 1.224 . S
H248 C280 0.929 . S
H249 C282 0.930 . S
H250 C283 0.930 . S
H251 C281 0.929 . S
H252 C284 0.928 . S
O253 Co237 2.057 . S
O253 C241 1.232 . S
H254 C273 0.929 . S
H255 C274 0.929 . S
H256 C286 0.931 . S
H257 C278 0.929 . S
H258 C287 0.930 . S
H259 C279 0.931 . S
O260 Co236 2.097 . S
O260 C288 1.214 . S
H261 C289 0.929 . S
H262 C290 0.929 . S
H263 C291 0.930 . S
H264 C292 0.929 . S
H265 C294 0.930 . S
H266 C271 0.930 . S
H267 C275 0.930 . S
O268 Co237 2.037 . S
O268 C288 1.234 . S
C269 O243 1.269 . S
C269 O244 1.257 . S
C270 H245 0.930 . S
C270 C273 1.388 . S
C270 C275 1.418 . S
C271 H266 0.930 . S
C271 C274 1.404 . S
C271 C275 1.353 . S
N272 Co237 2.145 . S
N272 C273 1.397 . S
N272 C274 1.334 . S
C273 H254 0.929 . S
C273 C270 1.388 . S
C273 N272 1.397 . S
C274 H255 0.929 . S
C274 C271 1.404 . S
C274 N272 1.334 . S
C275 H267 0.930 . S
C275 C270 1.418 . S
C275 C271 1.353 . S
C276 H246 0.930 . S
C276 N277 1.330 . S
C276 C278 1.446 . S
N277 Co236 2.151 . S
N277 C276 1.330 . S
N277 C281 1.418 . S
C278 H257 0.929 . S
C278 C276 1.446 . S
C278 C279 1.332 . S
C279 H259 0.931 . S
C279 C278 1.332 . S
C279 C280 1.267 . S
C280 H248 0.929 . S
C280 C279 1.267 . S
C280 C281 1.251 . S
C281 H251 0.929 . S
C281 N277 1.418 . S
C281 C280 1.251 . S
C282 H249 0.930 . S
C282 C284 1.406 . S
C282 C287 1.261 . S
C283 H250 0.930 . S
C283 N285 1.325 . S
C283 C286 1.357 . S
C284 H252 0.928 . S
C284 C282 1.406 . S
C284 N285 1.261 . S
N285 Co236 2.214 . S
N285 C283 1.325 . S
N285 C284 1.261 . S
C286 H256 0.931 . S
C286 C283 1.357 . S
C286 C287 1.312 . S
C287 H258 0.930 . S
C287 C282 1.261 . S
C287 C286 1.312 . S
C288 O260 1.214 . S
C288 O268 1.234 . S
C289 H261 0.929 . S
C289 C292 1.391 . S
C289 C294 1.391 . S
C290 H262 0.929 . S
C290 C291 1.390 . S
C290 N293 1.391 . S
C291 H263 0.930 . S
C291 C290 1.390 . S
C291 C292 1.392 . S
C292 H264 0.929 . S
C292 C289 1.391 . S
C292 C291 1.392 . S
N293 Co237 2.257 . S
N293 C290 1.391 . S
N293 C294 1.388 . S
C294 H265 0.930 . S
C294 C289 1.391 . S
C294 N293 1.388 . S
Co295 O297 2.143 . S
Co295 O303 2.074 . S
Co295 O306 2.093 . S
Co295 O319 2.097 . S
Co295 N336 2.151 . S
Co295 N344 2.214 . S
Co296 O297 2.160 . S
Co296 O302 2.058 . S
Co296 O312 2.057 . S
Co296 O327 2.037 . S
Co296 N331 2.145 . S
Co296 N352 2.257 . S
O297 Co295 2.143 . S
O297 Co296 2.160 . S
C298 O299 1.278 . S
C298 O306 1.224 . S
O299 C298 1.278 . S
C300 O301 1.245 . S
C300 O312 1.232 . S
O301 C300 1.245 . S
O302 Co296 2.058 . S
O302 C328 1.269 . S
O303 Co295 2.074 . S
O303 C328 1.257 . S
H304 C329 0.930 . S
H305 C335 0.930 . S
O306 Co295 2.093 . S
O306 C298 1.224 . S
H307 C339 0.929 . S
H308 C341 0.930 . S
H309 C342 0.930 . S
H310 C340 0.929 . S
H311 C343 0.928 . S
O312 Co296 2.057 . S
O312 C300 1.232 . S
H313 C332 0.929 . S
H314 C333 0.929 . S
H315 C345 0.931 . S
H316 C337 0.929 . S
H317 C346 0.930 . S
H318 C338 0.931 . S
O319 Co295 2.097 . S
O319 C347 1.214 . S
H320 C348 0.929 . S
H321 C349 0.929 . S
H322 C350 0.930 . S
H323 C351 0.929 . S
H324 C353 0.930 . S
H325 C330 0.930 . S
H326 C334 0.930 . S
O327 Co296 2.037 . S
O327 C347 1.234 . S
C328 O302 1.269 . S
C328 O303 1.257 . S
C329 H304 0.930 . S
C329 C332 1.388 . S
C329 C334 1.418 . S
C330 H325 0.930 . S
C330 C333 1.404 . S
C330 C334 1.353 . S
N331 Co296 2.145 . S
N331 C332 1.397 . S
N331 C333 1.334 . S
C332 H313 0.929 . S
C332 C329 1.388 . S
C332 N331 1.397 . S
C333 H314 0.929 . S
C333 C330 1.404 . S
C333 N331 1.334 . S
C334 H326 0.930 . S
C334 C329 1.418 . S
C334 C330 1.353 . S
C335 H305 0.930 . S
C335 N336 1.330 . S
C335 C337 1.446 . S
N336 Co295 2.151 . S
N336 C335 1.330 . S
N336 C340 1.418 . S
C337 H316 0.929 . S
C337 C335 1.446 . S
C337 C338 1.332 . S
C338 H318 0.931 . S
C338 C337 1.332 . S
C338 C339 1.267 . S
C339 H307 0.929 . S
C339 C338 1.267 . S
C339 C340 1.251 . S
C340 H310 0.929 . S
C340 N336 1.418 . S
C340 C339 1.251 . S
C341 H308 0.930 . S
C341 C343 1.406 . S
C341 C346 1.261 . S
C342 H309 0.930 . S
C342 N344 1.325 . S
C342 C345 1.357 . S
C343 H311 0.928 . S
C343 C341 1.406 . S
C343 N344 1.261 . S
N344 Co295 2.214 . S
N344 C342 1.325 . S
N344 C343 1.261 . S
C345 H315 0.931 . S
C345 C342 1.357 . S
C345 C346 1.312 . S
C346 H317 0.930 . S
C346 C341 1.261 . S
C346 C345 1.312 . S
C347 O319 1.214 . S
C347 O327 1.234 . S
C348 H320 0.929 . S
C348 C351 1.391 . S
C348 C353 1.391 . S
C349 H321 0.929 . S
C349 C350 1.390 . S
C349 N352 1.391 . S
C350 H322 0.930 . S
C350 C349 1.390 . S
C350 C351 1.392 . S
C351 H323 0.929 . S
C351 C348 1.391 . S
C351 C350 1.392 . S
N352 Co296 2.257 . S
N352 C349 1.391 . S
N352 C353 1.388 . S
C353 H324 0.930 . S
C353 C348 1.391 . S
C353 N352 1.388 . S
Co354 O356 2.143 . S
Co354 O362 2.074 . S
Co354 O365 2.093 . S
Co354 O378 2.097 . S
Co354 N395 2.151 . S
Co354 N403 2.214 . S
Co355 O356 2.160 . S
Co355 O361 2.058 . S
Co355 O371 2.057 . S
Co355 O386 2.037 . S
Co355 N390 2.145 . S
Co355 N411 2.257 . S
O356 Co354 2.143 . S
O356 Co355 2.160 . S
C357 O358 1.278 . S
C357 O365 1.224 . S
O358 C357 1.278 . S
C359 O360 1.245 . S
C359 O371 1.232 . S
O360 C359 1.245 . S
O361 Co355 2.058 . S
O361 C387 1.269 . S
O362 Co354 2.074 . S
O362 C387 1.257 . S
H363 C388 0.930 . S
H364 C394 0.930 . S
O365 Co354 2.093 . S
O365 C357 1.224 . S
H366 C398 0.929 . S
H367 C400 0.930 . S
H368 C401 0.930 . S
H369 C399 0.929 . S
H370 C402 0.928 . S
O371 Co355 2.057 . S
O371 C359 1.232 . S
H372 C391 0.929 . S
H373 C392 0.929 . S
H374 C404 0.931 . S
H375 C396 0.929 . S
H376 C405 0.930 . S
H377 C397 0.931 1_565 S
O378 Co354 2.097 . S
O378 C406 1.214 . S
H379 C407 0.929 . S
H380 C408 0.929 . S
H381 C409 0.930 . S
H382 C410 0.929 . S
H383 C412 0.930 . S
H384 C389 0.930 . S
H385 C393 0.930 . S
O386 Co355 2.037 . S
O386 C406 1.234 . S
C387 O361 1.269 . S
C387 O362 1.257 . S
C388 H363 0.930 . S
C388 C391 1.388 . S
C388 C393 1.418 . S
C389 H384 0.930 . S
C389 C392 1.404 . S
C389 C393 1.353 . S
N390 Co355 2.145 . S
N390 C391 1.397 . S
N390 C392 1.334 . S
C391 H372 0.929 . S
C391 C388 1.388 . S
C391 N390 1.397 . S
C392 H373 0.929 . S
C392 C389 1.404 . S
C392 N390 1.334 . S
C393 H385 0.930 . S
C393 C388 1.418 . S
C393 C389 1.353 . S
C394 H364 0.930 . S
C394 N395 1.330 . S
C394 C396 1.446 . S
N395 Co354 2.151 . S
N395 C394 1.330 . S
N395 C399 1.418 . S
C396 H375 0.929 . S
C396 C394 1.446 . S
C396 C397 1.332 . S
C397 H377 0.931 1_545 S
C397 C396 1.332 . S
C397 C398 1.267 . S
C398 H366 0.929 . S
C398 C397 1.267 . S
C398 C399 1.251 . S
C399 H369 0.929 . S
C399 N395 1.418 . S
C399 C398 1.251 . S
C400 H367 0.930 . S
C400 C402 1.406 . S
C400 C405 1.261 . S
C401 H368 0.930 . S
C401 N403 1.325 . S
C401 C404 1.357 . S
C402 H370 0.928 . S
C402 C400 1.406 . S
C402 N403 1.261 . S
N403 Co354 2.214 . S
N403 C401 1.325 . S
N403 C402 1.261 . S
C404 H374 0.931 . S
C404 C401 1.357 . S
C404 C405 1.312 . S
C405 H376 0.930 . S
C405 C400 1.261 . S
C405 C404 1.312 . S
C406 O378 1.214 . S
C406 O386 1.234 . S
C407 H379 0.929 . S
C407 C410 1.391 . S
C407 C412 1.391 . S
C408 H380 0.929 . S
C408 C409 1.390 . S
C408 N411 1.391 . S
C409 H381 0.930 . S
C409 C408 1.390 . S
C409 C410 1.392 . S
C410 H382 0.929 . S
C410 C407 1.391 . S
C410 C409 1.392 . S
N411 Co355 2.257 . S
N411 C408 1.391 . S
N411 C412 1.388 . S
C412 H383 0.930 . S
C412 C407 1.391 . S
C412 N411 1.388 . S
Co413 O415 2.143 . S
Co413 O421 2.074 . S
Co413 O424 2.093 . S
Co413 O437 2.097 . S
Co413 N454 2.151 . S
Co413 N462 2.214 . S
Co414 O415 2.160 . S
Co414 O420 2.058 . S
Co414 O430 2.057 . S
Co414 O445 2.037 . S
Co414 N449 2.145 . S
Co414 N470 2.257 . S
O415 Co413 2.143 . S
O415 Co414 2.160 . S
C416 O417 1.278 . S
C416 O424 1.224 . S
O417 C416 1.278 . S
C418 O419 1.245 . S
C418 O430 1.232 . S
O419 C418 1.245 . S
O420 Co414 2.058 . S
O420 C446 1.269 . S
O421 Co413 2.074 . S
O421 C446 1.257 . S
H422 C447 0.930 . S
H423 C453 0.930 . S
O424 Co413 2.093 . S
O424 C416 1.224 . S
H425 C457 0.929 1_556 S
H426 C459 0.930 . S
H427 C460 0.930 . S
H428 C458 0.929 . S
H429 C461 0.928 . S
O430 Co414 2.057 . S
O430 C418 1.232 . S
H431 C450 0.929 . S
H432 C451 0.929 . S
H433 C463 0.931 . S
H434 C455 0.929 . S
H435 C464 0.930 . S
H436 C456 0.931 . S
O437 Co413 2.097 . S
O437 C465 1.214 . S
H438 C466 0.929 . S
H439 C467 0.929 . S
H440 C468 0.930 . S
H441 C469 0.929 . S
H442 C471 0.930 . S
H443 C448 0.930 . S
H444 C452 0.930 . S
O445 Co414 2.037 . S
O445 C465 1.234 . S
C446 O420 1.269 . S
C446 O421 1.257 . S
C447 H422 0.930 . S
C447 C450 1.388 . S
C447 C452 1.418 . S
C448 H443 0.930 . S
C448 C451 1.404 . S
C448 C452 1.353 . S
N449 Co414 2.145 . S
N449 C450 1.397 . S
N449 C451 1.334 . S
C450 H431 0.929 . S
C450 C447 1.388 . S
C450 N449 1.397 . S
C451 H432 0.929 . S
C451 C448 1.404 . S
C451 N449 1.334 . S
C452 H444 0.930 . S
C452 C447 1.418 . S
C452 C448 1.353 . S
C453 H423 0.930 . S
C453 N454 1.330 . S
C453 C455 1.446 . S
N454 Co413 2.151 . S
N454 C453 1.330 . S
N454 C458 1.418 . S
C455 H434 0.929 . S
C455 C453 1.446 . S
C455 C456 1.332 . S
C456 H436 0.931 . S
C456 C455 1.332 . S
C456 C457 1.267 . S
C457 H425 0.929 1_554 S
C457 C456 1.267 . S
C457 C458 1.251 . S
C458 H428 0.929 . S
C458 N454 1.418 . S
C458 C457 1.251 . S
C459 H426 0.930 . S
C459 C461 1.406 . S
C459 C464 1.261 . S
C460 H427 0.930 . S
C460 N462 1.325 . S
C460 C463 1.357 . S
C461 H429 0.928 . S
C461 C459 1.406 . S
C461 N462 1.261 . S
N462 Co413 2.214 . S
N462 C460 1.325 . S
N462 C461 1.261 . S
C463 H433 0.931 . S
C463 C460 1.357 . S
C463 C464 1.312 . S
C464 H435 0.930 . S
C464 C459 1.261 . S
C464 C463 1.312 . S
C465 O437 1.214 . S
C465 O445 1.234 . S
C466 H438 0.929 . S
C466 C469 1.391 . S
C466 C471 1.391 . S
C467 H439 0.929 . S
C467 C468 1.390 . S
C467 N470 1.391 . S
C468 H440 0.930 . S
C468 C467 1.390 . S
C468 C469 1.392 . S
C469 H441 0.929 . S
C469 C466 1.391 . S
C469 C468 1.392 . S
N470 Co414 2.257 . S
N470 C467 1.391 . S
N470 C471 1.388 . S
C471 H442 0.930 . S
C471 C466 1.391 . S
C471 N470 1.388 . S
Co472 O474 2.143 . S
Co472 O480 2.074 . S
Co472 O483 2.093 . S
Co472 O496 2.097 . S
Co472 N513 2.151 . S
Co472 N521 2.214 . S
Co473 O474 2.160 . S
Co473 O479 2.058 . S
Co473 O489 2.057 . S
Co473 O504 2.037 . S
Co473 N508 2.145 . S
Co473 N529 2.257 . S
O474 Co472 2.143 . S
O474 Co473 2.160 . S
C475 O476 1.278 . S
C475 O483 1.224 . S
O476 C475 1.278 . S
C477 O478 1.245 . S
C477 O489 1.232 . S
O478 C477 1.245 . S
O479 Co473 2.058 . S
O479 C505 1.269 . S
O480 Co472 2.074 . S
O480 C505 1.257 . S
H481 C506 0.930 . S
H482 C512 0.930 . S
O483 Co472 2.093 . S
O483 C475 1.224 . S
H484 C516 0.929 . S
H485 C518 0.930 . S
H486 C519 0.930 . S
H487 C517 0.929 . S
H488 C520 0.928 . S
O489 Co473 2.057 . S
O489 C477 1.232 . S
H490 C509 0.929 . S
H491 C510 0.929 . S
H492 C522 0.931 . S
H493 C514 0.929 . S
H494 C523 0.930 . S
H495 C515 0.931 . S
O496 Co472 2.097 . S
O496 C524 1.214 . S
H497 C525 0.929 . S
H498 C526 0.929 . S
H499 C527 0.930 . S
H500 C528 0.929 . S
H501 C530 0.930 . S
H502 C507 0.930 . S
H503 C511 0.930 . S
O504 Co473 2.037 . S
O504 C524 1.234 . S
C505 O479 1.269 . S
C505 O480 1.257 . S
C506 H481 0.930 . S
C506 C509 1.388 1_556 S
C506 C511 1.418 . S
C507 H502 0.930 . S
C507 C510 1.404 1_556 S
C507 C511 1.353 . S
N508 Co473 2.145 . S
N508 C509 1.397 . S
N508 C510 1.334 . S
C509 H490 0.929 . S
C509 C506 1.388 1_554 S
C509 N508 1.397 . S
C510 H491 0.929 . S
C510 C507 1.404 1_554 S
C510 N508 1.334 . S
C511 H503 0.930 . S
C511 C506 1.418 . S
C511 C507 1.353 . S
C512 H482 0.930 . S
C512 N513 1.330 . S
C512 C514 1.446 . S
N513 Co472 2.151 . S
N513 C512 1.330 . S
N513 C517 1.418 . S
C514 H493 0.929 . S
C514 C512 1.446 . S
C514 C515 1.332 . S
C515 H495 0.931 . S
C515 C514 1.332 . S
C515 C516 1.267 . S
C516 H484 0.929 . S
C516 C515 1.267 . S
C516 C517 1.251 . S
C517 H487 0.929 . S
C517 N513 1.418 . S
C517 C516 1.251 . S
C518 H485 0.930 . S
C518 C520 1.406 . S
C518 C523 1.261 . S
C519 H486 0.930 . S
C519 N521 1.325 . S
C519 C522 1.357 . S
C520 H488 0.928 . S
C520 C518 1.406 . S
C520 N521 1.261 . S
N521 Co472 2.214 . S
N521 C519 1.325 . S
N521 C520 1.261 . S
C522 H492 0.931 . S
C522 C519 1.357 . S
C522 C523 1.312 . S
C523 H494 0.930 . S
C523 C518 1.261 . S
C523 C522 1.312 . S
C524 O496 1.214 . S
C524 O504 1.234 . S
C525 H497 0.929 . S
C525 C528 1.391 . S
C525 C530 1.391 . S
C526 H498 0.929 . S
C526 C527 1.390 . S
C526 N529 1.391 . S
C527 H499 0.930 . S
C527 C526 1.390 . S
C527 C528 1.392 . S
C528 H500 0.929 . S
C528 C525 1.391 . S
C528 C527 1.392 . S
N529 Co473 2.257 . S
N529 C526 1.391 . S
N529 C530 1.388 . S
C530 H501 0.930 . S
C530 C525 1.391 . S
C530 N529 1.388 . S
Co531 O533 2.143 . S
Co531 O539 2.074 . S
Co531 O542 2.093 . S
Co531 O555 2.097 . S
Co531 N572 2.151 . S
Co531 N580 2.214 . S
Co532 O533 2.160 . S
Co532 O538 2.058 . S
Co532 O548 2.057 . S
Co532 O563 2.037 . S
Co532 N567 2.145 . S
Co532 N588 2.257 . S
O533 Co531 2.143 . S
O533 Co532 2.160 . S
C534 O535 1.278 . S
C534 O542 1.224 . S
O535 C534 1.278 . S
C536 O537 1.245 . S
C536 O548 1.232 . S
O537 C536 1.245 . S
O538 Co532 2.058 . S
O538 C564 1.269 . S
O539 Co531 2.074 . S
O539 C564 1.257 . S
H540 C565 0.930 . S
H541 C571 0.930 . S
O542 Co531 2.093 . S
O542 C534 1.224 . S
H543 C575 0.929 . S
H544 C577 0.930 . S
H545 C578 0.930 . S
H546 C576 0.929 . S
H547 C579 0.928 . S
O548 Co532 2.057 . S
O548 C536 1.232 . S
H549 C568 0.929 . S
H550 C569 0.929 . S
H551 C581 0.931 . S
H552 C573 0.929 . S
H553 C582 0.930 . S
H554 C574 0.931 . S
O555 Co531 2.097 . S
O555 C583 1.214 . S
H556 C584 0.929 . S
H557 C585 0.929 . S
H558 C586 0.930 . S
H559 C587 0.929 . S
H560 C589 0.930 . S
H561 C566 0.930 . S
H562 C570 0.930 . S
O563 Co532 2.037 . S
O563 C583 1.234 . S
C564 O538 1.269 . S
C564 O539 1.257 . S
C565 H540 0.930 . S
C565 C568 1.388 . S
C565 C570 1.418 . S
C566 H561 0.930 . S
C566 C569 1.404 . S
C566 C570 1.353 . S
N567 Co532 2.145 . S
N567 C568 1.397 . S
N567 C569 1.334 . S
C568 H549 0.929 . S
C568 C565 1.388 . S
C568 N567 1.397 . S
C569 H550 0.929 . S
C569 C566 1.404 . S
C569 N567 1.334 . S
C570 H562 0.930 . S
C570 C565 1.418 . S
C570 C566 1.353 . S
C571 H541 0.930 . S
C571 N572 1.330 . S
C571 C573 1.446 . S
N572 Co531 2.151 . S
N572 C571 1.330 . S
N572 C576 1.418 . S
C573 H552 0.929 . S
C573 C571 1.446 . S
C573 C574 1.332 . S
C574 H554 0.931 . S
C574 C573 1.332 . S
C574 C575 1.267 . S
C575 H543 0.929 . S
C575 C574 1.267 . S
C575 C576 1.251 . S
C576 H546 0.929 . S
C576 N572 1.418 . S
C576 C575 1.251 . S
C577 H544 0.930 . S
C577 C579 1.406 . S
C577 C582 1.261 . S
C578 H545 0.930 . S
C578 N580 1.325 . S
C578 C581 1.357 . S
C579 H547 0.928 . S
C579 C577 1.406 . S
C579 N580 1.261 . S
N580 Co531 2.214 . S
N580 C578 1.325 . S
N580 C579 1.261 . S
C581 H551 0.931 . S
C581 C578 1.357 . S
C581 C582 1.312 . S
C582 H553 0.930 . S
C582 C577 1.261 . S
C582 C581 1.312 . S
C583 O555 1.214 . S
C583 O563 1.234 . S
C584 H556 0.929 . S
C584 C587 1.391 . S
C584 C589 1.391 . S
C585 H557 0.929 . S
C585 C586 1.390 . S
C585 N588 1.391 . S
C586 H558 0.930 . S
C586 C585 1.390 . S
C586 C587 1.392 . S
C587 H559 0.929 . S
C587 C584 1.391 . S
C587 C586 1.392 . S
N588 Co532 2.257 . S
N588 C585 1.391 . S
N588 C589 1.388 . S
C589 H560 0.930 . S
C589 C584 1.391 . S
C589 N588 1.388 . S
Co590 O592 2.143 . S
Co590 O598 2.074 . S
Co590 O601 2.093 . S
Co590 O614 2.097 . S
Co590 N631 2.151 . S
Co590 N639 2.214 . S
Co591 O592 2.160 . S
Co591 O597 2.058 . S
Co591 O607 2.057 . S
Co591 O622 2.037 . S
Co591 N626 2.145 . S
Co591 N647 2.257 . S
O592 Co590 2.143 . S
O592 Co591 2.160 . S
C593 O594 1.278 . S
C593 O601 1.224 . S
O594 C593 1.278 . S
C595 O596 1.245 . S
C595 O607 1.232 . S
O596 C595 1.245 . S
O597 Co591 2.058 . S
O597 C623 1.269 . S
O598 Co590 2.074 . S
O598 C623 1.257 . S
H599 C624 0.930 . S
H600 C630 0.930 . S
O601 Co590 2.093 . S
O601 C593 1.224 . S
H602 C634 0.929 . S
H603 C636 0.930 . S
H604 C637 0.930 . S
H605 C635 0.929 . S
H606 C638 0.928 . S
O607 Co591 2.057 . S
O607 C595 1.232 . S
H608 C627 0.929 . S
H609 C628 0.929 . S
H610 C640 0.931 . S
H611 C632 0.929 . S
H612 C641 0.930 . S
H613 C633 0.931 . S
O614 Co590 2.097 . S
O614 C642 1.214 . S
H615 C643 0.929 . S
H616 C644 0.929 . S
H617 C645 0.930 . S
H618 C646 0.929 . S
H619 C648 0.930 . S
H620 C625 0.930 . S
H621 C629 0.930 . S
O622 Co591 2.037 . S
O622 C642 1.234 . S
C623 O597 1.269 . S
C623 O598 1.257 . S
C624 H599 0.930 . S
C624 C627 1.388 1_556 S
C624 C629 1.418 . S
C625 H620 0.930 . S
C625 C628 1.404 1_556 S
C625 C629 1.353 . S
N626 Co591 2.145 . S
N626 C627 1.397 . S
N626 C628 1.334 . S
C627 H608 0.929 . S
C627 C624 1.388 1_554 S
C627 N626 1.397 . S
C628 H609 0.929 . S
C628 C625 1.404 1_554 S
C628 N626 1.334 . S
C629 H621 0.930 . S
C629 C624 1.418 . S
C629 C625 1.353 . S
C630 H600 0.930 . S
C630 N631 1.330 . S
C630 C632 1.446 . S
N631 Co590 2.151 . S
N631 C630 1.330 . S
N631 C635 1.418 . S
C632 H611 0.929 . S
C632 C630 1.446 . S
C632 C633 1.332 . S
C633 H613 0.931 . S
C633 C632 1.332 . S
C633 C634 1.267 . S
C634 H602 0.929 . S
C634 C633 1.267 . S
C634 C635 1.251 . S
C635 H605 0.929 . S
C635 N631 1.418 . S
C635 C634 1.251 . S
C636 H603 0.930 . S
C636 C638 1.406 . S
C636 C641 1.261 . S
C637 H604 0.930 . S
C637 N639 1.325 . S
C637 C640 1.357 . S
C638 H606 0.928 . S
C638 C636 1.406 . S
C638 N639 1.261 . S
N639 Co590 2.214 . S
N639 C637 1.325 . S
N639 C638 1.261 . S
C640 H610 0.931 . S
C640 C637 1.357 . S
C640 C641 1.312 . S
C641 H612 0.930 . S
C641 C636 1.261 . S
C641 C640 1.312 . S
C642 O614 1.214 . S
C642 O622 1.234 . S
C643 H615 0.929 . S
C643 C646 1.391 . S
C643 C648 1.391 . S
C644 H616 0.929 . S
C644 C645 1.390 . S
C644 N647 1.391 . S
C645 H617 0.930 . S
C645 C644 1.390 . S
C645 C646 1.392 . S
C646 H618 0.929 . S
C646 C643 1.391 . S
C646 C645 1.392 . S
N647 Co591 2.257 . S
N647 C644 1.391 . S
N647 C648 1.388 . S
C648 H619 0.930 . S
C648 C643 1.391 . S
C648 N647 1.388 . S
Co649 O651 2.143 . S
Co649 O657 2.074 . S
Co649 O660 2.093 . S
Co649 O673 2.097 . S
Co649 N690 2.151 . S
Co649 N698 2.214 . S
Co650 O651 2.160 . S
Co650 O656 2.058 . S
Co650 O666 2.057 . S
Co650 O681 2.037 . S
Co650 N685 2.145 . S
Co650 N706 2.257 . S
O651 Co649 2.143 . S
O651 Co650 2.160 . S
C652 O653 1.278 . S
C652 O660 1.224 . S
O653 C652 1.278 . S
C654 O655 1.245 . S
C654 O666 1.232 . S
O655 C654 1.245 . S
O656 Co650 2.058 . S
O656 C682 1.269 . S
O657 Co649 2.074 . S
O657 C682 1.257 . S
H658 C683 0.930 . S
H659 C689 0.930 . S
O660 Co649 2.093 . S
O660 C652 1.224 . S
H661 C693 0.929 . S
H662 C695 0.930 . S
H663 C696 0.930 . S
H664 C694 0.929 . S
H665 C697 0.928 . S
O666 Co650 2.057 . S
O666 C654 1.232 . S
H667 C686 0.929 . S
H668 C687 0.929 . S
H669 C699 0.931 . S
H670 C691 0.929 . S
H671 C700 0.930 . S
H672 C692 0.931 . S
O673 Co649 2.097 . S
O673 C701 1.214 . S
H674 C702 0.929 . S
H675 C703 0.929 . S
H676 C704 0.930 . S
H677 C705 0.929 . S
H678 C707 0.930 . S
H679 C684 0.930 . S
H680 C688 0.930 . S
O681 Co650 2.037 . S
O681 C701 1.234 . S
C682 O656 1.269 . S
C682 O657 1.257 . S
C683 H658 0.930 . S
C683 C686 1.388 . S
C683 C688 1.418 . S
C684 H679 0.930 . S
C684 C687 1.404 . S
C684 C688 1.353 . S
N685 Co650 2.145 . S
N685 C686 1.397 . S
N685 C687 1.334 . S
C686 H667 0.929 . S
C686 C683 1.388 . S
C686 N685 1.397 . S
C687 H668 0.929 . S
C687 C684 1.404 . S
C687 N685 1.334 . S
C688 H680 0.930 . S
C688 C683 1.418 . S
C688 C684 1.353 . S
C689 H659 0.930 . S
C689 N690 1.330 . S
C689 C691 1.446 . S
N690 Co649 2.151 . S
N690 C689 1.330 . S
N690 C694 1.418 . S
C691 H670 0.929 . S
C691 C689 1.446 . S
C691 C692 1.332 . S
C692 H672 0.931 . S
C692 C691 1.332 . S
C692 C693 1.267 . S
C693 H661 0.929 . S
C693 C692 1.267 . S
C693 C694 1.251 . S
C694 H664 0.929 . S
C694 N690 1.418 . S
C694 C693 1.251 . S
C695 H662 0.930 . S
C695 C697 1.406 . S
C695 C700 1.261 . S
C696 H663 0.930 . S
C696 N698 1.325 . S
C696 C699 1.357 . S
C697 H665 0.928 . S
C697 C695 1.406 . S
C697 N698 1.261 . S
N698 Co649 2.214 . S
N698 C696 1.325 . S
N698 C697 1.261 . S
C699 H669 0.931 . S
C699 C696 1.357 . S
C699 C700 1.312 . S
C700 H671 0.930 . S
C700 C695 1.261 . S
C700 C699 1.312 . S
C701 O673 1.214 . S
C701 O681 1.234 . S
C702 H674 0.929 . S
C702 C705 1.391 . S
C702 C707 1.391 . S
C703 H675 0.929 . S
C703 C704 1.390 . S
C703 N706 1.391 . S
C704 H676 0.930 . S
C704 C703 1.390 . S
C704 C705 1.392 . S
C705 H677 0.929 . S
C705 C702 1.391 . S
C705 C704 1.392 . S
N706 Co650 2.257 . S
N706 C703 1.391 . S
N706 C707 1.388 . S
C707 H678 0.930 . S
C707 C702 1.391 . S
C707 N706 1.388 . S
Co708 O710 2.143 . S
Co708 O716 2.074 . S
Co708 O719 2.093 . S
Co708 O732 2.097 . S
Co708 N749 2.151 . S
Co708 N757 2.214 . S
Co709 O710 2.160 . S
Co709 O715 2.058 . S
Co709 O725 2.057 . S
Co709 O740 2.037 . S
Co709 N744 2.145 . S
Co709 N765 2.257 . S
O710 Co708 2.143 . S
O710 Co709 2.160 . S
C711 O712 1.278 . S
C711 O719 1.224 . S
O712 C711 1.278 . S
C713 O714 1.245 . S
C713 O725 1.232 . S
O714 C713 1.245 . S
O715 Co709 2.058 . S
O715 C741 1.269 . S
O716 Co708 2.074 . S
O716 C741 1.257 . S
H717 C742 0.930 . S
H718 C748 0.930 . S
O719 Co708 2.093 . S
O719 C711 1.224 . S
H720 C752 0.929 . S
H721 C754 0.930 . S
H722 C755 0.930 . S
H723 C753 0.929 . S
H724 C756 0.928 . S
O725 Co709 2.057 . S
O725 C713 1.232 . S
H726 C745 0.929 . S
H727 C746 0.929 . S
H728 C758 0.931 . S
H729 C750 0.929 . S
H730 C759 0.930 . S
H731 C751 0.931 . S
O732 Co708 2.097 . S
O732 C760 1.214 . S
H733 C761 0.929 . S
H734 C762 0.929 . S
H735 C763 0.930 . S
H736 C764 0.929 . S
H737 C766 0.930 . S
H738 C743 0.930 . S
H739 C747 0.930 . S
O740 Co709 2.037 . S
O740 C760 1.234 . S
C741 O715 1.269 . S
C741 O716 1.257 . S
C742 H717 0.930 . S
C742 C745 1.388 . S
C742 C747 1.418 . S
C743 H738 0.930 . S
C743 C746 1.404 . S
C743 C747 1.353 . S
N744 Co709 2.145 . S
N744 C745 1.397 . S
N744 C746 1.334 . S
C745 H726 0.929 . S
C745 C742 1.388 . S
C745 N744 1.397 . S
C746 H727 0.929 . S
C746 C743 1.404 . S
C746 N744 1.334 . S
C747 H739 0.930 . S
C747 C742 1.418 . S
C747 C743 1.353 . S
C748 H718 0.930 . S
C748 N749 1.330 . S
C748 C750 1.446 . S
N749 Co708 2.151 . S
N749 C748 1.330 . S
N749 C753 1.418 . S
C750 H729 0.929 . S
C750 C748 1.446 . S
C750 C751 1.332 . S
C751 H731 0.931 . S
C751 C750 1.332 . S
C751 C752 1.267 . S
C752 H720 0.929 . S
C752 C751 1.267 . S
C752 C753 1.251 . S
C753 H723 0.929 . S
C753 N749 1.418 . S
C753 C752 1.251 . S
C754 H721 0.930 . S
C754 C756 1.406 . S
C754 C759 1.261 . S
C755 H722 0.930 . S
C755 N757 1.325 . S
C755 C758 1.357 . S
C756 H724 0.928 . S
C756 C754 1.406 . S
C756 N757 1.261 . S
N757 Co708 2.214 . S
N757 C755 1.325 . S
N757 C756 1.261 . S
C758 H728 0.931 . S
C758 C755 1.357 . S
C758 C759 1.312 . S
C759 H730 0.930 . S
C759 C754 1.261 . S
C759 C758 1.312 . S
C760 O732 1.214 . S
C760 O740 1.234 . S
C761 H733 0.929 . S
C761 C764 1.391 . S
C761 C766 1.391 . S
C762 H734 0.929 . S
C762 C763 1.390 . S
C762 N765 1.391 . S
C763 H735 0.930 . S
C763 C762 1.390 . S
C763 C764 1.392 . S
C764 H736 0.929 . S
C764 C761 1.391 . S
C764 C763 1.392 . S
N765 Co709 2.257 . S
N765 C762 1.391 . S
N765 C766 1.388 . S
C766 H737 0.930 . S
C766 C761 1.391 . S
C766 N765 1.388 . S
Co767 O769 2.143 . S
Co767 O775 2.074 . S
Co767 O778 2.093 . S
Co767 O791 2.097 . S
Co767 N808 2.151 . S
Co767 N816 2.214 . S
Co768 O769 2.160 . S
Co768 O774 2.058 . S
Co768 O784 2.057 . S
Co768 O799 2.037 . S
Co768 N803 2.145 . S
Co768 N824 2.257 . S
O769 Co767 2.143 . S
O769 Co768 2.160 . S
C770 O771 1.278 . S
C770 O778 1.224 . S
O771 C770 1.278 . S
C772 O773 1.245 . S
C772 O784 1.232 . S
O773 C772 1.245 . S
O774 Co768 2.058 . S
O774 C800 1.269 . S
O775 Co767 2.074 . S
O775 C800 1.257 . S
H776 C801 0.930 . S
H777 C807 0.930 . S
O778 Co767 2.093 . S
O778 C770 1.224 . S
H779 C811 0.929 . S
H780 C813 0.930 . S
H781 C814 0.930 . S
H782 C812 0.929 . S
H783 C815 0.928 . S
O784 Co768 2.057 . S
O784 C772 1.232 . S
H785 C804 0.929 . S
H786 C805 0.929 . S
H787 C817 0.931 . S
H788 C809 0.929 . S
H789 C818 0.930 . S
H790 C810 0.931 . S
O791 Co767 2.097 . S
O791 C819 1.214 . S
H792 C820 0.929 . S
H793 C821 0.929 . S
H794 C822 0.930 . S
H795 C823 0.929 . S
H796 C825 0.930 . S
H797 C802 0.930 . S
H798 C806 0.930 . S
O799 Co768 2.037 . S
O799 C819 1.234 . S
C800 O774 1.269 . S
C800 O775 1.257 . S
C801 H776 0.930 . S
C801 C804 1.388 . S
C801 C806 1.418 . S
C802 H797 0.930 . S
C802 C805 1.404 . S
C802 C806 1.353 . S
N803 Co768 2.145 . S
N803 C804 1.397 . S
N803 C805 1.334 . S
C804 H785 0.929 . S
C804 C801 1.388 . S
C804 N803 1.397 . S
C805 H786 0.929 . S
C805 C802 1.404 . S
C805 N803 1.334 . S
C806 H798 0.930 . S
C806 C801 1.418 . S
C806 C802 1.353 . S
C807 H777 0.930 . S
C807 N808 1.330 . S
C807 C809 1.446 . S
N808 Co767 2.151 . S
N808 C807 1.330 . S
N808 C812 1.418 . S
C809 H788 0.929 . S
C809 C807 1.446 . S
C809 C810 1.332 . S
C810 H790 0.931 . S
C810 C809 1.332 . S
C810 C811 1.267 . S
C811 H779 0.929 . S
C811 C810 1.267 . S
C811 C812 1.251 . S
C812 H782 0.929 . S
C812 N808 1.418 . S
C812 C811 1.251 . S
C813 H780 0.930 . S
C813 C815 1.406 . S
C813 C818 1.261 . S
C814 H781 0.930 . S
C814 N816 1.325 . S
C814 C817 1.357 . S
C815 H783 0.928 . S
C815 C813 1.406 . S
C815 N816 1.261 . S
N816 Co767 2.214 . S
N816 C814 1.325 . S
N816 C815 1.261 . S
C817 H787 0.931 . S
C817 C814 1.357 . S
C817 C818 1.312 . S
C818 H789 0.930 . S
C818 C813 1.261 . S
C818 C817 1.312 . S
C819 O791 1.214 . S
C819 O799 1.234 . S
C820 H792 0.929 . S
C820 C823 1.391 . S
C820 C825 1.391 . S
C821 H793 0.929 . S
C821 C822 1.390 . S
C821 N824 1.391 . S
C822 H794 0.930 . S
C822 C821 1.390 . S
C822 C823 1.392 . S
C823 H795 0.929 . S
C823 C820 1.391 . S
C823 C822 1.392 . S
N824 Co768 2.257 . S
N824 C821 1.391 . S
N824 C825 1.388 . S
C825 H796 0.930 . S
C825 C820 1.391 . S
C825 N824 1.388 . S
Co826 O828 2.143 . S
Co826 O834 2.074 . S
Co826 O837 2.093 . S
Co826 O850 2.097 . S
Co826 N867 2.151 . S
Co826 N875 2.214 . S
Co827 O828 2.160 . S
Co827 O833 2.058 . S
Co827 O843 2.057 . S
Co827 O858 2.037 . S
Co827 N862 2.145 . S
Co827 N883 2.257 . S
O828 Co826 2.143 . S
O828 Co827 2.160 . S
C829 O830 1.278 . S
C829 O837 1.224 . S
O830 C829 1.278 . S
C831 O832 1.245 . S
C831 O843 1.232 . S
O832 C831 1.245 . S
O833 Co827 2.058 . S
O833 C859 1.269 . S
O834 Co826 2.074 . S
O834 C859 1.257 . S
H835 C860 0.930 . S
H836 C866 0.930 . S
O837 Co826 2.093 . S
O837 C829 1.224 . S
H838 C870 0.929 . S
H839 C872 0.930 . S
H840 C873 0.930 . S
H841 C871 0.929 . S
H842 C874 0.928 . S
O843 Co827 2.057 . S
O843 C831 1.232 . S
H844 C863 0.929 . S
H845 C864 0.929 . S
H846 C876 0.931 . S
H847 C868 0.929 . S
H848 C877 0.930 . S
H849 C869 0.931 . S
O850 Co826 2.097 . S
O850 C878 1.214 . S
H851 C879 0.929 . S
H852 C880 0.929 . S
H853 C881 0.930 . S
H854 C882 0.929 1_554 S
H855 C884 0.930 . S
H856 C861 0.930 . S
H857 C865 0.930 . S
O858 Co827 2.037 . S
O858 C878 1.234 . S
C859 O833 1.269 . S
C859 O834 1.257 . S
C860 H835 0.930 . S
C860 C863 1.388 . S
C860 C865 1.418 . S
C861 H856 0.930 . S
C861 C864 1.404 . S
C861 C865 1.353 . S
N862 Co827 2.145 . S
N862 C863 1.397 . S
N862 C864 1.334 . S
C863 H844 0.929 . S
C863 C860 1.388 . S
C863 N862 1.397 . S
C864 H845 0.929 . S
C864 C861 1.404 . S
C864 N862 1.334 . S
C865 H857 0.930 . S
C865 C860 1.418 . S
C865 C861 1.353 . S
C866 H836 0.930 . S
C866 N867 1.330 . S
C866 C868 1.446 . S
N867 Co826 2.151 . S
N867 C866 1.330 . S
N867 C871 1.418 . S
C868 H847 0.929 . S
C868 C866 1.446 . S
C868 C869 1.332 . S
C869 H849 0.931 . S
C869 C868 1.332 . S
C869 C870 1.267 . S
C870 H838 0.929 . S
C870 C869 1.267 . S
C870 C871 1.251 . S
C871 H841 0.929 . S
C871 N867 1.418 . S
C871 C870 1.251 . S
C872 H839 0.930 . S
C872 C874 1.406 . S
C872 C877 1.261 . S
C873 H840 0.930 . S
C873 N875 1.325 . S
C873 C876 1.357 . S
C874 H842 0.928 . S
C874 C872 1.406 . S
C874 N875 1.261 . S
N875 Co826 2.214 . S
N875 C873 1.325 . S
N875 C874 1.261 . S
C876 H846 0.931 . S
C876 C873 1.357 . S
C876 C877 1.312 . S
C877 H848 0.930 . S
C877 C872 1.261 . S
C877 C876 1.312 . S
C878 O850 1.214 . S
C878 O858 1.234 . S
C879 H851 0.929 . S
C879 C882 1.391 . S
C879 C884 1.391 . S
C880 H852 0.929 . S
C880 C881 1.390 . S
C880 N883 1.391 . S
C881 H853 0.930 . S
C881 C880 1.390 . S
C881 C882 1.392 . S
C882 H854 0.929 1_556 S
C882 C879 1.391 . S
C882 C881 1.392 . S
N883 Co827 2.257 . S
N883 C880 1.391 . S
N883 C884 1.388 . S
C884 H855 0.930 . S
C884 C879 1.391 . S
C884 N883 1.388 . S
Co885 O887 2.143 . S
Co885 O893 2.074 . S
Co885 O896 2.093 . S
Co885 O909 2.097 . S
Co885 N926 2.151 . S
Co885 N934 2.214 . S
Co886 O887 2.160 . S
Co886 O892 2.058 . S
Co886 O902 2.057 . S
Co886 O917 2.037 . S
Co886 N921 2.145 . S
Co886 N942 2.257 . S
O887 Co885 2.143 . S
O887 Co886 2.160 . S
C888 O889 1.278 . S
C888 O896 1.224 . S
O889 C888 1.278 . S
C890 O891 1.245 . S
C890 O902 1.232 . S
O891 C890 1.245 . S
O892 Co886 2.058 . S
O892 C918 1.269 . S
O893 Co885 2.074 . S
O893 C918 1.257 . S
H894 C919 0.930 . S
H895 C925 0.930 . S
O896 Co885 2.093 . S
O896 C888 1.224 . S
H897 C929 0.929 . S
H898 C931 0.930 . S
H899 C932 0.930 . S
H900 C930 0.929 . S
H901 C933 0.928 . S
O902 Co886 2.057 . S
O902 C890 1.232 . S
H903 C922 0.929 . S
H904 C923 0.929 . S
H905 C935 0.931 . S
H906 C927 0.929 . S
H907 C936 0.930 . S
H908 C928 0.931 . S
O909 Co885 2.097 . S
O909 C937 1.214 . S
H910 C938 0.929 . S
H911 C939 0.929 . S
H912 C940 0.930 . S
H913 C941 0.929 . S
H914 C943 0.930 . S
H915 C920 0.930 . S
H916 C924 0.930 . S
O917 Co886 2.037 . S
O917 C937 1.234 . S
C918 O892 1.269 . S
C918 O893 1.257 . S
C919 H894 0.930 . S
C919 C922 1.388 . S
C919 C924 1.418 . S
C920 H915 0.930 . S
C920 C923 1.404 . S
C920 C924 1.353 . S
N921 Co886 2.145 . S
N921 C922 1.397 . S
N921 C923 1.334 . S
C922 H903 0.929 . S
C922 C919 1.388 . S
C922 N921 1.397 . S
C923 H904 0.929 . S
C923 C920 1.404 . S
C923 N921 1.334 . S
C924 H916 0.930 . S
C924 C919 1.418 . S
C924 C920 1.353 . S
C925 H895 0.930 . S
C925 N926 1.330 . S
C925 C927 1.446 . S
N926 Co885 2.151 . S
N926 C925 1.330 . S
N926 C930 1.418 . S
C927 H906 0.929 . S
C927 C925 1.446 . S
C927 C928 1.332 . S
C928 H908 0.931 . S
C928 C927 1.332 . S
C928 C929 1.267 . S
C929 H897 0.929 . S
C929 C928 1.267 . S
C929 C930 1.251 . S
C930 H900 0.929 . S
C930 N926 1.418 . S
C930 C929 1.251 . S
C931 H898 0.930 . S
C931 C933 1.406 . S
C931 C936 1.261 . S
C932 H899 0.930 . S
C932 N934 1.325 . S
C932 C935 1.357 . S
C933 H901 0.928 . S
C933 C931 1.406 . S
C933 N934 1.261 . S
N934 Co885 2.214 . S
N934 C932 1.325 . S
N934 C933 1.261 . S
C935 H905 0.931 . S
C935 C932 1.357 . S
C935 C936 1.312 . S
C936 H907 0.930 . S
C936 C931 1.261 . S
C936 C935 1.312 . S
C937 O909 1.214 . S
C937 O917 1.234 . S
C938 H910 0.929 . S
C938 C941 1.391 . S
C938 C943 1.391 . S
C939 H911 0.929 . S
C939 C940 1.390 . S
C939 N942 1.391 . S
C940 H912 0.930 . S
C940 C939 1.390 . S
C940 C941 1.392 . S
C941 H913 0.929 . S
C941 C938 1.391 . S
C941 C940 1.392 . S
N942 Co886 2.257 . S
N942 C939 1.391 . S
N942 C943 1.388 . S
C943 H914 0.930 . S
C943 C938 1.391 . S
C943 N942 1.388 . S
Co944 O946 2.143 . S
Co944 O952 2.074 . S
Co944 O955 2.093 . S
Co944 O968 2.097 . S
Co944 N985 2.151 . S
Co944 N993 2.214 . S
Co945 O946 2.160 . S
Co945 O951 2.058 . S
Co945 O961 2.057 . S
Co945 O976 2.037 . S
Co945 N980 2.145 . S
Co945 N1001 2.257 . S
O946 Co944 2.143 . S
O946 Co945 2.160 . S
C947 O948 1.278 . S
C947 O955 1.224 . S
O948 C947 1.278 . S
C949 O950 1.245 . S
C949 O961 1.232 . S
O950 C949 1.245 . S
O951 Co945 2.058 . S
O951 C977 1.269 . S
O952 Co944 2.074 . S
O952 C977 1.257 . S
H953 C978 0.930 . S
H954 C984 0.930 . S
O955 Co944 2.093 . S
O955 C947 1.224 . S
H956 C988 0.929 . S
H957 C990 0.930 . S
H958 C991 0.930 . S
H959 C989 0.929 . S
H960 C992 0.928 . S
O961 Co945 2.057 . S
O961 C949 1.232 . S
H962 C981 0.929 . S
H963 C982 0.929 . S
H964 C994 0.931 . S
H965 C986 0.929 . S
H966 C995 0.930 . S
H967 C987 0.931 . S
O968 Co944 2.097 . S
O968 C996 1.214 . S
H969 C997 0.929 . S
H970 C998 0.929 . S
H971 C999 0.930 . S
H972 C1000 0.929 . S
H973 C1002 0.930 . S
H974 C979 0.930 . S
H975 C983 0.930 . S
O976 Co945 2.037 . S
O976 C996 1.234 . S
C977 O951 1.269 . S
C977 O952 1.257 . S
C978 H953 0.930 . S
C978 C981 1.388 1_655 S
C978 C983 1.418 . S
C979 H974 0.930 . S
C979 C982 1.404 1_655 S
C979 C983 1.353 . S
N980 Co945 2.145 . S
N980 C981 1.397 . S
N980 C982 1.334 . S
C981 H962 0.929 . S
C981 C978 1.388 1_455 S
C981 N980 1.397 . S
C982 H963 0.929 . S
C982 C979 1.404 1_455 S
C982 N980 1.334 . S
C983 H975 0.930 . S
C983 C978 1.418 . S
C983 C979 1.353 . S
C984 H954 0.930 . S
C984 N985 1.330 . S
C984 C986 1.446 . S
N985 Co944 2.151 . S
N985 C984 1.330 . S
N985 C989 1.418 . S
C986 H965 0.929 . S
C986 C984 1.446 . S
C986 C987 1.332 . S
C987 H967 0.931 . S
C987 C986 1.332 . S
C987 C988 1.267 . S
C988 H956 0.929 . S
C988 C987 1.267 . S
C988 C989 1.251 . S
C989 H959 0.929 . S
C989 N985 1.418 . S
C989 C988 1.251 . S
C990 H957 0.930 . S
C990 C992 1.406 . S
C990 C995 1.261 . S
C991 H958 0.930 . S
C991 N993 1.325 . S
C991 C994 1.357 . S
C992 H960 0.928 . S
C992 C990 1.406 . S
C992 N993 1.261 . S
N993 Co944 2.214 . S
N993 C991 1.325 . S
N993 C992 1.261 . S
C994 H964 0.931 . S
C994 C991 1.357 . S
C994 C995 1.312 . S
C995 H966 0.930 . S
C995 C990 1.261 . S
C995 C994 1.312 . S
C996 O968 1.214 . S
C996 O976 1.234 . S
C997 H969 0.929 . S
C997 C1000 1.391 . S
C997 C1002 1.391 . S
C998 H970 0.929 . S
C998 C999 1.390 . S
C998 N1001 1.391 . S
C999 H971 0.930 . S
C999 C998 1.390 . S
C999 C1000 1.392 . S
C1000 H972 0.929 . S
C1000 C997 1.391 . S
C1000 C999 1.392 . S
N1001 Co945 2.257 . S
N1001 C998 1.391 . S
N1001 C1002 1.388 . S
C1002 H973 0.930 . S
C1002 C997 1.391 . S
C1002 N1001 1.388 . S
Co1003 O1005 2.143 . S
Co1003 O1011 2.074 . S
Co1003 O1014 2.093 . S
Co1003 O1027 2.097 . S
Co1003 N1044 2.151 . S
Co1003 N1052 2.214 . S
Co1004 O1005 2.160 . S
Co1004 O1010 2.058 . S
Co1004 O1020 2.057 . S
Co1004 O1035 2.037 . S
Co1004 N1039 2.145 . S
Co1004 N1060 2.257 . S
O1005 Co1003 2.143 . S
O1005 Co1004 2.160 . S
C1006 O1007 1.278 . S
C1006 O1014 1.224 . S
O1007 C1006 1.278 . S
C1008 O1009 1.245 . S
C1008 O1020 1.232 . S
O1009 C1008 1.245 . S
O1010 Co1004 2.058 . S
O1010 C1036 1.269 . S
O1011 Co1003 2.074 . S
O1011 C1036 1.257 . S
H1012 C1037 0.930 . S
H1013 C1043 0.930 . S
O1014 Co1003 2.093 . S
O1014 C1006 1.224 . S
H1015 C1047 0.929 . S
H1016 C1049 0.930 . S
H1017 C1050 0.930 . S
H1018 C1048 0.929 . S
H1019 C1051 0.928 . S
O1020 Co1004 2.057 . S
O1020 C1008 1.232 . S
H1021 C1040 0.929 . S
H1022 C1041 0.929 . S
H1023 C1053 0.931 . S
H1024 C1045 0.929 . S
H1025 C1054 0.930 . S
H1026 C1046 0.931 . S
O1027 Co1003 2.097 . S
O1027 C1055 1.214 . S
H1028 C1056 0.929 . S
H1029 C1057 0.929 . S
H1030 C1058 0.930 . S
H1031 C1059 0.929 1_655 S
H1032 C1061 0.930 . S
H1033 C1038 0.930 . S
H1034 C1042 0.930 . S
O1035 Co1004 2.037 . S
O1035 C1055 1.234 . S
C1036 O1010 1.269 . S
C1036 O1011 1.257 . S
C1037 H1012 0.930 . S
C1037 C1040 1.388 . S
C1037 C1042 1.418 . S
C1038 H1033 0.930 . S
C1038 C1041 1.404 . S
C1038 C1042 1.353 . S
N1039 Co1004 2.145 . S
N1039 C1040 1.397 . S
N1039 C1041 1.334 . S
C1040 H1021 0.929 . S
C1040 C1037 1.388 . S
C1040 N1039 1.397 . S
C1041 H1022 0.929 . S
C1041 C1038 1.404 . S
C1041 N1039 1.334 . S
C1042 H1034 0.930 . S
C1042 C1037 1.418 . S
C1042 C1038 1.353 . S
C1043 H1013 0.930 . S
C1043 N1044 1.330 . S
C1043 C1045 1.446 . S
N1044 Co1003 2.151 . S
N1044 C1043 1.330 . S
N1044 C1048 1.418 . S
C1045 H1024 0.929 . S
C1045 C1043 1.446 . S
C1045 C1046 1.332 . S
C1046 H1026 0.931 . S
C1046 C1045 1.332 . S
C1046 C1047 1.267 . S
C1047 H1015 0.929 . S
C1047 C1046 1.267 . S
C1047 C1048 1.251 . S
C1048 H1018 0.929 . S
C1048 N1044 1.418 . S
C1048 C1047 1.251 . S
C1049 H1016 0.930 . S
C1049 C1051 1.406 . S
C1049 C1054 1.261 . S
C1050 H1017 0.930 . S
C1050 N1052 1.325 . S
C1050 C1053 1.357 . S
C1051 H1019 0.928 . S
C1051 C1049 1.406 . S
C1051 N1052 1.261 . S
N1052 Co1003 2.214 . S
N1052 C1050 1.325 . S
N1052 C1051 1.261 . S
C1053 H1023 0.931 . S
C1053 C1050 1.357 . S
C1053 C1054 1.312 . S
C1054 H1025 0.930 . S
C1054 C1049 1.261 . S
C1054 C1053 1.312 . S
C1055 O1027 1.214 . S
C1055 O1035 1.234 . S
C1056 H1028 0.929 . S
C1056 C1059 1.391 . S
C1056 C1061 1.391 . S
C1057 H1029 0.929 . S
C1057 C1058 1.390 . S
C1057 N1060 1.391 . S
C1058 H1030 0.930 . S
C1058 C1057 1.390 . S
C1058 C1059 1.392 . S
C1059 H1031 0.929 1_455 S
C1059 C1056 1.391 . S
C1059 C1058 1.392 . S
N1060 Co1004 2.257 . S
N1060 C1057 1.391 . S
N1060 C1061 1.388 . S
C1061 H1032 0.930 . S
C1061 C1056 1.391 . S
C1061 N1060 1.388 . S
Co1062 O1064 2.143 . S
Co1062 O1070 2.074 . S
Co1062 O1073 2.093 . S
Co1062 O1086 2.097 . S
Co1062 N1103 2.151 . S
Co1062 N1111 2.214 . S
Co1063 O1064 2.160 . S
Co1063 O1069 2.058 . S
Co1063 O1079 2.057 . S
Co1063 O1094 2.037 . S
Co1063 N1098 2.145 . S
Co1063 N1119 2.257 . S
O1064 Co1062 2.143 . S
O1064 Co1063 2.160 . S
C1065 O1066 1.278 . S
C1065 O1073 1.224 . S
O1066 C1065 1.278 . S
C1067 O1068 1.245 . S
C1067 O1079 1.232 . S
O1068 C1067 1.245 . S
O1069 Co1063 2.058 . S
O1069 C1095 1.269 . S
O1070 Co1062 2.074 . S
O1070 C1095 1.257 . S
H1071 C1096 0.930 . S
H1072 C1102 0.930 . S
O1073 Co1062 2.093 . S
O1073 C1065 1.224 . S
H1074 C1106 0.929 . S
H1075 C1108 0.930 . S
H1076 C1109 0.930 . S
H1077 C1107 0.929 . S
H1078 C1110 0.928 . S
O1079 Co1063 2.057 . S
O1079 C1067 1.232 . S
H1080 C1099 0.929 . S
H1081 C1100 0.929 . S
H1082 C1112 0.931 . S
H1083 C1104 0.929 . S
H1084 C1113 0.930 . S
H1085 C1105 0.931 . S
O1086 Co1062 2.097 . S
O1086 C1114 1.214 . S
H1087 C1115 0.929 . S
H1088 C1116 0.929 . S
H1089 C1117 0.930 . S
H1090 C1118 0.929 . S
H1091 C1120 0.930 . S
H1092 C1097 0.930 . S
H1093 C1101 0.930 . S
O1094 Co1063 2.037 . S
O1094 C1114 1.234 . S
C1095 O1069 1.269 . S
C1095 O1070 1.257 . S
C1096 H1071 0.930 . S
C1096 C1099 1.388 . S
C1096 C1101 1.418 . S
C1097 H1092 0.930 . S
C1097 C1100 1.404 . S
C1097 C1101 1.353 . S
N1098 Co1063 2.145 . S
N1098 C1099 1.397 . S
N1098 C1100 1.334 . S
C1099 H1080 0.929 . S
C1099 C1096 1.388 . S
C1099 N1098 1.397 . S
C1100 H1081 0.929 . S
C1100 C1097 1.404 . S
C1100 N1098 1.334 . S
C1101 H1093 0.930 . S
C1101 C1096 1.418 . S
C1101 C1097 1.353 . S
C1102 H1072 0.930 . S
C1102 N1103 1.330 . S
C1102 C1104 1.446 . S
N1103 Co1062 2.151 . S
N1103 C1102 1.330 . S
N1103 C1107 1.418 . S
C1104 H1083 0.929 . S
C1104 C1102 1.446 . S
C1104 C1105 1.332 . S
C1105 H1085 0.931 . S
C1105 C1104 1.332 . S
C1105 C1106 1.267 . S
C1106 H1074 0.929 . S
C1106 C1105 1.267 . S
C1106 C1107 1.251 . S
C1107 H1077 0.929 . S
C1107 N1103 1.418 . S
C1107 C1106 1.251 . S
C1108 H1075 0.930 . S
C1108 C1110 1.406 . S
C1108 C1113 1.261 . S
C1109 H1076 0.930 . S
C1109 N1111 1.325 . S
C1109 C1112 1.357 . S
C1110 H1078 0.928 . S
C1110 C1108 1.406 . S
C1110 N1111 1.261 . S
N1111 Co1062 2.214 . S
N1111 C1109 1.325 . S
N1111 C1110 1.261 . S
C1112 H1082 0.931 . S
C1112 C1109 1.357 . S
C1112 C1113 1.312 . S
C1113 H1084 0.930 . S
C1113 C1108 1.261 . S
C1113 C1112 1.312 . S
C1114 O1086 1.214 . S
C1114 O1094 1.234 . S
C1115 H1087 0.929 . S
C1115 C1118 1.391 . S
C1115 C1120 1.391 . S
C1116 H1088 0.929 . S
C1116 C1117 1.390 . S
C1116 N1119 1.391 . S
C1117 H1089 0.930 . S
C1117 C1116 1.390 . S
C1117 C1118 1.392 . S
C1118 H1090 0.929 . S
C1118 C1115 1.391 . S
C1118 C1117 1.392 . S
N1119 Co1063 2.257 . S
N1119 C1116 1.391 . S
N1119 C1120 1.388 . S
C1120 H1091 0.930 . S
C1120 C1115 1.391 . S
C1120 N1119 1.388 . S
Co1121 O1123 2.143 . S
Co1121 O1129 2.074 . S
Co1121 O1132 2.093 . S
Co1121 O1145 2.097 . S
Co1121 N1162 2.151 . S
Co1121 N1170 2.214 . S
Co1122 O1123 2.160 . S
Co1122 O1128 2.058 . S
Co1122 O1138 2.057 . S
Co1122 O1153 2.037 . S
Co1122 N1157 2.145 . S
Co1122 N1178 2.257 . S
O1123 Co1121 2.143 . S
O1123 Co1122 2.160 . S
C1124 O1125 1.278 . S
C1124 O1132 1.224 . S
O1125 C1124 1.278 . S
C1126 O1127 1.245 . S
C1126 O1138 1.232 . S
O1127 C1126 1.245 . S
O1128 Co1122 2.058 . S
O1128 C1154 1.269 . S
O1129 Co1121 2.074 . S
O1129 C1154 1.257 . S
H1130 C1155 0.930 . S
H1131 C1161 0.930 . S
O1132 Co1121 2.093 . S
O1132 C1124 1.224 . S
H1133 C1165 0.929 . S
H1134 C1167 0.930 . S
H1135 C1168 0.930 . S
H1136 C1166 0.929 . S
H1137 C1169 0.928 . S
O1138 Co1122 2.057 . S
O1138 C1126 1.232 . S
H1139 C1158 0.929 . S
H1140 C1159 0.929 . S
H1141 C1171 0.931 . S
H1142 C1163 0.929 . S
H1143 C1172 0.930 . S
H1144 C1164 0.931 . S
O1145 Co1121 2.097 . S
O1145 C1173 1.214 . S
H1146 C1174 0.929 1_455 S
H1147 C1175 0.929 . S
H1148 C1176 0.928 1_455 S
H1149 C1177 0.929 . S
H1150 C1179 0.930 . S
H1151 C1156 0.930 . S
H1152 C1160 0.930 . S
O1153 Co1122 2.037 . S
O1153 C1173 1.234 . S
C1154 O1128 1.269 . S
C1154 O1129 1.257 . S
C1155 H1130 0.930 . S
C1155 C1158 1.388 . S
C1155 C1160 1.418 . S
C1156 H1151 0.930 . S
C1156 C1159 1.404 . S
C1156 C1160 1.353 . S
N1157 Co1122 2.145 . S
N1157 C1158 1.397 . S
N1157 C1159 1.334 . S
C1158 H1139 0.929 . S
C1158 C1155 1.388 . S
C1158 N1157 1.397 . S
C1159 H1140 0.929 . S
C1159 C1156 1.404 . S
C1159 N1157 1.334 . S
C1160 H1152 0.930 . S
C1160 C1155 1.418 . S
C1160 C1156 1.353 . S
C1161 H1131 0.930 . S
C1161 N1162 1.330 . S
C1161 C1163 1.446 . S
N1162 Co1121 2.151 . S
N1162 C1161 1.330 . S
N1162 C1166 1.418 . S
C1163 H1142 0.929 . S
C1163 C1161 1.446 . S
C1163 C1164 1.332 . S
C1164 H1144 0.931 . S
C1164 C1163 1.332 . S
C1164 C1165 1.267 . S
C1165 H1133 0.929 . S
C1165 C1164 1.267 . S
C1165 C1166 1.251 . S
C1166 H1136 0.929 . S
C1166 N1162 1.418 . S
C1166 C1165 1.251 . S
C1167 H1134 0.930 . S
C1167 C1169 1.406 . S
C1167 C1172 1.261 . S
C1168 H1135 0.930 . S
C1168 N1170 1.325 . S
C1168 C1171 1.357 . S
C1169 H1137 0.928 . S
C1169 C1167 1.406 . S
C1169 N1170 1.261 . S
N1170 Co1121 2.214 . S
N1170 C1168 1.325 . S
N1170 C1169 1.261 . S
C1171 H1141 0.931 . S
C1171 C1168 1.357 . S
C1171 C1172 1.312 . S
C1172 H1143 0.930 . S
C1172 C1167 1.261 . S
C1172 C1171 1.312 . S
C1173 O1145 1.214 . S
C1173 O1153 1.234 . S
C1174 H1146 0.929 1_655 S
C1174 C1177 1.391 1_655 S
C1174 C1179 1.391 . S
C1175 H1147 0.929 . S
C1175 C1176 1.390 . S
C1175 N1178 1.391 . S
C1176 H1148 0.928 1_655 S
C1176 C1175 1.390 . S
C1176 C1177 1.392 1_655 S
C1177 H1149 0.929 . S
C1177 C1174 1.391 1_455 S
C1177 C1176 1.392 1_455 S
N1178 Co1122 2.257 . S
N1178 C1175 1.391 . S
N1178 C1179 1.388 . S
C1179 H1150 0.930 . S
C1179 C1174 1.391 . S
C1179 N1178 1.388 . S
Co1180 O1182 2.143 . S
Co1180 O1188 2.074 . S
Co1180 O1191 2.093 . S
Co1180 O1204 2.097 . S
Co1180 N1221 2.151 . S
Co1180 N1229 2.214 . S
Co1181 O1182 2.160 . S
Co1181 O1187 2.058 . S
Co1181 O1197 2.057 . S
Co1181 O1212 2.037 . S
Co1181 N1216 2.145 . S
Co1181 N1237 2.257 . S
O1182 Co1180 2.143 . S
O1182 Co1181 2.160 . S
C1183 O1184 1.278 . S
C1183 O1191 1.224 . S
O1184 C1183 1.278 . S
C1185 O1186 1.245 . S
C1185 O1197 1.232 . S
O1186 C1185 1.245 . S
O1187 Co1181 2.058 . S
O1187 C1213 1.269 . S
O1188 Co1180 2.074 . S
O1188 C1213 1.257 . S
H1189 C1214 0.930 . S
H1190 C1220 0.930 . S
O1191 Co1180 2.093 . S
O1191 C1183 1.224 . S
H1192 C1224 0.924 1_655 S
H1193 C1226 0.930 . S
H1194 C1227 0.930 . S
H1195 C1225 0.929 . S
H1196 C1228 0.928 . S
O1197 Co1181 2.057 . S
O1197 C1185 1.232 . S
H1198 C1217 0.929 . S
H1199 C1218 0.929 . S
H1200 C1230 0.931 . S
H1201 C1222 0.929 . S
H1202 C1231 0.930 1_655 S
H1203 C1223 0.931 1_655 S
O1204 Co1180 2.097 . S
O1204 C1232 1.214 . S
H1205 C1233 0.929 . S
H1206 C1234 0.929 . S
H1207 C1235 0.930 . S
H1208 C1236 0.929 . S
H1209 C1238 0.930 . S
H1210 C1215 0.930 . S
H1211 C1219 0.930 . S
O1212 Co1181 2.037 . S
O1212 C1232 1.234 . S
C1213 O1187 1.269 . S
C1213 O1188 1.257 . S
C1214 H1189 0.930 . S
C1214 C1217 1.388 . S
C1214 C1219 1.418 . S
C1215 H1210 0.930 . S
C1215 C1218 1.404 . S
C1215 C1219 1.353 . S
N1216 Co1181 2.145 . S
N1216 C1217 1.397 . S
N1216 C1218 1.334 . S
C1217 H1198 0.929 . S
C1217 C1214 1.388 . S
C1217 N1216 1.397 . S
C1218 H1199 0.929 . S
C1218 C1215 1.404 . S
C1218 N1216 1.334 . S
C1219 H1211 0.930 . S
C1219 C1214 1.418 . S
C1219 C1215 1.353 . S
C1220 H1190 0.930 . S
C1220 N1221 1.330 . S
C1220 C1222 1.446 . S
N1221 Co1180 2.151 . S
N1221 C1220 1.330 . S
N1221 C1225 1.418 . S
C1222 H1201 0.929 . S
C1222 C1220 1.446 . S
C1222 C1223 1.332 . S
C1223 H1203 0.931 1_455 S
C1223 C1222 1.332 . S
C1223 C1224 1.269 . S
C1224 H1192 0.924 1_455 S
C1224 C1223 1.269 . S
C1224 C1225 1.254 . S
C1225 H1195 0.929 . S
C1225 N1221 1.418 . S
C1225 C1224 1.254 . S
C1226 H1193 0.930 . S
C1226 C1228 1.406 . S
C1226 C1231 1.261 . S
C1227 H1194 0.930 . S
C1227 N1229 1.325 . S
C1227 C1230 1.357 . S
C1228 H1196 0.928 . S
C1228 C1226 1.406 . S
C1228 N1229 1.261 . S
N1229 Co1180 2.214 . S
N1229 C1227 1.325 . S
N1229 C1228 1.261 . S
C1230 H1200 0.931 . S
C1230 C1227 1.357 . S
C1230 C1231 1.312 . S
C1231 H1202 0.930 1_455 S
C1231 C1226 1.261 . S
C1231 C1230 1.312 . S
C1232 O1204 1.214 . S
C1232 O1212 1.234 . S
C1233 H1205 0.929 . S
C1233 C1236 1.391 . S
C1233 C1238 1.391 . S
C1234 H1206 0.929 . S
C1234 C1235 1.390 . S
C1234 N1237 1.391 . S
C1235 H1207 0.930 . S
C1235 C1234 1.390 . S
C1235 C1236 1.392 . S
C1236 H1208 0.929 . S
C1236 C1233 1.391 . S
C1236 C1235 1.392 . S
N1237 Co1181 2.257 . S
N1237 C1234 1.391 . S
N1237 C1238 1.388 . S
C1238 H1209 0.930 . S
C1238 C1233 1.391 . S
C1238 N1237 1.388 . S
Co1239 O1241 2.143 . S
Co1239 O1247 2.074 . S
Co1239 O1250 2.093 . S
Co1239 O1263 2.097 . S
Co1239 N1280 2.151 . S
Co1239 N1288 2.214 . S
Co1240 O1241 2.160 . S
Co1240 O1246 2.058 . S
Co1240 O1256 2.057 . S
Co1240 O1271 2.037 . S
Co1240 N1275 2.145 . S
Co1240 N1296 2.257 . S
O1241 Co1239 2.143 . S
O1241 Co1240 2.160 . S
C1242 O1243 1.278 . S
C1242 O1250 1.224 . S
O1243 C1242 1.278 . S
C1244 O1245 1.245 . S
C1244 O1256 1.232 . S
O1245 C1244 1.245 . S
O1246 Co1240 2.058 . S
O1246 C1272 1.269 . S
O1247 Co1239 2.074 . S
O1247 C1272 1.257 . S
H1248 C1273 0.930 . S
H1249 C1279 0.930 . S
O1250 Co1239 2.093 . S
O1250 C1242 1.224 . S
H1251 C1283 0.929 . S
H1252 C1285 0.930 . S
H1253 C1286 0.930 . S
H1254 C1284 0.929 . S
H1255 C1287 0.928 . S
O1256 Co1240 2.057 . S
O1256 C1244 1.232 . S
H1257 C1276 0.929 . S
H1258 C1277 0.929 . S
H1259 C1289 0.931 . S
H1260 C1281 0.929 . S
H1261 C1290 0.930 . S
H1262 C1282 0.931 . S
O1263 Co1239 2.097 . S
O1263 C1291 1.214 . S
H1264 C1292 0.929 . S
H1265 C1293 0.929 . S
H1266 C1294 0.930 . S
H1267 C1295 0.929 1_455 S
H1268 C1297 0.930 . S
H1269 C1274 0.930 . S
H1270 C1278 0.930 . S
O1271 Co1240 2.037 . S
O1271 C1291 1.234 . S
C1272 O1246 1.269 . S
C1272 O1247 1.257 . S
C1273 H1248 0.930 . S
C1273 C1276 1.388 . S
C1273 C1278 1.418 . S
C1274 H1269 0.930 . S
C1274 C1277 1.404 . S
C1274 C1278 1.353 . S
N1275 Co1240 2.145 . S
N1275 C1276 1.397 . S
N1275 C1277 1.334 . S
C1276 H1257 0.929 . S
C1276 C1273 1.388 . S
C1276 N1275 1.397 . S
C1277 H1258 0.929 . S
C1277 C1274 1.404 . S
C1277 N1275 1.334 . S
C1278 H1270 0.930 . S
C1278 C1273 1.418 . S
C1278 C1274 1.353 . S
C1279 H1249 0.930 . S
C1279 N1280 1.330 . S
C1279 C1281 1.446 . S
N1280 Co1239 2.151 . S
N1280 C1279 1.330 . S
N1280 C1284 1.418 . S
C1281 H1260 0.929 . S
C1281 C1279 1.446 . S
C1281 C1282 1.332 . S
C1282 H1262 0.931 . S
C1282 C1281 1.332 . S
C1282 C1283 1.267 . S
C1283 H1251 0.929 . S
C1283 C1282 1.267 . S
C1283 C1284 1.251 . S
C1284 H1254 0.929 . S
C1284 N1280 1.418 . S
C1284 C1283 1.251 . S
C1285 H1252 0.930 . S
C1285 C1287 1.406 . S
C1285 C1290 1.261 . S
C1286 H1253 0.930 . S
C1286 N1288 1.325 . S
C1286 C1289 1.357 . S
C1287 H1255 0.928 . S
C1287 C1285 1.406 . S
C1287 N1288 1.261 . S
N1288 Co1239 2.214 . S
N1288 C1286 1.325 . S
N1288 C1287 1.261 . S
C1289 H1259 0.931 . S
C1289 C1286 1.357 . S
C1289 C1290 1.312 . S
C1290 H1261 0.930 . S
C1290 C1285 1.261 . S
C1290 C1289 1.312 . S
C1291 O1263 1.214 . S
C1291 O1271 1.234 . S
C1292 H1264 0.929 . S
C1292 C1295 1.391 . S
C1292 C1297 1.391 . S
C1293 H1265 0.929 . S
C1293 C1294 1.390 . S
C1293 N1296 1.391 . S
C1294 H1266 0.930 . S
C1294 C1293 1.390 . S
C1294 C1295 1.392 . S
C1295 H1267 0.929 1_655 S
C1295 C1292 1.391 . S
C1295 C1294 1.392 . S
N1296 Co1240 2.257 . S
N1296 C1293 1.391 . S
N1296 C1297 1.388 . S
C1297 H1268 0.930 . S
C1297 C1292 1.391 . S
C1297 N1296 1.388 . S
Co1298 O1300 2.143 . S
Co1298 O1306 2.074 . S
Co1298 O1309 2.093 . S
Co1298 O1322 2.097 . S
Co1298 N1339 2.151 . S
Co1298 N1347 2.214 . S
Co1299 O1300 2.160 . S
Co1299 O1305 2.058 . S
Co1299 O1315 2.057 . S
Co1299 O1330 2.037 . S
Co1299 N1334 2.145 . S
Co1299 N1355 2.257 . S
O1300 Co1298 2.143 . S
O1300 Co1299 2.160 . S
C1301 O1302 1.278 . S
C1301 O1309 1.224 . S
O1302 C1301 1.278 . S
C1303 O1304 1.245 . S
C1303 O1315 1.232 . S
O1304 C1303 1.245 . S
O1305 Co1299 2.058 . S
O1305 C1331 1.269 . S
O1306 Co1298 2.074 . S
O1306 C1331 1.257 . S
H1307 C1332 0.930 . S
H1308 C1338 0.930 . S
O1309 Co1298 2.093 . S
O1309 C1301 1.224 . S
H1310 C1342 0.929 . S
H1311 C1344 0.930 . S
H1312 C1345 0.930 . S
H1313 C1343 0.929 . S
H1314 C1346 0.928 . S
O1315 Co1299 2.057 . S
O1315 C1303 1.232 . S
H1316 C1335 0.929 . S
H1317 C1336 0.929 . S
H1318 C1348 0.931 . S
H1319 C1340 0.929 . S
H1320 C1349 0.930 . S
H1321 C1341 0.931 . S
O1322 Co1298 2.097 . S
O1322 C1350 1.214 . S
H1323 C1351 0.929 . S
H1324 C1352 0.929 . S
H1325 C1353 0.930 . S
H1326 C1354 0.929 . S
H1327 C1356 0.930 . S
H1328 C1333 0.930 . S
H1329 C1337 0.930 . S
O1330 Co1299 2.037 . S
O1330 C1350 1.234 . S
C1331 O1305 1.269 . S
C1331 O1306 1.257 . S
C1332 H1307 0.930 . S
C1332 C1335 1.388 . S
C1332 C1337 1.418 . S
C1333 H1328 0.930 . S
C1333 C1336 1.404 . S
C1333 C1337 1.353 . S
N1334 Co1299 2.145 . S
N1334 C1335 1.397 . S
N1334 C1336 1.334 . S
C1335 H1316 0.929 . S
C1335 C1332 1.388 . S
C1335 N1334 1.397 . S
C1336 H1317 0.929 . S
C1336 C1333 1.404 . S
C1336 N1334 1.334 . S
C1337 H1329 0.930 . S
C1337 C1332 1.418 . S
C1337 C1333 1.353 . S
C1338 H1308 0.930 . S
C1338 N1339 1.330 . S
C1338 C1340 1.446 . S
N1339 Co1298 2.151 . S
N1339 C1338 1.330 . S
N1339 C1343 1.418 . S
C1340 H1319 0.929 . S
C1340 C1338 1.446 . S
C1340 C1341 1.332 . S
C1341 H1321 0.931 . S
C1341 C1340 1.332 . S
C1341 C1342 1.267 . S
C1342 H1310 0.929 . S
C1342 C1341 1.267 . S
C1342 C1343 1.251 . S
C1343 H1313 0.929 . S
C1343 N1339 1.418 . S
C1343 C1342 1.251 . S
C1344 H1311 0.930 . S
C1344 C1346 1.406 . S
C1344 C1349 1.261 . S
C1345 H1312 0.930 . S
C1345 N1347 1.325 . S
C1345 C1348 1.357 . S
C1346 H1314 0.928 . S
C1346 C1344 1.406 . S
C1346 N1347 1.261 . S
N1347 Co1298 2.214 . S
N1347 C1345 1.325 . S
N1347 C1346 1.261 . S
C1348 H1318 0.931 . S
C1348 C1345 1.357 . S
C1348 C1349 1.312 . S
C1349 H1320 0.930 . S
C1349 C1344 1.261 . S
C1349 C1348 1.312 . S
C1350 O1322 1.214 . S
C1350 O1330 1.234 . S
C1351 H1323 0.929 . S
C1351 C1354 1.391 . S
C1351 C1356 1.391 . S
C1352 H1324 0.929 . S
C1352 C1353 1.390 . S
C1352 N1355 1.391 . S
C1353 H1325 0.930 . S
C1353 C1352 1.390 . S
C1353 C1354 1.392 . S
C1354 H1326 0.929 . S
C1354 C1351 1.391 . S
C1354 C1353 1.392 . S
N1355 Co1299 2.257 . S
N1355 C1352 1.391 . S
N1355 C1356 1.388 . S
C1356 H1327 0.930 . S
C1356 C1351 1.391 . S
C1356 N1355 1.388 . S
Co1357 O1359 2.143 . S
Co1357 O1365 2.074 . S
Co1357 O1368 2.093 . S
Co1357 O1381 2.097 . S
Co1357 N1398 2.151 . S
Co1357 N1406 2.214 . S
Co1358 O1359 2.160 . S
Co1358 O1364 2.058 . S
Co1358 O1374 2.057 . S
Co1358 O1389 2.037 . S
Co1358 N1393 2.145 . S
Co1358 N1414 2.257 . S
O1359 Co1357 2.143 . S
O1359 Co1358 2.160 . S
C1360 O1361 1.278 . S
C1360 O1368 1.224 . S
O1361 C1360 1.278 . S
C1362 O1363 1.245 . S
C1362 O1374 1.232 . S
O1363 C1362 1.245 . S
O1364 Co1358 2.058 . S
O1364 C1390 1.269 . S
O1365 Co1357 2.074 . S
O1365 C1390 1.257 . S
H1366 C1391 0.930 . S
H1367 C1397 0.930 . S
O1368 Co1357 2.093 . S
O1368 C1360 1.224 . S
H1369 C1401 0.929 . S
H1370 C1403 0.930 . S
H1371 C1404 0.930 . S
H1372 C1402 0.929 . S
H1373 C1405 0.928 . S
O1374 Co1358 2.057 . S
O1374 C1362 1.232 . S
H1375 C1394 0.929 . S
H1376 C1395 0.929 . S
H1377 C1407 0.931 . S
H1378 C1399 0.929 . S
H1379 C1408 0.930 . S
H1380 C1400 0.931 . S
O1381 Co1357 2.097 . S
O1381 C1409 1.214 . S
H1382 C1410 0.929 . S
H1383 C1411 0.929 . S
H1384 C1412 0.930 . S
H1385 C1413 0.929 . S
H1386 C1415 0.930 . S
H1387 C1392 0.930 . S
H1388 C1396 0.930 . S
O1389 Co1358 2.037 . S
O1389 C1409 1.234 . S
C1390 O1364 1.269 . S
C1390 O1365 1.257 . S
C1391 H1366 0.930 . S
C1391 C1394 1.388 . S
C1391 C1396 1.418 . S
C1392 H1387 0.930 . S
C1392 C1395 1.404 . S
C1392 C1396 1.353 . S
N1393 Co1358 2.145 . S
N1393 C1394 1.397 . S
N1393 C1395 1.334 . S
C1394 H1375 0.929 . S
C1394 C1391 1.388 . S
C1394 N1393 1.397 . S
C1395 H1376 0.929 . S
C1395 C1392 1.404 . S
C1395 N1393 1.334 . S
C1396 H1388 0.930 . S
C1396 C1391 1.418 . S
C1396 C1392 1.353 . S
C1397 H1367 0.930 . S
C1397 N1398 1.330 . S
C1397 C1399 1.446 . S
N1398 Co1357 2.151 . S
N1398 C1397 1.330 . S
N1398 C1402 1.418 . S
C1399 H1378 0.929 . S
C1399 C1397 1.446 . S
C1399 C1400 1.332 . S
C1400 H1380 0.931 . S
C1400 C1399 1.332 . S
C1400 C1401 1.267 . S
C1401 H1369 0.929 . S
C1401 C1400 1.267 . S
C1401 C1402 1.251 . S
C1402 H1372 0.929 . S
C1402 N1398 1.418 . S
C1402 C1401 1.251 . S
C1403 H1370 0.930 . S
C1403 C1405 1.406 . S
C1403 C1408 1.261 . S
C1404 H1371 0.930 . S
C1404 N1406 1.325 . S
C1404 C1407 1.357 . S
C1405 H1373 0.928 . S
C1405 C1403 1.406 . S
C1405 N1406 1.261 . S
N1406 Co1357 2.214 . S
N1406 C1404 1.325 . S
N1406 C1405 1.261 . S
C1407 H1377 0.931 . S
C1407 C1404 1.357 . S
C1407 C1408 1.312 . S
C1408 H1379 0.930 . S
C1408 C1403 1.261 . S
C1408 C1407 1.312 . S
C1409 O1381 1.214 . S
C1409 O1389 1.234 . S
C1410 H1382 0.929 . S
C1410 C1413 1.391 . S
C1410 C1415 1.391 . S
C1411 H1383 0.929 . S
C1411 C1412 1.390 . S
C1411 N1414 1.391 . S
C1412 H1384 0.930 . S
C1412 C1411 1.390 . S
C1412 C1413 1.392 . S
C1413 H1385 0.929 . S
C1413 C1410 1.391 . S
C1413 C1412 1.392 . S
N1414 Co1358 2.257 . S
N1414 C1411 1.391 . S
N1414 C1415 1.388 . S
C1415 H1386 0.930 . S
C1415 C1410 1.391 . S
C1415 N1414 1.388 . S
Co1416 O1418 2.143 . S
Co1416 O1424 2.074 . S
Co1416 O1427 2.093 . S
Co1416 O1440 2.097 . S
Co1416 N1457 2.151 . S
Co1416 N1465 2.214 . S
Co1417 O1418 2.160 . S
Co1417 O1423 2.058 . S
Co1417 O1433 2.057 . S
Co1417 O1448 2.037 . S
Co1417 N1452 2.145 . S
Co1417 N1473 2.257 . S
O1418 Co1416 2.143 . S
O1418 Co1417 2.160 . S
C1419 O1420 1.278 . S
C1419 O1427 1.224 . S
O1420 C1419 1.278 . S
C1421 O1422 1.245 . S
C1421 O1433 1.232 . S
O1422 C1421 1.245 . S
O1423 Co1417 2.058 . S
O1423 C1449 1.269 . S
O1424 Co1416 2.074 . S
O1424 C1449 1.257 . S
H1425 C1450 0.930 . S
H1426 C1456 0.930 . S
O1427 Co1416 2.093 . S
O1427 C1419 1.224 . S
H1428 C1460 0.929 . S
H1429 C1462 0.930 . S
H1430 C1463 0.930 . S
H1431 C1461 0.929 . S
H1432 C1464 0.928 . S
O1433 Co1417 2.057 . S
O1433 C1421 1.232 . S
H1434 C1453 0.929 . S
H1435 C1454 0.929 . S
H1436 C1466 0.931 . S
H1437 C1458 0.929 . S
H1438 C1467 0.930 . S
H1439 C1459 0.931 . S
O1440 Co1416 2.097 . S
O1440 C1468 1.214 . S
H1441 C1469 0.929 . S
H1442 C1470 0.929 . S
H1443 C1471 0.930 . S
H1444 C1472 0.929 . S
H1445 C1474 0.930 . S
H1446 C1451 0.930 . S
H1447 C1455 0.930 . S
O1448 Co1417 2.037 . S
O1448 C1468 1.234 . S
C1449 O1423 1.269 . S
C1449 O1424 1.257 . S
C1450 H1425 0.930 . S
C1450 C1453 1.388 . S
C1450 C1455 1.418 . S
C1451 H1446 0.930 . S
C1451 C1454 1.404 . S
C1451 C1455 1.353 . S
N1452 Co1417 2.145 . S
N1452 C1453 1.397 . S
N1452 C1454 1.334 . S
C1453 H1434 0.929 . S
C1453 C1450 1.388 . S
C1453 N1452 1.397 . S
C1454 H1435 0.929 . S
C1454 C1451 1.404 . S
C1454 N1452 1.334 . S
C1455 H1447 0.930 . S
C1455 C1450 1.418 . S
C1455 C1451 1.353 . S
C1456 H1426 0.930 . S
C1456 N1457 1.330 . S
C1456 C1458 1.446 . S
N1457 Co1416 2.151 . S
N1457 C1456 1.330 . S
N1457 C1461 1.418 . S
C1458 H1437 0.929 . S
C1458 C1456 1.446 . S
C1458 C1459 1.332 . S
C1459 H1439 0.931 . S
C1459 C1458 1.332 . S
C1459 C1460 1.267 . S
C1460 H1428 0.929 . S
C1460 C1459 1.267 . S
C1460 C1461 1.251 . S
C1461 H1431 0.929 . S
C1461 N1457 1.418 . S
C1461 C1460 1.251 . S
C1462 H1429 0.930 . S
C1462 C1464 1.406 . S
C1462 C1467 1.261 . S
C1463 H1430 0.930 . S
C1463 N1465 1.325 . S
C1463 C1466 1.357 . S
C1464 H1432 0.928 . S
C1464 C1462 1.406 . S
C1464 N1465 1.261 . S
N1465 Co1416 2.214 . S
N1465 C1463 1.325 . S
N1465 C1464 1.261 . S
C1466 H1436 0.931 . S
C1466 C1463 1.357 . S
C1466 C1467 1.312 . S
C1467 H1438 0.930 . S
C1467 C1462 1.261 . S
C1467 C1466 1.312 . S
C1468 O1440 1.214 . S
C1468 O1448 1.234 . S
C1469 H1441 0.929 . S
C1469 C1472 1.391 . S
C1469 C1474 1.391 . S
C1470 H1442 0.929 . S
C1470 C1471 1.390 . S
C1470 N1473 1.391 . S
C1471 H1443 0.930 . S
C1471 C1470 1.390 . S
C1471 C1472 1.392 . S
C1472 H1444 0.929 . S
C1472 C1469 1.391 . S
C1472 C1471 1.392 . S
N1473 Co1417 2.257 . S
N1473 C1470 1.391 . S
N1473 C1474 1.388 . S
C1474 H1445 0.930 . S
C1474 C1469 1.391 . S
C1474 N1473 1.388 . S
Co1475 O1477 2.143 . S
Co1475 O1483 2.074 . S
Co1475 O1486 2.093 . S
Co1475 O1499 2.097 . S
Co1475 N1516 2.151 . S
Co1475 N1524 2.214 . S
Co1476 O1477 2.160 . S
Co1476 O1482 2.058 . S
Co1476 O1492 2.057 . S
Co1476 O1507 2.037 . S
Co1476 N1511 2.145 . S
Co1476 N1532 2.257 . S
O1477 Co1475 2.143 . S
O1477 Co1476 2.160 . S
C1478 O1479 1.278 . S
C1478 O1486 1.224 . S
O1479 C1478 1.278 . S
C1480 O1481 1.245 . S
C1480 O1492 1.232 . S
O1481 C1480 1.245 . S
O1482 Co1476 2.058 . S
O1482 C1508 1.269 . S
O1483 Co1475 2.074 . S
O1483 C1508 1.257 . S
H1484 C1509 0.930 . S
H1485 C1515 0.930 . S
O1486 Co1475 2.093 . S
O1486 C1478 1.224 . S
H1487 C1519 0.929 . S
H1488 C1521 0.930 . S
H1489 C1522 0.930 . S
H1490 C1520 0.929 . S
H1491 C1523 0.928 . S
O1492 Co1476 2.057 . S
O1492 C1480 1.232 . S
H1493 C1512 0.929 . S
H1494 C1513 0.929 . S
H1495 C1525 0.931 . S
H1496 C1517 0.929 . S
H1497 C1526 0.930 . S
H1498 C1518 0.931 . S
O1499 Co1475 2.097 . S
O1499 C1527 1.214 . S
H1500 C1528 0.929 . S
H1501 C1529 0.929 . S
H1502 C1530 0.930 . S
H1503 C1531 0.929 . S
H1504 C1533 0.930 . S
H1505 C1510 0.930 . S
H1506 C1514 0.930 . S
O1507 Co1476 2.037 . S
O1507 C1527 1.234 . S
C1508 O1482 1.269 . S
C1508 O1483 1.257 . S
C1509 H1484 0.930 . S
C1509 C1512 1.388 . S
C1509 C1514 1.418 . S
C1510 H1505 0.930 . S
C1510 C1513 1.404 . S
C1510 C1514 1.353 . S
N1511 Co1476 2.145 . S
N1511 C1512 1.397 . S
N1511 C1513 1.334 . S
C1512 H1493 0.929 . S
C1512 C1509 1.388 . S
C1512 N1511 1.397 . S
C1513 H1494 0.929 . S
C1513 C1510 1.404 . S
C1513 N1511 1.334 . S
C1514 H1506 0.930 . S
C1514 C1509 1.418 . S
C1514 C1510 1.353 . S
C1515 H1485 0.930 . S
C1515 N1516 1.330 . S
C1515 C1517 1.446 . S
N1516 Co1475 2.151 . S
N1516 C1515 1.330 . S
N1516 C1520 1.418 . S
C1517 H1496 0.929 . S
C1517 C1515 1.446 . S
C1517 C1518 1.332 . S
C1518 H1498 0.931 . S
C1518 C1517 1.332 . S
C1518 C1519 1.267 . S
C1519 H1487 0.929 . S
C1519 C1518 1.267 . S
C1519 C1520 1.251 . S
C1520 H1490 0.929 . S
C1520 N1516 1.418 . S
C1520 C1519 1.251 . S
C1521 H1488 0.930 . S
C1521 C1523 1.406 . S
C1521 C1526 1.261 . S
C1522 H1489 0.930 . S
C1522 N1524 1.325 . S
C1522 C1525 1.357 . S
C1523 H1491 0.928 . S
C1523 C1521 1.406 . S
C1523 N1524 1.261 . S
N1524 Co1475 2.214 . S
N1524 C1522 1.325 . S
N1524 C1523 1.261 . S
C1525 H1495 0.931 . S
C1525 C1522 1.357 . S
C1525 C1526 1.312 . S
C1526 H1497 0.930 . S
C1526 C1521 1.261 . S
C1526 C1525 1.312 . S
C1527 O1499 1.214 . S
C1527 O1507 1.234 . S
C1528 H1500 0.929 . S
C1528 C1531 1.391 . S
C1528 C1533 1.391 . S
C1529 H1501 0.929 . S
C1529 C1530 1.390 . S
C1529 N1532 1.391 . S
C1530 H1502 0.930 . S
C1530 C1529 1.390 . S
C1530 C1531 1.392 . S
C1531 H1503 0.929 . S
C1531 C1528 1.391 . S
C1531 C1530 1.392 . S
N1532 Co1476 2.257 . S
N1532 C1529 1.391 . S
N1532 C1533 1.388 . S
C1533 H1504 0.930 . S
C1533 C1528 1.391 . S
C1533 N1532 1.388 . S
Co1534 O1536 2.143 . S
Co1534 O1542 2.074 . S
Co1534 O1545 2.093 . S
Co1534 O1558 2.097 . S
Co1534 N1575 2.151 . S
Co1534 N1583 2.214 . S
Co1535 O1536 2.160 . S
Co1535 O1541 2.058 . S
Co1535 O1551 2.057 . S
Co1535 O1566 2.037 . S
Co1535 N1570 2.145 . S
Co1535 N1591 2.257 . S
O1536 Co1534 2.143 . S
O1536 Co1535 2.160 . S
C1537 O1538 1.278 . S
C1537 O1545 1.224 . S
O1538 C1537 1.278 . S
C1539 O1540 1.245 . S
C1539 O1551 1.232 . S
O1540 C1539 1.245 . S
O1541 Co1535 2.058 . S
O1541 C1567 1.269 . S
O1542 Co1534 2.074 . S
O1542 C1567 1.257 . S
H1543 C1568 0.930 . S
H1544 C1574 0.930 . S
O1545 Co1534 2.093 . S
O1545 C1537 1.224 . S
H1546 C1578 0.929 . S
H1547 C1580 0.930 . S
H1548 C1581 0.930 . S
H1549 C1579 0.929 . S
H1550 C1582 0.928 . S
O1551 Co1535 2.057 . S
O1551 C1539 1.232 . S
H1552 C1571 0.929 . S
H1553 C1572 0.929 . S
H1554 C1584 0.931 . S
H1555 C1576 0.929 . S
H1556 C1585 0.930 . S
H1557 C1577 0.931 1_565 S
O1558 Co1534 2.097 . S
O1558 C1586 1.214 . S
H1559 C1587 0.929 . S
H1560 C1588 0.929 . S
H1561 C1589 0.930 . S
H1562 C1590 0.929 . S
H1563 C1592 0.930 . S
H1564 C1569 0.930 . S
H1565 C1573 0.930 . S
O1566 Co1535 2.037 . S
O1566 C1586 1.234 . S
C1567 O1541 1.269 . S
C1567 O1542 1.257 . S
C1568 H1543 0.930 . S
C1568 C1571 1.388 . S
C1568 C1573 1.418 . S
C1569 H1564 0.930 . S
C1569 C1572 1.404 . S
C1569 C1573 1.353 . S
N1570 Co1535 2.145 . S
N1570 C1571 1.397 . S
N1570 C1572 1.334 . S
C1571 H1552 0.929 . S
C1571 C1568 1.388 . S
C1571 N1570 1.397 . S
C1572 H1553 0.929 . S
C1572 C1569 1.404 . S
C1572 N1570 1.334 . S
C1573 H1565 0.930 . S
C1573 C1568 1.418 . S
C1573 C1569 1.353 . S
C1574 H1544 0.930 . S
C1574 N1575 1.330 . S
C1574 C1576 1.446 . S
N1575 Co1534 2.151 . S
N1575 C1574 1.330 . S
N1575 C1579 1.418 . S
C1576 H1555 0.929 . S
C1576 C1574 1.446 . S
C1576 C1577 1.332 . S
C1577 H1557 0.931 1_545 S
C1577 C1576 1.332 . S
C1577 C1578 1.267 . S
C1578 H1546 0.929 . S
C1578 C1577 1.267 . S
C1578 C1579 1.251 . S
C1579 H1549 0.929 . S
C1579 N1575 1.418 . S
C1579 C1578 1.251 . S
C1580 H1547 0.930 . S
C1580 C1582 1.406 . S
C1580 C1585 1.261 . S
C1581 H1548 0.930 . S
C1581 N1583 1.325 . S
C1581 C1584 1.357 . S
C1582 H1550 0.928 . S
C1582 C1580 1.406 . S
C1582 N1583 1.261 . S
N1583 Co1534 2.214 . S
N1583 C1581 1.325 . S
N1583 C1582 1.261 . S
C1584 H1554 0.931 . S
C1584 C1581 1.357 . S
C1584 C1585 1.312 . S
C1585 H1556 0.930 . S
C1585 C1580 1.261 . S
C1585 C1584 1.312 . S
C1586 O1558 1.214 . S
C1586 O1566 1.234 . S
C1587 H1559 0.929 . S
C1587 C1590 1.391 . S
C1587 C1592 1.391 . S
C1588 H1560 0.929 . S
C1588 C1589 1.390 . S
C1588 N1591 1.391 . S
C1589 H1561 0.930 . S
C1589 C1588 1.390 . S
C1589 C1590 1.392 . S
C1590 H1562 0.929 . S
C1590 C1587 1.391 . S
C1590 C1589 1.392 . S
N1591 Co1535 2.257 . S
N1591 C1588 1.391 . S
N1591 C1592 1.388 . S
C1592 H1563 0.930 . S
C1592 C1587 1.391 . S
C1592 N1591 1.388 . S
Co1593 O1595 2.143 . S
Co1593 O1601 2.074 . S
Co1593 O1604 2.093 . S
Co1593 O1617 2.097 . S
Co1593 N1634 2.151 . S
Co1593 N1642 2.214 . S
Co1594 O1595 2.160 . S
Co1594 O1600 2.058 . S
Co1594 O1610 2.057 . S
Co1594 O1625 2.037 . S
Co1594 N1629 2.145 . S
Co1594 N1650 2.257 . S
O1595 Co1593 2.143 . S
O1595 Co1594 2.160 . S
C1596 O1597 1.278 . S
C1596 O1604 1.224 . S
O1597 C1596 1.278 . S
C1598 O1599 1.245 . S
C1598 O1610 1.232 . S
O1599 C1598 1.245 . S
O1600 Co1594 2.058 . S
O1600 C1626 1.269 . S
O1601 Co1593 2.074 . S
O1601 C1626 1.257 . S
H1602 C1627 0.930 . S
H1603 C1633 0.930 . S
O1604 Co1593 2.093 . S
O1604 C1596 1.224 . S
H1605 C1637 0.929 1_556 S
H1606 C1639 0.930 . S
H1607 C1640 0.930 . S
H1608 C1638 0.929 . S
H1609 C1641 0.928 . S
O1610 Co1594 2.057 . S
O1610 C1598 1.232 . S
H1611 C1630 0.929 . S
H1612 C1631 0.929 . S
H1613 C1643 0.931 . S
H1614 C1635 0.929 . S
H1615 C1644 0.930 . S
H1616 C1636 0.931 . S
O1617 Co1593 2.097 . S
O1617 C1645 1.214 . S
H1618 C1646 0.929 . S
H1619 C1647 0.929 . S
H1620 C1648 0.930 . S
H1621 C1649 0.929 . S
H1622 C1651 0.930 . S
H1623 C1628 0.930 . S
H1624 C1632 0.930 . S
O1625 Co1594 2.037 . S
O1625 C1645 1.234 . S
C1626 O1600 1.269 . S
C1626 O1601 1.257 . S
C1627 H1602 0.930 . S
C1627 C1630 1.388 . S
C1627 C1632 1.418 . S
C1628 H1623 0.930 . S
C1628 C1631 1.404 . S
C1628 C1632 1.353 . S
N1629 Co1594 2.145 . S
N1629 C1630 1.397 . S
N1629 C1631 1.334 . S
C1630 H1611 0.929 . S
C1630 C1627 1.388 . S
C1630 N1629 1.397 . S
C1631 H1612 0.929 . S
C1631 C1628 1.404 . S
C1631 N1629 1.334 . S
C1632 H1624 0.930 . S
C1632 C1627 1.418 . S
C1632 C1628 1.353 . S
C1633 H1603 0.930 . S
C1633 N1634 1.330 . S
C1633 C1635 1.446 . S
N1634 Co1593 2.151 . S
N1634 C1633 1.330 . S
N1634 C1638 1.418 . S
C1635 H1614 0.929 . S
C1635 C1633 1.446 . S
C1635 C1636 1.332 . S
C1636 H1616 0.931 . S
C1636 C1635 1.332 . S
C1636 C1637 1.267 . S
C1637 H1605 0.929 1_554 S
C1637 C1636 1.267 . S
C1637 C1638 1.251 . S
C1638 H1608 0.929 . S
C1638 N1634 1.418 . S
C1638 C1637 1.251 . S
C1639 H1606 0.930 . S
C1639 C1641 1.406 . S
C1639 C1644 1.261 . S
C1640 H1607 0.930 . S
C1640 N1642 1.325 . S
C1640 C1643 1.357 . S
C1641 H1609 0.928 . S
C1641 C1639 1.406 . S
C1641 N1642 1.261 . S
N1642 Co1593 2.214 . S
N1642 C1640 1.325 . S
N1642 C1641 1.261 . S
C1643 H1613 0.931 . S
C1643 C1640 1.357 . S
C1643 C1644 1.312 . S
C1644 H1615 0.930 . S
C1644 C1639 1.261 . S
C1644 C1643 1.312 . S
C1645 O1617 1.214 . S
C1645 O1625 1.234 . S
C1646 H1618 0.929 . S
C1646 C1649 1.391 . S
C1646 C1651 1.391 . S
C1647 H1619 0.929 . S
C1647 C1648 1.390 . S
C1647 N1650 1.391 . S
C1648 H1620 0.930 . S
C1648 C1647 1.390 . S
C1648 C1649 1.392 . S
C1649 H1621 0.929 . S
C1649 C1646 1.391 . S
C1649 C1648 1.392 . S
N1650 Co1594 2.257 . S
N1650 C1647 1.391 . S
N1650 C1651 1.388 . S
C1651 H1622 0.930 . S
C1651 C1646 1.391 . S
C1651 N1650 1.388 . S
Co1652 O1654 2.143 . S
Co1652 O1660 2.074 . S
Co1652 O1663 2.093 . S
Co1652 O1676 2.097 . S
Co1652 N1693 2.151 . S
Co1652 N1701 2.214 . S
Co1653 O1654 2.160 . S
Co1653 O1659 2.058 . S
Co1653 O1669 2.057 . S
Co1653 O1684 2.037 . S
Co1653 N1688 2.145 . S
Co1653 N1709 2.257 . S
O1654 Co1652 2.143 . S
O1654 Co1653 2.160 . S
C1655 O1656 1.278 . S
C1655 O1663 1.224 . S
O1656 C1655 1.278 . S
C1657 O1658 1.245 . S
C1657 O1669 1.232 . S
O1658 C1657 1.245 . S
O1659 Co1653 2.058 . S
O1659 C1685 1.269 . S
O1660 Co1652 2.074 . S
O1660 C1685 1.257 . S
H1661 C1686 0.930 . S
H1662 C1692 0.930 . S
O1663 Co1652 2.093 . S
O1663 C1655 1.224 . S
H1664 C1696 0.929 . S
H1665 C1698 0.930 . S
H1666 C1699 0.930 . S
H1667 C1697 0.929 . S
H1668 C1700 0.928 . S
O1669 Co1653 2.057 . S
O1669 C1657 1.232 . S
H1670 C1689 0.929 . S
H1671 C1690 0.929 . S
H1672 C1702 0.931 . S
H1673 C1694 0.929 . S
H1674 C1703 0.930 . S
H1675 C1695 0.931 . S
O1676 Co1652 2.097 . S
O1676 C1704 1.214 . S
H1677 C1705 0.929 . S
H1678 C1706 0.929 . S
H1679 C1707 0.930 . S
H1680 C1708 0.929 . S
H1681 C1710 0.930 . S
H1682 C1687 0.930 . S
H1683 C1691 0.930 . S
O1684 Co1653 2.037 . S
O1684 C1704 1.234 . S
C1685 O1659 1.269 . S
C1685 O1660 1.257 . S
C1686 H1661 0.930 . S
C1686 C1689 1.388 . S
C1686 C1691 1.418 . S
C1687 H1682 0.930 . S
C1687 C1690 1.404 . S
C1687 C1691 1.353 . S
N1688 Co1653 2.145 . S
N1688 C1689 1.397 . S
N1688 C1690 1.334 . S
C1689 H1670 0.929 . S
C1689 C1686 1.388 . S
C1689 N1688 1.397 . S
C1690 H1671 0.929 . S
C1690 C1687 1.404 . S
C1690 N1688 1.334 . S
C1691 H1683 0.930 . S
C1691 C1686 1.418 . S
C1691 C1687 1.353 . S
C1692 H1662 0.930 . S
C1692 N1693 1.330 . S
C1692 C1694 1.446 . S
N1693 Co1652 2.151 . S
N1693 C1692 1.330 . S
N1693 C1697 1.418 . S
C1694 H1673 0.929 . S
C1694 C1692 1.446 . S
C1694 C1695 1.332 . S
C1695 H1675 0.931 . S
C1695 C1694 1.332 . S
C1695 C1696 1.267 . S
C1696 H1664 0.929 . S
C1696 C1695 1.267 . S
C1696 C1697 1.251 . S
C1697 H1667 0.929 . S
C1697 N1693 1.418 . S
C1697 C1696 1.251 . S
C1698 H1665 0.930 . S
C1698 C1700 1.406 1_565 S
C1698 C1703 1.261 . S
C1699 H1666 0.930 . S
C1699 N1701 1.325 . S
C1699 C1702 1.357 1_545 S
C1700 H1668 0.928 . S
C1700 C1698 1.406 1_545 S
C1700 N1701 1.261 . S
N1701 Co1652 2.214 . S
N1701 C1699 1.325 . S
N1701 C1700 1.261 . S
C1702 H1672 0.931 . S
C1702 C1699 1.357 1_565 S
C1702 C1703 1.312 . S
C1703 H1674 0.930 . S
C1703 C1698 1.261 . S
C1703 C1702 1.312 . S
C1704 O1676 1.214 . S
C1704 O1684 1.234 . S
C1705 H1677 0.929 . S
C1705 C1708 1.391 . S
C1705 C1710 1.391 . S
C1706 H1678 0.929 . S
C1706 C1707 1.390 . S
C1706 N1709 1.391 . S
C1707 H1679 0.930 . S
C1707 C1706 1.390 . S
C1707 C1708 1.392 . S
C1708 H1680 0.929 . S
C1708 C1705 1.391 . S
C1708 C1707 1.392 . S
N1709 Co1653 2.257 . S
N1709 C1706 1.391 . S
N1709 C1710 1.388 . S
C1710 H1681 0.930 . S
C1710 C1705 1.391 . S
C1710 N1709 1.388 . S
Co1711 O1713 2.143 . S
Co1711 O1719 2.074 . S
Co1711 O1722 2.093 . S
Co1711 O1735 2.097 . S
Co1711 N1752 2.151 . S
Co1711 N1760 2.214 . S
Co1712 O1713 2.160 . S
Co1712 O1718 2.058 . S
Co1712 O1728 2.057 . S
Co1712 O1743 2.037 . S
Co1712 N1747 2.145 . S
Co1712 N1768 2.257 . S
O1713 Co1711 2.143 . S
O1713 Co1712 2.160 . S
C1714 O1715 1.278 . S
C1714 O1722 1.224 . S
O1715 C1714 1.278 . S
C1716 O1717 1.245 . S
C1716 O1728 1.232 . S
O1717 C1716 1.245 . S
O1718 Co1712 2.058 . S
O1718 C1744 1.269 . S
O1719 Co1711 2.074 . S
O1719 C1744 1.257 . S
H1720 C1745 0.930 . S
H1721 C1751 0.930 . S
O1722 Co1711 2.093 . S
O1722 C1714 1.224 . S
H1723 C1755 0.929 . S
H1724 C1757 0.930 . S
H1725 C1758 0.930 . S
H1726 C1756 0.929 . S
H1727 C1759 0.928 . S
O1728 Co1712 2.057 . S
O1728 C1716 1.232 . S
H1729 C1748 0.929 . S
H1730 C1749 0.929 . S
H1731 C1761 0.931 . S
H1732 C1753 0.929 . S
H1733 C1762 0.930 . S
H1734 C1754 0.931 . S
O1735 Co1711 2.097 . S
O1735 C1763 1.214 . S
H1736 C1764 0.929 . S
H1737 C1765 0.929 . S
H1738 C1766 0.930 . S
H1739 C1767 0.929 . S
H1740 C1769 0.930 . S
H1741 C1746 0.930 . S
H1742 C1750 0.930 . S
O1743 Co1712 2.037 . S
O1743 C1763 1.234 . S
C1744 O1718 1.269 . S
C1744 O1719 1.257 . S
C1745 H1720 0.930 . S
C1745 C1748 1.388 . S
C1745 C1750 1.418 . S
C1746 H1741 0.930 . S
C1746 C1749 1.404 . S
C1746 C1750 1.353 . S
N1747 Co1712 2.145 . S
N1747 C1748 1.397 . S
N1747 C1749 1.334 . S
C1748 H1729 0.929 . S
C1748 C1745 1.388 . S
C1748 N1747 1.397 . S
C1749 H1730 0.929 . S
C1749 C1746 1.404 . S
C1749 N1747 1.334 . S
C1750 H1742 0.930 . S
C1750 C1745 1.418 . S
C1750 C1746 1.353 . S
C1751 H1721 0.930 . S
C1751 N1752 1.330 . S
C1751 C1753 1.446 . S
N1752 Co1711 2.151 . S
N1752 C1751 1.330 . S
N1752 C1756 1.418 . S
C1753 H1732 0.929 . S
C1753 C1751 1.446 . S
C1753 C1754 1.332 . S
C1754 H1734 0.931 . S
C1754 C1753 1.332 . S
C1754 C1755 1.267 . S
C1755 H1723 0.929 . S
C1755 C1754 1.267 . S
C1755 C1756 1.251 . S
C1756 H1726 0.929 . S
C1756 N1752 1.418 . S
C1756 C1755 1.251 . S
C1757 H1724 0.930 . S
C1757 C1759 1.406 . S
C1757 C1762 1.261 . S
C1758 H1725 0.930 . S
C1758 N1760 1.325 . S
C1758 C1761 1.357 . S
C1759 H1727 0.928 . S
C1759 C1757 1.406 . S
C1759 N1760 1.261 . S
N1760 Co1711 2.214 . S
N1760 C1758 1.325 . S
N1760 C1759 1.261 . S
C1761 H1731 0.931 . S
C1761 C1758 1.357 . S
C1761 C1762 1.312 . S
C1762 H1733 0.930 . S
C1762 C1757 1.261 . S
C1762 C1761 1.312 . S
C1763 O1735 1.214 . S
C1763 O1743 1.234 . S
C1764 H1736 0.929 . S
C1764 C1767 1.391 . S
C1764 C1769 1.391 . S
C1765 H1737 0.929 . S
C1765 C1766 1.390 . S
C1765 N1768 1.391 . S
C1766 H1738 0.930 . S
C1766 C1765 1.390 . S
C1766 C1767 1.392 . S
C1767 H1739 0.929 . S
C1767 C1764 1.391 . S
C1767 C1766 1.392 . S
N1768 Co1712 2.257 . S
N1768 C1765 1.391 . S
N1768 C1769 1.388 . S
C1769 H1740 0.930 . S
C1769 C1764 1.391 . S
C1769 N1768 1.388 . S
Co1770 O1772 2.143 . S
Co1770 O1778 2.074 . S
Co1770 O1781 2.093 . S
Co1770 O1794 2.097 . S
Co1770 N1811 2.151 . S
Co1770 N1819 2.214 . S
Co1771 O1772 2.160 . S
Co1771 O1777 2.058 . S
Co1771 O1787 2.057 . S
Co1771 O1802 2.037 . S
Co1771 N1806 2.145 . S
Co1771 N1827 2.257 . S
O1772 Co1770 2.143 . S
O1772 Co1771 2.160 . S
C1773 O1774 1.278 . S
C1773 O1781 1.224 . S
O1774 C1773 1.278 . S
C1775 O1776 1.245 . S
C1775 O1787 1.232 . S
O1776 C1775 1.245 . S
O1777 Co1771 2.058 . S
O1777 C1803 1.269 . S
O1778 Co1770 2.074 . S
O1778 C1803 1.257 . S
H1779 C1804 0.930 . S
H1780 C1810 0.930 . S
O1781 Co1770 2.093 . S
O1781 C1773 1.224 . S
H1782 C1814 0.929 . S
H1783 C1816 0.930 . S
H1784 C1817 0.930 . S
H1785 C1815 0.929 . S
H1786 C1818 0.928 . S
O1787 Co1771 2.057 . S
O1787 C1775 1.232 . S
H1788 C1807 0.929 . S
H1789 C1808 0.929 . S
H1790 C1820 0.931 . S
H1791 C1812 0.929 . S
H1792 C1821 0.930 . S
H1793 C1813 0.931 . S
O1794 Co1770 2.097 . S
O1794 C1822 1.214 . S
H1795 C1823 0.929 . S
H1796 C1824 0.929 . S
H1797 C1825 0.930 . S
H1798 C1826 0.929 . S
H1799 C1828 0.930 . S
H1800 C1805 0.930 . S
H1801 C1809 0.930 . S
O1802 Co1771 2.037 . S
O1802 C1822 1.234 . S
C1803 O1777 1.269 . S
C1803 O1778 1.257 . S
C1804 H1779 0.930 . S
C1804 C1807 1.388 . S
C1804 C1809 1.418 . S
C1805 H1800 0.930 . S
C1805 C1808 1.404 . S
C1805 C1809 1.353 . S
N1806 Co1771 2.145 . S
N1806 C1807 1.397 . S
N1806 C1808 1.334 . S
C1807 H1788 0.929 . S
C1807 C1804 1.388 . S
C1807 N1806 1.397 . S
C1808 H1789 0.929 . S
C1808 C1805 1.404 . S
C1808 N1806 1.334 . S
C1809 H1801 0.930 . S
C1809 C1804 1.418 . S
C1809 C1805 1.353 . S
C1810 H1780 0.930 . S
C1810 N1811 1.330 . S
C1810 C1812 1.446 . S
N1811 Co1770 2.151 . S
N1811 C1810 1.330 . S
N1811 C1815 1.418 . S
C1812 H1791 0.929 . S
C1812 C1810 1.446 . S
C1812 C1813 1.332 . S
C1813 H1793 0.931 . S
C1813 C1812 1.332 . S
C1813 C1814 1.267 . S
C1814 H1782 0.929 . S
C1814 C1813 1.267 . S
C1814 C1815 1.251 . S
C1815 H1785 0.929 . S
C1815 N1811 1.418 . S
C1815 C1814 1.251 . S
C1816 H1783 0.930 . S
C1816 C1818 1.406 1_545 S
C1816 C1821 1.261 . S
C1817 H1784 0.930 . S
C1817 N1819 1.325 . S
C1817 C1820 1.357 1_565 S
C1818 H1786 0.928 . S
C1818 C1816 1.406 1_565 S
C1818 N1819 1.261 . S
N1819 Co1770 2.214 . S
N1819 C1817 1.325 . S
N1819 C1818 1.261 . S
C1820 H1790 0.931 . S
C1820 C1817 1.357 1_545 S
C1820 C1821 1.312 . S
C1821 H1792 0.930 . S
C1821 C1816 1.261 . S
C1821 C1820 1.312 . S
C1822 O1794 1.214 . S
C1822 O1802 1.234 . S
C1823 H1795 0.929 . S
C1823 C1826 1.391 . S
C1823 C1828 1.391 . S
C1824 H1796 0.929 . S
C1824 C1825 1.390 . S
C1824 N1827 1.391 . S
C1825 H1797 0.930 . S
C1825 C1824 1.390 . S
C1825 C1826 1.392 . S
C1826 H1798 0.929 . S
C1826 C1823 1.391 . S
C1826 C1825 1.392 . S
N1827 Co1771 2.257 . S
N1827 C1824 1.391 . S
N1827 C1828 1.388 . S
C1828 H1799 0.930 . S
C1828 C1823 1.391 . S
C1828 N1827 1.388 . S
Co1829 O1831 2.143 . S
Co1829 O1837 2.074 . S
Co1829 O1840 2.093 . S
Co1829 O1853 2.097 . S
Co1829 N1870 2.151 . S
Co1829 N1878 2.214 . S
Co1830 O1831 2.160 . S
Co1830 O1836 2.058 . S
Co1830 O1846 2.057 . S
Co1830 O1861 2.037 . S
Co1830 N1865 2.145 . S
Co1830 N1886 2.257 . S
O1831 Co1829 2.143 . S
O1831 Co1830 2.160 . S
C1832 O1833 1.278 . S
C1832 O1840 1.224 . S
O1833 C1832 1.278 . S
C1834 O1835 1.245 . S
C1834 O1846 1.232 . S
O1835 C1834 1.245 . S
O1836 Co1830 2.058 . S
O1836 C1862 1.269 . S
O1837 Co1829 2.074 . S
O1837 C1862 1.257 . S
H1838 C1863 0.930 . S
H1839 C1869 0.930 . S
O1840 Co1829 2.093 . S
O1840 C1832 1.224 . S
H1841 C1873 0.929 . S
H1842 C1875 0.930 . S
H1843 C1876 0.930 . S
H1844 C1874 0.929 . S
H1845 C1877 0.928 . S
O1846 Co1830 2.057 . S
O1846 C1834 1.232 . S
H1847 C1866 0.929 . S
H1848 C1867 0.929 . S
H1849 C1879 0.931 . S
H1850 C1871 0.929 . S
H1851 C1880 0.930 . S
H1852 C1872 0.931 . S
O1853 Co1829 2.097 . S
O1853 C1881 1.214 . S
H1854 C1882 0.929 . S
H1855 C1883 0.929 . S
H1856 C1884 0.930 . S
H1857 C1885 0.929 . S
H1858 C1887 0.930 . S
H1859 C1864 0.930 . S
H1860 C1868 0.930 . S
O1861 Co1830 2.037 . S
O1861 C1881 1.234 . S
C1862 O1836 1.269 . S
C1862 O1837 1.257 . S
C1863 H1838 0.930 . S
C1863 C1866 1.388 . S
C1863 C1868 1.418 . S
C1864 H1859 0.930 . S
C1864 C1867 1.404 . S
C1864 C1868 1.353 . S
N1865 Co1830 2.145 . S
N1865 C1866 1.397 . S
N1865 C1867 1.334 . S
C1866 H1847 0.929 . S
C1866 C1863 1.388 . S
C1866 N1865 1.397 . S
C1867 H1848 0.929 . S
C1867 C1864 1.404 . S
C1867 N1865 1.334 . S
C1868 H1860 0.930 . S
C1868 C1863 1.418 . S
C1868 C1864 1.353 . S
C1869 H1839 0.930 . S
C1869 N1870 1.330 . S
C1869 C1871 1.446 . S
N1870 Co1829 2.151 . S
N1870 C1869 1.330 . S
N1870 C1874 1.418 . S
C1871 H1850 0.929 . S
C1871 C1869 1.446 . S
C1871 C1872 1.332 . S
C1872 H1852 0.931 . S
C1872 C1871 1.332 . S
C1872 C1873 1.267 . S
C1873 H1841 0.929 . S
C1873 C1872 1.267 . S
C1873 C1874 1.251 . S
C1874 H1844 0.929 . S
C1874 N1870 1.418 . S
C1874 C1873 1.251 . S
C1875 H1842 0.930 . S
C1875 C1877 1.406 . S
C1875 C1880 1.261 . S
C1876 H1843 0.930 . S
C1876 N1878 1.325 . S
C1876 C1879 1.357 . S
C1877 H1845 0.928 . S
C1877 C1875 1.406 . S
C1877 N1878 1.261 . S
N1878 Co1829 2.214 . S
N1878 C1876 1.325 . S
N1878 C1877 1.261 . S
C1879 H1849 0.931 . S
C1879 C1876 1.357 . S
C1879 C1880 1.312 . S
C1880 H1851 0.930 . S
C1880 C1875 1.261 . S
C1880 C1879 1.312 . S
C1881 O1853 1.214 . S
C1881 O1861 1.234 . S
C1882 H1854 0.929 . S
C1882 C1885 1.391 . S
C1882 C1887 1.391 . S
C1883 H1855 0.929 . S
C1883 C1884 1.390 . S
C1883 N1886 1.391 . S
C1884 H1856 0.930 . S
C1884 C1883 1.390 . S
C1884 C1885 1.392 . S
C1885 H1857 0.929 . S
C1885 C1882 1.391 . S
C1885 C1884 1.392 . S
N1886 Co1830 2.257 . S
N1886 C1883 1.391 . S
N1886 C1887 1.388 . S
C1887 H1858 0.930 . S
C1887 C1882 1.391 . S
C1887 N1886 1.388 . S
Co1888 O1890 2.143 . S
Co1888 O1896 2.074 . S
Co1888 O1899 2.093 . S
Co1888 O1912 2.097 . S
Co1888 N1929 2.151 . S
Co1888 N1937 2.214 . S
Co1889 O1890 2.160 . S
Co1889 O1895 2.058 . S
Co1889 O1905 2.057 . S
Co1889 O1920 2.037 . S
Co1889 N1924 2.145 . S
Co1889 N1945 2.257 . S
O1890 Co1888 2.143 . S
O1890 Co1889 2.160 . S
C1891 O1892 1.278 . S
C1891 O1899 1.224 . S
O1892 C1891 1.278 . S
C1893 O1894 1.245 . S
C1893 O1905 1.232 . S
O1894 C1893 1.245 . S
O1895 Co1889 2.058 . S
O1895 C1921 1.269 . S
O1896 Co1888 2.074 . S
O1896 C1921 1.257 . S
H1897 C1922 0.930 . S
H1898 C1928 0.930 . S
O1899 Co1888 2.093 . S
O1899 C1891 1.224 . S
H1900 C1932 0.929 . S
H1901 C1934 0.930 . S
H1902 C1935 0.930 . S
H1903 C1933 0.929 . S
H1904 C1936 0.928 . S
O1905 Co1889 2.057 . S
O1905 C1893 1.232 . S
H1906 C1925 0.929 . S
H1907 C1926 0.929 . S
H1908 C1938 0.931 . S
H1909 C1930 0.929 . S
H1910 C1939 0.930 . S
H1911 C1931 0.931 . S
O1912 Co1888 2.097 . S
O1912 C1940 1.214 . S
H1913 C1941 0.929 . S
H1914 C1942 0.929 . S
H1915 C1943 0.930 . S
H1916 C1944 0.929 1_554 S
H1917 C1946 0.930 . S
H1918 C1923 0.930 . S
H1919 C1927 0.930 . S
O1920 Co1889 2.037 . S
O1920 C1940 1.234 . S
C1921 O1895 1.269 . S
C1921 O1896 1.257 . S
C1922 H1897 0.930 . S
C1922 C1925 1.388 . S
C1922 C1927 1.418 . S
C1923 H1918 0.930 . S
C1923 C1926 1.404 . S
C1923 C1927 1.353 . S
N1924 Co1889 2.145 . S
N1924 C1925 1.397 . S
N1924 C1926 1.334 . S
C1925 H1906 0.929 . S
C1925 C1922 1.388 . S
C1925 N1924 1.397 . S
C1926 H1907 0.929 . S
C1926 C1923 1.404 . S
C1926 N1924 1.334 . S
C1927 H1919 0.930 . S
C1927 C1922 1.418 . S
C1927 C1923 1.353 . S
C1928 H1898 0.930 . S
C1928 N1929 1.330 . S
C1928 C1930 1.446 . S
N1929 Co1888 2.151 . S
N1929 C1928 1.330 . S
N1929 C1933 1.418 . S
C1930 H1909 0.929 . S
C1930 C1928 1.446 . S
C1930 C1931 1.332 . S
C1931 H1911 0.931 . S
C1931 C1930 1.332 . S
C1931 C1932 1.267 . S
C1932 H1900 0.929 . S
C1932 C1931 1.267 . S
C1932 C1933 1.251 . S
C1933 H1903 0.929 . S
C1933 N1929 1.418 . S
C1933 C1932 1.251 . S
C1934 H1901 0.930 . S
C1934 C1936 1.406 . S
C1934 C1939 1.261 . S
C1935 H1902 0.930 . S
C1935 N1937 1.325 . S
C1935 C1938 1.357 . S
C1936 H1904 0.928 . S
C1936 C1934 1.406 . S
C1936 N1937 1.261 . S
N1937 Co1888 2.214 . S
N1937 C1935 1.325 . S
N1937 C1936 1.261 . S
C1938 H1908 0.931 . S
C1938 C1935 1.357 . S
C1938 C1939 1.312 . S
C1939 H1910 0.930 . S
C1939 C1934 1.261 . S
C1939 C1938 1.312 . S
C1940 O1912 1.214 . S
C1940 O1920 1.234 . S
C1941 H1913 0.929 . S
C1941 C1944 1.391 . S
C1941 C1946 1.391 . S
C1942 H1914 0.929 . S
C1942 C1943 1.390 . S
C1942 N1945 1.391 . S
C1943 H1915 0.930 . S
C1943 C1942 1.390 . S
C1943 C1944 1.392 . S
C1944 H1916 0.929 1_556 S
C1944 C1941 1.391 . S
C1944 C1943 1.392 . S
N1945 Co1889 2.257 . S
N1945 C1942 1.391 . S
N1945 C1946 1.388 . S
C1946 H1917 0.930 . S
C1946 C1941 1.391 . S
C1946 N1945 1.388 . S
Co1947 O1949 2.143 . S
Co1947 O1955 2.074 . S
Co1947 O1958 2.093 . S
Co1947 O1971 2.097 . S
Co1947 N1988 2.151 . S
Co1947 N1996 2.214 . S
Co1948 O1949 2.160 . S
Co1948 O1954 2.058 . S
Co1948 O1964 2.057 . S
Co1948 O1979 2.037 . S
Co1948 N1983 2.145 . S
Co1948 N2004 2.257 . S
O1949 Co1947 2.143 . S
O1949 Co1948 2.160 . S
C1950 O1951 1.278 . S
C1950 O1958 1.224 . S
O1951 C1950 1.278 . S
C1952 O1953 1.245 . S
C1952 O1964 1.232 . S
O1953 C1952 1.245 . S
O1954 Co1948 2.058 . S
O1954 C1980 1.269 . S
O1955 Co1947 2.074 . S
O1955 C1980 1.257 . S
H1956 C1981 0.930 . S
H1957 C1987 0.930 . S
O1958 Co1947 2.093 . S
O1958 C1950 1.224 . S
H1959 C1991 0.929 . S
H1960 C1993 0.930 . S
H1961 C1994 0.930 . S
H1962 C1992 0.929 . S
H1963 C1995 0.928 . S
O1964 Co1948 2.057 . S
O1964 C1952 1.232 . S
H1965 C1984 0.929 . S
H1966 C1985 0.929 . S
H1967 C1997 0.931 . S
H1968 C1989 0.929 . S
H1969 C1998 0.930 . S
H1970 C1990 0.931 . S
O1971 Co1947 2.097 . S
O1971 C1999 1.214 . S
H1972 C2000 0.929 . S
H1973 C2001 0.929 . S
H1974 C2002 0.930 . S
H1975 C2003 0.929 . S
H1976 C2005 0.930 . S
H1977 C1982 0.930 . S
H1978 C1986 0.930 . S
O1979 Co1948 2.037 . S
O1979 C1999 1.234 . S
C1980 O1954 1.269 . S
C1980 O1955 1.257 . S
C1981 H1956 0.930 . S
C1981 C1984 1.388 . S
C1981 C1986 1.418 . S
C1982 H1977 0.930 . S
C1982 C1985 1.404 . S
C1982 C1986 1.353 . S
N1983 Co1948 2.145 . S
N1983 C1984 1.397 . S
N1983 C1985 1.334 . S
C1984 H1965 0.929 . S
C1984 C1981 1.388 . S
C1984 N1983 1.397 . S
C1985 H1966 0.929 . S
C1985 C1982 1.404 . S
C1985 N1983 1.334 . S
C1986 H1978 0.930 . S
C1986 C1981 1.418 . S
C1986 C1982 1.353 . S
C1987 H1957 0.930 . S
C1987 N1988 1.330 . S
C1987 C1989 1.446 . S
N1988 Co1947 2.151 . S
N1988 C1987 1.330 . S
N1988 C1992 1.418 . S
C1989 H1968 0.929 . S
C1989 C1987 1.446 . S
C1989 C1990 1.332 . S
C1990 H1970 0.931 . S
C1990 C1989 1.332 . S
C1990 C1991 1.267 . S
C1991 H1959 0.929 . S
C1991 C1990 1.267 . S
C1991 C1992 1.251 . S
C1992 H1962 0.929 . S
C1992 N1988 1.418 . S
C1992 C1991 1.251 . S
C1993 H1960 0.930 . S
C1993 C1995 1.406 . S
C1993 C1998 1.261 . S
C1994 H1961 0.930 . S
C1994 N1996 1.325 . S
C1994 C1997 1.357 . S
C1995 H1963 0.928 . S
C1995 C1993 1.406 . S
C1995 N1996 1.261 . S
N1996 Co1947 2.214 . S
N1996 C1994 1.325 . S
N1996 C1995 1.261 . S
C1997 H1967 0.931 . S
C1997 C1994 1.357 . S
C1997 C1998 1.312 . S
C1998 H1969 0.930 . S
C1998 C1993 1.261 . S
C1998 C1997 1.312 . S
C1999 O1971 1.214 . S
C1999 O1979 1.234 . S
C2000 H1972 0.929 . S
C2000 C2003 1.391 . S
C2000 C2005 1.391 . S
C2001 H1973 0.929 . S
C2001 C2002 1.390 . S
C2001 N2004 1.391 . S
C2002 H1974 0.930 . S
C2002 C2001 1.390 . S
C2002 C2003 1.392 . S
C2003 H1975 0.929 . S
C2003 C2000 1.391 . S
C2003 C2002 1.392 . S
N2004 Co1948 2.257 . S
N2004 C2001 1.391 . S
N2004 C2005 1.388 . S
C2005 H1976 0.930 . S
C2005 C2000 1.391 . S
C2005 N2004 1.388 . S
Co2006 O2008 2.143 . S
Co2006 O2014 2.074 . S
Co2006 O2017 2.093 . S
Co2006 O2030 2.097 . S
Co2006 N2047 2.151 . S
Co2006 N2055 2.214 . S
Co2007 O2008 2.160 . S
Co2007 O2013 2.058 . S
Co2007 O2023 2.057 . S
Co2007 O2038 2.037 . S
Co2007 N2042 2.145 . S
Co2007 N2063 2.257 . S
O2008 Co2006 2.143 . S
O2008 Co2007 2.160 . S
C2009 O2010 1.278 . S
C2009 O2017 1.224 . S
O2010 C2009 1.278 . S
C2011 O2012 1.245 . S
C2011 O2023 1.232 . S
O2012 C2011 1.245 . S
O2013 Co2007 2.058 . S
O2013 C2039 1.269 . S
O2014 Co2006 2.074 . S
O2014 C2039 1.257 . S
H2015 C2040 0.930 . S
H2016 C2046 0.930 . S
O2017 Co2006 2.093 . S
O2017 C2009 1.224 . S
H2018 C2050 0.929 . S
H2019 C2052 0.930 . S
H2020 C2053 0.930 . S
H2021 C2051 0.929 . S
H2022 C2054 0.928 . S
O2023 Co2007 2.057 . S
O2023 C2011 1.232 . S
H2024 C2043 0.929 . S
H2025 C2044 0.929 . S
H2026 C2056 0.931 . S
H2027 C2048 0.929 . S
H2028 C2057 0.930 . S
H2029 C2049 0.931 . S
O2030 Co2006 2.097 . S
O2030 C2058 1.214 . S
H2031 C2059 0.929 . S
H2032 C2060 0.929 . S
H2033 C2061 0.930 . S
H2034 C2062 0.929 . S
H2035 C2064 0.930 . S
H2036 C2041 0.930 . S
H2037 C2045 0.930 . S
O2038 Co2007 2.037 . S
O2038 C2058 1.234 . S
C2039 O2013 1.269 . S
C2039 O2014 1.257 . S
C2040 H2015 0.930 . S
C2040 C2043 1.388 . S
C2040 C2045 1.418 . S
C2041 H2036 0.930 . S
C2041 C2044 1.404 . S
C2041 C2045 1.353 . S
N2042 Co2007 2.145 . S
N2042 C2043 1.397 . S
N2042 C2044 1.334 . S
C2043 H2024 0.929 . S
C2043 C2040 1.388 . S
C2043 N2042 1.397 . S
C2044 H2025 0.929 . S
C2044 C2041 1.404 . S
C2044 N2042 1.334 . S
C2045 H2037 0.930 . S
C2045 C2040 1.418 . S
C2045 C2041 1.353 . S
C2046 H2016 0.930 . S
C2046 N2047 1.330 . S
C2046 C2048 1.446 . S
N2047 Co2006 2.151 . S
N2047 C2046 1.330 . S
N2047 C2051 1.418 . S
C2048 H2027 0.929 . S
C2048 C2046 1.446 . S
C2048 C2049 1.332 . S
C2049 H2029 0.931 . S
C2049 C2048 1.332 . S
C2049 C2050 1.267 . S
C2050 H2018 0.929 . S
C2050 C2049 1.267 . S
C2050 C2051 1.251 . S
C2051 H2021 0.929 . S
C2051 N2047 1.418 . S
C2051 C2050 1.251 . S
C2052 H2019 0.930 . S
C2052 C2054 1.406 . S
C2052 C2057 1.261 . S
C2053 H2020 0.930 . S
C2053 N2055 1.325 . S
C2053 C2056 1.357 . S
C2054 H2022 0.928 . S
C2054 C2052 1.406 . S
C2054 N2055 1.261 . S
N2055 Co2006 2.214 . S
N2055 C2053 1.325 . S
N2055 C2054 1.261 . S
C2056 H2026 0.931 . S
C2056 C2053 1.357 . S
C2056 C2057 1.312 . S
C2057 H2028 0.930 . S
C2057 C2052 1.261 . S
C2057 C2056 1.312 . S
C2058 O2030 1.214 . S
C2058 O2038 1.234 . S
C2059 H2031 0.929 . S
C2059 C2062 1.391 . S
C2059 C2064 1.391 . S
C2060 H2032 0.929 . S
C2060 C2061 1.390 . S
C2060 N2063 1.391 . S
C2061 H2033 0.930 . S
C2061 C2060 1.390 . S
C2061 C2062 1.392 . S
C2062 H2034 0.929 . S
C2062 C2059 1.391 . S
C2062 C2061 1.392 . S
N2063 Co2007 2.257 . S
N2063 C2060 1.391 . S
N2063 C2064 1.388 . S
C2064 H2035 0.930 . S
C2064 C2059 1.391 . S
C2064 N2063 1.388 . S
Co2065 O2067 2.143 . S
Co2065 O2073 2.074 . S
Co2065 O2076 2.093 . S
Co2065 O2089 2.097 . S
Co2065 N2106 2.151 . S
Co2065 N2114 2.214 . S
Co2066 O2067 2.160 . S
Co2066 O2072 2.058 . S
Co2066 O2082 2.057 . S
Co2066 O2097 2.037 . S
Co2066 N2101 2.145 . S
Co2066 N2122 2.257 . S
O2067 Co2065 2.143 . S
O2067 Co2066 2.160 . S
C2068 O2069 1.278 . S
C2068 O2076 1.224 . S
O2069 C2068 1.278 . S
C2070 O2071 1.245 . S
C2070 O2082 1.232 . S
O2071 C2070 1.245 . S
O2072 Co2066 2.058 . S
O2072 C2098 1.269 . S
O2073 Co2065 2.074 . S
O2073 C2098 1.257 . S
H2074 C2099 0.930 . S
H2075 C2105 0.930 . S
O2076 Co2065 2.093 . S
O2076 C2068 1.224 . S
H2077 C2109 0.929 . S
H2078 C2111 0.930 . S
H2079 C2112 0.930 . S
H2080 C2110 0.929 . S
H2081 C2113 0.928 . S
O2082 Co2066 2.057 . S
O2082 C2070 1.232 . S
H2083 C2102 0.929 . S
H2084 C2103 0.929 . S
H2085 C2115 0.931 . S
H2086 C2107 0.929 . S
H2087 C2116 0.930 . S
H2088 C2108 0.931 . S
O2089 Co2065 2.097 . S
O2089 C2117 1.214 . S
H2090 C2118 0.929 . S
H2091 C2119 0.929 . S
H2092 C2120 0.944 . S
H2093 C2121 0.929 . S
H2094 C2123 0.930 . S
H2095 C2100 0.930 . S
H2096 C2104 0.930 . S
O2097 Co2066 2.037 . S
O2097 C2117 1.234 . S
C2098 O2072 1.269 . S
C2098 O2073 1.257 . S
C2099 H2074 0.930 . S
C2099 C2102 1.388 . S
C2099 C2104 1.418 . S
C2100 H2095 0.930 . S
C2100 C2103 1.404 . S
C2100 C2104 1.353 . S
N2101 Co2066 2.145 . S
N2101 C2102 1.397 . S
N2101 C2103 1.334 . S
C2102 H2083 0.929 . S
C2102 C2099 1.388 . S
C2102 N2101 1.397 . S
C2103 H2084 0.929 . S
C2103 C2100 1.404 . S
C2103 N2101 1.334 . S
C2104 H2096 0.930 . S
C2104 C2099 1.418 . S
C2104 C2100 1.353 . S
C2105 H2075 0.930 . S
C2105 N2106 1.330 . S
C2105 C2107 1.446 . S
N2106 Co2065 2.151 . S
N2106 C2105 1.330 . S
N2106 C2110 1.418 . S
C2107 H2086 0.929 . S
C2107 C2105 1.446 . S
C2107 C2108 1.332 . S
C2108 H2088 0.931 . S
C2108 C2107 1.332 . S
C2108 C2109 1.267 . S
C2109 H2077 0.929 . S
C2109 C2108 1.267 . S
C2109 C2110 1.251 . S
C2110 H2080 0.929 . S
C2110 N2106 1.418 . S
C2110 C2109 1.251 . S
C2111 H2078 0.930 . S
C2111 C2113 1.406 . S
C2111 C2116 1.261 . S
C2112 H2079 0.930 . S
C2112 N2114 1.325 . S
C2112 C2115 1.357 . S
C2113 H2081 0.928 . S
C2113 C2111 1.406 . S
C2113 N2114 1.261 . S
N2114 Co2065 2.214 . S
N2114 C2112 1.325 . S
N2114 C2113 1.261 . S
C2115 H2085 0.931 . S
C2115 C2112 1.357 . S
C2115 C2116 1.312 . S
C2116 H2087 0.930 . S
C2116 C2111 1.261 . S
C2116 C2115 1.312 . S
C2117 O2089 1.214 . S
C2117 O2097 1.234 . S
C2118 H2090 0.929 . S
C2118 C2121 1.391 . S
C2118 C2123 1.391 . S
C2119 H2091 0.929 . S
C2119 C2120 1.390 . S
C2119 N2122 1.391 . S
C2120 H2092 0.944 . S
C2120 C2119 1.390 . S
C2120 C2121 1.392 . S
C2121 H2093 0.929 . S
C2121 C2118 1.391 . S
C2121 C2120 1.392 . S
N2122 Co2066 2.257 . S
N2122 C2119 1.391 . S
N2122 C2123 1.388 . S
C2123 H2094 0.930 . S
C2123 C2118 1.391 . S
C2123 N2122 1.388 . S
Co2124 O2126 2.143 . S
Co2124 O2132 2.074 . S
Co2124 O2135 2.093 . S
Co2124 O2148 2.097 . S
Co2124 N2165 2.151 . S
Co2124 N2173 2.214 . S
Co2125 O2126 2.160 . S
Co2125 O2131 2.058 . S
Co2125 O2141 2.057 . S
Co2125 O2156 2.037 . S
Co2125 N2160 2.145 . S
Co2125 N2181 2.257 . S
O2126 Co2124 2.143 . S
O2126 Co2125 2.160 . S
C2127 O2128 1.278 . S
C2127 O2135 1.224 . S
O2128 C2127 1.278 . S
C2129 O2130 1.245 . S
C2129 O2141 1.232 . S
O2130 C2129 1.245 . S
O2131 Co2125 2.058 . S
O2131 C2157 1.269 . S
O2132 Co2124 2.074 . S
O2132 C2157 1.257 . S
H2133 C2158 0.930 . S
H2134 C2164 0.930 . S
O2135 Co2124 2.093 . S
O2135 C2127 1.224 . S
H2136 C2168 0.929 . S
H2137 C2170 0.930 . S
H2138 C2171 0.930 . S
H2139 C2169 0.929 . S
H2140 C2172 0.928 . S
O2141 Co2125 2.057 . S
O2141 C2129 1.232 . S
H2142 C2161 0.929 . S
H2143 C2162 0.929 . S
H2144 C2174 0.931 . S
H2145 C2166 0.929 . S
H2146 C2175 0.930 . S
H2147 C2167 0.931 . S
O2148 Co2124 2.097 . S
O2148 C2176 1.214 . S
H2149 C2177 0.929 . S
H2150 C2178 0.929 . S
H2151 C2179 0.930 . S
H2152 C2180 0.929 . S
H2153 C2182 0.930 . S
H2154 C2159 0.930 . S
H2155 C2163 0.930 . S
O2156 Co2125 2.037 . S
O2156 C2176 1.234 . S
C2157 O2131 1.269 . S
C2157 O2132 1.257 . S
C2158 H2133 0.930 . S
C2158 C2161 1.388 1_556 S
C2158 C2163 1.418 . S
C2159 H2154 0.930 . S
C2159 C2162 1.404 1_556 S
C2159 C2163 1.353 . S
N2160 Co2125 2.145 . S
N2160 C2161 1.397 . S
N2160 C2162 1.334 . S
C2161 H2142 0.929 . S
C2161 C2158 1.388 1_554 S
C2161 N2160 1.397 . S
C2162 H2143 0.929 . S
C2162 C2159 1.404 1_554 S
C2162 N2160 1.334 . S
C2163 H2155 0.930 . S
C2163 C2158 1.418 . S
C2163 C2159 1.353 . S
C2164 H2134 0.930 . S
C2164 N2165 1.330 . S
C2164 C2166 1.446 . S
N2165 Co2124 2.151 . S
N2165 C2164 1.330 . S
N2165 C2169 1.418 . S
C2166 H2145 0.929 . S
C2166 C2164 1.446 . S
C2166 C2167 1.332 . S
C2167 H2147 0.931 . S
C2167 C2166 1.332 . S
C2167 C2168 1.267 . S
C2168 H2136 0.929 . S
C2168 C2167 1.267 . S
C2168 C2169 1.251 . S
C2169 H2139 0.929 . S
C2169 N2165 1.418 . S
C2169 C2168 1.251 . S
C2170 H2137 0.930 . S
C2170 C2172 1.406 . S
C2170 C2175 1.261 . S
C2171 H2138 0.930 . S
C2171 N2173 1.325 . S
C2171 C2174 1.357 . S
C2172 H2140 0.928 . S
C2172 C2170 1.406 . S
C2172 N2173 1.261 . S
N2173 Co2124 2.214 . S
N2173 C2171 1.325 . S
N2173 C2172 1.261 . S
C2174 H2144 0.931 . S
C2174 C2171 1.357 . S
C2174 C2175 1.312 . S
C2175 H2146 0.930 . S
C2175 C2170 1.261 . S
C2175 C2174 1.312 . S
C2176 O2148 1.214 . S
C2176 O2156 1.234 . S
C2177 H2149 0.929 . S
C2177 C2180 1.391 . S
C2177 C2182 1.391 . S
C2178 H2150 0.929 . S
C2178 C2179 1.390 . S
C2178 N2181 1.391 . S
C2179 H2151 0.930 . S
C2179 C2178 1.390 . S
C2179 C2180 1.392 . S
C2180 H2152 0.929 . S
C2180 C2177 1.391 . S
C2180 C2179 1.392 . S
N2181 Co2125 2.257 . S
N2181 C2178 1.391 . S
N2181 C2182 1.388 . S
C2182 H2153 0.930 . S
C2182 C2177 1.391 . S
C2182 N2181 1.388 . S
Co2183 O2185 2.143 . S
Co2183 O2191 2.074 . S
Co2183 O2194 2.093 . S
Co2183 O2207 2.097 . S
Co2183 N2224 2.151 . S
Co2183 N2232 2.214 . S
Co2184 O2185 2.160 . S
Co2184 O2190 2.058 . S
Co2184 O2200 2.057 . S
Co2184 O2215 2.037 . S
Co2184 N2219 2.145 . S
Co2184 N2240 2.257 . S
O2185 Co2183 2.143 . S
O2185 Co2184 2.160 . S
C2186 O2187 1.278 . S
C2186 O2194 1.224 . S
O2187 C2186 1.278 . S
C2188 O2189 1.245 . S
C2188 O2200 1.232 . S
O2189 C2188 1.245 . S
O2190 Co2184 2.058 . S
O2190 C2216 1.269 . S
O2191 Co2183 2.074 . S
O2191 C2216 1.257 . S
H2192 C2217 0.930 . S
H2193 C2223 0.930 . S
O2194 Co2183 2.093 . S
O2194 C2186 1.224 . S
H2195 C2227 0.929 . S
H2196 C2229 0.930 . S
H2197 C2230 0.930 . S
H2198 C2228 0.929 . S
H2199 C2231 0.928 . S
O2200 Co2184 2.057 . S
O2200 C2188 1.232 . S
H2201 C2220 0.929 . S
H2202 C2221 0.929 . S
H2203 C2233 0.931 . S
H2204 C2225 0.929 . S
H2205 C2234 0.930 . S
H2206 C2226 0.931 . S
O2207 Co2183 2.097 . S
O2207 C2235 1.214 . S
H2208 C2236 0.929 . S
H2209 C2237 0.929 . S
H2210 C2238 0.930 . S
H2211 C2239 0.929 . S
H2212 C2241 0.930 . S
H2213 C2218 0.910 1_565 S
H2214 C2222 0.930 . S
O2215 Co2184 2.037 . S
O2215 C2235 1.234 . S
C2216 O2190 1.269 . S
C2216 O2191 1.257 . S
C2217 H2192 0.930 . S
C2217 C2220 1.388 . S
C2217 C2222 1.418 . S
C2218 H2213 0.910 1_545 S
C2218 C2221 1.404 . S
C2218 C2222 1.353 . S
N2219 Co2184 2.145 . S
N2219 C2220 1.397 . S
N2219 C2221 1.334 . S
C2220 H2201 0.929 . S
C2220 C2217 1.388 . S
C2220 N2219 1.397 . S
C2221 H2202 0.929 . S
C2221 C2218 1.404 . S
C2221 N2219 1.334 . S
C2222 H2214 0.930 . S
C2222 C2217 1.418 . S
C2222 C2218 1.353 . S
C2223 H2193 0.930 . S
C2223 N2224 1.330 . S
C2223 C2225 1.446 . S
N2224 Co2183 2.151 . S
N2224 C2223 1.330 . S
N2224 C2228 1.418 . S
C2225 H2204 0.929 . S
C2225 C2223 1.446 . S
C2225 C2226 1.332 . S
C2226 H2206 0.931 . S
C2226 C2225 1.332 . S
C2226 C2227 1.267 . S
C2227 H2195 0.929 . S
C2227 C2226 1.267 . S
C2227 C2228 1.251 . S
C2228 H2198 0.929 . S
C2228 N2224 1.418 . S
C2228 C2227 1.251 . S
C2229 H2196 0.930 . S
C2229 C2231 1.406 . S
C2229 C2234 1.261 . S
C2230 H2197 0.930 . S
C2230 N2232 1.325 . S
C2230 C2233 1.357 . S
C2231 H2199 0.928 . S
C2231 C2229 1.406 . S
C2231 N2232 1.261 . S
N2232 Co2183 2.214 . S
N2232 C2230 1.325 . S
N2232 C2231 1.261 . S
C2233 H2203 0.931 . S
C2233 C2230 1.357 . S
C2233 C2234 1.312 . S
C2234 H2205 0.930 . S
C2234 C2229 1.261 . S
C2234 C2233 1.312 . S
C2235 O2207 1.214 . S
C2235 O2215 1.234 . S
C2236 H2208 0.929 . S
C2236 C2239 1.391 . S
C2236 C2241 1.391 . S
C2237 H2209 0.929 . S
C2237 C2238 1.390 . S
C2237 N2240 1.391 . S
C2238 H2210 0.930 . S
C2238 C2237 1.390 . S
C2238 C2239 1.392 . S
C2239 H2211 0.929 . S
C2239 C2236 1.391 . S
C2239 C2238 1.392 . S
N2240 Co2184 2.257 . S
N2240 C2237 1.391 . S
N2240 C2241 1.388 . S
C2241 H2212 0.930 . S
C2241 C2236 1.391 . S
C2241 N2240 1.388 . S
Co2242 O2244 2.143 . S
Co2242 O2250 2.074 . S
Co2242 O2253 2.093 . S
Co2242 O2266 2.097 . S
Co2242 N2283 2.151 . S
Co2242 N2291 2.214 . S
Co2243 O2244 2.160 . S
Co2243 O2249 2.058 . S
Co2243 O2259 2.057 . S
Co2243 O2274 2.037 . S
Co2243 N2278 2.145 . S
Co2243 N2299 2.257 . S
O2244 Co2242 2.143 . S
O2244 Co2243 2.160 . S
C2245 O2246 1.278 . S
C2245 O2253 1.224 . S
O2246 C2245 1.278 . S
C2247 O2248 1.245 . S
C2247 O2259 1.232 . S
O2248 C2247 1.245 . S
O2249 Co2243 2.058 . S
O2249 C2275 1.269 . S
O2250 Co2242 2.074 . S
O2250 C2275 1.257 . S
H2251 C2276 0.930 . S
H2252 C2282 0.930 . S
O2253 Co2242 2.093 . S
O2253 C2245 1.224 . S
H2254 C2286 0.929 . S
H2255 C2288 0.930 . S
H2256 C2289 0.930 . S
H2257 C2287 0.929 . S
H2258 C2290 0.928 . S
O2259 Co2243 2.057 . S
O2259 C2247 1.232 . S
H2260 C2279 0.929 . S
H2261 C2280 0.929 . S
H2262 C2292 0.931 . S
H2263 C2284 0.929 . S
H2264 C2293 0.930 . S
H2265 C2285 0.931 . S
O2266 Co2242 2.097 . S
O2266 C2294 1.214 . S
H2267 C2295 0.929 . S
H2268 C2296 0.929 . S
H2269 C2297 0.930 . S
H2270 C2298 0.929 . S
H2271 C2300 0.930 . S
H2272 C2277 0.930 . S
H2273 C2281 0.930 . S
O2274 Co2243 2.037 . S
O2274 C2294 1.234 . S
C2275 O2249 1.269 . S
C2275 O2250 1.257 . S
C2276 H2251 0.930 . S
C2276 C2279 1.388 1_556 S
C2276 C2281 1.418 . S
C2277 H2272 0.930 . S
C2277 C2280 1.404 1_556 S
C2277 C2281 1.353 . S
N2278 Co2243 2.145 . S
N2278 C2279 1.397 . S
N2278 C2280 1.334 . S
C2279 H2260 0.929 . S
C2279 C2276 1.388 1_554 S
C2279 N2278 1.397 . S
C2280 H2261 0.929 . S
C2280 C2277 1.404 1_554 S
C2280 N2278 1.334 . S
C2281 H2273 0.930 . S
C2281 C2276 1.418 . S
C2281 C2277 1.353 . S
C2282 H2252 0.930 . S
C2282 N2283 1.330 . S
C2282 C2284 1.446 . S
N2283 Co2242 2.151 . S
N2283 C2282 1.330 . S
N2283 C2287 1.418 . S
C2284 H2263 0.929 . S
C2284 C2282 1.446 . S
C2284 C2285 1.332 . S
C2285 H2265 0.931 . S
C2285 C2284 1.332 . S
C2285 C2286 1.267 . S
C2286 H2254 0.929 . S
C2286 C2285 1.267 . S
C2286 C2287 1.251 . S
C2287 H2257 0.929 . S
C2287 N2283 1.418 . S
C2287 C2286 1.251 . S
C2288 H2255 0.930 . S
C2288 C2290 1.406 . S
C2288 C2293 1.261 . S
C2289 H2256 0.930 . S
C2289 N2291 1.325 . S
C2289 C2292 1.357 . S
C2290 H2258 0.928 . S
C2290 C2288 1.406 . S
C2290 N2291 1.261 . S
N2291 Co2242 2.214 . S
N2291 C2289 1.325 . S
N2291 C2290 1.261 . S
C2292 H2262 0.931 . S
C2292 C2289 1.357 . S
C2292 C2293 1.312 . S
C2293 H2264 0.930 . S
C2293 C2288 1.261 . S
C2293 C2292 1.312 . S
C2294 O2266 1.214 . S
C2294 O2274 1.234 . S
C2295 H2267 0.929 . S
C2295 C2298 1.391 . S
C2295 C2300 1.391 . S
C2296 H2268 0.929 . S
C2296 C2297 1.390 . S
C2296 N2299 1.391 . S
C2297 H2269 0.930 . S
C2297 C2296 1.390 . S
C2297 C2298 1.392 . S
C2298 H2270 0.929 . S
C2298 C2295 1.391 . S
C2298 C2297 1.392 . S
N2299 Co2243 2.257 . S
N2299 C2296 1.391 . S
N2299 C2300 1.388 . S
C2300 H2271 0.930 . S
C2300 C2295 1.391 . S
C2300 N2299 1.388 . S
Co2301 O2303 2.143 . S
Co2301 O2309 2.074 . S
Co2301 O2312 2.093 . S
Co2301 O2325 2.097 . S
Co2301 N2342 2.151 . S
Co2301 N2350 2.214 . S
Co2302 O2303 2.160 . S
Co2302 O2308 2.058 . S
Co2302 O2318 2.057 . S
Co2302 O2333 2.037 . S
Co2302 N2337 2.145 . S
Co2302 N2358 2.257 . S
O2303 Co2301 2.143 . S
O2303 Co2302 2.160 . S
C2304 O2305 1.278 . S
C2304 O2312 1.224 . S
O2305 C2304 1.278 . S
C2306 O2307 1.245 . S
C2306 O2318 1.232 . S
O2307 C2306 1.245 . S
O2308 Co2302 2.058 . S
O2308 C2334 1.269 . S
O2309 Co2301 2.074 . S
O2309 C2334 1.257 . S
H2310 C2335 0.930 . S
H2311 C2341 0.930 . S
O2312 Co2301 2.093 . S
O2312 C2304 1.224 . S
H2313 C2345 0.929 . S
H2314 C2347 0.930 . S
H2315 C2348 0.930 . S
H2316 C2346 0.929 . S
H2317 C2349 0.928 . S
O2318 Co2302 2.057 . S
O2318 C2306 1.232 . S
H2319 C2338 0.929 . S
H2320 C2339 0.929 . S
H2321 C2351 0.931 . S
H2322 C2343 0.929 . S
H2323 C2352 0.930 . S
H2324 C2344 0.931 . S
O2325 Co2301 2.097 . S
O2325 C2353 1.214 . S
H2326 C2354 0.929 . S
H2327 C2355 0.929 . S
H2328 C2356 0.930 . S
H2329 C2357 0.929 . S
H2330 C2359 0.930 . S
H2331 C2336 0.930 . S
H2332 C2340 0.930 . S
O2333 Co2302 2.037 . S
O2333 C2353 1.234 . S
C2334 O2308 1.269 . S
C2334 O2309 1.257 . S
C2335 H2310 0.930 . S
C2335 C2338 1.388 . S
C2335 C2340 1.418 . S
C2336 H2331 0.930 . S
C2336 C2339 1.404 . S
C2336 C2340 1.353 . S
N2337 Co2302 2.145 . S
N2337 C2338 1.397 . S
N2337 C2339 1.334 . S
C2338 H2319 0.929 . S
C2338 C2335 1.388 . S
C2338 N2337 1.397 . S
C2339 H2320 0.929 . S
C2339 C2336 1.404 . S
C2339 N2337 1.334 . S
C2340 H2332 0.930 . S
C2340 C2335 1.418 . S
C2340 C2336 1.353 . S
C2341 H2311 0.930 . S
C2341 N2342 1.330 . S
C2341 C2343 1.446 . S
N2342 Co2301 2.151 . S
N2342 C2341 1.330 . S
N2342 C2346 1.418 . S
C2343 H2322 0.929 . S
C2343 C2341 1.446 . S
C2343 C2344 1.332 . S
C2344 H2324 0.931 . S
C2344 C2343 1.332 . S
C2344 C2345 1.267 . S
C2345 H2313 0.929 . S
C2345 C2344 1.267 . S
C2345 C2346 1.251 . S
C2346 H2316 0.929 . S
C2346 N2342 1.418 . S
C2346 C2345 1.251 . S
C2347 H2314 0.930 . S
C2347 C2349 1.406 . S
C2347 C2352 1.261 . S
C2348 H2315 0.930 . S
C2348 N2350 1.325 . S
C2348 C2351 1.357 . S
C2349 H2317 0.928 . S
C2349 C2347 1.406 . S
C2349 N2350 1.261 . S
N2350 Co2301 2.214 . S
N2350 C2348 1.325 . S
N2350 C2349 1.261 . S
C2351 H2321 0.931 . S
C2351 C2348 1.357 . S
C2351 C2352 1.312 . S
C2352 H2323 0.930 . S
C2352 C2347 1.261 . S
C2352 C2351 1.312 . S
C2353 O2325 1.214 . S
C2353 O2333 1.234 . S
C2354 H2326 0.929 . S
C2354 C2357 1.391 . S
C2354 C2359 1.391 . S
C2355 H2327 0.929 . S
C2355 C2356 1.390 . S
C2355 N2358 1.391 . S
C2356 H2328 0.930 . S
C2356 C2355 1.390 . S
C2356 C2357 1.392 . S
C2357 H2329 0.929 . S
C2357 C2354 1.391 . S
C2357 C2356 1.392 . S
N2358 Co2302 2.257 . S
N2358 C2355 1.391 . S
N2358 C2359 1.388 . S
C2359 H2330 0.930 . S
C2359 C2354 1.391 . S
C2359 N2358 1.388 . S
Co2360 O2362 2.143 . S
Co2360 O2368 2.074 . S
Co2360 O2371 2.093 . S
Co2360 O2384 2.097 . S
Co2360 N2401 2.151 . S
Co2360 N2409 2.214 . S
Co2361 O2362 2.160 . S
Co2361 O2367 2.058 . S
Co2361 O2377 2.057 . S
Co2361 O2392 2.037 . S
Co2361 N2396 2.145 . S
Co2361 N2417 2.257 . S
O2362 Co2360 2.143 . S
O2362 Co2361 2.160 . S
C2363 O2364 1.278 . S
C2363 O2371 1.224 . S
O2364 C2363 1.278 . S
C2365 O2366 1.245 . S
C2365 O2377 1.232 . S
O2366 C2365 1.245 . S
O2367 Co2361 2.058 . S
O2367 C2393 1.269 . S
O2368 Co2360 2.074 . S
O2368 C2393 1.257 . S
H2369 C2394 0.930 . S
H2370 C2400 0.930 . S
O2371 Co2360 2.093 . S
O2371 C2363 1.224 . S
H2372 C2404 0.929 . S
H2373 C2406 0.930 . S
H2374 C2407 0.930 . S
H2375 C2405 0.929 . S
H2376 C2408 0.928 . S
O2377 Co2361 2.057 . S
O2377 C2365 1.232 . S
H2378 C2397 0.929 . S
H2379 C2398 0.929 . S
H2380 C2410 0.931 . S
H2381 C2402 0.929 . S
H2382 C2411 0.930 . S
H2383 C2403 0.931 . S
O2384 Co2360 2.097 . S
O2384 C2412 1.214 . S
H2385 C2413 0.929 . S
H2386 C2414 0.929 . S
H2387 C2415 0.930 . S
H2388 C2416 0.929 . S
H2389 C2418 0.930 . S
H2390 C2395 0.930 . S
H2391 C2399 0.930 . S
O2392 Co2361 2.037 . S
O2392 C2412 1.234 . S
C2393 O2367 1.269 . S
C2393 O2368 1.257 . S
C2394 H2369 0.930 . S
C2394 C2397 1.388 . S
C2394 C2399 1.418 . S
C2395 H2390 0.930 . S
C2395 C2398 1.404 . S
C2395 C2399 1.353 . S
N2396 Co2361 2.145 . S
N2396 C2397 1.397 . S
N2396 C2398 1.334 . S
C2397 H2378 0.929 . S
C2397 C2394 1.388 . S
C2397 N2396 1.397 . S
C2398 H2379 0.929 . S
C2398 C2395 1.404 . S
C2398 N2396 1.334 . S
C2399 H2391 0.930 . S
C2399 C2394 1.418 . S
C2399 C2395 1.353 . S
C2400 H2370 0.930 . S
C2400 N2401 1.330 . S
C2400 C2402 1.446 . S
N2401 Co2360 2.151 . S
N2401 C2400 1.330 . S
N2401 C2405 1.418 . S
C2402 H2381 0.929 . S
C2402 C2400 1.446 . S
C2402 C2403 1.332 . S
C2403 H2383 0.931 . S
C2403 C2402 1.332 . S
C2403 C2404 1.267 . S
C2404 H2372 0.929 . S
C2404 C2403 1.267 . S
C2404 C2405 1.251 . S
C2405 H2375 0.929 . S
C2405 N2401 1.418 . S
C2405 C2404 1.251 . S
C2406 H2373 0.930 . S
C2406 C2408 1.406 . S
C2406 C2411 1.261 . S
C2407 H2374 0.930 . S
C2407 N2409 1.325 . S
C2407 C2410 1.357 . S
C2408 H2376 0.928 . S
C2408 C2406 1.406 . S
C2408 N2409 1.261 . S
N2409 Co2360 2.214 . S
N2409 C2407 1.325 . S
N2409 C2408 1.261 . S
C2410 H2380 0.931 . S
C2410 C2407 1.357 . S
C2410 C2411 1.312 . S
C2411 H2382 0.930 . S
C2411 C2406 1.261 . S
C2411 C2410 1.312 . S
C2412 O2384 1.214 . S
C2412 O2392 1.234 . S
C2413 H2385 0.929 . S
C2413 C2416 1.391 1_655 S
C2413 C2418 1.391 . S
C2414 H2386 0.929 . S
C2414 C2415 1.390 . S
C2414 N2417 1.391 . S
C2415 H2387 0.930 . S
C2415 C2414 1.390 . S
C2415 C2416 1.392 1_655 S
C2416 H2388 0.929 . S
C2416 C2413 1.391 1_455 S
C2416 C2415 1.392 1_455 S
N2417 Co2361 2.257 . S
N2417 C2414 1.391 . S
N2417 C2418 1.388 . S
C2418 H2389 0.930 . S
C2418 C2413 1.391 . S
C2418 N2417 1.388 . S
Co2419 O2421 2.143 . S
Co2419 O2427 2.074 . S
Co2419 O2430 2.093 . S
Co2419 O2443 2.097 . S
Co2419 N2460 2.151 . S
Co2419 N2468 2.214 . S
Co2420 O2421 2.160 . S
Co2420 O2426 2.058 . S
Co2420 O2436 2.057 . S
Co2420 O2451 2.037 . S
Co2420 N2455 2.145 . S
Co2420 N2476 2.257 . S
O2421 Co2419 2.143 . S
O2421 Co2420 2.160 . S
C2422 O2423 1.278 . S
C2422 O2430 1.224 . S
O2423 C2422 1.278 . S
C2424 O2425 1.245 . S
C2424 O2436 1.232 . S
O2425 C2424 1.245 . S
O2426 Co2420 2.058 . S
O2426 C2452 1.269 . S
O2427 Co2419 2.074 . S
O2427 C2452 1.257 . S
H2428 C2453 0.916 1_455 S
H2429 C2459 0.930 . S
O2430 Co2419 2.093 . S
O2430 C2422 1.224 . S
H2431 C2463 0.929 . S
H2432 C2465 0.930 . S
H2433 C2466 0.930 . S
H2434 C2464 0.929 . S
H2435 C2467 0.928 . S
O2436 Co2420 2.057 . S
O2436 C2424 1.232 . S
H2437 C2456 0.929 . S
H2438 C2457 0.929 . S
H2439 C2469 0.931 . S
H2440 C2461 0.929 . S
H2441 C2470 0.930 . S
H2442 C2462 0.931 . S
O2443 Co2419 2.097 . S
O2443 C2471 1.214 . S
H2444 C2472 0.929 . S
H2445 C2473 0.929 . S
H2446 C2474 0.930 . S
H2447 C2475 0.929 . S
H2448 C2477 0.930 . S
H2449 C2454 0.930 . S
H2450 C2458 0.930 . S
O2451 Co2420 2.037 . S
O2451 C2471 1.234 . S
C2452 O2426 1.269 . S
C2452 O2427 1.257 . S
C2453 H2428 0.916 1_655 S
C2453 C2456 1.422 . S
C2453 C2458 1.399 1_655 S
C2454 H2449 0.930 . S
C2454 C2457 1.404 1_455 S
C2454 C2458 1.353 . S
N2455 Co2420 2.145 . S
N2455 C2456 1.397 . S
N2455 C2457 1.334 . S
C2456 H2437 0.929 . S
C2456 C2453 1.422 . S
C2456 N2455 1.397 . S
C2457 H2438 0.929 . S
C2457 C2454 1.404 1_655 S
C2457 N2455 1.334 . S
C2458 H2450 0.930 . S
C2458 C2453 1.399 1_455 S
C2458 C2454 1.353 . S
C2459 H2429 0.930 . S
C2459 N2460 1.330 . S
C2459 C2461 1.446 . S
N2460 Co2419 2.151 . S
N2460 C2459 1.330 . S
N2460 C2464 1.418 . S
C2461 H2440 0.929 . S
C2461 C2459 1.446 . S
C2461 C2462 1.332 . S
C2462 H2442 0.931 . S
C2462 C2461 1.332 . S
C2462 C2463 1.267 . S
C2463 H2431 0.929 . S
C2463 C2462 1.267 . S
C2463 C2464 1.251 . S
C2464 H2434 0.929 . S
C2464 N2460 1.418 . S
C2464 C2463 1.251 . S
C2465 H2432 0.930 . S
C2465 C2467 1.406 . S
C2465 C2470 1.261 . S
C2466 H2433 0.930 . S
C2466 N2468 1.325 . S
C2466 C2469 1.357 . S
C2467 H2435 0.928 . S
C2467 C2465 1.406 . S
C2467 N2468 1.261 . S
N2468 Co2419 2.214 . S
N2468 C2466 1.325 . S
N2468 C2467 1.261 . S
C2469 H2439 0.931 . S
C2469 C2466 1.357 . S
C2469 C2470 1.312 . S
C2470 H2441 0.930 . S
C2470 C2465 1.261 . S
C2470 C2469 1.312 . S
C2471 O2443 1.214 . S
C2471 O2451 1.234 . S
C2472 H2444 0.929 . S
C2472 C2475 1.391 . S
C2472 C2477 1.391 . S
C2473 H2445 0.929 . S
C2473 C2474 1.390 . S
C2473 N2476 1.391 . S
C2474 H2446 0.930 . S
C2474 C2473 1.390 . S
C2474 C2475 1.392 . S
C2475 H2447 0.929 . S
C2475 C2472 1.391 . S
C2475 C2474 1.392 . S
N2476 Co2420 2.257 . S
N2476 C2473 1.391 . S
N2476 C2477 1.388 . S
C2477 H2448 0.930 . S
C2477 C2472 1.391 . S
C2477 N2476 1.388 . S
Co2478 O2480 2.143 . S
Co2478 O2486 2.074 . S
Co2478 O2489 2.093 . S
Co2478 O2502 2.097 . S
Co2478 N2519 2.151 . S
Co2478 N2527 2.214 . S
Co2479 O2480 2.160 . S
Co2479 O2485 2.058 . S
Co2479 O2495 2.057 . S
Co2479 O2510 2.037 . S
Co2479 N2514 2.145 . S
Co2479 N2535 2.257 . S
O2480 Co2478 2.143 . S
O2480 Co2479 2.160 . S
C2481 O2482 1.278 . S
C2481 O2489 1.224 . S
O2482 C2481 1.278 . S
C2483 O2484 1.245 . S
C2483 O2495 1.232 . S
O2484 C2483 1.245 . S
O2485 Co2479 2.058 . S
O2485 C2511 1.269 . S
O2486 Co2478 2.074 . S
O2486 C2511 1.257 . S
H2487 C2512 0.930 . S
H2488 C2518 0.930 . S
O2489 Co2478 2.093 . S
O2489 C2481 1.224 . S
H2490 C2522 0.929 1_655 S
H2491 C2524 0.930 . S
H2492 C2525 0.930 . S
H2493 C2523 0.929 . S
H2494 C2526 0.928 . S
O2495 Co2479 2.057 . S
O2495 C2483 1.232 . S
H2496 C2515 0.929 . S
H2497 C2516 0.929 . S
H2498 C2528 0.931 . S
H2499 C2520 0.929 . S
H2500 C2529 0.930 . S
H2501 C2521 0.925 1_655 S
O2502 Co2478 2.097 . S
O2502 C2530 1.214 . S
H2503 C2531 0.929 . S
H2504 C2532 0.929 . S
H2505 C2533 0.930 . S
H2506 C2534 0.929 . S
H2507 C2536 0.930 . S
H2508 C2513 0.930 . S
H2509 C2517 0.930 . S
O2510 Co2479 2.037 . S
O2510 C2530 1.234 . S
C2511 O2485 1.269 . S
C2511 O2486 1.257 . S
C2512 H2487 0.930 . S
C2512 C2515 1.388 . S
C2512 C2517 1.418 . S
C2513 H2508 0.930 . S
C2513 C2516 1.404 . S
C2513 C2517 1.353 . S
N2514 Co2479 2.145 . S
N2514 C2515 1.397 . S
N2514 C2516 1.334 . S
C2515 H2496 0.929 . S
C2515 C2512 1.388 . S
C2515 N2514 1.397 . S
C2516 H2497 0.929 . S
C2516 C2513 1.404 . S
C2516 N2514 1.334 . S
C2517 H2509 0.930 . S
C2517 C2512 1.418 . S
C2517 C2513 1.353 . S
C2518 H2488 0.930 . S
C2518 N2519 1.330 . S
C2518 C2520 1.446 . S
N2519 Co2478 2.151 . S
N2519 C2518 1.330 . S
N2519 C2523 1.418 . S
C2520 H2499 0.929 . S
C2520 C2518 1.446 . S
C2520 C2521 1.332 . S
C2521 H2501 0.925 1_455 S
C2521 C2520 1.332 . S
C2521 C2522 1.267 . S
C2522 H2490 0.929 1_455 S
C2522 C2521 1.267 . S
C2522 C2523 1.251 . S
C2523 H2493 0.929 . S
C2523 N2519 1.418 . S
C2523 C2522 1.251 . S
C2524 H2491 0.930 . S
C2524 C2526 1.406 . S
C2524 C2529 1.261 . S
C2525 H2492 0.930 . S
C2525 N2527 1.325 . S
C2525 C2528 1.357 . S
C2526 H2494 0.928 . S
C2526 C2524 1.406 . S
C2526 N2527 1.261 . S
N2527 Co2478 2.214 . S
N2527 C2525 1.325 . S
N2527 C2526 1.261 . S
C2528 H2498 0.931 . S
C2528 C2525 1.357 . S
C2528 C2529 1.312 . S
C2529 H2500 0.930 . S
C2529 C2524 1.261 . S
C2529 C2528 1.312 . S
C2530 O2502 1.214 . S
C2530 O2510 1.234 . S
C2531 H2503 0.929 . S
C2531 C2534 1.391 . S
C2531 C2536 1.391 . S
C2532 H2504 0.929 . S
C2532 C2533 1.390 . S
C2532 N2535 1.391 . S
C2533 H2505 0.930 . S
C2533 C2532 1.390 . S
C2533 C2534 1.392 . S
C2534 H2506 0.929 . S
C2534 C2531 1.391 . S
C2534 C2533 1.392 . S
N2535 Co2479 2.257 . S
N2535 C2532 1.391 . S
N2535 C2536 1.388 . S
C2536 H2507 0.930 . S
C2536 C2531 1.391 . S
C2536 N2535 1.388 . S
Co2537 O2539 2.143 . S
Co2537 O2545 2.074 . S
Co2537 O2548 2.093 . S
Co2537 O2561 2.097 . S
Co2537 N2578 2.151 . S
Co2537 N2586 2.214 . S
Co2538 O2539 2.160 . S
Co2538 O2544 2.058 . S
Co2538 O2554 2.057 . S
Co2538 O2569 2.037 . S
Co2538 N2573 2.145 . S
Co2538 N2594 2.257 . S
O2539 Co2537 2.143 . S
O2539 Co2538 2.160 . S
C2540 O2541 1.278 . S
C2540 O2548 1.224 . S
O2541 C2540 1.278 . S
C2542 O2543 1.245 . S
C2542 O2554 1.232 . S
O2543 C2542 1.245 . S
O2544 Co2538 2.058 . S
O2544 C2570 1.269 . S
O2545 Co2537 2.074 . S
O2545 C2570 1.257 . S
H2546 C2571 0.930 . S
H2547 C2577 0.930 . S
O2548 Co2537 2.093 . S
O2548 C2540 1.224 . S
H2549 C2581 0.929 . S
H2550 C2583 0.930 . S
H2551 C2584 0.930 . S
H2552 C2582 0.929 . S
H2553 C2585 0.928 . S
O2554 Co2538 2.057 . S
O2554 C2542 1.232 . S
H2555 C2574 0.929 . S
H2556 C2575 0.929 . S
H2557 C2587 0.931 . S
H2558 C2579 0.929 . S
H2559 C2588 0.930 . S
H2560 C2580 0.931 . S
O2561 Co2537 2.097 . S
O2561 C2589 1.214 . S
H2562 C2590 0.929 . S
H2563 C2591 0.929 . S
H2564 C2592 0.930 . S
H2565 C2593 0.929 1_655 S
H2566 C2595 0.930 . S
H2567 C2572 0.930 . S
H2568 C2576 0.930 . S
O2569 Co2538 2.037 . S
O2569 C2589 1.234 . S
C2570 O2544 1.269 . S
C2570 O2545 1.257 . S
C2571 H2546 0.930 . S
C2571 C2574 1.388 . S
C2571 C2576 1.418 . S
C2572 H2567 0.930 . S
C2572 C2575 1.404 . S
C2572 C2576 1.353 . S
N2573 Co2538 2.145 . S
N2573 C2574 1.397 . S
N2573 C2575 1.334 . S
C2574 H2555 0.929 . S
C2574 C2571 1.388 . S
C2574 N2573 1.397 . S
C2575 H2556 0.929 . S
C2575 C2572 1.404 . S
C2575 N2573 1.334 . S
C2576 H2568 0.930 . S
C2576 C2571 1.418 . S
C2576 C2572 1.353 . S
C2577 H2547 0.930 . S
C2577 N2578 1.330 . S
C2577 C2579 1.446 . S
N2578 Co2537 2.151 . S
N2578 C2577 1.330 . S
N2578 C2582 1.418 . S
C2579 H2558 0.929 . S
C2579 C2577 1.446 . S
C2579 C2580 1.332 . S
C2580 H2560 0.931 . S
C2580 C2579 1.332 . S
C2580 C2581 1.267 . S
C2581 H2549 0.929 . S
C2581 C2580 1.267 . S
C2581 C2582 1.251 . S
C2582 H2552 0.929 . S
C2582 N2578 1.418 . S
C2582 C2581 1.251 . S
C2583 H2550 0.930 . S
C2583 C2585 1.406 . S
C2583 C2588 1.261 . S
C2584 H2551 0.930 . S
C2584 N2586 1.325 . S
C2584 C2587 1.357 . S
C2585 H2553 0.928 . S
C2585 C2583 1.406 . S
C2585 N2586 1.261 . S
N2586 Co2537 2.214 . S
N2586 C2584 1.325 . S
N2586 C2585 1.261 . S
C2587 H2557 0.931 . S
C2587 C2584 1.357 . S
C2587 C2588 1.312 . S
C2588 H2559 0.930 . S
C2588 C2583 1.261 . S
C2588 C2587 1.312 . S
C2589 O2561 1.214 . S
C2589 O2569 1.234 . S
C2590 H2562 0.929 . S
C2590 C2593 1.391 . S
C2590 C2595 1.391 . S
C2591 H2563 0.929 . S
C2591 C2592 1.390 . S
C2591 N2594 1.391 . S
C2592 H2564 0.930 . S
C2592 C2591 1.390 . S
C2592 C2593 1.392 . S
C2593 H2565 0.929 1_455 S
C2593 C2590 1.391 . S
C2593 C2592 1.392 . S
N2594 Co2538 2.257 . S
N2594 C2591 1.391 . S
N2594 C2595 1.388 . S
C2595 H2566 0.930 . S
C2595 C2590 1.391 . S
C2595 N2594 1.388 . S
Co2596 O2598 2.143 . S
Co2596 O2604 2.074 . S
Co2596 O2607 2.093 . S
Co2596 O2620 2.097 . S
Co2596 N2637 2.151 . S
Co2596 N2645 2.214 . S
Co2597 O2598 2.160 . S
Co2597 O2603 2.058 . S
Co2597 O2613 2.057 . S
Co2597 O2628 2.037 . S
Co2597 N2632 2.145 . S
Co2597 N2653 2.257 . S
O2598 Co2596 2.143 . S
O2598 Co2597 2.160 . S
C2599 O2600 1.278 . S
C2599 O2607 1.224 . S
O2600 C2599 1.278 . S
C2601 O2602 1.245 . S
C2601 O2613 1.232 . S
O2602 C2601 1.245 . S
O2603 Co2597 2.058 . S
O2603 C2629 1.269 . S
O2604 Co2596 2.074 . S
O2604 C2629 1.257 . S
H2605 C2630 0.930 . S
H2606 C2636 0.930 . S
O2607 Co2596 2.093 . S
O2607 C2599 1.224 . S
H2608 C2640 0.929 . S
H2609 C2642 0.930 1_455 S
H2610 C2643 0.930 . S
H2611 C2641 0.929 . S
H2612 C2644 0.928 . S
O2613 Co2597 2.057 . S
O2613 C2601 1.232 . S
H2614 C2633 0.929 . S
H2615 C2634 0.929 . S
H2616 C2646 0.931 . S
H2617 C2638 0.929 . S
H2618 C2647 0.930 . S
H2619 C2639 0.950 . S
O2620 Co2596 2.097 . S
O2620 C2648 1.214 . S
H2621 C2649 0.929 . S
H2622 C2650 0.929 . S
H2623 C2651 0.930 . S
H2624 C2652 0.929 . S
H2625 C2654 0.930 . S
H2626 C2631 0.930 . S
H2627 C2635 0.930 . S
O2628 Co2597 2.037 . S
O2628 C2648 1.234 . S
C2629 O2603 1.269 . S
C2629 O2604 1.257 . S
C2630 H2605 0.930 . S
C2630 C2633 1.388 . S
C2630 C2635 1.418 . S
C2631 H2626 0.930 . S
C2631 C2634 1.404 . S
C2631 C2635 1.353 . S
N2632 Co2597 2.145 . S
N2632 C2633 1.397 . S
N2632 C2634 1.334 . S
C2633 H2614 0.929 . S
C2633 C2630 1.388 . S
C2633 N2632 1.397 . S
C2634 H2615 0.929 . S
C2634 C2631 1.404 . S
C2634 N2632 1.334 . S
C2635 H2627 0.930 . S
C2635 C2630 1.418 . S
C2635 C2631 1.353 . S
C2636 H2606 0.930 . S
C2636 N2637 1.330 . S
C2636 C2638 1.446 . S
N2637 Co2596 2.151 . S
N2637 C2636 1.330 . S
N2637 C2641 1.418 . S
C2638 H2617 0.929 . S
C2638 C2636 1.446 . S
C2638 C2639 1.332 . S
C2639 H2619 0.950 . S
C2639 C2638 1.332 . S
C2639 C2640 1.267 . S
C2640 H2608 0.929 . S
C2640 C2639 1.267 . S
C2640 C2641 1.251 . S
C2641 H2611 0.929 . S
C2641 N2637 1.418 . S
C2641 C2640 1.251 . S
C2642 H2609 0.930 1_655 S
C2642 C2644 1.406 . S
C2642 C2647 1.261 . S
C2643 H2610 0.930 . S
C2643 N2645 1.325 . S
C2643 C2646 1.357 . S
C2644 H2612 0.928 . S
C2644 C2642 1.406 . S
C2644 N2645 1.261 . S
N2645 Co2596 2.214 . S
N2645 C2643 1.325 . S
N2645 C2644 1.261 . S
C2646 H2616 0.931 . S
C2646 C2643 1.357 . S
C2646 C2647 1.312 . S
C2647 H2618 0.930 . S
C2647 C2642 1.261 . S
C2647 C2646 1.312 . S
C2648 O2620 1.214 . S
C2648 O2628 1.234 . S
C2649 H2621 0.929 . S
C2649 C2652 1.391 . S
C2649 C2654 1.391 . S
C2650 H2622 0.929 . S
C2650 C2651 1.390 . S
C2650 N2653 1.391 . S
C2651 H2623 0.930 . S
C2651 C2650 1.390 . S
C2651 C2652 1.392 . S
C2652 H2624 0.929 . S
C2652 C2649 1.391 . S
C2652 C2651 1.392 . S
N2653 Co2597 2.257 . S
N2653 C2650 1.391 . S
N2653 C2654 1.388 . S
C2654 H2625 0.930 . S
C2654 C2649 1.391 . S
C2654 N2653 1.388 . S
Co2655 O2657 2.143 . S
Co2655 O2663 2.074 . S
Co2655 O2666 2.093 . S
Co2655 O2679 2.097 . S
Co2655 N2696 2.151 . S
Co2655 N2704 2.214 . S
Co2656 O2657 2.160 . S
Co2656 O2662 2.058 . S
Co2656 O2672 2.057 . S
Co2656 O2687 2.037 . S
Co2656 N2691 2.145 . S
Co2656 N2712 2.257 . S
O2657 Co2655 2.143 . S
O2657 Co2656 2.160 . S
C2658 O2659 1.278 . S
C2658 O2666 1.224 . S
O2659 C2658 1.278 . S
C2660 O2661 1.245 . S
C2660 O2672 1.232 . S
O2661 C2660 1.245 . S
O2662 Co2656 2.058 . S
O2662 C2688 1.269 . S
O2663 Co2655 2.074 . S
O2663 C2688 1.257 . S
H2664 C2689 0.930 . S
H2665 C2695 0.930 . S
O2666 Co2655 2.093 . S
O2666 C2658 1.224 . S
H2667 C2699 0.929 . S
H2668 C2701 0.930 . S
H2669 C2702 0.930 . S
H2670 C2700 0.929 . S
H2671 C2703 0.928 . S
O2672 Co2656 2.057 . S
O2672 C2660 1.232 . S
H2673 C2692 0.929 . S
H2674 C2693 0.929 . S
H2675 C2705 0.931 . S
H2676 C2697 0.929 . S
H2677 C2706 0.930 . S
H2678 C2698 0.931 . S
O2679 Co2655 2.097 . S
O2679 C2707 1.214 . S
H2680 C2708 0.929 . S
H2681 C2709 0.929 . S
H2682 C2710 0.930 . S
H2683 C2711 0.929 . S
H2684 C2713 0.930 . S
H2685 C2690 0.930 . S
H2686 C2694 0.930 . S
O2687 Co2656 2.037 . S
O2687 C2707 1.234 . S
C2688 O2662 1.269 . S
C2688 O2663 1.257 . S
C2689 H2664 0.930 . S
C2689 C2692 1.388 1_655 S
C2689 C2694 1.418 . S
C2690 H2685 0.930 . S
C2690 C2693 1.404 1_655 S
C2690 C2694 1.353 . S
N2691 Co2656 2.145 . S
N2691 C2692 1.397 . S
N2691 C2693 1.334 . S
C2692 H2673 0.929 . S
C2692 C2689 1.388 1_455 S
C2692 N2691 1.397 . S
C2693 H2674 0.929 . S
C2693 C2690 1.404 1_455 S
C2693 N2691 1.334 . S
C2694 H2686 0.930 . S
C2694 C2689 1.418 . S
C2694 C2690 1.353 . S
C2695 H2665 0.930 . S
C2695 N2696 1.330 . S
C2695 C2697 1.446 . S
N2696 Co2655 2.151 . S
N2696 C2695 1.330 . S
N2696 C2700 1.418 . S
C2697 H2676 0.929 . S
C2697 C2695 1.446 . S
C2697 C2698 1.332 . S
C2698 H2678 0.931 . S
C2698 C2697 1.332 . S
C2698 C2699 1.267 . S
C2699 H2667 0.929 . S
C2699 C2698 1.267 . S
C2699 C2700 1.251 . S
C2700 H2670 0.929 . S
C2700 N2696 1.418 . S
C2700 C2699 1.251 . S
C2701 H2668 0.930 . S
C2701 C2703 1.406 . S
C2701 C2706 1.261 . S
C2702 H2669 0.930 . S
C2702 N2704 1.325 . S
C2702 C2705 1.357 . S
C2703 H2671 0.928 . S
C2703 C2701 1.406 . S
C2703 N2704 1.261 . S
N2704 Co2655 2.214 . S
N2704 C2702 1.325 . S
N2704 C2703 1.261 . S
C2705 H2675 0.931 . S
C2705 C2702 1.357 . S
C2705 C2706 1.312 . S
C2706 H2677 0.930 . S
C2706 C2701 1.261 . S
C2706 C2705 1.312 . S
C2707 O2679 1.214 . S
C2707 O2687 1.234 . S
C2708 H2680 0.929 . S
C2708 C2711 1.391 . S
C2708 C2713 1.391 . S
C2709 H2681 0.929 . S
C2709 C2710 1.390 . S
C2709 N2712 1.391 . S
C2710 H2682 0.930 . S
C2710 C2709 1.390 . S
C2710 C2711 1.392 . S
C2711 H2683 0.929 . S
C2711 C2708 1.391 . S
C2711 C2710 1.392 . S
N2712 Co2656 2.257 . S
N2712 C2709 1.391 . S
N2712 C2713 1.388 . S
C2713 H2684 0.930 . S
C2713 C2708 1.391 . S
C2713 N2712 1.388 . S
Co2714 O2716 2.143 . S
Co2714 O2722 2.074 . S
Co2714 O2725 2.093 . S
Co2714 O2738 2.097 . S
Co2714 N2755 2.151 . S
Co2714 N2763 2.214 . S
Co2715 O2716 2.160 . S
Co2715 O2721 2.058 . S
Co2715 O2731 2.057 . S
Co2715 O2746 2.037 . S
Co2715 N2750 2.145 . S
Co2715 N2771 2.257 . S
O2716 Co2714 2.143 . S
O2716 Co2715 2.160 . S
C2717 O2718 1.278 . S
C2717 O2725 1.224 . S
O2718 C2717 1.278 . S
C2719 O2720 1.245 . S
C2719 O2731 1.232 . S
O2720 C2719 1.245 . S
O2721 Co2715 2.058 . S
O2721 C2747 1.269 . S
O2722 Co2714 2.074 . S
O2722 C2747 1.257 . S
H2723 C2748 0.930 . S
H2724 C2754 0.930 . S
O2725 Co2714 2.093 . S
O2725 C2717 1.224 . S
H2726 C2758 0.929 . S
H2727 C2760 0.930 . S
H2728 C2761 0.930 . S
H2729 C2759 0.929 . S
H2730 C2762 0.928 . S
O2731 Co2715 2.057 . S
O2731 C2719 1.232 . S
H2732 C2751 0.929 . S
H2733 C2752 0.929 . S
H2734 C2764 0.931 . S
H2735 C2756 0.929 . S
H2736 C2765 0.930 . S
H2737 C2757 0.931 . S
O2738 Co2714 2.097 . S
O2738 C2766 1.214 . S
H2739 C2767 0.929 . S
H2740 C2768 0.929 . S
H2741 C2769 0.930 . S
H2742 C2770 0.929 . S
H2743 C2772 0.930 . S
H2744 C2749 0.930 . S
H2745 C2753 0.930 . S
O2746 Co2715 2.037 . S
O2746 C2766 1.234 . S
C2747 O2721 1.269 . S
C2747 O2722 1.257 . S
C2748 H2723 0.930 . S
C2748 C2751 1.388 . S
C2748 C2753 1.418 . S
C2749 H2744 0.930 . S
C2749 C2752 1.404 . S
C2749 C2753 1.353 . S
N2750 Co2715 2.145 . S
N2750 C2751 1.397 . S
N2750 C2752 1.334 . S
C2751 H2732 0.929 . S
C2751 C2748 1.388 . S
C2751 N2750 1.397 . S
C2752 H2733 0.929 . S
C2752 C2749 1.404 . S
C2752 N2750 1.334 . S
C2753 H2745 0.930 . S
C2753 C2748 1.418 . S
C2753 C2749 1.353 . S
C2754 H2724 0.930 . S
C2754 N2755 1.330 . S
C2754 C2756 1.446 . S
N2755 Co2714 2.151 . S
N2755 C2754 1.330 . S
N2755 C2759 1.418 . S
C2756 H2735 0.929 . S
C2756 C2754 1.446 . S
C2756 C2757 1.332 . S
C2757 H2737 0.931 . S
C2757 C2756 1.332 . S
C2757 C2758 1.267 . S
C2758 H2726 0.929 . S
C2758 C2757 1.267 . S
C2758 C2759 1.251 . S
C2759 H2729 0.929 . S
C2759 N2755 1.418 . S
C2759 C2758 1.251 . S
C2760 H2727 0.930 . S
C2760 C2762 1.406 . S
C2760 C2765 1.261 . S
C2761 H2728 0.930 . S
C2761 N2763 1.325 . S
C2761 C2764 1.357 . S
C2762 H2730 0.928 . S
C2762 C2760 1.406 . S
C2762 N2763 1.261 . S
N2763 Co2714 2.214 . S
N2763 C2761 1.325 . S
N2763 C2762 1.261 . S
C2764 H2734 0.931 . S
C2764 C2761 1.357 . S
C2764 C2765 1.312 . S
C2765 H2736 0.930 . S
C2765 C2760 1.261 . S
C2765 C2764 1.312 . S
C2766 O2738 1.214 . S
C2766 O2746 1.234 . S
C2767 H2739 0.929 . S
C2767 C2770 1.391 . S
C2767 C2772 1.391 . S
C2768 H2740 0.929 . S
C2768 C2769 1.390 . S
C2768 N2771 1.391 . S
C2769 H2741 0.930 . S
C2769 C2768 1.390 . S
C2769 C2770 1.392 . S
C2770 H2742 0.929 . S
C2770 C2767 1.391 . S
C2770 C2769 1.392 . S
N2771 Co2715 2.257 . S
N2771 C2768 1.391 . S
N2771 C2772 1.388 . S
C2772 H2743 0.930 . S
C2772 C2767 1.391 . S
C2772 N2771 1.388 . S
Co2773 O2775 2.143 . S
Co2773 O2781 2.074 . S
Co2773 O2784 2.093 . S
Co2773 O2797 2.097 . S
Co2773 N2814 2.151 . S
Co2773 N2822 2.214 . S
Co2774 O2775 2.160 . S
Co2774 O2780 2.058 . S
Co2774 O2790 2.057 . S
Co2774 O2805 2.037 . S
Co2774 N2809 2.145 . S
Co2774 N2830 2.257 . S
O2775 Co2773 2.143 . S
O2775 Co2774 2.160 . S
C2776 O2777 1.278 . S
C2776 O2784 1.224 . S
O2777 C2776 1.278 . S
C2778 O2779 1.245 . S
C2778 O2790 1.232 . S
O2779 C2778 1.245 . S
O2780 Co2774 2.058 . S
O2780 C2806 1.269 . S
O2781 Co2773 2.074 . S
O2781 C2806 1.257 . S
H2782 C2807 0.930 . S
H2783 C2813 0.930 . S
O2784 Co2773 2.093 . S
O2784 C2776 1.224 . S
H2785 C2817 0.929 . S
H2786 C2819 0.930 . S
H2787 C2820 0.930 . S
H2788 C2818 0.929 . S
H2789 C2821 0.928 . S
O2790 Co2774 2.057 . S
O2790 C2778 1.232 . S
H2791 C2810 0.929 . S
H2792 C2811 0.929 . S
H2793 C2823 0.931 . S
H2794 C2815 0.929 . S
H2795 C2824 0.930 . S
H2796 C2816 0.931 . S
O2797 Co2773 2.097 . S
O2797 C2825 1.214 . S
H2798 C2826 0.929 . S
H2799 C2827 0.929 . S
H2800 C2828 0.930 . S
H2801 C2829 0.929 . S
H2802 C2831 0.930 . S
H2803 C2808 0.930 . S
H2804 C2812 0.930 . S
O2805 Co2774 2.037 . S
O2805 C2825 1.234 . S
C2806 O2780 1.269 . S
C2806 O2781 1.257 . S
C2807 H2782 0.930 . S
C2807 C2810 1.388 . S
C2807 C2812 1.418 . S
C2808 H2803 0.930 . S
C2808 C2811 1.404 . S
C2808 C2812 1.353 . S
N2809 Co2774 2.145 . S
N2809 C2810 1.397 . S
N2809 C2811 1.334 . S
C2810 H2791 0.929 . S
C2810 C2807 1.388 . S
C2810 N2809 1.397 . S
C2811 H2792 0.929 . S
C2811 C2808 1.404 . S
C2811 N2809 1.334 . S
C2812 H2804 0.930 . S
C2812 C2807 1.418 . S
C2812 C2808 1.353 . S
C2813 H2783 0.930 . S
C2813 N2814 1.330 . S
C2813 C2815 1.446 . S
N2814 Co2773 2.151 . S
N2814 C2813 1.330 . S
N2814 C2818 1.418 . S
C2815 H2794 0.929 . S
C2815 C2813 1.446 . S
C2815 C2816 1.332 . S
C2816 H2796 0.931 . S
C2816 C2815 1.332 . S
C2816 C2817 1.267 . S
C2817 H2785 0.929 . S
C2817 C2816 1.267 . S
C2817 C2818 1.251 . S
C2818 H2788 0.929 . S
C2818 N2814 1.418 . S
C2818 C2817 1.251 . S
C2819 H2786 0.930 . S
C2819 C2821 1.406 . S
C2819 C2824 1.261 . S
C2820 H2787 0.930 . S
C2820 N2822 1.325 . S
C2820 C2823 1.357 . S
C2821 H2789 0.928 . S
C2821 C2819 1.406 . S
C2821 N2822 1.261 . S
N2822 Co2773 2.214 . S
N2822 C2820 1.325 . S
N2822 C2821 1.261 . S
C2823 H2793 0.931 . S
C2823 C2820 1.357 . S
C2823 C2824 1.312 . S
C2824 H2795 0.930 . S
C2824 C2819 1.261 . S
C2824 C2823 1.312 . S
C2825 O2797 1.214 . S
C2825 O2805 1.234 . S
C2826 H2798 0.929 . S
C2826 C2829 1.391 . S
C2826 C2831 1.391 . S
C2827 H2799 0.929 . S
C2827 C2828 1.390 . S
C2827 N2830 1.391 . S
C2828 H2800 0.930 . S
C2828 C2827 1.390 . S
C2828 C2829 1.392 . S
C2829 H2801 0.929 . S
C2829 C2826 1.391 . S
C2829 C2828 1.392 . S
N2830 Co2774 2.257 . S
N2830 C2827 1.391 . S
N2830 C2831 1.388 . S
C2831 H2802 0.930 . S
C2831 C2826 1.391 . S
C2831 N2830 1.388 . S
C2832 C2833 1.387 . S
C2832 H2836 0.950 . S
C2832 C2841 1.390 . S
C2833 C2832 1.387 . S
C2833 C2835 1.387 . S
H2834 C2841 0.950 . S
C2835 C2833 1.387 . S
C2835 C2837 1.390 . S
C2835 H2839 0.950 . S
H2836 C2832 0.950 . S
C2837 C2835 1.390 . S
C2837 C2838 1.387 . S
C2837 H2840 0.950 . S
C2838 C2837 1.387 . S
C2838 C2841 1.387 . S
H2839 C2835 0.950 . S
H2840 C2837 0.950 . S
C2841 C2832 1.390 . S
C2841 H2834 0.950 . S
C2841 C2838 1.387 . S
C2842 C2843 1.387 . S
C2842 H2846 0.950 . S
C2842 C2851 1.390 . S
C2843 C2842 1.387 . S
C2843 C2845 1.387 . S
H2844 C2851 0.950 . S
C2845 C2843 1.387 . S
C2845 C2847 1.390 . S
C2845 H2849 0.950 . S
H2846 C2842 0.950 . S
C2847 C2845 1.390 . S
C2847 C2848 1.387 . S
C2847 H2850 0.950 . S
C2848 C2847 1.387 . S
C2848 C2851 1.387 . S
H2849 C2845 0.950 . S
H2850 C2847 0.950 . S
C2851 C2842 1.390 . S
C2851 H2844 0.950 . S
C2851 C2848 1.387 . S
C2852 C2853 1.387 . S
C2852 H2856 0.950 . S
C2852 C2861 1.390 . S
C2853 C2852 1.387 . S
C2853 C2855 1.387 . S
H2854 C2861 0.950 . S
C2855 C2853 1.387 . S
C2855 C2857 1.390 . S
C2855 H2859 0.950 . S
H2856 C2852 0.950 . S
C2857 C2855 1.390 . S
C2857 C2858 1.387 . S
C2857 H2860 0.950 . S
C2858 C2857 1.387 . S
C2858 C2861 1.387 . S
H2859 C2855 0.950 . S
H2860 C2857 0.950 . S
C2861 C2852 1.390 . S
C2861 H2854 0.950 . S
C2861 C2858 1.387 . S
C2862 C2863 1.387 . S
C2862 H2866 0.950 . S
C2862 C2871 1.390 . S
C2863 C2862 1.387 . S
C2863 C2865 1.387 . S
H2864 C2871 0.950 . S
C2865 C2863 1.387 . S
C2865 C2867 1.390 . S
C2865 H2869 0.950 . S
H2866 C2862 0.950 . S
C2867 C2865 1.390 . S
C2867 C2868 1.387 . S
C2867 H2870 0.950 . S
C2868 C2867 1.387 . S
C2868 C2871 1.387 . S
H2869 C2865 0.950 . S
H2870 C2867 0.950 . S
C2871 C2862 1.390 . S
C2871 H2864 0.950 . S
C2871 C2868 1.387 . S
C2872 C2873 1.387 . S
C2872 H2876 0.950 . S
C2872 C2881 1.390 . S
C2873 C2872 1.387 . S
C2873 C2875 1.387 . S
H2874 C2881 0.950 . S
C2875 C2873 1.387 . S
C2875 C2877 1.390 . S
C2875 H2879 0.950 . S
H2876 C2872 0.950 . S
C2877 C2875 1.390 . S
C2877 C2878 1.387 . S
C2877 H2880 0.950 . S
C2878 C2877 1.387 . S
C2878 C2881 1.387 . S
H2879 C2875 0.950 . S
H2880 C2877 0.950 . S
C2881 C2872 1.390 . S
C2881 H2874 0.950 . S
C2881 C2878 1.387 . S
C2882 C2883 1.387 . S
C2882 H2886 0.950 . S
C2882 C2891 1.390 . S
C2883 C2882 1.387 . S
C2883 C2885 1.387 . S
H2884 C2891 0.950 . S
C2885 C2883 1.387 . S
C2885 C2887 1.390 . S
C2885 H2889 0.950 . S
H2886 C2882 0.950 . S
C2887 C2885 1.390 . S
C2887 C2888 1.387 . S
C2887 H2890 0.950 . S
C2888 C2887 1.387 . S
C2888 C2891 1.387 . S
H2889 C2885 0.950 . S
H2890 C2887 0.950 . S
C2891 C2882 1.390 . S
C2891 H2884 0.950 . S
C2891 C2888 1.387 . S
C2892 C2893 1.387 . S
C2892 H2896 0.950 . S
C2892 C2901 1.390 . S
C2893 C2892 1.387 . S
C2893 C2895 1.387 . S
H2894 C2901 0.950 . S
C2895 C2893 1.387 . S
C2895 C2897 1.390 . S
C2895 H2899 0.950 . S
H2896 C2892 0.950 . S
C2897 C2895 1.390 . S
C2897 C2898 1.387 . S
C2897 H2900 0.950 . S
C2898 C2897 1.387 . S
C2898 C2901 1.387 . S
H2899 C2895 0.950 . S
H2900 C2897 0.950 . S
C2901 C2892 1.390 . S
C2901 H2894 0.950 . S
C2901 C2898 1.387 . S
C2902 C2903 1.387 . S
C2902 H2906 0.950 . S
C2902 C2911 1.390 . S
C2903 C2902 1.387 . S
C2903 C2905 1.387 . S
H2904 C2911 0.950 . S
C2905 C2903 1.387 . S
C2905 C2907 1.390 . S
C2905 H2909 0.950 . S
H2906 C2902 0.950 . S
C2907 C2905 1.390 . S
C2907 C2908 1.387 . S
C2907 H2910 0.950 . S
C2908 C2907 1.387 . S
C2908 C2911 1.387 . S
H2909 C2905 0.950 . S
H2910 C2907 0.950 . S
C2911 C2902 1.390 . S
C2911 H2904 0.950 . S
C2911 C2908 1.387 . S
C2912 C2913 1.387 . S
C2912 H2916 0.950 . S
C2912 C2921 1.390 . S
C2913 C2912 1.387 . S
C2913 C2915 1.387 . S
H2914 C2921 0.950 . S
C2915 C2913 1.387 . S
C2915 C2917 1.390 . S
C2915 H2919 0.950 . S
H2916 C2912 0.950 . S
C2917 C2915 1.390 . S
C2917 C2918 1.387 . S
C2917 H2920 0.950 . S
C2918 C2917 1.387 . S
C2918 C2921 1.387 . S
H2919 C2915 0.950 . S
H2920 C2917 0.950 . S
C2921 C2912 1.390 . S
C2921 H2914 0.950 . S
C2921 C2918 1.387 . S
C2922 C2923 1.387 . S
C2922 H2926 0.950 . S
C2922 C2931 1.390 . S
C2923 C2922 1.387 . S
C2923 C2925 1.387 . S
H2924 C2931 0.950 . S
C2925 C2923 1.387 . S
C2925 C2927 1.390 . S
C2925 H2929 0.950 . S
H2926 C2922 0.950 . S
C2927 C2925 1.390 . S
C2927 C2928 1.387 . S
C2927 H2930 0.950 . S
C2928 C2927 1.387 . S
C2928 C2931 1.387 . S
H2929 C2925 0.950 . S
H2930 C2927 0.950 . S
C2931 C2922 1.390 . S
C2931 H2924 0.950 . S
C2931 C2928 1.387 . S
C2932 C2933 1.387 . S
C2932 H2936 0.950 . S
C2932 C2941 1.390 . S
C2933 C2932 1.387 . S
C2933 C2935 1.387 . S
H2934 C2941 0.950 . S
C2935 C2933 1.387 . S
C2935 C2937 1.390 . S
C2935 H2939 0.950 . S
H2936 C2932 0.950 . S
C2937 C2935 1.390 . S
C2937 C2938 1.387 . S
C2937 H2940 0.950 . S
C2938 C2937 1.387 . S
C2938 C2941 1.387 . S
H2939 C2935 0.950 . S
H2940 C2937 0.950 . S
C2941 C2932 1.390 . S
C2941 H2934 0.950 . S
C2941 C2938 1.387 . S
C2942 C2943 1.387 . S
C2942 H2946 0.950 . S
C2942 C2951 1.390 . S
C2943 C2942 1.387 . S
C2943 C2945 1.387 . S
H2944 C2951 0.950 . S
C2945 C2943 1.387 . S
C2945 C2947 1.390 . S
C2945 H2949 0.950 . S
H2946 C2942 0.950 . S
C2947 C2945 1.390 . S
C2947 C2948 1.387 . S
C2947 H2950 0.950 . S
C2948 C2947 1.387 . S
C2948 C2951 1.387 . S
H2949 C2945 0.950 . S
H2950 C2947 0.950 . S
C2951 C2942 1.390 . S
C2951 H2944 0.950 . S
C2951 C2948 1.387 . S
C2952 C2953 1.387 . S
C2952 H2956 0.950 . S
C2952 C2961 1.390 . S
C2953 C2952 1.387 . S
C2953 C2955 1.387 . S
H2954 C2961 0.950 . S
C2955 C2953 1.387 . S
C2955 C2957 1.390 . S
C2955 H2959 0.950 . S
H2956 C2952 0.950 . S
C2957 C2955 1.390 . S
C2957 C2958 1.387 . S
C2957 H2960 0.950 . S
C2958 C2957 1.387 . S
C2958 C2961 1.387 . S
H2959 C2955 0.950 . S
H2960 C2957 0.950 . S
C2961 C2952 1.390 . S
C2961 H2954 0.950 . S
C2961 C2958 1.387 . S
C2962 C2963 1.387 . S
C2962 H2966 0.950 . S
C2962 C2971 1.390 . S
C2963 C2962 1.387 . S
C2963 C2965 1.387 . S
H2964 C2971 0.950 . S
C2965 C2963 1.387 . S
C2965 C2967 1.390 . S
C2965 H2969 0.950 . S
H2966 C2962 0.950 . S
C2967 C2965 1.390 . S
C2967 C2968 1.387 . S
C2967 H2970 0.950 . S
C2968 C2967 1.387 . S
C2968 C2971 1.387 . S
H2969 C2965 0.950 . S
H2970 C2967 0.950 . S
C2971 C2962 1.390 . S
C2971 H2964 0.950 . S
C2971 C2968 1.387 . S
C2972 C2973 1.387 . S
C2972 H2976 0.950 . S
C2972 C2981 1.390 . S
C2973 C2972 1.387 . S
C2973 C2975 1.387 . S
H2974 C2981 0.950 . S
C2975 C2973 1.387 . S
C2975 C2977 1.390 . S
C2975 H2979 0.950 . S
H2976 C2972 0.950 . S
C2977 C2975 1.390 . S
C2977 C2978 1.387 . S
C2977 H2980 0.950 . S
C2978 C2977 1.387 . S
C2978 C2981 1.387 . S
H2979 C2975 0.950 . S
H2980 C2977 0.950 . S
C2981 C2972 1.390 . S
C2981 H2974 0.950 . S
C2981 C2978 1.387 . S
C2982 C2983 1.387 . S
C2982 H2986 0.950 . S
C2982 C2991 1.390 . S
C2983 C2982 1.387 . S
C2983 C2985 1.387 . S
H2984 C2991 0.950 . S
C2985 C2983 1.387 . S
C2985 C2987 1.390 . S
C2985 H2989 0.950 . S
H2986 C2982 0.950 . S
C2987 C2985 1.390 . S
C2987 C2988 1.387 . S
C2987 H2990 0.950 . S
C2988 C2987 1.387 . S
C2988 C2991 1.387 . S
H2989 C2985 0.950 . S
H2990 C2987 0.950 . S
C2991 C2982 1.390 . S
C2991 H2984 0.950 . S
C2991 C2988 1.387 . S
C2992 C2993 1.387 . S
C2992 H2996 0.950 . S
C2992 C3001 1.390 . S
C2993 C2992 1.387 . S
C2993 C2995 1.387 . S
H2994 C3001 0.950 . S
C2995 C2993 1.387 . S
C2995 C2997 1.390 . S
C2995 H2999 0.950 . S
H2996 C2992 0.950 . S
C2997 C2995 1.390 . S
C2997 C2998 1.387 . S
C2997 H3000 0.950 . S
C2998 C2997 1.387 . S
C2998 C3001 1.387 . S
H2999 C2995 0.950 . S
H3000 C2997 0.950 . S
C3001 C2992 1.390 . S
C3001 H2994 0.950 . S
C3001 C2998 1.387 . S
C3002 C3003 1.387 . S
C3002 H3006 0.950 . S
C3002 C3011 1.390 . S
C3003 C3002 1.387 . S
C3003 C3005 1.387 . S
H3004 C3011 0.950 . S
C3005 C3003 1.387 . S
C3005 C3007 1.390 . S
C3005 H3009 0.950 . S
H3006 C3002 0.950 . S
C3007 C3005 1.390 . S
C3007 C3008 1.387 . S
C3007 H3010 0.950 . S
C3008 C3007 1.387 . S
C3008 C3011 1.387 . S
H3009 C3005 0.950 . S
H3010 C3007 0.950 . S
C3011 C3002 1.390 . S
C3011 H3004 0.950 . S
C3011 C3008 1.387 . S
C3012 C3013 1.387 . S
C3012 H3016 0.950 . S
C3012 C3021 1.390 . S
C3013 C3012 1.387 . S
C3013 C3015 1.387 . S
H3014 C3021 0.950 . S
C3015 C3013 1.387 . S
C3015 C3017 1.390 . S
C3015 H3019 0.950 . S
H3016 C3012 0.950 . S
C3017 C3015 1.390 . S
C3017 C3018 1.387 . S
C3017 H3020 0.950 . S
C3018 C3017 1.387 . S
C3018 C3021 1.387 . S
H3019 C3015 0.950 . S
H3020 C3017 0.950 . S
C3021 C3012 1.390 . S
C3021 H3014 0.950 . S
C3021 C3018 1.387 . S
C3022 C3023 1.387 . S
C3022 H3026 0.950 . S
C3022 C3031 1.390 . S
C3023 C3022 1.387 . S
C3023 C3025 1.387 . S
H3024 C3031 0.950 . S
C3025 C3023 1.387 . S
C3025 C3027 1.390 . S
C3025 H3029 0.950 . S
H3026 C3022 0.950 . S
C3027 C3025 1.390 . S
C3027 C3028 1.387 . S
C3027 H3030 0.950 . S
C3028 C3027 1.387 . S
C3028 C3031 1.387 . S
H3029 C3025 0.950 . S
H3030 C3027 0.950 . S
C3031 C3022 1.390 . S
C3031 H3024 0.950 . S
C3031 C3028 1.387 . S
C3032 C3033 1.387 . S
C3032 H3036 0.950 . S
C3032 C3041 1.390 . S
C3033 C3032 1.387 . S
C3033 C3035 1.387 . S
H3034 C3041 0.950 . S
C3035 C3033 1.387 . S
C3035 C3037 1.390 . S
C3035 H3039 0.950 . S
H3036 C3032 0.950 . S
C3037 C3035 1.390 . S
C3037 C3038 1.387 . S
C3037 H3040 0.950 . S
C3038 C3037 1.387 . S
C3038 C3041 1.387 . S
H3039 C3035 0.950 . S
H3040 C3037 0.950 . S
C3041 C3032 1.390 . S
C3041 H3034 0.950 . S
C3041 C3038 1.387 . S
C3042 C3043 1.387 . S
C3042 H3046 0.950 . S
C3042 C3051 1.390 . S
C3043 C3042 1.387 . S
C3043 C3045 1.387 . S
H3044 C3051 0.950 . S
C3045 C3043 1.387 . S
C3045 C3047 1.390 . S
C3045 H3049 0.950 . S
H3046 C3042 0.950 . S
C3047 C3045 1.390 . S
C3047 C3048 1.387 . S
C3047 H3050 0.950 . S
C3048 C3047 1.387 . S
C3048 C3051 1.387 . S
H3049 C3045 0.950 . S
H3050 C3047 0.950 . S
C3051 C3042 1.390 . S
C3051 H3044 0.950 . S
C3051 C3048 1.387 . S
C3052 C3053 1.387 . S
C3052 H3056 0.950 . S
C3052 C3061 1.390 . S
C3053 C3052 1.387 . S
C3053 C3055 1.387 . S
H3054 C3061 0.950 . S
C3055 C3053 1.387 . S
C3055 C3057 1.390 . S
C3055 H3059 0.950 . S
H3056 C3052 0.950 . S
C3057 C3055 1.390 . S
C3057 C3058 1.387 . S
C3057 H3060 0.950 . S
C3058 C3057 1.387 . S
C3058 C3061 1.387 . S
H3059 C3055 0.950 . S
H3060 C3057 0.950 . S
C3061 C3052 1.390 . S
C3061 H3054 0.950 . S
C3061 C3058 1.387 . S
C3062 C3063 1.387 . S
C3062 H3066 0.950 . S
C3062 C3071 1.390 . S
C3063 C3062 1.387 . S
C3063 C3065 1.387 . S
H3064 C3071 0.950 . S
C3065 C3063 1.387 . S
C3065 C3067 1.390 . S
C3065 H3069 0.950 . S
H3066 C3062 0.950 . S
C3067 C3065 1.390 . S
C3067 C3068 1.387 . S
C3067 H3070 0.950 . S
C3068 C3067 1.387 . S
C3068 C3071 1.387 . S
H3069 C3065 0.950 . S
H3070 C3067 0.950 . S
C3071 C3062 1.390 . S
C3071 H3064 0.950 . S
C3071 C3068 1.387 . S
C3072 C3073 1.387 . S
C3072 H3076 0.950 . S
C3072 C3081 1.390 . S
C3073 C3072 1.387 . S
C3073 C3075 1.387 . S
H3074 C3081 0.950 . S
C3075 C3073 1.387 . S
C3075 C3077 1.390 . S
C3075 H3079 0.950 . S
H3076 C3072 0.950 . S
C3077 C3075 1.390 . S
C3077 C3078 1.387 . S
C3077 H3080 0.950 . S
C3078 C3077 1.387 . S
C3078 C3081 1.387 . S
H3079 C3075 0.950 . S
H3080 C3077 0.950 . S
C3081 C3072 1.390 . S
C3081 H3074 0.950 . S
C3081 C3078 1.387 . S
C3082 C3083 1.387 . S
C3082 H3086 0.950 . S
C3082 C3091 1.390 1_556 S
C3083 C3082 1.387 . S
C3083 C3085 1.387 . S
H3084 C3091 0.950 . S
C3085 C3083 1.387 . S
C3085 C3087 1.390 1_556 S
C3085 H3089 0.950 . S
H3086 C3082 0.950 . S
C3087 C3085 1.390 1_554 S
C3087 C3088 1.387 . S
C3087 H3090 0.950 . S
C3088 C3087 1.387 . S
C3088 C3091 1.387 . S
H3089 C3085 0.950 . S
H3090 C3087 0.950 . S
C3091 C3082 1.390 1_554 S
C3091 H3084 0.950 . S
C3091 C3088 1.387 . S
C3092 C3093 1.387 . S
C3092 H3096 0.950 . S
C3092 C3101 1.390 . S
C3093 C3092 1.387 . S
C3093 C3095 1.387 . S
H3094 C3101 0.950 . S
C3095 C3093 1.387 . S
C3095 C3097 1.390 . S
C3095 H3099 0.950 . S
H3096 C3092 0.950 . S
C3097 C3095 1.390 . S
C3097 C3098 1.387 . S
C3097 H3100 0.950 . S
C3098 C3097 1.387 . S
C3098 C3101 1.387 . S
H3099 C3095 0.950 . S
H3100 C3097 0.950 . S
C3101 C3092 1.390 . S
C3101 H3094 0.950 . S
C3101 C3098 1.387 . S
C3102 C3103 1.387 . S
C3102 H3106 0.950 . S
C3102 C3111 1.390 1_556 S
C3103 C3102 1.387 . S
C3103 C3105 1.387 . S
H3104 C3111 0.950 . S
C3105 C3103 1.387 . S
C3105 C3107 1.390 1_556 S
C3105 H3109 0.950 . S
H3106 C3102 0.950 . S
C3107 C3105 1.390 1_554 S
C3107 C3108 1.387 . S
C3107 H3110 0.950 . S
C3108 C3107 1.387 . S
C3108 C3111 1.387 . S
H3109 C3105 0.950 . S
H3110 C3107 0.950 . S
C3111 C3102 1.390 1_554 S
C3111 H3104 0.950 . S
C3111 C3108 1.387 . S
C3112 C3113 1.387 . S
C3112 H3116 0.950 . S
C3112 C3121 1.390 . S
C3113 C3112 1.387 . S
C3113 C3115 1.387 . S
H3114 C3121 0.950 . S
C3115 C3113 1.387 . S
C3115 C3117 1.390 . S
C3115 H3119 0.950 . S
H3116 C3112 0.950 . S
C3117 C3115 1.390 . S
C3117 C3118 1.387 . S
C3117 H3120 0.950 . S
C3118 C3117 1.387 . S
C3118 C3121 1.387 . S
H3119 C3115 0.950 . S
H3120 C3117 0.950 . S
C3121 C3112 1.390 . S
C3121 H3114 0.950 . S
C3121 C3118 1.387 . S
C3122 C3123 1.404 . S
C3122 H3126 0.966 . S
C3122 C3131 1.358 1_556 S
C3123 C3122 1.404 . S
C3123 C3125 1.387 . S
H3124 C3131 0.950 . S
C3125 C3123 1.387 . S
C3125 C3127 1.390 1_556 S
C3125 H3129 0.950 . S
H3126 C3122 0.966 . S
C3127 C3125 1.390 1_554 S
C3127 C3128 1.387 . S
C3127 H3130 0.950 . S
C3128 C3127 1.387 . S
C3128 C3131 1.387 . S
H3129 C3125 0.950 . S
H3130 C3127 0.950 . S
C3131 C3122 1.358 1_554 S
C3131 H3124 0.950 . S
C3131 C3128 1.387 . S
C3132 C3133 1.387 . S
C3132 H3136 0.950 . S
C3132 C3141 1.390 . S
C3133 C3132 1.387 . S
C3133 C3135 1.387 . S
H3134 C3141 0.950 . S
C3135 C3133 1.387 . S
C3135 C3137 1.390 . S
C3135 H3139 0.950 . S
H3136 C3132 0.950 . S
C3137 C3135 1.390 . S
C3137 C3138 1.387 . S
C3137 H3140 0.950 . S
C3138 C3137 1.387 . S
C3138 C3141 1.387 . S
H3139 C3135 0.950 . S
H3140 C3137 0.950 . S
C3141 C3132 1.390 . S
C3141 H3134 0.950 . S
C3141 C3138 1.387 . S
C3142 C3143 1.387 . S
C3142 H3146 0.950 . S
C3142 C3151 1.390 1_556 S
C3143 C3142 1.387 . S
C3143 C3145 1.387 . S
H3144 C3151 0.950 . S
C3145 C3143 1.387 . S
C3145 C3147 1.390 1_556 S
C3145 H3149 0.950 . S
H3146 C3142 0.950 . S
C3147 C3145 1.390 1_554 S
C3147 C3148 1.387 . S
C3147 H3150 0.950 . S
C3148 C3147 1.387 . S
C3148 C3151 1.387 . S
H3149 C3145 0.950 . S
H3150 C3147 0.950 . S
C3151 C3142 1.390 1_554 S
C3151 H3144 0.950 . S
C3151 C3148 1.387 . S
C3152 C3153 1.387 . S
C3152 H3156 0.950 . S
C3152 C3161 1.390 . S
C3153 C3152 1.387 . S
C3153 C3155 1.387 . S
H3154 C3161 0.950 . S
C3155 C3153 1.387 . S
C3155 C3157 1.390 . S
C3155 H3159 0.950 . S
H3156 C3152 0.950 . S
C3157 C3155 1.390 . S
C3157 C3158 1.387 . S
C3157 H3160 0.950 . S
C3158 C3157 1.387 . S
C3158 C3161 1.387 . S
H3159 C3155 0.950 . S
H3160 C3157 0.950 . S
C3161 C3152 1.390 . S
C3161 H3154 0.950 . S
C3161 C3158 1.387 . S
C3162 C3163 1.387 . S
C3162 H3166 0.950 . S
C3162 C3171 1.390 1_565 S
C3163 C3162 1.387 . S
C3163 C3165 1.387 . S
H3164 C3171 0.950 . S
C3165 C3163 1.387 . S
C3165 C3167 1.390 1_565 S
C3165 H3169 0.950 . S
H3166 C3162 0.950 . S
C3167 C3165 1.390 1_545 S
C3167 C3168 1.387 . S
C3167 H3170 0.950 . S
C3168 C3167 1.387 . S
C3168 C3171 1.387 . S
H3169 C3165 0.950 . S
H3170 C3167 0.950 . S
C3171 C3162 1.390 1_545 S
C3171 H3164 0.950 . S
C3171 C3168 1.387 . S
C3172 C3173 1.387 . S
C3172 H3176 0.950 . S
C3172 C3181 1.390 . S
C3173 C3172 1.387 . S
C3173 C3175 1.387 . S
H3174 C3181 0.950 . S
C3175 C3173 1.387 . S
C3175 C3177 1.390 . S
C3175 H3179 0.950 . S
H3176 C3172 0.950 . S
C3177 C3175 1.390 . S
C3177 C3178 1.387 . S
C3177 H3180 0.950 . S
C3178 C3177 1.387 . S
C3178 C3181 1.387 . S
H3179 C3175 0.950 . S
H3180 C3177 0.950 . S
C3181 C3172 1.390 . S
C3181 H3174 0.950 . S
C3181 C3178 1.387 . S
C3182 C3183 1.387 . S
C3182 H3186 0.950 . S
C3182 C3191 1.390 1_545 S
C3183 C3182 1.387 . S
C3183 C3185 1.387 . S
H3184 C3191 0.950 . S
C3185 C3183 1.387 . S
C3185 C3187 1.390 1_545 S
C3185 H3189 0.950 . S
H3186 C3182 0.950 . S
C3187 C3185 1.390 1_565 S
C3187 C3188 1.387 . S
C3187 H3190 0.950 . S
C3188 C3187 1.387 . S
C3188 C3191 1.387 . S
H3189 C3185 0.950 . S
H3190 C3187 0.950 . S
C3191 C3182 1.390 1_565 S
C3191 H3184 0.950 . S
C3191 C3188 1.387 . S
C3192 C3193 1.387 . S
C3192 H3196 0.950 . S
C3192 C3201 1.390 . S
C3193 C3192 1.387 . S
C3193 C3195 1.387 . S
H3194 C3201 0.950 . S
C3195 C3193 1.387 . S
C3195 C3197 1.390 . S
C3195 H3199 0.950 . S
H3196 C3192 0.950 . S
C3197 C3195 1.390 . S
C3197 C3198 1.387 . S
C3197 H3200 0.950 . S
C3198 C3197 1.387 . S
C3198 C3201 1.387 . S
H3199 C3195 0.950 . S
H3200 C3197 0.950 . S
C3201 C3192 1.390 . S
C3201 H3194 0.950 . S
C3201 C3198 1.387 . S
C3202 C3203 1.387 . S
C3202 H3206 0.950 . S
C3202 C3211 1.390 1_565 S
C3203 C3202 1.387 . S
C3203 C3205 1.387 . S
H3204 C3211 0.950 . S
C3205 C3203 1.387 . S
C3205 C3207 1.390 1_565 S
C3205 H3209 0.950 . S
H3206 C3202 0.950 . S
C3207 C3205 1.390 1_545 S
C3207 C3208 1.387 . S
C3207 H3210 0.950 . S
C3208 C3207 1.387 . S
C3208 C3211 1.387 . S
H3209 C3205 0.950 . S
H3210 C3207 0.950 . S
C3211 C3202 1.390 1_545 S
C3211 H3204 0.950 . S
C3211 C3208 1.387 . S
C3212 C3213 1.387 . S
C3212 H3216 0.950 . S
C3212 C3221 1.390 . S
C3213 C3212 1.387 . S
C3213 C3215 1.387 . S
H3214 C3221 0.950 . S
C3215 C3213 1.387 . S
C3215 C3217 1.390 . S
C3215 H3219 0.950 . S
H3216 C3212 0.950 . S
C3217 C3215 1.390 . S
C3217 C3218 1.387 . S
C3217 H3220 0.950 . S
C3218 C3217 1.387 . S
C3218 C3221 1.387 . S
H3219 C3215 0.950 . S
H3220 C3217 0.950 . S
C3221 C3212 1.390 . S
C3221 H3214 0.950 . S
C3221 C3218 1.387 . S
C3222 C3223 1.387 . S
C3222 H3226 0.950 . S
C3222 C3231 1.390 1_565 S
C3223 C3222 1.387 . S
C3223 C3225 1.387 . S
H3224 C3231 0.950 . S
C3225 C3223 1.387 . S
C3225 C3227 1.390 1_565 S
C3225 H3229 0.950 . S
H3226 C3222 0.950 . S
C3227 C3225 1.390 1_545 S
C3227 C3228 1.387 . S
C3227 H3230 0.950 . S
C3228 C3227 1.387 . S
C3228 C3231 1.387 . S
H3229 C3225 0.950 . S
H3230 C3227 0.950 . S
C3231 C3222 1.390 1_545 S
C3231 H3224 0.950 . S
C3231 C3228 1.387 . S
C3232 C3233 1.387 . S
C3232 H3236 0.950 . S
C3232 C3241 1.390 . S
C3233 C3232 1.387 . S
C3233 C3235 1.387 . S
H3234 C3241 0.950 . S
C3235 C3233 1.387 . S
C3235 C3237 1.390 . S
C3235 H3239 0.950 . S
H3236 C3232 0.950 . S
C3237 C3235 1.390 . S
C3237 C3238 1.387 . S
C3237 H3240 0.950 . S
C3238 C3237 1.387 . S
C3238 C3241 1.387 . S
H3239 C3235 0.950 . S
H3240 C3237 0.950 . S
C3241 C3232 1.390 . S
C3241 H3234 0.950 . S
C3241 C3238 1.387 . S
C3242 C3243 1.387 . S
C3242 H3246 0.950 . S
C3242 C3251 1.390 . S
C3243 C3242 1.387 . S
C3243 C3245 1.387 . S
H3244 C3251 0.950 . S
C3245 C3243 1.387 . S
C3245 C3247 1.390 . S
C3245 H3249 0.950 . S
H3246 C3242 0.950 . S
C3247 C3245 1.390 . S
C3247 C3248 1.387 . S
C3247 H3250 0.950 . S
C3248 C3247 1.387 . S
C3248 C3251 1.387 . S
H3249 C3245 0.950 . S
H3250 C3247 0.950 . S
C3251 C3242 1.390 . S
C3251 H3244 0.950 . S
C3251 C3248 1.387 . S
C3252 C3253 1.387 . S
C3252 H3256 0.950 . S
C3252 C3261 1.390 . S
C3253 C3252 1.387 . S
C3253 C3255 1.387 . S
H3254 C3261 0.950 1_655 S
C3255 C3253 1.387 . S
C3255 C3257 1.390 . S
C3255 H3259 0.950 . S
H3256 C3252 0.950 . S
C3257 C3255 1.390 . S
C3257 C3258 1.387 1_455 S
C3257 H3260 0.950 1_455 S
C3258 C3257 1.387 1_655 S
C3258 C3261 1.387 1_655 S
H3259 C3255 0.950 . S
H3260 C3257 0.950 1_655 S
C3261 C3252 1.390 . S
C3261 H3254 0.950 1_455 S
C3261 C3258 1.387 1_455 S
C3262 C3263 1.387 . S
C3262 H3266 0.950 . S
C3262 C3271 1.390 . S
C3263 C3262 1.387 . S
C3263 C3265 1.387 . S
H3264 C3271 0.950 . S
C3265 C3263 1.387 . S
C3265 C3267 1.390 . S
C3265 H3269 0.950 . S
H3266 C3262 0.950 . S
C3267 C3265 1.390 . S
C3267 C3268 1.387 . S
C3267 H3270 0.950 . S
C3268 C3267 1.387 . S
C3268 C3271 1.387 . S
H3269 C3265 0.950 . S
H3270 C3267 0.950 . S
C3271 C3262 1.390 . S
C3271 H3264 0.950 . S
C3271 C3268 1.387 . S
C3272 C3273 1.387 1_655 S
C3272 H3276 0.950 1_655 S
C3272 C3281 1.390 . S
C3273 C3272 1.387 1_455 S
C3273 C3275 1.387 1_455 S
H3274 C3281 0.950 . S
C3275 C3273 1.387 1_655 S
C3275 C3277 1.390 . S
C3275 H3279 0.950 1_655 S
H3276 C3272 0.950 1_455 S
C3277 C3275 1.390 . S
C3277 C3278 1.387 . S
C3277 H3280 0.950 . S
C3278 C3277 1.387 . S
C3278 C3281 1.387 . S
H3279 C3275 0.950 1_455 S
H3280 C3277 0.950 . S
C3281 C3272 1.390 . S
C3281 H3274 0.950 . S
C3281 C3278 1.387 . S
C3282 C3283 1.387 . S
C3282 H3286 0.950 . S
C3282 C3291 1.390 . S
C3283 C3282 1.387 . S
C3283 C3285 1.387 . S
H3284 C3291 0.950 . S
C3285 C3283 1.387 . S
C3285 C3287 1.390 . S
C3285 H3289 0.950 . S
H3286 C3282 0.950 . S
C3287 C3285 1.390 . S
C3287 C3288 1.387 . S
C3287 H3290 0.950 . S
C3288 C3287 1.387 . S
C3288 C3291 1.387 . S
H3289 C3285 0.950 . S
H3290 C3287 0.950 . S
C3291 C3282 1.390 . S
C3291 H3284 0.950 . S
C3291 C3288 1.387 . S
C3292 C3293 1.387 . S
C3292 H3296 0.950 . S
C3292 C3301 1.390 . S
C3293 C3292 1.387 . S
C3293 C3295 1.387 . S
H3294 C3301 0.950 1_455 S
C3295 C3293 1.387 . S
C3295 C3297 1.390 . S
C3295 H3299 0.950 . S
H3296 C3292 0.950 . S
C3297 C3295 1.390 . S
C3297 C3298 1.387 1_655 S
C3297 H3300 0.950 1_655 S
C3298 C3297 1.387 1_455 S
C3298 C3301 1.387 1_455 S
H3299 C3295 0.950 . S
H3300 C3297 0.950 1_455 S
C3301 C3292 1.390 . S
C3301 H3294 0.950 1_655 S
C3301 C3298 1.387 1_655 S
C3302 C3303 1.387 . S
C3302 H3306 0.950 . S
C3302 C3311 1.390 . S
C3303 C3302 1.387 . S
C3303 C3305 1.387 . S
H3304 C3311 0.950 1_655 S
C3305 C3303 1.387 . S
C3305 C3307 1.390 . S
C3305 H3309 0.950 . S
H3306 C3302 0.950 . S
C3307 C3305 1.390 . S
C3307 C3308 1.387 1_455 S
C3307 H3310 0.950 1_455 S
C3308 C3307 1.387 1_655 S
C3308 C3311 1.387 1_655 S
H3309 C3305 0.950 . S
H3310 C3307 0.950 1_655 S
C3311 C3302 1.390 . S
C3311 H3304 0.950 1_455 S
C3311 C3308 1.387 1_455 S
C3312 C3313 1.387 . S
C3312 H3316 0.950 . S
C3312 C3321 1.376 1_655 S
C3313 C3312 1.387 . S
C3313 C3315 1.387 . S
H3314 C3321 0.957 . S
C3315 C3313 1.387 . S
C3315 C3317 1.363 1_655 S
C3315 H3319 0.950 . S
H3316 C3312 0.950 . S
C3317 C3315 1.363 1_455 S
C3317 C3318 1.402 . S
C3317 H3320 0.963 . S
C3318 C3317 1.402 . S
C3318 C3321 1.395 . S
H3319 C3315 0.950 . S
H3320 C3317 0.963 . S
C3321 C3312 1.376 1_455 S
C3321 H3314 0.957 . S
C3321 C3318 1.395 . S
C3322 C3323 1.387 . S
C3322 H3326 0.950 . S
C3322 C3331 1.390 . S
C3323 C3322 1.387 . S
C3323 C3325 1.387 . S
H3324 C3331 0.950 . S
C3325 C3323 1.387 . S
C3325 C3327 1.390 . S
C3325 H3329 0.950 . S
H3326 C3322 0.950 . S
C3327 C3325 1.390 . S
C3327 C3328 1.387 . S
C3327 H3330 0.950 . S
C3328 C3327 1.387 . S
C3328 C3331 1.387 . S
H3329 C3325 0.950 . S
H3330 C3327 0.950 . S
C3331 C3322 1.390 . S
C3331 H3324 0.950 . S
C3331 C3328 1.387 . S
C3332 C3333 1.387 . S
C3332 H3336 0.950 . S
C3332 C3341 1.390 1_455 S
C3333 C3332 1.387 . S
C3333 C3335 1.387 . S
H3334 C3341 0.950 . S
C3335 C3333 1.387 . S
C3335 C3337 1.390 1_455 S
C3335 H3339 0.950 . S
H3336 C3332 0.950 . S
C3337 C3335 1.390 1_655 S
C3337 C3338 1.387 . S
C3337 H3340 0.950 . S
C3338 C3337 1.387 . S
C3338 C3341 1.387 . S
H3339 C3335 0.950 . S
H3340 C3337 0.950 . S
C3341 C3332 1.390 1_655 S
C3341 H3334 0.950 . S
C3341 C3338 1.387 . S
C3342 C3343 1.387 . S
C3342 H3346 0.950 . S
C3342 C3351 1.390 . S
C3343 C3342 1.387 . S
C3343 C3345 1.387 . S
H3344 C3351 0.950 . S
C3345 C3343 1.387 . S
C3345 C3347 1.390 . S
C3345 H3349 0.950 . S
H3346 C3342 0.950 . S
C3347 C3345 1.390 . S
C3347 C3348 1.387 . S
C3347 H3350 0.950 . S
C3348 C3347 1.387 . S
C3348 C3351 1.387 . S
H3349 C3345 0.950 . S
H3350 C3347 0.950 . S
C3351 C3342 1.390 . S
C3351 H3344 0.950 . S
C3351 C3348 1.387 . S
C3352 C3353 1.387 1_455 S
C3352 H3356 0.950 1_455 S
C3352 C3361 1.390 . S
C3353 C3352 1.387 1_655 S
C3353 C3355 1.387 1_655 S
H3354 C3361 0.950 . S
C3355 C3353 1.387 1_455 S
C3355 C3357 1.390 . S
C3355 H3359 0.950 1_455 S
H3356 C3352 0.950 1_655 S
C3357 C3355 1.390 . S
C3357 C3358 1.387 . S
C3357 H3360 0.950 . S
C3358 C3357 1.387 . S
C3358 C3361 1.387 . S
H3359 C3355 0.950 1_655 S
H3360 C3357 0.950 . S
C3361 C3352 1.390 . S
C3361 H3354 0.950 . S
C3361 C3358 1.387 . S
C3362 C3363 1.387 . S
C3362 H3366 0.950 . S
C3362 C3371 1.390 . S
C3363 C3362 1.387 . S
C3363 C3365 1.387 . S
H3364 C3371 0.950 . S
C3365 C3363 1.387 . S
C3365 C3367 1.390 . S
C3365 H3369 0.950 . S
H3366 C3362 0.950 . S
C3367 C3365 1.390 . S
C3367 C3368 1.387 . S
C3367 H3370 0.950 . S
C3368 C3367 1.387 . S
C3368 C3371 1.387 . S
H3369 C3365 0.950 . S
H3370 C3367 0.950 . S
C3371 C3362 1.390 . S
C3371 H3364 0.950 . S
C3371 C3368 1.387 . S
C3372 C3373 1.387 . S
C3372 H3376 0.950 . S
C3372 C3381 1.390 1_655 S
C3373 C3372 1.387 . S
C3373 C3375 1.387 . S
H3374 C3381 0.950 . S
C3375 C3373 1.387 . S
C3375 C3377 1.390 1_655 S
C3375 H3379 0.950 . S
H3376 C3372 0.950 . S
C3377 C3375 1.390 1_455 S
C3377 C3378 1.387 . S
C3377 H3380 0.950 . S
C3378 C3377 1.387 . S
C3378 C3381 1.387 . S
H3379 C3375 0.950 . S
H3380 C3377 0.950 . S
C3381 C3372 1.390 1_455 S
C3381 H3374 0.950 . S
C3381 C3378 1.387 . S
C3382 C3383 1.387 . S
C3382 H3386 0.950 . S
C3382 C3391 1.390 . S
C3383 C3382 1.387 . S
C3383 C3385 1.387 . S
H3384 C3391 0.950 . S
C3385 C3383 1.387 . S
C3385 C3387 1.390 . S
C3385 H3389 0.950 . S
H3386 C3382 0.950 . S
C3387 C3385 1.390 . S
C3387 C3388 1.387 . S
C3387 H3390 0.950 . S
C3388 C3387 1.387 . S
C3388 C3391 1.387 . S
H3389 C3385 0.950 . S
H3390 C3387 0.950 . S
C3391 C3382 1.390 . S
C3391 H3384 0.950 . S
C3391 C3388 1.387 . S
C3392 C3393 1.387 . S
C3392 H3396 0.950 . S
C3392 C3401 1.390 1_545 S
C3393 C3392 1.387 . S
C3393 C3395 1.387 . S
H3394 C3401 0.950 . S
C3395 C3393 1.387 . S
C3395 C3397 1.390 1_545 S
C3395 H3399 0.950 . S
H3396 C3392 0.950 . S
C3397 C3395 1.390 1_565 S
C3397 C3398 1.387 . S
C3397 H3400 0.950 . S
C3398 C3397 1.387 . S
C3398 C3401 1.387 . S
H3399 C3395 0.950 . S
H3400 C3397 0.950 . S
C3401 C3392 1.390 1_565 S
C3401 H3394 0.950 . S
C3401 C3398 1.387 . S
C3402 C3403 1.387 . S
C3402 H3406 0.950 . S
C3402 C3411 1.390 . S
C3403 C3402 1.387 . S
C3403 C3405 1.387 . S
H3404 C3411 0.950 . S
C3405 C3403 1.387 . S
C3405 C3407 1.390 . S
C3405 H3409 0.950 . S
H3406 C3402 0.950 . S
C3407 C3405 1.390 . S
C3407 C3408 1.387 . S
C3407 H3410 0.950 . S
C3408 C3407 1.387 . S
C3408 C3411 1.387 . S
H3409 C3405 0.950 . S
H3410 C3407 0.950 . S
C3411 C3402 1.390 . S
C3411 H3404 0.950 . S
C3411 C3408 1.387 . S
C3412 C3413 1.387 . S
C3412 H3416 0.950 . S
C3412 C3421 1.390 1_545 S
C3413 C3412 1.387 . S
C3413 C3415 1.387 . S
H3414 C3421 0.950 . S
C3415 C3413 1.387 . S
C3415 C3417 1.390 1_545 S
C3415 H3419 0.950 . S
H3416 C3412 0.950 . S
C3417 C3415 1.390 1_565 S
C3417 C3418 1.387 . S
C3417 H3420 0.950 . S
C3418 C3417 1.387 . S
C3418 C3421 1.387 . S
H3419 C3415 0.950 . S
H3420 C3417 0.950 . S
C3421 C3412 1.390 1_565 S
C3421 H3414 0.950 . S
C3421 C3418 1.387 . S
C3422 C3423 1.387 . S
C3422 H3426 0.950 . S
C3422 C3431 1.390 . S
C3423 C3422 1.387 . S
C3423 C3425 1.387 . S
H3424 C3431 0.950 . S
C3425 C3423 1.387 . S
C3425 C3427 1.390 . S
C3425 H3429 0.950 . S
H3426 C3422 0.950 . S
C3427 C3425 1.390 . S
C3427 C3428 1.387 . S
C3427 H3430 0.950 . S
C3428 C3427 1.387 . S
C3428 C3431 1.387 . S
H3429 C3425 0.950 . S
H3430 C3427 0.950 . S
C3431 C3422 1.390 . S
C3431 H3424 0.950 . S
C3431 C3428 1.387 . S
C3432 C3433 1.387 . S
C3432 H3436 0.950 . S
C3432 C3441 1.390 1_545 S
C3433 C3432 1.387 . S
C3433 C3435 1.387 . S
H3434 C3441 0.950 . S
C3435 C3433 1.387 . S
C3435 C3437 1.390 1_545 S
C3435 H3439 0.950 . S
H3436 C3432 0.950 . S
C3437 C3435 1.390 1_565 S
C3437 C3438 1.387 . S
C3437 H3440 0.950 . S
C3438 C3437 1.387 . S
C3438 C3441 1.387 . S
H3439 C3435 0.950 . S
H3440 C3437 0.950 . S
C3441 C3432 1.390 1_565 S
C3441 H3434 0.950 . S
C3441 C3438 1.387 . S
C3442 C3443 1.387 . S
C3442 H3446 0.950 . S
C3442 C3451 1.390 . S
C3443 C3442 1.387 . S
C3443 C3445 1.387 . S
H3444 C3451 0.950 . S
C3445 C3443 1.387 . S
C3445 C3447 1.390 . S
C3445 H3449 0.950 . S
H3446 C3442 0.950 . S
C3447 C3445 1.390 . S
C3447 C3448 1.387 . S
C3447 H3450 0.950 . S
C3448 C3447 1.387 . S
C3448 C3451 1.387 . S
H3449 C3445 0.950 . S
H3450 C3447 0.950 . S
C3451 C3442 1.390 . S
C3451 H3444 0.950 . S
C3451 C3448 1.387 . S
C3452 C3453 1.387 . S
C3452 H3456 0.950 . S
C3452 C3461 1.390 1_545 S
C3453 C3452 1.387 . S
C3453 C3455 1.387 . S
H3454 C3461 0.950 . S
C3455 C3453 1.387 . S
C3455 C3457 1.390 1_545 S
C3455 H3459 0.950 . S
H3456 C3452 0.950 . S
C3457 C3455 1.390 1_565 S
C3457 C3458 1.387 . S
C3457 H3460 0.950 . S
C3458 C3457 1.387 . S
C3458 C3461 1.387 . S
H3459 C3455 0.950 . S
H3460 C3457 0.950 . S
C3461 C3452 1.390 1_565 S
C3461 H3454 0.950 . S
C3461 C3458 1.387 . S
C3462 C3463 1.387 . S
C3462 H3466 0.950 . S
C3462 C3471 1.390 . S
C3463 C3462 1.387 . S
C3463 C3465 1.387 . S
H3464 C3471 0.950 . S
C3465 C3463 1.387 . S
C3465 C3467 1.390 . S
C3465 H3469 0.950 . S
H3466 C3462 0.950 . S
C3467 C3465 1.390 . S
C3467 C3468 1.387 . S
C3467 H3470 0.950 . S
C3468 C3467 1.387 . S
C3468 C3471 1.387 . S
H3469 C3465 0.950 . S
H3470 C3467 0.950 . S
C3471 C3462 1.390 . S
C3471 H3464 0.950 . S
C3471 C3468 1.387 . S
C3472 C3473 1.387 . S
C3472 H3476 0.950 . S
C3472 C3481 1.390 1_556 S
C3473 C3472 1.387 . S
C3473 C3475 1.387 . S
H3474 C3481 0.950 . S
C3475 C3473 1.387 . S
C3475 C3477 1.390 1_556 S
C3475 H3479 0.950 . S
H3476 C3472 0.950 . S
C3477 C3475 1.390 1_554 S
C3477 C3478 1.387 . S
C3477 H3480 0.950 . S
C3478 C3477 1.387 . S
C3478 C3481 1.387 . S
H3479 C3475 0.950 . S
H3480 C3477 0.950 . S
C3481 C3472 1.390 1_554 S
C3481 H3474 0.950 . S
C3481 C3478 1.387 . S
C3482 C3483 1.387 . S
C3482 H3486 0.950 . S
C3482 C3491 1.390 1_556 S
C3483 C3482 1.387 . S
C3483 C3485 1.387 . S
H3484 C3491 0.950 . S
C3485 C3483 1.387 . S
C3485 C3487 1.390 1_556 S
C3485 H3489 0.950 . S
H3486 C3482 0.950 . S
C3487 C3485 1.390 1_554 S
C3487 C3488 1.387 . S
C3487 H3490 0.950 . S
C3488 C3487 1.387 . S
C3488 C3491 1.387 . S
H3489 C3485 0.950 . S
H3490 C3487 0.950 . S
C3491 C3482 1.390 1_554 S
C3491 H3484 0.950 . S
C3491 C3488 1.387 . S
C3492 C3493 1.387 . S
C3492 H3496 0.950 . S
C3492 C3501 1.390 . S
C3493 C3492 1.387 . S
C3493 C3495 1.387 . S
H3494 C3501 0.950 . S
C3495 C3493 1.387 . S
C3495 C3497 1.390 . S
C3495 H3499 0.950 . S
H3496 C3492 0.950 . S
C3497 C3495 1.390 . S
C3497 C3498 1.387 . S
C3497 H3500 0.950 . S
C3498 C3497 1.387 . S
C3498 C3501 1.387 . S
H3499 C3495 0.950 . S
H3500 C3497 0.950 . S
C3501 C3492 1.390 . S
C3501 H3494 0.950 . S
C3501 C3498 1.387 . S
C3502 C3503 1.387 1_554 S
C3502 H3506 0.959 . S
C3502 C3511 1.390 . S
C3503 C3502 1.387 1_556 S
C3503 C3505 1.387 1_556 S
H3504 C3511 0.950 . S
C3505 C3503 1.387 1_554 S
C3505 C3507 1.390 . S
C3505 H3509 0.950 1_554 S
H3506 C3502 0.959 . S
C3507 C3505 1.390 . S
C3507 C3508 1.387 . S
C3507 H3510 0.950 . S
C3508 C3507 1.387 . S
C3508 C3511 1.387 . S
H3509 C3505 0.950 1_556 S
H3510 C3507 0.950 . S
C3511 C3502 1.390 . S
C3511 H3504 0.950 . S
C3511 C3508 1.387 . S
C3512 C3513 1.387 . S
C3512 H3516 0.950 . S
C3512 C3521 1.390 . S
C3513 C3512 1.387 . S
C3513 C3515 1.387 . S
H3514 C3521 0.950 . S
C3515 C3513 1.387 . S
C3515 C3517 1.390 . S
C3515 H3519 0.950 . S
H3516 C3512 0.950 . S
C3517 C3515 1.390 . S
C3517 C3518 1.387 . S
C3517 H3520 0.950 . S
C3518 C3517 1.387 . S
C3518 C3521 1.387 . S
H3519 C3515 0.950 . S
H3520 C3517 0.950 . S
C3521 C3512 1.390 . S
C3521 H3514 0.950 . S
C3521 C3518 1.387 . S
C3522 C3523 1.387 . S
C3522 H3526 0.950 . S
C3522 C3531 1.390 1_556 S
C3523 C3522 1.387 . S
C3523 C3525 1.387 . S
H3524 C3531 0.950 . S
C3525 C3523 1.387 . S
C3525 C3527 1.390 1_556 S
C3525 H3529 0.950 . S
H3526 C3522 0.950 . S
C3527 C3525 1.390 1_554 S
C3527 C3528 1.387 . S
C3527 H3530 0.950 . S
C3528 C3527 1.387 . S
C3528 C3531 1.387 . S
H3529 C3525 0.950 . S
H3530 C3527 0.950 . S
C3531 C3522 1.390 1_554 S
C3531 H3524 0.950 . S
C3531 C3528 1.387 . S
C3532 C3533 1.387 . S
C3532 H3536 0.950 . S
C3532 C3541 1.390 . S
C3533 C3532 1.387 . S
C3533 C3535 1.387 . S
H3534 C3541 0.950 . S
C3535 C3533 1.387 . S
C3535 C3537 1.390 . S
C3535 H3539 0.950 . S
H3536 C3532 0.950 . S
C3537 C3535 1.390 . S
C3537 C3538 1.387 . S
C3537 H3540 0.950 . S
C3538 C3537 1.387 . S
C3538 C3541 1.387 . S
H3539 C3535 0.950 . S
H3540 C3537 0.950 . S
C3541 C3532 1.390 . S
C3541 H3534 0.950 . S
C3541 C3538 1.387 . S
C3542 C3543 1.387 . S
C3542 H3546 0.950 . S
C3542 C3551 1.390 . S
C3543 C3542 1.387 . S
C3543 C3545 1.387 . S
H3544 C3551 0.950 . S
C3545 C3543 1.387 . S
C3545 C3547 1.390 . S
C3545 H3549 0.950 . S
H3546 C3542 0.950 . S
C3547 C3545 1.390 . S
C3547 C3548 1.387 . S
C3547 H3550 0.950 . S
C3548 C3547 1.387 . S
C3548 C3551 1.387 . S
H3549 C3545 0.950 . S
H3550 C3547 0.950 . S
C3551 C3542 1.390 . S
C3551 H3544 0.950 . S
C3551 C3548 1.387 . S
C3552 C3553 1.387 . S
C3552 H3556 0.950 . S
C3552 C3561 1.390 . S
C3553 C3552 1.387 . S
C3553 C3555 1.387 . S
H3554 C3561 0.950 . S
C3555 C3553 1.387 . S
C3555 C3557 1.390 . S
C3555 H3559 0.950 . S
H3556 C3552 0.950 . S
C3557 C3555 1.390 . S
C3557 C3558 1.387 . S
C3557 H3560 0.950 . S
C3558 C3557 1.387 . S
C3558 C3561 1.387 . S
H3559 C3555 0.950 . S
H3560 C3557 0.950 . S
C3561 C3552 1.390 . S
C3561 H3554 0.950 . S
C3561 C3558 1.387 . S
C3562 C3563 1.387 . S
C3562 H3566 0.950 . S
C3562 C3571 1.390 . S
C3563 C3562 1.387 . S
C3563 C3565 1.387 . S
H3564 C3571 0.950 . S
C3565 C3563 1.387 . S
C3565 C3567 1.390 . S
C3565 H3569 0.950 . S
H3566 C3562 0.950 . S
C3567 C3565 1.390 . S
C3567 C3568 1.387 . S
C3567 H3570 0.950 . S
C3568 C3567 1.387 . S
C3568 C3571 1.387 . S
H3569 C3565 0.950 . S
H3570 C3567 0.950 . S
C3571 C3562 1.390 . S
C3571 H3564 0.950 . S
C3571 C3568 1.387 . S
C3572 C3573 1.387 . S
C3572 H3576 0.950 . S
C3572 C3581 1.390 . S
C3573 C3572 1.387 . S
C3573 C3575 1.387 . S
H3574 C3581 0.950 . S
C3575 C3573 1.387 . S
C3575 C3577 1.390 . S
C3575 H3579 0.950 . S
H3576 C3572 0.950 . S
C3577 C3575 1.390 . S
C3577 C3578 1.387 . S
C3577 H3580 0.950 . S
C3578 C3577 1.387 . S
C3578 C3581 1.387 . S
H3579 C3575 0.950 . S
H3580 C3577 0.950 . S
C3581 C3572 1.390 . S
C3581 H3574 0.950 . S
C3581 C3578 1.387 . S
C3582 C3583 1.387 . S
C3582 H3586 0.950 . S
C3582 C3591 1.390 . S
C3583 C3582 1.387 . S
C3583 C3585 1.387 . S
H3584 C3591 0.950 . S
C3585 C3583 1.387 . S
C3585 C3587 1.390 . S
C3585 H3589 0.950 . S
H3586 C3582 0.950 . S
C3587 C3585 1.390 . S
C3587 C3588 1.387 . S
C3587 H3590 0.950 . S
C3588 C3587 1.387 . S
C3588 C3591 1.387 . S
H3589 C3585 0.950 . S
H3590 C3587 0.950 . S
C3591 C3582 1.390 . S
C3591 H3584 0.950 . S
C3591 C3588 1.387 . S
C3592 C3593 1.387 . S
C3592 H3596 0.950 . S
C3592 C3601 1.390 . S
C3593 C3592 1.387 . S
C3593 C3595 1.387 . S
H3594 C3601 0.950 . S
C3595 C3593 1.387 . S
C3595 C3597 1.390 . S
C3595 H3599 0.950 . S
H3596 C3592 0.950 . S
C3597 C3595 1.390 . S
C3597 C3598 1.387 . S
C3597 H3600 0.950 . S
C3598 C3597 1.387 . S
C3598 C3601 1.387 . S
H3599 C3595 0.950 . S
H3600 C3597 0.950 . S
C3601 C3592 1.390 . S
C3601 H3594 0.950 . S
C3601 C3598 1.387 . S
C3602 C3603 1.387 . S
C3602 H3606 0.950 . S
C3602 C3611 1.390 . S
C3603 C3602 1.387 . S
C3603 C3605 1.387 . S
H3604 C3611 0.950 . S
C3605 C3603 1.387 . S
C3605 C3607 1.390 . S
C3605 H3609 0.950 . S
H3606 C3602 0.950 . S
C3607 C3605 1.390 . S
C3607 C3608 1.387 . S
C3607 H3610 0.950 . S
C3608 C3607 1.387 . S
C3608 C3611 1.387 . S
H3609 C3605 0.950 . S
H3610 C3607 0.950 . S
C3611 C3602 1.390 . S
C3611 H3604 0.950 . S
C3611 C3608 1.387 . S
C3612 C3613 1.387 . S
C3612 H3616 0.950 . S
C3612 C3621 1.390 . S
C3613 C3612 1.387 . S
C3613 C3615 1.387 . S
H3614 C3621 0.950 . S
C3615 C3613 1.387 . S
C3615 C3617 1.390 . S
C3615 H3619 0.950 . S
H3616 C3612 0.950 . S
C3617 C3615 1.390 . S
C3617 C3618 1.387 . S
C3617 H3620 0.950 . S
C3618 C3617 1.387 . S
C3618 C3621 1.387 . S
H3619 C3615 0.950 . S
H3620 C3617 0.950 . S
C3621 C3612 1.390 . S
C3621 H3614 0.950 . S
C3621 C3618 1.387 . S
C3622 C3623 1.387 . S
C3622 H3626 0.950 . S
C3622 C3631 1.390 . S
C3623 C3622 1.387 . S
C3623 C3625 1.387 . S
H3624 C3631 0.950 . S
C3625 C3623 1.387 . S
C3625 C3627 1.390 . S
C3625 H3629 0.950 . S
H3626 C3622 0.950 . S
C3627 C3625 1.390 . S
C3627 C3628 1.387 . S
C3627 H3630 0.950 . S
C3628 C3627 1.387 . S
C3628 C3631 1.387 . S
H3629 C3625 0.950 . S
H3630 C3627 0.950 . S
C3631 C3622 1.390 . S
C3631 H3624 0.950 . S
C3631 C3628 1.387 . S
C3632 C3633 1.387 . S
C3632 H3636 0.950 . S
C3632 C3641 1.390 . S
C3633 C3632 1.387 . S
C3633 C3635 1.387 . S
H3634 C3641 0.950 . S
C3635 C3633 1.387 . S
C3635 C3637 1.390 . S
C3635 H3639 0.950 . S
H3636 C3632 0.950 . S
C3637 C3635 1.390 . S
C3637 C3638 1.387 . S
C3637 H3640 0.950 . S
C3638 C3637 1.387 . S
C3638 C3641 1.387 . S
H3639 C3635 0.950 . S
H3640 C3637 0.950 . S
C3641 C3632 1.390 . S
C3641 H3634 0.950 . S
C3641 C3638 1.387 . S
C3642 C3643 1.387 . S
C3642 H3646 0.950 . S
C3642 C3651 1.390 . S
C3643 C3642 1.387 . S
C3643 C3645 1.387 . S
H3644 C3651 0.950 . S
C3645 C3643 1.387 . S
C3645 C3647 1.390 . S
C3645 H3649 0.950 . S
H3646 C3642 0.950 . S
C3647 C3645 1.390 . S
C3647 C3648 1.387 . S
C3647 H3650 0.950 . S
C3648 C3647 1.387 . S
C3648 C3651 1.387 . S
H3649 C3645 0.950 . S
H3650 C3647 0.950 . S
C3651 C3642 1.390 . S
C3651 H3644 0.950 . S
C3651 C3648 1.387 . S
C3652 C3653 1.387 . S
C3652 H3656 0.950 . S
C3652 C3661 1.390 . S
C3653 C3652 1.387 . S
C3653 C3655 1.387 . S
H3654 C3661 0.950 . S
C3655 C3653 1.387 . S
C3655 C3657 1.390 . S
C3655 H3659 0.950 . S
H3656 C3652 0.950 . S
C3657 C3655 1.390 . S
C3657 C3658 1.387 . S
C3657 H3660 0.950 . S
C3658 C3657 1.387 . S
C3658 C3661 1.387 . S
H3659 C3655 0.950 . S
H3660 C3657 0.950 . S
C3661 C3652 1.390 . S
C3661 H3654 0.950 . S
C3661 C3658 1.387 . S
C3662 C3663 1.387 . S
C3662 H3666 0.950 . S
C3662 C3671 1.390 . S
C3663 C3662 1.387 . S
C3663 C3665 1.387 . S
H3664 C3671 0.950 . S
C3665 C3663 1.387 . S
C3665 C3667 1.390 . S
C3665 H3669 0.950 . S
H3666 C3662 0.950 . S
C3667 C3665 1.390 . S
C3667 C3668 1.387 . S
C3667 H3670 0.950 . S
C3668 C3667 1.387 . S
C3668 C3671 1.387 . S
H3669 C3665 0.950 . S
H3670 C3667 0.950 . S
C3671 C3662 1.390 . S
C3671 H3664 0.950 . S
C3671 C3668 1.387 . S
C3672 C3673 1.387 . S
C3672 H3676 0.950 . S
C3672 C3681 1.390 . S
C3673 C3672 1.387 . S
C3673 C3675 1.387 . S
H3674 C3681 0.950 . S
C3675 C3673 1.387 . S
C3675 C3677 1.390 . S
C3675 H3679 0.950 . S
H3676 C3672 0.950 . S
C3677 C3675 1.390 . S
C3677 C3678 1.387 . S
C3677 H3680 0.950 . S
C3678 C3677 1.387 . S
C3678 C3681 1.387 . S
H3679 C3675 0.950 . S
H3680 C3677 0.950 . S
C3681 C3672 1.390 . S
C3681 H3674 0.950 . S
C3681 C3678 1.387 . S
C3682 C3683 1.387 . S
C3682 H3686 0.950 . S
C3682 C3691 1.390 . S
C3683 C3682 1.387 . S
C3683 C3685 1.387 . S
H3684 C3691 0.950 . S
C3685 C3683 1.387 . S
C3685 C3687 1.390 . S
C3685 H3689 0.950 . S
H3686 C3682 0.950 . S
C3687 C3685 1.390 . S
C3687 C3688 1.387 . S
C3687 H3690 0.950 . S
C3688 C3687 1.387 . S
C3688 C3691 1.387 . S
H3689 C3685 0.950 . S
H3690 C3687 0.950 . S
C3691 C3682 1.390 . S
C3691 H3684 0.950 . S
C3691 C3688 1.387 . S
C3692 C3693 1.387 . S
C3692 H3696 0.950 . S
C3692 C3701 1.390 . S
C3693 C3692 1.387 . S
C3693 C3695 1.387 . S
H3694 C3701 0.950 . S
C3695 C3693 1.387 . S
C3695 C3697 1.390 . S
C3695 H3699 0.950 . S
H3696 C3692 0.950 . S
C3697 C3695 1.390 . S
C3697 C3698 1.387 . S
C3697 H3700 0.950 . S
C3698 C3697 1.387 . S
C3698 C3701 1.387 . S
H3699 C3695 0.950 . S
H3700 C3697 0.950 . S
C3701 C3692 1.390 . S
C3701 H3694 0.950 . S
C3701 C3698 1.387 . S
C3702 C3703 1.387 . S
C3702 H3706 0.950 . S
C3702 C3711 1.390 . S
C3703 C3702 1.387 . S
C3703 C3705 1.387 . S
H3704 C3711 0.950 . S
C3705 C3703 1.387 . S
C3705 C3707 1.390 . S
C3705 H3709 0.950 . S
H3706 C3702 0.950 . S
C3707 C3705 1.390 . S
C3707 C3708 1.387 . S
C3707 H3710 0.950 . S
C3708 C3707 1.387 . S
C3708 C3711 1.387 . S
H3709 C3705 0.950 . S
H3710 C3707 0.950 . S
C3711 C3702 1.390 . S
C3711 H3704 0.950 . S
C3711 C3708 1.387 . S
C3712 C3713 1.387 . S
C3712 H3716 0.950 . S
C3712 C3721 1.390 . S
C3713 C3712 1.387 . S
C3713 C3715 1.387 . S
H3714 C3721 0.950 . S
C3715 C3713 1.387 . S
C3715 C3717 1.390 . S
C3715 H3719 0.950 . S
H3716 C3712 0.950 . S
C3717 C3715 1.390 . S
C3717 C3718 1.387 . S
C3717 H3720 0.950 . S
C3718 C3717 1.387 . S
C3718 C3721 1.387 . S
H3719 C3715 0.950 . S
H3720 C3717 0.950 . S
C3721 C3712 1.390 . S
C3721 H3714 0.950 . S
C3721 C3718 1.387 . S
C3722 C3723 1.387 . S
C3722 H3726 0.950 . S
C3722 C3731 1.390 . S
C3723 C3722 1.387 . S
C3723 C3725 1.387 . S
H3724 C3731 0.950 . S
C3725 C3723 1.387 . S
C3725 C3727 1.390 . S
C3725 H3729 0.950 . S
H3726 C3722 0.950 . S
C3727 C3725 1.390 . S
C3727 C3728 1.387 . S
C3727 H3730 0.950 . S
C3728 C3727 1.387 . S
C3728 C3731 1.387 . S
H3729 C3725 0.950 . S
H3730 C3727 0.950 . S
C3731 C3722 1.390 . S
C3731 H3724 0.950 . S
C3731 C3728 1.387 . S
C3732 C3733 1.387 . S
C3732 H3736 0.950 . S
C3732 C3741 1.390 . S
C3733 C3732 1.387 . S
C3733 C3735 1.387 . S
H3734 C3741 0.950 . S
C3735 C3733 1.387 . S
C3735 C3737 1.390 . S
C3735 H3739 0.950 . S
H3736 C3732 0.950 . S
C3737 C3735 1.390 . S
C3737 C3738 1.387 . S
C3737 H3740 0.950 . S
C3738 C3737 1.387 . S
C3738 C3741 1.387 . S
H3739 C3735 0.950 . S
H3740 C3737 0.950 . S
C3741 C3732 1.390 . S
C3741 H3734 0.950 . S
C3741 C3738 1.387 . S
C3742 C3743 1.387 . S
C3742 H3746 0.950 . S
C3742 C3751 1.390 . S
C3743 C3742 1.387 . S
C3743 C3745 1.387 . S
H3744 C3751 0.950 . S
C3745 C3743 1.387 . S
C3745 C3747 1.390 . S
C3745 H3749 0.950 . S
H3746 C3742 0.950 . S
C3747 C3745 1.390 . S
C3747 C3748 1.387 . S
C3747 H3750 0.950 . S
C3748 C3747 1.387 . S
C3748 C3751 1.387 . S
H3749 C3745 0.950 . S
H3750 C3747 0.950 . S
C3751 C3742 1.390 . S
C3751 H3744 0.950 . S
C3751 C3748 1.387 . S
C3752 C3753 1.387 . S
C3752 H3756 0.950 . S
C3752 C3761 1.390 . S
C3753 C3752 1.387 . S
C3753 C3755 1.387 . S
H3754 C3761 0.950 . S
C3755 C3753 1.387 . S
C3755 C3757 1.390 . S
C3755 H3759 0.950 . S
H3756 C3752 0.950 . S
C3757 C3755 1.390 . S
C3757 C3758 1.387 . S
C3757 H3760 0.950 . S
C3758 C3757 1.387 . S
C3758 C3761 1.387 . S
H3759 C3755 0.950 . S
H3760 C3757 0.950 . S
C3761 C3752 1.390 . S
C3761 H3754 0.950 . S
C3761 C3758 1.387 . S
C3762 C3763 1.387 . S
C3762 H3766 0.950 . S
C3762 C3771 1.390 . S
C3763 C3762 1.387 . S
C3763 C3765 1.387 . S
H3764 C3771 0.950 . S
C3765 C3763 1.387 . S
C3765 C3767 1.390 . S
C3765 H3769 0.950 . S
H3766 C3762 0.950 . S
C3767 C3765 1.390 . S
C3767 C3768 1.387 . S
C3767 H3770 0.950 . S
C3768 C3767 1.387 . S
C3768 C3771 1.387 . S
H3769 C3765 0.950 . S
H3770 C3767 0.950 . S
C3771 C3762 1.390 . S
C3771 H3764 0.950 . S
C3771 C3768 1.387 . S
C3772 C3773 1.387 . S
C3772 H3776 0.950 . S
C3772 C3781 1.390 . S
C3773 C3772 1.387 . S
C3773 C3775 1.387 . S
H3774 C3781 0.950 . S
C3775 C3773 1.387 . S
C3775 C3777 1.390 . S
C3775 H3779 0.950 . S
H3776 C3772 0.950 . S
C3777 C3775 1.390 . S
C3777 C3778 1.387 . S
C3777 H3780 0.950 . S
C3778 C3777 1.387 . S
C3778 C3781 1.387 . S
H3779 C3775 0.950 . S
H3780 C3777 0.950 . S
C3781 C3772 1.390 . S
C3781 H3774 0.950 . S
C3781 C3778 1.387 . S
C3782 C3783 1.387 . S
C3782 H3786 0.950 . S
C3782 C3791 1.390 . S
C3783 C3782 1.387 . S
C3783 C3785 1.387 . S
H3784 C3791 0.950 . S
C3785 C3783 1.387 . S
C3785 C3787 1.390 . S
C3785 H3789 0.950 . S
H3786 C3782 0.950 . S
C3787 C3785 1.390 . S
C3787 C3788 1.387 . S
C3787 H3790 0.950 . S
C3788 C3787 1.387 . S
C3788 C3791 1.387 . S
H3789 C3785 0.950 . S
H3790 C3787 0.950 . S
C3791 C3782 1.390 . S
C3791 H3784 0.950 . S
C3791 C3788 1.387 . S
C2833 C1183 1.778 . S
C2838 C5 1.752 . S
C2843 C92 1.862 . S
C2848 C1036 1.868 . S
C2853 C123 1.867 . S
C2858 C1095 1.869 . S
C2863 C1154 1.932 . S
C2868 C210 1.944 . S
C2873 C1390 1.914 . S
C2878 C288 1.937 . S
C2883 C298 1.890 . S
C2888 C1272 1.890 . S
C2893 C406 1.780 . S
C2898 C1301 1.797 . S
C2903 C416 1.767 . S
C2908 C947 1.768 . S
C2913 C475 1.775 . S
C2918 C890 1.769 . S
C2923 C583 1.832 . S
C2928 C741 1.846 . S
C2933 C593 1.704 . S
C2938 C772 1.695 . S
C2943 C859 1.878 . S
C2948 C701 1.870 . S
C2953 C1468 1.952 . S
C2958 C2629 1.974 . S
C2963 C2422 1.606 . S
C2968 C1478 1.607 . S
C2973 C1586 1.910 . S
C2978 C2481 1.917 . S
C2983 C2570 1.842 . S
C2988 C1596 1.815 . S
C2993 C1657 1.678 . S
C2998 C2776 1.656 . S
C3003 C2658 1.875 . S
C3008 C1744 1.900 . S
C3013 C1775 1.565 . S
C3018 C2717 1.534 . S
C3023 C2393 1.982 . S
C3028 C1862 1.992 . S
C3033 C1921 1.885 . S
C3038 C2353 1.855 . S
C3043 C2127 1.743 . S
C3048 C1952 1.767 . S
C3053 C2235 1.803 . S
C3058 C2039 1.836 . S
C3063 C2245 1.779 . S
C3068 C2070 1.802 . S
C3073 C1539 1.363 . S
C3078 C52 1.359 . S
C3083 C62 1.308 . S
C3088 C1626 1.321 . S
C3093 C170 1.350 . S
C3098 C1421 1.369 . S
C3103 C180 1.474 . S
C3108 C1508 1.452 . S
C3113 C241 1.515 . S
C3118 C1822 1.471 . S
C3123 C1832 1.361 . S
C3128 C328 1.368 . S
C3133 C1704 1.354 . S
C3138 C359 1.377 . S
C3143 C1714 1.351 . S
C3148 C446 1.376 . S
C3153 C2157 1.470 . S
C3158 C505 1.481 . S
C3163 C536 1.271 . S
C3168 C2188 1.274 . S
C3173 C2275 1.459 . S
C3178 C623 1.469 . S
C3183 C654 1.256 . S
C3188 C2306 1.259 . S
C3193 C711 1.293 . S
C3198 C1891 1.294 . S
C3203 C819 1.429 . S
C3208 C1999 1.417 . S
C3213 C2009 1.301 . S
C3218 C829 1.301 . S
C3223 C2117 1.421 . S
C3228 C937 1.434 . S
C3233 C977 1.431 . S
C3238 C2540 1.400 . S
C3243 C1006 1.360 . S
C3248 C2688 1.370 . S
C3253 C2747 1.474 . S
C3258 C1065 1.460 . S
C3263 C2363 1.224 . S
C3268 C1124 1.199 . S
C3273 C1213 1.452 . S
C3278 C2806 1.436 . S
C3283 C2452 1.500 . S
C3288 C1242 1.497 . S
C3293 C1331 1.473 . S
C3298 C2511 1.470 . S
C3303 C1360 1.200 . S
C3308 C2599 1.215 . S
C3313 C1655 1.773 . S
C3318 C33 1.794 . S
C3323 C1763 1.838 . S
C3328 C64 1.799 . S
C3333 C1773 1.858 . S
C3338 C151 1.896 . S
C3343 C182 1.811 . S
C3348 C1881 1.857 . S
C3353 C1449 1.873 . S
C3358 C239 1.824 . S
C3363 C1480 1.849 . S
C3368 C347 1.886 . S
C3373 C357 1.751 . S
C3378 C1567 1.809 . S
C3383 C1598 1.817 . S
C3388 C465 1.827 . S
C3393 C524 1.796 . S
C3398 C2247 1.772 . S
C3403 C534 1.846 . S
C3408 C2334 1.895 . S
C3413 C2129 1.783 . S
C3418 C642 1.810 . S
C3423 C652 1.879 . S
C3428 C2216 1.912 . S
C3433 C2058 1.917 . S
C3438 C713 1.874 . S
C3443 C800 1.779 . S
C3448 C2068 1.760 . S
C3453 C831 1.867 . S
C3458 C1940 1.911 . S
C3463 C918 1.794 . S
C3468 C1950 1.773 . S
C3473 C2660 1.806 . S
C3478 C996 1.805 . S
C3483 C1008 1.921 . S
C3488 C2589 1.956 . S
C3493 C1067 1.846 . S
C3498 C2648 1.870 . S
C3503 C1126 1.748 . S
C3508 C2424 1.761 . S
C3513 C2483 1.779 . S
C3518 C1232 1.790 . S
C3523 C2412 1.874 . S
C3528 C1244 1.860 . S
C3533 C2778 1.924 . S
C3538 C1350 1.967 . S
C3543 C1362 1.767 . S
C3548 C2719 1.784 . S
C3553 C888 1.643 . S
C3558 C3 1.627 . S
C3563 C111 1.551 . S
C3568 C760 1.537 . S
C3573 C770 1.633 . S
C3578 C121 1.595 . S
C3583 C878 1.517 . S
C3588 C229 1.535 . S
C3593 C564 1.513 . S
C3598 C269 1.523 . S
C3603 C300 1.629 . S
C3608 C595 1.646 . S
C3613 C387 1.563 . S
C3618 C682 1.550 . S
C3623 C477 1.628 . S
C3628 C418 1.614 . S
C3633 C949 1.587 . S
C3638 C1185 1.600 . S
C3643 C1409 1.661 . S
C3648 C1055 1.690 . S
C3653 C1291 1.415 . S
C3658 C1114 1.411 . S
C3663 C1173 1.695 . S
C3668 C1303 1.687 . S
C3673 C2304 1.564 . S
C3678 C1419 1.566 . S
C3683 C2176 1.582 . S
C3688 C1527 1.583 . S
C3693 C1537 1.638 . S
C3698 C2186 1.614 . S
C3703 C2294 1.554 . S
C3708 C1645 1.552 . S
C3713 C1980 1.549 . S
C3718 C1685 1.553 . S
C3723 C1716 1.615 . S
C3728 C2011 1.622 . S
C3733 C1803 1.566 . S
C3738 C2098 1.578 . S
C3743 C1834 1.578 . S
C3748 C1893 1.585 . S
C3753 C2365 1.606 . S
C3758 C2601 1.613 . S
C3763 C2825 1.648 . S
C3768 C2471 1.670 . S
C3773 C2707 1.524 . S
C3778 C2530 1.518 . S
C3783 C2766 1.742 . S
C3788 C2542 1.691 . S
