# Generated by pormake.
# Topology ecf, (8)-cn, num edge types: 1
# Building blocks:
#     Node 0, Type 0, BuildingBlock: LIZSOE_clean_sbu_0, # of connection points: 8
#     Node 1, Type 0, BuildingBlock: LIZSOE_clean_sbu_0, # of connection points: 8
#     Node 2, Type 0, BuildingBlock: LIZSOE_clean_sbu_0, # of connection points: 8
#     Node 3, Type 0, BuildingBlock: LIZSOE_clean_sbu_0, # of connection points: 8
#     Node 4, Type 0, BuildingBlock: LIZSOE_clean_sbu_0, # of connection points: 8
#     Node 5, Type 0, BuildingBlock: LIZSOE_clean_sbu_0, # of connection points: 8
#     Edge 6, Type (0, 0), BuildingBlock: ZUJKAS_clean_linker_0, # of connection points: 2
#     Edge 7, Type (0, 0), BuildingBlock: ZUJKAS_clean_linker_0, # of connection points: 2
#     Edge 8, Type (0, 0), BuildingBlock: ZUJKAS_clean_linker_0, # of connection points: 2
#     Edge 9, Type (0, 0), BuildingBlock: ZUJKAS_clean_linker_0, # of connection points: 2
#     Edge 10, Type (0, 0), BuildingBlock: ZUJKAS_clean_linker_0, # of connection points: 2
#     Edge 11, Type (0, 0), BuildingBlock: ZUJKAS_clean_linker_0, # of connection points: 2
#     Edge 12, Type (0, 0), BuildingBlock: ZUJKAS_clean_linker_0, # of connection points: 2
#     Edge 13, Type (0, 0), BuildingBlock: ZUJKAS_clean_linker_0, # of connection points: 2
#     Edge 14, Type (0, 0), BuildingBlock: ZUJKAS_clean_linker_0, # of connection points: 2
#     Edge 15, Type (0, 0), BuildingBlock: ZUJKAS_clean_linker_0, # of connection points: 2
#     Edge 16, Type (0, 0), BuildingBlock: ZUJKAS_clean_linker_0, # of connection points: 2
#     Edge 17, Type (0, 0), BuildingBlock: ZUJKAS_clean_linker_0, # of connection points: 2
#     Edge 18, Type (0, 0), BuildingBlock: ZUJKAS_clean_linker_0, # of connection points: 2
#     Edge 19, Type (0, 0), BuildingBlock: ZUJKAS_clean_linker_0, # of connection points: 2
#     Edge 20, Type (0, 0), BuildingBlock: ZUJKAS_clean_linker_0, # of connection points: 2
#     Edge 21, Type (0, 0), BuildingBlock: ZUJKAS_clean_linker_0, # of connection points: 2
#     Edge 22, Type (0, 0), BuildingBlock: ZUJKAS_clean_linker_0, # of connection points: 2
#     Edge 23, Type (0, 0), BuildingBlock: ZUJKAS_clean_linker_0, # of connection points: 2
#     Edge 24, Type (0, 0), BuildingBlock: ZUJKAS_clean_linker_0, # of connection points: 2
#     Edge 25, Type (0, 0), BuildingBlock: ZUJKAS_clean_linker_0, # of connection points: 2
#     Edge 26, Type (0, 0), BuildingBlock: ZUJKAS_clean_linker_0, # of connection points: 2
#     Edge 27, Type (0, 0), BuildingBlock: ZUJKAS_clean_linker_0, # of connection points: 2
#     Edge 28, Type (0, 0), BuildingBlock: ZUJKAS_clean_linker_0, # of connection points: 2
#     Edge 29, Type (0, 0), BuildingBlock: ZUJKAS_clean_linker_0, # of connection points: 2
# Relax obj value: 0.277
# Max RMSD: 0.202
# Mean RMSD: 0.199
data_MOF--net-ecf--node1-LIZSOE_clean_sbu_0--edge1-ZUJKAS_clean_linker_0
_symmetry_space_group_name_H-M    P1
_symmetry_Int_Tables_number       1
_symmetry_cell_setting            triclinic
loop_
_symmetry_equiv_pos_as_xyz
'x, y, z'
_cell_length_a     46.54019
_cell_length_b     46.431657
_cell_length_c     28.477746
_cell_angle_alpha  90.074992
_cell_angle_beta   90.004761
_cell_angle_gamma 120.06033
loop_
_atom_site_label
_atom_site_type_symbol
_atom_site_fract_x
_atom_site_fract_y
_atom_site_fract_z
_atom_type_partial_charge
Co0 Co 0.11127 0.27365 0.25972 0.0
N1 N 0.07531 0.24252 0.22478 0.0
C2 C 0.07242 0.21343 0.21064 0.0
N3 N 0.02868 0.21393 0.18231 0.0
C4 C 0.04788 0.24198 0.20729 0.0
C5 C 0.0442 0.19611 0.18444 0.0
Co6 Co 0.26745 0.39197 0.27267 0.0
N7 N 0.30502 0.43033 0.29434 0.0
N8 N 0.3492 0.48116 0.30711 0.0
C9 C 0.35037 0.45976 0.33768 0.0
C10 C 0.3237 0.42875 0.3294 0.0
C11 C 0.3215 0.46275 0.28088 0.0
Co12 Co 0.18921 0.33256 0.27124 0.0
C13 C 0.25003 0.37124 0.20851 0.0
H14 H 0.31875 0.40618 0.3472 0.0
O15 O 0.1426 0.30354 0.29631 0.0
O16 O 0.18817 0.37387 0.28912 0.0
O17 O 0.1738 0.33674 0.20631 0.0
O18 O 0.19076 0.29238 0.25226 0.0
O19 O 0.13881 0.26038 0.22784 0.0
O20 O 0.24144 0.4127 0.27874 0.0
O21 O 0.23563 0.35784 0.24824 0.0
O22 O 0.25641 0.37585 0.33506 0.0
O23 O 0.1192 0.30454 0.21314 0.0
O24 O 0.08899 0.28878 0.29217 0.0
O25 O 0.20604 0.32996 0.33494 0.0
O26 O 0.27464 0.40187 0.21012 0.0
C27 C 0.14432 0.32679 0.19195 0.0
C28 C 0.31076 0.47641 0.24117 0.0
H29 H 0.28366 0.46163 0.23527 0.0
H30 H 0.31797 0.50272 0.2481 0.0
H31 H 0.32328 0.47551 0.20851 0.0
C32 C 0.21131 0.40433 0.28679 0.0
C33 C 0.16893 0.26748 0.22947 0.0
H34 H 0.0893 0.20471 0.2199 0.0
H35 H 0.02897 0.26593 0.25152 0.0
H36 H 0.02037 0.26674 0.18996 0.0
H37 H 0.06145 0.29373 0.21284 0.0
C38 C 0.03923 0.26868 0.21559 0.0
C39 C 0.1178 0.30686 0.31202 0.0
C40 C 0.23323 0.35037 0.35561 0.0
H41 H 0.03446 0.17112 0.17086 0.0
H42 H 0.36989 0.46596 0.36319 0.0
Co43 Co 0.84913 0.10666 0.76995 0.0
N44 N 0.82422 0.06049 0.77218 0.0
C45 C 0.79069 0.04227 0.77149 0.0
N46 N 0.80818 1.00626 0.77607 0.0
C47 C 0.83419 0.03776 0.7747 0.0
C48 C 0.78082 1.00899 0.7737 0.0
Co49 Co 0.87005 0.25948 0.77247 0.0
N50 N 0.89272 0.30628 0.77517 0.0
N51 N 0.90167 0.35887 0.77841 0.0
C52 C 0.92952 0.35902 0.7919 0.0
C53 C 0.92412 0.32701 0.78951 0.0
C54 C 0.87978 0.32646 0.76796 0.0
Co55 Co 0.85949 0.18294 0.77357 0.0
C56 C 0.82654 0.22274 0.80148 0.0
H57 H 0.94169 0.31926 0.79921 0.0
O58 O 0.87477 0.14964 0.77077 0.0
O59 O 0.89529 0.20935 0.82077 0.0
O60 O 0.8276 0.15783 0.82772 0.0
O61 O 0.82387 0.15695 0.72525 0.0
O62 O 0.81983 0.1068 0.72637 0.0
O63 O 0.8973 0.25854 0.8221 0.0
O64 O 0.84451 0.21621 0.77282 0.0
O65 O 0.90139 0.26038 0.72664 0.0
O66 O 0.82316 0.108 0.81889 0.0
O67 O 0.87974 0.11111 0.81174 0.0
O68 O 0.89202 0.208 0.72121 0.0
O69 O 0.83849 0.2536 0.81443 0.0
C70 C 0.81575 0.12731 0.84019 0.0
C71 C 0.84461 0.31364 0.75257 0.0
H72 H 0.83244 0.32352 0.77589 0.0
H73 H 0.84447 0.32224 0.71633 0.0
H74 H 0.83027 0.2861 0.75215 0.0
C75 C 0.90675 0.2388 0.83707 0.0
C76 C 0.81103 0.12682 0.71104 0.0
H77 H 0.77439 0.05255 0.76985 0.0
H78 H 0.88492 0.06988 0.75359 0.0
H79 H 0.87254 0.0262 0.75789 0.0
H80 H 0.87946 0.05057 0.81026 0.0
C81 C 0.86988 0.04659 0.77374 0.0
C82 C 0.89133 0.14221 0.80064 0.0
C83 C 0.90751 0.23871 0.70834 0.0
H84 H 0.75553 0.9884 0.77464 0.0
H85 H 0.95211 0.38077 0.80365 0.0
Co86 Co 0.75977 0.85148 0.29156 0.0
N87 N 0.79808 0.85245 0.273 0.0
C88 C 0.82788 0.87542 0.29031 0.0
N89 N 0.83738 0.84335 0.24389 0.0
C90 C 0.80466 0.83281 0.24493 0.0
C91 C 0.85207 0.8699 0.27247 0.0
Co92 Co 0.63808 0.88349 0.26383 0.0
N93 N 0.59955 0.88434 0.27845 0.0
N94 N 0.54908 0.87854 0.28852 0.0
C95 C 0.57101 0.90498 0.31356 0.0
C96 C 0.60184 0.90874 0.30681 0.0
C97 C 0.56687 0.86652 0.26699 0.0
Co98 Co 0.6966 0.86405 0.27703 0.0
C99 C 0.66236 0.88557 0.20342 0.0
H100 H 0.62477 0.92828 0.32166 0.0
O101 O 0.72218 0.8465 0.31298 0.0
O102 O 0.65402 0.82222 0.29193 0.0
O103 O 0.69841 0.84344 0.21548 0.0
O104 O 0.73787 0.90562 0.26043 0.0
O105 O 0.77989 0.89751 0.27918 0.0
O106 O 0.61624 0.83633 0.27105 0.0
O107 O 0.67347 0.88498 0.24532 0.0
O108 O 0.64994 0.88972 0.32839 0.0
O109 O 0.7448 0.84254 0.22935 0.0
O110 O 0.73786 0.80846 0.3044 0.0
O111 O 0.695 0.88493 0.33764 0.0
O112 O 0.63186 0.87957 0.20071 0.0
C113 C 0.72183 0.83873 0.20178 0.0
C114 C 0.55208 0.83685 0.23519 0.0
H115 H 0.57139 0.83584 0.2138 0.0
H116 H 0.539 0.81404 0.25689 0.0
H117 H 0.53346 0.83742 0.21152 0.0
C118 C 0.62403 0.8147 0.2835 0.0
C119 C 0.76867 0.9158 0.26461 0.0
H120 H 0.83164 0.8947 0.31505 0.0
H121 H 0.78257 0.78045 0.23275 0.0
H122 H 0.78346 0.80383 0.1827 0.0
H123 H 0.75336 0.79494 0.22848 0.0
C124 C 0.77917 0.80137 0.22116 0.0
C125 C 0.71713 0.81653 0.32214 0.0
C126 C 0.67385 0.8924 0.3534 0.0
H127 H 0.87837 0.88395 0.28025 0.0
H128 H 0.5651 0.92071 0.33475 0.0
Co129 Co 0.92526 0.7518 0.75971 0.0
N130 N 0.97181 0.77679 0.75738 0.0
C131 C 0.98871 0.77925 0.71765 0.0
N132 N 0.02609 0.81398 0.76793 0.0
C133 C 0.99542 0.79832 0.78773 0.0
C134 C 0.02174 0.80191 0.72397 0.0
Co135 Co 0.77503 0.61675 0.77456 0.0
N136 N 0.72845 0.59188 0.77963 0.0
N137 N 0.67625 0.54776 0.78347 0.0
C138 C 0.67479 0.57602 0.78531 0.0
C139 C 0.70669 0.60292 0.78305 0.0
C140 C 0.70916 0.55817 0.77948 0.0
Co141 Co 0.85099 0.68369 0.7699 0.0
C142 C 0.81318 0.61183 0.80295 0.0
H143 H 0.71354 0.62888 0.78348 0.0
O144 O 0.88264 0.73208 0.76342 0.0
O145 O 0.82652 0.69347 0.81956 0.0
O146 O 0.87971 0.68018 0.8217 0.0
O147 O 0.87555 0.67363 0.72006 0.0
O148 O 0.92572 0.71965 0.72165 0.0
O149 O 0.77671 0.64713 0.82196 0.0
O150 O 0.81854 0.63517 0.77273 0.0
O151 O 0.7719 0.64468 0.727 0.0
O152 O 0.92736 0.72865 0.81224 0.0
O153 O 0.91991 0.78024 0.79629 0.0
O154 O 0.82323 0.68872 0.71929 0.0
O155 O 0.78288 0.59325 0.81799 0.0
C156 C 0.90974 0.70146 0.83401 0.0
C157 C 0.72295 0.53549 0.77183 0.0
H158 H 0.72815 0.52804 0.80638 0.0
H159 H 0.70491 0.51269 0.75264 0.0
H160 H 0.74654 0.54847 0.75179 0.0
C161 C 0.79724 0.67643 0.8365 0.0
C162 C 0.90591 0.69043 0.70708 0.0
H163 H 0.97749 0.76668 0.68502 0.0
H164 H 0.98026 0.82563 0.83167 0.0
H165 H 1.00976 0.81674 0.85879 0.0
H166 H 0.96712 0.7842 0.85206 0.0
C167 C 0.98779 0.80655 0.83543 0.0
C168 C 0.88896 0.75789 0.78896 0.0
C169 C 0.79242 0.67235 0.70751 0.0
H170 H 0.04089 0.81039 0.69735 0.0
H171 H 0.6522 0.57716 0.78853 0.0
Co172 Co 0.14869 0.76423 0.26433 0.0
N173 N 0.14807 0.72504 0.2811 0.0
C174 C 0.12526 0.70389 0.31198 0.0
N175 N 0.15424 0.68038 0.29122 0.0
C176 C 0.1652 0.70966 0.26828 0.0
C177 C 0.12928 0.67692 0.31874 0.0
Co178 Co 0.18206 0.91978 0.28368 0.0
N179 N 0.18177 0.95736 0.26343 0.0
N180 N 0.19034 1.00545 0.23304 0.0
C181 C 0.16455 0.99416 0.26278 0.0
C182 C 0.1594 0.96474 0.28139 0.0
C183 C 0.20072 0.98304 0.23415 0.0
Co184 Co 0.16833 0.84287 0.27388 0.0
C185 C 0.21593 0.91177 0.31702 0.0
H186 H 0.14066 0.94967 0.30695 0.0
O187 O 0.14765 0.79804 0.24388 0.0
O188 O 0.18943 0.86388 0.21225 0.0
O189 O 0.20976 0.84228 0.29109 0.0
O190 O 0.14682 0.82143 0.33493 0.0
O191 O 0.1406 0.77062 0.32742 0.0
O192 O 0.19223 0.9127 0.22238 0.0
O193 O 0.18599 0.88702 0.30731 0.0
O194 O 0.13675 0.89426 0.26873 0.0
O195 O 0.1949 0.78939 0.27551 0.0
O196 O 0.15479 0.76168 0.2018 0.0
O197 O 0.12731 0.84285 0.2546 0.0
O198 O 0.22461 0.94068 0.29888 0.0
C199 C 0.2166 0.81894 0.28709 0.0
C200 C 0.23115 0.98793 0.20893 0.0
H201 H 0.23938 0.97062 0.22103 0.0
H202 H 0.22599 0.98458 0.17071 0.0
H203 H 0.25166 0.01388 0.21417 0.0
C204 C 0.19536 0.89209 0.19677 0.0
C205 C 0.13851 0.79266 0.35144 0.0
H206 H 0.10634 0.70758 0.3282 0.0
H207 H 0.18217 0.70993 0.19857 0.0
H208 H 0.21237 0.71791 0.2434 0.0
H209 H 0.20298 0.74992 0.22659 0.0
C210 C 0.19242 0.72294 0.2324 0.0
C211 C 0.14838 0.78603 0.20271 0.0
C212 C 0.11815 0.86447 0.2552 0.0
H213 H 0.11443 0.65584 0.34132 0.0
H214 H 0.15056 1.00649 0.27051 0.0
Co215 Co 0.27664 0.17209 0.76847 0.0
N216 N 0.24984 0.19132 0.76597 0.0
C217 C 0.24377 0.20178 0.72493 0.0
N218 N 0.21124 0.20624 0.77694 0.0
C219 C 0.22949 0.19431 0.7973 0.0
C220 C 0.2202 0.21086 0.73151 0.0
Co221 Co 0.41605 0.16494 0.77325 0.0
N222 N 0.442 0.14423 0.77522 0.0
N223 N 0.4864 0.13675 0.77854 0.0
C224 C 0.45846 0.10688 0.78166 0.0
C225 C 0.43141 0.11147 0.77907 0.0
C226 C 0.47567 0.15903 0.77435 0.0
Co227 Co 0.34726 0.17077 0.77506 0.0
C228 C 0.42007 0.20707 0.80439 0.0
H229 H 0.40563 0.09211 0.78021 0.0
O230 O 0.29826 0.15105 0.77262 0.0
O231 O 0.34103 0.13808 0.82494 0.0
O232 O 0.35075 0.20341 0.82645 0.0
O233 O 0.35398 0.20404 0.72455 0.0
O234 O 0.30577 0.20366 0.72661 0.0
O235 O 0.38732 0.13491 0.82067 0.0
O236 O 0.39636 0.18929 0.77436 0.0
O237 O 0.38809 0.13413 0.72559 0.0
O238 O 0.30128 0.20049 0.8182 0.0
O239 O 0.25111 0.13977 0.80878 0.0
O240 O 0.34172 0.13759 0.72461 0.0
O241 O 0.43934 0.19562 0.81723 0.0
C242 C 0.3291 0.21164 0.83883 0.0
C243 C 0.49793 0.19607 0.77245 0.0
H244 H 0.50408 0.20586 0.80884 0.0
H245 H 0.52149 0.20321 0.75404 0.0
H246 H 0.48517 0.20778 0.75457 0.0
C247 C 0.3589 0.12593 0.83838 0.0
C248 C 0.33487 0.21476 0.71086 0.0
H249 H 0.25428 0.20083 0.69152 0.0
H250 H 0.20667 0.15511 0.8476 0.0
H251 H 0.21495 0.19492 0.86919 0.0
H252 H 0.24852 0.18631 0.86218 0.0
C253 C 0.22482 0.18219 0.84704 0.0
C254 C 0.2741 0.13219 0.80114 0.0
C255 C 0.35914 0.12514 0.70932 0.0
H256 H 0.20874 0.21806 0.70437 0.0
H257 H 0.45769 0.08331 0.78557 0.0
H258 H 0.25364 0.46885 0.31073 0.0
H259 H 0.24286 0.51506 0.31086 0.0
H260 H 0.14095 0.4481 0.27181 0.0
H261 H 0.15142 0.4013 0.27273 0.0
H262 H 0.22499 0.53914 0.23833 0.0
H263 H 0.1295 0.49886 0.37815 0.0
H264 H 0.15388 0.47901 0.36881 0.0
H265 H 0.11888 0.46911 0.33159 0.0
C266 C 0.22879 0.4638 0.30268 0.0
C267 C 0.20337 0.43136 0.29169 0.0
C268 C 0.22269 0.49032 0.30268 0.0
C269 C 0.19107 0.48514 0.29158 0.0
C270 C 0.1654 0.45266 0.28138 0.0
H271 H 0.15719 0.64882 0.213 0.0
H272 H 0.16697 0.60151 0.21022 0.0
C273 C 0.17141 0.42593 0.28185 0.0
C274 C 0.18577 0.51415 0.28899 0.0
H275 H 0.14043 0.54681 0.33483 0.0
C276 C 0.20649 0.54083 0.25946 0.0
C277 C 0.16184 0.51649 0.31682 0.0
C278 C 0.13995 0.48951 0.35097 0.0
C279 C 0.20417 0.56983 0.25729 0.0
C280 C 0.17988 0.57194 0.28454 0.0
C281 C 0.15896 0.54514 0.31376 0.0
C282 C 0.1764 0.6021 0.28483 0.0
C283 C 0.22847 0.5983 0.22697 0.0
C284 C 0.1783 0.61811 0.32753 0.0
C285 C 0.17252 0.64485 0.32903 0.0
C286 C 0.16503 0.65635 0.28788 0.0
C287 C 0.16393 0.64099 0.24491 0.0
C288 C 0.1694 0.61393 0.24341 0.0
H289 H 0.25079 0.59637 0.2188 0.0
H290 H 0.21631 0.59787 0.19325 0.0
H291 H 0.23659 0.62262 0.24432 0.0
H292 H 0.18361 0.60948 0.35994 0.0
H293 H 0.17309 0.65616 0.36256 0.0
H294 H 0.53664 0.16831 0.71576 0.0
H295 H 0.59311 0.17691 0.7216 0.0
H296 H 0.56776 0.12447 0.85357 0.0
H297 H 0.51147 0.11635 0.84788 0.0
H298 H 0.64122 0.20987 0.79012 0.0
H299 H 0.60833 0.07754 0.78064 0.0
H300 H 0.5795 0.09128 0.76506 0.0
H301 H 0.58672 0.08623 0.82571 0.0
C302 C 0.54338 0.15923 0.7464 0.0
C303 C 0.51993 0.14247 0.78202 0.0
C304 C 0.57554 0.16379 0.74951 0.0
C305 C 0.58483 0.15109 0.78783 0.0
C306 C 0.56125 0.13405 0.82323 0.0
H307 H 0.78834 0.22013 0.87538 0.0
H308 H 0.72846 0.19897 0.87387 0.0
C309 C 0.52914 0.12962 0.82018 0.0
C310 C 0.6194 0.15664 0.79144 0.0
H311 H 0.66439 0.11672 0.80045 0.0
C312 C 0.6462 0.18945 0.7923 0.0
C313 C 0.62617 0.13008 0.79378 0.0
C314 C 0.59873 0.09428 0.79082 0.0
C315 C 0.67926 0.19643 0.79629 0.0
C316 C 0.68599 0.16992 0.80008 0.0
C317 C 0.6593 0.13706 0.79822 0.0
C318 C 0.72075 0.17635 0.8052 0.0
C319 C 0.70687 0.23226 0.79581 0.0
C320 C 0.73614 0.16875 0.76855 0.0
C321 C 0.77051 0.1806 0.76957 0.0
C322 C 0.79012 0.20011 0.80741 0.0
C323 C 0.77401 0.205 0.84586 0.0
C324 C 0.73977 0.19321 0.84482 0.0
H325 H 0.69832 0.24914 0.78223 0.0
H326 H 0.71613 0.24014 0.83214 0.0
H327 H 0.72795 0.23529 0.77391 0.0
H328 H 0.72204 0.15573 0.73761 0.0
H329 H 0.78202 0.17716 0.73874 0.0
H330 H 0.37411 0.5252 0.37778 0.0
H331 H 0.42118 0.58226 0.3743 0.0
H332 H 0.42905 0.57174 0.2251 0.0
H333 H 0.38224 0.51436 0.22882 0.0
H334 H 0.49016 0.59717 0.27598 0.0
H335 H 0.42405 0.66571 0.31844 0.0
H336 H 0.4166 0.63288 0.35862 0.0
H337 H 0.40266 0.62295 0.29886 0.0
C338 C 0.38562 0.53537 0.34419 0.0
C339 C 0.37418 0.51575 0.30342 0.0
C340 C 0.41241 0.56789 0.3422 0.0
C341 C 0.42835 0.58136 0.29936 0.0
C342 C 0.41688 0.56188 0.25844 0.0
H343 H 0.56784 0.78447 0.2313 0.0
H344 H 0.52172 0.72767 0.23725 0.0
C345 C 0.38993 0.52932 0.26043 0.0
C346 C 0.45778 0.61531 0.29774 0.0
H347 H 0.4828 0.69714 0.317 0.0
C348 C 0.48861 0.61908 0.28487 0.0
C349 C 0.4556 0.64379 0.30925 0.0
C350 C 0.42293 0.64133 0.3217 0.0
C351 C 0.5174 0.65063 0.28336 0.0
C352 C 0.51529 0.67905 0.29549 0.0
C353 C 0.48442 0.67525 0.30822 0.0
C354 C 0.54419 0.71326 0.29199 0.0
C355 C 0.54968 0.65343 0.26773 0.0
C356 C 0.57237 0.7241 0.32069 0.0
C357 C 0.59881 0.757 0.31772 0.0
C358 C 0.59716 0.77953 0.28641 0.0
C359 C 0.56925 0.76821 0.25714 0.0
C360 C 0.543 0.73558 0.26009 0.0
H361 H 0.54582 0.63014 0.25093 0.0
H362 H 0.56274 0.67428 0.24255 0.0
H363 H 0.56605 0.65865 0.29869 0.0
H364 H 0.57367 0.70734 0.34587 0.0
H365 H 0.62013 0.76497 0.34051 0.0
H366 H 0.87274 0.37913 0.71269 0.0
H367 H 0.86361 0.42667 0.7181 0.0
H368 H 0.91147 0.45186 0.85349 0.0
H369 H 0.91983 0.40382 0.84867 0.0
H370 H 0.82817 0.44023 0.78607 0.0
H371 H 0.96003 0.54074 0.78263 0.0
H372 H 0.94692 0.49845 0.76551 0.0
H373 H 0.95063 0.50954 0.8266 0.0
C374 C 0.88068 0.39431 0.74402 0.0
C375 C 0.89636 0.38713 0.78072 0.0
C376 C 0.87586 0.42184 0.74683 0.0
C377 C 0.88713 0.44322 0.786 0.0
C378 C 0.90305 0.43623 0.82249 0.0
H379 H 0.81674 0.57606 0.87604 0.0
H380 H 0.83831 0.53765 0.87325 0.0
C381 C 0.90771 0.40865 0.81979 0.0
C382 C 0.88118 0.47204 0.78946 0.0
H383 H 0.92018 0.55693 0.80118 0.0
C384 C 0.84834 0.46571 0.78923 0.0
C385 C 0.90743 0.50548 0.79318 0.0
C386 C 0.94327 0.51414 0.79158 0.0
C387 C 0.84102 0.4916 0.7936 0.0
C388 C 0.86719 0.52491 0.79873 0.0
C389 C 0.9001 0.53142 0.79787 0.0
C390 C 0.86036 0.55297 0.80444 0.0
C391 C 0.8052 0.48311 0.79228 0.0
C392 C 0.86736 0.57599 0.76802 0.0
C393 C 0.85519 0.59826 0.76968 0.0
C394 C 0.83596 0.59811 0.80798 0.0
C395 C 0.83163 0.57707 0.84617 0.0
C396 C 0.84369 0.55481 0.84443 0.0
H397 H 0.78861 0.45764 0.77843 0.0
H398 H 0.79697 0.48442 0.8284 0.0
H399 H 0.80227 0.50118 0.77021 0.0
H400 H 0.8802 0.57512 0.73678 0.0
H401 H 0.85821 0.61323 0.73904 0.0
H402 H 0.23682 0.77466 0.30767 0.0
H403 H 0.29345 0.78472 0.31034 0.0
H404 H 0.33113 0.88897 0.28302 0.0
H405 H 0.27424 0.87918 0.28139 0.0
H406 H 0.33719 0.80626 0.23968 0.0
H407 H 0.38973 0.89324 0.3904 0.0
H408 H 0.34575 0.86988 0.37847 0.0
H409 H 0.37216 0.90709 0.34584 0.0
C410 C 0.25715 0.79984 0.30277 0.0
C411 C 0.25106 0.82612 0.29408 0.0
C412 C 0.28952 0.80553 0.30428 0.0
C413 C 0.31657 0.83759 0.29709 0.0
C414 C 0.31068 0.86411 0.28955 0.0
H415 H 0.5143 0.87933 0.21352 0.0
H416 H 0.45668 0.86786 0.21386 0.0
C417 C 0.27817 0.85849 0.2885 0.0
C418 C 0.35063 0.84257 0.29492 0.0
H419 H 0.42781 0.88559 0.34396 0.0
C420 C 0.357 0.82354 0.2626 0.0
C421 C 0.37634 0.86486 0.32513 0.0
C422 C 0.37066 0.88471 0.36223 0.0
C423 C 0.38834 0.82621 0.25958 0.0
C424 C 0.41429 0.84915 0.2889 0.0
C425 C 0.40793 0.86813 0.3213 0.0
C426 C 0.44816 0.85362 0.28719 0.0
C427 C 0.39308 0.80384 0.22583 0.0
C428 C 0.46256 0.84965 0.32821 0.0
C429 C 0.49535 0.85638 0.32792 0.0
C430 C 0.51416 0.86685 0.28658 0.0
C431 C 0.49971 0.87023 0.2453 0.0
C432 C 0.46694 0.86377 0.24561 0.0
H433 H 0.36904 0.78161 0.21621 0.0
H434 H 0.40469 0.81781 0.19312 0.0
H435 H 0.40956 0.79536 0.24099 0.0
H436 H 0.44862 0.84201 0.36072 0.0
H437 H 0.50644 0.85428 0.36022 0.0
H438 H 0.45845 0.24559 0.87632 0.0
H439 H 0.49704 0.30553 0.87393 0.0
H440 H 0.4541 0.31193 0.74316 0.0
H441 H 0.41563 0.25162 0.74491 0.0
H442 H 0.54143 0.3314 0.78756 0.0
H443 H 0.47154 0.39692 0.82681 0.0
H444 H 0.45876 0.35597 0.84986 0.0
H445 H 0.45289 0.36094 0.78887 0.0
C446 C 0.45624 0.25986 0.84792 0.0
C447 C 0.43367 0.24357 0.81094 0.0
C448 C 0.47858 0.29421 0.84643 0.0
C449 C 0.47874 0.31337 0.80826 0.0
C450 C 0.45437 0.29779 0.77321 0.0
H451 H 0.61797 0.52276 0.7365 0.0
H452 H 0.57004 0.46606 0.741 0.0
C453 C 0.43201 0.26322 0.77454 0.0
C454 C 0.50696 0.34825 0.80251 0.0
H455 H 0.5284 0.43026 0.80872 0.0
C456 C 0.53858 0.35304 0.79218 0.0
C457 C 0.50325 0.37648 0.80788 0.0
C458 C 0.46988 0.37266 0.81914 0.0
C459 C 0.56648 0.3851 0.78703 0.0
C460 C 0.56316 0.41358 0.79402 0.0
C461 C 0.5313 0.40871 0.80366 0.0
C462 C 0.59239 0.44841 0.7916 0.0
C463 C 0.59905 0.38794 0.77288 0.0
C464 C 0.62102 0.45801 0.81898 0.0
C465 C 0.64858 0.49031 0.8159 0.0
C466 C 0.64815 0.5141 0.78584 0.0
C467 C 0.61918 0.5049 0.75959 0.0
C468 C 0.59172 0.47246 0.76227 0.0
H469 H 0.59516 0.36524 0.75416 0.0
H470 H 0.61362 0.40977 0.7498 0.0
H471 H 0.61389 0.39079 0.80485 0.0
H472 H 0.622 0.44059 0.84323 0.0
H473 H 0.67001 0.49692 0.83781 0.0
H474 H 0.21661 0.25318 0.25496 0.0
H475 H 0.23086 0.21519 0.21628 0.0
H476 H 0.15835 0.19596 0.10815 0.0
H477 H 0.14326 0.23341 0.14789 0.0
H478 H 0.14856 0.14089 0.14348 0.0
H479 H 0.28186 0.21247 0.1056 0.0
H480 H 0.27546 0.2228 0.16379 0.0
H481 H 0.25718 0.23211 0.11437 0.0
C482 C 0.2041 0.24125 0.22254 0.0
C483 C 0.17873 0.24598 0.20453 0.0
C484 C 0.21263 0.21995 0.19995 0.0
C485 C 0.19635 0.20337 0.15847 0.0
C486 C 0.1716 0.20886 0.13968 0.0
H487 H 0.18911 1.01168 0.13925 0.0
H488 H 0.19764 0.06197 0.09775 0.0
C489 C 0.16276 0.22991 0.16264 0.0
C490 C 0.20105 0.17602 0.14068 0.0
H491 H 0.26124 0.15471 0.13581 0.0
C492 C 0.17312 0.14396 0.13955 0.0
C493 C 0.23298 0.17995 0.13442 0.0
C494 C 0.26347 0.2138 0.12902 0.0
C495 C 0.17658 0.11571 0.13948 0.0
C496 C 0.2088 0.11981 0.1408 0.0
C497 C 0.23658 0.1517 0.13561 0.0
C498 C 0.2135 0.09297 0.15996 0.0
C499 C 0.14587 0.08182 0.14373 0.0
C500 C 0.22109 0.09439 0.20788 0.0
C501 C 0.21583 0.06587 0.23134 0.0
C502 C 0.2035 0.03577 0.20703 0.0
C503 C 0.19895 0.03495 0.15824 0.0
C504 C 0.20382 0.06352 0.13469 0.0
H505 H 0.12265 0.08303 0.14192 0.0
H506 H 0.14541 0.06542 0.11501 0.0
H507 H 0.14625 0.07018 0.1776 0.0
H508 H 0.22826 0.11682 0.22802 0.0
H509 H 0.21924 0.06667 0.26903 0.0
H510 H 0.92063 0.15225 0.8859 0.0
H511 H 0.98017 0.17684 0.90037 0.0
H512 H 0.99958 0.20424 0.75406 0.0
H513 H 0.94031 0.18145 0.74052 0.0
H514 H 1.0132 0.1527 0.86844 0.0
H515 H 0.07753 0.28203 0.80695 0.0
H516 H 0.0329 0.25874 0.81137 0.0
H517 H 0.05339 0.25645 0.75896 0.0
C518 C 0.93789 0.16509 0.85754 0.0
C519 C 0.92612 0.16565 0.8124 0.0
C520 C 0.97189 0.1789 0.86565 0.0
C521 C 0.99471 0.19285 0.82851 0.0
C522 C 0.98289 0.19475 0.78377 0.0
H523 H 0.14926 0.16216 0.75197 0.0
H524 H 0.09843 0.16189 0.77509 0.0
C525 C 0.94891 0.18167 0.77595 0.0
C526 C 0.02948 0.2 0.83451 0.0
H527 H 0.10942 0.25238 0.79964 0.0
C528 C 0.03428 0.17503 0.85453 0.0
C529 C 0.05738 0.22915 0.81687 0.0
C530 C 0.05492 0.25814 0.79786 0.0
C531 C 0.06542 0.17724 0.85419 0.0
C532 C 0.09246 0.2048 0.83249 0.0
C533 C 0.08849 0.23101 0.81575 0.0
C534 C 0.1234 0.20455 0.82126 0.0
C535 C 0.06881 0.14932 0.87539 0.0
C536 C 0.1543 0.22878 0.8393 0.0
C537 C 0.18335 0.22875 0.82616 0.0
C538 C 0.18166 0.20476 0.79451 0.0
C539 C 0.1508 0.18057 0.7768 0.0
C540 C 0.12192 0.18042 0.79007 0.0
H541 H 0.04984 0.13609 0.90304 0.0
H542 H 0.06508 0.13101 0.84755 0.0
H543 H 0.09386 0.15872 0.89086 0.0
H544 H 0.15593 0.24774 0.86314 0.0
H545 H 0.20713 0.2478 0.83962 0.0
H546 H 0.9785 0.2076 0.23634 0.0
H547 H 0.9219 0.16145 0.22844 0.0
H548 H 0.94528 0.13921 0.09151 0.0
H549 H 1.00211 0.18576 0.09934 0.0
H550 H 0.86344 0.119 0.1545 0.0
H551 H 0.95474 0.07893 0.20121 0.0
H552 H 0.96508 0.12177 0.20584 0.0
H553 H 0.96222 0.10359 0.14916 0.0
C554 C 0.97092 0.19449 0.20315 0.0
C555 C 0.9946 0.19968 0.16871 0.0
C556 C 0.93852 0.16802 0.19867 0.0
C557 C 0.92984 0.14663 0.15987 0.0
C558 C 0.95169 0.15549 0.12174 0.0
H559 H 0.77114 0.93807 0.17679 0.0
H560 H 0.80796 0.99434 0.14668 0.0
C561 C 0.98411 0.18197 0.12626 0.0
C562 C 0.90476 0.11143 0.16694 0.0
H563 H 0.89865 0.03925 0.20628 0.0
C564 C 0.87092 0.10131 0.16518 0.0
C565 C 0.91494 0.08874 0.18138 0.0
C566 C 0.95117 0.09863 0.18484 0.0
C567 C 0.84682 0.06895 0.17865 0.0
C568 C 0.8572 0.04666 0.19429 0.0
C569 C 0.89097 0.0566 0.19461 0.0
C570 C 0.83385 1.01325 0.21258 0.0
C571 C 0.81067 0.05922 0.17737 0.0
C572 C 0.83705 1.00514 0.25911 0.0
C573 C 0.8162 0.97308 0.27619 0.0
C574 C 0.79187 0.949 0.24692 0.0
C575 C 0.78917 0.95686 0.20018 0.0
C576 C 0.81005 0.98882 0.18304 0.0
H577 H 0.80742 0.08131 0.17554 0.0
H578 H 0.79902 0.04379 0.14568 0.0
H579 H 0.79732 0.04428 0.2087 0.0
H580 H 0.85569 0.02366 0.28217 0.0
H581 H 0.81867 0.96726 0.31227 0.0
H582 H 0.83483 0.991 0.84855 0.0
H583 H 0.83692 0.93964 0.85898 0.0
H584 H 0.78509 0.90218 0.72749 0.0
H585 H 0.78171 0.95317 0.7185 0.0
H586 H 0.76453 0.85277 0.79127 0.0
H587 H 0.90188 0.92425 0.78711 0.0
H588 H 0.88569 0.93796 0.83368 0.0
H589 H 0.87703 0.94292 0.77349 0.0
C590 C 0.82395 0.97167 0.82207 0.0
C591 C 0.80878 0.97595 0.78231 0.0
C592 C 0.82512 0.94245 0.82791 0.0
C593 C 0.81194 0.91744 0.79338 0.0
C594 C 0.79561 0.92123 0.75441 0.0
H595 H 0.83685 0.74931 0.73535 0.0
H596 H 0.80934 0.78216 0.74184 0.0
C597 C 0.79384 0.95026 0.74911 0.0
C598 C 0.81684 0.88831 0.79687 0.0
H599 H 0.87717 0.86782 0.80939 0.0
C600 C 0.78914 0.85598 0.79535 0.0
C601 C 0.84899 0.89249 0.80102 0.0
C602 C 0.88008 0.92625 0.79838 0.0
C603 C 0.79272 0.82771 0.79926 0.0
C604 C 0.82484 0.8321 0.80549 0.0
C605 C 0.85243 0.86444 0.80617 0.0
C606 C 0.83167 0.80421 0.80877 0.0
C607 C 0.76205 0.79375 0.79634 0.0
C608 C 0.85206 0.80434 0.84522 0.0
C609 C 0.86816 0.78599 0.84111 0.0
C610 C 0.86346 0.76649 0.80109 0.0
C611 C 0.8401 0.76329 0.76722 0.0
C612 C 0.82446 0.78226 0.77083 0.0
H613 H 0.74068 0.79384 0.81358 0.0
H614 H 0.7555 0.78731 0.75881 0.0
H615 H 0.76555 0.77401 0.81249 0.0
H616 H 0.85803 0.82111 0.87479 0.0
H617 H 0.88624 0.78903 0.86753 0.0
H618 H 0.84617 0.84239 0.15083 0.0
H619 H 0.88539 0.82881 0.11247 0.0
H620 H 0.905 0.79894 0.24674 0.0
H621 H 0.86633 0.81276 0.28427 0.0
H622 H 0.94907 0.86644 0.14051 0.0
H623 H 0.91562 0.73578 0.16035 0.0
H624 H 0.88468 0.74851 0.15919 0.0
H625 H 0.90494 0.74891 0.21346 0.0
C626 C 0.85805 0.83164 0.17133 0.0
C627 C 0.85382 0.8286 0.22016 0.0
C628 C 0.88017 0.82376 0.14956 0.0
C629 C 0.89772 0.81237 0.17658 0.0
C630 C 0.89109 0.80674 0.22487 0.0
H631 H 0.06764 0.87065 0.29194 0.0
H632 H 1.01475 0.85582 0.25329 0.0
C633 C 0.86941 0.815 0.24651 0.0
C634 C 0.92857 0.8147 0.15881 0.0
H635 H 0.9745 0.77791 0.18214 0.0
C636 C 0.95448 0.84665 0.14725 0.0
C637 C 0.93567 0.78887 0.16674 0.0
C638 C 0.90854 0.75352 0.1751 0.0
C639 C 0.9876 0.85462 0.1514 0.0
C640 C 0.99454 0.82997 0.16706 0.0
C641 C 0.96885 0.79691 0.17122 0.0
C642 C 0.02666 0.83939 0.1887 0.0
C643 C 1.01489 0.89009 0.1442 0.0
C644 C 0.05054 0.83528 0.16465 0.0
C645 C 0.08059 0.8439 0.18658 0.0
C646 C 0.08661 0.85591 0.23292 0.0
C647 C 0.06304 0.8608 0.2565 0.0
C648 C 0.03308 0.8524 0.23451 0.0
H649 H 1.00648 0.90413 0.12201 0.0
H650 H 0.02268 0.9027 0.17883 0.0
H651 H 0.03687 0.89088 0.12761 0.0
H652 H 0.04602 0.82572 0.12906 0.0
H653 H 0.09944 0.84179 0.16714 0.0
H654 H 0.25061 0.10436 0.88597 0.0
H655 H 0.21977 0.04482 0.9023 0.0
H656 H 0.24675 0.02533 0.76582 0.0
H657 H 0.27951 0.08505 0.75103 0.0
H658 H 0.16767 1.01208 0.8552 0.0
H659 H 0.23781 0.94682 0.83334 0.0
H660 H 0.2586 0.99157 0.83839 0.0
H661 H 0.24418 0.97162 0.78207 0.0
C662 C 0.25146 0.08738 0.8606 0.0
C663 C 0.26754 0.09927 0.81733 0.0
C664 C 0.23363 0.05329 0.8698 0.0
C665 C 0.23038 0.03027 0.83515 0.0
C666 C 0.24917 0.0423 0.79366 0.0
H667 H 0.05527 0.87371 0.72689 0.0
H668 H 0.10636 0.92378 0.75128 0.0
C669 C 0.26799 0.07661 0.78509 0.0
C670 C 0.20211 0.99534 0.83768 0.0
H671 H 0.17824 0.91462 0.81032 0.0
C672 C 0.17036 0.99077 0.84672 0.0
C673 C 0.20509 0.96716 0.82682 0.0
C674 C 0.23839 0.96962 0.82014 0.0
C675 C 0.14166 0.95958 0.8421 0.0
C676 C 0.14445 0.93211 0.82706 0.0
C677 C 0.17613 0.93588 0.8212 0.0
C678 C 0.11459 0.90084 0.81196 0.0
C679 C 0.10831 0.95654 0.85135 0.0
C680 C 0.10249 0.8712 0.83772 0.0
C681 C 0.0731 0.84253 0.82377 0.0
C682 C 0.05562 0.84328 0.78397 0.0
C683 C 0.06822 0.87277 0.75793 0.0
C684 C 0.09734 0.90124 0.7718 0.0
H685 H 0.11058 0.97684 0.87455 0.0
H686 H 0.09734 0.95816 0.81754 0.0
H687 H 0.09097 0.93223 0.86781 0.0
H688 H 0.11551 0.87039 0.86877 0.0
H689 H 0.06411 0.81977 0.84368 0.0
H690 H 0.24757 0.3117 0.21349 0.0
H691 H 0.2599 0.28303 0.15173 0.0
H692 H 0.27036 0.35744 0.05218 0.0
H693 H 0.25653 0.38553 0.11407 0.0
H694 H 0.24027 0.29379 1.01228 0.0
H695 H 0.35413 0.31847 0.10819 0.0
H696 H 0.31658 0.29474 0.14106 0.0
H697 H 0.32975 0.33709 0.12528 0.0
C698 C 0.25049 0.32089 0.17794 0.0
C699 C 0.24954 0.35014 0.16852 0.0
C700 C 0.25859 0.30497 0.14274 0.0
C701 C 0.26675 0.31823 0.09719 0.0
C702 C 0.2643 0.34662 0.08697 0.0
H703 H 0.33537 0.27271 0.8367 0.0
H704 H 0.32195 0.2993 0.90063 0.0
C705 C 0.25614 0.36257 0.12232 0.0
C706 C 0.27937 0.30356 0.06112 0.0
H707 H 0.34127 0.2856 0.03936 0.0
C708 C 0.26244 0.29218 1.01819 0.0
C709 C 0.30823 0.30105 0.06863 0.0
C710 C 0.32843 0.31373 0.11309 0.0
C711 C 0.27325 0.27823 0.98309 0.0
C712 C 0.30243 0.27627 0.99029 0.0
C713 C 0.3191 0.28721 0.03345 0.0
C714 C 0.31598 0.26314 0.95327 0.0
C715 C 0.25269 0.26492 0.939 0.0
C716 C 0.31981 0.23537 0.96196 0.0
C717 C 0.32849 0.22063 0.92544 0.0
C718 C 0.33386 0.23357 0.8796 0.0
C719 C 0.3323 0.26268 0.87186 0.0
C720 C 0.32384 0.27746 0.90826 0.0
H721 H 0.22669 0.25908 0.94462 0.0
H722 H 0.26358 0.28399 0.91096 0.0
H723 H 0.2523 0.24208 0.92646 0.0
H724 H 0.31412 0.22385 0.99632 0.0
H725 H 0.32829 0.19757 0.93219 0.0
H726 H 0.92516 0.19999 0.65572 0.0
H727 H 0.96791 0.21759 0.59496 0.0
H728 H 0.99266 0.31949 0.61434 0.0
H729 H 0.95003 0.30216 0.67532 0.0
H730 H 0.97344 0.24936 0.51037 0.0
H731 H 0.08435 0.32752 0.61981 0.0
H732 H 0.04449 0.29853 0.64485 0.0
H733 H 0.05239 0.33834 0.62387 0.0
C734 C 0.9397 0.22621 0.64733 0.0
C735 C 0.93381 0.24953 0.67085 0.0
C736 C 0.96429 0.23628 0.61237 0.0
C737 C 0.98414 0.27003 0.60011 0.0
C738 C 0.97835 0.29339 0.62348 0.0
H739 H 0.09162 0.34506 0.33751 0.0
H740 H 0.06228 0.33904 0.41137 0.0
C741 C 0.95361 0.28333 0.65828 0.0
C742 C 1.00977 0.28045 0.56166 0.0
H743 H 0.09283 0.33003 0.53704 0.0
C744 C 0.99951 0.26694 0.51642 0.0
C745 C 0.04408 0.30321 0.56911 0.0
C746 C 0.05717 0.31757 0.61709 0.0
C747 C 0.02213 0.27596 0.47872 0.0
C748 C 0.05624 0.29934 0.48583 0.0
C749 C 0.06675 0.31239 0.53121 0.0
C750 C 0.08074 0.31015 0.44597 0.0
C751 C 1.00936 0.26022 0.43125 0.0
C752 C 0.10307 0.29814 0.44162 0.0
C753 C 0.12049 0.30211 0.39927 0.0
C754 C 0.11586 0.31811 0.36038 0.0
C755 C 0.09636 0.33321 0.3669 0.0
C756 C 0.07902 0.32925 0.40901 0.0
H757 H 0.98385 0.2384 0.43328 0.0
H758 H 1.00887 0.27882 0.40734 0.0
H759 H 0.02603 0.25215 0.41555 0.0
H760 H 0.10499 0.28337 0.46952 0.0
H761 H 0.13449 0.28937 0.39529 0.0
H762 H 0.71871 0.94547 0.2153 0.0
H763 H 0.74554 0.98966 0.15686 0.0
H764 H 0.68211 0.92264 0.04927 0.0
H765 H 0.65481 0.87837 0.10804 0.0
H766 H 0.77904 0.99818 0.07037 0.0
H767 H 0.66118 0.99854 0.04476 0.0
H768 H 0.66737 0.97676 0.09259 0.0
H769 H 0.65787 0.9588 0.03472 0.0
C770 C 0.71146 0.93959 0.17885 0.0
C771 C 0.6852 0.90791 0.16625 0.0
C772 C 0.72656 0.96517 0.14543 0.0
C773 C 0.71565 0.95989 0.09854 0.0
C774 C 0.69075 0.92769 0.08527 0.0
H775 H 0.75482 0.07275 0.84309 0.0
H776 H 0.73092 0.03497 0.90958 0.0
C777 C 0.67551 0.90214 0.11877 0.0
C778 C 0.72889 0.98838 0.06439 0.0
H779 H 0.70528 0.03232 0.99312 0.0
C780 C 0.76295 1.00577 0.05367 0.0
C781 C 0.70809 0.99871 0.04278 0.0
C782 C 0.67165 0.9825 0.05453 0.0
C783 C 0.77644 0.03203 1.02065 0.0
C784 C 0.75548 0.04198 0.99827 0.0
C785 C 0.72153 0.02499 1.00995 0.0
C786 C 0.76755 0.06785 0.95998 0.0
C787 C 0.81282 0.04784 1.00872 0.0
C788 C 0.795 0.10017 0.96611 0.0
C789 C 0.80862 0.12215 0.92772 0.0
C790 C 0.79478 0.11244 0.88256 0.0
C791 C 0.76566 0.08133 0.87756 0.0
C792 C 0.75219 0.05944 0.91564 0.0
H793 H 0.8233 0.03201 1.01967 0.0
H794 H 0.81696 0.05258 0.97043 0.0
H795 H 0.82675 0.07196 0.02747 0.0
H796 H 0.80689 0.1079 1.00009 0.0
H797 H 0.83154 0.1455 0.9326 0.0
H798 H 0.8288 0.72625 0.64966 0.0
H799 H 0.80862 0.74988 0.59019 0.0
H800 H 0.70781 0.67461 0.62065 0.0
H801 H 0.72775 0.65091 0.68054 0.0
H802 H 0.77237 0.72118 0.50957 0.0
H803 H 0.70203 0.7598 0.62573 0.0
H804 H 0.73177 0.74904 0.64801 0.0
H805 H 0.69083 0.71689 0.63145 0.0
C806 C 0.80229 0.71469 0.64401 0.0
C807 C 0.78003 0.68653 0.67034 0.0
C808 C 0.79074 0.72831 0.60978 0.0
C809 C 0.75655 0.7145 0.60104 0.0
C810 C 0.73425 0.68631 0.62709 0.0
H811 H 0.68028 0.75028 0.34021 0.0
H812 H 0.68566 0.72412 0.41168 0.0
C813 C 0.74578 0.67253 0.66119 0.0
C814 C 0.74455 0.72885 0.56352 0.0
H815 H 0.69594 0.764 0.5435 0.0
C816 C 0.75562 0.73047 0.51714 0.0
C817 C 0.72297 0.7415 0.57303 0.0
C818 C 0.71138 0.74209 0.62229 0.0
C819 C 0.74552 0.74377 0.48033 0.0
C820 C 0.72322 0.75558 0.48951 0.0
C821 C 0.71255 0.75455 0.53603 0.0
C822 C 0.71195 0.76998 0.45111 0.0
C823 C 0.75946 0.7457 0.43183 0.0
C824 C 0.72205 0.80408 0.45054 0.0
C825 C 0.71823 0.81905 0.40975 0.0
C826 C 0.70437 0.80025 0.36855 0.0
C827 C 0.69062 0.76549 0.37135 0.0
C828 C 0.69435 0.75056 0.41205 0.0
H829 H 0.78179 0.74287 0.43265 0.0
H830 H 0.74039 0.72538 0.40977 0.0
H831 H 0.76619 0.76977 0.4148 0.0
H832 H 0.73545 0.8197 0.4802 0.0
H833 H 0.72976 0.84592 0.40879 0.0
H834 H 0.89475 0.7007 0.92724 0.0
H835 H 0.93441 0.71477 0.99246 0.0
H836 H 1.00419 0.71003 0.89784 0.0
H837 H 0.9649 0.69634 0.83303 0.0
H838 H 0.97205 0.68667 0.03323 0.0
H839 H 0.054 0.80703 0.94503 0.0
H840 H 1.01122 0.78022 0.9282 0.0
H841 H 0.0426 0.77109 0.90905 0.0
C842 C 0.91789 0.70107 0.92096 0.0
C843 C 0.92637 0.69662 0.8752 0.0
C844 C 0.94082 0.70967 0.95809 0.0
C845 C 0.97273 0.7143 0.94995 0.0
C846 C 0.98009 0.70728 0.905 0.0
H847 H 0.15725 0.78489 0.10757 0.0
H848 H 0.11446 0.76901 0.04659 0.0
C849 C 0.95731 0.69879 0.8681 0.0
C850 C 0.99908 0.72837 0.98719 0.0
H851 H 0.07627 0.79444 1.01177 0.0
C852 C 0.99473 0.71032 0.02867 0.0
C853 C 0.02881 0.75932 0.98144 0.0
C854 C 0.03445 0.78076 0.93877 0.0
C855 C 0.01954 0.72176 0.0637 0.0
C856 C 0.04942 0.75263 0.05782 0.0
C857 C 0.05358 0.77082 1.01649 0.0
C858 C 0.07669 0.76612 0.09386 0.0
C859 C 1.01389 0.70003 0.10601 0.0
C860 C 0.07048 0.77134 0.14048 0.0
C861 C 0.09508 0.78094 0.17513 0.0
C862 C 0.12677 0.78601 0.1641 0.0
C863 C 0.13347 0.78218 0.11703 0.0
C864 C 0.10885 0.77274 0.08222 0.0
H865 H 0.99469 0.67373 0.09911 0.0
H866 H 0.03717 0.70078 0.11689 0.0
H867 H 1.00512 0.70912 0.1357 0.0
H868 H 0.04621 0.76706 0.1505 0.0
H869 H 0.08854 0.78245 0.21118 0.0
H870 H 0.30134 0.10351 0.65881 0.0
H871 H 0.27783 0.06054 0.59788 0.0
H872 H 0.3603 0.0436 0.61295 0.0
H873 H 0.38404 0.08655 0.67406 0.0
H874 H 0.30534 0.05808 0.51176 0.0
H875 H 0.2799 0.94859 0.6201 0.0
H876 H 0.28807 0.98765 0.64552 0.0
H877 H 0.32171 0.98291 0.62382 0.0
C878 C 0.31456 0.09066 0.64941 0.0
C879 C 0.34477 0.0988 0.67171 0.0
C880 C 0.30099 0.06596 0.61439 0.0
C881 C 0.3169 0.04826 0.60091 0.0
C882 C 0.34706 0.05629 0.62306 0.0
H883 H 0.28202 0.94209 0.33531 0.0
H884 H 0.30766 0.9723 0.40797 0.0
C885 C 0.3608 0.08118 0.6579 0.0
C886 C 0.3026 0.02251 0.56247 0.0
H887 H 0.27243 0.93982 0.53764 0.0
C888 C 0.2982 0.03226 0.51757 0.0
C889 C 0.29282 0.98856 0.56974 0.0
C890 C 0.29553 0.97609 0.61745 0.0
C891 C 0.28495 1.00943 0.47997 0.0
C892 C 0.27588 0.97566 0.48688 0.0
C893 C 0.27969 0.96567 0.53195 0.0
C894 C 0.26189 0.95078 0.44744 0.0
C895 C 0.28031 0.02158 0.433 0.0
C896 C 0.228 0.92637 0.44626 0.0
C897 C 0.21329 0.90847 0.40465 0.0
C898 C 0.23217 0.91476 0.36332 0.0
C899 C 0.26678 0.93622 0.36652 0.0
C900 C 0.28142 0.95403 0.40796 0.0
H901 H 0.28219 0.04634 0.4357 0.0
H902 H 0.29982 0.02377 0.40845 0.0
H903 H 0.2558 1.00366 0.41764 0.0
H904 H 0.21233 0.92316 0.47621 0.0
H905 H 0.18653 0.89276 0.40342 0.0
H906 H 0.73351 0.65929 0.86048 0.0
H907 H 0.71561 0.68755 0.9159 0.0
H908 H 0.81779 0.75685 0.95021 0.0
H909 H 0.83579 0.72828 0.89548 0.0
H910 H 0.7266 0.69887 1.01203 0.0
H911 H 0.78025 0.81702 0.91391 0.0
H912 H 0.78143 0.78123 0.89178 0.0
H913 H 0.81193 0.8086 0.93348 0.0
C914 C 0.75221 0.68044 0.87994 0.0
C915 C 0.78619 0.692 0.87267 0.0
C916 C 0.74191 0.69665 0.91156 0.0
C917 C 0.76533 0.72481 0.93652 0.0
C918 C 0.79923 0.73571 0.93052 0.0
H919 H 0.77668 0.85774 0.14978 0.0
H920 H 0.78268 0.82966 0.0816 0.0
C921 C 0.80952 0.71944 0.89906 0.0
C922 C 0.75434 0.74245 0.9694 0.0
H923 H 0.76292 0.8185 0.99359 0.0
C924 C 0.73418 0.72493 1.00776 0.0
C925 C 0.76427 0.7765 0.9639 0.0
C926 C 0.78541 0.79682 0.92324 0.0
C927 C 0.72508 0.74085 0.04194 0.0
C928 C 0.73542 0.77507 0.03679 0.0
C929 C 0.75467 0.79225 0.99752 0.0
C930 C 0.73016 0.79445 0.07436 0.0
C931 C 0.70608 0.72127 0.08455 0.0
C932 C 0.69839 0.78527 0.09201 0.0
C933 C 0.69487 0.80143 0.13162 0.0
C934 C 0.72311 0.82707 0.1538 0.0
C935 C 0.75445 0.83791 0.13358 0.0
C936 C 0.75794 0.8218 0.09452 0.0
H937 H 0.70656 0.69769 0.08816 0.0
H938 H 0.71644 0.73612 0.11712 0.0
H939 H 0.67978 0.71485 0.08132 0.0
H940 H 0.67643 0.76488 0.07625 0.0
H941 H 0.67044 0.79253 0.14651 0.0
H942 H 0.10812 0.82095 0.40037 0.0
H943 H 0.06907 0.79592 0.46558 0.0
H944 H 0.08911 0.7148 0.46986 0.0
H945 H 0.12819 0.7396 0.40498 0.0
H946 H 0.02131 0.69436 0.46088 0.0
H947 H 0.08026 0.78491 0.60657 0.0
H948 H 0.07774 0.80311 0.55221 0.0
H949 H 0.10323 0.78422 0.55586 0.0
C950 C 0.10497 0.79831 0.41606 0.0
C951 C 0.12101 0.78209 0.39709 0.0
C952 C 0.08257 0.78398 0.45329 0.0
C953 C 0.07612 0.75343 0.47241 0.0
C954 C 0.09358 0.73827 0.4554 0.0
H955 H 0.95374 0.6749 0.71962 0.0
H956 H 0.99429 0.68225 0.65942 0.0
C957 C 0.11595 0.75254 0.41833 0.0
C958 C 0.04927 0.73593 0.50735 0.0
H959 H 0.02335 0.74385 0.61608 0.0
C960 C 0.02186 0.70498 0.49505 0.0
C961 C 0.05019 0.74971 0.55194 0.0
C962 C 0.07955 0.78217 0.56775 0.0
C963 C 0.99487 0.68789 0.52573 0.0
C964 C 0.99527 0.70227 0.56962 0.0
C965 C 0.02309 0.73279 0.58237 0.0
C966 C 0.96661 0.68739 0.60223 0.0
C967 C 0.96613 0.65471 0.51095 0.0
C968 C 0.93656 0.68555 0.58949 0.0
C969 C 0.91306 0.68076 0.62387 0.0
C970 C 0.91958 0.67803 0.67125 0.0
C971 C 0.9479 0.6762 0.68311 0.0
C972 C 0.97127 0.68086 0.64884 0.0
H973 H 0.97342 0.643 0.48285 0.0
H974 H 0.95619 0.63739 0.54123 0.0
H975 H 0.94593 0.6584 0.49706 0.0
H976 H 0.93267 0.69106 0.55389 0.0
H977 H 0.89189 0.68324 0.61417 0.0
H978 H 0.31321 0.11487 0.90626 0.0
H979 H 0.28505 0.06649 0.95813 0.0
H980 H 0.34545 0.02793 0.90333 0.0
H981 H 0.37316 0.07587 0.85061 0.0
H982 H 0.25029 0.99477 0.92445 0.0
H983 H 0.35322 0.02857 0.05203 0.0
H984 H 0.35085 0.05943 1.01628 0.0
H985 H 0.36259 0.03166 0.99024 0.0
C986 C 0.32034 0.09598 0.90507 0.0
C987 C 0.34496 0.09889 0.8737 0.0
C988 C 0.30437 0.06847 0.93484 0.0
C989 C 0.31309 0.04362 0.93436 0.0
C990 C 0.33843 0.04692 0.90427 0.0
H991 H 0.24116 0.88436 0.14534 0.0
H992 H 0.26815 0.91417 0.0724 0.0
C993 C 0.35432 0.0744 0.87429 0.0
C994 C 0.29522 0.01408 0.96502 0.0
H995 H 0.3027 0.97989 0.06696 0.0
C996 C 0.26184 0.99116 0.95522 0.0
C997 C 0.31045 1.00935 1.00487 0.0
C998 C 0.34621 0.03352 1.01692 0.0
C999 C 0.24298 0.96395 0.98491 0.0
C1000 C 0.2576 0.96028 0.02649 0.0
C1001 C 0.29145 0.98251 0.03511 0.0
C1002 C 0.2375 0.93683 0.06456 0.0
C1003 C 0.20752 0.93968 0.97144 0.0
C1004 C 0.21078 0.93885 0.08365 0.0
C1005 C 0.19538 0.92177 0.12467 0.0
C1006 C 0.20661 0.90264 0.14811 0.0
C1007 C 0.23191 0.89875 0.1277 0.0
C1008 C 0.24743 0.91595 0.08629 0.0
H1009 H 0.20466 0.93748 0.93263 0.0
H1010 H 0.19895 0.91458 0.98634 0.0
H1011 H 0.19122 0.94898 0.98464 0.0
H1012 H 0.20313 0.95537 0.06864 0.0
H1013 H 0.17591 0.9252 0.13974 0.0
H1014 H 0.34871 0.27792 0.72201 0.0
H1015 H 0.3384 0.30947 0.66214 0.0
H1016 H 0.3276 0.23754 0.55746 0.0
H1017 H 0.33827 0.20612 0.6174 0.0
H1018 H 0.35692 0.30816 0.52515 0.0
H1019 H 0.23761 0.25786 0.62258 0.0
H1020 H 0.27497 0.28002 0.65678 0.0
H1021 H 0.26516 0.24135 0.62928 0.0
C1022 C 0.34612 0.27 0.68567 0.0
C1023 C 0.34475 0.23995 0.67399 0.0
C1024 C 0.33973 0.28773 0.65167 0.0
C1025 C 0.33156 0.27541 0.60569 0.0
C1026 C 0.33382 0.2474 0.59283 0.0
H1027 H 0.20492 0.28886 0.39683 0.0
H1028 H 0.22853 0.27233 0.46111 0.0
C1029 C 0.34035 0.22969 0.62689 0.0
C1030 C 0.3159 0.28853 0.57337 0.0
H1031 H 0.24454 0.29124 0.55675 0.0
C1032 C 0.33249 0.30474 0.53212 0.0
C1033 C 0.28371 0.28337 0.58228 0.0
C1034 C 0.26407 0.26452 0.62492 0.0
C1035 C 0.31777 0.31618 0.49957 0.0
C1036 C 0.2858 0.31152 0.50892 0.0
C1037 C 0.26917 0.29512 0.55004 0.0
C1038 C 0.2687 0.32223 0.47524 0.0
C1039 C 0.33613 0.33231 0.45481 0.0
C1040 C 0.28228 0.35595 0.46394 0.0
C1041 C 0.26875 0.36549 0.4275 0.0
C1042 C 0.24138 0.34145 0.40167 0.0
C1043 C 0.22601 0.308 0.41593 0.0
C1044 C 0.23962 0.29847 0.45244 0.0
H1045 H 0.35686 0.32745 0.4483 0.0
H1046 H 0.31905 0.32321 0.42419 0.0
H1047 H 0.34671 0.35964 0.4574 0.0
H1048 H 0.30417 0.37476 0.48204 0.0
H1049 H 0.28081 0.39155 0.41798 0.0
H1050 H 0.15917 0.31426 0.1047 0.0
H1051 H 0.12602 0.30818 0.03437 0.0
H1052 H 0.07605 0.35128 0.10918 0.0
H1053 H 0.10935 0.35775 0.17864 0.0
H1054 H 0.05979 0.26642 0.03951 0.0
H1055 H 0.08144 0.38905 0.9803 0.0
H1056 H 0.11026 0.38469 1.01798 0.0
H1057 H 0.0739 0.3834 0.04227 0.0
C1058 C 0.14264 0.32438 0.10496 0.0
C1059 C 0.13724 0.33709 0.14667 0.0
C1060 C 0.1233 0.32043 0.06505 0.0
C1061 C 0.09852 0.32935 0.06629 0.0
C1062 C 0.0954 0.34489 0.10673 0.0
H1063 H 0.91413 0.27404 0.91787 0.0
H1064 H 0.96124 0.29635 0.97312 0.0
C1065 C 0.11463 0.34877 0.14646 0.0
C1066 C 0.07232 0.31737 0.02937 0.0
H1067 H 0.02932 0.34154 0.95758 0.0
C1068 C 0.05351 0.28295 1.02104 0.0
C1069 C 0.06368 0.3388 1.00578 0.0
C1070 C 0.08361 0.37607 1.01169 0.0
C1071 C 0.02592 0.26931 0.99084 0.0
C1072 C 1.017 0.29068 0.96772 0.0
C1073 C 0.03597 0.32514 0.9756 0.0
C1074 C 0.98857 0.27768 0.93439 0.0
C1075 C 1.00616 0.23199 0.98492 0.0
C1076 C 0.98858 0.26048 0.89391 0.0
C1077 C 0.96188 0.24791 0.8626 0.0
C1078 C 0.93438 0.25181 0.87127 0.0
C1079 C 0.93473 0.26999 0.91098 0.0
C1080 C 0.96161 0.28278 0.94238 0.0
H1081 H 1.00965 0.21894 1.01515 0.0
H1082 H 0.97923 0.22301 0.98099 0.0
H1083 H 1.01484 0.22504 0.95287 0.0
H1084 H 1.00949 0.2571 0.88635 0.0
H1085 H 0.96315 0.23605 0.83074 0.0
H1086 H 0.7459 0.08264 0.72124 0.0
H1087 H 0.71195 0.04178 0.66128 0.0
H1088 H 0.78763 0.09674 0.55793 0.0
H1089 H 0.82128 0.13792 0.6178 0.0
H1090 H 0.72157 0.063 0.52078 0.0
H1091 H 0.75049 0.98108 0.62909 0.0
H1092 H 0.72852 0.99828 0.65903 0.0
H1093 H 0.77013 0.02535 0.63879 0.0
C1094 C 0.7543 0.08698 0.68509 0.0
C1095 C 0.78592 0.11353 0.67382 0.0
C1096 C 0.73519 0.06336 0.65106 0.0
C1097 C 0.74773 0.06578 0.60553 0.0
C1098 C 0.77758 0.09435 0.59295 0.0
H1099 H 0.73059 0.91935 0.40659 0.0
H1100 H 0.74526 0.95917 0.471 0.0
C1101 C 0.79662 0.11811 0.62698 0.0
C1102 C 0.73255 0.03672 0.57335 0.0
H1103 H 0.71958 0.95787 0.56001 0.0
C1104 C 0.72077 0.03987 0.52946 0.0
C1105 C 0.73226 1.00682 0.58451 0.0
C1106 C 0.74626 1.0026 0.63019 0.0
C1107 C 0.70877 0.01396 0.49628 0.0
C1108 C 0.70812 0.98393 0.50764 0.0
C1109 C 0.71975 0.98074 0.55164 0.0
C1110 C 0.69748 0.95645 0.47309 0.0
C1111 C 0.69808 0.01944 0.44866 0.0
C1112 C 0.6652 0.9404 0.45459 0.0
C1113 C 0.65669 0.91756 0.4178 0.0
C1114 C 0.68029 0.91025 0.3989 0.0
C1115 C 0.7118 0.92441 0.4201 0.0
C1116 C 0.7203 0.94733 0.45683 0.0
H1117 H 0.707 0.04618 0.44196 0.0
H1118 H 0.70749 1.00988 0.42033 0.0
H1119 H 0.67057 1.00578 0.44678 0.0
H1120 H 0.64692 0.94637 0.46751 0.0
H1121 H 0.63202 0.90673 0.40287 0.0
loop_
_geom_bond_atom_site_label_1
_geom_bond_atom_site_label_2
_geom_bond_distance
_geom_bond_site_symmetry_2
_ccdc_geom_bond_type
Co0 N1 2.034 . S
Co0 O15 2.262 . S
Co0 O19 1.958 . S
Co0 O23 1.950 . S
Co0 O24 2.057 . S
N1 Co0 2.034 . S
N1 C2 1.366 . S
N1 C4 1.332 1_455 S
C2 N1 1.366 . S
C2 C5 1.377 1_455 S
C2 H34 0.931 . S
N3 C4 1.346 . S
N3 C5 1.337 . S
C4 N1 1.332 1_655 S
C4 N3 1.346 . S
C4 C38 1.361 . S
C5 C2 1.377 1_655 S
C5 N3 1.337 . S
C5 H41 0.930 . S
Co6 N7 2.034 . S
Co6 O20 1.950 . S
Co6 O21 2.262 . S
Co6 O22 1.958 . S
Co6 O26 2.057 . S
N7 Co6 2.034 . S
N7 C10 1.366 . S
N7 C11 1.332 . S
N8 C9 1.337 . S
N8 C11 1.346 . S
C9 N8 1.337 . S
C9 C10 1.377 . S
C9 H42 0.930 . S
C10 N7 1.366 . S
C10 C9 1.377 . S
C10 H14 0.931 . S
C11 N7 1.332 . S
C11 N8 1.346 . S
C11 C28 1.361 . S
Co12 O15 2.097 . S
Co12 O16 2.065 . S
Co12 O17 2.065 . S
Co12 O18 2.042 . S
Co12 O21 2.097 . S
Co12 O25 2.042 . S
C13 O21 1.253 . S
C13 O26 1.263 . S
H14 C10 0.931 . S
O15 Co0 2.262 . S
O15 Co12 2.097 . S
O15 C39 1.253 . S
O16 Co12 2.065 . S
O16 C32 1.221 . S
O17 Co12 2.065 . S
O17 C27 1.221 . S
O18 Co12 2.042 . S
O18 C33 1.237 . S
O19 Co0 1.958 . S
O19 C33 1.278 . S
O20 Co6 1.950 . S
O20 C32 1.277 . S
O21 Co6 2.262 . S
O21 Co12 2.097 . S
O21 C13 1.253 . S
O22 Co6 1.958 . S
O22 C40 1.278 . S
O23 Co0 1.950 . S
O23 C27 1.277 . S
O24 Co0 2.057 . S
O24 C39 1.263 . S
O25 Co12 2.042 . S
O25 C40 1.237 . S
O26 Co6 2.057 . S
O26 C13 1.263 . S
C27 O17 1.221 . S
C27 O23 1.277 . S
C28 C11 1.361 . S
C28 H29 0.960 . S
C28 H30 0.961 . S
C28 H31 0.961 . S
H29 C28 0.960 . S
H30 C28 0.961 . S
H31 C28 0.961 . S
C32 O16 1.221 . S
C32 O20 1.277 . S
C33 O18 1.237 . S
C33 O19 1.278 . S
H34 C2 0.931 . S
H35 C38 0.961 . S
H36 C38 0.961 . S
H37 C38 0.960 . S
C38 C4 1.361 . S
C38 H35 0.961 . S
C38 H36 0.961 . S
C38 H37 0.960 . S
C39 O15 1.253 . S
C39 O24 1.263 . S
C40 O22 1.278 . S
C40 O25 1.237 . S
H41 C5 0.930 . S
H42 C9 0.930 . S
Co43 N44 2.034 . S
Co43 O58 2.262 . S
Co43 O62 1.958 . S
Co43 O66 1.950 . S
Co43 O67 2.057 . S
N44 Co43 2.034 . S
N44 C45 1.366 1_545 S
N44 C47 1.332 1_545 S
C45 N44 1.366 1_565 S
C45 C48 1.377 . S
C45 H77 0.931 . S
N46 C47 1.346 . S
N46 C48 1.337 . S
C47 N44 1.332 1_565 S
C47 N46 1.346 . S
C47 C81 1.361 1_565 S
C48 C45 1.377 . S
C48 N46 1.337 . S
C48 H84 0.930 . S
Co49 N50 2.034 . S
Co49 O63 1.950 . S
Co49 O64 2.262 . S
Co49 O65 1.958 . S
Co49 O69 2.057 . S
N50 Co49 2.034 . S
N50 C53 1.366 . S
N50 C54 1.332 . S
N51 C52 1.337 . S
N51 C54 1.346 . S
C52 N51 1.337 . S
C52 C53 1.377 . S
C52 H85 0.930 . S
C53 N50 1.366 . S
C53 C52 1.377 . S
C53 H57 0.931 . S
C54 N50 1.332 . S
C54 N51 1.346 . S
C54 C71 1.361 . S
Co55 O58 2.097 . S
Co55 O59 2.065 . S
Co55 O60 2.065 . S
Co55 O61 2.042 . S
Co55 O64 2.097 . S
Co55 O68 2.042 . S
C56 O64 1.253 . S
C56 O69 1.263 . S
H57 C53 0.931 . S
O58 Co43 2.262 . S
O58 Co55 2.097 . S
O58 C82 1.253 . S
O59 Co55 2.065 . S
O59 C75 1.221 . S
O60 Co55 2.065 . S
O60 C70 1.221 . S
O61 Co55 2.042 . S
O61 C76 1.237 . S
O62 Co43 1.958 . S
O62 C76 1.278 . S
O63 Co49 1.950 . S
O63 C75 1.277 . S
O64 Co49 2.262 . S
O64 Co55 2.097 . S
O64 C56 1.253 . S
O65 Co49 1.958 . S
O65 C83 1.278 . S
O66 Co43 1.950 . S
O66 C70 1.277 . S
O67 Co43 2.057 . S
O67 C82 1.263 . S
O68 Co55 2.042 . S
O68 C83 1.237 . S
O69 Co49 2.057 . S
O69 C56 1.263 . S
C70 O60 1.221 . S
C70 O66 1.277 . S
C71 C54 1.361 . S
C71 H72 0.960 . S
C71 H73 0.961 . S
C71 H74 0.961 . S
H72 C71 0.960 . S
H73 C71 0.961 . S
H74 C71 0.961 . S
C75 O59 1.221 . S
C75 O63 1.277 . S
C76 O61 1.237 . S
C76 O62 1.278 . S
H77 C45 0.931 . S
H78 C81 0.961 . S
H79 C81 0.961 1_565 S
H80 C81 0.960 . S
C81 C47 1.361 1_545 S
C81 H78 0.961 . S
C81 H79 0.961 1_545 S
C81 H80 0.960 . S
C82 O58 1.253 . S
C82 O67 1.263 . S
C83 O65 1.278 . S
C83 O68 1.237 . S
H84 C48 0.930 . S
H85 C52 0.930 . S
Co86 N87 2.034 . S
Co86 O101 2.262 . S
Co86 O105 1.958 . S
Co86 O109 1.950 . S
Co86 O110 2.057 . S
N87 Co86 2.034 . S
N87 C88 1.366 . S
N87 C90 1.332 . S
C88 N87 1.366 . S
C88 C91 1.377 . S
C88 H120 0.931 . S
N89 C90 1.346 . S
N89 C91 1.337 . S
C90 N87 1.332 . S
C90 N89 1.346 . S
C90 C124 1.361 . S
C91 C88 1.377 . S
C91 N89 1.337 . S
C91 H127 0.930 . S
Co92 N93 2.034 . S
Co92 O106 1.950 . S
Co92 O107 2.262 . S
Co92 O108 1.958 . S
Co92 O112 2.057 . S
N93 Co92 2.034 . S
N93 C96 1.366 . S
N93 C97 1.332 . S
N94 C95 1.337 . S
N94 C97 1.346 . S
C95 N94 1.337 . S
C95 C96 1.377 . S
C95 H128 0.930 . S
C96 N93 1.366 . S
C96 C95 1.377 . S
C96 H100 0.931 . S
C97 N93 1.332 . S
C97 N94 1.346 . S
C97 C114 1.361 . S
Co98 O101 2.097 . S
Co98 O102 2.065 . S
Co98 O103 2.065 . S
Co98 O104 2.042 . S
Co98 O107 2.097 . S
Co98 O111 2.042 . S
C99 O107 1.253 . S
C99 O112 1.263 . S
H100 C96 0.931 . S
O101 Co86 2.262 . S
O101 Co98 2.097 . S
O101 C125 1.253 . S
O102 Co98 2.065 . S
O102 C118 1.221 . S
O103 Co98 2.065 . S
O103 C113 1.221 . S
O104 Co98 2.042 . S
O104 C119 1.237 . S
O105 Co86 1.958 . S
O105 C119 1.278 . S
O106 Co92 1.950 . S
O106 C118 1.277 . S
O107 Co92 2.262 . S
O107 Co98 2.097 . S
O107 C99 1.253 . S
O108 Co92 1.958 . S
O108 C126 1.278 . S
O109 Co86 1.950 . S
O109 C113 1.277 . S
O110 Co86 2.057 . S
O110 C125 1.263 . S
O111 Co98 2.042 . S
O111 C126 1.237 . S
O112 Co92 2.057 . S
O112 C99 1.263 . S
C113 O103 1.221 . S
C113 O109 1.277 . S
C114 C97 1.361 . S
C114 H115 0.960 . S
C114 H116 0.961 . S
C114 H117 0.961 . S
H115 C114 0.960 . S
H116 C114 0.961 . S
H117 C114 0.961 . S
C118 O102 1.221 . S
C118 O106 1.277 . S
C119 O104 1.237 . S
C119 O105 1.278 . S
H120 C88 0.931 . S
H121 C124 0.961 . S
H122 C124 0.961 . S
H123 C124 0.960 . S
C124 C90 1.361 . S
C124 H121 0.961 . S
C124 H122 0.961 . S
C124 H123 0.960 . S
C125 O101 1.253 . S
C125 O110 1.263 . S
C126 O108 1.278 . S
C126 O111 1.237 . S
H127 C91 0.930 . S
H128 C95 0.930 . S
Co129 N130 2.034 . S
Co129 O144 2.262 . S
Co129 O148 1.958 . S
Co129 O152 1.950 . S
Co129 O153 2.057 . S
N130 Co129 2.034 . S
N130 C131 1.366 1_655 S
N130 C133 1.332 1_655 S
C131 N130 1.366 1_455 S
C131 C134 1.377 . S
C131 H163 0.931 . S
N132 C133 1.346 . S
N132 C134 1.337 . S
C133 N130 1.332 1_455 S
C133 N132 1.346 . S
C133 C167 1.361 1_455 S
C134 C131 1.377 . S
C134 N132 1.337 . S
C134 H170 0.930 . S
Co135 N136 2.034 . S
Co135 O149 1.950 . S
Co135 O150 2.262 . S
Co135 O151 1.958 . S
Co135 O155 2.057 . S
N136 Co135 2.034 . S
N136 C139 1.366 . S
N136 C140 1.332 . S
N137 C138 1.337 . S
N137 C140 1.346 . S
C138 N137 1.337 . S
C138 C139 1.377 . S
C138 H171 0.930 . S
C139 N136 1.366 . S
C139 C138 1.377 . S
C139 H143 0.931 . S
C140 N136 1.332 . S
C140 N137 1.346 . S
C140 C157 1.361 . S
Co141 O144 2.097 . S
Co141 O145 2.065 . S
Co141 O146 2.065 . S
Co141 O147 2.042 . S
Co141 O150 2.097 . S
Co141 O154 2.042 . S
C142 O150 1.253 . S
C142 O155 1.263 . S
H143 C139 0.931 . S
O144 Co129 2.262 . S
O144 Co141 2.097 . S
O144 C168 1.253 . S
O145 Co141 2.065 . S
O145 C161 1.221 . S
O146 Co141 2.065 . S
O146 C156 1.221 . S
O147 Co141 2.042 . S
O147 C162 1.237 . S
O148 Co129 1.958 . S
O148 C162 1.278 . S
O149 Co135 1.950 . S
O149 C161 1.277 . S
O150 Co135 2.262 . S
O150 Co141 2.097 . S
O150 C142 1.253 . S
O151 Co135 1.958 . S
O151 C169 1.278 . S
O152 Co129 1.950 . S
O152 C156 1.277 . S
O153 Co129 2.057 . S
O153 C168 1.263 . S
O154 Co141 2.042 . S
O154 C169 1.237 . S
O155 Co135 2.057 . S
O155 C142 1.263 . S
C156 O146 1.221 . S
C156 O152 1.277 . S
C157 C140 1.361 . S
C157 H158 0.960 . S
C157 H159 0.961 . S
C157 H160 0.961 . S
H158 C157 0.960 . S
H159 C157 0.961 . S
H160 C157 0.961 . S
C161 O145 1.221 . S
C161 O149 1.277 . S
C162 O147 1.237 . S
C162 O148 1.278 . S
H163 C131 0.931 . S
H164 C167 0.961 . S
H165 C167 0.961 1_455 S
H166 C167 0.960 . S
C167 C133 1.361 1_655 S
C167 H164 0.961 . S
C167 H165 0.961 1_655 S
C167 H166 0.960 . S
C168 O144 1.253 . S
C168 O153 1.263 . S
C169 O151 1.278 . S
C169 O154 1.237 . S
H170 C134 0.930 . S
H171 C138 0.930 . S
Co172 N173 2.034 . S
Co172 O187 2.262 . S
Co172 O191 1.958 . S
Co172 O195 1.950 . S
Co172 O196 2.057 . S
N173 Co172 2.034 . S
N173 C174 1.366 . S
N173 C176 1.332 . S
C174 N173 1.366 . S
C174 C177 1.377 . S
C174 H206 0.931 . S
N175 C176 1.346 . S
N175 C177 1.337 . S
C176 N173 1.332 . S
C176 N175 1.346 . S
C176 C210 1.361 . S
C177 C174 1.377 . S
C177 N175 1.337 . S
C177 H213 0.930 . S
Co178 N179 2.034 . S
Co178 O192 1.950 . S
Co178 O193 2.262 . S
Co178 O194 1.958 . S
Co178 O198 2.057 . S
N179 Co178 2.034 . S
N179 C182 1.366 . S
N179 C183 1.332 1_565 S
N180 C181 1.337 . S
N180 C183 1.346 . S
C181 N180 1.337 . S
C181 C182 1.377 1_545 S
C181 H214 0.930 . S
C182 N179 1.366 . S
C182 C181 1.377 1_565 S
C182 H186 0.931 . S
C183 N179 1.332 1_545 S
C183 N180 1.346 . S
C183 C200 1.361 . S
Co184 O187 2.097 . S
Co184 O188 2.065 . S
Co184 O189 2.065 . S
Co184 O190 2.042 . S
Co184 O193 2.097 . S
Co184 O197 2.042 . S
C185 O193 1.253 . S
C185 O198 1.263 . S
H186 C182 0.931 . S
O187 Co172 2.262 . S
O187 Co184 2.097 . S
O187 C211 1.253 . S
O188 Co184 2.065 . S
O188 C204 1.221 . S
O189 Co184 2.065 . S
O189 C199 1.221 . S
O190 Co184 2.042 . S
O190 C205 1.237 . S
O191 Co172 1.958 . S
O191 C205 1.278 . S
O192 Co178 1.950 . S
O192 C204 1.277 . S
O193 Co178 2.262 . S
O193 Co184 2.097 . S
O193 C185 1.253 . S
O194 Co178 1.958 . S
O194 C212 1.278 . S
O195 Co172 1.950 . S
O195 C199 1.277 . S
O196 Co172 2.057 . S
O196 C211 1.263 . S
O197 Co184 2.042 . S
O197 C212 1.237 . S
O198 Co178 2.057 . S
O198 C185 1.263 . S
C199 O189 1.221 . S
C199 O195 1.277 . S
C200 C183 1.361 . S
C200 H201 0.960 . S
C200 H202 0.961 . S
C200 H203 0.961 . S
H201 C200 0.960 . S
H202 C200 0.961 . S
H203 C200 0.961 . S
C204 O188 1.221 . S
C204 O192 1.277 . S
C205 O190 1.237 . S
C205 O191 1.278 . S
H206 C174 0.931 . S
H207 C210 0.961 . S
H208 C210 0.961 . S
H209 C210 0.960 . S
C210 C176 1.361 . S
C210 H207 0.961 . S
C210 H208 0.961 . S
C210 H209 0.960 . S
C211 O187 1.253 . S
C211 O196 1.263 . S
C212 O194 1.278 . S
C212 O197 1.237 . S
H213 C177 0.930 . S
H214 C181 0.930 . S
Co215 N216 2.034 . S
Co215 O230 2.262 . S
Co215 O234 1.958 . S
Co215 O238 1.950 . S
Co215 O239 2.057 . S
N216 Co215 2.034 . S
N216 C217 1.366 . S
N216 C219 1.332 . S
C217 N216 1.366 . S
C217 C220 1.377 . S
C217 H249 0.931 . S
N218 C219 1.346 . S
N218 C220 1.337 . S
C219 N216 1.332 . S
C219 N218 1.346 . S
C219 C253 1.361 . S
C220 C217 1.377 . S
C220 N218 1.337 . S
C220 H256 0.930 . S
Co221 N222 2.034 . S
Co221 O235 1.950 . S
Co221 O236 2.262 . S
Co221 O237 1.958 . S
Co221 O241 2.057 . S
N222 Co221 2.034 . S
N222 C225 1.366 . S
N222 C226 1.332 . S
N223 C224 1.337 . S
N223 C226 1.346 . S
C224 N223 1.337 . S
C224 C225 1.377 . S
C224 H257 0.930 . S
C225 N222 1.366 . S
C225 C224 1.377 . S
C225 H229 0.931 . S
C226 N222 1.332 . S
C226 N223 1.346 . S
C226 C243 1.361 . S
Co227 O230 2.097 . S
Co227 O231 2.065 . S
Co227 O232 2.065 . S
Co227 O233 2.042 . S
Co227 O236 2.097 . S
Co227 O240 2.042 . S
C228 O236 1.253 . S
C228 O241 1.263 . S
H229 C225 0.931 . S
O230 Co215 2.262 . S
O230 Co227 2.097 . S
O230 C254 1.253 . S
O231 Co227 2.065 . S
O231 C247 1.221 . S
O232 Co227 2.065 . S
O232 C242 1.221 . S
O233 Co227 2.042 . S
O233 C248 1.237 . S
O234 Co215 1.958 . S
O234 C248 1.278 . S
O235 Co221 1.950 . S
O235 C247 1.277 . S
O236 Co221 2.262 . S
O236 Co227 2.097 . S
O236 C228 1.253 . S
O237 Co221 1.958 . S
O237 C255 1.278 . S
O238 Co215 1.950 . S
O238 C242 1.277 . S
O239 Co215 2.057 . S
O239 C254 1.263 . S
O240 Co227 2.042 . S
O240 C255 1.237 . S
O241 Co221 2.057 . S
O241 C228 1.263 . S
C242 O232 1.221 . S
C242 O238 1.277 . S
C243 C226 1.361 . S
C243 H244 0.960 . S
C243 H245 0.961 . S
C243 H246 0.961 . S
H244 C243 0.960 . S
H245 C243 0.961 . S
H246 C243 0.961 . S
C247 O231 1.221 . S
C247 O235 1.277 . S
C248 O233 1.237 . S
C248 O234 1.278 . S
H249 C217 0.931 . S
H250 C253 0.961 . S
H251 C253 0.961 . S
H252 C253 0.960 . S
C253 C219 1.361 . S
C253 H250 0.961 . S
C253 H251 0.961 . S
C253 H252 0.960 . S
C254 O230 1.253 . S
C254 O239 1.263 . S
C255 O237 1.278 . S
C255 O240 1.237 . S
H256 C220 0.930 . S
H257 C224 0.930 . S
H258 C266 0.929 . S
H259 C268 0.930 . S
H260 C270 0.930 . S
H261 C273 0.929 . S
H262 C276 0.930 . S
H263 C278 0.960 . S
H264 C278 0.960 . S
H265 C278 0.960 . S
C266 H258 0.929 . S
C266 C267 1.377 . S
C266 C268 1.384 . S
C267 C266 1.377 . S
C267 C273 1.390 . S
C268 H259 0.930 . S
C268 C266 1.384 . S
C268 C269 1.372 . S
C269 C268 1.372 . S
C269 C270 1.400 . S
C269 C274 1.490 . S
C270 H260 0.930 . S
C270 C269 1.400 . S
C270 C273 1.386 . S
H271 C287 0.930 . S
H272 C288 0.931 . S
C273 H261 0.929 . S
C273 C267 1.390 . S
C273 C270 1.386 . S
C274 C269 1.490 . S
C274 C276 1.395 . S
C274 C277 1.403 . S
H275 C281 0.930 . S
C276 H262 0.930 . S
C276 C274 1.395 . S
C276 C279 1.403 . S
C277 C274 1.403 . S
C277 C278 1.524 . S
C277 C281 1.400 . S
C278 H263 0.960 . S
C278 H264 0.960 . S
C278 H265 0.960 . S
C278 C277 1.524 . S
C279 C276 1.403 . S
C279 C280 1.392 . S
C279 C283 1.495 . S
C280 C279 1.392 . S
C280 C281 1.385 . S
C280 C282 1.478 . S
C281 H275 0.930 . S
C281 C277 1.400 . S
C281 C280 1.385 . S
C282 C280 1.478 . S
C282 C284 1.381 . S
C282 C288 1.383 . S
C283 C279 1.495 . S
C283 H289 0.959 . S
C283 H290 0.961 . S
C283 H291 0.960 . S
C284 C282 1.381 . S
C284 C285 1.394 . S
C284 H292 0.930 . S
C285 C284 1.394 . S
C285 C286 1.383 . S
C285 H293 0.929 . S
C286 C285 1.383 . S
C286 C287 1.377 . S
C287 H271 0.930 . S
C287 C286 1.377 . S
C287 C288 1.379 . S
C288 H272 0.931 . S
C288 C282 1.383 . S
C288 C287 1.379 . S
H289 C283 0.959 . S
H290 C283 0.961 . S
H291 C283 0.960 . S
H292 C284 0.930 . S
H293 C285 0.929 . S
H294 C302 0.929 . S
H295 C304 0.930 . S
H296 C306 0.930 . S
H297 C309 0.929 . S
H298 C312 0.930 . S
H299 C314 0.960 . S
H300 C314 0.960 . S
H301 C314 0.960 . S
C302 H294 0.929 . S
C302 C303 1.377 . S
C302 C304 1.384 . S
C303 C302 1.377 . S
C303 C309 1.390 . S
C304 H295 0.930 . S
C304 C302 1.384 . S
C304 C305 1.372 . S
C305 C304 1.372 . S
C305 C306 1.400 . S
C305 C310 1.490 . S
C306 H296 0.930 . S
C306 C305 1.400 . S
C306 C309 1.386 . S
H307 C323 0.930 . S
H308 C324 0.931 . S
C309 H297 0.929 . S
C309 C303 1.390 . S
C309 C306 1.386 . S
C310 C305 1.490 . S
C310 C312 1.395 . S
C310 C313 1.403 . S
H311 C317 0.930 . S
C312 H298 0.930 . S
C312 C310 1.395 . S
C312 C315 1.403 . S
C313 C310 1.403 . S
C313 C314 1.524 . S
C313 C317 1.400 . S
C314 H299 0.960 . S
C314 H300 0.960 . S
C314 H301 0.960 . S
C314 C313 1.524 . S
C315 C312 1.403 . S
C315 C316 1.392 . S
C315 C319 1.495 . S
C316 C315 1.392 . S
C316 C317 1.385 . S
C316 C318 1.478 . S
C317 H311 0.930 . S
C317 C313 1.400 . S
C317 C316 1.385 . S
C318 C316 1.478 . S
C318 C320 1.381 . S
C318 C324 1.383 . S
C319 C315 1.495 . S
C319 H325 0.959 . S
C319 H326 0.961 . S
C319 H327 0.960 . S
C320 C318 1.381 . S
C320 C321 1.394 . S
C320 H328 0.930 . S
C321 C320 1.394 . S
C321 C322 1.383 . S
C321 H329 0.929 . S
C322 C321 1.383 . S
C322 C323 1.377 . S
C323 H307 0.930 . S
C323 C322 1.377 . S
C323 C324 1.379 . S
C324 H308 0.931 . S
C324 C318 1.383 . S
C324 C323 1.379 . S
H325 C319 0.959 . S
H326 C319 0.961 . S
H327 C319 0.960 . S
H328 C320 0.930 . S
H329 C321 0.929 . S
H330 C338 0.929 . S
H331 C340 0.930 . S
H332 C342 0.930 . S
H333 C345 0.929 . S
H334 C348 0.930 . S
H335 C350 0.960 . S
H336 C350 0.960 . S
H337 C350 0.960 . S
C338 H330 0.929 . S
C338 C339 1.377 . S
C338 C340 1.384 . S
C339 C338 1.377 . S
C339 C345 1.390 . S
C340 H331 0.930 . S
C340 C338 1.384 . S
C340 C341 1.372 . S
C341 C340 1.372 . S
C341 C342 1.400 . S
C341 C346 1.490 . S
C342 H332 0.930 . S
C342 C341 1.400 . S
C342 C345 1.386 . S
H343 C359 0.930 . S
H344 C360 0.931 . S
C345 H333 0.929 . S
C345 C339 1.390 . S
C345 C342 1.386 . S
C346 C341 1.490 . S
C346 C348 1.395 . S
C346 C349 1.403 . S
H347 C353 0.930 . S
C348 H334 0.930 . S
C348 C346 1.395 . S
C348 C351 1.403 . S
C349 C346 1.403 . S
C349 C350 1.524 . S
C349 C353 1.400 . S
C350 H335 0.960 . S
C350 H336 0.960 . S
C350 H337 0.960 . S
C350 C349 1.524 . S
C351 C348 1.403 . S
C351 C352 1.392 . S
C351 C355 1.495 . S
C352 C351 1.392 . S
C352 C353 1.385 . S
C352 C354 1.478 . S
C353 H347 0.930 . S
C353 C349 1.400 . S
C353 C352 1.385 . S
C354 C352 1.478 . S
C354 C356 1.381 . S
C354 C360 1.383 . S
C355 C351 1.495 . S
C355 H361 0.959 . S
C355 H362 0.961 . S
C355 H363 0.960 . S
C356 C354 1.381 . S
C356 C357 1.394 . S
C356 H364 0.930 . S
C357 C356 1.394 . S
C357 C358 1.383 . S
C357 H365 0.929 . S
C358 C357 1.383 . S
C358 C359 1.377 . S
C359 H343 0.930 . S
C359 C358 1.377 . S
C359 C360 1.379 . S
C360 H344 0.931 . S
C360 C354 1.383 . S
C360 C359 1.379 . S
H361 C355 0.959 . S
H362 C355 0.961 . S
H363 C355 0.960 . S
H364 C356 0.930 . S
H365 C357 0.929 . S
H366 C374 0.929 . S
H367 C376 0.930 . S
H368 C378 0.930 . S
H369 C381 0.929 . S
H370 C384 0.930 . S
H371 C386 0.960 . S
H372 C386 0.960 . S
H373 C386 0.960 . S
C374 H366 0.929 . S
C374 C375 1.377 . S
C374 C376 1.384 . S
C375 C374 1.377 . S
C375 C381 1.390 . S
C376 H367 0.930 . S
C376 C374 1.384 . S
C376 C377 1.372 . S
C377 C376 1.372 . S
C377 C378 1.400 . S
C377 C382 1.490 . S
C378 H368 0.930 . S
C378 C377 1.400 . S
C378 C381 1.386 . S
H379 C395 0.930 . S
H380 C396 0.931 . S
C381 H369 0.929 . S
C381 C375 1.390 . S
C381 C378 1.386 . S
C382 C377 1.490 . S
C382 C384 1.395 . S
C382 C385 1.403 . S
H383 C389 0.930 . S
C384 H370 0.930 . S
C384 C382 1.395 . S
C384 C387 1.403 . S
C385 C382 1.403 . S
C385 C386 1.524 . S
C385 C389 1.400 . S
C386 H371 0.960 . S
C386 H372 0.960 . S
C386 H373 0.960 . S
C386 C385 1.524 . S
C387 C384 1.403 . S
C387 C388 1.392 . S
C387 C391 1.495 . S
C388 C387 1.392 . S
C388 C389 1.385 . S
C388 C390 1.478 . S
C389 H383 0.930 . S
C389 C385 1.400 . S
C389 C388 1.385 . S
C390 C388 1.478 . S
C390 C392 1.381 . S
C390 C396 1.383 . S
C391 C387 1.495 . S
C391 H397 0.959 . S
C391 H398 0.961 . S
C391 H399 0.960 . S
C392 C390 1.381 . S
C392 C393 1.394 . S
C392 H400 0.930 . S
C393 C392 1.394 . S
C393 C394 1.383 . S
C393 H401 0.929 . S
C394 C393 1.383 . S
C394 C395 1.377 . S
C395 H379 0.930 . S
C395 C394 1.377 . S
C395 C396 1.379 . S
C396 H380 0.931 . S
C396 C390 1.383 . S
C396 C395 1.379 . S
H397 C391 0.959 . S
H398 C391 0.961 . S
H399 C391 0.960 . S
H400 C392 0.930 . S
H401 C393 0.929 . S
H402 C410 0.929 . S
H403 C412 0.930 . S
H404 C414 0.930 . S
H405 C417 0.929 . S
H406 C420 0.930 . S
H407 C422 0.960 . S
H408 C422 0.960 . S
H409 C422 0.960 . S
C410 H402 0.929 . S
C410 C411 1.377 . S
C410 C412 1.384 . S
C411 C410 1.377 . S
C411 C417 1.390 . S
C412 H403 0.930 . S
C412 C410 1.384 . S
C412 C413 1.372 . S
C413 C412 1.372 . S
C413 C414 1.400 . S
C413 C418 1.490 . S
C414 H404 0.930 . S
C414 C413 1.400 . S
C414 C417 1.386 . S
H415 C431 0.930 . S
H416 C432 0.931 . S
C417 H405 0.929 . S
C417 C411 1.390 . S
C417 C414 1.386 . S
C418 C413 1.490 . S
C418 C420 1.395 . S
C418 C421 1.403 . S
H419 C425 0.930 . S
C420 H406 0.930 . S
C420 C418 1.395 . S
C420 C423 1.403 . S
C421 C418 1.403 . S
C421 C422 1.524 . S
C421 C425 1.400 . S
C422 H407 0.960 . S
C422 H408 0.960 . S
C422 H409 0.960 . S
C422 C421 1.524 . S
C423 C420 1.403 . S
C423 C424 1.392 . S
C423 C427 1.495 . S
C424 C423 1.392 . S
C424 C425 1.385 . S
C424 C426 1.478 . S
C425 H419 0.930 . S
C425 C421 1.400 . S
C425 C424 1.385 . S
C426 C424 1.478 . S
C426 C428 1.381 . S
C426 C432 1.383 . S
C427 C423 1.495 . S
C427 H433 0.959 . S
C427 H434 0.961 . S
C427 H435 0.960 . S
C428 C426 1.381 . S
C428 C429 1.394 . S
C428 H436 0.930 . S
C429 C428 1.394 . S
C429 C430 1.383 . S
C429 H437 0.929 . S
C430 C429 1.383 . S
C430 C431 1.377 . S
C431 H415 0.930 . S
C431 C430 1.377 . S
C431 C432 1.379 . S
C432 H416 0.931 . S
C432 C426 1.383 . S
C432 C431 1.379 . S
H433 C427 0.959 . S
H434 C427 0.961 . S
H435 C427 0.960 . S
H436 C428 0.930 . S
H437 C429 0.929 . S
H438 C446 0.929 . S
H439 C448 0.930 . S
H440 C450 0.930 . S
H441 C453 0.929 . S
H442 C456 0.930 . S
H443 C458 0.960 . S
H444 C458 0.960 . S
H445 C458 0.960 . S
C446 H438 0.929 . S
C446 C447 1.377 . S
C446 C448 1.384 . S
C447 C446 1.377 . S
C447 C453 1.390 . S
C448 H439 0.930 . S
C448 C446 1.384 . S
C448 C449 1.372 . S
C449 C448 1.372 . S
C449 C450 1.400 . S
C449 C454 1.490 . S
C450 H440 0.930 . S
C450 C449 1.400 . S
C450 C453 1.386 . S
H451 C467 0.930 . S
H452 C468 0.931 . S
C453 H441 0.929 . S
C453 C447 1.390 . S
C453 C450 1.386 . S
C454 C449 1.490 . S
C454 C456 1.395 . S
C454 C457 1.403 . S
H455 C461 0.930 . S
C456 H442 0.930 . S
C456 C454 1.395 . S
C456 C459 1.403 . S
C457 C454 1.403 . S
C457 C458 1.524 . S
C457 C461 1.400 . S
C458 H443 0.960 . S
C458 H444 0.960 . S
C458 H445 0.960 . S
C458 C457 1.524 . S
C459 C456 1.403 . S
C459 C460 1.392 . S
C459 C463 1.495 . S
C460 C459 1.392 . S
C460 C461 1.385 . S
C460 C462 1.478 . S
C461 H455 0.930 . S
C461 C457 1.400 . S
C461 C460 1.385 . S
C462 C460 1.478 . S
C462 C464 1.381 . S
C462 C468 1.383 . S
C463 C459 1.495 . S
C463 H469 0.959 . S
C463 H470 0.961 . S
C463 H471 0.960 . S
C464 C462 1.381 . S
C464 C465 1.394 . S
C464 H472 0.930 . S
C465 C464 1.394 . S
C465 C466 1.383 . S
C465 H473 0.929 . S
C466 C465 1.383 . S
C466 C467 1.377 . S
C467 H451 0.930 . S
C467 C466 1.377 . S
C467 C468 1.379 . S
C468 H452 0.931 . S
C468 C462 1.383 . S
C468 C467 1.379 . S
H469 C463 0.959 . S
H470 C463 0.961 . S
H471 C463 0.960 . S
H472 C464 0.930 . S
H473 C465 0.929 . S
H474 C482 0.929 . S
H475 C484 0.930 . S
H476 C486 0.930 . S
H477 C489 0.929 . S
H478 C492 0.930 . S
H479 C494 0.960 . S
H480 C494 0.960 . S
H481 C494 0.960 . S
C482 H474 0.929 . S
C482 C483 1.377 . S
C482 C484 1.384 . S
C483 C482 1.377 . S
C483 C489 1.390 . S
C484 H475 0.930 . S
C484 C482 1.384 . S
C484 C485 1.372 . S
C485 C484 1.372 . S
C485 C486 1.400 . S
C485 C490 1.490 . S
C486 H476 0.930 . S
C486 C485 1.400 . S
C486 C489 1.386 . S
H487 C503 0.930 . S
H488 C504 0.931 . S
C489 H477 0.929 . S
C489 C483 1.390 . S
C489 C486 1.386 . S
C490 C485 1.490 . S
C490 C492 1.395 . S
C490 C493 1.403 . S
H491 C497 0.930 . S
C492 H478 0.930 . S
C492 C490 1.395 . S
C492 C495 1.403 . S
C493 C490 1.403 . S
C493 C494 1.524 . S
C493 C497 1.400 . S
C494 H479 0.960 . S
C494 H480 0.960 . S
C494 H481 0.960 . S
C494 C493 1.524 . S
C495 C492 1.403 . S
C495 C496 1.392 . S
C495 C499 1.495 . S
C496 C495 1.392 . S
C496 C497 1.385 . S
C496 C498 1.478 . S
C497 H491 0.930 . S
C497 C493 1.400 . S
C497 C496 1.385 . S
C498 C496 1.478 . S
C498 C500 1.381 . S
C498 C504 1.383 . S
C499 C495 1.495 . S
C499 H505 0.959 . S
C499 H506 0.961 . S
C499 H507 0.960 . S
C500 C498 1.381 . S
C500 C501 1.394 . S
C500 H508 0.930 . S
C501 C500 1.394 . S
C501 C502 1.383 . S
C501 H509 0.929 . S
C502 C501 1.383 . S
C502 C503 1.377 . S
C503 H487 0.930 . S
C503 C502 1.377 . S
C503 C504 1.379 . S
C504 H488 0.931 . S
C504 C498 1.383 . S
C504 C503 1.379 . S
H505 C499 0.959 . S
H506 C499 0.961 . S
H507 C499 0.960 . S
H508 C500 0.930 . S
H509 C501 0.929 . S
H510 C518 0.929 . S
H511 C520 0.930 . S
H512 C522 0.930 . S
H513 C525 0.929 . S
H514 C528 0.930 . S
H515 C530 0.960 1_455 S
H516 C530 0.960 . S
H517 C530 0.960 . S
C518 H510 0.929 . S
C518 C519 1.377 . S
C518 C520 1.384 . S
C519 C518 1.377 . S
C519 C525 1.390 . S
C520 H511 0.930 . S
C520 C518 1.384 . S
C520 C521 1.372 . S
C521 C520 1.372 . S
C521 C522 1.400 . S
C521 C526 1.490 . S
C522 H512 0.930 . S
C522 C521 1.400 . S
C522 C525 1.386 . S
H523 C539 0.930 . S
H524 C540 0.931 . S
C525 H513 0.929 . S
C525 C519 1.390 . S
C525 C522 1.386 . S
C526 C521 1.490 . S
C526 C528 1.395 . S
C526 C529 1.403 1_655 S
H527 C533 0.930 . S
C528 H514 0.930 . S
C528 C526 1.395 . S
C528 C531 1.403 1_655 S
C529 C526 1.403 1_455 S
C529 C530 1.524 1_455 S
C529 C533 1.400 . S
C530 H515 0.960 1_655 S
C530 H516 0.960 . S
C530 H517 0.960 . S
C530 C529 1.524 1_655 S
C531 C528 1.403 1_455 S
C531 C532 1.392 . S
C531 C535 1.495 . S
C532 C531 1.392 . S
C532 C533 1.385 . S
C532 C534 1.478 . S
C533 H527 0.930 . S
C533 C529 1.400 . S
C533 C532 1.385 . S
C534 C532 1.478 . S
C534 C536 1.381 . S
C534 C540 1.383 . S
C535 C531 1.495 . S
C535 H541 0.959 . S
C535 H542 0.961 . S
C535 H543 0.960 . S
C536 C534 1.381 . S
C536 C537 1.394 . S
C536 H544 0.930 . S
C537 C536 1.394 . S
C537 C538 1.383 . S
C537 H545 0.929 . S
C538 C537 1.383 . S
C538 C539 1.377 . S
C539 H523 0.930 . S
C539 C538 1.377 . S
C539 C540 1.379 . S
C540 H524 0.931 . S
C540 C534 1.383 . S
C540 C539 1.379 . S
H541 C535 0.959 . S
H542 C535 0.961 . S
H543 C535 0.960 . S
H544 C536 0.930 . S
H545 C537 0.929 . S
H546 C554 0.929 . S
H547 C556 0.930 . S
H548 C558 0.930 . S
H549 C561 0.929 . S
H550 C564 0.930 . S
H551 C566 0.960 . S
H552 C566 0.960 . S
H553 C566 0.960 . S
C554 H546 0.929 . S
C554 C555 1.377 . S
C554 C556 1.384 . S
C555 C554 1.377 . S
C555 C561 1.390 . S
C556 H547 0.930 . S
C556 C554 1.384 . S
C556 C557 1.372 . S
C557 C556 1.372 . S
C557 C558 1.400 . S
C557 C562 1.490 . S
C558 H548 0.930 . S
C558 C557 1.400 . S
C558 C561 1.386 . S
H559 C575 0.930 . S
H560 C576 0.931 . S
C561 H549 0.929 . S
C561 C555 1.390 . S
C561 C558 1.386 . S
C562 C557 1.490 . S
C562 C564 1.395 . S
C562 C565 1.403 . S
H563 C569 0.968 . S
C564 H550 0.930 . S
C564 C562 1.395 . S
C564 C567 1.403 . S
C565 C562 1.403 . S
C565 C566 1.524 . S
C565 C569 1.371 1_545 S
C566 H551 0.960 . S
C566 H552 0.960 . S
C566 H553 0.960 . S
C566 C565 1.524 . S
C567 C564 1.403 . S
C567 C568 1.392 1_545 S
C567 C571 1.488 . S
C568 C567 1.392 1_565 S
C568 C569 1.379 . S
C568 C570 1.478 . S
C569 H563 0.968 . S
C569 C565 1.371 1_565 S
C569 C568 1.379 . S
C570 C568 1.478 . S
C570 C572 1.381 . S
C570 C576 1.383 . S
C571 C567 1.488 . S
C571 H577 0.998 . S
C571 H578 0.958 1_545 S
C571 H579 0.934 1_545 S
C572 C570 1.381 . S
C572 C573 1.394 . S
C572 H580 0.930 . S
C573 C572 1.394 . S
C573 C574 1.383 . S
C573 H581 0.929 . S
C574 C573 1.383 . S
C574 C575 1.377 . S
C575 H559 0.930 . S
C575 C574 1.377 . S
C575 C576 1.379 . S
C576 H560 0.931 . S
C576 C570 1.383 . S
C576 C575 1.379 . S
H577 C571 0.998 . S
H578 C571 0.958 1_565 S
H579 C571 0.934 1_565 S
H580 C572 0.930 . S
H581 C573 0.929 . S
H582 C590 0.929 . S
H583 C592 0.930 . S
H584 C594 0.930 . S
H585 C597 0.929 . S
H586 C600 0.930 . S
H587 C602 0.960 . S
H588 C602 0.960 . S
H589 C602 0.960 . S
C590 H582 0.929 . S
C590 C591 1.377 . S
C590 C592 1.384 . S
C591 C590 1.377 . S
C591 C597 1.390 . S
C592 H583 0.930 . S
C592 C590 1.384 . S
C592 C593 1.372 . S
C593 C592 1.372 . S
C593 C594 1.400 . S
C593 C598 1.490 . S
C594 H584 0.930 . S
C594 C593 1.400 . S
C594 C597 1.386 . S
H595 C611 0.930 . S
H596 C612 0.931 . S
C597 H585 0.929 . S
C597 C591 1.390 . S
C597 C594 1.386 . S
C598 C593 1.490 . S
C598 C600 1.395 . S
C598 C601 1.403 . S
H599 C605 0.930 . S
C600 H586 0.930 . S
C600 C598 1.395 . S
C600 C603 1.403 . S
C601 C598 1.403 . S
C601 C602 1.524 . S
C601 C605 1.400 . S
C602 H587 0.960 . S
C602 H588 0.960 . S
C602 H589 0.960 . S
C602 C601 1.524 . S
C603 C600 1.403 . S
C603 C604 1.392 . S
C603 C607 1.495 . S
C604 C603 1.392 . S
C604 C605 1.385 . S
C604 C606 1.478 . S
C605 H599 0.930 . S
C605 C601 1.400 . S
C605 C604 1.385 . S
C606 C604 1.478 . S
C606 C608 1.381 . S
C606 C612 1.383 . S
C607 C603 1.495 . S
C607 H613 0.959 . S
C607 H614 0.961 . S
C607 H615 0.960 . S
C608 C606 1.381 . S
C608 C609 1.394 . S
C608 H616 0.930 . S
C609 C608 1.394 . S
C609 C610 1.383 . S
C609 H617 0.929 . S
C610 C609 1.383 . S
C610 C611 1.377 . S
C611 H595 0.930 . S
C611 C610 1.377 . S
C611 C612 1.379 . S
C612 H596 0.931 . S
C612 C606 1.383 . S
C612 C611 1.379 . S
H613 C607 0.959 . S
H614 C607 0.961 . S
H615 C607 0.960 . S
H616 C608 0.930 . S
H617 C609 0.929 . S
H618 C626 0.929 . S
H619 C628 0.930 . S
H620 C630 0.930 . S
H621 C633 0.929 . S
H622 C636 0.930 . S
H623 C638 0.960 . S
H624 C638 0.960 . S
H625 C638 0.960 . S
C626 H618 0.929 . S
C626 C627 1.377 . S
C626 C628 1.384 . S
C627 C626 1.377 . S
C627 C633 1.390 . S
C628 H619 0.930 . S
C628 C626 1.384 . S
C628 C629 1.372 . S
C629 C628 1.372 . S
C629 C630 1.400 . S
C629 C634 1.490 . S
C630 H620 0.930 . S
C630 C629 1.400 . S
C630 C633 1.386 . S
H631 C647 0.930 . S
H632 C648 0.931 . S
C633 H621 0.929 . S
C633 C627 1.390 . S
C633 C630 1.386 . S
C634 C629 1.490 . S
C634 C636 1.395 . S
C634 C637 1.403 . S
H635 C641 0.930 1_455 S
C636 H622 0.930 . S
C636 C634 1.395 . S
C636 C639 1.397 1_655 S
C637 C634 1.403 . S
C637 C638 1.524 . S
C637 C641 1.400 . S
C638 H623 0.960 . S
C638 H624 0.960 . S
C638 H625 0.960 . S
C638 C637 1.524 . S
C639 C636 1.397 1_455 S
C639 C640 1.398 . S
C639 C643 1.496 . S
C640 C639 1.398 . S
C640 C641 1.385 1_455 S
C640 C642 1.478 . S
C641 H635 0.930 1_655 S
C641 C637 1.400 . S
C641 C640 1.385 1_655 S
C642 C640 1.478 . S
C642 C644 1.381 . S
C642 C648 1.383 . S
C643 C639 1.496 . S
C643 H649 0.959 . S
C643 H650 0.961 . S
C643 H651 0.960 . S
C644 C642 1.381 . S
C644 C645 1.394 . S
C644 H652 0.930 . S
C645 C644 1.394 . S
C645 C646 1.383 . S
C645 H653 0.929 . S
C646 C645 1.383 . S
C646 C647 1.377 . S
C647 H631 0.930 . S
C647 C646 1.377 . S
C647 C648 1.379 . S
C648 H632 0.931 . S
C648 C642 1.383 . S
C648 C647 1.379 . S
H649 C643 0.959 . S
H650 C643 0.961 . S
H651 C643 0.960 . S
H652 C644 0.930 . S
H653 C645 0.929 . S
H654 C662 0.929 . S
H655 C664 0.930 . S
H656 C666 0.930 . S
H657 C669 0.929 . S
H658 C672 0.930 . S
H659 C674 0.960 1_565 S
H660 C674 0.960 . S
H661 C674 0.960 . S
C662 H654 0.929 . S
C662 C663 1.377 . S
C662 C664 1.384 . S
C663 C662 1.377 . S
C663 C669 1.390 . S
C664 H655 0.930 . S
C664 C662 1.384 . S
C664 C665 1.372 . S
C665 C664 1.372 . S
C665 C666 1.400 . S
C665 C670 1.490 . S
C666 H656 0.930 . S
C666 C665 1.400 . S
C666 C669 1.386 . S
H667 C683 0.930 . S
H668 C684 0.931 . S
C669 H657 0.929 . S
C669 C663 1.390 . S
C669 C666 1.386 . S
C670 C665 1.490 . S
C670 C672 1.395 . S
C670 C673 1.403 1_545 S
H671 C677 0.930 . S
C672 H658 0.930 . S
C672 C670 1.395 . S
C672 C675 1.403 1_545 S
C673 C670 1.403 1_565 S
C673 C674 1.524 1_565 S
C673 C677 1.400 . S
C674 H659 0.960 1_545 S
C674 H660 0.960 . S
C674 H661 0.960 . S
C674 C673 1.524 1_545 S
C675 C672 1.403 1_565 S
C675 C676 1.392 . S
C675 C679 1.495 . S
C676 C675 1.392 . S
C676 C677 1.385 . S
C676 C678 1.478 . S
C677 H671 0.930 . S
C677 C673 1.400 . S
C677 C676 1.385 . S
C678 C676 1.478 . S
C678 C680 1.381 . S
C678 C684 1.383 . S
C679 C675 1.495 . S
C679 H685 0.959 . S
C679 H686 0.961 . S
C679 H687 0.960 . S
C680 C678 1.381 . S
C680 C681 1.394 . S
C680 H688 0.930 . S
C681 C680 1.394 . S
C681 C682 1.383 . S
C681 H689 0.929 . S
C682 C681 1.383 . S
C682 C683 1.377 . S
C683 H667 0.930 . S
C683 C682 1.377 . S
C683 C684 1.379 . S
C684 H668 0.931 . S
C684 C678 1.383 . S
C684 C683 1.379 . S
H685 C679 0.959 . S
H686 C679 0.961 . S
H687 C679 0.960 . S
H688 C680 0.930 . S
H689 C681 0.929 . S
H690 C698 0.929 . S
H691 C700 0.930 . S
H692 C702 0.930 . S
H693 C705 0.929 . S
H694 C708 0.930 . S
H695 C710 0.960 . S
H696 C710 0.960 . S
H697 C710 0.960 . S
C698 H690 0.929 . S
C698 C699 1.377 . S
C698 C700 1.384 . S
C699 C698 1.377 . S
C699 C705 1.390 . S
C700 H691 0.930 . S
C700 C698 1.384 . S
C700 C701 1.372 . S
C701 C700 1.372 . S
C701 C702 1.400 . S
C701 C706 1.490 . S
C702 H692 0.930 . S
C702 C701 1.400 . S
C702 C705 1.386 . S
H703 C719 0.930 . S
H704 C720 0.931 . S
C705 H693 0.929 . S
C705 C699 1.390 . S
C705 C702 1.386 . S
C706 C701 1.490 . S
C706 C708 1.395 1_554 S
C706 C709 1.403 . S
H707 C713 0.930 . S
C708 H694 0.930 . S
C708 C706 1.395 1_556 S
C708 C711 1.403 . S
C709 C706 1.403 . S
C709 C710 1.524 . S
C709 C713 1.400 . S
C710 H695 0.960 . S
C710 H696 0.960 . S
C710 H697 0.960 . S
C710 C709 1.524 . S
C711 C708 1.403 . S
C711 C712 1.392 . S
C711 C715 1.495 . S
C712 C711 1.392 . S
C712 C713 1.385 1_556 S
C712 C714 1.478 . S
C713 H707 0.930 . S
C713 C709 1.400 . S
C713 C712 1.385 1_554 S
C714 C712 1.478 . S
C714 C716 1.381 . S
C714 C720 1.383 . S
C715 C711 1.495 . S
C715 H721 0.959 . S
C715 H722 0.961 . S
C715 H723 0.960 . S
C716 C714 1.381 . S
C716 C717 1.394 . S
C716 H724 0.930 . S
C717 C716 1.394 . S
C717 C718 1.383 . S
C717 H725 0.929 . S
C718 C717 1.383 . S
C718 C719 1.377 . S
C719 H703 0.930 . S
C719 C718 1.377 . S
C719 C720 1.379 . S
C720 H704 0.931 . S
C720 C714 1.383 . S
C720 C719 1.379 . S
H721 C715 0.959 . S
H722 C715 0.961 . S
H723 C715 0.960 . S
H724 C716 0.930 . S
H725 C717 0.929 . S
H726 C734 0.929 . S
H727 C736 0.930 . S
H728 C738 0.930 . S
H729 C741 0.929 . S
H730 C744 0.930 . S
H731 C746 0.960 . S
H732 C746 0.960 . S
H733 C746 0.960 . S
C734 H726 0.929 . S
C734 C735 1.377 . S
C734 C736 1.384 . S
C735 C734 1.377 . S
C735 C741 1.390 . S
C736 H727 0.930 . S
C736 C734 1.384 . S
C736 C737 1.372 . S
C737 C736 1.372 . S
C737 C738 1.400 . S
C737 C742 1.490 . S
C738 H728 0.930 . S
C738 C737 1.400 . S
C738 C741 1.386 . S
H739 C755 0.930 . S
H740 C756 0.931 . S
C741 H729 0.929 . S
C741 C735 1.390 . S
C741 C738 1.386 . S
C742 C737 1.490 . S
C742 C744 1.395 . S
C742 C745 1.403 . S
H743 C749 0.930 . S
C744 H730 0.930 . S
C744 C742 1.395 . S
C744 C747 1.403 . S
C745 C742 1.403 . S
C745 C746 1.524 . S
C745 C749 1.400 . S
C746 H731 0.960 . S
C746 H732 0.960 . S
C746 H733 0.960 . S
C746 C745 1.524 . S
C747 C744 1.403 . S
C747 C748 1.392 . S
C747 C751 1.495 . S
C748 C747 1.392 . S
C748 C749 1.385 . S
C748 C750 1.478 1_655 S
C749 H743 0.930 . S
C749 C745 1.400 . S
C749 C748 1.385 . S
C750 C748 1.478 1_455 S
C750 C752 1.381 . S
C750 C756 1.383 1_455 S
C751 C747 1.495 . S
C751 H757 0.959 . S
C751 H758 0.961 . S
C751 H759 0.960 1_655 S
C752 C750 1.381 . S
C752 C753 1.394 . S
C752 H760 0.930 . S
C753 C752 1.394 . S
C753 C754 1.383 . S
C753 H761 0.929 . S
C754 C753 1.383 . S
C754 C755 1.377 . S
C755 H739 0.930 . S
C755 C754 1.377 . S
C755 C756 1.379 1_455 S
C756 H740 0.931 . S
C756 C750 1.383 1_655 S
C756 C755 1.379 1_655 S
H757 C751 0.959 . S
H758 C751 0.961 . S
H759 C751 0.960 1_455 S
H760 C752 0.930 . S
H761 C753 0.929 . S
H762 C770 0.929 . S
H763 C772 0.930 . S
H764 C774 0.930 . S
H765 C777 0.929 . S
H766 C780 0.930 . S
H767 C782 0.960 . S
H768 C782 0.960 . S
H769 C782 0.960 . S
C770 H762 0.929 . S
C770 C771 1.377 . S
C770 C772 1.384 . S
C771 C770 1.377 . S
C771 C777 1.390 . S
C772 H763 0.930 . S
C772 C770 1.384 . S
C772 C773 1.372 . S
C773 C772 1.372 . S
C773 C774 1.400 . S
C773 C778 1.490 . S
C774 H764 0.930 . S
C774 C773 1.400 . S
C774 C777 1.386 . S
H775 C791 0.930 . S
H776 C792 0.931 1_565 S
C777 H765 0.929 . S
C777 C771 1.390 . S
C777 C774 1.386 . S
C778 C773 1.490 . S
C778 C780 1.395 . S
C778 C781 1.403 . S
H779 C785 0.930 . S
C780 H766 0.930 . S
C780 C778 1.395 . S
C780 C783 1.403 1_554 S
C781 C778 1.403 . S
C781 C782 1.524 . S
C781 C785 1.400 1_554 S
C782 H767 0.960 . S
C782 H768 0.960 . S
C782 H769 0.960 . S
C782 C781 1.524 . S
C783 C780 1.403 1_556 S
C783 C784 1.392 . S
C783 C787 1.495 . S
C784 C783 1.392 . S
C784 C785 1.385 . S
C784 C786 1.478 1_565 S
C785 H779 0.930 . S
C785 C781 1.400 1_556 S
C785 C784 1.385 . S
C786 C784 1.478 1_545 S
C786 C788 1.381 . S
C786 C792 1.383 . S
C787 C783 1.495 . S
C787 H793 0.959 . S
C787 H794 0.961 . S
C787 H795 0.960 . S
C788 C786 1.381 . S
C788 C789 1.394 . S
C788 H796 0.930 . S
C789 C788 1.394 . S
C789 C790 1.383 . S
C789 H797 0.929 . S
C790 C789 1.383 . S
C790 C791 1.377 . S
C791 H775 0.930 . S
C791 C790 1.377 . S
C791 C792 1.379 . S
C792 H776 0.931 1_545 S
C792 C786 1.383 . S
C792 C791 1.379 . S
H793 C787 0.959 . S
H794 C787 0.961 . S
H795 C787 0.960 . S
H796 C788 0.930 . S
H797 C789 0.929 . S
H798 C806 0.929 . S
H799 C808 0.930 . S
H800 C810 0.930 . S
H801 C813 0.929 . S
H802 C816 0.930 . S
H803 C818 0.960 . S
H804 C818 0.960 . S
H805 C818 0.960 . S
C806 H798 0.929 . S
C806 C807 1.377 . S
C806 C808 1.384 . S
C807 C806 1.377 . S
C807 C813 1.390 . S
C808 H799 0.930 . S
C808 C806 1.384 . S
C808 C809 1.372 . S
C809 C808 1.372 . S
C809 C810 1.400 . S
C809 C814 1.490 . S
C810 H800 0.930 . S
C810 C809 1.400 . S
C810 C813 1.386 . S
H811 C827 0.930 . S
H812 C828 0.931 . S
C813 H801 0.929 . S
C813 C807 1.390 . S
C813 C810 1.386 . S
C814 C809 1.490 . S
C814 C816 1.395 . S
C814 C817 1.403 . S
H815 C821 0.930 . S
C816 H802 0.930 . S
C816 C814 1.395 . S
C816 C819 1.403 . S
C817 C814 1.403 . S
C817 C818 1.524 . S
C817 C821 1.400 . S
C818 H803 0.960 . S
C818 H804 0.960 . S
C818 H805 0.960 . S
C818 C817 1.524 . S
C819 C816 1.403 . S
C819 C820 1.392 . S
C819 C823 1.495 . S
C820 C819 1.392 . S
C820 C821 1.385 . S
C820 C822 1.478 . S
C821 H815 0.930 . S
C821 C817 1.400 . S
C821 C820 1.385 . S
C822 C820 1.478 . S
C822 C824 1.381 . S
C822 C828 1.383 . S
C823 C819 1.495 . S
C823 H829 0.959 . S
C823 H830 0.961 . S
C823 H831 0.960 . S
C824 C822 1.381 . S
C824 C825 1.394 . S
C824 H832 0.930 . S
C825 C824 1.394 . S
C825 C826 1.383 . S
C825 H833 0.929 . S
C826 C825 1.383 . S
C826 C827 1.377 . S
C827 H811 0.930 . S
C827 C826 1.377 . S
C827 C828 1.379 . S
C828 H812 0.931 . S
C828 C822 1.383 . S
C828 C827 1.379 . S
H829 C823 0.959 . S
H830 C823 0.961 . S
H831 C823 0.960 . S
H832 C824 0.930 . S
H833 C825 0.929 . S
H834 C842 0.929 . S
H835 C844 0.930 . S
H836 C846 0.930 1_455 S
H837 C849 0.929 . S
H838 C852 0.930 1_655 S
H839 C854 0.960 . S
H840 C854 0.960 . S
H841 C854 0.960 . S
C842 H834 0.929 . S
C842 C843 1.377 . S
C842 C844 1.384 . S
C843 C842 1.377 . S
C843 C849 1.390 . S
C844 H835 0.930 . S
C844 C842 1.384 . S
C844 C845 1.372 . S
C845 C844 1.372 . S
C845 C846 1.400 . S
C845 C850 1.490 1_655 S
C846 H836 0.930 1_655 S
C846 C845 1.400 . S
C846 C849 1.386 . S
H847 C863 0.930 . S
H848 C864 0.931 . S
C849 H837 0.929 . S
C849 C843 1.390 . S
C849 C846 1.386 . S
C850 C845 1.490 1_455 S
C850 C852 1.395 1_556 S
C850 C853 1.403 . S
H851 C857 0.930 . S
C852 H838 0.930 1_455 S
C852 C850 1.395 1_554 S
C852 C855 1.403 . S
C853 C850 1.403 . S
C853 C854 1.524 . S
C853 C857 1.400 . S
C854 H839 0.960 . S
C854 H840 0.960 . S
C854 H841 0.960 . S
C854 C853 1.524 . S
C855 C852 1.403 . S
C855 C856 1.392 . S
C855 C859 1.495 . S
C856 C855 1.392 . S
C856 C857 1.385 1_554 S
C856 C858 1.478 . S
C857 H851 0.930 . S
C857 C853 1.400 . S
C857 C856 1.385 1_556 S
C858 C856 1.478 . S
C858 C860 1.381 . S
C858 C864 1.383 . S
C859 C855 1.495 . S
C859 H865 0.959 1_455 S
C859 H866 0.961 . S
C859 H867 0.960 . S
C860 C858 1.381 . S
C860 C861 1.394 . S
C860 H868 0.930 . S
C861 C860 1.394 . S
C861 C862 1.383 . S
C861 H869 0.929 . S
C862 C861 1.383 . S
C862 C863 1.377 . S
C863 H847 0.930 . S
C863 C862 1.377 . S
C863 C864 1.379 . S
C864 H848 0.931 . S
C864 C858 1.383 . S
C864 C863 1.379 . S
H865 C859 0.959 1_655 S
H866 C859 0.961 . S
H867 C859 0.960 . S
H868 C860 0.930 . S
H869 C861 0.929 . S
H870 C878 0.929 . S
H871 C880 0.930 . S
H872 C882 0.930 . S
H873 C885 0.929 . S
H874 C888 0.930 . S
H875 C890 0.957 1_565 S
H876 C890 0.960 . S
H877 C890 0.960 . S
C878 H870 0.929 . S
C878 C879 1.377 . S
C878 C880 1.384 . S
C879 C878 1.377 . S
C879 C885 1.390 . S
C880 H871 0.930 . S
C880 C878 1.384 . S
C880 C881 1.372 . S
C881 C880 1.372 . S
C881 C882 1.400 . S
C881 C886 1.490 . S
C882 H872 0.930 . S
C882 C881 1.400 . S
C882 C885 1.386 . S
H883 C899 0.930 . S
H884 C900 0.931 . S
C885 H873 0.929 . S
C885 C879 1.390 . S
C885 C882 1.386 . S
C886 C881 1.490 . S
C886 C888 1.395 . S
C886 C889 1.403 . S
H887 C893 0.930 1_565 S
C888 H874 0.930 . S
C888 C886 1.395 . S
C888 C891 1.403 . S
C889 C886 1.403 . S
C889 C890 1.524 . S
C889 C893 1.400 . S
C890 H875 0.957 1_545 S
C890 H876 0.960 . S
C890 H877 0.960 . S
C890 C889 1.524 . S
C891 C888 1.403 . S
C891 C892 1.392 . S
C891 C895 1.495 . S
C892 C891 1.392 . S
C892 C893 1.385 . S
C892 C894 1.463 1_545 S
C893 H887 0.930 1_545 S
C893 C889 1.400 . S
C893 C892 1.385 . S
C894 C892 1.463 1_565 S
C894 C896 1.370 1_565 S
C894 C900 1.406 . S
C895 C891 1.495 . S
C895 H901 0.959 . S
C895 H902 0.961 . S
C895 H903 0.960 . S
C896 C894 1.370 1_545 S
C896 C897 1.387 1_545 S
C896 H904 0.941 . S
C897 C896 1.387 1_565 S
C897 C898 1.383 . S
C897 H905 0.929 . S
C898 C897 1.383 . S
C898 C899 1.377 . S
C899 H883 0.930 . S
C899 C898 1.377 . S
C899 C900 1.379 . S
C900 H884 0.931 . S
C900 C894 1.406 . S
C900 C899 1.379 . S
H901 C895 0.959 . S
H902 C895 0.961 . S
H903 C895 0.960 . S
H904 C896 0.941 . S
H905 C897 0.929 . S
H906 C914 0.929 . S
H907 C916 0.930 . S
H908 C918 0.930 . S
H909 C921 0.929 . S
H910 C924 0.930 . S
H911 C926 0.960 . S
H912 C926 0.960 . S
H913 C926 0.960 . S
C914 H906 0.929 . S
C914 C915 1.377 . S
C914 C916 1.384 . S
C915 C914 1.377 . S
C915 C921 1.390 . S
C916 H907 0.930 . S
C916 C914 1.384 . S
C916 C917 1.372 . S
C917 C916 1.372 . S
C917 C918 1.400 . S
C917 C922 1.490 . S
C918 H908 0.930 . S
C918 C917 1.400 . S
C918 C921 1.386 . S
H919 C935 0.930 . S
H920 C936 0.931 . S
C921 H909 0.929 . S
C921 C915 1.390 . S
C921 C918 1.386 . S
C922 C917 1.490 . S
C922 C924 1.395 . S
C922 C925 1.403 . S
H923 C929 0.930 . S
C924 H910 0.930 . S
C924 C922 1.395 . S
C924 C927 1.403 1_556 S
C925 C922 1.403 . S
C925 C926 1.524 . S
C925 C929 1.400 1_556 S
C926 H911 0.960 . S
C926 H912 0.960 . S
C926 H913 0.960 . S
C926 C925 1.524 . S
C927 C924 1.403 1_554 S
C927 C928 1.392 . S
C927 C931 1.495 . S
C928 C927 1.392 . S
C928 C929 1.385 . S
C928 C930 1.478 . S
C929 H923 0.930 . S
C929 C925 1.400 1_554 S
C929 C928 1.385 . S
C930 C928 1.478 . S
C930 C932 1.381 . S
C930 C936 1.383 . S
C931 C927 1.495 . S
C931 H937 0.959 . S
C931 H938 0.961 . S
C931 H939 0.960 . S
C932 C930 1.381 . S
C932 C933 1.394 . S
C932 H940 0.930 . S
C933 C932 1.394 . S
C933 C934 1.383 . S
C933 H941 0.929 . S
C934 C933 1.383 . S
C934 C935 1.377 . S
C935 H919 0.930 . S
C935 C934 1.377 . S
C935 C936 1.379 . S
C936 H920 0.931 . S
C936 C930 1.383 . S
C936 C935 1.379 . S
H937 C931 0.959 . S
H938 C931 0.961 . S
H939 C931 0.960 . S
H940 C932 0.930 . S
H941 C933 0.929 . S
H942 C950 0.929 . S
H943 C952 0.930 . S
H944 C954 0.930 . S
H945 C957 0.929 . S
H946 C960 0.930 . S
H947 C962 0.960 . S
H948 C962 0.960 . S
H949 C962 0.960 . S
C950 H942 0.929 . S
C950 C951 1.377 . S
C950 C952 1.384 . S
C951 C950 1.377 . S
C951 C957 1.390 . S
C952 H943 0.930 . S
C952 C950 1.384 . S
C952 C953 1.372 . S
C953 C952 1.372 . S
C953 C954 1.400 . S
C953 C958 1.490 . S
C954 H944 0.930 . S
C954 C953 1.400 . S
C954 C957 1.386 . S
H955 C971 0.930 . S
H956 C972 0.931 1_455 S
C957 H945 0.929 . S
C957 C951 1.390 . S
C957 C954 1.386 . S
C958 C953 1.490 . S
C958 C960 1.395 . S
C958 C961 1.403 . S
H959 C965 0.930 . S
C960 H946 0.930 . S
C960 C958 1.395 . S
C960 C963 1.403 . S
C961 C958 1.403 . S
C961 C962 1.524 . S
C961 C965 1.400 . S
C962 H947 0.960 . S
C962 H948 0.960 . S
C962 H949 0.960 . S
C962 C961 1.524 . S
C963 C960 1.403 . S
C963 C964 1.392 . S
C963 C967 1.495 1_455 S
C964 C963 1.392 . S
C964 C965 1.385 . S
C964 C966 1.478 1_455 S
C965 H959 0.930 . S
C965 C961 1.400 . S
C965 C964 1.385 . S
C966 C964 1.478 1_655 S
C966 C968 1.381 . S
C966 C972 1.383 . S
C967 C963 1.495 1_655 S
C967 H973 0.959 . S
C967 H974 0.961 . S
C967 H975 0.960 . S
C968 C966 1.381 . S
C968 C969 1.394 . S
C968 H976 0.930 . S
C969 C968 1.394 . S
C969 C970 1.383 . S
C969 H977 0.929 . S
C970 C969 1.383 . S
C970 C971 1.377 . S
C971 H955 0.930 . S
C971 C970 1.377 . S
C971 C972 1.379 . S
C972 H956 0.931 1_655 S
C972 C966 1.383 . S
C972 C971 1.379 . S
H973 C967 0.959 . S
H974 C967 0.961 . S
H975 C967 0.960 . S
H976 C968 0.930 . S
H977 C969 0.929 . S
H978 C986 0.929 . S
H979 C988 0.930 . S
H980 C990 0.930 . S
H981 C993 0.929 . S
H982 C996 0.930 . S
H983 C998 0.960 1_554 S
H984 C998 0.960 1_554 S
H985 C998 0.960 . S
C986 H978 0.929 . S
C986 C987 1.377 . S
C986 C988 1.384 . S
C987 C986 1.377 . S
C987 C993 1.390 . S
C988 H979 0.930 . S
C988 C986 1.384 . S
C988 C989 1.372 . S
C989 C988 1.372 . S
C989 C990 1.400 . S
C989 C994 1.490 . S
C990 H980 0.930 . S
C990 C989 1.400 . S
C990 C993 1.386 . S
H991 C1007 0.930 . S
H992 C1008 0.931 . S
C993 H981 0.929 . S
C993 C987 1.390 . S
C993 C990 1.386 . S
C994 C989 1.490 . S
C994 C996 1.395 . S
C994 C997 1.403 . S
H995 C1001 0.930 . S
C996 H982 0.930 . S
C996 C994 1.395 . S
C996 C999 1.403 1_556 S
C997 C994 1.403 . S
C997 C998 1.524 . S
C997 C1001 1.400 1_556 S
C998 H983 0.960 1_556 S
C998 H984 0.960 1_556 S
C998 H985 0.960 . S
C998 C997 1.524 . S
C999 C996 1.403 1_554 S
C999 C1000 1.392 . S
C999 C1003 1.495 . S
C1000 C999 1.392 . S
C1000 C1001 1.385 . S
C1000 C1002 1.478 1_545 S
C1001 H995 0.930 . S
C1001 C997 1.400 1_554 S
C1001 C1000 1.385 . S
C1002 C1000 1.478 1_565 S
C1002 C1004 1.381 . S
C1002 C1008 1.383 . S
C1003 C999 1.495 . S
C1003 H1009 0.959 1_554 S
C1003 H1010 0.961 1_544 S
C1003 H1011 0.960 . S
C1004 C1002 1.381 . S
C1004 C1005 1.394 . S
C1004 H1012 0.930 1_565 S
C1005 C1004 1.394 . S
C1005 C1006 1.383 . S
C1005 H1013 0.929 . S
C1006 C1005 1.383 . S
C1006 C1007 1.377 . S
C1007 H991 0.930 . S
C1007 C1006 1.377 . S
C1007 C1008 1.379 . S
C1008 H992 0.931 . S
C1008 C1002 1.383 . S
C1008 C1007 1.379 . S
H1009 C1003 0.959 1_556 S
H1010 C1003 0.961 1_566 S
H1011 C1003 0.960 . S
H1012 C1004 0.930 1_545 S
H1013 C1005 0.929 . S
H1014 C1022 0.929 . S
H1015 C1024 0.930 . S
H1016 C1026 0.930 . S
H1017 C1029 0.929 . S
H1018 C1032 0.930 . S
H1019 C1034 0.960 . S
H1020 C1034 0.960 . S
H1021 C1034 0.960 . S
C1022 H1014 0.929 . S
C1022 C1023 1.377 . S
C1022 C1024 1.384 . S
C1023 C1022 1.377 . S
C1023 C1029 1.390 . S
C1024 H1015 0.930 . S
C1024 C1022 1.384 . S
C1024 C1025 1.372 . S
C1025 C1024 1.372 . S
C1025 C1026 1.400 . S
C1025 C1030 1.490 . S
C1026 H1016 0.930 . S
C1026 C1025 1.400 . S
C1026 C1029 1.386 . S
H1027 C1043 0.930 . S
H1028 C1044 0.931 . S
C1029 H1017 0.929 . S
C1029 C1023 1.390 . S
C1029 C1026 1.386 . S
C1030 C1025 1.490 . S
C1030 C1032 1.395 . S
C1030 C1033 1.403 . S
H1031 C1037 0.930 . S
C1032 H1018 0.930 . S
C1032 C1030 1.395 . S
C1032 C1035 1.403 . S
C1033 C1030 1.403 . S
C1033 C1034 1.524 . S
C1033 C1037 1.400 . S
C1034 H1019 0.960 . S
C1034 H1020 0.960 . S
C1034 H1021 0.960 . S
C1034 C1033 1.524 . S
C1035 C1032 1.403 . S
C1035 C1036 1.392 . S
C1035 C1039 1.495 . S
C1036 C1035 1.392 . S
C1036 C1037 1.385 . S
C1036 C1038 1.478 . S
C1037 H1031 0.930 . S
C1037 C1033 1.400 . S
C1037 C1036 1.385 . S
C1038 C1036 1.478 . S
C1038 C1040 1.381 . S
C1038 C1044 1.383 . S
C1039 C1035 1.495 . S
C1039 H1045 0.959 . S
C1039 H1046 0.961 . S
C1039 H1047 0.960 . S
C1040 C1038 1.381 . S
C1040 C1041 1.394 . S
C1040 H1048 0.930 . S
C1041 C1040 1.394 . S
C1041 C1042 1.383 . S
C1041 H1049 0.929 . S
C1042 C1041 1.383 . S
C1042 C1043 1.377 . S
C1043 H1027 0.930 . S
C1043 C1042 1.377 . S
C1043 C1044 1.379 . S
C1044 H1028 0.931 . S
C1044 C1038 1.383 . S
C1044 C1043 1.379 . S
H1045 C1039 0.959 . S
H1046 C1039 0.961 . S
H1047 C1039 0.960 . S
H1048 C1040 0.930 . S
H1049 C1041 0.929 . S
H1050 C1058 0.929 . S
H1051 C1060 0.930 . S
H1052 C1062 0.930 . S
H1053 C1065 0.929 . S
H1054 C1068 0.930 . S
H1055 C1070 0.960 . S
H1056 C1070 0.960 . S
H1057 C1070 0.960 . S
C1058 H1050 0.929 . S
C1058 C1059 1.377 . S
C1058 C1060 1.384 . S
C1059 C1058 1.377 . S
C1059 C1065 1.390 . S
C1060 H1051 0.930 . S
C1060 C1058 1.384 . S
C1060 C1061 1.372 . S
C1061 C1060 1.372 . S
C1061 C1062 1.400 1_455 S
C1061 C1066 1.490 1_455 S
C1062 H1052 0.930 . S
C1062 C1061 1.400 1_655 S
C1062 C1065 1.386 1_655 S
H1063 C1079 0.930 . S
H1064 C1080 0.931 . S
C1065 H1053 0.929 . S
C1065 C1059 1.390 . S
C1065 C1062 1.386 1_455 S
C1066 C1061 1.490 1_655 S
C1066 C1068 1.395 . S
C1066 C1069 1.403 . S
H1067 C1073 0.930 . S
C1068 H1054 0.930 . S
C1068 C1066 1.395 . S
C1068 C1071 1.403 1_554 S
C1069 C1066 1.403 . S
C1069 C1070 1.524 . S
C1069 C1073 1.400 1_554 S
C1070 H1055 0.960 . S
C1070 H1056 0.960 . S
C1070 H1057 0.960 . S
C1070 C1069 1.524 . S
C1071 C1068 1.403 1_556 S
C1071 C1072 1.392 . S
C1071 C1075 1.495 . S
C1072 C1071 1.392 . S
C1072 C1073 1.385 . S
C1072 C1074 1.478 . S
C1073 H1067 0.930 . S
C1073 C1069 1.400 1_556 S
C1073 C1072 1.385 . S
C1074 C1072 1.478 . S
C1074 C1076 1.381 . S
C1074 C1080 1.383 . S
C1075 C1071 1.495 . S
C1075 H1081 0.959 . S
C1075 H1082 0.961 . S
C1075 H1083 0.960 . S
C1076 C1074 1.381 . S
C1076 C1077 1.394 . S
C1076 H1084 0.930 . S
C1077 C1076 1.394 . S
C1077 C1078 1.383 . S
C1077 H1085 0.929 . S
C1078 C1077 1.383 . S
C1078 C1079 1.377 . S
C1079 H1063 0.930 . S
C1079 C1078 1.377 . S
C1079 C1080 1.379 . S
C1080 H1064 0.931 . S
C1080 C1074 1.383 . S
C1080 C1079 1.379 . S
H1081 C1075 0.959 . S
H1082 C1075 0.961 . S
H1083 C1075 0.960 . S
H1084 C1076 0.930 . S
H1085 C1077 0.929 . S
H1086 C1094 0.929 . S
H1087 C1096 0.930 . S
H1088 C1098 0.930 . S
H1089 C1101 0.929 . S
H1090 C1104 0.930 1_545 S
H1091 C1106 0.960 . S
H1092 C1106 0.960 . S
H1093 C1106 0.960 . S
C1094 H1086 0.929 . S
C1094 C1095 1.377 . S
C1094 C1096 1.384 . S
C1095 C1094 1.377 . S
C1095 C1101 1.390 . S
C1096 H1087 0.930 . S
C1096 C1094 1.384 . S
C1096 C1097 1.372 . S
C1097 C1096 1.372 . S
C1097 C1098 1.400 . S
C1097 C1102 1.490 1_545 S
C1098 H1088 0.930 . S
C1098 C1097 1.400 . S
C1098 C1101 1.386 . S
H1099 C1115 0.930 . S
H1100 C1116 0.931 . S
C1101 H1089 0.929 . S
C1101 C1095 1.390 . S
C1101 C1098 1.386 . S
C1102 C1097 1.490 1_565 S
C1102 C1104 1.395 . S
C1102 C1105 1.403 . S
H1103 C1109 0.930 . S
C1104 H1090 0.930 1_565 S
C1104 C1102 1.395 . S
C1104 C1107 1.403 . S
C1105 C1102 1.403 . S
C1105 C1106 1.524 . S
C1105 C1109 1.400 . S
C1106 H1091 0.960 . S
C1106 H1092 0.960 . S
C1106 H1093 0.960 . S
C1106 C1105 1.524 . S
C1107 C1104 1.403 . S
C1107 C1108 1.392 . S
C1107 C1111 1.495 . S
C1108 C1107 1.392 . S
C1108 C1109 1.385 . S
C1108 C1110 1.478 . S
C1109 H1103 0.930 . S
C1109 C1105 1.400 . S
C1109 C1108 1.385 . S
C1110 C1108 1.478 . S
C1110 C1112 1.381 . S
C1110 C1116 1.383 . S
C1111 C1107 1.495 . S
C1111 H1117 0.982 . S
C1111 H1118 0.961 . S
C1111 H1119 0.960 . S
C1112 C1110 1.381 . S
C1112 C1113 1.394 . S
C1112 H1120 0.930 . S
C1113 C1112 1.394 . S
C1113 C1114 1.383 . S
C1113 H1121 0.929 . S
C1114 C1113 1.383 . S
C1114 C1115 1.377 . S
C1115 H1099 0.930 . S
C1115 C1114 1.377 . S
C1115 C1116 1.379 . S
C1116 H1100 0.931 . S
C1116 C1110 1.383 . S
C1116 C1115 1.379 . S
H1117 C1111 0.982 . S
H1118 C1111 0.961 . S
H1119 C1111 0.960 . S
H1120 C1112 0.930 . S
H1121 C1113 0.929 . S
C267 C32 1.399 . S
C286 N175 1.418 . S
C303 N223 1.378 . S
C322 C56 1.203 . S
C339 N8 1.412 . S
C358 C118 1.420 . S
C375 N51 1.378 . S
C394 C142 1.203 . S
C411 C199 1.400 . S
C430 N94 1.412 . S
C447 C228 1.268 . S
C466 N137 1.405 . S
C483 C33 0.923 . S
C502 N180 0.852 . S
C519 C82 0.907 . S
C538 N218 0.925 . S
C555 N3 0.863 . S
C574 C119 0.927 . S
C591 N46 0.922 . S
C610 C168 0.941 . S
C627 N89 0.873 . S
C646 C212 0.909 . S
C663 C254 0.905 . S
C682 N132 0.920 . S
C699 C13 1.591 . S
C718 C242 1.524 . S
C735 C83 1.702 . S
C754 C39 1.428 . S
C771 C99 1.587 . S
C790 C70 1.526 . S
C807 C169 1.703 . S
C826 C125 1.428 . S
C843 C156 1.551 . S
C862 C211 1.572 . S
C879 C255 1.704 . S
C898 C185 1.448 . S
C915 C161 1.682 . S
C934 C113 1.619 . S
C951 C205 1.585 . S
C970 C162 1.522 . S
C987 C247 1.688 . S
C1006 C204 1.588 . S
C1023 C248 1.503 . S
C1042 C40 1.566 . S
C1059 C27 1.609 . S
C1078 C75 1.679 . S
C1095 C76 1.500 . S
C1114 C126 1.566 . S
