# Generated by pormake.
# Topology unu, (4)-cn, num edge types: 1
# Building blocks:
#     Node 0, Type 0, BuildingBlock: QUQFOY_clean_sbu_1, # of connection points: 4
#     Node 1, Type 0, BuildingBlock: QUQFOY_clean_sbu_1, # of connection points: 4
#     Node 2, Type 0, BuildingBlock: QUQFOY_clean_sbu_1, # of connection points: 4
#     Node 3, Type 0, BuildingBlock: QUQFOY_clean_sbu_1, # of connection points: 4
#     Node 4, Type 0, BuildingBlock: QUQFOY_clean_sbu_1, # of connection points: 4
#     Node 5, Type 0, BuildingBlock: QUQFOY_clean_sbu_1, # of connection points: 4
#     Node 6, Type 0, BuildingBlock: QUQFOY_clean_sbu_1, # of connection points: 4
#     Node 7, Type 0, BuildingBlock: QUQFOY_clean_sbu_1, # of connection points: 4
#     Node 8, Type 0, BuildingBlock: QUQFOY_clean_sbu_1, # of connection points: 4
#     Node 9, Type 0, BuildingBlock: QUQFOY_clean_sbu_1, # of connection points: 4
#     Node 10, Type 0, BuildingBlock: QUQFOY_clean_sbu_1, # of connection points: 4
#     Node 11, Type 0, BuildingBlock: QUQFOY_clean_sbu_1, # of connection points: 4
#     Node 12, Type 0, BuildingBlock: QUQFOY_clean_sbu_1, # of connection points: 4
#     Node 13, Type 0, BuildingBlock: QUQFOY_clean_sbu_1, # of connection points: 4
#     Node 14, Type 0, BuildingBlock: QUQFOY_clean_sbu_1, # of connection points: 4
#     Node 15, Type 0, BuildingBlock: QUQFOY_clean_sbu_1, # of connection points: 4
#     Node 16, Type 0, BuildingBlock: QUQFOY_clean_sbu_1, # of connection points: 4
#     Node 17, Type 0, BuildingBlock: QUQFOY_clean_sbu_1, # of connection points: 4
#     Node 18, Type 0, BuildingBlock: QUQFOY_clean_sbu_1, # of connection points: 4
#     Node 19, Type 0, BuildingBlock: QUQFOY_clean_sbu_1, # of connection points: 4
#     Node 20, Type 0, BuildingBlock: QUQFOY_clean_sbu_1, # of connection points: 4
#     Node 21, Type 0, BuildingBlock: QUQFOY_clean_sbu_1, # of connection points: 4
#     Node 22, Type 0, BuildingBlock: QUQFOY_clean_sbu_1, # of connection points: 4
#     Node 23, Type 0, BuildingBlock: QUQFOY_clean_sbu_1, # of connection points: 4
#     Node 24, Type 0, BuildingBlock: QUQFOY_clean_sbu_1, # of connection points: 4
#     Node 25, Type 0, BuildingBlock: QUQFOY_clean_sbu_1, # of connection points: 4
#     Node 26, Type 0, BuildingBlock: QUQFOY_clean_sbu_1, # of connection points: 4
#     Node 27, Type 0, BuildingBlock: QUQFOY_clean_sbu_1, # of connection points: 4
#     Node 28, Type 0, BuildingBlock: QUQFOY_clean_sbu_1, # of connection points: 4
#     Node 29, Type 0, BuildingBlock: QUQFOY_clean_sbu_1, # of connection points: 4
#     Node 30, Type 0, BuildingBlock: QUQFOY_clean_sbu_1, # of connection points: 4
#     Node 31, Type 0, BuildingBlock: QUQFOY_clean_sbu_1, # of connection points: 4
#     Node 32, Type 0, BuildingBlock: QUQFOY_clean_sbu_1, # of connection points: 4
#     Node 33, Type 0, BuildingBlock: QUQFOY_clean_sbu_1, # of connection points: 4
#     Node 34, Type 0, BuildingBlock: QUQFOY_clean_sbu_1, # of connection points: 4
#     Node 35, Type 0, BuildingBlock: QUQFOY_clean_sbu_1, # of connection points: 4
#     Edge 36, Type (0, 0), BuildingBlock: XIVTED_clean_linker_0, # of connection points: 2
#     Edge 37, Type (0, 0), BuildingBlock: XIVTED_clean_linker_0, # of connection points: 2
#     Edge 38, Type (0, 0), BuildingBlock: XIVTED_clean_linker_0, # of connection points: 2
#     Edge 39, Type (0, 0), BuildingBlock: XIVTED_clean_linker_0, # of connection points: 2
#     Edge 40, Type (0, 0), BuildingBlock: XIVTED_clean_linker_0, # of connection points: 2
#     Edge 41, Type (0, 0), BuildingBlock: XIVTED_clean_linker_0, # of connection points: 2
#     Edge 42, Type (0, 0), BuildingBlock: XIVTED_clean_linker_0, # of connection points: 2
#     Edge 43, Type (0, 0), BuildingBlock: XIVTED_clean_linker_0, # of connection points: 2
#     Edge 44, Type (0, 0), BuildingBlock: XIVTED_clean_linker_0, # of connection points: 2
#     Edge 45, Type (0, 0), BuildingBlock: XIVTED_clean_linker_0, # of connection points: 2
#     Edge 46, Type (0, 0), BuildingBlock: XIVTED_clean_linker_0, # of connection points: 2
#     Edge 47, Type (0, 0), BuildingBlock: XIVTED_clean_linker_0, # of connection points: 2
#     Edge 48, Type (0, 0), BuildingBlock: XIVTED_clean_linker_0, # of connection points: 2
#     Edge 49, Type (0, 0), BuildingBlock: XIVTED_clean_linker_0, # of connection points: 2
#     Edge 50, Type (0, 0), BuildingBlock: XIVTED_clean_linker_0, # of connection points: 2
#     Edge 51, Type (0, 0), BuildingBlock: XIVTED_clean_linker_0, # of connection points: 2
#     Edge 52, Type (0, 0), BuildingBlock: XIVTED_clean_linker_0, # of connection points: 2
#     Edge 53, Type (0, 0), BuildingBlock: XIVTED_clean_linker_0, # of connection points: 2
#     Edge 54, Type (0, 0), BuildingBlock: XIVTED_clean_linker_0, # of connection points: 2
#     Edge 55, Type (0, 0), BuildingBlock: XIVTED_clean_linker_0, # of connection points: 2
#     Edge 56, Type (0, 0), BuildingBlock: XIVTED_clean_linker_0, # of connection points: 2
#     Edge 57, Type (0, 0), BuildingBlock: XIVTED_clean_linker_0, # of connection points: 2
#     Edge 58, Type (0, 0), BuildingBlock: XIVTED_clean_linker_0, # of connection points: 2
#     Edge 59, Type (0, 0), BuildingBlock: XIVTED_clean_linker_0, # of connection points: 2
#     Edge 60, Type (0, 0), BuildingBlock: XIVTED_clean_linker_0, # of connection points: 2
#     Edge 61, Type (0, 0), BuildingBlock: XIVTED_clean_linker_0, # of connection points: 2
#     Edge 62, Type (0, 0), BuildingBlock: XIVTED_clean_linker_0, # of connection points: 2
#     Edge 63, Type (0, 0), BuildingBlock: XIVTED_clean_linker_0, # of connection points: 2
#     Edge 64, Type (0, 0), BuildingBlock: XIVTED_clean_linker_0, # of connection points: 2
#     Edge 65, Type (0, 0), BuildingBlock: XIVTED_clean_linker_0, # of connection points: 2
#     Edge 66, Type (0, 0), BuildingBlock: XIVTED_clean_linker_0, # of connection points: 2
#     Edge 67, Type (0, 0), BuildingBlock: XIVTED_clean_linker_0, # of connection points: 2
#     Edge 68, Type (0, 0), BuildingBlock: XIVTED_clean_linker_0, # of connection points: 2
#     Edge 69, Type (0, 0), BuildingBlock: XIVTED_clean_linker_0, # of connection points: 2
#     Edge 70, Type (0, 0), BuildingBlock: XIVTED_clean_linker_0, # of connection points: 2
#     Edge 71, Type (0, 0), BuildingBlock: XIVTED_clean_linker_0, # of connection points: 2
#     Edge 72, Type (0, 0), BuildingBlock: XIVTED_clean_linker_0, # of connection points: 2
#     Edge 73, Type (0, 0), BuildingBlock: XIVTED_clean_linker_0, # of connection points: 2
#     Edge 74, Type (0, 0), BuildingBlock: XIVTED_clean_linker_0, # of connection points: 2
#     Edge 75, Type (0, 0), BuildingBlock: XIVTED_clean_linker_0, # of connection points: 2
#     Edge 76, Type (0, 0), BuildingBlock: XIVTED_clean_linker_0, # of connection points: 2
#     Edge 77, Type (0, 0), BuildingBlock: XIVTED_clean_linker_0, # of connection points: 2
#     Edge 78, Type (0, 0), BuildingBlock: XIVTED_clean_linker_0, # of connection points: 2
#     Edge 79, Type (0, 0), BuildingBlock: XIVTED_clean_linker_0, # of connection points: 2
#     Edge 80, Type (0, 0), BuildingBlock: XIVTED_clean_linker_0, # of connection points: 2
#     Edge 81, Type (0, 0), BuildingBlock: XIVTED_clean_linker_0, # of connection points: 2
#     Edge 82, Type (0, 0), BuildingBlock: XIVTED_clean_linker_0, # of connection points: 2
#     Edge 83, Type (0, 0), BuildingBlock: XIVTED_clean_linker_0, # of connection points: 2
#     Edge 84, Type (0, 0), BuildingBlock: XIVTED_clean_linker_0, # of connection points: 2
#     Edge 85, Type (0, 0), BuildingBlock: XIVTED_clean_linker_0, # of connection points: 2
#     Edge 86, Type (0, 0), BuildingBlock: XIVTED_clean_linker_0, # of connection points: 2
#     Edge 87, Type (0, 0), BuildingBlock: XIVTED_clean_linker_0, # of connection points: 2
#     Edge 88, Type (0, 0), BuildingBlock: XIVTED_clean_linker_0, # of connection points: 2
#     Edge 89, Type (0, 0), BuildingBlock: XIVTED_clean_linker_0, # of connection points: 2
#     Edge 90, Type (0, 0), BuildingBlock: XIVTED_clean_linker_0, # of connection points: 2
#     Edge 91, Type (0, 0), BuildingBlock: XIVTED_clean_linker_0, # of connection points: 2
#     Edge 92, Type (0, 0), BuildingBlock: XIVTED_clean_linker_0, # of connection points: 2
#     Edge 93, Type (0, 0), BuildingBlock: XIVTED_clean_linker_0, # of connection points: 2
#     Edge 94, Type (0, 0), BuildingBlock: XIVTED_clean_linker_0, # of connection points: 2
#     Edge 95, Type (0, 0), BuildingBlock: XIVTED_clean_linker_0, # of connection points: 2
#     Edge 96, Type (0, 0), BuildingBlock: XIVTED_clean_linker_0, # of connection points: 2
#     Edge 97, Type (0, 0), BuildingBlock: XIVTED_clean_linker_0, # of connection points: 2
#     Edge 98, Type (0, 0), BuildingBlock: XIVTED_clean_linker_0, # of connection points: 2
#     Edge 99, Type (0, 0), BuildingBlock: XIVTED_clean_linker_0, # of connection points: 2
#     Edge 100, Type (0, 0), BuildingBlock: XIVTED_clean_linker_0, # of connection points: 2
#     Edge 101, Type (0, 0), BuildingBlock: XIVTED_clean_linker_0, # of connection points: 2
#     Edge 102, Type (0, 0), BuildingBlock: XIVTED_clean_linker_0, # of connection points: 2
#     Edge 103, Type (0, 0), BuildingBlock: XIVTED_clean_linker_0, # of connection points: 2
#     Edge 104, Type (0, 0), BuildingBlock: XIVTED_clean_linker_0, # of connection points: 2
#     Edge 105, Type (0, 0), BuildingBlock: XIVTED_clean_linker_0, # of connection points: 2
#     Edge 106, Type (0, 0), BuildingBlock: XIVTED_clean_linker_0, # of connection points: 2
#     Edge 107, Type (0, 0), BuildingBlock: XIVTED_clean_linker_0, # of connection points: 2
# Relax obj value: 0.084
# Max RMSD: 0.132
# Mean RMSD: 0.132
data_MOF--net-unu--node1-QUQFOY_clean_sbu_1--edge1-XIVTED_clean_linker_0
_symmetry_space_group_name_H-M    P1
_symmetry_Int_Tables_number       1
_symmetry_cell_setting            triclinic
loop_
_symmetry_equiv_pos_as_xyz
'x, y, z'
_cell_length_a     43.891307
_cell_length_b     43.890474
_cell_length_c     127.17099
_cell_angle_alpha  90.000638
_cell_angle_beta   89.992764
_cell_angle_gamma 119.99949
loop_
_atom_site_label
_atom_site_type_symbol
_atom_site_fract_x
_atom_site_fract_y
_atom_site_fract_z
_atom_type_partial_charge
O0 O 0.18415 0.01205 0.12099 0.0
Cd1 Cd 0.22883 0.06049 0.11934 0.0
Cd2 Cd 0.222 0.0603 0.14024 0.0
O3 O 0.18699 1.0068 0.13816 0.0
O4 O 0.25247 0.05823 0.10612 0.0
O5 O 0.27473 0.06185 0.12199 0.0
C6 C 0.27641 0.05795 0.11196 0.0
C7 C 0.26337 0.08647 0.15374 0.0
C8 C 0.17258 0.99382 0.12933 0.0
C9 C 0.20623 0.10896 0.12747 0.0
O10 O 0.20293 0.09266 0.13602 0.0
O11 O 0.21989 0.10298 0.11946 0.0
O12 O 0.23006 0.07008 0.15565 0.0
O13 O 0.27332 0.08499 0.14428 0.0
O14 O 1.01028 0.17584 0.12077 0.0
Cd15 Cd 0.96195 0.17227 0.11903 0.0
Cd16 Cd 0.96181 0.16594 0.13998 0.0
O17 O 0.01525 0.18393 0.13795 0.0
O18 O 0.96437 0.19784 0.10573 0.0
O19 O 0.96078 0.21701 0.12152 0.0
C20 C 0.9647 0.22228 0.11148 0.0
C21 C 0.93596 0.18146 0.15351 0.0
C22 C 0.02833 0.18239 0.12914 0.0
C23 C 0.91294 0.10146 0.12725 0.0
O24 O 0.92903 0.11453 0.13582 0.0
O25 O 0.91934 0.12094 0.11917 0.0
O26 O 0.95213 0.16432 0.1554 0.0
O27 O 0.93751 0.19294 0.14405 0.0
O28 O 0.84698 0.83873 0.12023 0.0
Cd29 Cd 0.85062 0.79393 0.11876 0.0
Cd30 Cd 0.85681 0.80115 0.13964 0.0
O31 O 0.83861 0.83632 0.13739 0.0
O32 O 0.82516 0.77026 0.10549 0.0
O33 O 0.80581 0.74817 0.12133 0.0
C34 C 0.80063 0.74645 0.11128 0.0
C35 C 0.8411 0.75978 0.15316 0.0
C36 C 0.84023 0.85054 0.1285 0.0
C37 C 0.92144 0.81638 0.12709 0.0
O38 O 0.90831 0.81996 0.13557 0.0
O39 O 0.90195 0.80263 0.11905 0.0
O40 O 0.85803 0.7931 0.15507 0.0
O41 O 0.82992 0.74985 0.14368 0.0
O42 O 0.01626 0.17929 0.40432 0.0
Cd43 Cd 0.06464 0.22397 0.40606 0.0
Cd44 Cd 0.06457 0.21784 0.38512 0.0
O45 O 1.01108 0.18261 0.38716 0.0
O46 O 0.06228 0.24703 0.4194 0.0
O47 O 0.06579 0.26989 0.40363 0.0
C48 C 0.06187 0.27114 0.41367 0.0
C49 C 0.09075 0.25943 0.37167 0.0
C50 C 0.99808 0.16793 0.39597 0.0
C51 C 0.11331 0.20187 0.39777 0.0
O52 O 0.09708 0.19885 0.38923 0.0
O53 O 0.10717 0.21511 0.40585 0.0
O54 O 0.07434 0.22615 0.36971 0.0
O55 O 0.08923 0.26923 0.38115 0.0
O56 O 0.84222 0.84184 0.40452 0.0
Cd57 Cd 0.79754 0.84568 0.40601 0.0
Cd58 Cd 0.80497 0.85232 0.38515 0.0
O59 O 0.84007 0.83399 0.38734 0.0
O60 O 0.77347 0.81967 0.41918 0.0
O61 O 0.75174 0.80115 0.40326 0.0
C62 C 0.74974 0.79548 0.41328 0.0
C63 C 0.76322 0.8367 0.37175 0.0
C64 C 0.85412 0.83529 0.39623 0.0
C65 C 0.82031 0.91674 0.39783 0.0
O66 O 0.82387 0.90375 0.38932 0.0
O67 O 0.80647 0.89711 0.40583 0.0
O68 O 0.79648 0.85368 0.36975 0.0
O69 O 0.75358 0.8254 0.38124 0.0
O70 O 0.17921 1.00493 0.40468 0.0
Cd71 Cd 0.17558 0.95653 0.40621 0.0
Cd72 Cd 0.16955 0.95732 0.3853 0.0
O73 O 0.1873 0.01065 0.3875 0.0
O74 O 0.20141 0.95852 0.41942 0.0
O75 O 0.22024 0.95546 0.40353 0.0
C76 C 0.22575 0.95912 0.41356 0.0
C77 C 0.18586 0.93172 0.37191 0.0
C78 C 0.18577 0.02335 0.39638 0.0
C79 C 0.10489 0.90781 0.39785 0.0
O80 O 0.1181 0.92428 0.38934 0.0
O81 O 0.12424 0.9139 0.40594 0.0
O82 O 0.16863 0.94772 0.36989 0.0
O83 O 0.19702 0.93338 0.38142 0.0
O84 O 0.84287 1.00525 0.9047 0.0
Cd85 Cd 0.79814 0.95682 0.90624 0.0
Cd86 Cd 0.80507 0.95748 0.88533 0.0
O87 O 0.84043 0.01086 0.88753 0.0
O88 O 0.77414 0.95885 0.91942 0.0
O89 O 0.7524 0.95566 0.90349 0.0
C90 C 0.75044 0.95937 0.91352 0.0
C91 C 0.76372 0.9318 0.8718 0.0
C92 C 0.85467 0.02363 0.8964 0.0
C93 C 0.82037 0.90821 0.89795 0.0
O94 O 0.82366 0.92465 0.88943 0.0
O95 O 0.80699 0.91426 0.90602 0.0
O96 O 0.79703 0.94809 0.8699 0.0
O97 O 0.75378 0.93318 0.88127 0.0
O98 O 0.01681 0.84167 0.90474 0.0
Cd99 Cd 0.0652 0.84527 0.90627 0.0
Cd100 Cd 0.06442 0.85144 0.88535 0.0
O101 O 1.0111 0.83371 0.88756 0.0
O102 O 0.06317 0.81944 0.91949 0.0
O103 O 0.06624 0.80058 0.9036 0.0
C104 C 0.06257 0.79508 0.91364 0.0
C105 C 0.09003 0.83527 0.87193 0.0
C106 C 0.9984 0.83519 0.89645 0.0
C107 C 0.11395 0.91601 0.89793 0.0
O108 O 0.09748 0.90286 0.88942 0.0
O109 O 0.10784 0.89662 0.90601 0.0
O110 O 0.07403 0.85252 0.86994 0.0
O111 O 0.08836 0.82401 0.88142 0.0
O112 O 0.18019 0.17882 0.90459 0.0
Cd113 Cd 0.17649 0.22358 0.90605 0.0
Cd114 Cd 0.17034 0.21638 0.88514 0.0
O115 O 0.18835 0.18105 0.88742 0.0
O116 O 0.20185 0.24721 0.91934 0.0
O117 O 0.22128 0.26937 0.90351 0.0
C118 C 0.2264 0.27106 0.91356 0.0
C119 C 0.18619 0.2578 0.87163 0.0
C120 C 0.18683 0.16692 0.89631 0.0
C121 C 0.10572 0.20129 0.89769 0.0
O122 O 0.11887 0.19781 0.88919 0.0
O123 O 0.12513 0.21481 0.90575 0.0
O124 O 0.16921 0.2245 0.86971 0.0
O125 O 0.19738 0.26769 0.88111 0.0
O126 O 1.00944 0.83826 0.62055 0.0
Cd127 Cd 0.96095 0.79354 0.61905 0.0
Cd128 Cd 0.96189 0.80083 0.63994 0.0
O129 O 0.01529 0.83601 0.63772 0.0
O130 O 0.96278 0.77002 0.60575 0.0
O131 O 0.95988 0.74769 0.62157 0.0
C132 C 0.96341 0.7461 0.61151 0.0
C133 C 0.93597 0.75901 0.65333 0.0
C134 C 0.02795 0.85013 0.62883 0.0
C135 C 0.91265 0.81617 0.62735 0.0
O136 O 0.92928 0.8197 0.63584 0.0
O137 O 0.91841 0.80239 0.61932 0.0
O138 O 0.9522 0.79226 0.65534 0.0
O139 O 0.93754 0.74942 0.64383 0.0
O140 O 0.18367 0.17526 0.62072 0.0
Cd141 Cd 0.22839 0.17164 0.61899 0.0
Cd142 Cd 0.22234 0.16563 0.63992 0.0
O143 O 0.18688 0.18361 0.63789 0.0
O144 O 0.25186 0.19755 0.60575 0.0
O145 O 0.27422 0.21627 0.6216 0.0
C146 C 0.2758 0.22183 0.61158 0.0
C147 C 0.26438 0.18158 0.65325 0.0
C148 C 0.17223 0.18196 0.62908 0.0
C149 C 0.20656 0.10093 0.62727 0.0
O150 O 0.20361 0.11415 0.63582 0.0
O151 O 0.21963 0.12029 0.61917 0.0
O152 O 0.23117 0.16443 0.6553 0.0
O153 O 0.27381 0.19284 0.64375 0.0
O154 O 0.84625 0.01222 0.62087 0.0
Cd155 Cd 0.85003 0.06063 0.61909 0.0
Cd156 Cd 0.85653 0.06081 0.63999 0.0
O157 O 0.83801 1.00725 0.63804 0.0
O158 O 0.82447 0.05813 0.60577 0.0
O159 O 0.80533 0.0619 0.62155 0.0
C160 C 0.80004 0.05785 0.61151 0.0
C161 C 0.84126 0.08748 0.65332 0.0
C162 C 0.83951 0.99412 0.62924 0.0
C163 C 0.92107 0.10917 0.62723 0.0
O164 O 0.908 0.09299 0.63579 0.0
O165 O 0.90147 0.10311 0.6192 0.0
O166 O 0.85816 0.07115 0.65536 0.0
O167 O 0.82987 0.08562 0.64384 0.0
O168 O 0.84914 0.34533 0.45391 0.0
Cd169 Cd 0.89392 0.39372 0.45232 0.0
Cd170 Cd 0.88695 0.39321 0.47327 0.0
O171 O 0.85144 0.33986 0.47109 0.0
O172 O 0.9173 0.39163 0.43902 0.0
O173 O 0.93975 0.39474 0.45483 0.0
C174 C 0.94126 0.39106 0.44478 0.0
C175 C 0.92829 0.41881 0.48681 0.0
C176 C 0.83725 0.32704 0.46222 0.0
C177 C 0.87183 0.4425 0.46059 0.0
O178 O 0.86852 0.42615 0.46913 0.0
O179 O 0.88516 0.43632 0.45253 0.0
O180 O 0.89497 0.40266 0.48869 0.0
O181 O 0.93823 0.41735 0.47734 0.0
O182 O 0.67541 0.50891 0.45344 0.0
Cd183 Cd 0.62698 0.50526 0.4519 0.0
Cd184 Cd 0.62763 0.49889 0.47278 0.0
O185 O 0.68101 0.51691 0.47062 0.0
O186 O 0.62906 0.53127 0.43871 0.0
O187 O 0.62584 0.54986 0.45463 0.0
C188 C 0.62956 0.55551 0.44461 0.0
C189 C 0.60176 0.51481 0.48618 0.0
C190 C 0.69378 0.51545 0.46174 0.0
C191 C 0.57839 0.43437 0.46015 0.0
O192 O 0.59488 0.44745 0.46866 0.0
O193 O 0.58436 0.4539 0.4521 0.0
O194 O 0.61786 0.49766 0.48818 0.0
O195 O 0.60343 0.52608 0.47669 0.0
O196 O 0.51161 0.17168 0.45419 0.0
Cd197 Cd 0.51535 0.12698 0.45258 0.0
Cd198 Cd 0.52134 0.1335 0.47349 0.0
O199 O 0.50321 0.1688 0.47135 0.0
O200 O 0.4895 0.10321 0.43936 0.0
O201 O 0.47077 0.08115 0.45525 0.0
C202 C 0.46523 0.07935 0.44522 0.0
C203 C 0.50538 0.09159 0.48686 0.0
C204 C 0.50485 0.18326 0.46251 0.0
C205 C 0.58609 0.14913 0.46091 0.0
O206 O 0.57285 0.15228 0.46942 0.0
O207 O 0.56673 0.13582 0.45282 0.0
O208 O 0.52244 0.12482 0.48888 0.0
O209 O 0.4942 0.08207 0.47735 0.0
O210 O 0.6851 0.51326 0.73831 0.0
Cd211 Cd 0.73348 0.55804 0.73991 0.0
Cd212 Cd 0.73291 0.55141 0.71897 0.0
O213 O 0.67957 0.51578 0.72114 0.0
O214 O 0.7314 0.58139 0.75322 0.0
O215 O 0.73448 0.60386 0.73742 0.0
C216 C 0.7308 0.60534 0.74747 0.0
C217 C 0.75855 0.59322 0.70556 0.0
C218 C 0.66679 0.50146 0.73 0.0
C219 C 0.78233 0.5362 0.73155 0.0
O220 O 0.76595 0.53301 0.72303 0.0
O221 O 0.77613 0.54936 0.73964 0.0
O222 O 0.74254 0.55996 0.70357 0.0
O223 O 0.75688 0.6028 0.71505 0.0
O224 O 0.51085 0.17572 0.73777 0.0
Cd225 Cd 0.46617 0.1795 0.73938 0.0
Cd226 Cd 0.47301 0.18589 0.71846 0.0
O227 O 0.50848 0.16797 0.72058 0.0
O228 O 0.44282 0.15403 0.75269 0.0
O229 O 0.42029 0.13474 0.73689 0.0
C230 C 0.41882 0.12953 0.74693 0.0
C231 C 0.43103 0.16987 0.70511 0.0
C232 C 0.52269 0.1693 0.72944 0.0
C233 C 0.48843 0.25041 0.73111 0.0
O234 O 0.49163 0.23731 0.72257 0.0
O235 O 0.4751 0.23093 0.73918 0.0
O236 O 0.46425 0.18704 0.70307 0.0
O237 O 0.42157 0.15861 0.71461 0.0
O238 O 0.84825 0.33947 0.73804 0.0
Cd239 Cd 0.84444 0.29095 0.73948 0.0
Cd240 Cd 0.83872 0.29233 0.71858 0.0
O241 O 0.8568 0.34567 0.72089 0.0
O242 O 0.86967 0.2925 0.75278 0.0
O243 O 0.88922 0.28994 0.73695 0.0
C244 C 0.89427 0.29326 0.74701 0.0
C245 C 0.85494 0.26663 0.70522 0.0
C246 C 0.8551 0.35815 0.72979 0.0
C247 C 0.7738 0.24271 0.73098 0.0
O248 O 0.78714 0.2595 0.72253 0.0
O249 O 0.79305 0.2484 0.73908 0.0
O250 O 0.83803 0.28294 0.70318 0.0
O251 O 0.86589 0.26807 0.71474 0.0
O252 O 0.51083 0.33968 0.23803 0.0
Cd253 Cd 0.46608 0.29134 0.23976 0.0
Cd254 Cd 0.47216 0.29139 0.21881 0.0
O255 O 0.50756 0.34482 0.22086 0.0
O256 O 0.44294 0.29366 0.25309 0.0
O257 O 0.42018 0.29021 0.2373 0.0
C258 C 0.41885 0.29406 0.24735 0.0
C259 C 0.43071 0.26555 0.20531 0.0
C260 C 0.52224 0.35782 0.22967 0.0
C261 C 0.48788 0.24243 0.23146 0.0
O262 O 0.49088 0.25863 0.22291 0.0
O263 O 0.47479 0.24872 0.23955 0.0
O264 O 0.46401 0.2818 0.20339 0.0
O265 O 0.42083 0.26703 0.21478 0.0
O266 O 0.68454 0.17624 0.23817 0.0
Cd267 Cd 0.73301 0.17992 0.2396 0.0
Cd268 Cd 0.73189 0.18622 0.21873 0.0
O269 O 0.67852 0.16802 0.221 0.0
O270 O 0.73129 0.15445 0.25286 0.0
O271 O 0.734 0.13514 0.23701 0.0
C272 C 0.73058 0.12994 0.24706 0.0
C273 C 0.75753 0.17048 0.20521 0.0
C274 C 0.66596 0.16956 0.2299 0.0
C275 C 0.7813 0.2508 0.23129 0.0
O276 O 0.76458 0.23771 0.22281 0.0
O277 O 0.7756 0.23127 0.23932 0.0
O278 O 0.74115 0.18742 0.20329 0.0
O279 O 0.75628 0.15931 0.21469 0.0
O280 O 0.84835 0.51352 0.23759 0.0
Cd281 Cd 0.84464 0.55822 0.23927 0.0
Cd282 Cd 0.83782 0.55147 0.21837 0.0
O283 O 0.85625 0.5164 0.2204 0.0
O284 O 0.87071 0.58186 0.25247 0.0
O285 O 0.88917 0.60411 0.23659 0.0
C286 C 0.89487 0.6058 0.24661 0.0
C287 C 0.85289 0.59275 0.20485 0.0
C288 C 0.85491 0.50196 0.22923 0.0
C289 C 0.77353 0.53574 0.23122 0.0
O290 O 0.78644 0.53247 0.22265 0.0
O291 O 0.79325 0.54933 0.23922 0.0
O292 O 0.8359 0.55942 0.20296 0.0
O293 O 0.86444 0.60276 0.21429 0.0
O294 O 0.67614 0.17174 0.95377 0.0
Cd295 Cd 0.62773 0.12701 0.95215 0.0
Cd296 Cd 0.62798 0.13401 0.97304 0.0
O297 O 0.68141 0.16937 0.97096 0.0
O298 O 0.63004 0.10322 0.93896 0.0
O299 O 0.62649 0.0812 0.95487 0.0
C300 C 0.63041 0.0794 0.94484 0.0
C301 C 0.60186 0.09219 0.98643 0.0
C302 C 0.69435 0.18359 0.9621 0.0
C303 C 0.57907 0.14942 0.96028 0.0
O304 O 0.59536 0.15275 0.96883 0.0
O305 O 0.58517 0.13587 0.95226 0.0
O306 O 0.61793 0.12545 0.98843 0.0
O307 O 0.60369 0.08261 0.97695 0.0
O308 O 0.85017 0.50924 0.95439 0.0
Cd309 Cd 0.89484 0.50549 0.95274 0.0
Cd310 Cd 0.88834 0.49928 0.97366 0.0
O311 O 0.85315 0.51755 0.97156 0.0
O312 O 0.91851 0.53137 0.93951 0.0
O313 O 0.94071 0.55006 0.95539 0.0
C314 C 0.94242 0.55562 0.94535 0.0
C315 C 0.9298 0.51475 0.98715 0.0
C316 C 0.83865 0.51598 0.96273 0.0
C317 C 0.8726 0.43465 0.96099 0.0
O318 O 0.86947 0.44781 0.96953 0.0
O319 O 0.88595 0.45409 0.95292 0.0
O320 O 0.8965 0.49781 0.98907 0.0
O321 O 0.93968 0.52608 0.97767 0.0
O322 O 0.51305 0.34589 0.95394 0.0
Cd323 Cd 0.51672 0.39429 0.95226 0.0
Cd324 Cd 0.52284 0.39396 0.97316 0.0
O325 O 0.50449 0.34047 0.9711 0.0
O326 O 0.49136 0.39208 0.93893 0.0
O327 O 0.47194 0.39541 0.95471 0.0
C328 C 0.46682 0.39162 0.94466 0.0
C329 C 0.50715 0.42023 0.98651 0.0
C330 C 0.50619 0.32759 0.96227 0.0
C331 C 0.58754 0.4428 0.96054 0.0
O332 O 0.57437 0.42638 0.96906 0.0
O333 O 0.56808 0.43687 0.95249 0.0
O334 O 0.52409 0.40394 0.98855 0.0
O335 O 0.49594 0.41853 0.97701 0.0
O336 O 0.51786 0.67909 0.78737 0.0
Cd337 Cd 0.56253 0.72764 0.7859 0.0
Cd338 Cd 0.5551 0.72659 0.80677 0.0
O339 O 0.52018 0.67316 0.80453 0.0
O340 O 0.58623 0.72594 0.77263 0.0
O341 O 0.60839 0.72879 0.78847 0.0
C342 C 0.6101 0.72532 0.77842 0.0
C343 C 0.59656 0.75256 0.82025 0.0
C344 C 0.50606 0.66052 0.79564 0.0
C345 C 0.53957 0.77569 0.79419 0.0
O346 O 0.53597 0.75899 0.80267 0.0
O347 O 0.55353 0.7701 0.78617 0.0
O348 O 0.56326 0.73602 0.82219 0.0
O349 O 0.60644 0.7513 0.81076 0.0
O350 O 0.34381 0.84262 0.78747 0.0
Cd351 Cd 0.29546 0.83891 0.78561 0.0
Cd352 Cd 0.29486 0.83221 0.80654 0.0
O353 O 0.3484 0.85049 0.80466 0.0
O354 O 0.29821 0.86447 0.77227 0.0
O355 O 0.29414 0.88362 0.78801 0.0
C356 C 0.29836 0.88889 0.77798 0.0
C357 C 0.26826 0.84753 0.81989 0.0
C358 C 0.3617 0.84912 0.79588 0.0
C359 C 0.24663 0.76783 0.79369 0.0
O360 O 0.26255 0.78081 0.80228 0.0
O361 O 0.25297 0.78748 0.78565 0.0
O362 O 0.28438 0.83042 0.82191 0.0
O363 O 0.27026 0.85907 0.81042 0.0
O364 O 0.1811 0.5053 0.78728 0.0
Cd365 Cd 0.18465 0.4605 0.78565 0.0
Cd366 Cd 0.19048 0.46684 0.80658 0.0
O367 O 0.17238 0.50216 0.80443 0.0
O368 O 0.15926 0.4372 0.77234 0.0
O369 O 0.13983 0.41469 0.78814 0.0
C370 C 0.1347 0.41323 0.77809 0.0
C371 C 0.17473 0.42532 0.82007 0.0
C372 C 0.17421 0.51677 0.7956 0.0
C373 C 0.25526 0.4824 0.79404 0.0
O374 O 0.24201 0.48559 0.80254 0.0
O375 O 0.23595 0.46914 0.78594 0.0
O376 O 0.19167 0.45861 0.82201 0.0
O377 O 0.16353 0.41548 0.81058 0.0
O378 O 0.3505 0.84639 0.07126 0.0
Cd379 Cd 0.39898 0.89106 0.0728 0.0
Cd380 Cd 0.3982 0.88421 0.05189 0.0
O381 O 0.34484 0.84876 0.05408 0.0
O382 O 0.39701 0.91484 0.08604 0.0
O383 O 0.40018 0.93689 0.07016 0.0
C384 C 0.39649 0.93867 0.0802 0.0
C385 C 0.42395 0.92609 0.0385 0.0
C386 C 0.3321 0.83456 0.06296 0.0
C387 C 0.44752 0.86883 0.06445 0.0
O388 O 0.43109 0.86562 0.05594 0.0
O389 O 0.44149 0.88216 0.07254 0.0
O390 O 0.40786 0.89285 0.03648 0.0
O391 O 0.42231 0.93562 0.048 0.0
O392 O 0.1766 0.5092 0.07152 0.0
Cd393 Cd 0.13186 0.51292 0.07301 0.0
Cd394 Cd 0.13876 0.51876 0.0521 0.0
O395 O 0.17403 0.50066 0.05437 0.0
O396 O 0.10825 0.48754 0.0863 0.0
O397 O 0.0861 0.46811 0.07047 0.0
C398 C 0.08443 0.46297 0.08052 0.0
C399 C 0.09724 0.50285 0.03862 0.0
C400 C 0.18832 0.50236 0.06324 0.0
C401 C 0.15411 0.58358 0.06457 0.0
O402 O 0.1575 0.5703 0.05609 0.0
O403 O 0.14063 0.56429 0.07266 0.0
O404 O 0.13053 0.51973 0.03667 0.0
O405 O 0.08742 0.49178 0.04812 0.0
O406 O 0.5137 0.67215 0.0713 0.0
Cd407 Cd 0.50998 0.62371 0.07287 0.0
Cd408 Cd 0.50366 0.62432 0.05195 0.0
O409 O 0.52152 0.67769 0.05412 0.0
O410 O 0.53543 0.62572 0.08617 0.0
O411 O 0.55472 0.62259 0.07035 0.0
C412 C 0.55992 0.62624 0.0804 0.0
C413 C 0.51967 0.59853 0.03854 0.0
C414 C 0.52014 0.69049 0.06299 0.0
C415 C 0.43915 0.57501 0.06458 0.0
O416 O 0.45225 0.59139 0.05605 0.0
O417 O 0.45861 0.58115 0.07265 0.0
O418 O 0.50248 0.61459 0.03655 0.0
O419 O 0.53096 0.60024 0.04804 0.0
O420 O 0.17556 0.67141 0.57119 0.0
Cd421 Cd 0.13078 0.62304 0.57284 0.0
Cd422 Cd 0.13736 0.6234 0.55193 0.0
O423 O 0.17251 0.67686 0.55403 0.0
O424 O 0.10755 0.62524 0.58616 0.0
O425 O 0.08492 0.62199 0.57037 0.0
C426 C 0.08352 0.62574 0.58042 0.0
C427 C 0.09588 0.59739 0.53845 0.0
C428 C 0.18707 0.68972 0.56286 0.0
C429 C 0.15308 0.5745 0.56458 0.0
O430 O 0.15638 0.59092 0.55606 0.0
O431 O 0.13951 0.58044 0.57263 0.0
O432 O 0.12917 0.61377 0.53652 0.0
O433 O 0.08601 0.59881 0.54792 0.0
O434 O 0.34917 0.50789 0.57088 0.0
Cd435 Cd 0.39757 0.51158 0.57256 0.0
Cd436 Cd 0.39755 0.5182 0.55168 0.0
O437 O 0.34406 0.49988 0.5537 0.0
O438 O 0.39519 0.48558 0.58578 0.0
O439 O 0.3989 0.46703 0.5699 0.0
C440 C 0.39494 0.46139 0.57992 0.0
C441 C 0.42382 0.50265 0.53829 0.0
C442 C 0.33102 0.5013 0.56253 0.0
C443 C 0.44622 0.58261 0.56444 0.0
O444 O 0.42999 0.56963 0.55589 0.0
O445 O 0.44011 0.56297 0.57246 0.0
O446 O 0.40768 0.51976 0.53629 0.0
O447 O 0.42202 0.49126 0.54778 0.0
O448 O 0.51292 0.84526 0.57122 0.0
Cd449 Cd 0.50926 0.88996 0.573 0.0
Cd450 Cd 0.50277 0.88372 0.5521 0.0
O451 O 0.5211 0.84853 0.55404 0.0
O452 O 0.53486 0.91304 0.58632 0.0
O453 O 0.55398 0.9359 0.57053 0.0
C454 C 0.55928 0.93717 0.58057 0.0
C455 C 0.51824 0.92568 0.53876 0.0
C456 C 0.51958 0.83387 0.56284 0.0
C457 C 0.43827 0.86771 0.56486 0.0
O458 O 0.45132 0.86462 0.5563 0.0
O459 O 0.45786 0.88112 0.5729 0.0
O460 O 0.50121 0.89246 0.53673 0.0
O461 O 0.52963 0.93519 0.54825 0.0
O462 O 0.3442 0.50599 0.28746 0.0
Cd463 Cd 0.2957 0.46131 0.28598 0.0
Cd464 Cd 0.29673 0.46847 0.30688 0.0
O465 O 0.35012 0.50365 0.30463 0.0
O466 O 0.29747 0.43776 0.27267 0.0
O467 O 0.29465 0.41548 0.28849 0.0
C468 C 0.29816 0.41387 0.27844 0.0
C469 C 0.2709 0.42693 0.32035 0.0
C470 C 0.36275 0.5178 0.29574 0.0
C471 C 0.24742 0.48386 0.29435 0.0
O472 O 0.26405 0.48729 0.30283 0.0
O473 O 0.2532 0.47024 0.28628 0.0
O474 O 0.28736 0.46021 0.32231 0.0
O475 O 0.27223 0.41711 0.31086 0.0
O476 O 0.51814 0.84305 0.28691 0.0
Cd477 Cd 0.56286 0.8393 0.28543 0.0
Cd478 Cd 0.55597 0.83358 0.30633 0.0
O479 O 0.52062 0.85157 0.30406 0.0
O480 O 0.58653 0.86464 0.27214 0.0
O481 O 0.60864 0.88407 0.28797 0.0
C482 C 0.61036 0.8892 0.27792 0.0
C483 C 0.59786 0.84979 0.31971 0.0
C484 C 0.50636 0.84987 0.29518 0.0
C485 C 0.54067 0.76869 0.2939 0.0
O486 O 0.5373 0.78202 0.30237 0.0
O487 O 0.55409 0.78794 0.2858 0.0
O488 O 0.56462 0.83281 0.32174 0.0
O489 O 0.60739 0.8608 0.31019 0.0
O490 O 0.18102 0.6803 0.28717 0.0
Cd491 Cd 0.18473 0.72871 0.28553 0.0
Cd492 Cd 0.1911 0.72845 0.30646 0.0
O493 O 0.17332 0.67507 0.30437 0.0
O494 O 0.15879 0.72643 0.27231 0.0
O495 O 0.14013 0.72994 0.28819 0.0
C496 C 0.13454 0.72604 0.27816 0.0
C497 C 0.17505 0.75429 0.31984 0.0
C498 C 0.17465 0.66212 0.29551 0.0
C499 C 0.25558 0.77759 0.29377 0.0
O500 O 0.24249 0.7614 0.30232 0.0
O501 O 0.23611 0.77127 0.28569 0.0
O502 O 0.19235 0.73835 0.32185 0.0
O503 O 0.16371 0.75246 0.31035 0.0
H504 H 0.24993 0.09534 0.1742 0.0
H505 H 0.44404 0.25683 0.18482 0.0
H506 H 0.33436 0.1321 0.15159 0.0
H507 H 0.35971 0.21998 0.20747 0.0
H508 H 0.40399 0.21218 0.17245 0.0
H509 H 0.28993 0.14007 0.18657 0.0
C510 C 0.27702 0.1125 0.17188 0.0
C511 C 0.28875 0.10986 0.16182 0.0
C512 C 0.39413 0.21397 0.18009 0.0
C513 C 0.33469 0.16174 0.17594 0.0
C514 C 0.41696 0.23968 0.18716 0.0
C515 C 0.40527 0.24226 0.19723 0.0
C516 C 0.35927 0.19045 0.1831 0.0
C517 C 0.36988 0.2191 0.19979 0.0
C518 C 0.29981 0.13825 0.17894 0.0
C519 C 0.32414 0.13302 0.15926 0.0
N520 N 0.34823 0.19409 0.19281 0.0
N521 N 0.34577 0.15807 0.16624 0.0
H522 H 0.76609 0.19243 0.18471 0.0
H523 H 0.92722 0.15931 0.17398 0.0
H524 H 0.80304 0.14497 0.20733 0.0
H525 H 0.89048 0.20702 0.15138 0.0
H526 H 0.88265 0.1548 0.18638 0.0
H527 H 0.81061 0.19688 0.1723 0.0
C528 C 0.78324 0.18247 0.18703 0.0
C529 C 0.78072 0.16825 0.19711 0.0
C530 C 0.88445 0.16647 0.17874 0.0
C531 C 0.83237 0.1739 0.18294 0.0
C532 C 0.9101 0.1693 0.17166 0.0
C533 C 0.9127 0.18362 0.1616 0.0
C534 C 0.861 0.17792 0.17575 0.0
C535 C 0.8896 0.19593 0.15905 0.0
C536 C 0.80887 0.18528 0.17995 0.0
C537 C 0.80386 0.15599 0.19965 0.0
N538 N 0.86463 0.19263 0.16605 0.0
N539 N 0.8288 0.15927 0.19264 0.0
H540 H 0.83046 0.57917 0.1844 0.0
H541 H 0.86304 0.77322 0.17366 0.0
H542 H 0.87825 0.66375 0.20695 0.0
H543 H 0.81571 0.68878 0.15104 0.0
H544 H 0.86763 0.73323 0.18607 0.0
H545 H 0.8257 0.6191 0.17201 0.0
C546 C 0.84041 0.60628 0.18671 0.0
C547 C 0.85483 0.61808 0.19676 0.0
C548 C 0.85602 0.72334 0.17842 0.0
C549 C 0.84885 0.66393 0.18261 0.0
C550 C 0.85314 0.74612 0.17134 0.0
C551 C 0.83893 0.73439 0.16127 0.0
C552 C 0.84471 0.68847 0.17543 0.0
C553 C 0.82673 0.69899 0.15872 0.0
C554 C 0.83744 0.62903 0.17964 0.0
C555 C 0.86708 0.65349 0.19929 0.0
N556 N 0.83008 0.67738 0.16573 0.0
N557 N 0.86364 0.67507 0.1923 0.0
H558 H 0.09965 0.24629 0.35118 0.0
H559 H 0.26216 0.44008 0.34086 0.0
H560 H 0.1367 0.33032 0.37393 0.0
H561 H 0.22506 0.35602 0.31811 0.0
H562 H 0.21723 0.40003 0.35318 0.0
H563 H 0.14465 0.28634 0.33888 0.0
C564 C 0.11693 0.27331 0.35355 0.0
C565 C 0.11429 0.28491 0.36363 0.0
C566 C 0.21903 0.39023 0.34552 0.0
C567 C 0.16649 0.33089 0.34959 0.0
C568 C 0.24489 0.41305 0.33849 0.0
C569 C 0.24749 0.40145 0.32841 0.0
C570 C 0.19537 0.35546 0.34247 0.0
C571 C 0.22419 0.36614 0.3258 0.0
C572 C 0.14283 0.29613 0.34653 0.0
C573 C 0.13761 0.32021 0.36625 0.0
N574 N 0.19902 0.34449 0.33276 0.0
N575 N 0.16281 0.34186 0.3593 0.0
H576 H 0.69197 0.80941 0.37398 0.0
H577 H 0.66911 0.87708 0.31745 0.0
H578 H 0.77619 0.86057 0.35143 0.0
H579 H 0.58506 0.82638 0.34007 0.0
H580 H 0.70903 0.87232 0.32991 0.0
H581 H 0.65213 0.81433 0.36153 0.0
C582 C 0.702 0.82121 0.36636 0.0
C583 C 0.73754 0.83456 0.36377 0.0
C584 C 0.68191 0.86245 0.33218 0.0
C585 C 0.69214 0.8409 0.34952 0.0
C586 C 0.65914 0.86543 0.32509 0.0
C587 C 0.62363 0.85215 0.3277 0.0
C588 C 0.66909 0.84597 0.34196 0.0
C589 C 0.61221 0.83705 0.3377 0.0
C590 C 0.67927 0.82428 0.35928 0.0
C591 C 0.74903 0.84984 0.35379 0.0
N592 N 0.63478 0.83421 0.34443 0.0
N593 N 0.72648 0.85274 0.34707 0.0
H594 H 0.21391 0.8884 0.37415 0.0
H595 H 0.14702 0.79762 0.31761 0.0
H596 H 0.16224 0.92074 0.35157 0.0
H597 H 0.19887 0.76541 0.34017 0.0
H598 H 0.15132 0.84212 0.33007 0.0
H599 H 0.20968 0.84396 0.36168 0.0
C600 C 0.20215 0.88654 0.36652 0.0
C601 C 0.18844 0.90843 0.36392 0.0
C602 C 0.16155 0.82516 0.33232 0.0
C603 C 0.18289 0.85705 0.34965 0.0
C604 C 0.15884 0.79952 0.32524 0.0
C605 C 0.17256 0.77765 0.32783 0.0
C606 C 0.17819 0.82908 0.34209 0.0
C607 C 0.18786 0.7816 0.33781 0.0
C608 C 0.19947 0.86093 0.35942 0.0
C609 C 0.17322 0.90454 0.35393 0.0
N610 N 0.1904 0.80689 0.34454 0.0
N611 N 0.17071 0.87927 0.3472 0.0
H612 H 0.58323 0.76117 0.84075 0.0
H613 H 0.77711 0.92314 0.85132 0.0
H614 H 0.66748 0.79843 0.81806 0.0
H615 H 0.69274 0.88614 0.87396 0.0
H616 H 0.73713 0.87842 0.83895 0.0
H617 H 0.62321 0.80594 0.85311 0.0
C618 C 0.61028 0.77844 0.8384 0.0
C619 C 0.62196 0.77594 0.82832 0.0
C620 C 0.72725 0.88019 0.84659 0.0
C621 C 0.66787 0.82786 0.84244 0.0
C622 C 0.75003 0.90594 0.85365 0.0
C623 C 0.73832 0.9085 0.86372 0.0
C624 C 0.69241 0.85662 0.8496 0.0
C625 C 0.70294 0.88529 0.86628 0.0
C626 C 0.63306 0.80421 0.84546 0.0
C627 C 0.6573 0.79924 0.82574 0.0
N628 N 0.68133 0.86023 0.8593 0.0
N629 N 0.67891 0.82431 0.83272 0.0
H630 H 0.13342 0.80729 0.87411 0.0
H631 H 0.2245 0.87507 0.81764 0.0
H632 H 0.10102 0.85911 0.8516 0.0
H633 H 0.25694 0.82339 0.84018 0.0
H634 H 0.17974 0.87034 0.83007 0.0
H635 H 0.17795 0.81176 0.86163 0.0
C636 C 0.13528 0.81913 0.86649 0.0
C637 C 0.11335 0.83281 0.86392 0.0
C638 C 0.1968 0.86023 0.83232 0.0
C639 C 0.16483 0.83864 0.84964 0.0
C640 C 0.22259 0.86319 0.82525 0.0
C641 C 0.24462 0.84965 0.82785 0.0
C642 C 0.19289 0.84354 0.84208 0.0
C643 C 0.24064 0.83426 0.83782 0.0
C644 C 0.16094 0.82194 0.85939 0.0
C645 C 0.11725 0.84814 0.85394 0.0
N646 N 0.21522 0.83148 0.84453 0.0
N647 N 0.14257 0.85079 0.8472 0.0
H648 H 0.16433 0.24451 0.85113 0.0
H649 H 0.19654 0.43853 0.84057 0.0
H650 H 0.21153 0.32878 0.8738 0.0
H651 H 0.14954 0.35436 0.81786 0.0
H652 H 0.20117 0.39846 0.85294 0.0
H653 H 0.15972 0.28457 0.83875 0.0
C654 C 0.1742 0.27158 0.85346 0.0
C655 C 0.18839 0.28325 0.86354 0.0
C656 C 0.18963 0.38864 0.84528 0.0
C657 C 0.18256 0.32924 0.84941 0.0
C658 C 0.18672 0.41147 0.83823 0.0
C659 C 0.17257 0.39984 0.82814 0.0
C660 C 0.17843 0.35383 0.84225 0.0
C661 C 0.16049 0.3645 0.82555 0.0
C662 C 0.17131 0.29441 0.8464 0.0
C663 C 0.20054 0.31861 0.86611 0.0
N664 N 0.16387 0.34284 0.83254 0.0
N665 N 0.19717 0.34027 0.85913 0.0
H666 H 0.80215 0.66456 0.70775 0.0
H667 H 0.89223 0.6877 0.65113 0.0
H668 H 0.76927 0.58036 0.68521 0.0
H669 H 0.92521 0.77189 0.67367 0.0
H670 H 0.84775 0.64772 0.66362 0.0
H671 H 0.84659 0.70457 0.69525 0.0
C672 C 0.80389 0.65457 0.70012 0.0
C673 C 0.78185 0.61899 0.69755 0.0
C674 C 0.86487 0.67489 0.66587 0.0
C675 C 0.83322 0.66458 0.68323 0.0
C676 C 0.8905 0.69769 0.65876 0.0
C677 C 0.91259 0.73326 0.66134 0.0
C678 C 0.86117 0.68771 0.67564 0.0
C679 C 0.90885 0.74471 0.67133 0.0
C680 C 0.8295 0.67739 0.69301 0.0
C681 C 0.78559 0.60755 0.68755 0.0
N682 N 0.88357 0.72209 0.67808 0.0
N683 N 0.81086 0.63019 0.6808 0.0
H684 H 0.35972 0.14208 0.7074 0.0
H685 H 0.33568 0.20929 0.65094 0.0
H686 H 0.44362 0.19363 0.68478 0.0
H687 H 0.25184 0.15786 0.67359 0.0
H688 H 0.37589 0.2048 0.66334 0.0
H689 H 0.31952 0.14655 0.69499 0.0
C690 C 0.3696 0.15387 0.69977 0.0
C691 C 0.40515 0.16746 0.69715 0.0
C692 C 0.34875 0.1947 0.66563 0.0
C693 C 0.35935 0.17329 0.68294 0.0
C694 C 0.32582 0.19752 0.65857 0.0
C695 C 0.29028 0.18397 0.6612 0.0
C696 C 0.33609 0.17812 0.6754 0.0
C697 C 0.27899 0.16873 0.6712 0.0
C698 C 0.34668 0.15668 0.69271 0.0
C699 C 0.41645 0.18272 0.68716 0.0
N700 N 0.30174 0.16608 0.67789 0.0
N701 N 0.39372 0.18537 0.68046 0.0
H702 H 0.88216 0.22261 0.70749 0.0
H703 H 0.81436 0.13176 0.65101 0.0
H704 H 0.83157 0.25599 0.68484 0.0
H705 H 0.86515 0.09856 0.67364 0.0
H706 H 0.81948 0.17675 0.6634 0.0
H707 H 0.87732 0.17785 0.69505 0.0
C708 C 0.87052 0.22092 0.69985 0.0
C709 C 0.85728 0.24318 0.69723 0.0
C710 C 0.82931 0.15947 0.66569 0.0
C711 C 0.85102 0.19144 0.68299 0.0
C712 C 0.82612 0.13355 0.65863 0.0
C713 C 0.8393 0.11125 0.66127 0.0
C714 C 0.84587 0.16324 0.67545 0.0
C715 C 0.85455 0.11508 0.67125 0.0
C716 C 0.86749 0.19512 0.69277 0.0
C717 C 0.8422 0.23949 0.68722 0.0
N718 N 0.85756 0.14064 0.67794 0.0
N719 N 0.83932 0.21403 0.68051 0.0
H720 H 0.10919 0.58864 0.51796 0.0
H721 H 0.91488 0.42755 0.50728 0.0
H722 H 0.02487 0.55179 0.54062 0.0
H723 H 0.99935 0.46416 0.48469 0.0
H724 H 0.95498 0.47209 0.51968 0.0
H725 H 0.0691 0.54403 0.50558 0.0
C726 C 0.0821 0.57149 0.5203 0.0
C727 C 0.07043 0.57407 0.53037 0.0
C728 C 0.96485 0.47027 0.51204 0.0
C729 C 0.02439 0.52232 0.51623 0.0
C730 C 0.942 0.44463 0.50497 0.0
C731 C 0.95371 0.44201 0.4949 0.0
C732 C 0.99976 0.49368 0.50906 0.0
C733 C 0.98915 0.46506 0.49236 0.0
C734 C 0.05926 0.54581 0.51323 0.0
C735 C 0.03504 0.55092 0.53294 0.0
N736 N 1.01082 0.49001 0.49936 0.0
N737 N 1.01336 0.52594 0.52594 0.0
H738 H 0.4675 0.47501 0.54051 0.0
H739 H 0.5582 0.54258 0.48399 0.0
H740 H 0.43489 0.52663 0.51799 0.0
H741 H 0.59083 0.49099 0.50651 0.0
H742 H 0.51366 0.53805 0.49647 0.0
H743 H 0.51211 0.47964 0.52804 0.0
C744 C 0.46934 0.48686 0.53289 0.0
C745 C 0.44732 0.50041 0.53031 0.0
C746 C 0.53072 0.52793 0.49871 0.0
C747 C 0.49888 0.50641 0.51604 0.0
C748 C 0.55638 0.53077 0.49161 0.0
C749 C 0.57838 0.51718 0.49419 0.0
C750 C 0.5269 0.51129 0.50847 0.0
C751 C 0.57454 0.5019 0.50417 0.0
C752 C 0.49505 0.48975 0.5258 0.0
C753 C 0.4512 0.51575 0.52033 0.0
N754 N 0.54922 0.49921 0.5109 0.0
N755 N 0.47655 0.51847 0.5136 0.0
H756 H 0.47785 0.02031 0.4846 0.0
H757 H 0.54555 0.99693 0.54106 0.0
H758 H 0.52908 0.10433 0.5072 0.0
H759 H 0.49434 0.91294 0.51845 0.0
H760 H 0.54072 0.03694 0.52865 0.0
H761 H 0.48253 0.98028 0.49703 0.0
C762 C 0.48961 0.03025 0.49223 0.0
C763 C 0.50306 0.06579 0.49484 0.0
C764 C 0.53073 0.00981 0.52637 0.0
C765 C 0.50913 0.02019 0.50907 0.0
C766 C 0.53375 0.98699 0.53343 0.0
C767 C 0.52037 0.95147 0.53081 0.0
C768 C 0.51413 0.99705 0.51661 0.0
C769 C 0.50509 0.94009 0.52083 0.0
C770 C 0.49254 1.00742 0.4993 0.0
C771 C 0.51828 0.07717 0.50483 0.0
N772 N 0.50224 0.96272 0.51413 0.0
N773 N 0.52106 0.05453 0.51154 0.0
H774 H 0.46746 0.99743 0.04072 0.0
H775 H 0.5583 0.02086 0.98421 0.0
H776 H 0.43487 0.91334 0.01816 0.0
H777 H 0.59069 0.10504 1.00674 0.0
H778 H 0.51368 0.98081 0.99667 0.0
H779 H 0.51199 0.03753 0.02826 0.0
C780 C 0.46928 0.98749 0.0331 0.0
C781 C 0.4473 0.95191 0.0305 0.0
C782 C 0.5307 1.00799 0.99892 0.0
C783 C 0.49878 0.9976 0.01624 0.0
C784 C 0.55641 0.03084 0.99183 0.0
C785 C 0.57838 0.06642 0.99442 0.0
C786 C 0.5268 0.02078 1.00867 0.0
C787 C 0.57444 0.07785 1.00439 0.0
C788 C 0.49494 0.01035 0.026 0.0
C789 C 0.45115 0.94053 0.02051 0.0
N790 N 0.54908 0.05518 1.01111 0.0
N791 N 0.47647 0.96321 0.01378 0.0
H792 H 0.91651 0.49269 1.00763 0.0
H793 H 0.11043 0.52458 0.01811 0.0
H794 H 1.00074 0.53992 0.98494 0.0
H795 H 0.0263 0.47767 0.04084 0.0
H796 H 0.07036 0.52926 1.00575 0.0
H797 H 0.95654 0.48791 0.01998 0.0
C798 C 0.94357 0.50252 1.00528 0.0
C799 C 0.95523 0.51678 0.99521 0.0
C800 C 0.06056 0.51772 0.01341 0.0
C801 C 1.00119 0.51076 1.0093 0.0
C802 C 0.08339 0.51479 0.02046 0.0
C803 C 0.07177 0.50066 0.03055 0.0
C804 C 0.02577 0.50656 0.01645 0.0
C805 C 0.03643 0.4886 0.03314 0.0
C806 C 0.96637 0.49954 1.01233 0.0
C807 C 0.99058 0.52889 0.99262 0.0
N808 N 0.01478 0.49201 0.02617 0.0
N809 N 1.01221 0.52542 0.99959 0.0
H810 H 0.47985 0.46419 0.98423 0.0
H811 H 0.5473 0.55485 0.04076 0.0
H812 H 0.53084 0.43116 1.00685 0.0
H813 H 0.49593 0.58764 0.01821 0.0
H814 H 0.54268 0.51024 0.0283 0.0
H815 H 0.48459 0.50891 0.99668 0.0
C816 C 0.49158 0.46596 0.99187 0.0
C817 C 0.50492 0.44378 0.99448 0.0
C818 C 0.53262 0.52735 0.02604 0.0
C819 C 0.51106 0.49547 1.00872 0.0
C820 C 0.53553 0.55306 0.03313 0.0
C821 C 0.52202 0.57512 0.03055 0.0
C822 C 0.51601 0.52355 0.01628 0.0
C823 C 0.50677 0.5713 0.02056 0.0
C824 C 0.49454 0.49172 0.99895 0.0
C825 C 0.52011 0.44758 1.00447 0.0
N826 N 0.50403 0.54594 0.01383 0.0
N827 N 0.52291 0.47299 1.01119 0.0
H828 H 0.32164 0.04211 0.12234 0.0
H829 H 0.38044 0.98375 0.06983 0.0
H830 H 0.28992 0.05328 0.09113 0.0
H831 H 0.39184 0.95215 0.10103 0.0
H832 H 0.35744 0.01937 0.07753 0.0
H833 H 0.35747 0.01932 0.11465 0.0
C834 C 0.32266 0.04037 0.11386 0.0
C835 C 0.30249 0.04945 0.10738 0.0
C836 C 0.36537 1.00497 0.0827 0.0
C837 C 0.34338 0.02312 0.09852 0.0
C838 C 0.37871 0.98476 0.07831 0.0
C839 C 0.38792 0.96468 0.08478 0.0
C840 C 0.36133 1.00533 0.09365 0.0
C841 C 0.38492 0.967 0.09572 0.0
C842 C 0.34299 0.02715 0.10947 0.0
C843 C 0.30483 0.04645 0.09644 0.0
N844 N 0.37171 0.9867 0.0998 0.0
N845 N 0.32466 0.03337 0.09237 0.0
H846 H 0.07054 0.44586 0.1014 0.0
H847 H 0.96838 0.23939 0.09059 0.0
H848 H 0.04024 0.40106 0.07035 0.0
H849 H 0.98167 0.28404 0.12162 0.0
H850 H 0.9911 0.29805 0.08303 0.0
H851 H 0.03491 0.38714 0.10895 0.0
C852 C 0.05598 0.42376 0.09616 0.0
C853 C 0.05859 0.42849 0.0852 0.0
C854 C 0.98863 0.29501 0.09149 0.0
C855 C 0.01804 0.36084 0.09383 0.0
C856 C 0.97559 0.26145 0.09582 0.0
C857 C 0.97323 0.2567 0.10678 0.0
C858 C 0.9999 0.32428 0.09814 0.0
C859 C 0.983 0.28637 0.11314 0.0
C860 C 0.03564 0.39016 0.10049 0.0
C861 C 0.03907 0.39876 0.07883 0.0
N862 N 0.9963 0.31888 0.10874 0.0
N863 N 0.02003 0.36622 0.08323 0.0
H864 H 0.57704 0.62973 0.10128 0.0
H865 H 0.78349 0.73244 0.09041 0.0
H866 H 0.62169 0.64338 0.07023 0.0
H867 H 0.73879 0.70219 0.12148 0.0
H868 H 0.72477 0.69664 0.08288 0.0
H869 H 0.63572 0.65255 0.10883 0.0
C870 C 0.5991 0.63703 0.09604 0.0
C871 C 0.59435 0.63475 0.08509 0.0
C872 C 0.72781 0.69742 0.09134 0.0
C873 C 0.66195 0.66154 0.09371 0.0
C874 C 0.76141 0.71786 0.09566 0.0
C875 C 0.76616 0.72053 0.10661 0.0
C876 C 0.69852 0.67978 0.09801 0.0
C877 C 0.73646 0.70097 0.113 0.0
C878 C 0.63268 0.65013 0.10037 0.0
C879 C 0.62402 0.64464 0.07872 0.0
N880 N 0.70392 0.68183 0.10861 0.0
N881 N 0.65654 0.65799 0.08311 0.0
H882 H 0.95501 0.38782 0.4239 0.0
H883 H 0.05807 0.28433 0.43458 0.0
H884 H 0.98565 0.37353 0.45492 0.0
H885 H 0.04468 0.31586 0.40358 0.0
H886 H 0.03506 0.31996 0.44218 0.0
H887 H 0.99082 0.36498 0.41631 0.0
C888 C 0.96968 0.38037 0.42912 0.0
C889 C 0.96712 0.38249 0.44008 0.0
C890 C 0.03758 0.3195 0.43372 0.0
C891 C 1.00788 0.35567 0.43142 0.0
C892 C 0.05079 0.29915 0.42936 0.0
C893 C 0.05321 0.2969 0.4184 0.0
C894 C 0.0262 0.33746 0.42709 0.0
C895 C 0.04332 0.31676 0.41207 0.0
C896 C 0.99012 0.36726 0.42478 0.0
C897 C 0.98678 0.3724 0.44644 0.0
N898 N 0.02986 0.33579 0.41649 0.0
N899 N 1.00592 0.35904 0.44203 0.0
H900 H 0.64543 0.61641 0.45508 0.0
H901 H 0.70475 0.73459 0.40279 0.0
H902 H 0.63439 0.57406 0.4238 0.0
H903 H 0.73583 0.77693 0.43408 0.0
H904 H 0.66887 0.67583 0.41037 0.0
H905 H 0.6684 0.67517 0.44749 0.0
C906 C 0.64723 0.61932 0.44661 0.0
C907 C 0.63814 0.59018 0.44008 0.0
C908 C 0.68322 0.69805 0.41558 0.0
C909 C 0.6647 0.65758 0.43133 0.0
C910 C 0.70358 0.73168 0.41126 0.0
C911 C 0.72358 0.76082 0.41779 0.0
C912 C 0.68264 0.69341 0.42654 0.0
C913 C 0.72104 0.75528 0.42872 0.0
C914 C 0.66056 0.65296 0.44228 0.0
C915 C 0.64122 0.59571 0.42915 0.0
N916 N 0.7012 0.72228 0.43274 0.0
N917 N 0.65442 0.62871 0.42514 0.0
H918 H 0.40422 0.03412 0.45561 0.0
H919 H 0.28686 0.97526 0.40316 0.0
H920 H 0.44701 0.0658 0.42439 0.0
H921 H 0.24398 0.96374 0.43439 0.0
H922 H 0.34552 0.9983 0.41083 0.0
H923 H 0.34559 0.99825 0.44795 0.0
C924 C 0.40144 0.03308 0.44714 0.0
C925 C 0.43066 0.05325 0.44065 0.0
C926 C 0.32321 0.99034 0.41601 0.0
C927 C 0.36341 0.01232 0.43181 0.0
C928 C 0.28963 0.97697 0.41164 0.0
C929 C 0.26037 0.96772 0.41813 0.0
C930 C 0.32766 0.99436 0.42696 0.0
C931 C 0.26573 0.9707 0.42906 0.0
C932 C 0.36788 0.01273 0.44277 0.0
C933 C 0.42528 0.05089 0.42971 0.0
N934 N 0.29868 0.98393 0.43312 0.0
N935 N 0.39236 0.03104 0.42565 0.0
H936 H 0.70555 0.97542 0.90303 0.0
H937 H 0.6462 0.0343 0.95532 0.0
H938 H 0.73658 0.9641 0.93432 0.0
H939 H 0.63541 0.06581 0.92404 0.0
H940 H 0.6692 0.99852 0.94773 0.0
H941 H 0.66978 0.99842 0.91061 0.0
C942 C 0.70439 0.97717 0.9115 0.0
C943 C 0.72435 0.96798 0.91803 0.0
C944 C 0.66141 0.01294 0.94252 0.0
C945 C 0.68352 0.99458 0.92677 0.0
C946 C 0.64807 0.03324 0.94685 0.0
C947 C 0.63903 0.05334 0.94032 0.0
C948 C 0.66561 0.0125 0.93157 0.0
C949 C 0.6422 0.05095 0.92939 0.0
C950 C 0.68409 0.99052 0.91582 0.0
C951 C 0.72183 0.971 0.92896 0.0
N952 N 0.6554 0.03116 0.92537 0.0
N953 N 0.70204 0.98422 0.93297 0.0
H954 H 0.98767 0.61667 0.95573 0.0
H955 H 0.04636 0.73393 0.90325 0.0
H956 H 0.95587 0.57382 0.92452 0.0
H957 H 0.05796 0.77688 0.93447 0.0
H958 H 0.02332 0.67528 0.91093 0.0
H959 H 0.02348 0.67529 0.94805 0.0
C960 C 0.98867 0.61944 0.94726 0.0
C961 C 0.96849 0.5902 0.94078 0.0
C962 C 0.0313 0.69761 0.9161 0.0
C963 C 1.00936 0.65744 0.93192 0.0
C964 C 0.04467 0.73118 0.91172 0.0
C965 C 0.05394 0.76046 0.91821 0.0
C966 C 0.0273 0.69318 0.92706 0.0
C967 C 0.05098 0.75512 0.92915 0.0
C968 C 1.00899 0.65299 0.94288 0.0
C969 C 0.9708 0.59556 0.92984 0.0
N970 N 0.03775 0.72218 0.93321 0.0
N971 N 0.99062 0.62847 0.92577 0.0
H972 H 0.44989 0.38795 0.92376 0.0
H973 H 0.24335 0.28508 0.93444 0.0
H974 H 0.40493 0.3745 0.95475 0.0
H975 H 0.28832 0.31537 0.90341 0.0
H976 H 0.30198 0.32095 0.94202 0.0
H977 H 0.39127 0.36503 0.91615 0.0
C978 C 0.42778 0.38067 0.92897 0.0
C979 C 0.43243 0.38303 0.93993 0.0
C980 C 0.29902 0.32016 0.93355 0.0
C981 C 0.36489 0.35613 0.93124 0.0
C982 C 0.26546 0.29969 0.92921 0.0
C983 C 0.26081 0.29701 0.91825 0.0
C984 C 0.32837 0.33783 0.92691 0.0
C985 C 0.29056 0.3166 0.91189 0.0
C986 C 0.39424 0.36751 0.92461 0.0
C987 C 0.40269 0.37317 0.94627 0.0
N988 N 0.32306 0.33577 0.9163 0.0
N989 N 0.3702 0.35976 0.94184 0.0
H990 H 0.96657 0.7323 0.59063 0.0
H991 H 0.07007 0.62927 0.60131 0.0
H992 H 0.98088 0.70166 0.62165 0.0
H993 H 0.03889 0.643 0.57031 0.0
H994 H 0.03432 0.65215 0.60891 0.0
H995 H 0.98941 0.6965 0.58304 0.0
C996 C 0.97402 0.71764 0.59585 0.0
C997 C 0.97192 0.7202 0.60681 0.0
C998 C 0.03489 0.64974 0.60045 0.0
C999 C 0.99874 0.67945 0.59814 0.0
C1000 C 0.0553 0.6366 0.59609 0.0
C1001 C 0.05769 0.63433 0.58514 0.0
C1002 C 0.017 0.66118 0.59381 0.0
C1003 C 0.03789 0.64426 0.57879 0.0
C1004 C 0.98713 0.6972 0.5915 0.0
C1005 C 0.982 0.70053 0.61316 0.0
N1006 N 0.01879 0.65765 0.58321 0.0
N1007 N 0.99537 0.6814 0.60875 0.0
H1008 H 0.32099 0.2829 0.62195 0.0
H1009 H 0.37908 0.40038 0.56951 0.0
H1010 H 0.28901 0.2401 0.59074 0.0
H1011 H 0.39025 0.44309 0.60074 0.0
H1012 H 0.35629 0.34172 0.57716 0.0
H1013 H 0.35654 0.34157 0.61427 0.0
C1014 C 0.3219 0.28569 0.61347 0.0
C1015 C 0.30173 0.25645 0.60699 0.0
C1016 C 0.36412 0.364 0.58235 0.0
C1017 C 0.34231 0.32375 0.59815 0.0
C1018 C 0.37734 0.39757 0.57798 0.0
C1019 C 0.38642 0.42678 0.58448 0.0
C1020 C 0.36009 0.35951 0.5933 0.0
C1021 C 0.38342 0.42138 0.59542 0.0
C1022 C 0.34207 0.31928 0.6091 0.0
C1023 C 0.30392 0.26184 0.59606 0.0
N1024 N 0.37034 0.38845 0.59947 0.0
N1025 N 0.3236 0.29479 0.59199 0.0
H1026 H 0.78287 0.05401 0.59062 0.0
H1027 H 0.57646 0.9506 0.60145 0.0
H1028 H 0.73823 0.04067 0.62166 0.0
H1029 H 0.62107 0.98183 0.57041 0.0
H1030 H 0.63516 0.98642 0.609 0.0
H1031 H 0.72416 0.03096 0.58307 0.0
C1032 C 0.76081 0.04672 0.59585 0.0
C1033 C 0.76558 0.04917 0.60681 0.0
C1034 C 0.6321 0.98585 0.60055 0.0
C1035 C 0.69793 0.02212 0.59818 0.0
C1036 C 0.59851 0.9654 0.59622 0.0
C1037 C 0.59374 0.96301 0.58526 0.0
C1038 C 0.66137 1.00378 0.59388 0.0
C1039 C 0.62341 0.98283 0.5789 0.0
C1040 C 0.72721 0.0335 0.59152 0.0
C1041 C 0.73589 0.03929 0.61317 0.0
N1042 N 0.65594 1.00197 0.58329 0.0
N1043 N 0.70335 0.0258 0.60878 0.0
H1044 H 0.7272 0.61883 0.76835 0.0
H1045 H 0.62414 0.72226 0.75754 0.0
H1046 H 0.71356 0.64994 0.73733 0.0
H1047 H 0.65445 0.70784 0.7886 0.0
H1048 H 0.66003 0.69946 0.75 0.0
H1049 H 0.70424 0.65456 0.77592 0.0
C1050 C 0.71987 0.63358 0.76313 0.0
C1051 C 0.72219 0.63117 0.75217 0.0
C1052 C 0.65925 0.7017 0.75846 0.0
C1053 C 0.69525 0.67184 0.76081 0.0
C1054 C 0.63876 0.71479 0.76279 0.0
C1055 C 0.63607 0.71685 0.77374 0.0
C1056 C 0.67693 0.69008 0.76512 0.0
C1057 C 0.65568 0.70675 0.78012 0.0
C1058 C 0.70669 0.65398 0.76746 0.0
C1059 C 0.71226 0.65095 0.74581 0.0
N1060 N 0.67487 0.69341 0.77572 0.0
N1061 N 0.69883 0.67004 0.75021 0.0
H1062 H 0.4051 0.11246 0.76782 0.0
H1063 H 0.30245 0.90598 0.75708 0.0
H1064 H 0.37444 0.06765 0.73678 0.0
H1065 H 0.31528 0.95072 0.78808 0.0
H1066 H 0.32543 0.96464 0.74949 0.0
H1067 H 0.36935 0.05377 0.77538 0.0
C1068 C 0.39044 0.09036 0.76258 0.0
C1069 C 0.39298 0.09508 0.75163 0.0
C1070 C 0.3228 0.96162 0.75794 0.0
C1071 C 0.35229 0.02746 0.76027 0.0
C1072 C 0.30961 0.92805 0.76229 0.0
C1073 C 0.30704 0.92333 0.77325 0.0
C1074 C 0.33401 0.99091 0.76458 0.0
C1075 C 0.31676 0.95302 0.77959 0.0
C1076 C 0.37003 0.05678 0.76692 0.0
C1077 C 0.37333 0.06535 0.74526 0.0
N1078 N 0.33021 0.98553 0.77518 0.0
N1079 N 0.35422 0.03283 0.74967 0.0
H1080 H 0.91119 0.29628 0.76789 0.0
H1081 H 0.11775 0.39971 0.7572 0.0
H1082 H 0.95618 0.31076 0.73687 0.0
H1083 H 0.0728 0.36867 0.78821 0.0
H1084 H 0.05912 0.36397 0.7496 0.0
H1085 H 0.96982 0.31907 0.77548 0.0
C1086 C 0.93331 0.30375 0.76267 0.0
C1087 C 0.92866 0.30172 0.75171 0.0
C1088 C 0.06208 0.36456 0.75807 0.0
C1089 C 0.99621 0.32847 0.76037 0.0
C1090 C 0.09563 0.38497 0.76242 0.0
C1091 C 0.10029 0.3874 0.77338 0.0
C1092 C 0.03274 0.34671 0.7647 0.0
C1093 C 0.07054 0.36764 0.77972 0.0
C1094 C 0.96686 0.31684 0.76702 0.0
C1095 C 0.95842 0.31183 0.74535 0.0
N1096 N 0.03805 0.34854 0.77531 0.0
N1097 N 0.99091 0.32516 0.74977 0.0
H1098 H 0.40548 0.29768 0.26825 0.0
H1099 H 0.30133 0.40006 0.25756 0.0
H1100 H 0.37405 0.31111 0.23724 0.0
H1101 H 0.31583 0.36959 0.28858 0.0
H1102 H 0.32435 0.36441 0.24997 0.0
H1103 H 0.36961 0.32042 0.27585 0.0
C1104 C 0.39063 0.30492 0.26303 0.0
C1105 C 0.39299 0.3026 0.25207 0.0
C1106 C 0.32207 0.36511 0.25843 0.0
C1107 C 0.35215 0.32929 0.26075 0.0
C1108 C 0.30885 0.38546 0.26278 0.0
C1109 C 0.30675 0.38803 0.27374 0.0
C1110 C 0.33378 0.34746 0.26508 0.0
C1111 C 0.31694 0.36845 0.2801 0.0
C1112 C 0.37015 0.31798 0.26738 0.0
C1113 C 0.37309 0.31241 0.24573 0.0
N1114 N 0.33041 0.34941 0.27568 0.0
N1115 N 0.35391 0.32573 0.25015 0.0
H1116 H 0.62417 0.90633 0.25704 0.0
H1117 H 0.7275 0.11278 0.26793 0.0
H1118 H 0.65485 0.951 0.2881 0.0
H1119 H 0.7131 0.06814 0.23686 0.0
H1120 H 0.70469 0.05407 0.27546 0.0
H1121 H 0.65999 0.96503 0.2495 0.0
C1122 C 0.63885 0.92839 0.26228 0.0
C1123 C 0.63628 0.92364 0.27324 0.0
C1124 C 0.70694 0.05712 0.26699 0.0
C1125 C 0.67706 0.99127 0.26462 0.0
C1126 C 0.72004 0.09072 0.26268 0.0
C1127 C 0.7221 0.09549 0.25172 0.0
C1128 C 0.69532 0.02784 0.26032 0.0
C1129 C 0.712 0.0658 0.24534 0.0
C1130 C 0.6593 0.96199 0.25796 0.0
C1131 C 0.65597 0.95332 0.27961 0.0
N1132 N 0.69866 0.03326 0.24972 0.0
N1133 N 0.67512 0.98586 0.27522 0.0
H1134 H 0.95584 0.65095 0.23618 0.0
H1135 H 0.07351 0.71013 0.28857 0.0
H1136 H 0.91324 0.61939 0.26743 0.0
H1137 H 0.1162 0.72113 0.25734 0.0
H1138 H 0.01482 0.68708 0.28093 0.0
H1139 H 0.01453 0.6868 0.24381 0.0
C1140 C 0.95868 0.65201 0.24465 0.0
C1141 C 0.92949 0.63188 0.25116 0.0
C1142 C 0.03709 0.69493 0.27574 0.0
C1143 C 0.9968 0.6728 0.25996 0.0
C1144 C 0.07069 0.7083 0.2801 0.0
C1145 C 0.0999 0.71741 0.2736 0.0
C1146 C 0.03258 0.69076 0.26479 0.0
C1147 C 0.09448 0.71428 0.26267 0.0
C1148 C 0.99227 0.67235 0.24901 0.0
C1149 C 0.93494 0.63427 0.26209 0.0
N1150 N 0.06152 0.70105 0.25862 0.0
N1151 N 0.96789 0.65411 0.26613 0.0
H1152 H 0.07237 0.18895 0.14547 0.0
H1153 H 0.18404 0.12981 0.11 0.0
H1154 H 0.06288 0.17849 0.1117 0.0
H1155 H 0.19192 0.13995 0.14378 0.0
H1156 H 0.14746 0.15763 0.11003 0.0
H1157 H 0.12365 0.18108 0.14461 0.0
C1158 C 0.08136 0.18557 0.13786 0.0
C1159 C 0.06287 0.18386 0.12867 0.0
C1160 C 0.1577 0.15428 0.11742 0.0
C1161 C 0.12144 0.17438 0.12762 0.0
C1162 C 0.17877 0.1386 0.11739 0.0
C1163 C 0.19061 0.13206 0.12691 0.0
C1164 C 0.1485 0.16345 0.12704 0.0
C1165 C 0.18288 0.14393 0.13626 0.0
C1166 C 0.11063 0.18097 0.13736 0.0
C1167 C 0.07597 0.17957 0.11901 0.0
N1168 N 0.16203 0.1586 0.13609 0.0
N1169 N 0.1041 0.1745 0.11876 0.0
H1170 H 0.87937 0.05696 0.14353 0.0
H1171 H 0.84239 0.88713 0.11079 0.0
H1172 H 0.89421 0.05772 0.10998 0.0
H1173 H 0.83516 0.8897 0.1446 0.0
H1174 H 0.85018 0.94615 0.1099 0.0
H1175 H 0.85172 0.99307 0.1435 0.0
C1176 C 0.87627 0.04359 0.1361 0.0
C1177 C 0.88959 0.06278 0.12675 0.0
C1178 C 0.8464 0.93364 0.1175 0.0
C1179 C 0.85831 0.98935 0.1267 0.0
C1180 C 0.84188 0.89983 0.11803 0.0
C1181 C 0.83862 0.8835 0.12781 0.0
C1182 C 0.84776 0.95142 0.12682 0.0
C1183 C 0.83787 0.90128 0.1369 0.0
C1184 C 0.86052 1.00704 0.13611 0.0
C1185 C 0.88443 0.044 0.11737 0.0
N1186 N 0.84286 0.93441 0.13618 0.0
N1187 N 0.86971 1.00832 0.1176 0.0
H1188 H 0.96495 0.83834 0.10972 0.0
H1189 H 0.13476 0.94952 0.14557 0.0
H1190 H 0.96622 0.83039 0.14351 0.0
H1191 H 0.13469 0.95936 0.1118 0.0
H1192 H 0.07568 0.8982 0.14458 0.0
H1193 H 0.02937 0.87468 0.10989 0.0
C1194 C 0.97879 0.84353 0.11714 0.0
C1195 C 0.96014 0.83177 0.12662 0.0
C1196 C 0.08877 0.9113 0.13737 0.0
C1197 C 0.03364 0.87359 0.12692 0.0
C1198 C 0.12262 0.9406 0.13793 0.0
C1199 C 0.13961 0.95921 0.12878 0.0
C1200 C 0.07163 0.90059 0.12758 0.0
C1201 C 0.1225 0.94618 0.11909 0.0
C1202 C 0.01555 0.86446 0.11725 0.0
C1203 C 0.97946 0.83938 0.13602 0.0
N1204 N 0.08933 0.91803 0.11876 0.0
N1205 N 0.015 0.86011 0.13594 0.0
H1206 H 0.14637 0.19058 0.38142 0.0
H1207 H 0.18404 0.05804 0.41408 0.0
H1208 H 0.1323 0.1769 0.415 0.0
H1209 H 0.19025 0.06726 0.38025 0.0
H1210 H 0.17624 0.10927 0.41498 0.0
H1211 H 0.17385 0.15419 0.38138 0.0
C1212 C 0.1496 0.18037 0.38883 0.0
C1213 C 0.13655 0.1864 0.39822 0.0
C1214 C 0.17979 0.10041 0.40737 0.0
C1215 C 0.16764 0.14408 0.39819 0.0
C1216 C 0.18432 0.07113 0.40683 0.0
C1217 C 0.18731 0.05789 0.39705 0.0
C1218 C 0.17815 0.11666 0.39805 0.0
C1219 C 0.18777 0.07625 0.38796 0.0
C1220 C 0.16525 0.15948 0.38879 0.0
C1221 C 0.14187 0.17283 0.40759 0.0
N1222 N 0.18278 0.10439 0.38868 0.0
N1223 N 0.1565 0.15179 0.40731 0.0
H1224 H 0.95394 0.13039 0.37966 0.0
H1225 H 0.84232 0.95994 0.41526 0.0
H1226 H 0.96349 0.1297 0.41344 0.0
H1227 H 0.8345 0.96185 0.38148 0.0
H1228 H 0.8788 0.02435 0.41518 0.0
H1229 H 0.9026 0.07129 0.38057 0.0
C1230 C 0.94495 0.1181 0.38728 0.0
C1231 C 0.96348 0.13494 0.39646 0.0
C1232 C 0.86859 0.01068 0.40781 0.0
C1233 C 0.90485 0.06694 0.39756 0.0
C1234 C 0.84758 0.97392 0.40787 0.0
C1235 C 0.8358 0.95545 0.39836 0.0
C1236 C 0.87779 0.02895 0.39817 0.0
C1237 C 0.8435 0.97495 0.38899 0.0
C1238 C 0.91564 0.08425 0.3878 0.0
C1239 C 0.95038 0.11764 0.40613 0.0
N1240 N 0.86431 0.01048 0.38912 0.0
N1241 N 0.92222 0.08447 0.40641 0.0
H1242 H 0.0608 0.87471 0.38145 0.0
H1243 H 0.89018 0.83655 0.41397 0.0
H1244 H 0.06075 0.88843 0.41504 0.0
H1245 H 0.89367 0.83084 0.38013 0.0
H1246 H 0.94914 0.8442 0.41491 0.0
H1247 H 0.99691 0.84703 0.38136 0.0
C1248 C 0.04725 0.87134 0.38886 0.0
C1249 C 0.06622 0.88437 0.39826 0.0
C1250 C 0.93684 0.84078 0.40729 0.0
C1251 C 0.99279 0.85307 0.39817 0.0
C1252 C 0.90307 0.83634 0.40672 0.0
C1253 C 0.88701 0.83356 0.39692 0.0
C1254 C 0.95486 0.84255 0.39799 0.0
C1255 C 0.90502 0.83317 0.38785 0.0
C1256 C 1.01071 0.85558 0.38879 0.0
C1257 C 0.0472 0.87888 0.40762 0.0
N1258 N 0.93811 0.83808 0.3886 0.0
N1259 N 1.01153 0.86416 0.40731 0.0
H1260 H 0.83142 0.87504 0.88159 0.0
H1261 H 0.96375 0.83687 0.91417 0.0
H1262 H 0.84522 0.88903 0.91517 0.0
H1263 H 0.9545 0.83086 0.88034 0.0
H1264 H 0.91259 0.84477 0.91509 0.0
H1265 H 0.86765 0.84739 0.88152 0.0
C1266 C 0.84162 0.87174 0.889 0.0
C1267 C 0.83567 0.88483 0.89839 0.0
C1268 C 0.92143 0.84124 0.90748 0.0
C1269 C 0.87782 0.85355 0.89834 0.0
C1270 C 0.95067 0.83666 0.90693 0.0
C1271 C 0.96388 0.8337 0.89713 0.0
C1272 C 0.90519 0.84297 0.89818 0.0
C1273 C 0.94553 0.83332 0.88805 0.0
C1274 C 0.86242 0.856 0.88894 0.0
C1275 C 0.84922 0.87943 0.90775 0.0
N1276 N 0.91742 0.83836 0.88879 0.0
N1277 N 0.87018 0.86472 0.90747 0.0
H1278 H 0.1472 0.96014 0.88156 0.0
H1279 H 0.18516 0.13071 0.91406 0.0
H1280 H 0.13321 0.9601 0.91513 0.0
H1281 H 0.19141 0.12738 0.88024 0.0
H1282 H 0.17738 0.0717 0.91502 0.0
H1283 H 0.17491 0.02403 0.88147 0.0
C1284 C 0.15051 0.97367 0.88896 0.0
C1285 C 0.1374 0.95468 0.89836 0.0
C1286 C 0.18095 0.08404 0.9074 0.0
C1287 C 0.16874 0.02811 0.89828 0.0
C1288 C 0.18546 0.11784 0.90683 0.0
C1289 C 0.18844 0.13396 0.89702 0.0
C1290 C 0.1793 0.06605 0.8981 0.0
C1291 C 0.18893 0.11598 0.88796 0.0
C1292 C 0.16629 0.01022 0.8889 0.0
C1293 C 0.14282 0.97366 0.90771 0.0
N1294 N 0.18395 0.08286 0.88871 0.0
N1295 N 0.15756 0.00934 0.90742 0.0
H1296 H 0.06149 0.18983 0.8813 0.0
H1297 H 0.89109 0.05855 0.91408 0.0
H1298 H 0.06173 0.17707 0.91492 0.0
H1299 H 0.89405 0.06735 0.88023 0.0
H1300 H 0.95017 0.10971 0.91492 0.0
H1301 H 0.9976 0.15379 0.88127 0.0
C1302 C 0.04801 0.1799 0.88872 0.0
C1303 C 0.06706 0.18608 0.89812 0.0
C1304 C 0.93773 0.10078 0.90732 0.0
C1305 C 0.99361 0.14415 0.89811 0.0
C1306 C 0.90389 0.07154 0.90681 0.0
C1307 C 0.88765 0.05819 0.89704 0.0
C1308 C 0.95564 0.11687 0.89799 0.0
C1309 C 0.90555 0.07642 0.88793 0.0
C1310 C 1.01146 0.15922 0.88869 0.0
C1311 C 0.04813 0.17288 0.9075 0.0
N1312 N 0.93871 0.10452 0.88863 0.0
N1313 N 1.01244 0.15202 0.90724 0.0
H1314 H 0.83316 0.95018 0.64558 0.0
H1315 H 0.89113 0.83797 0.60994 0.0
H1316 H 0.84272 0.95924 0.61178 0.0
H1317 H 0.88209 0.83062 0.64375 0.0
H1318 H 0.86322 0.87446 0.61005 0.0
H1319 H 0.84082 0.89878 0.64469 0.0
C1320 C 0.83628 0.94107 0.63796 0.0
C1321 C 0.83782 0.95948 0.62877 0.0
C1322 C 0.86683 0.86435 0.61743 0.0
C1323 C 0.84707 0.90078 0.62769 0.0
C1324 C 0.88256 0.84333 0.61735 0.0
C1325 C 0.88944 0.83168 0.62685 0.0
C1326 C 0.85796 0.87369 0.62707 0.0
C1327 C 0.87784 0.83951 0.63624 0.0
C1328 C 0.84077 0.91173 0.63745 0.0
C1329 C 0.84179 0.94622 0.6191 0.0
N1330 N 0.86312 0.86033 0.63612 0.0
N1331 N 0.84675 0.91803 0.61883 0.0
H1332 H 0.1956 0.05666 0.64362 0.0
H1333 H 0.06255 0.88636 0.61109 0.0
H1334 H 0.18141 0.05691 0.61006 0.0
H1335 H 0.07209 0.88957 0.64491 0.0
H1336 H 0.11385 0.94532 0.61014 0.0
H1337 H 0.15923 0.99279 0.64369 0.0
C1338 C 0.18529 0.04319 0.63621 0.0
C1339 C 0.19117 0.06223 0.62683 0.0
C1340 C 0.10505 0.93296 0.61776 0.0
C1341 C 0.14886 0.98882 0.62689 0.0
C1342 C 0.07572 0.89919 0.61832 0.0
C1343 C 0.06255 0.88305 0.62812 0.0
C1344 C 0.12141 0.95091 0.62706 0.0
C1345 C 0.08103 0.90099 0.63719 0.0
C1346 C 0.16441 1.00665 0.63627 0.0
C1347 C 0.17747 0.0433 0.61747 0.0
N1348 N 0.10921 0.93408 0.63644 0.0
N1349 N 0.15644 1.00764 0.61776 0.0
H1350 H 0.13466 0.18859 0.64538 0.0
H1351 H 0.96422 0.12973 0.60978 0.0
H1352 H 0.13396 0.17817 0.6116 0.0
H1353 H 0.96628 0.1403 0.64354 0.0
H1354 H 0.0286 0.15739 0.60985 0.0
H1355 H 0.07558 0.18089 0.64446 0.0
C1356 C 0.12237 0.18526 0.63775 0.0
C1357 C 0.1392 0.18351 0.62858 0.0
C1358 C 0.01497 0.15417 0.61722 0.0
C1359 C 0.07123 0.17422 0.62747 0.0
C1360 C 0.97823 0.13858 0.61717 0.0
C1361 C 0.9598 0.13221 0.62668 0.0
C1362 C 0.03327 0.1634 0.62685 0.0
C1363 C 0.97934 0.14415 0.63603 0.0
C1364 C 0.08853 0.18075 0.63723 0.0
C1365 C 0.12191 0.17928 0.61891 0.0
N1366 N 0.01486 0.15872 0.63589 0.0
N1367 N 0.08875 0.17431 0.61863 0.0
H1368 H 0.72854 0.51362 0.44406 0.0
H1369 H 0.86063 0.47577 0.47689 0.0
H1370 H 0.73765 0.52008 0.4779 0.0
H1371 H 0.8472 0.46163 0.44331 0.0
H1372 H 0.82443 0.50346 0.47686 0.0
H1373 H 0.77975 0.50578 0.44322 0.0
C1374 C 0.7416 0.51395 0.45132 0.0
C1375 C 0.72833 0.51701 0.46109 0.0
C1376 C 0.82974 0.49481 0.46946 0.0
C1377 C 0.78708 0.5078 0.46015 0.0
C1378 C 0.85052 0.47904 0.46946 0.0
C1379 C 0.85656 0.4659 0.4601 0.0
C1380 C 0.81445 0.49722 0.46004 0.0
C1381 C 0.84313 0.47127 0.45071 0.0
C1382 C 0.77087 0.5094 0.45082 0.0
C1383 C 0.74667 0.51753 0.4702 0.0
N1384 N 0.82218 0.486 0.45094 0.0
N1385 N 0.77479 0.51251 0.46951 0.0
H1386 H 0.49813 0.22111 0.4787 0.0
H1387 H 0.55739 0.3909 0.44277 0.0
H1388 H 0.5086 0.22115 0.44494 0.0
H1389 H 0.54708 0.38956 0.47653 0.0
H1390 H 0.52939 0.32649 0.44296 0.0
H1391 H 0.50585 0.28017 0.47765 0.0
C1392 C 0.50147 0.23325 0.47105 0.0
C1393 C 0.50324 0.21624 0.46192 0.0
C1394 C 0.53274 0.34029 0.45031 0.0
C1395 C 0.51257 0.2842 0.46066 0.0
C1396 C 0.54852 0.37704 0.45018 0.0
C1397 C 0.55507 0.39567 0.45966 0.0
C1398 C 0.5235 0.32217 0.45997 0.0
C1399 C 0.54309 0.37633 0.46905 0.0
C1400 C 0.50599 0.26708 0.47045 0.0
C1401 C 0.50748 0.23334 0.45222 0.0
N1402 N 0.52834 0.3408 0.46897 0.0
N1403 N 0.51248 0.2665 0.45186 0.0
H1404 H 0.80083 0.29208 0.44455 0.0
H1405 H 0.63034 0.16064 0.4773 0.0
H1406 H 0.79772 0.28344 0.47839 0.0
H1407 H 0.63011 0.17364 0.44368 0.0
H1408 H 0.69422 0.19683 0.47733 0.0
H1409 H 0.74172 0.24097 0.44369 0.0
C1410 C 0.78799 0.27915 0.45181 0.0
C1411 C 0.80421 0.29252 0.46158 0.0
C1412 C 0.68037 0.19143 0.46991 0.0
C1413 C 0.73618 0.23389 0.46062 0.0
C1414 C 0.64382 0.17066 0.46987 0.0
C1415 C 0.62478 0.16449 0.46048 0.0
C1416 C 0.69822 0.20658 0.4605 0.0
C1417 C 0.64372 0.17781 0.4511 0.0
C1418 C 0.75413 0.24993 0.4513 0.0
C1419 C 0.78625 0.27434 0.47069 0.0
N1420 N 0.67939 0.19874 0.45137 0.0
N1421 N 0.75307 0.24627 0.46999 0.0
H1422 H 0.81573 0.52553 0.71517 0.0
H1423 H 0.85335 0.39252 0.74757 0.0
H1424 H 0.80147 0.51119 0.74873 0.0
H1425 H 0.85992 0.4025 0.71375 0.0
H1426 H 0.84563 0.44378 0.74857 0.0
H1427 H 0.84346 0.48937 0.71506 0.0
C1428 C 0.81899 0.51524 0.72257 0.0
C1429 C 0.8058 0.521 0.73197 0.0
C1430 C 0.84925 0.43508 0.74094 0.0
C1431 C 0.83716 0.47893 0.73186 0.0
C1432 C 0.85373 0.40578 0.74034 0.0
C1433 C 0.85678 0.39274 0.73053 0.0
C1434 C 0.84771 0.45155 0.73166 0.0
C1435 C 0.85738 0.41133 0.72148 0.0
C1436 C 0.83478 0.49448 0.72249 0.0
C1437 C 0.81115 0.50733 0.74131 0.0
N1438 N 0.85243 0.43948 0.72226 0.0
N1439 N 0.8259 0.48641 0.741 0.0
H1440 H 0.49987 0.29491 0.7148 0.0
H1441 H 0.63192 0.46482 0.74766 0.0
H1442 H 0.51312 0.29419 0.74839 0.0
H1443 H 0.62307 0.46218 0.71382 0.0
H1444 H 0.58072 0.40576 0.74848 0.0
H1445 H 0.53622 0.35879 0.71482 0.0
C1446 C 0.50997 0.30829 0.72223 0.0
C1447 C 0.50383 0.2891 0.7316 0.0
C1448 C 0.58966 0.41826 0.74088 0.0
C1449 C 0.54611 0.36252 0.73165 0.0
C1450 C 0.61893 0.45209 0.74039 0.0
C1451 C 0.63226 0.46843 0.73062 0.0
C1452 C 0.57352 0.40046 0.73155 0.0
C1453 C 0.614 0.45061 0.72151 0.0
C1454 C 0.53084 0.34483 0.72222 0.0
C1455 C 0.51726 0.3079 0.74099 0.0
N1456 N 0.58587 0.41746 0.72219 0.0
N1457 N 0.53829 0.34357 0.74075 0.0
H1458 H 0.72987 0.21054 0.71449 0.0
H1459 H 0.55879 0.17013 0.74712 0.0
H1460 H 0.72947 0.22245 0.74815 0.0
H1461 H 0.56242 0.16567 0.71326 0.0
H1462 H 0.61788 0.17811 0.74799 0.0
H1463 H 0.66598 0.18272 0.71436 0.0
C1464 C 0.71625 0.20676 0.7219 0.0
C1465 C 0.73511 0.2193 0.73134 0.0
C1466 C 0.60559 0.1749 0.74038 0.0
C1467 C 0.66167 0.18782 0.73122 0.0
C1468 C 0.57174 0.17027 0.73986 0.0
C1469 C 0.55568 0.16773 0.73007 0.0
C1470 C 0.62369 0.17711 0.73106 0.0
C1471 C 0.57377 0.16779 0.72097 0.0
C1472 C 0.67969 0.19091 0.72181 0.0
C1473 C 0.716 0.21328 0.7407 0.0
N1474 N 0.60694 0.17288 0.72168 0.0
N1475 N 0.68032 0.19848 0.74038 0.0
H1476 H 0.63156 0.1715 0.24766 0.0
H1477 H 0.49877 0.20907 0.21511 0.0
H1478 H 0.62171 0.16473 0.21384 0.0
H1479 H 0.51291 0.22346 0.24868 0.0
H1480 H 0.53497 0.18138 0.21506 0.0
H1481 H 0.58036 0.17933 0.24861 0.0
C1482 C 0.61834 0.1711 0.24042 0.0
C1483 C 0.6314 0.16796 0.23062 0.0
C1484 C 0.52981 0.19009 0.22247 0.0
C1485 C 0.57266 0.17716 0.2317 0.0
C1486 C 0.50903 0.20586 0.22252 0.0
C1487 C 0.50319 0.21907 0.2319 0.0
C1488 C 0.5453 0.18774 0.23186 0.0
C1489 C 0.51683 0.21377 0.24126 0.0
C1490 C 0.58907 0.17564 0.24099 0.0
C1491 C 0.61286 0.16735 0.22156 0.0
N1492 N 0.53776 0.19903 0.24098 0.0
N1493 N 0.58474 0.17236 0.22231 0.0
H1494 H 0.80289 0.2942 0.24868 0.0
H1495 H 0.86129 0.46424 0.21294 0.0
H1496 H 0.81197 0.29569 0.21488 0.0
H1497 H 0.85154 0.46395 0.24673 0.0
H1498 H 0.85354 0.40515 0.21388 0.0
H1499 H 0.83093 0.35861 0.24854 0.0
C1500 C 0.8115 0.30809 0.24127 0.0
C1501 C 0.80459 0.2895 0.23177 0.0
C1502 C 0.85356 0.41819 0.22111 0.0
C1503 C 0.83622 0.36301 0.23152 0.0
C1504 C 0.8581 0.45204 0.22057 0.0
C1505 C 0.85654 0.46898 0.22974 0.0
C1506 C 0.84718 0.40099 0.23088 0.0
C1507 C 0.8525 0.45181 0.23942 0.0
C1508 C 0.8273 0.34484 0.24117 0.0
C1509 C 0.81624 0.30888 0.22238 0.0
N1510 N 0.84748 0.41863 0.23972 0.0
N1511 N 0.83103 0.34443 0.22248 0.0
H1512 H 0.73064 0.51341 0.24873 0.0
H1513 H 0.55956 0.40205 0.21336 0.0
H1514 H 0.72809 0.52163 0.21497 0.0
H1515 H 0.56083 0.39221 0.24711 0.0
H1516 H 0.61869 0.45336 0.21421 0.0
H1517 H 0.66624 0.47683 0.24874 0.0
C1518 C 0.71652 0.50822 0.24136 0.0
C1519 C 0.73481 0.52015 0.23182 0.0
C1520 C 0.60585 0.44026 0.22145 0.0
C1521 C 0.66132 0.47804 0.23175 0.0
C1522 C 0.57198 0.41097 0.22096 0.0
C1523 C 0.5553 0.39237 0.23015 0.0
C1524 C 0.62333 0.45097 0.23118 0.0
C1525 C 0.57276 0.40539 0.2398 0.0
C1526 C 0.67978 0.48715 0.24135 0.0
C1527 C 0.71514 0.51252 0.2225 0.0
N1528 N 0.60595 0.43353 0.24004 0.0
N1529 N 0.67961 0.49166 0.22268 0.0
H1530 H 0.55857 0.17206 0.94283 0.0
H1531 H 0.49918 0.28305 0.9785 0.0
H1532 H 0.54755 0.16306 0.97658 0.0
H1533 H 0.51017 0.29337 0.94476 0.0
H1534 H 0.50678 0.23162 0.97754 0.0
H1535 H 0.5308 0.20869 0.94292 0.0
C1536 C 0.54959 0.17708 0.95022 0.0
C1537 C 0.55587 0.16493 0.95972 0.0
C1538 C 0.50706 0.24485 0.97032 0.0
C1539 C 0.52456 0.2071 0.95992 0.0
C1540 C 0.50261 0.27421 0.97087 0.0
C1541 C 0.50455 0.29297 0.96172 0.0
C1542 C 0.51374 0.23424 0.96056 0.0
C1543 C 0.50891 0.28006 0.95205 0.0
C1544 C 0.53394 0.19818 0.95028 0.0
C1545 C 0.54376 0.17235 0.96907 0.0
N1546 N 0.51384 0.25185 0.95173 0.0
N1547 N 0.52914 0.19325 0.96895 0.0
H1548 H 0.86101 0.39019 0.97734 0.0
H1549 H 0.72946 0.22012 0.94445 0.0
H1550 H 0.84804 0.39081 0.94373 0.0
H1551 H 0.73788 0.22292 0.9783 0.0
H1552 H 0.78064 0.27919 0.94365 0.0
H1553 H 0.82472 0.32632 0.97732 0.0
C1554 C 0.85098 0.3768 0.9699 0.0
C1555 C 0.85718 0.39595 0.96053 0.0
C1556 C 0.77162 0.26672 0.95124 0.0
C1557 C 0.81498 0.32252 0.96049 0.0
C1558 C 0.74236 0.23289 0.95173 0.0
C1559 C 0.72891 0.21659 0.96149 0.0
C1560 C 0.78762 0.28458 0.96058 0.0
C1561 C 0.74704 0.23445 0.97061 0.0
C1562 C 0.83015 0.34025 0.96991 0.0
C1563 C 0.84384 0.37712 0.95114 0.0
N1564 N 0.77516 0.26761 0.96994 0.0
N1565 N 0.82286 0.34145 0.95137 0.0
H1566 H 0.8009 0.52257 0.97897 0.0
H1567 H 0.63099 0.46392 0.94316 0.0
H1568 H 0.80068 0.51242 0.9452 0.0
H1569 H 0.63244 0.47368 0.97694 0.0
H1570 H 0.69539 0.4918 0.94332 0.0
H1571 H 0.74184 0.51487 0.97799 0.0
C1572 C 0.78873 0.51931 0.97134 0.0
C1573 C 0.80568 0.51762 0.96218 0.0
C1574 C 0.68161 0.48835 0.95068 0.0
C1575 C 0.73772 0.50832 0.96099 0.0
C1576 C 0.64487 0.47264 0.95057 0.0
C1577 C 0.62627 0.46597 0.96006 0.0
C1578 C 0.69976 0.49742 0.96033 0.0
C1579 C 0.64564 0.47776 0.96944 0.0
C1580 C 0.75489 0.5148 0.97077 0.0
C1581 C 0.78853 0.51347 0.95249 0.0
N1582 N 0.68117 0.49246 0.96935 0.0
N1583 N 0.75537 0.50849 0.95217 0.0
H1584 H 0.40522 0.85502 0.81229 0.0
H1585 H 0.51803 0.79743 0.77676 0.0
H1586 H 0.39688 0.84608 0.77847 0.0
H1587 H 0.52467 0.80588 0.81059 0.0
H1588 H 0.48151 0.82531 0.77684 0.0
H1589 H 0.45653 0.84719 0.81147 0.0
C1590 C 0.41447 0.852 0.80468 0.0
C1591 C 0.39629 0.85069 0.79546 0.0
C1592 C 0.49147 0.82157 0.78423 0.0
C1593 C 0.45488 0.84123 0.79446 0.0
C1594 C 0.5125 0.80585 0.78417 0.0
C1595 C 0.52397 0.79883 0.79369 0.0
C1596 C 0.48194 0.83029 0.79387 0.0
C1597 C 0.51592 0.81025 0.80307 0.0
C1598 C 0.44376 0.8474 0.80421 0.0
C1599 C 0.40972 0.84684 0.78581 0.0
N1600 N 0.49511 0.82497 0.80293 0.0
N1601 N 0.43785 0.84177 0.78557 0.0
H1602 H 0.22674 0.72481 0.77621 0.0
H1603 H 0.16689 0.55419 0.81181 0.0
H1604 H 0.21488 0.72248 0.80993 0.0
H1605 H 0.17863 0.55515 0.77809 0.0
H1606 H 0.17447 0.6132 0.81085 0.0
H1607 H 0.1992 0.66044 0.77627 0.0
C1608 C 0.21763 0.71074 0.78359 0.0
C1609 C 0.2236 0.7291 0.79309 0.0
C1610 C 0.17493 0.60033 0.80363 0.0
C1611 C 0.19254 0.65563 0.79325 0.0
C1612 C 0.17049 0.56652 0.80419 0.0
C1613 C 0.17264 0.54978 0.79505 0.0
C1614 C 0.1818 0.61769 0.79388 0.0
C1615 C 0.17721 0.56713 0.78537 0.0
C1616 C 0.20211 0.67401 0.78363 0.0
C1617 C 0.21133 0.70948 0.80243 0.0
N1618 N 0.18211 0.60026 0.78506 0.0
N1619 N 0.19683 0.67397 0.80228 0.0
H1620 H 0.46993 0.62584 0.7779 0.0
H1621 H 0.29936 0.49353 0.81044 0.0
H1622 H 0.46663 0.6164 0.81173 0.0
H1623 H 0.29941 0.50707 0.77684 0.0
H1624 H 0.36325 0.52967 0.81053 0.0
H1625 H 0.41096 0.57455 0.77696 0.0
C1626 C 0.45708 0.61269 0.78514 0.0
C1627 C 0.47319 0.62589 0.79493 0.0
C1628 C 0.34946 0.5244 0.8031 0.0
C1629 C 0.40532 0.56707 0.79387 0.0
C1630 C 0.31291 0.50365 0.80303 0.0
C1631 C 0.29394 0.49767 0.79363 0.0
C1632 C 0.36738 0.53971 0.79371 0.0
C1633 C 0.31295 0.51111 0.78427 0.0
C1634 C 0.4233 0.58337 0.78458 0.0
C1635 C 0.45523 0.60744 0.80401 0.0
N1636 N 0.34863 0.53203 0.78457 0.0
N1637 N 0.42212 0.57928 0.80326 0.0
H1638 H 0.48038 0.85748 0.04805 0.0
H1639 H 0.5188 0.72541 0.08069 0.0
H1640 H 0.4669 0.84414 0.08166 0.0
H1641 H 0.52432 0.73422 0.04685 0.0
H1642 H 0.51101 0.77664 0.08158 0.0
H1643 H 0.50794 0.82117 0.04798 0.0
C1644 C 0.48377 0.84737 0.05547 0.0
C1645 C 0.47085 0.85347 0.06487 0.0
C1646 C 0.51441 0.76769 0.07397 0.0
C1647 C 0.50204 0.81123 0.06481 0.0
C1648 C 0.51893 0.73841 0.07344 0.0
C1649 C 0.52172 0.72505 0.06365 0.0
C1650 C 0.51257 0.78383 0.06466 0.0
C1651 C 0.522 0.7433 0.05456 0.0
C1652 C 0.49947 0.82652 0.05541 0.0
C1653 C 0.47637 0.84002 0.07423 0.0
N1654 N 0.51701 0.77145 0.05528 0.0
N1655 N 0.49103 0.81902 0.07395 0.0
H1656 H 0.16554 0.62759 0.04812 0.0
H1657 H 0.29715 0.79844 0.08067 0.0
H1658 H 0.17853 0.62783 0.08175 0.0
H1659 H 0.28836 0.79493 0.04683 0.0
H1660 H 0.24595 0.7394 0.08159 0.0
H1661 H 0.20169 0.69148 0.048 0.0
C1662 C 0.17555 0.64118 0.05553 0.0
C1663 C 0.1694 0.62227 0.06495 0.0
C1664 C 0.2549 0.75171 0.07397 0.0
C1665 C 0.21146 0.6957 0.06484 0.0
C1666 C 0.28416 0.78552 0.07342 0.0
C1667 C 0.29752 0.8016 0.06363 0.0
C1668 C 0.23879 0.73366 0.06467 0.0
C1669 C 0.27928 0.78356 0.05454 0.0
C1670 C 0.1963 0.67773 0.05544 0.0
C1671 C 0.1827 0.64133 0.07431 0.0
N1672 N 0.25115 0.75042 0.05528 0.0
N1673 N 0.20362 0.67701 0.07399 0.0
H1674 H 0.39481 0.54173 0.04825 0.0
H1675 H 0.22476 0.50422 0.08096 0.0
H1676 H 0.39528 0.55586 0.08183 0.0
H1677 H 0.22755 0.49745 0.04713 0.0
H1678 H 0.28375 0.51193 0.08185 0.0
H1679 H 0.33093 0.51405 0.04824 0.0
C1680 C 0.38138 0.53846 0.05567 0.0
C1681 C 0.40049 0.5516 0.06505 0.0
C1682 C 0.27129 0.50827 0.07424 0.0
C1683 C 0.32706 0.52029 0.06506 0.0
C1684 C 0.23751 0.5038 0.07371 0.0
C1685 C 0.22124 0.50069 0.06393 0.0
C1686 C 0.28913 0.50975 0.06493 0.0
C1687 C 0.23907 0.50004 0.05484 0.0
C1688 C 0.34483 0.52269 0.05565 0.0
C1689 C 0.38162 0.54623 0.07443 0.0
N1690 N 0.27218 0.50499 0.05556 0.0
N1691 N 0.34595 0.5315 0.07417 0.0
H1692 H 0.17532 0.5534 0.58199 0.0
H1693 H 0.2868 0.49477 0.54625 0.0
H1694 H 0.16716 0.54358 0.54821 0.0
H1695 H 0.29651 0.50486 0.58003 0.0
H1696 H 0.23544 0.50248 0.5472 0.0
H1697 H 0.21186 0.52554 0.58186 0.0
C1698 C 0.18052 0.54467 0.57458 0.0
C1699 C 0.16862 0.55132 0.56509 0.0
C1700 C 0.24852 0.50254 0.55443 0.0
C1701 C 0.21068 0.51989 0.56484 0.0
C1702 C 0.27784 0.49802 0.55389 0.0
C1703 C 0.29642 0.49969 0.56305 0.0
C1704 C 0.23776 0.509 0.5642 0.0
C1705 C 0.28335 0.50382 0.57273 0.0
C1706 C 0.20156 0.52897 0.57449 0.0
C1707 C 0.17625 0.53952 0.55571 0.0
N1708 N 0.25518 0.50881 0.57303 0.0
N1709 N 0.19709 0.52483 0.55581 0.0
H1710 H 0.46712 0.62563 0.58192 0.0
H1711 H 0.52612 0.79645 0.54649 0.0
H1712 H 0.47727 0.62794 0.54814 0.0
H1713 H 0.5159 0.79546 0.58027 0.0
H1714 H 0.51833 0.73733 0.54733 0.0
H1715 H 0.49499 0.69003 0.5819 0.0
C1716 C 0.47591 0.63969 0.57454 0.0
C1717 C 0.46937 0.62133 0.56501 0.0
C1718 C 0.51826 0.75022 0.55458 0.0
C1719 C 0.50081 0.69483 0.5649 0.0
C1720 C 0.52282 0.78409 0.5541 0.0
C1721 C 0.52115 0.80085 0.5633 0.0
C1722 C 0.51174 0.73282 0.56432 0.0
C1723 C 0.51695 0.78347 0.57294 0.0
C1724 C 0.49162 0.67645 0.57451 0.0
C1725 C 0.48126 0.64094 0.55567 0.0
N1726 N 0.51191 0.75028 0.57319 0.0
N1727 N 0.49595 0.67647 0.55583 0.0
H1728 H 0.39509 0.845 0.5823 0.0
H1729 H 0.22466 0.73424 0.54663 0.0
H1730 H 0.39311 0.85395 0.54855 0.0
H1731 H 0.22531 0.72386 0.58038 0.0
H1732 H 0.28375 0.78556 0.5476 0.0
H1733 H 0.33069 0.80841 0.58221 0.0
C1734 C 0.3811 0.83997 0.57491 0.0
C1735 C 0.39955 0.85211 0.56541 0.0
C1736 C 0.27079 0.77234 0.55482 0.0
C1737 C 0.32606 0.80998 0.56522 0.0
C1738 C 0.23694 0.74304 0.55426 0.0
C1739 C 0.22009 0.72429 0.56341 0.0
C1740 C 0.28809 0.7829 0.56458 0.0
C1741 C 0.23737 0.73715 0.57309 0.0
C1742 C 0.34435 0.81889 0.57485 0.0
C1743 C 0.38003 0.84468 0.55606 0.0
N1744 N 0.27054 0.76531 0.5734 0.0
N1745 N 0.34451 0.8238 0.55619 0.0
H1746 H 0.21499 0.49574 0.31075 0.0
H1747 H 0.17582 0.62685 0.27788 0.0
H1748 H 0.22766 0.50807 0.2771 0.0
H1749 H 0.17069 0.61875 0.31174 0.0
H1750 H 0.18367 0.57564 0.27708 0.0
H1751 H 0.18739 0.53202 0.31077 0.0
C1752 C 0.21142 0.50563 0.30332 0.0
C1753 C 0.22412 0.49925 0.29392 0.0
C1754 C 0.18034 0.58474 0.28467 0.0
C1755 C 0.19289 0.54145 0.29392 0.0
C1756 C 0.17579 0.61401 0.28516 0.0
C1757 C 0.17309 0.62756 0.29492 0.0
C1758 C 0.18232 0.56882 0.29402 0.0
C1759 C 0.17294 0.60951 0.30404 0.0
C1760 C 0.1957 0.52645 0.30335 0.0
C1761 C 0.21838 0.51241 0.28453 0.0
N1762 N 0.17796 0.58138 0.30337 0.0
N1763 N 0.20369 0.5334 0.28479 0.0
H1764 H 0.52945 0.72483 0.31038 0.0
H1765 H 0.39753 0.55375 0.27798 0.0
H1766 H 0.51615 0.72431 0.27676 0.0
H1767 H 0.4067 0.5575 0.31182 0.0
H1768 H 0.44875 0.61275 0.277 0.0
H1769 H 0.49335 0.66094 0.31055 0.0
C1770 C 0.51939 0.71118 0.30298 0.0
C1771 C 0.52543 0.73001 0.29355 0.0
C1772 C 0.43989 0.60051 0.28463 0.0
C1773 C 0.48343 0.65657 0.29372 0.0
C1774 C 0.41061 0.56671 0.28522 0.0
C1775 C 0.39735 0.55071 0.29503 0.0
C1776 C 0.45611 0.61862 0.29392 0.0
C1777 C 0.41571 0.56881 0.30409 0.0
C1778 C 0.49867 0.67463 0.3031 0.0
C1779 C 0.51207 0.71087 0.28421 0.0
N1780 N 0.44384 0.60193 0.30332 0.0
N1781 N 0.49118 0.67519 0.28455 0.0
H1782 H 0.46996 0.84791 0.27745 0.0
H1783 H 0.29996 0.81115 0.31007 0.0
H1784 H 0.46708 0.85487 0.31126 0.0
H1785 H 0.29944 0.79633 0.27652 0.0
H1786 H 0.36384 0.83869 0.31008 0.0
H1787 H 0.411 0.84027 0.27652 0.0
C1788 C 0.4572 0.84839 0.28469 0.0
C1789 C 0.47343 0.85153 0.29448 0.0
C1790 C 0.34992 0.82993 0.30268 0.0
C1791 C 0.40558 0.84256 0.29344 0.0
C1792 C 0.31338 0.81425 0.30265 0.0
C1793 C 0.29425 0.80095 0.29329 0.0
C1794 C 0.36767 0.8321 0.29329 0.0
C1795 C 0.31311 0.80609 0.28392 0.0
C1796 C 0.42343 0.84395 0.28413 0.0
C1797 C 0.45559 0.85225 0.30355 0.0
N1798 N 0.34877 0.82075 0.28418 0.0
N1799 N 0.4225 0.84734 0.30281 0.0
loop_
_geom_bond_atom_site_label_1
_geom_bond_atom_site_label_2
_geom_bond_distance
_geom_bond_site_symmetry_2
_ccdc_geom_bond_type
O0 Cd1 2.223 1_565 S
O0 C8 1.315 . S
Cd1 O0 2.223 1_545 S
Cd1 O4 2.297 1_545 S
Cd1 O5 2.439 . S
Cd1 O11 2.240 . S
Cd2 O3 2.240 1_545 S
Cd2 O10 2.223 . S
Cd2 O12 2.297 . S
Cd2 O13 2.439 . S
O3 Cd2 2.240 1_565 S
O3 C8 1.279 . S
O4 Cd1 2.297 1_565 S
O4 C6 1.247 1_565 S
O5 Cd1 2.439 . S
O5 C6 1.208 . S
C6 O4 1.247 1_545 S
C6 O5 1.208 . S
C7 O12 1.247 . S
C7 O13 1.208 . S
C8 O0 1.315 . S
C8 O3 1.279 . S
C9 O10 1.315 . S
C9 O11 1.279 . S
O10 Cd2 2.223 . S
O10 C9 1.315 . S
O11 Cd1 2.240 . S
O11 C9 1.279 . S
O12 Cd2 2.297 . S
O12 C7 1.247 . S
O13 Cd2 2.439 . S
O13 C7 1.208 . S
O14 Cd15 2.223 1_455 S
O14 C22 1.315 . S
Cd15 O14 2.223 1_655 S
Cd15 O18 2.297 1_655 S
Cd15 O19 2.439 . S
Cd15 O25 2.240 . S
Cd16 O17 2.240 1_655 S
Cd16 O24 2.223 . S
Cd16 O26 2.297 . S
Cd16 O27 2.439 . S
O17 Cd16 2.240 1_455 S
O17 C22 1.279 . S
O18 Cd15 2.297 1_455 S
O18 C20 1.247 1_455 S
O19 Cd15 2.439 . S
O19 C20 1.208 . S
C20 O18 1.247 1_655 S
C20 O19 1.208 . S
C21 O26 1.247 . S
C21 O27 1.208 . S
C22 O14 1.315 . S
C22 O17 1.279 . S
C23 O24 1.315 . S
C23 O25 1.279 . S
O24 Cd16 2.223 . S
O24 C23 1.315 . S
O25 Cd15 2.240 . S
O25 C23 1.279 . S
O26 Cd16 2.297 . S
O26 C21 1.247 . S
O27 Cd16 2.439 . S
O27 C21 1.208 . S
O28 Cd29 2.223 . S
O28 C36 1.315 . S
Cd29 O28 2.223 . S
Cd29 O32 2.297 . S
Cd29 O33 2.439 . S
Cd29 O39 2.240 . S
Cd30 O31 2.240 . S
Cd30 O38 2.223 . S
Cd30 O40 2.297 . S
Cd30 O41 2.439 . S
O31 Cd30 2.240 . S
O31 C36 1.279 . S
O32 Cd29 2.297 . S
O32 C34 1.247 . S
O33 Cd29 2.439 . S
O33 C34 1.208 . S
C34 O32 1.247 . S
C34 O33 1.208 . S
C35 O40 1.247 . S
C35 O41 1.208 . S
C36 O28 1.315 . S
C36 O31 1.279 . S
C37 O38 1.315 . S
C37 O39 1.279 . S
O38 Cd30 2.223 . S
O38 C37 1.315 . S
O39 Cd29 2.240 . S
O39 C37 1.279 . S
O40 Cd30 2.297 . S
O40 C35 1.247 . S
O41 Cd30 2.439 . S
O41 C35 1.208 . S
O42 Cd43 2.223 1_655 S
O42 C50 1.315 . S
Cd43 O42 2.223 1_455 S
Cd43 O46 2.297 1_455 S
Cd43 O47 2.439 . S
Cd43 O53 2.240 . S
Cd44 O45 2.240 1_455 S
Cd44 O52 2.223 . S
Cd44 O54 2.297 . S
Cd44 O55 2.439 . S
O45 Cd44 2.240 1_655 S
O45 C50 1.279 . S
O46 Cd43 2.297 1_655 S
O46 C48 1.247 1_655 S
O47 Cd43 2.439 . S
O47 C48 1.208 . S
C48 O46 1.247 1_455 S
C48 O47 1.208 . S
C49 O54 1.247 . S
C49 O55 1.208 . S
C50 O42 1.315 . S
C50 O45 1.279 . S
C51 O52 1.315 . S
C51 O53 1.279 . S
O52 Cd44 2.223 . S
O52 C51 1.315 . S
O53 Cd43 2.240 . S
O53 C51 1.279 . S
O54 Cd44 2.297 . S
O54 C49 1.247 . S
O55 Cd44 2.439 . S
O55 C49 1.208 . S
O56 Cd57 2.223 . S
O56 C64 1.315 . S
Cd57 O56 2.223 . S
Cd57 O60 2.297 . S
Cd57 O61 2.439 . S
Cd57 O67 2.240 . S
Cd58 O59 2.240 . S
Cd58 O66 2.223 . S
Cd58 O68 2.297 . S
Cd58 O69 2.439 . S
O59 Cd58 2.240 . S
O59 C64 1.279 . S
O60 Cd57 2.297 . S
O60 C62 1.247 . S
O61 Cd57 2.439 . S
O61 C62 1.208 . S
C62 O60 1.247 . S
C62 O61 1.208 . S
C63 O68 1.247 . S
C63 O69 1.208 . S
C64 O56 1.315 . S
C64 O59 1.279 . S
C65 O66 1.315 . S
C65 O67 1.279 . S
O66 Cd58 2.223 . S
O66 C65 1.315 . S
O67 Cd57 2.240 . S
O67 C65 1.279 . S
O68 Cd58 2.297 . S
O68 C63 1.247 . S
O69 Cd58 2.439 . S
O69 C63 1.208 . S
O70 Cd71 2.223 1_545 S
O70 C78 1.315 . S
Cd71 O70 2.223 1_565 S
Cd71 O74 2.297 1_565 S
Cd71 O75 2.439 . S
Cd71 O81 2.240 . S
Cd72 O73 2.240 1_565 S
Cd72 O80 2.223 . S
Cd72 O82 2.297 . S
Cd72 O83 2.439 . S
O73 Cd72 2.240 1_545 S
O73 C78 1.279 . S
O74 Cd71 2.297 1_545 S
O74 C76 1.247 1_545 S
O75 Cd71 2.439 . S
O75 C76 1.208 . S
C76 O74 1.247 1_565 S
C76 O75 1.208 . S
C77 O82 1.247 . S
C77 O83 1.208 . S
C78 O70 1.315 . S
C78 O73 1.279 . S
C79 O80 1.315 . S
C79 O81 1.279 . S
O80 Cd72 2.223 . S
O80 C79 1.315 . S
O81 Cd71 2.240 . S
O81 C79 1.279 . S
O82 Cd72 2.297 . S
O82 C77 1.247 . S
O83 Cd72 2.439 . S
O83 C77 1.208 . S
O84 Cd85 2.223 1_545 S
O84 C92 1.315 . S
Cd85 O84 2.223 1_565 S
Cd85 O88 2.297 1_565 S
Cd85 O89 2.439 . S
Cd85 O95 2.240 . S
Cd86 O87 2.240 1_565 S
Cd86 O94 2.223 . S
Cd86 O96 2.297 . S
Cd86 O97 2.439 . S
O87 Cd86 2.240 1_545 S
O87 C92 1.279 . S
O88 Cd85 2.297 1_545 S
O88 C90 1.247 1_545 S
O89 Cd85 2.439 . S
O89 C90 1.208 . S
C90 O88 1.247 1_565 S
C90 O89 1.208 . S
C91 O96 1.247 . S
C91 O97 1.208 . S
C92 O84 1.315 . S
C92 O87 1.279 . S
C93 O94 1.315 . S
C93 O95 1.279 . S
O94 Cd86 2.223 . S
O94 C93 1.315 . S
O95 Cd85 2.240 . S
O95 C93 1.279 . S
O96 Cd86 2.297 . S
O96 C91 1.247 . S
O97 Cd86 2.439 . S
O97 C91 1.208 . S
O98 Cd99 2.223 1_655 S
O98 C106 1.315 . S
Cd99 O98 2.223 1_455 S
Cd99 O102 2.297 1_455 S
Cd99 O103 2.439 . S
Cd99 O109 2.240 . S
Cd100 O101 2.240 1_455 S
Cd100 O108 2.223 . S
Cd100 O110 2.297 . S
Cd100 O111 2.439 . S
O101 Cd100 2.240 1_655 S
O101 C106 1.279 . S
O102 Cd99 2.297 1_655 S
O102 C104 1.247 1_655 S
O103 Cd99 2.439 . S
O103 C104 1.208 . S
C104 O102 1.247 1_455 S
C104 O103 1.208 . S
C105 O110 1.247 . S
C105 O111 1.208 . S
C106 O98 1.315 . S
C106 O101 1.279 . S
C107 O108 1.315 . S
C107 O109 1.279 . S
O108 Cd100 2.223 . S
O108 C107 1.315 . S
O109 Cd99 2.240 . S
O109 C107 1.279 . S
O110 Cd100 2.297 . S
O110 C105 1.247 . S
O111 Cd100 2.439 . S
O111 C105 1.208 . S
O112 Cd113 2.223 . S
O112 C120 1.315 . S
Cd113 O112 2.223 . S
Cd113 O116 2.297 . S
Cd113 O117 2.439 . S
Cd113 O123 2.240 . S
Cd114 O115 2.240 . S
Cd114 O122 2.223 . S
Cd114 O124 2.297 . S
Cd114 O125 2.439 . S
O115 Cd114 2.240 . S
O115 C120 1.279 . S
O116 Cd113 2.297 . S
O116 C118 1.247 . S
O117 Cd113 2.439 . S
O117 C118 1.208 . S
C118 O116 1.247 . S
C118 O117 1.208 . S
C119 O124 1.247 . S
C119 O125 1.208 . S
C120 O112 1.315 . S
C120 O115 1.279 . S
C121 O122 1.315 . S
C121 O123 1.279 . S
O122 Cd114 2.223 . S
O122 C121 1.315 . S
O123 Cd113 2.240 . S
O123 C121 1.279 . S
O124 Cd114 2.297 . S
O124 C119 1.247 . S
O125 Cd114 2.439 . S
O125 C119 1.208 . S
O126 Cd127 2.223 1_455 S
O126 C134 1.315 . S
Cd127 O126 2.223 1_655 S
Cd127 O130 2.297 1_655 S
Cd127 O131 2.439 . S
Cd127 O137 2.240 . S
Cd128 O129 2.240 1_655 S
Cd128 O136 2.223 . S
Cd128 O138 2.297 . S
Cd128 O139 2.439 . S
O129 Cd128 2.240 1_455 S
O129 C134 1.279 . S
O130 Cd127 2.297 1_455 S
O130 C132 1.247 1_455 S
O131 Cd127 2.439 . S
O131 C132 1.208 . S
C132 O130 1.247 1_655 S
C132 O131 1.208 . S
C133 O138 1.247 . S
C133 O139 1.208 . S
C134 O126 1.315 . S
C134 O129 1.279 . S
C135 O136 1.315 . S
C135 O137 1.279 . S
O136 Cd128 2.223 . S
O136 C135 1.315 . S
O137 Cd127 2.240 . S
O137 C135 1.279 . S
O138 Cd128 2.297 . S
O138 C133 1.247 . S
O139 Cd128 2.439 . S
O139 C133 1.208 . S
O140 Cd141 2.223 . S
O140 C148 1.315 . S
Cd141 O140 2.223 . S
Cd141 O144 2.297 . S
Cd141 O145 2.439 . S
Cd141 O151 2.240 . S
Cd142 O143 2.240 . S
Cd142 O150 2.223 . S
Cd142 O152 2.297 . S
Cd142 O153 2.439 . S
O143 Cd142 2.240 . S
O143 C148 1.279 . S
O144 Cd141 2.297 . S
O144 C146 1.247 . S
O145 Cd141 2.439 . S
O145 C146 1.208 . S
C146 O144 1.247 . S
C146 O145 1.208 . S
C147 O152 1.247 . S
C147 O153 1.208 . S
C148 O140 1.315 . S
C148 O143 1.279 . S
C149 O150 1.315 . S
C149 O151 1.279 . S
O150 Cd142 2.223 . S
O150 C149 1.315 . S
O151 Cd141 2.240 . S
O151 C149 1.279 . S
O152 Cd142 2.297 . S
O152 C147 1.247 . S
O153 Cd142 2.439 . S
O153 C147 1.208 . S
O154 Cd155 2.223 1_565 S
O154 C162 1.315 . S
Cd155 O154 2.223 1_545 S
Cd155 O158 2.297 1_545 S
Cd155 O159 2.439 . S
Cd155 O165 2.240 . S
Cd156 O157 2.240 1_545 S
Cd156 O164 2.223 . S
Cd156 O166 2.297 . S
Cd156 O167 2.439 . S
O157 Cd156 2.240 1_565 S
O157 C162 1.279 . S
O158 Cd155 2.297 1_565 S
O158 C160 1.247 1_565 S
O159 Cd155 2.439 . S
O159 C160 1.208 . S
C160 O158 1.247 1_545 S
C160 O159 1.208 . S
C161 O166 1.247 . S
C161 O167 1.208 . S
C162 O154 1.315 . S
C162 O157 1.279 . S
C163 O164 1.315 . S
C163 O165 1.279 . S
O164 Cd156 2.223 . S
O164 C163 1.315 . S
O165 Cd155 2.240 . S
O165 C163 1.279 . S
O166 Cd156 2.297 . S
O166 C161 1.247 . S
O167 Cd156 2.439 . S
O167 C161 1.208 . S
O168 Cd169 2.223 . S
O168 C176 1.315 . S
Cd169 O168 2.223 . S
Cd169 O172 2.297 . S
Cd169 O173 2.439 . S
Cd169 O179 2.240 . S
Cd170 O171 2.240 . S
Cd170 O178 2.223 . S
Cd170 O180 2.297 . S
Cd170 O181 2.439 . S
O171 Cd170 2.240 . S
O171 C176 1.279 . S
O172 Cd169 2.297 . S
O172 C174 1.247 . S
O173 Cd169 2.439 . S
O173 C174 1.208 . S
C174 O172 1.247 . S
C174 O173 1.208 . S
C175 O180 1.247 . S
C175 O181 1.208 . S
C176 O168 1.315 . S
C176 O171 1.279 . S
C177 O178 1.315 . S
C177 O179 1.279 . S
O178 Cd170 2.223 . S
O178 C177 1.315 . S
O179 Cd169 2.240 . S
O179 C177 1.279 . S
O180 Cd170 2.297 . S
O180 C175 1.247 . S
O181 Cd170 2.439 . S
O181 C175 1.208 . S
O182 Cd183 2.223 . S
O182 C190 1.315 . S
Cd183 O182 2.223 . S
Cd183 O186 2.297 . S
Cd183 O187 2.439 . S
Cd183 O193 2.240 . S
Cd184 O185 2.240 . S
Cd184 O192 2.223 . S
Cd184 O194 2.297 . S
Cd184 O195 2.439 . S
O185 Cd184 2.240 . S
O185 C190 1.279 . S
O186 Cd183 2.297 . S
O186 C188 1.247 . S
O187 Cd183 2.439 . S
O187 C188 1.208 . S
C188 O186 1.247 . S
C188 O187 1.208 . S
C189 O194 1.247 . S
C189 O195 1.208 . S
C190 O182 1.315 . S
C190 O185 1.279 . S
C191 O192 1.315 . S
C191 O193 1.279 . S
O192 Cd184 2.223 . S
O192 C191 1.315 . S
O193 Cd183 2.240 . S
O193 C191 1.279 . S
O194 Cd184 2.297 . S
O194 C189 1.247 . S
O195 Cd184 2.439 . S
O195 C189 1.208 . S
O196 Cd197 2.223 . S
O196 C204 1.315 . S
Cd197 O196 2.223 . S
Cd197 O200 2.297 . S
Cd197 O201 2.439 . S
Cd197 O207 2.240 . S
Cd198 O199 2.240 . S
Cd198 O206 2.223 . S
Cd198 O208 2.297 . S
Cd198 O209 2.439 . S
O199 Cd198 2.240 . S
O199 C204 1.279 . S
O200 Cd197 2.297 . S
O200 C202 1.247 . S
O201 Cd197 2.439 . S
O201 C202 1.208 . S
C202 O200 1.247 . S
C202 O201 1.208 . S
C203 O208 1.247 . S
C203 O209 1.208 . S
C204 O196 1.315 . S
C204 O199 1.279 . S
C205 O206 1.315 . S
C205 O207 1.279 . S
O206 Cd198 2.223 . S
O206 C205 1.315 . S
O207 Cd197 2.240 . S
O207 C205 1.279 . S
O208 Cd198 2.297 . S
O208 C203 1.247 . S
O209 Cd198 2.439 . S
O209 C203 1.208 . S
O210 Cd211 2.223 . S
O210 C218 1.315 . S
Cd211 O210 2.223 . S
Cd211 O214 2.297 . S
Cd211 O215 2.439 . S
Cd211 O221 2.240 . S
Cd212 O213 2.240 . S
Cd212 O220 2.223 . S
Cd212 O222 2.297 . S
Cd212 O223 2.439 . S
O213 Cd212 2.240 . S
O213 C218 1.279 . S
O214 Cd211 2.297 . S
O214 C216 1.247 . S
O215 Cd211 2.439 . S
O215 C216 1.208 . S
C216 O214 1.247 . S
C216 O215 1.208 . S
C217 O222 1.247 . S
C217 O223 1.208 . S
C218 O210 1.315 . S
C218 O213 1.279 . S
C219 O220 1.315 . S
C219 O221 1.279 . S
O220 Cd212 2.223 . S
O220 C219 1.315 . S
O221 Cd211 2.240 . S
O221 C219 1.279 . S
O222 Cd212 2.297 . S
O222 C217 1.247 . S
O223 Cd212 2.439 . S
O223 C217 1.208 . S
O224 Cd225 2.223 . S
O224 C232 1.315 . S
Cd225 O224 2.223 . S
Cd225 O228 2.297 . S
Cd225 O229 2.439 . S
Cd225 O235 2.240 . S
Cd226 O227 2.240 . S
Cd226 O234 2.223 . S
Cd226 O236 2.297 . S
Cd226 O237 2.439 . S
O227 Cd226 2.240 . S
O227 C232 1.279 . S
O228 Cd225 2.297 . S
O228 C230 1.247 . S
O229 Cd225 2.439 . S
O229 C230 1.208 . S
C230 O228 1.247 . S
C230 O229 1.208 . S
C231 O236 1.247 . S
C231 O237 1.208 . S
C232 O224 1.315 . S
C232 O227 1.279 . S
C233 O234 1.315 . S
C233 O235 1.279 . S
O234 Cd226 2.223 . S
O234 C233 1.315 . S
O235 Cd225 2.240 . S
O235 C233 1.279 . S
O236 Cd226 2.297 . S
O236 C231 1.247 . S
O237 Cd226 2.439 . S
O237 C231 1.208 . S
O238 Cd239 2.223 . S
O238 C246 1.315 . S
Cd239 O238 2.223 . S
Cd239 O242 2.297 . S
Cd239 O243 2.439 . S
Cd239 O249 2.240 . S
Cd240 O241 2.240 . S
Cd240 O248 2.223 . S
Cd240 O250 2.297 . S
Cd240 O251 2.439 . S
O241 Cd240 2.240 . S
O241 C246 1.279 . S
O242 Cd239 2.297 . S
O242 C244 1.247 . S
O243 Cd239 2.439 . S
O243 C244 1.208 . S
C244 O242 1.247 . S
C244 O243 1.208 . S
C245 O250 1.247 . S
C245 O251 1.208 . S
C246 O238 1.315 . S
C246 O241 1.279 . S
C247 O248 1.315 . S
C247 O249 1.279 . S
O248 Cd240 2.223 . S
O248 C247 1.315 . S
O249 Cd239 2.240 . S
O249 C247 1.279 . S
O250 Cd240 2.297 . S
O250 C245 1.247 . S
O251 Cd240 2.439 . S
O251 C245 1.208 . S
O252 Cd253 2.223 . S
O252 C260 1.315 . S
Cd253 O252 2.223 . S
Cd253 O256 2.297 . S
Cd253 O257 2.439 . S
Cd253 O263 2.240 . S
Cd254 O255 2.240 . S
Cd254 O262 2.223 . S
Cd254 O264 2.297 . S
Cd254 O265 2.439 . S
O255 Cd254 2.240 . S
O255 C260 1.279 . S
O256 Cd253 2.297 . S
O256 C258 1.247 . S
O257 Cd253 2.439 . S
O257 C258 1.208 . S
C258 O256 1.247 . S
C258 O257 1.208 . S
C259 O264 1.247 . S
C259 O265 1.208 . S
C260 O252 1.315 . S
C260 O255 1.279 . S
C261 O262 1.315 . S
C261 O263 1.279 . S
O262 Cd254 2.223 . S
O262 C261 1.315 . S
O263 Cd253 2.240 . S
O263 C261 1.279 . S
O264 Cd254 2.297 . S
O264 C259 1.247 . S
O265 Cd254 2.439 . S
O265 C259 1.208 . S
O266 Cd267 2.223 . S
O266 C274 1.315 . S
Cd267 O266 2.223 . S
Cd267 O270 2.297 . S
Cd267 O271 2.439 . S
Cd267 O277 2.240 . S
Cd268 O269 2.240 . S
Cd268 O276 2.223 . S
Cd268 O278 2.297 . S
Cd268 O279 2.439 . S
O269 Cd268 2.240 . S
O269 C274 1.279 . S
O270 Cd267 2.297 . S
O270 C272 1.247 . S
O271 Cd267 2.439 . S
O271 C272 1.208 . S
C272 O270 1.247 . S
C272 O271 1.208 . S
C273 O278 1.247 . S
C273 O279 1.208 . S
C274 O266 1.315 . S
C274 O269 1.279 . S
C275 O276 1.315 . S
C275 O277 1.279 . S
O276 Cd268 2.223 . S
O276 C275 1.315 . S
O277 Cd267 2.240 . S
O277 C275 1.279 . S
O278 Cd268 2.297 . S
O278 C273 1.247 . S
O279 Cd268 2.439 . S
O279 C273 1.208 . S
O280 Cd281 2.223 . S
O280 C288 1.315 . S
Cd281 O280 2.223 . S
Cd281 O284 2.297 . S
Cd281 O285 2.439 . S
Cd281 O291 2.240 . S
Cd282 O283 2.240 . S
Cd282 O290 2.223 . S
Cd282 O292 2.297 . S
Cd282 O293 2.439 . S
O283 Cd282 2.240 . S
O283 C288 1.279 . S
O284 Cd281 2.297 . S
O284 C286 1.247 . S
O285 Cd281 2.439 . S
O285 C286 1.208 . S
C286 O284 1.247 . S
C286 O285 1.208 . S
C287 O292 1.247 . S
C287 O293 1.208 . S
C288 O280 1.315 . S
C288 O283 1.279 . S
C289 O290 1.315 . S
C289 O291 1.279 . S
O290 Cd282 2.223 . S
O290 C289 1.315 . S
O291 Cd281 2.240 . S
O291 C289 1.279 . S
O292 Cd282 2.297 . S
O292 C287 1.247 . S
O293 Cd282 2.439 . S
O293 C287 1.208 . S
O294 Cd295 2.223 . S
O294 C302 1.315 . S
Cd295 O294 2.223 . S
Cd295 O298 2.297 . S
Cd295 O299 2.439 . S
Cd295 O305 2.240 . S
Cd296 O297 2.240 . S
Cd296 O304 2.223 . S
Cd296 O306 2.297 . S
Cd296 O307 2.439 . S
O297 Cd296 2.240 . S
O297 C302 1.279 . S
O298 Cd295 2.297 . S
O298 C300 1.247 . S
O299 Cd295 2.439 . S
O299 C300 1.208 . S
C300 O298 1.247 . S
C300 O299 1.208 . S
C301 O306 1.247 . S
C301 O307 1.208 . S
C302 O294 1.315 . S
C302 O297 1.279 . S
C303 O304 1.315 . S
C303 O305 1.279 . S
O304 Cd296 2.223 . S
O304 C303 1.315 . S
O305 Cd295 2.240 . S
O305 C303 1.279 . S
O306 Cd296 2.297 . S
O306 C301 1.247 . S
O307 Cd296 2.439 . S
O307 C301 1.208 . S
O308 Cd309 2.223 . S
O308 C316 1.315 . S
Cd309 O308 2.223 . S
Cd309 O312 2.297 . S
Cd309 O313 2.439 . S
Cd309 O319 2.240 . S
Cd310 O311 2.240 . S
Cd310 O318 2.223 . S
Cd310 O320 2.297 . S
Cd310 O321 2.439 . S
O311 Cd310 2.240 . S
O311 C316 1.279 . S
O312 Cd309 2.297 . S
O312 C314 1.247 . S
O313 Cd309 2.439 . S
O313 C314 1.208 . S
C314 O312 1.247 . S
C314 O313 1.208 . S
C315 O320 1.247 . S
C315 O321 1.208 . S
C316 O308 1.315 . S
C316 O311 1.279 . S
C317 O318 1.315 . S
C317 O319 1.279 . S
O318 Cd310 2.223 . S
O318 C317 1.315 . S
O319 Cd309 2.240 . S
O319 C317 1.279 . S
O320 Cd310 2.297 . S
O320 C315 1.247 . S
O321 Cd310 2.439 . S
O321 C315 1.208 . S
O322 Cd323 2.223 . S
O322 C330 1.315 . S
Cd323 O322 2.223 . S
Cd323 O326 2.297 . S
Cd323 O327 2.439 . S
Cd323 O333 2.240 . S
Cd324 O325 2.240 . S
Cd324 O332 2.223 . S
Cd324 O334 2.297 . S
Cd324 O335 2.439 . S
O325 Cd324 2.240 . S
O325 C330 1.279 . S
O326 Cd323 2.297 . S
O326 C328 1.247 . S
O327 Cd323 2.439 . S
O327 C328 1.208 . S
C328 O326 1.247 . S
C328 O327 1.208 . S
C329 O334 1.247 . S
C329 O335 1.208 . S
C330 O322 1.315 . S
C330 O325 1.279 . S
C331 O332 1.315 . S
C331 O333 1.279 . S
O332 Cd324 2.223 . S
O332 C331 1.315 . S
O333 Cd323 2.240 . S
O333 C331 1.279 . S
O334 Cd324 2.297 . S
O334 C329 1.247 . S
O335 Cd324 2.439 . S
O335 C329 1.208 . S
O336 Cd337 2.223 . S
O336 C344 1.315 . S
Cd337 O336 2.223 . S
Cd337 O340 2.297 . S
Cd337 O341 2.439 . S
Cd337 O347 2.240 . S
Cd338 O339 2.240 . S
Cd338 O346 2.223 . S
Cd338 O348 2.297 . S
Cd338 O349 2.439 . S
O339 Cd338 2.240 . S
O339 C344 1.279 . S
O340 Cd337 2.297 . S
O340 C342 1.247 . S
O341 Cd337 2.439 . S
O341 C342 1.208 . S
C342 O340 1.247 . S
C342 O341 1.208 . S
C343 O348 1.247 . S
C343 O349 1.208 . S
C344 O336 1.315 . S
C344 O339 1.279 . S
C345 O346 1.315 . S
C345 O347 1.279 . S
O346 Cd338 2.223 . S
O346 C345 1.315 . S
O347 Cd337 2.240 . S
O347 C345 1.279 . S
O348 Cd338 2.297 . S
O348 C343 1.247 . S
O349 Cd338 2.439 . S
O349 C343 1.208 . S
O350 Cd351 2.223 . S
O350 C358 1.315 . S
Cd351 O350 2.223 . S
Cd351 O354 2.297 . S
Cd351 O355 2.439 . S
Cd351 O361 2.240 . S
Cd352 O353 2.240 . S
Cd352 O360 2.223 . S
Cd352 O362 2.297 . S
Cd352 O363 2.439 . S
O353 Cd352 2.240 . S
O353 C358 1.279 . S
O354 Cd351 2.297 . S
O354 C356 1.247 . S
O355 Cd351 2.439 . S
O355 C356 1.208 . S
C356 O354 1.247 . S
C356 O355 1.208 . S
C357 O362 1.247 . S
C357 O363 1.208 . S
C358 O350 1.315 . S
C358 O353 1.279 . S
C359 O360 1.315 . S
C359 O361 1.279 . S
O360 Cd352 2.223 . S
O360 C359 1.315 . S
O361 Cd351 2.240 . S
O361 C359 1.279 . S
O362 Cd352 2.297 . S
O362 C357 1.247 . S
O363 Cd352 2.439 . S
O363 C357 1.208 . S
O364 Cd365 2.223 . S
O364 C372 1.315 . S
Cd365 O364 2.223 . S
Cd365 O368 2.297 . S
Cd365 O369 2.439 . S
Cd365 O375 2.240 . S
Cd366 O367 2.240 . S
Cd366 O374 2.223 . S
Cd366 O376 2.297 . S
Cd366 O377 2.439 . S
O367 Cd366 2.240 . S
O367 C372 1.279 . S
O368 Cd365 2.297 . S
O368 C370 1.247 . S
O369 Cd365 2.439 . S
O369 C370 1.208 . S
C370 O368 1.247 . S
C370 O369 1.208 . S
C371 O376 1.247 . S
C371 O377 1.208 . S
C372 O364 1.315 . S
C372 O367 1.279 . S
C373 O374 1.315 . S
C373 O375 1.279 . S
O374 Cd366 2.223 . S
O374 C373 1.315 . S
O375 Cd365 2.240 . S
O375 C373 1.279 . S
O376 Cd366 2.297 . S
O376 C371 1.247 . S
O377 Cd366 2.439 . S
O377 C371 1.208 . S
O378 Cd379 2.223 . S
O378 C386 1.315 . S
Cd379 O378 2.223 . S
Cd379 O382 2.297 . S
Cd379 O383 2.439 . S
Cd379 O389 2.240 . S
Cd380 O381 2.240 . S
Cd380 O388 2.223 . S
Cd380 O390 2.297 . S
Cd380 O391 2.439 . S
O381 Cd380 2.240 . S
O381 C386 1.279 . S
O382 Cd379 2.297 . S
O382 C384 1.247 . S
O383 Cd379 2.439 . S
O383 C384 1.208 . S
C384 O382 1.247 . S
C384 O383 1.208 . S
C385 O390 1.247 . S
C385 O391 1.208 . S
C386 O378 1.315 . S
C386 O381 1.279 . S
C387 O388 1.315 . S
C387 O389 1.279 . S
O388 Cd380 2.223 . S
O388 C387 1.315 . S
O389 Cd379 2.240 . S
O389 C387 1.279 . S
O390 Cd380 2.297 . S
O390 C385 1.247 . S
O391 Cd380 2.439 . S
O391 C385 1.208 . S
O392 Cd393 2.223 . S
O392 C400 1.315 . S
Cd393 O392 2.223 . S
Cd393 O396 2.297 . S
Cd393 O397 2.439 . S
Cd393 O403 2.240 . S
Cd394 O395 2.240 . S
Cd394 O402 2.223 . S
Cd394 O404 2.297 . S
Cd394 O405 2.439 . S
O395 Cd394 2.240 . S
O395 C400 1.279 . S
O396 Cd393 2.297 . S
O396 C398 1.247 . S
O397 Cd393 2.439 . S
O397 C398 1.208 . S
C398 O396 1.247 . S
C398 O397 1.208 . S
C399 O404 1.247 . S
C399 O405 1.208 . S
C400 O392 1.315 . S
C400 O395 1.279 . S
C401 O402 1.315 . S
C401 O403 1.279 . S
O402 Cd394 2.223 . S
O402 C401 1.315 . S
O403 Cd393 2.240 . S
O403 C401 1.279 . S
O404 Cd394 2.297 . S
O404 C399 1.247 . S
O405 Cd394 2.439 . S
O405 C399 1.208 . S
O406 Cd407 2.223 . S
O406 C414 1.315 . S
Cd407 O406 2.223 . S
Cd407 O410 2.297 . S
Cd407 O411 2.439 . S
Cd407 O417 2.240 . S
Cd408 O409 2.240 . S
Cd408 O416 2.223 . S
Cd408 O418 2.297 . S
Cd408 O419 2.439 . S
O409 Cd408 2.240 . S
O409 C414 1.279 . S
O410 Cd407 2.297 . S
O410 C412 1.247 . S
O411 Cd407 2.439 . S
O411 C412 1.208 . S
C412 O410 1.247 . S
C412 O411 1.208 . S
C413 O418 1.247 . S
C413 O419 1.208 . S
C414 O406 1.315 . S
C414 O409 1.279 . S
C415 O416 1.315 . S
C415 O417 1.279 . S
O416 Cd408 2.223 . S
O416 C415 1.315 . S
O417 Cd407 2.240 . S
O417 C415 1.279 . S
O418 Cd408 2.297 . S
O418 C413 1.247 . S
O419 Cd408 2.439 . S
O419 C413 1.208 . S
O420 Cd421 2.223 . S
O420 C428 1.315 . S
Cd421 O420 2.223 . S
Cd421 O424 2.297 . S
Cd421 O425 2.439 . S
Cd421 O431 2.240 . S
Cd422 O423 2.240 . S
Cd422 O430 2.223 . S
Cd422 O432 2.297 . S
Cd422 O433 2.439 . S
O423 Cd422 2.240 . S
O423 C428 1.279 . S
O424 Cd421 2.297 . S
O424 C426 1.247 . S
O425 Cd421 2.439 . S
O425 C426 1.208 . S
C426 O424 1.247 . S
C426 O425 1.208 . S
C427 O432 1.247 . S
C427 O433 1.208 . S
C428 O420 1.315 . S
C428 O423 1.279 . S
C429 O430 1.315 . S
C429 O431 1.279 . S
O430 Cd422 2.223 . S
O430 C429 1.315 . S
O431 Cd421 2.240 . S
O431 C429 1.279 . S
O432 Cd422 2.297 . S
O432 C427 1.247 . S
O433 Cd422 2.439 . S
O433 C427 1.208 . S
O434 Cd435 2.223 . S
O434 C442 1.315 . S
Cd435 O434 2.223 . S
Cd435 O438 2.297 . S
Cd435 O439 2.439 . S
Cd435 O445 2.240 . S
Cd436 O437 2.240 . S
Cd436 O444 2.223 . S
Cd436 O446 2.297 . S
Cd436 O447 2.439 . S
O437 Cd436 2.240 . S
O437 C442 1.279 . S
O438 Cd435 2.297 . S
O438 C440 1.247 . S
O439 Cd435 2.439 . S
O439 C440 1.208 . S
C440 O438 1.247 . S
C440 O439 1.208 . S
C441 O446 1.247 . S
C441 O447 1.208 . S
C442 O434 1.315 . S
C442 O437 1.279 . S
C443 O444 1.315 . S
C443 O445 1.279 . S
O444 Cd436 2.223 . S
O444 C443 1.315 . S
O445 Cd435 2.240 . S
O445 C443 1.279 . S
O446 Cd436 2.297 . S
O446 C441 1.247 . S
O447 Cd436 2.439 . S
O447 C441 1.208 . S
O448 Cd449 2.223 . S
O448 C456 1.315 . S
Cd449 O448 2.223 . S
Cd449 O452 2.297 . S
Cd449 O453 2.439 . S
Cd449 O459 2.240 . S
Cd450 O451 2.240 . S
Cd450 O458 2.223 . S
Cd450 O460 2.297 . S
Cd450 O461 2.439 . S
O451 Cd450 2.240 . S
O451 C456 1.279 . S
O452 Cd449 2.297 . S
O452 C454 1.247 . S
O453 Cd449 2.439 . S
O453 C454 1.208 . S
C454 O452 1.247 . S
C454 O453 1.208 . S
C455 O460 1.247 . S
C455 O461 1.208 . S
C456 O448 1.315 . S
C456 O451 1.279 . S
C457 O458 1.315 . S
C457 O459 1.279 . S
O458 Cd450 2.223 . S
O458 C457 1.315 . S
O459 Cd449 2.240 . S
O459 C457 1.279 . S
O460 Cd450 2.297 . S
O460 C455 1.247 . S
O461 Cd450 2.439 . S
O461 C455 1.208 . S
O462 Cd463 2.223 . S
O462 C470 1.315 . S
Cd463 O462 2.223 . S
Cd463 O466 2.297 . S
Cd463 O467 2.439 . S
Cd463 O473 2.240 . S
Cd464 O465 2.240 . S
Cd464 O472 2.223 . S
Cd464 O474 2.297 . S
Cd464 O475 2.439 . S
O465 Cd464 2.240 . S
O465 C470 1.279 . S
O466 Cd463 2.297 . S
O466 C468 1.247 . S
O467 Cd463 2.439 . S
O467 C468 1.208 . S
C468 O466 1.247 . S
C468 O467 1.208 . S
C469 O474 1.247 . S
C469 O475 1.208 . S
C470 O462 1.315 . S
C470 O465 1.279 . S
C471 O472 1.315 . S
C471 O473 1.279 . S
O472 Cd464 2.223 . S
O472 C471 1.315 . S
O473 Cd463 2.240 . S
O473 C471 1.279 . S
O474 Cd464 2.297 . S
O474 C469 1.247 . S
O475 Cd464 2.439 . S
O475 C469 1.208 . S
O476 Cd477 2.223 . S
O476 C484 1.315 . S
Cd477 O476 2.223 . S
Cd477 O480 2.297 . S
Cd477 O481 2.439 . S
Cd477 O487 2.240 . S
Cd478 O479 2.240 . S
Cd478 O486 2.223 . S
Cd478 O488 2.297 . S
Cd478 O489 2.439 . S
O479 Cd478 2.240 . S
O479 C484 1.279 . S
O480 Cd477 2.297 . S
O480 C482 1.247 . S
O481 Cd477 2.439 . S
O481 C482 1.208 . S
C482 O480 1.247 . S
C482 O481 1.208 . S
C483 O488 1.247 . S
C483 O489 1.208 . S
C484 O476 1.315 . S
C484 O479 1.279 . S
C485 O486 1.315 . S
C485 O487 1.279 . S
O486 Cd478 2.223 . S
O486 C485 1.315 . S
O487 Cd477 2.240 . S
O487 C485 1.279 . S
O488 Cd478 2.297 . S
O488 C483 1.247 . S
O489 Cd478 2.439 . S
O489 C483 1.208 . S
O490 Cd491 2.223 . S
O490 C498 1.315 . S
Cd491 O490 2.223 . S
Cd491 O494 2.297 . S
Cd491 O495 2.439 . S
Cd491 O501 2.240 . S
Cd492 O493 2.240 . S
Cd492 O500 2.223 . S
Cd492 O502 2.297 . S
Cd492 O503 2.439 . S
O493 Cd492 2.240 . S
O493 C498 1.279 . S
O494 Cd491 2.297 . S
O494 C496 1.247 . S
O495 Cd491 2.439 . S
O495 C496 1.208 . S
C496 O494 1.247 . S
C496 O495 1.208 . S
C497 O502 1.247 . S
C497 O503 1.208 . S
C498 O490 1.315 . S
C498 O493 1.279 . S
C499 O500 1.315 . S
C499 O501 1.279 . S
O500 Cd492 2.223 . S
O500 C499 1.315 . S
O501 Cd491 2.240 . S
O501 C499 1.279 . S
O502 Cd492 2.297 . S
O502 C497 1.247 . S
O503 Cd492 2.439 . S
O503 C497 1.208 . S
H504 C510 0.930 . S
H505 C514 0.930 . S
H506 C519 0.929 . S
H507 C517 0.929 . S
H508 C512 0.929 . S
H509 C518 0.929 . S
C510 H504 0.930 . S
C510 C511 1.367 . S
C510 C518 1.378 . S
C511 C510 1.367 . S
C511 C519 1.433 . S
C512 H508 0.929 . S
C512 C514 1.378 . S
C512 C516 1.350 . S
C513 C516 1.463 . S
C513 C518 1.350 . S
C513 N521 1.427 . S
C514 H505 0.930 . S
C514 C512 1.378 . S
C514 C515 1.367 . S
C515 C514 1.367 . S
C515 C517 1.433 . S
C516 C512 1.350 . S
C516 C513 1.463 . S
C516 N520 1.427 . S
C517 H507 0.929 . S
C517 C515 1.433 . S
C517 N520 1.384 . S
C518 H509 0.929 . S
C518 C510 1.378 . S
C518 C513 1.350 . S
C519 H506 0.929 . S
C519 C511 1.433 . S
C519 N521 1.384 . S
N520 C516 1.427 . S
N520 C517 1.384 . S
N521 C513 1.427 . S
N521 C519 1.384 . S
H522 C528 0.930 . S
H523 C532 0.930 . S
H524 C537 0.929 . S
H525 C535 0.929 . S
H526 C530 0.929 . S
H527 C536 0.929 . S
C528 H522 0.930 . S
C528 C529 1.367 . S
C528 C536 1.378 . S
C529 C528 1.367 . S
C529 C537 1.433 . S
C530 H526 0.929 . S
C530 C532 1.378 . S
C530 C534 1.350 . S
C531 C534 1.463 . S
C531 C536 1.350 . S
C531 N539 1.427 . S
C532 H523 0.930 . S
C532 C530 1.378 . S
C532 C533 1.367 . S
C533 C532 1.367 . S
C533 C535 1.433 . S
C534 C530 1.350 . S
C534 C531 1.463 . S
C534 N538 1.427 . S
C535 H525 0.929 . S
C535 C533 1.433 . S
C535 N538 1.384 . S
C536 H527 0.929 . S
C536 C528 1.378 . S
C536 C531 1.350 . S
C537 H524 0.929 . S
C537 C529 1.433 . S
C537 N539 1.384 . S
N538 C534 1.427 . S
N538 C535 1.384 . S
N539 C531 1.427 . S
N539 C537 1.384 . S
H540 C546 0.930 . S
H541 C550 0.930 . S
H542 C555 0.929 . S
H543 C553 0.929 . S
H544 C548 0.929 . S
H545 C554 0.929 . S
C546 H540 0.930 . S
C546 C547 1.367 . S
C546 C554 1.378 . S
C547 C546 1.367 . S
C547 C555 1.433 . S
C548 H544 0.929 . S
C548 C550 1.378 . S
C548 C552 1.350 . S
C549 C552 1.463 . S
C549 C554 1.350 . S
C549 N557 1.427 . S
C550 H541 0.930 . S
C550 C548 1.378 . S
C550 C551 1.367 . S
C551 C550 1.367 . S
C551 C553 1.433 . S
C552 C548 1.350 . S
C552 C549 1.463 . S
C552 N556 1.427 . S
C553 H543 0.929 . S
C553 C551 1.433 . S
C553 N556 1.384 . S
C554 H545 0.929 . S
C554 C546 1.378 . S
C554 C549 1.350 . S
C555 H542 0.929 . S
C555 C547 1.433 . S
C555 N557 1.384 . S
N556 C552 1.427 . S
N556 C553 1.384 . S
N557 C549 1.427 . S
N557 C555 1.384 . S
H558 C564 0.930 . S
H559 C568 0.930 . S
H560 C573 0.929 . S
H561 C571 0.929 . S
H562 C566 0.929 . S
H563 C572 0.929 . S
C564 H558 0.930 . S
C564 C565 1.367 . S
C564 C572 1.378 . S
C565 C564 1.367 . S
C565 C573 1.433 . S
C566 H562 0.929 . S
C566 C568 1.378 . S
C566 C570 1.350 . S
C567 C570 1.463 . S
C567 C572 1.350 . S
C567 N575 1.427 . S
C568 H559 0.930 . S
C568 C566 1.378 . S
C568 C569 1.367 . S
C569 C568 1.367 . S
C569 C571 1.433 . S
C570 C566 1.350 . S
C570 C567 1.463 . S
C570 N574 1.427 . S
C571 H561 0.929 . S
C571 C569 1.433 . S
C571 N574 1.384 . S
C572 H563 0.929 . S
C572 C564 1.378 . S
C572 C567 1.350 . S
C573 H560 0.929 . S
C573 C565 1.433 . S
C573 N575 1.384 . S
N574 C570 1.427 . S
N574 C571 1.384 . S
N575 C567 1.427 . S
N575 C573 1.384 . S
H576 C582 0.930 . S
H577 C586 0.930 . S
H578 C591 0.929 . S
H579 C589 0.929 . S
H580 C584 0.929 . S
H581 C590 0.929 . S
C582 H576 0.930 . S
C582 C583 1.367 . S
C582 C590 1.378 . S
C583 C582 1.367 . S
C583 C591 1.433 . S
C584 H580 0.929 . S
C584 C586 1.378 . S
C584 C588 1.350 . S
C585 C588 1.463 . S
C585 C590 1.350 . S
C585 N593 1.427 . S
C586 H577 0.930 . S
C586 C584 1.378 . S
C586 C587 1.367 . S
C587 C586 1.367 . S
C587 C589 1.433 . S
C588 C584 1.350 . S
C588 C585 1.463 . S
C588 N592 1.427 . S
C589 H579 0.929 . S
C589 C587 1.433 . S
C589 N592 1.384 . S
C590 H581 0.929 . S
C590 C582 1.378 . S
C590 C585 1.350 . S
C591 H578 0.929 . S
C591 C583 1.433 . S
C591 N593 1.384 . S
N592 C588 1.427 . S
N592 C589 1.384 . S
N593 C585 1.427 . S
N593 C591 1.384 . S
H594 C600 0.930 . S
H595 C604 0.930 . S
H596 C609 0.929 . S
H597 C607 0.929 . S
H598 C602 0.929 . S
H599 C608 0.929 . S
C600 H594 0.930 . S
C600 C601 1.367 . S
C600 C608 1.378 . S
C601 C600 1.367 . S
C601 C609 1.433 . S
C602 H598 0.929 . S
C602 C604 1.378 . S
C602 C606 1.350 . S
C603 C606 1.463 . S
C603 C608 1.350 . S
C603 N611 1.427 . S
C604 H595 0.930 . S
C604 C602 1.378 . S
C604 C605 1.367 . S
C605 C604 1.367 . S
C605 C607 1.433 . S
C606 C602 1.350 . S
C606 C603 1.463 . S
C606 N610 1.427 . S
C607 H597 0.929 . S
C607 C605 1.433 . S
C607 N610 1.384 . S
C608 H599 0.929 . S
C608 C600 1.378 . S
C608 C603 1.350 . S
C609 H596 0.929 . S
C609 C601 1.433 . S
C609 N611 1.384 . S
N610 C606 1.427 . S
N610 C607 1.384 . S
N611 C603 1.427 . S
N611 C609 1.384 . S
H612 C618 0.930 . S
H613 C622 0.930 . S
H614 C627 0.929 . S
H615 C625 0.929 . S
H616 C620 0.929 . S
H617 C626 0.929 . S
C618 H612 0.930 . S
C618 C619 1.367 . S
C618 C626 1.378 . S
C619 C618 1.367 . S
C619 C627 1.433 . S
C620 H616 0.929 . S
C620 C622 1.378 . S
C620 C624 1.350 . S
C621 C624 1.463 . S
C621 C626 1.350 . S
C621 N629 1.427 . S
C622 H613 0.930 . S
C622 C620 1.378 . S
C622 C623 1.367 . S
C623 C622 1.367 . S
C623 C625 1.433 . S
C624 C620 1.350 . S
C624 C621 1.463 . S
C624 N628 1.427 . S
C625 H615 0.929 . S
C625 C623 1.433 . S
C625 N628 1.384 . S
C626 H617 0.929 . S
C626 C618 1.378 . S
C626 C621 1.350 . S
C627 H614 0.929 . S
C627 C619 1.433 . S
C627 N629 1.384 . S
N628 C624 1.427 . S
N628 C625 1.384 . S
N629 C621 1.427 . S
N629 C627 1.384 . S
H630 C636 0.930 . S
H631 C640 0.930 . S
H632 C645 0.929 . S
H633 C643 0.929 . S
H634 C638 0.929 . S
H635 C644 0.929 . S
C636 H630 0.930 . S
C636 C637 1.367 . S
C636 C644 1.378 . S
C637 C636 1.367 . S
C637 C645 1.433 . S
C638 H634 0.929 . S
C638 C640 1.378 . S
C638 C642 1.350 . S
C639 C642 1.463 . S
C639 C644 1.350 . S
C639 N647 1.427 . S
C640 H631 0.930 . S
C640 C638 1.378 . S
C640 C641 1.367 . S
C641 C640 1.367 . S
C641 C643 1.433 . S
C642 C638 1.350 . S
C642 C639 1.463 . S
C642 N646 1.427 . S
C643 H633 0.929 . S
C643 C641 1.433 . S
C643 N646 1.384 . S
C644 H635 0.929 . S
C644 C636 1.378 . S
C644 C639 1.350 . S
C645 H632 0.929 . S
C645 C637 1.433 . S
C645 N647 1.384 . S
N646 C642 1.427 . S
N646 C643 1.384 . S
N647 C639 1.427 . S
N647 C645 1.384 . S
H648 C654 0.930 . S
H649 C658 0.930 . S
H650 C663 0.929 . S
H651 C661 0.929 . S
H652 C656 0.929 . S
H653 C662 0.929 . S
C654 H648 0.930 . S
C654 C655 1.367 . S
C654 C662 1.378 . S
C655 C654 1.367 . S
C655 C663 1.433 . S
C656 H652 0.929 . S
C656 C658 1.378 . S
C656 C660 1.350 . S
C657 C660 1.463 . S
C657 C662 1.350 . S
C657 N665 1.427 . S
C658 H649 0.930 . S
C658 C656 1.378 . S
C658 C659 1.367 . S
C659 C658 1.367 . S
C659 C661 1.433 . S
C660 C656 1.350 . S
C660 C657 1.463 . S
C660 N664 1.427 . S
C661 H651 0.929 . S
C661 C659 1.433 . S
C661 N664 1.384 . S
C662 H653 0.929 . S
C662 C654 1.378 . S
C662 C657 1.350 . S
C663 H650 0.929 . S
C663 C655 1.433 . S
C663 N665 1.384 . S
N664 C660 1.427 . S
N664 C661 1.384 . S
N665 C657 1.427 . S
N665 C663 1.384 . S
H666 C672 0.930 . S
H667 C676 0.930 . S
H668 C681 0.929 . S
H669 C679 0.929 . S
H670 C674 0.929 . S
H671 C680 0.929 . S
C672 H666 0.930 . S
C672 C673 1.367 . S
C672 C680 1.378 . S
C673 C672 1.367 . S
C673 C681 1.433 . S
C674 H670 0.929 . S
C674 C676 1.378 . S
C674 C678 1.350 . S
C675 C678 1.463 . S
C675 C680 1.350 . S
C675 N683 1.427 . S
C676 H667 0.930 . S
C676 C674 1.378 . S
C676 C677 1.367 . S
C677 C676 1.367 . S
C677 C679 1.433 . S
C678 C674 1.350 . S
C678 C675 1.463 . S
C678 N682 1.427 . S
C679 H669 0.929 . S
C679 C677 1.433 . S
C679 N682 1.384 . S
C680 H671 0.929 . S
C680 C672 1.378 . S
C680 C675 1.350 . S
C681 H668 0.929 . S
C681 C673 1.433 . S
C681 N683 1.384 . S
N682 C678 1.427 . S
N682 C679 1.384 . S
N683 C675 1.427 . S
N683 C681 1.384 . S
H684 C690 0.930 . S
H685 C694 0.930 . S
H686 C699 0.929 . S
H687 C697 0.929 . S
H688 C692 0.929 . S
H689 C698 0.929 . S
C690 H684 0.930 . S
C690 C691 1.367 . S
C690 C698 1.378 . S
C691 C690 1.367 . S
C691 C699 1.433 . S
C692 H688 0.929 . S
C692 C694 1.378 . S
C692 C696 1.350 . S
C693 C696 1.463 . S
C693 C698 1.350 . S
C693 N701 1.427 . S
C694 H685 0.930 . S
C694 C692 1.378 . S
C694 C695 1.367 . S
C695 C694 1.367 . S
C695 C697 1.433 . S
C696 C692 1.350 . S
C696 C693 1.463 . S
C696 N700 1.427 . S
C697 H687 0.929 . S
C697 C695 1.433 . S
C697 N700 1.384 . S
C698 H689 0.929 . S
C698 C690 1.378 . S
C698 C693 1.350 . S
C699 H686 0.929 . S
C699 C691 1.433 . S
C699 N701 1.384 . S
N700 C696 1.427 . S
N700 C697 1.384 . S
N701 C693 1.427 . S
N701 C699 1.384 . S
H702 C708 0.930 . S
H703 C712 0.930 . S
H704 C717 0.929 . S
H705 C715 0.929 . S
H706 C710 0.929 . S
H707 C716 0.929 . S
C708 H702 0.930 . S
C708 C709 1.367 . S
C708 C716 1.378 . S
C709 C708 1.367 . S
C709 C717 1.433 . S
C710 H706 0.929 . S
C710 C712 1.378 . S
C710 C714 1.350 . S
C711 C714 1.463 . S
C711 C716 1.350 . S
C711 N719 1.427 . S
C712 H703 0.930 . S
C712 C710 1.378 . S
C712 C713 1.367 . S
C713 C712 1.367 . S
C713 C715 1.433 . S
C714 C710 1.350 . S
C714 C711 1.463 . S
C714 N718 1.427 . S
C715 H705 0.929 . S
C715 C713 1.433 . S
C715 N718 1.384 . S
C716 H707 0.929 . S
C716 C708 1.378 . S
C716 C711 1.350 . S
C717 H704 0.929 . S
C717 C709 1.433 . S
C717 N719 1.384 . S
N718 C714 1.427 . S
N718 C715 1.384 . S
N719 C711 1.427 . S
N719 C717 1.384 . S
H720 C726 0.930 . S
H721 C730 0.930 . S
H722 C735 0.929 . S
H723 C733 0.929 . S
H724 C728 0.929 . S
H725 C734 0.929 . S
C726 H720 0.930 . S
C726 C727 1.367 . S
C726 C734 1.378 . S
C727 C726 1.367 . S
C727 C735 1.433 . S
C728 H724 0.929 . S
C728 C730 1.378 . S
C728 C732 1.350 . S
C729 C732 1.463 1_455 S
C729 C734 1.350 . S
C729 N737 1.427 . S
C730 H721 0.930 . S
C730 C728 1.378 . S
C730 C731 1.367 . S
C731 C730 1.367 . S
C731 C733 1.433 . S
C732 C728 1.350 . S
C732 C729 1.463 1_655 S
C732 N736 1.427 . S
C733 H723 0.929 . S
C733 C731 1.433 . S
C733 N736 1.384 . S
C734 H725 0.929 . S
C734 C726 1.378 . S
C734 C729 1.350 . S
C735 H722 0.929 . S
C735 C727 1.433 . S
C735 N737 1.384 . S
N736 C732 1.427 . S
N736 C733 1.384 . S
N737 C729 1.427 . S
N737 C735 1.384 . S
H738 C744 0.930 . S
H739 C748 0.930 . S
H740 C753 0.929 . S
H741 C751 0.929 . S
H742 C746 0.929 . S
H743 C752 0.929 . S
C744 H738 0.930 . S
C744 C745 1.367 . S
C744 C752 1.378 . S
C745 C744 1.367 . S
C745 C753 1.433 . S
C746 H742 0.929 . S
C746 C748 1.378 . S
C746 C750 1.350 . S
C747 C750 1.463 . S
C747 C752 1.350 . S
C747 N755 1.427 . S
C748 H739 0.930 . S
C748 C746 1.378 . S
C748 C749 1.367 . S
C749 C748 1.367 . S
C749 C751 1.433 . S
C750 C746 1.350 . S
C750 C747 1.463 . S
C750 N754 1.427 . S
C751 H741 0.929 . S
C751 C749 1.433 . S
C751 N754 1.384 . S
C752 H743 0.929 . S
C752 C744 1.378 . S
C752 C747 1.350 . S
C753 H740 0.929 . S
C753 C745 1.433 . S
C753 N755 1.384 . S
N754 C750 1.427 . S
N754 C751 1.384 . S
N755 C747 1.427 . S
N755 C753 1.384 . S
H756 C762 0.930 . S
H757 C766 0.930 . S
H758 C771 0.929 . S
H759 C769 0.929 . S
H760 C764 0.929 1_545 S
H761 C770 0.929 1_565 S
C762 H756 0.930 . S
C762 C763 1.367 . S
C762 C770 1.378 . S
C763 C762 1.367 . S
C763 C771 1.433 . S
C764 H760 0.929 1_565 S
C764 C766 1.378 . S
C764 C768 1.350 . S
C765 C768 1.463 1_545 S
C765 C770 1.350 . S
C765 N773 1.427 . S
C766 H757 0.930 . S
C766 C764 1.378 . S
C766 C767 1.367 . S
C767 C766 1.367 . S
C767 C769 1.433 . S
C768 C764 1.350 . S
C768 C765 1.463 1_565 S
C768 N772 1.427 . S
C769 H759 0.929 . S
C769 C767 1.433 . S
C769 N772 1.384 . S
C770 H761 0.929 1_545 S
C770 C762 1.378 . S
C770 C765 1.350 . S
C771 H758 0.929 . S
C771 C763 1.433 . S
C771 N773 1.384 . S
N772 C768 1.427 . S
N772 C769 1.384 . S
N773 C765 1.427 . S
N773 C771 1.384 . S
H774 C780 0.930 . S
H775 C784 0.930 . S
H776 C789 0.929 . S
H777 C787 0.929 . S
H778 C782 0.929 1_565 S
H779 C788 0.929 1_545 S
C780 H774 0.930 . S
C780 C781 1.367 . S
C780 C788 1.378 . S
C781 C780 1.367 . S
C781 C789 1.433 . S
C782 H778 0.929 1_545 S
C782 C784 1.378 . S
C782 C786 1.350 . S
C783 C786 1.463 1_564 S
C783 C788 1.350 . S
C783 N791 1.427 . S
C784 H775 0.930 . S
C784 C782 1.378 . S
C784 C785 1.367 . S
C785 C784 1.367 . S
C785 C787 1.433 . S
C786 C782 1.350 . S
C786 C783 1.463 1_546 S
C786 N790 1.427 . S
C787 H777 0.929 . S
C787 C785 1.433 . S
C787 N790 1.384 . S
C788 H779 0.929 1_565 S
C788 C780 1.378 . S
C788 C783 1.350 . S
C789 H776 0.929 . S
C789 C781 1.433 . S
C789 N791 1.384 . S
N790 C786 1.427 . S
N790 C787 1.384 . S
N791 C783 1.427 . S
N791 C789 1.384 . S
H792 C798 0.930 . S
H793 C802 0.930 . S
H794 C807 0.929 . S
H795 C805 0.929 . S
H796 C800 0.929 . S
H797 C806 0.929 . S
C798 H792 0.930 . S
C798 C799 1.367 . S
C798 C806 1.378 . S
C799 C798 1.367 . S
C799 C807 1.433 . S
C800 H796 0.929 . S
C800 C802 1.378 . S
C800 C804 1.350 . S
C801 C804 1.463 1_656 S
C801 C806 1.350 . S
C801 N809 1.427 . S
C802 H793 0.930 . S
C802 C800 1.378 . S
C802 C803 1.367 . S
C803 C802 1.367 . S
C803 C805 1.433 . S
C804 C800 1.350 . S
C804 C801 1.463 1_454 S
C804 N808 1.427 . S
C805 H795 0.929 . S
C805 C803 1.433 . S
C805 N808 1.384 . S
C806 H797 0.929 . S
C806 C798 1.378 . S
C806 C801 1.350 . S
C807 H794 0.929 . S
C807 C799 1.433 . S
C807 N809 1.384 . S
N808 C804 1.427 . S
N808 C805 1.384 . S
N809 C801 1.427 . S
N809 C807 1.384 . S
H810 C816 0.930 . S
H811 C820 0.930 . S
H812 C825 0.929 . S
H813 C823 0.929 . S
H814 C818 0.929 . S
H815 C824 0.929 . S
C816 H810 0.930 . S
C816 C817 1.367 . S
C816 C824 1.378 . S
C817 C816 1.367 . S
C817 C825 1.433 . S
C818 H814 0.929 . S
C818 C820 1.378 . S
C818 C822 1.350 . S
C819 C822 1.463 1_556 S
C819 C824 1.350 . S
C819 N827 1.427 . S
C820 H811 0.930 . S
C820 C818 1.378 . S
C820 C821 1.367 . S
C821 C820 1.367 . S
C821 C823 1.433 . S
C822 C818 1.350 . S
C822 C819 1.463 1_554 S
C822 N826 1.427 . S
C823 H813 0.929 . S
C823 C821 1.433 . S
C823 N826 1.384 . S
C824 H815 0.929 . S
C824 C816 1.378 . S
C824 C819 1.350 . S
C825 H812 0.929 . S
C825 C817 1.433 . S
C825 N827 1.384 . S
N826 C822 1.427 . S
N826 C823 1.384 . S
N827 C819 1.427 . S
N827 C825 1.384 . S
H828 C834 0.930 . S
H829 C838 0.930 . S
H830 C843 0.929 . S
H831 C841 0.929 . S
H832 C836 0.929 . S
H833 C842 0.929 . S
C834 H828 0.930 . S
C834 C835 1.367 . S
C834 C842 1.378 . S
C835 C834 1.367 . S
C835 C843 1.433 1_565 S
C836 H832 0.929 . S
C836 C838 1.378 . S
C836 C840 1.350 . S
C837 C840 1.463 . S
C837 C842 1.350 . S
C837 N845 1.427 . S
C838 H829 0.930 . S
C838 C836 1.378 . S
C838 C839 1.367 . S
C839 C838 1.367 . S
C839 C841 1.433 . S
C840 C836 1.350 . S
C840 C837 1.463 . S
C840 N844 1.427 . S
C841 H831 0.929 . S
C841 C839 1.433 . S
C841 N844 1.384 . S
C842 H833 0.929 . S
C842 C834 1.378 . S
C842 C837 1.350 . S
C843 H830 0.929 . S
C843 C835 1.433 1_545 S
C843 N845 1.384 1_545 S
N844 C840 1.427 . S
N844 C841 1.384 . S
N845 C837 1.427 . S
N845 C843 1.384 1_565 S
H846 C852 0.930 . S
H847 C856 0.930 . S
H848 C861 0.929 . S
H849 C859 0.929 . S
H850 C854 0.929 . S
H851 C860 0.929 . S
C852 H846 0.930 . S
C852 C853 1.367 . S
C852 C860 1.378 . S
C853 C852 1.367 . S
C853 C861 1.433 . S
C854 H850 0.929 . S
C854 C856 1.378 . S
C854 C858 1.350 . S
C855 C858 1.463 . S
C855 C860 1.350 . S
C855 N863 1.427 . S
C856 H847 0.930 . S
C856 C854 1.378 . S
C856 C857 1.367 . S
C857 C856 1.367 . S
C857 C859 1.433 . S
C858 C854 1.350 . S
C858 C855 1.463 . S
C858 N862 1.427 . S
C859 H849 0.929 . S
C859 C857 1.433 . S
C859 N862 1.384 . S
C860 H851 0.929 . S
C860 C852 1.378 . S
C860 C855 1.350 . S
C861 H848 0.929 . S
C861 C853 1.433 . S
C861 N863 1.384 . S
N862 C858 1.427 . S
N862 C859 1.384 . S
N863 C855 1.427 . S
N863 C861 1.384 . S
H864 C870 0.930 . S
H865 C874 0.930 . S
H866 C879 0.929 . S
H867 C877 0.929 . S
H868 C872 0.929 . S
H869 C878 0.929 . S
C870 H864 0.930 . S
C870 C871 1.367 . S
C870 C878 1.378 . S
C871 C870 1.367 . S
C871 C879 1.433 . S
C872 H868 0.929 . S
C872 C874 1.378 . S
C872 C876 1.350 . S
C873 C876 1.463 . S
C873 C878 1.350 . S
C873 N881 1.427 . S
C874 H865 0.930 . S
C874 C872 1.378 . S
C874 C875 1.367 . S
C875 C874 1.367 . S
C875 C877 1.433 . S
C876 C872 1.350 . S
C876 C873 1.463 . S
C876 N880 1.427 . S
C877 H867 0.929 . S
C877 C875 1.433 . S
C877 N880 1.384 . S
C878 H869 0.929 . S
C878 C870 1.378 . S
C878 C873 1.350 . S
C879 H866 0.929 . S
C879 C871 1.433 . S
C879 N881 1.384 . S
N880 C876 1.427 . S
N880 C877 1.384 . S
N881 C873 1.427 . S
N881 C879 1.384 . S
H882 C888 0.930 . S
H883 C892 0.930 . S
H884 C897 0.929 . S
H885 C895 0.929 . S
H886 C890 0.929 1_455 S
H887 C896 0.929 . S
C888 H882 0.930 . S
C888 C889 1.367 . S
C888 C896 1.378 . S
C889 C888 1.367 . S
C889 C897 1.433 . S
C890 H886 0.929 1_655 S
C890 C892 1.378 1_655 S
C890 C894 1.350 . S
C891 C894 1.463 . S
C891 C896 1.350 . S
C891 N899 1.427 . S
C892 H883 0.930 . S
C892 C890 1.378 1_455 S
C892 C893 1.367 1_455 S
C893 C892 1.367 1_655 S
C893 C895 1.433 . S
C894 C890 1.350 . S
C894 C891 1.463 . S
C894 N898 1.427 . S
C895 H885 0.929 . S
C895 C893 1.433 . S
C895 N898 1.384 . S
C896 H887 0.929 . S
C896 C888 1.378 . S
C896 C891 1.350 . S
C897 H884 0.929 . S
C897 C889 1.433 . S
C897 N899 1.384 . S
N898 C894 1.427 . S
N898 C895 1.384 . S
N899 C891 1.427 . S
N899 C897 1.384 . S
H900 C906 0.930 . S
H901 C910 0.930 . S
H902 C915 0.929 . S
H903 C913 0.929 . S
H904 C908 0.929 . S
H905 C914 0.929 . S
C906 H900 0.930 . S
C906 C907 1.367 . S
C906 C914 1.378 . S
C907 C906 1.367 . S
C907 C915 1.433 . S
C908 H904 0.929 . S
C908 C910 1.378 . S
C908 C912 1.350 . S
C909 C912 1.463 . S
C909 C914 1.350 . S
C909 N917 1.427 . S
C910 H901 0.930 . S
C910 C908 1.378 . S
C910 C911 1.367 . S
C911 C910 1.367 . S
C911 C913 1.433 . S
C912 C908 1.350 . S
C912 C909 1.463 . S
C912 N916 1.427 . S
C913 H903 0.929 . S
C913 C911 1.433 . S
C913 N916 1.384 . S
C914 H905 0.929 . S
C914 C906 1.378 . S
C914 C909 1.350 . S
C915 H902 0.929 . S
C915 C907 1.433 . S
C915 N917 1.384 . S
N916 C912 1.427 . S
N916 C913 1.384 . S
N917 C909 1.427 . S
N917 C915 1.384 . S
H918 C924 0.930 . S
H919 C928 0.930 . S
H920 C933 0.929 . S
H921 C931 0.929 . S
H922 C926 0.929 . S
H923 C932 0.929 . S
C924 H918 0.930 . S
C924 C925 1.367 . S
C924 C932 1.378 . S
C925 C924 1.367 . S
C925 C933 1.433 . S
C926 H922 0.929 . S
C926 C928 1.378 . S
C926 C930 1.350 . S
C927 C930 1.463 . S
C927 C932 1.350 . S
C927 N935 1.427 . S
C928 H919 0.930 . S
C928 C926 1.378 . S
C928 C929 1.367 . S
C929 C928 1.367 . S
C929 C931 1.433 1_545 S
C930 C926 1.350 . S
C930 C927 1.463 . S
C930 N934 1.427 . S
C931 H921 0.929 . S
C931 C929 1.433 1_565 S
C931 N934 1.384 1_565 S
C932 H923 0.929 . S
C932 C924 1.378 . S
C932 C927 1.350 . S
C933 H920 0.929 . S
C933 C925 1.433 . S
C933 N935 1.384 . S
N934 C930 1.427 . S
N934 C931 1.384 1_545 S
N935 C927 1.427 . S
N935 C933 1.384 . S
H936 C942 0.919 1_565 S
H937 C946 0.930 . S
H938 C951 0.929 . S
H939 C949 0.929 . S
H940 C944 0.929 . S
H941 C950 0.929 . S
C942 H936 0.919 1_545 S
C942 C943 1.363 . S
C942 C950 1.394 . S
C943 C942 1.363 . S
C943 C951 1.433 . S
C944 H940 0.929 . S
C944 C946 1.378 . S
C944 C948 1.350 . S
C945 C948 1.463 . S
C945 C950 1.350 . S
C945 N953 1.427 . S
C946 H937 0.930 . S
C946 C944 1.378 . S
C946 C947 1.367 . S
C947 C946 1.367 . S
C947 C949 1.433 . S
C948 C944 1.350 . S
C948 C945 1.463 . S
C948 N952 1.427 . S
C949 H939 0.929 . S
C949 C947 1.433 . S
C949 N952 1.384 . S
C950 H941 0.929 . S
C950 C942 1.394 . S
C950 C945 1.350 . S
C951 H938 0.929 . S
C951 C943 1.433 . S
C951 N953 1.384 . S
N952 C948 1.427 . S
N952 C949 1.384 . S
N953 C945 1.427 . S
N953 C951 1.384 . S
H954 C960 0.930 . S
H955 C964 0.930 . S
H956 C969 0.929 . S
H957 C967 0.929 . S
H958 C962 0.929 . S
H959 C968 0.929 . S
C960 H954 0.930 . S
C960 C961 1.367 . S
C960 C968 1.378 . S
C961 C960 1.367 . S
C961 C969 1.433 . S
C962 H958 0.929 . S
C962 C964 1.378 . S
C962 C966 1.350 . S
C963 C966 1.463 . S
C963 C968 1.350 . S
C963 N971 1.427 . S
C964 H955 0.930 . S
C964 C962 1.378 . S
C964 C965 1.367 . S
C965 C964 1.367 . S
C965 C967 1.433 1_655 S
C966 C962 1.350 . S
C966 C963 1.463 . S
C966 N970 1.427 . S
C967 H957 0.929 . S
C967 C965 1.433 1_455 S
C967 N970 1.384 1_455 S
C968 H959 0.929 . S
C968 C960 1.378 . S
C968 C963 1.350 . S
C969 H956 0.929 . S
C969 C961 1.433 . S
C969 N971 1.384 . S
N970 C966 1.427 . S
N970 C967 1.384 1_655 S
N971 C963 1.427 . S
N971 C969 1.384 . S
H972 C978 0.930 . S
H973 C982 0.930 . S
H974 C987 0.929 . S
H975 C985 0.929 . S
H976 C980 0.929 . S
H977 C986 0.929 . S
C978 H972 0.930 . S
C978 C979 1.367 . S
C978 C986 1.378 . S
C979 C978 1.367 . S
C979 C987 1.433 . S
C980 H976 0.929 . S
C980 C982 1.378 . S
C980 C984 1.350 . S
C981 C984 1.463 . S
C981 C986 1.350 . S
C981 N989 1.427 . S
C982 H973 0.930 . S
C982 C980 1.378 . S
C982 C983 1.367 . S
C983 C982 1.367 . S
C983 C985 1.433 . S
C984 C980 1.350 . S
C984 C981 1.463 . S
C984 N988 1.427 . S
C985 H975 0.929 . S
C985 C983 1.433 . S
C985 N988 1.384 . S
C986 H977 0.929 . S
C986 C978 1.378 . S
C986 C981 1.350 . S
C987 H974 0.929 . S
C987 C979 1.433 . S
C987 N989 1.384 . S
N988 C984 1.427 . S
N988 C985 1.384 . S
N989 C981 1.427 . S
N989 C987 1.384 . S
H990 C996 0.930 . S
H991 C1000 0.930 . S
H992 C1005 0.929 1_655 S
H993 C1003 0.929 . S
H994 C998 0.929 . S
H995 C1004 0.929 . S
C996 H990 0.930 . S
C996 C997 1.367 . S
C996 C1004 1.378 . S
C997 C996 1.367 . S
C997 C1005 1.433 . S
C998 H994 0.929 . S
C998 C1000 1.378 . S
C998 C1002 1.350 . S
C999 C1002 1.463 . S
C999 C1004 1.350 . S
C999 N1007 1.427 . S
C1000 H991 0.930 . S
C1000 C998 1.378 . S
C1000 C1001 1.367 . S
C1001 C1000 1.367 . S
C1001 C1003 1.433 . S
C1002 C998 1.350 . S
C1002 C999 1.463 . S
C1002 N1006 1.427 . S
C1003 H993 0.929 . S
C1003 C1001 1.433 . S
C1003 N1006 1.384 . S
C1004 H995 0.929 . S
C1004 C996 1.378 . S
C1004 C999 1.350 . S
C1005 H992 0.929 1_455 S
C1005 C997 1.433 . S
C1005 N1007 1.384 . S
N1006 C1002 1.427 . S
N1006 C1003 1.384 . S
N1007 C999 1.427 . S
N1007 C1005 1.384 . S
H1008 C1014 0.930 . S
H1009 C1018 0.930 . S
H1010 C1023 0.929 . S
H1011 C1021 0.929 . S
H1012 C1016 0.929 . S
H1013 C1022 0.929 . S
C1014 H1008 0.930 . S
C1014 C1015 1.367 . S
C1014 C1022 1.378 . S
C1015 C1014 1.367 . S
C1015 C1023 1.433 . S
C1016 H1012 0.929 . S
C1016 C1018 1.378 . S
C1016 C1020 1.350 . S
C1017 C1020 1.463 . S
C1017 C1022 1.350 . S
C1017 N1025 1.427 . S
C1018 H1009 0.930 . S
C1018 C1016 1.378 . S
C1018 C1019 1.367 . S
C1019 C1018 1.367 . S
C1019 C1021 1.433 . S
C1020 C1016 1.350 . S
C1020 C1017 1.463 . S
C1020 N1024 1.427 . S
C1021 H1011 0.929 . S
C1021 C1019 1.433 . S
C1021 N1024 1.384 . S
C1022 H1013 0.929 . S
C1022 C1014 1.378 . S
C1022 C1017 1.350 . S
C1023 H1010 0.929 . S
C1023 C1015 1.433 . S
C1023 N1025 1.384 . S
N1024 C1020 1.427 . S
N1024 C1021 1.384 . S
N1025 C1017 1.427 . S
N1025 C1023 1.384 . S
H1026 C1032 0.930 . S
H1027 C1036 0.930 . S
H1028 C1041 0.929 1_545 S
H1029 C1039 0.929 . S
H1030 C1034 0.929 . S
H1031 C1040 0.929 . S
C1032 H1026 0.930 . S
C1032 C1033 1.367 . S
C1032 C1040 1.378 . S
C1033 C1032 1.367 . S
C1033 C1041 1.433 . S
C1034 H1030 0.929 . S
C1034 C1036 1.378 . S
C1034 C1038 1.350 . S
C1035 C1038 1.463 . S
C1035 C1040 1.350 . S
C1035 N1043 1.427 . S
C1036 H1027 0.930 . S
C1036 C1034 1.378 . S
C1036 C1037 1.367 . S
C1037 C1036 1.367 . S
C1037 C1039 1.433 . S
C1038 C1034 1.350 . S
C1038 C1035 1.463 . S
C1038 N1042 1.427 . S
C1039 H1029 0.929 . S
C1039 C1037 1.433 . S
C1039 N1042 1.384 . S
C1040 H1031 0.929 . S
C1040 C1032 1.378 . S
C1040 C1035 1.350 . S
C1041 H1028 0.929 1_565 S
C1041 C1033 1.433 . S
C1041 N1043 1.384 . S
N1042 C1038 1.427 . S
N1042 C1039 1.384 . S
N1043 C1035 1.427 . S
N1043 C1041 1.384 . S
H1044 C1050 0.930 . S
H1045 C1054 0.930 . S
H1046 C1059 0.929 . S
H1047 C1057 0.929 . S
H1048 C1052 0.929 . S
H1049 C1058 0.929 . S
C1050 H1044 0.930 . S
C1050 C1051 1.367 . S
C1050 C1058 1.378 . S
C1051 C1050 1.367 . S
C1051 C1059 1.433 . S
C1052 H1048 0.929 . S
C1052 C1054 1.378 . S
C1052 C1056 1.350 . S
C1053 C1056 1.463 . S
C1053 C1058 1.350 . S
C1053 N1061 1.427 . S
C1054 H1045 0.930 . S
C1054 C1052 1.378 . S
C1054 C1055 1.367 . S
C1055 C1054 1.367 . S
C1055 C1057 1.433 . S
C1056 C1052 1.350 . S
C1056 C1053 1.463 . S
C1056 N1060 1.427 . S
C1057 H1047 0.929 . S
C1057 C1055 1.433 . S
C1057 N1060 1.384 . S
C1058 H1049 0.929 . S
C1058 C1050 1.378 . S
C1058 C1053 1.350 . S
C1059 H1046 0.929 . S
C1059 C1051 1.433 . S
C1059 N1061 1.384 . S
N1060 C1056 1.427 . S
N1060 C1057 1.384 . S
N1061 C1053 1.427 . S
N1061 C1059 1.384 . S
H1062 C1068 0.930 . S
H1063 C1072 0.930 . S
H1064 C1077 0.929 . S
H1065 C1075 0.929 . S
H1066 C1070 0.929 . S
H1067 C1076 0.929 . S
C1068 H1062 0.930 . S
C1068 C1069 1.367 . S
C1068 C1076 1.378 . S
C1069 C1068 1.367 . S
C1069 C1077 1.433 . S
C1070 H1066 0.929 . S
C1070 C1072 1.378 . S
C1070 C1074 1.350 . S
C1071 C1074 1.463 1_545 S
C1071 C1076 1.350 . S
C1071 N1079 1.427 . S
C1072 H1063 0.930 . S
C1072 C1070 1.378 . S
C1072 C1073 1.367 . S
C1073 C1072 1.367 . S
C1073 C1075 1.433 . S
C1074 C1070 1.350 . S
C1074 C1071 1.463 1_565 S
C1074 N1078 1.427 . S
C1075 H1065 0.929 . S
C1075 C1073 1.433 . S
C1075 N1078 1.384 . S
C1076 H1067 0.929 . S
C1076 C1068 1.378 . S
C1076 C1071 1.350 . S
C1077 H1064 0.929 . S
C1077 C1069 1.433 . S
C1077 N1079 1.384 . S
N1078 C1074 1.427 . S
N1078 C1075 1.384 . S
N1079 C1071 1.427 . S
N1079 C1077 1.384 . S
H1080 C1086 0.930 . S
H1081 C1090 0.930 . S
H1082 C1095 0.929 . S
H1083 C1093 0.929 . S
H1084 C1088 0.929 . S
H1085 C1094 0.929 . S
C1086 H1080 0.930 . S
C1086 C1087 1.367 . S
C1086 C1094 1.378 . S
C1087 C1086 1.367 . S
C1087 C1095 1.433 . S
C1088 H1084 0.929 . S
C1088 C1090 1.378 . S
C1088 C1092 1.350 . S
C1089 C1092 1.463 1_655 S
C1089 C1094 1.350 . S
C1089 N1097 1.427 . S
C1090 H1081 0.930 . S
C1090 C1088 1.378 . S
C1090 C1091 1.367 . S
C1091 C1090 1.367 . S
C1091 C1093 1.433 . S
C1092 C1088 1.350 . S
C1092 C1089 1.463 1_455 S
C1092 N1096 1.427 . S
C1093 H1083 0.929 . S
C1093 C1091 1.433 . S
C1093 N1096 1.384 . S
C1094 H1085 0.929 . S
C1094 C1086 1.378 . S
C1094 C1089 1.350 . S
C1095 H1082 0.929 . S
C1095 C1087 1.433 . S
C1095 N1097 1.384 . S
N1096 C1092 1.427 . S
N1096 C1093 1.384 . S
N1097 C1089 1.427 . S
N1097 C1095 1.384 . S
H1098 C1104 0.930 . S
H1099 C1108 0.930 . S
H1100 C1113 0.929 . S
H1101 C1111 0.929 . S
H1102 C1106 0.929 . S
H1103 C1112 0.929 . S
C1104 H1098 0.930 . S
C1104 C1105 1.367 . S
C1104 C1112 1.378 . S
C1105 C1104 1.367 . S
C1105 C1113 1.433 . S
C1106 H1102 0.929 . S
C1106 C1108 1.378 . S
C1106 C1110 1.350 . S
C1107 C1110 1.463 . S
C1107 C1112 1.350 . S
C1107 N1115 1.427 . S
C1108 H1099 0.930 . S
C1108 C1106 1.378 . S
C1108 C1109 1.367 . S
C1109 C1108 1.367 . S
C1109 C1111 1.433 . S
C1110 C1106 1.350 . S
C1110 C1107 1.463 . S
C1110 N1114 1.427 . S
C1111 H1101 0.929 . S
C1111 C1109 1.433 . S
C1111 N1114 1.384 . S
C1112 H1103 0.929 . S
C1112 C1104 1.378 . S
C1112 C1107 1.350 . S
C1113 H1100 0.929 . S
C1113 C1105 1.433 . S
C1113 N1115 1.384 . S
N1114 C1110 1.427 . S
N1114 C1111 1.384 . S
N1115 C1107 1.427 . S
N1115 C1113 1.384 . S
H1116 C1122 0.930 . S
H1117 C1126 0.930 . S
H1118 C1131 0.929 . S
H1119 C1129 0.929 . S
H1120 C1124 0.929 . S
H1121 C1130 0.929 . S
C1122 H1116 0.930 . S
C1122 C1123 1.367 . S
C1122 C1130 1.378 . S
C1123 C1122 1.367 . S
C1123 C1131 1.433 . S
C1124 H1120 0.929 . S
C1124 C1126 1.378 . S
C1124 C1128 1.350 . S
C1125 C1128 1.463 1_565 S
C1125 C1130 1.350 . S
C1125 N1133 1.427 . S
C1126 H1117 0.930 . S
C1126 C1124 1.378 . S
C1126 C1127 1.367 . S
C1127 C1126 1.367 . S
C1127 C1129 1.433 . S
C1128 C1124 1.350 . S
C1128 C1125 1.463 1_545 S
C1128 N1132 1.427 . S
C1129 H1119 0.929 . S
C1129 C1127 1.433 . S
C1129 N1132 1.384 . S
C1130 H1121 0.929 . S
C1130 C1122 1.378 . S
C1130 C1125 1.350 . S
C1131 H1118 0.929 . S
C1131 C1123 1.433 . S
C1131 N1133 1.384 . S
N1132 C1128 1.427 . S
N1132 C1129 1.384 . S
N1133 C1125 1.427 . S
N1133 C1131 1.384 . S
H1134 C1140 0.930 . S
H1135 C1144 0.930 . S
H1136 C1149 0.929 . S
H1137 C1147 0.929 . S
H1138 C1142 0.929 1_655 S
H1139 C1148 0.929 1_455 S
C1140 H1134 0.930 . S
C1140 C1141 1.367 . S
C1140 C1148 1.378 . S
C1141 C1140 1.367 . S
C1141 C1149 1.433 . S
C1142 H1138 0.929 1_455 S
C1142 C1144 1.378 . S
C1142 C1146 1.350 . S
C1143 C1146 1.463 1_655 S
C1143 C1148 1.350 . S
C1143 N1151 1.427 . S
C1144 H1135 0.930 . S
C1144 C1142 1.378 . S
C1144 C1145 1.367 . S
C1145 C1144 1.367 . S
C1145 C1147 1.433 . S
C1146 C1142 1.350 . S
C1146 C1143 1.463 1_455 S
C1146 N1150 1.427 . S
C1147 H1137 0.929 . S
C1147 C1145 1.433 . S
C1147 N1150 1.384 . S
C1148 H1139 0.929 1_655 S
C1148 C1140 1.378 . S
C1148 C1143 1.350 . S
C1149 H1136 0.929 . S
C1149 C1141 1.433 . S
C1149 N1151 1.384 . S
N1150 C1146 1.427 . S
N1150 C1147 1.384 . S
N1151 C1143 1.427 . S
N1151 C1149 1.384 . S
H1152 C1158 0.930 . S
H1153 C1162 0.930 . S
H1154 C1167 0.929 . S
H1155 C1165 0.929 . S
H1156 C1160 0.929 . S
H1157 C1166 0.929 . S
C1158 H1152 0.930 . S
C1158 C1159 1.367 . S
C1158 C1166 1.378 . S
C1159 C1158 1.367 . S
C1159 C1167 1.433 . S
C1160 H1156 0.929 . S
C1160 C1162 1.378 . S
C1160 C1164 1.350 . S
C1161 C1164 1.463 . S
C1161 C1166 1.350 . S
C1161 N1169 1.427 . S
C1162 H1153 0.930 . S
C1162 C1160 1.378 . S
C1162 C1163 1.367 . S
C1163 C1162 1.367 . S
C1163 C1165 1.433 . S
C1164 C1160 1.350 . S
C1164 C1161 1.463 . S
C1164 N1168 1.427 . S
C1165 H1155 0.929 . S
C1165 C1163 1.433 . S
C1165 N1168 1.384 . S
C1166 H1157 0.929 . S
C1166 C1158 1.378 . S
C1166 C1161 1.350 . S
C1167 H1154 0.929 . S
C1167 C1159 1.433 . S
C1167 N1169 1.384 . S
N1168 C1164 1.427 . S
N1168 C1165 1.384 . S
N1169 C1161 1.427 . S
N1169 C1167 1.384 . S
H1170 C1176 0.930 . S
H1171 C1180 0.930 . S
H1172 C1185 0.929 . S
H1173 C1183 0.929 . S
H1174 C1178 0.929 . S
H1175 C1184 0.929 1_565 S
C1176 H1170 0.930 . S
C1176 C1177 1.367 . S
C1176 C1184 1.378 . S
C1177 C1176 1.367 . S
C1177 C1185 1.433 . S
C1178 H1174 0.929 . S
C1178 C1180 1.378 . S
C1178 C1182 1.350 . S
C1179 C1182 1.463 . S
C1179 C1184 1.350 1_565 S
C1179 N1187 1.427 1_565 S
C1180 H1171 0.930 . S
C1180 C1178 1.378 . S
C1180 C1181 1.367 . S
C1181 C1180 1.367 . S
C1181 C1183 1.433 . S
C1182 C1178 1.350 . S
C1182 C1179 1.463 . S
C1182 N1186 1.427 . S
C1183 H1173 0.929 . S
C1183 C1181 1.433 . S
C1183 N1186 1.384 . S
C1184 H1175 0.929 1_545 S
C1184 C1176 1.378 . S
C1184 C1179 1.350 1_545 S
C1185 H1172 0.929 . S
C1185 C1177 1.433 . S
C1185 N1187 1.384 . S
N1186 C1182 1.427 . S
N1186 C1183 1.384 . S
N1187 C1179 1.427 1_545 S
N1187 C1185 1.384 . S
H1188 C1194 0.930 . S
H1189 C1198 0.930 . S
H1190 C1203 0.929 . S
H1191 C1201 0.929 . S
H1192 C1196 0.929 . S
H1193 C1202 0.929 1_455 S
C1194 H1188 0.930 . S
C1194 C1195 1.367 . S
C1194 C1202 1.378 . S
C1195 C1194 1.367 . S
C1195 C1203 1.433 . S
C1196 H1192 0.929 . S
C1196 C1198 1.378 . S
C1196 C1200 1.350 . S
C1197 C1200 1.463 . S
C1197 C1202 1.350 1_455 S
C1197 N1205 1.427 1_455 S
C1198 H1189 0.930 . S
C1198 C1196 1.378 . S
C1198 C1199 1.367 . S
C1199 C1198 1.367 . S
C1199 C1201 1.433 . S
C1200 C1196 1.350 . S
C1200 C1197 1.463 . S
C1200 N1204 1.427 . S
C1201 H1191 0.929 . S
C1201 C1199 1.433 . S
C1201 N1204 1.384 . S
C1202 H1193 0.929 1_655 S
C1202 C1194 1.378 . S
C1202 C1197 1.350 1_655 S
C1203 H1190 0.929 . S
C1203 C1195 1.433 . S
C1203 N1205 1.384 . S
N1204 C1200 1.427 . S
N1204 C1201 1.384 . S
N1205 C1197 1.427 1_655 S
N1205 C1203 1.384 . S
H1206 C1212 0.930 . S
H1207 C1216 0.930 . S
H1208 C1221 0.929 . S
H1209 C1219 0.929 . S
H1210 C1214 0.929 . S
H1211 C1220 0.929 . S
C1212 H1206 0.930 . S
C1212 C1213 1.367 . S
C1212 C1220 1.378 . S
C1213 C1212 1.367 . S
C1213 C1221 1.433 . S
C1214 H1210 0.929 . S
C1214 C1216 1.378 . S
C1214 C1218 1.350 . S
C1215 C1218 1.463 . S
C1215 C1220 1.350 . S
C1215 N1223 1.427 . S
C1216 H1207 0.930 . S
C1216 C1214 1.378 . S
C1216 C1217 1.367 . S
C1217 C1216 1.367 . S
C1217 C1219 1.433 . S
C1218 C1214 1.350 . S
C1218 C1215 1.463 . S
C1218 N1222 1.427 . S
C1219 H1209 0.929 . S
C1219 C1217 1.433 . S
C1219 N1222 1.384 . S
C1220 H1211 0.929 . S
C1220 C1212 1.378 . S
C1220 C1215 1.350 . S
C1221 H1208 0.929 . S
C1221 C1213 1.433 . S
C1221 N1223 1.384 . S
N1222 C1218 1.427 . S
N1222 C1219 1.384 . S
N1223 C1215 1.427 . S
N1223 C1221 1.384 . S
H1224 C1230 0.930 . S
H1225 C1234 0.930 . S
H1226 C1239 0.929 . S
H1227 C1237 0.929 . S
H1228 C1232 0.929 1_545 S
H1229 C1238 0.929 . S
C1230 H1224 0.930 . S
C1230 C1231 1.367 . S
C1230 C1238 1.378 . S
C1231 C1230 1.367 . S
C1231 C1239 1.433 . S
C1232 H1228 0.929 1_565 S
C1232 C1234 1.378 . S
C1232 C1236 1.350 1_565 S
C1233 C1236 1.463 . S
C1233 C1238 1.350 . S
C1233 N1241 1.427 . S
C1234 H1225 0.930 . S
C1234 C1232 1.378 . S
C1234 C1235 1.367 . S
C1235 C1234 1.367 . S
C1235 C1237 1.433 . S
C1236 C1232 1.350 1_545 S
C1236 C1233 1.463 . S
C1236 N1240 1.427 1_545 S
C1237 H1227 0.929 . S
C1237 C1235 1.433 . S
C1237 N1240 1.384 . S
C1238 H1229 0.929 . S
C1238 C1230 1.378 . S
C1238 C1233 1.350 . S
C1239 H1226 0.929 . S
C1239 C1231 1.433 . S
C1239 N1241 1.384 . S
N1240 C1236 1.427 1_565 S
N1240 C1237 1.384 . S
N1241 C1233 1.427 . S
N1241 C1239 1.384 . S
H1242 C1248 0.930 . S
H1243 C1252 0.930 . S
H1244 C1257 0.929 . S
H1245 C1255 0.929 . S
H1246 C1250 0.929 . S
H1247 C1256 0.929 . S
C1248 H1242 0.930 . S
C1248 C1249 1.367 . S
C1248 C1256 1.378 . S
C1249 C1248 1.367 . S
C1249 C1257 1.433 . S
C1250 H1246 0.929 . S
C1250 C1252 1.378 . S
C1250 C1254 1.350 . S
C1251 C1254 1.463 . S
C1251 C1256 1.350 1_655 S
C1251 N1259 1.427 1_655 S
C1252 H1243 0.930 . S
C1252 C1250 1.378 . S
C1252 C1253 1.367 . S
C1253 C1252 1.367 . S
C1253 C1255 1.433 . S
C1254 C1250 1.350 . S
C1254 C1251 1.463 . S
C1254 N1258 1.427 . S
C1255 H1245 0.929 . S
C1255 C1253 1.433 . S
C1255 N1258 1.384 . S
C1256 H1247 0.929 . S
C1256 C1248 1.378 . S
C1256 C1251 1.350 1_455 S
C1257 H1244 0.929 . S
C1257 C1249 1.433 . S
C1257 N1259 1.384 . S
N1258 C1254 1.427 . S
N1258 C1255 1.384 . S
N1259 C1251 1.427 1_455 S
N1259 C1257 1.384 . S
H1260 C1266 0.930 . S
H1261 C1270 0.930 . S
H1262 C1275 0.929 . S
H1263 C1273 0.929 . S
H1264 C1268 0.929 . S
H1265 C1274 0.929 . S
C1266 H1260 0.930 . S
C1266 C1267 1.367 . S
C1266 C1274 1.378 . S
C1267 C1266 1.367 . S
C1267 C1275 1.433 . S
C1268 H1264 0.929 . S
C1268 C1270 1.378 . S
C1268 C1272 1.350 . S
C1269 C1272 1.463 . S
C1269 C1274 1.350 . S
C1269 N1277 1.427 . S
C1270 H1261 0.930 . S
C1270 C1268 1.378 . S
C1270 C1271 1.367 . S
C1271 C1270 1.367 . S
C1271 C1273 1.433 . S
C1272 C1268 1.350 . S
C1272 C1269 1.463 . S
C1272 N1276 1.427 . S
C1273 H1263 0.929 . S
C1273 C1271 1.433 . S
C1273 N1276 1.384 . S
C1274 H1265 0.929 . S
C1274 C1266 1.378 . S
C1274 C1269 1.350 . S
C1275 H1262 0.929 . S
C1275 C1267 1.433 . S
C1275 N1277 1.384 . S
N1276 C1272 1.427 . S
N1276 C1273 1.384 . S
N1277 C1269 1.427 . S
N1277 C1275 1.384 . S
H1278 C1284 0.930 . S
H1279 C1288 0.930 . S
H1280 C1293 0.929 . S
H1281 C1291 0.929 . S
H1282 C1286 0.929 . S
H1283 C1292 0.929 . S
C1284 H1278 0.930 . S
C1284 C1285 1.367 . S
C1284 C1292 1.378 . S
C1285 C1284 1.367 . S
C1285 C1293 1.433 . S
C1286 H1282 0.929 . S
C1286 C1288 1.378 . S
C1286 C1290 1.350 . S
C1287 C1290 1.463 . S
C1287 C1292 1.350 1_545 S
C1287 N1295 1.427 1_545 S
C1288 H1279 0.930 . S
C1288 C1286 1.378 . S
C1288 C1289 1.367 . S
C1289 C1288 1.367 . S
C1289 C1291 1.433 . S
C1290 C1286 1.350 . S
C1290 C1287 1.463 . S
C1290 N1294 1.427 . S
C1291 H1281 0.929 . S
C1291 C1289 1.433 . S
C1291 N1294 1.384 . S
C1292 H1283 0.929 . S
C1292 C1284 1.378 . S
C1292 C1287 1.350 1_565 S
C1293 H1280 0.929 . S
C1293 C1285 1.433 . S
C1293 N1295 1.384 . S
N1294 C1290 1.427 . S
N1294 C1291 1.384 . S
N1295 C1287 1.427 1_565 S
N1295 C1293 1.384 . S
H1296 C1302 0.930 . S
H1297 C1306 0.930 . S
H1298 C1311 0.929 . S
H1299 C1309 0.929 . S
H1300 C1304 0.929 . S
H1301 C1310 0.929 . S
C1302 H1296 0.930 . S
C1302 C1303 1.367 . S
C1302 C1310 1.378 . S
C1303 C1302 1.367 . S
C1303 C1311 1.433 . S
C1304 H1300 0.929 . S
C1304 C1306 1.378 . S
C1304 C1308 1.350 . S
C1305 C1308 1.463 . S
C1305 C1310 1.350 1_655 S
C1305 N1313 1.427 1_655 S
C1306 H1297 0.930 . S
C1306 C1304 1.378 . S
C1306 C1307 1.367 . S
C1307 C1306 1.367 . S
C1307 C1309 1.433 . S
C1308 C1304 1.350 . S
C1308 C1305 1.463 . S
C1308 N1312 1.427 . S
C1309 H1299 0.929 . S
C1309 C1307 1.433 . S
C1309 N1312 1.384 . S
C1310 H1301 0.929 . S
C1310 C1302 1.378 . S
C1310 C1305 1.350 1_455 S
C1311 H1298 0.929 . S
C1311 C1303 1.433 . S
C1311 N1313 1.384 . S
N1312 C1308 1.427 . S
N1312 C1309 1.384 . S
N1313 C1305 1.427 1_455 S
N1313 C1311 1.384 . S
H1314 C1320 0.930 . S
H1315 C1324 0.930 . S
H1316 C1329 0.929 . S
H1317 C1327 0.929 . S
H1318 C1322 0.929 . S
H1319 C1328 0.929 . S
C1320 H1314 0.930 . S
C1320 C1321 1.367 . S
C1320 C1328 1.378 . S
C1321 C1320 1.367 . S
C1321 C1329 1.433 . S
C1322 H1318 0.929 . S
C1322 C1324 1.378 . S
C1322 C1326 1.350 . S
C1323 C1326 1.463 . S
C1323 C1328 1.350 . S
C1323 N1331 1.427 . S
C1324 H1315 0.930 . S
C1324 C1322 1.378 . S
C1324 C1325 1.367 . S
C1325 C1324 1.367 . S
C1325 C1327 1.433 . S
C1326 C1322 1.350 . S
C1326 C1323 1.463 . S
C1326 N1330 1.427 . S
C1327 H1317 0.929 . S
C1327 C1325 1.433 . S
C1327 N1330 1.384 . S
C1328 H1319 0.929 . S
C1328 C1320 1.378 . S
C1328 C1323 1.350 . S
C1329 H1316 0.929 . S
C1329 C1321 1.433 . S
C1329 N1331 1.384 . S
N1330 C1326 1.427 . S
N1330 C1327 1.384 . S
N1331 C1323 1.427 . S
N1331 C1329 1.384 . S
H1332 C1338 0.930 . S
H1333 C1342 0.930 . S
H1334 C1347 0.929 . S
H1335 C1345 0.929 . S
H1336 C1340 0.929 . S
H1337 C1346 0.924 1_565 S
C1338 H1332 0.930 . S
C1338 C1339 1.367 . S
C1338 C1346 1.378 . S
C1339 C1338 1.367 . S
C1339 C1347 1.433 . S
C1340 H1336 0.929 . S
C1340 C1342 1.378 . S
C1340 C1344 1.350 . S
C1341 C1344 1.463 . S
C1341 C1346 1.350 1_565 S
C1341 N1349 1.427 1_565 S
C1342 H1333 0.930 . S
C1342 C1340 1.378 . S
C1342 C1343 1.367 . S
C1343 C1342 1.367 . S
C1343 C1345 1.433 . S
C1344 C1340 1.350 . S
C1344 C1341 1.463 . S
C1344 N1348 1.427 . S
C1345 H1335 0.929 . S
C1345 C1343 1.433 . S
C1345 N1348 1.384 . S
C1346 H1337 0.924 1_545 S
C1346 C1338 1.378 . S
C1346 C1341 1.350 1_545 S
C1347 H1334 0.929 . S
C1347 C1339 1.433 . S
C1347 N1349 1.384 . S
N1348 C1344 1.427 . S
N1348 C1345 1.384 . S
N1349 C1341 1.427 1_545 S
N1349 C1347 1.384 . S
H1350 C1356 0.930 . S
H1351 C1360 0.930 . S
H1352 C1365 0.929 . S
H1353 C1363 0.929 . S
H1354 C1358 0.929 . S
H1355 C1364 0.929 . S
C1356 H1350 0.930 . S
C1356 C1357 1.367 . S
C1356 C1364 1.378 . S
C1357 C1356 1.367 . S
C1357 C1365 1.433 . S
C1358 H1354 0.929 . S
C1358 C1360 1.378 . S
C1358 C1362 1.350 1_655 S
C1359 C1362 1.463 . S
C1359 C1364 1.350 . S
C1359 N1367 1.427 . S
C1360 H1351 0.930 . S
C1360 C1358 1.378 . S
C1360 C1361 1.367 . S
C1361 C1360 1.367 . S
C1361 C1363 1.433 . S
C1362 C1358 1.350 1_455 S
C1362 C1359 1.463 . S
C1362 N1366 1.427 1_455 S
C1363 H1353 0.929 . S
C1363 C1361 1.433 . S
C1363 N1366 1.384 . S
C1364 H1355 0.929 . S
C1364 C1356 1.378 . S
C1364 C1359 1.350 . S
C1365 H1352 0.929 . S
C1365 C1357 1.433 . S
C1365 N1367 1.384 . S
N1366 C1362 1.427 1_655 S
N1366 C1363 1.384 . S
N1367 C1359 1.427 . S
N1367 C1365 1.384 . S
H1368 C1374 0.930 . S
H1369 C1378 0.930 . S
H1370 C1383 0.929 . S
H1371 C1381 0.929 . S
H1372 C1376 0.929 . S
H1373 C1382 0.929 . S
C1374 H1368 0.930 . S
C1374 C1375 1.367 . S
C1374 C1382 1.378 . S
C1375 C1374 1.367 . S
C1375 C1383 1.433 . S
C1376 H1372 0.929 . S
C1376 C1378 1.378 . S
C1376 C1380 1.350 . S
C1377 C1380 1.463 . S
C1377 C1382 1.350 . S
C1377 N1385 1.427 . S
C1378 H1369 0.930 . S
C1378 C1376 1.378 . S
C1378 C1379 1.367 . S
C1379 C1378 1.367 . S
C1379 C1381 1.433 . S
C1380 C1376 1.350 . S
C1380 C1377 1.463 . S
C1380 N1384 1.427 . S
C1381 H1371 0.929 . S
C1381 C1379 1.433 . S
C1381 N1384 1.384 . S
C1382 H1373 0.929 . S
C1382 C1374 1.378 . S
C1382 C1377 1.350 . S
C1383 H1370 0.929 . S
C1383 C1375 1.433 . S
C1383 N1385 1.384 . S
N1384 C1380 1.427 . S
N1384 C1381 1.384 . S
N1385 C1377 1.427 . S
N1385 C1383 1.384 . S
H1386 C1392 0.930 . S
H1387 C1396 0.930 . S
H1388 C1401 0.929 . S
H1389 C1399 0.929 . S
H1390 C1394 0.929 . S
H1391 C1400 0.929 . S
C1392 H1386 0.930 . S
C1392 C1393 1.367 . S
C1392 C1400 1.378 . S
C1393 C1392 1.367 . S
C1393 C1401 1.433 . S
C1394 H1390 0.929 . S
C1394 C1396 1.378 . S
C1394 C1398 1.350 . S
C1395 C1398 1.463 . S
C1395 C1400 1.350 . S
C1395 N1403 1.427 . S
C1396 H1387 0.930 . S
C1396 C1394 1.378 . S
C1396 C1397 1.367 . S
C1397 C1396 1.367 . S
C1397 C1399 1.433 . S
C1398 C1394 1.350 . S
C1398 C1395 1.463 . S
C1398 N1402 1.427 . S
C1399 H1389 0.929 . S
C1399 C1397 1.433 . S
C1399 N1402 1.384 . S
C1400 H1391 0.929 . S
C1400 C1392 1.378 . S
C1400 C1395 1.350 . S
C1401 H1388 0.929 . S
C1401 C1393 1.433 . S
C1401 N1403 1.384 . S
N1402 C1398 1.427 . S
N1402 C1399 1.384 . S
N1403 C1395 1.427 . S
N1403 C1401 1.384 . S
H1404 C1410 0.930 . S
H1405 C1414 0.930 . S
H1406 C1419 0.929 . S
H1407 C1417 0.929 . S
H1408 C1412 0.929 . S
H1409 C1418 0.929 . S
C1410 H1404 0.930 . S
C1410 C1411 1.367 . S
C1410 C1418 1.378 . S
C1411 C1410 1.367 . S
C1411 C1419 1.433 . S
C1412 H1408 0.929 . S
C1412 C1414 1.378 . S
C1412 C1416 1.350 . S
C1413 C1416 1.463 . S
C1413 C1418 1.350 . S
C1413 N1421 1.427 . S
C1414 H1405 0.930 . S
C1414 C1412 1.378 . S
C1414 C1415 1.367 . S
C1415 C1414 1.367 . S
C1415 C1417 1.433 . S
C1416 C1412 1.350 . S
C1416 C1413 1.463 . S
C1416 N1420 1.427 . S
C1417 H1407 0.929 . S
C1417 C1415 1.433 . S
C1417 N1420 1.384 . S
C1418 H1409 0.929 . S
C1418 C1410 1.378 . S
C1418 C1413 1.350 . S
C1419 H1406 0.929 . S
C1419 C1411 1.433 . S
C1419 N1421 1.384 . S
N1420 C1416 1.427 . S
N1420 C1417 1.384 . S
N1421 C1413 1.427 . S
N1421 C1419 1.384 . S
H1422 C1428 0.930 . S
H1423 C1432 0.930 . S
H1424 C1437 0.929 . S
H1425 C1435 0.929 . S
H1426 C1430 0.929 . S
H1427 C1436 0.929 . S
C1428 H1422 0.930 . S
C1428 C1429 1.367 . S
C1428 C1436 1.378 . S
C1429 C1428 1.367 . S
C1429 C1437 1.433 . S
C1430 H1426 0.929 . S
C1430 C1432 1.378 . S
C1430 C1434 1.350 . S
C1431 C1434 1.463 . S
C1431 C1436 1.350 . S
C1431 N1439 1.427 . S
C1432 H1423 0.930 . S
C1432 C1430 1.378 . S
C1432 C1433 1.367 . S
C1433 C1432 1.367 . S
C1433 C1435 1.433 . S
C1434 C1430 1.350 . S
C1434 C1431 1.463 . S
C1434 N1438 1.427 . S
C1435 H1425 0.929 . S
C1435 C1433 1.433 . S
C1435 N1438 1.384 . S
C1436 H1427 0.929 . S
C1436 C1428 1.378 . S
C1436 C1431 1.350 . S
C1437 H1424 0.929 . S
C1437 C1429 1.433 . S
C1437 N1439 1.384 . S
N1438 C1434 1.427 . S
N1438 C1435 1.384 . S
N1439 C1431 1.427 . S
N1439 C1437 1.384 . S
H1440 C1446 0.930 . S
H1441 C1450 0.930 . S
H1442 C1455 0.929 . S
H1443 C1453 0.929 . S
H1444 C1448 0.929 . S
H1445 C1454 0.929 . S
C1446 H1440 0.930 . S
C1446 C1447 1.367 . S
C1446 C1454 1.378 . S
C1447 C1446 1.367 . S
C1447 C1455 1.433 . S
C1448 H1444 0.929 . S
C1448 C1450 1.378 . S
C1448 C1452 1.350 . S
C1449 C1452 1.463 . S
C1449 C1454 1.350 . S
C1449 N1457 1.427 . S
C1450 H1441 0.930 . S
C1450 C1448 1.378 . S
C1450 C1451 1.367 . S
C1451 C1450 1.367 . S
C1451 C1453 1.433 . S
C1452 C1448 1.350 . S
C1452 C1449 1.463 . S
C1452 N1456 1.427 . S
C1453 H1443 0.929 . S
C1453 C1451 1.433 . S
C1453 N1456 1.384 . S
C1454 H1445 0.929 . S
C1454 C1446 1.378 . S
C1454 C1449 1.350 . S
C1455 H1442 0.929 . S
C1455 C1447 1.433 . S
C1455 N1457 1.384 . S
N1456 C1452 1.427 . S
N1456 C1453 1.384 . S
N1457 C1449 1.427 . S
N1457 C1455 1.384 . S
H1458 C1464 0.930 . S
H1459 C1468 0.930 . S
H1460 C1473 0.929 . S
H1461 C1471 0.929 . S
H1462 C1466 0.929 . S
H1463 C1472 0.929 . S
C1464 H1458 0.930 . S
C1464 C1465 1.367 . S
C1464 C1472 1.378 . S
C1465 C1464 1.367 . S
C1465 C1473 1.433 . S
C1466 H1462 0.929 . S
C1466 C1468 1.378 . S
C1466 C1470 1.350 . S
C1467 C1470 1.463 . S
C1467 C1472 1.350 . S
C1467 N1475 1.427 . S
C1468 H1459 0.930 . S
C1468 C1466 1.378 . S
C1468 C1469 1.367 . S
C1469 C1468 1.367 . S
C1469 C1471 1.433 . S
C1470 C1466 1.350 . S
C1470 C1467 1.463 . S
C1470 N1474 1.427 . S
C1471 H1461 0.929 . S
C1471 C1469 1.433 . S
C1471 N1474 1.384 . S
C1472 H1463 0.929 . S
C1472 C1464 1.378 . S
C1472 C1467 1.350 . S
C1473 H1460 0.929 . S
C1473 C1465 1.433 . S
C1473 N1475 1.384 . S
N1474 C1470 1.427 . S
N1474 C1471 1.384 . S
N1475 C1467 1.427 . S
N1475 C1473 1.384 . S
H1476 C1482 0.930 . S
H1477 C1486 0.930 . S
H1478 C1491 0.929 . S
H1479 C1489 0.929 . S
H1480 C1484 0.929 . S
H1481 C1490 0.929 . S
C1482 H1476 0.930 . S
C1482 C1483 1.367 . S
C1482 C1490 1.378 . S
C1483 C1482 1.367 . S
C1483 C1491 1.433 . S
C1484 H1480 0.929 . S
C1484 C1486 1.378 . S
C1484 C1488 1.350 . S
C1485 C1488 1.463 . S
C1485 C1490 1.350 . S
C1485 N1493 1.427 . S
C1486 H1477 0.930 . S
C1486 C1484 1.378 . S
C1486 C1487 1.367 . S
C1487 C1486 1.367 . S
C1487 C1489 1.433 . S
C1488 C1484 1.350 . S
C1488 C1485 1.463 . S
C1488 N1492 1.427 . S
C1489 H1479 0.929 . S
C1489 C1487 1.433 . S
C1489 N1492 1.384 . S
C1490 H1481 0.929 . S
C1490 C1482 1.378 . S
C1490 C1485 1.350 . S
C1491 H1478 0.929 . S
C1491 C1483 1.433 . S
C1491 N1493 1.384 . S
N1492 C1488 1.427 . S
N1492 C1489 1.384 . S
N1493 C1485 1.427 . S
N1493 C1491 1.384 . S
H1494 C1500 0.930 . S
H1495 C1504 0.930 . S
H1496 C1509 0.929 . S
H1497 C1507 0.929 . S
H1498 C1502 0.929 . S
H1499 C1508 0.929 . S
C1500 H1494 0.930 . S
C1500 C1501 1.367 . S
C1500 C1508 1.378 . S
C1501 C1500 1.367 . S
C1501 C1509 1.433 . S
C1502 H1498 0.929 . S
C1502 C1504 1.378 . S
C1502 C1506 1.350 . S
C1503 C1506 1.463 . S
C1503 C1508 1.350 . S
C1503 N1511 1.427 . S
C1504 H1495 0.930 . S
C1504 C1502 1.378 . S
C1504 C1505 1.367 . S
C1505 C1504 1.367 . S
C1505 C1507 1.433 . S
C1506 C1502 1.350 . S
C1506 C1503 1.463 . S
C1506 N1510 1.427 . S
C1507 H1497 0.929 . S
C1507 C1505 1.433 . S
C1507 N1510 1.384 . S
C1508 H1499 0.929 . S
C1508 C1500 1.378 . S
C1508 C1503 1.350 . S
C1509 H1496 0.929 . S
C1509 C1501 1.433 . S
C1509 N1511 1.384 . S
N1510 C1506 1.427 . S
N1510 C1507 1.384 . S
N1511 C1503 1.427 . S
N1511 C1509 1.384 . S
H1512 C1518 0.930 . S
H1513 C1522 0.930 . S
H1514 C1527 0.929 . S
H1515 C1525 0.929 . S
H1516 C1520 0.929 . S
H1517 C1526 0.929 . S
C1518 H1512 0.930 . S
C1518 C1519 1.367 . S
C1518 C1526 1.378 . S
C1519 C1518 1.367 . S
C1519 C1527 1.433 . S
C1520 H1516 0.929 . S
C1520 C1522 1.378 . S
C1520 C1524 1.350 . S
C1521 C1524 1.463 . S
C1521 C1526 1.350 . S
C1521 N1529 1.427 . S
C1522 H1513 0.930 . S
C1522 C1520 1.378 . S
C1522 C1523 1.367 . S
C1523 C1522 1.367 . S
C1523 C1525 1.433 . S
C1524 C1520 1.350 . S
C1524 C1521 1.463 . S
C1524 N1528 1.427 . S
C1525 H1515 0.929 . S
C1525 C1523 1.433 . S
C1525 N1528 1.384 . S
C1526 H1517 0.929 . S
C1526 C1518 1.378 . S
C1526 C1521 1.350 . S
C1527 H1514 0.929 . S
C1527 C1519 1.433 . S
C1527 N1529 1.384 . S
N1528 C1524 1.427 . S
N1528 C1525 1.384 . S
N1529 C1521 1.427 . S
N1529 C1527 1.384 . S
H1530 C1536 0.930 . S
H1531 C1540 0.930 . S
H1532 C1545 0.929 . S
H1533 C1543 0.929 . S
H1534 C1538 0.929 . S
H1535 C1544 0.929 . S
C1536 H1530 0.930 . S
C1536 C1537 1.367 . S
C1536 C1544 1.378 . S
C1537 C1536 1.367 . S
C1537 C1545 1.433 . S
C1538 H1534 0.929 . S
C1538 C1540 1.378 . S
C1538 C1542 1.350 . S
C1539 C1542 1.463 . S
C1539 C1544 1.350 . S
C1539 N1547 1.427 . S
C1540 H1531 0.930 . S
C1540 C1538 1.378 . S
C1540 C1541 1.367 . S
C1541 C1540 1.367 . S
C1541 C1543 1.433 . S
C1542 C1538 1.350 . S
C1542 C1539 1.463 . S
C1542 N1546 1.427 . S
C1543 H1533 0.929 . S
C1543 C1541 1.433 . S
C1543 N1546 1.384 . S
C1544 H1535 0.929 . S
C1544 C1536 1.378 . S
C1544 C1539 1.350 . S
C1545 H1532 0.929 . S
C1545 C1537 1.433 . S
C1545 N1547 1.384 . S
N1546 C1542 1.427 . S
N1546 C1543 1.384 . S
N1547 C1539 1.427 . S
N1547 C1545 1.384 . S
H1548 C1554 0.930 . S
H1549 C1558 0.930 . S
H1550 C1563 0.929 . S
H1551 C1561 0.929 . S
H1552 C1556 0.929 . S
H1553 C1562 0.929 . S
C1554 H1548 0.930 . S
C1554 C1555 1.367 . S
C1554 C1562 1.378 . S
C1555 C1554 1.367 . S
C1555 C1563 1.433 . S
C1556 H1552 0.929 . S
C1556 C1558 1.378 . S
C1556 C1560 1.350 . S
C1557 C1560 1.463 . S
C1557 C1562 1.350 . S
C1557 N1565 1.427 . S
C1558 H1549 0.930 . S
C1558 C1556 1.378 . S
C1558 C1559 1.367 . S
C1559 C1558 1.367 . S
C1559 C1561 1.433 . S
C1560 C1556 1.350 . S
C1560 C1557 1.463 . S
C1560 N1564 1.427 . S
C1561 H1551 0.929 . S
C1561 C1559 1.433 . S
C1561 N1564 1.384 . S
C1562 H1553 0.929 . S
C1562 C1554 1.378 . S
C1562 C1557 1.350 . S
C1563 H1550 0.929 . S
C1563 C1555 1.433 . S
C1563 N1565 1.384 . S
N1564 C1560 1.427 . S
N1564 C1561 1.384 . S
N1565 C1557 1.427 . S
N1565 C1563 1.384 . S
H1566 C1572 0.930 . S
H1567 C1576 0.930 . S
H1568 C1581 0.929 . S
H1569 C1579 0.929 . S
H1570 C1574 0.929 . S
H1571 C1580 0.929 . S
C1572 H1566 0.930 . S
C1572 C1573 1.367 . S
C1572 C1580 1.378 . S
C1573 C1572 1.367 . S
C1573 C1581 1.433 . S
C1574 H1570 0.929 . S
C1574 C1576 1.378 . S
C1574 C1578 1.350 . S
C1575 C1578 1.463 . S
C1575 C1580 1.350 . S
C1575 N1583 1.427 . S
C1576 H1567 0.930 . S
C1576 C1574 1.378 . S
C1576 C1577 1.367 . S
C1577 C1576 1.367 . S
C1577 C1579 1.433 . S
C1578 C1574 1.350 . S
C1578 C1575 1.463 . S
C1578 N1582 1.427 . S
C1579 H1569 0.929 . S
C1579 C1577 1.433 . S
C1579 N1582 1.384 . S
C1580 H1571 0.929 . S
C1580 C1572 1.378 . S
C1580 C1575 1.350 . S
C1581 H1568 0.929 . S
C1581 C1573 1.433 . S
C1581 N1583 1.384 . S
N1582 C1578 1.427 . S
N1582 C1579 1.384 . S
N1583 C1575 1.427 . S
N1583 C1581 1.384 . S
H1584 C1590 0.930 . S
H1585 C1594 0.930 . S
H1586 C1599 0.929 . S
H1587 C1597 0.929 . S
H1588 C1592 0.929 . S
H1589 C1598 0.929 . S
C1590 H1584 0.930 . S
C1590 C1591 1.367 . S
C1590 C1598 1.378 . S
C1591 C1590 1.367 . S
C1591 C1599 1.433 . S
C1592 H1588 0.929 . S
C1592 C1594 1.378 . S
C1592 C1596 1.350 . S
C1593 C1596 1.463 . S
C1593 C1598 1.350 . S
C1593 N1601 1.427 . S
C1594 H1585 0.930 . S
C1594 C1592 1.378 . S
C1594 C1595 1.367 . S
C1595 C1594 1.367 . S
C1595 C1597 1.433 . S
C1596 C1592 1.350 . S
C1596 C1593 1.463 . S
C1596 N1600 1.427 . S
C1597 H1587 0.929 . S
C1597 C1595 1.433 . S
C1597 N1600 1.384 . S
C1598 H1589 0.929 . S
C1598 C1590 1.378 . S
C1598 C1593 1.350 . S
C1599 H1586 0.929 . S
C1599 C1591 1.433 . S
C1599 N1601 1.384 . S
N1600 C1596 1.427 . S
N1600 C1597 1.384 . S
N1601 C1593 1.427 . S
N1601 C1599 1.384 . S
H1602 C1608 0.930 . S
H1603 C1612 0.930 . S
H1604 C1617 0.929 . S
H1605 C1615 0.929 . S
H1606 C1610 0.929 . S
H1607 C1616 0.929 . S
C1608 H1602 0.930 . S
C1608 C1609 1.367 . S
C1608 C1616 1.378 . S
C1609 C1608 1.367 . S
C1609 C1617 1.433 . S
C1610 H1606 0.929 . S
C1610 C1612 1.378 . S
C1610 C1614 1.350 . S
C1611 C1614 1.463 . S
C1611 C1616 1.350 . S
C1611 N1619 1.427 . S
C1612 H1603 0.930 . S
C1612 C1610 1.378 . S
C1612 C1613 1.367 . S
C1613 C1612 1.367 . S
C1613 C1615 1.433 . S
C1614 C1610 1.350 . S
C1614 C1611 1.463 . S
C1614 N1618 1.427 . S
C1615 H1605 0.929 . S
C1615 C1613 1.433 . S
C1615 N1618 1.384 . S
C1616 H1607 0.929 . S
C1616 C1608 1.378 . S
C1616 C1611 1.350 . S
C1617 H1604 0.929 . S
C1617 C1609 1.433 . S
C1617 N1619 1.384 . S
N1618 C1614 1.427 . S
N1618 C1615 1.384 . S
N1619 C1611 1.427 . S
N1619 C1617 1.384 . S
H1620 C1626 0.930 . S
H1621 C1630 0.930 . S
H1622 C1635 0.929 . S
H1623 C1633 0.929 . S
H1624 C1628 0.929 . S
H1625 C1634 0.929 . S
C1626 H1620 0.930 . S
C1626 C1627 1.367 . S
C1626 C1634 1.378 . S
C1627 C1626 1.367 . S
C1627 C1635 1.433 . S
C1628 H1624 0.929 . S
C1628 C1630 1.378 . S
C1628 C1632 1.350 . S
C1629 C1632 1.463 . S
C1629 C1634 1.350 . S
C1629 N1637 1.427 . S
C1630 H1621 0.930 . S
C1630 C1628 1.378 . S
C1630 C1631 1.367 . S
C1631 C1630 1.367 . S
C1631 C1633 1.433 . S
C1632 C1628 1.350 . S
C1632 C1629 1.463 . S
C1632 N1636 1.427 . S
C1633 H1623 0.929 . S
C1633 C1631 1.433 . S
C1633 N1636 1.384 . S
C1634 H1625 0.929 . S
C1634 C1626 1.378 . S
C1634 C1629 1.350 . S
C1635 H1622 0.929 . S
C1635 C1627 1.433 . S
C1635 N1637 1.384 . S
N1636 C1632 1.427 . S
N1636 C1633 1.384 . S
N1637 C1629 1.427 . S
N1637 C1635 1.384 . S
H1638 C1644 0.930 . S
H1639 C1648 0.930 . S
H1640 C1653 0.929 . S
H1641 C1651 0.929 . S
H1642 C1646 0.929 . S
H1643 C1652 0.929 . S
C1644 H1638 0.930 . S
C1644 C1645 1.367 . S
C1644 C1652 1.378 . S
C1645 C1644 1.367 . S
C1645 C1653 1.433 . S
C1646 H1642 0.929 . S
C1646 C1648 1.378 . S
C1646 C1650 1.350 . S
C1647 C1650 1.463 . S
C1647 C1652 1.350 . S
C1647 N1655 1.427 . S
C1648 H1639 0.930 . S
C1648 C1646 1.378 . S
C1648 C1649 1.367 . S
C1649 C1648 1.367 . S
C1649 C1651 1.433 . S
C1650 C1646 1.350 . S
C1650 C1647 1.463 . S
C1650 N1654 1.427 . S
C1651 H1641 0.929 . S
C1651 C1649 1.433 . S
C1651 N1654 1.384 . S
C1652 H1643 0.929 . S
C1652 C1644 1.378 . S
C1652 C1647 1.350 . S
C1653 H1640 0.929 . S
C1653 C1645 1.433 . S
C1653 N1655 1.384 . S
N1654 C1650 1.427 . S
N1654 C1651 1.384 . S
N1655 C1647 1.427 . S
N1655 C1653 1.384 . S
H1656 C1662 0.930 . S
H1657 C1666 0.930 . S
H1658 C1671 0.929 . S
H1659 C1669 0.929 . S
H1660 C1664 0.929 . S
H1661 C1670 0.929 . S
C1662 H1656 0.930 . S
C1662 C1663 1.367 . S
C1662 C1670 1.378 . S
C1663 C1662 1.367 . S
C1663 C1671 1.433 . S
C1664 H1660 0.929 . S
C1664 C1666 1.378 . S
C1664 C1668 1.350 . S
C1665 C1668 1.463 . S
C1665 C1670 1.350 . S
C1665 N1673 1.427 . S
C1666 H1657 0.930 . S
C1666 C1664 1.378 . S
C1666 C1667 1.367 . S
C1667 C1666 1.367 . S
C1667 C1669 1.433 . S
C1668 C1664 1.350 . S
C1668 C1665 1.463 . S
C1668 N1672 1.427 . S
C1669 H1659 0.929 . S
C1669 C1667 1.433 . S
C1669 N1672 1.384 . S
C1670 H1661 0.929 . S
C1670 C1662 1.378 . S
C1670 C1665 1.350 . S
C1671 H1658 0.929 . S
C1671 C1663 1.433 . S
C1671 N1673 1.384 . S
N1672 C1668 1.427 . S
N1672 C1669 1.384 . S
N1673 C1665 1.427 . S
N1673 C1671 1.384 . S
H1674 C1680 0.930 . S
H1675 C1684 0.930 . S
H1676 C1689 0.929 . S
H1677 C1687 0.929 . S
H1678 C1682 0.929 . S
H1679 C1688 0.929 . S
C1680 H1674 0.930 . S
C1680 C1681 1.367 . S
C1680 C1688 1.378 . S
C1681 C1680 1.367 . S
C1681 C1689 1.433 . S
C1682 H1678 0.929 . S
C1682 C1684 1.378 . S
C1682 C1686 1.350 . S
C1683 C1686 1.463 . S
C1683 C1688 1.350 . S
C1683 N1691 1.427 . S
C1684 H1675 0.930 . S
C1684 C1682 1.378 . S
C1684 C1685 1.367 . S
C1685 C1684 1.367 . S
C1685 C1687 1.433 . S
C1686 C1682 1.350 . S
C1686 C1683 1.463 . S
C1686 N1690 1.427 . S
C1687 H1677 0.929 . S
C1687 C1685 1.433 . S
C1687 N1690 1.384 . S
C1688 H1679 0.929 . S
C1688 C1680 1.378 . S
C1688 C1683 1.350 . S
C1689 H1676 0.929 . S
C1689 C1681 1.433 . S
C1689 N1691 1.384 . S
N1690 C1686 1.427 . S
N1690 C1687 1.384 . S
N1691 C1683 1.427 . S
N1691 C1689 1.384 . S
H1692 C1698 0.930 . S
H1693 C1702 0.930 . S
H1694 C1707 0.929 . S
H1695 C1705 0.929 . S
H1696 C1700 0.929 . S
H1697 C1706 0.929 . S
C1698 H1692 0.930 . S
C1698 C1699 1.367 . S
C1698 C1706 1.378 . S
C1699 C1698 1.367 . S
C1699 C1707 1.433 . S
C1700 H1696 0.929 . S
C1700 C1702 1.378 . S
C1700 C1704 1.350 . S
C1701 C1704 1.463 . S
C1701 C1706 1.350 . S
C1701 N1709 1.427 . S
C1702 H1693 0.930 . S
C1702 C1700 1.378 . S
C1702 C1703 1.367 . S
C1703 C1702 1.367 . S
C1703 C1705 1.433 . S
C1704 C1700 1.350 . S
C1704 C1701 1.463 . S
C1704 N1708 1.427 . S
C1705 H1695 0.929 . S
C1705 C1703 1.433 . S
C1705 N1708 1.384 . S
C1706 H1697 0.929 . S
C1706 C1698 1.378 . S
C1706 C1701 1.350 . S
C1707 H1694 0.929 . S
C1707 C1699 1.433 . S
C1707 N1709 1.384 . S
N1708 C1704 1.427 . S
N1708 C1705 1.384 . S
N1709 C1701 1.427 . S
N1709 C1707 1.384 . S
H1710 C1716 0.930 . S
H1711 C1720 0.930 . S
H1712 C1725 0.929 . S
H1713 C1723 0.929 . S
H1714 C1718 0.929 . S
H1715 C1724 0.929 . S
C1716 H1710 0.930 . S
C1716 C1717 1.367 . S
C1716 C1724 1.378 . S
C1717 C1716 1.367 . S
C1717 C1725 1.433 . S
C1718 H1714 0.929 . S
C1718 C1720 1.378 . S
C1718 C1722 1.350 . S
C1719 C1722 1.463 . S
C1719 C1724 1.350 . S
C1719 N1727 1.427 . S
C1720 H1711 0.930 . S
C1720 C1718 1.378 . S
C1720 C1721 1.367 . S
C1721 C1720 1.367 . S
C1721 C1723 1.433 . S
C1722 C1718 1.350 . S
C1722 C1719 1.463 . S
C1722 N1726 1.427 . S
C1723 H1713 0.929 . S
C1723 C1721 1.433 . S
C1723 N1726 1.384 . S
C1724 H1715 0.929 . S
C1724 C1716 1.378 . S
C1724 C1719 1.350 . S
C1725 H1712 0.929 . S
C1725 C1717 1.433 . S
C1725 N1727 1.384 . S
N1726 C1722 1.427 . S
N1726 C1723 1.384 . S
N1727 C1719 1.427 . S
N1727 C1725 1.384 . S
H1728 C1734 0.930 . S
H1729 C1738 0.930 . S
H1730 C1743 0.929 . S
H1731 C1741 0.929 . S
H1732 C1736 0.929 . S
H1733 C1742 0.929 . S
C1734 H1728 0.930 . S
C1734 C1735 1.367 . S
C1734 C1742 1.378 . S
C1735 C1734 1.367 . S
C1735 C1743 1.433 . S
C1736 H1732 0.929 . S
C1736 C1738 1.378 . S
C1736 C1740 1.350 . S
C1737 C1740 1.463 . S
C1737 C1742 1.350 . S
C1737 N1745 1.427 . S
C1738 H1729 0.930 . S
C1738 C1736 1.378 . S
C1738 C1739 1.367 . S
C1739 C1738 1.367 . S
C1739 C1741 1.433 . S
C1740 C1736 1.350 . S
C1740 C1737 1.463 . S
C1740 N1744 1.427 . S
C1741 H1731 0.929 . S
C1741 C1739 1.433 . S
C1741 N1744 1.384 . S
C1742 H1733 0.929 . S
C1742 C1734 1.378 . S
C1742 C1737 1.350 . S
C1743 H1730 0.929 . S
C1743 C1735 1.433 . S
C1743 N1745 1.384 . S
N1744 C1740 1.427 . S
N1744 C1741 1.384 . S
N1745 C1737 1.427 . S
N1745 C1743 1.384 . S
H1746 C1752 0.930 . S
H1747 C1756 0.930 . S
H1748 C1761 0.929 . S
H1749 C1759 0.929 . S
H1750 C1754 0.929 . S
H1751 C1760 0.929 . S
C1752 H1746 0.930 . S
C1752 C1753 1.367 . S
C1752 C1760 1.378 . S
C1753 C1752 1.367 . S
C1753 C1761 1.433 . S
C1754 H1750 0.929 . S
C1754 C1756 1.378 . S
C1754 C1758 1.350 . S
C1755 C1758 1.463 . S
C1755 C1760 1.350 . S
C1755 N1763 1.427 . S
C1756 H1747 0.930 . S
C1756 C1754 1.378 . S
C1756 C1757 1.367 . S
C1757 C1756 1.367 . S
C1757 C1759 1.433 . S
C1758 C1754 1.350 . S
C1758 C1755 1.463 . S
C1758 N1762 1.427 . S
C1759 H1749 0.929 . S
C1759 C1757 1.433 . S
C1759 N1762 1.384 . S
C1760 H1751 0.929 . S
C1760 C1752 1.378 . S
C1760 C1755 1.350 . S
C1761 H1748 0.929 . S
C1761 C1753 1.433 . S
C1761 N1763 1.384 . S
N1762 C1758 1.427 . S
N1762 C1759 1.384 . S
N1763 C1755 1.427 . S
N1763 C1761 1.384 . S
H1764 C1770 0.930 . S
H1765 C1774 0.930 . S
H1766 C1779 0.929 . S
H1767 C1777 0.929 . S
H1768 C1772 0.929 . S
H1769 C1778 0.929 . S
C1770 H1764 0.930 . S
C1770 C1771 1.367 . S
C1770 C1778 1.378 . S
C1771 C1770 1.367 . S
C1771 C1779 1.433 . S
C1772 H1768 0.929 . S
C1772 C1774 1.378 . S
C1772 C1776 1.350 . S
C1773 C1776 1.463 . S
C1773 C1778 1.350 . S
C1773 N1781 1.427 . S
C1774 H1765 0.930 . S
C1774 C1772 1.378 . S
C1774 C1775 1.367 . S
C1775 C1774 1.367 . S
C1775 C1777 1.433 . S
C1776 C1772 1.350 . S
C1776 C1773 1.463 . S
C1776 N1780 1.427 . S
C1777 H1767 0.929 . S
C1777 C1775 1.433 . S
C1777 N1780 1.384 . S
C1778 H1769 0.929 . S
C1778 C1770 1.378 . S
C1778 C1773 1.350 . S
C1779 H1766 0.929 . S
C1779 C1771 1.433 . S
C1779 N1781 1.384 . S
N1780 C1776 1.427 . S
N1780 C1777 1.384 . S
N1781 C1773 1.427 . S
N1781 C1779 1.384 . S
H1782 C1788 0.930 . S
H1783 C1792 0.930 . S
H1784 C1797 0.929 . S
H1785 C1795 0.929 . S
H1786 C1790 0.929 . S
H1787 C1796 0.929 . S
C1788 H1782 0.930 . S
C1788 C1789 1.367 . S
C1788 C1796 1.378 . S
C1789 C1788 1.367 . S
C1789 C1797 1.433 . S
C1790 H1786 0.929 . S
C1790 C1792 1.378 . S
C1790 C1794 1.350 . S
C1791 C1794 1.463 . S
C1791 C1796 1.350 . S
C1791 N1799 1.427 . S
C1792 H1783 0.930 . S
C1792 C1790 1.378 . S
C1792 C1793 1.367 . S
C1793 C1792 1.367 . S
C1793 C1795 1.433 . S
C1794 C1790 1.350 . S
C1794 C1791 1.463 . S
C1794 N1798 1.427 . S
C1795 H1785 0.929 . S
C1795 C1793 1.433 . S
C1795 N1798 1.384 . S
C1796 H1787 0.929 . S
C1796 C1788 1.378 . S
C1796 C1791 1.350 . S
C1797 H1784 0.929 . S
C1797 C1789 1.433 . S
C1797 N1799 1.384 . S
N1798 C1794 1.427 . S
N1798 C1795 1.384 . S
N1799 C1791 1.427 . S
N1799 C1797 1.384 . S
C511 C7 1.444 . S
C515 C259 1.444 . S
C529 C273 1.447 . S
C533 C21 1.447 . S
C547 C287 1.446 . S
C551 C35 1.446 . S
C565 C49 1.445 . S
C569 C469 1.445 . S
C583 C63 1.451 . S
C587 C483 1.451 . S
C601 C77 1.453 . S
C605 C497 1.453 . S
C619 C343 1.442 . S
C623 C91 1.442 . S
C637 C105 1.450 . S
C641 C357 1.450 . S
C655 C119 1.442 . S
C659 C371 1.442 . S
C673 C217 1.454 . S
C677 C133 1.454 . S
C691 C231 1.450 . S
C695 C147 1.450 . S
C709 C245 1.449 . S
C713 C161 1.449 . S
C727 C427 1.445 . S
C731 C175 1.445 . S
C745 C441 1.452 . S
C749 C189 1.452 . S
C763 C203 1.451 . S
C767 C455 1.451 . S
C781 C385 1.452 . S
C785 C301 1.452 . S
C799 C315 1.444 . S
C803 C399 1.444 . S
C817 C329 1.454 . S
C821 C413 1.454 . S
C835 C6 1.461 1_565 S
C839 C384 1.462 . S
C853 C398 1.454 . S
C857 C20 1.453 1_455 S
C871 C412 1.455 . S
C875 C34 1.457 . S
C889 C174 1.455 . S
C893 C48 1.458 1_655 S
C907 C188 1.462 . S
C911 C62 1.462 . S
C925 C202 1.461 . S
C929 C76 1.459 1_545 S
C943 C90 1.461 1_545 S
C947 C300 1.459 . S
C961 C314 1.461 . S
C965 C104 1.458 1_655 S
C979 C328 1.456 . S
C983 C118 1.454 . S
C997 C132 1.454 1_455 S
C1001 C426 1.456 . S
C1015 C146 1.461 . S
C1019 C440 1.458 . S
C1033 C160 1.454 1_565 S
C1037 C454 1.456 . S
C1051 C216 1.454 . S
C1055 C342 1.454 . S
C1069 C230 1.457 . S
C1073 C356 1.454 . S
C1087 C244 1.453 . S
C1091 C370 1.453 . S
C1105 C258 1.454 . S
C1109 C468 1.454 . S
C1123 C482 1.453 . S
C1127 C272 1.455 . S
C1141 C286 1.461 . S
C1145 C496 1.460 . S
C1159 C22 1.194 . S
C1163 C9 1.190 . S
C1177 C23 1.179 . S
C1181 C36 1.184 . S
C1195 C37 1.191 . S
C1199 C8 1.196 . S
C1213 C51 1.175 . S
C1217 C78 1.184 . S
C1231 C50 1.188 . S
C1235 C65 1.186 . S
C1249 C79 1.174 . S
C1253 C64 1.187 . S
C1267 C93 1.183 . S
C1271 C106 1.186 . S
C1285 C107 1.174 . S
C1289 C120 1.188 . S
C1303 C121 1.174 . S
C1307 C92 1.186 . S
C1321 C162 1.193 . S
C1325 C135 1.190 . S
C1339 C149 1.176 . S
C1343 C134 1.184 . S
C1357 C148 1.198 . S
C1361 C163 1.189 . S
C1375 C190 1.184 . S
C1379 C177 1.178 . S
C1393 C204 1.198 . S
C1397 C191 1.190 . S
C1411 C176 1.187 . S
C1415 C205 1.174 . S
C1429 C219 1.178 . S
C1433 C246 1.184 . S
C1447 C233 1.174 . S
C1451 C218 1.185 . S
C1465 C247 1.178 . S
C1469 C232 1.194 . S
C1483 C274 1.187 . S
C1487 C261 1.174 . S
C1501 C275 1.189 . S
C1505 C288 1.191 . S
C1519 C289 1.190 . S
C1523 C260 1.197 . S
C1537 C303 1.182 . S
C1541 C330 1.197 . S
C1555 C317 1.174 . S
C1559 C302 1.185 . S
C1573 C316 1.193 . S
C1577 C331 1.190 . S
C1591 C358 1.193 . S
C1595 C345 1.190 . S
C1609 C359 1.187 . S
C1613 C372 1.199 . S
C1627 C344 1.188 . S
C1631 C373 1.174 . S
C1645 C387 1.174 . S
C1649 C414 1.186 . S
C1663 C401 1.174 . S
C1667 C386 1.186 . S
C1681 C415 1.175 . S
C1685 C400 1.184 . S
C1699 C429 1.186 . S
C1703 C442 1.199 . S
C1717 C443 1.188 . S
C1721 C456 1.190 . S
C1735 C457 1.191 . S
C1739 C428 1.197 . S
C1753 C471 1.174 . S
C1757 C498 1.186 . S
C1771 C485 1.176 . S
C1775 C470 1.192 . S
C1789 C484 1.186 . S
C1793 C499 1.182 . S
