# Generated by pormake.
# Topology smu, (6)-cn, num edge types: 1
# Building blocks:
#     Node 0, Type 0, BuildingBlock: MIDCAF_clean_sbu_0, # of connection points: 6
#     Node 1, Type 0, BuildingBlock: MIDCAF_clean_sbu_0, # of connection points: 6
#     Node 2, Type 0, BuildingBlock: MIDCAF_clean_sbu_0, # of connection points: 6
#     Node 3, Type 0, BuildingBlock: MIDCAF_clean_sbu_0, # of connection points: 6
#     Node 4, Type 0, BuildingBlock: MIDCAF_clean_sbu_0, # of connection points: 6
#     Node 5, Type 0, BuildingBlock: MIDCAF_clean_sbu_0, # of connection points: 6
#     Edge 6, Type (0, 0), BuildingBlock: KIFKEQ_clean_linker_1, # of connection points: 2
#     Edge 7, Type (0, 0), BuildingBlock: KIFKEQ_clean_linker_1, # of connection points: 2
#     Edge 8, Type (0, 0), BuildingBlock: KIFKEQ_clean_linker_1, # of connection points: 2
#     Edge 9, Type (0, 0), BuildingBlock: KIFKEQ_clean_linker_1, # of connection points: 2
#     Edge 10, Type (0, 0), BuildingBlock: KIFKEQ_clean_linker_1, # of connection points: 2
#     Edge 11, Type (0, 0), BuildingBlock: KIFKEQ_clean_linker_1, # of connection points: 2
#     Edge 12, Type (0, 0), BuildingBlock: KIFKEQ_clean_linker_1, # of connection points: 2
#     Edge 13, Type (0, 0), BuildingBlock: KIFKEQ_clean_linker_1, # of connection points: 2
#     Edge 14, Type (0, 0), BuildingBlock: KIFKEQ_clean_linker_1, # of connection points: 2
#     Edge 15, Type (0, 0), BuildingBlock: KIFKEQ_clean_linker_1, # of connection points: 2
#     Edge 16, Type (0, 0), BuildingBlock: KIFKEQ_clean_linker_1, # of connection points: 2
#     Edge 17, Type (0, 0), BuildingBlock: KIFKEQ_clean_linker_1, # of connection points: 2
#     Edge 18, Type (0, 0), BuildingBlock: KIFKEQ_clean_linker_1, # of connection points: 2
#     Edge 19, Type (0, 0), BuildingBlock: KIFKEQ_clean_linker_1, # of connection points: 2
#     Edge 20, Type (0, 0), BuildingBlock: KIFKEQ_clean_linker_1, # of connection points: 2
#     Edge 21, Type (0, 0), BuildingBlock: KIFKEQ_clean_linker_1, # of connection points: 2
#     Edge 22, Type (0, 0), BuildingBlock: KIFKEQ_clean_linker_1, # of connection points: 2
#     Edge 23, Type (0, 0), BuildingBlock: KIFKEQ_clean_linker_1, # of connection points: 2
# Relax obj value: 0.355
# Max RMSD: 0.260
# Mean RMSD: 0.260
data_MOF--net-smu--node1-MIDCAF_clean_sbu_0--edge1-KIFKEQ_clean_linker_1
_symmetry_space_group_name_H-M    P1
_symmetry_Int_Tables_number       1
_symmetry_cell_setting            triclinic
loop_
_symmetry_equiv_pos_as_xyz
'x, y, z'
_cell_length_a     28.526942
_cell_length_b     28.659497
_cell_length_c     30.217021
_cell_angle_alpha  89.556381
_cell_angle_beta   90.032314
_cell_angle_gamma 119.63953
loop_
_atom_site_label
_atom_site_type_symbol
_atom_site_fract_x
_atom_site_fract_y
_atom_site_fract_z
_atom_type_partial_charge
Zn0 Zn 0.24639 0.06316 0.22405 0.0
Zn1 Zn 0.39997 0.12778 0.32169 0.0
Zn2 Zn 0.32159 0.09373 0.27378 0.0
C3 C 0.42419 0.08004 0.25666 0.0
C4 C 0.31841 0.06931 0.37868 0.0
O5 O 0.29434 0.15564 0.26773 0.0
O6 O 0.21388 0.10817 0.23774 0.0
C7 C 0.32439 0.07054 0.17067 0.0
O8 O 0.38666 0.08716 0.23991 0.0
O9 O 0.43158 0.08398 0.29805 0.0
O10 O 0.364 0.11117 0.38102 0.0
O11 O 0.29772 0.05142 0.34025 0.0
O12 O 0.28414 0.07724 0.1666 0.0
O13 O 0.3423 0.06948 0.20963 0.0
O14 O 0.26174 0.02167 0.30776 0.0
O15 O 0.213 -0.01175 0.24753 0.0
C16 C 0.22442 0.98196 0.2867 0.0
O17 O 0.34824 0.17895 0.27528 0.0
O18 O 0.43113 0.20118 0.29449 0.0
C19 C 0.24888 0.15111 0.25539 0.0
C20 C 0.39847 0.21422 0.27807 0.0
Zn21 Zn 0.80334 0.73731 0.2036 0.0
Zn22 Zn 0.7264 0.58302 0.30305 0.0
Zn23 Zn 0.75994 0.65995 0.2566 0.0
C24 C 0.64262 0.56761 0.24985 0.0
C25 C 0.75188 0.66551 0.3591 0.0
O26 O 0.84474 0.68241 0.25208 0.0
O27 O 0.88001 0.76188 0.2192 0.0
C28 C 0.72973 0.65427 0.15331 0.0
O29 O 0.6837 0.60038 0.22654 0.0
O30 O 0.64932 0.55878 0.28968 0.0
O31 O 0.75545 0.62331 0.35909 0.0
O32 O 0.74503 0.68409 0.32212 0.0
O33 O 0.77412 0.69701 0.14805 0.0
O34 O 0.71299 0.6361 0.19279 0.0
O35 O 0.75754 0.72615 0.2905 0.0
O36 O 0.76835 0.77608 0.23129 0.0
C37 C 0.75753 0.7667 0.27207 0.0
O38 O 0.81805 0.62913 0.26019 0.0
O39 O 0.76201 0.54429 0.2762 0.0
C40 C 0.88604 0.72695 0.24012 0.0
C41 C 0.80814 0.58023 0.26355 0.0
Zn42 Zn 0.9295 0.18685 0.21336 0.0
Zn43 Zn 0.84331 0.2769 0.29725 0.0
Zn44 Zn 0.89795 0.24196 0.25623 0.0
C45 C 0.94671 0.36413 0.2734 0.0
C46 C 0.85558 0.21427 0.35872 0.0
O47 O 0.8782 0.16828 0.295 0.0
O48 O 0.891 0.11846 0.2462 0.0
C49 C 0.88195 0.21638 0.15012 0.0
O50 O 0.958 0.32753 0.26239 0.0
O51 O 0.90009 0.35154 0.2871 0.0
O52 O 0.83806 0.24691 0.35682 0.0
O53 O 0.87445 0.20415 0.32345 0.0
O54 O 0.90995 0.1935 0.15201 0.0
O55 O 0.86896 0.23143 0.18608 0.0
O56 O 0.98555 0.29733 0.25546 0.0
O57 O 0.00474 0.23594 0.23142 0.0
C58 C 0.02002 0.28198 0.24705 0.0
O59 O 0.82764 0.22638 0.21447 0.0
O60 O 0.77917 0.24689 0.25904 0.0
C61 C 0.87518 0.12356 0.2839 0.0
C62 C 0.78413 0.22787 0.22296 0.0
Zn63 Zn -0.00619 0.2228 0.80082 0.0
Zn64 Zn 0.08182 0.38254 0.70427 0.0
Zn65 Zn 0.03938 0.30284 0.75566 0.0
C66 C 0.02512 0.40412 0.76774 0.0
C67 C 0.02065 0.30071 0.6496 0.0
O68 O 0.10128 0.28059 0.76772 0.0
O69 O 0.04415 0.19634 0.78545 0.0
C70 C -0.00628 0.29544 0.85457 0.0
O71 O 0.02611 0.36421 0.78656 0.0
O72 O 0.03883 0.41495 0.72756 0.0
O73 O 0.06222 0.34631 0.64561 0.0
O74 O 0.00384 0.28044 0.68848 0.0
O75 O -0.00392 0.25296 0.8596 0.0
O76 O 0.00358 0.31865 0.81627 0.0
O77 O 0.97662 0.23547 0.71696 0.0
O78 O 0.92291 0.18439 0.77049 0.0
C79 C 0.93223 0.19442 0.72973 0.0
O80 O 0.12792 0.33401 0.75857 0.0
O81 O 0.15729 0.41372 0.72751 0.0
C82 C 0.09089 0.23201 0.77402 0.0
C83 C 0.1668 0.38131 0.74892 0.0
Zn84 Zn 0.30308 0.8597 0.74171 0.0
Zn85 Zn 0.17645 0.88269 0.83304 0.0
Zn86 Zn 0.24234 0.89629 0.78475 0.0
C87 C 0.21392 0.98046 0.78321 0.0
C88 C 0.25989 0.9125 0.88288 0.0
O89 O 0.19982 0.81314 0.7999 0.0
O90 O 0.25192 0.7857 0.76881 0.0
C91 C 0.254 0.90662 0.6807 0.0
O92 O 0.22033 0.95127 0.75435 0.0
O93 O 0.1991 0.9618 0.82204 0.0
O94 O 0.21537 0.86873 0.88384 0.0
O95 O 0.27449 0.93885 0.8465 0.0
O96 O 0.27938 0.88069 0.685 0.0
O97 O 0.23548 0.91897 0.71529 0.0
O98 O 0.32978 0.92619 0.78696 0.0
O99 O 0.33055 0.92596 0.78661 0.0
C100 C 0.37361 0.95897 0.80606 0.0
O101 O 0.17753 0.88945 0.74027 0.0
O102 O 0.12059 0.83168 0.78932 0.0
C103 C 0.21051 0.77593 0.79154 0.0
C104 C 0.12987 0.8511 0.75032 0.0
Zn105 Zn 0.57063 0.70368 0.71844 0.0
Zn106 Zn 0.70353 0.76956 0.81749 0.0
Zn107 Zn 0.64103 0.72146 0.7658 0.0
C108 C 0.75655 0.74023 0.75729 0.0
C109 C 0.63156 0.68285 0.86025 0.0
O110 O 0.61372 0.77526 0.7893 0.0
O111 O 0.56843 0.77071 0.72931 0.0
C112 C 0.65185 0.71705 0.66139 0.0
O113 O 0.71956 0.74225 0.73412 0.0
O114 O 0.75361 0.74087 0.79909 0.0
O115 O 0.64946 0.73245 0.86624 0.0
O116 O 0.63286 0.66676 0.82089 0.0
O117 O 0.60158 0.699 0.66199 0.0
O118 O 0.67853 0.73222 0.69807 0.0
O119 O 0.58811 0.63581 0.77987 0.0
O120 O 0.51861 0.63475 0.74693 0.0
C121 C 0.53789 0.61129 0.76993 0.0
O122 O 0.70396 0.78763 0.72579 0.0
O123 O 0.71679 0.8369 0.78499 0.0
C124 C 0.5888 0.79289 0.76562 0.0
C125 C 0.71946 0.83394 0.74327 0.0
H126 H 0.23935 0.86605 0.9651 0.0
H127 H 0.34912 0.0113 0.89446 0.0
H128 H 0.27826 0.9096 0.03497 0.0
H129 H 0.38852 0.05481 0.96463 0.0
H130 H 0.34143 0.12024 0.09142 0.0
H131 H 0.34555 0.08346 0.02035 0.0
H132 H 0.35524 0.95459 0.08703 0.0
H133 H 0.35135 -0.00777 0.15878 0.0
C134 C 0.27266 0.9069 0.9644 0.0
C135 C 0.29028 0.93557 0.92427 0.0
C136 C 0.29542 0.93174 1.00452 0.0
C137 C 0.33622 0.98589 1.00544 0.0
C138 C 0.35674 0.01323 0.96504 0.0
C139 C 0.33411 -0.01172 0.92485 0.0
C140 C 0.34671 0.08531 0.09088 0.0
C141 C 0.34552 0.0587 0.13039 0.0
C142 C 0.34922 0.06421 0.0501 0.0
C143 C 0.34983 0.01555 0.04797 0.0
C144 C 0.35412 -0.00819 0.08767 0.0
C145 C 0.35241 0.01354 0.12869 0.0
H146 H 0.60656 0.71121 0.58163 0.0
H147 H 0.75457 0.73598 0.64139 0.0
H148 H 0.64195 0.71254 0.50934 0.0
H149 H 0.79222 0.74059 0.56742 0.0
H150 H 0.79253 0.65328 0.4369 0.0
H151 H 0.77908 0.67886 0.51016 0.0
H152 H 0.70104 0.76099 0.45195 0.0
H153 H 0.71085 0.73148 0.37881 0.0
C154 C 0.64738 0.71799 0.57938 0.0
C155 C 0.67777 0.72329 0.6176 0.0
C156 C 0.66811 0.71965 0.53747 0.0
C157 C 0.72026 0.7272 0.53214 0.0
C158 C 0.75171 0.73444 0.57027 0.0
C159 C 0.73052 0.73236 0.61267 0.0
C160 C 0.77303 0.67736 0.43971 0.0
C161 C 0.75243 0.69013 0.40206 0.0
C162 C 0.76593 0.69266 0.4818 0.0
C163 C 0.73831 0.72143 0.48725 0.0
C164 C 0.72151 0.73784 0.44914 0.0
C165 C 0.72785 0.72172 0.40705 0.0
H166 H 0.90895 0.3179 0.12612 0.0
H167 H 0.84436 0.15762 0.07528 0.0
H168 H 0.92949 0.35421 0.05037 0.0
H169 H 0.86254 0.19348 0.99975 0.0
H170 H 0.04603 0.35274 0.92719 0.0
H171 H 0.00338 0.34299 0.99956 0.0
H172 H 0.84652 0.25468 0.93931 0.0
H173 H 0.88936 0.26596 0.86683 0.0
C174 C 0.89637 0.29027 0.09863 0.0
C175 C 0.87462 0.23491 0.10637 0.0
C176 C 0.9086 0.31111 0.0554 0.0
C177 C 0.8976 0.27666 0.01928 0.0
C178 C 0.87087 0.22091 0.02693 0.0
C179 C 0.86022 0.20029 0.07011 0.0
C180 C 0.00252 0.33435 0.9291 0.0
C181 C 0.97091 0.31093 0.89149 0.0
C182 C 0.97803 0.32841 0.97052 0.0
C183 C 0.92162 0.29778 0.97499 0.0
C184 C 0.89001 0.27864 0.93671 0.0
C185 C 0.91451 0.28557 0.89522 0.0
H186 H 0.25649 0.96064 0.39347 0.0
H187 H 0.32175 0.11368 0.45846 0.0
H188 H 0.22715 0.91485 0.46554 0.0
H189 H 0.29167 0.06818 0.52999 0.0
H190 H 0.20478 0.96411 0.65236 0.0
H191 H 0.20797 0.00031 0.57768 0.0
H192 H 0.28851 0.91684 0.52968 0.0
H193 H 0.28787 0.88344 0.60372 0.0
C194 C 0.26313 0.98439 0.42291 0.0
C195 C 0.29168 0.04072 0.42035 0.0
C196 C 0.2466 0.95825 0.46418 0.0
C197 C 0.25719 -0.01205 0.50349 0.0
C198 C 0.28246 0.04414 0.5004 0.0
C199 C 0.29999 0.07019 0.45941 0.0
C200 C 0.22368 0.9542 0.62604 0.0
C201 C 0.24784 0.92267 0.63479 0.0
C202 C 0.22493 0.97427 0.58314 0.0
C203 C 0.24871 0.96156 0.54778 0.0
C204 C 0.26955 0.92711 0.55601 0.0
C205 C 0.26942 0.90824 0.59881 0.0
H206 H 0.65254 0.60049 0.87599 0.0
H207 H 0.58346 0.68928 0.93518 0.0
H208 H 0.65945 0.56745 0.94942 0.0
H209 H 0.59088 0.65739 1.00803 0.0
H210 H 0.62099 0.61258 0.1392 0.0
H211 H 0.57652 0.59339 0.06668 0.0
H212 H 0.7248 0.62135 1.00465 0.0
H213 H 0.76815 0.63973 0.07639 0.0
C214 C 0.63669 0.61105 0.90442 0.0
C215 C 0.6182 0.64803 0.90002 0.0
C216 C 0.64114 0.59263 0.94659 0.0
C217 C 0.62686 0.61068 0.98492 0.0
C218 C 0.60222 0.64239 0.97957 0.0
C219 C 0.59816 0.66098 0.93766 0.0
C220 C 0.64315 0.61246 0.11014 0.0
C221 C 0.69806 0.62808 0.11323 0.0
C222 C 0.61793 0.60191 0.06856 0.0
C223 C 0.64718 0.60642 0.02955 0.0
C224 C 0.70062 0.61691 0.03365 0.0
C225 C 0.72574 0.6279 0.07488 0.0
H226 H 0.80522 0.21229 0.43561 0.0
H227 H 0.92702 0.18061 0.38218 0.0
H228 H 0.84097 0.21795 0.50928 0.0
H229 H 0.96217 0.1847 0.45661 0.0
H230 H 0.06282 0.30574 0.56783 0.0
H231 H 0.01441 0.26388 0.50016 0.0
H232 H 0.86442 0.18627 0.57358 0.0
H233 H 0.9129 0.23151 0.64053 0.0
C234 C 0.83835 0.20434 0.43986 0.0
C235 C 0.86405 0.19725 0.40294 0.0
C236 C 0.85886 0.20742 0.48231 0.0
C237 C 0.90543 0.2032 0.48883 0.0
C238 C 0.92708 0.18952 0.45254 0.0
C239 C 0.90648 0.18645 0.40991 0.0
C240 C 0.01957 0.2793 0.56952 0.0
C241 C -0.00835 0.2712 0.6096 0.0
C242 C -0.00818 0.25457 0.53084 0.0
C243 C 0.93541 0.22123 0.53132 0.0
C244 C 0.9078 0.21169 0.5719 0.0
C245 C 0.93562 0.23684 0.6105 0.0
H246 H 0.45541 0.12178 0.17334 0.0
H247 H 0.48796 0.03698 0.27668 0.0
H248 H 0.54235 0.1469 0.13909 0.0
H249 H 0.57443 0.06186 0.24263 0.0
H250 H 0.73519 0.12446 0.19565 0.0
H251 H 0.63822 0.07038 0.18165 0.0
H252 H 0.62664 0.21502 0.17693 0.0
H253 H 0.72264 0.26823 0.19169 0.0
C254 C 0.47989 0.10631 0.18758 0.0
C255 C 0.46544 0.07832 0.22819 0.0
C256 C 0.52984 0.12093 0.16803 0.0
C257 C 0.56573 0.10723 0.18854 0.0
C258 C 0.54783 0.07303 0.22582 0.0
C259 C 0.49832 0.05902 0.24561 0.0
C260 C 0.7123 0.14469 0.18904 0.0
C261 C 0.73596 0.20032 0.19502 0.0
C262 C 0.65674 0.11373 0.18141 0.0
C263 C 0.62456 0.1383 0.17898 0.0
C264 C 0.65009 0.19471 0.17844 0.0
C265 C 0.70523 0.22539 0.1869 0.0
H266 H 0.5452 0.53617 0.28668 0.0
H267 H 0.62127 0.51736 0.17013 0.0
H268 H 0.46672 0.44902 0.27441 0.0
H269 H 0.54181 0.43005 0.15698 0.0
H270 H 0.49509 0.27127 0.23845 0.0
H271 H 0.5365 0.36183 0.2095 0.0
H272 H 0.39204 0.36883 0.24002 0.0
H273 H 0.35045 0.27684 0.26957 0.0
C274 C 0.54365 0.51463 0.2569 0.0
C275 C 0.58966 0.53235 0.23013 0.0
C276 C 0.49844 0.46463 0.24967 0.0
C277 C 0.4991 0.43173 0.21576 0.0
C278 C 0.54095 0.45412 0.1841 0.0
C279 C 0.58634 0.50431 0.19139 0.0
C280 C 0.47182 0.29183 0.23857 0.0
C281 C 0.42001 0.26762 0.25728 0.0
C282 C 0.49515 0.34349 0.221 0.0
C283 C 0.46751 0.37268 0.22217 0.0
C284 C 0.41426 0.34728 0.23853 0.0
C285 C 0.39051 0.29485 0.25563 0.0
H286 H 0.96841 0.40697 0.1913 0.0
H287 H -0.00521 0.44847 0.32917 0.0
H288 H 0.95161 0.48129 0.17753 0.0
H289 H 0.97877 0.52307 0.31568 0.0
H290 H 0.91444 0.63401 0.28685 0.0
H291 H 0.98095 0.60418 0.27796 0.0
H292 H 0.86137 0.46277 0.21055 0.0
H293 H 0.79559 0.49281 0.2196 0.0
C294 C 0.97512 0.43462 0.21801 0.0
C295 C 0.98094 0.42094 0.2616 0.0
C296 C 0.96433 0.47663 0.21027 0.0
C297 C 0.96153 0.50645 0.2459 0.0
C298 C 0.97985 0.50037 0.28758 0.0
C299 C -0.01005 0.45795 0.29527 0.0
C300 C 0.90322 0.59766 0.26881 0.0
C301 C 0.85014 0.56592 0.25368 0.0
C302 C 0.94114 0.58043 0.26389 0.0
C303 C 0.92674 0.5315 0.24303 0.0
C304 C 0.87426 0.50127 0.22589 0.0
C305 C 0.83629 0.51804 0.23155 0.0
H306 H 0.06591 0.43834 0.84992 0.0
H307 H 0.98269 0.46667 0.74287 0.0
H308 H 0.10163 0.53091 0.87411 0.0
H309 H 0.01755 0.55862 0.76731 0.0
H310 H 0.10227 0.72935 0.80862 0.0
H311 H 0.03932 0.63396 0.82265 0.0
H312 H 0.17262 0.6026 0.82263 0.0
H313 H 0.23503 0.69715 0.80802 0.0
C314 C 0.05256 0.46327 0.83319 0.0
C315 C 0.02261 0.44595 0.79393 0.0
C316 C 0.07343 0.51644 0.84682 0.0
C317 C 0.06354 0.55227 0.82183 0.0
C318 C 0.02609 0.53206 0.78713 0.0
C319 C 0.006 0.47929 0.7731 0.0
C320 C 0.11813 0.70219 0.81266 0.0
C321 C 0.17343 0.72043 0.80661 0.0
C322 C 0.08213 0.64772 0.8208 0.0
C323 C 0.10106 0.61092 0.82402 0.0
C324 C 0.15684 0.63005 0.82108 0.0
C325 C 0.19256 0.68412 0.81211 0.0
H326 H 0.40363 0.92495 0.73245 0.0
H327 H 0.45447 0.98644 0.86422 0.0
H328 H 0.47614 0.90425 0.72751 0.0
H329 H 0.5281 0.96545 0.85942 0.0
H330 H 0.55773 0.81247 0.84581 0.0
H331 H 0.52246 0.874 0.85772 0.0
H332 H 0.57404 0.93932 0.72603 0.0
H333 H 0.60653 0.87636 0.71365 0.0
C334 C 0.43115 0.93502 0.76003 0.0
C335 C 0.42316 0.95637 0.79905 0.0
C336 C 0.47313 0.92371 0.75711 0.0
C337 C 0.50779 0.93316 0.7932 0.0
C338 C 0.50183 0.95765 0.83124 0.0
C339 C 0.46005 0.96981 0.83388 0.0
C340 C 0.56312 0.8414 0.8202 0.0
C341 C 0.58353 0.83923 0.77858 0.0
C342 C 0.54326 0.87677 0.82699 0.0
C343 C 0.54442 0.91047 0.79231 0.0
C344 C 0.57155 0.91293 0.75291 0.0
C345 C 0.59012 0.87699 0.74585 0.0
H346 H 0.22946 0.33423 0.73808 0.0
H347 H 0.22887 0.47168 0.79415 0.0
H348 H 0.32489 0.3721 0.75825 0.0
H349 H 0.32347 0.51009 0.81349 0.0
H350 H 0.48711 0.58018 0.84922 0.0
H351 H 0.3941 0.50698 0.85645 0.0
H352 H 0.40574 0.44939 0.72751 0.0
H353 H 0.49849 0.52181 0.72107 0.0
C354 C 0.2494 0.37168 0.75592 0.0
C355 C 0.22204 0.39993 0.76495 0.0
C356 C 0.30402 0.3936 0.76718 0.0
C357 C 0.33194 0.44402 0.78786 0.0
C358 C 0.3033 0.47074 0.79855 0.0
C359 C 0.2492 0.44912 0.78695 0.0
C360 C 0.47083 0.54966 0.82388 0.0
C361 C 0.49979 0.55641 0.78464 0.0
C362 C 0.41722 0.50826 0.82759 0.0
C363 C 0.39188 0.47331 0.79193 0.0
C364 C 0.42371 0.47546 0.75561 0.0
C365 C 0.47722 0.51681 0.752 0.0
H366 H 0.20925 0.18532 0.19015 0.0
H367 H 0.26214 0.21721 0.32571 0.0
H368 H 0.1758 0.24791 0.19467 0.0
H369 H 0.22875 0.28152 0.33064 0.0
H370 H 0.05942 0.28005 0.32738 0.0
H371 H 0.13824 0.26901 0.33344 0.0
H372 H 0.18804 0.33585 0.20202 0.0
H373 H 0.10716 0.34385 0.19545 0.0
C374 C 0.21488 0.20699 0.22072 0.0
C375 C 0.23798 0.19633 0.2576 0.0
C376 C 0.19629 0.2436 0.22326 0.0
C377 C 0.19969 0.27037 0.26302 0.0
C378 C 0.22539 0.26165 0.29952 0.0
C379 C 0.24459 0.22501 0.29676 0.0
C380 C 0.08915 0.29589 0.301 0.0
C381 C 0.07674 0.31191 0.26066 0.0
C382 C 0.13433 0.28897 0.30425 0.0
C383 C 0.16825 0.29916 0.26736 0.0
C384 C 0.16158 0.32567 0.23047 0.0
C385 C 0.11581 0.33152 0.22699 0.0
H386 H 0.91383 0.72168 0.32471 0.0
H387 H 0.97822 0.76593 0.19239 0.0
H388 H 0.00562 0.76483 0.35466 0.0
H389 H 0.06946 0.80815 0.22173 0.0
H390 H 0.22425 0.89152 0.26379 0.0
H391 H 0.14279 0.80383 0.26535 0.0
H392 H 0.06747 0.86637 0.3525 0.0
H393 H 0.1495 0.9536 0.35147 0.0
C394 C 0.94781 0.73886 0.30203 0.0
C395 C 0.93963 0.74074 0.25635 0.0
C396 C 7e-05 0.76337 0.31913 0.0
C397 C 0.04464 0.78958 0.29061 0.0
C398 C 0.03602 0.78739 0.24457 0.0
C399 C 0.9839 0.76373 0.22765 0.0
C400 C 0.19152 0.88529 0.28567 0.0
C401 C 0.19225 0.92896 0.30693 0.0
C402 C 0.14482 0.83526 0.28635 0.0
C403 C 0.09835 0.82899 0.30771 0.0
C404 C 0.10261 0.87013 0.33548 0.0
C405 C 0.14961 0.92018 0.33502 0.0
H406 H 0.9251 0.07313 0.31854 0.0
H407 H 0.771 0.0663 0.31161 0.0
H408 H 0.88102 0.97884 0.33921 0.0
H409 H 0.72589 0.97093 0.33232 0.0
H410 H 0.70281 0.8183 0.25051 0.0
H411 H 0.72045 0.9046 0.27873 0.0
H412 H 0.8232 0.896 0.37984 0.0
H413 H 0.80619 0.80971 0.35051 0.0
C414 C 0.88183 0.05185 0.3238 0.0
C415 C 0.85127 0.07642 0.31329 0.0
C416 C 0.85636 -0.0023 0.33578 0.0
C417 C 0.79971 0.96691 0.33654 0.0
C418 C 0.76955 -0.00657 0.33146 0.0
C419 C 0.79529 0.04803 0.31996 0.0
C420 C 0.7273 0.83384 0.27993 0.0
C421 C 0.75332 0.80763 0.29825 0.0
C422 C 0.73718 0.88322 0.29643 0.0
C423 C 0.77399 0.90773 0.3312 0.0
C424 C 0.7951 0.87842 0.35274 0.0
C425 C 0.78503 0.8288 0.33622 0.0
H426 H 0.07527 0.15683 0.71516 0.0
H427 H 0.1924 0.26795 0.80686 0.0
H428 H 0.12781 0.1121 0.70635 0.0
H429 H 0.24702 0.22414 0.79715 0.0
H430 H 0.23156 0.05878 0.84101 0.0
H431 H 0.2237 0.13782 0.82765 0.0
H432 H 0.20472 0.10327 0.68766 0.0
H433 H 0.21108 0.02256 0.70178 0.0
C434 C 0.11351 0.1727 0.73226 0.0
C435 C 0.12981 0.21509 0.76206 0.0
C436 C 0.14409 0.14757 0.72679 0.0
C437 C 0.19141 0.16411 0.75145 0.0
C438 C 0.21034 0.21008 0.77814 0.0
C439 C 0.17943 0.23528 0.78363 0.0
C440 C 0.22655 0.06842 0.80721 0.0
C441 C 0.21995 0.03341 0.77248 0.0
C442 C 0.22303 0.11447 0.79941 0.0
C443 C 0.21271 0.12654 0.75664 0.0
C444 C 0.21178 0.09452 0.72115 0.0
C445 C 0.21537 0.04824 0.72909 0.0
H446 H 0.09023 0.91382 0.71947 0.0
H447 H 0.06115 0.75132 0.72159 0.0
H448 H -0.00534 0.88078 0.70512 0.0
H449 H 0.96615 0.718 0.70526 0.0
H450 H 0.8124 0.69069 0.78134 0.0
H451 H 0.90373 0.7148 0.75982 0.0
H452 H 0.9077 0.83288 0.66769 0.0
H453 H 0.81587 0.80886 0.69031 0.0
C454 C 0.06395 0.87127 0.71404 0.0
C455 C 0.08276 0.83502 0.72168 0.0
C456 C 0.00899 0.85215 0.70608 0.0
C457 C 0.9723 0.79651 0.70536 0.0
C458 C -0.00704 0.76097 0.70684 0.0
C459 C 0.04755 0.78003 0.71546 0.0
C460 C 0.83225 0.72068 0.75557 0.0
C461 C 0.80686 0.74737 0.73707 0.0
C462 C 0.88461 0.73441 0.74291 0.0
C463 C 0.91332 0.77577 0.71175 0.0
C464 C 0.88689 0.80091 0.69175 0.0
C465 C 0.8341 0.78676 0.70429 0.0
H466 H 0.95987 0.13056 0.68553 0.0
H467 H 0.82826 0.16118 0.70685 0.0
H468 H 0.89654 0.03896 0.66398 0.0
H469 H 0.76467 0.07103 0.68122 0.0
H470 H 0.7022 0.91443 0.76366 0.0
H471 H 0.7446 0.00336 0.73347 0.0
H472 H 0.82322 0.95784 0.63391 0.0
H473 H 0.77836 0.86595 0.6649 0.0
C474 C 0.91749 0.11853 0.68281 0.0
C475 C 0.89842 0.15191 0.69874 0.0
C476 C 0.88104 0.06599 0.67016 0.0
C477 C 0.82517 0.04676 0.6728 0.0
C478 C 0.80734 0.08394 0.68063 0.0
C479 C 0.84359 0.13568 0.695 0.0
C480 C 0.72705 0.92262 0.73438 0.0
C481 C 0.73775 0.88359 0.71714 0.0
C482 C 0.7512 0.97396 0.71651 0.0
C483 C 0.78793 -0.01153 0.68117 0.0
C484 C 0.79548 0.94814 0.66138 0.0
C485 C 0.76997 0.89566 0.67904 0.0
loop_
_geom_bond_atom_site_label_1
_geom_bond_atom_site_label_2
_geom_bond_distance
_geom_bond_site_symmetry_2
_ccdc_geom_bond_type
Zn0 O6 1.920 . S
Zn0 O12 1.898 . S
Zn0 O15 1.905 1_545 S
Zn1 O9 1.905 . S
Zn1 O10 1.898 . S
Zn1 O18 1.920 . S
Zn2 O5 2.080 . S
Zn2 O8 2.114 . S
Zn2 O11 2.120 . S
Zn2 O13 2.120 . S
Zn2 O14 2.114 . S
Zn2 O17 2.080 . S
C3 O8 1.166 . S
C3 O9 1.182 . S
C4 O10 1.167 . S
C4 O11 1.299 . S
O5 Zn2 2.080 . S
O5 C19 1.305 . S
O6 Zn0 1.920 . S
O6 C19 1.234 . S
C7 O12 1.167 . S
C7 O13 1.299 . S
O8 Zn2 2.114 . S
O8 C3 1.166 . S
O9 Zn1 1.905 . S
O9 C3 1.182 . S
O10 Zn1 1.898 . S
O10 C4 1.167 . S
O11 Zn2 2.120 . S
O11 C4 1.299 . S
O12 Zn0 1.898 . S
O12 C7 1.167 . S
O13 Zn2 2.120 . S
O13 C7 1.299 . S
O14 Zn2 2.114 . S
O14 C16 1.166 1_545 S
O15 Zn0 1.905 1_565 S
O15 C16 1.182 . S
C16 O14 1.166 1_565 S
C16 O15 1.182 . S
O17 Zn2 2.080 . S
O17 C20 1.305 . S
O18 Zn1 1.920 . S
O18 C20 1.234 . S
C19 O5 1.305 . S
C19 O6 1.234 . S
C20 O17 1.305 . S
C20 O18 1.234 . S
Zn21 O27 1.920 . S
Zn21 O33 1.898 . S
Zn21 O36 1.905 . S
Zn22 O30 1.905 . S
Zn22 O31 1.898 . S
Zn22 O39 1.920 . S
Zn23 O26 2.080 . S
Zn23 O29 2.114 . S
Zn23 O32 2.120 . S
Zn23 O34 2.120 . S
Zn23 O35 2.114 . S
Zn23 O38 2.080 . S
C24 O29 1.166 . S
C24 O30 1.182 . S
C25 O31 1.167 . S
C25 O32 1.299 . S
O26 Zn23 2.080 . S
O26 C40 1.305 . S
O27 Zn21 1.920 . S
O27 C40 1.234 . S
C28 O33 1.167 . S
C28 O34 1.299 . S
O29 Zn23 2.114 . S
O29 C24 1.166 . S
O30 Zn22 1.905 . S
O30 C24 1.182 . S
O31 Zn22 1.898 . S
O31 C25 1.167 . S
O32 Zn23 2.120 . S
O32 C25 1.299 . S
O33 Zn21 1.898 . S
O33 C28 1.167 . S
O34 Zn23 2.120 . S
O34 C28 1.299 . S
O35 Zn23 2.114 . S
O35 C37 1.166 . S
O36 Zn21 1.905 . S
O36 C37 1.182 . S
C37 O35 1.166 . S
C37 O36 1.182 . S
O38 Zn23 2.080 . S
O38 C41 1.305 . S
O39 Zn22 1.920 . S
O39 C41 1.234 . S
C40 O26 1.305 . S
C40 O27 1.234 . S
C41 O38 1.305 . S
C41 O39 1.234 . S
Zn42 O48 1.920 . S
Zn42 O54 1.898 . S
Zn42 O57 1.905 1_655 S
Zn43 O51 1.905 . S
Zn43 O52 1.898 . S
Zn43 O60 1.920 . S
Zn44 O47 2.080 . S
Zn44 O50 2.114 . S
Zn44 O53 2.120 . S
Zn44 O55 2.120 . S
Zn44 O56 2.114 . S
Zn44 O59 2.080 . S
C45 O50 1.166 . S
C45 O51 1.182 . S
C46 O52 1.167 . S
C46 O53 1.299 . S
O47 Zn44 2.080 . S
O47 C61 1.305 . S
O48 Zn42 1.920 . S
O48 C61 1.234 . S
C49 O54 1.167 . S
C49 O55 1.299 . S
O50 Zn44 2.114 . S
O50 C45 1.166 . S
O51 Zn43 1.905 . S
O51 C45 1.182 . S
O52 Zn43 1.898 . S
O52 C46 1.167 . S
O53 Zn44 2.120 . S
O53 C46 1.299 . S
O54 Zn42 1.898 . S
O54 C49 1.167 . S
O55 Zn44 2.120 . S
O55 C49 1.299 . S
O56 Zn44 2.114 . S
O56 C58 1.166 1_655 S
O57 Zn42 1.905 1_455 S
O57 C58 1.182 . S
C58 O56 1.166 1_455 S
C58 O57 1.182 . S
O59 Zn44 2.080 . S
O59 C62 1.305 . S
O60 Zn43 1.920 . S
O60 C62 1.234 . S
C61 O47 1.305 . S
C61 O48 1.234 . S
C62 O59 1.305 . S
C62 O60 1.234 . S
Zn63 O69 1.920 . S
Zn63 O75 1.898 . S
Zn63 O78 1.905 1_455 S
Zn64 O72 1.905 . S
Zn64 O73 1.898 . S
Zn64 O81 1.920 . S
Zn65 O68 2.080 . S
Zn65 O71 2.114 . S
Zn65 O74 2.120 . S
Zn65 O76 2.120 . S
Zn65 O77 2.114 . S
Zn65 O80 2.080 . S
C66 O71 1.166 . S
C66 O72 1.182 . S
C67 O73 1.167 . S
C67 O74 1.299 . S
O68 Zn65 2.080 . S
O68 C82 1.305 . S
O69 Zn63 1.920 . S
O69 C82 1.234 . S
C70 O75 1.167 . S
C70 O76 1.299 . S
O71 Zn65 2.114 . S
O71 C66 1.166 . S
O72 Zn64 1.905 . S
O72 C66 1.182 . S
O73 Zn64 1.898 . S
O73 C67 1.167 . S
O74 Zn65 2.120 . S
O74 C67 1.299 . S
O75 Zn63 1.898 . S
O75 C70 1.167 . S
O76 Zn65 2.120 . S
O76 C70 1.299 . S
O77 Zn65 2.114 . S
O77 C79 1.166 1_455 S
O78 Zn63 1.905 1_655 S
O78 C79 1.182 . S
C79 O77 1.166 1_655 S
C79 O78 1.182 . S
O80 Zn65 2.080 . S
O80 C83 1.305 . S
O81 Zn64 1.920 . S
O81 C83 1.234 . S
C82 O68 1.305 . S
C82 O69 1.234 . S
C83 O80 1.305 . S
C83 O81 1.234 . S
Zn84 O90 1.920 . S
Zn84 O96 1.898 . S
Zn84 O99 1.905 . S
Zn85 O93 1.905 1_565 S
Zn85 O94 1.898 . S
Zn85 O102 1.920 . S
Zn86 O89 2.080 . S
Zn86 O92 2.114 . S
Zn86 O95 2.120 . S
Zn86 O97 2.120 . S
Zn86 O98 2.114 . S
Zn86 O101 2.080 . S
C87 O92 1.166 1_545 S
C87 O93 1.182 . S
C88 O94 1.167 . S
C88 O95 1.299 . S
O89 Zn86 2.080 . S
O89 C103 1.305 . S
O90 Zn84 1.920 . S
O90 C103 1.234 . S
C91 O96 1.167 . S
C91 O97 1.299 . S
O92 Zn86 2.114 . S
O92 C87 1.166 1_565 S
O93 Zn85 1.905 1_545 S
O93 C87 1.182 . S
O94 Zn85 1.898 . S
O94 C88 1.167 . S
O95 Zn86 2.120 . S
O95 C88 1.299 . S
O96 Zn84 1.898 . S
O96 C91 1.167 . S
O97 Zn86 2.120 . S
O97 C91 1.299 . S
O98 Zn86 2.114 . S
O98 C100 1.166 . S
O99 Zn84 1.905 . S
O99 C100 1.182 . S
C100 O98 1.166 . S
C100 O99 1.182 . S
O101 Zn86 2.080 . S
O101 C104 1.305 . S
O102 Zn85 1.920 . S
O102 C104 1.234 . S
C103 O89 1.305 . S
C103 O90 1.234 . S
C104 O101 1.305 . S
C104 O102 1.234 . S
Zn105 O111 1.920 . S
Zn105 O117 1.898 . S
Zn105 O120 1.905 . S
Zn106 O114 1.905 . S
Zn106 O115 1.898 . S
Zn106 O123 1.920 . S
Zn107 O110 2.080 . S
Zn107 O113 2.114 . S
Zn107 O116 2.120 . S
Zn107 O118 2.120 . S
Zn107 O119 2.114 . S
Zn107 O122 2.080 . S
C108 O113 1.166 . S
C108 O114 1.182 . S
C109 O115 1.167 . S
C109 O116 1.299 . S
O110 Zn107 2.080 . S
O110 C124 1.305 . S
O111 Zn105 1.920 . S
O111 C124 1.234 . S
C112 O117 1.167 . S
C112 O118 1.299 . S
O113 Zn107 2.114 . S
O113 C108 1.166 . S
O114 Zn106 1.905 . S
O114 C108 1.182 . S
O115 Zn106 1.898 . S
O115 C109 1.167 . S
O116 Zn107 2.120 . S
O116 C109 1.299 . S
O117 Zn105 1.898 . S
O117 C112 1.167 . S
O118 Zn107 2.120 . S
O118 C112 1.299 . S
O119 Zn107 2.114 . S
O119 C121 1.166 . S
O120 Zn105 1.905 . S
O120 C121 1.182 . S
C121 O119 1.166 . S
C121 O120 1.182 . S
O122 Zn107 2.080 . S
O122 C125 1.305 . S
O123 Zn106 1.920 . S
O123 C125 1.234 . S
C124 O110 1.305 . S
C124 O111 1.234 . S
C125 O122 1.305 . S
C125 O123 1.234 . S
H126 C134 0.950 . S
H127 C139 0.950 1_545 S
H128 C136 0.950 . S
H129 C138 0.950 . S
H130 C140 0.950 . S
H131 C142 0.950 . S
H132 C144 0.950 . S
H133 C145 0.950 1_565 S
C134 H126 0.950 . S
C134 C135 1.386 . S
C134 C136 1.391 . S
C135 C134 1.386 . S
C135 C139 1.393 . S
C136 H128 0.950 . S
C136 C134 1.391 . S
C136 C137 1.400 . S
C137 C136 1.400 . S
C137 C138 1.398 1_565 S
C137 C143 1.491 1_566 S
C138 H129 0.950 . S
C138 C137 1.398 1_545 S
C138 C139 1.391 1_545 S
C139 H127 0.950 1_565 S
C139 C135 1.393 . S
C139 C138 1.391 1_565 S
C140 H130 0.950 . S
C140 C141 1.386 . S
C140 C142 1.391 . S
C141 C140 1.386 . S
C141 C145 1.393 . S
C142 H131 0.950 . S
C142 C140 1.391 . S
C142 C143 1.400 . S
C143 C137 1.491 1_544 S
C143 C142 1.400 . S
C143 C144 1.398 1_545 S
C144 H132 0.950 . S
C144 C143 1.398 1_565 S
C144 C145 1.391 1_565 S
C145 H133 0.950 1_545 S
C145 C141 1.393 . S
C145 C144 1.391 1_545 S
H146 C154 0.950 . S
H147 C159 0.950 . S
H148 C156 0.950 . S
H149 C158 0.950 . S
H150 C160 0.950 . S
H151 C162 0.950 . S
H152 C164 0.950 . S
H153 C165 0.950 . S
C154 H146 0.950 . S
C154 C155 1.386 . S
C154 C156 1.391 . S
C155 C154 1.386 . S
C155 C159 1.393 . S
C156 H148 0.950 . S
C156 C154 1.391 . S
C156 C157 1.400 . S
C157 C156 1.400 . S
C157 C158 1.398 . S
C157 C163 1.491 . S
C158 H149 0.950 . S
C158 C157 1.398 . S
C158 C159 1.391 . S
C159 H147 0.950 . S
C159 C155 1.393 . S
C159 C158 1.391 . S
C160 H150 0.950 . S
C160 C161 1.386 . S
C160 C162 1.391 . S
C161 C160 1.386 . S
C161 C165 1.393 . S
C162 H151 0.950 . S
C162 C160 1.391 . S
C162 C163 1.400 . S
C163 C157 1.491 . S
C163 C162 1.400 . S
C163 C164 1.398 . S
C164 H152 0.950 . S
C164 C163 1.398 . S
C164 C165 1.391 . S
C165 H153 0.950 . S
C165 C161 1.393 . S
C165 C164 1.391 . S
H166 C174 0.950 . S
H167 C179 0.950 . S
H168 C176 0.950 . S
H169 C178 0.950 . S
H170 C180 0.950 . S
H171 C182 0.950 . S
H172 C184 0.950 . S
H173 C185 0.950 . S
C174 H166 0.950 . S
C174 C175 1.386 . S
C174 C176 1.391 . S
C175 C174 1.386 . S
C175 C179 1.393 . S
C176 H168 0.950 . S
C176 C174 1.391 . S
C176 C177 1.400 . S
C177 C176 1.400 . S
C177 C178 1.398 1_655 S
C177 C183 1.491 1_654 S
C178 H169 0.950 . S
C178 C177 1.398 1_455 S
C178 C179 1.391 1_455 S
C179 H167 0.950 . S
C179 C175 1.393 . S
C179 C178 1.391 1_655 S
C180 H170 0.950 . S
C180 C181 1.386 . S
C180 C182 1.391 . S
C181 C180 1.386 . S
C181 C185 1.393 . S
C182 H171 0.950 . S
C182 C180 1.391 . S
C182 C183 1.400 . S
C183 C177 1.491 1_456 S
C183 C182 1.400 . S
C183 C184 1.398 1_455 S
C184 H172 0.950 . S
C184 C183 1.398 1_655 S
C184 C185 1.391 1_655 S
C185 H173 0.950 . S
C185 C181 1.393 . S
C185 C184 1.391 1_455 S
H186 C194 0.950 . S
H187 C199 0.950 . S
H188 C196 0.950 . S
H189 C198 0.950 . S
H190 C200 0.950 . S
H191 C202 0.950 . S
H192 C204 0.950 . S
H193 C205 0.950 . S
C194 H186 0.950 . S
C194 C195 1.386 . S
C194 C196 1.391 . S
C195 C194 1.386 . S
C195 C199 1.393 . S
C196 H188 0.950 . S
C196 C194 1.391 . S
C196 C197 1.400 . S
C197 C196 1.400 . S
C197 C198 1.398 . S
C197 C203 1.491 1_545 S
C198 H189 0.950 . S
C198 C197 1.398 . S
C198 C199 1.391 . S
C199 H187 0.950 . S
C199 C195 1.393 . S
C199 C198 1.391 . S
C200 H190 0.950 . S
C200 C201 1.386 . S
C200 C202 1.391 . S
C201 C200 1.386 . S
C201 C205 1.393 . S
C202 H191 0.950 . S
C202 C200 1.391 . S
C202 C203 1.400 . S
C203 C197 1.491 1_565 S
C203 C202 1.400 . S
C203 C204 1.398 . S
C204 H192 0.950 . S
C204 C203 1.398 . S
C204 C205 1.391 . S
C205 H193 0.950 . S
C205 C201 1.393 . S
C205 C204 1.391 . S
H206 C214 0.950 . S
H207 C219 0.950 . S
H208 C216 0.950 . S
H209 C218 0.950 . S
H210 C220 0.950 . S
H211 C222 0.950 . S
H212 C224 0.950 . S
H213 C225 0.950 . S
C214 H206 0.950 . S
C214 C215 1.386 . S
C214 C216 1.391 . S
C215 C214 1.386 . S
C215 C219 1.393 . S
C216 H208 0.950 . S
C216 C214 1.391 . S
C216 C217 1.400 . S
C217 C216 1.400 . S
C217 C218 1.398 . S
C217 C223 1.491 1_556 S
C218 H209 0.950 . S
C218 C217 1.398 . S
C218 C219 1.391 . S
C219 H207 0.950 . S
C219 C215 1.393 . S
C219 C218 1.391 . S
C220 H210 0.950 . S
C220 C221 1.386 . S
C220 C222 1.391 . S
C221 C220 1.386 . S
C221 C225 1.393 . S
C222 H211 0.950 . S
C222 C220 1.391 . S
C222 C223 1.400 . S
C223 C217 1.491 1_554 S
C223 C222 1.400 . S
C223 C224 1.398 . S
C224 H212 0.950 . S
C224 C223 1.398 . S
C224 C225 1.391 . S
C225 H213 0.950 . S
C225 C221 1.393 . S
C225 C224 1.391 . S
H226 C234 0.950 . S
H227 C239 0.963 . S
H228 C236 0.950 . S
H229 C238 0.950 . S
H230 C240 0.950 . S
H231 C242 0.950 . S
H232 C244 0.950 . S
H233 C245 0.963 . S
C234 H226 0.950 . S
C234 C235 1.386 . S
C234 C236 1.391 . S
C235 C234 1.386 . S
C235 C239 1.393 . S
C236 H228 0.950 . S
C236 C234 1.391 . S
C236 C237 1.400 . S
C237 C236 1.400 . S
C237 C238 1.398 1_655 S
C237 C243 1.491 1_655 S
C238 H229 0.950 . S
C238 C237 1.398 1_455 S
C238 C239 1.391 1_455 S
C239 H227 0.963 . S
C239 C235 1.393 . S
C239 C238 1.391 1_655 S
C240 H230 0.950 . S
C240 C241 1.386 . S
C240 C242 1.391 . S
C241 C240 1.386 . S
C241 C245 1.393 . S
C242 H231 0.950 . S
C242 C240 1.391 . S
C242 C243 1.400 . S
C243 C237 1.491 1_455 S
C243 C242 1.400 . S
C243 C244 1.398 1_455 S
C244 H232 0.950 . S
C244 C243 1.398 1_655 S
C244 C245 1.391 1_655 S
C245 H233 0.963 . S
C245 C241 1.393 . S
C245 C244 1.391 1_455 S
H246 C254 0.950 . S
H247 C259 0.950 . S
H248 C256 0.950 . S
H249 C258 0.950 . S
H250 C260 0.950 . S
H251 C262 0.950 . S
H252 C264 0.950 . S
H253 C265 0.950 . S
C254 H246 0.950 . S
C254 C255 1.386 . S
C254 C256 1.391 . S
C255 C254 1.386 . S
C255 C259 1.393 . S
C256 H248 0.950 . S
C256 C254 1.391 . S
C256 C257 1.400 . S
C257 C256 1.400 . S
C257 C258 1.398 . S
C257 C263 1.491 . S
C258 H249 0.950 . S
C258 C257 1.398 . S
C258 C259 1.391 . S
C259 H247 0.950 . S
C259 C255 1.393 . S
C259 C258 1.391 . S
C260 H250 0.950 . S
C260 C261 1.386 . S
C260 C262 1.391 . S
C261 C260 1.386 . S
C261 C265 1.393 . S
C262 H251 0.950 . S
C262 C260 1.391 . S
C262 C263 1.400 . S
C263 C257 1.491 . S
C263 C262 1.400 . S
C263 C264 1.398 . S
C264 H252 0.950 . S
C264 C263 1.398 . S
C264 C265 1.391 . S
C265 H253 0.950 . S
C265 C261 1.393 . S
C265 C264 1.391 . S
H266 C274 0.950 . S
H267 C279 0.950 . S
H268 C276 0.950 . S
H269 C278 0.950 . S
H270 C280 0.950 . S
H271 C282 0.950 . S
H272 C284 0.950 . S
H273 C285 0.950 . S
C274 H266 0.950 . S
C274 C275 1.386 . S
C274 C276 1.391 . S
C275 C274 1.386 . S
C275 C279 1.393 . S
C276 H268 0.950 . S
C276 C274 1.391 . S
C276 C277 1.400 . S
C277 C276 1.400 . S
C277 C278 1.398 . S
C277 C283 1.491 . S
C278 H269 0.950 . S
C278 C277 1.398 . S
C278 C279 1.391 . S
C279 H267 0.950 . S
C279 C275 1.393 . S
C279 C278 1.391 . S
C280 H270 0.950 . S
C280 C281 1.386 . S
C280 C282 1.391 . S
C281 C280 1.386 . S
C281 C285 1.393 . S
C282 H271 0.950 . S
C282 C280 1.391 . S
C282 C283 1.400 . S
C283 C277 1.491 . S
C283 C282 1.400 . S
C283 C284 1.398 . S
C284 H272 0.950 . S
C284 C283 1.398 . S
C284 C285 1.391 . S
C285 H273 0.950 . S
C285 C281 1.393 . S
C285 C284 1.391 . S
H286 C294 0.950 . S
H287 C299 0.950 . S
H288 C296 0.950 . S
H289 C298 0.950 . S
H290 C300 0.950 . S
H291 C302 0.950 . S
H292 C304 0.950 . S
H293 C305 0.950 . S
C294 H286 0.950 . S
C294 C295 1.386 . S
C294 C296 1.391 . S
C295 C294 1.386 . S
C295 C299 1.393 . S
C296 H288 0.950 . S
C296 C294 1.391 . S
C296 C297 1.400 . S
C297 C296 1.400 . S
C297 C298 1.398 . S
C297 C303 1.491 . S
C298 H289 0.950 . S
C298 C297 1.398 . S
C298 C299 1.391 . S
C299 H287 0.950 . S
C299 C295 1.393 . S
C299 C298 1.391 . S
C300 H290 0.950 . S
C300 C301 1.386 . S
C300 C302 1.391 . S
C301 C300 1.386 . S
C301 C305 1.393 . S
C302 H291 0.950 . S
C302 C300 1.391 . S
C302 C303 1.400 . S
C303 C297 1.491 . S
C303 C302 1.400 . S
C303 C304 1.398 . S
C304 H292 0.950 . S
C304 C303 1.398 . S
C304 C305 1.391 . S
C305 H293 0.950 . S
C305 C301 1.393 . S
C305 C304 1.391 . S
H306 C314 0.950 . S
H307 C319 0.950 1_655 S
H308 C316 0.950 . S
H309 C318 0.950 . S
H310 C320 0.950 . S
H311 C322 0.950 . S
H312 C324 0.950 . S
H313 C325 0.950 . S
C314 H306 0.950 . S
C314 C315 1.386 . S
C314 C316 1.391 . S
C315 C314 1.386 . S
C315 C319 1.393 . S
C316 H308 0.950 . S
C316 C314 1.391 . S
C316 C317 1.400 . S
C317 C316 1.400 . S
C317 C318 1.398 . S
C317 C323 1.491 . S
C318 H309 0.950 . S
C318 C317 1.398 . S
C318 C319 1.391 . S
C319 H307 0.950 1_455 S
C319 C315 1.393 . S
C319 C318 1.391 . S
C320 H310 0.950 . S
C320 C321 1.386 . S
C320 C322 1.391 . S
C321 C320 1.386 . S
C321 C325 1.393 . S
C322 H311 0.950 . S
C322 C320 1.391 . S
C322 C323 1.400 . S
C323 C317 1.491 . S
C323 C322 1.400 . S
C323 C324 1.398 . S
C324 H312 0.950 . S
C324 C323 1.398 . S
C324 C325 1.391 . S
C325 H313 0.950 . S
C325 C321 1.393 . S
C325 C324 1.391 . S
H326 C334 0.950 . S
H327 C339 0.950 . S
H328 C336 0.950 . S
H329 C338 0.950 . S
H330 C340 0.950 . S
H331 C342 0.950 . S
H332 C344 0.950 . S
H333 C345 0.950 . S
C334 H326 0.950 . S
C334 C335 1.386 . S
C334 C336 1.391 . S
C335 C334 1.386 . S
C335 C339 1.393 . S
C336 H328 0.950 . S
C336 C334 1.391 . S
C336 C337 1.400 . S
C337 C336 1.400 . S
C337 C338 1.398 . S
C337 C343 1.491 . S
C338 H329 0.950 . S
C338 C337 1.398 . S
C338 C339 1.391 . S
C339 H327 0.950 . S
C339 C335 1.393 . S
C339 C338 1.391 . S
C340 H330 0.950 . S
C340 C341 1.386 . S
C340 C342 1.391 . S
C341 C340 1.386 . S
C341 C345 1.393 . S
C342 H331 0.950 . S
C342 C340 1.391 . S
C342 C343 1.400 . S
C343 C337 1.491 . S
C343 C342 1.400 . S
C343 C344 1.398 . S
C344 H332 0.950 . S
C344 C343 1.398 . S
C344 C345 1.391 . S
C345 H333 0.950 . S
C345 C341 1.393 . S
C345 C344 1.391 . S
H346 C354 0.950 . S
H347 C359 0.950 . S
H348 C356 0.950 . S
H349 C358 0.950 . S
H350 C360 0.950 . S
H351 C362 0.950 . S
H352 C364 0.950 . S
H353 C365 0.950 . S
C354 H346 0.950 . S
C354 C355 1.386 . S
C354 C356 1.391 . S
C355 C354 1.386 . S
C355 C359 1.393 . S
C356 H348 0.950 . S
C356 C354 1.391 . S
C356 C357 1.400 . S
C357 C356 1.400 . S
C357 C358 1.398 . S
C357 C363 1.491 . S
C358 H349 0.950 . S
C358 C357 1.398 . S
C358 C359 1.391 . S
C359 H347 0.950 . S
C359 C355 1.393 . S
C359 C358 1.391 . S
C360 H350 0.950 . S
C360 C361 1.386 . S
C360 C362 1.391 . S
C361 C360 1.386 . S
C361 C365 1.393 . S
C362 H351 0.950 . S
C362 C360 1.391 . S
C362 C363 1.400 . S
C363 C357 1.491 . S
C363 C362 1.400 . S
C363 C364 1.398 . S
C364 H352 0.950 . S
C364 C363 1.398 . S
C364 C365 1.391 . S
C365 H353 0.950 . S
C365 C361 1.393 . S
C365 C364 1.391 . S
H366 C374 0.950 . S
H367 C379 0.950 . S
H368 C376 0.950 . S
H369 C378 0.950 . S
H370 C380 0.950 . S
H371 C382 0.950 . S
H372 C384 0.950 . S
H373 C385 0.950 . S
C374 H366 0.950 . S
C374 C375 1.386 . S
C374 C376 1.391 . S
C375 C374 1.386 . S
C375 C379 1.393 . S
C376 H368 0.950 . S
C376 C374 1.391 . S
C376 C377 1.400 . S
C377 C376 1.400 . S
C377 C378 1.398 . S
C377 C383 1.491 . S
C378 H369 0.950 . S
C378 C377 1.398 . S
C378 C379 1.391 . S
C379 H367 0.950 . S
C379 C375 1.393 . S
C379 C378 1.391 . S
C380 H370 0.950 . S
C380 C381 1.386 . S
C380 C382 1.391 . S
C381 C380 1.386 . S
C381 C385 1.393 . S
C382 H371 0.950 . S
C382 C380 1.391 . S
C382 C383 1.400 . S
C383 C377 1.491 . S
C383 C382 1.400 . S
C383 C384 1.398 . S
C384 H372 0.950 . S
C384 C383 1.398 . S
C384 C385 1.391 . S
C385 H373 0.950 . S
C385 C381 1.393 . S
C385 C384 1.391 . S
H386 C394 0.950 . S
H387 C399 0.950 . S
H388 C396 0.950 1_455 S
H389 C398 0.950 . S
H390 C400 0.950 . S
H391 C402 0.950 . S
H392 C404 0.950 . S
H393 C405 0.950 . S
C394 H386 0.950 . S
C394 C395 1.386 . S
C394 C396 1.391 . S
C395 C394 1.386 . S
C395 C399 1.393 . S
C396 H388 0.950 1_655 S
C396 C394 1.391 . S
C396 C397 1.400 1_655 S
C397 C396 1.400 1_455 S
C397 C398 1.398 . S
C397 C403 1.491 . S
C398 H389 0.950 . S
C398 C397 1.398 . S
C398 C399 1.391 1_455 S
C399 H387 0.950 . S
C399 C395 1.393 . S
C399 C398 1.391 1_655 S
C400 H390 0.950 . S
C400 C401 1.386 . S
C400 C402 1.391 . S
C401 C400 1.386 . S
C401 C405 1.393 . S
C402 H391 0.950 . S
C402 C400 1.391 . S
C402 C403 1.400 . S
C403 C397 1.491 . S
C403 C402 1.400 . S
C403 C404 1.398 . S
C404 H392 0.950 . S
C404 C403 1.398 . S
C404 C405 1.391 . S
C405 H393 0.950 . S
C405 C401 1.393 . S
C405 C404 1.391 . S
H406 C414 0.950 . S
H407 C419 0.950 . S
H408 C416 0.950 1_565 S
H409 C418 0.950 . S
H410 C420 0.950 . S
H411 C422 0.950 . S
H412 C424 0.950 . S
H413 C425 0.950 . S
C414 H406 0.950 . S
C414 C415 1.386 . S
C414 C416 1.391 . S
C415 C414 1.386 . S
C415 C419 1.393 . S
C416 H408 0.950 1_545 S
C416 C414 1.391 . S
C416 C417 1.400 1_545 S
C417 C416 1.400 1_565 S
C417 C418 1.398 . S
C417 C423 1.491 . S
C418 H409 0.950 . S
C418 C417 1.398 . S
C418 C419 1.391 1_565 S
C419 H407 0.950 . S
C419 C415 1.393 . S
C419 C418 1.391 1_545 S
C420 H410 0.950 . S
C420 C421 1.386 . S
C420 C422 1.391 . S
C421 C420 1.386 . S
C421 C425 1.393 . S
C422 H411 0.950 . S
C422 C420 1.391 . S
C422 C423 1.400 . S
C423 C417 1.491 . S
C423 C422 1.400 . S
C423 C424 1.398 . S
C424 H412 0.950 . S
C424 C423 1.398 . S
C424 C425 1.391 . S
C425 H413 0.950 . S
C425 C421 1.393 . S
C425 C424 1.391 . S
H426 C434 0.950 . S
H427 C439 0.950 . S
H428 C436 0.950 . S
H429 C438 0.950 . S
H430 C440 0.950 . S
H431 C442 0.950 . S
H432 C444 0.950 . S
H433 C445 0.950 1_565 S
C434 H426 0.950 . S
C434 C435 1.386 . S
C434 C436 1.391 . S
C435 C434 1.386 . S
C435 C439 1.393 . S
C436 H428 0.950 . S
C436 C434 1.391 . S
C436 C437 1.400 . S
C437 C436 1.400 . S
C437 C438 1.398 . S
C437 C443 1.491 . S
C438 H429 0.950 . S
C438 C437 1.398 . S
C438 C439 1.391 . S
C439 H427 0.950 . S
C439 C435 1.393 . S
C439 C438 1.391 . S
C440 H430 0.950 . S
C440 C441 1.386 . S
C440 C442 1.391 . S
C441 C440 1.386 . S
C441 C445 1.393 . S
C442 H431 0.950 . S
C442 C440 1.391 . S
C442 C443 1.400 . S
C443 C437 1.491 . S
C443 C442 1.400 . S
C443 C444 1.398 . S
C444 H432 0.950 . S
C444 C443 1.398 . S
C444 C445 1.391 . S
C445 H433 0.950 1_545 S
C445 C441 1.393 . S
C445 C444 1.391 . S
H446 C454 0.950 . S
H447 C459 0.950 . S
H448 C456 0.950 1_655 S
H449 C458 0.950 . S
H450 C460 0.950 . S
H451 C462 0.950 . S
H452 C464 0.950 . S
H453 C465 0.950 . S
C454 H446 0.950 . S
C454 C455 1.386 . S
C454 C456 1.391 . S
C455 C454 1.386 . S
C455 C459 1.393 . S
C456 H448 0.950 1_455 S
C456 C454 1.391 . S
C456 C457 1.400 1_455 S
C457 C456 1.400 1_655 S
C457 C458 1.398 . S
C457 C463 1.491 . S
C458 H449 0.950 . S
C458 C457 1.398 . S
C458 C459 1.391 1_655 S
C459 H447 0.950 . S
C459 C455 1.393 . S
C459 C458 1.391 1_455 S
C460 H450 0.950 . S
C460 C461 1.386 . S
C460 C462 1.391 . S
C461 C460 1.386 . S
C461 C465 1.393 . S
C462 H451 0.950 . S
C462 C460 1.391 . S
C462 C463 1.400 . S
C463 C457 1.491 . S
C463 C462 1.400 . S
C463 C464 1.398 . S
C464 H452 0.950 . S
C464 C463 1.398 . S
C464 C465 1.391 . S
C465 H453 0.950 . S
C465 C461 1.393 . S
C465 C464 1.391 . S
H466 C474 0.950 . S
H467 C479 0.950 . S
H468 C476 0.950 . S
H469 C478 0.950 . S
H470 C480 0.950 . S
H471 C482 0.950 . S
H472 C484 0.950 1_545 S
H473 C485 0.950 . S
C474 H466 0.950 . S
C474 C475 1.386 . S
C474 C476 1.391 . S
C475 C474 1.386 . S
C475 C479 1.393 . S
C476 H468 0.950 . S
C476 C474 1.391 . S
C476 C477 1.400 . S
C477 C476 1.400 . S
C477 C478 1.398 . S
C477 C483 1.491 . S
C478 H469 0.950 . S
C478 C477 1.398 . S
C478 C479 1.391 . S
C479 H467 0.950 . S
C479 C475 1.393 . S
C479 C478 1.391 . S
C480 H470 0.950 . S
C480 C481 1.386 . S
C480 C482 1.391 1_565 S
C481 C480 1.386 . S
C481 C485 1.393 . S
C482 H471 0.950 . S
C482 C480 1.391 1_545 S
C482 C483 1.400 . S
C483 C477 1.491 . S
C483 C482 1.400 . S
C483 C484 1.398 1_545 S
C484 H472 0.950 1_565 S
C484 C483 1.398 1_565 S
C484 C485 1.391 . S
C485 H473 0.950 . S
C485 C481 1.393 . S
C485 C484 1.391 . S
C135 C88 1.429 . S
C141 C7 1.403 . S
C155 C112 1.488 . S
C161 C25 1.479 . S
C175 C49 1.422 . S
C181 C70 1.407 . S
C195 C4 1.483 . S
C201 C91 1.483 . S
C215 C109 1.402 . S
C221 C28 1.443 . S
C235 C46 1.494 . S
C241 C67 1.477 . S
C255 C3 0.947 . S
C261 C62 1.111 . S
C275 C24 0.982 . S
C281 C20 1.109 . S
C295 C45 0.915 . S
C301 C41 1.139 . S
C315 C66 0.933 . S
C321 C103 1.120 . S
C335 C100 0.955 . S
C341 C124 1.107 . S
C355 C83 1.097 . S
C361 C121 0.982 . S
C375 C19 0.926 . S
C381 C58 0.897 . S
C395 C40 0.979 . S
C401 C16 0.825 . S
C415 C61 0.977 . S
C421 C37 0.835 . S
C435 C82 0.970 . S
C441 C87 0.818 . S
C455 C104 0.963 . S
C461 C108 0.825 . S
C475 C79 0.818 . S
C481 C125 0.979 . S
