# Generated by pormake.
# Topology irl, (4)-cn, num edge types: 1
# Building blocks:
#     Node 0, Type 0, BuildingBlock: GALJAG_clean_sbu_0, # of connection points: 4
#     Node 1, Type 0, BuildingBlock: GALJAG_clean_sbu_0, # of connection points: 4
#     Node 2, Type 0, BuildingBlock: GALJAG_clean_sbu_0, # of connection points: 4
#     Node 3, Type 0, BuildingBlock: GALJAG_clean_sbu_0, # of connection points: 4
#     Node 4, Type 0, BuildingBlock: GALJAG_clean_sbu_0, # of connection points: 4
#     Node 5, Type 0, BuildingBlock: GALJAG_clean_sbu_0, # of connection points: 4
#     Node 6, Type 0, BuildingBlock: GALJAG_clean_sbu_0, # of connection points: 4
#     Node 7, Type 0, BuildingBlock: GALJAG_clean_sbu_0, # of connection points: 4
#     Edge 8, Type (0, 0), BuildingBlock: XUDNAN_clean_linker_2, # of connection points: 2
#     Edge 9, Type (0, 0), BuildingBlock: XUDNAN_clean_linker_2, # of connection points: 2
#     Edge 10, Type (0, 0), BuildingBlock: XUDNAN_clean_linker_2, # of connection points: 2
#     Edge 11, Type (0, 0), BuildingBlock: XUDNAN_clean_linker_2, # of connection points: 2
#     Edge 12, Type (0, 0), BuildingBlock: XUDNAN_clean_linker_2, # of connection points: 2
#     Edge 13, Type (0, 0), BuildingBlock: XUDNAN_clean_linker_2, # of connection points: 2
#     Edge 14, Type (0, 0), BuildingBlock: XUDNAN_clean_linker_2, # of connection points: 2
#     Edge 15, Type (0, 0), BuildingBlock: XUDNAN_clean_linker_2, # of connection points: 2
#     Edge 16, Type (0, 0), BuildingBlock: XUDNAN_clean_linker_2, # of connection points: 2
#     Edge 17, Type (0, 0), BuildingBlock: XUDNAN_clean_linker_2, # of connection points: 2
#     Edge 18, Type (0, 0), BuildingBlock: XUDNAN_clean_linker_2, # of connection points: 2
#     Edge 19, Type (0, 0), BuildingBlock: XUDNAN_clean_linker_2, # of connection points: 2
#     Edge 20, Type (0, 0), BuildingBlock: XUDNAN_clean_linker_2, # of connection points: 2
#     Edge 21, Type (0, 0), BuildingBlock: XUDNAN_clean_linker_2, # of connection points: 2
#     Edge 22, Type (0, 0), BuildingBlock: XUDNAN_clean_linker_2, # of connection points: 2
#     Edge 23, Type (0, 0), BuildingBlock: XUDNAN_clean_linker_2, # of connection points: 2
# Relax obj value: 0.098
# Max RMSD: 0.151
# Mean RMSD: 0.151
data_MOF--net-irl--node1-GALJAG_clean_sbu_0--edge1-XUDNAN_clean_linker_2
_symmetry_space_group_name_H-M    P1
_symmetry_Int_Tables_number       1
_symmetry_cell_setting            triclinic
loop_
_symmetry_equiv_pos_as_xyz
'x, y, z'
_cell_length_a     29.876252
_cell_length_b     47.813091
_cell_length_c     28.911753
_cell_angle_alpha  89.729728
_cell_angle_beta   89.76978
_cell_angle_gamma 89.900142
loop_
_atom_site_label
_atom_site_type_symbol
_atom_site_fract_x
_atom_site_fract_y
_atom_site_fract_z
_atom_type_partial_charge
In0 In 0.06436 0.13069 0.00851 0.0
O1 O 0.01859 0.16099 0.0488 0.0
O2 O 0.04012 0.12365 0.08207 0.0
C3 C 0.05269 0.14092 0.91727 0.0
C4 C 0.13904 0.16036 0.02492 0.0
C5 C 0.05908 0.07458 0.01235 0.0
O6 O 0.02034 0.14249 0.94561 0.0
O7 O 0.0894 0.13382 0.93501 0.0
O8 O 0.09476 0.08786 0.02048 0.0
O9 O 0.02593 0.08967 0.00125 0.0
C10 C 0.01893 0.14632 0.08529 0.0
O11 O 0.13922 0.13393 0.02382 0.0
O12 O 0.1013 0.17151 0.0185 0.0
In13 In 0.95715 0.82235 0.05104 0.0
O14 O 0.88335 0.81219 0.03979 0.0
O15 O 0.93159 0.77887 0.04343 0.0
C16 C 0.98355 0.8757 0.05313 0.0
C17 C 0.96109 0.81254 0.14128 0.0
C18 C 0.99358 0.8123 0.96918 0.0
O19 O 0.94319 0.86937 0.04396 0.0
O20 O 0.00901 0.85523 0.06219 0.0
O21 O 0.00808 0.79999 0.00519 0.0
O22 O 0.96154 0.82925 0.97504 0.0
C23 C 0.89102 0.78597 0.0391 0.0
O24 O 0.9937 0.80642 0.11479 0.0
O25 O 0.92772 0.82399 0.12211 0.0
In26 In 0.04059 0.84956 0.55097 0.0
O27 O 0.9896 0.82588 0.50728 0.0
O28 O 0.04602 0.84459 0.47394 0.0
C29 C 0.02655 0.83319 0.63857 0.0
C30 C 0.12424 0.82951 0.54573 0.0
C31 C 0.00668 0.90178 0.54678 0.0
O32 O 0.0111 0.81964 0.60476 0.0
O33 O 0.04727 0.8553 0.628 0.0
O34 O 0.04826 0.89698 0.54371 0.0
O35 O 0.98267 0.88032 0.55244 0.0
C36 C 0.01082 0.83032 0.46999 0.0
O37 O 0.1164 0.85556 0.54512 0.0
O38 O 0.09012 0.81414 0.5492 0.0
In39 In 0.93833 0.15734 0.50597 0.0
O40 O 0.98386 0.17422 0.44815 0.0
O41 O 0.92723 0.1495 0.42977 0.0
C42 C 0.97674 0.16302 0.58929 0.0
C43 C 0.88039 0.20014 0.51124 0.0
C44 C 0.9359 0.10138 0.51119 0.0
O45 O -0.0009 0.16565 0.5521 0.0
O46 O 0.93561 0.15809 0.58389 0.0
O47 O 0.90041 0.11598 0.51286 0.0
O48 O 0.97172 0.11511 0.50618 0.0
C49 C 0.96073 0.16341 0.41626 0.0
O50 O 0.86706 0.17496 0.51178 0.0
O51 O 0.92219 0.20324 0.50759 0.0
In52 In 0.53765 0.65325 0.00745 0.0
O53 O 0.61203 0.64576 0.02196 0.0
O54 O 0.58617 0.6873 0.02557 0.0
C55 C 0.50451 0.60109 0.00303 0.0
C56 C 0.49681 0.67264 0.08353 0.0
C57 C 0.53645 0.66978 0.91879 0.0
O58 O 0.54419 0.60598 0.0159 0.0
O59 O 0.48223 0.62245 0.99133 0.0
O60 O 0.50381 0.67461 0.94567 0.0
O61 O 0.56826 0.65614 0.93637 0.0
C62 C 0.61985 0.67149 0.02846 0.0
O63 O 0.49872 0.68705 0.04678 0.0
O64 O 0.51404 0.64862 0.08103 0.0
In65 In 0.42801 0.34739 0.0478 0.0
O66 O 0.47271 0.34005 0.1112 0.0
O67 O 0.40286 0.34811 0.12104 0.0
C68 C 0.46904 0.34105 0.96602 0.0
C69 C 0.37364 0.30328 0.04005 0.0
C70 C 0.42605 0.40325 0.04346 0.0
O71 O 0.48636 0.33146 0.00289 0.0
O72 O 0.43202 0.35344 0.97094 0.0
O73 O 0.39115 0.38871 0.03673 0.0
O74 O 0.46093 0.38948 0.05342 0.0
C75 C 0.44028 0.34289 0.13938 0.0
O76 O 0.35864 0.32813 0.03836 0.0
O77 O 0.41551 0.30116 0.04489 0.0
In78 In 0.56111 0.36672 0.54789 0.0
O79 O 0.6376 0.36443 0.54698 0.0
O80 O 0.601 0.32635 0.54515 0.0
C81 C 0.55621 0.42281 0.54013 0.0
C82 C 0.5217 0.35381 0.46683 0.0
C83 C 0.53579 0.35375 0.63546 0.0
O84 O 0.59295 0.40962 0.54021 0.0
O85 O 0.52177 0.40769 0.54459 0.0
O86 O 0.52859 0.33764 0.60187 0.0
O87 O 0.55408 0.37658 0.62469 0.0
C88 C 0.63878 0.33804 0.54514 0.0
O89 O 0.50028 0.3535 0.50466 0.0
O90 O 0.56233 0.36037 0.47033 0.0
In91 In 0.45987 0.6767 0.50534 0.0
O92 O 0.38559 0.68716 0.5139 0.0
O93 O 0.43364 0.7203 0.50688 0.0
C94 C 0.4866 0.62327 0.50709 0.0
C95 C 0.47024 0.68586 0.41525 0.0
C96 C 0.49066 0.68805 0.58915 0.0
O97 O 0.44545 0.62966 0.51164 0.0
O98 O 0.51287 0.64373 0.50131 0.0
O99 O 0.51331 0.69414 0.55316 0.0
O100 O 0.45341 0.67629 0.58216 0.0
C101 C 0.39312 0.71336 0.51223 0.0
O102 O 0.49551 0.69753 0.44464 0.0
O103 O 0.44101 0.6694 0.43163 0.0
H104 H 0.93953 0.92464 0.02878 0.0
H105 H 0.06851 0.89183 0.07199 0.0
H106 H 0.10138 0.93871 0.06454 0.0
H107 H 0.98208 0.97336 0.94437 0.0
H108 H 0.94194 1.00042 0.95735 0.0
H109 H 0.92752 0.96425 0.96657 0.0
H110 H 0.90808 0.97469 0.05218 0.0
H111 H 0.92213 0.01094 0.04312 0.0
H112 H 0.94919 0.99122 0.08839 0.0
H113 H 0.12132 0.98829 0.05129 0.0
H114 H 0.12628 0.03898 0.03654 0.0
H115 H 0.98489 0.04094 0.00238 0.0
C116 C 0.97457 0.92743 0.03698 0.0
C117 C 0.00141 0.90454 0.05101 0.0
C118 C 0.0472 0.909 0.06123 0.0
C119 C 0.0663 0.93556 0.05702 0.0
C120 C 0.03922 0.95759 0.04264 0.0
C121 C 0.99431 0.95398 0.03305 0.0
C122 C 0.97297 0.98146 0.01842 0.0
C123 C 0.95508 0.97976 0.96872 0.0
C124 C 0.9359 0.99008 0.05257 0.0
C125 C 0.01298 0.00091 0.02129 0.0
C126 C 0.05081 0.98658 0.03518 0.0
C127 C 0.09193 0.99981 0.04047 0.0
C128 C 0.09443 0.02861 0.03192 0.0
C129 C 0.05603 0.04391 0.0183 0.0
C130 C 0.01484 0.02977 0.01261 0.0
H131 H 0.05084 0.95128 0.53166 0.0
H132 H 0.91841 0.91631 0.55332 0.0
H133 H 0.8853 0.96348 0.54569 0.0
H134 H 0.03245 0.01492 0.59506 0.0
H135 H 0.06505 0.03609 0.55574 0.0
H136 H 0.07812 0.99955 0.56304 0.0
H137 H 0.07013 0.99216 0.47468 0.0
H138 H 0.05687 0.02866 0.46716 0.0
H139 H 0.01891 0.00233 0.44637 0.0
H140 H 0.86659 0.01477 0.53547 0.0
H141 H 0.86433 0.06619 0.52463 0.0
H142 H 0.0089 0.06708 0.50942 0.0
C143 C 0.01489 0.95356 0.53491 0.0
C144 C 0.9872 0.93015 0.54312 0.0
C145 C 0.94029 0.93398 0.54705 0.0
C146 C 0.92115 0.96068 0.54273 0.0
C147 C 0.94936 0.98332 0.53443 0.0
C148 C 0.99524 0.98004 0.53063 0.0
C149 C 0.01814 0.00775 0.52169 0.0
C150 C 0.05033 0.015 0.56125 0.0
C151 C 0.04243 0.00771 0.47468 0.0
C152 C 0.97803 0.02713 0.52112 0.0
C153 C 0.93862 0.0127 0.52847 0.0
C154 C 0.89726 0.0263 0.52964 0.0
C155 C 0.89626 0.05546 0.52341 0.0
C156 C 0.93637 0.07059 0.51612 0.0
C157 C 0.97762 0.0561 0.51481 0.0
H158 H 0.54452 0.55215 0.03031 0.0
H159 H 0.41924 0.5863 0.97951 0.0
H160 H 0.3845 0.53956 0.98587 0.0
H161 H 0.53706 0.48578 0.97182 0.0
H162 H 0.56155 0.46646 0.01907 0.0
H163 H 0.57632 0.50256 0.00985 0.0
H164 H 0.55247 0.51388 0.09405 0.0
H165 H 0.53726 0.47786 0.10338 0.0
H166 H 0.49673 0.50516 0.11334 0.0
H167 H 0.36316 0.4889 -0.00097 0.0
H168 H 0.35823 0.43802 0.01473 0.0
H169 H 0.49748 0.43763 0.0569 0.0
C170 C 0.50987 0.54977 0.02024 0.0
C171 C 0.48459 0.57282 0.00435 0.0
C172 C 0.43927 0.56888 0.99167 0.0
C173 C 0.41921 0.54244 0.99528 0.0
C174 C 0.44493 0.52019 0.0116 0.0
C175 C 0.48934 0.52356 0.02362 0.0
C176 C 0.50968 0.4963 0.0401 0.0
C177 C 0.54844 0.48724 0.0083 0.0
C178 C 0.52492 0.49844 0.09072 0.0
C179 C 0.46981 0.47707 0.03547 0.0
C180 C 0.43269 0.49119 0.01912 0.0
C181 C 0.39203 0.47763 0.01185 0.0
C182 C 0.38948 0.44878 0.02098 0.0
C183 C 0.4274 0.43392 0.0371 0.0
C184 C 0.46784 0.44841 0.04473 0.0
H185 H 0.48152 0.45665 0.54305 0.0
H186 H 0.6257 0.45835 0.52373 0.0
H187 H 0.62262 0.50944 0.51219 0.0
H188 H 0.45493 0.50947 0.45807 0.0
H189 H 0.41048 0.52492 0.49173 0.0
H190 H 0.42358 0.48834 0.49854 0.0
H191 H 0.43483 0.49549 0.58648 0.0
H192 H 0.42163 0.53207 0.57998 0.0
H193 H 0.47373 0.52161 0.60617 0.0
H194 H 0.60458 0.55967 0.50222 0.0
H195 H 0.57308 0.60706 0.49651 0.0
H196 H 0.44003 0.57399 0.52293 0.0
C197 C 0.51241 0.46781 0.53643 0.0
C198 C 0.5539 0.45353 0.53424 0.0
C199 C 0.59359 0.46884 0.52561 0.0
C200 C 0.59217 0.49786 0.51893 0.0
C201 C 0.55082 0.51129 0.52112 0.0
C202 C 0.51163 0.49689 0.52984 0.0
C203 C 0.47175 0.51663 0.53082 0.0
C204 C 0.43821 0.5094 0.4925 0.0
C205 C 0.44916 0.51643 0.57872 0.0
C206 C 0.49473 0.54434 0.5212 0.0
C207 C 0.54033 0.54063 0.51564 0.0
C208 C 0.56895 0.56289 0.50655 0.0
C209 C 0.55064 0.58976 0.50335 0.0
C210 C 0.50406 0.59429 0.50927 0.0
C211 C 0.47572 0.57119 0.51815 0.0
H212 H 0.98201 0.115 0.15425 0.0
H213 H 0.02181 0.19953 0.11876 0.0
H214 H 0.01008 0.21388 0.20022 0.0
H215 H 0.89401 0.1359 0.2394 0.0
H216 H 0.90582 0.10621 0.27604 0.0
H217 H 0.91394 0.1037 0.21441 0.0
H218 H 0.99601 0.08824 0.22802 0.0
H219 H 0.98852 0.09128 0.28957 0.0
H220 H 0.03271 0.11038 0.26097 0.0
H221 H 0.00528 0.21662 0.28814 0.0
H222 H 0.99378 0.20994 0.37258 0.0
H223 H 0.95022 0.12488 0.34842 0.0
C224 C 0.98695 0.13671 0.16346 0.0
C225 C 0.0025 0.15626 0.13045 0.0
C226 C 0.00916 0.18441 0.14356 0.0
C227 C 0.00299 0.19264 0.18977 0.0
C228 C 0.98911 0.17258 0.22196 0.0
C229 C 0.9798 0.1454 0.20903 0.0
C230 C 0.96552 0.12778 0.25013 0.0
C231 C 0.91693 0.11782 0.24467 0.0
C232 C -0.00238 0.10296 0.25759 0.0
C233 C 0.9696 0.149 0.28851 0.0
C234 C 0.98376 0.17466 0.27179 0.0
C235 C 0.99321 0.19682 0.30146 0.0
C236 C 0.98702 0.1928 0.34928 0.0
C237 C 0.9708 0.16702 0.36664 0.0
C238 C 0.96206 0.14493 0.33582 0.0
H239 H 0.06113 0.82576 0.39213 0.0
H240 H 0.92681 0.81302 0.4456 0.0
H241 H 0.90087 0.80132 0.36676 0.0
H242 H 0.03219 0.85934 0.29144 0.0
H243 H 0.07483 0.8436 0.25573 0.0
H244 H 0.08377 0.84724 0.31684 0.0
H245 H 0.09843 0.79395 0.3241 0.0
H246 H 0.08972 0.79013 0.26279 0.0
H247 H 0.05724 0.76963 0.30318 0.0
H248 H 0.88791 0.79849 0.28149 0.0
H249 H 0.88937 0.80172 0.19619 0.0
H250 H 0.03315 0.81353 0.19892 0.0
C251 C 0.02642 0.81997 0.38738 0.0
C252 C 0.99581 0.82031 0.42465 0.0
C253 C 0.9507 0.81271 0.41734 0.0
C254 C 0.93577 0.80602 0.37279 0.0
C255 C 0.96669 0.80652 0.33649 0.0
C256 C 0.01123 0.81288 0.34346 0.0
C257 C 0.03714 0.8137 0.29841 0.0
C258 C 0.05819 0.84269 0.29014 0.0
C259 C 0.07273 0.79046 0.29705 0.0
C260 C -0.00017 0.80801 0.26463 0.0
C261 C 0.95949 0.80377 0.28732 0.0
C262 C 0.91942 0.80105 0.26338 0.0
C263 C 0.92055 0.80305 0.21507 0.0
C264 C 0.96149 0.80747 0.19137 0.0
C265 C 0.00168 0.80938 0.21636 0.0
H266 H 0.03972 0.86393 0.71593 0.0
H267 H 0.00653 0.78038 0.66966 0.0
H268 H 0.00546 0.76391 0.7511 0.0
H269 H 0.10991 0.84394 0.81363 0.0
H270 H 0.08905 0.87185 0.84949 0.0
H271 H 0.09143 0.87626 0.78758 0.0
H272 H 0.00663 0.88806 0.78591 0.0
H273 H 0.0043 0.88422 0.84773 0.0
H274 H 0.96733 0.86403 0.81186 0.0
H275 H 0.00589 0.75727 0.83832 0.0
H276 H 0.99616 0.76274 0.92316 0.0
H277 H 0.02547 0.85105 0.91032 0.0
C278 C 0.03255 0.84211 0.72291 0.0
C279 C 0.02343 0.82335 0.68675 0.0
C280 C 0.01351 0.79506 0.69711 0.0
C281 C 0.01331 0.78549 0.74312 0.0
C282 C 0.02294 0.80455 0.77807 0.0
C283 C 0.03171 0.83237 0.7684 0.0
C284 C 0.03697 0.84928 0.81199 0.0
C285 C 0.08468 0.86102 0.81588 0.0
C286 C 0.0017 0.87276 0.81451 0.0
C287 C 0.02856 0.82684 0.84786 0.0
C288 C 0.02177 0.80098 0.82784 0.0
C289 C 0.01161 0.77734 0.85438 0.0
C290 C 0.00655 0.78053 0.9024 0.0
C291 C 0.01086 0.8072 0.92266 0.0
C292 C 0.02297 0.83039 0.89533 0.0
H293 H 0.97644 0.14688 0.86431 0.0
H294 H 0.12155 0.14879 0.85708 0.0
H295 H 0.1179 0.15784 0.77326 0.0
H296 H 0.9609 0.1106 0.7587 0.0
H297 H 0.91108 0.12945 0.74233 0.0
H298 H 0.92484 0.12524 0.80252 0.0
H299 H 0.922 0.17901 0.81318 0.0
H300 H 0.90831 0.18337 0.75293 0.0
H301 H 0.95611 0.2011 0.77671 0.0
H302 H 0.09904 0.16481 0.6896 0.0
H303 H 0.06566 0.16731 0.61146 0.0
H304 H 0.93317 0.16004 0.67242 0.0
C305 C 0.00735 0.14953 0.8451 0.0
C306 C 0.04925 0.14722 0.86725 0.0
C307 C 0.08903 0.15044 0.84085 0.0
C308 C 0.08736 0.15571 0.79321 0.0
C309 C 0.04563 0.15764 0.77226 0.0
C310 C 0.00632 0.15458 0.79725 0.0
C311 C 0.96598 0.15615 0.76574 0.0
C312 C 0.93914 0.12872 0.76743 0.0
C313 C 0.93636 0.18142 0.77787 0.0
C314 C 0.98885 0.16014 0.71926 0.0
C315 C 0.03478 0.16125 0.72382 0.0
C316 C 0.06307 0.16414 0.68556 0.0
C317 C 0.04386 0.16557 0.64136 0.0
C318 C 0.99691 0.16392 0.63588 0.0
C319 C 0.96921 0.16148 0.6755 0.0
H320 H 0.45457 0.64431 0.15183 0.0
H321 H 0.50997 0.72531 0.1165 0.0
H322 H 0.50431 0.73958 0.19863 0.0
H323 H 0.37659 0.67043 0.24576 0.0
H324 H 0.38568 0.63914 0.27946 0.0
H325 H 0.38732 0.63765 0.2172 0.0
H326 H 0.46641 0.61548 0.22148 0.0
H327 H 0.46565 0.61757 0.28351 0.0
H328 H 0.51041 0.63378 0.2512 0.0
H329 H 0.50661 0.74084 0.28636 0.0
H330 H 0.50451 0.73206 0.37102 0.0
H331 H 0.44324 0.65133 0.34697 0.0
C332 C 0.46376 0.66544 0.16122 0.0
C333 C 0.48231 0.68386 0.12826 0.0
C334 C 0.49487 0.71117 0.14143 0.0
C335 C 0.4921 0.71933 0.18796 0.0
C336 C 0.47564 0.7001 0.22023 0.0
C337 C 0.46034 0.67403 0.20712 0.0
C338 C 0.44658 0.65655 0.24844 0.0
C339 C 0.39604 0.65061 0.24767 0.0
C340 C 0.47392 0.62925 0.25129 0.0
C341 C 0.45855 0.67629 0.28704 0.0
C342 C 0.4753 0.70131 0.2703 0.0
C343 C 0.49242 0.72164 0.29984 0.0
C344 C 0.49155 0.71639 0.34771 0.0
C345 C 0.47336 0.69117 0.36521 0.0
C346 C 0.45664 0.67101 0.33443 0.0
H347 H 0.56391 0.35089 0.38304 0.0
H348 H 0.43309 0.34444 0.44799 0.0
H349 H 0.39869 0.33809 0.37101 0.0
H350 H 0.53043 0.39023 0.28617 0.0
H351 H 0.56754 0.37308 0.24595 0.0
H352 H 0.58215 0.37502 0.30617 0.0
H353 H 0.5902 0.32108 0.30964 0.0
H354 H 0.57574 0.31896 0.2493 0.0
H355 H 0.54416 0.29941 0.29169 0.0
H356 H 0.37827 0.33608 0.28707 0.0
H357 H 0.37286 0.33725 0.20205 0.0
H358 H 0.51738 0.34406 0.19145 0.0
C359 C 0.52806 0.34781 0.38116 0.0
C360 C 0.50108 0.34812 0.42146 0.0
C361 C 0.45433 0.34416 0.41755 0.0
C362 C 0.43456 0.34054 0.37402 0.0
C363 C 0.4621 0.34071 0.33492 0.0
C364 C 0.50787 0.34404 0.3381 0.0
C365 C 0.52978 0.34441 0.29069 0.0
C366 C 0.55388 0.37235 0.28174 0.0
C367 C 0.56186 0.31948 0.28501 0.0
C368 C 0.48904 0.34139 0.26017 0.0
C369 C 0.45038 0.33917 0.28645 0.0
C370 C 0.40833 0.33749 0.26618 0.0
C371 C 0.40564 0.33826 0.21784 0.0
C372 C 0.44474 0.34062 0.19017 0.0
C373 C 0.48701 0.3419 0.21171 0.0
H374 H 0.47641 0.381 0.90005 0.0
H375 H 0.50384 0.29353 0.92749 0.0
H376 H 0.52395 0.28677 0.84479 0.0
H377 H 0.42759 0.37404 0.7917 0.0
H378 H 0.45279 0.40478 0.76648 0.0
H379 H 0.44325 0.40299 0.82792 0.0
H380 H 0.52721 0.41259 0.84322 0.0
H381 H 0.53692 0.41498 0.7818 0.0
H382 H 0.56904 0.39077 0.81631 0.0
H383 H 0.53145 0.289 0.7568 0.0
H384 H 0.53916 0.30146 0.67378 0.0
H385 H 0.51344 0.3884 0.70647 0.0
C386 C 0.48763 0.36058 0.88871 0.0
C387 C 0.48884 0.33775 0.91972 0.0
C388 C 0.50337 0.31128 0.90408 0.0
C389 C 0.51443 0.30726 0.85722 0.0
C390 C 0.51167 0.33012 0.82708 0.0
C391 C 0.49985 0.35644 0.84257 0.0
C392 C 0.49984 0.37767 0.80359 0.0
C393 C 0.45308 0.39062 0.79706 0.0
C394 C 0.53538 0.40034 0.81172 0.0
C395 C 0.51238 0.35912 0.76335 0.0
C396 C 0.51851 0.33168 0.77737 0.0
C397 C 0.52753 0.31049 0.74564 0.0
C398 C 0.53144 0.31769 0.69859 0.0
C399 C 0.52709 0.34587 0.68403 0.0
C400 C 0.51733 0.36674 0.71686 0.0
H401 H 0.46593 0.67954 0.86097 0.0
H402 H 0.61088 0.67979 0.8673 0.0
H403 H 0.61477 0.69138 0.78407 0.0
H404 H 0.45991 0.64423 0.75733 0.0
H405 H 0.41162 0.6626 0.7355 0.0
H406 H 0.41997 0.65944 0.79682 0.0
H407 H 0.41603 0.71338 0.80486 0.0
H408 H 0.40763 0.7167 0.74336 0.0
H409 H 0.45299 0.73502 0.77072 0.0
H410 H 0.6032 0.69841 0.69904 0.0
H411 H 0.57685 0.69676 0.61794 0.0
H412 H 0.43994 0.68957 0.667 0.0
C413 C 0.49835 0.68282 0.84497 0.0
C414 C 0.53806 0.6791 0.87032 0.0
C415 C 0.58006 0.68268 0.84823 0.0
C416 C 0.58261 0.68944 0.80113 0.0
C417 C 0.54284 0.69239 0.77667 0.0
C418 C 0.50148 0.68908 0.79777 0.0
C419 C 0.46409 0.68993 0.76274 0.0
C420 C 0.43736 0.66241 0.76313 0.0
C421 C 0.43338 0.71528 0.77092 0.0
C422 C 0.49096 0.6933 0.71863 0.0
C423 C 0.53624 0.69536 0.72737 0.0
C424 C 0.56777 0.69716 0.69173 0.0
C425 C 0.55259 0.69624 0.64587 0.0
C426 C 0.5065 0.693 0.63648 0.0
C427 C 0.47541 0.69211 0.67332 0.0
H428 H 0.28193 0.30103 0.03223 0.0
H429 H 0.40054 0.24892 0.0441 0.0
H430 H 0.35338 0.2067 0.0435 0.0
H431 H 0.21081 0.259 0.10537 0.0
H432 H 0.1615 0.26438 0.0707 0.0
H433 H 0.20452 0.29072 0.07202 0.0
H434 H 0.21134 0.2888 0.98268 0.0
H435 H 0.16817 0.26259 0.98108 0.0
H436 H 0.22194 0.25574 0.95495 0.0
H437 H 0.29362 0.17005 0.0417 0.0
H438 H 0.22489 0.14149 0.03634 0.0
H439 H 0.14539 0.21732 0.02575 0.0
C440 C 0.29792 0.28073 0.03458 0.0
C441 C 0.34486 0.27825 0.0382 0.0
C442 C 0.3646 0.25132 0.04127 0.0
C443 C 0.33812 0.2272 0.04105 0.0
C444 C 0.29195 0.23033 0.03774 0.0
C445 C 0.27197 0.25637 0.0344 0.0
C446 C 0.22161 0.25384 0.03079 0.0
C447 C 0.19825 0.26781 0.07219 0.0
C448 C 0.20479 0.26595 0.98462 0.0
C449 C 0.21653 0.22235 0.03252 0.0
C450 C 0.25748 0.20916 0.03667 0.0
C451 C 0.2613 0.18011 0.0385 0.0
C452 C 0.22215 0.16408 0.03551 0.0
C453 C 0.17993 0.1772 0.03072 0.0
C454 C 0.17722 0.2067 0.02956 0.0
H455 H 0.6422 0.72624 0.03883 0.0
H456 H 0.69959 0.64294 0.03031 0.0
H457 H 0.7756 0.66345 0.03267 0.0
H458 H 0.72022 0.75953 0.96543 0.0
H459 H 0.72188 0.79164 -0.00221 0.0
H460 H 0.67217 0.77041 -0.00124 0.0
H461 H 0.67512 0.76787 0.08826 0.0
H462 H 0.72454 0.78941 0.08766 0.0
H463 H 0.72549 0.7558 0.11616 0.0
H464 H 0.84463 0.69319 0.03202 0.0
H465 H 0.90263 0.72973 0.03217 0.0
H466 H 0.79972 0.79379 0.04019 0.0
C467 C 0.67072 0.71223 0.03811 0.0
C468 C 0.66515 0.68298 0.03454 0.0
C469 C 0.70324 0.66539 0.03329 0.0
C470 C 0.74643 0.67686 0.03448 0.0
C471 C 0.75068 0.70587 0.03696 0.0
C472 C 0.71386 0.7233 0.03912 0.0
C473 C 0.72743 0.75379 0.04037 0.0
C474 C 0.70935 0.76977 -0.00193 0.0
C475 C 0.71225 0.76752 0.08582 0.0
C476 C 0.77778 0.75085 0.03818 0.0
C477 C 0.79045 0.72303 0.03629 0.0
C478 C 0.83513 0.71502 0.0337 0.0
C479 C 0.86778 0.73596 0.03368 0.0
C480 C 0.85561 0.7646 0.03616 0.0
C481 C 0.80997 0.77209 0.03809 0.0
H482 H 0.14618 0.77421 0.54376 0.0
H483 H 0.20412 0.85737 0.53789 0.0
H484 H 0.27948 0.83638 0.52911 0.0
H485 H 0.23457 0.74141 0.60878 0.0
H486 H 0.23111 0.70889 0.57771 0.0
H487 H 0.18209 0.73052 0.58418 0.0
H488 H 0.17208 0.73151 0.49518 0.0
H489 H 0.22113 0.70995 0.48839 0.0
H490 H 0.21768 0.74319 0.45894 0.0
H491 H 0.34766 0.8064 0.51992 0.0
H492 H 0.40493 0.7697 0.51162 0.0
H493 H 0.30225 0.70585 0.52342 0.0
C494 C 0.17472 0.78805 0.54081 0.0
C495 C 0.16947 0.81743 0.54155 0.0
C496 C 0.20754 0.83482 0.53745 0.0
C497 C 0.25036 0.82308 0.53245 0.0
C498 C 0.25427 0.79401 0.53163 0.0
C499 C 0.21751 0.77673 0.53576 0.0
C500 C 0.2307 0.74616 0.53338 0.0
C501 C 0.21892 0.73085 0.57872 0.0
C502 C 0.20912 0.73187 0.49148 0.0
C503 C 0.28079 0.7489 0.52722 0.0
C504 C 0.29361 0.77669 0.52629 0.0
C505 C 0.33804 0.78459 0.52066 0.0
C506 C 0.37029 0.76354 0.51593 0.0
C507 C 0.35799 0.73491 0.51688 0.0
C508 C 0.3126 0.72755 0.52259 0.0
H509 H 0.64805 0.28122 0.54077 0.0
H510 H 0.72422 0.35845 0.54115 0.0
H511 H 0.79428 0.33133 0.53253 0.0
H512 H 0.72747 0.23975 0.60564 0.0
H513 H 0.71751 0.20847 0.57272 0.0
H514 H 0.67355 0.23396 0.57961 0.0
H515 H 0.66554 0.23747 0.49055 0.0
H516 H 0.70959 0.21208 0.48335 0.0
H517 H 0.71392 0.24584 0.45571 0.0
H518 H 0.8554 0.29607 0.52231 0.0
H519 H 0.90438 0.25497 0.51314 0.0
H520 H 0.78848 0.2004 0.51973 0.0
C521 C 0.67949 0.29243 0.53925 0.0
C522 C 0.68082 0.32194 0.54164 0.0
C523 C 0.72254 0.33586 0.53945 0.0
C524 C 0.76243 0.32064 0.5345 0.0
C525 C 0.7599 0.29158 0.53191 0.0
C526 C 0.71956 0.27759 0.53437 0.0
C527 C 0.72607 0.24624 0.53049 0.0
C528 C 0.71021 0.23123 0.57476 0.0
C529 C 0.70238 0.23474 0.48746 0.0
C530 C 0.77646 0.24477 0.5253 0.0
C531 C 0.79523 0.27118 0.52616 0.0
C532 C 0.84112 0.27529 0.5217 0.0
C533 C 0.86863 0.25179 0.51644 0.0
C534 C 0.85021 0.22449 0.51574 0.0
C535 C 0.80348 0.221 0.52015 0.0
loop_
_geom_bond_atom_site_label_1
_geom_bond_atom_site_label_2
_geom_bond_distance
_geom_bond_site_symmetry_2
_ccdc_geom_bond_type
In0 O1 2.294 1_455 S
In0 O2 2.326 . S
In0 O6 2.266 1_454 S
In0 O7 2.326 1_554 S
In0 O8 2.266 . S
In0 O9 2.326 1_455 S
In0 O11 2.294 . S
In0 O12 2.326 . S
O1 In0 2.294 1_655 S
O1 C10 1.240 1_655 S
O2 In0 2.326 . S
O2 C10 1.252 . S
C3 O6 1.252 1_455 S
C3 O7 1.260 . S
C4 O11 1.240 . S
C4 O12 1.252 . S
C5 O8 1.252 . S
C5 O9 1.260 1_455 S
O6 In0 2.266 1_656 S
O6 C3 1.252 1_655 S
O7 In0 2.326 1_556 S
O7 C3 1.260 . S
O8 In0 2.266 . S
O8 C5 1.252 . S
O9 In0 2.326 1_655 S
O9 C5 1.260 1_655 S
C10 O1 1.240 1_455 S
C10 O2 1.252 . S
O11 In0 2.294 . S
O11 C4 1.240 . S
O12 In0 2.326 . S
O12 C4 1.252 . S
In13 O14 2.294 . S
In13 O15 2.326 . S
In13 O19 2.266 . S
In13 O20 2.326 1_655 S
In13 O21 2.266 1_654 S
In13 O22 2.326 1_554 S
In13 O24 2.294 1_655 S
In13 O25 2.326 . S
O14 In13 2.294 . S
O14 C23 1.240 . S
O15 In13 2.326 . S
O15 C23 1.252 . S
C16 O19 1.252 . S
C16 O20 1.260 1_655 S
C17 O24 1.240 1_655 S
C17 O25 1.252 . S
C18 O21 1.252 1_655 S
C18 O22 1.260 . S
O19 In13 2.266 . S
O19 C16 1.252 . S
O20 In13 2.326 1_455 S
O20 C16 1.260 1_455 S
O21 In13 2.266 1_456 S
O21 C18 1.252 1_455 S
O22 In13 2.326 1_556 S
O22 C18 1.260 . S
C23 O14 1.240 . S
C23 O15 1.252 . S
O24 In13 2.294 1_455 S
O24 C17 1.240 1_455 S
O25 In13 2.326 . S
O25 C17 1.252 . S
In26 O27 2.294 1_455 S
In26 O28 2.326 . S
In26 O32 2.266 1_455 S
In26 O33 2.326 . S
In26 O34 2.266 . S
In26 O35 2.326 1_455 S
In26 O37 2.294 . S
In26 O38 2.326 . S
O27 In26 2.294 1_655 S
O27 C36 1.240 1_655 S
O28 In26 2.326 . S
O28 C36 1.252 . S
C29 O32 1.252 1_455 S
C29 O33 1.260 . S
C30 O37 1.240 . S
C30 O38 1.252 . S
C31 O34 1.252 . S
C31 O35 1.260 1_455 S
O32 In26 2.266 1_655 S
O32 C29 1.252 1_655 S
O33 In26 2.326 . S
O33 C29 1.260 . S
O34 In26 2.266 . S
O34 C31 1.252 . S
O35 In26 2.326 1_655 S
O35 C31 1.260 1_655 S
C36 O27 1.240 1_455 S
C36 O28 1.252 . S
O37 In26 2.294 . S
O37 C30 1.240 . S
O38 In26 2.326 . S
O38 C30 1.252 . S
In39 O40 2.294 1_655 S
In39 O41 2.326 . S
In39 O45 2.266 1_655 S
In39 O46 2.326 . S
In39 O47 2.266 . S
In39 O48 2.326 1_655 S
In39 O50 2.294 . S
In39 O51 2.326 . S
O40 In39 2.294 1_455 S
O40 C49 1.240 1_455 S
O41 In39 2.326 . S
O41 C49 1.252 . S
C42 O45 1.252 1_655 S
C42 O46 1.260 . S
C43 O50 1.240 . S
C43 O51 1.252 . S
C44 O47 1.252 . S
C44 O48 1.260 1_655 S
O45 In39 2.266 1_455 S
O45 C42 1.252 1_455 S
O46 In39 2.326 . S
O46 C42 1.260 . S
O47 In39 2.266 . S
O47 C44 1.252 . S
O48 In39 2.326 1_455 S
O48 C44 1.260 1_455 S
C49 O40 1.240 1_655 S
C49 O41 1.252 . S
O50 In39 2.294 . S
O50 C43 1.240 . S
O51 In39 2.326 . S
O51 C43 1.252 . S
In52 O53 2.294 . S
In52 O54 2.326 . S
In52 O58 2.266 . S
In52 O59 2.326 . S
In52 O60 2.266 1_554 S
In52 O61 2.326 1_554 S
In52 O63 2.294 . S
In52 O64 2.326 . S
O53 In52 2.294 . S
O53 C62 1.240 . S
O54 In52 2.326 . S
O54 C62 1.252 . S
C55 O58 1.252 . S
C55 O59 1.260 . S
C56 O63 1.240 . S
C56 O64 1.252 . S
C57 O60 1.252 . S
C57 O61 1.260 . S
O58 In52 2.266 . S
O58 C55 1.252 . S
O59 In52 2.326 . S
O59 C55 1.260 . S
O60 In52 2.266 1_556 S
O60 C57 1.252 . S
O61 In52 2.326 1_556 S
O61 C57 1.260 . S
C62 O53 1.240 . S
C62 O54 1.252 . S
O63 In52 2.294 . S
O63 C56 1.240 . S
O64 In52 2.326 . S
O64 C56 1.252 . S
In65 O66 2.294 . S
In65 O67 2.326 . S
In65 O71 2.266 1_554 S
In65 O72 2.326 1_554 S
In65 O73 2.266 . S
In65 O74 2.326 . S
In65 O76 2.294 . S
In65 O77 2.326 . S
O66 In65 2.294 . S
O66 C75 1.240 . S
O67 In65 2.326 . S
O67 C75 1.252 . S
C68 O71 1.252 . S
C68 O72 1.260 . S
C69 O76 1.240 . S
C69 O77 1.252 . S
C70 O73 1.252 . S
C70 O74 1.260 . S
O71 In65 2.266 1_556 S
O71 C68 1.252 . S
O72 In65 2.326 1_556 S
O72 C68 1.260 . S
O73 In65 2.266 . S
O73 C70 1.252 . S
O74 In65 2.326 . S
O74 C70 1.260 . S
C75 O66 1.240 . S
C75 O67 1.252 . S
O76 In65 2.294 . S
O76 C69 1.240 . S
O77 In65 2.326 . S
O77 C69 1.252 . S
In78 O79 2.294 . S
In78 O80 2.326 . S
In78 O84 2.266 . S
In78 O85 2.326 . S
In78 O86 2.266 . S
In78 O87 2.326 . S
In78 O89 2.294 . S
In78 O90 2.326 . S
O79 In78 2.294 . S
O79 C88 1.240 . S
O80 In78 2.326 . S
O80 C88 1.252 . S
C81 O84 1.252 . S
C81 O85 1.260 . S
C82 O89 1.240 . S
C82 O90 1.252 . S
C83 O86 1.252 . S
C83 O87 1.260 . S
O84 In78 2.266 . S
O84 C81 1.252 . S
O85 In78 2.326 . S
O85 C81 1.260 . S
O86 In78 2.266 . S
O86 C83 1.252 . S
O87 In78 2.326 . S
O87 C83 1.260 . S
C88 O79 1.240 . S
C88 O80 1.252 . S
O89 In78 2.294 . S
O89 C82 1.240 . S
O90 In78 2.326 . S
O90 C82 1.252 . S
In91 O92 2.294 . S
In91 O93 2.326 . S
In91 O97 2.266 . S
In91 O98 2.326 . S
In91 O99 2.266 . S
In91 O100 2.326 . S
In91 O102 2.294 . S
In91 O103 2.326 . S
O92 In91 2.294 . S
O92 C101 1.240 . S
O93 In91 2.326 . S
O93 C101 1.252 . S
C94 O97 1.252 . S
C94 O98 1.260 . S
C95 O102 1.240 . S
C95 O103 1.252 . S
C96 O99 1.252 . S
C96 O100 1.260 . S
O97 In91 2.266 . S
O97 C94 1.252 . S
O98 In91 2.326 . S
O98 C94 1.260 . S
O99 In91 2.266 . S
O99 C96 1.252 . S
O100 In91 2.326 . S
O100 C96 1.260 . S
C101 O92 1.240 . S
C101 O93 1.252 . S
O102 In91 2.294 . S
O102 C95 1.240 . S
O103 In91 2.326 . S
O103 C95 1.252 . S
H104 C116 0.930 . S
H105 C118 0.930 . S
H106 C119 0.930 . S
H107 C123 0.959 . S
H108 C123 0.959 . S
H109 C123 0.961 1_565 S
H110 C124 0.960 . S
H111 C124 0.961 1_545 S
H112 C124 0.959 . S
H113 C127 0.929 . S
H114 C128 0.931 . S
H115 C130 0.930 . S
C116 H104 0.930 . S
C116 C117 1.399 . S
C116 C121 1.399 . S
C117 C116 1.399 . S
C117 C118 1.376 1_554 S
C118 H105 0.930 . S
C118 C117 1.376 1_556 S
C118 C119 1.388 1_655 S
C119 H106 0.930 . S
C119 C118 1.388 1_455 S
C119 C120 1.390 . S
C120 C119 1.390 . S
C120 C121 1.394 1_456 S
C120 C126 1.465 1_565 S
C121 C116 1.399 . S
C121 C120 1.394 1_654 S
C121 C122 1.497 1_565 S
C122 C121 1.497 1_545 S
C122 C123 1.506 . S
C122 C124 1.558 1_645 S
C122 C125 1.544 1_655 S
C123 H107 0.959 . S
C123 H108 0.959 . S
C123 H109 0.961 1_545 S
C123 C122 1.506 . S
C124 H110 0.960 . S
C124 H111 0.961 1_565 S
C124 H112 0.959 . S
C124 C122 1.558 1_465 S
C125 C122 1.544 1_455 S
C125 C126 1.396 1_554 S
C125 C130 1.390 . S
C126 C120 1.465 1_545 S
C126 C125 1.396 1_556 S
C126 C127 1.399 . S
C127 H113 0.929 . S
C127 C126 1.399 . S
C127 C128 1.385 . S
C128 H114 0.931 . S
C128 C127 1.385 . S
C128 C129 1.389 1_556 S
C129 C128 1.389 1_554 S
C129 C130 1.387 . S
C130 H115 0.930 . S
C130 C125 1.390 . S
C130 C129 1.387 . S
H131 C143 0.930 . S
H132 C145 0.930 1_655 S
H133 C146 0.930 . S
H134 C150 0.959 . S
H135 C150 0.959 . S
H136 C150 0.961 1_565 S
H137 C151 0.960 . S
H138 C151 0.961 1_545 S
H139 C151 0.959 . S
H140 C154 0.929 . S
H141 C155 0.931 . S
H142 C157 0.930 . S
C143 H131 0.930 . S
C143 C144 1.399 . S
C143 C148 1.399 . S
C144 C143 1.399 . S
C144 C145 1.376 . S
C145 H132 0.930 1_455 S
C145 C144 1.376 . S
C145 C146 1.388 1_455 S
C146 H133 0.930 . S
C146 C145 1.388 1_655 S
C146 C147 1.390 . S
C147 C146 1.390 . S
C147 C148 1.394 1_655 S
C147 C153 1.465 1_565 S
C148 C143 1.399 . S
C148 C147 1.394 1_455 S
C148 C149 1.516 1_565 S
C149 C148 1.516 1_545 S
C149 C150 1.502 . S
C149 C151 1.561 1_445 S
C149 C152 1.526 1_455 S
C150 H134 0.959 . S
C150 H135 0.959 . S
C150 H136 0.961 1_545 S
C150 C149 1.502 . S
C151 H137 0.960 . S
C151 H138 0.961 1_565 S
C151 H139 0.959 . S
C151 C149 1.561 1_665 S
C152 C149 1.526 1_655 S
C152 C153 1.396 . S
C152 C157 1.390 . S
C153 C147 1.465 1_545 S
C153 C152 1.396 . S
C153 C154 1.399 . S
C154 H140 0.929 . S
C154 C153 1.399 . S
C154 C155 1.385 . S
C155 H141 0.931 . S
C155 C154 1.385 . S
C155 C156 1.389 . S
C156 C155 1.389 . S
C156 C157 1.387 . S
C157 H142 0.930 . S
C157 C152 1.390 . S
C157 C156 1.387 . S
H158 C170 0.930 . S
H159 C172 0.930 . S
H160 C173 0.930 . S
H161 C177 0.959 . S
H162 C177 0.959 . S
H163 C177 0.961 . S
H164 C178 0.960 . S
H165 C178 0.961 . S
H166 C178 0.959 . S
H167 C181 0.929 . S
H168 C182 0.931 . S
H169 C184 0.930 . S
C170 H158 0.930 . S
C170 C171 1.399 . S
C170 C175 1.399 . S
C171 C170 1.399 . S
C171 C172 1.376 1_554 S
C172 H159 0.930 . S
C172 C171 1.376 1_556 S
C172 C173 1.388 . S
C173 H160 0.930 . S
C173 C172 1.388 . S
C173 C174 1.390 1_556 S
C174 C173 1.390 1_554 S
C174 C175 1.394 . S
C174 C180 1.465 . S
C175 C170 1.399 . S
C175 C174 1.394 . S
C175 C176 1.516 . S
C176 C175 1.516 . S
C176 C177 1.502 . S
C176 C178 1.561 . S
C176 C179 1.526 . S
C177 H161 0.959 . S
C177 H162 0.959 . S
C177 H163 0.961 . S
C177 C176 1.502 . S
C178 H164 0.960 . S
C178 H165 0.961 . S
C178 H166 0.959 . S
C178 C176 1.561 . S
C179 C176 1.526 . S
C179 C180 1.396 . S
C179 C184 1.390 . S
C180 C174 1.465 . S
C180 C179 1.396 . S
C180 C181 1.399 1_554 S
C181 H167 0.929 . S
C181 C180 1.399 1_556 S
C181 C182 1.385 . S
C182 H168 0.931 . S
C182 C181 1.385 . S
C182 C183 1.389 1_556 S
C183 C182 1.389 1_554 S
C183 C184 1.387 . S
C184 H169 0.930 . S
C184 C179 1.390 . S
C184 C183 1.387 . S
H185 C197 0.930 . S
H186 C199 0.930 . S
H187 C200 0.930 . S
H188 C204 0.959 . S
H189 C204 0.959 . S
H190 C204 0.961 . S
H191 C205 0.960 . S
H192 C205 0.961 . S
H193 C205 0.959 . S
H194 C208 0.929 . S
H195 C209 0.931 . S
H196 C211 0.930 . S
C197 H185 0.930 . S
C197 C198 1.399 . S
C197 C202 1.399 . S
C198 C197 1.399 . S
C198 C199 1.376 . S
C199 H186 0.930 . S
C199 C198 1.376 . S
C199 C200 1.388 . S
C200 H187 0.930 . S
C200 C199 1.388 . S
C200 C201 1.390 . S
C201 C200 1.390 . S
C201 C202 1.394 . S
C201 C207 1.465 . S
C202 C197 1.399 . S
C202 C201 1.394 . S
C202 C203 1.516 . S
C203 C202 1.516 . S
C203 C204 1.502 . S
C203 C205 1.561 . S
C203 C206 1.526 . S
C204 H188 0.959 . S
C204 H189 0.959 . S
C204 H190 0.961 . S
C204 C203 1.502 . S
C205 H191 0.960 . S
C205 H192 0.961 . S
C205 H193 0.959 . S
C205 C203 1.561 . S
C206 C203 1.526 . S
C206 C207 1.396 . S
C206 C211 1.390 . S
C207 C201 1.465 . S
C207 C206 1.396 . S
C207 C208 1.399 . S
C208 H194 0.929 . S
C208 C207 1.399 . S
C208 C209 1.385 . S
C209 H195 0.931 . S
C209 C208 1.385 . S
C209 C210 1.389 . S
C210 C209 1.389 . S
C210 C211 1.387 . S
C211 H196 0.930 . S
C211 C206 1.390 . S
C211 C210 1.387 . S
H212 C224 0.930 . S
H213 C226 0.930 . S
H214 C227 0.930 . S
H215 C231 0.959 . S
H216 C231 0.959 . S
H217 C231 0.961 . S
H218 C232 0.960 . S
H219 C232 0.961 . S
H220 C232 0.959 . S
H221 C235 0.929 . S
H222 C236 0.931 . S
H223 C238 0.930 . S
C224 H212 0.930 . S
C224 C225 1.399 1_655 S
C224 C229 1.399 . S
C225 C224 1.399 1_455 S
C225 C226 1.376 . S
C226 H213 0.930 . S
C226 C225 1.376 . S
C226 C227 1.388 . S
C227 H214 0.930 . S
C227 C226 1.388 . S
C227 C228 1.390 . S
C228 C227 1.390 . S
C228 C229 1.394 1_455 S
C228 C234 1.465 . S
C229 C224 1.399 . S
C229 C228 1.394 1_655 S
C229 C230 1.516 . S
C230 C229 1.516 . S
C230 C231 1.502 . S
C230 C232 1.561 1_655 S
C230 C233 1.526 . S
C231 H215 0.959 . S
C231 H216 0.959 . S
C231 H217 0.961 . S
C231 C230 1.502 . S
C232 H218 0.960 . S
C232 H219 0.961 . S
C232 H220 0.959 . S
C232 C230 1.561 1_455 S
C233 C230 1.526 . S
C233 C234 1.396 1_655 S
C233 C238 1.390 . S
C234 C228 1.465 . S
C234 C233 1.396 1_455 S
C234 C235 1.399 . S
C235 H221 0.929 . S
C235 C234 1.399 . S
C235 C236 1.385 . S
C236 H222 0.931 . S
C236 C235 1.385 . S
C236 C237 1.389 1_455 S
C237 C236 1.389 1_655 S
C237 C238 1.387 . S
C238 H223 0.930 . S
C238 C233 1.390 . S
C238 C237 1.387 . S
H239 C251 0.930 . S
H240 C253 0.930 . S
H241 C254 0.930 . S
H242 C258 0.959 . S
H243 C258 0.959 . S
H244 C258 0.961 . S
H245 C259 0.960 . S
H246 C259 0.961 . S
H247 C259 0.959 . S
H248 C262 0.929 . S
H249 C263 0.931 . S
H250 C265 0.930 . S
C251 H239 0.930 . S
C251 C252 1.399 . S
C251 C256 1.399 . S
C252 C251 1.399 . S
C252 C253 1.376 1_455 S
C253 H240 0.930 . S
C253 C252 1.376 1_655 S
C253 C254 1.388 . S
C254 H241 0.930 . S
C254 C253 1.388 . S
C254 C255 1.390 . S
C255 C254 1.390 . S
C255 C256 1.394 1_655 S
C255 C261 1.465 . S
C256 C251 1.399 . S
C256 C255 1.394 1_455 S
C256 C257 1.516 . S
C257 C256 1.516 . S
C257 C258 1.502 . S
C257 C259 1.561 1_455 S
C257 C260 1.526 . S
C258 H242 0.959 . S
C258 H243 0.959 . S
C258 H244 0.961 . S
C258 C257 1.502 . S
C259 H245 0.960 . S
C259 H246 0.961 . S
C259 H247 0.959 . S
C259 C257 1.561 1_655 S
C260 C257 1.526 . S
C260 C261 1.396 1_455 S
C260 C265 1.390 . S
C261 C255 1.465 . S
C261 C260 1.396 1_655 S
C261 C262 1.399 . S
C262 H248 0.929 . S
C262 C261 1.399 . S
C262 C263 1.385 . S
C263 H249 0.931 . S
C263 C262 1.385 . S
C263 C264 1.389 . S
C264 C263 1.389 . S
C264 C265 1.387 1_655 S
C265 H250 0.930 . S
C265 C260 1.390 . S
C265 C264 1.387 1_455 S
H266 C278 0.930 . S
H267 C280 0.930 . S
H268 C281 0.930 . S
H269 C285 0.959 . S
H270 C285 0.959 . S
H271 C285 0.961 . S
H272 C286 0.960 1_455 S
H273 C286 0.961 1_455 S
H274 C286 0.959 . S
H275 C289 0.929 . S
H276 C290 0.931 . S
H277 C292 0.930 . S
C278 H266 0.930 . S
C278 C279 1.399 1_455 S
C278 C283 1.399 . S
C279 C278 1.399 1_655 S
C279 C280 1.376 . S
C280 H267 0.930 . S
C280 C279 1.376 . S
C280 C281 1.388 . S
C281 H268 0.930 . S
C281 C280 1.388 . S
C281 C282 1.390 . S
C282 C281 1.390 . S
C282 C283 1.394 1_655 S
C282 C288 1.465 . S
C283 C278 1.399 . S
C283 C282 1.394 1_455 S
C283 C284 1.516 . S
C284 C283 1.516 . S
C284 C285 1.502 . S
C284 C286 1.561 1_455 S
C284 C287 1.526 . S
C285 H269 0.959 . S
C285 H270 0.959 . S
C285 H271 0.961 . S
C285 C284 1.502 . S
C286 H272 0.960 1_655 S
C286 H273 0.961 1_655 S
C286 H274 0.959 . S
C286 C284 1.561 1_655 S
C287 C284 1.526 . S
C287 C288 1.396 1_455 S
C287 C292 1.390 . S
C288 C282 1.465 . S
C288 C287 1.396 1_655 S
C288 C289 1.399 . S
C289 H275 0.929 . S
C289 C288 1.399 . S
C289 C290 1.385 . S
C290 H276 0.931 . S
C290 C289 1.385 . S
C290 C291 1.389 . S
C291 C290 1.389 . S
C291 C292 1.387 1_655 S
C292 H277 0.930 . S
C292 C287 1.390 . S
C292 C291 1.387 1_455 S
H293 C305 0.930 . S
H294 C307 0.930 . S
H295 C308 0.930 . S
H296 C312 0.959 . S
H297 C312 0.959 . S
H298 C312 0.961 . S
H299 C313 0.960 . S
H300 C313 0.961 . S
H301 C313 0.959 . S
H302 C316 0.929 . S
H303 C317 0.931 . S
H304 C319 0.930 . S
C305 H293 0.930 . S
C305 C306 1.399 1_655 S
C305 C310 1.399 . S
C306 C305 1.399 1_455 S
C306 C307 1.376 . S
C307 H294 0.930 . S
C307 C306 1.376 . S
C307 C308 1.388 . S
C308 H295 0.930 . S
C308 C307 1.388 . S
C308 C309 1.390 . S
C309 C308 1.390 . S
C309 C310 1.394 1_455 S
C309 C315 1.465 . S
C310 C305 1.399 . S
C310 C309 1.394 1_655 S
C310 C311 1.516 . S
C311 C310 1.516 . S
C311 C312 1.502 . S
C311 C313 1.561 1_655 S
C311 C314 1.526 . S
C312 H296 0.959 . S
C312 H297 0.959 . S
C312 H298 0.961 . S
C312 C311 1.502 . S
C313 H299 0.960 . S
C313 H300 0.961 . S
C313 H301 0.959 . S
C313 C311 1.561 1_455 S
C314 C311 1.526 . S
C314 C315 1.396 1_655 S
C314 C319 1.390 . S
C315 C309 1.465 . S
C315 C314 1.396 1_455 S
C315 C316 1.399 . S
C316 H302 0.929 . S
C316 C315 1.399 . S
C316 C317 1.385 . S
C317 H303 0.931 . S
C317 C316 1.385 . S
C317 C318 1.389 . S
C318 C317 1.389 . S
C318 C319 1.387 1_455 S
C319 H304 0.930 . S
C319 C314 1.390 . S
C319 C318 1.387 1_655 S
H320 C332 0.930 . S
H321 C334 0.930 . S
H322 C335 0.930 . S
H323 C339 0.959 . S
H324 C339 0.959 . S
H325 C339 0.961 . S
H326 C340 0.960 . S
H327 C340 0.961 . S
H328 C340 0.959 . S
H329 C343 0.929 . S
H330 C344 0.931 . S
H331 C346 0.930 . S
C332 H320 0.930 . S
C332 C333 1.399 . S
C332 C337 1.399 . S
C333 C332 1.399 . S
C333 C334 1.376 . S
C334 H321 0.930 . S
C334 C333 1.376 . S
C334 C335 1.388 . S
C335 H322 0.930 . S
C335 C334 1.388 . S
C335 C336 1.390 . S
C336 C335 1.390 . S
C336 C337 1.394 . S
C336 C342 1.465 . S
C337 C332 1.399 . S
C337 C336 1.394 . S
C337 C338 1.516 . S
C338 C337 1.516 . S
C338 C339 1.502 . S
C338 C340 1.561 . S
C338 C341 1.526 . S
C339 H323 0.959 . S
C339 H324 0.959 . S
C339 H325 0.961 . S
C339 C338 1.502 . S
C340 H326 0.960 . S
C340 H327 0.961 . S
C340 H328 0.959 . S
C340 C338 1.561 . S
C341 C338 1.526 . S
C341 C342 1.396 . S
C341 C346 1.390 . S
C342 C336 1.465 . S
C342 C341 1.396 . S
C342 C343 1.399 . S
C343 H329 0.929 . S
C343 C342 1.399 . S
C343 C344 1.385 . S
C344 H330 0.931 . S
C344 C343 1.385 . S
C344 C345 1.389 . S
C345 C344 1.389 . S
C345 C346 1.387 . S
C346 H331 0.930 . S
C346 C341 1.390 . S
C346 C345 1.387 . S
H347 C359 0.930 . S
H348 C361 0.930 . S
H349 C362 0.930 . S
H350 C366 0.959 . S
H351 C366 0.959 . S
H352 C366 0.961 . S
H353 C367 0.960 . S
H354 C367 0.961 . S
H355 C367 0.959 . S
H356 C370 0.929 . S
H357 C371 0.931 . S
H358 C373 0.930 . S
C359 H347 0.930 . S
C359 C360 1.399 . S
C359 C364 1.399 . S
C360 C359 1.399 . S
C360 C361 1.376 . S
C361 H348 0.930 . S
C361 C360 1.376 . S
C361 C362 1.388 . S
C362 H349 0.930 . S
C362 C361 1.388 . S
C362 C363 1.390 . S
C363 C362 1.390 . S
C363 C364 1.394 . S
C363 C369 1.465 . S
C364 C359 1.399 . S
C364 C363 1.394 . S
C364 C365 1.516 . S
C365 C364 1.516 . S
C365 C366 1.502 . S
C365 C367 1.561 . S
C365 C368 1.526 . S
C366 H350 0.959 . S
C366 H351 0.959 . S
C366 H352 0.961 . S
C366 C365 1.502 . S
C367 H353 0.960 . S
C367 H354 0.961 . S
C367 H355 0.959 . S
C367 C365 1.561 . S
C368 C365 1.526 . S
C368 C369 1.396 . S
C368 C373 1.390 . S
C369 C363 1.465 . S
C369 C368 1.396 . S
C369 C370 1.399 . S
C370 H356 0.929 . S
C370 C369 1.399 . S
C370 C371 1.385 . S
C371 H357 0.931 . S
C371 C370 1.385 . S
C371 C372 1.389 . S
C372 C371 1.389 . S
C372 C373 1.387 . S
C373 H358 0.930 . S
C373 C368 1.390 . S
C373 C372 1.387 . S
H374 C386 0.930 . S
H375 C388 0.930 . S
H376 C389 0.930 . S
H377 C393 0.959 . S
H378 C393 0.959 . S
H379 C393 0.961 . S
H380 C394 0.960 . S
H381 C394 0.961 . S
H382 C394 0.959 . S
H383 C397 0.929 . S
H384 C398 0.931 . S
H385 C400 0.930 . S
C386 H374 0.930 . S
C386 C387 1.399 . S
C386 C391 1.399 . S
C387 C386 1.399 . S
C387 C388 1.376 . S
C388 H375 0.930 . S
C388 C387 1.376 . S
C388 C389 1.388 . S
C389 H376 0.930 . S
C389 C388 1.388 . S
C389 C390 1.390 . S
C390 C389 1.390 . S
C390 C391 1.394 . S
C390 C396 1.465 . S
C391 C386 1.399 . S
C391 C390 1.394 . S
C391 C392 1.516 . S
C392 C391 1.516 . S
C392 C393 1.502 . S
C392 C394 1.561 . S
C392 C395 1.526 . S
C393 H377 0.959 . S
C393 H378 0.959 . S
C393 H379 0.961 . S
C393 C392 1.502 . S
C394 H380 0.960 . S
C394 H381 0.961 . S
C394 H382 0.959 . S
C394 C392 1.561 . S
C395 C392 1.526 . S
C395 C396 1.396 . S
C395 C400 1.390 . S
C396 C390 1.465 . S
C396 C395 1.396 . S
C396 C397 1.399 . S
C397 H383 0.929 . S
C397 C396 1.399 . S
C397 C398 1.385 . S
C398 H384 0.931 . S
C398 C397 1.385 . S
C398 C399 1.389 . S
C399 C398 1.389 . S
C399 C400 1.387 . S
C400 H385 0.930 . S
C400 C395 1.390 . S
C400 C399 1.387 . S
H401 C413 0.930 . S
H402 C415 0.930 . S
H403 C416 0.930 . S
H404 C420 0.959 . S
H405 C420 0.959 . S
H406 C420 0.961 . S
H407 C421 0.960 . S
H408 C421 0.961 . S
H409 C421 0.959 . S
H410 C424 0.929 . S
H411 C425 0.931 . S
H412 C427 0.930 . S
C413 H401 0.930 . S
C413 C414 1.399 . S
C413 C418 1.399 . S
C414 C413 1.399 . S
C414 C415 1.376 . S
C415 H402 0.930 . S
C415 C414 1.376 . S
C415 C416 1.388 . S
C416 H403 0.930 . S
C416 C415 1.388 . S
C416 C417 1.390 . S
C417 C416 1.390 . S
C417 C418 1.394 . S
C417 C423 1.465 . S
C418 C413 1.399 . S
C418 C417 1.394 . S
C418 C419 1.516 . S
C419 C418 1.516 . S
C419 C420 1.502 . S
C419 C421 1.561 . S
C419 C422 1.526 . S
C420 H404 0.959 . S
C420 H405 0.959 . S
C420 H406 0.961 . S
C420 C419 1.502 . S
C421 H407 0.960 . S
C421 H408 0.961 . S
C421 H409 0.959 . S
C421 C419 1.561 . S
C422 C419 1.526 . S
C422 C423 1.396 . S
C422 C427 1.390 . S
C423 C417 1.465 . S
C423 C422 1.396 . S
C423 C424 1.399 . S
C424 H410 0.929 . S
C424 C423 1.399 . S
C424 C425 1.385 . S
C425 H411 0.931 . S
C425 C424 1.385 . S
C425 C426 1.389 . S
C426 C425 1.389 . S
C426 C427 1.387 . S
C427 H412 0.930 . S
C427 C422 1.390 . S
C427 C426 1.387 . S
H428 C440 0.930 1_556 S
H429 C442 0.930 . S
H430 C443 0.930 . S
H431 C447 0.959 . S
H432 C447 0.959 . S
H433 C447 0.961 . S
H434 C448 0.960 . S
H435 C448 0.961 . S
H436 C448 0.959 . S
H437 C451 0.929 . S
H438 C452 0.931 . S
H439 C454 0.930 1_556 S
C440 H428 0.930 1_554 S
C440 C441 1.399 . S
C440 C445 1.399 . S
C441 C440 1.399 . S
C441 C442 1.376 . S
C442 H429 0.930 . S
C442 C441 1.376 . S
C442 C443 1.388 . S
C443 H430 0.930 . S
C443 C442 1.388 . S
C443 C444 1.390 . S
C444 C443 1.390 . S
C444 C445 1.394 . S
C444 C450 1.465 . S
C445 C440 1.399 . S
C445 C444 1.394 . S
C445 C446 1.516 1_554 S
C446 C445 1.516 1_556 S
C446 C447 1.502 . S
C446 C448 1.561 . S
C446 C449 1.526 1_556 S
C447 H431 0.959 . S
C447 H432 0.959 . S
C447 H433 0.961 . S
C447 C446 1.502 . S
C448 H434 0.960 . S
C448 H435 0.961 . S
C448 H436 0.959 . S
C448 C446 1.561 . S
C449 C446 1.526 1_554 S
C449 C450 1.396 . S
C449 C454 1.390 . S
C450 C444 1.465 . S
C450 C449 1.396 . S
C450 C451 1.399 . S
C451 H437 0.929 . S
C451 C450 1.399 . S
C451 C452 1.385 . S
C452 H438 0.931 . S
C452 C451 1.385 . S
C452 C453 1.389 . S
C453 C452 1.389 . S
C453 C454 1.387 . S
C454 H439 0.930 1_554 S
C454 C449 1.390 . S
C454 C453 1.387 . S
H455 C467 0.930 . S
H456 C469 0.931 . S
H457 C470 0.930 . S
H458 C474 0.959 . S
H459 C474 0.959 . S
H460 C474 0.961 . S
H461 C475 0.960 . S
H462 C475 0.961 . S
H463 C475 0.959 . S
H464 C478 0.929 . S
H465 C479 0.931 . S
H466 C481 0.930 . S
C467 H455 0.930 . S
C467 C468 1.399 . S
C467 C472 1.399 . S
C468 C467 1.399 . S
C468 C469 1.376 1_554 S
C469 H456 0.931 . S
C469 C468 1.376 1_556 S
C469 C470 1.388 . S
C470 H457 0.930 . S
C470 C469 1.388 . S
C470 C471 1.390 1_556 S
C471 C470 1.390 1_554 S
C471 C472 1.394 . S
C471 C477 1.465 . S
C472 C467 1.399 . S
C472 C471 1.394 . S
C472 C473 1.516 . S
C473 C472 1.516 . S
C473 C474 1.502 . S
C473 C475 1.561 . S
C473 C476 1.526 . S
C474 H458 0.959 . S
C474 H459 0.959 . S
C474 H460 0.961 . S
C474 C473 1.502 . S
C475 H461 0.960 . S
C475 H462 0.961 . S
C475 H463 0.959 . S
C475 C473 1.561 . S
C476 C473 1.526 . S
C476 C477 1.396 . S
C476 C481 1.390 . S
C477 C471 1.465 . S
C477 C476 1.396 . S
C477 C478 1.399 1_554 S
C478 H464 0.929 . S
C478 C477 1.399 1_556 S
C478 C479 1.385 . S
C479 H465 0.931 . S
C479 C478 1.385 . S
C479 C480 1.389 1_556 S
C480 C479 1.389 1_554 S
C480 C481 1.387 . S
C481 H466 0.930 . S
C481 C476 1.390 . S
C481 C480 1.387 . S
H482 C494 0.930 . S
H483 C496 0.930 . S
H484 C497 0.930 . S
H485 C501 0.959 . S
H486 C501 0.959 . S
H487 C501 0.961 . S
H488 C502 0.960 . S
H489 C502 0.961 . S
H490 C502 0.959 . S
H491 C505 0.929 . S
H492 C506 0.931 . S
H493 C508 0.930 . S
C494 H482 0.930 . S
C494 C495 1.399 . S
C494 C499 1.399 . S
C495 C494 1.399 . S
C495 C496 1.376 . S
C496 H483 0.930 . S
C496 C495 1.376 . S
C496 C497 1.388 . S
C497 H484 0.930 . S
C497 C496 1.388 . S
C497 C498 1.390 . S
C498 C497 1.390 . S
C498 C499 1.394 . S
C498 C504 1.465 . S
C499 C494 1.399 . S
C499 C498 1.394 . S
C499 C500 1.516 . S
C500 C499 1.516 . S
C500 C501 1.502 . S
C500 C502 1.561 . S
C500 C503 1.526 . S
C501 H485 0.959 . S
C501 H486 0.959 . S
C501 H487 0.961 . S
C501 C500 1.502 . S
C502 H488 0.960 . S
C502 H489 0.961 . S
C502 H490 0.959 . S
C502 C500 1.561 . S
C503 C500 1.526 . S
C503 C504 1.396 . S
C503 C508 1.390 . S
C504 C498 1.465 . S
C504 C503 1.396 . S
C504 C505 1.399 . S
C505 H491 0.929 . S
C505 C504 1.399 . S
C505 C506 1.385 . S
C506 H492 0.931 . S
C506 C505 1.385 . S
C506 C507 1.389 . S
C507 C506 1.389 . S
C507 C508 1.387 . S
C508 H493 0.930 . S
C508 C503 1.390 . S
C508 C507 1.387 . S
H509 C521 0.930 . S
H510 C523 0.930 . S
H511 C524 0.930 . S
H512 C528 0.959 . S
H513 C528 0.959 . S
H514 C528 0.961 . S
H515 C529 0.960 . S
H516 C529 0.961 . S
H517 C529 0.959 . S
H518 C532 0.929 . S
H519 C533 0.931 . S
H520 C535 0.930 . S
C521 H509 0.930 . S
C521 C522 1.399 . S
C521 C526 1.399 . S
C522 C521 1.399 . S
C522 C523 1.376 . S
C523 H510 0.930 . S
C523 C522 1.376 . S
C523 C524 1.388 . S
C524 H511 0.930 . S
C524 C523 1.388 . S
C524 C525 1.390 . S
C525 C524 1.390 . S
C525 C526 1.394 . S
C525 C531 1.465 . S
C526 C521 1.399 . S
C526 C525 1.394 . S
C526 C527 1.516 . S
C527 C526 1.516 . S
C527 C528 1.502 . S
C527 C529 1.561 . S
C527 C530 1.526 . S
C528 H512 0.959 . S
C528 H513 0.959 . S
C528 H514 0.961 . S
C528 C527 1.502 . S
C529 H515 0.960 . S
C529 H516 0.961 . S
C529 H517 0.959 . S
C529 C527 1.561 . S
C530 C527 1.526 . S
C530 C531 1.396 . S
C530 C535 1.390 . S
C531 C525 1.465 . S
C531 C530 1.396 . S
C531 C532 1.399 . S
C532 H518 0.929 . S
C532 C531 1.399 . S
C532 C533 1.385 . S
C533 H519 0.931 . S
C533 C532 1.385 . S
C533 C534 1.389 . S
C534 C533 1.389 . S
C534 C535 1.387 . S
C535 H520 0.930 . S
C535 C530 1.390 . S
C535 C534 1.387 . S
C117 C16 1.512 . S
C129 C5 1.519 . S
C144 C31 1.511 . S
C156 C44 1.519 . S
C171 C55 1.509 . S
C183 C70 1.520 . S
C198 C81 1.510 . S
C210 C94 1.504 . S
C225 C10 1.349 . S
C237 C49 1.378 . S
C252 C36 1.355 . S
C264 C17 1.327 . S
C279 C29 1.360 1_655 S
C291 C18 1.315 . S
C306 C3 1.295 . S
C318 C42 1.331 1_455 S
C333 C56 1.350 . S
C345 C95 1.378 . S
C360 C82 1.355 . S
C372 C75 1.327 . S
C387 C68 1.359 . S
C399 C83 1.318 . S
C414 C57 1.294 . S
C426 C96 1.333 . S
C441 C69 1.518 . S
C453 C4 1.516 . S
C468 C62 1.511 . S
C480 C23 1.514 . S
C495 C30 1.511 . S
C507 C101 1.513 . S
C522 C88 1.511 . S
C534 C43 1.514 . S
