# Generated by pormake.
# Topology wgh, (5)-cn, num edge types: 1
# Building blocks:
#     Node 0, Type 0, BuildingBlock: XOMCOT_clean_sbu_1, # of connection points: 5
#     Node 1, Type 0, BuildingBlock: XOMCOT_clean_sbu_1, # of connection points: 5
#     Node 2, Type 0, BuildingBlock: XOMCOT_clean_sbu_1, # of connection points: 5
#     Node 3, Type 0, BuildingBlock: XOMCOT_clean_sbu_1, # of connection points: 5
#     Node 4, Type 0, BuildingBlock: XOMCOT_clean_sbu_1, # of connection points: 5
#     Node 5, Type 0, BuildingBlock: XOMCOT_clean_sbu_1, # of connection points: 5
#     Node 6, Type 0, BuildingBlock: XOMCOT_clean_sbu_1, # of connection points: 5
#     Node 7, Type 0, BuildingBlock: XOMCOT_clean_sbu_1, # of connection points: 5
#     Node 8, Type 0, BuildingBlock: XOMCOT_clean_sbu_1, # of connection points: 5
#     Node 9, Type 0, BuildingBlock: XOMCOT_clean_sbu_1, # of connection points: 5
#     Node 10, Type 0, BuildingBlock: XOMCOT_clean_sbu_1, # of connection points: 5
#     Node 11, Type 0, BuildingBlock: XOMCOT_clean_sbu_1, # of connection points: 5
#     Node 12, Type 0, BuildingBlock: XOMCOT_clean_sbu_1, # of connection points: 5
#     Node 13, Type 0, BuildingBlock: XOMCOT_clean_sbu_1, # of connection points: 5
#     Node 14, Type 0, BuildingBlock: XOMCOT_clean_sbu_1, # of connection points: 5
#     Node 15, Type 0, BuildingBlock: XOMCOT_clean_sbu_1, # of connection points: 5
#     Node 16, Type 0, BuildingBlock: XOMCOT_clean_sbu_1, # of connection points: 5
#     Node 17, Type 0, BuildingBlock: XOMCOT_clean_sbu_1, # of connection points: 5
#     Node 18, Type 0, BuildingBlock: XOMCOT_clean_sbu_1, # of connection points: 5
#     Node 19, Type 0, BuildingBlock: XOMCOT_clean_sbu_1, # of connection points: 5
#     Node 20, Type 0, BuildingBlock: XOMCOT_clean_sbu_1, # of connection points: 5
#     Node 21, Type 0, BuildingBlock: XOMCOT_clean_sbu_1, # of connection points: 5
#     Node 22, Type 0, BuildingBlock: XOMCOT_clean_sbu_1, # of connection points: 5
#     Node 23, Type 0, BuildingBlock: XOMCOT_clean_sbu_1, # of connection points: 5
#     Node 24, Type 0, BuildingBlock: XOMCOT_clean_sbu_1, # of connection points: 5
#     Node 25, Type 0, BuildingBlock: XOMCOT_clean_sbu_1, # of connection points: 5
#     Node 26, Type 0, BuildingBlock: XOMCOT_clean_sbu_1, # of connection points: 5
#     Node 27, Type 0, BuildingBlock: XOMCOT_clean_sbu_1, # of connection points: 5
#     Node 28, Type 0, BuildingBlock: XOMCOT_clean_sbu_1, # of connection points: 5
#     Node 29, Type 0, BuildingBlock: XOMCOT_clean_sbu_1, # of connection points: 5
#     Node 30, Type 0, BuildingBlock: XOMCOT_clean_sbu_1, # of connection points: 5
#     Node 31, Type 0, BuildingBlock: XOMCOT_clean_sbu_1, # of connection points: 5
#     Edge 32, Type (0, 0), BuildingBlock: AJUNOK_clean_linker_0, # of connection points: 2
#     Edge 33, Type (0, 0), BuildingBlock: AJUNOK_clean_linker_0, # of connection points: 2
#     Edge 34, Type (0, 0), BuildingBlock: AJUNOK_clean_linker_0, # of connection points: 2
#     Edge 35, Type (0, 0), BuildingBlock: AJUNOK_clean_linker_0, # of connection points: 2
#     Edge 36, Type (0, 0), BuildingBlock: AJUNOK_clean_linker_0, # of connection points: 2
#     Edge 37, Type (0, 0), BuildingBlock: AJUNOK_clean_linker_0, # of connection points: 2
#     Edge 38, Type (0, 0), BuildingBlock: AJUNOK_clean_linker_0, # of connection points: 2
#     Edge 39, Type (0, 0), BuildingBlock: AJUNOK_clean_linker_0, # of connection points: 2
#     Edge 40, Type (0, 0), BuildingBlock: AJUNOK_clean_linker_0, # of connection points: 2
#     Edge 41, Type (0, 0), BuildingBlock: AJUNOK_clean_linker_0, # of connection points: 2
#     Edge 42, Type (0, 0), BuildingBlock: AJUNOK_clean_linker_0, # of connection points: 2
#     Edge 43, Type (0, 0), BuildingBlock: AJUNOK_clean_linker_0, # of connection points: 2
#     Edge 44, Type (0, 0), BuildingBlock: AJUNOK_clean_linker_0, # of connection points: 2
#     Edge 45, Type (0, 0), BuildingBlock: AJUNOK_clean_linker_0, # of connection points: 2
#     Edge 46, Type (0, 0), BuildingBlock: AJUNOK_clean_linker_0, # of connection points: 2
#     Edge 47, Type (0, 0), BuildingBlock: AJUNOK_clean_linker_0, # of connection points: 2
#     Edge 48, Type (0, 0), BuildingBlock: AJUNOK_clean_linker_0, # of connection points: 2
#     Edge 49, Type (0, 0), BuildingBlock: AJUNOK_clean_linker_0, # of connection points: 2
#     Edge 50, Type (0, 0), BuildingBlock: AJUNOK_clean_linker_0, # of connection points: 2
#     Edge 51, Type (0, 0), BuildingBlock: AJUNOK_clean_linker_0, # of connection points: 2
#     Edge 52, Type (0, 0), BuildingBlock: AJUNOK_clean_linker_0, # of connection points: 2
#     Edge 53, Type (0, 0), BuildingBlock: AJUNOK_clean_linker_0, # of connection points: 2
#     Edge 54, Type (0, 0), BuildingBlock: AJUNOK_clean_linker_0, # of connection points: 2
#     Edge 55, Type (0, 0), BuildingBlock: AJUNOK_clean_linker_0, # of connection points: 2
#     Edge 56, Type (0, 0), BuildingBlock: AJUNOK_clean_linker_0, # of connection points: 2
#     Edge 57, Type (0, 0), BuildingBlock: AJUNOK_clean_linker_0, # of connection points: 2
#     Edge 58, Type (0, 0), BuildingBlock: AJUNOK_clean_linker_0, # of connection points: 2
#     Edge 59, Type (0, 0), BuildingBlock: AJUNOK_clean_linker_0, # of connection points: 2
#     Edge 60, Type (0, 0), BuildingBlock: AJUNOK_clean_linker_0, # of connection points: 2
#     Edge 61, Type (0, 0), BuildingBlock: AJUNOK_clean_linker_0, # of connection points: 2
#     Edge 62, Type (0, 0), BuildingBlock: AJUNOK_clean_linker_0, # of connection points: 2
#     Edge 63, Type (0, 0), BuildingBlock: AJUNOK_clean_linker_0, # of connection points: 2
#     Edge 64, Type (0, 0), BuildingBlock: AJUNOK_clean_linker_0, # of connection points: 2
#     Edge 65, Type (0, 0), BuildingBlock: AJUNOK_clean_linker_0, # of connection points: 2
#     Edge 66, Type (0, 0), BuildingBlock: AJUNOK_clean_linker_0, # of connection points: 2
#     Edge 67, Type (0, 0), BuildingBlock: AJUNOK_clean_linker_0, # of connection points: 2
#     Edge 68, Type (0, 0), BuildingBlock: AJUNOK_clean_linker_0, # of connection points: 2
#     Edge 69, Type (0, 0), BuildingBlock: AJUNOK_clean_linker_0, # of connection points: 2
#     Edge 70, Type (0, 0), BuildingBlock: AJUNOK_clean_linker_0, # of connection points: 2
#     Edge 71, Type (0, 0), BuildingBlock: AJUNOK_clean_linker_0, # of connection points: 2
#     Edge 72, Type (0, 0), BuildingBlock: AJUNOK_clean_linker_0, # of connection points: 2
#     Edge 73, Type (0, 0), BuildingBlock: AJUNOK_clean_linker_0, # of connection points: 2
#     Edge 74, Type (0, 0), BuildingBlock: AJUNOK_clean_linker_0, # of connection points: 2
#     Edge 75, Type (0, 0), BuildingBlock: AJUNOK_clean_linker_0, # of connection points: 2
#     Edge 76, Type (0, 0), BuildingBlock: AJUNOK_clean_linker_0, # of connection points: 2
#     Edge 77, Type (0, 0), BuildingBlock: AJUNOK_clean_linker_0, # of connection points: 2
#     Edge 78, Type (0, 0), BuildingBlock: AJUNOK_clean_linker_0, # of connection points: 2
#     Edge 79, Type (0, 0), BuildingBlock: AJUNOK_clean_linker_0, # of connection points: 2
#     Edge 80, Type (0, 0), BuildingBlock: AJUNOK_clean_linker_0, # of connection points: 2
#     Edge 81, Type (0, 0), BuildingBlock: AJUNOK_clean_linker_0, # of connection points: 2
#     Edge 82, Type (0, 0), BuildingBlock: AJUNOK_clean_linker_0, # of connection points: 2
#     Edge 83, Type (0, 0), BuildingBlock: AJUNOK_clean_linker_0, # of connection points: 2
#     Edge 84, Type (0, 0), BuildingBlock: AJUNOK_clean_linker_0, # of connection points: 2
#     Edge 85, Type (0, 0), BuildingBlock: AJUNOK_clean_linker_0, # of connection points: 2
#     Edge 86, Type (0, 0), BuildingBlock: AJUNOK_clean_linker_0, # of connection points: 2
#     Edge 87, Type (0, 0), BuildingBlock: AJUNOK_clean_linker_0, # of connection points: 2
#     Edge 88, Type (0, 0), BuildingBlock: AJUNOK_clean_linker_0, # of connection points: 2
#     Edge 89, Type (0, 0), BuildingBlock: AJUNOK_clean_linker_0, # of connection points: 2
#     Edge 90, Type (0, 0), BuildingBlock: AJUNOK_clean_linker_0, # of connection points: 2
#     Edge 91, Type (0, 0), BuildingBlock: AJUNOK_clean_linker_0, # of connection points: 2
#     Edge 92, Type (0, 0), BuildingBlock: AJUNOK_clean_linker_0, # of connection points: 2
#     Edge 93, Type (0, 0), BuildingBlock: AJUNOK_clean_linker_0, # of connection points: 2
#     Edge 94, Type (0, 0), BuildingBlock: AJUNOK_clean_linker_0, # of connection points: 2
#     Edge 95, Type (0, 0), BuildingBlock: AJUNOK_clean_linker_0, # of connection points: 2
#     Edge 96, Type (0, 0), BuildingBlock: AJUNOK_clean_linker_0, # of connection points: 2
#     Edge 97, Type (0, 0), BuildingBlock: AJUNOK_clean_linker_0, # of connection points: 2
#     Edge 98, Type (0, 0), BuildingBlock: AJUNOK_clean_linker_0, # of connection points: 2
#     Edge 99, Type (0, 0), BuildingBlock: AJUNOK_clean_linker_0, # of connection points: 2
#     Edge 100, Type (0, 0), BuildingBlock: AJUNOK_clean_linker_0, # of connection points: 2
#     Edge 101, Type (0, 0), BuildingBlock: AJUNOK_clean_linker_0, # of connection points: 2
#     Edge 102, Type (0, 0), BuildingBlock: AJUNOK_clean_linker_0, # of connection points: 2
#     Edge 103, Type (0, 0), BuildingBlock: AJUNOK_clean_linker_0, # of connection points: 2
#     Edge 104, Type (0, 0), BuildingBlock: AJUNOK_clean_linker_0, # of connection points: 2
#     Edge 105, Type (0, 0), BuildingBlock: AJUNOK_clean_linker_0, # of connection points: 2
#     Edge 106, Type (0, 0), BuildingBlock: AJUNOK_clean_linker_0, # of connection points: 2
#     Edge 107, Type (0, 0), BuildingBlock: AJUNOK_clean_linker_0, # of connection points: 2
#     Edge 108, Type (0, 0), BuildingBlock: AJUNOK_clean_linker_0, # of connection points: 2
#     Edge 109, Type (0, 0), BuildingBlock: AJUNOK_clean_linker_0, # of connection points: 2
#     Edge 110, Type (0, 0), BuildingBlock: AJUNOK_clean_linker_0, # of connection points: 2
#     Edge 111, Type (0, 0), BuildingBlock: AJUNOK_clean_linker_0, # of connection points: 2
# Relax obj value: 0.289
# Max RMSD: 0.207
# Mean RMSD: 0.203
data_MOF--net-wgh--node1-XOMCOT_clean_sbu_1--edge1-AJUNOK_clean_linker_0
_symmetry_space_group_name_H-M    P1
_symmetry_Int_Tables_number       1
_symmetry_cell_setting            triclinic
loop_
_symmetry_equiv_pos_as_xyz
'x, y, z'
_cell_length_a     73.87711
_cell_length_b     74.217145
_cell_length_c     15.124465
_cell_angle_alpha  90.126589
_cell_angle_beta   89.741326
_cell_angle_gamma 90.011018
loop_
_atom_site_label
_atom_site_type_symbol
_atom_site_fract_x
_atom_site_fract_y
_atom_site_fract_z
_atom_type_partial_charge
C0 C 0.19957 0.19555 0.30685 0.0
C1 C 0.20119 0.20391 0.2265 0.0
N2 N 0.18638 0.21411 0.21628 0.0
N3 N 0.18426 0.20133 0.3473 0.0
C4 C 0.17651 0.21258 0.2906 0.0
H5 H 0.20864 0.18547 0.33307 0.0
Co6 Co 0.17416 0.19036 0.44048 0.0
C7 C 0.16856 0.22123 0.58137 0.0
O8 O 0.17855 0.21106 0.63267 0.0
N9 N 0.16465 0.1772 0.52937 0.0
C10 C 0.15232 0.16262 0.64137 0.0
C11 C 0.15593 0.17936 0.60713 0.0
C12 C 0.16533 0.15933 0.51589 0.0
N13 N 0.15851 0.15012 0.58396 0.0
O14 O 0.15018 0.18533 0.36329 0.0
H15 H 0.15123 0.19193 0.63464 0.0
H16 H 0.17021 0.15321 0.45522 0.0
O17 O 0.16508 0.21526 0.50123 0.0
C18 C 0.15071 0.17525 0.29169 0.0
O19 O 0.16662 0.16896 0.26809 0.0
N20 N 0.19748 0.19276 0.50282 0.0
C21 C 0.23423 0.19408 0.55999 0.0
C22 C 0.22514 0.20963 0.53083 0.0
C23 C 0.20697 0.20868 0.5023 0.0
C24 C 0.20605 0.17761 0.53289 0.0
C25 C 0.22406 0.17806 0.56299 0.0
H26 H 0.20079 0.2207 0.47567 0.0
H27 H 0.19942 0.16471 0.53037 0.0
H28 H 0.16377 0.21937 0.30307 0.0
H29 H 0.21224 0.20272 0.17959 0.0
H30 H 0.14416 0.15981 0.69943 0.0
H31 H 0.23223 0.22236 0.52629 0.0
H32 H 0.23005 0.16569 0.58679 0.0
C33 C 0.08116 0.93371 0.49376 0.0
C34 C 0.06792 0.93439 0.43069 0.0
N35 N 0.05613 0.92103 0.44815 0.0
N36 N 0.07704 0.92038 0.55076 0.0
C37 C 0.06202 0.91268 0.52072 0.0
H38 H 0.0926 0.9427 0.50021 0.0
Co39 Co 0.08969 0.91405 0.64481 0.0
C40 C 0.05932 0.91123 0.79469 0.0
O41 O 0.06993 0.9219 0.84059 0.0
N42 N 0.10422 0.90783 0.73636 0.0
C43 C 0.11912 0.89688 0.84993 0.0
C44 C 0.10227 0.90032 0.8167 0.0
C45 C 0.12216 0.90833 0.72153 0.0
N46 N 0.13167 0.90159 0.78896 0.0
O47 O 0.09661 0.88955 0.57661 0.0
H48 H 0.08978 0.89554 0.84527 0.0
H49 H 0.12804 0.91178 0.65818 0.0
O50 O 0.06523 0.90562 0.71672 0.0
C51 C 0.10872 0.89072 0.51259 0.0
O52 O 0.11538 0.90686 0.49807 0.0
N53 N 0.08582 0.93796 0.69436 0.0
C54 C 0.08126 0.97394 0.75179 0.0
C55 C 0.06656 0.96388 0.72033 0.0
C56 C 0.06911 0.94604 0.69164 0.0
C57 C 0.10037 0.94789 0.72164 0.0
C58 C 0.09835 0.96569 0.75166 0.0
H59 H 0.05755 0.93875 0.66647 0.0
H60 H 0.11383 0.94236 0.71827 0.0
H61 H 0.05487 0.90196 0.5545 0.0
H62 H 0.06644 0.94441 0.37933 0.0
H63 H 0.12178 0.88872 0.90778 0.0
H64 H 0.05314 0.96973 0.71798 0.0
H65 H 0.11023 0.97312 0.77223 0.0
C66 C 0.35608 0.8092 0.75453 0.0
C67 C 0.36075 0.7944 0.70529 0.0
N68 N 0.37296 0.78481 0.75132 0.0
N69 N 0.36527 0.80862 0.83112 0.0
C70 C 0.37554 0.79381 0.82691 0.0
H71 H 0.34562 0.81879 0.73876 0.0
Co72 Co 0.36465 0.82321 0.92568 0.0
C73 C 0.35496 0.79453 0.08474 0.0
O74 O 0.34371 0.80563 0.12453 0.0
N75 N 0.36469 0.83821 0.02275 0.0
C76 C 0.36824 0.84873 0.15868 0.0
C77 C 0.37095 0.83425 0.10395 0.0
C78 C 0.3593 0.85549 0.0285 0.0
N79 N 0.36065 0.86204 0.1111 0.0
O80 O 0.37161 0.84529 0.8373 0.0
H81 H 0.37787 0.82196 0.12158 0.0
H82 H 0.35581 0.86364 0.9723 0.0
O83 O 0.36258 0.79991 1.01119 0.0
C84 C 0.36643 0.85447 0.76794 0.0
O85 O 0.34982 0.852 0.73996 0.0
N86 N 0.33774 0.82501 0.91835 0.0
C87 C 0.29967 0.82562 0.95388 0.0
C88 C 0.30941 0.80936 0.94784 0.0
C89 C 0.32815 0.80934 0.92954 0.0
C90 C 0.32803 0.84072 0.91213 0.0
C91 C 0.30924 0.84137 0.93114 0.0
H92 H 0.33499 0.79651 0.92656 0.0
H93 H 0.33462 0.85309 0.89424 0.0
H94 H 0.38352 0.78883 0.88151 0.0
H95 H 0.35415 0.78989 0.64539 0.0
H96 H 0.37305 0.84993 0.22596 0.0
H97 H 0.30268 0.79657 0.95799 0.0
H98 H 0.30243 0.85428 0.93062 0.0
C99 C 0.46724 0.11631 0.08494 0.0
C100 C 0.4813 0.12695 0.05677 0.0
N101 N 0.48697 0.13711 0.1255 0.0
N102 N 0.46434 0.11967 0.17117 0.0
C103 C 0.47614 0.13264 0.19336 0.0
H104 H 0.45992 0.10648 0.0461 0.0
Co105 Co 0.44685 0.11117 0.24277 0.0
C106 C 0.47141 0.11852 0.40798 0.0
O107 O 0.46247 0.13371 0.41722 0.0
N108 N 0.42888 0.10259 0.31777 0.0
C109 C 0.41496 0.08501 0.41576 0.0
C110 C 0.4312 0.08905 0.3764 0.0
C111 C 0.41123 0.10678 0.32392 0.0
N112 N 0.4024 0.09619 0.3827 0.0
O113 O 0.42831 0.11836 0.13675 0.0
H114 H 0.44389 0.08225 0.38865 0.0
H115 H 0.40511 0.11791 0.28891 0.0
O116 O 0.46633 0.10766 0.34476 0.0
C117 C 0.41321 0.11803 0.09118 0.0
O118 O 0.40057 0.10687 0.11814 0.0
N119 N 0.45054 0.08594 0.20459 0.0
C120 C 0.45168 0.04803 0.23478 0.0
C121 C 0.4674 0.05873 0.23973 0.0
C122 C 0.46657 0.07754 0.22425 0.0
C123 C 0.43573 0.07535 0.1874 0.0
C124 C 0.43588 0.05661 0.20447 0.0
H125 H 0.47857 0.08552 0.2359 0.0
H126 H 0.42297 0.08163 0.17175 0.0
H127 H 0.47747 0.13814 0.25913 0.0
H128 H 0.48799 0.12604 0.99303 0.0
H129 H 0.41269 0.07497 0.46641 0.0
H130 H 0.48003 0.05284 0.26137 0.0
H131 H 0.42344 0.04901 0.19783 0.0
C132 C 0.17578 0.80889 0.27297 0.0
C133 C 0.187 0.79679 0.31291 0.0
N134 N 0.1846 0.78081 0.27307 0.0
N135 N 0.16626 0.8005 0.20853 0.0
C136 C 0.1715 0.78325 0.21251 0.0
H137 H 0.17634 0.82326 0.28381 0.0
Co138 Co 0.15798 0.81258 0.11137 0.0
C139 C 0.16191 0.7859 0.94245 0.0
O140 O 0.16705 0.79958 0.89375 0.0
N141 N 0.15043 0.82528 1.01505 0.0
C142 C 0.13316 0.8382 0.91439 0.0
C143 C 0.13321 0.82755 0.98884 0.0
C144 C 0.16054 0.83429 0.95539 0.0
N145 N 0.15046 0.84227 0.89396 0.0
O146 O 0.15175 0.83511 0.19721 0.0
H147 H 0.12149 0.82236 0.02358 0.0
H148 H 0.17506 0.83533 0.95544 0.0
O149 O 0.15919 0.78881 0.02707 0.0
C150 C 0.13764 0.83399 0.25024 0.0
O151 O 0.12819 0.81905 0.24409 0.0
N152 N 0.18395 0.81858 0.08861 0.0
C153 C 0.22164 0.82384 0.05409 0.0
C154 C 0.2135 0.80691 0.04602 0.0
C155 C 0.19501 0.80457 0.06366 0.0
C156 C 0.19176 0.83519 0.1011 0.0
C157 C 0.21042 0.83819 0.08206 0.0
H158 H 0.18993 0.79104 0.05921 0.0
H159 H 0.18349 0.84635 0.12331 0.0
H160 H 0.16649 0.77291 0.1686 0.0
H161 H 0.19677 0.79968 0.36415 0.0
H162 H 0.12135 0.8437 0.88201 0.0
H163 H 0.22145 0.79532 0.02596 0.0
H164 H 0.21607 0.85154 0.09065 0.0
C165 C 0.45981 0.90297 0.51957 0.0
C166 C 0.47534 0.89456 0.54658 0.0
N167 N 0.48307 0.8865 0.47584 0.0
N168 N 0.45795 0.90024 0.43218 0.0
C169 C 0.47195 0.88979 0.40797 0.0
H170 H 0.451 0.9113 0.55973 0.0
Co171 Co 0.4402 0.90832 0.36091 0.0
C172 C 0.46739 0.91905 0.1926 0.0
O173 O 0.46287 0.93603 0.18387 0.0
N174 N 0.42172 0.91624 0.28814 0.0
C175 C 0.40357 0.93207 0.20064 0.0
C176 C 0.42079 0.93065 0.23367 0.0
C177 C 0.40512 0.90902 0.28583 0.0
N178 N 0.39368 0.91859 0.23496 0.0
O179 O 0.42156 0.90171 0.46765 0.0
H180 H 0.43158 0.94005 0.22126 0.0
H181 H 0.40166 0.89648 0.31821 0.0
O182 O 0.45939 0.90967 0.25433 0.0
C183 C 0.40593 0.90393 0.5072 0.0
O184 O 0.39544 0.91682 0.47742 0.0
N185 N 0.44477 0.9338 0.39415 0.0
C186 C 0.44898 0.9716 0.36271 0.0
C187 C 0.46393 0.9597 0.3632 0.0
C188 C 0.46155 0.94103 0.37882 0.0
C189 C 0.43069 0.94547 0.40909 0.0
C190 C 0.43238 0.96415 0.39159 0.0
H191 H 0.47309 0.93221 0.37096 0.0
H192 H 0.41739 0.94021 0.42306 0.0
H193 H 0.47471 0.8857 0.34079 0.0
H194 H 0.48157 0.89601 0.61091 0.0
H195 H 0.39883 0.94183 0.153 0.0
H196 H 0.47741 0.96453 0.34848 0.0
H197 H 0.42031 0.97237 0.39503 0.0
C198 C 0.38088 0.20904 0.79358 0.0
C199 C 0.3911 0.22332 0.82228 0.0
N200 N 0.40062 0.22995 0.75299 0.0
N201 N 0.38399 0.20686 0.7067 0.0
C202 C 0.39639 0.21926 0.6846 0.0
H203 H 0.37139 0.2012 0.83227 0.0
Co204 Co 0.37615 0.19019 0.63034 0.0
C205 C 0.36422 0.21599 0.46186 0.0
O206 O 0.34961 0.20636 0.44718 0.0
N207 N 0.36903 0.17274 0.54981 0.0
C208 C 0.36708 0.15754 0.42437 0.0
C209 C 0.37239 0.17337 0.46241 0.0
C210 C 0.3622 0.15611 0.56353 0.0
N211 N 0.3609 0.1464 0.48816 0.0
O212 O 0.38053 0.17022 0.73388 0.0
H213 H 0.37976 0.18393 0.429 0.0
H214 H 0.35968 0.1507 0.62827 0.0
O215 O 0.37453 0.21103 0.52782 0.0
C216 C 0.396 0.16717 0.77408 0.0
O217 O 0.41004 0.17633 0.74523 0.0
N218 N 0.35068 0.19419 0.66357 0.0
C219 C 0.31241 0.19574 0.65243 0.0
C220 C 0.32315 0.21098 0.63483 0.0
C221 C 0.34218 0.21 0.64226 0.0
C222 C 0.34026 0.18035 0.69521 0.0
C223 C 0.32126 0.18066 0.68815 0.0
H224 H 0.35007 0.22178 0.62573 0.0
H225 H 0.34652 0.1685 0.72223 0.0
H226 H 0.40108 0.22149 0.61762 0.0
H227 H 0.38991 0.22971 0.8865 0.0
H228 H 0.36989 0.15375 0.3565 0.0
H229 H 0.31703 0.22327 0.61071 0.0
H230 H 0.31357 0.16892 0.70819 0.0
C231 C 0.07804 0.09649 0.09673 0.0
C232 C 0.07257 0.10256 0.17849 0.0
N233 N 0.06141 0.11664 0.16589 0.0
N234 N 0.06997 0.10653 0.03393 0.0
C235 C 0.05962 0.11829 0.07777 0.0
H236 H 0.0887 0.08682 0.08459 0.0
Co237 Co 0.08003 0.11203 0.92897 0.0
C238 C 0.04926 0.11704 0.78591 0.0
O239 O 0.06096 0.10918 0.73288 0.0
N240 N 0.09106 0.11781 0.82411 0.0
C241 C 0.09909 0.13314 0.70517 0.0
C242 C 0.08947 0.13378 0.78283 0.0
C243 C 0.10191 0.10784 0.77142 0.0
N244 N 0.10685 0.11674 0.69827 0.0
O245 O 0.08833 0.13702 0.98667 0.0
H246 H 0.08193 0.14518 0.80825 0.0
H247 H 0.10708 0.0947 0.78713 0.0
O248 O 0.05423 0.11985 0.86872 0.0
C249 C 0.10191 0.13602 0.04269 0.0
O250 O 0.10976 0.12025 0.0508 0.0
N251 N 0.07604 0.08753 0.89147 0.0
C252 C 0.07572 0.0502 0.85541 0.0
C253 C 0.0599 0.06063 0.84762 0.0
C254 C 0.06022 0.07917 0.86831 0.0
C255 C 0.09111 0.07728 0.90497 0.0
C256 C 0.09143 0.05887 0.8851 0.0
H257 H 0.0476 0.08644 0.86813 0.0
H258 H 0.10325 0.08359 0.93026 0.0
H259 H 0.05186 0.12863 0.04495 0.0
H260 H 0.07697 0.09754 0.24199 0.0
H261 H 0.10146 0.14434 0.66081 0.0
H262 H 0.04727 0.05442 0.82813 0.0
H263 H 0.10401 0.05156 0.89243 0.0
C264 C 0.85107 0.82641 0.36183 0.0
C265 C 0.85783 0.81962 0.28394 0.0
N266 N 0.8704 0.80713 0.30383 0.0
N267 N 0.85925 0.81801 0.4297 0.0
C268 C 0.87061 0.80618 0.39276 0.0
H269 H 0.84202 0.83778 0.36859 0.0
Co270 Co 0.8621 0.82782 0.53768 0.0
C271 C 0.87376 0.79741 0.67363 0.0
O272 O 0.88364 0.80932 0.71584 0.0
N273 N 0.86495 0.83906 0.64669 0.0
C274 C 0.8613 0.84959 0.78366 0.0
C275 C 0.85444 0.83817 0.72012 0.0
C276 C 0.87806 0.85094 0.66735 0.0
N277 N 0.87614 0.85744 0.74965 0.0
O278 O 0.8885 0.83378 0.49885 0.0
H279 H 0.84259 0.82974 0.72741 0.0
H280 H 0.88879 0.85508 0.62313 0.0
O281 O 0.86658 0.80236 0.5989 0.0
C282 C 0.88911 0.84727 0.44341 0.0
O283 O 0.87398 0.85614 0.43043 0.0
N284 N 0.83673 0.82475 0.5577 0.0
C285 C 0.79903 0.82294 0.53225 0.0
C286 C 0.80932 0.80724 0.54465 0.0
C287 C 0.82816 0.8084 0.55599 0.0
C288 C 0.82681 0.84019 0.55039 0.0
C289 C 0.808 0.83959 0.53786 0.0
H290 H 0.83586 0.79606 0.55654 0.0
H291 H 0.8337 0.85305 0.54852 0.0
H292 H 0.87931 0.79753 0.43121 0.0
H293 H 0.85407 0.82379 0.21801 0.0
H294 H 0.85602 0.85177 0.8497 0.0
H295 H 0.80304 0.79409 0.53997 0.0
H296 H 0.80062 0.85208 0.52964 0.0
C297 C 0.97348 0.11098 0.24428 0.0
C298 C 0.98897 0.11811 0.20797 0.0
N299 N 0.99597 0.1301 0.2657 0.0
N300 N 0.97118 0.11831 0.32486 0.0
C301 C 0.98465 0.13024 0.33459 0.0
H302 H 0.96513 0.10042 0.21661 0.0
Co303 Co 0.95423 0.11446 0.40865 0.0
C304 C 0.97917 0.11254 0.58381 0.0
O305 O 0.96971 0.09863 0.61086 0.0
N306 N 0.93628 0.11106 0.49678 0.0
C307 C 0.91851 0.10067 0.60528 0.0
C308 C 0.93256 0.09662 0.5485 0.0
C309 C 0.92417 0.12359 0.52353 0.0
N310 N 0.91328 0.11766 0.58895 0.0
O311 O 0.94531 0.14046 0.38244 0.0
H312 H 0.93978 0.08396 0.54713 0.0
H313 H 0.92362 0.13717 0.4983 0.0
O314 O 0.97433 0.12016 0.50947 0.0
C315 C 0.9367 0.14066 0.30689 0.0
O316 O 0.93477 0.12513 0.26628 0.0
N317 N 0.95982 0.08892 0.4059 0.0
C318 C 0.96405 0.05311 0.33937 0.0
C319 C 0.9787 0.06268 0.37761 0.0
C320 C 0.97634 0.08057 0.41003 0.0
C321 C 0.94558 0.07977 0.36988 0.0
C322 C 0.94727 0.06203 0.33856 0.0
H323 H 0.98802 0.08806 0.43236 0.0
H324 H 0.93278 0.08662 0.36139 0.0
H325 H 0.98713 0.13791 0.39414 0.0
H326 H 0.99575 0.11329 0.14883 0.0
H327 H 0.91274 0.0919 0.65507 0.0
H328 H 0.99212 0.05686 0.37809 0.0
H329 H 0.93541 0.05557 0.31114 0.0
C330 C 0.67036 0.20386 0.99966 0.0
C331 C 0.67252 0.2167 0.93565 0.0
N332 N 0.66842 0.23267 0.97259 0.0
N333 N 0.66512 0.21202 0.07531 0.0
C334 C 0.66372 0.22949 0.05653 0.0
H335 H 0.6737 0.18974 0.9935 0.0
Co336 Co 0.66396 0.20093 0.17947 0.0
C337 C 0.66428 0.23051 0.33091 0.0
O338 O 0.67352 0.21871 0.37664 0.0
N339 N 0.66272 0.1882 0.28558 0.0
C340 C 0.66839 0.17108 0.40297 0.0
C341 C 0.676 0.18096 0.33577 0.0
C342 C 0.64726 0.18264 0.32437 0.0
N343 N 0.65033 0.17214 0.39501 0.0
O344 O 0.63742 0.19471 0.14786 0.0
H345 H 0.69035 0.18237 0.32454 0.0
H346 H 0.63386 0.18569 0.30023 0.0
O347 O 0.65884 0.22569 0.25171 0.0
C348 C 0.63597 0.18043 0.09786 0.0
O349 O 0.65058 0.17065 0.08603 0.0
N350 N 0.6898 0.20429 0.18852 0.0
C351 C 0.72679 0.20641 0.13727 0.0
C352 C 0.71717 0.22179 0.1657 0.0
C353 C 0.69872 0.22048 0.19071 0.0
C354 C 0.69896 0.1893 0.16059 0.0
C355 C 0.71731 0.18999 0.1362 0.0
H356 H 0.69142 0.23274 0.20525 0.0
H357 H 0.69165 0.17677 0.15245 0.0
H358 H 0.66114 0.23992 0.10493 0.0
H359 H 0.67796 0.21472 0.86976 0.0
H360 H 0.67555 0.16293 0.45068 0.0
H361 H 0.72369 0.23485 0.16622 0.0
H362 H 0.72376 0.17783 0.11198 0.0
C363 C 0.56483 0.92137 0.6771 0.0
C364 C 0.55884 0.91624 0.59496 0.0
N365 N 0.54626 0.90329 0.60627 0.0
N366 N 0.55594 0.91176 0.7391 0.0
C367 C 0.5446 0.90109 0.69441 0.0
H368 H 0.57611 0.93026 0.69044 0.0
Co369 Co 0.56438 0.90776 0.8499 0.0
C370 C 0.53149 0.89507 0.9704 0.0
O371 O 0.54147 0.88223 1.00466 0.0
N372 N 0.57402 0.90384 0.96061 0.0
C373 C 0.58009 0.90374 0.10416 0.0
C374 C 0.56899 0.91066 0.03978 0.0
C375 C 0.5884 0.89335 0.97783 0.0
N376 N 0.59234 0.8929 0.06465 0.0
O377 O 0.56973 0.88154 0.81038 0.0
H378 H 0.55774 0.91976 0.05023 0.0
H379 H 0.59594 0.88619 0.9275 0.0
O380 O 0.53817 0.90405 0.90396 0.0
C381 C 0.58357 0.8806 0.75654 0.0
O382 O 0.59287 0.89545 0.74355 0.0
N383 N 0.56194 0.93283 0.87415 0.0
C384 C 0.56157 0.97064 0.86325 0.0
C385 C 0.54559 0.96062 0.85377 0.0
C386 C 0.5461 0.94177 0.85835 0.0
C387 C 0.57753 0.94236 0.88646 0.0
C388 C 0.57765 0.96125 0.88131 0.0
H389 H 0.53409 0.93436 0.841 0.0
H390 H 0.59018 0.93523 0.89488 0.0
H391 H 0.53609 0.89114 0.72619 0.0
H392 H 0.56418 0.92088 0.53234 0.0
H393 H 0.57876 0.90603 0.17455 0.0
H394 H 0.53299 0.96719 0.83686 0.0
H395 H 0.59033 0.96841 0.88842 0.0
C396 C 0.84877 0.20729 0.14648 0.0
C397 C 0.855 0.21227 0.22868 0.0
N398 N 0.86984 0.22245 0.21632 0.0
N399 N 0.85948 0.2148 0.08394 0.0
C400 C 0.8717 0.22447 0.12842 0.0
H401 H 0.83852 0.19723 0.13367 0.0
Co402 Co 0.86446 0.20505 0.97595 0.0
C403 C 0.86398 0.23699 0.84069 0.0
O404 O 0.85274 0.22658 0.79701 0.0
N405 N 0.87033 0.19413 0.86794 0.0
C406 C 0.8863 0.18834 0.74614 0.0
C407 C 0.8827 0.20076 0.81044 0.0
C408 C 0.8677 0.17696 0.84023 0.0
N409 N 0.87696 0.17334 0.76503 0.0
O410 O 0.89019 0.19861 0.02386 0.0
H411 H 0.89018 0.21313 0.81888 0.0
H412 H 0.86058 0.16685 0.87815 0.0
O413 O 0.87041 0.23099 0.91627 0.0
C414 C 0.88985 0.18553 0.08179 0.0
O415 O 0.87428 0.17736 0.09411 0.0
N416 N 0.83906 0.20801 0.94723 0.0
C417 C 0.80162 0.2083 0.9916 0.0
C418 C 0.81166 0.22437 0.98622 0.0
C419 C 0.83027 0.22395 0.96462 0.0
C420 C 0.82914 0.19246 0.94536 0.0
C421 C 0.81053 0.19234 0.96605 0.0
H422 H 0.83794 0.23624 0.97246 0.0
H423 H 0.83587 0.17969 0.93775 0.0
H424 H 0.88279 0.23145 0.09645 0.0
H425 H 0.84988 0.20777 0.29207 0.0
H426 H 0.89654 0.1895 0.69496 0.0
H427 H 0.80557 0.23706 1.00562 0.0
H428 H 0.80344 0.17958 0.96699 0.0
C429 C 0.56543 0.1006 0.94856 0.0
C430 C 0.56021 0.10872 0.02601 0.0
N431 N 0.54908 0.12253 1.00624 0.0
N432 N 0.55765 0.1092 0.88025 0.0
C433 C 0.54752 0.12219 0.91719 0.0
H434 H 0.57605 0.09066 0.94218 0.0
Co435 Co 0.56908 0.111 0.77423 0.0
C436 C 0.53928 0.10954 0.6285 0.0
O437 O 0.55057 0.09817 0.59161 0.0
N438 N 0.58225 0.113 0.66755 0.0
C439 C 0.59856 0.10801 0.54523 0.0
C440 C 0.58762 0.10031 0.60818 0.0
C441 C 0.59026 0.12825 0.63862 0.0
N442 N 0.60029 0.12548 0.56563 0.0
O443 O 0.57631 0.13696 0.81284 0.0
H444 H 0.58398 0.08623 0.60931 0.0
H445 H 0.58921 0.14122 0.67067 0.0
O446 O 0.54438 0.11712 0.70304 0.0
C447 C 0.59001 0.13664 0.86713 0.0
O448 O 0.59798 0.12101 0.87846 0.0
N449 N 0.56518 0.08576 0.75782 0.0
C450 C 0.56287 0.04828 0.78564 0.0
C451 C 0.54724 0.05871 0.77167 0.0
C452 C 0.54864 0.07746 0.76014 0.0
C453 C 0.58046 0.07581 0.77166 0.0
C454 C 0.57965 0.05714 0.7841 0.0
H455 H 0.53636 0.08532 0.75857 0.0
H456 H 0.59338 0.08257 0.77707 0.0
H457 H 0.54039 0.13209 0.8783 0.0
H458 H 0.56538 0.10534 0.09049 0.0
H459 H 0.60531 0.1012 0.49095 0.0
H460 H 0.53395 0.05257 0.77222 0.0
H461 H 0.59206 0.04985 0.79673 0.0
C462 C 0.67075 0.8184 0.61778 0.0
C463 C 0.66459 0.81307 0.69944 0.0
N464 N 0.65139 0.80082 0.68695 0.0
N465 N 0.66151 0.80947 0.55469 0.0
C466 C 0.65008 0.79866 0.59859 0.0
H467 H 0.67995 0.82945 0.60515 0.0
Co468 Co 0.65812 0.81836 0.44378 0.0
C469 C 0.64608 0.78629 0.31849 0.0
O470 O 0.6329 0.79629 0.28742 0.0
N471 N 0.65475 0.82842 0.33353 0.0
C472 C 0.65569 0.83502 0.19049 0.0
C473 C 0.66264 0.82412 0.25556 0.0
C474 C 0.64347 0.8421 0.31494 0.0
N475 N 0.64375 0.84636 0.22859 0.0
O476 O 0.63144 0.8229 0.4793 0.0
H477 H 0.67252 0.81352 0.24638 0.0
H478 H 0.63473 0.84847 0.36317 0.0
O479 O 0.65524 0.79255 0.38532 0.0
C480 C 0.62997 0.83635 0.53462 0.0
O481 O 0.64464 0.84577 0.55063 0.0
N482 N 0.6836 0.81677 0.42374 0.0
C483 C 0.72154 0.81813 0.44284 0.0
C484 C 0.71205 0.80176 0.44984 0.0
C485 C 0.69314 0.80139 0.44079 0.0
C486 C 0.69259 0.83272 0.41417 0.0
C487 C 0.71148 0.8337 0.42315 0.0
H488 H 0.68606 0.78902 0.45505 0.0
H489 H 0.68496 0.84502 0.40536 0.0
H490 H 0.6401 0.79035 0.56586 0.0
H491 H 0.66873 0.81863 0.76232 0.0
H492 H 0.65895 0.83453 0.12067 0.0
H493 H 0.71911 0.7894 0.46568 0.0
H494 H 0.71796 0.84676 0.41981 0.0
C495 C 0.95815 0.92715 0.30025 0.0
C496 C 0.96938 0.92535 0.37126 0.0
N497 N 0.98385 0.91579 0.34437 0.0
N498 N 0.9659 0.91906 0.22972 0.0
C499 C 0.98135 0.91203 0.25856 0.0
H500 H 0.94552 0.93449 0.29884 0.0
Co501 Co 0.9557 0.91824 0.12331 0.0
C502 C 0.9867 0.91616 0.97745 0.0
O503 O 0.97679 0.92779 0.93407 0.0
N504 N 0.94351 0.91743 1.0145 0.0
C505 C 0.92722 0.92441 0.89549 0.0
C506 C 0.93865 0.93096 0.95933 0.0
C507 C 0.93512 0.90278 0.98111 0.0
N508 N 0.92501 0.90673 0.91007 0.0
O509 O 0.94778 0.89227 0.15644 0.0
H510 H 0.94281 0.94485 0.9648 0.0
H511 H 0.93552 0.88952 1.01037 0.0
O512 O 0.98071 0.91091 0.05528 0.0
C513 C 0.93414 0.89167 0.21163 0.0
O514 O 0.92574 0.90688 0.2285 0.0
N515 N 0.96085 0.94384 0.11318 0.0
C516 C 0.96478 0.98004 0.17382 0.0
C517 C 0.97996 0.96918 0.15405 0.0
C518 C 0.97774 0.9512 0.12386 0.0
C519 C 0.94602 0.95434 0.13079 0.0
C520 C 0.94766 0.97237 0.15884 0.0
H521 H 0.9896 0.94279 0.11688 0.0
H522 H 0.93269 0.9483 0.12913 0.0
H523 H 0.99126 0.90556 0.21618 0.0
H524 H 0.96781 0.93171 0.43536 0.0
H525 H 0.92071 0.93207 0.84374 0.0
H526 H 0.9935 0.97433 0.16452 0.0
H527 H 0.9355 0.97991 0.17421 0.0
C528 C 0.65194 0.71738 0.76268 0.0
C529 C 0.64278 0.73263 0.73879 0.0
N530 N 0.6335 0.73879 0.80968 0.0
N531 N 0.6483 0.71391 0.84809 0.0
C532 C 0.6368 0.72691 0.87441 0.0
H533 H 0.66178 0.71037 0.72272 0.0
Co534 Co 0.65677 0.69631 0.91972 0.0
C535 C 0.66933 0.72461 0.08042 0.0
O536 O 0.68677 0.72134 0.08001 0.0
N537 N 0.66501 0.67835 0.99379 0.0
C538 C 0.68174 0.66165 0.08381 0.0
C539 C 0.67956 0.67841 0.04774 0.0
C540 C 0.65849 0.66152 0.99878 0.0
N541 N 0.66857 0.65101 0.05206 0.0
O542 O 0.64922 0.67691 0.8181 0.0
H543 H 0.68862 0.68957 0.0573 0.0
H544 H 0.64619 0.65725 0.96625 0.0
O545 O 0.6592 0.71589 0.02412 0.0
C546 C 0.65212 0.67173 0.73632 0.0
O547 O 0.66643 0.67824 0.69579 0.0
N548 N 0.68202 0.69979 0.87987 0.0
C549 C 0.7205 0.70181 0.89633 0.0
C550 C 0.70945 0.71733 0.90052 0.0
C551 C 0.69041 0.71607 0.89136 0.0
C552 C 0.69262 0.68501 0.86296 0.0
C553 C 0.71162 0.68561 0.87342 0.0
H554 H 0.68232 0.72805 0.90144 0.0
H555 H 0.6863 0.67203 0.85263 0.0
H556 H 0.63224 0.72862 0.94194 0.0
H557 H 0.64478 0.73999 0.67774 0.0
H558 H 0.69195 0.65764 0.13095 0.0
H559 H 0.71535 0.73037 0.91474 0.0
H560 H 0.71898 0.67304 0.86993 0.0
C561 C 0.57911 0.4379 0.02842 0.0
C562 C 0.56575 0.43964 0.96626 0.0
N563 N 0.55337 0.42679 0.98281 0.0
N564 N 0.57473 0.42419 0.08289 0.0
C565 C 0.55918 0.41755 0.05303 0.0
H566 H 0.59099 0.4463 0.03503 0.0
Co567 Co 0.58678 0.41727 0.17892 0.0
C568 C 0.55771 0.40843 0.32662 0.0
O569 O 0.56897 0.41687 0.3794 0.0
N570 N 0.59972 0.41047 0.27604 0.0
C571 C 0.6096 0.39486 0.3903 0.0
C572 C 0.59823 0.39465 0.31892 0.0
C573 C 0.61254 0.41971 0.32003 0.0
N574 N 0.61843 0.41074 0.39092 0.0
O575 O 0.59538 0.39327 0.10866 0.0
H576 H 0.58953 0.38365 0.29896 0.0
H577 H 0.61849 0.43218 0.29858 0.0
O578 O 0.56255 0.40664 0.24307 0.0
C579 C 0.60575 0.39465 0.03763 0.0
O580 O 0.61006 0.41102 1.01254 0.0
N581 N 0.58143 0.44113 0.23021 0.0
C582 C 0.57628 0.47761 0.28346 0.0
C583 C 0.56172 0.46542 0.27998 0.0
C584 C 0.5645 0.44743 0.25193 0.0
C585 C 0.59528 0.45337 0.22564 0.0
C586 C 0.59322 0.47128 0.25494 0.0
H587 H 0.55276 0.43895 0.24422 0.0
H588 H 0.608 0.44946 0.19574 0.0
H589 H 0.55183 0.40664 0.08415 0.0
H590 H 0.56499 0.44963 0.9144 0.0
H591 H 0.61223 0.38369 0.43437 0.0
H592 H 0.5482 0.4698 0.2977 0.0
H593 H 0.60469 0.48035 0.25168 0.0
C594 C 0.88253 0.30454 0.27153 0.0
C595 C 0.89023 0.2883 0.24954 0.0
N596 N 0.89808 0.28129 0.32228 0.0
N597 N 0.88564 0.30763 0.35766 0.0
C598 C 0.8957 0.29373 0.38554 0.0
H599 H 0.87412 0.31282 0.22972 0.0
Co600 Co 0.87771 0.32553 0.429 0.0
C601 C 0.86469 0.30172 0.60301 0.0
O602 O 0.84989 0.31133 0.61339 0.0
N603 N 0.87029 0.34406 0.50363 0.0
C604 C 0.86464 0.36003 0.62423 0.0
C605 C 0.87161 0.34425 0.59227 0.0
C606 C 0.86341 0.36037 0.48323 0.0
N607 N 0.85951 0.37041 0.55547 0.0
O608 O 0.88239 0.34429 0.32018 0.0
H609 H 0.87834 0.33419 0.6316 0.0
H610 H 0.8625 0.36525 0.41654 0.0
O611 O 0.87554 0.30609 0.53765 0.0
C612 C 0.89775 0.34678 0.27746 0.0
O613 O 0.91166 0.3373 0.30464 0.0
N614 N 0.85232 0.32109 0.39698 0.0
C615 C 0.81419 0.31889 0.4177 0.0
C616 C 0.82541 0.30383 0.43221 0.0
C617 C 0.84431 0.30514 0.42028 0.0
C618 C 0.8414 0.3346 0.36639 0.0
C619 C 0.82247 0.33401 0.37854 0.0
H620 H 0.85256 0.29357 0.43568 0.0
H621 H 0.84724 0.34645 0.33695 0.0
H622 H 0.89964 0.29175 0.45347 0.0
H623 H 0.88788 0.281 0.18856 0.0
H624 H 0.8653 0.36426 0.69269 0.0
H625 H 0.81976 0.29124 0.45543 0.0
H626 H 0.81457 0.34577 0.36137 0.0
C627 C 0.95749 0.62933 0.46988 0.0
C628 C 0.97204 0.63991 0.44802 0.0
N629 N 0.97877 0.64739 0.52263 0.0
N630 N 0.95505 0.63023 0.55781 0.0
C631 C 0.96772 0.64167 0.58762 0.0
H632 H 0.94973 0.62092 0.4255 0.0
Co633 Co 0.938 0.61958 0.62614 0.0
C634 C 0.96118 0.62207 0.80416 0.0
O635 O 0.9497 0.63409 0.83469 0.0
N636 N 0.92066 0.60896 0.69696 0.0
C637 C 0.90637 0.59051 0.78926 0.0
C638 C 0.92272 0.59456 0.7505 0.0
C639 C 0.90316 0.61344 0.7042 0.0
N640 N 0.89409 0.60247 0.76009 0.0
O641 O 0.91847 0.62606 0.52391 0.0
H642 H 0.93533 0.58751 0.76108 0.0
H643 H 0.89742 0.62529 0.67343 0.0
O644 O 0.95791 0.61511 0.72649 0.0
C645 C 0.91569 0.64223 0.49124 0.0
O646 O 0.92467 0.65551 0.52816 0.0
N647 N 0.94287 0.59566 0.57767 0.0
C648 C 0.94496 0.5577 0.59266 0.0
C649 C 0.9604 0.56861 0.60338 0.0
C650 C 0.95911 0.5875 0.59456 0.0
C651 C 0.92847 0.58511 0.55363 0.0
C652 C 0.92912 0.56622 0.56272 0.0
H653 H 0.97083 0.59563 0.60956 0.0
H654 H 0.91559 0.59132 0.5391 0.0
H655 H 0.96992 0.64447 0.65694 0.0
H656 H 0.97858 0.64017 0.38378 0.0
H657 H 0.90393 0.58023 0.83855 0.0
H658 H 0.97305 0.56279 0.62511 0.0
H659 H 0.91694 0.55845 0.55146 0.0
C660 C 0.69983 0.32477 0.79327 0.0
C661 C 0.70101 0.31244 0.8604 0.0
N662 N 0.68662 0.30148 0.85329 0.0
N663 N 0.68505 0.32094 0.74451 0.0
C664 C 0.67715 0.3069 0.78302 0.0
H665 H 0.70919 0.33563 0.77965 0.0
Co666 Co 0.67739 0.33343 0.65187 0.0
C667 C 0.67115 0.30313 0.50672 0.0
O668 O 0.68211 0.31277 0.45719 0.0
N669 N 0.67023 0.34772 0.56185 0.0
C670 C 0.66081 0.36267 0.44499 0.0
C671 C 0.66196 0.34596 0.48313 0.0
C672 C 0.673 0.36548 0.57216 0.0
N673 N 0.66802 0.37486 0.50096 0.0
O674 O 0.65319 0.34072 0.7256 0.0
H675 H 0.656 0.3338 0.45722 0.0
H676 H 0.67807 0.37147 0.63253 0.0
O677 O 0.6671 0.30939 0.586 0.0
C678 C 0.65395 0.34966 0.80103 0.0
O679 O 0.67015 0.35302 0.83226 0.0
N680 N 0.7011 0.32908 0.59424 0.0
C681 C 0.73721 0.32404 0.5315 0.0
C682 C 0.72676 0.3095 0.56264 0.0
C683 C 0.70894 0.31229 0.59391 0.0
C684 C 0.71131 0.34338 0.5656 0.0
C685 C 0.72904 0.34111 0.53264 0.0
H686 H 0.70155 0.30087 0.61976 0.0
H687 H 0.70624 0.35691 0.57092 0.0
H688 H 0.66505 0.30039 0.75845 0.0
H689 H 0.71167 0.31129 0.90896 0.0
H690 H 0.65355 0.36588 0.38497 0.0
H691 H 0.73235 0.29602 0.56346 0.0
H692 H 0.73659 0.35286 0.5115 0.0
C693 C 0.93988 0.44761 0.98371 0.0
C694 C 0.94662 0.44813 0.06819 0.0
N695 N 0.95523 0.43247 0.08201 0.0
N696 N 0.94508 0.43205 0.94458 0.0
C697 C 0.9544 0.42317 1.00588 0.0
H698 H 0.93138 0.45772 0.95357 0.0
Co699 Co 0.93611 0.42281 0.84362 0.0
C700 C 0.96735 0.40126 0.74426 0.0
O701 O 0.95597 0.38798 0.73009 0.0
N702 N 0.92564 0.41465 0.74166 0.0
C703 C 0.91767 0.41738 0.60134 0.0
C704 C 0.93194 0.41696 0.65861 0.0
C705 C 0.90756 0.41393 0.73322 0.0
N706 N 0.90217 0.41594 0.64839 0.0
O707 O 0.9294 0.39871 0.91692 0.0
H708 H 0.9457 0.42042 0.64118 0.0
H709 H 0.8986 0.41351 0.78983 0.0
O710 O 0.96193 0.41436 0.79564 0.0
C711 C 0.91637 0.39934 0.97658 0.0
O712 O 0.90736 0.41456 0.98124 0.0
N713 N 0.94003 0.44606 0.78611 0.0
C714 C 0.94277 0.48158 0.71607 0.0
C715 C 0.95825 0.47168 0.74096 0.0
C716 C 0.95662 0.45404 0.77545 0.0
C717 C 0.92486 0.45554 0.76374 0.0
C718 C 0.92593 0.473 0.72791 0.0
H719 H 0.96871 0.44715 0.79668 0.0
H720 H 0.91166 0.44971 0.7753 0.0
H721 H 0.96054 0.4101 0.99484 0.0
H722 H 0.94559 0.45912 0.11514 0.0
H723 H 0.91897 0.41929 0.53098 0.0
H724 H 0.97158 0.47767 0.73703 0.0
H725 H 0.91349 0.47977 0.71031 0.0
C726 C 0.85831 0.71833 0.20325 0.0
C727 C 0.86597 0.73294 0.24457 0.0
N728 N 0.87831 0.74024 0.1892 0.0
N729 N 0.86563 0.717 0.12198 0.0
C730 C 0.87795 0.73013 0.11613 0.0
H731 H 0.84779 0.70965 0.22912 0.0
Co732 Co 0.86294 0.70067 0.03688 0.0
C733 C 0.85448 0.72849 0.87061 0.0
O734 O 0.84071 0.71935 0.83896 0.0
N735 N 0.86103 0.68345 0.94834 0.0
C736 C 0.86278 0.6693 0.8194 0.0
C737 C 0.86515 0.68543 0.862 0.0
C738 C 0.85682 0.66587 0.95676 0.0
N739 N 0.85753 0.65694 0.87935 0.0
O740 O 0.86806 0.68063 0.13841 0.0
H741 H 0.8708 0.69738 0.83231 0.0
H742 H 0.85415 0.65947 1.019 0.0
O743 O 0.86251 0.72217 0.94084 0.0
C744 C 0.86572 0.66691 0.19211 0.0
O745 O 0.85021 0.65833 0.188 0.0
N746 N 0.83598 0.70147 0.04773 0.0
C747 C 0.79806 0.70249 1.01004 0.0
C748 C 0.80852 0.71833 1.01371 0.0
C749 C 0.82728 0.71754 0.03285 0.0
C750 C 0.82546 0.68633 0.05516 0.0
C751 C 0.8068 0.68646 0.03469 0.0
H752 H 0.83495 0.72993 0.03145 0.0
H753 H 0.83133 0.67374 0.07394 0.0
H754 H 0.88591 0.7328 0.05754 0.0
H755 H 0.86164 0.73878 0.30683 0.0
H756 H 0.86636 0.6665 0.75122 0.0
H757 H 0.80246 0.7312 0.99782 0.0
H758 H 0.79929 0.67393 0.03707 0.0
C759 C 0.55607 0.62554 0.49316 0.0
C760 C 0.53984 0.63339 0.51375 0.0
N761 N 0.53223 0.63955 0.43872 0.0
N762 N 0.55886 0.62697 0.40561 0.0
C763 C 0.54449 0.63613 0.37491 0.0
H764 H 0.56414 0.61768 0.53775 0.0
Co765 Co 0.57665 0.6172 0.3364 0.0
C766 C 0.54836 0.601 0.18272 0.0
O767 O 0.55213 0.58388 0.19318 0.0
N768 N 0.59466 0.60775 0.26448 0.0
C769 C 0.61138 0.59002 0.17782 0.0
C770 C 0.59479 0.59224 0.2172 0.0
C771 C 0.6112 0.61476 0.25231 0.0
N772 N 0.62164 0.60421 0.20034 0.0
O773 O 0.59635 0.62588 0.43543 0.0
H774 H 0.58395 0.58261 0.21464 0.0
H775 H 0.61535 0.62766 0.27903 0.0
O776 O 0.55681 0.61266 0.23291 0.0
C777 C 0.60195 0.62336 0.51683 0.0
O778 O 0.59545 0.60945 0.5601 0.0
N779 N 0.57324 0.59314 0.38646 0.0
C780 C 0.57134 0.55499 0.38281 0.0
C781 C 0.55558 0.56572 0.37917 0.0
C782 C 0.55682 0.58472 0.38137 0.0
C783 C 0.58818 0.58299 0.4061 0.0
C784 C 0.58761 0.56403 0.4025 0.0
H785 H 0.54474 0.59259 0.37024 0.0
H786 H 0.60124 0.58942 0.41239 0.0
H787 H 0.54204 0.63852 0.30552 0.0
H788 H 0.5329 0.63206 0.57668 0.0
H789 H 0.61554 0.57895 0.1357 0.0
H790 H 0.54241 0.55961 0.37014 0.0
H791 H 0.60019 0.55668 0.40811 0.0
C792 C 0.35345 0.307 0.90789 0.0
C793 C 0.36253 0.30076 0.83455 0.0
N794 N 0.37614 0.29014 0.8624 0.0
N795 N 0.36128 0.30011 0.98062 0.0
C796 C 0.37461 0.2895 0.95106 0.0
H797 H 0.34321 0.31742 0.90863 0.0
Co798 Co 0.36152 0.31124 0.08676 0.0
C799 C 0.37507 0.28269 0.2308 0.0
O800 O 0.38514 0.29534 0.26642 0.0
N801 N 0.3615 0.32337 0.19407 0.0
C802 C 0.35421 0.33291 0.32891 0.0
C803 C 0.35088 0.32013 0.26522 0.0
C804 C 0.37118 0.33804 0.21608 0.0
N805 N 0.36713 0.3441 0.29809 0.0
O806 O 0.38834 0.31903 0.05676 0.0
H807 H 0.34121 0.30923 0.27032 0.0
H808 H 0.38133 0.34395 0.17341 0.0
O809 O 0.36664 0.28663 0.15737 0.0
C810 C 0.38939 0.33167 0.99626 0.0
O811 O 0.37412 0.33915 0.97171 0.0
N812 N 0.33588 0.30714 0.09654 0.0
C813 C 0.29818 0.30574 0.06555 0.0
C814 C 0.30873 0.28993 0.06692 0.0
C815 C 0.32755 0.2909 0.08297 0.0
C816 C 0.32579 0.32257 0.09557 0.0
C817 C 0.30703 0.32215 0.08174 0.0
H818 H 0.33557 0.27875 0.0787 0.0
H819 H 0.33248 0.33548 0.10138 0.0
H820 H 0.38374 0.28253 0.99486 0.0
H821 H 0.36003 0.30463 0.76675 0.0
H822 H 0.3475 0.33385 0.39242 0.0
H823 H 0.30255 0.27697 0.05385 0.0
H824 H 0.29964 0.33474 0.07944 0.0
C825 C 0.4577 0.58897 0.62973 0.0
C826 C 0.46337 0.59553 0.54941 0.0
N827 N 0.47429 0.60969 0.56485 0.0
N828 N 0.46517 0.59891 0.69484 0.0
C829 C 0.47545 0.61118 0.6535 0.0
H830 H 0.44726 0.57895 0.63965 0.0
Co831 Co 0.45514 0.60154 0.8045 0.0
C832 C 0.48562 0.61585 0.93454 0.0
O833 O 0.47442 0.62833 0.96318 0.0
N834 N 0.44415 0.60419 0.91446 0.0
C835 C 0.43636 0.60156 0.05621 0.0
C836 C 0.44708 0.59471 0.98935 0.0
C837 C 0.43177 0.6167 0.93736 0.0
N838 N 0.42697 0.61544 0.02287 0.0
O839 O 0.44891 0.62784 0.76925 0.0
H840 H 0.45663 0.58374 0.99546 0.0
H841 H 0.42631 0.62666 0.89283 0.0
O842 O 0.48046 0.60598 0.86763 0.0
C843 C 0.4355 0.62827 0.71317 0.0
O844 O 0.42737 0.61294 0.69588 0.0
N845 N 0.45795 0.57606 0.8217 0.0
C846 C 0.45784 0.53866 0.78413 0.0
C847 C 0.47411 0.54856 0.78754 0.0
C848 C 0.47388 0.56719 0.80601 0.0
C849 C 0.4421 0.56658 0.82238 0.0
C850 C 0.44175 0.54799 0.80409 0.0
H851 H 0.48631 0.57473 0.79939 0.0
H852 H 0.42943 0.57373 0.82997 0.0
H853 H 0.48239 0.62193 0.68794 0.0
H854 H 0.45864 0.59112 0.48533 0.0
H855 H 0.43582 0.59705 0.1242 0.0
H856 H 0.4869 0.54211 0.77229 0.0
H857 H 0.42876 0.5413 0.79989 0.0
C858 C 0.16962 0.68659 0.41744 0.0
C859 C 0.17989 0.69676 0.36117 0.0
N860 N 0.18018 0.71363 0.3933 0.0
N861 N 0.16358 0.69702 0.48461 0.0
C862 C 0.16977 0.71355 0.46683 0.0
H863 H 0.16886 0.67208 0.41588 0.0
Co864 Co 0.15898 0.68637 0.58963 0.0
C865 C 0.15746 0.71509 0.74328 0.0
O866 O 0.16481 0.70239 0.79126 0.0
N867 N 0.15476 0.6736 0.69394 0.0
C868 C 0.15814 0.65533 0.80911 0.0
C869 C 0.167 0.66541 0.74686 0.0
C870 C 0.13856 0.66828 0.72606 0.0
N871 N 0.14029 0.6571 0.79551 0.0
O872 O 0.13265 0.68203 0.54574 0.0
H873 H 0.18151 0.66628 0.74096 0.0
H874 H 0.12572 0.67157 0.69614 0.0
O875 O 0.15385 0.71134 0.66009 0.0
C876 C 0.13032 0.6677 0.49692 0.0
O877 O 0.14377 0.65617 0.49266 0.0
N878 N 0.18467 0.68839 0.61278 0.0
C879 C 0.22206 0.69074 0.57044 0.0
C880 C 0.21247 0.70564 0.6045 0.0
C881 C 0.19392 0.70419 0.62562 0.0
C882 C 0.19395 0.6736 0.58317 0.0
C883 C 0.21251 0.67441 0.56294 0.0
H884 H 0.18685 0.7164 0.64283 0.0
H885 H 0.18659 0.66133 0.56905 0.0
H886 H 0.16811 0.72486 0.51137 0.0
H887 H 0.18779 0.69171 0.3061 0.0
H888 H 0.16432 0.64682 0.85858 0.0
H889 H 0.21881 0.71875 0.60889 0.0
H890 H 0.21913 0.66242 0.53781 0.0
C891 C 0.04805 0.40548 0.17707 0.0
C892 C 0.03199 0.40737 0.13334 0.0
N893 N 0.01851 0.40462 0.19195 0.0
N894 N 0.04445 0.40172 0.26241 0.0
C895 C 0.02639 0.40078 0.26884 0.0
H896 H 0.06124 0.40889 0.15102 0.0
Co897 Co 0.0604 0.40416 0.35136 0.0
C898 C 0.0362 0.40565 0.52281 0.0
O899 O 0.04736 0.4183 0.54917 0.0
N900 N 0.07729 0.40657 0.4425 0.0
C901 C 0.0963 0.41602 0.54665 0.0
C902 C 0.08421 0.42131 0.48323 0.0
C903 C 0.08532 0.39258 0.48314 0.0
N904 N 0.09688 0.39794 0.54648 0.0
O905 O 0.06976 0.37858 0.31972 0.0
H906 H 0.0806 0.43512 0.47036 0.0
H907 H 0.08307 0.37867 0.46543 0.0
O908 O 0.04 0.3975 0.44801 0.0
C909 C 0.08209 0.3793 0.25749 0.0
O910 O 0.08781 0.39535 0.23423 0.0
N911 N 0.05414 0.42929 0.35702 0.0
C912 C 0.04861 0.46614 0.32093 0.0
C913 C 0.0348 0.45563 0.35898 0.0
C914 C 0.03778 0.43717 0.37603 0.0
C915 C 0.06722 0.43923 0.31559 0.0
C916 C 0.06496 0.45764 0.29932 0.0
H917 H 0.02663 0.42923 0.40066 0.0
H918 H 0.07962 0.43271 0.29467 0.0
H919 H 0.01897 0.40015 0.33046 0.0
H920 H 0.03029 0.4127 0.0673 0.0
H921 H 0.10399 0.42476 0.58982 0.0
H922 H 0.0218 0.46159 0.37464 0.0
H923 H 0.07582 0.46512 0.26801 0.0
C924 C 0.34884 0.69344 0.58078 0.0
C925 C 0.35358 0.70225 0.65691 0.0
N926 N 0.36533 0.71538 0.63505 0.0
N927 N 0.35739 0.70125 0.51189 0.0
C928 C 0.36723 0.71459 0.54658 0.0
H929 H 0.34043 0.68154 0.57636 0.0
Co930 Co 0.35999 0.69103 0.4044 0.0
C931 C 0.36033 0.7219 0.26151 0.0
O932 O 0.35179 0.71042 0.21062 0.0
N933 N 0.36283 0.679 0.29499 0.0
C934 C 0.35813 0.66195 0.17546 0.0
C935 C 0.35012 0.67272 0.23826 0.0
C936 C 0.37852 0.67209 0.26325 0.0
N937 N 0.37595 0.66165 0.19158 0.0
O938 O 0.38641 0.6854 0.44059 0.0
H939 H 0.33579 0.67543 0.24176 0.0
H940 H 0.39156 0.67376 0.29425 0.0
O941 O 0.36505 0.71652 0.34073 0.0
C942 C 0.38752 0.67233 0.49789 0.0
O943 O 0.37253 0.66363 0.5169 0.0
N944 N 0.33435 0.69377 0.38894 0.0
C945 C 0.29717 0.69459 0.43384 0.0
C946 C 0.30684 0.71058 0.41708 0.0
C947 C 0.32541 0.7099 0.39491 0.0
C948 C 0.32503 0.67815 0.40413 0.0
C949 C 0.30647 0.67823 0.42434 0.0
H950 H 0.33281 0.72242 0.39039 0.0
H951 H 0.33231 0.66551 0.40598 0.0
H952 H 0.37563 0.72348 0.50739 0.0
H953 H 0.34876 0.69932 0.72301 0.0
H954 H 0.35139 0.65453 0.12342 0.0
H955 H 0.30028 0.72354 0.42449 0.0
H956 H 0.29973 0.66558 0.43819 0.0
C957 C 0.05018 0.59559 0.35752 0.0
C958 C 0.04512 0.60484 0.43228 0.0
N959 N 0.0363 0.61984 0.40708 0.0
N960 N 0.04432 0.60464 0.28593 0.0
C961 C 0.03548 0.61901 0.31805 0.0
H962 H 0.05933 0.58424 0.35547 0.0
Co963 Co 0.05613 0.60412 0.18024 0.0
C964 C 0.02629 0.60436 0.0341 0.0
O965 O 0.03431 0.58943 1.00937 0.0
N966 N 0.06917 0.60374 0.07262 0.0
C967 C 0.08309 0.59623 0.94663 0.0
C968 C 0.07233 0.59017 1.01429 0.0
C969 C 0.07806 0.61793 0.03746 0.0
N970 N 0.08659 0.6137 0.96146 0.0
O971 O 0.06616 0.62957 0.2128 0.0
H972 H 0.06718 0.5766 1.01895 0.0
H973 H 0.07895 0.63105 0.06807 0.0
O974 O 0.03255 0.61234 0.10539 0.0
C975 C 0.07931 0.62873 0.2703 0.0
O976 O 0.08521 0.61263 0.2914 0.0
N977 N 0.05014 0.57907 0.17107 0.0
C978 C 0.0469 0.54238 0.21811 0.0
C979 C 0.03144 0.55307 0.20297 0.0
C980 C 0.03334 0.57149 0.18095 0.0
C981 C 0.06517 0.56875 0.18494 0.0
C982 C 0.06388 0.55046 0.20553 0.0
H983 H 0.02139 0.57987 0.17795 0.0
H984 H 0.07839 0.57501 0.18396 0.0
H985 H 0.02979 0.62925 0.27587 0.0
H986 H 0.04869 0.60137 0.49942 0.0
H987 H 0.08822 0.58836 0.8916 0.0
H988 H 0.01804 0.54753 0.21316 0.0
H989 H 0.07623 0.54286 0.21491 0.0
C990 C 0.16621 0.30957 0.10542 0.0
C991 C 0.1695 0.2945 0.15467 0.0
N992 N 0.16451 0.28015 0.10611 0.0
N993 N 0.15938 0.30443 0.02684 0.0
C994 C 0.15806 0.28649 0.03005 0.0
H995 H 0.17046 0.32311 0.12166 0.0
Co996 Co 0.15848 0.31864 0.93154 0.0
C997 C 0.15796 0.29268 0.76407 0.0
O998 O 0.16677 0.3053 0.72137 0.0
N999 N 0.15765 0.33423 0.83471 0.0
C1000 C 0.16408 0.35246 0.72219 0.0
C1001 C 0.17118 0.34101 0.784 0.0
C1002 C 0.14254 0.34188 0.80231 0.0
N1003 N 0.14605 0.35293 0.73391 0.0
O1004 O 0.13209 0.32498 0.96929 0.0
H1005 H 0.18535 0.3377 0.78921 0.0
H1006 H 0.1292 0.33985 0.82981 0.0
O1007 O 0.15282 0.29613 0.84546 0.0
C1008 C 0.13154 0.33703 0.03246 0.0
O1009 O 0.14696 0.34453 0.05468 0.0
N1010 N 0.18418 0.31484 0.91765 0.0
C1011 C 0.2213 0.31074 0.96019 0.0
C1012 C 0.21127 0.29646 0.92324 0.0
C1013 C 0.19272 0.2987 0.9033 0.0
C1014 C 0.19387 0.32893 0.95141 0.0
C1015 C 0.21234 0.32731 0.97102 0.0
H1016 H 0.1851 0.28702 0.88291 0.0
H1017 H 0.18697 0.34141 0.96696 0.0
H1018 H 0.15483 0.27801 0.97422 0.0
H1019 H 0.17675 0.29396 0.21668 0.0
H1020 H 0.17157 0.3598 0.67227 0.0
H1021 H 0.21741 0.28332 0.91445 0.0
H1022 H 0.2194 0.33894 0.99706 0.0
C1023 C 0.45504 0.41772 0.81418 0.0
C1024 C 0.46719 0.4222 0.87869 0.0
N1025 N 0.48303 0.41442 0.85697 0.0
N1026 N 0.46349 0.40742 0.75305 0.0
C1027 C 0.4804 0.40533 0.78157 0.0
H1028 H 0.44127 0.42254 0.80913 0.0
Co1029 Co 0.45375 0.40079 0.64972 0.0
C1030 C 0.485 0.40198 0.50799 0.0
O1031 O 0.47314 0.41152 0.46372 0.0
N1032 N 0.44263 0.39363 0.54599 0.0
C1033 C 0.43596 0.37725 0.42765 0.0
C1034 C 0.44912 0.38146 0.48735 0.0
C1035 C 0.42506 0.39565 0.52382 0.0
N1036 N 0.42084 0.38612 0.45084 0.0
O1037 O 0.44877 0.37552 0.70537 0.0
H1038 H 0.462 0.37467 0.49198 0.0
H1039 H 0.41514 0.40235 0.5651 0.0
O1040 O 0.47998 0.39592 0.58632 0.0
C1041 C 0.43501 0.37596 0.76026 0.0
O1042 O 0.42581 0.39107 0.76405 0.0
N1043 N 0.4554 0.42592 0.61496 0.0
C1044 C 0.45562 0.46344 0.65174 0.0
C1045 C 0.4718 0.45384 0.63957 0.0
C1046 C 0.47143 0.4352 0.62263 0.0
C1047 C 0.43953 0.43536 0.62029 0.0
C1048 C 0.43934 0.45401 0.63826 0.0
H1049 H 0.48413 0.42809 0.62672 0.0
H1050 H 0.42682 0.42824 0.62105 0.0
H1051 H 0.49096 0.39854 0.74457 0.0
H1052 H 0.46491 0.43112 0.93434 0.0
H1053 H 0.43676 0.36681 0.37759 0.0
H1054 H 0.48471 0.46035 0.65067 0.0
H1055 H 0.42646 0.46079 0.6464 0.0
C1056 C 0.12239 0.11925 0.55787 0.0
C1057 C 0.12249 0.11311 0.64553 0.0
C1058 C 0.13729 0.1287 0.52507 0.0
C1059 C 0.15206 0.13211 0.58071 0.0
H1060 H 0.10974 0.12 0.52213 0.0
H1061 H 0.13562 0.13642 0.465 0.0
S1062 S 0.16221 0.11021 0.79295 0.0
N1063 N 0.14127 0.10407 0.76973 0.0
N1064 N 0.16904 0.12256 0.70843 0.0
C1065 C 0.15421 0.12153 0.65592 0.0
C1066 C 0.13924 0.11166 0.68872 0.0
C1067 C 0.1463 0.8762 0.72193 0.0
C1068 C 0.14783 0.89133 0.77782 0.0
C1069 C 0.14953 0.85907 0.75623 0.0
C1070 C 0.15611 0.8573 0.84234 0.0
H1071 H 0.13844 0.87707 0.66179 0.0
H1072 H 0.14453 0.84738 0.72099 0.0
S1073 S 0.17266 0.89385 0.98792 0.0
N1074 N 0.16329 0.90427 0.90323 0.0
N1075 N 0.17109 0.87211 0.96591 0.0
C1076 C 0.16308 0.87261 0.88526 0.0
C1077 C 0.15906 0.88992 0.85139 0.0
C1078 C 0.3755 0.90911 0.11043 0.0
C1079 C 0.37701 0.91165 0.20203 0.0
C1080 C 0.36725 0.89361 0.07759 0.0
C1081 C 0.36021 0.88064 0.13616 0.0
H1082 H 0.3834 0.91725 0.06516 0.0
H1083 H 0.36898 0.89064 1.00802 0.0
S1084 S 0.35299 0.88628 0.3767 0.0
N1085 N 0.36506 0.90401 0.34682 0.0
N1086 N 0.34924 0.87474 0.28498 0.0
C1087 C 0.35771 0.88546 0.225 0.0
C1088 C 0.36612 0.90123 0.25816 0.0
C1089 C 0.37145 0.10684 0.36308 0.0
C1090 C 0.38493 0.10015 0.41923 0.0
C1091 C 0.35924 0.11981 0.39387 0.0
C1092 C 0.36121 0.12705 0.47944 0.0
H1093 H 0.3721 0.10409 0.29277 0.0
H1094 H 0.35094 0.12673 0.3458 0.0
S1095 S 0.38698 0.10601 0.66231 0.0
N1096 N 0.39395 0.09554 0.57201 0.0
N1097 N 0.37128 0.12025 0.62924 0.0
C1098 C 0.37091 0.11668 0.54115 0.0
C1099 C 0.38308 0.10321 0.51041 0.0
C1100 C 0.90314 0.85311 0.29198 0.0
C1101 C 0.90518 0.8531 0.38544 0.0
C1102 C 0.91407 0.86384 0.23428 0.0
C1103 C 0.92784 0.87537 0.26598 0.0
H1104 H 0.89197 0.8457 0.26326 0.0
H1105 H 0.91066 0.86418 0.16472 0.0
S1106 S 0.93916 0.88084 0.5042 0.0
N1107 N 0.92259 0.86587 0.50551 0.0
N1108 N 0.94285 0.88574 0.3991 0.0
C1109 C 0.93052 0.87494 0.35891 0.0
C1110 C 0.9194 0.86397 0.41766 0.0
C1111 C 0.92048 0.1697 0.10965 0.0
C1112 C 0.90536 0.17931 0.14244 0.0
C1113 C 0.9316 0.15884 0.1656 0.0
C1114 C 0.92861 0.15698 0.25835 0.0
H1115 H 0.92292 0.16935 0.03901 0.0
H1116 H 0.94209 0.1508 0.13445 0.0
S1117 S 0.89122 0.17963 0.37959 0.0
N1118 N 0.88843 0.18627 0.27635 0.0
N1119 N 0.90932 0.16657 0.37924 0.0
C1120 C 0.91415 0.16727 0.2926 0.0
C1121 C 0.90264 0.17811 0.23558 0.0
C1122 C 0.59868 0.14808 0.01968 0.0
C1123 C 0.59647 0.1519 0.92836 0.0
C1124 C 0.60962 0.15873 0.07694 0.0
C1125 C 0.61913 0.17414 0.04745 0.0
H1126 H 0.59283 0.13584 0.04632 0.0
H1127 H 0.61175 0.15401 0.14381 0.0
S1128 S 0.61801 0.19087 0.81568 0.0
N1129 N 0.60468 0.17298 0.81273 0.0
N1130 N 0.62505 0.19278 0.91889 0.0
C1131 C 0.61641 0.17866 0.95724 0.0
C1132 C 0.60519 0.16774 0.89859 0.0
C1133 C 0.61348 0.84092 0.68101 0.0
C1134 C 0.61315 0.84192 0.58721 0.0
C1135 C 0.60211 0.85171 0.73652 0.0
C1136 C 0.58965 0.86429 0.70186 0.0
H1137 H 0.62375 0.83272 0.71231 0.0
H1138 H 0.60427 0.8513 0.80728 0.0
S1139 S 0.58312 0.87256 0.46138 0.0
N1140 N 0.59878 0.85668 0.46345 0.0
N1141 N 0.57776 0.87667 0.56566 0.0
C1142 C 0.58864 0.86481 0.6082 0.0
C1143 C 0.60018 0.8538 0.55181 0.0
C1144 C 0.66282 0.63139 0.1781 0.0
C1145 C 0.66305 0.63395 0.08616 0.0
C1146 C 0.65067 0.6193 0.21615 0.0
C1147 C 0.63858 0.60955 0.1631 0.0
H1148 H 0.67023 0.64036 0.22134 0.0
H1149 H 0.64917 0.61918 0.28745 0.0
S1150 S 0.63852 0.60726 0.91831 0.0
N1151 N 0.65404 0.62248 0.94258 0.0
N1152 N 0.63069 0.59994 1.01419 0.0
C1153 C 0.64102 0.60967 0.07101 0.0
C1154 C 0.65347 0.62191 0.03236 0.0
C1155 C 0.63561 0.40929 0.52616 0.0
C1156 C 0.63502 0.41379 0.43623 0.0
C1157 C 0.65016 0.39935 0.55839 0.0
C1158 C 0.66373 0.39354 0.49952 0.0
H1159 H 0.62346 0.4103 0.5662 0.0
H1160 H 0.64866 0.39296 0.62233 0.0
S1161 S 0.67258 0.41046 0.27477 0.0
N1162 N 0.65254 0.41872 0.30193 0.0
N1163 N 0.67966 0.39934 0.36253 0.0
C1164 C 0.66574 0.40261 0.41934 0.0
C1165 C 0.65114 0.41297 0.3869 0.0
C1166 C 0.86983 0.4092 0.67358 0.0
C1167 C 0.88391 0.41428 0.61543 0.0
C1168 C 0.85626 0.39752 0.64439 0.0
C1169 C 0.85781 0.38977 0.55976 0.0
H1170 H 0.87049 0.41204 0.74357 0.0
H1171 H 0.84757 0.39135 0.69364 0.0
S1172 S 0.88048 0.4122 0.37084 0.0
N1173 N 0.88995 0.42097 0.4598 0.0
N1174 N 0.86499 0.39798 0.40756 0.0
C1175 C 0.8669 0.40021 0.49616 0.0
C1176 C 0.88043 0.41248 0.52439 0.0
C1177 C 0.86423 0.61585 0.74976 0.0
C1178 C 0.87748 0.60759 0.80216 0.0
C1179 C 0.85489 0.6309 0.78132 0.0
C1180 C 0.85855 0.6378 0.86597 0.0
H1181 H 0.86347 0.6127 0.6799 0.0
H1182 H 0.84691 0.63869 0.7352 0.0
S1183 S 0.88515 0.61506 0.04112 0.0
N1184 N 0.88854 0.60285 0.95131 0.0
N1185 N 0.87107 0.63117 1.01142 0.0
C1186 C 0.86821 0.62684 0.92527 0.0
C1187 C 0.87763 0.61148 0.89295 0.0
C1188 C 0.42482 0.3663 0.91505 0.0
C1189 C 0.42886 0.36126 0.82622 0.0
C1190 C 0.41408 0.35553 0.97361 0.0
C1191 C 0.40647 0.3388 0.9482 0.0
H1192 H 0.42907 0.37945 0.93827 0.0
H1193 H 0.41054 0.36111 0.03762 0.0
S1194 S 0.41236 0.31899 0.72305 0.0
N1195 N 0.42421 0.33783 0.71733 0.0
N1196 N 0.40404 0.3181 0.82453 0.0
C1197 C 0.41089 0.33336 0.86031 0.0
C1198 C 0.42202 0.34428 0.80074 0.0
C1199 C 0.41543 0.65628 0.6978 0.0
C1200 C 0.42859 0.64458 0.66112 0.0
C1201 C 0.40365 0.66686 0.64404 0.0
C1202 C 0.40428 0.6666 0.55006 0.0
H1203 H 0.41312 0.65612 0.76856 0.0
H1204 H 0.39296 0.67437 0.67668 0.0
S1205 S 0.43613 0.63844 0.4192 0.0
N1206 N 0.44132 0.63374 0.52275 0.0
N1207 N 0.41974 0.65356 0.42392 0.0
C1208 C 0.41792 0.65566 0.51273 0.0
C1209 C 0.4298 0.64475 0.56733 0.0
C1210 C 0.10466 0.65199 0.28807 0.0
C1211 C 0.08828 0.64447 0.31988 0.0
C1212 C 0.11713 0.6612 0.34438 0.0
C1213 C 0.11414 0.66365 0.43656 0.0
H1214 H 0.10864 0.64948 0.22014 0.0
H1215 H 0.12995 0.6654 0.31619 0.0
S1216 S 0.07369 0.64649 0.55588 0.0
N1217 N 0.07015 0.64031 0.45238 0.0
N1218 N 0.0931 0.65757 0.55583 0.0
C1219 C 0.09753 0.65687 0.46868 0.0
C1220 C 0.08488 0.64736 0.41143 0.0
C1221 C 0.10452 0.35308 0.23823 0.0
C1222 C 0.09012 0.36349 0.2044 0.0
C1223 C 0.11655 0.34312 0.18214 0.0
C1224 C 0.11502 0.34272 0.08833 0.0
H1225 H 0.10748 0.35377 0.30824 0.0
H1226 H 0.12801 0.33653 0.21265 0.0
S1227 S 0.07965 0.36744 0.96435 0.0
N1228 N 0.07511 0.37238 0.06876 0.0
N1229 N 0.09728 0.35374 0.96566 0.0
C1230 C 0.1002 0.35238 0.05394 0.0
C1231 C 0.08802 0.36266 0.11096 0.0
C1232 C 0.2619 0.20881 0.63181 0.0
C1233 C 0.25423 0.19437 0.58356 0.0
C1234 C 0.28053 0.20925 0.65403 0.0
C1235 C 0.29245 0.19518 0.62981 0.0
H1236 H 0.25339 0.21986 0.65355 0.0
H1237 H 0.2856 0.22062 0.69144 0.0
S1238 S 0.2801 0.1553 0.49403 0.0
N1239 N 0.26087 0.1664 0.50572 0.0
N1240 N 0.29535 0.16705 0.54887 0.0
C1241 C 0.28507 0.18086 0.58024 0.0
C1242 C 0.2662 0.18049 0.55692 0.0
C1243 C 0.06973 1.00572 0.72907 0.0
C1244 C 0.07896 0.99309 0.78189 0.0
C1245 C 0.06832 0.02399 0.75419 0.0
C1246 C 0.07602 0.03043 0.83337 0.0
H1247 H 0.06399 1.00156 0.66652 0.0
H1248 H 0.06159 0.03325 0.70989 0.0
S1249 S 0.09933 1.00236 1.00115 0.0
N1250 N 0.09445 0.98807 0.92091 0.0
N1251 N 0.09161 0.02212 0.96861 0.0
C1252 C 0.0846 0.01775 0.88846 0.0
C1253 C 0.08612 0.99921 0.86265 0.0
C1254 C 0.24841 0.83739 0.96878 0.0
C1255 C 0.24175 0.82577 0.03522 0.0
C1256 C 0.26699 0.83749 0.94359 0.0
C1257 C 0.27988 0.826 0.98364 0.0
H1258 H 0.23909 0.84605 0.93377 0.0
H1259 H 0.27116 0.84633 0.89042 0.0
S1260 S 0.26981 0.79478 0.16981 0.0
N1261 N 0.24993 0.80357 0.14541 0.0
N1262 N 0.28443 0.80403 0.10066 0.0
C1263 C 0.2734 0.81492 0.05293 0.0
C1264 C 0.25455 0.81475 0.0779 0.0
C1265 C 0.43944 0.02293 0.33386 0.0
C1266 C 0.4514 0.02852 0.26616 0.0
C1267 C 0.43903 1.00491 0.36538 0.0
C1268 C 0.45037 0.99121 0.33021 0.0
H1269 H 0.4304 0.0327 0.36391 0.0
H1270 H 0.42973 1.00181 0.41866 0.0
S1271 S 0.48325 0.99848 0.14563 0.0
N1272 N 0.47456 0.01869 0.16303 0.0
N1273 N 0.47328 0.98499 0.2176 0.0
C1274 C 0.46223 0.99669 0.261 0.0
C1275 C 0.46286 0.01516 0.23033 0.0
C1276 C 0.74876 0.80995 0.53604 0.0
C1277 C 0.74149 0.81918 0.46273 0.0
C1278 C 0.76726 0.81119 0.55804 0.0
C1279 C 0.77934 0.82185 0.50829 0.0
H1280 H 0.74002 0.80191 0.57797 0.0
H1281 H 0.77209 0.80395 0.61536 0.0
S1282 S 0.76781 0.84727 0.30498 0.0
N1283 N 0.74838 0.83831 0.33676 0.0
N1284 N 0.78289 0.84082 0.37869 0.0
C1285 C 0.77235 0.83088 0.434 0.0
C1286 C 0.75356 0.82952 0.4112 0.0
C1287 C 0.95597 0.03052 0.218 0.0
C1288 C 0.96589 0.03458 0.29557 0.0
C1289 C 0.95607 0.01321 0.17868 0.0
C1290 C 0.96633 0.99886 0.21331 0.0
H1291 H 0.94787 0.04086 0.18692 0.0
H1292 H 0.9479 0.01103 0.12035 0.0
S1293 S 0.99481 1.00167 0.41482 0.0
N1294 N 0.98635 0.02217 0.40526 0.0
N1295 N 0.98683 0.98999 0.33046 0.0
C1296 C 0.97672 1.00272 0.28933 0.0
C1297 C 0.97647 0.02038 0.33028 0.0
C1298 C 0.75173 0.22064 0.0429 0.0
C1299 C 0.74618 0.20738 0.10422 0.0
C1300 C 0.7695 0.22092 1.00696 0.0
C1301 C 0.78262 0.20794 0.03043 0.0
H1302 H 0.74214 0.23067 0.02084 0.0
H1303 H 0.77287 0.23124 0.95913 0.0
S1304 S 0.77584 0.17183 0.1975 0.0
N1305 N 0.75596 0.1819 0.19232 0.0
N1306 N 0.78901 0.18249 0.12636 0.0
C1307 C 0.77737 0.19501 0.09403 0.0
C1308 C 0.75933 0.19471 0.13032 0.0
C1309 C 0.57444 0.01647 0.76669 0.0
C1310 C 0.5619 0.02846 0.80563 0.0
C1311 C 0.57438 0.99796 0.78664 0.0
C1312 C 0.56173 0.99052 0.8462 0.0
H1313 H 0.58435 0.0214 0.71963 0.0
H1314 H 0.58416 0.98933 0.75388 0.0
S1315 S 0.52679 0.01602 0.97142 0.0
N1316 N 0.53706 0.03148 0.91089 0.0
N1317 N 0.53676 0.99673 0.9467 0.0
C1318 C 0.54917 1.00231 0.88609 0.0
C1319 C 0.5493 0.02121 0.86626 0.0
C1320 C 0.74697 0.71389 0.9893 0.0
C1321 C 0.74063 0.70235 0.92117 0.0
C1322 C 0.76534 0.71408 1.01679 0.0
C1323 C 0.77846 0.70252 0.97894 0.0
H1324 H 0.73756 0.72268 0.02352 0.0
H1325 H 0.76923 0.72311 0.06972 0.0
S1326 S 0.7701 0.67108 0.79212 0.0
N1327 N 0.75008 0.6802 0.81134 0.0
N1328 N 0.78396 0.68007 0.86531 0.0
C1329 C 0.77249 0.69118 0.90992 0.0
C1330 C 0.75387 0.69119 0.88073 0.0
C1331 C 0.58454 0.50451 0.37949 0.0
C1332 C 0.57385 0.49704 0.31161 0.0
C1333 C 0.58318 0.52288 0.404 0.0
C1334 C 0.57126 0.53492 0.36097 0.0
H1335 H 0.5941 0.49605 0.41413 0.0
H1336 H 0.5917 0.52768 0.45711 0.0
S1337 S 0.54116 0.52234 0.17374 0.0
N1338 N 0.55123 0.50324 0.20017 0.0
N1339 N 0.54913 0.53764 0.24277 0.0
C1340 C 0.56054 0.52753 0.29244 0.0
C1341 C 0.56173 0.50873 0.26865 0.0
C1342 C 0.76288 0.32943 0.42159 0.0
C1343 C 0.75667 0.32172 0.50143 0.0
C1344 C 0.78118 0.3281 0.3941 0.0
C1345 C 0.79435 0.31913 0.44538 0.0
H1346 H 0.75346 0.33656 0.3796 0.0
H1347 H 0.78499 0.3342 0.33181 0.0
S1348 S 0.78549 0.29786 0.66407 0.0
N1349 N 0.76547 0.30536 0.63311 0.0
N1350 N 0.79963 0.30324 0.58354 0.0
C1351 C 0.78828 0.31147 0.52587 0.0
C1352 C 0.7696 0.31268 0.55326 0.0
C1353 C 0.93095 0.53168 0.67725 0.0
C1354 C 0.94475 0.5381 0.62069 0.0
C1355 C 0.93055 0.51368 0.70749 0.0
C1356 C 0.94383 0.5009 0.68232 0.0
H1357 H 0.92047 0.54081 0.70008 0.0
H1358 H 0.91978 0.50987 0.75246 0.0
S1359 S 0.98232 0.51038 0.52959 0.0
N1360 N 0.9718 0.52994 0.53827 0.0
N1361 N 0.97084 0.49617 0.59238 0.0
C1362 C 0.95762 0.50711 0.6246 0.0
C1363 C 0.95813 0.52558 0.5946 0.0
C1364 C 0.25356 0.29905 0.93863 0.0
C1365 C 0.24067 0.30837 0.99075 0.0
C1366 C 0.27192 0.29766 0.96438 0.0
C1367 C 0.27828 0.30557 0.04334 0.0
H1368 H 0.24955 0.2932 0.87605 0.0
H1369 H 0.28134 0.29085 0.92061 0.0
S1370 S 0.24984 0.3291 0.21023 0.0
N1371 N 0.23553 0.32381 0.13076 0.0
N1372 N 0.26979 0.3216 0.17713 0.0
C1373 C 0.26543 0.31427 0.0976 0.0
C1374 C 0.24677 0.31556 0.07196 0.0
C1375 C 0.46726 0.4957 0.64737 0.0
C1376 C 0.45586 0.4826 0.68579 0.0
C1377 C 0.46798 0.51357 0.67997 0.0
C1378 C 0.45746 0.51922 0.75324 0.0
H1379 H 0.47557 0.49218 0.59074 0.0
H1380 H 0.47666 0.52312 0.64624 0.0
S1381 S 0.42704 0.48961 0.8848 0.0
N1382 N 0.43483 0.47631 0.8057 0.0
N1383 N 0.43631 0.50954 0.86718 0.0
C1384 C 0.44636 0.50609 0.79364 0.0
C1385 C 0.44555 0.48794 0.76008 0.0
C1386 C 0.26456 0.68428 0.42509 0.0
C1387 C 0.27792 0.69472 0.46713 0.0
C1388 C 0.24671 0.68326 0.45835 0.0
C1389 C 0.24133 0.69237 0.53644 0.0
H1390 H 0.26792 0.67683 0.36558 0.0
H1391 H 0.237 0.67528 0.42182 0.0
S1392 S 0.27166 0.72057 0.67534 0.0
N1393 N 0.28472 0.71397 0.59252 0.0
N1394 N 0.25155 0.71166 0.65664 0.0
C1395 C 0.25469 0.70278 0.57944 0.0
C1396 C 0.27282 0.70402 0.54464 0.0
C1397 C 0.03455 0.49209 0.23661 0.0
C1398 C 0.04638 0.48585 0.30274 0.0
C1399 C 0.03423 0.51046 0.21141 0.0
C1400 C 0.04574 0.52327 0.25143 0.0
H1401 H 0.02599 0.48261 0.2018 0.0
H1402 H 0.02543 0.5145 0.15796 0.0
S1403 S 0.07722 0.51406 0.43709 0.0
N1404 N 0.06861 0.49414 0.41282 0.0
N1405 N 0.0677 0.52843 0.3683 0.0
C1406 C 0.05684 0.51722 0.32111 0.0
C1407 C 0.05726 0.49861 0.34589 0.0
C1408 C 0.19558 0.24232 0.15378 0.0
C1409 C 0.18348 0.22781 0.15354 0.0
C1410 C 0.18936 0.25956 0.13571 0.0
C1411 C 0.17107 0.26238 0.11562 0.0
H1412 H 0.20916 0.24068 0.17919 0.0
H1413 H 0.19859 0.27083 0.14185 0.0
S1414 S 0.13567 0.22786 0.08341 0.0
N1415 N 0.15377 0.21651 0.11477 0.0
N1416 N 0.14196 0.24922 0.07891 0.0
C1417 C 0.15961 0.24766 0.1025 0.0
C1418 C 0.16596 0.23015 0.12102 0.0
C1419 C 1.00864 0.93318 0.40402 0.0
C1420 C 1.00121 0.91635 0.38267 0.0
C1421 C 0.02699 0.93478 0.42121 0.0
C1422 C 0.03817 0.91958 0.41785 0.0
H1423 H 1.00038 0.94523 0.40332 0.0
H1424 H 0.03244 0.94785 0.43871 0.0
S1425 S 0.0249 0.87262 0.36838 0.0
N1426 N 1.00595 0.88432 0.36069 0.0
N1427 N 0.04081 0.88729 0.39505 0.0
C1428 C 0.03084 0.90266 0.39868 0.0
C1429 C 1.01219 0.90105 0.38072 0.0
C1430 C 0.36019 0.75529 0.77625 0.0
C1431 C 0.37447 0.76588 0.74448 0.0
C1432 C 0.35848 0.73748 0.74926 0.0
C1433 C 0.37098 0.73005 0.6893 0.0
H1434 H 0.34949 0.76134 0.81557 0.0
H1435 H 0.34626 0.7303 0.76726 0.0
S1436 S 0.41348 0.75116 0.60985 0.0
N1437 N 0.40311 0.76722 0.66656 0.0
N1438 N 0.40037 0.73317 0.61725 0.0
C1439 C 0.38674 0.7398 0.66831 0.0
C1440 C 0.38832 0.75802 0.69515 0.0
C1441 C 0.51238 0.15316 0.06244 0.0
C1442 C 0.50514 0.14339 0.1333 0.0
C1443 C 0.5295 0.14882 0.0296 0.0
C1444 C 0.53914 0.13417 0.06537 0.0
H1445 H 0.50367 0.16172 0.0233 0.0
H1446 H 0.53374 0.155 0.96821 0.0
S1447 S 0.53017 0.1132 0.28391 0.0
N1448 N 0.51208 0.12548 0.26313 0.0
N1449 N 0.54398 0.11652 0.1994 0.0
C1450 C 0.53421 0.12836 0.15066 0.0
C1451 C 0.51706 0.1333 0.18556 0.0
C1452 C 0.1943 0.74289 0.41786 0.0
C1453 C 0.18985 0.72881 0.35964 0.0
C1454 C 0.19541 0.76047 0.38706 0.0
C1455 C 0.19257 0.76406 0.29726 0.0
H1456 H 0.19463 0.74068 0.48857 0.0
H1457 H 0.19597 0.77126 0.43519 0.0
S1458 S 0.19118 0.73085 0.11476 0.0
N1459 N 0.18961 0.71875 0.20598 0.0
N1460 N 0.1933 0.75196 0.14776 0.0
C1461 C 0.19301 0.7497 0.23691 0.0
C1462 C 0.19125 0.73184 0.2683 0.0
C1463 C 0.51073 0.87288 0.52846 0.0
C1464 C 0.50216 0.88432 0.46842 0.0
C1465 C 0.52753 0.87758 0.56316 0.0
C1466 C 0.53558 0.89419 0.54102 0.0
H1467 H 0.5033 0.86182 0.55793 0.0
H1468 H 0.5329 0.8695 0.61645 0.0
S1469 S 0.52163 0.9245 0.35921 0.0
N1470 N 0.50548 0.9092 0.36567 0.0
N1471 N 0.53665 0.91876 0.43458 0.0
C1472 C 0.529 0.90349 0.46717 0.0
C1473 C 0.5122 0.89831 0.42976 0.0
C1474 C 0.39169 0.25853 0.69211 0.0
C1475 C 0.40403 0.24874 0.74394 0.0
C1476 C 0.38384 0.27415 0.72592 0.0
C1477 C 0.38904 0.28054 0.80931 0.0
H1478 H 0.38525 0.25228 0.63566 0.0
H1479 H 0.37203 0.27947 0.69299 0.0
S1480 S 0.42926 0.26596 0.9361 0.0
N1481 N 0.42667 0.25044 0.85869 0.0
N1482 N 0.4133 0.28111 0.91844 0.0
C1483 C 0.40518 0.2739 0.84618 0.0
C1484 C 0.41265 0.25766 0.81315 0.0
C1485 C 0.04249 0.11554 0.29664 0.0
C1486 C 0.05067 0.1259 0.23015 0.0
C1487 C 0.02452 0.11875 0.31927 0.0
C1488 C 0.01484 0.13244 0.27651 0.0
H1489 H 0.04863 0.10311 0.31878 0.0
H1490 H 0.01745 0.10892 0.35956 0.0
S1491 S 0.03356 0.16868 0.13744 0.0
N1492 N 0.0507 0.15478 0.15395 0.0
N1493 N 0.01614 0.16002 0.19164 0.0
C1494 C 0.02415 0.14532 0.22756 0.0
C1495 C 0.04261 0.1424 0.20706 0.0
C1496 C 0.85227 0.75061 0.73828 0.0
C1497 C 0.86037 0.74583 0.82047 0.0
C1498 C 0.85683 0.76663 0.69018 0.0
C1499 C 0.86982 0.77918 0.72071 0.0
H1500 H 0.84205 0.74188 0.71022 0.0
H1501 H 0.84982 0.76927 0.6289 0.0
S1502 S 0.89551 0.77355 0.93145 0.0
N1503 N 0.88245 0.75553 0.92823 0.0
N1504 N 0.89094 0.78503 0.84091 0.0
C1505 C 0.87818 0.77445 0.80249 0.0
C1506 C 0.87354 0.75811 0.85108 0.0
C1507 C 0.02914 0.12434 0.6517 0.0
C1508 C 0.03036 0.12018 0.74377 0.0
C1509 C 0.01269 0.12325 0.60181 0.0
C1510 C 0.99613 0.11753 0.63982 0.0
H1511 H 0.0414 0.12782 0.61608 0.0
H1512 H 0.01325 0.12592 0.53148 0.0
S1513 S 0.99087 0.1058 0.87887 0.0
N1514 N 0.01258 0.11087 0.87034 0.0
N1515 N 0.9822 0.10856 0.77925 0.0
C1516 C 0.99698 0.11397 0.73266 0.0
C1517 C 0.01374 0.11536 0.78356 0.0
C1518 C 0.6641 0.25139 0.46809 0.0
C1519 C 0.66222 0.2494 0.37448 0.0
C1520 C 0.66539 0.26848 0.51205 0.0
C1521 C 0.66508 0.28495 0.46545 0.0
H1522 H 0.66523 0.23943 0.50855 0.0
H1523 H 0.66774 0.26868 0.58267 0.0
S1524 S 0.65942 0.28817 0.22049 0.0
N1525 N 0.65923 0.26622 0.2385 0.0
N1526 N 0.66178 0.29781 0.31836 0.0
C1527 C 0.6625 0.2832 0.37219 0.0
C1528 C 0.661 0.26577 0.32774 0.0
C1529 C 0.49361 0.89684 0.15295 0.0
C1530 C 0.48259 0.91175 0.13122 0.0
C1531 C 0.50875 0.89147 0.0998 0.0
C1532 C 0.5139 0.90043 0.02029 0.0
H1533 H 0.49095 0.88947 0.21306 0.0
H1534 H 0.51676 0.88023 0.12294 0.0
S1535 S 0.48865 0.93923 0.92663 0.0
N1536 N 0.47763 0.93472 1.01915 0.0
N1537 N 0.50527 0.92441 0.92065 0.0
C1538 C 0.50254 0.91489 0.99595 0.0
C1539 C 0.48725 0.92052 0.05052 0.0
C1540 C 0.85737 0.27026 0.8084 0.0
C1541 C 0.86855 0.25502 0.79507 0.0
C1542 C 0.85703 0.28516 0.74857 0.0
C1543 C 0.86769 0.28603 0.66983 0.0
H1544 H 0.84794 0.27028 0.86341 0.0
H1545 H 0.84765 0.29598 0.76334 0.0
S1546 S 0.89948 0.24966 0.60148 0.0
N1547 N 0.89062 0.24193 0.69447 0.0
N1548 N 0.89034 0.2697 0.58525 0.0
C1549 C 0.87937 0.2711 0.657 0.0
C1550 C 0.87959 0.25579 0.71784 0.0
C1551 C 0.50998 0.12718 0.58237 0.0
C1552 C 0.52076 0.11145 0.58096 0.0
C1553 C 0.49421 0.12908 0.52798 0.0
C1554 C 0.48806 0.11543 0.46832 0.0
H1555 H 0.51402 0.13839 0.6237 0.0
H1556 H 0.48691 0.1417 0.53186 0.0
S1557 S 0.5102 0.07085 0.44292 0.0
N1558 N 0.52287 0.08131 0.51657 0.0
N1559 N 0.49404 0.08517 0.41661 0.0
C1560 C 0.4984 0.09951 0.46827 0.0
C1561 C 0.51436 0.09749 0.52347 0.0
C1562 C 0.64596 0.74864 0.13535 0.0
C1563 C 0.66234 0.73906 0.14656 0.0
C1564 C 0.64077 0.76325 0.19211 0.0
C1565 C 0.65138 0.76917 0.26527 0.0
H1566 H 0.63724 0.74525 0.08051 0.0
H1567 H 0.6283 0.77022 0.17701 0.0
S1568 S 0.69469 0.74769 0.33106 0.0
N1569 N 0.68859 0.73623 0.24242 0.0
N1570 N 0.67871 0.76289 0.34722 0.0
C1571 C 0.66736 0.75918 0.27933 0.0
C1572 C 0.67279 0.74448 0.22107 0.0
C1573 C 0.03854 0.90783 0.93169 0.0
C1574 C 0.04042 0.90788 0.83748 0.0
C1575 C 0.02145 0.909 0.97711 0.0
C1576 C 1.00485 0.91067 0.93165 0.0
H1577 H 0.05065 0.90761 0.97175 0.0
H1578 H 0.02142 0.9097 0.04864 0.0
S1579 S 1.00133 0.91076 0.68489 0.0
N1580 N 0.02333 0.909 0.70164 0.0
N1581 N 0.99179 0.91136 0.78395 0.0
C1582 C 1.00648 0.91007 0.83728 0.0
C1583 C 0.02389 0.90863 0.79132 0.0
C1584 C 0.62472 0.78308 0.72747 0.0
C1585 C 0.64141 0.79076 0.75176 0.0
C1586 C 0.61945 0.76645 0.76188 0.0
C1587 C 0.63056 0.75759 0.82259 0.0
H1588 H 0.61713 0.78851 0.67256 0.0
H1589 H 0.6085 0.75921 0.73031 0.0
S1590 S 0.67035 0.77638 0.93819 0.0
N1591 N 0.66529 0.79147 0.86221 0.0
N1592 N 0.65481 0.76053 0.92934 0.0
C1593 C 0.64435 0.76746 0.86404 0.0
C1594 C 0.65006 0.78412 0.82742 0.0
C1595 C 0.53006 0.40672 0.92876 0.0
C1596 C 0.53617 0.42433 0.94384 0.0
C1597 C 0.51234 0.40357 0.90344 0.0
C1598 C 0.50031 0.41794 0.89292 0.0
H1599 H 0.53905 0.39535 0.93794 0.0
H1600 H 0.50795 0.38985 0.89151 0.0
S1601 S 0.50994 0.46655 0.92166 0.0
N1602 N 0.52913 0.45633 0.94618 0.0
N1603 N 0.49558 0.45036 0.89524 0.0
C1604 C 0.50626 0.43565 0.90653 0.0
C1605 C 0.52435 0.43887 0.93241 0.0
C1606 C 0.88102 0.25612 0.37975 0.0
C1607 C 0.89705 0.26249 0.33985 0.0
C1608 C 0.87306 0.24021 0.35005 0.0
C1609 C 0.88124 0.23053 0.28125 0.0
H1610 H 0.87295 0.26499 0.42098 0.0
H1611 H 0.85923 0.23737 0.36952 0.0
S1612 S 0.92751 0.23691 0.19232 0.0
N1613 N 0.92373 0.25492 0.25418 0.0
N1614 N 0.90934 0.22409 0.2028 0.0
C1615 C 0.89941 0.23422 0.26007 0.0
C1616 C 0.90725 0.25065 0.28825 0.0
C1617 C 1.00705 0.63726 0.58412 0.0
C1618 C 0.99777 0.65022 0.53381 0.0
C1619 C 0.0219 0.62835 0.54739 0.0
C1620 C 0.02831 0.63331 0.46332 0.0
H1621 H 1.00067 0.63122 0.64139 0.0
H1622 H 0.02646 0.61612 0.57894 0.0
S1623 S 0.01657 0.6752 0.34383 0.0
N1624 N 1.00106 0.67339 0.42241 0.0
N1625 N 0.03052 0.65804 0.35767 0.0
C1626 C 0.02287 0.65009 0.42949 0.0
C1627 C 1.00731 0.65862 0.46537 0.0
C1628 C 0.66085 0.264 0.9498 0.0
C1629 C 0.67334 0.24992 0.9418 0.0
C1630 C 0.6658 0.28141 0.92706 0.0
C1631 C 0.68338 0.28506 0.89718 0.0
H1632 H 0.64719 0.26138 0.97272 0.0
H1633 H 0.65572 0.29201 0.92936 0.0
S1634 S 0.72141 0.25301 0.87371 0.0
N1635 N 0.70427 0.24071 0.90977 0.0
N1636 N 0.71354 0.27375 0.86485 0.0
C1637 C 0.69622 0.27126 0.89287 0.0
C1638 C 0.69116 0.25351 0.91542 0.0
C1639 C 0.98337 0.43917 0.15318 0.0
C1640 C 0.96785 0.42836 0.14903 0.0
C1641 C 1.00005 0.43138 0.17126 0.0
C1642 C 1.00127 0.41283 0.18761 0.0
H1643 H 0.98303 0.45293 0.12961 0.0
H1644 H 1.01217 0.43954 0.16658 0.0
S1645 S 0.96369 0.38058 0.2144 0.0
N1646 N 0.95393 0.39961 0.18393 0.0
N1647 N 0.98558 0.38497 0.22101 0.0
C1648 C 0.98555 0.40271 0.1991 0.0
C1649 C 0.96861 0.4106 0.18007 0.0
C1650 C 0.87051 0.77046 0.14474 0.0
C1651 C 0.88245 0.75885 0.18839 0.0
C1652 C 0.8687 0.78823 0.17259 0.0
C1653 C 0.87875 0.79448 0.24503 0.0
H1654 H 0.86086 0.76512 0.09774 0.0
H1655 H 0.85753 0.79596 0.14656 0.0
S1656 S 0.91745 0.77129 0.35025 0.0
N1657 N 0.90812 0.75586 0.28597 0.0
N1658 N 0.90575 0.78998 0.33448 0.0
C1659 C 0.89357 0.78415 0.27379 0.0
C1660 C 0.89503 0.76591 0.24721 0.0
C1661 C 0.50231 0.64774 0.48966 0.0
C1662 C 0.51305 0.63874 0.42706 0.0
C1663 C 0.4874 0.63906 0.5272 0.0
C1664 C 0.483 0.62131 0.50214 0.0
H1665 H 0.50729 0.65992 0.52071 0.0
H1666 H 0.48078 0.64531 0.58344 0.0
S1667 S 0.50171 0.59627 0.31049 0.0
N1668 N 0.51418 0.61464 0.31793 0.0
N1669 N 0.48645 0.598 0.39008 0.0
C1670 C 0.49088 0.61428 0.42503 0.0
C1671 C 0.50584 0.62331 0.38597 0.0
C1672 C 0.38322 0.26151 0.36192 0.0
C1673 C 0.37285 0.26479 0.28394 0.0
C1674 C 0.38089 0.24596 0.41729 0.0
C1675 C 0.36781 0.23247 0.39978 0.0
H1676 H 0.39332 0.27127 0.38166 0.0
H1677 H 0.38929 0.2447 0.47538 0.0
S1678 S 0.33725 0.23356 0.203 0.0
N1679 N 0.34918 0.25224 0.19257 0.0
N1680 N 0.34461 0.22369 0.29374 0.0
C1681 C 0.35753 0.23545 0.32106 0.0
C1682 C 0.36005 0.25123 0.26452 0.0
C1683 C 0.50913 0.62538 0.05308 0.0
C1684 C 0.50306 0.61253 0.98936 0.0
C1685 C 0.52396 0.62219 0.11202 0.0
C1686 C 0.53362 0.60571 0.11311 0.0
H1687 H 0.50213 0.63814 0.05877 0.0
H1688 H 0.52746 0.63261 0.15911 0.0
S1689 S 0.52412 0.56749 0.95844 0.0
N1690 N 0.50892 0.58273 0.93081 0.0
N1691 N 0.536 0.57655 0.03935 0.0
C1692 C 0.52792 0.59291 0.04821 0.0
C1693 C 0.51301 0.5963 0.9876 0.0
C1694 C 0.1608 0.75002 0.75033 0.0
C1695 C 0.15567 0.7336 0.79011 0.0
C1696 C 0.16259 0.76638 0.80009 0.0
C1697 C 0.15941 0.76763 0.89335 0.0
H1698 H 0.16423 0.75016 0.68064 0.0
H1699 H 0.16686 0.77826 0.76422 0.0
S1700 S 0.14431 0.72888 0.02997 0.0
N1701 N 0.14657 0.72011 0.93003 0.0
N1702 N 0.14977 0.75038 0.02083 0.0
C1703 C 0.15375 0.7514 0.93328 0.0
C1704 C 0.15198 0.73471 0.8828 0.0
C1705 C 0.99954 0.41361 0.70772 0.0
C1706 C 0.98508 0.40182 0.68847 0.0
C1707 C 0.01569 0.41423 0.65524 0.0
C1708 C 0.01863 0.40331 0.57854 0.0
H1709 H 0.99845 0.42252 0.7643 0.0
H1710 H 0.02601 0.42373 0.67532 0.0
S1711 S 0.98485 0.37057 0.4939 0.0
N1712 N 0.97498 0.37904 0.583 0.0
N1713 N 1.00476 0.38057 0.48612 0.0
C1714 C 1.00423 0.39157 0.5579 0.0
C1715 C 0.98779 0.39076 0.61186 0.0
C1716 C 0.35428 0.77359 0.22171 0.0
C1717 C 0.3588 0.77622 0.13071 0.0
C1718 C 0.35621 0.75667 0.26629 0.0
C1719 C 0.36265 0.74104 0.22283 0.0
H1720 H 0.34877 0.78476 0.25933 0.0
H1721 H 0.35167 0.75566 0.33428 0.0
S1722 S 0.37711 0.73995 0.98619 0.0
N1723 N 0.37084 0.76111 1.00108 0.0
N1724 N 0.37402 0.72978 0.08214 0.0
C1725 C 0.36762 0.74356 0.13253 0.0
C1726 C 0.36589 0.76085 0.08759 0.0
C1727 C 0.99535 0.62089 1.00447 0.0
C1728 C 1.01021 0.61043 0.97484 0.0
C1729 C 0.97989 0.62439 0.94963 0.0
C1730 C 0.97807 0.61765 0.86139 0.0
H1731 H 0.9954 0.62611 0.07136 0.0
H1732 H 0.96906 0.63242 0.97769 0.0
S1733 S 0.01349 0.59066 0.74725 0.0
N1734 N 0.02209 0.59432 0.8462 0.0
N1735 N 0.99351 0.60057 0.74761 0.0
C1736 C 0.99295 0.60751 0.8307 0.0
C1737 C 1.00871 0.60404 0.88575 0.0
C1738 C 0.15843 0.25763 0.76258 0.0
C1739 C 0.1568 0.27413 0.71701 0.0
C1740 C 0.16115 0.24088 0.7174 0.0
C1741 C 0.16222 0.23924 0.62334 0.0
H1742 H 0.15862 0.2577 0.83417 0.0
H1743 H 0.16302 0.22899 0.7577 0.0
S1744 S 0.15739 0.27797 0.47056 0.0
N1745 N 0.15546 0.28726 0.56959 0.0
N1746 N 0.16033 0.25618 0.48722 0.0
C1747 C 0.1597 0.25548 0.57685 0.0
C1748 C 0.15712 0.27263 0.62273 0.0
C1749 C 0.53737 0.40241 0.46304 0.0
C1750 C 0.5392 0.40332 0.36888 0.0
C1751 C 0.52035 0.40063 0.50811 0.0
C1752 C 0.50376 0.39975 0.4623 0.0
H1753 H 0.54935 0.40369 0.50355 0.0
H1754 H 0.52018 0.40092 0.57969 0.0
S1755 S 0.50025 0.40023 0.21558 0.0
N1756 N 0.52223 0.40214 0.23264 0.0
N1757 N 0.49074 0.39886 0.31446 0.0
C1758 C 0.50543 0.39989 0.36795 0.0
C1759 C 0.52281 0.4016 0.32229 0.0
C1760 C 0.13743 0.16969 0.13638 0.0
C1761 C 0.13468 0.16994 0.22979 0.0
C1762 C 0.12559 0.16073 0.07542 0.0
C1763 C 0.10989 0.15117 0.10235 0.0
H1764 H 0.14964 0.17573 0.10979 0.0
H1765 H 0.12959 0.16022 1.00648 0.0
S1766 S 0.09604 0.14662 0.33882 0.0
N1767 N 0.1144 0.1593 0.34467 0.0
N1768 N 0.09273 0.14248 0.23268 0.0
C1769 C 0.1067 0.15164 0.19547 0.0
C1770 C 0.11872 0.16095 0.25778 0.0
C1771 C 0.13055 0.879 0.38918 0.0
C1772 C 0.1161 0.87538 0.45041 0.0
C1773 C 0.13767 0.86606 0.32702 0.0
C1774 C 0.13088 0.84828 0.32019 0.0
H1775 H 0.13658 0.89229 0.38836 0.0
H1776 H 0.14848 0.8702 0.28302 0.0
S1777 S 0.09344 0.83085 0.46519 0.0
N1778 N 0.09577 0.85189 0.49894 0.0
N1779 N 0.10855 0.82791 0.38565 0.0
C1780 C 0.11655 0.84438 0.38204 0.0
C1781 C 0.10939 0.85762 0.44546 0.0
C1782 C 0.36999 0.88207 0.6666 0.0
C1783 C 0.37845 0.86768 0.71217 0.0
C1784 C 0.37914 0.89336 0.60448 0.0
C1785 C 0.39764 0.89124 0.58006 0.0
H1786 H 0.35573 0.88461 0.67807 0.0
H1787 H 0.37118 0.90382 0.57347 0.0
S1788 S 0.42698 0.85563 0.67749 0.0
N1789 N 0.40725 0.85217 0.72691 0.0
N1790 N 0.42419 0.87298 0.61043 0.0
C1791 C 0.40653 0.87697 0.62547 0.0
C1792 C 0.39713 0.86546 0.69061 0.0
C1793 C 0.42127 0.14258 0.97096 0.0
C1794 C 0.40868 0.13054 1.00996 0.0
C1795 C 0.41687 0.15388 0.89679 0.0
C1796 C 0.39949 0.15431 0.85491 0.0
H1797 H 0.43481 0.14331 0.99776 0.0
H1798 H 0.42751 0.16257 0.87205 0.0
S1799 S 0.36105 0.12568 0.92845 0.0
N1800 N 0.37743 0.12013 0.99724 0.0
N1801 N 0.36964 0.14105 0.86153 0.0
C1802 C 0.38676 0.14241 0.8931 0.0
C1803 C 0.3912 0.13078 0.96858 0.0
C1804 C 0.91861 0.87782 0.83807 0.0
C1805 C 0.91263 0.89477 0.86729 0.0
C1806 C 0.90654 0.86561 0.79958 0.0
C1807 C 0.8881 0.86985 0.79182 0.0
H1808 H 0.93271 0.8741 0.8446 0.0
H1809 H 0.91153 0.85271 0.77642 0.0
S1810 S 0.86572 0.91228 0.85952 0.0
N1811 N 0.88719 0.91519 0.88616 0.0
N1812 N 0.86438 0.89193 0.81544 0.0
C1813 C 0.88192 0.88664 0.82142 0.0
C1814 C 0.89426 0.89923 0.85877 0.0
C1815 C 0.88028 0.1546 0.6334 0.0
C1816 C 0.88104 0.15624 0.72576 0.0
C1817 C 0.88969 0.14091 0.5893 0.0
C1818 C 0.90029 0.12847 0.63614 0.0
H1819 H 0.8735 0.16484 0.59484 0.0
H1820 H 0.88966 0.14074 0.5177 0.0
S1821 S 0.90556 0.12627 0.87953 0.0
N1822 N 0.89203 0.14366 0.86329 0.0
N1823 N 0.90991 0.11786 0.78046 0.0
C1824 C 0.9 0.12909 0.72906 0.0
C1825 C 0.89031 0.14304 0.77396 0.0
C1826 C 0.61162 0.14064 0.43303 0.0
C1827 C 0.61228 0.13803 0.52464 0.0
C1828 C 0.62379 0.1523 0.39137 0.0
C1829 C 0.63718 0.16137 0.4401 0.0
H1830 H 0.60166 0.13356 0.39372 0.0
H1831 H 0.6231 0.1538 0.32026 0.0
S1832 S 0.64464 0.15864 0.68153 0.0
N1833 N 0.62722 0.1452 0.66309 0.0
N1834 N 0.65035 0.16705 0.58428 0.0
C1835 C 0.63792 0.15888 0.53182 0.0
C1836 C 0.62537 0.14722 0.57434 0.0
C1837 C 0.62337 0.85384 0.1064 0.0
C1838 C 0.6319 0.85881 0.18541 0.0
C1839 C 0.61054 0.8651 0.06735 0.0
C1840 C 0.60591 0.88182 0.1055 0.0
H1841 H 0.62617 0.84088 0.07628 0.0
H1842 H 0.60388 0.86042 1.00801 0.0
S1843 S 0.62595 0.90171 0.30796 0.0
N1844 N 0.63583 0.88185 0.29795 0.0
N1845 N 0.61194 0.90329 0.22357 0.0
C1846 C 0.61479 0.88716 0.18329 0.0
C1847 C 0.62776 0.87559 0.22341 0.0
C1848 C 0.61495 0.63604 0.66457 0.0
C1849 C 0.61458 0.63642 0.56993 0.0
C1850 C 0.62644 0.64735 0.7176 0.0
C1851 C 0.63886 0.65978 0.68033 0.0
H1852 H 0.60608 0.62679 0.69916 0.0
H1853 H 0.62577 0.64605 0.78883 0.0
S1854 S 0.64378 0.66679 0.43624 0.0
N1855 N 0.62802 0.65106 0.44293 0.0
N1856 N 0.64951 0.67163 0.53905 0.0
C1857 C 0.63861 0.66033 0.58558 0.0
C1858 C 0.62665 0.649 0.53186 0.0
C1859 C 0.63865 0.35654 0.95257 0.0
C1860 C 0.63789 0.35727 0.85809 0.0
C1861 C 0.6271 0.36692 1.01058 0.0
C1862 C 0.61392 0.37919 0.979 0.0
H1863 H 0.64906 0.34837 0.98282 0.0
H1864 H 0.62949 0.36621 0.08107 0.0
S1865 S 0.60591 0.3871 0.7384 0.0
N1866 N 0.6221 0.37173 0.73774 0.0
N1867 N 0.60114 0.39115 0.84347 0.0
C1868 C 0.61274 0.37976 0.88465 0.0
C1869 C 0.62432 0.36896 0.82569 0.0
C1870 C 0.92286 0.371 0.07757 0.0
C1871 C 0.91098 0.38452 0.04634 0.0
C1872 C 0.91823 0.35916 0.14971 0.0
C1873 C 0.9013 0.35965 0.19663 0.0
H1874 H 0.93618 0.36985 0.04797 0.0
H1875 H 0.92839 0.34951 0.1696 0.0
S1876 S 0.86451 0.39168 0.14059 0.0
N1877 N 0.8807 0.39686 0.06938 0.0
N1878 N 0.87246 0.37497 0.20098 0.0
C1879 C 0.88914 0.37276 0.16467 0.0
C1880 C 0.89384 0.38492 0.09162 0.0
C1881 C 0.90391 0.6652 0.37483 0.0
C1882 C 0.90334 0.64737 0.41096 0.0
C1883 C 0.89264 0.67128 0.30351 0.0
C1884 C 0.87964 0.66006 0.26255 0.0
H1885 H 0.91322 0.67492 0.40262 0.0
H1886 H 0.89384 0.68514 0.28214 0.0
S1887 S 0.87266 0.61178 0.32524 0.0
N1888 N 0.88865 0.61844 0.39397 0.0
N1889 N 0.86769 0.62944 0.26363 0.0
C1890 C 0.87913 0.64206 0.29674 0.0
C1891 C 0.89077 0.63586 0.36894 0.0
C1892 C 0.38508 0.37201 0.29638 0.0
C1893 C 0.37666 0.35811 0.3447 0.0
C1894 C 0.3984 0.38282 0.3348 0.0
C1895 C 0.40331 0.38044 0.42325 0.0
H1896 H 0.38233 0.37368 0.22665 0.0
H1897 H 0.40594 0.39211 0.29354 0.0
S1898 S 0.38352 0.34829 0.58305 0.0
N1899 N 0.3729 0.34411 0.48943 0.0
N1900 N 0.39752 0.36507 0.56151 0.0
C1901 C 0.39363 0.36812 0.47509 0.0
C1902 C 0.38033 0.3568 0.43585 0.0
C1903 C 0.38604 0.6315 0.14583 0.0
C1904 C 0.38906 0.65018 0.15033 0.0
C1905 C 0.39882 0.62005 0.10641 0.0
C1906 C 0.41469 0.62707 0.06875 0.0
H1907 H 0.3738 0.62578 0.17362 0.0
H1908 H 0.39613 0.60572 0.10328 0.0
S1909 S 0.42885 0.67489 0.06412 0.0
N1910 N 0.40911 0.6751 0.11603 0.0
N1911 N 0.43292 0.65358 0.03892 0.0
C1912 C 0.41786 0.64567 0.07299 0.0
C1913 C 0.40507 0.65726 0.11476 0.0
C1914 C 0.1161 0.61731 0.88959 0.0
C1915 C 0.09938 0.62467 0.91504 0.0
C1916 C 0.12941 0.62805 0.85076 0.0
C1917 C 0.12635 0.64645 0.83534 0.0
H1918 H 0.11908 0.60326 0.90203 0.0
H1919 H 0.14217 0.6219 0.83223 0.0
S1920 S 0.08449 0.67194 0.88619 0.0
N1921 N 0.08013 0.6512 0.91959 0.0
N1922 N 0.10534 0.67153 0.84618 0.0
C1923 C 0.10955 0.6539 0.85857 0.0
C1924 C 0.09601 0.64297 0.89882 0.0
C1925 C 0.13859 0.38125 0.65883 0.0
C1926 C 0.13338 0.36401 0.68743 0.0
C1927 C 0.12645 0.39241 0.61447 0.0
C1928 C 0.1087 0.3867 0.59712 0.0
H1929 H 0.15211 0.38622 0.67144 0.0
H1930 H 0.13112 0.40546 0.59197 0.0
S1931 S 0.08819 0.34294 0.66005 0.0
N1932 N 0.1093 0.34167 0.69475 0.0
N1933 N 0.08618 0.36308 0.61507 0.0
C1934 C 0.10319 0.36962 0.62658 0.0
C1935 C 0.11561 0.35817 0.67098 0.0
loop_
_geom_bond_atom_site_label_1
_geom_bond_atom_site_label_2
_geom_bond_distance
_geom_bond_site_symmetry_2
_ccdc_geom_bond_type
C0 C1 1.351 . S
C0 N3 1.368 . S
C0 H5 0.931 . S
C1 C0 1.351 . S
C1 N2 1.373 . S
C1 H29 0.930 . S
N2 C1 1.373 . S
N2 C4 1.340 . S
N3 C0 1.368 . S
N3 C4 1.321 . S
N3 Co6 2.135 . S
C4 N2 1.340 . S
C4 N3 1.321 . S
C4 H28 0.930 . S
H5 C0 0.931 . S
Co6 N3 2.135 . S
Co6 N9 2.121 . S
Co6 O14 2.055 . S
Co6 O17 2.039 . S
Co6 N20 2.140 . S
C7 O8 1.227 . S
C7 O17 1.265 . S
O8 C7 1.227 . S
N9 Co6 2.121 . S
N9 C11 1.375 . S
N9 C12 1.313 . S
C10 C11 1.338 . S
C10 N13 1.377 . S
C10 H30 0.930 . S
C11 N9 1.375 . S
C11 C10 1.338 . S
C11 H15 0.931 . S
C12 N9 1.313 . S
C12 N13 1.344 . S
C12 H16 0.930 . S
N13 C10 1.377 . S
N13 C12 1.344 . S
O14 Co6 2.055 . S
O14 C18 1.253 . S
H15 C11 0.931 . S
H16 C12 0.930 . S
O17 Co6 2.039 . S
O17 C7 1.265 . S
C18 O14 1.253 . S
C18 O19 1.227 . S
O19 C18 1.227 . S
N20 Co6 2.140 . S
N20 C23 1.346 . S
N20 C24 1.345 . S
C21 C22 1.387 . S
C21 C25 1.391 . S
C22 C21 1.387 . S
C22 C23 1.369 . S
C22 H31 0.929 . S
C23 N20 1.346 . S
C23 C22 1.369 . S
C23 H26 0.928 . S
C24 N20 1.345 . S
C24 C25 1.371 . S
C24 H27 0.931 . S
C25 C21 1.391 . S
C25 C24 1.371 . S
C25 H32 0.930 . S
H26 C23 0.928 . S
H27 C24 0.931 . S
H28 C4 0.930 . S
H29 C1 0.930 . S
H30 C10 0.930 . S
H31 C22 0.929 . S
H32 C25 0.930 . S
C33 C34 1.351 . S
C33 N36 1.368 . S
C33 H38 0.931 . S
C34 C33 1.351 . S
C34 N35 1.373 . S
C34 H62 0.930 . S
N35 C34 1.373 . S
N35 C37 1.340 . S
N36 C33 1.368 . S
N36 C37 1.321 . S
N36 Co39 2.135 . S
C37 N35 1.340 . S
C37 N36 1.321 . S
C37 H61 0.930 . S
H38 C33 0.931 . S
Co39 N36 2.135 . S
Co39 N42 2.121 . S
Co39 O47 2.055 . S
Co39 O50 2.039 . S
Co39 N53 2.140 . S
C40 O41 1.227 . S
C40 O50 1.265 . S
O41 C40 1.227 . S
N42 Co39 2.121 . S
N42 C44 1.375 . S
N42 C45 1.313 . S
C43 C44 1.338 . S
C43 N46 1.377 . S
C43 H63 0.930 . S
C44 N42 1.375 . S
C44 C43 1.338 . S
C44 H48 0.931 . S
C45 N42 1.313 . S
C45 N46 1.344 . S
C45 H49 0.930 . S
N46 C43 1.377 . S
N46 C45 1.344 . S
O47 Co39 2.055 . S
O47 C51 1.253 . S
H48 C44 0.931 . S
H49 C45 0.930 . S
O50 Co39 2.039 . S
O50 C40 1.265 . S
C51 O47 1.253 . S
C51 O52 1.227 . S
O52 C51 1.227 . S
N53 Co39 2.140 . S
N53 C56 1.346 . S
N53 C57 1.345 . S
C54 C55 1.387 . S
C54 C58 1.391 . S
C55 C54 1.387 . S
C55 C56 1.369 . S
C55 H64 0.929 . S
C56 N53 1.346 . S
C56 C55 1.369 . S
C56 H59 0.928 . S
C57 N53 1.345 . S
C57 C58 1.371 . S
C57 H60 0.931 . S
C58 C54 1.391 . S
C58 C57 1.371 . S
C58 H65 0.930 . S
H59 C56 0.928 . S
H60 C57 0.931 . S
H61 C37 0.930 . S
H62 C34 0.930 . S
H63 C43 0.930 . S
H64 C55 0.929 . S
H65 C58 0.930 . S
C66 C67 1.351 . S
C66 N69 1.368 . S
C66 H71 0.931 . S
C67 C66 1.351 . S
C67 N68 1.373 . S
C67 H95 0.930 . S
N68 C67 1.373 . S
N68 C70 1.340 . S
N69 C66 1.368 . S
N69 C70 1.321 . S
N69 Co72 2.135 . S
C70 N68 1.340 . S
C70 N69 1.321 . S
C70 H94 0.930 . S
H71 C66 0.931 . S
Co72 N69 2.135 . S
Co72 N75 2.121 . S
Co72 O80 2.055 . S
Co72 O83 2.039 . S
Co72 N86 2.140 . S
C73 O74 1.227 . S
C73 O83 1.265 . S
O74 C73 1.227 . S
N75 Co72 2.121 . S
N75 C77 1.375 1_556 S
N75 C78 1.313 . S
C76 C77 1.338 . S
C76 N79 1.377 . S
C76 H96 0.930 . S
C77 N75 1.375 1_554 S
C77 C76 1.338 . S
C77 H81 0.931 . S
C78 N75 1.313 . S
C78 N79 1.344 1_556 S
C78 H82 0.930 . S
N79 C76 1.377 . S
N79 C78 1.344 1_554 S
O80 Co72 2.055 . S
O80 C84 1.253 . S
H81 C77 0.931 . S
H82 C78 0.930 . S
O83 Co72 2.039 . S
O83 C73 1.265 . S
C84 O80 1.253 . S
C84 O85 1.227 . S
O85 C84 1.227 . S
N86 Co72 2.140 . S
N86 C89 1.346 . S
N86 C90 1.345 . S
C87 C88 1.387 . S
C87 C91 1.391 . S
C88 C87 1.387 . S
C88 C89 1.369 . S
C88 H97 0.929 . S
C89 N86 1.346 . S
C89 C88 1.369 . S
C89 H92 0.928 . S
C90 N86 1.345 . S
C90 C91 1.371 . S
C90 H93 0.931 . S
C91 C87 1.391 . S
C91 C90 1.371 . S
C91 H98 0.930 . S
H92 C89 0.928 . S
H93 C90 0.931 . S
H94 C70 0.930 . S
H95 C67 0.930 . S
H96 C76 0.930 . S
H97 C88 0.929 . S
H98 C91 0.930 . S
C99 C100 1.351 . S
C99 N102 1.368 1_556 S
C99 H104 0.931 . S
C100 C99 1.351 . S
C100 N101 1.373 . S
C100 H128 0.930 . S
N101 C100 1.373 . S
N101 C103 1.340 1_556 S
N102 C99 1.368 1_554 S
N102 C103 1.321 . S
N102 Co105 2.135 . S
C103 N101 1.340 1_554 S
C103 N102 1.321 . S
C103 H127 0.930 . S
H104 C99 0.931 . S
Co105 N102 2.135 . S
Co105 N108 2.121 . S
Co105 O113 2.055 . S
Co105 O116 2.039 . S
Co105 N119 2.140 . S
C106 O107 1.227 . S
C106 O116 1.265 . S
O107 C106 1.227 . S
N108 Co105 2.121 . S
N108 C110 1.375 . S
N108 C111 1.313 . S
C109 C110 1.338 . S
C109 N112 1.377 . S
C109 H129 0.930 . S
C110 N108 1.375 . S
C110 C109 1.338 . S
C110 H114 0.931 . S
C111 N108 1.313 . S
C111 N112 1.344 . S
C111 H115 0.930 . S
N112 C109 1.377 . S
N112 C111 1.344 . S
O113 Co105 2.055 . S
O113 C117 1.253 . S
H114 C110 0.931 . S
H115 C111 0.930 . S
O116 Co105 2.039 . S
O116 C106 1.265 . S
C117 O113 1.253 . S
C117 O118 1.227 . S
O118 C117 1.227 . S
N119 Co105 2.140 . S
N119 C122 1.346 . S
N119 C123 1.345 . S
C120 C121 1.387 . S
C120 C124 1.391 . S
C121 C120 1.387 . S
C121 C122 1.369 . S
C121 H130 0.929 . S
C122 N119 1.346 . S
C122 C121 1.369 . S
C122 H125 0.928 . S
C123 N119 1.345 . S
C123 C124 1.371 . S
C123 H126 0.931 . S
C124 C120 1.391 . S
C124 C123 1.371 . S
C124 H131 0.930 . S
H125 C122 0.928 . S
H126 C123 0.931 . S
H127 C103 0.930 . S
H128 C100 0.930 . S
H129 C109 0.930 . S
H130 C121 0.929 . S
H131 C124 0.930 . S
C132 C133 1.351 . S
C132 N135 1.368 . S
C132 H137 0.931 . S
C133 C132 1.351 . S
C133 N134 1.373 . S
C133 H161 0.930 . S
N134 C133 1.373 . S
N134 C136 1.340 . S
N135 C132 1.368 . S
N135 C136 1.321 . S
N135 Co138 2.135 . S
C136 N134 1.340 . S
C136 N135 1.321 . S
C136 H160 0.930 . S
H137 C132 0.931 . S
Co138 N135 2.135 . S
Co138 N141 2.121 . S
Co138 O146 2.055 . S
Co138 O149 2.039 . S
Co138 N152 2.140 . S
C139 O140 1.227 . S
C139 O149 1.265 . S
O140 C139 1.227 . S
N141 Co138 2.121 . S
N141 C143 1.375 1_554 S
N141 C144 1.313 . S
C142 C143 1.338 . S
C142 N145 1.377 . S
C142 H162 0.930 . S
C143 N141 1.375 1_556 S
C143 C142 1.338 . S
C143 H147 0.931 . S
C144 N141 1.313 . S
C144 N145 1.344 1_554 S
C144 H148 0.930 . S
N145 C142 1.377 . S
N145 C144 1.344 1_556 S
O146 Co138 2.055 . S
O146 C150 1.253 . S
H147 C143 0.931 . S
H148 C144 0.930 . S
O149 Co138 2.039 . S
O149 C139 1.265 . S
C150 O146 1.253 . S
C150 O151 1.227 . S
O151 C150 1.227 . S
N152 Co138 2.140 . S
N152 C155 1.346 . S
N152 C156 1.345 . S
C153 C154 1.387 . S
C153 C157 1.391 . S
C154 C153 1.387 . S
C154 C155 1.369 . S
C154 H163 0.929 . S
C155 N152 1.346 . S
C155 C154 1.369 . S
C155 H158 0.928 . S
C156 N152 1.345 . S
C156 C157 1.371 . S
C156 H159 0.931 . S
C157 C153 1.391 . S
C157 C156 1.371 . S
C157 H164 0.930 . S
H158 C155 0.928 . S
H159 C156 0.931 . S
H160 C136 0.930 . S
H161 C133 0.930 . S
H162 C142 0.930 . S
H163 C154 0.929 . S
H164 C157 0.930 . S
C165 C166 1.351 . S
C165 N168 1.368 . S
C165 H170 0.931 . S
C166 C165 1.351 . S
C166 N167 1.373 . S
C166 H194 0.930 . S
N167 C166 1.373 . S
N167 C169 1.340 . S
N168 C165 1.368 . S
N168 C169 1.321 . S
N168 Co171 2.135 . S
C169 N167 1.340 . S
C169 N168 1.321 . S
C169 H193 0.930 . S
H170 C165 0.931 . S
Co171 N168 2.135 . S
Co171 N174 2.121 . S
Co171 O179 2.055 . S
Co171 O182 2.039 . S
Co171 N185 2.140 . S
C172 O173 1.227 . S
C172 O182 1.265 . S
O173 C172 1.227 . S
N174 Co171 2.121 . S
N174 C176 1.375 . S
N174 C177 1.313 . S
C175 C176 1.338 . S
C175 N178 1.377 . S
C175 H195 0.930 . S
C176 N174 1.375 . S
C176 C175 1.338 . S
C176 H180 0.931 . S
C177 N174 1.313 . S
C177 N178 1.344 . S
C177 H181 0.930 . S
N178 C175 1.377 . S
N178 C177 1.344 . S
O179 Co171 2.055 . S
O179 C183 1.253 . S
H180 C176 0.931 . S
H181 C177 0.930 . S
O182 Co171 2.039 . S
O182 C172 1.265 . S
C183 O179 1.253 . S
C183 O184 1.227 . S
O184 C183 1.227 . S
N185 Co171 2.140 . S
N185 C188 1.346 . S
N185 C189 1.345 . S
C186 C187 1.387 . S
C186 C190 1.391 . S
C187 C186 1.387 . S
C187 C188 1.369 . S
C187 H196 0.929 . S
C188 N185 1.346 . S
C188 C187 1.369 . S
C188 H191 0.928 . S
C189 N185 1.345 . S
C189 C190 1.371 . S
C189 H192 0.931 . S
C190 C186 1.391 . S
C190 C189 1.371 . S
C190 H197 0.930 . S
H191 C188 0.928 . S
H192 C189 0.931 . S
H193 C169 0.930 . S
H194 C166 0.930 . S
H195 C175 0.930 . S
H196 C187 0.929 . S
H197 C190 0.930 . S
C198 C199 1.351 . S
C198 N201 1.368 . S
C198 H203 0.931 . S
C199 C198 1.351 . S
C199 N200 1.373 . S
C199 H227 0.930 . S
N200 C199 1.373 . S
N200 C202 1.340 . S
N201 C198 1.368 . S
N201 C202 1.321 . S
N201 Co204 2.135 . S
C202 N200 1.340 . S
C202 N201 1.321 . S
C202 H226 0.930 . S
H203 C198 0.931 . S
Co204 N201 2.135 . S
Co204 N207 2.121 . S
Co204 O212 2.055 . S
Co204 O215 2.039 . S
Co204 N218 2.140 . S
C205 O206 1.227 . S
C205 O215 1.265 . S
O206 C205 1.227 . S
N207 Co204 2.121 . S
N207 C209 1.375 . S
N207 C210 1.313 . S
C208 C209 1.338 . S
C208 N211 1.377 . S
C208 H228 0.930 . S
C209 N207 1.375 . S
C209 C208 1.338 . S
C209 H213 0.931 . S
C210 N207 1.313 . S
C210 N211 1.344 . S
C210 H214 0.930 . S
N211 C208 1.377 . S
N211 C210 1.344 . S
O212 Co204 2.055 . S
O212 C216 1.253 . S
H213 C209 0.931 . S
H214 C210 0.930 . S
O215 Co204 2.039 . S
O215 C205 1.265 . S
C216 O212 1.253 . S
C216 O217 1.227 . S
O217 C216 1.227 . S
N218 Co204 2.140 . S
N218 C221 1.346 . S
N218 C222 1.345 . S
C219 C220 1.387 . S
C219 C223 1.391 . S
C220 C219 1.387 . S
C220 C221 1.369 . S
C220 H229 0.929 . S
C221 N218 1.346 . S
C221 C220 1.369 . S
C221 H224 0.928 . S
C222 N218 1.345 . S
C222 C223 1.371 . S
C222 H225 0.931 . S
C223 C219 1.391 . S
C223 C222 1.371 . S
C223 H230 0.930 . S
H224 C221 0.928 . S
H225 C222 0.931 . S
H226 C202 0.930 . S
H227 C199 0.930 . S
H228 C208 0.930 . S
H229 C220 0.929 . S
H230 C223 0.930 . S
C231 C232 1.351 . S
C231 N234 1.368 1_554 S
C231 H236 0.931 . S
C232 C231 1.351 . S
C232 N233 1.373 . S
C232 H260 0.930 . S
N233 C232 1.373 . S
N233 C235 1.340 1_554 S
N234 C231 1.368 1_556 S
N234 C235 1.321 . S
N234 Co237 2.135 . S
C235 N233 1.340 1_556 S
C235 N234 1.321 . S
C235 H259 0.930 . S
H236 C231 0.931 . S
Co237 N234 2.135 . S
Co237 N240 2.121 . S
Co237 O245 2.055 . S
Co237 O248 2.039 . S
Co237 N251 2.140 . S
C238 O239 1.227 . S
C238 O248 1.265 . S
O239 C238 1.227 . S
N240 Co237 2.121 . S
N240 C242 1.375 . S
N240 C243 1.313 . S
C241 C242 1.338 . S
C241 N244 1.377 . S
C241 H261 0.930 . S
C242 N240 1.375 . S
C242 C241 1.338 . S
C242 H246 0.931 . S
C243 N240 1.313 . S
C243 N244 1.344 . S
C243 H247 0.930 . S
N244 C241 1.377 . S
N244 C243 1.344 . S
O245 Co237 2.055 . S
O245 C249 1.253 . S
H246 C242 0.931 . S
H247 C243 0.930 . S
O248 Co237 2.039 . S
O248 C238 1.265 . S
C249 O245 1.253 . S
C249 O250 1.227 . S
O250 C249 1.227 . S
N251 Co237 2.140 . S
N251 C254 1.346 . S
N251 C255 1.345 . S
C252 C253 1.387 . S
C252 C256 1.391 . S
C253 C252 1.387 . S
C253 C254 1.369 . S
C253 H262 0.929 . S
C254 N251 1.346 . S
C254 C253 1.369 . S
C254 H257 0.928 . S
C255 N251 1.345 . S
C255 C256 1.371 . S
C255 H258 0.931 . S
C256 C252 1.391 . S
C256 C255 1.371 . S
C256 H263 0.930 . S
H257 C254 0.928 . S
H258 C255 0.931 . S
H259 C235 0.930 . S
H260 C232 0.930 . S
H261 C241 0.930 . S
H262 C253 0.929 . S
H263 C256 0.930 . S
C264 C265 1.351 . S
C264 N267 1.368 . S
C264 H269 0.931 . S
C265 C264 1.351 . S
C265 N266 1.373 . S
C265 H293 0.930 . S
N266 C265 1.373 . S
N266 C268 1.340 . S
N267 C264 1.368 . S
N267 C268 1.321 . S
N267 Co270 2.135 . S
C268 N266 1.340 . S
C268 N267 1.321 . S
C268 H292 0.930 . S
H269 C264 0.931 . S
Co270 N267 2.135 . S
Co270 N273 2.121 . S
Co270 O278 2.055 . S
Co270 O281 2.039 . S
Co270 N284 2.140 . S
C271 O272 1.227 . S
C271 O281 1.265 . S
O272 C271 1.227 . S
N273 Co270 2.121 . S
N273 C275 1.375 . S
N273 C276 1.313 . S
C274 C275 1.338 . S
C274 N277 1.377 . S
C274 H294 0.930 . S
C275 N273 1.375 . S
C275 C274 1.338 . S
C275 H279 0.931 . S
C276 N273 1.313 . S
C276 N277 1.344 . S
C276 H280 0.930 . S
N277 C274 1.377 . S
N277 C276 1.344 . S
O278 Co270 2.055 . S
O278 C282 1.253 . S
H279 C275 0.931 . S
H280 C276 0.930 . S
O281 Co270 2.039 . S
O281 C271 1.265 . S
C282 O278 1.253 . S
C282 O283 1.227 . S
O283 C282 1.227 . S
N284 Co270 2.140 . S
N284 C287 1.346 . S
N284 C288 1.345 . S
C285 C286 1.387 . S
C285 C289 1.391 . S
C286 C285 1.387 . S
C286 C287 1.369 . S
C286 H295 0.929 . S
C287 N284 1.346 . S
C287 C286 1.369 . S
C287 H290 0.928 . S
C288 N284 1.345 . S
C288 C289 1.371 . S
C288 H291 0.931 . S
C289 C285 1.391 . S
C289 C288 1.371 . S
C289 H296 0.930 . S
H290 C287 0.928 . S
H291 C288 0.931 . S
H292 C268 0.930 . S
H293 C265 0.930 . S
H294 C274 0.930 . S
H295 C286 0.929 . S
H296 C289 0.930 . S
C297 C298 1.351 . S
C297 N300 1.368 . S
C297 H302 0.931 . S
C298 C297 1.351 . S
C298 N299 1.373 . S
C298 H326 0.930 . S
N299 C298 1.373 . S
N299 C301 1.340 . S
N300 C297 1.368 . S
N300 C301 1.321 . S
N300 Co303 2.135 . S
C301 N299 1.340 . S
C301 N300 1.321 . S
C301 H325 0.930 . S
H302 C297 0.931 . S
Co303 N300 2.135 . S
Co303 N306 2.121 . S
Co303 O311 2.055 . S
Co303 O314 2.039 . S
Co303 N317 2.140 . S
C304 O305 1.227 . S
C304 O314 1.265 . S
O305 C304 1.227 . S
N306 Co303 2.121 . S
N306 C308 1.375 . S
N306 C309 1.313 . S
C307 C308 1.338 . S
C307 N310 1.377 . S
C307 H327 0.930 . S
C308 N306 1.375 . S
C308 C307 1.338 . S
C308 H312 0.931 . S
C309 N306 1.313 . S
C309 N310 1.344 . S
C309 H313 0.930 . S
N310 C307 1.377 . S
N310 C309 1.344 . S
O311 Co303 2.055 . S
O311 C315 1.253 . S
H312 C308 0.931 . S
H313 C309 0.930 . S
O314 Co303 2.039 . S
O314 C304 1.265 . S
C315 O311 1.253 . S
C315 O316 1.227 . S
O316 C315 1.227 . S
N317 Co303 2.140 . S
N317 C320 1.346 . S
N317 C321 1.345 . S
C318 C319 1.387 . S
C318 C322 1.391 . S
C319 C318 1.387 . S
C319 C320 1.369 . S
C319 H328 0.929 . S
C320 N317 1.346 . S
C320 C319 1.369 . S
C320 H323 0.928 . S
C321 N317 1.345 . S
C321 C322 1.371 . S
C321 H324 0.931 . S
C322 C318 1.391 . S
C322 C321 1.371 . S
C322 H329 0.930 . S
H323 C320 0.928 . S
H324 C321 0.931 . S
H325 C301 0.930 . S
H326 C298 0.930 . S
H327 C307 0.930 . S
H328 C319 0.929 . S
H329 C322 0.930 . S
C330 C331 1.351 . S
C330 N333 1.368 . S
C330 H335 0.931 . S
C331 C330 1.351 . S
C331 N332 1.373 . S
C331 H359 0.930 . S
N332 C331 1.373 . S
N332 C334 1.340 . S
N333 C330 1.368 . S
N333 C334 1.321 . S
N333 Co336 2.135 1_556 S
C334 N332 1.340 . S
C334 N333 1.321 . S
C334 H358 0.930 1_556 S
H335 C330 0.931 . S
Co336 N333 2.135 1_554 S
Co336 N339 2.121 . S
Co336 O344 2.055 . S
Co336 O347 2.039 . S
Co336 N350 2.140 . S
C337 O338 1.227 . S
C337 O347 1.265 . S
O338 C337 1.227 . S
N339 Co336 2.121 . S
N339 C341 1.375 . S
N339 C342 1.313 . S
C340 C341 1.338 . S
C340 N343 1.377 . S
C340 H360 0.930 . S
C341 N339 1.375 . S
C341 C340 1.338 . S
C341 H345 0.931 . S
C342 N339 1.313 . S
C342 N343 1.344 . S
C342 H346 0.930 . S
N343 C340 1.377 . S
N343 C342 1.344 . S
O344 Co336 2.055 . S
O344 C348 1.253 . S
H345 C341 0.931 . S
H346 C342 0.930 . S
O347 Co336 2.039 . S
O347 C337 1.265 . S
C348 O344 1.253 . S
C348 O349 1.227 . S
O349 C348 1.227 . S
N350 Co336 2.140 . S
N350 C353 1.346 . S
N350 C354 1.345 . S
C351 C352 1.387 . S
C351 C355 1.391 . S
C352 C351 1.387 . S
C352 C353 1.369 . S
C352 H361 0.929 . S
C353 N350 1.346 . S
C353 C352 1.369 . S
C353 H356 0.928 . S
C354 N350 1.345 . S
C354 C355 1.371 . S
C354 H357 0.931 . S
C355 C351 1.391 . S
C355 C354 1.371 . S
C355 H362 0.930 . S
H356 C353 0.928 . S
H357 C354 0.931 . S
H358 C334 0.930 1_554 S
H359 C331 0.930 . S
H360 C340 0.930 . S
H361 C352 0.929 . S
H362 C355 0.930 . S
C363 C364 1.351 . S
C363 N366 1.368 . S
C363 H368 0.931 . S
C364 C363 1.351 . S
C364 N365 1.373 . S
C364 H392 0.930 . S
N365 C364 1.373 . S
N365 C367 1.340 . S
N366 C363 1.368 . S
N366 C367 1.321 . S
N366 Co369 2.135 . S
C367 N365 1.340 . S
C367 N366 1.321 . S
C367 H391 0.930 . S
H368 C363 0.931 . S
Co369 N366 2.135 . S
Co369 N372 2.121 . S
Co369 O377 2.055 . S
Co369 O380 2.039 . S
Co369 N383 2.140 . S
C370 O371 1.227 . S
C370 O380 1.265 . S
O371 C370 1.227 . S
N372 Co369 2.121 . S
N372 C374 1.375 1_556 S
N372 C375 1.313 . S
C373 C374 1.338 . S
C373 N376 1.377 . S
C373 H393 0.930 . S
C374 N372 1.375 1_554 S
C374 C373 1.338 . S
C374 H378 0.931 . S
C375 N372 1.313 . S
C375 N376 1.344 1_556 S
C375 H379 0.930 . S
N376 C373 1.377 . S
N376 C375 1.344 1_554 S
O377 Co369 2.055 . S
O377 C381 1.253 . S
H378 C374 0.931 . S
H379 C375 0.930 . S
O380 Co369 2.039 . S
O380 C370 1.265 . S
C381 O377 1.253 . S
C381 O382 1.227 . S
O382 C381 1.227 . S
N383 Co369 2.140 . S
N383 C386 1.346 . S
N383 C387 1.345 . S
C384 C385 1.387 . S
C384 C388 1.391 . S
C385 C384 1.387 . S
C385 C386 1.369 . S
C385 H394 0.929 . S
C386 N383 1.346 . S
C386 C385 1.369 . S
C386 H389 0.928 . S
C387 N383 1.345 . S
C387 C388 1.371 . S
C387 H390 0.931 . S
C388 C384 1.391 . S
C388 C387 1.371 . S
C388 H395 0.930 . S
H389 C386 0.928 . S
H390 C387 0.931 . S
H391 C367 0.930 . S
H392 C364 0.930 . S
H393 C373 0.930 . S
H394 C385 0.929 . S
H395 C388 0.930 . S
C396 C397 1.351 . S
C396 N399 1.368 . S
C396 H401 0.931 . S
C397 C396 1.351 . S
C397 N398 1.373 . S
C397 H425 0.930 . S
N398 C397 1.373 . S
N398 C400 1.340 . S
N399 C396 1.368 . S
N399 C400 1.321 . S
N399 Co402 2.135 1_554 S
C400 N398 1.340 . S
C400 N399 1.321 . S
C400 H424 0.930 1_554 S
H401 C396 0.931 . S
Co402 N399 2.135 1_556 S
Co402 N405 2.121 . S
Co402 O410 2.055 . S
Co402 O413 2.039 . S
Co402 N416 2.140 . S
C403 O404 1.227 . S
C403 O413 1.265 . S
O404 C403 1.227 . S
N405 Co402 2.121 . S
N405 C407 1.375 . S
N405 C408 1.313 . S
C406 C407 1.338 . S
C406 N409 1.377 . S
C406 H426 0.930 . S
C407 N405 1.375 . S
C407 C406 1.338 . S
C407 H411 0.931 . S
C408 N405 1.313 . S
C408 N409 1.344 . S
C408 H412 0.930 . S
N409 C406 1.377 . S
N409 C408 1.344 . S
O410 Co402 2.055 . S
O410 C414 1.253 . S
H411 C407 0.931 . S
H412 C408 0.930 . S
O413 Co402 2.039 . S
O413 C403 1.265 . S
C414 O410 1.253 . S
C414 O415 1.227 . S
O415 C414 1.227 . S
N416 Co402 2.140 . S
N416 C419 1.346 . S
N416 C420 1.345 . S
C417 C418 1.387 . S
C417 C421 1.391 . S
C418 C417 1.387 . S
C418 C419 1.369 . S
C418 H427 0.929 . S
C419 N416 1.346 . S
C419 C418 1.369 . S
C419 H422 0.928 . S
C420 N416 1.345 . S
C420 C421 1.371 . S
C420 H423 0.931 . S
C421 C417 1.391 . S
C421 C420 1.371 . S
C421 H428 0.930 . S
H422 C419 0.928 . S
H423 C420 0.931 . S
H424 C400 0.930 1_556 S
H425 C397 0.930 . S
H426 C406 0.930 . S
H427 C418 0.929 . S
H428 C421 0.930 . S
C429 C430 1.351 . S
C429 N432 1.368 . S
C429 H434 0.931 . S
C430 C429 1.351 . S
C430 N431 1.373 . S
C430 H458 0.930 . S
N431 C430 1.373 . S
N431 C433 1.340 . S
N432 C429 1.368 . S
N432 C433 1.321 . S
N432 Co435 2.135 . S
C433 N431 1.340 . S
C433 N432 1.321 . S
C433 H457 0.930 . S
H434 C429 0.931 . S
Co435 N432 2.135 . S
Co435 N438 2.121 . S
Co435 O443 2.055 . S
Co435 O446 2.039 . S
Co435 N449 2.140 . S
C436 O437 1.227 . S
C436 O446 1.265 . S
O437 C436 1.227 . S
N438 Co435 2.121 . S
N438 C440 1.375 . S
N438 C441 1.313 . S
C439 C440 1.338 . S
C439 N442 1.377 . S
C439 H459 0.930 . S
C440 N438 1.375 . S
C440 C439 1.338 . S
C440 H444 0.931 . S
C441 N438 1.313 . S
C441 N442 1.344 . S
C441 H445 0.930 . S
N442 C439 1.377 . S
N442 C441 1.344 . S
O443 Co435 2.055 . S
O443 C447 1.253 . S
H444 C440 0.931 . S
H445 C441 0.930 . S
O446 Co435 2.039 . S
O446 C436 1.265 . S
C447 O443 1.253 . S
C447 O448 1.227 . S
O448 C447 1.227 . S
N449 Co435 2.140 . S
N449 C452 1.346 . S
N449 C453 1.345 . S
C450 C451 1.387 . S
C450 C454 1.391 . S
C451 C450 1.387 . S
C451 C452 1.369 . S
C451 H460 0.929 . S
C452 N449 1.346 . S
C452 C451 1.369 . S
C452 H455 0.928 . S
C453 N449 1.345 . S
C453 C454 1.371 . S
C453 H456 0.931 . S
C454 C450 1.391 . S
C454 C453 1.371 . S
C454 H461 0.930 . S
H455 C452 0.928 . S
H456 C453 0.931 . S
H457 C433 0.930 . S
H458 C430 0.930 . S
H459 C439 0.930 . S
H460 C451 0.929 . S
H461 C454 0.930 . S
C462 C463 1.351 . S
C462 N465 1.368 . S
C462 H467 0.931 . S
C463 C462 1.351 . S
C463 N464 1.373 . S
C463 H491 0.930 . S
N464 C463 1.373 . S
N464 C466 1.340 . S
N465 C462 1.368 . S
N465 C466 1.321 . S
N465 Co468 2.135 . S
C466 N464 1.340 . S
C466 N465 1.321 . S
C466 H490 0.930 . S
H467 C462 0.931 . S
Co468 N465 2.135 . S
Co468 N471 2.121 . S
Co468 O476 2.055 . S
Co468 O479 2.039 . S
Co468 N482 2.140 . S
C469 O470 1.227 . S
C469 O479 1.265 . S
O470 C469 1.227 . S
N471 Co468 2.121 . S
N471 C473 1.375 . S
N471 C474 1.313 . S
C472 C473 1.338 . S
C472 N475 1.377 . S
C472 H492 0.930 . S
C473 N471 1.375 . S
C473 C472 1.338 . S
C473 H477 0.931 . S
C474 N471 1.313 . S
C474 N475 1.344 . S
C474 H478 0.930 . S
N475 C472 1.377 . S
N475 C474 1.344 . S
O476 Co468 2.055 . S
O476 C480 1.253 . S
H477 C473 0.931 . S
H478 C474 0.930 . S
O479 Co468 2.039 . S
O479 C469 1.265 . S
C480 O476 1.253 . S
C480 O481 1.227 . S
O481 C480 1.227 . S
N482 Co468 2.140 . S
N482 C485 1.346 . S
N482 C486 1.345 . S
C483 C484 1.387 . S
C483 C487 1.391 . S
C484 C483 1.387 . S
C484 C485 1.369 . S
C484 H493 0.929 . S
C485 N482 1.346 . S
C485 C484 1.369 . S
C485 H488 0.928 . S
C486 N482 1.345 . S
C486 C487 1.371 . S
C486 H489 0.931 . S
C487 C483 1.391 . S
C487 C486 1.371 . S
C487 H494 0.930 . S
H488 C485 0.928 . S
H489 C486 0.931 . S
H490 C466 0.930 . S
H491 C463 0.930 . S
H492 C472 0.930 . S
H493 C484 0.929 . S
H494 C487 0.930 . S
C495 C496 1.351 . S
C495 N498 1.368 . S
C495 H500 0.931 . S
C496 C495 1.351 . S
C496 N497 1.373 . S
C496 H524 0.930 . S
N497 C496 1.373 . S
N497 C499 1.340 . S
N498 C495 1.368 . S
N498 C499 1.321 . S
N498 Co501 2.135 . S
C499 N497 1.340 . S
C499 N498 1.321 . S
C499 H523 0.930 . S
H500 C495 0.931 . S
Co501 N498 2.135 . S
Co501 N504 2.121 . S
Co501 O509 2.055 . S
Co501 O512 2.039 . S
Co501 N515 2.140 . S
C502 O503 1.227 . S
C502 O512 1.265 . S
O503 C502 1.227 . S
N504 Co501 2.121 . S
N504 C506 1.375 1_554 S
N504 C507 1.313 . S
C505 C506 1.338 . S
C505 N508 1.377 . S
C505 H525 0.930 . S
C506 N504 1.375 1_556 S
C506 C505 1.338 . S
C506 H510 0.931 . S
C507 N504 1.313 . S
C507 N508 1.344 1_554 S
C507 H511 0.930 . S
N508 C505 1.377 . S
N508 C507 1.344 1_556 S
O509 Co501 2.055 . S
O509 C513 1.253 . S
H510 C506 0.931 . S
H511 C507 0.930 . S
O512 Co501 2.039 . S
O512 C502 1.265 . S
C513 O509 1.253 . S
C513 O514 1.227 . S
O514 C513 1.227 . S
N515 Co501 2.140 . S
N515 C518 1.346 . S
N515 C519 1.345 . S
C516 C517 1.387 . S
C516 C520 1.391 . S
C517 C516 1.387 . S
C517 C518 1.369 . S
C517 H526 0.929 . S
C518 N515 1.346 . S
C518 C517 1.369 . S
C518 H521 0.928 . S
C519 N515 1.345 . S
C519 C520 1.371 . S
C519 H522 0.931 . S
C520 C516 1.391 . S
C520 C519 1.371 . S
C520 H527 0.930 . S
H521 C518 0.928 . S
H522 C519 0.931 . S
H523 C499 0.930 . S
H524 C496 0.930 . S
H525 C505 0.930 . S
H526 C517 0.929 . S
H527 C520 0.930 . S
C528 C529 1.351 . S
C528 N531 1.368 . S
C528 H533 0.931 . S
C529 C528 1.351 . S
C529 N530 1.373 . S
C529 H557 0.930 . S
N530 C529 1.373 . S
N530 C532 1.340 . S
N531 C528 1.368 . S
N531 C532 1.321 . S
N531 Co534 2.135 . S
C532 N530 1.340 . S
C532 N531 1.321 . S
C532 H556 0.930 . S
H533 C528 0.931 . S
Co534 N531 2.135 . S
Co534 N537 2.121 . S
Co534 O542 2.055 . S
Co534 O545 2.039 . S
Co534 N548 2.140 . S
C535 O536 1.227 . S
C535 O545 1.265 . S
O536 C535 1.227 . S
N537 Co534 2.121 . S
N537 C539 1.375 1_556 S
N537 C540 1.313 . S
C538 C539 1.338 . S
C538 N541 1.377 . S
C538 H558 0.930 . S
C539 N537 1.375 1_554 S
C539 C538 1.338 . S
C539 H543 0.931 . S
C540 N537 1.313 . S
C540 N541 1.344 1_556 S
C540 H544 0.930 . S
N541 C538 1.377 . S
N541 C540 1.344 1_554 S
O542 Co534 2.055 . S
O542 C546 1.253 . S
H543 C539 0.931 . S
H544 C540 0.930 . S
O545 Co534 2.039 . S
O545 C535 1.265 . S
C546 O542 1.253 . S
C546 O547 1.227 . S
O547 C546 1.227 . S
N548 Co534 2.140 . S
N548 C551 1.346 . S
N548 C552 1.345 . S
C549 C550 1.387 . S
C549 C553 1.391 . S
C550 C549 1.387 . S
C550 C551 1.369 . S
C550 H559 0.929 . S
C551 N548 1.346 . S
C551 C550 1.369 . S
C551 H554 0.928 . S
C552 N548 1.345 . S
C552 C553 1.371 . S
C552 H555 0.931 . S
C553 C549 1.391 . S
C553 C552 1.371 . S
C553 H560 0.930 . S
H554 C551 0.928 . S
H555 C552 0.931 . S
H556 C532 0.930 . S
H557 C529 0.930 . S
H558 C538 0.930 . S
H559 C550 0.929 . S
H560 C553 0.930 . S
C561 C562 1.351 . S
C561 N564 1.368 1_556 S
C561 H566 0.931 . S
C562 C561 1.351 . S
C562 N563 1.373 . S
C562 H590 0.930 . S
N563 C562 1.373 . S
N563 C565 1.340 1_556 S
N564 C561 1.368 1_554 S
N564 C565 1.321 . S
N564 Co567 2.135 . S
C565 N563 1.340 1_554 S
C565 N564 1.321 . S
C565 H589 0.930 . S
H566 C561 0.931 . S
Co567 N564 2.135 . S
Co567 N570 2.121 . S
Co567 O575 2.055 . S
Co567 O578 2.039 . S
Co567 N581 2.140 . S
C568 O569 1.227 . S
C568 O578 1.265 . S
O569 C568 1.227 . S
N570 Co567 2.121 . S
N570 C572 1.375 . S
N570 C573 1.313 . S
C571 C572 1.338 . S
C571 N574 1.377 . S
C571 H591 0.930 . S
C572 N570 1.375 . S
C572 C571 1.338 . S
C572 H576 0.931 . S
C573 N570 1.313 . S
C573 N574 1.344 . S
C573 H577 0.930 . S
N574 C571 1.377 . S
N574 C573 1.344 . S
O575 Co567 2.055 . S
O575 C579 1.253 . S
H576 C572 0.931 . S
H577 C573 0.930 . S
O578 Co567 2.039 . S
O578 C568 1.265 . S
C579 O575 1.253 . S
C579 O580 1.227 . S
O580 C579 1.227 . S
N581 Co567 2.140 . S
N581 C584 1.346 . S
N581 C585 1.345 . S
C582 C583 1.387 . S
C582 C586 1.391 . S
C583 C582 1.387 . S
C583 C584 1.369 . S
C583 H592 0.929 . S
C584 N581 1.346 . S
C584 C583 1.369 . S
C584 H587 0.928 . S
C585 N581 1.345 . S
C585 C586 1.371 . S
C585 H588 0.931 . S
C586 C582 1.391 . S
C586 C585 1.371 . S
C586 H593 0.930 . S
H587 C584 0.928 . S
H588 C585 0.931 . S
H589 C565 0.930 . S
H590 C562 0.930 . S
H591 C571 0.930 . S
H592 C583 0.929 . S
H593 C586 0.930 . S
C594 C595 1.351 . S
C594 N597 1.368 . S
C594 H599 0.931 . S
C595 C594 1.351 . S
C595 N596 1.373 . S
C595 H623 0.930 . S
N596 C595 1.373 . S
N596 C598 1.340 . S
N597 C594 1.368 . S
N597 C598 1.321 . S
N597 Co600 2.135 . S
C598 N596 1.340 . S
C598 N597 1.321 . S
C598 H622 0.930 . S
H599 C594 0.931 . S
Co600 N597 2.135 . S
Co600 N603 2.121 . S
Co600 O608 2.055 . S
Co600 O611 2.039 . S
Co600 N614 2.140 . S
C601 O602 1.227 . S
C601 O611 1.265 . S
O602 C601 1.227 . S
N603 Co600 2.121 . S
N603 C605 1.375 . S
N603 C606 1.313 . S
C604 C605 1.338 . S
C604 N607 1.377 . S
C604 H624 0.930 . S
C605 N603 1.375 . S
C605 C604 1.338 . S
C605 H609 0.931 . S
C606 N603 1.313 . S
C606 N607 1.344 . S
C606 H610 0.930 . S
N607 C604 1.377 . S
N607 C606 1.344 . S
O608 Co600 2.055 . S
O608 C612 1.253 . S
H609 C605 0.931 . S
H610 C606 0.930 . S
O611 Co600 2.039 . S
O611 C601 1.265 . S
C612 O608 1.253 . S
C612 O613 1.227 . S
O613 C612 1.227 . S
N614 Co600 2.140 . S
N614 C617 1.346 . S
N614 C618 1.345 . S
C615 C616 1.387 . S
C615 C619 1.391 . S
C616 C615 1.387 . S
C616 C617 1.369 . S
C616 H625 0.929 . S
C617 N614 1.346 . S
C617 C616 1.369 . S
C617 H620 0.928 . S
C618 N614 1.345 . S
C618 C619 1.371 . S
C618 H621 0.931 . S
C619 C615 1.391 . S
C619 C618 1.371 . S
C619 H626 0.930 . S
H620 C617 0.928 . S
H621 C618 0.931 . S
H622 C598 0.930 . S
H623 C595 0.930 . S
H624 C604 0.930 . S
H625 C616 0.929 . S
H626 C619 0.930 . S
C627 C628 1.351 . S
C627 N630 1.368 . S
C627 H632 0.931 . S
C628 C627 1.351 . S
C628 N629 1.373 . S
C628 H656 0.930 . S
N629 C628 1.373 . S
N629 C631 1.340 . S
N630 C627 1.368 . S
N630 C631 1.321 . S
N630 Co633 2.135 . S
C631 N629 1.340 . S
C631 N630 1.321 . S
C631 H655 0.930 . S
H632 C627 0.931 . S
Co633 N630 2.135 . S
Co633 N636 2.121 . S
Co633 O641 2.055 . S
Co633 O644 2.039 . S
Co633 N647 2.140 . S
C634 O635 1.227 . S
C634 O644 1.265 . S
O635 C634 1.227 . S
N636 Co633 2.121 . S
N636 C638 1.375 . S
N636 C639 1.313 . S
C637 C638 1.338 . S
C637 N640 1.377 . S
C637 H657 0.930 . S
C638 N636 1.375 . S
C638 C637 1.338 . S
C638 H642 0.931 . S
C639 N636 1.313 . S
C639 N640 1.344 . S
C639 H643 0.930 . S
N640 C637 1.377 . S
N640 C639 1.344 . S
O641 Co633 2.055 . S
O641 C645 1.253 . S
H642 C638 0.931 . S
H643 C639 0.930 . S
O644 Co633 2.039 . S
O644 C634 1.265 . S
C645 O641 1.253 . S
C645 O646 1.227 . S
O646 C645 1.227 . S
N647 Co633 2.140 . S
N647 C650 1.346 . S
N647 C651 1.345 . S
C648 C649 1.387 . S
C648 C652 1.391 . S
C649 C648 1.387 . S
C649 C650 1.369 . S
C649 H658 0.929 . S
C650 N647 1.346 . S
C650 C649 1.369 . S
C650 H653 0.928 . S
C651 N647 1.345 . S
C651 C652 1.371 . S
C651 H654 0.931 . S
C652 C648 1.391 . S
C652 C651 1.371 . S
C652 H659 0.930 . S
H653 C650 0.928 . S
H654 C651 0.931 . S
H655 C631 0.930 . S
H656 C628 0.930 . S
H657 C637 0.930 . S
H658 C649 0.929 . S
H659 C652 0.930 . S
C660 C661 1.351 . S
C660 N663 1.368 . S
C660 H665 0.931 . S
C661 C660 1.351 . S
C661 N662 1.373 . S
C661 H689 0.930 . S
N662 C661 1.373 . S
N662 C664 1.340 . S
N663 C660 1.368 . S
N663 C664 1.321 . S
N663 Co666 2.135 . S
C664 N662 1.340 . S
C664 N663 1.321 . S
C664 H688 0.930 . S
H665 C660 0.931 . S
Co666 N663 2.135 . S
Co666 N669 2.121 . S
Co666 O674 2.055 . S
Co666 O677 2.039 . S
Co666 N680 2.140 . S
C667 O668 1.227 . S
C667 O677 1.265 . S
O668 C667 1.227 . S
N669 Co666 2.121 . S
N669 C671 1.375 . S
N669 C672 1.313 . S
C670 C671 1.338 . S
C670 N673 1.377 . S
C670 H690 0.930 . S
C671 N669 1.375 . S
C671 C670 1.338 . S
C671 H675 0.931 . S
C672 N669 1.313 . S
C672 N673 1.344 . S
C672 H676 0.930 . S
N673 C670 1.377 . S
N673 C672 1.344 . S
O674 Co666 2.055 . S
O674 C678 1.253 . S
H675 C671 0.931 . S
H676 C672 0.930 . S
O677 Co666 2.039 . S
O677 C667 1.265 . S
C678 O674 1.253 . S
C678 O679 1.227 . S
O679 C678 1.227 . S
N680 Co666 2.140 . S
N680 C683 1.346 . S
N680 C684 1.345 . S
C681 C682 1.387 . S
C681 C685 1.391 . S
C682 C681 1.387 . S
C682 C683 1.369 . S
C682 H691 0.929 . S
C683 N680 1.346 . S
C683 C682 1.369 . S
C683 H686 0.928 . S
C684 N680 1.345 . S
C684 C685 1.371 . S
C684 H687 0.931 . S
C685 C681 1.391 . S
C685 C684 1.371 . S
C685 H692 0.930 . S
H686 C683 0.928 . S
H687 C684 0.931 . S
H688 C664 0.930 . S
H689 C661 0.930 . S
H690 C670 0.930 . S
H691 C682 0.929 . S
H692 C685 0.930 . S
C693 C694 1.351 . S
C693 N696 1.368 1_554 S
C693 H698 0.931 . S
C694 C693 1.351 . S
C694 N695 1.373 . S
C694 H722 0.930 . S
N695 C694 1.373 . S
N695 C697 1.340 1_554 S
N696 C693 1.368 1_556 S
N696 C697 1.321 . S
N696 Co699 2.135 . S
C697 N695 1.340 1_556 S
C697 N696 1.321 . S
C697 H721 0.930 . S
H698 C693 0.931 . S
Co699 N696 2.135 . S
Co699 N702 2.121 . S
Co699 O707 2.055 . S
Co699 O710 2.039 . S
Co699 N713 2.140 . S
C700 O701 1.227 . S
C700 O710 1.265 . S
O701 C700 1.227 . S
N702 Co699 2.121 . S
N702 C704 1.375 . S
N702 C705 1.313 . S
C703 C704 1.338 . S
C703 N706 1.377 . S
C703 H723 0.930 . S
C704 N702 1.375 . S
C704 C703 1.338 . S
C704 H708 0.931 . S
C705 N702 1.313 . S
C705 N706 1.344 . S
C705 H709 0.930 . S
N706 C703 1.377 . S
N706 C705 1.344 . S
O707 Co699 2.055 . S
O707 C711 1.253 . S
H708 C704 0.931 . S
H709 C705 0.930 . S
O710 Co699 2.039 . S
O710 C700 1.265 . S
C711 O707 1.253 . S
C711 O712 1.227 . S
O712 C711 1.227 . S
N713 Co699 2.140 . S
N713 C716 1.346 . S
N713 C717 1.345 . S
C714 C715 1.387 . S
C714 C718 1.391 . S
C715 C714 1.387 . S
C715 C716 1.369 . S
C715 H724 0.929 . S
C716 N713 1.346 . S
C716 C715 1.369 . S
C716 H719 0.928 . S
C717 N713 1.345 . S
C717 C718 1.371 . S
C717 H720 0.931 . S
C718 C714 1.391 . S
C718 C717 1.371 . S
C718 H725 0.930 . S
H719 C716 0.928 . S
H720 C717 0.931 . S
H721 C697 0.930 . S
H722 C694 0.930 . S
H723 C703 0.930 . S
H724 C715 0.929 . S
H725 C718 0.930 . S
C726 C727 1.351 . S
C726 N729 1.368 . S
C726 H731 0.931 . S
C727 C726 1.351 . S
C727 N728 1.373 . S
C727 H755 0.930 . S
N728 C727 1.373 . S
N728 C730 1.340 . S
N729 C726 1.368 . S
N729 C730 1.321 . S
N729 Co732 2.135 . S
C730 N728 1.340 . S
C730 N729 1.321 . S
C730 H754 0.930 . S
H731 C726 0.931 . S
Co732 N729 2.135 . S
Co732 N735 2.121 . S
Co732 O740 2.055 . S
Co732 O743 2.039 . S
Co732 N746 2.140 . S
C733 O734 1.227 . S
C733 O743 1.265 . S
O734 C733 1.227 . S
N735 Co732 2.121 . S
N735 C737 1.375 1_554 S
N735 C738 1.313 . S
C736 C737 1.338 . S
C736 N739 1.377 . S
C736 H756 0.930 . S
C737 N735 1.375 1_556 S
C737 C736 1.338 . S
C737 H741 0.931 . S
C738 N735 1.313 . S
C738 N739 1.344 1_554 S
C738 H742 0.930 . S
N739 C736 1.377 . S
N739 C738 1.344 1_556 S
O740 Co732 2.055 . S
O740 C744 1.253 . S
H741 C737 0.931 . S
H742 C738 0.930 . S
O743 Co732 2.039 . S
O743 C733 1.265 . S
C744 O740 1.253 . S
C744 O745 1.227 . S
O745 C744 1.227 . S
N746 Co732 2.140 . S
N746 C749 1.346 . S
N746 C750 1.345 . S
C747 C748 1.387 . S
C747 C751 1.391 . S
C748 C747 1.387 . S
C748 C749 1.369 . S
C748 H757 0.929 . S
C749 N746 1.346 . S
C749 C748 1.369 . S
C749 H752 0.928 . S
C750 N746 1.345 . S
C750 C751 1.371 . S
C750 H753 0.931 . S
C751 C747 1.391 . S
C751 C750 1.371 . S
C751 H758 0.930 . S
H752 C749 0.928 . S
H753 C750 0.931 . S
H754 C730 0.930 . S
H755 C727 0.930 . S
H756 C736 0.930 . S
H757 C748 0.929 . S
H758 C751 0.930 . S
C759 C760 1.351 . S
C759 N762 1.368 . S
C759 H764 0.931 . S
C760 C759 1.351 . S
C760 N761 1.373 . S
C760 H788 0.930 . S
N761 C760 1.373 . S
N761 C763 1.340 . S
N762 C759 1.368 . S
N762 C763 1.321 . S
N762 Co765 2.135 . S
C763 N761 1.340 . S
C763 N762 1.321 . S
C763 H787 0.930 . S
H764 C759 0.931 . S
Co765 N762 2.135 . S
Co765 N768 2.121 . S
Co765 O773 2.055 . S
Co765 O776 2.039 . S
Co765 N779 2.140 . S
C766 O767 1.227 . S
C766 O776 1.265 . S
O767 C766 1.227 . S
N768 Co765 2.121 . S
N768 C770 1.375 . S
N768 C771 1.313 . S
C769 C770 1.338 . S
C769 N772 1.377 . S
C769 H789 0.930 . S
C770 N768 1.375 . S
C770 C769 1.338 . S
C770 H774 0.931 . S
C771 N768 1.313 . S
C771 N772 1.344 . S
C771 H775 0.930 . S
N772 C769 1.377 . S
N772 C771 1.344 . S
O773 Co765 2.055 . S
O773 C777 1.253 . S
H774 C770 0.931 . S
H775 C771 0.930 . S
O776 Co765 2.039 . S
O776 C766 1.265 . S
C777 O773 1.253 . S
C777 O778 1.227 . S
O778 C777 1.227 . S
N779 Co765 2.140 . S
N779 C782 1.346 . S
N779 C783 1.345 . S
C780 C781 1.387 . S
C780 C784 1.391 . S
C781 C780 1.387 . S
C781 C782 1.369 . S
C781 H790 0.929 . S
C782 N779 1.346 . S
C782 C781 1.369 . S
C782 H785 0.928 . S
C783 N779 1.345 . S
C783 C784 1.371 . S
C783 H786 0.931 . S
C784 C780 1.391 . S
C784 C783 1.371 . S
C784 H791 0.930 . S
H785 C782 0.928 . S
H786 C783 0.931 . S
H787 C763 0.930 . S
H788 C760 0.930 . S
H789 C769 0.930 . S
H790 C781 0.929 . S
H791 C784 0.930 . S
C792 C793 1.351 . S
C792 N795 1.368 . S
C792 H797 0.931 . S
C793 C792 1.351 . S
C793 N794 1.373 . S
C793 H821 0.930 . S
N794 C793 1.373 . S
N794 C796 1.340 . S
N795 C792 1.368 . S
N795 C796 1.321 . S
N795 Co798 2.135 1_556 S
C796 N794 1.340 . S
C796 N795 1.321 . S
C796 H820 0.930 1_556 S
H797 C792 0.931 . S
Co798 N795 2.135 1_554 S
Co798 N801 2.121 . S
Co798 O806 2.055 . S
Co798 O809 2.039 . S
Co798 N812 2.140 . S
C799 O800 1.227 . S
C799 O809 1.265 . S
O800 C799 1.227 . S
N801 Co798 2.121 . S
N801 C803 1.375 . S
N801 C804 1.313 . S
C802 C803 1.338 . S
C802 N805 1.377 . S
C802 H822 0.930 . S
C803 N801 1.375 . S
C803 C802 1.338 . S
C803 H807 0.931 . S
C804 N801 1.313 . S
C804 N805 1.344 . S
C804 H808 0.930 . S
N805 C802 1.377 . S
N805 C804 1.344 . S
O806 Co798 2.055 . S
O806 C810 1.253 . S
H807 C803 0.931 . S
H808 C804 0.930 . S
O809 Co798 2.039 . S
O809 C799 1.265 . S
C810 O806 1.253 . S
C810 O811 1.227 . S
O811 C810 1.227 . S
N812 Co798 2.140 . S
N812 C815 1.346 . S
N812 C816 1.345 . S
C813 C814 1.387 . S
C813 C817 1.391 . S
C814 C813 1.387 . S
C814 C815 1.369 . S
C814 H823 0.929 . S
C815 N812 1.346 . S
C815 C814 1.369 . S
C815 H818 0.928 . S
C816 N812 1.345 . S
C816 C817 1.371 . S
C816 H819 0.931 . S
C817 C813 1.391 . S
C817 C816 1.371 . S
C817 H824 0.930 . S
H818 C815 0.928 . S
H819 C816 0.931 . S
H820 C796 0.930 1_554 S
H821 C793 0.930 . S
H822 C802 0.930 . S
H823 C814 0.929 . S
H824 C817 0.930 . S
C825 C826 1.351 . S
C825 N828 1.368 . S
C825 H830 0.931 . S
C826 C825 1.351 . S
C826 N827 1.373 . S
C826 H854 0.930 . S
N827 C826 1.373 . S
N827 C829 1.340 . S
N828 C825 1.368 . S
N828 C829 1.321 . S
N828 Co831 2.135 . S
C829 N827 1.340 . S
C829 N828 1.321 . S
C829 H853 0.930 . S
H830 C825 0.931 . S
Co831 N828 2.135 . S
Co831 N834 2.121 . S
Co831 O839 2.055 . S
Co831 O842 2.039 . S
Co831 N845 2.140 . S
C832 O833 1.227 . S
C832 O842 1.265 . S
O833 C832 1.227 . S
N834 Co831 2.121 . S
N834 C836 1.375 1_556 S
N834 C837 1.313 . S
C835 C836 1.338 . S
C835 N838 1.377 . S
C835 H855 0.930 . S
C836 N834 1.375 1_554 S
C836 C835 1.338 . S
C836 H840 0.931 . S
C837 N834 1.313 . S
C837 N838 1.344 1_556 S
C837 H841 0.930 . S
N838 C835 1.377 . S
N838 C837 1.344 1_554 S
O839 Co831 2.055 . S
O839 C843 1.253 . S
H840 C836 0.931 . S
H841 C837 0.930 . S
O842 Co831 2.039 . S
O842 C832 1.265 . S
C843 O839 1.253 . S
C843 O844 1.227 . S
O844 C843 1.227 . S
N845 Co831 2.140 . S
N845 C848 1.346 . S
N845 C849 1.345 . S
C846 C847 1.387 . S
C846 C850 1.391 . S
C847 C846 1.387 . S
C847 C848 1.369 . S
C847 H856 0.929 . S
C848 N845 1.346 . S
C848 C847 1.369 . S
C848 H851 0.928 . S
C849 N845 1.345 . S
C849 C850 1.371 . S
C849 H852 0.931 . S
C850 C846 1.391 . S
C850 C849 1.371 . S
C850 H857 0.930 . S
H851 C848 0.928 . S
H852 C849 0.931 . S
H853 C829 0.930 . S
H854 C826 0.930 . S
H855 C835 0.930 . S
H856 C847 0.929 . S
H857 C850 0.930 . S
C858 C859 1.351 . S
C858 N861 1.368 . S
C858 H863 0.931 . S
C859 C858 1.351 . S
C859 N860 1.373 . S
C859 H887 0.930 . S
N860 C859 1.373 . S
N860 C862 1.340 . S
N861 C858 1.368 . S
N861 C862 1.321 . S
N861 Co864 2.135 . S
C862 N860 1.340 . S
C862 N861 1.321 . S
C862 H886 0.930 . S
H863 C858 0.931 . S
Co864 N861 2.135 . S
Co864 N867 2.121 . S
Co864 O872 2.055 . S
Co864 O875 2.039 . S
Co864 N878 2.140 . S
C865 O866 1.227 . S
C865 O875 1.265 . S
O866 C865 1.227 . S
N867 Co864 2.121 . S
N867 C869 1.375 . S
N867 C870 1.313 . S
C868 C869 1.338 . S
C868 N871 1.377 . S
C868 H888 0.930 . S
C869 N867 1.375 . S
C869 C868 1.338 . S
C869 H873 0.931 . S
C870 N867 1.313 . S
C870 N871 1.344 . S
C870 H874 0.930 . S
N871 C868 1.377 . S
N871 C870 1.344 . S
O872 Co864 2.055 . S
O872 C876 1.253 . S
H873 C869 0.931 . S
H874 C870 0.930 . S
O875 Co864 2.039 . S
O875 C865 1.265 . S
C876 O872 1.253 . S
C876 O877 1.227 . S
O877 C876 1.227 . S
N878 Co864 2.140 . S
N878 C881 1.346 . S
N878 C882 1.345 . S
C879 C880 1.387 . S
C879 C883 1.391 . S
C880 C879 1.387 . S
C880 C881 1.369 . S
C880 H889 0.929 . S
C881 N878 1.346 . S
C881 C880 1.369 . S
C881 H884 0.928 . S
C882 N878 1.345 . S
C882 C883 1.371 . S
C882 H885 0.931 . S
C883 C879 1.391 . S
C883 C882 1.371 . S
C883 H890 0.930 . S
H884 C881 0.928 . S
H885 C882 0.931 . S
H886 C862 0.930 . S
H887 C859 0.930 . S
H888 C868 0.930 . S
H889 C880 0.929 . S
H890 C883 0.930 . S
C891 C892 1.351 . S
C891 N894 1.368 . S
C891 H896 0.931 . S
C892 C891 1.351 . S
C892 N893 1.373 . S
C892 H920 0.930 . S
N893 C892 1.373 . S
N893 C895 1.340 . S
N894 C891 1.368 . S
N894 C895 1.321 . S
N894 Co897 2.135 . S
C895 N893 1.340 . S
C895 N894 1.321 . S
C895 H919 0.930 . S
H896 C891 0.931 . S
Co897 N894 2.135 . S
Co897 N900 2.121 . S
Co897 O905 2.055 . S
Co897 O908 2.039 . S
Co897 N911 2.140 . S
C898 O899 1.227 . S
C898 O908 1.265 . S
O899 C898 1.227 . S
N900 Co897 2.121 . S
N900 C902 1.375 . S
N900 C903 1.313 . S
C901 C902 1.338 . S
C901 N904 1.377 . S
C901 H921 0.930 . S
C902 N900 1.375 . S
C902 C901 1.338 . S
C902 H906 0.931 . S
C903 N900 1.313 . S
C903 N904 1.344 . S
C903 H907 0.930 . S
N904 C901 1.377 . S
N904 C903 1.344 . S
O905 Co897 2.055 . S
O905 C909 1.253 . S
H906 C902 0.931 . S
H907 C903 0.930 . S
O908 Co897 2.039 . S
O908 C898 1.265 . S
C909 O905 1.253 . S
C909 O910 1.227 . S
O910 C909 1.227 . S
N911 Co897 2.140 . S
N911 C914 1.346 . S
N911 C915 1.345 . S
C912 C913 1.387 . S
C912 C916 1.391 . S
C913 C912 1.387 . S
C913 C914 1.369 . S
C913 H922 0.929 . S
C914 N911 1.346 . S
C914 C913 1.369 . S
C914 H917 0.928 . S
C915 N911 1.345 . S
C915 C916 1.371 . S
C915 H918 0.931 . S
C916 C912 1.391 . S
C916 C915 1.371 . S
C916 H923 0.930 . S
H917 C914 0.928 . S
H918 C915 0.931 . S
H919 C895 0.930 . S
H920 C892 0.930 . S
H921 C901 0.930 . S
H922 C913 0.929 . S
H923 C916 0.930 . S
C924 C925 1.351 . S
C924 N927 1.368 . S
C924 H929 0.931 . S
C925 C924 1.351 . S
C925 N926 1.373 . S
C925 H953 0.930 . S
N926 C925 1.373 . S
N926 C928 1.340 . S
N927 C924 1.368 . S
N927 C928 1.321 . S
N927 Co930 2.135 . S
C928 N926 1.340 . S
C928 N927 1.321 . S
C928 H952 0.930 . S
H929 C924 0.931 . S
Co930 N927 2.135 . S
Co930 N933 2.121 . S
Co930 O938 2.055 . S
Co930 O941 2.039 . S
Co930 N944 2.140 . S
C931 O932 1.227 . S
C931 O941 1.265 . S
O932 C931 1.227 . S
N933 Co930 2.121 . S
N933 C935 1.375 . S
N933 C936 1.313 . S
C934 C935 1.338 . S
C934 N937 1.377 . S
C934 H954 0.930 . S
C935 N933 1.375 . S
C935 C934 1.338 . S
C935 H939 0.931 . S
C936 N933 1.313 . S
C936 N937 1.344 . S
C936 H940 0.930 . S
N937 C934 1.377 . S
N937 C936 1.344 . S
O938 Co930 2.055 . S
O938 C942 1.253 . S
H939 C935 0.931 . S
H940 C936 0.930 . S
O941 Co930 2.039 . S
O941 C931 1.265 . S
C942 O938 1.253 . S
C942 O943 1.227 . S
O943 C942 1.227 . S
N944 Co930 2.140 . S
N944 C947 1.346 . S
N944 C948 1.345 . S
C945 C946 1.387 . S
C945 C949 1.391 . S
C946 C945 1.387 . S
C946 C947 1.369 . S
C946 H955 0.929 . S
C947 N944 1.346 . S
C947 C946 1.369 . S
C947 H950 0.928 . S
C948 N944 1.345 . S
C948 C949 1.371 . S
C948 H951 0.931 . S
C949 C945 1.391 . S
C949 C948 1.371 . S
C949 H956 0.930 . S
H950 C947 0.928 . S
H951 C948 0.931 . S
H952 C928 0.930 . S
H953 C925 0.930 . S
H954 C934 0.930 . S
H955 C946 0.929 . S
H956 C949 0.930 . S
C957 C958 1.351 . S
C957 N960 1.368 . S
C957 H962 0.931 . S
C958 C957 1.351 . S
C958 N959 1.373 . S
C958 H986 0.930 . S
N959 C958 1.373 . S
N959 C961 1.340 . S
N960 C957 1.368 . S
N960 C961 1.321 . S
N960 Co963 2.135 . S
C961 N959 1.340 . S
C961 N960 1.321 . S
C961 H985 0.930 . S
H962 C957 0.931 . S
Co963 N960 2.135 . S
Co963 N966 2.121 . S
Co963 O971 2.055 . S
Co963 O974 2.039 . S
Co963 N977 2.140 . S
C964 O965 1.227 . S
C964 O974 1.265 . S
O965 C964 1.227 . S
N966 Co963 2.121 . S
N966 C968 1.375 1_554 S
N966 C969 1.313 . S
C967 C968 1.338 . S
C967 N970 1.377 . S
C967 H987 0.930 . S
C968 N966 1.375 1_556 S
C968 C967 1.338 . S
C968 H972 0.931 . S
C969 N966 1.313 . S
C969 N970 1.344 1_554 S
C969 H973 0.930 . S
N970 C967 1.377 . S
N970 C969 1.344 1_556 S
O971 Co963 2.055 . S
O971 C975 1.253 . S
H972 C968 0.931 . S
H973 C969 0.930 . S
O974 Co963 2.039 . S
O974 C964 1.265 . S
C975 O971 1.253 . S
C975 O976 1.227 . S
O976 C975 1.227 . S
N977 Co963 2.140 . S
N977 C980 1.346 . S
N977 C981 1.345 . S
C978 C979 1.387 . S
C978 C982 1.391 . S
C979 C978 1.387 . S
C979 C980 1.369 . S
C979 H988 0.929 . S
C980 N977 1.346 . S
C980 C979 1.369 . S
C980 H983 0.928 . S
C981 N977 1.345 . S
C981 C982 1.371 . S
C981 H984 0.931 . S
C982 C978 1.391 . S
C982 C981 1.371 . S
C982 H989 0.930 . S
H983 C980 0.928 . S
H984 C981 0.931 . S
H985 C961 0.930 . S
H986 C958 0.930 . S
H987 C967 0.930 . S
H988 C979 0.929 . S
H989 C982 0.930 . S
C990 C991 1.351 . S
C990 N993 1.368 . S
C990 H995 0.931 . S
C991 C990 1.351 . S
C991 N992 1.373 . S
C991 H1019 0.930 . S
N992 C991 1.373 . S
N992 C994 1.340 . S
N993 C990 1.368 . S
N993 C994 1.321 . S
N993 Co996 2.135 1_554 S
C994 N992 1.340 . S
C994 N993 1.321 . S
C994 H1018 0.930 1_554 S
H995 C990 0.931 . S
Co996 N993 2.135 1_556 S
Co996 N999 2.121 . S
Co996 O1004 2.055 . S
Co996 O1007 2.039 . S
Co996 N1010 2.140 . S
C997 O998 1.227 . S
C997 O1007 1.265 . S
O998 C997 1.227 . S
N999 Co996 2.121 . S
N999 C1001 1.375 . S
N999 C1002 1.313 . S
C1000 C1001 1.338 . S
C1000 N1003 1.377 . S
C1000 H1020 0.930 . S
C1001 N999 1.375 . S
C1001 C1000 1.338 . S
C1001 H1005 0.931 . S
C1002 N999 1.313 . S
C1002 N1003 1.344 . S
C1002 H1006 0.930 . S
N1003 C1000 1.377 . S
N1003 C1002 1.344 . S
O1004 Co996 2.055 . S
O1004 C1008 1.253 . S
H1005 C1001 0.931 . S
H1006 C1002 0.930 . S
O1007 Co996 2.039 . S
O1007 C997 1.265 . S
C1008 O1004 1.253 . S
C1008 O1009 1.227 . S
O1009 C1008 1.227 . S
N1010 Co996 2.140 . S
N1010 C1013 1.346 . S
N1010 C1014 1.345 . S
C1011 C1012 1.387 . S
C1011 C1015 1.391 . S
C1012 C1011 1.387 . S
C1012 C1013 1.369 . S
C1012 H1021 0.929 . S
C1013 N1010 1.346 . S
C1013 C1012 1.369 . S
C1013 H1016 0.928 . S
C1014 N1010 1.345 . S
C1014 C1015 1.371 . S
C1014 H1017 0.931 . S
C1015 C1011 1.391 . S
C1015 C1014 1.371 . S
C1015 H1022 0.930 . S
H1016 C1013 0.928 . S
H1017 C1014 0.931 . S
H1018 C994 0.930 1_556 S
H1019 C991 0.930 . S
H1020 C1000 0.930 . S
H1021 C1012 0.929 . S
H1022 C1015 0.930 . S
C1023 C1024 1.351 . S
C1023 N1026 1.368 . S
C1023 H1028 0.931 . S
C1024 C1023 1.351 . S
C1024 N1025 1.373 . S
C1024 H1052 0.930 . S
N1025 C1024 1.373 . S
N1025 C1027 1.340 . S
N1026 C1023 1.368 . S
N1026 C1027 1.321 . S
N1026 Co1029 2.135 . S
C1027 N1025 1.340 . S
C1027 N1026 1.321 . S
C1027 H1051 0.930 . S
H1028 C1023 0.931 . S
Co1029 N1026 2.135 . S
Co1029 N1032 2.121 . S
Co1029 O1037 2.055 . S
Co1029 O1040 2.039 . S
Co1029 N1043 2.140 . S
C1030 O1031 1.227 . S
C1030 O1040 1.265 . S
O1031 C1030 1.227 . S
N1032 Co1029 2.121 . S
N1032 C1034 1.375 . S
N1032 C1035 1.313 . S
C1033 C1034 1.338 . S
C1033 N1036 1.377 . S
C1033 H1053 0.930 . S
C1034 N1032 1.375 . S
C1034 C1033 1.338 . S
C1034 H1038 0.931 . S
C1035 N1032 1.313 . S
C1035 N1036 1.344 . S
C1035 H1039 0.930 . S
N1036 C1033 1.377 . S
N1036 C1035 1.344 . S
O1037 Co1029 2.055 . S
O1037 C1041 1.253 . S
H1038 C1034 0.931 . S
H1039 C1035 0.930 . S
O1040 Co1029 2.039 . S
O1040 C1030 1.265 . S
C1041 O1037 1.253 . S
C1041 O1042 1.227 . S
O1042 C1041 1.227 . S
N1043 Co1029 2.140 . S
N1043 C1046 1.346 . S
N1043 C1047 1.345 . S
C1044 C1045 1.387 . S
C1044 C1048 1.391 . S
C1045 C1044 1.387 . S
C1045 C1046 1.369 . S
C1045 H1054 0.929 . S
C1046 N1043 1.346 . S
C1046 C1045 1.369 . S
C1046 H1049 0.928 . S
C1047 N1043 1.345 . S
C1047 C1048 1.371 . S
C1047 H1050 0.931 . S
C1048 C1044 1.391 . S
C1048 C1047 1.371 . S
C1048 H1055 0.930 . S
H1049 C1046 0.928 . S
H1050 C1047 0.931 . S
H1051 C1027 0.930 . S
H1052 C1024 0.930 . S
H1053 C1033 0.930 . S
H1054 C1045 0.929 . S
H1055 C1048 0.930 . S
C1056 C1057 1.369 . S
C1056 C1058 1.419 . S
C1056 H1060 0.930 . S
C1057 C1056 1.369 . S
C1057 C1066 1.429 . S
C1058 C1056 1.419 . S
C1058 C1059 1.363 . S
C1058 H1061 0.929 . S
C1059 C1058 1.363 . S
C1059 C1065 1.428 . S
H1060 C1056 0.930 . S
H1061 C1058 0.929 . S
S1062 N1063 1.613 . S
S1062 N1064 1.610 . S
N1063 S1062 1.613 . S
N1063 C1066 1.350 . S
N1064 S1062 1.610 . S
N1064 C1065 1.351 . S
C1065 C1059 1.428 . S
C1065 N1064 1.351 . S
C1065 C1066 1.434 . S
C1066 C1057 1.429 . S
C1066 N1063 1.350 . S
C1066 C1065 1.434 . S
C1067 C1068 1.369 . S
C1067 C1069 1.419 . S
C1067 H1071 0.930 . S
C1068 C1067 1.369 . S
C1068 C1077 1.429 . S
C1069 C1067 1.419 . S
C1069 C1070 1.363 . S
C1069 H1072 0.929 . S
C1070 C1069 1.363 . S
C1070 C1076 1.428 . S
H1071 C1067 0.930 . S
H1072 C1069 0.929 . S
S1073 N1074 1.613 1_554 S
S1073 N1075 1.610 . S
N1074 S1073 1.613 1_556 S
N1074 C1077 1.350 . S
N1075 S1073 1.610 . S
N1075 C1076 1.351 1_554 S
C1076 C1070 1.428 . S
C1076 N1075 1.351 1_556 S
C1076 C1077 1.434 . S
C1077 C1068 1.429 . S
C1077 N1074 1.350 . S
C1077 C1076 1.434 . S
C1078 C1079 1.369 . S
C1078 C1080 1.419 . S
C1078 H1082 0.930 . S
C1079 C1078 1.369 . S
C1079 C1088 1.429 . S
C1080 C1078 1.419 . S
C1080 C1081 1.363 . S
C1080 H1083 0.929 . S
C1081 C1080 1.363 . S
C1081 C1087 1.428 . S
H1082 C1078 0.930 . S
H1083 C1080 0.929 . S
S1084 N1085 1.613 . S
S1084 N1086 1.610 . S
N1085 S1084 1.613 . S
N1085 C1088 1.350 . S
N1086 S1084 1.610 . S
N1086 C1087 1.351 . S
C1087 C1081 1.428 . S
C1087 N1086 1.351 . S
C1087 C1088 1.434 . S
C1088 C1079 1.429 . S
C1088 N1085 1.350 . S
C1088 C1087 1.434 . S
C1089 C1090 1.369 . S
C1089 C1091 1.419 . S
C1089 H1093 0.930 . S
C1090 C1089 1.369 . S
C1090 C1099 1.429 . S
C1091 C1089 1.419 . S
C1091 C1092 1.363 . S
C1091 H1094 0.929 . S
C1092 C1091 1.363 . S
C1092 C1098 1.428 . S
H1093 C1089 0.930 . S
H1094 C1091 0.929 . S
S1095 N1096 1.613 . S
S1095 N1097 1.610 . S
N1096 S1095 1.613 . S
N1096 C1099 1.350 . S
N1097 S1095 1.610 . S
N1097 C1098 1.351 . S
C1098 C1092 1.428 . S
C1098 N1097 1.351 . S
C1098 C1099 1.434 . S
C1099 C1090 1.429 . S
C1099 N1096 1.350 . S
C1099 C1098 1.434 . S
C1100 C1101 1.369 . S
C1100 C1102 1.419 . S
C1100 H1104 0.930 . S
C1101 C1100 1.369 . S
C1101 C1110 1.429 . S
C1102 C1100 1.419 . S
C1102 C1103 1.363 . S
C1102 H1105 0.929 . S
C1103 C1102 1.363 . S
C1103 C1109 1.428 . S
H1104 C1100 0.930 . S
H1105 C1102 0.929 . S
S1106 N1107 1.613 . S
S1106 N1108 1.610 . S
N1107 S1106 1.613 . S
N1107 C1110 1.350 . S
N1108 S1106 1.610 . S
N1108 C1109 1.351 . S
C1109 C1103 1.428 . S
C1109 N1108 1.351 . S
C1109 C1110 1.434 . S
C1110 C1101 1.429 . S
C1110 N1107 1.350 . S
C1110 C1109 1.434 . S
C1111 C1112 1.369 . S
C1111 C1113 1.419 . S
C1111 H1115 0.930 1_554 S
C1112 C1111 1.369 . S
C1112 C1121 1.429 . S
C1113 C1111 1.419 . S
C1113 C1114 1.363 . S
C1113 H1116 0.929 . S
C1114 C1113 1.363 . S
C1114 C1120 1.428 . S
H1115 C1111 0.930 1_556 S
H1116 C1113 0.929 . S
S1117 N1118 1.613 . S
S1117 N1119 1.610 . S
N1118 S1117 1.613 . S
N1118 C1121 1.350 . S
N1119 S1117 1.610 . S
N1119 C1120 1.351 . S
C1120 C1114 1.428 . S
C1120 N1119 1.351 . S
C1120 C1121 1.434 . S
C1121 C1112 1.429 . S
C1121 N1118 1.350 . S
C1121 C1120 1.434 . S
C1122 C1123 1.369 . S
C1122 C1124 1.419 . S
C1122 H1126 0.930 . S
C1123 C1122 1.369 . S
C1123 C1132 1.429 . S
C1124 C1122 1.419 . S
C1124 C1125 1.363 . S
C1124 H1127 0.929 . S
C1125 C1124 1.363 . S
C1125 C1131 1.428 . S
H1126 C1122 0.930 . S
H1127 C1124 0.929 . S
S1128 N1129 1.613 . S
S1128 N1130 1.610 . S
N1129 S1128 1.613 . S
N1129 C1132 1.350 . S
N1130 S1128 1.610 . S
N1130 C1131 1.351 . S
C1131 C1125 1.428 . S
C1131 N1130 1.351 . S
C1131 C1132 1.434 . S
C1132 C1123 1.429 . S
C1132 N1129 1.350 . S
C1132 C1131 1.434 . S
C1133 C1134 1.369 . S
C1133 C1135 1.419 . S
C1133 H1137 0.930 . S
C1134 C1133 1.369 . S
C1134 C1143 1.429 . S
C1135 C1133 1.419 . S
C1135 C1136 1.363 . S
C1135 H1138 0.929 . S
C1136 C1135 1.363 . S
C1136 C1142 1.428 . S
H1137 C1133 0.930 . S
H1138 C1135 0.929 . S
S1139 N1140 1.613 . S
S1139 N1141 1.610 . S
N1140 S1139 1.613 . S
N1140 C1143 1.350 . S
N1141 S1139 1.610 . S
N1141 C1142 1.351 . S
C1142 C1136 1.428 . S
C1142 N1141 1.351 . S
C1142 C1143 1.434 . S
C1143 C1134 1.429 . S
C1143 N1140 1.350 . S
C1143 C1142 1.434 . S
C1144 C1145 1.369 . S
C1144 C1146 1.419 . S
C1144 H1148 0.930 . S
C1145 C1144 1.369 . S
C1145 C1154 1.429 . S
C1146 C1144 1.419 . S
C1146 C1147 1.363 . S
C1146 H1149 0.929 . S
C1147 C1146 1.363 . S
C1147 C1153 1.428 . S
H1148 C1144 0.930 . S
H1149 C1146 0.929 . S
S1150 N1151 1.613 . S
S1150 N1152 1.610 1_556 S
N1151 S1150 1.613 . S
N1151 C1154 1.350 1_556 S
N1152 S1150 1.610 1_554 S
N1152 C1153 1.351 . S
C1153 C1147 1.428 . S
C1153 N1152 1.351 . S
C1153 C1154 1.434 . S
C1154 C1145 1.429 . S
C1154 N1151 1.350 1_554 S
C1154 C1153 1.434 . S
C1155 C1156 1.369 . S
C1155 C1157 1.419 . S
C1155 H1159 0.930 . S
C1156 C1155 1.369 . S
C1156 C1165 1.429 . S
C1157 C1155 1.419 . S
C1157 C1158 1.363 . S
C1157 H1160 0.929 . S
C1158 C1157 1.363 . S
C1158 C1164 1.428 . S
H1159 C1155 0.930 . S
H1160 C1157 0.929 . S
S1161 N1162 1.613 . S
S1161 N1163 1.610 . S
N1162 S1161 1.613 . S
N1162 C1165 1.350 . S
N1163 S1161 1.610 . S
N1163 C1164 1.351 . S
C1164 C1158 1.428 . S
C1164 N1163 1.351 . S
C1164 C1165 1.434 . S
C1165 C1156 1.429 . S
C1165 N1162 1.350 . S
C1165 C1164 1.434 . S
C1166 C1167 1.369 . S
C1166 C1168 1.419 . S
C1166 H1170 0.930 . S
C1167 C1166 1.369 . S
C1167 C1176 1.429 . S
C1168 C1166 1.419 . S
C1168 C1169 1.363 . S
C1168 H1171 0.929 . S
C1169 C1168 1.363 . S
C1169 C1175 1.428 . S
H1170 C1166 0.930 . S
H1171 C1168 0.929 . S
S1172 N1173 1.613 . S
S1172 N1174 1.610 . S
N1173 S1172 1.613 . S
N1173 C1176 1.350 . S
N1174 S1172 1.610 . S
N1174 C1175 1.351 . S
C1175 C1169 1.428 . S
C1175 N1174 1.351 . S
C1175 C1176 1.434 . S
C1176 C1167 1.429 . S
C1176 N1173 1.350 . S
C1176 C1175 1.434 . S
C1177 C1178 1.369 . S
C1177 C1179 1.419 . S
C1177 H1181 0.930 . S
C1178 C1177 1.369 . S
C1178 C1187 1.429 . S
C1179 C1177 1.419 . S
C1179 C1180 1.363 . S
C1179 H1182 0.929 . S
C1180 C1179 1.363 . S
C1180 C1186 1.428 . S
H1181 C1177 0.930 . S
H1182 C1179 0.929 . S
S1183 N1184 1.613 . S
S1183 N1185 1.610 . S
N1184 S1183 1.613 . S
N1184 C1187 1.350 . S
N1185 S1183 1.610 . S
N1185 C1186 1.351 . S
C1186 C1180 1.428 . S
C1186 N1185 1.351 . S
C1186 C1187 1.434 . S
C1187 C1178 1.429 . S
C1187 N1184 1.350 . S
C1187 C1186 1.434 . S
C1188 C1189 1.369 . S
C1188 C1190 1.419 . S
C1188 H1192 0.930 . S
C1189 C1188 1.369 . S
C1189 C1198 1.429 . S
C1190 C1188 1.419 . S
C1190 C1191 1.363 . S
C1190 H1193 0.929 . S
C1191 C1190 1.363 . S
C1191 C1197 1.428 . S
H1192 C1188 0.930 . S
H1193 C1190 0.929 . S
S1194 N1195 1.613 . S
S1194 N1196 1.610 . S
N1195 S1194 1.613 . S
N1195 C1198 1.350 . S
N1196 S1194 1.610 . S
N1196 C1197 1.351 . S
C1197 C1191 1.428 . S
C1197 N1196 1.351 . S
C1197 C1198 1.434 . S
C1198 C1189 1.429 . S
C1198 N1195 1.350 . S
C1198 C1197 1.434 . S
C1199 C1200 1.369 . S
C1199 C1201 1.419 . S
C1199 H1203 0.930 . S
C1200 C1199 1.369 . S
C1200 C1209 1.429 . S
C1201 C1199 1.419 . S
C1201 C1202 1.363 . S
C1201 H1204 0.929 . S
C1202 C1201 1.363 . S
C1202 C1208 1.428 . S
H1203 C1199 0.930 . S
H1204 C1201 0.929 . S
S1205 N1206 1.613 . S
S1205 N1207 1.610 . S
N1206 S1205 1.613 . S
N1206 C1209 1.350 . S
N1207 S1205 1.610 . S
N1207 C1208 1.351 . S
C1208 C1202 1.428 . S
C1208 N1207 1.351 . S
C1208 C1209 1.434 . S
C1209 C1200 1.429 . S
C1209 N1206 1.350 . S
C1209 C1208 1.434 . S
C1210 C1211 1.369 . S
C1210 C1212 1.419 . S
C1210 H1214 0.930 . S
C1211 C1210 1.369 . S
C1211 C1220 1.429 . S
C1212 C1210 1.419 . S
C1212 C1213 1.363 . S
C1212 H1215 0.929 . S
C1213 C1212 1.363 . S
C1213 C1219 1.428 . S
H1214 C1210 0.930 . S
H1215 C1212 0.929 . S
S1216 N1217 1.613 . S
S1216 N1218 1.610 . S
N1217 S1216 1.613 . S
N1217 C1220 1.350 . S
N1218 S1216 1.610 . S
N1218 C1219 1.351 . S
C1219 C1213 1.428 . S
C1219 N1218 1.351 . S
C1219 C1220 1.434 . S
C1220 C1211 1.429 . S
C1220 N1217 1.350 . S
C1220 C1219 1.434 . S
C1221 C1222 1.369 . S
C1221 C1223 1.419 . S
C1221 H1225 0.930 . S
C1222 C1221 1.369 . S
C1222 C1231 1.429 . S
C1223 C1221 1.419 . S
C1223 C1224 1.363 . S
C1223 H1226 0.929 . S
C1224 C1223 1.363 . S
C1224 C1230 1.428 . S
H1225 C1221 0.930 . S
H1226 C1223 0.929 . S
S1227 N1228 1.613 . S
S1227 N1229 1.610 1_554 S
N1228 S1227 1.613 . S
N1228 C1231 1.350 . S
N1229 S1227 1.610 1_556 S
N1229 C1230 1.351 1_556 S
C1230 C1224 1.428 . S
C1230 N1229 1.351 1_554 S
C1230 C1231 1.434 . S
C1231 C1222 1.429 . S
C1231 N1228 1.350 . S
C1231 C1230 1.434 . S
C1232 C1233 1.369 . S
C1232 C1234 1.419 . S
C1232 H1236 0.930 . S
C1233 C1232 1.369 . S
C1233 C1242 1.429 . S
C1234 C1232 1.419 . S
C1234 C1235 1.363 . S
C1234 H1237 0.929 . S
C1235 C1234 1.363 . S
C1235 C1241 1.428 . S
H1236 C1232 0.930 . S
H1237 C1234 0.929 . S
S1238 N1239 1.613 . S
S1238 N1240 1.610 . S
N1239 S1238 1.613 . S
N1239 C1242 1.350 . S
N1240 S1238 1.610 . S
N1240 C1241 1.351 . S
C1241 C1235 1.428 . S
C1241 N1240 1.351 . S
C1241 C1242 1.434 . S
C1242 C1233 1.429 . S
C1242 N1239 1.350 . S
C1242 C1241 1.434 . S
C1243 C1244 1.369 . S
C1243 C1245 1.419 1_565 S
C1243 H1247 0.930 . S
C1244 C1243 1.369 . S
C1244 C1253 1.429 . S
C1245 C1243 1.419 1_545 S
C1245 C1246 1.363 . S
C1245 H1248 0.929 . S
C1246 C1245 1.363 . S
C1246 C1252 1.428 . S
H1247 C1243 0.930 . S
H1248 C1245 0.929 . S
S1249 N1250 1.613 . S
S1249 N1251 1.610 1_565 S
N1250 S1249 1.613 . S
N1250 C1253 1.350 . S
N1251 S1249 1.610 1_545 S
N1251 C1252 1.351 . S
C1252 C1246 1.428 . S
C1252 N1251 1.351 . S
C1252 C1253 1.434 1_545 S
C1253 C1244 1.429 . S
C1253 N1250 1.350 . S
C1253 C1252 1.434 1_565 S
C1254 C1255 1.369 1_556 S
C1254 C1256 1.419 . S
C1254 H1258 0.930 . S
C1255 C1254 1.369 1_554 S
C1255 C1264 1.429 . S
C1256 C1254 1.419 . S
C1256 C1257 1.363 . S
C1256 H1259 0.929 . S
C1257 C1256 1.363 . S
C1257 C1263 1.428 1_556 S
H1258 C1254 0.930 . S
H1259 C1256 0.929 . S
S1260 N1261 1.613 . S
S1260 N1262 1.610 . S
N1261 S1260 1.613 . S
N1261 C1264 1.350 . S
N1262 S1260 1.610 . S
N1262 C1263 1.351 . S
C1263 C1257 1.428 1_554 S
C1263 N1262 1.351 . S
C1263 C1264 1.434 . S
C1264 C1255 1.429 . S
C1264 N1261 1.350 . S
C1264 C1263 1.434 . S
C1265 C1266 1.369 . S
C1265 C1267 1.419 1_545 S
C1265 H1269 0.930 . S
C1266 C1265 1.369 . S
C1266 C1275 1.429 . S
C1267 C1265 1.419 1_565 S
C1267 C1268 1.363 . S
C1267 H1270 0.929 . S
C1268 C1267 1.363 . S
C1268 C1274 1.428 . S
H1269 C1265 0.930 . S
H1270 C1267 0.929 . S
S1271 N1272 1.613 1_565 S
S1271 N1273 1.610 . S
N1272 S1271 1.613 1_545 S
N1272 C1275 1.350 . S
N1273 S1271 1.610 . S
N1273 C1274 1.351 . S
C1274 C1268 1.428 . S
C1274 N1273 1.351 . S
C1274 C1275 1.434 1_565 S
C1275 C1266 1.429 . S
C1275 N1272 1.350 . S
C1275 C1274 1.434 1_545 S
C1276 C1277 1.369 . S
C1276 C1278 1.419 . S
C1276 H1280 0.930 . S
C1277 C1276 1.369 . S
C1277 C1286 1.429 . S
C1278 C1276 1.419 . S
C1278 C1279 1.363 . S
C1278 H1281 0.929 . S
C1279 C1278 1.363 . S
C1279 C1285 1.428 . S
H1280 C1276 0.930 . S
H1281 C1278 0.929 . S
S1282 N1283 1.613 . S
S1282 N1284 1.610 . S
N1283 S1282 1.613 . S
N1283 C1286 1.350 . S
N1284 S1282 1.610 . S
N1284 C1285 1.351 . S
C1285 C1279 1.428 . S
C1285 N1284 1.351 . S
C1285 C1286 1.434 . S
C1286 C1277 1.429 . S
C1286 N1283 1.350 . S
C1286 C1285 1.434 . S
C1287 C1288 1.369 . S
C1287 C1289 1.419 1_545 S
C1287 H1291 0.930 . S
C1288 C1287 1.369 . S
C1288 C1297 1.429 . S
C1289 C1287 1.419 1_565 S
C1289 C1290 1.363 . S
C1289 H1292 0.929 . S
C1290 C1289 1.363 . S
C1290 C1296 1.428 . S
H1291 C1287 0.930 . S
H1292 C1289 0.929 . S
S1293 N1294 1.613 1_565 S
S1293 N1295 1.610 . S
N1294 S1293 1.613 1_545 S
N1294 C1297 1.350 . S
N1295 S1293 1.610 . S
N1295 C1296 1.351 . S
C1296 C1290 1.428 . S
C1296 N1295 1.351 . S
C1296 C1297 1.434 1_565 S
C1297 C1288 1.429 . S
C1297 N1294 1.350 . S
C1297 C1296 1.434 1_545 S
C1298 C1299 1.369 1_556 S
C1298 C1300 1.419 . S
C1298 H1302 0.930 . S
C1299 C1298 1.369 1_554 S
C1299 C1308 1.429 . S
C1300 C1298 1.419 . S
C1300 C1301 1.363 . S
C1300 H1303 0.929 . S
C1301 C1300 1.363 . S
C1301 C1307 1.428 1_556 S
H1302 C1298 0.930 . S
H1303 C1300 0.929 . S
S1304 N1305 1.613 . S
S1304 N1306 1.610 . S
N1305 S1304 1.613 . S
N1305 C1308 1.350 . S
N1306 S1304 1.610 . S
N1306 C1307 1.351 . S
C1307 C1301 1.428 1_554 S
C1307 N1306 1.351 . S
C1307 C1308 1.434 . S
C1308 C1299 1.429 . S
C1308 N1305 1.350 . S
C1308 C1307 1.434 . S
C1309 C1310 1.369 . S
C1309 C1311 1.419 1_545 S
C1309 H1313 0.930 . S
C1310 C1309 1.369 . S
C1310 C1319 1.429 . S
C1311 C1309 1.419 1_565 S
C1311 C1312 1.363 . S
C1311 H1314 0.929 . S
C1312 C1311 1.363 . S
C1312 C1318 1.428 . S
H1313 C1309 0.930 . S
H1314 C1311 0.929 . S
S1315 N1316 1.613 . S
S1315 N1317 1.610 1_545 S
N1316 S1315 1.613 . S
N1316 C1319 1.350 . S
N1317 S1315 1.610 1_565 S
N1317 C1318 1.351 . S
C1318 C1312 1.428 . S
C1318 N1317 1.351 . S
C1318 C1319 1.434 1_565 S
C1319 C1310 1.429 . S
C1319 N1316 1.350 . S
C1319 C1318 1.434 1_545 S
C1320 C1321 1.369 1_554 S
C1320 C1322 1.419 . S
C1320 H1324 0.930 . S
C1321 C1320 1.369 1_556 S
C1321 C1330 1.429 . S
C1322 C1320 1.419 . S
C1322 C1323 1.363 . S
C1322 H1325 0.929 . S
C1323 C1322 1.363 . S
C1323 C1329 1.428 1_554 S
H1324 C1320 0.930 . S
H1325 C1322 0.929 . S
S1326 N1327 1.613 . S
S1326 N1328 1.610 . S
N1327 S1326 1.613 . S
N1327 C1330 1.350 . S
N1328 S1326 1.610 . S
N1328 C1329 1.351 . S
C1329 C1323 1.428 1_556 S
C1329 N1328 1.351 . S
C1329 C1330 1.434 . S
C1330 C1321 1.429 . S
C1330 N1327 1.350 . S
C1330 C1329 1.434 . S
C1331 C1332 1.369 . S
C1331 C1333 1.419 . S
C1331 H1335 0.930 . S
C1332 C1331 1.369 . S
C1332 C1341 1.429 . S
C1333 C1331 1.419 . S
C1333 C1334 1.363 . S
C1333 H1336 0.929 . S
C1334 C1333 1.363 . S
C1334 C1340 1.428 . S
H1335 C1331 0.930 . S
H1336 C1333 0.929 . S
S1337 N1338 1.613 . S
S1337 N1339 1.610 . S
N1338 S1337 1.613 . S
N1338 C1341 1.350 . S
N1339 S1337 1.610 . S
N1339 C1340 1.351 . S
C1340 C1334 1.428 . S
C1340 N1339 1.351 . S
C1340 C1341 1.434 . S
C1341 C1332 1.429 . S
C1341 N1338 1.350 . S
C1341 C1340 1.434 . S
C1342 C1343 1.369 . S
C1342 C1344 1.419 . S
C1342 H1346 0.930 . S
C1343 C1342 1.369 . S
C1343 C1352 1.429 . S
C1344 C1342 1.419 . S
C1344 C1345 1.363 . S
C1344 H1347 0.929 . S
C1345 C1344 1.363 . S
C1345 C1351 1.428 . S
H1346 C1342 0.930 . S
H1347 C1344 0.929 . S
S1348 N1349 1.613 . S
S1348 N1350 1.610 . S
N1349 S1348 1.613 . S
N1349 C1352 1.350 . S
N1350 S1348 1.610 . S
N1350 C1351 1.351 . S
C1351 C1345 1.428 . S
C1351 N1350 1.351 . S
C1351 C1352 1.434 . S
C1352 C1343 1.429 . S
C1352 N1349 1.350 . S
C1352 C1351 1.434 . S
C1353 C1354 1.369 . S
C1353 C1355 1.419 . S
C1353 H1357 0.930 . S
C1354 C1353 1.369 . S
C1354 C1363 1.429 . S
C1355 C1353 1.419 . S
C1355 C1356 1.363 . S
C1355 H1358 0.929 . S
C1356 C1355 1.363 . S
C1356 C1362 1.428 . S
H1357 C1353 0.930 . S
H1358 C1355 0.929 . S
S1359 N1360 1.613 . S
S1359 N1361 1.610 . S
N1360 S1359 1.613 . S
N1360 C1363 1.350 . S
N1361 S1359 1.610 . S
N1361 C1362 1.351 . S
C1362 C1356 1.428 . S
C1362 N1361 1.351 . S
C1362 C1363 1.434 . S
C1363 C1354 1.429 . S
C1363 N1360 1.350 . S
C1363 C1362 1.434 . S
C1364 C1365 1.369 . S
C1364 C1366 1.419 . S
C1364 H1368 0.930 . S
C1365 C1364 1.369 . S
C1365 C1374 1.429 1_556 S
C1366 C1364 1.419 . S
C1366 C1367 1.363 1_556 S
C1366 H1369 0.929 . S
C1367 C1366 1.363 1_554 S
C1367 C1373 1.428 . S
H1368 C1364 0.930 . S
H1369 C1366 0.929 . S
S1370 N1371 1.613 . S
S1370 N1372 1.610 . S
N1371 S1370 1.613 . S
N1371 C1374 1.350 . S
N1372 S1370 1.610 . S
N1372 C1373 1.351 . S
C1373 C1367 1.428 . S
C1373 N1372 1.351 . S
C1373 C1374 1.434 . S
C1374 C1365 1.429 1_554 S
C1374 N1371 1.350 . S
C1374 C1373 1.434 . S
C1375 C1376 1.369 . S
C1375 C1377 1.419 . S
C1375 H1379 0.930 . S
C1376 C1375 1.369 . S
C1376 C1385 1.429 . S
C1377 C1375 1.419 . S
C1377 C1378 1.363 . S
C1377 H1380 0.929 . S
C1378 C1377 1.363 . S
C1378 C1384 1.428 . S
H1379 C1375 0.930 . S
H1380 C1377 0.929 . S
S1381 N1382 1.613 . S
S1381 N1383 1.610 . S
N1382 S1381 1.613 . S
N1382 C1385 1.350 . S
N1383 S1381 1.610 . S
N1383 C1384 1.351 . S
C1384 C1378 1.428 . S
C1384 N1383 1.351 . S
C1384 C1385 1.434 . S
C1385 C1376 1.429 . S
C1385 N1382 1.350 . S
C1385 C1384 1.434 . S
C1386 C1387 1.369 . S
C1386 C1388 1.419 . S
C1386 H1390 0.930 . S
C1387 C1386 1.369 . S
C1387 C1396 1.429 . S
C1388 C1386 1.419 . S
C1388 C1389 1.363 . S
C1388 H1391 0.929 . S
C1389 C1388 1.363 . S
C1389 C1395 1.428 . S
H1390 C1386 0.930 . S
H1391 C1388 0.929 . S
S1392 N1393 1.613 . S
S1392 N1394 1.610 . S
N1393 S1392 1.613 . S
N1393 C1396 1.350 . S
N1394 S1392 1.610 . S
N1394 C1395 1.351 . S
C1395 C1389 1.428 . S
C1395 N1394 1.351 . S
C1395 C1396 1.434 . S
C1396 C1387 1.429 . S
C1396 N1393 1.350 . S
C1396 C1395 1.434 . S
C1397 C1398 1.369 . S
C1397 C1399 1.419 . S
C1397 H1401 0.930 . S
C1398 C1397 1.369 . S
C1398 C1407 1.429 . S
C1399 C1397 1.419 . S
C1399 C1400 1.363 . S
C1399 H1402 0.929 . S
C1400 C1399 1.363 . S
C1400 C1406 1.428 . S
H1401 C1397 0.930 . S
H1402 C1399 0.929 . S
S1403 N1404 1.613 . S
S1403 N1405 1.610 . S
N1404 S1403 1.613 . S
N1404 C1407 1.350 . S
N1405 S1403 1.610 . S
N1405 C1406 1.351 . S
C1406 C1400 1.428 . S
C1406 N1405 1.351 . S
C1406 C1407 1.434 . S
C1407 C1398 1.429 . S
C1407 N1404 1.350 . S
C1407 C1406 1.434 . S
C1408 C1409 1.369 . S
C1408 C1410 1.419 . S
C1408 H1412 0.930 . S
C1409 C1408 1.369 . S
C1409 C1418 1.429 . S
C1410 C1408 1.419 . S
C1410 C1411 1.363 . S
C1410 H1413 0.929 . S
C1411 C1410 1.363 . S
C1411 C1417 1.428 . S
H1412 C1408 0.930 . S
H1413 C1410 0.929 . S
S1414 N1415 1.613 . S
S1414 N1416 1.610 . S
N1415 S1414 1.613 . S
N1415 C1418 1.350 . S
N1416 S1414 1.610 . S
N1416 C1417 1.351 . S
C1417 C1411 1.428 . S
C1417 N1416 1.351 . S
C1417 C1418 1.434 . S
C1418 C1409 1.429 . S
C1418 N1415 1.350 . S
C1418 C1417 1.434 . S
C1419 C1420 1.369 . S
C1419 C1421 1.419 1_655 S
C1419 H1423 0.930 . S
C1420 C1419 1.369 . S
C1420 C1429 1.429 . S
C1421 C1419 1.419 1_455 S
C1421 C1422 1.363 . S
C1421 H1424 0.929 . S
C1422 C1421 1.363 . S
C1422 C1428 1.428 . S
H1423 C1419 0.930 . S
H1424 C1421 0.929 . S
S1425 N1426 1.613 . S
S1425 N1427 1.610 1_655 S
N1426 S1425 1.613 . S
N1426 C1429 1.350 . S
N1427 S1425 1.610 1_455 S
N1427 C1428 1.351 . S
C1428 C1422 1.428 . S
C1428 N1427 1.351 . S
C1428 C1429 1.434 1_455 S
C1429 C1420 1.429 . S
C1429 N1426 1.350 . S
C1429 C1428 1.434 1_655 S
C1430 C1431 1.369 . S
C1430 C1432 1.419 . S
C1430 H1434 0.930 . S
C1431 C1430 1.369 . S
C1431 C1440 1.429 . S
C1432 C1430 1.419 . S
C1432 C1433 1.363 . S
C1432 H1435 0.929 . S
C1433 C1432 1.363 . S
C1433 C1439 1.428 . S
H1434 C1430 0.930 . S
H1435 C1432 0.929 . S
S1436 N1437 1.613 . S
S1436 N1438 1.610 . S
N1437 S1436 1.613 . S
N1437 C1440 1.350 . S
N1438 S1436 1.610 . S
N1438 C1439 1.351 . S
C1439 C1433 1.428 . S
C1439 N1438 1.351 . S
C1439 C1440 1.434 . S
C1440 C1431 1.429 . S
C1440 N1437 1.350 . S
C1440 C1439 1.434 . S
C1441 C1442 1.369 . S
C1441 C1443 1.419 . S
C1441 H1445 0.930 . S
C1442 C1441 1.369 . S
C1442 C1451 1.429 . S
C1443 C1441 1.419 . S
C1443 C1444 1.363 . S
C1443 H1446 0.929 . S
C1444 C1443 1.363 . S
C1444 C1450 1.428 . S
H1445 C1441 0.930 . S
H1446 C1443 0.929 . S
S1447 N1448 1.613 . S
S1447 N1449 1.610 . S
N1448 S1447 1.613 . S
N1448 C1451 1.350 . S
N1449 S1447 1.610 . S
N1449 C1450 1.351 . S
C1450 C1444 1.428 . S
C1450 N1449 1.351 . S
C1450 C1451 1.434 . S
C1451 C1442 1.429 . S
C1451 N1448 1.350 . S
C1451 C1450 1.434 . S
C1452 C1453 1.369 . S
C1452 C1454 1.419 . S
C1452 H1456 0.930 . S
C1453 C1452 1.369 . S
C1453 C1462 1.429 . S
C1454 C1452 1.419 . S
C1454 C1455 1.363 . S
C1454 H1457 0.929 . S
C1455 C1454 1.363 . S
C1455 C1461 1.428 . S
H1456 C1452 0.930 . S
H1457 C1454 0.929 . S
S1458 N1459 1.613 . S
S1458 N1460 1.610 . S
N1459 S1458 1.613 . S
N1459 C1462 1.350 . S
N1460 S1458 1.610 . S
N1460 C1461 1.351 . S
C1461 C1455 1.428 . S
C1461 N1460 1.351 . S
C1461 C1462 1.434 . S
C1462 C1453 1.429 . S
C1462 N1459 1.350 . S
C1462 C1461 1.434 . S
C1463 C1464 1.369 . S
C1463 C1465 1.419 . S
C1463 H1467 0.930 . S
C1464 C1463 1.369 . S
C1464 C1473 1.429 . S
C1465 C1463 1.419 . S
C1465 C1466 1.363 . S
C1465 H1468 0.929 . S
C1466 C1465 1.363 . S
C1466 C1472 1.428 . S
H1467 C1463 0.930 . S
H1468 C1465 0.929 . S
S1469 N1470 1.613 . S
S1469 N1471 1.610 . S
N1470 S1469 1.613 . S
N1470 C1473 1.350 . S
N1471 S1469 1.610 . S
N1471 C1472 1.351 . S
C1472 C1466 1.428 . S
C1472 N1471 1.351 . S
C1472 C1473 1.434 . S
C1473 C1464 1.429 . S
C1473 N1470 1.350 . S
C1473 C1472 1.434 . S
C1474 C1475 1.369 . S
C1474 C1476 1.419 . S
C1474 H1478 0.930 . S
C1475 C1474 1.369 . S
C1475 C1484 1.429 . S
C1476 C1474 1.419 . S
C1476 C1477 1.363 . S
C1476 H1479 0.929 . S
C1477 C1476 1.363 . S
C1477 C1483 1.428 . S
H1478 C1474 0.930 . S
H1479 C1476 0.929 . S
S1480 N1481 1.613 . S
S1480 N1482 1.610 . S
N1481 S1480 1.613 . S
N1481 C1484 1.350 . S
N1482 S1480 1.610 . S
N1482 C1483 1.351 . S
C1483 C1477 1.428 . S
C1483 N1482 1.351 . S
C1483 C1484 1.434 . S
C1484 C1475 1.429 . S
C1484 N1481 1.350 . S
C1484 C1483 1.434 . S
C1485 C1486 1.369 . S
C1485 C1487 1.419 1_455 S
C1485 H1489 0.930 . S
C1486 C1485 1.369 . S
C1486 C1495 1.429 . S
C1487 C1485 1.419 1_655 S
C1487 C1488 1.363 . S
C1487 H1490 0.929 . S
C1488 C1487 1.363 . S
C1488 C1494 1.428 . S
H1489 C1485 0.930 . S
H1490 C1487 0.929 . S
S1491 N1492 1.613 1_655 S
S1491 N1493 1.610 1_556 S
N1492 S1491 1.613 1_455 S
N1492 C1495 1.350 1_556 S
N1493 S1491 1.610 1_554 S
N1493 C1494 1.351 . S
C1494 C1488 1.428 . S
C1494 N1493 1.351 . S
C1494 C1495 1.434 1_655 S
C1495 C1486 1.429 . S
C1495 N1492 1.350 1_554 S
C1495 C1494 1.434 1_455 S
C1496 C1497 1.369 . S
C1496 C1498 1.419 . S
C1496 H1500 0.930 . S
C1497 C1496 1.369 . S
C1497 C1506 1.429 . S
C1498 C1496 1.419 . S
C1498 C1499 1.363 . S
C1498 H1501 0.929 . S
C1499 C1498 1.363 . S
C1499 C1505 1.428 . S
H1500 C1496 0.930 . S
H1501 C1498 0.929 . S
S1502 N1503 1.613 . S
S1502 N1504 1.610 1_554 S
N1503 S1502 1.613 . S
N1503 C1506 1.350 1_554 S
N1504 S1502 1.610 1_556 S
N1504 C1505 1.351 . S
C1505 C1499 1.428 . S
C1505 N1504 1.351 . S
C1505 C1506 1.434 . S
C1506 C1497 1.429 . S
C1506 N1503 1.350 1_556 S
C1506 C1505 1.434 . S
C1507 C1508 1.369 . S
C1507 C1509 1.419 1_455 S
C1507 H1511 0.930 . S
C1508 C1507 1.369 . S
C1508 C1517 1.429 . S
C1509 C1507 1.419 1_655 S
C1509 C1510 1.363 . S
C1509 H1512 0.929 . S
C1510 C1509 1.363 . S
C1510 C1516 1.428 . S
H1511 C1507 0.930 . S
H1512 C1509 0.929 . S
S1513 N1514 1.613 1_655 S
S1513 N1515 1.610 . S
N1514 S1513 1.613 1_455 S
N1514 C1517 1.350 . S
N1515 S1513 1.610 . S
N1515 C1516 1.351 . S
C1516 C1510 1.428 . S
C1516 N1515 1.351 . S
C1516 C1517 1.434 1_655 S
C1517 C1508 1.429 . S
C1517 N1514 1.350 . S
C1517 C1516 1.434 1_455 S
C1518 C1519 1.369 . S
C1518 C1520 1.419 . S
C1518 H1522 0.930 . S
C1519 C1518 1.369 . S
C1519 C1528 1.429 . S
C1520 C1518 1.419 . S
C1520 C1521 1.363 . S
C1520 H1523 0.929 . S
C1521 C1520 1.363 . S
C1521 C1527 1.428 . S
H1522 C1518 0.930 . S
H1523 C1520 0.929 . S
S1524 N1525 1.613 . S
S1524 N1526 1.610 . S
N1525 S1524 1.613 . S
N1525 C1528 1.350 . S
N1526 S1524 1.610 . S
N1526 C1527 1.351 . S
C1527 C1521 1.428 . S
C1527 N1526 1.351 . S
C1527 C1528 1.434 . S
C1528 C1519 1.429 . S
C1528 N1525 1.350 . S
C1528 C1527 1.434 . S
C1529 C1530 1.369 . S
C1529 C1531 1.419 . S
C1529 H1533 0.930 . S
C1530 C1529 1.369 . S
C1530 C1539 1.429 . S
C1531 C1529 1.419 . S
C1531 C1532 1.363 . S
C1531 H1534 0.929 . S
C1532 C1531 1.363 . S
C1532 C1538 1.428 . S
H1533 C1529 0.930 . S
H1534 C1531 0.929 . S
S1535 N1536 1.613 . S
S1535 N1537 1.610 1_554 S
N1536 S1535 1.613 . S
N1536 C1539 1.350 . S
N1537 S1535 1.610 1_556 S
N1537 C1538 1.351 1_556 S
C1538 C1532 1.428 . S
C1538 N1537 1.351 1_554 S
C1538 C1539 1.434 . S
C1539 C1530 1.429 . S
C1539 N1536 1.350 . S
C1539 C1538 1.434 . S
C1540 C1541 1.369 . S
C1540 C1542 1.419 . S
C1540 H1544 0.930 . S
C1541 C1540 1.369 . S
C1541 C1550 1.429 . S
C1542 C1540 1.419 . S
C1542 C1543 1.363 . S
C1542 H1545 0.929 . S
C1543 C1542 1.363 . S
C1543 C1549 1.428 . S
H1544 C1540 0.930 . S
H1545 C1542 0.929 . S
S1546 N1547 1.613 . S
S1546 N1548 1.610 . S
N1547 S1546 1.613 . S
N1547 C1550 1.350 . S
N1548 S1546 1.610 . S
N1548 C1549 1.351 . S
C1549 C1543 1.428 . S
C1549 N1548 1.351 . S
C1549 C1550 1.434 . S
C1550 C1541 1.429 . S
C1550 N1547 1.350 . S
C1550 C1549 1.434 . S
C1551 C1552 1.369 . S
C1551 C1553 1.419 . S
C1551 H1555 0.930 . S
C1552 C1551 1.369 . S
C1552 C1561 1.429 . S
C1553 C1551 1.419 . S
C1553 C1554 1.363 . S
C1553 H1556 0.929 . S
C1554 C1553 1.363 . S
C1554 C1560 1.428 . S
H1555 C1551 0.930 . S
H1556 C1553 0.929 . S
S1557 N1558 1.613 . S
S1557 N1559 1.610 . S
N1558 S1557 1.613 . S
N1558 C1561 1.350 . S
N1559 S1557 1.610 . S
N1559 C1560 1.351 . S
C1560 C1554 1.428 . S
C1560 N1559 1.351 . S
C1560 C1561 1.434 . S
C1561 C1552 1.429 . S
C1561 N1558 1.350 . S
C1561 C1560 1.434 . S
C1562 C1563 1.369 . S
C1562 C1564 1.419 . S
C1562 H1566 0.934 . S
C1563 C1562 1.369 . S
C1563 C1572 1.429 . S
C1564 C1562 1.419 . S
C1564 C1565 1.363 . S
C1564 H1567 0.929 . S
C1565 C1564 1.363 . S
C1565 C1571 1.428 . S
H1566 C1562 0.934 . S
H1567 C1564 0.929 . S
S1568 N1569 1.613 . S
S1568 N1570 1.610 . S
N1569 S1568 1.613 . S
N1569 C1572 1.350 . S
N1570 S1568 1.610 . S
N1570 C1571 1.351 . S
C1571 C1565 1.428 . S
C1571 N1570 1.351 . S
C1571 C1572 1.434 . S
C1572 C1563 1.429 . S
C1572 N1569 1.350 . S
C1572 C1571 1.434 . S
C1573 C1574 1.369 . S
C1573 C1575 1.426 . S
C1573 H1577 0.930 . S
C1574 C1573 1.369 . S
C1574 C1583 1.429 1_455 S
C1575 C1573 1.426 . S
C1575 C1576 1.355 1_455 S
C1575 H1578 0.930 1_556 S
C1576 C1575 1.355 1_655 S
C1576 C1582 1.428 . S
H1577 C1573 0.930 . S
H1578 C1575 0.930 1_554 S
S1579 N1580 1.613 . S
S1579 N1581 1.610 . S
N1580 S1579 1.613 . S
N1580 C1583 1.350 . S
N1581 S1579 1.610 . S
N1581 C1582 1.351 . S
C1582 C1576 1.428 . S
C1582 N1581 1.351 . S
C1582 C1583 1.434 . S
C1583 C1574 1.429 1_655 S
C1583 N1580 1.350 . S
C1583 C1582 1.434 . S
C1584 C1585 1.369 . S
C1584 C1586 1.419 . S
C1584 H1588 0.930 . S
C1585 C1584 1.369 . S
C1585 C1594 1.429 . S
C1586 C1584 1.419 . S
C1586 C1587 1.363 . S
C1586 H1589 0.929 . S
C1587 C1586 1.363 . S
C1587 C1593 1.428 . S
H1588 C1584 0.930 . S
H1589 C1586 0.929 . S
S1590 N1591 1.613 . S
S1590 N1592 1.610 . S
N1591 S1590 1.613 . S
N1591 C1594 1.350 . S
N1592 S1590 1.610 . S
N1592 C1593 1.351 . S
C1593 C1587 1.428 . S
C1593 N1592 1.351 . S
C1593 C1594 1.434 . S
C1594 C1585 1.429 . S
C1594 N1591 1.350 . S
C1594 C1593 1.434 . S
C1595 C1596 1.369 . S
C1595 C1597 1.419 . S
C1595 H1599 0.930 . S
C1596 C1595 1.369 . S
C1596 C1605 1.429 . S
C1597 C1595 1.419 . S
C1597 C1598 1.363 . S
C1597 H1600 0.929 . S
C1598 C1597 1.363 . S
C1598 C1604 1.428 . S
H1599 C1595 0.930 . S
H1600 C1597 0.929 . S
S1601 N1602 1.613 . S
S1601 N1603 1.610 . S
N1602 S1601 1.613 . S
N1602 C1605 1.350 . S
N1603 S1601 1.610 . S
N1603 C1604 1.351 . S
C1604 C1598 1.428 . S
C1604 N1603 1.351 . S
C1604 C1605 1.434 . S
C1605 C1596 1.429 . S
C1605 N1602 1.350 . S
C1605 C1604 1.434 . S
C1606 C1607 1.369 . S
C1606 C1608 1.419 . S
C1606 H1610 0.930 . S
C1607 C1606 1.369 . S
C1607 C1616 1.429 . S
C1608 C1606 1.419 . S
C1608 C1609 1.363 . S
C1608 H1611 0.929 . S
C1609 C1608 1.363 . S
C1609 C1615 1.428 . S
H1610 C1606 0.930 . S
H1611 C1608 0.929 . S
S1612 N1613 1.613 . S
S1612 N1614 1.610 . S
N1613 S1612 1.613 . S
N1613 C1616 1.350 . S
N1614 S1612 1.610 . S
N1614 C1615 1.351 . S
C1615 C1609 1.428 . S
C1615 N1614 1.351 . S
C1615 C1616 1.434 . S
C1616 C1607 1.429 . S
C1616 N1613 1.350 . S
C1616 C1615 1.434 . S
C1617 C1618 1.369 . S
C1617 C1619 1.419 1_655 S
C1617 H1621 0.930 . S
C1618 C1617 1.369 . S
C1618 C1627 1.429 . S
C1619 C1617 1.419 1_455 S
C1619 C1620 1.363 . S
C1619 H1622 0.929 . S
C1620 C1619 1.363 . S
C1620 C1626 1.428 . S
H1621 C1617 0.930 . S
H1622 C1619 0.929 . S
S1623 N1624 1.613 1_455 S
S1623 N1625 1.610 . S
N1624 S1623 1.613 1_655 S
N1624 C1627 1.350 . S
N1625 S1623 1.610 . S
N1625 C1626 1.351 . S
C1626 C1620 1.428 . S
C1626 N1625 1.351 . S
C1626 C1627 1.434 1_455 S
C1627 C1618 1.429 . S
C1627 N1624 1.350 . S
C1627 C1626 1.434 1_655 S
C1628 C1629 1.369 . S
C1628 C1630 1.419 . S
C1628 H1632 0.930 . S
C1629 C1628 1.369 . S
C1629 C1638 1.429 . S
C1630 C1628 1.419 . S
C1630 C1631 1.363 . S
C1630 H1633 0.929 . S
C1631 C1630 1.363 . S
C1631 C1637 1.428 . S
H1632 C1628 0.930 . S
H1633 C1630 0.929 . S
S1634 N1635 1.613 . S
S1634 N1636 1.610 . S
N1635 S1634 1.613 . S
N1635 C1638 1.350 . S
N1636 S1634 1.610 . S
N1636 C1637 1.351 . S
C1637 C1631 1.428 . S
C1637 N1636 1.351 . S
C1637 C1638 1.434 . S
C1638 C1629 1.429 . S
C1638 N1635 1.350 . S
C1638 C1637 1.434 . S
C1639 C1640 1.369 . S
C1639 C1641 1.419 1_655 S
C1639 H1643 0.930 . S
C1640 C1639 1.369 . S
C1640 C1649 1.429 . S
C1641 C1639 1.419 1_455 S
C1641 C1642 1.363 . S
C1641 H1644 0.929 . S
C1642 C1641 1.363 . S
C1642 C1648 1.428 . S
H1643 C1639 0.930 . S
H1644 C1641 0.929 . S
S1645 N1646 1.613 1_455 S
S1645 N1647 1.610 1_556 S
N1646 S1645 1.613 1_655 S
N1646 C1649 1.350 1_556 S
N1647 S1645 1.610 1_554 S
N1647 C1648 1.351 . S
C1648 C1642 1.428 . S
C1648 N1647 1.351 . S
C1648 C1649 1.434 1_455 S
C1649 C1640 1.429 . S
C1649 N1646 1.350 1_554 S
C1649 C1648 1.434 1_655 S
C1650 C1651 1.369 . S
C1650 C1652 1.419 . S
C1650 H1654 0.930 . S
C1651 C1650 1.369 . S
C1651 C1660 1.429 . S
C1652 C1650 1.419 . S
C1652 C1653 1.363 . S
C1652 H1655 0.929 . S
C1653 C1652 1.363 . S
C1653 C1659 1.428 . S
H1654 C1650 0.930 . S
H1655 C1652 0.929 . S
S1656 N1657 1.613 . S
S1656 N1658 1.610 . S
N1657 S1656 1.613 . S
N1657 C1660 1.350 . S
N1658 S1656 1.610 . S
N1658 C1659 1.351 . S
C1659 C1653 1.428 . S
C1659 N1658 1.351 . S
C1659 C1660 1.434 . S
C1660 C1651 1.429 . S
C1660 N1657 1.350 . S
C1660 C1659 1.434 . S
C1661 C1662 1.369 . S
C1661 C1663 1.419 . S
C1661 H1665 0.930 . S
C1662 C1661 1.369 . S
C1662 C1671 1.429 . S
C1663 C1661 1.419 . S
C1663 C1664 1.363 . S
C1663 H1666 0.929 . S
C1664 C1663 1.363 . S
C1664 C1670 1.428 . S
H1665 C1661 0.930 . S
H1666 C1663 0.929 . S
S1667 N1668 1.613 . S
S1667 N1669 1.610 . S
N1668 S1667 1.613 . S
N1668 C1671 1.350 . S
N1669 S1667 1.610 . S
N1669 C1670 1.351 . S
C1670 C1664 1.428 . S
C1670 N1669 1.351 . S
C1670 C1671 1.434 . S
C1671 C1662 1.429 . S
C1671 N1668 1.350 . S
C1671 C1670 1.434 . S
C1672 C1673 1.369 . S
C1672 C1674 1.419 . S
C1672 H1676 0.930 . S
C1673 C1672 1.369 . S
C1673 C1682 1.429 . S
C1674 C1672 1.419 . S
C1674 C1675 1.363 . S
C1674 H1677 0.929 . S
C1675 C1674 1.363 . S
C1675 C1681 1.428 . S
H1676 C1672 0.930 . S
H1677 C1674 0.929 . S
S1678 N1679 1.613 . S
S1678 N1680 1.610 . S
N1679 S1678 1.613 . S
N1679 C1682 1.350 . S
N1680 S1678 1.610 . S
N1680 C1681 1.351 . S
C1681 C1675 1.428 . S
C1681 N1680 1.351 . S
C1681 C1682 1.434 . S
C1682 C1673 1.429 . S
C1682 N1679 1.350 . S
C1682 C1681 1.434 . S
C1683 C1684 1.369 . S
C1683 C1685 1.419 . S
C1683 H1687 0.930 . S
C1684 C1683 1.369 . S
C1684 C1693 1.429 . S
C1685 C1683 1.419 . S
C1685 C1686 1.363 . S
C1685 H1688 0.929 . S
C1686 C1685 1.363 . S
C1686 C1692 1.428 . S
H1687 C1683 0.930 . S
H1688 C1685 0.929 . S
S1689 N1690 1.613 . S
S1689 N1691 1.610 1_556 S
N1690 S1689 1.613 . S
N1690 C1693 1.350 1_556 S
N1691 S1689 1.610 1_554 S
N1691 C1692 1.351 . S
C1692 C1686 1.428 . S
C1692 N1691 1.351 . S
C1692 C1693 1.434 . S
C1693 C1684 1.429 . S
C1693 N1690 1.350 1_554 S
C1693 C1692 1.434 . S
C1694 C1695 1.369 . S
C1694 C1696 1.419 . S
C1694 H1698 0.930 . S
C1695 C1694 1.369 . S
C1695 C1704 1.429 . S
C1696 C1694 1.419 . S
C1696 C1697 1.363 . S
C1696 H1699 0.929 . S
C1697 C1696 1.363 . S
C1697 C1703 1.428 . S
H1698 C1694 0.930 . S
H1699 C1696 0.929 . S
S1700 N1701 1.613 . S
S1700 N1702 1.610 . S
N1701 S1700 1.613 . S
N1701 C1704 1.350 . S
N1702 S1700 1.610 . S
N1702 C1703 1.351 . S
C1703 C1697 1.428 . S
C1703 N1702 1.351 . S
C1703 C1704 1.434 . S
C1704 C1695 1.429 . S
C1704 N1701 1.350 . S
C1704 C1703 1.434 . S
C1705 C1706 1.401 . S
C1705 C1707 1.387 1_655 S
C1705 H1709 0.930 . S
C1706 C1705 1.401 . S
C1706 C1715 1.429 . S
C1707 C1705 1.387 1_455 S
C1707 C1708 1.363 . S
C1707 H1710 0.929 . S
C1708 C1707 1.363 . S
C1708 C1714 1.461 . S
H1709 C1705 0.930 . S
H1710 C1707 0.929 . S
S1711 N1712 1.613 . S
S1711 N1713 1.610 . S
N1712 S1711 1.613 . S
N1712 C1715 1.350 . S
N1713 S1711 1.610 . S
N1713 C1714 1.347 1_655 S
C1714 C1708 1.461 . S
C1714 N1713 1.347 1_455 S
C1714 C1715 1.401 1_455 S
C1715 C1706 1.429 . S
C1715 N1712 1.350 . S
C1715 C1714 1.401 1_655 S
C1716 C1717 1.369 . S
C1716 C1718 1.419 . S
C1716 H1720 0.930 . S
C1717 C1716 1.369 . S
C1717 C1726 1.429 . S
C1718 C1716 1.419 . S
C1718 C1719 1.363 . S
C1718 H1721 0.929 . S
C1719 C1718 1.363 . S
C1719 C1725 1.428 . S
H1720 C1716 0.930 . S
H1721 C1718 0.929 . S
S1722 N1723 1.613 . S
S1722 N1724 1.610 . S
N1723 S1722 1.613 . S
N1723 C1726 1.350 . S
N1724 S1722 1.610 . S
N1724 C1725 1.351 . S
C1725 C1719 1.428 . S
C1725 N1724 1.351 . S
C1725 C1726 1.434 . S
C1726 C1717 1.429 . S
C1726 N1723 1.350 . S
C1726 C1725 1.434 . S
C1727 C1728 1.369 . S
C1727 C1729 1.419 1_455 S
C1727 H1731 0.930 . S
C1728 C1727 1.369 . S
C1728 C1737 1.429 . S
C1729 C1727 1.419 1_655 S
C1729 C1730 1.363 . S
C1729 H1732 0.929 . S
C1730 C1729 1.363 . S
C1730 C1736 1.428 . S
H1731 C1727 0.930 . S
H1732 C1729 0.929 . S
S1733 N1734 1.613 . S
S1733 N1735 1.610 1_455 S
N1734 S1733 1.613 . S
N1734 C1737 1.350 . S
N1735 S1733 1.610 1_655 S
N1735 C1736 1.351 . S
C1736 C1730 1.428 . S
C1736 N1735 1.351 . S
C1736 C1737 1.434 1_655 S
C1737 C1728 1.429 . S
C1737 N1734 1.350 . S
C1737 C1736 1.434 1_455 S
C1738 C1739 1.369 . S
C1738 C1740 1.419 . S
C1738 H1742 0.930 . S
C1739 C1738 1.369 . S
C1739 C1748 1.429 . S
C1740 C1738 1.419 . S
C1740 C1741 1.363 . S
C1740 H1743 0.929 . S
C1741 C1740 1.363 . S
C1741 C1747 1.428 . S
H1742 C1738 0.930 . S
H1743 C1740 0.929 . S
S1744 N1745 1.613 . S
S1744 N1746 1.610 . S
N1745 S1744 1.613 . S
N1745 C1748 1.350 . S
N1746 S1744 1.610 . S
N1746 C1747 1.351 . S
C1747 C1741 1.428 . S
C1747 N1746 1.351 . S
C1747 C1748 1.434 . S
C1748 C1739 1.429 . S
C1748 N1745 1.350 . S
C1748 C1747 1.434 . S
C1749 C1750 1.369 . S
C1749 C1751 1.419 . S
C1749 H1753 0.930 . S
C1750 C1749 1.369 . S
C1750 C1759 1.429 . S
C1751 C1749 1.419 . S
C1751 C1752 1.363 . S
C1751 H1754 0.929 . S
C1752 C1751 1.363 . S
C1752 C1758 1.428 . S
H1753 C1749 0.930 . S
H1754 C1751 0.929 . S
S1755 N1756 1.613 . S
S1755 N1757 1.610 . S
N1756 S1755 1.613 . S
N1756 C1759 1.350 . S
N1757 S1755 1.610 . S
N1757 C1758 1.351 . S
C1758 C1752 1.428 . S
C1758 N1757 1.351 . S
C1758 C1759 1.434 . S
C1759 C1750 1.429 . S
C1759 N1756 1.350 . S
C1759 C1758 1.434 . S
C1760 C1761 1.369 . S
C1760 C1762 1.419 . S
C1760 H1764 0.930 . S
C1761 C1760 1.369 . S
C1761 C1770 1.429 . S
C1762 C1760 1.419 . S
C1762 C1763 1.363 . S
C1762 H1765 0.929 . S
C1763 C1762 1.363 . S
C1763 C1769 1.428 . S
H1764 C1760 0.930 . S
H1765 C1762 0.929 . S
S1766 N1767 1.613 . S
S1766 N1768 1.610 . S
N1767 S1766 1.613 . S
N1767 C1770 1.350 . S
N1768 S1766 1.610 . S
N1768 C1769 1.351 . S
C1769 C1763 1.428 . S
C1769 N1768 1.351 . S
C1769 C1770 1.434 . S
C1770 C1761 1.429 . S
C1770 N1767 1.350 . S
C1770 C1769 1.434 . S
C1771 C1772 1.369 . S
C1771 C1773 1.419 . S
C1771 H1775 0.930 . S
C1772 C1771 1.369 . S
C1772 C1781 1.429 . S
C1773 C1771 1.419 . S
C1773 C1774 1.363 . S
C1773 H1776 0.929 . S
C1774 C1773 1.363 . S
C1774 C1780 1.428 . S
H1775 C1771 0.930 . S
H1776 C1773 0.929 . S
S1777 N1778 1.613 . S
S1777 N1779 1.610 . S
N1778 S1777 1.613 . S
N1778 C1781 1.350 . S
N1779 S1777 1.610 . S
N1779 C1780 1.351 . S
C1780 C1774 1.428 . S
C1780 N1779 1.351 . S
C1780 C1781 1.434 . S
C1781 C1772 1.429 . S
C1781 N1778 1.350 . S
C1781 C1780 1.434 . S
C1782 C1783 1.369 . S
C1782 C1784 1.419 . S
C1782 H1786 0.930 . S
C1783 C1782 1.369 . S
C1783 C1792 1.429 . S
C1784 C1782 1.419 . S
C1784 C1785 1.363 . S
C1784 H1787 0.929 . S
C1785 C1784 1.363 . S
C1785 C1791 1.428 . S
H1786 C1782 0.930 . S
H1787 C1784 0.929 . S
S1788 N1789 1.613 . S
S1788 N1790 1.610 . S
N1789 S1788 1.613 . S
N1789 C1792 1.350 . S
N1790 S1788 1.610 . S
N1790 C1791 1.351 . S
C1791 C1785 1.428 . S
C1791 N1790 1.351 . S
C1791 C1792 1.434 . S
C1792 C1783 1.429 . S
C1792 N1789 1.350 . S
C1792 C1791 1.434 . S
C1793 C1794 1.369 . S
C1793 C1795 1.419 . S
C1793 H1797 0.930 . S
C1794 C1793 1.369 . S
C1794 C1803 1.429 . S
C1795 C1793 1.419 . S
C1795 C1796 1.363 . S
C1795 H1798 0.929 . S
C1796 C1795 1.363 . S
C1796 C1802 1.428 . S
H1797 C1793 0.930 . S
H1798 C1795 0.929 . S
S1799 N1800 1.616 . S
S1799 N1801 1.610 . S
N1800 S1799 1.616 . S
N1800 C1803 1.357 . S
N1801 S1799 1.610 . S
N1801 C1802 1.351 . S
C1802 C1796 1.428 . S
C1802 N1801 1.351 . S
C1802 C1803 1.434 . S
C1803 C1794 1.429 . S
C1803 N1800 1.357 . S
C1803 C1802 1.434 . S
C1804 C1805 1.369 . S
C1804 C1806 1.419 . S
C1804 H1808 0.930 . S
C1805 C1804 1.369 . S
C1805 C1814 1.429 . S
C1806 C1804 1.419 . S
C1806 C1807 1.363 . S
C1806 H1809 0.929 . S
C1807 C1806 1.363 . S
C1807 C1813 1.428 . S
H1808 C1804 0.930 . S
H1809 C1806 0.929 . S
S1810 N1811 1.613 . S
S1810 N1812 1.610 . S
N1811 S1810 1.613 . S
N1811 C1814 1.350 . S
N1812 S1810 1.610 . S
N1812 C1813 1.351 . S
C1813 C1807 1.428 . S
C1813 N1812 1.351 . S
C1813 C1814 1.434 . S
C1814 C1805 1.429 . S
C1814 N1811 1.350 . S
C1814 C1813 1.434 . S
C1815 C1816 1.369 . S
C1815 C1817 1.419 . S
C1815 H1819 0.930 . S
C1816 C1815 1.369 . S
C1816 C1825 1.429 . S
C1817 C1815 1.419 . S
C1817 C1818 1.363 . S
C1817 H1820 0.929 . S
C1818 C1817 1.363 . S
C1818 C1824 1.428 . S
H1819 C1815 0.930 . S
H1820 C1817 0.929 . S
S1821 N1822 1.613 . S
S1821 N1823 1.610 . S
N1822 S1821 1.613 . S
N1822 C1825 1.350 . S
N1823 S1821 1.610 . S
N1823 C1824 1.351 . S
C1824 C1818 1.428 . S
C1824 N1823 1.351 . S
C1824 C1825 1.434 . S
C1825 C1816 1.429 . S
C1825 N1822 1.350 . S
C1825 C1824 1.434 . S
C1826 C1827 1.369 . S
C1826 C1828 1.419 . S
C1826 H1830 0.930 . S
C1827 C1826 1.369 . S
C1827 C1836 1.429 . S
C1828 C1826 1.419 . S
C1828 C1829 1.363 . S
C1828 H1831 0.929 . S
C1829 C1828 1.363 . S
C1829 C1835 1.428 . S
H1830 C1826 0.930 . S
H1831 C1828 0.929 . S
S1832 N1833 1.613 . S
S1832 N1834 1.610 . S
N1833 S1832 1.613 . S
N1833 C1836 1.350 . S
N1834 S1832 1.610 . S
N1834 C1835 1.351 . S
C1835 C1829 1.428 . S
C1835 N1834 1.351 . S
C1835 C1836 1.434 . S
C1836 C1827 1.429 . S
C1836 N1833 1.350 . S
C1836 C1835 1.434 . S
C1837 C1838 1.369 . S
C1837 C1839 1.419 . S
C1837 H1841 0.930 . S
C1838 C1837 1.369 . S
C1838 C1847 1.429 . S
C1839 C1837 1.419 . S
C1839 C1840 1.363 . S
C1839 H1842 0.929 . S
C1840 C1839 1.363 . S
C1840 C1846 1.428 . S
H1841 C1837 0.930 . S
H1842 C1839 0.929 . S
S1843 N1844 1.613 . S
S1843 N1845 1.610 . S
N1844 S1843 1.613 . S
N1844 C1847 1.350 . S
N1845 S1843 1.610 . S
N1845 C1846 1.351 . S
C1846 C1840 1.428 . S
C1846 N1845 1.351 . S
C1846 C1847 1.434 . S
C1847 C1838 1.429 . S
C1847 N1844 1.350 . S
C1847 C1846 1.434 . S
C1848 C1849 1.369 . S
C1848 C1850 1.419 . S
C1848 H1852 0.930 . S
C1849 C1848 1.369 . S
C1849 C1858 1.429 . S
C1850 C1848 1.419 . S
C1850 C1851 1.363 . S
C1850 H1853 0.929 . S
C1851 C1850 1.363 . S
C1851 C1857 1.428 . S
H1852 C1848 0.930 . S
H1853 C1850 0.929 . S
S1854 N1855 1.613 . S
S1854 N1856 1.610 . S
N1855 S1854 1.613 . S
N1855 C1858 1.350 . S
N1856 S1854 1.610 . S
N1856 C1857 1.351 . S
C1857 C1851 1.428 . S
C1857 N1856 1.351 . S
C1857 C1858 1.434 . S
C1858 C1849 1.429 . S
C1858 N1855 1.350 . S
C1858 C1857 1.434 . S
C1859 C1860 1.369 . S
C1859 C1861 1.419 . S
C1859 H1863 0.930 . S
C1860 C1859 1.369 . S
C1860 C1869 1.429 . S
C1861 C1859 1.419 . S
C1861 C1862 1.363 . S
C1861 H1864 0.929 . S
C1862 C1861 1.363 . S
C1862 C1868 1.428 . S
H1863 C1859 0.930 . S
H1864 C1861 0.929 . S
S1865 N1866 1.613 . S
S1865 N1867 1.610 . S
N1866 S1865 1.613 . S
N1866 C1869 1.350 . S
N1867 S1865 1.610 . S
N1867 C1868 1.351 . S
C1868 C1862 1.428 . S
C1868 N1867 1.351 . S
C1868 C1869 1.434 . S
C1869 C1860 1.429 . S
C1869 N1866 1.350 . S
C1869 C1868 1.434 . S
C1870 C1871 1.369 . S
C1870 C1872 1.419 . S
C1870 H1874 0.930 1_554 S
C1871 C1870 1.369 . S
C1871 C1880 1.429 . S
C1872 C1870 1.419 . S
C1872 C1873 1.363 . S
C1872 H1875 0.929 . S
C1873 C1872 1.363 . S
C1873 C1879 1.428 . S
H1874 C1870 0.930 1_556 S
H1875 C1872 0.929 . S
S1876 N1877 1.613 . S
S1876 N1878 1.610 . S
N1877 S1876 1.613 . S
N1877 C1880 1.350 . S
N1878 S1876 1.610 . S
N1878 C1879 1.351 . S
C1879 C1873 1.428 . S
C1879 N1878 1.351 . S
C1879 C1880 1.434 . S
C1880 C1871 1.429 . S
C1880 N1877 1.350 . S
C1880 C1879 1.434 . S
C1881 C1882 1.369 . S
C1881 C1883 1.419 . S
C1881 H1885 0.930 . S
C1882 C1881 1.369 . S
C1882 C1891 1.429 . S
C1883 C1881 1.419 . S
C1883 C1884 1.363 . S
C1883 H1886 0.929 . S
C1884 C1883 1.363 . S
C1884 C1890 1.428 . S
H1885 C1881 0.930 . S
H1886 C1883 0.929 . S
S1887 N1888 1.613 . S
S1887 N1889 1.610 . S
N1888 S1887 1.613 . S
N1888 C1891 1.350 . S
N1889 S1887 1.610 . S
N1889 C1890 1.351 . S
C1890 C1884 1.428 . S
C1890 N1889 1.351 . S
C1890 C1891 1.434 . S
C1891 C1882 1.429 . S
C1891 N1888 1.350 . S
C1891 C1890 1.434 . S
C1892 C1893 1.369 . S
C1892 C1894 1.419 . S
C1892 H1896 0.930 . S
C1893 C1892 1.369 . S
C1893 C1902 1.429 . S
C1894 C1892 1.419 . S
C1894 C1895 1.363 . S
C1894 H1897 0.929 . S
C1895 C1894 1.363 . S
C1895 C1901 1.428 . S
H1896 C1892 0.930 . S
H1897 C1894 0.929 . S
S1898 N1899 1.613 . S
S1898 N1900 1.610 . S
N1899 S1898 1.613 . S
N1899 C1902 1.350 . S
N1900 S1898 1.610 . S
N1900 C1901 1.351 . S
C1901 C1895 1.428 . S
C1901 N1900 1.351 . S
C1901 C1902 1.434 . S
C1902 C1893 1.429 . S
C1902 N1899 1.350 . S
C1902 C1901 1.434 . S
C1903 C1904 1.369 . S
C1903 C1905 1.419 . S
C1903 H1907 0.930 . S
C1904 C1903 1.369 . S
C1904 C1913 1.429 . S
C1905 C1903 1.419 . S
C1905 C1906 1.363 . S
C1905 H1908 0.929 . S
C1906 C1905 1.363 . S
C1906 C1912 1.428 . S
H1907 C1903 0.930 . S
H1908 C1905 0.929 . S
S1909 N1910 1.613 1_556 S
S1909 N1911 1.610 . S
N1910 S1909 1.613 1_554 S
N1910 C1913 1.350 . S
N1911 S1909 1.610 . S
N1911 C1912 1.351 1_556 S
C1912 C1906 1.428 . S
C1912 N1911 1.351 1_554 S
C1912 C1913 1.434 . S
C1913 C1904 1.429 . S
C1913 N1910 1.350 . S
C1913 C1912 1.434 . S
C1914 C1915 1.369 . S
C1914 C1916 1.419 . S
C1914 H1918 0.930 . S
C1915 C1914 1.369 . S
C1915 C1924 1.429 . S
C1916 C1914 1.419 . S
C1916 C1917 1.363 . S
C1916 H1919 0.929 . S
C1917 C1916 1.363 . S
C1917 C1923 1.428 . S
H1918 C1914 0.930 . S
H1919 C1916 0.929 . S
S1920 N1921 1.613 . S
S1920 N1922 1.610 . S
N1921 S1920 1.613 . S
N1921 C1924 1.350 . S
N1922 S1920 1.610 . S
N1922 C1923 1.351 . S
C1923 C1917 1.428 . S
C1923 N1922 1.351 . S
C1923 C1924 1.434 . S
C1924 C1915 1.429 . S
C1924 N1921 1.350 . S
C1924 C1923 1.434 . S
C1925 C1926 1.369 . S
C1925 C1927 1.419 . S
C1925 H1929 0.930 . S
C1926 C1925 1.369 . S
C1926 C1935 1.429 . S
C1927 C1925 1.419 . S
C1927 C1928 1.363 . S
C1927 H1930 0.929 . S
C1928 C1927 1.363 . S
C1928 C1934 1.428 . S
H1929 C1925 0.930 . S
H1930 C1927 0.929 . S
S1931 N1932 1.613 . S
S1931 N1933 1.610 . S
N1932 S1931 1.613 . S
N1932 C1935 1.350 . S
N1933 S1931 1.610 . S
N1933 C1934 1.351 . S
C1934 C1928 1.428 . S
C1934 N1933 1.351 . S
C1934 C1935 1.434 . S
C1935 C1926 1.429 . S
C1935 N1932 1.350 . S
C1935 C1934 1.434 . S
C1057 N244 0.585 . S
C1059 N13 0.586 . S
C1068 N46 0.592 . S
C1070 N145 0.597 . S
C1079 N178 0.601 . S
C1081 N79 0.596 . S
C1090 N112 0.585 . S
C1092 N211 0.591 . S
C1101 C282 1.750 . S
C1103 C513 1.747 . S
C1112 C414 1.749 1_554 S
C1114 C315 1.750 . S
C1123 C447 1.747 . S
C1125 C348 1.747 1_556 S
C1134 C480 1.747 . S
C1136 C381 1.747 . S
C1145 N541 0.592 . S
C1147 N772 0.587 . S
C1156 N574 0.584 . S
C1158 N673 0.588 . S
C1167 N706 0.585 . S
C1169 N607 0.592 . S
C1178 N640 0.584 . S
C1180 N739 0.590 . S
C1189 C1041 1.751 . S
C1191 C810 1.748 1_556 S
C1200 C843 1.750 . S
C1202 C942 1.750 . S
C1211 C975 1.747 . S
C1213 C876 1.749 . S
C1222 C909 1.749 . S
C1224 C1008 1.750 1_554 S
C1233 C21 1.409 . S
C1235 C219 1.410 . S
C1244 C54 1.406 . S
C1246 C252 1.411 . S
C1255 C153 1.411 . S
C1257 C87 1.405 . S
C1266 C120 1.409 . S
C1268 C186 1.405 . S
C1277 C483 1.420 . S
C1279 C285 1.414 . S
C1288 C318 1.415 . S
C1290 C516 1.413 . S
C1299 C351 1.420 . S
C1301 C417 1.413 . S
C1310 C450 1.411 . S
C1312 C384 1.418 . S
C1321 C549 1.412 . S
C1323 C747 1.408 . S
C1332 C582 1.411 . S
C1334 C780 1.404 . S
C1343 C681 1.411 . S
C1345 C615 1.405 . S
C1354 C648 1.409 . S
C1356 C714 1.405 . S
C1365 C1011 1.413 . S
C1367 C813 1.419 . S
C1376 C1044 1.413 . S
C1378 C846 1.419 . S
C1387 C945 1.412 . S
C1389 C879 1.419 . S
C1398 C912 1.420 . S
C1400 C978 1.416 . S
C1409 N2 0.864 . S
C1411 N992 0.889 . S
C1420 N497 0.888 . S
C1422 N35 0.870 . S
C1431 N68 0.867 . S
C1433 N926 0.892 . S
C1442 N101 0.879 . S
C1444 N431 0.893 . S
C1453 N860 0.890 . S
C1455 N134 0.875 . S
C1464 N167 0.873 . S
C1466 N365 0.889 . S
C1475 N200 0.862 . S
C1477 N794 0.890 . S
C1486 N233 0.863 . S
C1488 N299 0.889 . S
C1497 C733 2.149 1_556 S
C1499 C271 2.195 . S
C1508 C238 2.147 . S
C1510 C304 2.193 . S
C1519 C337 2.194 . S
C1521 C667 2.151 . S
C1530 C172 2.152 . S
C1532 C370 2.195 1_554 S
C1541 C403 2.195 . S
C1543 C601 2.149 . S
C1552 C436 2.195 . S
C1554 C106 2.149 . S
C1563 C535 2.150 1_554 S
C1565 C469 2.193 . S
C1574 C40 2.149 . S
C1576 C502 2.195 1_556 S
C1585 N464 0.891 . S
C1587 N530 0.877 . S
C1596 N563 0.878 . S
C1598 N1025 0.891 . S
C1607 N596 0.863 . S
C1609 N398 0.891 . S
C1618 N629 0.869 . S
C1620 N959 0.889 . S
C1629 N332 0.894 . S
C1631 N662 0.873 . S
C1640 N695 0.864 . S
C1642 N893 0.889 . S
C1651 N728 0.867 . S
C1653 N266 0.892 . S
C1662 N761 0.879 . S
C1664 N827 0.891 . S
C1673 C799 2.193 . S
C1675 C205 2.150 . S
C1684 C832 2.193 1_554 S
C1686 C766 2.150 . S
C1695 C865 2.196 . S
C1697 C139 2.151 1_556 S
C1706 C700 2.149 . S
C1708 C898 2.193 . S
C1717 C73 2.150 1_554 S
C1719 C931 2.195 . S
C1728 C964 2.194 1_556 S
C1730 C634 2.147 . S
C1739 C997 2.195 . S
C1741 C7 2.149 . S
C1750 C568 2.147 . S
C1752 C1030 2.193 . S
C1761 C18 2.139 . S
C1763 C249 2.139 1_554 S
C1772 C51 2.137 . S
C1774 C150 2.138 . S
C1783 C84 2.139 . S
C1785 C183 2.138 . S
C1794 C117 2.138 1_556 S
C1796 C216 2.138 . S
C1805 N508 1.119 . S
C1807 N277 1.117 . S
C1816 N409 1.113 . S
C1818 N310 1.110 . S
C1827 N442 1.114 . S
C1829 N343 1.110 . S
C1838 N475 1.119 . S
C1840 N376 1.118 . S
C1849 C777 2.138 . S
C1851 C546 2.138 . S
C1860 C678 2.139 . S
C1862 C579 2.138 1_556 S
C1871 C711 2.138 1_554 S
C1873 C612 2.139 . S
C1882 C645 2.138 . S
C1884 C744 2.138 . S
C1893 N805 1.109 . S
C1895 N1036 1.114 . S
C1904 N937 1.110 . S
C1906 N838 1.115 . S
C1915 N970 1.110 . S
C1917 N871 1.114 . S
C1926 N1003 1.109 . S
C1928 N904 1.113 . S
