# Generated by pormake.
# Topology fcp, (5)-cn, num edge types: 1
# Building blocks:
#     Node 0, Type 0, BuildingBlock: XOMCOT_clean_sbu_1, # of connection points: 5
#     Node 1, Type 0, BuildingBlock: XOMCOT_clean_sbu_1, # of connection points: 5
#     Node 2, Type 0, BuildingBlock: XOMCOT_clean_sbu_1, # of connection points: 5
#     Node 3, Type 0, BuildingBlock: XOMCOT_clean_sbu_1, # of connection points: 5
#     Node 4, Type 0, BuildingBlock: XOMCOT_clean_sbu_1, # of connection points: 5
#     Node 5, Type 0, BuildingBlock: XOMCOT_clean_sbu_1, # of connection points: 5
#     Node 6, Type 0, BuildingBlock: XOMCOT_clean_sbu_1, # of connection points: 5
#     Node 7, Type 0, BuildingBlock: XOMCOT_clean_sbu_1, # of connection points: 5
#     Node 8, Type 0, BuildingBlock: XOMCOT_clean_sbu_1, # of connection points: 5
#     Node 9, Type 0, BuildingBlock: XOMCOT_clean_sbu_1, # of connection points: 5
#     Node 10, Type 0, BuildingBlock: XOMCOT_clean_sbu_1, # of connection points: 5
#     Node 11, Type 0, BuildingBlock: XOMCOT_clean_sbu_1, # of connection points: 5
#     Node 12, Type 0, BuildingBlock: XOMCOT_clean_sbu_1, # of connection points: 5
#     Node 13, Type 0, BuildingBlock: XOMCOT_clean_sbu_1, # of connection points: 5
#     Node 14, Type 0, BuildingBlock: XOMCOT_clean_sbu_1, # of connection points: 5
#     Node 15, Type 0, BuildingBlock: XOMCOT_clean_sbu_1, # of connection points: 5
#     Node 16, Type 0, BuildingBlock: XOMCOT_clean_sbu_1, # of connection points: 5
#     Node 17, Type 0, BuildingBlock: XOMCOT_clean_sbu_1, # of connection points: 5
#     Node 18, Type 0, BuildingBlock: XOMCOT_clean_sbu_1, # of connection points: 5
#     Node 19, Type 0, BuildingBlock: XOMCOT_clean_sbu_1, # of connection points: 5
#     Node 20, Type 0, BuildingBlock: XOMCOT_clean_sbu_1, # of connection points: 5
#     Node 21, Type 0, BuildingBlock: XOMCOT_clean_sbu_1, # of connection points: 5
#     Node 22, Type 0, BuildingBlock: XOMCOT_clean_sbu_1, # of connection points: 5
#     Node 23, Type 0, BuildingBlock: XOMCOT_clean_sbu_1, # of connection points: 5
#     Edge 24, Type (0, 0), BuildingBlock: ZUJKAS_clean_linker_0, # of connection points: 2
#     Edge 25, Type (0, 0), BuildingBlock: ZUJKAS_clean_linker_0, # of connection points: 2
#     Edge 26, Type (0, 0), BuildingBlock: ZUJKAS_clean_linker_0, # of connection points: 2
#     Edge 27, Type (0, 0), BuildingBlock: ZUJKAS_clean_linker_0, # of connection points: 2
#     Edge 28, Type (0, 0), BuildingBlock: ZUJKAS_clean_linker_0, # of connection points: 2
#     Edge 29, Type (0, 0), BuildingBlock: ZUJKAS_clean_linker_0, # of connection points: 2
#     Edge 30, Type (0, 0), BuildingBlock: ZUJKAS_clean_linker_0, # of connection points: 2
#     Edge 31, Type (0, 0), BuildingBlock: ZUJKAS_clean_linker_0, # of connection points: 2
#     Edge 32, Type (0, 0), BuildingBlock: ZUJKAS_clean_linker_0, # of connection points: 2
#     Edge 33, Type (0, 0), BuildingBlock: ZUJKAS_clean_linker_0, # of connection points: 2
#     Edge 34, Type (0, 0), BuildingBlock: ZUJKAS_clean_linker_0, # of connection points: 2
#     Edge 35, Type (0, 0), BuildingBlock: ZUJKAS_clean_linker_0, # of connection points: 2
#     Edge 36, Type (0, 0), BuildingBlock: ZUJKAS_clean_linker_0, # of connection points: 2
#     Edge 37, Type (0, 0), BuildingBlock: ZUJKAS_clean_linker_0, # of connection points: 2
#     Edge 38, Type (0, 0), BuildingBlock: ZUJKAS_clean_linker_0, # of connection points: 2
#     Edge 39, Type (0, 0), BuildingBlock: ZUJKAS_clean_linker_0, # of connection points: 2
#     Edge 40, Type (0, 0), BuildingBlock: ZUJKAS_clean_linker_0, # of connection points: 2
#     Edge 41, Type (0, 0), BuildingBlock: ZUJKAS_clean_linker_0, # of connection points: 2
#     Edge 42, Type (0, 0), BuildingBlock: ZUJKAS_clean_linker_0, # of connection points: 2
#     Edge 43, Type (0, 0), BuildingBlock: ZUJKAS_clean_linker_0, # of connection points: 2
#     Edge 44, Type (0, 0), BuildingBlock: ZUJKAS_clean_linker_0, # of connection points: 2
#     Edge 45, Type (0, 0), BuildingBlock: ZUJKAS_clean_linker_0, # of connection points: 2
#     Edge 46, Type (0, 0), BuildingBlock: ZUJKAS_clean_linker_0, # of connection points: 2
#     Edge 47, Type (0, 0), BuildingBlock: ZUJKAS_clean_linker_0, # of connection points: 2
#     Edge 48, Type (0, 0), BuildingBlock: ZUJKAS_clean_linker_0, # of connection points: 2
#     Edge 49, Type (0, 0), BuildingBlock: ZUJKAS_clean_linker_0, # of connection points: 2
#     Edge 50, Type (0, 0), BuildingBlock: ZUJKAS_clean_linker_0, # of connection points: 2
#     Edge 51, Type (0, 0), BuildingBlock: ZUJKAS_clean_linker_0, # of connection points: 2
#     Edge 52, Type (0, 0), BuildingBlock: ZUJKAS_clean_linker_0, # of connection points: 2
#     Edge 53, Type (0, 0), BuildingBlock: ZUJKAS_clean_linker_0, # of connection points: 2
#     Edge 54, Type (0, 0), BuildingBlock: ZUJKAS_clean_linker_0, # of connection points: 2
#     Edge 55, Type (0, 0), BuildingBlock: ZUJKAS_clean_linker_0, # of connection points: 2
#     Edge 56, Type (0, 0), BuildingBlock: ZUJKAS_clean_linker_0, # of connection points: 2
#     Edge 57, Type (0, 0), BuildingBlock: ZUJKAS_clean_linker_0, # of connection points: 2
#     Edge 58, Type (0, 0), BuildingBlock: ZUJKAS_clean_linker_0, # of connection points: 2
#     Edge 59, Type (0, 0), BuildingBlock: ZUJKAS_clean_linker_0, # of connection points: 2
#     Edge 60, Type (0, 0), BuildingBlock: ZUJKAS_clean_linker_0, # of connection points: 2
#     Edge 61, Type (0, 0), BuildingBlock: ZUJKAS_clean_linker_0, # of connection points: 2
#     Edge 62, Type (0, 0), BuildingBlock: ZUJKAS_clean_linker_0, # of connection points: 2
#     Edge 63, Type (0, 0), BuildingBlock: ZUJKAS_clean_linker_0, # of connection points: 2
#     Edge 64, Type (0, 0), BuildingBlock: ZUJKAS_clean_linker_0, # of connection points: 2
#     Edge 65, Type (0, 0), BuildingBlock: ZUJKAS_clean_linker_0, # of connection points: 2
#     Edge 66, Type (0, 0), BuildingBlock: ZUJKAS_clean_linker_0, # of connection points: 2
#     Edge 67, Type (0, 0), BuildingBlock: ZUJKAS_clean_linker_0, # of connection points: 2
#     Edge 68, Type (0, 0), BuildingBlock: ZUJKAS_clean_linker_0, # of connection points: 2
#     Edge 69, Type (0, 0), BuildingBlock: ZUJKAS_clean_linker_0, # of connection points: 2
#     Edge 70, Type (0, 0), BuildingBlock: ZUJKAS_clean_linker_0, # of connection points: 2
#     Edge 71, Type (0, 0), BuildingBlock: ZUJKAS_clean_linker_0, # of connection points: 2
#     Edge 72, Type (0, 0), BuildingBlock: ZUJKAS_clean_linker_0, # of connection points: 2
#     Edge 73, Type (0, 0), BuildingBlock: ZUJKAS_clean_linker_0, # of connection points: 2
#     Edge 74, Type (0, 0), BuildingBlock: ZUJKAS_clean_linker_0, # of connection points: 2
#     Edge 75, Type (0, 0), BuildingBlock: ZUJKAS_clean_linker_0, # of connection points: 2
#     Edge 76, Type (0, 0), BuildingBlock: ZUJKAS_clean_linker_0, # of connection points: 2
#     Edge 77, Type (0, 0), BuildingBlock: ZUJKAS_clean_linker_0, # of connection points: 2
#     Edge 78, Type (0, 0), BuildingBlock: ZUJKAS_clean_linker_0, # of connection points: 2
#     Edge 79, Type (0, 0), BuildingBlock: ZUJKAS_clean_linker_0, # of connection points: 2
#     Edge 80, Type (0, 0), BuildingBlock: ZUJKAS_clean_linker_0, # of connection points: 2
#     Edge 81, Type (0, 0), BuildingBlock: ZUJKAS_clean_linker_0, # of connection points: 2
#     Edge 82, Type (0, 0), BuildingBlock: ZUJKAS_clean_linker_0, # of connection points: 2
#     Edge 83, Type (0, 0), BuildingBlock: ZUJKAS_clean_linker_0, # of connection points: 2
# Relax obj value: 0.103
# Max RMSD: 0.138
# Mean RMSD: 0.138
data_MOF--net-fcp--node1-XOMCOT_clean_sbu_1--edge1-ZUJKAS_clean_linker_0
_symmetry_space_group_name_H-M    P1
_symmetry_Int_Tables_number       1
_symmetry_cell_setting            triclinic
loop_
_symmetry_equiv_pos_as_xyz
'x, y, z'
_cell_length_a     65.152663
_cell_length_b     65.15439
_cell_length_c     65.137223
_cell_angle_alpha  89.981535
_cell_angle_beta   90.007896
_cell_angle_gamma 89.997025
loop_
_atom_site_label
_atom_site_type_symbol
_atom_site_fract_x
_atom_site_fract_y
_atom_site_fract_z
_atom_type_partial_charge
C0 C 0.04533 0.32097 0.16623 0.0
C1 C 0.02755 0.32425 0.17716 0.0
N2 N 0.0307 0.34012 0.19 0.0
N3 N 0.05966 0.33461 0.17227 0.0
C4 C 0.05029 0.34609 0.1868 0.0
H5 H 0.04765 0.30948 0.15447 0.0
Co6 Co 0.08624 0.3358 0.16169 0.0
C7 C 0.09356 0.38103 0.1711 0.0
O8 O 0.09247 0.38717 0.15195 0.0
N9 N 0.11342 0.33649 0.15115 0.0
C10 C 0.14199 0.34477 0.13419 0.0
C11 C 0.12252 0.35099 0.1394 0.0
C12 C 0.12783 0.32156 0.15273 0.0
N13 N 0.14532 0.32624 0.14263 0.0
O14 O 0.09597 0.32186 0.18576 0.0
H15 H 0.11527 0.36477 0.13389 0.0
H16 H 0.12537 0.3071 0.16041 0.0
O17 O 0.09115 0.36208 0.17561 0.0
C18 C 0.09338 0.30249 0.18484 0.0
O19 O 0.08511 0.29474 0.16815 0.0
N20 N 0.07573 0.34766 0.13736 0.0
C21 C 0.05686 0.35762 0.10002 0.0
C22 C 0.05163 0.36806 0.11814 0.0
C23 C 0.061 0.3626 0.13673 0.0
C24 C 0.08062 0.33712 0.11995 0.0
C25 C 0.07176 0.34212 0.10113 0.0
H26 H 0.056 0.37002 0.1507 0.0
H27 H 0.09112 0.32429 0.12069 0.0
H28 H 0.05763 0.35854 0.19498 0.0
H29 H 0.01328 0.31591 0.17548 0.0
H30 H 0.15272 0.35313 0.12466 0.0
H31 H 0.0398 0.37973 0.11815 0.0
H32 H 0.07633 0.33359 0.08762 0.0
C33 C 0.82556 0.46338 0.34353 0.0
C34 C 0.82843 0.48098 0.33222 0.0
N35 N 0.84265 0.47715 0.31771 0.0
N36 N 0.83784 0.44846 0.33616 0.0
C37 C 0.84807 0.4573 0.32038 0.0
H38 H 0.81524 0.46153 0.3564 0.0
Co39 Co 0.83878 0.42175 0.34654 0.0
C40 C 0.88387 0.41439 0.33606 0.0
O41 O 0.8905 0.41589 0.35502 0.0
N42 N 0.83901 0.39455 0.35681 0.0
C43 C 0.84748 0.36463 0.37098 0.0
C44 C 0.85446 0.38368 0.36533 0.0
C45 C 0.82268 0.38171 0.35778 0.0
N46 N 0.82741 0.36333 0.36626 0.0
O47 O 0.82415 0.41232 0.32273 0.0
H48 H 0.86974 0.38919 0.36806 0.0
H49 H 0.80742 0.38598 0.35289 0.0
O50 O 0.86478 0.41662 0.33195 0.0
C51 C 0.80492 0.41587 0.32335 0.0
O52 O 0.79743 0.42524 0.33957 0.0
N53 N 0.85148 0.43178 0.37078 0.0
C54 C 0.86314 0.45007 0.40799 0.0
C55 C 0.87246 0.45585 0.38942 0.0
C56 C 0.86619 0.44676 0.37096 0.0
C57 C 0.84201 0.42632 0.38865 0.0
C58 C 0.84777 0.435 0.40737 0.0
H59 H 0.8729 0.45209 0.35675 0.0
H60 H 0.82923 0.41574 0.3884 0.0
H61 H 0.85911 0.44935 0.31088 0.0
H62 H 0.82088 0.49558 0.33469 0.0
H63 H 0.8566 0.35272 0.3781 0.0
H64 H 0.88427 0.46753 0.38906 0.0
H65 H 0.83952 0.43058 0.4211 0.0
C66 C 0.96167 0.68399 0.1648 0.0
C67 C 0.9791 0.68057 0.1762 0.0
N68 N 0.9757 0.66434 0.18853 0.0
N69 N 0.94725 0.67013 0.17005 0.0
C70 C 0.95629 0.65825 0.1845 0.0
H71 H 0.95963 0.6958 0.15331 0.0
Co72 Co 0.92112 0.66955 0.15847 0.0
C73 C 0.90733 0.62648 0.1685 0.0
O74 O 0.90326 0.62216 0.14927 0.0
N75 N 0.89424 0.6696 0.14637 0.0
C76 C 0.86781 0.66448 0.12511 0.0
C77 C 0.88725 0.65834 0.13033 0.0
C78 C 0.87842 0.68255 0.15045 0.0
N79 N 0.86226 0.67982 0.13771 0.0
O80 O 0.91106 0.68485 0.18155 0.0
H81 H 0.89593 0.64691 0.12205 0.0
H82 H 0.87891 0.6945 0.16188 0.0
O83 O 0.91472 0.64402 0.17328 0.0
C84 C 0.91381 0.70414 0.17971 0.0
O85 O 0.92192 0.71106 0.16258 0.0
N86 N 0.93231 0.65638 0.1354 0.0
C87 C 0.95222 0.64397 0.09949 0.0
C88 C 0.95335 0.63199 0.11741 0.0
C89 C 0.94339 0.63858 0.13535 0.0
C90 C 0.93186 0.66857 0.1184 0.0
C91 C 0.9413 0.66249 0.10022 0.0
H92 H 0.94513 0.62975 0.14928 0.0
H93 H 0.9242 0.68329 0.11907 0.0
H94 H 0.94881 0.64554 0.19211 0.0
H95 H 0.99331 0.68915 0.17526 0.0
H96 H 0.85869 0.65842 0.11262 0.0
H97 H 0.96201 0.6178 0.11763 0.0
H98 H 0.94064 0.67258 0.08702 0.0
C99 C 0.17988 0.54262 0.34525 0.0
C100 C 0.17636 0.52461 0.33482 0.0
N101 N 0.16317 0.52848 0.31935 0.0
N102 N 0.16888 0.55779 0.3365 0.0
C103 C 0.15901 0.54878 0.32063 0.0
H104 H 0.18966 0.54456 0.35853 0.0
Co105 Co 0.16826 0.58482 0.34584 0.0
C106 C 0.12316 0.59242 0.33577 0.0
O107 O 0.11689 0.59183 0.3549 0.0
N108 N 0.16829 0.61237 0.35512 0.0
C109 C 0.16032 0.6427 0.36878 0.0
C110 C 0.15329 0.62332 0.36437 0.0
C111 C 0.18444 0.62546 0.35453 0.0
N112 N 0.17995 0.64404 0.36258 0.0
O113 O 0.18267 0.5932 0.32153 0.0
H114 H 0.13846 0.61756 0.36865 0.0
H115 H 0.19932 0.62147 0.34844 0.0
O116 O 0.14211 0.58965 0.3314 0.0
C117 C 0.20188 0.58958 0.32245 0.0
O118 O 0.20917 0.58081 0.33911 0.0
N119 N 0.15589 0.57575 0.37055 0.0
C120 C 0.1466 0.55707 0.40813 0.0
C121 C 0.13591 0.55166 0.39023 0.0
C122 C 0.14104 0.56093 0.37151 0.0
C123 C 0.16625 0.58126 0.3879 0.0
C124 C 0.16166 0.57238 0.40682 0.0
H125 H 0.13372 0.55551 0.35764 0.0
H126 H 0.17897 0.59187 0.38698 0.0
H127 H 0.14863 0.55684 0.31049 0.0
H128 H 0.18314 0.50985 0.33831 0.0
H129 H 0.15186 0.65461 0.37669 0.0
H130 H 0.12453 0.53955 0.39044 0.0
H131 H 0.17037 0.57698 0.42022 0.0
C132 C 0.04219 0.68077 0.84326 0.0
C133 C 0.02456 0.67795 0.83198 0.0
N134 N 0.02858 0.66437 0.81691 0.0
N135 N 0.0573 0.66909 0.83532 0.0
C136 C 0.04856 0.65928 0.81923 0.0
H137 H 0.04393 0.69065 0.85649 0.0
Co138 Co 0.08418 0.66827 0.84529 0.0
C139 C 0.09116 0.62331 0.83418 0.0
O140 O 0.0892 0.61638 0.853 0.0
N141 N 0.1115 0.66808 0.85497 0.0
C142 C 0.14203 0.65945 0.86767 0.0
C143 C 0.12274 0.65249 0.86275 0.0
C144 C 0.12429 0.68444 0.85565 0.0
N145 N 0.14302 0.67958 0.86317 0.0
O146 O 0.09313 0.68321 0.82146 0.0
H147 H 0.11732 0.63712 0.86534 0.0
H148 H 0.11999 0.69965 0.85063 0.0
O149 O 0.08936 0.6425 0.83042 0.0
C150 C 0.08873 0.70227 0.82188 0.0
O151 O 0.07891 0.70954 0.83793 0.0
N152 N 0.07465 0.65524 0.86965 0.0
C153 C 0.05713 0.64313 0.90707 0.0
C154 C 0.05045 0.63454 0.88848 0.0
C155 C 0.05925 0.64095 0.86993 0.0
C156 C 0.08093 0.66404 0.88761 0.0
C157 C 0.07271 0.65794 0.90644 0.0
H158 H 0.05337 0.63468 0.85574 0.0
H159 H 0.09183 0.67654 0.88742 0.0
H160 H 0.05669 0.6488 0.80924 0.0
H161 H 0.00982 0.68507 0.83485 0.0
H162 H 0.1542 0.65048 0.87455 0.0
H163 H 0.0383 0.6232 0.88822 0.0
H164 H 0.07784 0.66553 0.92031 0.0
C165 C 0.18329 0.46153 0.66284 0.0
C166 C 0.18017 0.47974 0.67309 0.0
N167 N 0.16626 0.47651 0.68807 0.0
N168 N 0.1713 0.4469 0.6712 0.0
C169 C 0.16129 0.45641 0.6867 0.0
H170 H 0.19336 0.45914 0.64986 0.0
Co171 Co 0.16941 0.41992 0.66176 0.0
C172 C 0.12382 0.41574 0.67154 0.0
O173 O 0.11782 0.41744 0.65237 0.0
N174 N 0.1682 0.39242 0.65258 0.0
C175 C 0.15868 0.36155 0.64148 0.0
C176 C 0.15199 0.38072 0.64714 0.0
C177 C 0.18461 0.37993 0.64991 0.0
N178 N 0.17926 0.36102 0.64321 0.0
O179 O 0.18334 0.41079 0.68606 0.0
H180 H 0.13623 0.38552 0.64696 0.0
H181 H 0.20026 0.38481 0.65239 0.0
O182 O 0.14294 0.41643 0.67604 0.0
C183 C 0.20273 0.41314 0.68483 0.0
O184 O 0.21031 0.4214 0.66806 0.0
N185 N 0.15751 0.42958 0.63687 0.0
C186 C 0.14839 0.44774 0.59891 0.0
C187 C 0.13909 0.4548 0.61701 0.0
C188 C 0.14412 0.44575 0.63585 0.0
C189 C 0.16664 0.42261 0.61935 0.0
C190 C 0.16207 0.43119 0.60027 0.0
H191 H 0.13767 0.45218 0.64972 0.0
H192 H 0.17839 0.41094 0.62009 0.0
H193 H 0.15011 0.4489 0.6964 0.0
H194 H 0.1876 0.49421 0.66973 0.0
H195 H 0.14901 0.34896 0.63664 0.0
H196 H 0.1288 0.46785 0.61677 0.0
H197 H 0.16969 0.42525 0.58674 0.0
C198 C 0.96374 0.3262 0.84466 0.0
C199 C 0.98116 0.32982 0.83334 0.0
N200 N 0.97648 0.34313 0.8182 0.0
N201 N 0.94808 0.33714 0.83675 0.0
C202 C 0.95627 0.3473 0.8206 0.0
H203 H 0.96257 0.3164 0.85801 0.0
Co204 Co 0.92169 0.33714 0.84779 0.0
C205 C 0.90906 0.38095 0.8389 0.0
O206 O 0.90573 0.3853 0.85826 0.0
N207 N 0.89473 0.33653 0.85925 0.0
C208 C 0.86758 0.34137 0.87955 0.0
C209 C 0.88688 0.34814 0.87459 0.0
C210 C 0.8797 0.32264 0.85539 0.0
N211 N 0.86307 0.32523 0.86753 0.0
O212 O 0.91197 0.32271 0.82402 0.0
H213 H 0.89497 0.36002 0.88279 0.0
H214 H 0.88123 0.31011 0.84464 0.0
O215 O 0.91556 0.36315 0.83378 0.0
C216 C 0.91683 0.30375 0.82387 0.0
O217 O 0.92737 0.29638 0.83941 0.0
N218 N 0.93232 0.34953 0.87156 0.0
C219 C 0.95319 0.35965 0.90762 0.0
C220 C 0.95441 0.37241 0.89026 0.0
C221 C 0.94412 0.36685 0.87218 0.0
C222 C 0.9311 0.33698 0.88825 0.0
C223 C 0.94108 0.34191 0.90649 0.0
H224 H 0.94645 0.3759 0.85847 0.0
H225 H 0.92273 0.32268 0.88719 0.0
H226 H 0.94759 0.35743 0.81073 0.0
H227 H 0.99621 0.32347 0.83635 0.0
H228 H 0.85789 0.34752 0.89156 0.0
H229 H 0.96405 0.38595 0.89033 0.0
H230 H 0.93971 0.3316 0.91946 0.0
C231 C 0.82007 0.54445 0.66946 0.0
C232 C 0.82357 0.52738 0.68134 0.0
N233 N 0.83984 0.53117 0.69352 0.0
N234 N 0.83392 0.55905 0.6742 0.0
C235 C 0.84589 0.55047 0.68886 0.0
H236 H 0.80823 0.5461 0.65794 0.0
Co237 Co 0.83431 0.58462 0.66144 0.0
C238 C 0.87732 0.59974 0.66964 0.0
O239 O 0.88038 0.60494 0.65044 0.0
N240 N 0.83397 0.6108 0.64801 0.0
C241 C 0.83774 0.63578 0.62481 0.0
C242 C 0.84382 0.61647 0.63059 0.0
C243 C 0.82185 0.62722 0.65231 0.0
N244 N 0.82378 0.64252 0.63842 0.0
O245 O 0.82011 0.59606 0.68458 0.0
H246 H 0.8544 0.60705 0.62199 0.0
H247 H 0.811 0.62772 0.6648 0.0
O248 O 0.86042 0.59131 0.67496 0.0
C249 C 0.80076 0.59318 0.68407 0.0
O250 O 0.79291 0.58352 0.6682 0.0
N251 N 0.84639 0.57224 0.63849 0.0
C252 C 0.85661 0.55073 0.60284 0.0
C253 C 0.87063 0.55222 0.61919 0.0
C254 C 0.86504 0.56275 0.63716 0.0
C255 C 0.83253 0.57057 0.62292 0.0
C256 C 0.83739 0.56016 0.60492 0.0
H257 H 0.87539 0.56272 0.65011 0.0
H258 H 0.81747 0.57737 0.62462 0.0
H259 H 0.85865 0.55819 0.69612 0.0
H260 H 0.81504 0.51314 0.68078 0.0
H261 H 0.84291 0.644 0.61133 0.0
H262 H 0.88544 0.54473 0.61837 0.0
H263 H 0.8261 0.55947 0.59273 0.0
C264 C 0.16221 0.04323 0.32511 0.0
C265 C 0.17241 0.02506 0.32851 0.0
N266 N 0.1875 0.02851 0.34225 0.0
N267 N 0.17072 0.05807 0.33673 0.0
C268 C 0.18624 0.04871 0.34683 0.0
H269 H 0.14917 0.04548 0.31507 0.0
Co270 Co 0.16134 0.08508 0.338 0.0
C271 C 0.17166 0.09081 0.38337 0.0
O272 O 0.15269 0.08899 0.38989 0.0
N273 N 0.15214 0.11257 0.33869 0.0
C274 C 0.13961 0.14304 0.34779 0.0
C275 C 0.14435 0.12359 0.35444 0.0
C276 C 0.15162 0.12568 0.32257 0.0
N277 N 0.14421 0.14435 0.32771 0.0
O278 O 0.18559 0.09382 0.32377 0.0
H279 H 0.14157 0.11791 0.36967 0.0
H280 H 0.15657 0.12162 0.30728 0.0
O281 O 0.17575 0.08935 0.36421 0.0
C282 C 0.18448 0.09086 0.30446 0.0
O283 O 0.16774 0.08239 0.29703 0.0
N284 N 0.13656 0.07571 0.35016 0.0
C285 C 0.09874 0.05724 0.35903 0.0
C286 C 0.11669 0.05093 0.36912 0.0
C287 C 0.13551 0.06012 0.36421 0.0
C288 C 0.11916 0.08204 0.34034 0.0
C289 C 0.10014 0.07329 0.34477 0.0
H290 H 0.14935 0.0541 0.3711 0.0
H291 H 0.12006 0.09325 0.32815 0.0
H292 H 0.19606 0.05641 0.35778 0.0
H293 H 0.16896 0.01047 0.32137 0.0
H294 H 0.13273 0.15508 0.35694 0.0
H295 H 0.11641 0.03826 0.37988 0.0
H296 H 0.08672 0.07864 0.33654 0.0
C297 C 0.54417 0.34495 0.18119 0.0
C298 C 0.5263 0.33454 0.17705 0.0
N299 N 0.53048 0.31952 0.16344 0.0
N300 N 0.5596 0.33663 0.17022 0.0
C301 C 0.55084 0.32106 0.15966 0.0
H302 H 0.54584 0.35796 0.19136 0.0
Co303 Co 0.58637 0.34671 0.17031 0.0
C304 C 0.59864 0.33726 0.12653 0.0
O305 O 0.60194 0.35657 0.12193 0.0
N306 N 0.61381 0.35714 0.17095 0.0
C307 C 0.64199 0.37582 0.16541 0.0
C308 C 0.62238 0.37178 0.15894 0.0
C309 C 0.62872 0.35286 0.18487 0.0
N310 N 0.64601 0.36394 0.18179 0.0
O311 O 0.59497 0.32275 0.18504 0.0
H312 H 0.6146 0.38022 0.14701 0.0
H313 H 0.62694 0.34214 0.19737 0.0
O314 O 0.59223 0.33233 0.14441 0.0
C315 C 0.59095 0.32397 0.20416 0.0
O316 O 0.58225 0.34082 0.21104 0.0
N317 N 0.57669 0.37081 0.1577 0.0
C318 C 0.55685 0.40752 0.14771 0.0
C319 C 0.5547 0.3901 0.13517 0.0
C320 C 0.56451 0.37172 0.14064 0.0
C321 C 0.57884 0.38757 0.17002 0.0
C322 C 0.56944 0.40611 0.16512 0.0
H323 H 0.56148 0.35802 0.13179 0.0
H324 H 0.58745 0.38634 0.18416 0.0
H325 H 0.55909 0.31135 0.14903 0.0
H326 H 0.5114 0.33774 0.18367 0.0
H327 H 0.65206 0.38752 0.15926 0.0
H328 H 0.54471 0.39036 0.12189 0.0
H329 H 0.57162 0.41912 0.17524 0.0
C330 C 0.84391 0.96274 0.32334 0.0
C331 C 0.83351 0.98082 0.32657 0.0
N332 N 0.81839 0.97733 0.34027 0.0
N333 N 0.83548 0.94788 0.33499 0.0
C334 C 0.81986 0.95717 0.34502 0.0
H335 H 0.85704 0.96058 0.31341 0.0
Co336 Co 0.84488 0.92086 0.33605 0.0
C337 C 0.83515 0.91499 0.38146 0.0
O338 O 0.85433 0.91636 0.3875 0.0
N339 N 0.85409 0.89335 0.33635 0.0
C340 C 0.86525 0.86212 0.34465 0.0
C341 C 0.86004 0.88117 0.35205 0.0
C342 C 0.85613 0.88131 0.31953 0.0
N343 N 0.86277 0.8622 0.32415 0.0
O344 O 0.82056 0.91219 0.32187 0.0
H345 H 0.86099 0.88562 0.36789 0.0
H346 H 0.85276 0.88644 0.30413 0.0
O347 O 0.83061 0.91651 0.3624 0.0
C348 C 0.82159 0.91521 0.30256 0.0
O349 O 0.83823 0.92384 0.2951 0.0
N350 N 0.86973 0.93014 0.34823 0.0
C351 C 0.90746 0.94854 0.3576 0.0
C352 C 0.8894 0.9549 0.36742 0.0
C353 C 0.87065 0.94576 0.36225 0.0
C354 C 0.88725 0.92374 0.33869 0.0
C355 C 0.90624 0.9325 0.34333 0.0
H356 H 0.85675 0.95178 0.36902 0.0
H357 H 0.88653 0.9125 0.32653 0.0
H358 H 0.80975 0.94929 0.35557 0.0
H359 H 0.83717 0.9955 0.31972 0.0
H360 H 0.87089 0.84935 0.35366 0.0
H361 H 0.88955 0.96757 0.37818 0.0
H362 H 0.91977 0.92718 0.33527 0.0
C363 C 0.46194 0.66043 0.18194 0.0
C364 C 0.47986 0.67119 0.17893 0.0
N365 N 0.47603 0.68676 0.16583 0.0
N366 N 0.44686 0.66909 0.17074 0.0
C367 C 0.45585 0.68519 0.16122 0.0
H368 H 0.46003 0.64694 0.19143 0.0
Co369 Co 0.41985 0.65966 0.16956 0.0
C370 C 0.41371 0.67101 0.1245 0.0
O371 O 0.41541 0.65217 0.11757 0.0
N372 N 0.39235 0.65044 0.16901 0.0
C373 C 0.36167 0.63837 0.15999 0.0
C374 C 0.38099 0.64336 0.15317 0.0
C375 C 0.37956 0.64927 0.18536 0.0
N376 N 0.36076 0.64212 0.18027 0.0
O377 O 0.4113 0.68356 0.18449 0.0
H378 H 0.38633 0.64127 0.13771 0.0
H379 H 0.38393 0.6536 0.20076 0.0
O380 O 0.41529 0.67469 0.14374 0.0
C381 C 0.41465 0.68201 0.20371 0.0
O382 O 0.42305 0.66501 0.21061 0.0
N383 N 0.4291 0.63522 0.15663 0.0
C384 C 0.44771 0.59779 0.14643 0.0
C385 C 0.45392 0.61611 0.13696 0.0
C386 C 0.44466 0.63469 0.14251 0.0
C387 C 0.4228 0.61746 0.1658 0.0
C388 C 0.43162 0.59863 0.1607 0.0
H389 H 0.4506 0.64877 0.13606 0.0
H390 H 0.4116 0.61787 0.17801 0.0
H391 H 0.44773 0.69563 0.15118 0.0
H392 H 0.49465 0.66751 0.18553 0.0
H393 H 0.34941 0.63194 0.15079 0.0
H394 H 0.46662 0.61628 0.12623 0.0
H395 H 0.42634 0.58491 0.16846 0.0
C396 C 0.16169 0.96358 0.68084 0.0
C397 C 0.17213 0.98149 0.67695 0.0
N398 N 0.18729 0.97744 0.66345 0.0
N399 N 0.17012 0.94826 0.66982 0.0
C400 C 0.18583 0.9571 0.65952 0.0
H401 H 0.14851 0.96184 0.69079 0.0
Co402 Co 0.16004 0.92144 0.66938 0.0
C403 C 0.17011 0.91333 0.62439 0.0
O404 O 0.15105 0.91443 0.618 0.0
N405 N 0.15002 0.8942 0.66953 0.0
C406 C 0.13409 0.86489 0.66205 0.0
C407 C 0.13945 0.88398 0.65489 0.0
C408 C 0.1508 0.88088 0.68548 0.0
N409 N 0.14126 0.86294 0.68131 0.0
O410 O 0.18405 0.91241 0.6839 0.0
H411 H 0.13485 0.89019 0.6403 0.0
H412 H 0.15751 0.88451 0.70021 0.0
O413 O 0.1744 0.91598 0.64338 0.0
C414 C 0.1841 0.91715 0.70289 0.0
O415 O 0.16835 0.92733 0.71033 0.0
N416 N 0.13564 0.93115 0.65677 0.0
C417 C 0.09837 0.94941 0.64554 0.0
C418 C 0.11674 0.95503 0.6358 0.0
C419 C 0.13525 0.94587 0.64179 0.0
C420 C 0.11794 0.92594 0.6667 0.0
C421 C 0.09915 0.93453 0.66106 0.0
H422 H 0.14935 0.95104 0.63475 0.0
H423 H 0.11841 0.9156 0.67967 0.0
H424 H 0.19562 0.94894 0.64888 0.0
H425 H 0.16878 0.99635 0.68358 0.0
H426 H 0.1253 0.85346 0.6538 0.0
H427 H 0.11688 0.96667 0.62393 0.0
H428 H 0.08549 0.93026 0.66951 0.0
C429 C 0.46324 0.34472 0.82607 0.0
C430 C 0.48123 0.3341 0.8291 0.0
N431 N 0.47748 0.31839 0.84205 0.0
N432 N 0.44819 0.33586 0.83712 0.0
C433 C 0.45726 0.31977 0.84659 0.0
H434 H 0.46126 0.35825 0.81665 0.0
Co435 Co 0.42108 0.34507 0.83807 0.0
C436 C 0.41475 0.33442 0.88321 0.0
O437 O 0.41627 0.35342 0.88972 0.0
N438 N 0.39346 0.35406 0.83838 0.0
C439 C 0.36273 0.36625 0.84707 0.0
C440 C 0.38212 0.36165 0.85399 0.0
C441 C 0.3806 0.35453 0.82205 0.0
N442 N 0.36176 0.36174 0.82694 0.0
O443 O 0.41279 0.32093 0.82336 0.0
H444 H 0.38752 0.36439 0.86933 0.0
H445 H 0.38492 0.34967 0.80681 0.0
O446 O 0.41651 0.33032 0.86407 0.0
C447 C 0.4163 0.32235 0.80416 0.0
O448 O 0.42476 0.3393 0.79721 0.0
N449 N 0.43006 0.36977 0.85074 0.0
C450 C 0.44791 0.4076 0.86084 0.0
C451 C 0.45446 0.38943 0.87039 0.0
C452 C 0.44557 0.37065 0.86489 0.0
C453 C 0.42352 0.38736 0.84141 0.0
C454 C 0.43194 0.40638 0.84647 0.0
H455 H 0.45172 0.35671 0.87147 0.0
H456 H 0.41238 0.38668 0.82914 0.0
H457 H 0.44916 0.30919 0.85649 0.0
H458 H 0.49601 0.33797 0.82258 0.0
H459 H 0.35049 0.37295 0.85607 0.0
H460 H 0.4671 0.38955 0.88119 0.0
H461 H 0.4264 0.41996 0.83863 0.0
C462 C 0.8442 0.04438 0.68151 0.0
C463 C 0.83315 0.02671 0.67823 0.0
N464 N 0.8177 0.031 0.66515 0.0
N465 N 0.83581 0.05978 0.67055 0.0
C466 C 0.81961 0.05122 0.6608 0.0
H467 H 0.85773 0.04589 0.69102 0.0
Co468 Co 0.84618 0.08642 0.66994 0.0
C469 C 0.83584 0.09526 0.6252 0.0
O470 O 0.85494 0.09457 0.61887 0.0
N471 N 0.85659 0.11354 0.66995 0.0
C472 C 0.87316 0.14256 0.66268 0.0
C473 C 0.86795 0.12338 0.65564 0.0
C474 C 0.85525 0.12716 0.6856 0.0
N475 N 0.86514 0.14493 0.68155 0.0
O476 O 0.82242 0.09573 0.68474 0.0
H477 H 0.87323 0.11684 0.64143 0.0
H478 H 0.8479 0.12386 0.70009 0.0
O479 O 0.83155 0.09208 0.64411 0.0
C480 C 0.8224 0.09104 0.70375 0.0
O481 O 0.83807 0.0807 0.71114 0.0
N482 N 0.87023 0.07638 0.65703 0.0
C483 C 0.90689 0.05724 0.64533 0.0
C484 C 0.88833 0.05241 0.63551 0.0
C485 C 0.87013 0.06197 0.64175 0.0
C486 C 0.8881 0.08089 0.66698 0.0
C487 C 0.90661 0.07183 0.66113 0.0
H488 H 0.85583 0.05732 0.63473 0.0
H489 H 0.88795 0.09103 0.68011 0.0
H490 H 0.80942 0.05964 0.65076 0.0
H491 H 0.83659 0.01176 0.6846 0.0
H492 H 0.88246 0.15374 0.65464 0.0
H493 H 0.88778 0.04103 0.62341 0.0
H494 H 0.9204 0.0755 0.66965 0.0
C495 C 0.54116 0.66356 0.82431 0.0
C496 C 0.52366 0.67476 0.82787 0.0
N497 N 0.52804 0.68957 0.84164 0.0
N498 N 0.55658 0.67118 0.83577 0.0
C499 C 0.54816 0.68706 0.84615 0.0
H500 H 0.54256 0.65047 0.8142 0.0
Co501 Co 0.58294 0.66014 0.83595 0.0
C502 C 0.59653 0.66939 0.87921 0.0
O503 O 0.60066 0.6501 0.88316 0.0
N504 N 0.61 0.64858 0.83553 0.0
C505 C 0.63685 0.62778 0.84021 0.0
C506 C 0.61736 0.63254 0.84653 0.0
C507 C 0.62562 0.65311 0.82249 0.0
N508 N 0.64204 0.64065 0.82496 0.0
O509 O 0.59248 0.68362 0.82103 0.0
H510 H 0.6089 0.62391 0.85787 0.0
H511 H 0.62478 0.66466 0.81064 0.0
O512 O 0.58915 0.67451 0.86176 0.0
C513 C 0.58896 0.682 0.80184 0.0
O514 O 0.58014 0.66513 0.79515 0.0
N515 N 0.57227 0.6366 0.84866 0.0
C516 C 0.55167 0.60047 0.85909 0.0
C517 C 0.55093 0.61768 0.87209 0.0
C518 C 0.56108 0.63582 0.86638 0.0
C519 C 0.57289 0.62011 0.83583 0.0
C520 C 0.56309 0.60185 0.8409 0.0
H521 H 0.55919 0.64942 0.87569 0.0
H522 H 0.5808 0.62133 0.82127 0.0
H523 H 0.55663 0.69668 0.85669 0.0
H524 H 0.50875 0.67189 0.82113 0.0
H525 H 0.64625 0.6154 0.84609 0.0
H526 H 0.54185 0.61744 0.88601 0.0
H527 H 0.56417 0.58899 0.83042 0.0
C528 C 0.32582 0.16166 0.04527 0.0
C529 C 0.32888 0.17212 0.0272 0.0
N530 N 0.34215 0.18761 0.03076 0.0
N531 N 0.33713 0.17042 0.0602 0.0
C532 C 0.34682 0.18627 0.05096 0.0
H533 H 0.31622 0.14828 0.04739 0.0
Co534 Co 0.33822 0.16108 0.08726 0.0
C535 C 0.38366 0.171 0.09312 0.0
O536 O 0.38995 0.15193 0.0916 0.0
N537 N 0.33865 0.15192 0.11472 0.0
C538 C 0.34723 0.13951 0.14538 0.0
C539 C 0.35423 0.14428 0.12606 0.0
C540 C 0.32227 0.15133 0.12748 0.0
N541 N 0.32709 0.14397 0.14628 0.0
O542 O 0.32416 0.18547 0.096 0.0
H543 H 0.36961 0.14164 0.12071 0.0
H544 H 0.30704 0.15622 0.12306 0.0
O545 O 0.36455 0.17531 0.09156 0.0
C546 C 0.30504 0.18539 0.09185 0.0
O547 O 0.29733 0.16938 0.08229 0.0
N548 N 0.35027 0.13622 0.07798 0.0
C549 C 0.35903 0.09847 0.05934 0.0
C550 C 0.36925 0.11639 0.05319 0.0
C551 C 0.36439 0.13517 0.06245 0.0
C552 C 0.34037 0.11883 0.08421 0.0
C553 C 0.34472 0.09984 0.07535 0.0
H554 H 0.37136 0.14901 0.05652 0.0
H555 H 0.32815 0.11972 0.09538 0.0
H556 H 0.35704 0.19667 0.0589 0.0
H557 H 0.32222 0.16826 0.01248 0.0
H558 H 0.35617 0.13271 0.15762 0.0
H559 H 0.38004 0.11614 0.04055 0.0
H560 H 0.33637 0.08642 0.08052 0.0
C561 C 0.32208 0.84287 0.96356 0.0
C562 C 0.32575 0.83255 0.98161 0.0
N563 N 0.33996 0.81794 0.97801 0.0
N564 N 0.33397 0.83491 0.94864 0.0
C565 C 0.34454 0.81959 0.95783 0.0
H566 H 0.31169 0.85565 0.96148 0.0
Co567 Co 0.33504 0.84499 0.92188 0.0
C568 C 0.38045 0.83579 0.91512 0.0
O569 O 0.38637 0.85498 0.91647 0.0
N570 N 0.33556 0.85506 0.89458 0.0
C571 C 0.34375 0.87121 0.86555 0.0
C572 C 0.35035 0.86589 0.88486 0.0
C573 C 0.32007 0.85414 0.88074 0.0
N574 N 0.32467 0.86378 0.86296 0.0
O575 O 0.3211 0.82075 0.91255 0.0
H576 H 0.36464 0.87072 0.89154 0.0
H577 H 0.30529 0.84734 0.88385 0.0
O578 O 0.36148 0.83108 0.91717 0.0
C579 C 0.30179 0.82171 0.9156 0.0
O580 O 0.29431 0.83831 0.92429 0.0
N581 N 0.34683 0.86962 0.93195 0.0
C582 C 0.35583 0.90708 0.95103 0.0
C583 C 0.36643 0.88913 0.95649 0.0
C584 C 0.36142 0.87047 0.94704 0.0
C585 C 0.33632 0.88694 0.92665 0.0
C586 C 0.3408 0.9058 0.93568 0.0
H587 H 0.36879 0.85659 0.95236 0.0
H588 H 0.32371 0.88606 0.91589 0.0
H589 H 0.35585 0.81026 0.95005 0.0
H590 H 0.31849 0.8356 0.99624 0.0
H591 H 0.35221 0.88019 0.85442 0.0
H592 H 0.37776 0.88929 0.96865 0.0
H593 H 0.33214 0.91921 0.93101 0.0
C594 C 0.34554 0.18137 0.54339 0.0
C595 C 0.33494 0.17818 0.5254 0.0
N596 N 0.31945 0.16498 0.52919 0.0
N597 N 0.33686 0.17019 0.55846 0.0
C598 C 0.32091 0.1605 0.54941 0.0
H599 H 0.35894 0.19098 0.54535 0.0
Co600 Co 0.34601 0.16919 0.58559 0.0
C601 C 0.33527 0.12392 0.59144 0.0
O602 O 0.35422 0.11725 0.58994 0.0
N603 N 0.35491 0.16881 0.61318 0.0
C604 C 0.36615 0.16004 0.64425 0.0
C605 C 0.36111 0.15296 0.62503 0.0
C606 C 0.35663 0.18541 0.62556 0.0
N607 N 0.36332 0.18048 0.64458 0.0
O608 O 0.32179 0.18373 0.59391 0.0
H609 H 0.36248 0.13727 0.62016 0.0
H610 H 0.35305 0.20086 0.62073 0.0
O611 O 0.33135 0.14311 0.58995 0.0
C612 C 0.32301 0.20296 0.59047 0.0
O613 O 0.33989 0.21011 0.58204 0.0
N614 N 0.3708 0.15668 0.57664 0.0
C615 C 0.40871 0.14719 0.55865 0.0
C616 C 0.39069 0.13738 0.55213 0.0
C617 C 0.37184 0.14259 0.56108 0.0
C618 C 0.38828 0.1662 0.58319 0.0
C619 C 0.40734 0.16147 0.57468 0.0
H620 H 0.35798 0.13589 0.5549 0.0
H621 H 0.38747 0.17841 0.59437 0.0
H622 H 0.31047 0.15045 0.55752 0.0
H623 H 0.33866 0.18473 0.51059 0.0
H624 H 0.372 0.15088 0.65682 0.0
H625 H 0.39096 0.12661 0.53947 0.0
H626 H 0.42082 0.16949 0.58018 0.0
C627 C 0.68269 0.16433 0.96311 0.0
C628 C 0.67955 0.17568 0.98062 0.0
N629 N 0.66499 0.18981 0.97667 0.0
N630 N 0.67025 0.17132 0.94812 0.0
C631 C 0.65962 0.18688 0.95684 0.0
H632 H 0.69329 0.15167 0.96138 0.0
Co633 Co 0.66958 0.1606 0.92157 0.0
C634 C 0.62447 0.16998 0.91337 0.0
O635 O 0.61835 0.15083 0.91454 0.0
N636 N 0.66946 0.14993 0.89451 0.0
C637 C 0.6619 0.1331 0.8657 0.0
C638 C 0.65514 0.13832 0.88498 0.0
C639 C 0.68482 0.15143 0.88057 0.0
N640 N 0.68059 0.1414 0.86292 0.0
O641 O 0.68371 0.18461 0.91184 0.0
H642 H 0.64109 0.13296 0.89181 0.0
H643 H 0.69923 0.15907 0.88351 0.0
O644 O 0.64338 0.17453 0.9161 0.0
C645 C 0.70288 0.18452 0.91576 0.0
O646 O 0.7106 0.16865 0.92553 0.0
N647 N 0.65747 0.13629 0.93202 0.0
C648 C 0.6468 0.0991 0.95079 0.0
C649 C 0.6367 0.1174 0.95606 0.0
C650 C 0.64241 0.13588 0.94665 0.0
C651 C 0.66785 0.11873 0.92728 0.0
C652 C 0.66251 0.09998 0.93612 0.0
H653 H 0.63507 0.14995 0.95149 0.0
H654 H 0.68088 0.11931 0.91702 0.0
H655 H 0.64832 0.19603 0.94881 0.0
H656 H 0.68714 0.17349 0.99525 0.0
H657 H 0.65378 0.12369 0.85468 0.0
H658 H 0.62469 0.11748 0.96756 0.0
H659 H 0.67126 0.08642 0.93214 0.0
C660 C 0.6637 0.82534 0.54408 0.0
C661 C 0.67465 0.82839 0.5263 0.0
N662 N 0.68982 0.84192 0.5302 0.0
N663 N 0.67185 0.83691 0.55916 0.0
C664 C 0.68783 0.84675 0.5503 0.0
H665 H 0.6504 0.81557 0.54589 0.0
Co666 Co 0.66164 0.8381 0.58588 0.0
C667 C 0.67141 0.88352 0.59195 0.0
O668 O 0.65232 0.88972 0.59024 0.0
N669 N 0.65155 0.83854 0.61303 0.0
C670 C 0.6389 0.84696 0.64362 0.0
C671 C 0.64489 0.85426 0.62478 0.0
C672 C 0.64923 0.82181 0.62513 0.0
N673 N 0.64162 0.82648 0.64388 0.0
O674 O 0.68565 0.82396 0.59547 0.0
H675 H 0.64401 0.87005 0.62018 0.0
H676 H 0.65261 0.80638 0.62007 0.0
O677 O 0.67583 0.86443 0.5905 0.0
C678 C 0.68517 0.80471 0.59201 0.0
O679 O 0.66912 0.7971 0.58245 0.0
N680 N 0.63718 0.85027 0.57576 0.0
C681 C 0.59987 0.86064 0.55686 0.0
C682 C 0.61825 0.87038 0.55118 0.0
C683 C 0.63676 0.86463 0.56044 0.0
C684 C 0.6195 0.84056 0.58134 0.0
C685 C 0.60075 0.84559 0.57228 0.0
H686 H 0.65086 0.87147 0.55497 0.0
H687 H 0.61995 0.82801 0.59218 0.0
H688 H 0.69784 0.8572 0.55844 0.0
H689 H 0.67134 0.82155 0.51153 0.0
H690 H 0.6331 0.85615 0.65617 0.0
H691 H 0.61851 0.88205 0.53936 0.0
H692 H 0.58726 0.83695 0.57668 0.0
C693 C 0.68131 0.84095 0.044 0.0
C694 C 0.67831 0.82973 0.02637 0.0
N695 N 0.66385 0.81544 0.03015 0.0
N696 N 0.66888 0.83373 0.05888 0.0
C697 C 0.65844 0.81814 0.04999 0.0
H698 H 0.69178 0.85369 0.04588 0.0
Co699 Co 0.66784 0.84415 0.08557 0.0
C700 C 0.62252 0.83417 0.09206 0.0
O701 O 0.61608 0.85312 0.0898 0.0
N702 N 0.66745 0.85434 0.11271 0.0
C703 C 0.65875 0.86777 0.14292 0.0
C704 C 0.65185 0.86248 0.12369 0.0
C705 C 0.68373 0.85519 0.1256 0.0
N706 N 0.67883 0.86315 0.14412 0.0
O707 O 0.68209 0.82014 0.09514 0.0
H708 H 0.63654 0.86509 0.11813 0.0
H709 H 0.69894 0.85001 0.1215 0.0
O710 O 0.64165 0.82994 0.09056 0.0
C711 C 0.70131 0.82049 0.09151 0.0
O712 O 0.70899 0.83658 0.08207 0.0
N713 N 0.65553 0.8686 0.07539 0.0
C714 C 0.64493 0.90586 0.05658 0.0
C715 C 0.63572 0.88738 0.05042 0.0
C716 C 0.64141 0.86891 0.05984 0.0
C717 C 0.66483 0.88643 0.08129 0.0
C718 C 0.65952 0.90519 0.07239 0.0
H719 H 0.63476 0.85477 0.05426 0.0
H720 H 0.67718 0.88614 0.09236 0.0
H721 H 0.6472 0.80881 0.05791 0.0
H722 H 0.68588 0.83216 0.01178 0.0
H723 H 0.64976 0.87499 0.15488 0.0
H724 H 0.6245 0.88711 0.03816 0.0
H725 H 0.66759 0.91892 0.07716 0.0
C726 C 0.3436 0.8239 0.46357 0.0
C727 C 0.33314 0.82745 0.48157 0.0
N728 N 0.31792 0.84095 0.47772 0.0
N729 N 0.33513 0.83518 0.44845 0.0
C730 C 0.31939 0.84525 0.45746 0.0
H731 H 0.35675 0.81395 0.46164 0.0
Co732 Co 0.34481 0.83602 0.42152 0.0
C733 C 0.33443 0.88136 0.41495 0.0
O734 O 0.35335 0.88809 0.41656 0.0
N735 N 0.35438 0.83624 0.39415 0.0
C736 C 0.36702 0.84485 0.36357 0.0
C737 C 0.36188 0.85188 0.38278 0.0
C738 C 0.3555 0.81978 0.38151 0.0
N739 N 0.36299 0.82463 0.36277 0.0
O740 O 0.32062 0.8218 0.41267 0.0
H741 H 0.36416 0.86733 0.38805 0.0
H742 H 0.35094 0.80447 0.38594 0.0
O743 O 0.33052 0.86219 0.41674 0.0
C744 C 0.32148 0.80253 0.41588 0.0
O745 O 0.33798 0.79502 0.42476 0.0
N746 N 0.36945 0.8482 0.43097 0.0
C747 C 0.40696 0.85719 0.4498 0.0
C748 C 0.38914 0.86796 0.45523 0.0
C749 C 0.37041 0.86287 0.44597 0.0
C750 C 0.38676 0.83774 0.4255 0.0
C751 C 0.40564 0.84211 0.43456 0.0
H752 H 0.35655 0.87013 0.45149 0.0
H753 H 0.38582 0.82508 0.41483 0.0
H754 H 0.30949 0.85591 0.44944 0.0
H755 H 0.33645 0.82052 0.4963 0.0
H756 H 0.3738 0.85384 0.35135 0.0
H757 H 0.38947 0.87934 0.46734 0.0
H758 H 0.41902 0.83325 0.43017 0.0
C759 C 0.6622 0.1829 0.46296 0.0
C760 C 0.6727 0.18019 0.48107 0.0
N761 N 0.68825 0.16694 0.47773 0.0
N762 N 0.67098 0.17136 0.44823 0.0
C763 C 0.68692 0.16194 0.45761 0.0
H764 H 0.64874 0.19236 0.4607 0.0
Co765 Co 0.66158 0.1696 0.42124 0.0
C766 C 0.67285 0.12443 0.41614 0.0
O767 O 0.65394 0.11776 0.41801 0.0
N768 N 0.65237 0.16853 0.39376 0.0
C769 C 0.6412 0.15918 0.36285 0.0
C770 C 0.64694 0.15237 0.38196 0.0
C771 C 0.64958 0.185 0.3814 0.0
N772 N 0.64285 0.17977 0.36246 0.0
O773 O 0.68542 0.18448 0.41234 0.0
H774 H 0.64677 0.13659 0.38671 0.0
H775 H 0.65194 0.20063 0.38639 0.0
O776 O 0.67671 0.14368 0.41721 0.0
C777 C 0.68356 0.20377 0.41506 0.0
O778 O 0.66647 0.21065 0.42331 0.0
N779 N 0.63712 0.15679 0.43075 0.0
C780 C 0.59968 0.14707 0.4496 0.0
C781 C 0.61798 0.13775 0.45606 0.0
C782 C 0.63658 0.1431 0.4467 0.0
C783 C 0.61935 0.16579 0.42421 0.0
C784 C 0.60052 0.16095 0.43318 0.0
H785 H 0.65066 0.13681 0.45284 0.0
H786 H 0.61975 0.17773 0.41272 0.0
H787 H 0.69735 0.15164 0.44983 0.0
H788 H 0.6688 0.18706 0.49568 0.0
H789 H 0.63632 0.14958 0.35021 0.0
H790 H 0.61812 0.12732 0.46901 0.0
H791 H 0.5868 0.16861 0.42776 0.0
H792 H 0.15818 0.48752 0.32495 0.0
H793 H 0.14525 0.46263 0.30005 0.0
H794 H 0.13595 0.51122 0.25609 0.0
H795 H 0.14936 0.53619 0.28074 0.0
H796 H 0.1065 0.46146 0.27971 0.0
H797 H 0.17144 0.46893 0.22493 0.0
H798 H 0.17278 0.47824 0.251 0.0
H799 H 0.1592 0.49267 0.23182 0.0
C800 C 0.15361 0.49292 0.30992 0.0
C801 C 0.15501 0.51387 0.3048 0.0
C802 C 0.14606 0.47868 0.29577 0.0
C803 C 0.13989 0.48503 0.27615 0.0
C804 C 0.14091 0.50595 0.27106 0.0
H805 H 0.09723 0.42257 0.16703 0.0
H806 H 0.10719 0.44746 0.19318 0.0
C807 C 0.14841 0.52024 0.28524 0.0
C808 C 0.13245 0.46973 0.26101 0.0
H809 H 0.14336 0.44853 0.21436 0.0
C810 C 0.11455 0.45856 0.26543 0.0
C811 C 0.14303 0.46598 0.24244 0.0
C812 C 0.16278 0.47693 0.23726 0.0
C813 C 0.1067 0.44403 0.25154 0.0
C814 C 0.11729 0.4403 0.23294 0.0
C815 C 0.13523 0.45143 0.2286 0.0
C816 C 0.11 0.4251 0.21758 0.0
C817 C 0.0869 0.43318 0.25669 0.0
C818 C 0.10819 0.40421 0.2226 0.0
C819 C 0.10239 0.38988 0.20766 0.0
C820 C 0.09851 0.39617 0.18736 0.0
C821 C 0.10014 0.41715 0.18248 0.0
C822 C 0.10585 0.43143 0.19742 0.0
H823 H 0.078 0.44158 0.26856 0.0
H824 H 0.07715 0.43134 0.24283 0.0
H825 H 0.09044 0.41768 0.2628 0.0
H826 H 0.11172 0.3989 0.23795 0.0
H827 H 0.10137 0.37384 0.21192 0.0
H828 H 1.00201 0.3202 0.21223 0.0
H829 H 0.97655 0.3354 0.23523 0.0
H830 H 0.99998 0.39577 0.22126 0.0
H831 H 0.02607 0.3804 0.19891 0.0
H832 H 0.99297 0.39354 0.25998 0.0
H833 H 0.9242 0.36287 0.22123 0.0
H834 H 0.94083 0.34235 0.22886 0.0
H835 H 0.94947 0.36083 0.21013 0.0
C836 C 1.00162 0.33671 0.21402 0.0
C837 C 0.01592 0.34914 0.20374 0.0
C838 C 0.98695 0.34543 0.22703 0.0
C839 C 0.98588 0.36682 0.22958 0.0
C840 C 1.00035 0.37925 0.21946 0.0
H841 H 0.87945 0.41906 0.29435 0.0
H842 H 0.90431 0.40995 0.26758 0.0
C843 C 0.01529 0.37048 0.20675 0.0
C844 C 0.97023 0.37611 0.24344 0.0
H845 H 0.91928 0.37493 0.25582 0.0
C846 C 0.97682 0.38964 0.25888 0.0
C847 C 0.94902 0.37154 0.24179 0.0
C848 C 0.94045 0.3588 0.22445 0.0
C849 C 0.96301 0.39801 0.27316 0.0
C850 C 0.94209 0.39206 0.27255 0.0
C851 C 0.93534 0.37924 0.25659 0.0
C852 C 0.92718 0.39828 0.28873 0.0
C853 C 0.97103 0.41331 0.28859 0.0
C854 C 0.93157 0.39455 0.3095 0.0
C855 C 0.91759 0.40008 0.32477 0.0
C856 C 0.89862 0.40897 0.31963 0.0
C857 C 0.89396 0.41229 0.29881 0.0
C858 C 0.90816 0.40708 0.2835 0.0
H859 H 0.98456 0.42171 0.28246 0.0
H860 H 0.95911 0.42469 0.29292 0.0
H861 H 0.97606 0.40504 0.30261 0.0
H862 H 0.94574 0.38709 0.31395 0.0
H863 H 0.92153 0.39698 0.34063 0.0
H864 H 0.82164 0.50758 0.29894 0.0
H865 H 0.8349 0.53238 0.27409 0.0
H866 H 0.89488 0.50462 0.2784 0.0
H867 H 0.88141 0.47932 0.30279 0.0
H868 H 0.86294 0.56102 0.2775 0.0
H869 H 0.88842 0.5063 0.21757 0.0
H870 H 0.87301 0.49845 0.23917 0.0
H871 H 0.9003 0.50177 0.24198 0.0
C872 C 0.83764 0.50673 0.29451 0.0
C873 C 0.85046 0.49145 0.30272 0.0
C874 C 0.84522 0.52091 0.2803 0.0
C875 C 0.86586 0.52026 0.27407 0.0
C876 C 0.87878 0.50513 0.28245 0.0
H877 H 0.91968 0.62613 0.20892 0.0
H878 H 0.91145 0.60045 0.23514 0.0
C879 C 0.8711 0.49072 0.29645 0.0
C880 C 0.87375 0.53574 0.25916 0.0
H881 H 0.8977 0.54114 0.2128 0.0
C882 C 0.87053 0.55666 0.26334 0.0
C883 C 0.8835 0.5301 0.24056 0.0
C884 C 0.88634 0.50794 0.23442 0.0
C885 C 0.8765 0.57203 0.24941 0.0
C886 C 0.88665 0.56641 0.23102 0.0
C887 C 0.8901 0.5455 0.22696 0.0
C888 C 0.89258 0.58177 0.21512 0.0
C889 C 0.87111 0.59404 0.25422 0.0
C890 C 0.88544 0.57949 0.19491 0.0
C891 C 0.89051 0.59386 0.17982 0.0
C892 C 0.90273 0.61101 0.18459 0.0
C893 C 0.91011 0.6132 0.20477 0.0
C894 C 0.90526 0.5986 0.21983 0.0
H895 H 0.85859 0.5951 0.26575 0.0
H896 H 0.88478 0.60188 0.26066 0.0
H897 H 0.86623 0.6024 0.24018 0.0
H898 H 0.87567 0.56667 0.19083 0.0
H899 H 0.88451 0.59168 0.16447 0.0
H900 H 0.12672 0.58644 0.29413 0.0
H901 H 0.10173 0.59562 0.26751 0.0
H902 H 0.06132 0.62011 0.31392 0.0
H903 H 0.08566 0.61017 0.34049 0.0
H904 H 0.03993 0.59933 0.28733 0.0
H905 H 0.0919 0.65138 0.24444 0.0
H906 H 0.10127 0.62556 0.24607 0.0
H907 H 0.09868 0.6407 0.26904 0.0
C908 C 0.11248 0.59375 0.29862 0.0
C909 C 0.10821 0.59763 0.31942 0.0
C910 C 0.09826 0.59914 0.28338 0.0
C911 C 0.07976 0.60896 0.28862 0.0
C912 C 0.07545 0.61259 0.30942 0.0
H913 H 1.00322 0.68463 0.21184 0.0
H914 H 0.02802 0.66982 0.2358 0.0
C915 C 0.08943 0.6069 0.32463 0.0
C916 C 0.06473 0.61555 0.27268 0.0
H917 H 0.05917 0.64548 0.22997 0.0
C918 C 0.04415 0.60942 0.27477 0.0
C919 C 0.07015 0.62891 0.2564 0.0
C920 C 0.09165 0.6372 0.25392 0.0
C921 C 0.02881 0.61654 0.26136 0.0
C922 C 0.0343 0.62958 0.24485 0.0
C923 C 0.05495 0.6354 0.24253 0.0
C924 C 0.01881 0.63832 0.23045 0.0
C925 C 0.00681 0.61068 0.26563 0.0
C926 C 0.00531 0.62563 0.21938 0.0
C927 C 0.99084 0.63416 0.20595 0.0
C928 C 0.98997 0.6555 0.20293 0.0
C929 C 0.00365 0.66814 0.21378 0.0
C930 C 0.01783 0.65966 0.22746 0.0
H931 H 0.0046 0.60584 0.28184 0.0
H932 H 0.99621 0.62362 0.26237 0.0
H933 H 1.00248 0.59755 0.25568 0.0
H934 H 0.00611 0.6091 0.22091 0.0
H935 H 0.98068 0.62407 0.19751 0.0
H936 H 0.15051 0.46984 0.72609 0.0
H937 H 0.13611 0.49545 0.74946 0.0
H938 H 0.14837 0.54301 0.70508 0.0
H939 H 0.16278 0.51753 0.68166 0.0
H940 H 0.16071 0.55369 0.74379 0.0
H941 H 0.08092 0.52422 0.74582 0.0
H942 H 0.09975 0.50523 0.75244 0.0
H943 H 0.0994 0.51585 0.72694 0.0
C944 C 0.14994 0.4857 0.7212 0.0
C945 C 0.15778 0.49158 0.70195 0.0
C946 C 0.14166 0.50034 0.73456 0.0
C947 C 0.14083 0.52112 0.72888 0.0
C948 C 0.14877 0.52706 0.70976 0.0
H949 H 0.10045 0.63205 0.79395 0.0
H950 H 0.11178 0.60795 0.76735 0.0
C951 C 0.15712 0.51246 0.69643 0.0
C952 C 0.13233 0.53678 0.74313 0.0
H953 H 0.08957 0.54968 0.77063 0.0
C954 C 0.1451 0.55293 0.74952 0.0
C955 C 0.11193 0.53579 0.75055 0.0
C956 C 0.09713 0.51946 0.74345 0.0
C957 C 0.13824 0.56775 0.76361 0.0
C958 C 0.11797 0.56654 0.77129 0.0
C959 C 0.10511 0.55056 0.76471 0.0
C960 C 0.11016 0.58116 0.78692 0.0
C961 C 0.15294 0.58419 0.77066 0.0
C962 C 0.10493 0.574 0.80653 0.0
C963 C 0.09843 0.58767 0.82172 0.0
C964 C 0.0969 0.60882 0.81757 0.0
C965 C 0.10157 0.61589 0.7977 0.0
C966 C 0.10815 0.60216 0.78251 0.0
H967 H 0.16908 0.58051 0.76659 0.0
H968 H 0.14884 0.59895 0.76321 0.0
H969 H 0.15192 0.58636 0.78754 0.0
H970 H 0.10628 0.55784 0.81023 0.0
H971 H 0.09486 0.58164 0.83679 0.0
H972 H 0.9738 0.37986 0.79853 0.0
H973 H 0.99809 0.39391 0.77343 0.0
H974 H 0.03536 0.33951 0.77895 0.0
H975 H 0.01102 0.32519 0.80355 0.0
H976 H 0.04105 0.40168 0.77857 0.0
H977 H 0.02592 0.34515 0.71668 0.0
H978 H 0.00877 0.34871 0.73816 0.0
H979 H 0.03182 0.33383 0.74112 0.0
C980 C 0.98702 0.37078 0.7942 0.0
C981 C 0.99041 0.35136 0.80305 0.0
C982 C 1.00097 0.3789 0.77998 0.0
C983 C 0.01842 0.36767 0.7742 0.0
C984 C 0.02186 0.34833 0.783 0.0
H985 H 0.13022 0.40695 0.71235 0.0
H986 H 0.10445 0.39673 0.73779 0.0
C987 C 0.008 0.34024 0.79722 0.0
C988 C 0.03323 0.37615 0.7591 0.0
H989 H 0.05501 0.3667 0.7124 0.0
C990 C 0.04405 0.39412 0.76404 0.0
C991 C 0.03696 0.36636 0.74009 0.0
C992 C 0.02514 0.34755 0.73355 0.0
C993 C 0.05885 0.40233 0.75062 0.0
C994 C 0.06304 0.39214 0.73191 0.0
C995 C 0.05191 0.3744 0.72683 0.0
C996 C 0.07863 0.39972 0.71709 0.0
C997 C 0.06966 0.42195 0.75645 0.0
C998 C 0.07271 0.40467 0.69699 0.0
C999 C 0.08737 0.41036 0.68242 0.0
C1000 C 0.10833 0.41113 0.68758 0.0
C1001 C 0.11421 0.40657 0.70787 0.0
C1002 C 0.09949 0.40083 0.72247 0.0
H1003 H 0.06116 0.43049 0.76853 0.0
H1004 H 0.08512 0.41822 0.76254 0.0
H1005 H 0.07161 0.4321 0.74289 0.0
H1006 H 0.05672 0.40388 0.69249 0.0
H1007 H 0.08224 0.41383 0.66699 0.0
H1008 H 0.88904 0.41732 0.84404 0.0
H1009 H 0.88036 0.44275 0.81803 0.0
H1010 H 0.91109 0.40644 0.77198 0.0
H1011 H 0.91922 0.38042 0.7979 0.0
H1012 H 0.90291 0.46661 0.79377 0.0
H1013 H 0.85597 0.41429 0.74561 0.0
H1014 H 0.86499 0.40714 0.77077 0.0
H1015 H 0.88199 0.40596 0.74904 0.0
C1016 C 0.89399 0.41467 0.82839 0.0
C1017 C 0.90471 0.39672 0.82305 0.0
C1018 C 0.88903 0.4293 0.81351 0.0
C1019 C 0.89476 0.42641 0.79294 0.0
C1020 C 0.90603 0.40879 0.78763 0.0
H1021 H 0.88005 0.52743 0.70369 0.0
H1022 H 0.89514 0.50218 0.72724 0.0
C1023 C 0.9108 0.39398 0.8025 0.0
C1024 C 0.88859 0.44183 0.77724 0.0
H1025 H 0.8608 0.44796 0.73319 0.0
C1026 C 0.89375 0.46253 0.78048 0.0
C1027 C 0.87644 0.43655 0.76001 0.0
C1028 C 0.86934 0.41483 0.75619 0.0
C1029 C 0.88683 0.4781 0.76722 0.0
C1030 C 0.87487 0.47278 0.74987 0.0
C1031 C 0.87005 0.45204 0.74643 0.0
C1032 C 0.86607 0.48847 0.73577 0.0
C1033 C 0.8917 0.50013 0.77245 0.0
C1034 C 0.84479 0.48896 0.73236 0.0
C1035 C 0.83625 0.50311 0.71871 0.0
C1036 C 0.84875 0.51722 0.70822 0.0
C1037 C 0.87003 0.51694 0.71179 0.0
C1038 C 0.87864 0.50254 0.72528 0.0
H1039 H 0.89611 0.50192 0.78883 0.0
H1040 H 0.9048 0.50538 0.76293 0.0
H1041 H 0.87838 0.51028 0.76928 0.0
H1042 H 0.83474 0.47833 0.74028 0.0
H1043 H 0.81979 0.5031 0.71644 0.0
H1044 H 0.02714 0.62615 0.80061 0.0
H1045 H 1.00185 0.61295 0.77608 0.0
H1046 H 0.97266 0.67237 0.77424 0.0
H1047 H 0.9975 0.68534 0.79921 0.0
H1048 H 0.94477 0.64354 0.77736 0.0
H1049 H 0.99877 0.62139 0.71549 0.0
H1050 H 0.00416 0.60885 0.7394 0.0
H1051 H 0.0067 0.6363 0.73741 0.0
C1052 C 0.01545 0.63641 0.79478 0.0
C1053 C 0.01432 0.65678 0.80178 0.0
C1054 C 1.00103 0.62889 0.7807 0.0
C1055 C 0.98549 0.64174 0.77298 0.0
C1056 C 0.98446 0.66213 0.77992 0.0
H1057 H 0.91137 0.6236 0.66477 0.0
H1058 H 0.93705 0.63266 0.69043 0.0
C1059 C 0.99865 0.66954 0.79421 0.0
C1060 C 0.9699 0.63396 0.75815 0.0
H1061 H 0.96408 0.61114 0.71127 0.0
C1062 C 0.94901 0.63648 0.76289 0.0
C1063 C 0.97538 0.62492 0.73915 0.0
C1064 C 0.99746 0.62287 0.73243 0.0
C1065 C 0.9335 0.63044 0.74917 0.0
C1066 C 0.93896 0.62092 0.7304 0.0
C1067 C 0.95985 0.61823 0.72573 0.0
C1068 C 0.92336 0.61475 0.71484 0.0
C1069 C 0.91146 0.63506 0.75464 0.0
C1070 C 0.90717 0.60138 0.71984 0.0
C1071 C 0.89219 0.59641 0.70521 0.0
C1072 C 0.89338 0.60432 0.68515 0.0
C1073 C 0.90995 0.61718 0.68005 0.0
C1074 C 0.92471 0.62238 0.69473 0.0
H1075 H 0.91033 0.64733 0.76643 0.0
H1076 H 0.90258 0.63992 0.74093 0.0
H1077 H 0.90422 0.62104 0.76105 0.0
H1078 H 0.90606 0.59482 0.73507 0.0
H1079 H 0.87972 0.58637 0.70964 0.0
H1080 H 0.21235 0.09897 0.37567 0.0
H1081 H 0.23844 0.11026 0.40033 0.0
H1082 H 0.19412 0.1061 0.44931 0.0
H1083 H 0.16798 0.09509 0.42489 0.0
H1084 H 0.21487 0.14315 0.44866 0.0
H1085 H 0.2693 0.07767 0.44461 0.0
H1086 H 0.26294 0.08898 0.42026 0.0
H1087 H 0.24339 0.07616 0.43488 0.0
C1088 C 0.20821 0.10026 0.39173 0.0
C1089 C 0.18803 0.09618 0.39827 0.0
C1090 C 0.22317 0.10661 0.40582 0.0
C1091 C 0.21827 0.10885 0.4267 0.0
C1092 C 0.19825 0.10445 0.43328 0.0
H1093 H 0.299 0.12866 0.53111 0.0
H1094 H 0.27432 0.11521 0.50618 0.0
C1095 C 0.18332 0.09813 0.41926 0.0
C1096 C 0.23356 0.11682 0.44161 0.0
H1097 H 0.28 0.10673 0.46381 0.0
C1098 C 0.22911 0.13518 0.45199 0.0
C1099 C 0.25202 0.10629 0.44608 0.0
C1100 C 0.2572 0.08608 0.43604 0.0
C1101 C 0.24268 0.14339 0.46658 0.0
C1102 C 0.26136 0.13312 0.47071 0.0
C1103 C 0.26574 0.11465 0.4605 0.0
C1104 C 0.27644 0.14128 0.48572 0.0
C1105 C 0.23672 0.1628 0.47773 0.0
C1106 C 0.28593 0.16032 0.48241 0.0
C1107 C 0.29993 0.16811 0.49669 0.0
C1108 C 0.30482 0.15699 0.51456 0.0
C1109 C 0.29538 0.1378 0.51772 0.0
C1110 C 0.2814 0.13 0.5034 0.0
H1111 H 0.21998 0.16588 0.47659 0.0
H1112 H 0.241 0.16192 0.49421 0.0
H1113 H 0.24497 0.17599 0.47081 0.0
H1114 H 0.28254 0.16916 0.46874 0.0
H1115 H 0.30677 0.18297 0.4938 0.0
H1116 H 0.58733 0.29656 0.12674 0.0
H1117 H 0.59552 0.27045 0.10093 0.0
H1118 H 0.62902 0.31556 0.06587 0.0
H1119 H 0.6202 0.34177 0.091 0.0
H1120 H 0.60693 0.29277 0.04111 0.0
H1121 H 0.64916 0.24147 0.0944 0.0
H1122 H 0.623 0.24581 0.1018 0.0
H1123 H 0.64092 0.26684 0.10172 0.0
C1124 C 0.59639 0.3009 0.11349 0.0
C1125 C 0.60315 0.32126 0.11098 0.0
C1126 C 0.6012 0.28592 0.09882 0.0
C1127 C 0.61325 0.2909 0.0816 0.0
C1128 C 0.61974 0.31128 0.07899 0.0
H1129 H 0.68571 0.20968 0.00651 0.0
H1130 H 0.67185 0.23412 0.03138 0.0
C1131 C 0.61469 0.32628 0.09344 0.0
C1132 C 0.61925 0.2751 0.06619 0.0
H1133 H 0.64453 0.22952 0.06047 0.0
C1134 C 0.61514 0.27892 0.04535 0.0
C1135 C 0.63018 0.25712 0.07167 0.0
C1136 C 0.63627 0.25262 0.09357 0.0
C1137 C 0.6219 0.26552 0.02986 0.0
C1138 C 0.63249 0.24735 0.03536 0.0
C1139 C 0.63631 0.24336 0.05622 0.0
C1140 C 0.64073 0.23277 0.01978 0.0
C1141 C 0.61833 0.27146 0.00774 0.0
C1142 C 0.62791 0.2238 0.0049 0.0
C1143 C 0.63594 0.21006 0.99043 0.0
C1144 C 0.65681 0.20465 0.99089 0.0
C1145 C 0.66955 0.21346 0.0059 0.0
C1146 C 0.66162 0.22743 0.02011 0.0
H1147 H 0.6155 0.2882 0.00609 0.0
H1148 H 0.63165 0.26725 0.99798 0.0
H1149 H 0.60458 0.26329 1.00189 0.0
H1150 H 0.61165 0.22717 0.00464 0.0
H1151 H 0.62573 0.20322 0.97925 0.0
H1152 H 0.70346 0.82348 0.49545 0.0
H1153 H 0.72749 0.83739 0.4703 0.0
H1154 H 0.73408 0.89226 0.50667 0.0
H1155 H 0.70953 0.87868 0.5317 0.0
H1156 H 0.72833 0.8998 0.46417 0.0
H1157 H 0.78982 0.84248 0.47802 0.0
H1158 H 0.76517 0.83147 0.47244 0.0
H1159 H 0.76867 0.84616 0.49553 0.0
C1160 C 0.70989 0.83855 0.4981 0.0
C1161 C 0.70455 0.84992 0.51567 0.0
C1162 C 0.72379 0.84641 0.48377 0.0
C1163 C 0.73276 0.86575 0.48673 0.0
C1164 C 0.72741 0.87724 0.50415 0.0
H1165 H 0.83969 0.91186 0.42298 0.0
H1166 H 0.81415 0.90135 0.44822 0.0
C1167 C 0.71351 0.86938 0.51854 0.0
C1168 C 0.74762 0.87399 0.47154 0.0
H1169 H 0.794 0.86432 0.44917 0.0
C1170 C 0.74273 0.89211 0.46092 0.0
C1171 C 0.76647 0.86403 0.46748 0.0
C1172 C 0.77299 0.84506 0.47908 0.0
C1173 C 0.75608 0.90036 0.44609 0.0
C1174 C 0.77468 0.89006 0.44163 0.0
C1175 C 0.77966 0.87211 0.45247 0.0
C1176 C 0.78955 0.89785 0.4262 0.0
C1177 C 0.75035 0.92019 0.43559 0.0
C1178 C 0.78419 0.89952 0.40537 0.0
C1179 C 0.79881 0.90561 0.3908 0.0
C1180 C 0.8191 0.90996 0.39682 0.0
C1181 C 0.82426 0.90858 0.41775 0.0
C1182 C 0.80967 0.90255 0.43224 0.0
H1183 H 0.73835 0.92867 0.44423 0.0
H1184 H 0.76397 0.93028 0.43378 0.0
H1185 H 0.74423 0.91674 0.42007 0.0
H1186 H 0.76885 0.89562 0.40029 0.0
H1187 H 0.79434 0.90645 0.37481 0.0
H1188 H 0.34408 0.82424 0.01896 0.0
H1189 H 0.35871 0.8007 0.0442 0.0
H1190 H 0.37075 0.75667 0.99629 0.0
H1191 H 0.35614 0.78019 0.97089 0.0
H1192 H 0.34596 0.76214 0.05449 0.0
H1193 H 0.42586 0.75946 0.02532 0.0
H1194 H 0.4076 0.77857 0.01698 0.0
H1195 H 0.407 0.75313 0.00626 0.0
C1196 C 0.34977 0.80953 0.01376 0.0
C1197 C 0.34891 0.80412 0.99286 0.0
C1198 C 0.35824 0.79613 0.02822 0.0
C1199 C 0.36612 0.77704 0.02212 0.0
C1200 C 0.36524 0.77152 1.00129 0.0
H1201 H 0.41054 0.66851 0.08279 0.0
H1202 H 0.39977 0.69526 0.05887 0.0
C1203 C 0.35683 0.78497 0.98679 0.0
C1204 C 0.37443 0.76262 0.03772 0.0
H1205 H 0.4169 0.73473 0.05077 0.0
C1206 C 0.36153 0.75628 0.05379 0.0
C1207 C 0.39477 0.75502 0.0368 0.0
C1208 C 0.40969 0.76203 0.02053 0.0
C1209 C 0.3682 0.74212 0.06862 0.0
C1210 C 0.38842 0.73429 0.06751 0.0
C1211 C 0.40141 0.74078 0.05159 0.0
C1212 C 0.39601 0.71859 0.08217 0.0
C1213 C 0.35336 0.73514 0.08497 0.0
C1214 C 0.39789 0.72297 0.1032 0.0
C1215 C 0.40408 0.70767 0.11699 0.0
C1216 C 0.40849 0.68773 0.10996 0.0
C1217 C 0.40715 0.68364 0.08878 0.0
C1218 C 0.40103 0.69893 0.07505 0.0
H1219 H 0.33726 0.73933 0.0812 0.0
H1220 H 0.35425 0.71826 0.08714 0.0
H1221 H 0.35741 0.74255 0.09977 0.0
H1222 H 0.39441 0.73817 0.10896 0.0
H1223 H 0.40508 0.71138 0.13317 0.0
H1224 H 0.32361 0.84576 0.51871 0.0
H1225 H 0.29895 0.85908 0.54365 0.0
H1226 H 0.25514 0.86918 0.49508 0.0
H1227 H 0.27956 0.85542 0.47006 0.0
H1228 H 0.27919 0.89823 0.54484 0.0
H1229 H 0.2235 0.83407 0.53743 0.0
H1230 H 0.24956 0.83234 0.52816 0.0
H1231 H 0.23059 0.84617 0.51367 0.0
C1232 C 0.30867 0.8506 0.51332 0.0
C1233 C 0.30352 0.84931 0.49236 0.0
C1234 C 0.29465 0.85837 0.52759 0.0
C1235 C 0.27514 0.86487 0.52126 0.0
C1236 C 0.27003 0.86397 0.50034 0.0
H1237 H 0.16647 0.90936 0.58285 0.0
H1238 H 0.1927 0.89882 0.55833 0.0
C1239 C 0.28408 0.85626 0.48602 0.0
C1240 C 0.26013 0.87254 0.53659 0.0
H1241 H 0.21328 0.86236 0.55774 0.0
C1242 C 0.26479 0.89038 0.54773 0.0
C1243 C 0.2414 0.86223 0.54034 0.0
C1244 C 0.23596 0.84254 0.52943 0.0
C1245 C 0.25098 0.89847 0.56222 0.0
C1246 C 0.23221 0.88819 0.56593 0.0
C1247 C 0.22765 0.87026 0.55485 0.0
C1248 C 0.21683 0.89583 0.58094 0.0
C1249 C 0.25638 0.91824 0.57302 0.0
C1250 C 0.22167 0.89776 0.60188 0.0
C1251 C 0.20666 0.90391 0.61602 0.0
C1252 C 0.18649 0.90802 0.60948 0.0
C1253 C 0.18181 0.90628 0.58847 0.0
C1254 C 0.1968 0.90023 0.57439 0.0
H1255 H 0.26848 0.92689 0.56467 0.0
H1256 H 0.24268 0.92823 0.57469 0.0
H1257 H 0.26229 0.91467 0.58859 0.0
H1258 H 0.23691 0.89405 0.60738 0.0
H1259 H 0.21076 0.90501 0.6321 0.0
H1260 H 0.40693 0.29364 0.87556 0.0
H1261 H 0.39539 0.2676 0.90023 0.0
H1262 H 0.39902 0.31209 0.94907 0.0
H1263 H 0.41031 0.33814 0.92469 0.0
H1264 H 0.41367 0.25259 0.93739 0.0
H1265 H 0.33922 0.29147 0.95156 0.0
H1266 H 0.35545 0.29773 0.92999 0.0
H1267 H 0.36125 0.30767 0.95508 0.0
C1268 C 0.40536 0.29785 0.89157 0.0
C1269 C 0.40932 0.31806 0.89809 0.0
C1270 C 0.39879 0.28295 0.90564 0.0
C1271 C 0.396 0.28804 0.9264 0.0
C1272 C 0.40068 0.30796 0.93305 0.0
H1273 H 0.37836 0.20836 0.03222 0.0
H1274 H 0.39171 0.23238 0.00661 0.0
C1275 C 0.40722 0.32282 0.91906 0.0
C1276 C 0.38777 0.27275 0.94114 0.0
H1277 H 0.34778 0.26394 0.97387 0.0
C1278 C 0.39923 0.25499 0.94532 0.0
C1279 C 0.3688 0.27582 0.95127 0.0
C1280 C 0.35534 0.2941 0.94665 0.0
C1281 C 0.39242 0.24042 0.95972 0.0
C1282 C 0.3738 0.24387 0.97038 0.0
C1283 C 0.36216 0.26142 0.96586 0.0
C1284 C 0.36584 0.2293 0.98601 0.0
C1285 C 0.40505 0.22132 0.96317 0.0
C1286 C 0.3466 0.22005 0.98324 0.0
C1287 C 0.3388 0.20653 0.99797 0.0
C1288 C 0.35004 0.20202 0.01586 0.0
C1289 C 0.36922 0.21156 0.01873 0.0
C1290 C 0.37701 0.2251 0.00396 0.0
H1291 H 0.41583 0.21847 0.95027 0.0
H1292 H 0.41424 0.22318 0.97739 0.0
H1293 H 0.39505 0.20765 0.96508 0.0
H1294 H 0.33761 0.22323 0.96961 0.0
H1295 H 0.32386 0.19977 0.99538 0.0
H1296 H 0.83982 0.10157 0.58398 0.0
H1297 H 0.81363 0.11287 0.55976 0.0
H1298 H 0.76859 0.1132 0.60825 0.0
H1299 H 0.79477 0.10157 0.63273 0.0
H1300 H 0.75424 0.09598 0.57096 0.0
H1301 H 0.79111 0.17166 0.55827 0.0
H1302 H 0.80797 0.15028 0.55404 0.0
H1303 H 0.79802 0.15504 0.57935 0.0
C1304 C 0.82435 0.10396 0.58957 0.0
C1305 C 0.81947 0.10086 0.61039 0.0
C1306 C 0.80941 0.11052 0.57568 0.0
C1307 C 0.78927 0.11428 0.58228 0.0
C1308 C 0.7841 0.11053 0.60287 0.0
H1309 H 0.69997 0.18542 0.51319 0.0
H1310 H 0.72346 0.17201 0.53911 0.0
C1311 C 0.79908 0.10391 0.61684 0.0
C1312 C 0.77379 0.1224 0.56764 0.0
H1313 H 0.76411 0.16264 0.53544 0.0
C1314 C 0.75632 0.1106 0.56325 0.0
C1315 C 0.7764 0.14161 0.55782 0.0
C1316 C 0.79428 0.1555 0.56272 0.0
C1317 C 0.74162 0.11727 0.54891 0.0
C1318 C 0.74466 0.1361 0.53848 0.0
C1319 C 0.7619 0.1481 0.54325 0.0
C1320 C 0.73003 0.14385 0.52279 0.0
C1321 C 0.72283 0.10423 0.54527 0.0
C1322 C 0.72607 0.13262 0.50483 0.0
C1323 C 0.71249 0.1402 0.48998 0.0
C1324 C 0.70268 0.15926 0.49275 0.0
C1325 C 0.70694 0.17057 0.51066 0.0
C1326 C 0.72049 0.16297 0.52547 0.0
H1327 H 0.72007 0.09341 0.55817 0.0
H1328 H 0.70896 0.11392 0.5432 0.0
H1329 H 0.72505 0.09505 0.5311 0.0
H1330 H 0.73359 0.11803 0.50221 0.0
H1331 H 0.70951 0.13099 0.4765 0.0
H1332 H 0.62477 0.80142 0.02791 0.0
H1333 H 0.61071 0.7776 1.00241 0.0
H1334 H 0.67054 0.77221 0.97451 0.0
H1335 H 0.6844 0.79649 0.99955 0.0
H1336 H 0.64239 0.77673 0.94597 0.0
H1337 H 0.61595 0.71662 1.00009 0.0
H1338 H 0.60464 0.74124 0.00496 0.0
H1339 H 0.63188 0.73777 0.00812 0.0
C1340 C 0.63492 0.79496 0.01645 0.0
C1341 C 0.6557 0.80075 0.01575 0.0
C1342 C 0.6269 0.7813 1.00191 0.0
C1343 C 0.63962 0.77279 0.98669 0.0
C1344 C 0.66039 0.77854 0.98607 0.0
H1345 H 0.61933 0.66464 0.91394 0.0
H1346 H 0.62843 0.69054 0.93931 0.0
C1347 C 0.66832 0.79241 1.00038 0.0
C1348 C 0.63136 0.75826 0.97107 0.0
H1349 H 0.60655 0.71243 0.96521 0.0
C1350 C 0.63456 0.76266 0.95019 0.0
C1351 C 0.62128 0.73979 0.97654 0.0
C1352 C 0.61839 0.73344 0.99864 0.0
C1353 C 0.62827 0.74905 0.93468 0.0
C1354 C 0.61783 0.73078 0.94012 0.0
C1355 C 0.61437 0.72651 0.961 0.0
C1356 C 0.61165 0.71516 0.9246 0.0
C1357 C 0.63363 0.75405 0.91269 0.0
C1358 C 0.59893 0.72022 0.9079 0.0
C1359 C 0.59392 0.70542 0.89309 0.0
C1360 C 0.60119 0.68518 0.89496 0.0
C1361 C 0.61342 0.68006 0.912 0.0
C1362 C 0.61864 0.69488 0.92658 0.0
H1363 H 0.64626 0.76546 0.9117 0.0
H1364 H 0.63833 0.74005 0.90417 0.0
H1365 H 0.62 0.76071 0.90496 0.0
H1366 H 0.59287 0.73561 0.90629 0.0
H1367 H 0.58433 0.70984 0.88025 0.0
H1368 H 0.53838 0.2812 0.14903 0.0
H1369 H 0.51354 0.25677 0.13487 0.0
H1370 H 0.46492 0.30068 0.14409 0.0
H1371 H 0.48963 0.32529 0.15778 0.0
H1372 H 0.47853 0.241 0.15541 0.0
H1373 H 0.45665 0.28241 0.08418 0.0
H1374 H 0.47956 0.28851 0.09856 0.0
H1375 H 0.45495 0.29743 0.10725 0.0
C1376 C 0.52247 0.28577 0.14777 0.0
C1377 C 0.51603 0.30522 0.15459 0.0
C1378 C 0.50827 0.27176 0.13976 0.0
C1379 C 0.48742 0.277 0.13819 0.0
C1380 C 0.48097 0.29643 0.14485 0.0
H1381 H 0.37638 0.21158 0.10216 0.0
H1382 H 0.40155 0.23748 0.11281 0.0
C1383 C 0.49511 0.3104 0.15291 0.0
C1384 C 0.47224 0.26183 0.13055 0.0
H1385 H 0.4365 0.25335 0.09308 0.0
C1386 C 0.46943 0.24362 0.14171 0.0
C1387 C 0.46026 0.26539 0.11278 0.0
C1388 C 0.46307 0.28441 0.09986 0.0
C1389 C 0.45476 0.229 0.13576 0.0
C1390 C 0.44287 0.23247 0.1179 0.0
C1391 C 0.44562 0.25072 0.10676 0.0
C1392 C 0.42772 0.21716 0.11043 0.0
C1393 C 0.45179 0.21019 0.14896 0.0
C1394 C 0.43414 0.19733 0.10503 0.0
C1395 C 0.41984 0.18253 0.09904 0.0
C1396 C 0.39878 0.18727 0.09814 0.0
C1397 C 0.39245 0.20738 0.1028 0.0
C1398 C 0.40681 0.2222 0.10887 0.0
H1399 H 0.45779 0.21255 0.16476 0.0
H1400 H 0.43532 0.20593 0.14996 0.0
H1401 H 0.46027 0.19712 0.14207 0.0
H1402 H 0.45024 0.19324 0.10563 0.0
H1403 H 0.42532 0.16728 0.09534 0.0
H1404 H 0.37405 0.79487 0.90688 0.0
H1405 H 0.3997 0.76944 0.8963 0.0
H1406 H 0.44732 0.81509 0.90165 0.0
H1407 H 0.42191 0.84057 0.91186 0.0
H1408 H 0.44874 0.79481 0.86505 0.0
H1409 H 0.44356 0.73921 0.9294 0.0
H1410 H 0.41942 0.74478 0.9173 0.0
H1411 H 0.43284 0.76473 0.93084 0.0
C1412 C 0.39002 0.79943 0.90601 0.0
C1413 C 0.39589 0.8198 0.91016 0.0
C1414 C 0.40468 0.78484 0.90007 0.0
C1415 C 0.42548 0.79031 0.89838 0.0
C1416 C 0.43138 0.81051 0.90288 0.0
H1417 H 0.5303 0.70892 0.87859 0.0
H1418 H 0.50586 0.73385 0.89261 0.0
C1419 C 0.41679 0.82507 0.90873 0.0
C1420 C 0.44101 0.77545 0.89072 0.0
H1421 H 0.46331 0.72896 0.90041 0.0
C1422 C 0.45196 0.78044 0.87283 0.0
C1423 C 0.44539 0.75683 0.90101 0.0
C1424 C 0.43484 0.75109 0.92081 0.0
C1425 C 0.46693 0.76721 0.86478 0.0
C1426 C 0.47084 0.74828 0.87467 0.0
C1427 C 0.46017 0.74342 0.89277 0.0
C1428 C 0.48571 0.73322 0.86621 0.0
C1429 C 0.47861 0.77374 0.84586 0.0
C1430 C 0.48243 0.72451 0.8468 0.0
C1431 C 0.4964 0.7104 0.83871 0.0
C1432 C 0.51394 0.70455 0.84991 0.0
C1433 C 0.51714 0.71326 0.86943 0.0
C1434 C 0.5031 0.72739 0.87754 0.0
H1435 H 0.47785 0.79062 0.84349 0.0
H1436 H 0.49498 0.7691 0.84687 0.0
H1437 H 0.47178 0.76623 0.83219 0.0
H1438 H 0.46898 0.72857 0.83792 0.0
H1439 H 0.4935 0.7042 0.82359 0.0
H1440 H 0.18109 0.01822 0.65785 0.0
H1441 H 0.20518 0.04311 0.64359 0.0
H1442 H 0.24973 0.995 0.6346 0.0
H1443 H 0.22564 0.96994 0.64889 0.0
H1444 H 0.24325 0.05365 0.65785 0.0
H1445 H 0.24918 0.02286 0.5787 0.0
H1446 H 0.22931 0.01494 0.59631 0.0
H1447 H 0.2547 0.00428 0.5983 0.0
C1448 C 0.19602 0.01289 0.65292 0.0
C1449 C 0.20142 0.99204 0.65457 0.0
C1450 C 0.20975 0.02715 0.64465 0.0
C1451 C 0.22916 0.0209 0.63775 0.0
C1452 C 0.23465 1.00011 0.63936 0.0
H1453 H 0.33839 0.08228 0.59517 0.0
H1454 H 0.31182 0.05805 0.60568 0.0
C1455 C 0.22088 0.98579 0.64759 0.0
C1456 C 0.2439 0.03635 0.62971 0.0
H1457 H 0.27311 0.04889 0.58797 0.0
C1458 C 0.24965 0.0527 0.64252 0.0
C1459 C 0.25224 0.0351 0.60968 0.0
C1460 C 0.24592 0.01847 0.59486 0.0
C1461 C 0.2639 0.06754 0.63605 0.0
C1462 C 0.27239 0.06617 0.61612 0.0
C1463 C 0.26654 0.04992 0.60324 0.0
C1464 C 0.28803 0.08099 0.6087 0.0
C1465 C 0.2702 0.08422 0.65084 0.0
C1466 C 0.28335 0.10192 0.60646 0.0
C1467 C 0.29855 0.11589 0.60044 0.0
C1468 C 0.31869 0.10915 0.59651 0.0
C1469 C 0.3231 0.08806 0.59818 0.0
C1470 C 0.30792 0.07415 0.60416 0.0
H1471 H 0.26573 0.08055 0.66688 0.0
H1472 H 0.28705 0.08674 0.6503 0.0
H1473 H 0.26256 0.0988 0.64643 0.0
H1474 H 0.26799 0.10747 0.60954 0.0
H1475 H 0.29459 0.13199 0.59917 0.0
H1476 H 0.47541 0.29656 0.87764 0.0
H1477 H 0.50063 0.27197 0.89063 0.0
H1478 H 0.53847 0.28247 0.83736 0.0
H1479 H 0.51307 0.30652 0.82393 0.0
H1480 H 0.53409 0.24156 0.84626 0.0
H1481 H 0.55649 0.28485 0.91611 0.0
H1482 H 0.52941 0.28017 0.91396 0.0
H1483 H 0.54199 0.29631 0.89545 0.0
C1484 C 0.489 0.29355 0.86859 0.0
C1485 C 0.49219 0.30365 0.84974 0.0
C1486 C 0.50355 0.27967 0.87618 0.0
C1487 C 0.52163 0.27566 0.86516 0.0
C1488 C 0.52473 0.28547 0.84623 0.0
H1489 H 0.63145 0.21112 0.9071 0.0
H1490 H 0.60667 0.23705 0.89564 0.0
C1491 C 0.51021 0.29933 0.83863 0.0
C1492 C 0.53709 0.26079 0.87296 0.0
H1493 H 0.56938 0.25082 0.91312 0.0
C1494 C 0.54184 0.24362 0.86086 0.0
C1495 C 0.54742 0.26364 0.89187 0.0
C1496 C 0.54375 0.28233 0.90504 0.0
C1497 C 0.55634 0.22903 0.8673 0.0
C1498 C 0.56614 0.23149 0.88653 0.0
C1499 C 0.56171 0.24886 0.89848 0.0
C1500 C 0.58095 0.21607 0.89448 0.0
C1501 C 0.56126 0.21125 0.85328 0.0
C1502 C 0.5746 0.19583 0.89812 0.0
C1503 C 0.58868 0.18101 0.90461 0.0
C1504 C 0.60943 0.18614 0.90773 0.0
C1505 C 0.61563 0.20662 0.90474 0.0
C1506 C 0.60148 0.22146 0.89821 0.0
H1507 H 0.55671 0.21447 0.83716 0.0
H1508 H 0.57791 0.20761 0.85364 0.0
H1509 H 0.5527 0.19748 0.8585 0.0
H1510 H 0.55874 0.19143 0.89576 0.0
H1511 H 0.58329 0.16546 0.90693 0.0
H1512 H 0.79746 0.03323 0.62872 0.0
H1513 H 0.77268 0.00846 0.61505 0.0
H1514 H 0.7799 0.9712 0.66928 0.0
H1515 H 0.80418 0.99607 0.68326 0.0
H1516 H 0.77848 0.96582 0.607 0.0
H1517 H 0.71743 0.97936 0.66488 0.0
H1518 H 0.73854 0.99691 0.66108 0.0
H1519 H 0.7422 0.97374 0.67561 0.0
C1520 C 0.79357 0.01992 0.63786 0.0
C1521 C 0.80278 0.0167 0.65714 0.0
C1522 C 0.77954 0.00569 0.62995 0.0
C1523 C 0.77432 0.9881 0.64124 0.0
C1524 C 0.78351 0.98481 0.66042 0.0
H1525 H 0.71217 0.87663 0.60055 0.0
H1526 H 0.7378 0.90198 0.61136 0.0
C1527 C 0.79754 0.99897 0.66832 0.0
C1528 C 0.75936 0.97306 0.63296 0.0
H1529 H 0.71301 0.95072 0.64283 0.0
C1530 C 0.76412 0.96255 0.61476 0.0
C1531 C 0.74057 0.96897 0.64304 0.0
C1532 C 0.73423 0.98045 0.66213 0.0
C1533 C 0.75069 0.94779 0.60653 0.0
C1534 C 0.73216 0.94331 0.61693 0.0
C1535 C 0.72731 0.95405 0.63497 0.0
C1536 C 0.71721 0.92797 0.60916 0.0
C1537 C 0.75627 0.93737 0.58662 0.0
C1538 C 0.69713 0.93412 0.60448 0.0
C1539 C 0.68247 0.91971 0.59846 0.0
C1540 C 0.68753 0.89876 0.59707 0.0
C1541 C 0.70778 0.89264 0.60141 0.0
C1542 C 0.72248 0.90712 0.60748 0.0
H1543 H 0.76831 0.94596 0.57813 0.0
H1544 H 0.76229 0.92179 0.58996 0.0
H1545 H 0.7426 0.93571 0.57657 0.0
H1546 H 0.69273 0.95011 0.6057 0.0
H1547 H 0.66706 0.92502 0.59518 0.0
H1548 H 0.51121 0.69954 0.18411 0.0
H1549 H 0.5363 0.72385 0.17051 0.0
H1550 H 0.49918 0.73217 0.11636 0.0
H1551 H 0.47422 0.70739 0.12959 0.0
H1552 H 0.54152 0.72643 0.10808 0.0
H1553 H 0.52867 0.7864 0.16724 0.0
H1554 H 0.53435 0.7614 0.17739 0.0
H1555 H 0.51103 0.76543 0.16321 0.0
C1556 C 0.50839 0.70642 0.16926 0.0
C1557 C 0.49061 0.70152 0.158 0.0
C1558 C 0.52268 0.72047 0.16159 0.0
C1559 C 0.51948 0.73001 0.14254 0.0
C1560 C 0.50188 0.72506 0.13115 0.0
H1561 H 0.58107 0.83819 0.09659 0.0
H1562 H 0.55648 0.81225 0.1077 0.0
C1563 C 0.48754 0.71102 0.13883 0.0
C1564 C 0.53457 0.74506 0.13447 0.0
H1565 H 0.55679 0.79141 0.14471 0.0
C1566 C 0.54485 0.74067 0.11604 0.0
C1567 C 0.53873 0.7637 0.1448 0.0
C1568 C 0.52751 0.76967 0.16416 0.0
C1569 C 0.55939 0.75433 0.10778 0.0
C1570 C 0.5639 0.77274 0.11838 0.0
C1571 C 0.55344 0.7772 0.13669 0.0
C1572 C 0.57893 0.78796 0.11051 0.0
C1573 C 0.5695 0.74914 0.08761 0.0
C1574 C 0.59979 0.78291 0.10831 0.0
C1575 C 0.61397 0.79776 0.1019 0.0
C1576 C 0.60755 0.81796 0.09771 0.0
C1577 C 0.5866 0.82283 0.0997 0.0
C1578 C 0.57248 0.80801 0.10608 0.0
H1579 H 0.5609 0.73712 0.07911 0.0
H1580 H 0.5708 0.76297 0.07772 0.0
H1581 H 0.58522 0.74327 0.09058 0.0
H1582 H 0.60517 0.76762 0.11198 0.0
H1583 H 0.62998 0.79351 0.10059 0.0
H1584 H 0.181 0.9876 0.34658 0.0
H1585 H 0.20467 0.96223 0.36079 0.0
H1586 H 0.24941 0.00981 0.37148 0.0
H1587 H 0.22578 0.03532 0.35729 0.0
H1588 H 0.24297 0.95145 0.34742 0.0
H1589 H 0.24729 0.98141 0.42697 0.0
H1590 H 0.22793 0.9897 0.40896 0.0
H1591 H 0.25343 1.00023 0.4078 0.0
C1592 C 0.19589 0.9927 0.35187 0.0
C1593 C 0.20146 0.01355 0.35079 0.0
C1594 C 0.20937 0.97817 0.3601 0.0
C1595 C 0.22869 0.98415 0.36751 0.0
C1596 C 0.23438 0.00491 0.36634 0.0
H1597 H 0.33739 0.92298 0.41102 0.0
H1598 H 0.31078 0.94703 0.40019 0.0
C1599 C 0.22086 0.01948 0.35818 0.0
C1600 C 0.24313 0.96852 0.37572 0.0
H1601 H 0.27167 0.9557 0.41783 0.0
C1602 C 0.24911 0.95227 0.36288 0.0
C1603 C 0.2511 0.96959 0.39591 0.0
C1604 C 0.24448 0.98605 0.41079 0.0
C1605 C 0.26328 0.93741 0.36946 0.0
C1606 C 0.27149 0.93868 0.38952 0.0
C1607 C 0.26535 0.95477 0.40246 0.0
C1608 C 0.28715 0.92395 0.39703 0.0
C1609 C 0.26986 0.92085 0.35467 0.0
C1610 C 0.28257 0.903 0.39926 0.0
C1611 C 0.29779 0.88914 0.40548 0.0
C1612 C 0.31785 0.89601 0.4096 0.0
C1613 C 0.32217 0.91711 0.40787 0.0
C1614 C 0.30696 0.93092 0.40172 0.0
H1615 H 0.26545 0.9245 0.3386 0.0
H1616 H 0.28674 0.91854 0.35531 0.0
H1617 H 0.26239 0.90617 0.359 0.0
H1618 H 0.26727 0.89736 0.39604 0.0
H1619 H 0.2939 0.87303 0.40677 0.0
H1620 H 0.80565 0.01261 0.32218 0.0
H1621 H 0.78252 0.03839 0.33648 0.0
H1622 H 0.77507 1.00164 0.39103 0.0
H1623 H 0.79874 0.97604 0.3771 0.0
H1624 H 0.74205 0.03395 0.34793 0.0
H1625 H 0.7895 0.05822 0.41439 0.0
H1626 H 0.79976 0.04338 0.39334 0.0
H1627 H 0.78492 0.03106 0.41308 0.0
C1628 C 0.79933 0.01008 0.33732 0.0
C1629 C 0.8042 0.99225 0.34851 0.0
C1630 C 0.786 0.02481 0.34544 0.0
C1631 C 0.77732 0.02212 0.36496 0.0
C1632 C 0.78191 0.00424 0.3761 0.0
H1633 H 0.66953 0.08284 0.41262 0.0
H1634 H 0.69548 0.0586 0.40079 0.0
C1635 C 0.79524 0.98947 0.36799 0.0
C1636 C 0.76292 0.03773 0.37327 0.0
H1637 H 0.75525 0.07088 0.41323 0.0
C1638 C 0.74497 0.04206 0.36217 0.0
C1639 C 0.76689 0.04852 0.39172 0.0
C1640 C 0.7864 0.04525 0.40376 0.0
C1641 C 0.73069 0.05657 0.36921 0.0
C1642 C 0.73429 0.06682 0.38802 0.0
C1643 C 0.75244 0.06285 0.39892 0.0
C1644 C 0.71915 0.08149 0.39664 0.0
C1645 C 0.71193 0.06095 0.35633 0.0
C1646 C 0.72409 0.10234 0.39899 0.0
C1647 C 0.70925 0.11633 0.40586 0.0
C1648 C 0.68925 0.10965 0.41057 0.0
C1649 C 0.68469 0.0886 0.40895 0.0
C1650 C 0.69948 0.07469 0.40211 0.0
H1651 H 0.71402 0.0559 0.34018 0.0
H1652 H 0.69861 0.05252 0.36279 0.0
H1653 H 0.70822 0.07759 0.35641 0.0
H1654 H 0.73925 0.10787 0.39499 0.0
H1655 H 0.71332 0.13241 0.40703 0.0
H1656 H 0.95863 0.39636 0.92782 0.0
H1657 H 0.97806 0.40232 0.95967 0.0
H1658 H 0.9944 0.33821 0.96166 0.0
H1659 H 0.97557 0.33227 0.9299 0.0
H1660 H 0.9716 0.38336 0.99842 0.0
H1661 H 0.04963 0.36704 0.96929 0.0
H1662 H 0.02829 0.37252 0.95245 0.0
H1663 H 0.03174 0.34714 0.96282 0.0
C1664 C 0.96661 0.38363 0.93495 0.0
C1665 C 0.96547 0.36383 0.92641 0.0
C1666 C 0.9776 0.38703 0.95316 0.0
C1667 C 0.98789 0.37075 0.96288 0.0
C1668 C 0.98689 0.35107 0.95425 0.0
H1669 H 0.0441 0.3299 0.07123 0.0
H1670 H 0.02787 0.33668 0.0382 0.0
C1671 C 0.9759 0.34765 0.9362 0.0
C1672 C 0.99896 0.37378 0.98256 0.0
H1673 H 0.04485 0.36391 0.00587 0.0
C1674 C 0.98773 0.37957 1.00003 0.0
C1675 C 0.02002 0.36891 0.98459 0.0
C1676 C 0.03318 0.36376 0.96624 0.0
C1677 C 0.9967 0.37927 0.01967 0.0
C1678 C 0.01741 0.37317 0.02178 0.0
C1679 C 0.02891 0.36845 0.0042 0.0
C1680 C 0.02691 0.36961 0.04214 0.0
C1681 C 0.98373 0.38432 0.03817 0.0
C1682 C 0.03173 0.38593 0.05535 0.0
C1683 C 0.04127 0.38212 0.07428 0.0
C1684 C 0.04619 0.36193 0.08024 0.0
C1685 C 0.041 0.34567 0.067 0.0
C1686 C 0.03158 0.34949 0.04814 0.0
H1687 H 0.96735 0.38675 0.03409 0.0
H1688 H 0.98473 0.37175 0.04965 0.0
H1689 H 0.98963 0.3985 0.04551 0.0
H1690 H 0.0284 0.40159 0.05089 0.0
H1691 H 0.04519 0.395 0.08403 0.0
H1692 H 0.87123 0.49096 0.41435 0.0
H1693 H 0.87617 0.50859 0.44709 0.0
H1694 H 0.87002 0.45102 0.47917 0.0
H1695 H 0.866 0.43314 0.44649 0.0
H1696 H 0.84837 0.51118 0.47695 0.0
H1697 H 0.91846 0.47547 0.50883 0.0
H1698 H 0.91116 0.47273 0.48222 0.0
H1699 H 0.89971 0.45667 0.50158 0.0
C1700 C 0.87153 0.48192 0.4283 0.0
C1701 C 0.8682 0.46058 0.42771 0.0
C1702 C 0.87421 0.49207 0.44705 0.0
C1703 C 0.87371 0.48114 0.46564 0.0
C1704 C 0.87092 0.45978 0.46507 0.0
H1705 H 0.832 0.52355 0.5827 0.0
H1706 H 0.838 0.50725 0.54951 0.0
C1707 C 0.86832 0.4496 0.44634 0.0
C1708 C 0.87405 0.49224 0.48561 0.0
H1709 H 0.89674 0.49319 0.53297 0.0
C1710 C 0.85914 0.5074 0.48907 0.0
C1711 C 0.88823 0.48754 0.50142 0.0
C1712 C 0.90543 0.47236 0.49827 0.0
C1713 C 0.85748 0.51737 0.5081 0.0
C1714 C 0.87083 0.51176 0.5243 0.0
C1715 C 0.88633 0.49725 0.52063 0.0
C1716 C 0.86824 0.5203 0.54529 0.0
C1717 C 0.84134 0.53378 0.5107 0.0
C1718 C 0.88365 0.53231 0.55442 0.0
C1719 C 0.88027 0.54165 0.57354 0.0
C1720 C 0.86142 0.5391 0.58377 0.0
C1721 C 0.84649 0.52621 0.57499 0.0
C1722 C 0.84989 0.51688 0.55602 0.0
H1723 H 0.83656 0.54032 0.49568 0.0
H1724 H 0.82756 0.52697 0.51805 0.0
H1725 H 0.84698 0.54644 0.52062 0.0
H1726 H 0.89799 0.53501 0.54646 0.0
H1727 H 0.89206 0.55149 0.57991 0.0
H1728 H 0.07543 0.63586 0.94422 0.0
H1729 H 0.0587 0.63051 0.97745 0.0
H1730 H 0.99942 0.6341 0.94817 0.0
H1731 H 0.01605 0.63916 0.91492 0.0
H1732 H 0.0341 0.65678 0.99697 0.0
H1733 H 0.99125 0.58462 0.98412 0.0
H1734 H 0.01113 0.59332 0.9669 0.0
H1735 H 0.98555 0.60362 0.96504 0.0
C1736 C 0.05882 0.63527 0.94485 0.0
C1737 C 0.04707 0.63788 0.92691 0.0
C1738 C 0.04928 0.63216 0.96384 0.0
C1739 C 0.02778 0.63159 0.96534 0.0
C1740 C 0.01602 0.63388 0.94739 0.0
H1741 H 0.93771 0.64535 0.06018 0.0
H1742 H 0.95702 0.64015 0.02837 0.0
C1743 C 0.02556 0.63683 0.92837 0.0
C1744 C 0.01768 0.63035 0.98581 0.0
H1745 H 0.98089 0.6048 0.01319 0.0
C1746 C 0.02269 0.64522 1.00061 0.0
C1747 C 1.00276 0.61528 0.99059 0.0
C1748 C 0.9975 0.59819 0.97589 0.0
C1749 C 0.0127 0.64588 0.0197 0.0
C1750 C 0.99741 0.63117 0.02424 0.0
C1751 C 0.99263 0.61606 0.00965 0.0
C1752 C 0.9854 0.6321 0.04359 0.0
C1753 C 0.01804 0.6628 0.03461 0.0
C1754 C 0.99482 0.62872 0.06269 0.0
C1755 C 0.9838 0.63165 0.08093 0.0
C1756 C 0.9632 0.63812 0.08034 0.0
C1757 C 0.95362 0.64061 0.06114 0.0
C1758 C 0.96459 0.63755 0.04295 0.0
H1759 H 0.02761 0.67494 0.0274 0.0
H1760 H 0.00388 0.66997 0.04083 0.0
H1761 H 0.02674 0.65623 0.04769 0.0
H1762 H 0.01083 0.62431 0.06349 0.0
H1763 H 0.99164 0.62972 0.09547 0.0
H1764 H 0.11228 0.4626 0.58272 0.0
H1765 H 0.10738 0.48003 0.54963 0.0
H1766 H 0.1722 0.47482 0.53733 0.0
H1767 H 0.1772 0.45754 0.57013 0.0
H1768 H 0.12449 0.51615 0.53471 0.0
H1769 H 0.14712 0.45074 0.48555 0.0
H1770 H 0.14115 0.44774 0.51245 0.0
H1771 H 0.16618 0.45645 0.50459 0.0
C1772 C 0.12547 0.46518 0.57294 0.0
C1773 C 0.14508 0.45838 0.57894 0.0
C1774 C 0.12264 0.47508 0.55403 0.0
C1775 C 0.13935 0.47829 0.54079 0.0
C1776 C 0.15897 0.47194 0.54698 0.0
H1777 H 0.176 0.54265 0.43418 0.0
H1778 H 0.17133 0.52356 0.4661 0.0
C1779 C 0.1618 0.46204 0.56577 0.0
C1780 C 0.13664 0.48879 0.52071 0.0
H1781 H 0.14779 0.48407 0.46968 0.0
C1782 C 0.12921 0.50903 0.52042 0.0
C1783 C 0.14269 0.47943 0.50205 0.0
C1784 C 0.14953 0.45732 0.5011 0.0
C1785 C 0.1288 0.52052 0.50214 0.0
C1786 C 0.13589 0.51147 0.48374 0.0
C1787 C 0.14248 0.49099 0.48387 0.0
C1788 C 0.13818 0.52346 0.46454 0.0
C1789 C 0.12173 0.54255 0.50271 0.0
C1790 C 0.12104 0.52964 0.45303 0.0
C1791 C 0.12366 0.5406 0.43468 0.0
C1792 C 0.14346 0.54567 0.42768 0.0
C1793 C 0.16053 0.53936 0.43932 0.0
C1794 C 0.15791 0.52833 0.45749 0.0
H1795 H 0.11854 0.5479 0.51858 0.0
H1796 H 0.13355 0.55268 0.49575 0.0
H1797 H 0.10749 0.54417 0.49349 0.0
H1798 H 0.10569 0.52584 0.45816 0.0
H1799 H 0.11022 0.54525 0.42607 0.0
H1800 H 0.92451 0.96167 0.39394 0.0
H1801 H 0.95663 0.98098 0.39857 0.0
H1802 H 0.9667 0.97995 0.33318 0.0
H1803 H 0.93477 0.96091 0.3284 0.0
H1804 H 0.99919 0.9688 0.38257 0.0
H1805 H 0.96867 0.04236 0.35208 0.0
H1806 H 0.95229 0.0224 0.36222 0.0
H1807 H 0.96303 0.01997 0.33696 0.0
C1808 C 0.93359 0.9656 0.38057 0.0
C1809 C 0.92714 0.95968 0.36081 0.0
C1810 C 0.95193 0.97654 0.38325 0.0
C1811 C 0.96391 0.98197 0.36619 0.0
C1812 C 0.95759 0.97598 0.34652 0.0
H1813 H 0.07152 0.04539 0.32953 0.0
H1814 H 0.03897 0.02749 0.33393 0.0
C1815 C 0.93942 0.96496 0.34384 0.0
C1816 C 0.98305 0.99401 0.36864 0.0
H1817 H 0.00488 0.03976 0.35549 0.0
C1818 C 1.00045 0.98443 0.37696 0.0
C1819 C 0.98455 0.01435 0.36128 0.0
C1820 C 0.96613 0.02551 0.35277 0.0
C1821 C 0.01964 0.99435 0.37714 0.0
C1822 C 0.02128 0.0145 0.36914 0.0
C1823 C 0.00364 0.0243 0.36156 0.0
C1824 C 0.04132 0.02517 0.36698 0.0
C1825 C 0.03815 0.98281 0.38493 0.0
C1826 C 0.05352 0.02992 0.38413 0.0
C1827 C 0.07226 0.04023 0.38165 0.0
C1828 C 0.07897 0.04619 0.362 0.0
C1829 C 0.06666 0.04139 0.34492 0.0
C1830 C 0.04807 0.03105 0.34739 0.0
H1831 H 0.0351 0.9661 0.38642 0.0
H1832 H 0.05146 0.98501 0.37451 0.0
H1833 H 0.04243 0.98877 0.40029 0.0
H1834 H 0.04845 0.02589 0.39944 0.0
H1835 H 0.08131 0.04384 0.39512 0.0
H1836 H 0.5369 0.43146 0.17563 0.0
H1837 H 0.51938 0.46399 0.16987 0.0
H1838 H 0.53211 0.45973 0.10507 0.0
H1839 H 0.55006 0.427 0.11076 0.0
H1840 H 0.53805 0.49977 0.15181 0.0
H1841 H 0.4693 0.47274 0.10868 0.0
H1842 H 0.48471 0.45558 0.12409 0.0
H1843 H 0.49415 0.46452 0.09983 0.0
C1844 C 0.53612 0.43743 0.16013 0.0
C1845 C 0.54514 0.42673 0.14368 0.0
C1846 C 0.52597 0.45598 0.15686 0.0
C1847 C 0.5244 0.46425 0.13706 0.0
C1848 C 0.53296 0.45348 0.12045 0.0
H1849 H 0.46203 0.58183 0.11 0.0
H1850 H 0.48185 0.55007 0.10509 0.0
C1851 C 0.54319 0.43481 0.12373 0.0
C1852 C 0.51449 0.48456 0.13432 0.0
H1853 H 0.47084 0.50789 0.11691 0.0
C1854 C 0.52347 0.5016 0.14397 0.0
C1855 C 0.49556 0.48693 0.12396 0.0
C1856 C 0.4852 0.46901 0.1136 0.0
C1857 C 0.5137 0.52078 0.14414 0.0
C1858 C 0.49427 0.52291 0.13471 0.0
C1859 C 0.48571 0.50616 0.12419 0.0
C1860 C 0.48193 0.54187 0.13726 0.0
C1861 C 0.52408 0.53854 0.15478 0.0
C1862 C 0.47519 0.54755 0.15689 0.0
C1863 C 0.46395 0.56555 0.15974 0.0
C1864 C 0.45908 0.57828 0.14297 0.0
C1865 C 0.46565 0.57243 0.12323 0.0
C1866 C 0.47687 0.55428 0.12038 0.0
H1867 H 0.54092 0.53614 0.15601 0.0
H1868 H 0.5212 0.55316 0.14651 0.0
H1869 H 0.51783 0.54003 0.17056 0.0
H1870 H 0.47874 0.53807 0.1701 0.0
H1871 H 0.45943 0.5697 0.17519 0.0
H1872 H 0.09174 0.99055 0.64005 0.0
H1873 H 0.05873 0.00812 0.63613 0.0
H1874 H 0.02753 0.94975 0.63644 0.0
H1875 H 0.06045 0.9321 0.64056 0.0
H1876 H 0.02729 0.00615 0.60736 0.0
H1877 H 1.00021 0.97985 0.68378 0.0
H1878 H 0.02654 0.97725 0.67565 0.0
H1879 H 0.00744 0.95936 0.66686 0.0
C1880 C 0.07788 0.98144 0.63896 0.0
C1881 C 0.07868 0.95994 0.6408 0.0
C1882 C 0.05902 0.99151 0.6368 0.0
C1883 C 0.04063 0.98028 0.63644 0.0
C1884 C 0.04148 0.95876 0.63722 0.0
H1885 H 0.91188 0.01607 0.6386 0.0
H1886 H 0.94411 0.9973 0.63399 0.0
C1887 C 0.06029 0.9487 0.63952 0.0
C1888 C 0.02056 0.9911 0.63602 0.0
H1889 H 0.97622 0.99773 0.66323 0.0
C1890 C 0.01612 0.00432 0.61957 0.0
C1891 C 0.00602 0.98878 0.65202 0.0
C1892 C 0.01031 0.97571 0.67068 0.0
C1893 C 0.99742 0.01508 0.61857 0.0
C1894 C 0.98292 0.01269 0.63455 0.0
C1895 C 0.98731 0.9994 0.65092 0.0
C1896 C 0.96334 0.02433 0.63508 0.0
C1897 C 0.99322 0.02872 0.60034 0.0
C1898 C 0.96346 0.04578 0.63707 0.0
C1899 C 0.94508 0.05655 0.63968 0.0
C1900 C 0.9262 0.04608 0.64039 0.0
C1901 C 0.92611 0.02463 0.63782 0.0
C1902 C 0.94451 0.01387 0.63532 0.0
H1903 H 0.00334 0.02493 0.58715 0.0
H1904 H 0.97697 0.02741 0.59537 0.0
H1905 H 0.99611 0.04493 0.60471 0.0
H1906 H 0.97783 0.05413 0.63727 0.0
H1907 H 0.94566 0.07306 0.6415 0.0
H1908 H 0.52902 0.57765 0.83234 0.0
H1909 H 0.51227 0.54477 0.8385 0.0
H1910 H 0.53032 0.54714 0.90213 0.0
H1911 H 0.54756 0.58019 0.89599 0.0
H1912 H 0.53474 0.5088 0.85522 0.0
H1913 H 0.46666 0.5324 0.9014 0.0
H1914 H 0.4798 0.55018 0.88464 0.0
H1915 H 0.49158 0.5423 0.90822 0.0
C1916 C 0.5295 0.57122 0.84767 0.0
C1917 C 0.5399 0.58142 0.86362 0.0
C1918 C 0.5198 0.55247 0.85118 0.0
C1919 C 0.52007 0.54354 0.87074 0.0
C1920 C 0.52981 0.5539 0.88694 0.0
H1921 H 0.46183 0.42378 0.89735 0.0
H1922 H 0.4807 0.45608 0.90242 0.0
C1923 C 0.53962 0.57276 0.88342 0.0
C1924 C 0.51107 0.52283 0.8735 0.0
H1925 H 0.46872 0.49769 0.89152 0.0
C1926 C 0.52044 0.5063 0.86339 0.0
C1927 C 0.49253 0.51962 0.8843 0.0
C1928 C 0.48189 0.537 0.89525 0.0
C1929 C 0.51139 0.48678 0.86315 0.0
C1930 C 0.49225 0.4838 0.87294 0.0
C1931 C 0.48335 0.50006 0.88395 0.0
C1932 C 0.48052 0.46446 0.87029 0.0
C1933 C 0.52223 0.46957 0.85207 0.0
C1934 C 0.47393 0.45868 0.85063 0.0
C1935 C 0.46326 0.44035 0.84769 0.0
C1936 C 0.45878 0.4274 0.86439 0.0
C1937 C 0.46518 0.43334 0.88416 0.0
C1938 C 0.47585 0.45181 0.8871 0.0
H1939 H 0.53899 0.47251 0.85082 0.0
H1940 H 0.51985 0.45467 0.86001 0.0
H1941 H 0.51597 0.46827 0.83628 0.0
H1942 H 0.47714 0.46835 0.83748 0.0
H1943 H 0.45886 0.43616 0.83222 0.0
H1944 H 0.39497 0.08074 0.04602 0.0
H1945 H 0.39887 0.04863 0.02653 0.0
H1946 H 0.33329 0.04002 0.02758 0.0
H1947 H 0.32924 0.07195 0.04673 0.0
H1948 H 0.38309 0.00684 0.0383 0.0
H1949 H 0.35081 0.0371 0.96548 0.0
H1950 H 0.36096 0.05357 0.98535 0.0
H1951 H 0.33579 0.04261 0.98796 0.0
C1952 C 0.38141 0.072 0.04203 0.0
C1953 C 0.36181 0.07884 0.048 0.0
C1954 C 0.38367 0.05366 0.03099 0.0
C1955 C 0.36635 0.04208 0.0255 0.0
C1956 C 0.34683 0.04882 0.03154 0.0
H1957 H 0.32688 0.93413 0.96457 0.0
H1958 H 0.33212 0.96671 0.9822 0.0
C1959 C 0.34457 0.06699 0.04265 0.0
C1960 C 0.36835 0.02288 0.01348 0.0
H1961 H 0.35347 1.00077 0.96839 0.0
C1962 C 0.37694 0.0055 0.02288 0.0
C1963 C 0.36031 0.02127 0.9934 0.0
C1964 C 0.35159 0.03966 0.98232 0.0
C1965 C 0.37667 0.98624 0.01311 0.0
C1966 C 0.36792 0.98449 0.99329 0.0
C1967 C 0.36011 1.0021 0.98361 0.0
C1968 C 0.36524 0.96439 0.98288 0.0
C1969 C 0.3848 0.96777 0.02447 0.0
C1970 C 0.38214 0.9522 0.97733 0.0
C1971 C 0.37918 0.93347 0.96715 0.0
C1972 C 0.35927 0.92674 0.96214 0.0
C1973 C 0.34243 0.939 0.96782 0.0
C1974 C 0.3454 0.9576 0.97801 0.0
H1975 H 0.38712 0.97097 0.04106 0.0
H1976 H 0.37416 0.95455 0.02289 0.0
H1977 H 0.39981 0.96326 0.01781 0.0
H1978 H 0.39762 0.9573 0.9806 0.0
H1979 H 0.39247 0.92446 0.96283 0.0
H1980 H 0.43647 0.1763 0.54707 0.0
H1981 H 0.46905 0.17146 0.52932 0.0
H1982 H 0.45867 0.10611 0.52764 0.0
H1983 H 0.42577 0.11088 0.54542 0.0
H1984 H 0.50284 0.14958 0.54149 0.0
H1985 H 0.47222 0.11887 0.46791 0.0
H1986 H 0.45599 0.13092 0.48685 0.0
H1987 H 0.46479 0.10506 0.4906 0.0
C1988 C 0.44114 0.16085 0.54309 0.0
C1989 C 0.42856 0.14395 0.54779 0.0
C1990 C 0.45975 0.15812 0.53284 0.0
C1991 C 0.46625 0.13845 0.52697 0.0
C1992 C 0.4538 0.12148 0.53166 0.0
H1993 H 0.58321 0.11083 0.46373 0.0
H1994 H 0.55122 0.10625 0.4833 0.0
C1995 C 0.43504 0.12421 0.54187 0.0
C1996 C 0.48627 0.13604 0.51628 0.0
H1997 H 0.50816 0.12235 0.47056 0.0
C1998 C 0.504 0.14346 0.52604 0.0
C1999 C 0.48781 0.12799 0.49614 0.0
C2000 C 0.4692 0.12039 0.48463 0.0
C2001 C 0.52308 0.14357 0.51604 0.0
C2002 C 0.52447 0.13616 0.49572 0.0
C2003 C 0.50698 0.12798 0.48619 0.0
C2004 C 0.54356 0.13854 0.4836 0.0
C2005 C 0.54159 0.152 0.5271 0.0
C2006 C 0.54963 0.15815 0.47717 0.0
C2007 C 0.56772 0.16079 0.46599 0.0
C2008 C 0.58016 0.14386 0.461 0.0
C2009 C 0.57399 0.12417 0.46741 0.0
C2010 C 0.55573 0.12151 0.4785 0.0
H2011 H 0.53904 0.15297 0.54394 0.0
H2012 H 0.5553 0.14231 0.52415 0.0
H2013 H 0.54491 0.16767 0.5213 0.0
H2014 H 0.54039 0.17146 0.4809 0.0
H2015 H 0.57215 0.17619 0.46157 0.0
H2016 H 0.64045 0.09247 0.99189 0.0
H2017 H 0.6367 0.05941 0.00947 0.0
H2018 H 0.63892 0.02812 0.95119 0.0
H2019 H 0.64283 0.06104 0.93356 0.0
H2020 H 0.60839 0.02728 0.00663 0.0
H2021 H 0.68605 1.00171 0.98271 0.0
H2022 H 0.67753 0.02792 0.97998 0.0
H2023 H 0.66969 0.00878 0.96169 0.0
C2024 C 0.63982 0.07857 0.9828 0.0
C2025 C 0.64215 0.07937 0.96133 0.0
C2026 C 0.63776 0.05968 0.99287 0.0
C2027 C 0.63799 0.04126 0.98168 0.0
C2028 C 0.63925 0.04209 0.96019 0.0
H2029 H 0.6407 0.91208 0.01519 0.0
H2030 H 0.63683 0.94477 0.9971 0.0
C2031 C 0.64143 0.06092 0.95013 0.0
C2032 C 0.63763 0.02116 0.9925 0.0
H2033 H 0.66524 0.97712 0.99949 0.0
C2034 C 0.62083 0.01631 0.00512 0.0
C2035 C 0.65392 0.00689 0.99058 0.0
C2036 C 0.67292 0.01161 0.97818 0.0
C2037 C 0.61972 0.99744 0.01556 0.0
C2038 C 0.63596 0.98316 0.01352 0.0
C2039 C 0.65273 0.98802 1.00091 0.0
C2040 C 0.63623 0.96326 0.02467 0.0
C2041 C 0.60105 0.99277 0.02843 0.0
C2042 C 0.63704 0.96277 0.0462 0.0
C2043 C 0.63919 0.94409 0.0566 0.0
C2044 C 0.64064 0.92551 0.04567 0.0
C2045 C 0.63933 0.92604 0.02411 0.0
C2046 C 0.63726 0.94473 0.01373 0.0
H2047 H 0.58786 1.00276 0.02428 0.0
H2048 H 0.59636 0.97648 0.02669 0.0
H2049 H 0.60475 0.99547 0.04484 0.0
H2050 H 0.63663 0.97689 0.05496 0.0
H2051 H 0.64003 0.94422 0.0732 0.0
H2052 H 0.4302 0.82795 0.46818 0.0
H2053 H 0.46261 0.83229 0.48648 0.0
H2054 H 0.46064 0.89744 0.4746 0.0
H2055 H 0.42759 0.89317 0.45695 0.0
H2056 H 0.49804 0.84447 0.47302 0.0
H2057 H 0.47368 0.89808 0.53444 0.0
H2058 H 0.45555 0.8853 0.51789 0.0
H2059 H 0.46902 0.90777 0.50909 0.0
C2060 C 0.43665 0.84321 0.46957 0.0
C2061 C 0.42645 0.86023 0.46114 0.0
C2062 C 0.45517 0.84569 0.48004 0.0
C2063 C 0.46405 0.86522 0.48217 0.0
C2064 C 0.4539 0.88229 0.47366 0.0
H2065 H 0.59416 0.87061 0.51612 0.0
H2066 H 0.56185 0.87467 0.49777 0.0
C2067 C 0.4351 0.87984 0.46346 0.0
C2068 C 0.4843 0.86729 0.49258 0.0
H2069 H 0.50935 0.89121 0.53199 0.0
C2070 C 0.50049 0.8547 0.48592 0.0
C2071 C 0.48749 0.88049 0.50956 0.0
C2072 C 0.47047 0.89353 0.51832 0.0
C2073 C 0.51958 0.85463 0.4959 0.0
C2074 C 0.52296 0.86819 0.51256 0.0
C2075 C 0.50686 0.88099 0.51909 0.0
C2076 C 0.54265 0.86839 0.52415 0.0
C2077 C 0.53557 0.83934 0.48898 0.0
C2078 C 0.54271 0.86488 0.54541 0.0
C2079 C 0.56121 0.86325 0.55617 0.0
C2080 C 0.58016 0.86487 0.54587 0.0
C2081 C 0.58 0.86935 0.52471 0.0
C2082 C 0.56146 0.87133 0.51405 0.0
H2083 H 0.5286 0.82641 0.48032 0.0
H2084 H 0.54665 0.8471 0.47863 0.0
H2085 H 0.54414 0.83292 0.50224 0.0
H2086 H 0.5284 0.86281 0.55364 0.0
H2087 H 0.56062 0.86037 0.57252 0.0
H2088 H 0.10798 0.31222 0.22337 0.0
H2089 H 0.11989 0.28812 0.24997 0.0
H2090 H 0.10739 0.23728 0.20953 0.0
H2091 H 0.0955 0.26092 0.18316 0.0
H2092 H 0.09581 0.2531 0.26699 0.0
H2093 H 0.16808 0.22896 0.22899 0.0
H2094 H 0.1551 0.25269 0.22281 0.0
H2095 H 0.1459 0.22879 0.21258 0.0
C2096 C 0.10786 0.29591 0.22017 0.0
C2097 C 0.10081 0.2885 0.20115 0.0
C2098 C 0.11465 0.28219 0.23535 0.0
C2099 C 0.11476 0.26097 0.23156 0.0
C2100 C 0.10772 0.25362 0.21263 0.0
H2101 H 0.13713 0.14416 0.28664 0.0
H2102 H 0.13114 0.17393 0.26457 0.0
C2103 C 0.10082 0.2672 0.19761 0.0
C2104 C 0.12146 0.24612 0.24743 0.0
H2105 H 0.15572 0.2074 0.25593 0.0
C2106 C 0.1091 0.24332 0.26483 0.0
C2107 C 0.13872 0.23333 0.24441 0.0
C2108 C 0.15285 0.23615 0.22628 0.0
C2109 C 0.11298 0.22734 0.27882 0.0
C2110 C 0.12994 0.21415 0.27548 0.0
C2111 C 0.14269 0.21745 0.25842 0.0
C2112 C 0.13419 0.19626 0.28897 0.0
C2113 C 0.09829 0.22412 0.29645 0.0
C2114 C 0.13826 0.19893 0.30995 0.0
C2115 C 0.14166 0.18192 0.3226 0.0
C2116 C 0.14127 0.1619 0.3145 0.0
C2117 C 0.1377 0.15933 0.29336 0.0
C2118 C 0.1342 0.17634 0.28074 0.0
H2119 H 0.08354 0.23233 0.29401 0.0
H2120 H 0.095 0.20755 0.29868 0.0
H2121 H 0.10532 0.2301 0.31076 0.0
H2122 H 0.13886 0.21417 0.31654 0.0
H2123 H 0.14478 0.18447 0.33872 0.0
H2124 H 0.76443 0.425 0.31956 0.0
H2125 H 0.74036 0.41315 0.29356 0.0
H2126 H 0.78874 0.37915 0.26385 0.0
H2127 H 0.81319 0.39097 0.29011 0.0
H2128 H 0.74319 0.41918 0.25033 0.0
H2129 H 0.74121 0.33662 0.2723 0.0
H2130 H 0.75071 0.35629 0.28937 0.0
H2131 H 0.76606 0.34794 0.2681 0.0
C2132 C 0.77006 0.41498 0.30755 0.0
C2133 C 0.79077 0.4089 0.30695 0.0
C2134 C 0.75623 0.40823 0.29267 0.0
C2135 C 0.76269 0.39512 0.27691 0.0
C2136 C 0.78339 0.38906 0.27607 0.0
H2137 H 0.68451 0.37391 0.16979 0.0
H2138 H 0.71429 0.37975 0.19189 0.0
C2139 C 0.79735 0.39593 0.29099 0.0
C2140 C 0.74759 0.38834 0.26126 0.0
H2141 H 0.72007 0.34684 0.24471 0.0
C2142 C 0.73828 0.40333 0.24893 0.0
C2143 C 0.74104 0.3677 0.25972 0.0
C2144 C 0.75011 0.35114 0.27313 0.0
C2145 C 0.72239 0.39833 0.23527 0.0
C2146 C 0.71582 0.37769 0.23367 0.0
C2147 C 0.72525 0.36262 0.24587 0.0
C2148 C 0.69856 0.37178 0.22002 0.0
C2149 C 0.71227 0.41533 0.22319 0.0
C2150 C 0.68008 0.36451 0.22839 0.0
C2151 C 0.66299 0.36114 0.21577 0.0
C2152 C 0.66412 0.36498 0.19454 0.0
C2153 C 0.683 0.37124 0.18612 0.0
C2154 C 0.70005 0.37454 0.19872 0.0
H2155 H 0.716 0.43073 0.22949 0.0
H2156 H 0.71772 0.41478 0.20706 0.0
H2157 H 0.69533 0.41345 0.2231 0.0
H2158 H 0.67862 0.36223 0.2448 0.0
H2159 H 0.6487 0.35642 0.22279 0.0
H2160 H 0.86046 0.82149 0.33247 0.0
H2161 H 0.86851 0.79309 0.30922 0.0
H2162 H 0.88165 0.83629 0.26086 0.0
H2163 H 0.87399 0.8648 0.28409 0.0
H2164 H 0.85061 0.78345 0.26941 0.0
H2165 H 0.93415 0.80001 0.26553 0.0
H2166 H 0.91779 0.81028 0.28542 0.0
H2167 H 0.91772 0.82154 0.26025 0.0
C2168 C 0.8652 0.82497 0.31694 0.0
C2169 C 0.86674 0.84545 0.3102 0.0
C2170 C 0.86965 0.80871 0.30364 0.0
C2171 C 0.87591 0.81261 0.28342 0.0
C2172 C 0.87709 0.83298 0.2765 0.0
H2173 H 0.91499 0.74578 0.17761 0.0
H2174 H 0.90499 0.77053 0.20371 0.0
C2175 C 0.87253 0.84925 0.28975 0.0
C2176 C 0.8814 0.79539 0.26958 0.0
H2177 H 0.92127 0.77515 0.24231 0.0
C2178 C 0.86607 0.78149 0.26357 0.0
C2179 C 0.90161 0.79286 0.26213 0.0
C2180 C 0.91885 0.80683 0.26876 0.0
C2181 C 0.87026 0.76557 0.24961 0.0
C2182 C 0.89042 0.76329 0.24182 0.0
C2183 C 0.90582 0.77692 0.24826 0.0
C2184 C 0.8957 0.74775 0.226 0.0
C2185 C 0.85295 0.75182 0.24271 0.0
C2186 C 0.89383 0.72659 0.22983 0.0
C2187 C 0.8995 0.71225 0.21478 0.0
C2188 C 0.90728 0.71888 0.19576 0.0
C2189 C 0.90909 0.74008 0.19207 0.0
C2190 C 0.90339 0.75431 0.207 0.0
H2191 H 0.83769 0.75836 0.2466 0.0
H2192 H 0.85364 0.7492 0.22587 0.0
H2193 H 0.85436 0.73672 0.25046 0.0
H2194 H 0.88829 0.72116 0.24453 0.0
H2195 H 0.89801 0.69603 0.21813 0.0
H2196 H 0.36162 0.63312 0.22097 0.0
H2197 H 0.33218 0.62633 0.24326 0.0
H2198 H 0.29111 0.63688 0.19242 0.0
H2199 H 0.32047 0.64356 0.17003 0.0
H2200 H 0.29928 0.6506 0.2538 0.0
H2201 H 0.27244 0.58096 0.21253 0.0
H2202 H 0.29726 0.59234 0.20789 0.0
H2203 H 0.27459 0.60347 0.19677 0.0
C2204 C 0.34634 0.63412 0.21455 0.0
C2205 C 0.34343 0.63872 0.19366 0.0
C2206 C 0.32951 0.63016 0.2273 0.0
C2207 C 0.30944 0.63071 0.21943 0.0
C2208 C 0.30646 0.63581 0.19872 0.0
H2209 H 0.19298 0.60608 0.28448 0.0
H2210 H 0.21768 0.61773 0.25833 0.0
C2211 C 0.32327 0.63966 0.18594 0.0
C2212 C 0.29171 0.62605 0.23301 0.0
H2213 H 0.25191 0.59256 0.24009 0.0
C2214 C 0.28889 0.63796 0.25074 0.0
C2215 C 0.27808 0.60959 0.22897 0.0
C2216 C 0.28078 0.59572 0.21061 0.0
C2217 C 0.27301 0.6337 0.26467 0.0
C2218 C 0.25969 0.617 0.26085 0.0
C2219 C 0.26209 0.60544 0.24286 0.0
C2220 C 0.24453 0.61013 0.27635 0.0
C2221 C 0.27069 0.64695 0.28352 0.0
C2222 C 0.25149 0.60174 0.29488 0.0
C2223 C 0.23755 0.59498 0.30964 0.0
C2224 C 0.21628 0.59648 0.30624 0.0
C2225 C 0.20926 0.60477 0.28756 0.0
C2226 C 0.22332 0.61142 0.27265 0.0
H2227 H 0.2786 0.66194 0.28172 0.0
H2228 H 0.25423 0.64977 0.28697 0.0
H2229 H 0.27756 0.63891 0.29689 0.0
H2230 H 0.26779 0.60035 0.2979 0.0
H2231 H 0.24354 0.58867 0.32382 0.0
H2232 H 0.07305 0.73992 0.81386 0.0
H2233 H 0.08483 0.765 0.78878 0.0
H2234 H 0.13162 0.72283 0.76834 0.0
H2235 H 0.11936 0.69722 0.7932 0.0
H2236 H 0.12123 0.78343 0.78692 0.0
H2237 H 0.10739 0.741 0.71428 0.0
H2238 H 0.09718 0.73253 0.73858 0.0
H2239 H 0.12365 0.72793 0.7323 0.0
C2240 C 0.08572 0.73585 0.80389 0.0
C2241 C 0.09526 0.71657 0.80548 0.0
C2242 C 0.09247 0.75025 0.78957 0.0
C2243 C 0.10904 0.74582 0.77655 0.0
C2244 C 0.11854 0.72648 0.77792 0.0
H2245 H 0.16699 0.84938 0.71109 0.0
H2246 H 0.16153 0.82007 0.7341 0.0
C2247 C 0.11158 0.71188 0.79216 0.0
C2248 C 0.11656 0.76196 0.76223 0.0
H2249 H 0.12327 0.77346 0.7115 0.0
C2250 C 0.12177 0.78122 0.77042 0.0
C2251 C 0.11713 0.75912 0.7407 0.0
C2252 C 0.11088 0.73911 0.73087 0.0
C2253 C 0.12695 0.79786 0.75772 0.0
C2254 C 0.1276 0.79501 0.73619 0.0
C2255 C 0.12289 0.77561 0.72801 0.0
C2256 C 0.13164 0.8123 0.7218 0.0
C2257 C 0.13074 0.81852 0.7675 0.0
C2258 C 0.117 0.81732 0.7068 0.0
C2259 C 0.12023 0.83383 0.6935 0.0
C2260 C 0.13814 0.84578 0.69495 0.0
C2261 C 0.1529 0.84065 0.70984 0.0
C2262 C 0.14978 0.82393 0.72301 0.0
H2263 H 0.12448 0.81928 0.78335 0.0
H2264 H 0.14752 0.82131 0.7684 0.0
H2265 H 0.12372 0.83104 0.75831 0.0
H2266 H 0.10288 0.80863 0.70557 0.0
H2267 H 0.10848 0.8375 0.68235 0.0
H2268 H 0.32149 0.36113 0.8375 0.0
H2269 H 0.29202 0.36678 0.81495 0.0
H2270 H 0.33286 0.37454 0.76344 0.0
H2271 H 0.36238 0.36885 0.78587 0.0
H2272 H 0.28231 0.40046 0.79232 0.0
H2273 H 0.29202 0.33358 0.74084 0.0
H2274 H 0.3056 0.33591 0.76489 0.0
H2275 H 0.31476 0.34903 0.74235 0.0
C2276 C 0.32422 0.36404 0.82137 0.0
C2277 C 0.34434 0.36449 0.8135 0.0
C2278 C 0.30733 0.36717 0.80848 0.0
C2279 C 0.31018 0.37074 0.78743 0.0
C2280 C 0.33023 0.37126 0.77952 0.0
H2281 H 0.24437 0.41236 0.68334 0.0
H2282 H 0.26827 0.40081 0.70962 0.0
C2283 C 0.34713 0.36804 0.79239 0.0
C2284 C 0.29227 0.37487 0.7739 0.0
H2285 H 0.26964 0.36029 0.72889 0.0
C2286 C 0.27934 0.39148 0.77861 0.0
C2287 C 0.28831 0.36307 0.75609 0.0
C2288 C 0.30078 0.34428 0.75084 0.0
C2289 C 0.26321 0.39722 0.76547 0.0
C2290 C 0.25984 0.38594 0.74725 0.0
C2291 C 0.2723 0.36893 0.74288 0.0
C2292 C 0.24477 0.39268 0.73158 0.0
C2293 C 0.25046 0.41584 0.77064 0.0
C2294 C 0.22351 0.39183 0.73517 0.0
C2295 C 0.20965 0.39842 0.72004 0.0
C2296 C 0.21689 0.40601 0.70116 0.0
C2297 C 0.2382 0.40671 0.69771 0.0
C2298 C 0.25195 0.40005 0.7127 0.0
H2299 H 0.25672 0.42444 0.78396 0.0
H2300 H 0.24961 0.42634 0.75723 0.0
H2301 H 0.23459 0.41094 0.7744 0.0
H2302 H 0.21768 0.38599 0.7496 0.0
H2303 H 0.19333 0.39763 0.72313 0.0
H2304 H 0.93242 0.26626 0.81498 0.0
H2305 H 0.92033 0.24166 0.78958 0.0
H2306 H 0.87312 0.28408 0.77066 0.0
H2307 H 0.88561 0.30919 0.7959 0.0
H2308 H 0.88344 0.22334 0.78779 0.0
H2309 H 0.8975 0.26719 0.71595 0.0
H2310 H 0.90799 0.27495 0.74038 0.0
H2311 H 0.88151 0.27991 0.73446 0.0
C2312 C 0.91957 0.27048 0.8053 0.0
C2313 C 0.90999 0.28969 0.80741 0.0
C2314 C 0.91265 0.25636 0.7908 0.0
C2315 C 0.89589 0.26102 0.7781 0.0
C2316 C 0.88632 0.28028 0.78001 0.0
H2317 H 0.83853 0.15871 0.71042 0.0
H2318 H 0.84347 0.18791 0.73365 0.0
C2319 C 0.89343 0.29459 0.79446 0.0
C2320 C 0.88831 0.24522 0.7635 0.0
H2321 H 0.88204 0.23463 0.71253 0.0
C2322 C 0.88301 0.22584 0.77132 0.0
C2323 C 0.88788 0.24847 0.74202 0.0
C2324 C 0.89418 0.26868 0.73262 0.0
C2325 C 0.8779 0.20945 0.7583 0.0
C2326 C 0.87748 0.21267 0.73682 0.0
C2327 C 0.88225 0.23221 0.729 0.0
C2328 C 0.87369 0.19562 0.72214 0.0
C2329 C 0.87396 0.18862 0.76768 0.0
C2330 C 0.88869 0.19064 0.7075 0.0
C2331 C 0.88578 0.17416 0.6941 0.0
C2332 C 0.86783 0.16223 0.69508 0.0
C2333 C 0.85266 0.16741 0.70954 0.0
C2334 C 0.85548 0.18407 0.72282 0.0
H2335 H 0.87986 0.18762 0.78366 0.0
H2336 H 0.85718 0.18576 0.76814 0.0
H2337 H 0.88123 0.17628 0.75845 0.0
H2338 H 0.90287 0.19929 0.70669 0.0
H2339 H 0.89784 0.17047 0.6833 0.0
H2340 H 0.66505 0.60701 0.81681 0.0
H2341 H 0.69537 0.60496 0.79516 0.0
H2342 H 0.69114 0.66983 0.78264 0.0
H2343 H 0.66044 0.67198 0.80437 0.0
H2344 H 0.69718 0.6485 0.74816 0.0
H2345 H 0.75366 0.62216 0.80548 0.0
H2346 H 0.73156 0.60579 0.80552 0.0
H2347 H 0.72893 0.63238 0.8127 0.0
C2348 C 0.67073 0.62096 0.80982 0.0
C2349 C 0.66037 0.63972 0.81252 0.0
C2350 C 0.68818 0.61977 0.79746 0.0
C2351 C 0.69591 0.63733 0.78767 0.0
C2352 C 0.6856 0.65611 0.79022 0.0
H2353 H 0.8101 0.61904 0.71625 0.0
H2354 H 0.78612 0.6334 0.74164 0.0
C2355 C 0.668 0.6573 0.80255 0.0
C2356 C 0.71382 0.63552 0.77364 0.0
H2357 H 0.76158 0.61415 0.76995 0.0
C2358 C 0.71141 0.64135 0.75303 0.0
C2359 C 0.73262 0.62662 0.77999 0.0
C2360 C 0.73693 0.62161 0.80219 0.0
C2361 C 0.72667 0.63721 0.73838 0.0
C2362 C 0.7446 0.62651 0.7444 0.0
C2363 C 0.74767 0.62201 0.76525 0.0
C2364 C 0.75934 0.61825 0.72908 0.0
C2365 C 0.72322 0.64401 0.71651 0.0
C2366 C 0.75236 0.60464 0.71396 0.0
C2367 C 0.76591 0.59649 0.69954 0.0
C2368 C 0.78688 0.60157 0.70002 0.0
C2369 C 0.79403 0.61486 0.71546 0.0
C2370 C 0.78035 0.6231 0.72993 0.0
H2371 H 0.71306 0.65769 0.71583 0.0
H2372 H 0.73793 0.64773 0.70874 0.0
H2373 H 0.71558 0.63147 0.70788 0.0
H2374 H 0.73636 0.60016 0.71336 0.0
H2375 H 0.75988 0.58614 0.68802 0.0
H2376 H 0.22278 0.10643 0.31356 0.0
H2377 H 0.24894 0.11837 0.28902 0.0
H2378 H 0.20862 0.10346 0.23872 0.0
H2379 H 0.18269 0.09152 0.26281 0.0
H2380 H 0.26646 0.094 0.25424 0.0
H2381 H 0.22606 0.1647 0.22918 0.0
H2382 H 0.22052 0.15198 0.25321 0.0
H2383 H 0.21045 0.14196 0.22957 0.0
C2384 C 0.21952 0.10575 0.29727 0.0
C2385 C 0.20065 0.09805 0.29016 0.0
C2386 C 0.23445 0.11256 0.2833 0.0
C2387 C 0.23055 0.11204 0.26209 0.0
C2388 C 0.21179 0.10428 0.25503 0.0
H2389 H 0.28617 0.13614 0.14528 0.0
H2390 H 0.26372 0.12943 0.17464 0.0
C2391 C 0.19703 0.09735 0.26887 0.0
C2392 C 0.24611 0.11896 0.24702 0.0
H2393 H 0.25364 0.15323 0.20807 0.0
C2394 C 0.26388 0.10713 0.24433 0.0
C2395 C 0.24254 0.13599 0.23405 0.0
C2396 C 0.22395 0.14953 0.23669 0.0
C2397 C 0.2778 0.11135 0.22839 0.0
C2398 C 0.27401 0.12816 0.2151 0.0
C2399 C 0.2565 0.14033 0.2182 0.0
C2400 C 0.28763 0.13294 0.19744 0.0
C2401 C 0.29588 0.09721 0.22534 0.0
C2402 C 0.30844 0.13758 0.2005 0.0
C2403 C 0.3213 0.14137 0.18374 0.0
C2404 C 0.31358 0.14084 0.16356 0.0
C2405 C 0.29259 0.1368 0.16059 0.0
C2406 C 0.27976 0.13289 0.17736 0.0
H2407 H 0.29373 0.08232 0.23338 0.0
H2408 H 0.2985 0.09412 0.20878 0.0
H2409 H 0.30988 0.10457 0.23165 0.0
H2410 H 0.31475 0.13827 0.21586 0.0
H2411 H 0.33729 0.14486 0.18659 0.0
H2412 H 0.65718 0.21849 0.35602 0.0
H2413 H 0.64858 0.24137 0.32754 0.0
H2414 H 0.61017 0.19439 0.30118 0.0
H2415 H 0.61793 0.17176 0.32993 0.0
H2416 H 0.65437 0.23694 0.28554 0.0
H2417 H 0.57147 0.24323 0.3042 0.0
H2418 H 0.58991 0.2325 0.32186 0.0
H2419 H 0.5803 0.21734 0.30089 0.0
C2420 C 0.64669 0.21308 0.34434 0.0
C2421 C 0.63814 0.19326 0.34547 0.0
C2422 C 0.64194 0.22613 0.32795 0.0
C2423 C 0.62852 0.21969 0.31237 0.0
C2424 C 0.62029 0.19982 0.3132 0.0
H2425 H 0.60938 0.28671 0.19618 0.0
H2426 H 0.61892 0.26018 0.22128 0.0
C2427 C 0.62494 0.1868 0.32961 0.0
C2428 C 0.62298 0.23384 0.29537 0.0
H2429 H 0.58239 0.25841 0.27309 0.0
C2430 C 0.63864 0.24163 0.28276 0.0
C2431 C 0.60245 0.24004 0.2919 0.0
C2432 C 0.58507 0.23302 0.30553 0.0
C2433 C 0.63433 0.25555 0.26683 0.0
C2434 C 0.61377 0.26154 0.26322 0.0
C2435 C 0.59812 0.25362 0.27574 0.0
C2436 C 0.60823 0.27729 0.24769 0.0
C2437 C 0.65187 0.26423 0.25444 0.0
C2438 C 0.59871 0.29547 0.25414 0.0
C2439 C 0.59312 0.31045 0.23992 0.0
C2440 C 0.59689 0.30764 0.21885 0.0
C2441 C 0.60635 0.28936 0.21231 0.0
C2442 C 0.61191 0.27426 0.22664 0.0
H2443 H 0.66694 0.26147 0.26194 0.0
H2444 H 0.65214 0.25679 0.23912 0.0
H2445 H 0.64991 0.281 0.25211 0.0
H2446 H 0.59569 0.29813 0.27028 0.0
H2447 H 0.58587 0.32431 0.24555 0.0
H2448 H 0.78313 0.90005 0.31174 0.0
H2449 H 0.75679 0.88843 0.28723 0.0
H2450 H 0.79723 0.90278 0.23687 0.0
H2451 H 0.82334 0.91441 0.26092 0.0
H2452 H 0.73969 0.91322 0.25216 0.0
H2453 H 0.77881 0.84159 0.22773 0.0
H2454 H 0.78439 0.85426 0.25177 0.0
H2455 H 0.79483 0.86405 0.2282 0.0
C2456 C 0.78638 0.90067 0.29545 0.0
C2457 C 0.80534 0.90814 0.2883 0.0
C2458 C 0.77134 0.89405 0.2815 0.0
C2459 C 0.77521 0.89452 0.26028 0.0
C2460 C 0.79406 0.90202 0.25319 0.0
H2461 H 0.71986 0.87037 0.14339 0.0
H2462 H 0.74218 0.87708 0.17285 0.0
C2463 C 0.80894 0.90877 0.26701 0.0
C2464 C 0.75955 0.8878 0.24522 0.0
H2465 H 0.75151 0.85343 0.20648 0.0
C2466 C 0.74204 0.89997 0.24236 0.0
C2467 C 0.76283 0.87061 0.23239 0.0
C2468 C 0.78114 0.85673 0.23522 0.0
C2469 C 0.72812 0.89593 0.22636 0.0
C2470 C 0.73162 0.87896 0.21321 0.0
C2471 C 0.74886 0.86646 0.21651 0.0
C2472 C 0.71801 0.87435 0.19548 0.0
C2473 C 0.71035 0.91043 0.22312 0.0
C2474 C 0.69708 0.8702 0.19841 0.0
C2475 C 0.68429 0.86642 0.18159 0.0
C2476 C 0.69221 0.86646 0.16148 0.0
C2477 C 0.71329 0.87008 0.15864 0.0
C2478 C 0.72605 0.87399 0.17547 0.0
H2479 H 0.71279 0.92533 0.23105 0.0
H2480 H 0.70786 0.91345 0.20652 0.0
H2481 H 0.69617 0.90342 0.22943 0.0
H2482 H 0.69063 0.86984 0.21373 0.0
H2483 H 0.66822 0.86327 0.18435 0.0
H2484 H 0.39855 0.72034 0.19563 0.0
H2485 H 0.38938 0.74695 0.22082 0.0
H2486 H 0.40762 0.70662 0.27005 0.0
H2487 H 0.41704 0.68037 0.24529 0.0
H2488 H 0.36126 0.74585 0.25341 0.0
H2489 H 0.44001 0.75836 0.28272 0.0
H2490 H 0.43492 0.74478 0.25911 0.0
H2491 H 0.43272 0.73182 0.28342 0.0
C2492 C 0.40067 0.71723 0.21183 0.0
C2493 C 0.40872 0.69831 0.21842 0.0
C2494 C 0.39542 0.73241 0.22619 0.0
C2495 C 0.39823 0.72891 0.2473 0.0
C2496 C 0.40582 0.70988 0.25384 0.0
H2497 H 0.37255 0.78413 0.36427 0.0
H2498 H 0.38009 0.76159 0.33512 0.0
C2499 C 0.41111 0.69482 0.2396 0.0
C2500 C 0.39295 0.7448 0.26276 0.0
H2501 H 0.41259 0.77074 0.3039 0.0
C2502 C 0.37252 0.75153 0.26427 0.0
C2503 C 0.40768 0.75224 0.2769 0.0
C2504 C 0.4301 0.74659 0.27535 0.0
C2505 C 0.3663 0.76483 0.2801 0.0
C2506 C 0.3809 0.77159 0.29466 0.0
C2507 C 0.4014 0.76532 0.29282 0.0
C2508 C 0.37523 0.78502 0.3121 0.0
C2509 C 0.34406 0.77106 0.28161 0.0
C2510 C 0.37002 0.80563 0.30877 0.0
C2511 C 0.36577 0.81854 0.32538 0.0
C2512 C 0.3666 0.81107 0.34565 0.0
C2513 C 0.37155 0.7903 0.34888 0.0
C2514 C 0.37596 0.77744 0.33226 0.0
H2515 H 0.33413 0.76205 0.27106 0.0
H2516 H 0.33841 0.76904 0.29757 0.0
H2517 H 0.34254 0.78755 0.27761 0.0
H2518 H 0.36957 0.8118 0.29333 0.0
H2519 H 0.36181 0.83439 0.32237 0.0
H2520 H 0.32412 0.89649 0.83735 0.0
H2521 H 0.30113 0.90216 0.80829 0.0
H2522 H 0.27252 0.84348 0.81938 0.0
H2523 H 0.29529 0.83794 0.84883 0.0
H2524 H 0.29496 0.88174 0.77288 0.0
H2525 H 0.22347 0.88098 0.8193 0.0
H2526 H 0.24861 0.88165 0.83086 0.0
H2527 H 0.23835 0.85789 0.82123 0.0
C2528 C 0.31303 0.88473 0.83354 0.0
C2529 C 0.31144 0.86681 0.84547 0.0
C2530 C 0.29987 0.888 0.81692 0.0
C2531 C 0.28487 0.8734 0.8118 0.0
C2532 C 0.28361 0.85521 0.82333 0.0
H2533 H 0.2122 0.88604 0.69762 0.0
H2534 H 0.23731 0.87363 0.72291 0.0
C2535 C 0.29664 0.85203 0.84014 0.0
C2536 C 0.27042 0.87759 0.79463 0.0
H2537 H 0.21966 0.8844 0.7835 0.0
C2538 C 0.27848 0.88224 0.77516 0.0
C2539 C 0.24892 0.87841 0.79767 0.0
C2540 C 0.23929 0.87466 0.81841 0.0
C2541 C 0.26569 0.8881 0.75877 0.0
C2542 C 0.24421 0.88886 0.76182 0.0
C2543 C 0.23613 0.88372 0.78115 0.0
C2544 C 0.22983 0.89652 0.74583 0.0
C2545 C 0.27538 0.89423 0.73864 0.0
C2546 C 0.21716 0.91334 0.75033 0.0
C2547 C 0.20272 0.92021 0.73611 0.0
C2548 C 0.20065 0.91051 0.71696 0.0
C2549 C 0.21362 0.89394 0.71218 0.0
C2550 C 0.228 0.88688 0.72659 0.0
H2551 H 0.29204 0.89742 0.74032 0.0
H2552 H 0.27356 0.88152 0.72745 0.0
H2553 H 0.2678 0.90808 0.73221 0.0
H2554 H 0.21832 0.92108 0.76501 0.0
H2555 H 0.19303 0.93308 0.74024 0.0
H2556 H 0.41929 0.3237 0.7626 0.0
H2557 H 0.40907 0.29776 0.73781 0.0
H2558 H 0.38947 0.25806 0.78704 0.0
H2559 H 0.39938 0.28437 0.81222 0.0
H2560 H 0.4235 0.2587 0.73341 0.0
H2561 H 0.33959 0.258 0.74904 0.0
H2562 H 0.3563 0.27794 0.75856 0.0
H2563 H 0.35575 0.25328 0.77089 0.0
C2564 C 0.41275 0.3095 0.76827 0.0
C2565 C 0.41012 0.30614 0.78944 0.0
C2566 C 0.40692 0.29466 0.75401 0.0
C2567 C 0.39829 0.27606 0.76051 0.0
C2568 C 0.39573 0.27248 0.78165 0.0
H2569 H 0.36072 0.17147 0.68511 0.0
H2570 H 0.3691 0.19406 0.71397 0.0
C2571 C 0.40152 0.28745 0.79602 0.0
C2572 C 0.39255 0.26046 0.7449 0.0
H2573 H 0.35182 0.23486 0.72393 0.0
C2574 C 0.40783 0.25345 0.7314 0.0
C2575 C 0.3721 0.2536 0.74228 0.0
C2576 C 0.35491 0.26117 0.75582 0.0
C2577 C 0.40321 0.23998 0.71524 0.0
C2578 C 0.38272 0.23346 0.71238 0.0
C2579 C 0.3675 0.23999 0.72616 0.0
C2580 C 0.37685 0.22011 0.69493 0.0
C2581 C 0.42027 0.23279 0.70133 0.0
C2582 C 0.37811 0.22741 0.67469 0.0
C2583 C 0.37332 0.21455 0.65816 0.0
C2584 C 0.36728 0.19412 0.66159 0.0
C2585 C 0.36564 0.18702 0.68194 0.0
C2586 C 0.37028 0.19993 0.69845 0.0
H2587 H 0.43564 0.23555 0.70817 0.0
H2588 H 0.41868 0.21617 0.69792 0.0
H2589 H 0.41942 0.24128 0.68658 0.0
H2590 H 0.38296 0.24303 0.67168 0.0
H2591 H 0.37486 0.22046 0.64271 0.0
H2592 H 0.79305 0.12081 0.69735 0.0
H2593 H 0.76796 0.13374 0.72244 0.0
H2594 H 0.78971 0.0897 0.76684 0.0
H2595 H 0.81486 0.07711 0.74225 0.0
H2596 H 0.73637 0.11518 0.74328 0.0
H2597 H 0.79441 0.14282 0.79857 0.0
H2598 H 0.80088 0.13563 0.77261 0.0
H2599 H 0.7984 0.11634 0.79227 0.0
C2600 C 0.79238 0.11388 0.71245 0.0
C2601 C 0.80607 0.09809 0.71789 0.0
C2602 C 0.7781 0.1213 0.72677 0.0
C2603 C 0.77733 0.11304 0.7467 0.0
C2604 C 0.79044 0.09675 0.7518 0.0
H2605 H 0.68253 0.10878 0.83729 0.0
H2606 H 0.7052 0.10444 0.80781 0.0
C2607 C 0.80474 0.08947 0.73764 0.0
C2608 C 0.76275 0.12107 0.7623 0.0
H2609 H 0.76042 0.13754 0.812 0.0
C2610 C 0.74161 0.12035 0.75821 0.0
C2611 C 0.76958 0.12829 0.78164 0.0
C2612 C 0.79207 0.13104 0.78646 0.0
C2613 C 0.72712 0.12558 0.77333 0.0
C2614 C 0.73395 0.13115 0.79322 0.0
C2615 C 0.75511 0.13294 0.7969 0.0
C2616 C 0.71956 0.13427 0.81068 0.0
C2617 C 0.70464 0.12504 0.76778 0.0
C2618 C 0.72049 0.15221 0.82264 0.0
C2619 C 0.70771 0.15458 0.83977 0.0
C2620 C 0.69371 0.13909 0.84524 0.0
C2621 C 0.69284 0.12117 0.83325 0.0
C2622 C 0.70574 0.11871 0.81629 0.0
H2623 H 0.70234 0.12773 0.75109 0.0
H2624 H 0.69834 0.10964 0.77143 0.0
H2625 H 0.69579 0.13672 0.77646 0.0
H2626 H 0.73113 0.16437 0.81874 0.0
H2627 H 0.70865 0.16861 0.84862 0.0
H2628 H 0.58625 0.68009 0.76028 0.0
H2629 H 0.59662 0.70575 0.73522 0.0
H2630 H 0.61647 0.74578 0.78405 0.0
H2631 H 0.60641 0.71978 0.80949 0.0
H2632 H 0.58199 0.74457 0.73069 0.0
H2633 H 0.666 0.74573 0.74542 0.0
H2634 H 0.64944 0.72577 0.75519 0.0
H2635 H 0.65018 0.75042 0.76753 0.0
C2636 C 0.5929 0.69429 0.7658 0.0
C2637 C 0.59551 0.69788 0.78693 0.0
C2638 C 0.59882 0.70897 0.75139 0.0
C2639 C 0.60751 0.7276 0.75771 0.0
C2640 C 0.61015 0.73134 0.7788 0.0
H2641 H 0.61503 0.83282 0.67541 0.0
H2642 H 0.60746 0.80961 0.70372 0.0
C2643 C 0.60428 0.71654 0.79332 0.0
C2644 C 0.61302 0.74318 0.74199 0.0
H2645 H 0.65326 0.76958 0.72112 0.0
C2646 C 0.59757 0.75009 0.72864 0.0
C2647 C 0.6334 0.75015 0.73917 0.0
C2648 C 0.65079 0.74254 0.75244 0.0
C2649 C 0.60191 0.76367 0.7125 0.0
C2650 C 0.6222 0.77095 0.70989 0.0
C2651 C 0.63769 0.76408 0.72324 0.0
C2652 C 0.62764 0.78546 0.69317 0.0
C2653 C 0.58481 0.76962 0.69803 0.0
C2654 C 0.64201 0.77988 0.67811 0.0
C2655 C 0.64663 0.79329 0.66195 0.0
C2656 C 0.63703 0.8126 0.66059 0.0
C2657 C 0.62288 0.8182 0.67594 0.0
C2658 C 0.61834 0.80483 0.69209 0.0
H2659 H 0.5718 0.75861 0.69876 0.0
H2660 H 0.57889 0.78499 0.70237 0.0
H2661 H 0.59037 0.7704 0.68194 0.0
H2662 H 0.64948 0.76503 0.67872 0.0
H2663 H 0.65785 0.78856 0.65066 0.0
H2664 H 0.31185 0.21532 0.12095 0.0
H2665 H 0.28688 0.24059 0.13378 0.0
H2666 H 0.24212 0.21834 0.09037 0.0
H2667 H 0.26658 0.193 0.07791 0.0
H2668 H 0.26553 0.27198 0.11529 0.0
H2669 H 0.21114 0.21358 0.14394 0.0
H2670 H 0.23705 0.2073 0.13645 0.0
H2671 H 0.21713 0.20952 0.11739 0.0
C2672 C 0.29671 0.21593 0.11412 0.0
C2673 C 0.2911 0.20201 0.0986 0.0
C2674 C 0.28245 0.23032 0.12148 0.0
C2675 C 0.26244 0.23097 0.11341 0.0
C2676 C 0.25723 0.2177 0.09729 0.0
H2677 H 0.17079 0.32477 0.10984 0.0
H2678 H 0.2006 0.30258 0.1053 0.0
C2679 C 0.27131 0.20329 0.09009 0.0
C2680 C 0.24683 0.24546 0.12155 0.0
H2681 H 0.19734 0.24741 0.13866 0.0
C2682 C 0.25071 0.26663 0.12068 0.0
C2683 C 0.22766 0.23849 0.12906 0.0
C2684 C 0.22307 0.21597 0.13199 0.0
C2685 C 0.23554 0.28101 0.12604 0.0
C2686 C 0.21579 0.27402 0.13191 0.0
C2687 C 0.21233 0.25284 0.13385 0.0
C2688 C 0.19823 0.28825 0.13521 0.0
C2689 C 0.24087 0.30353 0.12533 0.0
C2690 C 0.18646 0.2872 0.15327 0.0
C2691 C 0.16916 0.29969 0.15576 0.0
C2692 C 0.1633 0.31353 0.14026 0.0
C2693 C 0.17512 0.31458 0.12224 0.0
C2694 C 0.19227 0.30195 0.11967 0.0
H2695 H 0.25756 0.306 0.12781 0.0
H2696 H 0.23698 0.30973 0.10994 0.0
H2697 H 0.23224 0.31236 0.13708 0.0
H2698 H 0.19064 0.27664 0.16543 0.0
H2699 H 0.16044 0.29863 0.16986 0.0
H2700 H 0.3109 0.78344 0.89991 0.0
H2701 H 0.28634 0.75731 0.88791 0.0
H2702 H 0.23608 0.79772 0.90263 0.0
H2703 H 0.26017 0.82361 0.91464 0.0
H2704 H 0.25154 0.73993 0.91238 0.0
H2705 H 0.22645 0.78 0.8415 0.0
H2706 H 0.25051 0.78557 0.85415 0.0
H2707 H 0.22691 0.79575 0.86414 0.0
C2708 C 0.29462 0.78672 0.90052 0.0
C2709 C 0.28751 0.8056 0.90822 0.0
C2710 C 0.28064 0.77182 0.89367 0.0
C2711 C 0.25943 0.77574 0.89415 0.0
C2712 C 0.25239 0.79452 0.90185 0.0
H2713 H 0.14229 0.72056 0.87071 0.0
H2714 H 0.1718 0.74289 0.87719 0.0
C2715 C 0.26623 0.80927 0.90882 0.0
C2716 C 0.24433 0.76016 0.88732 0.0
H2717 H 0.2052 0.75263 0.85325 0.0
C2718 C 0.2416 0.74247 0.89926 0.0
C2719 C 0.23131 0.76369 0.87031 0.0
C2720 C 0.23398 0.78219 0.85664 0.0
C2721 C 0.22556 0.72862 0.8952 0.0
C2722 C 0.21221 0.73237 0.87843 0.0
C2723 C 0.21537 0.74979 0.86613 0.0
C2724 C 0.19445 0.71881 0.87382 0.0
C2725 C 0.22248 0.71064 0.90949 0.0
C2726 C 0.19736 0.69795 0.86935 0.0
C2727 C 0.18051 0.68516 0.86571 0.0
C2728 C 0.16039 0.693 0.86621 0.0
C2729 C 0.15756 0.71404 0.87009 0.0
C2730 C 0.17442 0.72681 0.87386 0.0
H2731 H 0.23058 0.71286 0.92433 0.0
H2732 H 0.20593 0.70811 0.91265 0.0
H2733 H 0.22871 0.69656 0.9022 0.0
H2734 H 0.21268 0.69154 0.86866 0.0
H2735 H 0.18327 0.66913 0.86233 0.0
H2736 H 0.28599 0.19457 0.60926 0.0
H2737 H 0.25907 0.21935 0.61863 0.0
H2738 H 0.29609 0.26867 0.59462 0.0
H2739 H 0.32269 0.2443 0.58507 0.0
H2740 H 0.26143 0.25416 0.64474 0.0
H2741 H 0.24113 0.27667 0.56531 0.0
H2742 H 0.25581 0.25388 0.57105 0.0
H2743 H 0.26813 0.27859 0.57039 0.0
C2744 C 0.2883 0.21069 0.6059 0.0
C2745 C 0.30643 0.21742 0.59628 0.0
C2746 C 0.27295 0.22481 0.61129 0.0
C2747 C 0.27545 0.24581 0.607 0.0
C2748 C 0.29363 0.25251 0.59768 0.0
H2749 H 0.21795 0.35424 0.65759 0.0
H2750 H 0.2404 0.32535 0.64936 0.0
C2751 C 0.30889 0.2385 0.59231 0.0
C2752 C 0.25938 0.261 0.61247 0.0
H2753 H 0.22983 0.29915 0.59202 0.0
C2754 C 0.25432 0.26386 0.63322 0.0
C2755 C 0.24994 0.27348 0.5974 0.0
C2756 C 0.25385 0.27039 0.57477 0.0
C2757 C 0.24063 0.27938 0.63936 0.0
C2758 C 0.23207 0.29259 0.62436 0.0
C2759 C 0.23658 0.28921 0.60355 0.0
C2760 C 0.21837 0.31001 0.62978 0.0
C2761 C 0.23539 0.28139 0.66183 0.0
C2762 C 0.19873 0.31138 0.62105 0.0
C2763 C 0.186 0.32807 0.62542 0.0
C2764 C 0.19259 0.34386 0.63862 0.0
C2765 C 0.21236 0.34251 0.64727 0.0
C2766 C 0.22513 0.3258 0.64281 0.0
H2767 H 0.2382 0.26682 0.67024 0.0
H2768 H 0.24521 0.29342 0.66881 0.0
H2769 H 0.21909 0.28588 0.66397 0.0
H2770 H 0.19325 0.2995 0.61079 0.0
H2771 H 0.17108 0.32868 0.61816 0.0
H2772 H 0.84016 0.318 0.90146 0.0
H2773 H 0.81041 0.2956 0.90441 0.0
H2774 H 0.81525 0.28037 0.84017 0.0
H2775 H 0.84537 0.3028 0.83713 0.0
H2776 H 0.77302 0.29606 0.88542 0.0
H2777 H 0.81525 0.22417 0.86701 0.0
H2778 H 0.82826 0.24803 0.87224 0.0
H2779 H 0.81636 0.24384 0.84771 0.0
C2780 C 0.83484 0.31009 0.88787 0.0
C2781 C 0.8452 0.31221 0.86903 0.0
C2782 C 0.81781 0.29722 0.8896 0.0
C2783 C 0.81068 0.28613 0.87258 0.0
C2784 C 0.8207 0.28846 0.85362 0.0
H2785 H 0.69522 0.21504 0.88742 0.0
H2786 H 0.7198 0.24045 0.87417 0.0
C2787 C 0.8379 0.30128 0.85189 0.0
C2788 C 0.79305 0.27187 0.87516 0.0
H2789 H 0.78025 0.22104 0.87495 0.0
C2790 C 0.7745 0.27967 0.88292 0.0
C2791 C 0.79506 0.25047 0.872 0.0
C2792 C 0.81483 0.24103 0.86444 0.0
C2793 C 0.75818 0.26661 0.88833 0.0
C2794 C 0.76035 0.2452 0.88553 0.0
C2795 C 0.7786 0.23748 0.877 0.0
C2796 C 0.74497 0.2303 0.89339 0.0
C2797 C 0.73921 0.27574 0.89797 0.0
C2798 C 0.75096 0.21609 0.9084 0.0
C2799 C 0.73709 0.20158 0.91581 0.0
C2800 C 0.71683 0.20091 0.90842 0.0
C2801 C 0.71067 0.2153 0.89354 0.0
C2802 C 0.72469 0.22983 0.88599 0.0
H2803 H 0.74157 0.29198 0.90261 0.0
H2804 H 0.72641 0.27526 0.88674 0.0
H2805 H 0.73452 0.26678 0.91169 0.0
H2806 H 0.76647 0.2162 0.9144 0.0
H2807 H 0.74236 0.19079 0.92732 0.0
H2808 H 0.71799 0.81318 0.61743 0.0
H2809 H 0.74373 0.78873 0.63029 0.0
H2810 H 0.71482 0.74021 0.59578 0.0
H2811 H 0.68913 0.76419 0.58323 0.0
H2812 H 0.72299 0.72925 0.63595 0.0
H2813 H 0.79177 0.76329 0.59839 0.0
H2814 H 0.77689 0.78011 0.61443 0.0
H2815 H 0.76597 0.77028 0.59111 0.0
C2816 C 0.71725 0.79733 0.61251 0.0
C2817 C 0.70152 0.79066 0.59929 0.0
C2818 C 0.73198 0.78339 0.61982 0.0
C2819 C 0.73127 0.76265 0.61389 0.0
C2820 C 0.71565 0.7561 0.60062 0.0
H2821 H 0.81388 0.66341 0.60382 0.0
H2822 H 0.79263 0.69402 0.60109 0.0
C2823 C 0.70098 0.7699 0.59341 0.0
C2824 C 0.74646 0.7474 0.62142 0.0
H2825 H 0.79663 0.73284 0.6171 0.0
C2826 C 0.73916 0.73013 0.63208 0.0
C2827 C 0.7675 0.74856 0.61624 0.0
C2828 C 0.77609 0.76645 0.60429 0.0
C2829 C 0.75213 0.7136 0.63695 0.0
C2830 C 0.7731 0.71455 0.63137 0.0
C2831 C 0.78057 0.73219 0.62144 0.0
C2832 C 0.78699 0.6966 0.63371 0.0
C2833 C 0.74299 0.69481 0.64698 0.0
C2834 C 0.79117 0.68796 0.65303 0.0
C2835 C 0.80336 0.6703 0.65466 0.0
C2836 C 0.81179 0.66112 0.63701 0.0
C2837 C 0.80793 0.67017 0.61777 0.0
C2838 C 0.7957 0.68768 0.61616 0.0
H2839 H 0.72595 0.6949 0.64641 0.0
H2840 H 0.74859 0.6806 0.63944 0.0
H2841 H 0.74769 0.69432 0.66335 0.0
H2842 H 0.78494 0.6948 0.66684 0.0
H2843 H 0.80627 0.6639 0.66971 0.0
H2844 H 0.83999 0.68768 0.10348 0.0
H2845 H 0.80987 0.70962 0.10052 0.0
H2846 H 0.81245 0.7222 0.16547 0.0
H2847 H 0.84292 0.70026 0.16852 0.0
H2848 H 0.77187 0.7082 0.11813 0.0
H2849 H 0.8129 0.77944 0.14111 0.0
H2850 H 0.82625 0.7559 0.13533 0.0
H2851 H 0.81354 0.75902 0.15962 0.0
C2852 C 0.83407 0.69488 0.11722 0.0
C2853 C 0.84394 0.69223 0.13624 0.0
C2854 C 0.81684 0.7075 0.11548 0.0
C2855 C 0.80901 0.71777 0.13271 0.0
C2856 C 0.81846 0.71477 0.15187 0.0
H2857 H 0.69328 0.78848 0.11807 0.0
H2858 H 0.71779 0.76264 0.13063 0.0
C2859 C 0.83586 0.70223 0.1536 0.0
C2860 C 0.79135 0.73202 0.13017 0.0
H2861 H 0.77805 0.78266 0.13251 0.0
C2862 C 0.77311 0.72446 0.12146 0.0
C2863 C 0.79306 0.75326 0.13441 0.0
C2864 C 0.81252 0.76249 0.14297 0.0
C2865 C 0.75683 0.73764 0.11624 0.0
C2866 C 0.75869 0.75891 0.12018 0.0
C2867 C 0.77662 0.76634 0.12959 0.0
C2868 C 0.74335 0.77406 0.1127 0.0
C2869 C 0.73823 0.72884 0.10561 0.0
C2870 C 0.74959 0.78913 0.09867 0.0
C2871 C 0.73577 0.80389 0.09167 0.0
C2872 C 0.7153 0.80396 0.0985 0.0
C2873 C 0.70891 0.78873 0.11241 0.0
C2874 C 0.72288 0.77394 0.11955 0.0
H2875 H 0.7409 0.71291 0.10017 0.0
H2876 H 0.72514 0.72859 0.11649 0.0
H2877 H 0.73379 0.73848 0.09226 0.0
H2878 H 0.76526 0.7895 0.09311 0.0
H2879 H 0.74123 0.81533 0.08091 0.0
H2880 H 0.16925 0.68419 0.36289 0.0
H2881 H 0.19185 0.71365 0.36847 0.0
H2882 H 0.24369 0.67282 0.37388 0.0
H2883 H 0.22121 0.64337 0.36805 0.0
H2884 H 0.21454 0.72275 0.4015 0.0
H2885 H 0.266 0.71473 0.33444 0.0
H2886 H 0.24221 0.70071 0.33661 0.0
H2887 H 0.26498 0.69167 0.34942 0.0
C2888 C 0.18548 0.6815 0.36519 0.0
C2889 C 0.19344 0.66143 0.36498 0.0
C2890 C 0.19839 0.69836 0.3683 0.0
C2891 C 0.21954 0.69552 0.37125 0.0
C2892 C 0.22754 0.67548 0.37104 0.0
H2893 H 0.32246 0.76084 0.41636 0.0
H2894 H 0.29639 0.73697 0.40422 0.0
C2895 C 0.21465 0.65863 0.36777 0.0
C2896 C 0.23304 0.71335 0.37575 0.0
H2897 H 0.27808 0.73633 0.36183 0.0
C2898 C 0.22825 0.72592 0.39262 0.0
C2899 C 0.25089 0.71759 0.36408 0.0
C2900 C 0.25622 0.70559 0.34501 0.0
C2901 C 0.24132 0.74197 0.3987 0.0
C2902 C 0.25957 0.74557 0.38758 0.0
C2903 C 0.26406 0.73347 0.37034 0.0
C2904 C 0.2751 0.76055 0.39469 0.0
C2905 C 0.23603 0.75442 0.41749 0.0
C2906 C 0.27176 0.78181 0.39327 0.0
C2907 C 0.28676 0.79564 0.40016 0.0
C2908 C 0.30524 0.78835 0.40865 0.0
C2909 C 0.3084 0.76703 0.41 0.0
C2910 C 0.29354 0.75331 0.40301 0.0
H2911 H 0.22231 0.74837 0.4256 0.0
H2912 H 0.2492 0.75457 0.42832 0.0
H2913 H 0.23293 0.77053 0.4129 0.0
H2914 H 0.25763 0.78766 0.38675 0.0
H2915 H 0.2839 0.81196 0.39887 0.0
H2916 H 0.72219 0.1959 0.39953 0.0
H2917 H 0.74864 0.22126 0.39034 0.0
H2918 H 0.70739 0.27029 0.40685 0.0
H2919 H 0.68124 0.24537 0.41622 0.0
H2920 H 0.74774 0.25436 0.36169 0.0
H2921 H 0.75857 0.2824 0.44124 0.0
H2922 H 0.74546 0.25868 0.43546 0.0
H2923 H 0.73223 0.28282 0.43317 0.0
C2924 C 0.71881 0.21208 0.4012 0.0
C2925 C 0.69968 0.21858 0.40883 0.0
C2926 C 0.7339 0.22654 0.39592 0.0
C2927 C 0.7301 0.24765 0.39827 0.0
C2928 C 0.71084 0.25409 0.40534 0.0
H2929 H 0.79096 0.35478 0.34753 0.0
H2930 H 0.76809 0.32591 0.35467 0.0
C2931 C 0.69586 0.23976 0.41064 0.0
C2932 C 0.74608 0.26318 0.39349 0.0
H2933 H 0.77216 0.30346 0.41453 0.0
C2934 C 0.75327 0.26499 0.37326 0.0
C2935 C 0.75344 0.27688 0.40865 0.0
C2936 C 0.7472 0.27501 0.43089 0.0
C2937 C 0.76715 0.28056 0.36765 0.0
C2938 C 0.7737 0.2949 0.38263 0.0
C2939 C 0.76696 0.29265 0.40298 0.0
C2940 C 0.78774 0.31224 0.37773 0.0
C2941 C 0.77479 0.28138 0.34581 0.0
C2942 C 0.80612 0.31455 0.3887 0.0
C2943 C 0.81903 0.33125 0.38495 0.0
C2944 C 0.8139 0.34612 0.3701 0.0
C2945 C 0.79541 0.34379 0.35915 0.0
C2946 C 0.78242 0.32708 0.36301 0.0
H2947 H 0.77317 0.26629 0.33803 0.0
H2948 H 0.76559 0.29276 0.33708 0.0
H2949 H 0.79114 0.28613 0.34518 0.0
H2950 H 0.81047 0.30343 0.40028 0.0
H2951 H 0.83288 0.3326 0.39399 0.0
loop_
_geom_bond_atom_site_label_1
_geom_bond_atom_site_label_2
_geom_bond_distance
_geom_bond_site_symmetry_2
_ccdc_geom_bond_type
C0 C1 1.351 . S
C0 N3 1.368 . S
C0 H5 0.931 . S
C1 C0 1.351 . S
C1 N2 1.373 . S
C1 H29 0.930 . S
N2 C1 1.373 . S
N2 C4 1.340 . S
N3 C0 1.368 . S
N3 C4 1.321 . S
N3 Co6 2.135 . S
C4 N2 1.340 . S
C4 N3 1.321 . S
C4 H28 0.930 . S
H5 C0 0.931 . S
Co6 N3 2.135 . S
Co6 N9 2.121 . S
Co6 O14 2.055 . S
Co6 O17 2.039 . S
Co6 N20 2.140 . S
C7 O8 1.227 . S
C7 O17 1.265 . S
O8 C7 1.227 . S
N9 Co6 2.121 . S
N9 C11 1.375 . S
N9 C12 1.313 . S
C10 C11 1.338 . S
C10 N13 1.377 . S
C10 H30 0.930 . S
C11 N9 1.375 . S
C11 C10 1.338 . S
C11 H15 0.931 . S
C12 N9 1.313 . S
C12 N13 1.344 . S
C12 H16 0.930 . S
N13 C10 1.377 . S
N13 C12 1.344 . S
O14 Co6 2.055 . S
O14 C18 1.253 . S
H15 C11 0.931 . S
H16 C12 0.930 . S
O17 Co6 2.039 . S
O17 C7 1.265 . S
C18 O14 1.253 . S
C18 O19 1.227 . S
O19 C18 1.227 . S
N20 Co6 2.140 . S
N20 C23 1.346 . S
N20 C24 1.345 . S
C21 C22 1.387 . S
C21 C25 1.391 . S
C22 C21 1.387 . S
C22 C23 1.369 . S
C22 H31 0.929 . S
C23 N20 1.346 . S
C23 C22 1.369 . S
C23 H26 0.928 . S
C24 N20 1.345 . S
C24 C25 1.371 . S
C24 H27 0.931 . S
C25 C21 1.391 . S
C25 C24 1.371 . S
C25 H32 0.930 . S
H26 C23 0.928 . S
H27 C24 0.931 . S
H28 C4 0.930 . S
H29 C1 0.930 . S
H30 C10 0.930 . S
H31 C22 0.929 . S
H32 C25 0.930 . S
C33 C34 1.351 . S
C33 N36 1.368 . S
C33 H38 0.931 . S
C34 C33 1.351 . S
C34 N35 1.373 . S
C34 H62 0.930 . S
N35 C34 1.373 . S
N35 C37 1.340 . S
N36 C33 1.368 . S
N36 C37 1.321 . S
N36 Co39 2.135 . S
C37 N35 1.340 . S
C37 N36 1.321 . S
C37 H61 0.930 . S
H38 C33 0.931 . S
Co39 N36 2.135 . S
Co39 N42 2.121 . S
Co39 O47 2.055 . S
Co39 O50 2.039 . S
Co39 N53 2.140 . S
C40 O41 1.227 . S
C40 O50 1.265 . S
O41 C40 1.227 . S
N42 Co39 2.121 . S
N42 C44 1.375 . S
N42 C45 1.313 . S
C43 C44 1.338 . S
C43 N46 1.377 . S
C43 H63 0.930 . S
C44 N42 1.375 . S
C44 C43 1.338 . S
C44 H48 0.931 . S
C45 N42 1.313 . S
C45 N46 1.344 . S
C45 H49 0.930 . S
N46 C43 1.377 . S
N46 C45 1.344 . S
O47 Co39 2.055 . S
O47 C51 1.253 . S
H48 C44 0.931 . S
H49 C45 0.930 . S
O50 Co39 2.039 . S
O50 C40 1.265 . S
C51 O47 1.253 . S
C51 O52 1.227 . S
O52 C51 1.227 . S
N53 Co39 2.140 . S
N53 C56 1.346 . S
N53 C57 1.345 . S
C54 C55 1.387 . S
C54 C58 1.391 . S
C55 C54 1.387 . S
C55 C56 1.369 . S
C55 H64 0.929 . S
C56 N53 1.346 . S
C56 C55 1.369 . S
C56 H59 0.928 . S
C57 N53 1.345 . S
C57 C58 1.371 . S
C57 H60 0.931 . S
C58 C54 1.391 . S
C58 C57 1.371 . S
C58 H65 0.930 . S
H59 C56 0.928 . S
H60 C57 0.931 . S
H61 C37 0.930 . S
H62 C34 0.930 . S
H63 C43 0.930 . S
H64 C55 0.929 . S
H65 C58 0.930 . S
C66 C67 1.351 . S
C66 N69 1.368 . S
C66 H71 0.931 . S
C67 C66 1.351 . S
C67 N68 1.373 . S
C67 H95 0.930 . S
N68 C67 1.373 . S
N68 C70 1.340 . S
N69 C66 1.368 . S
N69 C70 1.321 . S
N69 Co72 2.135 . S
C70 N68 1.340 . S
C70 N69 1.321 . S
C70 H94 0.930 . S
H71 C66 0.931 . S
Co72 N69 2.135 . S
Co72 N75 2.121 . S
Co72 O80 2.055 . S
Co72 O83 2.039 . S
Co72 N86 2.140 . S
C73 O74 1.227 . S
C73 O83 1.265 . S
O74 C73 1.227 . S
N75 Co72 2.121 . S
N75 C77 1.375 . S
N75 C78 1.313 . S
C76 C77 1.338 . S
C76 N79 1.377 . S
C76 H96 0.930 . S
C77 N75 1.375 . S
C77 C76 1.338 . S
C77 H81 0.931 . S
C78 N75 1.313 . S
C78 N79 1.344 . S
C78 H82 0.930 . S
N79 C76 1.377 . S
N79 C78 1.344 . S
O80 Co72 2.055 . S
O80 C84 1.253 . S
H81 C77 0.931 . S
H82 C78 0.930 . S
O83 Co72 2.039 . S
O83 C73 1.265 . S
C84 O80 1.253 . S
C84 O85 1.227 . S
O85 C84 1.227 . S
N86 Co72 2.140 . S
N86 C89 1.346 . S
N86 C90 1.345 . S
C87 C88 1.387 . S
C87 C91 1.391 . S
C88 C87 1.387 . S
C88 C89 1.369 . S
C88 H97 0.929 . S
C89 N86 1.346 . S
C89 C88 1.369 . S
C89 H92 0.928 . S
C90 N86 1.345 . S
C90 C91 1.371 . S
C90 H93 0.931 . S
C91 C87 1.391 . S
C91 C90 1.371 . S
C91 H98 0.930 . S
H92 C89 0.928 . S
H93 C90 0.931 . S
H94 C70 0.930 . S
H95 C67 0.930 . S
H96 C76 0.930 . S
H97 C88 0.929 . S
H98 C91 0.930 . S
C99 C100 1.351 . S
C99 N102 1.368 . S
C99 H104 0.931 . S
C100 C99 1.351 . S
C100 N101 1.373 . S
C100 H128 0.930 . S
N101 C100 1.373 . S
N101 C103 1.340 . S
N102 C99 1.368 . S
N102 C103 1.321 . S
N102 Co105 2.135 . S
C103 N101 1.340 . S
C103 N102 1.321 . S
C103 H127 0.930 . S
H104 C99 0.931 . S
Co105 N102 2.135 . S
Co105 N108 2.121 . S
Co105 O113 2.055 . S
Co105 O116 2.039 . S
Co105 N119 2.140 . S
C106 O107 1.227 . S
C106 O116 1.265 . S
O107 C106 1.227 . S
N108 Co105 2.121 . S
N108 C110 1.375 . S
N108 C111 1.313 . S
C109 C110 1.338 . S
C109 N112 1.377 . S
C109 H129 0.930 . S
C110 N108 1.375 . S
C110 C109 1.338 . S
C110 H114 0.931 . S
C111 N108 1.313 . S
C111 N112 1.344 . S
C111 H115 0.930 . S
N112 C109 1.377 . S
N112 C111 1.344 . S
O113 Co105 2.055 . S
O113 C117 1.253 . S
H114 C110 0.931 . S
H115 C111 0.930 . S
O116 Co105 2.039 . S
O116 C106 1.265 . S
C117 O113 1.253 . S
C117 O118 1.227 . S
O118 C117 1.227 . S
N119 Co105 2.140 . S
N119 C122 1.346 . S
N119 C123 1.345 . S
C120 C121 1.387 . S
C120 C124 1.391 . S
C121 C120 1.387 . S
C121 C122 1.369 . S
C121 H130 0.929 . S
C122 N119 1.346 . S
C122 C121 1.369 . S
C122 H125 0.928 . S
C123 N119 1.345 . S
C123 C124 1.371 . S
C123 H126 0.931 . S
C124 C120 1.391 . S
C124 C123 1.371 . S
C124 H131 0.930 . S
H125 C122 0.928 . S
H126 C123 0.931 . S
H127 C103 0.930 . S
H128 C100 0.930 . S
H129 C109 0.930 . S
H130 C121 0.929 . S
H131 C124 0.930 . S
C132 C133 1.351 . S
C132 N135 1.368 . S
C132 H137 0.931 . S
C133 C132 1.351 . S
C133 N134 1.373 . S
C133 H161 0.930 . S
N134 C133 1.373 . S
N134 C136 1.340 . S
N135 C132 1.368 . S
N135 C136 1.321 . S
N135 Co138 2.135 . S
C136 N134 1.340 . S
C136 N135 1.321 . S
C136 H160 0.930 . S
H137 C132 0.931 . S
Co138 N135 2.135 . S
Co138 N141 2.121 . S
Co138 O146 2.055 . S
Co138 O149 2.039 . S
Co138 N152 2.140 . S
C139 O140 1.227 . S
C139 O149 1.265 . S
O140 C139 1.227 . S
N141 Co138 2.121 . S
N141 C143 1.375 . S
N141 C144 1.313 . S
C142 C143 1.338 . S
C142 N145 1.377 . S
C142 H162 0.930 . S
C143 N141 1.375 . S
C143 C142 1.338 . S
C143 H147 0.931 . S
C144 N141 1.313 . S
C144 N145 1.344 . S
C144 H148 0.930 . S
N145 C142 1.377 . S
N145 C144 1.344 . S
O146 Co138 2.055 . S
O146 C150 1.253 . S
H147 C143 0.931 . S
H148 C144 0.930 . S
O149 Co138 2.039 . S
O149 C139 1.265 . S
C150 O146 1.253 . S
C150 O151 1.227 . S
O151 C150 1.227 . S
N152 Co138 2.140 . S
N152 C155 1.346 . S
N152 C156 1.345 . S
C153 C154 1.387 . S
C153 C157 1.391 . S
C154 C153 1.387 . S
C154 C155 1.369 . S
C154 H163 0.929 . S
C155 N152 1.346 . S
C155 C154 1.369 . S
C155 H158 0.928 . S
C156 N152 1.345 . S
C156 C157 1.371 . S
C156 H159 0.931 . S
C157 C153 1.391 . S
C157 C156 1.371 . S
C157 H164 0.930 . S
H158 C155 0.928 . S
H159 C156 0.931 . S
H160 C136 0.930 . S
H161 C133 0.930 . S
H162 C142 0.930 . S
H163 C154 0.929 . S
H164 C157 0.930 . S
C165 C166 1.351 . S
C165 N168 1.368 . S
C165 H170 0.931 . S
C166 C165 1.351 . S
C166 N167 1.373 . S
C166 H194 0.930 . S
N167 C166 1.373 . S
N167 C169 1.340 . S
N168 C165 1.368 . S
N168 C169 1.321 . S
N168 Co171 2.135 . S
C169 N167 1.340 . S
C169 N168 1.321 . S
C169 H193 0.930 . S
H170 C165 0.931 . S
Co171 N168 2.135 . S
Co171 N174 2.121 . S
Co171 O179 2.055 . S
Co171 O182 2.039 . S
Co171 N185 2.140 . S
C172 O173 1.227 . S
C172 O182 1.265 . S
O173 C172 1.227 . S
N174 Co171 2.121 . S
N174 C176 1.375 . S
N174 C177 1.313 . S
C175 C176 1.338 . S
C175 N178 1.377 . S
C175 H195 0.930 . S
C176 N174 1.375 . S
C176 C175 1.338 . S
C176 H180 0.931 . S
C177 N174 1.313 . S
C177 N178 1.344 . S
C177 H181 0.930 . S
N178 C175 1.377 . S
N178 C177 1.344 . S
O179 Co171 2.055 . S
O179 C183 1.253 . S
H180 C176 0.931 . S
H181 C177 0.930 . S
O182 Co171 2.039 . S
O182 C172 1.265 . S
C183 O179 1.253 . S
C183 O184 1.227 . S
O184 C183 1.227 . S
N185 Co171 2.140 . S
N185 C188 1.346 . S
N185 C189 1.345 . S
C186 C187 1.387 . S
C186 C190 1.391 . S
C187 C186 1.387 . S
C187 C188 1.369 . S
C187 H196 0.929 . S
C188 N185 1.346 . S
C188 C187 1.369 . S
C188 H191 0.928 . S
C189 N185 1.345 . S
C189 C190 1.371 . S
C189 H192 0.931 . S
C190 C186 1.391 . S
C190 C189 1.371 . S
C190 H197 0.930 . S
H191 C188 0.928 . S
H192 C189 0.931 . S
H193 C169 0.930 . S
H194 C166 0.930 . S
H195 C175 0.930 . S
H196 C187 0.929 . S
H197 C190 0.930 . S
C198 C199 1.351 . S
C198 N201 1.368 . S
C198 H203 0.931 . S
C199 C198 1.351 . S
C199 N200 1.373 . S
C199 H227 0.930 . S
N200 C199 1.373 . S
N200 C202 1.340 . S
N201 C198 1.368 . S
N201 C202 1.321 . S
N201 Co204 2.135 . S
C202 N200 1.340 . S
C202 N201 1.321 . S
C202 H226 0.930 . S
H203 C198 0.931 . S
Co204 N201 2.135 . S
Co204 N207 2.121 . S
Co204 O212 2.055 . S
Co204 O215 2.039 . S
Co204 N218 2.140 . S
C205 O206 1.227 . S
C205 O215 1.265 . S
O206 C205 1.227 . S
N207 Co204 2.121 . S
N207 C209 1.375 . S
N207 C210 1.313 . S
C208 C209 1.338 . S
C208 N211 1.377 . S
C208 H228 0.930 . S
C209 N207 1.375 . S
C209 C208 1.338 . S
C209 H213 0.931 . S
C210 N207 1.313 . S
C210 N211 1.344 . S
C210 H214 0.930 . S
N211 C208 1.377 . S
N211 C210 1.344 . S
O212 Co204 2.055 . S
O212 C216 1.253 . S
H213 C209 0.931 . S
H214 C210 0.930 . S
O215 Co204 2.039 . S
O215 C205 1.265 . S
C216 O212 1.253 . S
C216 O217 1.227 . S
O217 C216 1.227 . S
N218 Co204 2.140 . S
N218 C221 1.346 . S
N218 C222 1.345 . S
C219 C220 1.387 . S
C219 C223 1.391 . S
C220 C219 1.387 . S
C220 C221 1.369 . S
C220 H229 0.929 . S
C221 N218 1.346 . S
C221 C220 1.369 . S
C221 H224 0.928 . S
C222 N218 1.345 . S
C222 C223 1.371 . S
C222 H225 0.931 . S
C223 C219 1.391 . S
C223 C222 1.371 . S
C223 H230 0.930 . S
H224 C221 0.928 . S
H225 C222 0.931 . S
H226 C202 0.930 . S
H227 C199 0.930 . S
H228 C208 0.930 . S
H229 C220 0.929 . S
H230 C223 0.930 . S
C231 C232 1.351 . S
C231 N234 1.368 . S
C231 H236 0.931 . S
C232 C231 1.351 . S
C232 N233 1.373 . S
C232 H260 0.930 . S
N233 C232 1.373 . S
N233 C235 1.340 . S
N234 C231 1.368 . S
N234 C235 1.321 . S
N234 Co237 2.135 . S
C235 N233 1.340 . S
C235 N234 1.321 . S
C235 H259 0.930 . S
H236 C231 0.931 . S
Co237 N234 2.135 . S
Co237 N240 2.121 . S
Co237 O245 2.055 . S
Co237 O248 2.039 . S
Co237 N251 2.140 . S
C238 O239 1.227 . S
C238 O248 1.265 . S
O239 C238 1.227 . S
N240 Co237 2.121 . S
N240 C242 1.375 . S
N240 C243 1.313 . S
C241 C242 1.338 . S
C241 N244 1.377 . S
C241 H261 0.930 . S
C242 N240 1.375 . S
C242 C241 1.338 . S
C242 H246 0.931 . S
C243 N240 1.313 . S
C243 N244 1.344 . S
C243 H247 0.930 . S
N244 C241 1.377 . S
N244 C243 1.344 . S
O245 Co237 2.055 . S
O245 C249 1.253 . S
H246 C242 0.931 . S
H247 C243 0.930 . S
O248 Co237 2.039 . S
O248 C238 1.265 . S
C249 O245 1.253 . S
C249 O250 1.227 . S
O250 C249 1.227 . S
N251 Co237 2.140 . S
N251 C254 1.346 . S
N251 C255 1.345 . S
C252 C253 1.387 . S
C252 C256 1.391 . S
C253 C252 1.387 . S
C253 C254 1.369 . S
C253 H262 0.929 . S
C254 N251 1.346 . S
C254 C253 1.369 . S
C254 H257 0.928 . S
C255 N251 1.345 . S
C255 C256 1.371 . S
C255 H258 0.931 . S
C256 C252 1.391 . S
C256 C255 1.371 . S
C256 H263 0.930 . S
H257 C254 0.928 . S
H258 C255 0.931 . S
H259 C235 0.930 . S
H260 C232 0.930 . S
H261 C241 0.930 . S
H262 C253 0.929 . S
H263 C256 0.930 . S
C264 C265 1.351 . S
C264 N267 1.368 . S
C264 H269 0.931 . S
C265 C264 1.351 . S
C265 N266 1.373 . S
C265 H293 0.930 . S
N266 C265 1.373 . S
N266 C268 1.340 . S
N267 C264 1.368 . S
N267 C268 1.321 . S
N267 Co270 2.135 . S
C268 N266 1.340 . S
C268 N267 1.321 . S
C268 H292 0.930 . S
H269 C264 0.931 . S
Co270 N267 2.135 . S
Co270 N273 2.121 . S
Co270 O278 2.055 . S
Co270 O281 2.039 . S
Co270 N284 2.140 . S
C271 O272 1.227 . S
C271 O281 1.265 . S
O272 C271 1.227 . S
N273 Co270 2.121 . S
N273 C275 1.375 . S
N273 C276 1.313 . S
C274 C275 1.338 . S
C274 N277 1.377 . S
C274 H294 0.930 . S
C275 N273 1.375 . S
C275 C274 1.338 . S
C275 H279 0.931 . S
C276 N273 1.313 . S
C276 N277 1.344 . S
C276 H280 0.930 . S
N277 C274 1.377 . S
N277 C276 1.344 . S
O278 Co270 2.055 . S
O278 C282 1.253 . S
H279 C275 0.931 . S
H280 C276 0.930 . S
O281 Co270 2.039 . S
O281 C271 1.265 . S
C282 O278 1.253 . S
C282 O283 1.227 . S
O283 C282 1.227 . S
N284 Co270 2.140 . S
N284 C287 1.346 . S
N284 C288 1.345 . S
C285 C286 1.387 . S
C285 C289 1.391 . S
C286 C285 1.387 . S
C286 C287 1.369 . S
C286 H295 0.929 . S
C287 N284 1.346 . S
C287 C286 1.369 . S
C287 H290 0.928 . S
C288 N284 1.345 . S
C288 C289 1.371 . S
C288 H291 0.931 . S
C289 C285 1.391 . S
C289 C288 1.371 . S
C289 H296 0.930 . S
H290 C287 0.928 . S
H291 C288 0.931 . S
H292 C268 0.930 . S
H293 C265 0.930 . S
H294 C274 0.930 . S
H295 C286 0.929 . S
H296 C289 0.930 . S
C297 C298 1.351 . S
C297 N300 1.368 . S
C297 H302 0.931 . S
C298 C297 1.351 . S
C298 N299 1.373 . S
C298 H326 0.930 . S
N299 C298 1.373 . S
N299 C301 1.340 . S
N300 C297 1.368 . S
N300 C301 1.321 . S
N300 Co303 2.135 . S
C301 N299 1.340 . S
C301 N300 1.321 . S
C301 H325 0.930 . S
H302 C297 0.931 . S
Co303 N300 2.135 . S
Co303 N306 2.121 . S
Co303 O311 2.055 . S
Co303 O314 2.039 . S
Co303 N317 2.140 . S
C304 O305 1.227 . S
C304 O314 1.265 . S
O305 C304 1.227 . S
N306 Co303 2.121 . S
N306 C308 1.375 . S
N306 C309 1.313 . S
C307 C308 1.338 . S
C307 N310 1.377 . S
C307 H327 0.930 . S
C308 N306 1.375 . S
C308 C307 1.338 . S
C308 H312 0.931 . S
C309 N306 1.313 . S
C309 N310 1.344 . S
C309 H313 0.930 . S
N310 C307 1.377 . S
N310 C309 1.344 . S
O311 Co303 2.055 . S
O311 C315 1.253 . S
H312 C308 0.931 . S
H313 C309 0.930 . S
O314 Co303 2.039 . S
O314 C304 1.265 . S
C315 O311 1.253 . S
C315 O316 1.227 . S
O316 C315 1.227 . S
N317 Co303 2.140 . S
N317 C320 1.346 . S
N317 C321 1.345 . S
C318 C319 1.387 . S
C318 C322 1.391 . S
C319 C318 1.387 . S
C319 C320 1.369 . S
C319 H328 0.929 . S
C320 N317 1.346 . S
C320 C319 1.369 . S
C320 H323 0.928 . S
C321 N317 1.345 . S
C321 C322 1.371 . S
C321 H324 0.931 . S
C322 C318 1.391 . S
C322 C321 1.371 . S
C322 H329 0.930 . S
H323 C320 0.928 . S
H324 C321 0.931 . S
H325 C301 0.930 . S
H326 C298 0.930 . S
H327 C307 0.930 . S
H328 C319 0.929 . S
H329 C322 0.930 . S
C330 C331 1.351 . S
C330 N333 1.368 . S
C330 H335 0.931 . S
C331 C330 1.351 . S
C331 N332 1.373 . S
C331 H359 0.930 . S
N332 C331 1.373 . S
N332 C334 1.340 . S
N333 C330 1.368 . S
N333 C334 1.321 . S
N333 Co336 2.135 . S
C334 N332 1.340 . S
C334 N333 1.321 . S
C334 H358 0.930 . S
H335 C330 0.931 . S
Co336 N333 2.135 . S
Co336 N339 2.121 . S
Co336 O344 2.055 . S
Co336 O347 2.039 . S
Co336 N350 2.140 . S
C337 O338 1.227 . S
C337 O347 1.265 . S
O338 C337 1.227 . S
N339 Co336 2.121 . S
N339 C341 1.375 . S
N339 C342 1.313 . S
C340 C341 1.338 . S
C340 N343 1.377 . S
C340 H360 0.930 . S
C341 N339 1.375 . S
C341 C340 1.338 . S
C341 H345 0.931 . S
C342 N339 1.313 . S
C342 N343 1.344 . S
C342 H346 0.930 . S
N343 C340 1.377 . S
N343 C342 1.344 . S
O344 Co336 2.055 . S
O344 C348 1.253 . S
H345 C341 0.931 . S
H346 C342 0.930 . S
O347 Co336 2.039 . S
O347 C337 1.265 . S
C348 O344 1.253 . S
C348 O349 1.227 . S
O349 C348 1.227 . S
N350 Co336 2.140 . S
N350 C353 1.346 . S
N350 C354 1.345 . S
C351 C352 1.387 . S
C351 C355 1.391 . S
C352 C351 1.387 . S
C352 C353 1.369 . S
C352 H361 0.929 . S
C353 N350 1.346 . S
C353 C352 1.369 . S
C353 H356 0.928 . S
C354 N350 1.345 . S
C354 C355 1.371 . S
C354 H357 0.931 . S
C355 C351 1.391 . S
C355 C354 1.371 . S
C355 H362 0.930 . S
H356 C353 0.928 . S
H357 C354 0.931 . S
H358 C334 0.930 . S
H359 C331 0.930 . S
H360 C340 0.930 . S
H361 C352 0.929 . S
H362 C355 0.930 . S
C363 C364 1.351 . S
C363 N366 1.368 . S
C363 H368 0.931 . S
C364 C363 1.351 . S
C364 N365 1.373 . S
C364 H392 0.930 . S
N365 C364 1.373 . S
N365 C367 1.340 . S
N366 C363 1.368 . S
N366 C367 1.321 . S
N366 Co369 2.135 . S
C367 N365 1.340 . S
C367 N366 1.321 . S
C367 H391 0.930 . S
H368 C363 0.931 . S
Co369 N366 2.135 . S
Co369 N372 2.121 . S
Co369 O377 2.055 . S
Co369 O380 2.039 . S
Co369 N383 2.140 . S
C370 O371 1.227 . S
C370 O380 1.265 . S
O371 C370 1.227 . S
N372 Co369 2.121 . S
N372 C374 1.375 . S
N372 C375 1.313 . S
C373 C374 1.338 . S
C373 N376 1.377 . S
C373 H393 0.930 . S
C374 N372 1.375 . S
C374 C373 1.338 . S
C374 H378 0.931 . S
C375 N372 1.313 . S
C375 N376 1.344 . S
C375 H379 0.930 . S
N376 C373 1.377 . S
N376 C375 1.344 . S
O377 Co369 2.055 . S
O377 C381 1.253 . S
H378 C374 0.931 . S
H379 C375 0.930 . S
O380 Co369 2.039 . S
O380 C370 1.265 . S
C381 O377 1.253 . S
C381 O382 1.227 . S
O382 C381 1.227 . S
N383 Co369 2.140 . S
N383 C386 1.346 . S
N383 C387 1.345 . S
C384 C385 1.387 . S
C384 C388 1.391 . S
C385 C384 1.387 . S
C385 C386 1.369 . S
C385 H394 0.929 . S
C386 N383 1.346 . S
C386 C385 1.369 . S
C386 H389 0.928 . S
C387 N383 1.345 . S
C387 C388 1.371 . S
C387 H390 0.931 . S
C388 C384 1.391 . S
C388 C387 1.371 . S
C388 H395 0.930 . S
H389 C386 0.928 . S
H390 C387 0.931 . S
H391 C367 0.930 . S
H392 C364 0.930 . S
H393 C373 0.930 . S
H394 C385 0.929 . S
H395 C388 0.930 . S
C396 C397 1.351 . S
C396 N399 1.368 . S
C396 H401 0.931 . S
C397 C396 1.351 . S
C397 N398 1.373 . S
C397 H425 0.930 . S
N398 C397 1.373 . S
N398 C400 1.340 . S
N399 C396 1.368 . S
N399 C400 1.321 . S
N399 Co402 2.135 . S
C400 N398 1.340 . S
C400 N399 1.321 . S
C400 H424 0.930 . S
H401 C396 0.931 . S
Co402 N399 2.135 . S
Co402 N405 2.121 . S
Co402 O410 2.055 . S
Co402 O413 2.039 . S
Co402 N416 2.140 . S
C403 O404 1.227 . S
C403 O413 1.265 . S
O404 C403 1.227 . S
N405 Co402 2.121 . S
N405 C407 1.375 . S
N405 C408 1.313 . S
C406 C407 1.338 . S
C406 N409 1.377 . S
C406 H426 0.930 . S
C407 N405 1.375 . S
C407 C406 1.338 . S
C407 H411 0.931 . S
C408 N405 1.313 . S
C408 N409 1.344 . S
C408 H412 0.930 . S
N409 C406 1.377 . S
N409 C408 1.344 . S
O410 Co402 2.055 . S
O410 C414 1.253 . S
H411 C407 0.931 . S
H412 C408 0.930 . S
O413 Co402 2.039 . S
O413 C403 1.265 . S
C414 O410 1.253 . S
C414 O415 1.227 . S
O415 C414 1.227 . S
N416 Co402 2.140 . S
N416 C419 1.346 . S
N416 C420 1.345 . S
C417 C418 1.387 . S
C417 C421 1.391 . S
C418 C417 1.387 . S
C418 C419 1.369 . S
C418 H427 0.929 . S
C419 N416 1.346 . S
C419 C418 1.369 . S
C419 H422 0.928 . S
C420 N416 1.345 . S
C420 C421 1.371 . S
C420 H423 0.931 . S
C421 C417 1.391 . S
C421 C420 1.371 . S
C421 H428 0.930 . S
H422 C419 0.928 . S
H423 C420 0.931 . S
H424 C400 0.930 . S
H425 C397 0.930 . S
H426 C406 0.930 . S
H427 C418 0.929 . S
H428 C421 0.930 . S
C429 C430 1.351 . S
C429 N432 1.368 . S
C429 H434 0.931 . S
C430 C429 1.351 . S
C430 N431 1.373 . S
C430 H458 0.930 . S
N431 C430 1.373 . S
N431 C433 1.340 . S
N432 C429 1.368 . S
N432 C433 1.321 . S
N432 Co435 2.135 . S
C433 N431 1.340 . S
C433 N432 1.321 . S
C433 H457 0.930 . S
H434 C429 0.931 . S
Co435 N432 2.135 . S
Co435 N438 2.121 . S
Co435 O443 2.055 . S
Co435 O446 2.039 . S
Co435 N449 2.140 . S
C436 O437 1.227 . S
C436 O446 1.265 . S
O437 C436 1.227 . S
N438 Co435 2.121 . S
N438 C440 1.375 . S
N438 C441 1.313 . S
C439 C440 1.338 . S
C439 N442 1.377 . S
C439 H459 0.930 . S
C440 N438 1.375 . S
C440 C439 1.338 . S
C440 H444 0.931 . S
C441 N438 1.313 . S
C441 N442 1.344 . S
C441 H445 0.930 . S
N442 C439 1.377 . S
N442 C441 1.344 . S
O443 Co435 2.055 . S
O443 C447 1.253 . S
H444 C440 0.931 . S
H445 C441 0.930 . S
O446 Co435 2.039 . S
O446 C436 1.265 . S
C447 O443 1.253 . S
C447 O448 1.227 . S
O448 C447 1.227 . S
N449 Co435 2.140 . S
N449 C452 1.346 . S
N449 C453 1.345 . S
C450 C451 1.387 . S
C450 C454 1.391 . S
C451 C450 1.387 . S
C451 C452 1.369 . S
C451 H460 0.929 . S
C452 N449 1.346 . S
C452 C451 1.369 . S
C452 H455 0.928 . S
C453 N449 1.345 . S
C453 C454 1.371 . S
C453 H456 0.931 . S
C454 C450 1.391 . S
C454 C453 1.371 . S
C454 H461 0.930 . S
H455 C452 0.928 . S
H456 C453 0.931 . S
H457 C433 0.930 . S
H458 C430 0.930 . S
H459 C439 0.930 . S
H460 C451 0.929 . S
H461 C454 0.930 . S
C462 C463 1.351 . S
C462 N465 1.368 . S
C462 H467 0.931 . S
C463 C462 1.351 . S
C463 N464 1.373 . S
C463 H491 0.930 . S
N464 C463 1.373 . S
N464 C466 1.340 . S
N465 C462 1.368 . S
N465 C466 1.321 . S
N465 Co468 2.135 . S
C466 N464 1.340 . S
C466 N465 1.321 . S
C466 H490 0.930 . S
H467 C462 0.931 . S
Co468 N465 2.135 . S
Co468 N471 2.121 . S
Co468 O476 2.055 . S
Co468 O479 2.039 . S
Co468 N482 2.140 . S
C469 O470 1.227 . S
C469 O479 1.265 . S
O470 C469 1.227 . S
N471 Co468 2.121 . S
N471 C473 1.375 . S
N471 C474 1.313 . S
C472 C473 1.338 . S
C472 N475 1.377 . S
C472 H492 0.930 . S
C473 N471 1.375 . S
C473 C472 1.338 . S
C473 H477 0.931 . S
C474 N471 1.313 . S
C474 N475 1.344 . S
C474 H478 0.930 . S
N475 C472 1.377 . S
N475 C474 1.344 . S
O476 Co468 2.055 . S
O476 C480 1.253 . S
H477 C473 0.931 . S
H478 C474 0.930 . S
O479 Co468 2.039 . S
O479 C469 1.265 . S
C480 O476 1.253 . S
C480 O481 1.227 . S
O481 C480 1.227 . S
N482 Co468 2.140 . S
N482 C485 1.346 . S
N482 C486 1.345 . S
C483 C484 1.387 . S
C483 C487 1.391 . S
C484 C483 1.387 . S
C484 C485 1.369 . S
C484 H493 0.929 . S
C485 N482 1.346 . S
C485 C484 1.369 . S
C485 H488 0.928 . S
C486 N482 1.345 . S
C486 C487 1.371 . S
C486 H489 0.931 . S
C487 C483 1.391 . S
C487 C486 1.371 . S
C487 H494 0.930 . S
H488 C485 0.928 . S
H489 C486 0.931 . S
H490 C466 0.930 . S
H491 C463 0.930 . S
H492 C472 0.930 . S
H493 C484 0.929 . S
H494 C487 0.930 . S
C495 C496 1.351 . S
C495 N498 1.368 . S
C495 H500 0.931 . S
C496 C495 1.351 . S
C496 N497 1.373 . S
C496 H524 0.930 . S
N497 C496 1.373 . S
N497 C499 1.340 . S
N498 C495 1.368 . S
N498 C499 1.321 . S
N498 Co501 2.135 . S
C499 N497 1.340 . S
C499 N498 1.321 . S
C499 H523 0.930 . S
H500 C495 0.931 . S
Co501 N498 2.135 . S
Co501 N504 2.121 . S
Co501 O509 2.055 . S
Co501 O512 2.039 . S
Co501 N515 2.140 . S
C502 O503 1.227 . S
C502 O512 1.265 . S
O503 C502 1.227 . S
N504 Co501 2.121 . S
N504 C506 1.375 . S
N504 C507 1.313 . S
C505 C506 1.338 . S
C505 N508 1.377 . S
C505 H525 0.930 . S
C506 N504 1.375 . S
C506 C505 1.338 . S
C506 H510 0.931 . S
C507 N504 1.313 . S
C507 N508 1.344 . S
C507 H511 0.930 . S
N508 C505 1.377 . S
N508 C507 1.344 . S
O509 Co501 2.055 . S
O509 C513 1.253 . S
H510 C506 0.931 . S
H511 C507 0.930 . S
O512 Co501 2.039 . S
O512 C502 1.265 . S
C513 O509 1.253 . S
C513 O514 1.227 . S
O514 C513 1.227 . S
N515 Co501 2.140 . S
N515 C518 1.346 . S
N515 C519 1.345 . S
C516 C517 1.387 . S
C516 C520 1.391 . S
C517 C516 1.387 . S
C517 C518 1.369 . S
C517 H526 0.929 . S
C518 N515 1.346 . S
C518 C517 1.369 . S
C518 H521 0.928 . S
C519 N515 1.345 . S
C519 C520 1.371 . S
C519 H522 0.931 . S
C520 C516 1.391 . S
C520 C519 1.371 . S
C520 H527 0.930 . S
H521 C518 0.928 . S
H522 C519 0.931 . S
H523 C499 0.930 . S
H524 C496 0.930 . S
H525 C505 0.930 . S
H526 C517 0.929 . S
H527 C520 0.930 . S
C528 C529 1.351 . S
C528 N531 1.368 . S
C528 H533 0.931 . S
C529 C528 1.351 . S
C529 N530 1.373 . S
C529 H557 0.930 . S
N530 C529 1.373 . S
N530 C532 1.340 . S
N531 C528 1.368 . S
N531 C532 1.321 . S
N531 Co534 2.135 . S
C532 N530 1.340 . S
C532 N531 1.321 . S
C532 H556 0.930 . S
H533 C528 0.931 . S
Co534 N531 2.135 . S
Co534 N537 2.121 . S
Co534 O542 2.055 . S
Co534 O545 2.039 . S
Co534 N548 2.140 . S
C535 O536 1.227 . S
C535 O545 1.265 . S
O536 C535 1.227 . S
N537 Co534 2.121 . S
N537 C539 1.375 . S
N537 C540 1.313 . S
C538 C539 1.338 . S
C538 N541 1.377 . S
C538 H558 0.930 . S
C539 N537 1.375 . S
C539 C538 1.338 . S
C539 H543 0.931 . S
C540 N537 1.313 . S
C540 N541 1.344 . S
C540 H544 0.930 . S
N541 C538 1.377 . S
N541 C540 1.344 . S
O542 Co534 2.055 . S
O542 C546 1.253 . S
H543 C539 0.931 . S
H544 C540 0.930 . S
O545 Co534 2.039 . S
O545 C535 1.265 . S
C546 O542 1.253 . S
C546 O547 1.227 . S
O547 C546 1.227 . S
N548 Co534 2.140 . S
N548 C551 1.346 . S
N548 C552 1.345 . S
C549 C550 1.387 . S
C549 C553 1.391 . S
C550 C549 1.387 . S
C550 C551 1.369 . S
C550 H559 0.929 . S
C551 N548 1.346 . S
C551 C550 1.369 . S
C551 H554 0.928 . S
C552 N548 1.345 . S
C552 C553 1.371 . S
C552 H555 0.931 . S
C553 C549 1.391 . S
C553 C552 1.371 . S
C553 H560 0.930 . S
H554 C551 0.928 . S
H555 C552 0.931 . S
H556 C532 0.930 . S
H557 C529 0.930 . S
H558 C538 0.930 . S
H559 C550 0.929 . S
H560 C553 0.930 . S
C561 C562 1.351 . S
C561 N564 1.368 . S
C561 H566 0.931 . S
C562 C561 1.351 . S
C562 N563 1.373 . S
C562 H590 0.930 . S
N563 C562 1.373 . S
N563 C565 1.340 . S
N564 C561 1.368 . S
N564 C565 1.321 . S
N564 Co567 2.135 . S
C565 N563 1.340 . S
C565 N564 1.321 . S
C565 H589 0.930 . S
H566 C561 0.931 . S
Co567 N564 2.135 . S
Co567 N570 2.121 . S
Co567 O575 2.055 . S
Co567 O578 2.039 . S
Co567 N581 2.140 . S
C568 O569 1.227 . S
C568 O578 1.265 . S
O569 C568 1.227 . S
N570 Co567 2.121 . S
N570 C572 1.375 . S
N570 C573 1.313 . S
C571 C572 1.338 . S
C571 N574 1.377 . S
C571 H591 0.930 . S
C572 N570 1.375 . S
C572 C571 1.338 . S
C572 H576 0.931 . S
C573 N570 1.313 . S
C573 N574 1.344 . S
C573 H577 0.930 . S
N574 C571 1.377 . S
N574 C573 1.344 . S
O575 Co567 2.055 . S
O575 C579 1.253 . S
H576 C572 0.931 . S
H577 C573 0.930 . S
O578 Co567 2.039 . S
O578 C568 1.265 . S
C579 O575 1.253 . S
C579 O580 1.227 . S
O580 C579 1.227 . S
N581 Co567 2.140 . S
N581 C584 1.346 . S
N581 C585 1.345 . S
C582 C583 1.387 . S
C582 C586 1.391 . S
C583 C582 1.387 . S
C583 C584 1.369 . S
C583 H592 0.929 . S
C584 N581 1.346 . S
C584 C583 1.369 . S
C584 H587 0.928 . S
C585 N581 1.345 . S
C585 C586 1.371 . S
C585 H588 0.931 . S
C586 C582 1.391 . S
C586 C585 1.371 . S
C586 H593 0.930 . S
H587 C584 0.928 . S
H588 C585 0.931 . S
H589 C565 0.930 . S
H590 C562 0.930 . S
H591 C571 0.930 . S
H592 C583 0.929 . S
H593 C586 0.930 . S
C594 C595 1.351 . S
C594 N597 1.368 . S
C594 H599 0.931 . S
C595 C594 1.351 . S
C595 N596 1.373 . S
C595 H623 0.930 . S
N596 C595 1.373 . S
N596 C598 1.340 . S
N597 C594 1.368 . S
N597 C598 1.321 . S
N597 Co600 2.135 . S
C598 N596 1.340 . S
C598 N597 1.321 . S
C598 H622 0.930 . S
H599 C594 0.931 . S
Co600 N597 2.135 . S
Co600 N603 2.121 . S
Co600 O608 2.055 . S
Co600 O611 2.039 . S
Co600 N614 2.140 . S
C601 O602 1.227 . S
C601 O611 1.265 . S
O602 C601 1.227 . S
N603 Co600 2.121 . S
N603 C605 1.375 . S
N603 C606 1.313 . S
C604 C605 1.338 . S
C604 N607 1.377 . S
C604 H624 0.930 . S
C605 N603 1.375 . S
C605 C604 1.338 . S
C605 H609 0.931 . S
C606 N603 1.313 . S
C606 N607 1.344 . S
C606 H610 0.930 . S
N607 C604 1.377 . S
N607 C606 1.344 . S
O608 Co600 2.055 . S
O608 C612 1.253 . S
H609 C605 0.931 . S
H610 C606 0.930 . S
O611 Co600 2.039 . S
O611 C601 1.265 . S
C612 O608 1.253 . S
C612 O613 1.227 . S
O613 C612 1.227 . S
N614 Co600 2.140 . S
N614 C617 1.346 . S
N614 C618 1.345 . S
C615 C616 1.387 . S
C615 C619 1.391 . S
C616 C615 1.387 . S
C616 C617 1.369 . S
C616 H625 0.929 . S
C617 N614 1.346 . S
C617 C616 1.369 . S
C617 H620 0.928 . S
C618 N614 1.345 . S
C618 C619 1.371 . S
C618 H621 0.931 . S
C619 C615 1.391 . S
C619 C618 1.371 . S
C619 H626 0.930 . S
H620 C617 0.928 . S
H621 C618 0.931 . S
H622 C598 0.930 . S
H623 C595 0.930 . S
H624 C604 0.930 . S
H625 C616 0.929 . S
H626 C619 0.930 . S
C627 C628 1.351 . S
C627 N630 1.368 . S
C627 H632 0.931 . S
C628 C627 1.351 . S
C628 N629 1.373 . S
C628 H656 0.930 . S
N629 C628 1.373 . S
N629 C631 1.340 . S
N630 C627 1.368 . S
N630 C631 1.321 . S
N630 Co633 2.135 . S
C631 N629 1.340 . S
C631 N630 1.321 . S
C631 H655 0.930 . S
H632 C627 0.931 . S
Co633 N630 2.135 . S
Co633 N636 2.121 . S
Co633 O641 2.055 . S
Co633 O644 2.039 . S
Co633 N647 2.140 . S
C634 O635 1.227 . S
C634 O644 1.265 . S
O635 C634 1.227 . S
N636 Co633 2.121 . S
N636 C638 1.375 . S
N636 C639 1.313 . S
C637 C638 1.338 . S
C637 N640 1.377 . S
C637 H657 0.930 . S
C638 N636 1.375 . S
C638 C637 1.338 . S
C638 H642 0.931 . S
C639 N636 1.313 . S
C639 N640 1.344 . S
C639 H643 0.930 . S
N640 C637 1.377 . S
N640 C639 1.344 . S
O641 Co633 2.055 . S
O641 C645 1.253 . S
H642 C638 0.931 . S
H643 C639 0.930 . S
O644 Co633 2.039 . S
O644 C634 1.265 . S
C645 O641 1.253 . S
C645 O646 1.227 . S
O646 C645 1.227 . S
N647 Co633 2.140 . S
N647 C650 1.346 . S
N647 C651 1.345 . S
C648 C649 1.387 . S
C648 C652 1.391 . S
C649 C648 1.387 . S
C649 C650 1.369 . S
C649 H658 0.929 . S
C650 N647 1.346 . S
C650 C649 1.369 . S
C650 H653 0.928 . S
C651 N647 1.345 . S
C651 C652 1.371 . S
C651 H654 0.931 . S
C652 C648 1.391 . S
C652 C651 1.371 . S
C652 H659 0.930 . S
H653 C650 0.928 . S
H654 C651 0.931 . S
H655 C631 0.930 . S
H656 C628 0.930 . S
H657 C637 0.930 . S
H658 C649 0.929 . S
H659 C652 0.930 . S
C660 C661 1.351 . S
C660 N663 1.368 . S
C660 H665 0.931 . S
C661 C660 1.351 . S
C661 N662 1.373 . S
C661 H689 0.930 . S
N662 C661 1.373 . S
N662 C664 1.340 . S
N663 C660 1.368 . S
N663 C664 1.321 . S
N663 Co666 2.135 . S
C664 N662 1.340 . S
C664 N663 1.321 . S
C664 H688 0.930 . S
H665 C660 0.931 . S
Co666 N663 2.135 . S
Co666 N669 2.121 . S
Co666 O674 2.055 . S
Co666 O677 2.039 . S
Co666 N680 2.140 . S
C667 O668 1.227 . S
C667 O677 1.265 . S
O668 C667 1.227 . S
N669 Co666 2.121 . S
N669 C671 1.375 . S
N669 C672 1.313 . S
C670 C671 1.338 . S
C670 N673 1.377 . S
C670 H690 0.930 . S
C671 N669 1.375 . S
C671 C670 1.338 . S
C671 H675 0.931 . S
C672 N669 1.313 . S
C672 N673 1.344 . S
C672 H676 0.930 . S
N673 C670 1.377 . S
N673 C672 1.344 . S
O674 Co666 2.055 . S
O674 C678 1.253 . S
H675 C671 0.931 . S
H676 C672 0.930 . S
O677 Co666 2.039 . S
O677 C667 1.265 . S
C678 O674 1.253 . S
C678 O679 1.227 . S
O679 C678 1.227 . S
N680 Co666 2.140 . S
N680 C683 1.346 . S
N680 C684 1.345 . S
C681 C682 1.387 . S
C681 C685 1.391 . S
C682 C681 1.387 . S
C682 C683 1.369 . S
C682 H691 0.929 . S
C683 N680 1.346 . S
C683 C682 1.369 . S
C683 H686 0.928 . S
C684 N680 1.345 . S
C684 C685 1.371 . S
C684 H687 0.931 . S
C685 C681 1.391 . S
C685 C684 1.371 . S
C685 H692 0.930 . S
H686 C683 0.928 . S
H687 C684 0.931 . S
H688 C664 0.930 . S
H689 C661 0.930 . S
H690 C670 0.930 . S
H691 C682 0.929 . S
H692 C685 0.930 . S
C693 C694 1.351 . S
C693 N696 1.368 . S
C693 H698 0.931 . S
C694 C693 1.351 . S
C694 N695 1.373 . S
C694 H722 0.930 . S
N695 C694 1.373 . S
N695 C697 1.340 . S
N696 C693 1.368 . S
N696 C697 1.321 . S
N696 Co699 2.135 . S
C697 N695 1.340 . S
C697 N696 1.321 . S
C697 H721 0.930 . S
H698 C693 0.931 . S
Co699 N696 2.135 . S
Co699 N702 2.121 . S
Co699 O707 2.055 . S
Co699 O710 2.039 . S
Co699 N713 2.140 . S
C700 O701 1.227 . S
C700 O710 1.265 . S
O701 C700 1.227 . S
N702 Co699 2.121 . S
N702 C704 1.375 . S
N702 C705 1.313 . S
C703 C704 1.338 . S
C703 N706 1.377 . S
C703 H723 0.930 . S
C704 N702 1.375 . S
C704 C703 1.338 . S
C704 H708 0.931 . S
C705 N702 1.313 . S
C705 N706 1.344 . S
C705 H709 0.930 . S
N706 C703 1.377 . S
N706 C705 1.344 . S
O707 Co699 2.055 . S
O707 C711 1.253 . S
H708 C704 0.931 . S
H709 C705 0.930 . S
O710 Co699 2.039 . S
O710 C700 1.265 . S
C711 O707 1.253 . S
C711 O712 1.227 . S
O712 C711 1.227 . S
N713 Co699 2.140 . S
N713 C716 1.346 . S
N713 C717 1.345 . S
C714 C715 1.387 . S
C714 C718 1.391 . S
C715 C714 1.387 . S
C715 C716 1.369 . S
C715 H724 0.929 . S
C716 N713 1.346 . S
C716 C715 1.369 . S
C716 H719 0.928 . S
C717 N713 1.345 . S
C717 C718 1.371 . S
C717 H720 0.931 . S
C718 C714 1.391 . S
C718 C717 1.371 . S
C718 H725 0.930 . S
H719 C716 0.928 . S
H720 C717 0.931 . S
H721 C697 0.930 . S
H722 C694 0.930 . S
H723 C703 0.930 . S
H724 C715 0.929 . S
H725 C718 0.930 . S
C726 C727 1.351 . S
C726 N729 1.368 . S
C726 H731 0.931 . S
C727 C726 1.351 . S
C727 N728 1.373 . S
C727 H755 0.930 . S
N728 C727 1.373 . S
N728 C730 1.340 . S
N729 C726 1.368 . S
N729 C730 1.321 . S
N729 Co732 2.135 . S
C730 N728 1.340 . S
C730 N729 1.321 . S
C730 H754 0.930 . S
H731 C726 0.931 . S
Co732 N729 2.135 . S
Co732 N735 2.121 . S
Co732 O740 2.055 . S
Co732 O743 2.039 . S
Co732 N746 2.140 . S
C733 O734 1.227 . S
C733 O743 1.265 . S
O734 C733 1.227 . S
N735 Co732 2.121 . S
N735 C737 1.375 . S
N735 C738 1.313 . S
C736 C737 1.338 . S
C736 N739 1.377 . S
C736 H756 0.930 . S
C737 N735 1.375 . S
C737 C736 1.338 . S
C737 H741 0.931 . S
C738 N735 1.313 . S
C738 N739 1.344 . S
C738 H742 0.930 . S
N739 C736 1.377 . S
N739 C738 1.344 . S
O740 Co732 2.055 . S
O740 C744 1.253 . S
H741 C737 0.931 . S
H742 C738 0.930 . S
O743 Co732 2.039 . S
O743 C733 1.265 . S
C744 O740 1.253 . S
C744 O745 1.227 . S
O745 C744 1.227 . S
N746 Co732 2.140 . S
N746 C749 1.346 . S
N746 C750 1.345 . S
C747 C748 1.387 . S
C747 C751 1.391 . S
C748 C747 1.387 . S
C748 C749 1.369 . S
C748 H757 0.929 . S
C749 N746 1.346 . S
C749 C748 1.369 . S
C749 H752 0.928 . S
C750 N746 1.345 . S
C750 C751 1.371 . S
C750 H753 0.931 . S
C751 C747 1.391 . S
C751 C750 1.371 . S
C751 H758 0.930 . S
H752 C749 0.928 . S
H753 C750 0.931 . S
H754 C730 0.930 . S
H755 C727 0.930 . S
H756 C736 0.930 . S
H757 C748 0.929 . S
H758 C751 0.930 . S
C759 C760 1.351 . S
C759 N762 1.368 . S
C759 H764 0.931 . S
C760 C759 1.351 . S
C760 N761 1.373 . S
C760 H788 0.930 . S
N761 C760 1.373 . S
N761 C763 1.340 . S
N762 C759 1.368 . S
N762 C763 1.321 . S
N762 Co765 2.135 . S
C763 N761 1.340 . S
C763 N762 1.321 . S
C763 H787 0.930 . S
H764 C759 0.931 . S
Co765 N762 2.135 . S
Co765 N768 2.121 . S
Co765 O773 2.055 . S
Co765 O776 2.039 . S
Co765 N779 2.140 . S
C766 O767 1.227 . S
C766 O776 1.265 . S
O767 C766 1.227 . S
N768 Co765 2.121 . S
N768 C770 1.375 . S
N768 C771 1.313 . S
C769 C770 1.338 . S
C769 N772 1.377 . S
C769 H789 0.930 . S
C770 N768 1.375 . S
C770 C769 1.338 . S
C770 H774 0.931 . S
C771 N768 1.313 . S
C771 N772 1.344 . S
C771 H775 0.930 . S
N772 C769 1.377 . S
N772 C771 1.344 . S
O773 Co765 2.055 . S
O773 C777 1.253 . S
H774 C770 0.931 . S
H775 C771 0.930 . S
O776 Co765 2.039 . S
O776 C766 1.265 . S
C777 O773 1.253 . S
C777 O778 1.227 . S
O778 C777 1.227 . S
N779 Co765 2.140 . S
N779 C782 1.346 . S
N779 C783 1.345 . S
C780 C781 1.387 . S
C780 C784 1.391 . S
C781 C780 1.387 . S
C781 C782 1.369 . S
C781 H790 0.929 . S
C782 N779 1.346 . S
C782 C781 1.369 . S
C782 H785 0.928 . S
C783 N779 1.345 . S
C783 C784 1.371 . S
C783 H786 0.931 . S
C784 C780 1.391 . S
C784 C783 1.371 . S
C784 H791 0.930 . S
H785 C782 0.928 . S
H786 C783 0.931 . S
H787 C763 0.930 . S
H788 C760 0.930 . S
H789 C769 0.930 . S
H790 C781 0.929 . S
H791 C784 0.930 . S
H792 C800 0.929 . S
H793 C802 0.930 . S
H794 C804 0.930 . S
H795 C807 0.929 . S
H796 C810 0.930 . S
H797 C812 0.960 . S
H798 C812 0.960 . S
H799 C812 0.960 . S
C800 H792 0.929 . S
C800 C801 1.377 . S
C800 C802 1.384 . S
C801 C800 1.377 . S
C801 C807 1.390 . S
C802 H793 0.930 . S
C802 C800 1.384 . S
C802 C803 1.372 . S
C803 C802 1.372 . S
C803 C804 1.400 . S
C803 C808 1.490 . S
C804 H794 0.930 . S
C804 C803 1.400 . S
C804 C807 1.386 . S
H805 C821 0.930 . S
H806 C822 0.931 . S
C807 H795 0.929 . S
C807 C801 1.390 . S
C807 C804 1.386 . S
C808 C803 1.490 . S
C808 C810 1.395 . S
C808 C811 1.403 . S
H809 C815 0.930 . S
C810 H796 0.930 . S
C810 C808 1.395 . S
C810 C813 1.403 . S
C811 C808 1.403 . S
C811 C812 1.524 . S
C811 C815 1.400 . S
C812 H797 0.960 . S
C812 H798 0.960 . S
C812 H799 0.960 . S
C812 C811 1.524 . S
C813 C810 1.403 . S
C813 C814 1.392 . S
C813 C817 1.495 . S
C814 C813 1.392 . S
C814 C815 1.385 . S
C814 C816 1.478 . S
C815 H809 0.930 . S
C815 C811 1.400 . S
C815 C814 1.385 . S
C816 C814 1.478 . S
C816 C818 1.381 . S
C816 C822 1.383 . S
C817 C813 1.495 . S
C817 H823 0.959 . S
C817 H824 0.961 . S
C817 H825 0.960 . S
C818 C816 1.381 . S
C818 C819 1.394 . S
C818 H826 0.930 . S
C819 C818 1.394 . S
C819 C820 1.383 . S
C819 H827 0.929 . S
C820 C819 1.383 . S
C820 C821 1.377 . S
C821 H805 0.930 . S
C821 C820 1.377 . S
C821 C822 1.379 . S
C822 H806 0.931 . S
C822 C816 1.383 . S
C822 C821 1.379 . S
H823 C817 0.959 . S
H824 C817 0.961 . S
H825 C817 0.960 . S
H826 C818 0.930 . S
H827 C819 0.929 . S
H828 C836 0.929 . S
H829 C838 0.930 . S
H830 C840 0.930 . S
H831 C843 0.929 . S
H832 C846 0.930 . S
H833 C848 0.960 . S
H834 C848 0.960 . S
H835 C848 0.960 . S
C836 H828 0.929 . S
C836 C837 1.377 . S
C836 C838 1.384 1_455 S
C837 C836 1.377 . S
C837 C843 1.389 . S
C838 H829 0.930 . S
C838 C836 1.384 1_655 S
C838 C839 1.372 . S
C839 C838 1.372 . S
C839 C840 1.400 . S
C839 C844 1.490 . S
C840 H830 0.930 . S
C840 C839 1.400 . S
C840 C843 1.387 1_655 S
H841 C857 0.930 . S
H842 C858 0.931 . S
C843 H831 0.929 . S
C843 C837 1.389 . S
C843 C840 1.387 1_455 S
C844 C839 1.490 . S
C844 C846 1.395 . S
C844 C847 1.403 . S
H845 C851 0.930 . S
C846 H832 0.930 . S
C846 C844 1.395 . S
C846 C849 1.403 . S
C847 C844 1.403 . S
C847 C848 1.524 . S
C847 C851 1.400 . S
C848 H833 0.960 . S
C848 H834 0.960 . S
C848 H835 0.960 . S
C848 C847 1.524 . S
C849 C846 1.403 . S
C849 C850 1.392 . S
C849 C853 1.495 . S
C850 C849 1.392 . S
C850 C851 1.385 . S
C850 C852 1.478 . S
C851 H845 0.930 . S
C851 C847 1.400 . S
C851 C850 1.385 . S
C852 C850 1.478 . S
C852 C854 1.381 . S
C852 C858 1.383 . S
C853 C849 1.495 . S
C853 H859 0.959 . S
C853 H860 0.961 . S
C853 H861 0.960 . S
C854 C852 1.381 . S
C854 C855 1.394 . S
C854 H862 0.930 . S
C855 C854 1.394 . S
C855 C856 1.383 . S
C855 H863 0.929 . S
C856 C855 1.383 . S
C856 C857 1.377 . S
C857 H841 0.930 . S
C857 C856 1.377 . S
C857 C858 1.379 . S
C858 H842 0.931 . S
C858 C852 1.383 . S
C858 C857 1.379 . S
H859 C853 0.959 . S
H860 C853 0.961 . S
H861 C853 0.960 . S
H862 C854 0.930 . S
H863 C855 0.929 . S
H864 C872 0.929 . S
H865 C874 0.930 . S
H866 C876 0.930 . S
H867 C879 0.929 . S
H868 C882 0.930 . S
H869 C884 0.960 . S
H870 C884 0.960 . S
H871 C884 0.960 . S
C872 H864 0.929 . S
C872 C873 1.377 . S
C872 C874 1.384 . S
C873 C872 1.377 . S
C873 C879 1.390 . S
C874 H865 0.930 . S
C874 C872 1.384 . S
C874 C875 1.372 . S
C875 C874 1.372 . S
C875 C876 1.400 . S
C875 C880 1.490 . S
C876 H866 0.930 . S
C876 C875 1.400 . S
C876 C879 1.386 . S
H877 C893 0.930 . S
H878 C894 0.931 . S
C879 H867 0.929 . S
C879 C873 1.390 . S
C879 C876 1.386 . S
C880 C875 1.490 . S
C880 C882 1.395 . S
C880 C883 1.403 . S
H881 C887 0.930 . S
C882 H868 0.930 . S
C882 C880 1.395 . S
C882 C885 1.403 . S
C883 C880 1.403 . S
C883 C884 1.524 . S
C883 C887 1.400 . S
C884 H869 0.960 . S
C884 H870 0.960 . S
C884 H871 0.960 . S
C884 C883 1.524 . S
C885 C882 1.403 . S
C885 C886 1.392 . S
C885 C889 1.495 . S
C886 C885 1.392 . S
C886 C887 1.385 . S
C886 C888 1.478 . S
C887 H881 0.930 . S
C887 C883 1.400 . S
C887 C886 1.385 . S
C888 C886 1.478 . S
C888 C890 1.381 . S
C888 C894 1.383 . S
C889 C885 1.495 . S
C889 H895 0.959 . S
C889 H896 0.961 . S
C889 H897 0.960 . S
C890 C888 1.381 . S
C890 C891 1.394 . S
C890 H898 0.930 . S
C891 C890 1.394 . S
C891 C892 1.383 . S
C891 H899 0.929 . S
C892 C891 1.383 . S
C892 C893 1.377 . S
C893 H877 0.930 . S
C893 C892 1.377 . S
C893 C894 1.379 . S
C894 H878 0.931 . S
C894 C888 1.383 . S
C894 C893 1.379 . S
H895 C889 0.959 . S
H896 C889 0.961 . S
H897 C889 0.960 . S
H898 C890 0.930 . S
H899 C891 0.929 . S
H900 C908 0.929 . S
H901 C910 0.930 . S
H902 C912 0.930 . S
H903 C915 0.929 . S
H904 C918 0.930 . S
H905 C920 0.960 . S
H906 C920 0.960 . S
H907 C920 0.960 . S
C908 H900 0.929 . S
C908 C909 1.377 . S
C908 C910 1.384 . S
C909 C908 1.377 . S
C909 C915 1.390 . S
C910 H901 0.930 . S
C910 C908 1.384 . S
C910 C911 1.372 . S
C911 C910 1.372 . S
C911 C912 1.400 . S
C911 C916 1.490 . S
C912 H902 0.930 . S
C912 C911 1.400 . S
C912 C915 1.386 . S
H913 C929 0.930 . S
H914 C930 0.931 . S
C915 H903 0.929 . S
C915 C909 1.390 . S
C915 C912 1.386 . S
C916 C911 1.490 . S
C916 C918 1.395 . S
C916 C919 1.403 . S
H917 C923 0.930 . S
C918 H904 0.930 . S
C918 C916 1.395 . S
C918 C921 1.403 . S
C919 C916 1.403 . S
C919 C920 1.524 . S
C919 C923 1.400 . S
C920 H905 0.960 . S
C920 H906 0.960 . S
C920 H907 0.960 . S
C920 C919 1.524 . S
C921 C918 1.403 . S
C921 C922 1.392 . S
C921 C925 1.495 . S
C922 C921 1.392 . S
C922 C923 1.385 . S
C922 C924 1.478 . S
C923 H917 0.930 . S
C923 C919 1.400 . S
C923 C922 1.385 . S
C924 C922 1.478 . S
C924 C926 1.381 . S
C924 C930 1.383 . S
C925 C921 1.495 . S
C925 H931 0.959 . S
C925 H932 0.961 . S
C925 H933 0.960 . S
C926 C924 1.381 . S
C926 C927 1.394 1_455 S
C926 H934 0.930 . S
C927 C926 1.394 1_655 S
C927 C928 1.383 . S
C927 H935 0.929 . S
C928 C927 1.383 . S
C928 C929 1.377 . S
C929 H913 0.930 . S
C929 C928 1.377 . S
C929 C930 1.379 1_655 S
C930 H914 0.931 . S
C930 C924 1.383 . S
C930 C929 1.379 1_455 S
H931 C925 0.959 . S
H932 C925 0.961 . S
H933 C925 0.960 . S
H934 C926 0.930 . S
H935 C927 0.929 . S
H936 C944 0.929 . S
H937 C946 0.930 . S
H938 C948 0.930 . S
H939 C951 0.929 . S
H940 C954 0.930 . S
H941 C956 0.960 . S
H942 C956 0.960 . S
H943 C956 0.960 . S
C944 H936 0.929 . S
C944 C945 1.377 . S
C944 C946 1.384 . S
C945 C944 1.377 . S
C945 C951 1.390 . S
C946 H937 0.930 . S
C946 C944 1.384 . S
C946 C947 1.372 . S
C947 C946 1.372 . S
C947 C948 1.400 . S
C947 C952 1.490 . S
C948 H938 0.930 . S
C948 C947 1.400 . S
C948 C951 1.386 . S
H949 C965 0.930 . S
H950 C966 0.931 . S
C951 H939 0.929 . S
C951 C945 1.390 . S
C951 C948 1.386 . S
C952 C947 1.490 . S
C952 C954 1.395 . S
C952 C955 1.403 . S
H953 C959 0.930 . S
C954 H940 0.930 . S
C954 C952 1.395 . S
C954 C957 1.403 . S
C955 C952 1.403 . S
C955 C956 1.524 . S
C955 C959 1.400 . S
C956 H941 0.960 . S
C956 H942 0.960 . S
C956 H943 0.960 . S
C956 C955 1.524 . S
C957 C954 1.403 . S
C957 C958 1.392 . S
C957 C961 1.495 . S
C958 C957 1.392 . S
C958 C959 1.385 . S
C958 C960 1.478 . S
C959 H953 0.930 . S
C959 C955 1.400 . S
C959 C958 1.385 . S
C960 C958 1.478 . S
C960 C962 1.381 . S
C960 C966 1.383 . S
C961 C957 1.495 . S
C961 H967 0.959 . S
C961 H968 0.961 . S
C961 H969 0.960 . S
C962 C960 1.381 . S
C962 C963 1.394 . S
C962 H970 0.930 . S
C963 C962 1.394 . S
C963 C964 1.383 . S
C963 H971 0.929 . S
C964 C963 1.383 . S
C964 C965 1.377 . S
C965 H949 0.930 . S
C965 C964 1.377 . S
C965 C966 1.379 . S
C966 H950 0.931 . S
C966 C960 1.383 . S
C966 C965 1.379 . S
H967 C961 0.959 . S
H968 C961 0.961 . S
H969 C961 0.960 . S
H970 C962 0.930 . S
H971 C963 0.929 . S
H972 C980 0.929 . S
H973 C982 0.930 . S
H974 C984 0.930 . S
H975 C987 0.929 . S
H976 C990 0.930 . S
H977 C992 0.960 . S
H978 C992 0.960 . S
H979 C992 0.960 . S
C980 H972 0.929 . S
C980 C981 1.377 . S
C980 C982 1.384 1_655 S
C981 C980 1.377 . S
C981 C987 1.390 1_655 S
C982 H973 0.930 . S
C982 C980 1.384 1_455 S
C982 C983 1.372 . S
C983 C982 1.372 . S
C983 C984 1.400 . S
C983 C988 1.490 . S
C984 H974 0.930 . S
C984 C983 1.400 . S
C984 C987 1.386 . S
H985 C1001 0.930 . S
H986 C1002 0.931 . S
C987 H975 0.929 . S
C987 C981 1.390 1_455 S
C987 C984 1.386 . S
C988 C983 1.490 . S
C988 C990 1.395 . S
C988 C991 1.403 . S
H989 C995 0.930 . S
C990 H976 0.930 . S
C990 C988 1.395 . S
C990 C993 1.403 . S
C991 C988 1.403 . S
C991 C992 1.524 . S
C991 C995 1.400 . S
C992 H977 0.960 . S
C992 H978 0.960 . S
C992 H979 0.960 . S
C992 C991 1.524 . S
C993 C990 1.403 . S
C993 C994 1.392 . S
C993 C997 1.495 . S
C994 C993 1.392 . S
C994 C995 1.385 . S
C994 C996 1.478 . S
C995 H989 0.930 . S
C995 C991 1.400 . S
C995 C994 1.385 . S
C996 C994 1.478 . S
C996 C998 1.381 . S
C996 C1002 1.383 . S
C997 C993 1.495 . S
C997 H1003 0.959 . S
C997 H1004 0.961 . S
C997 H1005 0.960 . S
C998 C996 1.381 . S
C998 C999 1.394 . S
C998 H1006 0.930 . S
C999 C998 1.394 . S
C999 C1000 1.383 . S
C999 H1007 0.929 . S
C1000 C999 1.383 . S
C1000 C1001 1.377 . S
C1001 H985 0.930 . S
C1001 C1000 1.377 . S
C1001 C1002 1.379 . S
C1002 H986 0.931 . S
C1002 C996 1.383 . S
C1002 C1001 1.379 . S
H1003 C997 0.959 . S
H1004 C997 0.961 . S
H1005 C997 0.960 . S
H1006 C998 0.930 . S
H1007 C999 0.929 . S
H1008 C1016 0.929 . S
H1009 C1018 0.930 . S
H1010 C1020 0.930 . S
H1011 C1023 0.929 . S
H1012 C1026 0.930 . S
H1013 C1028 0.960 . S
H1014 C1028 0.960 . S
H1015 C1028 0.960 . S
C1016 H1008 0.929 . S
C1016 C1017 1.377 . S
C1016 C1018 1.384 . S
C1017 C1016 1.377 . S
C1017 C1023 1.390 . S
C1018 H1009 0.930 . S
C1018 C1016 1.384 . S
C1018 C1019 1.372 . S
C1019 C1018 1.372 . S
C1019 C1020 1.400 . S
C1019 C1024 1.490 . S
C1020 H1010 0.930 . S
C1020 C1019 1.400 . S
C1020 C1023 1.386 . S
H1021 C1037 0.930 . S
H1022 C1038 0.931 . S
C1023 H1011 0.929 . S
C1023 C1017 1.390 . S
C1023 C1020 1.386 . S
C1024 C1019 1.490 . S
C1024 C1026 1.395 . S
C1024 C1027 1.403 . S
H1025 C1031 0.930 . S
C1026 H1012 0.930 . S
C1026 C1024 1.395 . S
C1026 C1029 1.403 . S
C1027 C1024 1.403 . S
C1027 C1028 1.524 . S
C1027 C1031 1.400 . S
C1028 H1013 0.960 . S
C1028 H1014 0.960 . S
C1028 H1015 0.960 . S
C1028 C1027 1.524 . S
C1029 C1026 1.403 . S
C1029 C1030 1.392 . S
C1029 C1033 1.495 . S
C1030 C1029 1.392 . S
C1030 C1031 1.385 . S
C1030 C1032 1.478 . S
C1031 H1025 0.930 . S
C1031 C1027 1.400 . S
C1031 C1030 1.385 . S
C1032 C1030 1.478 . S
C1032 C1034 1.381 . S
C1032 C1038 1.383 . S
C1033 C1029 1.495 . S
C1033 H1039 0.959 . S
C1033 H1040 0.961 . S
C1033 H1041 0.960 . S
C1034 C1032 1.381 . S
C1034 C1035 1.394 . S
C1034 H1042 0.930 . S
C1035 C1034 1.394 . S
C1035 C1036 1.383 . S
C1035 H1043 0.929 . S
C1036 C1035 1.383 . S
C1036 C1037 1.377 . S
C1037 H1021 0.930 . S
C1037 C1036 1.377 . S
C1037 C1038 1.379 . S
C1038 H1022 0.931 . S
C1038 C1032 1.383 . S
C1038 C1037 1.379 . S
H1039 C1033 0.959 . S
H1040 C1033 0.961 . S
H1041 C1033 0.960 . S
H1042 C1034 0.930 . S
H1043 C1035 0.929 . S
H1044 C1052 0.917 1_455 S
H1045 C1054 0.930 . S
H1046 C1056 0.930 . S
H1047 C1059 0.929 . S
H1048 C1062 0.930 . S
H1049 C1064 0.960 . S
H1050 C1064 0.960 . S
H1051 C1064 0.960 . S
C1052 H1044 0.917 1_655 S
C1052 C1053 1.354 1_655 S
C1052 C1054 1.422 . S
C1053 C1052 1.354 1_455 S
C1053 C1059 1.390 . S
C1054 H1045 0.930 . S
C1054 C1052 1.422 . S
C1054 C1055 1.372 . S
C1055 C1054 1.372 . S
C1055 C1056 1.400 . S
C1055 C1060 1.490 . S
C1056 H1046 0.930 . S
C1056 C1055 1.400 . S
C1056 C1059 1.386 1_655 S
H1057 C1073 0.930 . S
H1058 C1074 0.931 . S
C1059 H1047 0.929 . S
C1059 C1053 1.390 . S
C1059 C1056 1.386 1_455 S
C1060 C1055 1.490 . S
C1060 C1062 1.395 . S
C1060 C1063 1.403 . S
H1061 C1067 0.930 . S
C1062 H1048 0.930 . S
C1062 C1060 1.395 . S
C1062 C1065 1.403 . S
C1063 C1060 1.403 . S
C1063 C1064 1.524 . S
C1063 C1067 1.400 . S
C1064 H1049 0.960 . S
C1064 H1050 0.960 . S
C1064 H1051 0.960 . S
C1064 C1063 1.524 . S
C1065 C1062 1.403 . S
C1065 C1066 1.392 . S
C1065 C1069 1.495 . S
C1066 C1065 1.392 . S
C1066 C1067 1.385 . S
C1066 C1068 1.478 . S
C1067 H1061 0.930 . S
C1067 C1063 1.400 . S
C1067 C1066 1.385 . S
C1068 C1066 1.478 . S
C1068 C1070 1.381 . S
C1068 C1074 1.383 . S
C1069 C1065 1.495 . S
C1069 H1075 0.959 . S
C1069 H1076 0.961 . S
C1069 H1077 0.960 . S
C1070 C1068 1.381 . S
C1070 C1071 1.394 . S
C1070 H1078 0.930 . S
C1071 C1070 1.394 . S
C1071 C1072 1.383 . S
C1071 H1079 0.929 . S
C1072 C1071 1.383 . S
C1072 C1073 1.377 . S
C1073 H1057 0.930 . S
C1073 C1072 1.377 . S
C1073 C1074 1.379 . S
C1074 H1058 0.931 . S
C1074 C1068 1.383 . S
C1074 C1073 1.379 . S
H1075 C1069 0.959 . S
H1076 C1069 0.961 . S
H1077 C1069 0.960 . S
H1078 C1070 0.930 . S
H1079 C1071 0.929 . S
H1080 C1088 0.929 . S
H1081 C1090 0.930 . S
H1082 C1092 0.930 . S
H1083 C1095 0.929 . S
H1084 C1098 0.930 . S
H1085 C1100 0.960 . S
H1086 C1100 0.960 . S
H1087 C1100 0.960 . S
C1088 H1080 0.929 . S
C1088 C1089 1.377 . S
C1088 C1090 1.384 . S
C1089 C1088 1.377 . S
C1089 C1095 1.390 . S
C1090 H1081 0.930 . S
C1090 C1088 1.384 . S
C1090 C1091 1.372 . S
C1091 C1090 1.372 . S
C1091 C1092 1.400 . S
C1091 C1096 1.490 . S
C1092 H1082 0.930 . S
C1092 C1091 1.400 . S
C1092 C1095 1.386 . S
H1093 C1109 0.930 . S
H1094 C1110 0.931 . S
C1095 H1083 0.929 . S
C1095 C1089 1.390 . S
C1095 C1092 1.386 . S
C1096 C1091 1.490 . S
C1096 C1098 1.395 . S
C1096 C1099 1.403 . S
H1097 C1103 0.930 . S
C1098 H1084 0.930 . S
C1098 C1096 1.395 . S
C1098 C1101 1.403 . S
C1099 C1096 1.403 . S
C1099 C1100 1.524 . S
C1099 C1103 1.400 . S
C1100 H1085 0.960 . S
C1100 H1086 0.960 . S
C1100 H1087 0.960 . S
C1100 C1099 1.524 . S
C1101 C1098 1.403 . S
C1101 C1102 1.392 . S
C1101 C1105 1.495 . S
C1102 C1101 1.392 . S
C1102 C1103 1.385 . S
C1102 C1104 1.478 . S
C1103 H1097 0.930 . S
C1103 C1099 1.400 . S
C1103 C1102 1.385 . S
C1104 C1102 1.478 . S
C1104 C1106 1.381 . S
C1104 C1110 1.383 . S
C1105 C1101 1.495 . S
C1105 H1111 0.959 . S
C1105 H1112 0.961 . S
C1105 H1113 0.960 . S
C1106 C1104 1.381 . S
C1106 C1107 1.394 . S
C1106 H1114 0.930 . S
C1107 C1106 1.394 . S
C1107 C1108 1.383 . S
C1107 H1115 0.929 . S
C1108 C1107 1.383 . S
C1108 C1109 1.377 . S
C1109 H1093 0.930 . S
C1109 C1108 1.377 . S
C1109 C1110 1.379 . S
C1110 H1094 0.931 . S
C1110 C1104 1.383 . S
C1110 C1109 1.379 . S
H1111 C1105 0.959 . S
H1112 C1105 0.961 . S
H1113 C1105 0.960 . S
H1114 C1106 0.930 . S
H1115 C1107 0.929 . S
H1116 C1124 0.929 . S
H1117 C1126 0.930 . S
H1118 C1128 0.930 . S
H1119 C1131 0.929 . S
H1120 C1134 0.930 . S
H1121 C1136 0.960 . S
H1122 C1136 0.960 . S
H1123 C1136 0.960 . S
C1124 H1116 0.929 . S
C1124 C1125 1.377 . S
C1124 C1126 1.384 . S
C1125 C1124 1.377 . S
C1125 C1131 1.390 . S
C1126 H1117 0.930 . S
C1126 C1124 1.384 . S
C1126 C1127 1.372 . S
C1127 C1126 1.372 . S
C1127 C1128 1.400 . S
C1127 C1132 1.490 . S
C1128 H1118 0.930 . S
C1128 C1127 1.400 . S
C1128 C1131 1.386 . S
H1129 C1145 0.930 . S
H1130 C1146 0.931 . S
C1131 H1119 0.929 . S
C1131 C1125 1.390 . S
C1131 C1128 1.386 . S
C1132 C1127 1.490 . S
C1132 C1134 1.395 . S
C1132 C1135 1.403 . S
H1133 C1139 0.930 . S
C1134 H1120 0.930 . S
C1134 C1132 1.395 . S
C1134 C1137 1.403 . S
C1135 C1132 1.403 . S
C1135 C1136 1.524 . S
C1135 C1139 1.400 . S
C1136 H1121 0.960 . S
C1136 H1122 0.960 . S
C1136 H1123 0.960 . S
C1136 C1135 1.524 . S
C1137 C1134 1.403 . S
C1137 C1138 1.392 . S
C1137 C1141 1.495 . S
C1138 C1137 1.392 . S
C1138 C1139 1.385 . S
C1138 C1140 1.478 . S
C1139 H1133 0.930 . S
C1139 C1135 1.400 . S
C1139 C1138 1.385 . S
C1140 C1138 1.478 . S
C1140 C1142 1.381 . S
C1140 C1146 1.383 . S
C1141 C1137 1.495 . S
C1141 H1147 0.959 . S
C1141 H1148 0.961 . S
C1141 H1149 0.960 . S
C1142 C1140 1.381 . S
C1142 C1143 1.394 1_554 S
C1142 H1150 0.930 . S
C1143 C1142 1.394 1_556 S
C1143 C1144 1.383 . S
C1143 H1151 0.929 . S
C1144 C1143 1.383 . S
C1144 C1145 1.377 . S
C1145 H1129 0.930 . S
C1145 C1144 1.377 . S
C1145 C1146 1.379 1_556 S
C1146 H1130 0.931 . S
C1146 C1140 1.383 . S
C1146 C1145 1.379 1_554 S
H1147 C1141 0.959 . S
H1148 C1141 0.961 . S
H1149 C1141 0.960 . S
H1150 C1142 0.930 . S
H1151 C1143 0.929 . S
H1152 C1160 0.929 . S
H1153 C1162 0.930 . S
H1154 C1164 0.930 . S
H1155 C1167 0.929 . S
H1156 C1170 0.930 . S
H1157 C1172 0.960 . S
H1158 C1172 0.960 . S
H1159 C1172 0.960 . S
C1160 H1152 0.929 . S
C1160 C1161 1.377 . S
C1160 C1162 1.384 . S
C1161 C1160 1.377 . S
C1161 C1167 1.390 . S
C1162 H1153 0.930 . S
C1162 C1160 1.384 . S
C1162 C1163 1.372 . S
C1163 C1162 1.372 . S
C1163 C1164 1.400 . S
C1163 C1168 1.490 . S
C1164 H1154 0.930 . S
C1164 C1163 1.400 . S
C1164 C1167 1.386 . S
H1165 C1181 0.930 . S
H1166 C1182 0.931 . S
C1167 H1155 0.929 . S
C1167 C1161 1.390 . S
C1167 C1164 1.386 . S
C1168 C1163 1.490 . S
C1168 C1170 1.395 . S
C1168 C1171 1.403 . S
H1169 C1175 0.930 . S
C1170 H1156 0.930 . S
C1170 C1168 1.395 . S
C1170 C1173 1.403 . S
C1171 C1168 1.403 . S
C1171 C1172 1.524 . S
C1171 C1175 1.400 . S
C1172 H1157 0.960 . S
C1172 H1158 0.960 . S
C1172 H1159 0.960 . S
C1172 C1171 1.524 . S
C1173 C1170 1.403 . S
C1173 C1174 1.392 . S
C1173 C1177 1.495 . S
C1174 C1173 1.392 . S
C1174 C1175 1.385 . S
C1174 C1176 1.478 . S
C1175 H1169 0.930 . S
C1175 C1171 1.400 . S
C1175 C1174 1.385 . S
C1176 C1174 1.478 . S
C1176 C1178 1.381 . S
C1176 C1182 1.383 . S
C1177 C1173 1.495 . S
C1177 H1183 0.959 . S
C1177 H1184 0.961 . S
C1177 H1185 0.960 . S
C1178 C1176 1.381 . S
C1178 C1179 1.394 . S
C1178 H1186 0.930 . S
C1179 C1178 1.394 . S
C1179 C1180 1.383 . S
C1179 H1187 0.929 . S
C1180 C1179 1.383 . S
C1180 C1181 1.377 . S
C1181 H1165 0.930 . S
C1181 C1180 1.377 . S
C1181 C1182 1.379 . S
C1182 H1166 0.931 . S
C1182 C1176 1.383 . S
C1182 C1181 1.379 . S
H1183 C1177 0.959 . S
H1184 C1177 0.961 . S
H1185 C1177 0.960 . S
H1186 C1178 0.930 . S
H1187 C1179 0.929 . S
H1188 C1196 0.929 . S
H1189 C1198 0.930 . S
H1190 C1200 0.937 . S
H1191 C1203 0.929 . S
H1192 C1206 0.930 . S
H1193 C1208 0.960 . S
H1194 C1208 0.960 . S
H1195 C1208 0.960 . S
C1196 H1188 0.929 . S
C1196 C1197 1.377 1_554 S
C1196 C1198 1.384 . S
C1197 C1196 1.377 1_556 S
C1197 C1203 1.390 . S
C1198 H1189 0.930 . S
C1198 C1196 1.384 . S
C1198 C1199 1.372 . S
C1199 C1198 1.372 . S
C1199 C1200 1.400 . S
C1199 C1204 1.490 . S
C1200 H1190 0.937 . S
C1200 C1199 1.400 . S
C1200 C1203 1.386 1_554 S
H1201 C1217 0.930 . S
H1202 C1218 0.931 . S
C1203 H1191 0.929 . S
C1203 C1197 1.390 . S
C1203 C1200 1.386 1_556 S
C1204 C1199 1.490 . S
C1204 C1206 1.395 . S
C1204 C1207 1.403 . S
H1205 C1211 0.930 . S
C1206 H1192 0.930 . S
C1206 C1204 1.395 . S
C1206 C1209 1.403 . S
C1207 C1204 1.403 . S
C1207 C1208 1.524 . S
C1207 C1211 1.400 . S
C1208 H1193 0.960 . S
C1208 H1194 0.960 . S
C1208 H1195 0.960 . S
C1208 C1207 1.524 . S
C1209 C1206 1.403 . S
C1209 C1210 1.392 . S
C1209 C1213 1.495 . S
C1210 C1209 1.392 . S
C1210 C1211 1.385 . S
C1210 C1212 1.478 . S
C1211 H1205 0.930 . S
C1211 C1207 1.400 . S
C1211 C1210 1.385 . S
C1212 C1210 1.478 . S
C1212 C1214 1.381 . S
C1212 C1218 1.383 . S
C1213 C1209 1.495 . S
C1213 H1219 0.959 . S
C1213 H1220 0.961 . S
C1213 H1221 0.960 . S
C1214 C1212 1.381 . S
C1214 C1215 1.394 . S
C1214 H1222 0.930 . S
C1215 C1214 1.394 . S
C1215 C1216 1.383 . S
C1215 H1223 0.929 . S
C1216 C1215 1.383 . S
C1216 C1217 1.377 . S
C1217 H1201 0.930 . S
C1217 C1216 1.377 . S
C1217 C1218 1.379 . S
C1218 H1202 0.931 . S
C1218 C1212 1.383 . S
C1218 C1217 1.379 . S
H1219 C1213 0.959 . S
H1220 C1213 0.961 . S
H1221 C1213 0.960 . S
H1222 C1214 0.930 . S
H1223 C1215 0.929 . S
H1224 C1232 0.929 . S
H1225 C1234 0.930 . S
H1226 C1236 0.930 . S
H1227 C1239 0.929 . S
H1228 C1242 0.930 . S
H1229 C1244 0.960 . S
H1230 C1244 0.960 . S
H1231 C1244 0.960 . S
C1232 H1224 0.929 . S
C1232 C1233 1.377 . S
C1232 C1234 1.384 . S
C1233 C1232 1.377 . S
C1233 C1239 1.390 . S
C1234 H1225 0.930 . S
C1234 C1232 1.384 . S
C1234 C1235 1.372 . S
C1235 C1234 1.372 . S
C1235 C1236 1.400 . S
C1235 C1240 1.490 . S
C1236 H1226 0.930 . S
C1236 C1235 1.400 . S
C1236 C1239 1.386 . S
H1237 C1253 0.930 . S
H1238 C1254 0.931 . S
C1239 H1227 0.929 . S
C1239 C1233 1.390 . S
C1239 C1236 1.386 . S
C1240 C1235 1.490 . S
C1240 C1242 1.395 . S
C1240 C1243 1.403 . S
H1241 C1247 0.930 . S
C1242 H1228 0.930 . S
C1242 C1240 1.395 . S
C1242 C1245 1.403 . S
C1243 C1240 1.403 . S
C1243 C1244 1.524 . S
C1243 C1247 1.400 . S
C1244 H1229 0.960 . S
C1244 H1230 0.960 . S
C1244 H1231 0.960 . S
C1244 C1243 1.524 . S
C1245 C1242 1.403 . S
C1245 C1246 1.392 . S
C1245 C1249 1.495 . S
C1246 C1245 1.392 . S
C1246 C1247 1.385 . S
C1246 C1248 1.478 . S
C1247 H1241 0.930 . S
C1247 C1243 1.400 . S
C1247 C1246 1.385 . S
C1248 C1246 1.478 . S
C1248 C1250 1.381 . S
C1248 C1254 1.383 . S
C1249 C1245 1.495 . S
C1249 H1255 0.959 . S
C1249 H1256 0.961 . S
C1249 H1257 0.960 . S
C1250 C1248 1.381 . S
C1250 C1251 1.394 . S
C1250 H1258 0.930 . S
C1251 C1250 1.394 . S
C1251 C1252 1.383 . S
C1251 H1259 0.929 . S
C1252 C1251 1.383 . S
C1252 C1253 1.377 . S
C1253 H1237 0.930 . S
C1253 C1252 1.377 . S
C1253 C1254 1.379 . S
C1254 H1238 0.931 . S
C1254 C1248 1.383 . S
C1254 C1253 1.379 . S
H1255 C1249 0.959 . S
H1256 C1249 0.961 . S
H1257 C1249 0.960 . S
H1258 C1250 0.930 . S
H1259 C1251 0.929 . S
H1260 C1268 0.929 . S
H1261 C1270 0.930 . S
H1262 C1272 0.930 . S
H1263 C1275 0.929 . S
H1264 C1278 0.930 . S
H1265 C1280 0.960 . S
H1266 C1280 0.960 . S
H1267 C1280 0.960 . S
C1268 H1260 0.929 . S
C1268 C1269 1.377 . S
C1268 C1270 1.384 . S
C1269 C1268 1.377 . S
C1269 C1275 1.390 . S
C1270 H1261 0.930 . S
C1270 C1268 1.384 . S
C1270 C1271 1.372 . S
C1271 C1270 1.372 . S
C1271 C1272 1.400 . S
C1271 C1276 1.490 . S
C1272 H1262 0.930 . S
C1272 C1271 1.400 . S
C1272 C1275 1.386 . S
H1273 C1289 0.930 . S
H1274 C1290 0.931 . S
C1275 H1263 0.929 . S
C1275 C1269 1.390 . S
C1275 C1272 1.386 . S
C1276 C1271 1.490 . S
C1276 C1278 1.395 . S
C1276 C1279 1.403 . S
H1277 C1283 0.930 . S
C1278 H1264 0.930 . S
C1278 C1276 1.395 . S
C1278 C1281 1.403 . S
C1279 C1276 1.403 . S
C1279 C1280 1.524 . S
C1279 C1283 1.400 . S
C1280 H1265 0.960 . S
C1280 H1266 0.960 . S
C1280 H1267 0.960 . S
C1280 C1279 1.524 . S
C1281 C1278 1.403 . S
C1281 C1282 1.392 . S
C1281 C1285 1.495 . S
C1282 C1281 1.392 . S
C1282 C1283 1.385 . S
C1282 C1284 1.478 . S
C1283 H1277 0.930 . S
C1283 C1279 1.400 . S
C1283 C1282 1.385 . S
C1284 C1282 1.478 . S
C1284 C1286 1.381 . S
C1284 C1290 1.383 . S
C1285 C1281 1.495 . S
C1285 H1291 0.959 . S
C1285 H1292 0.961 . S
C1285 H1293 0.960 . S
C1286 C1284 1.381 . S
C1286 C1287 1.394 . S
C1286 H1294 0.930 . S
C1287 C1286 1.394 . S
C1287 C1288 1.383 1_556 S
C1287 H1295 0.929 . S
C1288 C1287 1.383 1_554 S
C1288 C1289 1.377 . S
C1289 H1273 0.930 . S
C1289 C1288 1.377 . S
C1289 C1290 1.379 1_554 S
C1290 H1274 0.931 . S
C1290 C1284 1.383 . S
C1290 C1289 1.379 1_556 S
H1291 C1285 0.959 . S
H1292 C1285 0.961 . S
H1293 C1285 0.960 . S
H1294 C1286 0.930 . S
H1295 C1287 0.929 . S
H1296 C1304 0.929 . S
H1297 C1306 0.930 . S
H1298 C1308 0.930 . S
H1299 C1311 0.929 . S
H1300 C1314 0.930 . S
H1301 C1316 0.960 . S
H1302 C1316 0.960 . S
H1303 C1316 0.960 . S
C1304 H1296 0.929 . S
C1304 C1305 1.377 . S
C1304 C1306 1.384 . S
C1305 C1304 1.377 . S
C1305 C1311 1.390 . S
C1306 H1297 0.930 . S
C1306 C1304 1.384 . S
C1306 C1307 1.372 . S
C1307 C1306 1.372 . S
C1307 C1308 1.400 . S
C1307 C1312 1.490 . S
C1308 H1298 0.930 . S
C1308 C1307 1.400 . S
C1308 C1311 1.386 . S
H1309 C1325 0.930 . S
H1310 C1326 0.931 . S
C1311 H1299 0.929 . S
C1311 C1305 1.390 . S
C1311 C1308 1.386 . S
C1312 C1307 1.490 . S
C1312 C1314 1.395 . S
C1312 C1315 1.403 . S
H1313 C1319 0.930 . S
C1314 H1300 0.930 . S
C1314 C1312 1.395 . S
C1314 C1317 1.403 . S
C1315 C1312 1.403 . S
C1315 C1316 1.524 . S
C1315 C1319 1.400 . S
C1316 H1301 0.960 . S
C1316 H1302 0.960 . S
C1316 H1303 0.960 . S
C1316 C1315 1.524 . S
C1317 C1314 1.403 . S
C1317 C1318 1.392 . S
C1317 C1321 1.495 . S
C1318 C1317 1.392 . S
C1318 C1319 1.385 . S
C1318 C1320 1.478 . S
C1319 H1313 0.930 . S
C1319 C1315 1.400 . S
C1319 C1318 1.385 . S
C1320 C1318 1.478 . S
C1320 C1322 1.381 . S
C1320 C1326 1.383 . S
C1321 C1317 1.495 . S
C1321 H1327 0.959 . S
C1321 H1328 0.961 . S
C1321 H1329 0.960 . S
C1322 C1320 1.381 . S
C1322 C1323 1.394 . S
C1322 H1330 0.930 . S
C1323 C1322 1.394 . S
C1323 C1324 1.383 . S
C1323 H1331 0.929 . S
C1324 C1323 1.383 . S
C1324 C1325 1.377 . S
C1325 H1309 0.930 . S
C1325 C1324 1.377 . S
C1325 C1326 1.379 . S
C1326 H1310 0.931 . S
C1326 C1320 1.383 . S
C1326 C1325 1.379 . S
H1327 C1321 0.959 . S
H1328 C1321 0.961 . S
H1329 C1321 0.960 . S
H1330 C1322 0.930 . S
H1331 C1323 0.929 . S
H1332 C1340 0.929 . S
H1333 C1342 0.930 . S
H1334 C1344 0.930 . S
H1335 C1347 0.929 . S
H1336 C1350 0.930 . S
H1337 C1352 0.960 . S
H1338 C1352 0.960 . S
H1339 C1352 0.960 . S
C1340 H1332 0.929 . S
C1340 C1341 1.377 1_556 S
C1340 C1342 1.384 . S
C1341 C1340 1.377 1_554 S
C1341 C1347 1.390 . S
C1342 H1333 0.930 . S
C1342 C1340 1.384 . S
C1342 C1343 1.372 . S
C1343 C1342 1.372 . S
C1343 C1344 1.400 . S
C1343 C1348 1.490 . S
C1344 H1334 0.930 . S
C1344 C1343 1.400 . S
C1344 C1347 1.386 1_556 S
H1345 C1361 0.930 . S
H1346 C1362 0.931 . S
C1347 H1335 0.929 . S
C1347 C1341 1.390 . S
C1347 C1344 1.386 1_554 S
C1348 C1343 1.490 . S
C1348 C1350 1.395 . S
C1348 C1351 1.403 . S
H1349 C1355 0.930 . S
C1350 H1336 0.930 . S
C1350 C1348 1.395 . S
C1350 C1353 1.403 . S
C1351 C1348 1.403 . S
C1351 C1352 1.524 . S
C1351 C1355 1.400 . S
C1352 H1337 0.960 . S
C1352 H1338 0.960 . S
C1352 H1339 0.960 . S
C1352 C1351 1.524 . S
C1353 C1350 1.403 . S
C1353 C1354 1.392 . S
C1353 C1357 1.495 . S
C1354 C1353 1.392 . S
C1354 C1355 1.385 . S
C1354 C1356 1.478 . S
C1355 H1349 0.930 . S
C1355 C1351 1.400 . S
C1355 C1354 1.385 . S
C1356 C1354 1.478 . S
C1356 C1358 1.381 . S
C1356 C1362 1.383 . S
C1357 C1353 1.495 . S
C1357 H1363 0.959 . S
C1357 H1364 0.961 . S
C1357 H1365 0.960 . S
C1358 C1356 1.381 . S
C1358 C1359 1.394 . S
C1358 H1366 0.930 . S
C1359 C1358 1.394 . S
C1359 C1360 1.383 . S
C1359 H1367 0.929 . S
C1360 C1359 1.383 . S
C1360 C1361 1.377 . S
C1361 H1345 0.930 . S
C1361 C1360 1.377 . S
C1361 C1362 1.379 . S
C1362 H1346 0.931 . S
C1362 C1356 1.383 . S
C1362 C1361 1.379 . S
H1363 C1357 0.959 . S
H1364 C1357 0.961 . S
H1365 C1357 0.960 . S
H1366 C1358 0.930 . S
H1367 C1359 0.929 . S
H1368 C1376 0.929 . S
H1369 C1378 0.930 . S
H1370 C1380 0.930 . S
H1371 C1383 0.929 . S
H1372 C1386 0.930 . S
H1373 C1388 0.960 . S
H1374 C1388 0.960 . S
H1375 C1388 0.960 . S
C1376 H1368 0.929 . S
C1376 C1377 1.377 . S
C1376 C1378 1.384 . S
C1377 C1376 1.377 . S
C1377 C1383 1.390 . S
C1378 H1369 0.930 . S
C1378 C1376 1.384 . S
C1378 C1379 1.372 . S
C1379 C1378 1.372 . S
C1379 C1380 1.400 . S
C1379 C1384 1.490 . S
C1380 H1370 0.930 . S
C1380 C1379 1.400 . S
C1380 C1383 1.386 . S
H1381 C1397 0.930 . S
H1382 C1398 0.931 . S
C1383 H1371 0.929 . S
C1383 C1377 1.390 . S
C1383 C1380 1.386 . S
C1384 C1379 1.490 . S
C1384 C1386 1.395 . S
C1384 C1387 1.403 . S
H1385 C1391 0.930 . S
C1386 H1372 0.930 . S
C1386 C1384 1.395 . S
C1386 C1389 1.403 . S
C1387 C1384 1.403 . S
C1387 C1388 1.524 . S
C1387 C1391 1.400 . S
C1388 H1373 0.960 . S
C1388 H1374 0.960 . S
C1388 H1375 0.960 . S
C1388 C1387 1.524 . S
C1389 C1386 1.403 . S
C1389 C1390 1.392 . S
C1389 C1393 1.495 . S
C1390 C1389 1.392 . S
C1390 C1391 1.385 . S
C1390 C1392 1.478 . S
C1391 H1385 0.930 . S
C1391 C1387 1.400 . S
C1391 C1390 1.385 . S
C1392 C1390 1.478 . S
C1392 C1394 1.381 . S
C1392 C1398 1.383 . S
C1393 C1389 1.495 . S
C1393 H1399 0.959 . S
C1393 H1400 0.961 . S
C1393 H1401 0.960 . S
C1394 C1392 1.381 . S
C1394 C1395 1.394 . S
C1394 H1402 0.930 . S
C1395 C1394 1.394 . S
C1395 C1396 1.383 . S
C1395 H1403 0.929 . S
C1396 C1395 1.383 . S
C1396 C1397 1.377 . S
C1397 H1381 0.930 . S
C1397 C1396 1.377 . S
C1397 C1398 1.379 . S
C1398 H1382 0.931 . S
C1398 C1392 1.383 . S
C1398 C1397 1.379 . S
H1399 C1393 0.959 . S
H1400 C1393 0.961 . S
H1401 C1393 0.960 . S
H1402 C1394 0.930 . S
H1403 C1395 0.929 . S
H1404 C1412 0.929 . S
H1405 C1414 0.930 . S
H1406 C1416 0.930 . S
H1407 C1419 0.929 . S
H1408 C1422 0.930 . S
H1409 C1424 0.960 . S
H1410 C1424 0.960 . S
H1411 C1424 0.960 . S
C1412 H1404 0.929 . S
C1412 C1413 1.377 . S
C1412 C1414 1.384 . S
C1413 C1412 1.377 . S
C1413 C1419 1.390 . S
C1414 H1405 0.930 . S
C1414 C1412 1.384 . S
C1414 C1415 1.372 . S
C1415 C1414 1.372 . S
C1415 C1416 1.400 . S
C1415 C1420 1.490 . S
C1416 H1406 0.930 . S
C1416 C1415 1.400 . S
C1416 C1419 1.386 . S
H1417 C1433 0.930 . S
H1418 C1434 0.931 . S
C1419 H1407 0.929 . S
C1419 C1413 1.390 . S
C1419 C1416 1.386 . S
C1420 C1415 1.490 . S
C1420 C1422 1.395 . S
C1420 C1423 1.403 . S
H1421 C1427 0.930 . S
C1422 H1408 0.930 . S
C1422 C1420 1.395 . S
C1422 C1425 1.403 . S
C1423 C1420 1.403 . S
C1423 C1424 1.524 . S
C1423 C1427 1.400 . S
C1424 H1409 0.960 . S
C1424 H1410 0.960 . S
C1424 H1411 0.960 . S
C1424 C1423 1.524 . S
C1425 C1422 1.403 . S
C1425 C1426 1.392 . S
C1425 C1429 1.495 . S
C1426 C1425 1.392 . S
C1426 C1427 1.385 . S
C1426 C1428 1.478 . S
C1427 H1421 0.930 . S
C1427 C1423 1.400 . S
C1427 C1426 1.385 . S
C1428 C1426 1.478 . S
C1428 C1430 1.381 . S
C1428 C1434 1.383 . S
C1429 C1425 1.495 . S
C1429 H1435 0.959 . S
C1429 H1436 0.961 . S
C1429 H1437 0.960 . S
C1430 C1428 1.381 . S
C1430 C1431 1.394 . S
C1430 H1438 0.930 . S
C1431 C1430 1.394 . S
C1431 C1432 1.383 . S
C1431 H1439 0.929 . S
C1432 C1431 1.383 . S
C1432 C1433 1.377 . S
C1433 H1417 0.930 . S
C1433 C1432 1.377 . S
C1433 C1434 1.379 . S
C1434 H1418 0.931 . S
C1434 C1428 1.383 . S
C1434 C1433 1.379 . S
H1435 C1429 0.959 . S
H1436 C1429 0.961 . S
H1437 C1429 0.960 . S
H1438 C1430 0.930 . S
H1439 C1431 0.929 . S
H1440 C1448 0.929 . S
H1441 C1450 0.930 . S
H1442 C1452 0.930 . S
H1443 C1455 0.929 . S
H1444 C1458 0.930 . S
H1445 C1460 0.960 . S
H1446 C1460 0.960 . S
H1447 C1460 0.960 . S
C1448 H1440 0.929 . S
C1448 C1449 1.377 1_545 S
C1448 C1450 1.384 . S
C1449 C1448 1.377 1_565 S
C1449 C1455 1.390 . S
C1450 H1441 0.930 . S
C1450 C1448 1.384 . S
C1450 C1451 1.372 . S
C1451 C1450 1.372 . S
C1451 C1452 1.400 . S
C1451 C1456 1.490 . S
C1452 H1442 0.930 . S
C1452 C1451 1.400 . S
C1452 C1455 1.386 1_545 S
H1453 C1469 0.930 . S
H1454 C1470 0.931 . S
C1455 H1443 0.929 . S
C1455 C1449 1.390 . S
C1455 C1452 1.386 1_565 S
C1456 C1451 1.490 . S
C1456 C1458 1.395 . S
C1456 C1459 1.403 . S
H1457 C1463 0.930 . S
C1458 H1444 0.930 . S
C1458 C1456 1.395 . S
C1458 C1461 1.403 . S
C1459 C1456 1.403 . S
C1459 C1460 1.524 . S
C1459 C1463 1.400 . S
C1460 H1445 0.960 . S
C1460 H1446 0.960 . S
C1460 H1447 0.960 . S
C1460 C1459 1.524 . S
C1461 C1458 1.403 . S
C1461 C1462 1.392 . S
C1461 C1465 1.495 . S
C1462 C1461 1.392 . S
C1462 C1463 1.385 . S
C1462 C1464 1.478 . S
C1463 H1457 0.930 . S
C1463 C1459 1.400 . S
C1463 C1462 1.385 . S
C1464 C1462 1.478 . S
C1464 C1466 1.381 . S
C1464 C1470 1.383 . S
C1465 C1461 1.495 . S
C1465 H1471 0.959 . S
C1465 H1472 0.961 . S
C1465 H1473 0.960 . S
C1466 C1464 1.381 . S
C1466 C1467 1.394 . S
C1466 H1474 0.930 . S
C1467 C1466 1.394 . S
C1467 C1468 1.383 . S
C1467 H1475 0.929 . S
C1468 C1467 1.383 . S
C1468 C1469 1.377 . S
C1469 H1453 0.930 . S
C1469 C1468 1.377 . S
C1469 C1470 1.379 . S
C1470 H1454 0.931 . S
C1470 C1464 1.383 . S
C1470 C1469 1.379 . S
H1471 C1465 0.959 . S
H1472 C1465 0.961 . S
H1473 C1465 0.960 . S
H1474 C1466 0.930 . S
H1475 C1467 0.929 . S
H1476 C1484 0.929 . S
H1477 C1486 0.930 . S
H1478 C1488 0.930 . S
H1479 C1491 0.929 . S
H1480 C1494 0.930 . S
H1481 C1496 0.960 . S
H1482 C1496 0.960 . S
H1483 C1496 0.960 . S
C1484 H1476 0.929 . S
C1484 C1485 1.377 . S
C1484 C1486 1.384 . S
C1485 C1484 1.377 . S
C1485 C1491 1.390 . S
C1486 H1477 0.930 . S
C1486 C1484 1.384 . S
C1486 C1487 1.372 . S
C1487 C1486 1.372 . S
C1487 C1488 1.400 . S
C1487 C1492 1.490 . S
C1488 H1478 0.930 . S
C1488 C1487 1.400 . S
C1488 C1491 1.386 . S
H1489 C1505 0.930 . S
H1490 C1506 0.931 . S
C1491 H1479 0.929 . S
C1491 C1485 1.390 . S
C1491 C1488 1.386 . S
C1492 C1487 1.490 . S
C1492 C1494 1.395 . S
C1492 C1495 1.403 . S
H1493 C1499 0.930 . S
C1494 H1480 0.930 . S
C1494 C1492 1.395 . S
C1494 C1497 1.403 . S
C1495 C1492 1.403 . S
C1495 C1496 1.524 . S
C1495 C1499 1.400 . S
C1496 H1481 0.960 . S
C1496 H1482 0.960 . S
C1496 H1483 0.960 . S
C1496 C1495 1.524 . S
C1497 C1494 1.403 . S
C1497 C1498 1.392 . S
C1497 C1501 1.495 . S
C1498 C1497 1.392 . S
C1498 C1499 1.385 . S
C1498 C1500 1.478 . S
C1499 H1493 0.930 . S
C1499 C1495 1.400 . S
C1499 C1498 1.385 . S
C1500 C1498 1.478 . S
C1500 C1502 1.381 . S
C1500 C1506 1.383 . S
C1501 C1497 1.495 . S
C1501 H1507 0.959 . S
C1501 H1508 0.961 . S
C1501 H1509 0.960 . S
C1502 C1500 1.381 . S
C1502 C1503 1.394 . S
C1502 H1510 0.930 . S
C1503 C1502 1.394 . S
C1503 C1504 1.383 . S
C1503 H1511 0.929 . S
C1504 C1503 1.383 . S
C1504 C1505 1.377 . S
C1505 H1489 0.930 . S
C1505 C1504 1.377 . S
C1505 C1506 1.379 . S
C1506 H1490 0.931 . S
C1506 C1500 1.383 . S
C1506 C1505 1.379 . S
H1507 C1501 0.959 . S
H1508 C1501 0.961 . S
H1509 C1501 0.960 . S
H1510 C1502 0.930 . S
H1511 C1503 0.929 . S
H1512 C1520 0.929 . S
H1513 C1522 0.930 . S
H1514 C1524 0.930 . S
H1515 C1527 0.929 . S
H1516 C1530 0.930 . S
H1517 C1532 0.960 . S
H1518 C1532 0.960 . S
H1519 C1532 0.960 . S
C1520 H1512 0.929 . S
C1520 C1521 1.377 . S
C1520 C1522 1.384 1_545 S
C1521 C1520 1.377 . S
C1521 C1527 1.390 1_545 S
C1522 H1513 0.930 . S
C1522 C1520 1.384 1_565 S
C1522 C1523 1.372 . S
C1523 C1522 1.372 . S
C1523 C1524 1.400 . S
C1523 C1528 1.490 . S
C1524 H1514 0.930 . S
C1524 C1523 1.400 . S
C1524 C1527 1.386 . S
H1525 C1541 0.930 . S
H1526 C1542 0.931 . S
C1527 H1515 0.929 . S
C1527 C1521 1.390 1_565 S
C1527 C1524 1.386 . S
C1528 C1523 1.490 . S
C1528 C1530 1.395 . S
C1528 C1531 1.403 . S
H1529 C1535 0.930 . S
C1530 H1516 0.930 . S
C1530 C1528 1.395 . S
C1530 C1533 1.403 . S
C1531 C1528 1.403 . S
C1531 C1532 1.524 . S
C1531 C1535 1.400 . S
C1532 H1517 0.960 . S
C1532 H1518 0.960 . S
C1532 H1519 0.960 . S
C1532 C1531 1.524 . S
C1533 C1530 1.403 . S
C1533 C1534 1.392 . S
C1533 C1537 1.495 . S
C1534 C1533 1.392 . S
C1534 C1535 1.385 . S
C1534 C1536 1.478 . S
C1535 H1529 0.930 . S
C1535 C1531 1.400 . S
C1535 C1534 1.385 . S
C1536 C1534 1.478 . S
C1536 C1538 1.381 . S
C1536 C1542 1.383 . S
C1537 C1533 1.495 . S
C1537 H1543 0.959 . S
C1537 H1544 0.961 . S
C1537 H1545 0.960 . S
C1538 C1536 1.381 . S
C1538 C1539 1.394 . S
C1538 H1546 0.930 . S
C1539 C1538 1.394 . S
C1539 C1540 1.383 . S
C1539 H1547 0.929 . S
C1540 C1539 1.383 . S
C1540 C1541 1.377 . S
C1541 H1525 0.930 . S
C1541 C1540 1.377 . S
C1541 C1542 1.379 . S
C1542 H1526 0.931 . S
C1542 C1536 1.383 . S
C1542 C1541 1.379 . S
H1543 C1537 0.959 . S
H1544 C1537 0.961 . S
H1545 C1537 0.960 . S
H1546 C1538 0.930 . S
H1547 C1539 0.929 . S
H1548 C1556 0.929 . S
H1549 C1558 0.930 . S
H1550 C1560 0.930 . S
H1551 C1563 0.929 . S
H1552 C1566 0.930 . S
H1553 C1568 0.960 . S
H1554 C1568 0.960 . S
H1555 C1568 0.960 . S
C1556 H1548 0.929 . S
C1556 C1557 1.377 . S
C1556 C1558 1.384 . S
C1557 C1556 1.377 . S
C1557 C1563 1.390 . S
C1558 H1549 0.930 . S
C1558 C1556 1.384 . S
C1558 C1559 1.372 . S
C1559 C1558 1.372 . S
C1559 C1560 1.400 . S
C1559 C1564 1.490 . S
C1560 H1550 0.930 . S
C1560 C1559 1.400 . S
C1560 C1563 1.386 . S
H1561 C1577 0.930 . S
H1562 C1578 0.931 . S
C1563 H1551 0.929 . S
C1563 C1557 1.390 . S
C1563 C1560 1.386 . S
C1564 C1559 1.490 . S
C1564 C1566 1.395 . S
C1564 C1567 1.403 . S
H1565 C1571 0.930 . S
C1566 H1552 0.930 . S
C1566 C1564 1.395 . S
C1566 C1569 1.403 . S
C1567 C1564 1.403 . S
C1567 C1568 1.524 . S
C1567 C1571 1.400 . S
C1568 H1553 0.960 . S
C1568 H1554 0.960 . S
C1568 H1555 0.960 . S
C1568 C1567 1.524 . S
C1569 C1566 1.403 . S
C1569 C1570 1.392 . S
C1569 C1573 1.495 . S
C1570 C1569 1.392 . S
C1570 C1571 1.385 . S
C1570 C1572 1.478 . S
C1571 H1565 0.930 . S
C1571 C1567 1.400 . S
C1571 C1570 1.385 . S
C1572 C1570 1.478 . S
C1572 C1574 1.381 . S
C1572 C1578 1.383 . S
C1573 C1569 1.495 . S
C1573 H1579 0.959 . S
C1573 H1580 0.961 . S
C1573 H1581 0.960 . S
C1574 C1572 1.381 . S
C1574 C1575 1.394 . S
C1574 H1582 0.930 . S
C1575 C1574 1.394 . S
C1575 C1576 1.383 . S
C1575 H1583 0.929 . S
C1576 C1575 1.383 . S
C1576 C1577 1.377 . S
C1577 H1561 0.930 . S
C1577 C1576 1.377 . S
C1577 C1578 1.379 . S
C1578 H1562 0.931 . S
C1578 C1572 1.383 . S
C1578 C1577 1.379 . S
H1579 C1573 0.959 . S
H1580 C1573 0.961 . S
H1581 C1573 0.960 . S
H1582 C1574 0.930 . S
H1583 C1575 0.929 . S
H1584 C1592 0.929 . S
H1585 C1594 0.930 . S
H1586 C1596 0.930 . S
H1587 C1599 0.929 . S
H1588 C1602 0.930 . S
H1589 C1604 0.960 . S
H1590 C1604 0.960 . S
H1591 C1604 0.960 . S
C1592 H1584 0.929 . S
C1592 C1593 1.377 1_565 S
C1592 C1594 1.384 . S
C1593 C1592 1.377 1_545 S
C1593 C1599 1.390 . S
C1594 H1585 0.930 . S
C1594 C1592 1.384 . S
C1594 C1595 1.372 . S
C1595 C1594 1.372 . S
C1595 C1596 1.400 . S
C1595 C1600 1.490 . S
C1596 H1586 0.930 . S
C1596 C1595 1.400 . S
C1596 C1599 1.386 1_565 S
H1597 C1613 0.930 . S
H1598 C1614 0.931 . S
C1599 H1587 0.929 . S
C1599 C1593 1.390 . S
C1599 C1596 1.386 1_545 S
C1600 C1595 1.490 . S
C1600 C1602 1.395 . S
C1600 C1603 1.403 . S
H1601 C1607 0.930 . S
C1602 H1588 0.930 . S
C1602 C1600 1.395 . S
C1602 C1605 1.403 . S
C1603 C1600 1.403 . S
C1603 C1604 1.524 . S
C1603 C1607 1.400 . S
C1604 H1589 0.960 . S
C1604 H1590 0.960 . S
C1604 H1591 0.960 . S
C1604 C1603 1.524 . S
C1605 C1602 1.403 . S
C1605 C1606 1.392 . S
C1605 C1609 1.495 . S
C1606 C1605 1.392 . S
C1606 C1607 1.385 . S
C1606 C1608 1.478 . S
C1607 H1601 0.930 . S
C1607 C1603 1.400 . S
C1607 C1606 1.385 . S
C1608 C1606 1.478 . S
C1608 C1610 1.381 . S
C1608 C1614 1.383 . S
C1609 C1605 1.495 . S
C1609 H1615 0.959 . S
C1609 H1616 0.961 . S
C1609 H1617 0.960 . S
C1610 C1608 1.381 . S
C1610 C1611 1.394 . S
C1610 H1618 0.930 . S
C1611 C1610 1.394 . S
C1611 C1612 1.383 . S
C1611 H1619 0.929 . S
C1612 C1611 1.383 . S
C1612 C1613 1.377 . S
C1613 H1597 0.930 . S
C1613 C1612 1.377 . S
C1613 C1614 1.379 . S
C1614 H1598 0.931 . S
C1614 C1608 1.383 . S
C1614 C1613 1.379 . S
H1615 C1609 0.959 . S
H1616 C1609 0.961 . S
H1617 C1609 0.960 . S
H1618 C1610 0.930 . S
H1619 C1611 0.929 . S
H1620 C1628 0.930 1_565 S
H1621 C1630 0.930 . S
H1622 C1632 0.930 . S
H1623 C1635 0.929 . S
H1624 C1638 0.930 . S
H1625 C1640 0.960 . S
H1626 C1640 0.960 . S
H1627 C1640 0.960 . S
C1628 H1620 0.930 1_545 S
C1628 C1629 1.377 1_545 S
C1628 C1630 1.384 . S
C1629 C1628 1.377 1_565 S
C1629 C1635 1.390 . S
C1630 H1621 0.930 . S
C1630 C1628 1.384 . S
C1630 C1631 1.372 . S
C1631 C1630 1.372 . S
C1631 C1632 1.400 . S
C1631 C1636 1.490 . S
C1632 H1622 0.930 . S
C1632 C1631 1.400 . S
C1632 C1635 1.386 1_545 S
H1633 C1649 0.930 . S
H1634 C1650 0.931 . S
C1635 H1623 0.929 . S
C1635 C1629 1.390 . S
C1635 C1632 1.386 1_565 S
C1636 C1631 1.490 . S
C1636 C1638 1.395 . S
C1636 C1639 1.403 . S
H1637 C1643 0.930 . S
C1638 H1624 0.930 . S
C1638 C1636 1.395 . S
C1638 C1641 1.403 . S
C1639 C1636 1.403 . S
C1639 C1640 1.524 . S
C1639 C1643 1.400 . S
C1640 H1625 0.960 . S
C1640 H1626 0.960 . S
C1640 H1627 0.960 . S
C1640 C1639 1.524 . S
C1641 C1638 1.403 . S
C1641 C1642 1.392 . S
C1641 C1645 1.495 . S
C1642 C1641 1.392 . S
C1642 C1643 1.385 . S
C1642 C1644 1.478 . S
C1643 H1637 0.930 . S
C1643 C1639 1.400 . S
C1643 C1642 1.385 . S
C1644 C1642 1.478 . S
C1644 C1646 1.381 . S
C1644 C1650 1.383 . S
C1645 C1641 1.495 . S
C1645 H1651 0.959 . S
C1645 H1652 0.961 . S
C1645 H1653 0.960 . S
C1646 C1644 1.381 . S
C1646 C1647 1.394 . S
C1646 H1654 0.930 . S
C1647 C1646 1.394 . S
C1647 C1648 1.383 . S
C1647 H1655 0.929 . S
C1648 C1647 1.383 . S
C1648 C1649 1.377 . S
C1649 H1633 0.930 . S
C1649 C1648 1.377 . S
C1649 C1650 1.379 . S
C1650 H1634 0.931 . S
C1650 C1644 1.383 . S
C1650 C1649 1.379 . S
H1651 C1645 0.959 . S
H1652 C1645 0.961 . S
H1653 C1645 0.960 . S
H1654 C1646 0.930 . S
H1655 C1647 0.929 . S
H1656 C1664 0.929 . S
H1657 C1666 0.930 . S
H1658 C1668 0.930 . S
H1659 C1671 0.929 . S
H1660 C1674 0.930 . S
H1661 C1676 0.960 . S
H1662 C1676 0.960 . S
H1663 C1676 0.960 . S
C1664 H1656 0.929 . S
C1664 C1665 1.377 . S
C1664 C1666 1.384 . S
C1665 C1664 1.377 . S
C1665 C1671 1.390 . S
C1666 H1657 0.930 . S
C1666 C1664 1.384 . S
C1666 C1667 1.372 . S
C1667 C1666 1.372 . S
C1667 C1668 1.400 . S
C1667 C1672 1.490 . S
C1668 H1658 0.930 . S
C1668 C1667 1.400 . S
C1668 C1671 1.386 . S
H1669 C1685 0.930 . S
H1670 C1686 0.931 . S
C1671 H1659 0.929 . S
C1671 C1665 1.390 . S
C1671 C1668 1.386 . S
C1672 C1667 1.490 . S
C1672 C1674 1.395 . S
C1672 C1675 1.403 1_655 S
H1673 C1679 0.930 . S
C1674 H1660 0.930 . S
C1674 C1672 1.395 . S
C1674 C1677 1.403 1_556 S
C1675 C1672 1.403 1_455 S
C1675 C1676 1.524 . S
C1675 C1679 1.400 1_556 S
C1676 H1661 0.960 . S
C1676 H1662 0.960 . S
C1676 H1663 0.960 . S
C1676 C1675 1.524 . S
C1677 C1674 1.403 1_554 S
C1677 C1678 1.392 1_655 S
C1677 C1681 1.495 . S
C1678 C1677 1.392 1_455 S
C1678 C1679 1.385 . S
C1678 C1680 1.478 . S
C1679 H1673 0.930 . S
C1679 C1675 1.400 1_554 S
C1679 C1678 1.385 . S
C1680 C1678 1.478 . S
C1680 C1682 1.381 . S
C1680 C1686 1.383 . S
C1681 C1677 1.495 . S
C1681 H1687 0.959 . S
C1681 H1688 0.961 . S
C1681 H1689 0.960 . S
C1682 C1680 1.381 . S
C1682 C1683 1.394 . S
C1682 H1690 0.930 . S
C1683 C1682 1.394 . S
C1683 C1684 1.383 . S
C1683 H1691 0.929 . S
C1684 C1683 1.383 . S
C1684 C1685 1.377 . S
C1685 H1669 0.930 . S
C1685 C1684 1.377 . S
C1685 C1686 1.379 . S
C1686 H1670 0.931 . S
C1686 C1680 1.383 . S
C1686 C1685 1.379 . S
H1687 C1681 0.959 . S
H1688 C1681 0.961 . S
H1689 C1681 0.960 . S
H1690 C1682 0.930 . S
H1691 C1683 0.929 . S
H1692 C1700 0.929 . S
H1693 C1702 0.930 . S
H1694 C1704 0.930 . S
H1695 C1707 0.929 . S
H1696 C1710 0.930 . S
H1697 C1712 0.960 . S
H1698 C1712 0.960 . S
H1699 C1712 0.960 . S
C1700 H1692 0.929 . S
C1700 C1701 1.377 . S
C1700 C1702 1.384 . S
C1701 C1700 1.377 . S
C1701 C1707 1.390 . S
C1702 H1693 0.930 . S
C1702 C1700 1.384 . S
C1702 C1703 1.372 . S
C1703 C1702 1.372 . S
C1703 C1704 1.400 . S
C1703 C1708 1.490 . S
C1704 H1694 0.930 . S
C1704 C1703 1.400 . S
C1704 C1707 1.386 . S
H1705 C1721 0.930 . S
H1706 C1722 0.931 . S
C1707 H1695 0.929 . S
C1707 C1701 1.390 . S
C1707 C1704 1.386 . S
C1708 C1703 1.490 . S
C1708 C1710 1.395 . S
C1708 C1711 1.403 . S
H1709 C1715 0.930 . S
C1710 H1696 0.930 . S
C1710 C1708 1.395 . S
C1710 C1713 1.403 . S
C1711 C1708 1.403 . S
C1711 C1712 1.524 . S
C1711 C1715 1.400 . S
C1712 H1697 0.960 . S
C1712 H1698 0.960 . S
C1712 H1699 0.960 . S
C1712 C1711 1.524 . S
C1713 C1710 1.403 . S
C1713 C1714 1.392 . S
C1713 C1717 1.495 . S
C1714 C1713 1.392 . S
C1714 C1715 1.385 . S
C1714 C1716 1.478 . S
C1715 H1709 0.930 . S
C1715 C1711 1.400 . S
C1715 C1714 1.385 . S
C1716 C1714 1.478 . S
C1716 C1718 1.381 . S
C1716 C1722 1.383 . S
C1717 C1713 1.495 . S
C1717 H1723 0.959 . S
C1717 H1724 0.961 . S
C1717 H1725 0.960 . S
C1718 C1716 1.381 . S
C1718 C1719 1.394 . S
C1718 H1726 0.930 . S
C1719 C1718 1.394 . S
C1719 C1720 1.383 . S
C1719 H1727 0.929 . S
C1720 C1719 1.383 . S
C1720 C1721 1.377 . S
C1721 H1705 0.930 . S
C1721 C1720 1.377 . S
C1721 C1722 1.379 . S
C1722 H1706 0.931 . S
C1722 C1716 1.383 . S
C1722 C1721 1.379 . S
H1723 C1717 0.959 . S
H1724 C1717 0.961 . S
H1725 C1717 0.960 . S
H1726 C1718 0.930 . S
H1727 C1719 0.929 . S
H1728 C1736 0.929 . S
H1729 C1738 0.930 . S
H1730 C1740 0.930 1_655 S
H1731 C1743 0.929 . S
H1732 C1746 0.930 . S
H1733 C1748 0.960 . S
H1734 C1748 0.960 . S
H1735 C1748 0.960 . S
C1736 H1728 0.929 . S
C1736 C1737 1.377 . S
C1736 C1738 1.384 . S
C1737 C1736 1.377 . S
C1737 C1743 1.390 . S
C1738 H1729 0.930 . S
C1738 C1736 1.384 . S
C1738 C1739 1.372 . S
C1739 C1738 1.372 . S
C1739 C1740 1.400 . S
C1739 C1744 1.490 . S
C1740 H1730 0.930 1_455 S
C1740 C1739 1.400 . S
C1740 C1743 1.386 . S
H1741 C1757 0.930 . S
H1742 C1758 0.931 . S
C1743 H1731 0.929 . S
C1743 C1737 1.390 . S
C1743 C1740 1.386 . S
C1744 C1739 1.490 . S
C1744 C1746 1.395 . S
C1744 C1747 1.403 . S
H1745 C1751 0.930 . S
C1746 H1732 0.930 . S
C1746 C1744 1.395 . S
C1746 C1749 1.403 1_456 S
C1747 C1744 1.403 . S
C1747 C1748 1.524 . S
C1747 C1751 1.400 1_456 S
C1748 H1733 0.960 . S
C1748 H1734 0.960 . S
C1748 H1735 0.960 . S
C1748 C1747 1.524 . S
C1749 C1746 1.403 1_654 S
C1749 C1750 1.392 . S
C1749 C1753 1.495 . S
C1750 C1749 1.392 . S
C1750 C1751 1.385 . S
C1750 C1752 1.478 . S
C1751 H1745 0.930 . S
C1751 C1747 1.400 1_654 S
C1751 C1750 1.385 . S
C1752 C1750 1.478 . S
C1752 C1754 1.381 . S
C1752 C1758 1.383 . S
C1753 C1749 1.495 . S
C1753 H1759 0.959 . S
C1753 H1760 0.961 . S
C1753 H1761 0.960 . S
C1754 C1752 1.381 . S
C1754 C1755 1.394 . S
C1754 H1762 0.930 1_655 S
C1755 C1754 1.394 . S
C1755 C1756 1.383 . S
C1755 H1763 0.929 . S
C1756 C1755 1.383 . S
C1756 C1757 1.377 . S
C1757 H1741 0.930 . S
C1757 C1756 1.377 . S
C1757 C1758 1.379 . S
C1758 H1742 0.931 . S
C1758 C1752 1.383 . S
C1758 C1757 1.379 . S
H1759 C1753 0.959 . S
H1760 C1753 0.961 . S
H1761 C1753 0.960 . S
H1762 C1754 0.930 1_455 S
H1763 C1755 0.929 . S
H1764 C1772 0.929 . S
H1765 C1774 0.930 . S
H1766 C1776 0.930 . S
H1767 C1779 0.929 . S
H1768 C1782 0.930 . S
H1769 C1784 0.960 . S
H1770 C1784 0.960 . S
H1771 C1784 0.960 . S
C1772 H1764 0.929 . S
C1772 C1773 1.377 . S
C1772 C1774 1.384 . S
C1773 C1772 1.377 . S
C1773 C1779 1.390 . S
C1774 H1765 0.930 . S
C1774 C1772 1.384 . S
C1774 C1775 1.372 . S
C1775 C1774 1.372 . S
C1775 C1776 1.400 . S
C1775 C1780 1.490 . S
C1776 H1766 0.930 . S
C1776 C1775 1.400 . S
C1776 C1779 1.386 . S
H1777 C1793 0.930 . S
H1778 C1794 0.931 . S
C1779 H1767 0.929 . S
C1779 C1773 1.390 . S
C1779 C1776 1.386 . S
C1780 C1775 1.490 . S
C1780 C1782 1.395 . S
C1780 C1783 1.403 . S
H1781 C1787 0.930 . S
C1782 H1768 0.930 . S
C1782 C1780 1.395 . S
C1782 C1785 1.403 . S
C1783 C1780 1.403 . S
C1783 C1784 1.524 . S
C1783 C1787 1.400 . S
C1784 H1769 0.960 . S
C1784 H1770 0.960 . S
C1784 H1771 0.960 . S
C1784 C1783 1.524 . S
C1785 C1782 1.403 . S
C1785 C1786 1.392 . S
C1785 C1789 1.495 . S
C1786 C1785 1.392 . S
C1786 C1787 1.385 . S
C1786 C1788 1.478 . S
C1787 H1781 0.930 . S
C1787 C1783 1.400 . S
C1787 C1786 1.385 . S
C1788 C1786 1.478 . S
C1788 C1790 1.381 . S
C1788 C1794 1.383 . S
C1789 C1785 1.495 . S
C1789 H1795 0.959 . S
C1789 H1796 0.961 . S
C1789 H1797 0.960 . S
C1790 C1788 1.381 . S
C1790 C1791 1.394 . S
C1790 H1798 0.930 . S
C1791 C1790 1.394 . S
C1791 C1792 1.383 . S
C1791 H1799 0.929 . S
C1792 C1791 1.383 . S
C1792 C1793 1.377 . S
C1793 H1777 0.930 . S
C1793 C1792 1.377 . S
C1793 C1794 1.379 . S
C1794 H1778 0.931 . S
C1794 C1788 1.383 . S
C1794 C1793 1.379 . S
H1795 C1789 0.959 . S
H1796 C1789 0.961 . S
H1797 C1789 0.960 . S
H1798 C1790 0.930 . S
H1799 C1791 0.929 . S
H1800 C1808 0.929 . S
H1801 C1810 0.930 . S
H1802 C1812 0.930 . S
H1803 C1815 0.929 . S
H1804 C1818 0.930 . S
H1805 C1820 0.960 . S
H1806 C1820 0.960 . S
H1807 C1820 0.960 . S
C1808 H1800 0.929 . S
C1808 C1809 1.377 . S
C1808 C1810 1.384 . S
C1809 C1808 1.377 . S
C1809 C1815 1.390 . S
C1810 H1801 0.930 . S
C1810 C1808 1.384 . S
C1810 C1811 1.372 . S
C1811 C1810 1.372 . S
C1811 C1812 1.400 . S
C1811 C1816 1.490 . S
C1812 H1802 0.930 . S
C1812 C1811 1.400 . S
C1812 C1815 1.386 . S
H1813 C1829 0.930 . S
H1814 C1830 0.931 . S
C1815 H1803 0.929 . S
C1815 C1809 1.390 . S
C1815 C1812 1.386 . S
C1816 C1811 1.490 . S
C1816 C1818 1.395 . S
C1816 C1819 1.403 1_565 S
H1817 C1823 0.930 . S
C1818 H1804 0.930 . S
C1818 C1816 1.395 . S
C1818 C1821 1.403 1_655 S
C1819 C1816 1.403 1_545 S
C1819 C1820 1.524 . S
C1819 C1823 1.400 1_655 S
C1820 H1805 0.960 . S
C1820 H1806 0.960 . S
C1820 H1807 0.960 . S
C1820 C1819 1.524 . S
C1821 C1818 1.403 1_455 S
C1821 C1822 1.392 1_565 S
C1821 C1825 1.495 . S
C1822 C1821 1.392 1_545 S
C1822 C1823 1.385 . S
C1822 C1824 1.478 . S
C1823 H1817 0.930 . S
C1823 C1819 1.400 1_455 S
C1823 C1822 1.385 . S
C1824 C1822 1.478 . S
C1824 C1826 1.381 . S
C1824 C1830 1.383 . S
C1825 C1821 1.495 . S
C1825 H1831 0.959 . S
C1825 H1832 0.961 . S
C1825 H1833 0.960 . S
C1826 C1824 1.381 . S
C1826 C1827 1.394 . S
C1826 H1834 0.930 . S
C1827 C1826 1.394 . S
C1827 C1828 1.383 . S
C1827 H1835 0.929 . S
C1828 C1827 1.383 . S
C1828 C1829 1.377 . S
C1829 H1813 0.930 . S
C1829 C1828 1.377 . S
C1829 C1830 1.379 . S
C1830 H1814 0.931 . S
C1830 C1824 1.383 . S
C1830 C1829 1.379 . S
H1831 C1825 0.959 . S
H1832 C1825 0.961 . S
H1833 C1825 0.960 . S
H1834 C1826 0.930 . S
H1835 C1827 0.929 . S
H1836 C1844 0.929 . S
H1837 C1846 0.930 . S
H1838 C1848 0.930 . S
H1839 C1851 0.929 . S
H1840 C1854 0.930 . S
H1841 C1856 0.960 . S
H1842 C1856 0.960 . S
H1843 C1856 0.960 . S
C1844 H1836 0.929 . S
C1844 C1845 1.377 . S
C1844 C1846 1.384 . S
C1845 C1844 1.377 . S
C1845 C1851 1.390 . S
C1846 H1837 0.930 . S
C1846 C1844 1.384 . S
C1846 C1847 1.372 . S
C1847 C1846 1.372 . S
C1847 C1848 1.400 . S
C1847 C1852 1.490 . S
C1848 H1838 0.930 . S
C1848 C1847 1.400 . S
C1848 C1851 1.386 . S
H1849 C1865 0.930 . S
H1850 C1866 0.931 . S
C1851 H1839 0.929 . S
C1851 C1845 1.390 . S
C1851 C1848 1.386 . S
C1852 C1847 1.490 . S
C1852 C1854 1.395 . S
C1852 C1855 1.403 . S
H1853 C1859 0.930 . S
C1854 H1840 0.930 . S
C1854 C1852 1.395 . S
C1854 C1857 1.403 . S
C1855 C1852 1.403 . S
C1855 C1856 1.524 . S
C1855 C1859 1.400 . S
C1856 H1841 0.960 . S
C1856 H1842 0.960 . S
C1856 H1843 0.960 . S
C1856 C1855 1.524 . S
C1857 C1854 1.403 . S
C1857 C1858 1.392 . S
C1857 C1861 1.495 . S
C1858 C1857 1.392 . S
C1858 C1859 1.385 . S
C1858 C1860 1.478 . S
C1859 H1853 0.930 . S
C1859 C1855 1.400 . S
C1859 C1858 1.385 . S
C1860 C1858 1.478 . S
C1860 C1862 1.381 . S
C1860 C1866 1.383 . S
C1861 C1857 1.495 . S
C1861 H1867 0.959 . S
C1861 H1868 0.961 . S
C1861 H1869 0.960 . S
C1862 C1860 1.381 . S
C1862 C1863 1.394 . S
C1862 H1870 0.930 . S
C1863 C1862 1.394 . S
C1863 C1864 1.383 . S
C1863 H1871 0.929 . S
C1864 C1863 1.383 . S
C1864 C1865 1.377 . S
C1865 H1849 0.930 . S
C1865 C1864 1.377 . S
C1865 C1866 1.379 . S
C1866 H1850 0.931 . S
C1866 C1860 1.383 . S
C1866 C1865 1.379 . S
H1867 C1861 0.959 . S
H1868 C1861 0.961 . S
H1869 C1861 0.960 . S
H1870 C1862 0.930 . S
H1871 C1863 0.929 . S
H1872 C1880 0.929 . S
H1873 C1882 0.930 1_545 S
H1874 C1884 0.930 . S
H1875 C1887 0.929 . S
H1876 C1890 0.930 . S
H1877 C1892 0.960 1_655 S
H1878 C1892 0.960 . S
H1879 C1892 0.960 . S
C1880 H1872 0.929 . S
C1880 C1881 1.377 . S
C1880 C1882 1.384 . S
C1881 C1880 1.377 . S
C1881 C1887 1.390 . S
C1882 H1873 0.930 1_565 S
C1882 C1880 1.384 . S
C1882 C1883 1.372 . S
C1883 C1882 1.372 . S
C1883 C1884 1.400 . S
C1883 C1888 1.490 . S
C1884 H1874 0.930 . S
C1884 C1883 1.400 . S
C1884 C1887 1.386 . S
H1885 C1901 0.930 . S
H1886 C1902 0.931 1_565 S
C1887 H1875 0.929 . S
C1887 C1881 1.390 . S
C1887 C1884 1.386 . S
C1888 C1883 1.490 . S
C1888 C1890 1.395 1_565 S
C1888 C1891 1.403 . S
H1889 C1895 0.930 . S
C1890 H1876 0.930 . S
C1890 C1888 1.395 1_545 S
C1890 C1893 1.403 1_455 S
C1891 C1888 1.403 . S
C1891 C1892 1.524 . S
C1891 C1895 1.400 1_455 S
C1892 H1877 0.960 1_455 S
C1892 H1878 0.960 . S
C1892 H1879 0.960 . S
C1892 C1891 1.524 . S
C1893 C1890 1.403 1_655 S
C1893 C1894 1.392 . S
C1893 C1897 1.495 . S
C1894 C1893 1.392 . S
C1894 C1895 1.385 1_545 S
C1894 C1896 1.478 . S
C1895 H1889 0.930 . S
C1895 C1891 1.400 1_655 S
C1895 C1894 1.385 1_565 S
C1896 C1894 1.478 . S
C1896 C1898 1.381 . S
C1896 C1902 1.383 . S
C1897 C1893 1.495 . S
C1897 H1903 0.959 1_655 S
C1897 H1904 0.961 . S
C1897 H1905 0.960 . S
C1898 C1896 1.381 . S
C1898 C1899 1.394 . S
C1898 H1906 0.930 . S
C1899 C1898 1.394 . S
C1899 C1900 1.383 . S
C1899 H1907 0.929 . S
C1900 C1899 1.383 . S
C1900 C1901 1.377 . S
C1901 H1885 0.930 . S
C1901 C1900 1.377 . S
C1901 C1902 1.379 . S
C1902 H1886 0.931 1_545 S
C1902 C1896 1.383 . S
C1902 C1901 1.379 . S
H1903 C1897 0.959 1_455 S
H1904 C1897 0.961 . S
H1905 C1897 0.960 . S
H1906 C1898 0.930 . S
H1907 C1899 0.929 . S
H1908 C1916 0.929 . S
H1909 C1918 0.930 . S
H1910 C1920 0.930 . S
H1911 C1923 0.929 . S
H1912 C1926 0.930 . S
H1913 C1928 0.960 . S
H1914 C1928 0.960 . S
H1915 C1928 0.960 . S
C1916 H1908 0.929 . S
C1916 C1917 1.377 . S
C1916 C1918 1.384 . S
C1917 C1916 1.377 . S
C1917 C1923 1.390 . S
C1918 H1909 0.930 . S
C1918 C1916 1.384 . S
C1918 C1919 1.372 . S
C1919 C1918 1.372 . S
C1919 C1920 1.400 . S
C1919 C1924 1.490 . S
C1920 H1910 0.930 . S
C1920 C1919 1.400 . S
C1920 C1923 1.386 . S
H1921 C1937 0.930 . S
H1922 C1938 0.931 . S
C1923 H1911 0.929 . S
C1923 C1917 1.390 . S
C1923 C1920 1.386 . S
C1924 C1919 1.490 . S
C1924 C1926 1.395 . S
C1924 C1927 1.403 . S
H1925 C1931 0.930 . S
C1926 H1912 0.930 . S
C1926 C1924 1.395 . S
C1926 C1929 1.403 . S
C1927 C1924 1.403 . S
C1927 C1928 1.524 . S
C1927 C1931 1.400 . S
C1928 H1913 0.960 . S
C1928 H1914 0.960 . S
C1928 H1915 0.960 . S
C1928 C1927 1.524 . S
C1929 C1926 1.403 . S
C1929 C1930 1.392 . S
C1929 C1933 1.495 . S
C1930 C1929 1.392 . S
C1930 C1931 1.385 . S
C1930 C1932 1.478 . S
C1931 H1925 0.930 . S
C1931 C1927 1.400 . S
C1931 C1930 1.385 . S
C1932 C1930 1.478 . S
C1932 C1934 1.381 . S
C1932 C1938 1.383 . S
C1933 C1929 1.495 . S
C1933 H1939 0.959 . S
C1933 H1940 0.961 . S
C1933 H1941 0.960 . S
C1934 C1932 1.381 . S
C1934 C1935 1.394 . S
C1934 H1942 0.930 . S
C1935 C1934 1.394 . S
C1935 C1936 1.383 . S
C1935 H1943 0.929 . S
C1936 C1935 1.383 . S
C1936 C1937 1.377 . S
C1937 H1921 0.930 . S
C1937 C1936 1.377 . S
C1937 C1938 1.379 . S
C1938 H1922 0.931 . S
C1938 C1932 1.383 . S
C1938 C1937 1.379 . S
H1939 C1933 0.959 . S
H1940 C1933 0.961 . S
H1941 C1933 0.960 . S
H1942 C1934 0.930 . S
H1943 C1935 0.929 . S
H1944 C1952 0.929 . S
H1945 C1954 0.930 . S
H1946 C1956 0.930 . S
H1947 C1959 0.929 . S
H1948 C1962 0.930 . S
H1949 C1964 0.960 . S
H1950 C1964 0.960 . S
H1951 C1964 0.960 . S
C1952 H1944 0.929 . S
C1952 C1953 1.377 . S
C1952 C1954 1.384 . S
C1953 C1952 1.377 . S
C1953 C1959 1.390 . S
C1954 H1945 0.930 . S
C1954 C1952 1.384 . S
C1954 C1955 1.372 . S
C1955 C1954 1.372 . S
C1955 C1956 1.400 . S
C1955 C1960 1.490 . S
C1956 H1946 0.930 . S
C1956 C1955 1.400 . S
C1956 C1959 1.386 . S
H1957 C1973 0.930 . S
H1958 C1974 0.931 . S
C1959 H1947 0.929 . S
C1959 C1953 1.390 . S
C1959 C1956 1.386 . S
C1960 C1955 1.490 . S
C1960 C1962 1.395 . S
C1960 C1963 1.403 1_554 S
H1961 C1967 0.930 . S
C1962 H1948 0.930 . S
C1962 C1960 1.395 . S
C1962 C1965 1.403 1_545 S
C1963 C1960 1.403 1_556 S
C1963 C1964 1.524 . S
C1963 C1967 1.400 1_545 S
C1964 H1949 0.960 . S
C1964 H1950 0.960 . S
C1964 H1951 0.960 . S
C1964 C1963 1.524 . S
C1965 C1962 1.403 1_565 S
C1965 C1966 1.392 1_554 S
C1965 C1969 1.495 . S
C1966 C1965 1.392 1_556 S
C1966 C1967 1.385 . S
C1966 C1968 1.478 . S
C1967 H1961 0.930 . S
C1967 C1963 1.400 1_565 S
C1967 C1966 1.385 . S
C1968 C1966 1.478 . S
C1968 C1970 1.381 . S
C1968 C1974 1.383 . S
C1969 C1965 1.495 . S
C1969 H1975 0.959 . S
C1969 H1976 0.961 . S
C1969 H1977 0.960 . S
C1970 C1968 1.381 . S
C1970 C1971 1.394 . S
C1970 H1978 0.930 . S
C1971 C1970 1.394 . S
C1971 C1972 1.383 . S
C1971 H1979 0.929 . S
C1972 C1971 1.383 . S
C1972 C1973 1.377 . S
C1973 H1957 0.930 . S
C1973 C1972 1.377 . S
C1973 C1974 1.379 . S
C1974 H1958 0.931 . S
C1974 C1968 1.383 . S
C1974 C1973 1.379 . S
H1975 C1969 0.959 . S
H1976 C1969 0.961 . S
H1977 C1969 0.960 . S
H1978 C1970 0.930 . S
H1979 C1971 0.929 . S
H1980 C1988 0.929 . S
H1981 C1990 0.930 . S
H1982 C1992 0.930 . S
H1983 C1995 0.929 . S
H1984 C1998 0.930 . S
H1985 C2000 0.960 . S
H1986 C2000 0.960 . S
H1987 C2000 0.960 . S
C1988 H1980 0.929 . S
C1988 C1989 1.377 . S
C1988 C1990 1.384 . S
C1989 C1988 1.377 . S
C1989 C1995 1.390 . S
C1990 H1981 0.930 . S
C1990 C1988 1.384 . S
C1990 C1991 1.372 . S
C1991 C1990 1.372 . S
C1991 C1992 1.400 . S
C1991 C1996 1.490 . S
C1992 H1982 0.930 . S
C1992 C1991 1.400 . S
C1992 C1995 1.386 . S
H1993 C2009 0.930 . S
H1994 C2010 0.931 . S
C1995 H1983 0.929 . S
C1995 C1989 1.390 . S
C1995 C1992 1.386 . S
C1996 C1991 1.490 . S
C1996 C1998 1.395 . S
C1996 C1999 1.403 . S
H1997 C2003 0.930 . S
C1998 H1984 0.930 . S
C1998 C1996 1.395 . S
C1998 C2001 1.403 . S
C1999 C1996 1.403 . S
C1999 C2000 1.524 . S
C1999 C2003 1.400 . S
C2000 H1985 0.960 . S
C2000 H1986 0.960 . S
C2000 H1987 0.960 . S
C2000 C1999 1.524 . S
C2001 C1998 1.403 . S
C2001 C2002 1.392 . S
C2001 C2005 1.495 . S
C2002 C2001 1.392 . S
C2002 C2003 1.385 . S
C2002 C2004 1.478 . S
C2003 H1997 0.930 . S
C2003 C1999 1.400 . S
C2003 C2002 1.385 . S
C2004 C2002 1.478 . S
C2004 C2006 1.381 . S
C2004 C2010 1.383 . S
C2005 C2001 1.495 . S
C2005 H2011 0.959 . S
C2005 H2012 0.961 . S
C2005 H2013 0.960 . S
C2006 C2004 1.381 . S
C2006 C2007 1.394 . S
C2006 H2014 0.930 . S
C2007 C2006 1.394 . S
C2007 C2008 1.383 . S
C2007 H2015 0.929 . S
C2008 C2007 1.383 . S
C2008 C2009 1.377 . S
C2009 H1993 0.930 . S
C2009 C2008 1.377 . S
C2009 C2010 1.379 . S
C2010 H1994 0.931 . S
C2010 C2004 1.383 . S
C2010 C2009 1.379 . S
H2011 C2005 0.959 . S
H2012 C2005 0.961 . S
H2013 C2005 0.960 . S
H2014 C2006 0.930 . S
H2015 C2007 0.929 . S
H2016 C2024 0.929 . S
H2017 C2026 0.930 1_554 S
H2018 C2028 0.930 . S
H2019 C2031 0.929 . S
H2020 C2034 0.930 . S
H2021 C2036 0.960 . S
H2022 C2036 0.960 1_554 S
H2023 C2036 0.960 . S
C2024 H2016 0.929 . S
C2024 C2025 1.377 . S
C2024 C2026 1.384 . S
C2025 C2024 1.377 . S
C2025 C2031 1.390 . S
C2026 H2017 0.930 1_556 S
C2026 C2024 1.384 . S
C2026 C2027 1.372 . S
C2027 C2026 1.372 . S
C2027 C2028 1.400 . S
C2027 C2032 1.490 . S
C2028 H2018 0.930 . S
C2028 C2027 1.400 . S
C2028 C2031 1.386 . S
H2029 C2045 0.930 . S
H2030 C2046 0.931 1_556 S
C2031 H2019 0.929 . S
C2031 C2025 1.390 . S
C2031 C2028 1.386 . S
C2032 C2027 1.490 . S
C2032 C2034 1.395 . S
C2032 C2035 1.403 . S
H2033 C2039 0.930 . S
C2034 H2020 0.930 . S
C2034 C2032 1.395 . S
C2034 C2037 1.403 1_546 S
C2035 C2032 1.403 . S
C2035 C2036 1.524 . S
C2035 C2039 1.400 1_546 S
C2036 H2021 0.960 . S
C2036 H2022 0.960 1_556 S
C2036 H2023 0.960 . S
C2036 C2035 1.524 . S
C2037 C2034 1.403 1_564 S
C2037 C2038 1.392 . S
C2037 C2041 1.495 . S
C2038 C2037 1.392 . S
C2038 C2039 1.385 . S
C2038 C2040 1.478 . S
C2039 H2033 0.930 . S
C2039 C2035 1.400 1_564 S
C2039 C2038 1.385 . S
C2040 C2038 1.478 . S
C2040 C2042 1.381 . S
C2040 C2046 1.383 . S
C2041 C2037 1.495 . S
C2041 H2047 0.959 . S
C2041 H2048 0.961 . S
C2041 H2049 0.960 . S
C2042 C2040 1.381 . S
C2042 C2043 1.394 . S
C2042 H2050 0.930 . S
C2043 C2042 1.394 . S
C2043 C2044 1.383 . S
C2043 H2051 0.929 . S
C2044 C2043 1.383 . S
C2044 C2045 1.377 . S
C2045 H2029 0.930 . S
C2045 C2044 1.377 . S
C2045 C2046 1.379 . S
C2046 H2030 0.931 1_554 S
C2046 C2040 1.383 . S
C2046 C2045 1.379 . S
H2047 C2041 0.959 . S
H2048 C2041 0.961 . S
H2049 C2041 0.960 . S
H2050 C2042 0.930 . S
H2051 C2043 0.929 . S
H2052 C2060 0.929 . S
H2053 C2062 0.930 . S
H2054 C2064 0.930 . S
H2055 C2067 0.929 . S
H2056 C2070 0.930 . S
H2057 C2072 0.960 . S
H2058 C2072 0.960 . S
H2059 C2072 0.960 . S
C2060 H2052 0.929 . S
C2060 C2061 1.377 . S
C2060 C2062 1.384 . S
C2061 C2060 1.377 . S
C2061 C2067 1.390 . S
C2062 H2053 0.930 . S
C2062 C2060 1.384 . S
C2062 C2063 1.372 . S
C2063 C2062 1.372 . S
C2063 C2064 1.400 . S
C2063 C2068 1.490 . S
C2064 H2054 0.930 . S
C2064 C2063 1.400 . S
C2064 C2067 1.386 . S
H2065 C2081 0.930 . S
H2066 C2082 0.931 . S
C2067 H2055 0.929 . S
C2067 C2061 1.390 . S
C2067 C2064 1.386 . S
C2068 C2063 1.490 . S
C2068 C2070 1.395 . S
C2068 C2071 1.403 . S
H2069 C2075 0.930 . S
C2070 H2056 0.930 . S
C2070 C2068 1.395 . S
C2070 C2073 1.403 . S
C2071 C2068 1.403 . S
C2071 C2072 1.524 . S
C2071 C2075 1.400 . S
C2072 H2057 0.960 . S
C2072 H2058 0.960 . S
C2072 H2059 0.960 . S
C2072 C2071 1.524 . S
C2073 C2070 1.403 . S
C2073 C2074 1.392 . S
C2073 C2077 1.495 . S
C2074 C2073 1.392 . S
C2074 C2075 1.385 . S
C2074 C2076 1.478 . S
C2075 H2069 0.930 . S
C2075 C2071 1.400 . S
C2075 C2074 1.385 . S
C2076 C2074 1.478 . S
C2076 C2078 1.381 . S
C2076 C2082 1.383 . S
C2077 C2073 1.495 . S
C2077 H2083 0.959 . S
C2077 H2084 0.961 . S
C2077 H2085 0.960 . S
C2078 C2076 1.381 . S
C2078 C2079 1.394 . S
C2078 H2086 0.930 . S
C2079 C2078 1.394 . S
C2079 C2080 1.383 . S
C2079 H2087 0.929 . S
C2080 C2079 1.383 . S
C2080 C2081 1.377 . S
C2081 H2065 0.930 . S
C2081 C2080 1.377 . S
C2081 C2082 1.379 . S
C2082 H2066 0.931 . S
C2082 C2076 1.383 . S
C2082 C2081 1.379 . S
H2083 C2077 0.959 . S
H2084 C2077 0.961 . S
H2085 C2077 0.960 . S
H2086 C2078 0.930 . S
H2087 C2079 0.929 . S
H2088 C2096 0.929 . S
H2089 C2098 0.930 . S
H2090 C2100 0.930 . S
H2091 C2103 0.929 . S
H2092 C2106 0.930 . S
H2093 C2108 0.960 . S
H2094 C2108 0.960 . S
H2095 C2108 0.960 . S
C2096 H2088 0.929 . S
C2096 C2097 1.377 . S
C2096 C2098 1.384 . S
C2097 C2096 1.377 . S
C2097 C2103 1.390 . S
C2098 H2089 0.930 . S
C2098 C2096 1.384 . S
C2098 C2099 1.372 . S
C2099 C2098 1.372 . S
C2099 C2100 1.400 . S
C2099 C2104 1.490 . S
C2100 H2090 0.930 . S
C2100 C2099 1.400 . S
C2100 C2103 1.386 . S
H2101 C2117 0.930 . S
H2102 C2118 0.931 . S
C2103 H2091 0.929 . S
C2103 C2097 1.390 . S
C2103 C2100 1.386 . S
C2104 C2099 1.490 . S
C2104 C2106 1.395 . S
C2104 C2107 1.403 . S
H2105 C2111 0.930 . S
C2106 H2092 0.930 . S
C2106 C2104 1.395 . S
C2106 C2109 1.403 . S
C2107 C2104 1.403 . S
C2107 C2108 1.524 . S
C2107 C2111 1.400 . S
C2108 H2093 0.960 . S
C2108 H2094 0.960 . S
C2108 H2095 0.960 . S
C2108 C2107 1.524 . S
C2109 C2106 1.403 . S
C2109 C2110 1.392 . S
C2109 C2113 1.495 . S
C2110 C2109 1.392 . S
C2110 C2111 1.385 . S
C2110 C2112 1.478 . S
C2111 H2105 0.930 . S
C2111 C2107 1.400 . S
C2111 C2110 1.385 . S
C2112 C2110 1.478 . S
C2112 C2114 1.381 . S
C2112 C2118 1.383 . S
C2113 C2109 1.495 . S
C2113 H2119 0.959 . S
C2113 H2120 0.961 . S
C2113 H2121 0.960 . S
C2114 C2112 1.381 . S
C2114 C2115 1.394 . S
C2114 H2122 0.930 . S
C2115 C2114 1.394 . S
C2115 C2116 1.383 . S
C2115 H2123 0.929 . S
C2116 C2115 1.383 . S
C2116 C2117 1.377 . S
C2117 H2101 0.930 . S
C2117 C2116 1.377 . S
C2117 C2118 1.379 . S
C2118 H2102 0.931 . S
C2118 C2112 1.383 . S
C2118 C2117 1.379 . S
H2119 C2113 0.959 . S
H2120 C2113 0.961 . S
H2121 C2113 0.960 . S
H2122 C2114 0.930 . S
H2123 C2115 0.929 . S
H2124 C2132 0.929 . S
H2125 C2134 0.930 . S
H2126 C2136 0.930 . S
H2127 C2139 0.929 . S
H2128 C2142 0.930 . S
H2129 C2144 0.960 . S
H2130 C2144 0.960 . S
H2131 C2144 0.960 . S
C2132 H2124 0.929 . S
C2132 C2133 1.377 . S
C2132 C2134 1.384 . S
C2133 C2132 1.377 . S
C2133 C2139 1.390 . S
C2134 H2125 0.930 . S
C2134 C2132 1.384 . S
C2134 C2135 1.372 . S
C2135 C2134 1.372 . S
C2135 C2136 1.400 . S
C2135 C2140 1.490 . S
C2136 H2126 0.930 . S
C2136 C2135 1.400 . S
C2136 C2139 1.386 . S
H2137 C2153 0.930 . S
H2138 C2154 0.931 . S
C2139 H2127 0.929 . S
C2139 C2133 1.390 . S
C2139 C2136 1.386 . S
C2140 C2135 1.490 . S
C2140 C2142 1.395 . S
C2140 C2143 1.403 . S
H2141 C2147 0.930 . S
C2142 H2128 0.930 . S
C2142 C2140 1.395 . S
C2142 C2145 1.403 . S
C2143 C2140 1.403 . S
C2143 C2144 1.524 . S
C2143 C2147 1.400 . S
C2144 H2129 0.960 . S
C2144 H2130 0.960 . S
C2144 H2131 0.960 . S
C2144 C2143 1.524 . S
C2145 C2142 1.403 . S
C2145 C2146 1.392 . S
C2145 C2149 1.495 . S
C2146 C2145 1.392 . S
C2146 C2147 1.385 . S
C2146 C2148 1.478 . S
C2147 H2141 0.930 . S
C2147 C2143 1.400 . S
C2147 C2146 1.385 . S
C2148 C2146 1.478 . S
C2148 C2150 1.381 . S
C2148 C2154 1.383 . S
C2149 C2145 1.495 . S
C2149 H2155 0.959 . S
C2149 H2156 0.961 . S
C2149 H2157 0.960 . S
C2150 C2148 1.381 . S
C2150 C2151 1.394 . S
C2150 H2158 0.930 . S
C2151 C2150 1.394 . S
C2151 C2152 1.383 . S
C2151 H2159 0.929 . S
C2152 C2151 1.383 . S
C2152 C2153 1.377 . S
C2153 H2137 0.930 . S
C2153 C2152 1.377 . S
C2153 C2154 1.379 . S
C2154 H2138 0.931 . S
C2154 C2148 1.383 . S
C2154 C2153 1.379 . S
H2155 C2149 0.959 . S
H2156 C2149 0.961 . S
H2157 C2149 0.960 . S
H2158 C2150 0.930 . S
H2159 C2151 0.929 . S
H2160 C2168 0.929 . S
H2161 C2170 0.930 . S
H2162 C2172 0.930 . S
H2163 C2175 0.929 . S
H2164 C2178 0.930 . S
H2165 C2180 0.960 . S
H2166 C2180 0.960 . S
H2167 C2180 0.960 . S
C2168 H2160 0.929 . S
C2168 C2169 1.377 . S
C2168 C2170 1.384 . S
C2169 C2168 1.377 . S
C2169 C2175 1.390 . S
C2170 H2161 0.930 . S
C2170 C2168 1.384 . S
C2170 C2171 1.372 . S
C2171 C2170 1.372 . S
C2171 C2172 1.400 . S
C2171 C2176 1.490 . S
C2172 H2162 0.930 . S
C2172 C2171 1.400 . S
C2172 C2175 1.386 . S
H2173 C2189 0.930 . S
H2174 C2190 0.931 . S
C2175 H2163 0.929 . S
C2175 C2169 1.390 . S
C2175 C2172 1.386 . S
C2176 C2171 1.490 . S
C2176 C2178 1.395 . S
C2176 C2179 1.403 . S
H2177 C2183 0.930 . S
C2178 H2164 0.930 . S
C2178 C2176 1.395 . S
C2178 C2181 1.403 . S
C2179 C2176 1.403 . S
C2179 C2180 1.524 . S
C2179 C2183 1.400 . S
C2180 H2165 0.960 . S
C2180 H2166 0.960 . S
C2180 H2167 0.960 . S
C2180 C2179 1.524 . S
C2181 C2178 1.403 . S
C2181 C2182 1.392 . S
C2181 C2185 1.495 . S
C2182 C2181 1.392 . S
C2182 C2183 1.385 . S
C2182 C2184 1.478 . S
C2183 H2177 0.930 . S
C2183 C2179 1.400 . S
C2183 C2182 1.385 . S
C2184 C2182 1.478 . S
C2184 C2186 1.381 . S
C2184 C2190 1.383 . S
C2185 C2181 1.495 . S
C2185 H2191 0.959 . S
C2185 H2192 0.961 . S
C2185 H2193 0.960 . S
C2186 C2184 1.381 . S
C2186 C2187 1.394 . S
C2186 H2194 0.930 . S
C2187 C2186 1.394 . S
C2187 C2188 1.383 . S
C2187 H2195 0.929 . S
C2188 C2187 1.383 . S
C2188 C2189 1.377 . S
C2189 H2173 0.930 . S
C2189 C2188 1.377 . S
C2189 C2190 1.379 . S
C2190 H2174 0.931 . S
C2190 C2184 1.383 . S
C2190 C2189 1.379 . S
H2191 C2185 0.959 . S
H2192 C2185 0.961 . S
H2193 C2185 0.960 . S
H2194 C2186 0.930 . S
H2195 C2187 0.929 . S
H2196 C2204 0.929 . S
H2197 C2206 0.930 . S
H2198 C2208 0.930 . S
H2199 C2211 0.929 . S
H2200 C2214 0.930 . S
H2201 C2216 0.960 . S
H2202 C2216 0.960 . S
H2203 C2216 0.960 . S
C2204 H2196 0.929 . S
C2204 C2205 1.377 . S
C2204 C2206 1.384 . S
C2205 C2204 1.377 . S
C2205 C2211 1.390 . S
C2206 H2197 0.930 . S
C2206 C2204 1.384 . S
C2206 C2207 1.372 . S
C2207 C2206 1.372 . S
C2207 C2208 1.400 . S
C2207 C2212 1.490 . S
C2208 H2198 0.930 . S
C2208 C2207 1.400 . S
C2208 C2211 1.386 . S
H2209 C2225 0.930 . S
H2210 C2226 0.931 . S
C2211 H2199 0.929 . S
C2211 C2205 1.390 . S
C2211 C2208 1.386 . S
C2212 C2207 1.490 . S
C2212 C2214 1.395 . S
C2212 C2215 1.403 . S
H2213 C2219 0.930 . S
C2214 H2200 0.930 . S
C2214 C2212 1.395 . S
C2214 C2217 1.403 . S
C2215 C2212 1.403 . S
C2215 C2216 1.524 . S
C2215 C2219 1.400 . S
C2216 H2201 0.960 . S
C2216 H2202 0.960 . S
C2216 H2203 0.960 . S
C2216 C2215 1.524 . S
C2217 C2214 1.403 . S
C2217 C2218 1.392 . S
C2217 C2221 1.495 . S
C2218 C2217 1.392 . S
C2218 C2219 1.385 . S
C2218 C2220 1.478 . S
C2219 H2213 0.930 . S
C2219 C2215 1.400 . S
C2219 C2218 1.385 . S
C2220 C2218 1.478 . S
C2220 C2222 1.381 . S
C2220 C2226 1.383 . S
C2221 C2217 1.495 . S
C2221 H2227 0.959 . S
C2221 H2228 0.961 . S
C2221 H2229 0.960 . S
C2222 C2220 1.381 . S
C2222 C2223 1.394 . S
C2222 H2230 0.930 . S
C2223 C2222 1.394 . S
C2223 C2224 1.383 . S
C2223 H2231 0.929 . S
C2224 C2223 1.383 . S
C2224 C2225 1.377 . S
C2225 H2209 0.930 . S
C2225 C2224 1.377 . S
C2225 C2226 1.379 . S
C2226 H2210 0.931 . S
C2226 C2220 1.383 . S
C2226 C2225 1.379 . S
H2227 C2221 0.959 . S
H2228 C2221 0.961 . S
H2229 C2221 0.960 . S
H2230 C2222 0.930 . S
H2231 C2223 0.929 . S
H2232 C2240 0.929 . S
H2233 C2242 0.930 . S
H2234 C2244 0.930 . S
H2235 C2247 0.929 . S
H2236 C2250 0.930 . S
H2237 C2252 0.960 . S
H2238 C2252 0.960 . S
H2239 C2252 0.960 . S
C2240 H2232 0.929 . S
C2240 C2241 1.377 . S
C2240 C2242 1.384 . S
C2241 C2240 1.377 . S
C2241 C2247 1.390 . S
C2242 H2233 0.930 . S
C2242 C2240 1.384 . S
C2242 C2243 1.372 . S
C2243 C2242 1.372 . S
C2243 C2244 1.400 . S
C2243 C2248 1.490 . S
C2244 H2234 0.930 . S
C2244 C2243 1.400 . S
C2244 C2247 1.386 . S
H2245 C2261 0.930 . S
H2246 C2262 0.931 . S
C2247 H2235 0.929 . S
C2247 C2241 1.390 . S
C2247 C2244 1.386 . S
C2248 C2243 1.490 . S
C2248 C2250 1.395 . S
C2248 C2251 1.403 . S
H2249 C2255 0.930 . S
C2250 H2236 0.930 . S
C2250 C2248 1.395 . S
C2250 C2253 1.403 . S
C2251 C2248 1.403 . S
C2251 C2252 1.524 . S
C2251 C2255 1.400 . S
C2252 H2237 0.960 . S
C2252 H2238 0.960 . S
C2252 H2239 0.960 . S
C2252 C2251 1.524 . S
C2253 C2250 1.403 . S
C2253 C2254 1.392 . S
C2253 C2257 1.495 . S
C2254 C2253 1.392 . S
C2254 C2255 1.385 . S
C2254 C2256 1.478 . S
C2255 H2249 0.930 . S
C2255 C2251 1.400 . S
C2255 C2254 1.385 . S
C2256 C2254 1.478 . S
C2256 C2258 1.381 . S
C2256 C2262 1.383 . S
C2257 C2253 1.495 . S
C2257 H2263 0.959 . S
C2257 H2264 0.961 . S
C2257 H2265 0.960 . S
C2258 C2256 1.381 . S
C2258 C2259 1.394 . S
C2258 H2266 0.930 . S
C2259 C2258 1.394 . S
C2259 C2260 1.383 . S
C2259 H2267 0.929 . S
C2260 C2259 1.383 . S
C2260 C2261 1.377 . S
C2261 H2245 0.930 . S
C2261 C2260 1.377 . S
C2261 C2262 1.379 . S
C2262 H2246 0.931 . S
C2262 C2256 1.383 . S
C2262 C2261 1.379 . S
H2263 C2257 0.959 . S
H2264 C2257 0.961 . S
H2265 C2257 0.960 . S
H2266 C2258 0.930 . S
H2267 C2259 0.929 . S
H2268 C2276 0.929 . S
H2269 C2278 0.930 . S
H2270 C2280 0.930 . S
H2271 C2283 0.929 . S
H2272 C2286 0.930 . S
H2273 C2288 0.960 . S
H2274 C2288 0.960 . S
H2275 C2288 0.960 . S
C2276 H2268 0.929 . S
C2276 C2277 1.377 . S
C2276 C2278 1.384 . S
C2277 C2276 1.377 . S
C2277 C2283 1.390 . S
C2278 H2269 0.930 . S
C2278 C2276 1.384 . S
C2278 C2279 1.372 . S
C2279 C2278 1.372 . S
C2279 C2280 1.400 . S
C2279 C2284 1.490 . S
C2280 H2270 0.930 . S
C2280 C2279 1.400 . S
C2280 C2283 1.386 . S
H2281 C2297 0.930 . S
H2282 C2298 0.931 . S
C2283 H2271 0.929 . S
C2283 C2277 1.390 . S
C2283 C2280 1.386 . S
C2284 C2279 1.490 . S
C2284 C2286 1.395 . S
C2284 C2287 1.403 . S
H2285 C2291 0.930 . S
C2286 H2272 0.930 . S
C2286 C2284 1.395 . S
C2286 C2289 1.403 . S
C2287 C2284 1.403 . S
C2287 C2288 1.524 . S
C2287 C2291 1.400 . S
C2288 H2273 0.960 . S
C2288 H2274 0.960 . S
C2288 H2275 0.960 . S
C2288 C2287 1.524 . S
C2289 C2286 1.403 . S
C2289 C2290 1.392 . S
C2289 C2293 1.495 . S
C2290 C2289 1.392 . S
C2290 C2291 1.385 . S
C2290 C2292 1.478 . S
C2291 H2285 0.930 . S
C2291 C2287 1.400 . S
C2291 C2290 1.385 . S
C2292 C2290 1.478 . S
C2292 C2294 1.381 . S
C2292 C2298 1.383 . S
C2293 C2289 1.495 . S
C2293 H2299 0.959 . S
C2293 H2300 0.961 . S
C2293 H2301 0.960 . S
C2294 C2292 1.381 . S
C2294 C2295 1.394 . S
C2294 H2302 0.930 . S
C2295 C2294 1.394 . S
C2295 C2296 1.383 . S
C2295 H2303 0.929 . S
C2296 C2295 1.383 . S
C2296 C2297 1.377 . S
C2297 H2281 0.930 . S
C2297 C2296 1.377 . S
C2297 C2298 1.379 . S
C2298 H2282 0.931 . S
C2298 C2292 1.383 . S
C2298 C2297 1.379 . S
H2299 C2293 0.959 . S
H2300 C2293 0.961 . S
H2301 C2293 0.960 . S
H2302 C2294 0.930 . S
H2303 C2295 0.929 . S
H2304 C2312 0.929 . S
H2305 C2314 0.930 . S
H2306 C2316 0.930 . S
H2307 C2319 0.929 . S
H2308 C2322 0.930 . S
H2309 C2324 0.960 . S
H2310 C2324 0.960 . S
H2311 C2324 0.960 . S
C2312 H2304 0.929 . S
C2312 C2313 1.377 . S
C2312 C2314 1.384 . S
C2313 C2312 1.377 . S
C2313 C2319 1.390 . S
C2314 H2305 0.930 . S
C2314 C2312 1.384 . S
C2314 C2315 1.372 . S
C2315 C2314 1.372 . S
C2315 C2316 1.400 . S
C2315 C2320 1.490 . S
C2316 H2306 0.930 . S
C2316 C2315 1.400 . S
C2316 C2319 1.386 . S
H2317 C2333 0.930 . S
H2318 C2334 0.931 . S
C2319 H2307 0.929 . S
C2319 C2313 1.390 . S
C2319 C2316 1.386 . S
C2320 C2315 1.490 . S
C2320 C2322 1.395 . S
C2320 C2323 1.403 . S
H2321 C2327 0.930 . S
C2322 H2308 0.930 . S
C2322 C2320 1.395 . S
C2322 C2325 1.403 . S
C2323 C2320 1.403 . S
C2323 C2324 1.524 . S
C2323 C2327 1.400 . S
C2324 H2309 0.960 . S
C2324 H2310 0.960 . S
C2324 H2311 0.960 . S
C2324 C2323 1.524 . S
C2325 C2322 1.403 . S
C2325 C2326 1.392 . S
C2325 C2329 1.495 . S
C2326 C2325 1.392 . S
C2326 C2327 1.385 . S
C2326 C2328 1.478 . S
C2327 H2321 0.930 . S
C2327 C2323 1.400 . S
C2327 C2326 1.385 . S
C2328 C2326 1.478 . S
C2328 C2330 1.381 . S
C2328 C2334 1.383 . S
C2329 C2325 1.495 . S
C2329 H2335 0.959 . S
C2329 H2336 0.961 . S
C2329 H2337 0.960 . S
C2330 C2328 1.381 . S
C2330 C2331 1.394 . S
C2330 H2338 0.930 . S
C2331 C2330 1.394 . S
C2331 C2332 1.383 . S
C2331 H2339 0.929 . S
C2332 C2331 1.383 . S
C2332 C2333 1.377 . S
C2333 H2317 0.930 . S
C2333 C2332 1.377 . S
C2333 C2334 1.379 . S
C2334 H2318 0.931 . S
C2334 C2328 1.383 . S
C2334 C2333 1.379 . S
H2335 C2329 0.959 . S
H2336 C2329 0.961 . S
H2337 C2329 0.960 . S
H2338 C2330 0.930 . S
H2339 C2331 0.929 . S
H2340 C2348 0.929 . S
H2341 C2350 0.930 . S
H2342 C2352 0.930 . S
H2343 C2355 0.929 . S
H2344 C2358 0.930 . S
H2345 C2360 0.960 . S
H2346 C2360 0.960 . S
H2347 C2360 0.960 . S
C2348 H2340 0.929 . S
C2348 C2349 1.377 . S
C2348 C2350 1.384 . S
C2349 C2348 1.377 . S
C2349 C2355 1.390 . S
C2350 H2341 0.930 . S
C2350 C2348 1.384 . S
C2350 C2351 1.372 . S
C2351 C2350 1.372 . S
C2351 C2352 1.400 . S
C2351 C2356 1.490 . S
C2352 H2342 0.930 . S
C2352 C2351 1.400 . S
C2352 C2355 1.386 . S
H2353 C2369 0.930 . S
H2354 C2370 0.931 . S
C2355 H2343 0.929 . S
C2355 C2349 1.390 . S
C2355 C2352 1.386 . S
C2356 C2351 1.490 . S
C2356 C2358 1.395 . S
C2356 C2359 1.403 . S
H2357 C2363 0.930 . S
C2358 H2344 0.930 . S
C2358 C2356 1.395 . S
C2358 C2361 1.403 . S
C2359 C2356 1.403 . S
C2359 C2360 1.524 . S
C2359 C2363 1.400 . S
C2360 H2345 0.960 . S
C2360 H2346 0.960 . S
C2360 H2347 0.960 . S
C2360 C2359 1.524 . S
C2361 C2358 1.403 . S
C2361 C2362 1.392 . S
C2361 C2365 1.495 . S
C2362 C2361 1.392 . S
C2362 C2363 1.385 . S
C2362 C2364 1.478 . S
C2363 H2357 0.930 . S
C2363 C2359 1.400 . S
C2363 C2362 1.385 . S
C2364 C2362 1.478 . S
C2364 C2366 1.381 . S
C2364 C2370 1.383 . S
C2365 C2361 1.495 . S
C2365 H2371 0.959 . S
C2365 H2372 0.961 . S
C2365 H2373 0.960 . S
C2366 C2364 1.381 . S
C2366 C2367 1.394 . S
C2366 H2374 0.930 . S
C2367 C2366 1.394 . S
C2367 C2368 1.383 . S
C2367 H2375 0.929 . S
C2368 C2367 1.383 . S
C2368 C2369 1.377 . S
C2369 H2353 0.930 . S
C2369 C2368 1.377 . S
C2369 C2370 1.379 . S
C2370 H2354 0.931 . S
C2370 C2364 1.383 . S
C2370 C2369 1.379 . S
H2371 C2365 0.959 . S
H2372 C2365 0.961 . S
H2373 C2365 0.960 . S
H2374 C2366 0.930 . S
H2375 C2367 0.929 . S
H2376 C2384 0.929 . S
H2377 C2386 0.930 . S
H2378 C2388 0.930 . S
H2379 C2391 0.929 . S
H2380 C2394 0.930 . S
H2381 C2396 0.960 . S
H2382 C2396 0.960 . S
H2383 C2396 0.960 . S
C2384 H2376 0.929 . S
C2384 C2385 1.377 . S
C2384 C2386 1.384 . S
C2385 C2384 1.377 . S
C2385 C2391 1.390 . S
C2386 H2377 0.930 . S
C2386 C2384 1.384 . S
C2386 C2387 1.372 . S
C2387 C2386 1.372 . S
C2387 C2388 1.400 . S
C2387 C2392 1.490 . S
C2388 H2378 0.930 . S
C2388 C2387 1.400 . S
C2388 C2391 1.386 . S
H2389 C2405 0.930 . S
H2390 C2406 0.931 . S
C2391 H2379 0.929 . S
C2391 C2385 1.390 . S
C2391 C2388 1.386 . S
C2392 C2387 1.490 . S
C2392 C2394 1.395 . S
C2392 C2395 1.403 . S
H2393 C2399 0.930 . S
C2394 H2380 0.930 . S
C2394 C2392 1.395 . S
C2394 C2397 1.403 . S
C2395 C2392 1.403 . S
C2395 C2396 1.524 . S
C2395 C2399 1.400 . S
C2396 H2381 0.960 . S
C2396 H2382 0.960 . S
C2396 H2383 0.960 . S
C2396 C2395 1.524 . S
C2397 C2394 1.403 . S
C2397 C2398 1.392 . S
C2397 C2401 1.495 . S
C2398 C2397 1.392 . S
C2398 C2399 1.385 . S
C2398 C2400 1.478 . S
C2399 H2393 0.930 . S
C2399 C2395 1.400 . S
C2399 C2398 1.385 . S
C2400 C2398 1.478 . S
C2400 C2402 1.381 . S
C2400 C2406 1.383 . S
C2401 C2397 1.495 . S
C2401 H2407 0.959 . S
C2401 H2408 0.961 . S
C2401 H2409 0.960 . S
C2402 C2400 1.381 . S
C2402 C2403 1.394 . S
C2402 H2410 0.930 . S
C2403 C2402 1.394 . S
C2403 C2404 1.383 . S
C2403 H2411 0.929 . S
C2404 C2403 1.383 . S
C2404 C2405 1.377 . S
C2405 H2389 0.930 . S
C2405 C2404 1.377 . S
C2405 C2406 1.379 . S
C2406 H2390 0.931 . S
C2406 C2400 1.383 . S
C2406 C2405 1.379 . S
H2407 C2401 0.959 . S
H2408 C2401 0.961 . S
H2409 C2401 0.960 . S
H2410 C2402 0.930 . S
H2411 C2403 0.929 . S
H2412 C2420 0.929 . S
H2413 C2422 0.930 . S
H2414 C2424 0.930 . S
H2415 C2427 0.929 . S
H2416 C2430 0.930 . S
H2417 C2432 0.960 . S
H2418 C2432 0.960 . S
H2419 C2432 0.960 . S
C2420 H2412 0.929 . S
C2420 C2421 1.377 . S
C2420 C2422 1.384 . S
C2421 C2420 1.377 . S
C2421 C2427 1.390 . S
C2422 H2413 0.930 . S
C2422 C2420 1.384 . S
C2422 C2423 1.372 . S
C2423 C2422 1.372 . S
C2423 C2424 1.400 . S
C2423 C2428 1.490 . S
C2424 H2414 0.930 . S
C2424 C2423 1.400 . S
C2424 C2427 1.386 . S
H2425 C2441 0.930 . S
H2426 C2442 0.931 . S
C2427 H2415 0.929 . S
C2427 C2421 1.390 . S
C2427 C2424 1.386 . S
C2428 C2423 1.490 . S
C2428 C2430 1.395 . S
C2428 C2431 1.403 . S
H2429 C2435 0.930 . S
C2430 H2416 0.930 . S
C2430 C2428 1.395 . S
C2430 C2433 1.403 . S
C2431 C2428 1.403 . S
C2431 C2432 1.524 . S
C2431 C2435 1.400 . S
C2432 H2417 0.960 . S
C2432 H2418 0.960 . S
C2432 H2419 0.960 . S
C2432 C2431 1.524 . S
C2433 C2430 1.403 . S
C2433 C2434 1.392 . S
C2433 C2437 1.495 . S
C2434 C2433 1.392 . S
C2434 C2435 1.385 . S
C2434 C2436 1.478 . S
C2435 H2429 0.930 . S
C2435 C2431 1.400 . S
C2435 C2434 1.385 . S
C2436 C2434 1.478 . S
C2436 C2438 1.381 . S
C2436 C2442 1.383 . S
C2437 C2433 1.495 . S
C2437 H2443 0.959 . S
C2437 H2444 0.961 . S
C2437 H2445 0.960 . S
C2438 C2436 1.381 . S
C2438 C2439 1.394 . S
C2438 H2446 0.930 . S
C2439 C2438 1.394 . S
C2439 C2440 1.383 . S
C2439 H2447 0.929 . S
C2440 C2439 1.383 . S
C2440 C2441 1.377 . S
C2441 H2425 0.930 . S
C2441 C2440 1.377 . S
C2441 C2442 1.379 . S
C2442 H2426 0.931 . S
C2442 C2436 1.383 . S
C2442 C2441 1.379 . S
H2443 C2437 0.959 . S
H2444 C2437 0.961 . S
H2445 C2437 0.960 . S
H2446 C2438 0.930 . S
H2447 C2439 0.929 . S
H2448 C2456 0.929 . S
H2449 C2458 0.930 . S
H2450 C2460 0.930 . S
H2451 C2463 0.929 . S
H2452 C2466 0.930 . S
H2453 C2468 0.960 . S
H2454 C2468 0.960 . S
H2455 C2468 0.960 . S
C2456 H2448 0.929 . S
C2456 C2457 1.377 . S
C2456 C2458 1.384 . S
C2457 C2456 1.377 . S
C2457 C2463 1.390 . S
C2458 H2449 0.930 . S
C2458 C2456 1.384 . S
C2458 C2459 1.372 . S
C2459 C2458 1.372 . S
C2459 C2460 1.400 . S
C2459 C2464 1.490 . S
C2460 H2450 0.930 . S
C2460 C2459 1.400 . S
C2460 C2463 1.386 . S
H2461 C2477 0.930 . S
H2462 C2478 0.931 . S
C2463 H2451 0.929 . S
C2463 C2457 1.390 . S
C2463 C2460 1.386 . S
C2464 C2459 1.490 . S
C2464 C2466 1.395 . S
C2464 C2467 1.403 . S
H2465 C2471 0.930 . S
C2466 H2452 0.930 . S
C2466 C2464 1.395 . S
C2466 C2469 1.403 . S
C2467 C2464 1.403 . S
C2467 C2468 1.524 . S
C2467 C2471 1.400 . S
C2468 H2453 0.960 . S
C2468 H2454 0.960 . S
C2468 H2455 0.960 . S
C2468 C2467 1.524 . S
C2469 C2466 1.403 . S
C2469 C2470 1.392 . S
C2469 C2473 1.495 . S
C2470 C2469 1.392 . S
C2470 C2471 1.385 . S
C2470 C2472 1.478 . S
C2471 H2465 0.930 . S
C2471 C2467 1.400 . S
C2471 C2470 1.385 . S
C2472 C2470 1.478 . S
C2472 C2474 1.381 . S
C2472 C2478 1.383 . S
C2473 C2469 1.495 . S
C2473 H2479 0.959 . S
C2473 H2480 0.961 . S
C2473 H2481 0.960 . S
C2474 C2472 1.381 . S
C2474 C2475 1.394 . S
C2474 H2482 0.930 . S
C2475 C2474 1.394 . S
C2475 C2476 1.383 . S
C2475 H2483 0.929 . S
C2476 C2475 1.383 . S
C2476 C2477 1.377 . S
C2477 H2461 0.930 . S
C2477 C2476 1.377 . S
C2477 C2478 1.379 . S
C2478 H2462 0.931 . S
C2478 C2472 1.383 . S
C2478 C2477 1.379 . S
H2479 C2473 0.959 . S
H2480 C2473 0.961 . S
H2481 C2473 0.960 . S
H2482 C2474 0.930 . S
H2483 C2475 0.929 . S
H2484 C2492 0.929 . S
H2485 C2494 0.930 . S
H2486 C2496 0.930 . S
H2487 C2499 0.929 . S
H2488 C2502 0.930 . S
H2489 C2504 0.960 . S
H2490 C2504 0.960 . S
H2491 C2504 0.960 . S
C2492 H2484 0.929 . S
C2492 C2493 1.377 . S
C2492 C2494 1.384 . S
C2493 C2492 1.377 . S
C2493 C2499 1.390 . S
C2494 H2485 0.930 . S
C2494 C2492 1.384 . S
C2494 C2495 1.372 . S
C2495 C2494 1.372 . S
C2495 C2496 1.400 . S
C2495 C2500 1.490 . S
C2496 H2486 0.930 . S
C2496 C2495 1.400 . S
C2496 C2499 1.386 . S
H2497 C2513 0.930 . S
H2498 C2514 0.931 . S
C2499 H2487 0.929 . S
C2499 C2493 1.390 . S
C2499 C2496 1.386 . S
C2500 C2495 1.490 . S
C2500 C2502 1.395 . S
C2500 C2503 1.403 . S
H2501 C2507 0.930 . S
C2502 H2488 0.930 . S
C2502 C2500 1.395 . S
C2502 C2505 1.403 . S
C2503 C2500 1.403 . S
C2503 C2504 1.524 . S
C2503 C2507 1.400 . S
C2504 H2489 0.960 . S
C2504 H2490 0.960 . S
C2504 H2491 0.960 . S
C2504 C2503 1.524 . S
C2505 C2502 1.403 . S
C2505 C2506 1.392 . S
C2505 C2509 1.495 . S
C2506 C2505 1.392 . S
C2506 C2507 1.385 . S
C2506 C2508 1.478 . S
C2507 H2501 0.930 . S
C2507 C2503 1.400 . S
C2507 C2506 1.385 . S
C2508 C2506 1.478 . S
C2508 C2510 1.381 . S
C2508 C2514 1.383 . S
C2509 C2505 1.495 . S
C2509 H2515 0.959 . S
C2509 H2516 0.961 . S
C2509 H2517 0.960 . S
C2510 C2508 1.381 . S
C2510 C2511 1.394 . S
C2510 H2518 0.930 . S
C2511 C2510 1.394 . S
C2511 C2512 1.383 . S
C2511 H2519 0.929 . S
C2512 C2511 1.383 . S
C2512 C2513 1.377 . S
C2513 H2497 0.930 . S
C2513 C2512 1.377 . S
C2513 C2514 1.379 . S
C2514 H2498 0.931 . S
C2514 C2508 1.383 . S
C2514 C2513 1.379 . S
H2515 C2509 0.959 . S
H2516 C2509 0.961 . S
H2517 C2509 0.960 . S
H2518 C2510 0.930 . S
H2519 C2511 0.929 . S
H2520 C2528 0.929 . S
H2521 C2530 0.930 . S
H2522 C2532 0.930 . S
H2523 C2535 0.929 . S
H2524 C2538 0.930 . S
H2525 C2540 0.960 . S
H2526 C2540 0.960 . S
H2527 C2540 0.960 . S
C2528 H2520 0.929 . S
C2528 C2529 1.377 . S
C2528 C2530 1.384 . S
C2529 C2528 1.377 . S
C2529 C2535 1.390 . S
C2530 H2521 0.930 . S
C2530 C2528 1.384 . S
C2530 C2531 1.372 . S
C2531 C2530 1.372 . S
C2531 C2532 1.400 . S
C2531 C2536 1.490 . S
C2532 H2522 0.930 . S
C2532 C2531 1.400 . S
C2532 C2535 1.386 . S
H2533 C2549 0.930 . S
H2534 C2550 0.931 . S
C2535 H2523 0.929 . S
C2535 C2529 1.390 . S
C2535 C2532 1.386 . S
C2536 C2531 1.490 . S
C2536 C2538 1.395 . S
C2536 C2539 1.403 . S
H2537 C2543 0.930 . S
C2538 H2524 0.930 . S
C2538 C2536 1.395 . S
C2538 C2541 1.403 . S
C2539 C2536 1.403 . S
C2539 C2540 1.524 . S
C2539 C2543 1.400 . S
C2540 H2525 0.960 . S
C2540 H2526 0.960 . S
C2540 H2527 0.960 . S
C2540 C2539 1.524 . S
C2541 C2538 1.403 . S
C2541 C2542 1.392 . S
C2541 C2545 1.495 . S
C2542 C2541 1.392 . S
C2542 C2543 1.385 . S
C2542 C2544 1.478 . S
C2543 H2537 0.930 . S
C2543 C2539 1.400 . S
C2543 C2542 1.385 . S
C2544 C2542 1.478 . S
C2544 C2546 1.381 . S
C2544 C2550 1.383 . S
C2545 C2541 1.495 . S
C2545 H2551 0.959 . S
C2545 H2552 0.961 . S
C2545 H2553 0.960 . S
C2546 C2544 1.381 . S
C2546 C2547 1.394 . S
C2546 H2554 0.930 . S
C2547 C2546 1.394 . S
C2547 C2548 1.383 . S
C2547 H2555 0.929 . S
C2548 C2547 1.383 . S
C2548 C2549 1.377 . S
C2549 H2533 0.930 . S
C2549 C2548 1.377 . S
C2549 C2550 1.379 . S
C2550 H2534 0.931 . S
C2550 C2544 1.383 . S
C2550 C2549 1.379 . S
H2551 C2545 0.959 . S
H2552 C2545 0.961 . S
H2553 C2545 0.960 . S
H2554 C2546 0.930 . S
H2555 C2547 0.929 . S
H2556 C2564 0.929 . S
H2557 C2566 0.930 . S
H2558 C2568 0.930 . S
H2559 C2571 0.929 . S
H2560 C2574 0.930 . S
H2561 C2576 0.960 . S
H2562 C2576 0.960 . S
H2563 C2576 0.960 . S
C2564 H2556 0.929 . S
C2564 C2565 1.377 . S
C2564 C2566 1.384 . S
C2565 C2564 1.377 . S
C2565 C2571 1.390 . S
C2566 H2557 0.930 . S
C2566 C2564 1.384 . S
C2566 C2567 1.372 . S
C2567 C2566 1.372 . S
C2567 C2568 1.400 . S
C2567 C2572 1.490 . S
C2568 H2558 0.930 . S
C2568 C2567 1.400 . S
C2568 C2571 1.386 . S
H2569 C2585 0.930 . S
H2570 C2586 0.931 . S
C2571 H2559 0.929 . S
C2571 C2565 1.390 . S
C2571 C2568 1.386 . S
C2572 C2567 1.490 . S
C2572 C2574 1.395 . S
C2572 C2575 1.403 . S
H2573 C2579 0.930 . S
C2574 H2560 0.930 . S
C2574 C2572 1.395 . S
C2574 C2577 1.403 . S
C2575 C2572 1.403 . S
C2575 C2576 1.524 . S
C2575 C2579 1.400 . S
C2576 H2561 0.960 . S
C2576 H2562 0.960 . S
C2576 H2563 0.960 . S
C2576 C2575 1.524 . S
C2577 C2574 1.403 . S
C2577 C2578 1.392 . S
C2577 C2581 1.495 . S
C2578 C2577 1.392 . S
C2578 C2579 1.385 . S
C2578 C2580 1.478 . S
C2579 H2573 0.930 . S
C2579 C2575 1.400 . S
C2579 C2578 1.385 . S
C2580 C2578 1.478 . S
C2580 C2582 1.381 . S
C2580 C2586 1.383 . S
C2581 C2577 1.495 . S
C2581 H2587 0.959 . S
C2581 H2588 0.961 . S
C2581 H2589 0.960 . S
C2582 C2580 1.381 . S
C2582 C2583 1.394 . S
C2582 H2590 0.930 . S
C2583 C2582 1.394 . S
C2583 C2584 1.383 . S
C2583 H2591 0.929 . S
C2584 C2583 1.383 . S
C2584 C2585 1.377 . S
C2585 H2569 0.930 . S
C2585 C2584 1.377 . S
C2585 C2586 1.379 . S
C2586 H2570 0.931 . S
C2586 C2580 1.383 . S
C2586 C2585 1.379 . S
H2587 C2581 0.959 . S
H2588 C2581 0.961 . S
H2589 C2581 0.960 . S
H2590 C2582 0.930 . S
H2591 C2583 0.929 . S
H2592 C2600 0.929 . S
H2593 C2602 0.930 . S
H2594 C2604 0.930 . S
H2595 C2607 0.929 . S
H2596 C2610 0.930 . S
H2597 C2612 0.960 . S
H2598 C2612 0.960 . S
H2599 C2612 0.960 . S
C2600 H2592 0.929 . S
C2600 C2601 1.377 . S
C2600 C2602 1.384 . S
C2601 C2600 1.377 . S
C2601 C2607 1.390 . S
C2602 H2593 0.930 . S
C2602 C2600 1.384 . S
C2602 C2603 1.372 . S
C2603 C2602 1.372 . S
C2603 C2604 1.400 . S
C2603 C2608 1.490 . S
C2604 H2594 0.930 . S
C2604 C2603 1.400 . S
C2604 C2607 1.386 . S
H2605 C2621 0.930 . S
H2606 C2622 0.931 . S
C2607 H2595 0.929 . S
C2607 C2601 1.390 . S
C2607 C2604 1.386 . S
C2608 C2603 1.490 . S
C2608 C2610 1.395 . S
C2608 C2611 1.403 . S
H2609 C2615 0.930 . S
C2610 H2596 0.930 . S
C2610 C2608 1.395 . S
C2610 C2613 1.403 . S
C2611 C2608 1.403 . S
C2611 C2612 1.524 . S
C2611 C2615 1.400 . S
C2612 H2597 0.960 . S
C2612 H2598 0.960 . S
C2612 H2599 0.960 . S
C2612 C2611 1.524 . S
C2613 C2610 1.403 . S
C2613 C2614 1.392 . S
C2613 C2617 1.495 . S
C2614 C2613 1.392 . S
C2614 C2615 1.385 . S
C2614 C2616 1.478 . S
C2615 H2609 0.930 . S
C2615 C2611 1.400 . S
C2615 C2614 1.385 . S
C2616 C2614 1.478 . S
C2616 C2618 1.381 . S
C2616 C2622 1.383 . S
C2617 C2613 1.495 . S
C2617 H2623 0.959 . S
C2617 H2624 0.961 . S
C2617 H2625 0.960 . S
C2618 C2616 1.381 . S
C2618 C2619 1.394 . S
C2618 H2626 0.930 . S
C2619 C2618 1.394 . S
C2619 C2620 1.383 . S
C2619 H2627 0.929 . S
C2620 C2619 1.383 . S
C2620 C2621 1.377 . S
C2621 H2605 0.930 . S
C2621 C2620 1.377 . S
C2621 C2622 1.379 . S
C2622 H2606 0.931 . S
C2622 C2616 1.383 . S
C2622 C2621 1.379 . S
H2623 C2617 0.959 . S
H2624 C2617 0.961 . S
H2625 C2617 0.960 . S
H2626 C2618 0.930 . S
H2627 C2619 0.929 . S
H2628 C2636 0.929 . S
H2629 C2638 0.930 . S
H2630 C2640 0.930 . S
H2631 C2643 0.929 . S
H2632 C2646 0.930 . S
H2633 C2648 0.960 . S
H2634 C2648 0.960 . S
H2635 C2648 0.960 . S
C2636 H2628 0.929 . S
C2636 C2637 1.377 . S
C2636 C2638 1.384 . S
C2637 C2636 1.377 . S
C2637 C2643 1.390 . S
C2638 H2629 0.930 . S
C2638 C2636 1.384 . S
C2638 C2639 1.372 . S
C2639 C2638 1.372 . S
C2639 C2640 1.400 . S
C2639 C2644 1.490 . S
C2640 H2630 0.930 . S
C2640 C2639 1.400 . S
C2640 C2643 1.386 . S
H2641 C2657 0.930 . S
H2642 C2658 0.931 . S
C2643 H2631 0.929 . S
C2643 C2637 1.390 . S
C2643 C2640 1.386 . S
C2644 C2639 1.490 . S
C2644 C2646 1.395 . S
C2644 C2647 1.403 . S
H2645 C2651 0.930 . S
C2646 H2632 0.930 . S
C2646 C2644 1.395 . S
C2646 C2649 1.403 . S
C2647 C2644 1.403 . S
C2647 C2648 1.524 . S
C2647 C2651 1.400 . S
C2648 H2633 0.960 . S
C2648 H2634 0.960 . S
C2648 H2635 0.960 . S
C2648 C2647 1.524 . S
C2649 C2646 1.403 . S
C2649 C2650 1.392 . S
C2649 C2653 1.495 . S
C2650 C2649 1.392 . S
C2650 C2651 1.385 . S
C2650 C2652 1.478 . S
C2651 H2645 0.930 . S
C2651 C2647 1.400 . S
C2651 C2650 1.385 . S
C2652 C2650 1.478 . S
C2652 C2654 1.381 . S
C2652 C2658 1.383 . S
C2653 C2649 1.495 . S
C2653 H2659 0.959 . S
C2653 H2660 0.961 . S
C2653 H2661 0.960 . S
C2654 C2652 1.381 . S
C2654 C2655 1.394 . S
C2654 H2662 0.930 . S
C2655 C2654 1.394 . S
C2655 C2656 1.383 . S
C2655 H2663 0.929 . S
C2656 C2655 1.383 . S
C2656 C2657 1.377 . S
C2657 H2641 0.930 . S
C2657 C2656 1.377 . S
C2657 C2658 1.379 . S
C2658 H2642 0.931 . S
C2658 C2652 1.383 . S
C2658 C2657 1.379 . S
H2659 C2653 0.959 . S
H2660 C2653 0.961 . S
H2661 C2653 0.960 . S
H2662 C2654 0.930 . S
H2663 C2655 0.929 . S
H2664 C2672 0.929 . S
H2665 C2674 0.930 . S
H2666 C2676 0.930 . S
H2667 C2679 0.929 . S
H2668 C2682 0.930 . S
H2669 C2684 0.960 . S
H2670 C2684 0.960 . S
H2671 C2684 0.960 . S
C2672 H2664 0.929 . S
C2672 C2673 1.377 . S
C2672 C2674 1.384 . S
C2673 C2672 1.377 . S
C2673 C2679 1.390 . S
C2674 H2665 0.930 . S
C2674 C2672 1.384 . S
C2674 C2675 1.372 . S
C2675 C2674 1.372 . S
C2675 C2676 1.400 . S
C2675 C2680 1.490 . S
C2676 H2666 0.930 . S
C2676 C2675 1.400 . S
C2676 C2679 1.386 . S
H2677 C2693 0.930 . S
H2678 C2694 0.931 . S
C2679 H2667 0.929 . S
C2679 C2673 1.390 . S
C2679 C2676 1.386 . S
C2680 C2675 1.490 . S
C2680 C2682 1.395 . S
C2680 C2683 1.403 . S
H2681 C2687 0.930 . S
C2682 H2668 0.930 . S
C2682 C2680 1.395 . S
C2682 C2685 1.403 . S
C2683 C2680 1.403 . S
C2683 C2684 1.524 . S
C2683 C2687 1.400 . S
C2684 H2669 0.960 . S
C2684 H2670 0.960 . S
C2684 H2671 0.960 . S
C2684 C2683 1.524 . S
C2685 C2682 1.403 . S
C2685 C2686 1.392 . S
C2685 C2689 1.495 . S
C2686 C2685 1.392 . S
C2686 C2687 1.385 . S
C2686 C2688 1.478 . S
C2687 H2681 0.930 . S
C2687 C2683 1.400 . S
C2687 C2686 1.385 . S
C2688 C2686 1.478 . S
C2688 C2690 1.381 . S
C2688 C2694 1.383 . S
C2689 C2685 1.495 . S
C2689 H2695 0.959 . S
C2689 H2696 0.961 . S
C2689 H2697 0.960 . S
C2690 C2688 1.381 . S
C2690 C2691 1.394 . S
C2690 H2698 0.930 . S
C2691 C2690 1.394 . S
C2691 C2692 1.383 . S
C2691 H2699 0.929 . S
C2692 C2691 1.383 . S
C2692 C2693 1.377 . S
C2693 H2677 0.930 . S
C2693 C2692 1.377 . S
C2693 C2694 1.379 . S
C2694 H2678 0.931 . S
C2694 C2688 1.383 . S
C2694 C2693 1.379 . S
H2695 C2689 0.959 . S
H2696 C2689 0.961 . S
H2697 C2689 0.960 . S
H2698 C2690 0.930 . S
H2699 C2691 0.929 . S
H2700 C2708 0.929 . S
H2701 C2710 0.930 . S
H2702 C2712 0.930 . S
H2703 C2715 0.929 . S
H2704 C2718 0.930 . S
H2705 C2720 0.960 . S
H2706 C2720 0.960 . S
H2707 C2720 0.960 . S
C2708 H2700 0.929 . S
C2708 C2709 1.377 . S
C2708 C2710 1.384 . S
C2709 C2708 1.377 . S
C2709 C2715 1.390 . S
C2710 H2701 0.930 . S
C2710 C2708 1.384 . S
C2710 C2711 1.372 . S
C2711 C2710 1.372 . S
C2711 C2712 1.400 . S
C2711 C2716 1.490 . S
C2712 H2702 0.930 . S
C2712 C2711 1.400 . S
C2712 C2715 1.386 . S
H2713 C2729 0.930 . S
H2714 C2730 0.931 . S
C2715 H2703 0.929 . S
C2715 C2709 1.390 . S
C2715 C2712 1.386 . S
C2716 C2711 1.490 . S
C2716 C2718 1.395 . S
C2716 C2719 1.403 . S
H2717 C2723 0.930 . S
C2718 H2704 0.930 . S
C2718 C2716 1.395 . S
C2718 C2721 1.403 . S
C2719 C2716 1.403 . S
C2719 C2720 1.524 . S
C2719 C2723 1.400 . S
C2720 H2705 0.960 . S
C2720 H2706 0.960 . S
C2720 H2707 0.960 . S
C2720 C2719 1.524 . S
C2721 C2718 1.403 . S
C2721 C2722 1.392 . S
C2721 C2725 1.495 . S
C2722 C2721 1.392 . S
C2722 C2723 1.385 . S
C2722 C2724 1.478 . S
C2723 H2717 0.930 . S
C2723 C2719 1.400 . S
C2723 C2722 1.385 . S
C2724 C2722 1.478 . S
C2724 C2726 1.381 . S
C2724 C2730 1.383 . S
C2725 C2721 1.495 . S
C2725 H2731 0.959 . S
C2725 H2732 0.961 . S
C2725 H2733 0.960 . S
C2726 C2724 1.381 . S
C2726 C2727 1.394 . S
C2726 H2734 0.930 . S
C2727 C2726 1.394 . S
C2727 C2728 1.383 . S
C2727 H2735 0.929 . S
C2728 C2727 1.383 . S
C2728 C2729 1.377 . S
C2729 H2713 0.930 . S
C2729 C2728 1.377 . S
C2729 C2730 1.379 . S
C2730 H2714 0.931 . S
C2730 C2724 1.383 . S
C2730 C2729 1.379 . S
H2731 C2725 0.959 . S
H2732 C2725 0.961 . S
H2733 C2725 0.960 . S
H2734 C2726 0.930 . S
H2735 C2727 0.929 . S
H2736 C2744 0.929 . S
H2737 C2746 0.930 . S
H2738 C2748 0.930 . S
H2739 C2751 0.929 . S
H2740 C2754 0.930 . S
H2741 C2756 0.960 . S
H2742 C2756 0.960 . S
H2743 C2756 0.960 . S
C2744 H2736 0.929 . S
C2744 C2745 1.377 . S
C2744 C2746 1.384 . S
C2745 C2744 1.377 . S
C2745 C2751 1.390 . S
C2746 H2737 0.930 . S
C2746 C2744 1.384 . S
C2746 C2747 1.372 . S
C2747 C2746 1.372 . S
C2747 C2748 1.400 . S
C2747 C2752 1.490 . S
C2748 H2738 0.930 . S
C2748 C2747 1.400 . S
C2748 C2751 1.386 . S
H2749 C2765 0.930 . S
H2750 C2766 0.931 . S
C2751 H2739 0.929 . S
C2751 C2745 1.390 . S
C2751 C2748 1.386 . S
C2752 C2747 1.490 . S
C2752 C2754 1.395 . S
C2752 C2755 1.403 . S
H2753 C2759 0.930 . S
C2754 H2740 0.930 . S
C2754 C2752 1.395 . S
C2754 C2757 1.403 . S
C2755 C2752 1.403 . S
C2755 C2756 1.524 . S
C2755 C2759 1.400 . S
C2756 H2741 0.960 . S
C2756 H2742 0.960 . S
C2756 H2743 0.960 . S
C2756 C2755 1.524 . S
C2757 C2754 1.403 . S
C2757 C2758 1.392 . S
C2757 C2761 1.495 . S
C2758 C2757 1.392 . S
C2758 C2759 1.385 . S
C2758 C2760 1.478 . S
C2759 H2753 0.930 . S
C2759 C2755 1.400 . S
C2759 C2758 1.385 . S
C2760 C2758 1.478 . S
C2760 C2762 1.381 . S
C2760 C2766 1.383 . S
C2761 C2757 1.495 . S
C2761 H2767 0.959 . S
C2761 H2768 0.961 . S
C2761 H2769 0.960 . S
C2762 C2760 1.381 . S
C2762 C2763 1.394 . S
C2762 H2770 0.930 . S
C2763 C2762 1.394 . S
C2763 C2764 1.383 . S
C2763 H2771 0.929 . S
C2764 C2763 1.383 . S
C2764 C2765 1.377 . S
C2765 H2749 0.930 . S
C2765 C2764 1.377 . S
C2765 C2766 1.379 . S
C2766 H2750 0.931 . S
C2766 C2760 1.383 . S
C2766 C2765 1.379 . S
H2767 C2761 0.959 . S
H2768 C2761 0.961 . S
H2769 C2761 0.960 . S
H2770 C2762 0.930 . S
H2771 C2763 0.929 . S
H2772 C2780 0.929 . S
H2773 C2782 0.930 . S
H2774 C2784 0.930 . S
H2775 C2787 0.929 . S
H2776 C2790 0.930 . S
H2777 C2792 0.960 . S
H2778 C2792 0.960 . S
H2779 C2792 0.960 . S
C2780 H2772 0.929 . S
C2780 C2781 1.377 . S
C2780 C2782 1.384 . S
C2781 C2780 1.377 . S
C2781 C2787 1.390 . S
C2782 H2773 0.930 . S
C2782 C2780 1.384 . S
C2782 C2783 1.372 . S
C2783 C2782 1.372 . S
C2783 C2784 1.400 . S
C2783 C2788 1.490 . S
C2784 H2774 0.930 . S
C2784 C2783 1.400 . S
C2784 C2787 1.386 . S
H2785 C2801 0.930 . S
H2786 C2802 0.931 . S
C2787 H2775 0.929 . S
C2787 C2781 1.390 . S
C2787 C2784 1.386 . S
C2788 C2783 1.490 . S
C2788 C2790 1.395 . S
C2788 C2791 1.403 . S
H2789 C2795 0.930 . S
C2790 H2776 0.930 . S
C2790 C2788 1.395 . S
C2790 C2793 1.403 . S
C2791 C2788 1.403 . S
C2791 C2792 1.524 . S
C2791 C2795 1.400 . S
C2792 H2777 0.960 . S
C2792 H2778 0.960 . S
C2792 H2779 0.960 . S
C2792 C2791 1.524 . S
C2793 C2790 1.403 . S
C2793 C2794 1.392 . S
C2793 C2797 1.495 . S
C2794 C2793 1.392 . S
C2794 C2795 1.385 . S
C2794 C2796 1.478 . S
C2795 H2789 0.930 . S
C2795 C2791 1.400 . S
C2795 C2794 1.385 . S
C2796 C2794 1.478 . S
C2796 C2798 1.381 . S
C2796 C2802 1.383 . S
C2797 C2793 1.495 . S
C2797 H2803 0.959 . S
C2797 H2804 0.961 . S
C2797 H2805 0.960 . S
C2798 C2796 1.381 . S
C2798 C2799 1.394 . S
C2798 H2806 0.930 . S
C2799 C2798 1.394 . S
C2799 C2800 1.383 . S
C2799 H2807 0.929 . S
C2800 C2799 1.383 . S
C2800 C2801 1.377 . S
C2801 H2785 0.930 . S
C2801 C2800 1.377 . S
C2801 C2802 1.379 . S
C2802 H2786 0.931 . S
C2802 C2796 1.383 . S
C2802 C2801 1.379 . S
H2803 C2797 0.959 . S
H2804 C2797 0.961 . S
H2805 C2797 0.960 . S
H2806 C2798 0.930 . S
H2807 C2799 0.929 . S
H2808 C2816 0.929 . S
H2809 C2818 0.930 . S
H2810 C2820 0.930 . S
H2811 C2823 0.929 . S
H2812 C2826 0.930 . S
H2813 C2828 0.960 . S
H2814 C2828 0.960 . S
H2815 C2828 0.960 . S
C2816 H2808 0.929 . S
C2816 C2817 1.377 . S
C2816 C2818 1.384 . S
C2817 C2816 1.377 . S
C2817 C2823 1.390 . S
C2818 H2809 0.930 . S
C2818 C2816 1.384 . S
C2818 C2819 1.372 . S
C2819 C2818 1.372 . S
C2819 C2820 1.400 . S
C2819 C2824 1.490 . S
C2820 H2810 0.930 . S
C2820 C2819 1.400 . S
C2820 C2823 1.386 . S
H2821 C2837 0.930 . S
H2822 C2838 0.931 . S
C2823 H2811 0.929 . S
C2823 C2817 1.390 . S
C2823 C2820 1.386 . S
C2824 C2819 1.490 . S
C2824 C2826 1.395 . S
C2824 C2827 1.403 . S
H2825 C2831 0.930 . S
C2826 H2812 0.930 . S
C2826 C2824 1.395 . S
C2826 C2829 1.403 . S
C2827 C2824 1.403 . S
C2827 C2828 1.524 . S
C2827 C2831 1.400 . S
C2828 H2813 0.960 . S
C2828 H2814 0.960 . S
C2828 H2815 0.960 . S
C2828 C2827 1.524 . S
C2829 C2826 1.403 . S
C2829 C2830 1.392 . S
C2829 C2833 1.495 . S
C2830 C2829 1.392 . S
C2830 C2831 1.385 . S
C2830 C2832 1.478 . S
C2831 H2825 0.930 . S
C2831 C2827 1.400 . S
C2831 C2830 1.385 . S
C2832 C2830 1.478 . S
C2832 C2834 1.381 . S
C2832 C2838 1.383 . S
C2833 C2829 1.495 . S
C2833 H2839 0.959 . S
C2833 H2840 0.961 . S
C2833 H2841 0.960 . S
C2834 C2832 1.381 . S
C2834 C2835 1.394 . S
C2834 H2842 0.930 . S
C2835 C2834 1.394 . S
C2835 C2836 1.383 . S
C2835 H2843 0.929 . S
C2836 C2835 1.383 . S
C2836 C2837 1.377 . S
C2837 H2821 0.930 . S
C2837 C2836 1.377 . S
C2837 C2838 1.379 . S
C2838 H2822 0.931 . S
C2838 C2832 1.383 . S
C2838 C2837 1.379 . S
H2839 C2833 0.959 . S
H2840 C2833 0.961 . S
H2841 C2833 0.960 . S
H2842 C2834 0.930 . S
H2843 C2835 0.929 . S
H2844 C2852 0.929 . S
H2845 C2854 0.930 . S
H2846 C2856 0.930 . S
H2847 C2859 0.929 . S
H2848 C2862 0.930 . S
H2849 C2864 0.960 . S
H2850 C2864 0.960 . S
H2851 C2864 0.960 . S
C2852 H2844 0.929 . S
C2852 C2853 1.377 . S
C2852 C2854 1.384 . S
C2853 C2852 1.377 . S
C2853 C2859 1.390 . S
C2854 H2845 0.930 . S
C2854 C2852 1.384 . S
C2854 C2855 1.372 . S
C2855 C2854 1.372 . S
C2855 C2856 1.400 . S
C2855 C2860 1.490 . S
C2856 H2846 0.930 . S
C2856 C2855 1.400 . S
C2856 C2859 1.386 . S
H2857 C2873 0.930 . S
H2858 C2874 0.931 . S
C2859 H2847 0.929 . S
C2859 C2853 1.390 . S
C2859 C2856 1.386 . S
C2860 C2855 1.490 . S
C2860 C2862 1.395 . S
C2860 C2863 1.403 . S
H2861 C2867 0.930 . S
C2862 H2848 0.930 . S
C2862 C2860 1.395 . S
C2862 C2865 1.403 . S
C2863 C2860 1.403 . S
C2863 C2864 1.524 . S
C2863 C2867 1.400 . S
C2864 H2849 0.960 . S
C2864 H2850 0.960 . S
C2864 H2851 0.960 . S
C2864 C2863 1.524 . S
C2865 C2862 1.403 . S
C2865 C2866 1.392 . S
C2865 C2869 1.495 . S
C2866 C2865 1.392 . S
C2866 C2867 1.385 . S
C2866 C2868 1.478 . S
C2867 H2861 0.930 . S
C2867 C2863 1.400 . S
C2867 C2866 1.385 . S
C2868 C2866 1.478 . S
C2868 C2870 1.381 . S
C2868 C2874 1.383 . S
C2869 C2865 1.495 . S
C2869 H2875 0.959 . S
C2869 H2876 0.961 . S
C2869 H2877 0.960 . S
C2870 C2868 1.381 . S
C2870 C2871 1.394 . S
C2870 H2878 0.930 . S
C2871 C2870 1.394 . S
C2871 C2872 1.383 . S
C2871 H2879 0.929 . S
C2872 C2871 1.383 . S
C2872 C2873 1.377 . S
C2873 H2857 0.930 . S
C2873 C2872 1.377 . S
C2873 C2874 1.379 . S
C2874 H2858 0.931 . S
C2874 C2868 1.383 . S
C2874 C2873 1.379 . S
H2875 C2869 0.959 . S
H2876 C2869 0.961 . S
H2877 C2869 0.960 . S
H2878 C2870 0.930 . S
H2879 C2871 0.929 . S
H2880 C2888 0.929 . S
H2881 C2890 0.930 . S
H2882 C2892 0.930 . S
H2883 C2895 0.929 . S
H2884 C2898 0.930 . S
H2885 C2900 0.960 . S
H2886 C2900 0.960 . S
H2887 C2900 0.960 . S
C2888 H2880 0.929 . S
C2888 C2889 1.377 . S
C2888 C2890 1.384 . S
C2889 C2888 1.377 . S
C2889 C2895 1.390 . S
C2890 H2881 0.930 . S
C2890 C2888 1.384 . S
C2890 C2891 1.372 . S
C2891 C2890 1.372 . S
C2891 C2892 1.400 . S
C2891 C2896 1.490 . S
C2892 H2882 0.930 . S
C2892 C2891 1.400 . S
C2892 C2895 1.386 . S
H2893 C2909 0.930 . S
H2894 C2910 0.931 . S
C2895 H2883 0.929 . S
C2895 C2889 1.390 . S
C2895 C2892 1.386 . S
C2896 C2891 1.490 . S
C2896 C2898 1.395 . S
C2896 C2899 1.403 . S
H2897 C2903 0.930 . S
C2898 H2884 0.930 . S
C2898 C2896 1.395 . S
C2898 C2901 1.403 . S
C2899 C2896 1.403 . S
C2899 C2900 1.524 . S
C2899 C2903 1.400 . S
C2900 H2885 0.960 . S
C2900 H2886 0.960 . S
C2900 H2887 0.960 . S
C2900 C2899 1.524 . S
C2901 C2898 1.403 . S
C2901 C2902 1.392 . S
C2901 C2905 1.495 . S
C2902 C2901 1.392 . S
C2902 C2903 1.385 . S
C2902 C2904 1.478 . S
C2903 H2897 0.930 . S
C2903 C2899 1.400 . S
C2903 C2902 1.385 . S
C2904 C2902 1.478 . S
C2904 C2906 1.381 . S
C2904 C2910 1.383 . S
C2905 C2901 1.495 . S
C2905 H2911 0.959 . S
C2905 H2912 0.961 . S
C2905 H2913 0.960 . S
C2906 C2904 1.381 . S
C2906 C2907 1.394 . S
C2906 H2914 0.930 . S
C2907 C2906 1.394 . S
C2907 C2908 1.383 . S
C2907 H2915 0.929 . S
C2908 C2907 1.383 . S
C2908 C2909 1.377 . S
C2909 H2893 0.930 . S
C2909 C2908 1.377 . S
C2909 C2910 1.379 . S
C2910 H2894 0.931 . S
C2910 C2904 1.383 . S
C2910 C2909 1.379 . S
H2911 C2905 0.959 . S
H2912 C2905 0.961 . S
H2913 C2905 0.960 . S
H2914 C2906 0.930 . S
H2915 C2907 0.929 . S
H2916 C2924 0.929 . S
H2917 C2926 0.930 . S
H2918 C2928 0.930 . S
H2919 C2931 0.929 . S
H2920 C2934 0.930 . S
H2921 C2936 0.960 . S
H2922 C2936 0.960 . S
H2923 C2936 0.960 . S
C2924 H2916 0.929 . S
C2924 C2925 1.377 . S
C2924 C2926 1.384 . S
C2925 C2924 1.377 . S
C2925 C2931 1.390 . S
C2926 H2917 0.930 . S
C2926 C2924 1.384 . S
C2926 C2927 1.372 . S
C2927 C2926 1.372 . S
C2927 C2928 1.400 . S
C2927 C2932 1.490 . S
C2928 H2918 0.930 . S
C2928 C2927 1.400 . S
C2928 C2931 1.386 . S
H2929 C2945 0.930 . S
H2930 C2946 0.931 . S
C2931 H2919 0.929 . S
C2931 C2925 1.390 . S
C2931 C2928 1.386 . S
C2932 C2927 1.490 . S
C2932 C2934 1.395 . S
C2932 C2935 1.403 . S
H2933 C2939 0.930 . S
C2934 H2920 0.930 . S
C2934 C2932 1.395 . S
C2934 C2937 1.403 . S
C2935 C2932 1.403 . S
C2935 C2936 1.524 . S
C2935 C2939 1.400 . S
C2936 H2921 0.960 . S
C2936 H2922 0.960 . S
C2936 H2923 0.960 . S
C2936 C2935 1.524 . S
C2937 C2934 1.403 . S
C2937 C2938 1.392 . S
C2937 C2941 1.495 . S
C2938 C2937 1.392 . S
C2938 C2939 1.385 . S
C2938 C2940 1.478 . S
C2939 H2933 0.930 . S
C2939 C2935 1.400 . S
C2939 C2938 1.385 . S
C2940 C2938 1.478 . S
C2940 C2942 1.381 . S
C2940 C2946 1.383 . S
C2941 C2937 1.495 . S
C2941 H2947 0.959 . S
C2941 H2948 0.961 . S
C2941 H2949 0.960 . S
C2942 C2940 1.381 . S
C2942 C2943 1.394 . S
C2942 H2950 0.930 . S
C2943 C2942 1.394 . S
C2943 C2944 1.383 . S
C2943 H2951 0.929 . S
C2944 C2943 1.383 . S
C2944 C2945 1.377 . S
C2945 H2929 0.930 . S
C2945 C2944 1.377 . S
C2945 C2946 1.379 . S
C2946 H2930 0.931 . S
C2946 C2940 1.383 . S
C2946 C2945 1.379 . S
H2947 C2941 0.959 . S
H2948 C2941 0.961 . S
H2949 C2941 0.960 . S
H2950 C2942 0.930 . S
H2951 C2943 0.929 . S
C801 N101 1.216 . S
C820 C7 1.226 . S
C837 N2 1.218 . S
C856 C40 1.257 . S
C873 N35 1.219 . S
C892 C73 1.251 . S
C909 C106 1.243 . S
C928 N68 1.230 . S
C945 N167 1.220 . S
C964 C139 1.255 . S
C981 N200 1.220 . S
C1000 C172 1.225 . S
C1017 C205 1.248 . S
C1036 N233 1.206 . S
C1053 N134 1.226 . S
C1072 C238 1.233 . S
C1089 C271 1.247 . S
C1108 N596 1.198 . S
C1125 C304 1.243 . S
C1144 N629 1.227 . S
C1161 N662 1.215 . S
C1180 C337 1.231 . S
C1197 N563 1.227 . S
C1216 C370 1.256 . S
C1233 N728 1.215 . S
C1252 C403 1.227 . S
C1269 C436 1.251 . S
C1288 N530 1.233 . S
C1305 C469 1.249 . S
C1324 N761 1.249 . S
C1341 N695 1.227 . S
C1360 C502 1.238 . S
C1377 N299 1.221 . S
C1396 C535 1.257 . S
C1413 C568 1.246 . S
C1432 N497 1.195 . S
C1449 N398 1.227 . S
C1468 C601 1.242 . S
C1485 N431 1.228 . S
C1504 C634 1.256 . S
C1521 N464 1.221 . S
C1540 C667 1.225 . S
C1557 N365 1.215 . S
C1576 C700 1.232 . S
C1593 N266 1.228 . S
C1612 C733 1.248 . S
C1629 N332 1.220 . S
C1648 C766 1.261 . S
C1665 C219 1.921 . S
C1684 C21 1.920 . S
C1701 C54 1.921 . S
C1720 C252 1.913 . S
C1737 C153 1.920 . S
C1756 C87 1.914 . S
C1773 C186 1.921 . S
C1792 C120 1.915 . S
C1809 C351 1.921 . S
C1828 C285 1.919 . S
C1845 C318 1.921 . S
C1864 C384 1.917 . S
C1881 C417 1.920 . S
C1900 C483 1.916 . S
C1917 C516 1.921 . S
C1936 C450 1.919 . S
C1953 C549 1.921 . S
C1972 C582 1.920 . S
C1989 C615 1.921 . S
C2008 C780 1.919 . S
C2025 C648 1.921 . S
C2044 C714 1.919 . S
C2061 C747 1.921 . S
C2080 C681 1.916 . S
C2097 C18 0.996 . S
C2116 N277 1.003 . S
C2133 C51 1.003 . S
C2152 N310 0.999 . S
C2169 N343 1.006 . S
C2188 C84 0.978 . S
C2205 N376 1.007 . S
C2224 C117 1.003 . S
C2241 C150 1.002 . S
C2260 N409 1.012 . S
C2277 N442 1.008 . S
C2296 C183 1.016 . S
C2313 C216 1.000 . S
C2332 N475 1.010 . S
C2349 N508 1.007 . S
C2368 C249 1.010 . S
C2385 C282 0.996 . S
C2404 N541 0.999 . S
C2421 N772 1.009 . S
C2440 C315 0.977 . S
C2457 C348 0.996 . S
C2476 N706 0.999 . S
C2493 C381 1.003 . S
C2512 N739 1.005 . S
C2529 N574 1.008 . S
C2548 C414 0.987 . S
C2565 C447 0.998 . S
C2584 N607 1.005 . S
C2601 C480 0.998 . S
C2620 N640 1.000 . S
C2637 C513 0.995 . S
C2656 N673 1.012 . S
C2673 C546 1.001 . S
C2692 N13 1.003 . S
C2709 C579 0.996 . S
C2728 N145 0.999 . S
C2745 C612 1.005 . S
C2764 N178 1.001 . S
C2781 N211 1.009 . S
C2800 C645 0.998 . S
C2817 C678 0.996 . S
C2836 N244 1.014 . S
C2853 N79 1.009 . S
C2872 C711 0.997 . S
C2889 N112 1.009 . S
C2908 C744 0.992 . S
C2925 C777 1.004 . S
C2944 N46 1.003 . S
