# Generated by pormake.
# Topology lcs, (4)-cn, num edge types: 1
# Building blocks:
#     Node 0, Type 0, BuildingBlock: UXUYUI_clean_sbu_0, # of connection points: 4
#     Node 1, Type 0, BuildingBlock: UXUYUI_clean_sbu_0, # of connection points: 4
#     Node 2, Type 0, BuildingBlock: UXUYUI_clean_sbu_0, # of connection points: 4
#     Node 3, Type 0, BuildingBlock: UXUYUI_clean_sbu_0, # of connection points: 4
#     Node 4, Type 0, BuildingBlock: UXUYUI_clean_sbu_0, # of connection points: 4
#     Node 5, Type 0, BuildingBlock: UXUYUI_clean_sbu_0, # of connection points: 4
#     Node 6, Type 0, BuildingBlock: UXUYUI_clean_sbu_0, # of connection points: 4
#     Node 7, Type 0, BuildingBlock: UXUYUI_clean_sbu_0, # of connection points: 4
#     Node 8, Type 0, BuildingBlock: UXUYUI_clean_sbu_0, # of connection points: 4
#     Node 9, Type 0, BuildingBlock: UXUYUI_clean_sbu_0, # of connection points: 4
#     Node 10, Type 0, BuildingBlock: UXUYUI_clean_sbu_0, # of connection points: 4
#     Node 11, Type 0, BuildingBlock: UXUYUI_clean_sbu_0, # of connection points: 4
#     Node 12, Type 0, BuildingBlock: UXUYUI_clean_sbu_0, # of connection points: 4
#     Node 13, Type 0, BuildingBlock: UXUYUI_clean_sbu_0, # of connection points: 4
#     Node 14, Type 0, BuildingBlock: UXUYUI_clean_sbu_0, # of connection points: 4
#     Node 15, Type 0, BuildingBlock: UXUYUI_clean_sbu_0, # of connection points: 4
#     Node 16, Type 0, BuildingBlock: UXUYUI_clean_sbu_0, # of connection points: 4
#     Node 17, Type 0, BuildingBlock: UXUYUI_clean_sbu_0, # of connection points: 4
#     Node 18, Type 0, BuildingBlock: UXUYUI_clean_sbu_0, # of connection points: 4
#     Node 19, Type 0, BuildingBlock: UXUYUI_clean_sbu_0, # of connection points: 4
#     Node 20, Type 0, BuildingBlock: UXUYUI_clean_sbu_0, # of connection points: 4
#     Node 21, Type 0, BuildingBlock: UXUYUI_clean_sbu_0, # of connection points: 4
#     Node 22, Type 0, BuildingBlock: UXUYUI_clean_sbu_0, # of connection points: 4
#     Node 23, Type 0, BuildingBlock: UXUYUI_clean_sbu_0, # of connection points: 4
#     Edge 24, Type (0, 0), BuildingBlock: AJUNOK_clean_linker_0, # of connection points: 2
#     Edge 25, Type (0, 0), BuildingBlock: AJUNOK_clean_linker_0, # of connection points: 2
#     Edge 26, Type (0, 0), BuildingBlock: AJUNOK_clean_linker_0, # of connection points: 2
#     Edge 27, Type (0, 0), BuildingBlock: AJUNOK_clean_linker_0, # of connection points: 2
#     Edge 28, Type (0, 0), BuildingBlock: AJUNOK_clean_linker_0, # of connection points: 2
#     Edge 29, Type (0, 0), BuildingBlock: AJUNOK_clean_linker_0, # of connection points: 2
#     Edge 30, Type (0, 0), BuildingBlock: AJUNOK_clean_linker_0, # of connection points: 2
#     Edge 31, Type (0, 0), BuildingBlock: AJUNOK_clean_linker_0, # of connection points: 2
#     Edge 32, Type (0, 0), BuildingBlock: AJUNOK_clean_linker_0, # of connection points: 2
#     Edge 33, Type (0, 0), BuildingBlock: AJUNOK_clean_linker_0, # of connection points: 2
#     Edge 34, Type (0, 0), BuildingBlock: AJUNOK_clean_linker_0, # of connection points: 2
#     Edge 35, Type (0, 0), BuildingBlock: AJUNOK_clean_linker_0, # of connection points: 2
#     Edge 36, Type (0, 0), BuildingBlock: AJUNOK_clean_linker_0, # of connection points: 2
#     Edge 37, Type (0, 0), BuildingBlock: AJUNOK_clean_linker_0, # of connection points: 2
#     Edge 38, Type (0, 0), BuildingBlock: AJUNOK_clean_linker_0, # of connection points: 2
#     Edge 39, Type (0, 0), BuildingBlock: AJUNOK_clean_linker_0, # of connection points: 2
#     Edge 40, Type (0, 0), BuildingBlock: AJUNOK_clean_linker_0, # of connection points: 2
#     Edge 41, Type (0, 0), BuildingBlock: AJUNOK_clean_linker_0, # of connection points: 2
#     Edge 42, Type (0, 0), BuildingBlock: AJUNOK_clean_linker_0, # of connection points: 2
#     Edge 43, Type (0, 0), BuildingBlock: AJUNOK_clean_linker_0, # of connection points: 2
#     Edge 44, Type (0, 0), BuildingBlock: AJUNOK_clean_linker_0, # of connection points: 2
#     Edge 45, Type (0, 0), BuildingBlock: AJUNOK_clean_linker_0, # of connection points: 2
#     Edge 46, Type (0, 0), BuildingBlock: AJUNOK_clean_linker_0, # of connection points: 2
#     Edge 47, Type (0, 0), BuildingBlock: AJUNOK_clean_linker_0, # of connection points: 2
#     Edge 48, Type (0, 0), BuildingBlock: AJUNOK_clean_linker_0, # of connection points: 2
#     Edge 49, Type (0, 0), BuildingBlock: AJUNOK_clean_linker_0, # of connection points: 2
#     Edge 50, Type (0, 0), BuildingBlock: AJUNOK_clean_linker_0, # of connection points: 2
#     Edge 51, Type (0, 0), BuildingBlock: AJUNOK_clean_linker_0, # of connection points: 2
#     Edge 52, Type (0, 0), BuildingBlock: AJUNOK_clean_linker_0, # of connection points: 2
#     Edge 53, Type (0, 0), BuildingBlock: AJUNOK_clean_linker_0, # of connection points: 2
#     Edge 54, Type (0, 0), BuildingBlock: AJUNOK_clean_linker_0, # of connection points: 2
#     Edge 55, Type (0, 0), BuildingBlock: AJUNOK_clean_linker_0, # of connection points: 2
#     Edge 56, Type (0, 0), BuildingBlock: AJUNOK_clean_linker_0, # of connection points: 2
#     Edge 57, Type (0, 0), BuildingBlock: AJUNOK_clean_linker_0, # of connection points: 2
#     Edge 58, Type (0, 0), BuildingBlock: AJUNOK_clean_linker_0, # of connection points: 2
#     Edge 59, Type (0, 0), BuildingBlock: AJUNOK_clean_linker_0, # of connection points: 2
#     Edge 60, Type (0, 0), BuildingBlock: AJUNOK_clean_linker_0, # of connection points: 2
#     Edge 61, Type (0, 0), BuildingBlock: AJUNOK_clean_linker_0, # of connection points: 2
#     Edge 62, Type (0, 0), BuildingBlock: AJUNOK_clean_linker_0, # of connection points: 2
#     Edge 63, Type (0, 0), BuildingBlock: AJUNOK_clean_linker_0, # of connection points: 2
#     Edge 64, Type (0, 0), BuildingBlock: AJUNOK_clean_linker_0, # of connection points: 2
#     Edge 65, Type (0, 0), BuildingBlock: AJUNOK_clean_linker_0, # of connection points: 2
#     Edge 66, Type (0, 0), BuildingBlock: AJUNOK_clean_linker_0, # of connection points: 2
#     Edge 67, Type (0, 0), BuildingBlock: AJUNOK_clean_linker_0, # of connection points: 2
#     Edge 68, Type (0, 0), BuildingBlock: AJUNOK_clean_linker_0, # of connection points: 2
#     Edge 69, Type (0, 0), BuildingBlock: AJUNOK_clean_linker_0, # of connection points: 2
#     Edge 70, Type (0, 0), BuildingBlock: AJUNOK_clean_linker_0, # of connection points: 2
#     Edge 71, Type (0, 0), BuildingBlock: AJUNOK_clean_linker_0, # of connection points: 2
# Relax obj value: 0.148
# Max RMSD: 0.190
# Mean RMSD: 0.190
data_MOF--net-lcs--node1-UXUYUI_clean_sbu_0--edge1-AJUNOK_clean_linker_0
_symmetry_space_group_name_H-M    P1
_symmetry_Int_Tables_number       1
_symmetry_cell_setting            triclinic
loop_
_symmetry_equiv_pos_as_xyz
'x, y, z'
_cell_length_a     59.089509
_cell_length_b     59.079308
_cell_length_c     59.071645
_cell_angle_alpha  89.997053
_cell_angle_beta   89.992387
_cell_angle_gamma 89.995026
loop_
_atom_site_label
_atom_site_type_symbol
_atom_site_fract_x
_atom_site_fract_y
_atom_site_fract_z
_atom_type_partial_charge
Li0 Li 0.00652 0.26873 0.35894 0.0
Li1 Li 0.01959 0.24182 0.38909 0.0
Li2 Li 0.99209 0.22855 0.36073 0.0
Li3 Li 0.98124 0.25491 0.38907 0.0
C4 C 0.03108 0.22514 0.33993 0.0
N5 N 0.04353 0.19352 0.30784 0.0
C6 C 0.0427 0.20559 0.34643 0.0
C7 C 0.02581 0.22865 0.31714 0.0
C8 C 0.04885 0.18979 0.32994 0.0
C9 C 0.03225 0.21245 0.30117 0.0
C10 C 0.02486 0.28274 0.40564 0.0
C11 C 0.03994 0.29057 0.44275 0.0
N12 N 0.05883 0.29947 0.43305 0.0
C13 C 0.04434 0.2921 0.39603 0.0
C14 C 0.02254 0.28207 0.42917 0.0
C15 C 0.06135 0.30042 0.41018 0.0
C16 C 0.00596 0.31435 0.34481 0.0
N17 N 0.0162 0.29402 0.34137 0.0
C18 C 0.04381 0.31125 0.31728 0.0
C19 C 0.03469 0.2921 0.32779 0.0
C20 C 0.03383 0.33252 0.32089 0.0
C21 C 0.01439 0.33389 0.33448 0.0
H22 H 0.99179 0.31554 0.35631 0.0
H23 H 0.04286 0.27586 0.32579 0.0
C24 C 0.04536 0.22142 0.42495 0.0
N25 N 0.04634 0.23354 0.4054 0.0
C26 C 0.06528 0.21444 0.43566 0.0
C27 C 0.08682 0.23262 0.40604 0.0
C28 C 0.06651 0.23924 0.3959 0.0
C29 C 0.08638 0.21995 0.42615 0.0
H30 H 0.02917 0.21676 0.432 0.0
H31 H 0.0668 0.24856 0.38014 0.0
C32 C 0.95243 0.26117 0.35523 0.0
N33 N 0.90651 0.27006 0.35641 0.0
C34 C 0.93685 0.24335 0.35526 0.0
C35 C 0.94463 0.2835 0.35569 0.0
C36 C 0.91371 0.2482 0.35582 0.0
C37 C 0.92136 0.28765 0.35637 0.0
C38 C 0.97922 0.215 0.41075 0.0
C39 C 0.96349 0.19785 0.40649 0.0
C40 C 0.98146 0.22364 0.43265 0.0
C41 C 0.95015 0.18971 0.42425 0.0
C42 C 0.96778 0.21509 0.44994 0.0
N43 N 0.95254 0.19844 0.44542 0.0
C44 C 0.98935 0.18194 0.35161 0.0
C45 C 0.97167 0.20475 0.32375 0.0
C46 C 0.98224 0.16226 0.34064 0.0
N47 N 0.98366 0.20261 0.34327 0.0
C48 C 0.96414 0.18548 0.31223 0.0
C49 C 0.96924 0.16388 0.3208 0.0
H50 H 0.99894 0.18077 0.36716 0.0
H51 H 0.96751 0.22142 0.31741 0.0
C52 C 0.95657 0.28716 0.41442 0.0
N53 N 0.95596 0.26537 0.40701 0.0
C54 C 0.93767 0.29676 0.42495 0.0
C55 C 0.91805 0.26116 0.4207 0.0
C56 C 0.9372 0.25233 0.41004 0.0
C57 C 0.91801 0.28375 0.42792 0.0
H58 H 0.97151 0.29733 0.41149 0.0
H59 H 0.93665 0.23536 0.40336 0.0
O60 O 0.02421 0.24039 0.35591 0.0
O61 O 0.00831 0.27391 0.39211 0.0
O62 O 0.97516 0.25674 0.3552 0.0
O63 O 0.99246 0.22314 0.39358 0.0
H64 H 0.04669 0.20253 0.36405 0.0
H65 H 0.01656 0.24358 0.31191 0.0
H66 H 0.05776 0.17453 0.33471 0.0
H67 H 0.02819 0.21488 0.28348 0.0
H68 H 0.03842 0.29009 0.46099 0.0
H69 H 0.04646 0.29263 0.37785 0.0
H70 H 0.00748 0.27506 0.43686 0.0
H71 H 0.0766 0.30756 0.40299 0.0
H72 H 0.05878 0.30954 0.30683 0.0
H73 H 0.00642 0.35005 0.33787 0.0
H74 H 0.06421 0.20462 0.45111 0.0
H75 H 0.10267 0.23674 0.39781 0.0
H76 H 0.94253 0.22596 0.35536 0.0
H77 H 0.9564 0.29749 0.35581 0.0
H78 H 0.90148 0.23458 0.35601 0.0
H79 H 0.91511 0.30485 0.35694 0.0
H80 H 0.96138 0.19106 0.38962 0.0
H81 H 0.99347 0.23697 0.43621 0.0
H82 H 0.93783 0.17652 0.42118 0.0
H83 H 0.96926 0.22171 0.46695 0.0
H84 H 0.98619 0.14596 0.34805 0.0
H85 H 0.95421 0.18743 0.29694 0.0
H86 H 0.93829 0.31424 0.43045 0.0
H87 H 0.9031 0.25069 0.42249 0.0
Li88 Li 0.009 0.77356 0.64351 0.0
Li89 Li 0.98142 0.7618 0.61118 0.0
Li90 Li 0.99291 0.73548 0.64133 0.0
Li91 Li 0.01946 0.74581 0.61416 0.0
C92 C 0.96244 0.76032 0.66251 0.0
N93 N 0.93461 0.74959 0.6985 0.0
C94 C 0.94201 0.74903 0.65875 0.0
C95 C 0.96868 0.76629 0.68454 0.0
C96 C 0.9282 0.74369 0.67719 0.0
C97 C 0.95437 0.76071 0.70252 0.0
C98 C 0.0263 0.7852 0.59429 0.0
C99 C 0.03732 0.79213 0.55561 0.0
N100 N 0.05843 0.79786 0.56278 0.0
C101 C 0.04806 0.79125 0.60131 0.0
C102 C 0.02083 0.78568 0.57128 0.0
C103 C 0.06409 0.79755 0.5851 0.0
C104 C 0.04084 0.80049 0.66719 0.0
N105 N 0.01891 0.79914 0.66039 0.0
C106 C 0.01171 0.83671 0.67361 0.0
C107 C 0.00428 0.81661 0.66357 0.0
C108 C 0.03444 0.83885 0.68025 0.0
C109 C 0.04898 0.82026 0.67734 0.0
H110 H 0.05217 0.78643 0.66415 0.0
H111 H 0.98696 0.8151 0.65781 0.0
C112 C 0.93773 0.75995 0.5919 0.0
N113 N 0.95683 0.77269 0.59348 0.0
C114 C 0.91845 0.76862 0.58125 0.0
C115 C 0.93922 0.80293 0.57319 0.0
C116 C 0.958 0.79371 0.58423 0.0
C117 C 0.91889 0.7906 0.57213 0.0
H118 H 0.93729 0.74329 0.59948 0.0
H119 H 0.97335 0.80353 0.58589 0.0
C120 C 0.0308 0.73112 0.66484 0.0
N121 N 0.04266 0.70375 0.70083 0.0
C122 C 0.0356 0.70823 0.66127 0.0
C123 C 0.03223 0.74016 0.68665 0.0
C124 C 0.04149 0.69465 0.67971 0.0
C125 C 0.03823 0.72603 0.70464 0.0
C126 C 0.99486 0.71662 0.59031 0.0
C127 C 0.00719 0.69662 0.59307 0.0
C128 C 0.98715 0.72279 0.56881 0.0
C129 C 0.01194 0.68326 0.57414 0.0
C130 C 0.99219 0.70893 0.55032 0.0
N131 N 0.00441 0.68965 0.55334 0.0
C132 C 0.97057 0.69393 0.64588 0.0
C133 C 0.98144 0.70886 0.68146 0.0
C134 C 0.96093 0.67505 0.65628 0.0
N135 N 0.98068 0.71035 0.65846 0.0
C136 C 0.97213 0.69012 0.69258 0.0
C137 C 0.96157 0.67302 0.67992 0.0
H138 H 0.96984 0.69549 0.62769 0.0
H139 H 0.9891 0.72224 0.69125 0.0
C140 C 0.06433 0.73078 0.60976 0.0
N141 N 0.04569 0.73591 0.59727 0.0
C142 C 0.08406 0.72313 0.59928 0.0
C143 C 0.06542 0.72666 0.56308 0.0
C144 C 0.04602 0.73431 0.57428 0.0
C145 C 0.0847 0.72074 0.57566 0.0
H146 H 0.06393 0.73259 0.62794 0.0
H147 H 0.03127 0.73897 0.56457 0.0
O148 O 0.97644 0.76526 0.64477 0.0
O149 O 0.01054 0.77852 0.60985 0.0
O150 O 0.02507 0.74469 0.64699 0.0
O151 O 0.99006 0.72992 0.60862 0.0
H152 H 0.93702 0.7442 0.64181 0.0
H153 H 0.98451 0.77493 0.68773 0.0
H154 H 0.91241 0.7348 0.67456 0.0
H155 H 0.95902 0.76512 0.71967 0.0
H156 H 0.03337 0.79246 0.53773 0.0
H157 H 0.05258 0.79081 0.61905 0.0
H158 H 0.00413 0.7808 0.56556 0.0
H159 H 0.08104 0.80214 0.59027 0.0
H160 H 0.99987 0.85052 0.67591 0.0
H161 H 0.06664 0.82128 0.68215 0.0
H162 H 0.90315 0.75854 0.58083 0.0
H163 H 0.94052 0.81968 0.56587 0.0
H164 H 0.03468 0.70103 0.64446 0.0
H165 H 0.0285 0.75782 0.68971 0.0
H166 H 0.04512 0.67688 0.67724 0.0
H167 H 0.03928 0.73275 0.72164 0.0
H168 H 0.01313 0.69156 0.60964 0.0
H169 H 0.97755 0.7382 0.5664 0.0
H170 H 0.02161 0.66783 0.57599 0.0
H171 H 0.98645 0.71355 0.53355 0.0
H172 H 0.95318 0.66208 0.6459 0.0
H173 H 0.97283 0.68916 0.71088 0.0
H174 H 0.09858 0.71878 0.60959 0.0
H175 H 0.0654 0.72552 0.54478 0.0
Li176 Li 0.50802 0.76967 0.86098 0.0
Li177 Li 0.51962 0.74432 0.89029 0.0
Li178 Li 0.49164 0.73179 0.86175 0.0
Li179 Li 0.4805 0.76117 0.89125 0.0
C180 C 0.53973 0.73948 0.84135 0.0
N181 N 0.57271 0.73784 0.80825 0.0
C182 C 0.56255 0.7417 0.8472 0.0
C183 C 0.53371 0.73606 0.81874 0.0
C184 C 0.57896 0.74093 0.8302 0.0
C185 C 0.55063 0.73539 0.80223 0.0
C186 C 0.52073 0.79685 0.89377 0.0
C187 C 0.51845 0.83758 0.89244 0.0
N188 N 0.54133 0.83867 0.89014 0.0
C189 C 0.54423 0.79836 0.89151 0.0
C190 C 0.50772 0.8166 0.89437 0.0
C191 C 0.55432 0.81967 0.8897 0.0
C192 C 0.50145 0.81077 0.83761 0.0
N193 N 0.51734 0.79474 0.84223 0.0
C194 C 0.5462 0.81773 0.82551 0.0
C195 C 0.53935 0.79779 0.83619 0.0
C196 C 0.53031 0.83486 0.82128 0.0
C197 C 0.50759 0.83105 0.82708 0.0
H198 H 0.48414 0.80819 0.84297 0.0
H199 H 0.55189 0.78537 0.84073 0.0
C200 C 0.55375 0.71328 0.90165 0.0
N201 N 0.54474 0.73359 0.90764 0.0
C202 C 0.57293 0.70499 0.91269 0.0
C203 C 0.57324 0.73866 0.93594 0.0
C204 C 0.55385 0.74619 0.92461 0.0
C205 C 0.58311 0.71791 0.92983 0.0
H206 H 0.54622 0.70369 0.88798 0.0
H207 H 0.54627 0.76223 0.9291 0.0
C208 C 0.46217 0.76207 0.83955 0.0
N209 N 0.43416 0.76269 0.80213 0.0
C210 C 0.43868 0.76178 0.8423 0.0
C211 C 0.47142 0.7629 0.8178 0.0
C212 C 0.4248 0.76203 0.82316 0.0
C213 C 0.45697 0.76315 0.79909 0.0
C214 C 0.49565 0.71324 0.91122 0.0
C215 C 0.49937 0.69069 0.90514 0.0
C216 C 0.49936 0.72017 0.93353 0.0
C217 C 0.50687 0.6754 0.92156 0.0
C218 C 0.50689 0.70436 0.94943 0.0
N219 N 0.51046 0.6825 0.94316 0.0
C220 C 0.49623 0.69096 0.83725 0.0
C221 C 0.45831 0.70305 0.8423 0.0
C222 C 0.48893 0.67134 0.82621 0.0
N223 N 0.48093 0.70632 0.845 0.0
C224 C 0.45029 0.68378 0.83116 0.0
C225 C 0.46569 0.66761 0.82303 0.0
H226 H 0.5141 0.69372 0.84008 0.0
H227 H 0.44647 0.71512 0.84925 0.0
C228 C 0.44471 0.79109 0.89926 0.0
N229 N 0.45529 0.77256 0.90787 0.0
C230 C 0.42522 0.7996 0.90957 0.0
C231 C 0.42791 0.76994 0.93761 0.0
C232 C 0.44736 0.76194 0.92669 0.0
C233 C 0.41643 0.78888 0.9289 0.0
H234 H 0.45121 0.799 0.88407 0.0
H235 H 0.45594 0.74709 0.93307 0.0
O236 O 0.52347 0.7399 0.85781 0.0
O237 O 0.51047 0.77613 0.8948 0.0
O238 O 0.47598 0.76175 0.85811 0.0
O239 O 0.48898 0.7286 0.89525 0.0
H240 H 0.5675 0.74426 0.86465 0.0
H241 H 0.51619 0.73375 0.814 0.0
H242 H 0.59667 0.7428 0.83445 0.0
H243 H 0.54621 0.73283 0.78465 0.0
H244 H 0.50858 0.85301 0.89267 0.0
H245 H 0.55451 0.78322 0.89072 0.0
H246 H 0.48951 0.81571 0.89603 0.0
H247 H 0.57247 0.82109 0.88775 0.0
H248 H 0.56393 0.82017 0.82155 0.0
H249 H 0.49481 0.8438 0.82393 0.0
H250 H 0.58011 0.68895 0.90748 0.0
H251 H 0.58047 0.74894 0.94929 0.0
H252 H 0.43127 0.76119 0.85905 0.0
H253 H 0.48954 0.76353 0.81541 0.0
H254 H 0.40659 0.76169 0.82503 0.0
H255 H 0.4639 0.76377 0.78215 0.0
H256 H 0.49667 0.6851 0.88791 0.0
H257 H 0.49684 0.73765 0.93841 0.0
H258 H 0.50991 0.6579 0.9171 0.0
H259 H 0.51 0.70951 0.96673 0.0
H260 H 0.5013 0.65916 0.82032 0.0
H261 H 0.43221 0.68123 0.82953 0.0
H262 H 0.41683 0.81416 0.90223 0.0
H263 H 0.42196 0.76142 0.95271 0.0
Li264 Li 0.5097 0.27186 0.14245 0.0
Li265 Li 0.48285 0.25947 0.11302 0.0
Li266 Li 0.49501 0.23277 0.14322 0.0
Li267 Li 0.52125 0.2442 0.11376 0.0
C268 C 0.4627 0.26978 0.16083 0.0
N269 N 0.43102 0.28675 0.19077 0.0
C270 C 0.44906 0.28809 0.15461 0.0
C271 C 0.46003 0.25993 0.18218 0.0
C272 C 0.43321 0.29647 0.17002 0.0
C273 C 0.44397 0.2688 0.1971 0.0
C274 C 0.5152 0.28214 0.08695 0.0
C275 C 0.51071 0.27455 0.04709 0.0
N276 N 0.52221 0.29389 0.04224 0.0
C277 C 0.52698 0.30192 0.08159 0.0
C278 C 0.50699 0.26831 0.06959 0.0
C279 C 0.53035 0.30758 0.05887 0.0
C280 C 0.54301 0.30077 0.15919 0.0
N281 N 0.52022 0.29763 0.15901 0.0
C282 C 0.51459 0.33263 0.17862 0.0
C283 C 0.50598 0.31296 0.16864 0.0
C284 C 0.53801 0.33663 0.17844 0.0
C285 C 0.55232 0.32019 0.16895 0.0
H286 H 0.55392 0.28835 0.15132 0.0
H287 H 0.48794 0.31027 0.16811 0.0
C288 C 0.44116 0.25467 0.0895 0.0
N289 N 0.45764 0.26953 0.09558 0.0
C290 C 0.42185 0.2623 0.07812 0.0
C291 C 0.43695 0.3003 0.07939 0.0
C292 C 0.45599 0.29193 0.09063 0.0
C293 C 0.41952 0.28543 0.073 0.0
H294 H 0.44287 0.23696 0.09384 0.0
H295 H 0.4692 0.30341 0.09599 0.0
C296 C 0.53517 0.24021 0.16823 0.0
N297 N 0.55165 0.23392 0.21153 0.0
C298 C 0.55489 0.22763 0.17171 0.0
C299 C 0.5239 0.24971 0.18672 0.0
C300 C 0.56293 0.2246 0.19375 0.0
C301 C 0.53248 0.24632 0.20849 0.0
C302 C 0.49662 0.20481 0.10562 0.0
C303 C 0.51408 0.19368 0.1171 0.0
C304 C 0.48352 0.19296 0.08991 0.0
C305 C 0.51813 0.17083 0.11261 0.0
C306 C 0.48812 0.17011 0.0859 0.0
N307 N 0.50518 0.15961 0.09723 0.0
C308 C 0.46216 0.2017 0.15604 0.0
C309 C 0.49652 0.19597 0.17587 0.0
C310 C 0.45249 0.18284 0.16652 0.0
N311 N 0.48379 0.20788 0.16081 0.0
C312 C 0.48743 0.17711 0.18693 0.0
C313 C 0.46511 0.1703 0.18231 0.0
H314 H 0.45258 0.21119 0.14365 0.0
H315 H 0.51384 0.20074 0.17906 0.0
C316 C 0.56749 0.23936 0.10466 0.0
N317 N 0.54663 0.23452 0.09625 0.0
C318 C 0.58692 0.2315 0.09369 0.0
C319 C 0.56305 0.21414 0.06536 0.0
C320 C 0.54408 0.22248 0.07678 0.0
C321 C 0.58479 0.21837 0.07401 0.0
H322 H 0.569 0.24899 0.12016 0.0
H323 H 0.52732 0.219 0.07033 0.0
O324 O 0.4781 0.26113 0.14585 0.0
O325 O 0.51188 0.27638 0.10913 0.0
O326 O 0.52713 0.24323 0.14674 0.0
O327 O 0.49224 0.22718 0.10971 0.0
H328 H 0.45086 0.29589 0.13816 0.0
H329 H 0.47017 0.24553 0.18718 0.0
H330 H 0.42264 0.31072 0.16548 0.0
H331 H 0.44178 0.26138 0.2137 0.0
H332 H 0.50446 0.26401 0.03349 0.0
H333 H 0.53346 0.31278 0.09486 0.0
H334 H 0.49785 0.25291 0.0734 0.0
H335 H 0.53944 0.32285 0.05446 0.0
H336 H 0.50301 0.34493 0.18576 0.0
H337 H 0.57051 0.32243 0.16886 0.0
H338 H 0.40879 0.25029 0.07352 0.0
H339 H 0.4356 0.31833 0.07638 0.0
H340 H 0.56381 0.2202 0.15753 0.0
H341 H 0.50877 0.25967 0.1843 0.0
H342 H 0.57813 0.21484 0.19671 0.0
H343 H 0.52392 0.25356 0.22297 0.0
H344 H 0.52442 0.20254 0.12931 0.0
H345 H 0.46995 0.20136 0.0809 0.0
H346 H 0.53159 0.16201 0.12135 0.0
H347 H 0.47811 0.16073 0.07377 0.0
H348 H 0.4355 0.17782 0.16184 0.0
H349 H 0.4978 0.16788 0.19891 0.0
H350 H 0.6034 0.23506 0.10089 0.0
H351 H 0.56077 0.20436 0.05002 0.0
Li352 Li 0.01183 0.72968 0.14217 0.0
Li353 Li 0.02318 0.75571 0.11365 0.0
Li354 Li 0.99752 0.76993 0.14332 0.0
Li355 Li 0.98472 0.74271 0.11321 0.0
C356 C 0.05141 0.76273 0.1481 0.0
N357 N 0.09718 0.77245 0.14821 0.0
C358 C 0.06728 0.74528 0.15004 0.0
C359 C 0.05883 0.78513 0.14635 0.0
C360 C 0.09034 0.75055 0.15008 0.0
C361 C 0.08204 0.78969 0.14635 0.0
C362 C 0.02505 0.71576 0.09218 0.0
C363 C 0.03516 0.71458 0.05265 0.0
N364 N 0.05152 0.6991 0.05741 0.0
C365 C 0.04186 0.69972 0.09667 0.0
C366 C 0.02156 0.72315 0.06999 0.0
C367 C 0.0551 0.69154 0.07886 0.0
C368 C 0.016 0.68311 0.15094 0.0
N369 N 0.02017 0.7039 0.15986 0.0
C370 C 0.0389 0.68726 0.19165 0.0
C371 C 0.03089 0.7063 0.18008 0.0
C372 C 0.03582 0.66561 0.18225 0.0
C373 C 0.0237 0.66364 0.1619 0.0
H374 H 0.00725 0.68171 0.13491 0.0
H375 H 0.03375 0.72305 0.18691 0.0
C376 C 0.04794 0.78653 0.08628 0.0
N377 N 0.04871 0.76556 0.09577 0.0
C378 C 0.06715 0.79567 0.07585 0.0
C379 C 0.0874 0.76125 0.08455 0.0
C380 C 0.06787 0.75281 0.0948 0.0
C381 C 0.08735 0.78316 0.07537 0.0
H382 H 0.03266 0.79653 0.08757 0.0
H383 H 0.06839 0.73645 0.10287 0.0
C384 C 0.97189 0.72538 0.16094 0.0
N385 N 0.95764 0.69185 0.19023 0.0
C386 C 0.96106 0.7061 0.15254 0.0
C387 C 0.97548 0.72763 0.18421 0.0
C388 C 0.95397 0.68934 0.16763 0.0
C389 C 0.96815 0.71048 0.19875 0.0
C390 C 0.98067 0.78456 0.09603 0.0
C391 C 0.96238 0.79656 0.10506 0.0
C392 C 0.98302 0.78269 0.07257 0.0
C393 C 0.94652 0.8062 0.09041 0.0
C394 C 0.96679 0.79257 0.05849 0.0
N395 N 0.94901 0.804 0.06763 0.0
C396 C 0.99777 0.81577 0.15672 0.0
C397 C 0.96997 0.79341 0.17505 0.0
C398 C 0.98964 0.8353 0.16731 0.0
N399 N 0.9879 0.79538 0.16075 0.0
C400 C 0.96117 0.81255 0.18587 0.0
C401 C 0.97099 0.83385 0.18195 0.0
H402 H 0.01143 0.81701 0.14461 0.0
H403 H 0.96203 0.7771 0.1775 0.0
C404 C 0.95944 0.71697 0.08102 0.0
N405 N 0.95839 0.73398 0.0965 0.0
C406 C 0.93974 0.70932 0.07034 0.0
C407 C 0.9183 0.73691 0.0916 0.0
C408 C 0.93835 0.74386 0.10203 0.0
C409 C 0.91884 0.71934 0.07562 0.0
H410 H 0.97544 0.70892 0.07739 0.0
H411 H 0.93785 0.75674 0.11502 0.0
O412 O 0.02876 0.75788 0.1476 0.0
O413 O 0.01192 0.72398 0.10939 0.0
O414 O 0.97964 0.74159 0.14638 0.0
O415 O 0.99622 0.77474 0.11008 0.0
H416 H 0.06192 0.72782 0.15101 0.0
H417 H 0.04683 0.79882 0.1447 0.0
H418 H 0.1028 0.7372 0.15141 0.0
H419 H 0.08801 0.80693 0.14481 0.0
H420 H 0.0327 0.72023 0.03541 0.0
H421 H 0.0449 0.69389 0.11376 0.0
H422 H 0.0085 0.73538 0.06621 0.0
H423 H 0.06827 0.67924 0.08211 0.0
H424 H 0.0477 0.68945 0.20757 0.0
H425 H 0.02094 0.64727 0.15412 0.0
H426 H 0.06646 0.81267 0.06902 0.0
H427 H 0.10254 0.75092 0.08425 0.0
H428 H 0.95836 0.704 0.13454 0.0
H429 H 0.98412 0.74233 0.19092 0.0
H430 H 0.94563 0.67429 0.16138 0.0
H431 H 0.9709 0.71193 0.21679 0.0
H432 H 0.96028 0.79817 0.12317 0.0
H433 H 0.99725 0.77378 0.06531 0.0
H434 H 0.93219 0.81539 0.09716 0.0
H435 H 0.96835 0.79118 0.0403 0.0
H436 H 0.99729 0.85149 0.16337 0.0
H437 H 0.94664 0.8108 0.19691 0.0
H438 H 0.94079 0.69559 0.05824 0.0
H439 H 0.90244 0.74467 0.09653 0.0
Li440 Li 0.49412 0.77051 0.36276 0.0
Li441 Li 0.52201 0.76012 0.39142 0.0
Li442 Li 0.51182 0.73146 0.36233 0.0
Li443 Li 0.48595 0.74229 0.39224 0.0
C444 C 0.53321 0.76402 0.33608 0.0
N445 N 0.54697 0.76779 0.29155 0.0
C446 C 0.55558 0.76975 0.33101 0.0
C447 C 0.51783 0.76018 0.31851 0.0
C448 C 0.56221 0.77159 0.30838 0.0
C449 C 0.52512 0.76217 0.29611 0.0
C450 C 0.49796 0.79105 0.41107 0.0
C451 C 0.50364 0.80317 0.44963 0.0
N452 N 0.51178 0.8233 0.44197 0.0
C453 C 0.50616 0.81193 0.40358 0.0
C454 C 0.49651 0.78666 0.43427 0.0
C455 C 0.51315 0.82799 0.41947 0.0
C456 C 0.46036 0.79871 0.34342 0.0
N457 N 0.48307 0.7959 0.3457 0.0
C458 C 0.48987 0.83162 0.32774 0.0
C459 C 0.49785 0.81178 0.33794 0.0
C460 C 0.46646 0.83523 0.32576 0.0
C461 C 0.45165 0.81826 0.33335 0.0
H462 H 0.44895 0.78609 0.34997 0.0
H463 H 0.51584 0.80942 0.34035 0.0
C464 C 0.55451 0.76393 0.4276 0.0
N465 N 0.54723 0.77255 0.40752 0.0
C466 C 0.57336 0.77327 0.43846 0.0
C467 C 0.57695 0.80003 0.40774 0.0
C468 C 0.55808 0.79019 0.39748 0.0
C469 C 0.58477 0.79164 0.42856 0.0
H470 H 0.54583 0.74974 0.43512 0.0
H471 H 0.55208 0.79656 0.3814 0.0
C472 C 0.46127 0.72565 0.35854 0.0
N473 N 0.42447 0.6967 0.35963 0.0
C474 C 0.46443 0.70223 0.35715 0.0
C475 C 0.43933 0.73429 0.36066 0.0
C476 C 0.44563 0.6879 0.35762 0.0
C477 C 0.42097 0.71939 0.36119 0.0
C478 C 0.51314 0.71121 0.41149 0.0
C479 C 0.51379 0.68829 0.40561 0.0
C480 C 0.50933 0.71738 0.43401 0.0
C481 C 0.51052 0.67193 0.42238 0.0
C482 C 0.5061 0.70052 0.45028 0.0
N483 N 0.50676 0.67833 0.44417 0.0
C484 C 0.54306 0.69743 0.35195 0.0
C485 C 0.51418 0.70103 0.32435 0.0
C486 C 0.55204 0.67868 0.34072 0.0
N487 N 0.52415 0.70781 0.34398 0.0
C488 C 0.52261 0.6823 0.31254 0.0
C489 C 0.54152 0.67059 0.32099 0.0
H490 H 0.55078 0.70333 0.36747 0.0
H491 H 0.49933 0.70979 0.3182 0.0
C492 C 0.44642 0.74676 0.41925 0.0
N493 N 0.46115 0.73133 0.41054 0.0
C494 C 0.42633 0.73963 0.4296 0.0
C495 C 0.4373 0.70089 0.42255 0.0
C496 C 0.45705 0.70874 0.41229 0.0
C497 C 0.42135 0.71642 0.43079 0.0
H498 H 0.44981 0.76464 0.4173 0.0
H499 H 0.46853 0.69672 0.40479 0.0
O500 O 0.52655 0.76204 0.35817 0.0
O501 O 0.49172 0.77485 0.39577 0.0
O502 O 0.47955 0.73995 0.35846 0.0
O503 O 0.51637 0.72747 0.39531 0.0
H504 H 0.56769 0.77272 0.34444 0.0
H505 H 0.50045 0.75571 0.3221 0.0
H506 H 0.57947 0.77602 0.30421 0.0
H507 H 0.5134 0.75925 0.28235 0.0
H508 H 0.50272 0.79997 0.46763 0.0
H509 H 0.50745 0.81557 0.38569 0.0
H510 H 0.48997 0.77069 0.44035 0.0
H511 H 0.51973 0.84415 0.41391 0.0
H512 H 0.50184 0.84434 0.32217 0.0
H513 H 0.43349 0.8202 0.33179 0.0
H514 H 0.57892 0.76628 0.45448 0.0
H515 H 0.58556 0.81382 0.39927 0.0
H516 H 0.48122 0.69508 0.35635 0.0
H517 H 0.43646 0.75224 0.36238 0.0
H518 H 0.44789 0.66975 0.35666 0.0
H519 H 0.40394 0.72587 0.36299 0.0
H520 H 0.51645 0.68314 0.38826 0.0
H521 H 0.50859 0.735 0.43884 0.0
H522 H 0.51087 0.65414 0.41805 0.0
H523 H 0.50302 0.70508 0.46774 0.0
H524 H 0.56667 0.67017 0.34777 0.0
H525 H 0.51435 0.67695 0.29708 0.0
H526 H 0.41441 0.75213 0.43573 0.0
H527 H 0.43426 0.68284 0.42345 0.0
Li528 Li 0.50972 0.23247 0.63894 0.0
Li529 Li 0.52112 0.25982 0.61048 0.0
Li530 Li 0.49307 0.27142 0.63868 0.0
Li531 Li 0.48385 0.24413 0.60994 0.0
C532 C 0.53114 0.26604 0.66582 0.0
N533 N 0.54276 0.27366 0.71049 0.0
C534 C 0.55198 0.27586 0.67118 0.0
C535 C 0.51621 0.26009 0.6832 0.0
C536 C 0.55755 0.27956 0.69386 0.0
C537 C 0.52239 0.26409 0.70566 0.0
C538 C 0.53174 0.21512 0.60183 0.0
C539 C 0.55105 0.18507 0.58208 0.0
N540 N 0.57026 0.18984 0.59382 0.0
C541 C 0.55169 0.21973 0.61372 0.0
C542 C 0.5314 0.19766 0.58589 0.0
C543 C 0.57098 0.20675 0.60942 0.0
C544 C 0.51024 0.18646 0.64995 0.0
N545 N 0.51979 0.20653 0.65593 0.0
C546 C 0.54447 0.18762 0.68192 0.0
C547 C 0.53682 0.2074 0.67143 0.0
C548 C 0.53479 0.16667 0.6762 0.0
C549 C 0.5175 0.16625 0.6599 0.0
H550 H 0.49745 0.18607 0.63688 0.0
H551 H 0.54496 0.22326 0.6753 0.0
C552 C 0.55825 0.28824 0.60313 0.0
N553 N 0.5464 0.271 0.59358 0.0
C554 C 0.5776 0.29675 0.59256 0.0
C555 C 0.57197 0.26996 0.56217 0.0
C556 C 0.55273 0.26189 0.5734 0.0
C557 C 0.58484 0.28745 0.5719 0.0
H558 H 0.55276 0.29523 0.61913 0.0
H559 H 0.54297 0.24825 0.56608 0.0
C560 C 0.45538 0.23646 0.64331 0.0
N561 N 0.41 0.22527 0.64152 0.0
C562 C 0.43903 0.2534 0.64095 0.0
C563 C 0.44863 0.21384 0.64496 0.0
C564 C 0.41618 0.2474 0.64008 0.0
C565 C 0.42561 0.20852 0.64393 0.0
C566 C 0.49076 0.28259 0.58328 0.0
C567 C 0.48533 0.3049 0.57759 0.0
C568 C 0.49484 0.2668 0.56612 0.0
C569 C 0.48412 0.31107 0.55479 0.0
C570 C 0.49347 0.27364 0.54353 0.0
N571 N 0.48819 0.29545 0.53838 0.0
C572 C 0.48835 0.31761 0.64816 0.0
C573 C 0.4692 0.29403 0.67437 0.0
C574 C 0.48008 0.33699 0.65892 0.0
N575 N 0.48259 0.2967 0.65583 0.0
C576 C 0.46054 0.31295 0.68565 0.0
C577 C 0.46565 0.33478 0.67768 0.0
H578 H 0.49905 0.31921 0.63338 0.0
H579 H 0.46492 0.2772 0.68017 0.0
C580 C 0.45804 0.21064 0.58773 0.0
N581 N 0.45912 0.23321 0.59203 0.0
C582 C 0.43874 0.20133 0.57773 0.0
C583 C 0.42234 0.23876 0.57605 0.0
C584 C 0.44201 0.24738 0.58598 0.0
C585 C 0.4203 0.21536 0.57233 0.0
H586 H 0.47186 0.19977 0.59284 0.0
H587 H 0.44321 0.26524 0.58983 0.0
O588 O 0.52544 0.26255 0.64364 0.0
O589 O 0.51252 0.22746 0.60571 0.0
O590 O 0.47788 0.24196 0.64348 0.0
O591 O 0.49206 0.27643 0.60557 0.0
H592 H 0.56376 0.28053 0.65794 0.0
H593 H 0.5001 0.25229 0.67945 0.0
H594 H 0.57363 0.28714 0.69825 0.0
H595 H 0.51101 0.25954 0.71927 0.0
H596 H 0.55102 0.1715 0.56978 0.0
H597 H 0.55235 0.23314 0.62613 0.0
H598 H 0.51609 0.19388 0.57657 0.0
H599 H 0.58651 0.21013 0.6185 0.0
H600 H 0.55801 0.18869 0.69424 0.0
H601 H 0.51011 0.15043 0.65434 0.0
H602 H 0.58703 0.31022 0.60066 0.0
H603 H 0.57663 0.26266 0.54602 0.0
H604 H 0.44395 0.27096 0.6393 0.0
H605 H 0.46102 0.20052 0.64681 0.0
H606 H 0.40337 0.26032 0.63806 0.0
H607 H 0.42016 0.19107 0.64499 0.0
H608 H 0.48211 0.31731 0.59068 0.0
H609 H 0.49902 0.24946 0.57014 0.0
H610 H 0.47995 0.32828 0.55015 0.0
H611 H 0.49661 0.26161 0.53009 0.0
H612 H 0.48438 0.35351 0.65223 0.0
H613 H 0.44982 0.31054 0.70032 0.0
H614 H 0.43809 0.18327 0.57465 0.0
H615 H 0.40851 0.25015 0.57217 0.0
Li616 Li 0.99407 0.27537 0.86583 0.0
Li617 Li 0.02082 0.26086 0.89499 0.0
Li618 Li 0.0092 0.23578 0.86466 0.0
Li619 Li 0.9826 0.24761 0.89466 0.0
C620 C 0.03342 0.2693 0.84034 0.0
N621 N 0.04787 0.27879 0.79689 0.0
C622 C 0.05541 0.27713 0.83659 0.0
C623 C 0.01873 0.26638 0.82202 0.0
C624 C 0.06242 0.28179 0.81448 0.0
C625 C 0.02637 0.27125 0.80017 0.0
C626 C 0.97795 0.28629 0.9152 0.0
C627 C 0.96355 0.28534 0.9534 0.0
N628 N 0.94597 0.29874 0.94698 0.0
C629 C 0.95984 0.30019 0.90902 0.0
C630 C 0.97994 0.27894 0.9376 0.0
C631 C 0.94382 0.30626 0.92532 0.0
C632 C 0.96191 0.30346 0.84441 0.0
N633 N 0.98433 0.30116 0.84901 0.0
C634 C 0.99221 0.33712 0.83217 0.0
C635 C 0.99949 0.31741 0.84305 0.0
C636 C 0.96902 0.34043 0.82796 0.0
C637 C 0.95384 0.32309 0.83395 0.0
H638 H 0.95022 0.29032 0.8495 0.0
H639 H 0.01722 0.3152 0.84699 0.0
C640 C 0.06722 0.26139 0.90533 0.0
N641 N 0.04681 0.26947 0.91221 0.0
C642 C 0.08706 0.26815 0.91625 0.0
C643 C 0.06458 0.29182 0.94091 0.0
C644 C 0.04513 0.28439 0.92964 0.0
C645 C 0.08594 0.2837 0.93422 0.0
H646 H 0.06812 0.24994 0.89107 0.0
H647 H 0.02876 0.29103 0.93439 0.0
C648 C 0.96326 0.2327 0.85009 0.0
N649 N 0.93446 0.20382 0.82721 0.0
C650 C 0.95596 0.21264 0.86028 0.0
C651 C 0.95571 0.2382 0.82836 0.0
C652 C 0.94146 0.19822 0.84841 0.0
C653 C 0.94121 0.22335 0.81704 0.0
C654 C 0.02657 0.22009 0.91108 0.0
C655 C 0.04472 0.20822 0.9016 0.0
C656 C 0.02566 0.2233 0.9345 0.0
C657 C 0.06178 0.19994 0.91573 0.0
C658 C 0.04307 0.21479 0.94805 0.0
N659 N 0.06062 0.20339 0.93846 0.0
C660 C 0.03589 0.21146 0.83134 0.0
C661 C 0.0088 0.18994 0.85153 0.0
C662 C 0.04371 0.19201 0.82037 0.0
N663 N 0.01859 0.21018 0.84652 0.0
C664 C 0.01607 0.17007 0.84093 0.0
C665 C 0.03384 0.17095 0.82519 0.0
H666 H 0.04431 0.22732 0.82822 0.0
H667 H 0.99598 0.18903 0.86451 0.0
C668 C 0.93615 0.24686 0.90485 0.0
N669 N 0.95646 0.2382 0.91133 0.0
C670 C 0.91621 0.23959 0.91523 0.0
C671 C 0.93841 0.21461 0.93883 0.0
C672 C 0.95797 0.22241 0.928 0.0
C673 C 0.91715 0.22316 0.93239 0.0
H674 H 0.93545 0.25915 0.8913 0.0
H675 H 0.97428 0.21547 0.93251 0.0
O676 O 0.02626 0.26497 0.86191 0.0
O677 O 0.99349 0.27967 0.89934 0.0
O678 O 0.97728 0.24719 0.86147 0.0
O679 O 0.00992 0.22872 0.89749 0.0
H680 H 0.06694 0.27957 0.85063 0.0
H681 H 1.00167 0.26038 0.82463 0.0
H682 H 0.07941 0.28783 0.81131 0.0
H683 H 0.0152 0.26904 0.78584 0.0
H684 H 0.96479 0.27962 0.97075 0.0
H685 H 0.95808 0.30613 0.89181 0.0
H686 H 0.99386 0.26822 0.94268 0.0
H687 H 0.92965 0.31691 0.92074 0.0
H688 H 0.00463 0.34964 0.82722 0.0
H689 H 0.93582 0.32491 0.83111 0.0
H690 H 0.10314 0.26148 0.91052 0.0
H691 H 0.06294 0.30434 0.95419 0.0
H692 H 0.96154 0.20814 0.87713 0.0
H693 H 0.96093 0.25382 0.82033 0.0
H694 H 0.93578 0.18259 0.85606 0.0
H695 H 0.93528 0.22736 0.80018 0.0
H696 H 0.04581 0.20566 0.88352 0.0
H697 H 0.01175 0.23239 0.94214 0.0
H698 H 0.07598 0.19084 0.9086 0.0
H699 H 0.04264 0.21727 0.96619 0.0
H700 H 0.05765 0.19337 0.80854 0.0
H701 H 0.0085 0.15408 0.84571 0.0
H702 H 0.90018 0.24659 0.90976 0.0
H703 H 0.93985 0.20153 0.95159 0.0
Li704 Li 0.39158 0.02124 0.24651 0.0
Li705 Li 0.36195 0.00762 0.27417 0.0
Li706 Li 0.39196 0.98251 0.25964 0.0
Li707 Li 0.36307 0.99339 0.23389 0.0
C708 C 0.41011 0.02377 0.28896 0.0
N709 N 0.44033 0.05228 0.31039 0.0
C710 C 0.40219 0.04159 0.30235 0.0
C711 C 0.43339 0.02027 0.28669 0.0
C712 C 0.41774 0.05587 0.31298 0.0
C713 C 0.4484 0.03492 0.2976 0.0
C714 C 0.34335 0.03279 0.22959 0.0
C715 C 0.30566 0.03391 0.214 0.0
N716 N 0.31361 0.0458 0.19596 0.0
C717 C 0.35116 0.04502 0.21091 0.0
C718 C 0.32043 0.02719 0.2312 0.0
C719 C 0.33584 0.05146 0.19408 0.0
C720 C 0.42028 0.04729 0.21794 0.0
N721 N 0.40789 0.04769 0.23734 0.0
C722 C 0.415 0.08731 0.24181 0.0
C723 C 0.40504 0.06719 0.24923 0.0
C724 C 0.42743 0.08759 0.22152 0.0
C725 C 0.43027 0.06712 0.20971 0.0
H726 H 0.42178 0.03174 0.20842 0.0
H727 H 0.39452 0.06727 0.26418 0.0
C728 C 0.35257 0.00954 0.32073 0.0
N729 N 0.34492 0.01648 0.30016 0.0
C730 C 0.34217 0.01713 0.34057 0.0
C731 C 0.31601 0.03874 0.31774 0.0
C732 C 0.32697 0.03076 0.29831 0.0
C733 C 0.32367 0.03201 0.33924 0.0
H734 H 0.36729 0.9987 0.32173 0.0
H735 H 0.32151 0.03642 0.28179 0.0
C736 C 0.41335 0.98188 0.21914 0.0
N737 N 0.44899 0.95764 0.20101 0.0
C738 C 0.40924 0.96462 0.20348 0.0
C739 C 0.43558 0.98701 0.22535 0.0
C740 C 0.42749 0.95251 0.19457 0.0
C741 C 0.45336 0.9745 0.21607 0.0
C742 C 0.35836 0.95417 0.26856 0.0
C743 C 0.35672 0.93706 0.2523 0.0
C744 C 0.36064 0.94845 0.2914 0.0
C745 C 0.3576 0.91445 0.25918 0.0
C746 C 0.36157 0.92564 0.29759 0.0
N747 N 0.36004 0.90925 0.28148 0.0
C748 C 0.41909 0.95826 0.29076 0.0
C749 C 0.41228 0.93833 0.25665 0.0
C750 C 0.42971 0.93932 0.30015 0.0
N751 N 0.41038 0.95738 0.26947 0.0
C752 C 0.42284 0.91903 0.26534 0.0
C753 C 0.43125 0.91922 0.28754 0.0
H754 H 0.41699 0.97341 0.30082 0.0
H755 H 0.40456 0.93762 0.24013 0.0
C756 C 0.35439 0.99026 0.18744 0.0
N757 N 0.34574 0.98464 0.20801 0.0
C758 C 0.34361 0.98326 0.16763 0.0
C759 C 0.31478 0.96534 0.19047 0.0
C760 C 0.32618 0.97267 0.2099 0.0
C761 C 0.32365 0.97045 0.16898 0.0
H762 H 0.36993 0.99989 0.18647 0.0
H763 H 0.31968 0.96844 0.2265 0.0
O764 O 0.39515 0.00961 0.2784 0.0
O765 O 0.35821 0.02563 0.24582 0.0
O766 O 0.39572 0.99394 0.22802 0.0
O767 O 0.3581 0.9764 0.2621 0.0
H768 H 0.38422 0.04456 0.30427 0.0
H769 H 0.43979 0.00631 0.27674 0.0
H770 H 0.41185 0.06983 0.32326 0.0
H771 H 0.46646 0.03245 0.29595 0.0
H772 H 0.2879 0.02956 0.21494 0.0
H773 H 0.36888 0.04932 0.20931 0.0
H774 H 0.31419 0.01738 0.24536 0.0
H775 H 0.34165 0.06088 0.17949 0.0
H776 H 0.41275 0.10255 0.25175 0.0
H777 H 0.43953 0.06657 0.1939 0.0
H778 H 0.34907 0.01204 0.35677 0.0
H779 H 0.30188 0.05028 0.31598 0.0
H780 H 0.39213 0.96042 0.1985 0.0
H781 H 0.43904 1.00056 0.23714 0.0
H782 H 0.42456 0.939 0.18257 0.0
H783 H 0.47065 0.97824 0.22079 0.0
H784 H 0.35519 0.94119 0.23452 0.0
H785 H 0.36202 0.96147 0.30418 0.0
H786 H 0.35651 0.90103 0.24677 0.0
H787 H 0.36357 0.92096 0.31518 0.0
H788 H 0.43622 0.94022 0.31726 0.0
H789 H 0.42348 0.90378 0.25518 0.0
H790 H 0.35091 0.98765 0.15139 0.0
H791 H 0.2996 0.95522 0.19223 0.0
Li792 Li 0.2316 0.14288 0.49345 0.0
Li793 Li 0.24094 0.1139 0.52115 0.0
Li794 Li 0.27037 0.14208 0.51021 0.0
Li795 Li 0.25859 0.11227 0.48432 0.0
C796 C 0.22397 0.15453 0.54004 0.0
N797 N 0.19021 0.16874 0.56914 0.0
C798 C 0.2014 0.14903 0.53567 0.0
C799 C 0.22936 0.16739 0.55914 0.0
C800 C 0.18458 0.15632 0.55059 0.0
C801 C 0.21205 0.17438 0.57367 0.0
C802 C 0.2101 0.09337 0.49437 0.0
C803 C 0.20045 0.05463 0.50292 0.0
N804 N 0.17811 0.06003 0.50165 0.0
C805 C 0.18703 0.09851 0.49301 0.0
C806 C 0.21686 0.07124 0.49923 0.0
C807 C 0.17113 0.08142 0.49679 0.0
C808 C 0.19742 0.15197 0.46238 0.0
N809 N 0.20792 0.16099 0.48074 0.0
C810 C 0.18189 0.19204 0.48117 0.0
C811 C 0.20089 0.18091 0.48994 0.0
C812 C 0.17021 0.18262 0.4627 0.0
C813 C 0.17841 0.16248 0.45311 0.0
H814 H 0.20346 0.13618 0.45533 0.0
H815 H 0.20959 0.18781 0.50449 0.0
C816 C 0.24519 0.0887 0.56172 0.0
N817 N 0.22972 0.09727 0.54697 0.0
C818 C 0.23815 0.07781 0.58156 0.0
C819 C 0.19936 0.08471 0.57072 0.0
C820 C 0.20713 0.09536 0.5511 0.0
C821 C 0.21494 0.07586 0.58631 0.0
H822 H 0.26306 0.09073 0.55832 0.0
H823 H 0.19503 0.10239 0.53941 0.0
C824 C 0.26479 0.16699 0.4705 0.0
N825 N 0.27085 0.21087 0.45552 0.0
C826 C 0.27196 0.17109 0.44834 0.0
C827 C 0.2607 0.18519 0.48506 0.0
C828 C 0.27493 0.19341 0.44108 0.0
C829 C 0.26386 0.20725 0.47716 0.0
C830 C 0.28927 0.0928 0.51 0.0
C831 C 0.31037 0.09902 0.50132 0.0
C832 C 0.28446 0.06996 0.51385 0.0
C833 C 0.3262 0.08221 0.49622 0.0
C834 C 0.30074 0.05366 0.50855 0.0
N835 N 0.32109 0.06006 0.49989 0.0
C836 C 0.29777 0.16288 0.54331 0.0
C837 C 0.31292 0.1645 0.50621 0.0
C838 C 0.31725 0.17297 0.55214 0.0
N839 N 0.29603 0.15872 0.52076 0.0
C840 C 0.3328 0.17445 0.51434 0.0
C841 C 0.33534 0.17841 0.53766 0.0
H842 H 0.28423 0.15783 0.55453 0.0
H843 H 0.31125 0.1607 0.48837 0.0
C844 C 0.25921 0.07582 0.45172 0.0
N845 N 0.27002 0.09453 0.45969 0.0
C846 C 0.26748 0.06447 0.43263 0.0
C847 C 0.29783 0.09178 0.43038 0.0
C848 C 0.28895 0.10262 0.44941 0.0
C849 C 0.28703 0.07248 0.42167 0.0
H850 H 0.24388 0.07002 0.45977 0.0
H851 H 0.297 0.11774 0.45587 0.0
O852 O 0.24071 0.14777 0.52552 0.0
O853 O 0.22594 0.10992 0.49094 0.0
O854 O 0.2618 0.14521 0.47775 0.0
O855 O 0.27339 0.10899 0.51465 0.0
H856 H 0.19692 0.13927 0.52087 0.0
H857 H 0.24671 0.17202 0.56269 0.0
H858 H 0.16704 0.15213 0.5474 0.0
H859 H 0.21599 0.18434 0.58853 0.0
H860 H 0.20547 0.03746 0.50682 0.0
H861 H 0.18142 0.11552 0.48929 0.0
H862 H 0.2346 0.06697 0.50028 0.0
H863 H 0.15323 0.08518 0.49592 0.0
H864 H 0.17596 0.20739 0.48923 0.0
H865 H 0.17002 0.15478 0.43874 0.0
H866 H 0.25072 0.07159 0.59336 0.0
H867 H 0.18132 0.08353 0.57375 0.0
H868 H 0.2752 0.15717 0.43687 0.0
H869 H 0.2552 0.18237 0.50228 0.0
H870 H 0.28048 0.19684 0.42397 0.0
H871 H 0.26076 0.22149 0.48824 0.0
H872 H 0.31438 0.11661 0.49827 0.0
H873 H 0.26838 0.06487 0.52094 0.0
H874 H 0.34252 0.08677 0.4893 0.0
H875 H 0.29722 0.03591 0.51136 0.0
H876 H 0.31824 0.17623 0.57015 0.0
H877 H 0.34634 0.17831 0.5026 0.0
H878 H 0.25831 0.04999 0.42615 0.0
H879 H 0.31293 0.09851 0.42247 0.0
Li880 Li 0.14155 0.01151 0.73444 0.0
Li881 Li 0.11213 0.02482 0.76091 0.0
Li882 Li 0.13928 0.99657 0.77193 0.0
Li883 Li 0.11143 0.98578 0.74461 0.0
C884 C 0.16546 0.03173 0.77389 0.0
N885 N 0.20584 0.03636 0.79701 0.0
C886 C 0.1661 0.04334 0.79449 0.0
C887 C 0.18537 0.0225 0.76503 0.0
C888 C 0.18668 0.04549 0.80593 0.0
C889 C 0.20561 0.02503 0.77697 0.0
C890 C 0.10821 0.02873 0.71 0.0
C891 C 0.10395 0.03372 0.66971 0.0
N892 N 0.11034 0.05573 0.67186 0.0
C893 C 0.11462 0.05143 0.71183 0.0
C894 C 0.10274 0.0198 0.68879 0.0
C895 C 0.11562 0.0648 0.69235 0.0
C896 C 0.16082 0.00757 0.69074 0.0
N897 N 0.15979 0.02099 0.70941 0.0
C898 C 0.18002 0.05037 0.69029 0.0
C899 C 0.16939 0.04191 0.70965 0.0
C900 C 0.18088 0.03713 0.67056 0.0
C901 C 0.17135 0.01535 0.67101 0.0
H902 H 0.15266 0.99118 0.69091 0.0
H903 H 0.16799 0.05237 0.72461 0.0
C904 C 0.09903 0.05673 0.79323 0.0
N905 N 0.09483 0.04994 0.77167 0.0
C906 C 0.08824 0.07581 0.80207 0.0
C907 C 0.0682 0.08005 0.76667 0.0
C908 C 0.07943 0.06086 0.75848 0.0
C909 C 0.07277 0.08787 0.78867 0.0
H910 H 0.11093 0.04739 0.80351 0.0
H911 H 0.0761 0.0549 0.74151 0.0
C912 C 0.14793 0.95704 0.7479 0.0
N913 N 0.1547 0.91158 0.75661 0.0
C914 C 0.13637 0.94646 0.76565 0.0
C915 C 0.16291 0.94448 0.73458 0.0
C916 C 0.14003 0.92347 0.76978 0.0
C917 C 0.16611 0.92152 0.73926 0.0
C918 C 0.08385 0.99442 0.78239 0.0
C919 C 0.07747 0.98649 0.80375 0.0
C920 C 0.06721 1.00108 0.76693 0.0
C921 C 0.05451 0.98533 0.80929 0.0
C922 C 0.04444 0.99968 0.77312 0.0
N923 N 0.03861 0.99189 0.79399 0.0
C924 C 0.14541 0.99086 0.81841 0.0
C925 C 0.17537 0.97501 0.79693 0.0
C926 C 0.15513 0.9831 0.8385 0.0
N927 N 0.15543 0.98646 0.79817 0.0
C928 C 0.18574 0.96698 0.81665 0.0
C929 C 0.17536 0.97067 0.83774 0.0
H930 H 0.12971 1.00025 0.8189 0.0
H931 H 0.18305 0.97185 0.78061 0.0
C932 C 0.09633 0.95558 0.71118 0.0
N933 N 0.09381 0.96086 0.73344 0.0
C934 C 0.08566 0.93652 0.7021 0.0
C935 C 0.07031 0.92833 0.7391 0.0
C936 C 0.08122 0.94759 0.74746 0.0
C937 C 0.07244 0.92261 0.71613 0.0
H938 H 0.10723 0.9658 0.70063 0.0
H939 H 0.08013 0.95151 0.76527 0.0
O940 O 0.14538 0.02877 0.76275 0.0
O941 O 0.10795 0.01519 0.7288 0.0
O942 O 0.14456 0.97949 0.74328 0.0
O943 O 0.10632 0.99569 0.7769 0.0
H944 H 0.15088 0.05054 0.80163 0.0
H945 H 0.18512 0.01315 0.74928 0.0
H946 H 0.18741 0.05438 0.82192 0.0
H947 H 0.22112 0.01787 0.77037 0.0
H948 H 0.09986 0.02701 0.65317 0.0
H949 H 0.11924 0.05853 0.72808 0.0
H950 H 0.09769 0.00231 0.68704 0.0
H951 H 0.12075 0.08234 0.69351 0.0
H952 H 0.18714 0.06726 0.6906 0.0
H953 H 0.17123 0.0048 0.65602 0.0
H954 H 0.09202 0.08114 0.81921 0.0
H955 H 0.05654 0.08899 0.75571 0.0
H956 H 0.1247 0.95583 0.77615 0.0
H957 H 0.17193 0.95242 0.72074 0.0
H958 H 0.1312 0.91509 0.78345 0.0
H959 H 0.17765 0.9116 0.72908 0.0
H960 H 0.09013 0.98124 0.8159 0.0
H961 H 0.07172 0.00723 0.75032 0.0
H962 H 0.04933 0.9792 0.82575 0.0
H963 H 0.03139 0.00477 0.76133 0.0
H964 H 0.14687 0.98673 0.85446 0.0
H965 H 0.20138 0.9575 0.8154 0.0
H966 H 0.08831 0.93232 0.68445 0.0
H967 H 0.06045 0.9179 0.75051 0.0
Li968 Li 0.26976 0.86524 0.99368 0.0
Li969 Li 0.25753 0.89513 0.02206 0.0
Li970 Li 0.23053 0.86669 0.01058 0.0
Li971 Li 0.24354 0.89528 0.9839 0.0
C972 C 0.25707 0.84186 0.03708 0.0
N973 N 0.24896 0.80132 0.05889 0.0
C974 C 0.25369 0.84144 0.06049 0.0
C975 C 0.25642 0.82169 0.02476 0.0
C976 C 0.24959 0.82076 0.0712 0.0
C977 C 0.25227 0.80135 0.0361 0.0
C978 C 0.28654 0.91164 0.97827 0.0
C979 C 0.29847 0.94832 0.96482 0.0
N980 N 0.30909 0.93825 0.94705 0.0
C981 C 0.29781 0.90165 0.96 0.0
C982 C 0.28708 0.93516 0.98083 0.0
C983 C 0.30902 0.91539 0.94436 0.0
C984 C 0.29304 0.83106 0.96817 0.0
N985 N 0.29493 0.84727 0.98439 0.0
C986 C 0.33503 0.84206 0.98599 0.0
C987 C 0.31532 0.8527 0.99356 0.0
C988 C 0.33376 0.82568 0.96881 0.0
C989 C 0.31237 0.82005 0.96002 0.0
H990 H 0.27662 0.82709 0.96117 0.0
H991 H 0.3163 0.86577 0.00635 0.0
C992 C 0.25668 0.90878 0.06789 0.0
N993 N 0.26766 0.91178 0.04788 0.0
C994 C 0.2645 0.91938 0.08754 0.0
C995 C 0.29468 0.93614 0.06561 0.0
C996 C 0.2863 0.92518 0.04638 0.0
C997 C 0.28383 0.9332 0.08658 0.0
H998 H 0.2421 0.89774 0.06867 0.0
H999 H 0.29496 0.92696 0.03037 0.0
C1000 C 0.22713 0.86165 0.95945 0.0
N1001 N 0.20121 0.86375 0.92057 0.0
C1002 C 0.20444 0.86827 0.96062 0.0
C1003 C 0.23662 0.85602 0.93852 0.0
C1004 C 0.19163 0.86927 0.94077 0.0
C1005 C 0.22322 0.85718 0.91906 0.0
C1006 C 0.22013 0.91905 0.02333 0.0
C1007 C 0.20529 0.91827 0.04174 0.0
C1008 C 0.2296 0.93972 0.01685 0.0
C1009 C 0.20053 0.93816 0.05364 0.0
C1010 C 0.22443 0.95923 0.02916 0.0
N1011 N 0.21015 0.95805 0.04718 0.0
C1012 C 0.19933 0.85276 0.04359 0.0
C1013 C 0.19509 0.83341 0.00872 0.0
C1014 C 0.1808 0.8413 0.05271 0.0
N1015 N 0.20591 0.84889 0.02189 0.0
C1016 C 0.17639 0.82156 0.01716 0.0
C1017 C 0.16899 0.82552 0.03942 0.0
H1018 H 0.20845 0.8649 0.05379 0.0
H1019 H 0.20085 0.83036 0.99163 0.0
C1020 C 0.24445 0.91123 0.93809 0.0
N1021 N 0.23372 0.91329 0.95838 0.0
C1022 C 0.23571 0.92164 0.91875 0.0
C1023 C 0.20513 0.93647 0.94143 0.0
C1024 C 0.21446 0.92576 0.96035 0.0
C1025 C 0.21555 0.93409 0.92019 0.0
H1026 H 0.25912 0.90047 0.93658 0.0
H1027 H 0.2058 0.92668 0.97643 0.0
O1028 O 0.26036 0.86199 0.02614 0.0
O1029 O 0.27564 0.89843 0.99389 0.0
O1030 O 0.24012 0.86137 0.97862 0.0
O1031 O 0.22553 0.89968 0.01181 0.0
H1032 H 0.25408 0.85693 0.07025 0.0
H1033 H 0.25877 0.82177 0.00659 0.0
H1034 H 0.24685 0.82018 0.0893 0.0
H1035 H 0.2516 0.78561 0.02677 0.0
H1036 H 0.29893 0.96654 0.96656 0.0
H1037 H 0.29756 0.88352 0.95763 0.0
H1038 H 0.27896 0.94323 0.9951 0.0
H1039 H 0.31761 0.90787 0.93004 0.0
H1040 H 0.35115 0.84684 0.99329 0.0
H1041 H 0.31064 0.80785 0.94645 0.0
H1042 H 0.25594 0.9162 0.10343 0.0
H1043 H 0.30965 0.94662 0.06414 0.0
H1044 H 0.19693 0.87301 0.97665 0.0
H1045 H 0.25422 0.8512 0.93723 0.0
H1046 H 0.17412 0.87456 0.9414 0.0
H1047 H 0.23037 0.85301 0.90272 0.0
H1048 H 0.19753 0.90253 0.04685 0.0
H1049 H 0.24078 0.94065 0.00243 0.0
H1050 H 0.18919 0.93777 0.06801 0.0
H1051 H 0.23176 0.97531 0.02437 0.0
H1052 H 0.17548 0.84511 0.06984 0.0
H1053 H 0.16781 0.80942 0.00644 0.0
H1054 H 0.24409 0.91913 0.90263 0.0
H1055 H 0.18967 0.94614 0.94332 0.0
Li1056 Li 0.24469 0.39091 0.02413 0.0
Li1057 Li 0.27139 0.36172 0.01128 0.0
Li1058 Li 0.25802 0.39159 0.98475 0.0
Li1059 Li 0.23244 0.36163 0.99695 0.0
C1060 C 0.28823 0.41214 0.02167 0.0
N1061 N 0.31331 0.44722 0.03978 0.0
C1062 C 0.30309 0.40811 0.03963 0.0
C1063 C 0.28649 0.43393 0.01261 0.0
C1064 C 0.31551 0.42609 0.04865 0.0
C1065 C 0.29921 0.45146 0.02207 0.0
C1066 C 0.24037 0.33534 0.03497 0.0
C1067 C 0.24486 0.29554 0.02705 0.0
N1068 N 0.2349 0.29054 0.0472 0.0
C1069 C 0.2302 0.32981 0.05559 0.0
C1070 C 0.24779 0.31809 0.02056 0.0
C1071 C 0.22758 0.30705 0.06147 0.0
C1072 C 0.2135 0.41519 0.05141 0.0
N1073 N 0.23518 0.40751 0.05032 0.0
C1074 C 0.24198 0.41955 0.08841 0.0
C1075 C 0.24938 0.40943 0.06834 0.0
C1076 C 0.21959 0.42737 0.09012 0.0
C1077 C 0.20538 0.42539 0.07116 0.0
H1078 H 0.20226 0.4128 0.03717 0.0
H1079 H 0.26625 0.40249 0.0674 0.0
C1080 C 0.31188 0.33636 0.00538 0.0
N1081 N 0.297 0.34464 0.02084 0.0
C1082 C 0.33159 0.32534 0.01251 0.0
C1083 C 0.32008 0.33137 0.05131 0.0
C1084 C 0.30056 0.34214 0.04343 0.0
C1085 C 0.3361 0.32311 0.03578 0.0
H1086 H 0.30863 0.33865 0.98751 0.0
H1087 H 0.28847 0.34903 0.05534 0.0
C1088 C 0.21588 0.41408 0.98996 0.0
N1089 N 0.19458 0.45366 0.97706 0.0
C1090 C 0.1972 0.41334 0.97546 0.0
C1091 C 0.22356 0.43491 0.9981 0.0
C1092 C 0.18671 0.43355 0.96907 0.0
C1093 C 0.21261 0.45474 0.99134 0.0
C1094 C 0.25666 0.3539 0.95684 0.0
C1095 C 0.2379 0.36373 0.9463 0.0
C1096 C 0.27109 0.33993 0.94435 0.0
C1097 C 0.2339 0.35945 0.9234 0.0
C1098 C 0.26651 0.33604 0.92147 0.0
N1099 N 0.24817 0.34581 0.91155 0.0
C1100 C 0.29046 0.41025 0.95569 0.0
C1101 C 0.25292 0.41859 0.94437 0.0
C1102 C 0.29905 0.42055 0.9362 0.0
N1103 N 0.26776 0.40929 0.95932 0.0
C1104 C 0.26077 0.42909 0.92468 0.0
C1105 C 0.2841 0.42978 0.92018 0.0
H1106 H 0.30188 0.40243 0.96768 0.0
H1107 H 0.23496 0.41727 0.94725 0.0
C1108 C 0.18624 0.35168 0.99464 0.0
N1109 N 0.2069 0.34382 0.98825 0.0
C1110 C 0.16655 0.34074 0.98745 0.0
C1111 C 0.18976 0.31356 0.96754 0.0
C1112 C 0.20903 0.3249 0.9753 0.0
C1113 C 0.16819 0.32158 0.9735 0.0
H1114 H 0.18507 0.36681 0.00489 0.0
H1115 H 0.22565 0.3189 0.97055 0.0
O1116 O 0.27617 0.39466 0.01245 0.0
O1117 O 0.24295 0.35756 0.02901 0.0
O1118 O 0.22637 0.39443 0.99627 0.0
O1119 O 0.26112 0.35807 0.97919 0.0
H1120 H 0.3049 0.39129 0.04663 0.0
H1121 H 0.27562 0.43725 0.99826 0.0
H1122 H 0.32693 0.42324 0.06267 0.0
H1123 H 0.29796 0.46842 0.01528 0.0
H1124 H 0.2505 0.28202 0.01606 0.0
H1125 H 0.22437 0.34299 0.06692 0.0
H1126 H 0.25572 0.32201 0.00454 0.0
H1127 H 0.21973 0.30252 0.07738 0.0
H1128 H 0.25356 0.42096 0.10254 0.0
H1129 H 0.18793 0.43097 0.07187 0.0
H1130 H 0.34321 0.31877 0.99996 0.0
H1131 H 0.32293 0.33009 0.06938 0.0
H1132 H 0.19098 0.39733 0.96908 0.0
H1133 H 0.23763 0.43572 0.00974 0.0
H1134 H 0.17232 0.43325 0.95776 0.0
H1135 H 0.21838 0.47098 0.99752 0.0
H1136 H 0.22652 0.37455 0.95568 0.0
H1137 H 0.28569 0.33218 0.95224 0.0
H1138 H 0.21946 0.36699 0.91504 0.0
H1139 H 0.27754 0.32527 0.91159 0.0
H1140 H 0.31715 0.42064 0.93332 0.0
H1141 H 0.24869 0.43634 0.91296 0.0
H1142 H 0.15022 0.34762 0.99213 0.0
H1143 H 0.19166 0.29879 0.95683 0.0
Li1144 Li 0.73161 0.14373 0.00707 0.0
Li1145 Li 0.75788 0.11387 0.01881 0.0
Li1146 Li 0.77013 0.14395 0.99305 0.0
Li1147 Li 0.74392 0.11442 0.98035 0.0
C1148 C 0.77547 0.16122 0.03324 0.0
N1149 N 0.80908 0.19006 0.04822 0.0
C1150 C 0.79422 0.15261 0.04481 0.0
C1151 C 0.77375 0.1845 0.02939 0.0
C1152 C 0.81104 0.16747 0.05224 0.0
C1153 C 0.79094 0.1988 0.03705 0.0
C1154 C 0.71806 0.09635 0.02442 0.0
C1155 C 0.71513 0.05896 0.04056 0.0
N1156 N 0.70387 0.06776 0.05861 0.0
C1157 C 0.70641 0.10502 0.0431 0.0
C1158 C 0.72241 0.07313 0.02307 0.0
C1159 C 0.69938 0.09029 0.06021 0.0
C1160 C 0.68545 0.15494 0.00748 0.0
N1161 N 0.70575 0.1606 0.01672 0.0
C1162 C 0.6877 0.18639 0.04219 0.0
C1163 C 0.70726 0.17612 0.03365 0.0
C1164 C 0.66643 0.18049 0.0333 0.0
C1165 C 0.66553 0.16492 0.01535 0.0
H1166 H 0.68469 0.14222 0.99434 0.0
H1167 H 0.72355 0.17997 0.04102 0.0
C1168 C 0.78017 0.07765 0.04232 0.0
N1169 N 0.76687 0.0963 0.04447 0.0
C1170 C 0.78769 0.0661 0.06157 0.0
C1171 C 0.7676 0.0931 0.08482 0.0
C1172 C 0.76043 0.10407 0.06516 0.0
C1173 C 0.78151 0.07389 0.0832 0.0
H1174 H 0.78531 0.072 0.0257 0.0
H1175 H 0.75015 0.11917 0.06636 0.0
C1176 C 0.72634 0.16213 0.96705 0.0
N1177 N 0.69305 0.19128 0.95194 0.0
C1178 C 0.70874 0.15405 0.95347 0.0
C1179 C 0.72708 0.18506 0.97285 0.0
C1180 C 0.69207 0.16906 0.946 0.0
C1181 C 0.71006 0.19951 0.96508 0.0
C1182 C 0.78392 0.0968 0.97455 0.0
C1183 C 0.79693 0.1055 0.9568 0.0
C1184 C 0.77849 0.07378 0.9749 0.0
C1185 C 0.80424 0.09099 0.93962 0.0
C1186 C 0.78608 0.05983 0.95737 0.0
N1187 N 0.79869 0.06865 0.94024 0.0
C1188 C 0.81647 0.15455 0.99169 0.0
C1189 C 0.79375 0.1794 0.96988 0.0
C1190 C 0.83611 0.16568 0.98471 0.0
N1191 N 0.79585 0.16152 0.98422 0.0
C1192 C 0.81299 0.19099 0.96238 0.0
C1193 C 0.83453 0.1841 0.96977 0.0
H1194 H 0.81767 0.13995 0.00267 0.0
H1195 H 0.7772 0.18437 0.96389 0.0
C1196 C 0.71913 0.08064 0.95607 0.0
N1197 N 0.73469 0.0975 0.95433 0.0
C1198 C 0.71128 0.06962 0.93664 0.0
C1199 C 0.73574 0.09338 0.91406 0.0
C1200 C 0.74304 0.10399 0.93388 0.0
C1201 C 0.71953 0.07603 0.91526 0.0
H1202 H 0.71238 0.07616 0.97247 0.0
H1203 H 0.75506 0.11776 0.93295 0.0
O1204 O 0.75911 0.1469 0.02531 0.0
O1205 O 0.72567 0.11057 0.00782 0.0
O1206 O 0.74261 0.14764 0.97487 0.0
O1207 O 0.77619 0.11081 0.99128 0.0
H1208 H 0.79595 0.13462 0.04775 0.0
H1209 H 0.75939 0.19142 0.02038 0.0
H1210 H 0.82571 0.16104 0.0611 0.0
H1211 H 0.7899 0.21683 0.03408 0.0
H1212 H 0.7185 0.04098 0.03981 0.0
H1213 H 0.70306 0.12296 0.04453 0.0
H1214 H 0.73156 0.06617 0.00883 0.0
H1215 H 0.69044 0.09677 0.07482 0.0
H1216 H 0.68912 0.19822 0.05612 0.0
H1217 H 0.64957 0.16023 0.00768 0.0
H1218 H 0.79845 0.05139 0.0596 0.0
H1219 H 0.76293 0.10007 0.10112 0.0
H1220 H 0.70781 0.13634 0.94893 0.0
H1221 H 0.74051 0.19156 0.98344 0.0
H1222 H 0.67829 0.16302 0.93557 0.0
H1223 H 0.71035 0.21727 0.96955 0.0
H1224 H 0.80112 0.12331 0.95614 0.0
H1225 H 0.76824 0.06681 0.98837 0.0
H1226 H 0.81423 0.09751 0.92573 0.0
H1227 H 0.78188 0.04201 0.95734 0.0
H1228 H 0.8524 0.15947 0.99035 0.0
H1229 H 0.81108 0.20506 0.95079 0.0
H1230 H 0.69832 0.05676 0.9383 0.0
H1231 H 0.74249 0.09888 0.89793 0.0
Li1232 Li 0.14106 0.50806 0.27647 0.0
Li1233 Li 0.11182 0.48215 0.26462 0.0
Li1234 Li 0.14137 0.49132 0.23682 0.0
Li1235 Li 0.11212 0.51865 0.24769 0.0
C1236 C 0.14636 0.45708 0.28007 0.0
N1237 N 0.14702 0.41843 0.30649 0.0
C1238 C 0.14762 0.45875 0.30365 0.0
C1239 C 0.14545 0.4357 0.26996 0.0
C1240 C 0.14799 0.43903 0.3167 0.0
C1241 C 0.14574 0.41638 0.2836 0.0
C1242 C 0.09187 0.5078 0.29617 0.0
C1243 C 0.05325 0.4994 0.30635 0.0
N1244 N 0.05927 0.49915 0.32857 0.0
C1245 C 0.09767 0.50753 0.31912 0.0
C1246 C 0.06947 0.50379 0.28972 0.0
C1247 C 0.08094 0.50311 0.33523 0.0
C1248 C 0.15079 0.53922 0.31055 0.0
N1249 N 0.15889 0.52015 0.30057 0.0
C1250 C 0.18972 0.51872 0.32679 0.0
C1251 C 0.17824 0.51009 0.30795 0.0
C1252 C 0.18133 0.53803 0.33788 0.0
C1253 C 0.16173 0.54844 0.32934 0.0
H1254 H 0.13548 0.54698 0.30417 0.0
H1255 H 0.18443 0.49503 0.29959 0.0
C1256 C 0.08368 0.4434 0.2592 0.0
N1257 N 0.09373 0.45692 0.27491 0.0
C1258 C 0.07292 0.42334 0.26578 0.0
C1259 C 0.08269 0.43168 0.30459 0.0
C1260 C 0.09305 0.45159 0.29731 0.0
C1261 C 0.07286 0.41706 0.2887 0.0
H1262 H 0.08467 0.44781 0.24145 0.0
H1263 H 0.10132 0.4623 0.30954 0.0
C1264 C 0.16701 0.53153 0.2452 0.0
N1265 N 0.21076 0.54791 0.24356 0.0
C1266 C 0.17098 0.55428 0.24012 0.0
C1267 C 0.18527 0.51711 0.24955 0.0
C1268 C 0.19324 0.56223 0.23933 0.0
C1269 C 0.20727 0.52572 0.24861 0.0
C1270 C 0.09427 0.49541 0.21511 0.0
C1271 C 0.10322 0.50299 0.19457 0.0
C1272 C 0.07085 0.49511 0.21831 0.0
C1273 C 0.08853 0.5104 0.17759 0.0
C1274 C 0.05672 0.50267 0.20092 0.0
N1275 N 0.06578 0.51012 0.1811 0.0
C1276 C 0.15602 0.45838 0.2058 0.0
C1277 C 0.17147 0.49464 0.19854 0.0
C1278 C 0.16692 0.44948 0.1868 0.0
N1279 N 0.15868 0.48051 0.2115 0.0
C1280 C 0.18268 0.48645 0.17935 0.0
C1281 C 0.18056 0.46354 0.17334 0.0
H1282 H 0.1449 0.44777 0.21566 0.0
H1283 H 0.17262 0.5124 0.20272 0.0
C1284 C 0.0763 0.55161 0.24526 0.0
N1285 N 0.09596 0.54413 0.23592 0.0
C1286 C 0.06587 0.57122 0.237 0.0
C1287 C 0.09599 0.57486 0.20957 0.0
C1288 C 0.10581 0.55523 0.21833 0.0
C1289 C 0.07595 0.5833 0.21918 0.0
H1290 H 0.06892 0.54265 0.25937 0.0
H1291 H 0.12147 0.54892 0.21124 0.0
O1292 O 0.14566 0.47624 0.26702 0.0
O1293 O 0.10802 0.51212 0.28015 0.0
O1294 O 0.14531 0.52358 0.24636 0.0
O1295 O 0.10839 0.48869 0.23216 0.0
H1296 H 0.14767 0.47508 0.31188 0.0
H1297 H 0.14426 0.43399 0.25182 0.0
H1298 H 0.1488 0.44012 0.33496 0.0
H1299 H 0.14489 0.39975 0.27599 0.0
H1300 H 0.03587 0.49614 0.30158 0.0
H1301 H 0.11494 0.51043 0.32443 0.0
H1302 H 0.06472 0.50382 0.27205 0.0
H1303 H 0.0852 0.50275 0.35304 0.0
H1304 H 0.20459 0.50998 0.333 0.0
H1305 H 0.15484 0.56348 0.33724 0.0
H1306 H 0.0655 0.41242 0.25306 0.0
H1307 H 0.08274 0.42751 0.32245 0.0
H1308 H 0.157 0.56567 0.23685 0.0
H1309 H 0.1825 0.49947 0.25358 0.0
H1310 H 0.19657 0.5798 0.23539 0.0
H1311 H 0.22156 0.51476 0.25191 0.0
H1312 H 0.12132 0.50343 0.19186 0.0
H1313 H 0.06366 0.48916 0.23406 0.0
H1314 H 0.09521 0.51647 0.16165 0.0
H1315 H 0.03855 0.50263 0.20318 0.0
H1316 H 0.16417 0.43192 0.18232 0.0
H1317 H 0.1928 0.49791 0.16924 0.0
H1318 H 0.05042 0.57721 0.24485 0.0
H1319 H 0.10404 0.58338 0.19548 0.0
Li1320 Li 0.74522 0.89576 0.5212 0.0
Li1321 Li 0.77158 0.86772 0.50984 0.0
Li1322 Li 0.75842 0.89649 0.48274 0.0
Li1323 Li 0.73142 0.86622 0.49544 0.0
C1324 C 0.78426 0.91839 0.52295 0.0
N1325 N 0.79894 0.9543 0.54907 0.0
C1326 C 0.80112 0.91514 0.53923 0.0
C1327 C 0.77498 0.93992 0.51986 0.0
C1328 C 0.8083 0.93351 0.55228 0.0
C1329 C 0.78259 0.95785 0.53326 0.0
C1330 C 0.73819 0.86122 0.54913 0.0
C1331 C 0.71063 0.86213 0.57924 0.0
N1332 N 0.72764 0.86098 0.5947 0.0
C1333 C 0.7554 0.85995 0.56532 0.0
C1334 C 0.71561 0.86218 0.55612 0.0
C1335 C 0.74972 0.85985 0.58828 0.0
C1336 C 0.71333 0.92137 0.54618 0.0
N1337 N 0.73487 0.91326 0.54678 0.0
C1338 C 0.73917 0.92582 0.58508 0.0
C1339 C 0.7478 0.91533 0.56574 0.0
C1340 C 0.71688 0.93398 0.58504 0.0
C1341 C 0.70392 0.93176 0.56525 0.0
H1342 H 0.70319 0.91909 0.53111 0.0
H1343 H 0.7645 0.90799 0.56625 0.0
C1344 C 0.81807 0.86046 0.51405 0.0
N1345 N 0.79771 0.85061 0.51822 0.0
C1346 C 0.838 0.85031 0.52159 0.0
C1347 C 0.81581 0.81931 0.53647 0.0
C1348 C 0.79621 0.8302 0.52879 0.0
C1349 C 0.83695 0.82972 0.53337 0.0
H1350 H 0.81875 0.87656 0.50535 0.0
H1351 H 0.77977 0.82271 0.53178 0.0
C1352 C 0.7166 0.91281 0.47801 0.0
N1353 N 0.69729 0.93993 0.44518 0.0
C1354 C 0.70708 0.90309 0.45866 0.0
C1355 C 0.71613 0.93629 0.48077 0.0
C1356 C 0.69745 0.9171 0.44222 0.0
C1357 C 0.70633 0.94972 0.46395 0.0
C1358 C 0.77617 0.84876 0.47013 0.0
C1359 C 0.79545 0.85715 0.45931 0.0
C1360 C 0.77407 0.82553 0.47405 0.0
C1361 C 0.81237 0.84209 0.45253 0.0
C1362 C 0.79138 0.81102 0.46703 0.0
N1363 N 0.81 0.81953 0.45651 0.0
C1364 C 0.78132 0.93108 0.45741 0.0
C1365 C 0.7598 0.90485 0.43603 0.0
C1366 C 0.78903 0.94146 0.43757 0.0
N1367 N 0.767 0.9131 0.45628 0.0
C1368 C 0.76705 0.91472 0.41581 0.0
C1369 C 0.78198 0.9332 0.4164 0.0
H1370 H 0.78729 0.93699 0.47364 0.0
H1371 H 0.74895 0.89011 0.43559 0.0
C1372 C 0.68535 0.85561 0.49475 0.0
N1373 N 0.70568 0.84921 0.48608 0.0
C1374 C 0.66536 0.84586 0.48678 0.0
C1375 C 0.68755 0.82292 0.46119 0.0
C1376 C 0.70717 0.83311 0.4697 0.0
C1377 C 0.66627 0.82961 0.46944 0.0
H1378 H 0.68462 0.86884 0.50737 0.0
H1379 H 0.72349 0.82873 0.4627 0.0
O1380 O 0.77694 0.9006 0.51007 0.0
O1381 O 0.74345 0.86182 0.52659 0.0
O1382 O 0.72645 0.89943 0.49413 0.0
O1383 O 0.7598 0.8633 0.47759 0.0
H1384 H 0.80838 0.89856 0.542 0.0
H1385 H 0.76196 0.94271 0.50732 0.0
H1386 H 0.82124 0.93121 0.56503 0.0
H1387 H 0.77547 0.97458 0.53111 0.0
H1388 H 0.69324 0.86307 0.58489 0.0
H1389 H 0.77298 0.85947 0.56023 0.0
H1390 H 0.7021 0.86323 0.54383 0.0
H1391 H 0.76287 0.85903 0.60099 0.0
H1392 H 0.74949 0.9267 0.6002 0.0
H1393 H 0.68659 0.93773 0.56467 0.0
H1394 H 0.85405 0.85864 0.5186 0.0
H1395 H 0.81441 0.8034 0.54547 0.0
H1396 H 0.7074 0.88496 0.45617 0.0
H1397 H 0.72319 0.94406 0.49577 0.0
H1398 H 0.69015 0.90982 0.42709 0.0
H1399 H 0.7059 0.96793 0.46584 0.0
H1400 H 0.79746 0.87512 0.45641 0.0
H1401 H 0.75941 0.81882 0.48274 0.0
H1402 H 0.82743 0.84834 0.4442 0.0
H1403 H 0.79005 0.79301 0.47004 0.0
H1404 H 0.80066 0.95558 0.43874 0.0
H1405 H 0.76171 0.90741 0.39987 0.0
H1406 H 0.64933 0.85123 0.49386 0.0
H1407 H 0.68895 0.81056 0.44772 0.0
Li1408 Li 0.89016 0.01854 0.25536 0.0
Li1409 Li 0.86017 0.99101 0.26733 0.0
Li1410 Li 0.88953 0.98151 0.23932 0.0
Li1411 Li 0.86111 0.00734 0.2277 0.0
C1412 C 0.90746 0.99535 0.28872 0.0
N1413 N 0.93564 0.01019 0.32295 0.0
C1414 C 0.89835 0.00251 0.30935 0.0
C1415 C 0.93089 0.99559 0.28554 0.0
C1416 C 0.91289 0.00997 0.32644 0.0
C1417 C 0.94486 0.0032 0.30304 0.0
C1418 C 0.8418 0.03934 0.25151 0.0
C1419 C 0.80376 0.05024 0.24154 0.0
N1420 N 0.81129 0.07139 0.23643 0.0
C1421 C 0.84918 0.06116 0.24613 0.0
C1422 C 0.81892 0.0338 0.2492 0.0
C1423 C 0.83348 0.07714 0.23856 0.0
C1424 C 0.92609 0.05133 0.25617 0.0
N1425 N 0.90705 0.04375 0.26665 0.0
C1426 C 0.90919 0.07369 0.2938 0.0
C1427 C 0.8985 0.0545 0.28512 0.0
C1428 C 0.92887 0.08197 0.28336 0.0
C1429 C 0.93737 0.0705 0.26433 0.0
H1430 H 0.93232 0.04278 0.24127 0.0
H1431 H 0.88317 0.04826 0.29295 0.0
C1432 C 0.85077 0.9619 0.30356 0.0
N1433 N 0.84307 0.98071 0.29278 0.0
C1434 C 0.84022 0.95423 0.32328 0.0
C1435 C 0.81404 0.98553 0.32064 0.0
C1436 C 0.82512 0.99261 0.30092 0.0
C1437 C 0.82161 0.9661 0.3321 0.0
H1438 H 0.86549 0.95314 0.29713 0.0
H1439 H 0.81974 0.0079 0.29246 0.0
C1440 C 0.90972 0.00545 0.20729 0.0
N1441 N 0.94165 0.99396 0.17509 0.0
C1442 C 0.90352 0.00356 0.18452 0.0
C1443 C 0.93218 1.00166 0.21364 0.0
C1444 C 0.91991 0.99772 0.16851 0.0
C1445 C 0.94806 0.9958 0.19713 0.0
C1446 C 0.85454 0.95475 0.22842 0.0
C1447 C 0.85022 0.95183 0.20534 0.0
C1448 C 0.85797 0.9358 0.24216 0.0
C1449 C 0.84961 0.92996 0.19635 0.0
C1450 C 0.85729 0.91422 0.23252 0.0
N1451 N 0.85316 0.91177 0.21 0.0
C1452 C 0.91985 0.94418 0.24437 0.0
C1453 C 0.90598 0.94934 0.2071 0.0
C1454 C 0.93135 0.92455 0.23775 0.0
N1455 N 0.90737 0.95607 0.22909 0.0
C1456 C 0.91702 0.92978 0.19982 0.0
C1457 C 0.92979 0.91704 0.21525 0.0
H1458 H 0.92041 0.94963 0.26183 0.0
H1459 H 0.89577 0.9588 0.19528 0.0
C1460 C 0.85199 0.03747 0.19247 0.0
N1461 N 0.84356 0.01886 0.20305 0.0
C1462 C 0.8411 0.0464 0.17353 0.0
C1463 C 0.81268 0.01718 0.17692 0.0
C1464 C 0.82411 0.00883 0.19593 0.0
C1465 C 0.82129 0.03612 0.16535 0.0
H1466 H 0.86742 0.04517 0.19861 0.0
H1467 H 0.81768 0.99415 0.20478 0.0
O1468 O 0.89349 0.9886 0.27154 0.0
O1469 O 0.85702 0.02325 0.25823 0.0
O1470 O 0.89389 0.01109 0.22322 0.0
O1471 O 0.85554 0.97604 0.23748 0.0
H1472 H 0.88025 0.00264 0.31203 0.0
H1473 H 0.93822 0.99005 0.26971 0.0
H1474 H 0.90607 0.01569 0.34245 0.0
H1475 H 0.96302 0.00358 0.30078 0.0
H1476 H 0.78603 0.04615 0.23953 0.0
H1477 H 0.86688 0.06564 0.24753 0.0
H1478 H 0.81302 0.01685 0.25284 0.0
H1479 H 0.83895 0.09408 0.23427 0.0
H1480 H 0.90211 0.08202 0.30853 0.0
H1481 H 0.95223 0.07661 0.25551 0.0
H1482 H 0.84664 0.93922 0.33163 0.0
H1483 H 0.80013 0.99551 0.32719 0.0
H1484 H 0.8862 0.00628 0.17929 0.0
H1485 H 0.93725 0.00297 0.23117 0.0
H1486 H 0.91533 0.99608 0.15085 0.0
H1487 H 0.96547 0.99267 0.20184 0.0
H1488 H 0.84781 0.96629 0.19437 0.0
H1489 H 0.86143 0.93774 0.26001 0.0
H1490 H 0.84646 0.92746 0.17848 0.0
H1491 H 0.86011 0.89942 0.24293 0.0
H1492 H 0.94077 0.91498 0.25023 0.0
H1493 H 0.91543 0.92454 0.18232 0.0
H1494 H 0.84818 0.06115 0.16525 0.0
H1495 H 0.79764 0.00855 0.171 0.0
Li1496 Li 0.23247 0.64583 0.51136 0.0
Li1497 Li 0.25951 0.6162 0.52264 0.0
Li1498 Li 0.27116 0.64646 0.49437 0.0
Li1499 Li 0.24514 0.61609 0.48409 0.0
C1500 C 0.26575 0.66634 0.54216 0.0
N1501 N 0.27373 0.7001 0.57359 0.0
C1502 C 0.26254 0.66217 0.56523 0.0
C1503 C 0.27347 0.68759 0.53514 0.0
C1504 C 0.26652 0.67948 0.58084 0.0
C1505 C 0.27729 0.70446 0.55127 0.0
C1506 C 0.21828 0.59653 0.52619 0.0
C1507 C 0.21661 0.55808 0.53981 0.0
N1508 N 0.20017 0.56419 0.55472 0.0
C1509 C 0.20126 0.60241 0.54154 0.0
C1510 C 0.22592 0.57417 0.52519 0.0
C1511 C 0.19235 0.58582 0.55586 0.0
C1512 C 0.19045 0.66842 0.50655 0.0
N1513 N 0.20689 0.66285 0.52168 0.0
C1514 C 0.18494 0.67804 0.55212 0.0
C1515 C 0.2045 0.66746 0.5441 0.0
C1516 C 0.16754 0.6837 0.53695 0.0
C1517 C 0.1706 0.67905 0.51384 0.0
H1518 H 0.19254 0.6642 0.48887 0.0
H1519 H 0.21738 0.66219 0.5559 0.0
C1520 C 0.29047 0.58892 0.54723 0.0
N1521 N 0.26984 0.59906 0.54819 0.0
C1522 C 0.29914 0.57764 0.56618 0.0
C1523 C 0.26504 0.5872 0.58662 0.0
C1524 C 0.25714 0.59842 0.56738 0.0
C1525 C 0.28636 0.57669 0.58625 0.0
H1526 H 0.30044 0.59004 0.53192 0.0
H1527 H 0.24103 0.60703 0.56794 0.0
C1528 C 0.23776 0.67004 0.46923 0.0
N1529 N 0.23043 0.71209 0.45009 0.0
C1530 C 0.23336 0.67197 0.44606 0.0
C1531 C 0.23813 0.68947 0.48269 0.0
C1532 C 0.22979 0.69339 0.43668 0.0
C1533 C 0.23445 0.71058 0.4727 0.0
C1534 C 0.28546 0.59815 0.47875 0.0
C1535 C 0.29543 0.60589 0.45874 0.0
C1536 C 0.28363 0.5749 0.4827 0.0
C1537 C 0.3031 0.59019 0.4428 0.0
C1538 C 0.29151 0.55974 0.46635 0.0
N1539 N 0.30097 0.56763 0.4469 0.0
C1540 C 0.31503 0.66495 0.49716 0.0
C1541 C 0.29623 0.67282 0.46262 0.0
C1542 C 0.33489 0.67498 0.48908 0.0
N1543 N 0.29631 0.66385 0.48382 0.0
C1544 C 0.31566 0.68308 0.45391 0.0
C1545 C 0.3355 0.68374 0.46698 0.0
H1546 H 0.31473 0.65738 0.51383 0.0
H1547 H 0.28139 0.67127 0.45208 0.0
C1548 C 0.22234 0.58007 0.46073 0.0
N1549 N 0.23596 0.59849 0.45854 0.0
C1550 C 0.21471 0.56854 0.44151 0.0
C1551 C 0.23538 0.59504 0.4182 0.0
C1552 C 0.24263 0.60601 0.43783 0.0
C1553 C 0.22113 0.57609 0.41987 0.0
H1554 H 0.21702 0.5746 0.47734 0.0
H1555 H 0.25327 0.62084 0.43658 0.0
O1556 O 0.2623 0.64944 0.52666 0.0
O1557 O 0.22736 0.6126 0.51221 0.0
O1558 O 0.24136 0.64917 0.47863 0.0
O1559 O 0.27738 0.61326 0.4943 0.0
H1560 H 0.25682 0.64581 0.57104 0.0
H1561 H 0.27667 0.69104 0.51746 0.0
H1562 H 0.2639 0.67651 0.59872 0.0
H1563 H 0.28317 0.72099 0.54604 0.0
H1564 H 0.22247 0.54074 0.53931 0.0
H1565 H 0.19502 0.61959 0.54244 0.0
H1566 H 0.23903 0.56933 0.51339 0.0
H1567 H 0.17924 0.59014 0.56788 0.0
H1568 H 0.18311 0.68107 0.57011 0.0
H1569 H 0.15771 0.68341 0.50155 0.0
H1570 H 0.31592 0.57034 0.5653 0.0
H1571 H 0.25465 0.58691 0.60172 0.0
H1572 H 0.23278 0.6571 0.4354 0.0
H1573 H 0.24085 0.68824 0.5007 0.0
H1574 H 0.22649 0.69513 0.41875 0.0
H1575 H 0.23469 0.72575 0.48295 0.0
H1576 H 0.29697 0.62382 0.45541 0.0
H1577 H 0.2762 0.56864 0.49821 0.0
H1578 H 0.31069 0.59594 0.42716 0.0
H1579 H 0.2901 0.5417 0.46913 0.0
H1580 H 0.34986 0.67507 0.49966 0.0
H1581 H 0.31529 0.68997 0.43693 0.0
H1582 H 0.20369 0.55403 0.44352 0.0
H1583 H 0.24028 0.60179 0.40188 0.0
Li1584 Li 0.39116 0.51903 0.76094 0.0
Li1585 Li 0.36074 0.49302 0.77256 0.0
Li1586 Li 0.38999 0.48144 0.74425 0.0
Li1587 Li 0.36045 0.50807 0.73294 0.0
C1588 C 0.41008 0.49208 0.79283 0.0
N1589 N 0.44272 0.49872 0.82564 0.0
C1590 C 0.40416 0.49168 0.81574 0.0
C1591 C 0.43262 0.49563 0.78661 0.0
C1592 C 0.42091 0.49512 0.83207 0.0
C1593 C 0.44887 0.49903 0.80345 0.0
C1594 C 0.34171 0.53919 0.76981 0.0
C1595 C 0.3043 0.55536 0.76704 0.0
N1596 N 0.30894 0.56894 0.78504 0.0
C1597 C 0.34618 0.55353 0.78809 0.0
C1598 C 0.32067 0.5403 0.75902 0.0
C1599 C 0.32936 0.56835 0.79562 0.0
C1600 C 0.41879 0.55805 0.75593 0.0
N1601 N 0.40878 0.54418 0.77135 0.0
C1602 C 0.42027 0.56845 0.80167 0.0
C1603 C 0.40943 0.54896 0.79387 0.0
C1604 C 0.4302 0.58339 0.78612 0.0
C1605 C 0.42966 0.57788 0.76299 0.0
H1606 H 0.41781 0.55401 0.7381 0.0
H1607 H 0.40084 0.53806 0.80576 0.0
C1608 C 0.33891 0.46043 0.79971 0.0
N1609 N 0.34349 0.48293 0.79809 0.0
C1610 C 0.32801 0.45179 0.81884 0.0
C1611 C 0.32675 0.48959 0.83437 0.0
C1612 C 0.3377 0.49751 0.81494 0.0
C1613 C 0.32181 0.46644 0.83652 0.0
H1614 H 0.34421 0.44911 0.78634 0.0
H1615 H 0.34212 0.51516 0.81363 0.0
C1616 C 0.4083 0.50544 0.71137 0.0
N1617 N 0.43769 0.49303 0.6772 0.0
C1618 C 0.39989 0.49903 0.69021 0.0
C1619 C 0.43164 0.50579 0.7151 0.0
C1620 C 0.41503 0.49275 0.67317 0.0
C1621 C 0.44623 0.49938 0.69762 0.0
C1622 C 0.33552 0.46742 0.73962 0.0
C1623 C 0.33286 0.44781 0.72663 0.0
C1624 C 0.31652 0.47785 0.74906 0.0
C1625 C 0.31114 0.43918 0.72303 0.0
C1626 C 0.2951 0.46869 0.7451 0.0
N1627 N 0.29287 0.44972 0.73225 0.0
C1628 C 0.42446 0.44687 0.74368 0.0
C1629 C 0.3983 0.44685 0.71328 0.0
C1630 C 0.43481 0.42728 0.73525 0.0
N1631 N 0.40645 0.4561 0.7327 0.0
C1632 C 0.40808 0.42733 0.70429 0.0
C1633 C 0.42632 0.41706 0.71552 0.0
H1634 H 0.43049 0.4544 0.75922 0.0
H1635 H 0.38395 0.45452 0.70491 0.0
C1636 C 0.34683 0.54139 0.70238 0.0
N1637 N 0.34353 0.51926 0.70769 0.0
C1638 C 0.33698 0.55065 0.68297 0.0
C1639 C 0.32006 0.51429 0.67506 0.0
C1640 C 0.33038 0.50568 0.69454 0.0
C1641 C 0.32363 0.53697 0.66882 0.0
H1642 H 0.35761 0.55172 0.71299 0.0
H1643 H 0.32826 0.48806 0.69878 0.0
O1644 O 0.39388 0.48894 0.77662 0.0
O1645 O 0.35814 0.52485 0.76194 0.0
O1646 O 0.39373 0.51122 0.72839 0.0
O1647 O 0.35669 0.47606 0.74328 0.0
H1648 H 0.38681 0.48884 0.82085 0.0
H1649 H 0.43747 0.49592 0.76897 0.0
H1650 H 0.41657 0.49496 0.84986 0.0
H1651 H 0.46635 0.50193 0.79887 0.0
H1652 H 0.28793 0.55631 0.75889 0.0
H1653 H 0.36237 0.55308 0.79655 0.0
H1654 H 0.317 0.52977 0.74452 0.0
H1655 H 0.33256 0.5794 0.80987 0.0
H1656 H 0.42015 0.57224 0.81961 0.0
H1657 H 0.43732 0.58891 0.75051 0.0
H1658 H 0.3251 0.43374 0.82007 0.0
H1659 H 0.32239 0.50143 0.84768 0.0
H1660 H 0.38185 0.49866 0.68706 0.0
H1661 H 0.43841 0.51094 0.7313 0.0
H1662 H 0.40876 0.48759 0.65676 0.0
H1663 H 0.46434 0.49948 0.70028 0.0
H1664 H 0.34739 0.43937 0.71937 0.0
H1665 H 0.31831 0.49267 0.75958 0.0
H1666 H 0.30883 0.42408 0.71293 0.0
H1667 H 0.28025 0.47661 0.75231 0.0
H1668 H 0.44886 0.41984 0.74437 0.0
H1669 H 0.40135 0.42026 0.68877 0.0
H1670 H 0.34027 0.56819 0.67875 0.0
H1671 H 0.3095 0.50326 0.66493 0.0
Li1672 Li 0.63739 0.00876 0.77264 0.0
Li1673 Li 0.6078 0.98305 0.7614 0.0
Li1674 Li 0.63712 0.99165 0.73314 0.0
Li1675 Li 0.60815 0.01919 0.74402 0.0
C1676 C 0.64171 0.95641 0.77431 0.0
N1677 N 0.64103 0.91525 0.79659 0.0
C1678 C 0.64758 0.95515 0.79721 0.0
C1679 C 0.63543 0.93671 0.76278 0.0
C1680 C 0.64718 0.93418 0.80814 0.0
C1681 C 0.63517 0.91608 0.77434 0.0
C1682 C 0.58902 0.00902 0.79343 0.0
C1683 C 0.55056 0.0029 0.80569 0.0
N1684 N 0.55793 1.00065 0.82738 0.0
C1685 C 0.5962 0.00678 0.81588 0.0
C1686 C 0.566 0.00722 0.78831 0.0
C1687 C 0.58022 0.00251 0.83279 0.0
C1688 C 0.64715 0.03922 0.80745 0.0
N1689 N 0.65557 0.02082 0.79651 0.0
C1690 C 0.68758 0.01991 0.82131 0.0
C1691 C 0.67561 0.01135 0.80274 0.0
C1692 C 0.67879 0.03837 0.83351 0.0
C1693 C 0.65848 0.04826 0.82611 0.0
H1694 H 0.63128 0.04653 0.80199 0.0
H1695 H 0.68214 0.99696 0.79349 0.0
C1696 C 0.57699 0.94603 0.75756 0.0
N1697 N 0.58916 0.95855 0.77259 0.0
C1698 C 0.56533 0.9267 0.76475 0.0
C1699 C 0.57859 0.93368 0.80278 0.0
C1700 C 0.59006 0.95274 0.79486 0.0
C1701 C 0.56612 0.9203 0.78764 0.0
H1702 H 0.57692 0.95063 0.73985 0.0
H1703 H 0.60049 0.9623 0.80638 0.0
C1704 C 0.66311 0.0313 0.74008 0.0
N1705 N 0.70714 0.04637 0.73575 0.0
C1706 C 0.66743 0.05377 0.73413 0.0
C1707 C 0.68116 0.01647 0.74382 0.0
C1708 C 0.68982 0.06107 0.73202 0.0
C1709 C 0.70331 0.02442 0.74155 0.0
C1710 C 0.58847 0.99494 0.7128 0.0
C1711 C 0.59536 0.99989 0.69072 0.0
C1712 C 0.56554 0.99624 0.71846 0.0
C1713 C 0.57922 0.00648 0.67474 0.0
C1714 C 0.54991 0.0029 0.70201 0.0
N1715 N 0.55702 0.00786 0.68068 0.0
C1716 C 0.6604 0.95955 0.70539 0.0
C1717 C 0.66051 0.99724 0.69167 0.0
C1718 C 0.67139 0.95201 0.68585 0.0
N1719 N 0.6549 0.98177 0.70781 0.0
C1720 C 0.67171 0.99046 0.67195 0.0
C1721 C 0.67703 0.96753 0.66877 0.0
H1722 H 0.6559 0.94758 0.7184 0.0
H1723 H 0.65568 0.01476 0.69383 0.0
C1724 C 0.57493 0.05467 0.74346 0.0
N1725 N 0.59207 0.04453 0.73192 0.0
C1726 C 0.56448 0.07404 0.7347 0.0
C1727 C 0.58946 0.07208 0.70237 0.0
C1728 C 0.5995 0.05288 0.71181 0.0
C1729 C 0.57174 0.083 0.71387 0.0
H1730 H 0.56972 0.04806 0.75969 0.0
H1731 H 0.61347 0.04473 0.70321 0.0
O1732 O 0.64176 0.97685 0.76338 0.0
O1733 O 0.60442 0.01319 0.77663 0.0
O1734 O 0.64127 0.02396 0.74222 0.0
O1735 O 0.60408 0.98899 0.72883 0.0
H1736 H 0.65205 0.97021 0.80656 0.0
H1737 H 0.6301 0.93743 0.74529 0.0
H1738 H 0.65162 0.93299 0.82587 0.0
H1739 H 0.63012 0.90077 0.76567 0.0
H1740 H 0.53271 1.00136 0.80193 0.0
H1741 H 0.61394 0.00788 0.82018 0.0
H1742 H 0.56011 0.00906 0.7711 0.0
H1743 H 0.58557 1.00057 0.85019 0.0
H1744 H 0.70348 0.01217 0.82608 0.0
H1745 H 0.65113 0.0625 0.835 0.0
H1746 H 0.55603 0.9167 0.75253 0.0
H1747 H 0.58021 0.92896 0.82042 0.0
H1748 H 0.65361 0.06544 0.73116 0.0
H1749 H 0.67814 0.99901 0.74839 0.0
H1750 H 0.69343 0.07843 0.72742 0.0
H1751 H 0.71745 0.01314 0.7444 0.0
H1752 H 0.613 0.99888 0.68601 0.0
H1753 H 0.55988 0.99216 0.73537 0.0
H1754 H 0.58435 0.01053 0.65763 0.0
H1755 H 0.53213 0.0041 0.7062 0.0
H1756 H 0.67532 0.93419 0.68401 0.0
H1757 H 0.6755 0.00289 0.65901 0.0
H1758 H 0.55131 0.08226 0.74445 0.0
H1759 H 0.59559 0.07841 0.68629 0.0
Li1760 Li 0.76046 0.61568 0.9821 0.0
Li1761 Li 0.77151 0.64576 0.00872 0.0
Li1762 Li 0.74383 0.61494 0.01977 0.0
Li1763 Li 0.73189 0.64496 0.99386 0.0
C1764 C 0.79428 0.59867 0.00688 0.0
N1765 N 0.83032 0.57083 0.99622 0.0
C1766 C 0.81526 0.60802 1.00122 0.0
C1767 C 0.79171 0.57516 0.00741 0.0
C1768 C 0.83326 0.59366 0.99581 0.0
C1769 C 0.81011 0.56137 1.00189 0.0
C1770 C 0.76654 0.66918 0.9668 0.0
C1771 C 0.76369 0.70987 0.96489 0.0
N1772 N 0.77794 0.70991 0.9468 0.0
C1773 C 0.78099 0.66961 0.94806 0.0
C1774 C 0.75769 0.68945 0.97518 0.0
C1775 C 0.78662 0.69038 0.93825 0.0
C1776 C 0.75943 0.5818 0.9473 0.0
N1777 N 0.77185 0.59855 0.95707 0.0
C1778 C 0.80159 0.59317 0.93015 0.0
C1779 C 0.7925 0.60443 0.94882 0.0
C1780 C 0.78926 0.57571 0.91977 0.0
C1781 C 0.76786 0.5701 0.9285 0.0
H1782 H 0.74288 0.5777 0.95388 0.0
H1783 H 0.80182 0.61812 0.95658 0.0
C1784 C 0.80193 0.65955 0.04204 0.0
N1785 N 0.79664 0.66304 0.01991 0.0
C1786 C 0.82119 0.66954 0.05147 0.0
C1787 C 0.82902 0.68697 0.01532 0.0
C1788 C 0.80972 0.67647 0.00652 0.0
C1789 C 0.83504 0.68338 0.03802 0.0
H1790 H 0.79142 0.64855 0.05223 0.0
H1791 H 0.80568 0.67858 0.98886 0.0
C1792 C 0.71323 0.59434 0.99371 0.0
N1793 N 0.68336 0.55938 0.00224 0.0
C1794 C 0.68995 0.59845 0.9942 0.0
C1795 C 0.7213 0.57239 0.99725 0.0
C1796 C 0.67512 0.58056 0.99861 0.0
C1797 C 0.70594 0.55496 1.00163 0.0
C1798 C 0.7337 0.666 0.03739 0.0
C1799 C 0.71455 0.66316 0.05099 0.0
C1800 C 0.74431 0.68713 0.03651 0.0
C1801 C 0.70591 0.68167 0.0629 0.0
C1802 C 0.73519 0.70522 0.04869 0.0
N1803 N 0.71631 0.70216 0.06149 0.0
C1804 C 0.74851 0.58476 0.05717 0.0
C1805 C 0.71124 0.59792 0.05034 0.0
C1806 C 0.74118 0.57281 0.07627 0.0
N1807 N 0.73353 0.59701 0.0447 0.0
C1808 C 0.70318 0.58618 0.06919 0.0
C1809 C 0.71823 0.57344 0.08247 0.0
H1810 H 0.76621 0.5846 0.05252 0.0
H1811 H 0.69975 0.60812 0.04042 0.0
C1812 C 0.70554 0.67111 0.96298 0.0
N1813 N 0.70589 0.66187 0.98408 0.0
C1814 C 0.68606 0.6819 0.95495 0.0
C1815 C 0.66737 0.6729 0.99018 0.0
C1816 C 0.68729 0.66254 0.99764 0.0
C1817 C 0.66662 0.68275 0.96858 0.0
H1818 H 0.72015 0.66959 0.95209 0.0
H1819 H 0.68762 0.65426 0.01393 0.0
O1820 O 0.77637 0.61246 0.01189 0.0
O1821 O 0.76102 0.64898 0.9767 0.0
O1822 O 0.72805 0.61171 0.98983 0.0
O1823 O 0.74256 0.64796 0.02583 0.0
H1824 H 0.81758 0.62616 1.00069 0.0
H1825 H 0.77571 0.56763 0.01208 0.0
H1826 H 0.84953 0.60067 0.99122 0.0
H1827 H 0.80833 0.54315 0.00213 0.0
H1828 H 0.75695 0.72567 0.97122 0.0
H1829 H 0.78785 0.65409 0.94119 0.0
H1830 H 0.74602 0.68939 0.98924 0.0
H1831 H 0.79786 0.69097 0.92381 0.0
H1832 H 0.81788 0.59842 0.92359 0.0
H1833 H 0.75779 0.55683 0.92086 0.0
H1834 H 0.82533 0.66633 0.06905 0.0
H1835 H 0.83953 0.69717 0.0043 0.0
H1836 H 0.68338 0.61528 0.99128 0.0
H1837 H 0.73923 0.56889 0.99675 0.0
H1838 H 0.65706 0.58353 0.99915 0.0
H1839 H 0.71197 0.53792 0.00456 0.0
H1840 H 0.70634 0.64687 0.05226 0.0
H1841 H 0.75954 0.68956 0.02667 0.0
H1842 H 0.69097 0.67973 0.07332 0.0
H1843 H 0.74317 0.72169 0.04804 0.0
H1844 H 0.75331 0.56326 0.08616 0.0
H1845 H 0.68547 0.58758 0.0737 0.0
H1846 H 0.68595 0.68878 0.93796 0.0
H1847 H 0.65261 0.67298 1.00106 0.0
Li1848 Li 0.89047 0.5236 0.74472 0.0
Li1849 Li 0.86211 0.51035 0.77155 0.0
Li1850 Li 0.89256 0.48535 0.75787 0.0
Li1851 Li 0.86263 0.49492 0.73166 0.0
C1852 C 0.90931 0.5293 0.784 0.0
N1853 N 0.93831 0.56313 0.79808 0.0
C1854 C 0.90063 0.5497 0.79225 0.0
C1855 C 0.9327 0.52599 0.78313 0.0
C1856 C 0.91559 0.56664 0.79922 0.0
C1857 C 0.94709 0.54333 0.79028 0.0
C1858 C 0.83477 0.5319 0.73857 0.0
C1859 C 0.79511 0.52296 0.74209 0.0
N1860 N 0.78989 0.542 0.73024 0.0
C1861 C 0.82904 0.55134 0.72638 0.0
C1862 C 0.8177 0.51754 0.74647 0.0
C1863 C 0.80624 0.55616 0.72236 0.0
C1864 C 0.92621 0.55078 0.7255 0.0
N1865 N 0.90557 0.55084 0.73568 0.0
C1866 C 0.90291 0.59104 0.73164 0.0
C1867 C 0.894 0.57045 0.73908 0.0
C1868 C 0.92389 0.59144 0.7205 0.0
C1869 C 0.9358 0.57104 0.71784 0.0
H1870 H 0.93505 0.53502 0.72286 0.0
H1871 H 0.87767 0.57004 0.74733 0.0
C1872 C 0.84686 0.50705 0.81662 0.0
N1873 N 0.84507 0.51969 0.79748 0.0
C1874 C 0.83693 0.51439 0.8368 0.0
C1875 C 0.82344 0.54767 0.81724 0.0
C1876 C 0.83364 0.53969 0.79743 0.0
C1877 C 0.82534 0.53514 0.83735 0.0
H1878 H 0.85665 0.49161 0.8164 0.0
H1879 H 0.83312 0.54989 0.78227 0.0
C1880 C 0.91269 0.48421 0.71634 0.0
N1881 N 0.9473 0.45954 0.69682 0.0
C1882 C 0.90807 0.46917 0.69865 0.0
C1883 C 0.9349 0.48672 0.72406 0.0
C1884 C 0.92581 0.45686 0.68901 0.0
C1885 C 0.95216 0.47408 0.71399 0.0
C1886 C 0.85935 0.45535 0.7631 0.0
C1887 C 0.86315 0.44139 0.74436 0.0
C1888 C 0.85645 0.44565 0.78448 0.0
C1889 C 0.86397 0.41794 0.74734 0.0
C1890 C 0.85746 0.42213 0.78678 0.0
N1891 N 0.86116 0.40888 0.76832 0.0
C1892 C 0.91543 0.46029 0.7911 0.0
C1893 C 0.91726 0.44297 0.75502 0.0
C1894 C 0.92608 0.44163 0.80102 0.0
N1895 N 0.91112 0.46062 0.7685 0.0
C1896 C 0.9283 0.42417 0.76414 0.0
C1897 C 0.93267 0.42319 0.78749 0.0
H1898 H 0.90975 0.47418 0.8016 0.0
H1899 H 0.91284 0.44293 0.73732 0.0
C1900 C 0.85077 0.49276 0.68559 0.0
N1901 N 0.84469 0.48543 0.70654 0.0
C1902 C 0.83957 0.48467 0.6664 0.0
C1903 C 0.81544 0.46236 0.69077 0.0
C1904 C 0.82704 0.47097 0.70951 0.0
C1905 C 0.82202 0.46884 0.66886 0.0
H1906 H 0.86481 0.50438 0.68378 0.0
H1907 H 0.82235 0.46566 0.72639 0.0
O1908 O 0.89497 0.51279 0.77651 0.0
O1909 O 0.85704 0.52685 0.74237 0.0
O1910 O 0.89554 0.49646 0.72591 0.0
O1911 O 0.85912 0.47838 0.76057 0.0
H1912 H 0.88256 0.55255 0.79295 0.0
H1913 H 0.93965 0.5102 0.77698 0.0
H1914 H 0.90913 0.58259 0.80548 0.0
H1915 H 0.96525 0.54105 0.78962 0.0
H1916 H 0.78172 0.51202 0.74811 0.0
H1917 H 0.84208 0.56255 0.72005 0.0
H1918 H 0.8218 0.5024 0.75589 0.0
H1919 H 0.80155 0.57116 0.71296 0.0
H1920 H 0.89339 0.60647 0.73437 0.0
H1921 H 0.952 0.57067 0.70927 0.0
H1922 H 0.8386 0.50412 0.85189 0.0
H1923 H 0.81489 0.56389 0.81703 0.0
H1924 H 0.89098 0.46689 0.69254 0.0
H1925 H 0.93872 0.49804 0.73791 0.0
H1926 H 0.92248 0.44512 0.67535 0.0
H1927 H 0.96941 0.47577 0.71989 0.0
H1928 H 0.86597 0.44858 0.72777 0.0
H1929 H 0.85356 0.45614 0.79918 0.0
H1930 H 0.86704 0.40697 0.73301 0.0
H1931 H 0.85533 0.41442 0.80325 0.0
H1932 H 0.92833 0.44134 0.8192 0.0
H1933 H 0.93293 0.41032 0.75307 0.0
H1934 H 0.84512 0.49007 0.64977 0.0
H1935 H 0.8017 0.4505 0.69336 0.0
Li1936 Li 0.77237 0.36009 0.49569 0.0
Li1937 Li 0.76149 0.38948 0.5221 0.0
Li1938 Li 0.73399 0.36066 0.50841 0.0
Li1939 Li 0.74671 0.38988 0.48196 0.0
C1940 C 0.77457 0.34053 0.53741 0.0
N1941 N 0.80172 0.30833 0.55775 0.0
C1942 C 0.79011 0.34689 0.55409 0.0
C1943 C 0.77274 0.31778 0.53119 0.0
C1944 C 0.8037 0.33035 0.56415 0.0
C1945 C 0.78665 0.30176 0.54163 0.0
C1946 C 0.80162 0.39346 0.49097 0.0
C1947 C 0.83482 0.39238 0.46717 0.0
N1948 N 0.84811 0.39116 0.48592 0.0
C1949 C 0.81564 0.39204 0.50999 0.0
C1950 C 0.81131 0.39358 0.46937 0.0
C1951 C 0.83909 0.39101 0.50709 0.0
C1952 C 0.79741 0.336 0.4631 0.0
N1953 N 0.79756 0.34194 0.48535 0.0
C1954 C 0.83504 0.32712 0.48964 0.0
C1955 C 0.81587 0.33759 0.49866 0.0
C1956 C 0.83559 0.32148 0.4666 0.0
C1957 C 0.81636 0.32573 0.45331 0.0
H1958 H 0.78286 0.34 0.45274 0.0
H1959 H 0.81616 0.34316 0.51601 0.0
C1960 C 0.76106 0.40014 0.56817 0.0
N1961 N 0.76934 0.40724 0.54792 0.0
C1962 C 0.76783 0.4107 0.5882 0.0
C1963 C 0.79068 0.43644 0.56609 0.0
C1964 C 0.78334 0.42545 0.54644 0.0
C1965 C 0.78337 0.42868 0.58737 0.0
H1966 H 0.7497 0.3858 0.56878 0.0
H1967 H 0.78943 0.43095 0.53007 0.0
C1968 C 0.73008 0.34152 0.46868 0.0
N1969 N 0.69892 0.31021 0.45342 0.0
C1970 C 0.71035 0.34874 0.45783 0.0
C1971 C 0.73413 0.3184 0.47152 0.0
C1972 C 0.69475 0.33264 0.4503 0.0
C1973 C 0.71812 0.30283 0.46375 0.0
C1974 C 0.72324 0.41577 0.51471 0.0
C1975 C 0.70283 0.42039 0.52572 0.0
C1976 C 0.73716 0.43363 0.50783 0.0
C1977 C 0.69663 0.44287 0.52964 0.0
C1978 C 0.73037 0.45587 0.51208 0.0
N1979 N 0.71041 0.46 0.5228 0.0
C1980 C 0.70864 0.32663 0.53186 0.0
C1981 C 0.68715 0.35226 0.50975 0.0
C1982 C 0.68889 0.31608 0.53953 0.0
N1983 N 0.70742 0.34438 0.51727 0.0
C1984 C 0.66699 0.34215 0.51688 0.0
C1985 C 0.66767 0.32387 0.53208 0.0
H1986 H 0.72489 0.32105 0.53808 0.0
H1987 H 0.68664 0.3667 0.49849 0.0
C1988 C 0.75031 0.40973 0.43822 0.0
N1989 N 0.73664 0.40746 0.45659 0.0
C1990 C 0.74251 0.42064 0.41873 0.0
C1991 C 0.70661 0.42667 0.43733 0.0
C1992 C 0.71512 0.41566 0.45647 0.0
C1993 C 0.72034 0.42918 0.41808 0.0
H1994 H 0.76702 0.40241 0.4384 0.0
H1995 H 0.70429 0.41307 0.47098 0.0
O1996 O 0.76104 0.35647 0.52747 0.0
O1997 O 0.77857 0.3939 0.4935 0.0
O1998 O 0.7453 0.35702 0.47663 0.0
O1999 O 0.72955 0.39383 0.5109 0.0
H2000 H 0.79185 0.36441 0.55907 0.0
H2001 H 0.76079 0.31256 0.51837 0.0
H2002 H 0.81586 0.33505 0.57701 0.0
H2003 H 0.78548 0.28411 0.53691 0.0
H2004 H 0.8425 0.39231 0.45054 0.0
H2005 H 0.80854 0.39114 0.52681 0.0
H2006 H 0.80084 0.39422 0.45442 0.0
H2007 H 0.85009 0.38981 0.52168 0.0
H2008 H 0.84967 0.32432 0.50034 0.0
H2009 H 0.81612 0.32147 0.43548 0.0
H2010 H 0.76126 0.40461 0.60419 0.0
H2011 H 0.80258 0.45032 0.56471 0.0
H2012 H 0.70698 0.36658 0.45549 0.0
H2013 H 0.74947 0.31256 0.47961 0.0
H2014 H 0.67932 0.33798 0.44203 0.0
H2015 H 0.72098 0.28487 0.46592 0.0
H2016 H 0.6919 0.40672 0.53117 0.0
H2017 H 0.75302 0.43038 0.4993 0.0
H2018 H 0.68087 0.4467 0.53813 0.0
H2019 H 0.74096 0.46986 0.50685 0.0
H2020 H 0.6902 0.30249 0.55176 0.0
H2021 H 0.65101 0.34873 0.51077 0.0
H2022 H 0.75343 0.42165 0.40404 0.0
H2023 H 0.68936 0.43288 0.43745 0.0
Li2024 Li 0.64561 0.51023 0.23148 0.0
Li2025 Li 0.61575 0.52198 0.25774 0.0
Li2026 Li 0.64486 0.49348 0.27025 0.0
Li2027 Li 0.61461 0.48313 0.24365 0.0
C2028 C 0.66939 0.53688 0.26323 0.0
N2029 N 0.71036 0.55906 0.26742 0.0
C2030 C 0.67009 0.56051 0.26419 0.0
C2031 C 0.6895 0.52454 0.26476 0.0
C2032 C 0.69097 0.57141 0.2662 0.0
C2033 C 0.71005 0.53605 0.26679 0.0
C2034 C 0.59701 0.52623 0.21668 0.0
C2035 C 0.55839 0.53768 0.21007 0.0
N2036 N 0.56594 0.55629 0.19881 0.0
C2037 C 0.60438 0.54532 0.20482 0.0
C2038 C 0.57383 0.52224 0.21914 0.0
C2039 C 0.58842 0.56037 0.196 0.0
C2040 C 0.66678 0.50479 0.18899 0.0
N2041 N 0.66318 0.51985 0.20603 0.0
C2042 C 0.68037 0.54944 0.18438 0.0
C2043 C 0.66985 0.5418 0.20414 0.0
C2044 C 0.68379 0.53442 0.16628 0.0
C2045 C 0.67725 0.51172 0.16892 0.0
H2046 H 0.66101 0.48751 0.19078 0.0
H2047 H 0.66616 0.55363 0.21756 0.0
C2048 C 0.58332 0.54694 0.2837 0.0
N2049 N 0.59907 0.54817 0.26696 0.0
C2050 C 0.57251 0.56657 0.29139 0.0
C2051 C 0.59424 0.5883 0.2644 0.0
C2052 C 0.60463 0.56829 0.25728 0.0
C2053 C 0.57803 0.58763 0.28177 0.0
H2054 H 0.57957 0.53084 0.29153 0.0
H2055 H 0.61751 0.56887 0.2443 0.0
C2056 C 0.66508 0.46267 0.23855 0.0
N2057 N 0.70002 0.43189 0.23389 0.0
C2058 C 0.66102 0.43952 0.24127 0.0
C2059 C 0.68683 0.4701 0.23295 0.0
C2060 C 0.67893 0.42425 0.23901 0.0
C2061 C 0.70429 0.4543 0.2308 0.0
C2062 C 0.59465 0.48083 0.28464 0.0
C2063 C 0.59966 0.46413 0.30064 0.0
C2064 C 0.57224 0.4842 0.2779 0.0
C2065 C 0.58217 0.4508 0.30933 0.0
C2066 C 0.55522 0.47051 0.28696 0.0
N2067 N 0.5605 0.45422 0.30235 0.0
C2068 C 0.66969 0.49739 0.31137 0.0
C2069 C 0.66401 0.45979 0.29867 0.0
C2070 C 0.68043 0.48957 0.33097 0.0
N2071 N 0.66181 0.4825 0.29566 0.0
C2072 C 0.67455 0.45123 0.31803 0.0
C2073 C 0.68285 0.46618 0.33453 0.0
H2074 H 0.66713 0.51536 0.30895 0.0
H2075 H 0.65685 0.44826 0.28645 0.0
C2076 C 0.58632 0.45945 0.213 0.0
N2077 N 0.59679 0.45806 0.23345 0.0
C2078 C 0.57532 0.44057 0.2039 0.0
C2079 C 0.58567 0.41929 0.23726 0.0
C2080 C 0.59651 0.43855 0.24568 0.0
C2081 C 0.5753 0.42003 0.2159 0.0
H2082 H 0.58706 0.47504 0.20345 0.0
H2083 H 0.60542 0.43766 0.26162 0.0
O2084 O 0.64906 0.52595 0.2612 0.0
O2085 O 0.6124 0.51145 0.22567 0.0
O2086 O 0.64765 0.47784 0.24045 0.0
O2087 O 0.61158 0.49389 0.27575 0.0
H2088 H 0.65468 0.57035 0.2633 0.0
H2089 H 0.68924 0.50627 0.26474 0.0
H2090 H 0.69177 0.58969 0.26681 0.0
H2091 H 0.72573 0.52668 0.26796 0.0
H2092 H 0.5404 0.53484 0.21194 0.0
H2093 H 0.62224 0.54862 0.20264 0.0
H2094 H 0.56781 0.50733 0.22786 0.0
H2095 H 0.5939 0.57531 0.18694 0.0
H2096 H 0.68494 0.56714 0.18293 0.0
H2097 H 0.67988 0.49953 0.15548 0.0
H2098 H 0.56055 0.56536 0.30523 0.0
H2099 H 0.59902 0.60417 0.25658 0.0
H2100 H 0.64427 0.4334 0.24528 0.0
H2101 H 0.69021 0.48784 0.23004 0.0
H2102 H 0.67604 0.40631 0.24129 0.0
H2103 H 0.72122 0.45985 0.22657 0.0
H2104 H 0.61686 0.46143 0.30623 0.0
H2105 H 0.56803 0.49725 0.26581 0.0
H2106 H 0.58582 0.43773 0.32163 0.0
H2107 H 0.53782 0.47287 0.2818 0.0
H2108 H 0.68608 0.50165 0.34354 0.0
H2109 H 0.67593 0.43308 0.32022 0.0
H2110 H 0.56725 0.44192 0.1875 0.0
H2111 H 0.58616 0.40373 0.24694 0.0
C2112 C 0.04083 0.38927 0.29117 0.0
C2113 C 0.06342 0.39499 0.29604 0.0
C2114 C 0.03138 0.36893 0.29909 0.0
C2115 C 0.04434 0.35344 0.31174 0.0
H2116 H 0.03027 0.40085 0.28164 0.0
H2117 H 0.01381 0.3653 0.29533 0.0
S2118 S 0.10451 0.36022 0.32831 0.0
N2119 N 0.09864 0.38336 0.31378 0.0
N2120 N 0.08096 0.34516 0.32856 0.0
C2121 C 0.06706 0.3588 0.3163 0.0
C2122 C 0.07658 0.37957 0.30848 0.0
C2123 C 0.88419 0.78826 0.54749 0.0
C2124 C 0.89804 0.80084 0.56231 0.0
C2125 C 0.86435 0.79759 0.53827 0.0
C2126 C 0.85775 0.81987 0.54339 0.0
H2127 H 0.88883 0.77115 0.54281 0.0
H2128 H 0.85426 0.78743 0.52682 0.0
S2129 S 0.88666 0.85914 0.58287 0.0
N2130 N 0.90263 0.83621 0.58292 0.0
N2131 N 0.86572 0.85379 0.56518 0.0
C2132 C 0.87119 0.83249 0.5584 0.0
C2133 C 0.89123 0.82298 0.56794 0.0
C2134 C 0.4561 0.60498 0.81186 0.0
C2135 C 0.44019 0.60503 0.79414 0.0
C2136 C 0.46472 0.62528 0.82068 0.0
C2137 C 0.45748 0.64639 0.81233 0.0
H2138 H 0.46181 0.58911 0.81906 0.0
H2139 H 0.47669 0.62447 0.83455 0.0
S2140 S 0.41639 0.65576 0.76582 0.0
N2141 N 0.41778 0.62796 0.76836 0.0
N2142 N 0.43396 0.6661 0.78496 0.0
C2143 C 0.4418 0.64666 0.79444 0.0
C2144 C 0.4332 0.626 0.7853 0.0
C2145 C 0.62381 0.22236 0.05765 0.0
C2146 C 0.60518 0.20854 0.06305 0.0
C2147 C 0.64347 0.21323 0.04788 0.0
C2148 C 0.64527 0.18992 0.04324 0.0
H2149 H 0.62313 0.2404 0.06091 0.0
H2150 H 0.65732 0.22454 0.04382 0.0
S2151 S 0.60194 0.14625 0.05612 0.0
N2152 N 0.59017 0.17029 0.06414 0.0
N2153 N 0.62713 0.15306 0.04612 0.0
C2154 C 0.62683 0.1759 0.04886 0.0
C2155 C 0.6068 0.18522 0.05867 0.0
C2156 C 0.04271 0.60564 0.20493 0.0
C2157 C 0.06579 0.60474 0.21075 0.0
C2158 C 0.03305 0.62546 0.19603 0.0
C2159 C 0.04604 0.6452 0.19289 0.0
H2160 H 0.03216 0.59077 0.2068 0.0
H2161 H 0.01529 0.62532 0.1915 0.0
S2162 S 0.10705 0.65187 0.20622 0.0
N2163 N 0.10119 0.62553 0.21349 0.0
N2164 N 0.08316 0.6626 0.19648 0.0
C2165 C 0.06904 0.64462 0.19903 0.0
C2166 C 0.07888 0.62444 0.20799 0.0
C2167 C 0.62284 0.7876 0.44699 0.0
C2168 C 0.60507 0.80164 0.4396 0.0
C2169 C 0.64255 0.79674 0.45663 0.0
C2170 C 0.64512 0.82025 0.45947 0.0
H2171 H 0.62168 0.76941 0.44494 0.0
H2172 H 0.65584 0.7853 0.46199 0.0
S2173 S 0.60338 0.86431 0.44322 0.0
N2174 N 0.59112 0.8402 0.43622 0.0
N2175 N 0.62824 0.85739 0.45394 0.0
C2176 C 0.62739 0.83446 0.45231 0.0
C2177 C 0.60737 0.82516 0.44245 0.0
C2178 C 0.4691 0.37387 0.6941 0.0
C2179 C 0.45545 0.35521 0.6883 0.0
C2180 C 0.45965 0.39365 0.70333 0.0
C2181 C 0.43617 0.3956 0.70679 0.0
H2182 H 0.48723 0.37317 0.69148 0.0
H2183 H 0.47074 0.40769 0.70732 0.0
S2184 S 0.39309 0.35152 0.69475 0.0
N2185 N 0.41726 0.33996 0.68682 0.0
N2186 N 0.39959 0.37694 0.70438 0.0
C2187 C 0.42238 0.37698 0.70131 0.0
C2188 C 0.432 0.35683 0.69204 0.0
C2189 C 0.87791 0.20754 0.92843 0.0
C2190 C 0.89594 0.21413 0.94255 0.0
C2191 C 0.85799 0.19826 0.93741 0.0
C2192 C 0.85532 0.19515 0.96087 0.0
H2193 H 0.87939 0.20909 0.91021 0.0
H2194 H 0.84481 0.19295 0.92583 0.0
S2195 S 0.89652 0.21159 0.0053 0.0
N2196 N 0.90919 0.21827 0.98129 0.0
N2197 N 0.87178 0.20073 0.99816 0.0
C2198 C 0.87298 0.20213 0.97523 0.0
C2199 C 0.89327 0.21162 0.96608 0.0
C2200 C 0.30133 0.07486 0.38178 0.0
C2201 C 0.29571 0.06149 0.4007 0.0
C2202 C 0.30993 0.06513 0.36191 0.0
C2203 C 0.31338 0.04163 0.36016 0.0
H2204 H 0.29903 0.09305 0.38231 0.0
H2205 H 0.31434 0.07619 0.34796 0.0
S2206 S 0.30097 0.99903 0.40464 0.0
N2207 N 0.2941 0.02347 0.41635 0.0
N2208 N 0.30987 0.00512 0.37884 0.0
C2209 C 0.30759 0.02801 0.37884 0.0
C2210 C 0.29879 0.03793 0.39909 0.0
C2211 C 0.18303 0.06805 0.64165 0.0
C2212 C 0.19031 0.04667 0.64924 0.0
C2213 C 0.19107 0.07727 0.62131 0.0
C2214 C 0.20686 0.06558 0.60783 0.0
H2215 H 0.17074 0.07759 0.65135 0.0
H2216 H 0.18497 0.09378 0.61616 0.0
S2217 S 0.23145 0.00915 0.62022 0.0
N2218 N 0.2144 0.01416 0.64181 0.0
N2219 N 0.22942 0.03146 0.60348 0.0
C2220 C 0.2144 0.04426 0.61528 0.0
C2221 C 0.2061 0.0348 0.63596 0.0
C2222 C 0.20832 0.9648 0.86395 0.0
C2223 C 0.18533 0.96126 0.85885 0.0
C2224 C 0.21795 0.95612 0.88388 0.0
C2225 C 0.20495 0.94357 0.89942 0.0
H2226 H 0.21888 0.97457 0.85257 0.0
H2227 H 0.23567 0.95941 0.88725 0.0
S2228 S 0.14458 0.92763 0.89279 0.0
N2229 N 0.1502 0.94314 0.87022 0.0
N2230 N 0.16829 0.92676 0.90754 0.0
C2231 C 0.18205 0.93958 0.89429 0.0
C2232 C 0.17226 0.94843 0.87405 0.0
C2233 C 0.31678 0.94142 0.11197 0.0
C2234 C 0.29346 0.9434 0.10752 0.0
C2235 C 0.32632 0.9503 0.13179 0.0
C2236 C 0.31295 0.96151 0.14801 0.0
H2237 H 0.32772 0.93255 0.10023 0.0
H2238 H 0.3443 0.94804 0.13462 0.0
S2239 S 0.25135 0.97277 0.14372 0.0
N2240 N 0.25742 0.95849 0.12046 0.0
N2241 N 0.27539 0.97509 0.1578 0.0
C2242 C 0.28967 0.96388 0.14369 0.0
C2243 C 0.27993 0.95486 0.12344 0.0
C2244 C 0.35713 0.29677 0.06167 0.0
C2245 C 0.35757 0.31276 0.04401 0.0
C2246 C 0.37718 0.28762 0.07053 0.0
C2247 C 0.3985 0.29419 0.06217 0.0
H2248 H 0.34114 0.29135 0.06882 0.0
H2249 H 0.37597 0.27574 0.08445 0.0
S2250 S 0.40901 0.33501 0.01559 0.0
N2251 N 0.38121 0.33462 0.01834 0.0
N2252 N 0.4188 0.31699 0.03457 0.0
C2253 C 0.39918 0.30983 0.04421 0.0
C2254 C 0.37877 0.31917 0.03521 0.0
C2255 C 0.93756 0.85896 0.18877 0.0
C2256 C 0.96079 0.85466 0.19174 0.0
C2257 C 0.9277 0.87909 0.19656 0.0
C2258 C 0.94063 0.89559 0.20788 0.0
H2259 H 0.92701 0.84689 0.17986 0.0
H2260 H 0.90979 0.8818 0.19369 0.0
S2261 S 0.00197 0.89219 0.22065 0.0
N2262 N 0.99635 0.86829 0.20728 0.0
N2263 N 0.97778 0.90615 0.22199 0.0
C2264 C 0.96377 0.89132 0.21137 0.0
C2265 C 0.97387 0.87089 0.20324 0.0
C2266 C 0.1467 0.71193 0.56083 0.0
C2267 C 0.14608 0.69372 0.54549 0.0
C2268 C 0.12676 0.72086 0.57012 0.0
C2269 C 0.10543 0.71193 0.56445 0.0
H2270 H 0.16275 0.7193 0.56576 0.0
H2271 H 0.12807 0.73483 0.58194 0.0
S2272 S 0.09458 0.66352 0.52597 0.0
N2273 N 0.12235 0.66664 0.52555 0.0
N2274 N 0.08491 0.68347 0.54299 0.0
C2275 C 0.10454 0.69383 0.54902 0.0
C2276 C 0.12484 0.68472 0.53956 0.0
C2277 C 0.96422 0.63957 0.70595 0.0
C2278 C 0.9513 0.65302 0.69114 0.0
C2279 C 0.95524 0.61972 0.7155 0.0
C2280 C 0.93291 0.61285 0.71085 0.0
H2281 H 0.98158 0.64412 0.70973 0.0
H2282 H 0.96583 0.60967 0.72659 0.0
S2283 S 0.89191 0.64261 0.67372 0.0
N2284 N 0.91492 0.65845 0.67278 0.0
N2285 N 0.89807 0.6212 0.6906 0.0
C2286 C 0.91971 0.62641 0.6964 0.0
C2287 C 0.9289 0.64646 0.68656 0.0
C2288 C 0.12972 0.17923 0.45068 0.0
C2289 C 0.14893 0.19293 0.45401 0.0
C2290 C 0.10951 0.18822 0.4421 0.0
C2291 C 0.10771 0.21126 0.43635 0.0
H2292 H 0.13029 0.16136 0.45478 0.0
H2293 H 0.09532 0.17691 0.43951 0.0
S2294 S 0.15288 0.25449 0.44229 0.0
N2295 N 0.16479 0.23077 0.4511 0.0
N2296 N 0.12669 0.24776 0.43522 0.0
C2297 C 0.12669 0.22523 0.43984 0.0
C2298 C 0.14728 0.21607 0.44867 0.0
C2299 C 0.5503 0.38574 0.21836 0.0
C2300 C 0.56548 0.39916 0.20583 0.0
C2301 C 0.54129 0.36567 0.20933 0.0
C2302 C 0.54742 0.35812 0.18758 0.0
H2303 H 0.54527 0.39084 0.23524 0.0
H2304 H 0.52972 0.35581 0.21959 0.0
S2305 S 0.58654 0.3871 0.14789 0.0
N2306 N 0.5863 0.4034 0.17059 0.0
N2307 N 0.56924 0.36589 0.15357 0.0
C2308 C 0.56252 0.37143 0.17486 0.0
C2309 C 0.57155 0.3919 0.18398 0.0
C2310 C 0.37314 0.82973 0.95351 0.0
C2311 C 0.35483 0.81559 0.95929 0.0
C2312 C 0.39297 0.82092 0.9439 0.0
C2313 C 0.3954 0.79759 0.93975 0.0
H2314 H 0.37199 0.84785 0.95608 0.0
H2315 H 0.40655 0.83251 0.9397 0.0
S2316 S 0.35264 0.75324 0.95205 0.0
N2317 N 0.34064 0.77699 0.9606 0.0
N2318 N 0.37772 0.76049 0.94208 0.0
C2319 C 0.37732 0.78322 0.9456 0.0
C2320 C 0.35708 0.7922 0.95539 0.0
C2321 C 0.93512 0.3809 0.79093 0.0
C2322 C 0.94279 0.40243 0.79772 0.0
C2323 C 0.94382 0.36105 0.80061 0.0
C2324 C 0.96053 0.36184 0.81758 0.0
H2325 H 0.92197 0.37932 0.77825 0.0
H2326 H 0.93741 0.34493 0.79468 0.0
S2327 S 0.98646 0.41394 0.8414 0.0
N2328 N 0.96858 0.42329 0.82208 0.0
N2329 N 0.98414 0.3861 0.84105 0.0
C2330 C 0.96838 0.38326 0.82454 0.0
C2331 C 0.95967 0.40349 0.8145 0.0
C2332 C 0.36747 0.20633 0.53643 0.0
C2333 C 0.35698 0.18762 0.54683 0.0
C2334 C 0.38789 0.21522 0.54475 0.0
C2335 C 0.39873 0.20562 0.56367 0.0
H2336 H 0.35972 0.21433 0.52186 0.0
H2337 H 0.39535 0.22961 0.53618 0.0
S2338 S 0.37836 0.15644 0.59706 0.0
N2339 N 0.35926 0.15957 0.57691 0.0
N2340 N 0.39718 0.17666 0.59288 0.0
C2341 C 0.38841 0.18694 0.57425 0.0
C2342 C 0.36766 0.17788 0.56578 0.0
C2343 C 0.57346 0.64726 0.3056 0.0
C2344 C 0.55014 0.64976 0.30974 0.0
C2345 C 0.58221 0.62731 0.29617 0.0
C2346 C 0.56802 0.60897 0.29067 0.0
H2347 H 0.58508 0.66082 0.30978 0.0
H2348 H 0.60033 0.62605 0.29365 0.0
S2349 S 0.50567 0.60705 0.29777 0.0
N2350 N 0.51298 0.63223 0.30746 0.0
N2351 N 0.5294 0.59488 0.2894 0.0
C2352 C 0.54464 0.61135 0.29443 0.0
C2353 C 0.53571 0.63171 0.30398 0.0
C2354 C 0.1086 0.8037 0.04481 0.0
C2355 C 0.10851 0.79328 0.06623 0.0
C2356 C 0.12834 0.81365 0.03607 0.0
C2357 C 0.14865 0.8138 0.04854 0.0
H2358 H 0.09331 0.8041 0.0347 0.0
H2359 H 0.12757 0.8217 0.01961 0.0
S2360 S 0.15733 0.78876 0.10549 0.0
N2361 N 0.13043 0.78384 0.09976 0.0
N2362 N 0.16754 0.80221 0.08322 0.0
C2363 C 0.1488 0.80331 0.06992 0.0
C2364 C 0.12875 0.79312 0.07877 0.0
C2365 C 0.68656 0.93418 0.6146 0.0
C2366 C 0.70676 0.94341 0.60602 0.0
C2367 C 0.67717 0.94201 0.63495 0.0
C2368 C 0.68746 0.95957 0.64732 0.0
H2369 H 0.67818 0.9205 0.60571 0.0
H2370 H 0.66164 0.93436 0.64099 0.0
S2371 S 0.74035 0.98966 0.63194 0.0
N2372 N 0.73665 0.97116 0.6113 0.0
N2373 N 0.71889 0.986 0.6495 0.0
C2374 C 0.70752 0.96912 0.63881 0.0
C2375 C 0.71722 0.96097 0.6182 0.0
C2376 C 0.82447 0.95327 0.37244 0.0
C2377 C 0.81086 0.95859 0.35362 0.0
C2378 C 0.81494 0.94559 0.39278 0.0
C2379 C 0.79141 0.94275 0.39508 0.0
H2380 H 0.84269 0.95507 0.37146 0.0
H2381 H 0.82615 0.94135 0.40665 0.0
S2382 S 0.74823 0.95478 0.3511 0.0
N2383 N 0.77257 0.9607 0.3387 0.0
N2384 N 0.75463 0.94655 0.37704 0.0
C2385 C 0.77756 0.94829 0.37652 0.0
C2386 C 0.78727 0.95619 0.3558 0.0
C2387 C 0.81414 0.05844 0.10541 0.0
C2388 C 0.79082 0.06302 0.10395 0.0
C2389 C 0.82371 0.04957 0.12521 0.0
C2390 C 0.81036 0.0448 0.14437 0.0
H2391 H 0.82522 0.06225 0.0913 0.0
H2392 H 0.84178 0.04644 0.12553 0.0
S2393 S 0.74828 0.05296 0.14906 0.0
N2394 N 0.75443 0.06132 0.1231 0.0
N2395 N 0.77252 0.04507 0.16053 0.0
C2396 C 0.78695 0.04892 0.14304 0.0
C2397 C 0.77718 0.05798 0.12283 0.0
C2398 C 0.69346 0.0708 0.85662 0.0
C2399 C 0.69043 0.04732 0.854 0.0
C2400 C 0.70325 0.07983 0.87627 0.0
C2401 C 0.71029 0.06577 0.89417 0.0
H2402 H 0.68813 0.08234 0.8434 0.0
H2403 H 0.70483 0.09805 0.87765 0.0
S2404 S 0.70665 0.00309 0.89557 0.0
N2405 N 0.69545 0.01014 0.87095 0.0
N2406 N 0.71427 0.0271 0.90767 0.0
C2407 C 0.7077 0.04223 0.89164 0.0
C2408 C 0.69774 0.03302 0.8716 0.0
C2409 C 0.60521 0.688 0.95022 0.0
C2410 C 0.60424 0.70985 0.94079 0.0
C2411 C 0.6253 0.67961 0.9597 0.0
C2412 C 0.64526 0.69261 0.95975 0.0
H2413 H 0.59032 0.6773 0.95019 0.0
H2414 H 0.62538 0.66259 0.96653 0.0
S2415 S 0.65159 0.7509 0.93737 0.0
N2416 N 0.62487 0.74441 0.93232 0.0
N2417 N 0.66268 0.72856 0.95 0.0
C2418 C 0.64446 0.71454 0.95055 0.0
C2419 C 0.62394 0.72319 0.94115 0.0
C2420 C 0.07599 0.12576 0.80734 0.0
C2421 C 0.06226 0.109 0.79744 0.0
C2422 C 0.06667 0.14582 0.81592 0.0
C2423 C 0.04321 0.14986 0.81513 0.0
H2424 H 0.09414 0.1234 0.80836 0.0
H2425 H 0.0779 0.1581 0.82361 0.0
S2426 S 0.99987 0.11146 0.79086 0.0
N2427 N 0.024 0.09777 0.78733 0.0
N2428 N 0.00647 0.1356 0.80332 0.0
C2429 C 0.02928 0.1333 0.8052 0.0
C2430 C 0.0388 0.11289 0.79633 0.0
C2431 C 0.88647 0.28345 0.45629 0.0
C2432 C 0.8972 0.29382 0.43773 0.0
C2433 C 0.86658 0.29253 0.46561 0.0
C2434 C 0.85649 0.31203 0.45639 0.0
H2435 H 0.89362 0.26831 0.46378 0.0
H2436 H 0.8589 0.28412 0.47998 0.0
S2437 S 0.87778 0.34538 0.40765 0.0
N2438 N 0.89621 0.32454 0.41039 0.0
N2439 N 0.85881 0.34154 0.42783 0.0
C2440 C 0.867 0.32249 0.43777 0.0
C2441 C 0.88737 0.31341 0.42847 0.0
C2442 C 0.55979 0.87849 0.78424 0.0
C2443 C 0.55529 0.899 0.7955 0.0
C2444 C 0.55134 0.85786 0.79244 0.0
C2445 C 0.53782 0.85701 0.81204 0.0
H2446 H 0.57052 0.8783 0.76936 0.0
H2447 H 0.55557 0.84242 0.78351 0.0
S2448 S 0.52054 0.90598 0.84734 0.0
N2449 N 0.53591 0.91724 0.82688 0.0
N2450 N 0.52016 0.87848 0.84237 0.0
C2451 C 0.53279 0.87744 0.82317 0.0
C2452 C 0.54151 0.89841 0.81491 0.0
C2453 C 0.9365 0.14207 0.30507 0.0
C2454 C 0.95977 0.1432 0.31001 0.0
C2455 C 0.92675 0.12228 0.29633 0.0
C2456 C 0.93989 0.10289 0.29199 0.0
H2457 H 0.92562 0.15642 0.30851 0.0
H2458 H 0.90872 0.12215 0.29296 0.0
S2459 S 1.00174 0.09732 0.30123 0.0
N2460 N 0.99586 0.12346 0.30923 0.0
N2461 N 0.97747 0.08616 0.29302 0.0
C2462 C 0.96325 0.10391 0.29645 0.0
C2463 C 0.97318 0.12406 0.30545 0.0
C2464 C 0.57597 0.12144 0.69638 0.0
C2465 C 0.56171 0.10418 0.70455 0.0
C2466 C 0.56711 0.14157 0.68747 0.0
C2467 C 0.54362 0.1453 0.68629 0.0
H2468 H 0.59418 0.11945 0.69702 0.0
H2469 H 0.57881 0.1542 0.68116 0.0
S2470 S 0.49892 0.10555 0.70553 0.0
N2471 N 0.52286 0.09208 0.7107 0.0
N2472 N 0.50622 0.13018 0.6945 0.0
C2473 C 0.52914 0.12824 0.69451 0.0
C2474 C 0.53817 0.10769 0.70356 0.0
C2475 C 0.14533 0.30782 0.94065 0.0
C2476 C 0.14749 0.31083 0.96415 0.0
C2477 C 0.1255 0.29885 0.9312 0.0
C2478 C 0.10708 0.29238 0.94491 0.0
H2479 H 0.15887 0.31297 0.9294 0.0
H2480 H 0.12441 0.29746 0.91295 0.0
S2481 S 0.10522 0.29482 0.00768 0.0
N2482 N 0.13019 0.30551 1.00106 0.0
N2483 N 0.09303 0.28821 0.9834 0.0
C2484 C 0.1093 0.29477 0.96852 0.0
C2485 C 0.12946 0.30408 0.97811 0.0
C2486 C 0.39108 0.71587 0.46069 0.0
C2487 C 0.39918 0.70841 0.43957 0.0
C2488 C 0.37046 0.7079 0.46945 0.0
C2489 C 0.35705 0.69242 0.45725 0.0
H2490 H 0.40095 0.72766 0.47069 0.0
H2491 H 0.36491 0.71396 0.48584 0.0
S2492 S 0.37046 0.66815 0.40085 0.0
N2493 N 0.39188 0.6852 0.40639 0.0
N2494 N 0.35346 0.6699 0.42296 0.0
C2495 C 0.36488 0.68504 0.436 0.0
C2496 C 0.38585 0.69309 0.42714 0.0
C2497 C 0.7938 0.55261 0.85983 0.0
C2498 C 0.81609 0.54427 0.85892 0.0
C2499 C 0.78505 0.56219 0.87974 0.0
C2500 C 0.79836 0.56405 0.8994 0.0
H2501 H 0.78305 0.55178 0.845 0.0
H2502 H 0.76792 0.56873 0.87955 0.0
S2503 S 0.85764 0.54448 0.90604 0.0
N2504 N 0.85124 0.53838 0.87952 0.0
N2505 N 0.8347 0.55611 0.91696 0.0
C2506 C 0.82057 0.5555 0.89882 0.0
C2507 C 0.82944 0.54566 0.8786 0.0
C2508 C 0.71283 0.55629 0.14429 0.0
C2509 C 0.69319 0.54282 0.14447 0.0
C2510 C 0.72122 0.56553 0.12407 0.0
C2511 C 0.71013 0.56187 0.1033 0.0
H2512 H 0.72169 0.55987 0.15994 0.0
H2513 H 0.73613 0.57618 0.1248 0.0
S2514 S 0.65842 0.5274 0.09447 0.0
N2515 N 0.66307 0.52602 0.122 0.0
N2516 N 0.679 0.54316 0.08402 0.0
C2517 C 0.69073 0.54809 0.10318 0.0
C2518 C 0.68225 0.53859 0.12374 0.0
C2519 C 0.69014 0.43183 0.38845 0.0
C2520 C 0.71106 0.43936 0.397 0.0
C2521 C 0.68125 0.44054 0.36825 0.0
C2522 C 0.69282 0.45727 0.35586 0.0
H2523 H 0.6807 0.41882 0.39728 0.0
H2524 H 0.66507 0.43423 0.36236 0.0
S2525 S 0.74805 0.48297 0.37105 0.0
N2526 N 0.74296 0.46479 0.39167 0.0
N2527 N 0.72633 0.48103 0.35356 0.0
C2528 C 0.71367 0.46509 0.36427 0.0
C2529 C 0.72279 0.45613 0.38482 0.0
C2530 C 0.80327 0.472 0.63083 0.0
C2531 C 0.81144 0.45838 0.64859 0.0
C2532 C 0.79399 0.46232 0.6112 0.0
C2533 C 0.79262 0.43867 0.60857 0.0
H2534 H 0.80401 0.49027 0.63216 0.0
H2535 H 0.78778 0.47344 0.59801 0.0
S2536 S 0.81353 0.39565 0.64934 0.0
N2537 N 0.81863 0.42012 0.66182 0.0
N2538 N 0.80148 0.40193 0.62492 0.0
C2539 C 0.80098 0.4249 0.62614 0.0
C2540 C 0.81031 0.43475 0.64613 0.0
C2541 C 0.45906 0.10972 0.20363 0.0
C2542 C 0.43687 0.10912 0.2123 0.0
C2543 C 0.46814 0.12961 0.19432 0.0
C2544 C 0.45539 0.14972 0.19322 0.0
H2545 H 0.46955 0.09469 0.20406 0.0
H2546 H 0.48516 0.12908 0.18752 0.0
S2547 S 0.39652 0.15731 0.21383 0.0
N2548 N 0.40228 0.13046 0.21898 0.0
N2549 N 0.41964 0.16796 0.20231 0.0
C2550 C 0.43328 0.14944 0.20209 0.0
C2551 C 0.42398 0.12916 0.21145 0.0
C2552 C 0.05608 0.86066 0.70958 0.0
C2553 C 0.04322 0.86054 0.68953 0.0
C2554 C 0.06509 0.88085 0.71828 0.0
C2555 C 0.06182 0.90165 0.70711 0.0
H2556 H 0.05917 0.84502 0.71864 0.0
H2557 H 0.07508 0.8801 0.73364 0.0
S2558 S 0.02942 0.91053 0.65407 0.0
N2559 N 0.02773 0.88302 0.65872 0.0
N2560 N 0.04448 0.92094 0.67519 0.0
C2561 C 0.0489 0.90178 0.68713 0.0
C2562 C 0.03961 0.88126 0.67834 0.0
C2563 C 0.46564 0.8653 0.29568 0.0
C2564 C 0.45753 0.85686 0.31644 0.0
C2565 C 0.45713 0.8855 0.28644 0.0
C2566 C 0.44046 0.89817 0.29781 0.0
H2567 H 0.47841 0.85603 0.28633 0.0
H2568 H 0.46371 0.8913 0.27034 0.0
S2569 S 0.41386 0.88364 0.35281 0.0
N2570 N 0.43216 0.86301 0.34827 0.0
N2571 N 0.41603 0.90074 0.33081 0.0
C2572 C 0.43235 0.89001 0.31865 0.0
C2573 C 0.4409 0.86942 0.32797 0.0
C2574 C 0.87209 0.67882 0.05808 0.0
C2575 C 0.85628 0.69306 0.04738 0.0
C2576 C 0.89242 0.68741 0.06682 0.0
C2577 C 0.89756 0.71063 0.06548 0.0
H2578 H 0.86881 0.66083 0.0595 0.0
H2579 H 0.90406 0.67585 0.07501 0.0
S2580 S 0.86183 0.75505 0.03921 0.0
N2581 N 0.84713 0.73149 0.03593 0.0
N2582 N 0.88531 0.74768 0.05248 0.0
C2583 C 0.88189 0.72506 0.05487 0.0
C2584 C 0.86129 0.71627 0.04575 0.0
C2585 C 0.60922 0.31964 0.55879 0.0
C2586 C 0.6057 0.29616 0.56073 0.0
C2587 C 0.62908 0.32837 0.54916 0.0
C2588 C 0.64632 0.31399 0.54117 0.0
H2589 H 0.59651 0.33141 0.5648 0.0
H2590 H 0.63114 0.34658 0.54842 0.0
S2591 S 0.64532 0.25119 0.54186 0.0
N2592 N 0.62115 0.25864 0.55375 0.0
N2593 N 0.65824 0.27506 0.53518 0.0
C2594 C 0.64291 0.29047 0.54271 0.0
C2595 C 0.62266 0.28156 0.55253 0.0
C2596 C 0.19845 0.45723 0.11176 0.0
C2597 C 0.21072 0.4368 0.11173 0.0
C2598 C 0.18919 0.46601 0.13181 0.0
C2599 C 0.19165 0.45457 0.15258 0.0
H2600 H 0.19595 0.46649 0.09613 0.0
H2601 H 0.1796 0.4816 0.13095 0.0
S2602 S 0.22248 0.40064 0.16176 0.0
N2603 N 0.22487 0.40543 0.13432 0.0
N2604 N 0.20779 0.4221 0.172 0.0
C2605 C 0.2041 0.43428 0.15284 0.0
C2606 C 0.21358 0.42539 0.13245 0.0
C2607 C 0.32001 0.46377 0.87887 0.0
C2608 C 0.31128 0.45749 0.8576 0.0
C2609 C 0.31105 0.45486 0.89899 0.0
C2610 C 0.29288 0.43948 0.89865 0.0
H2611 H 0.3342 0.47533 0.87998 0.0
H2612 H 0.3184 0.46009 0.91496 0.0
S2613 S 0.26366 0.41786 0.8474 0.0
N2614 N 0.28308 0.43533 0.83746 0.0
N2615 N 0.26653 0.41826 0.8752 0.0
C2616 C 0.28384 0.43322 0.8775 0.0
C2617 C 0.293 0.44226 0.85702 0.0
C2618 C 0.29409 0.57714 0.62801 0.0
C2619 C 0.29557 0.56583 0.60707 0.0
C2620 C 0.30305 0.56763 0.64783 0.0
C2621 C 0.3138 0.54638 0.64758 0.0
H2622 H 0.28625 0.59368 0.62905 0.0
H2623 H 0.30148 0.577 0.66351 0.0
S2624 S 0.32195 0.50968 0.5972 0.0
N2625 N 0.30819 0.53195 0.58741 0.0
N2626 N 0.32563 0.51438 0.62451 0.0
C2627 C 0.31532 0.53482 0.62678 0.0
C2628 C 0.30613 0.54449 0.60659 0.0
C2629 C 0.1788 0.55218 0.37776 0.0
C2630 C 0.19222 0.54692 0.35879 0.0
C2631 C 0.18838 0.5611 0.39755 0.0
C2632 C 0.21177 0.56523 0.39916 0.0
H2633 H 0.16068 0.54938 0.37733 0.0
H2634 H 0.17726 0.56528 0.41153 0.0
S2635 S 0.25449 0.55382 0.35454 0.0
N2636 N 0.2302 0.54626 0.34296 0.0
N2637 N 0.24828 0.56262 0.38034 0.0
C2638 C 0.22546 0.55972 0.38045 0.0
C2639 C 0.2157 0.55061 0.36027 0.0
loop_
_geom_bond_atom_site_label_1
_geom_bond_atom_site_label_2
_geom_bond_distance
_geom_bond_site_symmetry_2
_ccdc_geom_bond_type
Li0 N17 1.990 . S
Li0 O60 1.956 . S
Li0 O61 1.970 . S
Li0 O62 1.961 1_455 S
Li1 N25 1.990 . S
Li1 O60 1.970 . S
Li1 O61 1.956 . S
Li1 O63 1.961 1_455 S
Li2 N47 1.990 . S
Li2 O60 1.961 1_655 S
Li2 O62 1.956 . S
Li2 O63 1.970 . S
Li3 N53 1.990 . S
Li3 O61 1.961 1_655 S
Li3 O62 1.970 . S
Li3 O63 1.956 . S
C4 C6 1.348 . S
C4 C7 1.356 . S
C4 O60 1.325 . S
N5 C8 1.314 . S
N5 C9 1.279 . S
C6 C4 1.348 . S
C6 C8 1.353 . S
C6 H64 0.929 . S
C7 C4 1.356 . S
C7 C9 1.358 . S
C7 H65 0.930 . S
C8 N5 1.314 . S
C8 C6 1.353 . S
C8 H66 0.930 . S
C9 N5 1.279 . S
C9 C7 1.358 . S
C9 H67 0.930 . S
C10 C13 1.348 . S
C10 C14 1.356 . S
C10 O61 1.325 . S
C11 N12 1.279 . S
C11 C14 1.358 . S
C11 H68 0.930 . S
N12 C11 1.279 . S
N12 C15 1.314 . S
C13 C10 1.348 . S
C13 C15 1.353 . S
C13 H69 0.929 . S
C14 C10 1.356 . S
C14 C11 1.358 . S
C14 H70 0.930 . S
C15 N12 1.314 . S
C15 C13 1.353 . S
C15 H71 0.930 . S
C16 N17 1.314 . S
C16 C21 1.353 . S
C16 H22 0.930 1_455 S
N17 Li0 1.990 . S
N17 C16 1.314 . S
N17 C19 1.279 . S
C18 C19 1.358 . S
C18 C20 1.356 . S
C18 H72 0.930 . S
C19 N17 1.279 . S
C19 C18 1.358 . S
C19 H23 0.930 . S
C20 C18 1.356 . S
C20 C21 1.348 . S
C21 C16 1.353 . S
C21 C20 1.348 . S
C21 H73 0.929 . S
H22 C16 0.930 1_655 S
H23 C19 0.930 . S
C24 N25 1.314 . S
C24 C26 1.353 . S
C24 H30 0.930 . S
N25 Li1 1.990 . S
N25 C24 1.314 . S
N25 C28 1.279 . S
C26 C24 1.353 . S
C26 C29 1.348 . S
C26 H74 0.929 . S
C27 C28 1.358 . S
C27 C29 1.356 . S
C27 H75 0.930 . S
C28 N25 1.279 . S
C28 C27 1.358 . S
C28 H31 0.930 . S
C29 C26 1.348 . S
C29 C27 1.356 . S
H30 C24 0.930 . S
H31 C28 0.930 . S
C32 C34 1.348 . S
C32 C35 1.356 . S
C32 O62 1.325 . S
N33 C36 1.314 . S
N33 C37 1.279 . S
C34 C32 1.348 . S
C34 C36 1.353 . S
C34 H76 0.929 . S
C35 C32 1.356 . S
C35 C37 1.358 . S
C35 H77 0.930 . S
C36 N33 1.314 . S
C36 C34 1.353 . S
C36 H78 0.930 . S
C37 N33 1.279 . S
C37 C35 1.358 . S
C37 H79 0.930 . S
C38 C39 1.348 . S
C38 C40 1.356 . S
C38 O63 1.325 . S
C39 C38 1.348 . S
C39 C41 1.353 . S
C39 H80 0.929 . S
C40 C38 1.356 . S
C40 C42 1.358 . S
C40 H81 0.930 . S
C41 C39 1.353 . S
C41 N43 1.314 . S
C41 H82 0.930 . S
C42 C40 1.358 . S
C42 N43 1.279 . S
C42 H83 0.930 . S
N43 C41 1.314 . S
N43 C42 1.279 . S
C44 C46 1.353 . S
C44 N47 1.314 . S
C44 H50 0.930 1_655 S
C45 N47 1.279 . S
C45 C48 1.358 . S
C45 H51 0.930 . S
C46 C44 1.353 . S
C46 C49 1.348 . S
C46 H84 0.929 . S
N47 Li2 1.990 . S
N47 C44 1.314 . S
N47 C45 1.279 . S
C48 C45 1.358 . S
C48 C49 1.356 . S
C48 H85 0.930 . S
C49 C46 1.348 . S
C49 C48 1.356 . S
H50 C44 0.930 1_455 S
H51 C45 0.930 . S
C52 N53 1.314 . S
C52 C54 1.353 . S
C52 H58 0.930 . S
N53 Li3 1.990 . S
N53 C52 1.314 . S
N53 C56 1.279 . S
C54 C52 1.353 . S
C54 C57 1.348 . S
C54 H86 0.929 . S
C55 C56 1.358 . S
C55 C57 1.356 . S
C55 H87 0.930 . S
C56 N53 1.279 . S
C56 C55 1.358 . S
C56 H59 0.930 . S
C57 C54 1.348 . S
C57 C55 1.356 . S
H58 C52 0.930 . S
H59 C56 0.930 . S
O60 Li0 1.956 . S
O60 Li1 1.970 . S
O60 Li2 1.961 1_455 S
O60 C4 1.325 . S
O61 Li0 1.970 . S
O61 Li1 1.956 . S
O61 Li3 1.961 1_455 S
O61 C10 1.325 . S
O62 Li0 1.961 1_655 S
O62 Li2 1.956 . S
O62 Li3 1.970 . S
O62 C32 1.325 . S
O63 Li1 1.961 1_655 S
O63 Li2 1.970 . S
O63 Li3 1.956 . S
O63 C38 1.325 . S
H64 C6 0.929 . S
H65 C7 0.930 . S
H66 C8 0.930 . S
H67 C9 0.930 . S
H68 C11 0.930 . S
H69 C13 0.929 . S
H70 C14 0.930 . S
H71 C15 0.930 . S
H72 C18 0.930 . S
H73 C21 0.929 . S
H74 C26 0.929 . S
H75 C27 0.930 . S
H76 C34 0.929 . S
H77 C35 0.930 . S
H78 C36 0.930 . S
H79 C37 0.930 . S
H80 C39 0.929 . S
H81 C40 0.930 . S
H82 C41 0.930 . S
H83 C42 0.930 . S
H84 C46 0.929 . S
H85 C48 0.930 . S
H86 C54 0.929 . S
H87 C55 0.930 . S
Li88 N105 1.990 . S
Li88 O148 1.956 1_455 S
Li88 O149 1.970 . S
Li88 O150 1.961 . S
Li89 N113 1.990 . S
Li89 O148 1.970 . S
Li89 O149 1.956 1_655 S
Li89 O151 1.961 . S
Li90 N135 1.990 . S
Li90 O148 1.961 . S
Li90 O150 1.956 1_655 S
Li90 O151 1.970 . S
Li91 N141 1.990 . S
Li91 O149 1.961 . S
Li91 O150 1.970 . S
Li91 O151 1.956 1_455 S
C92 C94 1.348 . S
C92 C95 1.356 . S
C92 O148 1.325 . S
N93 C96 1.314 . S
N93 C97 1.279 . S
C94 C92 1.348 . S
C94 C96 1.353 . S
C94 H152 0.929 . S
C95 C92 1.356 . S
C95 C97 1.358 . S
C95 H153 0.930 . S
C96 N93 1.314 . S
C96 C94 1.353 . S
C96 H154 0.930 . S
C97 N93 1.279 . S
C97 C95 1.358 . S
C97 H155 0.930 . S
C98 C101 1.348 . S
C98 C102 1.356 . S
C98 O149 1.325 . S
C99 N100 1.279 . S
C99 C102 1.358 . S
C99 H156 0.930 . S
N100 C99 1.279 . S
N100 C103 1.314 . S
C101 C98 1.348 . S
C101 C103 1.353 . S
C101 H157 0.929 . S
C102 C98 1.356 . S
C102 C99 1.358 . S
C102 H158 0.930 . S
C103 N100 1.314 . S
C103 C101 1.353 . S
C103 H159 0.930 . S
C104 N105 1.314 . S
C104 C109 1.353 . S
C104 H110 0.930 . S
N105 Li88 1.990 . S
N105 C104 1.314 . S
N105 C107 1.279 . S
C106 C107 1.358 . S
C106 C108 1.356 . S
C106 H160 0.930 . S
C107 N105 1.279 . S
C107 C106 1.358 . S
C107 H111 0.930 1_455 S
C108 C106 1.356 . S
C108 C109 1.348 . S
C109 C104 1.353 . S
C109 C108 1.348 . S
C109 H161 0.929 . S
H110 C104 0.930 . S
H111 C107 0.930 1_655 S
C112 N113 1.314 . S
C112 C114 1.353 . S
C112 H118 0.930 . S
N113 Li89 1.990 . S
N113 C112 1.314 . S
N113 C116 1.279 . S
C114 C112 1.353 . S
C114 C117 1.348 . S
C114 H162 0.929 . S
C115 C116 1.358 . S
C115 C117 1.356 . S
C115 H163 0.930 . S
C116 N113 1.279 . S
C116 C115 1.358 . S
C116 H119 0.930 . S
C117 C114 1.348 . S
C117 C115 1.356 . S
H118 C112 0.930 . S
H119 C116 0.930 . S
C120 C122 1.348 . S
C120 C123 1.356 . S
C120 O150 1.325 . S
N121 C124 1.314 . S
N121 C125 1.279 . S
C122 C120 1.348 . S
C122 C124 1.353 . S
C122 H164 0.929 . S
C123 C120 1.356 . S
C123 C125 1.358 . S
C123 H165 0.930 . S
C124 N121 1.314 . S
C124 C122 1.353 . S
C124 H166 0.930 . S
C125 N121 1.279 . S
C125 C123 1.358 . S
C125 H167 0.930 . S
C126 C127 1.348 . S
C126 C128 1.356 . S
C126 O151 1.325 . S
C127 C126 1.348 . S
C127 C129 1.353 . S
C127 H168 0.929 . S
C128 C126 1.356 . S
C128 C130 1.358 . S
C128 H169 0.930 . S
C129 C127 1.353 . S
C129 N131 1.314 . S
C129 H170 0.930 . S
C130 C128 1.358 . S
C130 N131 1.279 . S
C130 H171 0.930 . S
N131 C129 1.314 . S
N131 C130 1.279 . S
C132 C134 1.353 . S
C132 N135 1.314 . S
C132 H138 0.930 . S
C133 N135 1.279 . S
C133 C136 1.358 . S
C133 H139 0.930 1_655 S
C134 C132 1.353 . S
C134 C137 1.348 . S
C134 H172 0.929 . S
N135 Li90 1.990 . S
N135 C132 1.314 . S
N135 C133 1.279 . S
C136 C133 1.358 . S
C136 C137 1.356 . S
C136 H173 0.930 . S
C137 C134 1.348 . S
C137 C136 1.356 . S
H138 C132 0.930 . S
H139 C133 0.930 1_455 S
C140 N141 1.314 . S
C140 C142 1.353 . S
C140 H146 0.930 . S
N141 Li91 1.990 . S
N141 C140 1.314 . S
N141 C144 1.279 . S
C142 C140 1.353 . S
C142 C145 1.348 . S
C142 H174 0.929 . S
C143 C144 1.358 . S
C143 C145 1.356 . S
C143 H175 0.930 . S
C144 N141 1.279 . S
C144 C143 1.358 . S
C144 H147 0.930 . S
C145 C142 1.348 . S
C145 C143 1.356 . S
H146 C140 0.930 . S
H147 C144 0.930 . S
O148 Li88 1.956 1_655 S
O148 Li89 1.970 . S
O148 Li90 1.961 . S
O148 C92 1.325 . S
O149 Li88 1.970 . S
O149 Li89 1.956 1_455 S
O149 Li91 1.961 . S
O149 C98 1.325 . S
O150 Li88 1.961 . S
O150 Li90 1.956 1_455 S
O150 Li91 1.970 . S
O150 C120 1.325 . S
O151 Li89 1.961 . S
O151 Li90 1.970 . S
O151 Li91 1.956 1_655 S
O151 C126 1.325 . S
H152 C94 0.929 . S
H153 C95 0.930 . S
H154 C96 0.930 . S
H155 C97 0.930 . S
H156 C99 0.930 . S
H157 C101 0.929 . S
H158 C102 0.930 . S
H159 C103 0.930 . S
H160 C106 0.930 . S
H161 C109 0.929 . S
H162 C114 0.929 . S
H163 C115 0.930 . S
H164 C122 0.929 . S
H165 C123 0.930 . S
H166 C124 0.930 . S
H167 C125 0.930 . S
H168 C127 0.929 . S
H169 C128 0.930 . S
H170 C129 0.930 . S
H171 C130 0.930 . S
H172 C134 0.929 . S
H173 C136 0.930 . S
H174 C142 0.929 . S
H175 C143 0.930 . S
Li176 N193 1.990 . S
Li176 O236 1.956 . S
Li176 O237 1.970 . S
Li176 O238 1.961 . S
Li177 N201 1.990 . S
Li177 O236 1.970 . S
Li177 O237 1.956 . S
Li177 O239 1.961 . S
Li178 N223 1.990 . S
Li178 O236 1.961 . S
Li178 O238 1.956 . S
Li178 O239 1.970 . S
Li179 N229 1.990 . S
Li179 O237 1.961 . S
Li179 O238 1.970 . S
Li179 O239 1.956 . S
C180 C182 1.348 . S
C180 C183 1.356 . S
C180 O236 1.325 . S
N181 C184 1.314 . S
N181 C185 1.279 . S
C182 C180 1.348 . S
C182 C184 1.353 . S
C182 H240 0.929 . S
C183 C180 1.356 . S
C183 C185 1.358 . S
C183 H241 0.930 . S
C184 N181 1.314 . S
C184 C182 1.353 . S
C184 H242 0.930 . S
C185 N181 1.279 . S
C185 C183 1.358 . S
C185 H243 0.930 . S
C186 C189 1.348 . S
C186 C190 1.356 . S
C186 O237 1.325 . S
C187 N188 1.279 . S
C187 C190 1.358 . S
C187 H244 0.930 . S
N188 C187 1.279 . S
N188 C191 1.314 . S
C189 C186 1.348 . S
C189 C191 1.353 . S
C189 H245 0.929 . S
C190 C186 1.356 . S
C190 C187 1.358 . S
C190 H246 0.930 . S
C191 N188 1.314 . S
C191 C189 1.353 . S
C191 H247 0.930 . S
C192 N193 1.314 . S
C192 C197 1.353 . S
C192 H198 0.930 . S
N193 Li176 1.990 . S
N193 C192 1.314 . S
N193 C195 1.279 . S
C194 C195 1.358 . S
C194 C196 1.356 . S
C194 H248 0.930 . S
C195 N193 1.279 . S
C195 C194 1.358 . S
C195 H199 0.930 . S
C196 C194 1.356 . S
C196 C197 1.348 . S
C197 C192 1.353 . S
C197 C196 1.348 . S
C197 H249 0.929 . S
H198 C192 0.930 . S
H199 C195 0.930 . S
C200 N201 1.314 . S
C200 C202 1.353 . S
C200 H206 0.930 . S
N201 Li177 1.990 . S
N201 C200 1.314 . S
N201 C204 1.279 . S
C202 C200 1.353 . S
C202 C205 1.348 . S
C202 H250 0.929 . S
C203 C204 1.358 . S
C203 C205 1.356 . S
C203 H251 0.930 . S
C204 N201 1.279 . S
C204 C203 1.358 . S
C204 H207 0.930 . S
C205 C202 1.348 . S
C205 C203 1.356 . S
H206 C200 0.930 . S
H207 C204 0.930 . S
C208 C210 1.348 . S
C208 C211 1.356 . S
C208 O238 1.325 . S
N209 C212 1.314 . S
N209 C213 1.279 . S
C210 C208 1.348 . S
C210 C212 1.353 . S
C210 H252 0.929 . S
C211 C208 1.356 . S
C211 C213 1.358 . S
C211 H253 0.930 . S
C212 N209 1.314 . S
C212 C210 1.353 . S
C212 H254 0.930 . S
C213 N209 1.279 . S
C213 C211 1.358 . S
C213 H255 0.930 . S
C214 C215 1.348 . S
C214 C216 1.356 . S
C214 O239 1.325 . S
C215 C214 1.348 . S
C215 C217 1.353 . S
C215 H256 0.929 . S
C216 C214 1.356 . S
C216 C218 1.358 . S
C216 H257 0.930 . S
C217 C215 1.353 . S
C217 N219 1.314 . S
C217 H258 0.930 . S
C218 C216 1.358 . S
C218 N219 1.279 . S
C218 H259 0.930 . S
N219 C217 1.314 . S
N219 C218 1.279 . S
C220 C222 1.353 . S
C220 N223 1.314 . S
C220 H226 0.930 . S
C221 N223 1.279 . S
C221 C224 1.358 . S
C221 H227 0.930 . S
C222 C220 1.353 . S
C222 C225 1.348 . S
C222 H260 0.929 . S
N223 Li178 1.990 . S
N223 C220 1.314 . S
N223 C221 1.279 . S
C224 C221 1.358 . S
C224 C225 1.356 . S
C224 H261 0.930 . S
C225 C222 1.348 . S
C225 C224 1.356 . S
H226 C220 0.930 . S
H227 C221 0.930 . S
C228 N229 1.314 . S
C228 C230 1.353 . S
C228 H234 0.930 . S
N229 Li179 1.990 . S
N229 C228 1.314 . S
N229 C232 1.279 . S
C230 C228 1.353 . S
C230 C233 1.348 . S
C230 H262 0.929 . S
C231 C232 1.358 . S
C231 C233 1.356 . S
C231 H263 0.930 . S
C232 N229 1.279 . S
C232 C231 1.358 . S
C232 H235 0.930 . S
C233 C230 1.348 . S
C233 C231 1.356 . S
H234 C228 0.930 . S
H235 C232 0.930 . S
O236 Li176 1.956 . S
O236 Li177 1.970 . S
O236 Li178 1.961 . S
O236 C180 1.325 . S
O237 Li176 1.970 . S
O237 Li177 1.956 . S
O237 Li179 1.961 . S
O237 C186 1.325 . S
O238 Li176 1.961 . S
O238 Li178 1.956 . S
O238 Li179 1.970 . S
O238 C208 1.325 . S
O239 Li177 1.961 . S
O239 Li178 1.970 . S
O239 Li179 1.956 . S
O239 C214 1.325 . S
H240 C182 0.929 . S
H241 C183 0.930 . S
H242 C184 0.930 . S
H243 C185 0.930 . S
H244 C187 0.930 . S
H245 C189 0.929 . S
H246 C190 0.930 . S
H247 C191 0.930 . S
H248 C194 0.930 . S
H249 C197 0.929 . S
H250 C202 0.929 . S
H251 C203 0.930 . S
H252 C210 0.929 . S
H253 C211 0.930 . S
H254 C212 0.930 . S
H255 C213 0.930 . S
H256 C215 0.929 . S
H257 C216 0.930 . S
H258 C217 0.930 . S
H259 C218 0.930 . S
H260 C222 0.929 . S
H261 C224 0.930 . S
H262 C230 0.929 . S
H263 C231 0.930 . S
Li264 N281 1.990 . S
Li264 O324 1.956 . S
Li264 O325 1.970 . S
Li264 O326 1.961 . S
Li265 N289 1.990 . S
Li265 O324 1.970 . S
Li265 O325 1.956 . S
Li265 O327 1.961 . S
Li266 N311 1.990 . S
Li266 O324 1.961 . S
Li266 O326 1.956 . S
Li266 O327 1.970 . S
Li267 N317 1.990 . S
Li267 O325 1.961 . S
Li267 O326 1.970 . S
Li267 O327 1.956 . S
C268 C270 1.348 . S
C268 C271 1.356 . S
C268 O324 1.325 . S
N269 C272 1.314 . S
N269 C273 1.279 . S
C270 C268 1.348 . S
C270 C272 1.353 . S
C270 H328 0.929 . S
C271 C268 1.356 . S
C271 C273 1.358 . S
C271 H329 0.930 . S
C272 N269 1.314 . S
C272 C270 1.353 . S
C272 H330 0.930 . S
C273 N269 1.279 . S
C273 C271 1.358 . S
C273 H331 0.930 . S
C274 C277 1.348 . S
C274 C278 1.356 . S
C274 O325 1.325 . S
C275 N276 1.279 . S
C275 C278 1.358 . S
C275 H332 0.930 . S
N276 C275 1.279 . S
N276 C279 1.314 . S
C277 C274 1.348 . S
C277 C279 1.353 . S
C277 H333 0.929 . S
C278 C274 1.356 . S
C278 C275 1.358 . S
C278 H334 0.930 . S
C279 N276 1.314 . S
C279 C277 1.353 . S
C279 H335 0.930 . S
C280 N281 1.314 . S
C280 C285 1.353 . S
C280 H286 0.930 . S
N281 Li264 1.990 . S
N281 C280 1.314 . S
N281 C283 1.279 . S
C282 C283 1.358 . S
C282 C284 1.356 . S
C282 H336 0.930 . S
C283 N281 1.279 . S
C283 C282 1.358 . S
C283 H287 0.930 . S
C284 C282 1.356 . S
C284 C285 1.348 . S
C285 C280 1.353 . S
C285 C284 1.348 . S
C285 H337 0.929 . S
H286 C280 0.930 . S
H287 C283 0.930 . S
C288 N289 1.314 . S
C288 C290 1.353 . S
C288 H294 0.930 . S
N289 Li265 1.990 . S
N289 C288 1.314 . S
N289 C292 1.279 . S
C290 C288 1.353 . S
C290 C293 1.348 . S
C290 H338 0.929 . S
C291 C292 1.358 . S
C291 C293 1.356 . S
C291 H339 0.930 . S
C292 N289 1.279 . S
C292 C291 1.358 . S
C292 H295 0.930 . S
C293 C290 1.348 . S
C293 C291 1.356 . S
H294 C288 0.930 . S
H295 C292 0.930 . S
C296 C298 1.348 . S
C296 C299 1.356 . S
C296 O326 1.325 . S
N297 C300 1.314 . S
N297 C301 1.279 . S
C298 C296 1.348 . S
C298 C300 1.353 . S
C298 H340 0.929 . S
C299 C296 1.356 . S
C299 C301 1.358 . S
C299 H341 0.930 . S
C300 N297 1.314 . S
C300 C298 1.353 . S
C300 H342 0.930 . S
C301 N297 1.279 . S
C301 C299 1.358 . S
C301 H343 0.930 . S
C302 C303 1.348 . S
C302 C304 1.356 . S
C302 O327 1.325 . S
C303 C302 1.348 . S
C303 C305 1.353 . S
C303 H344 0.929 . S
C304 C302 1.356 . S
C304 C306 1.358 . S
C304 H345 0.930 . S
C305 C303 1.353 . S
C305 N307 1.314 . S
C305 H346 0.930 . S
C306 C304 1.358 . S
C306 N307 1.279 . S
C306 H347 0.930 . S
N307 C305 1.314 . S
N307 C306 1.279 . S
C308 C310 1.353 . S
C308 N311 1.314 . S
C308 H314 0.930 . S
C309 N311 1.279 . S
C309 C312 1.358 . S
C309 H315 0.930 . S
C310 C308 1.353 . S
C310 C313 1.348 . S
C310 H348 0.929 . S
N311 Li266 1.990 . S
N311 C308 1.314 . S
N311 C309 1.279 . S
C312 C309 1.358 . S
C312 C313 1.356 . S
C312 H349 0.930 . S
C313 C310 1.348 . S
C313 C312 1.356 . S
H314 C308 0.930 . S
H315 C309 0.930 . S
C316 N317 1.314 . S
C316 C318 1.353 . S
C316 H322 0.930 . S
N317 Li267 1.990 . S
N317 C316 1.314 . S
N317 C320 1.279 . S
C318 C316 1.353 . S
C318 C321 1.348 . S
C318 H350 0.929 . S
C319 C320 1.358 . S
C319 C321 1.356 . S
C319 H351 0.930 . S
C320 N317 1.279 . S
C320 C319 1.358 . S
C320 H323 0.930 . S
C321 C318 1.348 . S
C321 C319 1.356 . S
H322 C316 0.930 . S
H323 C320 0.930 . S
O324 Li264 1.956 . S
O324 Li265 1.970 . S
O324 Li266 1.961 . S
O324 C268 1.325 . S
O325 Li264 1.970 . S
O325 Li265 1.956 . S
O325 Li267 1.961 . S
O325 C274 1.325 . S
O326 Li264 1.961 . S
O326 Li266 1.956 . S
O326 Li267 1.970 . S
O326 C296 1.325 . S
O327 Li265 1.961 . S
O327 Li266 1.970 . S
O327 Li267 1.956 . S
O327 C302 1.325 . S
H328 C270 0.929 . S
H329 C271 0.930 . S
H330 C272 0.930 . S
H331 C273 0.930 . S
H332 C275 0.930 . S
H333 C277 0.929 . S
H334 C278 0.930 . S
H335 C279 0.930 . S
H336 C282 0.930 . S
H337 C285 0.929 . S
H338 C290 0.929 . S
H339 C291 0.930 . S
H340 C298 0.929 . S
H341 C299 0.930 . S
H342 C300 0.930 . S
H343 C301 0.930 . S
H344 C303 0.929 . S
H345 C304 0.930 . S
H346 C305 0.930 . S
H347 C306 0.930 . S
H348 C310 0.929 . S
H349 C312 0.930 . S
H350 C318 0.929 . S
H351 C319 0.930 . S
Li352 N369 1.990 . S
Li352 O412 1.956 . S
Li352 O413 1.970 . S
Li352 O414 1.961 1_455 S
Li353 N377 1.990 . S
Li353 O412 1.970 . S
Li353 O413 1.956 . S
Li353 O415 1.961 1_455 S
Li354 N399 1.990 . S
Li354 O412 1.961 1_655 S
Li354 O414 1.956 . S
Li354 O415 1.970 . S
Li355 N405 1.990 . S
Li355 O413 1.961 1_655 S
Li355 O414 1.970 . S
Li355 O415 1.956 . S
C356 C358 1.348 . S
C356 C359 1.356 . S
C356 O412 1.325 . S
N357 C360 1.314 . S
N357 C361 1.279 . S
C358 C356 1.348 . S
C358 C360 1.353 . S
C358 H416 0.929 . S
C359 C356 1.356 . S
C359 C361 1.358 . S
C359 H417 0.930 . S
C360 N357 1.314 . S
C360 C358 1.353 . S
C360 H418 0.930 . S
C361 N357 1.279 . S
C361 C359 1.358 . S
C361 H419 0.930 . S
C362 C365 1.348 . S
C362 C366 1.356 . S
C362 O413 1.325 . S
C363 N364 1.279 . S
C363 C366 1.358 . S
C363 H420 0.930 . S
N364 C363 1.279 . S
N364 C367 1.314 . S
C365 C362 1.348 . S
C365 C367 1.353 . S
C365 H421 0.929 . S
C366 C362 1.356 . S
C366 C363 1.358 . S
C366 H422 0.930 . S
C367 N364 1.314 . S
C367 C365 1.353 . S
C367 H423 0.930 . S
C368 N369 1.314 . S
C368 C373 1.353 . S
C368 H374 0.930 1_455 S
N369 Li352 1.990 . S
N369 C368 1.314 . S
N369 C371 1.279 . S
C370 C371 1.358 . S
C370 C372 1.356 . S
C370 H424 0.930 . S
C371 N369 1.279 . S
C371 C370 1.358 . S
C371 H375 0.930 . S
C372 C370 1.356 . S
C372 C373 1.348 . S
C373 C368 1.353 . S
C373 C372 1.348 . S
C373 H425 0.929 . S
H374 C368 0.930 1_655 S
H375 C371 0.930 . S
C376 N377 1.314 . S
C376 C378 1.353 . S
C376 H382 0.930 . S
N377 Li353 1.990 . S
N377 C376 1.314 . S
N377 C380 1.279 . S
C378 C376 1.353 . S
C378 C381 1.348 . S
C378 H426 0.929 . S
C379 C380 1.358 . S
C379 C381 1.356 . S
C379 H427 0.930 . S
C380 N377 1.279 . S
C380 C379 1.358 . S
C380 H383 0.930 . S
C381 C378 1.348 . S
C381 C379 1.356 . S
H382 C376 0.930 . S
H383 C380 0.930 . S
C384 C386 1.348 . S
C384 C387 1.356 . S
C384 O414 1.325 . S
N385 C388 1.314 . S
N385 C389 1.279 . S
C386 C384 1.348 . S
C386 C388 1.353 . S
C386 H428 0.929 . S
C387 C384 1.356 . S
C387 C389 1.358 . S
C387 H429 0.930 . S
C388 N385 1.314 . S
C388 C386 1.353 . S
C388 H430 0.930 . S
C389 N385 1.279 . S
C389 C387 1.358 . S
C389 H431 0.930 . S
C390 C391 1.348 . S
C390 C392 1.356 . S
C390 O415 1.325 . S
C391 C390 1.348 . S
C391 C393 1.353 . S
C391 H432 0.929 . S
C392 C390 1.356 . S
C392 C394 1.358 . S
C392 H433 0.930 . S
C393 C391 1.353 . S
C393 N395 1.314 . S
C393 H434 0.930 . S
C394 C392 1.358 . S
C394 N395 1.279 . S
C394 H435 0.930 . S
N395 C393 1.314 . S
N395 C394 1.279 . S
C396 C398 1.353 . S
C396 N399 1.314 . S
C396 H402 0.930 1_655 S
C397 N399 1.279 . S
C397 C400 1.358 . S
C397 H403 0.930 . S
C398 C396 1.353 . S
C398 C401 1.348 . S
C398 H436 0.929 . S
N399 Li354 1.990 . S
N399 C396 1.314 . S
N399 C397 1.279 . S
C400 C397 1.358 . S
C400 C401 1.356 . S
C400 H437 0.930 . S
C401 C398 1.348 . S
C401 C400 1.356 . S
H402 C396 0.930 1_455 S
H403 C397 0.930 . S
C404 N405 1.314 . S
C404 C406 1.353 . S
C404 H410 0.930 . S
N405 Li355 1.990 . S
N405 C404 1.314 . S
N405 C408 1.279 . S
C406 C404 1.353 . S
C406 C409 1.348 . S
C406 H438 0.929 . S
C407 C408 1.358 . S
C407 C409 1.356 . S
C407 H439 0.930 . S
C408 N405 1.279 . S
C408 C407 1.358 . S
C408 H411 0.930 . S
C409 C406 1.348 . S
C409 C407 1.356 . S
H410 C404 0.930 . S
H411 C408 0.930 . S
O412 Li352 1.956 . S
O412 Li353 1.970 . S
O412 Li354 1.961 1_455 S
O412 C356 1.325 . S
O413 Li352 1.970 . S
O413 Li353 1.956 . S
O413 Li355 1.961 1_455 S
O413 C362 1.325 . S
O414 Li352 1.961 1_655 S
O414 Li354 1.956 . S
O414 Li355 1.970 . S
O414 C384 1.325 . S
O415 Li353 1.961 1_655 S
O415 Li354 1.970 . S
O415 Li355 1.956 . S
O415 C390 1.325 . S
H416 C358 0.929 . S
H417 C359 0.930 . S
H418 C360 0.930 . S
H419 C361 0.930 . S
H420 C363 0.930 . S
H421 C365 0.929 . S
H422 C366 0.930 . S
H423 C367 0.930 . S
H424 C370 0.930 . S
H425 C373 0.929 . S
H426 C378 0.929 . S
H427 C379 0.930 . S
H428 C386 0.929 . S
H429 C387 0.930 . S
H430 C388 0.930 . S
H431 C389 0.930 . S
H432 C391 0.929 . S
H433 C392 0.930 . S
H434 C393 0.930 . S
H435 C394 0.930 . S
H436 C398 0.929 . S
H437 C400 0.930 . S
H438 C406 0.929 . S
H439 C407 0.930 . S
Li440 N457 1.990 . S
Li440 O500 1.956 . S
Li440 O501 1.970 . S
Li440 O502 1.961 . S
Li441 N465 1.990 . S
Li441 O500 1.970 . S
Li441 O501 1.956 . S
Li441 O503 1.961 . S
Li442 N487 1.990 . S
Li442 O500 1.961 . S
Li442 O502 1.956 . S
Li442 O503 1.970 . S
Li443 N493 1.990 . S
Li443 O501 1.961 . S
Li443 O502 1.970 . S
Li443 O503 1.956 . S
C444 C446 1.348 . S
C444 C447 1.356 . S
C444 O500 1.325 . S
N445 C448 1.314 . S
N445 C449 1.279 . S
C446 C444 1.348 . S
C446 C448 1.353 . S
C446 H504 0.929 . S
C447 C444 1.356 . S
C447 C449 1.358 . S
C447 H505 0.930 . S
C448 N445 1.314 . S
C448 C446 1.353 . S
C448 H506 0.930 . S
C449 N445 1.279 . S
C449 C447 1.358 . S
C449 H507 0.930 . S
C450 C453 1.348 . S
C450 C454 1.356 . S
C450 O501 1.325 . S
C451 N452 1.279 . S
C451 C454 1.358 . S
C451 H508 0.930 . S
N452 C451 1.279 . S
N452 C455 1.314 . S
C453 C450 1.348 . S
C453 C455 1.353 . S
C453 H509 0.929 . S
C454 C450 1.356 . S
C454 C451 1.358 . S
C454 H510 0.930 . S
C455 N452 1.314 . S
C455 C453 1.353 . S
C455 H511 0.930 . S
C456 N457 1.314 . S
C456 C461 1.353 . S
C456 H462 0.930 . S
N457 Li440 1.990 . S
N457 C456 1.314 . S
N457 C459 1.279 . S
C458 C459 1.358 . S
C458 C460 1.356 . S
C458 H512 0.930 . S
C459 N457 1.279 . S
C459 C458 1.358 . S
C459 H463 0.930 . S
C460 C458 1.356 . S
C460 C461 1.348 . S
C461 C456 1.353 . S
C461 C460 1.348 . S
C461 H513 0.929 . S
H462 C456 0.930 . S
H463 C459 0.930 . S
C464 N465 1.314 . S
C464 C466 1.353 . S
C464 H470 0.930 . S
N465 Li441 1.990 . S
N465 C464 1.314 . S
N465 C468 1.279 . S
C466 C464 1.353 . S
C466 C469 1.348 . S
C466 H514 0.929 . S
C467 C468 1.358 . S
C467 C469 1.356 . S
C467 H515 0.930 . S
C468 N465 1.279 . S
C468 C467 1.358 . S
C468 H471 0.930 . S
C469 C466 1.348 . S
C469 C467 1.356 . S
H470 C464 0.930 . S
H471 C468 0.930 . S
C472 C474 1.348 . S
C472 C475 1.356 . S
C472 O502 1.325 . S
N473 C476 1.314 . S
N473 C477 1.279 . S
C474 C472 1.348 . S
C474 C476 1.353 . S
C474 H516 0.929 . S
C475 C472 1.356 . S
C475 C477 1.358 . S
C475 H517 0.930 . S
C476 N473 1.314 . S
C476 C474 1.353 . S
C476 H518 0.930 . S
C477 N473 1.279 . S
C477 C475 1.358 . S
C477 H519 0.930 . S
C478 C479 1.348 . S
C478 C480 1.356 . S
C478 O503 1.325 . S
C479 C478 1.348 . S
C479 C481 1.353 . S
C479 H520 0.929 . S
C480 C478 1.356 . S
C480 C482 1.358 . S
C480 H521 0.930 . S
C481 C479 1.353 . S
C481 N483 1.314 . S
C481 H522 0.930 . S
C482 C480 1.358 . S
C482 N483 1.279 . S
C482 H523 0.930 . S
N483 C481 1.314 . S
N483 C482 1.279 . S
C484 C486 1.353 . S
C484 N487 1.314 . S
C484 H490 0.930 . S
C485 N487 1.279 . S
C485 C488 1.358 . S
C485 H491 0.930 . S
C486 C484 1.353 . S
C486 C489 1.348 . S
C486 H524 0.929 . S
N487 Li442 1.990 . S
N487 C484 1.314 . S
N487 C485 1.279 . S
C488 C485 1.358 . S
C488 C489 1.356 . S
C488 H525 0.930 . S
C489 C486 1.348 . S
C489 C488 1.356 . S
H490 C484 0.930 . S
H491 C485 0.930 . S
C492 N493 1.314 . S
C492 C494 1.353 . S
C492 H498 0.930 . S
N493 Li443 1.990 . S
N493 C492 1.314 . S
N493 C496 1.279 . S
C494 C492 1.353 . S
C494 C497 1.348 . S
C494 H526 0.929 . S
C495 C496 1.358 . S
C495 C497 1.356 . S
C495 H527 0.930 . S
C496 N493 1.279 . S
C496 C495 1.358 . S
C496 H499 0.930 . S
C497 C494 1.348 . S
C497 C495 1.356 . S
H498 C492 0.930 . S
H499 C496 0.930 . S
O500 Li440 1.956 . S
O500 Li441 1.970 . S
O500 Li442 1.961 . S
O500 C444 1.325 . S
O501 Li440 1.970 . S
O501 Li441 1.956 . S
O501 Li443 1.961 . S
O501 C450 1.325 . S
O502 Li440 1.961 . S
O502 Li442 1.956 . S
O502 Li443 1.970 . S
O502 C472 1.325 . S
O503 Li441 1.961 . S
O503 Li442 1.970 . S
O503 Li443 1.956 . S
O503 C478 1.325 . S
H504 C446 0.929 . S
H505 C447 0.930 . S
H506 C448 0.930 . S
H507 C449 0.930 . S
H508 C451 0.930 . S
H509 C453 0.929 . S
H510 C454 0.930 . S
H511 C455 0.930 . S
H512 C458 0.930 . S
H513 C461 0.929 . S
H514 C466 0.929 . S
H515 C467 0.930 . S
H516 C474 0.929 . S
H517 C475 0.930 . S
H518 C476 0.930 . S
H519 C477 0.930 . S
H520 C479 0.929 . S
H521 C480 0.930 . S
H522 C481 0.930 . S
H523 C482 0.930 . S
H524 C486 0.929 . S
H525 C488 0.930 . S
H526 C494 0.929 . S
H527 C495 0.930 . S
Li528 N545 1.990 . S
Li528 O588 1.956 . S
Li528 O589 1.970 . S
Li528 O590 1.961 . S
Li529 N553 1.990 . S
Li529 O588 1.970 . S
Li529 O589 1.956 . S
Li529 O591 1.961 . S
Li530 N575 1.990 . S
Li530 O588 1.961 . S
Li530 O590 1.956 . S
Li530 O591 1.970 . S
Li531 N581 1.990 . S
Li531 O589 1.961 . S
Li531 O590 1.970 . S
Li531 O591 1.956 . S
C532 C534 1.348 . S
C532 C535 1.356 . S
C532 O588 1.325 . S
N533 C536 1.314 . S
N533 C537 1.279 . S
C534 C532 1.348 . S
C534 C536 1.353 . S
C534 H592 0.929 . S
C535 C532 1.356 . S
C535 C537 1.358 . S
C535 H593 0.930 . S
C536 N533 1.314 . S
C536 C534 1.353 . S
C536 H594 0.930 . S
C537 N533 1.279 . S
C537 C535 1.358 . S
C537 H595 0.930 . S
C538 C541 1.348 . S
C538 C542 1.356 . S
C538 O589 1.325 . S
C539 N540 1.279 . S
C539 C542 1.358 . S
C539 H596 0.930 . S
N540 C539 1.279 . S
N540 C543 1.314 . S
C541 C538 1.348 . S
C541 C543 1.353 . S
C541 H597 0.929 . S
C542 C538 1.356 . S
C542 C539 1.358 . S
C542 H598 0.930 . S
C543 N540 1.314 . S
C543 C541 1.353 . S
C543 H599 0.930 . S
C544 N545 1.314 . S
C544 C549 1.353 . S
C544 H550 0.930 . S
N545 Li528 1.990 . S
N545 C544 1.314 . S
N545 C547 1.279 . S
C546 C547 1.358 . S
C546 C548 1.356 . S
C546 H600 0.930 . S
C547 N545 1.279 . S
C547 C546 1.358 . S
C547 H551 0.930 . S
C548 C546 1.356 . S
C548 C549 1.348 . S
C549 C544 1.353 . S
C549 C548 1.348 . S
C549 H601 0.929 . S
H550 C544 0.930 . S
H551 C547 0.930 . S
C552 N553 1.314 . S
C552 C554 1.353 . S
C552 H558 0.930 . S
N553 Li529 1.990 . S
N553 C552 1.314 . S
N553 C556 1.279 . S
C554 C552 1.353 . S
C554 C557 1.348 . S
C554 H602 0.929 . S
C555 C556 1.358 . S
C555 C557 1.356 . S
C555 H603 0.930 . S
C556 N553 1.279 . S
C556 C555 1.358 . S
C556 H559 0.930 . S
C557 C554 1.348 . S
C557 C555 1.356 . S
H558 C552 0.930 . S
H559 C556 0.930 . S
C560 C562 1.348 . S
C560 C563 1.356 . S
C560 O590 1.325 . S
N561 C564 1.314 . S
N561 C565 1.279 . S
C562 C560 1.348 . S
C562 C564 1.353 . S
C562 H604 0.929 . S
C563 C560 1.356 . S
C563 C565 1.358 . S
C563 H605 0.930 . S
C564 N561 1.314 . S
C564 C562 1.353 . S
C564 H606 0.930 . S
C565 N561 1.279 . S
C565 C563 1.358 . S
C565 H607 0.930 . S
C566 C567 1.348 . S
C566 C568 1.356 . S
C566 O591 1.325 . S
C567 C566 1.348 . S
C567 C569 1.353 . S
C567 H608 0.929 . S
C568 C566 1.356 . S
C568 C570 1.358 . S
C568 H609 0.930 . S
C569 C567 1.353 . S
C569 N571 1.314 . S
C569 H610 0.930 . S
C570 C568 1.358 . S
C570 N571 1.279 . S
C570 H611 0.930 . S
N571 C569 1.314 . S
N571 C570 1.279 . S
C572 C574 1.353 . S
C572 N575 1.314 . S
C572 H578 0.930 . S
C573 N575 1.279 . S
C573 C576 1.358 . S
C573 H579 0.930 . S
C574 C572 1.353 . S
C574 C577 1.348 . S
C574 H612 0.929 . S
N575 Li530 1.990 . S
N575 C572 1.314 . S
N575 C573 1.279 . S
C576 C573 1.358 . S
C576 C577 1.356 . S
C576 H613 0.930 . S
C577 C574 1.348 . S
C577 C576 1.356 . S
H578 C572 0.930 . S
H579 C573 0.930 . S
C580 N581 1.314 . S
C580 C582 1.353 . S
C580 H586 0.930 . S
N581 Li531 1.990 . S
N581 C580 1.314 . S
N581 C584 1.279 . S
C582 C580 1.353 . S
C582 C585 1.348 . S
C582 H614 0.929 . S
C583 C584 1.358 . S
C583 C585 1.356 . S
C583 H615 0.930 . S
C584 N581 1.279 . S
C584 C583 1.358 . S
C584 H587 0.930 . S
C585 C582 1.348 . S
C585 C583 1.356 . S
H586 C580 0.930 . S
H587 C584 0.930 . S
O588 Li528 1.956 . S
O588 Li529 1.970 . S
O588 Li530 1.961 . S
O588 C532 1.325 . S
O589 Li528 1.970 . S
O589 Li529 1.956 . S
O589 Li531 1.961 . S
O589 C538 1.325 . S
O590 Li528 1.961 . S
O590 Li530 1.956 . S
O590 Li531 1.970 . S
O590 C560 1.325 . S
O591 Li529 1.961 . S
O591 Li530 1.970 . S
O591 Li531 1.956 . S
O591 C566 1.325 . S
H592 C534 0.929 . S
H593 C535 0.930 . S
H594 C536 0.930 . S
H595 C537 0.930 . S
H596 C539 0.930 . S
H597 C541 0.929 . S
H598 C542 0.930 . S
H599 C543 0.930 . S
H600 C546 0.930 . S
H601 C549 0.929 . S
H602 C554 0.929 . S
H603 C555 0.930 . S
H604 C562 0.929 . S
H605 C563 0.930 . S
H606 C564 0.930 . S
H607 C565 0.930 . S
H608 C567 0.929 . S
H609 C568 0.930 . S
H610 C569 0.930 . S
H611 C570 0.930 . S
H612 C574 0.929 . S
H613 C576 0.930 . S
H614 C582 0.929 . S
H615 C583 0.930 . S
Li616 N633 1.990 . S
Li616 O676 1.956 1_655 S
Li616 O677 1.970 . S
Li616 O678 1.961 . S
Li617 N641 1.990 . S
Li617 O676 1.970 . S
Li617 O677 1.956 1_455 S
Li617 O679 1.961 . S
Li618 N663 1.990 . S
Li618 O676 1.961 . S
Li618 O678 1.956 1_455 S
Li618 O679 1.970 . S
Li619 N669 1.990 . S
Li619 O677 1.961 . S
Li619 O678 1.970 . S
Li619 O679 1.956 1_655 S
C620 C622 1.348 . S
C620 C623 1.356 . S
C620 O676 1.325 . S
N621 C624 1.314 . S
N621 C625 1.279 . S
C622 C620 1.348 . S
C622 C624 1.353 . S
C622 H680 0.929 . S
C623 C620 1.356 . S
C623 C625 1.358 . S
C623 H681 0.930 . S
C624 N621 1.314 . S
C624 C622 1.353 . S
C624 H682 0.930 . S
C625 N621 1.279 . S
C625 C623 1.358 . S
C625 H683 0.930 . S
C626 C629 1.348 . S
C626 C630 1.356 . S
C626 O677 1.325 . S
C627 N628 1.279 . S
C627 C630 1.358 . S
C627 H684 0.930 . S
N628 C627 1.279 . S
N628 C631 1.314 . S
C629 C626 1.348 . S
C629 C631 1.353 . S
C629 H685 0.929 . S
C630 C626 1.356 . S
C630 C627 1.358 . S
C630 H686 0.930 . S
C631 N628 1.314 . S
C631 C629 1.353 . S
C631 H687 0.930 . S
C632 N633 1.314 . S
C632 C637 1.353 . S
C632 H638 0.930 . S
N633 Li616 1.990 . S
N633 C632 1.314 . S
N633 C635 1.279 . S
C634 C635 1.358 . S
C634 C636 1.356 . S
C634 H688 0.930 . S
C635 N633 1.279 . S
C635 C634 1.358 . S
C635 H639 0.930 1_655 S
C636 C634 1.356 . S
C636 C637 1.348 . S
C637 C632 1.353 . S
C637 C636 1.348 . S
C637 H689 0.929 . S
H638 C632 0.930 . S
H639 C635 0.930 1_455 S
C640 N641 1.314 . S
C640 C642 1.353 . S
C640 H646 0.930 . S
N641 Li617 1.990 . S
N641 C640 1.314 . S
N641 C644 1.279 . S
C642 C640 1.353 . S
C642 C645 1.348 . S
C642 H690 0.929 . S
C643 C644 1.358 . S
C643 C645 1.356 . S
C643 H691 0.930 . S
C644 N641 1.279 . S
C644 C643 1.358 . S
C644 H647 0.930 . S
C645 C642 1.348 . S
C645 C643 1.356 . S
H646 C640 0.930 . S
H647 C644 0.930 . S
C648 C650 1.348 . S
C648 C651 1.356 . S
C648 O678 1.325 . S
N649 C652 1.314 . S
N649 C653 1.279 . S
C650 C648 1.348 . S
C650 C652 1.353 . S
C650 H692 0.929 . S
C651 C648 1.356 . S
C651 C653 1.358 . S
C651 H693 0.930 . S
C652 N649 1.314 . S
C652 C650 1.353 . S
C652 H694 0.930 . S
C653 N649 1.279 . S
C653 C651 1.358 . S
C653 H695 0.930 . S
C654 C655 1.348 . S
C654 C656 1.356 . S
C654 O679 1.325 . S
C655 C654 1.348 . S
C655 C657 1.353 . S
C655 H696 0.929 . S
C656 C654 1.356 . S
C656 C658 1.358 . S
C656 H697 0.930 . S
C657 C655 1.353 . S
C657 N659 1.314 . S
C657 H698 0.930 . S
C658 C656 1.358 . S
C658 N659 1.279 . S
C658 H699 0.930 . S
N659 C657 1.314 . S
N659 C658 1.279 . S
C660 C662 1.353 . S
C660 N663 1.314 . S
C660 H666 0.930 . S
C661 N663 1.279 . S
C661 C664 1.358 . S
C661 H667 0.930 1_455 S
C662 C660 1.353 . S
C662 C665 1.348 . S
C662 H700 0.929 . S
N663 Li618 1.990 . S
N663 C660 1.314 . S
N663 C661 1.279 . S
C664 C661 1.358 . S
C664 C665 1.356 . S
C664 H701 0.930 . S
C665 C662 1.348 . S
C665 C664 1.356 . S
H666 C660 0.930 . S
H667 C661 0.930 1_655 S
C668 N669 1.314 . S
C668 C670 1.353 . S
C668 H674 0.930 . S
N669 Li619 1.990 . S
N669 C668 1.314 . S
N669 C672 1.279 . S
C670 C668 1.353 . S
C670 C673 1.348 . S
C670 H702 0.929 . S
C671 C672 1.358 . S
C671 C673 1.356 . S
C671 H703 0.930 . S
C672 N669 1.279 . S
C672 C671 1.358 . S
C672 H675 0.930 . S
C673 C670 1.348 . S
C673 C671 1.356 . S
H674 C668 0.930 . S
H675 C672 0.930 . S
O676 Li616 1.956 1_455 S
O676 Li617 1.970 . S
O676 Li618 1.961 . S
O676 C620 1.325 . S
O677 Li616 1.970 . S
O677 Li617 1.956 1_655 S
O677 Li619 1.961 . S
O677 C626 1.325 . S
O678 Li616 1.961 . S
O678 Li618 1.956 1_655 S
O678 Li619 1.970 . S
O678 C648 1.325 . S
O679 Li617 1.961 . S
O679 Li618 1.970 . S
O679 Li619 1.956 1_455 S
O679 C654 1.325 . S
H680 C622 0.929 . S
H681 C623 0.930 . S
H682 C624 0.930 . S
H683 C625 0.930 . S
H684 C627 0.930 . S
H685 C629 0.929 . S
H686 C630 0.930 . S
H687 C631 0.930 . S
H688 C634 0.930 . S
H689 C637 0.929 . S
H690 C642 0.929 . S
H691 C643 0.930 . S
H692 C650 0.929 . S
H693 C651 0.930 . S
H694 C652 0.930 . S
H695 C653 0.930 . S
H696 C655 0.929 . S
H697 C656 0.930 . S
H698 C657 0.930 . S
H699 C658 0.930 . S
H700 C662 0.929 . S
H701 C664 0.930 . S
H702 C670 0.929 . S
H703 C671 0.930 . S
Li704 N721 1.990 . S
Li704 O764 1.956 . S
Li704 O765 1.970 . S
Li704 O766 1.961 1_545 S
Li705 N729 1.990 . S
Li705 O764 1.970 . S
Li705 O765 1.956 . S
Li705 O767 1.961 1_545 S
Li706 N751 1.990 . S
Li706 O764 1.961 1_565 S
Li706 O766 1.956 . S
Li706 O767 1.970 . S
Li707 N757 1.990 . S
Li707 O765 1.961 1_565 S
Li707 O766 1.970 . S
Li707 O767 1.956 . S
C708 C710 1.348 . S
C708 C711 1.356 . S
C708 O764 1.325 . S
N709 C712 1.314 . S
N709 C713 1.279 . S
C710 C708 1.348 . S
C710 C712 1.353 . S
C710 H768 0.929 . S
C711 C708 1.356 . S
C711 C713 1.358 . S
C711 H769 0.930 . S
C712 N709 1.314 . S
C712 C710 1.353 . S
C712 H770 0.930 . S
C713 N709 1.279 . S
C713 C711 1.358 . S
C713 H771 0.930 . S
C714 C717 1.348 . S
C714 C718 1.356 . S
C714 O765 1.325 . S
C715 N716 1.279 . S
C715 C718 1.358 . S
C715 H772 0.930 . S
N716 C715 1.279 . S
N716 C719 1.314 . S
C717 C714 1.348 . S
C717 C719 1.353 . S
C717 H773 0.929 . S
C718 C714 1.356 . S
C718 C715 1.358 . S
C718 H774 0.930 . S
C719 N716 1.314 . S
C719 C717 1.353 . S
C719 H775 0.930 . S
C720 N721 1.314 . S
C720 C725 1.353 . S
C720 H726 0.930 . S
N721 Li704 1.990 . S
N721 C720 1.314 . S
N721 C723 1.279 . S
C722 C723 1.358 . S
C722 C724 1.356 . S
C722 H776 0.930 . S
C723 N721 1.279 . S
C723 C722 1.358 . S
C723 H727 0.930 . S
C724 C722 1.356 . S
C724 C725 1.348 . S
C725 C720 1.353 . S
C725 C724 1.348 . S
C725 H777 0.929 . S
H726 C720 0.930 . S
H727 C723 0.930 . S
C728 N729 1.314 . S
C728 C730 1.353 . S
C728 H734 0.930 1_545 S
N729 Li705 1.990 . S
N729 C728 1.314 . S
N729 C732 1.279 . S
C730 C728 1.353 . S
C730 C733 1.348 . S
C730 H778 0.929 . S
C731 C732 1.358 . S
C731 C733 1.356 . S
C731 H779 0.930 . S
C732 N729 1.279 . S
C732 C731 1.358 . S
C732 H735 0.930 . S
C733 C730 1.348 . S
C733 C731 1.356 . S
H734 C728 0.930 1_565 S
H735 C732 0.930 . S
C736 C738 1.348 . S
C736 C739 1.356 . S
C736 O766 1.325 . S
N737 C740 1.314 . S
N737 C741 1.279 . S
C738 C736 1.348 . S
C738 C740 1.353 . S
C738 H780 0.929 . S
C739 C736 1.356 . S
C739 C741 1.358 . S
C739 H781 0.930 . S
C740 N737 1.314 . S
C740 C738 1.353 . S
C740 H782 0.930 . S
C741 N737 1.279 . S
C741 C739 1.358 . S
C741 H783 0.930 . S
C742 C743 1.348 . S
C742 C744 1.356 . S
C742 O767 1.325 . S
C743 C742 1.348 . S
C743 C745 1.353 . S
C743 H784 0.929 . S
C744 C742 1.356 . S
C744 C746 1.358 . S
C744 H785 0.930 . S
C745 C743 1.353 . S
C745 N747 1.314 . S
C745 H786 0.930 . S
C746 C744 1.358 . S
C746 N747 1.279 . S
C746 H787 0.930 . S
N747 C745 1.314 . S
N747 C746 1.279 . S
C748 C750 1.353 . S
C748 N751 1.314 . S
C748 H754 0.930 . S
C749 N751 1.279 . S
C749 C752 1.358 . S
C749 H755 0.930 . S
C750 C748 1.353 . S
C750 C753 1.348 . S
C750 H788 0.929 . S
N751 Li706 1.990 . S
N751 C748 1.314 . S
N751 C749 1.279 . S
C752 C749 1.358 . S
C752 C753 1.356 . S
C752 H789 0.930 . S
C753 C750 1.348 . S
C753 C752 1.356 . S
H754 C748 0.930 . S
H755 C749 0.930 . S
C756 N757 1.314 . S
C756 C758 1.353 . S
C756 H762 0.930 1_565 S
N757 Li707 1.990 . S
N757 C756 1.314 . S
N757 C760 1.279 . S
C758 C756 1.353 . S
C758 C761 1.348 . S
C758 H790 0.929 . S
C759 C760 1.358 . S
C759 C761 1.356 . S
C759 H791 0.930 . S
C760 N757 1.279 . S
C760 C759 1.358 . S
C760 H763 0.930 . S
C761 C758 1.348 . S
C761 C759 1.356 . S
H762 C756 0.930 1_545 S
H763 C760 0.930 . S
O764 Li704 1.956 . S
O764 Li705 1.970 . S
O764 Li706 1.961 1_545 S
O764 C708 1.325 . S
O765 Li704 1.970 . S
O765 Li705 1.956 . S
O765 Li707 1.961 1_545 S
O765 C714 1.325 . S
O766 Li704 1.961 1_565 S
O766 Li706 1.956 . S
O766 Li707 1.970 . S
O766 C736 1.325 . S
O767 Li705 1.961 1_565 S
O767 Li706 1.970 . S
O767 Li707 1.956 . S
O767 C742 1.325 . S
H768 C710 0.929 . S
H769 C711 0.930 . S
H770 C712 0.930 . S
H771 C713 0.930 . S
H772 C715 0.930 . S
H773 C717 0.929 . S
H774 C718 0.930 . S
H775 C719 0.930 . S
H776 C722 0.930 . S
H777 C725 0.929 . S
H778 C730 0.929 . S
H779 C731 0.930 . S
H780 C738 0.929 . S
H781 C739 0.930 . S
H782 C740 0.930 . S
H783 C741 0.930 . S
H784 C743 0.929 . S
H785 C744 0.930 . S
H786 C745 0.930 . S
H787 C746 0.930 . S
H788 C750 0.929 . S
H789 C752 0.930 . S
H790 C758 0.929 . S
H791 C759 0.930 . S
Li792 N809 1.990 . S
Li792 O852 1.956 . S
Li792 O853 1.970 . S
Li792 O854 1.961 . S
Li793 N817 1.990 . S
Li793 O852 1.970 . S
Li793 O853 1.956 . S
Li793 O855 1.961 . S
Li794 N839 1.990 . S
Li794 O852 1.961 . S
Li794 O854 1.956 . S
Li794 O855 1.970 . S
Li795 N845 1.990 . S
Li795 O853 1.961 . S
Li795 O854 1.970 . S
Li795 O855 1.956 . S
C796 C798 1.348 . S
C796 C799 1.356 . S
C796 O852 1.325 . S
N797 C800 1.314 . S
N797 C801 1.279 . S
C798 C796 1.348 . S
C798 C800 1.353 . S
C798 H856 0.929 . S
C799 C796 1.356 . S
C799 C801 1.358 . S
C799 H857 0.930 . S
C800 N797 1.314 . S
C800 C798 1.353 . S
C800 H858 0.930 . S
C801 N797 1.279 . S
C801 C799 1.358 . S
C801 H859 0.930 . S
C802 C805 1.348 . S
C802 C806 1.356 . S
C802 O853 1.325 . S
C803 N804 1.279 . S
C803 C806 1.358 . S
C803 H860 0.930 . S
N804 C803 1.279 . S
N804 C807 1.314 . S
C805 C802 1.348 . S
C805 C807 1.353 . S
C805 H861 0.929 . S
C806 C802 1.356 . S
C806 C803 1.358 . S
C806 H862 0.930 . S
C807 N804 1.314 . S
C807 C805 1.353 . S
C807 H863 0.930 . S
C808 N809 1.314 . S
C808 C813 1.353 . S
C808 H814 0.930 . S
N809 Li792 1.990 . S
N809 C808 1.314 . S
N809 C811 1.279 . S
C810 C811 1.358 . S
C810 C812 1.356 . S
C810 H864 0.930 . S
C811 N809 1.279 . S
C811 C810 1.358 . S
C811 H815 0.930 . S
C812 C810 1.356 . S
C812 C813 1.348 . S
C813 C808 1.353 . S
C813 C812 1.348 . S
C813 H865 0.929 . S
H814 C808 0.930 . S
H815 C811 0.930 . S
C816 N817 1.314 . S
C816 C818 1.353 . S
C816 H822 0.930 . S
N817 Li793 1.990 . S
N817 C816 1.314 . S
N817 C820 1.279 . S
C818 C816 1.353 . S
C818 C821 1.348 . S
C818 H866 0.929 . S
C819 C820 1.358 . S
C819 C821 1.356 . S
C819 H867 0.930 . S
C820 N817 1.279 . S
C820 C819 1.358 . S
C820 H823 0.930 . S
C821 C818 1.348 . S
C821 C819 1.356 . S
H822 C816 0.930 . S
H823 C820 0.930 . S
C824 C826 1.348 . S
C824 C827 1.356 . S
C824 O854 1.325 . S
N825 C828 1.314 . S
N825 C829 1.279 . S
C826 C824 1.348 . S
C826 C828 1.353 . S
C826 H868 0.929 . S
C827 C824 1.356 . S
C827 C829 1.358 . S
C827 H869 0.930 . S
C828 N825 1.314 . S
C828 C826 1.353 . S
C828 H870 0.930 . S
C829 N825 1.279 . S
C829 C827 1.358 . S
C829 H871 0.930 . S
C830 C831 1.348 . S
C830 C832 1.356 . S
C830 O855 1.325 . S
C831 C830 1.348 . S
C831 C833 1.353 . S
C831 H872 0.929 . S
C832 C830 1.356 . S
C832 C834 1.358 . S
C832 H873 0.930 . S
C833 C831 1.353 . S
C833 N835 1.314 . S
C833 H874 0.930 . S
C834 C832 1.358 . S
C834 N835 1.279 . S
C834 H875 0.930 . S
N835 C833 1.314 . S
N835 C834 1.279 . S
C836 C838 1.353 . S
C836 N839 1.314 . S
C836 H842 0.930 . S
C837 N839 1.279 . S
C837 C840 1.358 . S
C837 H843 0.930 . S
C838 C836 1.353 . S
C838 C841 1.348 . S
C838 H876 0.929 . S
N839 Li794 1.990 . S
N839 C836 1.314 . S
N839 C837 1.279 . S
C840 C837 1.358 . S
C840 C841 1.356 . S
C840 H877 0.930 . S
C841 C838 1.348 . S
C841 C840 1.356 . S
H842 C836 0.930 . S
H843 C837 0.930 . S
C844 N845 1.314 . S
C844 C846 1.353 . S
C844 H850 0.930 . S
N845 Li795 1.990 . S
N845 C844 1.314 . S
N845 C848 1.279 . S
C846 C844 1.353 . S
C846 C849 1.348 . S
C846 H878 0.929 . S
C847 C848 1.358 . S
C847 C849 1.356 . S
C847 H879 0.930 . S
C848 N845 1.279 . S
C848 C847 1.358 . S
C848 H851 0.930 . S
C849 C846 1.348 . S
C849 C847 1.356 . S
H850 C844 0.930 . S
H851 C848 0.930 . S
O852 Li792 1.956 . S
O852 Li793 1.970 . S
O852 Li794 1.961 . S
O852 C796 1.325 . S
O853 Li792 1.970 . S
O853 Li793 1.956 . S
O853 Li795 1.961 . S
O853 C802 1.325 . S
O854 Li792 1.961 . S
O854 Li794 1.956 . S
O854 Li795 1.970 . S
O854 C824 1.325 . S
O855 Li793 1.961 . S
O855 Li794 1.970 . S
O855 Li795 1.956 . S
O855 C830 1.325 . S
H856 C798 0.929 . S
H857 C799 0.930 . S
H858 C800 0.930 . S
H859 C801 0.930 . S
H860 C803 0.930 . S
H861 C805 0.929 . S
H862 C806 0.930 . S
H863 C807 0.930 . S
H864 C810 0.930 . S
H865 C813 0.929 . S
H866 C818 0.929 . S
H867 C819 0.930 . S
H868 C826 0.929 . S
H869 C827 0.930 . S
H870 C828 0.930 . S
H871 C829 0.930 . S
H872 C831 0.929 . S
H873 C832 0.930 . S
H874 C833 0.930 . S
H875 C834 0.930 . S
H876 C838 0.929 . S
H877 C840 0.930 . S
H878 C846 0.929 . S
H879 C847 0.930 . S
Li880 N897 1.990 . S
Li880 O940 1.956 . S
Li880 O941 1.970 . S
Li880 O942 1.961 1_545 S
Li881 N905 1.990 . S
Li881 O940 1.970 . S
Li881 O941 1.956 . S
Li881 O943 1.961 1_545 S
Li882 N927 1.990 . S
Li882 O940 1.961 1_565 S
Li882 O942 1.956 . S
Li882 O943 1.970 . S
Li883 N933 1.990 . S
Li883 O941 1.961 1_565 S
Li883 O942 1.970 . S
Li883 O943 1.956 . S
C884 C886 1.348 . S
C884 C887 1.356 . S
C884 O940 1.325 . S
N885 C888 1.314 . S
N885 C889 1.279 . S
C886 C884 1.348 . S
C886 C888 1.353 . S
C886 H944 0.929 . S
C887 C884 1.356 . S
C887 C889 1.358 . S
C887 H945 0.930 . S
C888 N885 1.314 . S
C888 C886 1.353 . S
C888 H946 0.930 . S
C889 N885 1.279 . S
C889 C887 1.358 . S
C889 H947 0.930 . S
C890 C893 1.348 . S
C890 C894 1.356 . S
C890 O941 1.325 . S
C891 N892 1.279 . S
C891 C894 1.358 . S
C891 H948 0.930 . S
N892 C891 1.279 . S
N892 C895 1.314 . S
C893 C890 1.348 . S
C893 C895 1.353 . S
C893 H949 0.929 . S
C894 C890 1.356 . S
C894 C891 1.358 . S
C894 H950 0.930 . S
C895 N892 1.314 . S
C895 C893 1.353 . S
C895 H951 0.930 . S
C896 N897 1.314 . S
C896 C901 1.353 . S
C896 H902 0.930 1_545 S
N897 Li880 1.990 . S
N897 C896 1.314 . S
N897 C899 1.279 . S
C898 C899 1.358 . S
C898 C900 1.356 . S
C898 H952 0.930 . S
C899 N897 1.279 . S
C899 C898 1.358 . S
C899 H903 0.930 . S
C900 C898 1.356 . S
C900 C901 1.348 . S
C901 C896 1.353 . S
C901 C900 1.348 . S
C901 H953 0.929 . S
H902 C896 0.930 1_565 S
H903 C899 0.930 . S
C904 N905 1.314 . S
C904 C906 1.353 . S
C904 H910 0.930 . S
N905 Li881 1.990 . S
N905 C904 1.314 . S
N905 C908 1.279 . S
C906 C904 1.353 . S
C906 C909 1.348 . S
C906 H954 0.929 . S
C907 C908 1.358 . S
C907 C909 1.356 . S
C907 H955 0.930 . S
C908 N905 1.279 . S
C908 C907 1.358 . S
C908 H911 0.930 . S
C909 C906 1.348 . S
C909 C907 1.356 . S
H910 C904 0.930 . S
H911 C908 0.930 . S
C912 C914 1.348 . S
C912 C915 1.356 . S
C912 O942 1.325 . S
N913 C916 1.314 . S
N913 C917 1.279 . S
C914 C912 1.348 . S
C914 C916 1.353 . S
C914 H956 0.929 . S
C915 C912 1.356 . S
C915 C917 1.358 . S
C915 H957 0.930 . S
C916 N913 1.314 . S
C916 C914 1.353 . S
C916 H958 0.930 . S
C917 N913 1.279 . S
C917 C915 1.358 . S
C917 H959 0.930 . S
C918 C919 1.348 . S
C918 C920 1.356 . S
C918 O943 1.325 . S
C919 C918 1.348 . S
C919 C921 1.353 . S
C919 H960 0.929 . S
C920 C918 1.356 . S
C920 C922 1.358 . S
C920 H961 0.930 . S
C921 C919 1.353 . S
C921 N923 1.314 . S
C921 H962 0.930 . S
C922 C920 1.358 . S
C922 N923 1.279 . S
C922 H963 0.930 . S
N923 C921 1.314 . S
N923 C922 1.279 . S
C924 C926 1.353 . S
C924 N927 1.314 . S
C924 H930 0.930 1_565 S
C925 N927 1.279 . S
C925 C928 1.358 . S
C925 H931 0.930 . S
C926 C924 1.353 . S
C926 C929 1.348 . S
C926 H964 0.929 . S
N927 Li882 1.990 . S
N927 C924 1.314 . S
N927 C925 1.279 . S
C928 C925 1.358 . S
C928 C929 1.356 . S
C928 H965 0.930 . S
C929 C926 1.348 . S
C929 C928 1.356 . S
H930 C924 0.930 1_545 S
H931 C925 0.930 . S
C932 N933 1.314 . S
C932 C934 1.353 . S
C932 H938 0.930 . S
N933 Li883 1.990 . S
N933 C932 1.314 . S
N933 C936 1.279 . S
C934 C932 1.353 . S
C934 C937 1.348 . S
C934 H966 0.929 . S
C935 C936 1.358 . S
C935 C937 1.356 . S
C935 H967 0.930 . S
C936 N933 1.279 . S
C936 C935 1.358 . S
C936 H939 0.930 . S
C937 C934 1.348 . S
C937 C935 1.356 . S
H938 C932 0.930 . S
H939 C936 0.930 . S
O940 Li880 1.956 . S
O940 Li881 1.970 . S
O940 Li882 1.961 1_545 S
O940 C884 1.325 . S
O941 Li880 1.970 . S
O941 Li881 1.956 . S
O941 Li883 1.961 1_545 S
O941 C890 1.325 . S
O942 Li880 1.961 1_565 S
O942 Li882 1.956 . S
O942 Li883 1.970 . S
O942 C912 1.325 . S
O943 Li881 1.961 1_565 S
O943 Li882 1.970 . S
O943 Li883 1.956 . S
O943 C918 1.325 . S
H944 C886 0.929 . S
H945 C887 0.930 . S
H946 C888 0.930 . S
H947 C889 0.930 . S
H948 C891 0.930 . S
H949 C893 0.929 . S
H950 C894 0.930 . S
H951 C895 0.930 . S
H952 C898 0.930 . S
H953 C901 0.929 . S
H954 C906 0.929 . S
H955 C907 0.930 . S
H956 C914 0.929 . S
H957 C915 0.930 . S
H958 C916 0.930 . S
H959 C917 0.930 . S
H960 C919 0.929 . S
H961 C920 0.930 . S
H962 C921 0.930 . S
H963 C922 0.930 . S
H964 C926 0.929 . S
H965 C928 0.930 . S
H966 C934 0.929 . S
H967 C935 0.930 . S
Li968 N985 1.990 . S
Li968 O1028 1.956 1_556 S
Li968 O1029 1.970 . S
Li968 O1030 1.961 . S
Li969 N993 1.990 . S
Li969 O1028 1.970 . S
Li969 O1029 1.956 1_554 S
Li969 O1031 1.961 . S
Li970 N1015 1.990 . S
Li970 O1028 1.961 . S
Li970 O1030 1.956 1_554 S
Li970 O1031 1.970 . S
Li971 N1021 1.990 . S
Li971 O1029 1.961 . S
Li971 O1030 1.970 . S
Li971 O1031 1.956 1_556 S
C972 C974 1.348 . S
C972 C975 1.356 . S
C972 O1028 1.325 . S
N973 C976 1.314 . S
N973 C977 1.279 . S
C974 C972 1.348 . S
C974 C976 1.353 . S
C974 H1032 0.929 . S
C975 C972 1.356 . S
C975 C977 1.358 . S
C975 H1033 0.930 . S
C976 N973 1.314 . S
C976 C974 1.353 . S
C976 H1034 0.930 . S
C977 N973 1.279 . S
C977 C975 1.358 . S
C977 H1035 0.930 . S
C978 C981 1.348 . S
C978 C982 1.356 . S
C978 O1029 1.325 . S
C979 N980 1.279 . S
C979 C982 1.358 . S
C979 H1036 0.930 . S
N980 C979 1.279 . S
N980 C983 1.314 . S
C981 C978 1.348 . S
C981 C983 1.353 . S
C981 H1037 0.929 . S
C982 C978 1.356 . S
C982 C979 1.358 . S
C982 H1038 0.930 . S
C983 N980 1.314 . S
C983 C981 1.353 . S
C983 H1039 0.930 . S
C984 N985 1.314 . S
C984 C989 1.353 . S
C984 H990 0.930 . S
N985 Li968 1.990 . S
N985 C984 1.314 . S
N985 C987 1.279 . S
C986 C987 1.358 . S
C986 C988 1.356 . S
C986 H1040 0.930 . S
C987 N985 1.279 . S
C987 C986 1.358 . S
C987 H991 0.930 1_556 S
C988 C986 1.356 . S
C988 C989 1.348 . S
C989 C984 1.353 . S
C989 C988 1.348 . S
C989 H1041 0.929 . S
H990 C984 0.930 . S
H991 C987 0.930 1_554 S
C992 N993 1.314 . S
C992 C994 1.353 . S
C992 H998 0.930 . S
N993 Li969 1.990 . S
N993 C992 1.314 . S
N993 C996 1.279 . S
C994 C992 1.353 . S
C994 C997 1.348 . S
C994 H1042 0.929 . S
C995 C996 1.358 . S
C995 C997 1.356 . S
C995 H1043 0.930 . S
C996 N993 1.279 . S
C996 C995 1.358 . S
C996 H999 0.930 . S
C997 C994 1.348 . S
C997 C995 1.356 . S
H998 C992 0.930 . S
H999 C996 0.930 . S
C1000 C1002 1.348 . S
C1000 C1003 1.356 . S
C1000 O1030 1.325 . S
N1001 C1004 1.314 . S
N1001 C1005 1.279 . S
C1002 C1000 1.348 . S
C1002 C1004 1.353 . S
C1002 H1044 0.929 . S
C1003 C1000 1.356 . S
C1003 C1005 1.358 . S
C1003 H1045 0.930 . S
C1004 N1001 1.314 . S
C1004 C1002 1.353 . S
C1004 H1046 0.930 . S
C1005 N1001 1.279 . S
C1005 C1003 1.358 . S
C1005 H1047 0.930 . S
C1006 C1007 1.348 . S
C1006 C1008 1.356 . S
C1006 O1031 1.325 . S
C1007 C1006 1.348 . S
C1007 C1009 1.353 . S
C1007 H1048 0.929 . S
C1008 C1006 1.356 . S
C1008 C1010 1.358 . S
C1008 H1049 0.930 . S
C1009 C1007 1.353 . S
C1009 N1011 1.314 . S
C1009 H1050 0.930 . S
C1010 C1008 1.358 . S
C1010 N1011 1.279 . S
C1010 H1051 0.930 . S
N1011 C1009 1.314 . S
N1011 C1010 1.279 . S
C1012 C1014 1.353 . S
C1012 N1015 1.314 . S
C1012 H1018 0.930 . S
C1013 N1015 1.279 . S
C1013 C1016 1.358 . S
C1013 H1019 0.930 1_554 S
C1014 C1012 1.353 . S
C1014 C1017 1.348 . S
C1014 H1052 0.929 . S
N1015 Li970 1.990 . S
N1015 C1012 1.314 . S
N1015 C1013 1.279 . S
C1016 C1013 1.358 . S
C1016 C1017 1.356 . S
C1016 H1053 0.930 . S
C1017 C1014 1.348 . S
C1017 C1016 1.356 . S
H1018 C1012 0.930 . S
H1019 C1013 0.930 1_556 S
C1020 N1021 1.314 . S
C1020 C1022 1.353 . S
C1020 H1026 0.930 . S
N1021 Li971 1.990 . S
N1021 C1020 1.314 . S
N1021 C1024 1.279 . S
C1022 C1020 1.353 . S
C1022 C1025 1.348 . S
C1022 H1054 0.929 . S
C1023 C1024 1.358 . S
C1023 C1025 1.356 . S
C1023 H1055 0.930 . S
C1024 N1021 1.279 . S
C1024 C1023 1.358 . S
C1024 H1027 0.930 . S
C1025 C1022 1.348 . S
C1025 C1023 1.356 . S
H1026 C1020 0.930 . S
H1027 C1024 0.930 . S
O1028 Li968 1.956 1_554 S
O1028 Li969 1.970 . S
O1028 Li970 1.961 . S
O1028 C972 1.325 . S
O1029 Li968 1.970 . S
O1029 Li969 1.956 1_556 S
O1029 Li971 1.961 . S
O1029 C978 1.325 . S
O1030 Li968 1.961 . S
O1030 Li970 1.956 1_556 S
O1030 Li971 1.970 . S
O1030 C1000 1.325 . S
O1031 Li969 1.961 . S
O1031 Li970 1.970 . S
O1031 Li971 1.956 1_554 S
O1031 C1006 1.325 . S
H1032 C974 0.929 . S
H1033 C975 0.930 . S
H1034 C976 0.930 . S
H1035 C977 0.930 . S
H1036 C979 0.930 . S
H1037 C981 0.929 . S
H1038 C982 0.930 . S
H1039 C983 0.930 . S
H1040 C986 0.930 . S
H1041 C989 0.929 . S
H1042 C994 0.929 . S
H1043 C995 0.930 . S
H1044 C1002 0.929 . S
H1045 C1003 0.930 . S
H1046 C1004 0.930 . S
H1047 C1005 0.930 . S
H1048 C1007 0.929 . S
H1049 C1008 0.930 . S
H1050 C1009 0.930 . S
H1051 C1010 0.930 . S
H1052 C1014 0.929 . S
H1053 C1016 0.930 . S
H1054 C1022 0.929 . S
H1055 C1023 0.930 . S
Li1056 N1073 1.990 . S
Li1056 O1116 1.956 . S
Li1056 O1117 1.970 . S
Li1056 O1118 1.961 1_554 S
Li1057 N1081 1.990 . S
Li1057 O1116 1.970 . S
Li1057 O1117 1.956 . S
Li1057 O1119 1.961 1_554 S
Li1058 N1103 1.990 . S
Li1058 O1116 1.961 1_556 S
Li1058 O1118 1.956 . S
Li1058 O1119 1.970 . S
Li1059 N1109 1.990 . S
Li1059 O1117 1.961 1_556 S
Li1059 O1118 1.970 . S
Li1059 O1119 1.956 . S
C1060 C1062 1.348 . S
C1060 C1063 1.356 . S
C1060 O1116 1.325 . S
N1061 C1064 1.314 . S
N1061 C1065 1.279 . S
C1062 C1060 1.348 . S
C1062 C1064 1.353 . S
C1062 H1120 0.929 . S
C1063 C1060 1.356 . S
C1063 C1065 1.358 . S
C1063 H1121 0.930 . S
C1064 N1061 1.314 . S
C1064 C1062 1.353 . S
C1064 H1122 0.930 . S
C1065 N1061 1.279 . S
C1065 C1063 1.358 . S
C1065 H1123 0.930 . S
C1066 C1069 1.348 . S
C1066 C1070 1.356 . S
C1066 O1117 1.325 . S
C1067 N1068 1.279 . S
C1067 C1070 1.358 . S
C1067 H1124 0.930 . S
N1068 C1067 1.279 . S
N1068 C1071 1.314 . S
C1069 C1066 1.348 . S
C1069 C1071 1.353 . S
C1069 H1125 0.929 . S
C1070 C1066 1.356 . S
C1070 C1067 1.358 . S
C1070 H1126 0.930 . S
C1071 N1068 1.314 . S
C1071 C1069 1.353 . S
C1071 H1127 0.930 . S
C1072 N1073 1.314 . S
C1072 C1077 1.353 . S
C1072 H1078 0.930 . S
N1073 Li1056 1.990 . S
N1073 C1072 1.314 . S
N1073 C1075 1.279 . S
C1074 C1075 1.358 . S
C1074 C1076 1.356 . S
C1074 H1128 0.930 . S
C1075 N1073 1.279 . S
C1075 C1074 1.358 . S
C1075 H1079 0.930 . S
C1076 C1074 1.356 . S
C1076 C1077 1.348 . S
C1077 C1072 1.353 . S
C1077 C1076 1.348 . S
C1077 H1129 0.929 . S
H1078 C1072 0.930 . S
H1079 C1075 0.930 . S
C1080 N1081 1.314 . S
C1080 C1082 1.353 . S
C1080 H1086 0.930 1_554 S
N1081 Li1057 1.990 . S
N1081 C1080 1.314 . S
N1081 C1084 1.279 . S
C1082 C1080 1.353 . S
C1082 C1085 1.348 . S
C1082 H1130 0.929 . S
C1083 C1084 1.358 . S
C1083 C1085 1.356 . S
C1083 H1131 0.930 . S
C1084 N1081 1.279 . S
C1084 C1083 1.358 . S
C1084 H1087 0.930 . S
C1085 C1082 1.348 . S
C1085 C1083 1.356 . S
H1086 C1080 0.930 1_556 S
H1087 C1084 0.930 . S
C1088 C1090 1.348 . S
C1088 C1091 1.356 . S
C1088 O1118 1.325 . S
N1089 C1092 1.314 . S
N1089 C1093 1.279 . S
C1090 C1088 1.348 . S
C1090 C1092 1.353 . S
C1090 H1132 0.929 . S
C1091 C1088 1.356 . S
C1091 C1093 1.358 . S
C1091 H1133 0.930 . S
C1092 N1089 1.314 . S
C1092 C1090 1.353 . S
C1092 H1134 0.930 . S
C1093 N1089 1.279 . S
C1093 C1091 1.358 . S
C1093 H1135 0.930 . S
C1094 C1095 1.348 . S
C1094 C1096 1.356 . S
C1094 O1119 1.325 . S
C1095 C1094 1.348 . S
C1095 C1097 1.353 . S
C1095 H1136 0.929 . S
C1096 C1094 1.356 . S
C1096 C1098 1.358 . S
C1096 H1137 0.930 . S
C1097 C1095 1.353 . S
C1097 N1099 1.314 . S
C1097 H1138 0.930 . S
C1098 C1096 1.358 . S
C1098 N1099 1.279 . S
C1098 H1139 0.930 . S
N1099 C1097 1.314 . S
N1099 C1098 1.279 . S
C1100 C1102 1.353 . S
C1100 N1103 1.314 . S
C1100 H1106 0.930 . S
C1101 N1103 1.279 . S
C1101 C1104 1.358 . S
C1101 H1107 0.930 . S
C1102 C1100 1.353 . S
C1102 C1105 1.348 . S
C1102 H1140 0.929 . S
N1103 Li1058 1.990 . S
N1103 C1100 1.314 . S
N1103 C1101 1.279 . S
C1104 C1101 1.358 . S
C1104 C1105 1.356 . S
C1104 H1141 0.930 . S
C1105 C1102 1.348 . S
C1105 C1104 1.356 . S
H1106 C1100 0.930 . S
H1107 C1101 0.930 . S
C1108 N1109 1.314 . S
C1108 C1110 1.353 . S
C1108 H1114 0.930 1_556 S
N1109 Li1059 1.990 . S
N1109 C1108 1.314 . S
N1109 C1112 1.279 . S
C1110 C1108 1.353 . S
C1110 C1113 1.348 . S
C1110 H1142 0.929 . S
C1111 C1112 1.358 . S
C1111 C1113 1.356 . S
C1111 H1143 0.930 . S
C1112 N1109 1.279 . S
C1112 C1111 1.358 . S
C1112 H1115 0.930 . S
C1113 C1110 1.348 . S
C1113 C1111 1.356 . S
H1114 C1108 0.930 1_554 S
H1115 C1112 0.930 . S
O1116 Li1056 1.956 . S
O1116 Li1057 1.970 . S
O1116 Li1058 1.961 1_554 S
O1116 C1060 1.325 . S
O1117 Li1056 1.970 . S
O1117 Li1057 1.956 . S
O1117 Li1059 1.961 1_554 S
O1117 C1066 1.325 . S
O1118 Li1056 1.961 1_556 S
O1118 Li1058 1.956 . S
O1118 Li1059 1.970 . S
O1118 C1088 1.325 . S
O1119 Li1057 1.961 1_556 S
O1119 Li1058 1.970 . S
O1119 Li1059 1.956 . S
O1119 C1094 1.325 . S
H1120 C1062 0.929 . S
H1121 C1063 0.930 . S
H1122 C1064 0.930 . S
H1123 C1065 0.930 . S
H1124 C1067 0.930 . S
H1125 C1069 0.929 . S
H1126 C1070 0.930 . S
H1127 C1071 0.930 . S
H1128 C1074 0.930 . S
H1129 C1077 0.929 . S
H1130 C1082 0.929 . S
H1131 C1083 0.930 . S
H1132 C1090 0.929 . S
H1133 C1091 0.930 . S
H1134 C1092 0.930 . S
H1135 C1093 0.930 . S
H1136 C1095 0.929 . S
H1137 C1096 0.930 . S
H1138 C1097 0.930 . S
H1139 C1098 0.930 . S
H1140 C1102 0.929 . S
H1141 C1104 0.930 . S
H1142 C1110 0.929 . S
H1143 C1111 0.930 . S
Li1144 N1161 1.990 . S
Li1144 O1204 1.956 . S
Li1144 O1205 1.970 . S
Li1144 O1206 1.961 1_554 S
Li1145 N1169 1.990 . S
Li1145 O1204 1.970 . S
Li1145 O1205 1.956 . S
Li1145 O1207 1.961 1_554 S
Li1146 N1191 1.990 . S
Li1146 O1204 1.961 1_556 S
Li1146 O1206 1.956 . S
Li1146 O1207 1.970 . S
Li1147 N1197 1.990 . S
Li1147 O1205 1.961 1_556 S
Li1147 O1206 1.970 . S
Li1147 O1207 1.956 . S
C1148 C1150 1.348 . S
C1148 C1151 1.356 . S
C1148 O1204 1.325 . S
N1149 C1152 1.314 . S
N1149 C1153 1.279 . S
C1150 C1148 1.348 . S
C1150 C1152 1.353 . S
C1150 H1208 0.929 . S
C1151 C1148 1.356 . S
C1151 C1153 1.358 . S
C1151 H1209 0.930 . S
C1152 N1149 1.314 . S
C1152 C1150 1.353 . S
C1152 H1210 0.930 . S
C1153 N1149 1.279 . S
C1153 C1151 1.358 . S
C1153 H1211 0.930 . S
C1154 C1157 1.348 . S
C1154 C1158 1.356 . S
C1154 O1205 1.325 . S
C1155 N1156 1.279 . S
C1155 C1158 1.358 . S
C1155 H1212 0.930 . S
N1156 C1155 1.279 . S
N1156 C1159 1.314 . S
C1157 C1154 1.348 . S
C1157 C1159 1.353 . S
C1157 H1213 0.929 . S
C1158 C1154 1.356 . S
C1158 C1155 1.358 . S
C1158 H1214 0.930 . S
C1159 N1156 1.314 . S
C1159 C1157 1.353 . S
C1159 H1215 0.930 . S
C1160 N1161 1.314 . S
C1160 C1165 1.353 . S
C1160 H1166 0.930 1_554 S
N1161 Li1144 1.990 . S
N1161 C1160 1.314 . S
N1161 C1163 1.279 . S
C1162 C1163 1.358 . S
C1162 C1164 1.356 . S
C1162 H1216 0.930 . S
C1163 N1161 1.279 . S
C1163 C1162 1.358 . S
C1163 H1167 0.930 . S
C1164 C1162 1.356 . S
C1164 C1165 1.348 . S
C1165 C1160 1.353 . S
C1165 C1164 1.348 . S
C1165 H1217 0.929 . S
H1166 C1160 0.930 1_556 S
H1167 C1163 0.930 . S
C1168 N1169 1.314 . S
C1168 C1170 1.353 . S
C1168 H1174 0.930 . S
N1169 Li1145 1.990 . S
N1169 C1168 1.314 . S
N1169 C1172 1.279 . S
C1170 C1168 1.353 . S
C1170 C1173 1.348 . S
C1170 H1218 0.929 . S
C1171 C1172 1.358 . S
C1171 C1173 1.356 . S
C1171 H1219 0.930 . S
C1172 N1169 1.279 . S
C1172 C1171 1.358 . S
C1172 H1175 0.930 . S
C1173 C1170 1.348 . S
C1173 C1171 1.356 . S
H1174 C1168 0.930 . S
H1175 C1172 0.930 . S
C1176 C1178 1.348 . S
C1176 C1179 1.356 . S
C1176 O1206 1.325 . S
N1177 C1180 1.314 . S
N1177 C1181 1.279 . S
C1178 C1176 1.348 . S
C1178 C1180 1.353 . S
C1178 H1220 0.929 . S
C1179 C1176 1.356 . S
C1179 C1181 1.358 . S
C1179 H1221 0.930 . S
C1180 N1177 1.314 . S
C1180 C1178 1.353 . S
C1180 H1222 0.930 . S
C1181 N1177 1.279 . S
C1181 C1179 1.358 . S
C1181 H1223 0.930 . S
C1182 C1183 1.348 . S
C1182 C1184 1.356 . S
C1182 O1207 1.325 . S
C1183 C1182 1.348 . S
C1183 C1185 1.353 . S
C1183 H1224 0.929 . S
C1184 C1182 1.356 . S
C1184 C1186 1.358 . S
C1184 H1225 0.930 . S
C1185 C1183 1.353 . S
C1185 N1187 1.314 . S
C1185 H1226 0.930 . S
C1186 C1184 1.358 . S
C1186 N1187 1.279 . S
C1186 H1227 0.930 . S
N1187 C1185 1.314 . S
N1187 C1186 1.279 . S
C1188 C1190 1.353 . S
C1188 N1191 1.314 . S
C1188 H1194 0.930 1_556 S
C1189 N1191 1.279 . S
C1189 C1192 1.358 . S
C1189 H1195 0.930 . S
C1190 C1188 1.353 . S
C1190 C1193 1.348 . S
C1190 H1228 0.929 . S
N1191 Li1146 1.990 . S
N1191 C1188 1.314 . S
N1191 C1189 1.279 . S
C1192 C1189 1.358 . S
C1192 C1193 1.356 . S
C1192 H1229 0.930 . S
C1193 C1190 1.348 . S
C1193 C1192 1.356 . S
H1194 C1188 0.930 1_554 S
H1195 C1189 0.930 . S
C1196 N1197 1.314 . S
C1196 C1198 1.353 . S
C1196 H1202 0.930 . S
N1197 Li1147 1.990 . S
N1197 C1196 1.314 . S
N1197 C1200 1.279 . S
C1198 C1196 1.353 . S
C1198 C1201 1.348 . S
C1198 H1230 0.929 . S
C1199 C1200 1.358 . S
C1199 C1201 1.356 . S
C1199 H1231 0.930 . S
C1200 N1197 1.279 . S
C1200 C1199 1.358 . S
C1200 H1203 0.930 . S
C1201 C1198 1.348 . S
C1201 C1199 1.356 . S
H1202 C1196 0.930 . S
H1203 C1200 0.930 . S
O1204 Li1144 1.956 . S
O1204 Li1145 1.970 . S
O1204 Li1146 1.961 1_554 S
O1204 C1148 1.325 . S
O1205 Li1144 1.970 . S
O1205 Li1145 1.956 . S
O1205 Li1147 1.961 1_554 S
O1205 C1154 1.325 . S
O1206 Li1144 1.961 1_556 S
O1206 Li1146 1.956 . S
O1206 Li1147 1.970 . S
O1206 C1176 1.325 . S
O1207 Li1145 1.961 1_556 S
O1207 Li1146 1.970 . S
O1207 Li1147 1.956 . S
O1207 C1182 1.325 . S
H1208 C1150 0.929 . S
H1209 C1151 0.930 . S
H1210 C1152 0.930 . S
H1211 C1153 0.930 . S
H1212 C1155 0.930 . S
H1213 C1157 0.929 . S
H1214 C1158 0.930 . S
H1215 C1159 0.930 . S
H1216 C1162 0.930 . S
H1217 C1165 0.929 . S
H1218 C1170 0.929 . S
H1219 C1171 0.930 . S
H1220 C1178 0.929 . S
H1221 C1179 0.930 . S
H1222 C1180 0.930 . S
H1223 C1181 0.930 . S
H1224 C1183 0.929 . S
H1225 C1184 0.930 . S
H1226 C1185 0.930 . S
H1227 C1186 0.930 . S
H1228 C1190 0.929 . S
H1229 C1192 0.930 . S
H1230 C1198 0.929 . S
H1231 C1199 0.930 . S
Li1232 N1249 1.990 . S
Li1232 O1292 1.956 . S
Li1232 O1293 1.970 . S
Li1232 O1294 1.961 . S
Li1233 N1257 1.990 . S
Li1233 O1292 1.970 . S
Li1233 O1293 1.956 . S
Li1233 O1295 1.961 . S
Li1234 N1279 1.990 . S
Li1234 O1292 1.961 . S
Li1234 O1294 1.956 . S
Li1234 O1295 1.970 . S
Li1235 N1285 1.990 . S
Li1235 O1293 1.961 . S
Li1235 O1294 1.970 . S
Li1235 O1295 1.956 . S
C1236 C1238 1.348 . S
C1236 C1239 1.356 . S
C1236 O1292 1.325 . S
N1237 C1240 1.314 . S
N1237 C1241 1.279 . S
C1238 C1236 1.348 . S
C1238 C1240 1.353 . S
C1238 H1296 0.929 . S
C1239 C1236 1.356 . S
C1239 C1241 1.358 . S
C1239 H1297 0.930 . S
C1240 N1237 1.314 . S
C1240 C1238 1.353 . S
C1240 H1298 0.930 . S
C1241 N1237 1.279 . S
C1241 C1239 1.358 . S
C1241 H1299 0.930 . S
C1242 C1245 1.348 . S
C1242 C1246 1.356 . S
C1242 O1293 1.325 . S
C1243 N1244 1.279 . S
C1243 C1246 1.358 . S
C1243 H1300 0.930 . S
N1244 C1243 1.279 . S
N1244 C1247 1.314 . S
C1245 C1242 1.348 . S
C1245 C1247 1.353 . S
C1245 H1301 0.929 . S
C1246 C1242 1.356 . S
C1246 C1243 1.358 . S
C1246 H1302 0.930 . S
C1247 N1244 1.314 . S
C1247 C1245 1.353 . S
C1247 H1303 0.930 . S
C1248 N1249 1.314 . S
C1248 C1253 1.353 . S
C1248 H1254 0.930 . S
N1249 Li1232 1.990 . S
N1249 C1248 1.314 . S
N1249 C1251 1.279 . S
C1250 C1251 1.358 . S
C1250 C1252 1.356 . S
C1250 H1304 0.930 . S
C1251 N1249 1.279 . S
C1251 C1250 1.358 . S
C1251 H1255 0.930 . S
C1252 C1250 1.356 . S
C1252 C1253 1.348 . S
C1253 C1248 1.353 . S
C1253 C1252 1.348 . S
C1253 H1305 0.929 . S
H1254 C1248 0.930 . S
H1255 C1251 0.930 . S
C1256 N1257 1.314 . S
C1256 C1258 1.353 . S
C1256 H1262 0.930 . S
N1257 Li1233 1.990 . S
N1257 C1256 1.314 . S
N1257 C1260 1.279 . S
C1258 C1256 1.353 . S
C1258 C1261 1.348 . S
C1258 H1306 0.929 . S
C1259 C1260 1.358 . S
C1259 C1261 1.356 . S
C1259 H1307 0.930 . S
C1260 N1257 1.279 . S
C1260 C1259 1.358 . S
C1260 H1263 0.930 . S
C1261 C1258 1.348 . S
C1261 C1259 1.356 . S
H1262 C1256 0.930 . S
H1263 C1260 0.930 . S
C1264 C1266 1.348 . S
C1264 C1267 1.356 . S
C1264 O1294 1.325 . S
N1265 C1268 1.314 . S
N1265 C1269 1.279 . S
C1266 C1264 1.348 . S
C1266 C1268 1.353 . S
C1266 H1308 0.929 . S
C1267 C1264 1.356 . S
C1267 C1269 1.358 . S
C1267 H1309 0.930 . S
C1268 N1265 1.314 . S
C1268 C1266 1.353 . S
C1268 H1310 0.930 . S
C1269 N1265 1.279 . S
C1269 C1267 1.358 . S
C1269 H1311 0.930 . S
C1270 C1271 1.348 . S
C1270 C1272 1.356 . S
C1270 O1295 1.325 . S
C1271 C1270 1.348 . S
C1271 C1273 1.353 . S
C1271 H1312 0.929 . S
C1272 C1270 1.356 . S
C1272 C1274 1.358 . S
C1272 H1313 0.930 . S
C1273 C1271 1.353 . S
C1273 N1275 1.314 . S
C1273 H1314 0.930 . S
C1274 C1272 1.358 . S
C1274 N1275 1.279 . S
C1274 H1315 0.930 . S
N1275 C1273 1.314 . S
N1275 C1274 1.279 . S
C1276 C1278 1.353 . S
C1276 N1279 1.314 . S
C1276 H1282 0.930 . S
C1277 N1279 1.279 . S
C1277 C1280 1.358 . S
C1277 H1283 0.930 . S
C1278 C1276 1.353 . S
C1278 C1281 1.348 . S
C1278 H1316 0.929 . S
N1279 Li1234 1.990 . S
N1279 C1276 1.314 . S
N1279 C1277 1.279 . S
C1280 C1277 1.358 . S
C1280 C1281 1.356 . S
C1280 H1317 0.930 . S
C1281 C1278 1.348 . S
C1281 C1280 1.356 . S
H1282 C1276 0.930 . S
H1283 C1277 0.930 . S
C1284 N1285 1.314 . S
C1284 C1286 1.353 . S
C1284 H1290 0.930 . S
N1285 Li1235 1.990 . S
N1285 C1284 1.314 . S
N1285 C1288 1.279 . S
C1286 C1284 1.353 . S
C1286 C1289 1.348 . S
C1286 H1318 0.929 . S
C1287 C1288 1.358 . S
C1287 C1289 1.356 . S
C1287 H1319 0.930 . S
C1288 N1285 1.279 . S
C1288 C1287 1.358 . S
C1288 H1291 0.930 . S
C1289 C1286 1.348 . S
C1289 C1287 1.356 . S
H1290 C1284 0.930 . S
H1291 C1288 0.930 . S
O1292 Li1232 1.956 . S
O1292 Li1233 1.970 . S
O1292 Li1234 1.961 . S
O1292 C1236 1.325 . S
O1293 Li1232 1.970 . S
O1293 Li1233 1.956 . S
O1293 Li1235 1.961 . S
O1293 C1242 1.325 . S
O1294 Li1232 1.961 . S
O1294 Li1234 1.956 . S
O1294 Li1235 1.970 . S
O1294 C1264 1.325 . S
O1295 Li1233 1.961 . S
O1295 Li1234 1.970 . S
O1295 Li1235 1.956 . S
O1295 C1270 1.325 . S
H1296 C1238 0.929 . S
H1297 C1239 0.930 . S
H1298 C1240 0.930 . S
H1299 C1241 0.930 . S
H1300 C1243 0.930 . S
H1301 C1245 0.929 . S
H1302 C1246 0.930 . S
H1303 C1247 0.930 . S
H1304 C1250 0.930 . S
H1305 C1253 0.929 . S
H1306 C1258 0.929 . S
H1307 C1259 0.930 . S
H1308 C1266 0.929 . S
H1309 C1267 0.930 . S
H1310 C1268 0.930 . S
H1311 C1269 0.930 . S
H1312 C1271 0.929 . S
H1313 C1272 0.930 . S
H1314 C1273 0.930 . S
H1315 C1274 0.930 . S
H1316 C1278 0.929 . S
H1317 C1280 0.930 . S
H1318 C1286 0.929 . S
H1319 C1287 0.930 . S
Li1320 N1337 1.990 . S
Li1320 O1380 1.956 . S
Li1320 O1381 1.970 . S
Li1320 O1382 1.961 . S
Li1321 N1345 1.990 . S
Li1321 O1380 1.970 . S
Li1321 O1381 1.956 . S
Li1321 O1383 1.961 . S
Li1322 N1367 1.990 . S
Li1322 O1380 1.961 . S
Li1322 O1382 1.956 . S
Li1322 O1383 1.970 . S
Li1323 N1373 1.990 . S
Li1323 O1381 1.961 . S
Li1323 O1382 1.970 . S
Li1323 O1383 1.956 . S
C1324 C1326 1.348 . S
C1324 C1327 1.356 . S
C1324 O1380 1.325 . S
N1325 C1328 1.314 . S
N1325 C1329 1.279 . S
C1326 C1324 1.348 . S
C1326 C1328 1.353 . S
C1326 H1384 0.929 . S
C1327 C1324 1.356 . S
C1327 C1329 1.358 . S
C1327 H1385 0.930 . S
C1328 N1325 1.314 . S
C1328 C1326 1.353 . S
C1328 H1386 0.930 . S
C1329 N1325 1.279 . S
C1329 C1327 1.358 . S
C1329 H1387 0.930 . S
C1330 C1333 1.348 . S
C1330 C1334 1.356 . S
C1330 O1381 1.325 . S
C1331 N1332 1.279 . S
C1331 C1334 1.358 . S
C1331 H1388 0.930 . S
N1332 C1331 1.279 . S
N1332 C1335 1.314 . S
C1333 C1330 1.348 . S
C1333 C1335 1.353 . S
C1333 H1389 0.929 . S
C1334 C1330 1.356 . S
C1334 C1331 1.358 . S
C1334 H1390 0.930 . S
C1335 N1332 1.314 . S
C1335 C1333 1.353 . S
C1335 H1391 0.930 . S
C1336 N1337 1.314 . S
C1336 C1341 1.353 . S
C1336 H1342 0.930 . S
N1337 Li1320 1.990 . S
N1337 C1336 1.314 . S
N1337 C1339 1.279 . S
C1338 C1339 1.358 . S
C1338 C1340 1.356 . S
C1338 H1392 0.930 . S
C1339 N1337 1.279 . S
C1339 C1338 1.358 . S
C1339 H1343 0.930 . S
C1340 C1338 1.356 . S
C1340 C1341 1.348 . S
C1341 C1336 1.353 . S
C1341 C1340 1.348 . S
C1341 H1393 0.929 . S
H1342 C1336 0.930 . S
H1343 C1339 0.930 . S
C1344 N1345 1.314 . S
C1344 C1346 1.353 . S
C1344 H1350 0.930 . S
N1345 Li1321 1.990 . S
N1345 C1344 1.314 . S
N1345 C1348 1.279 . S
C1346 C1344 1.353 . S
C1346 C1349 1.348 . S
C1346 H1394 0.929 . S
C1347 C1348 1.358 . S
C1347 C1349 1.356 . S
C1347 H1395 0.930 . S
C1348 N1345 1.279 . S
C1348 C1347 1.358 . S
C1348 H1351 0.930 . S
C1349 C1346 1.348 . S
C1349 C1347 1.356 . S
H1350 C1344 0.930 . S
H1351 C1348 0.930 . S
C1352 C1354 1.348 . S
C1352 C1355 1.356 . S
C1352 O1382 1.325 . S
N1353 C1356 1.314 . S
N1353 C1357 1.279 . S
C1354 C1352 1.348 . S
C1354 C1356 1.353 . S
C1354 H1396 0.929 . S
C1355 C1352 1.356 . S
C1355 C1357 1.358 . S
C1355 H1397 0.930 . S
C1356 N1353 1.314 . S
C1356 C1354 1.353 . S
C1356 H1398 0.930 . S
C1357 N1353 1.279 . S
C1357 C1355 1.358 . S
C1357 H1399 0.930 . S
C1358 C1359 1.348 . S
C1358 C1360 1.356 . S
C1358 O1383 1.325 . S
C1359 C1358 1.348 . S
C1359 C1361 1.353 . S
C1359 H1400 0.929 . S
C1360 C1358 1.356 . S
C1360 C1362 1.358 . S
C1360 H1401 0.930 . S
C1361 C1359 1.353 . S
C1361 N1363 1.314 . S
C1361 H1402 0.930 . S
C1362 C1360 1.358 . S
C1362 N1363 1.279 . S
C1362 H1403 0.930 . S
N1363 C1361 1.314 . S
N1363 C1362 1.279 . S
C1364 C1366 1.353 . S
C1364 N1367 1.314 . S
C1364 H1370 0.930 . S
C1365 N1367 1.279 . S
C1365 C1368 1.358 . S
C1365 H1371 0.930 . S
C1366 C1364 1.353 . S
C1366 C1369 1.348 . S
C1366 H1404 0.929 . S
N1367 Li1322 1.990 . S
N1367 C1364 1.314 . S
N1367 C1365 1.279 . S
C1368 C1365 1.358 . S
C1368 C1369 1.356 . S
C1368 H1405 0.930 . S
C1369 C1366 1.348 . S
C1369 C1368 1.356 . S
H1370 C1364 0.930 . S
H1371 C1365 0.930 . S
C1372 N1373 1.314 . S
C1372 C1374 1.353 . S
C1372 H1378 0.930 . S
N1373 Li1323 1.990 . S
N1373 C1372 1.314 . S
N1373 C1376 1.279 . S
C1374 C1372 1.353 . S
C1374 C1377 1.348 . S
C1374 H1406 0.929 . S
C1375 C1376 1.358 . S
C1375 C1377 1.356 . S
C1375 H1407 0.930 . S
C1376 N1373 1.279 . S
C1376 C1375 1.358 . S
C1376 H1379 0.930 . S
C1377 C1374 1.348 . S
C1377 C1375 1.356 . S
H1378 C1372 0.930 . S
H1379 C1376 0.930 . S
O1380 Li1320 1.956 . S
O1380 Li1321 1.970 . S
O1380 Li1322 1.961 . S
O1380 C1324 1.325 . S
O1381 Li1320 1.970 . S
O1381 Li1321 1.956 . S
O1381 Li1323 1.961 . S
O1381 C1330 1.325 . S
O1382 Li1320 1.961 . S
O1382 Li1322 1.956 . S
O1382 Li1323 1.970 . S
O1382 C1352 1.325 . S
O1383 Li1321 1.961 . S
O1383 Li1322 1.970 . S
O1383 Li1323 1.956 . S
O1383 C1358 1.325 . S
H1384 C1326 0.929 . S
H1385 C1327 0.930 . S
H1386 C1328 0.930 . S
H1387 C1329 0.930 . S
H1388 C1331 0.930 . S
H1389 C1333 0.929 . S
H1390 C1334 0.930 . S
H1391 C1335 0.930 . S
H1392 C1338 0.930 . S
H1393 C1341 0.929 . S
H1394 C1346 0.929 . S
H1395 C1347 0.930 . S
H1396 C1354 0.929 . S
H1397 C1355 0.930 . S
H1398 C1356 0.930 . S
H1399 C1357 0.930 . S
H1400 C1359 0.929 . S
H1401 C1360 0.930 . S
H1402 C1361 0.930 . S
H1403 C1362 0.930 . S
H1404 C1366 0.929 . S
H1405 C1368 0.930 . S
H1406 C1374 0.929 . S
H1407 C1375 0.930 . S
Li1408 N1425 1.990 . S
Li1408 O1468 1.956 1_545 S
Li1408 O1469 1.970 . S
Li1408 O1470 1.961 . S
Li1409 N1433 1.990 . S
Li1409 O1468 1.970 . S
Li1409 O1469 1.956 1_565 S
Li1409 O1471 1.961 . S
Li1410 N1455 1.990 . S
Li1410 O1468 1.961 . S
Li1410 O1470 1.956 1_565 S
Li1410 O1471 1.970 . S
Li1411 N1461 1.990 . S
Li1411 O1469 1.961 . S
Li1411 O1470 1.970 . S
Li1411 O1471 1.956 1_545 S
C1412 C1414 1.348 . S
C1412 C1415 1.356 . S
C1412 O1468 1.325 . S
N1413 C1416 1.314 . S
N1413 C1417 1.279 . S
C1414 C1412 1.348 . S
C1414 C1416 1.353 . S
C1414 H1472 0.929 . S
C1415 C1412 1.356 . S
C1415 C1417 1.358 . S
C1415 H1473 0.930 . S
C1416 N1413 1.314 . S
C1416 C1414 1.353 . S
C1416 H1474 0.930 . S
C1417 N1413 1.279 . S
C1417 C1415 1.358 . S
C1417 H1475 0.930 . S
C1418 C1421 1.348 . S
C1418 C1422 1.356 . S
C1418 O1469 1.325 . S
C1419 N1420 1.279 . S
C1419 C1422 1.358 . S
C1419 H1476 0.930 . S
N1420 C1419 1.279 . S
N1420 C1423 1.314 . S
C1421 C1418 1.348 . S
C1421 C1423 1.353 . S
C1421 H1477 0.929 . S
C1422 C1418 1.356 . S
C1422 C1419 1.358 . S
C1422 H1478 0.930 . S
C1423 N1420 1.314 . S
C1423 C1421 1.353 . S
C1423 H1479 0.930 . S
C1424 N1425 1.314 . S
C1424 C1429 1.353 . S
C1424 H1430 0.930 . S
N1425 Li1408 1.990 . S
N1425 C1424 1.314 . S
N1425 C1427 1.279 . S
C1426 C1427 1.358 . S
C1426 C1428 1.356 . S
C1426 H1480 0.930 . S
C1427 N1425 1.279 . S
C1427 C1426 1.358 . S
C1427 H1431 0.930 . S
C1428 C1426 1.356 . S
C1428 C1429 1.348 . S
C1429 C1424 1.353 . S
C1429 C1428 1.348 . S
C1429 H1481 0.929 . S
H1430 C1424 0.930 . S
H1431 C1427 0.930 . S
C1432 N1433 1.314 . S
C1432 C1434 1.353 . S
C1432 H1438 0.930 . S
N1433 Li1409 1.990 . S
N1433 C1432 1.314 . S
N1433 C1436 1.279 . S
C1434 C1432 1.353 . S
C1434 C1437 1.348 . S
C1434 H1482 0.929 . S
C1435 C1436 1.358 . S
C1435 C1437 1.356 . S
C1435 H1483 0.930 . S
C1436 N1433 1.279 . S
C1436 C1435 1.358 . S
C1436 H1439 0.930 1_565 S
C1437 C1434 1.348 . S
C1437 C1435 1.356 . S
H1438 C1432 0.930 . S
H1439 C1436 0.930 1_545 S
C1440 C1442 1.348 . S
C1440 C1443 1.356 . S
C1440 O1470 1.325 . S
N1441 C1444 1.314 . S
N1441 C1445 1.279 . S
C1442 C1440 1.348 . S
C1442 C1444 1.353 . S
C1442 H1484 0.929 . S
C1443 C1440 1.356 . S
C1443 C1445 1.358 . S
C1443 H1485 0.930 . S
C1444 N1441 1.314 . S
C1444 C1442 1.353 . S
C1444 H1486 0.930 . S
C1445 N1441 1.279 . S
C1445 C1443 1.358 . S
C1445 H1487 0.930 . S
C1446 C1447 1.348 . S
C1446 C1448 1.356 . S
C1446 O1471 1.325 . S
C1447 C1446 1.348 . S
C1447 C1449 1.353 . S
C1447 H1488 0.929 . S
C1448 C1446 1.356 . S
C1448 C1450 1.358 . S
C1448 H1489 0.930 . S
C1449 C1447 1.353 . S
C1449 N1451 1.314 . S
C1449 H1490 0.930 . S
C1450 C1448 1.358 . S
C1450 N1451 1.279 . S
C1450 H1491 0.930 . S
N1451 C1449 1.314 . S
N1451 C1450 1.279 . S
C1452 C1454 1.353 . S
C1452 N1455 1.314 . S
C1452 H1458 0.930 . S
C1453 N1455 1.279 . S
C1453 C1456 1.358 . S
C1453 H1459 0.930 . S
C1454 C1452 1.353 . S
C1454 C1457 1.348 . S
C1454 H1492 0.929 . S
N1455 Li1410 1.990 . S
N1455 C1452 1.314 . S
N1455 C1453 1.279 . S
C1456 C1453 1.358 . S
C1456 C1457 1.356 . S
C1456 H1493 0.930 . S
C1457 C1454 1.348 . S
C1457 C1456 1.356 . S
H1458 C1452 0.930 . S
H1459 C1453 0.930 . S
C1460 N1461 1.314 . S
C1460 C1462 1.353 . S
C1460 H1466 0.930 . S
N1461 Li1411 1.990 . S
N1461 C1460 1.314 . S
N1461 C1464 1.279 . S
C1462 C1460 1.353 . S
C1462 C1465 1.348 . S
C1462 H1494 0.929 . S
C1463 C1464 1.358 . S
C1463 C1465 1.356 . S
C1463 H1495 0.930 . S
C1464 N1461 1.279 . S
C1464 C1463 1.358 . S
C1464 H1467 0.930 1_545 S
C1465 C1462 1.348 . S
C1465 C1463 1.356 . S
H1466 C1460 0.930 . S
H1467 C1464 0.930 1_565 S
O1468 Li1408 1.956 1_565 S
O1468 Li1409 1.970 . S
O1468 Li1410 1.961 . S
O1468 C1412 1.325 . S
O1469 Li1408 1.970 . S
O1469 Li1409 1.956 1_545 S
O1469 Li1411 1.961 . S
O1469 C1418 1.325 . S
O1470 Li1408 1.961 . S
O1470 Li1410 1.956 1_545 S
O1470 Li1411 1.970 . S
O1470 C1440 1.325 . S
O1471 Li1409 1.961 . S
O1471 Li1410 1.970 . S
O1471 Li1411 1.956 1_565 S
O1471 C1446 1.325 . S
H1472 C1414 0.929 . S
H1473 C1415 0.930 . S
H1474 C1416 0.930 . S
H1475 C1417 0.930 . S
H1476 C1419 0.930 . S
H1477 C1421 0.929 . S
H1478 C1422 0.930 . S
H1479 C1423 0.930 . S
H1480 C1426 0.930 . S
H1481 C1429 0.929 . S
H1482 C1434 0.929 . S
H1483 C1435 0.930 . S
H1484 C1442 0.929 . S
H1485 C1443 0.930 . S
H1486 C1444 0.930 . S
H1487 C1445 0.930 . S
H1488 C1447 0.929 . S
H1489 C1448 0.930 . S
H1490 C1449 0.930 . S
H1491 C1450 0.930 . S
H1492 C1454 0.929 . S
H1493 C1456 0.930 . S
H1494 C1462 0.929 . S
H1495 C1463 0.930 . S
Li1496 N1513 1.990 . S
Li1496 O1556 1.956 . S
Li1496 O1557 1.970 . S
Li1496 O1558 1.961 . S
Li1497 N1521 1.990 . S
Li1497 O1556 1.970 . S
Li1497 O1557 1.956 . S
Li1497 O1559 1.961 . S
Li1498 N1543 1.990 . S
Li1498 O1556 1.961 . S
Li1498 O1558 1.956 . S
Li1498 O1559 1.970 . S
Li1499 N1549 1.990 . S
Li1499 O1557 1.961 . S
Li1499 O1558 1.970 . S
Li1499 O1559 1.956 . S
C1500 C1502 1.348 . S
C1500 C1503 1.356 . S
C1500 O1556 1.325 . S
N1501 C1504 1.314 . S
N1501 C1505 1.279 . S
C1502 C1500 1.348 . S
C1502 C1504 1.353 . S
C1502 H1560 0.929 . S
C1503 C1500 1.356 . S
C1503 C1505 1.358 . S
C1503 H1561 0.930 . S
C1504 N1501 1.314 . S
C1504 C1502 1.353 . S
C1504 H1562 0.930 . S
C1505 N1501 1.279 . S
C1505 C1503 1.358 . S
C1505 H1563 0.930 . S
C1506 C1509 1.348 . S
C1506 C1510 1.356 . S
C1506 O1557 1.325 . S
C1507 N1508 1.279 . S
C1507 C1510 1.358 . S
C1507 H1564 0.930 . S
N1508 C1507 1.279 . S
N1508 C1511 1.314 . S
C1509 C1506 1.348 . S
C1509 C1511 1.353 . S
C1509 H1565 0.929 . S
C1510 C1506 1.356 . S
C1510 C1507 1.358 . S
C1510 H1566 0.930 . S
C1511 N1508 1.314 . S
C1511 C1509 1.353 . S
C1511 H1567 0.930 . S
C1512 N1513 1.314 . S
C1512 C1517 1.353 . S
C1512 H1518 0.930 . S
N1513 Li1496 1.990 . S
N1513 C1512 1.314 . S
N1513 C1515 1.279 . S
C1514 C1515 1.358 . S
C1514 C1516 1.356 . S
C1514 H1568 0.930 . S
C1515 N1513 1.279 . S
C1515 C1514 1.358 . S
C1515 H1519 0.930 . S
C1516 C1514 1.356 . S
C1516 C1517 1.348 . S
C1517 C1512 1.353 . S
C1517 C1516 1.348 . S
C1517 H1569 0.929 . S
H1518 C1512 0.930 . S
H1519 C1515 0.930 . S
C1520 N1521 1.314 . S
C1520 C1522 1.353 . S
C1520 H1526 0.930 . S
N1521 Li1497 1.990 . S
N1521 C1520 1.314 . S
N1521 C1524 1.279 . S
C1522 C1520 1.353 . S
C1522 C1525 1.348 . S
C1522 H1570 0.929 . S
C1523 C1524 1.358 . S
C1523 C1525 1.356 . S
C1523 H1571 0.930 . S
C1524 N1521 1.279 . S
C1524 C1523 1.358 . S
C1524 H1527 0.930 . S
C1525 C1522 1.348 . S
C1525 C1523 1.356 . S
H1526 C1520 0.930 . S
H1527 C1524 0.930 . S
C1528 C1530 1.348 . S
C1528 C1531 1.356 . S
C1528 O1558 1.325 . S
N1529 C1532 1.314 . S
N1529 C1533 1.279 . S
C1530 C1528 1.348 . S
C1530 C1532 1.353 . S
C1530 H1572 0.929 . S
C1531 C1528 1.356 . S
C1531 C1533 1.358 . S
C1531 H1573 0.930 . S
C1532 N1529 1.314 . S
C1532 C1530 1.353 . S
C1532 H1574 0.930 . S
C1533 N1529 1.279 . S
C1533 C1531 1.358 . S
C1533 H1575 0.930 . S
C1534 C1535 1.348 . S
C1534 C1536 1.356 . S
C1534 O1559 1.325 . S
C1535 C1534 1.348 . S
C1535 C1537 1.353 . S
C1535 H1576 0.929 . S
C1536 C1534 1.356 . S
C1536 C1538 1.358 . S
C1536 H1577 0.930 . S
C1537 C1535 1.353 . S
C1537 N1539 1.314 . S
C1537 H1578 0.930 . S
C1538 C1536 1.358 . S
C1538 N1539 1.279 . S
C1538 H1579 0.930 . S
N1539 C1537 1.314 . S
N1539 C1538 1.279 . S
C1540 C1542 1.353 . S
C1540 N1543 1.314 . S
C1540 H1546 0.930 . S
C1541 N1543 1.279 . S
C1541 C1544 1.358 . S
C1541 H1547 0.930 . S
C1542 C1540 1.353 . S
C1542 C1545 1.348 . S
C1542 H1580 0.929 . S
N1543 Li1498 1.990 . S
N1543 C1540 1.314 . S
N1543 C1541 1.279 . S
C1544 C1541 1.358 . S
C1544 C1545 1.356 . S
C1544 H1581 0.930 . S
C1545 C1542 1.348 . S
C1545 C1544 1.356 . S
H1546 C1540 0.930 . S
H1547 C1541 0.930 . S
C1548 N1549 1.314 . S
C1548 C1550 1.353 . S
C1548 H1554 0.930 . S
N1549 Li1499 1.990 . S
N1549 C1548 1.314 . S
N1549 C1552 1.279 . S
C1550 C1548 1.353 . S
C1550 C1553 1.348 . S
C1550 H1582 0.929 . S
C1551 C1552 1.358 . S
C1551 C1553 1.356 . S
C1551 H1583 0.930 . S
C1552 N1549 1.279 . S
C1552 C1551 1.358 . S
C1552 H1555 0.930 . S
C1553 C1550 1.348 . S
C1553 C1551 1.356 . S
H1554 C1548 0.930 . S
H1555 C1552 0.930 . S
O1556 Li1496 1.956 . S
O1556 Li1497 1.970 . S
O1556 Li1498 1.961 . S
O1556 C1500 1.325 . S
O1557 Li1496 1.970 . S
O1557 Li1497 1.956 . S
O1557 Li1499 1.961 . S
O1557 C1506 1.325 . S
O1558 Li1496 1.961 . S
O1558 Li1498 1.956 . S
O1558 Li1499 1.970 . S
O1558 C1528 1.325 . S
O1559 Li1497 1.961 . S
O1559 Li1498 1.970 . S
O1559 Li1499 1.956 . S
O1559 C1534 1.325 . S
H1560 C1502 0.929 . S
H1561 C1503 0.930 . S
H1562 C1504 0.930 . S
H1563 C1505 0.930 . S
H1564 C1507 0.930 . S
H1565 C1509 0.929 . S
H1566 C1510 0.930 . S
H1567 C1511 0.930 . S
H1568 C1514 0.930 . S
H1569 C1517 0.929 . S
H1570 C1522 0.929 . S
H1571 C1523 0.930 . S
H1572 C1530 0.929 . S
H1573 C1531 0.930 . S
H1574 C1532 0.930 . S
H1575 C1533 0.930 . S
H1576 C1535 0.929 . S
H1577 C1536 0.930 . S
H1578 C1537 0.930 . S
H1579 C1538 0.930 . S
H1580 C1542 0.929 . S
H1581 C1544 0.930 . S
H1582 C1550 0.929 . S
H1583 C1551 0.930 . S
Li1584 N1601 1.990 . S
Li1584 O1644 1.956 . S
Li1584 O1645 1.970 . S
Li1584 O1646 1.961 . S
Li1585 N1609 1.990 . S
Li1585 O1644 1.970 . S
Li1585 O1645 1.956 . S
Li1585 O1647 1.961 . S
Li1586 N1631 1.990 . S
Li1586 O1644 1.961 . S
Li1586 O1646 1.956 . S
Li1586 O1647 1.970 . S
Li1587 N1637 1.990 . S
Li1587 O1645 1.961 . S
Li1587 O1646 1.970 . S
Li1587 O1647 1.956 . S
C1588 C1590 1.348 . S
C1588 C1591 1.356 . S
C1588 O1644 1.325 . S
N1589 C1592 1.314 . S
N1589 C1593 1.279 . S
C1590 C1588 1.348 . S
C1590 C1592 1.353 . S
C1590 H1648 0.929 . S
C1591 C1588 1.356 . S
C1591 C1593 1.358 . S
C1591 H1649 0.930 . S
C1592 N1589 1.314 . S
C1592 C1590 1.353 . S
C1592 H1650 0.930 . S
C1593 N1589 1.279 . S
C1593 C1591 1.358 . S
C1593 H1651 0.930 . S
C1594 C1597 1.348 . S
C1594 C1598 1.356 . S
C1594 O1645 1.325 . S
C1595 N1596 1.279 . S
C1595 C1598 1.358 . S
C1595 H1652 0.930 . S
N1596 C1595 1.279 . S
N1596 C1599 1.314 . S
C1597 C1594 1.348 . S
C1597 C1599 1.353 . S
C1597 H1653 0.929 . S
C1598 C1594 1.356 . S
C1598 C1595 1.358 . S
C1598 H1654 0.930 . S
C1599 N1596 1.314 . S
C1599 C1597 1.353 . S
C1599 H1655 0.930 . S
C1600 N1601 1.314 . S
C1600 C1605 1.353 . S
C1600 H1606 0.930 . S
N1601 Li1584 1.990 . S
N1601 C1600 1.314 . S
N1601 C1603 1.279 . S
C1602 C1603 1.358 . S
C1602 C1604 1.356 . S
C1602 H1656 0.930 . S
C1603 N1601 1.279 . S
C1603 C1602 1.358 . S
C1603 H1607 0.930 . S
C1604 C1602 1.356 . S
C1604 C1605 1.348 . S
C1605 C1600 1.353 . S
C1605 C1604 1.348 . S
C1605 H1657 0.929 . S
H1606 C1600 0.930 . S
H1607 C1603 0.930 . S
C1608 N1609 1.314 . S
C1608 C1610 1.353 . S
C1608 H1614 0.930 . S
N1609 Li1585 1.990 . S
N1609 C1608 1.314 . S
N1609 C1612 1.279 . S
C1610 C1608 1.353 . S
C1610 C1613 1.348 . S
C1610 H1658 0.929 . S
C1611 C1612 1.358 . S
C1611 C1613 1.356 . S
C1611 H1659 0.930 . S
C1612 N1609 1.279 . S
C1612 C1611 1.358 . S
C1612 H1615 0.930 . S
C1613 C1610 1.348 . S
C1613 C1611 1.356 . S
H1614 C1608 0.930 . S
H1615 C1612 0.930 . S
C1616 C1618 1.348 . S
C1616 C1619 1.356 . S
C1616 O1646 1.325 . S
N1617 C1620 1.314 . S
N1617 C1621 1.279 . S
C1618 C1616 1.348 . S
C1618 C1620 1.353 . S
C1618 H1660 0.929 . S
C1619 C1616 1.356 . S
C1619 C1621 1.358 . S
C1619 H1661 0.930 . S
C1620 N1617 1.314 . S
C1620 C1618 1.353 . S
C1620 H1662 0.930 . S
C1621 N1617 1.279 . S
C1621 C1619 1.358 . S
C1621 H1663 0.930 . S
C1622 C1623 1.348 . S
C1622 C1624 1.356 . S
C1622 O1647 1.325 . S
C1623 C1622 1.348 . S
C1623 C1625 1.353 . S
C1623 H1664 0.929 . S
C1624 C1622 1.356 . S
C1624 C1626 1.358 . S
C1624 H1665 0.930 . S
C1625 C1623 1.353 . S
C1625 N1627 1.314 . S
C1625 H1666 0.930 . S
C1626 C1624 1.358 . S
C1626 N1627 1.279 . S
C1626 H1667 0.930 . S
N1627 C1625 1.314 . S
N1627 C1626 1.279 . S
C1628 C1630 1.353 . S
C1628 N1631 1.314 . S
C1628 H1634 0.930 . S
C1629 N1631 1.279 . S
C1629 C1632 1.358 . S
C1629 H1635 0.930 . S
C1630 C1628 1.353 . S
C1630 C1633 1.348 . S
C1630 H1668 0.929 . S
N1631 Li1586 1.990 . S
N1631 C1628 1.314 . S
N1631 C1629 1.279 . S
C1632 C1629 1.358 . S
C1632 C1633 1.356 . S
C1632 H1669 0.930 . S
C1633 C1630 1.348 . S
C1633 C1632 1.356 . S
H1634 C1628 0.930 . S
H1635 C1629 0.930 . S
C1636 N1637 1.314 . S
C1636 C1638 1.353 . S
C1636 H1642 0.930 . S
N1637 Li1587 1.990 . S
N1637 C1636 1.314 . S
N1637 C1640 1.279 . S
C1638 C1636 1.353 . S
C1638 C1641 1.348 . S
C1638 H1670 0.929 . S
C1639 C1640 1.358 . S
C1639 C1641 1.356 . S
C1639 H1671 0.930 . S
C1640 N1637 1.279 . S
C1640 C1639 1.358 . S
C1640 H1643 0.930 . S
C1641 C1638 1.348 . S
C1641 C1639 1.356 . S
H1642 C1636 0.930 . S
H1643 C1640 0.930 . S
O1644 Li1584 1.956 . S
O1644 Li1585 1.970 . S
O1644 Li1586 1.961 . S
O1644 C1588 1.325 . S
O1645 Li1584 1.970 . S
O1645 Li1585 1.956 . S
O1645 Li1587 1.961 . S
O1645 C1594 1.325 . S
O1646 Li1584 1.961 . S
O1646 Li1586 1.956 . S
O1646 Li1587 1.970 . S
O1646 C1616 1.325 . S
O1647 Li1585 1.961 . S
O1647 Li1586 1.970 . S
O1647 Li1587 1.956 . S
O1647 C1622 1.325 . S
H1648 C1590 0.929 . S
H1649 C1591 0.930 . S
H1650 C1592 0.930 . S
H1651 C1593 0.930 . S
H1652 C1595 0.930 . S
H1653 C1597 0.929 . S
H1654 C1598 0.930 . S
H1655 C1599 0.930 . S
H1656 C1602 0.930 . S
H1657 C1605 0.929 . S
H1658 C1610 0.929 . S
H1659 C1611 0.930 . S
H1660 C1618 0.929 . S
H1661 C1619 0.930 . S
H1662 C1620 0.930 . S
H1663 C1621 0.930 . S
H1664 C1623 0.929 . S
H1665 C1624 0.930 . S
H1666 C1625 0.930 . S
H1667 C1626 0.930 . S
H1668 C1630 0.929 . S
H1669 C1632 0.930 . S
H1670 C1638 0.929 . S
H1671 C1639 0.930 . S
Li1672 N1689 1.990 . S
Li1672 O1732 1.956 1_545 S
Li1672 O1733 1.970 . S
Li1672 O1734 1.961 . S
Li1673 N1697 1.990 . S
Li1673 O1732 1.970 . S
Li1673 O1733 1.956 1_565 S
Li1673 O1735 1.961 . S
Li1674 N1719 1.990 . S
Li1674 O1732 1.961 . S
Li1674 O1734 1.956 1_565 S
Li1674 O1735 1.970 . S
Li1675 N1725 1.990 . S
Li1675 O1733 1.961 . S
Li1675 O1734 1.970 . S
Li1675 O1735 1.956 1_545 S
C1676 C1678 1.348 . S
C1676 C1679 1.356 . S
C1676 O1732 1.325 . S
N1677 C1680 1.314 . S
N1677 C1681 1.279 . S
C1678 C1676 1.348 . S
C1678 C1680 1.353 . S
C1678 H1736 0.929 . S
C1679 C1676 1.356 . S
C1679 C1681 1.358 . S
C1679 H1737 0.930 . S
C1680 N1677 1.314 . S
C1680 C1678 1.353 . S
C1680 H1738 0.930 . S
C1681 N1677 1.279 . S
C1681 C1679 1.358 . S
C1681 H1739 0.930 . S
C1682 C1685 1.348 . S
C1682 C1686 1.356 . S
C1682 O1733 1.325 . S
C1683 N1684 1.279 . S
C1683 C1686 1.358 . S
C1683 H1740 0.930 . S
N1684 C1683 1.279 . S
N1684 C1687 1.314 . S
C1685 C1682 1.348 . S
C1685 C1687 1.353 . S
C1685 H1741 0.929 . S
C1686 C1682 1.356 . S
C1686 C1683 1.358 . S
C1686 H1742 0.930 . S
C1687 N1684 1.314 . S
C1687 C1685 1.353 . S
C1687 H1743 0.930 . S
C1688 N1689 1.314 . S
C1688 C1693 1.353 . S
C1688 H1694 0.930 . S
N1689 Li1672 1.990 . S
N1689 C1688 1.314 . S
N1689 C1691 1.279 . S
C1690 C1691 1.358 . S
C1690 C1692 1.356 . S
C1690 H1744 0.930 . S
C1691 N1689 1.279 . S
C1691 C1690 1.358 . S
C1691 H1695 0.930 1_545 S
C1692 C1690 1.356 . S
C1692 C1693 1.348 . S
C1693 C1688 1.353 . S
C1693 C1692 1.348 . S
C1693 H1745 0.929 . S
H1694 C1688 0.930 . S
H1695 C1691 0.930 1_565 S
C1696 N1697 1.314 . S
C1696 C1698 1.353 . S
C1696 H1702 0.930 . S
N1697 Li1673 1.990 . S
N1697 C1696 1.314 . S
N1697 C1700 1.279 . S
C1698 C1696 1.353 . S
C1698 C1701 1.348 . S
C1698 H1746 0.929 . S
C1699 C1700 1.358 . S
C1699 C1701 1.356 . S
C1699 H1747 0.930 . S
C1700 N1697 1.279 . S
C1700 C1699 1.358 . S
C1700 H1703 0.930 . S
C1701 C1698 1.348 . S
C1701 C1699 1.356 . S
H1702 C1696 0.930 . S
H1703 C1700 0.930 . S
C1704 C1706 1.348 . S
C1704 C1707 1.356 . S
C1704 O1734 1.325 . S
N1705 C1708 1.314 . S
N1705 C1709 1.279 . S
C1706 C1704 1.348 . S
C1706 C1708 1.353 . S
C1706 H1748 0.929 . S
C1707 C1704 1.356 . S
C1707 C1709 1.358 . S
C1707 H1749 0.930 . S
C1708 N1705 1.314 . S
C1708 C1706 1.353 . S
C1708 H1750 0.930 . S
C1709 N1705 1.279 . S
C1709 C1707 1.358 . S
C1709 H1751 0.930 . S
C1710 C1711 1.348 . S
C1710 C1712 1.356 . S
C1710 O1735 1.325 . S
C1711 C1710 1.348 . S
C1711 C1713 1.353 . S
C1711 H1752 0.929 . S
C1712 C1710 1.356 . S
C1712 C1714 1.358 . S
C1712 H1753 0.930 . S
C1713 C1711 1.353 . S
C1713 N1715 1.314 . S
C1713 H1754 0.930 . S
C1714 C1712 1.358 . S
C1714 N1715 1.279 . S
C1714 H1755 0.930 . S
N1715 C1713 1.314 . S
N1715 C1714 1.279 . S
C1716 C1718 1.353 . S
C1716 N1719 1.314 . S
C1716 H1722 0.930 . S
C1717 N1719 1.279 . S
C1717 C1720 1.358 . S
C1717 H1723 0.930 1_565 S
C1718 C1716 1.353 . S
C1718 C1721 1.348 . S
C1718 H1756 0.929 . S
N1719 Li1674 1.990 . S
N1719 C1716 1.314 . S
N1719 C1717 1.279 . S
C1720 C1717 1.358 . S
C1720 C1721 1.356 . S
C1720 H1757 0.930 . S
C1721 C1718 1.348 . S
C1721 C1720 1.356 . S
H1722 C1716 0.930 . S
H1723 C1717 0.930 1_545 S
C1724 N1725 1.314 . S
C1724 C1726 1.353 . S
C1724 H1730 0.930 . S
N1725 Li1675 1.990 . S
N1725 C1724 1.314 . S
N1725 C1728 1.279 . S
C1726 C1724 1.353 . S
C1726 C1729 1.348 . S
C1726 H1758 0.929 . S
C1727 C1728 1.358 . S
C1727 C1729 1.356 . S
C1727 H1759 0.930 . S
C1728 N1725 1.279 . S
C1728 C1727 1.358 . S
C1728 H1731 0.930 . S
C1729 C1726 1.348 . S
C1729 C1727 1.356 . S
H1730 C1724 0.930 . S
H1731 C1728 0.930 . S
O1732 Li1672 1.956 1_565 S
O1732 Li1673 1.970 . S
O1732 Li1674 1.961 . S
O1732 C1676 1.325 . S
O1733 Li1672 1.970 . S
O1733 Li1673 1.956 1_545 S
O1733 Li1675 1.961 . S
O1733 C1682 1.325 . S
O1734 Li1672 1.961 . S
O1734 Li1674 1.956 1_545 S
O1734 Li1675 1.970 . S
O1734 C1704 1.325 . S
O1735 Li1673 1.961 . S
O1735 Li1674 1.970 . S
O1735 Li1675 1.956 1_565 S
O1735 C1710 1.325 . S
H1736 C1678 0.929 . S
H1737 C1679 0.930 . S
H1738 C1680 0.930 . S
H1739 C1681 0.930 . S
H1740 C1683 0.930 . S
H1741 C1685 0.929 . S
H1742 C1686 0.930 . S
H1743 C1687 0.930 . S
H1744 C1690 0.930 . S
H1745 C1693 0.929 . S
H1746 C1698 0.929 . S
H1747 C1699 0.930 . S
H1748 C1706 0.929 . S
H1749 C1707 0.930 . S
H1750 C1708 0.930 . S
H1751 C1709 0.930 . S
H1752 C1711 0.929 . S
H1753 C1712 0.930 . S
H1754 C1713 0.930 . S
H1755 C1714 0.930 . S
H1756 C1718 0.929 . S
H1757 C1720 0.930 . S
H1758 C1726 0.929 . S
H1759 C1727 0.930 . S
Li1760 N1777 1.990 . S
Li1760 O1820 1.956 1_556 S
Li1760 O1821 1.970 . S
Li1760 O1822 1.961 . S
Li1761 N1785 1.990 . S
Li1761 O1820 1.970 . S
Li1761 O1821 1.956 1_554 S
Li1761 O1823 1.961 . S
Li1762 N1807 1.990 . S
Li1762 O1820 1.961 . S
Li1762 O1822 1.956 1_554 S
Li1762 O1823 1.970 . S
Li1763 N1813 1.990 . S
Li1763 O1821 1.961 . S
Li1763 O1822 1.970 . S
Li1763 O1823 1.956 1_556 S
C1764 C1766 1.348 . S
C1764 C1767 1.356 . S
C1764 O1820 1.325 . S
N1765 C1768 1.314 . S
N1765 C1769 1.279 . S
C1766 C1764 1.348 . S
C1766 C1768 1.353 . S
C1766 H1824 0.929 . S
C1767 C1764 1.356 . S
C1767 C1769 1.358 . S
C1767 H1825 0.930 . S
C1768 N1765 1.314 . S
C1768 C1766 1.353 . S
C1768 H1826 0.930 . S
C1769 N1765 1.279 . S
C1769 C1767 1.358 . S
C1769 H1827 0.930 . S
C1770 C1773 1.348 . S
C1770 C1774 1.356 . S
C1770 O1821 1.325 . S
C1771 N1772 1.279 . S
C1771 C1774 1.358 . S
C1771 H1828 0.930 . S
N1772 C1771 1.279 . S
N1772 C1775 1.314 . S
C1773 C1770 1.348 . S
C1773 C1775 1.353 . S
C1773 H1829 0.929 . S
C1774 C1770 1.356 . S
C1774 C1771 1.358 . S
C1774 H1830 0.930 . S
C1775 N1772 1.314 . S
C1775 C1773 1.353 . S
C1775 H1831 0.930 . S
C1776 N1777 1.314 . S
C1776 C1781 1.353 . S
C1776 H1782 0.930 . S
N1777 Li1760 1.990 . S
N1777 C1776 1.314 . S
N1777 C1779 1.279 . S
C1778 C1779 1.358 . S
C1778 C1780 1.356 . S
C1778 H1832 0.930 . S
C1779 N1777 1.279 . S
C1779 C1778 1.358 . S
C1779 H1783 0.930 . S
C1780 C1778 1.356 . S
C1780 C1781 1.348 . S
C1781 C1776 1.353 . S
C1781 C1780 1.348 . S
C1781 H1833 0.929 . S
H1782 C1776 0.930 . S
H1783 C1779 0.930 . S
C1784 N1785 1.314 . S
C1784 C1786 1.353 . S
C1784 H1790 0.930 . S
N1785 Li1761 1.990 . S
N1785 C1784 1.314 . S
N1785 C1788 1.279 . S
C1786 C1784 1.353 . S
C1786 C1789 1.348 . S
C1786 H1834 0.929 . S
C1787 C1788 1.358 . S
C1787 C1789 1.356 . S
C1787 H1835 0.930 . S
C1788 N1785 1.279 . S
C1788 C1787 1.358 . S
C1788 H1791 0.930 1_554 S
C1789 C1786 1.348 . S
C1789 C1787 1.356 . S
H1790 C1784 0.930 . S
H1791 C1788 0.930 1_556 S
C1792 C1794 1.348 . S
C1792 C1795 1.356 . S
C1792 O1822 1.325 . S
N1793 C1796 1.314 . S
N1793 C1797 1.279 . S
C1794 C1792 1.348 . S
C1794 C1796 1.353 . S
C1794 H1836 0.929 . S
C1795 C1792 1.356 . S
C1795 C1797 1.358 . S
C1795 H1837 0.930 . S
C1796 N1793 1.314 . S
C1796 C1794 1.353 . S
C1796 H1838 0.930 . S
C1797 N1793 1.279 . S
C1797 C1795 1.358 . S
C1797 H1839 0.930 . S
C1798 C1799 1.348 . S
C1798 C1800 1.356 . S
C1798 O1823 1.325 . S
C1799 C1798 1.348 . S
C1799 C1801 1.353 . S
C1799 H1840 0.929 . S
C1800 C1798 1.356 . S
C1800 C1802 1.358 . S
C1800 H1841 0.930 . S
C1801 C1799 1.353 . S
C1801 N1803 1.314 . S
C1801 H1842 0.930 . S
C1802 C1800 1.358 . S
C1802 N1803 1.279 . S
C1802 H1843 0.930 . S
N1803 C1801 1.314 . S
N1803 C1802 1.279 . S
C1804 C1806 1.353 . S
C1804 N1807 1.314 . S
C1804 H1810 0.930 . S
C1805 N1807 1.279 . S
C1805 C1808 1.358 . S
C1805 H1811 0.930 . S
C1806 C1804 1.353 . S
C1806 C1809 1.348 . S
C1806 H1844 0.929 . S
N1807 Li1762 1.990 . S
N1807 C1804 1.314 . S
N1807 C1805 1.279 . S
C1808 C1805 1.358 . S
C1808 C1809 1.356 . S
C1808 H1845 0.930 . S
C1809 C1806 1.348 . S
C1809 C1808 1.356 . S
H1810 C1804 0.930 . S
H1811 C1805 0.930 . S
C1812 N1813 1.314 . S
C1812 C1814 1.353 . S
C1812 H1818 0.930 . S
N1813 Li1763 1.990 . S
N1813 C1812 1.314 . S
N1813 C1816 1.279 . S
C1814 C1812 1.353 . S
C1814 C1817 1.348 . S
C1814 H1846 0.929 . S
C1815 C1816 1.358 . S
C1815 C1817 1.356 . S
C1815 H1847 0.930 . S
C1816 N1813 1.279 . S
C1816 C1815 1.358 . S
C1816 H1819 0.930 1_556 S
C1817 C1814 1.348 . S
C1817 C1815 1.356 . S
H1818 C1812 0.930 . S
H1819 C1816 0.930 1_554 S
O1820 Li1760 1.956 1_554 S
O1820 Li1761 1.970 . S
O1820 Li1762 1.961 . S
O1820 C1764 1.325 . S
O1821 Li1760 1.970 . S
O1821 Li1761 1.956 1_556 S
O1821 Li1763 1.961 . S
O1821 C1770 1.325 . S
O1822 Li1760 1.961 . S
O1822 Li1762 1.956 1_556 S
O1822 Li1763 1.970 . S
O1822 C1792 1.325 . S
O1823 Li1761 1.961 . S
O1823 Li1762 1.970 . S
O1823 Li1763 1.956 1_554 S
O1823 C1798 1.325 . S
H1824 C1766 0.929 . S
H1825 C1767 0.930 . S
H1826 C1768 0.930 . S
H1827 C1769 0.930 . S
H1828 C1771 0.930 . S
H1829 C1773 0.929 . S
H1830 C1774 0.930 . S
H1831 C1775 0.930 . S
H1832 C1778 0.930 . S
H1833 C1781 0.929 . S
H1834 C1786 0.929 . S
H1835 C1787 0.930 . S
H1836 C1794 0.929 . S
H1837 C1795 0.930 . S
H1838 C1796 0.930 . S
H1839 C1797 0.930 . S
H1840 C1799 0.929 . S
H1841 C1800 0.930 . S
H1842 C1801 0.930 . S
H1843 C1802 0.930 . S
H1844 C1806 0.929 . S
H1845 C1808 0.930 . S
H1846 C1814 0.929 . S
H1847 C1815 0.930 . S
Li1848 N1865 1.990 . S
Li1848 O1908 1.956 . S
Li1848 O1909 1.970 . S
Li1848 O1910 1.961 . S
Li1849 N1873 1.990 . S
Li1849 O1908 1.970 . S
Li1849 O1909 1.956 . S
Li1849 O1911 1.961 . S
Li1850 N1895 1.990 . S
Li1850 O1908 1.961 . S
Li1850 O1910 1.956 . S
Li1850 O1911 1.970 . S
Li1851 N1901 1.990 . S
Li1851 O1909 1.961 . S
Li1851 O1910 1.970 . S
Li1851 O1911 1.956 . S
C1852 C1854 1.348 . S
C1852 C1855 1.356 . S
C1852 O1908 1.325 . S
N1853 C1856 1.314 . S
N1853 C1857 1.279 . S
C1854 C1852 1.348 . S
C1854 C1856 1.353 . S
C1854 H1912 0.929 . S
C1855 C1852 1.356 . S
C1855 C1857 1.358 . S
C1855 H1913 0.930 . S
C1856 N1853 1.314 . S
C1856 C1854 1.353 . S
C1856 H1914 0.930 . S
C1857 N1853 1.279 . S
C1857 C1855 1.358 . S
C1857 H1915 0.930 . S
C1858 C1861 1.348 . S
C1858 C1862 1.356 . S
C1858 O1909 1.325 . S
C1859 N1860 1.279 . S
C1859 C1862 1.358 . S
C1859 H1916 0.930 . S
N1860 C1859 1.279 . S
N1860 C1863 1.314 . S
C1861 C1858 1.348 . S
C1861 C1863 1.353 . S
C1861 H1917 0.929 . S
C1862 C1858 1.356 . S
C1862 C1859 1.358 . S
C1862 H1918 0.930 . S
C1863 N1860 1.314 . S
C1863 C1861 1.353 . S
C1863 H1919 0.930 . S
C1864 N1865 1.314 . S
C1864 C1869 1.353 . S
C1864 H1870 0.930 . S
N1865 Li1848 1.990 . S
N1865 C1864 1.314 . S
N1865 C1867 1.279 . S
C1866 C1867 1.358 . S
C1866 C1868 1.356 . S
C1866 H1920 0.930 . S
C1867 N1865 1.279 . S
C1867 C1866 1.358 . S
C1867 H1871 0.930 . S
C1868 C1866 1.356 . S
C1868 C1869 1.348 . S
C1869 C1864 1.353 . S
C1869 C1868 1.348 . S
C1869 H1921 0.929 . S
H1870 C1864 0.930 . S
H1871 C1867 0.930 . S
C1872 N1873 1.314 . S
C1872 C1874 1.353 . S
C1872 H1878 0.930 . S
N1873 Li1849 1.990 . S
N1873 C1872 1.314 . S
N1873 C1876 1.279 . S
C1874 C1872 1.353 . S
C1874 C1877 1.348 . S
C1874 H1922 0.929 . S
C1875 C1876 1.358 . S
C1875 C1877 1.356 . S
C1875 H1923 0.930 . S
C1876 N1873 1.279 . S
C1876 C1875 1.358 . S
C1876 H1879 0.930 . S
C1877 C1874 1.348 . S
C1877 C1875 1.356 . S
H1878 C1872 0.930 . S
H1879 C1876 0.930 . S
C1880 C1882 1.348 . S
C1880 C1883 1.356 . S
C1880 O1910 1.325 . S
N1881 C1884 1.314 . S
N1881 C1885 1.279 . S
C1882 C1880 1.348 . S
C1882 C1884 1.353 . S
C1882 H1924 0.929 . S
C1883 C1880 1.356 . S
C1883 C1885 1.358 . S
C1883 H1925 0.930 . S
C1884 N1881 1.314 . S
C1884 C1882 1.353 . S
C1884 H1926 0.930 . S
C1885 N1881 1.279 . S
C1885 C1883 1.358 . S
C1885 H1927 0.930 . S
C1886 C1887 1.348 . S
C1886 C1888 1.356 . S
C1886 O1911 1.325 . S
C1887 C1886 1.348 . S
C1887 C1889 1.353 . S
C1887 H1928 0.929 . S
C1888 C1886 1.356 . S
C1888 C1890 1.358 . S
C1888 H1929 0.930 . S
C1889 C1887 1.353 . S
C1889 N1891 1.314 . S
C1889 H1930 0.930 . S
C1890 C1888 1.358 . S
C1890 N1891 1.279 . S
C1890 H1931 0.930 . S
N1891 C1889 1.314 . S
N1891 C1890 1.279 . S
C1892 C1894 1.353 . S
C1892 N1895 1.314 . S
C1892 H1898 0.930 . S
C1893 N1895 1.279 . S
C1893 C1896 1.358 . S
C1893 H1899 0.930 . S
C1894 C1892 1.353 . S
C1894 C1897 1.348 . S
C1894 H1932 0.929 . S
N1895 Li1850 1.990 . S
N1895 C1892 1.314 . S
N1895 C1893 1.279 . S
C1896 C1893 1.358 . S
C1896 C1897 1.356 . S
C1896 H1933 0.930 . S
C1897 C1894 1.348 . S
C1897 C1896 1.356 . S
H1898 C1892 0.930 . S
H1899 C1893 0.930 . S
C1900 N1901 1.314 . S
C1900 C1902 1.353 . S
C1900 H1906 0.930 . S
N1901 Li1851 1.990 . S
N1901 C1900 1.314 . S
N1901 C1904 1.279 . S
C1902 C1900 1.353 . S
C1902 C1905 1.348 . S
C1902 H1934 0.929 . S
C1903 C1904 1.358 . S
C1903 C1905 1.356 . S
C1903 H1935 0.930 . S
C1904 N1901 1.279 . S
C1904 C1903 1.358 . S
C1904 H1907 0.930 . S
C1905 C1902 1.348 . S
C1905 C1903 1.356 . S
H1906 C1900 0.930 . S
H1907 C1904 0.930 . S
O1908 Li1848 1.956 . S
O1908 Li1849 1.970 . S
O1908 Li1850 1.961 . S
O1908 C1852 1.325 . S
O1909 Li1848 1.970 . S
O1909 Li1849 1.956 . S
O1909 Li1851 1.961 . S
O1909 C1858 1.325 . S
O1910 Li1848 1.961 . S
O1910 Li1850 1.956 . S
O1910 Li1851 1.970 . S
O1910 C1880 1.325 . S
O1911 Li1849 1.961 . S
O1911 Li1850 1.970 . S
O1911 Li1851 1.956 . S
O1911 C1886 1.325 . S
H1912 C1854 0.929 . S
H1913 C1855 0.930 . S
H1914 C1856 0.930 . S
H1915 C1857 0.930 . S
H1916 C1859 0.930 . S
H1917 C1861 0.929 . S
H1918 C1862 0.930 . S
H1919 C1863 0.930 . S
H1920 C1866 0.930 . S
H1921 C1869 0.929 . S
H1922 C1874 0.929 . S
H1923 C1875 0.930 . S
H1924 C1882 0.929 . S
H1925 C1883 0.930 . S
H1926 C1884 0.930 . S
H1927 C1885 0.930 . S
H1928 C1887 0.929 . S
H1929 C1888 0.930 . S
H1930 C1889 0.930 . S
H1931 C1890 0.930 . S
H1932 C1894 0.929 . S
H1933 C1896 0.930 . S
H1934 C1902 0.929 . S
H1935 C1903 0.930 . S
Li1936 N1953 1.990 . S
Li1936 O1996 1.956 . S
Li1936 O1997 1.970 . S
Li1936 O1998 1.961 . S
Li1937 N1961 1.990 . S
Li1937 O1996 1.970 . S
Li1937 O1997 1.956 . S
Li1937 O1999 1.961 . S
Li1938 N1983 1.990 . S
Li1938 O1996 1.961 . S
Li1938 O1998 1.956 . S
Li1938 O1999 1.970 . S
Li1939 N1989 1.990 . S
Li1939 O1997 1.961 . S
Li1939 O1998 1.970 . S
Li1939 O1999 1.956 . S
C1940 C1942 1.348 . S
C1940 C1943 1.356 . S
C1940 O1996 1.325 . S
N1941 C1944 1.314 . S
N1941 C1945 1.279 . S
C1942 C1940 1.348 . S
C1942 C1944 1.353 . S
C1942 H2000 0.929 . S
C1943 C1940 1.356 . S
C1943 C1945 1.358 . S
C1943 H2001 0.930 . S
C1944 N1941 1.314 . S
C1944 C1942 1.353 . S
C1944 H2002 0.930 . S
C1945 N1941 1.279 . S
C1945 C1943 1.358 . S
C1945 H2003 0.930 . S
C1946 C1949 1.348 . S
C1946 C1950 1.356 . S
C1946 O1997 1.325 . S
C1947 N1948 1.279 . S
C1947 C1950 1.358 . S
C1947 H2004 0.930 . S
N1948 C1947 1.279 . S
N1948 C1951 1.314 . S
C1949 C1946 1.348 . S
C1949 C1951 1.353 . S
C1949 H2005 0.929 . S
C1950 C1946 1.356 . S
C1950 C1947 1.358 . S
C1950 H2006 0.930 . S
C1951 N1948 1.314 . S
C1951 C1949 1.353 . S
C1951 H2007 0.930 . S
C1952 N1953 1.314 . S
C1952 C1957 1.353 . S
C1952 H1958 0.930 . S
N1953 Li1936 1.990 . S
N1953 C1952 1.314 . S
N1953 C1955 1.279 . S
C1954 C1955 1.358 . S
C1954 C1956 1.356 . S
C1954 H2008 0.930 . S
C1955 N1953 1.279 . S
C1955 C1954 1.358 . S
C1955 H1959 0.930 . S
C1956 C1954 1.356 . S
C1956 C1957 1.348 . S
C1957 C1952 1.353 . S
C1957 C1956 1.348 . S
C1957 H2009 0.929 . S
H1958 C1952 0.930 . S
H1959 C1955 0.930 . S
C1960 N1961 1.314 . S
C1960 C1962 1.353 . S
C1960 H1966 0.930 . S
N1961 Li1937 1.990 . S
N1961 C1960 1.314 . S
N1961 C1964 1.279 . S
C1962 C1960 1.353 . S
C1962 C1965 1.348 . S
C1962 H2010 0.929 . S
C1963 C1964 1.358 . S
C1963 C1965 1.356 . S
C1963 H2011 0.930 . S
C1964 N1961 1.279 . S
C1964 C1963 1.358 . S
C1964 H1967 0.930 . S
C1965 C1962 1.348 . S
C1965 C1963 1.356 . S
H1966 C1960 0.930 . S
H1967 C1964 0.930 . S
C1968 C1970 1.348 . S
C1968 C1971 1.356 . S
C1968 O1998 1.325 . S
N1969 C1972 1.314 . S
N1969 C1973 1.279 . S
C1970 C1968 1.348 . S
C1970 C1972 1.353 . S
C1970 H2012 0.929 . S
C1971 C1968 1.356 . S
C1971 C1973 1.358 . S
C1971 H2013 0.930 . S
C1972 N1969 1.314 . S
C1972 C1970 1.353 . S
C1972 H2014 0.930 . S
C1973 N1969 1.279 . S
C1973 C1971 1.358 . S
C1973 H2015 0.930 . S
C1974 C1975 1.348 . S
C1974 C1976 1.356 . S
C1974 O1999 1.325 . S
C1975 C1974 1.348 . S
C1975 C1977 1.353 . S
C1975 H2016 0.929 . S
C1976 C1974 1.356 . S
C1976 C1978 1.358 . S
C1976 H2017 0.930 . S
C1977 C1975 1.353 . S
C1977 N1979 1.314 . S
C1977 H2018 0.930 . S
C1978 C1976 1.358 . S
C1978 N1979 1.279 . S
C1978 H2019 0.930 . S
N1979 C1977 1.314 . S
N1979 C1978 1.279 . S
C1980 C1982 1.353 . S
C1980 N1983 1.314 . S
C1980 H1986 0.930 . S
C1981 N1983 1.279 . S
C1981 C1984 1.358 . S
C1981 H1987 0.930 . S
C1982 C1980 1.353 . S
C1982 C1985 1.348 . S
C1982 H2020 0.929 . S
N1983 Li1938 1.990 . S
N1983 C1980 1.314 . S
N1983 C1981 1.279 . S
C1984 C1981 1.358 . S
C1984 C1985 1.356 . S
C1984 H2021 0.930 . S
C1985 C1982 1.348 . S
C1985 C1984 1.356 . S
H1986 C1980 0.930 . S
H1987 C1981 0.930 . S
C1988 N1989 1.314 . S
C1988 C1990 1.353 . S
C1988 H1994 0.930 . S
N1989 Li1939 1.990 . S
N1989 C1988 1.314 . S
N1989 C1992 1.279 . S
C1990 C1988 1.353 . S
C1990 C1993 1.348 . S
C1990 H2022 0.929 . S
C1991 C1992 1.358 . S
C1991 C1993 1.356 . S
C1991 H2023 0.930 . S
C1992 N1989 1.279 . S
C1992 C1991 1.358 . S
C1992 H1995 0.930 . S
C1993 C1990 1.348 . S
C1993 C1991 1.356 . S
H1994 C1988 0.930 . S
H1995 C1992 0.930 . S
O1996 Li1936 1.956 . S
O1996 Li1937 1.970 . S
O1996 Li1938 1.961 . S
O1996 C1940 1.325 . S
O1997 Li1936 1.970 . S
O1997 Li1937 1.956 . S
O1997 Li1939 1.961 . S
O1997 C1946 1.325 . S
O1998 Li1936 1.961 . S
O1998 Li1938 1.956 . S
O1998 Li1939 1.970 . S
O1998 C1968 1.325 . S
O1999 Li1937 1.961 . S
O1999 Li1938 1.970 . S
O1999 Li1939 1.956 . S
O1999 C1974 1.325 . S
H2000 C1942 0.929 . S
H2001 C1943 0.930 . S
H2002 C1944 0.930 . S
H2003 C1945 0.930 . S
H2004 C1947 0.930 . S
H2005 C1949 0.929 . S
H2006 C1950 0.930 . S
H2007 C1951 0.930 . S
H2008 C1954 0.930 . S
H2009 C1957 0.929 . S
H2010 C1962 0.929 . S
H2011 C1963 0.930 . S
H2012 C1970 0.929 . S
H2013 C1971 0.930 . S
H2014 C1972 0.930 . S
H2015 C1973 0.930 . S
H2016 C1975 0.929 . S
H2017 C1976 0.930 . S
H2018 C1977 0.930 . S
H2019 C1978 0.930 . S
H2020 C1982 0.929 . S
H2021 C1984 0.930 . S
H2022 C1990 0.929 . S
H2023 C1991 0.930 . S
Li2024 N2041 1.990 . S
Li2024 O2084 1.956 . S
Li2024 O2085 1.970 . S
Li2024 O2086 1.961 . S
Li2025 N2049 1.990 . S
Li2025 O2084 1.970 . S
Li2025 O2085 1.956 . S
Li2025 O2087 1.961 . S
Li2026 N2071 1.990 . S
Li2026 O2084 1.961 . S
Li2026 O2086 1.956 . S
Li2026 O2087 1.970 . S
Li2027 N2077 1.990 . S
Li2027 O2085 1.961 . S
Li2027 O2086 1.970 . S
Li2027 O2087 1.956 . S
C2028 C2030 1.348 . S
C2028 C2031 1.356 . S
C2028 O2084 1.325 . S
N2029 C2032 1.314 . S
N2029 C2033 1.279 . S
C2030 C2028 1.348 . S
C2030 C2032 1.353 . S
C2030 H2088 0.929 . S
C2031 C2028 1.356 . S
C2031 C2033 1.358 . S
C2031 H2089 0.930 . S
C2032 N2029 1.314 . S
C2032 C2030 1.353 . S
C2032 H2090 0.930 . S
C2033 N2029 1.279 . S
C2033 C2031 1.358 . S
C2033 H2091 0.930 . S
C2034 C2037 1.348 . S
C2034 C2038 1.356 . S
C2034 O2085 1.325 . S
C2035 N2036 1.279 . S
C2035 C2038 1.358 . S
C2035 H2092 0.930 . S
N2036 C2035 1.279 . S
N2036 C2039 1.314 . S
C2037 C2034 1.348 . S
C2037 C2039 1.353 . S
C2037 H2093 0.929 . S
C2038 C2034 1.356 . S
C2038 C2035 1.358 . S
C2038 H2094 0.930 . S
C2039 N2036 1.314 . S
C2039 C2037 1.353 . S
C2039 H2095 0.930 . S
C2040 N2041 1.314 . S
C2040 C2045 1.353 . S
C2040 H2046 0.930 . S
N2041 Li2024 1.990 . S
N2041 C2040 1.314 . S
N2041 C2043 1.279 . S
C2042 C2043 1.358 . S
C2042 C2044 1.356 . S
C2042 H2096 0.930 . S
C2043 N2041 1.279 . S
C2043 C2042 1.358 . S
C2043 H2047 0.930 . S
C2044 C2042 1.356 . S
C2044 C2045 1.348 . S
C2045 C2040 1.353 . S
C2045 C2044 1.348 . S
C2045 H2097 0.929 . S
H2046 C2040 0.930 . S
H2047 C2043 0.930 . S
C2048 N2049 1.314 . S
C2048 C2050 1.353 . S
C2048 H2054 0.930 . S
N2049 Li2025 1.990 . S
N2049 C2048 1.314 . S
N2049 C2052 1.279 . S
C2050 C2048 1.353 . S
C2050 C2053 1.348 . S
C2050 H2098 0.929 . S
C2051 C2052 1.358 . S
C2051 C2053 1.356 . S
C2051 H2099 0.930 . S
C2052 N2049 1.279 . S
C2052 C2051 1.358 . S
C2052 H2055 0.930 . S
C2053 C2050 1.348 . S
C2053 C2051 1.356 . S
H2054 C2048 0.930 . S
H2055 C2052 0.930 . S
C2056 C2058 1.348 . S
C2056 C2059 1.356 . S
C2056 O2086 1.325 . S
N2057 C2060 1.314 . S
N2057 C2061 1.279 . S
C2058 C2056 1.348 . S
C2058 C2060 1.353 . S
C2058 H2100 0.929 . S
C2059 C2056 1.356 . S
C2059 C2061 1.358 . S
C2059 H2101 0.930 . S
C2060 N2057 1.314 . S
C2060 C2058 1.353 . S
C2060 H2102 0.930 . S
C2061 N2057 1.279 . S
C2061 C2059 1.358 . S
C2061 H2103 0.930 . S
C2062 C2063 1.348 . S
C2062 C2064 1.356 . S
C2062 O2087 1.325 . S
C2063 C2062 1.348 . S
C2063 C2065 1.353 . S
C2063 H2104 0.929 . S
C2064 C2062 1.356 . S
C2064 C2066 1.358 . S
C2064 H2105 0.930 . S
C2065 C2063 1.353 . S
C2065 N2067 1.314 . S
C2065 H2106 0.930 . S
C2066 C2064 1.358 . S
C2066 N2067 1.279 . S
C2066 H2107 0.930 . S
N2067 C2065 1.314 . S
N2067 C2066 1.279 . S
C2068 C2070 1.353 . S
C2068 N2071 1.314 . S
C2068 H2074 0.930 . S
C2069 N2071 1.279 . S
C2069 C2072 1.358 . S
C2069 H2075 0.930 . S
C2070 C2068 1.353 . S
C2070 C2073 1.348 . S
C2070 H2108 0.929 . S
N2071 Li2026 1.990 . S
N2071 C2068 1.314 . S
N2071 C2069 1.279 . S
C2072 C2069 1.358 . S
C2072 C2073 1.356 . S
C2072 H2109 0.930 . S
C2073 C2070 1.348 . S
C2073 C2072 1.356 . S
H2074 C2068 0.930 . S
H2075 C2069 0.930 . S
C2076 N2077 1.314 . S
C2076 C2078 1.353 . S
C2076 H2082 0.930 . S
N2077 Li2027 1.990 . S
N2077 C2076 1.314 . S
N2077 C2080 1.279 . S
C2078 C2076 1.353 . S
C2078 C2081 1.348 . S
C2078 H2110 0.929 . S
C2079 C2080 1.358 . S
C2079 C2081 1.356 . S
C2079 H2111 0.930 . S
C2080 N2077 1.279 . S
C2080 C2079 1.358 . S
C2080 H2083 0.930 . S
C2081 C2078 1.348 . S
C2081 C2079 1.356 . S
H2082 C2076 0.930 . S
H2083 C2080 0.930 . S
O2084 Li2024 1.956 . S
O2084 Li2025 1.970 . S
O2084 Li2026 1.961 . S
O2084 C2028 1.325 . S
O2085 Li2024 1.970 . S
O2085 Li2025 1.956 . S
O2085 Li2027 1.961 . S
O2085 C2034 1.325 . S
O2086 Li2024 1.961 . S
O2086 Li2026 1.956 . S
O2086 Li2027 1.970 . S
O2086 C2056 1.325 . S
O2087 Li2025 1.961 . S
O2087 Li2026 1.970 . S
O2087 Li2027 1.956 . S
O2087 C2062 1.325 . S
H2088 C2030 0.929 . S
H2089 C2031 0.930 . S
H2090 C2032 0.930 . S
H2091 C2033 0.930 . S
H2092 C2035 0.930 . S
H2093 C2037 0.929 . S
H2094 C2038 0.930 . S
H2095 C2039 0.930 . S
H2096 C2042 0.930 . S
H2097 C2045 0.929 . S
H2098 C2050 0.929 . S
H2099 C2051 0.930 . S
H2100 C2058 0.929 . S
H2101 C2059 0.930 . S
H2102 C2060 0.930 . S
H2103 C2061 0.930 . S
H2104 C2063 0.929 . S
H2105 C2064 0.930 . S
H2106 C2065 0.930 . S
H2107 C2066 0.930 . S
H2108 C2070 0.929 . S
H2109 C2072 0.930 . S
H2110 C2078 0.929 . S
H2111 C2079 0.930 . S
C2112 C2113 1.369 . S
C2112 C2114 1.419 . S
C2112 H2116 0.930 . S
C2113 C2112 1.369 . S
C2113 C2122 1.429 . S
C2114 C2112 1.419 . S
C2114 C2115 1.363 . S
C2114 H2117 0.929 . S
C2115 C2114 1.363 . S
C2115 C2121 1.428 . S
H2116 C2112 0.930 . S
H2117 C2114 0.929 . S
S2118 N2119 1.613 . S
S2118 N2120 1.610 . S
N2119 S2118 1.613 . S
N2119 C2122 1.350 . S
N2120 S2118 1.610 . S
N2120 C2121 1.351 . S
C2121 C2115 1.428 . S
C2121 N2120 1.351 . S
C2121 C2122 1.434 . S
C2122 C2113 1.429 . S
C2122 N2119 1.350 . S
C2122 C2121 1.434 . S
C2123 C2124 1.369 . S
C2123 C2125 1.419 . S
C2123 H2127 0.930 . S
C2124 C2123 1.369 . S
C2124 C2133 1.429 . S
C2125 C2123 1.419 . S
C2125 C2126 1.363 . S
C2125 H2128 0.929 . S
C2126 C2125 1.363 . S
C2126 C2132 1.428 . S
H2127 C2123 0.930 . S
H2128 C2125 0.929 . S
S2129 N2130 1.613 . S
S2129 N2131 1.610 . S
N2130 S2129 1.613 . S
N2130 C2133 1.350 . S
N2131 S2129 1.610 . S
N2131 C2132 1.351 . S
C2132 C2126 1.428 . S
C2132 N2131 1.351 . S
C2132 C2133 1.434 . S
C2133 C2124 1.429 . S
C2133 N2130 1.350 . S
C2133 C2132 1.434 . S
C2134 C2135 1.369 . S
C2134 C2136 1.419 . S
C2134 H2138 0.930 . S
C2135 C2134 1.369 . S
C2135 C2144 1.429 . S
C2136 C2134 1.419 . S
C2136 C2137 1.363 . S
C2136 H2139 0.929 . S
C2137 C2136 1.363 . S
C2137 C2143 1.428 . S
H2138 C2134 0.930 . S
H2139 C2136 0.929 . S
S2140 N2141 1.613 . S
S2140 N2142 1.610 . S
N2141 S2140 1.613 . S
N2141 C2144 1.350 . S
N2142 S2140 1.610 . S
N2142 C2143 1.351 . S
C2143 C2137 1.428 . S
C2143 N2142 1.351 . S
C2143 C2144 1.434 . S
C2144 C2135 1.429 . S
C2144 N2141 1.350 . S
C2144 C2143 1.434 . S
C2145 C2146 1.369 . S
C2145 C2147 1.419 . S
C2145 H2149 0.930 . S
C2146 C2145 1.369 . S
C2146 C2155 1.429 . S
C2147 C2145 1.419 . S
C2147 C2148 1.363 . S
C2147 H2150 0.929 . S
C2148 C2147 1.363 . S
C2148 C2154 1.428 . S
H2149 C2145 0.930 . S
H2150 C2147 0.929 . S
S2151 N2152 1.613 . S
S2151 N2153 1.610 . S
N2152 S2151 1.613 . S
N2152 C2155 1.350 . S
N2153 S2151 1.610 . S
N2153 C2154 1.351 . S
C2154 C2148 1.428 . S
C2154 N2153 1.351 . S
C2154 C2155 1.434 . S
C2155 C2146 1.429 . S
C2155 N2152 1.350 . S
C2155 C2154 1.434 . S
C2156 C2157 1.369 . S
C2156 C2158 1.419 . S
C2156 H2160 0.930 . S
C2157 C2156 1.369 . S
C2157 C2166 1.429 . S
C2158 C2156 1.419 . S
C2158 C2159 1.363 . S
C2158 H2161 0.929 . S
C2159 C2158 1.363 . S
C2159 C2165 1.428 . S
H2160 C2156 0.930 . S
H2161 C2158 0.929 . S
S2162 N2163 1.613 . S
S2162 N2164 1.610 . S
N2163 S2162 1.613 . S
N2163 C2166 1.350 . S
N2164 S2162 1.610 . S
N2164 C2165 1.351 . S
C2165 C2159 1.428 . S
C2165 N2164 1.351 . S
C2165 C2166 1.434 . S
C2166 C2157 1.429 . S
C2166 N2163 1.350 . S
C2166 C2165 1.434 . S
C2167 C2168 1.369 . S
C2167 C2169 1.419 . S
C2167 H2171 0.930 . S
C2168 C2167 1.369 . S
C2168 C2177 1.429 . S
C2169 C2167 1.419 . S
C2169 C2170 1.363 . S
C2169 H2172 0.929 . S
C2170 C2169 1.363 . S
C2170 C2176 1.428 . S
H2171 C2167 0.930 . S
H2172 C2169 0.929 . S
S2173 N2174 1.613 . S
S2173 N2175 1.610 . S
N2174 S2173 1.613 . S
N2174 C2177 1.350 . S
N2175 S2173 1.610 . S
N2175 C2176 1.351 . S
C2176 C2170 1.428 . S
C2176 N2175 1.351 . S
C2176 C2177 1.434 . S
C2177 C2168 1.429 . S
C2177 N2174 1.350 . S
C2177 C2176 1.434 . S
C2178 C2179 1.369 . S
C2178 C2180 1.419 . S
C2178 H2182 0.930 . S
C2179 C2178 1.369 . S
C2179 C2188 1.429 . S
C2180 C2178 1.419 . S
C2180 C2181 1.363 . S
C2180 H2183 0.929 . S
C2181 C2180 1.363 . S
C2181 C2187 1.428 . S
H2182 C2178 0.930 . S
H2183 C2180 0.929 . S
S2184 N2185 1.613 . S
S2184 N2186 1.610 . S
N2185 S2184 1.613 . S
N2185 C2188 1.350 . S
N2186 S2184 1.610 . S
N2186 C2187 1.351 . S
C2187 C2181 1.428 . S
C2187 N2186 1.351 . S
C2187 C2188 1.434 . S
C2188 C2179 1.429 . S
C2188 N2185 1.350 . S
C2188 C2187 1.434 . S
C2189 C2190 1.369 . S
C2189 C2191 1.419 . S
C2189 H2193 0.930 . S
C2190 C2189 1.369 . S
C2190 C2199 1.429 . S
C2191 C2189 1.419 . S
C2191 C2192 1.363 . S
C2191 H2194 0.929 . S
C2192 C2191 1.363 . S
C2192 C2198 1.428 . S
H2193 C2189 0.930 . S
H2194 C2191 0.929 . S
S2195 N2196 1.613 1_554 S
S2195 N2197 1.610 1_554 S
N2196 S2195 1.613 1_556 S
N2196 C2199 1.350 . S
N2197 S2195 1.610 1_556 S
N2197 C2198 1.351 . S
C2198 C2192 1.428 . S
C2198 N2197 1.351 . S
C2198 C2199 1.434 . S
C2199 C2190 1.429 . S
C2199 N2196 1.350 . S
C2199 C2198 1.434 . S
C2200 C2201 1.369 . S
C2200 C2202 1.419 . S
C2200 H2204 0.930 . S
C2201 C2200 1.369 . S
C2201 C2210 1.429 . S
C2202 C2200 1.419 . S
C2202 C2203 1.363 . S
C2202 H2205 0.929 . S
C2203 C2202 1.363 . S
C2203 C2209 1.428 . S
H2204 C2200 0.930 . S
H2205 C2202 0.929 . S
S2206 N2207 1.613 . S
S2206 N2208 1.610 . S
N2207 S2206 1.613 . S
N2207 C2210 1.350 . S
N2208 S2206 1.610 . S
N2208 C2209 1.351 . S
C2209 C2203 1.428 . S
C2209 N2208 1.351 . S
C2209 C2210 1.434 . S
C2210 C2201 1.429 . S
C2210 N2207 1.350 . S
C2210 C2209 1.434 . S
C2211 C2212 1.369 . S
C2211 C2213 1.419 . S
C2211 H2215 0.930 . S
C2212 C2211 1.369 . S
C2212 C2221 1.429 . S
C2213 C2211 1.419 . S
C2213 C2214 1.363 . S
C2213 H2216 0.929 . S
C2214 C2213 1.363 . S
C2214 C2220 1.428 . S
H2215 C2211 0.930 . S
H2216 C2213 0.929 . S
S2217 N2218 1.613 1_565 S
S2217 N2219 1.610 1_565 S
N2218 S2217 1.613 1_545 S
N2218 C2221 1.350 . S
N2219 S2217 1.610 1_545 S
N2219 C2220 1.351 . S
C2220 C2214 1.428 . S
C2220 N2219 1.351 . S
C2220 C2221 1.434 . S
C2221 C2212 1.429 . S
C2221 N2218 1.350 . S
C2221 C2220 1.434 . S
C2222 C2223 1.369 . S
C2222 C2224 1.419 . S
C2222 H2226 0.930 . S
C2223 C2222 1.369 . S
C2223 C2232 1.429 . S
C2224 C2222 1.419 . S
C2224 C2225 1.363 . S
C2224 H2227 0.929 . S
C2225 C2224 1.363 . S
C2225 C2231 1.428 . S
H2226 C2222 0.930 . S
H2227 C2224 0.929 . S
S2228 N2229 1.613 . S
S2228 N2230 1.610 . S
N2229 S2228 1.613 . S
N2229 C2232 1.350 . S
N2230 S2228 1.610 . S
N2230 C2231 1.351 . S
C2231 C2225 1.428 . S
C2231 N2230 1.351 . S
C2231 C2232 1.434 . S
C2232 C2223 1.429 . S
C2232 N2229 1.350 . S
C2232 C2231 1.434 . S
C2233 C2234 1.369 . S
C2233 C2235 1.419 . S
C2233 H2237 0.930 . S
C2234 C2233 1.369 . S
C2234 C2243 1.429 . S
C2235 C2233 1.419 . S
C2235 C2236 1.363 . S
C2235 H2238 0.929 . S
C2236 C2235 1.363 . S
C2236 C2242 1.428 . S
H2237 C2233 0.930 . S
H2238 C2235 0.929 . S
S2239 N2240 1.613 . S
S2239 N2241 1.610 . S
N2240 S2239 1.613 . S
N2240 C2243 1.350 . S
N2241 S2239 1.610 . S
N2241 C2242 1.351 . S
C2242 C2236 1.428 . S
C2242 N2241 1.351 . S
C2242 C2243 1.434 . S
C2243 C2234 1.429 . S
C2243 N2240 1.350 . S
C2243 C2242 1.434 . S
C2244 C2245 1.369 . S
C2244 C2246 1.419 . S
C2244 H2248 0.930 . S
C2245 C2244 1.369 . S
C2245 C2254 1.429 . S
C2246 C2244 1.419 . S
C2246 C2247 1.363 . S
C2246 H2249 0.929 . S
C2247 C2246 1.363 . S
C2247 C2253 1.428 . S
H2248 C2244 0.930 . S
H2249 C2246 0.929 . S
S2250 N2251 1.613 1_556 S
S2250 N2252 1.610 1_556 S
N2251 S2250 1.613 1_554 S
N2251 C2254 1.350 . S
N2252 S2250 1.610 1_554 S
N2252 C2253 1.351 . S
C2253 C2247 1.428 . S
C2253 N2252 1.351 . S
C2253 C2254 1.434 . S
C2254 C2245 1.429 . S
C2254 N2251 1.350 . S
C2254 C2253 1.434 . S
C2255 C2256 1.369 . S
C2255 C2257 1.419 . S
C2255 H2259 0.930 . S
C2256 C2255 1.369 . S
C2256 C2265 1.429 . S
C2257 C2255 1.419 . S
C2257 C2258 1.363 . S
C2257 H2260 0.929 . S
C2258 C2257 1.363 . S
C2258 C2264 1.428 . S
H2259 C2255 0.930 . S
H2260 C2257 0.929 . S
S2261 N2262 1.613 1_455 S
S2261 N2263 1.610 1_455 S
N2262 S2261 1.613 1_655 S
N2262 C2265 1.350 . S
N2263 S2261 1.610 1_655 S
N2263 C2264 1.351 . S
C2264 C2258 1.428 . S
C2264 N2263 1.351 . S
C2264 C2265 1.434 . S
C2265 C2256 1.429 . S
C2265 N2262 1.350 . S
C2265 C2264 1.434 . S
C2266 C2267 1.369 . S
C2266 C2268 1.419 . S
C2266 H2270 0.930 . S
C2267 C2266 1.369 . S
C2267 C2276 1.429 . S
C2268 C2266 1.419 . S
C2268 C2269 1.363 . S
C2268 H2271 0.929 . S
C2269 C2268 1.363 . S
C2269 C2275 1.428 . S
H2270 C2266 0.930 . S
H2271 C2268 0.929 . S
S2272 N2273 1.613 . S
S2272 N2274 1.610 . S
N2273 S2272 1.613 . S
N2273 C2276 1.350 . S
N2274 S2272 1.610 . S
N2274 C2275 1.351 . S
C2275 C2269 1.428 . S
C2275 N2274 1.351 . S
C2275 C2276 1.434 . S
C2276 C2267 1.429 . S
C2276 N2273 1.350 . S
C2276 C2275 1.434 . S
C2277 C2278 1.369 . S
C2277 C2279 1.419 . S
C2277 H2281 0.930 . S
C2278 C2277 1.369 . S
C2278 C2287 1.429 . S
C2279 C2277 1.419 . S
C2279 C2280 1.363 . S
C2279 H2282 0.929 . S
C2280 C2279 1.363 . S
C2280 C2286 1.428 . S
H2281 C2277 0.930 . S
H2282 C2279 0.929 . S
S2283 N2284 1.613 . S
S2283 N2285 1.610 . S
N2284 S2283 1.613 . S
N2284 C2287 1.350 . S
N2285 S2283 1.610 . S
N2285 C2286 1.351 . S
C2286 C2280 1.428 . S
C2286 N2285 1.351 . S
C2286 C2287 1.434 . S
C2287 C2278 1.429 . S
C2287 N2284 1.350 . S
C2287 C2286 1.434 . S
C2288 C2289 1.369 . S
C2288 C2290 1.419 . S
C2288 H2292 0.930 . S
C2289 C2288 1.369 . S
C2289 C2298 1.429 . S
C2290 C2288 1.419 . S
C2290 C2291 1.363 . S
C2290 H2293 0.929 . S
C2291 C2290 1.363 . S
C2291 C2297 1.428 . S
H2292 C2288 0.930 . S
H2293 C2290 0.929 . S
S2294 N2295 1.613 . S
S2294 N2296 1.610 . S
N2295 S2294 1.613 . S
N2295 C2298 1.350 . S
N2296 S2294 1.610 . S
N2296 C2297 1.351 . S
C2297 C2291 1.428 . S
C2297 N2296 1.351 . S
C2297 C2298 1.434 . S
C2298 C2289 1.429 . S
C2298 N2295 1.350 . S
C2298 C2297 1.434 . S
C2299 C2300 1.369 . S
C2299 C2301 1.419 . S
C2299 H2303 0.930 . S
C2300 C2299 1.369 . S
C2300 C2309 1.429 . S
C2301 C2299 1.419 . S
C2301 C2302 1.363 . S
C2301 H2304 0.929 . S
C2302 C2301 1.363 . S
C2302 C2308 1.428 . S
H2303 C2299 0.930 . S
H2304 C2301 0.929 . S
S2305 N2306 1.613 . S
S2305 N2307 1.610 . S
N2306 S2305 1.613 . S
N2306 C2309 1.350 . S
N2307 S2305 1.610 . S
N2307 C2308 1.351 . S
C2308 C2302 1.428 . S
C2308 N2307 1.351 . S
C2308 C2309 1.434 . S
C2309 C2300 1.429 . S
C2309 N2306 1.350 . S
C2309 C2308 1.434 . S
C2310 C2311 1.369 . S
C2310 C2312 1.419 . S
C2310 H2314 0.930 . S
C2311 C2310 1.369 . S
C2311 C2320 1.429 . S
C2312 C2310 1.419 . S
C2312 C2313 1.363 . S
C2312 H2315 0.929 . S
C2313 C2312 1.363 . S
C2313 C2319 1.428 . S
H2314 C2310 0.930 . S
H2315 C2312 0.929 . S
S2316 N2317 1.613 . S
S2316 N2318 1.610 . S
N2317 S2316 1.613 . S
N2317 C2320 1.350 . S
N2318 S2316 1.610 . S
N2318 C2319 1.351 . S
C2319 C2313 1.428 . S
C2319 N2318 1.351 . S
C2319 C2320 1.434 . S
C2320 C2311 1.429 . S
C2320 N2317 1.350 . S
C2320 C2319 1.434 . S
C2321 C2322 1.369 . S
C2321 C2323 1.419 . S
C2321 H2325 0.930 . S
C2322 C2321 1.369 . S
C2322 C2331 1.429 . S
C2323 C2321 1.419 . S
C2323 C2324 1.363 . S
C2323 H2326 0.929 . S
C2324 C2323 1.363 . S
C2324 C2330 1.428 . S
H2325 C2321 0.930 . S
H2326 C2323 0.929 . S
S2327 N2328 1.613 . S
S2327 N2329 1.610 . S
N2328 S2327 1.613 . S
N2328 C2331 1.350 . S
N2329 S2327 1.610 . S
N2329 C2330 1.351 . S
C2330 C2324 1.428 . S
C2330 N2329 1.351 . S
C2330 C2331 1.434 . S
C2331 C2322 1.429 . S
C2331 N2328 1.350 . S
C2331 C2330 1.434 . S
C2332 C2333 1.369 . S
C2332 C2334 1.419 . S
C2332 H2336 0.930 . S
C2333 C2332 1.369 . S
C2333 C2342 1.429 . S
C2334 C2332 1.419 . S
C2334 C2335 1.363 . S
C2334 H2337 0.929 . S
C2335 C2334 1.363 . S
C2335 C2341 1.428 . S
H2336 C2332 0.930 . S
H2337 C2334 0.929 . S
S2338 N2339 1.613 . S
S2338 N2340 1.610 . S
N2339 S2338 1.613 . S
N2339 C2342 1.350 . S
N2340 S2338 1.610 . S
N2340 C2341 1.351 . S
C2341 C2335 1.428 . S
C2341 N2340 1.351 . S
C2341 C2342 1.434 . S
C2342 C2333 1.429 . S
C2342 N2339 1.350 . S
C2342 C2341 1.434 . S
C2343 C2344 1.369 . S
C2343 C2345 1.419 . S
C2343 H2347 0.930 . S
C2344 C2343 1.369 . S
C2344 C2353 1.429 . S
C2345 C2343 1.419 . S
C2345 C2346 1.363 . S
C2345 H2348 0.929 . S
C2346 C2345 1.363 . S
C2346 C2352 1.428 . S
H2347 C2343 0.930 . S
H2348 C2345 0.929 . S
S2349 N2350 1.613 . S
S2349 N2351 1.610 . S
N2350 S2349 1.613 . S
N2350 C2353 1.350 . S
N2351 S2349 1.610 . S
N2351 C2352 1.351 . S
C2352 C2346 1.428 . S
C2352 N2351 1.351 . S
C2352 C2353 1.434 . S
C2353 C2344 1.429 . S
C2353 N2350 1.350 . S
C2353 C2352 1.434 . S
C2354 C2355 1.369 . S
C2354 C2356 1.419 . S
C2354 H2358 0.930 . S
C2355 C2354 1.369 . S
C2355 C2364 1.429 . S
C2356 C2354 1.419 . S
C2356 C2357 1.363 . S
C2356 H2359 0.929 . S
C2357 C2356 1.363 . S
C2357 C2363 1.428 . S
H2358 C2354 0.930 . S
H2359 C2356 0.929 . S
S2360 N2361 1.613 . S
S2360 N2362 1.610 . S
N2361 S2360 1.613 . S
N2361 C2364 1.350 . S
N2362 S2360 1.610 . S
N2362 C2363 1.351 . S
C2363 C2357 1.428 . S
C2363 N2362 1.351 . S
C2363 C2364 1.434 . S
C2364 C2355 1.429 . S
C2364 N2361 1.350 . S
C2364 C2363 1.434 . S
C2365 C2366 1.369 . S
C2365 C2367 1.419 . S
C2365 H2369 0.930 . S
C2366 C2365 1.369 . S
C2366 C2375 1.429 . S
C2367 C2365 1.419 . S
C2367 C2368 1.363 . S
C2367 H2370 0.929 . S
C2368 C2367 1.363 . S
C2368 C2374 1.428 . S
H2369 C2365 0.930 . S
H2370 C2367 0.929 . S
S2371 N2372 1.635 . S
S2371 N2373 1.624 . S
N2372 S2371 1.635 . S
N2372 C2375 1.350 . S
N2373 S2371 1.624 . S
N2373 C2374 1.351 . S
C2374 C2368 1.428 . S
C2374 N2373 1.351 . S
C2374 C2375 1.434 . S
C2375 C2366 1.429 . S
C2375 N2372 1.350 . S
C2375 C2374 1.434 . S
C2376 C2377 1.369 . S
C2376 C2378 1.419 . S
C2376 H2380 0.930 . S
C2377 C2376 1.369 . S
C2377 C2386 1.429 . S
C2378 C2376 1.419 . S
C2378 C2379 1.363 . S
C2378 H2381 0.929 . S
C2379 C2378 1.363 . S
C2379 C2385 1.428 . S
H2380 C2376 0.930 . S
H2381 C2378 0.929 . S
S2382 N2383 1.613 . S
S2382 N2384 1.610 . S
N2383 S2382 1.613 . S
N2383 C2386 1.350 . S
N2384 S2382 1.610 . S
N2384 C2385 1.351 . S
C2385 C2379 1.428 . S
C2385 N2384 1.351 . S
C2385 C2386 1.434 . S
C2386 C2377 1.429 . S
C2386 N2383 1.350 . S
C2386 C2385 1.434 . S
C2387 C2388 1.369 . S
C2387 C2389 1.419 . S
C2387 H2391 0.930 . S
C2388 C2387 1.369 . S
C2388 C2397 1.429 . S
C2389 C2387 1.419 . S
C2389 C2390 1.363 . S
C2389 H2392 0.929 . S
C2390 C2389 1.363 . S
C2390 C2396 1.428 . S
H2391 C2387 0.930 . S
H2392 C2389 0.929 . S
S2393 N2394 1.613 . S
S2393 N2395 1.610 . S
N2394 S2393 1.613 . S
N2394 C2397 1.350 . S
N2395 S2393 1.610 . S
N2395 C2396 1.351 . S
C2396 C2390 1.428 . S
C2396 N2395 1.351 . S
C2396 C2397 1.434 . S
C2397 C2388 1.429 . S
C2397 N2394 1.350 . S
C2397 C2396 1.434 . S
C2398 C2399 1.369 . S
C2398 C2400 1.419 . S
C2398 H2402 0.930 . S
C2399 C2398 1.369 . S
C2399 C2408 1.429 . S
C2400 C2398 1.419 . S
C2400 C2401 1.363 . S
C2400 H2403 0.929 . S
C2401 C2400 1.363 . S
C2401 C2407 1.428 . S
H2402 C2398 0.930 . S
H2403 C2400 0.929 . S
S2404 N2405 1.613 1_565 S
S2404 N2406 1.610 1_565 S
N2405 S2404 1.613 1_545 S
N2405 C2408 1.350 . S
N2406 S2404 1.610 1_545 S
N2406 C2407 1.351 . S
C2407 C2401 1.428 . S
C2407 N2406 1.351 . S
C2407 C2408 1.434 . S
C2408 C2399 1.429 . S
C2408 N2405 1.350 . S
C2408 C2407 1.434 . S
C2409 C2410 1.369 . S
C2409 C2411 1.419 . S
C2409 H2413 0.930 . S
C2410 C2409 1.369 . S
C2410 C2419 1.429 . S
C2411 C2409 1.419 . S
C2411 C2412 1.363 . S
C2411 H2414 0.929 . S
C2412 C2411 1.363 . S
C2412 C2418 1.428 . S
H2413 C2409 0.930 . S
H2414 C2411 0.929 . S
S2415 N2416 1.613 . S
S2415 N2417 1.610 . S
N2416 S2415 1.613 . S
N2416 C2419 1.350 . S
N2417 S2415 1.610 . S
N2417 C2418 1.351 . S
C2418 C2412 1.428 . S
C2418 N2417 1.351 . S
C2418 C2419 1.434 . S
C2419 C2410 1.429 . S
C2419 N2416 1.350 . S
C2419 C2418 1.434 . S
C2420 C2421 1.369 . S
C2420 C2422 1.419 . S
C2420 H2424 0.930 . S
C2421 C2420 1.369 . S
C2421 C2430 1.429 . S
C2422 C2420 1.419 . S
C2422 C2423 1.363 . S
C2422 H2425 0.929 . S
C2423 C2422 1.363 . S
C2423 C2429 1.428 . S
H2424 C2420 0.930 . S
H2425 C2422 0.929 . S
S2426 N2427 1.613 . S
S2426 N2428 1.610 . S
N2427 S2426 1.613 . S
N2427 C2430 1.350 . S
N2428 S2426 1.610 . S
N2428 C2429 1.351 . S
C2429 C2423 1.428 . S
C2429 N2428 1.351 . S
C2429 C2430 1.434 . S
C2430 C2421 1.429 . S
C2430 N2427 1.350 . S
C2430 C2429 1.434 . S
C2431 C2432 1.369 . S
C2431 C2433 1.419 . S
C2431 H2435 0.930 . S
C2432 C2431 1.369 . S
C2432 C2441 1.429 . S
C2433 C2431 1.419 . S
C2433 C2434 1.363 . S
C2433 H2436 0.929 . S
C2434 C2433 1.363 . S
C2434 C2440 1.428 . S
H2435 C2431 0.930 . S
H2436 C2433 0.929 . S
S2437 N2438 1.613 . S
S2437 N2439 1.610 . S
N2438 S2437 1.613 . S
N2438 C2441 1.350 . S
N2439 S2437 1.610 . S
N2439 C2440 1.351 . S
C2440 C2434 1.428 . S
C2440 N2439 1.351 . S
C2440 C2441 1.434 . S
C2441 C2432 1.429 . S
C2441 N2438 1.350 . S
C2441 C2440 1.434 . S
C2442 C2443 1.369 . S
C2442 C2444 1.419 . S
C2442 H2446 0.930 . S
C2443 C2442 1.369 . S
C2443 C2452 1.429 . S
C2444 C2442 1.419 . S
C2444 C2445 1.363 . S
C2444 H2447 0.929 . S
C2445 C2444 1.363 . S
C2445 C2451 1.428 . S
H2446 C2442 0.930 . S
H2447 C2444 0.929 . S
S2448 N2449 1.613 . S
S2448 N2450 1.610 . S
N2449 S2448 1.613 . S
N2449 C2452 1.350 . S
N2450 S2448 1.610 . S
N2450 C2451 1.351 . S
C2451 C2445 1.428 . S
C2451 N2450 1.351 . S
C2451 C2452 1.434 . S
C2452 C2443 1.429 . S
C2452 N2449 1.350 . S
C2452 C2451 1.434 . S
C2453 C2454 1.369 . S
C2453 C2455 1.419 . S
C2453 H2457 0.930 . S
C2454 C2453 1.369 . S
C2454 C2463 1.429 . S
C2455 C2453 1.419 . S
C2455 C2456 1.363 . S
C2455 H2458 0.929 . S
C2456 C2455 1.363 . S
C2456 C2462 1.428 . S
H2457 C2453 0.930 . S
H2458 C2455 0.929 . S
S2459 N2460 1.613 . S
S2459 N2461 1.610 . S
N2460 S2459 1.613 . S
N2460 C2463 1.350 . S
N2461 S2459 1.610 . S
N2461 C2462 1.351 . S
C2462 C2456 1.428 . S
C2462 N2461 1.351 . S
C2462 C2463 1.434 . S
C2463 C2454 1.429 . S
C2463 N2460 1.350 . S
C2463 C2462 1.434 . S
C2464 C2465 1.369 . S
C2464 C2466 1.419 . S
C2464 H2468 0.930 . S
C2465 C2464 1.369 . S
C2465 C2474 1.429 . S
C2466 C2464 1.419 . S
C2466 C2467 1.363 . S
C2466 H2469 0.929 . S
C2467 C2466 1.363 . S
C2467 C2473 1.428 . S
H2468 C2464 0.930 . S
H2469 C2466 0.929 . S
S2470 N2471 1.613 . S
S2470 N2472 1.610 . S
N2471 S2470 1.613 . S
N2471 C2474 1.350 . S
N2472 S2470 1.610 . S
N2472 C2473 1.351 . S
C2473 C2467 1.428 . S
C2473 N2472 1.351 . S
C2473 C2474 1.434 . S
C2474 C2465 1.429 . S
C2474 N2471 1.350 . S
C2474 C2473 1.434 . S
C2475 C2476 1.369 . S
C2475 C2477 1.419 . S
C2475 H2479 0.930 . S
C2476 C2475 1.369 . S
C2476 C2485 1.429 . S
C2477 C2475 1.419 . S
C2477 C2478 1.363 . S
C2477 H2480 0.929 . S
C2478 C2477 1.363 . S
C2478 C2484 1.428 . S
H2479 C2475 0.930 . S
H2480 C2477 0.929 . S
S2481 N2482 1.613 1_554 S
S2481 N2483 1.610 1_554 S
N2482 S2481 1.613 1_556 S
N2482 C2485 1.350 . S
N2483 S2481 1.610 1_556 S
N2483 C2484 1.351 . S
C2484 C2478 1.428 . S
C2484 N2483 1.351 . S
C2484 C2485 1.434 . S
C2485 C2476 1.429 . S
C2485 N2482 1.350 . S
C2485 C2484 1.434 . S
C2486 C2487 1.369 . S
C2486 C2488 1.419 . S
C2486 H2490 0.930 . S
C2487 C2486 1.369 . S
C2487 C2496 1.429 . S
C2488 C2486 1.419 . S
C2488 C2489 1.363 . S
C2488 H2491 0.929 . S
C2489 C2488 1.363 . S
C2489 C2495 1.428 . S
H2490 C2486 0.930 . S
H2491 C2488 0.929 . S
S2492 N2493 1.613 . S
S2492 N2494 1.610 . S
N2493 S2492 1.613 . S
N2493 C2496 1.350 . S
N2494 S2492 1.610 . S
N2494 C2495 1.351 . S
C2495 C2489 1.428 . S
C2495 N2494 1.351 . S
C2495 C2496 1.434 . S
C2496 C2487 1.429 . S
C2496 N2493 1.350 . S
C2496 C2495 1.434 . S
C2497 C2498 1.369 . S
C2497 C2499 1.419 . S
C2497 H2501 0.930 . S
C2498 C2497 1.369 . S
C2498 C2507 1.429 . S
C2499 C2497 1.419 . S
C2499 C2500 1.363 . S
C2499 H2502 0.929 . S
C2500 C2499 1.363 . S
C2500 C2506 1.428 . S
H2501 C2497 0.930 . S
H2502 C2499 0.929 . S
S2503 N2504 1.613 . S
S2503 N2505 1.610 . S
N2504 S2503 1.613 . S
N2504 C2507 1.350 . S
N2505 S2503 1.610 . S
N2505 C2506 1.351 . S
C2506 C2500 1.428 . S
C2506 N2505 1.351 . S
C2506 C2507 1.434 . S
C2507 C2498 1.429 . S
C2507 N2504 1.350 . S
C2507 C2506 1.434 . S
C2508 C2509 1.369 . S
C2508 C2510 1.419 . S
C2508 H2512 0.930 . S
C2509 C2508 1.369 . S
C2509 C2518 1.429 . S
C2510 C2508 1.419 . S
C2510 C2511 1.363 . S
C2510 H2513 0.929 . S
C2511 C2510 1.363 . S
C2511 C2517 1.428 . S
H2512 C2508 0.930 . S
H2513 C2510 0.929 . S
S2514 N2515 1.613 . S
S2514 N2516 1.610 . S
N2515 S2514 1.613 . S
N2515 C2518 1.350 . S
N2516 S2514 1.610 . S
N2516 C2517 1.351 . S
C2517 C2511 1.428 . S
C2517 N2516 1.351 . S
C2517 C2518 1.434 . S
C2518 C2509 1.429 . S
C2518 N2515 1.350 . S
C2518 C2517 1.434 . S
C2519 C2520 1.369 . S
C2519 C2521 1.419 . S
C2519 H2523 0.930 . S
C2520 C2519 1.369 . S
C2520 C2529 1.429 . S
C2521 C2519 1.419 . S
C2521 C2522 1.363 . S
C2521 H2524 0.929 . S
C2522 C2521 1.363 . S
C2522 C2528 1.428 . S
H2523 C2519 0.930 . S
H2524 C2521 0.929 . S
S2525 N2526 1.613 . S
S2525 N2527 1.610 . S
N2526 S2525 1.613 . S
N2526 C2529 1.350 . S
N2527 S2525 1.610 . S
N2527 C2528 1.351 . S
C2528 C2522 1.428 . S
C2528 N2527 1.351 . S
C2528 C2529 1.434 . S
C2529 C2520 1.429 . S
C2529 N2526 1.350 . S
C2529 C2528 1.434 . S
C2530 C2531 1.369 . S
C2530 C2532 1.419 . S
C2530 H2534 0.930 . S
C2531 C2530 1.369 . S
C2531 C2540 1.429 . S
C2532 C2530 1.419 . S
C2532 C2533 1.363 . S
C2532 H2535 0.929 . S
C2533 C2532 1.363 . S
C2533 C2539 1.428 . S
H2534 C2530 0.930 . S
H2535 C2532 0.929 . S
S2536 N2537 1.613 . S
S2536 N2538 1.610 . S
N2537 S2536 1.613 . S
N2537 C2540 1.350 . S
N2538 S2536 1.610 . S
N2538 C2539 1.351 . S
C2539 C2533 1.428 . S
C2539 N2538 1.351 . S
C2539 C2540 1.434 . S
C2540 C2531 1.429 . S
C2540 N2537 1.350 . S
C2540 C2539 1.434 . S
C2541 C2542 1.369 . S
C2541 C2543 1.419 . S
C2541 H2545 0.930 . S
C2542 C2541 1.369 . S
C2542 C2551 1.429 . S
C2543 C2541 1.419 . S
C2543 C2544 1.363 . S
C2543 H2546 0.929 . S
C2544 C2543 1.363 . S
C2544 C2550 1.428 . S
H2545 C2541 0.930 . S
H2546 C2543 0.929 . S
S2547 N2548 1.613 . S
S2547 N2549 1.610 . S
N2548 S2547 1.613 . S
N2548 C2551 1.350 . S
N2549 S2547 1.610 . S
N2549 C2550 1.351 . S
C2550 C2544 1.428 . S
C2550 N2549 1.351 . S
C2550 C2551 1.434 . S
C2551 C2542 1.429 . S
C2551 N2548 1.350 . S
C2551 C2550 1.434 . S
C2552 C2553 1.369 . S
C2552 C2554 1.419 . S
C2552 H2556 0.930 . S
C2553 C2552 1.369 . S
C2553 C2562 1.429 . S
C2554 C2552 1.419 . S
C2554 C2555 1.363 . S
C2554 H2557 0.929 . S
C2555 C2554 1.363 . S
C2555 C2561 1.428 . S
H2556 C2552 0.930 . S
H2557 C2554 0.929 . S
S2558 N2559 1.613 . S
S2558 N2560 1.610 . S
N2559 S2558 1.613 . S
N2559 C2562 1.350 . S
N2560 S2558 1.610 . S
N2560 C2561 1.351 . S
C2561 C2555 1.428 . S
C2561 N2560 1.351 . S
C2561 C2562 1.434 . S
C2562 C2553 1.429 . S
C2562 N2559 1.350 . S
C2562 C2561 1.434 . S
C2563 C2564 1.369 . S
C2563 C2565 1.419 . S
C2563 H2567 0.930 . S
C2564 C2563 1.369 . S
C2564 C2573 1.429 . S
C2565 C2563 1.419 . S
C2565 C2566 1.363 . S
C2565 H2568 0.929 . S
C2566 C2565 1.363 . S
C2566 C2572 1.428 . S
H2567 C2563 0.930 . S
H2568 C2565 0.929 . S
S2569 N2570 1.613 . S
S2569 N2571 1.610 . S
N2570 S2569 1.613 . S
N2570 C2573 1.350 . S
N2571 S2569 1.610 . S
N2571 C2572 1.351 . S
C2572 C2566 1.428 . S
C2572 N2571 1.351 . S
C2572 C2573 1.434 . S
C2573 C2564 1.429 . S
C2573 N2570 1.350 . S
C2573 C2572 1.434 . S
C2574 C2575 1.369 . S
C2574 C2576 1.419 . S
C2574 H2578 0.930 . S
C2575 C2574 1.369 . S
C2575 C2584 1.429 . S
C2576 C2574 1.419 . S
C2576 C2577 1.363 . S
C2576 H2579 0.929 . S
C2577 C2576 1.363 . S
C2577 C2583 1.428 . S
H2578 C2574 0.930 . S
H2579 C2576 0.929 . S
S2580 N2581 1.613 . S
S2580 N2582 1.610 . S
N2581 S2580 1.613 . S
N2581 C2584 1.350 . S
N2582 S2580 1.610 . S
N2582 C2583 1.351 . S
C2583 C2577 1.428 . S
C2583 N2582 1.351 . S
C2583 C2584 1.434 . S
C2584 C2575 1.429 . S
C2584 N2581 1.350 . S
C2584 C2583 1.434 . S
C2585 C2586 1.369 . S
C2585 C2587 1.419 . S
C2585 H2589 0.930 . S
C2586 C2585 1.369 . S
C2586 C2595 1.429 . S
C2587 C2585 1.419 . S
C2587 C2588 1.363 . S
C2587 H2590 0.929 . S
C2588 C2587 1.363 . S
C2588 C2594 1.428 . S
H2589 C2585 0.930 . S
H2590 C2587 0.929 . S
S2591 N2592 1.613 . S
S2591 N2593 1.610 . S
N2592 S2591 1.613 . S
N2592 C2595 1.350 . S
N2593 S2591 1.610 . S
N2593 C2594 1.351 . S
C2594 C2588 1.428 . S
C2594 N2593 1.351 . S
C2594 C2595 1.434 . S
C2595 C2586 1.429 . S
C2595 N2592 1.350 . S
C2595 C2594 1.434 . S
C2596 C2597 1.369 . S
C2596 C2598 1.419 . S
C2596 H2600 0.930 . S
C2597 C2596 1.369 . S
C2597 C2606 1.429 . S
C2598 C2596 1.419 . S
C2598 C2599 1.363 . S
C2598 H2601 0.929 . S
C2599 C2598 1.363 . S
C2599 C2605 1.428 . S
H2600 C2596 0.930 . S
H2601 C2598 0.929 . S
S2602 N2603 1.613 . S
S2602 N2604 1.610 . S
N2603 S2602 1.613 . S
N2603 C2606 1.350 . S
N2604 S2602 1.610 . S
N2604 C2605 1.351 . S
C2605 C2599 1.428 . S
C2605 N2604 1.351 . S
C2605 C2606 1.434 . S
C2606 C2597 1.429 . S
C2606 N2603 1.350 . S
C2606 C2605 1.434 . S
C2607 C2608 1.369 . S
C2607 C2609 1.419 . S
C2607 H2611 0.930 . S
C2608 C2607 1.369 . S
C2608 C2617 1.429 . S
C2609 C2607 1.419 . S
C2609 C2610 1.363 . S
C2609 H2612 0.929 . S
C2610 C2609 1.363 . S
C2610 C2616 1.428 . S
H2611 C2607 0.930 . S
H2612 C2609 0.929 . S
S2613 N2614 1.613 . S
S2613 N2615 1.610 . S
N2614 S2613 1.613 . S
N2614 C2617 1.350 . S
N2615 S2613 1.610 . S
N2615 C2616 1.351 . S
C2616 C2610 1.428 . S
C2616 N2615 1.351 . S
C2616 C2617 1.434 . S
C2617 C2608 1.429 . S
C2617 N2614 1.350 . S
C2617 C2616 1.434 . S
C2618 C2619 1.369 . S
C2618 C2620 1.419 . S
C2618 H2622 0.930 . S
C2619 C2618 1.369 . S
C2619 C2628 1.429 . S
C2620 C2618 1.419 . S
C2620 C2621 1.363 . S
C2620 H2623 0.929 . S
C2621 C2620 1.363 . S
C2621 C2627 1.428 . S
H2622 C2618 0.930 . S
H2623 C2620 0.929 . S
S2624 N2625 1.613 . S
S2624 N2626 1.610 . S
N2625 S2624 1.613 . S
N2625 C2628 1.350 . S
N2626 S2624 1.610 . S
N2626 C2627 1.351 . S
C2627 C2621 1.428 . S
C2627 N2626 1.351 . S
C2627 C2628 1.434 . S
C2628 C2619 1.429 . S
C2628 N2625 1.350 . S
C2628 C2627 1.434 . S
C2629 C2630 1.369 . S
C2629 C2631 1.419 . S
C2629 H2633 0.930 . S
C2630 C2629 1.369 . S
C2630 C2639 1.429 . S
C2631 C2629 1.419 . S
C2631 C2632 1.363 . S
C2631 H2634 0.929 . S
C2632 C2631 1.363 . S
C2632 C2638 1.428 . S
H2633 C2629 0.930 . S
H2634 C2631 0.929 . S
S2635 N2636 1.613 . S
S2635 N2637 1.610 . S
N2636 S2635 1.613 . S
N2636 C2639 1.350 . S
N2637 S2635 1.610 . S
N2637 C2638 1.351 . S
C2638 C2632 1.428 . S
C2638 N2637 1.351 . S
C2638 C2639 1.434 . S
C2639 C2630 1.429 . S
C2639 N2636 1.350 . S
C2639 C2638 1.434 . S
C2113 C1261 1.440 . S
C2115 C20 1.443 . S
C2124 C117 1.445 . S
C2126 C1349 1.446 . S
C2135 C1604 1.442 . S
C2137 C225 1.447 . S
C2146 C321 1.444 . S
C2148 C1164 1.440 . S
C2157 C1289 1.440 . S
C2159 C372 1.444 . S
C2168 C469 1.447 . S
C2170 C1377 1.440 . S
C2179 C577 1.443 . S
C2181 C1633 1.442 . S
C2190 C673 1.448 . S
C2192 C1193 1.447 . S
C2201 C849 1.444 . S
C2203 C733 1.444 . S
C2212 C900 1.444 . S
C2214 C821 1.443 . S
C2223 C929 1.439 . S
C2225 C1025 1.453 . S
C2234 C997 1.444 . S
C2236 C761 1.442 . S
C2245 C1085 1.441 . S
C2247 C293 1.445 . S
C2256 C401 1.445 . S
C2258 C1457 1.452 . S
C2267 C1516 1.439 . S
C2269 C145 1.442 . S
C2278 C137 1.452 . S
C2280 C1868 1.447 . S
C2289 C812 1.449 . S
C2291 C29 1.443 . S
C2300 C2081 1.447 . S
C2302 C284 1.447 . S
C2311 C988 1.452 . S
C2313 C233 1.447 . S
C2322 C1897 1.452 . S
C2324 C636 1.447 . S
C2333 C841 1.449 . S
C2335 C585 1.446 . S
C2344 C489 1.444 . S
C2346 C2053 1.451 . S
C2355 C381 1.444 . S
C2357 C1017 1.443 . S
C2366 C1340 1.448 . S
C2368 C1721 1.450 . S
C2377 C1437 1.449 . S
C2379 C1369 1.451 . S
C2388 C1173 1.447 . S
C2390 C1465 1.444 . S
C2399 C1692 1.444 . S
C2401 C1201 1.454 . S
C2410 C205 1.444 . S
C2412 C1817 1.453 . S
C2421 C909 1.445 . S
C2423 C665 1.444 . S
C2432 C57 1.446 . S
C2434 C1956 1.453 . S
C2443 C1701 1.447 . S
C2445 C196 1.445 . S
C2454 C49 1.447 . S
C2456 C1428 1.439 . S
C2465 C1729 1.447 . S
C2467 C548 1.438 . S
C2476 C1113 1.443 . S
C2478 C645 1.443 . S
C2487 C497 1.442 . S
C2489 C1545 1.443 . S
C2498 C1877 1.440 . S
C2500 C1780 1.452 . S
C2509 C2044 1.440 . S
C2511 C1809 1.442 . S
C2520 C1993 1.447 . S
C2522 C2073 1.443 . S
C2531 C1905 1.445 . S
C2533 C1965 1.441 . S
C2542 C724 1.444 . S
C2544 C313 1.447 . S
C2553 C108 1.443 . S
C2555 C937 1.454 . S
C2564 C460 1.447 . S
C2566 C753 1.452 . S
C2575 C1789 1.449 . S
C2577 C409 1.451 . S
C2586 C557 1.444 . S
C2588 C1985 1.451 . S
C2597 C1076 1.444 . S
C2599 C1281 1.446 . S
C2608 C1613 1.452 . S
C2610 C1105 1.449 . S
C2619 C1525 1.451 . S
C2621 C1641 1.446 . S
C2630 C1252 1.445 . S
C2632 C1553 1.451 . S
