# Generated by pormake.
# Topology whq, (6)-cn, num edge types: 1
# Building blocks:
#     Node 0, Type 0, BuildingBlock: OJICUG_clean_sbu_0, # of connection points: 6
#     Node 1, Type 0, BuildingBlock: OJICUG_clean_sbu_0, # of connection points: 6
#     Node 2, Type 0, BuildingBlock: OJICUG_clean_sbu_0, # of connection points: 6
#     Node 3, Type 0, BuildingBlock: OJICUG_clean_sbu_0, # of connection points: 6
#     Node 4, Type 0, BuildingBlock: OJICUG_clean_sbu_0, # of connection points: 6
#     Node 5, Type 0, BuildingBlock: OJICUG_clean_sbu_0, # of connection points: 6
#     Node 6, Type 0, BuildingBlock: OJICUG_clean_sbu_0, # of connection points: 6
#     Node 7, Type 0, BuildingBlock: OJICUG_clean_sbu_0, # of connection points: 6
#     Node 8, Type 0, BuildingBlock: OJICUG_clean_sbu_0, # of connection points: 6
#     Node 9, Type 0, BuildingBlock: OJICUG_clean_sbu_0, # of connection points: 6
#     Node 10, Type 0, BuildingBlock: OJICUG_clean_sbu_0, # of connection points: 6
#     Node 11, Type 0, BuildingBlock: OJICUG_clean_sbu_0, # of connection points: 6
#     Node 12, Type 0, BuildingBlock: OJICUG_clean_sbu_0, # of connection points: 6
#     Node 13, Type 0, BuildingBlock: OJICUG_clean_sbu_0, # of connection points: 6
#     Node 14, Type 0, BuildingBlock: OJICUG_clean_sbu_0, # of connection points: 6
#     Node 15, Type 0, BuildingBlock: OJICUG_clean_sbu_0, # of connection points: 6
#     Node 16, Type 0, BuildingBlock: OJICUG_clean_sbu_0, # of connection points: 6
#     Node 17, Type 0, BuildingBlock: OJICUG_clean_sbu_0, # of connection points: 6
#     Node 18, Type 0, BuildingBlock: OJICUG_clean_sbu_0, # of connection points: 6
#     Node 19, Type 0, BuildingBlock: OJICUG_clean_sbu_0, # of connection points: 6
#     Node 20, Type 0, BuildingBlock: OJICUG_clean_sbu_0, # of connection points: 6
#     Node 21, Type 0, BuildingBlock: OJICUG_clean_sbu_0, # of connection points: 6
#     Node 22, Type 0, BuildingBlock: OJICUG_clean_sbu_0, # of connection points: 6
#     Node 23, Type 0, BuildingBlock: OJICUG_clean_sbu_0, # of connection points: 6
#     Node 24, Type 0, BuildingBlock: OJICUG_clean_sbu_0, # of connection points: 6
#     Node 25, Type 0, BuildingBlock: OJICUG_clean_sbu_0, # of connection points: 6
#     Node 26, Type 0, BuildingBlock: OJICUG_clean_sbu_0, # of connection points: 6
#     Node 27, Type 0, BuildingBlock: OJICUG_clean_sbu_0, # of connection points: 6
#     Node 28, Type 0, BuildingBlock: OJICUG_clean_sbu_0, # of connection points: 6
#     Node 29, Type 0, BuildingBlock: OJICUG_clean_sbu_0, # of connection points: 6
#     Node 30, Type 0, BuildingBlock: OJICUG_clean_sbu_0, # of connection points: 6
#     Node 31, Type 0, BuildingBlock: OJICUG_clean_sbu_0, # of connection points: 6
#     Edge 32, Type (0, 0), BuildingBlock: AJUNOK_clean_linker_0, # of connection points: 2
#     Edge 33, Type (0, 0), BuildingBlock: AJUNOK_clean_linker_0, # of connection points: 2
#     Edge 34, Type (0, 0), BuildingBlock: AJUNOK_clean_linker_0, # of connection points: 2
#     Edge 35, Type (0, 0), BuildingBlock: AJUNOK_clean_linker_0, # of connection points: 2
#     Edge 36, Type (0, 0), BuildingBlock: AJUNOK_clean_linker_0, # of connection points: 2
#     Edge 37, Type (0, 0), BuildingBlock: AJUNOK_clean_linker_0, # of connection points: 2
#     Edge 38, Type (0, 0), BuildingBlock: AJUNOK_clean_linker_0, # of connection points: 2
#     Edge 39, Type (0, 0), BuildingBlock: AJUNOK_clean_linker_0, # of connection points: 2
#     Edge 40, Type (0, 0), BuildingBlock: AJUNOK_clean_linker_0, # of connection points: 2
#     Edge 41, Type (0, 0), BuildingBlock: AJUNOK_clean_linker_0, # of connection points: 2
#     Edge 42, Type (0, 0), BuildingBlock: AJUNOK_clean_linker_0, # of connection points: 2
#     Edge 43, Type (0, 0), BuildingBlock: AJUNOK_clean_linker_0, # of connection points: 2
#     Edge 44, Type (0, 0), BuildingBlock: AJUNOK_clean_linker_0, # of connection points: 2
#     Edge 45, Type (0, 0), BuildingBlock: AJUNOK_clean_linker_0, # of connection points: 2
#     Edge 46, Type (0, 0), BuildingBlock: AJUNOK_clean_linker_0, # of connection points: 2
#     Edge 47, Type (0, 0), BuildingBlock: AJUNOK_clean_linker_0, # of connection points: 2
#     Edge 48, Type (0, 0), BuildingBlock: AJUNOK_clean_linker_0, # of connection points: 2
#     Edge 49, Type (0, 0), BuildingBlock: AJUNOK_clean_linker_0, # of connection points: 2
#     Edge 50, Type (0, 0), BuildingBlock: AJUNOK_clean_linker_0, # of connection points: 2
#     Edge 51, Type (0, 0), BuildingBlock: AJUNOK_clean_linker_0, # of connection points: 2
#     Edge 52, Type (0, 0), BuildingBlock: AJUNOK_clean_linker_0, # of connection points: 2
#     Edge 53, Type (0, 0), BuildingBlock: AJUNOK_clean_linker_0, # of connection points: 2
#     Edge 54, Type (0, 0), BuildingBlock: AJUNOK_clean_linker_0, # of connection points: 2
#     Edge 55, Type (0, 0), BuildingBlock: AJUNOK_clean_linker_0, # of connection points: 2
#     Edge 56, Type (0, 0), BuildingBlock: AJUNOK_clean_linker_0, # of connection points: 2
#     Edge 57, Type (0, 0), BuildingBlock: AJUNOK_clean_linker_0, # of connection points: 2
#     Edge 58, Type (0, 0), BuildingBlock: AJUNOK_clean_linker_0, # of connection points: 2
#     Edge 59, Type (0, 0), BuildingBlock: AJUNOK_clean_linker_0, # of connection points: 2
#     Edge 60, Type (0, 0), BuildingBlock: AJUNOK_clean_linker_0, # of connection points: 2
#     Edge 61, Type (0, 0), BuildingBlock: AJUNOK_clean_linker_0, # of connection points: 2
#     Edge 62, Type (0, 0), BuildingBlock: AJUNOK_clean_linker_0, # of connection points: 2
#     Edge 63, Type (0, 0), BuildingBlock: AJUNOK_clean_linker_0, # of connection points: 2
#     Edge 64, Type (0, 0), BuildingBlock: AJUNOK_clean_linker_0, # of connection points: 2
#     Edge 65, Type (0, 0), BuildingBlock: AJUNOK_clean_linker_0, # of connection points: 2
#     Edge 66, Type (0, 0), BuildingBlock: AJUNOK_clean_linker_0, # of connection points: 2
#     Edge 67, Type (0, 0), BuildingBlock: AJUNOK_clean_linker_0, # of connection points: 2
#     Edge 68, Type (0, 0), BuildingBlock: AJUNOK_clean_linker_0, # of connection points: 2
#     Edge 69, Type (0, 0), BuildingBlock: AJUNOK_clean_linker_0, # of connection points: 2
#     Edge 70, Type (0, 0), BuildingBlock: AJUNOK_clean_linker_0, # of connection points: 2
#     Edge 71, Type (0, 0), BuildingBlock: AJUNOK_clean_linker_0, # of connection points: 2
#     Edge 72, Type (0, 0), BuildingBlock: AJUNOK_clean_linker_0, # of connection points: 2
#     Edge 73, Type (0, 0), BuildingBlock: AJUNOK_clean_linker_0, # of connection points: 2
#     Edge 74, Type (0, 0), BuildingBlock: AJUNOK_clean_linker_0, # of connection points: 2
#     Edge 75, Type (0, 0), BuildingBlock: AJUNOK_clean_linker_0, # of connection points: 2
#     Edge 76, Type (0, 0), BuildingBlock: AJUNOK_clean_linker_0, # of connection points: 2
#     Edge 77, Type (0, 0), BuildingBlock: AJUNOK_clean_linker_0, # of connection points: 2
#     Edge 78, Type (0, 0), BuildingBlock: AJUNOK_clean_linker_0, # of connection points: 2
#     Edge 79, Type (0, 0), BuildingBlock: AJUNOK_clean_linker_0, # of connection points: 2
#     Edge 80, Type (0, 0), BuildingBlock: AJUNOK_clean_linker_0, # of connection points: 2
#     Edge 81, Type (0, 0), BuildingBlock: AJUNOK_clean_linker_0, # of connection points: 2
#     Edge 82, Type (0, 0), BuildingBlock: AJUNOK_clean_linker_0, # of connection points: 2
#     Edge 83, Type (0, 0), BuildingBlock: AJUNOK_clean_linker_0, # of connection points: 2
#     Edge 84, Type (0, 0), BuildingBlock: AJUNOK_clean_linker_0, # of connection points: 2
#     Edge 85, Type (0, 0), BuildingBlock: AJUNOK_clean_linker_0, # of connection points: 2
#     Edge 86, Type (0, 0), BuildingBlock: AJUNOK_clean_linker_0, # of connection points: 2
#     Edge 87, Type (0, 0), BuildingBlock: AJUNOK_clean_linker_0, # of connection points: 2
#     Edge 88, Type (0, 0), BuildingBlock: AJUNOK_clean_linker_0, # of connection points: 2
#     Edge 89, Type (0, 0), BuildingBlock: AJUNOK_clean_linker_0, # of connection points: 2
#     Edge 90, Type (0, 0), BuildingBlock: AJUNOK_clean_linker_0, # of connection points: 2
#     Edge 91, Type (0, 0), BuildingBlock: AJUNOK_clean_linker_0, # of connection points: 2
#     Edge 92, Type (0, 0), BuildingBlock: AJUNOK_clean_linker_0, # of connection points: 2
#     Edge 93, Type (0, 0), BuildingBlock: AJUNOK_clean_linker_0, # of connection points: 2
#     Edge 94, Type (0, 0), BuildingBlock: AJUNOK_clean_linker_0, # of connection points: 2
#     Edge 95, Type (0, 0), BuildingBlock: AJUNOK_clean_linker_0, # of connection points: 2
#     Edge 96, Type (0, 0), BuildingBlock: AJUNOK_clean_linker_0, # of connection points: 2
#     Edge 97, Type (0, 0), BuildingBlock: AJUNOK_clean_linker_0, # of connection points: 2
#     Edge 98, Type (0, 0), BuildingBlock: AJUNOK_clean_linker_0, # of connection points: 2
#     Edge 99, Type (0, 0), BuildingBlock: AJUNOK_clean_linker_0, # of connection points: 2
#     Edge 100, Type (0, 0), BuildingBlock: AJUNOK_clean_linker_0, # of connection points: 2
#     Edge 101, Type (0, 0), BuildingBlock: AJUNOK_clean_linker_0, # of connection points: 2
#     Edge 102, Type (0, 0), BuildingBlock: AJUNOK_clean_linker_0, # of connection points: 2
#     Edge 103, Type (0, 0), BuildingBlock: AJUNOK_clean_linker_0, # of connection points: 2
#     Edge 104, Type (0, 0), BuildingBlock: AJUNOK_clean_linker_0, # of connection points: 2
#     Edge 105, Type (0, 0), BuildingBlock: AJUNOK_clean_linker_0, # of connection points: 2
#     Edge 106, Type (0, 0), BuildingBlock: AJUNOK_clean_linker_0, # of connection points: 2
#     Edge 107, Type (0, 0), BuildingBlock: AJUNOK_clean_linker_0, # of connection points: 2
#     Edge 108, Type (0, 0), BuildingBlock: AJUNOK_clean_linker_0, # of connection points: 2
#     Edge 109, Type (0, 0), BuildingBlock: AJUNOK_clean_linker_0, # of connection points: 2
#     Edge 110, Type (0, 0), BuildingBlock: AJUNOK_clean_linker_0, # of connection points: 2
#     Edge 111, Type (0, 0), BuildingBlock: AJUNOK_clean_linker_0, # of connection points: 2
#     Edge 112, Type (0, 0), BuildingBlock: AJUNOK_clean_linker_0, # of connection points: 2
#     Edge 113, Type (0, 0), BuildingBlock: AJUNOK_clean_linker_0, # of connection points: 2
#     Edge 114, Type (0, 0), BuildingBlock: AJUNOK_clean_linker_0, # of connection points: 2
#     Edge 115, Type (0, 0), BuildingBlock: AJUNOK_clean_linker_0, # of connection points: 2
#     Edge 116, Type (0, 0), BuildingBlock: AJUNOK_clean_linker_0, # of connection points: 2
#     Edge 117, Type (0, 0), BuildingBlock: AJUNOK_clean_linker_0, # of connection points: 2
#     Edge 118, Type (0, 0), BuildingBlock: AJUNOK_clean_linker_0, # of connection points: 2
#     Edge 119, Type (0, 0), BuildingBlock: AJUNOK_clean_linker_0, # of connection points: 2
#     Edge 120, Type (0, 0), BuildingBlock: AJUNOK_clean_linker_0, # of connection points: 2
#     Edge 121, Type (0, 0), BuildingBlock: AJUNOK_clean_linker_0, # of connection points: 2
#     Edge 122, Type (0, 0), BuildingBlock: AJUNOK_clean_linker_0, # of connection points: 2
#     Edge 123, Type (0, 0), BuildingBlock: AJUNOK_clean_linker_0, # of connection points: 2
#     Edge 124, Type (0, 0), BuildingBlock: AJUNOK_clean_linker_0, # of connection points: 2
#     Edge 125, Type (0, 0), BuildingBlock: AJUNOK_clean_linker_0, # of connection points: 2
#     Edge 126, Type (0, 0), BuildingBlock: AJUNOK_clean_linker_0, # of connection points: 2
#     Edge 127, Type (0, 0), BuildingBlock: AJUNOK_clean_linker_0, # of connection points: 2
# Relax obj value: 0.346
# Max RMSD: 0.215
# Mean RMSD: 0.215
data_MOF--net-whq--node1-OJICUG_clean_sbu_0--edge1-AJUNOK_clean_linker_0
_symmetry_space_group_name_H-M    P1
_symmetry_Int_Tables_number       1
_symmetry_cell_setting            triclinic
loop_
_symmetry_equiv_pos_as_xyz
'x, y, z'
_cell_length_a     39.294326
_cell_length_b     39.285637
_cell_length_c     44.021786
_cell_angle_alpha  89.968252
_cell_angle_beta   90.0165
_cell_angle_gamma 89.961776
loop_
_atom_site_label
_atom_site_type_symbol
_atom_site_fract_x
_atom_site_fract_y
_atom_site_fract_z
_atom_type_partial_charge
Sc0 Sc 0.13235 0.20599 0.11911 0.0
Sc1 Sc 0.04891 0.24016 0.12207 0.0
Sc2 Sc 0.06613 0.15647 0.1465 0.0
O3 O 0.08235 0.20105 0.12909 0.0
C4 C 0.11997 0.12782 0.10091 0.0
C5 C 0.09331 0.23616 0.06111 0.0
C6 C 0.00217 0.17615 0.10597 0.0
C7 C 0.11478 0.2815 0.14062 0.0
C8 C 0.13662 0.16783 0.1815 0.0
C9 C 0.03045 0.21315 0.18808 0.0
O10 O 0.13839 0.15426 0.1032 0.0
O11 O 0.06664 0.24496 0.07575 0.0
O12 O 0.02103 0.1549 0.11954 0.0
O13 O 0.13476 0.25723 0.13446 0.0
O14 O 0.10936 0.15162 0.176 0.0
O15 O 0.03036 0.23704 0.16844 0.0
O16 O 0.14802 0.19124 0.16436 0.0
O17 O 0.08287 0.27971 0.13715 0.0
O18 O 0.04139 0.18327 0.18261 0.0
O19 O 0.11887 0.22169 0.07364 0.0
O20 O 0.09033 0.12626 0.11226 0.0
O21 O 0.00844 0.20783 0.10564 0.0
Sc22 Sc 0.8406 0.06712 0.14789 0.0
Sc23 Sc 0.75757 0.04987 0.12209 0.0
Sc24 Sc 0.79175 0.13336 0.11972 0.0
O25 O 0.79644 0.08332 0.12973 0.0
C26 C 0.82893 0.13771 0.18238 0.0
C27 C 0.78285 0.03261 0.18873 0.0
C28 C 0.71566 0.11601 0.13937 0.0
C29 C 0.82174 0.00231 0.10827 0.0
C30 C 0.86996 0.12015 0.10221 0.0
C31 C 0.76294 0.09423 0.06132 0.0
O32 O 0.84545 0.11066 0.17686 0.0
O33 O 0.75951 0.03195 0.1686 0.0
O34 O 0.74018 0.13598 0.13413 0.0
O35 O 0.84254 0.02149 0.12192 0.0
O36 O 0.84386 0.13912 0.10461 0.0
O37 O 0.75417 0.06738 0.07571 0.0
O38 O 0.87115 0.09051 0.11358 0.0
O39 O 0.79013 0.00879 0.10688 0.0
O40 O 0.77689 0.11989 0.07409 0.0
O41 O 0.81293 0.04322 0.18377 0.0
O42 O 0.80547 0.14894 0.16522 0.0
O43 O 0.71755 0.08411 0.13579 0.0
Sc44 Sc 0.86435 0.79136 0.12107 0.0
Sc45 Sc 0.94622 0.75461 0.11963 0.0
Sc46 Sc 0.93393 0.83484 0.15068 0.0
O47 O 0.91462 0.79362 0.13021 0.0
C48 C 0.87669 0.86901 0.10863 0.0
C49 C 0.90073 0.76216 0.06097 0.0
C50 C 0.99232 0.82069 0.10571 0.0
C51 C 0.87917 0.71508 0.13922 0.0
C52 C 0.86694 0.82186 0.18817 0.0
C53 C 0.97442 0.77422 0.18283 0.0
O54 O 0.86147 0.84161 0.10184 0.0
O55 O 0.92965 0.75693 0.07327 0.0
O56 O 0.97053 0.84179 0.11552 0.0
O57 O 0.86081 0.74157 0.13996 0.0
O58 O 0.89826 0.82978 0.18711 0.0
O59 O 0.96339 0.75041 0.16601 0.0
O60 O 0.8502 0.81073 0.16547 0.0
O61 O 0.90941 0.71496 0.12908 0.0
O62 O 0.96944 0.80556 0.17721 0.0
O63 O 0.87463 0.77194 0.0759 0.0
O64 O 0.90144 0.87007 0.12713 0.0
O65 O 0.98851 0.78859 0.10871 0.0
Sc66 Sc 0.20352 0.86537 0.12165 0.0
Sc67 Sc 0.24077 0.94767 0.11936 0.0
Sc68 Sc 0.15857 0.93545 0.14892 0.0
O69 O 0.20101 0.91617 0.12974 0.0
C70 C 0.12499 0.87903 0.10714 0.0
C71 C 0.23209 0.90038 0.06082 0.0
C72 C 0.17667 0.99552 0.10412 0.0
C73 C 0.28043 0.88108 0.13958 0.0
C74 C 0.17176 0.86774 0.18757 0.0
C75 C 0.2192 0.97257 0.18478 0.0
O76 O 0.15153 0.86062 0.10671 0.0
O77 O 0.24142 0.92799 0.07366 0.0
O78 O 0.15519 0.97697 0.11779 0.0
O79 O 0.25487 0.86193 0.13628 0.0
O80 O 0.15784 0.89636 0.18253 0.0
O81 O 0.24234 0.96811 0.16496 0.0
O82 O 0.18971 0.85226 0.16787 0.0
O83 O 0.28009 0.91251 0.13318 0.0
O84 O 0.18831 0.96403 0.18089 0.0
O85 O 0.21844 0.87567 0.07523 0.0
O86 O 0.12416 0.9079 0.12004 0.0
O87 O 0.20834 0.98889 0.10401 0.0
Sc88 Sc 0.06578 0.83568 0.34199 0.0
Sc89 Sc 0.04834 0.75309 0.36867 0.0
Sc90 Sc 0.13209 0.78694 0.3703 0.0
O91 O 0.08197 0.79169 0.36047 0.0
C92 C 0.136 0.8229 0.30714 0.0
C93 C 0.0307 0.7774 0.30183 0.0
C94 C 0.11442 0.71042 0.35212 0.0
C95 C 0.00135 0.81801 0.38226 0.0
C96 C 0.11985 0.86575 0.38653 0.0
C97 C 0.09278 0.75969 0.42927 0.0
O98 O 0.1088 0.83917 0.3126 0.0
O99 O 0.03051 0.75411 0.32203 0.0
O100 O 0.13444 0.73506 0.35668 0.0
O101 O 0.02082 0.83858 0.36868 0.0
O102 O 0.13841 0.83932 0.38459 0.0
O103 O 0.06582 0.75079 0.41511 0.0
O104 O 0.09011 0.86702 0.37534 0.0
O105 O 0.00726 0.78624 0.38333 0.0
O106 O 0.11857 0.77305 0.41617 0.0
O107 O 0.04104 0.80761 0.30666 0.0
O108 O 0.14767 0.79989 0.32458 0.0
O109 O 0.08253 0.71249 0.3558 0.0
Sc110 Sc 0.20654 0.12734 0.36728 0.0
Sc111 Sc 0.2429 0.04553 0.37101 0.0
Sc112 Sc 0.16197 0.05648 0.34103 0.0
O113 O 0.2037 0.07674 0.36009 0.0
C114 C 0.1283 0.11543 0.38113 0.0
C115 C 0.23374 0.09168 0.42906 0.0
C116 C 0.17799 -0.00164 0.38575 0.0
C117 C 0.28355 0.11217 0.35224 0.0
C118 C 0.17591 0.12187 0.3002 0.0
C119 C 0.22312 0.0192 0.30701 0.0
O120 O 0.15562 0.13211 0.38472 0.0
O121 O 0.23982 0.06262 0.41721 0.0
O122 O 0.15644 0.01999 0.37652 0.0
O123 O 0.25713 0.13042 0.35019 0.0
O124 O 0.16503 0.09175 0.30427 0.0
O125 O 0.2468 0.02965 0.32432 0.0
O126 O 0.18982 0.13941 0.32123 0.0
O127 O 0.28297 0.08196 0.36233 0.0
O128 O 0.19165 0.02189 0.31347 0.0
O129 O 0.2239 0.11753 0.41358 0.0
O130 O 0.12686 0.08837 0.36545 0.0
O131 O 0.20986 0.00248 0.3818 0.0
Sc132 Sc 0.93778 0.15861 0.34366 0.0
Sc133 Sc 0.95011 0.23982 0.37204 0.0
Sc134 Sc 0.86749 0.20476 0.36894 0.0
O135 O 0.91812 0.20106 0.36186 0.0
C136 C 0.87342 0.17385 0.30202 0.0
C137 C 0.97855 0.21749 0.30967 0.0
C138 C 0.88434 0.28124 0.352 0.0
C139 C 0.99562 0.17377 0.38816 0.0
C140 C 0.87773 0.12646 0.38318 0.0
C141 C 0.90289 0.23337 0.43003 0.0
O142 O 0.90345 0.16265 0.30622 0.0
O143 O 0.96748 0.2421 0.3256 0.0
O144 O 0.86537 0.25525 0.35134 0.0
O145 O 0.97299 0.15274 0.38004 0.0
O146 O 0.8616 0.15409 0.38695 0.0
O147 O 0.93203 0.23883 0.4181 0.0
O148 O 0.9046 0.12456 0.36738 0.0
O149 O 0.99215 0.20571 0.38384 0.0
O150 O 0.87708 0.22265 0.41502 0.0
O151 O 0.97432 0.18647 0.31698 0.0
O152 O 0.85574 0.1877 0.32299 0.0
O153 O 0.91475 0.28036 0.3616 0.0
Sc154 Sc 0.83657 0.93469 0.34203 0.0
Sc155 Sc 0.75508 0.94782 0.36953 0.0
Sc156 Sc 0.79148 0.86552 0.37109 0.0
O157 O 0.79434 0.9157 0.3611 0.0
C158 C 0.82238 0.86788 0.30406 0.0
C159 C 0.77776 0.97533 0.30739 0.0
C160 C 0.71534 0.88082 0.35117 0.0
C161 C 0.82062 0.9937 0.38565 0.0
C162 C 0.86956 0.87668 0.38392 0.0
C163 C 0.76253 0.90434 0.42978 0.0
O164 O 0.83227 0.89862 0.3059 0.0
O165 O 0.75307 0.96429 0.32307 0.0
O166 O 0.74128 0.86184 0.35316 0.0
O167 O 0.84215 0.97159 0.37718 0.0
O168 O 0.84196 0.8613 0.38958 0.0
O169 O 0.75553 0.93183 0.41577 0.0
O170 O 0.87108 0.9023 0.36646 0.0
O171 O 0.78875 0.98994 0.38125 0.0
O172 O 0.77341 0.87744 0.41659 0.0
O173 O 0.80873 0.97028 0.31438 0.0
O174 O 0.80963 0.85121 0.3262 0.0
O175 O 0.7154 0.91184 0.35896 0.0
Sc176 Sc 0.86565 0.79228 0.86898 0.0
Sc177 Sc 0.94711 0.7551 0.87063 0.0
Sc178 Sc 0.93597 0.83648 0.84181 0.0
O179 O 0.91599 0.79465 0.86068 0.0
C180 C 0.86962 0.82546 0.80285 0.0
C181 C 0.88015 0.71643 0.84978 0.0
C182 C 0.97618 0.77656 0.8085 0.0
C183 C 0.9012 0.76168 0.92897 0.0
C184 C 0.87746 0.86962 0.88308 0.0
C185 C 0.99386 0.81996 0.88647 0.0
O186 O 0.85252 0.81325 0.8249 0.0
O187 O 0.91008 0.71596 0.8606 0.0
O188 O 0.97186 0.80772 0.81528 0.0
O189 O 0.87522 0.77148 0.91385 0.0
O190 O 0.90291 0.87116 0.86538 0.0
O191 O 0.98981 0.78812 0.88211 0.0
O192 O 0.86257 0.84188 0.88937 0.0
O193 O 0.93031 0.75673 0.91693 0.0
O194 O 0.97195 0.84167 0.87791 0.0
O195 O 0.86211 0.74313 0.84878 0.0
O196 O 0.90096 0.83325 0.80457 0.0
O197 O 0.96421 0.7522 0.82419 0.0
Sc198 Sc 0.20473 0.86683 0.86773 0.0
Sc199 Sc 0.24068 0.94959 0.8705 0.0
Sc200 Sc 0.15774 0.93742 0.84495 0.0
O201 O 0.20117 0.91772 0.8612 0.0
C202 C 0.17165 0.87317 0.80221 0.0
C203 C 0.28093 0.88386 0.84881 0.0
C204 C 0.21516 0.97951 0.80907 0.0
C205 C 0.23404 0.90131 0.92855 0.0
C206 C 0.12664 0.87718 0.8844 0.0
C207 C 0.17608 0.99529 0.8898 0.0
O208 O 0.18807 0.85585 0.82184 0.0
O209 O 0.28051 0.9147 0.85717 0.0
O210 O 0.1848 0.97212 0.81644 0.0
O211 O 0.22208 0.8761 0.91363 0.0
O212 O 0.12457 0.9055 0.87082 0.0
O213 O 0.20781 0.99105 0.88521 0.0
O214 O 0.15396 0.86003 0.88533 0.0
O215 O 0.24154 0.9299 0.91632 0.0
O216 O 0.15411 0.97405 0.88061 0.0
O217 O 0.25523 0.86464 0.85058 0.0
O218 O 0.15892 0.9023 0.8078 0.0
O219 O 0.24082 0.96981 0.82454 0.0
Sc220 Sc 0.1319 0.20592 0.87096 0.0
Sc221 Sc 0.04925 0.24114 0.86779 0.0
Sc222 Sc 0.06368 0.15825 0.84345 0.0
O223 O 0.08188 0.20177 0.86104 0.0
C224 C 0.13146 0.17146 0.80557 0.0
C225 C 0.11615 0.28165 0.85023 0.0
C226 C 0.02792 0.21524 0.80357 0.0
C227 C 0.09204 0.23661 0.92886 0.0
C228 C 0.12063 0.12806 0.88754 0.0
C229 C 0.00286 0.17653 0.8849 0.0
O230 O 0.14705 0.18745 0.82656 0.0
O231 O 0.08496 0.28107 0.8574 0.0
O232 O 0.0303 0.1847 0.81286 0.0
O233 O 0.11867 0.2251 0.91561 0.0
O234 O 0.0943 0.12555 0.87111 0.0
O235 O 0.00694 0.2081 0.87951 0.0
O236 O 0.13695 0.15572 0.89045 0.0
O237 O 0.06408 0.24256 0.91496 0.0
O238 O 0.02488 0.15453 0.87727 0.0
O239 O 0.13531 0.25587 0.8523 0.0
O240 O 0.10153 0.15955 0.80831 0.0
O241 O 0.03535 0.24071 0.82016 0.0
Sc242 Sc 0.8397 0.06783 0.84268 0.0
Sc243 Sc 0.75655 0.05084 0.8683 0.0
Sc244 Sc 0.79097 0.13415 0.87078 0.0
O245 O 0.79553 0.08414 0.86075 0.0
C246 C 0.86941 0.12083 0.88795 0.0
C247 C 0.82043 0.00263 0.88168 0.0
C248 C 0.76238 0.09477 0.9292 0.0
C249 C 0.78176 0.034 0.80164 0.0
C250 C 0.82837 0.13872 0.8083 0.0
C251 C 0.71464 0.11716 0.85149 0.0
O252 O 0.8703 0.09093 0.8771 0.0
O253 O 0.78892 0.00949 0.88314 0.0
O254 O 0.7763 0.1205 0.91646 0.0
O255 O 0.81193 0.04425 0.80674 0.0
O256 O 0.80466 0.1498 0.82526 0.0
O257 O 0.71654 0.08526 0.85497 0.0
O258 O 0.84479 0.11158 0.81385 0.0
O259 O 0.75833 0.03341 0.82168 0.0
O260 O 0.73925 0.13708 0.85657 0.0
O261 O 0.84147 0.02196 0.86846 0.0
O262 O 0.84324 0.1397 0.88558 0.0
O263 O 0.75348 0.06802 0.91475 0.0
Sc264 Sc 0.93505 0.16078 0.64532 0.0
Sc265 Sc 0.94698 0.24364 0.62018 0.0
Sc266 Sc 0.8644 0.20777 0.62238 0.0
O267 O 0.91516 0.20415 0.62912 0.0
C268 C 0.87442 0.12967 0.60618 0.0
C269 C 0.99275 0.17901 0.6011 0.0
C270 C 0.89958 0.23725 0.56173 0.0
C271 C 0.97685 0.2182 0.68115 0.0
C272 C 0.87151 0.17543 0.6885 0.0
C273 C 0.88128 0.28397 0.64132 0.0
O274 O 0.9025 0.12748 0.62013 0.0
O275 O 0.98867 0.21062 0.60633 0.0
O276 O 0.87397 0.22512 0.57615 0.0
O277 O 0.97079 0.18767 0.67327 0.0
O278 O 0.85368 0.19106 0.66861 0.0
O279 O 0.91208 0.28356 0.63291 0.0
O280 O 0.90058 0.1626 0.68288 0.0
O281 O 0.96604 0.24378 0.66626 0.0
O282 O 0.86209 0.25825 0.6396 0.0
O283 O 0.97073 0.15714 0.60893 0.0
O284 O 0.85758 0.15712 0.60474 0.0
O285 O 0.928 0.24439 0.57435 0.0
Sc286 Sc 0.8351 0.93942 0.64732 0.0
Sc287 Sc 0.753 0.95022 0.62106 0.0
Sc288 Sc 0.79065 0.86879 0.62098 0.0
O289 O 0.7929 0.9191 0.6296 0.0
C290 C 0.86801 0.8804 0.60656 0.0
C291 C 0.81724 0.99699 0.60332 0.0
C292 C 0.76058 0.90587 0.5617 0.0
C293 C 0.77603 0.97913 0.68218 0.0
C294 C 0.82334 0.8738 0.68741 0.0
C295 C 0.71478 0.883 0.6412 0.0
O296 O 0.86967 0.90635 0.62364 0.0
O297 O 0.78567 0.9931 0.60911 0.0
O298 O 0.77098 0.87919 0.5756 0.0
O299 O 0.80691 0.97564 0.67412 0.0
O300 O 0.81072 0.85617 0.66577 0.0
O301 O 0.71407 0.91344 0.63171 0.0
O302 O 0.83216 0.90481 0.68468 0.0
O303 O 0.7513 0.96654 0.66749 0.0
O304 O 0.74128 0.86474 0.64044 0.0
O305 O 0.83919 0.9748 0.61072 0.0
O306 O 0.8403 0.86521 0.60108 0.0
O307 O 0.75388 0.93384 0.57502 0.0
Sc308 Sc 0.06464 0.84139 0.64805 0.0
Sc309 Sc 0.04812 0.75821 0.6222 0.0
Sc310 Sc 0.13118 0.79334 0.61948 0.0
O311 O 0.08118 0.79745 0.62971 0.0
C312 C 0.11719 0.87173 0.60246 0.0
C313 C 2e-05 0.82199 0.60837 0.0
C314 C 0.0923 0.76369 0.56133 0.0
C315 C 0.03089 0.78316 0.68899 0.0
C316 C 0.13557 0.83057 0.68202 0.0
C317 C 0.11473 0.71711 0.63959 0.0
O318 O 0.08745 0.87245 0.61369 0.0
O319 O 0.00696 0.79049 0.60657 0.0
O320 O 0.11771 0.77833 0.5739 0.0
O321 O 0.04147 0.81329 0.68419 0.0
O322 O 0.1469 0.80715 0.6649 0.0
O323 O 0.08276 0.71869 0.63634 0.0
O324 O 0.10829 0.84672 0.67662 0.0
O325 O 0.03002 0.76007 0.66866 0.0
O326 O 0.13441 0.74174 0.63388 0.0
O327 O 0.0189 0.8428 0.62232 0.0
O328 O 0.1362 0.84562 0.60452 0.0
O329 O 0.06572 0.75454 0.57589 0.0
Sc330 Sc 0.20323 0.13277 0.62039 0.0
Sc331 Sc 0.239 0.05058 0.62169 0.0
Sc332 Sc 0.15708 0.06352 0.64709 0.0
O333 O 0.19971 0.08269 0.62921 0.0
C334 C 0.17056 0.1295 0.68667 0.0
C335 C 0.27891 0.11749 0.64032 0.0
C336 C 0.21404 0.0275 0.68505 0.0
C337 C 0.23363 0.09438 0.56151 0.0
C338 C 0.12567 0.12238 0.60541 0.0
C339 C 0.17384 0.0051 0.60395 0.0
O340 O 0.18326 0.14669 0.66482 0.0
O341 O 0.27883 0.08692 0.63114 0.0
O342 O 0.18434 0.02646 0.67373 0.0
O343 O 0.22347 0.12095 0.5757 0.0
O344 O 0.12336 0.09701 0.62309 0.0
O345 O 0.20529 0.00819 0.61065 0.0
O346 O 0.15372 0.13703 0.59989 0.0
O347 O 0.23891 0.06575 0.5746 0.0
O348 O 0.15231 0.028 0.61064 0.0
O349 O 0.25257 0.13602 0.64022 0.0
O350 O 0.16117 0.09861 0.68421 0.0
O351 O 0.2396 0.03719 0.66956 0.0
Sc352 Sc 0.63018 0.70677 0.61902 0.0
Sc353 Sc 0.54834 0.7438 0.62109 0.0
Sc354 Sc 0.56091 0.66166 0.64772 0.0
O355 O 0.58011 0.7041 0.62913 0.0
C356 C 0.61843 0.62903 0.60519 0.0
C357 C 0.59156 0.73719 0.56078 0.0
C358 C 0.50174 0.67914 0.60437 0.0
C359 C 0.61566 0.78252 0.64007 0.0
C360 C 0.62849 0.67349 0.6852 0.0
C361 C 0.52143 0.72046 0.68335 0.0
O362 O 0.63357 0.65676 0.59947 0.0
O363 O 0.564 0.74384 0.57477 0.0
O364 O 0.52353 0.65721 0.61274 0.0
O365 O 0.63438 0.7564 0.63808 0.0
O366 O 0.59755 0.66416 0.68367 0.0
O367 O 0.53223 0.74526 0.66763 0.0
O368 O 0.64475 0.68706 0.66325 0.0
O369 O 0.58477 0.78291 0.63189 0.0
O370 O 0.52606 0.68952 0.67603 0.0
O371 O 0.61839 0.72619 0.57399 0.0
O372 O 0.59282 0.62736 0.62265 0.0
O373 O 0.50584 0.71088 0.60913 0.0
Sc374 Sc 0.33741 0.56314 0.64581 0.0
Sc375 Sc 0.25488 0.55089 0.62062 0.0
Sc376 Sc 0.29077 0.63344 0.6214 0.0
O377 O 0.29428 0.58285 0.62901 0.0
C378 C 0.32243 0.6274 0.68794 0.0
C379 C 0.28013 0.523 0.68259 0.0
C380 C 0.21444 0.61717 0.6403 0.0
C381 C 0.31973 0.50538 0.6016 0.0
C382 C 0.36887 0.62306 0.60593 0.0
C383 C 0.26117 0.59701 0.56135 0.0
O384 O 0.33476 0.5979 0.68316 0.0
O385 O 0.2547 0.53346 0.6673 0.0
O386 O 0.24026 0.63625 0.63859 0.0
O387 O 0.34151 0.52745 0.60951 0.0
O388 O 0.34138 0.6397 0.60348 0.0
O389 O 0.25411 0.5688 0.5744 0.0
O390 O 0.37091 0.59564 0.62089 0.0
O391 O 0.28814 0.50908 0.60727 0.0
O392 O 0.27326 0.6229 0.5754 0.0
O393 O 0.3106 0.52719 0.67365 0.0
O394 O 0.30763 0.64508 0.66744 0.0
O395 O 0.21495 0.58614 0.63258 0.0
Sc396 Sc 0.36254 0.2942 0.6204 0.0
Sc397 Sc 0.44527 0.25841 0.62141 0.0
Sc398 Sc 0.43037 0.3419 0.6472 0.0
O399 O 0.41285 0.298 0.62949 0.0
C400 C 0.37629 0.3723 0.6027 0.0
C401 C 0.39999 0.26543 0.56105 0.0
C402 C 0.49401 0.32163 0.60679 0.0
C403 C 0.37868 0.21769 0.63948 0.0
C404 C 0.36063 0.33097 0.68336 0.0
C405 C 0.46427 0.28329 0.68795 0.0
O406 O 0.35734 0.34627 0.60526 0.0
O407 O 0.42711 0.25609 0.57491 0.0
O408 O 0.47517 0.34323 0.61988 0.0
O409 O 0.35915 0.24273 0.63492 0.0
O410 O 0.38785 0.347 0.67736 0.0
O411 O 0.46342 0.25959 0.66812 0.0
O412 O 0.34833 0.30811 0.66617 0.0
O413 O 0.41047 0.21889 0.63506 0.0
O414 O 0.45505 0.31378 0.6826 0.0
O415 O 0.37475 0.27931 0.57451 0.0
O416 O 0.40617 0.37319 0.61365 0.0
O417 O 0.48689 0.29014 0.60618 0.0
Sc418 Sc 0.70567 0.36525 0.61973 0.0
Sc419 Sc 0.73994 0.44873 0.62146 0.0
Sc420 Sc 0.6568 0.43191 0.64737 0.0
O421 O 0.70095 0.41541 0.62933 0.0
C422 C 0.62713 0.37777 0.60261 0.0
C423 C 0.73521 0.40357 0.56117 0.0
C424 C 0.67575 0.49628 0.60716 0.0
C425 C 0.78149 0.3828 0.64006 0.0
C426 C 0.66816 0.3614 0.68227 0.0
C427 C 0.71457 0.46744 0.68778 0.0
O428 O 0.65371 0.3594 0.60433 0.0
O429 O 0.74357 0.43082 0.57515 0.0
O430 O 0.65472 0.47708 0.62057 0.0
O431 O 0.757 0.36279 0.63487 0.0
O432 O 0.65228 0.38892 0.67707 0.0
O433 O 0.73809 0.46728 0.66782 0.0
O434 O 0.69124 0.34973 0.66499 0.0
O435 O 0.77986 0.41459 0.63569 0.0
O436 O 0.68453 0.45671 0.6828 0.0
O437 O 0.72117 0.37813 0.57418 0.0
O438 O 0.6258 0.40752 0.61381 0.0
O439 O 0.70733 0.48959 0.60594 0.0
Sc440 Sc 0.55703 0.33706 0.84233 0.0
Sc441 Sc 0.54649 0.25556 0.87093 0.0
Sc442 Sc 0.62826 0.29213 0.86691 0.0
O443 O 0.57757 0.29492 0.8603 0.0
C444 C 0.62091 0.32275 0.80006 0.0
C445 C 0.51659 0.27732 0.80895 0.0
C446 C 0.6128 0.21548 0.85023 0.0
C447 C 0.50028 0.32067 0.88785 0.0
C448 C 0.61734 0.3702 0.88109 0.0
C449 C 0.59404 0.26392 0.92855 0.0
O450 O 0.5908 0.33357 0.80445 0.0
O451 O 0.52844 0.25283 0.82463 0.0
O452 O 0.63108 0.24191 0.84917 0.0
O453 O 0.5222 0.34222 0.87916 0.0
O454 O 0.63339 0.34259 0.8851 0.0
O455 O 0.56495 0.25744 0.9169 0.0
O456 O 0.59023 0.37181 0.86552 0.0
O457 O 0.50408 0.28885 0.8832 0.0
O458 O 0.61956 0.27421 0.91299 0.0
O459 O 0.52066 0.30842 0.81612 0.0
O460 O 0.63917 0.30954 0.82098 0.0
O461 O 0.58259 0.21566 0.86033 0.0
Sc462 Sc 0.70353 0.63119 0.86799 0.0
Sc463 Sc 0.74049 0.54968 0.87046 0.0
Sc464 Sc 0.65938 0.56044 0.84201 0.0
O465 O 0.70111 0.58081 0.86043 0.0
C466 C 0.6259 0.62003 0.88172 0.0
C467 C 0.73297 0.59561 0.92864 0.0
C468 C 0.6754 0.50325 0.88647 0.0
C469 C 0.77968 0.61631 0.84987 0.0
C470 C 0.67227 0.62516 0.80116 0.0
C471 C 0.71921 0.52085 0.8085 0.0
O472 O 0.6536 0.63511 0.88768 0.0
O473 O 0.73826 0.5665 0.91665 0.0
O474 O 0.65406 0.52605 0.87916 0.0
O475 O 0.75304 0.63435 0.84852 0.0
O476 O 0.6636 0.59414 0.80409 0.0
O477 O 0.74354 0.53336 0.82386 0.0
O478 O 0.68389 0.64321 0.82295 0.0
O479 O 0.77997 0.58651 0.86094 0.0
O480 O 0.6882 0.52354 0.81645 0.0
O481 O 0.72333 0.62166 0.9134 0.0
O482 O 0.62448 0.59417 0.86451 0.0
O483 O 0.70715 0.50689 0.88137 0.0
Sc484 Sc 0.42793 0.6586 0.84252 0.0
Sc485 Sc 0.44541 0.74155 0.86847 0.0
Sc486 Sc 0.36179 0.70772 0.87087 0.0
O487 O 0.41182 0.70279 0.86076 0.0
C488 C 0.35756 0.67108 0.80774 0.0
C489 C 0.46389 0.7162 0.8023 0.0
C490 C 0.37949 0.78362 0.85068 0.0
C491 C 0.49273 0.67701 0.88233 0.0
C492 C 0.37431 0.62931 0.88808 0.0
C493 C 0.40126 0.73612 0.92927 0.0
O494 O 0.38485 0.65478 0.81284 0.0
O495 O 0.46373 0.73973 0.82221 0.0
O496 O 0.35943 0.75923 0.85613 0.0
O497 O 0.47317 0.65612 0.86916 0.0
O498 O 0.35577 0.65576 0.8862 0.0
O499 O 0.42797 0.74488 0.91474 0.0
O500 O 0.40363 0.62763 0.87614 0.0
O501 O 0.48628 0.70865 0.88358 0.0
O502 O 0.37536 0.72251 0.91657 0.0
O503 O 0.45291 0.68623 0.80716 0.0
O504 O 0.34599 0.69389 0.82541 0.0
O505 O 0.41135 0.78173 0.85453 0.0
Sc506 Sc 0.33673 0.43918 0.84593 0.0
Sc507 Sc 0.25378 0.45047 0.86963 0.0
Sc508 Sc 0.29045 0.36846 0.86939 0.0
O509 O 0.29366 0.41894 0.86205 0.0
C510 C 0.32422 0.3747 0.80361 0.0
C511 C 0.27972 0.47628 0.80752 0.0
C512 C 0.21453 0.38364 0.84956 0.0
C513 C 0.31774 0.49655 0.88943 0.0
C514 C 0.36805 0.37909 0.88605 0.0
C515 C 0.25893 0.40504 0.9289 0.0
O516 O 0.33499 0.40483 0.80831 0.0
O517 O 0.25409 0.46575 0.82245 0.0
O518 O 0.2409 0.36522 0.85024 0.0
O519 O 0.3397 0.4741 0.88286 0.0
O520 O 0.34037 0.3629 0.88899 0.0
O521 O 0.25296 0.43363 0.91606 0.0
O522 O 0.3703 0.40618 0.87057 0.0
O523 O 0.28647 0.49309 0.88227 0.0
O524 O 0.27062 0.379 0.91471 0.0
O525 O 0.30968 0.47573 0.81847 0.0
O526 O 0.30955 0.35681 0.82403 0.0
O527 O 0.21434 0.41428 0.85849 0.0
Sc528 Sc 0.37037 0.28997 0.36584 0.0
Sc529 Sc 0.45176 0.25256 0.37142 0.0
Sc530 Sc 0.44215 0.33352 0.34029 0.0
O531 O 0.4212 0.29208 0.35943 0.0
C532 C 0.37712 0.32012 0.29877 0.0
C533 C 0.38492 0.21244 0.35209 0.0
C534 C 0.47875 0.27092 0.307 0.0
C535 C 0.40446 0.26357 0.4286 0.0
C536 C 0.38335 0.36833 0.37959 0.0
C537 C 0.4997 0.31683 0.38605 0.0
O538 O 0.35932 0.30547 0.31921 0.0
O539 O 0.41511 0.21281 0.36221 0.0
O540 O 0.47523 0.30264 0.31217 0.0
O541 O 0.37913 0.27381 0.41265 0.0
O542 O 0.41129 0.36928 0.36513 0.0
O543 O 0.495 0.28493 0.38301 0.0
O544 O 0.36583 0.34138 0.38207 0.0
O545 O 0.43349 0.25641 0.41721 0.0
O546 O 0.47912 0.33851 0.37535 0.0
O547 O 0.36691 0.23899 0.3499 0.0
O548 O 0.40669 0.33179 0.3038 0.0
O549 O 0.46904 0.24779 0.32524 0.0
Sc550 Sc 0.70924 0.36491 0.37026 0.0
Sc551 Sc 0.74347 0.44853 0.36934 0.0
Sc552 Sc 0.65998 0.43247 0.34489 0.0
O553 O 0.70441 0.41532 0.36164 0.0
C554 C 0.67128 0.36337 0.30768 0.0
C555 C 0.7853 0.3823 0.35112 0.0
C556 C 0.71738 0.46837 0.30386 0.0
C557 C 0.73813 0.40334 0.42937 0.0
C558 C 0.63106 0.37639 0.38864 0.0
C559 C 0.67924 0.49616 0.38474 0.0
O560 O 0.69385 0.35028 0.32481 0.0
O561 O 0.78382 0.4139 0.35663 0.0
O562 O 0.687 0.45944 0.31007 0.0
O563 O 0.72537 0.3775 0.41587 0.0
O564 O 0.62911 0.40611 0.37748 0.0
O565 O 0.71102 0.49038 0.38354 0.0
O566 O 0.65775 0.3583 0.38643 0.0
O567 O 0.74582 0.43109 0.41579 0.0
O568 O 0.65762 0.47581 0.37371 0.0
O569 O 0.76027 0.36253 0.35455 0.0
O570 O 0.65628 0.39115 0.31377 0.0
O571 O 0.742 0.46601 0.32265 0.0
Sc572 Sc 0.63015 0.70625 0.37042 0.0
Sc573 Sc 0.54794 0.74238 0.36876 0.0
Sc574 Sc 0.56084 0.66023 0.34324 0.0
O575 O 0.58001 0.703 0.36103 0.0
C576 C 0.62666 0.67392 0.30394 0.0
C577 C 0.61479 0.78196 0.34967 0.0
C578 C 0.51986 0.71804 0.30764 0.0
C579 C 0.59155 0.73631 0.42889 0.0
C580 C 0.62013 0.62839 0.38448 0.0
C581 C 0.50232 0.67714 0.38646 0.0
O582 O 0.64379 0.68697 0.32568 0.0
O583 O 0.58391 0.78206 0.35793 0.0
O584 O 0.5243 0.68732 0.31584 0.0
O585 O 0.61846 0.72548 0.41563 0.0
O586 O 0.59424 0.62628 0.36738 0.0
O587 O 0.50579 0.7088 0.38075 0.0
O588 O 0.63477 0.6564 0.39001 0.0
O589 O 0.56387 0.74272 0.41497 0.0
O590 O 0.52497 0.65555 0.37934 0.0
O591 O 0.63362 0.75593 0.35145 0.0
O592 O 0.59596 0.66405 0.30641 0.0
O593 O 0.5318 0.74319 0.3222 0.0
Sc594 Sc 0.33822 0.55898 0.34289 0.0
Sc595 Sc 0.25735 0.54572 0.37158 0.0
Sc596 Sc 0.29131 0.62875 0.36812 0.0
O597 O 0.29564 0.57817 0.3612 0.0
C598 C 0.36978 0.61961 0.38203 0.0
C599 C 0.32412 0.50098 0.38729 0.0
C600 C 0.26385 0.59301 0.42953 0.0
C601 C 0.27965 0.51761 0.30911 0.0
C602 C 0.32122 0.6226 0.30091 0.0
C603 C 0.21491 0.611 0.3519 0.0
O604 O 0.37199 0.59268 0.36636 0.0
O605 O 0.29213 0.50404 0.383 0.0
O606 O 0.27406 0.61895 0.4144 0.0
O607 O 0.31064 0.52197 0.3165 0.0
O608 O 0.30758 0.64043 0.3219 0.0
O609 O 0.21619 0.58062 0.36156 0.0
O610 O 0.33336 0.59299 0.30532 0.0
O611 O 0.25497 0.52848 0.32508 0.0
O612 O 0.24069 0.6302 0.35096 0.0
O613 O 0.34477 0.52405 0.37939 0.0
O614 O 0.34199 0.63546 0.38574 0.0
O615 O 0.25858 0.56378 0.41767 0.0
Sc616 Sc 0.42675 0.65543 0.14758 0.0
Sc617 Sc 0.44439 0.73872 0.12267 0.0
Sc618 Sc 0.36093 0.70465 0.11897 0.0
O619 O 0.41081 0.69979 0.1296 0.0
C620 C 0.37389 0.62634 0.10158 0.0
C621 C 0.49159 0.67457 0.10806 0.0
C622 C 0.40081 0.73401 0.06134 0.0
C623 C 0.46156 0.71241 0.18903 0.0
C624 C 0.35583 0.66738 0.18155 0.0
C625 C 0.37831 0.7804 0.13992 0.0
O626 O 0.40345 0.62508 0.11308 0.0
O627 O 0.48517 0.70621 0.10694 0.0
O628 O 0.37505 0.71953 0.07347 0.0
O629 O 0.45067 0.68252 0.18378 0.0
O630 O 0.34478 0.69084 0.16429 0.0
O631 O 0.41028 0.77843 0.13712 0.0
O632 O 0.38296 0.65084 0.17634 0.0
O633 O 0.46239 0.73596 0.16911 0.0
O634 O 0.35833 0.75624 0.13349 0.0
O635 O 0.47247 0.65364 0.12166 0.0
O636 O 0.35502 0.65253 0.10382 0.0
O637 O 0.42709 0.74312 0.07634 0.0
Sc638 Sc 0.33892 0.42993 0.14513 0.0
Sc639 Sc 0.25493 0.4465 0.12179 0.0
Sc640 Sc 0.28925 0.363 0.11909 0.0
O641 O 0.29419 0.41321 0.12855 0.0
C642 C 0.36711 0.37516 0.10001 0.0
C643 C 0.31859 0.4936 0.1048 0.0
C644 C 0.25871 0.40172 0.06103 0.0
C645 C 0.28266 0.46574 0.18723 0.0
C646 C 0.32827 0.35977 0.181 0.0
C647 C 0.21385 0.38054 0.14079 0.0
O648 O 0.36888 0.40488 0.11115 0.0
O649 O 0.2869 0.48742 0.10548 0.0
O650 O 0.27294 0.37606 0.07364 0.0
O651 O 0.31264 0.45554 0.1811 0.0
O652 O 0.30487 0.34768 0.16424 0.0
O653 O 0.21547 0.41238 0.13678 0.0
O654 O 0.34374 0.38736 0.17517 0.0
O655 O 0.25819 0.46487 0.1682 0.0
O656 O 0.23825 0.36059 0.13502 0.0
O657 O 0.34028 0.47444 0.11742 0.0
O658 O 0.34072 0.35672 0.10269 0.0
O659 O 0.2503 0.42863 0.07553 0.0
Sc660 Sc 0.55761 0.33562 0.1491 0.0
Sc661 Sc 0.54733 0.25375 0.11864 0.0
Sc662 Sc 0.62894 0.29212 0.12252 0.0
O663 O 0.578 0.29379 0.12985 0.0
C664 C 0.61389 0.37041 0.10787 0.0
C665 C 0.49846 0.31722 0.10382 0.0
C666 C 0.59488 0.26432 0.06075 0.0
C667 C 0.52236 0.27335 0.1844 0.0
C668 C 0.62506 0.32414 0.1884 0.0
C669 C 0.61449 0.21458 0.1386 0.0
O670 O 0.58497 0.37076 0.12072 0.0
O671 O 0.50493 0.2855 0.10419 0.0
O672 O 0.61959 0.27709 0.07583 0.0
O673 O 0.52918 0.30474 0.18065 0.0
O674 O 0.64125 0.3064 0.16899 0.0
O675 O 0.58339 0.21466 0.13105 0.0
O676 O 0.59612 0.33704 0.18291 0.0
O677 O 0.52789 0.2506 0.16444 0.0
O678 O 0.63312 0.24076 0.13722 0.0
O679 O 0.51681 0.33878 0.11746 0.0
O680 O 0.63274 0.34416 0.10749 0.0
O681 O 0.56687 0.25509 0.07296 0.0
Sc682 Sc 0.70227 0.63142 0.12076 0.0
Sc683 Sc 0.73801 0.54912 0.11933 0.0
Sc684 Sc 0.65783 0.56226 0.15015 0.0
O685 O 0.69934 0.58114 0.12981 0.0
C686 C 0.67141 0.62919 0.18766 0.0
C687 C 0.7783 0.61565 0.13897 0.0
C688 C 0.71794 0.52183 0.18294 0.0
C689 C 0.7311 0.59483 0.06066 0.0
C690 C 0.62456 0.61969 0.10783 0.0
C691 C 0.67158 0.50347 0.10548 0.0
O692 O 0.68305 0.64577 0.16508 0.0
O693 O 0.77806 0.58546 0.12872 0.0
O694 O 0.68667 0.52677 0.17701 0.0
O695 O 0.72168 0.62098 0.07568 0.0
O696 O 0.62315 0.59485 0.12622 0.0
O697 O 0.70369 0.50709 0.10846 0.0
O698 O 0.6521 0.63489 0.10142 0.0
O699 O 0.73593 0.56574 0.07287 0.0
O700 O 0.65066 0.52549 0.11517 0.0
O701 O 0.75204 0.63432 0.13977 0.0
O702 O 0.66285 0.59805 0.1865 0.0
O703 O 0.74189 0.53221 0.1659 0.0
C704 C 0.16911 0.11297 0.24467 0.0
C705 C 0.17213 0.13594 0.26911 0.0
C706 C 0.16028 0.12409 0.21562 0.0
C707 C 0.15453 0.15867 0.20966 0.0
H708 H 0.17227 0.08584 0.24818 0.0
H709 H 0.15631 0.10527 0.19798 0.0
S710 S 0.16237 0.22973 0.26446 0.0
N711 N 0.1713 0.19538 0.28467 0.0
N712 N 0.15479 0.2163 0.22954 0.0
C713 C 0.15981 0.18232 0.2331 0.0
C714 C 0.16866 0.17095 0.26299 0.0
C715 C 0.88292 0.16888 0.24646 0.0
C716 C 0.85971 0.17095 0.27078 0.0
C717 C 0.8721 0.161 0.21712 0.0
C718 C 0.83762 0.15531 0.21077 0.0
H719 H 0.90999 0.17203 0.25027 0.0
H720 H 0.89111 0.15759 0.19954 0.0
S721 S 0.76605 0.16088 0.26527 0.0
N722 N 0.80016 0.16935 0.28592 0.0
N723 N 0.77983 0.1546 0.23025 0.0
C724 C 0.81373 0.15973 0.23416 0.0
C725 C 0.82478 0.16762 0.26433 0.0
C726 C 0.86049 0.81224 0.24356 0.0
C727 C 0.84922 0.82833 0.21684 0.0
C728 C 0.84916 0.8232 0.27212 0.0
C729 C 0.82705 0.85112 0.27461 0.0
H730 H 0.87937 0.79216 0.24239 0.0
H731 H 0.85967 0.81145 0.29234 0.0
S732 S 0.78894 0.90049 0.2114 0.0
N733 N 0.81316 0.87181 0.19446 0.0
N734 N 0.79275 0.89331 0.24824 0.0
C735 C 0.8144 0.8663 0.24801 0.0
C736 C 0.82529 0.85465 0.219 0.0
C737 C 0.15536 0.86691 0.27177 0.0
C738 C 0.15357 0.83221 0.27892 0.0
C739 C 0.16242 0.87768 0.24238 0.0
C740 C 0.16845 0.85425 0.2188 0.0
H741 H 0.14921 0.88598 0.28871 0.0
H742 H 0.16177 0.90479 0.23796 0.0
S743 S 0.16984 0.76028 0.22652 0.0
N744 N 0.16047 0.77414 0.26097 0.0
N745 N 0.17492 0.79456 0.2052 0.0
C746 C 0.16926 0.81937 0.22607 0.0
C747 C 0.1616 0.80829 0.2563 0.0
C748 C 0.8597 0.81597 0.74773 0.0
C749 C 0.85204 0.83389 0.7745 0.0
C750 C 0.84798 0.82757 0.71943 0.0
C751 C 0.8292 0.85792 0.71721 0.0
H752 H 0.8759 0.79366 0.74859 0.0
H753 H 0.85552 0.814 0.69909 0.0
S754 S 0.80117 0.91285 0.781 0.0
N755 N 0.82298 0.88193 0.79742 0.0
N756 N 0.80183 0.90448 0.74422 0.0
C757 C 0.8203 0.87521 0.74402 0.0
C758 C 0.83156 0.86299 0.77274 0.0
C759 C 0.15598 0.87407 0.71775 0.0
C760 C 0.15305 0.83947 0.71039 0.0
C761 C 0.16351 0.88436 0.74726 0.0
C762 C 0.1682 0.86046 0.77074 0.0
H763 H 0.15065 0.89342 0.70083 0.0
H764 H 0.1645 0.91145 0.75186 0.0
S765 S 0.16613 0.76653 0.76244 0.0
N766 N 0.15773 0.78107 0.72801 0.0
N767 N 0.17217 0.80043 0.784 0.0
C768 C 0.16771 0.82563 0.76325 0.0
C769 C 0.16003 0.81512 0.73291 0.0
C770 C 0.17808 0.12738 0.74257 0.0
C771 C 0.16675 0.1453 0.71679 0.0
C772 C 0.16876 0.1376 0.77187 0.0
C773 C 0.14821 0.16634 0.7762 0.0
H774 H 0.19312 0.10448 0.73996 0.0
H775 H 0.17603 0.12189 0.79104 0.0
S776 S 0.1161 0.22481 0.71665 0.0
N777 N 0.13697 0.1951 0.69766 0.0
N778 N 0.11977 0.21471 0.75297 0.0
C779 C 0.139 0.18605 0.75086 0.0
C780 C 0.14839 0.17554 0.721 0.0
C781 C 0.81372 0.15998 0.75643 0.0
C782 C 0.83747 0.15666 0.78016 0.0
C783 C 0.82443 0.16804 0.72677 0.0
C784 C 0.85918 0.17266 0.72017 0.0
H785 H 0.78718 0.15391 0.76032 0.0
H786 H 0.80576 0.16846 0.70866 0.0
S787 S 0.93013 0.17324 0.77603 0.0
N788 N 0.89617 0.1631 0.79618 0.0
N789 N 0.91639 0.17868 0.74092 0.0
C790 C 0.88259 0.17229 0.74443 0.0
C791 C 0.8717 0.16412 0.77433 0.0
C792 C 0.64084 0.68448 0.73963 0.0
C793 C 0.6466 0.66517 0.71327 0.0
C794 C 0.65157 0.67257 0.76815 0.0
C795 C 0.66741 0.64063 0.77099 0.0
H796 H 0.62656 0.70804 0.73836 0.0
H797 H 0.64539 0.68732 0.78819 0.0
S798 S 0.69024 0.58192 0.70819 0.0
N799 N 0.67107 0.61419 0.69125 0.0
N800 N 0.69062 0.59125 0.74478 0.0
C801 C 0.67473 0.62201 0.74449 0.0
C802 C 0.66439 0.63442 0.71557 0.0
C803 C 0.33943 0.68587 0.75505 0.0
C804 C 0.33975 0.66267 0.77941 0.0
C805 C 0.3318 0.67492 0.72537 0.0
C806 C 0.32468 0.64045 0.71939 0.0
H807 H 0.34743 0.71196 0.75859 0.0
H808 H 0.33362 0.69299 0.70685 0.0
S809 S 0.31674 0.57141 0.77665 0.0
N810 N 0.32844 0.60511 0.79643 0.0
N811 N 0.3137 0.58445 0.74109 0.0
C812 C 0.3223 0.61781 0.74413 0.0
C813 C 0.33 0.62895 0.77406 0.0
C814 C 0.33989 0.37438 0.71902 0.0
C815 C 0.3438 0.33983 0.71208 0.0
C816 C 0.33206 0.38488 0.7484 0.0
C817 C 0.32815 0.36134 0.77229 0.0
H818 H 0.34445 0.39362 0.70183 0.0
H819 H 0.33023 0.4119 0.75254 0.0
S820 S 0.33368 0.2674 0.76522 0.0
N821 N 0.34132 0.28162 0.73054 0.0
N822 N 0.32651 0.30142 0.78636 0.0
C823 C 0.32992 0.32642 0.76526 0.0
C824 C 0.33782 0.31565 0.73499 0.0
C825 C 0.68115 0.34168 0.73478 0.0
C826 C 0.65863 0.34313 0.71 0.0
C827 C 0.66931 0.33304 0.76393 0.0
C828 C 0.63464 0.32596 0.76893 0.0
H829 H 0.70741 0.34951 0.73204 0.0
H830 H 0.68691 0.33402 0.78286 0.0
S831 S 0.56714 0.32079 0.70998 0.0
N832 N 0.60149 0.33296 0.69133 0.0
N833 N 0.57916 0.31627 0.7457 0.0
C834 C 0.61265 0.32471 0.74368 0.0
C835 C 0.62469 0.33348 0.71427 0.0
C836 C 0.31654 0.33472 0.23232 0.0
C837 C 0.33936 0.34165 0.20849 0.0
C838 C 0.32865 0.32589 0.26141 0.0
C839 C 0.36386 0.32406 0.26737 0.0
H840 H 0.28946 0.33835 0.22901 0.0
H841 H 0.31047 0.32244 0.27964 0.0
S842 S 0.43329 0.3351 0.21069 0.0
N843 N 0.39798 0.34232 0.1915 0.0
N844 N 0.42097 0.32597 0.24559 0.0
C845 C 0.38658 0.32852 0.24285 0.0
C846 C 0.37424 0.33726 0.21355 0.0
C847 C 0.61564 0.34166 0.24176 0.0
C848 C 0.63844 0.32952 0.21956 0.0
C849 C 0.62648 0.34985 0.27084 0.0
C850 C 0.66073 0.3467 0.27926 0.0
H851 H 0.58892 0.34542 0.2367 0.0
H852 H 0.6079 0.36002 0.28663 0.0
S853 S 0.73062 0.31347 0.23117 0.0
N854 N 0.69676 0.31219 0.2089 0.0
N855 N 0.71739 0.32855 0.26418 0.0
C856 C 0.68376 0.33288 0.25818 0.0
C857 C 0.67258 0.32417 0.22816 0.0
C858 C 0.68259 0.63758 0.24262 0.0
C859 C 0.66485 0.64706 0.2162 0.0
C860 C 0.67188 0.64894 0.27128 0.0
C861 C 0.64262 0.66922 0.27413 0.0
H862 H 0.70384 0.62006 0.24122 0.0
H863 H 0.68502 0.63983 0.29134 0.0
S864 S 0.58874 0.7023 0.21157 0.0
N865 N 0.61833 0.67949 0.19434 0.0
N866 N 0.59742 0.7 0.24824 0.0
C867 C 0.62573 0.68011 0.24771 0.0
C868 C 0.63706 0.66918 0.21863 0.0
C869 C 0.32906 0.67051 0.26358 0.0
C870 C 0.32283 0.63584 0.26948 0.0
C871 C 0.3366 0.68173 0.23397 0.0
C872 C 0.33775 0.65858 0.20962 0.0
H873 H 0.33043 0.68855 0.28213 0.0
H874 H 0.34406 0.708 0.23053 0.0
S875 S 0.31698 0.56676 0.21209 0.0
N876 N 0.3133 0.57965 0.24763 0.0
N877 N 0.32793 0.60083 0.19244 0.0
C878 C 0.32869 0.62464 0.21484 0.0
C879 C 0.32105 0.61323 0.24469 0.0
C880 C 0.183 0.33733 0.17033 0.0
C881 C 0.18166 0.3645 0.14962 0.0
C882 C 0.15789 0.31224 0.17029 0.0
C883 C 0.13079 0.31365 0.14953 0.0
H884 H 0.20536 0.33354 0.18437 0.0
H885 H 0.16163 0.28983 0.18429 0.0
S886 S 0.11229 0.38317 0.09518 0.0
N887 N 0.14845 0.39446 0.11149 0.0
N888 N 0.10095 0.34696 0.1114 0.0
C889 C 0.12669 0.343 0.13171 0.0
C890 C 0.15236 0.36866 0.13176 0.0
C891 C 0.65811 0.18366 0.16796 0.0
C892 C 0.6317 0.18253 0.14645 0.0
C893 C 0.6835 0.15883 0.16826 0.0
C894 C 0.68313 0.13206 0.14718 0.0
H895 H 0.66098 0.20561 0.18266 0.0
H896 H 0.70526 0.16243 0.18306 0.0
S897 S 0.61598 0.114 0.09043 0.0
N898 N 0.60366 0.14974 0.10688 0.0
N899 N 0.65167 0.10272 0.10757 0.0
C900 C 0.65459 0.12814 0.12832 0.0
C901 C 0.62865 0.15358 0.12794 0.0
C902 C 0.83793 0.63064 0.12565 0.0
C903 C 0.81074 0.6323 0.14637 0.0
C904 C 0.86338 0.65571 0.12573 0.0
C905 C 0.86207 0.68284 0.14652 0.0
H906 H 0.83757 0.61224 0.10733 0.0
H907 H 0.88185 0.65586 0.10746 0.0
S908 S 0.80133 0.69292 0.21024 0.0
N909 N 0.78793 0.65883 0.19185 0.0
N910 N 0.83568 0.70589 0.19198 0.0
C911 C 0.8377 0.6819 0.1698 0.0
C912 C 0.81196 0.65655 0.16973 0.0
C913 C 0.34092 0.86679 0.12947 0.0
C914 C 0.31225 0.86424 0.14842 0.0
C915 C 0.36582 0.84114 0.12958 0.0
C916 C 0.36237 0.81263 0.14864 0.0
H917 H 0.34212 0.88638 0.11217 0.0
H918 H 0.38551 0.84169 0.11236 0.0
S919 S 0.29654 0.79894 0.2075 0.0
N920 N 0.28541 0.83485 0.19066 0.0
N921 N 0.33204 0.78661 0.19067 0.0
C922 C 0.33639 0.8124 0.17042 0.0
C923 C 0.31127 0.83835 0.17039 0.0
C924 C 0.15581 0.67738 0.32231 0.0
C925 C 0.13044 0.6777 0.34474 0.0
C926 C 0.18112 0.65242 0.32234 0.0
C927 C 0.18197 0.62715 0.34495 0.0
H928 H 0.15803 0.69842 0.30648 0.0
H929 H 0.20199 0.65489 0.30639 0.0
S930 S 0.11769 0.61356 0.40531 0.0
N931 N 0.10455 0.64804 0.38725 0.0
N932 N 0.15246 0.6009 0.38747 0.0
C933 C 0.15437 0.6247 0.36513 0.0
C934 C 0.12843 0.65019 0.36501 0.0
C935 C 0.34244 0.17922 0.32326 0.0
C936 C 0.36758 0.17993 0.34596 0.0
C937 C 0.31716 0.15428 0.32332 0.0
C938 C 0.31619 0.12921 0.34607 0.0
H939 H 0.34055 0.19978 0.30692 0.0
H940 H 0.29659 0.1564 0.30702 0.0
S941 S 0.37988 0.11623 0.4071 0.0
N942 N 0.39307 0.1506 0.38896 0.0
N943 N 0.34531 0.10343 0.38906 0.0
C944 C 0.34351 0.1271 0.36661 0.0
C945 C 0.36938 0.15264 0.36655 0.0
C946 C 0.84256 0.31446 0.32226 0.0
C947 C 0.86801 0.314 0.3447 0.0
C948 C 0.81787 0.34002 0.32182 0.0
C949 C 0.8179 0.36597 0.34375 0.0
H950 H 0.83981 0.29322 0.30675 0.0
H951 H 0.79672 0.33757 0.30615 0.0
S952 S 0.88276 0.37981 0.40351 0.0
N953 N 0.89494 0.34445 0.38633 0.0
N954 N 0.84822 0.39274 0.38545 0.0
C955 C 0.84564 0.36829 0.36376 0.0
C956 C 0.87089 0.34214 0.36424 0.0
C957 C 0.62936 0.84195 0.36152 0.0
C958 C 0.63181 0.81397 0.34173 0.0
C959 C 0.65493 0.86686 0.36202 0.0
C960 C 0.68332 0.86415 0.34274 0.0
H961 H 0.60987 0.84256 0.37892 0.0
H962 H 0.65434 0.88599 0.37973 0.0
S963 S 0.69622 0.80095 0.28144 0.0
N964 N 0.66069 0.78894 0.29837 0.0
N965 N 0.70873 0.8357 0.29934 0.0
C966 C 0.68336 0.83903 0.32013 0.0
C967 C 0.65748 0.81386 0.31959 0.0
C968 C 0.83933 0.63165 0.86284 0.0
C969 C 0.81185 0.63347 0.84243 0.0
C970 C 0.86462 0.65685 0.8628 0.0
C971 C 0.86287 0.68432 0.84236 0.0
H972 H 0.83936 0.61294 0.88094 0.0
H973 H 0.88336 0.65677 0.88087 0.0
S974 S 0.80141 0.69491 0.77923 0.0
N975 N 0.7884 0.66049 0.79738 0.0
N976 N 0.83585 0.70786 0.79735 0.0
C977 C 0.83823 0.6836 0.81929 0.0
C978 C 0.81265 0.65808 0.81932 0.0
C979 C 0.36623 0.84428 0.86095 0.0
C980 C 0.36365 0.81588 0.84169 0.0
C981 C 0.34121 0.86982 0.86042 0.0
C982 C 0.31319 0.86727 0.84065 0.0
H983 H 0.38529 0.84481 0.87874 0.0
H984 H 0.34172 0.88927 0.87785 0.0
S985 S 0.3001 0.80233 0.78081 0.0
N986 N 0.33501 0.79006 0.79864 0.0
N987 N 0.28812 0.83804 0.79749 0.0
C988 C 0.31319 0.84153 0.81856 0.0
C989 C 0.33846 0.8157 0.81915 0.0
C990 C 0.15923 0.3137 0.82119 0.0
C991 C 0.13272 0.31406 0.84256 0.0
C992 C 0.18369 0.33943 0.82085 0.0
C993 C 0.18251 0.36619 0.84201 0.0
H994 H 0.16283 0.29186 0.8065 0.0
H995 H 0.20544 0.33658 0.80592 0.0
S996 S 0.11441 0.38212 0.89844 0.0
N997 N 0.10342 0.34599 0.88195 0.0
N998 N 0.1498 0.39451 0.88148 0.0
C999 C 0.15375 0.36918 0.86077 0.0
C1000 C 0.12866 0.34292 0.86104 0.0
C1001 C 0.65632 0.18365 0.82145 0.0
C1002 C 0.63007 0.18316 0.84316 0.0
C1003 C 0.68203 0.15914 0.82186 0.0
C1004 C 0.68204 0.13315 0.84371 0.0
H1005 H 0.65886 0.20499 0.80599 0.0
H1006 H 0.70364 0.16236 0.80682 0.0
S1007 S 0.61551 0.11655 0.90136 0.0
N1008 N 0.60272 0.15155 0.88391 0.0
N1009 N 0.65118 0.105 0.88436 0.0
C1010 C 0.65369 0.12969 0.86285 0.0
C1011 C 0.62749 0.15488 0.8626 0.0
C1012 C 0.84201 0.36946 0.62958 0.0
C1013 C 0.81372 0.36692 0.64896 0.0
C1014 C 0.8674 0.3443 0.6299 0.0
C1015 C 0.8648 0.31621 0.64958 0.0
H1016 H 0.84254 0.38858 0.61183 0.0
H1017 H 0.88676 0.34479 0.61238 0.0
S1018 S 0.80028 0.30327 0.7098 0.0
N1019 N 0.78807 0.3383 0.69212 0.0
N1020 N 0.83578 0.29114 0.69287 0.0
C1021 C 0.83924 0.31625 0.67183 0.0
C1022 C 0.81356 0.34167 0.67146 0.0
C1023 C 0.65467 0.86839 0.62984 0.0
C1024 C 0.68298 0.86563 0.64922 0.0
C1025 C 0.62966 0.84295 0.6295 0.0
C1026 C 0.6326 0.81436 0.64854 0.0
H1027 H 0.65377 0.88808 0.6126 0.0
H1028 H 0.61023 0.8438 0.61205 0.0
S1029 S 0.6966 0.80075 0.70911 0.0
N1030 N 0.70852 0.83635 0.69221 0.0
N1031 N 0.66157 0.78849 0.6915 0.0
C1032 C 0.65807 0.81402 0.67086 0.0
C1033 C 0.68334 0.83979 0.67123 0.0
C1034 C 0.15784 0.68589 0.66904 0.0
C1035 C 0.13113 0.68488 0.64787 0.0
C1036 C 0.18291 0.66073 0.6692 0.0
C1037 C 0.18212 0.63394 0.64806 0.0
H1038 H 0.16117 0.70795 0.68352 0.0
H1039 H 0.20479 0.66411 0.68389 0.0
S1040 S 0.11393 0.61659 0.59206 0.0
N1041 N 0.10224 0.65246 0.60865 0.0
N1042 N 0.14972 0.6049 0.6088 0.0
C1043 C 0.15324 0.63028 0.62953 0.0
C1044 C 0.12755 0.65598 0.62944 0.0
C1045 C 0.33566 0.1863 0.66885 0.0
C1046 C 0.36218 0.18546 0.64751 0.0
C1047 C 0.31059 0.16118 0.66899 0.0
C1048 C 0.31119 0.13457 0.64767 0.0
H1049 H 0.3325 0.2082 0.68356 0.0
H1050 H 0.2889 0.16441 0.68393 0.0
S1051 S 0.37898 0.11759 0.59116 0.0
N1052 N 0.39077 0.15332 0.6079 0.0
N1053 N 0.34332 0.10582 0.60803 0.0
C1054 C 0.33992 0.13105 0.62891 0.0
C1055 C 0.3656 0.15671 0.62884 0.0
C1056 C 0.12904 0.03364 0.08853 0.0
C1057 C 0.16427 0.02872 0.0924 0.0
C1058 C 0.11499 0.06633 0.08754 0.0
C1059 C 0.13562 0.09543 0.09046 0.0
H1060 H 0.1118 0.01211 0.08874 0.0
H1061 H 0.08751 0.06864 0.08711 0.0
S1062 S 0.23017 0.09636 0.09241 0.0
N1063 N 0.22005 0.05559 0.09265 0.0
N1064 N 0.19371 0.11716 0.09069 0.0
C1065 C 0.17123 0.09089 0.08986 0.0
C1066 C 0.18556 0.05746 0.09088 0.0
C1067 C 0.94019 0.18471 0.09638 0.0
C1068 C 0.96908 0.16369 0.09448 0.0
C1069 C 0.90737 0.17082 0.09516 0.0
C1070 C 0.90246 0.13547 0.09204 0.0
H1071 H 0.9428 0.2115 0.10173 0.0
H1072 H 0.88603 0.18753 0.09969 0.0
S1073 S 0.96968 0.07136 0.07672 0.0
N1074 N 0.99063 0.10723 0.08238 0.0
N1075 N 0.92897 0.08112 0.08005 0.0
C1076 C 0.93103 0.11505 0.08581 0.0
C1077 C 0.96439 0.12917 0.08709 0.0
C1078 C 0.8269 0.90699 0.09965 0.0
C1079 C 0.8623 0.90179 0.09854 0.0
C1080 C 0.81323 0.94001 0.09953 0.0
C1081 C 0.83461 0.96872 0.09822 0.0
H1082 H 0.80988 0.88572 0.10346 0.0
H1083 H 0.78614 0.94299 0.10326 0.0
S1084 S 0.92823 0.96788 0.08678 0.0
N1085 N 0.91777 0.92736 0.09027 0.0
N1086 N 0.89222 0.98936 0.08948 0.0
C1087 C 0.86963 0.96349 0.09322 0.0
C1088 C 0.88347 0.92999 0.09358 0.0
C1089 C 0.08774 0.82832 0.09937 0.0
C1090 C 0.09229 0.86381 0.09729 0.0
C1091 C 0.05514 0.81389 0.09896 0.0
C1092 C 0.02592 0.83442 0.09634 0.0
H1093 H 0.10919 0.81176 0.10399 0.0
H1094 H 0.05285 0.78685 0.10331 0.0
S1095 S 0.02485 0.92756 0.08166 0.0
N1096 N 0.06549 0.91826 0.08643 0.0
N1097 N 0.00421 0.89118 0.0852 0.0
C1098 C 0.03048 0.86938 0.09036 0.0
C1099 C 0.06366 0.88408 0.09099 0.0
C1100 C 0.18531 0.93553 0.39243 0.0
C1101 C 0.16486 0.96472 0.39575 0.0
C1102 C 0.17096 0.90286 0.39277 0.0
C1103 C 0.13563 0.89823 0.39635 0.0
H1104 H 0.21208 0.93789 0.38693 0.0
H1105 H 0.1873 0.88146 0.38746 0.0
S1106 S 0.07268 0.96565 0.4145 0.0
N1107 N 0.10876 0.98635 0.40925 0.0
N1108 N 0.08183 0.925 0.40957 0.0
C1109 C 0.1157 0.92686 0.40352 0.0
C1110 C 0.13032 0.9601 0.40331 0.0
C1111 C 0.05877 0.1804 0.39292 0.0
C1112 C 0.02965 0.15981 0.39616 0.0
C1113 C 0.09134 0.16597 0.39085 0.0
C1114 C 0.09591 0.13045 0.39181 0.0
H1115 H 0.05629 0.20759 0.38942 0.0
H1116 H 0.11264 0.18258 0.38593 0.0
S1117 S 0.02941 0.06613 0.4082 0.0
N1118 N 0.00859 0.10261 0.4066 0.0
N1119 N 0.06974 0.07564 0.40202 0.0
C1120 C 0.06763 0.10997 0.39855 0.0
C1121 C 0.03453 0.12463 0.40099 0.0
C1122 C 0.81297 0.05657 0.39163 0.0
C1123 C 0.83378 0.02756 0.3949 0.0
C1124 C 0.82707 0.08935 0.39097 0.0
C1125 C 0.86241 0.09415 0.39349 0.0
H1126 H 0.78605 0.05394 0.38693 0.0
H1127 H 0.81053 0.11064 0.38574 0.0
S1128 S 0.92668 0.02775 0.4107 0.0
N1129 N 0.89058 0.00663 0.40708 0.0
N1130 N 0.91697 0.06819 0.40527 0.0
C1131 C 0.88287 0.06587 0.40041 0.0
C1132 C 0.86856 0.03256 0.40133 0.0
C1133 C 0.9063 0.82568 0.39196 0.0
C1134 C 0.90207 0.86122 0.39361 0.0
C1135 C 0.93891 0.81107 0.39151 0.0
C1136 C 0.96822 0.8316 0.39281 0.0
H1137 H 0.88454 0.80931 0.38814 0.0
H1138 H 0.94109 0.78398 0.38738 0.0
S1139 S 0.97017 0.92501 0.40571 0.0
N1140 N 0.92933 0.91577 0.40247 0.0
N1141 N 0.99056 0.88845 0.40223 0.0
C1142 C 0.96402 0.86667 0.3984 0.0
C1143 C 0.93093 0.88148 0.3986 0.0
C1144 C 0.86855 0.96391 0.89456 0.0
C1145 C 0.83318 0.96886 0.89165 0.0
C1146 C 0.88266 0.93125 0.89485 0.0
C1147 C 0.86196 0.90223 0.89259 0.0
H1148 H 0.88577 0.98545 0.89437 0.0
H1149 H 0.91013 0.92879 0.89473 0.0
S1150 S 0.76755 0.90096 0.89053 0.0
N1151 N 0.77748 0.94179 0.89105 0.0
N1152 N 0.80409 0.88024 0.89188 0.0
C1153 C 0.82641 0.90662 0.89327 0.0
C1154 C 0.81197 0.94002 0.89277 0.0
C1155 C 0.0568 0.81212 0.89152 0.0
C1156 C 0.02785 0.83278 0.89575 0.0
C1157 C 0.08957 0.82621 0.89106 0.0
C1158 C 0.09448 0.86143 0.89475 0.0
H1159 H 0.05408 0.78541 0.88592 0.0
H1160 H 0.11074 0.80986 0.88504 0.0
S1161 S 0.02828 0.92487 0.91477 0.0
N1162 N 0.00709 0.88899 0.90997 0.0
N1163 N 0.06866 0.91541 0.90875 0.0
C1164 C 0.06628 0.88156 0.90267 0.0
C1165 C 0.03296 0.86724 0.90329 0.0
C1166 C 0.17098 0.09083 0.89662 0.0
C1167 C 0.13567 0.09603 0.899 0.0
C1168 C 0.18473 0.05787 0.89713 0.0
C1169 C 0.16359 0.02908 0.9001 0.0
H1170 H 0.18772 0.11192 0.89134 0.0
H1171 H 0.2116 0.05494 0.89232 0.0
S1172 S 0.07078 0.0303 0.91606 0.0
N1173 N 0.0809 0.07066 0.91081 0.0
N1174 N 0.10665 0.00877 0.91234 0.0
C1175 C 0.12893 0.03448 0.90674 0.0
C1176 C 0.11496 0.06797 0.90598 0.0
C1177 C 0.93116 0.11508 0.90007 0.0
C1178 C 0.90221 0.13606 0.89777 0.0
C1179 C 0.96396 0.12878 0.89895 0.0
C1180 C 0.96918 0.16403 0.89547 0.0
H1181 H 0.92862 0.08762 0.90029 0.0
H1182 H 0.98524 0.11123 0.89849 0.0
S1183 S 0.90206 0.23063 0.8975 0.0
N1184 N 0.88099 0.19433 0.89865 0.0
N1185 N 0.94272 0.22011 0.89658 0.0
C1186 C 0.9406 0.18559 0.89748 0.0
C1187 C 0.90707 0.17158 0.89866 0.0
C1188 C 0.80926 0.05998 0.59904 0.0
C1189 C 0.82983 0.0311 0.59415 0.0
C1190 C 0.82339 0.09272 0.59979 0.0
C1191 C 0.85854 0.09765 0.59576 0.0
H1192 H 0.78265 0.05719 0.60494 0.0
H1193 H 0.80717 0.11381 0.60629 0.0
S1194 S 0.92156 0.03185 0.57385 0.0
N1195 N 0.88574 0.01058 0.57875 0.0
N1196 N 0.91226 0.07211 0.58071 0.0
C1197 C 0.87853 0.06961 0.58718 0.0
C1198 C 0.86415 0.03632 0.58617 0.0
C1199 C 0.92969 0.88505 0.59488 0.0
C1200 C 0.90045 0.86465 0.59691 0.0
C1201 C 0.96216 0.87055 0.59515 0.0
C1202 C 0.96666 0.83509 0.59782 0.0
H1203 H 0.92757 0.91256 0.59529 0.0
H1204 H 0.98388 0.88753 0.59565 0.0
S1205 S 0.89814 0.77017 0.5973 0.0
N1206 N 0.87783 0.80696 0.59642 0.0
N1207 N 0.93907 0.77966 0.5973 0.0
C1208 C 0.93766 0.8142 0.59615 0.0
C1209 C 0.90444 0.82903 0.59565 0.0
C1210 C 0.11128 0.93371 0.59105 0.0
C1211 C 0.13216 0.90461 0.59241 0.0
C1212 C 0.12521 0.96645 0.59172 0.0
C1213 C 0.16063 0.97149 0.59382 0.0
H1214 H 0.08383 0.93134 0.5919 0.0
H1215 H 0.10781 0.9878 0.59295 0.0
S1216 S 0.22664 0.90402 0.58874 0.0
N1217 N 0.19022 0.88312 0.58904 0.0
N1218 N 0.21641 0.94473 0.59031 0.0
C1219 C 0.18187 0.94278 0.59089 0.0
C1220 C 0.16764 0.90931 0.59014 0.0
C1221 C 0.06472 0.11677 0.59117 0.0
C1222 C 0.09353 0.13762 0.5944 0.0
C1223 C 0.03205 0.13075 0.58967 0.0
C1224 C 0.02684 0.16617 0.5919 0.0
H1225 H 0.06723 0.08931 0.59191 0.0
H1226 H 0.01066 0.11338 0.58931 0.0
S1227 S 0.09465 0.23202 0.59371 0.0
N1228 N 0.11542 0.19549 0.59438 0.0
N1229 N 0.05391 0.22198 0.59184 0.0
C1230 C 0.05574 0.18743 0.59138 0.0
C1231 C 0.08915 0.17309 0.59264 0.0
C1232 C 0.6276 0.53475 0.59371 0.0
C1233 C 0.66296 0.5299 0.59683 0.0
C1234 C 0.6134 0.56739 0.59325 0.0
C1235 C 0.63401 0.59648 0.59558 0.0
H1236 H 0.61044 0.51316 0.59392 0.0
H1237 H 0.58592 0.56977 0.59327 0.0
S1238 S 0.72841 0.59797 0.59817 0.0
N1239 N 0.71858 0.55713 0.59767 0.0
N1240 N 0.69183 0.61859 0.59655 0.0
C1241 C 0.66958 0.59216 0.59508 0.0
C1242 C 0.6841 0.5588 0.59573 0.0
C1243 C 0.40612 0.67372 0.59871 0.0
C1244 C 0.40105 0.63849 0.59544 0.0
C1245 C 0.439 0.68757 0.59836 0.0
C1246 C 0.46782 0.6666 0.59467 0.0
H1247 H 0.38499 0.69026 0.6044 0.0
H1248 H 0.44185 0.71433 0.6037 0.0
S1249 S 0.46687 0.57433 0.57639 0.0
N1250 N 0.42652 0.58416 0.58212 0.0
N1251 N 0.48829 0.61011 0.58097 0.0
C1252 C 0.46254 0.63212 0.58731 0.0
C1253 C 0.42913 0.61805 0.58788 0.0
C1254 C 0.36813 0.46657 0.58918 0.0
C1255 C 0.33272 0.4717 0.59142 0.0
C1256 C 0.38209 0.43382 0.58948 0.0
C1257 C 0.36123 0.40485 0.59189 0.0
H1258 H 0.38552 0.48795 0.5897 0.0
H1259 H 0.40955 0.43145 0.59026 0.0
S1260 S 0.26672 0.40416 0.58868 0.0
N1261 N 0.27693 0.4449 0.58897 0.0
N1262 N 0.30315 0.38326 0.58939 0.0
C1263 C 0.32573 0.40946 0.58957 0.0
C1264 C 0.31147 0.44294 0.58937 0.0
C1265 C 0.56544 0.38266 0.58994 0.0
C1266 C 0.59447 0.36195 0.59309 0.0
C1267 C 0.5327 0.36882 0.59132 0.0
C1268 C 0.52762 0.3337 0.59581 0.0
H1269 H 0.56787 0.4101 0.58884 0.0
H1270 H 0.51125 0.38617 0.59109 0.0
S1271 S 0.59498 0.26749 0.59787 0.0
N1272 N 0.61593 0.30376 0.59511 0.0
N1273 N 0.55427 0.27783 0.59776 0.0
C1274 C 0.55628 0.31223 0.595 0.0
C1275 C 0.58976 0.32635 0.59359 0.0
C1276 C 0.61199 0.43177 0.8937 0.0
C1277 C 0.63264 0.40266 0.89145 0.0
C1278 C 0.62623 0.46431 0.89546 0.0
C1279 C 0.66176 0.46913 0.8946 0.0
H1280 H 0.58454 0.42962 0.89219 0.0
H1281 H 0.60904 0.48588 0.89515 0.0
S1282 S 0.72698 0.40065 0.89606 0.0
N1283 N 0.69035 0.38024 0.89402 0.0
N1284 N 0.71722 0.44151 0.89706 0.0
C1285 C 0.68268 0.44002 0.89601 0.0
C1286 C 0.66809 0.40674 0.89445 0.0
C1287 C 0.53154 0.62849 0.89375 0.0
C1288 C 0.52651 0.66395 0.89205 0.0
C1289 C 0.56422 0.61443 0.89332 0.0
C1290 C 0.59322 0.63525 0.89153 0.0
H1291 H 0.51006 0.61122 0.89311 0.0
H1292 H 0.56667 0.58698 0.89231 0.0
S1293 S 0.59433 0.72969 0.89342 0.0
N1294 N 0.55353 0.71969 0.89363 0.0
N1295 N 0.61511 0.69315 0.89313 0.0
C1296 C 0.58878 0.67074 0.89362 0.0
C1297 C 0.55534 0.68514 0.89385 0.0
C1298 C 0.32355 0.59212 0.89493 0.0
C1299 C 0.35875 0.59716 0.89878 0.0
C1300 C 0.30957 0.55933 0.89514 0.0
C1301 C 0.33029 0.53044 0.89928 0.0
H1302 H 0.30709 0.6132 0.88889 0.0
H1303 H 0.28291 0.5566 0.88936 0.0
S1304 S 0.42211 0.53107 0.91945 0.0
N1305 N 0.41262 0.57145 0.91338 0.0
N1306 N 0.38636 0.5098 0.91422 0.0
C1307 C 0.36463 0.53562 0.90734 0.0
C1308 C 0.37887 0.56901 0.90694 0.0
C1309 C 0.40468 0.32788 0.8933 0.0
C1310 C 0.40013 0.36322 0.89643 0.0
C1311 C 0.43734 0.31344 0.89374 0.0
C1312 C 0.4665 0.33387 0.89743 0.0
H1313 H 0.38329 0.31167 0.88769 0.0
H1314 H 0.43977 0.28661 0.88851 0.0
S1315 S 0.46702 0.42639 0.9149 0.0
N1316 N 0.42651 0.41722 0.90923 0.0
N1317 N 0.48784 0.39018 0.91066 0.0
C1318 C 0.46175 0.36855 0.90449 0.0
C1319 C 0.42856 0.38322 0.90377 0.0
C1320 C 0.31817 0.43773 0.39185 0.0
C1321 C 0.33857 0.467 0.39486 0.0
C1322 C 0.33281 0.40528 0.38957 0.0
C1323 C 0.36837 0.4009 0.39006 0.0
H1324 H 0.29091 0.43999 0.3888 0.0
H1325 H 0.31621 0.38388 0.38496 0.0
S1326 S 0.43243 0.46793 0.40566 0.0
N1327 N 0.39578 0.48848 0.4045 0.0
N1328 N 0.42313 0.42752 0.39959 0.0
C1329 C 0.38875 0.42936 0.39651 0.0
C1330 C 0.37388 0.46238 0.39916 0.0
C1331 C 0.59486 0.32454 0.39422 0.0
C1332 C 0.59898 0.35986 0.39851 0.0
C1333 C 0.56239 0.30975 0.39342 0.0
C1334 C 0.53297 0.32976 0.397 0.0
H1335 H 0.61649 0.30866 0.38856 0.0
H1336 H 0.56037 0.28315 0.3872 0.0
S1337 S 0.53063 0.42134 0.41776 0.0
N1338 N 0.57143 0.41292 0.41282 0.0
N1339 N 0.51047 0.38512 0.41167 0.0
C1340 C 0.53707 0.36412 0.4054 0.0
C1341 C 0.57008 0.37918 0.40607 0.0
C1342 C 0.61627 0.56696 0.39774 0.0
C1343 C 0.6364 0.59621 0.39425 0.0
C1344 C 0.63093 0.53452 0.39815 0.0
C1345 C 0.66632 0.52999 0.39455 0.0
H1346 H 0.58876 0.56898 0.39812 0.0
H1347 H 0.61404 0.51275 0.39894 0.0
S1348 S 0.73073 0.59891 0.39046 0.0
N1349 N 0.69389 0.61906 0.39192 0.0
N1350 N 0.72152 0.55797 0.39221 0.0
C1351 C 0.68704 0.55921 0.39448 0.0
C1352 C 0.67205 0.59239 0.39438 0.0
C1353 C 0.4066 0.67049 0.38969 0.0
C1354 C 0.40183 0.63519 0.39257 0.0
C1355 C 0.43929 0.68469 0.39092 0.0
C1356 C 0.46826 0.66402 0.39515 0.0
H1357 H 0.38541 0.68687 0.38378 0.0
H1358 H 0.44197 0.71156 0.38595 0.0
S1359 S 0.46779 0.57138 0.41221 0.0
N1360 N 0.42752 0.58089 0.40567 0.0
N1361 N 0.48894 0.60747 0.4086 0.0
C1362 C 0.46315 0.62933 0.40193 0.0
C1363 C 0.42993 0.61491 0.40039 0.0
C1364 C 0.30961 0.55576 0.09618 0.0
C1365 C 0.33069 0.52697 0.09352 0.0
C1366 C 0.32332 0.58867 0.09514 0.0
C1367 C 0.35856 0.59382 0.09145 0.0
H1368 H 0.28296 0.55294 0.10195 0.0
H1369 H 0.30663 0.60987 0.10023 0.0
S1370 S 0.4227 0.52713 0.07445 0.0
N1371 N 0.38704 0.50591 0.08034 0.0
N1372 N 0.41281 0.56775 0.07843 0.0
C1373 C 0.37899 0.56542 0.08463 0.0
C1374 C 0.36505 0.53197 0.08568 0.0
C1375 C 0.40369 0.32365 0.09369 0.0
C1376 C 0.39926 0.35902 0.0898 0.0
C1377 C 0.4363 0.30918 0.09474 0.0
C1378 C 0.46549 0.3296 0.09186 0.0
H1379 H 0.38216 0.30749 0.09898 0.0
H1380 H 0.4386 0.28255 0.10083 0.0
S1381 S 0.46723 0.42144 0.07211 0.0
N1382 N 0.42643 0.41254 0.07629 0.0
N1383 N 0.48769 0.38533 0.07817 0.0
C1384 C 0.46118 0.36399 0.08372 0.0
C1385 C 0.42804 0.37871 0.08269 0.0
C1386 C 0.67836 0.4407 0.09816 0.0
C1387 C 0.65763 0.46986 0.0963 0.0
C1388 C 0.6641 0.40803 0.09885 0.0
C1389 C 0.62858 0.40331 0.09782 0.0
H1390 H 0.70554 0.44308 0.10166 0.0
H1391 H 0.68094 0.38664 0.10282 0.0
S1392 S 0.56402 0.47054 0.08414 0.0
N1393 N 0.6004 0.49134 0.08679 0.0
N1394 N 0.57367 0.42992 0.08852 0.0
C1395 C 0.60797 0.43188 0.09218 0.0
C1396 C 0.62249 0.46516 0.09127 0.0
C1397 C 0.55377 0.68324 0.09906 0.0
C1398 C 0.52508 0.66184 0.09769 0.0
C1399 C 0.58677 0.66959 0.09895 0.0
C1400 C 0.59195 0.6342 0.09753 0.0
H1401 H 0.55079 0.71028 0.10306 0.0
H1402 H 0.60804 0.68656 0.10291 0.0
S1403 S 0.52586 0.56837 0.0853 0.0
N1404 N 0.50439 0.60435 0.08843 0.0
N1405 N 0.56638 0.57881 0.08875 0.0
C1406 C 0.56375 0.61307 0.09239 0.0
C1407 C 0.53027 0.6269 0.09229 0.0
C1408 C 0.03578 0.20192 0.24323 0.0
C1409 C 0.01969 0.22002 0.21964 0.0
C1410 C 0.02389 0.20367 0.27302 0.0
C1411 C 0.99561 0.22379 0.28049 0.0
H1412 H 0.0571 0.18522 0.23849 0.0
H1413 H 0.03591 0.18783 0.29011 0.0
S1414 S 0.94613 0.27838 0.22787 0.0
N1415 N 0.97553 0.2607 0.20614 0.0
N1416 N 0.95301 0.26395 0.26261 0.0
C1417 C 0.98062 0.24388 0.25769 0.0
C1418 C 0.99274 0.24202 0.22709 0.0
C1419 C 0.75362 0.97901 0.25523 0.0
C1420 C 0.7714 0.99427 0.27935 0.0
C1421 C 0.75546 0.9927 0.22579 0.0
C1422 C 0.77523 0.02182 0.21999 0.0
H1423 H 0.7404 0.95512 0.25866 0.0
H1424 H 0.74332 0.97923 0.20726 0.0
S1425 S 0.82083 0.0744 0.27701 0.0
N1426 N 0.80524 0.04214 0.2966 0.0
N1427 N 0.80839 0.06825 0.24161 0.0
C1428 C 0.79047 0.03882 0.2446 0.0
C1429 C 0.78865 0.0249 0.27427 0.0
C1430 C 0.97675 0.74964 0.23495 0.0
C1431 C 0.99311 0.76641 0.21079 0.0
C1432 C 0.9902 0.75108 0.26454 0.0
C1433 C 0.02012 0.76953 0.2705 0.0
H1434 H 0.95223 0.73767 0.23142 0.0
H1435 H 0.97592 0.73983 0.28304 0.0
S1436 S 0.07535 0.81222 0.21368 0.0
N1437 N 0.04267 0.79791 0.19385 0.0
N1438 N 0.06823 0.80035 0.2491 0.0
C1439 C 0.0381 0.78369 0.24592 0.0
C1440 C 0.02447 0.78223 0.21609 0.0
C1441 C 0.22255 0.97207 0.2699 0.0
C1442 C 0.23136 0.00573 0.27686 0.0
C1443 C 0.22151 0.96099 0.23975 0.0
C1444 C 0.22852 0.98335 0.21561 0.0
H1445 H 0.21471 0.95475 0.28775 0.0
H1446 H 0.21353 0.93514 0.23512 0.0
S1447 S 0.25398 0.07369 0.22206 0.0
N1448 N 0.24881 0.06101 0.25758 0.0
N1449 N 0.24611 0.0401 0.20057 0.0
C1450 C 0.23911 0.01655 0.22228 0.0
C1451 C 0.24059 0.0278 0.25309 0.0
C1452 C 0.97863 0.75289 0.75609 0.0
C1453 C 0.99475 0.7698 0.78029 0.0
C1454 C 0.99157 0.75535 0.7264 0.0
C1455 C 0.02072 0.77497 0.72036 0.0
H1456 H 0.9546 0.74 0.75971 0.0
H1457 H 0.97746 0.74385 0.70792 0.0
S1458 S 0.0754 0.81836 0.77718 0.0
N1459 N 0.04354 0.80257 0.79714 0.0
N1460 N 0.06811 0.80699 0.74166 0.0
C1461 C 0.03858 0.78929 0.74492 0.0
C1462 C 0.02549 0.78676 0.77487 0.0
C1463 C 0.24599 0.00189 0.72955 0.0
C1464 C 0.21731 0.01885 0.7177 0.0
C1465 C 0.24673 0.99105 0.76013 0.0
C1466 C 0.21917 0.99769 0.77977 0.0
H1467 H 0.26706 0.99541 0.71479 0.0
H1468 H 0.26803 0.97586 0.76791 0.0
S1469 S 0.14099 0.04662 0.76108 0.0
N1470 N 0.16229 0.04446 0.72888 0.0
N1471 N 0.16498 0.02681 0.7862 0.0
C1472 C 0.19195 0.01737 0.7687 0.0
C1473 C 0.19063 0.02717 0.73769 0.0
C1474 C 0.98554 0.24767 0.73126 0.0
C1475 C 0.99533 0.22263 0.71008 0.0
C1476 C 0.99731 0.24645 0.76149 0.0
C1477 C 0.01871 0.21988 0.77128 0.0
H1478 H 0.96714 0.26697 0.72499 0.0
H1479 H 0.98814 0.26516 0.7776 0.0
S1480 S 0.05582 0.15156 0.72316 0.0
N1481 N 0.03129 0.17357 0.69994 0.0
N1482 N 0.05231 0.1705 0.75644 0.0
C1483 C 0.03038 0.19622 0.74965 0.0
C1484 C 0.019 0.19783 0.7191 0.0
C1485 C 0.75188 0.98213 0.73436 0.0
C1486 C 0.76993 0.9976 0.71049 0.0
C1487 C 0.75387 0.99519 0.764 0.0
C1488 C 0.77407 0.02387 0.77025 0.0
H1489 H 0.73834 0.95849 0.73058 0.0
H1490 H 0.74151 0.98153 0.78231 0.0
S1491 S 0.82046 0.07698 0.71409 0.0
N1492 N 0.80438 0.04539 0.694 0.0
N1493 N 0.80793 0.07026 0.74938 0.0
C1494 C 0.78958 0.04116 0.74592 0.0
C1495 C 0.78757 0.0279 0.71604 0.0
C1496 C 0.46066 0.70564 0.74709 0.0
C1497 C 0.47582 0.72344 0.77129 0.0
C1498 C 0.47424 0.7071 0.71793 0.0
C1499 C 0.50325 0.72666 0.71182 0.0
H1500 H 0.43888 0.68928 0.75094 0.0
H1501 H 0.46292 0.69149 0.70032 0.0
S1502 S 0.55062 0.78058 0.76632 0.0
N1503 N 0.51981 0.76339 0.78676 0.0
N1504 N 0.54542 0.76622 0.73134 0.0
C1505 C 0.51727 0.74661 0.73512 0.0
C1506 C 0.50347 0.74501 0.76508 0.0
C1507 C 0.30418 0.49079 0.7259 0.0
C1508 C 0.27588 0.50734 0.71305 0.0
C1509 C 0.30464 0.48122 0.75628 0.0
C1510 C 0.27646 0.4866 0.77531 0.0
H1511 H 0.32701 0.48621 0.71272 0.0
H1512 H 0.32776 0.46981 0.76499 0.0
S1513 S 0.19478 0.52657 0.75278 0.0
N1514 N 0.21809 0.52765 0.72154 0.0
N1515 N 0.21848 0.50781 0.77893 0.0
C1516 C 0.2471 0.50138 0.76263 0.0
C1517 C 0.24688 0.51206 0.73144 0.0
C1518 C 0.51425 0.25256 0.75666 0.0
C1519 C 0.49849 0.27085 0.78029 0.0
C1520 C 0.50196 0.25475 0.72666 0.0
C1521 C 0.47385 0.27553 0.71967 0.0
H1522 H 0.53758 0.23864 0.76095 0.0
H1523 H 0.51584 0.24208 0.70866 0.0
S1524 S 0.42046 0.32334 0.77469 0.0
N1525 N 0.45106 0.30648 0.79551 0.0
N1526 N 0.42781 0.31055 0.73959 0.0
C1527 C 0.45634 0.29145 0.74369 0.0
C1528 C 0.46873 0.28914 0.77392 0.0
C1529 C 0.70399 0.46253 0.74294 0.0
C1530 C 0.722 0.47829 0.71917 0.0
C1531 C 0.70575 0.47486 0.77254 0.0
C1532 C 0.72574 0.50333 0.77962 0.0
H1533 H 0.68724 0.44119 0.73847 0.0
H1534 H 0.68992 0.46308 0.78975 0.0
S1535 S 0.78102 0.55137 0.72658 0.0
N1536 N 0.76313 0.5218 0.70518 0.0
N1537 N 0.76636 0.54525 0.76135 0.0
C1538 C 0.74606 0.51777 0.75672 0.0
C1539 C 0.74423 0.50514 0.7263 0.0
C1540 C 0.46732 0.25772 0.25298 0.0
C1541 C 0.49101 0.26145 0.27672 0.0
C1542 C 0.4778 0.25857 0.22249 0.0
C1543 C 0.51223 0.26307 0.21515 0.0
H1544 H 0.44034 0.25665 0.25797 0.0
H1545 H 0.45875 0.2581 0.2047 0.0
S1546 S 0.58446 0.26757 0.26915 0.0
N1547 N 0.5504 0.26541 0.29106 0.0
N1548 N 0.57035 0.26653 0.23378 0.0
C1549 C 0.53633 0.2638 0.23873 0.0
C1550 C 0.52564 0.26312 0.26963 0.0
C1551 C 0.70518 0.47609 0.21941 0.0
C1552 C 0.72539 0.50418 0.21163 0.0
C1553 C 0.70443 0.46376 0.24909 0.0
C1554 C 0.72369 0.47917 0.27225 0.0
H1555 H 0.68842 0.46464 0.20273 0.0
H1556 H 0.68749 0.44273 0.25415 0.0
S1557 S 0.78311 0.55162 0.26296 0.0
N1558 N 0.76712 0.54565 0.22863 0.0
N1559 N 0.76577 0.52223 0.28493 0.0
C1560 C 0.74593 0.50575 0.2644 0.0
C1561 C 0.74674 0.51836 0.2339 0.0
C1562 C 0.50116 0.74023 0.22612 0.0
C1563 C 0.47269 0.71955 0.22032 0.0
C1564 C 0.51507 0.74217 0.25547 0.0
C1565 C 0.50072 0.72353 0.27953 0.0
H1566 H 0.51397 0.75318 0.20765 0.0
H1567 H 0.53844 0.75628 0.25886 0.0
S1568 S 0.42214 0.67161 0.27734 0.0
N1569 N 0.42759 0.68461 0.242 0.0
N1570 N 0.4541 0.68796 0.2968 0.0
C1571 C 0.47066 0.70527 0.27449 0.0
C1572 C 0.4565 0.70336 0.2449 0.0
C1573 C 0.29638 0.4616 0.24201 0.0
C1574 C 0.27649 0.47647 0.21894 0.0
C1575 C 0.29499 0.47341 0.27182 0.0
C1576 C 0.27351 0.50045 0.27991 0.0
H1577 H 0.31412 0.44127 0.23685 0.0
H1578 H 0.31207 0.46229 0.28843 0.0
S1579 S 0.21424 0.5465 0.22886 0.0
N1580 N 0.23279 0.5181 0.20664 0.0
N1581 N 0.2303 0.54058 0.26316 0.0
C1582 C 0.25176 0.51417 0.25768 0.0
C1583 C 0.25319 0.50207 0.22704 0.0
C1584 C 0.12087 0.22731 0.97886 0.0
C1585 C 0.09319 0.24075 0.96243 0.0
C1586 C 0.12118 0.22722 0.01062 0.0
C1587 C 0.09385 0.24059 0.02753 0.0
H1588 H 0.14214 0.21562 0.9672 0.0
H1589 H 0.14271 0.2155 0.0219 0.0
S1590 S 0.01708 0.28289 -0.00443 0.0
N1591 N 0.03906 0.27078 0.96553 0.0
N1592 N 0.03962 0.27063 0.02526 0.0
C1593 C 0.06677 0.25581 0.01143 0.0
C1594 C 0.06645 0.25587 0.97895 0.0
C1595 C 0.77141 0.12292 0.01118 0.0
C1596 C 0.75877 0.09502 0.02778 0.0
C1597 C 0.77127 0.12306 0.97944 0.0
C1598 C 0.75848 0.09531 0.96277 0.0
H1599 H 0.78251 0.14461 0.02267 0.0
H1600 H 0.78227 0.14484 0.96799 0.0
S1601 S 0.71874 0.01747 0.99518 0.0
N1602 N 0.73036 0.03997 0.02505 0.0
N1603 N 0.73009 0.04023 0.96537 0.0
C1604 C 0.74414 0.06791 0.97902 0.0
C1605 C 0.74429 0.06776 0.01146 0.0
C1606 C 0.9263 0.74602 0.97923 0.0
C1607 C 0.89827 0.7581 0.96246 0.0
C1608 C 0.92621 0.74622 0.01096 0.0
C1609 C 0.8981 0.75851 0.02746 0.0
H1610 H 0.94906 0.73714 0.96784 0.0
H1611 H 0.94891 0.73746 0.02255 0.0
S1612 S 0.81672 0.78984 0.9946 0.0
N1613 N 0.8404 0.78031 0.96486 0.0
N1614 N 0.84025 0.78069 0.02456 0.0
C1615 C 0.86911 0.76902 0.01107 0.0
C1616 C 0.86919 0.76881 0.97861 0.0
C1617 C 0.25019 0.92559 0.97912 0.0
C1618 C 0.23697 0.89826 0.96215 0.0
C1619 C 0.24957 0.92541 0.01088 0.0
C1620 C 0.23567 0.89791 0.02724 0.0
H1621 H 0.26034 0.9479 0.96785 0.0
H1622 H 0.25932 0.9476 0.0226 0.0
S1623 S 0.20062 0.81838 0.99387 0.0
N1624 N 0.21173 0.84163 0.96428 0.0
N1625 N 0.21058 0.84133 0.02395 0.0
C1626 C 0.22382 0.86962 0.01064 0.0
C1627 C 0.22448 0.86978 0.97818 0.0
C1628 C 0.12049 0.77216 0.511 0.0
C1629 C 0.09313 0.75887 0.52787 0.0
C1630 C 0.12066 0.7711 0.47928 0.0
C1631 C 0.09347 0.7567 0.4629 0.0
H1632 H 0.1417 0.78445 0.52224 0.0
H1633 H 0.14197 0.78267 0.46759 0.0
S1634 S 0.01735 0.71471 0.4962 0.0
N1635 N 0.03931 0.72815 0.5258 0.0
N1636 N 0.03964 0.72614 0.46613 0.0
C1637 C 0.06666 0.74176 0.47947 0.0
C1638 C 0.06648 0.74284 0.5119 0.0
C1639 C 0.24738 0.06637 0.47987 0.0
C1640 C 0.23679 0.09474 0.46269 0.0
C1641 C 0.24752 0.06703 0.51164 0.0
C1642 C 0.2371 0.0961 0.52784 0.0
H1643 H 0.25492 0.04293 0.46881 0.0
H1644 H 0.25507 0.04408 0.52352 0.0
S1645 S 0.21002 0.17851 0.49383 0.0
N1646 N 0.21784 0.15375 0.46439 0.0
N1647 N 0.21813 0.15507 0.52408 0.0
C1648 C 0.22793 0.12529 0.51099 0.0
C1649 C 0.22776 0.12459 0.4785 0.0
C1650 C 0.87424 0.22049 0.51163 0.0
C1651 C 0.89745 0.24054 0.52818 0.0
C1652 C 0.8752 0.21936 0.47979 0.0
C1653 C 0.89944 0.23817 0.4633 0.0
H1654 H 0.85617 0.20432 0.52334 0.0
H1655 H 0.85778 0.20245 0.46814 0.0
S1656 S 0.962 0.29909 0.4955 0.0
N1657 N 0.94258 0.28286 0.52541 0.0
N1658 N 0.94441 0.28064 0.46572 0.0
C1659 C 0.92135 0.25994 0.47947 0.0
C1660 C 0.92033 0.26116 0.51184 0.0
C1661 C 0.75705 0.87452 0.48004 0.0
C1662 C 0.76022 0.9049 0.46331 0.0
C1663 C 0.75646 0.8749 0.51192 0.0
C1664 C 0.75901 0.90567 0.52812 0.0
H1665 H 0.75515 0.85028 0.46845 0.0
H1666 H 0.75418 0.85093 0.52392 0.0
S1667 S 0.77049 0.99204 0.49497 0.0
N1668 N 0.7676 0.96644 0.46544 0.0
N1669 N 0.76647 0.96718 0.52492 0.0
C1670 C 0.76232 0.93621 0.51158 0.0
C1671 C 0.76294 0.93582 0.4793 0.0
C1672 C 0.62194 0.74069 0.47889 0.0
C1673 C 0.59128 0.73918 0.46241 0.0
C1674 C 0.62193 0.74097 0.51076 0.0
C1675 C 0.59126 0.73975 0.52725 0.0
H1676 H 0.64615 0.7413 0.46714 0.0
H1677 H 0.64613 0.74175 0.52251 0.0
S1678 S 0.50401 0.73405 0.49487 0.0
N1679 N 0.52939 0.73565 0.46511 0.0
N1680 N 0.5294 0.7362 0.5246 0.0
C1681 C 0.56041 0.73856 0.51098 0.0
C1682 C 0.56041 0.73826 0.47869 0.0
C1683 C 0.27818 0.62092 0.47911 0.0
C1684 C 0.25945 0.59641 0.46286 0.0
C1685 C 0.27737 0.62201 0.51095 0.0
C1686 C 0.25775 0.59867 0.52778 0.0
H1687 H 0.29473 0.63851 0.46725 0.0
H1688 H 0.29341 0.64036 0.52243 0.0
S1689 S 0.19966 0.53325 0.49585 0.0
N1690 N 0.21759 0.55092 0.46584 0.0
N1691 N 0.21598 0.553 0.52555 0.0
C1692 C 0.23727 0.57543 0.5117 0.0
C1693 C 0.23816 0.57429 0.47932 0.0
C1694 C 0.42729 0.24963 0.51159 0.0
C1695 C 0.3987 0.262 0.52736 0.0
C1696 C 0.42835 0.24929 0.47983 0.0
C1697 C 0.40086 0.26129 0.46223 0.0
H1698 H 0.44959 0.24088 0.52379 0.0
H1699 H 0.4514 0.24017 0.46908 0.0
S1700 S 0.31853 0.29357 0.4922 0.0
N1701 N 0.34105 0.28445 0.52278 0.0
N1702 N 0.34315 0.28389 0.46311 0.0
C1703 C 0.37146 0.2724 0.47763 0.0
C1704 C 0.37036 0.27274 0.5101 0.0
C1705 C 0.74397 0.43263 0.51125 0.0
C1706 C 0.74003 0.40223 0.52779 0.0
C1707 C 0.74477 0.43255 0.47948 0.0
C1708 C 0.74168 0.40207 0.4629 0.0
H1709 H 0.74514 0.45693 0.52281 0.0
H1710 H 0.7465 0.45683 0.46789 0.0
S1711 S 0.73608 0.31498 0.49546 0.0
N1712 N 0.73674 0.3404 0.52529 0.0
N1713 N 0.73826 0.34024 0.46557 0.0
C1714 C 0.73969 0.37127 0.47918 0.0
C1715 C 0.73885 0.37135 0.51159 0.0
C1716 C 0.57246 0.24428 0.01066 0.0
C1717 C 0.59783 0.26157 0.02715 0.0
C1718 C 0.57227 0.24413 0.9789 0.0
C1719 C 0.59748 0.26121 0.96208 0.0
H1720 H 0.55196 0.23127 0.02231 0.0
H1721 H 0.55165 0.23105 0.96748 0.0
S1722 S 0.67105 0.30862 0.99405 0.0
N1723 N 0.65003 0.29485 0.02408 0.0
N1724 N 0.64966 0.29455 0.96435 0.0
C1725 C 0.62391 0.2774 0.97818 0.0
C1726 C 0.62409 0.2776 0.01066 0.0
C1727 C 0.74844 0.5703 0.97887 0.0
C1728 C 0.73607 0.5983 0.96219 0.0
C1729 C 0.74784 0.57002 0.01059 0.0
C1730 C 0.73491 0.59775 0.02719 0.0
H1731 H 0.75789 0.54781 0.9674 0.0
H1732 H 0.75689 0.54738 0.0221 0.0
S1733 S 0.70236 0.67887 0.99464 0.0
N1734 N 0.71271 0.65568 0.9648 0.0
N1735 N 0.71163 0.65522 0.0245 0.0
C1736 C 0.72403 0.62673 0.0109 0.0
C1737 C 0.72462 0.62699 0.97845 0.0
C1738 C 0.37126 0.73235 0.97929 0.0
C1739 C 0.40108 0.73974 0.96285 0.0
C1740 C 0.37117 0.73178 0.01106 0.0
C1741 C 0.40089 0.73859 0.02785 0.0
H1742 H 0.34783 0.72609 0.9676 0.0
H1743 H 0.34767 0.72515 0.02245 0.0
S1744 S 0.48536 0.76177 -0.00411 0.0
N1745 N 0.46086 0.75596 0.96592 0.0
N1746 N 0.46069 0.75487 0.02555 0.0
C1747 C 0.4306 0.7475 0.01176 0.0
C1748 C 0.4307 0.74808 0.97934 0.0
C1749 C 0.26881 0.37457 0.0103 0.0
C1750 C 0.25429 0.40115 0.02745 0.0
C1751 C 0.26888 0.37534 0.9785 0.0
C1752 C 0.25444 0.40272 0.96238 0.0
H1753 H 0.28141 0.35344 0.02142 0.0
H1754 H 0.28155 0.35482 0.96658 0.0
S1755 S 0.20885 0.47648 -0.00376 0.0
N1756 N 0.22194 0.45405 0.0257 0.0
N1757 N 0.22202 0.45546 0.96602 0.0
C1758 C 0.23806 0.42853 0.97917 0.0
C1759 C 0.23798 0.42775 0.01161 0.0
loop_
_geom_bond_atom_site_label_1
_geom_bond_atom_site_label_2
_geom_bond_distance
_geom_bond_site_symmetry_2
_ccdc_geom_bond_type
Sc0 O3 2.025 . S
Sc0 O10 2.105 . S
Sc0 O13 2.105 . S
Sc0 O16 2.105 . S
Sc0 O19 2.105 . S
Sc1 O3 2.025 . S
Sc1 O11 2.105 . S
Sc1 O15 2.105 . S
Sc1 O17 2.105 . S
Sc1 O21 2.105 . S
Sc2 O3 2.025 . S
Sc2 O12 2.105 . S
Sc2 O14 2.105 . S
Sc2 O18 2.105 . S
Sc2 O20 2.105 . S
O3 Sc0 2.025 . S
O3 Sc1 2.025 . S
O3 Sc2 2.025 . S
C4 O10 1.268 . S
C4 O20 1.268 . S
C5 O11 1.268 . S
C5 O19 1.268 . S
C6 O12 1.268 . S
C6 O21 1.268 . S
C7 O13 1.268 . S
C7 O17 1.268 . S
C8 O14 1.268 . S
C8 O16 1.268 . S
C9 O15 1.268 . S
C9 O18 1.268 . S
O10 Sc0 2.105 . S
O10 C4 1.268 . S
O11 Sc1 2.105 . S
O11 C5 1.268 . S
O12 Sc2 2.105 . S
O12 C6 1.268 . S
O13 Sc0 2.105 . S
O13 C7 1.268 . S
O14 Sc2 2.105 . S
O14 C8 1.268 . S
O15 Sc1 2.105 . S
O15 C9 1.268 . S
O16 Sc0 2.105 . S
O16 C8 1.268 . S
O17 Sc1 2.105 . S
O17 C7 1.268 . S
O18 Sc2 2.105 . S
O18 C9 1.268 . S
O19 Sc0 2.105 . S
O19 C5 1.268 . S
O20 Sc2 2.105 . S
O20 C4 1.268 . S
O21 Sc1 2.105 . S
O21 C6 1.268 . S
Sc22 O25 2.025 . S
Sc22 O32 2.105 . S
Sc22 O35 2.105 . S
Sc22 O38 2.105 . S
Sc22 O41 2.105 . S
Sc23 O25 2.025 . S
Sc23 O33 2.105 . S
Sc23 O37 2.105 . S
Sc23 O39 2.105 . S
Sc23 O43 2.105 . S
Sc24 O25 2.025 . S
Sc24 O34 2.105 . S
Sc24 O36 2.105 . S
Sc24 O40 2.105 . S
Sc24 O42 2.105 . S
O25 Sc22 2.025 . S
O25 Sc23 2.025 . S
O25 Sc24 2.025 . S
C26 O32 1.268 . S
C26 O42 1.268 . S
C27 O33 1.268 . S
C27 O41 1.268 . S
C28 O34 1.268 . S
C28 O43 1.268 . S
C29 O35 1.268 . S
C29 O39 1.268 . S
C30 O36 1.268 . S
C30 O38 1.268 . S
C31 O37 1.268 . S
C31 O40 1.268 . S
O32 Sc22 2.105 . S
O32 C26 1.268 . S
O33 Sc23 2.105 . S
O33 C27 1.268 . S
O34 Sc24 2.105 . S
O34 C28 1.268 . S
O35 Sc22 2.105 . S
O35 C29 1.268 . S
O36 Sc24 2.105 . S
O36 C30 1.268 . S
O37 Sc23 2.105 . S
O37 C31 1.268 . S
O38 Sc22 2.105 . S
O38 C30 1.268 . S
O39 Sc23 2.105 . S
O39 C29 1.268 . S
O40 Sc24 2.105 . S
O40 C31 1.268 . S
O41 Sc22 2.105 . S
O41 C27 1.268 . S
O42 Sc24 2.105 . S
O42 C26 1.268 . S
O43 Sc23 2.105 . S
O43 C28 1.268 . S
Sc44 O47 2.025 . S
Sc44 O54 2.105 . S
Sc44 O57 2.105 . S
Sc44 O60 2.105 . S
Sc44 O63 2.105 . S
Sc45 O47 2.025 . S
Sc45 O55 2.105 . S
Sc45 O59 2.105 . S
Sc45 O61 2.105 . S
Sc45 O65 2.105 . S
Sc46 O47 2.025 . S
Sc46 O56 2.105 . S
Sc46 O58 2.105 . S
Sc46 O62 2.105 . S
Sc46 O64 2.105 . S
O47 Sc44 2.025 . S
O47 Sc45 2.025 . S
O47 Sc46 2.025 . S
C48 O54 1.268 . S
C48 O64 1.268 . S
C49 O55 1.268 . S
C49 O63 1.268 . S
C50 O56 1.268 . S
C50 O65 1.268 . S
C51 O57 1.268 . S
C51 O61 1.268 . S
C52 O58 1.268 . S
C52 O60 1.268 . S
C53 O59 1.268 . S
C53 O62 1.268 . S
O54 Sc44 2.105 . S
O54 C48 1.268 . S
O55 Sc45 2.105 . S
O55 C49 1.268 . S
O56 Sc46 2.105 . S
O56 C50 1.268 . S
O57 Sc44 2.105 . S
O57 C51 1.268 . S
O58 Sc46 2.105 . S
O58 C52 1.268 . S
O59 Sc45 2.105 . S
O59 C53 1.268 . S
O60 Sc44 2.105 . S
O60 C52 1.268 . S
O61 Sc45 2.105 . S
O61 C51 1.268 . S
O62 Sc46 2.105 . S
O62 C53 1.268 . S
O63 Sc44 2.105 . S
O63 C49 1.268 . S
O64 Sc46 2.105 . S
O64 C48 1.268 . S
O65 Sc45 2.105 . S
O65 C50 1.268 . S
Sc66 O69 2.025 . S
Sc66 O76 2.105 . S
Sc66 O79 2.105 . S
Sc66 O82 2.105 . S
Sc66 O85 2.105 . S
Sc67 O69 2.025 . S
Sc67 O77 2.105 . S
Sc67 O81 2.105 . S
Sc67 O83 2.105 . S
Sc67 O87 2.105 . S
Sc68 O69 2.025 . S
Sc68 O78 2.105 . S
Sc68 O80 2.105 . S
Sc68 O84 2.105 . S
Sc68 O86 2.105 . S
O69 Sc66 2.025 . S
O69 Sc67 2.025 . S
O69 Sc68 2.025 . S
C70 O76 1.268 . S
C70 O86 1.268 . S
C71 O77 1.268 . S
C71 O85 1.268 . S
C72 O78 1.268 . S
C72 O87 1.268 . S
C73 O79 1.268 . S
C73 O83 1.268 . S
C74 O80 1.268 . S
C74 O82 1.268 . S
C75 O81 1.268 . S
C75 O84 1.268 . S
O76 Sc66 2.105 . S
O76 C70 1.268 . S
O77 Sc67 2.105 . S
O77 C71 1.268 . S
O78 Sc68 2.105 . S
O78 C72 1.268 . S
O79 Sc66 2.105 . S
O79 C73 1.268 . S
O80 Sc68 2.105 . S
O80 C74 1.268 . S
O81 Sc67 2.105 . S
O81 C75 1.268 . S
O82 Sc66 2.105 . S
O82 C74 1.268 . S
O83 Sc67 2.105 . S
O83 C73 1.268 . S
O84 Sc68 2.105 . S
O84 C75 1.268 . S
O85 Sc66 2.105 . S
O85 C71 1.268 . S
O86 Sc68 2.105 . S
O86 C70 1.268 . S
O87 Sc67 2.105 . S
O87 C72 1.268 . S
Sc88 O91 2.025 . S
Sc88 O98 2.105 . S
Sc88 O101 2.105 . S
Sc88 O104 2.105 . S
Sc88 O107 2.105 . S
Sc89 O91 2.025 . S
Sc89 O99 2.105 . S
Sc89 O103 2.105 . S
Sc89 O105 2.105 . S
Sc89 O109 2.105 . S
Sc90 O91 2.025 . S
Sc90 O100 2.105 . S
Sc90 O102 2.105 . S
Sc90 O106 2.105 . S
Sc90 O108 2.105 . S
O91 Sc88 2.025 . S
O91 Sc89 2.025 . S
O91 Sc90 2.025 . S
C92 O98 1.268 . S
C92 O108 1.268 . S
C93 O99 1.268 . S
C93 O107 1.268 . S
C94 O100 1.268 . S
C94 O109 1.268 . S
C95 O101 1.268 . S
C95 O105 1.268 . S
C96 O102 1.268 . S
C96 O104 1.268 . S
C97 O103 1.268 . S
C97 O106 1.268 . S
O98 Sc88 2.105 . S
O98 C92 1.268 . S
O99 Sc89 2.105 . S
O99 C93 1.268 . S
O100 Sc90 2.105 . S
O100 C94 1.268 . S
O101 Sc88 2.105 . S
O101 C95 1.268 . S
O102 Sc90 2.105 . S
O102 C96 1.268 . S
O103 Sc89 2.105 . S
O103 C97 1.268 . S
O104 Sc88 2.105 . S
O104 C96 1.268 . S
O105 Sc89 2.105 . S
O105 C95 1.268 . S
O106 Sc90 2.105 . S
O106 C97 1.268 . S
O107 Sc88 2.105 . S
O107 C93 1.268 . S
O108 Sc90 2.105 . S
O108 C92 1.268 . S
O109 Sc89 2.105 . S
O109 C94 1.268 . S
Sc110 O113 2.025 . S
Sc110 O120 2.105 . S
Sc110 O123 2.105 . S
Sc110 O126 2.105 . S
Sc110 O129 2.105 . S
Sc111 O113 2.025 . S
Sc111 O121 2.105 . S
Sc111 O125 2.105 . S
Sc111 O127 2.105 . S
Sc111 O131 2.105 . S
Sc112 O113 2.025 . S
Sc112 O122 2.105 . S
Sc112 O124 2.105 . S
Sc112 O128 2.105 . S
Sc112 O130 2.105 . S
O113 Sc110 2.025 . S
O113 Sc111 2.025 . S
O113 Sc112 2.025 . S
C114 O120 1.268 . S
C114 O130 1.268 . S
C115 O121 1.268 . S
C115 O129 1.268 . S
C116 O122 1.268 . S
C116 O131 1.268 . S
C117 O123 1.268 . S
C117 O127 1.268 . S
C118 O124 1.268 . S
C118 O126 1.268 . S
C119 O125 1.268 . S
C119 O128 1.268 . S
O120 Sc110 2.105 . S
O120 C114 1.268 . S
O121 Sc111 2.105 . S
O121 C115 1.268 . S
O122 Sc112 2.105 . S
O122 C116 1.268 . S
O123 Sc110 2.105 . S
O123 C117 1.268 . S
O124 Sc112 2.105 . S
O124 C118 1.268 . S
O125 Sc111 2.105 . S
O125 C119 1.268 . S
O126 Sc110 2.105 . S
O126 C118 1.268 . S
O127 Sc111 2.105 . S
O127 C117 1.268 . S
O128 Sc112 2.105 . S
O128 C119 1.268 . S
O129 Sc110 2.105 . S
O129 C115 1.268 . S
O130 Sc112 2.105 . S
O130 C114 1.268 . S
O131 Sc111 2.105 . S
O131 C116 1.268 . S
Sc132 O135 2.025 . S
Sc132 O142 2.105 . S
Sc132 O145 2.105 . S
Sc132 O148 2.105 . S
Sc132 O151 2.105 . S
Sc133 O135 2.025 . S
Sc133 O143 2.105 . S
Sc133 O147 2.105 . S
Sc133 O149 2.105 . S
Sc133 O153 2.105 . S
Sc134 O135 2.025 . S
Sc134 O144 2.105 . S
Sc134 O146 2.105 . S
Sc134 O150 2.105 . S
Sc134 O152 2.105 . S
O135 Sc132 2.025 . S
O135 Sc133 2.025 . S
O135 Sc134 2.025 . S
C136 O142 1.268 . S
C136 O152 1.268 . S
C137 O143 1.268 . S
C137 O151 1.268 . S
C138 O144 1.268 . S
C138 O153 1.268 . S
C139 O145 1.268 . S
C139 O149 1.268 . S
C140 O146 1.268 . S
C140 O148 1.268 . S
C141 O147 1.268 . S
C141 O150 1.268 . S
O142 Sc132 2.105 . S
O142 C136 1.268 . S
O143 Sc133 2.105 . S
O143 C137 1.268 . S
O144 Sc134 2.105 . S
O144 C138 1.268 . S
O145 Sc132 2.105 . S
O145 C139 1.268 . S
O146 Sc134 2.105 . S
O146 C140 1.268 . S
O147 Sc133 2.105 . S
O147 C141 1.268 . S
O148 Sc132 2.105 . S
O148 C140 1.268 . S
O149 Sc133 2.105 . S
O149 C139 1.268 . S
O150 Sc134 2.105 . S
O150 C141 1.268 . S
O151 Sc132 2.105 . S
O151 C137 1.268 . S
O152 Sc134 2.105 . S
O152 C136 1.268 . S
O153 Sc133 2.105 . S
O153 C138 1.268 . S
Sc154 O157 2.025 . S
Sc154 O164 2.105 . S
Sc154 O167 2.105 . S
Sc154 O170 2.105 . S
Sc154 O173 2.105 . S
Sc155 O157 2.025 . S
Sc155 O165 2.105 . S
Sc155 O169 2.105 . S
Sc155 O171 2.105 . S
Sc155 O175 2.105 . S
Sc156 O157 2.025 . S
Sc156 O166 2.105 . S
Sc156 O168 2.105 . S
Sc156 O172 2.105 . S
Sc156 O174 2.105 . S
O157 Sc154 2.025 . S
O157 Sc155 2.025 . S
O157 Sc156 2.025 . S
C158 O164 1.268 . S
C158 O174 1.268 . S
C159 O165 1.268 . S
C159 O173 1.268 . S
C160 O166 1.268 . S
C160 O175 1.268 . S
C161 O167 1.268 . S
C161 O171 1.268 . S
C162 O168 1.268 . S
C162 O170 1.268 . S
C163 O169 1.268 . S
C163 O172 1.268 . S
O164 Sc154 2.105 . S
O164 C158 1.268 . S
O165 Sc155 2.105 . S
O165 C159 1.268 . S
O166 Sc156 2.105 . S
O166 C160 1.268 . S
O167 Sc154 2.105 . S
O167 C161 1.268 . S
O168 Sc156 2.105 . S
O168 C162 1.268 . S
O169 Sc155 2.105 . S
O169 C163 1.268 . S
O170 Sc154 2.105 . S
O170 C162 1.268 . S
O171 Sc155 2.105 . S
O171 C161 1.268 . S
O172 Sc156 2.105 . S
O172 C163 1.268 . S
O173 Sc154 2.105 . S
O173 C159 1.268 . S
O174 Sc156 2.105 . S
O174 C158 1.268 . S
O175 Sc155 2.105 . S
O175 C160 1.268 . S
Sc176 O179 2.025 . S
Sc176 O186 2.105 . S
Sc176 O189 2.105 . S
Sc176 O192 2.105 . S
Sc176 O195 2.105 . S
Sc177 O179 2.025 . S
Sc177 O187 2.105 . S
Sc177 O191 2.105 . S
Sc177 O193 2.105 . S
Sc177 O197 2.105 . S
Sc178 O179 2.025 . S
Sc178 O188 2.105 . S
Sc178 O190 2.105 . S
Sc178 O194 2.105 . S
Sc178 O196 2.105 . S
O179 Sc176 2.025 . S
O179 Sc177 2.025 . S
O179 Sc178 2.025 . S
C180 O186 1.268 . S
C180 O196 1.268 . S
C181 O187 1.268 . S
C181 O195 1.268 . S
C182 O188 1.268 . S
C182 O197 1.268 . S
C183 O189 1.268 . S
C183 O193 1.268 . S
C184 O190 1.268 . S
C184 O192 1.268 . S
C185 O191 1.268 . S
C185 O194 1.268 . S
O186 Sc176 2.105 . S
O186 C180 1.268 . S
O187 Sc177 2.105 . S
O187 C181 1.268 . S
O188 Sc178 2.105 . S
O188 C182 1.268 . S
O189 Sc176 2.105 . S
O189 C183 1.268 . S
O190 Sc178 2.105 . S
O190 C184 1.268 . S
O191 Sc177 2.105 . S
O191 C185 1.268 . S
O192 Sc176 2.105 . S
O192 C184 1.268 . S
O193 Sc177 2.105 . S
O193 C183 1.268 . S
O194 Sc178 2.105 . S
O194 C185 1.268 . S
O195 Sc176 2.105 . S
O195 C181 1.268 . S
O196 Sc178 2.105 . S
O196 C180 1.268 . S
O197 Sc177 2.105 . S
O197 C182 1.268 . S
Sc198 O201 2.025 . S
Sc198 O208 2.105 . S
Sc198 O211 2.105 . S
Sc198 O214 2.105 . S
Sc198 O217 2.105 . S
Sc199 O201 2.025 . S
Sc199 O209 2.105 . S
Sc199 O213 2.105 . S
Sc199 O215 2.105 . S
Sc199 O219 2.105 . S
Sc200 O201 2.025 . S
Sc200 O210 2.105 . S
Sc200 O212 2.105 . S
Sc200 O216 2.105 . S
Sc200 O218 2.105 . S
O201 Sc198 2.025 . S
O201 Sc199 2.025 . S
O201 Sc200 2.025 . S
C202 O208 1.268 . S
C202 O218 1.268 . S
C203 O209 1.268 . S
C203 O217 1.268 . S
C204 O210 1.268 . S
C204 O219 1.268 . S
C205 O211 1.268 . S
C205 O215 1.268 . S
C206 O212 1.268 . S
C206 O214 1.268 . S
C207 O213 1.268 . S
C207 O216 1.268 . S
O208 Sc198 2.105 . S
O208 C202 1.268 . S
O209 Sc199 2.105 . S
O209 C203 1.268 . S
O210 Sc200 2.105 . S
O210 C204 1.268 . S
O211 Sc198 2.105 . S
O211 C205 1.268 . S
O212 Sc200 2.105 . S
O212 C206 1.268 . S
O213 Sc199 2.105 . S
O213 C207 1.268 . S
O214 Sc198 2.105 . S
O214 C206 1.268 . S
O215 Sc199 2.105 . S
O215 C205 1.268 . S
O216 Sc200 2.105 . S
O216 C207 1.268 . S
O217 Sc198 2.105 . S
O217 C203 1.268 . S
O218 Sc200 2.105 . S
O218 C202 1.268 . S
O219 Sc199 2.105 . S
O219 C204 1.268 . S
Sc220 O223 2.025 . S
Sc220 O230 2.105 . S
Sc220 O233 2.105 . S
Sc220 O236 2.105 . S
Sc220 O239 2.105 . S
Sc221 O223 2.025 . S
Sc221 O231 2.105 . S
Sc221 O235 2.105 . S
Sc221 O237 2.105 . S
Sc221 O241 2.105 . S
Sc222 O223 2.025 . S
Sc222 O232 2.105 . S
Sc222 O234 2.105 . S
Sc222 O238 2.105 . S
Sc222 O240 2.105 . S
O223 Sc220 2.025 . S
O223 Sc221 2.025 . S
O223 Sc222 2.025 . S
C224 O230 1.268 . S
C224 O240 1.268 . S
C225 O231 1.268 . S
C225 O239 1.268 . S
C226 O232 1.268 . S
C226 O241 1.268 . S
C227 O233 1.268 . S
C227 O237 1.268 . S
C228 O234 1.268 . S
C228 O236 1.268 . S
C229 O235 1.268 . S
C229 O238 1.268 . S
O230 Sc220 2.105 . S
O230 C224 1.268 . S
O231 Sc221 2.105 . S
O231 C225 1.268 . S
O232 Sc222 2.105 . S
O232 C226 1.268 . S
O233 Sc220 2.105 . S
O233 C227 1.268 . S
O234 Sc222 2.105 . S
O234 C228 1.268 . S
O235 Sc221 2.105 . S
O235 C229 1.268 . S
O236 Sc220 2.105 . S
O236 C228 1.268 . S
O237 Sc221 2.105 . S
O237 C227 1.268 . S
O238 Sc222 2.105 . S
O238 C229 1.268 . S
O239 Sc220 2.105 . S
O239 C225 1.268 . S
O240 Sc222 2.105 . S
O240 C224 1.268 . S
O241 Sc221 2.105 . S
O241 C226 1.268 . S
Sc242 O245 2.025 . S
Sc242 O252 2.105 . S
Sc242 O255 2.105 . S
Sc242 O258 2.105 . S
Sc242 O261 2.105 . S
Sc243 O245 2.025 . S
Sc243 O253 2.105 . S
Sc243 O257 2.105 . S
Sc243 O259 2.105 . S
Sc243 O263 2.105 . S
Sc244 O245 2.025 . S
Sc244 O254 2.105 . S
Sc244 O256 2.105 . S
Sc244 O260 2.105 . S
Sc244 O262 2.105 . S
O245 Sc242 2.025 . S
O245 Sc243 2.025 . S
O245 Sc244 2.025 . S
C246 O252 1.268 . S
C246 O262 1.268 . S
C247 O253 1.268 . S
C247 O261 1.268 . S
C248 O254 1.268 . S
C248 O263 1.268 . S
C249 O255 1.268 . S
C249 O259 1.268 . S
C250 O256 1.268 . S
C250 O258 1.268 . S
C251 O257 1.268 . S
C251 O260 1.268 . S
O252 Sc242 2.105 . S
O252 C246 1.268 . S
O253 Sc243 2.105 . S
O253 C247 1.268 . S
O254 Sc244 2.105 . S
O254 C248 1.268 . S
O255 Sc242 2.105 . S
O255 C249 1.268 . S
O256 Sc244 2.105 . S
O256 C250 1.268 . S
O257 Sc243 2.105 . S
O257 C251 1.268 . S
O258 Sc242 2.105 . S
O258 C250 1.268 . S
O259 Sc243 2.105 . S
O259 C249 1.268 . S
O260 Sc244 2.105 . S
O260 C251 1.268 . S
O261 Sc242 2.105 . S
O261 C247 1.268 . S
O262 Sc244 2.105 . S
O262 C246 1.268 . S
O263 Sc243 2.105 . S
O263 C248 1.268 . S
Sc264 O267 2.025 . S
Sc264 O274 2.105 . S
Sc264 O277 2.105 . S
Sc264 O280 2.105 . S
Sc264 O283 2.105 . S
Sc265 O267 2.025 . S
Sc265 O275 2.105 . S
Sc265 O279 2.105 . S
Sc265 O281 2.105 . S
Sc265 O285 2.105 . S
Sc266 O267 2.025 . S
Sc266 O276 2.105 . S
Sc266 O278 2.105 . S
Sc266 O282 2.105 . S
Sc266 O284 2.105 . S
O267 Sc264 2.025 . S
O267 Sc265 2.025 . S
O267 Sc266 2.025 . S
C268 O274 1.268 . S
C268 O284 1.268 . S
C269 O275 1.268 . S
C269 O283 1.268 . S
C270 O276 1.268 . S
C270 O285 1.268 . S
C271 O277 1.268 . S
C271 O281 1.268 . S
C272 O278 1.268 . S
C272 O280 1.268 . S
C273 O279 1.268 . S
C273 O282 1.268 . S
O274 Sc264 2.105 . S
O274 C268 1.268 . S
O275 Sc265 2.105 . S
O275 C269 1.268 . S
O276 Sc266 2.105 . S
O276 C270 1.268 . S
O277 Sc264 2.105 . S
O277 C271 1.268 . S
O278 Sc266 2.105 . S
O278 C272 1.268 . S
O279 Sc265 2.105 . S
O279 C273 1.268 . S
O280 Sc264 2.105 . S
O280 C272 1.268 . S
O281 Sc265 2.105 . S
O281 C271 1.268 . S
O282 Sc266 2.105 . S
O282 C273 1.268 . S
O283 Sc264 2.105 . S
O283 C269 1.268 . S
O284 Sc266 2.105 . S
O284 C268 1.268 . S
O285 Sc265 2.105 . S
O285 C270 1.268 . S
Sc286 O289 2.025 . S
Sc286 O296 2.105 . S
Sc286 O299 2.105 . S
Sc286 O302 2.105 . S
Sc286 O305 2.105 . S
Sc287 O289 2.025 . S
Sc287 O297 2.105 . S
Sc287 O301 2.105 . S
Sc287 O303 2.105 . S
Sc287 O307 2.105 . S
Sc288 O289 2.025 . S
Sc288 O298 2.105 . S
Sc288 O300 2.105 . S
Sc288 O304 2.105 . S
Sc288 O306 2.105 . S
O289 Sc286 2.025 . S
O289 Sc287 2.025 . S
O289 Sc288 2.025 . S
C290 O296 1.268 . S
C290 O306 1.268 . S
C291 O297 1.268 . S
C291 O305 1.268 . S
C292 O298 1.268 . S
C292 O307 1.268 . S
C293 O299 1.268 . S
C293 O303 1.268 . S
C294 O300 1.268 . S
C294 O302 1.268 . S
C295 O301 1.268 . S
C295 O304 1.268 . S
O296 Sc286 2.105 . S
O296 C290 1.268 . S
O297 Sc287 2.105 . S
O297 C291 1.268 . S
O298 Sc288 2.105 . S
O298 C292 1.268 . S
O299 Sc286 2.105 . S
O299 C293 1.268 . S
O300 Sc288 2.105 . S
O300 C294 1.268 . S
O301 Sc287 2.105 . S
O301 C295 1.268 . S
O302 Sc286 2.105 . S
O302 C294 1.268 . S
O303 Sc287 2.105 . S
O303 C293 1.268 . S
O304 Sc288 2.105 . S
O304 C295 1.268 . S
O305 Sc286 2.105 . S
O305 C291 1.268 . S
O306 Sc288 2.105 . S
O306 C290 1.268 . S
O307 Sc287 2.105 . S
O307 C292 1.268 . S
Sc308 O311 2.025 . S
Sc308 O318 2.105 . S
Sc308 O321 2.105 . S
Sc308 O324 2.105 . S
Sc308 O327 2.105 . S
Sc309 O311 2.025 . S
Sc309 O319 2.105 . S
Sc309 O323 2.105 . S
Sc309 O325 2.105 . S
Sc309 O329 2.105 . S
Sc310 O311 2.025 . S
Sc310 O320 2.105 . S
Sc310 O322 2.105 . S
Sc310 O326 2.105 . S
Sc310 O328 2.105 . S
O311 Sc308 2.025 . S
O311 Sc309 2.025 . S
O311 Sc310 2.025 . S
C312 O318 1.268 . S
C312 O328 1.268 . S
C313 O319 1.268 . S
C313 O327 1.268 . S
C314 O320 1.268 . S
C314 O329 1.268 . S
C315 O321 1.268 . S
C315 O325 1.268 . S
C316 O322 1.268 . S
C316 O324 1.268 . S
C317 O323 1.268 . S
C317 O326 1.268 . S
O318 Sc308 2.105 . S
O318 C312 1.268 . S
O319 Sc309 2.105 . S
O319 C313 1.268 . S
O320 Sc310 2.105 . S
O320 C314 1.268 . S
O321 Sc308 2.105 . S
O321 C315 1.268 . S
O322 Sc310 2.105 . S
O322 C316 1.268 . S
O323 Sc309 2.105 . S
O323 C317 1.268 . S
O324 Sc308 2.105 . S
O324 C316 1.268 . S
O325 Sc309 2.105 . S
O325 C315 1.268 . S
O326 Sc310 2.105 . S
O326 C317 1.268 . S
O327 Sc308 2.105 . S
O327 C313 1.268 . S
O328 Sc310 2.105 . S
O328 C312 1.268 . S
O329 Sc309 2.105 . S
O329 C314 1.268 . S
Sc330 O333 2.025 . S
Sc330 O340 2.105 . S
Sc330 O343 2.105 . S
Sc330 O346 2.105 . S
Sc330 O349 2.105 . S
Sc331 O333 2.025 . S
Sc331 O341 2.105 . S
Sc331 O345 2.105 . S
Sc331 O347 2.105 . S
Sc331 O351 2.105 . S
Sc332 O333 2.025 . S
Sc332 O342 2.105 . S
Sc332 O344 2.105 . S
Sc332 O348 2.105 . S
Sc332 O350 2.105 . S
O333 Sc330 2.025 . S
O333 Sc331 2.025 . S
O333 Sc332 2.025 . S
C334 O340 1.268 . S
C334 O350 1.268 . S
C335 O341 1.268 . S
C335 O349 1.268 . S
C336 O342 1.268 . S
C336 O351 1.268 . S
C337 O343 1.268 . S
C337 O347 1.268 . S
C338 O344 1.268 . S
C338 O346 1.268 . S
C339 O345 1.268 . S
C339 O348 1.268 . S
O340 Sc330 2.105 . S
O340 C334 1.268 . S
O341 Sc331 2.105 . S
O341 C335 1.268 . S
O342 Sc332 2.105 . S
O342 C336 1.268 . S
O343 Sc330 2.105 . S
O343 C337 1.268 . S
O344 Sc332 2.105 . S
O344 C338 1.268 . S
O345 Sc331 2.105 . S
O345 C339 1.268 . S
O346 Sc330 2.105 . S
O346 C338 1.268 . S
O347 Sc331 2.105 . S
O347 C337 1.268 . S
O348 Sc332 2.105 . S
O348 C339 1.268 . S
O349 Sc330 2.105 . S
O349 C335 1.268 . S
O350 Sc332 2.105 . S
O350 C334 1.268 . S
O351 Sc331 2.105 . S
O351 C336 1.268 . S
Sc352 O355 2.025 . S
Sc352 O362 2.105 . S
Sc352 O365 2.105 . S
Sc352 O368 2.105 . S
Sc352 O371 2.105 . S
Sc353 O355 2.025 . S
Sc353 O363 2.105 . S
Sc353 O367 2.105 . S
Sc353 O369 2.105 . S
Sc353 O373 2.105 . S
Sc354 O355 2.025 . S
Sc354 O364 2.105 . S
Sc354 O366 2.105 . S
Sc354 O370 2.105 . S
Sc354 O372 2.105 . S
O355 Sc352 2.025 . S
O355 Sc353 2.025 . S
O355 Sc354 2.025 . S
C356 O362 1.268 . S
C356 O372 1.268 . S
C357 O363 1.268 . S
C357 O371 1.268 . S
C358 O364 1.268 . S
C358 O373 1.268 . S
C359 O365 1.268 . S
C359 O369 1.268 . S
C360 O366 1.268 . S
C360 O368 1.268 . S
C361 O367 1.268 . S
C361 O370 1.268 . S
O362 Sc352 2.105 . S
O362 C356 1.268 . S
O363 Sc353 2.105 . S
O363 C357 1.268 . S
O364 Sc354 2.105 . S
O364 C358 1.268 . S
O365 Sc352 2.105 . S
O365 C359 1.268 . S
O366 Sc354 2.105 . S
O366 C360 1.268 . S
O367 Sc353 2.105 . S
O367 C361 1.268 . S
O368 Sc352 2.105 . S
O368 C360 1.268 . S
O369 Sc353 2.105 . S
O369 C359 1.268 . S
O370 Sc354 2.105 . S
O370 C361 1.268 . S
O371 Sc352 2.105 . S
O371 C357 1.268 . S
O372 Sc354 2.105 . S
O372 C356 1.268 . S
O373 Sc353 2.105 . S
O373 C358 1.268 . S
Sc374 O377 2.025 . S
Sc374 O384 2.105 . S
Sc374 O387 2.105 . S
Sc374 O390 2.105 . S
Sc374 O393 2.105 . S
Sc375 O377 2.025 . S
Sc375 O385 2.105 . S
Sc375 O389 2.105 . S
Sc375 O391 2.105 . S
Sc375 O395 2.105 . S
Sc376 O377 2.025 . S
Sc376 O386 2.105 . S
Sc376 O388 2.105 . S
Sc376 O392 2.105 . S
Sc376 O394 2.105 . S
O377 Sc374 2.025 . S
O377 Sc375 2.025 . S
O377 Sc376 2.025 . S
C378 O384 1.268 . S
C378 O394 1.268 . S
C379 O385 1.268 . S
C379 O393 1.268 . S
C380 O386 1.268 . S
C380 O395 1.268 . S
C381 O387 1.268 . S
C381 O391 1.268 . S
C382 O388 1.268 . S
C382 O390 1.268 . S
C383 O389 1.268 . S
C383 O392 1.268 . S
O384 Sc374 2.105 . S
O384 C378 1.268 . S
O385 Sc375 2.105 . S
O385 C379 1.268 . S
O386 Sc376 2.105 . S
O386 C380 1.268 . S
O387 Sc374 2.105 . S
O387 C381 1.268 . S
O388 Sc376 2.105 . S
O388 C382 1.268 . S
O389 Sc375 2.105 . S
O389 C383 1.268 . S
O390 Sc374 2.105 . S
O390 C382 1.268 . S
O391 Sc375 2.105 . S
O391 C381 1.268 . S
O392 Sc376 2.105 . S
O392 C383 1.268 . S
O393 Sc374 2.105 . S
O393 C379 1.268 . S
O394 Sc376 2.105 . S
O394 C378 1.268 . S
O395 Sc375 2.105 . S
O395 C380 1.268 . S
Sc396 O399 2.025 . S
Sc396 O406 2.105 . S
Sc396 O409 2.105 . S
Sc396 O412 2.105 . S
Sc396 O415 2.105 . S
Sc397 O399 2.025 . S
Sc397 O407 2.105 . S
Sc397 O411 2.105 . S
Sc397 O413 2.105 . S
Sc397 O417 2.105 . S
Sc398 O399 2.025 . S
Sc398 O408 2.105 . S
Sc398 O410 2.105 . S
Sc398 O414 2.105 . S
Sc398 O416 2.105 . S
O399 Sc396 2.025 . S
O399 Sc397 2.025 . S
O399 Sc398 2.025 . S
C400 O406 1.268 . S
C400 O416 1.268 . S
C401 O407 1.268 . S
C401 O415 1.268 . S
C402 O408 1.268 . S
C402 O417 1.268 . S
C403 O409 1.268 . S
C403 O413 1.268 . S
C404 O410 1.268 . S
C404 O412 1.268 . S
C405 O411 1.268 . S
C405 O414 1.268 . S
O406 Sc396 2.105 . S
O406 C400 1.268 . S
O407 Sc397 2.105 . S
O407 C401 1.268 . S
O408 Sc398 2.105 . S
O408 C402 1.268 . S
O409 Sc396 2.105 . S
O409 C403 1.268 . S
O410 Sc398 2.105 . S
O410 C404 1.268 . S
O411 Sc397 2.105 . S
O411 C405 1.268 . S
O412 Sc396 2.105 . S
O412 C404 1.268 . S
O413 Sc397 2.105 . S
O413 C403 1.268 . S
O414 Sc398 2.105 . S
O414 C405 1.268 . S
O415 Sc396 2.105 . S
O415 C401 1.268 . S
O416 Sc398 2.105 . S
O416 C400 1.268 . S
O417 Sc397 2.105 . S
O417 C402 1.268 . S
Sc418 O421 2.025 . S
Sc418 O428 2.105 . S
Sc418 O431 2.105 . S
Sc418 O434 2.105 . S
Sc418 O437 2.105 . S
Sc419 O421 2.025 . S
Sc419 O429 2.105 . S
Sc419 O433 2.105 . S
Sc419 O435 2.105 . S
Sc419 O439 2.105 . S
Sc420 O421 2.025 . S
Sc420 O430 2.105 . S
Sc420 O432 2.105 . S
Sc420 O436 2.105 . S
Sc420 O438 2.105 . S
O421 Sc418 2.025 . S
O421 Sc419 2.025 . S
O421 Sc420 2.025 . S
C422 O428 1.268 . S
C422 O438 1.268 . S
C423 O429 1.268 . S
C423 O437 1.268 . S
C424 O430 1.268 . S
C424 O439 1.268 . S
C425 O431 1.268 . S
C425 O435 1.268 . S
C426 O432 1.268 . S
C426 O434 1.268 . S
C427 O433 1.268 . S
C427 O436 1.268 . S
O428 Sc418 2.105 . S
O428 C422 1.268 . S
O429 Sc419 2.105 . S
O429 C423 1.268 . S
O430 Sc420 2.105 . S
O430 C424 1.268 . S
O431 Sc418 2.105 . S
O431 C425 1.268 . S
O432 Sc420 2.105 . S
O432 C426 1.268 . S
O433 Sc419 2.105 . S
O433 C427 1.268 . S
O434 Sc418 2.105 . S
O434 C426 1.268 . S
O435 Sc419 2.105 . S
O435 C425 1.268 . S
O436 Sc420 2.105 . S
O436 C427 1.268 . S
O437 Sc418 2.105 . S
O437 C423 1.268 . S
O438 Sc420 2.105 . S
O438 C422 1.268 . S
O439 Sc419 2.105 . S
O439 C424 1.268 . S
Sc440 O443 2.025 . S
Sc440 O450 2.105 . S
Sc440 O453 2.105 . S
Sc440 O456 2.105 . S
Sc440 O459 2.105 . S
Sc441 O443 2.025 . S
Sc441 O451 2.105 . S
Sc441 O455 2.105 . S
Sc441 O457 2.105 . S
Sc441 O461 2.105 . S
Sc442 O443 2.025 . S
Sc442 O452 2.105 . S
Sc442 O454 2.105 . S
Sc442 O458 2.105 . S
Sc442 O460 2.105 . S
O443 Sc440 2.025 . S
O443 Sc441 2.025 . S
O443 Sc442 2.025 . S
C444 O450 1.268 . S
C444 O460 1.268 . S
C445 O451 1.268 . S
C445 O459 1.268 . S
C446 O452 1.268 . S
C446 O461 1.268 . S
C447 O453 1.268 . S
C447 O457 1.268 . S
C448 O454 1.268 . S
C448 O456 1.268 . S
C449 O455 1.268 . S
C449 O458 1.268 . S
O450 Sc440 2.105 . S
O450 C444 1.268 . S
O451 Sc441 2.105 . S
O451 C445 1.268 . S
O452 Sc442 2.105 . S
O452 C446 1.268 . S
O453 Sc440 2.105 . S
O453 C447 1.268 . S
O454 Sc442 2.105 . S
O454 C448 1.268 . S
O455 Sc441 2.105 . S
O455 C449 1.268 . S
O456 Sc440 2.105 . S
O456 C448 1.268 . S
O457 Sc441 2.105 . S
O457 C447 1.268 . S
O458 Sc442 2.105 . S
O458 C449 1.268 . S
O459 Sc440 2.105 . S
O459 C445 1.268 . S
O460 Sc442 2.105 . S
O460 C444 1.268 . S
O461 Sc441 2.105 . S
O461 C446 1.268 . S
Sc462 O465 2.025 . S
Sc462 O472 2.105 . S
Sc462 O475 2.105 . S
Sc462 O478 2.105 . S
Sc462 O481 2.105 . S
Sc463 O465 2.025 . S
Sc463 O473 2.105 . S
Sc463 O477 2.105 . S
Sc463 O479 2.105 . S
Sc463 O483 2.105 . S
Sc464 O465 2.025 . S
Sc464 O474 2.105 . S
Sc464 O476 2.105 . S
Sc464 O480 2.105 . S
Sc464 O482 2.105 . S
O465 Sc462 2.025 . S
O465 Sc463 2.025 . S
O465 Sc464 2.025 . S
C466 O472 1.268 . S
C466 O482 1.268 . S
C467 O473 1.268 . S
C467 O481 1.268 . S
C468 O474 1.268 . S
C468 O483 1.268 . S
C469 O475 1.268 . S
C469 O479 1.268 . S
C470 O476 1.268 . S
C470 O478 1.268 . S
C471 O477 1.268 . S
C471 O480 1.268 . S
O472 Sc462 2.105 . S
O472 C466 1.268 . S
O473 Sc463 2.105 . S
O473 C467 1.268 . S
O474 Sc464 2.105 . S
O474 C468 1.268 . S
O475 Sc462 2.105 . S
O475 C469 1.268 . S
O476 Sc464 2.105 . S
O476 C470 1.268 . S
O477 Sc463 2.105 . S
O477 C471 1.268 . S
O478 Sc462 2.105 . S
O478 C470 1.268 . S
O479 Sc463 2.105 . S
O479 C469 1.268 . S
O480 Sc464 2.105 . S
O480 C471 1.268 . S
O481 Sc462 2.105 . S
O481 C467 1.268 . S
O482 Sc464 2.105 . S
O482 C466 1.268 . S
O483 Sc463 2.105 . S
O483 C468 1.268 . S
Sc484 O487 2.025 . S
Sc484 O494 2.105 . S
Sc484 O497 2.105 . S
Sc484 O500 2.105 . S
Sc484 O503 2.105 . S
Sc485 O487 2.025 . S
Sc485 O495 2.105 . S
Sc485 O499 2.105 . S
Sc485 O501 2.105 . S
Sc485 O505 2.105 . S
Sc486 O487 2.025 . S
Sc486 O496 2.105 . S
Sc486 O498 2.105 . S
Sc486 O502 2.105 . S
Sc486 O504 2.105 . S
O487 Sc484 2.025 . S
O487 Sc485 2.025 . S
O487 Sc486 2.025 . S
C488 O494 1.268 . S
C488 O504 1.268 . S
C489 O495 1.268 . S
C489 O503 1.268 . S
C490 O496 1.268 . S
C490 O505 1.268 . S
C491 O497 1.268 . S
C491 O501 1.268 . S
C492 O498 1.268 . S
C492 O500 1.268 . S
C493 O499 1.268 . S
C493 O502 1.268 . S
O494 Sc484 2.105 . S
O494 C488 1.268 . S
O495 Sc485 2.105 . S
O495 C489 1.268 . S
O496 Sc486 2.105 . S
O496 C490 1.268 . S
O497 Sc484 2.105 . S
O497 C491 1.268 . S
O498 Sc486 2.105 . S
O498 C492 1.268 . S
O499 Sc485 2.105 . S
O499 C493 1.268 . S
O500 Sc484 2.105 . S
O500 C492 1.268 . S
O501 Sc485 2.105 . S
O501 C491 1.268 . S
O502 Sc486 2.105 . S
O502 C493 1.268 . S
O503 Sc484 2.105 . S
O503 C489 1.268 . S
O504 Sc486 2.105 . S
O504 C488 1.268 . S
O505 Sc485 2.105 . S
O505 C490 1.268 . S
Sc506 O509 2.025 . S
Sc506 O516 2.105 . S
Sc506 O519 2.105 . S
Sc506 O522 2.105 . S
Sc506 O525 2.105 . S
Sc507 O509 2.025 . S
Sc507 O517 2.105 . S
Sc507 O521 2.105 . S
Sc507 O523 2.105 . S
Sc507 O527 2.105 . S
Sc508 O509 2.025 . S
Sc508 O518 2.105 . S
Sc508 O520 2.105 . S
Sc508 O524 2.105 . S
Sc508 O526 2.105 . S
O509 Sc506 2.025 . S
O509 Sc507 2.025 . S
O509 Sc508 2.025 . S
C510 O516 1.268 . S
C510 O526 1.268 . S
C511 O517 1.268 . S
C511 O525 1.268 . S
C512 O518 1.268 . S
C512 O527 1.268 . S
C513 O519 1.268 . S
C513 O523 1.268 . S
C514 O520 1.268 . S
C514 O522 1.268 . S
C515 O521 1.268 . S
C515 O524 1.268 . S
O516 Sc506 2.105 . S
O516 C510 1.268 . S
O517 Sc507 2.105 . S
O517 C511 1.268 . S
O518 Sc508 2.105 . S
O518 C512 1.268 . S
O519 Sc506 2.105 . S
O519 C513 1.268 . S
O520 Sc508 2.105 . S
O520 C514 1.268 . S
O521 Sc507 2.105 . S
O521 C515 1.268 . S
O522 Sc506 2.105 . S
O522 C514 1.268 . S
O523 Sc507 2.105 . S
O523 C513 1.268 . S
O524 Sc508 2.105 . S
O524 C515 1.268 . S
O525 Sc506 2.105 . S
O525 C511 1.268 . S
O526 Sc508 2.105 . S
O526 C510 1.268 . S
O527 Sc507 2.105 . S
O527 C512 1.268 . S
Sc528 O531 2.025 . S
Sc528 O538 2.105 . S
Sc528 O541 2.105 . S
Sc528 O544 2.105 . S
Sc528 O547 2.105 . S
Sc529 O531 2.025 . S
Sc529 O539 2.105 . S
Sc529 O543 2.105 . S
Sc529 O545 2.105 . S
Sc529 O549 2.105 . S
Sc530 O531 2.025 . S
Sc530 O540 2.105 . S
Sc530 O542 2.105 . S
Sc530 O546 2.105 . S
Sc530 O548 2.105 . S
O531 Sc528 2.025 . S
O531 Sc529 2.025 . S
O531 Sc530 2.025 . S
C532 O538 1.268 . S
C532 O548 1.268 . S
C533 O539 1.268 . S
C533 O547 1.268 . S
C534 O540 1.268 . S
C534 O549 1.268 . S
C535 O541 1.268 . S
C535 O545 1.268 . S
C536 O542 1.268 . S
C536 O544 1.268 . S
C537 O543 1.268 . S
C537 O546 1.268 . S
O538 Sc528 2.105 . S
O538 C532 1.268 . S
O539 Sc529 2.105 . S
O539 C533 1.268 . S
O540 Sc530 2.105 . S
O540 C534 1.268 . S
O541 Sc528 2.105 . S
O541 C535 1.268 . S
O542 Sc530 2.105 . S
O542 C536 1.268 . S
O543 Sc529 2.105 . S
O543 C537 1.268 . S
O544 Sc528 2.105 . S
O544 C536 1.268 . S
O545 Sc529 2.105 . S
O545 C535 1.268 . S
O546 Sc530 2.105 . S
O546 C537 1.268 . S
O547 Sc528 2.105 . S
O547 C533 1.268 . S
O548 Sc530 2.105 . S
O548 C532 1.268 . S
O549 Sc529 2.105 . S
O549 C534 1.268 . S
Sc550 O553 2.025 . S
Sc550 O560 2.105 . S
Sc550 O563 2.105 . S
Sc550 O566 2.105 . S
Sc550 O569 2.105 . S
Sc551 O553 2.025 . S
Sc551 O561 2.105 . S
Sc551 O565 2.105 . S
Sc551 O567 2.105 . S
Sc551 O571 2.105 . S
Sc552 O553 2.025 . S
Sc552 O562 2.105 . S
Sc552 O564 2.105 . S
Sc552 O568 2.105 . S
Sc552 O570 2.105 . S
O553 Sc550 2.025 . S
O553 Sc551 2.025 . S
O553 Sc552 2.025 . S
C554 O560 1.268 . S
C554 O570 1.268 . S
C555 O561 1.268 . S
C555 O569 1.268 . S
C556 O562 1.268 . S
C556 O571 1.268 . S
C557 O563 1.268 . S
C557 O567 1.268 . S
C558 O564 1.268 . S
C558 O566 1.268 . S
C559 O565 1.268 . S
C559 O568 1.268 . S
O560 Sc550 2.105 . S
O560 C554 1.268 . S
O561 Sc551 2.105 . S
O561 C555 1.268 . S
O562 Sc552 2.105 . S
O562 C556 1.268 . S
O563 Sc550 2.105 . S
O563 C557 1.268 . S
O564 Sc552 2.105 . S
O564 C558 1.268 . S
O565 Sc551 2.105 . S
O565 C559 1.268 . S
O566 Sc550 2.105 . S
O566 C558 1.268 . S
O567 Sc551 2.105 . S
O567 C557 1.268 . S
O568 Sc552 2.105 . S
O568 C559 1.268 . S
O569 Sc550 2.105 . S
O569 C555 1.268 . S
O570 Sc552 2.105 . S
O570 C554 1.268 . S
O571 Sc551 2.105 . S
O571 C556 1.268 . S
Sc572 O575 2.025 . S
Sc572 O582 2.105 . S
Sc572 O585 2.105 . S
Sc572 O588 2.105 . S
Sc572 O591 2.105 . S
Sc573 O575 2.025 . S
Sc573 O583 2.105 . S
Sc573 O587 2.105 . S
Sc573 O589 2.105 . S
Sc573 O593 2.105 . S
Sc574 O575 2.025 . S
Sc574 O584 2.105 . S
Sc574 O586 2.105 . S
Sc574 O590 2.105 . S
Sc574 O592 2.105 . S
O575 Sc572 2.025 . S
O575 Sc573 2.025 . S
O575 Sc574 2.025 . S
C576 O582 1.268 . S
C576 O592 1.268 . S
C577 O583 1.268 . S
C577 O591 1.268 . S
C578 O584 1.268 . S
C578 O593 1.268 . S
C579 O585 1.268 . S
C579 O589 1.268 . S
C580 O586 1.268 . S
C580 O588 1.268 . S
C581 O587 1.268 . S
C581 O590 1.268 . S
O582 Sc572 2.105 . S
O582 C576 1.268 . S
O583 Sc573 2.105 . S
O583 C577 1.268 . S
O584 Sc574 2.105 . S
O584 C578 1.268 . S
O585 Sc572 2.105 . S
O585 C579 1.268 . S
O586 Sc574 2.105 . S
O586 C580 1.268 . S
O587 Sc573 2.105 . S
O587 C581 1.268 . S
O588 Sc572 2.105 . S
O588 C580 1.268 . S
O589 Sc573 2.105 . S
O589 C579 1.268 . S
O590 Sc574 2.105 . S
O590 C581 1.268 . S
O591 Sc572 2.105 . S
O591 C577 1.268 . S
O592 Sc574 2.105 . S
O592 C576 1.268 . S
O593 Sc573 2.105 . S
O593 C578 1.268 . S
Sc594 O597 2.025 . S
Sc594 O604 2.105 . S
Sc594 O607 2.105 . S
Sc594 O610 2.105 . S
Sc594 O613 2.105 . S
Sc595 O597 2.025 . S
Sc595 O605 2.105 . S
Sc595 O609 2.105 . S
Sc595 O611 2.105 . S
Sc595 O615 2.105 . S
Sc596 O597 2.025 . S
Sc596 O606 2.105 . S
Sc596 O608 2.105 . S
Sc596 O612 2.105 . S
Sc596 O614 2.105 . S
O597 Sc594 2.025 . S
O597 Sc595 2.025 . S
O597 Sc596 2.025 . S
C598 O604 1.268 . S
C598 O614 1.268 . S
C599 O605 1.268 . S
C599 O613 1.268 . S
C600 O606 1.268 . S
C600 O615 1.268 . S
C601 O607 1.268 . S
C601 O611 1.268 . S
C602 O608 1.268 . S
C602 O610 1.268 . S
C603 O609 1.268 . S
C603 O612 1.268 . S
O604 Sc594 2.105 . S
O604 C598 1.268 . S
O605 Sc595 2.105 . S
O605 C599 1.268 . S
O606 Sc596 2.105 . S
O606 C600 1.268 . S
O607 Sc594 2.105 . S
O607 C601 1.268 . S
O608 Sc596 2.105 . S
O608 C602 1.268 . S
O609 Sc595 2.105 . S
O609 C603 1.268 . S
O610 Sc594 2.105 . S
O610 C602 1.268 . S
O611 Sc595 2.105 . S
O611 C601 1.268 . S
O612 Sc596 2.105 . S
O612 C603 1.268 . S
O613 Sc594 2.105 . S
O613 C599 1.268 . S
O614 Sc596 2.105 . S
O614 C598 1.268 . S
O615 Sc595 2.105 . S
O615 C600 1.268 . S
Sc616 O619 2.025 . S
Sc616 O626 2.105 . S
Sc616 O629 2.105 . S
Sc616 O632 2.105 . S
Sc616 O635 2.105 . S
Sc617 O619 2.025 . S
Sc617 O627 2.105 . S
Sc617 O631 2.105 . S
Sc617 O633 2.105 . S
Sc617 O637 2.105 . S
Sc618 O619 2.025 . S
Sc618 O628 2.105 . S
Sc618 O630 2.105 . S
Sc618 O634 2.105 . S
Sc618 O636 2.105 . S
O619 Sc616 2.025 . S
O619 Sc617 2.025 . S
O619 Sc618 2.025 . S
C620 O626 1.268 . S
C620 O636 1.268 . S
C621 O627 1.268 . S
C621 O635 1.268 . S
C622 O628 1.268 . S
C622 O637 1.268 . S
C623 O629 1.268 . S
C623 O633 1.268 . S
C624 O630 1.268 . S
C624 O632 1.268 . S
C625 O631 1.268 . S
C625 O634 1.268 . S
O626 Sc616 2.105 . S
O626 C620 1.268 . S
O627 Sc617 2.105 . S
O627 C621 1.268 . S
O628 Sc618 2.105 . S
O628 C622 1.268 . S
O629 Sc616 2.105 . S
O629 C623 1.268 . S
O630 Sc618 2.105 . S
O630 C624 1.268 . S
O631 Sc617 2.105 . S
O631 C625 1.268 . S
O632 Sc616 2.105 . S
O632 C624 1.268 . S
O633 Sc617 2.105 . S
O633 C623 1.268 . S
O634 Sc618 2.105 . S
O634 C625 1.268 . S
O635 Sc616 2.105 . S
O635 C621 1.268 . S
O636 Sc618 2.105 . S
O636 C620 1.268 . S
O637 Sc617 2.105 . S
O637 C622 1.268 . S
Sc638 O641 2.025 . S
Sc638 O648 2.105 . S
Sc638 O651 2.105 . S
Sc638 O654 2.105 . S
Sc638 O657 2.105 . S
Sc639 O641 2.025 . S
Sc639 O649 2.105 . S
Sc639 O653 2.105 . S
Sc639 O655 2.105 . S
Sc639 O659 2.105 . S
Sc640 O641 2.025 . S
Sc640 O650 2.105 . S
Sc640 O652 2.105 . S
Sc640 O656 2.105 . S
Sc640 O658 2.105 . S
O641 Sc638 2.025 . S
O641 Sc639 2.025 . S
O641 Sc640 2.025 . S
C642 O648 1.268 . S
C642 O658 1.268 . S
C643 O649 1.268 . S
C643 O657 1.268 . S
C644 O650 1.268 . S
C644 O659 1.268 . S
C645 O651 1.268 . S
C645 O655 1.268 . S
C646 O652 1.268 . S
C646 O654 1.268 . S
C647 O653 1.268 . S
C647 O656 1.268 . S
O648 Sc638 2.105 . S
O648 C642 1.268 . S
O649 Sc639 2.105 . S
O649 C643 1.268 . S
O650 Sc640 2.105 . S
O650 C644 1.268 . S
O651 Sc638 2.105 . S
O651 C645 1.268 . S
O652 Sc640 2.105 . S
O652 C646 1.268 . S
O653 Sc639 2.105 . S
O653 C647 1.268 . S
O654 Sc638 2.105 . S
O654 C646 1.268 . S
O655 Sc639 2.105 . S
O655 C645 1.268 . S
O656 Sc640 2.105 . S
O656 C647 1.268 . S
O657 Sc638 2.105 . S
O657 C643 1.268 . S
O658 Sc640 2.105 . S
O658 C642 1.268 . S
O659 Sc639 2.105 . S
O659 C644 1.268 . S
Sc660 O663 2.025 . S
Sc660 O670 2.105 . S
Sc660 O673 2.105 . S
Sc660 O676 2.105 . S
Sc660 O679 2.105 . S
Sc661 O663 2.025 . S
Sc661 O671 2.105 . S
Sc661 O675 2.105 . S
Sc661 O677 2.105 . S
Sc661 O681 2.105 . S
Sc662 O663 2.025 . S
Sc662 O672 2.105 . S
Sc662 O674 2.105 . S
Sc662 O678 2.105 . S
Sc662 O680 2.105 . S
O663 Sc660 2.025 . S
O663 Sc661 2.025 . S
O663 Sc662 2.025 . S
C664 O670 1.268 . S
C664 O680 1.268 . S
C665 O671 1.268 . S
C665 O679 1.268 . S
C666 O672 1.268 . S
C666 O681 1.268 . S
C667 O673 1.268 . S
C667 O677 1.268 . S
C668 O674 1.268 . S
C668 O676 1.268 . S
C669 O675 1.268 . S
C669 O678 1.268 . S
O670 Sc660 2.105 . S
O670 C664 1.268 . S
O671 Sc661 2.105 . S
O671 C665 1.268 . S
O672 Sc662 2.105 . S
O672 C666 1.268 . S
O673 Sc660 2.105 . S
O673 C667 1.268 . S
O674 Sc662 2.105 . S
O674 C668 1.268 . S
O675 Sc661 2.105 . S
O675 C669 1.268 . S
O676 Sc660 2.105 . S
O676 C668 1.268 . S
O677 Sc661 2.105 . S
O677 C667 1.268 . S
O678 Sc662 2.105 . S
O678 C669 1.268 . S
O679 Sc660 2.105 . S
O679 C665 1.268 . S
O680 Sc662 2.105 . S
O680 C664 1.268 . S
O681 Sc661 2.105 . S
O681 C666 1.268 . S
Sc682 O685 2.025 . S
Sc682 O692 2.105 . S
Sc682 O695 2.105 . S
Sc682 O698 2.105 . S
Sc682 O701 2.105 . S
Sc683 O685 2.025 . S
Sc683 O693 2.105 . S
Sc683 O697 2.105 . S
Sc683 O699 2.105 . S
Sc683 O703 2.105 . S
Sc684 O685 2.025 . S
Sc684 O694 2.105 . S
Sc684 O696 2.105 . S
Sc684 O700 2.105 . S
Sc684 O702 2.105 . S
O685 Sc682 2.025 . S
O685 Sc683 2.025 . S
O685 Sc684 2.025 . S
C686 O692 1.268 . S
C686 O702 1.268 . S
C687 O693 1.268 . S
C687 O701 1.268 . S
C688 O694 1.268 . S
C688 O703 1.268 . S
C689 O695 1.268 . S
C689 O699 1.268 . S
C690 O696 1.268 . S
C690 O698 1.268 . S
C691 O697 1.268 . S
C691 O700 1.268 . S
O692 Sc682 2.105 . S
O692 C686 1.268 . S
O693 Sc683 2.105 . S
O693 C687 1.268 . S
O694 Sc684 2.105 . S
O694 C688 1.268 . S
O695 Sc682 2.105 . S
O695 C689 1.268 . S
O696 Sc684 2.105 . S
O696 C690 1.268 . S
O697 Sc683 2.105 . S
O697 C691 1.268 . S
O698 Sc682 2.105 . S
O698 C690 1.268 . S
O699 Sc683 2.105 . S
O699 C689 1.268 . S
O700 Sc684 2.105 . S
O700 C691 1.268 . S
O701 Sc682 2.105 . S
O701 C687 1.268 . S
O702 Sc684 2.105 . S
O702 C686 1.268 . S
O703 Sc683 2.105 . S
O703 C688 1.268 . S
C704 C705 1.369 . S
C704 C706 1.419 . S
C704 H708 0.930 . S
C705 C704 1.369 . S
C705 C714 1.429 . S
C706 C704 1.419 . S
C706 C707 1.363 . S
C706 H709 0.929 . S
C707 C706 1.363 . S
C707 C713 1.428 . S
H708 C704 0.930 . S
H709 C706 0.929 . S
S710 N711 1.613 . S
S710 N712 1.610 . S
N711 S710 1.613 . S
N711 C714 1.350 . S
N712 S710 1.610 . S
N712 C713 1.351 . S
C713 C707 1.428 . S
C713 N712 1.351 . S
C713 C714 1.434 . S
C714 C705 1.429 . S
C714 N711 1.350 . S
C714 C713 1.434 . S
C715 C716 1.369 . S
C715 C717 1.419 . S
C715 H719 0.930 . S
C716 C715 1.369 . S
C716 C725 1.429 . S
C717 C715 1.419 . S
C717 C718 1.363 . S
C717 H720 0.929 . S
C718 C717 1.363 . S
C718 C724 1.428 . S
H719 C715 0.930 . S
H720 C717 0.929 . S
S721 N722 1.613 . S
S721 N723 1.610 . S
N722 S721 1.613 . S
N722 C725 1.350 . S
N723 S721 1.610 . S
N723 C724 1.351 . S
C724 C718 1.428 . S
C724 N723 1.351 . S
C724 C725 1.434 . S
C725 C716 1.429 . S
C725 N722 1.350 . S
C725 C724 1.434 . S
C726 C727 1.369 . S
C726 C728 1.419 . S
C726 H730 0.930 . S
C727 C726 1.369 . S
C727 C736 1.429 . S
C728 C726 1.419 . S
C728 C729 1.363 . S
C728 H731 0.929 . S
C729 C728 1.363 . S
C729 C735 1.428 . S
H730 C726 0.930 . S
H731 C728 0.929 . S
S732 N733 1.613 . S
S732 N734 1.610 . S
N733 S732 1.613 . S
N733 C736 1.350 . S
N734 S732 1.610 . S
N734 C735 1.351 . S
C735 C729 1.428 . S
C735 N734 1.351 . S
C735 C736 1.434 . S
C736 C727 1.429 . S
C736 N733 1.350 . S
C736 C735 1.434 . S
C737 C738 1.369 . S
C737 C739 1.419 . S
C737 H741 0.930 . S
C738 C737 1.369 . S
C738 C747 1.429 . S
C739 C737 1.419 . S
C739 C740 1.363 . S
C739 H742 0.929 . S
C740 C739 1.363 . S
C740 C746 1.428 . S
H741 C737 0.930 . S
H742 C739 0.929 . S
S743 N744 1.613 . S
S743 N745 1.610 . S
N744 S743 1.613 . S
N744 C747 1.350 . S
N745 S743 1.610 . S
N745 C746 1.351 . S
C746 C740 1.428 . S
C746 N745 1.351 . S
C746 C747 1.434 . S
C747 C738 1.429 . S
C747 N744 1.350 . S
C747 C746 1.434 . S
C748 C749 1.369 . S
C748 C750 1.419 . S
C748 H752 0.930 . S
C749 C748 1.369 . S
C749 C758 1.429 . S
C750 C748 1.419 . S
C750 C751 1.363 . S
C750 H753 0.929 . S
C751 C750 1.363 . S
C751 C757 1.428 . S
H752 C748 0.930 . S
H753 C750 0.929 . S
S754 N755 1.613 . S
S754 N756 1.610 . S
N755 S754 1.613 . S
N755 C758 1.350 . S
N756 S754 1.610 . S
N756 C757 1.351 . S
C757 C751 1.428 . S
C757 N756 1.351 . S
C757 C758 1.434 . S
C758 C749 1.429 . S
C758 N755 1.350 . S
C758 C757 1.434 . S
C759 C760 1.369 . S
C759 C761 1.419 . S
C759 H763 0.930 . S
C760 C759 1.369 . S
C760 C769 1.429 . S
C761 C759 1.419 . S
C761 C762 1.363 . S
C761 H764 0.929 . S
C762 C761 1.363 . S
C762 C768 1.428 . S
H763 C759 0.930 . S
H764 C761 0.929 . S
S765 N766 1.613 . S
S765 N767 1.610 . S
N766 S765 1.613 . S
N766 C769 1.350 . S
N767 S765 1.610 . S
N767 C768 1.351 . S
C768 C762 1.428 . S
C768 N767 1.351 . S
C768 C769 1.434 . S
C769 C760 1.429 . S
C769 N766 1.350 . S
C769 C768 1.434 . S
C770 C771 1.369 . S
C770 C772 1.419 . S
C770 H774 0.930 . S
C771 C770 1.369 . S
C771 C780 1.429 . S
C772 C770 1.419 . S
C772 C773 1.363 . S
C772 H775 0.929 . S
C773 C772 1.363 . S
C773 C779 1.428 . S
H774 C770 0.930 . S
H775 C772 0.929 . S
S776 N777 1.613 . S
S776 N778 1.610 . S
N777 S776 1.613 . S
N777 C780 1.350 . S
N778 S776 1.610 . S
N778 C779 1.351 . S
C779 C773 1.428 . S
C779 N778 1.351 . S
C779 C780 1.434 . S
C780 C771 1.429 . S
C780 N777 1.350 . S
C780 C779 1.434 . S
C781 C782 1.369 . S
C781 C783 1.419 . S
C781 H785 0.930 . S
C782 C781 1.369 . S
C782 C791 1.429 . S
C783 C781 1.419 . S
C783 C784 1.363 . S
C783 H786 0.929 . S
C784 C783 1.363 . S
C784 C790 1.428 . S
H785 C781 0.930 . S
H786 C783 0.929 . S
S787 N788 1.613 . S
S787 N789 1.610 . S
N788 S787 1.613 . S
N788 C791 1.350 . S
N789 S787 1.610 . S
N789 C790 1.351 . S
C790 C784 1.428 . S
C790 N789 1.351 . S
C790 C791 1.434 . S
C791 C782 1.429 . S
C791 N788 1.350 . S
C791 C790 1.434 . S
C792 C793 1.369 . S
C792 C794 1.419 . S
C792 H796 0.930 . S
C793 C792 1.369 . S
C793 C802 1.429 . S
C794 C792 1.419 . S
C794 C795 1.363 . S
C794 H797 0.929 . S
C795 C794 1.363 . S
C795 C801 1.428 . S
H796 C792 0.930 . S
H797 C794 0.929 . S
S798 N799 1.613 . S
S798 N800 1.610 . S
N799 S798 1.613 . S
N799 C802 1.350 . S
N800 S798 1.610 . S
N800 C801 1.351 . S
C801 C795 1.428 . S
C801 N800 1.351 . S
C801 C802 1.434 . S
C802 C793 1.429 . S
C802 N799 1.350 . S
C802 C801 1.434 . S
C803 C804 1.369 . S
C803 C805 1.419 . S
C803 H807 0.930 . S
C804 C803 1.369 . S
C804 C813 1.429 . S
C805 C803 1.419 . S
C805 C806 1.363 . S
C805 H808 0.929 . S
C806 C805 1.363 . S
C806 C812 1.428 . S
H807 C803 0.930 . S
H808 C805 0.929 . S
S809 N810 1.613 . S
S809 N811 1.610 . S
N810 S809 1.613 . S
N810 C813 1.350 . S
N811 S809 1.610 . S
N811 C812 1.351 . S
C812 C806 1.428 . S
C812 N811 1.351 . S
C812 C813 1.434 . S
C813 C804 1.429 . S
C813 N810 1.350 . S
C813 C812 1.434 . S
C814 C815 1.369 . S
C814 C816 1.419 . S
C814 H818 0.930 . S
C815 C814 1.369 . S
C815 C824 1.429 . S
C816 C814 1.419 . S
C816 C817 1.363 . S
C816 H819 0.929 . S
C817 C816 1.363 . S
C817 C823 1.428 . S
H818 C814 0.930 . S
H819 C816 0.929 . S
S820 N821 1.613 . S
S820 N822 1.610 . S
N821 S820 1.613 . S
N821 C824 1.350 . S
N822 S820 1.610 . S
N822 C823 1.351 . S
C823 C817 1.428 . S
C823 N822 1.351 . S
C823 C824 1.434 . S
C824 C815 1.429 . S
C824 N821 1.350 . S
C824 C823 1.434 . S
C825 C826 1.369 . S
C825 C827 1.419 . S
C825 H829 0.930 . S
C826 C825 1.369 . S
C826 C835 1.429 . S
C827 C825 1.419 . S
C827 C828 1.363 . S
C827 H830 0.929 . S
C828 C827 1.363 . S
C828 C834 1.428 . S
H829 C825 0.930 . S
H830 C827 0.929 . S
S831 N832 1.613 . S
S831 N833 1.610 . S
N832 S831 1.613 . S
N832 C835 1.350 . S
N833 S831 1.610 . S
N833 C834 1.351 . S
C834 C828 1.428 . S
C834 N833 1.351 . S
C834 C835 1.434 . S
C835 C826 1.429 . S
C835 N832 1.350 . S
C835 C834 1.434 . S
C836 C837 1.369 . S
C836 C838 1.419 . S
C836 H840 0.930 . S
C837 C836 1.369 . S
C837 C846 1.429 . S
C838 C836 1.419 . S
C838 C839 1.363 . S
C838 H841 0.929 . S
C839 C838 1.363 . S
C839 C845 1.428 . S
H840 C836 0.930 . S
H841 C838 0.929 . S
S842 N843 1.613 . S
S842 N844 1.610 . S
N843 S842 1.613 . S
N843 C846 1.350 . S
N844 S842 1.610 . S
N844 C845 1.351 . S
C845 C839 1.428 . S
C845 N844 1.351 . S
C845 C846 1.434 . S
C846 C837 1.429 . S
C846 N843 1.350 . S
C846 C845 1.434 . S
C847 C848 1.369 . S
C847 C849 1.419 . S
C847 H851 0.930 . S
C848 C847 1.369 . S
C848 C857 1.429 . S
C849 C847 1.419 . S
C849 C850 1.363 . S
C849 H852 0.929 . S
C850 C849 1.363 . S
C850 C856 1.428 . S
H851 C847 0.930 . S
H852 C849 0.929 . S
S853 N854 1.613 . S
S853 N855 1.610 . S
N854 S853 1.613 . S
N854 C857 1.350 . S
N855 S853 1.610 . S
N855 C856 1.351 . S
C856 C850 1.428 . S
C856 N855 1.351 . S
C856 C857 1.434 . S
C857 C848 1.429 . S
C857 N854 1.350 . S
C857 C856 1.434 . S
C858 C859 1.369 . S
C858 C860 1.419 . S
C858 H862 0.930 . S
C859 C858 1.369 . S
C859 C868 1.429 . S
C860 C858 1.419 . S
C860 C861 1.363 . S
C860 H863 0.929 . S
C861 C860 1.363 . S
C861 C867 1.428 . S
H862 C858 0.930 . S
H863 C860 0.929 . S
S864 N865 1.613 . S
S864 N866 1.610 . S
N865 S864 1.613 . S
N865 C868 1.350 . S
N866 S864 1.610 . S
N866 C867 1.351 . S
C867 C861 1.428 . S
C867 N866 1.351 . S
C867 C868 1.434 . S
C868 C859 1.429 . S
C868 N865 1.350 . S
C868 C867 1.434 . S
C869 C870 1.369 . S
C869 C871 1.419 . S
C869 H873 0.930 . S
C870 C869 1.369 . S
C870 C879 1.429 . S
C871 C869 1.419 . S
C871 C872 1.363 . S
C871 H874 0.929 . S
C872 C871 1.363 . S
C872 C878 1.428 . S
H873 C869 0.930 . S
H874 C871 0.929 . S
S875 N876 1.613 . S
S875 N877 1.610 . S
N876 S875 1.613 . S
N876 C879 1.350 . S
N877 S875 1.610 . S
N877 C878 1.351 . S
C878 C872 1.428 . S
C878 N877 1.351 . S
C878 C879 1.434 . S
C879 C870 1.429 . S
C879 N876 1.350 . S
C879 C878 1.434 . S
C880 C881 1.369 . S
C880 C882 1.419 . S
C880 H884 0.930 . S
C881 C880 1.369 . S
C881 C890 1.429 . S
C882 C880 1.419 . S
C882 C883 1.363 . S
C882 H885 0.929 . S
C883 C882 1.363 . S
C883 C889 1.428 . S
H884 C880 0.930 . S
H885 C882 0.929 . S
S886 N887 1.613 . S
S886 N888 1.610 . S
N887 S886 1.613 . S
N887 C890 1.350 . S
N888 S886 1.610 . S
N888 C889 1.351 . S
C889 C883 1.428 . S
C889 N888 1.351 . S
C889 C890 1.434 . S
C890 C881 1.429 . S
C890 N887 1.350 . S
C890 C889 1.434 . S
C891 C892 1.369 . S
C891 C893 1.419 . S
C891 H895 0.930 . S
C892 C891 1.369 . S
C892 C901 1.429 . S
C893 C891 1.419 . S
C893 C894 1.363 . S
C893 H896 0.929 . S
C894 C893 1.363 . S
C894 C900 1.428 . S
H895 C891 0.930 . S
H896 C893 0.929 . S
S897 N898 1.613 . S
S897 N899 1.610 . S
N898 S897 1.613 . S
N898 C901 1.350 . S
N899 S897 1.610 . S
N899 C900 1.351 . S
C900 C894 1.428 . S
C900 N899 1.351 . S
C900 C901 1.434 . S
C901 C892 1.429 . S
C901 N898 1.350 . S
C901 C900 1.434 . S
C902 C903 1.369 . S
C902 C904 1.419 . S
C902 H906 0.930 . S
C903 C902 1.369 . S
C903 C912 1.429 . S
C904 C902 1.419 . S
C904 C905 1.363 . S
C904 H907 0.929 . S
C905 C904 1.363 . S
C905 C911 1.428 . S
H906 C902 0.930 . S
H907 C904 0.929 . S
S908 N909 1.613 . S
S908 N910 1.610 . S
N909 S908 1.613 . S
N909 C912 1.350 . S
N910 S908 1.610 . S
N910 C911 1.351 . S
C911 C905 1.428 . S
C911 N910 1.351 . S
C911 C912 1.434 . S
C912 C903 1.429 . S
C912 N909 1.350 . S
C912 C911 1.434 . S
C913 C914 1.369 . S
C913 C915 1.419 . S
C913 H917 0.930 . S
C914 C913 1.369 . S
C914 C923 1.429 . S
C915 C913 1.419 . S
C915 C916 1.363 . S
C915 H918 0.929 . S
C916 C915 1.363 . S
C916 C922 1.428 . S
H917 C913 0.930 . S
H918 C915 0.929 . S
S919 N920 1.613 . S
S919 N921 1.610 . S
N920 S919 1.613 . S
N920 C923 1.350 . S
N921 S919 1.610 . S
N921 C922 1.351 . S
C922 C916 1.428 . S
C922 N921 1.351 . S
C922 C923 1.434 . S
C923 C914 1.429 . S
C923 N920 1.350 . S
C923 C922 1.434 . S
C924 C925 1.369 . S
C924 C926 1.419 . S
C924 H928 0.930 . S
C925 C924 1.369 . S
C925 C934 1.429 . S
C926 C924 1.419 . S
C926 C927 1.363 . S
C926 H929 0.929 . S
C927 C926 1.363 . S
C927 C933 1.428 . S
H928 C924 0.930 . S
H929 C926 0.929 . S
S930 N931 1.613 . S
S930 N932 1.610 . S
N931 S930 1.613 . S
N931 C934 1.350 . S
N932 S930 1.610 . S
N932 C933 1.351 . S
C933 C927 1.428 . S
C933 N932 1.351 . S
C933 C934 1.434 . S
C934 C925 1.429 . S
C934 N931 1.350 . S
C934 C933 1.434 . S
C935 C936 1.369 . S
C935 C937 1.419 . S
C935 H939 0.930 . S
C936 C935 1.369 . S
C936 C945 1.429 . S
C937 C935 1.419 . S
C937 C938 1.363 . S
C937 H940 0.929 . S
C938 C937 1.363 . S
C938 C944 1.428 . S
H939 C935 0.930 . S
H940 C937 0.929 . S
S941 N942 1.613 . S
S941 N943 1.610 . S
N942 S941 1.613 . S
N942 C945 1.350 . S
N943 S941 1.610 . S
N943 C944 1.351 . S
C944 C938 1.428 . S
C944 N943 1.351 . S
C944 C945 1.434 . S
C945 C936 1.429 . S
C945 N942 1.350 . S
C945 C944 1.434 . S
C946 C947 1.369 . S
C946 C948 1.419 . S
C946 H950 0.930 . S
C947 C946 1.369 . S
C947 C956 1.429 . S
C948 C946 1.419 . S
C948 C949 1.363 . S
C948 H951 0.929 . S
C949 C948 1.363 . S
C949 C955 1.428 . S
H950 C946 0.930 . S
H951 C948 0.929 . S
S952 N953 1.613 . S
S952 N954 1.610 . S
N953 S952 1.613 . S
N953 C956 1.350 . S
N954 S952 1.610 . S
N954 C955 1.351 . S
C955 C949 1.428 . S
C955 N954 1.351 . S
C955 C956 1.434 . S
C956 C947 1.429 . S
C956 N953 1.350 . S
C956 C955 1.434 . S
C957 C958 1.369 . S
C957 C959 1.419 . S
C957 H961 0.930 . S
C958 C957 1.369 . S
C958 C967 1.429 . S
C959 C957 1.419 . S
C959 C960 1.363 . S
C959 H962 0.929 . S
C960 C959 1.363 . S
C960 C966 1.428 . S
H961 C957 0.930 . S
H962 C959 0.929 . S
S963 N964 1.613 . S
S963 N965 1.610 . S
N964 S963 1.613 . S
N964 C967 1.350 . S
N965 S963 1.610 . S
N965 C966 1.351 . S
C966 C960 1.428 . S
C966 N965 1.351 . S
C966 C967 1.434 . S
C967 C958 1.429 . S
C967 N964 1.350 . S
C967 C966 1.434 . S
C968 C969 1.369 . S
C968 C970 1.419 . S
C968 H972 0.930 . S
C969 C968 1.369 . S
C969 C978 1.429 . S
C970 C968 1.419 . S
C970 C971 1.363 . S
C970 H973 0.929 . S
C971 C970 1.363 . S
C971 C977 1.428 . S
H972 C968 0.930 . S
H973 C970 0.929 . S
S974 N975 1.613 . S
S974 N976 1.610 . S
N975 S974 1.613 . S
N975 C978 1.350 . S
N976 S974 1.610 . S
N976 C977 1.351 . S
C977 C971 1.428 . S
C977 N976 1.351 . S
C977 C978 1.434 . S
C978 C969 1.429 . S
C978 N975 1.350 . S
C978 C977 1.434 . S
C979 C980 1.369 . S
C979 C981 1.419 . S
C979 H983 0.930 . S
C980 C979 1.369 . S
C980 C989 1.429 . S
C981 C979 1.419 . S
C981 C982 1.363 . S
C981 H984 0.929 . S
C982 C981 1.363 . S
C982 C988 1.428 . S
H983 C979 0.930 . S
H984 C981 0.929 . S
S985 N986 1.613 . S
S985 N987 1.610 . S
N986 S985 1.613 . S
N986 C989 1.350 . S
N987 S985 1.610 . S
N987 C988 1.351 . S
C988 C982 1.428 . S
C988 N987 1.351 . S
C988 C989 1.434 . S
C989 C980 1.429 . S
C989 N986 1.350 . S
C989 C988 1.434 . S
C990 C991 1.369 . S
C990 C992 1.419 . S
C990 H994 0.930 . S
C991 C990 1.369 . S
C991 C1000 1.429 . S
C992 C990 1.419 . S
C992 C993 1.363 . S
C992 H995 0.929 . S
C993 C992 1.363 . S
C993 C999 1.428 . S
H994 C990 0.930 . S
H995 C992 0.929 . S
S996 N997 1.613 . S
S996 N998 1.610 . S
N997 S996 1.613 . S
N997 C1000 1.350 . S
N998 S996 1.610 . S
N998 C999 1.351 . S
C999 C993 1.428 . S
C999 N998 1.351 . S
C999 C1000 1.434 . S
C1000 C991 1.429 . S
C1000 N997 1.350 . S
C1000 C999 1.434 . S
C1001 C1002 1.369 . S
C1001 C1003 1.419 . S
C1001 H1005 0.930 . S
C1002 C1001 1.369 . S
C1002 C1011 1.429 . S
C1003 C1001 1.419 . S
C1003 C1004 1.363 . S
C1003 H1006 0.929 . S
C1004 C1003 1.363 . S
C1004 C1010 1.428 . S
H1005 C1001 0.930 . S
H1006 C1003 0.929 . S
S1007 N1008 1.613 . S
S1007 N1009 1.610 . S
N1008 S1007 1.613 . S
N1008 C1011 1.350 . S
N1009 S1007 1.610 . S
N1009 C1010 1.351 . S
C1010 C1004 1.428 . S
C1010 N1009 1.351 . S
C1010 C1011 1.434 . S
C1011 C1002 1.429 . S
C1011 N1008 1.350 . S
C1011 C1010 1.434 . S
C1012 C1013 1.369 . S
C1012 C1014 1.419 . S
C1012 H1016 0.930 . S
C1013 C1012 1.369 . S
C1013 C1022 1.429 . S
C1014 C1012 1.419 . S
C1014 C1015 1.363 . S
C1014 H1017 0.929 . S
C1015 C1014 1.363 . S
C1015 C1021 1.428 . S
H1016 C1012 0.930 . S
H1017 C1014 0.929 . S
S1018 N1019 1.613 . S
S1018 N1020 1.610 . S
N1019 S1018 1.613 . S
N1019 C1022 1.350 . S
N1020 S1018 1.610 . S
N1020 C1021 1.351 . S
C1021 C1015 1.428 . S
C1021 N1020 1.351 . S
C1021 C1022 1.434 . S
C1022 C1013 1.429 . S
C1022 N1019 1.350 . S
C1022 C1021 1.434 . S
C1023 C1024 1.369 . S
C1023 C1025 1.419 . S
C1023 H1027 0.930 . S
C1024 C1023 1.369 . S
C1024 C1033 1.429 . S
C1025 C1023 1.419 . S
C1025 C1026 1.363 . S
C1025 H1028 0.929 . S
C1026 C1025 1.363 . S
C1026 C1032 1.428 . S
H1027 C1023 0.930 . S
H1028 C1025 0.929 . S
S1029 N1030 1.613 . S
S1029 N1031 1.610 . S
N1030 S1029 1.613 . S
N1030 C1033 1.350 . S
N1031 S1029 1.610 . S
N1031 C1032 1.351 . S
C1032 C1026 1.428 . S
C1032 N1031 1.351 . S
C1032 C1033 1.434 . S
C1033 C1024 1.429 . S
C1033 N1030 1.350 . S
C1033 C1032 1.434 . S
C1034 C1035 1.369 . S
C1034 C1036 1.419 . S
C1034 H1038 0.930 . S
C1035 C1034 1.369 . S
C1035 C1044 1.429 . S
C1036 C1034 1.419 . S
C1036 C1037 1.363 . S
C1036 H1039 0.929 . S
C1037 C1036 1.363 . S
C1037 C1043 1.428 . S
H1038 C1034 0.930 . S
H1039 C1036 0.929 . S
S1040 N1041 1.613 . S
S1040 N1042 1.610 . S
N1041 S1040 1.613 . S
N1041 C1044 1.350 . S
N1042 S1040 1.610 . S
N1042 C1043 1.351 . S
C1043 C1037 1.428 . S
C1043 N1042 1.351 . S
C1043 C1044 1.434 . S
C1044 C1035 1.429 . S
C1044 N1041 1.350 . S
C1044 C1043 1.434 . S
C1045 C1046 1.369 . S
C1045 C1047 1.419 . S
C1045 H1049 0.930 . S
C1046 C1045 1.369 . S
C1046 C1055 1.429 . S
C1047 C1045 1.419 . S
C1047 C1048 1.363 . S
C1047 H1050 0.929 . S
C1048 C1047 1.363 . S
C1048 C1054 1.428 . S
H1049 C1045 0.930 . S
H1050 C1047 0.929 . S
S1051 N1052 1.613 . S
S1051 N1053 1.610 . S
N1052 S1051 1.613 . S
N1052 C1055 1.350 . S
N1053 S1051 1.610 . S
N1053 C1054 1.351 . S
C1054 C1048 1.428 . S
C1054 N1053 1.351 . S
C1054 C1055 1.434 . S
C1055 C1046 1.429 . S
C1055 N1052 1.350 . S
C1055 C1054 1.434 . S
C1056 C1057 1.369 . S
C1056 C1058 1.419 . S
C1056 H1060 0.930 . S
C1057 C1056 1.369 . S
C1057 C1066 1.429 . S
C1058 C1056 1.419 . S
C1058 C1059 1.363 . S
C1058 H1061 0.929 . S
C1059 C1058 1.363 . S
C1059 C1065 1.428 . S
H1060 C1056 0.930 . S
H1061 C1058 0.929 . S
S1062 N1063 1.613 . S
S1062 N1064 1.610 . S
N1063 S1062 1.613 . S
N1063 C1066 1.350 . S
N1064 S1062 1.610 . S
N1064 C1065 1.351 . S
C1065 C1059 1.428 . S
C1065 N1064 1.351 . S
C1065 C1066 1.434 . S
C1066 C1057 1.429 . S
C1066 N1063 1.350 . S
C1066 C1065 1.434 . S
C1067 C1068 1.369 . S
C1067 C1069 1.419 . S
C1067 H1071 0.930 . S
C1068 C1067 1.369 . S
C1068 C1077 1.429 . S
C1069 C1067 1.419 . S
C1069 C1070 1.363 . S
C1069 H1072 0.929 . S
C1070 C1069 1.363 . S
C1070 C1076 1.428 . S
H1071 C1067 0.930 . S
H1072 C1069 0.929 . S
S1073 N1074 1.613 1_655 S
S1073 N1075 1.610 . S
N1074 S1073 1.613 1_455 S
N1074 C1077 1.350 1_455 S
N1075 S1073 1.610 . S
N1075 C1076 1.351 . S
C1076 C1070 1.428 . S
C1076 N1075 1.351 . S
C1076 C1077 1.434 . S
C1077 C1068 1.429 . S
C1077 N1074 1.350 1_655 S
C1077 C1076 1.434 . S
C1078 C1079 1.369 . S
C1078 C1080 1.419 . S
C1078 H1082 0.930 . S
C1079 C1078 1.369 . S
C1079 C1088 1.429 . S
C1080 C1078 1.419 . S
C1080 C1081 1.363 . S
C1080 H1083 0.929 . S
C1081 C1080 1.363 . S
C1081 C1087 1.428 . S
H1082 C1078 0.930 . S
H1083 C1080 0.929 . S
S1084 N1085 1.613 . S
S1084 N1086 1.610 1_565 S
N1085 S1084 1.613 . S
N1085 C1088 1.350 . S
N1086 S1084 1.610 1_545 S
N1086 C1087 1.351 1_545 S
C1087 C1081 1.428 . S
C1087 N1086 1.351 1_565 S
C1087 C1088 1.434 . S
C1088 C1079 1.429 . S
C1088 N1085 1.350 . S
C1088 C1087 1.434 . S
C1089 C1090 1.369 . S
C1089 C1091 1.419 . S
C1089 H1093 0.930 . S
C1090 C1089 1.369 . S
C1090 C1099 1.429 . S
C1091 C1089 1.419 . S
C1091 C1092 1.363 . S
C1091 H1094 0.929 . S
C1092 C1091 1.363 . S
C1092 C1098 1.428 . S
H1093 C1089 0.930 . S
H1094 C1091 0.929 . S
S1095 N1096 1.613 . S
S1095 N1097 1.609 . S
N1096 S1095 1.613 . S
N1096 C1099 1.350 . S
N1097 S1095 1.609 . S
N1097 C1098 1.348 . S
C1098 C1092 1.428 . S
C1098 N1097 1.348 . S
C1098 C1099 1.434 . S
C1099 C1090 1.429 . S
C1099 N1096 1.350 . S
C1099 C1098 1.434 . S
C1100 C1101 1.369 . S
C1100 C1102 1.419 . S
C1100 H1104 0.930 . S
C1101 C1100 1.369 . S
C1101 C1110 1.429 . S
C1102 C1100 1.419 . S
C1102 C1103 1.363 . S
C1102 H1105 0.929 . S
C1103 C1102 1.363 . S
C1103 C1109 1.428 . S
H1104 C1100 0.930 . S
H1105 C1102 0.929 . S
S1106 N1107 1.613 . S
S1106 N1108 1.610 . S
N1107 S1106 1.613 . S
N1107 C1110 1.350 . S
N1108 S1106 1.610 . S
N1108 C1109 1.351 . S
C1109 C1103 1.428 . S
C1109 N1108 1.351 . S
C1109 C1110 1.434 . S
C1110 C1101 1.429 . S
C1110 N1107 1.350 . S
C1110 C1109 1.434 . S
C1111 C1112 1.369 . S
C1111 C1113 1.419 . S
C1111 H1115 0.930 . S
C1112 C1111 1.369 . S
C1112 C1121 1.429 . S
C1113 C1111 1.419 . S
C1113 C1114 1.363 . S
C1113 H1116 0.929 . S
C1114 C1113 1.363 . S
C1114 C1120 1.428 . S
H1115 C1111 0.930 . S
H1116 C1113 0.929 . S
S1117 N1118 1.613 . S
S1117 N1119 1.610 . S
N1118 S1117 1.613 . S
N1118 C1121 1.350 . S
N1119 S1117 1.610 . S
N1119 C1120 1.351 . S
C1120 C1114 1.428 . S
C1120 N1119 1.351 . S
C1120 C1121 1.434 . S
C1121 C1112 1.429 . S
C1121 N1118 1.350 . S
C1121 C1120 1.434 . S
C1122 C1123 1.369 . S
C1122 C1124 1.419 . S
C1122 H1126 0.930 . S
C1123 C1122 1.369 . S
C1123 C1132 1.429 . S
C1124 C1122 1.419 . S
C1124 C1125 1.363 . S
C1124 H1127 0.929 . S
C1125 C1124 1.363 . S
C1125 C1131 1.428 . S
H1126 C1122 0.930 . S
H1127 C1124 0.929 . S
S1128 N1129 1.613 . S
S1128 N1130 1.610 . S
N1129 S1128 1.613 . S
N1129 C1132 1.350 . S
N1130 S1128 1.610 . S
N1130 C1131 1.351 . S
C1131 C1125 1.428 . S
C1131 N1130 1.351 . S
C1131 C1132 1.434 . S
C1132 C1123 1.429 . S
C1132 N1129 1.350 . S
C1132 C1131 1.434 . S
C1133 C1134 1.369 . S
C1133 C1135 1.419 . S
C1133 H1137 0.930 . S
C1134 C1133 1.369 . S
C1134 C1143 1.429 . S
C1135 C1133 1.419 . S
C1135 C1136 1.363 . S
C1135 H1138 0.929 . S
C1136 C1135 1.363 . S
C1136 C1142 1.428 . S
H1137 C1133 0.930 . S
H1138 C1135 0.929 . S
S1139 N1140 1.613 . S
S1139 N1141 1.610 . S
N1140 S1139 1.613 . S
N1140 C1143 1.350 . S
N1141 S1139 1.610 . S
N1141 C1142 1.351 . S
C1142 C1136 1.428 . S
C1142 N1141 1.351 . S
C1142 C1143 1.434 . S
C1143 C1134 1.429 . S
C1143 N1140 1.350 . S
C1143 C1142 1.434 . S
C1144 C1145 1.369 . S
C1144 C1146 1.419 . S
C1144 H1148 0.930 . S
C1145 C1144 1.369 . S
C1145 C1154 1.429 . S
C1146 C1144 1.419 . S
C1146 C1147 1.363 . S
C1146 H1149 0.929 . S
C1147 C1146 1.363 . S
C1147 C1153 1.428 . S
H1148 C1144 0.930 . S
H1149 C1146 0.929 . S
S1150 N1151 1.613 . S
S1150 N1152 1.610 . S
N1151 S1150 1.613 . S
N1151 C1154 1.350 . S
N1152 S1150 1.610 . S
N1152 C1153 1.351 . S
C1153 C1147 1.428 . S
C1153 N1152 1.351 . S
C1153 C1154 1.434 . S
C1154 C1145 1.429 . S
C1154 N1151 1.350 . S
C1154 C1153 1.434 . S
C1155 C1156 1.369 . S
C1155 C1157 1.419 . S
C1155 H1159 0.930 . S
C1156 C1155 1.369 . S
C1156 C1165 1.429 . S
C1157 C1155 1.419 . S
C1157 C1158 1.363 . S
C1157 H1160 0.929 . S
C1158 C1157 1.363 . S
C1158 C1164 1.428 . S
H1159 C1155 0.930 . S
H1160 C1157 0.929 . S
S1161 N1162 1.613 . S
S1161 N1163 1.610 . S
N1162 S1161 1.613 . S
N1162 C1165 1.350 . S
N1163 S1161 1.610 . S
N1163 C1164 1.351 . S
C1164 C1158 1.428 . S
C1164 N1163 1.351 . S
C1164 C1165 1.434 . S
C1165 C1156 1.429 . S
C1165 N1162 1.350 . S
C1165 C1164 1.434 . S
C1166 C1167 1.369 . S
C1166 C1168 1.419 . S
C1166 H1170 0.930 . S
C1167 C1166 1.369 . S
C1167 C1176 1.429 . S
C1168 C1166 1.419 . S
C1168 C1169 1.363 . S
C1168 H1171 0.929 . S
C1169 C1168 1.363 . S
C1169 C1175 1.428 . S
H1170 C1166 0.930 . S
H1171 C1168 0.929 . S
S1172 N1173 1.613 . S
S1172 N1174 1.612 . S
N1173 S1172 1.613 . S
N1173 C1176 1.350 . S
N1174 S1172 1.612 . S
N1174 C1175 1.354 . S
C1175 C1169 1.428 . S
C1175 N1174 1.354 . S
C1175 C1176 1.434 . S
C1176 C1167 1.429 . S
C1176 N1173 1.350 . S
C1176 C1175 1.434 . S
C1177 C1178 1.369 . S
C1177 C1179 1.419 . S
C1177 H1181 0.930 . S
C1178 C1177 1.369 . S
C1178 C1187 1.429 . S
C1179 C1177 1.419 . S
C1179 C1180 1.363 . S
C1179 H1182 0.929 . S
C1180 C1179 1.363 . S
C1180 C1186 1.428 . S
H1181 C1177 0.930 . S
H1182 C1179 0.929 . S
S1183 N1184 1.613 . S
S1183 N1185 1.610 . S
N1184 S1183 1.613 . S
N1184 C1187 1.350 . S
N1185 S1183 1.610 . S
N1185 C1186 1.351 . S
C1186 C1180 1.428 . S
C1186 N1185 1.351 . S
C1186 C1187 1.434 . S
C1187 C1178 1.429 . S
C1187 N1184 1.350 . S
C1187 C1186 1.434 . S
C1188 C1189 1.369 . S
C1188 C1190 1.419 . S
C1188 H1192 0.930 . S
C1189 C1188 1.369 . S
C1189 C1198 1.429 . S
C1190 C1188 1.419 . S
C1190 C1191 1.363 . S
C1190 H1193 0.929 . S
C1191 C1190 1.363 . S
C1191 C1197 1.428 . S
H1192 C1188 0.930 . S
H1193 C1190 0.929 . S
S1194 N1195 1.613 . S
S1194 N1196 1.610 . S
N1195 S1194 1.613 . S
N1195 C1198 1.350 . S
N1196 S1194 1.610 . S
N1196 C1197 1.351 . S
C1197 C1191 1.428 . S
C1197 N1196 1.351 . S
C1197 C1198 1.434 . S
C1198 C1189 1.429 . S
C1198 N1195 1.350 . S
C1198 C1197 1.434 . S
C1199 C1200 1.369 . S
C1199 C1201 1.419 . S
C1199 H1203 0.930 . S
C1200 C1199 1.369 . S
C1200 C1209 1.429 . S
C1201 C1199 1.419 . S
C1201 C1202 1.363 . S
C1201 H1204 0.929 . S
C1202 C1201 1.363 . S
C1202 C1208 1.428 . S
H1203 C1199 0.930 . S
H1204 C1201 0.929 . S
S1205 N1206 1.613 . S
S1205 N1207 1.610 . S
N1206 S1205 1.613 . S
N1206 C1209 1.350 . S
N1207 S1205 1.610 . S
N1207 C1208 1.351 . S
C1208 C1202 1.428 . S
C1208 N1207 1.351 . S
C1208 C1209 1.434 . S
C1209 C1200 1.429 . S
C1209 N1206 1.350 . S
C1209 C1208 1.434 . S
C1210 C1211 1.369 . S
C1210 C1212 1.419 . S
C1210 H1214 0.930 . S
C1211 C1210 1.369 . S
C1211 C1220 1.429 . S
C1212 C1210 1.419 . S
C1212 C1213 1.363 . S
C1212 H1215 0.929 . S
C1213 C1212 1.363 . S
C1213 C1219 1.428 . S
H1214 C1210 0.930 . S
H1215 C1212 0.929 . S
S1216 N1217 1.613 . S
S1216 N1218 1.610 . S
N1217 S1216 1.613 . S
N1217 C1220 1.350 . S
N1218 S1216 1.610 . S
N1218 C1219 1.351 . S
C1219 C1213 1.428 . S
C1219 N1218 1.351 . S
C1219 C1220 1.434 . S
C1220 C1211 1.429 . S
C1220 N1217 1.350 . S
C1220 C1219 1.434 . S
C1221 C1222 1.369 . S
C1221 C1223 1.419 . S
C1221 H1225 0.930 . S
C1222 C1221 1.369 . S
C1222 C1231 1.429 . S
C1223 C1221 1.419 . S
C1223 C1224 1.363 . S
C1223 H1226 0.929 . S
C1224 C1223 1.363 . S
C1224 C1230 1.428 . S
H1225 C1221 0.930 . S
H1226 C1223 0.929 . S
S1227 N1228 1.613 . S
S1227 N1229 1.610 . S
N1228 S1227 1.613 . S
N1228 C1231 1.350 . S
N1229 S1227 1.610 . S
N1229 C1230 1.351 . S
C1230 C1224 1.428 . S
C1230 N1229 1.351 . S
C1230 C1231 1.434 . S
C1231 C1222 1.429 . S
C1231 N1228 1.350 . S
C1231 C1230 1.434 . S
C1232 C1233 1.369 . S
C1232 C1234 1.419 . S
C1232 H1236 0.930 . S
C1233 C1232 1.369 . S
C1233 C1242 1.429 . S
C1234 C1232 1.419 . S
C1234 C1235 1.363 . S
C1234 H1237 0.929 . S
C1235 C1234 1.363 . S
C1235 C1241 1.428 . S
H1236 C1232 0.930 . S
H1237 C1234 0.929 . S
S1238 N1239 1.613 . S
S1238 N1240 1.610 . S
N1239 S1238 1.613 . S
N1239 C1242 1.350 . S
N1240 S1238 1.610 . S
N1240 C1241 1.351 . S
C1241 C1235 1.428 . S
C1241 N1240 1.351 . S
C1241 C1242 1.434 . S
C1242 C1233 1.429 . S
C1242 N1239 1.350 . S
C1242 C1241 1.434 . S
C1243 C1244 1.369 . S
C1243 C1245 1.419 . S
C1243 H1247 0.930 . S
C1244 C1243 1.369 . S
C1244 C1253 1.429 . S
C1245 C1243 1.419 . S
C1245 C1246 1.363 . S
C1245 H1248 0.929 . S
C1246 C1245 1.363 . S
C1246 C1252 1.428 . S
H1247 C1243 0.930 . S
H1248 C1245 0.929 . S
S1249 N1250 1.613 . S
S1249 N1251 1.610 . S
N1250 S1249 1.613 . S
N1250 C1253 1.350 . S
N1251 S1249 1.610 . S
N1251 C1252 1.351 . S
C1252 C1246 1.428 . S
C1252 N1251 1.351 . S
C1252 C1253 1.434 . S
C1253 C1244 1.429 . S
C1253 N1250 1.350 . S
C1253 C1252 1.434 . S
C1254 C1255 1.369 . S
C1254 C1256 1.419 . S
C1254 H1258 0.930 . S
C1255 C1254 1.369 . S
C1255 C1264 1.429 . S
C1256 C1254 1.419 . S
C1256 C1257 1.363 . S
C1256 H1259 0.929 . S
C1257 C1256 1.363 . S
C1257 C1263 1.428 . S
H1258 C1254 0.930 . S
H1259 C1256 0.929 . S
S1260 N1261 1.613 . S
S1260 N1262 1.610 . S
N1261 S1260 1.613 . S
N1261 C1264 1.350 . S
N1262 S1260 1.610 . S
N1262 C1263 1.351 . S
C1263 C1257 1.428 . S
C1263 N1262 1.351 . S
C1263 C1264 1.434 . S
C1264 C1255 1.429 . S
C1264 N1261 1.350 . S
C1264 C1263 1.434 . S
C1265 C1266 1.369 . S
C1265 C1267 1.419 . S
C1265 H1269 0.930 . S
C1266 C1265 1.369 . S
C1266 C1275 1.429 . S
C1267 C1265 1.419 . S
C1267 C1268 1.363 . S
C1267 H1270 0.929 . S
C1268 C1267 1.363 . S
C1268 C1274 1.428 . S
H1269 C1265 0.930 . S
H1270 C1267 0.929 . S
S1271 N1272 1.613 . S
S1271 N1273 1.610 . S
N1272 S1271 1.613 . S
N1272 C1275 1.350 . S
N1273 S1271 1.610 . S
N1273 C1274 1.351 . S
C1274 C1268 1.428 . S
C1274 N1273 1.351 . S
C1274 C1275 1.434 . S
C1275 C1266 1.429 . S
C1275 N1272 1.350 . S
C1275 C1274 1.434 . S
C1276 C1277 1.369 . S
C1276 C1278 1.419 . S
C1276 H1280 0.930 . S
C1277 C1276 1.369 . S
C1277 C1286 1.429 . S
C1278 C1276 1.419 . S
C1278 C1279 1.363 . S
C1278 H1281 0.929 . S
C1279 C1278 1.363 . S
C1279 C1285 1.428 . S
H1280 C1276 0.930 . S
H1281 C1278 0.929 . S
S1282 N1283 1.613 . S
S1282 N1284 1.610 . S
N1283 S1282 1.613 . S
N1283 C1286 1.350 . S
N1284 S1282 1.610 . S
N1284 C1285 1.351 . S
C1285 C1279 1.428 . S
C1285 N1284 1.351 . S
C1285 C1286 1.434 . S
C1286 C1277 1.429 . S
C1286 N1283 1.350 . S
C1286 C1285 1.434 . S
C1287 C1288 1.369 . S
C1287 C1289 1.419 . S
C1287 H1291 0.930 . S
C1288 C1287 1.369 . S
C1288 C1297 1.429 . S
C1289 C1287 1.419 . S
C1289 C1290 1.363 . S
C1289 H1292 0.929 . S
C1290 C1289 1.363 . S
C1290 C1296 1.428 . S
H1291 C1287 0.930 . S
H1292 C1289 0.929 . S
S1293 N1294 1.613 . S
S1293 N1295 1.610 . S
N1294 S1293 1.613 . S
N1294 C1297 1.350 . S
N1295 S1293 1.610 . S
N1295 C1296 1.351 . S
C1296 C1290 1.428 . S
C1296 N1295 1.351 . S
C1296 C1297 1.434 . S
C1297 C1288 1.429 . S
C1297 N1294 1.350 . S
C1297 C1296 1.434 . S
C1298 C1299 1.369 . S
C1298 C1300 1.419 . S
C1298 H1302 0.930 . S
C1299 C1298 1.369 . S
C1299 C1308 1.429 . S
C1300 C1298 1.419 . S
C1300 C1301 1.363 . S
C1300 H1303 0.929 . S
C1301 C1300 1.363 . S
C1301 C1307 1.428 . S
H1302 C1298 0.930 . S
H1303 C1300 0.929 . S
S1304 N1305 1.613 . S
S1304 N1306 1.610 . S
N1305 S1304 1.613 . S
N1305 C1308 1.350 . S
N1306 S1304 1.610 . S
N1306 C1307 1.351 . S
C1307 C1301 1.428 . S
C1307 N1306 1.351 . S
C1307 C1308 1.434 . S
C1308 C1299 1.429 . S
C1308 N1305 1.350 . S
C1308 C1307 1.434 . S
C1309 C1310 1.369 . S
C1309 C1311 1.419 . S
C1309 H1313 0.930 . S
C1310 C1309 1.369 . S
C1310 C1319 1.429 . S
C1311 C1309 1.419 . S
C1311 C1312 1.363 . S
C1311 H1314 0.929 . S
C1312 C1311 1.363 . S
C1312 C1318 1.428 . S
H1313 C1309 0.930 . S
H1314 C1311 0.929 . S
S1315 N1316 1.613 . S
S1315 N1317 1.610 . S
N1316 S1315 1.613 . S
N1316 C1319 1.350 . S
N1317 S1315 1.610 . S
N1317 C1318 1.351 . S
C1318 C1312 1.428 . S
C1318 N1317 1.351 . S
C1318 C1319 1.434 . S
C1319 C1310 1.429 . S
C1319 N1316 1.350 . S
C1319 C1318 1.434 . S
C1320 C1321 1.369 . S
C1320 C1322 1.419 . S
C1320 H1324 0.930 . S
C1321 C1320 1.369 . S
C1321 C1330 1.429 . S
C1322 C1320 1.419 . S
C1322 C1323 1.363 . S
C1322 H1325 0.929 . S
C1323 C1322 1.363 . S
C1323 C1329 1.428 . S
H1324 C1320 0.930 . S
H1325 C1322 0.929 . S
S1326 N1327 1.613 . S
S1326 N1328 1.610 . S
N1327 S1326 1.613 . S
N1327 C1330 1.350 . S
N1328 S1326 1.610 . S
N1328 C1329 1.351 . S
C1329 C1323 1.428 . S
C1329 N1328 1.351 . S
C1329 C1330 1.434 . S
C1330 C1321 1.429 . S
C1330 N1327 1.350 . S
C1330 C1329 1.434 . S
C1331 C1332 1.369 . S
C1331 C1333 1.419 . S
C1331 H1335 0.930 . S
C1332 C1331 1.369 . S
C1332 C1341 1.429 . S
C1333 C1331 1.419 . S
C1333 C1334 1.363 . S
C1333 H1336 0.929 . S
C1334 C1333 1.363 . S
C1334 C1340 1.428 . S
H1335 C1331 0.930 . S
H1336 C1333 0.929 . S
S1337 N1338 1.613 . S
S1337 N1339 1.610 . S
N1338 S1337 1.613 . S
N1338 C1341 1.350 . S
N1339 S1337 1.610 . S
N1339 C1340 1.351 . S
C1340 C1334 1.428 . S
C1340 N1339 1.351 . S
C1340 C1341 1.434 . S
C1341 C1332 1.429 . S
C1341 N1338 1.350 . S
C1341 C1340 1.434 . S
C1342 C1343 1.369 . S
C1342 C1344 1.419 . S
C1342 H1346 0.930 . S
C1343 C1342 1.369 . S
C1343 C1352 1.429 . S
C1344 C1342 1.419 . S
C1344 C1345 1.363 . S
C1344 H1347 0.929 . S
C1345 C1344 1.363 . S
C1345 C1351 1.428 . S
H1346 C1342 0.930 . S
H1347 C1344 0.929 . S
S1348 N1349 1.613 . S
S1348 N1350 1.610 . S
N1349 S1348 1.613 . S
N1349 C1352 1.350 . S
N1350 S1348 1.610 . S
N1350 C1351 1.351 . S
C1351 C1345 1.428 . S
C1351 N1350 1.351 . S
C1351 C1352 1.434 . S
C1352 C1343 1.429 . S
C1352 N1349 1.350 . S
C1352 C1351 1.434 . S
C1353 C1354 1.369 . S
C1353 C1355 1.419 . S
C1353 H1357 0.930 . S
C1354 C1353 1.369 . S
C1354 C1363 1.429 . S
C1355 C1353 1.419 . S
C1355 C1356 1.363 . S
C1355 H1358 0.929 . S
C1356 C1355 1.363 . S
C1356 C1362 1.428 . S
H1357 C1353 0.930 . S
H1358 C1355 0.929 . S
S1359 N1360 1.613 . S
S1359 N1361 1.610 . S
N1360 S1359 1.613 . S
N1360 C1363 1.350 . S
N1361 S1359 1.610 . S
N1361 C1362 1.351 . S
C1362 C1356 1.428 . S
C1362 N1361 1.351 . S
C1362 C1363 1.434 . S
C1363 C1354 1.429 . S
C1363 N1360 1.350 . S
C1363 C1362 1.434 . S
C1364 C1365 1.369 . S
C1364 C1366 1.419 . S
C1364 H1368 0.930 . S
C1365 C1364 1.369 . S
C1365 C1374 1.429 . S
C1366 C1364 1.419 . S
C1366 C1367 1.363 . S
C1366 H1369 0.929 . S
C1367 C1366 1.363 . S
C1367 C1373 1.428 . S
H1368 C1364 0.930 . S
H1369 C1366 0.929 . S
S1370 N1371 1.613 . S
S1370 N1372 1.610 . S
N1371 S1370 1.613 . S
N1371 C1374 1.350 . S
N1372 S1370 1.610 . S
N1372 C1373 1.351 . S
C1373 C1367 1.428 . S
C1373 N1372 1.351 . S
C1373 C1374 1.434 . S
C1374 C1365 1.429 . S
C1374 N1371 1.350 . S
C1374 C1373 1.434 . S
C1375 C1376 1.369 . S
C1375 C1377 1.419 . S
C1375 H1379 0.930 . S
C1376 C1375 1.369 . S
C1376 C1385 1.429 . S
C1377 C1375 1.419 . S
C1377 C1378 1.363 . S
C1377 H1380 0.929 . S
C1378 C1377 1.363 . S
C1378 C1384 1.428 . S
H1379 C1375 0.930 . S
H1380 C1377 0.929 . S
S1381 N1382 1.613 . S
S1381 N1383 1.610 . S
N1382 S1381 1.613 . S
N1382 C1385 1.350 . S
N1383 S1381 1.610 . S
N1383 C1384 1.351 . S
C1384 C1378 1.428 . S
C1384 N1383 1.351 . S
C1384 C1385 1.434 . S
C1385 C1376 1.429 . S
C1385 N1382 1.350 . S
C1385 C1384 1.434 . S
C1386 C1387 1.369 . S
C1386 C1388 1.419 . S
C1386 H1390 0.930 . S
C1387 C1386 1.369 . S
C1387 C1396 1.429 . S
C1388 C1386 1.419 . S
C1388 C1389 1.363 . S
C1388 H1391 0.929 . S
C1389 C1388 1.363 . S
C1389 C1395 1.428 . S
H1390 C1386 0.930 . S
H1391 C1388 0.929 . S
S1392 N1393 1.613 . S
S1392 N1394 1.610 . S
N1393 S1392 1.613 . S
N1393 C1396 1.350 . S
N1394 S1392 1.610 . S
N1394 C1395 1.351 . S
C1395 C1389 1.428 . S
C1395 N1394 1.351 . S
C1395 C1396 1.434 . S
C1396 C1387 1.429 . S
C1396 N1393 1.350 . S
C1396 C1395 1.434 . S
C1397 C1398 1.369 . S
C1397 C1399 1.419 . S
C1397 H1401 0.930 . S
C1398 C1397 1.369 . S
C1398 C1407 1.429 . S
C1399 C1397 1.419 . S
C1399 C1400 1.363 . S
C1399 H1402 0.929 . S
C1400 C1399 1.363 . S
C1400 C1406 1.428 . S
H1401 C1397 0.930 . S
H1402 C1399 0.929 . S
S1403 N1404 1.613 . S
S1403 N1405 1.610 . S
N1404 S1403 1.613 . S
N1404 C1407 1.350 . S
N1405 S1403 1.610 . S
N1405 C1406 1.351 . S
C1406 C1400 1.428 . S
C1406 N1405 1.351 . S
C1406 C1407 1.434 . S
C1407 C1398 1.429 . S
C1407 N1404 1.350 . S
C1407 C1406 1.434 . S
C1408 C1409 1.369 . S
C1408 C1410 1.419 . S
C1408 H1412 0.930 . S
C1409 C1408 1.369 . S
C1409 C1418 1.429 1_455 S
C1410 C1408 1.419 . S
C1410 C1411 1.363 1_455 S
C1410 H1413 0.929 . S
C1411 C1410 1.363 1_655 S
C1411 C1417 1.428 . S
H1412 C1408 0.930 . S
H1413 C1410 0.929 . S
S1414 N1415 1.613 . S
S1414 N1416 1.610 . S
N1415 S1414 1.613 . S
N1415 C1418 1.350 . S
N1416 S1414 1.610 . S
N1416 C1417 1.351 . S
C1417 C1411 1.428 . S
C1417 N1416 1.351 . S
C1417 C1418 1.434 . S
C1418 C1409 1.429 1_655 S
C1418 N1415 1.350 . S
C1418 C1417 1.434 . S
C1419 C1420 1.369 . S
C1419 C1421 1.419 . S
C1419 H1423 0.930 . S
C1420 C1419 1.369 . S
C1420 C1429 1.429 1_565 S
C1421 C1419 1.419 . S
C1421 C1422 1.363 1_565 S
C1421 H1424 0.929 . S
C1422 C1421 1.363 1_545 S
C1422 C1428 1.428 . S
H1423 C1419 0.930 . S
H1424 C1421 0.929 . S
S1425 N1426 1.613 . S
S1425 N1427 1.610 . S
N1426 S1425 1.613 . S
N1426 C1429 1.350 . S
N1427 S1425 1.610 . S
N1427 C1428 1.351 . S
C1428 C1422 1.428 . S
C1428 N1427 1.351 . S
C1428 C1429 1.434 . S
C1429 C1420 1.429 1_545 S
C1429 N1426 1.350 . S
C1429 C1428 1.434 . S
C1430 C1431 1.369 . S
C1430 C1432 1.419 . S
C1430 H1434 0.930 . S
C1431 C1430 1.369 . S
C1431 C1440 1.429 1_655 S
C1432 C1430 1.419 . S
C1432 C1433 1.363 1_655 S
C1432 H1435 0.929 . S
C1433 C1432 1.363 1_455 S
C1433 C1439 1.428 . S
H1434 C1430 0.930 . S
H1435 C1432 0.929 . S
S1436 N1437 1.613 . S
S1436 N1438 1.610 . S
N1437 S1436 1.613 . S
N1437 C1440 1.350 . S
N1438 S1436 1.610 . S
N1438 C1439 1.351 . S
C1439 C1433 1.428 . S
C1439 N1438 1.351 . S
C1439 C1440 1.434 . S
C1440 C1431 1.429 1_455 S
C1440 N1437 1.350 . S
C1440 C1439 1.434 . S
C1441 C1442 1.369 1_565 S
C1441 C1443 1.419 . S
C1441 H1445 0.930 . S
C1442 C1441 1.369 1_545 S
C1442 C1451 1.429 . S
C1443 C1441 1.419 . S
C1443 C1444 1.363 . S
C1443 H1446 0.929 . S
C1444 C1443 1.363 . S
C1444 C1450 1.428 1_565 S
H1445 C1441 0.930 . S
H1446 C1443 0.929 . S
S1447 N1448 1.613 . S
S1447 N1449 1.610 . S
N1448 S1447 1.613 . S
N1448 C1451 1.350 . S
N1449 S1447 1.610 . S
N1449 C1450 1.351 . S
C1450 C1444 1.428 1_545 S
C1450 N1449 1.351 . S
C1450 C1451 1.434 . S
C1451 C1442 1.429 . S
C1451 N1448 1.350 . S
C1451 C1450 1.434 . S
C1452 C1453 1.369 . S
C1452 C1454 1.419 1_655 S
C1452 H1456 0.930 . S
C1453 C1452 1.369 . S
C1453 C1462 1.429 . S
C1454 C1452 1.419 1_455 S
C1454 C1455 1.363 . S
C1454 H1457 0.929 . S
C1455 C1454 1.363 . S
C1455 C1461 1.428 . S
H1456 C1452 0.930 . S
H1457 C1454 0.929 . S
S1458 N1459 1.613 1_455 S
S1458 N1460 1.610 . S
N1459 S1458 1.613 1_655 S
N1459 C1462 1.350 . S
N1460 S1458 1.610 . S
N1460 C1461 1.351 . S
C1461 C1455 1.428 . S
C1461 N1460 1.351 . S
C1461 C1462 1.434 1_455 S
C1462 C1453 1.429 . S
C1462 N1459 1.350 . S
C1462 C1461 1.434 1_655 S
C1463 C1464 1.369 1_565 S
C1463 C1465 1.419 . S
C1463 H1467 0.930 . S
C1464 C1463 1.369 1_545 S
C1464 C1473 1.429 . S
C1465 C1463 1.419 . S
C1465 C1466 1.363 . S
C1465 H1468 0.929 . S
C1466 C1465 1.363 . S
C1466 C1472 1.428 1_565 S
H1467 C1463 0.930 . S
H1468 C1465 0.929 . S
S1469 N1470 1.613 . S
S1469 N1471 1.610 . S
N1470 S1469 1.613 . S
N1470 C1473 1.350 . S
N1471 S1469 1.610 . S
N1471 C1472 1.351 . S
C1472 C1466 1.428 1_545 S
C1472 N1471 1.351 . S
C1472 C1473 1.434 . S
C1473 C1464 1.429 . S
C1473 N1470 1.350 . S
C1473 C1472 1.434 . S
C1474 C1475 1.369 . S
C1474 C1476 1.419 . S
C1474 H1478 0.930 . S
C1475 C1474 1.369 . S
C1475 C1484 1.429 1_655 S
C1476 C1474 1.419 . S
C1476 C1477 1.363 1_655 S
C1476 H1479 0.929 . S
C1477 C1476 1.363 1_455 S
C1477 C1483 1.428 . S
H1478 C1474 0.930 . S
H1479 C1476 0.929 . S
S1480 N1481 1.613 . S
S1480 N1482 1.610 . S
N1481 S1480 1.613 . S
N1481 C1484 1.350 . S
N1482 S1480 1.610 . S
N1482 C1483 1.351 . S
C1483 C1477 1.428 . S
C1483 N1482 1.351 . S
C1483 C1484 1.434 . S
C1484 C1475 1.429 1_455 S
C1484 N1481 1.350 . S
C1484 C1483 1.434 . S
C1485 C1486 1.369 . S
C1485 C1487 1.419 . S
C1485 H1489 0.930 . S
C1486 C1485 1.369 . S
C1486 C1495 1.429 1_565 S
C1487 C1485 1.419 . S
C1487 C1488 1.363 1_565 S
C1487 H1490 0.929 . S
C1488 C1487 1.363 1_545 S
C1488 C1494 1.428 . S
H1489 C1485 0.930 . S
H1490 C1487 0.929 . S
S1491 N1492 1.613 . S
S1491 N1493 1.610 . S
N1492 S1491 1.613 . S
N1492 C1495 1.350 . S
N1493 S1491 1.610 . S
N1493 C1494 1.351 . S
C1494 C1488 1.428 . S
C1494 N1493 1.351 . S
C1494 C1495 1.434 . S
C1495 C1486 1.429 1_545 S
C1495 N1492 1.350 . S
C1495 C1494 1.434 . S
C1496 C1497 1.369 . S
C1496 C1498 1.419 . S
C1496 H1500 0.930 . S
C1497 C1496 1.369 . S
C1497 C1506 1.429 . S
C1498 C1496 1.419 . S
C1498 C1499 1.363 . S
C1498 H1501 0.929 . S
C1499 C1498 1.363 . S
C1499 C1505 1.428 . S
H1500 C1496 0.930 . S
H1501 C1498 0.929 . S
S1502 N1503 1.613 . S
S1502 N1504 1.610 . S
N1503 S1502 1.613 . S
N1503 C1506 1.350 . S
N1504 S1502 1.610 . S
N1504 C1505 1.351 . S
C1505 C1499 1.428 . S
C1505 N1504 1.351 . S
C1505 C1506 1.434 . S
C1506 C1497 1.429 . S
C1506 N1503 1.350 . S
C1506 C1505 1.434 . S
C1507 C1508 1.369 . S
C1507 C1509 1.419 . S
C1507 H1511 0.930 . S
C1508 C1507 1.369 . S
C1508 C1517 1.429 . S
C1509 C1507 1.419 . S
C1509 C1510 1.363 . S
C1509 H1512 0.929 . S
C1510 C1509 1.363 . S
C1510 C1516 1.428 . S
H1511 C1507 0.930 . S
H1512 C1509 0.929 . S
S1513 N1514 1.613 . S
S1513 N1515 1.610 . S
N1514 S1513 1.613 . S
N1514 C1517 1.350 . S
N1515 S1513 1.610 . S
N1515 C1516 1.351 . S
C1516 C1510 1.428 . S
C1516 N1515 1.351 . S
C1516 C1517 1.434 . S
C1517 C1508 1.429 . S
C1517 N1514 1.350 . S
C1517 C1516 1.434 . S
C1518 C1519 1.369 . S
C1518 C1520 1.419 . S
C1518 H1522 0.930 . S
C1519 C1518 1.369 . S
C1519 C1528 1.429 . S
C1520 C1518 1.419 . S
C1520 C1521 1.363 . S
C1520 H1523 0.929 . S
C1521 C1520 1.363 . S
C1521 C1527 1.428 . S
H1522 C1518 0.930 . S
H1523 C1520 0.929 . S
S1524 N1525 1.613 . S
S1524 N1526 1.610 . S
N1525 S1524 1.613 . S
N1525 C1528 1.350 . S
N1526 S1524 1.610 . S
N1526 C1527 1.351 . S
C1527 C1521 1.428 . S
C1527 N1526 1.351 . S
C1527 C1528 1.434 . S
C1528 C1519 1.429 . S
C1528 N1525 1.350 . S
C1528 C1527 1.434 . S
C1529 C1530 1.369 . S
C1529 C1531 1.419 . S
C1529 H1533 0.930 . S
C1530 C1529 1.369 . S
C1530 C1539 1.429 . S
C1531 C1529 1.419 . S
C1531 C1532 1.363 . S
C1531 H1534 0.929 . S
C1532 C1531 1.363 . S
C1532 C1538 1.428 . S
H1533 C1529 0.930 . S
H1534 C1531 0.929 . S
S1535 N1536 1.613 . S
S1535 N1537 1.610 . S
N1536 S1535 1.613 . S
N1536 C1539 1.350 . S
N1537 S1535 1.610 . S
N1537 C1538 1.351 . S
C1538 C1532 1.428 . S
C1538 N1537 1.351 . S
C1538 C1539 1.434 . S
C1539 C1530 1.429 . S
C1539 N1536 1.350 . S
C1539 C1538 1.434 . S
C1540 C1541 1.369 . S
C1540 C1542 1.419 . S
C1540 H1544 0.930 . S
C1541 C1540 1.369 . S
C1541 C1550 1.429 . S
C1542 C1540 1.419 . S
C1542 C1543 1.363 . S
C1542 H1545 0.929 . S
C1543 C1542 1.363 . S
C1543 C1549 1.428 . S
H1544 C1540 0.930 . S
H1545 C1542 0.929 . S
S1546 N1547 1.613 . S
S1546 N1548 1.610 . S
N1547 S1546 1.613 . S
N1547 C1550 1.350 . S
N1548 S1546 1.610 . S
N1548 C1549 1.351 . S
C1549 C1543 1.428 . S
C1549 N1548 1.351 . S
C1549 C1550 1.434 . S
C1550 C1541 1.429 . S
C1550 N1547 1.350 . S
C1550 C1549 1.434 . S
C1551 C1552 1.369 . S
C1551 C1553 1.419 . S
C1551 H1555 0.930 . S
C1552 C1551 1.369 . S
C1552 C1561 1.429 . S
C1553 C1551 1.419 . S
C1553 C1554 1.363 . S
C1553 H1556 0.929 . S
C1554 C1553 1.363 . S
C1554 C1560 1.428 . S
H1555 C1551 0.930 . S
H1556 C1553 0.929 . S
S1557 N1558 1.613 . S
S1557 N1559 1.610 . S
N1558 S1557 1.613 . S
N1558 C1561 1.350 . S
N1559 S1557 1.610 . S
N1559 C1560 1.351 . S
C1560 C1554 1.428 . S
C1560 N1559 1.351 . S
C1560 C1561 1.434 . S
C1561 C1552 1.429 . S
C1561 N1558 1.350 . S
C1561 C1560 1.434 . S
C1562 C1563 1.369 . S
C1562 C1564 1.419 . S
C1562 H1566 0.930 . S
C1563 C1562 1.369 . S
C1563 C1572 1.429 . S
C1564 C1562 1.419 . S
C1564 C1565 1.363 . S
C1564 H1567 0.929 . S
C1565 C1564 1.363 . S
C1565 C1571 1.428 . S
H1566 C1562 0.930 . S
H1567 C1564 0.929 . S
S1568 N1569 1.613 . S
S1568 N1570 1.610 . S
N1569 S1568 1.613 . S
N1569 C1572 1.350 . S
N1570 S1568 1.610 . S
N1570 C1571 1.351 . S
C1571 C1565 1.428 . S
C1571 N1570 1.351 . S
C1571 C1572 1.434 . S
C1572 C1563 1.429 . S
C1572 N1569 1.350 . S
C1572 C1571 1.434 . S
C1573 C1574 1.369 . S
C1573 C1575 1.419 . S
C1573 H1577 0.930 . S
C1574 C1573 1.369 . S
C1574 C1583 1.429 . S
C1575 C1573 1.419 . S
C1575 C1576 1.363 . S
C1575 H1578 0.929 . S
C1576 C1575 1.363 . S
C1576 C1582 1.428 . S
H1577 C1573 0.930 . S
H1578 C1575 0.929 . S
S1579 N1580 1.613 . S
S1579 N1581 1.610 . S
N1580 S1579 1.613 . S
N1580 C1583 1.350 . S
N1581 S1579 1.610 . S
N1581 C1582 1.351 . S
C1582 C1576 1.428 . S
C1582 N1581 1.351 . S
C1582 C1583 1.434 . S
C1583 C1574 1.429 . S
C1583 N1580 1.350 . S
C1583 C1582 1.434 . S
C1584 C1585 1.369 . S
C1584 C1586 1.419 1_556 S
C1584 H1588 0.930 . S
C1585 C1584 1.369 . S
C1585 C1594 1.429 . S
C1586 C1584 1.419 1_554 S
C1586 C1587 1.363 . S
C1586 H1589 0.929 . S
C1587 C1586 1.363 . S
C1587 C1593 1.428 . S
H1588 C1584 0.930 . S
H1589 C1586 0.929 . S
S1590 N1591 1.616 1_554 S
S1590 N1592 1.608 . S
N1591 S1590 1.616 1_556 S
N1591 C1594 1.350 . S
N1592 S1590 1.608 . S
N1592 C1593 1.351 . S
C1593 C1587 1.428 . S
C1593 N1592 1.351 . S
C1593 C1594 1.434 1_554 S
C1594 C1585 1.429 . S
C1594 N1591 1.350 . S
C1594 C1593 1.434 1_556 S
C1595 C1596 1.369 . S
C1595 C1597 1.419 1_554 S
C1595 H1599 0.930 . S
C1596 C1595 1.369 . S
C1596 C1605 1.429 . S
C1597 C1595 1.419 1_556 S
C1597 C1598 1.363 . S
C1597 H1600 0.929 . S
C1598 C1597 1.363 . S
C1598 C1604 1.428 . S
H1599 C1595 0.930 . S
H1600 C1597 0.929 . S
S1601 N1602 1.616 1_556 S
S1601 N1603 1.608 . S
N1602 S1601 1.616 1_554 S
N1602 C1605 1.350 . S
N1603 S1601 1.608 . S
N1603 C1604 1.351 . S
C1604 C1598 1.428 . S
C1604 N1603 1.351 . S
C1604 C1605 1.434 1_556 S
C1605 C1596 1.429 . S
C1605 N1602 1.350 . S
C1605 C1604 1.434 1_554 S
C1606 C1607 1.369 . S
C1606 C1608 1.419 1_556 S
C1606 H1610 0.930 . S
C1607 C1606 1.369 . S
C1607 C1616 1.429 . S
C1608 C1606 1.419 1_554 S
C1608 C1609 1.363 . S
C1608 H1611 0.929 . S
C1609 C1608 1.363 . S
C1609 C1615 1.428 . S
H1610 C1606 0.930 . S
H1611 C1608 0.929 . S
S1612 N1613 1.616 1_554 S
S1612 N1614 1.608 . S
N1613 S1612 1.616 1_556 S
N1613 C1616 1.350 . S
N1614 S1612 1.608 . S
N1614 C1615 1.351 . S
C1615 C1609 1.428 . S
C1615 N1614 1.351 . S
C1615 C1616 1.434 1_554 S
C1616 C1607 1.429 . S
C1616 N1613 1.350 . S
C1616 C1615 1.434 1_556 S
C1617 C1618 1.369 . S
C1617 C1619 1.419 1_556 S
C1617 H1621 0.930 . S
C1618 C1617 1.369 . S
C1618 C1627 1.429 . S
C1619 C1617 1.419 1_554 S
C1619 C1620 1.363 . S
C1619 H1622 0.929 . S
C1620 C1619 1.363 . S
C1620 C1626 1.428 . S
H1621 C1617 0.930 . S
H1622 C1619 0.929 . S
S1623 N1624 1.616 1_554 S
S1623 N1625 1.608 . S
N1624 S1623 1.616 1_556 S
N1624 C1627 1.350 . S
N1625 S1623 1.608 . S
N1625 C1626 1.351 . S
C1626 C1620 1.428 . S
C1626 N1625 1.351 . S
C1626 C1627 1.434 1_554 S
C1627 C1618 1.429 . S
C1627 N1624 1.350 . S
C1627 C1626 1.434 1_556 S
C1628 C1629 1.369 . S
C1628 C1630 1.419 . S
C1628 H1632 0.930 . S
C1629 C1628 1.369 . S
C1629 C1638 1.429 . S
C1630 C1628 1.419 . S
C1630 C1631 1.363 . S
C1630 H1633 0.929 . S
C1631 C1630 1.363 . S
C1631 C1637 1.428 . S
H1632 C1628 0.930 . S
H1633 C1630 0.929 . S
S1634 N1635 1.613 . S
S1634 N1636 1.610 . S
N1635 S1634 1.613 . S
N1635 C1638 1.350 . S
N1636 S1634 1.610 . S
N1636 C1637 1.351 . S
C1637 C1631 1.428 . S
C1637 N1636 1.351 . S
C1637 C1638 1.434 . S
C1638 C1629 1.429 . S
C1638 N1635 1.350 . S
C1638 C1637 1.434 . S
C1639 C1640 1.369 . S
C1639 C1641 1.419 . S
C1639 H1643 0.930 . S
C1640 C1639 1.369 . S
C1640 C1649 1.429 . S
C1641 C1639 1.419 . S
C1641 C1642 1.363 . S
C1641 H1644 0.929 . S
C1642 C1641 1.363 . S
C1642 C1648 1.428 . S
H1643 C1639 0.930 . S
H1644 C1641 0.929 . S
S1645 N1646 1.613 . S
S1645 N1647 1.610 . S
N1646 S1645 1.613 . S
N1646 C1649 1.350 . S
N1647 S1645 1.610 . S
N1647 C1648 1.351 . S
C1648 C1642 1.428 . S
C1648 N1647 1.351 . S
C1648 C1649 1.434 . S
C1649 C1640 1.429 . S
C1649 N1646 1.350 . S
C1649 C1648 1.434 . S
C1650 C1651 1.369 . S
C1650 C1652 1.419 . S
C1650 H1654 0.930 . S
C1651 C1650 1.369 . S
C1651 C1660 1.429 . S
C1652 C1650 1.419 . S
C1652 C1653 1.363 . S
C1652 H1655 0.929 . S
C1653 C1652 1.363 . S
C1653 C1659 1.428 . S
H1654 C1650 0.930 . S
H1655 C1652 0.929 . S
S1656 N1657 1.613 . S
S1656 N1658 1.610 . S
N1657 S1656 1.613 . S
N1657 C1660 1.350 . S
N1658 S1656 1.610 . S
N1658 C1659 1.351 . S
C1659 C1653 1.428 . S
C1659 N1658 1.351 . S
C1659 C1660 1.434 . S
C1660 C1651 1.429 . S
C1660 N1657 1.350 . S
C1660 C1659 1.434 . S
C1661 C1662 1.369 . S
C1661 C1663 1.419 . S
C1661 H1665 0.930 . S
C1662 C1661 1.369 . S
C1662 C1671 1.429 . S
C1663 C1661 1.419 . S
C1663 C1664 1.363 . S
C1663 H1666 0.929 . S
C1664 C1663 1.363 . S
C1664 C1670 1.428 . S
H1665 C1661 0.930 . S
H1666 C1663 0.929 . S
S1667 N1668 1.613 . S
S1667 N1669 1.610 . S
N1668 S1667 1.613 . S
N1668 C1671 1.350 . S
N1669 S1667 1.610 . S
N1669 C1670 1.351 . S
C1670 C1664 1.428 . S
C1670 N1669 1.351 . S
C1670 C1671 1.434 . S
C1671 C1662 1.429 . S
C1671 N1668 1.350 . S
C1671 C1670 1.434 . S
C1672 C1673 1.369 . S
C1672 C1674 1.419 . S
C1672 H1676 0.930 . S
C1673 C1672 1.369 . S
C1673 C1682 1.429 . S
C1674 C1672 1.419 . S
C1674 C1675 1.363 . S
C1674 H1677 0.929 . S
C1675 C1674 1.363 . S
C1675 C1681 1.428 . S
H1676 C1672 0.930 . S
H1677 C1674 0.929 . S
S1678 N1679 1.613 . S
S1678 N1680 1.610 . S
N1679 S1678 1.613 . S
N1679 C1682 1.350 . S
N1680 S1678 1.610 . S
N1680 C1681 1.351 . S
C1681 C1675 1.428 . S
C1681 N1680 1.351 . S
C1681 C1682 1.434 . S
C1682 C1673 1.429 . S
C1682 N1679 1.350 . S
C1682 C1681 1.434 . S
C1683 C1684 1.369 . S
C1683 C1685 1.419 . S
C1683 H1687 0.930 . S
C1684 C1683 1.369 . S
C1684 C1693 1.429 . S
C1685 C1683 1.419 . S
C1685 C1686 1.363 . S
C1685 H1688 0.929 . S
C1686 C1685 1.363 . S
C1686 C1692 1.428 . S
H1687 C1683 0.930 . S
H1688 C1685 0.929 . S
S1689 N1690 1.613 . S
S1689 N1691 1.610 . S
N1690 S1689 1.613 . S
N1690 C1693 1.350 . S
N1691 S1689 1.610 . S
N1691 C1692 1.351 . S
C1692 C1686 1.428 . S
C1692 N1691 1.351 . S
C1692 C1693 1.434 . S
C1693 C1684 1.429 . S
C1693 N1690 1.350 . S
C1693 C1692 1.434 . S
C1694 C1695 1.369 . S
C1694 C1696 1.419 . S
C1694 H1698 0.930 . S
C1695 C1694 1.369 . S
C1695 C1704 1.429 . S
C1696 C1694 1.419 . S
C1696 C1697 1.363 . S
C1696 H1699 0.929 . S
C1697 C1696 1.363 . S
C1697 C1703 1.428 . S
H1698 C1694 0.930 . S
H1699 C1696 0.929 . S
S1700 N1701 1.613 . S
S1700 N1702 1.610 . S
N1701 S1700 1.613 . S
N1701 C1704 1.350 . S
N1702 S1700 1.610 . S
N1702 C1703 1.351 . S
C1703 C1697 1.428 . S
C1703 N1702 1.351 . S
C1703 C1704 1.434 . S
C1704 C1695 1.429 . S
C1704 N1701 1.350 . S
C1704 C1703 1.434 . S
C1705 C1706 1.369 . S
C1705 C1707 1.419 . S
C1705 H1709 0.930 . S
C1706 C1705 1.369 . S
C1706 C1715 1.429 . S
C1707 C1705 1.419 . S
C1707 C1708 1.363 . S
C1707 H1710 0.929 . S
C1708 C1707 1.363 . S
C1708 C1714 1.428 . S
H1709 C1705 0.930 . S
H1710 C1707 0.929 . S
S1711 N1712 1.613 . S
S1711 N1713 1.610 . S
N1712 S1711 1.613 . S
N1712 C1715 1.350 . S
N1713 S1711 1.610 . S
N1713 C1714 1.351 . S
C1714 C1708 1.428 . S
C1714 N1713 1.351 . S
C1714 C1715 1.434 . S
C1715 C1706 1.429 . S
C1715 N1712 1.350 . S
C1715 C1714 1.434 . S
C1716 C1717 1.369 . S
C1716 C1718 1.419 1_554 S
C1716 H1720 0.930 . S
C1717 C1716 1.369 . S
C1717 C1726 1.429 . S
C1718 C1716 1.419 1_556 S
C1718 C1719 1.363 . S
C1718 H1721 0.929 . S
C1719 C1718 1.363 . S
C1719 C1725 1.428 . S
H1720 C1716 0.930 . S
H1721 C1718 0.929 . S
S1722 N1723 1.616 1_556 S
S1722 N1724 1.608 . S
N1723 S1722 1.616 1_554 S
N1723 C1726 1.350 . S
N1724 S1722 1.608 . S
N1724 C1725 1.351 . S
C1725 C1719 1.428 . S
C1725 N1724 1.351 . S
C1725 C1726 1.434 1_556 S
C1726 C1717 1.429 . S
C1726 N1723 1.350 . S
C1726 C1725 1.434 1_554 S
C1727 C1728 1.369 . S
C1727 C1729 1.419 1_556 S
C1727 H1731 0.930 . S
C1728 C1727 1.369 . S
C1728 C1737 1.429 . S
C1729 C1727 1.419 1_554 S
C1729 C1730 1.363 . S
C1729 H1732 0.929 . S
C1730 C1729 1.363 . S
C1730 C1736 1.428 . S
H1731 C1727 0.930 . S
H1732 C1729 0.929 . S
S1733 N1734 1.616 1_554 S
S1733 N1735 1.608 . S
N1734 S1733 1.616 1_556 S
N1734 C1737 1.350 . S
N1735 S1733 1.608 . S
N1735 C1736 1.351 . S
C1736 C1730 1.428 . S
C1736 N1735 1.351 . S
C1736 C1737 1.434 1_554 S
C1737 C1728 1.429 . S
C1737 N1734 1.350 . S
C1737 C1736 1.434 1_556 S
C1738 C1739 1.369 . S
C1738 C1740 1.419 1_556 S
C1738 H1742 0.930 . S
C1739 C1738 1.369 . S
C1739 C1748 1.429 . S
C1740 C1738 1.419 1_554 S
C1740 C1741 1.363 . S
C1740 H1743 0.929 . S
C1741 C1740 1.363 . S
C1741 C1747 1.428 . S
H1742 C1738 0.930 . S
H1743 C1740 0.929 . S
S1744 N1745 1.616 1_554 S
S1744 N1746 1.608 . S
N1745 S1744 1.616 1_556 S
N1745 C1748 1.350 . S
N1746 S1744 1.608 . S
N1746 C1747 1.351 . S
C1747 C1741 1.428 . S
C1747 N1746 1.351 . S
C1747 C1748 1.434 1_554 S
C1748 C1739 1.429 . S
C1748 N1745 1.350 . S
C1748 C1747 1.434 1_556 S
C1749 C1750 1.369 . S
C1749 C1751 1.419 1_554 S
C1749 H1753 0.930 . S
C1750 C1749 1.369 . S
C1750 C1759 1.429 . S
C1751 C1749 1.419 1_556 S
C1751 C1752 1.363 . S
C1751 H1754 0.929 . S
C1752 C1751 1.363 . S
C1752 C1758 1.428 . S
H1753 C1749 0.930 . S
H1754 C1751 0.929 . S
S1755 N1756 1.616 1_556 S
S1755 N1757 1.608 . S
N1756 S1755 1.616 1_554 S
N1756 C1759 1.350 . S
N1757 S1755 1.608 . S
N1757 C1758 1.351 . S
C1758 C1752 1.428 . S
C1758 N1757 1.351 . S
C1758 C1759 1.434 1_556 S
C1759 C1750 1.429 . S
C1759 N1756 1.350 . S
C1759 C1758 1.434 1_554 S
C705 C118 1.258 . S
C707 C8 1.260 . S
C716 C136 1.265 . S
C718 C26 1.267 . S
C727 C52 1.259 . S
C729 C158 1.262 . S
C738 C92 1.267 . S
C740 C74 1.264 . S
C749 C180 1.258 . S
C751 C294 1.260 . S
C760 C316 1.263 . S
C762 C202 1.261 . S
C771 C334 1.264 . S
C773 C224 1.266 . S
C782 C250 1.260 . S
C784 C272 1.263 . S
C793 C360 1.258 . S
C795 C470 1.260 . S
C804 C488 1.259 . S
C806 C378 1.263 . S
C815 C404 1.267 . S
C817 C510 1.264 . S
C826 C426 1.258 . S
C828 C444 1.259 . S
C837 C646 1.258 . S
C839 C532 1.260 . S
C848 C668 1.268 . S
C850 C554 1.266 . S
C859 C686 1.264 . S
C861 C576 1.266 . S
C870 C602 1.263 . S
C872 C624 1.261 . S
C881 C647 1.347 . S
C883 C7 1.346 . S
C892 C669 1.343 . S
C894 C28 1.344 . S
C903 C687 1.347 . S
C905 C51 1.347 . S
C914 C73 1.350 . S
C916 C625 1.349 . S
C925 C94 1.343 . S
C927 C603 1.343 . S
C936 C533 1.346 . S
C938 C117 1.345 . S
C947 C138 1.347 . S
C949 C555 1.347 . S
C958 C577 1.344 . S
C960 C160 1.345 . S
C969 C469 1.350 . S
C971 C181 1.349 . S
C980 C490 1.348 . S
C982 C203 1.348 . S
C991 C225 1.350 . S
C993 C512 1.349 . S
C1002 C446 1.342 . S
C1004 C251 1.343 . S
C1013 C425 1.349 . S
C1015 C273 1.348 . S
C1024 C295 1.347 . S
C1026 C359 1.347 . S
C1035 C317 1.342 . S
C1037 C380 1.343 . S
C1046 C403 1.345 . S
C1048 C335 1.345 . S
C1057 C72 1.488 1_545 S
C1059 C4 1.446 . S
C1068 C6 1.495 1_655 S
C1070 C30 1.454 . S
C1079 C48 1.453 . S
C1081 C29 1.492 1_565 S
C1090 C70 1.450 . S
C1092 C50 1.490 1_455 S
C1101 C116 1.497 1_565 S
C1103 C96 1.453 . S
C1112 C139 1.491 1_455 S
C1114 C114 1.452 . S
C1123 C161 1.489 1_545 S
C1125 C140 1.449 . S
C1134 C162 1.447 . S
C1136 C95 1.489 1_655 S
C1145 C247 1.495 1_565 S
C1147 C184 1.449 . S
C1156 C185 1.494 1_455 S
C1158 C206 1.454 . S
C1167 C228 1.454 . S
C1169 C207 1.492 1_545 S
C1178 C246 1.449 . S
C1180 C229 1.495 1_655 S
C1189 C291 1.495 1_545 S
C1191 C268 1.455 . S
C1200 C290 1.446 . S
C1202 C313 1.493 1_655 S
C1211 C312 1.444 . S
C1213 C339 1.490 1_565 S
C1222 C338 1.446 . S
C1224 C269 1.493 1_455 S
C1233 C424 1.497 . S
C1235 C356 1.452 . S
C1244 C382 1.453 . S
C1246 C358 1.492 . S
C1255 C381 1.495 . S
C1257 C400 1.450 . S
C1266 C422 1.449 . S
C1268 C402 1.494 . S
C1277 C448 1.445 . S
C1279 C468 1.491 . S
C1288 C491 1.488 . S
C1290 C466 1.445 . S
C1299 C492 1.448 . S
C1301 C513 1.489 . S
C1310 C514 1.456 . S
C1312 C447 1.496 . S
C1321 C599 1.488 . S
C1323 C536 1.446 . S
C1332 C558 1.455 . S
C1334 C537 1.496 . S
C1343 C580 1.448 . S
C1345 C559 1.489 . S
C1354 C598 1.455 . S
C1356 C581 1.496 . S
C1365 C643 1.488 . S
C1367 C620 1.449 . S
C1376 C642 1.451 . S
C1378 C665 1.490 . S
C1387 C691 1.488 . S
C1389 C664 1.446 . S
C1398 C621 1.488 . S
C1400 C690 1.448 . S
C1409 C9 1.342 . S
C1411 C137 1.344 . S
C1420 C159 1.340 . S
C1422 C27 1.344 . S
C1431 C53 1.335 . S
C1433 C93 1.339 . S
C1442 C119 1.344 . S
C1444 C75 1.340 . S
C1453 C182 1.335 . S
C1455 C315 1.336 . S
C1464 C336 1.342 . S
C1466 C204 1.337 . S
C1475 C271 1.335 . S
C1477 C226 1.337 . S
C1486 C293 1.337 . S
C1488 C249 1.342 . S
C1497 C489 1.340 . S
C1499 C361 1.344 . S
C1508 C379 1.340 . S
C1510 C511 1.337 . S
C1519 C445 1.335 . S
C1521 C405 1.339 . S
C1530 C427 1.338 . S
C1532 C471 1.342 . S
C1541 C534 1.340 . S
C1543 C667 1.344 . S
C1552 C688 1.344 . S
C1554 C556 1.338 . S
C1563 C623 1.346 . S
C1565 C578 1.344 . S
C1574 C645 1.341 . S
C1576 C601 1.345 . S
C1585 C227 1.456 . S
C1587 C5 1.456 . S
C1596 C31 1.458 . S
C1598 C248 1.458 . S
C1607 C183 1.458 . S
C1609 C49 1.458 . S
C1618 C205 1.458 . S
C1620 C71 1.458 . S
C1629 C314 1.456 . S
C1631 C97 1.457 . S
C1640 C115 1.458 . S
C1642 C337 1.458 . S
C1651 C270 1.456 . S
C1653 C141 1.456 . S
C1662 C163 1.458 . S
C1664 C292 1.458 . S
C1673 C579 1.457 . S
C1675 C357 1.457 . S
C1684 C600 1.457 . S
C1686 C383 1.457 . S
C1695 C401 1.458 . S
C1697 C535 1.458 . S
C1706 C423 1.457 . S
C1708 C557 1.457 . S
C1717 C666 1.458 . S
C1719 C449 1.458 . S
C1728 C467 1.457 . S
C1730 C689 1.457 . S
C1739 C493 1.459 . S
C1741 C622 1.458 . S
C1750 C644 1.458 . S
C1752 C515 1.458 . S
