# Generated by pormake.
# Topology ilc, (8)-cn, num edge types: 1
# Building blocks:
#     Node 0, Type 0, BuildingBlock: TAGTUT_clean_sbu_1, # of connection points: 8
#     Node 1, Type 0, BuildingBlock: TAGTUT_clean_sbu_1, # of connection points: 8
#     Node 2, Type 0, BuildingBlock: TAGTUT_clean_sbu_1, # of connection points: 8
#     Edge 3, Type (0, 0), BuildingBlock: FUNLAD_clean_linker_1, # of connection points: 2
#     Edge 4, Type (0, 0), BuildingBlock: FUNLAD_clean_linker_1, # of connection points: 2
#     Edge 5, Type (0, 0), BuildingBlock: FUNLAD_clean_linker_1, # of connection points: 2
#     Edge 6, Type (0, 0), BuildingBlock: FUNLAD_clean_linker_1, # of connection points: 2
#     Edge 7, Type (0, 0), BuildingBlock: FUNLAD_clean_linker_1, # of connection points: 2
#     Edge 8, Type (0, 0), BuildingBlock: FUNLAD_clean_linker_1, # of connection points: 2
#     Edge 9, Type (0, 0), BuildingBlock: FUNLAD_clean_linker_1, # of connection points: 2
#     Edge 10, Type (0, 0), BuildingBlock: FUNLAD_clean_linker_1, # of connection points: 2
#     Edge 11, Type (0, 0), BuildingBlock: FUNLAD_clean_linker_1, # of connection points: 2
#     Edge 12, Type (0, 0), BuildingBlock: FUNLAD_clean_linker_1, # of connection points: 2
#     Edge 13, Type (0, 0), BuildingBlock: FUNLAD_clean_linker_1, # of connection points: 2
#     Edge 14, Type (0, 0), BuildingBlock: FUNLAD_clean_linker_1, # of connection points: 2
# Relax obj value: 0.133
# Max RMSD: 0.140
# Mean RMSD: 0.140
data_MOF--net-ilc--node1-TAGTUT_clean_sbu_1--edge1-FUNLAD_clean_linker_1
_symmetry_space_group_name_H-M    P1
_symmetry_Int_Tables_number       1
_symmetry_cell_setting            triclinic
loop_
_symmetry_equiv_pos_as_xyz
'x, y, z'
_cell_length_a     26.987793
_cell_length_b     29.723303
_cell_length_c     15.294693
_cell_angle_alpha  97.870822
_cell_angle_beta   86.646992
_cell_angle_gamma 135.08544
loop_
_atom_site_label
_atom_site_type_symbol
_atom_site_fract_x
_atom_site_fract_y
_atom_site_fract_z
_atom_type_partial_charge
C0 C 0.10637 0.91228 0.13016 0.0
C1 C 0.11633 0.06182 0.22767 0.0
C2 C 0.87865 0.94193 0.08077 0.0
Mg3 Mg 0.15629 0.03112 0.06004 0.0
O4 O 0.06201 0.97513 0.02019 0.0
Mg5 Mg 0.98632 0.91926 0.10196 0.0
Mg6 Mg 0.0288 0.01233 -0.01813 0.0
O7 O 0.99699 0.05099 0.94345 0.0
Mg8 Mg 0.90367 1.0021 0.90817 0.0
Mg9 Mg 0.07267 0.10504 0.86103 0.0
C10 C 0.18123 0.08798 0.88659 0.0
C11 C 0.12866 0.16323 0.06794 0.0
O12 O 0.04414 0.88918 0.13597 0.0
O13 O 0.15644 0.9647 0.09863 0.0
O14 O 0.05421 1.00505 0.21181 0.0
O15 O 0.16614 0.08508 0.17609 0.0
O16 O 0.20461 0.07791 0.94341 0.0
O17 O 0.1212 0.06908 0.89365 0.0
C18 C 0.93117 0.86206 0.89382 0.0
O19 O 0.9613 0.91891 0.88311 0.0
O20 O 0.93086 0.84792 0.97022 0.0
O21 O 1.02112 0.13896 0.82885 0.0
O22 O 0.90987 0.07359 0.86982 0.0
O23 O 1.00043 0.01797 0.75194 0.0
C24 C 0.96322 0.12356 0.836 0.0
O25 O 0.88837 0.9451 0.79222 0.0
O26 O 0.85893 0.957 0.02691 0.0
C27 C 0.93607 0.9632 0.73925 0.0
O28 O 0.93494 0.95416 0.06963 0.0
O29 O 0.09744 0.1063 0.08017 0.0
O30 O 0.1294 0.17685 -0.00901 0.0
C31 C 0.78815 0.26181 0.47272 0.0
C32 C 0.78531 0.40241 0.56421 0.0
C33 C 0.53974 0.25178 0.38483 0.0
Mg34 Mg 0.8358 0.37871 0.39854 0.0
O35 O 0.74202 0.32092 0.35556 0.0
Mg36 Mg 0.664 0.26 0.43232 0.0
Mg37 Mg 0.69955 0.34832 0.30963 0.0
O38 O 0.65471 0.3727 0.26136 0.0
Mg39 Mg 0.56447 0.30393 0.20478 0.0
Mg40 Mg 0.73388 0.43764 0.18831 0.0
C41 C 0.85855 0.44045 0.22854 0.0
C42 C 0.7755 0.49309 0.39926 0.0
O43 O 0.72643 0.2392 0.47441 0.0
O44 O 0.83953 0.31372 0.44029 0.0
O45 O 0.72374 0.34514 0.54634 0.0
O46 O 0.83659 0.42664 0.51469 0.0
O47 O 0.88389 0.43214 0.28541 0.0
O48 O 0.79546 0.41535 0.23071 0.0
C49 C 0.61811 0.20161 0.22343 0.0
O50 O 0.64515 0.2571 0.21112 0.0
O51 O 0.61672 0.18847 0.30111 0.0
O52 O 0.66206 0.45063 0.14294 0.0
O53 O 0.54957 0.35884 0.15891 0.0
O54 O 0.68861 0.35895 0.07283 0.0
C55 C 0.59537 0.41542 0.13654 0.0
O56 O 0.58044 0.26413 0.09245 0.0
O57 O 0.51248 0.25255 0.31958 0.0
C58 C 0.63552 0.29894 0.04863 0.0
O59 O 0.60504 0.28325 0.38933 0.0
O60 O 0.75285 0.439 0.41009 0.0
O61 O 0.77458 0.50578 0.32226 0.0
C62 C 0.46346 0.60837 0.81336 0.0
C63 C 0.43227 0.73216 0.89978 0.0
C64 C 0.18376 0.56458 0.73478 0.0
Mg65 Mg 0.48852 0.71497 0.74052 0.0
O66 O 0.39416 0.64676 0.69583 0.0
Mg67 Mg 0.32162 0.58463 0.77614 0.0
Mg68 Mg 0.34388 0.66786 0.65477 0.0
O69 O 0.29353 0.68837 0.61264 0.0
Mg70 Mg 0.20123 0.61844 0.56169 0.0
Mg71 Mg 0.367 0.75142 0.53281 0.0
C72 C 0.50048 0.76273 0.56288 0.0
C73 C 0.4214 0.81472 0.738 0.0
O74 O 0.39734 0.57491 0.81528 0.0
O75 O 0.50746 0.66227 0.7832 0.0
O76 O 0.37832 0.67175 0.8807 0.0
O77 O 0.48549 0.7637 0.85279 0.0
O78 O 0.52981 0.75995 0.62194 0.0
O79 O 0.43664 0.73614 0.56863 0.0
C80 C 0.26782 0.52186 0.57049 0.0
O81 O 0.28853 0.575 0.55872 0.0
O82 O 0.27386 0.51169 0.6468 0.0
O83 O 0.29014 0.76028 0.4954 0.0
O84 O 0.17997 0.66985 0.52227 0.0
O85 O 0.31412 0.66726 0.42501 0.0
C86 C 0.22351 0.72518 0.49613 0.0
O87 O 0.20733 0.57347 0.44763 0.0
O88 O 0.15531 0.56555 0.67202 0.0
C89 C 0.26146 0.60701 0.40268 0.0
O90 O 0.25056 0.59915 0.74036 0.0
O91 O 0.39919 0.76106 0.75071 0.0
O92 O 0.41555 0.82461 0.66143 0.0
H93 H 0.94745 0.91516 0.63722 0.0
C94 C 0.91553 0.92462 0.65414 0.0
H95 H 0.86696 0.94915 0.60833 0.0
H96 H 0.17412 0.17027 0.48808 0.0
H97 H 0.15691 0.22888 0.58695 0.0
H98 H 0.04503 0.17156 0.65693 0.0
H99 H 0.94917 0.05517 0.63127 0.0
C100 C 0.89757 0.93844 0.59092 0.0
C101 C 0.95 0.97326 0.52383 0.0
C102 C 1.00431 0.04152 0.53951 0.0
C103 C 0.06841 0.07493 0.49754 0.0
C104 C 0.12352 0.1428 0.51668 0.0
C105 C 0.11467 0.17695 0.57383 0.0
C106 C 0.05151 0.14447 0.61376 0.0
C107 C 0.99702 0.0776 0.59808 0.0
H108 H 0.10286 0.11106 0.32312 0.0
C109 C 0.1312 0.09735 0.31364 0.0
H110 H 0.16383 0.06135 0.36892 0.0
H111 H 0.85048 0.84463 0.46926 0.0
H112 H 0.86437 0.78554 0.36361 0.0
H113 H 0.97617 0.84229 0.29231 0.0
H114 H 0.07558 0.95748 0.3274 0.0
C115 C 0.13656 0.0759 0.37992 0.0
C116 C 0.07685 0.04039 0.43785 0.0
C117 C 1.02139 0.97212 0.41976 0.0
C118 C 0.95712 0.93897 0.46116 0.0
C119 C 0.90085 0.87141 0.44015 0.0
C120 C 0.908 0.83715 0.37957 0.0
C121 C 0.97115 0.8692 0.33957 0.0
C122 C 0.02764 0.93566 0.35988 0.0
H123 H 0.75252 0.42163 0.68211 0.0
C124 C 0.79909 0.43732 0.65103 0.0
H125 H 0.90043 0.47591 0.66975 0.0
H126 H 0.65116 0.37928 0.94406 0.0
H127 H 0.69283 0.48352 0.95537 0.0
H128 H 0.80374 0.57331 0.89201 0.0
H129 H 0.87491 0.55826 0.81728 0.0
C130 C 0.85626 0.46478 0.7013 0.0
C131 C 0.84356 0.44938 0.79294 0.0
C132 C 0.8063 0.45956 0.84273 0.0
C133 C 0.74232 0.40729 0.87775 0.0
C134 C 0.70117 0.41697 0.91722 0.0
C135 C 0.72413 0.4767 0.92352 0.0
C136 C 0.78683 0.52742 0.8882 0.0
C137 C 0.82717 0.5187 0.84657 0.0
H138 H 0.68168 0.26943 -0.01132 0.0
C139 C 0.64362 0.27006 0.97198 0.0
H140 H 0.60733 0.28483 0.8763 0.0
H141 H 0.93019 0.43468 0.74944 0.0
H142 H 0.90311 0.3369 0.7529 0.0
H143 H 0.78939 0.24109 0.80396 0.0
H144 H 0.70335 0.24251 0.85487 0.0
C145 C 0.64918 0.28953 0.8951 0.0
C146 C 0.72055 0.34681 0.8692 0.0
C147 C 0.76834 0.34295 0.83815 0.0
C148 C 0.83234 0.39661 0.80448 0.0
C149 C 0.88051 0.39378 0.77397 0.0
C150 C 0.86553 0.33842 0.77578 0.0
C151 C 0.80156 0.28455 0.8051 0.0
C152 C 0.75292 0.28623 0.8351 0.0
H153 H 0.47269 0.78903 0.0277 0.0
C154 C 0.43034 0.76471 0.97824 0.0
H155 H 0.32717 0.71819 0.95216 0.0
H156 H 0.27557 0.52085 0.15772 0.0
H157 H 0.21522 0.45878 0.01462 0.0
H158 H 0.20883 0.50647 0.90155 0.0
H159 H 0.25974 0.61482 0.93286 0.0
C160 C 0.36649 0.73754 0.00337 0.0
C161 C 0.3417 0.70199 0.07985 0.0
C162 C 0.30343 0.63566 0.06457 0.0
C163 C 0.3058 0.60777 0.12977 0.0
C164 C 0.27332 0.54347 0.11061 0.0
C165 C 0.23878 0.50746 0.02889 0.0
C166 C 0.23475 0.53413 0.9656 0.0
C167 C 0.26494 0.59673 -0.01606 0.0
H168 H 0.21725 0.54938 0.27555 0.0
C169 C 0.26357 0.57784 0.31985 0.0
H170 H 0.37072 0.63364 0.33256 0.0
H171 H 0.40353 0.82375 0.13392 0.0
H172 H 0.46753 0.88802 0.27521 0.0
H173 H 0.47913 0.84305 0.38656 0.0
H174 H 0.42719 0.73418 0.35758 0.0
C175 C 0.32684 0.61069 0.28685 0.0
C176 C 0.34155 0.64458 0.21211 0.0
C177 C 0.37842 0.71063 0.22811 0.0
C178 C 0.37512 0.73803 0.16305 0.0
C179 C 0.40712 0.80211 0.18136 0.0
C180 C 0.44357 0.83918 0.26183 0.0
C181 C 0.44998 0.81372 0.32448 0.0
C182 C 0.41875 0.75064 0.3076 0.0
H183 H 0.13722 0.71589 0.46954 0.0
C184 C 0.19287 0.74551 0.46094 0.0
H185 H 0.28168 0.82097 0.39699 0.0
H186 H 0.09899 0.77786 0.09057 0.0
H187 H 0.14535 0.73819 0.01388 0.0
H188 H 0.21187 0.72726 0.09512 0.0
H189 H 0.23344 0.75686 0.25394 0.0
C190 C 0.22734 0.79343 0.41144 0.0
C191 C 0.18848 0.80204 0.36282 0.0
C192 C 0.17878 0.78704 0.26938 0.0
C193 C 0.14109 0.79407 0.22203 0.0
C194 C 0.12912 0.77544 0.12943 0.0
C195 C 0.15439 0.75154 0.08471 0.0
C196 C 0.19208 0.7456 0.13049 0.0
C197 C 0.20441 0.76315 0.22167 0.0
H198 H 0.17901 0.90491 0.15906 0.0
C199 C 0.12543 0.88233 0.16724 0.0
H200 H 0.03166 0.81273 0.2299 0.0
H201 H 0.19526 0.83335 0.54177 0.0
H202 H 0.13731 0.86098 0.61963 0.0
H203 H 0.06806 0.86874 0.53791 0.0
H204 H 0.05945 0.85229 0.37779 0.0
C205 C 0.08446 0.8347 0.21793 0.0
C206 C 0.11441 0.81758 0.26775 0.0
C207 C 0.11992 0.82831 0.36166 0.0
C208 C 0.15785 0.82152 0.40911 0.0
C209 C 0.16491 0.8353 0.50254 0.0
C210 C 0.13244 0.85181 0.54812 0.0
C211 C 0.09383 0.8566 0.50206 0.0
C212 C 0.08879 0.84647 0.41001 0.0
H213 H 0.22331 0.47897 0.43335 0.0
C214 C 0.2391 0.47326 0.49123 0.0
H215 H 0.25486 0.42113 0.54086 0.0
H216 H 0.05728 0.17609 0.25015 0.0
H217 H 0.98746 0.13414 0.37754 0.0
H218 H 1.02175 0.20562 0.5164 0.0
H219 H 0.12733 0.31993 0.52835 0.0
C220 C 0.23935 0.42776 0.48387 0.0
C221 C 0.21828 0.3849 0.39842 0.0
C222 C 0.15832 0.31759 0.39339 0.0
C223 C 0.13879 0.27605 0.31336 0.0
C224 C 0.07635 0.20968 0.30961 0.0
C225 C 0.03517 0.18487 0.38237 0.0
C226 C 0.05449 0.22515 0.4604 0.0
C227 C 0.11536 0.2907 0.46636 0.0
H228 H 0.17206 0.20484 0.20616 0.0
C229 C 0.15875 0.21203 0.14739 0.0
H230 H 0.14533 0.26522 0.09555 0.0
H231 H 0.33772 0.51144 0.38352 0.0
H232 H 0.39958 0.5546 0.25107 0.0
H233 H 0.36348 0.48286 0.11166 0.0
H234 H 0.26517 0.36761 0.10454 0.0
C235 C 0.16002 0.25855 0.15345 0.0
C236 C 0.17993 0.30161 0.23822 0.0
C237 C 0.23807 0.3692 0.2421 0.0
C238 C 0.25797 0.41074 0.32228 0.0
C239 C 0.31814 0.47766 0.32419 0.0
C240 C 0.35507 0.50317 0.24866 0.0
C241 C 0.33479 0.46287 0.17029 0.0
C242 C 0.27774 0.39666 0.16698 0.0
H243 H 0.53015 0.81444 0.44692 0.0
C244 C 0.54193 0.79486 0.48557 0.0
H245 H 0.60497 0.77827 0.50181 0.0
H246 H 0.66787 0.80962 0.08611 0.0
H247 H 0.54282 0.71663 0.05487 0.0
H248 H 0.46138 0.6713 0.17527 0.0
H249 H 0.50394 0.71994 0.32798 0.0
C250 C 0.59322 0.79777 0.46226 0.0
C251 C 0.63926 0.82924 0.387 0.0
C252 C 0.61387 0.79869 0.29864 0.0
C253 C 0.66139 0.8239 0.22923 0.0
C254 C 0.63427 0.79303 0.14135 0.0
C255 C 0.5626 0.73946 0.12243 0.0
C256 C 0.51659 0.71426 0.19029 0.0
C257 C 0.54174 0.74265 0.2776 0.0
H258 H 0.84596 0.89312 0.20121 0.0
C259 C 0.83446 0.91084 0.15717 0.0
H260 H 0.77087 0.92525 0.12916 0.0
H261 H 0.70377 0.90321 0.54686 0.0
H262 H 0.82681 1.00294 0.57592 0.0
H263 H 0.90907 0.04604 0.45625 0.0
H264 H 0.86942 0.99044 0.30657 0.0
C265 C 0.78211 0.90755 0.17369 0.0
C266 C 0.73457 0.87859 0.24833 0.0
C267 C 0.75946 0.91076 0.33611 0.0
C268 C 0.71176 0.88597 0.4053 0.0
C269 C 0.73772 0.91978 0.49198 0.0
C270 C 0.80813 0.97716 0.50954 0.0
C271 C 0.85452 1.00148 0.44209 0.0
C272 C 0.83096 0.96883 0.35641 0.0
H273 H 0.76072 0.19855 0.56673 0.0
C274 C 0.80023 0.23029 0.52108 0.0
H275 H 0.89796 0.27349 0.47146 0.0
H276 H 1.00278 0.27436 0.83187 0.0
H277 H 0.09866 0.38384 0.80004 0.0
H278 H 0.09288 0.41712 0.66481 0.0
H279 H 0.98888 0.34368 0.56675 0.0
C280 C 0.85809 0.24158 0.51647 0.0
C281 C 0.87154 0.21648 0.57995 0.0
C282 C 0.93328 0.26025 0.63667 0.0
C283 C 0.93956 0.23941 0.71 0.0
C284 C 0.99818 0.2861 0.77098 0.0
C285 C 0.05304 0.3494 0.75434 0.0
C286 C 0.04945 0.36837 0.67895 0.0
C287 C 0.98944 0.32526 0.62241 0.0
H288 H 0.99972 0.19531 0.75216 0.0
C289 C 0.95673 0.16053 0.79181 0.0
H290 H 0.85515 0.11377 0.82899 0.0
H291 H 0.75689 0.11715 0.46906 0.0
H292 H 0.66791 1.00447 0.48879 0.0
H293 H 0.67765 0.96758 0.61539 0.0
H294 H 0.77702 0.04216 0.7208 0.0
C295 C 0.89847 0.14852 0.7894 0.0
C296 C 0.88746 0.1732 0.72146 0.0
C297 C 0.82759 0.1286 0.66109 0.0
C298 C 0.82032 0.15012 0.58974 0.0
C299 C 0.76271 0.10394 0.52722 0.0
C300 C 0.71176 0.03896 0.53701 0.0
C301 C 0.71743 0.01817 0.60805 0.0
C302 C 0.7749 0.06195 0.66872 0.0
H303 H 0.78995 0.52215 0.54345 0.0
C304 C 0.79824 0.539 0.48028 0.0
H305 H 0.83257 0.61529 0.41756 0.0
H306 H 0.77808 0.73581 0.73114 0.0
H307 H 0.70094 0.70665 0.61222 0.0
H308 H 0.68601 0.64655 0.47045 0.0
H309 H 0.74749 0.61462 0.44718 0.0
C310 C 0.82556 0.59842 0.48017 0.0
C311 C 0.83991 0.6398 0.56441 0.0
C312 C 0.80461 0.65948 0.57687 0.0
C313 C 0.81471 0.69586 0.65816 0.0
C314 C 0.77531 0.71113 0.66975 0.0
C315 C 0.73003 0.69396 0.60227 0.0
C316 C 0.72151 0.66 0.52254 0.0
C317 C 0.75754 0.64224 0.50997 0.0
H318 H 0.91147 0.83217 0.74977 0.0
C319 C 0.90355 0.815 0.81251 0.0
H320 H 0.87 0.7385 0.87359 0.0
H321 H 0.92472 0.61956 0.55923 0.0
H322 H 1.00413 0.65109 0.67687 0.0
H323 H 1.02029 0.71268 0.81777 0.0
H324 H 0.95706 0.74251 0.84214 0.0
C325 C 0.8758 0.75534 0.81146 0.0
C326 C 0.86208 0.71474 0.72656 0.0
C327 C 0.89813 0.69583 0.71359 0.0
C328 C 0.88782 0.65922 0.63246 0.0
C329 C 0.9278 0.64455 0.62048 0.0
C330 C 0.9744 0.66312 0.68715 0.0
C331 C 0.98353 0.69774 0.76644 0.0
C332 C 0.94645 0.71438 0.77966 0.0
H333 H 0.51383 0.20684 0.50619 0.0
C334 C 0.49658 0.2189 0.46031 0.0
H335 H 0.42568 0.22479 0.43338 0.0
H336 H 0.17806 0.0367 0.66587 0.0
H337 H 0.12688 0.97601 0.5207 0.0
H338 H 0.20095 1.00738 0.39317 0.0
H339 H 0.32602 0.10418 0.4085 0.0
C340 C 0.44229 0.21206 0.47909 0.0
C341 C 0.40159 0.18695 0.56001 0.0
C342 C 0.32823 0.13089 0.55014 0.0
C343 C 0.28596 0.11117 0.62467 0.0
C344 C 0.21297 0.05457 0.61214 0.0
C345 C 0.18284 0.01848 0.5291 0.0
C346 C 0.22447 0.03652 0.45715 0.0
C347 C 0.29612 0.0924 0.46684 0.0
H348 H 0.2083 0.13284 0.76409 0.0
C349 C 0.22332 0.11839 0.80901 0.0
H350 H 0.29035 0.10761 0.83498 0.0
H351 H 0.54133 0.2971 0.60457 0.0
H352 H 0.59452 0.35083 0.75182 0.0
H353 H 0.52191 0.31411 0.88152 0.0
H354 H 0.39551 0.22268 0.86433 0.0
C355 C 0.27582 0.12243 0.78995 0.0
C356 C 0.31752 0.14682 0.70978 0.0
C357 C 0.39152 0.20091 0.72046 0.0
C358 C 0.43355 0.22164 0.64555 0.0
C359 C 0.50687 0.27724 0.65865 0.0
C360 C 0.53825 0.3091 0.74314 0.0
C361 C 0.49739 0.28849 0.81616 0.0
C362 C 0.42485 0.23566 0.80527 0.0
H363 H 0.51077 0.40617 0.09927 0.0
C364 C 0.56736 0.43763 0.09918 0.0
H365 H 0.66266 0.52457 0.0601 0.0
H366 H 0.45366 0.47756 0.77499 0.0
H367 H 0.47928 0.42351 0.68353 0.0
H368 H 0.5473 0.40745 0.74497 0.0
H369 H 0.58735 0.44246 0.89996 0.0
C370 C 0.60603 0.49154 0.06157 0.0
C371 C 0.57109 0.50704 0.02167 0.0
C372 C 0.54736 0.48569 0.93127 0.0
C373 C 0.51009 0.49704 0.8949 0.0
C374 C 0.48466 0.47275 0.80531 0.0
C375 C 0.49836 0.44099 0.75217 0.0
C376 C 0.5363 0.43153 0.78702 0.0
C377 C 0.55965 0.45254 0.87577 0.0
H378 H 0.54392 0.60812 0.82782 0.0
C379 C 0.4924 0.58641 0.84847 0.0
H380 H 0.41284 0.52738 0.93614 0.0
H381 H 0.61109 0.55572 0.19612 0.0
H382 H 0.5892 0.61303 0.28726 0.0
H383 H 0.52602 0.63365 0.2253 0.0
H384 H 0.48411 0.59783 0.07048 0.0
C385 C 0.46178 0.54596 0.90953 0.0
C386 C 0.49797 0.53119 0.94843 0.0
C387 C 0.52214 0.55279 0.03888 0.0
C388 C 0.55876 0.54078 0.07525 0.0
C389 C 0.58269 0.56323 0.16539 0.0
C390 C 0.57074 0.59638 0.21839 0.0
C391 C 0.53526 0.60823 0.18312 0.0
C392 C 0.51141 0.58719 0.09442 0.0
H393 H 0.45212 0.85196 0.87963 0.0
C394 C 0.45177 0.86444 0.81631 0.0
H395 H 0.47802 0.93706 0.75189 0.0
H396 H 0.44305 1.00537 0.17234 0.0
H397 H 0.31977 0.9055 0.14427 0.0
H398 H 0.27784 0.83532 0.00137 0.0
H399 H 0.35796 0.86249 0.88839 0.0
C400 C 0.47571 0.92231 0.81442 0.0
C401 C 0.50044 0.96795 0.89782 0.0
C402 C 0.45255 0.95181 0.96378 0.0
C403 C 0.47665 0.99382 0.04471 0.0
C404 C 0.42759 0.9756 0.10955 0.0
C405 C 0.35668 0.91849 0.09429 0.0
C406 C 0.333 0.87874 0.0143 0.0
C407 C 0.37994 0.89486 0.94976 0.0
H408 H 0.58836 0.16601 0.08126 0.0
C409 C 0.59059 0.15364 0.14359 0.0
H410 H 0.57319 0.08399 0.20418 0.0
H411 H 0.60577 0.01518 0.78493 0.0
H412 H 0.72821 0.11696 0.81035 0.0
H413 H 0.76982 0.19021 0.94962 0.0
H414 H 0.6895 0.1623 0.06436 0.0
C415 C 0.57244 0.09816 0.14286 0.0
C416 C 0.54817 0.05345 0.05861 0.0
C417 C 0.59591 0.07034 -0.00812 0.0
C418 C 0.57197 0.02772 0.91153 0.0
C419 C 0.62101 0.04575 0.8468 0.0
C420 C 0.69148 0.10397 0.86061 0.0
C421 C 0.7149 0.14524 0.93901 0.0
C422 C 0.66805 0.12878 0.00418 0.0
H423 H 0.08969 0.47543 0.78092 0.0
C424 C 0.13564 0.52569 0.80329 0.0
H425 H 0.17241 0.6059 0.88976 0.0
H426 H 0.91281 0.54293 0.01836 0.0
H427 H 0.97561 0.63783 0.9463 0.0
H428 H 0.07395 0.67659 0.85277 0.0
H429 H 0.11306 0.62395 0.83549 0.0
C430 C 0.12998 0.55389 0.87395 0.0
C431 C 0.06145 0.52117 0.9157 0.0
C432 C 0.037 0.55101 0.92167 0.0
C433 C 0.97775 0.5266 0.97135 0.0
C434 C 0.95718 0.55943 -0.01934 0.0
C435 C 0.99229 0.61349 0.93903 0.0
C436 C 0.04761 0.63532 0.88645 0.0
C437 C 0.07014 0.60495 0.87797 0.0
H438 H 0.95916 0.51882 0.17467 0.0
C439 C 0.90367 0.47673 0.15679 0.0
H440 H 0.83041 0.40276 0.05469 0.0
H441 H 0.09071 0.44946 0.91893 0.0
H442 H 1.01784 0.34712 0.97267 0.0
H443 H 0.90621 0.29768 0.0402 0.0
H444 H 0.86885 0.35218 0.05735 0.0
C445 C 0.88424 0.44868 0.07232 0.0
C446 C 0.93962 0.46969 0.00943 0.0
C447 C 0.95864 0.43549 -0.00533 0.0
C448 C 1.02114 0.4624 0.95111 0.0
C449 C 0.04227 0.43012 0.94645 0.0
C450 C 1.00098 0.37129 0.97793 0.0
C451 C 0.93834 0.3436 0.01629 0.0
C452 C 0.91756 0.37544 0.02571 0.0
loop_
_geom_bond_atom_site_label_1
_geom_bond_atom_site_label_2
_geom_bond_distance
_geom_bond_site_symmetry_2
_ccdc_geom_bond_type
C0 O12 1.241 . S
C0 O13 1.280 . S
C1 O14 1.277 1_445 S
C1 O15 1.245 . S
C2 O26 1.247 1_554 S
C2 O28 1.289 . S
Mg3 O4 1.926 1_545 S
Mg3 O13 1.984 1_545 S
Mg3 O15 1.988 . S
Mg3 O16 2.061 . S
O4 Mg3 1.926 1_565 S
O4 Mg5 1.986 1_455 S
O4 Mg6 1.917 1_565 S
Mg5 O4 1.986 1_655 S
Mg5 O12 2.042 1_655 S
Mg5 O14 2.041 . S
Mg5 O20 2.038 . S
Mg5 O28 2.238 . S
Mg6 O4 1.917 1_545 S
Mg6 O7 1.917 1_454 S
Mg6 O17 2.106 1_554 S
Mg6 O19 2.079 1_444 S
Mg6 O28 2.106 1_445 S
Mg6 O29 2.079 . S
O7 Mg6 1.917 1_656 S
O7 Mg8 1.926 1_545 S
O7 Mg9 1.986 1_655 S
Mg8 O7 1.926 1_565 S
Mg8 O22 1.984 1_565 S
Mg8 O25 1.988 . S
Mg8 O26 2.061 . S
Mg9 O7 1.986 1_455 S
Mg9 O17 2.238 . S
Mg9 O21 2.042 1_455 S
Mg9 O23 2.041 . S
Mg9 O30 2.038 . S
C10 O16 1.247 1_556 S
C10 O17 1.289 . S
C11 O29 1.245 . S
C11 O30 1.274 1_554 S
O12 C0 1.241 . S
O12 Mg5 2.042 1_455 S
O13 C0 1.280 . S
O13 Mg3 1.984 1_565 S
O14 C1 1.277 1_665 S
O14 Mg5 2.041 . S
O15 C1 1.245 . S
O15 Mg3 1.988 . S
O16 Mg3 2.061 . S
O16 C10 1.247 1_554 S
O17 Mg6 2.106 1_556 S
O17 Mg9 2.238 . S
O17 C10 1.289 . S
C18 O19 1.245 . S
C18 O20 1.274 1_556 S
O19 Mg6 2.079 1_666 S
O19 C18 1.245 . S
O20 Mg5 2.038 . S
O20 C18 1.274 1_554 S
O21 Mg9 2.042 1_655 S
O21 C24 1.241 . S
O22 Mg8 1.984 1_545 S
O22 C24 1.280 . S
O23 Mg9 2.041 . S
O23 C27 1.277 1_445 S
C24 O21 1.241 . S
C24 O22 1.280 . S
O25 Mg8 1.988 . S
O25 C27 1.245 . S
O26 C2 1.247 1_556 S
O26 Mg8 2.061 . S
C27 O23 1.277 1_665 S
C27 O25 1.245 . S
O28 C2 1.289 . S
O28 Mg5 2.238 . S
O28 Mg6 2.106 1_665 S
O29 Mg6 2.079 . S
O29 C11 1.245 . S
O30 Mg9 2.038 . S
O30 C11 1.274 1_556 S
C31 O43 1.241 . S
C31 O44 1.280 . S
C32 O45 1.277 . S
C32 O46 1.245 . S
C33 O57 1.247 . S
C33 O59 1.289 . S
Mg34 O35 1.926 . S
Mg34 O44 1.984 . S
Mg34 O46 1.988 . S
Mg34 O47 2.061 . S
O35 Mg34 1.926 . S
O35 Mg36 1.986 . S
O35 Mg37 1.917 . S
Mg36 O35 1.986 . S
Mg36 O43 2.042 . S
Mg36 O45 2.041 . S
Mg36 O51 2.038 . S
Mg36 O59 2.238 . S
Mg37 O35 1.917 . S
Mg37 O38 1.917 . S
Mg37 O48 2.106 . S
Mg37 O50 2.079 . S
Mg37 O59 2.106 . S
Mg37 O60 2.079 . S
O38 Mg37 1.917 . S
O38 Mg39 1.926 . S
O38 Mg40 1.986 . S
Mg39 O38 1.926 . S
Mg39 O53 1.984 . S
Mg39 O56 1.988 . S
Mg39 O57 2.061 . S
Mg40 O38 1.986 . S
Mg40 O48 2.238 . S
Mg40 O52 2.042 . S
Mg40 O54 2.041 . S
Mg40 O61 2.038 . S
C41 O47 1.247 . S
C41 O48 1.289 . S
C42 O60 1.245 . S
C42 O61 1.274 . S
O43 C31 1.241 . S
O43 Mg36 2.042 . S
O44 C31 1.280 . S
O44 Mg34 1.984 . S
O45 C32 1.277 . S
O45 Mg36 2.041 . S
O46 C32 1.245 . S
O46 Mg34 1.988 . S
O47 Mg34 2.061 . S
O47 C41 1.247 . S
O48 Mg37 2.106 . S
O48 Mg40 2.238 . S
O48 C41 1.289 . S
C49 O50 1.245 . S
C49 O51 1.274 . S
O50 Mg37 2.079 . S
O50 C49 1.245 . S
O51 Mg36 2.038 . S
O51 C49 1.274 . S
O52 Mg40 2.042 . S
O52 C55 1.241 . S
O53 Mg39 1.984 . S
O53 C55 1.280 . S
O54 Mg40 2.041 . S
O54 C58 1.277 . S
C55 O52 1.241 . S
C55 O53 1.280 . S
O56 Mg39 1.988 . S
O56 C58 1.245 . S
O57 C33 1.247 . S
O57 Mg39 2.061 . S
C58 O54 1.277 . S
C58 O56 1.245 . S
O59 C33 1.289 . S
O59 Mg36 2.238 . S
O59 Mg37 2.106 . S
O60 Mg37 2.079 . S
O60 C42 1.245 . S
O61 Mg40 2.038 . S
O61 C42 1.274 . S
C62 O74 1.241 . S
C62 O75 1.280 . S
C63 O76 1.277 . S
C63 O77 1.245 . S
C64 O88 1.247 . S
C64 O90 1.289 . S
Mg65 O66 1.926 . S
Mg65 O75 1.984 . S
Mg65 O77 1.988 . S
Mg65 O78 2.061 . S
O66 Mg65 1.926 . S
O66 Mg67 1.986 . S
O66 Mg68 1.917 . S
Mg67 O66 1.986 . S
Mg67 O74 2.042 . S
Mg67 O76 2.041 . S
Mg67 O82 2.038 . S
Mg67 O90 2.238 . S
Mg68 O66 1.917 . S
Mg68 O69 1.917 . S
Mg68 O79 2.106 . S
Mg68 O81 2.079 . S
Mg68 O90 2.106 . S
Mg68 O91 2.079 . S
O69 Mg68 1.917 . S
O69 Mg70 1.926 . S
O69 Mg71 1.986 . S
Mg70 O69 1.926 . S
Mg70 O84 1.984 . S
Mg70 O87 1.988 . S
Mg70 O88 2.061 . S
Mg71 O69 1.986 . S
Mg71 O79 2.238 . S
Mg71 O83 2.042 . S
Mg71 O85 2.041 . S
Mg71 O92 2.038 . S
C72 O78 1.247 . S
C72 O79 1.289 . S
C73 O91 1.245 . S
C73 O92 1.274 . S
O74 C62 1.241 . S
O74 Mg67 2.042 . S
O75 C62 1.280 . S
O75 Mg65 1.984 . S
O76 C63 1.277 . S
O76 Mg67 2.041 . S
O77 C63 1.245 . S
O77 Mg65 1.988 . S
O78 Mg65 2.061 . S
O78 C72 1.247 . S
O79 Mg68 2.106 . S
O79 Mg71 2.238 . S
O79 C72 1.289 . S
C80 O81 1.245 . S
C80 O82 1.274 . S
O81 Mg68 2.079 . S
O81 C80 1.245 . S
O82 Mg67 2.038 . S
O82 C80 1.274 . S
O83 Mg71 2.042 . S
O83 C86 1.241 . S
O84 Mg70 1.984 . S
O84 C86 1.280 . S
O85 Mg71 2.041 . S
O85 C89 1.277 . S
C86 O83 1.241 . S
C86 O84 1.280 . S
O87 Mg70 1.988 . S
O87 C89 1.245 . S
O88 C64 1.247 . S
O88 Mg70 2.061 . S
C89 O85 1.277 . S
C89 O87 1.245 . S
O90 C64 1.289 . S
O90 Mg67 2.238 . S
O90 Mg68 2.106 . S
O91 Mg68 2.079 . S
O91 C73 1.245 . S
O92 Mg71 2.038 . S
O92 C73 1.274 . S
H93 C94 0.951 . S
C94 H93 0.951 . S
C94 C100 1.265 . S
H95 C100 0.950 . S
H96 C104 0.949 . S
H97 C105 0.950 . S
H98 C106 0.951 . S
H99 C107 0.958 . S
C100 C94 1.265 . S
C100 H95 0.950 . S
C100 C101 1.478 . S
C101 C100 1.478 . S
C101 C102 1.397 1_565 S
C101 C118 1.394 . S
C102 C101 1.397 1_545 S
C102 C103 1.438 1_655 S
C102 C107 1.417 . S
C103 C102 1.438 1_455 S
C103 C104 1.428 . S
C103 C116 1.394 . S
C104 H96 0.949 . S
C104 C103 1.428 . S
C104 C105 1.345 . S
C105 H97 0.950 . S
C105 C104 1.345 . S
C105 C106 1.424 . S
C106 H98 0.951 . S
C106 C105 1.424 . S
C106 C107 1.353 1_455 S
C107 H99 0.958 . S
C107 C102 1.417 . S
C107 C106 1.353 1_655 S
H108 C109 0.951 . S
C109 H108 0.951 . S
C109 C115 1.265 . S
H110 C115 0.950 . S
H111 C119 0.949 . S
H112 C120 0.950 . S
H113 C121 0.951 . S
H114 C122 0.960 . S
C115 C109 1.265 . S
C115 H110 0.950 . S
C115 C116 1.478 . S
C116 C103 1.394 . S
C116 C115 1.478 . S
C116 C117 1.397 1_545 S
C117 C116 1.397 1_565 S
C117 C118 1.438 1_455 S
C117 C122 1.413 . S
C118 C101 1.394 . S
C118 C117 1.438 1_655 S
C118 C119 1.428 . S
C119 H111 0.949 . S
C119 C118 1.428 . S
C119 C120 1.345 . S
C120 H112 0.950 . S
C120 C119 1.345 . S
C120 C121 1.424 . S
C121 H113 0.951 . S
C121 C120 1.424 . S
C121 C122 1.355 1_655 S
C122 H114 0.960 . S
C122 C117 1.413 . S
C122 C121 1.355 1_455 S
H123 C124 0.951 . S
C124 H123 0.951 . S
C124 C130 1.265 . S
H125 C130 0.950 . S
H126 C134 0.949 1_554 S
H127 C135 0.950 1_554 S
H128 C136 0.951 . S
H129 C137 0.951 . S
C130 C124 1.265 . S
C130 H125 0.950 . S
C130 C131 1.478 . S
C131 C130 1.478 . S
C131 C132 1.397 . S
C131 C148 1.394 . S
C132 C131 1.397 . S
C132 C133 1.438 . S
C132 C137 1.429 . S
C133 C132 1.438 . S
C133 C134 1.428 . S
C133 C146 1.394 . S
C134 H126 0.949 1_556 S
C134 C133 1.428 . S
C134 C135 1.345 . S
C135 H127 0.950 1_556 S
C135 C134 1.345 . S
C135 C136 1.424 . S
C136 H128 0.951 . S
C136 C135 1.424 . S
C136 C137 1.347 . S
C137 H129 0.951 . S
C137 C132 1.429 . S
C137 C136 1.347 . S
H138 C139 0.951 . S
C139 H138 0.951 . S
C139 C145 1.265 . S
H140 C145 0.950 . S
H141 C149 0.949 . S
H142 C150 0.950 . S
H143 C151 0.951 . S
H144 C152 0.951 . S
C145 C139 1.265 . S
C145 H140 0.950 . S
C145 C146 1.478 1_554 S
C146 C133 1.394 . S
C146 C145 1.478 1_556 S
C146 C147 1.397 . S
C147 C146 1.397 . S
C147 C148 1.438 . S
C147 C152 1.429 . S
C148 C131 1.394 . S
C148 C147 1.438 . S
C148 C149 1.428 . S
C149 H141 0.949 . S
C149 C148 1.428 . S
C149 C150 1.345 . S
C150 H142 0.950 . S
C150 C149 1.345 . S
C150 C151 1.424 . S
C151 H143 0.951 . S
C151 C150 1.424 . S
C151 C152 1.347 . S
C152 H144 0.951 . S
C152 C147 1.429 . S
C152 C151 1.347 . S
H153 C154 0.951 . S
C154 H153 0.951 . S
C154 C160 1.265 . S
H155 C160 0.950 . S
H156 C164 0.949 . S
H157 C165 0.950 . S
H158 C166 0.951 . S
H159 C167 0.951 1_556 S
C160 C154 1.265 . S
C160 H155 0.950 . S
C160 C161 1.478 1_556 S
C161 C160 1.478 1_554 S
C161 C162 1.397 . S
C161 C178 1.394 . S
C162 C161 1.397 . S
C162 C163 1.438 . S
C162 C167 1.429 . S
C163 C162 1.438 . S
C163 C164 1.428 . S
C163 C176 1.394 . S
C164 H156 0.949 . S
C164 C163 1.428 . S
C164 C165 1.345 . S
C165 H157 0.950 . S
C165 C164 1.345 . S
C165 C166 1.424 . S
C166 H158 0.951 . S
C166 C165 1.424 . S
C166 C167 1.347 . S
C167 H159 0.951 1_554 S
C167 C162 1.429 . S
C167 C166 1.347 . S
H168 C169 0.951 . S
C169 H168 0.951 . S
C169 C175 1.265 . S
H170 C175 0.950 . S
H171 C179 0.949 . S
H172 C180 0.950 . S
H173 C181 0.951 . S
H174 C182 0.951 . S
C175 C169 1.265 . S
C175 H170 0.950 . S
C175 C176 1.478 . S
C176 C163 1.394 . S
C176 C175 1.478 . S
C176 C177 1.397 . S
C177 C176 1.397 . S
C177 C178 1.438 . S
C177 C182 1.429 . S
C178 C161 1.394 . S
C178 C177 1.438 . S
C178 C179 1.428 . S
C179 H171 0.949 . S
C179 C178 1.428 . S
C179 C180 1.345 . S
C180 H172 0.950 . S
C180 C179 1.345 . S
C180 C181 1.424 . S
C181 H173 0.951 . S
C181 C180 1.424 . S
C181 C182 1.347 . S
C182 H174 0.951 . S
C182 C177 1.429 . S
C182 C181 1.347 . S
H183 C184 0.951 . S
C184 H183 0.951 . S
C184 C190 1.265 . S
H185 C190 0.950 . S
H186 C194 0.949 . S
H187 C195 0.950 . S
H188 C196 0.951 . S
H189 C197 0.951 . S
C190 C184 1.265 . S
C190 H185 0.950 . S
C190 C191 1.478 . S
C191 C190 1.478 . S
C191 C192 1.397 . S
C191 C208 1.394 . S
C192 C191 1.397 . S
C192 C193 1.438 . S
C192 C197 1.429 . S
C193 C192 1.438 . S
C193 C194 1.428 . S
C193 C206 1.394 . S
C194 H186 0.949 . S
C194 C193 1.428 . S
C194 C195 1.345 . S
C195 H187 0.950 . S
C195 C194 1.345 . S
C195 C196 1.424 . S
C196 H188 0.951 . S
C196 C195 1.424 . S
C196 C197 1.347 . S
C197 H189 0.951 . S
C197 C192 1.429 . S
C197 C196 1.347 . S
H198 C199 0.951 . S
C199 H198 0.951 . S
C199 C205 1.265 . S
H200 C205 0.950 . S
H201 C209 0.949 . S
H202 C210 0.950 . S
H203 C211 0.951 . S
H204 C212 0.951 . S
C205 C199 1.265 . S
C205 H200 0.950 . S
C205 C206 1.478 . S
C206 C193 1.394 . S
C206 C205 1.478 . S
C206 C207 1.397 . S
C207 C206 1.397 . S
C207 C208 1.438 . S
C207 C212 1.429 . S
C208 C191 1.394 . S
C208 C207 1.438 . S
C208 C209 1.428 . S
C209 H201 0.949 . S
C209 C208 1.428 . S
C209 C210 1.345 . S
C210 H202 0.950 . S
C210 C209 1.345 . S
C210 C211 1.424 . S
C211 H203 0.951 . S
C211 C210 1.424 . S
C211 C212 1.347 . S
C212 H204 0.951 . S
C212 C207 1.429 . S
C212 C211 1.347 . S
H213 C214 0.951 . S
C214 H213 0.951 . S
C214 C220 1.265 . S
H215 C220 0.950 . S
H216 C224 0.949 . S
H217 C225 0.950 . S
H218 C226 0.951 . S
H219 C227 0.951 . S
C220 C214 1.265 . S
C220 H215 0.950 . S
C220 C221 1.478 . S
C221 C220 1.478 . S
C221 C222 1.397 . S
C221 C238 1.394 . S
C222 C221 1.397 . S
C222 C223 1.438 . S
C222 C227 1.429 . S
C223 C222 1.438 . S
C223 C224 1.428 . S
C223 C236 1.394 . S
C224 H216 0.949 . S
C224 C223 1.428 . S
C224 C225 1.345 . S
C225 H217 0.950 . S
C225 C224 1.345 . S
C225 C226 1.424 . S
C226 H218 0.951 . S
C226 C225 1.424 . S
C226 C227 1.347 . S
C227 H219 0.951 . S
C227 C222 1.429 . S
C227 C226 1.347 . S
H228 C229 0.951 . S
C229 H228 0.951 . S
C229 C235 1.265 . S
H230 C235 0.950 . S
H231 C239 0.949 . S
H232 C240 0.950 . S
H233 C241 0.951 . S
H234 C242 0.951 . S
C235 C229 1.265 . S
C235 H230 0.950 . S
C235 C236 1.478 . S
C236 C223 1.394 . S
C236 C235 1.478 . S
C236 C237 1.397 . S
C237 C236 1.397 . S
C237 C238 1.438 . S
C237 C242 1.429 . S
C238 C221 1.394 . S
C238 C237 1.438 . S
C238 C239 1.428 . S
C239 H231 0.949 . S
C239 C238 1.428 . S
C239 C240 1.345 . S
C240 H232 0.950 . S
C240 C239 1.345 . S
C240 C241 1.424 . S
C241 H233 0.951 . S
C241 C240 1.424 . S
C241 C242 1.347 . S
C242 H234 0.951 . S
C242 C237 1.429 . S
C242 C241 1.347 . S
H243 C244 0.951 . S
C244 H243 0.951 . S
C244 C250 1.265 . S
H245 C250 0.950 . S
H246 C254 0.949 . S
H247 C255 0.950 . S
H248 C256 0.951 . S
H249 C257 0.951 . S
C250 C244 1.265 . S
C250 H245 0.950 . S
C250 C251 1.478 . S
C251 C250 1.478 . S
C251 C252 1.397 . S
C251 C268 1.394 . S
C252 C251 1.397 . S
C252 C253 1.438 . S
C252 C257 1.429 . S
C253 C252 1.438 . S
C253 C254 1.428 . S
C253 C266 1.394 . S
C254 H246 0.949 . S
C254 C253 1.428 . S
C254 C255 1.345 . S
C255 H247 0.950 . S
C255 C254 1.345 . S
C255 C256 1.424 . S
C256 H248 0.951 . S
C256 C255 1.424 . S
C256 C257 1.347 . S
C257 H249 0.951 . S
C257 C252 1.429 . S
C257 C256 1.347 . S
H258 C259 0.951 . S
C259 H258 0.951 . S
C259 C265 1.265 . S
H260 C265 0.950 . S
H261 C269 0.949 . S
H262 C270 0.950 . S
H263 C271 0.951 1_545 S
H264 C272 0.951 . S
C265 C259 1.265 . S
C265 H260 0.950 . S
C265 C266 1.478 . S
C266 C253 1.394 . S
C266 C265 1.478 . S
C266 C267 1.397 . S
C267 C266 1.397 . S
C267 C268 1.438 . S
C267 C272 1.429 . S
C268 C251 1.394 . S
C268 C267 1.438 . S
C268 C269 1.428 . S
C269 H261 0.949 . S
C269 C268 1.428 . S
C269 C270 1.345 . S
C270 H262 0.950 . S
C270 C269 1.345 . S
C270 C271 1.424 . S
C271 H263 0.951 1_565 S
C271 C270 1.424 . S
C271 C272 1.347 . S
C272 H264 0.951 . S
C272 C267 1.429 . S
C272 C271 1.347 . S
H273 C274 0.951 . S
C274 H273 0.951 . S
C274 C280 1.265 . S
H275 C280 0.950 . S
H276 C284 0.949 . S
H277 C285 0.950 . S
H278 C286 0.951 . S
H279 C287 0.951 . S
C280 C274 1.265 . S
C280 H275 0.950 . S
C280 C281 1.478 . S
C281 C280 1.478 . S
C281 C282 1.397 . S
C281 C298 1.394 . S
C282 C281 1.397 . S
C282 C283 1.438 . S
C282 C287 1.429 . S
C283 C282 1.438 . S
C283 C284 1.428 . S
C283 C296 1.394 . S
C284 H276 0.949 . S
C284 C283 1.428 . S
C284 C285 1.345 . S
C285 H277 0.950 . S
C285 C284 1.345 . S
C285 C286 1.424 . S
C286 H278 0.951 . S
C286 C285 1.424 . S
C286 C287 1.347 . S
C287 H279 0.951 . S
C287 C282 1.429 . S
C287 C286 1.347 . S
H288 C289 0.951 . S
C289 H288 0.951 . S
C289 C295 1.265 . S
H290 C295 0.950 . S
H291 C299 0.949 . S
H292 C300 0.950 . S
H293 C301 0.951 1_565 S
H294 C302 0.951 . S
C295 C289 1.265 . S
C295 H290 0.950 . S
C295 C296 1.478 . S
C296 C283 1.394 . S
C296 C295 1.478 . S
C296 C297 1.397 . S
C297 C296 1.397 . S
C297 C298 1.438 . S
C297 C302 1.429 . S
C298 C281 1.394 . S
C298 C297 1.438 . S
C298 C299 1.428 . S
C299 H291 0.949 . S
C299 C298 1.428 . S
C299 C300 1.345 . S
C300 H292 0.950 . S
C300 C299 1.345 . S
C300 C301 1.424 . S
C301 H293 0.951 1_545 S
C301 C300 1.424 . S
C301 C302 1.347 . S
C302 H294 0.951 . S
C302 C297 1.429 . S
C302 C301 1.347 . S
H303 C304 0.951 . S
C304 H303 0.951 . S
C304 C310 1.265 . S
H305 C310 0.950 . S
H306 C314 0.949 . S
H307 C315 0.950 . S
H308 C316 0.951 . S
H309 C317 0.951 . S
C310 C304 1.265 . S
C310 H305 0.950 . S
C310 C311 1.478 . S
C311 C310 1.478 . S
C311 C312 1.397 . S
C311 C328 1.394 . S
C312 C311 1.397 . S
C312 C313 1.438 . S
C312 C317 1.429 . S
C313 C312 1.438 . S
C313 C314 1.428 . S
C313 C326 1.394 . S
C314 H306 0.949 . S
C314 C313 1.428 . S
C314 C315 1.345 . S
C315 H307 0.950 . S
C315 C314 1.345 . S
C315 C316 1.424 . S
C316 H308 0.951 . S
C316 C315 1.424 . S
C316 C317 1.347 . S
C317 H309 0.951 . S
C317 C312 1.429 . S
C317 C316 1.347 . S
H318 C319 0.951 . S
C319 H318 0.951 . S
C319 C325 1.265 . S
H320 C325 0.950 . S
H321 C329 0.949 . S
H322 C330 0.950 . S
H323 C331 0.951 . S
H324 C332 0.951 . S
C325 C319 1.265 . S
C325 H320 0.950 . S
C325 C326 1.478 . S
C326 C313 1.394 . S
C326 C325 1.478 . S
C326 C327 1.397 . S
C327 C326 1.397 . S
C327 C328 1.438 . S
C327 C332 1.429 . S
C328 C311 1.394 . S
C328 C327 1.438 . S
C328 C329 1.428 . S
C329 H321 0.949 . S
C329 C328 1.428 . S
C329 C330 1.345 . S
C330 H322 0.950 . S
C330 C329 1.345 . S
C330 C331 1.424 . S
C331 H323 0.951 . S
C331 C330 1.424 . S
C331 C332 1.347 . S
C332 H324 0.951 . S
C332 C327 1.429 . S
C332 C331 1.347 . S
H333 C334 0.951 . S
C334 H333 0.951 . S
C334 C340 1.265 . S
H335 C340 0.950 . S
H336 C344 0.949 . S
H337 C345 0.951 . S
H338 C346 0.951 . S
H339 C347 0.951 . S
C340 C334 1.265 . S
C340 H335 0.950 . S
C340 C341 1.478 . S
C341 C340 1.478 . S
C341 C342 1.397 . S
C341 C358 1.394 . S
C342 C341 1.397 . S
C342 C343 1.438 . S
C342 C347 1.429 . S
C343 C342 1.438 . S
C343 C344 1.428 . S
C343 C356 1.394 . S
C344 H336 0.949 . S
C344 C343 1.428 . S
C344 C345 1.345 . S
C345 H337 0.951 . S
C345 C344 1.345 . S
C345 C346 1.424 . S
C346 H338 0.951 . S
C346 C345 1.424 . S
C346 C347 1.347 . S
C347 H339 0.951 . S
C347 C342 1.429 . S
C347 C346 1.347 . S
H348 C349 0.951 . S
C349 H348 0.951 . S
C349 C355 1.265 . S
H350 C355 0.950 . S
H351 C359 0.949 . S
H352 C360 0.950 . S
H353 C361 0.951 . S
H354 C362 0.951 . S
C355 C349 1.265 . S
C355 H350 0.950 . S
C355 C356 1.478 . S
C356 C343 1.394 . S
C356 C355 1.478 . S
C356 C357 1.397 . S
C357 C356 1.397 . S
C357 C358 1.438 . S
C357 C362 1.429 . S
C358 C341 1.394 . S
C358 C357 1.438 . S
C358 C359 1.428 . S
C359 H351 0.949 . S
C359 C358 1.428 . S
C359 C360 1.345 . S
C360 H352 0.950 . S
C360 C359 1.345 . S
C360 C361 1.424 . S
C361 H353 0.951 . S
C361 C360 1.424 . S
C361 C362 1.347 . S
C362 H354 0.951 . S
C362 C357 1.429 . S
C362 C361 1.347 . S
H363 C364 0.951 . S
C364 H363 0.951 . S
C364 C370 1.265 . S
H365 C370 0.950 . S
H366 C374 0.949 . S
H367 C375 0.950 . S
H368 C376 0.951 . S
H369 C377 0.951 . S
C370 C364 1.265 . S
C370 H365 0.950 . S
C370 C371 1.478 . S
C371 C370 1.478 . S
C371 C372 1.397 1_554 S
C371 C388 1.394 . S
C372 C371 1.397 1_556 S
C372 C373 1.438 . S
C372 C377 1.429 . S
C373 C372 1.438 . S
C373 C374 1.428 . S
C373 C386 1.394 . S
C374 H366 0.949 . S
C374 C373 1.428 . S
C374 C375 1.345 . S
C375 H367 0.950 . S
C375 C374 1.345 . S
C375 C376 1.424 . S
C376 H368 0.951 . S
C376 C375 1.424 . S
C376 C377 1.347 . S
C377 H369 0.951 . S
C377 C372 1.429 . S
C377 C376 1.347 . S
H378 C379 0.951 . S
C379 H378 0.951 . S
C379 C385 1.265 . S
H380 C385 0.950 . S
H381 C389 0.949 . S
H382 C390 0.950 . S
H383 C391 0.951 . S
H384 C392 0.951 . S
C385 C379 1.265 . S
C385 H380 0.950 . S
C385 C386 1.478 . S
C386 C373 1.394 . S
C386 C385 1.478 . S
C386 C387 1.397 1_556 S
C387 C386 1.397 1_554 S
C387 C388 1.438 . S
C387 C392 1.429 . S
C388 C371 1.394 . S
C388 C387 1.438 . S
C388 C389 1.428 . S
C389 H381 0.949 . S
C389 C388 1.428 . S
C389 C390 1.345 . S
C390 H382 0.950 . S
C390 C389 1.345 . S
C390 C391 1.424 . S
C391 H383 0.951 . S
C391 C390 1.424 . S
C391 C392 1.347 . S
C392 H384 0.951 . S
C392 C387 1.429 . S
C392 C391 1.347 . S
H393 C394 0.951 . S
C394 H393 0.951 . S
C394 C400 1.265 . S
H395 C400 0.950 . S
H396 C404 0.949 . S
H397 C405 0.950 1_554 S
H398 C406 0.951 . S
H399 C407 0.951 . S
C400 C394 1.265 . S
C400 H395 0.950 . S
C400 C401 1.478 . S
C401 C400 1.478 . S
C401 C402 1.397 . S
C401 C418 1.394 . S
C402 C401 1.397 . S
C402 C403 1.438 1_566 S
C402 C407 1.429 . S
C403 C402 1.438 1_544 S
C403 C404 1.428 . S
C403 C416 1.394 . S
C404 H396 0.949 . S
C404 C403 1.428 . S
C404 C405 1.345 1_554 S
C405 H397 0.950 1_556 S
C405 C404 1.345 1_556 S
C405 C406 1.424 1_545 S
C406 H398 0.951 . S
C406 C405 1.424 1_565 S
C406 C407 1.347 . S
C407 H399 0.951 . S
C407 C402 1.429 . S
C407 C406 1.347 . S
H408 C409 0.951 . S
C409 H408 0.951 . S
C409 C415 1.265 . S
H410 C415 0.950 . S
H411 C419 0.949 . S
H412 C420 0.950 1_556 S
H413 C421 0.951 . S
H414 C422 0.951 . S
C415 C409 1.265 . S
C415 H410 0.950 . S
C415 C416 1.478 . S
C416 C403 1.394 . S
C416 C415 1.478 . S
C416 C417 1.397 . S
C417 C416 1.397 . S
C417 C418 1.438 1_544 S
C417 C422 1.429 . S
C418 C401 1.394 . S
C418 C417 1.438 1_566 S
C418 C419 1.428 . S
C419 H411 0.949 . S
C419 C418 1.428 . S
C419 C420 1.345 1_556 S
C420 H412 0.950 1_554 S
C420 C419 1.345 1_554 S
C420 C421 1.424 1_565 S
C421 H413 0.951 . S
C421 C420 1.424 1_545 S
C421 C422 1.347 . S
C422 H414 0.951 . S
C422 C417 1.429 . S
C422 C421 1.347 . S
H423 C424 0.951 . S
C424 H423 0.951 . S
C424 C430 1.265 . S
H425 C430 0.950 . S
H426 C434 0.949 . S
H427 C435 0.950 . S
H428 C436 0.942 . S
H429 C437 0.951 . S
C430 C424 1.265 . S
C430 H425 0.950 . S
C430 C431 1.478 . S
C431 C430 1.478 . S
C431 C432 1.397 . S
C431 C448 1.394 . S
C432 C431 1.397 . S
C432 C433 1.438 1_456 S
C432 C437 1.429 . S
C433 C432 1.438 1_654 S
C433 C434 1.428 . S
C433 C446 1.394 . S
C434 H426 0.949 . S
C434 C433 1.428 . S
C434 C435 1.345 1_554 S
C435 H427 0.950 . S
C435 C434 1.345 1_556 S
C435 C436 1.413 1_655 S
C436 H428 0.942 . S
C436 C435 1.413 1_455 S
C436 C437 1.367 . S
C437 H429 0.951 . S
C437 C432 1.429 . S
C437 C436 1.367 . S
H438 C439 0.951 . S
C439 H438 0.951 . S
C439 C445 1.265 . S
H440 C445 0.950 . S
H441 C449 0.949 . S
H442 C450 0.950 . S
H443 C451 0.942 . S
H444 C452 0.951 . S
C445 C439 1.265 . S
C445 H440 0.950 . S
C445 C446 1.478 . S
C446 C433 1.394 . S
C446 C445 1.478 . S
C446 C447 1.397 . S
C447 C446 1.397 . S
C447 C448 1.438 1_654 S
C447 C452 1.429 . S
C448 C431 1.394 . S
C448 C447 1.438 1_456 S
C448 C449 1.428 . S
C449 H441 0.949 . S
C449 C448 1.428 . S
C449 C450 1.345 1_556 S
C450 H442 0.950 . S
C450 C449 1.345 1_554 S
C450 C451 1.413 1_455 S
C451 H443 0.942 . S
C451 C450 1.413 1_655 S
C451 C452 1.367 . S
C452 H444 0.951 . S
C452 C447 1.429 . S
C452 C451 1.367 . S
C94 C27 0.734 . S
C109 C1 0.734 . S
C124 C32 0.735 . S
C139 C58 0.735 . S
C154 C63 0.708 . S
C169 C89 0.708 . S
C184 C86 2.035 . S
C199 C0 2.035 . S
C214 C80 2.029 . S
C229 C11 2.026 . S
C244 C72 1.687 . S
C259 C2 1.687 . S
C274 C31 2.006 . S
C289 C24 2.006 . S
C304 C42 2.053 . S
C319 C18 2.055 . S
C334 C33 1.696 . S
C349 C10 1.696 . S
C364 C55 2.045 . S
C379 C62 2.045 . S
C394 C73 2.052 . S
C409 C49 2.052 . S
C424 C64 1.678 . S
C439 C41 1.678 . S
