# Generated by pormake.
# Topology wme, (6)-cn, num edge types: 1
# Building blocks:
#     Node 0, Type 0, BuildingBlock: BETFAJ_clean_sbu_0, # of connection points: 6
#     Node 1, Type 0, BuildingBlock: BETFAJ_clean_sbu_0, # of connection points: 6
#     Node 2, Type 0, BuildingBlock: BETFAJ_clean_sbu_0, # of connection points: 6
#     Node 3, Type 0, BuildingBlock: BETFAJ_clean_sbu_0, # of connection points: 6
#     Node 4, Type 0, BuildingBlock: BETFAJ_clean_sbu_0, # of connection points: 6
#     Node 5, Type 0, BuildingBlock: BETFAJ_clean_sbu_0, # of connection points: 6
#     Node 6, Type 0, BuildingBlock: BETFAJ_clean_sbu_0, # of connection points: 6
#     Node 7, Type 0, BuildingBlock: BETFAJ_clean_sbu_0, # of connection points: 6
#     Node 8, Type 0, BuildingBlock: BETFAJ_clean_sbu_0, # of connection points: 6
#     Node 9, Type 0, BuildingBlock: BETFAJ_clean_sbu_0, # of connection points: 6
#     Node 10, Type 0, BuildingBlock: BETFAJ_clean_sbu_0, # of connection points: 6
#     Node 11, Type 0, BuildingBlock: BETFAJ_clean_sbu_0, # of connection points: 6
#     Edge 12, Type (0, 0), BuildingBlock: UVAHIK_clean_linker_0, # of connection points: 2
#     Edge 13, Type (0, 0), BuildingBlock: UVAHIK_clean_linker_0, # of connection points: 2
#     Edge 14, Type (0, 0), BuildingBlock: UVAHIK_clean_linker_0, # of connection points: 2
#     Edge 15, Type (0, 0), BuildingBlock: UVAHIK_clean_linker_0, # of connection points: 2
#     Edge 16, Type (0, 0), BuildingBlock: UVAHIK_clean_linker_0, # of connection points: 2
#     Edge 17, Type (0, 0), BuildingBlock: UVAHIK_clean_linker_0, # of connection points: 2
#     Edge 18, Type (0, 0), BuildingBlock: UVAHIK_clean_linker_0, # of connection points: 2
#     Edge 19, Type (0, 0), BuildingBlock: UVAHIK_clean_linker_0, # of connection points: 2
#     Edge 20, Type (0, 0), BuildingBlock: UVAHIK_clean_linker_0, # of connection points: 2
#     Edge 21, Type (0, 0), BuildingBlock: UVAHIK_clean_linker_0, # of connection points: 2
#     Edge 22, Type (0, 0), BuildingBlock: UVAHIK_clean_linker_0, # of connection points: 2
#     Edge 23, Type (0, 0), BuildingBlock: UVAHIK_clean_linker_0, # of connection points: 2
#     Edge 24, Type (0, 0), BuildingBlock: UVAHIK_clean_linker_0, # of connection points: 2
#     Edge 25, Type (0, 0), BuildingBlock: UVAHIK_clean_linker_0, # of connection points: 2
#     Edge 26, Type (0, 0), BuildingBlock: UVAHIK_clean_linker_0, # of connection points: 2
#     Edge 27, Type (0, 0), BuildingBlock: UVAHIK_clean_linker_0, # of connection points: 2
#     Edge 28, Type (0, 0), BuildingBlock: UVAHIK_clean_linker_0, # of connection points: 2
#     Edge 29, Type (0, 0), BuildingBlock: UVAHIK_clean_linker_0, # of connection points: 2
#     Edge 30, Type (0, 0), BuildingBlock: UVAHIK_clean_linker_0, # of connection points: 2
#     Edge 31, Type (0, 0), BuildingBlock: UVAHIK_clean_linker_0, # of connection points: 2
#     Edge 32, Type (0, 0), BuildingBlock: UVAHIK_clean_linker_0, # of connection points: 2
#     Edge 33, Type (0, 0), BuildingBlock: UVAHIK_clean_linker_0, # of connection points: 2
#     Edge 34, Type (0, 0), BuildingBlock: UVAHIK_clean_linker_0, # of connection points: 2
#     Edge 35, Type (0, 0), BuildingBlock: UVAHIK_clean_linker_0, # of connection points: 2
#     Edge 36, Type (0, 0), BuildingBlock: UVAHIK_clean_linker_0, # of connection points: 2
#     Edge 37, Type (0, 0), BuildingBlock: UVAHIK_clean_linker_0, # of connection points: 2
#     Edge 38, Type (0, 0), BuildingBlock: UVAHIK_clean_linker_0, # of connection points: 2
#     Edge 39, Type (0, 0), BuildingBlock: UVAHIK_clean_linker_0, # of connection points: 2
#     Edge 40, Type (0, 0), BuildingBlock: UVAHIK_clean_linker_0, # of connection points: 2
#     Edge 41, Type (0, 0), BuildingBlock: UVAHIK_clean_linker_0, # of connection points: 2
#     Edge 42, Type (0, 0), BuildingBlock: UVAHIK_clean_linker_0, # of connection points: 2
#     Edge 43, Type (0, 0), BuildingBlock: UVAHIK_clean_linker_0, # of connection points: 2
#     Edge 44, Type (0, 0), BuildingBlock: UVAHIK_clean_linker_0, # of connection points: 2
#     Edge 45, Type (0, 0), BuildingBlock: UVAHIK_clean_linker_0, # of connection points: 2
#     Edge 46, Type (0, 0), BuildingBlock: UVAHIK_clean_linker_0, # of connection points: 2
#     Edge 47, Type (0, 0), BuildingBlock: UVAHIK_clean_linker_0, # of connection points: 2
# Relax obj value: 0.100
# Max RMSD: 0.196
# Mean RMSD: 0.196
data_MOF--net-wme--node1-BETFAJ_clean_sbu_0--edge1-UVAHIK_clean_linker_0
_symmetry_space_group_name_H-M    P1
_symmetry_Int_Tables_number       1
_symmetry_cell_setting            triclinic
loop_
_symmetry_equiv_pos_as_xyz
'x, y, z'
_cell_length_a     49.77205
_cell_length_b     49.762125
_cell_length_c     67.614664
_cell_angle_alpha  89.975558
_cell_angle_beta   90.043319
_cell_angle_gamma 119.89646
loop_
_atom_site_label
_atom_site_type_symbol
_atom_site_fract_x
_atom_site_fract_y
_atom_site_fract_z
_atom_type_partial_charge
Sm0 Sm 0.20364 0.35552 0.12701 0.0
Sm1 Sm 0.23611 0.31543 0.13304 0.0
C2 C 0.18107 0.39364 0.12389 0.0
C3 C 0.18231 0.42361 0.12697 0.0
C4 C 0.18587 0.43698 0.14578 0.0
C5 C 0.18321 0.46357 0.14821 0.0
C6 C 0.17679 0.47716 0.1319 0.0
C7 C 0.17393 0.46392 0.11308 0.0
C8 C 0.17671 0.43756 0.11068 0.0
C9 C 0.21854 0.33305 0.09383 0.0
C10 C 0.27825 0.39072 0.1369 0.0
C11 C 0.25604 0.27699 0.12311 0.0
C12 C 0.24662 0.24404 0.12618 0.0
C13 C 0.24063 0.22495 0.10958 0.0
C14 C 0.22953 0.19322 0.11182 0.0
C15 C 0.22444 0.1799 0.13076 0.0
C16 C 0.23103 0.19913 0.14742 0.0
C17 C 0.24185 0.2309 0.14517 0.0
C18 C 0.21859 0.32479 0.16972 0.0
C19 C 0.15901 0.28228 0.13277 0.0
O20 O 0.17515 0.37484 0.13891 0.0
O21 O 0.1994 0.39204 0.11067 0.0
O22 O 0.23494 0.34508 0.10884 0.0
O23 O 0.19188 0.33149 0.09594 0.0
O24 O 0.25209 0.39151 0.13809 0.0
O25 O 0.2788 0.36493 0.13264 0.0
O26 O 0.23707 0.28175 0.11219 0.0
O27 O 0.26735 0.29607 0.13822 0.0
O28 O 0.21409 0.33487 0.15357 0.0
O29 O 0.23284 0.30929 0.16662 0.0
O30 O 0.18348 0.27894 0.12945 0.0
O31 O 0.1615 0.30972 0.13483 0.0
H32 H 0.19009 0.42658 0.15862 0.0
H33 H 0.18593 0.47333 0.16288 0.0
H34 H 0.1684 0.47322 0.10022 0.0
H35 H 0.17343 0.42741 0.09607 0.0
H36 H 0.24413 0.23455 0.09479 0.0
H37 H 0.22509 0.1791 0.09871 0.0
H38 H 0.22716 0.18948 0.16219 0.0
H39 H 0.246 0.24501 0.15824 0.0
Sm40 Sm 0.84983 0.19621 0.62567 0.0
Sm41 Sm 0.92266 0.2293 0.63208 0.0
C42 C 0.78903 0.1726 0.62316 0.0
C43 C 0.75979 0.17273 0.62656 0.0
C44 C 0.75089 0.17756 0.64536 0.0
C45 C 0.72114 0.17345 0.64831 0.0
C46 C 0.69977 0.16408 0.63257 0.0
C47 C 0.70927 0.16033 0.6137 0.0
C48 C 0.73891 0.16463 0.61075 0.0
C49 C 0.88744 0.21101 0.59265 0.0
C50 C 0.88878 0.27126 0.63448 0.0
C51 C 0.98162 0.25068 0.62316 0.0
C52 C 1.00518 0.24176 0.62708 0.0
C53 C 0.03492 0.25943 0.6191 0.0
C54 C 0.05659 0.24947 0.62088 0.0
C55 C 0.04886 0.22153 0.63066 0.0
C56 C 0.01909 0.20416 0.63897 0.0
C57 C 0.99744 0.21419 0.63719 0.0
C58 C 0.89485 0.21149 0.66855 0.0
C59 C 0.87972 0.15223 0.63073 0.0
O60 O 0.80258 0.1672 0.63803 0.0
O61 O 0.80833 0.19111 0.60974 0.0
O62 O 0.89176 0.22742 0.60766 0.0
O63 O 0.86201 0.18462 0.59454 0.0
O64 O 0.86189 0.2451 0.63567 0.0
O65 O 0.91526 0.2717 0.63095 0.0
O66 O 0.95855 0.23123 0.61201 0.0
O67 O 0.97279 0.26123 0.63812 0.0
O68 O 0.88087 0.20704 0.65219 0.0
O69 O 0.92462 0.22564 0.66577 0.0
O70 O 0.90737 0.17702 0.62784 0.0
O71 O 0.85452 0.15428 0.63293 0.0
H72 H 0.76654 0.18367 0.65782 0.0
H73 H 0.71446 0.17645 0.66302 0.0
H74 H 0.69357 0.15364 0.60122 0.0
H75 H 0.74521 0.16065 0.59615 0.0
H76 H 0.04113 0.28054 0.611 0.0
H77 H 0.07908 0.2632 0.61404 0.0
H78 H 0.01246 0.18273 0.64677 0.0
H79 H 0.97443 0.20011 0.64332 0.0
Sm80 Sm 0.66148 0.84879 0.12501 0.0
Sm81 Sm 0.70094 0.92141 0.13408 0.0
C82 C 0.6235 0.78858 0.11977 0.0
C83 C 0.5945 0.75917 0.12345 0.0
C84 C 0.58194 0.7498 0.14248 0.0
C85 C 0.55635 0.72008 0.14552 0.0
C86 C 0.54318 0.69919 0.12962 0.0
C87 C 0.55539 0.70914 0.11056 0.0
C88 C 0.5807 0.73876 0.10753 0.0
C89 C 0.68802 0.88915 0.09349 0.0
C90 C 0.62567 0.88773 0.13526 0.0
C91 C 0.73999 0.98076 0.12704 0.0
C92 C 0.77257 1.00339 0.13141 0.0
C93 C 0.78503 0.03407 0.12499 0.0
C94 C 0.81676 0.055 0.12691 0.0
C95 C 0.83671 0.04559 0.13525 0.0
C96 C 0.82392 0.01488 0.14206 0.0
C97 C 0.79213 0.99397 0.14015 0.0
C98 C 0.6859 0.88987 0.16939 0.0
C99 C 0.73395 0.87745 0.13482 0.0
O100 O 0.64458 0.79995 0.13371 0.0
O101 O 0.62262 0.80976 0.10873 0.0
O102 O 0.67461 0.89252 0.10815 0.0
O103 O 0.68811 0.86318 0.09488 0.0
O104 O 0.62507 0.86082 0.13619 0.0
O105 O 0.65151 0.91432 0.13172 0.0
O106 O 0.73597 0.95834 0.11512 0.0
O107 O 0.72033 0.97126 0.14186 0.0
O108 O 0.67891 0.87793 0.15235 0.0
O109 O 0.70124 0.91993 0.16811 0.0
O110 O 0.73763 0.90543 0.13176 0.0
O111 O 0.70646 0.85224 0.13532 0.0
H112 H 0.59229 0.7651 0.15502 0.0
H113 H 0.54753 0.71309 0.16039 0.0
H114 H 0.54551 0.69388 0.09795 0.0
H115 H 0.59007 0.74547 0.09274 0.0
H116 H 0.77035 0.04162 0.11795 0.0
H117 H 0.82582 0.07829 0.12125 0.0
H118 H 0.83852 1.00694 0.14874 0.0
H119 H 0.78291 0.97024 0.14506 0.0
Sm120 Sm 0.82331 0.66173 0.62899 0.0
Sm121 Sm 0.78642 0.69446 0.63629 0.0
C122 C 0.85083 0.62764 0.62864 0.0
C123 C 0.84829 0.59672 0.62726 0.0
C124 C 0.83347 0.5741 0.64202 0.0
C125 C 0.83568 0.54709 0.64207 0.0
C126 C 0.85284 0.54212 0.62741 0.0
C127 C 0.86655 0.56423 0.61224 0.0
C128 C 0.86437 0.59121 0.61221 0.0
C129 C 0.80665 0.68273 0.59581 0.0
C130 C 0.74718 0.61979 0.63412 0.0
C131 C 0.76393 0.7328 0.63454 0.0
C132 C 0.7766 0.7666 0.6337 0.0
C133 C 0.75916 0.77835 0.62482 0.0
C134 C 0.7707 0.81033 0.62386 0.0
C135 C 0.79996 0.83131 0.63184 0.0
C136 C 0.81761 0.81937 0.64048 0.0
C137 C 0.80605 0.78732 0.64137 0.0
C138 C 0.79947 0.67276 0.67007 0.0
C139 C 0.86319 0.73484 0.63467 0.0
O140 O 0.84095 0.63456 0.64472 0.0
O141 O 0.84668 0.64002 0.61268 0.0
O142 O 0.78984 0.66885 0.61037 0.0
O143 O 0.83407 0.68605 0.5981 0.0
O144 O 0.77429 0.62096 0.63534 0.0
O145 O 0.74519 0.64517 0.63185 0.0
O146 O 0.76852 0.72018 0.6189 0.0
O147 O 0.7678 0.72156 0.6511 0.0
O148 O 0.81835 0.68597 0.656 0.0
O149 O 0.77331 0.67189 0.66683 0.0
O150 O 0.83707 0.73489 0.63106 0.0
O151 O 0.86337 0.70881 0.63749 0.0
H152 H 0.82108 0.57772 0.65393 0.0
H153 H 0.82501 0.53075 0.65408 0.0
H154 H 0.87946 0.56096 0.60051 0.0
H155 H 0.87621 0.60832 0.60074 0.0
H156 H 0.73656 0.76275 0.6186 0.0
H157 H 0.75672 0.81861 0.61672 0.0
H158 H 0.8401 0.83474 0.6469 0.0
H159 H 0.82004 0.77872 0.64815 0.0
Sm160 Sm 0.16801 0.81448 0.12635 0.0
Sm161 Sm 0.09497 0.78083 0.13339 0.0
C162 C 0.22854 0.83716 0.12261 0.0
C163 C 0.25726 0.83589 0.12571 0.0
C164 C 0.26662 0.83142 0.14445 0.0
C165 C 0.29578 0.83391 0.14696 0.0
C166 C 0.31614 0.84104 0.13079 0.0
C167 C 0.30622 0.84484 0.11204 0.0
C168 C 0.27717 0.84224 0.10955 0.0
C169 C 0.12957 0.80126 0.09384 0.0
C170 C 0.12889 0.7393 0.13516 0.0
C171 C 0.03626 0.7609 0.12451 0.0
C172 C 0.01277 0.77033 0.12786 0.0
C173 C 1.00063 0.778 0.11145 0.0
C174 C 0.98002 0.78907 0.11399 0.0
C175 C 0.97078 0.7924 0.13303 0.0
C176 C 0.98235 0.78404 0.14949 0.0
C177 C 1.00333 0.77326 0.14695 0.0
C178 C 0.12394 0.79615 0.1696 0.0
C179 C 0.1384 0.8578 0.13488 0.0
O180 O 0.21603 0.84361 0.1376 0.0
O181 O 0.20833 0.81831 0.10969 0.0
O182 O 0.12562 0.78411 0.1084 0.0
O183 O 0.15494 0.82763 0.09601 0.0
O184 O 0.15575 0.76552 0.13646 0.0
O185 O 0.10238 0.73864 0.13134 0.0
O186 O 0.05951 0.77969 0.11327 0.0
O187 O 0.04464 0.74981 0.13945 0.0
O188 O 0.13714 0.80173 0.15294 0.0
O189 O 0.09401 0.78188 0.16737 0.0
O190 O 0.11075 0.83347 0.13116 0.0
O191 O 0.16367 0.85566 0.13624 0.0
H192 H 0.25169 0.82658 0.15718 0.0
H193 H 0.30245 0.83045 0.16157 0.0
H194 H 0.32132 0.85093 0.0993 0.0
H195 H 0.27063 0.84619 0.09501 0.0
H196 H 1.00748 0.77585 0.09658 0.0
H197 H 0.97113 0.79484 0.10102 0.0
H198 H 0.9757 0.78647 0.16434 0.0
H199 H 0.01242 0.76769 0.15989 0.0
Sm200 Sm 0.36082 0.16339 0.62502 0.0
Sm201 Sm 0.31818 0.09162 0.63182 0.0
C202 C 0.40143 0.22346 0.62207 0.0
C203 C 0.42981 0.25161 0.62893 0.0
C204 C 0.42735 0.27292 0.64136 0.0
C205 C 0.45308 0.30213 0.64499 0.0
C206 C 0.48186 0.31083 0.63617 0.0
C207 C 0.48464 0.289 0.62444 0.0
C208 C 0.4589 0.25977 0.6208 0.0
C209 C 0.33931 0.12544 0.59203 0.0
C210 C 0.39256 0.12227 0.63842 0.0
C211 C 0.27913 0.03328 0.62251 0.0
C212 C 0.2458 0.01097 0.62528 0.0
C213 C 0.22717 0.99744 0.60855 0.0
C214 C 0.19516 0.97814 0.61046 0.0
C215 C 0.1811 0.97173 0.6292 0.0
C216 C 0.19985 0.98475 0.64602 0.0
C217 C 0.2319 1.00436 0.64408 0.0
C218 C 0.32642 0.11995 0.66793 0.0
C219 C 0.28752 0.13748 0.62878 0.0
O220 O 0.37638 0.2123 0.63297 0.0
O221 O 0.40413 0.20208 0.61246 0.0
O222 O 0.3497 0.1207 0.60769 0.0
O223 O 0.33953 0.15156 0.59314 0.0
O224 O 0.39392 0.14948 0.63945 0.0
O225 O 0.36684 0.09659 0.63325 0.0
O226 O 0.28528 0.05664 0.6108 0.0
O227 O 0.29738 0.04122 0.63806 0.0
O228 O 0.33791 0.13384 0.65178 0.0
O229 O 0.3097 0.09024 0.66516 0.0
O230 O 0.28331 0.10922 0.62617 0.0
O231 O 0.31529 0.1618 0.63116 0.0
H232 H 0.40523 0.26754 0.64768 0.0
H233 H 0.45022 0.3182 0.65434 0.0
H234 H 0.50636 0.295 0.61725 0.0
H235 H 0.46153 0.24412 0.61091 0.0
H236 H 0.23736 1.00223 0.5939 0.0
H237 H 0.18139 0.96814 0.59726 0.0
H238 H 0.18963 0.98037 0.66064 0.0
H239 H 0.24564 0.0147 0.65724 0.0
Sm240 Sm 0.66376 0.82218 0.4151 0.0
Sm241 Sm 0.69807 0.78893 0.403 0.0
C242 C 0.62785 0.84703 0.42089 0.0
C243 C 0.59846 0.84687 0.41668 0.0
C244 C 0.5986 0.86896 0.40364 0.0
C245 C 0.57245 0.87233 0.4016 0.0
C246 C 0.54546 0.85381 0.41264 0.0
C247 C 0.54498 0.83105 0.42526 0.0
C248 C 0.5712 0.8277 0.42732 0.0
C249 C 0.68886 0.80462 0.44571 0.0
C250 C 0.62393 0.74795 0.40573 0.0
C251 C 0.7368 0.76695 0.40044 0.0
C252 C 0.77054 0.7794 0.39951 0.0
C253 C 0.78275 0.76072 0.4055 0.0
C254 C 0.81469 0.77201 0.4048 0.0
C255 C 0.83514 0.80228 0.39806 0.0
C256 C 0.82277 0.82112 0.3923 0.0
C257 C 0.79074 0.80977 0.39303 0.0
C258 C 0.672 0.80236 0.37165 0.0
C259 C 0.73698 0.86552 0.40958 0.0
O260 O 0.64852 0.85572 0.40681 0.0
O261 O 0.62732 0.8255 0.43228 0.0
O262 O 0.67448 0.78872 0.43094 0.0
O263 O 0.6901 0.83127 0.44519 0.0
O264 O 0.62467 0.7748 0.40417 0.0
O265 O 0.64964 0.74678 0.40857 0.0
O266 O 0.72603 0.77066 0.41721 0.0
O267 O 0.72387 0.77185 0.38506 0.0
O268 O 0.68589 0.82085 0.38586 0.0
O269 O 0.67245 0.77663 0.37357 0.0
O270 O 0.73823 0.8396 0.40841 0.0
O271 O 0.71039 0.86507 0.4103 0.0
H272 H 0.61932 0.88437 0.3954 0.0
H273 H 0.57353 0.88976 0.39152 0.0
H274 H 0.52472 0.81657 0.43415 0.0
H275 H 0.57039 0.81076 0.43773 0.0
H276 H 0.76756 0.73734 0.41075 0.0
H277 H 0.82338 0.75705 0.40974 0.0
H278 H 0.83775 0.84443 0.38691 0.0
H279 H 0.78175 0.82463 0.38843 0.0
Sm280 Sm 0.8543 0.66026 0.9123 0.0
Sm281 Sm 0.92817 0.69765 0.90736 0.0
C282 C 0.79305 0.62476 0.91314 0.0
C283 C 0.76406 0.59471 0.91071 0.0
C284 C 0.75602 0.57808 0.89282 0.0
C285 C 0.72658 0.55177 0.89044 0.0
C286 C 0.70456 0.54186 0.90581 0.0
C287 C 0.71316 0.55808 0.92384 0.0
C288 C 0.7425 0.58413 0.92624 0.0
C289 C 0.89078 0.68252 0.94586 0.0
C290 C 0.892 0.6218 0.90532 0.0
C291 C 0.98686 0.73448 0.91728 0.0
C292 C 1.01076 0.76682 0.91341 0.0
C293 C 0.03952 0.77934 0.92292 0.0
C294 C 0.06127 0.81089 0.92106 0.0
C295 C 0.05461 0.83059 0.90969 0.0
C296 C 0.02583 0.81774 0.89991 0.0
C297 C 1.0041 0.78614 0.90177 0.0
C298 C 0.90161 0.68899 0.87053 0.0
C299 C 0.88731 0.73398 0.90596 0.0
O300 O 0.80842 0.64019 0.89743 0.0
O301 O 0.81078 0.62854 0.9284 0.0
O302 O 0.89513 0.66969 0.93123 0.0
O303 O 0.86602 0.68462 0.94322 0.0
O304 O 0.86544 0.62193 0.9043 0.0
O305 O 0.91905 0.64734 0.9085 0.0
O306 O 0.96344 0.73127 0.92788 0.0
O307 O 0.97844 0.71493 0.90243 0.0
O308 O 0.88732 0.67998 0.88678 0.0
O309 O 0.93134 0.70317 0.87358 0.0
O310 O 0.91406 0.73564 0.91045 0.0
O311 O 0.86154 0.70737 0.90336 0.0
H312 H 0.77213 0.58582 0.88054 0.0
H313 H 0.72066 0.53988 0.87633 0.0
H314 H 0.69702 0.55081 0.93609 0.0
H315 H 0.74805 0.59662 0.94013 0.0
H316 H 0.04486 0.76487 0.93221 0.0
H317 H 0.08294 0.82001 0.92905 0.0
H318 H 0.02003 0.83212 0.89089 0.0
H319 H 0.98183 0.7769 0.89447 0.0
Sm320 Sm 0.19772 0.84944 0.40852 0.0
Sm321 Sm 0.23241 0.92351 0.40024 0.0
C322 C 0.16412 0.78806 0.40791 0.0
C323 C 0.16495 0.75888 0.41003 0.0
C324 C 0.18435 0.75252 0.39823 0.0
C325 C 0.18197 0.72327 0.3988 0.0
C326 C 0.16016 0.69974 0.41119 0.0
C327 C 0.14153 0.70661 0.42346 0.0
C328 C 0.14386 0.7358 0.42283 0.0
C329 C 0.2145 0.88874 0.44062 0.0
C330 C 0.27295 0.88733 0.40678 0.0
C331 C 0.25647 0.9839 0.40515 0.0
C332 C 0.24506 1.00471 0.41138 0.0
C333 C 0.21385 0.99288 0.41654 0.0
C334 C 0.20217 0.01295 0.41969 0.0
C335 C 0.22145 0.04522 0.41759 0.0
C336 C 0.25297 0.05688 0.41299 0.0
C337 C 0.26461 0.0368 0.40994 0.0
C338 C 0.22735 0.89181 0.36564 0.0
C339 C 0.15617 0.88264 0.39742 0.0
O340 O 0.17718 0.80504 0.39222 0.0
O341 O 0.16761 0.80448 0.42384 0.0
O342 O 0.20347 0.89158 0.42453 0.0
O343 O 0.21626 0.86348 0.44065 0.0
O344 O 0.24743 0.86023 0.4043 0.0
O345 O 0.27268 0.91395 0.40817 0.0
O346 O 0.2583 0.96595 0.4187 0.0
O347 O 0.24512 0.96966 0.38834 0.0
O348 O 0.21821 0.88066 0.38262 0.0
O349 O 0.24089 0.9218 0.36664 0.0
O350 O 0.18085 0.91068 0.39905 0.0
O351 O 0.15771 0.85695 0.399 0.0
H352 H 0.20079 0.76981 0.38815 0.0
H353 H 0.19649 0.7188 0.389 0.0
H354 H 0.12489 0.6893 0.43344 0.0
H355 H 0.12857 0.7401 0.43203 0.0
H356 H 0.19829 0.96811 0.41748 0.0
H357 H 0.17792 1.00314 0.42345 0.0
H358 H 0.26844 0.08149 0.41091 0.0
H359 H 0.28865 0.04631 0.40569 0.0
Sm360 Sm 0.36562 0.20027 0.91338 0.0
Sm361 Sm 0.32319 0.22952 0.90292 0.0
C362 C 0.40539 0.18 0.91817 0.0
C363 C 0.43259 0.1783 0.91087 0.0
C364 C 0.4281 0.15108 0.9016 0.0
C365 C 0.45325 0.14683 0.89748 0.0
C366 C 0.48354 0.16963 0.90264 0.0
C367 C 0.48819 0.19741 0.9112 0.0
C368 C 0.46298 0.20166 0.91535 0.0
C369 C 0.34064 0.21669 0.94454 0.0
C370 C 0.39841 0.27281 0.8991 0.0
C371 C 0.28408 0.25019 0.90853 0.0
C372 C 0.25139 0.2395 0.90401 0.0
C373 C 0.23863 0.25808 0.90902 0.0
C374 C 0.20685 0.24687 0.90671 0.0
C375 C 0.18724 0.21675 0.89941 0.0
C376 C 0.20034 0.19843 0.89403 0.0
C377 C 0.23215 0.20972 0.8963 0.0
C378 C 0.33494 0.20748 0.8686 0.0
C379 C 0.29235 0.15334 0.90745 0.0
O380 O 0.37923 0.16462 0.90849 0.0
O381 O 0.40954 0.20599 0.92585 0.0
O382 O 0.35196 0.23161 0.9289 0.0
O383 O 0.34284 0.19181 0.94463 0.0
O384 O 0.39984 0.24694 0.8991 0.0
O385 O 0.37222 0.27293 0.9027 0.0
O386 O 0.28854 0.23307 0.92136 0.0
O387 O 0.30346 0.25906 0.89357 0.0
O388 O 0.34468 0.20635 0.88563 0.0
O389 O 0.31765 0.22019 0.86933 0.0
O390 O 0.28794 0.17744 0.90909 0.0
O391 O 0.32028 0.1567 0.90607 0.0
H392 H 0.40497 0.13249 0.89816 0.0
H393 H 0.44888 0.12536 0.89061 0.0
H394 H 0.51118 0.21534 0.91553 0.0
H395 H 0.46725 0.22274 0.92273 0.0
H396 H 0.2531 0.28098 0.91521 0.0
H397 H 0.19751 0.26144 0.91123 0.0
H398 H 0.18598 0.1753 0.88816 0.0
H399 H 0.24163 0.19497 0.89246 0.0
Sm400 Sm 0.16928 0.35864 0.41428 0.0
Sm401 Sm 0.10195 0.32242 0.40242 0.0
C402 C 0.22976 0.39518 0.41989 0.0
C403 C 0.2582 0.42571 0.41835 0.0
C404 C 0.26574 0.44398 0.40117 0.0
C405 C 0.29487 0.47082 0.39937 0.0
C406 C 0.31699 0.47964 0.41463 0.0
C407 C 0.30878 0.46182 0.43203 0.0
C408 C 0.27973 0.4352 0.43386 0.0
C409 C 0.12737 0.33236 0.44502 0.0
C410 C 0.13237 0.39657 0.40542 0.0
C411 C 0.04196 0.28149 0.39973 0.0
C412 C 0.02167 0.24748 0.40139 0.0
C413 C 0.99856 0.23538 0.41597 0.0
C414 C 0.97878 0.20339 0.4177 0.0
C415 C 0.98146 0.18266 0.40478 0.0
C416 C 1.00491 0.19483 0.39032 0.0
C417 C 0.02484 0.22687 0.38866 0.0
C418 C 0.14101 0.34879 0.37085 0.0
C419 C 0.14168 0.28581 0.41001 0.0
O420 O 0.21772 0.3794 0.40366 0.0
O421 O 0.20908 0.39122 0.43322 0.0
O422 O 0.12492 0.34645 0.43036 0.0
O423 O 0.15321 0.33195 0.44421 0.0
O424 O 0.15918 0.39714 0.40477 0.0
O425 O 0.10588 0.37014 0.40716 0.0
O426 O 0.05518 0.29627 0.41605 0.0
O427 O 0.06031 0.29218 0.38438 0.0
O428 O 0.14609 0.33548 0.38521 0.0
O429 O 0.11462 0.34788 0.37288 0.0
O430 O 0.11406 0.28361 0.40936 0.0
O431 O 0.16727 0.3128 0.40948 0.0
H432 H 0.24953 0.43706 0.38897 0.0
H433 H 0.30051 0.48398 0.38574 0.0
H434 H 0.32502 0.46824 0.4442 0.0
H435 H 0.27444 0.42143 0.44721 0.0
H436 H 0.99575 0.25073 0.42605 0.0
H437 H 0.96144 0.19492 0.42927 0.0
H438 H 1.00751 0.17965 0.37999 0.0
H439 H 0.04253 0.23545 0.37731 0.0
Sm440 Sm 0.82333 0.16509 0.91144 0.0
Sm441 Sm 0.79027 0.09254 0.90494 0.0
C442 C 0.84532 0.22571 0.91426 0.0
C443 C 0.84556 0.2544 0.90799 0.0
C444 C 0.87093 0.27697 0.8972 0.0
C445 C 0.87456 0.30639 0.89407 0.0
C446 C 0.85299 0.31407 0.90175 0.0
C447 C 0.82688 0.29103 0.91183 0.0
C448 C 0.82325 0.26157 0.91497 0.0
C449 C 0.80842 0.12748 0.94454 0.0
C450 C 0.74922 0.12652 0.90042 0.0
C451 C 0.76965 0.03401 0.91461 0.0
C452 C 0.7792 0.01055 0.91171 0.0
C453 C 0.78355 0.99643 0.92843 0.0
C454 C 0.79554 0.97647 0.92652 0.0
C455 C 0.80317 0.96997 0.90781 0.0
C456 C 0.79799 0.98342 0.89098 0.0
C457 C 0.78631 1.00374 0.89292 0.0
C458 C 0.80751 0.12015 0.86842 0.0
C459 C 0.86721 0.13556 0.90468 0.0
O460 O 0.85706 0.21342 0.90239 0.0
O461 O 0.82209 0.20519 0.92485 0.0
O462 O 0.79209 0.12322 0.9295 0.0
O463 O 0.83475 0.15293 0.94267 0.0
O464 O 0.77573 0.15299 0.89892 0.0
O465 O 0.74808 0.10008 0.9052 0.0
O466 O 0.78833 0.05745 0.92576 0.0
O467 O 0.75899 0.04215 0.89932 0.0
O468 O 0.81227 0.13431 0.88475 0.0
O469 O 0.79345 0.09036 0.87125 0.0
O470 O 0.84266 0.10793 0.90804 0.0
O471 O 0.86506 0.16079 0.90302 0.0
H472 H 0.88869 0.2723 0.89181 0.0
H473 H 0.89466 0.32336 0.88597 0.0
H474 H 0.80994 0.29618 0.9181 0.0
H475 H 0.80362 0.24487 0.92355 0.0
H476 H 0.77831 1.00142 0.94308 0.0
H477 H 0.7989 0.96615 0.93972 0.0
H478 H 0.80382 0.97893 0.87638 0.0
H479 H 0.78349 0.01458 0.87979 0.0
C480 C 0.1671 0.91152 0.14822 0.0
C481 C 0.14209 0.88905 0.13714 0.0
C482 C 0.17323 0.94207 0.1489 0.0
C483 C 0.14119 0.99386 0.13738 0.0
H484 H 0.2284 0.05619 0.13583 0.0
C485 C 0.18762 0.12462 0.12118 0.0
C486 C 0.21235 0.14605 0.13299 0.0
C487 C 0.17706 0.09284 0.12268 0.0
C488 C 0.20396 0.0391 0.13648 0.0
H489 H 0.10313 0.8807 0.11866 0.0
H490 H 0.11433 0.93457 0.11936 0.0
H491 H 0.21326 1.00164 0.13637 0.0
H492 H 0.24511 0.15089 0.15577 0.0
H493 H 0.22679 0.09539 0.1583 0.0
H494 H 0.13216 0.0318 0.13691 0.0
C495 C 0.12896 0.92841 0.1278 0.0
C496 C 0.1952 0.00774 0.13686 0.0
C497 C 0.12253 0.89754 0.12735 0.0
C498 C 0.22594 0.13495 0.14655 0.0
C499 C 0.2156 0.10321 0.14788 0.0
C500 C 0.15 0.02537 0.1368 0.0
C501 C 0.15485 0.95122 0.13825 0.0
C502 C 0.16372 0.98463 0.1375 0.0
C503 C 0.19122 0.08182 0.13585 0.0
C504 C 0.18151 0.04832 0.13649 0.0
H505 H 0.1823 0.90559 0.15622 0.0
H506 H 0.19275 0.95864 0.15763 0.0
H507 H 0.11676 0.9768 0.13803 0.0
H508 H 0.17648 0.13246 0.11074 0.0
H509 H 0.15835 0.07697 0.11314 0.0
C510 C 0.26574 0.17293 0.63209 0.0
C511 C 0.26066 0.1428 0.62892 0.0
C512 C 0.24118 0.17885 0.63194 0.0
C513 C 0.15663 0.14309 0.63754 0.0
H514 H 0.17107 0.21887 0.61185 0.0
C515 C 0.0619 0.1787 0.6286 0.0
C516 C 0.07152 0.21023 0.63155 0.0
C517 C 0.08354 0.1685 0.62825 0.0
C518 C 0.16672 0.19777 0.61927 0.0
H519 H 0.22534 0.09509 0.62343 0.0
H520 H 0.18209 0.1056 0.62308 0.0
H521 H 0.21081 0.2041 0.61069 0.0
H522 H 0.11137 0.25546 0.63734 0.0
H523 H 0.14899 0.23775 0.6367 0.0
H524 H 0.11243 0.13699 0.64617 0.0
C525 C 0.20533 0.12457 0.62575 0.0
C526 C 0.18951 0.18926 0.61857 0.0
C527 C 0.2301 0.11857 0.62587 0.0
C528 C 0.1032 0.23114 0.63463 0.0
C529 C 0.12478 0.22097 0.63425 0.0
C530 C 0.1337 0.15163 0.63822 0.0
C531 C 0.2107 0.1549 0.62858 0.0
C532 C 0.18504 0.16213 0.628 0.0
C533 C 0.11531 0.18961 0.63079 0.0
C534 C 0.13874 0.17938 0.62936 0.0
H535 H 0.28883 0.19222 0.63468 0.0
H536 H 0.24613 0.20235 0.63461 0.0
H537 H 0.15252 0.12215 0.64505 0.0
H538 H 0.03774 0.162 0.62595 0.0
H539 H 0.07549 0.14424 0.6254 0.0
C540 C 0.88222 0.09889 0.14093 0.0
C541 C 0.87077 0.06754 0.13617 0.0
C542 C 0.91403 0.11999 0.14055 0.0
C543 C 0.99173 0.12702 0.14114 0.0
H544 H 0.01643 0.20748 0.11825 0.0
C545 C 0.12096 0.22486 0.12873 0.0
C546 C 0.12728 0.25489 0.13381 0.0
C547 C 0.0903 0.19994 0.12873 0.0
C548 C 1.00995 0.18519 0.12481 0.0
H549 H 0.88408 0.03378 0.12758 0.0
H550 H 0.93972 0.0707 0.12699 0.0
H551 H 0.96189 0.16816 0.11915 0.0
H552 H 0.10626 0.28176 0.14374 0.0
H553 H 0.05371 0.23886 0.14381 0.0
H554 H 0.04013 0.14448 0.14688 0.0
C555 C 0.924 0.07885 0.13117 0.0
C556 C 0.97864 0.16265 0.12537 0.0
C557 C 0.89209 0.05769 0.13154 0.0
C558 C 0.10245 0.25916 0.13944 0.0
C559 C 0.07212 0.2345 0.1394 0.0
C560 C 0.02324 0.14971 0.14057 0.0
C561 C 0.93532 0.11037 0.13537 0.0
C562 C 0.96901 0.13348 0.13388 0.0
C563 C 0.06551 0.20469 0.13372 0.0
C564 C 0.03262 0.17928 0.13275 0.0
H565 H 0.86657 0.10718 0.14496 0.0
H566 H 0.92198 0.14395 0.14431 0.0
H567 H 0.98508 0.10479 0.14782 0.0
H568 H 0.13953 0.22073 0.12438 0.0
H569 H 0.08593 0.17719 0.1243 0.0
C570 C 0.84307 0.88681 0.6277 0.0
C571 C 0.81162 0.86537 0.63135 0.0
C572 C 0.85356 0.91871 0.62685 0.0
C573 C 0.82477 0.97328 0.61817 0.0
H574 H 0.89991 0.03413 0.64457 0.0
C575 C 0.84636 0.09486 0.63427 0.0
C576 C 0.87592 0.12062 0.63089 0.0
C577 C 0.84154 0.0648 0.63349 0.0
C578 C 0.87912 0.01746 0.63688 0.0
H579 H 0.76692 0.86105 0.63778 0.0
H580 H 0.78506 0.91626 0.63609 0.0
H581 H 0.8857 0.97932 0.6448 0.0
H582 H 0.92388 0.13471 0.62458 0.0
H583 H 0.91531 0.08163 0.62323 0.0
H584 H 0.81784 0.01103 0.61042 0.0
C585 C 0.80154 0.90844 0.63351 0.0
C586 C 0.87096 0.98608 0.63702 0.0
C587 C 0.79111 0.87671 0.63444 0.0
C588 C 0.9008 0.11542 0.62719 0.0
C589 C 0.89592 0.08506 0.62647 0.0
C590 C 0.8329 1.00448 0.61801 0.0
C591 C 0.83282 0.92985 0.62953 0.0
C592 C 0.84328 0.96354 0.62805 0.0
C593 C 0.86606 0.0594 0.6293 0.0
C594 C 0.85975 0.02688 0.62776 0.0
H595 H 0.85949 0.87894 0.62508 0.0
H596 H 0.87776 0.93457 0.62365 0.0
H597 H 0.80372 0.95668 0.61068 0.0
H598 H 0.8266 0.09774 0.63738 0.0
H599 H 0.8184 0.04566 0.63621 0.0
C600 C 0.95319 0.83041 0.12473 0.0
C601 C 0.94902 0.80444 0.13554 0.0
C602 C 0.93183 0.84081 0.12625 0.0
C603 C 0.85018 0.81221 0.13739 0.0
H604 H 0.87405 0.89898 0.14219 0.0
C605 C 0.75783 0.84733 0.14773 0.0
C606 C 0.76125 0.87341 0.13749 0.0
C607 C 0.78224 0.84122 0.14886 0.0
C608 C 0.86699 0.87469 0.14061 0.0
H609 H 0.91947 0.76935 0.15667 0.0
H610 H 0.882 0.78739 0.15924 0.0
H611 H 0.91397 0.88395 0.14165 0.0
H612 H 0.79339 0.91429 0.12104 0.0
H613 H 0.83608 0.90315 0.12249 0.0
H614 H 0.80347 0.80274 0.13574 0.0
C615 C 0.90182 0.79967 0.14958 0.0
C616 C 0.88987 0.8661 0.14038 0.0
C617 C 0.92336 0.78949 0.14822 0.0
C618 C 0.79011 0.894 0.12903 0.0
C619 C 0.81457 0.88762 0.12993 0.0
C620 C 0.82741 0.82078 0.13741 0.0
C621 C 0.90565 0.82525 0.13845 0.0
C622 C 0.88166 0.83472 0.13889 0.0
C623 C 0.81068 0.86074 0.13951 0.0
C624 C 0.83542 0.8521 0.1392 0.0
H625 H 0.97293 0.84259 0.11499 0.0
H626 H 0.93532 0.86046 0.11742 0.0
H627 H 0.84315 0.78792 0.13579 0.0
H628 H 0.73606 0.83132 0.15474 0.0
H629 H 0.77862 0.82086 0.15692 0.0
C630 C 0.91739 0.76478 0.64704 0.0
C631 C 0.89307 0.76418 0.63612 0.0
C632 C 0.94652 0.79137 0.64759 0.0
C633 C 0.99836 0.85805 0.61826 0.0
H634 H 0.04592 0.88603 0.66685 0.0
C635 C 0.12683 0.95562 0.61843 0.0
C636 C 0.14697 0.95163 0.6311 0.0
C637 C 0.09472 0.93624 0.61987 0.0
C638 C 0.03311 0.87837 0.65311 0.0
H639 H 0.87996 0.79128 0.61755 0.0
H640 H 0.93161 0.838 0.61811 0.0
H641 H 0.9913 0.84634 0.66809 0.0
H642 H 0.14925 0.92416 0.65521 0.0
H643 H 0.0934 0.88985 0.65745 0.0
H644 H 0.04036 0.88886 0.60313 0.0
C645 C 0.92781 0.81773 0.62634 0.0
C646 C 1.00174 0.85579 0.65386 0.0
C647 C 0.8983 0.79111 0.62609 0.0
C648 C 0.1343 0.92802 0.64538 0.0
C649 C 0.10222 0.90844 0.6467 0.0
C650 C 0.02985 0.88042 0.61747 0.0
C651 C 0.95224 0.81798 0.63701 0.0
C652 C 0.98419 0.84496 0.63641 0.0
C653 C 0.08196 0.91219 0.63392 0.0
C654 C 0.04782 0.89044 0.63487 0.0
H655 H 0.91405 0.74448 0.65507 0.0
H656 H 0.96492 0.79074 0.65577 0.0
H657 H 0.98548 0.84988 0.60456 0.0
H658 H 0.13591 0.97393 0.60746 0.0
H659 H 0.07991 0.94023 0.61 0.0
C660 C 0.11869 0.90285 0.39982 0.0
C661 C 0.12487 0.87897 0.39496 0.0
C662 C 0.08813 0.8974 0.39962 0.0
C663 C 1.00779 0.83194 0.40359 0.0
H664 H 0.98312 0.88962 0.3839 0.0
C665 C 0.87992 0.79391 0.39073 0.0
C666 C 0.86911 0.8138 0.39694 0.0
C667 C 0.91161 0.804 0.39039 0.0
C668 C 0.98973 0.87342 0.38964 0.0
H669 H 0.10402 0.83135 0.38479 0.0
H670 H 0.05143 0.82217 0.38416 0.0
H671 H 0.03793 0.9039 0.3832 0.0
H672 H 0.8835 0.86029 0.40732 0.0
H673 H 0.93902 0.87799 0.40661 0.0
H674 H 0.95991 0.80141 0.40995 0.0
C675 C 0.06984 0.84479 0.3887 0.0
C676 C 0.02111 0.88161 0.38925 0.0
C677 C 0.10013 0.85015 0.38897 0.0
C678 C 0.89098 0.8444 0.40231 0.0
C679 C 0.92281 0.85456 0.40192 0.0
C680 C 0.97661 0.82379 0.40395 0.0
C681 C 0.06328 0.86801 0.39452 0.0
C682 C 0.03041 0.86069 0.39591 0.0
C683 C 0.93346 0.83431 0.39621 0.0
C684 C 0.96706 0.84417 0.3967 0.0
H685 H 0.13723 0.92532 0.40452 0.0
H686 H 0.08386 0.9158 0.40418 0.0
H687 H 0.01419 0.81559 0.40935 0.0
H688 H 0.86387 0.77045 0.38601 0.0
H689 H 0.91902 0.788 0.38549 0.0
C690 C 0.06738 0.88647 0.90946 0.0
C691 C 0.07731 0.86449 0.90856 0.0
C692 C 0.08891 0.9183 0.9094 0.0
C693 C 0.17137 0.97321 0.92044 0.0
H694 H 0.1587 0.03223 0.89018 0.0
C695 C 0.27091 0.09603 0.90596 0.0
C696 C 0.26554 0.12117 0.90745 0.0
C697 C 0.24641 0.06557 0.90646 0.0
C698 C 0.16236 0.01609 0.89893 0.0
H699 H 0.11773 0.85898 0.90606 0.0
H700 H 0.15513 0.91426 0.90596 0.0
H701 H 0.11891 0.97727 0.88999 0.0
H702 H 0.22977 0.13372 0.91024 0.0
H703 H 0.18664 0.08004 0.91117 0.0
H704 H 0.21476 0.01171 0.92929 0.0
C705 C 0.13072 0.90693 0.90713 0.0
C706 C 0.13959 0.98459 0.89879 0.0
C707 C 0.10925 0.87518 0.90717 0.0
C708 C 0.23477 0.11494 0.90912 0.0
C709 C 0.21006 0.0842 0.90957 0.0
C710 C 0.19401 1.00455 0.92058 0.0
C711 C 0.12088 0.92892 0.90848 0.0
C712 C 0.14409 0.96269 0.90929 0.0
C713 C 0.2157 0.05917 0.90848 0.0
C714 C 0.1901 0.02633 0.90955 0.0
H715 H 0.04299 0.8791 0.91078 0.0
H716 H 0.08052 0.93457 0.91062 0.0
H717 H 0.17528 0.95717 0.92911 0.0
H718 H 0.29417 0.09972 0.90448 0.0
H719 H 0.2516 0.04694 0.90515 0.0
C720 C 0.17327 0.26146 0.41865 0.0
C721 C 0.14496 0.25789 0.4119 0.0
C722 C 0.1781 0.23625 0.41957 0.0
C723 C 0.13986 0.15071 0.41984 0.0
H724 H 0.2222 0.16848 0.40441 0.0
C725 C 0.17934 0.05832 0.41107 0.0
C726 C 0.20866 0.06663 0.41902 0.0
C727 C 0.1687 0.07962 0.41071 0.0
C728 C 0.19918 0.16318 0.40891 0.0
H729 H 0.09898 0.22462 0.40148 0.0
H730 H 0.10771 0.18014 0.40272 0.0
H731 H 0.20842 0.20881 0.40193 0.0
H732 H 0.24881 0.10338 0.43392 0.0
H733 H 0.23054 0.14056 0.4329 0.0
H734 H 0.13078 0.10466 0.42652 0.0
C735 C 0.12608 0.20266 0.40744 0.0
C736 C 0.19124 0.18631 0.40752 0.0
C737 C 0.12109 0.2281 0.40667 0.0
C738 C 0.22648 0.09636 0.42726 0.0
C739 C 0.21598 0.11767 0.42674 0.0
C740 C 0.14777 0.12733 0.42105 0.0
C741 C 0.15494 0.20665 0.41355 0.0
C742 C 0.16176 0.18068 0.4134 0.0
C743 C 0.18726 0.10976 0.41812 0.0
C744 C 0.17776 0.13358 0.41598 0.0
H745 H 0.19199 0.28391 0.42322 0.0
H746 H 0.20024 0.24009 0.42497 0.0
H747 H 0.11699 0.14559 0.42453 0.0
H748 H 0.16509 0.03578 0.40438 0.0
H749 H 0.14654 0.07294 0.40389 0.0
C750 C 0.1415 0.22321 0.89124 0.0
C751 C 0.1532 0.20431 0.89796 0.0
C752 C 0.10957 0.21195 0.89056 0.0
C753 C 0.03551 0.15246 0.91222 0.0
H754 H 1.0004 0.17628 0.86907 0.0
C755 C 0.90424 0.1148 0.90732 0.0
C756 C 0.89847 0.13901 0.9026 0.0
C757 C 0.93427 0.11913 0.90565 0.0
C758 C 1.00985 0.16948 0.88126 0.0
H759 H 0.14036 0.15864 0.90923 0.0
H760 H 0.08455 0.13883 0.90777 0.0
H761 H 0.0549 0.19078 0.86811 0.0
H762 H 0.91981 0.18658 0.89215 0.0
H763 H 0.97151 0.19394 0.88934 0.0
H764 H 0.9904 0.1316 0.9255 0.0
C765 C 0.10014 0.16247 0.90315 0.0
C766 C 0.04112 0.17786 0.88073 0.0
C767 C 0.13213 0.17372 0.90378 0.0
C768 C 0.92325 0.16736 0.89597 0.0
C769 C 0.95299 0.17157 0.89418 0.0
C770 C 1.00413 0.14403 0.91274 0.0
C771 C 0.08847 0.18148 0.89659 0.0
C772 C 0.05453 0.17005 0.89639 0.0
C773 C 0.95896 0.14759 0.899 0.0
C774 C 0.99113 0.15307 0.89747 0.0
H775 H 0.15704 0.24678 0.88648 0.0
H776 H 0.10144 0.22738 0.88565 0.0
H777 H 0.04514 0.14624 0.9246 0.0
H778 H 0.88569 0.09268 0.91248 0.0
H779 H 0.93815 0.10017 0.90942 0.0
C780 C 0.96926 0.12691 0.40309 0.0
C781 C 0.95936 0.14864 0.40615 0.0
C782 C 0.94828 0.09501 0.4045 0.0
C783 C 0.87248 0.03955 0.42629 0.0
H784 H 0.86877 0.98227 0.38603 0.0
C785 C 0.76348 0.92284 0.41414 0.0
C786 C 0.76573 0.89625 0.4103 0.0
C787 C 0.78984 0.95208 0.41483 0.0
C788 C 0.86987 0.99787 0.39758 0.0
H789 H 0.91925 0.15349 0.41247 0.0
H790 H 0.88303 0.09825 0.41519 0.0
H791 H 0.90993 0.03671 0.38485 0.0
H792 H 0.79782 0.87979 0.40411 0.0
H793 H 0.84435 0.93149 0.40523 0.0
H794 H 0.83225 1.00114 0.43884 0.0
C795 C 0.90711 0.10584 0.41202 0.0
C796 C 0.8934 0.02905 0.39688 0.0
C797 C 0.92794 0.1376 0.4105 0.0
C798 C 0.79527 0.89977 0.40712 0.0
C799 C 0.82186 0.92935 0.40769 0.0
C800 C 0.84913 0.00853 0.427 0.0
C801 C 0.917 0.08415 0.40914 0.0
C802 C 0.89441 0.0504 0.41094 0.0
C803 C 0.81937 0.9558 0.41169 0.0
C804 C 0.84697 0.9875 0.41235 0.0
H805 H 0.99333 0.13454 0.39991 0.0
H806 H 0.95665 0.07888 0.40231 0.0
H807 H 0.87305 0.05522 0.43761 0.0
H808 H 0.74123 0.92122 0.41665 0.0
H809 H 0.78697 0.97196 0.41757 0.0
C810 C 0.86139 0.76211 0.89282 0.0
C811 C 0.8855 0.76265 0.90397 0.0
C812 C 0.85783 0.78816 0.89181 0.0
C813 C 0.87123 0.85549 0.92021 0.0
H814 H 0.85059 0.88147 0.87115 0.0
C815 C 0.84107 0.95358 0.91863 0.0
C816 C 0.8169 0.94956 0.906 0.0
C817 C 0.85347 0.93386 0.9174 0.0
C818 C 0.856 0.87434 0.88502 0.0
H819 H 0.92528 0.79122 0.92247 0.0
H820 H 0.9186 0.83689 0.92104 0.0
H821 H 0.86576 0.84182 0.87059 0.0
H822 H 0.78683 0.92182 0.88214 0.0
H823 H 0.80775 0.8868 0.8803 0.0
H824 H 0.86017 0.88683 0.93482 0.0
C825 C 0.9026 0.81618 0.91301 0.0
C826 C 0.86491 0.85177 0.88466 0.0
C827 C 0.90649 0.79014 0.91375 0.0
C828 C 0.80564 0.92563 0.89194 0.0
C829 C 0.81779 0.90566 0.89085 0.0
C830 C 0.86198 0.87783 0.92062 0.0
C831 C 0.87806 0.81531 0.90213 0.0
C832 C 0.87216 0.84178 0.90227 0.0
C833 C 0.84178 0.90938 0.90364 0.0
C834 C 0.85377 0.88723 0.90305 0.0
H835 H 0.84495 0.74136 0.88498 0.0
H836 H 0.83855 0.78668 0.88346 0.0
H837 H 0.87632 0.84796 0.93404 0.0
H838 H 0.85055 0.97216 0.92941 0.0
H839 H 0.87231 0.9379 0.92723 0.0
C840 C 0.10556 0.68178 0.12993 0.0
C841 C 0.12935 0.7099 0.1376 0.0
C842 C 0.10782 0.65482 0.13086 0.0
C843 C 0.14812 0.61918 0.15655 0.0
H844 H 0.13483 0.5732 0.1078 0.0
C845 C 0.15555 0.50626 0.1508 0.0
C846 C 0.17175 0.50415 0.13436 0.0
C847 C 0.14883 0.53039 0.15227 0.0
C848 C 0.13864 0.58582 0.12152 0.0
H849 H 0.17351 0.73138 0.153 0.0
H850 H 0.1772 0.68451 0.15477 0.0
H851 H 0.12443 0.61625 0.10887 0.0
H852 H 0.19478 0.52684 0.10703 0.0
H853 H 0.18261 0.56844 0.10947 0.0
H854 H 0.16283 0.58902 0.1691 0.0
C855 C 0.15687 0.68323 0.14799 0.0
C856 C 0.13235 0.61025 0.1222 0.0
C857 C 0.15482 0.71017 0.14684 0.0
C858 C 0.18167 0.52724 0.11969 0.0
C859 C 0.1747 0.55114 0.12107 0.0
C860 C 0.15409 0.59451 0.15593 0.0
C861 C 0.13366 0.65534 0.13976 0.0
C862 C 0.13747 0.62752 0.13963 0.0
C863 C 0.15793 0.55283 0.13726 0.0
C864 C 0.1499 0.57788 0.13832 0.0
H865 H 0.08567 0.68081 0.12269 0.0
H866 H 0.08947 0.63359 0.1245 0.0
H867 H 0.1521 0.63193 0.17024 0.0
H868 H 0.14717 0.48874 0.16226 0.0
H869 H 0.13574 0.53099 0.16488 0.0
C870 C 0.64254 0.1303 0.62731 0.0
C871 C 0.66729 0.15702 0.63574 0.0
C872 C 0.612 0.12392 0.62952 0.0
C873 C 0.56184 0.14501 0.65889 0.0
H874 H 0.50746 0.11169 0.61343 0.0
C875 C 0.44724 0.14712 0.6507 0.0
C876 C 0.4217 0.12161 0.64181 0.0
C877 C 0.47597 0.14859 0.65189 0.0
C878 C 0.52216 0.12053 0.62637 0.0
H879 H 0.67926 0.19782 0.65335 0.0
H880 H 0.62593 0.18708 0.65693 0.0
H881 H 0.56008 0.12054 0.61156 0.0
H882 H 0.40617 0.07707 0.6278 0.0
H883 H 0.45652 0.07966 0.62985 0.0
H884 H 0.52396 0.14575 0.67346 0.0
C885 C 0.63007 0.1707 0.64887 0.0
C886 C 0.55242 0.12563 0.62532 0.0
C887 C 0.66069 0.17695 0.64678 0.0
C888 C 0.42532 0.09702 0.63477 0.0
C889 C 0.45423 0.09863 0.6358 0.0
C890 C 0.5316 0.14008 0.65989 0.0
C891 C 0.60532 0.14421 0.64011 0.0
C892 C 0.57277 0.13809 0.64152 0.0
C893 C 0.48002 0.12468 0.64409 0.0
C894 C 0.51145 0.12794 0.6436 0.0
H895 H 0.64679 0.11414 0.61905 0.0
H896 H 0.5936 0.10294 0.62295 0.0
H897 H 0.5766 0.15412 0.67178 0.0
H898 H 0.4453 0.16645 0.65635 0.0
H899 H 0.49535 0.16909 0.65822 0.0
C900 C 0.51772 0.64188 0.12326 0.0
C901 C 0.51736 0.66687 0.13276 0.0
C902 C 0.49309 0.61158 0.12551 0.0
C903 C 0.40995 0.56812 0.1373 0.0
H904 H 0.42349 0.49831 0.14378 0.0
C905 C 0.30723 0.44529 0.14924 0.0
C906 C 0.30762 0.42053 0.1395 0.0
C907 C 0.33376 0.47456 0.15003 0.0
C908 C 0.41926 0.51747 0.14175 0.0
H909 H 0.49091 0.67941 0.15232 0.0
H910 H 0.44778 0.6264 0.15625 0.0
H911 H 0.46783 0.55089 0.14222 0.0
H912 H 0.33661 0.40695 0.12345 0.0
H913 H 0.38296 0.45838 0.12441 0.0
H914 H 0.36159 0.53499 0.13632 0.0
C915 C 0.46714 0.63036 0.14697 0.0
C916 C 0.44471 0.54765 0.14092 0.0
C917 C 0.49195 0.6607 0.14485 0.0
C918 C 0.33558 0.4255 0.13115 0.0
C919 C 0.36217 0.45502 0.13174 0.0
C920 C 0.38457 0.53801 0.13799 0.0
C921 C 0.46732 0.60545 0.13722 0.0
C922 C 0.44035 0.57335 0.13869 0.0
C923 C 0.36143 0.48012 0.14087 0.0
C924 C 0.3888 0.51221 0.14027 0.0
H925 H 0.53712 0.64577 0.11404 0.0
H926 H 0.4939 0.59302 0.11767 0.0
H927 H 0.40576 0.5873 0.1352 0.0
H928 H 0.2862 0.44221 0.15609 0.0
H929 H 0.33241 0.49296 0.15768 0.0
C930 C 0.88666 0.51797 0.62376 0.0
C931 C 0.85765 0.5148 0.62844 0.0
C932 C 0.89158 0.49267 0.62517 0.0
C933 C 0.86032 0.41553 0.64883 0.0
H934 H 0.90795 0.40225 0.60857 0.0
C935 C 0.86076 0.3003 0.6417 0.0
C936 C 0.88827 0.30083 0.63612 0.0
C937 C 0.85899 0.32745 0.64188 0.0
C938 C 0.89501 0.40586 0.62011 0.0
H939 H 0.81093 0.48211 0.638 0.0
H940 H 0.81948 0.43802 0.64044 0.0
H941 H 0.90047 0.44702 0.60626 0.0
H942 H 0.93578 0.33078 0.62678 0.0
H943 H 0.93275 0.3784 0.62726 0.0
H944 H 0.85466 0.37429 0.66261 0.0
C945 C 0.83861 0.46026 0.63595 0.0
C946 C 0.89064 0.43153 0.61877 0.0
C947 C 0.83367 0.48556 0.63452 0.0
C948 C 0.91424 0.32948 0.63116 0.0
C949 C 0.91242 0.35675 0.63128 0.0
C950 C 0.8647 0.3899 0.65018 0.0
C951 C 0.86766 0.46349 0.63134 0.0
C952 C 0.873 0.43656 0.63301 0.0
C953 C 0.88465 0.35601 0.63649 0.0
C954 C 0.88184 0.38452 0.63574 0.0
H955 H 0.90588 0.54022 0.6194 0.0
H956 H 0.91437 0.49618 0.62179 0.0
H957 H 0.84714 0.41897 0.66029 0.0
H958 H 0.84023 0.27875 0.64563 0.0
H959 H 0.8371 0.32582 0.64571 0.0
C960 C 0.57052 0.86148 0.14661 0.0
C961 C 0.5958 0.88725 0.13774 0.0
C962 C 0.54151 0.85938 0.14769 0.0
C963 C 0.49351 0.88493 0.12212 0.0
H964 H 0.44082 0.85258 0.16839 0.0
C965 C 0.36152 0.8365 0.11852 0.0
C966 C 0.34804 0.84579 0.13337 0.0
C967 C 0.39225 0.84319 0.12007 0.0
C968 C 0.45531 0.86184 0.1554 0.0
H969 H 0.61051 0.93142 0.12345 0.0
H970 H 0.55949 0.92757 0.12513 0.0
H971 H 0.49433 0.8631 0.16981 0.0
H972 H 0.35657 0.86896 0.16178 0.0
H973 H 0.41004 0.87992 0.16467 0.0
H974 H 0.4544 0.88323 0.10762 0.0
C975 C 0.5623 0.909 0.13125 0.0
C976 C 0.48589 0.86769 0.15617 0.0
C977 C 0.59154 0.9113 0.1304 0.0
C978 C 0.36594 0.86107 0.15016 0.0
C979 C 0.39667 0.86752 0.15178 0.0
C980 C 0.46286 0.87877 0.12129 0.0
C981 C 0.53689 0.88285 0.13975 0.0
C982 C 0.50525 0.87903 0.13948 0.0
C983 C 0.41031 0.85906 0.13661 0.0
C984 C 0.4433 0.86685 0.13785 0.0
H985 H 0.57299 0.84258 0.15252 0.0
H986 H 0.5224 0.83881 0.15416 0.0
H987 H 0.50772 0.89341 0.10896 0.0
H988 H 0.34833 0.82408 0.10559 0.0
H989 H 0.40187 0.83578 0.10832 0.0
C990 C 0.72109 0.56212 0.63777 0.0
C991 C 0.71867 0.58891 0.63526 0.0
C992 C 0.69462 0.53288 0.63897 0.0
C993 C 0.61146 0.48964 0.62627 0.0
H994 H 0.61037 0.42934 0.66313 0.0
C995 C 0.50321 0.3685 0.63691 0.0
C996 C 0.50827 0.34313 0.63813 0.0
C997 C 0.52806 0.39891 0.63763 0.0
C998 C 0.61039 0.4458 0.65263 0.0
H999 H 0.68625 0.60577 0.63205 0.0
H1000 H 0.63985 0.5545 0.63426 0.0
H1001 H 0.65478 0.48171 0.66243 0.0
H1002 H 0.54354 0.33002 0.6415 0.0
H1003 H 0.58694 0.38306 0.64252 0.0
H1004 H 0.56712 0.4536 0.61638 0.0
C1005 C 0.66239 0.55625 0.63513 0.0
C1006 C 0.63586 0.47586 0.65223 0.0
C1007 C 0.68898 0.58565 0.63395 0.0
C1008 C 0.53881 0.34898 0.64037 0.0
C1009 C 0.56368 0.37942 0.64115 0.0
C1010 C 0.58593 0.45955 0.62669 0.0
C1011 C 0.66492 0.52951 0.63772 0.0
C1012 C 0.6369 0.49808 0.6389 0.0
C1013 C 0.55864 0.40478 0.63963 0.0
C1014 C 0.58522 0.43716 0.63974 0.0
H1015 H 0.74351 0.5636 0.63878 0.0
H1016 H 0.69751 0.51281 0.6406 0.0
H1017 H 0.61163 0.50602 0.61565 0.0
H1018 H 0.48005 0.3649 0.6349 0.0
H1019 H 0.5233 0.41786 0.63662 0.0
C1020 C 0.30199 0.85836 0.40848 0.0
C1021 C 0.30268 0.88699 0.40785 0.0
C1022 C 0.3293 0.857 0.40863 0.0
C1023 C 0.41328 0.90184 0.41902 0.0
H1024 H 0.41405 0.83681 0.38783 0.0
C1025 C 0.52286 0.88922 0.4107 0.0
C1026 C 0.51838 0.85897 0.41148 0.0
C1027 C 0.49754 0.89418 0.40984 0.0
C1028 C 0.41417 0.85491 0.39678 0.0
H1029 H 0.33314 0.9368 0.40731 0.0
H1030 H 0.38125 0.93441 0.40747 0.0
H1031 H 0.36885 0.84346 0.38697 0.0
H1032 H 0.48352 0.81023 0.41187 0.0
H1033 H 0.43941 0.81884 0.41061 0.0
H1034 H 0.4587 0.91313 0.42887 0.0
C1035 C 0.35926 0.91298 0.40793 0.0
C1036 C 0.38821 0.85877 0.39628 0.0
C1037 C 0.3317 0.91437 0.40778 0.0
C1038 C 0.48787 0.83383 0.41141 0.0
C1039 C 0.46256 0.83878 0.41047 0.0
C1040 C 0.43935 0.89799 0.4195 0.0
C1041 C 0.35833 0.8842 0.4081 0.0
C1042 C 0.38717 0.88195 0.40762 0.0
C1043 C 0.46704 0.86903 0.40966 0.0
C1044 C 0.43995 0.87417 0.40859 0.0
H1045 H 0.28022 0.83668 0.4088 0.0
H1046 H 0.32759 0.83445 0.40927 0.0
H1047 H 0.4132 0.91977 0.42805 0.0
H1048 H 0.54599 0.90918 0.411 0.0
H1049 H 0.50189 0.91776 0.40908 0.0
C1050 C 0.66677 0.48795 0.8936 0.0
C1051 C 0.67237 0.51545 0.90302 0.0
C1052 C 0.63647 0.46294 0.89166 0.0
C1053 C 0.55721 0.43131 0.91287 0.0
H1054 H 0.53237 0.37841 0.86656 0.0
C1055 C 0.43094 0.33099 0.90204 0.0
C1056 C 0.42791 0.30249 0.89619 0.0
C1057 C 0.45989 0.35827 0.90134 0.0
C1058 C 0.53897 0.39289 0.87964 0.0
H1059 H 0.65027 0.53862 0.91701 0.0
H1060 H 0.59769 0.49546 0.9134 0.0
H1061 H 0.58456 0.42314 0.8684 0.0
H1062 H 0.45283 0.28069 0.88422 0.0
H1063 H 0.50289 0.32798 0.88293 0.0
H1064 H 0.5116 0.401 0.92409 0.0
C1065 C 0.61665 0.49271 0.908 0.0
C1066 C 0.56899 0.41851 0.88074 0.0
C1067 C 0.64688 0.51756 0.91004 0.0
C1068 C 0.45424 0.30217 0.88891 0.0
C1069 C 0.48301 0.32939 0.88805 0.0
C1070 C 0.52715 0.40581 0.91171 0.0
C1071 C 0.61096 0.4649 0.89895 0.0
C1072 C 0.57865 0.43798 0.89745 0.0
C1073 C 0.48638 0.35772 0.89458 0.0
C1074 C 0.51771 0.38609 0.89516 0.0
H1075 H 0.68587 0.48546 0.88816 0.0
H1076 H 0.63314 0.44182 0.88483 0.0
H1077 H 0.56383 0.44536 0.92614 0.0
H1078 H 0.41119 0.33209 0.90777 0.0
H1079 H 0.4616 0.37977 0.90628 0.0
C1080 C 0.18172 0.66349 0.40873 0.0
C1081 C 0.15606 0.66791 0.41077 0.0
C1082 C 0.17769 0.63361 0.40765 0.0
C1083 C 0.12251 0.55145 0.41942 0.0
H1084 H 0.17116 0.53554 0.38138 0.0
C1085 C 0.1055 0.42825 0.40665 0.0
C1086 C 0.13277 0.42662 0.40459 0.0
C1087 C 0.1067 0.45704 0.4066 0.0
C1088 C 0.15757 0.53961 0.39221 0.0
H1089 H 0.1059 0.64402 0.41313 0.0
H1090 H 0.09897 0.59202 0.41147 0.0
H1091 H 0.17689 0.587 0.38339 0.0
H1092 H 0.18266 0.45415 0.40071 0.0
H1093 H 0.18469 0.50379 0.40085 0.0
H1094 H 0.10348 0.50409 0.4284 0.0
C1095 C 0.12226 0.61171 0.41091 0.0
C1096 C 0.16089 0.56916 0.39337 0.0
C1097 C 0.12628 0.64159 0.41191 0.0
C1098 C 0.16112 0.45437 0.40227 0.0
C1099 C 0.16229 0.48298 0.40222 0.0
C1100 C 0.11925 0.52185 0.4183 0.0
C1101 C 0.1479 0.60734 0.40863 0.0
C1102 C 0.14364 0.57556 0.40711 0.0
C1103 C 0.13516 0.48478 0.40443 0.0
C1104 C 0.137 0.51564 0.40482 0.0
H1105 H 0.20503 0.68314 0.40811 0.0
H1106 H 0.19799 0.63109 0.40623 0.0
H1107 H 0.10905 0.55564 0.43028 0.0
H1108 H 0.08329 0.40736 0.40847 0.0
H1109 H 0.0853 0.45755 0.40816 0.0
C1110 C 0.72177 0.15489 0.89032 0.0
C1111 C 0.72021 0.12764 0.89757 0.0
C1112 C 0.69533 0.15778 0.88941 0.0
C1113 C 0.60969 0.11448 0.89011 0.0
H1114 H 0.62026 0.19294 0.90863 0.0
C1115 C 0.50626 0.13454 0.90497 0.0
C1116 C 0.50986 0.16367 0.90016 0.0
C1117 C 0.53127 0.12921 0.90361 0.0
C1118 C 0.61693 0.17105 0.90313 0.0
H1119 H 0.68914 0.08151 0.90882 0.0
H1120 H 0.64271 0.08664 0.90729 0.0
H1121 H 0.66448 0.18473 0.90805 0.0
H1122 H 0.54247 0.20978 0.88959 0.0
H1123 H 0.58607 0.20047 0.88708 0.0
H1124 H 0.56201 0.10083 0.88524 0.0
C1125 C 0.66457 0.10573 0.90225 0.0
C1126 C 0.64231 0.16631 0.90283 0.0
C1127 C 0.69117 0.1028 0.90315 0.0
C1128 C 0.539 0.18721 0.89366 0.0
C1129 C 0.564 0.18186 0.89225 0.0
C1130 C 0.58422 0.11926 0.89038 0.0
C1131 C 0.66652 0.13354 0.89575 0.0
C1132 C 0.63909 0.13803 0.89624 0.0
C1133 C 0.56054 0.15288 0.89739 0.0
C1134 C 0.58755 0.14767 0.89684 0.0
H1135 H 0.74362 0.17441 0.88564 0.0
H1136 H 0.69756 0.17924 0.8839 0.0
H1137 H 0.60648 0.09254 0.88479 0.0
H1138 H 0.48429 0.11603 0.91035 0.0
H1139 H 0.52783 0.10677 0.90797 0.0
C1140 C 0.37469 0.50412 0.41835 0.0
C1141 C 0.34893 0.5065 0.41225 0.0
C1142 C 0.40475 0.52928 0.41651 0.0
C1143 C 0.45112 0.60506 0.39096 0.0
H1144 H 0.50994 0.62027 0.43311 0.0
C1145 C 0.56688 0.72024 0.3988 0.0
C1146 C 0.59342 0.719 0.40457 0.0
C1147 C 0.53773 0.69348 0.3986 0.0
C1148 C 0.49394 0.61613 0.42108 0.0
H1149 H 0.33467 0.53728 0.39934 0.0
H1150 H 0.38715 0.58146 0.39639 0.0
H1151 H 0.45775 0.57579 0.43514 0.0
H1152 H 0.61003 0.68838 0.41439 0.0
H1153 H 0.55894 0.64151 0.41408 0.0
H1154 H 0.48729 0.64584 0.37712 0.0
C1155 C 0.38416 0.55991 0.40231 0.0
C1156 C 0.46395 0.59058 0.42222 0.0
C1157 C 0.35403 0.53461 0.40404 0.0
C1158 C 0.5901 0.69017 0.40986 0.0
C1159 C 0.56081 0.66336 0.4098 0.0
C1160 C 0.48108 0.63071 0.38987 0.0
C1161 C 0.40994 0.55763 0.40862 0.0
C1162 C 0.44206 0.58472 0.40721 0.0
C1163 C 0.53424 0.66474 0.40427 0.0
C1164 C 0.50283 0.63664 0.40496 0.0
H1165 H 0.37165 0.4826 0.42436 0.0
H1166 H 0.42398 0.52636 0.42113 0.0
H1167 H 0.43515 0.60104 0.37895 0.0
H1168 H 0.56851 0.74201 0.3946 0.0
H1169 H 0.51776 0.69547 0.39447 0.0
C1170 C 0.91707 0.58839 0.90587 0.0
C1171 C 0.89063 0.59137 0.90326 0.0
C1172 C 0.91496 0.55925 0.90447 0.0
C1173 C 0.86426 0.47944 0.88509 0.0
H1174 H 0.90636 0.45606 0.92382 0.0
C1175 C 0.83416 0.35219 0.89656 0.0
C1176 C 0.85864 0.34641 0.90025 0.0
C1177 C 0.83948 0.38259 0.8959 0.0
C1178 C 0.89475 0.46232 0.91272 0.0
H1179 H 0.84124 0.56579 0.89692 0.0
H1180 H 0.83765 0.51553 0.8947 0.0
H1181 H 0.91375 0.50835 0.92428 0.0
H1182 H 0.90795 0.36832 0.90628 0.0
H1183 H 0.91726 0.42121 0.90476 0.0
H1184 H 0.84498 0.43334 0.87367 0.0
C1185 C 0.86012 0.53562 0.89758 0.0
C1186 C 0.89904 0.49236 0.91297 0.0
C1187 C 0.86219 0.56458 0.89901 0.0
C1188 C 0.8886 0.37185 0.90313 0.0
C1189 C 0.89389 0.40222 0.90252 0.0
C1190 C 0.85995 0.44943 0.88485 0.0
C1191 C 0.8864 0.53248 0.90034 0.0
C1192 C 0.88357 0.50121 0.89929 0.0
C1193 C 0.86939 0.40801 0.89897 0.0
C1194 C 0.8749 0.44036 0.89878 0.0
H1195 H 0.93934 0.60848 0.90915 0.0
H1196 H 0.93574 0.55772 0.90651 0.0
H1197 H 0.85241 0.48559 0.8741 0.0
H1198 H 0.81085 0.33319 0.89415 0.0
H1199 H 0.81999 0.38614 0.89333 0.0
C1200 C 0.17464 0.34124 0.34638 0.0
C1201 C 0.15566 0.35374 0.35116 0.0
C1202 C 0.18385 0.34151 0.32676 0.0
C1203 C 0.18938 0.37575 0.27691 0.0
H1204 H 0.17766 0.29676 0.25875 0.0
C1205 C 0.19575 0.34733 0.19354 0.0
C1206 C 0.21107 0.33056 0.18988 0.0
C1207 C 0.18922 0.35199 0.21309 0.0
C1208 C 0.1814 0.31912 0.26357 0.0
H1209 H 0.13323 0.37819 0.33952 0.0
H1210 H 0.14935 0.37878 0.30542 0.0
H1211 H 0.16909 0.30328 0.29335 0.0
H1212 H 0.23206 0.30611 0.20374 0.0
H1213 H 0.22128 0.31456 0.23728 0.0
H1214 H 0.20181 0.39152 0.24698 0.0
C1215 C 0.15709 0.36869 0.31669 0.0
C1216 C 0.17658 0.32288 0.28347 0.0
C1217 C 0.14774 0.36823 0.33623 0.0
C1218 C 0.21996 0.31891 0.206 0.0
C1219 C 0.21358 0.32358 0.22531 0.0
C1220 C 0.19438 0.37203 0.25693 0.0
C1221 C 0.17446 0.35452 0.31161 0.0
C1222 C 0.1807 0.35126 0.29045 0.0
C1223 C 0.19788 0.33988 0.22919 0.0
C1224 C 0.19071 0.34372 0.25006 0.0
H1225 H 0.18115 0.32998 0.35759 0.0
H1226 H 0.19768 0.33084 0.32337 0.0
H1227 H 0.19277 0.39794 0.28183 0.0
H1228 H 0.18874 0.35663 0.18138 0.0
H1229 H 0.17699 0.36459 0.21557 0.0
C1230 C 0.84916 0.19198 0.69192 0.0
C1231 C 0.88098 0.20407 0.68855 0.0
C1232 C 0.83751 0.18637 0.71136 0.0
C1233 C 0.81873 0.15864 0.75319 0.0
H1234 H 0.87097 0.21256 0.79521 0.0
C1235 C 0.80978 0.11452 0.83217 0.0
C1236 C 0.81452 0.13398 0.84841 0.0
C1237 C 0.81456 0.12594 0.81293 0.0
C1238 C 0.85576 0.19749 0.78372 0.0
H1239 H 0.9254 0.21938 0.70277 0.0
H1240 H 0.90531 0.20919 0.7361 0.0
H1241 H 0.88446 0.22794 0.76082 0.0
H1242 H 0.82816 0.18087 0.85727 0.0
H1243 H 0.83655 0.20118 0.82327 0.0
H1244 H 0.79002 0.1282 0.77609 0.0
C1245 C 0.88926 0.20469 0.72405 0.0
C1246 C 0.8637 0.20612 0.76395 0.0
C1247 C 0.90076 0.21023 0.70483 0.0
C1248 C 0.82448 0.16541 0.845 0.0
C1249 C 0.82923 0.17695 0.82555 0.0
C1250 C 0.81068 0.1501 0.77297 0.0
C1251 C 0.85756 0.1929 0.72767 0.0
C1252 C 0.84595 0.18626 0.74844 0.0
C1253 C 0.82406 0.1572 0.80926 0.0
C1254 C 0.82974 0.16886 0.78848 0.0
H1255 H 0.83343 0.18712 0.67962 0.0
H1256 H 0.81294 0.17724 0.71362 0.0
H1257 H 0.80448 0.14279 0.74169 0.0
H1258 H 0.80231 0.0902 0.8343 0.0
H1259 H 0.81121 0.1102 0.8009 0.0
C1260 C 0.68208 0.85124 0.19455 0.0
C1261 C 0.67472 0.87367 0.18836 0.0
C1262 C 0.67723 0.84121 0.21431 0.0
C1263 C 0.66732 0.86807 0.26398 0.0
H1264 H 0.65271 0.78745 0.28062 0.0
C1265 C 0.68357 0.84214 0.34529 0.0
C1266 C 0.66589 0.81162 0.35219 0.0
C1267 C 0.68148 0.84915 0.32546 0.0
C1268 C 0.65628 0.80995 0.27632 0.0
H1269 H 0.65478 0.90174 0.19715 0.0
H1270 H 0.64432 0.8829 0.23103 0.0
H1271 H 0.65279 0.7983 0.24561 0.0
H1272 H 0.63071 0.76496 0.34436 0.0
H1273 H 0.6257 0.77733 0.31021 0.0
H1274 H 0.66966 0.87937 0.29465 0.0
C1275 C 0.65515 0.87394 0.2212 0.0
C1276 C 0.65685 0.81635 0.25611 0.0
C1277 C 0.66069 0.88443 0.20169 0.0
C1278 C 0.64476 0.78867 0.33933 0.0
C1279 C 0.64222 0.79573 0.31966 0.0
C1280 C 0.66628 0.86152 0.28416 0.0
C1281 C 0.66447 0.85314 0.22806 0.0
C1282 C 0.66257 0.84558 0.24962 0.0
C1283 C 0.66127 0.82584 0.31223 0.0
C1284 C 0.661 0.83245 0.29067 0.0
H1285 H 0.69338 0.84302 0.18452 0.0
H1286 H 0.68495 0.82536 0.21897 0.0
H1287 H 0.67246 0.89111 0.25971 0.0
H1288 H 0.70027 0.86019 0.35488 0.0
H1289 H 0.69678 0.87255 0.32035 0.0
C1290 C 0.83969 0.679 0.69485 0.0
C1291 C 0.80853 0.66825 0.69007 0.0
C1292 C 0.84833 0.6782 0.71445 0.0
C1293 C 0.8185 0.64432 0.76407 0.0
H1294 H 0.88979 0.72017 0.7824 0.0
C1295 C 0.85597 0.6697 0.84719 0.0
C1296 C 0.88804 0.68386 0.85051 0.0
C1297 C 0.84445 0.66604 0.82779 0.0
C1298 C 0.86999 0.69868 0.77751 0.0
H1299 H 0.76177 0.64662 0.70173 0.0
H1300 H 0.77683 0.64526 0.73588 0.0
H1301 H 0.87412 0.71555 0.74796 0.0
H1302 H 0.93304 0.70455 0.83626 0.0
H1303 H 0.91317 0.69787 0.80289 0.0
H1304 H 0.81457 0.62752 0.79379 0.0
C1305 C 0.79461 0.65429 0.72458 0.0
C1306 C 0.86108 0.696 0.75772 0.0
C1307 C 0.78602 0.65523 0.70503 0.0
C1308 C 0.9082 0.6938 0.83422 0.0
C1309 C 0.89682 0.69014 0.81504 0.0
C1310 C 0.82752 0.64697 0.78395 0.0
C1311 C 0.82595 0.66647 0.72961 0.0
C1312 C 0.83541 0.66873 0.7507 0.0
C1313 C 0.86488 0.67659 0.81152 0.0
C1314 C 0.8536 0.67409 0.79084 0.0
H1315 H 0.8575 0.68902 0.68359 0.0
H1316 H 0.87263 0.68729 0.71781 0.0
H1317 H 0.79863 0.62296 0.7591 0.0
H1318 H 0.83995 0.6618 0.85951 0.0
H1319 H 0.81969 0.65556 0.82555 0.0
C1320 C 0.12094 0.78311 0.20512 0.0
C1321 C 0.13881 0.80127 0.18918 0.0
C1322 C 0.13305 0.78859 0.2242 0.0
C1323 C 0.20548 0.831 0.25391 0.0
H1324 H 0.1474 0.82422 0.29454 0.0
C1325 C 0.2403 0.89025 0.33043 0.0
C1326 C 0.22182 0.87475 0.34688 0.0
C1327 C 0.23257 0.87691 0.31164 0.0
C1328 C 0.1638 0.82566 0.28348 0.0
H1329 H 0.1838 0.83879 0.18047 0.0
H1330 H 0.20496 0.84944 0.21424 0.0
H1331 H 0.12981 0.81089 0.26066 0.0
H1332 H 0.18153 0.83265 0.35685 0.0
H1333 H 0.16771 0.80912 0.32383 0.0
H1334 H 0.23978 0.84722 0.27692 0.0
C1335 C 0.18165 0.83044 0.21188 0.0
C1336 C 0.15373 0.81802 0.26396 0.0
C1337 C 0.16958 0.8245 0.19257 0.0
C1338 C 0.1963 0.84491 0.34443 0.0
C1339 C 0.18829 0.83164 0.32552 0.0
C1340 C 0.21564 0.83897 0.27349 0.0
C1341 C 0.16323 0.81291 0.22801 0.0
C1342 C 0.17439 0.82063 0.24886 0.0
C1343 C 0.20591 0.8479 0.30886 0.0
C1344 C 0.1949 0.83651 0.28847 0.0
H1345 H 0.09728 0.76466 0.20288 0.0
H1346 H 0.11847 0.77393 0.23604 0.0
H1347 H 0.22196 0.83295 0.24276 0.0
H1348 H 0.26013 0.91334 0.33195 0.0
H1349 H 0.24647 0.89016 0.29914 0.0
C1350 C 0.31471 0.17476 0.8388 0.0
C1351 C 0.34035 0.19516 0.85022 0.0
C1352 C 0.31875 0.16686 0.81968 0.0
C1353 C 0.36519 0.1978 0.77646 0.0
H1354 H 0.32527 0.11233 0.75894 0.0
C1355 C 0.35889 0.16053 0.6933 0.0
C1356 C 0.33119 0.13392 0.68779 0.0
C1357 C 0.36434 0.16983 0.71326 0.0
C1358 C 0.33633 0.13637 0.76349 0.0
H1359 H 0.39032 0.22354 0.85086 0.0
H1360 H 0.39749 0.21035 0.8168 0.0
H1361 H 0.3276 0.12382 0.7941 0.0
H1362 H 0.28674 0.09752 0.69832 0.0
H1363 H 0.29544 0.11428 0.7325 0.0
H1364 H 0.37234 0.21036 0.74573 0.0
C1365 C 0.37434 0.19998 0.82293 0.0
C1366 C 0.33792 0.14287 0.78367 0.0
C1367 C 0.37029 0.20724 0.84238 0.0
C1368 C 0.30847 0.11792 0.7022 0.0
C1369 C 0.31366 0.12734 0.72189 0.0
C1370 C 0.36321 0.19127 0.75613 0.0
C1371 C 0.3485 0.17995 0.81137 0.0
C1372 C 0.3517 0.17358 0.79034 0.0
C1373 C 0.34203 0.15275 0.72787 0.0
C1374 C 0.34787 0.1604 0.74938 0.0
H1375 H 0.2914 0.16559 0.84449 0.0
H1376 H 0.29846 0.15157 0.81103 0.0
H1377 H 0.37575 0.2217 0.78126 0.0
H1378 H 0.37684 0.17313 0.68244 0.0
H1379 H 0.38642 0.18959 0.71731 0.0
C1380 C 0.32673 0.25464 0.95859 0.0
C1381 C 0.32571 0.22596 0.96 0.0
C1382 C 0.31198 0.26339 0.97267 0.0
C1383 C 0.28546 0.25073 0.02419 0.0
H1384 H 0.23896 0.29053 1.00783 0.0
C1385 C 0.25818 0.3242 0.07727 0.0
C1386 C 0.22789 0.31951 0.07752 0.0
C1387 C 0.26729 0.31029 0.06286 0.0
C1388 C 0.25161 0.2792 1.01262 0.0
H1389 H 0.30904 0.18426 0.97756 0.0
H1390 H 0.28368 0.19985 1.00253 0.0
H1391 H 0.25996 0.2704 0.98284 0.0
H1392 H 0.18371 0.2975 0.06232 0.0
H1393 H 0.2 0.27363 0.03657 0.0
H1394 H 0.27766 0.26007 0.05395 0.0
C1395 C 0.29567 0.21541 0.99035 0.0
C1396 C 0.26387 0.26791 0.99833 0.0
C1397 C 0.31016 0.20647 0.97607 0.0
C1398 C 0.20716 0.30142 0.06254 0.0
C1399 C 0.21648 0.28778 0.04784 0.0
C1400 C 0.27352 0.26233 0.03846 0.0
C1401 C 0.29623 0.24391 0.98873 0.0
C1402 C 0.28128 0.25388 1.00393 0.0
C1403 C 0.24656 0.29175 0.04804 0.0
C1404 C 0.25682 0.27708 0.03285 0.0
H1405 H 0.33885 0.27035 0.9465 0.0
H1406 H 0.31335 0.28571 0.97116 0.0
H1407 H 0.29885 0.2402 0.02902 0.0
H1408 H 0.27484 0.33828 0.08849 0.0
H1409 H 0.29077 0.3143 0.06324 0.0
C1410 C 0.1057 0.29939 0.47551 0.0
C1411 C 0.10294 0.31702 0.46024 0.0
C1412 C 0.082 0.28463 0.48958 0.0
C1413 C 0.99851 0.25567 0.49767 0.0
H1414 H 0.01948 0.26677 0.55343 0.0
C1415 C 0.90747 0.1993 0.56141 0.0
C1416 C 0.91046 0.22006 0.57647 0.0
C1417 C 0.93047 0.20828 0.5468 0.0
C1418 C 0.01327 0.26334 0.5379 0.0
H1419 H 0.07354 0.33354 0.44798 0.0
H1420 H 0.0321 0.30732 0.47211 0.0
H1421 H 0.06082 0.2875 0.5287 0.0
H1422 H 0.93928 0.26674 0.58768 0.0
H1423 H 0.97935 0.28204 0.5626 0.0
H1424 H 0.95091 0.23191 0.50693 0.0
C1425 C 0.05235 0.30462 0.47318 0.0
C1426 C 0.03695 0.27502 0.52375 0.0
C1427 C 0.07615 0.3197 0.45937 0.0
C1428 C 0.93645 0.25005 0.5764 0.0
C1429 C 0.95953 0.2588 0.56209 0.0
C1430 C 0.97481 0.2436 0.51184 0.0
C1431 C 0.05495 0.28692 0.48846 0.0
C1432 C 0.02985 0.27187 0.50347 0.0
C1433 C 0.95697 0.23802 0.54719 0.0
C1434 C 0.98194 0.24788 0.53211 0.0
H1435 H 0.12609 0.29695 0.47657 0.0
H1436 H 0.08466 0.27113 0.50119 0.0
H1437 H 0.99232 0.25263 0.48214 0.0
H1438 H 0.88763 0.17609 0.56105 0.0
H1439 H 0.92786 0.19179 0.53545 0.0
C1440 C 0.69944 0.93922 0.07789 0.0
C1441 C 0.70294 0.91287 0.07776 0.0
C1442 C 0.71429 0.96262 0.0638 0.0
C1443 C 0.74465 0.97781 1.01355 0.0
H1444 H 0.7875 0.06393 0.03021 0.0
C1445 C 0.76924 0.07863 0.96098 0.0
C1446 C 0.79933 0.10447 0.96077 0.0
C1447 C 0.76056 0.05544 0.97523 0.0
C1448 C 0.77588 0.04002 0.02534 0.0
H1449 H 0.72385 0.88985 0.06224 0.0
H1450 H 0.7492 0.93057 0.03703 0.0
H1451 H 0.76672 0.02261 0.05507 0.0
H1452 H 0.84352 0.12697 0.97596 0.0
H1453 H 0.82789 0.08665 1.00152 0.0
H1454 H 0.75292 0.99523 0.98382 0.0
C1455 C 0.73536 0.93325 0.04838 0.0
C1456 C 0.76381 0.01636 0.03955 0.0
C1457 C 0.72087 0.90996 0.06277 0.0
C1458 C 0.82023 0.10725 0.97569 0.0
C1459 C 0.81131 0.08418 0.99027 0.0
C1460 C 0.75629 1.00146 0.99935 0.0
C1461 C 0.7325 0.96001 0.0489 0.0
C1462 C 0.74769 0.98499 0.03382 0.0
C1463 C 0.78149 0.05779 0.98998 0.0
C1464 C 0.77167 0.03283 1.00508 0.0
H1465 H 0.68545 0.94199 0.08908 0.0
H1466 H 0.71115 0.98264 0.06441 0.0
H1467 H 0.73225 0.9539 1.00867 0.0
H1468 H 0.75244 0.07598 0.94982 0.0
H1469 H 0.73727 0.03571 0.97482 0.0
C1470 C 0.81741 0.71617 0.56542 0.0
C1471 C 0.79656 0.69579 0.57959 0.0
C1472 C 0.80722 0.72899 0.55069 0.0
C1473 C 0.73495 0.71617 0.52573 0.0
H1474 H 0.78507 0.80163 0.50892 0.0
C1475 C 0.69768 0.76347 0.46005 0.0
C1476 C 0.70255 0.79377 0.46108 0.0
C1477 C 0.71057 0.75265 0.47414 0.0
C1478 C 0.77066 0.77779 0.51356 0.0
H1479 H 0.74873 0.67275 0.58935 0.0
H1480 H 0.73122 0.69532 0.56421 0.0
H1481 H 0.80495 0.78065 0.53407 0.0
H1482 H 0.72475 0.83655 0.47779 0.0
H1483 H 0.74678 0.8174 0.50288 0.0
H1484 H 0.70031 0.71335 0.50584 0.0
C1485 C 0.75529 0.70118 0.56409 0.0
C1486 C 0.78225 0.76562 0.52781 0.0
C1487 C 0.76541 0.68836 0.57865 0.0
C1488 C 0.72061 0.81308 0.47662 0.0
C1489 C 0.73343 0.80215 0.49089 0.0
C1490 C 0.72338 0.7283 0.51162 0.0
C1491 C 0.77595 0.72159 0.54982 0.0
C1492 C 0.76446 0.73464 0.53415 0.0
C1493 C 0.72842 0.77168 0.48988 0.0
C1494 C 0.74102 0.75926 0.50526 0.0
H1495 H 0.84158 0.72234 0.56581 0.0
H1496 H 0.82374 0.74439 0.53986 0.0
H1497 H 0.72068 0.69211 0.52997 0.0
H1498 H 0.68386 0.74795 0.44828 0.0
H1499 H 0.70663 0.72931 0.47257 0.0
C1500 C 0.91157 0.71652 0.97616 0.0
C1501 C 0.91369 0.69689 0.96208 0.0
C1502 C 0.93474 0.73119 0.99061 0.0
C1503 C 0.017 0.75814 0.99991 0.0
H1504 H 0.99681 0.74905 0.05577 0.0
C1505 C 0.10871 0.8144 0.0635 0.0
C1506 C 0.10626 0.79288 0.07788 0.0
C1507 C 0.08541 0.80601 0.04915 0.0
C1508 C 1.00275 0.752 0.0402 0.0
H1509 H 0.94106 0.67633 0.95258 0.0
H1510 H 0.98157 0.70241 0.9773 0.0
H1511 H 0.95503 0.72828 0.03115 0.0
H1512 H 0.07808 0.74547 0.08805 0.0
H1513 H 0.03733 0.7313 0.06351 0.0
H1514 H 0.06471 0.78151 1.00895 0.0
C1515 C 0.96225 0.70669 0.97715 0.0
C1516 C 0.97887 0.74028 0.02614 0.0
C1517 C 0.93892 0.69162 0.96306 0.0
C1518 C 0.08048 0.76274 0.07734 0.0
C1519 C 0.05703 0.75463 0.06336 0.0
C1520 C 0.04088 0.77038 1.01395 0.0
C1521 C 0.96059 0.7268 0.99099 0.0
C1522 C 0.98574 0.74256 1.00586 0.0
C1523 C 0.0591 0.77615 0.04916 0.0
C1524 C 0.03399 0.76677 0.03425 0.0
H1525 H 0.89231 0.72088 0.97582 0.0
H1526 H 0.93282 0.74647 1.0012 0.0
H1527 H 0.02294 0.76038 0.98435 0.0
H1528 H 0.12839 0.83772 0.06349 0.0
H1529 H 0.08764 0.823 0.03827 0.0
C1530 C 0.21902 0.93661 0.45588 0.0
C1531 C 0.22574 0.91234 0.45656 0.0
C1532 C 0.23046 0.95978 0.47037 0.0
C1533 C 0.26155 0.97675 0.52148 0.0
H1534 H 0.29454 0.06255 0.5059 0.0
C1535 C 0.33111 0.07694 0.57582 0.0
C1536 C 0.32643 0.10255 0.5757 0.0
C1537 C 0.31813 0.05418 0.56117 0.0
C1538 C 0.28504 0.0387 0.51056 0.0
H1539 H 0.24913 0.89287 0.47323 0.0
H1540 H 0.2691 0.93326 0.49867 0.0
H1541 H 0.27322 0.02181 0.48084 0.0
H1542 H 0.30494 0.12474 0.55987 0.0
H1543 H 0.28198 0.08475 0.53412 0.0
H1544 H 0.27326 0.99351 0.55116 0.0
C1545 C 0.25492 0.93441 0.48692 0.0
C1546 C 0.27284 0.01529 0.49617 0.0
C1547 C 0.24357 0.91129 0.47232 0.0
C1548 C 0.30895 0.10526 0.56031 0.0
C1549 C 0.29589 0.08238 0.54556 0.0
C1550 C 0.27366 1.0001 0.53585 0.0
C1551 C 0.24868 0.95908 0.48606 0.0
C1552 C 0.26114 0.98401 0.50142 0.0
C1553 C 0.30009 0.05636 0.54592 0.0
C1554 C 0.28586 0.03145 0.53059 0.0
H1555 H 0.20493 0.93775 0.44407 0.0
H1556 H 0.22474 0.97807 0.46937 0.0
H1557 H 0.2522 0.95291 0.52614 0.0
H1558 H 0.34469 0.0743 0.58739 0.0
H1559 H 0.32248 0.03493 0.56175 0.0
loop_
_geom_bond_atom_site_label_1
_geom_bond_atom_site_label_2
_geom_bond_distance
_geom_bond_site_symmetry_2
_ccdc_geom_bond_type
Sm0 C2 2.846 . S
Sm0 O20 2.543 . S
Sm0 O21 2.450 . S
Sm0 O22 2.681 . S
Sm0 O23 2.464 . S
Sm0 O24 2.396 . S
Sm0 O28 2.386 . S
Sm0 O31 2.408 . S
Sm1 C11 2.846 . S
Sm1 O22 2.386 . S
Sm1 O25 2.408 . S
Sm1 O26 2.543 . S
Sm1 O27 2.450 . S
Sm1 O28 2.681 . S
Sm1 O29 2.464 . S
Sm1 O30 2.396 . S
C2 Sm0 2.846 . S
C2 C3 1.506 . S
C2 O20 1.261 . S
C2 O21 1.242 . S
C3 C2 1.506 . S
C3 C4 1.358 . S
C3 C8 1.382 . S
C4 C3 1.358 . S
C4 C5 1.385 . S
C4 H32 0.930 . S
C5 C4 1.385 . S
C5 C6 1.395 . S
C5 H33 0.929 . S
C6 C5 1.395 . S
C6 C7 1.335 . S
C7 C6 1.335 . S
C7 C8 1.398 . S
C7 H34 0.930 . S
C8 C3 1.382 . S
C8 C7 1.398 . S
C8 H35 0.929 . S
C9 O22 1.271 . S
C9 O23 1.251 . S
C10 O24 1.252 . S
C10 O25 1.272 . S
C11 Sm1 2.846 . S
C11 C12 1.506 . S
C11 O26 1.261 . S
C11 O27 1.242 . S
C12 C11 1.506 . S
C12 C13 1.358 . S
C12 C17 1.382 . S
C13 C12 1.358 . S
C13 C14 1.385 . S
C13 H36 0.930 . S
C14 C13 1.385 . S
C14 C15 1.395 . S
C14 H37 0.929 . S
C15 C14 1.395 . S
C15 C16 1.335 . S
C16 C15 1.335 . S
C16 C17 1.398 . S
C16 H38 0.930 . S
C17 C12 1.382 . S
C17 C16 1.398 . S
C17 H39 0.929 . S
C18 O28 1.271 . S
C18 O29 1.251 . S
C19 O30 1.252 . S
C19 O31 1.272 . S
O20 Sm0 2.543 . S
O20 C2 1.261 . S
O21 Sm0 2.450 . S
O21 C2 1.242 . S
O22 Sm0 2.681 . S
O22 Sm1 2.386 . S
O22 C9 1.271 . S
O23 Sm0 2.464 . S
O23 C9 1.251 . S
O24 Sm0 2.396 . S
O24 C10 1.252 . S
O25 Sm1 2.408 . S
O25 C10 1.272 . S
O26 Sm1 2.543 . S
O26 C11 1.261 . S
O27 Sm1 2.450 . S
O27 C11 1.242 . S
O28 Sm0 2.386 . S
O28 Sm1 2.681 . S
O28 C18 1.271 . S
O29 Sm1 2.464 . S
O29 C18 1.251 . S
O30 Sm1 2.396 . S
O30 C19 1.252 . S
O31 Sm0 2.408 . S
O31 C19 1.272 . S
H32 C4 0.930 . S
H33 C5 0.929 . S
H34 C7 0.930 . S
H35 C8 0.929 . S
H36 C13 0.930 . S
H37 C14 0.929 . S
H38 C16 0.930 . S
H39 C17 0.929 . S
Sm40 C42 2.846 . S
Sm40 O60 2.543 . S
Sm40 O61 2.450 . S
Sm40 O62 2.681 . S
Sm40 O63 2.464 . S
Sm40 O64 2.396 . S
Sm40 O68 2.386 . S
Sm40 O71 2.408 . S
Sm41 C51 2.846 . S
Sm41 O62 2.386 . S
Sm41 O65 2.408 . S
Sm41 O66 2.543 . S
Sm41 O67 2.450 . S
Sm41 O68 2.681 . S
Sm41 O69 2.464 . S
Sm41 O70 2.396 . S
C42 Sm40 2.846 . S
C42 C43 1.506 . S
C42 O60 1.261 . S
C42 O61 1.242 . S
C43 C42 1.506 . S
C43 C44 1.358 . S
C43 C48 1.382 . S
C44 C43 1.358 . S
C44 C45 1.385 . S
C44 H72 0.930 . S
C45 C44 1.385 . S
C45 C46 1.395 . S
C45 H73 0.929 . S
C46 C45 1.395 . S
C46 C47 1.335 . S
C47 C46 1.335 . S
C47 C48 1.398 . S
C47 H74 0.930 . S
C48 C43 1.382 . S
C48 C47 1.398 . S
C48 H75 0.929 . S
C49 O62 1.271 . S
C49 O63 1.251 . S
C50 O64 1.252 . S
C50 O65 1.272 . S
C51 Sm41 2.846 . S
C51 C52 1.506 . S
C51 O66 1.261 . S
C51 O67 1.242 . S
C52 C51 1.506 . S
C52 C53 1.358 . S
C52 C57 1.382 . S
C53 C52 1.358 . S
C53 C54 1.385 1_655 S
C53 H76 0.930 . S
C54 C53 1.385 1_455 S
C54 C55 1.395 . S
C54 H77 0.929 . S
C55 C54 1.395 . S
C55 C56 1.335 . S
C56 C55 1.335 . S
C56 C57 1.398 1_455 S
C56 H78 0.930 . S
C57 C52 1.382 . S
C57 C56 1.398 1_655 S
C57 H79 0.929 . S
C58 O68 1.271 . S
C58 O69 1.251 . S
C59 O70 1.252 . S
C59 O71 1.272 . S
O60 Sm40 2.543 . S
O60 C42 1.261 . S
O61 Sm40 2.450 . S
O61 C42 1.242 . S
O62 Sm40 2.681 . S
O62 Sm41 2.386 . S
O62 C49 1.271 . S
O63 Sm40 2.464 . S
O63 C49 1.251 . S
O64 Sm40 2.396 . S
O64 C50 1.252 . S
O65 Sm41 2.408 . S
O65 C50 1.272 . S
O66 Sm41 2.543 . S
O66 C51 1.261 . S
O67 Sm41 2.450 . S
O67 C51 1.242 . S
O68 Sm40 2.386 . S
O68 Sm41 2.681 . S
O68 C58 1.271 . S
O69 Sm41 2.464 . S
O69 C58 1.251 . S
O70 Sm41 2.396 . S
O70 C59 1.252 . S
O71 Sm40 2.408 . S
O71 C59 1.272 . S
H72 C44 0.930 . S
H73 C45 0.929 . S
H74 C47 0.930 . S
H75 C48 0.929 . S
H76 C53 0.930 . S
H77 C54 0.929 . S
H78 C56 0.930 . S
H79 C57 0.929 . S
Sm80 C82 2.846 . S
Sm80 O100 2.543 . S
Sm80 O101 2.450 . S
Sm80 O102 2.681 . S
Sm80 O103 2.464 . S
Sm80 O104 2.396 . S
Sm80 O108 2.386 . S
Sm80 O111 2.408 . S
Sm81 C91 2.846 . S
Sm81 O102 2.386 . S
Sm81 O105 2.408 . S
Sm81 O106 2.543 . S
Sm81 O107 2.450 . S
Sm81 O108 2.681 . S
Sm81 O109 2.464 . S
Sm81 O110 2.396 . S
C82 Sm80 2.846 . S
C82 C83 1.506 . S
C82 O100 1.261 . S
C82 O101 1.242 . S
C83 C82 1.506 . S
C83 C84 1.358 . S
C83 C88 1.382 . S
C84 C83 1.358 . S
C84 C85 1.385 . S
C84 H112 0.930 . S
C85 C84 1.385 . S
C85 C86 1.395 . S
C85 H113 0.929 . S
C86 C85 1.395 . S
C86 C87 1.335 . S
C87 C86 1.335 . S
C87 C88 1.398 . S
C87 H114 0.930 . S
C88 C83 1.382 . S
C88 C87 1.398 . S
C88 H115 0.929 . S
C89 O102 1.271 . S
C89 O103 1.251 . S
C90 O104 1.252 . S
C90 O105 1.272 . S
C91 Sm81 2.846 . S
C91 C92 1.506 . S
C91 O106 1.261 . S
C91 O107 1.242 . S
C92 C91 1.506 . S
C92 C93 1.358 . S
C92 C97 1.382 . S
C93 C92 1.358 . S
C93 C94 1.385 1_565 S
C93 H116 0.930 . S
C94 C93 1.385 1_545 S
C94 C95 1.395 . S
C94 H117 0.929 . S
C95 C94 1.395 . S
C95 C96 1.335 . S
C96 C95 1.335 . S
C96 C97 1.398 1_545 S
C96 H118 0.930 . S
C97 C92 1.382 . S
C97 C96 1.398 1_565 S
C97 H119 0.929 . S
C98 O108 1.271 . S
C98 O109 1.251 . S
C99 O110 1.252 . S
C99 O111 1.272 . S
O100 Sm80 2.543 . S
O100 C82 1.261 . S
O101 Sm80 2.450 . S
O101 C82 1.242 . S
O102 Sm80 2.681 . S
O102 Sm81 2.386 . S
O102 C89 1.271 . S
O103 Sm80 2.464 . S
O103 C89 1.251 . S
O104 Sm80 2.396 . S
O104 C90 1.252 . S
O105 Sm81 2.408 . S
O105 C90 1.272 . S
O106 Sm81 2.543 . S
O106 C91 1.261 . S
O107 Sm81 2.450 . S
O107 C91 1.242 . S
O108 Sm80 2.386 . S
O108 Sm81 2.681 . S
O108 C98 1.271 . S
O109 Sm81 2.464 . S
O109 C98 1.251 . S
O110 Sm81 2.396 . S
O110 C99 1.252 . S
O111 Sm80 2.408 . S
O111 C99 1.272 . S
H112 C84 0.930 . S
H113 C85 0.929 . S
H114 C87 0.930 . S
H115 C88 0.929 . S
H116 C93 0.930 . S
H117 C94 0.929 . S
H118 C96 0.930 . S
H119 C97 0.929 . S
Sm120 C122 2.846 . S
Sm120 O140 2.543 . S
Sm120 O141 2.450 . S
Sm120 O142 2.681 . S
Sm120 O143 2.464 . S
Sm120 O144 2.396 . S
Sm120 O148 2.386 . S
Sm120 O151 2.408 . S
Sm121 C131 2.846 . S
Sm121 O142 2.386 . S
Sm121 O145 2.408 . S
Sm121 O146 2.543 . S
Sm121 O147 2.450 . S
Sm121 O148 2.681 . S
Sm121 O149 2.464 . S
Sm121 O150 2.396 . S
C122 Sm120 2.846 . S
C122 C123 1.506 . S
C122 O140 1.261 . S
C122 O141 1.242 . S
C123 C122 1.506 . S
C123 C124 1.358 . S
C123 C128 1.382 . S
C124 C123 1.358 . S
C124 C125 1.385 . S
C124 H152 0.930 . S
C125 C124 1.385 . S
C125 C126 1.395 . S
C125 H153 0.929 . S
C126 C125 1.395 . S
C126 C127 1.335 . S
C127 C126 1.335 . S
C127 C128 1.398 . S
C127 H154 0.930 . S
C128 C123 1.382 . S
C128 C127 1.398 . S
C128 H155 0.929 . S
C129 O142 1.271 . S
C129 O143 1.251 . S
C130 O144 1.252 . S
C130 O145 1.272 . S
C131 Sm121 2.846 . S
C131 C132 1.506 . S
C131 O146 1.261 . S
C131 O147 1.242 . S
C132 C131 1.506 . S
C132 C133 1.358 . S
C132 C137 1.382 . S
C133 C132 1.358 . S
C133 C134 1.385 . S
C133 H156 0.930 . S
C134 C133 1.385 . S
C134 C135 1.395 . S
C134 H157 0.929 . S
C135 C134 1.395 . S
C135 C136 1.335 . S
C136 C135 1.335 . S
C136 C137 1.398 . S
C136 H158 0.930 . S
C137 C132 1.382 . S
C137 C136 1.398 . S
C137 H159 0.929 . S
C138 O148 1.271 . S
C138 O149 1.251 . S
C139 O150 1.252 . S
C139 O151 1.272 . S
O140 Sm120 2.543 . S
O140 C122 1.261 . S
O141 Sm120 2.450 . S
O141 C122 1.242 . S
O142 Sm120 2.681 . S
O142 Sm121 2.386 . S
O142 C129 1.271 . S
O143 Sm120 2.464 . S
O143 C129 1.251 . S
O144 Sm120 2.396 . S
O144 C130 1.252 . S
O145 Sm121 2.408 . S
O145 C130 1.272 . S
O146 Sm121 2.543 . S
O146 C131 1.261 . S
O147 Sm121 2.450 . S
O147 C131 1.242 . S
O148 Sm120 2.386 . S
O148 Sm121 2.681 . S
O148 C138 1.271 . S
O149 Sm121 2.464 . S
O149 C138 1.251 . S
O150 Sm121 2.396 . S
O150 C139 1.252 . S
O151 Sm120 2.408 . S
O151 C139 1.272 . S
H152 C124 0.930 . S
H153 C125 0.929 . S
H154 C127 0.930 . S
H155 C128 0.929 . S
H156 C133 0.930 . S
H157 C134 0.929 . S
H158 C136 0.930 . S
H159 C137 0.929 . S
Sm160 C162 2.846 . S
Sm160 O180 2.543 . S
Sm160 O181 2.450 . S
Sm160 O182 2.681 . S
Sm160 O183 2.464 . S
Sm160 O184 2.396 . S
Sm160 O188 2.386 . S
Sm160 O191 2.408 . S
Sm161 C171 2.846 . S
Sm161 O182 2.386 . S
Sm161 O185 2.408 . S
Sm161 O186 2.543 . S
Sm161 O187 2.450 . S
Sm161 O188 2.681 . S
Sm161 O189 2.464 . S
Sm161 O190 2.396 . S
C162 Sm160 2.846 . S
C162 C163 1.506 . S
C162 O180 1.261 . S
C162 O181 1.242 . S
C163 C162 1.506 . S
C163 C164 1.358 . S
C163 C168 1.382 . S
C164 C163 1.358 . S
C164 C165 1.385 . S
C164 H192 0.930 . S
C165 C164 1.385 . S
C165 C166 1.395 . S
C165 H193 0.929 . S
C166 C165 1.395 . S
C166 C167 1.335 . S
C167 C166 1.335 . S
C167 C168 1.398 . S
C167 H194 0.930 . S
C168 C163 1.382 . S
C168 C167 1.398 . S
C168 H195 0.929 . S
C169 O182 1.271 . S
C169 O183 1.251 . S
C170 O184 1.252 . S
C170 O185 1.272 . S
C171 Sm161 2.846 . S
C171 C172 1.506 . S
C171 O186 1.261 . S
C171 O187 1.242 . S
C172 C171 1.506 . S
C172 C173 1.358 . S
C172 C177 1.382 . S
C173 C172 1.358 . S
C173 C174 1.385 1_455 S
C173 H196 0.930 . S
C174 C173 1.385 1_655 S
C174 C175 1.395 . S
C174 H197 0.929 . S
C175 C174 1.395 . S
C175 C176 1.335 . S
C176 C175 1.335 . S
C176 C177 1.398 1_655 S
C176 H198 0.930 . S
C177 C172 1.382 . S
C177 C176 1.398 1_455 S
C177 H199 0.929 . S
C178 O188 1.271 . S
C178 O189 1.251 . S
C179 O190 1.252 . S
C179 O191 1.272 . S
O180 Sm160 2.543 . S
O180 C162 1.261 . S
O181 Sm160 2.450 . S
O181 C162 1.242 . S
O182 Sm160 2.681 . S
O182 Sm161 2.386 . S
O182 C169 1.271 . S
O183 Sm160 2.464 . S
O183 C169 1.251 . S
O184 Sm160 2.396 . S
O184 C170 1.252 . S
O185 Sm161 2.408 . S
O185 C170 1.272 . S
O186 Sm161 2.543 . S
O186 C171 1.261 . S
O187 Sm161 2.450 . S
O187 C171 1.242 . S
O188 Sm160 2.386 . S
O188 Sm161 2.681 . S
O188 C178 1.271 . S
O189 Sm161 2.464 . S
O189 C178 1.251 . S
O190 Sm161 2.396 . S
O190 C179 1.252 . S
O191 Sm160 2.408 . S
O191 C179 1.272 . S
H192 C164 0.930 . S
H193 C165 0.929 . S
H194 C167 0.930 . S
H195 C168 0.929 . S
H196 C173 0.930 . S
H197 C174 0.929 . S
H198 C176 0.930 . S
H199 C177 0.929 . S
Sm200 C202 2.846 . S
Sm200 O220 2.543 . S
Sm200 O221 2.450 . S
Sm200 O222 2.681 . S
Sm200 O223 2.464 . S
Sm200 O224 2.396 . S
Sm200 O228 2.386 . S
Sm200 O231 2.408 . S
Sm201 C211 2.846 . S
Sm201 O222 2.386 . S
Sm201 O225 2.408 . S
Sm201 O226 2.543 . S
Sm201 O227 2.450 . S
Sm201 O228 2.681 . S
Sm201 O229 2.464 . S
Sm201 O230 2.396 . S
C202 Sm200 2.846 . S
C202 C203 1.506 . S
C202 O220 1.261 . S
C202 O221 1.242 . S
C203 C202 1.506 . S
C203 C204 1.358 . S
C203 C208 1.382 . S
C204 C203 1.358 . S
C204 C205 1.385 . S
C204 H232 0.930 . S
C205 C204 1.385 . S
C205 C206 1.395 . S
C205 H233 0.929 . S
C206 C205 1.395 . S
C206 C207 1.335 . S
C207 C206 1.335 . S
C207 C208 1.398 . S
C207 H234 0.930 . S
C208 C203 1.382 . S
C208 C207 1.398 . S
C208 H235 0.929 . S
C209 O222 1.271 . S
C209 O223 1.251 . S
C210 O224 1.252 . S
C210 O225 1.272 . S
C211 Sm201 2.846 . S
C211 C212 1.506 . S
C211 O226 1.261 . S
C211 O227 1.242 . S
C212 C211 1.506 . S
C212 C213 1.358 . S
C212 C217 1.382 . S
C213 C212 1.358 . S
C213 C214 1.385 1_545 S
C213 H236 0.930 . S
C214 C213 1.385 1_565 S
C214 C215 1.395 . S
C214 H237 0.929 . S
C215 C214 1.395 . S
C215 C216 1.335 . S
C216 C215 1.335 . S
C216 C217 1.398 1_565 S
C216 H238 0.930 . S
C217 C212 1.382 . S
C217 C216 1.398 1_545 S
C217 H239 0.929 . S
C218 O228 1.271 . S
C218 O229 1.251 . S
C219 O230 1.252 . S
C219 O231 1.272 . S
O220 Sm200 2.543 . S
O220 C202 1.261 . S
O221 Sm200 2.450 . S
O221 C202 1.242 . S
O222 Sm200 2.681 . S
O222 Sm201 2.386 . S
O222 C209 1.271 . S
O223 Sm200 2.464 . S
O223 C209 1.251 . S
O224 Sm200 2.396 . S
O224 C210 1.252 . S
O225 Sm201 2.408 . S
O225 C210 1.272 . S
O226 Sm201 2.543 . S
O226 C211 1.261 . S
O227 Sm201 2.450 . S
O227 C211 1.242 . S
O228 Sm200 2.386 . S
O228 Sm201 2.681 . S
O228 C218 1.271 . S
O229 Sm201 2.464 . S
O229 C218 1.251 . S
O230 Sm201 2.396 . S
O230 C219 1.252 . S
O231 Sm200 2.408 . S
O231 C219 1.272 . S
H232 C204 0.930 . S
H233 C205 0.929 . S
H234 C207 0.930 . S
H235 C208 0.929 . S
H236 C213 0.930 . S
H237 C214 0.929 . S
H238 C216 0.930 . S
H239 C217 0.929 . S
Sm240 C242 2.846 . S
Sm240 O260 2.543 . S
Sm240 O261 2.450 . S
Sm240 O262 2.681 . S
Sm240 O263 2.464 . S
Sm240 O264 2.396 . S
Sm240 O268 2.386 . S
Sm240 O271 2.408 . S
Sm241 C251 2.846 . S
Sm241 O262 2.386 . S
Sm241 O265 2.408 . S
Sm241 O266 2.543 . S
Sm241 O267 2.450 . S
Sm241 O268 2.681 . S
Sm241 O269 2.464 . S
Sm241 O270 2.396 . S
C242 Sm240 2.846 . S
C242 C243 1.506 . S
C242 O260 1.261 . S
C242 O261 1.242 . S
C243 C242 1.506 . S
C243 C244 1.358 . S
C243 C248 1.382 . S
C244 C243 1.358 . S
C244 C245 1.385 . S
C244 H272 0.930 . S
C245 C244 1.385 . S
C245 C246 1.395 . S
C245 H273 0.929 . S
C246 C245 1.395 . S
C246 C247 1.335 . S
C247 C246 1.335 . S
C247 C248 1.398 . S
C247 H274 0.930 . S
C248 C243 1.382 . S
C248 C247 1.398 . S
C248 H275 0.929 . S
C249 O262 1.271 . S
C249 O263 1.251 . S
C250 O264 1.252 . S
C250 O265 1.272 . S
C251 Sm241 2.846 . S
C251 C252 1.506 . S
C251 O266 1.261 . S
C251 O267 1.242 . S
C252 C251 1.506 . S
C252 C253 1.358 . S
C252 C257 1.382 . S
C253 C252 1.358 . S
C253 C254 1.385 . S
C253 H276 0.930 . S
C254 C253 1.385 . S
C254 C255 1.395 . S
C254 H277 0.929 . S
C255 C254 1.395 . S
C255 C256 1.335 . S
C256 C255 1.335 . S
C256 C257 1.398 . S
C256 H278 0.930 . S
C257 C252 1.382 . S
C257 C256 1.398 . S
C257 H279 0.929 . S
C258 O268 1.271 . S
C258 O269 1.251 . S
C259 O270 1.252 . S
C259 O271 1.272 . S
O260 Sm240 2.543 . S
O260 C242 1.261 . S
O261 Sm240 2.450 . S
O261 C242 1.242 . S
O262 Sm240 2.681 . S
O262 Sm241 2.386 . S
O262 C249 1.271 . S
O263 Sm240 2.464 . S
O263 C249 1.251 . S
O264 Sm240 2.396 . S
O264 C250 1.252 . S
O265 Sm241 2.408 . S
O265 C250 1.272 . S
O266 Sm241 2.543 . S
O266 C251 1.261 . S
O267 Sm241 2.450 . S
O267 C251 1.242 . S
O268 Sm240 2.386 . S
O268 Sm241 2.681 . S
O268 C258 1.271 . S
O269 Sm241 2.464 . S
O269 C258 1.251 . S
O270 Sm241 2.396 . S
O270 C259 1.252 . S
O271 Sm240 2.408 . S
O271 C259 1.272 . S
H272 C244 0.930 . S
H273 C245 0.929 . S
H274 C247 0.930 . S
H275 C248 0.929 . S
H276 C253 0.930 . S
H277 C254 0.929 . S
H278 C256 0.930 . S
H279 C257 0.929 . S
Sm280 C282 2.846 . S
Sm280 O300 2.543 . S
Sm280 O301 2.450 . S
Sm280 O302 2.681 . S
Sm280 O303 2.464 . S
Sm280 O304 2.396 . S
Sm280 O308 2.386 . S
Sm280 O311 2.408 . S
Sm281 C291 2.846 . S
Sm281 O302 2.386 . S
Sm281 O305 2.408 . S
Sm281 O306 2.543 . S
Sm281 O307 2.450 . S
Sm281 O308 2.681 . S
Sm281 O309 2.464 . S
Sm281 O310 2.396 . S
C282 Sm280 2.846 . S
C282 C283 1.506 . S
C282 O300 1.261 . S
C282 O301 1.242 . S
C283 C282 1.506 . S
C283 C284 1.358 . S
C283 C288 1.382 . S
C284 C283 1.358 . S
C284 C285 1.385 . S
C284 H312 0.930 . S
C285 C284 1.385 . S
C285 C286 1.395 . S
C285 H313 0.929 . S
C286 C285 1.395 . S
C286 C287 1.335 . S
C287 C286 1.335 . S
C287 C288 1.398 . S
C287 H314 0.930 . S
C288 C283 1.382 . S
C288 C287 1.398 . S
C288 H315 0.929 . S
C289 O302 1.271 . S
C289 O303 1.251 . S
C290 O304 1.252 . S
C290 O305 1.272 . S
C291 Sm281 2.846 . S
C291 C292 1.506 . S
C291 O306 1.261 . S
C291 O307 1.242 . S
C292 C291 1.506 . S
C292 C293 1.358 . S
C292 C297 1.382 . S
C293 C292 1.358 . S
C293 C294 1.385 1_655 S
C293 H316 0.930 . S
C294 C293 1.385 1_455 S
C294 C295 1.395 . S
C294 H317 0.929 . S
C295 C294 1.395 . S
C295 C296 1.335 . S
C296 C295 1.335 . S
C296 C297 1.398 1_455 S
C296 H318 0.930 . S
C297 C292 1.382 . S
C297 C296 1.398 1_655 S
C297 H319 0.929 . S
C298 O308 1.271 . S
C298 O309 1.251 . S
C299 O310 1.252 . S
C299 O311 1.272 . S
O300 Sm280 2.543 . S
O300 C282 1.261 . S
O301 Sm280 2.450 . S
O301 C282 1.242 . S
O302 Sm280 2.681 . S
O302 Sm281 2.386 . S
O302 C289 1.271 . S
O303 Sm280 2.464 . S
O303 C289 1.251 . S
O304 Sm280 2.396 . S
O304 C290 1.252 . S
O305 Sm281 2.408 . S
O305 C290 1.272 . S
O306 Sm281 2.543 . S
O306 C291 1.261 . S
O307 Sm281 2.450 . S
O307 C291 1.242 . S
O308 Sm280 2.386 . S
O308 Sm281 2.681 . S
O308 C298 1.271 . S
O309 Sm281 2.464 . S
O309 C298 1.251 . S
O310 Sm281 2.396 . S
O310 C299 1.252 . S
O311 Sm280 2.408 . S
O311 C299 1.272 . S
H312 C284 0.930 . S
H313 C285 0.929 . S
H314 C287 0.930 . S
H315 C288 0.929 . S
H316 C293 0.930 . S
H317 C294 0.929 . S
H318 C296 0.930 . S
H319 C297 0.929 . S
Sm320 C322 2.846 . S
Sm320 O340 2.543 . S
Sm320 O341 2.450 . S
Sm320 O342 2.681 . S
Sm320 O343 2.464 . S
Sm320 O344 2.396 . S
Sm320 O348 2.386 . S
Sm320 O351 2.408 . S
Sm321 C331 2.846 . S
Sm321 O342 2.386 . S
Sm321 O345 2.408 . S
Sm321 O346 2.543 . S
Sm321 O347 2.450 . S
Sm321 O348 2.681 . S
Sm321 O349 2.464 . S
Sm321 O350 2.396 . S
C322 Sm320 2.846 . S
C322 C323 1.506 . S
C322 O340 1.261 . S
C322 O341 1.242 . S
C323 C322 1.506 . S
C323 C324 1.358 . S
C323 C328 1.382 . S
C324 C323 1.358 . S
C324 C325 1.385 . S
C324 H352 0.930 . S
C325 C324 1.385 . S
C325 C326 1.395 . S
C325 H353 0.929 . S
C326 C325 1.395 . S
C326 C327 1.335 . S
C327 C326 1.335 . S
C327 C328 1.398 . S
C327 H354 0.930 . S
C328 C323 1.382 . S
C328 C327 1.398 . S
C328 H355 0.929 . S
C329 O342 1.271 . S
C329 O343 1.251 . S
C330 O344 1.252 . S
C330 O345 1.272 . S
C331 Sm321 2.846 . S
C331 C332 1.506 . S
C331 O346 1.261 . S
C331 O347 1.242 . S
C332 C331 1.506 . S
C332 C333 1.358 . S
C332 C337 1.382 . S
C333 C332 1.358 . S
C333 C334 1.385 1_565 S
C333 H356 0.930 . S
C334 C333 1.385 1_545 S
C334 C335 1.395 . S
C334 H357 0.929 . S
C335 C334 1.395 . S
C335 C336 1.335 . S
C336 C335 1.335 . S
C336 C337 1.398 1_545 S
C336 H358 0.930 . S
C337 C332 1.382 . S
C337 C336 1.398 1_565 S
C337 H359 0.929 . S
C338 O348 1.271 . S
C338 O349 1.251 . S
C339 O350 1.252 . S
C339 O351 1.272 . S
O340 Sm320 2.543 . S
O340 C322 1.261 . S
O341 Sm320 2.450 . S
O341 C322 1.242 . S
O342 Sm320 2.681 . S
O342 Sm321 2.386 . S
O342 C329 1.271 . S
O343 Sm320 2.464 . S
O343 C329 1.251 . S
O344 Sm320 2.396 . S
O344 C330 1.252 . S
O345 Sm321 2.408 . S
O345 C330 1.272 . S
O346 Sm321 2.543 . S
O346 C331 1.261 . S
O347 Sm321 2.450 . S
O347 C331 1.242 . S
O348 Sm320 2.386 . S
O348 Sm321 2.681 . S
O348 C338 1.271 . S
O349 Sm321 2.464 . S
O349 C338 1.251 . S
O350 Sm321 2.396 . S
O350 C339 1.252 . S
O351 Sm320 2.408 . S
O351 C339 1.272 . S
H352 C324 0.930 . S
H353 C325 0.929 . S
H354 C327 0.930 . S
H355 C328 0.929 . S
H356 C333 0.930 . S
H357 C334 0.929 . S
H358 C336 0.930 . S
H359 C337 0.929 . S
Sm360 C362 2.846 . S
Sm360 O380 2.543 . S
Sm360 O381 2.450 . S
Sm360 O382 2.681 . S
Sm360 O383 2.464 . S
Sm360 O384 2.396 . S
Sm360 O388 2.386 . S
Sm360 O391 2.408 . S
Sm361 C371 2.846 . S
Sm361 O382 2.386 . S
Sm361 O385 2.408 . S
Sm361 O386 2.543 . S
Sm361 O387 2.450 . S
Sm361 O388 2.681 . S
Sm361 O389 2.464 . S
Sm361 O390 2.396 . S
C362 Sm360 2.846 . S
C362 C363 1.506 . S
C362 O380 1.261 . S
C362 O381 1.242 . S
C363 C362 1.506 . S
C363 C364 1.358 . S
C363 C368 1.382 . S
C364 C363 1.358 . S
C364 C365 1.385 . S
C364 H392 0.930 . S
C365 C364 1.385 . S
C365 C366 1.395 . S
C365 H393 0.929 . S
C366 C365 1.395 . S
C366 C367 1.335 . S
C367 C366 1.335 . S
C367 C368 1.398 . S
C367 H394 0.930 . S
C368 C363 1.382 . S
C368 C367 1.398 . S
C368 H395 0.929 . S
C369 O382 1.271 . S
C369 O383 1.251 . S
C370 O384 1.252 . S
C370 O385 1.272 . S
C371 Sm361 2.846 . S
C371 C372 1.506 . S
C371 O386 1.261 . S
C371 O387 1.242 . S
C372 C371 1.506 . S
C372 C373 1.358 . S
C372 C377 1.382 . S
C373 C372 1.358 . S
C373 C374 1.385 . S
C373 H396 0.930 . S
C374 C373 1.385 . S
C374 C375 1.395 . S
C374 H397 0.929 . S
C375 C374 1.395 . S
C375 C376 1.335 . S
C376 C375 1.335 . S
C376 C377 1.398 . S
C376 H398 0.930 . S
C377 C372 1.382 . S
C377 C376 1.398 . S
C377 H399 0.929 . S
C378 O388 1.271 . S
C378 O389 1.251 . S
C379 O390 1.252 . S
C379 O391 1.272 . S
O380 Sm360 2.543 . S
O380 C362 1.261 . S
O381 Sm360 2.450 . S
O381 C362 1.242 . S
O382 Sm360 2.681 . S
O382 Sm361 2.386 . S
O382 C369 1.271 . S
O383 Sm360 2.464 . S
O383 C369 1.251 . S
O384 Sm360 2.396 . S
O384 C370 1.252 . S
O385 Sm361 2.408 . S
O385 C370 1.272 . S
O386 Sm361 2.543 . S
O386 C371 1.261 . S
O387 Sm361 2.450 . S
O387 C371 1.242 . S
O388 Sm360 2.386 . S
O388 Sm361 2.681 . S
O388 C378 1.271 . S
O389 Sm361 2.464 . S
O389 C378 1.251 . S
O390 Sm361 2.396 . S
O390 C379 1.252 . S
O391 Sm360 2.408 . S
O391 C379 1.272 . S
H392 C364 0.930 . S
H393 C365 0.929 . S
H394 C367 0.930 . S
H395 C368 0.929 . S
H396 C373 0.930 . S
H397 C374 0.929 . S
H398 C376 0.930 . S
H399 C377 0.929 . S
Sm400 C402 2.846 . S
Sm400 O420 2.543 . S
Sm400 O421 2.450 . S
Sm400 O422 2.681 . S
Sm400 O423 2.464 . S
Sm400 O424 2.396 . S
Sm400 O428 2.386 . S
Sm400 O431 2.408 . S
Sm401 C411 2.846 . S
Sm401 O422 2.386 . S
Sm401 O425 2.408 . S
Sm401 O426 2.543 . S
Sm401 O427 2.450 . S
Sm401 O428 2.681 . S
Sm401 O429 2.464 . S
Sm401 O430 2.396 . S
C402 Sm400 2.846 . S
C402 C403 1.506 . S
C402 O420 1.261 . S
C402 O421 1.242 . S
C403 C402 1.506 . S
C403 C404 1.358 . S
C403 C408 1.382 . S
C404 C403 1.358 . S
C404 C405 1.385 . S
C404 H432 0.930 . S
C405 C404 1.385 . S
C405 C406 1.395 . S
C405 H433 0.929 . S
C406 C405 1.395 . S
C406 C407 1.335 . S
C407 C406 1.335 . S
C407 C408 1.398 . S
C407 H434 0.930 . S
C408 C403 1.382 . S
C408 C407 1.398 . S
C408 H435 0.929 . S
C409 O422 1.271 . S
C409 O423 1.251 . S
C410 O424 1.252 . S
C410 O425 1.272 . S
C411 Sm401 2.846 . S
C411 C412 1.506 . S
C411 O426 1.261 . S
C411 O427 1.242 . S
C412 C411 1.506 . S
C412 C413 1.358 . S
C412 C417 1.382 . S
C413 C412 1.358 . S
C413 C414 1.385 1_455 S
C413 H436 0.930 . S
C414 C413 1.385 1_655 S
C414 C415 1.395 . S
C414 H437 0.929 . S
C415 C414 1.395 . S
C415 C416 1.335 . S
C416 C415 1.335 . S
C416 C417 1.398 1_655 S
C416 H438 0.930 . S
C417 C412 1.382 . S
C417 C416 1.398 1_455 S
C417 H439 0.929 . S
C418 O428 1.271 . S
C418 O429 1.251 . S
C419 O430 1.252 . S
C419 O431 1.272 . S
O420 Sm400 2.543 . S
O420 C402 1.261 . S
O421 Sm400 2.450 . S
O421 C402 1.242 . S
O422 Sm400 2.681 . S
O422 Sm401 2.386 . S
O422 C409 1.271 . S
O423 Sm400 2.464 . S
O423 C409 1.251 . S
O424 Sm400 2.396 . S
O424 C410 1.252 . S
O425 Sm401 2.408 . S
O425 C410 1.272 . S
O426 Sm401 2.543 . S
O426 C411 1.261 . S
O427 Sm401 2.450 . S
O427 C411 1.242 . S
O428 Sm400 2.386 . S
O428 Sm401 2.681 . S
O428 C418 1.271 . S
O429 Sm401 2.464 . S
O429 C418 1.251 . S
O430 Sm401 2.396 . S
O430 C419 1.252 . S
O431 Sm400 2.408 . S
O431 C419 1.272 . S
H432 C404 0.930 . S
H433 C405 0.929 . S
H434 C407 0.930 . S
H435 C408 0.929 . S
H436 C413 0.930 . S
H437 C414 0.929 . S
H438 C416 0.930 . S
H439 C417 0.929 . S
Sm440 C442 2.846 . S
Sm440 O460 2.543 . S
Sm440 O461 2.450 . S
Sm440 O462 2.681 . S
Sm440 O463 2.464 . S
Sm440 O464 2.396 . S
Sm440 O468 2.386 . S
Sm440 O471 2.408 . S
Sm441 C451 2.846 . S
Sm441 O462 2.386 . S
Sm441 O465 2.408 . S
Sm441 O466 2.543 . S
Sm441 O467 2.450 . S
Sm441 O468 2.681 . S
Sm441 O469 2.464 . S
Sm441 O470 2.396 . S
C442 Sm440 2.846 . S
C442 C443 1.506 . S
C442 O460 1.261 . S
C442 O461 1.242 . S
C443 C442 1.506 . S
C443 C444 1.358 . S
C443 C448 1.382 . S
C444 C443 1.358 . S
C444 C445 1.385 . S
C444 H472 0.930 . S
C445 C444 1.385 . S
C445 C446 1.395 . S
C445 H473 0.929 . S
C446 C445 1.395 . S
C446 C447 1.335 . S
C447 C446 1.335 . S
C447 C448 1.398 . S
C447 H474 0.930 . S
C448 C443 1.382 . S
C448 C447 1.398 . S
C448 H475 0.929 . S
C449 O462 1.271 . S
C449 O463 1.251 . S
C450 O464 1.252 . S
C450 O465 1.272 . S
C451 Sm441 2.846 . S
C451 C452 1.506 . S
C451 O466 1.261 . S
C451 O467 1.242 . S
C452 C451 1.506 . S
C452 C453 1.358 . S
C452 C457 1.382 . S
C453 C452 1.358 . S
C453 C454 1.385 1_545 S
C453 H476 0.930 . S
C454 C453 1.385 1_565 S
C454 C455 1.395 . S
C454 H477 0.929 . S
C455 C454 1.395 . S
C455 C456 1.335 . S
C456 C455 1.335 . S
C456 C457 1.398 1_565 S
C456 H478 0.930 . S
C457 C452 1.382 . S
C457 C456 1.398 1_545 S
C457 H479 0.929 . S
C458 O468 1.271 . S
C458 O469 1.251 . S
C459 O470 1.252 . S
C459 O471 1.272 . S
O460 Sm440 2.543 . S
O460 C442 1.261 . S
O461 Sm440 2.450 . S
O461 C442 1.242 . S
O462 Sm440 2.681 . S
O462 Sm441 2.386 . S
O462 C449 1.271 . S
O463 Sm440 2.464 . S
O463 C449 1.251 . S
O464 Sm440 2.396 . S
O464 C450 1.252 . S
O465 Sm441 2.408 . S
O465 C450 1.272 . S
O466 Sm441 2.543 . S
O466 C451 1.261 . S
O467 Sm441 2.450 . S
O467 C451 1.242 . S
O468 Sm440 2.386 . S
O468 Sm441 2.681 . S
O468 C458 1.271 . S
O469 Sm441 2.464 . S
O469 C458 1.251 . S
O470 Sm441 2.396 . S
O470 C459 1.252 . S
O471 Sm440 2.408 . S
O471 C459 1.272 . S
H472 C444 0.930 . S
H473 C445 0.929 . S
H474 C447 0.930 . S
H475 C448 0.929 . S
H476 C453 0.930 . S
H477 C454 0.929 . S
H478 C456 0.930 . S
H479 C457 0.929 . S
C480 C481 1.349 . S
C480 C482 1.327 . S
C480 H505 0.950 . S
C481 C480 1.349 . S
C481 C497 1.349 . S
C482 C480 1.327 . S
C482 C501 1.429 . S
C482 H506 0.950 . S
C483 C500 1.574 1_565 S
C483 C502 1.368 . S
C483 H507 0.949 . S
H484 C488 0.949 . S
C485 C486 1.349 . S
C485 C487 1.327 . S
C485 H508 0.950 . S
C486 C485 1.349 . S
C486 C498 1.349 . S
C487 C485 1.327 . S
C487 C503 1.429 . S
C487 H509 0.950 . S
C488 H484 0.949 . S
C488 C496 1.540 1_545 S
C488 C504 1.368 . S
H489 C497 0.950 . S
H490 C495 0.950 . S
H491 C496 0.973 . S
H492 C498 0.950 . S
H493 C499 0.950 . S
H494 C500 0.949 . S
C495 H490 0.950 . S
C495 C497 1.327 . S
C495 C501 1.429 . S
C496 C488 1.540 1_565 S
C496 H491 0.973 . S
C496 C502 1.376 . S
C497 C481 1.349 . S
C497 H489 0.950 . S
C497 C495 1.327 . S
C498 C486 1.349 . S
C498 H492 0.950 . S
C498 C499 1.327 . S
C499 H493 0.950 . S
C499 C498 1.327 . S
C499 C503 1.429 . S
C500 C483 1.574 1_545 S
C500 H494 0.949 . S
C500 C504 1.368 . S
C501 C482 1.429 . S
C501 C495 1.429 . S
C501 C502 1.523 . S
C502 C483 1.368 . S
C502 C496 1.376 . S
C502 C501 1.523 . S
C503 C487 1.429 . S
C503 C499 1.429 . S
C503 C504 1.523 . S
C504 C488 1.368 . S
C504 C500 1.368 . S
C504 C503 1.523 . S
H505 C480 0.950 . S
H506 C482 0.950 . S
H507 C483 0.949 . S
H508 C485 0.950 . S
H509 C487 0.950 . S
C510 C511 1.349 . S
C510 C512 1.327 . S
C510 H535 0.950 . S
C511 C510 1.349 . S
C511 C527 1.349 . S
C512 C510 1.327 . S
C512 C531 1.429 . S
C512 H536 0.950 . S
C513 C530 1.574 . S
C513 C532 1.368 . S
C513 H537 0.949 . S
H514 C518 0.949 . S
C515 C516 1.349 . S
C515 C517 1.327 . S
C515 H538 0.950 . S
C516 C515 1.349 . S
C516 C528 1.349 . S
C517 C515 1.327 . S
C517 C533 1.429 . S
C517 H539 0.950 . S
C518 H514 0.949 . S
C518 C526 1.574 . S
C518 C534 1.368 . S
H519 C527 0.950 . S
H520 C525 0.950 . S
H521 C526 0.949 . S
H522 C528 0.950 . S
H523 C529 0.950 . S
H524 C530 0.949 . S
C525 H520 0.950 . S
C525 C527 1.327 . S
C525 C531 1.429 . S
C526 C518 1.574 . S
C526 H521 0.949 . S
C526 C532 1.368 . S
C527 C511 1.349 . S
C527 H519 0.950 . S
C527 C525 1.327 . S
C528 C516 1.349 . S
C528 H522 0.950 . S
C528 C529 1.327 . S
C529 H523 0.950 . S
C529 C528 1.327 . S
C529 C533 1.429 . S
C530 C513 1.574 . S
C530 H524 0.949 . S
C530 C534 1.368 . S
C531 C512 1.429 . S
C531 C525 1.429 . S
C531 C532 1.523 . S
C532 C513 1.368 . S
C532 C526 1.368 . S
C532 C531 1.523 . S
C533 C517 1.429 . S
C533 C529 1.429 . S
C533 C534 1.523 . S
C534 C518 1.368 . S
C534 C530 1.368 . S
C534 C533 1.523 . S
H535 C510 0.950 . S
H536 C512 0.950 . S
H537 C513 0.949 . S
H538 C515 0.950 . S
H539 C517 0.950 . S
C540 C541 1.349 . S
C540 C542 1.327 . S
C540 H565 0.950 . S
C541 C540 1.349 . S
C541 C557 1.349 . S
C542 C540 1.327 . S
C542 C561 1.429 . S
C542 H566 0.950 . S
C543 C560 1.574 1_655 S
C543 C562 1.368 . S
C543 H567 0.949 . S
H544 C548 0.946 . S
C545 C546 1.349 . S
C545 C547 1.327 . S
C545 H568 0.950 . S
C546 C545 1.349 . S
C546 C558 1.349 . S
C547 C545 1.327 . S
C547 C563 1.429 . S
C547 H569 0.950 . S
C548 H544 0.946 . S
C548 C556 1.548 1_455 S
C548 C564 1.399 . S
H549 C557 0.950 . S
H550 C555 0.950 . S
H551 C556 0.949 . S
H552 C558 0.950 . S
H553 C559 0.950 . S
H554 C560 0.949 . S
C555 H550 0.950 . S
C555 C557 1.327 . S
C555 C561 1.429 . S
C556 C548 1.548 1_655 S
C556 H551 0.949 . S
C556 C562 1.368 . S
C557 C541 1.349 . S
C557 H549 0.950 . S
C557 C555 1.327 . S
C558 C546 1.349 . S
C558 H552 0.950 . S
C558 C559 1.327 . S
C559 H553 0.950 . S
C559 C558 1.327 . S
C559 C563 1.429 . S
C560 C543 1.574 1_455 S
C560 H554 0.949 . S
C560 C564 1.368 . S
C561 C542 1.429 . S
C561 C555 1.429 . S
C561 C562 1.523 . S
C562 C543 1.368 . S
C562 C556 1.368 . S
C562 C561 1.523 . S
C563 C547 1.429 . S
C563 C559 1.429 . S
C563 C564 1.523 . S
C564 C548 1.399 . S
C564 C560 1.368 . S
C564 C563 1.523 . S
H565 C540 0.950 . S
H566 C542 0.950 . S
H567 C543 0.949 . S
H568 C545 0.950 . S
H569 C547 0.950 . S
C570 C571 1.349 . S
C570 C572 1.327 . S
C570 H595 0.950 . S
C571 C570 1.349 . S
C571 C587 1.349 . S
C572 C570 1.327 . S
C572 C591 1.429 . S
C572 H596 0.950 . S
C573 C590 1.551 1_565 S
C573 C592 1.368 . S
C573 H597 0.949 . S
H574 C578 0.949 . S
C575 C576 1.349 . S
C575 C577 1.327 . S
C575 H598 0.950 . S
C576 C575 1.349 . S
C576 C588 1.349 . S
C577 C575 1.327 . S
C577 C593 1.429 . S
C577 H599 0.950 . S
C578 H574 0.949 . S
C578 C586 1.574 1_545 S
C578 C594 1.368 . S
H579 C587 0.950 . S
H580 C585 0.950 . S
H581 C586 0.949 . S
H582 C588 0.950 . S
H583 C589 0.950 . S
H584 C590 0.962 . S
C585 H580 0.950 . S
C585 C587 1.327 . S
C585 C591 1.429 . S
C586 C578 1.574 1_565 S
C586 H581 0.949 . S
C586 C592 1.368 . S
C587 C571 1.349 . S
C587 H579 0.950 . S
C587 C585 1.327 . S
C588 C576 1.349 . S
C588 H582 0.950 . S
C588 C589 1.327 . S
C589 H583 0.950 . S
C589 C588 1.327 . S
C589 C593 1.429 . S
C590 C573 1.551 1_545 S
C590 H584 0.962 . S
C590 C594 1.377 . S
C591 C572 1.429 . S
C591 C585 1.429 . S
C591 C592 1.523 . S
C592 C573 1.368 . S
C592 C586 1.368 . S
C592 C591 1.523 . S
C593 C577 1.429 . S
C593 C589 1.429 . S
C593 C594 1.523 . S
C594 C578 1.368 . S
C594 C590 1.377 . S
C594 C593 1.523 . S
H595 C570 0.950 . S
H596 C572 0.950 . S
H597 C573 0.949 . S
H598 C575 0.950 . S
H599 C577 0.950 . S
C600 C601 1.349 . S
C600 C602 1.327 . S
C600 H625 0.950 . S
C601 C600 1.349 . S
C601 C617 1.349 . S
C602 C600 1.327 . S
C602 C621 1.429 . S
C602 H626 0.950 . S
C603 C620 1.574 . S
C603 C622 1.368 . S
C603 H627 0.949 . S
H604 C608 0.949 . S
C605 C606 1.349 . S
C605 C607 1.327 . S
C605 H628 0.950 . S
C606 C605 1.349 . S
C606 C618 1.349 . S
C607 C605 1.327 . S
C607 C623 1.429 . S
C607 H629 0.950 . S
C608 H604 0.949 . S
C608 C616 1.574 . S
C608 C624 1.368 . S
H609 C617 0.950 . S
H610 C615 0.950 . S
H611 C616 0.949 . S
H612 C618 0.950 . S
H613 C619 0.950 . S
H614 C620 0.949 . S
C615 H610 0.950 . S
C615 C617 1.327 . S
C615 C621 1.429 . S
C616 C608 1.574 . S
C616 H611 0.949 . S
C616 C622 1.368 . S
C617 C601 1.349 . S
C617 H609 0.950 . S
C617 C615 1.327 . S
C618 C606 1.349 . S
C618 H612 0.950 . S
C618 C619 1.327 . S
C619 H613 0.950 . S
C619 C618 1.327 . S
C619 C623 1.429 . S
C620 C603 1.574 . S
C620 H614 0.949 . S
C620 C624 1.368 . S
C621 C602 1.429 . S
C621 C615 1.429 . S
C621 C622 1.523 . S
C622 C603 1.368 . S
C622 C616 1.368 . S
C622 C621 1.523 . S
C623 C607 1.429 . S
C623 C619 1.429 . S
C623 C624 1.523 . S
C624 C608 1.368 . S
C624 C620 1.368 . S
C624 C623 1.523 . S
H625 C600 0.950 . S
H626 C602 0.950 . S
H627 C603 0.949 . S
H628 C605 0.950 . S
H629 C607 0.950 . S
C630 C631 1.349 . S
C630 C632 1.327 . S
C630 H655 0.950 . S
C631 C630 1.349 . S
C631 C647 1.349 . S
C632 C630 1.327 . S
C632 C651 1.429 . S
C632 H656 0.950 . S
C633 C650 1.574 1_655 S
C633 C652 1.368 . S
C633 H657 0.949 . S
H634 C638 0.949 . S
C635 C636 1.349 . S
C635 C637 1.327 . S
C635 H658 0.950 . S
C636 C635 1.349 . S
C636 C648 1.349 . S
C637 C635 1.327 . S
C637 C653 1.429 . S
C637 H659 0.950 . S
C638 H634 0.949 . S
C638 C646 1.574 1_455 S
C638 C654 1.368 . S
H639 C647 0.950 . S
H640 C645 0.950 . S
H641 C646 0.949 . S
H642 C648 0.950 . S
H643 C649 0.950 . S
H644 C650 0.949 . S
C645 H640 0.950 . S
C645 C647 1.327 . S
C645 C651 1.429 . S
C646 C638 1.574 1_655 S
C646 H641 0.949 . S
C646 C652 1.368 . S
C647 C631 1.349 . S
C647 H639 0.950 . S
C647 C645 1.327 . S
C648 C636 1.349 . S
C648 H642 0.950 . S
C648 C649 1.327 . S
C649 H643 0.950 . S
C649 C648 1.327 . S
C649 C653 1.429 . S
C650 C633 1.574 1_455 S
C650 H644 0.949 . S
C650 C654 1.368 . S
C651 C632 1.429 . S
C651 C645 1.429 . S
C651 C652 1.523 . S
C652 C633 1.368 . S
C652 C646 1.368 . S
C652 C651 1.523 . S
C653 C637 1.429 . S
C653 C649 1.429 . S
C653 C654 1.523 . S
C654 C638 1.368 . S
C654 C650 1.368 . S
C654 C653 1.523 . S
H655 C630 0.950 . S
H656 C632 0.950 . S
H657 C633 0.949 . S
H658 C635 0.950 . S
H659 C637 0.950 . S
C660 C661 1.349 . S
C660 C662 1.327 . S
C660 H685 0.950 . S
C661 C660 1.349 . S
C661 C677 1.349 . S
C662 C660 1.327 . S
C662 C681 1.429 . S
C662 H686 0.950 . S
C663 C680 1.574 1_455 S
C663 C682 1.368 . S
C663 H687 0.949 . S
H664 C668 0.949 . S
C665 C666 1.349 . S
C665 C667 1.327 . S
C665 H688 0.950 . S
C666 C665 1.349 . S
C666 C678 1.349 . S
C667 C665 1.327 . S
C667 C683 1.429 . S
C667 H689 0.950 . S
C668 H664 0.949 . S
C668 C676 1.574 1_655 S
C668 C684 1.368 . S
H669 C677 0.950 . S
H670 C675 0.950 . S
H671 C676 0.949 . S
H672 C678 0.950 . S
H673 C679 0.950 . S
H674 C680 0.949 . S
C675 H670 0.950 . S
C675 C677 1.327 . S
C675 C681 1.429 . S
C676 C668 1.574 1_455 S
C676 H671 0.949 . S
C676 C682 1.368 . S
C677 C661 1.349 . S
C677 H669 0.950 . S
C677 C675 1.327 . S
C678 C666 1.349 . S
C678 H672 0.950 . S
C678 C679 1.327 . S
C679 H673 0.950 . S
C679 C678 1.327 . S
C679 C683 1.429 . S
C680 C663 1.574 1_655 S
C680 H674 0.949 . S
C680 C684 1.368 . S
C681 C662 1.429 . S
C681 C675 1.429 . S
C681 C682 1.523 . S
C682 C663 1.368 . S
C682 C676 1.368 . S
C682 C681 1.523 . S
C683 C667 1.429 . S
C683 C679 1.429 . S
C683 C684 1.523 . S
C684 C668 1.368 . S
C684 C680 1.368 . S
C684 C683 1.523 . S
H685 C660 0.950 . S
H686 C662 0.950 . S
H687 C663 0.949 . S
H688 C665 0.950 . S
H689 C667 0.950 . S
C690 C691 1.349 . S
C690 C692 1.327 . S
C690 H715 0.950 . S
C691 C690 1.349 . S
C691 C707 1.349 . S
C692 C690 1.327 . S
C692 C711 1.429 . S
C692 H716 0.950 . S
C693 C710 1.557 1_565 S
C693 C712 1.368 . S
C693 H717 0.949 . S
H694 C698 0.949 . S
C695 C696 1.349 . S
C695 C697 1.327 . S
C695 H718 0.950 . S
C696 C695 1.349 . S
C696 C708 1.349 . S
C697 C695 1.327 . S
C697 C713 1.429 . S
C697 H719 0.950 . S
C698 H694 0.949 . S
C698 C706 1.574 1_545 S
C698 C714 1.368 . S
H699 C707 0.950 . S
H700 C705 0.950 . S
H701 C706 0.949 . S
H702 C708 0.950 . S
H703 C709 0.950 . S
H704 C710 0.946 . S
C705 H700 0.950 . S
C705 C707 1.327 . S
C705 C711 1.429 . S
C706 C698 1.574 1_565 S
C706 H701 0.949 . S
C706 C712 1.368 . S
C707 C691 1.349 . S
C707 H699 0.950 . S
C707 C705 1.327 . S
C708 C696 1.349 . S
C708 H702 0.950 . S
C708 C709 1.327 . S
C709 H703 0.950 . S
C709 C708 1.327 . S
C709 C713 1.429 . S
C710 C693 1.557 1_545 S
C710 H704 0.946 . S
C710 C714 1.390 . S
C711 C692 1.429 . S
C711 C705 1.429 . S
C711 C712 1.523 . S
C712 C693 1.368 . S
C712 C706 1.368 . S
C712 C711 1.523 . S
C713 C697 1.429 . S
C713 C709 1.429 . S
C713 C714 1.523 . S
C714 C698 1.368 . S
C714 C710 1.390 . S
C714 C713 1.523 . S
H715 C690 0.950 . S
H716 C692 0.950 . S
H717 C693 0.949 . S
H718 C695 0.950 . S
H719 C697 0.950 . S
C720 C721 1.349 . S
C720 C722 1.327 . S
C720 H745 0.950 . S
C721 C720 1.349 . S
C721 C737 1.349 . S
C722 C720 1.327 . S
C722 C741 1.429 . S
C722 H746 0.950 . S
C723 C740 1.574 . S
C723 C742 1.368 . S
C723 H747 0.949 . S
H724 C728 0.949 . S
C725 C726 1.349 . S
C725 C727 1.327 . S
C725 H748 0.950 . S
C726 C725 1.349 . S
C726 C738 1.349 . S
C727 C725 1.327 . S
C727 C743 1.429 . S
C727 H749 0.950 . S
C728 H724 0.949 . S
C728 C736 1.574 . S
C728 C744 1.368 . S
H729 C737 0.950 . S
H730 C735 0.950 . S
H731 C736 0.949 . S
H732 C738 0.950 . S
H733 C739 0.950 . S
H734 C740 0.949 . S
C735 H730 0.950 . S
C735 C737 1.327 . S
C735 C741 1.429 . S
C736 C728 1.574 . S
C736 H731 0.949 . S
C736 C742 1.368 . S
C737 C721 1.349 . S
C737 H729 0.950 . S
C737 C735 1.327 . S
C738 C726 1.349 . S
C738 H732 0.950 . S
C738 C739 1.327 . S
C739 H733 0.950 . S
C739 C738 1.327 . S
C739 C743 1.429 . S
C740 C723 1.574 . S
C740 H734 0.949 . S
C740 C744 1.368 . S
C741 C722 1.429 . S
C741 C735 1.429 . S
C741 C742 1.523 . S
C742 C723 1.368 . S
C742 C736 1.368 . S
C742 C741 1.523 . S
C743 C727 1.429 . S
C743 C739 1.429 . S
C743 C744 1.523 . S
C744 C728 1.368 . S
C744 C740 1.368 . S
C744 C743 1.523 . S
H745 C720 0.950 . S
H746 C722 0.950 . S
H747 C723 0.949 . S
H748 C725 0.950 . S
H749 C727 0.950 . S
C750 C751 1.349 . S
C750 C752 1.327 . S
C750 H775 0.950 . S
C751 C750 1.349 . S
C751 C767 1.349 . S
C752 C750 1.327 . S
C752 C771 1.429 . S
C752 H776 0.950 . S
C753 C770 1.574 1_455 S
C753 C772 1.368 . S
C753 H777 0.949 . S
H754 C758 0.923 1_655 S
C755 C756 1.349 . S
C755 C757 1.327 . S
C755 H778 0.950 . S
C756 C755 1.349 . S
C756 C768 1.349 . S
C757 C755 1.327 . S
C757 C773 1.429 . S
C757 H779 0.950 . S
C758 H754 0.923 1_455 S
C758 C766 1.617 . S
C758 C774 1.355 1_455 S
H759 C767 0.950 . S
H760 C765 0.950 . S
H761 C766 0.949 . S
H762 C768 0.950 . S
H763 C769 0.950 . S
H764 C770 0.949 . S
C765 H760 0.950 . S
C765 C767 1.327 . S
C765 C771 1.429 . S
C766 C758 1.617 . S
C766 H761 0.949 . S
C766 C772 1.368 . S
C767 C751 1.349 . S
C767 H759 0.950 . S
C767 C765 1.327 . S
C768 C756 1.349 . S
C768 H762 0.950 . S
C768 C769 1.327 . S
C769 H763 0.950 . S
C769 C768 1.327 . S
C769 C773 1.429 . S
C770 C753 1.574 1_655 S
C770 H764 0.949 . S
C770 C774 1.368 . S
C771 C752 1.429 . S
C771 C765 1.429 . S
C771 C772 1.523 . S
C772 C753 1.368 . S
C772 C766 1.368 . S
C772 C771 1.523 . S
C773 C757 1.429 . S
C773 C769 1.429 . S
C773 C774 1.523 . S
C774 C758 1.355 1_655 S
C774 C770 1.368 . S
C774 C773 1.523 . S
H775 C750 0.950 . S
H776 C752 0.950 . S
H777 C753 0.949 . S
H778 C755 0.950 . S
H779 C757 0.950 . S
C780 C781 1.349 . S
C780 C782 1.327 . S
C780 H805 0.950 . S
C781 C780 1.349 . S
C781 C797 1.349 . S
C782 C780 1.327 . S
C782 C801 1.429 . S
C782 H806 0.950 . S
C783 C800 1.547 1_545 S
C783 C802 1.368 . S
C783 H807 0.949 . S
H784 C788 0.949 . S
C785 C786 1.349 . S
C785 C787 1.327 . S
C785 H808 0.950 . S
C786 C785 1.349 . S
C786 C798 1.349 . S
C787 C785 1.327 . S
C787 C803 1.429 . S
C787 H809 0.950 . S
C788 H784 0.949 . S
C788 C796 1.574 1_565 S
C788 C804 1.368 . S
H789 C797 0.950 . S
H790 C795 0.950 . S
H791 C796 0.949 . S
H792 C798 0.950 . S
H793 C799 0.950 . S
H794 C800 0.946 . S
C795 H790 0.950 . S
C795 C797 1.327 . S
C795 C801 1.429 . S
C796 C788 1.574 1_545 S
C796 H791 0.949 . S
C796 C802 1.368 . S
C797 C781 1.349 . S
C797 H789 0.950 . S
C797 C795 1.327 . S
C798 C786 1.349 . S
C798 H792 0.950 . S
C798 C799 1.327 . S
C799 H793 0.950 . S
C799 C798 1.327 . S
C799 C803 1.429 . S
C800 C783 1.547 1_565 S
C800 H794 0.946 . S
C800 C804 1.400 . S
C801 C782 1.429 . S
C801 C795 1.429 . S
C801 C802 1.523 . S
C802 C783 1.368 . S
C802 C796 1.368 . S
C802 C801 1.523 . S
C803 C787 1.429 . S
C803 C799 1.429 . S
C803 C804 1.523 . S
C804 C788 1.368 . S
C804 C800 1.400 . S
C804 C803 1.523 . S
H805 C780 0.950 . S
H806 C782 0.950 . S
H807 C783 0.949 . S
H808 C785 0.950 . S
H809 C787 0.950 . S
C810 C811 1.349 . S
C810 C812 1.327 . S
C810 H835 0.950 . S
C811 C810 1.349 . S
C811 C827 1.349 . S
C812 C810 1.327 . S
C812 C831 1.429 . S
C812 H836 0.950 . S
C813 C830 1.574 . S
C813 C832 1.368 . S
C813 H837 0.949 . S
H814 C818 0.949 . S
C815 C816 1.349 . S
C815 C817 1.327 . S
C815 H838 0.950 . S
C816 C815 1.349 . S
C816 C828 1.349 . S
C817 C815 1.327 . S
C817 C833 1.429 . S
C817 H839 0.950 . S
C818 H814 0.949 . S
C818 C826 1.574 . S
C818 C834 1.368 . S
H819 C827 0.950 . S
H820 C825 0.950 . S
H821 C826 0.949 . S
H822 C828 0.950 . S
H823 C829 0.950 . S
H824 C830 0.949 . S
C825 H820 0.950 . S
C825 C827 1.327 . S
C825 C831 1.429 . S
C826 C818 1.574 . S
C826 H821 0.949 . S
C826 C832 1.368 . S
C827 C811 1.349 . S
C827 H819 0.950 . S
C827 C825 1.327 . S
C828 C816 1.349 . S
C828 H822 0.950 . S
C828 C829 1.327 . S
C829 H823 0.950 . S
C829 C828 1.327 . S
C829 C833 1.429 . S
C830 C813 1.574 . S
C830 H824 0.949 . S
C830 C834 1.368 . S
C831 C812 1.429 . S
C831 C825 1.429 . S
C831 C832 1.523 . S
C832 C813 1.368 . S
C832 C826 1.368 . S
C832 C831 1.523 . S
C833 C817 1.429 . S
C833 C829 1.429 . S
C833 C834 1.523 . S
C834 C818 1.368 . S
C834 C830 1.368 . S
C834 C833 1.523 . S
H835 C810 0.950 . S
H836 C812 0.950 . S
H837 C813 0.949 . S
H838 C815 0.950 . S
H839 C817 0.950 . S
C840 C841 1.349 . S
C840 C842 1.327 . S
C840 H865 0.950 . S
C841 C840 1.349 . S
C841 C857 1.349 . S
C842 C840 1.327 . S
C842 C861 1.429 . S
C842 H866 0.950 . S
C843 C860 1.574 . S
C843 C862 1.368 . S
C843 H867 0.949 . S
H844 C848 0.949 . S
C845 C846 1.349 . S
C845 C847 1.327 . S
C845 H868 0.950 . S
C846 C845 1.349 . S
C846 C858 1.349 . S
C847 C845 1.327 . S
C847 C863 1.429 . S
C847 H869 0.950 . S
C848 H844 0.949 . S
C848 C856 1.574 . S
C848 C864 1.368 . S
H849 C857 0.950 . S
H850 C855 0.950 . S
H851 C856 0.949 . S
H852 C858 0.950 . S
H853 C859 0.950 . S
H854 C860 0.949 . S
C855 H850 0.950 . S
C855 C857 1.327 . S
C855 C861 1.429 . S
C856 C848 1.574 . S
C856 H851 0.949 . S
C856 C862 1.368 . S
C857 C841 1.349 . S
C857 H849 0.950 . S
C857 C855 1.327 . S
C858 C846 1.349 . S
C858 H852 0.950 . S
C858 C859 1.327 . S
C859 H853 0.950 . S
C859 C858 1.327 . S
C859 C863 1.429 . S
C860 C843 1.574 . S
C860 H854 0.949 . S
C860 C864 1.368 . S
C861 C842 1.429 . S
C861 C855 1.429 . S
C861 C862 1.523 . S
C862 C843 1.368 . S
C862 C856 1.368 . S
C862 C861 1.523 . S
C863 C847 1.429 . S
C863 C859 1.429 . S
C863 C864 1.523 . S
C864 C848 1.368 . S
C864 C860 1.368 . S
C864 C863 1.523 . S
H865 C840 0.950 . S
H866 C842 0.950 . S
H867 C843 0.949 . S
H868 C845 0.950 . S
H869 C847 0.950 . S
C870 C871 1.349 . S
C870 C872 1.327 . S
C870 H895 0.950 . S
C871 C870 1.349 . S
C871 C887 1.349 . S
C872 C870 1.327 . S
C872 C891 1.429 . S
C872 H896 0.950 . S
C873 C890 1.574 . S
C873 C892 1.368 . S
C873 H897 0.949 . S
H874 C878 0.949 . S
C875 C876 1.349 . S
C875 C877 1.327 . S
C875 H898 0.950 . S
C876 C875 1.349 . S
C876 C888 1.349 . S
C877 C875 1.327 . S
C877 C893 1.429 . S
C877 H899 0.950 . S
C878 H874 0.949 . S
C878 C886 1.574 . S
C878 C894 1.368 . S
H879 C887 0.950 . S
H880 C885 0.950 . S
H881 C886 0.949 . S
H882 C888 0.950 . S
H883 C889 0.950 . S
H884 C890 0.949 . S
C885 H880 0.950 . S
C885 C887 1.327 . S
C885 C891 1.429 . S
C886 C878 1.574 . S
C886 H881 0.949 . S
C886 C892 1.368 . S
C887 C871 1.349 . S
C887 H879 0.950 . S
C887 C885 1.327 . S
C888 C876 1.349 . S
C888 H882 0.950 . S
C888 C889 1.327 . S
C889 H883 0.950 . S
C889 C888 1.327 . S
C889 C893 1.429 . S
C890 C873 1.574 . S
C890 H884 0.949 . S
C890 C894 1.368 . S
C891 C872 1.429 . S
C891 C885 1.429 . S
C891 C892 1.523 . S
C892 C873 1.368 . S
C892 C886 1.368 . S
C892 C891 1.523 . S
C893 C877 1.429 . S
C893 C889 1.429 . S
C893 C894 1.523 . S
C894 C878 1.368 . S
C894 C890 1.368 . S
C894 C893 1.523 . S
H895 C870 0.950 . S
H896 C872 0.950 . S
H897 C873 0.949 . S
H898 C875 0.950 . S
H899 C877 0.950 . S
C900 C901 1.349 . S
C900 C902 1.327 . S
C900 H925 0.950 . S
C901 C900 1.349 . S
C901 C917 1.349 . S
C902 C900 1.327 . S
C902 C921 1.429 . S
C902 H926 0.950 . S
C903 C920 1.574 . S
C903 C922 1.368 . S
C903 H927 0.949 . S
H904 C908 0.949 . S
C905 C906 1.349 . S
C905 C907 1.327 . S
C905 H928 0.950 . S
C906 C905 1.349 . S
C906 C918 1.349 . S
C907 C905 1.327 . S
C907 C923 1.429 . S
C907 H929 0.950 . S
C908 H904 0.949 . S
C908 C916 1.574 . S
C908 C924 1.368 . S
H909 C917 0.950 . S
H910 C915 0.950 . S
H911 C916 0.949 . S
H912 C918 0.950 . S
H913 C919 0.950 . S
H914 C920 0.949 . S
C915 H910 0.950 . S
C915 C917 1.327 . S
C915 C921 1.429 . S
C916 C908 1.574 . S
C916 H911 0.949 . S
C916 C922 1.368 . S
C917 C901 1.349 . S
C917 H909 0.950 . S
C917 C915 1.327 . S
C918 C906 1.349 . S
C918 H912 0.950 . S
C918 C919 1.327 . S
C919 H913 0.950 . S
C919 C918 1.327 . S
C919 C923 1.429 . S
C920 C903 1.574 . S
C920 H914 0.949 . S
C920 C924 1.368 . S
C921 C902 1.429 . S
C921 C915 1.429 . S
C921 C922 1.523 . S
C922 C903 1.368 . S
C922 C916 1.368 . S
C922 C921 1.523 . S
C923 C907 1.429 . S
C923 C919 1.429 . S
C923 C924 1.523 . S
C924 C908 1.368 . S
C924 C920 1.368 . S
C924 C923 1.523 . S
H925 C900 0.950 . S
H926 C902 0.950 . S
H927 C903 0.949 . S
H928 C905 0.950 . S
H929 C907 0.950 . S
C930 C931 1.349 . S
C930 C932 1.327 . S
C930 H955 0.950 . S
C931 C930 1.349 . S
C931 C947 1.349 . S
C932 C930 1.327 . S
C932 C951 1.429 . S
C932 H956 0.950 . S
C933 C950 1.574 . S
C933 C952 1.368 . S
C933 H957 0.949 . S
H934 C938 0.949 . S
C935 C936 1.349 . S
C935 C937 1.327 . S
C935 H958 0.950 . S
C936 C935 1.349 . S
C936 C948 1.349 . S
C937 C935 1.327 . S
C937 C953 1.429 . S
C937 H959 0.950 . S
C938 H934 0.949 . S
C938 C946 1.574 . S
C938 C954 1.368 . S
H939 C947 0.950 . S
H940 C945 0.950 . S
H941 C946 0.949 . S
H942 C948 0.950 . S
H943 C949 0.950 . S
H944 C950 0.949 . S
C945 H940 0.950 . S
C945 C947 1.327 . S
C945 C951 1.429 . S
C946 C938 1.574 . S
C946 H941 0.949 . S
C946 C952 1.368 . S
C947 C931 1.349 . S
C947 H939 0.950 . S
C947 C945 1.327 . S
C948 C936 1.349 . S
C948 H942 0.950 . S
C948 C949 1.327 . S
C949 H943 0.950 . S
C949 C948 1.327 . S
C949 C953 1.429 . S
C950 C933 1.574 . S
C950 H944 0.949 . S
C950 C954 1.368 . S
C951 C932 1.429 . S
C951 C945 1.429 . S
C951 C952 1.523 . S
C952 C933 1.368 . S
C952 C946 1.368 . S
C952 C951 1.523 . S
C953 C937 1.429 . S
C953 C949 1.429 . S
C953 C954 1.523 . S
C954 C938 1.368 . S
C954 C950 1.368 . S
C954 C953 1.523 . S
H955 C930 0.950 . S
H956 C932 0.950 . S
H957 C933 0.949 . S
H958 C935 0.950 . S
H959 C937 0.950 . S
C960 C961 1.349 . S
C960 C962 1.327 . S
C960 H985 0.950 . S
C961 C960 1.349 . S
C961 C977 1.349 . S
C962 C960 1.327 . S
C962 C981 1.429 . S
C962 H986 0.950 . S
C963 C980 1.574 . S
C963 C982 1.368 . S
C963 H987 0.949 . S
H964 C968 0.949 . S
C965 C966 1.349 . S
C965 C967 1.327 . S
C965 H988 0.950 . S
C966 C965 1.349 . S
C966 C978 1.349 . S
C967 C965 1.327 . S
C967 C983 1.429 . S
C967 H989 0.950 . S
C968 H964 0.949 . S
C968 C976 1.574 . S
C968 C984 1.368 . S
H969 C977 0.950 . S
H970 C975 0.950 . S
H971 C976 0.949 . S
H972 C978 0.950 . S
H973 C979 0.950 . S
H974 C980 0.949 . S
C975 H970 0.950 . S
C975 C977 1.327 . S
C975 C981 1.429 . S
C976 C968 1.574 . S
C976 H971 0.949 . S
C976 C982 1.368 . S
C977 C961 1.349 . S
C977 H969 0.950 . S
C977 C975 1.327 . S
C978 C966 1.349 . S
C978 H972 0.950 . S
C978 C979 1.327 . S
C979 H973 0.950 . S
C979 C978 1.327 . S
C979 C983 1.429 . S
C980 C963 1.574 . S
C980 H974 0.949 . S
C980 C984 1.368 . S
C981 C962 1.429 . S
C981 C975 1.429 . S
C981 C982 1.523 . S
C982 C963 1.368 . S
C982 C976 1.368 . S
C982 C981 1.523 . S
C983 C967 1.429 . S
C983 C979 1.429 . S
C983 C984 1.523 . S
C984 C968 1.368 . S
C984 C980 1.368 . S
C984 C983 1.523 . S
H985 C960 0.950 . S
H986 C962 0.950 . S
H987 C963 0.949 . S
H988 C965 0.950 . S
H989 C967 0.950 . S
C990 C991 1.349 . S
C990 C992 1.327 . S
C990 H1015 0.950 . S
C991 C990 1.349 . S
C991 C1007 1.349 . S
C992 C990 1.327 . S
C992 C1011 1.429 . S
C992 H1016 0.950 . S
C993 C1010 1.574 . S
C993 C1012 1.368 . S
C993 H1017 0.949 . S
H994 C998 0.949 . S
C995 C996 1.349 . S
C995 C997 1.327 . S
C995 H1018 0.950 . S
C996 C995 1.349 . S
C996 C1008 1.349 . S
C997 C995 1.327 . S
C997 C1013 1.429 . S
C997 H1019 0.950 . S
C998 H994 0.949 . S
C998 C1006 1.574 . S
C998 C1014 1.368 . S
H999 C1007 0.950 . S
H1000 C1005 0.950 . S
H1001 C1006 0.949 . S
H1002 C1008 0.950 . S
H1003 C1009 0.950 . S
H1004 C1010 0.949 . S
C1005 H1000 0.950 . S
C1005 C1007 1.327 . S
C1005 C1011 1.429 . S
C1006 C998 1.574 . S
C1006 H1001 0.949 . S
C1006 C1012 1.368 . S
C1007 C991 1.349 . S
C1007 H999 0.950 . S
C1007 C1005 1.327 . S
C1008 C996 1.349 . S
C1008 H1002 0.950 . S
C1008 C1009 1.327 . S
C1009 H1003 0.950 . S
C1009 C1008 1.327 . S
C1009 C1013 1.429 . S
C1010 C993 1.574 . S
C1010 H1004 0.949 . S
C1010 C1014 1.368 . S
C1011 C992 1.429 . S
C1011 C1005 1.429 . S
C1011 C1012 1.523 . S
C1012 C993 1.368 . S
C1012 C1006 1.368 . S
C1012 C1011 1.523 . S
C1013 C997 1.429 . S
C1013 C1009 1.429 . S
C1013 C1014 1.523 . S
C1014 C998 1.368 . S
C1014 C1010 1.368 . S
C1014 C1013 1.523 . S
H1015 C990 0.950 . S
H1016 C992 0.950 . S
H1017 C993 0.949 . S
H1018 C995 0.950 . S
H1019 C997 0.950 . S
C1020 C1021 1.349 . S
C1020 C1022 1.327 . S
C1020 H1045 0.950 . S
C1021 C1020 1.349 . S
C1021 C1037 1.349 . S
C1022 C1020 1.327 . S
C1022 C1041 1.429 . S
C1022 H1046 0.950 . S
C1023 C1040 1.574 . S
C1023 C1042 1.368 . S
C1023 H1047 0.949 . S
H1024 C1028 0.949 . S
C1025 C1026 1.349 . S
C1025 C1027 1.327 . S
C1025 H1048 0.950 . S
C1026 C1025 1.349 . S
C1026 C1038 1.349 . S
C1027 C1025 1.327 . S
C1027 C1043 1.429 . S
C1027 H1049 0.950 . S
C1028 H1024 0.949 . S
C1028 C1036 1.574 . S
C1028 C1044 1.368 . S
H1029 C1037 0.950 . S
H1030 C1035 0.950 . S
H1031 C1036 0.949 . S
H1032 C1038 0.950 . S
H1033 C1039 0.950 . S
H1034 C1040 0.949 . S
C1035 H1030 0.950 . S
C1035 C1037 1.327 . S
C1035 C1041 1.429 . S
C1036 C1028 1.574 . S
C1036 H1031 0.949 . S
C1036 C1042 1.368 . S
C1037 C1021 1.349 . S
C1037 H1029 0.950 . S
C1037 C1035 1.327 . S
C1038 C1026 1.349 . S
C1038 H1032 0.950 . S
C1038 C1039 1.327 . S
C1039 H1033 0.950 . S
C1039 C1038 1.327 . S
C1039 C1043 1.429 . S
C1040 C1023 1.574 . S
C1040 H1034 0.949 . S
C1040 C1044 1.368 . S
C1041 C1022 1.429 . S
C1041 C1035 1.429 . S
C1041 C1042 1.523 . S
C1042 C1023 1.368 . S
C1042 C1036 1.368 . S
C1042 C1041 1.523 . S
C1043 C1027 1.429 . S
C1043 C1039 1.429 . S
C1043 C1044 1.523 . S
C1044 C1028 1.368 . S
C1044 C1040 1.368 . S
C1044 C1043 1.523 . S
H1045 C1020 0.950 . S
H1046 C1022 0.950 . S
H1047 C1023 0.949 . S
H1048 C1025 0.950 . S
H1049 C1027 0.950 . S
C1050 C1051 1.349 . S
C1050 C1052 1.327 . S
C1050 H1075 0.950 . S
C1051 C1050 1.349 . S
C1051 C1067 1.349 . S
C1052 C1050 1.327 . S
C1052 C1071 1.429 . S
C1052 H1076 0.950 . S
C1053 C1070 1.574 . S
C1053 C1072 1.368 . S
C1053 H1077 0.949 . S
H1054 C1058 0.949 . S
C1055 C1056 1.349 . S
C1055 C1057 1.327 . S
C1055 H1078 0.950 . S
C1056 C1055 1.349 . S
C1056 C1068 1.349 . S
C1057 C1055 1.327 . S
C1057 C1073 1.429 . S
C1057 H1079 0.950 . S
C1058 H1054 0.949 . S
C1058 C1066 1.574 . S
C1058 C1074 1.368 . S
H1059 C1067 0.950 . S
H1060 C1065 0.950 . S
H1061 C1066 0.949 . S
H1062 C1068 0.950 . S
H1063 C1069 0.950 . S
H1064 C1070 0.949 . S
C1065 H1060 0.950 . S
C1065 C1067 1.327 . S
C1065 C1071 1.429 . S
C1066 C1058 1.574 . S
C1066 H1061 0.949 . S
C1066 C1072 1.368 . S
C1067 C1051 1.349 . S
C1067 H1059 0.950 . S
C1067 C1065 1.327 . S
C1068 C1056 1.349 . S
C1068 H1062 0.950 . S
C1068 C1069 1.327 . S
C1069 H1063 0.950 . S
C1069 C1068 1.327 . S
C1069 C1073 1.429 . S
C1070 C1053 1.574 . S
C1070 H1064 0.949 . S
C1070 C1074 1.368 . S
C1071 C1052 1.429 . S
C1071 C1065 1.429 . S
C1071 C1072 1.523 . S
C1072 C1053 1.368 . S
C1072 C1066 1.368 . S
C1072 C1071 1.523 . S
C1073 C1057 1.429 . S
C1073 C1069 1.429 . S
C1073 C1074 1.523 . S
C1074 C1058 1.368 . S
C1074 C1070 1.368 . S
C1074 C1073 1.523 . S
H1075 C1050 0.950 . S
H1076 C1052 0.950 . S
H1077 C1053 0.949 . S
H1078 C1055 0.950 . S
H1079 C1057 0.950 . S
C1080 C1081 1.349 . S
C1080 C1082 1.327 . S
C1080 H1105 0.950 . S
C1081 C1080 1.349 . S
C1081 C1097 1.349 . S
C1082 C1080 1.327 . S
C1082 C1101 1.429 . S
C1082 H1106 0.950 . S
C1083 C1100 1.574 . S
C1083 C1102 1.368 . S
C1083 H1107 0.949 . S
H1084 C1088 0.949 . S
C1085 C1086 1.349 . S
C1085 C1087 1.327 . S
C1085 H1108 0.950 . S
C1086 C1085 1.349 . S
C1086 C1098 1.349 . S
C1087 C1085 1.327 . S
C1087 C1103 1.429 . S
C1087 H1109 0.950 . S
C1088 H1084 0.949 . S
C1088 C1096 1.574 . S
C1088 C1104 1.368 . S
H1089 C1097 0.950 . S
H1090 C1095 0.950 . S
H1091 C1096 0.949 . S
H1092 C1098 0.950 . S
H1093 C1099 0.950 . S
H1094 C1100 0.949 . S
C1095 H1090 0.950 . S
C1095 C1097 1.327 . S
C1095 C1101 1.429 . S
C1096 C1088 1.574 . S
C1096 H1091 0.949 . S
C1096 C1102 1.368 . S
C1097 C1081 1.349 . S
C1097 H1089 0.950 . S
C1097 C1095 1.327 . S
C1098 C1086 1.349 . S
C1098 H1092 0.950 . S
C1098 C1099 1.327 . S
C1099 H1093 0.950 . S
C1099 C1098 1.327 . S
C1099 C1103 1.429 . S
C1100 C1083 1.574 . S
C1100 H1094 0.949 . S
C1100 C1104 1.368 . S
C1101 C1082 1.429 . S
C1101 C1095 1.429 . S
C1101 C1102 1.523 . S
C1102 C1083 1.368 . S
C1102 C1096 1.368 . S
C1102 C1101 1.523 . S
C1103 C1087 1.429 . S
C1103 C1099 1.429 . S
C1103 C1104 1.523 . S
C1104 C1088 1.368 . S
C1104 C1100 1.368 . S
C1104 C1103 1.523 . S
H1105 C1080 0.950 . S
H1106 C1082 0.950 . S
H1107 C1083 0.949 . S
H1108 C1085 0.950 . S
H1109 C1087 0.950 . S
C1110 C1111 1.349 . S
C1110 C1112 1.327 . S
C1110 H1135 0.950 . S
C1111 C1110 1.349 . S
C1111 C1127 1.349 . S
C1112 C1110 1.327 . S
C1112 C1131 1.429 . S
C1112 H1136 0.950 . S
C1113 C1130 1.574 . S
C1113 C1132 1.368 . S
C1113 H1137 0.949 . S
H1114 C1118 0.949 . S
C1115 C1116 1.349 . S
C1115 C1117 1.327 . S
C1115 H1138 0.950 . S
C1116 C1115 1.349 . S
C1116 C1128 1.349 . S
C1117 C1115 1.327 . S
C1117 C1133 1.429 . S
C1117 H1139 0.950 . S
C1118 H1114 0.949 . S
C1118 C1126 1.574 . S
C1118 C1134 1.368 . S
H1119 C1127 0.950 . S
H1120 C1125 0.950 . S
H1121 C1126 0.949 . S
H1122 C1128 0.950 . S
H1123 C1129 0.950 . S
H1124 C1130 0.949 . S
C1125 H1120 0.950 . S
C1125 C1127 1.327 . S
C1125 C1131 1.429 . S
C1126 C1118 1.574 . S
C1126 H1121 0.949 . S
C1126 C1132 1.368 . S
C1127 C1111 1.349 . S
C1127 H1119 0.950 . S
C1127 C1125 1.327 . S
C1128 C1116 1.349 . S
C1128 H1122 0.950 . S
C1128 C1129 1.327 . S
C1129 H1123 0.950 . S
C1129 C1128 1.327 . S
C1129 C1133 1.429 . S
C1130 C1113 1.574 . S
C1130 H1124 0.949 . S
C1130 C1134 1.368 . S
C1131 C1112 1.429 . S
C1131 C1125 1.429 . S
C1131 C1132 1.523 . S
C1132 C1113 1.368 . S
C1132 C1126 1.368 . S
C1132 C1131 1.523 . S
C1133 C1117 1.429 . S
C1133 C1129 1.429 . S
C1133 C1134 1.523 . S
C1134 C1118 1.368 . S
C1134 C1130 1.368 . S
C1134 C1133 1.523 . S
H1135 C1110 0.950 . S
H1136 C1112 0.950 . S
H1137 C1113 0.949 . S
H1138 C1115 0.950 . S
H1139 C1117 0.950 . S
C1140 C1141 1.349 . S
C1140 C1142 1.327 . S
C1140 H1165 0.950 . S
C1141 C1140 1.349 . S
C1141 C1157 1.349 . S
C1142 C1140 1.327 . S
C1142 C1161 1.429 . S
C1142 H1166 0.950 . S
C1143 C1160 1.574 . S
C1143 C1162 1.368 . S
C1143 H1167 0.949 . S
H1144 C1148 0.949 . S
C1145 C1146 1.349 . S
C1145 C1147 1.327 . S
C1145 H1168 0.950 . S
C1146 C1145 1.349 . S
C1146 C1158 1.349 . S
C1147 C1145 1.327 . S
C1147 C1163 1.429 . S
C1147 H1169 0.950 . S
C1148 H1144 0.949 . S
C1148 C1156 1.574 . S
C1148 C1164 1.368 . S
H1149 C1157 0.950 . S
H1150 C1155 0.950 . S
H1151 C1156 0.949 . S
H1152 C1158 0.950 . S
H1153 C1159 0.950 . S
H1154 C1160 0.949 . S
C1155 H1150 0.950 . S
C1155 C1157 1.327 . S
C1155 C1161 1.429 . S
C1156 C1148 1.574 . S
C1156 H1151 0.949 . S
C1156 C1162 1.368 . S
C1157 C1141 1.349 . S
C1157 H1149 0.950 . S
C1157 C1155 1.327 . S
C1158 C1146 1.349 . S
C1158 H1152 0.950 . S
C1158 C1159 1.327 . S
C1159 H1153 0.950 . S
C1159 C1158 1.327 . S
C1159 C1163 1.429 . S
C1160 C1143 1.574 . S
C1160 H1154 0.949 . S
C1160 C1164 1.368 . S
C1161 C1142 1.429 . S
C1161 C1155 1.429 . S
C1161 C1162 1.523 . S
C1162 C1143 1.368 . S
C1162 C1156 1.368 . S
C1162 C1161 1.523 . S
C1163 C1147 1.429 . S
C1163 C1159 1.429 . S
C1163 C1164 1.523 . S
C1164 C1148 1.368 . S
C1164 C1160 1.368 . S
C1164 C1163 1.523 . S
H1165 C1140 0.950 . S
H1166 C1142 0.950 . S
H1167 C1143 0.949 . S
H1168 C1145 0.950 . S
H1169 C1147 0.950 . S
C1170 C1171 1.349 . S
C1170 C1172 1.327 . S
C1170 H1195 0.950 . S
C1171 C1170 1.349 . S
C1171 C1187 1.349 . S
C1172 C1170 1.327 . S
C1172 C1191 1.429 . S
C1172 H1196 0.950 . S
C1173 C1190 1.574 . S
C1173 C1192 1.368 . S
C1173 H1197 0.949 . S
H1174 C1178 0.949 . S
C1175 C1176 1.349 . S
C1175 C1177 1.327 . S
C1175 H1198 0.950 . S
C1176 C1175 1.349 . S
C1176 C1188 1.349 . S
C1177 C1175 1.327 . S
C1177 C1193 1.429 . S
C1177 H1199 0.950 . S
C1178 H1174 0.949 . S
C1178 C1186 1.574 . S
C1178 C1194 1.368 . S
H1179 C1187 0.950 . S
H1180 C1185 0.950 . S
H1181 C1186 0.949 . S
H1182 C1188 0.950 . S
H1183 C1189 0.950 . S
H1184 C1190 0.949 . S
C1185 H1180 0.950 . S
C1185 C1187 1.327 . S
C1185 C1191 1.429 . S
C1186 C1178 1.574 . S
C1186 H1181 0.949 . S
C1186 C1192 1.368 . S
C1187 C1171 1.349 . S
C1187 H1179 0.950 . S
C1187 C1185 1.327 . S
C1188 C1176 1.349 . S
C1188 H1182 0.950 . S
C1188 C1189 1.327 . S
C1189 H1183 0.950 . S
C1189 C1188 1.327 . S
C1189 C1193 1.429 . S
C1190 C1173 1.574 . S
C1190 H1184 0.949 . S
C1190 C1194 1.368 . S
C1191 C1172 1.429 . S
C1191 C1185 1.429 . S
C1191 C1192 1.523 . S
C1192 C1173 1.368 . S
C1192 C1186 1.368 . S
C1192 C1191 1.523 . S
C1193 C1177 1.429 . S
C1193 C1189 1.429 . S
C1193 C1194 1.523 . S
C1194 C1178 1.368 . S
C1194 C1190 1.368 . S
C1194 C1193 1.523 . S
H1195 C1170 0.950 . S
H1196 C1172 0.950 . S
H1197 C1173 0.949 . S
H1198 C1175 0.950 . S
H1199 C1177 0.950 . S
C1200 C1201 1.349 . S
C1200 C1202 1.327 . S
C1200 H1225 0.950 . S
C1201 C1200 1.349 . S
C1201 C1217 1.349 . S
C1202 C1200 1.327 . S
C1202 C1221 1.429 . S
C1202 H1226 0.950 . S
C1203 C1220 1.574 . S
C1203 C1222 1.368 . S
C1203 H1227 0.949 . S
H1204 C1208 0.949 . S
C1205 C1206 1.349 . S
C1205 C1207 1.327 . S
C1205 H1228 0.950 . S
C1206 C1205 1.349 . S
C1206 C1218 1.349 . S
C1207 C1205 1.327 . S
C1207 C1223 1.429 . S
C1207 H1229 0.950 . S
C1208 H1204 0.949 . S
C1208 C1216 1.574 . S
C1208 C1224 1.368 . S
H1209 C1217 0.950 . S
H1210 C1215 0.950 . S
H1211 C1216 0.949 . S
H1212 C1218 0.950 . S
H1213 C1219 0.950 . S
H1214 C1220 0.949 . S
C1215 H1210 0.950 . S
C1215 C1217 1.327 . S
C1215 C1221 1.429 . S
C1216 C1208 1.574 . S
C1216 H1211 0.949 . S
C1216 C1222 1.368 . S
C1217 C1201 1.349 . S
C1217 H1209 0.950 . S
C1217 C1215 1.327 . S
C1218 C1206 1.349 . S
C1218 H1212 0.950 . S
C1218 C1219 1.327 . S
C1219 H1213 0.950 . S
C1219 C1218 1.327 . S
C1219 C1223 1.429 . S
C1220 C1203 1.574 . S
C1220 H1214 0.949 . S
C1220 C1224 1.368 . S
C1221 C1202 1.429 . S
C1221 C1215 1.429 . S
C1221 C1222 1.523 . S
C1222 C1203 1.368 . S
C1222 C1216 1.368 . S
C1222 C1221 1.523 . S
C1223 C1207 1.429 . S
C1223 C1219 1.429 . S
C1223 C1224 1.523 . S
C1224 C1208 1.368 . S
C1224 C1220 1.368 . S
C1224 C1223 1.523 . S
H1225 C1200 0.950 . S
H1226 C1202 0.950 . S
H1227 C1203 0.949 . S
H1228 C1205 0.950 . S
H1229 C1207 0.950 . S
C1230 C1231 1.349 . S
C1230 C1232 1.327 . S
C1230 H1255 0.950 . S
C1231 C1230 1.349 . S
C1231 C1247 1.349 . S
C1232 C1230 1.327 . S
C1232 C1251 1.429 . S
C1232 H1256 0.950 . S
C1233 C1250 1.574 . S
C1233 C1252 1.368 . S
C1233 H1257 0.949 . S
H1234 C1238 0.949 . S
C1235 C1236 1.349 . S
C1235 C1237 1.327 . S
C1235 H1258 0.950 . S
C1236 C1235 1.349 . S
C1236 C1248 1.349 . S
C1237 C1235 1.327 . S
C1237 C1253 1.429 . S
C1237 H1259 0.950 . S
C1238 H1234 0.949 . S
C1238 C1246 1.574 . S
C1238 C1254 1.368 . S
H1239 C1247 0.950 . S
H1240 C1245 0.950 . S
H1241 C1246 0.949 . S
H1242 C1248 0.950 . S
H1243 C1249 0.950 . S
H1244 C1250 0.949 . S
C1245 H1240 0.950 . S
C1245 C1247 1.327 . S
C1245 C1251 1.429 . S
C1246 C1238 1.574 . S
C1246 H1241 0.949 . S
C1246 C1252 1.368 . S
C1247 C1231 1.349 . S
C1247 H1239 0.950 . S
C1247 C1245 1.327 . S
C1248 C1236 1.349 . S
C1248 H1242 0.950 . S
C1248 C1249 1.327 . S
C1249 H1243 0.950 . S
C1249 C1248 1.327 . S
C1249 C1253 1.429 . S
C1250 C1233 1.574 . S
C1250 H1244 0.949 . S
C1250 C1254 1.368 . S
C1251 C1232 1.429 . S
C1251 C1245 1.429 . S
C1251 C1252 1.523 . S
C1252 C1233 1.368 . S
C1252 C1246 1.368 . S
C1252 C1251 1.523 . S
C1253 C1237 1.429 . S
C1253 C1249 1.429 . S
C1253 C1254 1.523 . S
C1254 C1238 1.368 . S
C1254 C1250 1.368 . S
C1254 C1253 1.523 . S
H1255 C1230 0.950 . S
H1256 C1232 0.950 . S
H1257 C1233 0.949 . S
H1258 C1235 0.950 . S
H1259 C1237 0.950 . S
C1260 C1261 1.349 . S
C1260 C1262 1.327 . S
C1260 H1285 0.950 . S
C1261 C1260 1.349 . S
C1261 C1277 1.349 . S
C1262 C1260 1.327 . S
C1262 C1281 1.429 . S
C1262 H1286 0.950 . S
C1263 C1280 1.574 . S
C1263 C1282 1.368 . S
C1263 H1287 0.949 . S
H1264 C1268 0.949 . S
C1265 C1266 1.349 . S
C1265 C1267 1.327 . S
C1265 H1288 0.950 . S
C1266 C1265 1.349 . S
C1266 C1278 1.349 . S
C1267 C1265 1.327 . S
C1267 C1283 1.429 . S
C1267 H1289 0.950 . S
C1268 H1264 0.949 . S
C1268 C1276 1.574 . S
C1268 C1284 1.368 . S
H1269 C1277 0.950 . S
H1270 C1275 0.950 . S
H1271 C1276 0.949 . S
H1272 C1278 0.950 . S
H1273 C1279 0.950 . S
H1274 C1280 0.949 . S
C1275 H1270 0.950 . S
C1275 C1277 1.327 . S
C1275 C1281 1.429 . S
C1276 C1268 1.574 . S
C1276 H1271 0.949 . S
C1276 C1282 1.368 . S
C1277 C1261 1.349 . S
C1277 H1269 0.950 . S
C1277 C1275 1.327 . S
C1278 C1266 1.349 . S
C1278 H1272 0.950 . S
C1278 C1279 1.327 . S
C1279 H1273 0.950 . S
C1279 C1278 1.327 . S
C1279 C1283 1.429 . S
C1280 C1263 1.574 . S
C1280 H1274 0.949 . S
C1280 C1284 1.368 . S
C1281 C1262 1.429 . S
C1281 C1275 1.429 . S
C1281 C1282 1.523 . S
C1282 C1263 1.368 . S
C1282 C1276 1.368 . S
C1282 C1281 1.523 . S
C1283 C1267 1.429 . S
C1283 C1279 1.429 . S
C1283 C1284 1.523 . S
C1284 C1268 1.368 . S
C1284 C1280 1.368 . S
C1284 C1283 1.523 . S
H1285 C1260 0.950 . S
H1286 C1262 0.950 . S
H1287 C1263 0.949 . S
H1288 C1265 0.950 . S
H1289 C1267 0.950 . S
C1290 C1291 1.349 . S
C1290 C1292 1.327 . S
C1290 H1315 0.950 . S
C1291 C1290 1.349 . S
C1291 C1307 1.349 . S
C1292 C1290 1.327 . S
C1292 C1311 1.429 . S
C1292 H1316 0.950 . S
C1293 C1310 1.574 . S
C1293 C1312 1.368 . S
C1293 H1317 0.949 . S
H1294 C1298 0.949 . S
C1295 C1296 1.349 . S
C1295 C1297 1.327 . S
C1295 H1318 0.950 . S
C1296 C1295 1.349 . S
C1296 C1308 1.349 . S
C1297 C1295 1.327 . S
C1297 C1313 1.429 . S
C1297 H1319 0.950 . S
C1298 H1294 0.949 . S
C1298 C1306 1.574 . S
C1298 C1314 1.368 . S
H1299 C1307 0.950 . S
H1300 C1305 0.950 . S
H1301 C1306 0.949 . S
H1302 C1308 0.950 . S
H1303 C1309 0.950 . S
H1304 C1310 0.949 . S
C1305 H1300 0.950 . S
C1305 C1307 1.327 . S
C1305 C1311 1.429 . S
C1306 C1298 1.574 . S
C1306 H1301 0.949 . S
C1306 C1312 1.368 . S
C1307 C1291 1.349 . S
C1307 H1299 0.950 . S
C1307 C1305 1.327 . S
C1308 C1296 1.349 . S
C1308 H1302 0.950 . S
C1308 C1309 1.327 . S
C1309 H1303 0.950 . S
C1309 C1308 1.327 . S
C1309 C1313 1.429 . S
C1310 C1293 1.574 . S
C1310 H1304 0.949 . S
C1310 C1314 1.368 . S
C1311 C1292 1.429 . S
C1311 C1305 1.429 . S
C1311 C1312 1.523 . S
C1312 C1293 1.368 . S
C1312 C1306 1.368 . S
C1312 C1311 1.523 . S
C1313 C1297 1.429 . S
C1313 C1309 1.429 . S
C1313 C1314 1.523 . S
C1314 C1298 1.368 . S
C1314 C1310 1.368 . S
C1314 C1313 1.523 . S
H1315 C1290 0.950 . S
H1316 C1292 0.950 . S
H1317 C1293 0.949 . S
H1318 C1295 0.950 . S
H1319 C1297 0.950 . S
C1320 C1321 1.349 . S
C1320 C1322 1.327 . S
C1320 H1345 0.950 . S
C1321 C1320 1.349 . S
C1321 C1337 1.349 . S
C1322 C1320 1.327 . S
C1322 C1341 1.429 . S
C1322 H1346 0.950 . S
C1323 C1340 1.574 . S
C1323 C1342 1.368 . S
C1323 H1347 0.949 . S
H1324 C1328 0.949 . S
C1325 C1326 1.349 . S
C1325 C1327 1.327 . S
C1325 H1348 0.950 . S
C1326 C1325 1.349 . S
C1326 C1338 1.349 . S
C1327 C1325 1.327 . S
C1327 C1343 1.429 . S
C1327 H1349 0.950 . S
C1328 H1324 0.949 . S
C1328 C1336 1.574 . S
C1328 C1344 1.368 . S
H1329 C1337 0.950 . S
H1330 C1335 0.950 . S
H1331 C1336 0.949 . S
H1332 C1338 0.950 . S
H1333 C1339 0.950 . S
H1334 C1340 0.949 . S
C1335 H1330 0.950 . S
C1335 C1337 1.327 . S
C1335 C1341 1.429 . S
C1336 C1328 1.574 . S
C1336 H1331 0.949 . S
C1336 C1342 1.368 . S
C1337 C1321 1.349 . S
C1337 H1329 0.950 . S
C1337 C1335 1.327 . S
C1338 C1326 1.349 . S
C1338 H1332 0.950 . S
C1338 C1339 1.327 . S
C1339 H1333 0.950 . S
C1339 C1338 1.327 . S
C1339 C1343 1.429 . S
C1340 C1323 1.574 . S
C1340 H1334 0.949 . S
C1340 C1344 1.368 . S
C1341 C1322 1.429 . S
C1341 C1335 1.429 . S
C1341 C1342 1.523 . S
C1342 C1323 1.368 . S
C1342 C1336 1.368 . S
C1342 C1341 1.523 . S
C1343 C1327 1.429 . S
C1343 C1339 1.429 . S
C1343 C1344 1.523 . S
C1344 C1328 1.368 . S
C1344 C1340 1.368 . S
C1344 C1343 1.523 . S
H1345 C1320 0.950 . S
H1346 C1322 0.950 . S
H1347 C1323 0.949 . S
H1348 C1325 0.950 . S
H1349 C1327 0.950 . S
C1350 C1351 1.349 . S
C1350 C1352 1.327 . S
C1350 H1375 0.950 . S
C1351 C1350 1.349 . S
C1351 C1367 1.349 . S
C1352 C1350 1.327 . S
C1352 C1371 1.429 . S
C1352 H1376 0.950 . S
C1353 C1370 1.574 . S
C1353 C1372 1.368 . S
C1353 H1377 0.949 . S
H1354 C1358 0.949 . S
C1355 C1356 1.349 . S
C1355 C1357 1.327 . S
C1355 H1378 0.950 . S
C1356 C1355 1.349 . S
C1356 C1368 1.349 . S
C1357 C1355 1.327 . S
C1357 C1373 1.429 . S
C1357 H1379 0.950 . S
C1358 H1354 0.949 . S
C1358 C1366 1.574 . S
C1358 C1374 1.368 . S
H1359 C1367 0.950 . S
H1360 C1365 0.950 . S
H1361 C1366 0.949 . S
H1362 C1368 0.950 . S
H1363 C1369 0.950 . S
H1364 C1370 0.949 . S
C1365 H1360 0.950 . S
C1365 C1367 1.327 . S
C1365 C1371 1.429 . S
C1366 C1358 1.574 . S
C1366 H1361 0.949 . S
C1366 C1372 1.368 . S
C1367 C1351 1.349 . S
C1367 H1359 0.950 . S
C1367 C1365 1.327 . S
C1368 C1356 1.349 . S
C1368 H1362 0.950 . S
C1368 C1369 1.327 . S
C1369 H1363 0.950 . S
C1369 C1368 1.327 . S
C1369 C1373 1.429 . S
C1370 C1353 1.574 . S
C1370 H1364 0.949 . S
C1370 C1374 1.368 . S
C1371 C1352 1.429 . S
C1371 C1365 1.429 . S
C1371 C1372 1.523 . S
C1372 C1353 1.368 . S
C1372 C1366 1.368 . S
C1372 C1371 1.523 . S
C1373 C1357 1.429 . S
C1373 C1369 1.429 . S
C1373 C1374 1.523 . S
C1374 C1358 1.368 . S
C1374 C1370 1.368 . S
C1374 C1373 1.523 . S
H1375 C1350 0.950 . S
H1376 C1352 0.950 . S
H1377 C1353 0.949 . S
H1378 C1355 0.950 . S
H1379 C1357 0.950 . S
C1380 C1381 1.349 . S
C1380 C1382 1.327 . S
C1380 H1405 0.950 . S
C1381 C1380 1.349 . S
C1381 C1397 1.349 . S
C1382 C1380 1.327 . S
C1382 C1401 1.429 . S
C1382 H1406 0.950 . S
C1383 C1400 1.574 . S
C1383 C1402 1.368 1_554 S
C1383 H1407 0.949 . S
H1384 C1388 0.949 . S
C1385 C1386 1.349 . S
C1385 C1387 1.327 . S
C1385 H1408 0.950 . S
C1386 C1385 1.349 . S
C1386 C1398 1.349 . S
C1387 C1385 1.327 . S
C1387 C1403 1.429 . S
C1387 H1409 0.950 . S
C1388 H1384 0.949 . S
C1388 C1396 1.574 . S
C1388 C1404 1.368 1_556 S
H1389 C1397 0.950 . S
H1390 C1395 0.950 . S
H1391 C1396 0.949 . S
H1392 C1398 0.950 . S
H1393 C1399 0.950 . S
H1394 C1400 0.949 . S
C1395 H1390 0.950 . S
C1395 C1397 1.327 . S
C1395 C1401 1.429 . S
C1396 C1388 1.574 . S
C1396 H1391 0.949 . S
C1396 C1402 1.368 . S
C1397 C1381 1.349 . S
C1397 H1389 0.950 . S
C1397 C1395 1.327 . S
C1398 C1386 1.349 . S
C1398 H1392 0.950 . S
C1398 C1399 1.327 . S
C1399 H1393 0.950 . S
C1399 C1398 1.327 . S
C1399 C1403 1.429 . S
C1400 C1383 1.574 . S
C1400 H1394 0.949 . S
C1400 C1404 1.368 . S
C1401 C1382 1.429 . S
C1401 C1395 1.429 . S
C1401 C1402 1.523 . S
C1402 C1383 1.368 1_556 S
C1402 C1396 1.368 . S
C1402 C1401 1.523 . S
C1403 C1387 1.429 . S
C1403 C1399 1.429 . S
C1403 C1404 1.523 . S
C1404 C1388 1.368 1_554 S
C1404 C1400 1.368 . S
C1404 C1403 1.523 . S
H1405 C1380 0.950 . S
H1406 C1382 0.950 . S
H1407 C1383 0.949 . S
H1408 C1385 0.950 . S
H1409 C1387 0.950 . S
C1410 C1411 1.349 . S
C1410 C1412 1.327 . S
C1410 H1435 0.950 . S
C1411 C1410 1.349 . S
C1411 C1427 1.349 . S
C1412 C1410 1.327 . S
C1412 C1431 1.429 . S
C1412 H1436 0.950 . S
C1413 C1430 1.574 . S
C1413 C1432 1.368 1_655 S
C1413 H1437 0.949 . S
H1414 C1418 0.949 . S
C1415 C1416 1.349 . S
C1415 C1417 1.327 . S
C1415 H1438 0.950 . S
C1416 C1415 1.349 . S
C1416 C1428 1.349 . S
C1417 C1415 1.327 . S
C1417 C1433 1.429 . S
C1417 H1439 0.950 . S
C1418 H1414 0.949 . S
C1418 C1426 1.574 . S
C1418 C1434 1.368 1_455 S
H1419 C1427 0.950 . S
H1420 C1425 0.950 . S
H1421 C1426 0.949 . S
H1422 C1428 0.950 . S
H1423 C1429 0.950 . S
H1424 C1430 0.949 . S
C1425 H1420 0.950 . S
C1425 C1427 1.327 . S
C1425 C1431 1.429 . S
C1426 C1418 1.574 . S
C1426 H1421 0.949 . S
C1426 C1432 1.368 . S
C1427 C1411 1.349 . S
C1427 H1419 0.950 . S
C1427 C1425 1.327 . S
C1428 C1416 1.349 . S
C1428 H1422 0.950 . S
C1428 C1429 1.327 . S
C1429 H1423 0.950 . S
C1429 C1428 1.327 . S
C1429 C1433 1.429 . S
C1430 C1413 1.574 . S
C1430 H1424 0.949 . S
C1430 C1434 1.368 . S
C1431 C1412 1.429 . S
C1431 C1425 1.429 . S
C1431 C1432 1.523 . S
C1432 C1413 1.368 1_455 S
C1432 C1426 1.368 . S
C1432 C1431 1.523 . S
C1433 C1417 1.429 . S
C1433 C1429 1.429 . S
C1433 C1434 1.523 . S
C1434 C1418 1.368 1_655 S
C1434 C1430 1.368 . S
C1434 C1433 1.523 . S
H1435 C1410 0.950 . S
H1436 C1412 0.950 . S
H1437 C1413 0.949 . S
H1438 C1415 0.950 . S
H1439 C1417 0.950 . S
C1440 C1441 1.349 . S
C1440 C1442 1.327 . S
C1440 H1465 0.950 . S
C1441 C1440 1.349 . S
C1441 C1457 1.349 . S
C1442 C1440 1.327 . S
C1442 C1461 1.429 . S
C1442 H1466 0.950 . S
C1443 C1460 1.574 . S
C1443 C1462 1.368 1_556 S
C1443 H1467 0.949 . S
H1444 C1448 0.949 . S
C1445 C1446 1.349 . S
C1445 C1447 1.327 . S
C1445 H1468 0.950 . S
C1446 C1445 1.349 . S
C1446 C1458 1.349 . S
C1447 C1445 1.327 . S
C1447 C1463 1.429 . S
C1447 H1469 0.950 . S
C1448 H1444 0.949 . S
C1448 C1456 1.574 . S
C1448 C1464 1.368 1_554 S
H1449 C1457 0.950 . S
H1450 C1455 0.950 . S
H1451 C1456 0.949 . S
H1452 C1458 0.950 . S
H1453 C1459 0.950 . S
H1454 C1460 0.949 . S
C1455 H1450 0.950 . S
C1455 C1457 1.327 . S
C1455 C1461 1.429 . S
C1456 C1448 1.574 . S
C1456 H1451 0.949 . S
C1456 C1462 1.368 1_545 S
C1457 C1441 1.349 . S
C1457 H1449 0.950 . S
C1457 C1455 1.327 . S
C1458 C1446 1.349 . S
C1458 H1452 0.950 . S
C1458 C1459 1.327 . S
C1459 H1453 0.950 . S
C1459 C1458 1.327 . S
C1459 C1463 1.429 . S
C1460 C1443 1.574 . S
C1460 H1454 0.949 . S
C1460 C1464 1.368 1_565 S
C1461 C1442 1.429 . S
C1461 C1455 1.429 . S
C1461 C1462 1.523 . S
C1462 C1443 1.368 1_554 S
C1462 C1456 1.368 1_565 S
C1462 C1461 1.523 . S
C1463 C1447 1.429 . S
C1463 C1459 1.429 . S
C1463 C1464 1.523 . S
C1464 C1448 1.368 1_556 S
C1464 C1460 1.368 1_545 S
C1464 C1463 1.523 . S
H1465 C1440 0.950 . S
H1466 C1442 0.950 . S
H1467 C1443 0.949 . S
H1468 C1445 0.950 . S
H1469 C1447 0.950 . S
C1470 C1471 1.349 . S
C1470 C1472 1.327 . S
C1470 H1495 0.950 . S
C1471 C1470 1.349 . S
C1471 C1487 1.349 . S
C1472 C1470 1.327 . S
C1472 C1491 1.429 . S
C1472 H1496 0.950 . S
C1473 C1490 1.574 . S
C1473 C1492 1.368 . S
C1473 H1497 0.949 . S
H1474 C1478 0.949 . S
C1475 C1476 1.349 . S
C1475 C1477 1.327 . S
C1475 H1498 0.950 . S
C1476 C1475 1.349 . S
C1476 C1488 1.349 . S
C1477 C1475 1.327 . S
C1477 C1493 1.429 . S
C1477 H1499 0.950 . S
C1478 H1474 0.949 . S
C1478 C1486 1.574 . S
C1478 C1494 1.368 . S
H1479 C1487 0.950 . S
H1480 C1485 0.950 . S
H1481 C1486 0.949 . S
H1482 C1488 0.950 . S
H1483 C1489 0.950 . S
H1484 C1490 0.949 . S
C1485 H1480 0.950 . S
C1485 C1487 1.327 . S
C1485 C1491 1.429 . S
C1486 C1478 1.574 . S
C1486 H1481 0.949 . S
C1486 C1492 1.368 . S
C1487 C1471 1.349 . S
C1487 H1479 0.950 . S
C1487 C1485 1.327 . S
C1488 C1476 1.349 . S
C1488 H1482 0.950 . S
C1488 C1489 1.327 . S
C1489 H1483 0.950 . S
C1489 C1488 1.327 . S
C1489 C1493 1.429 . S
C1490 C1473 1.574 . S
C1490 H1484 0.949 . S
C1490 C1494 1.368 . S
C1491 C1472 1.429 . S
C1491 C1485 1.429 . S
C1491 C1492 1.523 . S
C1492 C1473 1.368 . S
C1492 C1486 1.368 . S
C1492 C1491 1.523 . S
C1493 C1477 1.429 . S
C1493 C1489 1.429 . S
C1493 C1494 1.523 . S
C1494 C1478 1.368 . S
C1494 C1490 1.368 . S
C1494 C1493 1.523 . S
H1495 C1470 0.950 . S
H1496 C1472 0.950 . S
H1497 C1473 0.949 . S
H1498 C1475 0.950 . S
H1499 C1477 0.950 . S
C1500 C1501 1.349 . S
C1500 C1502 1.327 . S
C1500 H1525 0.950 . S
C1501 C1500 1.349 . S
C1501 C1517 1.349 . S
C1502 C1500 1.327 . S
C1502 C1521 1.429 . S
C1502 H1526 0.950 . S
C1503 C1520 1.574 . S
C1503 C1522 1.368 1_455 S
C1503 H1527 0.949 . S
H1504 C1508 0.949 . S
C1505 C1506 1.349 . S
C1505 C1507 1.327 . S
C1505 H1528 0.950 . S
C1506 C1505 1.349 . S
C1506 C1518 1.349 . S
C1507 C1505 1.327 . S
C1507 C1523 1.429 . S
C1507 H1529 0.950 . S
C1508 H1504 0.949 . S
C1508 C1516 1.574 . S
C1508 C1524 1.368 1_655 S
H1509 C1517 0.950 . S
H1510 C1515 0.950 . S
H1511 C1516 0.949 . S
H1512 C1518 0.950 . S
H1513 C1519 0.950 . S
H1514 C1520 0.949 . S
C1515 H1510 0.950 . S
C1515 C1517 1.327 . S
C1515 C1521 1.429 . S
C1516 C1508 1.574 . S
C1516 H1511 0.949 . S
C1516 C1522 1.368 1_554 S
C1517 C1501 1.349 . S
C1517 H1509 0.950 . S
C1517 C1515 1.327 . S
C1518 C1506 1.349 . S
C1518 H1512 0.950 . S
C1518 C1519 1.327 . S
C1519 H1513 0.950 . S
C1519 C1518 1.327 . S
C1519 C1523 1.429 . S
C1520 C1503 1.574 . S
C1520 H1514 0.949 . S
C1520 C1524 1.368 1_556 S
C1521 C1502 1.429 . S
C1521 C1515 1.429 . S
C1521 C1522 1.523 . S
C1522 C1503 1.368 1_655 S
C1522 C1516 1.368 1_556 S
C1522 C1521 1.523 . S
C1523 C1507 1.429 . S
C1523 C1519 1.429 . S
C1523 C1524 1.523 . S
C1524 C1508 1.368 1_455 S
C1524 C1520 1.368 1_554 S
C1524 C1523 1.523 . S
H1525 C1500 0.950 . S
H1526 C1502 0.950 . S
H1527 C1503 0.949 . S
H1528 C1505 0.950 . S
H1529 C1507 0.950 . S
C1530 C1531 1.349 . S
C1530 C1532 1.327 . S
C1530 H1555 0.950 . S
C1531 C1530 1.349 . S
C1531 C1547 1.349 . S
C1532 C1530 1.327 . S
C1532 C1551 1.429 . S
C1532 H1556 0.950 . S
C1533 C1550 1.574 . S
C1533 C1552 1.368 . S
C1533 H1557 0.949 . S
H1534 C1538 0.949 . S
C1535 C1536 1.349 . S
C1535 C1537 1.327 . S
C1535 H1558 0.950 . S
C1536 C1535 1.349 . S
C1536 C1548 1.349 . S
C1537 C1535 1.327 . S
C1537 C1553 1.429 . S
C1537 H1559 0.950 . S
C1538 H1534 0.949 . S
C1538 C1546 1.574 . S
C1538 C1554 1.368 . S
H1539 C1547 0.950 . S
H1540 C1545 0.950 . S
H1541 C1546 0.949 . S
H1542 C1548 0.950 . S
H1543 C1549 0.950 . S
H1544 C1550 0.949 . S
C1545 H1540 0.950 . S
C1545 C1547 1.327 . S
C1545 C1551 1.429 . S
C1546 C1538 1.574 . S
C1546 H1541 0.949 . S
C1546 C1552 1.368 1_545 S
C1547 C1531 1.349 . S
C1547 H1539 0.950 . S
C1547 C1545 1.327 . S
C1548 C1536 1.349 . S
C1548 H1542 0.950 . S
C1548 C1549 1.327 . S
C1549 H1543 0.950 . S
C1549 C1548 1.327 . S
C1549 C1553 1.429 . S
C1550 C1533 1.574 . S
C1550 H1544 0.949 . S
C1550 C1554 1.368 1_565 S
C1551 C1532 1.429 . S
C1551 C1545 1.429 . S
C1551 C1552 1.523 . S
C1552 C1533 1.368 . S
C1552 C1546 1.368 1_565 S
C1552 C1551 1.523 . S
C1553 C1537 1.429 . S
C1553 C1549 1.429 . S
C1553 C1554 1.523 . S
C1554 C1538 1.368 . S
C1554 C1550 1.368 1_545 S
C1554 C1553 1.523 . S
H1555 C1530 0.950 . S
H1556 C1532 0.950 . S
H1557 C1533 0.949 . S
H1558 C1535 0.950 . S
H1559 C1537 0.950 . S
C481 C179 1.207 . S
C486 C15 1.239 . S
C511 C219 1.207 . S
C516 C55 1.239 . S
C541 C95 1.239 . S
C546 C19 1.207 . S
C571 C135 1.239 . S
C576 C59 1.207 . S
C601 C175 1.239 . S
C606 C99 1.207 . S
C631 C139 1.207 . S
C636 C215 1.239 . S
C661 C339 1.207 . S
C666 C255 1.239 . S
C691 C295 1.239 . S
C696 C379 1.207 . S
C721 C419 1.207 . S
C726 C335 1.239 . S
C751 C375 1.239 . S
C756 C459 1.207 . S
C781 C415 1.239 . S
C786 C259 1.207 . S
C811 C299 1.207 . S
C816 C455 1.239 . S
C841 C170 1.759 . S
C846 C6 1.759 . S
C871 C46 1.759 . S
C876 C210 1.759 . S
C901 C86 1.759 . S
C906 C10 1.759 . S
C931 C126 1.759 . S
C936 C50 1.759 . S
C961 C90 1.759 . S
C966 C166 1.759 . S
C991 C130 1.759 . S
C996 C206 1.759 . S
C1021 C330 1.759 . S
C1026 C246 1.759 . S
C1051 C286 1.759 . S
C1056 C370 1.759 . S
C1081 C326 1.759 . S
C1086 C410 1.759 . S
C1111 C450 1.759 . S
C1116 C366 1.759 . S
C1141 C406 1.759 . S
C1146 C250 1.759 . S
C1171 C290 1.759 . S
C1176 C446 1.759 . S
C1201 C418 1.647 . S
C1206 C18 1.647 . S
C1231 C58 1.647 . S
C1236 C458 1.647 . S
C1261 C98 1.647 . S
C1266 C258 1.647 . S
C1291 C138 1.647 . S
C1296 C298 1.647 . S
C1321 C178 1.647 . S
C1326 C338 1.647 . S
C1351 C378 1.647 . S
C1356 C218 1.647 . S
C1381 C369 2.152 . S
C1386 C9 2.152 . S
C1411 C409 2.152 . S
C1416 C49 2.152 . S
C1441 C89 2.152 . S
C1446 C449 2.152 . S
C1471 C129 2.152 . S
C1476 C249 2.152 . S
C1501 C289 2.152 . S
C1506 C169 2.152 . S
C1531 C329 2.152 . S
C1536 C209 2.152 . S
