# Generated by pormake.
# Topology uob, (4)-cn, num edge types: 1
# Building blocks:
#     Node 0, Type 0, BuildingBlock: QUQFOY_clean_sbu_1, # of connection points: 4
#     Node 1, Type 0, BuildingBlock: QUQFOY_clean_sbu_1, # of connection points: 4
#     Node 2, Type 0, BuildingBlock: QUQFOY_clean_sbu_1, # of connection points: 4
#     Node 3, Type 0, BuildingBlock: QUQFOY_clean_sbu_1, # of connection points: 4
#     Node 4, Type 0, BuildingBlock: QUQFOY_clean_sbu_1, # of connection points: 4
#     Node 5, Type 0, BuildingBlock: QUQFOY_clean_sbu_1, # of connection points: 4
#     Node 6, Type 0, BuildingBlock: QUQFOY_clean_sbu_1, # of connection points: 4
#     Node 7, Type 0, BuildingBlock: QUQFOY_clean_sbu_1, # of connection points: 4
#     Node 8, Type 0, BuildingBlock: QUQFOY_clean_sbu_1, # of connection points: 4
#     Node 9, Type 0, BuildingBlock: QUQFOY_clean_sbu_1, # of connection points: 4
#     Node 10, Type 0, BuildingBlock: QUQFOY_clean_sbu_1, # of connection points: 4
#     Node 11, Type 0, BuildingBlock: QUQFOY_clean_sbu_1, # of connection points: 4
#     Node 12, Type 0, BuildingBlock: QUQFOY_clean_sbu_1, # of connection points: 4
#     Node 13, Type 0, BuildingBlock: QUQFOY_clean_sbu_1, # of connection points: 4
#     Node 14, Type 0, BuildingBlock: QUQFOY_clean_sbu_1, # of connection points: 4
#     Node 15, Type 0, BuildingBlock: QUQFOY_clean_sbu_1, # of connection points: 4
#     Edge 16, Type (0, 0), BuildingBlock: ZUJKAS_clean_linker_0, # of connection points: 2
#     Edge 17, Type (0, 0), BuildingBlock: ZUJKAS_clean_linker_0, # of connection points: 2
#     Edge 18, Type (0, 0), BuildingBlock: ZUJKAS_clean_linker_0, # of connection points: 2
#     Edge 19, Type (0, 0), BuildingBlock: ZUJKAS_clean_linker_0, # of connection points: 2
#     Edge 20, Type (0, 0), BuildingBlock: ZUJKAS_clean_linker_0, # of connection points: 2
#     Edge 21, Type (0, 0), BuildingBlock: ZUJKAS_clean_linker_0, # of connection points: 2
#     Edge 22, Type (0, 0), BuildingBlock: ZUJKAS_clean_linker_0, # of connection points: 2
#     Edge 23, Type (0, 0), BuildingBlock: ZUJKAS_clean_linker_0, # of connection points: 2
#     Edge 24, Type (0, 0), BuildingBlock: ZUJKAS_clean_linker_0, # of connection points: 2
#     Edge 25, Type (0, 0), BuildingBlock: ZUJKAS_clean_linker_0, # of connection points: 2
#     Edge 26, Type (0, 0), BuildingBlock: ZUJKAS_clean_linker_0, # of connection points: 2
#     Edge 27, Type (0, 0), BuildingBlock: ZUJKAS_clean_linker_0, # of connection points: 2
#     Edge 28, Type (0, 0), BuildingBlock: ZUJKAS_clean_linker_0, # of connection points: 2
#     Edge 29, Type (0, 0), BuildingBlock: ZUJKAS_clean_linker_0, # of connection points: 2
#     Edge 30, Type (0, 0), BuildingBlock: ZUJKAS_clean_linker_0, # of connection points: 2
#     Edge 31, Type (0, 0), BuildingBlock: ZUJKAS_clean_linker_0, # of connection points: 2
#     Edge 32, Type (0, 0), BuildingBlock: ZUJKAS_clean_linker_0, # of connection points: 2
#     Edge 33, Type (0, 0), BuildingBlock: ZUJKAS_clean_linker_0, # of connection points: 2
#     Edge 34, Type (0, 0), BuildingBlock: ZUJKAS_clean_linker_0, # of connection points: 2
#     Edge 35, Type (0, 0), BuildingBlock: ZUJKAS_clean_linker_0, # of connection points: 2
#     Edge 36, Type (0, 0), BuildingBlock: ZUJKAS_clean_linker_0, # of connection points: 2
#     Edge 37, Type (0, 0), BuildingBlock: ZUJKAS_clean_linker_0, # of connection points: 2
#     Edge 38, Type (0, 0), BuildingBlock: ZUJKAS_clean_linker_0, # of connection points: 2
#     Edge 39, Type (0, 0), BuildingBlock: ZUJKAS_clean_linker_0, # of connection points: 2
#     Edge 40, Type (0, 0), BuildingBlock: ZUJKAS_clean_linker_0, # of connection points: 2
#     Edge 41, Type (0, 0), BuildingBlock: ZUJKAS_clean_linker_0, # of connection points: 2
#     Edge 42, Type (0, 0), BuildingBlock: ZUJKAS_clean_linker_0, # of connection points: 2
#     Edge 43, Type (0, 0), BuildingBlock: ZUJKAS_clean_linker_0, # of connection points: 2
#     Edge 44, Type (0, 0), BuildingBlock: ZUJKAS_clean_linker_0, # of connection points: 2
#     Edge 45, Type (0, 0), BuildingBlock: ZUJKAS_clean_linker_0, # of connection points: 2
#     Edge 46, Type (0, 0), BuildingBlock: ZUJKAS_clean_linker_0, # of connection points: 2
#     Edge 47, Type (0, 0), BuildingBlock: ZUJKAS_clean_linker_0, # of connection points: 2
# Relax obj value: 0.052
# Max RMSD: 0.120
# Mean RMSD: 0.120
data_MOF--net-uob--node1-QUQFOY_clean_sbu_1--edge1-ZUJKAS_clean_linker_0
_symmetry_space_group_name_H-M    P1
_symmetry_Int_Tables_number       1
_symmetry_cell_setting            triclinic
loop_
_symmetry_equiv_pos_as_xyz
'x, y, z'
_cell_length_a     72.048071
_cell_length_b     71.954032
_cell_length_c     36.597363
_cell_angle_alpha  90.008568
_cell_angle_beta   90.065376
_cell_angle_gamma 90.101843
loop_
_atom_site_label
_atom_site_type_symbol
_atom_site_fract_x
_atom_site_fract_y
_atom_site_fract_z
_atom_type_partial_charge
O0 O 0.13681 0.07147 0.35477 0.0
Cd1 Cd 0.13752 0.05001 0.31809 0.0
Cd2 Cd 0.12124 0.08023 0.27504 0.0
O3 O 0.12775 0.09545 0.32144 0.0
O4 O 0.15247 0.03123 0.34567 0.0
O5 O 0.16295 0.04567 0.29658 0.0
C6 C 0.1661 0.03481 0.32402 0.0
C7 C 0.12415 0.09373 0.21692 0.0
C8 C 0.13346 0.0887 0.3515 0.0
C9 C 0.09849 0.04496 0.29013 0.0
O10 O 0.09959 0.06153 0.27827 0.0
O11 O 0.1124 0.03716 0.30521 0.0
O12 O 0.11159 0.09901 0.23965 0.0
O13 O 0.13576 0.08122 0.22776 0.0
O14 O 0.94669 0.63285 0.62119 0.0
Cd15 Cd 0.96582 0.63572 0.58018 0.0
Cd16 Cd 0.93545 0.62265 0.54084 0.0
O17 O 0.92129 0.62986 0.58797 0.0
O18 O 0.98511 0.65183 0.60353 0.0
O19 O 0.96686 0.66152 0.55883 0.0
C20 C 0.97913 0.66532 0.58355 0.0
C21 C 0.92249 0.62793 0.48297 0.0
C22 C 0.92912 0.63217 0.61881 0.0
C23 C 0.96922 0.59761 0.54992 0.0
O24 O 0.95203 0.59929 0.54271 0.0
O25 O 0.97844 0.61146 0.56191 0.0
O26 O 0.9159 0.6155 0.50473 0.0
O27 O 0.93601 0.63813 0.49478 0.0
O28 O 0.37347 0.44026 0.85169 0.0
Cd29 Cd 0.37182 0.46397 0.82091 0.0
Cd30 Cd 0.38817 0.43546 0.76992 0.0
O31 O 0.38351 0.41825 0.81442 0.0
O32 O 0.35802 0.48047 0.85552 0.0
O33 O 0.34598 0.47066 0.80355 0.0
C34 C 0.34381 0.47922 0.83429 0.0
C35 C 0.38649 0.42293 0.71074 0.0
C36 C 0.37772 0.42342 0.84563 0.0
C37 C 0.40996 0.47117 0.79063 0.0
O38 O 0.40855 0.45551 0.77476 0.0
O39 O 0.39661 0.47768 0.80948 0.0
O40 O 0.40005 0.41921 0.7324 0.0
O41 O 0.37322 0.4332 0.72306 0.0
O42 O 0.56839 0.87471 0.11117 0.0
Cd43 Cd 0.54854 0.87437 0.07086 0.0
Cd44 Cd 0.58033 0.88985 0.0348 0.0
O45 O 0.59419 0.88158 0.08149 0.0
O46 O 0.52869 0.86002 0.09663 0.0
O47 O 0.54404 0.84885 0.04938 0.0
C48 C 0.53252 0.84608 0.07588 0.0
C49 C 0.59355 0.88646 0.97668 0.0
C50 C 0.5859 0.87667 0.11056 0.0
C51 C 0.54605 0.91399 0.04601 0.0
O52 O 0.56331 0.9127 0.03932 0.0
O53 O 0.53675 0.8997 0.0556 0.0
O54 O 0.59992 0.8983 0.99998 0.0
O55 O 0.58011 0.87578 0.98701 0.0
O56 O 0.13266 0.44532 0.95208 0.0
Cd57 Cd 0.13401 0.46479 0.99307 0.0
Cd58 Cd 0.12031 0.43376 0.03062 0.0
O59 O 0.12891 0.41973 0.98442 0.0
O60 O 0.14929 0.4845 0.96905 0.0
O61 O 0.15946 0.46775 0.01547 0.0
C62 C 0.16286 0.47971 0.98997 0.0
C63 C 0.1244 0.42063 0.08868 0.0
C64 C 0.13207 0.42771 0.95408 0.0
C65 C 0.0951 0.46722 0.01967 0.0
O66 O 0.09678 0.44994 0.02618 0.0
O67 O 0.10914 0.47678 0.00982 0.0
O68 O 0.1126 0.41397 0.06567 0.0
O69 O 0.13459 0.43443 0.07817 0.0
O70 O 0.57069 0.63848 0.21304 0.0
Cd71 Cd 0.54805 0.63852 0.24711 0.0
Cd72 Cd 0.57863 0.62147 0.29049 0.0
O73 O 0.59454 0.62832 0.24549 0.0
O74 O 0.53014 0.65221 0.21512 0.0
O75 O 0.54116 0.66399 0.26636 0.0
C76 C 0.53174 0.66628 0.23664 0.0
C77 C 0.59111 0.62331 0.34958 0.0
C78 C 0.58786 0.63486 0.21602 0.0
C79 C 0.54335 0.59892 0.27221 0.0
O80 O 0.55989 0.60007 0.28417 0.0
O81 O 0.5353 0.61309 0.2586 0.0
O82 O 0.59589 0.61038 0.3272 0.0
O83 O 0.57981 0.63592 0.33798 0.0
O84 O 0.37579 0.07167 0.463 0.0
Cd85 Cd 0.37331 0.04967 0.49814 0.0
Cd86 Cd 0.38926 0.07844 0.54523 0.0
O87 O 0.38434 0.09467 0.49944 0.0
O88 O 0.35835 0.03175 0.46829 0.0
O89 O 0.34736 0.04563 0.51752 0.0
C90 C 0.34446 0.0352 0.48933 0.0
C91 C 0.38579 0.09138 0.60382 0.0
C92 C 0.37952 0.08873 0.46809 0.0
C93 C 0.41148 0.04302 0.52875 0.0
O94 O 0.41048 0.05928 0.54222 0.0
O95 O 0.39773 0.03591 0.5118 0.0
O96 O 0.39904 0.09635 0.58234 0.0
O97 O 0.37388 0.07949 0.59149 0.0
O98 O 0.94003 0.87486 0.70576 0.0
Cd99 Cd 0.95972 0.87409 0.7463 0.0
Cd100 Cd 0.92848 0.88965 0.78262 0.0
O101 O 0.91438 0.88179 0.73585 0.0
O102 O 0.97956 0.85927 0.72161 0.0
O103 O 0.96318 0.8485 0.76799 0.0
C104 C 0.97507 0.84548 0.74225 0.0
C105 C 0.91593 0.88554 0.84111 0.0
C106 C 0.92254 0.87698 0.70658 0.0
C107 C 0.96291 0.91357 0.77166 0.0
O108 O 0.94565 0.91244 0.77847 0.0
O109 O 0.97197 0.89921 0.7618 0.0
O110 O 0.90932 0.89767 0.81871 0.0
O111 O 0.92916 0.87496 0.82959 0.0
O112 O 0.63237 0.5659 0.86904 0.0
Cd113 Cd 0.63542 0.54529 0.83102 0.0
Cd114 Cd 0.62087 0.5755 0.78745 0.0
O115 O 0.62645 0.59047 0.83473 0.0
O116 O 0.65125 0.52693 0.85773 0.0
O117 O 0.66134 0.54326 0.81059 0.0
C118 C 0.66487 0.53196 0.83716 0.0
C119 C 0.62344 0.58967 0.72992 0.0
C120 C 0.63 0.5833 0.86576 0.0
C121 C 0.59779 0.5398 0.79927 0.0
O122 O 0.59931 0.55655 0.78865 0.0
O123 O 0.6113 0.53165 0.81495 0.0
O124 O 0.61026 0.59379 0.75216 0.0
O125 O 0.63601 0.5782 0.74102 0.0
O126 O 0.44726 0.13611 0.11488 0.0
Cd127 Cd 0.46509 0.1374 0.07131 0.0
Cd128 Cd 0.43325 0.1228 0.03878 0.0
O129 O 0.42059 0.13116 0.08674 0.0
O130 O 0.48541 0.15321 0.0919 0.0
O131 O 0.46635 0.1629 0.04858 0.0
C132 C 0.47925 0.16666 0.07206 0.0
C133 C 0.41942 0.12714 0.98144 0.0
C134 C 0.42969 0.13495 0.11558 0.0
C135 C 0.46725 0.09817 0.04568 0.0
O136 O 0.44979 0.09951 0.04152 0.0
O137 O 0.47688 0.11248 0.05377 0.0
O138 O 0.41295 0.11532 0.00462 0.0
O139 O 0.4333 0.13734 0.99157 0.0
O140 O 0.87519 0.94451 0.35932 0.0
Cd141 Cd 0.87376 0.96644 0.32382 0.0
Cd142 Cd 0.88878 0.93666 0.27766 0.0
O143 O 0.88263 0.92092 0.32358 0.0
O144 O 0.85928 0.98459 0.35372 0.0
O145 O 0.84813 0.97154 0.3037 0.0
C146 C 0.84536 0.98172 0.33229 0.0
C147 C 0.88561 0.92317 0.21946 0.0
C148 C 0.87799 0.92727 0.35469 0.0
C149 C 0.91219 0.97159 0.29366 0.0
O150 O 0.91062 0.95523 0.28081 0.0
O151 O 0.89868 0.97932 0.31015 0.0
O152 O 0.89832 0.91797 0.24196 0.0
O153 O 0.87405 0.93567 0.23047 0.0
O154 O 0.0734 0.37387 0.60536 0.0
Cd155 Cd 0.05104 0.37361 0.57054 0.0
Cd156 Cd 0.08117 0.3897 0.52646 0.0
O157 O 0.09709 0.38331 0.5717 0.0
O158 O 0.03282 0.35976 0.60159 0.0
O159 O 0.04446 0.34814 0.5508 0.0
C160 C 0.03471 0.34575 0.58004 0.0
C161 C 0.09329 0.38606 0.46745 0.0
C162 C 0.09058 0.37732 0.60172 0.0
C163 C 0.04652 0.41292 0.54321 0.0
O164 O 0.06301 0.41161 0.53113 0.0
O165 O 0.03853 0.39898 0.55793 0.0
O166 O 0.09919 0.39887 0.48916 0.0
O167 O 0.08093 0.37465 0.47981 0.0
O168 O 0.63455 0.94216 0.45826 0.0
Cd169 Cd 0.63576 0.96417 0.49369 0.0
Cd170 Cd 0.62098 0.93457 0.53972 0.0
O171 O 0.62687 0.91863 0.494 0.0
O172 O 0.65022 0.98246 0.46392 0.0
O173 O 0.66126 0.96965 0.51422 0.0
C174 C 0.66405 0.97985 0.48568 0.0
C175 C 0.62518 0.92188 0.59828 0.0
C176 C 0.63162 0.92493 0.46291 0.0
C177 C 0.59725 0.96906 0.52359 0.0
O178 O 0.59891 0.95277 0.53666 0.0
O179 O 0.61073 0.97685 0.50701 0.0
O180 O 0.61219 0.91618 0.57681 0.0
O181 O 0.63641 0.93441 0.58597 0.0
O182 O 0.06603 0.13343 0.70096 0.0
Cd183 Cd 0.04657 0.13567 0.74164 0.0
Cd184 Cd 0.0773 0.12223 0.78001 0.0
O185 O 0.09157 0.13025 0.7336 0.0
O186 O 0.02718 0.1508 0.71638 0.0
O187 O 0.0439 0.16153 0.76241 0.0
C188 C 0.0321 0.16467 0.7365 0.0
C189 C 0.08985 0.12696 0.83841 0.0
C190 C 0.08361 0.13286 0.70302 0.0
C191 C 0.04365 0.09708 0.7697 0.0
O192 O 0.06091 0.09873 0.77623 0.0
O193 O 0.03422 0.1111 0.75935 0.0
O194 O 0.09669 0.11487 0.81625 0.0
O195 O 0.0763 0.13711 0.82677 0.0
O196 O 0.87354 0.5729 0.96829 0.0
Cd197 Cd 0.87257 0.55211 0.00667 0.0
Cd198 Cd 0.88919 0.5828 0.04625 0.0
O199 O 0.88174 0.59768 1.00026 0.0
O200 O 0.85781 0.53291 0.97964 0.0
O201 O 0.84692 0.54798 0.02756 0.0
C202 C 0.84399 0.53674 1.00061 0.0
C203 C 0.88665 0.59599 0.10469 0.0
C204 C 0.87639 0.59028 0.97052 0.0
C205 C 0.91201 0.54778 0.03209 0.0
O206 O 0.91124 0.56484 0.04101 0.0
O207 O 0.89754 0.53929 0.02083 0.0
O208 O 0.89877 0.60175 0.08144 0.0
O209 O 0.87526 0.58315 0.09422 0.0
O210 O 0.4424 0.37514 0.19608 0.0
Cd211 Cd 0.46224 0.37477 0.23644 0.0
Cd212 Cd 0.43036 0.3903 0.27192 0.0
O213 O 0.41644 0.38199 0.22529 0.0
O214 O 0.48208 0.36005 0.21154 0.0
O215 O 0.46598 0.34925 0.25826 0.0
C216 C 0.47774 0.34625 0.23229 0.0
C217 C 0.41716 0.38782 0.33015 0.0
C218 C 0.42487 0.37702 0.1964 0.0
C219 C 0.46497 0.41433 0.26038 0.0
O220 O 0.4477 0.41292 0.26687 0.0
O221 O 0.47436 0.40006 0.25137 0.0
O222 O 0.41158 0.40008 0.307 0.0
O223 O 0.42961 0.37609 0.31962 0.0
H224 H 0.31167 0.05163 0.50769 0.0
H225 H 0.28141 0.04647 0.47944 0.0
H226 H 0.30392 1.00082 0.41726 0.0
H227 H 0.33452 0.00667 0.44403 0.0
H228 H 0.28573 0.02136 0.37376 0.0
H229 H 0.24043 0.01103 0.49327 0.0
H230 H 0.25248 0.03271 0.49735 0.0
H231 H 0.26537 0.01122 0.49726 0.0
C232 C 0.31006 0.04018 0.48874 0.0
C233 C 0.32548 0.0295 0.47825 0.0
C234 C 0.29267 0.03717 0.47261 0.0
C235 C 0.29015 0.02305 0.44645 0.0
C236 C 0.3054 0.01181 0.4373 0.0
H237 H 0.17644 1.00579 0.36766 0.0
H238 H 0.20719 1.00005 0.39371 0.0
C239 C 0.32289 0.01508 0.45281 0.0
C240 C 0.27218 0.02114 0.42629 0.0
H241 H 0.22513 0.02061 0.43766 0.0
C242 C 0.2725 0.02089 0.38785 0.0
C243 C 0.25481 0.02017 0.44431 0.0
C244 C 0.25327 0.01858 0.48531 0.0
C245 C 0.25606 0.02039 0.36709 0.0
C246 C 0.23868 0.02093 0.38513 0.0
C247 C 0.23837 0.02047 0.42356 0.0
C248 C 0.22068 0.02267 0.36503 0.0
C249 C 0.25762 0.01907 0.32606 0.0
C250 C 0.21796 0.03693 0.33929 0.0
C251 C 0.20048 0.03988 0.32355 0.0
C252 C 0.18517 0.02899 0.33402 0.0
C253 C 0.18798 0.01436 0.35888 0.0
C254 C 0.20556 0.01116 0.374 0.0
H255 H 0.27055 0.01177 0.31794 0.0
H256 H 0.24561 0.01159 0.31393 0.0
H257 H 0.25823 0.03328 0.31435 0.0
H258 H 0.22912 0.04642 0.33261 0.0
H259 H 0.19871 0.0515 0.30505 0.0
H260 H 0.95899 0.81257 0.7621 0.0
H261 H 0.96459 0.78204 0.73522 0.0
H262 H 0.01019 0.80456 0.67295 0.0
H263 H 1.00411 0.83533 0.69865 0.0
H264 H 0.98875 0.78597 0.62967 0.0
H265 H 1.00108 0.74163 0.75021 0.0
H266 H 0.97942 0.75362 0.75439 0.0
H267 H 1.00082 0.76665 0.75322 0.0
C268 C 0.97056 0.81092 0.7435 0.0
C269 C 0.98115 0.82639 0.73264 0.0
C270 C 0.97379 0.79339 0.72813 0.0
C271 C 0.98796 0.79082 0.70222 0.0
C272 C 0.99916 0.8061 0.69282 0.0
H273 H 0.00855 0.67756 0.62431 0.0
H274 H 0.0132 0.70872 0.64951 0.0
C275 C 0.99575 0.82369 0.70773 0.0
C276 C 0.98997 0.77276 0.68249 0.0
H277 H 0.99192 0.72576 0.69508 0.0
C278 C 0.98971 0.77283 0.64405 0.0
C279 C 0.99153 0.75553 0.70095 0.0
C280 C 0.99344 0.75436 0.74195 0.0
C281 C 0.99034 0.75625 0.62372 0.0
C282 C 0.99058 0.73897 0.64226 0.0
C283 C 0.9915 0.73892 0.68066 0.0
C284 C 0.98927 0.72078 0.62272 0.0
C285 C 0.99091 0.75752 0.58259 0.0
C286 C 0.97459 0.71716 0.59835 0.0
C287 C 0.97216 0.69944 0.58323 0.0
C288 C 0.9841 0.68479 0.59284 0.0
C289 C 0.99915 0.68855 0.61622 0.0
C290 C 1.00175 0.70636 0.63085 0.0
H291 H 0.99739 0.77077 0.57355 0.0
H292 H 0.99876 0.7458 0.57042 0.0
H293 H 0.97652 0.75724 0.57175 0.0
H294 H 0.96443 0.7278 0.59232 0.0
H295 H 0.96024 0.69695 0.56584 0.0
H296 H 0.33543 0.49751 0.8976 0.0
H297 H 0.30479 0.5016 0.92498 0.0
H298 H 0.27929 0.4781 0.82886 0.0
H299 H 0.30997 0.47371 0.80136 0.0
H300 H 0.2716 0.51965 0.90486 0.0
H301 H 0.26288 0.44302 0.91154 0.0
H302 H 0.28484 0.45389 0.90119 0.0
H303 H 0.26726 0.45193 0.86651 0.0
C304 C 0.32331 0.49351 0.88193 0.0
C305 C 0.3252 0.4851 0.84738 0.0
C306 C 0.30578 0.49586 0.89768 0.0
C307 C 0.28977 0.48979 0.87934 0.0
C308 C 0.29149 0.48254 0.84384 0.0
H309 H 0.17406 0.50395 0.93685 0.0
H310 H 0.20542 0.50816 0.91317 0.0
C311 C 0.30904 0.48018 0.82801 0.0
C312 C 0.27152 0.48991 0.89838 0.0
H313 H 0.23725 0.46122 0.92982 0.0
C314 C 0.26407 0.50689 0.91033 0.0
C315 C 0.26189 0.47322 0.90625 0.0
C316 C 0.26966 0.45445 0.89606 0.0
C317 C 0.24706 0.50763 0.92921 0.0
C318 C 0.23715 0.49098 0.93598 0.0
C319 C 0.2448 0.474 0.92459 0.0
C320 C 0.21855 0.4907 0.95376 0.0
C321 C 0.24 0.52622 0.94219 0.0
C322 C 0.2154 0.47966 0.98484 0.0
C323 C 0.19739 0.47715 0.99845 0.0
C324 C 0.18214 0.48553 0.98103 0.0
C325 C 0.18547 0.49736 0.9511 0.0
C326 C 0.20346 0.49985 0.93754 0.0
H327 H 0.25144 0.53652 0.94474 0.0
H328 H 0.22987 0.53168 0.92205 0.0
H329 H 0.23292 0.52494 0.96901 0.0
H330 H 0.22682 0.47241 0.9978 0.0
H331 H 0.19535 0.46787 0.02139 0.0
H332 H 0.50862 0.83631 0.1306 0.0
H333 H 0.50425 0.80541 0.1569 0.0
H334 H 0.53832 0.7818 0.07208 0.0
H335 H 0.54301 0.81276 0.04579 0.0
H336 H 0.49134 0.77051 0.13243 0.0
H337 H 0.56644 0.76912 0.16674 0.0
H338 H 0.55483 0.78994 0.15155 0.0
H339 H 0.56149 0.77244 0.11908 0.0
C340 C 0.51488 0.82452 0.11699 0.0
C341 C 0.52635 0.82708 0.08626 0.0
C342 C 0.51237 0.80683 0.13215 0.0
C343 C 0.52131 0.79134 0.117 0.0
C344 C 0.5316 0.79362 0.08469 0.0
H345 H 0.51208 0.67495 0.17509 0.0
H346 H 0.50754 0.70569 0.14848 0.0
C347 C 0.53413 0.81133 0.06948 0.0
C348 C 0.52103 0.77322 0.13661 0.0
H349 H 0.54921 0.74195 0.17967 0.0
C350 C 0.50398 0.76424 0.14275 0.0
C351 C 0.53748 0.76525 0.15085 0.0
C352 C 0.55609 0.77472 0.1471 0.0
C353 C 0.50301 0.74732 0.16202 0.0
C354 C 0.51955 0.73905 0.17516 0.0
C355 C 0.53653 0.74823 0.16956 0.0
C356 C 0.51982 0.72063 0.1938 0.0
C357 C 0.48426 0.7386 0.1686 0.0
C358 C 0.52807 0.71869 0.22842 0.0
C359 C 0.53077 0.70104 0.24374 0.0
C360 C 0.5254 0.68495 0.22457 0.0
C361 C 0.5163 0.68702 0.19075 0.0
C362 C 0.51361 0.70465 0.17548 0.0
H363 H 0.47295 0.74905 0.16689 0.0
H364 H 0.48162 0.7279 0.14739 0.0
H365 H 0.48366 0.73178 0.19579 0.0
H366 H 0.53302 0.73081 0.24306 0.0
H367 H 0.53792 0.69998 0.2697 0.0
H368 H 0.69673 0.5504 0.81923 0.0
H369 H 0.72735 0.54643 0.84671 0.0
H370 H 0.70744 0.49867 0.90632 0.0
H371 H 0.6765 0.5032 0.88025 0.0
H372 H 0.72462 0.52 0.95091 0.0
H373 H 0.77 0.5132 0.83045 0.0
H374 H 0.7568 0.53421 0.82762 0.0
H375 H 0.74506 0.51204 0.82683 0.0
C376 C 0.699 0.53874 0.83741 0.0
C377 C 0.68419 0.52706 0.84741 0.0
C378 C 0.71659 0.53643 0.8531 0.0
C379 C 0.71993 0.52208 0.87837 0.0
C380 C 0.70532 0.50985 0.88696 0.0
H381 H 0.8341 0.50781 0.95624 0.0
H382 H 0.80348 0.50163 0.92993 0.0
C383 C 0.68764 0.51238 0.87184 0.0
C384 C 0.73802 0.52088 0.89828 0.0
H385 H 0.78502 0.52249 0.88646 0.0
C386 C 0.73782 0.52026 0.9367 0.0
C387 C 0.75536 0.52091 0.88005 0.0
C388 C 0.75682 0.51991 0.83897 0.0
C389 C 0.75433 0.5203 0.95728 0.0
C390 C 0.77162 0.5217 0.93909 0.0
C391 C 0.77184 0.52167 0.90065 0.0
C392 C 0.78961 0.52379 0.9591 0.0
C393 C 0.75296 0.5186 0.99828 0.0
C394 C 0.79207 0.53798 0.98514 0.0
C395 C 0.8095 0.54122 1.00094 0.0
C396 C 0.82499 0.53068 0.99032 0.0
C397 C 0.82242 0.51612 0.96515 0.0
C398 C 0.80492 0.51266 0.94988 0.0
H399 H 0.74021 0.51092 0.00639 0.0
H400 H 0.76518 0.51133 0.00997 0.0
H401 H 0.75211 0.53269 0.01046 0.0
H402 H 0.78072 0.54716 0.99206 0.0
H403 H 0.81106 0.55276 0.0197 0.0
H404 H 0.46179 0.31333 0.25242 0.0
H405 H 0.46706 0.28287 0.22498 0.0
H406 H 0.51223 0.30544 0.16158 0.0
H407 H 0.50648 0.33614 0.18786 0.0
H408 H 0.49022 0.28717 0.11869 0.0
H409 H 0.5035 0.2422 0.23796 0.0
H410 H 0.48196 0.2543 0.24313 0.0
H411 H 0.50341 0.26721 0.24142 0.0
C412 C 0.4732 0.3117 0.23346 0.0
C413 C 0.48375 0.32717 0.22244 0.0
C414 C 0.47624 0.29421 0.21776 0.0
C415 C 0.49019 0.29168 0.19134 0.0
C416 C 0.50138 0.30695 0.18182 0.0
H417 H 0.50945 0.1787 0.11075 0.0
H418 H 0.51462 0.20977 0.13593 0.0
C419 C 0.49816 0.3245 0.19708 0.0
C420 C 0.49192 0.2737 0.17122 0.0
H421 H 0.4938 0.22664 0.18287 0.0
C422 C 0.49128 0.27396 0.13279 0.0
C423 C 0.49358 0.25638 0.1893 0.0
C424 C 0.49586 0.25501 0.2302 0.0
C425 C 0.49162 0.25747 0.11215 0.0
C426 C 0.49198 0.24011 0.13035 0.0
C427 C 0.49329 0.23987 0.16871 0.0
C428 C 0.49039 0.22201 0.11054 0.0
C429 C 0.49175 0.25893 0.07102 0.0
C430 C 0.47538 0.21854 0.08688 0.0
C431 C 0.47264 0.20085 0.07176 0.0
C432 C 0.4846 0.18611 0.08068 0.0
C433 C 0.50002 0.18976 0.10319 0.0
C434 C 0.50292 0.20752 0.11783 0.0
H435 H 0.49815 0.2722 0.06193 0.0
H436 H 0.49944 0.24724 0.05833 0.0
H437 H 0.47724 0.25871 0.06079 0.0
H438 H 0.46519 0.22924 0.08149 0.0
H439 H 0.46045 0.19846 0.05507 0.0
H440 H 0.83562 1.00312 0.39093 0.0
H441 H 0.8046 0.007 0.41677 0.0
H442 H 0.78108 0.97711 0.32569 0.0
H443 H 0.81213 0.97295 0.29977 0.0
H444 H 0.77025 0.02178 0.39232 0.0
H445 H 0.76675 0.94557 0.41547 0.0
H446 H 0.788 0.9573 0.40323 0.0
H447 H 0.77086 0.95225 0.36889 0.0
C448 C 0.82383 0.99768 0.37593 0.0
C449 C 0.82641 0.98754 0.34342 0.0
C450 C 0.80608 0.99991 0.39081 0.0
C451 C 0.79056 0.992 0.3736 0.0
C452 C 0.79291 0.98302 0.33981 0.0
H453 H 0.67383 1.00117 0.42694 0.0
H454 H 0.70494 1.00606 0.40247 0.0
C455 C 0.81067 0.98079 0.32486 0.0
C456 C 0.77225 0.99194 0.39238 0.0
H457 H 0.73987 0.96286 0.42968 0.0
C458 C 0.76358 0.00892 0.40049 0.0
C459 C 0.76375 0.97516 0.40378 0.0
C460 C 0.77285 0.95652 0.39776 0.0
C461 C 0.74645 0.00953 0.41895 0.0
C462 C 0.73768 0.9927 0.42926 0.0
C463 C 0.74654 0.97577 0.42173 0.0
C464 C 0.71905 0.99212 0.44688 0.0
C465 C 0.73804 0.02818 0.42772 0.0
C466 C 0.71653 0.98282 0.48029 0.0
C467 C 0.69867 0.97993 0.49437 0.0
C468 C 0.68296 0.98615 0.47513 0.0
C469 C 0.6856 0.99626 0.44261 0.0
C470 C 0.70344 0.99915 0.42859 0.0
H471 H 0.74869 0.03936 0.42794 0.0
H472 H 0.7276 0.0317 0.40651 0.0
H473 H 0.73096 0.02795 0.45465 0.0
H474 H 0.72836 0.97722 0.49486 0.0
H475 H 0.69716 0.972 0.51935 0.0
H476 H 0.04074 0.31224 0.54621 0.0
H477 H 0.03545 0.28125 0.57188 0.0
H478 H 0.01 0.30584 0.66683 0.0
H479 H 0.01489 0.33673 0.64115 0.0
H480 H 0.05125 0.2693 0.63469 0.0
H481 H 0.97491 0.26308 0.64697 0.0
H482 H 0.98589 0.28056 0.6189 0.0
H483 H 0.98386 0.28392 0.66745 0.0
C484 C 0.03352 0.31104 0.57204 0.0
C485 C 0.02824 0.32701 0.59157 0.0
C486 C 0.03059 0.2933 0.58681 0.0
C487 C 0.02222 0.29115 0.62125 0.0
C488 C 0.01614 0.30704 0.63994 0.0
H489 H 0.04398 0.19758 0.76653 0.0
H490 H 0.0401 0.22876 0.74077 0.0
C491 C 0.01903 0.32476 0.62521 0.0
C492 C 0.02165 0.27258 0.63929 0.0
H493 H 0.99295 0.2412 0.68111 0.0
C494 C 0.03847 0.26312 0.64461 0.0
C495 C 1.00498 0.26444 0.65217 0.0
C496 C 0.98636 0.27343 0.64579 0.0
C497 C 0.03915 0.24594 0.6628 0.0
C498 C 0.02258 0.23811 0.67684 0.0
C499 C 0.00569 0.24737 0.67095 0.0
C500 C 0.02255 0.21985 0.69601 0.0
C501 C 0.0576 0.23617 0.66618 0.0
C502 C 0.01306 0.20467 0.68079 0.0
C503 C 0.01509 0.18687 0.69567 0.0
C504 C 0.02664 0.18388 0.72618 0.0
C505 C 0.03504 0.19935 0.74298 0.0
C506 C 0.03297 0.21717 0.72807 0.0
H507 H 0.06795 0.24169 0.64648 0.0
H508 H 0.06317 0.23829 0.69415 0.0
H509 H 0.05604 0.221 0.66153 0.0
H510 H 1.00483 0.20641 0.65624 0.0
H511 H 0.00837 0.1753 0.68206 0.0
H512 H 0.08487 0.01744 0.33465 0.0
H513 H 0.05324 1.00485 0.33529 0.0
H514 H 0.03948 0.03815 0.24107 0.0
H515 H 0.07071 0.05132 0.24134 0.0
H516 H 0.01351 0.04153 0.2898 0.0
H517 H 0.02835 0.96647 0.27409 0.0
H518 H 0.03972 0.97638 0.31312 0.0
H519 H 0.04596 0.98402 0.26789 0.0
C520 C 0.07517 0.02181 0.31372 0.0
C521 C 0.0803 0.03534 0.28791 0.0
C522 C 0.05708 0.01456 0.31402 0.0
C523 C 0.04393 0.02036 0.28795 0.0
C524 C 0.04928 0.03346 0.26154 0.0
H525 H 0.93936 0.96521 0.2436 0.0
H526 H 0.97067 0.97816 0.24221 0.0
C527 C 0.06719 0.04093 0.26163 0.0
C528 C 0.02434 0.01363 0.28906 0.0
H529 H 0.99737 0.97455 0.28963 0.0
C530 C 0.00999 0.02686 0.28957 0.0
C531 C 0.01967 0.99451 0.28842 0.0
C532 C 0.03423 0.97954 0.28547 0.0
C533 C 0.9912 0.02156 0.28932 0.0
C534 C 0.98653 1.00244 0.28988 0.0
C535 C 1.00088 0.98921 0.28948 0.0
C536 C 0.96693 0.99574 0.28964 0.0
C537 C 0.97661 0.03656 0.28729 0.0
C538 C 0.95417 1.00146 0.31645 0.0
C539 C 0.93603 0.99433 0.31682 0.0
C540 C 0.93047 0.981 0.29093 0.0
C541 C 0.9432 0.97545 0.26397 0.0
C542 C 0.96116 0.9828 0.26323 0.0
H543 H 0.98233 0.04967 0.27584 0.0
H544 H 0.96465 0.03214 0.27021 0.0
H545 H 0.9715 0.03961 0.31524 0.0
H546 H 0.95835 0.01105 0.33773 0.0
H547 H 0.92664 0.99867 0.33826 0.0
H548 H 1.00436 0.58667 0.57046 0.0
H549 H 0.01755 0.55528 0.5672 0.0
H550 H 0.96689 0.53508 0.51843 0.0
H551 H 0.95373 0.56621 0.52111 0.0
H552 H 1.00369 0.52268 0.59998 0.0
H553 H 0.00671 0.5152 0.44929 0.0
H554 H 1.00375 0.5374 0.47148 0.0
H555 H 0.9843 0.52194 0.46607 0.0
C556 C 0.99612 0.5756 0.55861 0.0
C557 C 0.978 0.57903 0.54593 0.0
C558 C 1.00364 0.55765 0.55691 0.0
C559 C 0.99327 0.54287 0.5422 0.0
C560 C 0.97528 0.54631 0.52928 0.0
H561 H 0.01327 0.42367 0.57399 0.0
H562 H 0.99959 0.45491 0.57383 0.0
C563 C 0.96775 0.56416 0.53101 0.0
C564 C 1.0009 0.52369 0.54146 0.0
H565 H 0.01137 0.48771 0.48417 0.0
C566 C 1.00545 0.51504 0.57467 0.0
C567 C 1.00327 0.51377 0.50839 0.0
C568 C 0.99942 0.52258 0.47174 0.0
C569 C 0.0121 0.49668 0.57574 0.0
C570 C 0.014 0.4866 0.54273 0.0
C571 C 0.00966 0.49534 0.5095 0.0
C572 C 0.02158 0.4674 0.54183 0.0
C573 C 0.01742 0.48837 0.61211 0.0
C574 C 0.0381 0.4639 0.52289 0.0
C575 C 0.04585 0.44613 0.52272 0.0
C576 C 0.03721 0.43133 0.54137 0.0
C577 C 0.02032 0.43472 0.55945 0.0
C578 C 0.01257 0.45261 0.55964 0.0
H579 H 0.01912 0.49918 0.63355 0.0
H580 H 0.00635 0.47865 0.62109 0.0
H581 H 0.03056 0.48041 0.60988 0.0
H582 H 0.04525 0.47504 0.50879 0.0
H583 H 0.05881 0.44409 0.50831 0.0
H584 H 0.42477 0.49586 0.84001 0.0
H585 H 0.45669 0.5077 0.84157 0.0
H586 H 0.46814 0.48007 0.73944 0.0
H587 H 0.4366 0.46772 0.73844 0.0
H588 H 0.4945 0.47272 0.78715 0.0
H589 H 0.48216 0.54872 0.7873 0.0
H590 H 0.47071 0.53694 0.82415 0.0
H591 H 0.46398 0.53216 0.7777 0.0
C592 C 0.43399 0.49265 0.81754 0.0
C593 C 0.42814 0.48087 0.78909 0.0
C594 C 0.45226 0.49944 0.81841 0.0
C595 C 0.46487 0.49492 0.79046 0.0
C596 C 0.45876 0.48372 0.76141 0.0
H597 H 0.57054 0.54814 0.75049 0.0
H598 H 0.53893 0.536 0.7484 0.0
C599 C 0.44066 0.47673 0.76079 0.0
C600 C 0.48468 0.50087 0.79217 0.0
H601 H 0.51304 0.53881 0.79884 0.0
C602 C 0.49855 0.4872 0.78958 0.0
C603 C 0.49002 0.51976 0.79505 0.0
C604 C 0.47595 0.53526 0.79585 0.0
C605 C 0.51751 0.49184 0.78958 0.0
C606 C 0.52286 0.51068 0.79338 0.0
C607 C 0.50899 0.52435 0.79616 0.0
C608 C 0.54267 0.51672 0.79317 0.0
C609 C 0.53157 0.47654 0.78436 0.0
C610 C 0.55554 0.50969 0.81859 0.0
C611 C 0.57384 0.5164 0.8194 0.0
C612 C 0.57947 0.53055 0.79531 0.0
C613 C 0.56665 0.53726 0.76948 0.0
C614 C 0.54852 0.53038 0.76835 0.0
H615 H 0.52525 0.46408 0.77137 0.0
H616 H 0.54336 0.48128 0.76722 0.0
H617 H 0.53708 0.47229 0.81141 0.0
H618 H 0.55131 0.49945 0.83859 0.0
H619 H 0.5833 0.51114 0.83995 0.0
H620 H 0.56322 0.94739 0.03591 0.0
H621 H 0.54943 0.97822 0.03497 0.0
H622 H 0.49509 0.95407 0.04915 0.0
H623 H 0.50892 0.92296 0.05129 0.0
H624 H 0.52515 0.99407 0.98998 0.0
H625 H 0.49533 0.99214 0.12964 0.0
H626 H 0.51135 0.97477 0.1134 0.0
H627 H 0.48722 0.97366 0.10078 0.0
C628 C 0.54831 0.94854 0.03888 0.0
C629 C 0.5372 0.93262 0.04391 0.0
C630 C 0.54045 0.96625 0.0383 0.0
C631 C 0.52125 0.96857 0.04261 0.0
C632 C 0.51 0.9527 0.04672 0.0
H633 H 0.44975 0.06489 0.03585 0.0
H634 H 0.4634 0.03394 0.03415 0.0
C635 C 0.51791 0.9349 0.04766 0.0
C636 C 0.51323 0.98764 0.04247 0.0
H637 H 0.48749 0.01816 0.09292 0.0
C638 C 0.51698 0.99934 0.01258 0.0
C639 C 0.50266 0.99461 0.07206 0.0
C640 C 0.49904 0.98322 0.10595 0.0
C641 C 0.51026 0.01766 0.01128 0.0
C642 C 0.49954 0.02449 0.04063 0.0
C643 C 0.49573 0.01285 0.07046 0.0
C644 C 0.49165 0.04352 0.04044 0.0
C645 C 0.51436 0.02954 0.9783 0.0
C646 C 0.50307 0.05924 0.04452 0.0
C647 C 0.49529 0.0771 0.04573 0.0
C648 C 0.47597 0.07951 0.04273 0.0
C649 C 0.46468 0.06365 0.03816 0.0
C650 C 0.47244 0.04589 0.03725 0.0
H651 H 0.52048 0.02135 0.95557 0.0
H652 H 0.50149 0.03636 0.9684 0.0
H653 H 0.52433 0.04064 0.98604 0.0
H654 H 0.51795 0.05767 0.04735 0.0
H655 H 0.50438 0.08897 0.04936 0.0
H656 H 0.06191 0.44936 0.02711 0.0
H657 H 0.03094 0.46279 0.02905 0.0
H658 H 0.05454 0.51778 0.02132 0.0
H659 H 0.08574 0.50433 0.01805 0.0
H660 H 0.0147 0.48525 0.07629 0.0
H661 H 0.01661 0.52009 0.94125 0.0
H662 H 0.03416 0.50377 0.95548 0.0
H663 H 0.03497 0.5275 0.97104 0.0
C664 C 0.06059 0.46433 0.02575 0.0
C665 C 0.07637 0.47576 0.02221 0.0
C666 C 0.0428 0.472 0.02688 0.0
C667 C 0.0403 0.49129 0.02468 0.0
C668 C 0.05604 0.50282 0.02203 0.0
H669 H 0.94562 0.5632 0.04855 0.0
H670 H 0.9761 0.54859 0.04706 0.0
C671 C 0.0739 0.49513 0.02046 0.0
C672 C 0.02119 0.49917 0.02573 0.0
H673 H 0.99086 0.52716 0.9795 0.0
C674 C 0.00948 0.49431 0.05497 0.0
C675 C 0.01425 0.5109 0.99778 0.0
C676 C 0.02558 0.51573 0.96443 0.0
C677 C 0.99125 0.50112 0.05734 0.0
C678 C 0.98453 0.51312 0.02984 0.0
C679 C 0.99612 0.51794 1.00055 0.0
C680 C 0.96577 0.52147 0.03181 0.0
C681 C 0.97932 0.49579 0.08952 0.0
C682 C 0.9498 0.51099 0.02383 0.0
C683 C 0.93221 0.51934 0.02443 0.0
C684 C 0.93034 0.5383 0.03321 0.0
C685 C 0.94644 0.54858 0.04174 0.0
C686 C 0.96394 0.54028 0.04084 0.0
H687 H 0.98714 0.48772 0.11032 0.0
H688 H 0.97354 0.50844 0.10261 0.0
H689 H 0.96745 0.48723 0.07989 0.0
H690 H 0.95099 0.49644 0.01662 0.0
H691 H 0.92015 0.51102 0.01766 0.0
H692 H 0.44722 0.44761 0.26508 0.0
H693 H 0.46063 0.47862 0.26629 0.0
H694 H 0.51561 0.4551 0.26191 0.0
H695 H 0.50216 0.42374 0.2594 0.0
H696 H 0.48229 0.49514 0.31439 0.0
H697 H 0.51903 0.49275 0.18135 0.0
H698 H 0.5026 0.47513 0.19499 0.0
H699 H 0.52601 0.47468 0.21218 0.0
C700 C 0.46219 0.44893 0.26429 0.0
C701 C 0.47361 0.4331 0.26202 0.0
C702 C 0.46984 0.46675 0.26499 0.0
C703 C 0.48913 0.46931 0.26363 0.0
C704 C 0.50066 0.45355 0.26202 0.0
H705 H 0.55813 0.56597 0.29479 0.0
H706 H 0.54415 0.53514 0.29247 0.0
C707 C 0.49297 0.43561 0.26088 0.0
C708 C 0.49691 0.48852 0.2647 0.0
H709 H 0.52487 0.51912 0.21892 0.0
C710 C 0.49151 0.50038 0.29335 0.0
C711 C 0.50885 0.49547 0.23714 0.0
C712 C 0.51433 0.48392 0.20448 0.0
C713 C 0.49792 0.51881 0.29543 0.0
C714 C 0.51007 0.52557 0.2683 0.0
C715 C 0.51549 0.51383 0.23964 0.0
C716 C 0.51803 0.54454 0.27026 0.0
C717 C 0.49194 0.53095 0.32686 0.0
C718 C 0.50786 0.56011 0.25867 0.0
C719 C 0.51584 0.57792 0.25978 0.0
C720 C 0.5341 0.58041 0.27266 0.0
C721 C 0.54404 0.56469 0.28474 0.0
C722 C 0.53611 0.54699 0.28338 0.0
H723 H 0.4831 0.52335 0.34675 0.0
H724 H 0.50433 0.53646 0.34133 0.0
H725 H 0.48403 0.54302 0.31621 0.0
H726 H 0.49385 0.55844 0.24841 0.0
H727 H 0.50781 0.58966 0.25021 0.0
H728 H 0.4391 0.04793 0.57873 0.0
H729 H 0.47037 0.03494 0.57754 0.0
H730 H 0.45653 1.00378 0.48053 0.0
H731 H 0.42487 0.01621 0.48245 0.0
H732 H 0.47751 0.98354 0.52408 0.0
H733 H 0.51037 0.05267 0.51066 0.0
H734 H 0.49662 0.05114 0.55133 0.0
H735 H 0.48562 0.04938 0.5072 0.0
C736 C 0.44265 0.03815 0.55733 0.0
C737 C 0.42954 0.0332 0.53051 0.0
C738 C 0.46061 0.03089 0.55646 0.0
C739 C 0.46606 0.01887 0.52823 0.0
C740 C 0.45275 0.0132 0.50236 0.0
H741 H 0.58307 0.99647 0.47947 0.0
H742 H 0.55123 0.00847 0.47914 0.0
C743 C 0.43462 0.02025 0.50356 0.0
C744 C 0.48564 0.01234 0.52571 0.0
H745 H 0.53066 0.02747 0.52525 0.0
C746 C 0.48912 0.99316 0.5241 0.0
C747 C 0.50085 0.02486 0.5248 0.0
C748 C 0.49819 0.04565 0.52317 0.0
C749 C 0.50731 0.98617 0.52272 0.0
C750 C 0.52254 0.99867 0.52426 0.0
C751 C 0.51905 0.01785 0.52474 0.0
C752 C 0.54214 0.99211 0.52549 0.0
C753 C 0.50995 0.96545 0.51891 0.0
C754 C 0.54788 0.97944 0.55238 0.0
C755 C 0.56595 0.97243 0.55233 0.0
C756 C 0.57888 0.97826 0.52591 0.0
C757 C 0.57346 0.99173 0.50022 0.0
C758 C 0.55524 0.99854 0.49994 0.0
H759 H 0.49765 0.95877 0.50609 0.0
H760 H 0.52237 0.96215 0.50221 0.0
H761 H 0.51176 0.95924 0.54642 0.0
H762 H 0.5383 0.97477 0.57324 0.0
H763 H 0.56974 0.96224 0.57281 0.0
H764 H 0.00665 0.08761 0.76414 0.0
H765 H 0.99305 0.05636 0.76739 0.0
H766 H 0.04755 0.03303 0.78336 0.0
H767 H 0.0611 0.06399 0.78127 0.0
H768 H 0.99858 0.02664 0.72396 0.0
H769 H 0.01984 0.00821 0.86477 0.0
H770 H 0.02136 0.03164 0.84744 0.0
H771 H 0.03919 0.01495 0.83699 0.0
C772 C 0.0157 0.07584 0.76877 0.0
C773 C 0.03496 0.07838 0.77275 0.0
C774 C 0.00791 0.05797 0.77056 0.0
C775 C 0.01922 0.04233 0.77636 0.0
C776 C 0.03844 0.04486 0.77998 0.0
H777 H 0.99992 0.92237 0.76235 0.0
H778 H 0.01407 0.9535 0.76349 0.0
C779 C 0.04619 0.06265 0.77852 0.0
C780 C 0.01113 0.02327 0.77699 0.0
H781 H 0.00903 0.98322 0.82728 0.0
C782 C 1.00077 0.01722 0.74668 0.0
C783 C 0.01399 0.01091 0.80664 0.0
C784 C 0.02404 0.01681 0.84094 0.0
C785 C 0.99346 0.99912 0.745 0.0
C786 C 0.99659 0.98674 0.77432 0.0
C787 C 0.00688 0.99272 0.80465 0.0
C788 C 0.98835 0.96786 0.77469 0.0
C789 C 0.98252 0.99323 0.71178 0.0
C790 C 0.96933 0.96569 0.78119 0.0
C791 C 0.96126 0.94804 0.78084 0.0
C792 C 0.97204 0.9321 0.77381 0.0
C793 C 0.99121 0.93431 0.7678 0.0
C794 C 0.99932 0.95206 0.76843 0.0
H795 H 0.9837 1.00342 0.6891 0.0
H796 H 0.98734 0.97945 0.70198 0.0
H797 H 0.96765 0.99185 0.71924 0.0
H798 H 0.96068 0.97771 0.78633 0.0
H799 H 0.94647 0.94695 0.78561 0.0
H800 H 0.07124 0.14416 0.63639 0.0
H801 H 0.08765 0.14279 0.57833 0.0
H802 H 0.13705 0.12408 0.63371 0.0
H803 H 0.1206 0.12521 0.69239 0.0
H804 H 0.12225 0.15813 0.5502 0.0
H805 H 0.12175 0.08095 0.56408 0.0
H806 H 0.1078 0.09571 0.59283 0.0
H807 H 0.13236 0.09404 0.60039 0.0
C808 C 0.08567 0.13995 0.63643 0.0
C809 C 0.09452 0.13444 0.66894 0.0
C810 C 0.09506 0.13933 0.6032 0.0
C811 C 0.11345 0.13315 0.60175 0.0
C812 C 0.12277 0.12874 0.63434 0.0
H813 H 0.15944 0.08549 0.40452 0.0
H814 H 0.15914 0.1001 0.4647 0.0
C815 C 0.11336 0.1294 0.66778 0.0
C816 C 0.12183 0.12926 0.56571 0.0
H817 H 0.13155 0.09325 0.50851 0.0
C818 C 0.12463 0.14398 0.54113 0.0
C819 C 0.1248 0.11078 0.55405 0.0
C820 C 0.12144 0.0944 0.57899 0.0
C821 C 0.12995 0.14065 0.50478 0.0
C822 C 0.13209 0.1221 0.49269 0.0
C823 C 0.12999 0.10748 0.51778 0.0
C824 C 0.13502 0.11711 0.45379 0.0
C825 C 0.13304 0.15698 0.47971 0.0
C826 C 0.12204 0.12242 0.427 0.0
C827 C 0.12241 0.1143 0.39224 0.0
C828 C 0.13547 0.10045 0.38422 0.0
C829 C 0.14914 0.09605 0.41019 0.0
C830 C 0.149 0.10441 0.44455 0.0
H831 H 0.13744 0.16949 0.4953 0.0
H832 H 0.14371 0.15387 0.45871 0.0
H833 H 0.11983 0.16037 0.46563 0.0
H834 H 0.11085 0.13185 0.43368 0.0
H835 H 0.11164 0.11779 0.37274 0.0
H836 H 0.9411 0.64305 0.68602 0.0
H837 H 0.92419 0.64169 0.74355 0.0
H838 H 0.87517 0.62305 0.68653 0.0
H839 H 0.8921 0.62425 0.62838 0.0
H840 H 0.88869 0.65746 0.76929 0.0
H841 H 0.89013 0.58017 0.75811 0.0
H842 H 0.90462 0.59483 0.73009 0.0
H843 H 0.88025 0.59297 0.72066 0.0
C844 C 0.92666 0.63885 0.68551 0.0
C845 C 0.91802 0.63344 0.65268 0.0
C846 C 0.91698 0.63824 0.71843 0.0
C847 C 0.89853 0.63214 0.71923 0.0
C848 C 0.88948 0.62769 0.68636 0.0
H849 H 0.85124 0.58539 0.91634 0.0
H850 H 0.85188 0.59922 0.85544 0.0
C851 C 0.89916 0.62838 0.65324 0.0
C852 C 0.88974 0.62846 0.75496 0.0
H853 H 0.8798 0.59284 0.81298 0.0
C854 C 0.88639 0.64336 0.77879 0.0
C855 C 0.88685 0.61005 0.76713 0.0
C856 C 0.89071 0.59351 0.74289 0.0
C857 C 0.88061 0.64029 0.81495 0.0
C858 C 0.87861 0.62183 0.82767 0.0
C859 C 0.88125 0.607 0.80325 0.0
C860 C 0.87534 0.61718 0.86664 0.0
C861 C 0.87688 0.65683 0.83915 0.0
C862 C 0.88781 0.62326 0.89376 0.0
C863 C 0.88721 0.61561 0.9289 0.0
C864 C 0.87445 0.60145 0.93702 0.0
C865 C 0.86129 0.59622 0.91061 0.0
C866 C 0.86163 0.60413 0.87585 0.0
H867 H 0.87231 0.66901 0.8228 0.0
H868 H 0.86612 0.65368 0.85995 0.0
H869 H 0.88989 0.6608 0.85345 0.0
H870 H 0.89882 0.63295 0.88716 0.0
H871 H 0.89761 0.61973 0.94873 0.0
H872 H 0.4336 0.35262 0.14284 0.0
H873 H 0.42091 0.35149 0.08098 0.0
H874 H 0.38129 0.39397 0.10929 0.0
H875 H 0.3936 0.39473 0.17192 0.0
H876 H 0.36746 0.36666 0.05865 0.0
H877 H 0.4359 0.39574 0.01721 0.0
H878 H 0.43695 0.37388 0.0407 0.0
H879 H 0.42883 0.3942 0.06434 0.0
C880 C 0.42191 0.36144 0.1361 0.0
C881 C 0.41476 0.37401 0.16188 0.0
C882 C 0.4147 0.36078 0.10078 0.0
C883 C 0.4005 0.37297 0.09038 0.0
C884 C 0.39233 0.38451 0.11682 0.0
H885 H 0.35728 0.4269 0.90744 0.0
H886 H 0.3607 0.40944 0.96387 0.0
C887 C 0.39936 0.38496 0.15251 0.0
C888 C 0.39584 0.37531 0.05127 0.0
H889 H 0.41402 0.39095 0.97092 0.0
C890 C 0.37765 0.3718 0.03932 0.0
C891 C 0.4092 0.38199 0.02613 0.0
C892 C 0.42877 0.38684 0.03767 0.0
C893 C 0.37239 0.37514 1.00292 0.0
C894 C 0.38563 0.38237 0.97815 0.0
C895 C 0.40396 0.38518 0.98983 0.0
C896 C 0.38044 0.38978 0.94181 0.0
C897 C 0.35268 0.37115 0.99144 0.0
C898 C 0.39019 0.38438 0.9103 0.0
C899 C 0.38835 0.39449 0.8778 0.0
C900 C 0.37696 0.41031 0.87666 0.0
C901 C 0.3663 0.41487 0.90755 0.0
C902 C 0.36805 0.40474 0.93979 0.0
H903 H 0.3465 0.35989 0.00828 0.0
H904 H 0.34418 0.38383 0.9955 0.0
H905 H 0.35189 0.36711 0.96219 0.0
H906 H 0.39997 0.37297 0.91143 0.0
H907 H 0.39675 0.39068 0.85446 0.0
H908 H 0.61523 0.89082 0.45305 0.0
H909 H 0.61263 0.87363 0.39533 0.0
H910 H 0.64744 0.91434 0.34247 0.0
H911 H 0.65016 0.93143 0.39962 0.0
H912 H 0.59631 0.89145 0.33622 0.0
H913 H 0.66587 0.86588 0.29708 0.0
H914 H 0.65993 0.87191 0.34358 0.0
H915 H 0.66611 0.88975 0.31133 0.0
C916 C 0.62277 0.89577 0.42938 0.0
C917 C 0.63271 0.91257 0.43072 0.0
C918 C 0.62129 0.88594 0.39647 0.0
C919 C 0.63001 0.89261 0.36473 0.0
C920 C 0.64092 0.90871 0.36674 0.0
H921 H 0.61664 0.8955 0.13443 0.0
H922 H 0.62895 0.89565 0.19703 0.0
C923 C 0.64228 0.91859 0.39939 0.0
C924 C 0.62517 0.88494 0.32842 0.0
H925 H 0.64396 0.87031 0.24775 0.0
C926 C 0.60664 0.88639 0.31711 0.0
C927 C 0.63874 0.87865 0.30345 0.0
C928 C 0.65876 0.87629 0.31457 0.0
C929 C 0.60143 0.88274 0.28094 0.0
C930 C 0.61508 0.87689 0.2556 0.0
C931 C 0.63353 0.87476 0.26723 0.0
C932 C 0.61043 0.8741 0.21656 0.0
C933 C 0.58155 0.88627 0.26978 0.0
C934 C 0.59667 0.86129 0.20646 0.0
C935 C 0.58942 0.86146 0.17112 0.0
C936 C 0.59617 0.8741 0.14503 0.0
C937 C 0.6112 0.88565 0.1541 0.0
C938 C 0.61823 0.88573 0.18979 0.0
H939 H 0.57407 0.89494 0.2901 0.0
H940 H 0.58087 0.89335 0.24285 0.0
H941 H 0.5741 0.87281 0.26752 0.0
H942 H 0.5908 0.85188 0.22647 0.0
H943 H 0.578 0.8522 0.16461 0.0
H944 H 0.08915 0.35023 0.65294 0.0
H945 H 0.10319 0.35106 0.71379 0.0
H946 H 0.13158 0.40195 0.68587 0.0
H947 H 0.11821 0.40066 0.62422 0.0
H948 H 0.15181 0.3799 0.73475 0.0
H949 H 0.07869 0.38882 0.78013 0.0
H950 H 0.08313 0.36742 0.75661 0.0
H951 H 0.08521 0.38915 0.73264 0.0
C952 C 0.09886 0.36127 0.65948 0.0
C953 C 0.10246 0.37553 0.63424 0.0
C954 C 0.10678 0.36178 0.69424 0.0
C955 C 0.11793 0.37687 0.70465 0.0
C956 C 0.12289 0.39024 0.67841 0.0
H957 H 0.1465 0.4395 0.88946 0.0
H958 H 0.14628 0.42319 0.83115 0.0
C959 C 0.11528 0.38951 0.64324 0.0
C960 C 0.12227 0.38008 0.7437 0.0
H961 H 0.1016 0.38977 0.82537 0.0
C962 C 0.14086 0.38187 0.75469 0.0
C963 C 0.10792 0.38274 0.76964 0.0
C964 C 0.08762 0.38211 0.75922 0.0
C965 C 0.14547 0.38657 0.79086 0.0
C966 C 0.1311 0.38965 0.81641 0.0
C967 C 0.11258 0.38717 0.80575 0.0
C968 C 0.13455 0.3978 0.85288 0.0
C969 C 0.16562 0.38852 0.80131 0.0
C970 C 0.12811 0.38888 0.88458 0.0
C971 C 0.12814 0.39823 0.91811 0.0
C972 C 0.13431 0.41675 0.92022 0.0
C973 C 0.14152 0.42529 0.8887 0.0
C974 C 0.14163 0.41591 0.85538 0.0
H975 H 0.1747 0.38026 0.78294 0.0
H976 H 0.16978 0.40332 0.79891 0.0
H977 H 0.16801 0.38403 0.82996 0.0
H978 H 0.12238 0.37497 0.88305 0.0
H979 H 0.1225 0.39129 0.94191 0.0
H980 H 0.6169 0.61335 0.19333 0.0
H981 H 0.63035 0.61306 0.1319 0.0
H982 H 0.59839 0.66167 0.10364 0.0
H983 H 0.58447 0.66155 0.1644 0.0
H984 H 0.59082 0.63382 0.05975 0.0
H985 H 0.66707 0.64035 0.06878 0.0
H986 H 0.65849 0.62276 0.0991 0.0
H987 H 0.65194 0.64665 0.1061 0.0
C988 C 0.61328 0.62433 0.17438 0.0
C989 C 0.59954 0.63734 0.18335 0.0
C990 C 0.62104 0.62423 0.13932 0.0
C991 C 0.61544 0.63741 0.11315 0.0
C992 C 0.60292 0.65138 0.12334 0.0
H993 H 0.62006 0.62001 0.87429 0.0
H994 H 0.61882 0.63756 0.93183 0.0
C995 C 0.59496 0.65128 0.15803 0.0
C996 C 0.61985 0.63463 0.07395 0.0
H997 H 0.65504 0.62487 0.01467 0.0
C998 C 0.6049 0.63234 0.04968 0.0
C999 C 0.63819 0.63264 0.06086 0.0
C1000 C 0.65483 0.63592 0.08506 0.0
C1001 C 0.60769 0.62695 0.01334 0.0
C1002 C 0.62599 0.62402 1.00073 0.0
C1003 C 0.64103 0.62719 0.02443 0.0
C1004 C 0.62948 0.61507 0.96501 0.0
C1005 C 0.59098 0.6232 0.98949 0.0
C1006 C 0.63656 0.59697 0.96453 0.0
C1007 C 0.63729 0.58699 0.93197 0.0
C1008 C 0.63097 0.59492 0.89909 0.0
C1009 C 0.62487 0.61347 0.89921 0.0
C1010 C 0.62413 0.62349 0.93201 0.0
H1011 H 0.5778 0.62343 0.00521 0.0
H1012 H 0.59012 0.63398 0.96789 0.0
H1013 H 0.59224 0.60946 0.97589 0.0
H1014 H 0.64076 0.59022 0.98969 0.0
H1015 H 0.64233 0.57282 0.93287 0.0
H1016 H 0.39866 0.12136 0.45874 0.0
H1017 H 0.40301 0.13819 0.40104 0.0
H1018 H 0.3649 0.10071 0.34757 0.0
H1019 H 0.36049 0.08394 0.40471 0.0
H1020 H 0.41781 0.11815 0.34219 0.0
H1021 H 0.35147 0.15103 0.30177 0.0
H1022 H 0.35676 0.14479 0.34849 0.0
H1023 H 0.34883 0.12741 0.31675 0.0
C1024 C 0.39078 0.1171 0.43494 0.0
C1025 C 0.37941 0.10122 0.43608 0.0
C1026 C 0.39326 0.12672 0.40205 0.0
C1027 C 0.38413 0.12079 0.37015 0.0
C1028 C 0.37179 0.10575 0.37197 0.0
H1029 H 0.39749 0.11857 0.13906 0.0
H1030 H 0.38542 0.11855 0.20179 0.0
C1031 C 0.36945 0.09606 0.4046 0.0
C1032 C 0.38989 0.12786 0.33394 0.0
H1033 H 0.37314 0.14471 0.25317 0.0
C1034 C 0.40818 0.12436 0.32294 0.0
C1035 C 0.37717 0.13563 0.30881 0.0
C1036 C 0.35749 0.1401 0.31962 0.0
C1037 C 0.41389 0.12752 0.28692 0.0
C1038 C 0.40108 0.13495 0.26145 0.0
C1039 C 0.38292 0.13904 0.27275 0.0
C1040 C 0.40622 0.13757 0.22262 0.0
C1041 C 0.4333 0.12183 0.27606 0.0
C1042 C 0.42132 0.14891 0.21332 0.0
C1043 C 0.42841 0.14864 0.1779 0.0
C1044 C 0.42021 0.13739 0.15093 0.0
C1045 C 0.40408 0.12731 0.15941 0.0
C1046 C 0.39718 0.12731 0.19516 0.0
H1047 H 0.4396 0.11216 0.2962 0.0
H1048 H 0.43333 0.11499 0.24886 0.0
H1049 H 0.44225 0.13437 0.27455 0.0
H1050 H 0.42818 0.1573 0.23389 0.0
H1051 H 0.44068 0.15681 0.17189 0.0
H1052 H 0.92975 0.85248 0.65229 0.0
H1053 H 0.91693 0.85264 0.59044 0.0
H1054 H 0.87996 0.89718 0.62048 0.0
H1055 H 0.89227 0.89655 0.68306 0.0
H1056 H 0.86431 0.87238 0.56928 0.0
H1057 H 0.93488 0.89556 0.52761 0.0
H1058 H 0.93424 0.87335 0.54983 0.0
H1059 H 0.92799 0.89394 0.5748 0.0
C1060 C 0.91857 0.86201 0.64591 0.0
C1061 C 0.91217 0.87472 0.67216 0.0
C1062 C 0.91131 0.86211 0.61059 0.0
C1063 C 0.8979 0.87527 0.60066 0.0
C1064 C 0.89041 0.88699 0.62759 0.0
H1065 H 0.85972 0.93403 0.41815 0.0
H1066 H 0.86206 0.91679 0.47514 0.0
C1067 C 0.89743 0.88663 0.66327 0.0
C1068 C 0.89336 0.87832 0.56165 0.0
H1069 H 0.91261 0.89275 0.48134 0.0
C1070 C 0.87488 0.87667 0.54992 0.0
C1071 C 0.90719 0.88395 0.53646 0.0
C1072 C 0.92715 0.88698 0.54776 0.0
C1073 C 0.86981 0.88081 0.51373 0.0
C1074 C 0.88358 0.88688 0.48892 0.0
C1075 C 0.90213 0.88786 0.50033 0.0
C1076 C 0.87899 0.89477 0.45269 0.0
C1077 C 0.84975 0.87895 0.5025 0.0
C1078 C 0.88758 0.88801 0.4209 0.0
C1079 C 0.88633 0.89794 0.38808 0.0
C1080 C 0.87675 0.91493 0.38688 0.0
C1081 C 0.86733 0.92106 0.41827 0.0
C1082 C 0.86846 0.91109 0.45083 0.0
H1083 H 0.84236 0.86863 0.51978 0.0
H1084 H 0.84275 0.89255 0.50597 0.0
H1085 H 0.84849 0.87473 0.47341 0.0
H1086 H 0.89595 0.87553 0.42193 0.0
H1087 H 0.89375 0.89289 0.36436 0.0
H1088 H 0.07565 0.14765 0.8948 0.0
H1089 H 0.0843 0.14599 0.95952 0.0
H1090 H 0.12705 0.10627 0.93366 0.0
H1091 H 0.11869 0.10799 0.86914 0.0
H1092 H 0.08231 0.1138 1.0007 0.0
H1093 H 0.15418 0.1414 1.00293 0.0
H1094 H 0.13858 0.14516 0.96499 0.0
H1095 H 0.15061 0.12341 0.96967 0.0
C1096 C 0.08715 0.13886 0.9028 0.0
C1097 C 0.09647 0.12795 0.87677 0.0
C1098 C 0.09205 0.1379 0.93981 0.0
C1099 C 0.10647 0.12616 0.95143 0.0
C1100 C 0.11616 0.11572 0.92533 0.0
H1101 H 0.14443 0.08125 0.15837 0.0
H1102 H 0.14084 0.0904 0.09415 0.0
C1103 C 0.11126 0.11664 0.8884 0.0
C1104 C 0.11018 0.12341 0.99102 0.0
H1105 H 0.14422 0.1249 0.05616 0.0
C1106 C 0.09579 0.11645 0.01291 0.0
C1107 C 0.12783 0.12666 0.00684 0.0
C1108 C 0.14365 0.13473 0.98499 0.0
C1109 C 0.09865 0.11222 0.04994 0.0
C1110 C 0.11631 0.11541 0.06578 0.0
C1111 C 0.1307 0.12248 0.04398 0.0
C1112 C 0.11998 0.11129 0.1049 0.0
C1113 C 0.08286 0.10382 0.07148 0.0
C1114 C 0.10995 0.12046 0.13232 0.0
C1115 C 0.11192 0.11523 0.16888 0.0
C1116 C 0.1241 0.10083 0.17887 0.0
C1117 C 0.13492 0.09237 0.15159 0.0
C1118 C 0.13287 0.09757 0.11489 0.0
H1119 H 0.07196 0.09794 0.05334 0.0
H1120 H 0.08793 0.09265 0.08988 0.0
H1121 H 0.07637 0.11476 0.08855 0.0
H1122 H 0.10023 0.13136 0.12531 0.0
H1123 H 0.10349 0.12217 0.18922 0.0
H1124 H 0.93635 0.64921 0.42703 0.0
H1125 H 0.92748 0.64795 0.36238 0.0
H1126 H 0.88497 0.60773 0.38772 0.0
H1127 H 0.89355 0.60905 0.45216 0.0
H1128 H 0.92951 0.61611 0.32035 0.0
H1129 H 0.85748 0.64297 0.31959 0.0
H1130 H 0.87315 0.64663 0.35748 0.0
H1131 H 0.8612 0.62481 0.3524 0.0
C1132 C 0.92485 0.6404 0.41895 0.0
C1133 C 0.91567 0.62923 0.44478 0.0
C1134 C 0.91982 0.63967 0.38198 0.0
C1135 C 0.90541 0.6279 0.37022 0.0
C1136 C 0.89585 0.61721 0.39617 0.0
H1137 H 0.86699 0.58303 0.16371 0.0
H1138 H 0.87088 0.59213 0.22789 0.0
C1139 C 0.90088 0.6179 0.43305 0.0
C1140 C 0.9016 0.62535 0.33061 0.0
H1141 H 0.86728 0.62664 0.26603 0.0
C1142 C 0.91597 0.61864 0.30838 0.0
C1143 C 0.88386 0.62846 0.3151 0.0
C1144 C 0.86807 0.63628 0.33729 0.0
C1145 C 0.91299 0.61451 0.27135 0.0
C1146 C 0.89523 0.61751 0.25584 0.0
C1147 C 0.88088 0.62435 0.27796 0.0
C1148 C 0.8914 0.61337 0.21678 0.0
C1149 C 0.92876 0.60638 0.24942 0.0
C1150 C 0.90115 0.62274 0.18919 0.0
C1151 C 0.89901 0.61755 0.15262 0.0
C1152 C 0.88693 0.60298 0.14283 0.0
C1153 C 0.87641 0.59429 0.17033 0.0
C1154 C 0.87863 0.59946 0.20701 0.0
H1155 H 0.93984 0.60067 0.26729 0.0
H1156 H 0.92372 0.59515 0.2311 0.0
H1157 H 0.93501 0.61744 0.23224 0.0
H1158 H 0.91079 0.63378 0.19603 0.0
H1159 H 0.90721 0.62466 0.13213 0.0
H1160 H 0.41696 0.41983 0.66832 0.0
H1161 H 0.41865 0.41129 0.60403 0.0
H1162 H 0.35942 0.40197 0.60256 0.0
H1163 H 0.35757 0.41214 0.66651 0.0
H1164 H 0.41325 0.38235 0.56853 0.0
H1165 H 0.36209 0.43301 0.51531 0.0
H1166 H 0.36975 0.43334 0.56211 0.0
H1167 H 0.35204 0.41721 0.54752 0.0
C1168 C 0.40427 0.41604 0.6542 0.0
C1169 C 0.38711 0.41676 0.67225 0.0
C1170 C 0.40524 0.4111 0.61738 0.0
C1171 C 0.38913 0.40626 0.59783 0.0
C1172 C 0.37199 0.40628 0.61636 0.0
H1173 H 0.41235 0.35899 0.37851 0.0
H1174 H 0.40302 0.3612 0.44287 0.0
C1175 C 0.37094 0.4119 0.65303 0.0
C1176 C 0.39065 0.40122 0.5583 0.0
H1177 H 0.37405 0.41138 0.47314 0.0
C1178 C 0.4047 0.3888 0.54768 0.0
C1179 C 0.37959 0.40961 0.53083 0.0
C1180 C 0.36516 0.42416 0.53944 0.0
C1181 C 0.40859 0.3852 0.51072 0.0
C1182 C 0.39731 0.39331 0.48327 0.0
C1183 C 0.3827 0.40507 0.49397 0.0
C1184 C 0.40135 0.3913 0.44339 0.0
C1185 C 0.42545 0.37362 0.5018 0.0
C1186 C 0.40238 0.40727 0.42134 0.0
C1187 C 0.40682 0.40591 0.38432 0.0
C1188 C 0.4108 0.38859 0.36852 0.0
C1189 C 0.40952 0.37253 0.39016 0.0
C1190 C 0.40441 0.37383 0.42707 0.0
H1191 H 0.43545 0.37326 0.52494 0.0
H1192 H 0.42106 0.35911 0.49626 0.0
H1193 H 0.43282 0.37907 0.47742 0.0
H1194 H 0.40014 0.42094 0.43293 0.0
H1195 H 0.40782 0.41855 0.36835 0.0
H1196 H 0.64769 0.93429 0.65377 0.0
H1197 H 0.6464 0.92536 0.71839 0.0
H1198 H 0.60307 0.88584 0.69404 0.0
H1199 H 0.60438 0.89448 0.62965 0.0
H1200 H 0.61519 0.92931 0.76193 0.0
H1201 H 0.63725 0.85558 0.75986 0.0
H1202 H 0.64156 0.87126 0.72226 0.0
H1203 H 0.61909 0.86071 0.72783 0.0
C1204 C 0.63815 0.92343 0.66207 0.0
C1205 C 0.62614 0.91511 0.63653 0.0
C1206 C 0.63741 0.91837 0.69901 0.0
C1207 C 0.6248 0.90476 0.71102 0.0
C1208 C 0.61319 0.89607 0.68537 0.0
H1209 H 0.57935 0.86779 0.91746 0.0
H1210 H 0.58839 0.8715 0.85327 0.0
C1211 C 0.61388 0.90114 0.64853 0.0
C1212 C 0.62246 0.90089 0.75064 0.0
H1213 H 0.62215 0.86609 0.81427 0.0
C1214 C 0.61695 0.91554 0.77347 0.0
C1215 C 0.62457 0.88287 0.76558 0.0
C1216 C 0.63111 0.86673 0.7427 0.0
C1217 C 0.61299 0.91259 0.81058 0.0
C1218 C 0.61496 0.89455 0.82551 0.0
C1219 C 0.62065 0.87991 0.80279 0.0
C1220 C 0.61084 0.89069 0.86455 0.0
C1221 C 0.6061 0.92872 0.83316 0.0
C1222 C 0.62088 0.8997 0.89225 0.0
C1223 C 0.61572 0.89766 0.92884 0.0
C1224 C 0.6005 0.88642 0.93854 0.0
C1225 C 0.59112 0.87656 0.91092 0.0
C1226 C 0.59626 0.87868 0.87422 0.0
H1227 H 0.60097 0.94029 0.81578 0.0
H1228 H 0.59473 0.9243 0.8517 0.0
H1229 H 0.61766 0.93415 0.85016 0.0
H1230 H 0.63243 0.90871 0.88548 0.0
H1231 H 0.62337 0.90533 0.94942 0.0
H1232 H 0.11905 0.40839 0.43489 0.0
H1233 H 0.12662 0.41037 0.37001 0.0
H1234 H 0.08952 0.36469 0.3475 0.0
H1235 H 0.0816 0.36278 0.41254 0.0
H1236 H 0.14095 0.38508 0.31894 0.0
H1237 H 0.0691 0.40675 0.28362 0.0
H1238 H 0.07747 0.40614 0.33008 0.0
H1239 H 0.07082 0.38499 0.30742 0.0
C1240 C 0.11261 0.39862 0.41626 0.0
C1241 C 0.09956 0.38554 0.42888 0.0
C1242 C 0.117 0.39976 0.37914 0.0
C1243 C 0.1084 0.38791 0.35383 0.0
C1244 C 0.09606 0.37421 0.3665 0.0
H1245 H 0.10594 0.39069 0.11645 0.0
H1246 H 0.10379 0.38106 0.18026 0.0
C1247 C 0.09163 0.37307 0.4037 0.0
C1248 C 0.11169 0.39063 0.31413 0.0
H1249 H 0.09008 0.40326 0.23486 0.0
C1250 C 0.12983 0.38898 0.30048 0.0
C1251 C 0.09718 0.39584 0.29015 0.0
C1252 C 0.07757 0.39871 0.30348 0.0
C1253 C 0.13382 0.39227 0.26341 0.0
C1254 C 0.11932 0.39763 0.23955 0.0
C1255 C 0.10117 0.39908 0.25316 0.0
C1256 C 0.12256 0.4022 0.20047 0.0
C1257 C 0.15345 0.38979 0.25006 0.0
C1258 C 0.13405 0.41715 0.19047 0.0
C1259 C 0.13536 0.42269 0.15385 0.0
C1260 C 0.12506 0.41346 0.12665 0.0
C1261 C 0.11405 0.39813 0.13667 0.0
C1262 C 0.11278 0.3926 0.17318 0.0
H1263 H 0.16167 0.38086 0.26879 0.0
H1264 H 0.15368 0.38356 0.2223 0.0
H1265 H 0.16035 0.40358 0.24866 0.0
H1266 H 0.14144 0.42501 0.21112 0.0
H1267 H 0.14387 0.43462 0.14708 0.0
H1268 H 0.59282 0.5968 0.6897 0.0
H1269 H 0.59099 0.60531 0.62547 0.0
H1270 H 0.65083 0.60782 0.62016 0.0
H1271 H 0.65264 0.59766 0.68413 0.0
H1272 H 0.59897 0.63293 0.58784 0.0
H1273 H 0.64319 0.57596 0.53515 0.0
H1274 H 0.63631 0.5772 0.58232 0.0
H1275 H 0.65543 0.59104 0.56579 0.0
C1276 C 0.60561 0.59915 0.67483 0.0
C1277 C 0.62288 0.59645 0.6918 0.0
C1278 C 0.60456 0.60407 0.63801 0.0
C1279 C 0.62076 0.60688 0.61734 0.0
C1280 C 0.63809 0.60506 0.63485 0.0
H1281 H 0.59915 0.65237 0.39568 0.0
H1282 H 0.6089 0.65042 0.45988 0.0
C1283 C 0.63915 0.59947 0.67154 0.0
C1284 C 0.61912 0.61147 0.57761 0.0
H1285 H 0.63275 0.59796 0.49227 0.0
C1286 C 0.60633 0.6252 0.56696 0.0
C1287 C 0.62863 0.6014 0.5501 0.0
C1288 C 0.6415 0.58547 0.55885 0.0
C1289 C 0.60211 0.62853 0.53001 0.0
C1290 C 0.61184 0.61867 0.5025 0.0
C1291 C 0.62527 0.60558 0.51315 0.0
C1292 C 0.60723 0.62035 0.46278 0.0
C1293 C 0.58648 0.64177 0.52129 0.0
C1294 C 0.60407 0.60417 0.44213 0.0
C1295 C 0.59939 0.60528 0.40518 0.0
C1296 C 0.59725 0.6226 0.3881 0.0
C1297 C 0.60051 0.63885 0.40839 0.0
C1298 C 0.60588 0.63772 0.44521 0.0
H1299 H 0.57708 0.6437 0.54502 0.0
H1300 H 0.59236 0.65558 0.51431 0.0
H1301 H 0.57807 0.63674 0.49785 0.0
H1302 H 0.60495 0.59057 0.45472 0.0
H1303 H 0.59686 0.59252 0.39022 0.0
H1304 H 0.40887 0.1167 0.63586 0.0
H1305 H 0.41059 0.12521 0.70036 0.0
H1306 H 0.36341 0.09017 0.72324 0.0
H1307 H 0.36173 0.08133 0.65859 0.0
H1308 H 0.38525 0.14133 0.74954 0.0
H1309 H 0.40415 0.06934 0.79009 0.0
H1310 H 0.40434 0.07698 0.74314 0.0
H1311 H 0.38275 0.07142 0.76519 0.0
C1312 C 0.39872 0.11091 0.65448 0.0
C1313 C 0.38526 0.09818 0.64209 0.0
C1314 C 0.39972 0.11584 0.69138 0.0
C1315 C 0.38734 0.10809 0.71673 0.0
C1316 C 0.37333 0.09605 0.70424 0.0
H1317 H 0.38906 0.10902 0.95443 0.0
H1318 H 0.37946 0.10625 0.89065 0.0
C1319 C 0.37231 0.0911 0.66725 0.0
C1320 C 0.38981 0.11197 0.75634 0.0
H1321 H 0.40109 0.09129 0.83733 0.0
C1322 C 0.38863 0.13039 0.76882 0.0
C1323 C 0.39433 0.09769 0.7814 0.0
C1324 C 0.39664 0.07776 0.76938 0.0
C1325 C 0.39173 0.1349 0.80574 0.0
C1326 C 0.39644 0.12064 0.8307 0.0
C1327 C 0.3974 0.10221 0.81824 0.0
C1328 C 0.40091 0.1244 0.8697 0.0
C1329 C 0.38974 0.15485 0.81776 0.0
C1330 C 0.41601 0.1358 0.87933 0.0
C1331 C 0.4215 0.1375 0.91593 0.0
C1332 C 0.41211 0.12767 0.94353 0.0
C1333 C 0.39662 0.11679 0.9339 0.0
C1334 C 0.39111 0.11515 0.8974 0.0
H1335 H 0.38101 0.16294 0.79843 0.0
H1336 H 0.38353 0.15575 0.84546 0.0
H1337 H 0.40367 0.16145 0.81867 0.0
H1338 H 0.42404 0.14277 0.85841 0.0
H1339 H 0.43358 0.14588 0.92237 0.0
H1340 H 0.9059 0.89448 0.19185 0.0
H1341 H 0.90844 0.88472 0.12816 0.0
H1342 H 0.86783 0.92574 0.09709 0.0
H1343 H 0.86496 0.93545 0.16113 0.0
H1344 H 0.86363 0.8911 0.06048 0.0
H1345 H 0.93625 0.91686 0.05378 0.0
H1346 H 0.93207 0.9004 0.08972 0.0
H1347 H 0.92082 0.92268 0.09083 0.0
C1348 C 0.89734 0.90133 0.17158 0.0
C1349 C 0.88535 0.91588 0.18154 0.0
C1350 C 0.89888 0.89577 0.13513 0.0
C1351 C 0.88864 0.90478 0.10776 0.0
C1352 C 0.87597 0.91869 0.11776 0.0
H1353 H 0.88768 0.90541 0.87176 0.0
H1354 H 0.87992 0.90804 0.93644 0.0
C1355 C 0.87433 0.92421 0.15436 0.0
C1356 C 0.89181 0.90021 0.06866 0.0
H1357 H 0.92511 0.90046 1.00229 0.0
C1358 C 0.87706 0.89315 0.0477 0.0
C1359 C 0.90934 0.90291 0.05203 0.0
C1360 C 0.9255 0.91128 0.07259 0.0
C1361 C 0.87945 0.8885 0.01065 0.0
C1362 C 0.89698 0.89123 0.99405 0.0
C1363 C 0.91173 0.8982 0.01511 0.0
C1364 C 0.90024 0.88791 0.95448 0.0
C1365 C 0.86327 0.88047 0.98973 0.0
C1366 C 0.91427 0.87571 0.94296 0.0
C1367 C 0.91882 0.87421 0.90587 0.0
C1368 C 0.90952 0.88505 0.87963 0.0
C1369 C 0.89508 0.8968 0.89118 0.0
C1370 C 0.89053 0.89825 0.9282 0.0
H1371 H 0.85277 0.87427 0.00834 0.0
H1372 H 0.85641 0.89172 0.97402 0.0
H1373 H 0.86794 0.86966 0.97014 0.0
H1374 H 0.92203 0.86769 0.96281 0.0
H1375 H 0.93006 0.8651 0.89794 0.0
loop_
_geom_bond_atom_site_label_1
_geom_bond_atom_site_label_2
_geom_bond_distance
_geom_bond_site_symmetry_2
_ccdc_geom_bond_type
O0 Cd1 2.223 . S
O0 C8 1.315 . S
Cd1 O0 2.223 . S
Cd1 O4 2.297 . S
Cd1 O5 2.439 . S
Cd1 O11 2.240 . S
Cd2 O3 2.240 . S
Cd2 O10 2.223 . S
Cd2 O12 2.297 . S
Cd2 O13 2.439 . S
O3 Cd2 2.240 . S
O3 C8 1.279 . S
O4 Cd1 2.297 . S
O4 C6 1.247 . S
O5 Cd1 2.439 . S
O5 C6 1.208 . S
C6 O4 1.247 . S
C6 O5 1.208 . S
C7 O12 1.247 . S
C7 O13 1.208 . S
C8 O0 1.315 . S
C8 O3 1.279 . S
C9 O10 1.315 . S
C9 O11 1.279 . S
O10 Cd2 2.223 . S
O10 C9 1.315 . S
O11 Cd1 2.240 . S
O11 C9 1.279 . S
O12 Cd2 2.297 . S
O12 C7 1.247 . S
O13 Cd2 2.439 . S
O13 C7 1.208 . S
O14 Cd15 2.223 . S
O14 C22 1.315 . S
Cd15 O14 2.223 . S
Cd15 O18 2.297 . S
Cd15 O19 2.439 . S
Cd15 O25 2.240 . S
Cd16 O17 2.240 . S
Cd16 O24 2.223 . S
Cd16 O26 2.297 . S
Cd16 O27 2.439 . S
O17 Cd16 2.240 . S
O17 C22 1.279 . S
O18 Cd15 2.297 . S
O18 C20 1.247 . S
O19 Cd15 2.439 . S
O19 C20 1.208 . S
C20 O18 1.247 . S
C20 O19 1.208 . S
C21 O26 1.247 . S
C21 O27 1.208 . S
C22 O14 1.315 . S
C22 O17 1.279 . S
C23 O24 1.315 . S
C23 O25 1.279 . S
O24 Cd16 2.223 . S
O24 C23 1.315 . S
O25 Cd15 2.240 . S
O25 C23 1.279 . S
O26 Cd16 2.297 . S
O26 C21 1.247 . S
O27 Cd16 2.439 . S
O27 C21 1.208 . S
O28 Cd29 2.223 . S
O28 C36 1.315 . S
Cd29 O28 2.223 . S
Cd29 O32 2.297 . S
Cd29 O33 2.439 . S
Cd29 O39 2.240 . S
Cd30 O31 2.240 . S
Cd30 O38 2.223 . S
Cd30 O40 2.297 . S
Cd30 O41 2.439 . S
O31 Cd30 2.240 . S
O31 C36 1.279 . S
O32 Cd29 2.297 . S
O32 C34 1.247 . S
O33 Cd29 2.439 . S
O33 C34 1.208 . S
C34 O32 1.247 . S
C34 O33 1.208 . S
C35 O40 1.247 . S
C35 O41 1.208 . S
C36 O28 1.315 . S
C36 O31 1.279 . S
C37 O38 1.315 . S
C37 O39 1.279 . S
O38 Cd30 2.223 . S
O38 C37 1.315 . S
O39 Cd29 2.240 . S
O39 C37 1.279 . S
O40 Cd30 2.297 . S
O40 C35 1.247 . S
O41 Cd30 2.439 . S
O41 C35 1.208 . S
O42 Cd43 2.223 . S
O42 C50 1.315 . S
Cd43 O42 2.223 . S
Cd43 O46 2.297 . S
Cd43 O47 2.439 . S
Cd43 O53 2.240 . S
Cd44 O45 2.240 . S
Cd44 O52 2.223 . S
Cd44 O54 2.297 1_554 S
Cd44 O55 2.439 1_554 S
O45 Cd44 2.240 . S
O45 C50 1.279 . S
O46 Cd43 2.297 . S
O46 C48 1.247 . S
O47 Cd43 2.439 . S
O47 C48 1.208 . S
C48 O46 1.247 . S
C48 O47 1.208 . S
C49 O54 1.247 . S
C49 O55 1.208 . S
C50 O42 1.315 . S
C50 O45 1.279 . S
C51 O52 1.315 . S
C51 O53 1.279 . S
O52 Cd44 2.223 . S
O52 C51 1.315 . S
O53 Cd43 2.240 . S
O53 C51 1.279 . S
O54 Cd44 2.297 1_556 S
O54 C49 1.247 . S
O55 Cd44 2.439 1_556 S
O55 C49 1.208 . S
O56 Cd57 2.223 . S
O56 C64 1.315 . S
Cd57 O56 2.223 . S
Cd57 O60 2.297 . S
Cd57 O61 2.449 . S
Cd57 O67 2.240 1_556 S
Cd58 O59 2.240 1_554 S
Cd58 O66 2.223 . S
Cd58 O68 2.297 . S
Cd58 O69 2.439 . S
O59 Cd58 2.240 1_556 S
O59 C64 1.279 . S
O60 Cd57 2.297 . S
O60 C62 1.247 . S
O61 Cd57 2.449 . S
O61 C62 1.228 . S
C62 O60 1.247 . S
C62 O61 1.228 . S
C63 O68 1.247 . S
C63 O69 1.208 . S
C64 O56 1.315 . S
C64 O59 1.279 . S
C65 O66 1.315 . S
C65 O67 1.279 . S
O66 Cd58 2.223 . S
O66 C65 1.315 . S
O67 Cd57 2.240 1_554 S
O67 C65 1.279 . S
O68 Cd58 2.297 . S
O68 C63 1.247 . S
O69 Cd58 2.439 . S
O69 C63 1.208 . S
O70 Cd71 2.223 . S
O70 C78 1.315 . S
Cd71 O70 2.223 . S
Cd71 O74 2.297 . S
Cd71 O75 2.439 . S
Cd71 O81 2.240 . S
Cd72 O73 2.240 . S
Cd72 O80 2.223 . S
Cd72 O82 2.297 . S
Cd72 O83 2.439 . S
O73 Cd72 2.240 . S
O73 C78 1.279 . S
O74 Cd71 2.297 . S
O74 C76 1.247 . S
O75 Cd71 2.439 . S
O75 C76 1.208 . S
C76 O74 1.247 . S
C76 O75 1.208 . S
C77 O82 1.247 . S
C77 O83 1.208 . S
C78 O70 1.315 . S
C78 O73 1.279 . S
C79 O80 1.315 . S
C79 O81 1.279 . S
O80 Cd72 2.223 . S
O80 C79 1.315 . S
O81 Cd71 2.240 . S
O81 C79 1.279 . S
O82 Cd72 2.297 . S
O82 C77 1.247 . S
O83 Cd72 2.439 . S
O83 C77 1.208 . S
O84 Cd85 2.223 . S
O84 C92 1.315 . S
Cd85 O84 2.223 . S
Cd85 O88 2.297 . S
Cd85 O89 2.439 . S
Cd85 O95 2.240 . S
Cd86 O87 2.240 . S
Cd86 O94 2.223 . S
Cd86 O96 2.297 . S
Cd86 O97 2.439 . S
O87 Cd86 2.240 . S
O87 C92 1.279 . S
O88 Cd85 2.297 . S
O88 C90 1.247 . S
O89 Cd85 2.439 . S
O89 C90 1.208 . S
C90 O88 1.247 . S
C90 O89 1.208 . S
C91 O96 1.247 . S
C91 O97 1.208 . S
C92 O84 1.315 . S
C92 O87 1.279 . S
C93 O94 1.315 . S
C93 O95 1.279 . S
O94 Cd86 2.223 . S
O94 C93 1.315 . S
O95 Cd85 2.240 . S
O95 C93 1.279 . S
O96 Cd86 2.297 . S
O96 C91 1.247 . S
O97 Cd86 2.439 . S
O97 C91 1.208 . S
O98 Cd99 2.223 . S
O98 C106 1.315 . S
Cd99 O98 2.223 . S
Cd99 O102 2.297 . S
Cd99 O103 2.439 . S
Cd99 O109 2.240 . S
Cd100 O101 2.240 . S
Cd100 O108 2.223 . S
Cd100 O110 2.297 . S
Cd100 O111 2.439 . S
O101 Cd100 2.240 . S
O101 C106 1.279 . S
O102 Cd99 2.297 . S
O102 C104 1.247 . S
O103 Cd99 2.439 . S
O103 C104 1.208 . S
C104 O102 1.247 . S
C104 O103 1.208 . S
C105 O110 1.247 . S
C105 O111 1.208 . S
C106 O98 1.315 . S
C106 O101 1.279 . S
C107 O108 1.315 . S
C107 O109 1.279 . S
O108 Cd100 2.223 . S
O108 C107 1.315 . S
O109 Cd99 2.240 . S
O109 C107 1.279 . S
O110 Cd100 2.297 . S
O110 C105 1.247 . S
O111 Cd100 2.439 . S
O111 C105 1.208 . S
O112 Cd113 2.223 . S
O112 C120 1.315 . S
Cd113 O112 2.223 . S
Cd113 O116 2.297 . S
Cd113 O117 2.439 . S
Cd113 O123 2.240 . S
Cd114 O115 2.240 . S
Cd114 O122 2.223 . S
Cd114 O124 2.297 . S
Cd114 O125 2.439 . S
O115 Cd114 2.240 . S
O115 C120 1.279 . S
O116 Cd113 2.297 . S
O116 C118 1.247 . S
O117 Cd113 2.439 . S
O117 C118 1.208 . S
C118 O116 1.247 . S
C118 O117 1.208 . S
C119 O124 1.247 . S
C119 O125 1.208 . S
C120 O112 1.315 . S
C120 O115 1.279 . S
C121 O122 1.315 . S
C121 O123 1.279 . S
O122 Cd114 2.223 . S
O122 C121 1.315 . S
O123 Cd113 2.240 . S
O123 C121 1.279 . S
O124 Cd114 2.297 . S
O124 C119 1.247 . S
O125 Cd114 2.439 . S
O125 C119 1.208 . S
O126 Cd127 2.223 . S
O126 C134 1.315 . S
Cd127 O126 2.223 . S
Cd127 O130 2.297 . S
Cd127 O131 2.439 . S
Cd127 O137 2.240 . S
Cd128 O129 2.240 . S
Cd128 O136 2.223 . S
Cd128 O138 2.297 1_554 S
Cd128 O139 2.439 1_554 S
O129 Cd128 2.240 . S
O129 C134 1.279 . S
O130 Cd127 2.297 . S
O130 C132 1.247 . S
O131 Cd127 2.439 . S
O131 C132 1.208 . S
C132 O130 1.247 . S
C132 O131 1.208 . S
C133 O138 1.247 . S
C133 O139 1.208 . S
C134 O126 1.315 . S
C134 O129 1.279 . S
C135 O136 1.315 . S
C135 O137 1.279 . S
O136 Cd128 2.223 . S
O136 C135 1.315 . S
O137 Cd127 2.240 . S
O137 C135 1.279 . S
O138 Cd128 2.297 1_556 S
O138 C133 1.247 . S
O139 Cd128 2.439 1_556 S
O139 C133 1.208 . S
O140 Cd141 2.223 . S
O140 C148 1.315 . S
Cd141 O140 2.223 . S
Cd141 O144 2.297 . S
Cd141 O145 2.439 . S
Cd141 O151 2.240 . S
Cd142 O143 2.240 . S
Cd142 O150 2.223 . S
Cd142 O152 2.297 . S
Cd142 O153 2.439 . S
O143 Cd142 2.240 . S
O143 C148 1.279 . S
O144 Cd141 2.297 . S
O144 C146 1.247 . S
O145 Cd141 2.439 . S
O145 C146 1.208 . S
C146 O144 1.247 . S
C146 O145 1.208 . S
C147 O152 1.247 . S
C147 O153 1.208 . S
C148 O140 1.315 . S
C148 O143 1.279 . S
C149 O150 1.315 . S
C149 O151 1.279 . S
O150 Cd142 2.223 . S
O150 C149 1.315 . S
O151 Cd141 2.240 . S
O151 C149 1.279 . S
O152 Cd142 2.297 . S
O152 C147 1.247 . S
O153 Cd142 2.439 . S
O153 C147 1.208 . S
O154 Cd155 2.223 . S
O154 C162 1.315 . S
Cd155 O154 2.223 . S
Cd155 O158 2.297 . S
Cd155 O159 2.439 . S
Cd155 O165 2.240 . S
Cd156 O157 2.240 . S
Cd156 O164 2.223 . S
Cd156 O166 2.297 . S
Cd156 O167 2.439 . S
O157 Cd156 2.240 . S
O157 C162 1.279 . S
O158 Cd155 2.297 . S
O158 C160 1.247 . S
O159 Cd155 2.439 . S
O159 C160 1.208 . S
C160 O158 1.247 . S
C160 O159 1.208 . S
C161 O166 1.247 . S
C161 O167 1.208 . S
C162 O154 1.315 . S
C162 O157 1.279 . S
C163 O164 1.315 . S
C163 O165 1.279 . S
O164 Cd156 2.223 . S
O164 C163 1.315 . S
O165 Cd155 2.240 . S
O165 C163 1.279 . S
O166 Cd156 2.297 . S
O166 C161 1.247 . S
O167 Cd156 2.439 . S
O167 C161 1.208 . S
O168 Cd169 2.223 . S
O168 C176 1.315 . S
Cd169 O168 2.223 . S
Cd169 O172 2.297 . S
Cd169 O173 2.439 . S
Cd169 O179 2.240 . S
Cd170 O171 2.240 . S
Cd170 O178 2.223 . S
Cd170 O180 2.297 . S
Cd170 O181 2.439 . S
O171 Cd170 2.240 . S
O171 C176 1.279 . S
O172 Cd169 2.297 . S
O172 C174 1.247 . S
O173 Cd169 2.439 . S
O173 C174 1.208 . S
C174 O172 1.247 . S
C174 O173 1.208 . S
C175 O180 1.247 . S
C175 O181 1.208 . S
C176 O168 1.315 . S
C176 O171 1.279 . S
C177 O178 1.315 . S
C177 O179 1.279 . S
O178 Cd170 2.223 . S
O178 C177 1.315 . S
O179 Cd169 2.240 . S
O179 C177 1.279 . S
O180 Cd170 2.297 . S
O180 C175 1.247 . S
O181 Cd170 2.439 . S
O181 C175 1.208 . S
O182 Cd183 2.223 . S
O182 C190 1.315 . S
Cd183 O182 2.223 . S
Cd183 O186 2.297 . S
Cd183 O187 2.439 . S
Cd183 O193 2.240 . S
Cd184 O185 2.240 . S
Cd184 O192 2.223 . S
Cd184 O194 2.297 . S
Cd184 O195 2.439 . S
O185 Cd184 2.240 . S
O185 C190 1.279 . S
O186 Cd183 2.297 . S
O186 C188 1.247 . S
O187 Cd183 2.439 . S
O187 C188 1.208 . S
C188 O186 1.247 . S
C188 O187 1.208 . S
C189 O194 1.247 . S
C189 O195 1.208 . S
C190 O182 1.315 . S
C190 O185 1.279 . S
C191 O192 1.315 . S
C191 O193 1.279 . S
O192 Cd184 2.223 . S
O192 C191 1.315 . S
O193 Cd183 2.240 . S
O193 C191 1.279 . S
O194 Cd184 2.297 . S
O194 C189 1.247 . S
O195 Cd184 2.439 . S
O195 C189 1.208 . S
O196 Cd197 2.223 . S
O196 C204 1.315 . S
Cd197 O196 2.223 . S
Cd197 O200 2.297 . S
Cd197 O201 2.449 . S
Cd197 O207 2.240 1_556 S
Cd198 O199 2.240 1_554 S
Cd198 O206 2.223 . S
Cd198 O208 2.297 . S
Cd198 O209 2.439 . S
O199 Cd198 2.240 1_556 S
O199 C204 1.279 . S
O200 Cd197 2.297 . S
O200 C202 1.247 . S
O201 Cd197 2.449 . S
O201 C202 1.228 . S
C202 O200 1.247 . S
C202 O201 1.228 . S
C203 O208 1.247 . S
C203 O209 1.208 . S
C204 O196 1.315 . S
C204 O199 1.279 . S
C205 O206 1.315 . S
C205 O207 1.279 . S
O206 Cd198 2.223 . S
O206 C205 1.315 . S
O207 Cd197 2.240 1_554 S
O207 C205 1.279 . S
O208 Cd198 2.297 . S
O208 C203 1.247 . S
O209 Cd198 2.439 . S
O209 C203 1.208 . S
O210 Cd211 2.223 . S
O210 C218 1.315 . S
Cd211 O210 2.223 . S
Cd211 O214 2.297 . S
Cd211 O215 2.439 . S
Cd211 O221 2.240 . S
Cd212 O213 2.240 . S
Cd212 O220 2.223 . S
Cd212 O222 2.297 . S
Cd212 O223 2.439 . S
O213 Cd212 2.240 . S
O213 C218 1.279 . S
O214 Cd211 2.297 . S
O214 C216 1.247 . S
O215 Cd211 2.439 . S
O215 C216 1.208 . S
C216 O214 1.247 . S
C216 O215 1.208 . S
C217 O222 1.247 . S
C217 O223 1.208 . S
C218 O210 1.315 . S
C218 O213 1.279 . S
C219 O220 1.315 . S
C219 O221 1.279 . S
O220 Cd212 2.223 . S
O220 C219 1.315 . S
O221 Cd211 2.240 . S
O221 C219 1.279 . S
O222 Cd212 2.297 . S
O222 C217 1.247 . S
O223 Cd212 2.439 . S
O223 C217 1.208 . S
H224 C232 0.929 . S
H225 C234 0.930 . S
H226 C236 0.930 . S
H227 C239 0.929 . S
H228 C242 0.930 . S
H229 C244 0.960 . S
H230 C244 0.960 . S
H231 C244 0.960 . S
C232 H224 0.929 . S
C232 C233 1.377 . S
C232 C234 1.384 . S
C233 C232 1.377 . S
C233 C239 1.390 . S
C234 H225 0.930 . S
C234 C232 1.384 . S
C234 C235 1.372 . S
C235 C234 1.372 . S
C235 C236 1.400 . S
C235 C240 1.490 . S
C236 H226 0.930 . S
C236 C235 1.400 . S
C236 C239 1.386 . S
H237 C253 0.930 . S
H238 C254 0.931 . S
C239 H227 0.929 . S
C239 C233 1.390 . S
C239 C236 1.386 . S
C240 C235 1.490 . S
C240 C242 1.395 . S
C240 C243 1.403 . S
H241 C247 0.930 . S
C242 H228 0.930 . S
C242 C240 1.395 . S
C242 C245 1.403 . S
C243 C240 1.403 . S
C243 C244 1.524 . S
C243 C247 1.400 . S
C244 H229 0.960 . S
C244 H230 0.960 . S
C244 H231 0.960 . S
C244 C243 1.524 . S
C245 C242 1.403 . S
C245 C246 1.392 . S
C245 C249 1.495 . S
C246 C245 1.392 . S
C246 C247 1.385 . S
C246 C248 1.478 . S
C247 H241 0.930 . S
C247 C243 1.400 . S
C247 C246 1.385 . S
C248 C246 1.478 . S
C248 C250 1.381 . S
C248 C254 1.383 . S
C249 C245 1.495 . S
C249 H255 0.959 . S
C249 H256 0.961 . S
C249 H257 0.960 . S
C250 C248 1.381 . S
C250 C251 1.394 . S
C250 H258 0.930 . S
C251 C250 1.394 . S
C251 C252 1.383 . S
C251 H259 0.929 . S
C252 C251 1.383 . S
C252 C253 1.377 . S
C253 H237 0.930 . S
C253 C252 1.377 . S
C253 C254 1.379 . S
C254 H238 0.931 . S
C254 C248 1.383 . S
C254 C253 1.379 . S
H255 C249 0.959 . S
H256 C249 0.961 . S
H257 C249 0.960 . S
H258 C250 0.930 . S
H259 C251 0.929 . S
H260 C268 0.929 . S
H261 C270 0.930 . S
H262 C272 0.930 . S
H263 C275 0.929 . S
H264 C278 0.930 . S
H265 C280 0.960 . S
H266 C280 0.960 . S
H267 C280 0.960 . S
C268 H260 0.929 . S
C268 C269 1.377 . S
C268 C270 1.384 . S
C269 C268 1.377 . S
C269 C275 1.390 . S
C270 H261 0.930 . S
C270 C268 1.384 . S
C270 C271 1.372 . S
C271 C270 1.372 . S
C271 C272 1.400 . S
C271 C276 1.490 . S
C272 H262 0.930 . S
C272 C271 1.400 . S
C272 C275 1.386 . S
H273 C289 0.930 . S
H274 C290 0.931 . S
C275 H263 0.929 . S
C275 C269 1.390 . S
C275 C272 1.386 . S
C276 C271 1.490 . S
C276 C278 1.395 . S
C276 C279 1.403 . S
H277 C283 0.930 . S
C278 H264 0.930 . S
C278 C276 1.395 . S
C278 C281 1.403 . S
C279 C276 1.403 . S
C279 C280 1.524 . S
C279 C283 1.400 . S
C280 H265 0.960 . S
C280 H266 0.960 . S
C280 H267 0.960 . S
C280 C279 1.524 . S
C281 C278 1.403 . S
C281 C282 1.392 . S
C281 C285 1.495 . S
C282 C281 1.392 . S
C282 C283 1.385 . S
C282 C284 1.478 . S
C283 H277 0.930 . S
C283 C279 1.400 . S
C283 C282 1.385 . S
C284 C282 1.478 . S
C284 C286 1.381 . S
C284 C290 1.383 . S
C285 C281 1.495 . S
C285 H291 0.959 . S
C285 H292 0.961 . S
C285 H293 0.960 . S
C286 C284 1.381 . S
C286 C287 1.394 . S
C286 H294 0.930 . S
C287 C286 1.394 . S
C287 C288 1.383 . S
C287 H295 0.929 . S
C288 C287 1.383 . S
C288 C289 1.377 . S
C289 H273 0.930 . S
C289 C288 1.377 . S
C289 C290 1.379 . S
C290 H274 0.931 . S
C290 C284 1.383 . S
C290 C289 1.379 . S
H291 C285 0.959 . S
H292 C285 0.961 . S
H293 C285 0.960 . S
H294 C286 0.930 . S
H295 C287 0.929 . S
H296 C304 0.929 . S
H297 C306 0.930 . S
H298 C308 0.930 . S
H299 C311 0.929 . S
H300 C314 0.930 . S
H301 C316 0.960 . S
H302 C316 0.960 . S
H303 C316 0.960 . S
C304 H296 0.929 . S
C304 C305 1.377 . S
C304 C306 1.384 . S
C305 C304 1.377 . S
C305 C311 1.390 . S
C306 H297 0.930 . S
C306 C304 1.384 . S
C306 C307 1.372 . S
C307 C306 1.372 . S
C307 C308 1.400 . S
C307 C312 1.490 . S
C308 H298 0.930 . S
C308 C307 1.400 . S
C308 C311 1.386 . S
H309 C325 0.930 . S
H310 C326 0.931 . S
C311 H299 0.929 . S
C311 C305 1.390 . S
C311 C308 1.386 . S
C312 C307 1.490 . S
C312 C314 1.395 . S
C312 C315 1.403 . S
H313 C319 0.930 . S
C314 H300 0.930 . S
C314 C312 1.395 . S
C314 C317 1.403 . S
C315 C312 1.403 . S
C315 C316 1.524 . S
C315 C319 1.400 . S
C316 H301 0.960 . S
C316 H302 0.960 . S
C316 H303 0.960 . S
C316 C315 1.524 . S
C317 C314 1.403 . S
C317 C318 1.392 . S
C317 C321 1.495 . S
C318 C317 1.392 . S
C318 C319 1.385 . S
C318 C320 1.478 . S
C319 H313 0.930 . S
C319 C315 1.400 . S
C319 C318 1.385 . S
C320 C318 1.478 . S
C320 C322 1.381 . S
C320 C326 1.383 . S
C321 C317 1.495 . S
C321 H327 0.959 . S
C321 H328 0.961 . S
C321 H329 0.960 . S
C322 C320 1.381 . S
C322 C323 1.394 . S
C322 H330 0.930 . S
C323 C322 1.394 . S
C323 C324 1.383 . S
C323 H331 0.929 1_556 S
C324 C323 1.383 . S
C324 C325 1.377 . S
C325 H309 0.930 . S
C325 C324 1.377 . S
C325 C326 1.379 . S
C326 H310 0.931 . S
C326 C320 1.383 . S
C326 C325 1.379 . S
H327 C321 0.959 . S
H328 C321 0.961 . S
H329 C321 0.960 . S
H330 C322 0.930 . S
H331 C323 0.929 1_554 S
H332 C340 0.929 . S
H333 C342 0.930 . S
H334 C344 0.930 . S
H335 C347 0.929 . S
H336 C350 0.930 . S
H337 C352 0.960 . S
H338 C352 0.960 . S
H339 C352 0.960 . S
C340 H332 0.929 . S
C340 C341 1.377 . S
C340 C342 1.384 . S
C341 C340 1.377 . S
C341 C347 1.390 . S
C342 H333 0.930 . S
C342 C340 1.384 . S
C342 C343 1.372 . S
C343 C342 1.372 . S
C343 C344 1.400 . S
C343 C348 1.490 . S
C344 H334 0.930 . S
C344 C343 1.400 . S
C344 C347 1.386 . S
H345 C361 0.930 . S
H346 C362 0.931 . S
C347 H335 0.929 . S
C347 C341 1.390 . S
C347 C344 1.386 . S
C348 C343 1.490 . S
C348 C350 1.395 . S
C348 C351 1.403 . S
H349 C355 0.930 . S
C350 H336 0.930 . S
C350 C348 1.395 . S
C350 C353 1.403 . S
C351 C348 1.403 . S
C351 C352 1.524 . S
C351 C355 1.400 . S
C352 H337 0.960 . S
C352 H338 0.960 . S
C352 H339 0.960 . S
C352 C351 1.524 . S
C353 C350 1.403 . S
C353 C354 1.392 . S
C353 C357 1.495 . S
C354 C353 1.392 . S
C354 C355 1.385 . S
C354 C356 1.478 . S
C355 H349 0.930 . S
C355 C351 1.400 . S
C355 C354 1.385 . S
C356 C354 1.478 . S
C356 C358 1.381 . S
C356 C362 1.383 . S
C357 C353 1.495 . S
C357 H363 0.959 . S
C357 H364 0.961 . S
C357 H365 0.960 . S
C358 C356 1.381 . S
C358 C359 1.394 . S
C358 H366 0.930 . S
C359 C358 1.394 . S
C359 C360 1.383 . S
C359 H367 0.929 . S
C360 C359 1.383 . S
C360 C361 1.377 . S
C361 H345 0.930 . S
C361 C360 1.377 . S
C361 C362 1.379 . S
C362 H346 0.931 . S
C362 C356 1.383 . S
C362 C361 1.379 . S
H363 C357 0.959 . S
H364 C357 0.961 . S
H365 C357 0.960 . S
H366 C358 0.930 . S
H367 C359 0.929 . S
H368 C376 0.929 . S
H369 C378 0.930 . S
H370 C380 0.930 . S
H371 C383 0.929 . S
H372 C386 0.930 . S
H373 C388 0.960 . S
H374 C388 0.960 . S
H375 C388 0.960 . S
C376 H368 0.929 . S
C376 C377 1.377 . S
C376 C378 1.384 . S
C377 C376 1.377 . S
C377 C383 1.390 . S
C378 H369 0.930 . S
C378 C376 1.384 . S
C378 C379 1.372 . S
C379 C378 1.372 . S
C379 C380 1.400 . S
C379 C384 1.490 . S
C380 H370 0.930 . S
C380 C379 1.400 . S
C380 C383 1.386 . S
H381 C397 0.930 . S
H382 C398 0.931 . S
C383 H371 0.929 . S
C383 C377 1.390 . S
C383 C380 1.386 . S
C384 C379 1.490 . S
C384 C386 1.395 . S
C384 C387 1.403 . S
H385 C391 0.930 . S
C386 H372 0.930 . S
C386 C384 1.395 . S
C386 C389 1.403 . S
C387 C384 1.403 . S
C387 C388 1.524 . S
C387 C391 1.400 . S
C388 H373 0.960 . S
C388 H374 0.960 . S
C388 H375 0.960 . S
C388 C387 1.524 . S
C389 C386 1.403 . S
C389 C390 1.392 . S
C389 C393 1.495 . S
C390 C389 1.392 . S
C390 C391 1.385 . S
C390 C392 1.478 . S
C391 H385 0.930 . S
C391 C387 1.400 . S
C391 C390 1.385 . S
C392 C390 1.478 . S
C392 C394 1.381 . S
C392 C398 1.383 . S
C393 C389 1.495 . S
C393 H399 0.959 . S
C393 H400 0.961 . S
C393 H401 0.960 . S
C394 C392 1.381 . S
C394 C395 1.394 . S
C394 H402 0.930 . S
C395 C394 1.394 . S
C395 C396 1.383 . S
C395 H403 0.929 . S
C396 C395 1.383 . S
C396 C397 1.377 . S
C397 H381 0.930 . S
C397 C396 1.377 . S
C397 C398 1.379 . S
C398 H382 0.931 . S
C398 C392 1.383 . S
C398 C397 1.379 . S
H399 C393 0.959 . S
H400 C393 0.961 . S
H401 C393 0.960 . S
H402 C394 0.930 . S
H403 C395 0.929 . S
H404 C412 0.929 . S
H405 C414 0.930 . S
H406 C416 0.930 . S
H407 C419 0.929 . S
H408 C422 0.930 . S
H409 C424 0.960 . S
H410 C424 0.960 . S
H411 C424 0.960 . S
C412 H404 0.929 . S
C412 C413 1.377 . S
C412 C414 1.384 . S
C413 C412 1.377 . S
C413 C419 1.390 . S
C414 H405 0.930 . S
C414 C412 1.384 . S
C414 C415 1.372 . S
C415 C414 1.372 . S
C415 C416 1.400 . S
C415 C420 1.490 . S
C416 H406 0.930 . S
C416 C415 1.400 . S
C416 C419 1.386 . S
H417 C433 0.930 . S
H418 C434 0.931 . S
C419 H407 0.929 . S
C419 C413 1.390 . S
C419 C416 1.386 . S
C420 C415 1.490 . S
C420 C422 1.395 . S
C420 C423 1.403 . S
H421 C427 0.930 . S
C422 H408 0.930 . S
C422 C420 1.395 . S
C422 C425 1.403 . S
C423 C420 1.403 . S
C423 C424 1.524 . S
C423 C427 1.400 . S
C424 H409 0.960 . S
C424 H410 0.960 . S
C424 H411 0.960 . S
C424 C423 1.524 . S
C425 C422 1.403 . S
C425 C426 1.392 . S
C425 C429 1.495 . S
C426 C425 1.392 . S
C426 C427 1.385 . S
C426 C428 1.478 . S
C427 H421 0.930 . S
C427 C423 1.400 . S
C427 C426 1.385 . S
C428 C426 1.478 . S
C428 C430 1.381 . S
C428 C434 1.383 . S
C429 C425 1.495 . S
C429 H435 0.959 . S
C429 H436 0.961 . S
C429 H437 0.960 . S
C430 C428 1.381 . S
C430 C431 1.394 . S
C430 H438 0.930 . S
C431 C430 1.394 . S
C431 C432 1.383 . S
C431 H439 0.929 . S
C432 C431 1.383 . S
C432 C433 1.377 . S
C433 H417 0.930 . S
C433 C432 1.377 . S
C433 C434 1.379 . S
C434 H418 0.931 . S
C434 C428 1.383 . S
C434 C433 1.379 . S
H435 C429 0.959 . S
H436 C429 0.961 . S
H437 C429 0.960 . S
H438 C430 0.930 . S
H439 C431 0.929 . S
H440 C448 0.929 . S
H441 C450 0.930 . S
H442 C452 0.930 . S
H443 C455 0.929 . S
H444 C458 0.930 . S
H445 C460 0.960 . S
H446 C460 0.960 . S
H447 C460 0.960 . S
C448 H440 0.929 . S
C448 C449 1.377 . S
C448 C450 1.384 . S
C449 C448 1.377 . S
C449 C455 1.390 . S
C450 H441 0.930 . S
C450 C448 1.384 . S
C450 C451 1.372 . S
C451 C450 1.372 . S
C451 C452 1.400 . S
C451 C456 1.490 . S
C452 H442 0.930 . S
C452 C451 1.400 . S
C452 C455 1.386 . S
H453 C469 0.930 . S
H454 C470 0.931 . S
C455 H443 0.929 . S
C455 C449 1.390 . S
C455 C452 1.386 . S
C456 C451 1.490 . S
C456 C458 1.395 . S
C456 C459 1.403 . S
H457 C463 0.930 . S
C458 H444 0.930 . S
C458 C456 1.395 . S
C458 C461 1.403 . S
C459 C456 1.403 . S
C459 C460 1.524 . S
C459 C463 1.400 . S
C460 H445 0.960 . S
C460 H446 0.960 . S
C460 H447 0.960 . S
C460 C459 1.524 . S
C461 C458 1.403 . S
C461 C462 1.392 . S
C461 C465 1.495 . S
C462 C461 1.392 . S
C462 C463 1.385 . S
C462 C464 1.478 . S
C463 H457 0.930 . S
C463 C459 1.400 . S
C463 C462 1.385 . S
C464 C462 1.478 . S
C464 C466 1.381 . S
C464 C470 1.383 . S
C465 C461 1.495 . S
C465 H471 0.959 . S
C465 H472 0.961 . S
C465 H473 0.960 . S
C466 C464 1.381 . S
C466 C467 1.394 . S
C466 H474 0.930 . S
C467 C466 1.394 . S
C467 C468 1.383 . S
C467 H475 0.929 . S
C468 C467 1.383 . S
C468 C469 1.377 . S
C469 H453 0.930 . S
C469 C468 1.377 . S
C469 C470 1.379 . S
C470 H454 0.931 . S
C470 C464 1.383 . S
C470 C469 1.379 . S
H471 C465 0.959 . S
H472 C465 0.961 . S
H473 C465 0.960 . S
H474 C466 0.930 . S
H475 C467 0.929 . S
H476 C484 0.929 . S
H477 C486 0.930 . S
H478 C488 0.930 . S
H479 C491 0.929 . S
H480 C494 0.930 . S
H481 C496 0.960 . S
H482 C496 0.960 . S
H483 C496 0.960 . S
C484 H476 0.929 . S
C484 C485 1.377 . S
C484 C486 1.384 . S
C485 C484 1.377 . S
C485 C491 1.390 . S
C486 H477 0.930 . S
C486 C484 1.384 . S
C486 C487 1.372 . S
C487 C486 1.372 . S
C487 C488 1.400 . S
C487 C492 1.490 . S
C488 H478 0.930 . S
C488 C487 1.400 . S
C488 C491 1.386 . S
H489 C505 0.930 . S
H490 C506 0.931 . S
C491 H479 0.929 . S
C491 C485 1.390 . S
C491 C488 1.386 . S
C492 C487 1.490 . S
C492 C494 1.395 . S
C492 C495 1.403 . S
H493 C499 0.930 . S
C494 H480 0.930 . S
C494 C492 1.395 . S
C494 C497 1.403 . S
C495 C492 1.403 . S
C495 C496 1.524 . S
C495 C499 1.400 . S
C496 H481 0.960 . S
C496 H482 0.960 . S
C496 H483 0.960 . S
C496 C495 1.524 . S
C497 C494 1.403 . S
C497 C498 1.392 . S
C497 C501 1.495 . S
C498 C497 1.392 . S
C498 C499 1.385 . S
C498 C500 1.478 . S
C499 H493 0.930 . S
C499 C495 1.400 . S
C499 C498 1.385 . S
C500 C498 1.478 . S
C500 C502 1.381 . S
C500 C506 1.383 . S
C501 C497 1.495 . S
C501 H507 0.959 . S
C501 H508 0.961 . S
C501 H509 0.960 . S
C502 C500 1.381 . S
C502 C503 1.394 . S
C502 H510 0.930 . S
C503 C502 1.394 . S
C503 C504 1.383 . S
C503 H511 0.929 . S
C504 C503 1.383 . S
C504 C505 1.377 . S
C505 H489 0.930 . S
C505 C504 1.377 . S
C505 C506 1.379 . S
C506 H490 0.931 . S
C506 C500 1.383 . S
C506 C505 1.379 . S
H507 C501 0.959 . S
H508 C501 0.961 . S
H509 C501 0.960 . S
H510 C502 0.930 . S
H511 C503 0.929 . S
H512 C520 0.929 . S
H513 C522 0.930 . S
H514 C524 0.930 . S
H515 C527 0.929 . S
H516 C530 0.930 . S
H517 C532 0.960 . S
H518 C532 0.960 . S
H519 C532 0.960 . S
C520 H512 0.929 . S
C520 C521 1.377 . S
C520 C522 1.384 . S
C521 C520 1.377 . S
C521 C527 1.390 . S
C522 H513 0.930 . S
C522 C520 1.384 . S
C522 C523 1.372 . S
C523 C522 1.372 . S
C523 C524 1.400 . S
C523 C528 1.490 . S
C524 H514 0.930 . S
C524 C523 1.400 . S
C524 C527 1.386 . S
H525 C541 0.930 . S
H526 C542 0.931 . S
C527 H515 0.929 . S
C527 C521 1.390 . S
C527 C524 1.386 . S
C528 C523 1.490 . S
C528 C530 1.395 . S
C528 C531 1.403 1_545 S
H529 C535 0.930 . S
C530 H516 0.930 . S
C530 C528 1.395 . S
C530 C533 1.403 1_455 S
C531 C528 1.403 1_565 S
C531 C532 1.524 . S
C531 C535 1.400 1_455 S
C532 H517 0.960 . S
C532 H518 0.960 . S
C532 H519 0.960 . S
C532 C531 1.524 . S
C533 C530 1.403 1_655 S
C533 C534 1.392 1_545 S
C533 C537 1.495 . S
C534 C533 1.392 1_565 S
C534 C535 1.385 . S
C534 C536 1.478 . S
C535 H529 0.930 . S
C535 C531 1.400 1_655 S
C535 C534 1.385 . S
C536 C534 1.478 . S
C536 C538 1.381 . S
C536 C542 1.383 . S
C537 C533 1.495 . S
C537 H543 0.959 . S
C537 H544 0.961 . S
C537 H545 0.960 . S
C538 C536 1.381 . S
C538 C539 1.394 . S
C538 H546 0.930 . S
C539 C538 1.394 . S
C539 C540 1.383 . S
C539 H547 0.929 . S
C540 C539 1.383 . S
C540 C541 1.377 . S
C541 H525 0.930 . S
C541 C540 1.377 . S
C541 C542 1.379 . S
C542 H526 0.931 . S
C542 C536 1.383 . S
C542 C541 1.379 . S
H543 C537 0.959 . S
H544 C537 0.961 . S
H545 C537 0.960 . S
H546 C538 0.930 . S
H547 C539 0.929 . S
H548 C556 0.929 . S
H549 C558 0.930 . S
H550 C560 0.930 . S
H551 C563 0.929 . S
H552 C566 0.930 . S
H553 C568 0.960 . S
H554 C568 0.960 . S
H555 C568 0.960 1_655 S
C556 H548 0.929 . S
C556 C557 1.377 . S
C556 C558 1.384 . S
C557 C556 1.377 . S
C557 C563 1.390 . S
C558 H549 0.930 . S
C558 C556 1.384 . S
C558 C559 1.372 . S
C559 C558 1.372 . S
C559 C560 1.400 . S
C559 C564 1.490 . S
C560 H550 0.930 . S
C560 C559 1.400 . S
C560 C563 1.386 . S
H561 C577 0.930 . S
H562 C578 0.931 1_655 S
C563 H551 0.929 . S
C563 C557 1.390 . S
C563 C560 1.386 . S
C564 C559 1.490 . S
C564 C566 1.395 . S
C564 C567 1.403 1_655 S
H565 C571 0.930 . S
C566 H552 0.930 . S
C566 C564 1.395 . S
C566 C569 1.403 . S
C567 C564 1.403 1_455 S
C567 C568 1.524 . S
C567 C571 1.400 . S
C568 H553 0.960 . S
C568 H554 0.960 . S
C568 H555 0.960 1_455 S
C568 C567 1.524 . S
C569 C566 1.403 . S
C569 C570 1.392 1_655 S
C569 C573 1.495 . S
C570 C569 1.392 1_455 S
C570 C571 1.385 . S
C570 C572 1.478 . S
C571 H565 0.930 . S
C571 C567 1.400 . S
C571 C570 1.385 . S
C572 C570 1.478 . S
C572 C574 1.381 . S
C572 C578 1.383 . S
C573 C569 1.495 . S
C573 H579 0.959 . S
C573 H580 0.961 . S
C573 H581 0.960 1_655 S
C574 C572 1.381 . S
C574 C575 1.394 . S
C574 H582 0.930 . S
C575 C574 1.394 . S
C575 C576 1.383 . S
C575 H583 0.929 . S
C576 C575 1.383 . S
C576 C577 1.377 . S
C577 H561 0.930 . S
C577 C576 1.377 . S
C577 C578 1.379 . S
C578 H562 0.931 1_455 S
C578 C572 1.383 . S
C578 C577 1.379 . S
H579 C573 0.959 . S
H580 C573 0.961 . S
H581 C573 0.960 1_455 S
H582 C574 0.930 . S
H583 C575 0.929 . S
H584 C592 0.929 . S
H585 C594 0.930 . S
H586 C596 0.930 . S
H587 C599 0.929 . S
H588 C602 0.930 . S
H589 C604 0.960 . S
H590 C604 0.960 . S
H591 C604 0.960 . S
C592 H584 0.929 . S
C592 C593 1.377 . S
C592 C594 1.384 . S
C593 C592 1.377 . S
C593 C599 1.390 . S
C594 H585 0.930 . S
C594 C592 1.384 . S
C594 C595 1.372 . S
C595 C594 1.372 . S
C595 C596 1.400 . S
C595 C600 1.490 . S
C596 H586 0.930 . S
C596 C595 1.400 . S
C596 C599 1.386 . S
H597 C613 0.930 . S
H598 C614 0.931 . S
C599 H587 0.929 . S
C599 C593 1.390 . S
C599 C596 1.386 . S
C600 C595 1.490 . S
C600 C602 1.395 . S
C600 C603 1.403 . S
H601 C607 0.930 . S
C602 H588 0.930 . S
C602 C600 1.395 . S
C602 C605 1.403 . S
C603 C600 1.403 . S
C603 C604 1.524 . S
C603 C607 1.400 . S
C604 H589 0.960 . S
C604 H590 0.960 . S
C604 H591 0.960 . S
C604 C603 1.524 . S
C605 C602 1.403 . S
C605 C606 1.392 . S
C605 C609 1.495 . S
C606 C605 1.392 . S
C606 C607 1.385 . S
C606 C608 1.478 . S
C607 H601 0.930 . S
C607 C603 1.400 . S
C607 C606 1.385 . S
C608 C606 1.478 . S
C608 C610 1.381 . S
C608 C614 1.383 . S
C609 C605 1.495 . S
C609 H615 0.959 . S
C609 H616 0.961 . S
C609 H617 0.960 . S
C610 C608 1.381 . S
C610 C611 1.394 . S
C610 H618 0.930 . S
C611 C610 1.394 . S
C611 C612 1.383 . S
C611 H619 0.929 . S
C612 C611 1.383 . S
C612 C613 1.377 . S
C613 H597 0.930 . S
C613 C612 1.377 . S
C613 C614 1.379 . S
C614 H598 0.931 . S
C614 C608 1.383 . S
C614 C613 1.379 . S
H615 C609 0.959 . S
H616 C609 0.961 . S
H617 C609 0.960 . S
H618 C610 0.930 . S
H619 C611 0.929 . S
H620 C628 0.929 . S
H621 C630 0.930 . S
H622 C632 0.930 . S
H623 C635 0.929 . S
H624 C638 0.930 . S
H625 C640 0.960 . S
H626 C640 0.960 . S
H627 C640 0.960 . S
C628 H620 0.929 . S
C628 C629 1.377 . S
C628 C630 1.384 . S
C629 C628 1.377 . S
C629 C635 1.390 . S
C630 H621 0.930 . S
C630 C628 1.384 . S
C630 C631 1.372 . S
C631 C630 1.372 . S
C631 C632 1.400 . S
C631 C636 1.490 . S
C632 H622 0.930 . S
C632 C631 1.400 . S
C632 C635 1.386 . S
H633 C649 0.930 . S
H634 C650 0.931 . S
C635 H623 0.929 . S
C635 C629 1.390 . S
C635 C632 1.386 . S
C636 C631 1.490 . S
C636 C638 1.395 . S
C636 C639 1.403 . S
H637 C643 0.930 . S
C638 H624 0.930 . S
C638 C636 1.395 . S
C638 C641 1.403 1_565 S
C639 C636 1.403 . S
C639 C640 1.524 . S
C639 C643 1.400 1_565 S
C640 H625 0.960 . S
C640 H626 0.960 . S
C640 H627 0.960 . S
C640 C639 1.524 . S
C641 C638 1.403 1_545 S
C641 C642 1.392 . S
C641 C645 1.495 . S
C642 C641 1.392 . S
C642 C643 1.385 . S
C642 C644 1.478 . S
C643 H637 0.930 . S
C643 C639 1.400 1_545 S
C643 C642 1.385 . S
C644 C642 1.478 . S
C644 C646 1.381 . S
C644 C650 1.383 . S
C645 C641 1.495 . S
C645 H651 0.959 1_554 S
C645 H652 0.961 1_554 S
C645 H653 0.960 . S
C646 C644 1.381 . S
C646 C647 1.394 . S
C646 H654 0.930 . S
C647 C646 1.394 . S
C647 C648 1.383 . S
C647 H655 0.929 . S
C648 C647 1.383 . S
C648 C649 1.377 . S
C649 H633 0.930 . S
C649 C648 1.377 . S
C649 C650 1.379 . S
C650 H634 0.931 . S
C650 C644 1.383 . S
C650 C649 1.379 . S
H651 C645 0.959 1_556 S
H652 C645 0.961 1_556 S
H653 C645 0.960 . S
H654 C646 0.930 . S
H655 C647 0.929 . S
H656 C664 0.929 . S
H657 C666 0.930 . S
H658 C668 0.930 . S
H659 C671 0.929 . S
H660 C674 0.930 . S
H661 C676 0.960 . S
H662 C676 0.960 . S
H663 C676 0.960 . S
C664 H656 0.929 . S
C664 C665 1.377 . S
C664 C666 1.384 . S
C665 C664 1.377 . S
C665 C671 1.390 1_556 S
C666 H657 0.930 . S
C666 C664 1.384 . S
C666 C667 1.372 . S
C667 C666 1.372 . S
C667 C668 1.400 1_556 S
C667 C672 1.490 . S
C668 H658 0.930 . S
C668 C667 1.400 1_554 S
C668 C671 1.386 . S
H669 C685 0.930 . S
H670 C686 0.931 . S
C671 H659 0.929 . S
C671 C665 1.390 1_554 S
C671 C668 1.386 . S
C672 C667 1.490 . S
C672 C674 1.395 1_556 S
C672 C675 1.403 . S
H673 C679 0.930 . S
C674 H660 0.930 . S
C674 C672 1.395 1_554 S
C674 C677 1.403 1_455 S
C675 C672 1.403 . S
C675 C676 1.524 . S
C675 C679 1.400 1_455 S
C676 H661 0.960 . S
C676 H662 0.960 . S
C676 H663 0.960 . S
C676 C675 1.524 . S
C677 C674 1.403 1_655 S
C677 C678 1.392 . S
C677 C681 1.495 . S
C678 C677 1.392 . S
C678 C679 1.385 1_554 S
C678 C680 1.478 . S
C679 H673 0.930 . S
C679 C675 1.400 1_655 S
C679 C678 1.385 1_556 S
C680 C678 1.478 . S
C680 C682 1.381 1_554 S
C680 C686 1.383 . S
C681 C677 1.495 . S
C681 H687 0.959 . S
C681 H688 0.961 . S
C681 H689 0.960 1_554 S
C682 C680 1.381 1_556 S
C682 C683 1.394 . S
C682 H690 0.930 . S
C683 C682 1.394 . S
C683 C684 1.382 1_556 S
C683 H691 0.929 . S
C684 C683 1.382 1_554 S
C684 C685 1.378 . S
C685 H669 0.930 . S
C685 C684 1.378 . S
C685 C686 1.379 . S
C686 H670 0.931 . S
C686 C680 1.383 . S
C686 C685 1.379 . S
H687 C681 0.959 . S
H688 C681 0.961 . S
H689 C681 0.960 1_556 S
H690 C682 0.930 . S
H691 C683 0.929 . S
H692 C700 0.929 . S
H693 C702 0.930 . S
H694 C704 0.930 . S
H695 C707 0.929 . S
H696 C710 0.930 . S
H697 C712 0.960 . S
H698 C712 0.960 . S
H699 C712 0.960 . S
C700 H692 0.929 . S
C700 C701 1.377 . S
C700 C702 1.384 . S
C701 C700 1.377 . S
C701 C707 1.390 . S
C702 H693 0.930 . S
C702 C700 1.384 . S
C702 C703 1.372 . S
C703 C702 1.372 . S
C703 C704 1.400 . S
C703 C708 1.490 . S
C704 H694 0.930 . S
C704 C703 1.400 . S
C704 C707 1.386 . S
H705 C721 0.930 . S
H706 C722 0.931 . S
C707 H695 0.929 . S
C707 C701 1.390 . S
C707 C704 1.386 . S
C708 C703 1.490 . S
C708 C710 1.395 . S
C708 C711 1.403 . S
H709 C715 0.930 . S
C710 H696 0.930 . S
C710 C708 1.395 . S
C710 C713 1.403 . S
C711 C708 1.403 . S
C711 C712 1.524 . S
C711 C715 1.400 . S
C712 H697 0.960 . S
C712 H698 0.960 . S
C712 H699 0.960 . S
C712 C711 1.524 . S
C713 C710 1.403 . S
C713 C714 1.392 . S
C713 C717 1.495 . S
C714 C713 1.392 . S
C714 C715 1.385 . S
C714 C716 1.478 . S
C715 H709 0.930 . S
C715 C711 1.400 . S
C715 C714 1.385 . S
C716 C714 1.478 . S
C716 C718 1.381 . S
C716 C722 1.383 . S
C717 C713 1.495 . S
C717 H723 0.959 . S
C717 H724 0.961 . S
C717 H725 0.960 . S
C718 C716 1.381 . S
C718 C719 1.394 . S
C718 H726 0.930 . S
C719 C718 1.394 . S
C719 C720 1.383 . S
C719 H727 0.929 . S
C720 C719 1.383 . S
C720 C721 1.377 . S
C721 H705 0.930 . S
C721 C720 1.377 . S
C721 C722 1.379 . S
C722 H706 0.931 . S
C722 C716 1.383 . S
C722 C721 1.379 . S
H723 C717 0.959 . S
H724 C717 0.961 . S
H725 C717 0.960 . S
H726 C718 0.930 . S
H727 C719 0.929 . S
H728 C736 0.929 . S
H729 C738 0.930 . S
H730 C740 0.930 . S
H731 C743 0.929 . S
H732 C746 0.930 . S
H733 C748 0.960 . S
H734 C748 0.960 . S
H735 C748 0.960 . S
C736 H728 0.929 . S
C736 C737 1.377 . S
C736 C738 1.384 . S
C737 C736 1.377 . S
C737 C743 1.390 . S
C738 H729 0.930 . S
C738 C736 1.384 . S
C738 C739 1.372 . S
C739 C738 1.372 . S
C739 C740 1.400 . S
C739 C744 1.490 . S
C740 H730 0.930 . S
C740 C739 1.400 . S
C740 C743 1.386 . S
H741 C757 0.930 . S
H742 C758 0.931 . S
C743 H731 0.929 . S
C743 C737 1.390 . S
C743 C740 1.386 . S
C744 C739 1.490 . S
C744 C746 1.395 1_545 S
C744 C747 1.403 . S
H745 C751 0.930 . S
C746 H732 0.930 . S
C746 C744 1.395 1_565 S
C746 C749 1.403 . S
C747 C744 1.403 . S
C747 C748 1.524 . S
C747 C751 1.400 . S
C748 H733 0.960 . S
C748 H734 0.960 . S
C748 H735 0.960 . S
C748 C747 1.524 . S
C749 C746 1.403 . S
C749 C750 1.392 . S
C749 C753 1.495 . S
C750 C749 1.392 . S
C750 C751 1.385 1_565 S
C750 C752 1.478 . S
C751 H745 0.930 . S
C751 C747 1.400 . S
C751 C750 1.385 1_545 S
C752 C750 1.478 . S
C752 C754 1.381 . S
C752 C758 1.383 . S
C753 C749 1.495 . S
C753 H759 0.959 . S
C753 H760 0.961 . S
C753 H761 0.960 . S
C754 C752 1.381 . S
C754 C755 1.394 . S
C754 H762 0.930 . S
C755 C754 1.394 . S
C755 C756 1.383 . S
C755 H763 0.929 . S
C756 C755 1.383 . S
C756 C757 1.377 . S
C757 H741 0.930 . S
C757 C756 1.377 . S
C757 C758 1.379 . S
C758 H742 0.931 . S
C758 C752 1.383 . S
C758 C757 1.379 . S
H759 C753 0.959 . S
H760 C753 0.961 . S
H761 C753 0.960 . S
H762 C754 0.930 . S
H763 C755 0.929 . S
H764 C772 0.929 . S
H765 C774 0.930 . S
H766 C776 0.930 . S
H767 C779 0.929 . S
H768 C782 0.930 . S
H769 C784 0.960 1_565 S
H770 C784 0.960 . S
H771 C784 0.960 . S
C772 H764 0.929 . S
C772 C773 1.377 . S
C772 C774 1.384 . S
C773 C772 1.377 . S
C773 C779 1.390 . S
C774 H765 0.930 . S
C774 C772 1.384 . S
C774 C775 1.372 . S
C775 C774 1.372 . S
C775 C776 1.400 . S
C775 C780 1.490 . S
C776 H766 0.930 . S
C776 C775 1.400 . S
C776 C779 1.386 . S
H777 C793 0.930 . S
H778 C794 0.931 . S
C779 H767 0.929 . S
C779 C773 1.390 . S
C779 C776 1.386 . S
C780 C775 1.490 . S
C780 C782 1.395 1_455 S
C780 C783 1.403 . S
H781 C787 0.930 . S
C782 H768 0.930 . S
C782 C780 1.395 1_655 S
C782 C785 1.404 1_545 S
C783 C780 1.403 . S
C783 C784 1.524 . S
C783 C787 1.400 1_545 S
C784 H769 0.960 1_545 S
C784 H770 0.960 . S
C784 H771 0.960 . S
C784 C783 1.524 . S
C785 C782 1.404 1_565 S
C785 C786 1.392 . S
C785 C789 1.495 . S
C786 C785 1.392 . S
C786 C787 1.385 1_655 S
C786 C788 1.478 . S
C787 H781 0.930 . S
C787 C783 1.400 1_565 S
C787 C786 1.385 1_455 S
C788 C786 1.478 . S
C788 C790 1.381 . S
C788 C794 1.383 . S
C789 C785 1.495 . S
C789 H795 0.947 1_565 S
C789 H796 0.968 . S
C789 H797 0.966 . S
C790 C788 1.381 . S
C790 C791 1.394 . S
C790 H798 0.930 . S
C791 C790 1.394 . S
C791 C792 1.383 . S
C791 H799 0.929 . S
C792 C791 1.383 . S
C792 C793 1.377 . S
C793 H777 0.930 . S
C793 C792 1.377 . S
C793 C794 1.379 . S
C794 H778 0.931 . S
C794 C788 1.383 . S
C794 C793 1.379 . S
H795 C789 0.947 1_545 S
H796 C789 0.968 . S
H797 C789 0.966 . S
H798 C790 0.930 . S
H799 C791 0.929 . S
H800 C808 0.929 . S
H801 C810 0.930 . S
H802 C812 0.930 . S
H803 C815 0.929 . S
H804 C818 0.930 . S
H805 C820 0.960 . S
H806 C820 0.960 . S
H807 C820 0.960 . S
C808 H800 0.929 . S
C808 C809 1.377 . S
C808 C810 1.384 . S
C809 C808 1.377 . S
C809 C815 1.390 . S
C810 H801 0.930 . S
C810 C808 1.384 . S
C810 C811 1.372 . S
C811 C810 1.372 . S
C811 C812 1.400 . S
C811 C816 1.490 . S
C812 H802 0.930 . S
C812 C811 1.400 . S
C812 C815 1.386 . S
H813 C829 0.930 . S
H814 C830 0.931 . S
C815 H803 0.929 . S
C815 C809 1.390 . S
C815 C812 1.386 . S
C816 C811 1.490 . S
C816 C818 1.395 . S
C816 C819 1.403 . S
H817 C823 0.930 . S
C818 H804 0.930 . S
C818 C816 1.395 . S
C818 C821 1.403 . S
C819 C816 1.403 . S
C819 C820 1.524 . S
C819 C823 1.400 . S
C820 H805 0.960 . S
C820 H806 0.960 . S
C820 H807 0.960 . S
C820 C819 1.524 . S
C821 C818 1.403 . S
C821 C822 1.392 . S
C821 C825 1.495 . S
C822 C821 1.392 . S
C822 C823 1.385 . S
C822 C824 1.478 . S
C823 H817 0.930 . S
C823 C819 1.400 . S
C823 C822 1.385 . S
C824 C822 1.478 . S
C824 C826 1.381 . S
C824 C830 1.383 . S
C825 C821 1.495 . S
C825 H831 0.959 . S
C825 H832 0.961 . S
C825 H833 0.960 . S
C826 C824 1.381 . S
C826 C827 1.394 . S
C826 H834 0.930 . S
C827 C826 1.394 . S
C827 C828 1.383 . S
C827 H835 0.929 . S
C828 C827 1.383 . S
C828 C829 1.377 . S
C829 H813 0.930 . S
C829 C828 1.377 . S
C829 C830 1.379 . S
C830 H814 0.931 . S
C830 C824 1.383 . S
C830 C829 1.379 . S
H831 C825 0.959 . S
H832 C825 0.961 . S
H833 C825 0.960 . S
H834 C826 0.930 . S
H835 C827 0.929 . S
H836 C844 0.929 . S
H837 C846 0.930 . S
H838 C848 0.930 . S
H839 C851 0.929 . S
H840 C854 0.930 . S
H841 C856 0.960 . S
H842 C856 0.960 . S
H843 C856 0.960 . S
C844 H836 0.929 . S
C844 C845 1.377 . S
C844 C846 1.384 . S
C845 C844 1.377 . S
C845 C851 1.390 . S
C846 H837 0.930 . S
C846 C844 1.384 . S
C846 C847 1.372 . S
C847 C846 1.372 . S
C847 C848 1.400 . S
C847 C852 1.490 . S
C848 H838 0.930 . S
C848 C847 1.400 . S
C848 C851 1.386 . S
H849 C865 0.930 . S
H850 C866 0.931 . S
C851 H839 0.929 . S
C851 C845 1.390 . S
C851 C848 1.386 . S
C852 C847 1.490 . S
C852 C854 1.395 . S
C852 C855 1.403 . S
H853 C859 0.930 . S
C854 H840 0.930 . S
C854 C852 1.395 . S
C854 C857 1.403 . S
C855 C852 1.403 . S
C855 C856 1.524 . S
C855 C859 1.400 . S
C856 H841 0.960 . S
C856 H842 0.960 . S
C856 H843 0.960 . S
C856 C855 1.524 . S
C857 C854 1.403 . S
C857 C858 1.392 . S
C857 C861 1.495 . S
C858 C857 1.392 . S
C858 C859 1.385 . S
C858 C860 1.478 . S
C859 H853 0.930 . S
C859 C855 1.400 . S
C859 C858 1.385 . S
C860 C858 1.478 . S
C860 C862 1.381 . S
C860 C866 1.383 . S
C861 C857 1.495 . S
C861 H867 0.959 . S
C861 H868 0.961 . S
C861 H869 0.960 . S
C862 C860 1.381 . S
C862 C863 1.394 . S
C862 H870 0.930 . S
C863 C862 1.394 . S
C863 C864 1.383 . S
C863 H871 0.929 . S
C864 C863 1.383 . S
C864 C865 1.377 . S
C865 H849 0.930 . S
C865 C864 1.377 . S
C865 C866 1.379 . S
C866 H850 0.931 . S
C866 C860 1.383 . S
C866 C865 1.379 . S
H867 C861 0.959 . S
H868 C861 0.961 . S
H869 C861 0.960 . S
H870 C862 0.930 . S
H871 C863 0.929 . S
H872 C880 0.929 . S
H873 C882 0.930 . S
H874 C884 0.930 . S
H875 C887 0.929 . S
H876 C890 0.930 . S
H877 C892 0.960 . S
H878 C892 0.960 . S
H879 C892 0.960 . S
C880 H872 0.929 . S
C880 C881 1.377 . S
C880 C882 1.384 . S
C881 C880 1.377 . S
C881 C887 1.390 . S
C882 H873 0.930 . S
C882 C880 1.384 . S
C882 C883 1.372 . S
C883 C882 1.372 . S
C883 C884 1.400 . S
C883 C888 1.490 . S
C884 H874 0.930 . S
C884 C883 1.400 . S
C884 C887 1.386 . S
H885 C901 0.930 . S
H886 C902 0.931 . S
C887 H875 0.929 . S
C887 C881 1.390 . S
C887 C884 1.386 . S
C888 C883 1.490 . S
C888 C890 1.395 . S
C888 C891 1.403 . S
H889 C895 0.930 1_556 S
C890 H876 0.930 . S
C890 C888 1.395 . S
C890 C893 1.403 . S
C891 C888 1.403 . S
C891 C892 1.524 . S
C891 C895 1.400 . S
C892 H877 0.960 . S
C892 H878 0.960 . S
C892 H879 0.960 . S
C892 C891 1.524 . S
C893 C890 1.403 . S
C893 C894 1.392 1_554 S
C893 C897 1.495 . S
C894 C893 1.392 1_556 S
C894 C895 1.385 1_556 S
C894 C896 1.478 . S
C895 H889 0.930 1_554 S
C895 C891 1.400 . S
C895 C894 1.385 1_554 S
C896 C894 1.478 . S
C896 C898 1.381 . S
C896 C902 1.383 . S
C897 C893 1.495 . S
C897 H903 0.959 . S
C897 H904 0.961 1_554 S
C897 H905 0.960 1_554 S
C898 C896 1.381 . S
C898 C899 1.394 . S
C898 H906 0.930 . S
C899 C898 1.394 . S
C899 C900 1.383 . S
C899 H907 0.929 . S
C900 C899 1.383 . S
C900 C901 1.377 . S
C901 H885 0.930 . S
C901 C900 1.377 . S
C901 C902 1.379 . S
C902 H886 0.931 . S
C902 C896 1.383 . S
C902 C901 1.379 . S
H903 C897 0.959 . S
H904 C897 0.961 1_556 S
H905 C897 0.960 1_556 S
H906 C898 0.930 . S
H907 C899 0.929 . S
H908 C916 0.929 . S
H909 C918 0.930 . S
H910 C920 0.930 . S
H911 C923 0.929 . S
H912 C926 0.930 . S
H913 C928 0.960 . S
H914 C928 0.960 . S
H915 C928 0.960 . S
C916 H908 0.929 . S
C916 C917 1.377 . S
C916 C918 1.384 . S
C917 C916 1.377 . S
C917 C923 1.390 . S
C918 H909 0.930 . S
C918 C916 1.384 . S
C918 C919 1.372 . S
C919 C918 1.372 . S
C919 C920 1.400 . S
C919 C924 1.490 . S
C920 H910 0.930 . S
C920 C919 1.400 . S
C920 C923 1.386 . S
H921 C937 0.930 . S
H922 C938 0.931 . S
C923 H911 0.929 . S
C923 C917 1.390 . S
C923 C920 1.386 . S
C924 C919 1.490 . S
C924 C926 1.395 . S
C924 C927 1.403 . S
H925 C931 0.930 . S
C926 H912 0.930 . S
C926 C924 1.395 . S
C926 C929 1.403 . S
C927 C924 1.403 . S
C927 C928 1.524 . S
C927 C931 1.400 . S
C928 H913 0.960 . S
C928 H914 0.960 . S
C928 H915 0.960 . S
C928 C927 1.524 . S
C929 C926 1.403 . S
C929 C930 1.392 . S
C929 C933 1.495 . S
C930 C929 1.392 . S
C930 C931 1.385 . S
C930 C932 1.478 . S
C931 H925 0.930 . S
C931 C927 1.400 . S
C931 C930 1.385 . S
C932 C930 1.478 . S
C932 C934 1.381 . S
C932 C938 1.383 . S
C933 C929 1.495 . S
C933 H939 0.959 . S
C933 H940 0.961 . S
C933 H941 0.960 . S
C934 C932 1.381 . S
C934 C935 1.394 . S
C934 H942 0.930 . S
C935 C934 1.394 . S
C935 C936 1.383 . S
C935 H943 0.929 . S
C936 C935 1.383 . S
C936 C937 1.377 . S
C937 H921 0.930 . S
C937 C936 1.377 . S
C937 C938 1.379 . S
C938 H922 0.931 . S
C938 C932 1.383 . S
C938 C937 1.379 . S
H939 C933 0.959 . S
H940 C933 0.961 . S
H941 C933 0.960 . S
H942 C934 0.930 . S
H943 C935 0.929 . S
H944 C952 0.929 . S
H945 C954 0.930 . S
H946 C956 0.930 . S
H947 C959 0.929 . S
H948 C962 0.930 . S
H949 C964 0.960 . S
H950 C964 0.960 . S
H951 C964 0.960 . S
C952 H944 0.929 . S
C952 C953 1.377 . S
C952 C954 1.384 . S
C953 C952 1.377 . S
C953 C959 1.390 . S
C954 H945 0.930 . S
C954 C952 1.384 . S
C954 C955 1.372 . S
C955 C954 1.372 . S
C955 C956 1.400 . S
C955 C960 1.490 . S
C956 H946 0.930 . S
C956 C955 1.400 . S
C956 C959 1.386 . S
H957 C973 0.930 . S
H958 C974 0.931 . S
C959 H947 0.929 . S
C959 C953 1.390 . S
C959 C956 1.386 . S
C960 C955 1.490 . S
C960 C962 1.395 . S
C960 C963 1.403 . S
H961 C967 0.930 . S
C962 H948 0.930 . S
C962 C960 1.395 . S
C962 C965 1.403 . S
C963 C960 1.403 . S
C963 C964 1.524 . S
C963 C967 1.400 . S
C964 H949 0.960 . S
C964 H950 0.960 . S
C964 H951 0.960 . S
C964 C963 1.524 . S
C965 C962 1.403 . S
C965 C966 1.392 . S
C965 C969 1.495 . S
C966 C965 1.392 . S
C966 C967 1.385 . S
C966 C968 1.478 . S
C967 H961 0.930 . S
C967 C963 1.400 . S
C967 C966 1.385 . S
C968 C966 1.478 . S
C968 C970 1.381 . S
C968 C974 1.383 . S
C969 C965 1.495 . S
C969 H975 0.959 . S
C969 H976 0.961 . S
C969 H977 0.960 . S
C970 C968 1.381 . S
C970 C971 1.394 . S
C970 H978 0.930 . S
C971 C970 1.394 . S
C971 C972 1.383 . S
C971 H979 0.929 . S
C972 C971 1.383 . S
C972 C973 1.377 . S
C973 H957 0.930 . S
C973 C972 1.377 . S
C973 C974 1.379 . S
C974 H958 0.931 . S
C974 C968 1.383 . S
C974 C973 1.379 . S
H975 C969 0.959 . S
H976 C969 0.961 . S
H977 C969 0.960 . S
H978 C970 0.930 . S
H979 C971 0.929 . S
H980 C988 0.929 . S
H981 C990 0.930 . S
H982 C992 0.930 . S
H983 C995 0.929 . S
H984 C998 0.930 . S
H985 C1000 0.960 . S
H986 C1000 0.960 . S
H987 C1000 0.960 . S
C988 H980 0.929 . S
C988 C989 1.377 . S
C988 C990 1.384 . S
C989 C988 1.377 . S
C989 C995 1.390 . S
C990 H981 0.930 . S
C990 C988 1.384 . S
C990 C991 1.372 . S
C991 C990 1.372 . S
C991 C992 1.400 . S
C991 C996 1.490 . S
C992 H982 0.930 . S
C992 C991 1.400 . S
C992 C995 1.386 . S
H993 C1009 0.930 . S
H994 C1010 0.931 . S
C995 H983 0.929 . S
C995 C989 1.390 . S
C995 C992 1.386 . S
C996 C991 1.490 . S
C996 C998 1.395 . S
C996 C999 1.403 . S
H997 C1003 0.930 . S
C998 H984 0.930 . S
C998 C996 1.395 . S
C998 C1001 1.403 . S
C999 C996 1.403 . S
C999 C1000 1.524 . S
C999 C1003 1.400 . S
C1000 H985 0.960 . S
C1000 H986 0.960 . S
C1000 H987 0.960 . S
C1000 C999 1.524 . S
C1001 C998 1.403 . S
C1001 C1002 1.392 1_554 S
C1001 C1005 1.495 1_554 S
C1002 C1001 1.392 1_556 S
C1002 C1003 1.385 1_556 S
C1002 C1004 1.478 . S
C1003 H997 0.930 . S
C1003 C999 1.400 . S
C1003 C1002 1.385 1_554 S
C1004 C1002 1.478 . S
C1004 C1006 1.381 . S
C1004 C1010 1.383 . S
C1005 C1001 1.495 1_556 S
C1005 H1011 0.959 . S
C1005 H1012 0.961 . S
C1005 H1013 0.960 . S
C1006 C1004 1.381 . S
C1006 C1007 1.394 . S
C1006 H1014 0.930 . S
C1007 C1006 1.394 . S
C1007 C1008 1.383 . S
C1007 H1015 0.929 . S
C1008 C1007 1.383 . S
C1008 C1009 1.377 . S
C1009 H993 0.930 . S
C1009 C1008 1.377 . S
C1009 C1010 1.379 . S
C1010 H994 0.931 . S
C1010 C1004 1.383 . S
C1010 C1009 1.379 . S
H1011 C1005 0.959 . S
H1012 C1005 0.961 . S
H1013 C1005 0.960 . S
H1014 C1006 0.930 . S
H1015 C1007 0.929 . S
H1016 C1024 0.929 . S
H1017 C1026 0.930 . S
H1018 C1028 0.930 . S
H1019 C1031 0.929 . S
H1020 C1034 0.930 . S
H1021 C1036 0.960 . S
H1022 C1036 0.960 . S
H1023 C1036 0.960 . S
C1024 H1016 0.929 . S
C1024 C1025 1.377 . S
C1024 C1026 1.384 . S
C1025 C1024 1.377 . S
C1025 C1031 1.390 . S
C1026 H1017 0.930 . S
C1026 C1024 1.384 . S
C1026 C1027 1.372 . S
C1027 C1026 1.372 . S
C1027 C1028 1.400 . S
C1027 C1032 1.490 . S
C1028 H1018 0.930 . S
C1028 C1027 1.400 . S
C1028 C1031 1.386 . S
H1029 C1045 0.930 . S
H1030 C1046 0.931 . S
C1031 H1019 0.929 . S
C1031 C1025 1.390 . S
C1031 C1028 1.386 . S
C1032 C1027 1.490 . S
C1032 C1034 1.395 . S
C1032 C1035 1.403 . S
H1033 C1039 0.930 . S
C1034 H1020 0.930 . S
C1034 C1032 1.395 . S
C1034 C1037 1.403 . S
C1035 C1032 1.403 . S
C1035 C1036 1.524 . S
C1035 C1039 1.400 . S
C1036 H1021 0.960 . S
C1036 H1022 0.960 . S
C1036 H1023 0.960 . S
C1036 C1035 1.524 . S
C1037 C1034 1.403 . S
C1037 C1038 1.392 . S
C1037 C1041 1.495 . S
C1038 C1037 1.392 . S
C1038 C1039 1.385 . S
C1038 C1040 1.478 . S
C1039 H1033 0.930 . S
C1039 C1035 1.400 . S
C1039 C1038 1.385 . S
C1040 C1038 1.478 . S
C1040 C1042 1.381 . S
C1040 C1046 1.383 . S
C1041 C1037 1.495 . S
C1041 H1047 0.959 . S
C1041 H1048 0.961 . S
C1041 H1049 0.960 . S
C1042 C1040 1.381 . S
C1042 C1043 1.394 . S
C1042 H1050 0.930 . S
C1043 C1042 1.394 . S
C1043 C1044 1.383 . S
C1043 H1051 0.929 . S
C1044 C1043 1.383 . S
C1044 C1045 1.377 . S
C1045 H1029 0.930 . S
C1045 C1044 1.377 . S
C1045 C1046 1.379 . S
C1046 H1030 0.931 . S
C1046 C1040 1.383 . S
C1046 C1045 1.379 . S
H1047 C1041 0.959 . S
H1048 C1041 0.961 . S
H1049 C1041 0.960 . S
H1050 C1042 0.930 . S
H1051 C1043 0.929 . S
H1052 C1060 0.929 . S
H1053 C1062 0.930 . S
H1054 C1064 0.930 . S
H1055 C1067 0.929 . S
H1056 C1070 0.930 . S
H1057 C1072 0.960 . S
H1058 C1072 0.960 . S
H1059 C1072 0.960 . S
C1060 H1052 0.929 . S
C1060 C1061 1.377 . S
C1060 C1062 1.384 . S
C1061 C1060 1.377 . S
C1061 C1067 1.390 . S
C1062 H1053 0.930 . S
C1062 C1060 1.384 . S
C1062 C1063 1.372 . S
C1063 C1062 1.372 . S
C1063 C1064 1.400 . S
C1063 C1068 1.490 . S
C1064 H1054 0.930 . S
C1064 C1063 1.400 . S
C1064 C1067 1.386 . S
H1065 C1081 0.930 . S
H1066 C1082 0.931 . S
C1067 H1055 0.929 . S
C1067 C1061 1.390 . S
C1067 C1064 1.386 . S
C1068 C1063 1.490 . S
C1068 C1070 1.395 . S
C1068 C1071 1.403 . S
H1069 C1075 0.930 . S
C1070 H1056 0.930 . S
C1070 C1068 1.395 . S
C1070 C1073 1.403 . S
C1071 C1068 1.403 . S
C1071 C1072 1.524 . S
C1071 C1075 1.400 . S
C1072 H1057 0.960 . S
C1072 H1058 0.960 . S
C1072 H1059 0.960 . S
C1072 C1071 1.524 . S
C1073 C1070 1.403 . S
C1073 C1074 1.392 . S
C1073 C1077 1.495 . S
C1074 C1073 1.392 . S
C1074 C1075 1.385 . S
C1074 C1076 1.478 . S
C1075 H1069 0.930 . S
C1075 C1071 1.400 . S
C1075 C1074 1.385 . S
C1076 C1074 1.478 . S
C1076 C1078 1.381 . S
C1076 C1082 1.383 . S
C1077 C1073 1.495 . S
C1077 H1083 0.959 . S
C1077 H1084 0.961 . S
C1077 H1085 0.960 . S
C1078 C1076 1.381 . S
C1078 C1079 1.394 . S
C1078 H1086 0.930 . S
C1079 C1078 1.394 . S
C1079 C1080 1.383 . S
C1079 H1087 0.929 . S
C1080 C1079 1.383 . S
C1080 C1081 1.377 . S
C1081 H1065 0.930 . S
C1081 C1080 1.377 . S
C1081 C1082 1.379 . S
C1082 H1066 0.931 . S
C1082 C1076 1.383 . S
C1082 C1081 1.379 . S
H1083 C1077 0.959 . S
H1084 C1077 0.961 . S
H1085 C1077 0.960 . S
H1086 C1078 0.930 . S
H1087 C1079 0.929 . S
H1088 C1096 0.929 . S
H1089 C1098 0.930 . S
H1090 C1100 0.930 . S
H1091 C1103 0.929 . S
H1092 C1106 0.930 . S
H1093 C1108 0.960 . S
H1094 C1108 0.960 . S
H1095 C1108 0.960 . S
C1096 H1088 0.929 . S
C1096 C1097 1.377 . S
C1096 C1098 1.384 . S
C1097 C1096 1.377 . S
C1097 C1103 1.390 . S
C1098 H1089 0.930 . S
C1098 C1096 1.384 . S
C1098 C1099 1.372 . S
C1099 C1098 1.372 . S
C1099 C1100 1.400 . S
C1099 C1104 1.490 . S
C1100 H1090 0.930 . S
C1100 C1099 1.400 . S
C1100 C1103 1.386 . S
H1101 C1117 0.930 . S
H1102 C1118 0.931 . S
C1103 H1091 0.929 . S
C1103 C1097 1.390 . S
C1103 C1100 1.386 . S
C1104 C1099 1.490 . S
C1104 C1106 1.395 1_556 S
C1104 C1107 1.403 1_556 S
H1105 C1111 0.930 . S
C1106 H1092 0.930 . S
C1106 C1104 1.395 1_554 S
C1106 C1109 1.403 . S
C1107 C1104 1.403 1_554 S
C1107 C1108 1.524 1_554 S
C1107 C1111 1.400 . S
C1108 H1093 0.960 . S
C1108 H1094 0.960 . S
C1108 H1095 0.960 . S
C1108 C1107 1.524 1_556 S
C1109 C1106 1.403 . S
C1109 C1110 1.392 . S
C1109 C1113 1.495 . S
C1110 C1109 1.392 . S
C1110 C1111 1.385 . S
C1110 C1112 1.478 . S
C1111 H1105 0.930 . S
C1111 C1107 1.400 . S
C1111 C1110 1.385 . S
C1112 C1110 1.478 . S
C1112 C1114 1.381 . S
C1112 C1118 1.383 . S
C1113 C1109 1.495 . S
C1113 H1119 0.959 . S
C1113 H1120 0.961 . S
C1113 H1121 0.960 . S
C1114 C1112 1.381 . S
C1114 C1115 1.394 . S
C1114 H1122 0.930 . S
C1115 C1114 1.394 . S
C1115 C1116 1.383 . S
C1115 H1123 0.929 . S
C1116 C1115 1.383 . S
C1116 C1117 1.377 . S
C1117 H1101 0.930 . S
C1117 C1116 1.377 . S
C1117 C1118 1.379 . S
C1118 H1102 0.931 . S
C1118 C1112 1.383 . S
C1118 C1117 1.379 . S
H1119 C1113 0.959 . S
H1120 C1113 0.961 . S
H1121 C1113 0.960 . S
H1122 C1114 0.930 . S
H1123 C1115 0.929 . S
H1124 C1132 0.929 . S
H1125 C1134 0.930 . S
H1126 C1136 0.930 . S
H1127 C1139 0.929 . S
H1128 C1142 0.930 . S
H1129 C1144 0.960 . S
H1130 C1144 0.960 . S
H1131 C1144 0.960 . S
C1132 H1124 0.929 . S
C1132 C1133 1.377 . S
C1132 C1134 1.384 . S
C1133 C1132 1.377 . S
C1133 C1139 1.390 . S
C1134 H1125 0.930 . S
C1134 C1132 1.384 . S
C1134 C1135 1.372 . S
C1135 C1134 1.372 . S
C1135 C1136 1.400 . S
C1135 C1140 1.490 . S
C1136 H1126 0.930 . S
C1136 C1135 1.400 . S
C1136 C1139 1.386 . S
H1137 C1153 0.930 . S
H1138 C1154 0.931 . S
C1139 H1127 0.929 . S
C1139 C1133 1.390 . S
C1139 C1136 1.386 . S
C1140 C1135 1.490 . S
C1140 C1142 1.395 . S
C1140 C1143 1.403 . S
H1141 C1147 0.930 . S
C1142 H1128 0.930 . S
C1142 C1140 1.395 . S
C1142 C1145 1.403 . S
C1143 C1140 1.403 . S
C1143 C1144 1.524 . S
C1143 C1147 1.400 . S
C1144 H1129 0.960 . S
C1144 H1130 0.960 . S
C1144 H1131 0.960 . S
C1144 C1143 1.524 . S
C1145 C1142 1.403 . S
C1145 C1146 1.392 . S
C1145 C1149 1.495 . S
C1146 C1145 1.392 . S
C1146 C1147 1.385 . S
C1146 C1148 1.478 . S
C1147 H1141 0.930 . S
C1147 C1143 1.400 . S
C1147 C1146 1.385 . S
C1148 C1146 1.478 . S
C1148 C1150 1.381 . S
C1148 C1154 1.383 . S
C1149 C1145 1.495 . S
C1149 H1155 0.959 . S
C1149 H1156 0.961 . S
C1149 H1157 0.960 . S
C1150 C1148 1.381 . S
C1150 C1151 1.394 . S
C1150 H1158 0.930 . S
C1151 C1150 1.394 . S
C1151 C1152 1.383 . S
C1151 H1159 0.929 . S
C1152 C1151 1.383 . S
C1152 C1153 1.377 . S
C1153 H1137 0.930 . S
C1153 C1152 1.377 . S
C1153 C1154 1.379 . S
C1154 H1138 0.931 . S
C1154 C1148 1.383 . S
C1154 C1153 1.379 . S
H1155 C1149 0.959 . S
H1156 C1149 0.961 . S
H1157 C1149 0.960 . S
H1158 C1150 0.930 . S
H1159 C1151 0.929 . S
H1160 C1168 0.929 . S
H1161 C1170 0.930 . S
H1162 C1172 0.930 . S
H1163 C1175 0.929 . S
H1164 C1178 0.930 . S
H1165 C1180 0.960 . S
H1166 C1180 0.960 . S
H1167 C1180 0.960 . S
C1168 H1160 0.929 . S
C1168 C1169 1.377 . S
C1168 C1170 1.384 . S
C1169 C1168 1.377 . S
C1169 C1175 1.390 . S
C1170 H1161 0.930 . S
C1170 C1168 1.384 . S
C1170 C1171 1.372 . S
C1171 C1170 1.372 . S
C1171 C1172 1.400 . S
C1171 C1176 1.490 . S
C1172 H1162 0.930 . S
C1172 C1171 1.400 . S
C1172 C1175 1.386 . S
H1173 C1189 0.930 . S
H1174 C1190 0.931 . S
C1175 H1163 0.929 . S
C1175 C1169 1.390 . S
C1175 C1172 1.386 . S
C1176 C1171 1.490 . S
C1176 C1178 1.395 . S
C1176 C1179 1.403 . S
H1177 C1183 0.930 . S
C1178 H1164 0.930 . S
C1178 C1176 1.395 . S
C1178 C1181 1.403 . S
C1179 C1176 1.403 . S
C1179 C1180 1.524 . S
C1179 C1183 1.400 . S
C1180 H1165 0.960 . S
C1180 H1166 0.960 . S
C1180 H1167 0.960 . S
C1180 C1179 1.524 . S
C1181 C1178 1.403 . S
C1181 C1182 1.392 . S
C1181 C1185 1.495 . S
C1182 C1181 1.392 . S
C1182 C1183 1.385 . S
C1182 C1184 1.478 . S
C1183 H1177 0.930 . S
C1183 C1179 1.400 . S
C1183 C1182 1.385 . S
C1184 C1182 1.478 . S
C1184 C1186 1.381 . S
C1184 C1190 1.383 . S
C1185 C1181 1.495 . S
C1185 H1191 0.959 . S
C1185 H1192 0.961 . S
C1185 H1193 0.960 . S
C1186 C1184 1.381 . S
C1186 C1187 1.394 . S
C1186 H1194 0.930 . S
C1187 C1186 1.394 . S
C1187 C1188 1.383 . S
C1187 H1195 0.929 . S
C1188 C1187 1.383 . S
C1188 C1189 1.377 . S
C1189 H1173 0.930 . S
C1189 C1188 1.377 . S
C1189 C1190 1.379 . S
C1190 H1174 0.931 . S
C1190 C1184 1.383 . S
C1190 C1189 1.379 . S
H1191 C1185 0.959 . S
H1192 C1185 0.961 . S
H1193 C1185 0.960 . S
H1194 C1186 0.930 . S
H1195 C1187 0.929 . S
H1196 C1204 0.929 . S
H1197 C1206 0.930 . S
H1198 C1208 0.930 . S
H1199 C1211 0.929 . S
H1200 C1214 0.930 . S
H1201 C1216 0.960 . S
H1202 C1216 0.960 . S
H1203 C1216 0.960 . S
C1204 H1196 0.929 . S
C1204 C1205 1.377 . S
C1204 C1206 1.384 . S
C1205 C1204 1.377 . S
C1205 C1211 1.390 . S
C1206 H1197 0.930 . S
C1206 C1204 1.384 . S
C1206 C1207 1.372 . S
C1207 C1206 1.372 . S
C1207 C1208 1.400 . S
C1207 C1212 1.490 . S
C1208 H1198 0.930 . S
C1208 C1207 1.400 . S
C1208 C1211 1.386 . S
H1209 C1225 0.930 . S
H1210 C1226 0.931 . S
C1211 H1199 0.929 . S
C1211 C1205 1.390 . S
C1211 C1208 1.386 . S
C1212 C1207 1.490 . S
C1212 C1214 1.395 . S
C1212 C1215 1.403 . S
H1213 C1219 0.930 . S
C1214 H1200 0.930 . S
C1214 C1212 1.395 . S
C1214 C1217 1.403 . S
C1215 C1212 1.403 . S
C1215 C1216 1.524 . S
C1215 C1219 1.400 . S
C1216 H1201 0.960 . S
C1216 H1202 0.960 . S
C1216 H1203 0.960 . S
C1216 C1215 1.524 . S
C1217 C1214 1.403 . S
C1217 C1218 1.392 . S
C1217 C1221 1.495 . S
C1218 C1217 1.392 . S
C1218 C1219 1.385 . S
C1218 C1220 1.478 . S
C1219 H1213 0.930 . S
C1219 C1215 1.400 . S
C1219 C1218 1.385 . S
C1220 C1218 1.478 . S
C1220 C1222 1.381 . S
C1220 C1226 1.383 . S
C1221 C1217 1.495 . S
C1221 H1227 0.959 . S
C1221 H1228 0.961 . S
C1221 H1229 0.960 . S
C1222 C1220 1.381 . S
C1222 C1223 1.394 . S
C1222 H1230 0.930 . S
C1223 C1222 1.394 . S
C1223 C1224 1.383 . S
C1223 H1231 0.929 . S
C1224 C1223 1.383 . S
C1224 C1225 1.377 . S
C1225 H1209 0.930 . S
C1225 C1224 1.377 . S
C1225 C1226 1.379 . S
C1226 H1210 0.931 . S
C1226 C1220 1.383 . S
C1226 C1225 1.379 . S
H1227 C1221 0.959 . S
H1228 C1221 0.961 . S
H1229 C1221 0.960 . S
H1230 C1222 0.930 . S
H1231 C1223 0.929 . S
H1232 C1240 0.929 . S
H1233 C1242 0.930 . S
H1234 C1244 0.930 . S
H1235 C1247 0.929 . S
H1236 C1250 0.930 . S
H1237 C1252 0.960 . S
H1238 C1252 0.960 . S
H1239 C1252 0.960 . S
C1240 H1232 0.929 . S
C1240 C1241 1.377 . S
C1240 C1242 1.384 . S
C1241 C1240 1.377 . S
C1241 C1247 1.390 . S
C1242 H1233 0.930 . S
C1242 C1240 1.384 . S
C1242 C1243 1.372 . S
C1243 C1242 1.372 . S
C1243 C1244 1.400 . S
C1243 C1248 1.490 . S
C1244 H1234 0.930 . S
C1244 C1243 1.400 . S
C1244 C1247 1.386 . S
H1245 C1261 0.930 . S
H1246 C1262 0.931 . S
C1247 H1235 0.929 . S
C1247 C1241 1.390 . S
C1247 C1244 1.386 . S
C1248 C1243 1.490 . S
C1248 C1250 1.395 . S
C1248 C1251 1.403 . S
H1249 C1255 0.930 . S
C1250 H1236 0.930 . S
C1250 C1248 1.395 . S
C1250 C1253 1.403 . S
C1251 C1248 1.403 . S
C1251 C1252 1.524 . S
C1251 C1255 1.400 . S
C1252 H1237 0.960 . S
C1252 H1238 0.960 . S
C1252 H1239 0.960 . S
C1252 C1251 1.524 . S
C1253 C1250 1.403 . S
C1253 C1254 1.392 . S
C1253 C1257 1.495 . S
C1254 C1253 1.392 . S
C1254 C1255 1.385 . S
C1254 C1256 1.478 . S
C1255 H1249 0.930 . S
C1255 C1251 1.400 . S
C1255 C1254 1.385 . S
C1256 C1254 1.478 . S
C1256 C1258 1.381 . S
C1256 C1262 1.383 . S
C1257 C1253 1.495 . S
C1257 H1263 0.959 . S
C1257 H1264 0.961 . S
C1257 H1265 0.960 . S
C1258 C1256 1.381 . S
C1258 C1259 1.394 . S
C1258 H1266 0.930 . S
C1259 C1258 1.394 . S
C1259 C1260 1.383 . S
C1259 H1267 0.929 . S
C1260 C1259 1.383 . S
C1260 C1261 1.377 . S
C1261 H1245 0.930 . S
C1261 C1260 1.377 . S
C1261 C1262 1.379 . S
C1262 H1246 0.931 . S
C1262 C1256 1.383 . S
C1262 C1261 1.379 . S
H1263 C1257 0.959 . S
H1264 C1257 0.961 . S
H1265 C1257 0.960 . S
H1266 C1258 0.930 . S
H1267 C1259 0.929 . S
H1268 C1276 0.929 . S
H1269 C1278 0.930 . S
H1270 C1280 0.930 . S
H1271 C1283 0.929 . S
H1272 C1286 0.930 . S
H1273 C1288 0.960 . S
H1274 C1288 0.960 . S
H1275 C1288 0.960 . S
C1276 H1268 0.929 . S
C1276 C1277 1.377 . S
C1276 C1278 1.384 . S
C1277 C1276 1.377 . S
C1277 C1283 1.390 . S
C1278 H1269 0.930 . S
C1278 C1276 1.384 . S
C1278 C1279 1.372 . S
C1279 C1278 1.372 . S
C1279 C1280 1.400 . S
C1279 C1284 1.490 . S
C1280 H1270 0.930 . S
C1280 C1279 1.400 . S
C1280 C1283 1.386 . S
H1281 C1297 0.930 . S
H1282 C1298 0.931 . S
C1283 H1271 0.929 . S
C1283 C1277 1.390 . S
C1283 C1280 1.386 . S
C1284 C1279 1.490 . S
C1284 C1286 1.395 . S
C1284 C1287 1.403 . S
H1285 C1291 0.930 . S
C1286 H1272 0.930 . S
C1286 C1284 1.395 . S
C1286 C1289 1.403 . S
C1287 C1284 1.403 . S
C1287 C1288 1.524 . S
C1287 C1291 1.400 . S
C1288 H1273 0.960 . S
C1288 H1274 0.960 . S
C1288 H1275 0.960 . S
C1288 C1287 1.524 . S
C1289 C1286 1.403 . S
C1289 C1290 1.392 . S
C1289 C1293 1.495 . S
C1290 C1289 1.392 . S
C1290 C1291 1.385 . S
C1290 C1292 1.478 . S
C1291 H1285 0.930 . S
C1291 C1287 1.400 . S
C1291 C1290 1.385 . S
C1292 C1290 1.478 . S
C1292 C1294 1.381 . S
C1292 C1298 1.383 . S
C1293 C1289 1.495 . S
C1293 H1299 0.959 . S
C1293 H1300 0.961 . S
C1293 H1301 0.960 . S
C1294 C1292 1.381 . S
C1294 C1295 1.394 . S
C1294 H1302 0.930 . S
C1295 C1294 1.394 . S
C1295 C1296 1.383 . S
C1295 H1303 0.929 . S
C1296 C1295 1.383 . S
C1296 C1297 1.377 . S
C1297 H1281 0.930 . S
C1297 C1296 1.377 . S
C1297 C1298 1.379 . S
C1298 H1282 0.931 . S
C1298 C1292 1.383 . S
C1298 C1297 1.379 . S
H1299 C1293 0.959 . S
H1300 C1293 0.961 . S
H1301 C1293 0.960 . S
H1302 C1294 0.930 . S
H1303 C1295 0.929 . S
H1304 C1312 0.929 . S
H1305 C1314 0.930 . S
H1306 C1316 0.930 . S
H1307 C1319 0.929 . S
H1308 C1322 0.930 . S
H1309 C1324 0.960 . S
H1310 C1324 0.960 . S
H1311 C1324 0.960 . S
C1312 H1304 0.929 . S
C1312 C1313 1.377 . S
C1312 C1314 1.384 . S
C1313 C1312 1.377 . S
C1313 C1319 1.390 . S
C1314 H1305 0.930 . S
C1314 C1312 1.384 . S
C1314 C1315 1.372 . S
C1315 C1314 1.372 . S
C1315 C1316 1.400 . S
C1315 C1320 1.490 . S
C1316 H1306 0.930 . S
C1316 C1315 1.400 . S
C1316 C1319 1.386 . S
H1317 C1333 0.930 . S
H1318 C1334 0.931 . S
C1319 H1307 0.929 . S
C1319 C1313 1.390 . S
C1319 C1316 1.386 . S
C1320 C1315 1.490 . S
C1320 C1322 1.395 . S
C1320 C1323 1.403 . S
H1321 C1327 0.930 . S
C1322 H1308 0.930 . S
C1322 C1320 1.395 . S
C1322 C1325 1.403 . S
C1323 C1320 1.403 . S
C1323 C1324 1.524 . S
C1323 C1327 1.400 . S
C1324 H1309 0.960 . S
C1324 H1310 0.960 . S
C1324 H1311 0.960 . S
C1324 C1323 1.524 . S
C1325 C1322 1.403 . S
C1325 C1326 1.392 . S
C1325 C1329 1.495 . S
C1326 C1325 1.392 . S
C1326 C1327 1.385 . S
C1326 C1328 1.478 . S
C1327 H1321 0.930 . S
C1327 C1323 1.400 . S
C1327 C1326 1.385 . S
C1328 C1326 1.478 . S
C1328 C1330 1.381 . S
C1328 C1334 1.383 . S
C1329 C1325 1.495 . S
C1329 H1335 0.959 . S
C1329 H1336 0.961 . S
C1329 H1337 0.960 . S
C1330 C1328 1.381 . S
C1330 C1331 1.394 . S
C1330 H1338 0.930 . S
C1331 C1330 1.394 . S
C1331 C1332 1.383 . S
C1331 H1339 0.929 . S
C1332 C1331 1.383 . S
C1332 C1333 1.377 . S
C1333 H1317 0.930 . S
C1333 C1332 1.377 . S
C1333 C1334 1.379 . S
C1334 H1318 0.931 . S
C1334 C1328 1.383 . S
C1334 C1333 1.379 . S
H1335 C1329 0.959 . S
H1336 C1329 0.961 . S
H1337 C1329 0.960 . S
H1338 C1330 0.930 . S
H1339 C1331 0.929 . S
H1340 C1348 0.929 . S
H1341 C1350 0.930 . S
H1342 C1352 0.930 . S
H1343 C1355 0.929 . S
H1344 C1358 0.930 . S
H1345 C1360 0.960 . S
H1346 C1360 0.960 . S
H1347 C1360 0.960 . S
C1348 H1340 0.929 . S
C1348 C1349 1.377 . S
C1348 C1350 1.384 . S
C1349 C1348 1.377 . S
C1349 C1355 1.390 . S
C1350 H1341 0.930 . S
C1350 C1348 1.384 . S
C1350 C1351 1.372 . S
C1351 C1350 1.372 . S
C1351 C1352 1.400 . S
C1351 C1356 1.490 . S
C1352 H1342 0.930 . S
C1352 C1351 1.400 . S
C1352 C1355 1.386 . S
H1353 C1369 0.930 . S
H1354 C1370 0.931 . S
C1355 H1343 0.929 . S
C1355 C1349 1.390 . S
C1355 C1352 1.386 . S
C1356 C1351 1.490 . S
C1356 C1358 1.395 . S
C1356 C1359 1.403 . S
H1357 C1363 0.930 1_556 S
C1358 H1344 0.930 . S
C1358 C1356 1.395 . S
C1358 C1361 1.403 . S
C1359 C1356 1.403 . S
C1359 C1360 1.524 . S
C1359 C1363 1.400 . S
C1360 H1345 0.960 . S
C1360 H1346 0.960 . S
C1360 H1347 0.960 . S
C1360 C1359 1.524 . S
C1361 C1358 1.403 . S
C1361 C1362 1.392 1_554 S
C1361 C1365 1.495 1_554 S
C1362 C1361 1.392 1_556 S
C1362 C1363 1.385 1_556 S
C1362 C1364 1.478 . S
C1363 H1357 0.930 1_554 S
C1363 C1359 1.400 . S
C1363 C1362 1.385 1_554 S
C1364 C1362 1.478 . S
C1364 C1366 1.381 . S
C1364 C1370 1.383 . S
C1365 C1361 1.495 1_556 S
C1365 H1371 0.959 1_556 S
C1365 H1372 0.961 . S
C1365 H1373 0.960 . S
C1366 C1364 1.381 . S
C1366 C1367 1.394 . S
C1366 H1374 0.930 . S
C1367 C1366 1.394 . S
C1367 C1368 1.383 . S
C1367 H1375 0.929 . S
C1368 C1367 1.383 . S
C1368 C1369 1.377 . S
C1369 H1353 0.930 . S
C1369 C1368 1.377 . S
C1369 C1370 1.379 . S
C1370 H1354 0.931 . S
C1370 C1364 1.383 . S
C1370 C1369 1.379 . S
H1371 C1365 0.959 1_554 S
H1372 C1365 0.961 . S
H1373 C1365 0.960 . S
H1374 C1366 0.930 . S
H1375 C1367 0.929 . S
C233 C90 1.391 . S
C252 C6 1.402 . S
C269 C104 1.392 . S
C288 C20 1.406 . S
C305 C34 1.389 . S
C324 C62 1.396 . S
C341 C48 1.388 . S
C360 C76 1.390 . S
C377 C118 1.391 . S
C396 C202 1.404 . S
C413 C216 1.392 . S
C432 C132 1.408 . S
C449 C146 1.388 . S
C468 C174 1.391 . S
C485 C160 1.391 . S
C504 C188 1.400 . S
C521 C9 1.335 . S
C540 C149 1.356 . S
C557 C23 1.335 . S
C576 C163 1.349 . S
C593 C37 1.335 . S
C612 C121 1.356 . S
C629 C51 1.330 . S
C648 C135 1.338 . S
C665 C65 1.332 1_556 S
C684 C205 1.348 . S
C701 C219 1.332 . S
C720 C79 1.347 . S
C737 C93 1.323 . S
C756 C177 1.297 . S
C773 C191 1.326 . S
C792 C107 1.303 . S
C809 C190 0.614 . S
C828 C8 0.663 . S
C845 C22 0.625 . S
C864 C204 0.686 . S
C881 C218 0.610 . S
C900 C36 0.609 . S
C917 C176 0.632 . S
C936 C50 0.588 . S
C953 C162 0.612 . S
C972 C64 0.579 . S
C989 C78 0.633 . S
C1008 C120 0.675 . S
C1025 C92 0.634 . S
C1044 C134 0.602 . S
C1061 C106 0.610 . S
C1080 C148 0.598 . S
C1097 C189 1.510 . S
C1116 C7 1.491 . S
C1133 C21 1.514 . S
C1152 C203 1.494 . S
C1169 C35 1.512 . S
C1188 C217 1.519 . S
C1205 C175 1.514 . S
C1224 C49 1.501 . S
C1241 C161 1.507 . S
C1260 C63 1.514 . S
C1277 C119 1.511 . S
C1296 C77 1.522 . S
C1313 C91 1.511 . S
C1332 C133 1.523 . S
C1349 C147 1.507 . S
C1368 C105 1.507 . S
