# Generated by pormake.
# Topology lcy, (6)-cn, num edge types: 1
# Building blocks:
#     Node 0, Type 0, BuildingBlock: CIFDUS_clean_sbu_1, # of connection points: 6
#     Node 1, Type 0, BuildingBlock: CIFDUS_clean_sbu_1, # of connection points: 6
#     Node 2, Type 0, BuildingBlock: CIFDUS_clean_sbu_1, # of connection points: 6
#     Node 3, Type 0, BuildingBlock: CIFDUS_clean_sbu_1, # of connection points: 6
#     Edge 4, Type (0, 0), BuildingBlock: XUDNAN_clean_linker_2, # of connection points: 2
#     Edge 5, Type (0, 0), BuildingBlock: XUDNAN_clean_linker_2, # of connection points: 2
#     Edge 6, Type (0, 0), BuildingBlock: XUDNAN_clean_linker_2, # of connection points: 2
#     Edge 7, Type (0, 0), BuildingBlock: XUDNAN_clean_linker_2, # of connection points: 2
#     Edge 8, Type (0, 0), BuildingBlock: XUDNAN_clean_linker_2, # of connection points: 2
#     Edge 9, Type (0, 0), BuildingBlock: XUDNAN_clean_linker_2, # of connection points: 2
#     Edge 10, Type (0, 0), BuildingBlock: XUDNAN_clean_linker_2, # of connection points: 2
#     Edge 11, Type (0, 0), BuildingBlock: XUDNAN_clean_linker_2, # of connection points: 2
#     Edge 12, Type (0, 0), BuildingBlock: XUDNAN_clean_linker_2, # of connection points: 2
#     Edge 13, Type (0, 0), BuildingBlock: XUDNAN_clean_linker_2, # of connection points: 2
#     Edge 14, Type (0, 0), BuildingBlock: XUDNAN_clean_linker_2, # of connection points: 2
#     Edge 15, Type (0, 0), BuildingBlock: XUDNAN_clean_linker_2, # of connection points: 2
# Relax obj value: 0.337
# Max RMSD: 0.277
# Mean RMSD: 0.275
data_MOF--net-lcy--node1-CIFDUS_clean_sbu_1--edge1-XUDNAN_clean_linker_2
_symmetry_space_group_name_H-M    P1
_symmetry_Int_Tables_number       1
_symmetry_cell_setting            triclinic
loop_
_symmetry_equiv_pos_as_xyz
'x, y, z'
_cell_length_a     24.559149
_cell_length_b     24.514585
_cell_length_c     26.106517
_cell_angle_alpha  89.903311
_cell_angle_beta   88.76098
_cell_angle_gamma 90.170466
loop_
_atom_site_label
_atom_site_type_symbol
_atom_site_fract_x
_atom_site_fract_y
_atom_site_fract_z
_atom_type_partial_charge
O0 O 0.41773 0.45284 0.35926 0.0
Mn1 Mn 0.37145 0.38275 0.38078 0.0
O2 O 0.47643 0.47019 0.41874 0.0
Mn3 Mn 0.43159 0.42881 0.45897 0.0
O4 O 0.31822 0.3165 0.39735 0.0
O5 O 0.32788 0.40527 0.31599 0.0
Mn6 Mn 0.31248 0.34323 0.27952 0.0
O7 O 0.42238 0.33216 0.33746 0.0
O8 O 0.27193 0.30061 0.3246 0.0
O9 O 0.31739 0.42817 0.4284 0.0
O10 O 0.37223 0.4634 0.48624 0.0
O11 O 0.32756 0.40675 0.31494 0.0
O12 O 0.37695 0.30433 0.26829 0.0
C13 C 0.45312 0.35384 0.48252 0.0
C14 C 0.45702 0.48131 0.37611 0.0
C15 C 0.28008 0.29266 0.37221 0.0
C16 C 0.32351 0.45344 0.29581 0.0
C17 C 0.41825 0.30306 0.29701 0.0
C18 C 0.32522 0.45627 0.46904 0.0
O19 O 0.42139 0.35801 0.44206 0.0
O20 O 0.4682 0.39749 0.50651 0.0
O21 O 0.82485 0.07711 0.55583 0.0
Mn22 Mn 0.87317 0.11678 0.60987 0.0
O23 O 0.85601 0.99518 0.5491 0.0
Mn24 Mn 0.91871 0.03327 0.55863 0.0
O25 O 0.91864 0.16852 0.65907 0.0
O26 O 0.81562 0.1771 0.59945 0.0
Mn27 Mn 0.8118 0.19418 0.66731 0.0
O28 O 0.82792 0.07724 0.66781 0.0
O29 O 0.86675 0.2434 0.6639 0.0
O30 O 0.92265 0.1534 0.55284 0.0
O31 O 0.94219 0.08002 0.50739 0.0
O32 O 0.74244 0.18656 0.64646 0.0
O33 O 0.82242 0.14612 0.72029 0.0
C34 C 0.96543 0.01215 0.61727 0.0
C35 C 0.81925 0.02857 0.53981 0.0
C36 C 0.91333 0.22104 0.66323 0.0
C37 C 0.76247 0.18004 0.6009 0.0
C38 C 0.8191 0.09579 0.71261 0.0
C39 C 0.94645 0.13081 0.51441 0.0
O40 O 0.93072 0.05331 0.62401 0.0
O41 O 0.97112 0.98907 0.57286 0.0
O42 O 0.17481 0.67289 0.92697 0.0
Mn43 Mn 0.12178 0.62445 0.88448 0.0
O44 O 0.22633 0.70808 0.86532 0.0
Mn45 Mn 0.17403 0.70894 0.81726 0.0
O46 O 0.07204 0.56989 0.84237 0.0
O47 O 0.13604 0.57027 0.94429 0.0
Mn48 Mn 0.07067 0.53942 0.95154 0.0
O49 O 0.05519 0.65779 0.92437 0.0
O50 O 0.06061 0.49873 0.89481 0.0
O51 O 0.18454 0.59222 0.83469 0.0
O52 O 0.18873 0.65541 0.77136 0.0
O53 O 0.10866 0.50735 0.00118 0.0
O54 O 0.01527 0.58827 0.96604 0.0
C55 C 0.09009 0.73346 0.8304 0.0
C56 C 0.21851 0.69652 0.91169 0.0
C57 C 0.05965 0.51935 0.85045 0.0
C58 C 0.14791 0.53715 0.98226 0.0
C59 C 0.01535 0.63732 0.95035 0.0
C60 C 0.19624 0.60687 0.78755 0.0
O61 O 0.10669 0.68308 0.8307 0.0
O62 O 0.12967 0.76778 0.82628 0.0
O63 O 0.66745 0.93258 0.17636 0.0
Mn64 Mn 0.62746 0.88264 0.12495 0.0
O65 O 0.72254 0.87685 0.22065 0.0
Mn66 Mn 0.70368 0.81103 0.19122 0.0
O67 O 0.58598 0.82934 0.07632 0.0
O68 O 0.56966 0.94185 0.12112 0.0
Mn69 Mn 0.5478 0.94393 0.05729 0.0
O70 O 0.67017 0.91748 0.06324 0.0
O71 O 0.51721 0.87771 0.04408 0.0
O72 O 0.58393 0.84404 0.18514 0.0
O73 O 0.64013 0.77919 0.21537 0.0
O74 O 0.50921 0.99738 0.08994 0.0
O75 O 0.60804 0.96246 0.0172 0.0
C76 C 0.72796 0.79889 0.11275 0.0
C77 C 0.70302 0.92385 0.21075 0.0
C78 C 0.54158 0.83291 0.05154 0.0
C79 C 0.53829 0.98388 0.12878 0.0
C80 C 0.65663 0.94683 0.02484 0.0
C81 C 0.59327 0.8008 0.21167 0.0
O82 O 0.68751 0.82805 0.12831 0.0
O83 O 0.7532 0.77466 0.14924 0.0
H84 H 0.17487 0.59767 0.0648 0.0
H85 H 0.2303 0.46577 0.96751 0.0
H86 H 0.28994 0.43328 0.03613 0.0
H87 H 0.31404 0.61426 0.13582 0.0
H88 H 0.27672 0.63207 0.19346 0.0
H89 H 0.25115 0.65165 0.13183 0.0
H90 H 0.16004 0.6033 0.15692 0.0
H91 H 0.1869 0.5809 0.21681 0.0
H92 H 0.16052 0.53158 0.17253 0.0
H93 H 0.32666 0.40367 0.12158 0.0
H94 H 0.34861 0.38741 0.21203 0.0
H95 H 0.2719 0.54022 0.25434 0.0
C96 C 0.20275 0.56449 0.05666 0.0
C97 C 0.19983 0.53578 0.0098 0.0
C98 C 0.23391 0.49 0.00195 0.0
C99 C 0.26738 0.47081 0.04115 0.0
C100 C 0.26715 0.49842 0.0879 0.0
C101 C 0.23733 0.54567 0.09515 0.0
C102 C 0.24055 0.56504 0.15035 0.0
C103 C 0.27249 0.61897 0.153 0.0
C104 C 0.18361 0.57048 0.17559 0.0
C105 C 0.27254 0.51886 0.17399 0.0
C106 C 0.28831 0.48129 0.13719 0.0
C107 C 0.31511 0.43333 0.15045 0.0
C108 C 0.32645 0.42382 0.20233 0.0
C109 C 0.31045 0.4617 0.24079 0.0
C110 C 0.28416 0.51027 0.22594 0.0
H111 H 0.80079 0.94208 0.25205 0.0
H112 H 0.63405 0.99768 0.25432 0.0
H113 H 0.64712 0.04005 0.33893 0.0
H114 H 0.80042 0.89463 0.36778 0.0
H115 H 0.86831 0.91344 0.38598 0.0
H116 H 0.85341 0.90399 0.31961 0.0
H117 H 0.88652 0.00173 0.29714 0.0
H118 H 0.90453 0.01086 0.36316 0.0
H119 H 0.85996 0.05891 0.333 0.0
H120 H 0.67263 0.05528 0.43132 0.0
H121 H 0.71381 0.05762 0.51785 0.0
H122 H 0.86082 0.98516 0.45357 0.0
C123 C 0.76815 0.96603 0.26912 0.0
C124 C 0.71649 0.96715 0.24699 0.0
C125 C 0.67407 0.99756 0.27048 0.0
C126 C 0.6811 0.02113 0.31881 0.0
C127 C 0.73118 0.01448 0.34216 0.0
C128 C 0.7746 0.98917 0.31723 0.0
C129 C 0.82164 0.98034 0.35246 0.0
C130 C 0.83674 0.91951 0.35668 0.0
C131 C 0.87107 0.01505 0.33543 0.0
C132 C 0.79669 1.00122 0.40178 0.0
C133 C 0.74506 0.02182 0.39531 0.0
C134 C 0.71364 0.04094 0.4367 0.0
C135 C 0.73679 0.04128 0.48553 0.0
C136 C 0.78986 0.02078 0.49217 0.0
C137 C 0.81957 1.0 0.44981 0.0
H138 H 0.26074 0.63249 0.70655 0.0
H139 H 0.1728 0.49646 0.77543 0.0
H140 H 0.1856 0.44416 0.69427 0.0
H141 H 0.19719 0.62233 0.58681 0.0
H142 H 0.25666 0.6444 0.55073 0.0
H143 H 0.24568 0.66766 0.61553 0.0
H144 H 0.3399 0.6303 0.64172 0.0
H145 H 0.35203 0.60929 0.57657 0.0
H146 H 0.35694 0.5603 0.62784 0.0
H147 H 0.20821 0.40892 0.60123 0.0
H148 H 0.24813 0.39108 0.51482 0.0
H149 H 0.3098 0.55634 0.50811 0.0
C150 C 0.24515 0.59112 0.7053 0.0
C151 C 0.2162 0.56835 0.74762 0.0
C152 C 0.19612 0.51432 0.74394 0.0
C153 C 0.20236 0.48484 0.69761 0.0
C154 C 0.22801 0.51045 0.65545 0.0
C155 C 0.2494 0.56237 0.65951 0.0
C156 C 0.27319 0.58283 0.60922 0.0
C157 C 0.24127 0.63223 0.58945 0.0
C158 C 0.33412 0.59641 0.61413 0.0
C159 C 0.26411 0.53354 0.57597 0.0
C160 C 0.23743 0.49218 0.60271 0.0
C161 C 0.22827 0.44147 0.57999 0.0
C162 C 0.25002 0.43198 0.53032 0.0
C163 C 0.28061 0.47294 0.50419 0.0
C164 C 0.2849 0.52504 0.52643 0.0
H165 H 0.6716 0.04518 0.98067 0.0
H166 H 0.72938 0.87849 0.97723 0.0
H167 H 0.78015 0.89765 0.89592 0.0
H168 H 0.64671 0.05724 0.85224 0.0
H169 H 0.66856 0.12723 0.84597 0.0
H170 H 0.64284 0.10231 0.90668 0.0
H171 H 0.73172 0.13185 0.95088 0.0
H172 H 0.75717 0.15843 0.8906 0.0
H173 H 0.7965 0.10913 0.92519 0.0
H174 H 0.80832 0.93217 0.80666 0.0
H175 H 0.83371 0.98478 0.72745 0.0
H176 H 0.76031 0.12893 0.79531 0.0
C177 C 0.69645 0.0133 0.96359 0.0
C178 C 0.69729 0.96066 0.98499 0.0
C179 C 0.72938 0.91942 0.96161 0.0
C180 C 0.75764 0.92979 0.91519 0.0
C181 C 0.75368 0.98173 0.89357 0.0
C182 C 0.72522 0.02317 0.91799 0.0
C183 C 0.72562 0.07492 0.88668 0.0
C184 C 0.66749 0.09135 0.87204 0.0
C185 C 0.75451 0.12131 0.91502 0.0
C186 C 0.75831 0.05617 0.84048 0.0
C187 C 0.77338 0.00218 0.84439 0.0
C188 C 0.79944 0.97517 0.8038 0.0
C189 C 0.81308 0.00503 0.75909 0.0
C190 C 0.80082 0.06125 0.7561 0.0
C191 C 0.77202 0.08641 0.79702 0.0
H192 H 0.01072 0.22083 0.53912 0.0
H193 H 0.98022 0.10268 0.41909 0.0
H194 H 0.068 0.12547 0.37798 0.0
H195 H 0.07848 0.3221 0.44918 0.0
H196 H 0.12597 0.34414 0.49668 0.0
H197 H 0.05915 0.32046 0.5162 0.0
H198 H 0.10365 0.2501 0.57586 0.0
H199 H 0.17065 0.27225 0.55519 0.0
H200 H 0.1515 0.20151 0.54941 0.0
H201 H 0.16231 0.14859 0.35682 0.0
H202 H 0.24862 0.19545 0.33654 0.0
H203 H 0.21878 0.30812 0.462 0.0
C204 C 0.02162 0.20141 0.50313 0.0
C205 C 0.98864 0.15935 0.4827 0.0
C206 C 0.00479 0.13457 0.43578 0.0
C207 C 0.05496 0.14677 0.41236 0.0
C208 C 0.08823 0.18513 0.43531 0.0
C209 C 0.07158 0.21424 0.47808 0.0
C210 C 0.11527 0.25552 0.49253 0.0
C211 C 0.09342 0.31403 0.48837 0.0
C212 C 0.13651 0.24413 0.54646 0.0
C213 C 0.15899 0.24405 0.45152 0.0
C214 C 0.14255 0.20203 0.42016 0.0
C215 C 0.17535 0.18227 0.38036 0.0
C216 C 0.22467 0.20872 0.36956 0.0
C217 C 0.2405 0.25528 0.39762 0.0
C218 C 0.20824 0.272 0.44053 0.0
H219 H 0.99623 0.79728 0.84596 0.0
H220 H 0.09251 0.71094 0.73092 0.0
H221 H 0.08249 0.78772 0.67166 0.0
H222 H 0.90246 0.83977 0.73221 0.0
H223 H 0.88107 0.903 0.76006 0.0
H224 H 0.8913 0.84434 0.8006 0.0
H225 H 0.9603 0.89257 0.85606 0.0
H226 H 0.9491 0.9548 0.82113 0.0
H227 H 0.01719 0.92828 0.82658 0.0
H228 H 0.09396 0.88676 0.6453 0.0
H229 H 0.06713 0.97467 0.60903 0.0
H230 H 0.93134 0.98355 0.71786 0.0
C231 C 0.01183 0.79271 0.80709 0.0
C232 C 0.04803 0.74954 0.79403 0.0
C233 C 0.06578 0.74413 0.74222 0.0
C234 C 0.06185 0.78836 0.70871 0.0
C235 C 0.03318 0.83397 0.72542 0.0
C236 C 0.00268 0.83373 0.7703 0.0
C237 C 0.96629 0.88407 0.77257 0.0
C238 C 0.90672 0.8667 0.76614 0.0
C239 C 0.97372 0.91685 0.82206 0.0
C240 C 0.98712 0.91556 0.72557 0.0
C241 C 0.02767 0.88619 0.70087 0.0
C242 C 0.05949 0.90856 0.66162 0.0
C243 C 0.04459 0.95923 0.64219 0.0
C244 C 0.99535 0.98451 0.65859 0.0
C245 C 0.96831 0.96461 0.70351 0.0
H246 H 0.30044 0.76627 0.89097 0.0
H247 H 0.24205 0.65265 0.007 0.0
H248 H 0.33101 0.66057 0.05077 0.0
H249 H 0.4345 0.71391 0.87907 0.0
H250 H 0.46445 0.78031 0.86838 0.0
H251 H 0.3958 0.76695 0.84889 0.0
H252 H 0.35912 0.84808 0.90355 0.0
H253 H 0.42792 0.86332 0.92049 0.0
H254 H 0.37683 0.8524 0.97007 0.0
H255 H 0.42552 0.68999 0.0836 0.0
H256 H 0.50802 0.74293 0.10513 0.0
H257 H 0.50675 0.82059 0.95686 0.0
C258 C 0.3058 0.74282 0.92571 0.0
C259 C 0.26455 0.70807 0.94541 0.0
C260 C 0.27326 0.67928 0.99144 0.0
C261 C 0.3238 0.68312 0.01594 0.0
C262 C 0.36482 0.71529 0.99312 0.0
C263 C 0.35571 0.74475 0.94909 0.0
C264 C 0.4046 0.77739 0.93165 0.0
C265 C 0.42609 0.75846 0.87888 0.0
C266 C 0.39134 0.83888 0.93149 0.0
C267 C 0.44331 0.76277 0.97329 0.0
C268 C 0.41997 0.72719 0.00885 0.0
C269 C 0.44494 0.71622 0.05525 0.0
C270 C 0.49241 0.74553 0.06694 0.0
C271 C 0.51405 0.78447 0.03207 0.0
C272 C 0.49178 0.78953 0.98327 0.0
H273 H 0.47607 0.27996 0.20932 0.0
H274 H 0.4434 0.22284 0.3638 0.0
H275 H 0.48748 0.13474 0.34282 0.0
H276 H 0.44663 0.1658 0.14678 0.0
H277 H 0.50014 0.16963 0.09854 0.0
H278 H 0.47604 0.23078 0.12892 0.0
H279 H 0.57423 0.25391 0.15662 0.0
H280 H 0.59876 0.19254 0.12604 0.0
H281 H 0.61216 0.20468 0.19267 0.0
H282 H 0.5125 0.0454 0.29699 0.0
H283 H 0.52695 0.97018 0.23412 0.0
H284 H 0.55552 0.0897 0.11441 0.0
C285 C 0.48065 0.24978 0.23924 0.0
C286 C 0.45739 0.2583 0.28828 0.0
C287 C 0.46241 0.21745 0.32632 0.0
C288 C 0.48705 0.16713 0.31462 0.0
C289 C 0.50792 0.15899 0.26511 0.0
C290 C 0.50663 0.2001 0.22859 0.0
C291 C 0.52808 0.1803 0.17728 0.0
C292 C 0.48516 0.187 0.13549 0.0
C293 C 0.58149 0.2096 0.16229 0.0
C294 C 0.53805 0.12088 0.18952 0.0
C295 C 0.52643 0.10885 0.24032 0.0
C296 C 0.52399 0.05469 0.25769 0.0
C297 C 0.53244 0.01213 0.22195 0.0
C298 C 0.54404 0.02439 0.16998 0.0
C299 C 0.54863 0.07936 0.15442 0.0
H300 H 0.70897 0.15616 0.50612 0.0
H301 H 0.74719 0.28644 0.61217 0.0
H302 H 0.65564 0.32381 0.60239 0.0
H303 H 0.6426 0.27458 0.42151 0.0
H304 H 0.59647 0.2275 0.39178 0.0
H305 H 0.66372 0.20545 0.40873 0.0
H306 H 0.62005 0.12667 0.46144 0.0
H307 H 0.55287 0.14979 0.4458 0.0
H308 H 0.57134 0.14178 0.51189 0.0
H309 H 0.54988 0.30749 0.61219 0.0
H310 H 0.45874 0.32751 0.5811 0.0
H311 H 0.50533 0.26352 0.4315 0.0
C312 C 0.69942 0.19423 0.52501 0.0
C313 C 0.73308 0.21533 0.56427 0.0
C314 C 0.72071 0.26768 0.58448 0.0
C315 C 0.66837 0.28854 0.58035 0.0
C316 C 0.63286 0.2618 0.54834 0.0
C317 C 0.65029 0.22215 0.51462 0.0
C318 C 0.60683 0.21369 0.4739 0.0
C319 C 0.6287 0.23139 0.42082 0.0
C320 C 0.58656 0.15442 0.47324 0.0
C321 C 0.56184 0.25194 0.49365 0.0
C322 C 0.57685 0.2737 0.53978 0.0
C323 C 0.53907 0.29642 0.57358 0.0
C324 C 0.48689 0.30594 0.55583 0.0
C325 C 0.47712 0.30283 0.50255 0.0
C326 C 0.51264 0.26991 0.47177 0.0
H327 H 0.03497 0.41259 0.8624 0.0
H328 H 0.05406 0.5369 0.74449 0.0
H329 H 0.03392 0.46648 0.67862 0.0
H330 H 0.09615 0.30101 0.79135 0.0
H331 H 0.04923 0.25222 0.81947 0.0
H332 H 0.06889 0.31167 0.85521 0.0
H333 H 0.96737 0.33881 0.86799 0.0
H334 H 0.94754 0.27901 0.83343 0.0
H335 H 0.92507 0.34527 0.81274 0.0
H336 H 0.00232 0.38184 0.62805 0.0
H337 H 0.9563 0.29748 0.5998 0.0
H338 H 0.96455 0.23124 0.7529 0.0
C339 C 0.03541 0.42587 0.82282 0.0
C340 C 0.04584 0.48079 0.8088 0.0
C341 C 0.04573 0.49528 0.75628 0.0
C342 C 0.03494 0.45539 0.71872 0.0
C343 C 0.02536 0.40142 0.73453 0.0
C344 C 0.02561 0.38713 0.78557 0.0
C345 C 0.01103 0.32795 0.79438 0.0
C346 C 0.05922 0.29637 0.8164 0.0
C347 C 0.95972 0.32248 0.82912 0.0
C348 C 1.00033 0.31065 0.74023 0.0
C349 C 0.00953 0.35317 0.70589 0.0
C350 C 0.99651 0.34813 0.65444 0.0
C351 C 0.97103 0.29982 0.63858 0.0
C352 C 0.95907 0.25734 0.67398 0.0
C353 C 0.97591 0.26199 0.72476 0.0
H354 H 0.99791 0.74346 0.98191 0.0
H355 H 0.91635 0.59819 0.9283 0.0
H356 H 0.82759 0.64332 0.93896 0.0
H357 H 0.91525 0.76637 0.08126 0.0
H358 H 0.91387 0.83988 0.07823 0.0
H359 H 0.97049 0.80365 0.05073 0.0
H360 H 0.95418 0.85194 0.96377 0.0
H361 H 0.89625 0.8873 0.99132 0.0
H362 H 0.8886 0.84663 0.9345 0.0
H363 H 0.74889 0.69333 0.97138 0.0
H364 H 0.68938 0.73527 0.0374 0.0
H365 H 0.81804 0.84777 0.07506 0.0
C366 C 0.96125 0.72218 0.97103 0.0
C367 C 0.96365 0.66756 0.95438 0.0
C368 C 0.91513 0.64007 0.94149 0.0
C369 C 0.86457 0.66572 0.94655 0.0
C370 C 0.86288 0.71908 0.96468 0.0
C371 C 0.90995 0.74704 0.97709 0.0
C372 C 0.8962 0.79929 0.00546 0.0
C373 C 0.92563 0.80238 0.05697 0.0
C374 C 0.90962 0.84924 0.97175 0.0
C375 C 0.83495 0.79263 0.01255 0.0
C376 C 0.81615 0.7481 0.98559 0.0
C377 C 0.76262 0.72924 0.99146 0.0
C378 C 0.72876 0.75355 0.02874 0.0
C379 C 0.74907 0.79533 0.06008 0.0
C380 C 0.80137 0.81724 0.04984 0.0
H381 H 0.54274 0.71108 0.17793 0.0
H382 H 0.55288 0.82022 0.3071 0.0
H383 H 0.50554 0.75183 0.36173 0.0
H384 H 0.40163 0.64565 0.22253 0.0
H385 H 0.42299 0.58097 0.19645 0.0
H386 H 0.44338 0.64352 0.16498 0.0
H387 H 0.54376 0.61363 0.1695 0.0
H388 H 0.52475 0.55207 0.20269 0.0
H389 H 0.57251 0.59857 0.23095 0.0
H390 H 0.48337 0.66578 0.40462 0.0
H391 H 0.4703 0.57132 0.43318 0.0
H392 H 0.46472 0.51719 0.27515 0.0
C393 C 0.5304 0.72236 0.21643 0.0
C394 C 0.54867 0.77177 0.23789 0.0
C395 C 0.53699 0.78349 0.28979 0.0
C396 C 0.51043 0.74473 0.32099 0.0
C397 C 0.49491 0.69524 0.29914 0.0
C398 C 0.50238 0.68466 0.24751 0.0
C399 C 0.48752 0.62596 0.23496 0.0
C400 C 0.4358 0.62391 0.20284 0.0
C401 C 0.535 0.59584 0.20798 0.0
C402 C 0.47636 0.60372 0.28829 0.0
C403 C 0.48008 0.64477 0.32447 0.0
C404 C 0.47842 0.63372 0.37664 0.0
C405 C 0.47192 0.57967 0.3924 0.0
C406 C 0.46682 0.53692 0.35626 0.0
C407 C 0.46814 0.54919 0.30345 0.0
loop_
_geom_bond_atom_site_label_1
_geom_bond_atom_site_label_2
_geom_bond_distance
_geom_bond_site_symmetry_2
_ccdc_geom_bond_type
O0 Mn1 2.163 . S
O0 C14 1.244 . S
Mn1 O0 2.163 . S
Mn1 O4 2.160 . S
Mn1 O5 2.221 . S
Mn1 O7 2.163 . S
Mn1 O9 2.160 . S
Mn1 O19 2.221 . S
O2 Mn3 2.087 . S
O2 C14 1.256 . S
Mn3 O2 2.087 . S
Mn3 O10 2.089 . S
Mn3 O19 2.290 . S
Mn3 O20 2.251 . S
O4 Mn1 2.160 . S
O4 C15 1.239 . S
O5 Mn1 2.221 . S
O5 Mn6 2.290 . S
O5 C16 1.278 . S
Mn6 O5 2.290 . S
Mn6 O8 2.089 . S
Mn6 O11 2.251 . S
Mn6 O12 2.087 . S
O7 Mn1 2.163 . S
O7 C17 1.244 . S
O8 Mn6 2.089 . S
O8 C15 1.256 . S
O9 Mn1 2.160 . S
O9 C18 1.239 . S
O10 Mn3 2.089 . S
O10 C18 1.256 . S
O11 Mn6 2.251 . S
O11 C16 1.241 . S
O12 Mn6 2.087 . S
O12 C17 1.256 . S
C13 O19 1.278 . S
C13 O20 1.241 . S
C14 O0 1.244 . S
C14 O2 1.256 . S
C15 O4 1.239 . S
C15 O8 1.256 . S
C16 O5 1.278 . S
C16 O11 1.241 . S
C17 O7 1.244 . S
C17 O12 1.256 . S
C18 O9 1.239 . S
C18 O10 1.256 . S
O19 Mn1 2.221 . S
O19 Mn3 2.290 . S
O19 C13 1.278 . S
O20 Mn3 2.251 . S
O20 C13 1.241 . S
O21 Mn22 2.163 . S
O21 C35 1.244 . S
Mn22 O21 2.163 . S
Mn22 O25 2.160 . S
Mn22 O26 2.221 . S
Mn22 O28 2.163 . S
Mn22 O30 2.160 . S
Mn22 O40 2.221 . S
O23 Mn24 2.087 . S
O23 C35 1.256 . S
Mn24 O23 2.087 . S
Mn24 O31 2.089 . S
Mn24 O40 2.290 . S
Mn24 O41 2.251 1_545 S
O25 Mn22 2.160 . S
O25 C36 1.239 . S
O26 Mn22 2.221 . S
O26 Mn27 2.290 . S
O26 C37 1.278 . S
Mn27 O26 2.290 . S
Mn27 O29 2.089 . S
Mn27 O32 2.251 . S
Mn27 O33 2.087 . S
O28 Mn22 2.163 . S
O28 C38 1.244 . S
O29 Mn27 2.089 . S
O29 C36 1.256 . S
O30 Mn22 2.160 . S
O30 C39 1.239 . S
O31 Mn24 2.089 . S
O31 C39 1.256 . S
O32 Mn27 2.251 . S
O32 C37 1.241 . S
O33 Mn27 2.087 . S
O33 C38 1.256 . S
C34 O40 1.278 . S
C34 O41 1.241 1_545 S
C35 O21 1.244 . S
C35 O23 1.256 . S
C36 O25 1.239 . S
C36 O29 1.256 . S
C37 O26 1.278 . S
C37 O32 1.241 . S
C38 O28 1.244 . S
C38 O33 1.256 . S
C39 O30 1.239 . S
C39 O31 1.256 . S
O40 Mn22 2.221 . S
O40 Mn24 2.290 . S
O40 C34 1.278 . S
O41 Mn24 2.251 1_565 S
O41 C34 1.241 1_565 S
O42 Mn43 2.163 . S
O42 C56 1.244 . S
Mn43 O42 2.163 . S
Mn43 O46 2.160 . S
Mn43 O47 2.221 . S
Mn43 O49 2.163 . S
Mn43 O51 2.160 . S
Mn43 O61 2.221 . S
O44 Mn45 2.087 . S
O44 C56 1.256 . S
Mn45 O44 2.087 . S
Mn45 O52 2.089 . S
Mn45 O61 2.290 . S
Mn45 O62 2.251 . S
O46 Mn43 2.160 . S
O46 C57 1.239 . S
O47 Mn43 2.221 . S
O47 Mn48 2.290 . S
O47 C58 1.278 . S
Mn48 O47 2.290 . S
Mn48 O50 2.089 . S
Mn48 O53 2.251 1_556 S
Mn48 O54 2.087 . S
O49 Mn43 2.163 . S
O49 C59 1.244 . S
O50 Mn48 2.089 . S
O50 C57 1.256 . S
O51 Mn43 2.160 . S
O51 C60 1.239 . S
O52 Mn45 2.089 . S
O52 C60 1.256 . S
O53 Mn48 2.251 1_554 S
O53 C58 1.241 1_554 S
O54 Mn48 2.087 . S
O54 C59 1.256 . S
C55 O61 1.278 . S
C55 O62 1.241 . S
C56 O42 1.244 . S
C56 O44 1.256 . S
C57 O46 1.239 . S
C57 O50 1.256 . S
C58 O47 1.278 . S
C58 O53 1.241 1_556 S
C59 O49 1.244 . S
C59 O54 1.256 . S
C60 O51 1.239 . S
C60 O52 1.256 . S
O61 Mn43 2.221 . S
O61 Mn45 2.290 . S
O61 C55 1.278 . S
O62 Mn45 2.251 . S
O62 C55 1.241 . S
O63 Mn64 2.163 . S
O63 C77 1.244 . S
Mn64 O63 2.163 . S
Mn64 O67 2.160 . S
Mn64 O68 2.221 . S
Mn64 O70 2.163 . S
Mn64 O72 2.160 . S
Mn64 O82 2.221 . S
O65 Mn66 2.087 . S
O65 C77 1.256 . S
Mn66 O65 2.087 . S
Mn66 O73 2.089 . S
Mn66 O82 2.290 . S
Mn66 O83 2.251 . S
O67 Mn64 2.160 . S
O67 C78 1.239 . S
O68 Mn64 2.221 . S
O68 Mn69 2.290 . S
O68 C79 1.278 . S
Mn69 O68 2.290 . S
Mn69 O71 2.089 . S
Mn69 O74 2.251 1_565 S
Mn69 O75 2.087 . S
O70 Mn64 2.163 . S
O70 C80 1.244 . S
O71 Mn69 2.089 . S
O71 C78 1.256 . S
O72 Mn64 2.160 . S
O72 C81 1.239 . S
O73 Mn66 2.089 . S
O73 C81 1.256 . S
O74 Mn69 2.251 1_545 S
O74 C79 1.241 1_545 S
O75 Mn69 2.087 . S
O75 C80 1.256 . S
C76 O82 1.278 . S
C76 O83 1.241 . S
C77 O63 1.244 . S
C77 O65 1.256 . S
C78 O67 1.239 . S
C78 O71 1.256 . S
C79 O68 1.278 . S
C79 O74 1.241 1_565 S
C80 O70 1.244 . S
C80 O75 1.256 . S
C81 O72 1.239 . S
C81 O73 1.256 . S
O82 Mn64 2.221 . S
O82 Mn66 2.290 . S
O82 C76 1.278 . S
O83 Mn66 2.251 . S
O83 C76 1.241 . S
H84 C96 0.930 . S
H85 C98 0.930 1_556 S
H86 C99 0.930 . S
H87 C103 0.959 . S
H88 C103 0.959 . S
H89 C103 0.961 . S
H90 C104 0.960 . S
H91 C104 0.961 . S
H92 C104 0.959 . S
H93 C107 0.929 . S
H94 C108 0.931 . S
H95 C110 0.930 . S
C96 H84 0.930 . S
C96 C97 1.399 . S
C96 C101 1.399 . S
C97 C96 1.399 . S
C97 C98 1.376 . S
C98 H85 0.930 1_554 S
C98 C97 1.376 . S
C98 C99 1.388 . S
C99 H86 0.930 . S
C99 C98 1.388 . S
C99 C100 1.390 . S
C100 C99 1.390 . S
C100 C101 1.394 . S
C100 C106 1.465 . S
C101 C96 1.399 . S
C101 C100 1.394 . S
C101 C102 1.516 . S
C102 C101 1.516 . S
C102 C103 1.502 . S
C102 C104 1.561 . S
C102 C105 1.526 . S
C103 H87 0.959 . S
C103 H88 0.959 . S
C103 H89 0.961 . S
C103 C102 1.502 . S
C104 H90 0.960 . S
C104 H91 0.961 . S
C104 H92 0.959 . S
C104 C102 1.561 . S
C105 C102 1.526 . S
C105 C106 1.396 . S
C105 C110 1.390 . S
C106 C100 1.465 . S
C106 C105 1.396 . S
C106 C107 1.399 . S
C107 H93 0.929 . S
C107 C106 1.399 . S
C107 C108 1.385 . S
C108 H94 0.931 . S
C108 C107 1.385 . S
C108 C109 1.389 . S
C109 C108 1.389 . S
C109 C110 1.387 . S
C110 H95 0.930 . S
C110 C105 1.390 . S
C110 C109 1.387 . S
H111 C123 0.930 . S
H112 C125 0.930 . S
H113 C126 0.930 . S
H114 C130 0.959 . S
H115 C130 0.959 . S
H116 C130 0.961 . S
H117 C131 0.960 1_565 S
H118 C131 0.961 . S
H119 C131 0.959 . S
H120 C134 0.929 . S
H121 C135 0.931 . S
H122 C137 0.930 . S
C123 H111 0.930 . S
C123 C124 1.399 . S
C123 C128 1.399 . S
C124 C123 1.399 . S
C124 C125 1.376 . S
C125 H112 0.930 . S
C125 C124 1.376 . S
C125 C126 1.388 . S
C126 H113 0.930 . S
C126 C125 1.388 . S
C126 C127 1.390 . S
C127 C126 1.390 . S
C127 C128 1.394 . S
C127 C133 1.465 . S
C128 C123 1.399 . S
C128 C127 1.394 . S
C128 C129 1.516 . S
C129 C128 1.516 . S
C129 C130 1.502 . S
C129 C131 1.561 1_565 S
C129 C132 1.526 . S
C130 H114 0.959 . S
C130 H115 0.959 . S
C130 H116 0.961 . S
C130 C129 1.502 . S
C131 H117 0.960 1_545 S
C131 H118 0.961 . S
C131 H119 0.959 . S
C131 C129 1.561 1_545 S
C132 C129 1.526 . S
C132 C133 1.396 . S
C132 C137 1.390 . S
C133 C127 1.465 . S
C133 C132 1.396 . S
C133 C134 1.399 1_565 S
C134 H120 0.929 . S
C134 C133 1.399 1_545 S
C134 C135 1.385 . S
C135 H121 0.931 . S
C135 C134 1.385 . S
C135 C136 1.389 . S
C136 C135 1.389 . S
C136 C137 1.387 1_545 S
C137 H122 0.930 . S
C137 C132 1.390 . S
C137 C136 1.387 1_565 S
H138 C150 0.930 . S
H139 C152 0.930 . S
H140 C153 0.930 . S
H141 C157 0.959 . S
H142 C157 0.959 . S
H143 C157 0.961 . S
H144 C158 0.960 . S
H145 C158 0.961 . S
H146 C158 0.959 . S
H147 C161 0.929 . S
H148 C162 0.931 . S
H149 C164 0.930 . S
C150 H138 0.930 . S
C150 C151 1.399 . S
C150 C155 1.399 . S
C151 C150 1.399 . S
C151 C152 1.376 . S
C152 H139 0.930 . S
C152 C151 1.376 . S
C152 C153 1.388 . S
C153 H140 0.930 . S
C153 C152 1.388 . S
C153 C154 1.390 . S
C154 C153 1.390 . S
C154 C155 1.394 . S
C154 C160 1.465 . S
C155 C150 1.399 . S
C155 C154 1.394 . S
C155 C156 1.516 . S
C156 C155 1.516 . S
C156 C157 1.502 . S
C156 C158 1.561 . S
C156 C159 1.526 . S
C157 H141 0.959 . S
C157 H142 0.959 . S
C157 H143 0.961 . S
C157 C156 1.502 . S
C158 H144 0.960 . S
C158 H145 0.961 . S
C158 H146 0.959 . S
C158 C156 1.561 . S
C159 C156 1.526 . S
C159 C160 1.396 . S
C159 C164 1.390 . S
C160 C154 1.465 . S
C160 C159 1.396 . S
C160 C161 1.399 . S
C161 H147 0.929 . S
C161 C160 1.399 . S
C161 C162 1.385 . S
C162 H148 0.931 . S
C162 C161 1.385 . S
C162 C163 1.389 . S
C163 C162 1.389 . S
C163 C164 1.387 . S
C164 H149 0.930 . S
C164 C159 1.390 . S
C164 C163 1.387 . S
H165 C177 0.930 . S
H166 C179 0.930 . S
H167 C180 0.930 . S
H168 C184 0.959 . S
H169 C184 0.959 . S
H170 C184 0.961 . S
H171 C185 0.960 . S
H172 C185 0.961 . S
H173 C185 0.959 . S
H174 C188 0.929 . S
H175 C189 0.929 1_565 S
H176 C191 0.930 . S
C177 H165 0.930 . S
C177 C178 1.399 1_545 S
C177 C182 1.399 . S
C178 C177 1.399 1_565 S
C178 C179 1.376 . S
C179 H166 0.930 . S
C179 C178 1.376 . S
C179 C180 1.388 . S
C180 H167 0.930 . S
C180 C179 1.388 . S
C180 C181 1.390 . S
C181 C180 1.390 . S
C181 C182 1.394 1_565 S
C181 C187 1.465 . S
C182 C177 1.399 . S
C182 C181 1.394 1_545 S
C182 C183 1.516 . S
C183 C182 1.516 . S
C183 C184 1.502 . S
C183 C185 1.561 . S
C183 C186 1.526 . S
C184 H168 0.959 . S
C184 H169 0.959 . S
C184 H170 0.961 . S
C184 C183 1.502 . S
C185 H171 0.960 . S
C185 H172 0.961 . S
C185 H173 0.959 . S
C185 C183 1.561 . S
C186 C183 1.526 . S
C186 C187 1.396 1_545 S
C186 C191 1.390 . S
C187 C181 1.465 . S
C187 C186 1.396 1_565 S
C187 C188 1.399 . S
C188 H174 0.929 . S
C188 C187 1.399 . S
C188 C189 1.384 1_565 S
C189 H175 0.929 1_545 S
C189 C188 1.384 1_545 S
C189 C190 1.392 . S
C190 C189 1.392 . S
C190 C191 1.387 . S
C191 H176 0.930 . S
C191 C186 1.390 . S
C191 C190 1.387 . S
H192 C204 0.930 . S
H193 C206 0.930 1_655 S
H194 C207 0.930 . S
H195 C211 0.959 . S
H196 C211 0.959 . S
H197 C211 0.961 . S
H198 C212 0.960 . S
H199 C212 0.961 . S
H200 C212 0.959 . S
H201 C215 0.929 . S
H202 C216 0.931 . S
H203 C218 0.930 . S
C204 H192 0.930 . S
C204 C205 1.399 1_455 S
C204 C209 1.399 . S
C205 C204 1.399 1_655 S
C205 C206 1.376 1_655 S
C206 H193 0.930 1_455 S
C206 C205 1.376 1_455 S
C206 C207 1.388 . S
C207 H194 0.930 . S
C207 C206 1.388 . S
C207 C208 1.390 . S
C208 C207 1.390 . S
C208 C209 1.394 . S
C208 C214 1.465 . S
C209 C204 1.399 . S
C209 C208 1.394 . S
C209 C210 1.516 . S
C210 C209 1.516 . S
C210 C211 1.502 . S
C210 C212 1.561 . S
C210 C213 1.526 . S
C211 H195 0.959 . S
C211 H196 0.959 . S
C211 H197 0.961 . S
C211 C210 1.502 . S
C212 H198 0.960 . S
C212 H199 0.961 . S
C212 H200 0.959 . S
C212 C210 1.561 . S
C213 C210 1.526 . S
C213 C214 1.396 . S
C213 C218 1.390 . S
C214 C208 1.465 . S
C214 C213 1.396 . S
C214 C215 1.399 . S
C215 H201 0.929 . S
C215 C214 1.399 . S
C215 C216 1.385 . S
C216 H202 0.931 . S
C216 C215 1.385 . S
C216 C217 1.389 . S
C217 C216 1.389 . S
C217 C218 1.387 . S
C218 H203 0.930 . S
C218 C213 1.390 . S
C218 C217 1.387 . S
H219 C231 0.930 1_655 S
H220 C233 0.930 . S
H221 C234 0.930 . S
H222 C238 0.959 . S
H223 C238 0.959 . S
H224 C238 0.961 . S
H225 C239 0.960 . S
H226 C239 0.961 . S
H227 C239 0.959 . S
H228 C242 0.929 . S
H229 C243 0.931 1_545 S
H230 C245 0.930 . S
C231 H219 0.930 1_455 S
C231 C232 1.399 . S
C231 C236 1.399 . S
C232 C231 1.399 . S
C232 C233 1.376 . S
C233 H220 0.930 . S
C233 C232 1.376 . S
C233 C234 1.388 . S
C234 H221 0.930 . S
C234 C233 1.388 . S
C234 C235 1.390 . S
C235 C234 1.390 . S
C235 C236 1.394 . S
C235 C241 1.465 . S
C236 C231 1.399 . S
C236 C235 1.394 . S
C236 C237 1.516 1_455 S
C237 C236 1.516 1_655 S
C237 C238 1.502 . S
C237 C239 1.561 . S
C237 C240 1.526 . S
C238 H222 0.959 . S
C238 H223 0.959 . S
C238 H224 0.961 . S
C238 C237 1.502 . S
C239 H225 0.960 . S
C239 H226 0.961 . S
C239 H227 0.959 . S
C239 C237 1.561 . S
C240 C237 1.526 . S
C240 C241 1.396 1_655 S
C240 C245 1.390 . S
C241 C235 1.465 . S
C241 C240 1.396 1_455 S
C241 C242 1.399 . S
C242 H228 0.929 . S
C242 C241 1.399 . S
C242 C243 1.385 . S
C243 H229 0.931 1_565 S
C243 C242 1.385 . S
C243 C244 1.389 1_455 S
C244 C243 1.389 1_655 S
C244 C245 1.387 . S
C245 H230 0.930 . S
C245 C240 1.390 . S
C245 C244 1.387 . S
H246 C258 0.930 . S
H247 C260 0.930 . S
H248 C261 0.930 1_554 S
H249 C265 0.959 . S
H250 C265 0.959 . S
H251 C265 0.961 . S
H252 C266 0.960 . S
H253 C266 0.961 . S
H254 C266 0.959 . S
H255 C269 0.929 . S
H256 C270 0.931 . S
H257 C272 0.930 . S
C258 H246 0.930 . S
C258 C259 1.399 . S
C258 C263 1.399 . S
C259 C258 1.399 . S
C259 C260 1.376 . S
C260 H247 0.930 . S
C260 C259 1.376 . S
C260 C261 1.388 . S
C261 H248 0.930 1_556 S
C261 C260 1.388 . S
C261 C262 1.390 . S
C262 C261 1.390 . S
C262 C263 1.394 . S
C262 C268 1.465 . S
C263 C258 1.399 . S
C263 C262 1.394 . S
C263 C264 1.516 . S
C264 C263 1.516 . S
C264 C265 1.502 . S
C264 C266 1.561 . S
C264 C267 1.526 . S
C265 H249 0.959 . S
C265 H250 0.959 . S
C265 H251 0.961 . S
C265 C264 1.502 . S
C266 H252 0.960 . S
C266 H253 0.961 . S
C266 H254 0.959 . S
C266 C264 1.561 . S
C267 C264 1.526 . S
C267 C268 1.396 . S
C267 C272 1.390 . S
C268 C262 1.465 . S
C268 C267 1.396 . S
C268 C269 1.399 1_556 S
C269 H255 0.929 . S
C269 C268 1.399 1_554 S
C269 C270 1.385 . S
C270 H256 0.931 . S
C270 C269 1.385 . S
C270 C271 1.389 . S
C271 C270 1.389 . S
C271 C272 1.387 1_554 S
C272 H257 0.930 . S
C272 C267 1.390 . S
C272 C271 1.387 1_556 S
H273 C285 0.930 . S
H274 C287 0.930 . S
H275 C288 0.930 . S
H276 C292 0.959 . S
H277 C292 0.959 . S
H278 C292 0.961 . S
H279 C293 0.960 . S
H280 C293 0.961 . S
H281 C293 0.959 . S
H282 C296 0.929 . S
H283 C297 0.931 . S
H284 C299 0.930 . S
C285 H273 0.930 . S
C285 C286 1.399 . S
C285 C290 1.399 . S
C286 C285 1.399 . S
C286 C287 1.376 . S
C287 H274 0.930 . S
C287 C286 1.376 . S
C287 C288 1.388 . S
C288 H275 0.930 . S
C288 C287 1.388 . S
C288 C289 1.390 . S
C289 C288 1.390 . S
C289 C290 1.394 . S
C289 C295 1.465 . S
C290 C285 1.399 . S
C290 C289 1.394 . S
C290 C291 1.516 . S
C291 C290 1.516 . S
C291 C292 1.502 . S
C291 C293 1.561 . S
C291 C294 1.526 . S
C292 H276 0.959 . S
C292 H277 0.959 . S
C292 H278 0.961 . S
C292 C291 1.502 . S
C293 H279 0.960 . S
C293 H280 0.961 . S
C293 H281 0.959 . S
C293 C291 1.561 . S
C294 C291 1.526 . S
C294 C295 1.396 . S
C294 C299 1.390 . S
C295 C289 1.465 . S
C295 C294 1.396 . S
C295 C296 1.399 . S
C296 H282 0.929 . S
C296 C295 1.399 . S
C296 C297 1.385 1_545 S
C297 H283 0.931 . S
C297 C296 1.385 1_565 S
C297 C298 1.389 . S
C298 C297 1.389 . S
C298 C299 1.387 1_565 S
C299 H284 0.930 . S
C299 C294 1.390 . S
C299 C298 1.387 1_545 S
H300 C312 0.930 . S
H301 C314 0.930 . S
H302 C315 0.930 . S
H303 C319 0.959 . S
H304 C319 0.959 . S
H305 C319 0.961 . S
H306 C320 0.960 . S
H307 C320 0.961 . S
H308 C320 0.959 . S
H309 C323 0.929 . S
H310 C324 0.931 . S
H311 C326 0.930 . S
C312 H300 0.930 . S
C312 C313 1.399 . S
C312 C317 1.399 . S
C313 C312 1.399 . S
C313 C314 1.376 . S
C314 H301 0.930 . S
C314 C313 1.376 . S
C314 C315 1.388 . S
C315 H302 0.930 . S
C315 C314 1.388 . S
C315 C316 1.390 . S
C316 C315 1.390 . S
C316 C317 1.394 . S
C316 C322 1.465 . S
C317 C312 1.399 . S
C317 C316 1.394 . S
C317 C318 1.516 . S
C318 C317 1.516 . S
C318 C319 1.502 . S
C318 C320 1.561 . S
C318 C321 1.526 . S
C319 H303 0.959 . S
C319 H304 0.959 . S
C319 H305 0.961 . S
C319 C318 1.502 . S
C320 H306 0.960 . S
C320 H307 0.961 . S
C320 H308 0.959 . S
C320 C318 1.561 . S
C321 C318 1.526 . S
C321 C322 1.396 . S
C321 C326 1.390 . S
C322 C316 1.465 . S
C322 C321 1.396 . S
C322 C323 1.399 . S
C323 H309 0.929 . S
C323 C322 1.399 . S
C323 C324 1.385 . S
C324 H310 0.931 . S
C324 C323 1.385 . S
C324 C325 1.389 . S
C325 C324 1.389 . S
C325 C326 1.387 . S
C326 H311 0.930 . S
C326 C321 1.390 . S
C326 C325 1.387 . S
H327 C339 0.930 . S
H328 C341 0.930 . S
H329 C342 0.930 . S
H330 C346 0.959 . S
H331 C346 0.959 . S
H332 C346 0.961 . S
H333 C347 0.960 . S
H334 C347 0.961 . S
H335 C347 0.959 . S
H336 C350 0.929 . S
H337 C351 0.931 . S
H338 C353 0.930 . S
C339 H327 0.930 . S
C339 C340 1.399 1_455 S
C339 C344 1.399 1_455 S
C340 C339 1.399 1_655 S
C340 C341 1.376 . S
C341 H328 0.930 . S
C341 C340 1.376 . S
C341 C342 1.388 . S
C342 H329 0.930 . S
C342 C341 1.388 . S
C342 C343 1.390 . S
C343 C342 1.390 . S
C343 C344 1.394 . S
C343 C349 1.465 . S
C344 C339 1.399 1_655 S
C344 C343 1.394 . S
C344 C345 1.516 . S
C345 C344 1.516 . S
C345 C346 1.502 1_655 S
C345 C347 1.561 . S
C345 C348 1.526 . S
C346 H330 0.959 . S
C346 H331 0.959 . S
C346 H332 0.961 . S
C346 C345 1.502 1_455 S
C347 H333 0.960 . S
C347 H334 0.961 . S
C347 H335 0.959 . S
C347 C345 1.561 . S
C348 C345 1.526 . S
C348 C349 1.396 . S
C348 C353 1.390 . S
C349 C343 1.465 . S
C349 C348 1.396 . S
C349 C350 1.399 . S
C350 H336 0.929 . S
C350 C349 1.399 . S
C350 C351 1.385 . S
C351 H337 0.931 . S
C351 C350 1.385 . S
C351 C352 1.389 . S
C352 C351 1.389 . S
C352 C353 1.387 . S
C353 H338 0.930 . S
C353 C348 1.390 . S
C353 C352 1.387 . S
H354 C366 0.930 . S
H355 C368 0.930 . S
H356 C369 0.925 1_554 S
H357 C373 0.959 . S
H358 C373 0.959 . S
H359 C373 0.961 . S
H360 C374 0.960 . S
H361 C374 0.961 . S
H362 C374 0.959 . S
H363 C377 0.929 . S
H364 C378 0.931 . S
H365 C380 0.930 . S
C366 H354 0.930 . S
C366 C367 1.399 . S
C366 C371 1.399 . S
C367 C366 1.399 . S
C367 C368 1.376 . S
C368 H355 0.930 . S
C368 C367 1.376 . S
C368 C369 1.388 . S
C369 H356 0.925 1_556 S
C369 C368 1.388 . S
C369 C370 1.390 . S
C370 C369 1.390 . S
C370 C371 1.394 . S
C370 C376 1.465 1_556 S
C371 C366 1.399 . S
C371 C370 1.394 . S
C371 C372 1.516 . S
C372 C371 1.516 . S
C372 C373 1.502 1_556 S
C372 C374 1.561 . S
C372 C375 1.526 1_556 S
C373 H357 0.959 . S
C373 H358 0.959 . S
C373 H359 0.961 . S
C373 C372 1.502 1_554 S
C374 H360 0.960 . S
C374 H361 0.961 . S
C374 H362 0.959 . S
C374 C372 1.561 . S
C375 C372 1.526 1_554 S
C375 C376 1.396 . S
C375 C380 1.390 . S
C376 C370 1.465 1_554 S
C376 C375 1.396 . S
C376 C377 1.399 . S
C377 H363 0.929 . S
C377 C376 1.399 . S
C377 C378 1.385 . S
C378 H364 0.931 . S
C378 C377 1.385 . S
C378 C379 1.389 . S
C379 C378 1.389 . S
C379 C380 1.387 . S
C380 H365 0.930 . S
C380 C375 1.390 . S
C380 C379 1.387 . S
H381 C393 0.930 . S
H382 C395 0.930 . S
H383 C396 0.930 . S
H384 C400 0.959 . S
H385 C400 0.959 . S
H386 C400 0.961 . S
H387 C401 0.960 . S
H388 C401 0.961 . S
H389 C401 0.959 . S
H390 C404 0.929 . S
H391 C405 0.931 . S
H392 C407 0.930 . S
C393 H381 0.930 . S
C393 C394 1.399 . S
C393 C398 1.399 . S
C394 C393 1.399 . S
C394 C395 1.376 . S
C395 H382 0.930 . S
C395 C394 1.376 . S
C395 C396 1.388 . S
C396 H383 0.930 . S
C396 C395 1.388 . S
C396 C397 1.390 . S
C397 C396 1.390 . S
C397 C398 1.394 . S
C397 C403 1.465 . S
C398 C393 1.399 . S
C398 C397 1.394 . S
C398 C399 1.516 . S
C399 C398 1.516 . S
C399 C400 1.502 . S
C399 C401 1.561 . S
C399 C402 1.526 . S
C400 H384 0.959 . S
C400 H385 0.959 . S
C400 H386 0.961 . S
C400 C399 1.502 . S
C401 H387 0.960 . S
C401 H388 0.961 . S
C401 H389 0.959 . S
C401 C399 1.561 . S
C402 C399 1.526 . S
C402 C403 1.396 . S
C402 C407 1.390 . S
C403 C397 1.465 . S
C403 C402 1.396 . S
C403 C404 1.399 . S
C404 H390 0.929 . S
C404 C403 1.399 . S
C404 C405 1.385 . S
C405 H391 0.931 . S
C405 C404 1.385 . S
C405 C406 1.389 . S
C406 C405 1.389 . S
C406 C407 1.387 . S
C407 H392 0.930 . S
C407 C402 1.390 . S
C407 C406 1.387 . S
C97 C58 1.552 1_554 S
C109 C16 1.518 . S
C124 C77 1.320 . S
C136 C35 1.330 . S
C151 C60 1.476 . S
C163 C18 1.363 . S
C178 C80 1.327 1_556 S
C190 C38 1.325 . S
C205 C39 1.483 . S
C217 C15 1.516 . S
C232 C55 1.047 . S
C244 C34 1.082 1_565 S
C259 C56 1.199 . S
C271 C78 1.122 . S
C286 C17 1.358 . S
C298 C79 1.239 . S
C313 C37 1.032 . S
C325 C13 1.129 . S
C340 C57 1.563 1_655 S
C352 C36 1.460 . S
C367 C59 1.314 1_655 S
C379 C76 1.153 . S
C394 C81 1.096 . S
C406 C14 1.134 . S
