# Generated by pormake.
# Topology unm, (4)-cn, num edge types: 1
# Building blocks:
#     Node 0, Type 0, BuildingBlock: KUFVIS_clean_sbu_0, # of connection points: 4
#     Node 1, Type 0, BuildingBlock: KUFVIS_clean_sbu_0, # of connection points: 4
#     Node 2, Type 0, BuildingBlock: KUFVIS_clean_sbu_0, # of connection points: 4
#     Node 3, Type 0, BuildingBlock: KUFVIS_clean_sbu_0, # of connection points: 4
#     Node 4, Type 0, BuildingBlock: KUFVIS_clean_sbu_0, # of connection points: 4
#     Node 5, Type 0, BuildingBlock: KUFVIS_clean_sbu_0, # of connection points: 4
#     Node 6, Type 0, BuildingBlock: KUFVIS_clean_sbu_0, # of connection points: 4
#     Node 7, Type 0, BuildingBlock: KUFVIS_clean_sbu_0, # of connection points: 4
#     Edge 8, Type (0, 0), BuildingBlock: EZIPEK_clean_linker_0, # of connection points: 2
#     Edge 9, Type (0, 0), BuildingBlock: EZIPEK_clean_linker_0, # of connection points: 2
#     Edge 10, Type (0, 0), BuildingBlock: EZIPEK_clean_linker_0, # of connection points: 2
#     Edge 11, Type (0, 0), BuildingBlock: EZIPEK_clean_linker_0, # of connection points: 2
#     Edge 12, Type (0, 0), BuildingBlock: EZIPEK_clean_linker_0, # of connection points: 2
#     Edge 13, Type (0, 0), BuildingBlock: EZIPEK_clean_linker_0, # of connection points: 2
#     Edge 14, Type (0, 0), BuildingBlock: EZIPEK_clean_linker_0, # of connection points: 2
#     Edge 15, Type (0, 0), BuildingBlock: EZIPEK_clean_linker_0, # of connection points: 2
#     Edge 16, Type (0, 0), BuildingBlock: EZIPEK_clean_linker_0, # of connection points: 2
#     Edge 17, Type (0, 0), BuildingBlock: EZIPEK_clean_linker_0, # of connection points: 2
#     Edge 18, Type (0, 0), BuildingBlock: EZIPEK_clean_linker_0, # of connection points: 2
#     Edge 19, Type (0, 0), BuildingBlock: EZIPEK_clean_linker_0, # of connection points: 2
#     Edge 20, Type (0, 0), BuildingBlock: EZIPEK_clean_linker_0, # of connection points: 2
#     Edge 21, Type (0, 0), BuildingBlock: EZIPEK_clean_linker_0, # of connection points: 2
#     Edge 22, Type (0, 0), BuildingBlock: EZIPEK_clean_linker_0, # of connection points: 2
#     Edge 23, Type (0, 0), BuildingBlock: EZIPEK_clean_linker_0, # of connection points: 2
# Relax obj value: 0.131
# Max RMSD: 0.132
# Mean RMSD: 0.132
data_MOF--net-unm--node1-KUFVIS_clean_sbu_0--edge1-EZIPEK_clean_linker_0
_symmetry_space_group_name_H-M    P1
_symmetry_Int_Tables_number       1
_symmetry_cell_setting            triclinic
loop_
_symmetry_equiv_pos_as_xyz
'x, y, z'
_cell_length_a     18.49341
_cell_length_b     18.545896
_cell_length_c     32.64286
_cell_angle_alpha  89.818194
_cell_angle_beta   89.767524
_cell_angle_gamma 90.685722
loop_
_atom_site_label
_atom_site_type_symbol
_atom_site_fract_x
_atom_site_fract_y
_atom_site_fract_z
_atom_type_partial_charge
Mn0 Mn 0.16171 0.30262 0.18439 0.0
Mn1 Mn 0.26568 0.43523 0.14276 0.0
C2 C 0.10997 0.39755 0.14911 0.0
C3 C 0.08061 0.26395 0.23789 0.0
C4 C 0.23807 0.29149 0.10079 0.0
O5 O 0.25824 0.28969 0.21545 0.0
O6 O 0.32269 0.37584 0.18183 0.0
C7 C 0.29041 0.51928 0.21879 0.0
N8 N 0.264 0.51498 0.17995 0.0
C9 C 0.2224 0.63742 0.18295 0.0
C10 C 0.24966 0.64315 0.2228 0.0
C11 C 0.28309 0.58358 0.24093 0.0
C12 C 0.23016 0.57158 0.16258 0.0
H13 H 0.31703 0.47416 0.23278 0.0
C14 C 0.31721 0.32538 0.2086 0.0
O15 O 0.10701 0.21847 0.21167 0.0
O16 O 0.10778 0.3281 0.23592 0.0
N17 N 0.21864 0.49855 0.10514 0.0
C18 C 0.20993 0.48996 0.06399 0.0
C19 C 0.17851 0.54524 0.04084 0.0
C20 C 0.1597 0.61019 0.05987 0.0
C21 C 0.17541 0.6203 0.10144 0.0
C22 C 0.20624 0.56292 0.12297 0.0
H23 H 0.22559 0.4407 0.04901 0.0
O24 O 0.07814 0.33544 0.15192 0.0
O25 O 0.17362 0.4018 0.16566 0.0
O26 O 0.2041 0.26053 0.13053 0.0
O27 O 0.26406 0.35569 0.10248 0.0
C28 C 0.16477 0.68616 0.12184 0.0
C29 C 0.18825 0.69472 0.16259 0.0
H30 H 0.24497 0.69296 0.2398 0.0
H31 H 0.30297 0.58729 0.27194 0.0
H32 H 0.16913 0.53788 1.00841 0.0
H33 H 0.13584 0.65289 0.0419 0.0
H34 H 0.14032 0.73119 0.10611 0.0
H35 H 0.18083 0.74597 0.17778 0.0
Mn36 Mn 0.22861 0.67914 0.69039 0.0
Mn37 Mn 0.07924 0.76138 0.65462 0.0
C38 C 0.13664 0.61361 0.66089 0.0
C39 C 0.28257 0.60535 0.74124 0.0
C40 C 0.21879 0.75379 0.60612 0.0
O41 O 0.23493 0.77697 0.71945 0.0
O42 O 0.13876 0.82861 0.68881 0.0
C43 C 0.99953 0.79288 0.73109 0.0
N44 N 1.00414 0.75629 0.69508 0.0
C45 C 0.88104 0.71408 0.70184 0.0
C46 C 0.87564 0.75053 0.73919 0.0
C47 C 0.93527 0.78975 0.75402 0.0
C48 C 0.9469 0.7183 0.68055 0.0
H49 H 0.04357 0.82632 0.74155 0.0
C50 C 0.19353 0.8308 0.7128 0.0
O51 O 0.32163 0.63766 0.71326 0.0
O52 O 0.21611 0.62478 0.74315 0.0
N53 N 0.01642 0.70277 0.62177 0.0
C54 C 0.02403 0.68523 0.58147 0.0
C55 C 0.96827 0.6474 0.56152 0.0
C56 C 0.90415 0.63027 0.58273 0.0
C57 C 0.89563 0.65294 0.62335 0.0
C58 C 0.9537 0.68925 0.64194 0.0
H59 H 0.0725 0.6996 0.56464 0.0
O60 O 0.20195 0.58994 0.66123 0.0
O61 O 0.12626 0.67663 0.67718 0.0
O62 O 0.25843 0.72683 0.63445 0.0
O63 O 0.15167 0.76616 0.6111 0.0
C64 C 0.83037 0.64432 0.64531 0.0
C65 C 0.82281 0.67556 0.68437 0.0
H66 H 0.82539 0.75005 0.75627 0.0
H67 H 0.93113 0.81898 0.78255 0.0
H68 H 0.97452 0.63196 0.52978 0.0
H69 H 0.86091 0.60181 0.56708 0.0
H70 H 0.78477 0.61608 0.63182 0.0
H71 H 0.77162 0.67063 0.70045 0.0
Mn72 Mn 0.83263 0.69584 0.18457 0.0
Mn73 Mn 0.72927 0.56817 0.13829 0.0
C74 C 0.88562 0.60423 0.14768 0.0
C75 C 0.9092 0.73033 0.2395 0.0
C76 C 0.756 0.71823 0.10265 0.0
O77 O 0.73537 0.70581 0.21471 0.0
O78 O 0.67186 0.61764 0.18239 0.0
C79 C 0.69882 0.46264 0.20459 0.0
N80 N 0.73354 0.48028 0.16912 0.0
C81 C 0.78394 0.36145 0.16446 0.0
C82 C 0.75263 0.34396 0.20243 0.0
C83 C 0.70923 0.39463 0.2224 0.0
C84 C 0.773 0.43086 0.14879 0.0
H85 H 0.66151 0.49926 0.21818 0.0
C86 C 0.67772 0.66757 0.20955 0.0
O87 O 0.88402 0.77789 0.21406 0.0
O88 O 0.88317 0.66584 0.23588 0.0
N89 N 0.77922 0.51587 0.09645 0.0
C90 C 0.78887 0.53419 0.0563 0.0
C91 C 0.82469 0.48665 0.0299 0.0
C92 C 0.848 0.4197 0.04469 0.0
C93 C 0.8325 0.39973 0.08527 0.0
C94 C 0.79687 0.44957 0.11016 0.0
H95 H 0.77009 0.58501 0.04453 0.0
O96 O 0.91791 0.66573 0.15255 0.0
O97 O 0.82066 0.59922 0.16286 0.0
O98 O 0.79369 0.7439 0.13209 0.0
O99 O 0.72691 0.65534 0.10311 0.0
C100 C 0.84803 0.33114 0.1014 0.0
C101 C 0.82372 0.31197 0.141 0.0
H102 H 0.75991 0.29114 0.21596 0.0
H103 H 0.6827 0.38082 0.25101 0.0
H104 H 0.83428 0.50163 0.99825 0.0
H105 H 0.87544 0.38307 0.02423 0.0
H106 H 0.87645 0.29186 0.08308 0.0
H107 H 0.83399 0.25831 0.15264 0.0
Mn108 Mn 0.81784 0.34498 0.68595 0.0
Mn109 Mn 0.94581 0.23928 0.64357 0.0
C110 C 0.91823 0.39534 0.65314 0.0
C111 C 0.78053 0.4227 0.74029 0.0
C112 C 0.80355 0.27159 0.60153 0.0
O113 O 0.79834 0.24658 0.71473 0.0
O114 O 0.88331 0.182 0.68151 0.0
C115 C 0.02668 0.21065 0.72007 0.0
N116 N 0.02467 0.23829 0.68137 0.0
C117 C 0.14666 0.28345 0.68711 0.0
C118 C 0.14938 0.25695 0.72733 0.0
C119 C 0.08924 0.21997 0.74378 0.0
C120 C 0.08239 0.27374 0.66522 0.0
H121 H 0.98091 0.18191 0.73284 0.0
C122 C 0.83179 0.18734 0.70758 0.0
O123 O 0.7353 0.39961 0.71271 0.0
O124 O 0.84349 0.39348 0.73915 0.0
N125 N 0.01178 0.28717 0.60695 0.0
C126 C 1.00427 0.29904 0.56598 0.0
C127 C 0.06147 0.33107 0.54378 0.0
C128 C 0.12656 0.34843 0.56367 0.0
C129 C 0.13477 0.33094 0.6052 0.0
C130 C 0.07599 0.2986 0.6256 0.0
H131 H 0.95468 0.28492 0.55045 0.0
O132 O 0.85862 0.43056 0.65643 0.0
O133 O 0.91609 0.33016 0.66761 0.0
O134 O 0.77526 0.30755 0.63097 0.0
O135 O 0.86649 0.2436 0.60306 0.0
C136 C 0.19976 0.34196 0.62676 0.0
C137 C 0.20553 0.31834 0.66771 0.0
H138 H 0.1977 0.26381 0.74564 0.0
H139 H 0.09109 0.19862 0.77464 0.0
H140 H 0.05534 0.34244 0.51145 0.0
H141 H 0.17052 0.3733 0.54651 0.0
H142 H 0.24605 0.36725 0.61191 0.0
H143 H 0.25604 0.32551 0.6837 0.0
Mn144 Mn 0.65471 0.22232 0.35088 0.0
Mn145 Mn 0.74901 0.0782 0.38227 0.0
C146 C 0.59507 0.11942 0.37367 0.0
C147 C 0.58402 0.28079 0.30016 0.0
C148 C 0.72262 0.20787 0.43669 0.0
O149 O 0.75654 0.24364 0.32651 0.0
O150 O 0.81325 0.14835 0.35278 0.0
C151 C 0.77715 0.02324 0.29855 0.0
N152 N 0.74866 0.01323 0.33674 0.0
C153 C 0.69918 0.89742 0.31777 0.0
C154 C 0.728 0.90654 0.27829 0.0
C155 C 0.7672 0.96972 0.26867 0.0
C156 C 0.71015 0.95296 0.34615 0.0
H157 H 0.80685 0.07188 0.29079 0.0
C158 C 0.81482 0.20836 0.33328 0.0
O159 O 0.61005 0.31528 0.3315 0.0
O160 O 0.6075 0.21593 0.2959 0.0
N161 N 0.69537 0.00435 0.41052 0.0
C162 C 0.68093 0.99928 0.4514 0.0
C163 C 0.64554 0.93744 0.46686 0.0
C164 C 0.62732 0.88063 0.44034 0.0
C165 C 0.64703 0.88508 0.39888 0.0
C166 C 0.68294 0.94776 0.38539 0.0
H167 H 0.69558 0.04251 0.47197 0.0
O168 O 0.56377 0.18131 0.37464 0.0
O169 O 0.66128 0.11993 0.36021 0.0
O170 O 0.69154 0.24615 0.40925 0.0
O171 O 0.74581 0.14385 0.43042 0.0
C172 C 0.6346 0.82886 0.37075 0.0
C173 C 0.66048 0.83514 0.33018 0.0
H174 H 0.7208 0.86521 0.25524 0.0
H175 H 0.7897 0.97715 0.23827 0.0
H176 H 0.63219 0.93369 0.49911 0.0
H177 H 0.59972 0.83317 0.45232 0.0
H178 H 0.60627 0.78007 0.38017 0.0
H179 H 0.65154 0.79115 0.30901 0.0
Mn180 Mn 0.29515 0.17415 0.8462 0.0
Mn181 Mn 0.43918 0.26364 0.88452 0.0
C182 C 0.39396 0.11092 0.87015 0.0
C183 C 0.23947 0.10583 0.7949 0.0
C184 C 0.30107 0.23649 0.93352 0.0
O185 O 0.28206 0.27637 0.82174 0.0
O186 O 0.37825 0.33063 0.8515 0.0
C187 C 0.50973 0.28956 0.80409 0.0
N188 N 0.5119 0.26165 0.8427 0.0
C189 C 0.62547 0.20467 0.82877 0.0
C190 C 0.62407 0.23225 0.78876 0.0
C191 C 0.56561 0.27451 0.77631 0.0
C192 C 0.56728 0.21978 0.85472 0.0
H193 H 0.46557 0.32271 0.79446 0.0
C194 C 0.32263 0.33195 0.82818 0.0
O195 O 0.20162 0.13391 0.82434 0.0
O196 O 0.30546 0.12885 0.79132 0.0
N197 N 0.50459 0.20724 0.91624 0.0
C198 C 0.50205 0.1926 0.95718 0.0
C199 C 0.55847 0.15401 0.97537 0.0
C200 C 0.61789 0.13284 0.95155 0.0
C201 C 0.62156 0.15293 0.91015 0.0
C202 C 0.56419 0.19234 0.89395 0.0
H203 H 0.45686 0.20941 0.97573 0.0
O204 O 0.33031 0.08144 0.86959 0.0
O205 O 0.39723 0.17808 0.85869 0.0
O206 O 0.26528 0.20736 0.90431 0.0
O207 O 0.36587 0.26085 0.92941 0.0
C208 C 0.68064 0.13696 0.88458 0.0
C209 C 0.6822 0.16245 0.84383 0.0
H210 H 0.66759 0.22144 0.76741 0.0
H211 H 0.56398 0.29605 0.74547 0.0
H212 H 0.55598 0.14039 1.00761 0.0
H213 H 0.66104 0.10253 0.96555 0.0
H214 H 0.72535 0.10577 0.89609 0.0
H215 H 0.72766 0.15048 0.82442 0.0
Mn216 Mn 0.33083 0.78152 0.34666 0.0
Mn217 Mn 0.23816 0.93026 0.37118 0.0
C218 C 0.39036 0.8867 0.36376 0.0
C219 C 0.40616 0.7236 0.29796 0.0
C220 C 0.26909 0.81184 0.43279 0.0
O221 O 0.22925 0.7549 0.32541 0.0
O222 O 0.17369 0.85338 0.34866 0.0
C223 C 0.20029 0.9681 0.28569 0.0
N224 N 0.2322 0.98592 0.32189 0.0
C225 C 0.27595 0.09856 0.29406 0.0
C226 C 0.24366 0.08141 0.25649 0.0
C227 C 0.20549 0.01595 0.25234 0.0
C228 C 0.26921 0.04872 0.32614 0.0
H229 H 0.17144 0.91761 0.28212 0.0
C230 C 0.17138 0.79066 0.33239 0.0
O231 O 0.38381 0.69026 0.33091 0.0
O232 O 0.373 0.78267 0.29011 0.0
N233 N 0.29213 0.01015 0.39265 0.0
C234 C 0.31224 0.02246 0.43215 0.0
C235 C 0.34845 0.08706 0.44206 0.0
C236 C 0.36211 0.13893 0.41146 0.0
C237 C 0.33682 0.12692 0.3716 0.0
C238 C 0.30029 0.06188 0.36371 0.0
H239 H 0.30144 0.98291 0.45583 0.0
O240 O 0.42172 0.82546 0.36719 0.0
O241 O 0.32455 0.88546 0.35008 0.0
O242 O 0.29577 0.76687 0.40702 0.0
O243 O 0.24852 0.87511 0.42246 0.0
C244 C 0.34485 0.1776 0.33964 0.0
C245 C 0.31458 0.1632 0.30088 0.0
H246 H 0.24749 0.11826 0.23073 0.0
H247 H 0.18031 1.00232 0.22347 0.0
H248 H 0.36613 0.09665 0.47316 0.0
H249 H 0.3906 0.18842 0.41912 0.0
H250 H 0.37343 0.2281 0.34467 0.0
H251 H 0.32043 0.2024 0.2766 0.0
Mn252 Mn 0.72784 0.8454 0.8469 0.0
Mn253 Mn 0.58339 0.74924 0.88001 0.0
C254 C 0.62287 0.90369 0.86562 0.0
C255 C 0.78659 0.91577 0.79651 0.0
C256 C 0.70895 0.78934 0.93559 0.0
O257 O 0.7528 0.74223 0.82659 0.0
O258 O 0.65722 0.68614 0.85455 0.0
C259 C 0.53553 0.70827 0.7966 0.0
N260 N 0.52184 0.74045 0.83327 0.0
C261 C 0.40652 0.78183 0.80959 0.0
C262 C 0.41963 0.74967 0.77156 0.0
C263 C 0.4843 0.71245 0.76508 0.0
C264 C 0.46004 0.77699 0.8396 0.0
H265 H 0.58538 0.68015 0.7912 0.0
C266 C 0.71747 0.68391 0.83534 0.0
O267 O 0.82155 0.89184 0.82818 0.0
O268 O 0.72337 0.88727 0.79057 0.0
N269 N 0.50538 0.80044 0.90462 0.0
C270 C 0.49468 0.81435 0.94515 0.0
C271 C 0.43043 0.84731 0.95788 0.0
C272 C 0.37621 0.86186 0.92914 0.0
C273 C 0.3855 0.84019 0.88837 0.0
C274 C 0.45081 0.80775 0.87758 0.0
H275 H 0.53562 0.80167 0.96748 0.0
O276 O 0.6846 0.93678 0.86642 0.0
O277 O 0.62398 0.83631 0.85468 0.0
O278 O 0.74903 0.81664 0.9072 0.0
O279 O 0.64557 0.76272 0.92923 0.0
C280 C 0.33119 0.84628 0.85852 0.0
C281 C 0.34199 0.8177 0.81903 0.0
H282 H 0.38036 0.75324 0.74717 0.0
H283 H 0.49474 0.6873 0.73581 0.0
H284 H 0.42264 0.86113 0.98977 0.0
H285 H 0.32661 0.8871 0.93902 0.0
H286 H 0.28032 0.87111 0.86601 0.0
H287 H 0.29967 0.82163 0.79646 0.0
C288 C 0.19124 0.28344 0.02915 0.0
C289 C 0.23886 0.25732 0.05954 0.0
C290 C 0.29755 0.18922 1.0058 0.0
C291 C 0.26924 0.23625 0.97572 0.0
N292 N 0.18025 0.32557 0.95917 0.0
N293 N 0.3349 0.17609 0.07635 0.0
C294 C 0.21291 0.28264 0.98734 0.0
C295 C 0.2919 0.20749 0.04783 0.0
N296 N 0.12295 0.30175 0.03987 0.0
N297 N 0.31893 0.12247 0.99461 0.0
H298 H 0.32801 0.18511 0.10763 0.0
H299 H 0.37807 0.14323 0.06826 0.0
H300 H 0.30488 0.103 0.96571 0.0
H301 H 0.33666 0.08399 0.01555 0.0
H302 H 0.08386 0.31575 0.0184 0.0
H303 H 0.10417 0.29389 0.0698 0.0
H304 H 0.14263 0.36444 0.96748 0.0
H305 H 0.19386 0.32444 0.92813 0.0
C306 C 0.29468 0.72857 0.54099 0.0
C307 C 0.24749 0.77308 0.56426 0.0
C308 C 0.2068 0.82818 0.50066 0.0
C309 C 0.26086 0.79263 0.47752 0.0
N310 N 0.37189 0.72394 0.48099 0.0
N311 N 0.18358 0.88617 0.56498 0.0
C312 C 0.30972 0.74704 0.49908 0.0
C313 C 0.2126 0.83028 0.54363 0.0
N314 N 0.32301 0.66749 0.55751 0.0
N315 N 0.14718 0.85637 0.48231 0.0
H316 H 0.19024 0.89163 0.59657 0.0
H317 H 0.16077 0.93055 0.5504 0.0
H318 H 0.13492 0.84752 0.45156 0.0
H319 H 0.10516 0.87918 0.49911 0.0
H320 H 0.35156 0.63041 0.53999 0.0
H321 H 0.31312 0.65053 0.58742 0.0
H322 H 0.41103 0.69548 0.49704 0.0
H323 H 0.38882 0.74045 0.45197 0.0
C324 C 0.70319 0.80439 0.05054 0.0
C325 C 0.75728 0.75574 0.06229 0.0
C326 C 0.79259 0.74066 0.99042 0.0
C327 C 0.73661 0.78738 0.97857 0.0
N328 N 0.68032 0.89652 1.00045 0.0
N329 N 0.87603 0.71425 0.04497 0.0
C330 C 0.70251 0.82886 1.00935 0.0
C331 C 0.8093 0.73488 0.03271 0.0
N332 N 0.6542 0.82875 0.07833 0.0
N333 N 0.82875 0.70096 0.96203 0.0
H334 H 0.8911 0.7167 0.0757 0.0
H335 H 0.91785 0.7038 0.02436 0.0
H336 H 0.81839 0.70467 0.93071 0.0
H337 H 0.86573 0.66147 0.97027 0.0
H338 H 0.61089 0.86102 0.06981 0.0
H339 H 0.65569 0.81367 0.10913 0.0
H340 H 0.65827 0.93075 0.02238 0.0
H341 H 0.69768 0.92138 0.97334 0.0
C342 C 0.68681 0.21252 0.51114 0.0
C343 C 0.73155 0.23818 0.47869 0.0
C344 C 0.79609 0.31183 0.52858 0.0
C345 C 0.76697 0.26931 0.56091 0.0
N346 N 0.67888 0.18091 0.58319 0.0
N347 N 0.82964 0.31624 0.45683 0.0
C348 C 0.71039 0.21992 0.55236 0.0
C349 C 0.78644 0.28946 0.48739 0.0
N350 N 0.61902 0.18799 0.50265 0.0
N351 N 0.82797 0.3763 0.53736 0.0
H352 H 0.82279 0.30206 0.42616 0.0
H353 H 0.8747 0.34895 0.46261 0.0
H354 H 0.82469 0.39738 0.5669 0.0
H355 H 0.84671 0.41214 0.51493 0.0
H356 H 0.58217 0.17138 0.52511 0.0
H357 H 0.59689 0.19727 0.47383 0.0
H358 H 0.64195 0.13911 0.57781 0.0
H359 H 0.69223 0.189 0.61386 0.0
C360 C 0.39219 0.34162 0.27268 0.0
C361 C 0.38445 0.31151 0.23299 0.0
C362 C 0.51343 0.27822 0.23378 0.0
C363 C 0.52081 0.30576 0.27431 0.0
N364 N 0.47246 0.38713 0.32525 0.0
N365 N 0.43482 0.24476 0.17708 0.0
C366 C 0.46174 0.34412 0.29186 0.0
C367 C 0.44461 0.27858 0.21382 0.0
N368 N 0.33229 0.36625 0.29267 0.0
N369 N 0.57381 0.25583 0.21337 0.0
H370 H 0.38526 0.24408 0.16198 0.0
H371 H 0.47327 0.21258 0.16302 0.0
H372 H 0.62532 0.2589 0.2261 0.0
H373 H 0.5748 0.24137 0.18262 0.0
H374 H 0.33174 0.38012 0.32354 0.0
H375 H 0.28105 0.36646 0.27945 0.0
H376 H 0.43311 0.42077 0.33727 0.0
H377 H 0.52303 0.39857 0.33743 0.0
C378 C 0.18249 0.90854 0.77562 0.0
C379 C 0.20651 0.90034 0.7346 0.0
C380 C 0.23394 0.03046 0.73093 0.0
C381 C 0.21748 0.03767 0.77331 0.0
N382 N 0.1856 0.97895 0.83777 0.0
N383 N 0.26333 0.95078 0.67446 0.0
C384 C 0.19337 0.97572 0.7961 0.0
C385 C 0.23426 0.9607 0.71257 0.0
N386 N 0.14969 0.85158 0.79526 0.0
N387 N 0.24762 0.09083 0.70792 0.0
H388 H 0.2652 0.90037 0.66041 0.0
H389 H 0.29129 0.99083 0.65829 0.0
H390 H 0.24751 0.14259 0.72026 0.0
H391 H 0.2524 0.09046 0.67613 0.0
H392 H 0.12113 0.85625 0.82264 0.0
H393 H 0.14679 0.7999 0.7828 0.0
H394 H 0.17331 0.9346 0.85618 0.0
H395 H 0.19674 0.02418 0.85536 0.0
C396 C 0.51781 0.7657 0.25742 0.0
C397 C 0.47744 0.70793 0.27644 0.0
C398 C 0.58221 0.63123 0.26212 0.0
C399 C 0.61183 0.68354 0.23478 0.0
N400 N 0.59953 0.79996 0.2026 0.0
N401 N 0.47273 0.57947 0.29084 0.0
C402 C 0.57651 0.75021 0.23082 0.0
C403 C 0.50992 0.63865 0.27699 0.0
N404 N 0.50706 0.83561 0.26843 0.0
N405 N 0.62484 0.5776 0.27665 0.0
H406 H 0.41917 0.58099 0.30055 0.0
H407 H 0.49332 0.52755 0.28837 0.0
H408 H 0.68008 0.57615 0.26998 0.0
H409 H 0.60743 0.54097 0.29902 0.0
H410 H 0.53853 0.87831 0.2571 0.0
H411 H 0.47762 0.84919 0.29432 0.0
H412 H 0.57096 0.84698 0.1966 0.0
H413 H 0.64347 0.79156 0.18316 0.0
C414 C 0.79076 0.05726 0.71117 0.0
C415 C 0.81576 0.12005 0.73183 0.0
C416 C 0.82807 0.04828 0.79519 0.0
C417 C 0.80729 0.98406 0.77376 0.0
N418 N 0.78485 0.92648 0.70896 0.0
N419 N 0.87273 0.1719 0.79125 0.0
C420 C 0.79325 0.98851 0.73102 0.0
C421 C 0.83909 0.11432 0.77307 0.0
N422 N 0.76311 0.06361 0.6726 0.0
N423 N 0.83252 0.04852 0.83702 0.0
H424 H 0.87823 0.22225 0.7772 0.0
H425 H 0.90014 0.16826 0.81897 0.0
H426 H 0.82092 0.0044 0.85562 0.0
H427 H 0.84078 0.09514 0.85413 0.0
H428 H 0.73676 0.02167 0.65739 0.0
H429 H 0.7608 0.11286 0.6572 0.0
H430 H 0.78177 0.92533 0.67712 0.0
H431 H 0.78858 0.87541 0.72216 0.0
C432 C 0.95249 0.19318 0.32332 0.0
C433 C 0.88769 0.23223 0.31489 0.0
C434 C 0.95182 0.29397 0.2585 0.0
C435 C 0.01367 0.24953 0.26371 0.0
N436 N 0.07097 0.15334 0.30029 0.0
N437 N 0.84699 0.34735 0.2902 0.0
C438 C 0.01326 0.19791 0.29585 0.0
C439 C 0.89317 0.2907 0.28696 0.0
N440 N 0.95969 0.15931 0.36029 0.0
N441 N 0.94681 0.33707 0.2248 0.0
H442 H 0.81149 0.35315 0.31477 0.0
H443 H 0.85229 0.39438 0.27289 0.0
H444 H 0.98533 0.33775 0.20173 0.0
H445 H 0.90073 0.3658 0.21748 0.0
H446 H 0.00678 0.13411 0.36976 0.0
H447 H 0.92313 0.16653 0.38428 0.0
H448 H 0.07073 0.10857 0.31963 0.0
H449 H 0.11753 0.15823 0.28237 0.0
C450 C 0.29396 0.53375 0.80683 0.0
C451 C 0.30472 0.53794 0.76375 0.0
C452 C 0.32834 0.40661 0.7629 0.0
C453 C 0.31031 0.40144 0.80524 0.0
N454 N 0.26968 0.45906 0.86695 0.0
N455 N 0.32607 0.47598 0.69979 0.0
C456 C 0.29174 0.46495 0.82705 0.0
C457 C 0.32103 0.47382 0.74159 0.0
N458 N 0.28794 0.59625 0.8286 0.0
N459 N 0.35467 0.34751 0.74313 0.0
H460 H 0.32311 0.52311 0.68262 0.0
H461 H 0.32976 0.43044 0.68145 0.0
H462 H 0.3563 0.29638 0.75645 0.0
H463 H 0.3795 0.34984 0.71447 0.0
H464 H 0.28691 0.59845 0.86045 0.0
H465 H 0.29083 0.64701 0.81473 0.0
H466 H 0.24825 0.50148 0.88368 0.0
H467 H 0.26729 0.40983 0.88248 0.0
C468 C 0.09222 0.70308 0.29166 0.0
C469 C 0.09811 0.76443 0.31697 0.0
C470 C 0.9733 0.79775 0.29724 0.0
C471 C 0.97381 0.74393 0.26643 0.0
N472 N 0.04225 0.65393 0.22996 0.0
N473 N 0.02774 0.84351 0.35965 0.0
C474 C 0.03521 0.69848 0.26279 0.0
C475 C 0.03395 0.80499 0.32422 0.0
N476 N 0.13668 0.64581 0.29762 0.0
N477 N 0.91512 0.84207 0.30068 0.0
H478 H 0.06503 0.8392 0.38338 0.0
H479 H 0.98128 0.87062 0.36844 0.0
H480 H 0.86828 0.83503 0.28344 0.0
H481 H 0.91472 0.88819 0.31877 0.0
H482 H 0.13006 0.59696 0.28229 0.0
H483 H 0.17212 0.64285 0.32229 0.0
H484 H 0.08911 0.62522 0.22402 0.0
H485 H 1.00544 0.65246 0.20615 0.0
C486 C 0.70316 0.48994 0.79282 0.0
C487 C 0.76624 0.48677 0.76793 0.0
C488 C 0.80889 0.60125 0.79954 0.0
C489 C 0.74103 0.6103 0.81895 0.0
N490 N 0.64744 0.54016 0.85329 0.0
N491 N 0.87548 0.54696 0.74414 0.0
C492 C 0.69407 0.54835 0.82096 0.0
C493 C 0.81858 0.54398 0.77085 0.0
N494 N 0.65183 0.43672 0.79012 0.0
N495 N 0.86636 0.64286 0.8115 0.0
H496 H 0.8807 0.51206 0.71951 0.0
H497 H 0.91272 0.58938 0.74325 0.0
H498 H 0.86283 0.6795 0.83557 0.0
H499 H 0.91923 0.63399 0.80177 0.0
H500 H 0.60025 0.44093 0.80278 0.0
H501 H 0.65935 0.39007 0.77313 0.0
H502 H 0.61511 0.49452 0.85798 0.0
H503 H 0.65056 0.57212 0.87942 0.0
C504 C 0.97209 0.52793 0.10865 0.0
C505 C 0.93392 0.54181 0.14534 0.0
C506 C 0.0301 0.48399 0.18373 0.0
C507 C 0.06148 0.45986 0.14667 0.0
N508 N 0.05011 0.44641 0.07364 0.0
N509 N 0.91827 0.51452 0.2174 0.0
C510 C 0.02865 0.47794 0.10904 0.0
C511 C 0.95984 0.51324 0.18276 0.0
N512 N 0.95589 0.56354 0.07349 0.0
N513 N 0.06687 0.47898 0.21979 0.0
H514 H 0.86453 0.53043 0.21741 0.0
H515 H 0.93412 0.49134 0.24499 0.0
H516 H 0.12069 0.46349 0.22122 0.0
H517 H 0.04729 0.49914 0.24739 0.0
H518 H 0.98777 0.56132 0.0471 0.0
H519 H 0.91213 0.59752 0.07188 0.0
H520 H 0.0222 0.4514 0.04608 0.0
H521 H 0.09458 0.41332 0.07296 0.0
C522 C 0.00894 0.47479 0.61666 0.0
C523 C 0.98551 0.43892 0.65283 0.0
C524 C 0.05118 0.52724 0.69376 0.0
C525 C 0.07908 0.55924 0.65739 0.0
N526 N 0.10501 0.54486 0.58525 0.0
N527 N 0.0068 0.41736 0.725 0.0
C528 C 0.065 0.52682 0.6191 0.0
C529 C 0.01447 0.46021 0.69111 0.0
N530 N 0.9766 0.46104 0.58019 0.0
N531 N 0.05886 0.56049 0.73082 0.0
H532 H 0.98189 0.36687 0.72453 0.0
H533 H 0.033 0.42816 0.75255 0.0
H534 H 0.08176 0.61151 0.73428 0.0
H535 H 0.03488 0.54104 0.75766 0.0
H536 H 0.98749 0.49053 0.55358 0.0
H537 H 0.93686 0.42169 0.5775 0.0
H538 H 0.10029 0.51724 0.55759 0.0
H539 H 0.14588 0.58414 0.58563 0.0
C540 C 0.52278 0.0311 0.33334 0.0
C541 C 0.54796 0.05473 0.37209 0.0
C542 C 0.4667 0.96829 0.40582 0.0
C543 C 0.43527 0.95184 0.36751 0.0
N544 N 0.42329 0.97936 0.2954 0.0
N545 N 0.53098 0.05722 0.44525 0.0
C546 C 0.45973 0.98733 0.33147 0.0
C547 C 0.5158 0.0269 0.40837 0.0
N548 N 0.55969 0.04872 0.29831 0.0
N549 N 0.4497 0.92821 0.43982 0.0
H550 H 0.57096 0.09632 0.44814 0.0
H551 H 0.50271 0.0449 0.47211 0.0
H552 H 0.41071 0.88712 0.4398 0.0
H553 H 0.47692 0.93372 0.46755 0.0
H554 H 0.54714 0.02679 0.26983 0.0
H555 H 0.60777 0.07835 0.29815 0.0
H556 H 0.4344 0.0108 0.26957 0.0
H557 H 0.37809 0.94592 0.29215 0.0
C558 C 0.478 0.02689 0.90596 0.0
C559 C 0.45717 0.06233 0.86956 0.0
C560 C 0.52996 0.97706 0.82999 0.0
C561 C 0.55704 0.94806 0.86699 0.0
N562 N 0.56643 0.95498 0.94001 0.0
N563 N 0.47394 0.07883 0.79664 0.0
C564 C 0.53386 0.9761 0.90484 0.0
C565 C 0.48634 0.03976 0.83139 0.0
N566 N 0.44395 0.04136 0.94185 0.0
N567 N 0.54546 0.94445 0.79359 0.0
H568 H 0.44401 0.12596 0.79645 0.0
H569 H 0.49967 0.0689 0.76882 0.0
H570 H 0.57656 0.89807 0.79168 0.0
H571 H 0.52156 0.95887 0.76596 0.0
H572 H 0.44958 0.01071 0.96844 0.0
H573 H 0.40955 0.08451 0.94407 0.0
H574 H 0.5592 0.98028 0.96818 0.0
H575 H 0.60076 0.91126 0.94002 0.0
loop_
_geom_bond_atom_site_label_1
_geom_bond_atom_site_label_2
_geom_bond_distance
_geom_bond_site_symmetry_2
_ccdc_geom_bond_type
Mn0 O5 2.095 . S
Mn0 O15 2.162 . S
Mn0 O16 2.297 . S
Mn0 O24 2.385 . S
Mn0 O25 2.209 . S
Mn0 O26 2.094 . S
Mn1 O6 2.121 . S
Mn1 N8 2.257 . S
Mn1 N17 2.282 . S
Mn1 O25 2.215 . S
Mn1 O27 2.117 . S
C2 O24 1.234 . S
C2 O25 1.283 . S
C3 O15 1.281 1_655 S
C3 O16 1.236 1_655 S
C4 O26 1.240 . S
C4 O27 1.264 . S
O5 Mn0 2.095 . S
O5 C14 1.250 . S
O6 Mn1 2.121 . S
O6 C14 1.258 . S
C7 N8 1.326 . S
C7 C11 1.460 . S
C7 H13 0.929 . S
N8 Mn1 2.257 . S
N8 C7 1.326 . S
N8 C12 1.362 . S
C9 C10 1.258 . S
C9 C12 1.431 . S
C9 C29 1.449 . S
C10 C9 1.258 . S
C10 C11 1.477 . S
C10 H30 0.931 . S
C11 C7 1.460 . S
C11 C10 1.477 . S
C11 H31 0.930 . S
C12 N8 1.362 . S
C12 C9 1.431 . S
C12 C22 1.476 . S
H13 C7 0.929 . S
C14 O5 1.250 . S
C14 O6 1.258 . S
O15 Mn0 2.162 . S
O15 C3 1.281 1_455 S
O16 Mn0 2.297 . S
O16 C3 1.236 1_455 S
N17 Mn1 2.282 . S
N17 C18 1.328 . S
N17 C22 1.318 . S
C18 N17 1.328 . S
C18 C19 1.457 . S
C18 H23 0.929 . S
C19 C18 1.457 . S
C19 C20 1.291 . S
C19 H32 0.931 1_554 S
C20 C19 1.291 . S
C20 C21 1.373 . S
C20 H33 0.929 . S
C21 C20 1.373 . S
C21 C22 1.396 . S
C21 C28 1.403 . S
C22 C12 1.476 . S
C22 N17 1.318 . S
C22 C21 1.396 . S
H23 C18 0.929 . S
O24 Mn0 2.385 . S
O24 C2 1.234 . S
O25 Mn0 2.209 . S
O25 Mn1 2.215 . S
O25 C2 1.283 . S
O26 Mn0 2.094 . S
O26 C4 1.240 . S
O27 Mn1 2.117 . S
O27 C4 1.264 . S
C28 C21 1.403 . S
C28 C29 1.399 . S
C28 H34 0.929 . S
C29 C9 1.449 . S
C29 C28 1.399 . S
C29 H35 0.930 . S
H30 C10 0.931 . S
H31 C11 0.930 . S
H32 C19 0.931 1_556 S
H33 C20 0.929 . S
H34 C28 0.929 . S
H35 C29 0.930 . S
Mn36 O41 2.095 . S
Mn36 O51 2.162 . S
Mn36 O52 2.297 . S
Mn36 O60 2.385 . S
Mn36 O61 2.209 . S
Mn36 O62 2.094 . S
Mn37 O42 2.121 . S
Mn37 N44 2.257 . S
Mn37 N53 2.282 . S
Mn37 O61 2.215 . S
Mn37 O63 2.117 . S
C38 O60 1.234 . S
C38 O61 1.283 . S
C39 O51 1.281 . S
C39 O52 1.236 . S
C40 O62 1.240 . S
C40 O63 1.264 . S
O41 Mn36 2.095 . S
O41 C50 1.250 . S
O42 Mn37 2.121 . S
O42 C50 1.258 . S
C43 N44 1.326 . S
C43 C47 1.460 1_455 S
C43 H49 0.929 . S
N44 Mn37 2.257 . S
N44 C43 1.326 . S
N44 C48 1.362 1_455 S
C45 C46 1.258 . S
C45 C48 1.431 . S
C45 C65 1.449 . S
C46 C45 1.258 . S
C46 C47 1.477 . S
C46 H66 0.931 . S
C47 C43 1.460 1_655 S
C47 C46 1.477 . S
C47 H67 0.930 . S
C48 N44 1.362 1_655 S
C48 C45 1.431 . S
C48 C58 1.476 . S
H49 C43 0.929 . S
C50 O41 1.250 . S
C50 O42 1.258 . S
O51 Mn36 2.162 . S
O51 C39 1.281 . S
O52 Mn36 2.297 . S
O52 C39 1.236 . S
N53 Mn37 2.282 . S
N53 C54 1.328 . S
N53 C58 1.318 1_455 S
C54 N53 1.328 . S
C54 C55 1.457 1_455 S
C54 H59 0.929 . S
C55 C54 1.457 1_655 S
C55 C56 1.291 . S
C55 H68 0.931 1_655 S
C56 C55 1.291 . S
C56 C57 1.373 . S
C56 H69 0.929 . S
C57 C56 1.373 . S
C57 C58 1.396 . S
C57 C64 1.403 . S
C58 C48 1.476 . S
C58 N53 1.318 1_655 S
C58 C57 1.396 . S
H59 C54 0.929 . S
O60 Mn36 2.385 . S
O60 C38 1.234 . S
O61 Mn36 2.209 . S
O61 Mn37 2.215 . S
O61 C38 1.283 . S
O62 Mn36 2.094 . S
O62 C40 1.240 . S
O63 Mn37 2.117 . S
O63 C40 1.264 . S
C64 C57 1.403 . S
C64 C65 1.399 . S
C64 H70 0.929 . S
C65 C45 1.449 . S
C65 C64 1.399 . S
C65 H71 0.930 . S
H66 C46 0.931 . S
H67 C47 0.930 . S
H68 C55 0.931 1_455 S
H69 C56 0.929 . S
H70 C64 0.929 . S
H71 C65 0.930 . S
Mn72 O77 2.095 . S
Mn72 O87 2.162 . S
Mn72 O88 2.297 . S
Mn72 O96 2.385 . S
Mn72 O97 2.209 . S
Mn72 O98 2.094 . S
Mn73 O78 2.121 . S
Mn73 N80 2.257 . S
Mn73 N89 2.282 . S
Mn73 O97 2.215 . S
Mn73 O99 2.117 . S
C74 O96 1.234 . S
C74 O97 1.283 . S
C75 O87 1.281 1_455 S
C75 O88 1.236 1_455 S
C76 O98 1.240 . S
C76 O99 1.264 . S
O77 Mn72 2.095 . S
O77 C86 1.250 . S
O78 Mn73 2.121 . S
O78 C86 1.258 . S
C79 N80 1.326 . S
C79 C83 1.460 . S
C79 H85 0.929 . S
N80 Mn73 2.257 . S
N80 C79 1.326 . S
N80 C84 1.362 . S
C81 C82 1.258 . S
C81 C84 1.431 . S
C81 C101 1.449 . S
C82 C81 1.258 . S
C82 C83 1.477 . S
C82 H102 0.931 . S
C83 C79 1.460 . S
C83 C82 1.477 . S
C83 H103 0.930 . S
C84 N80 1.362 . S
C84 C81 1.431 . S
C84 C94 1.476 . S
H85 C79 0.929 . S
C86 O77 1.250 . S
C86 O78 1.258 . S
O87 Mn72 2.162 . S
O87 C75 1.281 1_655 S
O88 Mn72 2.297 . S
O88 C75 1.236 1_655 S
N89 Mn73 2.282 . S
N89 C90 1.328 . S
N89 C94 1.318 . S
C90 N89 1.328 . S
C90 C91 1.457 . S
C90 H95 0.929 . S
C91 C90 1.457 . S
C91 C92 1.291 . S
C91 H104 0.931 1_554 S
C92 C91 1.291 . S
C92 C93 1.373 . S
C92 H105 0.929 . S
C93 C92 1.373 . S
C93 C94 1.396 . S
C93 C100 1.403 . S
C94 C84 1.476 . S
C94 N89 1.318 . S
C94 C93 1.396 . S
H95 C90 0.929 . S
O96 Mn72 2.385 . S
O96 C74 1.234 . S
O97 Mn72 2.209 . S
O97 Mn73 2.215 . S
O97 C74 1.283 . S
O98 Mn72 2.094 . S
O98 C76 1.240 . S
O99 Mn73 2.117 . S
O99 C76 1.264 . S
C100 C93 1.403 . S
C100 C101 1.399 . S
C100 H106 0.929 . S
C101 C81 1.449 . S
C101 C100 1.399 . S
C101 H107 0.930 . S
H102 C82 0.931 . S
H103 C83 0.930 . S
H104 C91 0.931 1_556 S
H105 C92 0.929 . S
H106 C100 0.929 . S
H107 C101 0.930 . S
Mn108 O113 2.095 . S
Mn108 O123 2.162 . S
Mn108 O124 2.297 . S
Mn108 O132 2.385 . S
Mn108 O133 2.209 . S
Mn108 O134 2.094 . S
Mn109 O114 2.121 . S
Mn109 N116 2.257 . S
Mn109 N125 2.282 . S
Mn109 O133 2.215 . S
Mn109 O135 2.117 . S
C110 O132 1.234 . S
C110 O133 1.283 . S
C111 O123 1.281 . S
C111 O124 1.236 . S
C112 O134 1.240 . S
C112 O135 1.264 . S
O113 Mn108 2.095 . S
O113 C122 1.250 . S
O114 Mn109 2.121 . S
O114 C122 1.258 . S
C115 N116 1.326 . S
C115 C119 1.460 1_655 S
C115 H121 0.929 . S
N116 Mn109 2.257 . S
N116 C115 1.326 . S
N116 C120 1.362 1_655 S
C117 C118 1.258 . S
C117 C120 1.431 . S
C117 C137 1.449 . S
C118 C117 1.258 . S
C118 C119 1.477 . S
C118 H138 0.931 . S
C119 C115 1.460 1_455 S
C119 C118 1.477 . S
C119 H139 0.930 . S
C120 N116 1.362 1_455 S
C120 C117 1.431 . S
C120 C130 1.476 . S
H121 C115 0.929 . S
C122 O113 1.250 . S
C122 O114 1.258 . S
O123 Mn108 2.162 . S
O123 C111 1.281 . S
O124 Mn108 2.297 . S
O124 C111 1.236 . S
N125 Mn109 2.282 . S
N125 C126 1.328 . S
N125 C130 1.318 1_655 S
C126 N125 1.328 . S
C126 C127 1.457 1_655 S
C126 H131 0.929 . S
C127 C126 1.457 1_455 S
C127 C128 1.291 . S
C127 H140 0.931 1_455 S
C128 C127 1.291 . S
C128 C129 1.373 . S
C128 H141 0.929 . S
C129 C128 1.373 . S
C129 C130 1.396 . S
C129 C136 1.403 . S
C130 C120 1.476 . S
C130 N125 1.318 1_455 S
C130 C129 1.396 . S
H131 C126 0.929 . S
O132 Mn108 2.385 . S
O132 C110 1.234 . S
O133 Mn108 2.209 . S
O133 Mn109 2.215 . S
O133 C110 1.283 . S
O134 Mn108 2.094 . S
O134 C112 1.240 . S
O135 Mn109 2.117 . S
O135 C112 1.264 . S
C136 C129 1.403 . S
C136 C137 1.399 . S
C136 H142 0.929 . S
C137 C117 1.449 . S
C137 C136 1.399 . S
C137 H143 0.930 . S
H138 C118 0.931 . S
H139 C119 0.930 . S
H140 C127 0.931 1_655 S
H141 C128 0.929 . S
H142 C136 0.929 . S
H143 C137 0.930 . S
Mn144 O149 2.095 . S
Mn144 O159 2.162 . S
Mn144 O160 2.297 . S
Mn144 O168 2.385 . S
Mn144 O169 2.209 . S
Mn144 O170 2.094 . S
Mn145 O150 2.121 . S
Mn145 N152 2.257 . S
Mn145 N161 2.282 . S
Mn145 O169 2.215 . S
Mn145 O171 2.117 . S
C146 O168 1.234 . S
C146 O169 1.283 . S
C147 O159 1.281 . S
C147 O160 1.236 . S
C148 O170 1.240 . S
C148 O171 1.264 . S
O149 Mn144 2.095 . S
O149 C158 1.250 . S
O150 Mn145 2.121 . S
O150 C158 1.258 . S
C151 N152 1.326 . S
C151 C155 1.460 1_545 S
C151 H157 0.929 . S
N152 Mn145 2.257 . S
N152 C151 1.326 . S
N152 C156 1.362 1_545 S
C153 C154 1.258 . S
C153 C156 1.431 . S
C153 C173 1.449 . S
C154 C153 1.258 . S
C154 C155 1.477 . S
C154 H174 0.931 . S
C155 C151 1.460 1_565 S
C155 C154 1.477 . S
C155 H175 0.930 . S
C156 N152 1.362 1_565 S
C156 C153 1.431 . S
C156 C166 1.476 . S
H157 C151 0.929 . S
C158 O149 1.250 . S
C158 O150 1.258 . S
O159 Mn144 2.162 . S
O159 C147 1.281 . S
O160 Mn144 2.297 . S
O160 C147 1.236 . S
N161 Mn145 2.282 . S
N161 C162 1.328 . S
N161 C166 1.318 1_545 S
C162 N161 1.328 . S
C162 C163 1.457 1_545 S
C162 H167 0.929 . S
C163 C162 1.457 1_565 S
C163 C164 1.291 . S
C163 H176 0.931 1_565 S
C164 C163 1.291 . S
C164 C165 1.373 . S
C164 H177 0.929 . S
C165 C164 1.373 . S
C165 C166 1.396 . S
C165 C172 1.403 . S
C166 C156 1.476 . S
C166 N161 1.318 1_565 S
C166 C165 1.396 . S
H167 C162 0.929 . S
O168 Mn144 2.385 . S
O168 C146 1.234 . S
O169 Mn144 2.209 . S
O169 Mn145 2.215 . S
O169 C146 1.283 . S
O170 Mn144 2.094 . S
O170 C148 1.240 . S
O171 Mn145 2.117 . S
O171 C148 1.264 . S
C172 C165 1.403 . S
C172 C173 1.399 . S
C172 H178 0.929 . S
C173 C153 1.449 . S
C173 C172 1.399 . S
C173 H179 0.930 . S
H174 C154 0.931 . S
H175 C155 0.930 . S
H176 C163 0.931 1_545 S
H177 C164 0.929 . S
H178 C172 0.929 . S
H179 C173 0.930 . S
Mn180 O185 2.095 . S
Mn180 O195 2.162 . S
Mn180 O196 2.297 . S
Mn180 O204 2.385 . S
Mn180 O205 2.209 . S
Mn180 O206 2.094 . S
Mn181 O186 2.121 . S
Mn181 N188 2.257 . S
Mn181 N197 2.282 . S
Mn181 O205 2.215 . S
Mn181 O207 2.117 . S
C182 O204 1.234 . S
C182 O205 1.283 . S
C183 O195 1.281 1_565 S
C183 O196 1.236 1_565 S
C184 O206 1.240 . S
C184 O207 1.264 . S
O185 Mn180 2.095 . S
O185 C194 1.250 . S
O186 Mn181 2.121 . S
O186 C194 1.258 . S
C187 N188 1.326 . S
C187 C191 1.460 . S
C187 H193 0.929 . S
N188 Mn181 2.257 . S
N188 C187 1.326 . S
N188 C192 1.362 . S
C189 C190 1.258 . S
C189 C192 1.431 . S
C189 C209 1.449 . S
C190 C189 1.258 . S
C190 C191 1.477 . S
C190 H210 0.931 . S
C191 C187 1.460 . S
C191 C190 1.477 . S
C191 H211 0.930 . S
C192 N188 1.362 . S
C192 C189 1.431 . S
C192 C202 1.476 . S
H193 C187 0.929 . S
C194 O185 1.250 . S
C194 O186 1.258 . S
O195 Mn180 2.162 . S
O195 C183 1.281 1_545 S
O196 Mn180 2.297 . S
O196 C183 1.236 1_545 S
N197 Mn181 2.282 . S
N197 C198 1.328 . S
N197 C202 1.318 . S
C198 N197 1.328 . S
C198 C199 1.457 . S
C198 H203 0.929 . S
C199 C198 1.457 . S
C199 C200 1.291 . S
C199 H212 0.931 1_556 S
C200 C199 1.291 . S
C200 C201 1.373 . S
C200 H213 0.929 . S
C201 C200 1.373 . S
C201 C202 1.396 . S
C201 C208 1.403 . S
C202 C192 1.476 . S
C202 N197 1.318 . S
C202 C201 1.396 . S
H203 C198 0.929 . S
O204 Mn180 2.385 . S
O204 C182 1.234 . S
O205 Mn180 2.209 . S
O205 Mn181 2.215 . S
O205 C182 1.283 . S
O206 Mn180 2.094 . S
O206 C184 1.240 . S
O207 Mn181 2.117 . S
O207 C184 1.264 . S
C208 C201 1.403 . S
C208 C209 1.399 . S
C208 H214 0.929 . S
C209 C189 1.449 . S
C209 C208 1.399 . S
C209 H215 0.930 . S
H210 C190 0.931 . S
H211 C191 0.930 . S
H212 C199 0.931 1_554 S
H213 C200 0.929 . S
H214 C208 0.929 . S
H215 C209 0.930 . S
Mn216 O221 2.095 . S
Mn216 O231 2.162 . S
Mn216 O232 2.297 . S
Mn216 O240 2.385 . S
Mn216 O241 2.209 . S
Mn216 O242 2.094 . S
Mn217 O222 2.121 . S
Mn217 N224 2.257 . S
Mn217 N233 2.282 . S
Mn217 O241 2.215 . S
Mn217 O243 2.117 . S
C218 O240 1.234 . S
C218 O241 1.283 . S
C219 O231 1.281 . S
C219 O232 1.236 . S
C220 O242 1.240 . S
C220 O243 1.264 . S
O221 Mn216 2.095 . S
O221 C230 1.250 . S
O222 Mn217 2.121 . S
O222 C230 1.258 . S
C223 N224 1.326 . S
C223 C227 1.460 1_565 S
C223 H229 0.929 . S
N224 Mn217 2.257 . S
N224 C223 1.326 . S
N224 C228 1.362 1_565 S
C225 C226 1.258 . S
C225 C228 1.431 . S
C225 C245 1.449 . S
C226 C225 1.258 . S
C226 C227 1.477 . S
C226 H246 0.931 . S
C227 C223 1.460 1_545 S
C227 C226 1.477 . S
C227 H247 0.930 . S
C228 N224 1.362 1_545 S
C228 C225 1.431 . S
C228 C238 1.476 . S
H229 C223 0.929 . S
C230 O221 1.250 . S
C230 O222 1.258 . S
O231 Mn216 2.162 . S
O231 C219 1.281 . S
O232 Mn216 2.297 . S
O232 C219 1.236 . S
N233 Mn217 2.282 . S
N233 C234 1.328 . S
N233 C238 1.318 1_565 S
C234 N233 1.328 . S
C234 C235 1.457 1_565 S
C234 H239 0.929 . S
C235 C234 1.457 1_545 S
C235 C236 1.291 . S
C235 H248 0.931 1_545 S
C236 C235 1.291 . S
C236 C237 1.373 . S
C236 H249 0.929 . S
C237 C236 1.373 . S
C237 C238 1.396 . S
C237 C244 1.403 . S
C238 C228 1.476 . S
C238 N233 1.318 1_545 S
C238 C237 1.396 . S
H239 C234 0.929 . S
O240 Mn216 2.385 . S
O240 C218 1.234 . S
O241 Mn216 2.209 . S
O241 Mn217 2.215 . S
O241 C218 1.283 . S
O242 Mn216 2.094 . S
O242 C220 1.240 . S
O243 Mn217 2.117 . S
O243 C220 1.264 . S
C244 C237 1.403 . S
C244 C245 1.399 . S
C244 H250 0.929 . S
C245 C225 1.449 . S
C245 C244 1.399 . S
C245 H251 0.930 . S
H246 C226 0.931 . S
H247 C227 0.930 . S
H248 C235 0.931 1_565 S
H249 C236 0.929 . S
H250 C244 0.929 . S
H251 C245 0.930 . S
Mn252 O257 2.095 . S
Mn252 O267 2.162 . S
Mn252 O268 2.297 . S
Mn252 O276 2.385 . S
Mn252 O277 2.209 . S
Mn252 O278 2.094 . S
Mn253 O258 2.121 . S
Mn253 N260 2.257 . S
Mn253 N269 2.282 . S
Mn253 O277 2.215 . S
Mn253 O279 2.117 . S
C254 O276 1.234 . S
C254 O277 1.283 . S
C255 O267 1.281 1_545 S
C255 O268 1.236 1_545 S
C256 O278 1.240 . S
C256 O279 1.264 . S
O257 Mn252 2.095 . S
O257 C266 1.250 . S
O258 Mn253 2.121 . S
O258 C266 1.258 . S
C259 N260 1.326 . S
C259 C263 1.460 . S
C259 H265 0.929 . S
N260 Mn253 2.257 . S
N260 C259 1.326 . S
N260 C264 1.362 . S
C261 C262 1.258 . S
C261 C264 1.431 . S
C261 C281 1.449 . S
C262 C261 1.258 . S
C262 C263 1.477 . S
C262 H282 0.931 . S
C263 C259 1.460 . S
C263 C262 1.477 . S
C263 H283 0.930 . S
C264 N260 1.362 . S
C264 C261 1.431 . S
C264 C274 1.476 . S
H265 C259 0.929 . S
C266 O257 1.250 . S
C266 O258 1.258 . S
O267 Mn252 2.162 . S
O267 C255 1.281 1_565 S
O268 Mn252 2.297 . S
O268 C255 1.236 1_565 S
N269 Mn253 2.282 . S
N269 C270 1.328 . S
N269 C274 1.318 . S
C270 N269 1.328 . S
C270 C271 1.457 . S
C270 H275 0.929 . S
C271 C270 1.457 . S
C271 C272 1.291 . S
C271 H284 0.931 1_556 S
C272 C271 1.291 . S
C272 C273 1.373 . S
C272 H285 0.929 . S
C273 C272 1.373 . S
C273 C274 1.396 . S
C273 C280 1.403 . S
C274 C264 1.476 . S
C274 N269 1.318 . S
C274 C273 1.396 . S
H275 C270 0.929 . S
O276 Mn252 2.385 . S
O276 C254 1.234 . S
O277 Mn252 2.209 . S
O277 Mn253 2.215 . S
O277 C254 1.283 . S
O278 Mn252 2.094 . S
O278 C256 1.240 . S
O279 Mn253 2.117 . S
O279 C256 1.264 . S
C280 C273 1.403 . S
C280 C281 1.399 . S
C280 H286 0.929 . S
C281 C261 1.449 . S
C281 C280 1.399 . S
C281 H287 0.930 . S
H282 C262 0.931 . S
H283 C263 0.930 . S
H284 C271 0.931 1_554 S
H285 C272 0.929 . S
H286 C280 0.929 . S
H287 C281 0.930 . S
C288 C289 1.363 . S
C288 C294 1.379 1_554 S
C288 N296 1.356 . S
C289 C288 1.363 . S
C289 C295 1.363 . S
C290 C291 1.363 . S
C290 C295 1.379 1_556 S
C290 N297 1.356 . S
C291 C290 1.363 . S
C291 C294 1.363 . S
N292 C294 1.356 . S
N292 H304 0.984 . S
N292 H305 0.985 . S
N293 C295 1.356 . S
N293 H298 0.984 . S
N293 H299 0.985 . S
C294 C288 1.379 1_556 S
C294 C291 1.363 . S
C294 N292 1.356 . S
C295 C289 1.363 . S
C295 C290 1.379 1_554 S
C295 N293 1.356 . S
N296 C288 1.356 . S
N296 H302 0.984 . S
N296 H303 0.984 . S
N297 C290 1.356 . S
N297 H300 0.984 . S
N297 H301 0.985 . S
H298 N293 0.984 . S
H299 N293 0.985 . S
H300 N297 0.984 . S
H301 N297 0.985 . S
H302 N296 0.984 . S
H303 N296 0.984 . S
H304 N292 0.984 . S
H305 N292 0.985 . S
C306 C307 1.363 . S
C306 C312 1.379 . S
C306 N314 1.356 . S
C307 C306 1.363 . S
C307 C313 1.363 . S
C308 C309 1.363 . S
C308 C313 1.379 . S
C308 N315 1.356 . S
C309 C308 1.363 . S
C309 C312 1.363 . S
N310 C312 1.356 . S
N310 H322 0.984 . S
N310 H323 0.985 . S
N311 C313 1.356 . S
N311 H316 0.984 . S
N311 H317 0.985 . S
C312 C306 1.379 . S
C312 C309 1.363 . S
C312 N310 1.356 . S
C313 C307 1.363 . S
C313 C308 1.379 . S
C313 N311 1.356 . S
N314 C306 1.356 . S
N314 H320 0.984 . S
N314 H321 0.984 . S
N315 C308 1.356 . S
N315 H318 0.984 . S
N315 H319 0.985 . S
H316 N311 0.984 . S
H317 N311 0.985 . S
H318 N315 0.984 . S
H319 N315 0.985 . S
H320 N314 0.984 . S
H321 N314 0.984 . S
H322 N310 0.984 . S
H323 N310 0.985 . S
C324 C325 1.363 . S
C324 C330 1.379 1_554 S
C324 N332 1.356 . S
C325 C324 1.363 . S
C325 C331 1.363 . S
C326 C327 1.363 . S
C326 C331 1.379 1_556 S
C326 N333 1.356 . S
C327 C326 1.363 . S
C327 C330 1.363 . S
N328 C330 1.356 . S
N328 H340 0.984 . S
N328 H341 0.985 . S
N329 C331 1.356 . S
N329 H334 0.984 . S
N329 H335 0.985 . S
C330 C324 1.379 1_556 S
C330 C327 1.363 . S
C330 N328 1.356 . S
C331 C325 1.363 . S
C331 C326 1.379 1_554 S
C331 N329 1.356 . S
N332 C324 1.356 . S
N332 H338 0.984 . S
N332 H339 0.984 . S
N333 C326 1.356 . S
N333 H336 0.984 . S
N333 H337 0.985 . S
H334 N329 0.984 . S
H335 N329 0.985 . S
H336 N333 0.984 . S
H337 N333 0.985 . S
H338 N332 0.984 . S
H339 N332 0.984 . S
H340 N328 0.984 . S
H341 N328 0.985 . S
C342 C343 1.363 . S
C342 C348 1.379 . S
C342 N350 1.356 . S
C343 C342 1.363 . S
C343 C349 1.363 . S
C344 C345 1.363 . S
C344 C349 1.379 . S
C344 N351 1.356 . S
C345 C344 1.363 . S
C345 C348 1.363 . S
N346 C348 1.356 . S
N346 H358 0.984 . S
N346 H359 0.985 . S
N347 C349 1.356 . S
N347 H352 0.984 . S
N347 H353 0.985 . S
C348 C342 1.379 . S
C348 C345 1.363 . S
C348 N346 1.356 . S
C349 C343 1.363 . S
C349 C344 1.379 . S
C349 N347 1.356 . S
N350 C342 1.356 . S
N350 H356 0.984 . S
N350 H357 0.984 . S
N351 C344 1.356 . S
N351 H354 0.984 . S
N351 H355 0.985 . S
H352 N347 0.984 . S
H353 N347 0.985 . S
H354 N351 0.984 . S
H355 N351 0.985 . S
H356 N350 0.984 . S
H357 N350 0.984 . S
H358 N346 0.984 . S
H359 N346 0.985 . S
C360 C361 1.363 . S
C360 C366 1.379 . S
C360 N368 1.356 . S
C361 C360 1.363 . S
C361 C367 1.363 . S
C362 C363 1.363 . S
C362 C367 1.379 . S
C362 N369 1.356 . S
C363 C362 1.363 . S
C363 C366 1.363 . S
N364 C366 1.356 . S
N364 H376 0.984 . S
N364 H377 0.985 . S
N365 C367 1.356 . S
N365 H370 0.984 . S
N365 H371 0.985 . S
C366 C360 1.379 . S
C366 C363 1.363 . S
C366 N364 1.356 . S
C367 C361 1.363 . S
C367 C362 1.379 . S
C367 N365 1.356 . S
N368 C360 1.356 . S
N368 H374 0.984 . S
N368 H375 0.984 . S
N369 C362 1.356 . S
N369 H372 0.984 . S
N369 H373 0.985 . S
H370 N365 0.984 . S
H371 N365 0.985 . S
H372 N369 0.984 . S
H373 N369 0.985 . S
H374 N368 0.984 . S
H375 N368 0.984 . S
H376 N364 0.984 . S
H377 N364 0.985 . S
C378 C379 1.363 . S
C378 C384 1.379 . S
C378 N386 1.356 . S
C379 C378 1.363 . S
C379 C385 1.363 . S
C380 C381 1.363 . S
C380 C385 1.379 . S
C380 N387 1.356 . S
C381 C380 1.363 . S
C381 C384 1.363 . S
N382 C384 1.356 . S
N382 H394 0.984 . S
N382 H395 0.985 . S
N383 C385 1.356 . S
N383 H388 0.984 . S
N383 H389 0.985 . S
C384 C378 1.379 . S
C384 C381 1.363 . S
C384 N382 1.356 . S
C385 C379 1.363 . S
C385 C380 1.379 . S
C385 N383 1.356 . S
N386 C378 1.356 . S
N386 H392 0.984 . S
N386 H393 0.984 . S
N387 C380 1.356 . S
N387 H390 0.984 1_565 S
N387 H391 0.986 . S
H388 N383 0.984 . S
H389 N383 0.985 . S
H390 N387 0.984 1_545 S
H391 N387 0.986 . S
H392 N386 0.984 . S
H393 N386 0.984 . S
H394 N382 0.984 . S
H395 N382 0.985 . S
C396 C397 1.363 . S
C396 C402 1.379 . S
C396 N404 1.356 . S
C397 C396 1.363 . S
C397 C403 1.363 . S
C398 C399 1.363 . S
C398 C403 1.379 . S
C398 N405 1.356 . S
C399 C398 1.363 . S
C399 C402 1.363 . S
N400 C402 1.356 . S
N400 H412 0.984 . S
N400 H413 0.985 . S
N401 C403 1.356 . S
N401 H406 0.984 . S
N401 H407 0.985 . S
C402 C396 1.379 . S
C402 C399 1.363 . S
C402 N400 1.356 . S
C403 C397 1.363 . S
C403 C398 1.379 . S
C403 N401 1.356 . S
N404 C396 1.356 . S
N404 H410 0.984 . S
N404 H411 0.984 . S
N405 C398 1.356 . S
N405 H408 0.984 . S
N405 H409 0.985 . S
H406 N401 0.984 . S
H407 N401 0.985 . S
H408 N405 0.984 . S
H409 N405 0.985 . S
H410 N404 0.984 . S
H411 N404 0.984 . S
H412 N400 0.984 . S
H413 N400 0.985 . S
C414 C415 1.363 . S
C414 C420 1.379 . S
C414 N422 1.356 . S
C415 C414 1.363 . S
C415 C421 1.363 . S
C416 C417 1.363 . S
C416 C421 1.379 . S
C416 N423 1.356 . S
C417 C416 1.363 . S
C417 C420 1.363 . S
N418 C420 1.356 . S
N418 H430 0.984 1_545 S
N418 H431 0.985 1_545 S
N419 C421 1.356 . S
N419 H424 0.984 . S
N419 H425 0.985 . S
C420 C414 1.379 . S
C420 C417 1.363 . S
C420 N418 1.356 . S
C421 C415 1.363 . S
C421 C416 1.379 . S
C421 N419 1.356 . S
N422 C414 1.356 . S
N422 H428 0.984 . S
N422 H429 0.984 . S
N423 C416 1.356 . S
N423 H426 0.984 . S
N423 H427 0.985 . S
H424 N419 0.984 . S
H425 N419 0.985 . S
H426 N423 0.984 . S
H427 N423 0.985 . S
H428 N422 0.984 . S
H429 N422 0.984 . S
H430 N418 0.984 1_565 S
H431 N418 0.985 1_565 S
C432 C433 1.363 . S
C432 C438 1.379 . S
C432 N440 1.356 . S
C433 C432 1.363 . S
C433 C439 1.363 . S
C434 C435 1.363 . S
C434 C439 1.379 . S
C434 N441 1.356 . S
C435 C434 1.363 . S
C435 C438 1.363 . S
N436 C438 1.356 . S
N436 H448 0.984 . S
N436 H449 0.985 1_655 S
N437 C439 1.356 . S
N437 H442 0.984 . S
N437 H443 0.985 . S
C438 C432 1.379 . S
C438 C435 1.363 . S
C438 N436 1.356 . S
C439 C433 1.363 . S
C439 C434 1.379 . S
C439 N437 1.356 . S
N440 C432 1.356 . S
N440 H446 0.984 . S
N440 H447 0.984 . S
N441 C434 1.356 . S
N441 H444 0.984 . S
N441 H445 0.985 . S
H442 N437 0.984 . S
H443 N437 0.985 . S
H444 N441 0.984 . S
H445 N441 0.985 . S
H446 N440 0.984 . S
H447 N440 0.984 . S
H448 N436 0.984 . S
H449 N436 0.985 1_455 S
C450 C451 1.363 . S
C450 C456 1.379 . S
C450 N458 1.356 . S
C451 C450 1.363 . S
C451 C457 1.363 . S
C452 C453 1.363 . S
C452 C457 1.379 . S
C452 N459 1.356 . S
C453 C452 1.363 . S
C453 C456 1.363 . S
N454 C456 1.356 . S
N454 H466 0.984 . S
N454 H467 0.985 . S
N455 C457 1.356 . S
N455 H460 0.984 . S
N455 H461 0.985 . S
C456 C450 1.379 . S
C456 C453 1.363 . S
C456 N454 1.356 . S
C457 C451 1.363 . S
C457 C452 1.379 . S
C457 N455 1.356 . S
N458 C450 1.356 . S
N458 H464 0.984 . S
N458 H465 0.984 . S
N459 C452 1.356 . S
N459 H462 0.984 . S
N459 H463 0.985 . S
H460 N455 0.984 . S
H461 N455 0.985 . S
H462 N459 0.984 . S
H463 N459 0.985 . S
H464 N458 0.984 . S
H465 N458 0.984 . S
H466 N454 0.984 . S
H467 N454 0.985 . S
C468 C469 1.363 . S
C468 C474 1.379 . S
C468 N476 1.356 . S
C469 C468 1.363 . S
C469 C475 1.363 . S
C470 C471 1.363 . S
C470 C475 1.379 . S
C470 N477 1.356 . S
C471 C470 1.363 . S
C471 C474 1.363 . S
N472 C474 1.356 . S
N472 H484 0.984 . S
N472 H485 0.985 . S
N473 C475 1.356 . S
N473 H478 0.984 . S
N473 H479 0.985 . S
C474 C468 1.379 . S
C474 C471 1.363 . S
C474 N472 1.356 . S
C475 C469 1.363 . S
C475 C470 1.379 . S
C475 N473 1.356 . S
N476 C468 1.356 . S
N476 H482 0.984 . S
N476 H483 0.984 . S
N477 C470 1.356 . S
N477 H480 0.984 1_455 S
N477 H481 0.985 . S
H478 N473 0.984 . S
H479 N473 0.985 . S
H480 N477 0.984 1_655 S
H481 N477 0.985 . S
H482 N476 0.984 . S
H483 N476 0.984 . S
H484 N472 0.984 . S
H485 N472 0.985 . S
C486 C487 1.363 . S
C486 C492 1.379 . S
C486 N494 1.356 . S
C487 C486 1.363 . S
C487 C493 1.363 . S
C488 C489 1.363 . S
C488 C493 1.379 . S
C488 N495 1.356 . S
C489 C488 1.363 . S
C489 C492 1.363 . S
N490 C492 1.356 . S
N490 H502 0.984 . S
N490 H503 0.985 . S
N491 C493 1.356 . S
N491 H496 0.984 . S
N491 H497 0.985 . S
C492 C486 1.379 . S
C492 C489 1.363 . S
C492 N490 1.356 . S
C493 C487 1.363 . S
C493 C488 1.379 . S
C493 N491 1.356 . S
N494 C486 1.356 . S
N494 H500 0.984 . S
N494 H501 0.984 . S
N495 C488 1.356 . S
N495 H498 0.984 . S
N495 H499 0.985 . S
H496 N491 0.984 . S
H497 N491 0.985 . S
H498 N495 0.984 . S
H499 N495 0.985 . S
H500 N494 0.984 . S
H501 N494 0.984 . S
H502 N490 0.984 . S
H503 N490 0.985 . S
C504 C505 1.363 . S
C504 C510 1.379 . S
C504 N512 1.356 . S
C505 C504 1.363 . S
C505 C511 1.363 1_655 S
C506 C507 1.363 . S
C506 C511 1.379 . S
C506 N513 1.356 . S
C507 C506 1.363 . S
C507 C510 1.363 1_455 S
N508 C510 1.356 1_455 S
N508 H520 0.984 1_455 S
N508 H521 0.985 . S
N509 C511 1.356 1_655 S
N509 H514 0.984 . S
N509 H515 0.985 1_655 S
C510 C504 1.379 . S
C510 C507 1.363 1_655 S
C510 N508 1.356 1_655 S
C511 C505 1.363 1_455 S
C511 C506 1.379 . S
C511 N509 1.356 1_455 S
N512 C504 1.356 . S
N512 H518 0.984 . S
N512 H519 0.984 . S
N513 C506 1.356 . S
N513 H516 0.984 . S
N513 H517 0.985 . S
H514 N509 0.984 . S
H515 N509 0.985 1_455 S
H516 N513 0.984 . S
H517 N513 0.985 . S
H518 N512 0.984 . S
H519 N512 0.984 . S
H520 N508 0.984 1_655 S
H521 N508 0.985 . S
C522 C523 1.363 . S
C522 C528 1.379 1_655 S
C522 N530 1.356 . S
C523 C522 1.363 . S
C523 C529 1.363 . S
C524 C525 1.363 . S
C524 C529 1.379 1_455 S
C524 N531 1.356 . S
C525 C524 1.363 . S
C525 C528 1.363 . S
N526 C528 1.356 . S
N526 H538 0.984 . S
N526 H539 0.985 . S
N527 C529 1.356 . S
N527 H532 0.984 . S
N527 H533 0.985 . S
C528 C522 1.379 1_455 S
C528 C525 1.363 . S
C528 N526 1.356 . S
C529 C523 1.363 . S
C529 C524 1.379 1_655 S
C529 N527 1.356 . S
N530 C522 1.356 . S
N530 H536 0.980 1_655 S
N530 H537 0.984 . S
N531 C524 1.356 . S
N531 H534 0.984 . S
N531 H535 0.980 1_455 S
H532 N527 0.984 . S
H533 N527 0.985 . S
H534 N531 0.984 . S
H535 N531 0.980 1_655 S
H536 N530 0.980 1_455 S
H537 N530 0.984 . S
H538 N526 0.984 . S
H539 N526 0.985 . S
C540 C541 1.363 . S
C540 C546 1.379 1_545 S
C540 N548 1.356 . S
C541 C540 1.363 . S
C541 C547 1.363 . S
C542 C543 1.363 . S
C542 C547 1.379 1_565 S
C542 N549 1.356 . S
C543 C542 1.363 . S
C543 C546 1.363 . S
N544 C546 1.356 . S
N544 H556 0.980 1_565 S
N544 H557 0.985 . S
N545 C547 1.356 . S
N545 H550 0.984 . S
N545 H551 0.980 1_545 S
C546 C540 1.379 1_565 S
C546 C543 1.363 . S
C546 N544 1.356 . S
C547 C541 1.363 . S
C547 C542 1.379 1_545 S
C547 N545 1.356 . S
N548 C540 1.356 . S
N548 H554 0.984 . S
N548 H555 0.984 . S
N549 C542 1.356 . S
N549 H552 0.984 . S
N549 H553 0.985 . S
H550 N545 0.984 . S
H551 N545 0.980 1_565 S
H552 N549 0.984 . S
H553 N549 0.985 . S
H554 N548 0.984 . S
H555 N548 0.984 . S
H556 N544 0.980 1_545 S
H557 N544 0.985 . S
C558 C559 1.363 . S
C558 C564 1.379 . S
C558 N566 1.356 . S
C559 C558 1.363 . S
C559 C565 1.363 1_545 S
C560 C561 1.363 . S
C560 C565 1.379 . S
C560 N567 1.356 . S
C561 C560 1.363 . S
C561 C564 1.363 1_565 S
N562 C564 1.356 1_565 S
N562 H574 0.984 1_565 S
N562 H575 0.985 . S
N563 C565 1.356 1_545 S
N563 H568 0.984 . S
N563 H569 0.985 1_545 S
C564 C558 1.379 . S
C564 C561 1.363 1_545 S
C564 N562 1.356 1_545 S
C565 C559 1.363 1_565 S
C565 C560 1.379 . S
C565 N563 1.356 1_565 S
N566 C558 1.356 . S
N566 H572 0.984 . S
N566 H573 0.984 . S
N567 C560 1.356 . S
N567 H570 0.984 . S
N567 H571 0.985 . S
H568 N563 0.984 . S
H569 N563 0.985 1_565 S
H570 N567 0.984 . S
H571 N567 0.985 . S
H572 N566 0.984 . S
H573 N566 0.984 . S
H574 N562 0.984 1_545 S
H575 N562 0.985 . S
C289 C4 1.397 . S
C291 C184 1.397 . S
C307 C40 1.397 . S
C309 C220 1.397 . S
C325 C76 1.397 . S
C327 C256 1.397 . S
C343 C148 1.397 . S
C345 C112 1.397 . S
C361 C14 1.555 . S
C363 C147 1.629 . S
C379 C50 1.555 . S
C381 C183 1.629 . S
C397 C219 1.629 . S
C399 C86 1.555 . S
C415 C122 1.555 . S
C417 C255 1.629 . S
C433 C158 1.555 . S
C435 C3 1.629 . S
C451 C39 1.629 . S
C453 C194 1.555 . S
C469 C230 1.555 . S
C471 C75 1.629 . S
C487 C111 1.629 . S
C489 C266 1.555 . S
C505 C74 0.811 . S
C507 C2 0.811 . S
C523 C110 0.811 . S
C525 C38 0.811 . S
C541 C146 0.811 . S
C543 C218 0.811 . S
C559 C182 0.811 . S
C561 C254 0.811 . S
