# Generated by pormake.
# Topology vby, (6)-cn, num edge types: 1
# Building blocks:
#     Node 0, Type 0, BuildingBlock: MIFKUJ_clean_sbu_0, # of connection points: 6
#     Node 1, Type 0, BuildingBlock: MIFKUJ_clean_sbu_0, # of connection points: 6
#     Node 2, Type 0, BuildingBlock: MIFKUJ_clean_sbu_0, # of connection points: 6
#     Node 3, Type 0, BuildingBlock: MIFKUJ_clean_sbu_0, # of connection points: 6
#     Node 4, Type 0, BuildingBlock: MIFKUJ_clean_sbu_0, # of connection points: 6
#     Node 5, Type 0, BuildingBlock: MIFKUJ_clean_sbu_0, # of connection points: 6
#     Node 6, Type 0, BuildingBlock: MIFKUJ_clean_sbu_0, # of connection points: 6
#     Node 7, Type 0, BuildingBlock: MIFKUJ_clean_sbu_0, # of connection points: 6
#     Edge 8, Type (0, 0), BuildingBlock: KIFKEQ_clean_linker_1, # of connection points: 2
#     Edge 9, Type (0, 0), BuildingBlock: KIFKEQ_clean_linker_1, # of connection points: 2
#     Edge 10, Type (0, 0), BuildingBlock: KIFKEQ_clean_linker_1, # of connection points: 2
#     Edge 11, Type (0, 0), BuildingBlock: KIFKEQ_clean_linker_1, # of connection points: 2
#     Edge 12, Type (0, 0), BuildingBlock: KIFKEQ_clean_linker_1, # of connection points: 2
#     Edge 13, Type (0, 0), BuildingBlock: KIFKEQ_clean_linker_1, # of connection points: 2
#     Edge 14, Type (0, 0), BuildingBlock: KIFKEQ_clean_linker_1, # of connection points: 2
#     Edge 15, Type (0, 0), BuildingBlock: KIFKEQ_clean_linker_1, # of connection points: 2
#     Edge 16, Type (0, 0), BuildingBlock: KIFKEQ_clean_linker_1, # of connection points: 2
#     Edge 17, Type (0, 0), BuildingBlock: KIFKEQ_clean_linker_1, # of connection points: 2
#     Edge 18, Type (0, 0), BuildingBlock: KIFKEQ_clean_linker_1, # of connection points: 2
#     Edge 19, Type (0, 0), BuildingBlock: KIFKEQ_clean_linker_1, # of connection points: 2
#     Edge 20, Type (0, 0), BuildingBlock: KIFKEQ_clean_linker_1, # of connection points: 2
#     Edge 21, Type (0, 0), BuildingBlock: KIFKEQ_clean_linker_1, # of connection points: 2
#     Edge 22, Type (0, 0), BuildingBlock: KIFKEQ_clean_linker_1, # of connection points: 2
#     Edge 23, Type (0, 0), BuildingBlock: KIFKEQ_clean_linker_1, # of connection points: 2
#     Edge 24, Type (0, 0), BuildingBlock: KIFKEQ_clean_linker_1, # of connection points: 2
#     Edge 25, Type (0, 0), BuildingBlock: KIFKEQ_clean_linker_1, # of connection points: 2
#     Edge 26, Type (0, 0), BuildingBlock: KIFKEQ_clean_linker_1, # of connection points: 2
#     Edge 27, Type (0, 0), BuildingBlock: KIFKEQ_clean_linker_1, # of connection points: 2
#     Edge 28, Type (0, 0), BuildingBlock: KIFKEQ_clean_linker_1, # of connection points: 2
#     Edge 29, Type (0, 0), BuildingBlock: KIFKEQ_clean_linker_1, # of connection points: 2
#     Edge 30, Type (0, 0), BuildingBlock: KIFKEQ_clean_linker_1, # of connection points: 2
#     Edge 31, Type (0, 0), BuildingBlock: KIFKEQ_clean_linker_1, # of connection points: 2
# Relax obj value: 0.108
# Max RMSD: 0.159
# Mean RMSD: 0.159
data_MOF--net-vby--node1-MIFKUJ_clean_sbu_0--edge1-KIFKEQ_clean_linker_1
_symmetry_space_group_name_H-M    P1
_symmetry_Int_Tables_number       1
_symmetry_cell_setting            triclinic
loop_
_symmetry_equiv_pos_as_xyz
'x, y, z'
_cell_length_a     17.914786
_cell_length_b     72.791698
_cell_length_c     28.18188
_cell_angle_alpha  90.085157
_cell_angle_beta   89.956912
_cell_angle_gamma 90.128223
loop_
_atom_site_label
_atom_site_type_symbol
_atom_site_fract_x
_atom_site_fract_y
_atom_site_fract_z
_atom_type_partial_charge
Zn0 Zn 0.16034 0.35398 0.00512 0.0
Zn1 Zn 1.00135 0.39645 0.97955 0.0
C2 C 0.31392 0.35568 0.98749 0.0
O3 O 0.29589 0.34091 0.96316 0.0
C4 C 0.84733 0.39887 0.99093 0.0
O5 O 0.87134 0.40937 0.02571 0.0
O6 O 0.16337 0.32713 0.02246 0.0
O7 O 0.09065 0.36875 0.04986 0.0
O8 O 0.00807 0.39161 0.04928 0.0
C9 C 0.20598 0.32078 0.05451 0.0
O10 O 0.24511 0.33225 0.08063 0.0
O11 O 0.2636 0.36404 0.01072 0.0
C12 C 0.99004 0.43266 0.93924 0.0
O13 O 0.93114 0.42529 0.91899 0.0
O14 O 0.03151 0.42268 0.96517 0.0
O15 O 0.06643 0.37744 0.95361 0.0
O16 O 0.13767 0.35498 0.93454 0.0
O17 O 0.89456 0.39171 0.96285 0.0
C18 C 0.04476 0.37932 0.07148 0.0
C19 C 0.09357 0.36748 0.92132 0.0
Zn20 Zn 0.85835 0.64896 0.9855 0.0
Zn21 Zn 0.00382 0.60788 0.96885 0.0
C22 C 0.70694 0.64501 0.95323 0.0
O23 O 0.72646 0.65977 0.92942 0.0
C24 C 0.15925 0.61195 0.9833 0.0
O25 O 0.13788 0.60358 0.02231 0.0
O26 O 0.83938 0.67606 0.99433 0.0
O27 O 0.9098 0.64017 0.04565 0.0
O28 O 0.98618 0.61631 0.03586 0.0
C29 C 0.79316 0.68198 0.02498 0.0
O30 O 0.75881 0.67016 0.05269 0.0
O31 O 0.75562 0.6371 0.979 0.0
C32 C 0.04564 0.57054 0.94391 0.0
O33 O 0.09853 0.57886 0.91977 0.0
O34 O 0.99914 0.58011 0.96745 0.0
O35 O 0.9275 0.61705 0.92256 0.0
O36 O 0.91645 0.64703 0.92421 0.0
O37 O 0.11011 0.61578 0.95216 0.0
C38 C 0.95416 0.62811 0.06225 0.0
C39 C 0.93671 0.63251 0.9028 0.0
Zn40 Zn 0.17796 0.65093 0.47888 0.0
Zn41 Zn 0.01984 0.60854 0.50691 0.0
C42 C 0.3293 0.64801 0.50211 0.0
O43 O 0.31215 0.66365 0.52273 0.0
C44 C 0.86454 0.60678 0.49445 0.0
O45 O 0.88748 0.59621 0.45955 0.0
O46 O 0.19376 0.6769 0.45528 0.0
O47 O 0.10968 0.63571 0.43338 0.0
O48 O 0.02895 0.61226 0.43691 0.0
C49 C 0.14833 0.68992 0.46341 0.0
O50 O 0.08506 0.68628 0.48509 0.0
O51 O 0.27903 0.63934 0.47947 0.0
C52 C 0.00246 0.57256 0.54825 0.0
O53 O 0.9424 0.58037 0.56573 0.0
O54 O 0.04799 0.58226 0.52415 0.0
O55 O 0.08415 0.62844 0.52907 0.0
O56 O 0.14753 0.65226 0.54843 0.0
O57 O 0.91256 0.61381 0.52229 0.0
C58 C 0.06423 0.62449 0.41331 0.0
C59 C 0.10432 0.63944 0.56119 0.0
Zn60 Zn 0.84684 0.35541 0.49988 0.0
Zn61 Zn 0.99798 0.39684 0.51629 0.0
C62 C 0.7013 0.36373 0.53849 0.0
O63 O 0.72384 0.35233 0.57161 0.0
C64 C 0.15428 0.39659 0.51131 0.0
O65 O 0.13533 0.4082 0.47776 0.0
O66 O 0.82487 0.3283 0.48958 0.0
O67 O 0.90353 0.36494 0.44191 0.0
O68 O 0.98533 0.38809 0.44872 0.0
C69 C 0.7682 0.3229 0.46612 0.0
O70 O 0.72467 0.33519 0.4463 0.0
O71 O 0.746 0.36792 0.50504 0.0
C72 C 0.03224 0.43402 0.54748 0.0
O73 O 0.07646 0.42531 0.57699 0.0
O74 O 0.99253 0.42476 0.51852 0.0
O75 O 0.91689 0.38669 0.55753 0.0
O76 O 0.90302 0.35695 0.56173 0.0
O77 O 0.10275 0.38906 0.53573 0.0
C78 C 0.9507 0.37614 0.42391 0.0
C79 C 0.92741 0.37179 0.57963 0.0
Zn80 Zn 0.67382 0.85509 0.00378 0.0
Zn81 Zn 0.52446 0.89537 0.98906 0.0
C82 C 0.8222 0.86008 0.96964 0.0
O83 O 0.80283 0.84513 0.94649 0.0
C84 C 0.36907 0.89268 0.9998 0.0
O85 O 0.38986 0.90153 0.03827 0.0
O86 O 0.69883 0.82838 0.01371 0.0
O87 O 0.62083 0.86366 0.06383 0.0
O88 O 0.53831 0.88639 0.05594 0.0
C89 C 0.64945 0.81606 0.01992 0.0
O90 O 0.57874 0.82079 0.02085 0.0
O91 O 0.77402 0.86788 0.9961 0.0
C92 C 0.48786 0.93266 0.96312 0.0
O93 O 0.4396 0.92434 0.93532 0.0
O94 O 0.53057 0.92308 0.98923 0.0
O95 O 0.60332 0.88603 0.94491 0.0
O96 O 0.61462 0.85617 0.9429 0.0
O97 O 0.41898 0.88796 0.96996 0.0
C98 C 0.57314 0.87477 0.08131 0.0
C99 C 0.59254 0.87093 0.92364 0.0
Zn100 Zn 0.32849 0.14871 0.00766 0.0
Zn101 Zn 0.47593 0.10835 0.9894 0.0
C102 C 0.1799 0.14376 0.97351 0.0
O103 O 0.19936 0.15877 0.95074 0.0
C104 C 0.63159 0.11177 0.00248 0.0
O105 O 0.61025 0.10325 0.04129 0.0
O106 O 0.30218 0.1752 0.02 0.0
O107 O 0.38194 0.13982 0.06713 0.0
O108 O 0.46056 0.11643 0.05688 0.0
C109 C 0.34924 0.1872 0.03347 0.0
O110 O 0.41921 0.18239 0.03963 0.0
O111 O 0.22817 0.13586 0.99963 0.0
C112 C 0.51604 0.07103 0.964 0.0
O113 O 0.56882 0.0793 0.93967 0.0
O114 O 0.46963 0.08062 0.98749 0.0
O115 O 0.39815 0.11827 0.94531 0.0
O116 O 0.3874 0.14819 0.94636 0.0
O117 O 0.5822 0.116 0.97185 0.0
C118 C 0.42785 0.12805 0.08346 0.0
C119 C 0.4088 0.13366 0.92547 0.0
Zn120 Zn 0.64997 0.15036 0.50034 0.0
Zn121 Zn 0.4905 0.10795 0.52824 0.0
C122 C 0.79605 0.1426 0.53339 0.0
O123 O 0.77368 0.15367 0.56736 0.0
C124 C 0.33436 0.10388 0.52117 0.0
O125 O 0.35608 0.0913 0.49069 0.0
O126 O 0.6646 0.17646 0.4774 0.0
O127 O 0.58092 0.13514 0.45531 0.0
O128 O 0.49919 0.11189 0.45822 0.0
C129 C 0.61938 0.18933 0.48746 0.0
O130 O 0.55773 0.18538 0.51061 0.0
O131 O 0.75175 0.13885 0.49949 0.0
C132 C 0.47788 0.07203 0.57195 0.0
O133 O 0.41992 0.07977 0.5923 0.0
O134 O 0.51973 0.08172 0.54524 0.0
O135 O 0.55398 0.12789 0.55143 0.0
O136 O 0.61916 0.15154 0.56991 0.0
O137 O 0.38337 0.11295 0.54391 0.0
C138 C 0.53518 0.12408 0.43489 0.0
C139 C 0.57559 0.13888 0.5832 0.0
Zn140 Zn 0.35649 0.85509 0.49768 0.0
Zn141 Zn 0.51612 0.89785 0.5251 0.0
C142 C 0.20487 0.85803 0.52002 0.0
O143 O 0.22292 0.84322 0.54398 0.0
C144 C 0.67057 0.89978 0.51279 0.0
O145 O 0.64715 0.91024 0.47791 0.0
O146 O 0.34806 0.82845 0.47675 0.0
O147 O 0.42669 0.87028 0.45413 0.0
O148 O 0.50862 0.89339 0.455 0.0
C149 C 0.29826 0.82316 0.44754 0.0
O150 O 0.25578 0.83551 0.42704 0.0
O151 O 0.2545 0.86606 0.49537 0.0
C152 C 0.53268 0.93392 0.56692 0.0
O153 O 0.59193 0.92609 0.5853 0.0
O154 O 0.48842 0.92427 0.54166 0.0
O155 O 0.45153 0.87825 0.54967 0.0
O156 O 0.38303 0.85506 0.56775 0.0
O157 O 0.62297 0.89277 0.54093 0.0
C158 C 0.47241 0.88096 0.43266 0.0
C159 C 0.42679 0.86764 0.58139 0.0
H160 H 0.36425 0.38897 0.01874 0.0
H161 H 0.43778 0.33826 0.95412 0.0
H162 H 0.49151 0.40075 0.01595 0.0
H163 H 0.56545 0.34973 0.95292 0.0
H164 H 0.77612 0.38105 0.91846 0.0
H165 H 0.64545 0.37165 0.9154 0.0
H166 H 0.60888 0.3961 0.05338 0.0
H167 H 0.73833 0.40604 0.05558 0.0
C168 C 0.40774 0.38029 0.00428 0.0
C169 C 0.39114 0.36269 0.98672 0.0
C170 C 0.48071 0.38701 0.00281 0.0
C171 C 0.53872 0.37619 0.9842 0.0
C172 C 0.52193 0.35856 0.96669 0.0
C173 C 0.44884 0.35192 0.96774 0.0
C174 C 0.73986 0.38455 0.94788 0.0
C175 C 0.76743 0.39423 0.98729 0.0
C176 C 0.66517 0.37906 0.9463 0.0
C177 C 0.6168 0.38301 0.9843 0.0
C178 C 0.64424 0.39304 0.02321 0.0
C179 C 0.71863 0.39867 0.02458 0.0
H180 H 0.22862 0.62545 0.90333 0.0
H181 H 0.2719 0.60847 0.04746 0.0
H182 H 0.36146 0.63212 0.89264 0.0
H183 H 0.40332 0.61559 0.0374 0.0
H184 H 0.64622 0.61455 0.99595 0.0
H185 H 0.51487 0.60575 0.99984 0.0
H186 H 0.45663 0.65327 0.91602 0.0
H187 H 0.58784 0.66168 0.91088 0.0
C188 C 0.26633 0.62323 0.93278 0.0
C189 C 0.23949 0.61641 0.97621 0.0
C190 C 0.34253 0.62711 0.92675 0.0
C191 C 0.39361 0.62433 0.96409 0.0
C192 C 0.36632 0.61756 0.00749 0.0
C193 C 0.29051 0.61361 0.01339 0.0
C194 C 0.60544 0.62302 0.97799 0.0
C195 C 0.62774 0.63886 0.95325 0.0
C196 C 0.52991 0.61805 0.98048 0.0
C197 C 0.47463 0.62886 0.95856 0.0
C198 C 0.49735 0.64446 0.93288 0.0
C199 C 0.57284 0.64936 0.93017 0.0
H200 H 0.75273 0.59869 0.43243 0.0
H201 H 0.79567 0.62486 0.56747 0.0
H202 H 0.62258 0.60778 0.43724 0.0
H203 H 0.6644 0.63343 0.57314 0.0
H204 H 0.45289 0.66572 0.53528 0.0
H205 H 0.58074 0.65459 0.5364 0.0
H206 H 0.50724 0.60277 0.47739 0.0
H207 H 0.37952 0.61418 0.47473 0.0
C208 C 0.73411 0.60616 0.46351 0.0
C209 C 0.78454 0.61117 0.49943 0.0
C210 C 0.65927 0.61128 0.46642 0.0
C211 C 0.63297 0.62138 0.50553 0.0
C212 C 0.68309 0.62593 0.54214 0.0
C213 C 0.7582 0.62094 0.53903 0.0
C214 C 0.46397 0.65193 0.52269 0.0
C215 C 0.40625 0.64088 0.50459 0.0
C216 C 0.53725 0.64549 0.52368 0.0
C217 C 0.55436 0.62778 0.50696 0.0
C218 C 0.49621 0.61658 0.48982 0.0
C219 C 0.42297 0.62309 0.48847 0.0
H220 H 0.62774 0.38079 0.46594 0.0
H221 H 0.59596 0.36049 0.60845 0.0
H222 H 0.49628 0.38881 0.46179 0.0
H223 H 0.46465 0.36917 0.60511 0.0
H224 H 0.21619 0.36814 0.56186 0.0
H225 H 0.34871 0.36085 0.5702 0.0
H226 H 0.40539 0.40934 0.48933 0.0
H227 H 0.27373 0.4161 0.47951 0.0
C228 C 0.59293 0.37831 0.49672 0.0
C229 C 0.62252 0.37001 0.53753 0.0
C230 C 0.51733 0.38299 0.49446 0.0
C231 C 0.46929 0.37968 0.53315 0.0
C232 C 0.49937 0.37167 0.57432 0.0
C233 C 0.57494 0.36683 0.5764 0.0
C234 C 0.25713 0.37724 0.54606 0.0
C235 C 0.23436 0.39259 0.51965 0.0
C236 C 0.33322 0.37313 0.55102 0.0
C237 C 0.38824 0.3844 0.53008 0.0
C238 C 0.365 0.40006 0.50497 0.0
C239 C 0.28924 0.40402 0.49959 0.0
H240 H 0.94111 0.8433 0.92727 0.0
H241 H 0.88206 0.89117 0.00983 0.0
H242 H 0.07213 0.85188 0.93177 0.0
H243 H 0.01324 0.90015 0.01292 0.0
H244 H 0.30108 0.87886 0.91973 0.0
H245 H 0.16812 0.8726 0.90809 0.0
H246 H 0.12364 0.89056 0.0516 0.0
H247 H 0.25512 0.89731 0.06251 0.0
C248 C 0.95593 0.85584 0.94579 0.0
C249 C 0.90098 0.86647 0.96855 0.0
C250 C 0.0313 0.86083 0.94812 0.0
C251 C 0.05377 0.87665 0.97301 0.0
C252 C 0.99836 0.88766 0.99426 0.0
C253 C 0.92296 0.88259 0.99222 0.0
C254 C 0.26273 0.8815 0.94867 0.0
C255 C 0.2888 0.88859 0.99202 0.0
C256 C 0.18649 0.87786 0.9421 0.0
C257 C 0.13469 0.88113 0.97883 0.0
C258 C 0.16123 0.88822 0.02211 0.0
C259 C 0.23705 0.89195 0.02852 0.0
H260 H 0.11874 0.11305 0.01482 0.0
H261 H 0.06172 0.16035 0.93002 0.0
H262 H 0.98728 0.10428 0.01786 0.0
H263 H 0.93046 0.15199 0.93438 0.0
H264 H 0.70104 0.12507 0.92229 0.0
H265 H 0.83425 0.1312 0.91113 0.0
H266 H 0.87632 0.11428 0.05558 0.0
H267 H 0.7446 0.10768 0.06607 0.0
C268 C 0.07826 0.12154 0.99669 0.0
C269 C 0.10092 0.13745 0.97241 0.0
C270 C 0.00266 0.1166 0.9987 0.0
C271 C 0.94771 0.12751 0.97677 0.0
C272 C 0.97089 0.14312 0.95128 0.0
C273 C 0.04642 0.14798 0.94903 0.0
C274 C 0.7389 0.12265 0.95155 0.0
C275 C 0.71203 0.11588 0.99504 0.0
C276 C 0.81531 0.12621 0.94526 0.0
C277 C 0.86654 0.12317 0.98238 0.0
C278 C 0.83921 0.11643 0.0258 0.0
C279 C 0.76322 0.11279 0.03197 0.0
H280 H 0.2722 0.13265 0.56907 0.0
H281 H 0.21567 0.08462 0.48611 0.0
H282 H 0.14084 0.14084 0.57354 0.0
H283 H 0.08383 0.09245 0.49199 0.0
H284 H 0.87004 0.12513 0.46152 0.0
H285 H 0.9992 0.11475 0.46115 0.0
H286 H 0.0235 0.13245 0.60685 0.0
H287 H 0.89528 0.14342 0.60658 0.0
C288 C 0.23158 0.1237 0.55236 0.0
C289 C 0.25429 0.10806 0.527 0.0
C290 C 0.15615 0.12833 0.55515 0.0
C291 C 0.10168 0.11733 0.533 0.0
C292 C 0.12439 0.1014 0.50873 0.0
C293 C 0.19992 0.09685 0.50561 0.0
C294 C 0.9029 0.12671 0.49352 0.0
C295 C 0.87272 0.13522 0.53395 0.0
C296 C 0.97683 0.12066 0.49344 0.0
C297 C 0.0219 0.12282 0.53394 0.0
C298 C 0.99085 0.13088 0.57477 0.0
C299 C 0.91721 0.13709 0.57469 0.0
H300 H 0.78047 0.90664 0.4485 0.0
H301 H 0.74086 0.88266 0.58648 0.0
H302 H 0.91031 0.89723 0.4523 0.0
H303 H 0.87187 0.87381 0.59114 0.0
H304 H 0.08156 0.84078 0.55501 0.0
H305 H 0.95369 0.85194 0.55552 0.0
H306 H 0.02673 0.90265 0.4904 0.0
H307 H 0.15431 0.89115 0.4883 0.0
C308 C 0.79982 0.8996 0.48 0.0
C309 C 0.75045 0.89529 0.51709 0.0
C310 C 0.87445 0.89429 0.4823 0.0
C311 C 0.90153 0.88472 0.52197 0.0
C312 C 0.85249 0.88088 0.5597 0.0
C313 C 0.77758 0.88604 0.55718 0.0
C314 C 0.07031 0.85432 0.5409 0.0
C315 C 0.12781 0.86506 0.52139 0.0
C316 C 0.99707 0.86079 0.54152 0.0
C317 C 0.97991 0.8782 0.52306 0.0
C318 C 0.03782 0.88905 0.50423 0.0
C319 C 0.11096 0.8825 0.50319 0.0
H320 H 0.14944 0.54591 0.91241 0.0
H321 H 0.92851 0.54931 0.97345 0.0
H322 H 0.13876 0.51243 0.9097 0.0
H323 H 0.91793 0.51587 0.97041 0.0
H324 H 0.89515 0.4585 0.90407 0.0
H325 H 0.91052 0.49177 0.9049 0.0
H326 H 0.12795 0.48573 0.96883 0.0
H327 H 0.11261 0.4523 0.96836 0.0
C328 C 0.09863 0.53952 0.92523 0.0
C329 C 0.03973 0.55026 0.94305 0.0
C330 C 0.09275 0.52037 0.92387 0.0
C331 C 0.02744 0.51159 0.93965 0.0
C332 C 0.96862 0.52231 0.95755 0.0
C333 C 0.97488 0.54144 0.95952 0.0
C334 C 0.94657 0.46421 0.91797 0.0
C335 C 0.00262 0.45274 0.93627 0.0
C336 C 0.95505 0.48328 0.91873 0.0
C337 C 0.02015 0.49131 0.93724 0.0
C338 C 0.07728 0.47987 0.95421 0.0
C339 C 0.0684 0.46076 0.95403 0.0
H340 H 0.92618 0.45637 0.50843 0.0
H341 H 0.13336 0.4577 0.58674 0.0
H342 H 0.92184 0.48995 0.51007 0.0
H343 H 0.12927 0.49128 0.58778 0.0
H344 H 0.12555 0.55167 0.5264 0.0
H345 H 0.13468 0.51806 0.52655 0.0
H346 H 0.9072 0.51424 0.57609 0.0
H347 H 0.89811 0.54762 0.57661 0.0
C348 C 0.97088 0.46382 0.52582 0.0
C349 C 0.02992 0.45437 0.54762 0.0
C350 C 0.96824 0.48302 0.52692 0.0
C351 C 0.02518 0.4932 0.54913 0.0
C352 C 0.08487 0.48378 0.57021 0.0
C353 C 0.08689 0.46456 0.56982 0.0
C354 C 0.07779 0.54365 0.53773 0.0
C355 C 0.01115 0.55234 0.55148 0.0
C356 C 0.08306 0.52443 0.53787 0.0
C357 C 0.02139 0.51356 0.55095 0.0
C358 C 0.95528 0.52227 0.5653 0.0
C359 C 0.95039 0.54141 0.56591 0.0
H360 H 0.38559 0.95697 0.92886 0.0
H361 H 0.59902 0.95421 0.99985 0.0
H362 H 0.39212 0.99049 0.93022 0.0
H363 H 0.60561 0.98777 0.00074 0.0
H364 H 0.62302 0.04663 0.93636 0.0
H365 H 0.6161 0.01312 0.93738 0.0
H366 H 0.39226 0.01601 0.99365 0.0
H367 H 0.39916 0.04957 0.99309 0.0
C368 C 0.43392 0.96351 0.94469 0.0
C369 C 0.49186 0.95295 0.96419 0.0
C370 C 0.43738 0.98269 0.94569 0.0
C371 C 0.49935 0.99168 0.96556 0.0
C372 C 0.55744 0.98115 0.98492 0.0
C373 C 0.55347 0.96197 0.98458 0.0
C374 C 0.5723 0.04013 0.94895 0.0
C375 C 0.51158 0.05074 0.96459 0.0
C376 C 0.56859 0.02096 0.94979 0.0
C377 C 0.50368 0.01201 0.9656 0.0
C378 C 0.44278 0.02259 0.981 0.0
C379 C 0.44689 0.04177 0.98086 0.0
H380 H 0.59821 0.05155 0.54314 0.0
H381 H 0.38054 0.04679 0.6082 0.0
H382 H 0.61051 0.01808 0.54437 0.0
H383 H 0.39283 0.01343 0.60905 0.0
H384 H 0.41042 0.95462 0.54286 0.0
H385 H 0.39822 0.98809 0.54674 0.0
H386 H 0.62066 0.99222 0.60456 0.0
H387 H 0.63287 0.9589 0.60109 0.0
C388 C 0.55329 0.0434 0.55799 0.0
C389 C 0.48848 0.05187 0.5756 0.0
C390 C 0.56039 0.02424 0.55879 0.0
C391 C 0.50242 0.01314 0.5766 0.0
C392 C 0.43805 0.02162 0.59466 0.0
C393 C 0.43137 0.04075 0.59447 0.0
C394 C 0.45645 0.96266 0.55673 0.0
C395 C 0.52254 0.95407 0.57168 0.0
C396 C 0.44941 0.98181 0.55907 0.0
C397 C 0.50866 0.99277 0.57577 0.0
C398 C 0.57438 0.98416 0.59109 0.0
C399 C 0.58106 0.96504 0.58938 0.0
H400 H 0.29803 0.30243 0.11578 0.0
H401 H 0.14494 0.29373 0.99941 0.0
H402 H 0.32918 0.26982 0.11506 0.0
H403 H 0.17743 0.26134 0.9979 0.0
H404 H 0.20767 0.20101 0.02905 0.0
H405 H 0.16834 0.23275 0.03964 0.0
H406 H 0.39731 0.2488 0.06482 0.0
H407 H 0.43643 0.21695 0.05548 0.0
C408 C 0.2706 0.29356 0.09028 0.0
C409 C 0.21918 0.30072 0.05756 0.0
C410 C 0.28891 0.27488 0.08962 0.0
C411 C 0.25628 0.26295 0.05619 0.0
C412 C 0.20307 0.27005 0.0245 0.0
C413 C 0.18464 0.28868 0.02524 0.0
C414 C 0.24964 0.21129 0.03708 0.0
C415 C 0.3253 0.20644 0.04121 0.0
C416 C 0.22708 0.22952 0.04295 0.0
C417 C 0.27963 0.24337 0.05291 0.0
C418 C 0.35516 0.23846 0.05781 0.0
C419 C 0.37771 0.2202 0.0521 0.0
H420 H 0.79038 0.80176 0.01705 0.0
H421 H 0.55874 0.78612 0.03229 0.0
H422 H 0.82675 0.76958 0.02138 0.0
H423 H 0.59515 0.75387 0.03575 0.0
H424 H 0.69319 0.69905 0.08375 0.0
H425 H 0.65998 0.73154 0.08543 0.0
H426 H 0.8174 0.74214 0.97249 0.0
H427 H 0.85156 0.70979 0.97135 0.0
C428 C 0.74716 0.79146 0.02137 0.0
C429 C 0.67157 0.79652 0.02419 0.0
C430 C 0.76803 0.773 0.02358 0.0
C431 C 0.71387 0.75914 0.02871 0.0
C432 C 0.63836 0.76422 0.0323 0.0
C433 C 0.61744 0.7827 0.03004 0.0
C434 C 0.72104 0.70833 0.05947 0.0
C435 C 0.77503 0.70181 0.0274 0.0
C436 C 0.70164 0.72694 0.06024 0.0
C437 C 0.73591 0.73944 0.02904 0.0
C438 C 0.79059 0.73294 0.99742 0.0
C439 C 0.80991 0.71435 0.99661 0.0
H440 H 0.06162 0.72073 0.46954 0.0
H441 H 0.28497 0.7028 0.43506 0.0
H442 H 0.10064 0.75265 0.45985 0.0
H443 H 0.32377 0.73474 0.42524 0.0
H444 H 0.37754 0.79384 0.48156 0.0
H445 H 0.34196 0.76146 0.47957 0.0
H446 H 0.14457 0.77512 0.39934 0.0
H447 H 0.17983 0.80751 0.40138 0.0
C448 C 0.11881 0.72357 0.45938 0.0
C449 C 0.17016 0.70919 0.45324 0.0
C450 C 0.14109 0.74187 0.4536 0.0
C451 C 0.2154 0.74623 0.44193 0.0
C452 C 0.26634 0.73184 0.43471 0.0
C453 C 0.24391 0.71353 0.44005 0.0
C454 C 0.32703 0.78993 0.46297 0.0
C455 C 0.28141 0.8033 0.44183 0.0
C456 C 0.30679 0.77135 0.46168 0.0
C457 C 0.24018 0.76574 0.43953 0.0
C458 C 0.19575 0.77904 0.41716 0.0
C459 C 0.2163 0.79759 0.41809 0.0
H460 H 0.64196 0.30734 0.429 0.0
H461 H 0.84939 0.29361 0.49847 0.0
H462 H 0.60604 0.27499 0.42927 0.0
H463 H 0.81309 0.26127 0.49895 0.0
H464 H 0.75269 0.20274 0.45455 0.0
H465 H 0.78952 0.23484 0.4451 0.0
H466 H 0.56985 0.25199 0.48986 0.0
H467 H 0.53276 0.21992 0.49908 0.0
C468 C 0.68016 0.29743 0.44408 0.0
C469 C 0.74852 0.3031 0.46385 0.0
C470 C 0.65931 0.27889 0.44445 0.0
C471 C 0.70657 0.26556 0.46425 0.0
C472 C 0.77572 0.27117 0.483 0.0
C473 C 0.79635 0.28973 0.48295 0.0
C474 C 0.71194 0.21334 0.46191 0.0
C475 C 0.63977 0.20874 0.47773 0.0
C476 C 0.73328 0.23174 0.4568 0.0
C477 C 0.68277 0.24597 0.46696 0.0
C478 C 0.60992 0.24136 0.48136 0.0
C479 C 0.58876 0.22297 0.48685 0.0
H480 H 0.92256 0.38985 0.12166 0.0
H481 H 0.13871 0.3644 0.13806 0.0
H482 H 0.90145 0.38747 0.20687 0.0
H483 H 0.11771 0.36236 0.22405 0.0
H484 H 0.07457 0.38853 0.37707 0.0
H485 H 0.09935 0.38756 0.29174 0.0
H486 H 0.88733 0.36076 0.26878 0.0
H487 H 0.86271 0.36142 0.35417 0.0
C488 C 0.96567 0.38377 0.14349 0.0
C489 C 0.03252 0.37739 0.12318 0.0
C490 C 0.95326 0.38231 0.19222 0.0
C491 C 0.0079 0.37473 0.2219 0.0
C492 C 0.07483 0.36831 0.20181 0.0
C493 C 0.08671 0.36943 0.15272 0.0
C494 C 0.03333 0.38236 0.35386 0.0
C495 C 0.96643 0.37515 0.37235 0.0
C496 C 0.04787 0.38168 0.30513 0.0
C497 C 0.99525 0.37409 0.27383 0.0
C498 C 0.92868 0.36674 0.29224 0.0
C499 C 0.91471 0.3671 0.34106 0.0
H500 H 0.02403 0.60116 0.11258 0.0
H501 H 0.92361 0.65479 0.12849 0.0
H502 H 0.05389 0.60087 0.19683 0.0
H503 H 0.95406 0.65442 0.21318 0.0
H504 H 0.09755 0.65274 0.35222 0.0
H505 H 0.07161 0.65415 0.26686 0.0
H506 H 0.97726 0.59957 0.27225 0.0
H507 H 0.00253 0.59812 0.35694 0.0
C508 C 0.00829 0.6129 0.13399 0.0
C509 C 0.97107 0.62797 0.11375 0.0
C510 C 0.02531 0.61269 0.1823 0.0
C511 C 0.00629 0.62761 0.21148 0.0
C512 C 0.96987 0.6428 0.19135 0.0
C513 C 0.95195 0.64292 0.14299 0.0
C514 C 0.0717 0.64102 0.33506 0.0
C515 C 0.05227 0.62531 0.36136 0.0
C516 C 0.05639 0.64189 0.28636 0.0
C517 C 0.0225 0.62696 0.26303 0.0
C518 C 0.004 0.61122 0.28923 0.0
C519 C 0.01829 0.61043 0.33782 0.0
H520 H 0.98362 0.60429 0.84588 0.0
H521 H 0.94323 0.66282 0.84578 0.0
H522 H 0.02109 0.60584 0.7627 0.0
H523 H 0.97933 0.66427 0.76262 0.0
H524 H 0.13258 0.66328 0.63331 0.0
H525 H 0.09137 0.66132 0.71528 0.0
H526 H 0.97042 0.61143 0.68294 0.0
H527 H 0.01333 0.61319 0.60063 0.0
C528 C 0.98241 0.61747 0.82809 0.0
C529 C 0.96046 0.63343 0.85252 0.0
C530 C 0.00341 0.61832 0.78033 0.0
C531 C 0.00309 0.63517 0.75601 0.0
C532 C 0.98108 0.65111 0.78047 0.0
C533 C 0.96015 0.65027 0.82815 0.0
C534 C 0.09691 0.65192 0.64353 0.0
C535 C 0.07593 0.63842 0.6104 0.0
C536 C 0.07295 0.65085 0.69054 0.0
C537 C 0.02739 0.63626 0.70566 0.0
C538 C 0.00607 0.62276 0.67249 0.0
C539 C 0.03008 0.62384 0.62528 0.0
H540 H 0.95544 0.34223 0.63609 0.0
H541 H 0.9672 0.40154 0.63404 0.0
H542 H 0.99703 0.3422 0.71815 0.0
H543 H 0.00986 0.40145 0.71651 0.0
H544 H 0.1442 0.34707 0.84731 0.0
H545 H 0.10894 0.34911 0.76429 0.0
H546 H 0.95976 0.3939 0.79722 0.0
H547 H 0.99612 0.39203 0.88089 0.0
C548 C 0.9675 0.35527 0.65301 0.0
C549 C 0.9578 0.37189 0.62849 0.0
C550 C 0.99163 0.35525 0.70006 0.0
C551 C 0.00668 0.37183 0.72386 0.0
C552 C 0.9979 0.38847 0.69926 0.0
C553 C 0.97401 0.3885 0.65196 0.0
C554 C 0.10392 0.35739 0.83698 0.0
C555 C 0.07241 0.36929 0.8708 0.0
C556 C 0.08355 0.35851 0.78935 0.0
C557 C 0.03113 0.37155 0.77422 0.0
C558 C 1.00069 0.38377 0.80778 0.0
C559 C 0.02108 0.38263 0.85569 0.0
H560 H 0.44699 0.88647 0.12642 0.0
H561 H 0.66167 0.86149 0.15251 0.0
H562 H 0.42092 0.88633 0.21153 0.0
H563 H 0.63571 0.86166 0.23784 0.0
H564 H 0.59398 0.89218 0.38261 0.0
H565 H 0.61716 0.88898 0.29776 0.0
H566 H 0.40422 0.86195 0.28068 0.0
H567 H 0.38115 0.86483 0.36625 0.0
C568 C 0.48859 0.88094 0.1503 0.0
C569 C 0.55666 0.8741 0.13277 0.0
C570 C 0.47332 0.88074 0.19893 0.0
C571 C 0.52633 0.874 0.2311 0.0
C572 C 0.59406 0.86699 0.21367 0.0
C573 C 0.60879 0.86686 0.16491 0.0
C574 C 0.55199 0.88554 0.36087 0.0
C575 C 0.48548 0.87885 0.38108 0.0
C576 C 0.56563 0.88359 0.31237 0.0
C577 C 0.51257 0.87519 0.28283 0.0
C578 C 0.4459 0.86852 0.30281 0.0
C579 C 0.43282 0.87014 0.35166 0.0
H580 H 0.4989 0.10124 0.13358 0.0
H581 H 0.39737 0.15472 0.14973 0.0
H582 H 0.52858 0.1009 0.21787 0.0
H583 H 0.42763 0.15431 0.23446 0.0
H584 H 0.56926 0.15246 0.37434 0.0
H585 H 0.5447 0.15402 0.28881 0.0
H586 H 0.45074 0.09939 0.29292 0.0
H587 H 0.47456 0.0978 0.37777 0.0
C588 C 0.48294 0.11294 0.15505 0.0
C589 C 0.44529 0.12796 0.13489 0.0
C590 C 0.49985 0.11271 0.20338 0.0
C591 C 0.48033 0.12756 0.23267 0.0
C592 C 0.44377 0.14273 0.21257 0.0
C593 C 0.42593 0.14288 0.16419 0.0
C594 C 0.54378 0.14076 0.35687 0.0
C595 C 0.52397 0.12501 0.38286 0.0
C596 C 0.52927 0.14172 0.30806 0.0
C597 C 0.4959 0.12682 0.28431 0.0
C598 C 0.47709 0.11102 0.31022 0.0
C599 C 0.49053 0.11016 0.3589 0.0
H600 H 0.42048 0.16387 0.8683 0.0
H601 H 0.45522 0.10512 0.86947 0.0
H602 H 0.45758 0.1649 0.78521 0.0
H603 H 0.49352 0.10624 0.78641 0.0
H604 H 0.48319 0.11321 0.62396 0.0
H605 H 0.44211 0.11187 0.70675 0.0
H606 H 0.56875 0.16108 0.73722 0.0
H607 H 0.60832 0.16259 0.65485 0.0
C608 C 0.43648 0.15119 0.85095 0.0
C609 C 0.43468 0.13441 0.87555 0.0
C610 C 0.45796 0.15178 0.80331 0.0
C611 C 0.47834 0.13564 0.77912 0.0
C612 C 0.47705 0.11887 0.8038 0.0
C613 C 0.4556 0.11827 0.85151 0.0
C614 C 0.5017 0.12378 0.64833 0.0
C615 C 0.5486 0.13805 0.63279 0.0
C616 C 0.4787 0.12295 0.69581 0.0
C617 C 0.50207 0.1364 0.72858 0.0
C618 C 0.5488 0.15066 0.71282 0.0
C619 C 0.57177 0.15147 0.66556 0.0
H620 H 0.38514 0.84515 0.65355 0.0
H621 H 0.52191 0.89264 0.62278 0.0
H622 H 0.42296 0.8465 0.73621 0.0
H623 H 0.56097 0.89382 0.70602 0.0
H624 H 0.54977 0.90028 0.86938 0.0
H625 H 0.50986 0.89999 0.78651 0.0
H626 H 0.53509 0.84101 0.78278 0.0
H627 H 0.57393 0.84122 0.8655 0.0
C628 C 0.42366 0.85585 0.66439 0.0
C629 C 0.45094 0.86873 0.6315 0.0
C630 C 0.44558 0.85657 0.7118 0.0
C631 C 0.49531 0.87018 0.72764 0.0
C632 C 0.52212 0.88323 0.69493 0.0
C633 C 0.50021 0.88249 0.64724 0.0
C634 C 0.54657 0.88724 0.8509 0.0
C635 C 0.56515 0.87076 0.87406 0.0
C636 C 0.52421 0.88711 0.80334 0.0
C637 C 0.51951 0.87049 0.77805 0.0
C638 C 0.53737 0.85402 0.80141 0.0
C639 C 0.55987 0.85415 0.84883 0.0
loop_
_geom_bond_atom_site_label_1
_geom_bond_atom_site_label_2
_geom_bond_distance
_geom_bond_site_symmetry_2
_ccdc_geom_bond_type
Zn0 O6 1.969 . S
Zn0 O7 1.965 1_556 S
Zn0 O11 2.024 1_556 S
Zn0 O16 1.969 . S
Zn1 O8 1.969 1_655 S
Zn1 O14 1.969 . S
Zn1 O15 1.965 1_654 S
Zn1 O17 2.024 1_554 S
C2 O3 1.229 . S
C2 O11 1.058 1_556 S
O3 C2 1.229 . S
C4 O5 1.229 . S
C4 O17 1.058 1_554 S
O5 C4 1.229 . S
O6 Zn0 1.969 . S
O6 C9 1.267 1_556 S
O7 Zn0 1.965 1_554 S
O7 C18 1.260 . S
O8 Zn1 1.969 1_455 S
O8 C18 1.258 . S
C9 O6 1.267 1_554 S
C9 O10 1.228 . S
O10 C9 1.228 . S
O11 Zn0 2.024 1_554 S
O11 C2 1.058 1_554 S
C12 O13 1.228 . S
C12 O14 1.267 1_556 S
O13 C12 1.228 . S
O14 Zn1 1.969 . S
O14 C12 1.267 1_554 S
O15 Zn1 1.965 1_456 S
O15 C19 1.260 . S
O16 Zn0 1.969 . S
O16 C19 1.258 . S
O17 Zn1 2.024 1_556 S
O17 C4 1.058 1_556 S
C18 O7 1.260 . S
C18 O8 1.258 . S
C19 O15 1.260 . S
C19 O16 1.258 . S
Zn20 O26 1.969 . S
Zn20 O27 1.965 1_556 S
Zn20 O31 2.024 1_556 S
Zn20 O36 1.969 . S
Zn21 O28 1.969 1_455 S
Zn21 O34 1.969 . S
Zn21 O35 1.965 1_454 S
Zn21 O37 2.024 1_554 S
C22 O23 1.229 . S
C22 O31 1.058 1_556 S
O23 C22 1.229 . S
C24 O25 1.229 . S
C24 O37 1.058 1_554 S
O25 C24 1.229 . S
O26 Zn20 1.969 . S
O26 C29 1.267 1_556 S
O27 Zn20 1.965 1_554 S
O27 C38 1.260 . S
O28 Zn21 1.969 1_655 S
O28 C38 1.258 . S
C29 O26 1.267 1_554 S
C29 O30 1.228 . S
O30 C29 1.228 . S
O31 Zn20 2.024 1_554 S
O31 C22 1.058 1_554 S
C32 O33 1.228 . S
C32 O34 1.267 1_556 S
O33 C32 1.228 . S
O34 Zn21 1.969 . S
O34 C32 1.267 1_554 S
O35 Zn21 1.965 1_656 S
O35 C39 1.260 . S
O36 Zn20 1.969 . S
O36 C39 1.258 . S
O37 Zn21 2.024 1_556 S
O37 C24 1.058 1_556 S
C38 O27 1.260 . S
C38 O28 1.258 . S
C39 O35 1.260 . S
C39 O36 1.258 . S
Zn40 O46 1.969 . S
Zn40 O47 1.965 . S
Zn40 O51 2.024 . S
Zn40 O56 1.969 . S
Zn41 O48 1.969 1_655 S
Zn41 O54 1.969 . S
Zn41 O55 1.965 1_655 S
Zn41 O57 2.024 . S
C42 O43 1.229 . S
C42 O51 1.058 . S
O43 C42 1.229 . S
C44 O45 1.229 . S
C44 O57 1.058 . S
O45 C44 1.229 . S
O46 Zn40 1.969 . S
O46 C49 1.267 . S
O47 Zn40 1.965 . S
O47 C58 1.260 . S
O48 Zn41 1.969 1_455 S
O48 C58 1.258 . S
C49 O46 1.267 . S
C49 O50 1.228 . S
O50 C49 1.228 . S
O51 Zn40 2.024 . S
O51 C42 1.058 . S
C52 O53 1.228 . S
C52 O54 1.267 . S
O53 C52 1.228 . S
O54 Zn41 1.969 . S
O54 C52 1.267 . S
O55 Zn41 1.965 1_455 S
O55 C59 1.260 . S
O56 Zn40 1.969 . S
O56 C59 1.258 . S
O57 Zn41 2.024 . S
O57 C44 1.058 . S
C58 O47 1.260 . S
C58 O48 1.258 . S
C59 O55 1.260 . S
C59 O56 1.258 . S
Zn60 O66 1.969 . S
Zn60 O67 1.965 . S
Zn60 O71 2.024 . S
Zn60 O76 1.969 . S
Zn61 O68 1.969 1_455 S
Zn61 O74 1.969 . S
Zn61 O75 1.965 1_455 S
Zn61 O77 2.024 . S
C62 O63 1.229 . S
C62 O71 1.058 . S
O63 C62 1.229 . S
C64 O65 1.229 . S
C64 O77 1.058 . S
O65 C64 1.229 . S
O66 Zn60 1.969 . S
O66 C69 1.267 . S
O67 Zn60 1.965 . S
O67 C78 1.260 . S
O68 Zn61 1.969 1_655 S
O68 C78 1.258 . S
C69 O66 1.267 . S
C69 O70 1.228 . S
O70 C69 1.228 . S
O71 Zn60 2.024 . S
O71 C62 1.058 . S
C72 O73 1.228 . S
C72 O74 1.267 . S
O73 C72 1.228 . S
O74 Zn61 1.969 . S
O74 C72 1.267 . S
O75 Zn61 1.965 1_655 S
O75 C79 1.260 . S
O76 Zn60 1.969 . S
O76 C79 1.258 . S
O77 Zn61 2.024 . S
O77 C64 1.058 . S
C78 O67 1.260 . S
C78 O68 1.258 . S
C79 O75 1.260 . S
C79 O76 1.258 . S
Zn80 O86 1.969 . S
Zn80 O87 1.965 1_556 S
Zn80 O91 2.024 1_556 S
Zn80 O96 1.969 . S
Zn81 O88 1.969 . S
Zn81 O94 1.969 . S
Zn81 O95 1.965 1_554 S
Zn81 O97 2.024 1_554 S
C82 O83 1.229 . S
C82 O91 1.058 1_556 S
O83 C82 1.229 . S
C84 O85 1.229 . S
C84 O97 1.058 1_554 S
O85 C84 1.229 . S
O86 Zn80 1.969 . S
O86 C89 1.267 1_556 S
O87 Zn80 1.965 1_554 S
O87 C98 1.260 . S
O88 Zn81 1.969 . S
O88 C98 1.258 . S
C89 O86 1.267 1_554 S
C89 O90 1.228 . S
O90 C89 1.228 . S
O91 Zn80 2.024 1_554 S
O91 C82 1.058 1_554 S
C92 O93 1.228 . S
C92 O94 1.267 1_556 S
O93 C92 1.228 . S
O94 Zn81 1.969 . S
O94 C92 1.267 1_554 S
O95 Zn81 1.965 1_556 S
O95 C99 1.260 . S
O96 Zn80 1.969 . S
O96 C99 1.258 . S
O97 Zn81 2.024 1_556 S
O97 C84 1.058 1_556 S
C98 O87 1.260 . S
C98 O88 1.258 . S
C99 O95 1.260 . S
C99 O96 1.258 . S
Zn100 O106 1.969 . S
Zn100 O107 1.965 1_556 S
Zn100 O111 2.024 1_556 S
Zn100 O116 1.969 . S
Zn101 O108 1.969 . S
Zn101 O114 1.969 . S
Zn101 O115 1.965 1_554 S
Zn101 O117 2.024 1_554 S
C102 O103 1.229 . S
C102 O111 1.058 1_556 S
O103 C102 1.229 . S
C104 O105 1.229 . S
C104 O117 1.058 1_554 S
O105 C104 1.229 . S
O106 Zn100 1.969 . S
O106 C109 1.267 1_556 S
O107 Zn100 1.965 1_554 S
O107 C118 1.260 . S
O108 Zn101 1.969 . S
O108 C118 1.258 . S
C109 O106 1.267 1_554 S
C109 O110 1.228 . S
O110 C109 1.228 . S
O111 Zn100 2.024 1_554 S
O111 C102 1.058 1_554 S
C112 O113 1.228 . S
C112 O114 1.267 1_556 S
O113 C112 1.228 . S
O114 Zn101 1.969 . S
O114 C112 1.267 1_554 S
O115 Zn101 1.965 1_556 S
O115 C119 1.260 . S
O116 Zn100 1.969 . S
O116 C119 1.258 . S
O117 Zn101 2.024 1_556 S
O117 C104 1.058 1_556 S
C118 O107 1.260 . S
C118 O108 1.258 . S
C119 O115 1.260 . S
C119 O116 1.258 . S
Zn120 O126 1.969 . S
Zn120 O127 1.965 . S
Zn120 O131 2.024 . S
Zn120 O136 1.969 . S
Zn121 O128 1.969 . S
Zn121 O134 1.969 . S
Zn121 O135 1.965 . S
Zn121 O137 2.024 . S
C122 O123 1.229 . S
C122 O131 1.058 . S
O123 C122 1.229 . S
C124 O125 1.229 . S
C124 O137 1.058 . S
O125 C124 1.229 . S
O126 Zn120 1.969 . S
O126 C129 1.267 . S
O127 Zn120 1.965 . S
O127 C138 1.260 . S
O128 Zn121 1.969 . S
O128 C138 1.258 . S
C129 O126 1.267 . S
C129 O130 1.228 . S
O130 C129 1.228 . S
O131 Zn120 2.024 . S
O131 C122 1.058 . S
C132 O133 1.228 . S
C132 O134 1.267 . S
O133 C132 1.228 . S
O134 Zn121 1.969 . S
O134 C132 1.267 . S
O135 Zn121 1.965 . S
O135 C139 1.260 . S
O136 Zn120 1.969 . S
O136 C139 1.258 . S
O137 Zn121 2.024 . S
O137 C124 1.058 . S
C138 O127 1.260 . S
C138 O128 1.258 . S
C139 O135 1.260 . S
C139 O136 1.258 . S
Zn140 O146 1.969 . S
Zn140 O147 1.965 . S
Zn140 O151 2.024 . S
Zn140 O156 1.969 . S
Zn141 O148 1.969 . S
Zn141 O154 1.969 . S
Zn141 O155 1.965 . S
Zn141 O157 2.024 . S
C142 O143 1.229 . S
C142 O151 1.058 . S
O143 C142 1.229 . S
C144 O145 1.229 . S
C144 O157 1.058 . S
O145 C144 1.229 . S
O146 Zn140 1.969 . S
O146 C149 1.267 . S
O147 Zn140 1.965 . S
O147 C158 1.260 . S
O148 Zn141 1.969 . S
O148 C158 1.258 . S
C149 O146 1.267 . S
C149 O150 1.228 . S
O150 C149 1.228 . S
O151 Zn140 2.024 . S
O151 C142 1.058 . S
C152 O153 1.228 . S
C152 O154 1.267 . S
O153 C152 1.228 . S
O154 Zn141 1.969 . S
O154 C152 1.267 . S
O155 Zn141 1.965 . S
O155 C159 1.260 . S
O156 Zn140 1.969 . S
O156 C159 1.258 . S
O157 Zn141 2.024 . S
O157 C144 1.058 . S
C158 O147 1.260 . S
C158 O148 1.258 . S
C159 O155 1.260 . S
C159 O156 1.258 . S
H160 C168 0.950 . S
H161 C173 0.950 . S
H162 C170 0.950 . S
H163 C172 0.950 . S
H164 C174 0.950 . S
H165 C176 0.950 . S
H166 C178 0.950 . S
H167 C179 0.950 . S
C168 H160 0.950 . S
C168 C169 1.386 1_554 S
C168 C170 1.391 . S
C169 C168 1.386 1_556 S
C169 C173 1.393 . S
C170 H162 0.950 . S
C170 C168 1.391 . S
C170 C171 1.393 1_554 S
C171 C170 1.393 1_556 S
C171 C172 1.405 . S
C171 C177 1.490 1_556 S
C172 H163 0.950 . S
C172 C171 1.405 . S
C172 C173 1.391 . S
C173 H161 0.950 . S
C173 C169 1.393 . S
C173 C172 1.391 . S
C174 H164 0.950 . S
C174 C175 1.386 1_556 S
C174 C176 1.391 . S
C175 C174 1.386 1_554 S
C175 C179 1.393 . S
C176 H165 0.950 . S
C176 C174 1.391 . S
C176 C177 1.389 1_556 S
C177 C171 1.490 1_554 S
C177 C176 1.389 1_554 S
C177 C178 1.410 . S
C178 H166 0.950 . S
C178 C177 1.410 . S
C178 C179 1.391 . S
C179 H167 0.950 . S
C179 C175 1.393 . S
C179 C178 1.391 . S
H180 C188 0.950 . S
H181 C193 0.950 . S
H182 C190 0.950 . S
H183 C192 0.950 . S
H184 C194 0.950 . S
H185 C196 0.950 . S
H186 C198 0.950 . S
H187 C199 0.950 . S
C188 H180 0.950 . S
C188 C189 1.386 1_556 S
C188 C190 1.391 . S
C189 C188 1.386 1_554 S
C189 C193 1.393 . S
C190 H182 0.950 . S
C190 C188 1.391 . S
C190 C191 1.400 1_556 S
C191 C190 1.400 1_554 S
C191 C192 1.398 . S
C191 C197 1.490 1_554 S
C192 H183 0.950 . S
C192 C191 1.398 . S
C192 C193 1.391 . S
C193 H181 0.950 . S
C193 C189 1.393 . S
C193 C192 1.391 . S
C194 H184 0.950 . S
C194 C195 1.386 1_554 S
C194 C196 1.391 . S
C195 C194 1.386 1_556 S
C195 C199 1.393 . S
C196 H185 0.950 . S
C196 C194 1.391 . S
C196 C197 1.384 1_554 S
C197 C191 1.490 1_556 S
C197 C196 1.384 1_556 S
C197 C198 1.415 . S
C198 H186 0.950 . S
C198 C197 1.415 . S
C198 C199 1.391 . S
C199 H187 0.950 . S
C199 C195 1.393 . S
C199 C198 1.391 . S
H200 C208 0.950 . S
H201 C213 0.950 . S
H202 C210 0.950 . S
H203 C212 0.950 . S
H204 C214 0.950 . S
H205 C216 0.950 . S
H206 C218 0.950 . S
H207 C219 0.950 . S
C208 H200 0.950 . S
C208 C209 1.386 . S
C208 C210 1.391 . S
C209 C208 1.386 . S
C209 C213 1.393 . S
C210 H202 0.950 . S
C210 C208 1.391 . S
C210 C211 1.400 . S
C211 C210 1.400 . S
C211 C212 1.398 . S
C211 C217 1.491 . S
C212 H203 0.950 . S
C212 C211 1.398 . S
C212 C213 1.391 . S
C213 H201 0.950 . S
C213 C209 1.393 . S
C213 C212 1.391 . S
C214 H204 0.950 . S
C214 C215 1.386 . S
C214 C216 1.391 . S
C215 C214 1.386 . S
C215 C219 1.393 . S
C216 H205 0.950 . S
C216 C214 1.391 . S
C216 C217 1.400 . S
C217 C211 1.491 . S
C217 C216 1.400 . S
C217 C218 1.398 . S
C218 H206 0.950 . S
C218 C217 1.398 . S
C218 C219 1.391 . S
C219 H207 0.950 . S
C219 C215 1.393 . S
C219 C218 1.391 . S
H220 C228 0.950 . S
H221 C233 0.950 . S
H222 C230 0.950 . S
H223 C232 0.950 . S
H224 C234 0.950 . S
H225 C236 0.950 . S
H226 C238 0.950 . S
H227 C239 0.950 . S
C228 H220 0.950 . S
C228 C229 1.386 . S
C228 C230 1.391 . S
C229 C228 1.386 . S
C229 C233 1.393 . S
C230 H222 0.950 . S
C230 C228 1.391 . S
C230 C231 1.400 . S
C231 C230 1.400 . S
C231 C232 1.398 . S
C231 C237 1.491 . S
C232 H223 0.950 . S
C232 C231 1.398 . S
C232 C233 1.391 . S
C233 H221 0.950 . S
C233 C229 1.393 . S
C233 C232 1.391 . S
C234 H224 0.950 . S
C234 C235 1.386 . S
C234 C236 1.391 . S
C235 C234 1.386 . S
C235 C239 1.393 . S
C236 H225 0.950 . S
C236 C234 1.391 . S
C236 C237 1.400 . S
C237 C231 1.491 . S
C237 C236 1.400 . S
C237 C238 1.398 . S
C238 H226 0.950 . S
C238 C237 1.398 . S
C238 C239 1.391 . S
C239 H227 0.950 . S
C239 C235 1.393 . S
C239 C238 1.391 . S
H240 C248 0.950 . S
H241 C253 0.950 . S
H242 C250 0.950 1_455 S
H243 C252 0.950 . S
H244 C254 0.950 . S
H245 C256 0.950 . S
H246 C258 0.950 . S
H247 C259 0.950 . S
C248 H240 0.950 . S
C248 C249 1.386 1_554 S
C248 C250 1.391 . S
C249 C248 1.386 1_556 S
C249 C253 1.393 . S
C250 H242 0.950 1_655 S
C250 C248 1.391 . S
C250 C251 1.400 1_654 S
C251 C250 1.400 1_456 S
C251 C252 1.398 1_455 S
C251 C257 1.491 1_556 S
C252 H243 0.950 . S
C252 C251 1.398 1_655 S
C252 C253 1.391 . S
C253 H241 0.950 . S
C253 C249 1.393 . S
C253 C252 1.391 . S
C254 H244 0.950 . S
C254 C255 1.386 1_556 S
C254 C256 1.391 . S
C255 C254 1.386 1_554 S
C255 C259 1.393 . S
C256 H245 0.950 . S
C256 C254 1.391 . S
C256 C257 1.400 1_556 S
C257 C251 1.491 1_554 S
C257 C256 1.400 1_554 S
C257 C258 1.398 . S
C258 H246 0.950 . S
C258 C257 1.398 . S
C258 C259 1.391 . S
C259 H247 0.950 . S
C259 C255 1.393 . S
C259 C258 1.391 . S
H260 C268 0.950 . S
H261 C273 0.950 . S
H262 C270 0.950 . S
H263 C272 0.950 1_655 S
H264 C274 0.950 . S
H265 C276 0.950 . S
H266 C278 0.950 . S
H267 C279 0.950 . S
C268 H260 0.950 . S
C268 C269 1.378 1_554 S
C268 C270 1.391 . S
C269 C268 1.378 1_556 S
C269 C273 1.401 . S
C270 H262 0.950 . S
C270 C268 1.391 . S
C270 C271 1.404 1_455 S
C271 C270 1.404 1_655 S
C271 C272 1.395 1_654 S
C271 C277 1.491 1_554 S
C272 H263 0.950 1_455 S
C272 C271 1.395 1_456 S
C272 C273 1.391 . S
C273 H261 0.950 . S
C273 C269 1.401 . S
C273 C272 1.391 . S
C274 H264 0.950 . S
C274 C275 1.375 1_556 S
C274 C276 1.391 . S
C275 C274 1.375 1_554 S
C275 C279 1.403 . S
C276 H265 0.950 . S
C276 C274 1.391 . S
C276 C277 1.401 . S
C277 C271 1.491 1_556 S
C277 C276 1.401 . S
C277 C278 1.398 1_556 S
C278 H266 0.950 . S
C278 C277 1.398 1_554 S
C278 C279 1.391 . S
C279 H267 0.950 . S
C279 C275 1.403 . S
C279 C278 1.391 . S
H280 C288 0.950 . S
H281 C293 0.950 . S
H282 C290 0.950 . S
H283 C292 0.950 . S
H284 C294 0.950 . S
H285 C296 0.950 1_455 S
H286 C298 0.950 1_455 S
H287 C299 0.950 . S
C288 H280 0.950 . S
C288 C289 1.386 . S
C288 C290 1.391 . S
C289 C288 1.386 . S
C289 C293 1.393 . S
C290 H282 0.950 . S
C290 C288 1.391 . S
C290 C291 1.400 . S
C291 C290 1.400 . S
C291 C292 1.398 . S
C291 C297 1.491 . S
C292 H283 0.950 . S
C292 C291 1.398 . S
C292 C293 1.391 . S
C293 H281 0.950 . S
C293 C289 1.393 . S
C293 C292 1.391 . S
C294 H284 0.950 . S
C294 C295 1.386 . S
C294 C296 1.391 . S
C295 C294 1.386 . S
C295 C299 1.393 . S
C296 H285 0.950 1_655 S
C296 C294 1.391 . S
C296 C297 1.400 1_655 S
C297 C291 1.491 . S
C297 C296 1.400 1_455 S
C297 C298 1.398 1_455 S
C298 H286 0.950 1_655 S
C298 C297 1.398 1_655 S
C298 C299 1.391 . S
C299 H287 0.950 . S
C299 C295 1.393 . S
C299 C298 1.391 . S
H300 C308 0.950 . S
H301 C313 0.950 . S
H302 C310 0.950 . S
H303 C312 0.950 . S
H304 C314 0.950 . S
H305 C316 0.950 1_655 S
H306 C318 0.950 . S
H307 C319 0.950 . S
C308 H300 0.950 . S
C308 C309 1.386 . S
C308 C310 1.391 . S
C309 C308 1.386 . S
C309 C313 1.393 . S
C310 H302 0.950 . S
C310 C308 1.391 . S
C310 C311 1.400 . S
C311 C310 1.400 . S
C311 C312 1.398 . S
C311 C317 1.491 . S
C312 H303 0.950 . S
C312 C311 1.398 . S
C312 C313 1.391 . S
C313 H301 0.950 . S
C313 C309 1.393 . S
C313 C312 1.391 . S
C314 H304 0.950 . S
C314 C315 1.386 . S
C314 C316 1.391 . S
C315 C314 1.386 . S
C315 C319 1.393 . S
C316 H305 0.950 1_455 S
C316 C314 1.391 . S
C316 C317 1.400 1_455 S
C317 C311 1.491 . S
C317 C316 1.400 1_655 S
C317 C318 1.398 1_655 S
C318 H306 0.950 . S
C318 C317 1.398 1_455 S
C318 C319 1.391 . S
C319 H307 0.950 . S
C319 C315 1.393 . S
C319 C318 1.391 . S
H320 C328 0.950 . S
H321 C333 0.950 . S
H322 C330 0.950 . S
H323 C332 0.951 . S
H324 C334 0.950 . S
H325 C336 0.950 . S
H326 C338 0.950 . S
H327 C339 0.950 . S
C328 H320 0.950 . S
C328 C329 1.386 . S
C328 C330 1.391 . S
C329 C328 1.386 . S
C329 C333 1.393 1_455 S
C330 H322 0.950 . S
C330 C328 1.391 . S
C330 C331 1.400 . S
C331 C330 1.400 . S
C331 C332 1.398 1_455 S
C331 C337 1.491 1_455 S
C332 H323 0.951 . S
C332 C331 1.398 1_655 S
C332 C333 1.391 . S
C333 H321 0.950 . S
C333 C329 1.393 1_655 S
C333 C332 1.391 . S
C334 H324 0.950 . S
C334 C335 1.386 . S
C334 C336 1.391 . S
C335 C334 1.386 . S
C335 C339 1.393 1_655 S
C336 H325 0.950 . S
C336 C334 1.391 . S
C336 C337 1.400 . S
C337 C331 1.491 1_655 S
C337 C336 1.400 . S
C337 C338 1.398 1_655 S
C338 H326 0.950 . S
C338 C337 1.398 1_455 S
C338 C339 1.391 . S
C339 H327 0.950 . S
C339 C335 1.393 1_455 S
C339 C338 1.391 . S
H340 C348 0.950 . S
H341 C353 0.950 . S
H342 C350 0.950 . S
H343 C352 0.950 . S
H344 C354 0.950 . S
H345 C356 0.950 . S
H346 C358 0.950 . S
H347 C359 0.950 . S
C348 H340 0.950 . S
C348 C349 1.386 1_655 S
C348 C350 1.391 . S
C349 C348 1.386 1_455 S
C349 C353 1.393 . S
C350 H342 0.950 . S
C350 C348 1.391 . S
C350 C351 1.400 1_655 S
C351 C350 1.400 1_455 S
C351 C352 1.398 . S
C351 C357 1.491 1_455 S
C352 H343 0.950 . S
C352 C351 1.398 . S
C352 C353 1.391 . S
C353 H341 0.950 . S
C353 C349 1.393 . S
C353 C352 1.391 . S
C354 H344 0.950 . S
C354 C355 1.386 1_455 S
C354 C356 1.391 . S
C355 C354 1.386 1_655 S
C355 C359 1.393 . S
C356 H345 0.950 . S
C356 C354 1.391 . S
C356 C357 1.400 1_455 S
C357 C351 1.491 1_655 S
C357 C356 1.400 1_655 S
C357 C358 1.398 . S
C358 H346 0.950 . S
C358 C357 1.398 . S
C358 C359 1.391 . S
C359 H347 0.950 . S
C359 C355 1.393 . S
C359 C358 1.391 . S
H360 C368 0.950 . S
H361 C373 0.950 . S
H362 C370 0.950 . S
H363 C372 0.950 . S
H364 C374 0.950 . S
H365 C376 0.950 . S
H366 C378 0.950 . S
H367 C379 0.950 . S
C368 H360 0.950 . S
C368 C369 1.386 . S
C368 C370 1.391 . S
C369 C368 1.386 . S
C369 C373 1.393 1_556 S
C370 H362 0.950 . S
C370 C368 1.391 . S
C370 C371 1.400 . S
C371 C370 1.400 . S
C371 C372 1.398 1_556 S
C371 C377 1.491 1_565 S
C372 H363 0.950 . S
C372 C371 1.398 1_554 S
C372 C373 1.391 . S
C373 H361 0.950 . S
C373 C369 1.393 1_554 S
C373 C372 1.391 . S
C374 H364 0.950 . S
C374 C375 1.386 1_554 S
C374 C376 1.391 . S
C375 C374 1.386 1_556 S
C375 C379 1.393 . S
C376 H365 0.950 . S
C376 C374 1.391 . S
C376 C377 1.400 1_554 S
C377 C371 1.491 1_545 S
C377 C376 1.400 1_556 S
C377 C378 1.398 . S
C378 H366 0.950 . S
C378 C377 1.398 . S
C378 C379 1.391 . S
C379 H367 0.950 . S
C379 C375 1.393 . S
C379 C378 1.391 . S
H380 C388 0.950 . S
H381 C393 0.950 . S
H382 C390 0.950 . S
H383 C392 0.950 . S
H384 C394 0.950 . S
H385 C396 0.950 . S
H386 C398 0.950 . S
H387 C399 0.950 . S
C388 H380 0.950 . S
C388 C389 1.386 . S
C388 C390 1.391 . S
C389 C388 1.386 . S
C389 C393 1.393 . S
C390 H382 0.950 . S
C390 C388 1.391 . S
C390 C391 1.400 . S
C391 C390 1.400 . S
C391 C392 1.398 . S
C391 C397 1.491 1_545 S
C392 H383 0.950 . S
C392 C391 1.398 . S
C392 C393 1.391 . S
C393 H381 0.950 . S
C393 C389 1.393 . S
C393 C392 1.391 . S
C394 H384 0.950 . S
C394 C395 1.386 . S
C394 C396 1.391 . S
C395 C394 1.386 . S
C395 C399 1.393 . S
C396 H385 0.950 . S
C396 C394 1.391 . S
C396 C397 1.400 . S
C397 C391 1.491 1_565 S
C397 C396 1.400 . S
C397 C398 1.398 . S
C398 H386 0.950 . S
C398 C397 1.398 . S
C398 C399 1.391 . S
C399 H387 0.950 . S
C399 C395 1.393 . S
C399 C398 1.391 . S
H400 C408 0.950 . S
H401 C413 0.950 . S
H402 C410 0.950 . S
H403 C412 0.950 . S
H404 C414 0.950 . S
H405 C416 0.950 . S
H406 C418 0.950 . S
H407 C419 0.950 . S
C408 H400 0.950 . S
C408 C409 1.386 . S
C408 C410 1.391 . S
C409 C408 1.386 . S
C409 C413 1.393 1_554 S
C410 H402 0.950 . S
C410 C408 1.391 . S
C410 C411 1.400 . S
C411 C410 1.400 . S
C411 C412 1.398 1_554 S
C411 C417 1.491 . S
C412 H403 0.950 . S
C412 C411 1.398 1_556 S
C412 C413 1.391 . S
C413 H401 0.950 . S
C413 C409 1.393 1_556 S
C413 C412 1.391 . S
C414 H404 0.950 . S
C414 C415 1.386 1_556 S
C414 C416 1.391 . S
C415 C414 1.386 1_554 S
C415 C419 1.393 . S
C416 H405 0.950 . S
C416 C414 1.391 . S
C416 C417 1.400 1_556 S
C417 C411 1.491 . S
C417 C416 1.400 1_554 S
C417 C418 1.398 . S
C418 H406 0.950 . S
C418 C417 1.398 . S
C418 C419 1.391 . S
C419 H407 0.950 . S
C419 C415 1.393 . S
C419 C418 1.391 . S
H420 C428 0.950 . S
H421 C433 0.950 . S
H422 C430 0.950 . S
H423 C432 0.950 . S
H424 C434 0.950 . S
H425 C436 0.950 . S
H426 C438 0.950 . S
H427 C439 0.950 . S
C428 H420 0.950 . S
C428 C429 1.386 1_556 S
C428 C430 1.391 . S
C429 C428 1.386 1_554 S
C429 C433 1.393 . S
C430 H422 0.950 . S
C430 C428 1.391 . S
C430 C431 1.400 1_556 S
C431 C430 1.400 1_554 S
C431 C432 1.398 . S
C431 C437 1.491 . S
C432 H423 0.950 . S
C432 C431 1.398 . S
C432 C433 1.391 . S
C433 H421 0.950 . S
C433 C429 1.393 . S
C433 C432 1.391 . S
C434 H424 0.950 . S
C434 C435 1.386 . S
C434 C436 1.391 . S
C435 C434 1.386 . S
C435 C439 1.393 1_554 S
C436 H425 0.950 . S
C436 C434 1.391 . S
C436 C437 1.400 . S
C437 C431 1.491 . S
C437 C436 1.400 . S
C437 C438 1.398 1_554 S
C438 H426 0.950 . S
C438 C437 1.398 1_556 S
C438 C439 1.391 . S
C439 H427 0.950 . S
C439 C435 1.393 1_556 S
C439 C438 1.391 . S
H440 C448 0.950 . S
H441 C453 0.950 . S
H442 C450 0.950 . S
H443 C452 0.950 . S
H444 C454 0.950 . S
H445 C456 0.950 . S
H446 C458 0.950 . S
H447 C459 0.950 . S
C448 H440 0.950 . S
C448 C449 1.386 . S
C448 C450 1.391 . S
C449 C448 1.386 . S
C449 C453 1.393 . S
C450 H442 0.950 . S
C450 C448 1.391 . S
C450 C451 1.400 . S
C451 C450 1.400 . S
C451 C452 1.398 . S
C451 C457 1.491 . S
C452 H443 0.950 . S
C452 C451 1.398 . S
C452 C453 1.391 . S
C453 H441 0.950 . S
C453 C449 1.393 . S
C453 C452 1.391 . S
C454 H444 0.950 . S
C454 C455 1.386 . S
C454 C456 1.391 . S
C455 C454 1.386 . S
C455 C459 1.393 . S
C456 H445 0.950 . S
C456 C454 1.391 . S
C456 C457 1.400 . S
C457 C451 1.491 . S
C457 C456 1.400 . S
C457 C458 1.398 . S
C458 H446 0.950 . S
C458 C457 1.398 . S
C458 C459 1.391 . S
C459 H447 0.950 . S
C459 C455 1.393 . S
C459 C458 1.391 . S
H460 C468 0.950 . S
H461 C473 0.950 . S
H462 C470 0.950 . S
H463 C472 0.950 . S
H464 C474 0.950 . S
H465 C476 0.950 . S
H466 C478 0.950 . S
H467 C479 0.950 . S
C468 H460 0.950 . S
C468 C469 1.386 . S
C468 C470 1.391 . S
C469 C468 1.386 . S
C469 C473 1.393 . S
C470 H462 0.950 . S
C470 C468 1.391 . S
C470 C471 1.400 . S
C471 C470 1.400 . S
C471 C472 1.398 . S
C471 C477 1.491 . S
C472 H463 0.950 . S
C472 C471 1.398 . S
C472 C473 1.391 . S
C473 H461 0.950 . S
C473 C469 1.393 . S
C473 C472 1.391 . S
C474 H464 0.950 . S
C474 C475 1.386 . S
C474 C476 1.391 . S
C475 C474 1.386 . S
C475 C479 1.393 . S
C476 H465 0.950 . S
C476 C474 1.391 . S
C476 C477 1.400 . S
C477 C471 1.491 . S
C477 C476 1.400 . S
C477 C478 1.398 . S
C478 H466 0.950 . S
C478 C477 1.398 . S
C478 C479 1.391 . S
C479 H467 0.950 . S
C479 C475 1.393 . S
C479 C478 1.391 . S
H480 C488 0.950 . S
H481 C493 0.950 . S
H482 C490 0.950 . S
H483 C492 0.950 . S
H484 C494 0.950 . S
H485 C496 0.950 . S
H486 C498 0.950 . S
H487 C499 0.950 . S
C488 H480 0.950 . S
C488 C489 1.386 1_655 S
C488 C490 1.391 . S
C489 C488 1.386 1_455 S
C489 C493 1.393 . S
C490 H482 0.950 . S
C490 C488 1.391 . S
C490 C491 1.400 1_655 S
C491 C490 1.400 1_455 S
C491 C492 1.398 . S
C491 C497 1.491 1_455 S
C492 H483 0.950 . S
C492 C491 1.398 . S
C492 C493 1.391 . S
C493 H481 0.950 . S
C493 C489 1.393 . S
C493 C492 1.391 . S
C494 H484 0.950 . S
C494 C495 1.386 1_455 S
C494 C496 1.391 . S
C495 C494 1.386 1_655 S
C495 C499 1.393 . S
C496 H485 0.950 . S
C496 C494 1.391 . S
C496 C497 1.400 1_455 S
C497 C491 1.491 1_655 S
C497 C496 1.400 1_655 S
C497 C498 1.398 . S
C498 H486 0.950 . S
C498 C497 1.398 . S
C498 C499 1.391 . S
C499 H487 0.950 . S
C499 C495 1.393 . S
C499 C498 1.391 . S
H500 C508 0.950 1_455 S
H501 C513 0.950 . S
H502 C510 0.950 . S
H503 C512 0.950 . S
H504 C514 0.950 1_655 S
H505 C516 0.950 . S
H506 C518 0.950 . S
H507 C519 0.950 . S
C508 H500 0.950 1_655 S
C508 C509 1.386 . S
C508 C510 1.391 1_655 S
C509 C508 1.386 . S
C509 C513 1.393 . S
C510 H502 0.950 . S
C510 C508 1.391 1_455 S
C510 C511 1.400 1_455 S
C511 C510 1.400 1_655 S
C511 C512 1.398 . S
C511 C517 1.491 1_655 S
C512 H503 0.950 . S
C512 C511 1.398 . S
C512 C513 1.391 . S
C513 H501 0.950 . S
C513 C509 1.393 . S
C513 C512 1.391 . S
C514 H504 0.950 1_455 S
C514 C515 1.386 . S
C514 C516 1.391 1_455 S
C515 C514 1.386 . S
C515 C519 1.393 . S
C516 H505 0.950 . S
C516 C514 1.391 1_655 S
C516 C517 1.400 1_655 S
C517 C511 1.491 1_455 S
C517 C516 1.400 1_455 S
C517 C518 1.398 . S
C518 H506 0.950 . S
C518 C517 1.398 . S
C518 C519 1.391 . S
C519 H507 0.950 . S
C519 C515 1.393 . S
C519 C518 1.391 . S
H520 C528 0.950 . S
H521 C533 0.950 . S
H522 C530 0.950 . S
H523 C532 0.950 . S
H524 C534 0.950 . S
H525 C536 0.950 . S
H526 C538 0.950 . S
H527 C539 0.950 . S
C528 H520 0.950 . S
C528 C529 1.386 . S
C528 C530 1.391 . S
C529 C528 1.386 . S
C529 C533 1.393 . S
C530 H522 0.950 . S
C530 C528 1.391 . S
C530 C531 1.400 . S
C531 C530 1.400 . S
C531 C532 1.398 . S
C531 C537 1.491 1_655 S
C532 H523 0.950 . S
C532 C531 1.398 . S
C532 C533 1.391 . S
C533 H521 0.950 . S
C533 C529 1.393 . S
C533 C532 1.391 . S
C534 H524 0.950 . S
C534 C535 1.386 . S
C534 C536 1.391 . S
C535 C534 1.386 . S
C535 C539 1.393 . S
C536 H525 0.950 . S
C536 C534 1.391 . S
C536 C537 1.400 . S
C537 C531 1.491 1_455 S
C537 C536 1.400 . S
C537 C538 1.398 . S
C538 H526 0.950 . S
C538 C537 1.398 . S
C538 C539 1.391 . S
C539 H527 0.950 . S
C539 C535 1.393 . S
C539 C538 1.391 . S
H540 C548 0.950 . S
H541 C553 0.950 . S
H542 C550 0.950 . S
H543 C552 0.950 . S
H544 C554 0.950 . S
H545 C556 0.950 . S
H546 C558 0.950 . S
H547 C559 0.950 . S
C548 H540 0.950 . S
C548 C549 1.386 . S
C548 C550 1.391 . S
C549 C548 1.386 . S
C549 C553 1.393 1_655 S
C550 H542 0.950 . S
C550 C548 1.391 . S
C550 C551 1.400 . S
C551 C550 1.400 . S
C551 C552 1.398 1_655 S
C551 C557 1.491 1_655 S
C552 H543 0.950 . S
C552 C551 1.398 1_455 S
C552 C553 1.391 . S
C553 H541 0.950 . S
C553 C549 1.393 1_455 S
C553 C552 1.391 . S
C554 H544 0.950 . S
C554 C555 1.386 . S
C554 C556 1.391 . S
C555 C554 1.386 . S
C555 C559 1.393 1_455 S
C556 H545 0.950 . S
C556 C554 1.391 . S
C556 C557 1.400 . S
C557 C551 1.491 1_455 S
C557 C556 1.400 . S
C557 C558 1.398 1_455 S
C558 H546 0.950 . S
C558 C557 1.398 1_655 S
C558 C559 1.391 . S
C559 H547 0.950 . S
C559 C555 1.393 1_655 S
C559 C558 1.391 . S
H560 C568 0.950 . S
H561 C573 0.950 . S
H562 C570 0.950 . S
H563 C572 0.950 . S
H564 C574 0.950 . S
H565 C576 0.950 . S
H566 C578 0.950 . S
H567 C579 0.950 . S
C568 H560 0.950 . S
C568 C569 1.386 . S
C568 C570 1.391 . S
C569 C568 1.386 . S
C569 C573 1.393 . S
C570 H562 0.950 . S
C570 C568 1.391 . S
C570 C571 1.400 . S
C571 C570 1.400 . S
C571 C572 1.398 . S
C571 C577 1.491 . S
C572 H563 0.950 . S
C572 C571 1.398 . S
C572 C573 1.391 . S
C573 H561 0.950 . S
C573 C569 1.393 . S
C573 C572 1.391 . S
C574 H564 0.950 . S
C574 C575 1.386 . S
C574 C576 1.391 . S
C575 C574 1.386 . S
C575 C579 1.393 . S
C576 H565 0.950 . S
C576 C574 1.391 . S
C576 C577 1.400 . S
C577 C571 1.491 . S
C577 C576 1.400 . S
C577 C578 1.398 . S
C578 H566 0.950 . S
C578 C577 1.398 . S
C578 C579 1.391 . S
C579 H567 0.950 . S
C579 C575 1.393 . S
C579 C578 1.391 . S
H580 C588 0.950 . S
H581 C593 0.950 . S
H582 C590 0.950 . S
H583 C592 0.950 . S
H584 C594 0.950 . S
H585 C596 0.950 . S
H586 C598 0.950 . S
H587 C599 0.950 . S
C588 H580 0.950 . S
C588 C589 1.386 . S
C588 C590 1.391 . S
C589 C588 1.386 . S
C589 C593 1.393 . S
C590 H582 0.950 . S
C590 C588 1.391 . S
C590 C591 1.400 . S
C591 C590 1.400 . S
C591 C592 1.398 . S
C591 C597 1.491 . S
C592 H583 0.950 . S
C592 C591 1.398 . S
C592 C593 1.391 . S
C593 H581 0.950 . S
C593 C589 1.393 . S
C593 C592 1.391 . S
C594 H584 0.950 . S
C594 C595 1.386 . S
C594 C596 1.391 . S
C595 C594 1.386 . S
C595 C599 1.393 . S
C596 H585 0.950 . S
C596 C594 1.391 . S
C596 C597 1.400 . S
C597 C591 1.491 . S
C597 C596 1.400 . S
C597 C598 1.398 . S
C598 H586 0.950 . S
C598 C597 1.398 . S
C598 C599 1.391 . S
C599 H587 0.950 . S
C599 C595 1.393 . S
C599 C598 1.391 . S
H600 C608 0.950 . S
H601 C613 0.950 . S
H602 C610 0.950 . S
H603 C612 0.950 . S
H604 C614 0.950 . S
H605 C616 0.950 . S
H606 C618 0.950 . S
H607 C619 0.950 . S
C608 H600 0.950 . S
C608 C609 1.386 . S
C608 C610 1.391 . S
C609 C608 1.386 . S
C609 C613 1.393 . S
C610 H602 0.950 . S
C610 C608 1.391 . S
C610 C611 1.400 . S
C611 C610 1.400 . S
C611 C612 1.398 . S
C611 C617 1.491 . S
C612 H603 0.950 . S
C612 C611 1.398 . S
C612 C613 1.391 . S
C613 H601 0.950 . S
C613 C609 1.393 . S
C613 C612 1.391 . S
C614 H604 0.950 . S
C614 C615 1.386 . S
C614 C616 1.391 . S
C615 C614 1.386 . S
C615 C619 1.393 . S
C616 H605 0.950 . S
C616 C614 1.391 . S
C616 C617 1.400 . S
C617 C611 1.491 . S
C617 C616 1.400 . S
C617 C618 1.398 . S
C618 H606 0.950 . S
C618 C617 1.398 . S
C618 C619 1.391 . S
C619 H607 0.950 . S
C619 C615 1.393 . S
C619 C618 1.391 . S
H620 C628 0.950 . S
H621 C633 0.950 . S
H622 C630 0.950 . S
H623 C632 0.950 . S
H624 C634 0.950 . S
H625 C636 0.950 . S
H626 C638 0.950 . S
H627 C639 0.950 . S
C628 H620 0.950 . S
C628 C629 1.386 . S
C628 C630 1.391 . S
C629 C628 1.386 . S
C629 C633 1.393 . S
C630 H622 0.950 . S
C630 C628 1.391 . S
C630 C631 1.400 . S
C631 C630 1.400 . S
C631 C632 1.398 . S
C631 C637 1.491 . S
C632 H623 0.950 . S
C632 C631 1.398 . S
C632 C633 1.391 . S
C633 H621 0.950 . S
C633 C629 1.393 . S
C633 C632 1.391 . S
C634 H624 0.950 . S
C634 C635 1.386 . S
C634 C636 1.391 . S
C635 C634 1.386 . S
C635 C639 1.393 . S
C636 H625 0.950 . S
C636 C634 1.391 . S
C636 C637 1.400 . S
C637 C631 1.491 . S
C637 C636 1.400 . S
C637 C638 1.398 . S
C638 H626 0.950 . S
C638 C637 1.398 . S
C638 C639 1.391 . S
C639 H627 0.950 . S
C639 C635 1.393 . S
C639 C638 1.391 . S
C169 C2 1.577 . S
C175 C4 1.577 . S
C189 C24 1.594 . S
C195 C22 1.594 . S
C209 C44 1.583 . S
C215 C42 1.583 . S
C229 C62 1.591 . S
C235 C64 1.591 . S
C249 C82 1.581 . S
C255 C84 1.581 . S
C269 C102 1.584 . S
C275 C104 1.585 . S
C289 C124 1.598 . S
C295 C122 1.598 . S
C309 C144 1.591 . S
C315 C142 1.591 . S
C329 C32 1.838 . S
C335 C12 1.835 . S
C349 C72 1.835 . S
C355 C52 1.838 . S
C369 C92 1.838 . S
C375 C112 1.835 . S
C389 C132 1.835 . S
C395 C152 1.838 . S
C409 C9 1.537 . S
C415 C109 1.538 . S
C429 C89 1.518 . S
C435 C29 1.521 . S
C449 C49 1.532 . S
C455 C149 1.528 . S
C469 C69 1.535 . S
C475 C129 1.538 . S
C489 C18 1.562 . S
C495 C78 1.556 . S
C509 C38 1.543 . S
C515 C58 1.537 . S
C529 C39 1.609 . S
C535 C59 1.612 . S
C549 C79 1.610 . S
C555 C19 1.617 . S
C569 C98 1.558 . S
C575 C158 1.550 . S
C589 C118 1.540 . S
C595 C138 1.540 . S
C609 C119 1.613 . S
C615 C139 1.617 . S
C629 C159 1.614 . S
C635 C99 1.614 . S
