# Generated by pormake.
# Topology whw, (6)-cn, num edge types: 1
# Building blocks:
#     Node 0, Type 0, BuildingBlock: BETFEN_clean_sbu_0, # of connection points: 6
#     Node 1, Type 0, BuildingBlock: BETFEN_clean_sbu_0, # of connection points: 6
#     Node 2, Type 0, BuildingBlock: BETFEN_clean_sbu_0, # of connection points: 6
#     Node 3, Type 0, BuildingBlock: BETFEN_clean_sbu_0, # of connection points: 6
#     Node 4, Type 0, BuildingBlock: BETFEN_clean_sbu_0, # of connection points: 6
#     Node 5, Type 0, BuildingBlock: BETFEN_clean_sbu_0, # of connection points: 6
#     Node 6, Type 0, BuildingBlock: BETFEN_clean_sbu_0, # of connection points: 6
#     Node 7, Type 0, BuildingBlock: BETFEN_clean_sbu_0, # of connection points: 6
#     Node 8, Type 0, BuildingBlock: BETFEN_clean_sbu_0, # of connection points: 6
#     Node 9, Type 0, BuildingBlock: BETFEN_clean_sbu_0, # of connection points: 6
#     Node 10, Type 0, BuildingBlock: BETFEN_clean_sbu_0, # of connection points: 6
#     Node 11, Type 0, BuildingBlock: BETFEN_clean_sbu_0, # of connection points: 6
#     Node 12, Type 0, BuildingBlock: BETFEN_clean_sbu_0, # of connection points: 6
#     Node 13, Type 0, BuildingBlock: BETFEN_clean_sbu_0, # of connection points: 6
#     Node 14, Type 0, BuildingBlock: BETFEN_clean_sbu_0, # of connection points: 6
#     Node 15, Type 0, BuildingBlock: BETFEN_clean_sbu_0, # of connection points: 6
#     Edge 16, Type (0, 0), BuildingBlock: XIVTED_clean_linker_0, # of connection points: 2
#     Edge 17, Type (0, 0), BuildingBlock: XIVTED_clean_linker_0, # of connection points: 2
#     Edge 18, Type (0, 0), BuildingBlock: XIVTED_clean_linker_0, # of connection points: 2
#     Edge 19, Type (0, 0), BuildingBlock: XIVTED_clean_linker_0, # of connection points: 2
#     Edge 20, Type (0, 0), BuildingBlock: XIVTED_clean_linker_0, # of connection points: 2
#     Edge 21, Type (0, 0), BuildingBlock: XIVTED_clean_linker_0, # of connection points: 2
#     Edge 22, Type (0, 0), BuildingBlock: XIVTED_clean_linker_0, # of connection points: 2
#     Edge 23, Type (0, 0), BuildingBlock: XIVTED_clean_linker_0, # of connection points: 2
#     Edge 24, Type (0, 0), BuildingBlock: XIVTED_clean_linker_0, # of connection points: 2
#     Edge 25, Type (0, 0), BuildingBlock: XIVTED_clean_linker_0, # of connection points: 2
#     Edge 26, Type (0, 0), BuildingBlock: XIVTED_clean_linker_0, # of connection points: 2
#     Edge 27, Type (0, 0), BuildingBlock: XIVTED_clean_linker_0, # of connection points: 2
#     Edge 28, Type (0, 0), BuildingBlock: XIVTED_clean_linker_0, # of connection points: 2
#     Edge 29, Type (0, 0), BuildingBlock: XIVTED_clean_linker_0, # of connection points: 2
#     Edge 30, Type (0, 0), BuildingBlock: XIVTED_clean_linker_0, # of connection points: 2
#     Edge 31, Type (0, 0), BuildingBlock: XIVTED_clean_linker_0, # of connection points: 2
#     Edge 32, Type (0, 0), BuildingBlock: XIVTED_clean_linker_0, # of connection points: 2
#     Edge 33, Type (0, 0), BuildingBlock: XIVTED_clean_linker_0, # of connection points: 2
#     Edge 34, Type (0, 0), BuildingBlock: XIVTED_clean_linker_0, # of connection points: 2
#     Edge 35, Type (0, 0), BuildingBlock: XIVTED_clean_linker_0, # of connection points: 2
#     Edge 36, Type (0, 0), BuildingBlock: XIVTED_clean_linker_0, # of connection points: 2
#     Edge 37, Type (0, 0), BuildingBlock: XIVTED_clean_linker_0, # of connection points: 2
#     Edge 38, Type (0, 0), BuildingBlock: XIVTED_clean_linker_0, # of connection points: 2
#     Edge 39, Type (0, 0), BuildingBlock: XIVTED_clean_linker_0, # of connection points: 2
#     Edge 40, Type (0, 0), BuildingBlock: XIVTED_clean_linker_0, # of connection points: 2
#     Edge 41, Type (0, 0), BuildingBlock: XIVTED_clean_linker_0, # of connection points: 2
#     Edge 42, Type (0, 0), BuildingBlock: XIVTED_clean_linker_0, # of connection points: 2
#     Edge 43, Type (0, 0), BuildingBlock: XIVTED_clean_linker_0, # of connection points: 2
#     Edge 44, Type (0, 0), BuildingBlock: XIVTED_clean_linker_0, # of connection points: 2
#     Edge 45, Type (0, 0), BuildingBlock: XIVTED_clean_linker_0, # of connection points: 2
#     Edge 46, Type (0, 0), BuildingBlock: XIVTED_clean_linker_0, # of connection points: 2
#     Edge 47, Type (0, 0), BuildingBlock: XIVTED_clean_linker_0, # of connection points: 2
#     Edge 48, Type (0, 0), BuildingBlock: XIVTED_clean_linker_0, # of connection points: 2
#     Edge 49, Type (0, 0), BuildingBlock: XIVTED_clean_linker_0, # of connection points: 2
#     Edge 50, Type (0, 0), BuildingBlock: XIVTED_clean_linker_0, # of connection points: 2
#     Edge 51, Type (0, 0), BuildingBlock: XIVTED_clean_linker_0, # of connection points: 2
#     Edge 52, Type (0, 0), BuildingBlock: XIVTED_clean_linker_0, # of connection points: 2
#     Edge 53, Type (0, 0), BuildingBlock: XIVTED_clean_linker_0, # of connection points: 2
#     Edge 54, Type (0, 0), BuildingBlock: XIVTED_clean_linker_0, # of connection points: 2
#     Edge 55, Type (0, 0), BuildingBlock: XIVTED_clean_linker_0, # of connection points: 2
#     Edge 56, Type (0, 0), BuildingBlock: XIVTED_clean_linker_0, # of connection points: 2
#     Edge 57, Type (0, 0), BuildingBlock: XIVTED_clean_linker_0, # of connection points: 2
#     Edge 58, Type (0, 0), BuildingBlock: XIVTED_clean_linker_0, # of connection points: 2
#     Edge 59, Type (0, 0), BuildingBlock: XIVTED_clean_linker_0, # of connection points: 2
#     Edge 60, Type (0, 0), BuildingBlock: XIVTED_clean_linker_0, # of connection points: 2
#     Edge 61, Type (0, 0), BuildingBlock: XIVTED_clean_linker_0, # of connection points: 2
#     Edge 62, Type (0, 0), BuildingBlock: XIVTED_clean_linker_0, # of connection points: 2
#     Edge 63, Type (0, 0), BuildingBlock: XIVTED_clean_linker_0, # of connection points: 2
# Relax obj value: 0.354
# Max RMSD: 0.239
# Mean RMSD: 0.210
data_MOF--net-whw--node1-BETFEN_clean_sbu_0--edge1-XIVTED_clean_linker_0
_symmetry_space_group_name_H-M    P1
_symmetry_Int_Tables_number       1
_symmetry_cell_setting            triclinic
loop_
_symmetry_equiv_pos_as_xyz
'x, y, z'
_cell_length_a     46.945802
_cell_length_b     46.706791
_cell_length_c     34.942984
_cell_angle_alpha  90.143912
_cell_angle_beta   83.817092
_cell_angle_gamma 94.161436
loop_
_atom_site_label
_atom_site_type_symbol
_atom_site_fract_x
_atom_site_fract_y
_atom_site_fract_z
_atom_type_partial_charge
Pr0 Pr 0.04494 0.12179 0.18568 0.0
Pr1 Pr 0.01495 0.14397 0.10752 0.0
C2 C 0.05545 0.12507 0.26094 0.0
C3 C 0.0596 0.12971 0.30304 0.0
C4 C 0.07844 0.11419 0.32241 0.0
C5 C 0.08294 0.12029 0.36123 0.0
C6 C 0.06895 0.14231 0.38199 0.0
C7 C 0.0498 0.15739 0.36255 0.0
C8 C 0.04522 0.15122 0.32409 0.0
C9 C 0.03821 0.08227 0.12694 0.0
C10 C 0.9723 0.11166 0.17835 0.0
C11 C -0.00044 0.15785 0.03723 0.0
C12 C -0.00902 0.16643 0.99849 0.0
C13 C 0.98648 0.19522 0.99036 0.0
C14 C 0.9785 0.20348 0.95437 0.0
C15 C 0.97496 0.18342 0.92454 0.0
C16 C 0.97941 0.15451 0.93292 0.0
C17 C 0.9872 0.14621 0.96911 0.0
C18 C 0.01797 0.17986 0.17071 0.0
C19 C 0.08738 0.14479 0.11024 0.0
O20 O 0.03681 0.13943 0.24539 0.0
O21 O 0.06864 0.10716 0.23714 0.0
O22 O 0.02201 0.10181 0.13709 0.0
O23 O 0.05742 0.07973 0.15118 0.0
O24 O 0.97371 0.12237 0.14294 0.0
O25 O -0.00498 0.10996 0.19787 0.0
O26 O 0.00075 0.1311 0.04831 0.0
O27 O 0.00641 0.17694 0.0629 0.0
O28 O 0.03711 0.16396 0.1574 0.0
O29 O -0.0028 0.17948 0.14878 0.0
O30 O 0.0857 0.14073 0.14792 0.0
O31 O 0.06483 0.14405 0.09019 0.0
H32 H 0.09005 0.09756 0.30743 0.0
H33 H 0.09799 0.10815 0.37466 0.0
H34 H 0.03801 0.17406 0.37714 0.0
H35 H 0.0304 0.16368 0.31072 0.0
H36 H -0.01096 0.21156 1.01201 0.0
H37 H 0.97542 0.22588 0.95001 0.0
H38 H 0.97643 0.13794 0.91175 0.0
H39 H -0.00972 0.12382 0.97404 0.0
Pr40 Pr 0.16534 0.79333 0.39748 0.0
Pr41 Pr 0.1698 0.73501 0.35708 0.0
C42 C 0.15687 0.83875 0.44415 0.0
C43 C 0.14589 0.84728 0.48334 0.0
C44 C 0.13015 0.87166 0.48782 0.0
C45 C 0.11964 0.88069 0.52444 0.0
C46 C 0.12469 0.86552 0.55749 0.0
C47 C 0.14066 0.84112 0.55296 0.0
C48 C 0.1511 0.83201 0.51616 0.0
C49 C 0.21658 0.78795 0.35063 0.0
C50 C 0.1756 0.73492 0.44812 0.0
C51 C 0.17928 0.69305 0.30497 0.0
C52 C 0.1663 0.68491 0.26953 0.0
C53 C 0.14115 0.69698 0.26107 0.0
C54 C 0.12835 0.68886 0.22796 0.0
C55 C 0.1405 0.66858 0.20246 0.0
C56 C 0.16596 0.65684 0.21083 0.0
C57 C 0.1787 0.66491 0.24411 0.0
C58 C 0.11668 0.74125 0.39837 0.0
C59 C 0.14813 0.7913 0.30986 0.0
O60 O 0.13795 0.82848 0.42185 0.0
O61 O 0.18092 0.82598 0.43986 0.0
O62 O 0.20434 0.76859 0.37324 0.0
O63 O 0.20325 0.81133 0.35354 0.0
O64 O 0.18515 0.72221 0.41586 0.0
O65 O 0.16399 0.75984 0.44769 0.0
O66 O 0.19478 0.71751 0.3039 0.0
O67 O 0.16238 0.68925 0.33705 0.0
O68 O 0.13105 0.76064 0.37806 0.0
O69 O 0.12859 0.71703 0.39521 0.0
O70 O 0.14577 0.80605 0.34212 0.0
O71 O 0.15808 0.76551 0.30831 0.0
H72 H 0.12604 0.88383 0.46288 0.0
H73 H 0.10776 0.89975 0.52688 0.0
H74 H 0.14465 0.82879 0.5778 0.0
H75 H 0.16314 0.81305 0.51339 0.0
H76 H 0.13132 0.71262 0.28023 0.0
H77 H 0.10904 0.69868 0.22215 0.0
H78 H 0.17577 0.641 0.19202 0.0
H79 H 0.19811 0.65537 0.25014 0.0
Pr80 Pr 0.45845 0.82878 0.64712 0.0
Pr81 Pr 0.51503 0.86182 0.65809 0.0
C82 C 0.40752 0.81089 0.62346 0.0
C83 C 0.39386 0.81722 0.58905 0.0
C84 C 0.41037 0.83085 0.55763 0.0
C85 C 0.39724 0.84008 0.52649 0.0
C86 C 0.36732 0.83581 0.52617 0.0
C87 C 0.35084 0.82152 0.55734 0.0
C88 C 0.36407 0.81245 0.58879 0.0
C89 C 0.49727 0.79816 0.68266 0.0
C90 C 0.51275 0.82705 0.57599 0.0
C91 C 0.56161 0.88821 0.685 0.0
C92 C 0.57325 0.88507 0.72192 0.0
C93 C 0.59226 0.90642 0.73525 0.0
C94 C 0.60141 0.90394 0.7719 0.0
C95 C 0.59189 0.87987 0.79515 0.0
C96 C 0.57309 0.8585 0.78142 0.0
C97 C 0.5636 0.86127 0.74536 0.0
C98 C 0.48178 0.89086 0.6124 0.0
C99 C 0.46532 0.84593 0.73566 0.0
O100 O 0.41099 0.83288 0.64612 0.0
O101 O 0.43015 0.79592 0.6182 0.0
O102 O 0.50271 0.81476 0.65455 0.0
O103 O 0.46971 0.79386 0.69193 0.0
O104 O 0.53049 0.83761 0.60059 0.0
O105 O 0.48453 0.82542 0.58542 0.0
O106 O 0.56292 0.86589 0.66235 0.0
O107 O 0.53675 0.89941 0.68726 0.0
O108 O 0.47151 0.8778 0.64328 0.0
O109 O 0.50937 0.89027 0.60645 0.0
O110 O 0.44625 0.84012 0.71126 0.0
O111 O 0.49267 0.85267 0.72284 0.0
H112 H 0.4334 0.8348 0.55751 0.0
H113 H 0.41058 0.85046 0.50251 0.0
H114 H 0.32776 0.81793 0.55775 0.0
H115 H 0.35102 0.80225 0.61314 0.0
H116 H 0.59955 0.92516 0.7177 0.0
H117 H 0.61577 0.92076 0.78212 0.0
H118 H 0.56491 0.84008 0.79914 0.0
H119 H 0.54814 0.84514 0.73618 0.0
Pr120 Pr 0.35276 0.19458 0.94392 0.0
Pr121 Pr 0.34801 0.25287 0.9058 0.0
C122 C 0.36136 0.14862 0.98667 0.0
C123 C 0.37121 0.13973 1.02309 0.0
C124 C 0.38553 0.1145 1.02383 0.0
C125 C 0.39492 0.10518 0.05794 0.0
C126 C 0.39013 0.12094 0.09208 0.0
C127 C 0.37559 0.14623 0.09132 0.0
C128 C 0.36627 0.1556 0.05703 0.0
C129 C 0.30015 0.20163 0.91673 0.0
C130 C 0.34348 0.25269 0.99828 0.0
C131 C 0.33778 0.29482 0.8573 0.0
C132 C 0.3504 0.30234 0.81781 0.0
C133 C 0.37493 0.28935 0.80173 0.0
C134 C 0.38748 0.29674 0.76463 0.0
C135 C 0.37571 0.31725 0.74271 0.0
C136 C 0.35082 0.32989 0.75874 0.0
C137 C 0.33831 0.32253 0.79602 0.0
C138 C 0.40169 0.24613 0.92934 0.0
C139 C 0.36718 0.19611 0.85109 0.0
O140 O 0.38084 0.16017 0.96057 0.0
O141 O 0.33688 0.16054 0.98853 0.0
O142 O 0.31381 0.22046 0.93494 0.0
O143 O 0.31315 0.17806 0.91304 0.0
O144 O 0.33333 0.26538 0.96932 0.0
O145 O 0.35534 0.22793 0.9938 0.0
O146 O 0.32202 0.27051 0.86124 0.0
O147 O 0.35518 0.29865 0.88395 0.0
O148 O 0.38686 0.22685 0.9135 0.0
O149 O 0.39 0.27048 0.9304 0.0
O150 O 0.37028 0.18142 0.88229 0.0
O151 O 0.35746 0.222 0.85305 0.0
H152 H 0.38939 0.1019 0.99794 0.0
H153 H 0.40572 0.08545 0.05765 0.0
H154 H 0.37188 0.15901 0.11703 0.0
H155 H 0.35528 0.1752 0.05701 0.0
H156 H 0.3845 0.27356 0.818 0.0
H157 H 0.40633 0.28624 0.75301 0.0
H158 H 0.34134 0.34591 0.74277 0.0
H159 H 0.31936 0.33275 0.80793 0.0
Pr160 Pr 0.03502 0.90127 0.91436 0.0
Pr161 Pr 0.9763 0.89466 0.88167 0.0
C162 C 0.07835 0.91292 0.95806 0.0
C163 C 0.08533 0.90315 0.99588 0.0
C164 C 0.11246 0.89324 0.99914 0.0
C165 C 0.11883 0.88199 0.03401 0.0
C166 C 0.0982 0.88051 0.06641 0.0
C167 C 0.0712 0.89099 0.06329 0.0
C168 C 0.06479 0.90212 1.02835 0.0
C169 C 0.02427 0.84864 0.87999 0.0
C170 C 0.97542 0.87769 0.97235 0.0
C171 C 0.93133 0.8839 0.84021 0.0
C172 C 0.92372 0.87238 0.80288 0.0
C173 C 0.90186 0.8843 0.78515 0.0
C174 C 0.89288 0.87259 0.75111 0.0
C175 C 0.90551 0.84856 0.73416 0.0
C176 C 0.92797 0.83712 0.75154 0.0
C177 C 0.93702 0.84894 0.7855 0.0
C178 C -0.01192 0.94667 0.91849 0.0
C179 C 0.03651 0.90893 0.82274 0.0
O180 O 0.05652 0.92878 0.9579 0.0
O181 O 0.07936 0.89381 0.93067 0.0
O182 O 0.00569 0.86147 0.90111 0.0
O183 O 0.04955 0.86209 0.87836 0.0
O184 O 0.9604 0.87572 0.94251 0.0
O185 O 0.00266 0.88783 0.96892 0.0
O186 O 0.93909 0.86566 0.86483 0.0
O187 O 0.94607 0.90878 0.83987 0.0
O188 O 0.00577 0.93419 0.89568 0.0
O189 O 0.96279 0.93314 0.92094 0.0
O190 O 0.04975 0.9186 0.85223 0.0
O191 O 0.01057 0.89563 0.82767 0.0
H192 H 0.12862 0.89382 0.97449 0.0
H193 H 0.13995 0.87443 0.03561 0.0
H194 H 0.05474 0.88988 0.08758 0.0
H195 H 0.0436 0.90945 1.02662 0.0
H196 H 0.89129 0.90238 0.79809 0.0
H197 H 0.87541 0.88182 0.73877 0.0
H198 H 0.93852 0.81894 0.73896 0.0
H199 H 0.95411 0.83948 0.79844 0.0
Pr200 Pr 0.4159 0.80055 0.10901 0.0
Pr201 Pr 0.41467 0.73827 0.08301 0.0
C202 C 0.4024 0.84859 0.14688 0.0
C203 C 0.38716 0.85306 0.18491 0.0
C204 C 0.37996 0.82956 0.20976 0.0
C205 C 0.36546 0.83334 0.24608 0.0
C206 C 0.35789 0.86076 0.25831 0.0
C207 C 0.36446 0.88418 0.23278 0.0
C208 C 0.37899 0.88031 0.19624 0.0
C209 C 0.46459 0.78804 0.06161 0.0
C210 C 0.43865 0.7495 0.16673 0.0
C211 C 0.41238 0.68833 0.04527 0.0
C212 C 0.40993 0.68198 1.00454 0.0
C213 C 0.38808 0.66213 0.99472 0.0
C214 C 0.3824 0.6591 0.95643 0.0
C215 C 0.39862 0.67582 0.92727 0.0
C216 C 0.42084 0.69536 0.93728 0.0
C217 C 0.42629 0.69856 0.97552 0.0
C218 C 0.36883 0.75067 0.13582 0.0
C219 C 0.41083 0.79055 1.01661 0.0
O220 O 0.3865 0.8362 0.12216 0.0
O221 O 0.42758 0.83809 0.14664 0.0
O222 O 0.45146 0.77195 0.08777 0.0
O223 O 0.45556 0.81373 0.06385 0.0
O224 O 0.43987 0.73196 0.13677 0.0
O225 O 0.42791 0.77504 0.16432 0.0
O226 O 0.43666 0.70111 0.05396 0.0
O227 O 0.38971 0.69908 0.06311 0.0
O228 O 0.37838 0.76663 0.10725 0.0
O229 O 0.38235 0.72753 0.1365 0.0
O230 O 0.40779 0.80937 0.04485 0.0
O231 O 0.41384 0.76322 1.02393 0.0
H232 H 0.38593 0.80831 0.20123 0.0
H233 H 0.36127 0.81489 0.2651 0.0
H234 H 0.35874 0.90551 0.24125 0.0
H235 H 0.38409 0.89858 0.17704 0.0
H236 H 0.37481 0.6496 1.01685 0.0
H237 H 0.36502 0.64401 0.94982 0.0
H238 H 0.43426 0.7081 0.91555 0.0
H239 H 0.44291 0.71446 0.98239 0.0
Pr240 Pr 0.47595 0.08357 0.42366 0.0
Pr241 Pr 0.5354 0.08693 0.37595 0.0
C242 C 0.43144 0.07294 0.47827 0.0
C243 C 0.42458 0.08221 0.51838 0.0
C244 C 0.39767 0.09251 0.52977 0.0
C245 C 0.39164 0.10383 0.56658 0.0
C246 C 0.41243 0.105 0.59279 0.0
C247 C 0.43918 0.09403 0.58162 0.0
C248 C 0.44524 0.08282 0.54472 0.0
C249 C 0.48983 0.1357 0.38625 0.0
C250 C 0.53571 0.10409 0.46641 0.0
C251 C 0.58165 0.09547 0.32277 0.0
C252 C 0.59127 0.1076 0.28386 0.0
C253 C 0.57688 0.10024 0.25151 0.0
C254 C 0.58707 0.11178 0.21504 0.0
C255 C 0.61176 0.13104 0.21017 0.0
C256 C 0.62605 0.1382 0.2427 0.0
C257 C 0.61595 0.12661 0.27896 0.0
C258 C 0.51851 0.03533 0.41571 0.0
C259 C 0.47586 0.07592 0.3323 0.0
O260 O 0.45225 0.05577 0.47153 0.0
O261 O 0.43198 0.09294 0.45205 0.0
O262 O 0.50746 0.12198 0.40259 0.0
O263 O 0.46396 0.12348 0.39134 0.0
O264 O 0.55116 0.10526 0.43252 0.0
O265 O 0.50808 0.09527 0.47021 0.0
O266 O 0.57516 0.11366 0.35031 0.0
O267 O 0.56498 0.07167 0.32551 0.0
O268 O 0.50313 0.04925 0.39635 0.0
O269 O 0.54447 0.04741 0.41366 0.0
O270 O 0.46163 0.06692 0.36525 0.0
O271 O 0.50225 0.08811 0.33058 0.0
H272 H 0.38147 0.0923 0.50988 0.0
H273 H 0.37071 0.11176 0.5745 0.0
H274 H 0.45575 0.09488 0.60098 0.0
H275 H 0.46627 0.0752 0.53658 0.0
H276 H 0.55776 0.08565 0.25436 0.0
H277 H 0.57533 0.106 0.1908 0.0
H278 H 0.64533 0.15257 0.2401 0.0
H279 H 0.62758 0.13246 0.30331 0.0
Pr280 Pr 0.0881 0.18202 0.75825 0.0
Pr281 Pr 0.08695 0.24614 0.7321 0.0
C282 C 0.10823 0.13194 0.77703 0.0
C283 C 0.12618 0.12303 0.80658 0.0
C284 C 0.11331 0.10729 0.8388 0.0
C285 C 0.12835 0.10398 0.87064 0.0
C286 C 0.15652 0.11646 0.87089 0.0
C287 C 0.17036 0.12969 0.83725 0.0
C288 C 0.15542 0.13263 0.80515 0.0
C289 C 0.03565 0.19743 0.74016 0.0
C290 C 0.06133 0.23003 0.82113 0.0
C291 C 0.08431 0.29673 0.69726 0.0
C292 C 0.08137 0.30481 0.65759 0.0
C293 C 0.09147 0.33221 0.64388 0.0
C294 C 0.09251 0.3386 0.60469 0.0
C295 C 0.08355 0.31756 0.57876 0.0
C296 C 0.07259 0.2904 0.59301 0.0
C297 C 0.07166 0.28406 0.63207 0.0
C298 C 0.1316 0.23484 0.77484 0.0
C299 C 0.09485 0.19513 0.66223 0.0
O300 O 0.12093 0.14889 0.7496 0.0
O301 O 0.08249 0.13929 0.78968 0.0
O302 O 0.05987 0.20547 0.72397 0.0
O303 O 0.037 0.17626 0.76394 0.0
O304 O 0.05697 0.24535 0.79065 0.0
O305 O 0.07741 0.20754 0.81719 0.0
O306 O 0.06177 0.283 0.71632 0.0
O307 O 0.10858 0.28563 0.70177 0.0
O308 O 0.12293 0.21918 0.74842 0.0
O309 O 0.11776 0.25781 0.77912 0.0
O310 O 0.09227 0.17519 0.68987 0.0
O311 O 0.09483 0.22283 0.67119 0.0
H312 H 0.091 0.09916 0.84041 0.0
H313 H 0.117 0.0938 0.89625 0.0
H314 H 0.19218 0.13913 0.83659 0.0
H315 H 0.16634 0.14383 0.7801 0.0
H316 H 0.09947 0.3483 0.66322 0.0
H317 H 0.10136 0.35961 0.59455 0.0
H318 H 0.06495 0.27393 0.57395 0.0
H319 H 0.0639 0.26274 0.64225 0.0
Pr320 Pr 0.89642 0.29622 0.60351 0.0
Pr321 Pr 0.90069 0.2346 0.57517 0.0
C322 C 0.88204 0.34391 0.64201 0.0
C323 C 0.86848 0.3496 0.68074 0.0
C324 C 0.87376 0.37619 0.6981 0.0
C325 C 0.86256 0.38072 0.73617 0.0
C326 C 0.84545 0.35881 0.75723 0.0
C327 C 0.83941 0.33255 0.73884 0.0
C328 C 0.85145 0.32782 0.7014 0.0
C329 C 0.95023 0.28552 0.56652 0.0
C330 C 0.91638 0.24567 0.66376 0.0
C331 C 0.90501 0.18408 0.53851 0.0
C332 C 0.9047 0.17299 0.49921 0.0
C333 C 0.89175 0.14551 0.49383 0.0
C334 C 0.88864 0.13534 0.4568 0.0
C335 C 0.89851 0.15249 0.42436 0.0
C336 C 0.91162 0.18008 0.42994 0.0
C337 C 0.91456 0.19029 0.46707 0.0
C338 C 0.85062 0.24296 0.62265 0.0
C339 C 0.89836 0.28816 0.50996 0.0
O340 O 0.86552 0.33033 0.61891 0.0
O341 O 0.90764 0.33436 0.64045 0.0
O342 O 0.93432 0.26897 0.58943 0.0
O343 O 0.9394 0.31028 0.56486 0.0
O344 O 0.92139 0.22901 0.63326 0.0
O345 O 0.90409 0.27028 0.66045 0.0
O346 O 0.92751 0.20041 0.54647 0.0
O347 O 0.88068 0.19327 0.55351 0.0
O348 O 0.86131 0.26043 0.59613 0.0
O349 O 0.86504 0.22044 0.6232 0.0
O350 O 0.89032 0.30539 0.5386 0.0
O351 O 0.90435 0.2615 0.51686 0.0
H352 H 0.88727 0.39311 0.68266 0.0
H353 H 0.86831 0.401 0.74939 0.0
H354 H 0.82595 0.31529 0.75353 0.0
H355 H 0.84808 0.30688 0.68886 0.0
H356 H 0.88354 0.13208 0.51839 0.0
H357 H 0.87814 0.11418 0.45363 0.0
H358 H 0.91991 0.19368 0.40563 0.0
H359 H 0.92426 0.21176 0.47068 0.0
Pr360 Pr 0.60394 0.69456 0.25158 0.0
Pr361 Pr 0.59867 0.75701 0.22247 0.0
C362 C 0.62294 0.64816 0.28336 0.0
C363 C 0.63933 0.64207 0.31544 0.0
C364 C 0.63711 0.61447 0.33128 0.0
C365 C 0.65102 0.60893 0.36354 0.0
C366 C 0.66791 0.63084 0.38022 0.0
C367 C 0.67131 0.65815 0.36257 0.0
C368 C 0.65657 0.66383 0.33112 0.0
C369 C 0.55091 0.70315 0.22754 0.0
C370 C 0.58334 0.74673 0.31533 0.0
C371 C 0.59298 0.80771 0.18843 0.0
C372 C 0.59183 0.81752 0.14893 0.0
C373 C 0.59615 0.8468 0.13986 0.0
C374 C 0.59869 0.85587 0.10144 0.0
C375 C 0.59717 0.83568 0.07163 0.0
C376 C 0.5922 0.80638 0.08116 0.0
C377 C 0.5895 0.79743 0.11947 0.0
C378 C 0.64964 0.74749 0.25264 0.0
C379 C 0.60451 0.70365 0.15632 0.0
O380 O 0.63726 0.66249 0.25442 0.0
O381 O 0.59711 0.65663 0.29262 0.0
O382 O 0.56582 0.72086 0.24592 0.0
O383 O 0.5618 0.67825 0.22596 0.0
O384 O 0.57929 0.7633 0.28606 0.0
O385 O 0.59462 0.72142 0.30993 0.0
O386 O 0.57104 0.79123 0.2039 0.0
O387 O 0.61769 0.79869 0.19507 0.0
O388 O 0.63736 0.73058 0.23025 0.0
O389 O 0.63601 0.77044 0.25897 0.0
O390 O 0.60895 0.68556 0.18404 0.0
O391 O 0.59978 0.73079 0.16411 0.0
H392 H 0.62374 0.59744 0.31959 0.0
H393 H 0.64708 0.58779 0.37645 0.0
H394 H 0.6844 0.67554 0.37386 0.0
H395 H 0.65792 0.68542 0.31977 0.0
H396 H 0.59837 0.86255 0.16236 0.0
H397 H 0.6028 0.87856 0.09506 0.0
H398 H 0.59031 0.79029 0.05902 0.0
H399 H 0.58608 0.77479 0.12611 0.0
Pr400 Pr 0.66073 0.28475 0.90287 0.0
Pr401 Pr 0.66188 0.22671 0.86056 0.0
C402 C 0.65475 0.32934 0.95171 0.0
C403 C 0.64339 0.33769 0.99099 0.0
C404 C 0.65122 0.32464 1.02418 0.0
C405 C 0.64055 0.33381 0.0609 0.0
C406 C 0.62175 0.35605 0.0651 0.0
C407 C 0.61414 0.36904 0.03174 0.0
C408 C 0.62487 0.35999 0.99521 0.0
C409 C 0.71024 0.27847 0.85267 0.0
C410 C 0.66884 0.2245 0.95133 0.0
C411 C 0.66876 0.18509 0.80718 0.0
C412 C 0.65556 0.17782 0.77159 0.0
C413 C 0.63072 0.19061 0.76342 0.0
C414 C 0.61774 0.18316 0.73018 0.0
C415 C 0.62938 0.16283 0.7043 0.0
C416 C 0.65454 0.15038 0.71241 0.0
C417 C 0.66746 0.15779 0.74577 0.0
C418 C 0.61005 0.23454 0.90439 0.0
C419 C 0.64126 0.28492 0.81624 0.0
O420 O 0.63595 0.32153 0.92791 0.0
O421 O 0.67766 0.31473 0.9476 0.0
O422 O 0.69803 0.25902 0.87521 0.0
O423 O 0.69825 0.30248 0.85814 0.0
O424 O 0.67739 0.21194 0.91849 0.0
O425 O 0.65857 0.25011 0.95187 0.0
O426 O 0.68536 0.20885 0.80644 0.0
O427 O 0.65178 0.18172 0.83925 0.0
O428 O 0.62475 0.25374 0.8841 0.0
O429 O 0.62092 0.20983 0.89996 0.0
O430 O 0.64071 0.29944 0.84871 0.0
O431 O 0.64961 0.25848 0.81367 0.0
H432 H 0.6655 0.30738 1.0218 0.0
H433 H 0.64661 0.32315 0.08597 0.0
H434 H 0.60009 0.3865 0.03383 0.0
H435 H 0.61875 0.37058 0.97009 0.0
H436 H 0.62128 0.20627 0.78289 0.0
H437 H 0.59869 0.19352 0.72461 0.0
H438 H 0.66395 0.13446 0.69336 0.0
H439 H 0.68661 0.14768 0.75157 0.0
Pr440 Pr 0.8582 0.69413 0.44013 0.0
Pr441 Pr 0.85507 0.75191 0.40054 0.0
C442 C 0.86422 0.64951 0.48678 0.0
C443 C 0.87399 0.64334 0.52445 0.0
C444 C 0.85755 0.62366 0.54962 0.0
C445 C 0.86675 0.61693 0.5851 0.0
C446 C 0.8927 0.62969 0.59607 0.0
C447 C 0.90902 0.64955 0.57071 0.0
C448 C 0.89971 0.65642 0.53542 0.0
C449 C 0.80691 0.70124 0.40912 0.0
C450 C 0.84903 0.75305 0.49308 0.0
C451 C 0.84582 0.79366 0.35097 0.0
C452 C 0.85759 0.80101 0.31107 0.0
C453 C 0.88166 0.78784 0.29383 0.0
C454 C 0.89349 0.79541 0.25644 0.0
C455 C 0.88142 0.81626 0.23541 0.0
C456 C 0.85694 0.82901 0.25261 0.0
C457 C 0.84519 0.82148 0.29014 0.0
C458 C 0.90765 0.74569 0.42774 0.0
C459 C 0.87571 0.69445 0.34798 0.0
O460 O 0.8838 0.65861 0.4591 0.0
O461 O 0.84035 0.66235 0.48722 0.0
O462 O 0.81999 0.71995 0.42818 0.0
O463 O 0.81976 0.67755 0.40665 0.0
O464 O 0.8395 0.76551 0.46347 0.0
O465 O 0.86057 0.7281 0.48935 0.0
O466 O 0.82944 0.7698 0.35572 0.0
O467 O 0.86393 0.79706 0.37679 0.0
O468 O 0.89365 0.72607 0.41119 0.0
O469 O 0.89555 0.7698 0.428 0.0
O470 O 0.87773 0.68005 0.37982 0.0
O471 O 0.86618 0.72044 0.3488 0.0
H472 H 0.83758 0.6134 0.54175 0.0
H473 H 0.85341 0.60188 0.60401 0.0
H474 H 0.92936 0.65948 0.57773 0.0
H475 H 0.91279 0.67174 0.51658 0.0
H476 H 0.89147 0.77183 0.30944 0.0
H477 H 0.91203 0.78483 0.24393 0.0
H478 H 0.84725 0.8453 0.23739 0.0
H479 H 0.8266 0.83187 0.30296 0.0
Pr480 Pr 0.54298 0.61168 0.69418 0.0
Pr481 Pr 0.52698 0.63585 0.60855 0.0
C482 C 0.55807 0.60676 0.76711 0.0
C483 C 0.56029 0.6175 0.80745 0.0
C484 C 0.57272 0.60051 0.83342 0.0
C485 C 0.57678 0.6101 0.87087 0.0
C486 C 0.56849 0.63719 0.88414 0.0
C487 C 0.55578 0.65419 0.85795 0.0
C488 C 0.55178 0.64452 0.82025 0.0
C489 C 0.52332 0.57128 0.64219 0.0
C490 C 0.47959 0.63854 0.68671 0.0
C491 C 0.50544 0.64886 0.54167 0.0
C492 C 0.50397 0.65994 0.50126 0.0
C493 C 0.49813 0.6409 0.47122 0.0
C494 C 0.49305 0.65105 0.4346 0.0
C495 C 0.49341 0.68075 0.42648 0.0
C496 C 0.49976 0.69968 0.45656 0.0
C497 C 0.5049 0.68956 0.49309 0.0
C498 C 0.56338 0.66968 0.65154 0.0
C499 C 0.5879 0.60681 0.61538 0.0
O500 O 0.57482 0.6193 0.73864 0.0
O501 O 0.53327 0.59636 0.75686 0.0
O502 O 0.51494 0.5961 0.64732 0.0
O503 O 0.54093 0.56526 0.66702 0.0
O504 O 0.4842 0.64048 0.64873 0.0
O505 O 0.49863 0.63063 0.7092 0.0
O506 O 0.51484 0.62367 0.54821 0.0
O507 O 0.50768 0.6669 0.57025 0.0
O508 O 0.54155 0.6543 0.66415 0.0
O509 O 0.56573 0.67097 0.61405 0.0
O510 O 0.58595 0.61271 0.65269 0.0
O511 O 0.56638 0.60859 0.59401 0.0
H512 H 0.5798 0.57973 0.82448 0.0
H513 H 0.58713 0.59632 0.88909 0.0
H514 H 0.54865 0.67499 0.86657 0.0
H515 H 0.54215 0.65824 0.80111 0.0
H516 H 0.49664 0.61795 0.47634 0.0
H517 H 0.48785 0.63538 0.41311 0.0
H518 H 0.50065 0.72257 0.4521 0.0
H519 H 0.50899 0.70511 0.51525 0.0
Pr520 Pr 0.94231 0.34146 0.14659 0.0
Pr521 Pr 0.00631 0.34655 0.15806 0.0
C522 C 0.88875 0.35311 0.1341 0.0
C523 C 0.87425 0.36228 0.10167 0.0
C524 C 0.84529 0.35342 0.0999 0.0
C525 C 0.83221 0.35875 0.06684 0.0
C526 C 0.848 0.37306 0.03517 0.0
C527 C 0.87665 0.38322 0.03793 0.0
C528 C 0.88972 0.37774 0.07088 0.0
C529 C 0.9598 0.29478 0.1851 0.0
C530 C -0.0113 0.3107 0.08274 0.0
C531 C 0.05847 0.35151 0.18274 0.0
C532 C 0.06821 0.35192 0.22128 0.0
C533 C 0.0527 0.36575 0.25162 0.0
C534 C 0.06032 0.36415 0.28888 0.0
C535 C 0.08363 0.34869 0.29665 0.0
C536 C 0.09952 0.33526 0.26613 0.0
C537 C 0.09183 0.33689 0.22866 0.0
C538 C -0.00924 0.38429 0.10307 0.0
C539 C 0.95733 0.35843 0.23605 0.0
O540 O 0.90714 0.37203 0.1473 0.0
O541 O 0.89786 0.3273 0.13141 0.0
O542 O 0.96839 0.32044 0.18705 0.0
O543 O 0.93904 0.29187 0.16321 0.0
O544 O 0.00537 0.31033 0.11103 0.0
O545 O 0.96524 0.32534 0.08668 0.0
O546 O 0.04662 0.32684 0.1721 0.0
O547 O 0.04482 0.3737 0.17386 0.0
O548 O 0.97688 0.37922 0.13562 0.0
O549 O 0.01379 0.37053 0.099 0.0
O550 O 0.93674 0.35465 0.2129 0.0
O551 O 0.98469 0.357 0.22176 0.0
H552 H 0.83311 0.34142 0.12348 0.0
H553 H 0.81009 0.35079 0.06548 0.0
H554 H 0.8895 0.39388 1.01377 0.0
H555 H 0.91222 0.38453 0.07168 0.0
H556 H 0.03421 0.37729 0.24679 0.0
H557 H 0.04726 0.3742 0.31183 0.0
H558 H 0.11766 0.32329 0.2713 0.0
H559 H 0.10394 0.32596 0.20561 0.0
Pr560 Pr 0.52966 0.39806 0.42113 0.0
Pr561 Pr 0.47171 0.39098 0.38721 0.0
C562 C 0.57171 0.41047 0.46673 0.0
C563 C 0.57843 0.3979 0.50293 0.0
C564 C 0.5638 0.37212 0.51682 0.0
C565 C 0.56994 0.36008 0.55128 0.0
C566 C 0.59079 0.37364 0.57262 0.0
C567 C 0.60517 0.39968 0.55876 0.0
C568 C 0.59905 0.41169 0.52414 0.0
C569 C 0.51951 0.34472 0.38849 0.0
C570 C 0.46948 0.37459 0.47811 0.0
C571 C 0.42692 0.38064 0.34548 0.0
C572 C 0.41922 0.3694 0.3082 0.0
C573 C 0.39701 0.38122 0.29114 0.0
C574 C 0.38797 0.3698 0.25703 0.0
C575 C 0.40092 0.3462 0.2394 0.0
C576 C 0.42374 0.33488 0.2561 0.0
C577 C 0.43285 0.34641 0.29014 0.0
C578 C 0.48266 0.44348 0.42314 0.0
C579 C 0.53241 0.40381 0.32901 0.0
O580 O 0.54804 0.42374 0.469 0.0
O581 O 0.57485 0.39409 0.43642 0.0
O582 O 0.50058 0.35794 0.40838 0.0
O583 O 0.54484 0.35791 0.38788 0.0
O584 O 0.45488 0.37246 0.4479 0.0
O585 O 0.49673 0.38461 0.47513 0.0
O586 O 0.4345 0.36221 0.36998 0.0
O587 O 0.44192 0.40537 0.34513 0.0
O588 O 0.5008 0.43091 0.40107 0.0
O589 O 0.45756 0.42965 0.42542 0.0
O590 O 0.54524 0.41425 0.35848 0.0
O591 O 0.50643 0.39061 0.33393 0.0
H592 H 0.54759 0.36131 0.50097 0.0
H593 H 0.55813 0.34027 0.56141 0.0
H594 H 0.62151 0.41053 0.57434 0.0
H595 H 0.61045 0.43168 0.51389 0.0
H596 H 0.38623 0.39898 0.30466 0.0
H597 H 0.37022 0.37889 0.24517 0.0
H598 H 0.43449 0.317 0.24293 0.0
H599 H 0.45023 0.33709 0.30262 0.0
Pr600 Pr -0.0109 0.58517 0.9217 0.0
Pr601 Pr 0.04795 0.59381 0.87319 0.0
C602 C 0.94602 0.57004 0.97676 0.0
C603 C 0.93816 0.5795 1.01667 0.0
C604 C 0.9106 0.58862 1.02722 0.0
C605 C 0.90359 0.60029 0.06362 0.0
C606 C 0.924 0.60298 0.09033 0.0
C607 C 0.95138 0.59311 0.08007 0.0
C608 C 0.95843 0.58158 0.04357 0.0
C609 C -0.00065 0.63949 0.88967 0.0
C610 C 0.04833 0.60837 0.96425 0.0
C611 C 0.09322 0.60507 0.81934 0.0
C612 C 0.10187 0.6178 0.78063 0.0
C613 C 0.12678 0.63644 0.77497 0.0
C614 C 0.13628 0.64804 0.73854 0.0
C615 C 0.12113 0.6412 0.70669 0.0
C616 C 0.09607 0.62252 0.71242 0.0
C617 C 0.08648 0.61101 0.74903 0.0
C618 C 0.03523 0.54032 0.90954 0.0
C619 C -0.012 0.58474 0.8302 0.0
O620 O 0.96902 0.55575 0.97022 0.0
O621 O 0.9438 0.58892 0.94989 0.0
O622 O 0.01823 0.62594 0.90369 0.0
O623 O 0.97404 0.62609 0.89509 0.0
O624 O 0.06337 0.61152 0.9302 0.0
O625 O 0.02119 0.59776 0.96806 0.0
O626 O 0.08631 0.62262 0.84753 0.0
O627 O 0.07749 0.58069 0.82163 0.0
O628 O 0.01833 0.55353 0.89158 0.0
O629 O 0.06031 0.55424 0.90763 0.0
O630 O 0.97508 0.57157 0.86148 0.0
O631 O 0.01386 0.59788 0.82994 0.0
H632 H 0.89464 0.58727 1.00694 0.0
H633 H 0.8822 0.60734 0.07082 0.0
H634 H 0.96768 0.59513 0.09982 0.0
H635 H 0.97995 0.57491 0.03617 0.0
H636 H 0.13913 0.64186 0.79879 0.0
H637 H 0.15582 0.66203 0.73521 0.0
H638 H 0.08367 0.61706 0.68869 0.0
H639 H 0.06711 0.59676 0.75255 0.0
H640 H 0.12674 0.105 0.10626 0.0
H641 H 0.17951 0.16626 0.89926 0.0
H642 H 0.11045 0.18729 0.06126 0.0
H643 H 0.15937 0.0768 0.928 0.0
H644 H 0.18027 0.177 0.96753 0.0
H645 H 0.16316 0.09942 0.05136 0.0
C646 C 0.13195 0.12252 0.08585 0.0
C647 C 0.11561 0.14651 0.08773 0.0
C648 C 0.17685 0.15486 0.95876 0.0
C649 C 0.15669 0.14025 1.02532 0.0
C650 C 0.17658 0.14864 0.91975 0.0
C651 C 0.16843 0.1207 0.90819 0.0
C652 C 0.16886 0.13298 0.9861 0.0
C653 C 0.16491 0.09876 0.93598 0.0
C654 C 0.15256 0.11926 0.0545 0.0
C655 C 0.12261 0.16843 0.06043 0.0
N656 N 0.16439 0.10546 0.97387 0.0
N657 N 0.14237 0.16458 1.0299 0.0
H658 H 0.15213 0.7683 0.23747 0.0
H659 H 0.08542 0.89964 0.14024 0.0
H660 H 0.12449 0.84269 0.30083 0.0
H661 H 0.12543 0.83153 0.07595 0.0
H662 H 0.09628 0.87757 0.19999 0.0
H663 H 0.13918 0.78962 0.17872 0.0
C664 C 0.14329 0.78911 0.23912 0.0
C665 C 0.13952 0.80376 0.27424 0.0
C666 C 0.10271 0.86748 0.1728 0.0
C667 C 0.12459 0.82834 0.20678 0.0
C668 C 0.09639 0.87999 0.1387 0.0
C669 C 0.10463 0.86749 0.10301 0.0
C670 C 0.11719 0.84215 0.17125 0.0
C671 C 0.11904 0.84215 0.10275 0.0
C672 C 0.13593 0.8013 0.20546 0.0
C673 C 0.12787 0.83064 0.27444 0.0
N674 N 0.1248 0.83032 0.1363 0.0
N675 N 0.12084 0.84206 0.24123 0.0
H676 H 0.37167 0.90513 0.30586 0.0
H677 H 0.3268 0.80649 0.48731 0.0
H678 H 0.31841 0.82591 0.3039 0.0
H679 H 0.37746 0.88727 0.48849 0.0
H680 H 0.3126 0.81925 0.42461 0.0
H681 H 0.36251 0.90551 0.37563 0.0
C682 C 0.35735 0.88821 0.31995 0.0
C683 C 0.34643 0.86501 0.29899 0.0
C684 C 0.32636 0.83446 0.43892 0.0
C685 C 0.33661 0.86485 0.37917 0.0
C686 C 0.33438 0.8272 0.47477 0.0
C687 C 0.35393 0.84553 0.49252 0.0
C688 C 0.33819 0.86009 0.42074 0.0
C689 C 0.36303 0.87214 0.47513 0.0
C690 C 0.3523 0.88831 0.35997 0.0
C691 C 0.32804 0.84372 0.31902 0.0
N692 N 0.3555 0.8784 0.43989 0.0
N693 N 0.32424 0.84378 0.35808 0.0
H694 H 0.36179 0.21881 0.78016 0.0
H695 H 0.42548 0.08598 0.66269 0.0
H696 H 0.39 0.14448 0.83452 0.0
H697 H 0.38606 0.15451 0.61043 0.0
H698 H 0.41561 0.10857 0.72553 0.0
H699 H 0.37349 0.19703 0.71739 0.0
C700 C 0.37047 0.19792 0.77896 0.0
C701 C 0.37478 0.18341 0.81278 0.0
C702 C 0.40909 0.11864 0.70032 0.0
C703 C 0.38828 0.15834 0.7408 0.0
C704 C 0.41484 0.10583 0.66441 0.0
C705 C 0.40647 0.1183 0.63125 0.0
C706 C 0.39503 0.14424 0.7031 0.0
C707 C 0.39251 0.1439 0.63528 0.0
C708 C 0.37711 0.18547 0.74305 0.0
C709 C 0.3862 0.15643 0.80928 0.0
N710 N 0.38728 0.15603 0.67049 0.0
N711 N 0.39253 0.14478 0.77397 0.0
H712 H 0.85451 0.82692 0.1712 0.0
H713 H 0.00105 0.87155 0.03846 0.0
H714 H 0.93868 0.8257 0.20983 0.0
H715 H 0.91838 0.86202 0.9946 0.0
H716 H 0.97819 0.85651 0.10191 0.0
H717 H 0.87704 0.84163 0.10708 0.0
C718 C 0.87772 0.82983 0.16628 0.0
C719 C 0.89469 0.825 0.19606 0.0
C720 C 0.96501 0.85766 0.07844 0.0
C721 C 0.92067 0.84176 0.12254 0.0
C722 C 0.97807 0.86634 0.0421 0.0
C723 C 0.96165 0.86815 1.01097 0.0
C724 C 0.93521 0.85082 0.084 0.0
C725 C 0.93194 0.86092 1.01764 0.0
C726 C 0.89057 0.83808 0.12957 0.0
C727 C 0.9247 0.8288 0.18774 0.0
N728 N 0.91968 0.85267 0.0534 0.0
N729 N 0.93667 0.83702 0.1519 0.0
H730 H 0.91478 0.27623 0.73199 0.0
H731 H 0.98658 0.1586 0.85201 0.0
H732 H 0.93661 0.19426 0.68505 0.0
H733 H 0.94409 0.22966 0.90582 0.0
H734 H 0.97183 0.17295 0.79024 0.0
H735 H 0.92869 0.26142 0.79436 0.0
C736 C 0.92243 0.25508 0.73462 0.0
C737 C 0.92456 0.23666 0.70256 0.0
C738 C 0.96571 0.18539 0.8156 0.0
C739 C 0.94068 0.21933 0.77496 0.0
C740 C 0.974 0.17707 0.85136 0.0
C741 C 0.96657 0.19252 0.88539 0.0
C742 C 0.95 0.20973 0.81293 0.0
C743 C 0.95089 0.2169 0.88112 0.0
C744 C 0.93036 0.24659 0.7705 0.0
C745 C 0.93463 0.20943 0.70848 0.0
N746 N 0.9433 0.22463 0.84599 0.0
N747 N 0.94226 0.2017 0.74361 0.0
H748 H 0.57164 0.15327 0.69758 0.0
H749 H 0.59287 0.11872 0.47172 0.0
H750 H 0.65457 0.15314 0.63101 0.0
H751 H 0.51067 0.11004 0.54066 0.0
H752 H 0.61556 0.13316 0.52916 0.0
H753 H 0.54876 0.13947 0.63996 0.0
C754 C 0.58507 0.15052 0.67081 0.0
C755 C 0.61515 0.15444 0.66928 0.0
C756 C 0.59256 0.12808 0.53176 0.0
C757 C 0.58897 0.13835 0.60301 0.0
C758 C 0.57953 0.11985 0.49889 0.0
C759 C 0.54973 0.11305 0.5012 0.0
C760 C 0.57574 0.1297 0.56738 0.0
C761 C 0.53368 0.11493 0.53738 0.0
C762 C 0.57196 0.14244 0.63793 0.0
C763 C 0.63136 0.15008 0.63378 0.0
N764 N 0.54686 0.12309 0.56894 0.0
N765 N 0.61809 0.14236 0.60214 0.0
H766 H 0.48431 0.79097 0.52836 0.0
H767 H 0.59756 0.79959 0.34433 0.0
H768 H 0.56714 0.8358 0.53569 0.0
H769 H 0.55039 0.71923 0.37667 0.0
H770 H 0.58205 0.81892 0.40827 0.0
H771 H 0.50261 0.77111 0.46641 0.0
C772 C 0.5064 0.79665 0.5171 0.0
C773 C 0.52415 0.81518 0.53773 0.0
C774 C 0.57526 0.79701 0.40145 0.0
C775 C 0.54537 0.79192 0.46623 0.0
C776 C 0.58404 0.78596 0.36497 0.0
C777 C 0.57546 0.75764 0.35513 0.0
C778 C 0.55682 0.78005 0.42806 0.0
C779 C 0.5578 0.74103 0.38306 0.0
C780 C 0.5169 0.78493 0.48181 0.0
C781 C 0.55262 0.82158 0.52115 0.0
N782 N 0.54873 0.75261 0.41791 0.0
N783 N 0.56223 0.81023 0.48633 0.0
H784 H 0.67417 0.67056 0.43789 0.0
H785 H 0.63848 0.63847 0.61932 0.0
H786 H 0.68381 0.58093 0.41235 0.0
H787 H 0.60028 0.56534 0.5632 0.0
H788 H 0.67831 0.64168 0.5675 0.0
H789 H 0.67307 0.65998 0.50533 0.0
C790 C 0.67719 0.64874 0.44599 0.0
C791 C 0.67756 0.62636 0.41897 0.0
C792 C 0.66173 0.62432 0.56731 0.0
C793 C 0.67551 0.61401 0.49735 0.0
C794 C 0.63919 0.62233 0.59698 0.0
C795 C 0.61594 0.60207 0.59464 0.0
C796 C 0.66055 0.60597 0.53546 0.0
C797 C 0.61766 0.58164 0.56531 0.0
C798 C 0.67661 0.6427 0.48507 0.0
C799 C 0.68164 0.59867 0.43216 0.0
N800 N 0.63934 0.58444 0.53636 0.0
N801 N 0.67917 0.59304 0.47054 0.0
H802 H 0.62811 0.34065 0.80624 0.0
H803 H 0.59697 0.31692 0.5869 0.0
H804 H 0.63445 0.2599 0.74657 0.0
H805 H 0.60031 0.40009 0.64097 0.0
H806 H 0.60796 0.29533 0.64662 0.0
H807 H 0.61521 0.36246 0.74743 0.0
C808 C 0.62668 0.32746 0.78089 0.0
C809 C 0.63243 0.29838 0.78142 0.0
C810 C 0.6063 0.31831 0.64549 0.0
C811 C 0.61771 0.32325 0.71399 0.0
C812 C 0.59985 0.33064 0.61142 0.0
C813 C 0.59766 0.36038 0.60888 0.0
C814 C 0.61052 0.33577 0.67748 0.0
C815 C 0.60209 0.37712 0.64148 0.0
C816 C 0.6194 0.33996 0.74728 0.0
C817 C 0.6303 0.2824 0.7476 0.0
N818 N 0.60824 0.36459 0.67443 0.0
N819 N 0.62312 0.29503 0.71535 0.0
H820 H 0.81887 0.32949 1.00062 0.0
H821 H 0.83146 0.40819 0.79678 0.0
H822 H 0.85133 0.41792 0.98376 0.0
H823 H 0.83865 0.31739 0.81386 0.0
H824 H 0.8233 0.41383 0.86669 0.0
H825 H 0.80882 0.3275 0.93359 0.0
C826 C 0.82312 0.34876 0.98313 0.0
C827 C 0.83629 0.37382 0.99758 0.0
C828 C 0.82617 0.39267 0.85478 0.0
C829 C 0.82526 0.37148 0.92084 0.0
C830 C 0.8311 0.3894 0.81493 0.0
C831 C 0.83623 0.36231 0.79901 0.0
C832 C 0.82582 0.36863 0.87877 0.0
C833 C 0.83453 0.33868 0.82424 0.0
C834 C 0.8176 0.34751 0.94482 0.0
C835 C 0.84162 0.39804 0.97345 0.0
N836 N 0.82965 0.34245 0.86276 0.0
N837 N 0.83641 0.39618 0.93598 0.0
H838 H 0.9 0.64324 0.33379 0.0
H839 H 0.89535 0.65147 0.10572 0.0
H840 H 0.87032 0.71522 0.27593 0.0
H841 H 0.93693 0.58611 0.16135 0.0
H842 H 0.88419 0.67402 0.16819 0.0
H843 H 0.91223 0.62113 0.27128 0.0
C844 C 0.89608 0.65445 0.30799 0.0
C845 C 0.88403 0.68113 0.31023 0.0
C846 C 0.89577 0.65476 0.16677 0.0
C847 C 0.89791 0.6558 0.23845 0.0
C848 C 0.90197 0.64174 0.13113 0.0
C849 C 0.91701 0.61677 0.12828 0.0
C850 C 0.90448 0.64267 0.2 0.0
C851 C 0.92549 0.60545 0.16214 0.0
C852 C 0.90311 0.6418 0.27226 0.0
C853 C 0.87954 0.69462 0.27571 0.0
N854 N 0.91902 0.61841 0.19658 0.0
N855 N 0.88637 0.68176 0.24131 0.0
H856 H 0.41242 0.35824 0.4987 0.0
H857 H 0.43324 0.32702 0.71914 0.0
H858 H 0.49386 0.37017 0.54557 0.0
H859 H 0.35014 0.32662 0.67698 0.0
H860 H 0.45593 0.34025 0.65481 0.0
H861 H 0.38941 0.34414 0.56275 0.0
C862 C 0.42551 0.35784 0.52237 0.0
C863 C 0.45517 0.36547 0.51661 0.0
C864 C 0.43273 0.3373 0.65958 0.0
C865 C 0.42888 0.34928 0.59014 0.0
C866 C 0.41974 0.32956 0.69631 0.0
C867 C 0.38969 0.32561 0.70357 0.0
C868 C 0.41563 0.34102 0.6296 0.0
C869 C 0.37334 0.3297 0.67286 0.0
C870 C 0.41231 0.34985 0.55899 0.0
C871 C 0.47094 0.36457 0.54852 0.0
N872 N 0.38651 0.33707 0.63725 0.0
N873 N 0.45763 0.35661 0.58378 0.0
H874 H 0.46871 0.7312 0.40928 0.0
H875 H 0.46183 0.69863 0.18339 0.0
H876 H 0.502 0.65622 0.35328 0.0
H877 H 0.43758 0.7778 0.23689 0.0
H878 H 0.47594 0.68258 0.24499 0.0
H879 H 0.45726 0.74826 0.34712 0.0
C880 C 0.47395 0.71824 0.38415 0.0
C881 C 0.48651 0.69188 0.38758 0.0
C882 C 0.46755 0.70348 0.24337 0.0
C883 C 0.47254 0.7116 0.31492 0.0
C884 C 0.45942 0.71275 0.20797 0.0
C885 C 0.44834 0.73978 0.20435 0.0
C886 C 0.46463 0.72116 0.27608 0.0
C887 C 0.446 0.75687 0.23776 0.0
C888 C 0.4671 0.72807 0.34835 0.0
C889 C 0.49193 0.67631 0.35308 0.0
N890 N 0.45393 0.74731 0.27188 0.0
N891 N 0.48491 0.68628 0.31867 0.0
H892 H 0.08299 0.65713 0.19589 0.0
H893 H 0.10495 0.62546 0.96943 0.0
H894 H 0.16605 0.65948 0.12927 0.0
H895 H 0.02331 0.61176 0.03889 0.0
H896 H 0.12731 0.64001 1.02707 0.0
H897 H 0.06045 0.64272 0.13822 0.0
C898 C 0.09651 0.65476 0.1691 0.0
C899 C 0.12652 0.65959 0.16752 0.0
C900 C 0.10451 0.63379 1.02974 0.0
C901 C 0.10076 0.64286 0.10123 0.0
C902 C 0.09167 0.62551 0.99676 0.0
C903 C 0.06214 0.61729 0.99917 0.0
C904 C 0.08775 0.63406 0.06554 0.0
C905 C 0.04614 0.61778 0.03554 0.0
C906 C 0.08361 0.64635 0.1362 0.0
C907 C 0.14289 0.65573 0.13203 0.0
N908 N 0.05912 0.62607 0.06721 0.0
N909 N 0.12982 0.6477 0.10035 0.0
H910 H 0.01832 0.26642 0.8386 0.0
H911 H 0.0319 0.27385 0.06639 0.0
H912 H 0.07556 0.21582 0.89373 0.0
H913 H 0.96715 0.31481 1.01223 0.0
H914 H 0.04855 0.25295 1.00418 0.0
H915 H -1e-05 0.28451 0.90159 0.0
C916 C 0.02713 0.25905 0.86391 0.0
C917 C 0.04882 0.23957 0.86036 0.0
C918 C 0.03066 0.26644 1.00584 0.0
C919 C 0.02779 0.26076 0.93358 0.0
C920 C 0.02104 0.27844 0.04154 0.0
C921 C -0.00207 0.2963 0.04506 0.0
C922 C 0.01742 0.2724 0.97277 0.0
C923 C 0.98491 0.3012 1.01138 0.0
C924 C 0.01657 0.26947 0.90008 0.0
C925 C 0.05891 0.23074 0.8947 0.0
N926 N -0.00513 0.28954 0.97693 0.0
N927 N 0.04852 0.2415 0.9296 0.0
H928 H 0.92488 0.24818 0.21403 0.0
H929 H 0.05252 0.21216 0.21578 0.0
H930 H 0.00062 0.30163 0.2337 0.0
H931 H 0.97396 0.15838 0.22217 0.0
H932 H 0.03522 0.23338 0.27749 0.0
H933 H 0.93536 0.21558 0.26437 0.0
C934 C 0.9439 0.25279 0.22863 0.0
C935 C 0.96348 0.2759 0.21728 0.0
C936 C 0.02199 0.21622 0.26584 0.0
C937 C 0.97649 0.23832 0.2731 0.0
C938 C 0.0317 0.20476 0.23015 0.0
C939 C 0.01278 0.18631 0.21172 0.0
C940 C -0.00772 0.21229 0.27813 0.0
C941 C -0.01245 0.17512 0.23329 0.0
C942 C 0.94965 0.23464 0.25805 0.0
C943 C 0.98626 0.28257 0.23949 0.0
N944 N 0.97842 0.18758 0.26701 0.0
N945 N -0.00745 0.26355 0.26587 0.0
H946 H 0.94135 0.7874 0.45854 0.0
H947 H 0.08705 0.78932 0.4057 0.0
H948 H 0.94168 0.70068 0.41563 0.0
H949 H 0.07825 0.69788 0.42625 0.0
H950 H 0.03557 0.79127 0.42363 0.0
H951 H -0.0071 0.78765 0.46292 0.0
C952 C 0.95232 0.76836 0.45017 0.0
C953 C 0.93756 0.74425 0.43567 0.0
C954 C 0.04495 0.77089 0.42538 0.0
C955 C -0.00359 0.74464 0.43975 0.0
C956 C 0.0743 0.76977 0.41476 0.0
C957 C 0.08669 0.74338 0.41415 0.0
C958 C 0.02799 0.74537 0.43519 0.0
C959 C 0.06937 0.71863 0.42611 0.0
C960 C 0.98175 0.76862 0.45239 0.0
C961 C 0.9525 0.71989 0.42622 0.0
N962 N 0.04071 0.72013 0.43547 0.0
N963 N 0.9813 0.72081 0.42802 0.0
H964 H 0.55782 0.66828 0.72954 0.0
H965 H 0.55382 0.81341 0.66857 0.0
H966 H 0.60517 0.7135 0.63287 0.0
H967 H 0.49334 0.76077 0.74455 0.0
H968 H 0.59308 0.7914 0.69334 0.0
H969 H 0.56424 0.71026 0.76904 0.0
C970 C 0.57089 0.68659 0.71699 0.0
C971 C 0.57911 0.68831 0.67716 0.0
C972 C 0.57134 0.78521 0.70571 0.0
C973 C 0.58394 0.73682 0.7213 0.0
C974 C 0.54877 0.79765 0.69126 0.0
C975 C 0.52024 0.78804 0.70339 0.0
C976 C 0.56526 0.76079 0.72907 0.0
C977 C 0.51506 0.76779 0.73309 0.0
C978 C 0.57461 0.71071 0.73976 0.0
C979 C 0.59656 0.71217 0.66288 0.0
N980 N 0.53743 0.75404 0.74408 0.0
N981 N 0.59788 0.7361 0.68491 0.0
H982 H 0.58163 0.28344 0.91283 0.0
H983 H 0.43056 0.19749 0.92842 0.0
H984 H 0.57081 0.19189 0.93215 0.0
H985 H 0.44037 0.28882 0.94754 0.0
H986 H 0.48179 0.19468 0.9338 0.0
H987 H 0.53 0.28629 0.92994 0.0
C988 C 0.56839 0.26403 0.92121 0.0
C989 C 0.58021 0.23734 0.92038 0.0
C990 C 0.47265 0.21528 0.93739 0.0
C991 C 0.52143 0.2403 0.93947 0.0
C992 C 0.44349 0.21687 0.93416 0.0
C993 C 0.43151 0.24348 0.93688 0.0
C994 C 0.48987 0.24056 0.94273 0.0
C995 C 0.44897 0.26794 0.94475 0.0
C996 C 0.539 0.26564 0.93105 0.0
C997 C 0.56236 0.21284 0.93189 0.0
N998 N 0.47745 0.26598 0.94677 0.0
N999 N 0.5337 0.21482 0.94031 0.0
H1000 H 0.06536 0.81427 0.85029 0.0
H1001 H 0.95882 0.67315 0.86891 0.0
H1002 H 0.97418 0.81464 0.88398 0.0
H1003 H 0.04952 0.67363 0.88018 0.0
H1004 H 0.96472 0.72455 0.85485 0.0
H1005 H 0.05973 0.76233 0.84145 0.0
C1006 C 0.04408 0.80345 0.85527 0.0
C1007 C 0.02024 0.81849 0.86872 0.0
C1008 C 0.98336 0.71331 0.85997 0.0
C1009 C 0.01375 0.75944 0.85844 0.0
C1010 C 0.98005 0.68405 0.86802 0.0
C1011 C 0.00365 0.66943 0.87657 0.0
C1012 C 0.01049 0.72789 0.8602 0.0
C1013 C 0.03074 0.68435 0.87438 0.0
C1014 C 0.04094 0.77387 0.85026 0.0
C1015 C -0.00687 0.80362 0.87421 0.0
N1016 N 0.0334 0.71297 0.86675 0.0
N1017 N -0.00937 0.77474 0.86942 0.0
H1018 H 0.52774 0.75398 0.22192 0.0
H1019 H 0.48147 0.7407 1.02079 0.0
H1020 H 0.54 0.67448 0.1615 0.0
H1021 H 0.51567 0.81979 0.06553 0.0
H1022 H 0.5091 0.71411 0.06206 0.0
H1023 H 0.52058 0.77683 0.16138 0.0
C1024 C 0.52869 0.74136 0.19581 0.0
C1025 C 0.53589 0.71293 0.19604 0.0
C1026 C 0.5115 0.73736 0.06192 0.0
C1027 C 0.52832 0.73866 0.12701 0.0
C1028 C 0.49632 0.75263 0.03762 0.0
C1029 C 0.49334 0.78187 0.04496 0.0
C1030 C 0.52492 0.75261 0.09045 0.0
C1031 C 0.515 0.79663 0.06304 0.0
C1032 C 0.52518 0.75443 0.16126 0.0
C1033 C 0.53525 0.69682 0.16211 0.0
N1034 N 0.52832 0.7818 0.08825 0.0
N1035 N 0.53192 0.71007 0.12852 0.0
H1036 H 0.45123 0.17114 0.36399 0.0
H1037 H 0.56064 0.30993 0.3603 0.0
H1038 H 0.54086 0.16843 0.3802 0.0
H1039 H 0.46902 0.31163 0.38894 0.0
H1040 H 0.5543 0.25843 0.3482 0.0
H1041 H 0.45875 0.22293 0.35343 0.0
C1042 C 0.4726 0.18141 0.36478 0.0
C1043 C 0.49538 0.16574 0.37382 0.0
C1044 C 0.53559 0.27018 0.35668 0.0
C1045 C 0.50403 0.22468 0.36158 0.0
C1046 C 0.53914 0.29949 0.36358 0.0
C1047 C 0.51532 0.31476 0.37642 0.0
C1048 C 0.50801 0.25622 0.36232 0.0
C1049 C 0.48793 0.30041 0.3797 0.0
C1050 C 0.47682 0.21091 0.3588 0.0
C1051 C 0.52268 0.17993 0.37392 0.0
N1052 N 0.48502 0.27176 0.37302 0.0
N1053 N 0.52622 0.20878 0.36831 0.0
H1054 H 0.01174 0.16737 0.68456 0.0
H1055 H -0.00943 0.3205 0.59766 0.0
H1056 H 0.00799 0.24551 0.74981 0.0
H1057 H 0.98143 0.24264 0.53352 0.0
H1058 H 0.00755 0.29384 0.64938 0.0
H1059 H 0.00259 0.19371 0.62732 0.0
C1060 C 0.00717 0.18974 0.68735 0.0
C1061 C 0.01101 0.2045 0.72157 0.0
C1062 C 0.00236 0.28251 0.62367 0.0
C1063 C 0.00229 0.23493 0.65635 0.0
C1064 C -0.00624 0.29792 0.59337 0.0
C1065 C 0.98106 0.28269 0.56432 0.0
C1066 C 0.00119 0.25239 0.62161 0.0
C1067 C -0.01148 0.25443 0.55792 0.0
C1068 C 0.00311 0.20498 0.65438 0.0
C1069 C 0.00543 0.2335 0.72369 0.0
N1070 N -0.00369 0.23937 0.58779 0.0
N1071 N 0.00214 0.24805 0.69117 0.0
H1072 H 0.07463 0.04554 0.08792 0.0
H1073 H 0.95285 0.97046 0.97454 0.0
H1074 H -0.01042 0.07555 0.09211 0.0
H1075 H 0.04113 0.97461 0.92435 0.0
H1076 H 0.9664 0.00435 1.0238 0.0
H1077 H 0.06359 0.01409 0.03364 0.0
C1078 C 0.05373 0.04546 0.07748 0.0
C1079 C 0.03295 0.06302 0.0945 0.0
C1080 C 0.98283 -0.0021 1.00197 0.0
C1081 C 0.02022 0.02734 0.03333 0.0
C1082 C 0.97511 0.97861 0.9738 0.0
C1083 C -0.004 0.96938 0.94571 0.0
C1084 C 0.01174 0.00778 1.00249 0.0
C1085 C 0.02449 0.98078 0.94604 0.0
C1086 C 0.04753 0.02775 0.04649 0.0
C1087 C 0.00624 0.06236 0.07982 0.0
N1088 N 0.03168 -0.00086 0.97441 0.0
N1089 N 0.00057 0.04465 0.0504 0.0
H1090 H 0.23965 0.82591 0.29468 0.0
H1091 H 0.35038 0.71781 0.1982 0.0
H1092 H 0.2474 0.74055 0.33736 0.0
H1093 H 0.3368 0.79835 0.14524 0.0
H1094 H 0.3147 0.72761 0.25114 0.0
H1095 H 0.27712 0.81807 0.24219 0.0
C1096 C 0.24936 0.80554 0.2931 0.0
C1097 C 0.24037 0.78377 0.32035 0.0
C1098 C 0.31937 0.74321 0.22802 0.0
C1099 C 0.28316 0.77468 0.26026 0.0
C1100 C 0.33978 0.73762 0.19762 0.0
C1101 C 0.34651 0.75726 0.16708 0.0
C1102 C 0.30539 0.76871 0.22822 0.0
C1103 C 0.33214 0.78259 0.16812 0.0
C1104 C 0.27064 0.80107 0.26301 0.0
C1105 C 0.25365 0.75786 0.31694 0.0
N1106 N 0.31221 0.78764 0.19831 0.0
N1107 N 0.27435 0.75404 0.28741 0.0
H1108 H 0.46922 0.00019 0.4171 0.0
H1109 H 0.45357 0.88493 0.54886 0.0
H1110 H 0.53956 0.02388 0.48332 0.0
H1111 H 0.48459 0.94738 0.62809 0.0
H1112 H 0.45573 0.92252 0.49979 0.0
H1113 H 0.44854 0.96681 0.46885 0.0
C1114 C 0.48037 -0.00183 0.44243 0.0
C1115 C 0.50641 0.01431 0.44571 0.0
C1116 C 0.46074 0.92837 0.52844 0.0
C1117 C 0.4827 0.97686 0.50503 0.0
C1118 C 0.45904 0.90693 0.55669 0.0
C1119 C 0.46836 0.91321 0.59277 0.0
C1120 C 0.47256 0.956 0.53628 0.0
C1121 C 0.47667 0.94184 0.60083 0.0
C1122 C 0.46855 0.97922 0.47188 0.0
C1123 C 0.51977 0.01139 0.47932 0.0
N1124 N 0.47946 0.962 0.57244 0.0
N1125 N 0.50769 -0.00687 0.50774 0.0
H1126 H 0.2684 0.24869 0.92223 0.0
H1127 H 0.16949 0.19355 0.76115 0.0
H1128 H 0.27289 0.16531 0.86939 0.0
H1129 H 0.14856 0.26342 0.83746 0.0
H1130 H 0.20989 0.18481 0.79743 0.0
H1131 H 0.22625 0.25642 0.88875 0.0
C1132 C 0.2604 0.232 0.90374 0.0
C1133 C 0.27406 0.20637 0.89845 0.0
C1134 C 0.19627 0.20186 0.80649 0.0
C1135 C 0.2263 0.21509 0.85996 0.0
C1136 C 0.17326 0.20678 0.78585 0.0
C1137 C 0.15565 0.22899 0.79664 0.0
C1138 C 0.20172 0.21941 0.83799 0.0
C1139 C 0.1617 0.24602 0.82829 0.0
C1140 C 0.23639 0.23638 0.8847 0.0
C1141 C 0.26295 0.1854 0.8742 0.0
N1142 N 0.1843 0.24092 0.84787 0.0
N1143 N 0.23982 0.19029 0.85565 0.0
H1144 H 0.72924 0.3162 0.79454 0.0
H1145 H 0.83596 0.21011 0.68594 0.0
H1146 H 0.73872 0.23021 0.83353 0.0
H1147 H 0.81377 0.28725 0.63197 0.0
H1148 H 0.80182 0.21864 0.74099 0.0
H1149 H 0.76195 0.30786 0.73684 0.0
C1150 C 0.7383 0.29556 0.79103 0.0
C1151 C 0.73122 0.27379 0.81889 0.0
C1152 C 0.80417 0.23371 0.71717 0.0
C1153 C 0.7685 0.26411 0.75269 0.0
C1154 C 0.82371 0.22887 0.68548 0.0
C1155 C 0.82797 0.24817 0.65427 0.0
C1156 C 0.78855 0.25817 0.71811 0.0
C1157 C 0.81126 0.27193 0.65548 0.0
C1158 C 0.75681 0.2908 0.75793 0.0
C1159 C 0.74354 0.24753 0.81279 0.0
N1160 N 0.79239 0.27643 0.68715 0.0
N1161 N 0.76158 0.24344 0.78037 0.0
H1162 H 0.78292 0.66636 0.35665 0.0
H1163 H 0.66696 0.77564 0.31468 0.0
H1164 H 0.77692 0.74923 0.41053 0.0
H1165 H 0.68652 0.70431 0.24011 0.0
H1166 H 0.70491 0.76405 0.35298 0.0
H1167 H 0.74491 0.67732 0.31727 0.0
C1168 C 0.77349 0.68682 0.36029 0.0
C1169 C 0.78303 0.70698 0.3868 0.0
C1170 C 0.70108 0.75096 0.32817 0.0
C1171 C 0.73984 0.71967 0.34179 0.0
C1172 C 0.67943 0.75758 0.30621 0.0
C1173 C 0.67355 0.74078 0.27432 0.0
C1174 C 0.71706 0.72732 0.31825 0.0
C1175 C 0.69033 0.71766 0.26467 0.0
C1176 C 0.75197 0.6931 0.33765 0.0
C1177 C 0.77018 0.73313 0.39038 0.0
N1178 N 0.71134 0.71149 0.28672 0.0
N1179 N 0.74922 0.73871 0.36812 0.0
H1180 H 0.47836 0.57352 0.59996 0.0
H1181 H 0.53569 0.46958 0.43341 0.0
H1182 H 0.5558 0.53035 0.60698 0.0
H1183 H 0.44564 0.47023 0.47391 0.0
H1184 H 0.54684 0.50219 0.48616 0.0
H1185 H 0.46938 0.54542 0.54256 0.0
C1186 C 0.49342 0.55806 0.58938 0.0
C1187 C 0.5176 0.55383 0.60838 0.0
C1188 C 0.52468 0.49523 0.48316 0.0
C1189 C 0.50792 0.52244 0.54246 0.0
C1190 C 0.51831 0.47671 0.45322 0.0
C1191 C 0.4898 0.46658 0.45011 0.0
C1192 C 0.50223 0.50439 0.50903 0.0
C1193 C 0.46796 0.47717 0.47569 0.0
C1194 C 0.48833 0.54216 0.55671 0.0
C1195 C 0.53666 0.53382 0.59339 0.0
N1196 N 0.47463 0.4955 0.50412 0.0
N1197 N 0.53151 0.51889 0.56105 0.0
H1198 H -0.01257 0.50267 0.91262 0.0
H1199 H 0.01341 0.43768 0.11662 0.0
H1200 H 0.06072 0.52739 0.97301 0.0
H1201 H 0.96675 0.38864 0.03604 0.0
H1202 H 0.02143 0.47762 0.07033 0.0
H1203 H 0.97133 0.46647 0.96299 0.0
C1204 C 0.00013 0.50039 0.9364 0.0
C1205 C 0.02559 0.51773 0.93851 0.0
C1206 C 0.00893 0.45835 0.06306 0.0
C1207 C 0.00701 0.47722 0.99636 0.0
C1208 C 0.00406 0.43579 0.0896 0.0
C1209 C -0.01096 0.41024 0.08013 0.0
C1210 C -0.00129 0.45523 1.02683 0.0
C1211 C 0.97803 0.40832 0.04443 0.0
C1212 C -0.00909 0.47987 0.96508 0.0
C1213 C 0.04116 0.51419 0.97003 0.0
N1214 N 0.98316 0.43055 1.01887 0.0
N1215 N 0.03155 0.49445 0.99779 0.0
H1216 H 0.07123 0.19585 0.41668 0.0
H1217 H 0.09174 0.14048 0.63014 0.0
H1218 H 0.07915 0.10674 0.4426 0.0
H1219 H 0.09473 0.22977 0.59808 0.0
H1220 H 0.08646 0.12736 0.56286 0.0
H1221 H 0.07846 0.20803 0.4832 0.0
C1222 C 0.0743 0.17867 0.43622 0.0
C1223 C 0.0743 0.15002 0.42323 0.0
C1224 C 0.08839 0.14984 0.57049 0.0
C1225 C 0.08301 0.16421 0.50089 0.0
C1226 C 0.09152 0.15742 0.6091 0.0
C1227 C 0.09381 0.18642 0.62046 0.0
C1228 C 0.08726 0.17131 0.54251 0.0
C1229 C 0.09308 0.20716 0.5913 0.0
C1230 C 0.07866 0.18577 0.47447 0.0
C1231 C 0.07911 0.12913 0.45058 0.0
N1232 N 0.08977 0.19925 0.55417 0.0
N1233 N 0.08307 0.13658 0.4878 0.0
H1234 H 0.07129 0.88383 0.57871 0.0
H1235 H 0.09468 0.90975 0.8005 0.0
H1236 H 0.15058 0.8686 0.6247 0.0
H1237 H 0.01258 0.90784 0.75536 0.0
H1238 H 0.1177 0.90182 0.73508 0.0
H1239 H 0.05156 0.89924 0.64214 0.0
C1240 C 0.08467 0.88394 0.60211 0.0
C1241 C 0.11266 0.8749 0.59629 0.0
C1242 C 0.09469 0.90348 0.73953 0.0
C1243 C 0.09003 0.89241 0.66944 0.0
C1244 C 0.08161 0.9083 0.77676 0.0
C1245 C 0.05168 0.90938 0.78335 0.0
C1246 C 0.07769 0.90002 0.70882 0.0
C1247 C 0.0357 0.90698 0.75163 0.0
C1248 C 0.07332 0.89263 0.63844 0.0
C1249 C 0.12878 0.8751 0.62797 0.0
N1250 N 0.04887 0.90232 0.71589 0.0
N1251 N 0.11724 0.88371 0.66321 0.0
H1252 H 0.43299 0.84361 0.98878 0.0
H1253 H 0.41967 0.81091 0.76711 0.0
H1254 H 0.40177 0.76056 0.95026 0.0
H1255 H 0.49037 0.86607 0.80053 0.0
H1256 H 0.40568 0.7983 0.83469 0.0
H1257 H 0.44667 0.85813 0.92123 0.0
C1258 C 0.42845 0.82858 0.96619 0.0
C1259 C 0.41581 0.80084 0.97552 0.0
C1260 C 0.42414 0.81331 0.82734 0.0
C1261 C 0.43153 0.81752 0.89775 0.0
C1262 C 0.43212 0.82077 0.78863 0.0
C1263 C 0.45621 0.8399 0.77769 0.0
C1264 C 0.4398 0.82548 0.85609 0.0
C1265 C 0.47159 0.8514 0.80736 0.0
C1266 C 0.43661 0.83683 0.92761 0.0
C1267 C 0.41118 0.7822 0.9447 0.0
N1268 N 0.46297 0.84426 0.84512 0.0
N1269 N 0.41876 0.79093 0.90743 0.0
H1270 H 0.50105 0.07466 0.25877 0.0
H1271 H 0.36294 0.11983 0.16596 0.0
H1272 H 0.41832 0.07805 0.32493 0.0
H1273 H 0.4421 0.10007 0.09993 0.0
H1274 H 0.38205 0.10437 0.22458 0.0
H1275 H 0.47893 0.08255 0.20017 0.0
C1276 C 0.47808 0.07668 0.26087 0.0
C1277 C 0.46149 0.07577 0.29675 0.0
C1278 C 0.39511 0.10323 0.1972 0.0
C1279 C 0.436 0.08542 0.22966 0.0
C1280 C 0.38432 0.11226 0.1638 0.0
C1281 C 0.40096 0.11127 0.12797 0.0
C1282 C 0.42283 0.0934 0.19477 0.0
C1283 C 0.42837 0.10093 0.1268 0.0
C1284 C 0.46545 0.08124 0.22736 0.0
C1285 C 0.43183 0.07845 0.29778 0.0
N1286 N 0.43847 0.09259 0.15967 0.0
N1287 N 0.42005 0.08355 0.26471 0.0
H1288 H 0.848 0.81115 0.50837 0.0
H1289 H 0.89677 0.79118 0.71932 0.0
H1290 H 0.85518 0.72942 0.56246 0.0
H1291 H 0.88891 0.87443 0.66989 0.0
H1292 H 0.87917 0.76868 0.66259 0.0
H1293 H 0.85934 0.83524 0.56818 0.0
C1294 C 0.85138 0.79826 0.53298 0.0
C1295 C 0.85076 0.76821 0.53028 0.0
C1296 C 0.88121 0.79189 0.66404 0.0
C1297 C 0.86416 0.79557 0.59846 0.0
C1298 C 0.89153 0.80478 0.6964 0.0
C1299 C 0.89463 0.8348 0.69939 0.0
C1300 C 0.87393 0.80902 0.63403 0.0
C1301 C 0.88677 0.85122 0.66898 0.0
C1302 C 0.85809 0.81202 0.567 0.0
C1303 C 0.85563 0.75263 0.563 0.0
N1304 N 0.87695 0.83814 0.63751 0.0
N1305 N 0.86228 0.76645 0.59545 0.0
H1306 H 0.88584 0.18124 0.36031 0.0
H1307 H 0.95564 0.06665 0.22654 0.0
H1308 H 0.90604 0.09789 0.39822 0.0
H1309 H 0.92659 0.14468 0.18398 0.0
H1310 H 0.92369 0.07105 0.28555 0.0
H1311 H 0.88918 0.1638 0.2941 0.0
C1312 C 0.89068 0.15919 0.3548 0.0
C1313 C 0.89632 0.14122 0.38486 0.0
C1314 C 0.92348 0.08681 0.26293 0.0
C1315 C 0.89973 0.12096 0.30914 0.0
C1316 C 0.94145 0.08402 0.22894 0.0
C1317 C 0.94426 0.10578 0.201 0.0
C1318 C 0.90898 0.11197 0.26923 0.0
C1319 C 0.92526 0.12766 0.20522 0.0
C1320 C 0.89223 0.14913 0.31701 0.0
C1321 C 0.90162 0.11261 0.37611 0.0
N1322 N 0.90924 0.13093 0.23955 0.0
N1323 N 0.90367 0.10355 0.33904 0.0
H1324 H 0.66309 0.16596 0.9651 0.0
H1325 H 0.6329 0.18651 0.19402 0.0
H1326 H 0.66826 0.24754 1.02299 0.0
H1327 H 0.61507 0.10562 0.13832 0.0
H1328 H 0.65077 0.20772 0.13162 0.0
H1329 H 0.65103 0.14201 1.02809 0.0
C1330 C 0.66232 0.17877 0.99102 0.0
C1331 C 0.66671 0.20883 0.98869 0.0
C1332 C 0.64303 0.1853 0.13291 0.0
C1333 C 0.65253 0.18166 0.06074 0.0
C1334 C 0.63291 0.17308 0.16871 0.0
C1335 C 0.62245 0.14412 0.1717 0.0
C1336 C 0.64287 0.16858 0.09942 0.0
C1337 C 0.62262 0.12808 0.1375 0.0
C1338 C 0.65513 0.16512 1.02694 0.0
C1339 C 0.66496 0.22435 1.02327 0.0
N1340 N 0.63268 0.14049 0.10285 0.0
N1341 N 0.65795 0.21065 0.05763 0.0
H1342 H 0.5874 0.91939 0.85284 0.0
H1343 H 0.62664 0.80959 1.01101 0.0
H1344 H 0.6136 0.83423 0.82715 0.0
H1345 H 0.57739 0.88285 0.03891 0.0
H1346 H 0.63076 0.82317 0.94322 0.0
H1347 H 0.59319 0.91137 0.9209 0.0
C1348 C 0.59497 0.89927 0.86148 0.0
C1349 C 0.59989 0.87734 0.83463 0.0
C1350 C 0.61917 0.83636 0.96421 0.0
C1351 C 0.60627 0.86796 0.91193 0.0
C1352 C 0.61662 0.82851 1.0029 0.0
C1353 C 0.60125 0.84486 0.03068 0.0
C1354 C 0.60641 0.86082 0.9531 0.0
C1355 C 0.58949 0.86966 1.01853 0.0
C1356 C 0.59802 0.89461 0.90024 0.0
C1357 C 0.60937 0.85154 0.84716 0.0
N1358 N 0.59216 0.8768 0.98056 0.0
N1359 N 0.6121 0.84749 0.88498 0.0
H1360 H 0.57981 0.69293 0.91059 0.0
H1361 H 0.59855 0.64766 0.12934 0.0
H1362 H 0.56892 0.60532 0.95158 0.0
H1363 H 0.60312 0.73535 0.08983 0.0
H1364 H 0.58956 0.63163 0.0643 0.0
H1365 H 0.58901 0.70859 0.97535 0.0
C1366 C 0.57911 0.67685 0.93297 0.0
C1367 C 0.57355 0.6475 0.92459 0.0
C1368 C 0.59264 0.65441 0.06979 0.0
C1369 C 0.58481 0.66568 1.00002 0.0
C1370 C 0.59803 0.66362 0.10706 0.0
C1371 C 0.60177 0.69305 0.11569 0.0
C1372 C 0.59101 0.67464 0.04033 0.0
C1373 C 0.60035 0.71249 0.08515 0.0
C1374 C 0.58464 0.68591 0.9702 0.0
C1375 C 0.57358 0.62807 0.95562 0.0
N1376 N 0.59512 0.70302 0.04927 0.0
N1377 N 0.57911 0.63743 0.99147 0.0
H1378 H 0.59081 0.40457 0.30715 0.0
H1379 H 0.56664 0.3692 0.08755 0.0
H1380 H 0.50885 0.40078 0.26144 0.0
H1381 H 0.64872 0.36427 0.13119 0.0
H1382 H 0.54662 0.38524 0.1504 0.0
H1383 H 0.61402 0.39506 0.2422 0.0
C1384 C 0.57781 0.40236 0.28337 0.0
C1385 C 0.54784 0.4034 0.28973 0.0
C1386 C 0.56905 0.38076 0.14637 0.0
C1387 C 0.57408 0.39214 0.21575 0.0
C1388 C 0.58056 0.3717 0.1103 0.0
C1389 C 0.60948 0.36544 0.10389 0.0
C1390 C 0.58646 0.38368 0.17664 0.0
C1391 C 0.62625 0.36858 0.13489 0.0
C1392 C 0.59101 0.39665 0.24642 0.0
C1393 C 0.53199 0.4 0.25798 0.0
N1394 N 0.61451 0.37749 0.16992 0.0
N1395 N 0.54524 0.39441 0.22259 0.0
H1396 H -0.00899 0.34017 0.28955 0.0
H1397 H 0.87612 0.33426 0.47584 0.0
H1398 H 0.90526 0.36489 0.28025 0.0
H1399 H 0.9364 0.26951 0.45175 0.0
H1400 H 0.8901 0.35413 0.41044 0.0
H1401 H 0.97576 0.3238 0.35552 0.0
C1402 C 0.96913 0.3429 0.30151 0.0
C1403 C 0.94951 0.3542 0.2788 0.0
C1404 C 0.90012 0.3355 0.41954 0.0
C1405 C 0.93183 0.33525 0.35537 0.0
C1406 C 0.89215 0.32411 0.45688 0.0
C1407 C 0.9048 0.29987 0.46952 0.0
C1408 C 0.92168 0.32327 0.39493 0.0
C1409 C 0.92568 0.28791 0.44344 0.0
C1410 C 0.96036 0.33317 0.33925 0.0
C1411 C 0.92127 0.35654 0.29642 0.0
N1412 N 0.93363 0.29986 0.40789 0.0
N1413 N 0.91335 0.3473 0.33352 0.0
H1414 H 0.00056 0.62679 0.77667 0.0
H1415 H 0.88802 0.57711 0.63341 0.0
H1416 H 0.93941 0.55472 0.80711 0.0
H1417 H 0.92091 0.66519 0.64456 0.0
H1418 H 0.90851 0.56519 0.69261 0.0
H1419 H 0.97486 0.63722 0.72255 0.0
C1420 C 0.9818 0.61289 0.77184 0.0
C1421 C 0.97227 0.58964 0.7965 0.0
C1422 C 0.91096 0.58712 0.6821 0.0
C1423 C 0.94248 0.6018 0.73395 0.0
C1424 C 0.89922 0.59404 0.64839 0.0
C1425 C 0.90306 0.6222 0.63344 0.0
C1426 C 0.92697 0.60842 0.70063 0.0
C1427 C 0.91805 0.64305 0.65411 0.0
C1428 C 0.96696 0.61911 0.74098 0.0
C1429 C 0.94752 0.57281 0.78879 0.0
N1430 N 0.92967 0.63567 0.68627 0.0
N1431 N 0.93352 0.57907 0.75786 0.0
H1432 H 0.39238 0.28897 0.22403 0.0
H1433 H 0.34208 0.31052 1.0145 0.0
H1434 H 0.38387 0.37253 0.17593 0.0
H1435 H 0.34997 0.22839 0.06707 0.0
H1436 H 0.35356 0.33411 0.07452 0.0
H1437 H 0.37434 0.26684 0.16737 0.0
C1438 C 0.3869 0.3027 0.2014 0.0
C1439 C 0.38992 0.33269 0.20469 0.0
C1440 C 0.35244 0.31091 0.07297 0.0
C1441 C 0.36875 0.30737 0.13952 0.0
C1442 C 0.34565 0.29743 0.03884 0.0
C1443 C 0.34525 0.26743 0.03565 0.0
C1444 C 0.35878 0.2942 0.10401 0.0
C1445 C 0.35032 0.25157 0.068 0.0
C1446 C 0.37634 0.29003 0.1691 0.0
C1447 C 0.38179 0.34933 0.17472 0.0
N1448 N 0.35704 0.26511 0.10057 0.0
N1449 N 0.37172 0.33646 0.1433 0.0
H1450 H 0.38431 0.62562 0.89064 0.0
H1451 H 0.45935 0.69115 0.69907 0.0
H1452 H 0.40191 0.71664 0.86998 0.0
H1453 H 0.4385 0.60096 0.72069 0.0
H1454 H 0.42319 0.70218 0.7519 0.0
H1455 H 0.38768 0.61786 0.82167 0.0
C1456 C 0.3882 0.64412 0.8717 0.0
C1457 C 0.39397 0.67172 0.88621 0.0
C1458 C 0.42569 0.67995 0.74423 0.0
C1459 C 0.3989 0.66279 0.8069 0.0
C1460 C 0.44614 0.67373 0.7139 0.0
C1461 C 0.45183 0.64519 0.7062 0.0
C1462 C 0.41154 0.65737 0.76712 0.0
C1463 C 0.43467 0.62325 0.72626 0.0
C1464 C 0.39027 0.63964 0.83212 0.0
C1465 C 0.39867 0.6948 0.86003 0.0
N1466 N 0.41566 0.62979 0.75642 0.0
N1467 N 0.40182 0.68974 0.82159 0.0
H1468 H 0.17583 0.75946 0.51871 0.0
H1469 H 0.12289 0.61494 0.63568 0.0
H1470 H 0.17045 0.67676 0.46379 0.0
H1471 H 0.14297 0.69625 0.68906 0.0
H1472 H 0.13999 0.63646 0.57259 0.0
H1473 H 0.16484 0.73599 0.58129 0.0
C1474 C 0.17275 0.73625 0.51986 0.0
C1475 C 0.17411 0.72007 0.48589 0.0
C1476 C 0.14079 0.64952 0.59816 0.0
C1477 C 0.1608 0.69289 0.55787 0.0
C1478 C 0.1308 0.63731 0.63419 0.0
C1479 C 0.13144 0.65377 0.6679 0.0
C1480 C 0.15127 0.67849 0.59568 0.0
C1481 C 0.14232 0.68257 0.66408 0.0
C1482 C 0.16637 0.72283 0.5557 0.0
C1483 C 0.16988 0.69005 0.48925 0.0
N1484 N 0.15162 0.69397 0.62877 0.0
N1485 N 0.16306 0.67743 0.52458 0.0
H1486 H 0.097 0.29996 0.33205 0.0
H1487 H 0.07338 0.36701 0.54193 0.0
H1488 H 0.0838 0.38939 0.35312 0.0
H1489 H 0.10086 0.28166 0.52011 0.0
H1490 H 0.07831 0.37599 0.47267 0.0
H1491 H 0.1006 0.29324 0.40058 0.0
C1492 C 0.09539 0.3183 0.35098 0.0
C1493 C 0.08982 0.34522 0.33695 0.0
C1494 C 0.0834 0.35534 0.48305 0.0
C1495 C 0.09327 0.33756 0.41544 0.0
C1496 C 0.08064 0.35023 0.5226 0.0
C1497 C 0.08654 0.32349 0.53685 0.0
C1498 C 0.09196 0.33351 0.45756 0.0
C1499 C 0.09553 0.30241 0.51041 0.0
C1500 C 0.09722 0.31441 0.39016 0.0
C1501 C 0.08755 0.36815 0.36287 0.0
N1502 N 0.09783 0.30783 0.47204 0.0
N1503 N 0.089 0.36373 0.40094 0.0
loop_
_geom_bond_atom_site_label_1
_geom_bond_atom_site_label_2
_geom_bond_distance
_geom_bond_site_symmetry_2
_ccdc_geom_bond_type
Pr0 C2 2.880 . S
Pr0 O20 2.562 . S
Pr0 O21 2.490 . S
Pr0 O22 2.695 . S
Pr0 O23 2.512 . S
Pr0 O25 2.437 . S
Pr0 O28 2.436 . S
Pr0 O30 2.438 . S
Pr1 C11 2.880 . S
Pr1 O22 2.436 1_655 S
Pr1 O24 2.438 . S
Pr1 O26 2.562 . S
Pr1 O27 2.490 . S
Pr1 O28 2.695 1_655 S
Pr1 O29 2.519 . S
Pr1 O31 2.437 1_655 S
C2 Pr0 2.880 . S
C2 C3 1.491 . S
C2 O20 1.254 . S
C2 O21 1.225 . S
C3 C2 1.491 . S
C3 C4 1.392 . S
C3 C8 1.356 . S
C4 C3 1.392 . S
C4 C5 1.368 . S
C4 H32 0.929 . S
C5 C4 1.368 . S
C5 C6 1.386 . S
C5 H33 0.929 . S
C6 C5 1.386 . S
C6 C7 1.373 . S
C7 C6 1.373 . S
C7 C8 1.409 . S
C7 H34 0.931 . S
C8 C3 1.356 . S
C8 C7 1.409 . S
C8 H35 0.930 . S
C9 O22 1.270 . S
C9 O23 1.248 . S
C10 O24 1.267 . S
C10 O25 1.278 1_655 S
C11 Pr1 2.880 . S
C11 C12 1.491 1_554 S
C11 O26 1.254 . S
C11 O27 1.225 . S
C12 C11 1.491 1_556 S
C12 C13 1.392 . S
C12 C17 1.356 . S
C13 C12 1.392 . S
C13 C14 1.368 . S
C13 H36 0.929 . S
C14 C13 1.368 . S
C14 C15 1.386 . S
C14 H37 0.929 . S
C15 C14 1.386 . S
C15 C16 1.373 . S
C16 C15 1.373 . S
C16 C17 1.409 . S
C16 H38 0.931 . S
C17 C12 1.356 . S
C17 C16 1.409 . S
C17 H39 0.930 . S
C18 O28 1.270 . S
C18 O29 1.224 1_455 S
C19 O30 1.267 . S
C19 O31 1.278 . S
O20 Pr0 2.562 . S
O20 C2 1.254 . S
O21 Pr0 2.490 . S
O21 C2 1.225 . S
O22 Pr0 2.695 . S
O22 Pr1 2.436 1_455 S
O22 C9 1.270 . S
O23 Pr0 2.512 . S
O23 C9 1.248 . S
O24 Pr1 2.438 . S
O24 C10 1.267 . S
O25 Pr0 2.437 . S
O25 C10 1.278 1_455 S
O26 Pr1 2.562 . S
O26 C11 1.254 . S
O27 Pr1 2.490 . S
O27 C11 1.225 . S
O28 Pr0 2.436 . S
O28 Pr1 2.695 1_455 S
O28 C18 1.270 . S
O29 Pr1 2.519 . S
O29 C18 1.224 1_655 S
O30 Pr0 2.438 . S
O30 C19 1.267 . S
O31 Pr1 2.437 1_455 S
O31 C19 1.278 . S
H32 C4 0.929 . S
H33 C5 0.929 . S
H34 C7 0.931 . S
H35 C8 0.930 . S
H36 C13 0.929 . S
H37 C14 0.929 . S
H38 C16 0.931 . S
H39 C17 0.930 . S
Pr40 C42 2.880 . S
Pr40 O60 2.562 . S
Pr40 O61 2.490 . S
Pr40 O62 2.695 . S
Pr40 O63 2.512 . S
Pr40 O65 2.437 . S
Pr40 O68 2.436 . S
Pr40 O70 2.438 . S
Pr41 C51 2.880 . S
Pr41 O62 2.436 . S
Pr41 O64 2.438 . S
Pr41 O66 2.562 . S
Pr41 O67 2.490 . S
Pr41 O68 2.695 . S
Pr41 O69 2.512 . S
Pr41 O71 2.437 . S
C42 Pr40 2.880 . S
C42 C43 1.491 . S
C42 O60 1.254 . S
C42 O61 1.225 . S
C43 C42 1.491 . S
C43 C44 1.392 . S
C43 C48 1.356 . S
C44 C43 1.392 . S
C44 C45 1.368 . S
C44 H72 0.929 . S
C45 C44 1.368 . S
C45 C46 1.386 . S
C45 H73 0.929 . S
C46 C45 1.386 . S
C46 C47 1.373 . S
C47 C46 1.373 . S
C47 C48 1.409 . S
C47 H74 0.931 . S
C48 C43 1.356 . S
C48 C47 1.409 . S
C48 H75 0.930 . S
C49 O62 1.270 . S
C49 O63 1.248 . S
C50 O64 1.267 . S
C50 O65 1.278 . S
C51 Pr41 2.880 . S
C51 C52 1.491 . S
C51 O66 1.254 . S
C51 O67 1.225 . S
C52 C51 1.491 . S
C52 C53 1.392 . S
C52 C57 1.356 . S
C53 C52 1.392 . S
C53 C54 1.368 . S
C53 H76 0.929 . S
C54 C53 1.368 . S
C54 C55 1.386 . S
C54 H77 0.929 . S
C55 C54 1.386 . S
C55 C56 1.373 . S
C56 C55 1.373 . S
C56 C57 1.409 . S
C56 H78 0.931 . S
C57 C52 1.356 . S
C57 C56 1.409 . S
C57 H79 0.930 . S
C58 O68 1.270 . S
C58 O69 1.248 . S
C59 O70 1.267 . S
C59 O71 1.278 . S
O60 Pr40 2.562 . S
O60 C42 1.254 . S
O61 Pr40 2.490 . S
O61 C42 1.225 . S
O62 Pr40 2.695 . S
O62 Pr41 2.436 . S
O62 C49 1.270 . S
O63 Pr40 2.512 . S
O63 C49 1.248 . S
O64 Pr41 2.438 . S
O64 C50 1.267 . S
O65 Pr40 2.437 . S
O65 C50 1.278 . S
O66 Pr41 2.562 . S
O66 C51 1.254 . S
O67 Pr41 2.490 . S
O67 C51 1.225 . S
O68 Pr40 2.436 . S
O68 Pr41 2.695 . S
O68 C58 1.270 . S
O69 Pr41 2.512 . S
O69 C58 1.248 . S
O70 Pr40 2.438 . S
O70 C59 1.267 . S
O71 Pr41 2.437 . S
O71 C59 1.278 . S
H72 C44 0.929 . S
H73 C45 0.929 . S
H74 C47 0.931 . S
H75 C48 0.930 . S
H76 C53 0.929 . S
H77 C54 0.929 . S
H78 C56 0.931 . S
H79 C57 0.930 . S
Pr80 C82 2.880 . S
Pr80 O100 2.562 . S
Pr80 O101 2.490 . S
Pr80 O102 2.695 . S
Pr80 O103 2.512 . S
Pr80 O105 2.437 . S
Pr80 O108 2.436 . S
Pr80 O110 2.438 . S
Pr81 C91 2.880 . S
Pr81 O102 2.436 . S
Pr81 O104 2.438 . S
Pr81 O106 2.562 . S
Pr81 O107 2.490 . S
Pr81 O108 2.695 . S
Pr81 O109 2.512 . S
Pr81 O111 2.437 . S
C82 Pr80 2.880 . S
C82 C83 1.491 . S
C82 O100 1.254 . S
C82 O101 1.225 . S
C83 C82 1.491 . S
C83 C84 1.392 . S
C83 C88 1.356 . S
C84 C83 1.392 . S
C84 C85 1.368 . S
C84 H112 0.929 . S
C85 C84 1.368 . S
C85 C86 1.386 . S
C85 H113 0.929 . S
C86 C85 1.386 . S
C86 C87 1.373 . S
C87 C86 1.373 . S
C87 C88 1.409 . S
C87 H114 0.931 . S
C88 C83 1.356 . S
C88 C87 1.409 . S
C88 H115 0.930 . S
C89 O102 1.270 . S
C89 O103 1.248 . S
C90 O104 1.267 . S
C90 O105 1.278 . S
C91 Pr81 2.880 . S
C91 C92 1.491 . S
C91 O106 1.254 . S
C91 O107 1.225 . S
C92 C91 1.491 . S
C92 C93 1.392 . S
C92 C97 1.356 . S
C93 C92 1.392 . S
C93 C94 1.368 . S
C93 H116 0.929 . S
C94 C93 1.368 . S
C94 C95 1.386 . S
C94 H117 0.929 . S
C95 C94 1.386 . S
C95 C96 1.373 . S
C96 C95 1.373 . S
C96 C97 1.409 . S
C96 H118 0.931 . S
C97 C92 1.356 . S
C97 C96 1.409 . S
C97 H119 0.930 . S
C98 O108 1.270 . S
C98 O109 1.248 . S
C99 O110 1.267 . S
C99 O111 1.278 . S
O100 Pr80 2.562 . S
O100 C82 1.254 . S
O101 Pr80 2.490 . S
O101 C82 1.225 . S
O102 Pr80 2.695 . S
O102 Pr81 2.436 . S
O102 C89 1.270 . S
O103 Pr80 2.512 . S
O103 C89 1.248 . S
O104 Pr81 2.438 . S
O104 C90 1.267 . S
O105 Pr80 2.437 . S
O105 C90 1.278 . S
O106 Pr81 2.562 . S
O106 C91 1.254 . S
O107 Pr81 2.490 . S
O107 C91 1.225 . S
O108 Pr80 2.436 . S
O108 Pr81 2.695 . S
O108 C98 1.270 . S
O109 Pr81 2.512 . S
O109 C98 1.248 . S
O110 Pr80 2.438 . S
O110 C99 1.267 . S
O111 Pr81 2.437 . S
O111 C99 1.278 . S
H112 C84 0.929 . S
H113 C85 0.929 . S
H114 C87 0.931 . S
H115 C88 0.930 . S
H116 C93 0.929 . S
H117 C94 0.929 . S
H118 C96 0.931 . S
H119 C97 0.930 . S
Pr120 C122 2.880 . S
Pr120 O140 2.562 . S
Pr120 O141 2.490 . S
Pr120 O142 2.695 . S
Pr120 O143 2.512 . S
Pr120 O145 2.437 . S
Pr120 O148 2.436 . S
Pr120 O150 2.438 . S
Pr121 C131 2.880 . S
Pr121 O142 2.436 . S
Pr121 O144 2.438 . S
Pr121 O146 2.562 . S
Pr121 O147 2.490 . S
Pr121 O148 2.695 . S
Pr121 O149 2.512 . S
Pr121 O151 2.437 . S
C122 Pr120 2.880 . S
C122 C123 1.491 1_556 S
C122 O140 1.254 . S
C122 O141 1.225 . S
C123 C122 1.491 1_554 S
C123 C124 1.392 . S
C123 C128 1.356 . S
C124 C123 1.392 . S
C124 C125 1.368 . S
C124 H152 0.929 . S
C125 C124 1.368 . S
C125 C126 1.386 . S
C125 H153 0.929 . S
C126 C125 1.386 . S
C126 C127 1.373 . S
C127 C126 1.373 . S
C127 C128 1.409 . S
C127 H154 0.931 . S
C128 C123 1.356 . S
C128 C127 1.409 . S
C128 H155 0.930 . S
C129 O142 1.270 . S
C129 O143 1.248 . S
C130 O144 1.267 . S
C130 O145 1.278 . S
C131 Pr121 2.880 . S
C131 C132 1.491 . S
C131 O146 1.254 . S
C131 O147 1.225 . S
C132 C131 1.491 . S
C132 C133 1.392 . S
C132 C137 1.356 . S
C133 C132 1.392 . S
C133 C134 1.368 . S
C133 H156 0.929 . S
C134 C133 1.368 . S
C134 C135 1.386 . S
C134 H157 0.929 . S
C135 C134 1.386 . S
C135 C136 1.373 . S
C136 C135 1.373 . S
C136 C137 1.409 . S
C136 H158 0.931 . S
C137 C132 1.356 . S
C137 C136 1.409 . S
C137 H159 0.930 . S
C138 O148 1.270 . S
C138 O149 1.248 . S
C139 O150 1.267 . S
C139 O151 1.278 . S
O140 Pr120 2.562 . S
O140 C122 1.254 . S
O141 Pr120 2.490 . S
O141 C122 1.225 . S
O142 Pr120 2.695 . S
O142 Pr121 2.436 . S
O142 C129 1.270 . S
O143 Pr120 2.512 . S
O143 C129 1.248 . S
O144 Pr121 2.438 . S
O144 C130 1.267 . S
O145 Pr120 2.437 . S
O145 C130 1.278 . S
O146 Pr121 2.562 . S
O146 C131 1.254 . S
O147 Pr121 2.490 . S
O147 C131 1.225 . S
O148 Pr120 2.436 . S
O148 Pr121 2.695 . S
O148 C138 1.270 . S
O149 Pr121 2.512 . S
O149 C138 1.248 . S
O150 Pr120 2.438 . S
O150 C139 1.267 . S
O151 Pr121 2.437 . S
O151 C139 1.278 . S
H152 C124 0.929 . S
H153 C125 0.929 . S
H154 C127 0.931 . S
H155 C128 0.930 . S
H156 C133 0.929 . S
H157 C134 0.929 . S
H158 C136 0.931 . S
H159 C137 0.930 . S
Pr160 C162 2.880 . S
Pr160 O180 2.562 . S
Pr160 O181 2.490 . S
Pr160 O182 2.695 . S
Pr160 O183 2.512 . S
Pr160 O185 2.437 . S
Pr160 O188 2.436 . S
Pr160 O190 2.438 . S
Pr161 C171 2.880 . S
Pr161 O182 2.436 1_655 S
Pr161 O184 2.438 . S
Pr161 O186 2.562 . S
Pr161 O187 2.490 . S
Pr161 O188 2.695 1_655 S
Pr161 O189 2.512 . S
Pr161 O191 2.437 1_655 S
C162 Pr160 2.880 . S
C162 C163 1.491 1_556 S
C162 O180 1.254 . S
C162 O181 1.225 . S
C163 C162 1.491 1_554 S
C163 C164 1.392 . S
C163 C168 1.356 . S
C164 C163 1.392 . S
C164 C165 1.368 . S
C164 H192 0.929 . S
C165 C164 1.368 . S
C165 C166 1.386 . S
C165 H193 0.929 . S
C166 C165 1.386 . S
C166 C167 1.373 . S
C167 C166 1.373 . S
C167 C168 1.409 . S
C167 H194 0.931 . S
C168 C163 1.356 . S
C168 C167 1.409 . S
C168 H195 0.930 . S
C169 O182 1.270 . S
C169 O183 1.248 . S
C170 O184 1.267 . S
C170 O185 1.278 1_655 S
C171 Pr161 2.880 . S
C171 C172 1.491 . S
C171 O186 1.254 . S
C171 O187 1.225 . S
C172 C171 1.491 . S
C172 C173 1.392 . S
C172 C177 1.356 . S
C173 C172 1.392 . S
C173 C174 1.368 . S
C173 H196 0.929 . S
C174 C173 1.368 . S
C174 C175 1.386 . S
C174 H197 0.929 . S
C175 C174 1.386 . S
C175 C176 1.373 . S
C176 C175 1.373 . S
C176 C177 1.409 . S
C176 H198 0.931 . S
C177 C172 1.356 . S
C177 C176 1.409 . S
C177 H199 0.930 . S
C178 O188 1.278 . S
C178 O189 1.235 1_455 S
C179 O190 1.267 . S
C179 O191 1.278 . S
O180 Pr160 2.562 . S
O180 C162 1.254 . S
O181 Pr160 2.490 . S
O181 C162 1.225 . S
O182 Pr160 2.695 . S
O182 Pr161 2.436 1_455 S
O182 C169 1.270 . S
O183 Pr160 2.512 . S
O183 C169 1.248 . S
O184 Pr161 2.438 . S
O184 C170 1.267 . S
O185 Pr160 2.437 . S
O185 C170 1.278 1_455 S
O186 Pr161 2.562 . S
O186 C171 1.254 . S
O187 Pr161 2.490 . S
O187 C171 1.225 . S
O188 Pr160 2.436 . S
O188 Pr161 2.695 1_455 S
O188 C178 1.278 . S
O189 Pr161 2.512 . S
O189 C178 1.235 1_655 S
O190 Pr160 2.438 . S
O190 C179 1.267 . S
O191 Pr161 2.437 1_455 S
O191 C179 1.278 . S
H192 C164 0.929 . S
H193 C165 0.929 . S
H194 C167 0.931 . S
H195 C168 0.930 . S
H196 C173 0.929 . S
H197 C174 0.929 . S
H198 C176 0.931 . S
H199 C177 0.930 . S
Pr200 C202 2.880 . S
Pr200 O220 2.562 . S
Pr200 O221 2.490 . S
Pr200 O222 2.695 . S
Pr200 O223 2.512 . S
Pr200 O225 2.437 . S
Pr200 O228 2.436 . S
Pr200 O230 2.438 . S
Pr201 C211 2.880 1_554 S
Pr201 O222 2.436 . S
Pr201 O224 2.438 . S
Pr201 O226 2.562 . S
Pr201 O227 2.490 . S
Pr201 O228 2.695 . S
Pr201 O229 2.512 . S
Pr201 O231 2.437 . S
C202 Pr200 2.880 . S
C202 C203 1.491 . S
C202 O220 1.254 . S
C202 O221 1.225 . S
C203 C202 1.491 . S
C203 C204 1.392 . S
C203 C208 1.356 . S
C204 C203 1.392 . S
C204 C205 1.368 . S
C204 H232 0.929 . S
C205 C204 1.368 . S
C205 C206 1.386 . S
C205 H233 0.929 . S
C206 C205 1.386 . S
C206 C207 1.373 . S
C207 C206 1.373 . S
C207 C208 1.409 . S
C207 H234 0.931 . S
C208 C203 1.356 . S
C208 C207 1.409 . S
C208 H235 0.930 . S
C209 O222 1.270 . S
C209 O223 1.248 . S
C210 O224 1.267 . S
C210 O225 1.278 . S
C211 Pr201 2.880 1_556 S
C211 C212 1.491 . S
C211 O226 1.254 1_556 S
C211 O227 1.225 1_556 S
C212 C211 1.491 . S
C212 C213 1.392 . S
C212 C217 1.356 . S
C213 C212 1.392 . S
C213 C214 1.368 . S
C213 H236 0.929 . S
C214 C213 1.368 . S
C214 C215 1.386 . S
C214 H237 0.929 . S
C215 C214 1.386 . S
C215 C216 1.373 . S
C216 C215 1.373 . S
C216 C217 1.409 . S
C216 H238 0.931 . S
C217 C212 1.356 . S
C217 C216 1.409 . S
C217 H239 0.930 . S
C218 O228 1.270 . S
C218 O229 1.248 . S
C219 O230 1.267 . S
C219 O231 1.278 . S
O220 Pr200 2.562 . S
O220 C202 1.254 . S
O221 Pr200 2.490 . S
O221 C202 1.225 . S
O222 Pr200 2.695 . S
O222 Pr201 2.436 . S
O222 C209 1.270 . S
O223 Pr200 2.512 . S
O223 C209 1.248 . S
O224 Pr201 2.438 . S
O224 C210 1.267 . S
O225 Pr200 2.437 . S
O225 C210 1.278 . S
O226 Pr201 2.562 . S
O226 C211 1.254 1_554 S
O227 Pr201 2.490 . S
O227 C211 1.225 1_554 S
O228 Pr200 2.436 . S
O228 Pr201 2.695 . S
O228 C218 1.270 . S
O229 Pr201 2.512 . S
O229 C218 1.248 . S
O230 Pr200 2.438 . S
O230 C219 1.267 . S
O231 Pr201 2.437 . S
O231 C219 1.278 . S
H232 C204 0.929 . S
H233 C205 0.929 . S
H234 C207 0.931 . S
H235 C208 0.930 . S
H236 C213 0.929 . S
H237 C214 0.929 . S
H238 C216 0.931 . S
H239 C217 0.930 . S
Pr240 C242 2.880 . S
Pr240 O260 2.562 . S
Pr240 O261 2.490 . S
Pr240 O262 2.695 . S
Pr240 O263 2.512 . S
Pr240 O265 2.437 . S
Pr240 O268 2.436 . S
Pr240 O270 2.438 . S
Pr241 C251 2.880 . S
Pr241 O262 2.436 . S
Pr241 O264 2.438 . S
Pr241 O266 2.562 . S
Pr241 O267 2.490 . S
Pr241 O268 2.695 . S
Pr241 O269 2.512 . S
Pr241 O271 2.437 . S
C242 Pr240 2.880 . S
C242 C243 1.491 . S
C242 O260 1.254 . S
C242 O261 1.225 . S
C243 C242 1.491 . S
C243 C244 1.392 . S
C243 C248 1.356 . S
C244 C243 1.392 . S
C244 C245 1.368 . S
C244 H272 0.929 . S
C245 C244 1.368 . S
C245 C246 1.386 . S
C245 H273 0.929 . S
C246 C245 1.386 . S
C246 C247 1.373 . S
C247 C246 1.373 . S
C247 C248 1.409 . S
C247 H274 0.931 . S
C248 C243 1.356 . S
C248 C247 1.409 . S
C248 H275 0.930 . S
C249 O262 1.270 . S
C249 O263 1.248 . S
C250 O264 1.267 . S
C250 O265 1.278 . S
C251 Pr241 2.880 . S
C251 C252 1.491 . S
C251 O266 1.254 . S
C251 O267 1.225 . S
C252 C251 1.491 . S
C252 C253 1.392 . S
C252 C257 1.356 . S
C253 C252 1.392 . S
C253 C254 1.368 . S
C253 H276 0.929 . S
C254 C253 1.368 . S
C254 C255 1.386 . S
C254 H277 0.929 . S
C255 C254 1.386 . S
C255 C256 1.373 . S
C256 C255 1.373 . S
C256 C257 1.409 . S
C256 H278 0.931 . S
C257 C252 1.356 . S
C257 C256 1.409 . S
C257 H279 0.930 . S
C258 O268 1.270 . S
C258 O269 1.248 . S
C259 O270 1.267 . S
C259 O271 1.278 . S
O260 Pr240 2.562 . S
O260 C242 1.254 . S
O261 Pr240 2.490 . S
O261 C242 1.225 . S
O262 Pr240 2.695 . S
O262 Pr241 2.436 . S
O262 C249 1.270 . S
O263 Pr240 2.512 . S
O263 C249 1.248 . S
O264 Pr241 2.438 . S
O264 C250 1.267 . S
O265 Pr240 2.437 . S
O265 C250 1.278 . S
O266 Pr241 2.562 . S
O266 C251 1.254 . S
O267 Pr241 2.490 . S
O267 C251 1.225 . S
O268 Pr240 2.436 . S
O268 Pr241 2.695 . S
O268 C258 1.270 . S
O269 Pr241 2.512 . S
O269 C258 1.248 . S
O270 Pr240 2.438 . S
O270 C259 1.267 . S
O271 Pr241 2.437 . S
O271 C259 1.278 . S
H272 C244 0.929 . S
H273 C245 0.929 . S
H274 C247 0.931 . S
H275 C248 0.930 . S
H276 C253 0.929 . S
H277 C254 0.929 . S
H278 C256 0.931 . S
H279 C257 0.930 . S
Pr280 C282 2.880 . S
Pr280 O300 2.562 . S
Pr280 O301 2.490 . S
Pr280 O302 2.695 . S
Pr280 O303 2.512 . S
Pr280 O305 2.437 . S
Pr280 O308 2.436 . S
Pr280 O310 2.438 . S
Pr281 C291 2.880 . S
Pr281 O302 2.436 . S
Pr281 O304 2.438 . S
Pr281 O306 2.562 . S
Pr281 O307 2.490 . S
Pr281 O308 2.695 . S
Pr281 O309 2.512 . S
Pr281 O311 2.437 . S
C282 Pr280 2.880 . S
C282 C283 1.491 . S
C282 O300 1.254 . S
C282 O301 1.225 . S
C283 C282 1.491 . S
C283 C284 1.392 . S
C283 C288 1.356 . S
C284 C283 1.392 . S
C284 C285 1.368 . S
C284 H312 0.929 . S
C285 C284 1.368 . S
C285 C286 1.386 . S
C285 H313 0.929 . S
C286 C285 1.386 . S
C286 C287 1.373 . S
C287 C286 1.373 . S
C287 C288 1.409 . S
C287 H314 0.931 . S
C288 C283 1.356 . S
C288 C287 1.409 . S
C288 H315 0.930 . S
C289 O302 1.270 . S
C289 O303 1.248 . S
C290 O304 1.267 . S
C290 O305 1.278 . S
C291 Pr281 2.880 . S
C291 C292 1.491 . S
C291 O306 1.254 . S
C291 O307 1.225 . S
C292 C291 1.491 . S
C292 C293 1.392 . S
C292 C297 1.356 . S
C293 C292 1.392 . S
C293 C294 1.368 . S
C293 H316 0.929 . S
C294 C293 1.368 . S
C294 C295 1.386 . S
C294 H317 0.929 . S
C295 C294 1.386 . S
C295 C296 1.373 . S
C296 C295 1.373 . S
C296 C297 1.409 . S
C296 H318 0.931 . S
C297 C292 1.356 . S
C297 C296 1.409 . S
C297 H319 0.930 . S
C298 O308 1.270 . S
C298 O309 1.248 . S
C299 O310 1.267 . S
C299 O311 1.278 . S
O300 Pr280 2.562 . S
O300 C282 1.254 . S
O301 Pr280 2.490 . S
O301 C282 1.225 . S
O302 Pr280 2.695 . S
O302 Pr281 2.436 . S
O302 C289 1.270 . S
O303 Pr280 2.512 . S
O303 C289 1.248 . S
O304 Pr281 2.438 . S
O304 C290 1.267 . S
O305 Pr280 2.437 . S
O305 C290 1.278 . S
O306 Pr281 2.562 . S
O306 C291 1.254 . S
O307 Pr281 2.490 . S
O307 C291 1.225 . S
O308 Pr280 2.436 . S
O308 Pr281 2.695 . S
O308 C298 1.270 . S
O309 Pr281 2.512 . S
O309 C298 1.248 . S
O310 Pr280 2.438 . S
O310 C299 1.267 . S
O311 Pr281 2.437 . S
O311 C299 1.278 . S
H312 C284 0.929 . S
H313 C285 0.929 . S
H314 C287 0.931 . S
H315 C288 0.930 . S
H316 C293 0.929 . S
H317 C294 0.929 . S
H318 C296 0.931 . S
H319 C297 0.930 . S
Pr320 C322 2.880 . S
Pr320 O340 2.562 . S
Pr320 O341 2.490 . S
Pr320 O342 2.695 . S
Pr320 O343 2.512 . S
Pr320 O345 2.437 . S
Pr320 O348 2.436 . S
Pr320 O350 2.438 . S
Pr321 C331 2.880 . S
Pr321 O342 2.436 . S
Pr321 O344 2.438 . S
Pr321 O346 2.562 . S
Pr321 O347 2.490 . S
Pr321 O348 2.695 . S
Pr321 O349 2.512 . S
Pr321 O351 2.437 . S
C322 Pr320 2.880 . S
C322 C323 1.491 . S
C322 O340 1.254 . S
C322 O341 1.225 . S
C323 C322 1.491 . S
C323 C324 1.392 . S
C323 C328 1.356 . S
C324 C323 1.392 . S
C324 C325 1.368 . S
C324 H352 0.929 . S
C325 C324 1.368 . S
C325 C326 1.386 . S
C325 H353 0.929 . S
C326 C325 1.386 . S
C326 C327 1.373 . S
C327 C326 1.373 . S
C327 C328 1.409 . S
C327 H354 0.931 . S
C328 C323 1.356 . S
C328 C327 1.409 . S
C328 H355 0.930 . S
C329 O342 1.270 . S
C329 O343 1.248 . S
C330 O344 1.267 . S
C330 O345 1.278 . S
C331 Pr321 2.880 . S
C331 C332 1.491 . S
C331 O346 1.254 . S
C331 O347 1.225 . S
C332 C331 1.491 . S
C332 C333 1.392 . S
C332 C337 1.356 . S
C333 C332 1.392 . S
C333 C334 1.368 . S
C333 H356 0.929 . S
C334 C333 1.368 . S
C334 C335 1.386 . S
C334 H357 0.929 . S
C335 C334 1.386 . S
C335 C336 1.373 . S
C336 C335 1.373 . S
C336 C337 1.409 . S
C336 H358 0.931 . S
C337 C332 1.356 . S
C337 C336 1.409 . S
C337 H359 0.930 . S
C338 O348 1.270 . S
C338 O349 1.248 . S
C339 O350 1.267 . S
C339 O351 1.278 . S
O340 Pr320 2.562 . S
O340 C322 1.254 . S
O341 Pr320 2.490 . S
O341 C322 1.225 . S
O342 Pr320 2.695 . S
O342 Pr321 2.436 . S
O342 C329 1.270 . S
O343 Pr320 2.512 . S
O343 C329 1.248 . S
O344 Pr321 2.438 . S
O344 C330 1.267 . S
O345 Pr320 2.437 . S
O345 C330 1.278 . S
O346 Pr321 2.562 . S
O346 C331 1.254 . S
O347 Pr321 2.490 . S
O347 C331 1.225 . S
O348 Pr320 2.436 . S
O348 Pr321 2.695 . S
O348 C338 1.270 . S
O349 Pr321 2.512 . S
O349 C338 1.248 . S
O350 Pr320 2.438 . S
O350 C339 1.267 . S
O351 Pr321 2.437 . S
O351 C339 1.278 . S
H352 C324 0.929 . S
H353 C325 0.929 . S
H354 C327 0.931 . S
H355 C328 0.930 . S
H356 C333 0.929 . S
H357 C334 0.929 . S
H358 C336 0.931 . S
H359 C337 0.930 . S
Pr360 C362 2.880 . S
Pr360 O380 2.562 . S
Pr360 O381 2.490 . S
Pr360 O382 2.695 . S
Pr360 O383 2.512 . S
Pr360 O385 2.437 . S
Pr360 O388 2.436 . S
Pr360 O390 2.438 . S
Pr361 C371 2.880 . S
Pr361 O382 2.436 . S
Pr361 O384 2.438 . S
Pr361 O386 2.562 . S
Pr361 O387 2.490 . S
Pr361 O388 2.695 . S
Pr361 O389 2.512 . S
Pr361 O391 2.437 . S
C362 Pr360 2.880 . S
C362 C363 1.491 . S
C362 O380 1.254 . S
C362 O381 1.225 . S
C363 C362 1.491 . S
C363 C364 1.392 . S
C363 C368 1.356 . S
C364 C363 1.392 . S
C364 C365 1.368 . S
C364 H392 0.929 . S
C365 C364 1.368 . S
C365 C366 1.386 . S
C365 H393 0.929 . S
C366 C365 1.386 . S
C366 C367 1.373 . S
C367 C366 1.373 . S
C367 C368 1.409 . S
C367 H394 0.931 . S
C368 C363 1.356 . S
C368 C367 1.409 . S
C368 H395 0.930 . S
C369 O382 1.270 . S
C369 O383 1.248 . S
C370 O384 1.267 . S
C370 O385 1.278 . S
C371 Pr361 2.880 . S
C371 C372 1.491 . S
C371 O386 1.254 . S
C371 O387 1.225 . S
C372 C371 1.491 . S
C372 C373 1.392 . S
C372 C377 1.356 . S
C373 C372 1.392 . S
C373 C374 1.368 1_554 S
C373 H396 0.929 . S
C374 C373 1.368 1_556 S
C374 C375 1.386 . S
C374 H397 0.929 . S
C375 C374 1.386 . S
C375 C376 1.373 . S
C376 C375 1.373 . S
C376 C377 1.409 1_556 S
C376 H398 0.931 . S
C377 C372 1.356 . S
C377 C376 1.409 1_554 S
C377 H399 0.930 . S
C378 O388 1.270 . S
C378 O389 1.248 . S
C379 O390 1.267 . S
C379 O391 1.278 . S
O380 Pr360 2.562 . S
O380 C362 1.254 . S
O381 Pr360 2.490 . S
O381 C362 1.225 . S
O382 Pr360 2.695 . S
O382 Pr361 2.436 . S
O382 C369 1.270 . S
O383 Pr360 2.512 . S
O383 C369 1.248 . S
O384 Pr361 2.438 . S
O384 C370 1.267 . S
O385 Pr360 2.437 . S
O385 C370 1.278 . S
O386 Pr361 2.562 . S
O386 C371 1.254 . S
O387 Pr361 2.490 . S
O387 C371 1.225 . S
O388 Pr360 2.436 . S
O388 Pr361 2.695 . S
O388 C378 1.270 . S
O389 Pr361 2.512 . S
O389 C378 1.248 . S
O390 Pr360 2.438 . S
O390 C379 1.267 . S
O391 Pr361 2.437 . S
O391 C379 1.278 . S
H392 C364 0.929 . S
H393 C365 0.929 . S
H394 C367 0.931 . S
H395 C368 0.930 . S
H396 C373 0.929 . S
H397 C374 0.929 . S
H398 C376 0.931 . S
H399 C377 0.930 . S
Pr400 C402 2.880 . S
Pr400 O420 2.562 . S
Pr400 O421 2.490 . S
Pr400 O422 2.695 . S
Pr400 O423 2.512 . S
Pr400 O425 2.437 . S
Pr400 O428 2.436 . S
Pr400 O430 2.438 . S
Pr401 C411 2.880 . S
Pr401 O422 2.436 . S
Pr401 O424 2.438 . S
Pr401 O426 2.562 . S
Pr401 O427 2.490 . S
Pr401 O428 2.695 . S
Pr401 O429 2.512 . S
Pr401 O431 2.437 . S
C402 Pr400 2.880 . S
C402 C403 1.491 . S
C402 O420 1.254 . S
C402 O421 1.225 . S
C403 C402 1.491 . S
C403 C404 1.392 . S
C403 C408 1.356 1_556 S
C404 C403 1.392 . S
C404 C405 1.368 1_556 S
C404 H432 0.929 . S
C405 C404 1.368 1_554 S
C405 C406 1.386 . S
C405 H433 0.929 . S
C406 C405 1.386 . S
C406 C407 1.373 . S
C407 C406 1.373 . S
C407 C408 1.409 . S
C407 H434 0.931 . S
C408 C403 1.356 1_554 S
C408 C407 1.409 . S
C408 H435 0.930 . S
C409 O422 1.270 . S
C409 O423 1.248 . S
C410 O424 1.267 . S
C410 O425 1.278 . S
C411 Pr401 2.880 . S
C411 C412 1.491 . S
C411 O426 1.254 . S
C411 O427 1.225 . S
C412 C411 1.491 . S
C412 C413 1.392 . S
C412 C417 1.356 . S
C413 C412 1.392 . S
C413 C414 1.368 . S
C413 H436 0.929 . S
C414 C413 1.368 . S
C414 C415 1.386 . S
C414 H437 0.929 . S
C415 C414 1.386 . S
C415 C416 1.373 . S
C416 C415 1.373 . S
C416 C417 1.409 . S
C416 H438 0.931 . S
C417 C412 1.356 . S
C417 C416 1.409 . S
C417 H439 0.930 . S
C418 O428 1.270 . S
C418 O429 1.248 . S
C419 O430 1.267 . S
C419 O431 1.278 . S
O420 Pr400 2.562 . S
O420 C402 1.254 . S
O421 Pr400 2.490 . S
O421 C402 1.225 . S
O422 Pr400 2.695 . S
O422 Pr401 2.436 . S
O422 C409 1.270 . S
O423 Pr400 2.512 . S
O423 C409 1.248 . S
O424 Pr401 2.438 . S
O424 C410 1.267 . S
O425 Pr400 2.437 . S
O425 C410 1.278 . S
O426 Pr401 2.562 . S
O426 C411 1.254 . S
O427 Pr401 2.490 . S
O427 C411 1.225 . S
O428 Pr400 2.436 . S
O428 Pr401 2.695 . S
O428 C418 1.270 . S
O429 Pr401 2.512 . S
O429 C418 1.248 . S
O430 Pr400 2.438 . S
O430 C419 1.267 . S
O431 Pr401 2.437 . S
O431 C419 1.278 . S
H432 C404 0.929 . S
H433 C405 0.929 . S
H434 C407 0.931 . S
H435 C408 0.930 . S
H436 C413 0.929 . S
H437 C414 0.929 . S
H438 C416 0.931 . S
H439 C417 0.930 . S
Pr440 C442 2.880 . S
Pr440 O460 2.562 . S
Pr440 O461 2.490 . S
Pr440 O462 2.695 . S
Pr440 O463 2.512 . S
Pr440 O465 2.437 . S
Pr440 O468 2.436 . S
Pr440 O470 2.438 . S
Pr441 C451 2.880 . S
Pr441 O462 2.436 . S
Pr441 O464 2.438 . S
Pr441 O466 2.562 . S
Pr441 O467 2.490 . S
Pr441 O468 2.695 . S
Pr441 O469 2.512 . S
Pr441 O471 2.437 . S
C442 Pr440 2.880 . S
C442 C443 1.491 . S
C442 O460 1.254 . S
C442 O461 1.225 . S
C443 C442 1.491 . S
C443 C444 1.392 . S
C443 C448 1.356 . S
C444 C443 1.392 . S
C444 C445 1.368 . S
C444 H472 0.929 . S
C445 C444 1.368 . S
C445 C446 1.386 . S
C445 H473 0.929 . S
C446 C445 1.386 . S
C446 C447 1.373 . S
C447 C446 1.373 . S
C447 C448 1.409 . S
C447 H474 0.931 . S
C448 C443 1.356 . S
C448 C447 1.409 . S
C448 H475 0.930 . S
C449 O462 1.270 . S
C449 O463 1.248 . S
C450 O464 1.267 . S
C450 O465 1.278 . S
C451 Pr441 2.880 . S
C451 C452 1.491 . S
C451 O466 1.254 . S
C451 O467 1.225 . S
C452 C451 1.491 . S
C452 C453 1.392 . S
C452 C457 1.356 . S
C453 C452 1.392 . S
C453 C454 1.368 . S
C453 H476 0.929 . S
C454 C453 1.368 . S
C454 C455 1.386 . S
C454 H477 0.929 . S
C455 C454 1.386 . S
C455 C456 1.373 . S
C456 C455 1.373 . S
C456 C457 1.409 . S
C456 H478 0.931 . S
C457 C452 1.356 . S
C457 C456 1.409 . S
C457 H479 0.930 . S
C458 O468 1.270 . S
C458 O469 1.248 . S
C459 O470 1.267 . S
C459 O471 1.278 . S
O460 Pr440 2.562 . S
O460 C442 1.254 . S
O461 Pr440 2.490 . S
O461 C442 1.225 . S
O462 Pr440 2.695 . S
O462 Pr441 2.436 . S
O462 C449 1.270 . S
O463 Pr440 2.512 . S
O463 C449 1.248 . S
O464 Pr441 2.438 . S
O464 C450 1.267 . S
O465 Pr440 2.437 . S
O465 C450 1.278 . S
O466 Pr441 2.562 . S
O466 C451 1.254 . S
O467 Pr441 2.490 . S
O467 C451 1.225 . S
O468 Pr440 2.436 . S
O468 Pr441 2.695 . S
O468 C458 1.270 . S
O469 Pr441 2.512 . S
O469 C458 1.248 . S
O470 Pr440 2.438 . S
O470 C459 1.267 . S
O471 Pr441 2.437 . S
O471 C459 1.278 . S
H472 C444 0.929 . S
H473 C445 0.929 . S
H474 C447 0.931 . S
H475 C448 0.930 . S
H476 C453 0.929 . S
H477 C454 0.929 . S
H478 C456 0.931 . S
H479 C457 0.930 . S
Pr480 C482 2.880 . S
Pr480 O500 2.562 . S
Pr480 O501 2.490 . S
Pr480 O502 2.695 . S
Pr480 O503 2.512 . S
Pr480 O505 2.437 . S
Pr480 O508 2.436 . S
Pr480 O510 2.438 . S
Pr481 C491 2.880 . S
Pr481 O502 2.436 . S
Pr481 O504 2.438 . S
Pr481 O506 2.562 . S
Pr481 O507 2.490 . S
Pr481 O508 2.695 . S
Pr481 O509 2.512 . S
Pr481 O511 2.437 . S
C482 Pr480 2.880 . S
C482 C483 1.491 . S
C482 O500 1.254 . S
C482 O501 1.225 . S
C483 C482 1.491 . S
C483 C484 1.392 . S
C483 C488 1.356 . S
C484 C483 1.392 . S
C484 C485 1.368 . S
C484 H512 0.929 . S
C485 C484 1.368 . S
C485 C486 1.386 . S
C485 H513 0.929 . S
C486 C485 1.386 . S
C486 C487 1.373 . S
C487 C486 1.373 . S
C487 C488 1.409 . S
C487 H514 0.931 . S
C488 C483 1.356 . S
C488 C487 1.409 . S
C488 H515 0.930 . S
C489 O502 1.270 . S
C489 O503 1.248 . S
C490 O504 1.267 . S
C490 O505 1.278 . S
C491 Pr481 2.880 . S
C491 C492 1.491 . S
C491 O506 1.254 . S
C491 O507 1.225 . S
C492 C491 1.491 . S
C492 C493 1.392 . S
C492 C497 1.356 . S
C493 C492 1.392 . S
C493 C494 1.368 . S
C493 H516 0.929 . S
C494 C493 1.368 . S
C494 C495 1.386 . S
C494 H517 0.929 . S
C495 C494 1.386 . S
C495 C496 1.373 . S
C496 C495 1.373 . S
C496 C497 1.409 . S
C496 H518 0.931 . S
C497 C492 1.356 . S
C497 C496 1.409 . S
C497 H519 0.930 . S
C498 O508 1.270 . S
C498 O509 1.248 . S
C499 O510 1.267 . S
C499 O511 1.278 . S
O500 Pr480 2.562 . S
O500 C482 1.254 . S
O501 Pr480 2.490 . S
O501 C482 1.225 . S
O502 Pr480 2.695 . S
O502 Pr481 2.436 . S
O502 C489 1.270 . S
O503 Pr480 2.512 . S
O503 C489 1.248 . S
O504 Pr481 2.438 . S
O504 C490 1.267 . S
O505 Pr480 2.437 . S
O505 C490 1.278 . S
O506 Pr481 2.562 . S
O506 C491 1.254 . S
O507 Pr481 2.490 . S
O507 C491 1.225 . S
O508 Pr480 2.436 . S
O508 Pr481 2.695 . S
O508 C498 1.270 . S
O509 Pr481 2.512 . S
O509 C498 1.248 . S
O510 Pr480 2.438 . S
O510 C499 1.267 . S
O511 Pr481 2.437 . S
O511 C499 1.278 . S
H512 C484 0.929 . S
H513 C485 0.929 . S
H514 C487 0.931 . S
H515 C488 0.930 . S
H516 C493 0.929 . S
H517 C494 0.929 . S
H518 C496 0.931 . S
H519 C497 0.930 . S
Pr520 C522 2.880 . S
Pr520 O540 2.562 . S
Pr520 O541 2.490 . S
Pr520 O542 2.695 1_655 S
Pr520 O543 2.507 1_655 S
Pr520 O545 2.437 1_655 S
Pr520 O548 2.436 1_655 S
Pr520 O550 2.438 . S
Pr521 C531 2.880 . S
Pr521 O542 2.436 . S
Pr521 O544 2.438 . S
Pr521 O546 2.562 . S
Pr521 O547 2.490 . S
Pr521 O548 2.695 . S
Pr521 O549 2.512 . S
Pr521 O551 2.437 . S
C522 Pr520 2.880 . S
C522 C523 1.491 1_554 S
C522 O540 1.254 . S
C522 O541 1.225 . S
C523 C522 1.491 1_556 S
C523 C524 1.392 . S
C523 C528 1.356 . S
C524 C523 1.392 . S
C524 C525 1.368 . S
C524 H552 0.929 . S
C525 C524 1.368 . S
C525 C526 1.386 . S
C525 H553 0.929 . S
C526 C525 1.386 . S
C526 C527 1.373 . S
C527 C526 1.373 . S
C527 C528 1.409 . S
C527 H554 0.931 . S
C528 C523 1.356 . S
C528 C527 1.409 . S
C528 H555 0.930 . S
C529 O542 1.270 . S
C529 O543 1.265 . S
C530 O544 1.267 . S
C530 O545 1.278 . S
C531 Pr521 2.880 . S
C531 C532 1.491 . S
C531 O546 1.254 . S
C531 O547 1.225 . S
C532 C531 1.491 . S
C532 C533 1.392 . S
C532 C537 1.356 . S
C533 C532 1.392 . S
C533 C534 1.368 . S
C533 H556 0.929 . S
C534 C533 1.368 . S
C534 C535 1.386 . S
C534 H557 0.929 . S
C535 C534 1.386 . S
C535 C536 1.373 . S
C536 C535 1.373 . S
C536 C537 1.409 . S
C536 H558 0.931 . S
C537 C532 1.356 . S
C537 C536 1.409 . S
C537 H559 0.930 . S
C538 O548 1.270 . S
C538 O549 1.248 . S
C539 O550 1.267 . S
C539 O551 1.278 1_655 S
O540 Pr520 2.562 . S
O540 C522 1.254 . S
O541 Pr520 2.490 . S
O541 C522 1.225 . S
O542 Pr520 2.695 1_455 S
O542 Pr521 2.436 . S
O542 C529 1.270 . S
O543 Pr520 2.507 1_455 S
O543 C529 1.265 . S
O544 Pr521 2.438 . S
O544 C530 1.267 . S
O545 Pr520 2.437 1_455 S
O545 C530 1.278 . S
O546 Pr521 2.562 . S
O546 C531 1.254 . S
O547 Pr521 2.490 . S
O547 C531 1.225 . S
O548 Pr520 2.436 1_455 S
O548 Pr521 2.695 . S
O548 C538 1.270 . S
O549 Pr521 2.512 . S
O549 C538 1.248 . S
O550 Pr520 2.438 . S
O550 C539 1.267 . S
O551 Pr521 2.437 . S
O551 C539 1.278 1_455 S
H552 C524 0.929 . S
H553 C525 0.929 . S
H554 C527 0.931 . S
H555 C528 0.930 . S
H556 C533 0.929 . S
H557 C534 0.929 . S
H558 C536 0.931 . S
H559 C537 0.930 . S
Pr560 C562 2.880 . S
Pr560 O580 2.562 . S
Pr560 O581 2.490 . S
Pr560 O582 2.695 . S
Pr560 O583 2.512 . S
Pr560 O585 2.437 . S
Pr560 O588 2.436 . S
Pr560 O590 2.438 . S
Pr561 C571 2.880 . S
Pr561 O582 2.436 . S
Pr561 O584 2.438 . S
Pr561 O586 2.562 . S
Pr561 O587 2.490 . S
Pr561 O588 2.695 . S
Pr561 O589 2.512 . S
Pr561 O591 2.437 . S
C562 Pr560 2.880 . S
C562 C563 1.491 . S
C562 O580 1.254 . S
C562 O581 1.225 . S
C563 C562 1.491 . S
C563 C564 1.392 . S
C563 C568 1.356 . S
C564 C563 1.392 . S
C564 C565 1.368 . S
C564 H592 0.929 . S
C565 C564 1.368 . S
C565 C566 1.386 . S
C565 H593 0.929 . S
C566 C565 1.386 . S
C566 C567 1.373 . S
C567 C566 1.373 . S
C567 C568 1.409 . S
C567 H594 0.931 . S
C568 C563 1.356 . S
C568 C567 1.409 . S
C568 H595 0.930 . S
C569 O582 1.270 . S
C569 O583 1.248 . S
C570 O584 1.267 . S
C570 O585 1.278 . S
C571 Pr561 2.880 . S
C571 C572 1.491 . S
C571 O586 1.254 . S
C571 O587 1.225 . S
C572 C571 1.491 . S
C572 C573 1.392 . S
C572 C577 1.356 . S
C573 C572 1.392 . S
C573 C574 1.368 . S
C573 H596 0.929 . S
C574 C573 1.368 . S
C574 C575 1.386 . S
C574 H597 0.929 . S
C575 C574 1.386 . S
C575 C576 1.373 . S
C576 C575 1.373 . S
C576 C577 1.409 . S
C576 H598 0.931 . S
C577 C572 1.356 . S
C577 C576 1.409 . S
C577 H599 0.930 . S
C578 O588 1.270 . S
C578 O589 1.248 . S
C579 O590 1.267 . S
C579 O591 1.278 . S
O580 Pr560 2.562 . S
O580 C562 1.254 . S
O581 Pr560 2.490 . S
O581 C562 1.225 . S
O582 Pr560 2.695 . S
O582 Pr561 2.436 . S
O582 C569 1.270 . S
O583 Pr560 2.512 . S
O583 C569 1.248 . S
O584 Pr561 2.438 . S
O584 C570 1.267 . S
O585 Pr560 2.437 . S
O585 C570 1.278 . S
O586 Pr561 2.562 . S
O586 C571 1.254 . S
O587 Pr561 2.490 . S
O587 C571 1.225 . S
O588 Pr560 2.436 . S
O588 Pr561 2.695 . S
O588 C578 1.270 . S
O589 Pr561 2.512 . S
O589 C578 1.248 . S
O590 Pr560 2.438 . S
O590 C579 1.267 . S
O591 Pr561 2.437 . S
O591 C579 1.278 . S
H592 C564 0.929 . S
H593 C565 0.929 . S
H594 C567 0.931 . S
H595 C568 0.930 . S
H596 C573 0.929 . S
H597 C574 0.929 . S
H598 C576 0.931 . S
H599 C577 0.930 . S
Pr600 C602 2.880 . S
Pr600 O620 2.562 . S
Pr600 O621 2.490 . S
Pr600 O622 2.695 1_655 S
Pr600 O623 2.512 . S
Pr600 O625 2.437 1_655 S
Pr600 O628 2.436 1_655 S
Pr600 O630 2.438 . S
Pr601 C611 2.880 . S
Pr601 O622 2.436 . S
Pr601 O624 2.438 . S
Pr601 O626 2.562 . S
Pr601 O627 2.490 . S
Pr601 O628 2.695 . S
Pr601 O629 2.512 . S
Pr601 O631 2.437 . S
C602 Pr600 2.880 . S
C602 C603 1.491 1_556 S
C602 O620 1.254 . S
C602 O621 1.225 . S
C603 C602 1.491 1_554 S
C603 C604 1.392 . S
C603 C608 1.356 . S
C604 C603 1.392 . S
C604 C605 1.368 . S
C604 H632 0.929 . S
C605 C604 1.368 . S
C605 C606 1.386 . S
C605 H633 0.929 . S
C606 C605 1.386 . S
C606 C607 1.373 . S
C607 C606 1.373 . S
C607 C608 1.409 . S
C607 H634 0.931 . S
C608 C603 1.356 . S
C608 C607 1.409 . S
C608 H635 0.930 . S
C609 O622 1.270 . S
C609 O623 1.248 1_455 S
C610 O624 1.267 . S
C610 O625 1.278 . S
C611 Pr601 2.880 . S
C611 C612 1.491 . S
C611 O626 1.254 . S
C611 O627 1.225 . S
C612 C611 1.491 . S
C612 C613 1.392 . S
C612 C617 1.356 . S
C613 C612 1.392 . S
C613 C614 1.368 . S
C613 H636 0.929 . S
C614 C613 1.368 . S
C614 C615 1.386 . S
C614 H637 0.929 . S
C615 C614 1.386 . S
C615 C616 1.373 . S
C616 C615 1.373 . S
C616 C617 1.409 . S
C616 H638 0.931 . S
C617 C612 1.356 . S
C617 C616 1.409 . S
C617 H639 0.930 . S
C618 O628 1.270 . S
C618 O629 1.248 . S
C619 O630 1.267 . S
C619 O631 1.278 1_655 S
O620 Pr600 2.562 . S
O620 C602 1.254 . S
O621 Pr600 2.490 . S
O621 C602 1.225 . S
O622 Pr600 2.695 1_455 S
O622 Pr601 2.436 . S
O622 C609 1.270 . S
O623 Pr600 2.512 . S
O623 C609 1.248 1_655 S
O624 Pr601 2.438 . S
O624 C610 1.267 . S
O625 Pr600 2.437 1_455 S
O625 C610 1.278 . S
O626 Pr601 2.562 . S
O626 C611 1.254 . S
O627 Pr601 2.490 . S
O627 C611 1.225 . S
O628 Pr600 2.436 1_455 S
O628 Pr601 2.695 . S
O628 C618 1.270 . S
O629 Pr601 2.512 . S
O629 C618 1.248 . S
O630 Pr600 2.438 . S
O630 C619 1.267 . S
O631 Pr601 2.437 . S
O631 C619 1.278 1_455 S
H632 C604 0.929 . S
H633 C605 0.929 . S
H634 C607 0.931 . S
H635 C608 0.930 . S
H636 C613 0.929 . S
H637 C614 0.929 . S
H638 C616 0.931 . S
H639 C617 0.930 . S
H640 C646 0.930 . S
H641 C650 0.930 . S
H642 C655 0.929 . S
H643 C653 0.929 . S
H644 C648 0.929 . S
H645 C654 0.929 . S
C646 H640 0.930 . S
C646 C647 1.367 . S
C646 C654 1.378 1_554 S
C647 C646 1.367 . S
C647 C655 1.433 . S
C648 H644 0.929 . S
C648 C650 1.378 . S
C648 C652 1.350 . S
C649 C652 1.463 . S
C649 C654 1.350 . S
C649 N657 1.427 1_556 S
C650 H641 0.930 . S
C650 C648 1.378 . S
C650 C651 1.367 . S
C651 C650 1.367 . S
C651 C653 1.433 . S
C652 C648 1.350 . S
C652 C649 1.463 . S
C652 N656 1.427 . S
C653 H643 0.929 . S
C653 C651 1.433 . S
C653 N656 1.384 . S
C654 H645 0.929 . S
C654 C646 1.378 1_556 S
C654 C649 1.350 . S
C655 H642 0.929 . S
C655 C647 1.433 . S
C655 N657 1.384 . S
N656 C652 1.427 . S
N656 C653 1.384 . S
N657 C649 1.427 1_554 S
N657 C655 1.384 . S
H658 C664 0.930 . S
H659 C668 0.930 . S
H660 C673 0.929 . S
H661 C671 0.929 . S
H662 C666 0.929 . S
H663 C672 0.929 . S
C664 H658 0.930 . S
C664 C665 1.367 . S
C664 C672 1.378 . S
C665 C664 1.367 . S
C665 C673 1.433 . S
C666 H662 0.929 . S
C666 C668 1.378 . S
C666 C670 1.350 . S
C667 C670 1.463 . S
C667 C672 1.350 . S
C667 N675 1.427 . S
C668 H659 0.930 . S
C668 C666 1.378 . S
C668 C669 1.367 . S
C669 C668 1.367 . S
C669 C671 1.433 . S
C670 C666 1.350 . S
C670 C667 1.463 . S
C670 N674 1.427 . S
C671 H661 0.929 . S
C671 C669 1.433 . S
C671 N674 1.384 . S
C672 H663 0.929 . S
C672 C664 1.378 . S
C672 C667 1.350 . S
C673 H660 0.929 . S
C673 C665 1.433 . S
C673 N675 1.384 . S
N674 C670 1.427 . S
N674 C671 1.384 . S
N675 C667 1.427 . S
N675 C673 1.384 . S
H676 C682 0.930 . S
H677 C686 0.930 . S
H678 C691 0.929 . S
H679 C689 0.929 . S
H680 C684 0.929 . S
H681 C690 0.929 . S
C682 H676 0.930 . S
C682 C683 1.367 . S
C682 C690 1.378 . S
C683 C682 1.367 . S
C683 C691 1.433 . S
C684 H680 0.929 . S
C684 C686 1.378 . S
C684 C688 1.350 . S
C685 C688 1.463 . S
C685 C690 1.350 . S
C685 N693 1.427 . S
C686 H677 0.930 . S
C686 C684 1.378 . S
C686 C687 1.367 . S
C687 C686 1.367 . S
C687 C689 1.433 . S
C688 C684 1.350 . S
C688 C685 1.463 . S
C688 N692 1.427 . S
C689 H679 0.929 . S
C689 C687 1.433 . S
C689 N692 1.384 . S
C690 H681 0.929 . S
C690 C682 1.378 . S
C690 C685 1.350 . S
C691 H678 0.929 . S
C691 C683 1.433 . S
C691 N693 1.384 . S
N692 C688 1.427 . S
N692 C689 1.384 . S
N693 C685 1.427 . S
N693 C691 1.384 . S
H694 C700 0.930 . S
H695 C704 0.930 . S
H696 C709 0.929 . S
H697 C707 0.929 . S
H698 C702 0.929 . S
H699 C708 0.929 . S
C700 H694 0.930 . S
C700 C701 1.367 . S
C700 C708 1.378 . S
C701 C700 1.367 . S
C701 C709 1.433 . S
C702 H698 0.929 . S
C702 C704 1.378 . S
C702 C706 1.350 . S
C703 C706 1.463 . S
C703 C708 1.350 . S
C703 N711 1.427 . S
C704 H695 0.930 . S
C704 C702 1.378 . S
C704 C705 1.367 . S
C705 C704 1.367 . S
C705 C707 1.433 . S
C706 C702 1.350 . S
C706 C703 1.463 . S
C706 N710 1.427 . S
C707 H697 0.929 . S
C707 C705 1.433 . S
C707 N710 1.384 . S
C708 H699 0.929 . S
C708 C700 1.378 . S
C708 C703 1.350 . S
C709 H696 0.929 . S
C709 C701 1.433 . S
C709 N711 1.384 . S
N710 C706 1.427 . S
N710 C707 1.384 . S
N711 C703 1.427 . S
N711 C709 1.384 . S
H712 C718 0.930 . S
H713 C722 0.930 . S
H714 C727 0.929 . S
H715 C725 0.929 . S
H716 C720 0.929 . S
H717 C726 0.929 . S
C718 H712 0.930 . S
C718 C719 1.367 . S
C718 C726 1.378 . S
C719 C718 1.367 . S
C719 C727 1.433 . S
C720 H716 0.929 . S
C720 C722 1.378 . S
C720 C724 1.350 . S
C721 C724 1.463 . S
C721 C726 1.350 . S
C721 N729 1.427 . S
C722 H713 0.930 . S
C722 C720 1.378 . S
C722 C723 1.367 1_554 S
C723 C722 1.367 1_556 S
C723 C725 1.433 . S
C724 C720 1.350 . S
C724 C721 1.463 . S
C724 N728 1.427 . S
C725 H715 0.929 . S
C725 C723 1.433 . S
C725 N728 1.384 1_556 S
C726 H717 0.929 . S
C726 C718 1.378 . S
C726 C721 1.350 . S
C727 H714 0.929 . S
C727 C719 1.433 . S
C727 N729 1.384 . S
N728 C724 1.427 . S
N728 C725 1.384 1_554 S
N729 C721 1.427 . S
N729 C727 1.384 . S
H730 C736 0.930 . S
H731 C740 0.930 . S
H732 C745 0.929 . S
H733 C743 0.929 . S
H734 C738 0.929 . S
H735 C744 0.929 . S
C736 H730 0.930 . S
C736 C737 1.367 . S
C736 C744 1.378 . S
C737 C736 1.367 . S
C737 C745 1.433 . S
C738 H734 0.929 . S
C738 C740 1.378 . S
C738 C742 1.350 . S
C739 C742 1.463 . S
C739 C744 1.350 . S
C739 N747 1.427 . S
C740 H731 0.930 . S
C740 C738 1.378 . S
C740 C741 1.367 . S
C741 C740 1.367 . S
C741 C743 1.433 . S
C742 C738 1.350 . S
C742 C739 1.463 . S
C742 N746 1.427 . S
C743 H733 0.929 . S
C743 C741 1.433 . S
C743 N746 1.384 . S
C744 H735 0.929 . S
C744 C736 1.378 . S
C744 C739 1.350 . S
C745 H732 0.929 . S
C745 C737 1.433 . S
C745 N747 1.384 . S
N746 C742 1.427 . S
N746 C743 1.384 . S
N747 C739 1.427 . S
N747 C745 1.384 . S
H748 C754 0.930 . S
H749 C758 0.930 . S
H750 C763 0.929 . S
H751 C761 0.929 . S
H752 C756 0.929 . S
H753 C762 0.929 . S
C754 H748 0.930 . S
C754 C755 1.367 . S
C754 C762 1.378 . S
C755 C754 1.367 . S
C755 C763 1.433 . S
C756 H752 0.929 . S
C756 C758 1.378 . S
C756 C760 1.350 . S
C757 C760 1.463 . S
C757 C762 1.350 . S
C757 N765 1.427 . S
C758 H749 0.930 . S
C758 C756 1.378 . S
C758 C759 1.367 . S
C759 C758 1.367 . S
C759 C761 1.433 . S
C760 C756 1.350 . S
C760 C757 1.463 . S
C760 N764 1.427 . S
C761 H751 0.929 . S
C761 C759 1.433 . S
C761 N764 1.384 . S
C762 H753 0.929 . S
C762 C754 1.378 . S
C762 C757 1.350 . S
C763 H750 0.929 . S
C763 C755 1.433 . S
C763 N765 1.384 . S
N764 C760 1.427 . S
N764 C761 1.384 . S
N765 C757 1.427 . S
N765 C763 1.384 . S
H766 C772 0.930 . S
H767 C776 0.930 . S
H768 C781 0.929 . S
H769 C779 0.929 . S
H770 C774 0.929 . S
H771 C780 0.929 . S
C772 H766 0.930 . S
C772 C773 1.367 . S
C772 C780 1.378 . S
C773 C772 1.367 . S
C773 C781 1.433 . S
C774 H770 0.929 . S
C774 C776 1.378 . S
C774 C778 1.350 . S
C775 C778 1.463 . S
C775 C780 1.350 . S
C775 N783 1.427 . S
C776 H767 0.930 . S
C776 C774 1.378 . S
C776 C777 1.367 . S
C777 C776 1.367 . S
C777 C779 1.433 . S
C778 C774 1.350 . S
C778 C775 1.463 . S
C778 N782 1.427 . S
C779 H769 0.929 . S
C779 C777 1.433 . S
C779 N782 1.384 . S
C780 H771 0.929 . S
C780 C772 1.378 . S
C780 C775 1.350 . S
C781 H768 0.929 . S
C781 C773 1.433 . S
C781 N783 1.384 . S
N782 C778 1.427 . S
N782 C779 1.384 . S
N783 C775 1.427 . S
N783 C781 1.384 . S
H784 C790 0.930 . S
H785 C794 0.930 . S
H786 C799 0.929 . S
H787 C797 0.929 . S
H788 C792 0.929 . S
H789 C798 0.929 . S
C790 H784 0.930 . S
C790 C791 1.367 . S
C790 C798 1.378 . S
C791 C790 1.367 . S
C791 C799 1.433 . S
C792 H788 0.929 . S
C792 C794 1.378 . S
C792 C796 1.350 . S
C793 C796 1.463 . S
C793 C798 1.350 . S
C793 N801 1.427 . S
C794 H785 0.930 . S
C794 C792 1.378 . S
C794 C795 1.367 . S
C795 C794 1.367 . S
C795 C797 1.433 . S
C796 C792 1.350 . S
C796 C793 1.463 . S
C796 N800 1.427 . S
C797 H787 0.929 . S
C797 C795 1.433 . S
C797 N800 1.384 . S
C798 H789 0.929 . S
C798 C790 1.378 . S
C798 C793 1.350 . S
C799 H786 0.929 . S
C799 C791 1.433 . S
C799 N801 1.384 . S
N800 C796 1.427 . S
N800 C797 1.384 . S
N801 C793 1.427 . S
N801 C799 1.384 . S
H802 C808 0.930 . S
H803 C812 0.930 . S
H804 C817 0.929 . S
H805 C815 0.929 . S
H806 C810 0.929 . S
H807 C816 0.929 . S
C808 H802 0.930 . S
C808 C809 1.367 . S
C808 C816 1.378 . S
C809 C808 1.367 . S
C809 C817 1.433 . S
C810 H806 0.929 . S
C810 C812 1.378 . S
C810 C814 1.350 . S
C811 C814 1.463 . S
C811 C816 1.350 . S
C811 N819 1.427 . S
C812 H803 0.930 . S
C812 C810 1.378 . S
C812 C813 1.367 . S
C813 C812 1.367 . S
C813 C815 1.433 . S
C814 C810 1.350 . S
C814 C811 1.463 . S
C814 N818 1.427 . S
C815 H805 0.929 . S
C815 C813 1.433 . S
C815 N818 1.384 . S
C816 H807 0.929 . S
C816 C808 1.378 . S
C816 C811 1.350 . S
C817 H804 0.929 . S
C817 C809 1.433 . S
C817 N819 1.384 . S
N818 C814 1.427 . S
N818 C815 1.384 . S
N819 C811 1.427 . S
N819 C817 1.384 . S
H820 C826 0.930 . S
H821 C830 0.930 . S
H822 C835 0.929 . S
H823 C833 0.929 . S
H824 C828 0.929 . S
H825 C834 0.929 . S
C826 H820 0.930 . S
C826 C827 1.367 . S
C826 C834 1.378 . S
C827 C826 1.367 . S
C827 C835 1.433 . S
C828 H824 0.929 . S
C828 C830 1.378 . S
C828 C832 1.350 . S
C829 C832 1.463 . S
C829 C834 1.350 . S
C829 N837 1.427 . S
C830 H821 0.930 . S
C830 C828 1.378 . S
C830 C831 1.367 . S
C831 C830 1.367 . S
C831 C833 1.433 . S
C832 C828 1.350 . S
C832 C829 1.463 . S
C832 N836 1.427 . S
C833 H823 0.929 . S
C833 C831 1.433 . S
C833 N836 1.384 . S
C834 H825 0.929 . S
C834 C826 1.378 . S
C834 C829 1.350 . S
C835 H822 0.929 . S
C835 C827 1.433 . S
C835 N837 1.384 . S
N836 C832 1.427 . S
N836 C833 1.384 . S
N837 C829 1.427 . S
N837 C835 1.384 . S
H838 C844 0.930 . S
H839 C848 0.930 . S
H840 C853 0.929 . S
H841 C851 0.929 . S
H842 C846 0.929 . S
H843 C852 0.929 . S
C844 H838 0.930 . S
C844 C845 1.367 . S
C844 C852 1.378 . S
C845 C844 1.367 . S
C845 C853 1.433 . S
C846 H842 0.929 . S
C846 C848 1.378 . S
C846 C850 1.350 . S
C847 C850 1.463 . S
C847 C852 1.350 . S
C847 N855 1.427 . S
C848 H839 0.930 . S
C848 C846 1.378 . S
C848 C849 1.367 . S
C849 C848 1.367 . S
C849 C851 1.433 . S
C850 C846 1.350 . S
C850 C847 1.463 . S
C850 N854 1.427 . S
C851 H841 0.929 . S
C851 C849 1.433 . S
C851 N854 1.384 . S
C852 H843 0.929 . S
C852 C844 1.378 . S
C852 C847 1.350 . S
C853 H840 0.929 . S
C853 C845 1.433 . S
C853 N855 1.384 . S
N854 C850 1.427 . S
N854 C851 1.384 . S
N855 C847 1.427 . S
N855 C853 1.384 . S
H856 C862 0.930 . S
H857 C866 0.930 . S
H858 C871 0.929 . S
H859 C869 0.929 . S
H860 C864 0.929 . S
H861 C870 0.929 . S
C862 H856 0.930 . S
C862 C863 1.367 . S
C862 C870 1.378 . S
C863 C862 1.367 . S
C863 C871 1.433 . S
C864 H860 0.929 . S
C864 C866 1.378 . S
C864 C868 1.350 . S
C865 C868 1.463 . S
C865 C870 1.350 . S
C865 N873 1.427 . S
C866 H857 0.930 . S
C866 C864 1.378 . S
C866 C867 1.367 . S
C867 C866 1.367 . S
C867 C869 1.433 . S
C868 C864 1.350 . S
C868 C865 1.463 . S
C868 N872 1.427 . S
C869 H859 0.929 . S
C869 C867 1.433 . S
C869 N872 1.384 . S
C870 H861 0.929 . S
C870 C862 1.378 . S
C870 C865 1.350 . S
C871 H858 0.929 . S
C871 C863 1.433 . S
C871 N873 1.384 . S
N872 C868 1.427 . S
N872 C869 1.384 . S
N873 C865 1.427 . S
N873 C871 1.384 . S
H874 C880 0.930 . S
H875 C884 0.930 . S
H876 C889 0.929 . S
H877 C887 0.929 . S
H878 C882 0.929 . S
H879 C888 0.929 . S
C880 H874 0.930 . S
C880 C881 1.367 . S
C880 C888 1.378 . S
C881 C880 1.367 . S
C881 C889 1.433 . S
C882 H878 0.929 . S
C882 C884 1.378 . S
C882 C886 1.350 . S
C883 C886 1.463 . S
C883 C888 1.350 . S
C883 N891 1.427 . S
C884 H875 0.930 . S
C884 C882 1.378 . S
C884 C885 1.367 . S
C885 C884 1.367 . S
C885 C887 1.433 . S
C886 C882 1.350 . S
C886 C883 1.463 . S
C886 N890 1.427 . S
C887 H877 0.929 . S
C887 C885 1.433 . S
C887 N890 1.384 . S
C888 H879 0.929 . S
C888 C880 1.378 . S
C888 C883 1.350 . S
C889 H876 0.929 . S
C889 C881 1.433 . S
C889 N891 1.384 . S
N890 C886 1.427 . S
N890 C887 1.384 . S
N891 C883 1.427 . S
N891 C889 1.384 . S
H892 C898 0.930 . S
H893 C902 0.930 . S
H894 C907 0.929 . S
H895 C905 0.929 . S
H896 C900 0.929 . S
H897 C906 0.929 . S
C898 H892 0.930 . S
C898 C899 1.367 . S
C898 C906 1.378 . S
C899 C898 1.367 . S
C899 C907 1.433 . S
C900 H896 0.929 . S
C900 C902 1.378 1_554 S
C900 C904 1.350 . S
C901 C904 1.463 . S
C901 C906 1.350 . S
C901 N909 1.427 . S
C902 H893 0.930 . S
C902 C900 1.378 1_556 S
C902 C903 1.367 . S
C903 C902 1.367 . S
C903 C905 1.433 . S
C904 C900 1.350 . S
C904 C901 1.463 . S
C904 N908 1.427 . S
C905 H895 0.929 . S
C905 C903 1.433 . S
C905 N908 1.384 1_556 S
C906 H897 0.929 . S
C906 C898 1.378 . S
C906 C901 1.350 . S
C907 H894 0.929 . S
C907 C899 1.433 . S
C907 N909 1.384 . S
N908 C904 1.427 . S
N908 C905 1.384 1_554 S
N909 C901 1.427 . S
N909 C907 1.384 . S
H910 C916 0.930 . S
H911 C920 0.930 . S
H912 C925 0.929 . S
H913 C923 0.929 . S
H914 C918 0.929 . S
H915 C924 0.929 . S
C916 H910 0.930 . S
C916 C917 1.367 . S
C916 C924 1.378 . S
C917 C916 1.367 . S
C917 C925 1.433 . S
C918 H914 0.929 . S
C918 C920 1.378 . S
C918 C922 1.350 . S
C919 C922 1.463 . S
C919 C924 1.350 . S
C919 N927 1.427 . S
C920 H911 0.930 . S
C920 C918 1.378 . S
C920 C921 1.367 . S
C921 C920 1.367 . S
C921 C923 1.433 . S
C922 C918 1.350 . S
C922 C919 1.463 . S
C922 N926 1.427 . S
C923 H913 0.929 . S
C923 C921 1.433 . S
C923 N926 1.384 . S
C924 H915 0.929 . S
C924 C916 1.378 . S
C924 C919 1.350 . S
C925 H912 0.929 . S
C925 C917 1.433 . S
C925 N927 1.384 . S
N926 C922 1.427 . S
N926 C923 1.384 . S
N927 C919 1.427 . S
N927 C925 1.384 . S
H928 C934 0.930 1_655 S
H929 C938 0.930 . S
H930 C943 0.929 . S
H931 C941 0.929 1_655 S
H932 C936 0.929 . S
H933 C942 0.929 1_655 S
C934 H928 0.930 1_455 S
C934 C935 1.367 . S
C934 C942 1.378 . S
C935 C934 1.367 . S
C935 C943 1.433 . S
C936 H932 0.929 . S
C936 C938 1.378 . S
C936 C940 1.350 . S
C937 C940 1.463 . S
C937 C942 1.350 . S
C937 N945 1.427 . S
C938 H929 0.930 . S
C938 C936 1.378 . S
C938 C939 1.367 . S
C939 C938 1.367 . S
C939 C941 1.433 . S
C940 C936 1.350 . S
C940 C937 1.463 . S
C940 N944 1.427 . S
C941 H931 0.929 1_455 S
C941 C939 1.433 . S
C941 N944 1.384 . S
C942 H933 0.929 1_455 S
C942 C934 1.378 . S
C942 C937 1.350 . S
C943 H930 0.929 . S
C943 C935 1.433 . S
C943 N945 1.384 . S
N944 C940 1.427 . S
N944 C941 1.384 . S
N945 C937 1.427 . S
N945 C943 1.384 . S
H946 C952 0.930 . S
H947 C956 0.930 . S
H948 C961 0.929 . S
H949 C959 0.929 . S
H950 C954 0.929 . S
H951 C960 0.929 . S
C952 H946 0.930 . S
C952 C953 1.367 . S
C952 C960 1.378 . S
C953 C952 1.367 . S
C953 C961 1.433 . S
C954 H950 0.929 . S
C954 C956 1.378 . S
C954 C958 1.350 . S
C955 C958 1.463 1_655 S
C955 C960 1.350 . S
C955 N963 1.427 . S
C956 H947 0.930 . S
C956 C954 1.378 . S
C956 C957 1.367 . S
C957 C956 1.367 . S
C957 C959 1.433 . S
C958 C954 1.350 . S
C958 C955 1.463 1_455 S
C958 N962 1.427 . S
C959 H949 0.929 . S
C959 C957 1.433 . S
C959 N962 1.384 . S
C960 H951 0.929 . S
C960 C952 1.378 . S
C960 C955 1.350 . S
C961 H948 0.929 . S
C961 C953 1.433 . S
C961 N963 1.384 . S
N962 C958 1.427 . S
N962 C959 1.384 . S
N963 C955 1.427 . S
N963 C961 1.384 . S
H964 C970 0.930 . S
H965 C974 0.930 . S
H966 C979 0.929 . S
H967 C977 0.929 . S
H968 C972 0.929 . S
H969 C978 0.929 . S
C970 H964 0.930 . S
C970 C971 1.367 . S
C970 C978 1.378 . S
C971 C970 1.367 . S
C971 C979 1.433 . S
C972 H968 0.929 . S
C972 C974 1.378 . S
C972 C976 1.350 . S
C973 C976 1.463 . S
C973 C978 1.350 . S
C973 N981 1.427 . S
C974 H965 0.930 . S
C974 C972 1.378 . S
C974 C975 1.367 . S
C975 C974 1.367 . S
C975 C977 1.433 . S
C976 C972 1.350 . S
C976 C973 1.463 . S
C976 N980 1.427 . S
C977 H967 0.929 . S
C977 C975 1.433 . S
C977 N980 1.384 . S
C978 H969 0.929 . S
C978 C970 1.378 . S
C978 C973 1.350 . S
C979 H966 0.929 . S
C979 C971 1.433 . S
C979 N981 1.384 . S
N980 C976 1.427 . S
N980 C977 1.384 . S
N981 C973 1.427 . S
N981 C979 1.384 . S
H982 C988 0.930 . S
H983 C992 0.930 . S
H984 C997 0.929 . S
H985 C995 0.929 . S
H986 C990 0.929 . S
H987 C996 0.929 . S
C988 H982 0.930 . S
C988 C989 1.367 . S
C988 C996 1.378 . S
C989 C988 1.367 . S
C989 C997 1.433 . S
C990 H986 0.929 . S
C990 C992 1.378 . S
C990 C994 1.350 . S
C991 C994 1.463 . S
C991 C996 1.350 . S
C991 N999 1.427 . S
C992 H983 0.930 . S
C992 C990 1.378 . S
C992 C993 1.367 . S
C993 C992 1.367 . S
C993 C995 1.433 . S
C994 C990 1.350 . S
C994 C991 1.463 . S
C994 N998 1.427 . S
C995 H985 0.929 . S
C995 C993 1.433 . S
C995 N998 1.384 . S
C996 H987 0.929 . S
C996 C988 1.378 . S
C996 C991 1.350 . S
C997 H984 0.929 . S
C997 C989 1.433 . S
C997 N999 1.384 . S
N998 C994 1.427 . S
N998 C995 1.384 . S
N999 C991 1.427 . S
N999 C997 1.384 . S
H1000 C1006 0.930 . S
H1001 C1010 0.930 . S
H1002 C1015 0.929 . S
H1003 C1013 0.929 . S
H1004 C1008 0.929 . S
H1005 C1014 0.929 . S
C1006 H1000 0.930 . S
C1006 C1007 1.367 . S
C1006 C1014 1.378 . S
C1007 C1006 1.367 . S
C1007 C1015 1.433 1_455 S
C1008 H1004 0.929 . S
C1008 C1010 1.378 . S
C1008 C1012 1.350 1_655 S
C1009 C1012 1.463 . S
C1009 C1014 1.350 . S
C1009 N1017 1.427 1_455 S
C1010 H1001 0.930 . S
C1010 C1008 1.378 . S
C1010 C1011 1.367 1_655 S
C1011 C1010 1.367 1_455 S
C1011 C1013 1.433 . S
C1012 C1008 1.350 1_455 S
C1012 C1009 1.463 . S
C1012 N1016 1.427 . S
C1013 H1003 0.929 . S
C1013 C1011 1.433 . S
C1013 N1016 1.384 . S
C1014 H1005 0.929 . S
C1014 C1006 1.378 . S
C1014 C1009 1.350 . S
C1015 H1002 0.929 . S
C1015 C1007 1.433 1_655 S
C1015 N1017 1.384 . S
N1016 C1012 1.427 . S
N1016 C1013 1.384 . S
N1017 C1009 1.427 1_655 S
N1017 C1015 1.384 . S
H1018 C1024 0.930 . S
H1019 C1028 0.930 . S
H1020 C1033 0.929 . S
H1021 C1031 0.929 . S
H1022 C1026 0.929 . S
H1023 C1032 0.929 . S
C1024 H1018 0.930 . S
C1024 C1025 1.367 . S
C1024 C1032 1.378 . S
C1025 C1024 1.367 . S
C1025 C1033 1.433 . S
C1026 H1022 0.929 . S
C1026 C1028 1.378 . S
C1026 C1030 1.350 . S
C1027 C1030 1.463 . S
C1027 C1032 1.350 . S
C1027 N1035 1.427 . S
C1028 H1019 0.930 . S
C1028 C1026 1.378 . S
C1028 C1029 1.367 . S
C1029 C1028 1.367 . S
C1029 C1031 1.433 . S
C1030 C1026 1.350 . S
C1030 C1027 1.463 . S
C1030 N1034 1.427 . S
C1031 H1021 0.929 . S
C1031 C1029 1.433 . S
C1031 N1034 1.384 . S
C1032 H1023 0.929 . S
C1032 C1024 1.378 . S
C1032 C1027 1.350 . S
C1033 H1020 0.929 . S
C1033 C1025 1.433 . S
C1033 N1035 1.384 . S
N1034 C1030 1.427 . S
N1034 C1031 1.384 . S
N1035 C1027 1.427 . S
N1035 C1033 1.384 . S
H1036 C1042 0.930 . S
H1037 C1046 0.930 . S
H1038 C1051 0.929 . S
H1039 C1049 0.929 . S
H1040 C1044 0.929 . S
H1041 C1050 0.929 . S
C1042 H1036 0.930 . S
C1042 C1043 1.367 . S
C1042 C1050 1.378 . S
C1043 C1042 1.367 . S
C1043 C1051 1.433 . S
C1044 H1040 0.929 . S
C1044 C1046 1.378 . S
C1044 C1048 1.350 . S
C1045 C1048 1.463 . S
C1045 C1050 1.350 . S
C1045 N1053 1.427 . S
C1046 H1037 0.930 . S
C1046 C1044 1.378 . S
C1046 C1047 1.367 . S
C1047 C1046 1.367 . S
C1047 C1049 1.433 . S
C1048 C1044 1.350 . S
C1048 C1045 1.463 . S
C1048 N1052 1.427 . S
C1049 H1039 0.929 . S
C1049 C1047 1.433 . S
C1049 N1052 1.384 . S
C1050 H1041 0.929 . S
C1050 C1042 1.378 . S
C1050 C1045 1.350 . S
C1051 H1038 0.929 . S
C1051 C1043 1.433 . S
C1051 N1053 1.384 . S
N1052 C1048 1.427 . S
N1052 C1049 1.384 . S
N1053 C1045 1.427 . S
N1053 C1051 1.384 . S
H1054 C1060 0.930 . S
H1055 C1064 0.930 . S
H1056 C1069 0.929 . S
H1057 C1067 0.929 . S
H1058 C1062 0.929 . S
H1059 C1068 0.929 . S
C1060 H1054 0.930 . S
C1060 C1061 1.367 . S
C1060 C1068 1.378 . S
C1061 C1060 1.367 . S
C1061 C1069 1.433 . S
C1062 H1058 0.929 . S
C1062 C1064 1.378 1_455 S
C1062 C1066 1.350 . S
C1063 C1066 1.463 . S
C1063 C1068 1.350 . S
C1063 N1071 1.427 . S
C1064 H1055 0.930 . S
C1064 C1062 1.378 1_655 S
C1064 C1065 1.367 . S
C1065 C1064 1.367 . S
C1065 C1067 1.433 . S
C1066 C1062 1.350 . S
C1066 C1063 1.463 . S
C1066 N1070 1.427 1_455 S
C1067 H1057 0.929 . S
C1067 C1065 1.433 . S
C1067 N1070 1.384 . S
C1068 H1059 0.929 . S
C1068 C1060 1.378 . S
C1068 C1063 1.350 . S
C1069 H1056 0.929 . S
C1069 C1061 1.433 . S
C1069 N1071 1.384 . S
N1070 C1066 1.427 1_655 S
N1070 C1067 1.384 . S
N1071 C1063 1.427 . S
N1071 C1069 1.384 . S
H1072 C1078 0.930 . S
H1073 C1082 0.922 1_655 S
H1074 C1087 0.929 . S
H1075 C1085 0.929 . S
H1076 C1080 0.929 1_655 S
H1077 C1086 0.929 . S
C1078 H1072 0.930 . S
C1078 C1079 1.367 . S
C1078 C1086 1.378 1_545 S
C1079 C1078 1.367 . S
C1079 C1087 1.433 . S
C1080 H1076 0.929 1_455 S
C1080 C1082 1.380 1_545 S
C1080 C1084 1.350 1_545 S
C1081 C1084 1.463 1_544 S
C1081 C1086 1.350 1_545 S
C1081 N1089 1.427 . S
C1082 H1073 0.922 1_455 S
C1082 C1080 1.380 1_565 S
C1082 C1083 1.373 . S
C1083 C1082 1.373 . S
C1083 C1085 1.433 . S
C1084 C1080 1.350 1_565 S
C1084 C1081 1.463 1_566 S
C1084 N1088 1.427 . S
C1085 H1075 0.929 . S
C1085 C1083 1.433 . S
C1085 N1088 1.384 . S
C1086 H1077 0.929 . S
C1086 C1078 1.378 1_565 S
C1086 C1081 1.350 1_565 S
C1087 H1074 0.929 . S
C1087 C1079 1.433 . S
C1087 N1089 1.384 . S
N1088 C1084 1.427 . S
N1088 C1085 1.384 . S
N1089 C1081 1.427 . S
N1089 C1087 1.384 . S
H1090 C1096 0.930 . S
H1091 C1100 0.930 . S
H1092 C1105 0.929 . S
H1093 C1103 0.929 . S
H1094 C1098 0.929 . S
H1095 C1104 0.929 . S
C1096 H1090 0.930 . S
C1096 C1097 1.367 . S
C1096 C1104 1.378 . S
C1097 C1096 1.367 . S
C1097 C1105 1.433 . S
C1098 H1094 0.929 . S
C1098 C1100 1.378 . S
C1098 C1102 1.350 . S
C1099 C1102 1.463 . S
C1099 C1104 1.350 . S
C1099 N1107 1.427 . S
C1100 H1091 0.930 . S
C1100 C1098 1.378 . S
C1100 C1101 1.367 . S
C1101 C1100 1.367 . S
C1101 C1103 1.433 . S
C1102 C1098 1.350 . S
C1102 C1099 1.463 . S
C1102 N1106 1.427 . S
C1103 H1093 0.929 . S
C1103 C1101 1.433 . S
C1103 N1106 1.384 . S
C1104 H1095 0.929 . S
C1104 C1096 1.378 . S
C1104 C1099 1.350 . S
C1105 H1092 0.929 . S
C1105 C1097 1.433 . S
C1105 N1107 1.384 . S
N1106 C1102 1.427 . S
N1106 C1103 1.384 . S
N1107 C1099 1.427 . S
N1107 C1105 1.384 . S
H1108 C1114 0.930 . S
H1109 C1118 0.930 . S
H1110 C1123 0.929 . S
H1111 C1121 0.929 . S
H1112 C1116 0.929 . S
H1113 C1122 0.929 . S
C1114 H1108 0.930 . S
C1114 C1115 1.367 . S
C1114 C1122 1.378 . S
C1115 C1114 1.367 . S
C1115 C1123 1.433 . S
C1116 H1112 0.929 . S
C1116 C1118 1.378 . S
C1116 C1120 1.350 . S
C1117 C1120 1.463 1_545 S
C1117 C1122 1.350 . S
C1117 N1125 1.427 . S
C1118 H1109 0.930 . S
C1118 C1116 1.378 . S
C1118 C1119 1.367 . S
C1119 C1118 1.367 . S
C1119 C1121 1.433 . S
C1120 C1116 1.350 . S
C1120 C1117 1.463 1_565 S
C1120 N1124 1.427 1_565 S
C1121 H1111 0.929 . S
C1121 C1119 1.433 . S
C1121 N1124 1.384 1_565 S
C1122 H1113 0.929 . S
C1122 C1114 1.378 . S
C1122 C1117 1.350 . S
C1123 H1110 0.929 . S
C1123 C1115 1.433 . S
C1123 N1125 1.384 . S
N1124 C1120 1.427 1_545 S
N1124 C1121 1.384 1_545 S
N1125 C1117 1.427 . S
N1125 C1123 1.384 . S
H1126 C1132 0.930 . S
H1127 C1136 0.930 . S
H1128 C1141 0.929 . S
H1129 C1139 0.929 . S
H1130 C1134 0.929 . S
H1131 C1140 0.929 . S
C1132 H1126 0.930 . S
C1132 C1133 1.367 . S
C1132 C1140 1.378 . S
C1133 C1132 1.367 . S
C1133 C1141 1.433 . S
C1134 H1130 0.929 . S
C1134 C1136 1.378 . S
C1134 C1138 1.350 . S
C1135 C1138 1.463 . S
C1135 C1140 1.350 . S
C1135 N1143 1.427 . S
C1136 H1127 0.930 . S
C1136 C1134 1.378 . S
C1136 C1137 1.367 . S
C1137 C1136 1.367 . S
C1137 C1139 1.433 . S
C1138 C1134 1.350 . S
C1138 C1135 1.463 . S
C1138 N1142 1.427 . S
C1139 H1129 0.929 . S
C1139 C1137 1.433 . S
C1139 N1142 1.384 . S
C1140 H1131 0.929 . S
C1140 C1132 1.378 . S
C1140 C1135 1.350 . S
C1141 H1128 0.929 . S
C1141 C1133 1.433 . S
C1141 N1143 1.384 . S
N1142 C1138 1.427 . S
N1142 C1139 1.384 . S
N1143 C1135 1.427 . S
N1143 C1141 1.384 . S
H1144 C1150 0.930 . S
H1145 C1154 0.930 . S
H1146 C1159 0.929 . S
H1147 C1157 0.929 . S
H1148 C1152 0.929 . S
H1149 C1158 0.929 . S
C1150 H1144 0.930 . S
C1150 C1151 1.367 . S
C1150 C1158 1.378 . S
C1151 C1150 1.367 . S
C1151 C1159 1.433 . S
C1152 H1148 0.929 . S
C1152 C1154 1.378 . S
C1152 C1156 1.350 . S
C1153 C1156 1.463 . S
C1153 C1158 1.350 . S
C1153 N1161 1.427 . S
C1154 H1145 0.930 . S
C1154 C1152 1.378 . S
C1154 C1155 1.367 . S
C1155 C1154 1.367 . S
C1155 C1157 1.433 . S
C1156 C1152 1.350 . S
C1156 C1153 1.463 . S
C1156 N1160 1.427 . S
C1157 H1147 0.929 . S
C1157 C1155 1.433 . S
C1157 N1160 1.384 . S
C1158 H1149 0.929 . S
C1158 C1150 1.378 . S
C1158 C1153 1.350 . S
C1159 H1146 0.929 . S
C1159 C1151 1.433 . S
C1159 N1161 1.384 . S
N1160 C1156 1.427 . S
N1160 C1157 1.384 . S
N1161 C1153 1.427 . S
N1161 C1159 1.384 . S
H1162 C1168 0.930 . S
H1163 C1172 0.930 . S
H1164 C1177 0.929 . S
H1165 C1175 0.929 . S
H1166 C1170 0.929 . S
H1167 C1176 0.929 . S
C1168 H1162 0.930 . S
C1168 C1169 1.367 . S
C1168 C1176 1.378 . S
C1169 C1168 1.367 . S
C1169 C1177 1.433 . S
C1170 H1166 0.929 . S
C1170 C1172 1.378 . S
C1170 C1174 1.350 . S
C1171 C1174 1.463 . S
C1171 C1176 1.350 . S
C1171 N1179 1.427 . S
C1172 H1163 0.930 . S
C1172 C1170 1.378 . S
C1172 C1173 1.367 . S
C1173 C1172 1.367 . S
C1173 C1175 1.433 . S
C1174 C1170 1.350 . S
C1174 C1171 1.463 . S
C1174 N1178 1.427 . S
C1175 H1165 0.929 . S
C1175 C1173 1.433 . S
C1175 N1178 1.384 . S
C1176 H1167 0.929 . S
C1176 C1168 1.378 . S
C1176 C1171 1.350 . S
C1177 H1164 0.929 . S
C1177 C1169 1.433 . S
C1177 N1179 1.384 . S
N1178 C1174 1.427 . S
N1178 C1175 1.384 . S
N1179 C1171 1.427 . S
N1179 C1177 1.384 . S
H1180 C1186 0.930 . S
H1181 C1190 0.930 . S
H1182 C1195 0.929 . S
H1183 C1193 0.929 . S
H1184 C1188 0.929 . S
H1185 C1194 0.929 . S
C1186 H1180 0.930 . S
C1186 C1187 1.367 . S
C1186 C1194 1.378 . S
C1187 C1186 1.367 . S
C1187 C1195 1.433 . S
C1188 H1184 0.929 . S
C1188 C1190 1.378 . S
C1188 C1192 1.350 . S
C1189 C1192 1.463 . S
C1189 C1194 1.350 . S
C1189 N1197 1.427 . S
C1190 H1181 0.930 . S
C1190 C1188 1.378 . S
C1190 C1191 1.367 . S
C1191 C1190 1.367 . S
C1191 C1193 1.433 . S
C1192 C1188 1.350 . S
C1192 C1189 1.463 . S
C1192 N1196 1.427 . S
C1193 H1183 0.929 . S
C1193 C1191 1.433 . S
C1193 N1196 1.384 . S
C1194 H1185 0.929 . S
C1194 C1186 1.378 . S
C1194 C1189 1.350 . S
C1195 H1182 0.929 . S
C1195 C1187 1.433 . S
C1195 N1197 1.384 . S
N1196 C1192 1.427 . S
N1196 C1193 1.384 . S
N1197 C1189 1.427 . S
N1197 C1195 1.384 . S
H1198 C1204 0.930 . S
H1199 C1208 0.930 . S
H1200 C1213 0.929 . S
H1201 C1211 0.929 . S
H1202 C1206 0.929 . S
H1203 C1212 0.929 . S
C1204 H1198 0.930 . S
C1204 C1205 1.367 . S
C1204 C1212 1.378 . S
C1205 C1204 1.367 . S
C1205 C1213 1.433 . S
C1206 H1202 0.929 . S
C1206 C1208 1.378 . S
C1206 C1210 1.350 . S
C1207 C1210 1.463 1_556 S
C1207 C1212 1.350 . S
C1207 N1215 1.427 . S
C1208 H1199 0.930 . S
C1208 C1206 1.378 . S
C1208 C1209 1.367 . S
C1209 C1208 1.367 . S
C1209 C1211 1.433 . S
C1210 C1206 1.350 . S
C1210 C1207 1.463 1_554 S
C1210 N1214 1.427 . S
C1211 H1201 0.929 . S
C1211 C1209 1.433 . S
C1211 N1214 1.384 . S
C1212 H1203 0.929 . S
C1212 C1204 1.378 . S
C1212 C1207 1.350 . S
C1213 H1200 0.929 . S
C1213 C1205 1.433 . S
C1213 N1215 1.384 . S
N1214 C1210 1.427 . S
N1214 C1211 1.384 . S
N1215 C1207 1.427 . S
N1215 C1213 1.384 . S
H1216 C1222 0.930 . S
H1217 C1226 0.930 . S
H1218 C1231 0.929 . S
H1219 C1229 0.929 . S
H1220 C1224 0.929 . S
H1221 C1230 0.929 . S
C1222 H1216 0.930 . S
C1222 C1223 1.367 . S
C1222 C1230 1.378 . S
C1223 C1222 1.367 . S
C1223 C1231 1.433 . S
C1224 H1220 0.929 . S
C1224 C1226 1.378 . S
C1224 C1228 1.350 . S
C1225 C1228 1.463 . S
C1225 C1230 1.350 . S
C1225 N1233 1.427 . S
C1226 H1217 0.930 . S
C1226 C1224 1.378 . S
C1226 C1227 1.367 . S
C1227 C1226 1.367 . S
C1227 C1229 1.433 . S
C1228 C1224 1.350 . S
C1228 C1225 1.463 . S
C1228 N1232 1.427 . S
C1229 H1219 0.929 . S
C1229 C1227 1.433 . S
C1229 N1232 1.384 . S
C1230 H1221 0.929 . S
C1230 C1222 1.378 . S
C1230 C1225 1.350 . S
C1231 H1218 0.929 . S
C1231 C1223 1.433 . S
C1231 N1233 1.384 . S
N1232 C1228 1.427 . S
N1232 C1229 1.384 . S
N1233 C1225 1.427 . S
N1233 C1231 1.384 . S
H1234 C1240 0.930 . S
H1235 C1244 0.930 . S
H1236 C1249 0.929 . S
H1237 C1247 0.929 . S
H1238 C1242 0.929 . S
H1239 C1248 0.929 . S
C1240 H1234 0.930 . S
C1240 C1241 1.367 . S
C1240 C1248 1.378 . S
C1241 C1240 1.367 . S
C1241 C1249 1.433 . S
C1242 H1238 0.929 . S
C1242 C1244 1.378 . S
C1242 C1246 1.350 . S
C1243 C1246 1.463 . S
C1243 C1248 1.350 . S
C1243 N1251 1.427 . S
C1244 H1235 0.930 . S
C1244 C1242 1.378 . S
C1244 C1245 1.367 . S
C1245 C1244 1.367 . S
C1245 C1247 1.433 . S
C1246 C1242 1.350 . S
C1246 C1243 1.463 . S
C1246 N1250 1.427 . S
C1247 H1237 0.929 . S
C1247 C1245 1.433 . S
C1247 N1250 1.384 . S
C1248 H1239 0.929 . S
C1248 C1240 1.378 . S
C1248 C1243 1.350 . S
C1249 H1236 0.929 . S
C1249 C1241 1.433 . S
C1249 N1251 1.384 . S
N1250 C1246 1.427 . S
N1250 C1247 1.384 . S
N1251 C1243 1.427 . S
N1251 C1249 1.384 . S
H1252 C1258 0.930 . S
H1253 C1262 0.930 . S
H1254 C1267 0.929 . S
H1255 C1265 0.929 . S
H1256 C1260 0.929 . S
H1257 C1266 0.929 . S
C1258 H1252 0.930 . S
C1258 C1259 1.367 . S
C1258 C1266 1.378 . S
C1259 C1258 1.367 . S
C1259 C1267 1.433 . S
C1260 H1256 0.929 . S
C1260 C1262 1.378 . S
C1260 C1264 1.350 . S
C1261 C1264 1.463 . S
C1261 C1266 1.350 . S
C1261 N1269 1.427 . S
C1262 H1253 0.930 . S
C1262 C1260 1.378 . S
C1262 C1263 1.367 . S
C1263 C1262 1.367 . S
C1263 C1265 1.433 . S
C1264 C1260 1.350 . S
C1264 C1261 1.463 . S
C1264 N1268 1.427 . S
C1265 H1255 0.929 . S
C1265 C1263 1.433 . S
C1265 N1268 1.384 . S
C1266 H1257 0.929 . S
C1266 C1258 1.378 . S
C1266 C1261 1.350 . S
C1267 H1254 0.929 . S
C1267 C1259 1.433 . S
C1267 N1269 1.384 . S
N1268 C1264 1.427 . S
N1268 C1265 1.384 . S
N1269 C1261 1.427 . S
N1269 C1267 1.384 . S
H1270 C1276 0.930 . S
H1271 C1280 0.930 . S
H1272 C1285 0.929 . S
H1273 C1283 0.929 . S
H1274 C1278 0.929 . S
H1275 C1284 0.929 . S
C1276 H1270 0.930 . S
C1276 C1277 1.367 . S
C1276 C1284 1.378 . S
C1277 C1276 1.367 . S
C1277 C1285 1.433 . S
C1278 H1274 0.929 . S
C1278 C1280 1.378 . S
C1278 C1282 1.350 . S
C1279 C1282 1.463 . S
C1279 C1284 1.350 . S
C1279 N1287 1.427 . S
C1280 H1271 0.930 . S
C1280 C1278 1.378 . S
C1280 C1281 1.367 . S
C1281 C1280 1.367 . S
C1281 C1283 1.433 . S
C1282 C1278 1.350 . S
C1282 C1279 1.463 . S
C1282 N1286 1.427 . S
C1283 H1273 0.929 . S
C1283 C1281 1.433 . S
C1283 N1286 1.384 . S
C1284 H1275 0.929 . S
C1284 C1276 1.378 . S
C1284 C1279 1.350 . S
C1285 H1272 0.929 . S
C1285 C1277 1.433 . S
C1285 N1287 1.384 . S
N1286 C1282 1.427 . S
N1286 C1283 1.384 . S
N1287 C1279 1.427 . S
N1287 C1285 1.384 . S
H1288 C1294 0.930 . S
H1289 C1298 0.930 . S
H1290 C1303 0.929 . S
H1291 C1301 0.929 . S
H1292 C1296 0.929 . S
H1293 C1302 0.929 . S
C1294 H1288 0.930 . S
C1294 C1295 1.367 . S
C1294 C1302 1.378 . S
C1295 C1294 1.367 . S
C1295 C1303 1.433 . S
C1296 H1292 0.929 . S
C1296 C1298 1.378 . S
C1296 C1300 1.350 . S
C1297 C1300 1.463 . S
C1297 C1302 1.350 . S
C1297 N1305 1.427 . S
C1298 H1289 0.930 . S
C1298 C1296 1.378 . S
C1298 C1299 1.367 . S
C1299 C1298 1.367 . S
C1299 C1301 1.433 . S
C1300 C1296 1.350 . S
C1300 C1297 1.463 . S
C1300 N1304 1.427 . S
C1301 H1291 0.929 . S
C1301 C1299 1.433 . S
C1301 N1304 1.384 . S
C1302 H1293 0.929 . S
C1302 C1294 1.378 . S
C1302 C1297 1.350 . S
C1303 H1290 0.929 . S
C1303 C1295 1.433 . S
C1303 N1305 1.384 . S
N1304 C1300 1.427 . S
N1304 C1301 1.384 . S
N1305 C1297 1.427 . S
N1305 C1303 1.384 . S
H1306 C1312 0.930 . S
H1307 C1316 0.930 . S
H1308 C1321 0.929 . S
H1309 C1319 0.929 . S
H1310 C1314 0.929 . S
H1311 C1320 0.929 . S
C1312 H1306 0.930 . S
C1312 C1313 1.367 . S
C1312 C1320 1.378 . S
C1313 C1312 1.367 . S
C1313 C1321 1.433 . S
C1314 H1310 0.929 . S
C1314 C1316 1.378 . S
C1314 C1318 1.350 . S
C1315 C1318 1.463 . S
C1315 C1320 1.350 . S
C1315 N1323 1.427 . S
C1316 H1307 0.930 . S
C1316 C1314 1.378 . S
C1316 C1317 1.367 . S
C1317 C1316 1.367 . S
C1317 C1319 1.433 . S
C1318 C1314 1.350 . S
C1318 C1315 1.463 . S
C1318 N1322 1.427 . S
C1319 H1309 0.929 . S
C1319 C1317 1.433 . S
C1319 N1322 1.384 . S
C1320 H1311 0.929 . S
C1320 C1312 1.378 . S
C1320 C1315 1.350 . S
C1321 H1308 0.929 . S
C1321 C1313 1.433 . S
C1321 N1323 1.384 . S
N1322 C1318 1.427 . S
N1322 C1319 1.384 . S
N1323 C1315 1.427 . S
N1323 C1321 1.384 . S
H1324 C1330 0.930 . S
H1325 C1334 0.930 . S
H1326 C1339 0.929 . S
H1327 C1337 0.929 . S
H1328 C1332 0.929 . S
H1329 C1338 0.929 . S
C1330 H1324 0.930 . S
C1330 C1331 1.367 . S
C1330 C1338 1.378 . S
C1331 C1330 1.367 . S
C1331 C1339 1.433 . S
C1332 H1328 0.929 . S
C1332 C1334 1.378 . S
C1332 C1336 1.350 . S
C1333 C1336 1.463 . S
C1333 C1338 1.350 1_554 S
C1333 N1341 1.427 . S
C1334 H1325 0.930 . S
C1334 C1332 1.378 . S
C1334 C1335 1.367 . S
C1335 C1334 1.367 . S
C1335 C1337 1.433 . S
C1336 C1332 1.350 . S
C1336 C1333 1.463 . S
C1336 N1340 1.427 . S
C1337 H1327 0.929 . S
C1337 C1335 1.433 . S
C1337 N1340 1.384 . S
C1338 H1329 0.929 . S
C1338 C1330 1.378 . S
C1338 C1333 1.350 1_556 S
C1339 H1326 0.929 . S
C1339 C1331 1.433 . S
C1339 N1341 1.384 1_556 S
N1340 C1336 1.427 . S
N1340 C1337 1.384 . S
N1341 C1333 1.427 . S
N1341 C1339 1.384 1_554 S
H1342 C1348 0.930 . S
H1343 C1352 0.930 . S
H1344 C1357 0.929 . S
H1345 C1355 0.929 . S
H1346 C1350 0.929 . S
H1347 C1356 0.929 . S
C1348 H1342 0.930 . S
C1348 C1349 1.367 . S
C1348 C1356 1.378 . S
C1349 C1348 1.367 . S
C1349 C1357 1.433 . S
C1350 H1346 0.929 . S
C1350 C1352 1.378 . S
C1350 C1354 1.350 . S
C1351 C1354 1.463 . S
C1351 C1356 1.350 . S
C1351 N1359 1.427 . S
C1352 H1343 0.930 . S
C1352 C1350 1.378 . S
C1352 C1353 1.367 . S
C1353 C1352 1.367 . S
C1353 C1355 1.433 . S
C1354 C1350 1.350 . S
C1354 C1351 1.463 . S
C1354 N1358 1.427 . S
C1355 H1345 0.929 . S
C1355 C1353 1.433 . S
C1355 N1358 1.384 . S
C1356 H1347 0.929 . S
C1356 C1348 1.378 . S
C1356 C1351 1.350 . S
C1357 H1344 0.929 . S
C1357 C1349 1.433 . S
C1357 N1359 1.384 . S
N1358 C1354 1.427 . S
N1358 C1355 1.384 . S
N1359 C1351 1.427 . S
N1359 C1357 1.384 . S
H1360 C1366 0.930 . S
H1361 C1370 0.930 . S
H1362 C1375 0.929 . S
H1363 C1373 0.929 . S
H1364 C1368 0.929 . S
H1365 C1374 0.929 . S
C1366 H1360 0.930 . S
C1366 C1367 1.367 . S
C1366 C1374 1.378 . S
C1367 C1366 1.367 . S
C1367 C1375 1.433 . S
C1368 H1364 0.929 . S
C1368 C1370 1.378 . S
C1368 C1372 1.350 1_554 S
C1369 C1372 1.463 . S
C1369 C1374 1.350 . S
C1369 N1377 1.427 . S
C1370 H1361 0.930 . S
C1370 C1368 1.378 . S
C1370 C1371 1.367 . S
C1371 C1370 1.367 . S
C1371 C1373 1.433 . S
C1372 C1368 1.350 1_556 S
C1372 C1369 1.463 . S
C1372 N1376 1.427 . S
C1373 H1363 0.929 . S
C1373 C1371 1.433 . S
C1373 N1376 1.384 1_554 S
C1374 H1365 0.929 . S
C1374 C1366 1.378 . S
C1374 C1369 1.350 . S
C1375 H1362 0.929 . S
C1375 C1367 1.433 . S
C1375 N1377 1.384 . S
N1376 C1372 1.427 . S
N1376 C1373 1.384 1_556 S
N1377 C1369 1.427 . S
N1377 C1375 1.384 . S
H1378 C1384 0.930 . S
H1379 C1388 0.930 . S
H1380 C1393 0.929 . S
H1381 C1391 0.929 . S
H1382 C1386 0.929 . S
H1383 C1392 0.929 . S
C1384 H1378 0.930 . S
C1384 C1385 1.367 . S
C1384 C1392 1.378 . S
C1385 C1384 1.367 . S
C1385 C1393 1.433 . S
C1386 H1382 0.929 . S
C1386 C1388 1.378 . S
C1386 C1390 1.350 . S
C1387 C1390 1.463 . S
C1387 C1392 1.350 . S
C1387 N1395 1.427 . S
C1388 H1379 0.930 . S
C1388 C1386 1.378 . S
C1388 C1389 1.367 . S
C1389 C1388 1.367 . S
C1389 C1391 1.433 . S
C1390 C1386 1.350 . S
C1390 C1387 1.463 . S
C1390 N1394 1.427 . S
C1391 H1381 0.929 . S
C1391 C1389 1.433 . S
C1391 N1394 1.384 . S
C1392 H1383 0.929 . S
C1392 C1384 1.378 . S
C1392 C1387 1.350 . S
C1393 H1380 0.929 . S
C1393 C1385 1.433 . S
C1393 N1395 1.384 . S
N1394 C1390 1.427 . S
N1394 C1391 1.384 . S
N1395 C1387 1.427 . S
N1395 C1393 1.384 . S
H1396 C1402 0.930 . S
H1397 C1406 0.930 . S
H1398 C1411 0.929 . S
H1399 C1409 0.929 . S
H1400 C1404 0.929 . S
H1401 C1410 0.929 . S
C1402 H1396 0.930 . S
C1402 C1403 1.367 . S
C1402 C1410 1.378 . S
C1403 C1402 1.367 . S
C1403 C1411 1.433 . S
C1404 H1400 0.929 . S
C1404 C1406 1.378 . S
C1404 C1408 1.350 . S
C1405 C1408 1.463 . S
C1405 C1410 1.350 . S
C1405 N1413 1.427 . S
C1406 H1397 0.930 . S
C1406 C1404 1.378 . S
C1406 C1407 1.367 . S
C1407 C1406 1.367 . S
C1407 C1409 1.433 . S
C1408 C1404 1.350 . S
C1408 C1405 1.463 . S
C1408 N1412 1.427 . S
C1409 H1399 0.929 . S
C1409 C1407 1.433 . S
C1409 N1412 1.384 . S
C1410 H1401 0.929 . S
C1410 C1402 1.378 . S
C1410 C1405 1.350 . S
C1411 H1398 0.929 . S
C1411 C1403 1.433 . S
C1411 N1413 1.384 . S
N1412 C1408 1.427 . S
N1412 C1409 1.384 . S
N1413 C1405 1.427 . S
N1413 C1411 1.384 . S
H1414 C1420 0.930 . S
H1415 C1424 0.930 . S
H1416 C1429 0.929 . S
H1417 C1427 0.929 . S
H1418 C1422 0.929 . S
H1419 C1428 0.929 . S
C1420 H1414 0.930 . S
C1420 C1421 1.367 . S
C1420 C1428 1.378 . S
C1421 C1420 1.367 . S
C1421 C1429 1.433 . S
C1422 H1418 0.929 . S
C1422 C1424 1.378 . S
C1422 C1426 1.350 . S
C1423 C1426 1.463 . S
C1423 C1428 1.350 . S
C1423 N1431 1.427 . S
C1424 H1415 0.930 . S
C1424 C1422 1.378 . S
C1424 C1425 1.367 . S
C1425 C1424 1.367 . S
C1425 C1427 1.433 . S
C1426 C1422 1.350 . S
C1426 C1423 1.463 . S
C1426 N1430 1.427 . S
C1427 H1417 0.929 . S
C1427 C1425 1.433 . S
C1427 N1430 1.384 . S
C1428 H1419 0.929 . S
C1428 C1420 1.378 . S
C1428 C1423 1.350 . S
C1429 H1416 0.929 . S
C1429 C1421 1.433 . S
C1429 N1431 1.384 . S
N1430 C1426 1.427 . S
N1430 C1427 1.384 . S
N1431 C1423 1.427 . S
N1431 C1429 1.384 . S
H1432 C1438 0.930 . S
H1433 C1442 0.930 . S
H1434 C1447 0.929 . S
H1435 C1445 0.929 . S
H1436 C1440 0.929 . S
H1437 C1446 0.929 . S
C1438 H1432 0.930 . S
C1438 C1439 1.367 . S
C1438 C1446 1.378 . S
C1439 C1438 1.367 . S
C1439 C1447 1.433 . S
C1440 H1436 0.929 . S
C1440 C1442 1.378 1_554 S
C1440 C1444 1.350 . S
C1441 C1444 1.463 . S
C1441 C1446 1.350 . S
C1441 N1449 1.427 . S
C1442 H1433 0.930 . S
C1442 C1440 1.378 1_556 S
C1442 C1443 1.367 . S
C1443 C1442 1.367 . S
C1443 C1445 1.433 1_556 S
C1444 C1440 1.350 . S
C1444 C1441 1.463 . S
C1444 N1448 1.427 . S
C1445 H1435 0.929 . S
C1445 C1443 1.433 1_554 S
C1445 N1448 1.384 . S
C1446 H1437 0.929 . S
C1446 C1438 1.378 . S
C1446 C1441 1.350 . S
C1447 H1434 0.929 . S
C1447 C1439 1.433 . S
C1447 N1449 1.384 . S
N1448 C1444 1.427 . S
N1448 C1445 1.384 . S
N1449 C1441 1.427 . S
N1449 C1447 1.384 . S
H1450 C1456 0.930 . S
H1451 C1460 0.930 . S
H1452 C1465 0.929 . S
H1453 C1463 0.929 . S
H1454 C1458 0.929 . S
H1455 C1464 0.929 . S
C1456 H1450 0.930 . S
C1456 C1457 1.367 . S
C1456 C1464 1.378 . S
C1457 C1456 1.367 . S
C1457 C1465 1.433 . S
C1458 H1454 0.929 . S
C1458 C1460 1.378 . S
C1458 C1462 1.350 . S
C1459 C1462 1.463 . S
C1459 C1464 1.350 . S
C1459 N1467 1.427 . S
C1460 H1451 0.930 . S
C1460 C1458 1.378 . S
C1460 C1461 1.367 . S
C1461 C1460 1.367 . S
C1461 C1463 1.433 . S
C1462 C1458 1.350 . S
C1462 C1459 1.463 . S
C1462 N1466 1.427 . S
C1463 H1453 0.929 . S
C1463 C1461 1.433 . S
C1463 N1466 1.384 . S
C1464 H1455 0.929 . S
C1464 C1456 1.378 . S
C1464 C1459 1.350 . S
C1465 H1452 0.929 . S
C1465 C1457 1.433 . S
C1465 N1467 1.384 . S
N1466 C1462 1.427 . S
N1466 C1463 1.384 . S
N1467 C1459 1.427 . S
N1467 C1465 1.384 . S
H1468 C1474 0.930 . S
H1469 C1478 0.930 . S
H1470 C1483 0.929 . S
H1471 C1481 0.929 . S
H1472 C1476 0.929 . S
H1473 C1482 0.929 . S
C1474 H1468 0.930 . S
C1474 C1475 1.367 . S
C1474 C1482 1.378 . S
C1475 C1474 1.367 . S
C1475 C1483 1.433 . S
C1476 H1472 0.929 . S
C1476 C1478 1.378 . S
C1476 C1480 1.350 . S
C1477 C1480 1.463 . S
C1477 C1482 1.350 . S
C1477 N1485 1.427 . S
C1478 H1469 0.930 . S
C1478 C1476 1.378 . S
C1478 C1479 1.367 . S
C1479 C1478 1.367 . S
C1479 C1481 1.433 . S
C1480 C1476 1.350 . S
C1480 C1477 1.463 . S
C1480 N1484 1.427 . S
C1481 H1471 0.929 . S
C1481 C1479 1.433 . S
C1481 N1484 1.384 . S
C1482 H1473 0.929 . S
C1482 C1474 1.378 . S
C1482 C1477 1.350 . S
C1483 H1470 0.929 . S
C1483 C1475 1.433 . S
C1483 N1485 1.384 . S
N1484 C1480 1.427 . S
N1484 C1481 1.384 . S
N1485 C1477 1.427 . S
N1485 C1483 1.384 . S
H1486 C1492 0.930 . S
H1487 C1496 0.930 . S
H1488 C1501 0.929 . S
H1489 C1499 0.929 . S
H1490 C1494 0.929 . S
H1491 C1500 0.929 . S
C1492 H1486 0.930 . S
C1492 C1493 1.367 . S
C1492 C1500 1.378 . S
C1493 C1492 1.367 . S
C1493 C1501 1.433 . S
C1494 H1490 0.929 . S
C1494 C1496 1.378 . S
C1494 C1498 1.350 . S
C1495 C1498 1.463 . S
C1495 C1500 1.350 . S
C1495 N1503 1.427 . S
C1496 H1487 0.930 . S
C1496 C1494 1.378 . S
C1496 C1497 1.367 . S
C1497 C1496 1.367 . S
C1497 C1499 1.433 . S
C1498 C1494 1.350 . S
C1498 C1495 1.463 . S
C1498 N1502 1.427 . S
C1499 H1489 0.929 . S
C1499 C1497 1.433 . S
C1499 N1502 1.384 . S
C1500 H1491 0.929 . S
C1500 C1492 1.378 . S
C1500 C1495 1.350 . S
C1501 H1488 0.929 . S
C1501 C1493 1.433 . S
C1501 N1503 1.384 . S
N1502 C1498 1.427 . S
N1502 C1499 1.384 . S
N1503 C1495 1.427 . S
N1503 C1501 1.384 . S
C647 C19 0.469 . S
C651 C286 0.516 . S
C665 C59 0.912 . S
C669 C166 0.919 . S
C683 C206 0.925 . S
C687 C86 0.821 . S
C701 C139 0.978 . S
C705 C246 0.977 . S
C719 C455 0.949 . S
C723 C170 0.968 . S
C737 C330 1.947 . S
C741 C15 1.964 . S
C755 C415 0.914 . S
C759 C250 0.914 . S
C773 C90 2.669 . S
C777 C370 2.722 . S
C791 C366 0.504 . S
C795 C499 0.475 . S
C809 C419 0.908 . S
C813 C566 0.914 . S
C827 C526 0.834 . S
C831 C326 0.945 . S
C845 C459 0.982 . S
C849 C606 0.958 . S
C863 C570 0.952 . S
C867 C135 0.952 . S
C881 C495 1.960 . S
C885 C210 1.948 . S
C899 C55 0.918 . S
C903 C610 0.914 . S
C917 C290 2.720 . S
C921 C530 2.671 1_556 S
C935 C529 0.429 . S
C939 C18 0.472 . S
C953 C458 0.531 . S
C957 C58 0.512 . S
C971 C498 0.481 . S
C975 C89 0.419 . S
C989 C418 0.518 . S
C993 C138 0.534 . S
C1007 C169 0.447 . S
C1011 C609 0.439 . S
C1025 C369 0.712 . S
C1029 C209 0.723 . S
C1043 C249 0.459 . S
C1047 C569 0.445 . S
C1061 C289 0.694 . S
C1065 C329 0.726 . S
C1079 C9 1.581 . S
C1083 C178 1.585 . S
C1097 C49 1.773 . S
C1101 C218 1.748 . S
C1115 C258 1.499 . S
C1119 C98 1.501 . S
C1133 C129 1.408 . S
C1137 C298 1.419 . S
C1151 C409 1.776 . S
C1155 C338 1.751 . S
C1169 C449 1.399 . S
C1173 C378 1.410 . S
C1187 C489 1.585 . S
C1191 C578 1.585 . S
C1205 C618 1.510 . S
C1209 C538 1.516 . S
C1223 C6 2.846 . S
C1227 C299 2.912 . S
C1241 C46 1.960 . S
C1245 C179 2.045 . S
C1259 C219 3.649 1_556 S
C1263 C99 3.632 . S
C1277 C259 2.079 . S
C1281 C126 1.991 . S
C1295 C450 2.048 . S
C1299 C175 1.964 . S
C1313 C335 0.970 . S
C1317 C10 1.011 . S
C1331 C410 2.043 . S
C1335 C255 1.957 . S
C1349 C95 0.573 . S
C1353 C375 0.597 . S
C1367 C486 2.847 . S
C1371 C379 2.912 . S
C1385 C579 2.047 . S
C1389 C406 1.956 . S
C1403 C539 3.632 . S
C1407 C339 3.650 . S
C1421 C619 2.079 . S
C1425 C446 2.000 . S
C1439 C575 1.967 . S
C1443 C130 2.048 . S
C1457 C215 0.962 . S
C1461 C490 1.003 . S
C1475 C50 2.045 . S
C1479 C615 1.959 . S
C1493 C535 0.555 . S
C1497 C295 0.583 . S
