# Generated by pormake.
# Topology smm, (6)-cn, num edge types: 1
# Building blocks:
#     Node 0, Type 0, BuildingBlock: VOLQOD_clean_sbu_1, # of connection points: 6
#     Node 1, Type 0, BuildingBlock: VOLQOD_clean_sbu_1, # of connection points: 6
#     Node 2, Type 0, BuildingBlock: VOLQOD_clean_sbu_1, # of connection points: 6
#     Node 3, Type 0, BuildingBlock: VOLQOD_clean_sbu_1, # of connection points: 6
#     Node 4, Type 0, BuildingBlock: VOLQOD_clean_sbu_1, # of connection points: 6
#     Node 5, Type 0, BuildingBlock: VOLQOD_clean_sbu_1, # of connection points: 6
#     Node 6, Type 0, BuildingBlock: VOLQOD_clean_sbu_1, # of connection points: 6
#     Node 7, Type 0, BuildingBlock: VOLQOD_clean_sbu_1, # of connection points: 6
#     Node 8, Type 0, BuildingBlock: VOLQOD_clean_sbu_1, # of connection points: 6
#     Edge 9, Type (0, 0), BuildingBlock: XIVTED_clean_linker_0, # of connection points: 2
#     Edge 10, Type (0, 0), BuildingBlock: XIVTED_clean_linker_0, # of connection points: 2
#     Edge 11, Type (0, 0), BuildingBlock: XIVTED_clean_linker_0, # of connection points: 2
#     Edge 12, Type (0, 0), BuildingBlock: XIVTED_clean_linker_0, # of connection points: 2
#     Edge 13, Type (0, 0), BuildingBlock: XIVTED_clean_linker_0, # of connection points: 2
#     Edge 14, Type (0, 0), BuildingBlock: XIVTED_clean_linker_0, # of connection points: 2
#     Edge 15, Type (0, 0), BuildingBlock: XIVTED_clean_linker_0, # of connection points: 2
#     Edge 16, Type (0, 0), BuildingBlock: XIVTED_clean_linker_0, # of connection points: 2
#     Edge 17, Type (0, 0), BuildingBlock: XIVTED_clean_linker_0, # of connection points: 2
#     Edge 18, Type (0, 0), BuildingBlock: XIVTED_clean_linker_0, # of connection points: 2
#     Edge 19, Type (0, 0), BuildingBlock: XIVTED_clean_linker_0, # of connection points: 2
#     Edge 20, Type (0, 0), BuildingBlock: XIVTED_clean_linker_0, # of connection points: 2
#     Edge 21, Type (0, 0), BuildingBlock: XIVTED_clean_linker_0, # of connection points: 2
#     Edge 22, Type (0, 0), BuildingBlock: XIVTED_clean_linker_0, # of connection points: 2
#     Edge 23, Type (0, 0), BuildingBlock: XIVTED_clean_linker_0, # of connection points: 2
#     Edge 24, Type (0, 0), BuildingBlock: XIVTED_clean_linker_0, # of connection points: 2
#     Edge 25, Type (0, 0), BuildingBlock: XIVTED_clean_linker_0, # of connection points: 2
#     Edge 26, Type (0, 0), BuildingBlock: XIVTED_clean_linker_0, # of connection points: 2
#     Edge 27, Type (0, 0), BuildingBlock: XIVTED_clean_linker_0, # of connection points: 2
#     Edge 28, Type (0, 0), BuildingBlock: XIVTED_clean_linker_0, # of connection points: 2
#     Edge 29, Type (0, 0), BuildingBlock: XIVTED_clean_linker_0, # of connection points: 2
#     Edge 30, Type (0, 0), BuildingBlock: XIVTED_clean_linker_0, # of connection points: 2
#     Edge 31, Type (0, 0), BuildingBlock: XIVTED_clean_linker_0, # of connection points: 2
#     Edge 32, Type (0, 0), BuildingBlock: XIVTED_clean_linker_0, # of connection points: 2
#     Edge 33, Type (0, 0), BuildingBlock: XIVTED_clean_linker_0, # of connection points: 2
#     Edge 34, Type (0, 0), BuildingBlock: XIVTED_clean_linker_0, # of connection points: 2
#     Edge 35, Type (0, 0), BuildingBlock: XIVTED_clean_linker_0, # of connection points: 2
# Relax obj value: 0.260
# Max RMSD: 0.218
# Mean RMSD: 0.217
data_MOF--net-smm--node1-VOLQOD_clean_sbu_1--edge1-XIVTED_clean_linker_0
_symmetry_space_group_name_H-M    P1
_symmetry_Int_Tables_number       1
_symmetry_cell_setting            triclinic
loop_
_symmetry_equiv_pos_as_xyz
'x, y, z'
_cell_length_a     53.685211
_cell_length_b     53.377781
_cell_length_c     17.14078
_cell_angle_alpha  89.922411
_cell_angle_beta   89.811442
_cell_angle_gamma 119.92944
loop_
_atom_site_label
_atom_site_type_symbol
_atom_site_fract_x
_atom_site_fract_y
_atom_site_fract_z
_atom_type_partial_charge
O0 O 0.02931 0.19601 0.87814 0.0
Zn1 Zn 0.01616 0.18938 -0.01108 0.0
O2 O 0.04756 0.19525 0.05487 0.0
Zn3 Zn 0.05925 0.22897 0.11763 0.0
Zn4 Zn 0.07927 0.20097 -0.01041 0.0
Zn5 Zn 0.03665 0.16264 0.12116 0.0
O6 O 0.0652 0.22182 0.22823 0.0
O7 O 0.03813 0.17384 0.2322 0.0
O8 O 0.00077 0.21567 0.01793 0.0
O9 O 0.02825 0.23921 0.11911 0.0
O10 O 0.0934 0.26318 0.06965 0.0
O11 O 0.10535 0.2436 0.97263 0.0
O12 O 0.09992 0.18112 0.03346 0.0
O13 O 0.98411 0.14817 -0.0031 0.0
O14 O 0.06604 0.15028 0.11457 0.0
O15 O -0.00242 0.12972 0.09349 0.0
C16 C 0.04717 0.19045 0.8445 0.0
C17 C 0.05272 0.19809 0.26603 0.0
C18 C 0.10836 0.26567 0.00925 0.0
C19 C 0.00727 0.2334 0.07415 0.0
C20 C 0.09051 0.16017 0.08189 0.0
C21 C 0.97952 0.12721 0.04164 0.0
O22 O 0.065 0.1862 0.88281 0.0
O23 O 0.81274 0.85505 0.10982 0.0
Zn24 Zn 0.80986 0.86062 -0.00545 0.0
O25 O 0.83088 0.84576 0.93478 0.0
Zn26 Zn 0.80485 0.81635 0.86491 0.0
Zn27 Zn 0.84583 0.82803 0.00355 0.0
Zn28 Zn 0.86305 0.87604 0.87753 0.0
O29 O 0.82039 0.82329 0.75735 0.0
O30 O 0.85857 0.8675 0.76244 0.0
O31 O 0.76794 0.84223 0.9611 0.0
O32 O 0.76878 0.81769 0.85741 0.0
O33 O 0.79291 0.77628 0.90363 0.0
O34 O 0.82152 0.7851 0.00512 0.0
O35 O 0.88658 0.83974 0.98166 0.0
O36 O 0.82899 0.90378 0.9791 0.0
O37 O 0.9008 0.8802 0.91423 0.0
O38 O 0.86472 0.91393 0.89573 0.0
C39 C 0.83004 0.84945 0.1463 0.0
C40 C 0.84087 0.84527 0.7241 0.0
C41 C 0.80113 0.76746 0.96184 0.0
C42 C 0.75607 0.82716 0.90056 0.0
C43 C 0.90642 0.86293 0.95147 0.0
C44 C 0.8503 0.92179 0.93801 0.0
O45 O 0.84529 0.84086 0.11132 0.0
O46 O 0.19649 0.99055 0.01476 0.0
Zn47 Zn 0.20167 0.00284 0.12692 0.0
O48 O 0.17896 0.96987 0.19395 0.0
Zn49 Zn 0.20432 0.96332 0.25868 0.0
Zn50 Zn 0.15767 0.93466 0.13424 0.0
Zn51 Zn 0.15282 0.97592 0.2566 0.0
O52 O 0.18864 0.95239 0.36732 0.0
O53 O 0.15671 0.96753 0.36877 0.0
O54 O 0.24368 0.02162 0.15435 0.0
O55 O 0.24307 -0.00112 0.26369 0.0
O56 O 0.21123 0.93427 0.20334 0.0
O57 O 0.16709 0.90439 0.16582 0.0
O58 O 0.11547 0.91967 0.13924 0.0
O59 O 0.18954 0.03266 0.14035 0.0
O60 O 0.11213 0.95059 0.2191 0.0
O61 O 0.16066 0.0166 0.2439 0.0
C62 C 0.18329 0.9658 0.98257 0.0
C63 C 0.17079 0.9574 0.40353 0.0
C64 C 0.19342 0.91139 0.16778 0.0
C65 C 0.2564 0.01887 0.21358 0.0
C66 C 0.10064 0.92905 0.17304 0.0
C67 C 0.17422 0.03584 0.19196 0.0
O68 O 0.16846 0.94279 0.0219 0.0
O69 O 0.6543 0.51777 0.39436 0.0
Zn70 Zn 0.66172 0.52005 0.27699 0.0
O71 O 0.62603 0.49554 0.2205 0.0
Zn72 Zn 0.61201 0.51873 0.16856 0.0
Zn73 Zn 0.59788 0.46934 0.29391 0.0
Zn74 Zn 0.63193 0.47272 0.14479 0.0
O75 O 0.60367 0.5085 0.05307 0.0
O76 O 0.62395 0.4812 0.03876 0.0
O77 O 0.67893 0.56106 0.23831 0.0
O78 O 0.64416 0.55969 0.16518 0.0
O79 O 0.5785 0.51688 0.2303 0.0
O80 O 0.5678 0.47987 0.30971 0.0
O81 O 0.58032 0.42753 0.26645 0.0
O82 O 0.69148 0.5081 0.25256 0.0
O83 O 0.60612 0.43047 0.16226 0.0
O84 O 0.67198 0.48008 0.1491 0.0
C85 C 0.63527 0.49624 0.43312 0.0
C86 C 0.6119 0.49443 0.01019 0.0
C87 C 0.56331 0.49973 0.28511 0.0
C88 C 0.66941 0.57337 0.19329 0.0
C89 C 0.5866 0.41555 0.21185 0.0
C90 C 0.69282 0.49324 0.19611 0.0
O91 O 0.61475 0.47463 0.39945 0.0
O92 O 0.53413 0.15476 0.43773 0.0
Zn93 Zn 0.52566 0.15696 0.32606 0.0
O94 O 0.54749 0.14485 0.26108 0.0
Zn95 Zn 0.52157 0.10984 0.2048 0.0
Zn96 Zn 0.57403 0.13839 0.32379 0.0
Zn97 Zn 0.56869 0.17441 0.18634 0.0
O98 O 0.5306 0.11241 0.08959 0.0
O99 O 0.55541 0.16032 0.08045 0.0
O100 O 0.4834 0.13183 0.30881 0.0
O101 O 0.48115 0.1028 0.21295 0.0
O102 O 0.52122 0.076 0.25637 0.0
O103 O 0.55928 0.09574 0.33439 0.0
O104 O 0.61543 0.16131 0.28464 0.0
O105 O 0.53459 0.19757 0.30205 0.0
O106 O 0.61016 0.18684 0.19026 0.0
O107 O 0.56399 0.20863 0.2007 0.0
C108 C 0.5539 0.15251 0.47208 0.0
C109 C 0.5422 0.13554 0.04919 0.0
C110 C 0.53718 0.07366 0.30729 0.0
C111 C 0.46907 0.11223 0.25904 0.0
C112 C 0.62592 0.18015 0.23016 0.0
C113 C 0.54989 0.21501 0.24839 0.0
O114 O 0.57228 0.14879 0.43461 0.0
O115 O 0.89408 0.39235 0.34041 0.0
Zn116 Zn 0.88477 0.3778 0.22998 0.0
O117 O 0.89253 0.40891 0.15861 0.0
Zn118 Zn 0.92671 0.41762 0.10054 0.0
Zn119 Zn 0.90048 0.44345 0.21553 0.0
Zn120 Zn 0.8614 0.39851 0.08828 0.0
O121 O 0.92427 0.42851 -0.00967 0.0
O122 O 0.87664 0.40726 0.97814 0.0
O123 O 0.90752 0.35863 0.2015 0.0
O124 O 0.93172 0.38292 0.09618 0.0
O125 O 0.95944 0.44746 0.16315 0.0
O126 O 0.94081 0.47475 0.19317 0.0
O127 O 0.87163 0.45605 0.19336 0.0
O128 O 0.84345 0.34662 0.22019 0.0
O129 O 0.84288 0.42261 0.10901 0.0
O130 O 0.83099 0.35666 0.10547 0.0
C131 C 0.89862 0.41602 0.37082 0.0
C132 C 0.90191 0.42061 0.94887 0.0
C133 C 0.96111 0.46908 0.19925 0.0
C134 C 0.92388 0.36198 0.14379 0.0
C135 C 0.84935 0.4448 0.15052 0.0
C136 C 0.82576 0.33986 0.16396 0.0
O137 O 0.89973 0.43644 0.32995 0.0
O138 O 0.28439 0.84816 0.47447 0.0
Zn139 Zn 0.27928 0.84087 0.59259 0.0
O140 O 0.31493 0.8482 0.64139 0.0
Zn141 Zn 0.33433 0.88616 0.69243 0.0
Zn142 Zn 0.3383 0.84577 0.56131 0.0
Zn143 Zn 0.30743 0.8186 0.7165 0.0
O144 O 0.33727 0.88206 0.81061 0.0
O145 O 0.3137 0.83423 0.823 0.0
O146 O 0.26717 0.86593 0.64932 0.0
O147 O 0.30853 0.90332 0.68785 0.0
O148 O 0.37365 0.91307 0.64175 0.0
O149 O 0.37356 0.88354 0.55051 0.0
O150 O 0.35205 0.81821 0.58492 0.0
O151 O 0.24754 0.79941 0.61373 0.0
O152 O 0.33366 0.8024 0.70251 0.0
O153 O 0.26687 0.787 0.7103 0.0
C154 C 0.30026 0.84262 0.43037 0.0
C155 C 0.32624 0.85929 0.85287 0.0
C156 C 0.38561 0.90796 0.58406 0.0
C157 C 0.28118 0.89029 0.68332 0.0
C158 C 0.34965 0.80367 0.64598 0.0
C159 C 0.24573 0.78168 0.66654 0.0
O160 O 0.31928 0.83764 0.45833 0.0
O161 O 0.08446 0.5074 0.92462 0.0
Zn162 Zn 0.0889 0.5167 0.80818 0.0
O163 O 0.11307 0.50376 0.75813 0.0
Zn164 Zn 0.08974 0.46629 0.7079 0.0
Zn165 Zn 0.13716 0.50148 0.83558 0.0
Zn166 Zn 0.13685 0.5312 0.68056 0.0
O167 O 0.09222 0.47003 0.58953 0.0
O168 O 0.1222 0.51704 0.57339 0.0
O169 O 0.05185 0.4963 0.74897 0.0
O170 O 0.04829 0.45355 0.73072 0.0
O171 O 0.10111 0.43678 0.74401 0.0
O172 O 0.13548 0.46372 0.82808 0.0
O173 O 0.17862 0.53102 0.81882 0.0
O174 O 0.10531 0.55995 0.79103 0.0
O175 O 0.17803 0.54077 0.69285 0.0
O176 O 0.13553 0.56744 0.69299 0.0
C177 C 0.10079 0.50279 0.9692 0.0
C178 C 0.10487 0.49227 0.5457 0.0
C179 C 0.12063 0.44005 0.7921 0.0
C180 C 0.03833 0.47066 0.72198 0.0
C181 C 0.19169 0.54177 0.75461 0.0
C182 C 0.12289 0.5763 0.73867 0.0
O183 O 0.1225 0.50187 0.94261 0.0
O184 O 0.50396 0.67603 0.52744 0.0
Zn185 Zn 0.50357 0.68551 0.6407 0.0
O186 O 0.48109 0.65043 0.7005 0.0
Zn187 Zn 0.5055 0.63859 0.75201 0.0
Zn188 Zn 0.45479 0.62062 0.63213 0.0
Zn189 Zn 0.46002 0.65739 0.77846 0.0
O190 O 0.49512 0.62949 0.86694 0.0
O191 O 0.47488 0.65674 0.88327 0.0
O192 O 0.54369 0.70684 0.68328 0.0
O193 O 0.54551 0.67312 0.75563 0.0
O194 O 0.50435 0.60531 0.69115 0.0
O195 O 0.4619 0.58753 0.63263 0.0
O196 O 0.41349 0.60742 0.6583 0.0
O197 O 0.48617 0.71122 0.64968 0.0
O198 O 0.41799 0.62837 0.77326 0.0
O199 O 0.46206 0.69507 0.76097 0.0
C200 C 0.48522 0.65468 0.48831 0.0
C201 C 0.48639 0.64284 0.91093 0.0
C202 C 0.48442 0.58632 0.64838 0.0
C203 C 0.55719 0.69881 0.72857 0.0
C204 C 0.4024 0.61149 0.71937 0.0
C205 C 0.4712 0.71306 0.70479 0.0
O206 O 0.46366 0.63352 0.52106 0.0
H207 H 0.13482 0.31902 0.07708 0.0
H208 H 0.09671 0.38586 0.72522 0.0
H209 H 0.11357 0.27666 0.85323 0.0
H210 H 0.15637 0.43924 0.90328 0.0
H211 H 0.10292 0.34546 0.76881 0.0
H212 H 0.14481 0.36407 0.01312 0.0
C213 C 0.13317 0.31947 0.01416 0.0
C214 C 0.12328 0.29413 0.97045 0.0
C215 C 0.11496 0.36622 0.79727 0.0
C216 C 0.1334 0.34509 0.89741 0.0
C217 C 0.11127 0.38919 0.77277 0.0
C218 C 0.12567 0.41587 0.81126 0.0
C219 C 0.13277 0.36994 0.86135 0.0
C220 C 0.14451 0.41902 0.87223 0.0
C221 C 0.13869 0.34511 0.97767 0.0
C222 C 0.12128 0.29579 0.88906 0.0
N223 N 0.14714 0.39624 0.89609 0.0
N224 N 0.12551 0.32068 0.8553 0.0
H225 H 0.73453 0.82955 0.76021 0.0
H226 H 0.58412 0.69668 0.86103 0.0
H227 H 0.70957 0.80077 -0.00267 0.0
H228 H 0.59546 0.75059 0.66081 0.0
H229 H 0.6309 0.73362 0.90969 0.0
H230 H 0.68416 0.80141 0.72083 0.0
C231 C 0.71822 0.81795 0.8043 0.0
C232 C 0.72597 0.81747 0.88204 0.0
C233 C 0.62305 0.73743 0.85538 0.0
C234 C 0.66875 0.78438 0.83712 0.0
C235 C 0.59655 0.7162 0.82699 0.0
C236 C 0.58605 0.72044 0.75626 0.0
C237 C 0.63942 0.76284 0.81207 0.0
C238 C 0.60284 0.74639 0.71535 0.0
C239 C 0.68956 0.80181 0.78181 0.0
C240 C 0.70427 0.80187 0.93698 0.0
N241 N 0.6289 0.76651 0.74342 0.0
N242 N 0.6766 0.78535 0.91314 0.0
H243 H 0.16333 0.87311 0.05058 0.0
H244 H 0.30389 0.93604 0.7843 0.0
H245 H 0.24968 0.92911 0.13356 0.0
H246 H 0.22322 0.86237 0.71527 0.0
H247 H 0.28151 0.93858 0.90536 0.0
H248 H 0.18312 0.87039 0.92437 0.0
C249 C 0.18646 0.88423 0.04317 0.0
C250 C 0.20482 0.90178 0.10271 0.0
C251 C 0.26862 0.92204 0.86331 0.0
C252 C 0.22742 0.89946 0.95757 0.0
C253 C 0.28126 0.92085 0.79341 0.0
C254 C 0.26564 0.89852 0.73998 0.0
C255 C 0.24008 0.90097 0.87974 0.0
C256 C 0.23626 0.87971 0.75512 0.0
C257 C 0.19769 0.88296 0.97066 0.0
C258 C 0.23461 0.91561 0.08933 0.0
N259 N 0.22452 0.88107 0.82424 0.0
N260 N 0.24493 0.91454 0.01782 0.0
H261 H 0.43284 0.11157 0.37236 0.0
H262 H 0.29545 0.04762 0.0976 0.0
H263 H 0.4344 0.08697 0.13334 0.0
H264 H 0.2887 0.03166 0.34589 0.0
H265 H 0.34791 0.07296 0.10867 0.0
H266 H 0.38087 0.09219 0.36187 0.0
C267 C 0.42226 0.10219 0.31765 0.0
C268 C 0.43783 0.10065 0.25373 0.0
C269 C 0.33486 0.0641 0.16068 0.0
C270 C 0.37882 0.07907 0.24117 0.0
C271 C 0.305 0.04987 0.15459 0.0
C272 C 0.28778 0.03739 0.22091 0.0
C273 C 0.34747 0.06627 0.23372 0.0
C274 C 0.30125 0.04078 0.29326 0.0
C275 C 0.3927 0.09114 0.31184 0.0
C276 C 0.42311 0.08829 0.18421 0.0
N277 N 0.33037 0.05493 0.2978 0.0
N278 N 0.39439 0.07807 0.17962 0.0
H279 H 0.94379 0.35074 0.00894 0.0
H280 H 0.00025 0.25568 0.20971 0.0
H281 H 0.92658 0.32569 0.25146 0.0
H282 H 0.97831 0.24648 0.96535 0.0
H283 H 0.97728 0.28498 0.22653 0.0
H284 H 0.96095 0.31635 -0.00867 0.0
C285 C 0.94364 0.33802 0.05843 0.0
C286 C 0.93387 0.3411 0.13186 0.0
C287 C 0.97725 0.27629 0.16944 0.0
C288 C 0.95354 0.30205 0.11213 0.0
C289 C 0.99041 0.25969 0.15973 0.0
C290 C 0.9912 0.24876 0.08599 0.0
C291 C 0.96538 0.28251 0.10461 0.0
C292 C 0.97804 0.25445 0.02321 0.0
C293 C 0.95321 0.3183 0.04817 0.0
C294 C 0.93391 0.32394 0.19387 0.0
N295 N 0.96597 0.27132 0.03371 0.0
N296 N 0.94389 0.30533 0.1828 0.0
H297 H 0.75007 0.72523 0.90213 0.0
H298 H 0.72551 0.60996 0.23529 0.0
H299 H 0.81282 0.74035 0.08007 0.0
H300 H 0.65864 0.60384 0.08333 0.0
H301 H 0.75921 0.65611 0.17391 0.0
H302 H 0.7183 0.67781 0.95918 0.0
C303 C 0.75739 0.71843 0.95241 0.0
C304 C 0.78407 0.73694 -0.01325 0.0
C305 C 0.73711 0.64469 0.1544 0.0
C306 C 0.74758 0.68284 0.05307 0.0
C307 C 0.71781 0.61843 0.18972 0.0
C308 C 0.68917 0.60296 0.16452 0.0
C309 C 0.72773 0.6554 0.09314 0.0
C310 C 0.68047 0.61497 0.1049 0.0
C311 C 0.73911 0.69144 0.98542 0.0
C312 C 0.79235 0.7269 0.05197 0.0
N313 N 0.69971 0.64037 0.071 0.0
N314 N 0.77408 0.70059 0.08337 0.0
H315 H 0.0083 0.49847 0.68755 0.0
H316 H 0.00484 0.45924 0.23929 0.0
H317 H 0.0263 0.43318 0.60088 0.0
H318 H 0.95493 0.49635 0.32766 0.0
H319 H 0.02013 0.45755 0.37207 0.0
H320 H 0.99123 0.50177 0.55752 0.0
C321 C 0.00794 0.48429 0.64189 0.0
C322 C 0.01912 0.4658 0.65506 0.0
C323 C 0.00596 0.46622 0.36221 0.0
C324 C 0.00091 0.47044 0.50605 0.0
C325 C -0.0024 0.46766 0.28625 0.0
C326 C 0.97805 0.47737 0.27222 0.0
C327 C -0.00509 0.47478 0.42457 0.0
C328 C 0.96978 0.4884 0.33556 0.0
C329 C -0.00144 0.48646 0.56757 0.0
C330 C 0.01806 0.44787 0.59371 0.0
N331 N 0.97793 0.48642 0.40927 0.0
N332 N 0.00976 0.4511 0.52151 0.0
H333 H 0.52049 0.56485 0.68047 0.0
H334 H 0.5407 0.5348 0.2493 0.0
H335 H 0.46207 0.56408 0.50654 0.0
H336 H 0.54332 0.48011 0.43147 0.0
H337 H 0.51633 0.55108 0.34089 0.0
H338 H 0.53459 0.53855 0.5891 0.0
C339 C 0.5103 0.55872 0.62387 0.0
C340 C 0.48997 0.56645 0.60135 0.0
C341 C 0.52192 0.53515 0.35984 0.0
C342 C 0.50664 0.5376 0.49646 0.0
C343 C 0.53573 0.52586 0.30776 0.0
C344 C 0.54411 0.50612 0.3326 0.0
C345 C 0.51735 0.52525 0.43742 0.0
C346 C 0.53725 0.49531 0.40941 0.0
C347 C 0.51834 0.54382 0.57191 0.0
C348 C 0.4776 0.55826 0.52679 0.0
N349 N 0.52482 0.50547 0.45956 0.0
N350 N 0.48655 0.54477 0.47639 0.0
H351 H 0.54163 0.06637 0.46274 0.0
H352 H 0.41302 0.90368 0.45527 0.0
H353 H 0.50345 0.01894 0.25145 0.0
H354 H 0.42204 0.96348 0.63762 0.0
H355 H 0.45649 0.94126 0.39384 0.0
H356 H 0.5087 0.02365 0.53925 0.0
C357 C 0.52716 0.04661 0.43232 0.0
C358 C 0.52513 0.04616 0.35052 0.0
C359 C 0.44912 0.94605 0.44771 0.0
C360 C 0.48747 -0.00238 0.43769 0.0
C361 C 0.42423 0.92465 0.48309 0.0
C362 C 0.41347 0.93051 0.55143 0.0
C363 C 0.46371 0.97359 0.48087 0.0
C364 C 0.42932 0.9581 0.58459 0.0
C365 C 0.50814 0.02245 0.47615 0.0
C366 C 0.50563 0.02017 0.31432 0.0
N367 N 0.45363 0.97877 0.5486 0.0
N368 N 0.48735 -0.00303 0.35822 0.0
H369 H 0.14653 0.05209 0.29684 0.0
H370 H 0.13726 0.16387 0.00413 0.0
H371 H 0.19033 0.07598 0.07417 0.0
H372 H 0.08421 0.12709 0.20914 0.0
H373 H 0.16385 0.13906 0.039 0.0
H374 H 0.13136 0.08761 0.27678 0.0
C375 C 0.15328 0.06506 0.2441 0.0
C376 C 0.16929 0.06066 0.18646 0.0
C377 C 0.14651 0.13668 0.07648 0.0
C378 C 0.15165 0.10121 0.16266 0.0
C379 C 0.13136 0.15079 0.05664 0.0
C380 C 0.1082 0.14715 0.1031 0.0
C381 C 0.13854 0.11912 0.14353 0.0
C382 C 0.10156 0.13012 0.17077 0.0
C383 C 0.14453 0.08532 0.23257 0.0
C384 C 0.17773 0.07843 0.1198 0.0
N385 N 0.11655 0.11667 0.18865 0.0
N386 N 0.16845 0.09768 0.10916 0.0
H387 H 0.88001 0.96466 0.83142 0.0
H388 H 0.95209 0.0831 0.14676 0.0
H389 H 0.84579 0.94974 0.06573 0.0
H390 H 0.94891 0.10643 0.90728 0.0
H391 H 0.9134 0.03392 0.11939 0.0
H392 H 0.90551 0.01672 0.85638 0.0
C393 C 0.87745 0.97241 0.88758 0.0
C394 C 0.86099 0.95296 0.94682 0.0
C395 C 0.92084 0.04998 0.07329 0.0
C396 C 0.89052 0.01217 0.97622 0.0
C397 C 0.94299 0.07794 0.08872 0.0
C398 C 0.95383 0.09872 0.029 0.0
C399 C 0.91006 0.04264 -0.00281 0.0
C400 C 0.94118 0.09101 0.95494 0.0
C401 C 0.89191 0.00206 0.90171 0.0
C402 C 0.85828 0.96406 0.01851 0.0
N403 N 0.92032 0.06337 0.94064 0.0
N404 N 0.87347 0.99297 0.0319 0.0
H405 H 0.92855 0.82813 -0.01238 0.0
H406 H 0.06831 0.95545 0.18131 0.0
H407 H 0.95181 0.91776 0.96492 0.0
H408 H 0.06492 0.87659 0.10658 0.0
H409 H 0.02151 0.93911 0.12079 0.0
H410 H 0.97574 0.84329 0.04458 0.0
C411 C 0.94378 0.851 -0.00654 0.0
C412 C 0.93635 0.87175 0.97146 0.0
C413 C 0.031 0.92537 0.1181 0.0
C414 C 0.98974 0.88907 0.03861 0.0
C415 C 0.05749 0.93447 0.15349 0.0
C416 C 0.07051 0.91734 0.14883 0.0
C417 C 0.01729 0.89879 0.07895 0.0
C418 C 0.05565 0.89048 0.11125 0.0
C419 C 0.97058 0.85959 0.02621 0.0
C420 C 0.95679 0.90108 0.98053 0.0
N421 N 0.02976 0.88198 0.07774 0.0
N422 N 0.98245 0.90889 0.01454 0.0
H423 H 0.70438 0.46824 0.07341 0.0
H424 H 0.84894 0.48437 0.25221 0.0
H425 H 0.74001 0.51152 0.29177 0.0
H426 H 0.80457 0.43191 0.05253 0.0
H427 H 0.81313 0.49998 0.25972 0.0
H428 H 0.74487 0.46041 0.05729 0.0
C429 C 0.72077 0.4762 0.11809 0.0
C430 C 0.71856 0.49029 0.18463 0.0
C431 C 0.81141 0.48521 0.21403 0.0
C432 C 0.76524 0.48124 0.16629 0.0
C433 C 0.83188 0.47637 0.20948 0.0
C434 C 0.82962 0.4566 0.15199 0.0
C435 C 0.78869 0.47434 0.16044 0.0
C436 C 0.80706 0.44695 0.09826 0.0
C437 C 0.74396 0.4717 0.10871 0.0
C438 C 0.74075 0.5004 0.23982 0.0
N439 N 0.78746 0.45582 0.10404 0.0
N440 N 0.76312 0.49549 0.2297 0.0
H441 H 0.55341 0.37638 0.32467 0.0
H442 H 0.57121 0.25181 0.12466 0.0
H443 H 0.58999 0.38253 0.09577 0.0
H444 H 0.53003 0.24138 0.34877 0.0
H445 H 0.57367 0.29814 0.10891 0.0
H446 H 0.53922 0.32515 0.32929 0.0
C447 C 0.55802 0.36686 0.27485 0.0
C448 C 0.57337 0.38384 0.2103 0.0
C449 C 0.56395 0.28574 0.16147 0.0
C450 C 0.55748 0.32553 0.21559 0.0
C451 C 0.5627 0.25929 0.17077 0.0
C452 C 0.55075 0.24287 0.23869 0.0
C453 C 0.55346 0.29611 0.22082 0.0
C454 C 0.53963 0.25349 0.29577 0.0
C455 C 0.55001 0.33766 0.27769 0.0
C456 C 0.57864 0.37039 0.14729 0.0
N457 N 0.54151 0.27965 0.28589 0.0
N458 N 0.57099 0.34212 0.15195 0.0
H459 H 0.67017 0.19098 0.33031 0.0
H460 H 0.78461 0.31537 0.05089 0.0
H461 H 0.65271 0.20732 0.09582 0.0
H462 H 0.80412 0.30112 0.28546 0.0
H463 H 0.73804 0.27142 0.06127 0.0
H464 H 0.72125 0.22624 0.30951 0.0
C465 C 0.67717 0.20151 0.27402 0.0
C466 C 0.65717 0.1966 0.21515 0.0
C467 C 0.75256 0.27776 0.11038 0.0
C468 C 0.7152 0.237 0.19124 0.0
C469 C 0.77918 0.30295 0.10452 0.0
C470 C 0.7982 0.31221 0.16773 0.0
C471 C 0.74471 0.26173 0.18019 0.0
C472 C 0.79005 0.29496 0.23543 0.0
C473 C 0.70625 0.22175 0.26231 0.0
C474 C 0.66734 0.21083 0.14333 0.0
N475 N 0.76378 0.27071 0.24018 0.0
N476 N 0.69554 0.23057 0.13374 0.0
H477 H 0.4705 0.74338 0.57616 0.0
H478 H 0.35583 0.77698 0.77461 0.0
H479 H 0.44604 0.72816 0.81939 0.0
H480 H 0.3862 0.80156 0.53772 0.0
H481 H 0.38975 0.75977 0.79171 0.0
H482 H 0.44242 0.76776 0.56192 0.0
C483 C 0.45976 0.74572 0.62691 0.0
C484 C 0.46021 0.73334 0.69876 0.0
C485 C 0.38903 0.76894 0.73595 0.0
C486 C 0.42772 0.76056 0.68256 0.0
C487 C 0.36946 0.77854 0.72593 0.0
C488 C 0.3681 0.79066 0.65455 0.0
C489 C 0.40731 0.77132 0.67407 0.0
C490 C 0.38646 0.7923 0.59373 0.0
C491 C 0.44354 0.7594 0.6186 0.0
C492 C 0.4459 0.73698 0.76257 0.0
N493 N 0.40532 0.78271 0.60486 0.0
N494 N 0.42994 0.74994 0.75271 0.0
H495 H 0.12884 0.61468 0.85348 0.0
H496 H 0.20522 0.74834 0.55771 0.0
H497 H 0.13341 0.60664 0.60423 0.0
H498 H 0.22548 0.7521 0.8023 0.0
H499 H 0.16554 0.69861 0.57704 0.0
H500 H 0.15072 0.66729 0.83726 0.0
C501 C 0.13374 0.62393 0.79534 0.0
C502 C 0.12993 0.60657 0.73022 0.0
C503 C 0.17839 0.71061 0.62664 0.0
C504 C 0.15467 0.66618 0.71122 0.0
C505 C 0.20092 0.73891 0.61564 0.0
C506 C 0.21893 0.75397 0.67815 0.0
C507 C 0.1738 0.69763 0.70075 0.0
C508 C 0.21243 0.74091 0.7522 0.0
C509 C 0.1463 0.65386 0.78608 0.0
C510 C 0.13659 0.61948 0.65602 0.0
N511 N 0.19057 0.71338 0.76134 0.0
N512 N 0.14894 0.64857 0.64855 0.0
H513 H 0.36239 0.58554 0.60398 0.0
H514 H 0.22912 0.55514 0.87609 0.0
H515 H 0.3707 0.60845 0.8479 0.0
H516 H 0.22564 0.55443 0.62433 0.0
H517 H 0.2802 0.57062 0.86839 0.0
H518 H 0.31096 0.56879 0.61246 0.0
C519 C 0.35337 0.58676 0.6595 0.0
C520 C 0.37089 0.5985 0.72528 0.0
C521 C 0.26828 0.56721 0.81486 0.0
C522 C 0.31219 0.5796 0.73512 0.0
C523 C 0.23912 0.55841 0.81916 0.0
C524 C 0.22307 0.5535 0.75072 0.0
C525 C 0.28143 0.57084 0.74162 0.0
C526 C 0.2372 0.55809 0.6786 0.0
C527 C 0.32407 0.57741 0.66411 0.0
C528 C 0.35804 0.59968 0.79561 0.0
N529 N 0.26556 0.56634 0.67593 0.0
N530 N 0.32947 0.59038 0.79864 0.0
H531 H 0.06656 0.16264 0.75012 0.0
H532 H 0.06111 0.24172 0.36418 0.0
H533 H 0.03175 0.22017 0.74599 0.0
H534 H 0.04889 0.15539 0.3605 0.0
H535 H 0.06126 0.24044 0.50708 0.0
H536 H 0.07036 0.16567 0.60742 0.0
C537 C 0.05971 0.17584 0.71909 0.0
C538 C 0.04862 0.191 0.75925 0.0
C539 C 0.05866 0.22189 0.47463 0.0
C540 C 0.05346 0.19499 0.59798 0.0
C541 C 0.05874 0.22265 0.39353 0.0
C542 C 0.05473 0.19852 0.35113 0.0
C543 C 0.05513 0.19707 0.51282 0.0
C544 C 0.05169 0.17428 0.39149 0.0
C545 C 0.06186 0.17753 0.63813 0.0
C546 C 0.04008 0.20788 0.71682 0.0
N547 N 0.05202 0.17417 0.47048 0.0
N548 N 0.04287 0.2096 0.63817 0.0
H549 H 0.88634 0.87904 0.62734 0.0
H550 H 0.78865 0.84263 0.25102 0.0
H551 H 0.79612 0.81462 0.6267 0.0
H552 H 0.87702 0.86282 0.234 0.0
H553 H 0.79242 0.84311 0.39371 0.0
H554 H 0.88458 0.88289 0.48471 0.0
C555 C 0.8663 0.86563 0.59718 0.0
C556 C 0.84142 0.84633 0.63848 0.0
C557 C 0.81097 0.8476 0.35838 0.0
C558 C 0.8391 0.8513 0.47753 0.0
C559 C 0.80889 0.84751 0.27741 0.0
C560 C 0.83246 0.85237 0.23131 0.0
C561 C 0.83694 0.85318 0.39274 0.0
C562 C 0.85825 0.85858 0.26794 0.0
C563 C 0.8653 0.86789 0.5163 0.0
C564 C 0.8159 0.82952 0.59697 0.0
N565 N 0.85985 0.85884 0.34684 0.0
N566 N 0.81533 0.8326 0.51873 0.0
H567 H 0.17717 0.92047 0.89458 0.0
H568 H 0.15059 0.98258 0.5043 0.0
H569 H 0.18841 0.0062 0.87712 0.0
H570 H 0.18755 0.92689 0.49765 0.0
H571 H 0.154 0.98377 0.64623 0.0
H572 H 0.17258 0.91605 0.75206 0.0
C573 C 0.17883 0.93837 0.86064 0.0
C574 C 0.18319 0.96375 0.89719 0.0
C575 C 0.16118 0.97117 0.61353 0.0
C576 C 0.17718 0.9585 0.736 0.0
C577 C 0.159 0.97022 0.53269 0.0
C578 C 0.16899 0.95475 0.48915 0.0
C579 C 0.17299 0.95619 0.6511 0.0
C580 C 0.17981 0.93925 0.52913 0.0
C581 C 0.17621 0.93582 0.77974 0.0
C582 C 0.18524 0.98636 0.85098 0.0
N583 N 0.18153 0.94034 0.60823 0.0
N584 N 0.18185 0.98307 0.77265 0.0
H585 H 0.61271 0.45009 0.53052 0.0
H586 H 0.62118 0.53945 0.91361 0.0
H587 H 0.65439 0.54322 0.53051 0.0
H588 H 0.59955 0.45004 0.91304 0.0
H589 H 0.62783 0.54099 0.77097 0.0
H590 H 0.60383 0.44968 0.66972 0.0
C591 C 0.62035 0.47053 0.56023 0.0
C592 C 0.63443 0.49674 0.51907 0.0
C593 C 0.62131 0.521 0.80222 0.0
C594 C 0.62378 0.49643 0.67877 0.0
C595 C 0.6171 0.52 0.88315 0.0
C596 C 0.60977 0.49456 0.92466 0.0
C597 C 0.61784 0.49628 0.76328 0.0
C598 C 0.60526 0.47008 0.88304 0.0
C599 C 0.61513 0.47029 0.63973 0.0
C600 C 0.64377 0.52257 0.56044 0.0
N601 N 0.60946 0.47159 0.80485 0.0
N602 N 0.63807 0.52179 0.63823 0.0
H603 H 0.57733 0.12806 0.5647 0.0
H604 H 0.53198 0.1707 0.95977 0.0
H605 H 0.52817 0.172 0.57311 0.0
H606 H 0.54766 0.09902 0.94706 0.0
H607 H 0.53412 0.17424 0.81812 0.0
H608 H 0.57155 0.12088 0.70608 0.0
C609 C 0.56566 0.13653 0.59644 0.0
C610 C 0.55333 0.15081 0.55751 0.0
C611 C 0.53679 0.15752 0.84605 0.0
C612 C 0.54642 0.14235 0.71795 0.0
C613 C 0.5356 0.15551 0.92667 0.0
C614 C 0.53977 0.13461 0.96434 0.0
C615 C 0.54276 0.13885 0.80295 0.0
C616 C 0.54424 0.11531 0.91949 0.0
C617 C 0.56207 0.13207 0.67671 0.0
C618 C 0.53804 0.16093 0.60101 0.0
N619 N 0.54604 0.11815 0.84052 0.0
N620 N 0.53511 0.15659 0.67912 0.0
H621 H 0.92399 0.39497 0.4685 0.0
H622 H 0.86632 0.42817 0.85125 0.0
H623 H 0.88311 0.447 0.46439 0.0
H624 H 0.9444 0.42369 0.85422 0.0
H625 H 0.86921 0.4314 0.70883 0.0
H626 H 0.9293 0.40138 0.6105 0.0
C627 C 0.91607 0.40763 0.49767 0.0
C628 C 0.9027 0.42012 0.45542 0.0
C629 C 0.88589 0.43008 0.74083 0.0
C630 C 0.90843 0.42726 0.61635 0.0
C631 C 0.88418 0.42811 0.82182 0.0
C632 C 0.90508 0.42554 0.86414 0.0
C633 C 0.90822 0.4287 0.70204 0.0
C634 C 0.9279 0.42571 0.82347 0.0
C635 C 0.91935 0.4115 0.5782 0.0
C636 C 0.89334 0.43686 0.49525 0.0
N637 N 0.92863 0.42675 0.74426 0.0
N638 N 0.89594 0.43955 0.57388 0.0
H639 H 0.28969 0.87877 0.33804 0.0
H640 H 0.33312 0.82432 0.95267 0.0
H641 H 0.30909 0.80957 0.32812 0.0
H642 H 0.31794 0.89638 0.94723 0.0
H643 H 0.32432 0.81978 0.09213 0.0
H644 H 0.29749 0.88533 0.19568 0.0
C645 C 0.29494 0.86459 0.30568 0.0
C646 C 0.29884 0.84364 0.34461 0.0
C647 C 0.32309 0.83682 0.06116 0.0
C648 C 0.30834 0.85136 0.18359 0.0
C649 C 0.32835 0.83953 0.98144 0.0
C650 C 0.32639 0.86082 0.93866 0.0
C651 C 0.31544 0.85534 0.09904 0.0
C652 C 0.32003 0.87992 0.97865 0.0
C653 C 0.29975 0.86857 0.22487 0.0
C654 C 0.30604 0.8261 0.30047 0.0
N655 N 0.3145 0.87658 0.05692 0.0
N656 N 0.31067 0.83045 0.22276 0.0
H657 H 0.07674 0.52572 0.0676 0.0
H658 H 0.08947 0.44597 0.44843 0.0
H659 H 0.11032 0.46724 0.06188 0.0
H660 H 0.10461 0.5333 0.45229 0.0
H661 H 0.0819 0.44474 0.30659 0.0
H662 H 0.07157 0.51953 0.21039 0.0
C663 C 0.08261 0.51131 0.09623 0.0
C664 C 0.09441 0.49734 0.05339 0.0
C665 C 0.08661 0.46402 0.33898 0.0
C666 C 0.08814 0.48986 0.215 0.0
C667 C 0.09093 0.46473 0.41955 0.0
C668 C 0.09831 0.48999 0.46154 0.0
C669 C 0.08897 0.48846 0.30095 0.0
C670 C 0.09963 0.51363 0.42162 0.0
C671 C 0.07975 0.50787 0.17735 0.0
C672 C 0.10161 0.47881 0.09308 0.0
N673 N 0.09505 0.51232 0.3435 0.0
N674 N 0.09841 0.47563 0.17166 0.0
H675 H 0.51706 0.69964 0.38846 0.0
H676 H 0.48287 0.60052 0.00983 0.0
H677 H 0.46272 0.60681 0.39602 0.0
H678 H 0.50063 0.68874 0.0035 0.0
H679 H 0.48642 0.60349 0.15331 0.0
H680 H 0.5221 0.69678 0.24715 0.0
C681 C 0.5063 0.67869 0.36043 0.0
C682 C 0.48907 0.65349 0.40356 0.0
C683 C 0.48976 0.62219 0.12003 0.0
C684 C 0.49512 0.65004 0.24303 0.0
C685 C 0.48787 0.62053 0.03863 0.0
C686 C 0.49106 0.64427 -0.00447 0.0
C687 C 0.49552 0.64796 0.15741 0.0
C688 C 0.49755 0.6698 0.03504 0.0
C689 C 0.50919 0.67707 0.28004 0.0
C690 C 0.47576 0.62683 0.36455 0.0
N691 N 0.49955 0.67097 0.11378 0.0
N692 N 0.47905 0.62578 0.28629 0.0
loop_
_geom_bond_atom_site_label_1
_geom_bond_atom_site_label_2
_geom_bond_distance
_geom_bond_site_symmetry_2
_ccdc_geom_bond_type
O0 Zn1 1.953 . S
O0 C16 1.226 1_655 S
Zn1 O0 1.953 . S
Zn1 O2 1.949 1_656 S
Zn1 O8 1.923 . S
Zn1 O13 1.924 . S
O2 Zn1 1.949 1_454 S
O2 Zn3 1.923 . S
O2 Zn4 1.950 1_554 S
O2 Zn5 1.945 . S
Zn3 O2 1.923 . S
Zn3 O6 1.933 . S
Zn3 O9 1.941 1_455 S
Zn3 O10 1.965 . S
Zn4 O2 1.950 1_556 S
Zn4 O11 1.938 . S
Zn4 O12 1.906 . S
Zn4 O22 1.953 . S
Zn5 O2 1.945 . S
Zn5 O7 1.932 . S
Zn5 O14 1.977 . S
Zn5 O15 1.910 1_455 S
O6 Zn3 1.933 . S
O6 C17 1.226 . S
O7 Zn5 1.932 . S
O7 C17 1.307 . S
O8 Zn1 1.923 . S
O8 C19 1.245 1_556 S
O9 Zn3 1.941 1_655 S
O9 C19 1.283 . S
O10 Zn3 1.965 . S
O10 C18 1.303 1_554 S
O11 Zn4 1.938 . S
O11 C18 1.247 . S
O12 Zn4 1.906 . S
O12 C20 1.304 1_556 S
O13 Zn1 1.924 . S
O13 C21 1.311 1_556 S
O14 Zn5 1.977 . S
O14 C20 1.272 . S
O15 Zn5 1.910 1_655 S
O15 C21 1.231 . S
C16 O0 1.226 1_455 S
C16 O22 1.297 . S
C17 O6 1.226 . S
C17 O7 1.307 . S
C18 O10 1.303 1_556 S
C18 O11 1.247 . S
C19 O8 1.245 1_554 S
C19 O9 1.283 . S
C20 O12 1.304 1_554 S
C20 O14 1.272 . S
C21 O13 1.311 1_554 S
C21 O15 1.231 . S
O22 Zn4 1.953 . S
O22 C16 1.297 . S
O23 Zn24 1.953 . S
O23 C39 1.225 . S
Zn24 O23 1.953 . S
Zn24 O25 1.949 . S
Zn24 O31 1.919 . S
Zn24 O36 1.924 . S
O25 Zn24 1.949 . S
O25 Zn26 1.923 1_554 S
O25 Zn27 1.950 . S
O25 Zn28 1.945 1_554 S
Zn26 O25 1.923 1_556 S
Zn26 O29 1.933 . S
Zn26 O32 1.941 . S
Zn26 O33 1.965 . S
Zn27 O25 1.950 . S
Zn27 O34 1.938 . S
Zn27 O35 1.906 . S
Zn27 O45 1.953 . S
Zn28 O25 1.945 1_556 S
Zn28 O30 1.932 . S
Zn28 O37 1.977 . S
Zn28 O38 1.910 . S
O29 Zn26 1.933 . S
O29 C40 1.226 . S
O30 Zn28 1.932 . S
O30 C40 1.307 . S
O31 Zn24 1.919 . S
O31 C42 1.253 1_554 S
O32 Zn26 1.941 . S
O32 C42 1.283 . S
O33 Zn26 1.965 . S
O33 C41 1.303 1_556 S
O34 Zn27 1.938 . S
O34 C41 1.247 . S
O35 Zn27 1.906 . S
O35 C43 1.304 1_554 S
O36 Zn24 1.924 . S
O36 C44 1.311 . S
O37 Zn28 1.977 . S
O37 C43 1.272 . S
O38 Zn28 1.910 . S
O38 C44 1.231 1_556 S
C39 O23 1.225 . S
C39 O45 1.298 . S
C40 O29 1.226 . S
C40 O30 1.307 . S
C41 O33 1.303 1_554 S
C41 O34 1.247 . S
C42 O31 1.253 1_556 S
C42 O32 1.283 . S
C43 O35 1.304 1_556 S
C43 O37 1.272 . S
C44 O36 1.311 . S
C44 O38 1.231 1_554 S
O45 Zn27 1.953 . S
O45 C39 1.298 . S
O46 Zn47 1.953 . S
O46 C62 1.225 . S
Zn47 O46 1.953 . S
Zn47 O48 1.949 1_556 S
Zn47 O54 1.919 . S
Zn47 O59 1.924 . S
O48 Zn47 1.949 1_554 S
O48 Zn49 1.923 . S
O48 Zn50 1.950 1_544 S
O48 Zn51 1.945 . S
Zn49 O48 1.923 . S
Zn49 O52 1.933 1_545 S
Zn49 O55 1.941 . S
Zn49 O56 1.965 1_545 S
Zn50 O48 1.950 1_566 S
Zn50 O57 1.938 . S
Zn50 O58 1.906 . S
Zn50 O68 1.958 . S
Zn51 O48 1.945 . S
Zn51 O53 1.932 . S
Zn51 O60 1.977 1_545 S
Zn51 O61 1.910 . S
O52 Zn49 1.933 1_565 S
O52 C63 1.226 1_565 S
O53 Zn51 1.932 . S
O53 C63 1.307 . S
O54 Zn47 1.919 . S
O54 C65 1.253 1_556 S
O55 Zn49 1.941 . S
O55 C65 1.283 . S
O56 Zn49 1.965 1_565 S
O56 C64 1.303 1_554 S
O57 Zn50 1.938 . S
O57 C64 1.247 . S
O58 Zn50 1.906 . S
O58 C66 1.304 1_556 S
O59 Zn47 1.924 . S
O59 C67 1.311 1_556 S
O60 Zn51 1.977 1_565 S
O60 C66 1.272 . S
O61 Zn51 1.910 . S
O61 C67 1.231 . S
C62 O46 1.225 . S
C62 O68 1.290 1_545 S
C63 O52 1.226 1_545 S
C63 O53 1.307 . S
C64 O56 1.303 1_556 S
C64 O57 1.247 . S
C65 O54 1.253 1_554 S
C65 O55 1.283 . S
C66 O58 1.304 1_554 S
C66 O60 1.272 . S
C67 O59 1.311 1_554 S
C67 O61 1.231 . S
O68 Zn50 1.958 . S
O68 C62 1.290 1_565 S
O69 Zn70 1.953 . S
O69 C85 1.225 . S
Zn70 O69 1.953 . S
Zn70 O71 1.949 . S
Zn70 O77 1.919 . S
Zn70 O82 1.924 . S
O71 Zn70 1.949 . S
O71 Zn72 1.923 . S
O71 Zn73 1.950 . S
O71 Zn74 1.945 . S
Zn72 O71 1.923 . S
Zn72 O75 1.933 . S
Zn72 O78 1.941 . S
Zn72 O79 1.965 . S
Zn73 O71 1.950 . S
Zn73 O80 1.938 . S
Zn73 O81 1.906 . S
Zn73 O91 1.953 . S
Zn74 O71 1.945 . S
Zn74 O76 1.932 . S
Zn74 O83 1.977 . S
Zn74 O84 1.910 . S
O75 Zn72 1.933 . S
O75 C86 1.226 . S
O76 Zn74 1.932 . S
O76 C86 1.307 . S
O77 Zn70 1.919 . S
O77 C88 1.253 . S
O78 Zn72 1.941 . S
O78 C88 1.283 . S
O79 Zn72 1.965 . S
O79 C87 1.303 . S
O80 Zn73 1.938 . S
O80 C87 1.247 . S
O81 Zn73 1.906 . S
O81 C89 1.304 . S
O82 Zn70 1.924 . S
O82 C90 1.311 . S
O83 Zn74 1.977 . S
O83 C89 1.272 . S
O84 Zn74 1.910 . S
O84 C90 1.231 . S
C85 O69 1.225 . S
C85 O91 1.298 . S
C86 O75 1.226 . S
C86 O76 1.307 . S
C87 O79 1.303 . S
C87 O80 1.247 . S
C88 O77 1.253 . S
C88 O78 1.283 . S
C89 O81 1.304 . S
C89 O83 1.272 . S
C90 O82 1.311 . S
C90 O84 1.231 . S
O91 Zn73 1.953 . S
O91 C85 1.298 . S
O92 Zn93 1.953 . S
O92 C108 1.225 . S
Zn93 O92 1.953 . S
Zn93 O94 1.949 . S
Zn93 O100 1.919 . S
Zn93 O105 1.924 . S
O94 Zn93 1.949 . S
O94 Zn95 1.923 . S
O94 Zn96 1.950 . S
O94 Zn97 1.945 . S
Zn95 O94 1.923 . S
Zn95 O98 1.933 . S
Zn95 O101 1.941 . S
Zn95 O102 1.965 . S
Zn96 O94 1.950 . S
Zn96 O103 1.938 . S
Zn96 O104 1.906 . S
Zn96 O114 1.953 . S
Zn97 O94 1.945 . S
Zn97 O99 1.932 . S
Zn97 O106 1.977 . S
Zn97 O107 1.910 . S
O98 Zn95 1.933 . S
O98 C109 1.226 . S
O99 Zn97 1.932 . S
O99 C109 1.307 . S
O100 Zn93 1.919 . S
O100 C111 1.253 . S
O101 Zn95 1.941 . S
O101 C111 1.283 . S
O102 Zn95 1.965 . S
O102 C110 1.303 . S
O103 Zn96 1.938 . S
O103 C110 1.247 . S
O104 Zn96 1.906 . S
O104 C112 1.304 . S
O105 Zn93 1.924 . S
O105 C113 1.311 . S
O106 Zn97 1.977 . S
O106 C112 1.272 . S
O107 Zn97 1.910 . S
O107 C113 1.231 . S
C108 O92 1.225 . S
C108 O114 1.298 . S
C109 O98 1.226 . S
C109 O99 1.307 . S
C110 O102 1.303 . S
C110 O103 1.247 . S
C111 O100 1.253 . S
C111 O101 1.283 . S
C112 O104 1.304 . S
C112 O106 1.272 . S
C113 O105 1.311 . S
C113 O107 1.231 . S
O114 Zn96 1.953 . S
O114 C108 1.298 . S
O115 Zn116 1.953 . S
O115 C131 1.225 . S
Zn116 O115 1.953 . S
Zn116 O117 1.949 . S
Zn116 O123 1.919 . S
Zn116 O128 1.924 . S
O117 Zn116 1.949 . S
O117 Zn118 1.923 . S
O117 Zn119 1.950 . S
O117 Zn120 1.945 . S
Zn118 O117 1.923 . S
Zn118 O121 1.933 . S
Zn118 O124 1.941 . S
Zn118 O125 1.965 . S
Zn119 O117 1.950 . S
Zn119 O126 1.938 . S
Zn119 O127 1.906 . S
Zn119 O137 1.953 . S
Zn120 O117 1.945 . S
Zn120 O122 1.932 . S
Zn120 O129 1.977 . S
Zn120 O130 1.910 . S
O121 Zn118 1.933 . S
O121 C132 1.226 . S
O122 Zn120 1.932 . S
O122 C132 1.307 . S
O123 Zn116 1.919 . S
O123 C134 1.253 . S
O124 Zn118 1.941 . S
O124 C134 1.283 . S
O125 Zn118 1.965 . S
O125 C133 1.303 . S
O126 Zn119 1.938 . S
O126 C133 1.247 . S
O127 Zn119 1.906 . S
O127 C135 1.304 . S
O128 Zn116 1.924 . S
O128 C136 1.311 . S
O129 Zn120 1.977 . S
O129 C135 1.272 . S
O130 Zn120 1.910 . S
O130 C136 1.231 . S
C131 O115 1.225 . S
C131 O137 1.298 . S
C132 O121 1.226 . S
C132 O122 1.307 . S
C133 O125 1.303 . S
C133 O126 1.247 . S
C134 O123 1.253 . S
C134 O124 1.283 . S
C135 O127 1.304 . S
C135 O129 1.272 . S
C136 O128 1.311 . S
C136 O130 1.231 . S
O137 Zn119 1.953 . S
O137 C131 1.298 . S
O138 Zn139 1.953 . S
O138 C154 1.225 . S
Zn139 O138 1.953 . S
Zn139 O140 1.949 . S
Zn139 O146 1.919 . S
Zn139 O151 1.924 . S
O140 Zn139 1.949 . S
O140 Zn141 1.923 . S
O140 Zn142 1.950 . S
O140 Zn143 1.945 . S
Zn141 O140 1.923 . S
Zn141 O144 1.933 . S
Zn141 O147 1.941 . S
Zn141 O148 1.965 . S
Zn142 O140 1.950 . S
Zn142 O149 1.938 . S
Zn142 O150 1.906 . S
Zn142 O160 1.953 . S
Zn143 O140 1.945 . S
Zn143 O145 1.932 . S
Zn143 O152 1.977 . S
Zn143 O153 1.910 . S
O144 Zn141 1.933 . S
O144 C155 1.226 . S
O145 Zn143 1.932 . S
O145 C155 1.307 . S
O146 Zn139 1.919 . S
O146 C157 1.253 . S
O147 Zn141 1.941 . S
O147 C157 1.283 . S
O148 Zn141 1.965 . S
O148 C156 1.303 . S
O149 Zn142 1.938 . S
O149 C156 1.247 . S
O150 Zn142 1.906 . S
O150 C158 1.304 . S
O151 Zn139 1.924 . S
O151 C159 1.311 . S
O152 Zn143 1.977 . S
O152 C158 1.272 . S
O153 Zn143 1.910 . S
O153 C159 1.231 . S
C154 O138 1.225 . S
C154 O160 1.298 . S
C155 O144 1.226 . S
C155 O145 1.307 . S
C156 O148 1.303 . S
C156 O149 1.247 . S
C157 O146 1.253 . S
C157 O147 1.283 . S
C158 O150 1.304 . S
C158 O152 1.272 . S
C159 O151 1.311 . S
C159 O153 1.231 . S
O160 Zn142 1.953 . S
O160 C154 1.298 . S
O161 Zn162 1.953 . S
O161 C177 1.225 . S
Zn162 O161 1.953 . S
Zn162 O163 1.949 . S
Zn162 O169 1.919 . S
Zn162 O174 1.924 . S
O163 Zn162 1.949 . S
O163 Zn164 1.923 . S
O163 Zn165 1.950 . S
O163 Zn166 1.945 . S
Zn164 O163 1.923 . S
Zn164 O167 1.933 . S
Zn164 O170 1.941 . S
Zn164 O171 1.965 . S
Zn165 O163 1.950 . S
Zn165 O172 1.938 . S
Zn165 O173 1.906 . S
Zn165 O183 1.953 . S
Zn166 O163 1.945 . S
Zn166 O168 1.932 . S
Zn166 O175 1.977 . S
Zn166 O176 1.910 . S
O167 Zn164 1.933 . S
O167 C178 1.226 . S
O168 Zn166 1.932 . S
O168 C178 1.307 . S
O169 Zn162 1.919 . S
O169 C180 1.253 . S
O170 Zn164 1.941 . S
O170 C180 1.283 . S
O171 Zn164 1.965 . S
O171 C179 1.303 . S
O172 Zn165 1.938 . S
O172 C179 1.247 . S
O173 Zn165 1.906 . S
O173 C181 1.304 . S
O174 Zn162 1.924 . S
O174 C182 1.311 . S
O175 Zn166 1.977 . S
O175 C181 1.272 . S
O176 Zn166 1.910 . S
O176 C182 1.231 . S
C177 O161 1.225 . S
C177 O183 1.298 . S
C178 O167 1.226 . S
C178 O168 1.307 . S
C179 O171 1.303 . S
C179 O172 1.247 . S
C180 O169 1.253 . S
C180 O170 1.283 . S
C181 O173 1.304 . S
C181 O175 1.272 . S
C182 O174 1.311 . S
C182 O176 1.231 . S
O183 Zn165 1.953 . S
O183 C177 1.298 . S
O184 Zn185 1.953 . S
O184 C200 1.225 . S
Zn185 O184 1.953 . S
Zn185 O186 1.949 . S
Zn185 O192 1.919 . S
Zn185 O197 1.924 . S
O186 Zn185 1.949 . S
O186 Zn187 1.923 . S
O186 Zn188 1.950 . S
O186 Zn189 1.945 . S
Zn187 O186 1.923 . S
Zn187 O190 1.933 . S
Zn187 O193 1.941 . S
Zn187 O194 1.965 . S
Zn188 O186 1.950 . S
Zn188 O195 1.938 . S
Zn188 O196 1.906 . S
Zn188 O206 1.953 . S
Zn189 O186 1.945 . S
Zn189 O191 1.932 . S
Zn189 O198 1.977 . S
Zn189 O199 1.910 . S
O190 Zn187 1.933 . S
O190 C201 1.226 . S
O191 Zn189 1.932 . S
O191 C201 1.307 . S
O192 Zn185 1.919 . S
O192 C203 1.253 . S
O193 Zn187 1.941 . S
O193 C203 1.283 . S
O194 Zn187 1.965 . S
O194 C202 1.303 . S
O195 Zn188 1.938 . S
O195 C202 1.247 . S
O196 Zn188 1.906 . S
O196 C204 1.304 . S
O197 Zn185 1.924 . S
O197 C205 1.311 . S
O198 Zn189 1.977 . S
O198 C204 1.272 . S
O199 Zn189 1.910 . S
O199 C205 1.231 . S
C200 O184 1.225 . S
C200 O206 1.298 . S
C201 O190 1.226 . S
C201 O191 1.307 . S
C202 O194 1.303 . S
C202 O195 1.247 . S
C203 O192 1.253 . S
C203 O193 1.283 . S
C204 O196 1.304 . S
C204 O198 1.272 . S
C205 O197 1.311 . S
C205 O199 1.231 . S
O206 Zn188 1.953 . S
O206 C200 1.298 . S
H207 C213 0.930 . S
H208 C217 0.930 . S
H209 C222 0.929 . S
H210 C220 0.929 . S
H211 C215 0.929 . S
H212 C221 0.929 . S
C213 H207 0.930 . S
C213 C214 1.367 . S
C213 C221 1.378 . S
C214 C213 1.367 . S
C214 C222 1.433 . S
C215 H211 0.929 . S
C215 C217 1.378 . S
C215 C219 1.350 . S
C216 C219 1.463 . S
C216 C221 1.350 . S
C216 N224 1.427 . S
C217 H208 0.930 . S
C217 C215 1.378 . S
C217 C218 1.367 . S
C218 C217 1.367 . S
C218 C220 1.433 . S
C219 C215 1.350 . S
C219 C216 1.463 . S
C219 N223 1.427 . S
C220 H210 0.929 . S
C220 C218 1.433 . S
C220 N223 1.384 . S
C221 H212 0.929 . S
C221 C213 1.378 . S
C221 C216 1.350 . S
C222 H209 0.929 . S
C222 C214 1.433 . S
C222 N224 1.384 . S
N223 C219 1.427 . S
N223 C220 1.384 . S
N224 C216 1.427 . S
N224 C222 1.384 . S
H225 C231 0.930 . S
H226 C235 0.930 . S
H227 C240 0.929 1_554 S
H228 C238 0.929 . S
H229 C233 0.929 . S
H230 C239 0.929 . S
C231 H225 0.930 . S
C231 C232 1.367 . S
C231 C239 1.378 . S
C232 C231 1.367 . S
C232 C240 1.433 . S
C233 H229 0.929 . S
C233 C235 1.378 . S
C233 C237 1.350 . S
C234 C237 1.463 . S
C234 C239 1.350 . S
C234 N242 1.427 . S
C235 H226 0.930 . S
C235 C233 1.378 . S
C235 C236 1.367 . S
C236 C235 1.367 . S
C236 C238 1.433 . S
C237 C233 1.350 . S
C237 C234 1.463 . S
C237 N241 1.427 . S
C238 H228 0.929 . S
C238 C236 1.433 . S
C238 N241 1.384 . S
C239 H230 0.929 . S
C239 C231 1.378 . S
C239 C234 1.350 . S
C240 H227 0.929 1_556 S
C240 C232 1.433 . S
C240 N242 1.384 . S
N241 C237 1.427 . S
N241 C238 1.384 . S
N242 C234 1.427 . S
N242 C240 1.384 . S
H243 C249 0.930 . S
H244 C253 0.930 . S
H245 C258 0.929 . S
H246 C256 0.929 . S
H247 C251 0.929 . S
H248 C257 0.929 . S
C249 H243 0.930 . S
C249 C250 1.367 . S
C249 C257 1.378 . S
C250 C249 1.367 . S
C250 C258 1.433 . S
C251 H247 0.929 . S
C251 C253 1.378 . S
C251 C255 1.350 . S
C252 C255 1.463 . S
C252 C257 1.350 . S
C252 N260 1.427 . S
C253 H244 0.930 . S
C253 C251 1.378 . S
C253 C254 1.367 . S
C254 C253 1.367 . S
C254 C256 1.433 . S
C255 C251 1.350 . S
C255 C252 1.463 . S
C255 N259 1.427 . S
C256 H246 0.929 . S
C256 C254 1.433 . S
C256 N259 1.384 . S
C257 H248 0.929 . S
C257 C249 1.378 . S
C257 C252 1.350 . S
C258 H245 0.929 . S
C258 C250 1.433 . S
C258 N260 1.384 . S
N259 C255 1.427 . S
N259 C256 1.384 . S
N260 C252 1.427 . S
N260 C258 1.384 . S
H261 C267 0.930 . S
H262 C271 0.930 1_556 S
H263 C276 0.929 . S
H264 C274 0.929 . S
H265 C269 0.929 . S
H266 C275 0.929 . S
C267 H261 0.930 . S
C267 C268 1.367 . S
C267 C275 1.378 . S
C268 C267 1.367 . S
C268 C276 1.433 . S
C269 H265 0.929 . S
C269 C271 1.378 . S
C269 C273 1.350 . S
C270 C273 1.463 . S
C270 C275 1.350 . S
C270 N278 1.427 . S
C271 H262 0.930 1_554 S
C271 C269 1.378 . S
C271 C272 1.367 . S
C272 C271 1.367 . S
C272 C274 1.433 . S
C273 C269 1.350 . S
C273 C270 1.463 . S
C273 N277 1.427 . S
C274 H264 0.929 . S
C274 C272 1.433 . S
C274 N277 1.384 . S
C275 H266 0.929 . S
C275 C267 1.378 . S
C275 C270 1.350 . S
C276 H263 0.929 . S
C276 C268 1.433 . S
C276 N278 1.384 . S
N277 C273 1.427 . S
N277 C274 1.384 . S
N278 C270 1.427 . S
N278 C276 1.384 . S
H279 C285 0.930 . S
H280 C289 0.930 . S
H281 C294 0.929 . S
H282 C292 0.929 1_556 S
H283 C287 0.929 . S
H284 C293 0.929 . S
C285 H279 0.930 . S
C285 C286 1.367 . S
C285 C293 1.378 . S
C286 C285 1.367 . S
C286 C294 1.433 . S
C287 H283 0.929 . S
C287 C289 1.378 . S
C287 C291 1.350 . S
C288 C291 1.463 . S
C288 C293 1.350 . S
C288 N296 1.427 . S
C289 H280 0.930 . S
C289 C287 1.378 . S
C289 C290 1.367 . S
C290 C289 1.367 . S
C290 C292 1.433 . S
C291 C287 1.350 . S
C291 C288 1.463 . S
C291 N295 1.427 . S
C292 H282 0.929 1_554 S
C292 C290 1.433 . S
C292 N295 1.384 . S
C293 H284 0.929 . S
C293 C285 1.378 . S
C293 C288 1.350 . S
C294 H281 0.929 . S
C294 C286 1.433 . S
C294 N296 1.384 . S
N295 C291 1.427 . S
N295 C292 1.384 . S
N296 C288 1.427 . S
N296 C294 1.384 . S
H297 C303 0.930 . S
H298 C307 0.930 . S
H299 C312 0.929 . S
H300 C310 0.929 . S
H301 C305 0.929 . S
H302 C311 0.929 . S
C303 H297 0.930 . S
C303 C304 1.367 . S
C303 C311 1.378 . S
C304 C303 1.367 . S
C304 C312 1.433 . S
C305 H301 0.929 . S
C305 C307 1.378 . S
C305 C309 1.350 . S
C306 C309 1.463 . S
C306 C311 1.350 . S
C306 N314 1.427 . S
C307 H298 0.930 . S
C307 C305 1.378 . S
C307 C308 1.367 . S
C308 C307 1.367 . S
C308 C310 1.433 . S
C309 C305 1.350 . S
C309 C306 1.463 . S
C309 N313 1.427 . S
C310 H300 0.929 . S
C310 C308 1.433 . S
C310 N313 1.384 . S
C311 H302 0.929 . S
C311 C303 1.378 . S
C311 C306 1.350 . S
C312 H299 0.929 . S
C312 C304 1.433 . S
C312 N314 1.384 . S
N313 C309 1.427 . S
N313 C310 1.384 . S
N314 C306 1.427 . S
N314 C312 1.384 . S
H315 C321 0.930 . S
H316 C325 0.930 . S
H317 C330 0.929 . S
H318 C328 0.929 . S
H319 C323 0.929 1_455 S
H320 C329 0.929 . S
C321 H315 0.930 . S
C321 C322 1.367 . S
C321 C329 1.378 . S
C322 C321 1.367 . S
C322 C330 1.433 . S
C323 H319 0.929 1_655 S
C323 C325 1.378 . S
C323 C327 1.350 . S
C324 C327 1.463 1_455 S
C324 C329 1.350 . S
C324 N332 1.427 . S
C325 H316 0.930 . S
C325 C323 1.378 . S
C325 C326 1.367 . S
C326 C325 1.367 . S
C326 C328 1.433 . S
C327 C323 1.350 . S
C327 C324 1.463 1_655 S
C327 N331 1.427 . S
C328 H318 0.929 . S
C328 C326 1.433 . S
C328 N331 1.384 . S
C329 H320 0.929 . S
C329 C321 1.378 . S
C329 C324 1.350 . S
C330 H317 0.929 . S
C330 C322 1.433 . S
C330 N332 1.384 . S
N331 C327 1.427 . S
N331 C328 1.384 . S
N332 C324 1.427 . S
N332 C330 1.384 . S
H333 C339 0.930 . S
H334 C343 0.930 . S
H335 C348 0.929 . S
H336 C346 0.929 . S
H337 C341 0.929 . S
H338 C347 0.929 . S
C339 H333 0.930 . S
C339 C340 1.367 . S
C339 C347 1.378 . S
C340 C339 1.367 . S
C340 C348 1.433 . S
C341 H337 0.929 . S
C341 C343 1.378 . S
C341 C345 1.350 . S
C342 C345 1.463 . S
C342 C347 1.350 . S
C342 N350 1.427 . S
C343 H334 0.930 . S
C343 C341 1.378 . S
C343 C344 1.367 . S
C344 C343 1.367 . S
C344 C346 1.433 . S
C345 C341 1.350 . S
C345 C342 1.463 . S
C345 N349 1.427 . S
C346 H336 0.929 . S
C346 C344 1.433 . S
C346 N349 1.384 . S
C347 H338 0.929 . S
C347 C339 1.378 . S
C347 C342 1.350 . S
C348 H335 0.929 . S
C348 C340 1.433 . S
C348 N350 1.384 . S
N349 C345 1.427 . S
N349 C346 1.384 . S
N350 C342 1.427 . S
N350 C348 1.384 . S
H351 C357 0.930 . S
H352 C361 0.930 . S
H353 C366 0.929 . S
H354 C364 0.929 . S
H355 C359 0.929 . S
H356 C365 0.929 . S
C357 H351 0.930 . S
C357 C358 1.367 . S
C357 C365 1.378 . S
C358 C357 1.367 . S
C358 C366 1.433 . S
C359 H355 0.929 . S
C359 C361 1.378 . S
C359 C363 1.350 . S
C360 C363 1.463 1_545 S
C360 C365 1.350 . S
C360 N368 1.427 . S
C361 H352 0.930 . S
C361 C359 1.378 . S
C361 C362 1.367 . S
C362 C361 1.367 . S
C362 C364 1.433 . S
C363 C359 1.350 . S
C363 C360 1.463 1_565 S
C363 N367 1.427 . S
C364 H354 0.929 . S
C364 C362 1.433 . S
C364 N367 1.384 . S
C365 H356 0.929 . S
C365 C357 1.378 . S
C365 C360 1.350 . S
C366 H353 0.929 . S
C366 C358 1.433 . S
C366 N368 1.384 . S
N367 C363 1.427 . S
N367 C364 1.384 . S
N368 C360 1.427 . S
N368 C366 1.384 . S
H369 C375 0.930 . S
H370 C379 0.930 . S
H371 C384 0.929 . S
H372 C382 0.929 . S
H373 C377 0.929 . S
H374 C383 0.929 . S
C375 H369 0.930 . S
C375 C376 1.367 1_554 S
C375 C383 1.378 . S
C376 C375 1.367 1_556 S
C376 C384 1.433 . S
C377 H373 0.929 . S
C377 C379 1.378 . S
C377 C381 1.350 1_556 S
C378 C381 1.463 . S
C378 C383 1.350 . S
C378 N386 1.427 1_554 S
C379 H370 0.930 . S
C379 C377 1.378 . S
C379 C380 1.367 1_556 S
C380 C379 1.367 1_554 S
C380 C382 1.433 . S
C381 C377 1.350 1_554 S
C381 C378 1.463 . S
C381 N385 1.427 . S
C382 H372 0.929 . S
C382 C380 1.433 . S
C382 N385 1.384 . S
C383 H374 0.929 . S
C383 C375 1.378 . S
C383 C378 1.350 . S
C384 H371 0.929 . S
C384 C376 1.433 . S
C384 N386 1.384 . S
N385 C381 1.427 . S
N385 C382 1.384 . S
N386 C378 1.427 1_556 S
N386 C384 1.384 . S
H387 C393 0.930 . S
H388 C397 0.930 . S
H389 C402 0.929 . S
H390 C400 0.929 . S
H391 C395 0.929 . S
H392 C401 0.929 . S
C393 H387 0.930 . S
C393 C394 1.367 1_556 S
C393 C401 1.378 . S
C394 C393 1.367 1_554 S
C394 C402 1.433 . S
C395 H391 0.929 . S
C395 C397 1.378 . S
C395 C399 1.350 . S
C396 C399 1.463 1_565 S
C396 C401 1.350 1_554 S
C396 N404 1.427 . S
C397 H388 0.930 . S
C397 C395 1.378 . S
C397 C398 1.367 1_554 S
C398 C397 1.367 1_556 S
C398 C400 1.433 . S
C399 C395 1.350 . S
C399 C396 1.463 1_545 S
C399 N403 1.427 1_554 S
C400 H390 0.929 . S
C400 C398 1.433 . S
C400 N403 1.384 . S
C401 H392 0.929 . S
C401 C393 1.378 . S
C401 C396 1.350 1_556 S
C402 H389 0.929 . S
C402 C394 1.433 . S
C402 N404 1.384 . S
N403 C399 1.427 1_556 S
N403 C400 1.384 . S
N404 C396 1.427 . S
N404 C402 1.384 . S
H405 C411 0.930 . S
H406 C415 0.930 . S
H407 C420 0.929 . S
H408 C418 0.929 . S
H409 C413 0.929 . S
H410 C419 0.929 . S
C411 H405 0.930 . S
C411 C412 1.367 1_554 S
C411 C419 1.378 . S
C412 C411 1.367 1_556 S
C412 C420 1.433 . S
C413 H409 0.929 . S
C413 C415 1.378 . S
C413 C417 1.350 1_556 S
C414 C417 1.463 1_655 S
C414 C419 1.350 . S
C414 N422 1.427 1_554 S
C415 H406 0.930 . S
C415 C413 1.378 . S
C415 C416 1.367 1_556 S
C416 C415 1.367 1_554 S
C416 C418 1.433 . S
C417 C413 1.350 1_554 S
C417 C414 1.463 1_455 S
C417 N421 1.427 . S
C418 H408 0.929 . S
C418 C416 1.433 . S
C418 N421 1.384 . S
C419 H410 0.929 . S
C419 C411 1.378 . S
C419 C414 1.350 . S
C420 H407 0.929 . S
C420 C412 1.433 . S
C420 N422 1.384 . S
N421 C417 1.427 . S
N421 C418 1.384 . S
N422 C414 1.427 1_556 S
N422 C420 1.384 . S
H423 C429 0.930 . S
H424 C433 0.930 . S
H425 C438 0.929 . S
H426 C436 0.929 . S
H427 C431 0.929 . S
H428 C437 0.929 . S
C429 H423 0.930 . S
C429 C430 1.367 . S
C429 C437 1.378 . S
C430 C429 1.367 . S
C430 C438 1.433 . S
C431 H427 0.929 . S
C431 C433 1.378 . S
C431 C435 1.350 . S
C432 C435 1.463 . S
C432 C437 1.350 . S
C432 N440 1.427 . S
C433 H424 0.930 . S
C433 C431 1.378 . S
C433 C434 1.367 . S
C434 C433 1.367 . S
C434 C436 1.433 . S
C435 C431 1.350 . S
C435 C432 1.463 . S
C435 N439 1.427 . S
C436 H426 0.929 . S
C436 C434 1.433 . S
C436 N439 1.384 . S
C437 H428 0.929 . S
C437 C429 1.378 . S
C437 C432 1.350 . S
C438 H425 0.929 . S
C438 C430 1.433 . S
C438 N440 1.384 . S
N439 C435 1.427 . S
N439 C436 1.384 . S
N440 C432 1.427 . S
N440 C438 1.384 . S
H441 C447 0.930 . S
H442 C451 0.930 . S
H443 C456 0.929 . S
H444 C454 0.929 . S
H445 C449 0.929 . S
H446 C455 0.929 . S
C447 H441 0.930 . S
C447 C448 1.367 . S
C447 C455 1.378 . S
C448 C447 1.367 . S
C448 C456 1.433 . S
C449 H445 0.929 . S
C449 C451 1.378 . S
C449 C453 1.350 . S
C450 C453 1.463 . S
C450 C455 1.350 . S
C450 N458 1.427 . S
C451 H442 0.930 . S
C451 C449 1.378 . S
C451 C452 1.367 . S
C452 C451 1.367 . S
C452 C454 1.433 . S
C453 C449 1.350 . S
C453 C450 1.463 . S
C453 N457 1.427 . S
C454 H444 0.929 . S
C454 C452 1.433 . S
C454 N457 1.384 . S
C455 H446 0.929 . S
C455 C447 1.378 . S
C455 C450 1.350 . S
C456 H443 0.929 . S
C456 C448 1.433 . S
C456 N458 1.384 . S
N457 C453 1.427 . S
N457 C454 1.384 . S
N458 C450 1.427 . S
N458 C456 1.384 . S
H459 C465 0.930 . S
H460 C469 0.930 . S
H461 C474 0.929 . S
H462 C472 0.929 . S
H463 C467 0.929 . S
H464 C473 0.929 . S
C465 H459 0.930 . S
C465 C466 1.367 . S
C465 C473 1.378 . S
C466 C465 1.367 . S
C466 C474 1.433 . S
C467 H463 0.929 . S
C467 C469 1.378 . S
C467 C471 1.350 . S
C468 C471 1.463 . S
C468 C473 1.350 . S
C468 N476 1.427 . S
C469 H460 0.930 . S
C469 C467 1.378 . S
C469 C470 1.367 . S
C470 C469 1.367 . S
C470 C472 1.433 . S
C471 C467 1.350 . S
C471 C468 1.463 . S
C471 N475 1.427 . S
C472 H462 0.929 . S
C472 C470 1.433 . S
C472 N475 1.384 . S
C473 H464 0.929 . S
C473 C465 1.378 . S
C473 C468 1.350 . S
C474 H461 0.929 . S
C474 C466 1.433 . S
C474 N476 1.384 . S
N475 C471 1.427 . S
N475 C472 1.384 . S
N476 C468 1.427 . S
N476 C474 1.384 . S
H477 C483 0.930 . S
H478 C487 0.930 . S
H479 C492 0.929 . S
H480 C490 0.929 . S
H481 C485 0.929 . S
H482 C491 0.929 . S
C483 H477 0.930 . S
C483 C484 1.367 . S
C483 C491 1.378 . S
C484 C483 1.367 . S
C484 C492 1.433 . S
C485 H481 0.929 . S
C485 C487 1.378 . S
C485 C489 1.350 . S
C486 C489 1.463 . S
C486 C491 1.350 . S
C486 N494 1.427 . S
C487 H478 0.930 . S
C487 C485 1.378 . S
C487 C488 1.367 . S
C488 C487 1.367 . S
C488 C490 1.433 . S
C489 C485 1.350 . S
C489 C486 1.463 . S
C489 N493 1.427 . S
C490 H480 0.929 . S
C490 C488 1.433 . S
C490 N493 1.384 . S
C491 H482 0.929 . S
C491 C483 1.378 . S
C491 C486 1.350 . S
C492 H479 0.929 . S
C492 C484 1.433 . S
C492 N494 1.384 . S
N493 C489 1.427 . S
N493 C490 1.384 . S
N494 C486 1.427 . S
N494 C492 1.384 . S
H495 C501 0.930 . S
H496 C505 0.930 . S
H497 C510 0.929 . S
H498 C508 0.929 . S
H499 C503 0.929 . S
H500 C509 0.929 . S
C501 H495 0.930 . S
C501 C502 1.367 . S
C501 C509 1.378 . S
C502 C501 1.367 . S
C502 C510 1.433 . S
C503 H499 0.929 . S
C503 C505 1.378 . S
C503 C507 1.350 . S
C504 C507 1.463 . S
C504 C509 1.350 . S
C504 N512 1.427 . S
C505 H496 0.930 . S
C505 C503 1.378 . S
C505 C506 1.367 . S
C506 C505 1.367 . S
C506 C508 1.433 . S
C507 C503 1.350 . S
C507 C504 1.463 . S
C507 N511 1.427 . S
C508 H498 0.929 . S
C508 C506 1.433 . S
C508 N511 1.384 . S
C509 H500 0.929 . S
C509 C501 1.378 . S
C509 C504 1.350 . S
C510 H497 0.929 . S
C510 C502 1.433 . S
C510 N512 1.384 . S
N511 C507 1.427 . S
N511 C508 1.384 . S
N512 C504 1.427 . S
N512 C510 1.384 . S
H513 C519 0.930 . S
H514 C523 0.930 . S
H515 C528 0.929 . S
H516 C526 0.929 . S
H517 C521 0.929 . S
H518 C527 0.929 . S
C519 H513 0.930 . S
C519 C520 1.367 . S
C519 C527 1.378 . S
C520 C519 1.367 . S
C520 C528 1.433 . S
C521 H517 0.929 . S
C521 C523 1.378 . S
C521 C525 1.350 . S
C522 C525 1.463 . S
C522 C527 1.350 . S
C522 N530 1.427 . S
C523 H514 0.930 . S
C523 C521 1.378 . S
C523 C524 1.367 . S
C524 C523 1.367 . S
C524 C526 1.433 . S
C525 C521 1.350 . S
C525 C522 1.463 . S
C525 N529 1.427 . S
C526 H516 0.929 . S
C526 C524 1.433 . S
C526 N529 1.384 . S
C527 H518 0.929 . S
C527 C519 1.378 . S
C527 C522 1.350 . S
C528 H515 0.929 . S
C528 C520 1.433 . S
C528 N530 1.384 . S
N529 C525 1.427 . S
N529 C526 1.384 . S
N530 C522 1.427 . S
N530 C528 1.384 . S
H531 C537 0.930 . S
H532 C541 0.930 . S
H533 C546 0.929 . S
H534 C544 0.929 . S
H535 C539 0.929 . S
H536 C545 0.929 . S
C537 H531 0.930 . S
C537 C538 1.366 . S
C537 C545 1.378 . S
C538 C537 1.366 . S
C538 C546 1.434 1_655 S
C539 H535 0.929 . S
C539 C541 1.378 . S
C539 C543 1.350 . S
C540 C543 1.463 . S
C540 C545 1.350 1_455 S
C540 N548 1.427 . S
C541 H532 0.930 . S
C541 C539 1.378 . S
C541 C542 1.367 . S
C542 C541 1.367 . S
C542 C544 1.433 1_455 S
C543 C539 1.350 . S
C543 C540 1.463 . S
C543 N547 1.427 1_455 S
C544 H534 0.929 . S
C544 C542 1.433 1_655 S
C544 N547 1.384 . S
C545 H536 0.929 . S
C545 C537 1.378 . S
C545 C540 1.350 1_655 S
C546 H533 0.929 . S
C546 C538 1.434 1_455 S
C546 N548 1.384 . S
N547 C543 1.427 1_655 S
N547 C544 1.384 . S
N548 C540 1.427 . S
N548 C546 1.384 . S
H549 C555 0.930 . S
H550 C559 0.930 . S
H551 C564 0.929 . S
H552 C562 0.929 . S
H553 C557 0.929 . S
H554 C563 0.929 . S
C555 H549 0.930 . S
C555 C556 1.367 . S
C555 C563 1.378 . S
C556 C555 1.367 . S
C556 C564 1.433 . S
C557 H553 0.929 . S
C557 C559 1.378 . S
C557 C561 1.350 . S
C558 C561 1.463 . S
C558 C563 1.350 . S
C558 N566 1.427 . S
C559 H550 0.930 . S
C559 C557 1.378 . S
C559 C560 1.367 . S
C560 C559 1.367 . S
C560 C562 1.433 . S
C561 C557 1.350 . S
C561 C558 1.463 . S
C561 N565 1.427 . S
C562 H552 0.929 . S
C562 C560 1.433 . S
C562 N565 1.384 . S
C563 H554 0.929 . S
C563 C555 1.378 . S
C563 C558 1.350 . S
C564 H551 0.929 . S
C564 C556 1.433 . S
C564 N566 1.384 . S
N565 C561 1.427 . S
N565 C562 1.384 . S
N566 C558 1.427 . S
N566 C564 1.384 . S
H567 C573 0.925 1_565 S
H568 C577 0.930 . S
H569 C582 0.929 . S
H570 C580 0.929 . S
H571 C575 0.929 . S
H572 C581 0.929 . S
C573 H567 0.925 1_545 S
C573 C574 1.374 . S
C573 C581 1.376 1_545 S
C574 C573 1.374 . S
C574 C582 1.433 . S
C575 H571 0.929 . S
C575 C577 1.378 . S
C575 C579 1.350 . S
C576 C579 1.463 . S
C576 C581 1.350 1_545 S
C576 N584 1.427 . S
C577 H568 0.930 . S
C577 C575 1.378 . S
C577 C578 1.367 . S
C578 C577 1.367 . S
C578 C580 1.433 1_545 S
C579 C575 1.350 . S
C579 C576 1.463 . S
C579 N583 1.427 1_545 S
C580 H570 0.929 . S
C580 C578 1.433 1_565 S
C580 N583 1.384 . S
C581 H572 0.929 . S
C581 C573 1.376 1_565 S
C581 C576 1.350 1_565 S
C582 H569 0.929 . S
C582 C574 1.433 . S
C582 N584 1.384 . S
N583 C579 1.427 1_565 S
N583 C580 1.384 . S
N584 C576 1.427 . S
N584 C582 1.384 . S
H585 C591 0.930 . S
H586 C595 0.930 . S
H587 C600 0.929 . S
H588 C598 0.929 1_554 S
H589 C593 0.929 . S
H590 C599 0.929 . S
C591 H585 0.930 . S
C591 C592 1.367 . S
C591 C599 1.378 . S
C592 C591 1.367 . S
C592 C600 1.433 . S
C593 H589 0.929 . S
C593 C595 1.378 1_556 S
C593 C597 1.350 . S
C594 C597 1.463 . S
C594 C599 1.350 . S
C594 N602 1.427 . S
C595 H586 0.930 . S
C595 C593 1.378 1_554 S
C595 C596 1.367 . S
C596 C595 1.367 . S
C596 C598 1.433 1_554 S
C597 C593 1.350 . S
C597 C594 1.463 . S
C597 N601 1.427 . S
C598 H588 0.929 1_556 S
C598 C596 1.433 1_556 S
C598 N601 1.384 . S
C599 H590 0.929 . S
C599 C591 1.378 . S
C599 C594 1.350 . S
C600 H587 0.929 . S
C600 C592 1.433 . S
C600 N602 1.384 . S
N601 C597 1.427 . S
N601 C598 1.384 . S
N602 C594 1.427 . S
N602 C600 1.384 . S
H603 C609 0.930 . S
H604 C613 0.930 . S
H605 C618 0.929 . S
H606 C616 0.929 1_554 S
H607 C611 0.929 . S
H608 C617 0.929 . S
C609 H603 0.930 . S
C609 C610 1.367 . S
C609 C617 1.378 . S
C610 C609 1.367 . S
C610 C618 1.433 . S
C611 H607 0.929 . S
C611 C613 1.378 1_556 S
C611 C615 1.350 . S
C612 C615 1.463 . S
C612 C617 1.350 . S
C612 N620 1.427 . S
C613 H604 0.930 . S
C613 C611 1.378 1_554 S
C613 C614 1.367 . S
C614 C613 1.367 . S
C614 C616 1.433 1_554 S
C615 C611 1.350 . S
C615 C612 1.463 . S
C615 N619 1.427 . S
C616 H606 0.929 1_556 S
C616 C614 1.433 1_556 S
C616 N619 1.384 . S
C617 H608 0.929 . S
C617 C609 1.378 . S
C617 C612 1.350 . S
C618 H605 0.929 . S
C618 C610 1.433 . S
C618 N620 1.384 . S
N619 C615 1.427 . S
N619 C616 1.384 . S
N620 C612 1.427 . S
N620 C618 1.384 . S
H621 C627 0.930 . S
H622 C631 0.930 1_554 S
H623 C636 0.929 . S
H624 C634 0.929 . S
H625 C629 0.929 . S
H626 C635 0.929 . S
C627 H621 0.930 . S
C627 C628 1.367 . S
C627 C635 1.378 . S
C628 C627 1.367 . S
C628 C636 1.433 . S
C629 H625 0.929 . S
C629 C631 1.378 . S
C629 C633 1.350 . S
C630 C633 1.463 . S
C630 C635 1.350 . S
C630 N638 1.427 . S
C631 H622 0.930 1_556 S
C631 C629 1.378 . S
C631 C632 1.367 1_556 S
C632 C631 1.367 1_554 S
C632 C634 1.433 . S
C633 C629 1.350 . S
C633 C630 1.463 . S
C633 N637 1.427 . S
C634 H624 0.929 . S
C634 C632 1.433 . S
C634 N637 1.384 1_554 S
C635 H626 0.929 . S
C635 C627 1.378 . S
C635 C630 1.350 . S
C636 H623 0.929 . S
C636 C628 1.433 . S
C636 N638 1.384 . S
N637 C633 1.427 . S
N637 C634 1.384 1_556 S
N638 C630 1.427 . S
N638 C636 1.384 . S
H639 C645 0.930 . S
H640 C649 0.930 1_556 S
H641 C654 0.929 . S
H642 C652 0.929 1_556 S
H643 C647 0.929 . S
H644 C653 0.929 . S
C645 H639 0.930 . S
C645 C646 1.367 . S
C645 C653 1.378 . S
C646 C645 1.367 . S
C646 C654 1.433 . S
C647 H643 0.929 . S
C647 C649 1.378 . S
C647 C651 1.350 . S
C648 C651 1.463 . S
C648 C653 1.350 . S
C648 N656 1.427 . S
C649 H640 0.930 1_554 S
C649 C647 1.378 . S
C649 C650 1.367 1_554 S
C650 C649 1.367 1_556 S
C650 C652 1.433 1_556 S
C651 C647 1.350 . S
C651 C648 1.463 . S
C651 N655 1.427 . S
C652 H642 0.929 1_554 S
C652 C650 1.433 1_554 S
C652 N655 1.384 . S
C653 H644 0.929 . S
C653 C645 1.378 . S
C653 C648 1.350 . S
C654 H641 0.929 . S
C654 C646 1.433 . S
C654 N656 1.384 . S
N655 C651 1.427 . S
N655 C652 1.384 . S
N656 C648 1.427 . S
N656 C654 1.384 . S
H657 C663 0.930 1_556 S
H658 C667 0.930 . S
H659 C672 0.929 . S
H660 C670 0.929 . S
H661 C665 0.929 . S
H662 C671 0.929 . S
C663 H657 0.930 1_554 S
C663 C664 1.367 1_554 S
C663 C671 1.378 . S
C664 C663 1.367 1_556 S
C664 C672 1.433 . S
C665 H661 0.929 . S
C665 C667 1.378 . S
C665 C669 1.350 . S
C666 C669 1.463 . S
C666 C671 1.350 . S
C666 N674 1.427 . S
C667 H658 0.930 . S
C667 C665 1.378 . S
C667 C668 1.367 . S
C668 C667 1.367 . S
C668 C670 1.433 . S
C669 C665 1.350 . S
C669 C666 1.463 . S
C669 N673 1.427 . S
C670 H660 0.929 . S
C670 C668 1.433 . S
C670 N673 1.384 . S
C671 H662 0.929 . S
C671 C663 1.378 . S
C671 C666 1.350 . S
C672 H659 0.929 . S
C672 C664 1.433 . S
C672 N674 1.384 1_556 S
N673 C669 1.427 . S
N673 C670 1.384 . S
N674 C666 1.427 . S
N674 C672 1.384 1_554 S
H675 C681 0.930 . S
H676 C685 0.930 . S
H677 C690 0.929 . S
H678 C688 0.929 1_556 S
H679 C683 0.929 . S
H680 C689 0.929 . S
C681 H675 0.930 . S
C681 C682 1.367 . S
C681 C689 1.378 . S
C682 C681 1.367 . S
C682 C690 1.433 . S
C683 H679 0.929 . S
C683 C685 1.378 . S
C683 C687 1.350 . S
C684 C687 1.463 . S
C684 C689 1.350 . S
C684 N692 1.427 . S
C685 H676 0.930 . S
C685 C683 1.378 . S
C685 C686 1.367 1_554 S
C686 C685 1.367 1_556 S
C686 C688 1.433 1_556 S
C687 C683 1.350 . S
C687 C684 1.463 . S
C687 N691 1.427 . S
C688 H678 0.929 1_554 S
C688 C686 1.433 1_554 S
C688 N691 1.384 . S
C689 H680 0.929 . S
C689 C681 1.378 . S
C689 C684 1.350 . S
C690 H677 0.929 . S
C690 C682 1.433 . S
C690 N692 1.384 . S
N691 C687 1.427 . S
N691 C688 1.384 . S
N692 C684 1.427 . S
N692 C690 1.384 . S
C214 C18 1.201 . S
C218 C179 1.197 . S
C232 C42 1.161 . S
C236 C203 1.164 . S
C250 C64 1.184 . S
C254 C157 1.168 . S
C268 C111 1.139 . S
C272 C65 1.140 . S
C286 C134 1.154 . S
C290 C19 1.149 . S
C304 C41 1.180 . S
C308 C88 1.171 . S
C322 C180 1.174 . S
C326 C133 1.192 . S
C340 C202 1.211 . S
C344 C87 1.207 . S
C358 C110 1.217 . S
C362 C156 1.214 . S
C376 C67 1.019 1_556 S
C380 C20 1.005 . S
C394 C44 1.024 . S
C398 C21 1.023 1_556 S
C412 C43 1.021 . S
C416 C66 1.006 . S
C430 C90 1.027 . S
C434 C135 1.017 . S
C448 C89 1.023 . S
C452 C113 1.033 . S
C466 C112 1.009 . S
C470 C136 1.023 . S
C484 C205 1.051 . S
C488 C158 1.041 . S
C502 C182 1.043 . S
C506 C159 1.048 . S
C520 C204 1.037 . S
C524 C181 1.022 . S
C538 C16 1.376 1_655 S
C542 C17 1.378 . S
C556 C40 1.371 . S
C560 C39 1.368 . S
C574 C62 1.368 . S
C578 C63 1.370 . S
C592 C85 1.370 . S
C596 C86 1.373 . S
C610 C108 1.369 . S
C614 C109 1.372 . S
C628 C131 1.374 . S
C632 C132 1.376 . S
C646 C154 1.372 . S
C650 C155 1.375 . S
C664 C177 1.378 . S
C668 C178 1.380 . S
C682 C200 1.376 . S
C686 C201 1.377 . S
