# Generated by pormake.
# Topology smm, (6)-cn, num edge types: 1
# Building blocks:
#     Node 0, Type 0, BuildingBlock: BETDIP_clean_sbu_0, # of connection points: 6
#     Node 1, Type 0, BuildingBlock: BETDIP_clean_sbu_0, # of connection points: 6
#     Node 2, Type 0, BuildingBlock: BETDIP_clean_sbu_0, # of connection points: 6
#     Node 3, Type 0, BuildingBlock: BETDIP_clean_sbu_0, # of connection points: 6
#     Node 4, Type 0, BuildingBlock: BETDIP_clean_sbu_0, # of connection points: 6
#     Node 5, Type 0, BuildingBlock: BETDIP_clean_sbu_0, # of connection points: 6
#     Node 6, Type 0, BuildingBlock: BETDIP_clean_sbu_0, # of connection points: 6
#     Node 7, Type 0, BuildingBlock: BETDIP_clean_sbu_0, # of connection points: 6
#     Node 8, Type 0, BuildingBlock: BETDIP_clean_sbu_0, # of connection points: 6
#     Edge 9, Type (0, 0), BuildingBlock: OJICUG_clean_linker_0, # of connection points: 2
#     Edge 10, Type (0, 0), BuildingBlock: OJICUG_clean_linker_0, # of connection points: 2
#     Edge 11, Type (0, 0), BuildingBlock: OJICUG_clean_linker_0, # of connection points: 2
#     Edge 12, Type (0, 0), BuildingBlock: OJICUG_clean_linker_0, # of connection points: 2
#     Edge 13, Type (0, 0), BuildingBlock: OJICUG_clean_linker_0, # of connection points: 2
#     Edge 14, Type (0, 0), BuildingBlock: OJICUG_clean_linker_0, # of connection points: 2
#     Edge 15, Type (0, 0), BuildingBlock: OJICUG_clean_linker_0, # of connection points: 2
#     Edge 16, Type (0, 0), BuildingBlock: OJICUG_clean_linker_0, # of connection points: 2
#     Edge 17, Type (0, 0), BuildingBlock: OJICUG_clean_linker_0, # of connection points: 2
#     Edge 18, Type (0, 0), BuildingBlock: OJICUG_clean_linker_0, # of connection points: 2
#     Edge 19, Type (0, 0), BuildingBlock: OJICUG_clean_linker_0, # of connection points: 2
#     Edge 20, Type (0, 0), BuildingBlock: OJICUG_clean_linker_0, # of connection points: 2
#     Edge 21, Type (0, 0), BuildingBlock: OJICUG_clean_linker_0, # of connection points: 2
#     Edge 22, Type (0, 0), BuildingBlock: OJICUG_clean_linker_0, # of connection points: 2
#     Edge 23, Type (0, 0), BuildingBlock: OJICUG_clean_linker_0, # of connection points: 2
#     Edge 24, Type (0, 0), BuildingBlock: OJICUG_clean_linker_0, # of connection points: 2
#     Edge 25, Type (0, 0), BuildingBlock: OJICUG_clean_linker_0, # of connection points: 2
#     Edge 26, Type (0, 0), BuildingBlock: OJICUG_clean_linker_0, # of connection points: 2
#     Edge 27, Type (0, 0), BuildingBlock: OJICUG_clean_linker_0, # of connection points: 2
#     Edge 28, Type (0, 0), BuildingBlock: OJICUG_clean_linker_0, # of connection points: 2
#     Edge 29, Type (0, 0), BuildingBlock: OJICUG_clean_linker_0, # of connection points: 2
#     Edge 30, Type (0, 0), BuildingBlock: OJICUG_clean_linker_0, # of connection points: 2
#     Edge 31, Type (0, 0), BuildingBlock: OJICUG_clean_linker_0, # of connection points: 2
#     Edge 32, Type (0, 0), BuildingBlock: OJICUG_clean_linker_0, # of connection points: 2
#     Edge 33, Type (0, 0), BuildingBlock: OJICUG_clean_linker_0, # of connection points: 2
#     Edge 34, Type (0, 0), BuildingBlock: OJICUG_clean_linker_0, # of connection points: 2
#     Edge 35, Type (0, 0), BuildingBlock: OJICUG_clean_linker_0, # of connection points: 2
# Relax obj value: 0.030
# Max RMSD: 0.101
# Mean RMSD: 0.101
data_MOF--net-smm--node1-BETDIP_clean_sbu_0--edge1-OJICUG_clean_linker_0
_symmetry_space_group_name_H-M    P1
_symmetry_Int_Tables_number       1
_symmetry_cell_setting            triclinic
loop_
_symmetry_equiv_pos_as_xyz
'x, y, z'
_cell_length_a     56.361692
_cell_length_b     56.32469
_cell_length_c     10.193802
_cell_angle_alpha  89.914841
_cell_angle_beta   90.022035
_cell_angle_gamma 120.07384
loop_
_atom_site_label
_atom_site_type_symbol
_atom_site_fract_x
_atom_site_fract_y
_atom_site_fract_z
_atom_type_partial_charge
Tb0 Tb 1.03061 0.21201 -0.00741 0.0
Tb1 Tb 0.08147 0.20782 0.94966 0.0
C2 C 0.99546 0.2218 0.09223 0.0
C3 C 0.98799 0.24341 0.11015 0.0
C4 C 0.99406 0.25812 0.22863 0.0
C5 C 0.9834 0.27538 0.25485 0.0
C6 C 0.96616 0.2781 0.16378 0.0
C7 C 0.96094 0.26417 0.04332 0.0
C8 C 0.97164 0.24699 0.01699 0.0
C9 C 1.04146 0.20726 0.74542 0.0
C10 C 0.08859 0.26675 0.94709 0.0
C11 C 0.11722 0.19694 0.86921 0.0
C12 C 0.12587 0.17637 0.89292 0.0
C13 C 0.12327 0.15817 0.79244 0.0
C14 C 0.13335 0.14013 0.80908 0.0
C15 C 0.14649 0.14004 0.92633 0.0
C16 C 0.14862 0.15791 0.02777 0.0
C17 C 0.13844 0.17585 0.01139 0.0
C18 C 0.06947 0.21103 0.19742 0.0
C19 C 1.02263 0.15306 0.97022 0.0
O20 O 1.01694 0.22456 0.15558 0.0
O21 O 0.99338 0.21168 0.97437 0.0
O22 O 0.05854 0.22049 0.83386 0.0
O23 O 1.01692 0.19834 0.79088 0.0
O24 O 0.0634 0.25562 -0.00387 0.0
O25 O 0.09835 0.25116 0.90346 0.0
O26 O 0.09363 0.18842 0.81047 0.0
O27 O 0.12129 0.21422 0.96405 0.0
O28 O 0.05295 0.19825 0.10662 0.0
O29 O 0.09411 0.22058 0.15336 0.0
O30 O 0.04858 0.16472 0.93185 0.0
O31 O 1.01211 0.16779 0.01619 0.0
H32 H 1.00622 0.2555 0.30347 0.0
H33 H 0.98766 0.2856 0.34899 0.0
H34 H 0.9481 0.26613 0.97007 0.0
H35 H 0.96629 0.2358 0.92527 0.0
H36 H 0.11395 0.1583 0.69967 0.0
H37 H 0.13161 0.12687 0.7284 0.0
H38 H 0.1583 0.15813 0.11993 0.0
H39 H 0.14085 0.18959 0.091 0.0
Tb40 Tb 0.88409 0.84747 0.00075 0.0
Tb41 Tb 0.88786 0.9025 0.9559 0.0
C42 C 0.87624 0.80355 0.10562 0.0
C43 C 0.85693 0.77403 0.12508 0.0
C44 C 0.86775 0.75734 0.16044 0.0
C45 C 0.8505 0.72943 0.18494 0.0
C46 C 0.82186 0.71737 0.17405 0.0
C47 C 0.81095 0.73423 0.13916 0.0
C48 C 0.82837 0.76238 0.11472 0.0
C49 C 0.88847 0.86275 0.75272 0.0
C50 C 0.82911 0.84989 0.95423 0.0
C51 C 0.89697 0.94839 0.87099 0.0
C52 C 0.91646 0.97791 0.88875 0.0
C53 C 0.9079 0.99668 0.85751 0.0
C54 C 0.92554 1.02482 0.87467 0.0
C55 C 0.95224 0.03487 0.92361 0.0
C56 C 0.96087 1.01595 0.95419 0.0
C57 C 0.94308 0.98768 0.93738 0.0
C58 C 0.88491 0.88744 0.20426 0.0
C59 C 0.9428 0.89916 0.97608 0.0
O60 O 0.87055 0.82093 0.1628 0.0
O61 O 0.88674 0.81162 0.98838 0.0
O62 O 0.87544 0.86673 0.84166 0.0
O63 O 0.89717 0.84694 0.79812 0.0
O64 O 0.84033 0.83586 0.00263 0.0
O65 O 0.84456 0.87541 0.91144 0.0
O66 O 0.90617 0.93371 0.81446 0.0
O67 O 0.88098 0.9357 0.97073 0.0
O68 O 0.89764 0.88372 0.11317 0.0
O69 O 0.87532 0.90248 0.1601 0.0
O70 O 0.93103 0.91326 0.93662 0.0
O71 O 0.92821 0.87399 0.02401 0.0
H72 H 0.88971 0.766 0.17042 0.0
H73 H 0.85969 0.71734 0.2141 0.0
H74 H 0.78902 0.72562 0.129 0.0
H75 H 0.8196 0.77498 0.08807 0.0
H76 H 0.88745 0.98954 0.81967 0.0
H77 H 0.91833 0.03875 0.84805 0.0
H78 H 0.9812 1.02297 -0.00696 0.0
H79 H 0.95003 0.97349 0.96286 0.0
Tb80 Tb 0.24763 0.06432 -0.00692 0.0
Tb81 Tb 0.19275 1.01305 0.94947 0.0
C82 C 0.29248 0.09976 0.09315 0.0
C83 C 0.32159 0.10731 0.11154 0.0
C84 C 0.3302 0.1012 0.23014 0.0
C85 C 0.35814 0.11185 0.25652 0.0
C86 C 0.37814 0.12912 0.16549 0.0
C87 C 0.36946 0.13438 0.04495 0.0
C88 C 0.34157 0.1237 0.01847 0.0
C89 C 0.23227 0.05331 0.74558 0.0
C90 C 0.24491 1.00662 0.94975 0.0
C91 C 0.14672 0.97642 0.86574 0.0
C92 C 0.11733 0.96681 0.88424 0.0
C93 C 0.09823 0.93948 0.85436 0.0
C94 C 0.07022 0.92934 0.87301 0.0
C95 C 0.06063 0.94634 0.9221 0.0
C96 C 0.07987 0.97391 0.95099 0.0
C97 C 0.10802 0.98404 0.93274 0.0
C98 C 0.20778 1.02518 0.19754 0.0
C99 C 0.1963 0.07158 0.96821 0.0
O100 O 0.27374 0.07825 0.15661 0.0
O101 O 0.28446 0.10175 0.975 0.0
O102 O 0.22848 0.03628 0.83446 0.0
O103 O 0.24768 0.07791 0.79091 0.0
O104 O 0.2588 0.03185 -0.00163 0.0
O105 O 0.21957 0.99662 0.90538 0.0
O106 O 0.16161 1.00021 0.80812 0.0
O107 O 0.1593 0.97306 0.96561 0.0
O108 O 0.21146 0.04166 0.10642 0.0
O109 O 0.19286 1.00049 0.15356 0.0
O110 O 0.18224 0.04561 0.92975 0.0
O111 O 0.22152 0.08235 0.01535 0.0
H112 H 0.3154 0.089 0.30493 0.0
H113 H 0.36408 0.10755 0.35072 0.0
H114 H 0.38429 0.14725 0.97172 0.0
H115 H 0.33576 0.12907 0.92664 0.0
H116 H 0.10501 0.92589 0.81665 0.0
H117 H 0.05601 0.90817 0.84767 0.0
H118 H 0.0732 0.98749 0.98983 0.0
H119 H 0.12248 1.00519 0.95718 0.0
Tb120 Tb 0.69738 0.54546 0.32379 0.0
Tb121 Tb 0.74823 0.54114 0.28 0.0
C122 C 0.66151 0.55341 0.42874 0.0
C123 C 0.65113 0.57249 0.449 0.0
C124 C 0.62364 0.56136 0.48547 0.0
C125 C 0.61281 0.57837 0.51113 0.0
C126 C 0.62922 0.60705 0.5003 0.0
C127 C 0.65697 0.61827 0.46418 0.0
C128 C 0.66786 0.60109 0.43858 0.0
C129 C 0.70806 0.54072 0.07607 0.0
C130 C 0.75516 0.60014 0.27512 0.0
C131 C 0.78418 0.53056 0.19953 0.0
C132 C 0.79314 0.51024 0.22369 0.0
C133 C 0.79017 0.49164 0.12453 0.0
C134 C 0.80042 0.47377 0.1415 0.0
C135 C 0.81412 0.47423 0.25774 0.0
C136 C 0.81669 0.49254 0.35781 0.0
C137 C 0.80633 0.51032 0.34109 0.0
C138 C 0.73623 0.5443 0.52804 0.0
C139 C 0.68962 0.48647 0.3004 0.0
O140 O 0.68465 0.55921 0.48552 0.0
O141 O 0.65897 0.54296 0.31144 0.0
O142 O 0.72516 0.55372 0.16473 0.0
O143 O 0.6836 0.53231 0.1214 0.0
O144 O 0.72998 0.58923 0.32439 0.0
O145 O 0.76483 0.58438 0.2327 0.0
O146 O 0.76049 0.52174 0.14138 0.0
O147 O 0.78821 0.54794 0.2938 0.0
O148 O 0.71973 0.53162 0.43704 0.0
O149 O 0.76085 0.55376 0.48401 0.0
O150 O 0.71546 0.49809 0.26079 0.0
O151 O 0.67928 0.50125 0.34793 0.0
H152 H 0.61049 0.53935 0.49552 0.0
H153 H 0.59156 0.56896 0.5412 0.0
H154 H 0.67013 0.64024 0.45404 0.0
H155 H 0.68922 0.61008 0.41107 0.0
H156 H 0.78037 0.49131 0.03252 0.0
H157 H 0.79835 0.46016 0.0618 0.0
H158 H 0.82681 0.4932 0.4492 0.0
H159 H 0.80907 0.5244 0.41962 0.0
Tb160 Tb 0.54965 0.18101 0.32626 0.0
Tb161 Tb 0.55355 0.23602 0.28204 0.0
C162 C 0.54019 0.13615 0.42696 0.0
C163 C 0.51873 0.10697 0.44609 0.0
C164 C 0.50395 0.09838 0.56456 0.0
C165 C 0.48681 0.07042 0.59189 0.0
C166 C 0.48427 0.05035 0.502 0.0
C167 C 0.4983 0.05901 0.3816 0.0
C168 C 0.51536 0.08692 0.35417 0.0
C169 C 0.55414 0.19646 0.07867 0.0
C170 C 0.49478 0.18383 0.2818 0.0
C171 C 0.563 0.28208 0.19793 0.0
C172 C 0.58265 0.31154 0.21629 0.0
C173 C 0.57417 0.33047 0.18706 0.0
C174 C 0.59197 0.35855 0.20486 0.0
C175 C 0.61873 0.3684 0.25244 0.0
C176 C 0.62727 0.34934 0.28102 0.0
C177 C 0.60933 0.32111 0.26358 0.0
C178 C 0.55055 0.22093 0.53024 0.0
C179 C 0.60841 0.23236 0.30135 0.0
O180 O 0.5374 0.15486 0.49002 0.0
O181 O 0.55015 0.14415 0.30868 0.0
O182 O 0.54094 0.20027 0.16735 0.0
O183 O 0.56319 0.18096 0.12426 0.0
O184 O 0.50601 0.16986 0.33078 0.0
O185 O 0.51026 0.20921 0.2375 0.0
O186 O 0.57205 0.26731 0.14103 0.0
O187 O 0.54694 0.2694 0.29746 0.0
O188 O 0.56331 0.21721 0.43927 0.0
O189 O 0.54092 0.23593 0.48604 0.0
O190 O 0.59662 0.2465 0.26268 0.0
O191 O 0.59385 0.20711 0.34855 0.0
H192 H 0.5064 0.11323 0.63855 0.0
H193 H 0.47653 0.06452 0.68599 0.0
H194 H 0.49649 0.04414 0.30918 0.0
H195 H 0.5266 0.09271 0.26253 0.0
H196 H 0.55368 0.32349 0.1503 0.0
H197 H 0.58482 0.37261 0.17978 0.0
H198 H 0.64766 0.35619 0.31879 0.0
H199 H 0.61623 0.3068 0.28753 0.0
Tb200 Tb 0.91474 0.39787 0.32563 0.0
Tb201 Tb 0.85968 0.34682 0.28276 0.0
C202 C 0.95971 0.43309 0.42552 0.0
C203 C 0.9888 0.44058 0.44398 0.0
C204 C 0.99737 0.43445 0.56265 0.0
C205 C 1.0253 0.44514 0.58934 0.0
C206 C 0.04534 0.46247 0.49856 0.0
C207 C 1.03669 0.46773 0.3779 0.0
C208 C 1.00881 0.45701 0.35111 0.0
C209 C 0.89918 0.38697 0.07841 0.0
C210 C 0.91152 0.33993 0.2808 0.0
C211 C 0.81295 0.31098 0.20289 0.0
C212 C 0.78372 0.30237 0.22649 0.0
C213 C 0.7682 0.30522 0.12629 0.0
C214 C 0.74009 0.29521 0.14286 0.0
C215 C 0.72676 0.28188 0.25975 0.0
C216 C 0.74242 0.27948 0.36091 0.0
C217 C 0.77054 0.28959 0.34459 0.0
C218 C 0.87488 0.35892 0.53053 0.0
C219 C 0.86375 0.40561 0.30121 0.0
O220 O 0.94092 0.41161 0.48894 0.0
O221 O 0.95172 0.43515 0.30741 0.0
O222 O 0.89533 0.3699 0.16707 0.0
O223 O 0.91478 0.41154 0.1237 0.0
O224 O 0.92557 0.36514 0.32971 0.0
O225 O 0.88616 0.33008 0.23696 0.0
O226 O 0.82808 0.33452 0.14349 0.0
O227 O 0.82616 0.30698 0.29806 0.0
O228 O 0.8786 0.37543 0.43947 0.0
O229 O 0.85984 0.33425 0.48669 0.0
O230 O 0.84956 0.37965 0.26295 0.0
O231 O 0.88896 0.41626 0.34819 0.0
H232 H 0.98254 0.42224 0.63729 0.0
H233 H 1.03121 0.44084 0.68361 0.0
H234 H 0.05155 0.48064 0.30486 0.0
H235 H 1.00304 0.46241 0.25925 0.0
H236 H 0.77771 0.3147 0.03378 0.0
H237 H 0.72862 0.29715 0.06236 0.0
H238 H 0.7329 0.26965 0.45282 0.0
H239 H 0.78181 0.28697 0.42397 0.0
Tb240 Tb 0.36452 0.87892 0.66835 0.0
Tb241 Tb 0.41544 0.87482 0.62533 0.0
C242 C 0.32939 0.8887 0.76839 0.0
C243 C 0.32186 0.91029 0.78539 0.0
C244 C 0.32765 0.92492 0.90401 0.0
C245 C 0.31696 0.94219 0.92925 0.0
C246 C 0.29996 0.94499 0.83701 0.0
C247 C 0.29503 0.93115 0.71645 0.0
C248 C 0.30577 0.91396 0.69109 0.0
C249 C 0.37537 0.87423 0.42112 0.0
C250 C 0.42241 0.93372 0.62242 0.0
C251 C 0.45145 0.86431 0.54474 0.0
C252 C 0.46048 0.84399 0.56715 0.0
C253 C 0.45621 0.82462 0.4697 0.0
C254 C 0.46666 0.80686 0.48439 0.0
C255 C 0.48186 0.80818 0.59654 0.0
C256 C 0.48574 0.82728 0.69499 0.0
C257 C 0.47521 0.84497 0.68051 0.0
C258 C 0.4034 0.87799 0.87312 0.0
C259 C 0.35663 0.82001 0.64543 0.0
O260 O 0.35103 0.89171 0.83119 0.0
O261 O 0.32714 0.8783 0.65104 0.0
O262 O 0.39245 0.88744 0.50962 0.0
O263 O 0.35083 0.86534 0.46655 0.0
O264 O 0.39721 0.92257 0.67135 0.0
O265 O 0.43222 0.91814 0.57912 0.0
O266 O 0.42785 0.8557 0.48592 0.0
O267 O 0.45531 0.88138 0.64031 0.0
O268 O 0.38689 0.8652 0.78229 0.0
O269 O 0.42804 0.88758 0.82907 0.0
O270 O 0.38259 0.8317 0.60704 0.0
O271 O 0.34611 0.83472 0.69178 0.0
H272 H 0.33961 0.92223 0.97968 0.0
H273 H 0.32099 0.95234 0.02349 0.0
H274 H 0.28238 0.93318 0.64235 0.0
H275 H 0.30065 0.90286 0.59918 0.0
H276 H 0.44527 0.8236 0.38055 0.0
H277 H 0.46355 0.79265 0.40588 0.0
H278 H 0.49702 0.82863 0.78335 0.0
H279 H 0.47905 0.85971 0.75745 0.0
Tb280 Tb 0.21676 0.51456 0.66198 0.0
Tb281 Tb 0.22065 0.5696 0.61815 0.0
C282 C 0.20715 0.46961 0.76222 0.0
C283 C 0.18563 0.44039 0.77981 0.0
C284 C 0.17091 0.43152 0.89833 0.0
C285 C 0.15366 0.40351 0.924 0.0
C286 C 0.15095 0.38365 0.83234 0.0
C287 C 0.16493 0.39259 0.71196 0.0
C288 C 0.1821 0.42057 0.68618 0.0
C289 C 0.22131 0.53008 0.41452 0.0
C290 C 0.16189 0.51739 0.61688 0.0
C291 C 0.2302 0.61575 0.53482 0.0
C292 C 0.24984 0.64519 0.55425 0.0
C293 C 0.24151 0.66419 0.52414 0.0
C294 C 0.25927 0.69225 0.54315 0.0
C295 C 0.28587 0.702 0.59284 0.0
C296 C 0.29427 0.68285 0.62224 0.0
C297 C 0.27636 0.65466 0.60361 0.0
C298 C 0.21756 0.5544 0.86618 0.0
C299 C 0.27551 0.56593 0.63758 0.0
O300 O 0.20415 0.48822 0.82512 0.0
O301 O 0.21744 0.4778 0.64461 0.0
O302 O 0.2081 0.5339 0.50318 0.0
O303 O 0.23029 0.51452 0.46001 0.0
O304 O 0.17311 0.50341 0.66586 0.0
O305 O 0.17738 0.54279 0.57294 0.0
O306 O 0.23932 0.60104 0.47796 0.0
O307 O 0.21399 0.60294 0.6337 0.0
O308 O 0.23035 0.55072 0.77526 0.0
O309 O 0.20795 0.56942 0.82205 0.0
O310 O 0.26371 0.58007 0.59901 0.0
O311 O 0.26095 0.54066 0.68463 0.0
H312 H 0.17349 0.4462 0.97356 0.0
H313 H 0.14342 0.39739 0.01812 0.0
H314 H 0.16299 0.3779 0.63823 0.0
H315 H 0.19329 0.42657 0.5944 0.0
H316 H 0.22114 0.65729 0.48581 0.0
H317 H 0.25224 0.70636 0.51739 0.0
H318 H 0.31452 0.68963 0.66161 0.0
H319 H 0.28313 0.64029 0.6283 0.0
Tb320 Tb 0.58231 0.73118 0.65347 0.0
Tb321 Tb 0.52688 0.68047 0.61129 0.0
C322 C 0.62739 0.76604 0.75375 0.0
C323 C 0.65639 0.77329 0.77317 0.0
C324 C 0.6647 0.76698 0.89216 0.0
C325 C 0.69256 0.77755 0.92002 0.0
C326 C 0.7128 0.79492 0.83013 0.0
C327 C 0.70441 0.80033 0.70907 0.0
C328 C 0.6766 0.78973 0.6811 0.0
C329 C 0.56644 0.7205 0.4066 0.0
C330 C 0.57842 0.67303 0.6058 0.0
C331 C 0.47996 0.64484 0.53251 0.0
C332 C 0.45077 0.63617 0.55783 0.0
C333 C 0.43524 0.63981 0.46037 0.0
C334 C 0.40714 0.62973 0.47816 0.0
C335 C 0.39384 0.61555 0.59355 0.0
C336 C 0.40952 0.61236 0.69205 0.0
C337 C 0.43762 0.62253 0.67449 0.0
C338 C 0.54239 0.69245 0.85876 0.0
C339 C 0.53157 0.73949 0.63079 0.0
O340 O 0.60841 0.74467 0.81706 0.0
O341 O 0.61958 0.76818 0.63534 0.0
O342 O 0.56247 0.70335 0.49505 0.0
O343 O 0.58238 0.74501 0.4518 0.0
O344 O 0.59276 0.69813 0.65568 0.0
O345 O 0.55305 0.66353 0.56281 0.0
O346 O 0.49501 0.66849 0.47386 0.0
O347 O 0.49334 0.64063 0.62617 0.0
O348 O 0.5462 0.70899 0.76779 0.0
O349 O 0.5271 0.66781 0.81503 0.0
O350 O 0.5171 0.71353 0.59293 0.0
O351 O 0.55688 0.74999 0.67636 0.0
H352 H 0.64972 0.75475 0.96622 0.0
H353 H 0.69827 0.77314 0.01456 0.0
H354 H 0.71943 0.81328 0.63669 0.0
H355 H 0.67102 0.79526 0.58904 0.0
H356 H 0.44471 0.64995 0.36892 0.0
H357 H 0.39567 0.63229 0.39961 0.0
H358 H 0.40004 0.60187 0.78281 0.0
H359 H 0.44889 0.61926 0.7517 0.0
C360 C 0.0946 0.31424 0.95911 0.0
C361 C 0.10478 0.29686 0.9237 0.0
H362 H 0.10095 0.35514 0.95707 0.0
C363 C 0.13034 0.3084 0.86012 0.0
H364 H 0.07497 0.30608 0.00789 0.0
C365 C 0.14514 0.33641 0.83085 0.0
C366 C 0.13487 0.35378 0.86448 0.0
H367 H 0.13894 0.29576 0.8316 0.0
H368 H 0.16483 0.34451 0.78271 0.0
C369 C 0.10952 0.34239 0.93015 0.0
C370 C 0.78764 0.84992 0.86579 0.0
C371 C 0.79908 0.8358 0.92924 0.0
H372 H 0.75177 0.84828 0.78602 0.0
C373 C 0.78174 0.80803 0.96232 0.0
H374 H 0.80025 0.87133 0.83906 0.0
C375 C 0.75372 0.79469 0.93097 0.0
C376 C 0.74248 0.80877 0.86512 0.0
H377 H 0.78983 0.79649 0.01099 0.0
H378 H 0.74097 0.77322 0.95608 0.0
C379 C 0.7598 0.83661 0.8341 0.0
C380 C 0.28659 1.00103 0.96277 0.0
C381 C 0.25898 0.99062 0.92729 0.0
H382 H 0.32131 0.995 0.96116 0.0
C383 C 0.24503 0.965 0.86424 0.0
H384 H 0.29799 1.02072 0.01119 0.0
C385 C 0.25838 0.95039 0.83537 0.0
C386 C 0.28606 0.96089 0.86891 0.0
H387 H 0.22376 0.95622 0.83575 0.0
H388 H 0.24686 0.93065 0.78754 0.0
C389 C 0.29995 0.98628 0.93424 0.0
C390 C 0.44736 0.14214 0.29308 0.0
C391 C 0.4647 0.16983 0.25869 0.0
H392 H 0.40651 0.10744 0.28969 0.0
C393 C 0.45318 0.18395 0.19597 0.0
H394 H 0.45552 0.1306 0.34122 0.0
C395 C 0.42524 0.1707 0.16627 0.0
C396 C 0.40792 0.14293 0.19858 0.0
H397 H 0.46579 0.2053 0.16835 0.0
H398 H 0.41715 0.18236 0.1187 0.0
C399 C 0.41926 0.12886 0.26368 0.0
C400 C 0.91136 0.29822 0.19449 0.0
C401 C 0.92547 0.32385 0.25733 0.0
H402 H 0.91296 0.26381 0.11695 0.0
C403 C 0.95314 0.33423 0.29153 0.0
H404 H 0.89003 0.28947 0.16697 0.0
C405 C 0.9664 0.31943 0.2619 0.0
C406 C 0.95235 0.29403 0.19679 0.0
H407 H 0.96467 0.35392 0.33972 0.0
H408 H 0.98781 0.32813 0.2878 0.0
C409 C 0.92461 0.28356 0.16457 0.0
C410 C 0.77897 0.67666 0.26677 0.0
C411 C 0.8039 0.68728 0.19763 0.0
H412 H 0.74407 0.64089 0.34697 0.0
C413 C 0.81219 0.6689 0.15362 0.0
H414 H 0.77204 0.69023 0.30296 0.0
C415 C 0.79644 0.64088 0.18004 0.0
C416 C 0.77172 0.6302 0.25047 0.0
H417 H 0.83091 0.67615 0.0977 0.0
H418 H 0.8037 0.62756 0.14409 0.0
C419 C 0.76304 0.6484 0.29291 0.0
C420 C 0.12031 0.51743 0.53023 0.0
C421 C 0.13183 0.50334 0.59323 0.0
H422 H 0.08429 0.51576 0.45225 0.0
C423 C 0.11452 0.47563 0.62733 0.0
H424 H 0.13289 0.5388 0.50279 0.0
C425 C 0.08644 0.4623 0.59742 0.0
C426 C 0.07509 0.47634 0.53207 0.0
H427 H 0.12268 0.46412 0.67566 0.0
H428 H 0.07372 0.44087 0.62324 0.0
C429 C 0.09238 0.50413 0.50001 0.0
C430 C 0.61883 0.66532 0.62237 0.0
C431 C 0.59186 0.65651 0.58075 0.0
H432 H 0.65183 0.65664 0.6304 0.0
C433 C 0.57777 0.63183 0.51018 0.0
H434 H 0.63032 0.68429 0.6765 0.0
C435 C 0.59015 0.61627 0.48252 0.0
C436 C 0.61694 0.62474 0.52541 0.0
H437 H 0.55712 0.62448 0.47494 0.0
H438 H 0.57866 0.59758 0.42642 0.0
C439 C 0.63125 0.64959 0.59497 0.0
C440 C 0.44295 1.0092 0.60117 0.0
C441 C 0.46836 1.02057 0.53606 0.0
H442 H 0.40846 0.97296 0.67972 0.0
C443 C 0.47883 1.00327 0.5047 0.0
H444 H 0.43423 1.02191 0.62641 0.0
C445 C 0.46416 0.97533 0.53539 0.0
C446 C 0.43852 0.9638 0.59819 0.0
H447 H 0.49858 1.01138 0.45713 0.0
H448 H 0.47291 0.96273 0.50847 0.0
C449 C 0.42816 0.98112 0.63158 0.0
C450 C 0.15698 0.07842 0.90528 0.0
C451 C 0.18314 0.08874 0.96144 0.0
H452 H 0.12481 0.08632 0.85126 0.0
C453 C 0.19682 0.11585 0.00847 0.0
H454 H 0.14579 0.05763 0.86808 0.0
C455 C 0.18478 0.13229 -0.00141 0.0
C456 C 0.15877 0.1221 0.94098 0.0
H457 H 0.217 0.12453 0.05206 0.0
H458 H 0.19614 0.15323 0.03356 0.0
C459 C 0.14498 0.09491 0.8949 0.0
C460 C 0.96054 0.08136 -0.00828 0.0
C461 C 0.9708 0.06499 0.94185 0.0
H462 H 0.96867 0.12169 0.0404 0.0
C463 C 0.99862 0.07777 0.90594 0.0
H464 H 0.93934 0.07218 0.02236 0.0
C465 C 1.01555 0.10628 0.91671 0.0
C466 C 1.00509 0.12268 0.96417 0.0
H467 H 1.00715 0.06583 0.86617 0.0
H468 H 1.03675 0.11546 0.88603 0.0
C469 C 0.97744 0.1098 0.00276 0.0
C470 C 0.98597 0.89725 0.00819 0.0
C471 C 0.97313 0.91202 0.96889 0.0
H472 H 1.02346 0.8966 0.02631 0.0
C473 C 0.98952 0.93875 0.91907 0.0
H474 H 0.9741 0.87669 0.04764 0.0
C475 C 1.01796 0.95018 0.90647 0.0
C476 C 1.03066 0.93509 0.94275 0.0
H477 H 0.98036 0.95074 0.88778 0.0
H478 H 1.0299 0.97053 0.86485 0.0
C479 C 1.01432 0.90863 -0.00474 0.0
C480 C 0.8124 0.42895 0.22919 0.0
C481 C 0.82643 0.45631 0.2728 0.0
H482 H 0.81296 0.3915 0.20469 0.0
C483 C 0.85263 0.46664 0.32842 0.0
H484 H 0.79207 0.42024 0.18724 0.0
C485 C 0.86463 0.45016 0.33873 0.0
C486 C 0.8507 0.42288 0.29409 0.0
H487 H 0.86417 0.48772 0.36149 0.0
H488 H 0.88496 0.45894 0.3807 0.0
C489 C 0.82435 0.41243 0.23993 0.0
C490 C 0.64444 0.4433 0.33441 0.0
C491 C 0.672 0.45611 0.29424 0.0
H492 H 0.60629 0.40576 0.35488 0.0
C493 C 0.68224 0.43966 0.24496 0.0
H494 H 0.63583 0.45523 0.37348 0.0
C495 C 0.66518 0.41117 0.23387 0.0
C496 C 0.63745 0.39847 0.27126 0.0
H497 H 0.70336 0.44879 0.21305 0.0
H498 H 0.67355 0.3992 0.19264 0.0
C499 C 0.62741 0.41489 0.32305 0.0
C500 C 0.65206 0.23163 0.34139 0.0
C501 C 0.63877 0.24546 0.29467 0.0
H502 H 0.69002 0.23212 0.36625 0.0
C503 C 0.65475 0.27168 0.23888 0.0
H504 H 0.64045 0.2114 0.38468 0.0
C505 C 0.68326 0.2836 0.22855 0.0
C506 C 0.69652 0.26967 0.2743 0.0
H507 H 0.64526 0.28298 0.20194 0.0
H508 H 0.69494 0.30383 0.18521 0.0
C509 C 0.68055 0.2436 0.33154 0.0
C510 C 0.49175 0.74619 0.57754 0.0
C511 C 0.51862 0.75687 0.62549 0.0
H512 H 0.45901 0.75378 0.53238 0.0
C513 C 0.53307 0.78442 0.66614 0.0
H514 H 0.47994 0.72505 0.54565 0.0
C515 C 0.52105 0.80092 0.65804 0.0
C516 C 0.49429 0.79032 0.60888 0.0
H517 H 0.55382 0.79338 0.70321 0.0
H518 H 0.53299 0.82218 0.68782 0.0
C519 C 0.47976 0.76271 0.56922 0.0
C520 C 0.29436 0.74839 0.66398 0.0
C521 C 0.30455 0.73203 0.61305 0.0
H522 H 0.30263 0.78866 0.71481 0.0
C523 C 0.33241 0.74478 0.57784 0.0
H524 H 0.27314 0.73923 0.69417 0.0
C525 C 0.34944 0.77325 0.59009 0.0
C526 C 0.33904 0.78965 0.63842 0.0
H527 H 0.34089 0.73286 0.53735 0.0
H528 H 0.37065 0.78242 0.55976 0.0
C529 C 0.31136 0.77678 0.67653 0.0
C530 C 0.35037 0.61753 0.56736 0.0
C531 C 0.36361 0.6033 0.60907 0.0
H532 H 0.3124 0.61712 0.5443 0.0
C533 C 0.34762 0.5769 0.66305 0.0
H534 H 0.36206 0.63801 0.52672 0.0
C535 C 0.31913 0.56492 0.67357 0.0
C536 C 0.30586 0.57904 0.63066 0.0
H537 H 0.35706 0.56518 0.69456 0.0
H538 H 0.30751 0.54444 0.71415 0.0
C539 C 0.32187 0.60558 0.57819 0.0
C540 C 0.07601 0.2222 0.5647 0.0
C541 C 0.0485 0.20765 0.60549 0.0
H542 H 0.10412 0.23485 0.40327 0.0
C543 C 1.02787 0.19405 0.51113 0.0
H544 H 0.09235 0.23288 0.63528 0.0
C545 C 1.03463 0.19511 0.37821 0.0
C546 C 0.06213 0.20993 0.33738 0.0
H547 H 1.0065 0.18264 0.53997 0.0
H548 H 1.01834 0.1843 0.30755 0.0
C549 C 0.08275 0.22338 0.43191 0.0
C550 C 0.87362 0.88251 0.57191 0.0
C551 C 0.88807 0.86946 0.61263 0.0
H552 H 0.86114 0.89818 0.4106 0.0
C553 C 0.90162 0.86243 0.51802 0.0
H554 H 0.86298 0.88817 0.64259 0.0
C555 C 0.90063 0.86825 0.38508 0.0
C556 C 0.88594 0.88107 0.34433 0.0
H557 H 0.91296 0.85241 0.54671 0.0
H558 H 0.91139 0.86276 0.3143 0.0
C559 C 0.87252 0.8882 0.43909 0.0
C560 C 0.23233 0.06682 0.51116 0.0
C561 C 0.22559 0.04622 0.60563 0.0
H562 H 0.23179 0.07631 0.3076 0.0
C563 C 0.21287 1.01872 0.5649 0.0
H564 H 0.24208 0.08818 0.5399 0.0
C565 C 0.20723 1.01196 0.43215 0.0
C566 C 0.21408 0.03255 0.33751 0.0
H567 H 0.20744 1.0024 0.63552 0.0
H568 H 0.19751 0.99059 0.4036 0.0
C569 C 0.22655 0.06004 0.37828 0.0
C570 C 0.74944 0.55642 0.76288 0.0
C571 C 0.72884 0.54324 0.66801 0.0
H572 H 0.759 0.56575 0.96641 0.0
C573 C 0.7013 0.52875 0.70852 0.0
H574 H 0.77084 0.56764 0.73455 0.0
C575 C 0.69449 0.52775 0.8414 0.0
C576 C 0.71512 0.54107 0.9361 0.0
H577 H 0.68501 0.51817 0.63761 0.0
H578 H 0.67311 0.51658 0.86995 0.0
C579 C 0.74266 0.5553 0.89562 0.0
C580 C 0.53798 0.22157 0.76476 0.0
C581 C 0.55161 0.21463 0.67032 0.0
H582 H 0.52827 0.22143 0.96806 0.0
C583 C 0.56653 0.20209 0.71138 0.0
H584 H 0.52641 0.23134 0.73598 0.0
C585 C 0.56753 0.19632 0.84436 0.0
C586 C 0.55376 0.20314 0.93863 0.0
H587 H 0.57749 0.19679 0.64086 0.0
H588 H 0.57905 0.18651 0.87333 0.0
C589 C 0.53909 0.21594 0.89761 0.0
C590 C 0.89377 0.39379 0.71109 0.0
C591 C 0.88112 0.36628 0.67045 0.0
H592 H 0.90941 0.42193 0.87265 0.0
C593 C 0.87402 0.34567 0.76516 0.0
H594 H 0.89921 0.41008 0.64029 0.0
C595 C 0.8796 0.35241 0.89791 0.0
C596 C 0.89251 0.37992 0.93851 0.0
H597 H 0.86415 0.32428 0.73668 0.0
H598 H 0.87397 0.33606 0.96862 0.0
C599 C 0.8995 0.40056 0.84397 0.0
C600 C 0.40992 0.88917 0.24042 0.0
C601 C 0.38242 0.87463 0.28119 0.0
H602 H 0.43804 0.90181 0.07901 0.0
C603 C 0.36178 0.86104 0.1868 0.0
H604 H 0.42626 0.89984 0.31101 0.0
C605 C 0.36855 0.8621 0.05389 0.0
C606 C 0.39605 0.8769 0.01307 0.0
H607 H 0.34042 0.84963 0.21563 0.0
H608 H 0.35226 0.8513 0.98321 0.0
C609 C 0.41666 0.89034 0.10763 0.0
C610 C 0.23351 0.53552 0.04718 0.0
C611 C 0.21865 0.54813 0.00622 0.0
H612 H 0.24603 0.51993 0.20908 0.0
C613 C 0.20511 0.55517 0.10072 0.0
H614 H 0.24438 0.53012 0.97657 0.0
C615 C 0.20627 0.54959 0.23358 0.0
C616 C 0.22089 0.53673 0.2745 0.0
H617 H 0.19359 0.56499 0.072 0.0
H618 H 0.19554 0.55517 0.30411 0.0
C619 C 0.23456 0.5298 0.18016 0.0
C620 C 0.56706 0.73412 0.172 0.0
C621 C 0.5598 0.71347 0.26671 0.0
H622 H 0.56706 0.74364 0.96814 0.0
C623 C 0.54668 0.68593 0.2263 0.0
H624 H 0.57714 0.75551 0.20055 0.0
C625 C 0.54119 0.67918 0.09355 0.0
C626 C 0.54858 0.69981 -0.00134 0.0
H627 H 0.54083 0.66957 0.29715 0.0
H628 H 0.53116 0.65778 0.06522 0.0
C629 C 0.56142 0.72734 0.0391 0.0
loop_
_geom_bond_atom_site_label_1
_geom_bond_atom_site_label_2
_geom_bond_distance
_geom_bond_site_symmetry_2
_ccdc_geom_bond_type
Tb0 C2 2.809 1_556 S
Tb0 O20 2.484 1_556 S
Tb0 O21 2.440 . S
Tb0 O22 2.658 1_655 S
Tb0 O23 2.409 . S
Tb0 O24 2.378 1_655 S
Tb0 O28 2.325 1_656 S
Tb0 O31 2.341 1_556 S
Tb1 C11 2.809 1_554 S
Tb1 O22 2.325 1_554 S
Tb1 O25 2.341 1_554 S
Tb1 O26 2.484 1_554 S
Tb1 O27 2.440 . S
Tb1 O28 2.658 . S
Tb1 O29 2.409 . S
Tb1 O30 2.378 . S
C2 Tb0 2.809 1_554 S
C2 C3 1.514 . S
C2 O20 1.248 . S
C2 O21 1.266 1_554 S
C3 C2 1.514 . S
C3 C4 1.359 . S
C3 C8 1.348 1_554 S
C4 C3 1.359 . S
C4 C5 1.380 . S
C4 H32 0.929 . S
C5 C4 1.380 . S
C5 C6 1.347 . S
C5 H33 0.931 . S
C6 C5 1.347 . S
C6 C7 1.369 1_554 S
C7 C6 1.369 1_556 S
C7 C8 1.408 . S
C7 H34 0.930 . S
C8 C3 1.348 1_556 S
C8 C7 1.408 . S
C8 H35 0.930 . S
C9 O22 1.281 . S
C9 O23 1.254 1_455 S
C10 O24 1.236 . S
C10 O25 1.266 . S
C11 Tb1 2.809 1_556 S
C11 C12 1.514 . S
C11 O26 1.248 . S
C11 O27 1.266 1_556 S
C12 C11 1.514 . S
C12 C13 1.359 . S
C12 C17 1.348 1_556 S
C13 C12 1.359 . S
C13 C14 1.380 . S
C13 H36 0.929 . S
C14 C13 1.380 . S
C14 C15 1.347 . S
C14 H37 0.931 . S
C15 C14 1.347 . S
C15 C16 1.369 1_556 S
C16 C15 1.369 1_554 S
C16 C17 1.408 . S
C16 H38 0.930 . S
C17 C12 1.348 1_554 S
C17 C16 1.408 . S
C17 H39 0.930 . S
C18 O28 1.281 . S
C18 O29 1.254 . S
C19 O30 1.236 1_655 S
C19 O31 1.266 . S
O20 Tb0 2.484 1_554 S
O20 C2 1.248 . S
O21 Tb0 2.440 . S
O21 C2 1.266 1_556 S
O22 Tb0 2.658 1_455 S
O22 Tb1 2.325 1_556 S
O22 C9 1.281 . S
O23 Tb0 2.409 . S
O23 C9 1.254 1_655 S
O24 Tb0 2.378 1_455 S
O24 C10 1.236 . S
O25 Tb1 2.341 1_556 S
O25 C10 1.266 . S
O26 Tb1 2.484 1_556 S
O26 C11 1.248 . S
O27 Tb1 2.440 . S
O27 C11 1.266 1_554 S
O28 Tb0 2.325 1_454 S
O28 Tb1 2.658 . S
O28 C18 1.281 . S
O29 Tb1 2.409 . S
O29 C18 1.254 . S
O30 Tb1 2.378 . S
O30 C19 1.236 1_455 S
O31 Tb0 2.341 1_554 S
O31 C19 1.266 . S
H32 C4 0.929 . S
H33 C5 0.931 . S
H34 C7 0.930 . S
H35 C8 0.930 . S
H36 C13 0.929 . S
H37 C14 0.931 . S
H38 C16 0.930 . S
H39 C17 0.930 . S
Tb40 C42 2.809 1_556 S
Tb40 O60 2.484 1_556 S
Tb40 O61 2.440 . S
Tb40 O62 2.658 . S
Tb40 O63 2.409 . S
Tb40 O64 2.378 . S
Tb40 O68 2.325 1_556 S
Tb40 O71 2.341 1_556 S
Tb41 C51 2.809 1_554 S
Tb41 O62 2.325 1_554 S
Tb41 O65 2.341 1_554 S
Tb41 O66 2.484 1_554 S
Tb41 O67 2.440 . S
Tb41 O68 2.658 . S
Tb41 O69 2.409 . S
Tb41 O70 2.378 . S
C42 Tb40 2.809 1_554 S
C42 C43 1.514 . S
C42 O60 1.248 . S
C42 O61 1.266 1_554 S
C43 C42 1.514 . S
C43 C44 1.359 . S
C43 C48 1.348 1_554 S
C44 C43 1.359 . S
C44 C45 1.380 . S
C44 H72 0.929 . S
C45 C44 1.380 . S
C45 C46 1.347 . S
C45 H73 0.931 . S
C46 C45 1.347 . S
C46 C47 1.369 1_554 S
C47 C46 1.369 1_556 S
C47 C48 1.408 . S
C47 H74 0.930 . S
C48 C43 1.348 1_556 S
C48 C47 1.408 . S
C48 H75 0.930 . S
C49 O62 1.281 . S
C49 O63 1.254 . S
C50 O64 1.236 . S
C50 O65 1.266 . S
C51 Tb41 2.809 1_556 S
C51 C52 1.514 . S
C51 O66 1.248 . S
C51 O67 1.266 1_556 S
C52 C51 1.514 . S
C52 C53 1.359 . S
C52 C57 1.348 1_556 S
C53 C52 1.359 . S
C53 C54 1.380 . S
C53 H76 0.929 . S
C54 C53 1.380 . S
C54 C55 1.347 1_565 S
C54 H77 0.931 . S
C55 C54 1.347 1_545 S
C55 C56 1.369 1_556 S
C56 C55 1.369 1_554 S
C56 C57 1.408 1_545 S
C56 H78 0.930 . S
C57 C52 1.348 1_554 S
C57 C56 1.408 1_565 S
C57 H79 0.930 . S
C58 O68 1.281 . S
C58 O69 1.254 . S
C59 O70 1.236 . S
C59 O71 1.266 . S
O60 Tb40 2.484 1_554 S
O60 C42 1.248 . S
O61 Tb40 2.440 . S
O61 C42 1.266 1_556 S
O62 Tb40 2.658 . S
O62 Tb41 2.325 1_556 S
O62 C49 1.281 . S
O63 Tb40 2.409 . S
O63 C49 1.254 . S
O64 Tb40 2.378 . S
O64 C50 1.236 . S
O65 Tb41 2.341 1_556 S
O65 C50 1.266 . S
O66 Tb41 2.484 1_556 S
O66 C51 1.248 . S
O67 Tb41 2.440 . S
O67 C51 1.266 1_554 S
O68 Tb40 2.325 1_554 S
O68 Tb41 2.658 . S
O68 C58 1.281 . S
O69 Tb41 2.409 . S
O69 C58 1.254 . S
O70 Tb41 2.378 . S
O70 C59 1.236 . S
O71 Tb40 2.341 1_554 S
O71 C59 1.266 . S
H72 C44 0.929 . S
H73 C45 0.931 . S
H74 C47 0.930 . S
H75 C48 0.930 . S
H76 C53 0.929 . S
H77 C54 0.931 . S
H78 C56 0.930 . S
H79 C57 0.930 . S
Tb80 C82 2.809 1_556 S
Tb80 O100 2.484 1_556 S
Tb80 O101 2.440 . S
Tb80 O102 2.658 . S
Tb80 O103 2.409 . S
Tb80 O104 2.378 . S
Tb80 O108 2.325 1_556 S
Tb80 O111 2.341 1_556 S
Tb81 C91 2.809 1_554 S
Tb81 O102 2.325 1_564 S
Tb81 O105 2.341 1_554 S
Tb81 O106 2.484 1_554 S
Tb81 O107 2.440 . S
Tb81 O108 2.658 1_565 S
Tb81 O109 2.409 . S
Tb81 O110 2.378 1_565 S
C82 Tb80 2.809 1_554 S
C82 C83 1.514 . S
C82 O100 1.248 . S
C82 O101 1.266 1_554 S
C83 C82 1.514 . S
C83 C84 1.359 . S
C83 C88 1.348 1_554 S
C84 C83 1.359 . S
C84 C85 1.380 . S
C84 H112 0.929 . S
C85 C84 1.380 . S
C85 C86 1.347 . S
C85 H113 0.931 . S
C86 C85 1.347 . S
C86 C87 1.369 1_554 S
C87 C86 1.369 1_556 S
C87 C88 1.408 . S
C87 H114 0.930 . S
C88 C83 1.348 1_556 S
C88 C87 1.408 . S
C88 H115 0.930 . S
C89 O102 1.281 . S
C89 O103 1.254 . S
C90 O104 1.236 1_565 S
C90 O105 1.266 . S
C91 Tb81 2.809 1_556 S
C91 C92 1.514 . S
C91 O106 1.248 . S
C91 O107 1.266 1_556 S
C92 C91 1.514 . S
C92 C93 1.359 . S
C92 C97 1.348 1_556 S
C93 C92 1.359 . S
C93 C94 1.380 . S
C93 H116 0.929 . S
C94 C93 1.380 . S
C94 C95 1.347 . S
C94 H117 0.931 . S
C95 C94 1.347 . S
C95 C96 1.369 1_556 S
C96 C95 1.369 1_554 S
C96 C97 1.408 . S
C96 H118 0.930 . S
C97 C92 1.348 1_554 S
C97 C96 1.408 . S
C97 H119 0.930 . S
C98 O108 1.281 . S
C98 O109 1.254 1_545 S
C99 O110 1.236 . S
C99 O111 1.266 . S
O100 Tb80 2.484 1_554 S
O100 C82 1.248 . S
O101 Tb80 2.440 . S
O101 C82 1.266 1_556 S
O102 Tb80 2.658 . S
O102 Tb81 2.325 1_546 S
O102 C89 1.281 . S
O103 Tb80 2.409 . S
O103 C89 1.254 . S
O104 Tb80 2.378 . S
O104 C90 1.236 1_545 S
O105 Tb81 2.341 1_556 S
O105 C90 1.266 . S
O106 Tb81 2.484 1_556 S
O106 C91 1.248 . S
O107 Tb81 2.440 . S
O107 C91 1.266 1_554 S
O108 Tb80 2.325 1_554 S
O108 Tb81 2.658 1_545 S
O108 C98 1.281 . S
O109 Tb81 2.409 . S
O109 C98 1.254 1_565 S
O110 Tb81 2.378 1_545 S
O110 C99 1.236 . S
O111 Tb80 2.341 1_554 S
O111 C99 1.266 . S
H112 C84 0.929 . S
H113 C85 0.931 . S
H114 C87 0.930 . S
H115 C88 0.930 . S
H116 C93 0.929 . S
H117 C94 0.931 . S
H118 C96 0.930 . S
H119 C97 0.930 . S
Tb120 C122 2.809 . S
Tb120 O140 2.484 . S
Tb120 O141 2.440 . S
Tb120 O142 2.658 . S
Tb120 O143 2.409 . S
Tb120 O144 2.378 . S
Tb120 O148 2.325 . S
Tb120 O151 2.341 . S
Tb121 C131 2.809 . S
Tb121 O142 2.325 . S
Tb121 O145 2.341 . S
Tb121 O146 2.484 . S
Tb121 O147 2.440 . S
Tb121 O148 2.658 . S
Tb121 O149 2.409 . S
Tb121 O150 2.378 . S
C122 Tb120 2.809 . S
C122 C123 1.514 . S
C122 O140 1.248 . S
C122 O141 1.266 . S
C123 C122 1.514 . S
C123 C124 1.359 . S
C123 C128 1.348 . S
C124 C123 1.359 . S
C124 C125 1.380 . S
C124 H152 0.929 . S
C125 C124 1.380 . S
C125 C126 1.347 . S
C125 H153 0.931 . S
C126 C125 1.347 . S
C126 C127 1.369 . S
C127 C126 1.369 . S
C127 C128 1.408 . S
C127 H154 0.930 . S
C128 C123 1.348 . S
C128 C127 1.408 . S
C128 H155 0.930 . S
C129 O142 1.281 . S
C129 O143 1.254 . S
C130 O144 1.236 . S
C130 O145 1.266 . S
C131 Tb121 2.809 . S
C131 C132 1.514 . S
C131 O146 1.248 . S
C131 O147 1.266 . S
C132 C131 1.514 . S
C132 C133 1.359 . S
C132 C137 1.348 . S
C133 C132 1.359 . S
C133 C134 1.380 . S
C133 H156 0.929 . S
C134 C133 1.380 . S
C134 C135 1.347 . S
C134 H157 0.931 . S
C135 C134 1.347 . S
C135 C136 1.369 . S
C136 C135 1.369 . S
C136 C137 1.408 . S
C136 H158 0.930 . S
C137 C132 1.348 . S
C137 C136 1.408 . S
C137 H159 0.930 . S
C138 O148 1.281 . S
C138 O149 1.254 . S
C139 O150 1.236 . S
C139 O151 1.266 . S
O140 Tb120 2.484 . S
O140 C122 1.248 . S
O141 Tb120 2.440 . S
O141 C122 1.266 . S
O142 Tb120 2.658 . S
O142 Tb121 2.325 . S
O142 C129 1.281 . S
O143 Tb120 2.409 . S
O143 C129 1.254 . S
O144 Tb120 2.378 . S
O144 C130 1.236 . S
O145 Tb121 2.341 . S
O145 C130 1.266 . S
O146 Tb121 2.484 . S
O146 C131 1.248 . S
O147 Tb121 2.440 . S
O147 C131 1.266 . S
O148 Tb120 2.325 . S
O148 Tb121 2.658 . S
O148 C138 1.281 . S
O149 Tb121 2.409 . S
O149 C138 1.254 . S
O150 Tb121 2.378 . S
O150 C139 1.236 . S
O151 Tb120 2.341 . S
O151 C139 1.266 . S
H152 C124 0.929 . S
H153 C125 0.931 . S
H154 C127 0.930 . S
H155 C128 0.930 . S
H156 C133 0.929 . S
H157 C134 0.931 . S
H158 C136 0.930 . S
H159 C137 0.930 . S
Tb160 C162 2.809 . S
Tb160 O180 2.484 . S
Tb160 O181 2.440 . S
Tb160 O182 2.658 . S
Tb160 O183 2.409 . S
Tb160 O184 2.378 . S
Tb160 O188 2.325 . S
Tb160 O191 2.341 . S
Tb161 C171 2.809 . S
Tb161 O182 2.325 . S
Tb161 O185 2.341 . S
Tb161 O186 2.484 . S
Tb161 O187 2.440 . S
Tb161 O188 2.658 . S
Tb161 O189 2.409 . S
Tb161 O190 2.378 . S
C162 Tb160 2.809 . S
C162 C163 1.514 . S
C162 O180 1.248 . S
C162 O181 1.266 . S
C163 C162 1.514 . S
C163 C164 1.359 . S
C163 C168 1.348 . S
C164 C163 1.359 . S
C164 C165 1.380 . S
C164 H192 0.929 . S
C165 C164 1.380 . S
C165 C166 1.347 . S
C165 H193 0.931 . S
C166 C165 1.347 . S
C166 C167 1.369 . S
C167 C166 1.369 . S
C167 C168 1.408 . S
C167 H194 0.930 . S
C168 C163 1.348 . S
C168 C167 1.408 . S
C168 H195 0.930 . S
C169 O182 1.281 . S
C169 O183 1.254 . S
C170 O184 1.236 . S
C170 O185 1.266 . S
C171 Tb161 2.809 . S
C171 C172 1.514 . S
C171 O186 1.248 . S
C171 O187 1.266 . S
C172 C171 1.514 . S
C172 C173 1.359 . S
C172 C177 1.348 . S
C173 C172 1.359 . S
C173 C174 1.380 . S
C173 H196 0.929 . S
C174 C173 1.380 . S
C174 C175 1.347 . S
C174 H197 0.931 . S
C175 C174 1.347 . S
C175 C176 1.369 . S
C176 C175 1.369 . S
C176 C177 1.408 . S
C176 H198 0.930 . S
C177 C172 1.348 . S
C177 C176 1.408 . S
C177 H199 0.930 . S
C178 O188 1.281 . S
C178 O189 1.254 . S
C179 O190 1.236 . S
C179 O191 1.266 . S
O180 Tb160 2.484 . S
O180 C162 1.248 . S
O181 Tb160 2.440 . S
O181 C162 1.266 . S
O182 Tb160 2.658 . S
O182 Tb161 2.325 . S
O182 C169 1.281 . S
O183 Tb160 2.409 . S
O183 C169 1.254 . S
O184 Tb160 2.378 . S
O184 C170 1.236 . S
O185 Tb161 2.341 . S
O185 C170 1.266 . S
O186 Tb161 2.484 . S
O186 C171 1.248 . S
O187 Tb161 2.440 . S
O187 C171 1.266 . S
O188 Tb160 2.325 . S
O188 Tb161 2.658 . S
O188 C178 1.281 . S
O189 Tb161 2.409 . S
O189 C178 1.254 . S
O190 Tb161 2.378 . S
O190 C179 1.236 . S
O191 Tb160 2.341 . S
O191 C179 1.266 . S
H192 C164 0.929 . S
H193 C165 0.931 . S
H194 C167 0.930 . S
H195 C168 0.930 . S
H196 C173 0.929 . S
H197 C174 0.931 . S
H198 C176 0.930 . S
H199 C177 0.930 . S
Tb200 C202 2.809 . S
Tb200 O220 2.484 . S
Tb200 O221 2.440 . S
Tb200 O222 2.658 . S
Tb200 O223 2.409 . S
Tb200 O224 2.378 . S
Tb200 O228 2.325 . S
Tb200 O231 2.341 . S
Tb201 C211 2.809 . S
Tb201 O222 2.325 . S
Tb201 O225 2.341 . S
Tb201 O226 2.484 . S
Tb201 O227 2.440 . S
Tb201 O228 2.658 . S
Tb201 O229 2.409 . S
Tb201 O230 2.378 . S
C202 Tb200 2.809 . S
C202 C203 1.514 . S
C202 O220 1.248 . S
C202 O221 1.266 . S
C203 C202 1.514 . S
C203 C204 1.359 . S
C203 C208 1.348 . S
C204 C203 1.359 . S
C204 C205 1.380 . S
C204 H232 0.929 . S
C205 C204 1.380 . S
C205 C206 1.347 1_655 S
C205 H233 0.931 . S
C206 C205 1.347 1_455 S
C206 C207 1.369 . S
C207 C206 1.369 . S
C207 C208 1.408 1_455 S
C207 H234 0.930 . S
C208 C203 1.348 . S
C208 C207 1.408 1_655 S
C208 H235 0.930 . S
C209 O222 1.281 . S
C209 O223 1.254 . S
C210 O224 1.236 . S
C210 O225 1.266 . S
C211 Tb201 2.809 . S
C211 C212 1.514 . S
C211 O226 1.248 . S
C211 O227 1.266 . S
C212 C211 1.514 . S
C212 C213 1.359 . S
C212 C217 1.348 . S
C213 C212 1.359 . S
C213 C214 1.380 . S
C213 H236 0.929 . S
C214 C213 1.380 . S
C214 C215 1.347 . S
C214 H237 0.931 . S
C215 C214 1.347 . S
C215 C216 1.369 . S
C216 C215 1.369 . S
C216 C217 1.408 . S
C216 H238 0.930 . S
C217 C212 1.348 . S
C217 C216 1.408 . S
C217 H239 0.930 . S
C218 O228 1.281 . S
C218 O229 1.254 . S
C219 O230 1.236 . S
C219 O231 1.266 . S
O220 Tb200 2.484 . S
O220 C202 1.248 . S
O221 Tb200 2.440 . S
O221 C202 1.266 . S
O222 Tb200 2.658 . S
O222 Tb201 2.325 . S
O222 C209 1.281 . S
O223 Tb200 2.409 . S
O223 C209 1.254 . S
O224 Tb200 2.378 . S
O224 C210 1.236 . S
O225 Tb201 2.341 . S
O225 C210 1.266 . S
O226 Tb201 2.484 . S
O226 C211 1.248 . S
O227 Tb201 2.440 . S
O227 C211 1.266 . S
O228 Tb200 2.325 . S
O228 Tb201 2.658 . S
O228 C218 1.281 . S
O229 Tb201 2.409 . S
O229 C218 1.254 . S
O230 Tb201 2.378 . S
O230 C219 1.236 . S
O231 Tb200 2.341 . S
O231 C219 1.266 . S
H232 C204 0.929 . S
H233 C205 0.931 . S
H234 C207 0.930 . S
H235 C208 0.930 . S
H236 C213 0.929 . S
H237 C214 0.931 . S
H238 C216 0.930 . S
H239 C217 0.930 . S
Tb240 C242 2.809 . S
Tb240 O260 2.484 . S
Tb240 O261 2.440 . S
Tb240 O262 2.658 . S
Tb240 O263 2.409 . S
Tb240 O264 2.378 . S
Tb240 O268 2.325 . S
Tb240 O271 2.341 . S
Tb241 C251 2.809 . S
Tb241 O262 2.325 . S
Tb241 O265 2.341 . S
Tb241 O266 2.484 . S
Tb241 O267 2.440 . S
Tb241 O268 2.658 . S
Tb241 O269 2.409 . S
Tb241 O270 2.378 . S
C242 Tb240 2.809 . S
C242 C243 1.514 . S
C242 O260 1.248 . S
C242 O261 1.266 . S
C243 C242 1.514 . S
C243 C244 1.359 . S
C243 C248 1.348 . S
C244 C243 1.359 . S
C244 C245 1.380 . S
C244 H272 0.929 . S
C245 C244 1.380 . S
C245 C246 1.347 . S
C245 H273 0.931 . S
C246 C245 1.347 . S
C246 C247 1.369 . S
C247 C246 1.369 . S
C247 C248 1.408 . S
C247 H274 0.930 . S
C248 C243 1.348 . S
C248 C247 1.408 . S
C248 H275 0.930 . S
C249 O262 1.281 . S
C249 O263 1.254 . S
C250 O264 1.236 . S
C250 O265 1.266 . S
C251 Tb241 2.809 . S
C251 C252 1.514 . S
C251 O266 1.248 . S
C251 O267 1.266 . S
C252 C251 1.514 . S
C252 C253 1.359 . S
C252 C257 1.348 . S
C253 C252 1.359 . S
C253 C254 1.380 . S
C253 H276 0.929 . S
C254 C253 1.380 . S
C254 C255 1.347 . S
C254 H277 0.931 . S
C255 C254 1.347 . S
C255 C256 1.369 . S
C256 C255 1.369 . S
C256 C257 1.408 . S
C256 H278 0.930 . S
C257 C252 1.348 . S
C257 C256 1.408 . S
C257 H279 0.930 . S
C258 O268 1.281 . S
C258 O269 1.254 . S
C259 O270 1.236 . S
C259 O271 1.266 . S
O260 Tb240 2.484 . S
O260 C242 1.248 . S
O261 Tb240 2.440 . S
O261 C242 1.266 . S
O262 Tb240 2.658 . S
O262 Tb241 2.325 . S
O262 C249 1.281 . S
O263 Tb240 2.409 . S
O263 C249 1.254 . S
O264 Tb240 2.378 . S
O264 C250 1.236 . S
O265 Tb241 2.341 . S
O265 C250 1.266 . S
O266 Tb241 2.484 . S
O266 C251 1.248 . S
O267 Tb241 2.440 . S
O267 C251 1.266 . S
O268 Tb240 2.325 . S
O268 Tb241 2.658 . S
O268 C258 1.281 . S
O269 Tb241 2.409 . S
O269 C258 1.254 . S
O270 Tb241 2.378 . S
O270 C259 1.236 . S
O271 Tb240 2.341 . S
O271 C259 1.266 . S
H272 C244 0.929 . S
H273 C245 0.931 . S
H274 C247 0.930 . S
H275 C248 0.930 . S
H276 C253 0.929 . S
H277 C254 0.931 . S
H278 C256 0.930 . S
H279 C257 0.930 . S
Tb280 C282 2.809 . S
Tb280 O300 2.484 . S
Tb280 O301 2.440 . S
Tb280 O302 2.658 . S
Tb280 O303 2.409 . S
Tb280 O304 2.378 . S
Tb280 O308 2.325 . S
Tb280 O311 2.341 . S
Tb281 C291 2.809 . S
Tb281 O302 2.325 . S
Tb281 O305 2.341 . S
Tb281 O306 2.484 . S
Tb281 O307 2.440 . S
Tb281 O308 2.658 . S
Tb281 O309 2.409 . S
Tb281 O310 2.378 . S
C282 Tb280 2.809 . S
C282 C283 1.514 . S
C282 O300 1.248 . S
C282 O301 1.266 . S
C283 C282 1.514 . S
C283 C284 1.359 . S
C283 C288 1.348 . S
C284 C283 1.359 . S
C284 C285 1.380 . S
C284 H312 0.929 . S
C285 C284 1.380 . S
C285 C286 1.347 . S
C285 H313 0.931 . S
C286 C285 1.347 . S
C286 C287 1.369 . S
C287 C286 1.369 . S
C287 C288 1.408 . S
C287 H314 0.930 . S
C288 C283 1.348 . S
C288 C287 1.408 . S
C288 H315 0.930 . S
C289 O302 1.281 . S
C289 O303 1.254 . S
C290 O304 1.236 . S
C290 O305 1.266 . S
C291 Tb281 2.809 . S
C291 C292 1.514 . S
C291 O306 1.248 . S
C291 O307 1.266 . S
C292 C291 1.514 . S
C292 C293 1.359 . S
C292 C297 1.348 . S
C293 C292 1.359 . S
C293 C294 1.380 . S
C293 H316 0.929 . S
C294 C293 1.380 . S
C294 C295 1.347 . S
C294 H317 0.931 . S
C295 C294 1.347 . S
C295 C296 1.369 . S
C296 C295 1.369 . S
C296 C297 1.408 . S
C296 H318 0.930 . S
C297 C292 1.348 . S
C297 C296 1.408 . S
C297 H319 0.930 . S
C298 O308 1.281 . S
C298 O309 1.254 . S
C299 O310 1.236 . S
C299 O311 1.266 . S
O300 Tb280 2.484 . S
O300 C282 1.248 . S
O301 Tb280 2.440 . S
O301 C282 1.266 . S
O302 Tb280 2.658 . S
O302 Tb281 2.325 . S
O302 C289 1.281 . S
O303 Tb280 2.409 . S
O303 C289 1.254 . S
O304 Tb280 2.378 . S
O304 C290 1.236 . S
O305 Tb281 2.341 . S
O305 C290 1.266 . S
O306 Tb281 2.484 . S
O306 C291 1.248 . S
O307 Tb281 2.440 . S
O307 C291 1.266 . S
O308 Tb280 2.325 . S
O308 Tb281 2.658 . S
O308 C298 1.281 . S
O309 Tb281 2.409 . S
O309 C298 1.254 . S
O310 Tb281 2.378 . S
O310 C299 1.236 . S
O311 Tb280 2.341 . S
O311 C299 1.266 . S
H312 C284 0.929 . S
H313 C285 0.931 . S
H314 C287 0.930 . S
H315 C288 0.930 . S
H316 C293 0.929 . S
H317 C294 0.931 . S
H318 C296 0.930 . S
H319 C297 0.930 . S
Tb320 C322 2.809 . S
Tb320 O340 2.484 . S
Tb320 O341 2.440 . S
Tb320 O342 2.658 . S
Tb320 O343 2.409 . S
Tb320 O344 2.378 . S
Tb320 O348 2.325 . S
Tb320 O351 2.341 . S
Tb321 C331 2.809 . S
Tb321 O342 2.325 . S
Tb321 O345 2.341 . S
Tb321 O346 2.484 . S
Tb321 O347 2.440 . S
Tb321 O348 2.658 . S
Tb321 O349 2.409 . S
Tb321 O350 2.378 . S
C322 Tb320 2.809 . S
C322 C323 1.514 . S
C322 O340 1.248 . S
C322 O341 1.266 . S
C323 C322 1.514 . S
C323 C324 1.359 . S
C323 C328 1.348 . S
C324 C323 1.359 . S
C324 C325 1.380 . S
C324 H352 0.929 . S
C325 C324 1.380 . S
C325 C326 1.347 . S
C325 H353 0.931 . S
C326 C325 1.347 . S
C326 C327 1.369 . S
C327 C326 1.369 . S
C327 C328 1.408 . S
C327 H354 0.930 . S
C328 C323 1.348 . S
C328 C327 1.408 . S
C328 H355 0.930 . S
C329 O342 1.281 . S
C329 O343 1.254 . S
C330 O344 1.236 . S
C330 O345 1.266 . S
C331 Tb321 2.809 . S
C331 C332 1.514 . S
C331 O346 1.248 . S
C331 O347 1.266 . S
C332 C331 1.514 . S
C332 C333 1.359 . S
C332 C337 1.348 . S
C333 C332 1.359 . S
C333 C334 1.380 . S
C333 H356 0.929 . S
C334 C333 1.380 . S
C334 C335 1.347 . S
C334 H357 0.931 . S
C335 C334 1.347 . S
C335 C336 1.369 . S
C336 C335 1.369 . S
C336 C337 1.408 . S
C336 H358 0.930 . S
C337 C332 1.348 . S
C337 C336 1.408 . S
C337 H359 0.930 . S
C338 O348 1.281 . S
C338 O349 1.254 . S
C339 O350 1.236 . S
C339 O351 1.266 . S
O340 Tb320 2.484 . S
O340 C322 1.248 . S
O341 Tb320 2.440 . S
O341 C322 1.266 . S
O342 Tb320 2.658 . S
O342 Tb321 2.325 . S
O342 C329 1.281 . S
O343 Tb320 2.409 . S
O343 C329 1.254 . S
O344 Tb320 2.378 . S
O344 C330 1.236 . S
O345 Tb321 2.341 . S
O345 C330 1.266 . S
O346 Tb321 2.484 . S
O346 C331 1.248 . S
O347 Tb321 2.440 . S
O347 C331 1.266 . S
O348 Tb320 2.325 . S
O348 Tb321 2.658 . S
O348 C338 1.281 . S
O349 Tb321 2.409 . S
O349 C338 1.254 . S
O350 Tb321 2.378 . S
O350 C339 1.236 . S
O351 Tb320 2.341 . S
O351 C339 1.266 . S
H352 C324 0.929 . S
H353 C325 0.931 . S
H354 C327 0.930 . S
H355 C328 0.930 . S
H356 C333 0.929 . S
H357 C334 0.931 . S
H358 C336 0.930 . S
H359 C337 0.930 . S
C360 C361 1.387 . S
C360 H364 0.950 . S
C360 C369 1.390 . S
C361 C360 1.387 . S
C361 C363 1.387 . S
H362 C369 0.950 . S
C363 C361 1.387 . S
C363 C365 1.390 . S
C363 H367 0.950 . S
H364 C360 0.950 . S
C365 C363 1.390 . S
C365 C366 1.387 . S
C365 H368 0.950 . S
C366 C365 1.387 . S
C366 C369 1.387 . S
H367 C363 0.950 . S
H368 C365 0.950 . S
C369 C360 1.390 . S
C369 H362 0.950 . S
C369 C366 1.387 . S
C370 C371 1.387 . S
C370 H374 0.950 . S
C370 C379 1.390 . S
C371 C370 1.387 . S
C371 C373 1.387 1_556 S
H372 C379 0.950 . S
C373 C371 1.387 1_554 S
C373 C375 1.390 1_554 S
C373 H377 0.950 . S
H374 C370 0.950 . S
C375 C373 1.390 1_556 S
C375 C376 1.387 . S
C375 H378 0.950 . S
C376 C375 1.387 . S
C376 C379 1.387 . S
H377 C373 0.950 . S
H378 C375 0.950 . S
C379 C370 1.390 . S
C379 H372 0.950 . S
C379 C376 1.387 . S
C380 C381 1.387 . S
C380 H384 0.950 1_565 S
C380 C389 1.390 . S
C381 C380 1.387 . S
C381 C383 1.387 . S
H382 C389 0.950 . S
C383 C381 1.387 . S
C383 C385 1.390 . S
C383 H387 0.950 . S
H384 C380 0.950 1_545 S
C385 C383 1.390 . S
C385 C386 1.387 . S
C385 H388 0.950 . S
C386 C385 1.387 . S
C386 C389 1.387 . S
H387 C383 0.950 . S
H388 C385 0.950 . S
C389 C380 1.390 . S
C389 H382 0.950 . S
C389 C386 1.387 . S
C390 C391 1.387 . S
C390 H394 0.950 . S
C390 C399 1.390 . S
C391 C390 1.387 . S
C391 C393 1.387 . S
H392 C399 0.950 . S
C393 C391 1.387 . S
C393 C395 1.390 . S
C393 H397 0.950 . S
H394 C390 0.950 . S
C395 C393 1.390 . S
C395 C396 1.387 . S
C395 H398 0.950 1_554 S
C396 C395 1.387 . S
C396 C399 1.387 . S
H397 C393 0.950 . S
H398 C395 0.950 1_556 S
C399 C390 1.390 . S
C399 H392 0.950 . S
C399 C396 1.387 . S
C400 C401 1.387 . S
C400 H404 0.950 . S
C400 C409 1.390 . S
C401 C400 1.387 . S
C401 C403 1.387 . S
H402 C409 0.950 . S
C403 C401 1.387 . S
C403 C405 1.390 . S
C403 H407 0.950 . S
H404 C400 0.950 . S
C405 C403 1.390 . S
C405 C406 1.387 . S
C405 H408 0.950 . S
C406 C405 1.387 . S
C406 C409 1.387 . S
H407 C403 0.950 . S
H408 C405 0.950 . S
C409 C400 1.390 . S
C409 H402 0.950 . S
C409 C406 1.387 . S
C410 C411 1.387 . S
C410 H414 0.950 . S
C410 C419 1.390 . S
C411 C410 1.387 . S
C411 C413 1.387 . S
H412 C419 0.950 . S
C413 C411 1.387 . S
C413 C415 1.390 . S
C413 H417 0.950 . S
H414 C410 0.950 . S
C415 C413 1.390 . S
C415 C416 1.387 . S
C415 H418 0.950 . S
C416 C415 1.387 . S
C416 C419 1.387 . S
H417 C413 0.950 . S
H418 C415 0.950 . S
C419 C410 1.390 . S
C419 H412 0.950 . S
C419 C416 1.387 . S
C420 C421 1.387 . S
C420 H424 0.950 . S
C420 C429 1.390 . S
C421 C420 1.387 . S
C421 C423 1.387 . S
H422 C429 0.950 . S
C423 C421 1.387 . S
C423 C425 1.390 . S
C423 H427 0.950 . S
H424 C420 0.950 . S
C425 C423 1.390 . S
C425 C426 1.387 . S
C425 H428 0.950 . S
C426 C425 1.387 . S
C426 C429 1.387 . S
H427 C423 0.950 . S
H428 C425 0.950 . S
C429 C420 1.390 . S
C429 H422 0.950 . S
C429 C426 1.387 . S
C430 C431 1.387 . S
C430 H434 0.950 . S
C430 C439 1.390 . S
C431 C430 1.387 . S
C431 C433 1.387 . S
H432 C439 0.950 . S
C433 C431 1.387 . S
C433 C435 1.390 . S
C433 H437 0.950 . S
H434 C430 0.950 . S
C435 C433 1.390 . S
C435 C436 1.387 . S
C435 H438 0.950 . S
C436 C435 1.387 . S
C436 C439 1.387 . S
H437 C433 0.950 . S
H438 C435 0.950 . S
C439 C430 1.390 . S
C439 H432 0.950 . S
C439 C436 1.387 . S
C440 C441 1.387 . S
C440 H444 0.950 . S
C440 C449 1.390 . S
C441 C440 1.387 . S
C441 C443 1.387 . S
H442 C449 0.950 . S
C443 C441 1.387 . S
C443 C445 1.390 . S
C443 H447 0.950 . S
H444 C440 0.950 . S
C445 C443 1.390 . S
C445 C446 1.387 . S
C445 H448 0.950 . S
C446 C445 1.387 . S
C446 C449 1.387 . S
H447 C443 0.950 . S
H448 C445 0.950 . S
C449 C440 1.390 . S
C449 H442 0.950 . S
C449 C446 1.387 . S
C450 C451 1.383 1_556 S
C450 H454 0.950 . S
C450 C459 1.390 . S
C451 C450 1.383 1_554 S
C451 C453 1.391 . S
H452 C459 0.950 . S
C453 C451 1.391 . S
C453 C455 1.390 . S
C453 H457 0.950 . S
H454 C450 0.950 . S
C455 C453 1.390 . S
C455 C456 1.387 1_554 S
C455 H458 0.950 . S
C456 C455 1.387 1_556 S
C456 C459 1.387 . S
H457 C453 0.950 . S
H458 C455 0.950 . S
C459 C450 1.390 . S
C459 H452 0.950 . S
C459 C456 1.387 . S
C460 C461 1.387 . S
C460 H464 0.950 . S
C460 C469 1.390 . S
C461 C460 1.387 . S
C461 C463 1.387 1_556 S
H462 C469 0.950 . S
C463 C461 1.387 1_554 S
C463 C465 1.390 . S
C463 H467 0.950 . S
H464 C460 0.950 . S
C465 C463 1.390 . S
C465 C466 1.387 . S
C465 H468 0.950 . S
C466 C465 1.387 . S
C466 C469 1.387 1_554 S
H467 C463 0.950 . S
H468 C465 0.950 . S
C469 C460 1.390 . S
C469 H462 0.950 . S
C469 C466 1.387 1_556 S
C470 C471 1.387 1_556 S
C470 H474 0.950 . S
C470 C479 1.390 . S
C471 C470 1.387 1_554 S
C471 C473 1.387 . S
H472 C479 0.950 . S
C473 C471 1.387 . S
C473 C475 1.390 . S
C473 H477 0.950 . S
H474 C470 0.950 . S
C475 C473 1.390 . S
C475 C476 1.387 1_554 S
C475 H478 0.950 . S
C476 C475 1.387 1_556 S
C476 C479 1.387 . S
H477 C473 0.950 . S
H478 C475 0.950 . S
C479 C470 1.390 . S
C479 H472 0.950 . S
C479 C476 1.387 . S
C480 C481 1.387 . S
C480 H484 0.950 . S
C480 C489 1.390 . S
C481 C480 1.387 . S
C481 C483 1.387 . S
H482 C489 0.950 . S
C483 C481 1.387 . S
C483 C485 1.390 . S
C483 H487 0.950 . S
H484 C480 0.950 . S
C485 C483 1.390 . S
C485 C486 1.387 . S
C485 H488 0.950 . S
C486 C485 1.387 . S
C486 C489 1.387 . S
H487 C483 0.950 . S
H488 C485 0.950 . S
C489 C480 1.390 . S
C489 H482 0.950 . S
C489 C486 1.387 . S
C490 C491 1.387 . S
C490 H494 0.950 . S
C490 C499 1.390 . S
C491 C490 1.387 . S
C491 C493 1.387 . S
H492 C499 0.950 . S
C493 C491 1.387 . S
C493 C495 1.390 . S
C493 H497 0.950 . S
H494 C490 0.950 . S
C495 C493 1.390 . S
C495 C496 1.387 . S
C495 H498 0.950 . S
C496 C495 1.387 . S
C496 C499 1.387 . S
H497 C493 0.950 . S
H498 C495 0.950 . S
C499 C490 1.390 . S
C499 H492 0.950 . S
C499 C496 1.387 . S
C500 C501 1.387 . S
C500 H504 0.950 . S
C500 C509 1.390 . S
C501 C500 1.387 . S
C501 C503 1.387 . S
H502 C509 0.950 . S
C503 C501 1.387 . S
C503 C505 1.390 . S
C503 H507 0.950 . S
H504 C500 0.950 . S
C505 C503 1.390 . S
C505 C506 1.387 . S
C505 H508 0.950 . S
C506 C505 1.387 . S
C506 C509 1.387 . S
H507 C503 0.950 . S
H508 C505 0.950 . S
C509 C500 1.390 . S
C509 H502 0.950 . S
C509 C506 1.387 . S
C510 C511 1.387 . S
C510 H514 0.950 . S
C510 C519 1.390 . S
C511 C510 1.387 . S
C511 C513 1.387 . S
H512 C519 0.950 . S
C513 C511 1.387 . S
C513 C515 1.390 . S
C513 H517 0.950 . S
H514 C510 0.950 . S
C515 C513 1.390 . S
C515 C516 1.387 . S
C515 H518 0.950 . S
C516 C515 1.387 . S
C516 C519 1.387 . S
H517 C513 0.950 . S
H518 C515 0.950 . S
C519 C510 1.390 . S
C519 H512 0.950 . S
C519 C516 1.387 . S
C520 C521 1.387 . S
C520 H524 0.950 . S
C520 C529 1.390 . S
C521 C520 1.387 . S
C521 C523 1.387 . S
H522 C529 0.950 . S
C523 C521 1.387 . S
C523 C525 1.390 . S
C523 H527 0.950 . S
H524 C520 0.950 . S
C525 C523 1.390 . S
C525 C526 1.387 . S
C525 H528 0.950 . S
C526 C525 1.387 . S
C526 C529 1.387 . S
H527 C523 0.950 . S
H528 C525 0.950 . S
C529 C520 1.390 . S
C529 H522 0.950 . S
C529 C526 1.387 . S
C530 C531 1.387 . S
C530 H534 0.950 . S
C530 C539 1.390 . S
C531 C530 1.387 . S
C531 C533 1.387 . S
H532 C539 0.950 . S
C533 C531 1.387 . S
C533 C535 1.390 . S
C533 H537 0.950 . S
H534 C530 0.950 . S
C535 C533 1.390 . S
C535 C536 1.387 . S
C535 H538 0.950 . S
C536 C535 1.387 . S
C536 C539 1.387 . S
H537 C533 0.950 . S
H538 C535 0.950 . S
C539 C530 1.390 . S
C539 H532 0.950 . S
C539 C536 1.387 . S
C540 C541 1.387 . S
C540 H544 0.950 . S
C540 C549 1.390 . S
C541 C540 1.387 . S
C541 C543 1.387 1_455 S
H542 C549 0.950 . S
C543 C541 1.387 1_655 S
C543 C545 1.390 . S
C543 H547 0.950 . S
H544 C540 0.950 . S
C545 C543 1.390 . S
C545 C546 1.387 1_655 S
C545 H548 0.950 . S
C546 C545 1.387 1_455 S
C546 C549 1.387 . S
H547 C543 0.950 . S
H548 C545 0.950 . S
C549 C540 1.390 . S
C549 H542 0.950 . S
C549 C546 1.387 . S
C550 C551 1.387 . S
C550 H554 0.950 . S
C550 C559 1.390 . S
C551 C550 1.387 . S
C551 C553 1.387 . S
H552 C559 0.950 . S
C553 C551 1.387 . S
C553 C555 1.390 . S
C553 H557 0.950 . S
H554 C550 0.950 . S
C555 C553 1.390 . S
C555 C556 1.387 . S
C555 H558 0.950 . S
C556 C555 1.387 . S
C556 C559 1.387 . S
H557 C553 0.950 . S
H558 C555 0.950 . S
C559 C550 1.390 . S
C559 H552 0.950 . S
C559 C556 1.387 . S
C560 C561 1.387 . S
C560 H564 0.950 . S
C560 C569 1.390 . S
C561 C560 1.387 . S
C561 C563 1.387 1_545 S
H562 C569 0.950 . S
C563 C561 1.387 1_565 S
C563 C565 1.390 . S
C563 H567 0.950 . S
H564 C560 0.950 . S
C565 C563 1.390 . S
C565 C566 1.387 1_565 S
C565 H568 0.950 . S
C566 C565 1.387 1_545 S
C566 C569 1.387 . S
H567 C563 0.950 . S
H568 C565 0.950 . S
C569 C560 1.390 . S
C569 H562 0.950 . S
C569 C566 1.387 . S
C570 C571 1.387 . S
C570 H574 0.950 . S
C570 C579 1.390 . S
C571 C570 1.387 . S
C571 C573 1.387 . S
H572 C579 0.950 . S
C573 C571 1.387 . S
C573 C575 1.390 . S
C573 H577 0.950 . S
H574 C570 0.950 . S
C575 C573 1.390 . S
C575 C576 1.387 . S
C575 H578 0.950 . S
C576 C575 1.387 . S
C576 C579 1.387 . S
H577 C573 0.950 . S
H578 C575 0.950 . S
C579 C570 1.390 . S
C579 H572 0.950 . S
C579 C576 1.387 . S
C580 C581 1.387 . S
C580 H584 0.950 . S
C580 C589 1.390 . S
C581 C580 1.387 . S
C581 C583 1.387 . S
H582 C589 0.950 . S
C583 C581 1.387 . S
C583 C585 1.390 . S
C583 H587 0.950 . S
H584 C580 0.950 . S
C585 C583 1.390 . S
C585 C586 1.387 . S
C585 H588 0.950 . S
C586 C585 1.387 . S
C586 C589 1.387 . S
H587 C583 0.950 . S
H588 C585 0.950 . S
C589 C580 1.390 . S
C589 H582 0.950 . S
C589 C586 1.387 . S
C590 C591 1.387 . S
C590 H594 0.950 . S
C590 C599 1.390 . S
C591 C590 1.387 . S
C591 C593 1.387 . S
H592 C599 0.950 . S
C593 C591 1.387 . S
C593 C595 1.390 . S
C593 H597 0.950 . S
H594 C590 0.950 . S
C595 C593 1.390 . S
C595 C596 1.387 . S
C595 H598 0.950 . S
C596 C595 1.387 . S
C596 C599 1.387 . S
H597 C593 0.950 . S
H598 C595 0.950 . S
C599 C590 1.390 . S
C599 H592 0.950 . S
C599 C596 1.387 . S
C600 C601 1.387 . S
C600 H604 0.950 . S
C600 C609 1.390 . S
C601 C600 1.387 . S
C601 C603 1.387 . S
H602 C609 0.950 . S
C603 C601 1.387 . S
C603 C605 1.390 . S
C603 H607 0.950 . S
H604 C600 0.950 . S
C605 C603 1.390 . S
C605 C606 1.387 . S
C605 H608 0.950 . S
C606 C605 1.387 . S
C606 C609 1.387 . S
H607 C603 0.950 . S
H608 C605 0.950 . S
C609 C600 1.390 . S
C609 H602 0.950 . S
C609 C606 1.387 . S
C610 C611 1.387 . S
C610 H614 0.950 . S
C610 C619 1.390 . S
C611 C610 1.387 . S
C611 C613 1.387 . S
H612 C619 0.950 . S
C613 C611 1.387 . S
C613 C615 1.390 . S
C613 H617 0.950 . S
H614 C610 0.950 . S
C615 C613 1.390 . S
C615 C616 1.387 . S
C615 H618 0.950 . S
C616 C615 1.387 . S
C616 C619 1.387 . S
H617 C613 0.950 . S
H618 C615 0.950 . S
C619 C610 1.390 . S
C619 H612 0.950 . S
C619 C616 1.387 . S
C620 C621 1.387 . S
C620 H624 0.950 . S
C620 C629 1.390 . S
C621 C620 1.387 . S
C621 C623 1.387 . S
H622 C629 0.950 . S
C623 C621 1.387 . S
C623 C625 1.390 . S
C623 H627 0.950 . S
H624 C620 0.950 . S
C625 C623 1.390 . S
C625 C626 1.387 . S
C625 H628 0.950 . S
C626 C625 1.387 . S
C626 C629 1.387 . S
H627 C623 0.950 . S
H628 C625 0.950 . S
C629 C620 1.390 . S
C629 H622 0.950 . S
C629 C626 1.387 . S
C361 C10 1.765 . S
C366 C286 1.823 . S
C371 C50 1.767 . S
C376 C326 1.826 . S
C381 C90 1.765 . S
C386 C246 1.823 . S
C391 C170 1.766 . S
C396 C86 1.824 . S
C401 C210 1.768 . S
C406 C6 1.825 . S
C411 C46 1.825 . S
C416 C130 1.766 . S
C421 C290 1.768 . S
C426 C206 1.826 . S
C431 C330 1.766 . S
C436 C126 1.824 . S
C441 C166 1.824 1_565 S
C446 C250 1.766 . S
C451 C99 1.718 . S
C456 C15 1.691 . S
C461 C55 1.693 . S
C466 C19 1.719 . S
C471 C59 1.719 . S
C476 C95 1.693 1_655 S
C481 C135 1.692 . S
C486 C219 1.718 . S
C491 C139 1.719 . S
C496 C175 1.693 . S
C501 C179 1.718 . S
C506 C215 1.691 . S
C511 C339 1.718 . S
C516 C255 1.692 . S
C521 C295 1.693 . S
C526 C259 1.718 . S
C531 C335 1.693 . S
C536 C299 1.719 . S
C541 C9 1.162 . S
C546 C18 1.162 . S
C551 C49 1.160 . S
C556 C58 1.160 . S
C561 C89 1.163 . S
C566 C98 1.163 . S
C571 C138 1.162 . S
C576 C129 1.162 1_556 S
C581 C178 1.160 . S
C586 C169 1.160 1_556 S
C591 C218 1.163 . S
C596 C209 1.163 1_556 S
C601 C249 1.162 . S
C606 C258 1.162 1_554 S
C611 C298 1.161 1_554 S
C616 C289 1.161 . S
C621 C329 1.161 . S
C626 C338 1.161 1_554 S
