# Generated by pormake.
# Topology yfj, (5)-cn, num edge types: 1
# Building blocks:
#     Node 0, Type 0, BuildingBlock: XOMCOT_clean_sbu_1, # of connection points: 5
#     Node 1, Type 0, BuildingBlock: XOMCOT_clean_sbu_1, # of connection points: 5
#     Node 2, Type 0, BuildingBlock: XOMCOT_clean_sbu_1, # of connection points: 5
#     Node 3, Type 0, BuildingBlock: XOMCOT_clean_sbu_1, # of connection points: 5
#     Node 4, Type 0, BuildingBlock: XOMCOT_clean_sbu_1, # of connection points: 5
#     Node 5, Type 0, BuildingBlock: XOMCOT_clean_sbu_1, # of connection points: 5
#     Node 6, Type 0, BuildingBlock: XOMCOT_clean_sbu_1, # of connection points: 5
#     Node 7, Type 0, BuildingBlock: XOMCOT_clean_sbu_1, # of connection points: 5
#     Node 8, Type 0, BuildingBlock: XOMCOT_clean_sbu_1, # of connection points: 5
#     Node 9, Type 0, BuildingBlock: XOMCOT_clean_sbu_1, # of connection points: 5
#     Node 10, Type 0, BuildingBlock: XOMCOT_clean_sbu_1, # of connection points: 5
#     Node 11, Type 0, BuildingBlock: XOMCOT_clean_sbu_1, # of connection points: 5
#     Node 12, Type 0, BuildingBlock: XOMCOT_clean_sbu_1, # of connection points: 5
#     Node 13, Type 0, BuildingBlock: XOMCOT_clean_sbu_1, # of connection points: 5
#     Node 14, Type 0, BuildingBlock: XOMCOT_clean_sbu_1, # of connection points: 5
#     Node 15, Type 0, BuildingBlock: XOMCOT_clean_sbu_1, # of connection points: 5
#     Edge 16, Type (0, 0), BuildingBlock: KIFKEQ_clean_linker_1, # of connection points: 2
#     Edge 17, Type (0, 0), BuildingBlock: KIFKEQ_clean_linker_1, # of connection points: 2
#     Edge 18, Type (0, 0), BuildingBlock: KIFKEQ_clean_linker_1, # of connection points: 2
#     Edge 19, Type (0, 0), BuildingBlock: KIFKEQ_clean_linker_1, # of connection points: 2
#     Edge 20, Type (0, 0), BuildingBlock: KIFKEQ_clean_linker_1, # of connection points: 2
#     Edge 21, Type (0, 0), BuildingBlock: KIFKEQ_clean_linker_1, # of connection points: 2
#     Edge 22, Type (0, 0), BuildingBlock: KIFKEQ_clean_linker_1, # of connection points: 2
#     Edge 23, Type (0, 0), BuildingBlock: KIFKEQ_clean_linker_1, # of connection points: 2
#     Edge 24, Type (0, 0), BuildingBlock: KIFKEQ_clean_linker_1, # of connection points: 2
#     Edge 25, Type (0, 0), BuildingBlock: KIFKEQ_clean_linker_1, # of connection points: 2
#     Edge 26, Type (0, 0), BuildingBlock: KIFKEQ_clean_linker_1, # of connection points: 2
#     Edge 27, Type (0, 0), BuildingBlock: KIFKEQ_clean_linker_1, # of connection points: 2
#     Edge 28, Type (0, 0), BuildingBlock: KIFKEQ_clean_linker_1, # of connection points: 2
#     Edge 29, Type (0, 0), BuildingBlock: KIFKEQ_clean_linker_1, # of connection points: 2
#     Edge 30, Type (0, 0), BuildingBlock: KIFKEQ_clean_linker_1, # of connection points: 2
#     Edge 31, Type (0, 0), BuildingBlock: KIFKEQ_clean_linker_1, # of connection points: 2
#     Edge 32, Type (0, 0), BuildingBlock: KIFKEQ_clean_linker_1, # of connection points: 2
#     Edge 33, Type (0, 0), BuildingBlock: KIFKEQ_clean_linker_1, # of connection points: 2
#     Edge 34, Type (0, 0), BuildingBlock: KIFKEQ_clean_linker_1, # of connection points: 2
#     Edge 35, Type (0, 0), BuildingBlock: KIFKEQ_clean_linker_1, # of connection points: 2
#     Edge 36, Type (0, 0), BuildingBlock: KIFKEQ_clean_linker_1, # of connection points: 2
#     Edge 37, Type (0, 0), BuildingBlock: KIFKEQ_clean_linker_1, # of connection points: 2
#     Edge 38, Type (0, 0), BuildingBlock: KIFKEQ_clean_linker_1, # of connection points: 2
#     Edge 39, Type (0, 0), BuildingBlock: KIFKEQ_clean_linker_1, # of connection points: 2
#     Edge 40, Type (0, 0), BuildingBlock: KIFKEQ_clean_linker_1, # of connection points: 2
#     Edge 41, Type (0, 0), BuildingBlock: KIFKEQ_clean_linker_1, # of connection points: 2
#     Edge 42, Type (0, 0), BuildingBlock: KIFKEQ_clean_linker_1, # of connection points: 2
#     Edge 43, Type (0, 0), BuildingBlock: KIFKEQ_clean_linker_1, # of connection points: 2
#     Edge 44, Type (0, 0), BuildingBlock: KIFKEQ_clean_linker_1, # of connection points: 2
#     Edge 45, Type (0, 0), BuildingBlock: KIFKEQ_clean_linker_1, # of connection points: 2
#     Edge 46, Type (0, 0), BuildingBlock: KIFKEQ_clean_linker_1, # of connection points: 2
#     Edge 47, Type (0, 0), BuildingBlock: KIFKEQ_clean_linker_1, # of connection points: 2
#     Edge 48, Type (0, 0), BuildingBlock: KIFKEQ_clean_linker_1, # of connection points: 2
#     Edge 49, Type (0, 0), BuildingBlock: KIFKEQ_clean_linker_1, # of connection points: 2
#     Edge 50, Type (0, 0), BuildingBlock: KIFKEQ_clean_linker_1, # of connection points: 2
#     Edge 51, Type (0, 0), BuildingBlock: KIFKEQ_clean_linker_1, # of connection points: 2
#     Edge 52, Type (0, 0), BuildingBlock: KIFKEQ_clean_linker_1, # of connection points: 2
#     Edge 53, Type (0, 0), BuildingBlock: KIFKEQ_clean_linker_1, # of connection points: 2
#     Edge 54, Type (0, 0), BuildingBlock: KIFKEQ_clean_linker_1, # of connection points: 2
#     Edge 55, Type (0, 0), BuildingBlock: KIFKEQ_clean_linker_1, # of connection points: 2
# Relax obj value: 0.476
# Max RMSD: 0.238
# Mean RMSD: 0.238
data_MOF--net-yfj--node1-XOMCOT_clean_sbu_1--edge1-KIFKEQ_clean_linker_1
_symmetry_space_group_name_H-M    P1
_symmetry_Int_Tables_number       1
_symmetry_cell_setting            triclinic
loop_
_symmetry_equiv_pos_as_xyz
'x, y, z'
_cell_length_a     49.585446
_cell_length_b     49.521319
_cell_length_c     44.481125
_cell_angle_alpha  90.049925
_cell_angle_beta   90.058669
_cell_angle_gamma 90.06441
loop_
_atom_site_label
_atom_site_type_symbol
_atom_site_fract_x
_atom_site_fract_y
_atom_site_fract_z
_atom_type_partial_charge
C0 C 0.11797 0.08971 0.35655 0.0
C1 C 0.11592 0.08271 0.38641 0.0
N2 N 0.12323 0.10414 0.4033 0.0
N3 N 0.12641 0.11551 0.35442 0.0
C4 C 0.12916 0.12385 0.3833 0.0
H5 H 0.11481 0.07642 0.33755 0.0
Co6 Co 0.13834 0.1319 0.31851 0.0
C7 C 0.11901 0.18974 0.33548 0.0
O8 O 0.10067 0.19322 0.31453 0.0
N9 N 0.15184 0.1473 0.28222 0.0
C10 C 0.15625 0.16722 0.23752 0.0
C11 C 0.14029 0.1648 0.26285 0.0
C12 C 0.17488 0.13956 0.26806 0.0
N13 N 0.1781 0.15133 0.24082 0.0
O14 O 0.17249 0.13322 0.33494 0.0
H15 H 0.12085 0.17416 0.26608 0.0
H16 H 0.1885 0.12448 0.27686 0.0
O17 O 0.13222 0.16762 0.3366 0.0
C18 C 0.1843 0.11062 0.33727 0.0
O19 O 0.17484 0.08955 0.32269 0.0
N20 N 0.10365 0.12803 0.30215 0.0
C21 C 0.06025 0.09311 0.29354 0.0
C22 C 0.05912 0.11339 0.31564 0.0
C23 C 0.08097 0.13116 0.31924 0.0
C24 C 0.10365 0.11056 0.27842 0.0
C25 C 0.08198 0.09317 0.27346 0.0
H26 H 0.08134 0.1443 0.33866 0.0
H27 H 0.12195 0.10723 0.26578 0.0
H28 H 0.13721 0.14331 0.38956 0.0
H29 H 0.11032 0.06304 0.39496 0.0
H30 H 0.15183 0.17941 0.21793 0.0
H31 H 0.04261 0.11402 0.33155 0.0
H32 H 0.08378 0.07775 0.2563 0.0
C33 C 0.92459 0.61221 0.60555 0.0
C34 C 0.93098 0.60832 0.63537 0.0
N35 N 0.90979 0.61609 0.65227 0.0
N36 N 0.89932 0.62204 0.60345 0.0
C37 C 0.89097 0.62449 0.63231 0.0
H38 H 0.93757 0.60823 0.58652 0.0
Co39 Co 0.8818 0.63221 0.5675 0.0
C40 C 0.82536 0.61507 0.58991 0.0
O41 O 0.823 0.59389 0.57231 0.0
N42 N 0.86528 0.64444 0.53136 0.0
C43 C 0.83799 0.65654 0.4939 0.0
C44 C 0.84081 0.64025 0.51895 0.0
C45 C 0.87695 0.66308 0.51312 0.0
N46 N 0.86078 0.67112 0.49027 0.0
O47 O 0.88407 0.66788 0.57963 0.0
H48 H 0.82565 0.62674 0.52768 0.0
H49 H 0.89682 0.67125 0.51718 0.0
O50 O 0.84659 0.62974 0.58841 0.0
C51 C 0.90733 0.67838 0.57704 0.0
O52 O 0.92772 0.66377 0.56755 0.0
N53 N 0.8824 0.59577 0.55405 0.0
C54 C 0.91948 0.55402 0.54603 0.0
C55 C 0.902 0.55407 0.57098 0.0
C56 C 0.88286 0.57484 0.57411 0.0
C57 C 0.89562 0.59315 0.5273 0.0
C58 C 0.91388 0.57219 0.52266 0.0
H59 H 0.87224 0.57661 0.59525 0.0
H60 H 0.8955 0.60928 0.51104 0.0
H61 H 0.87147 0.63229 0.63861 0.0
H62 H 0.95002 0.60088 0.64389 0.0
H63 H 0.82033 0.65762 0.47965 0.0
H64 H 0.90495 0.54019 0.58947 0.0
H65 H 0.92559 0.5721 0.50213 0.0
C66 C 0.40368 0.41915 0.85387 0.0
C67 C 0.40644 0.42622 0.88358 0.0
N68 N 0.39743 0.40566 0.90076 0.0
N69 N 0.39337 0.39401 0.852 0.0
C70 C 0.38966 0.38633 0.88096 0.0
H71 H 0.40833 0.43177 0.83472 0.0
Co72 Co 0.3823 0.37726 0.81591 0.0
C73 C 0.40157 0.32012 0.83507 0.0
O74 O 0.42185 0.31789 0.81627 0.0
N75 N 0.36955 0.36145 0.77952 0.0
C76 C 0.36409 0.33936 0.73619 0.0
C77 C 0.38017 0.3423 0.76147 0.0
C78 C 0.34705 0.36969 0.76467 0.0
N79 N 0.34313 0.35658 0.73834 0.0
O80 O 0.34744 0.37709 0.83058 0.0
H81 H 0.39879 0.33172 0.76581 0.0
H82 H 0.33416 0.3858 0.77243 0.0
O83 O 0.38719 0.34155 0.83491 0.0
C84 C 0.33675 0.40036 0.83094 0.0
O85 O 0.34956 0.4208 0.81864 0.0
N86 N 0.4177 0.38043 0.80073 0.0
C87 C 0.46034 0.41657 0.79298 0.0
C88 C 0.46121 0.39703 0.81588 0.0
C89 C 0.43985 0.37855 0.81896 0.0
C90 C 0.41826 0.39701 0.77623 0.0
C91 C 0.43955 0.415 0.77174 0.0
H92 H 0.43912 0.36611 0.83891 0.0
H93 H 0.40047 0.39942 0.76247 0.0
H94 H 0.38022 0.36748 0.88733 0.0
H95 H 0.41426 0.44525 0.89181 0.0
H96 H 0.36761 0.32564 0.71766 0.0
H97 H 0.47703 0.39752 0.83268 0.0
H98 H 0.438 0.42975 0.75385 0.0
C99 C 0.59734 0.90527 0.10394 0.0
C100 C 0.59132 0.90999 0.13365 0.0
N101 N 0.61152 0.90012 0.15066 0.0
N102 N 0.62154 0.89299 0.10202 0.0
C103 C 0.62951 0.88972 0.13095 0.0
H104 H 0.58485 0.91044 0.08484 0.0
Co105 Co 0.63782 0.8817 0.06582 0.0
C106 C 0.69566 0.89695 0.08557 0.0
O107 O 0.69873 0.91717 0.06679 0.0
N108 N 0.65317 0.86872 0.02906 0.0
C109 C 0.67565 0.86248 0.98611 0.0
C110 C 0.67309 0.87853 1.01148 0.0
C111 C 0.64404 0.84678 1.01368 0.0
N112 N 0.6574 0.84234 0.98766 0.0
O113 O 0.63497 0.84642 0.0789 0.0
H114 H 0.68459 0.89655 0.01624 0.0
H115 H 0.62719 0.83457 0.0208 0.0
O116 O 0.6736 0.88352 0.08552 0.0
C117 C 0.61127 0.83682 0.07684 0.0
O118 O 0.5917 0.852 0.06632 0.0
N119 N 0.63766 0.91769 0.05193 0.0
C120 C 0.60373 0.96223 0.04631 0.0
C121 C 0.62345 0.96144 0.06903 0.0
C122 C 0.64081 0.9391 0.07108 0.0
C123 C 0.62134 0.92008 0.02734 0.0
C124 C 0.6044 0.94233 0.02395 0.0
H125 H 0.65308 0.937 0.09104 0.0
H126 H 0.61802 0.90294 1.01276 0.0
H127 H 0.6481 0.8799 0.13747 0.0
H128 H 0.57316 0.91942 0.14214 0.0
H129 H 0.6899 0.86542 0.96798 0.0
H130 H 0.62371 0.97654 0.08666 0.0
H131 H 0.58951 0.94203 1.00611 0.0
C132 C 0.1118 0.42456 0.92718 0.0
C133 C 0.10879 0.43047 0.89713 0.0
N134 N 0.11739 0.40914 0.88088 0.0
N135 N 0.12195 0.39946 0.93005 0.0
C136 C 0.1254 0.3907 0.90147 0.0
H137 H 0.1068 0.43766 0.94583 0.0
Co138 Co 0.13105 0.3824 0.96649 0.0
C139 C 0.11362 0.3261 0.94219 0.0
O140 O 0.09136 0.32394 0.958 0.0
N141 N 0.14216 0.36631 1.00324 0.0
C142 C 0.15539 0.33891 0.04011 0.0
C143 C 0.13945 0.34124 1.01464 0.0
C144 C 0.15951 0.37878 0.02242 0.0
N145 N 0.16822 0.3626 0.04495 0.0
O146 O 0.16695 0.38418 0.95559 0.0
H147 H 0.12757 0.3253 1.00463 0.0
H148 H 0.16658 0.39919 0.01907 0.0
O149 O 0.12871 0.34689 0.94563 0.0
C150 C 0.17729 0.40747 0.95887 0.0
O151 O 0.16234 0.42768 0.96823 0.0
N152 N 0.09444 0.38373 0.97863 0.0
C153 C 0.05106 0.41927 0.98457 0.0
C154 C 0.05222 0.40109 0.96032 0.0
C155 C 0.07385 0.38288 0.95812 0.0
C156 C 0.09148 0.39857 1.00432 0.0
C157 C 0.06985 0.41628 1.00783 0.0
H158 H 0.07626 0.3717 0.9374 0.0
H159 H 0.10779 0.40011 0.02029 0.0
H160 H 0.13424 0.3714 0.89584 0.0
H161 H 0.10059 0.449 0.88808 0.0
H162 H 0.15766 0.3209 0.05362 0.0
H163 H 0.03791 0.40253 0.94198 0.0
H164 H 0.06981 0.42985 0.02695 0.0
C165 C 0.59555 0.60491 0.17513 0.0
C166 C 0.59028 0.59913 0.14539 0.0
N167 N 0.6113 0.60769 0.12875 0.0
N168 N 0.62005 0.61658 0.1774 0.0
C169 C 0.62904 0.61821 0.1487 0.0
H170 H 0.58215 0.60136 0.1939 0.0
Co171 Co 0.63545 0.63105 0.21276 0.0
C172 C 0.69353 0.61416 0.19373 0.0
O173 O 0.69674 0.59365 0.21209 0.0
N174 N 0.64999 0.64722 0.24809 0.0
C175 C 0.67509 0.65976 0.28727 0.0
C176 C 0.67328 0.64256 0.26286 0.0
C177 C 0.63797 0.66721 0.2642 0.0
N178 N 0.65281 0.67538 0.28819 0.0
O179 O 0.63316 0.66469 0.19519 0.0
H180 H 0.68798 0.62753 0.25657 0.0
H181 H 0.61868 0.67579 0.25824 0.0
O182 O 0.67157 0.62768 0.19437 0.0
C183 C 0.60948 0.67434 0.19423 0.0
O184 O 0.59004 0.66283 0.20966 0.0
N185 N 0.63486 0.59649 0.23077 0.0
C186 C 0.59951 0.55353 0.24003 0.0
C187 C 0.61936 0.55206 0.21756 0.0
C188 C 0.63751 0.5736 0.21379 0.0
C189 C 0.61854 0.59626 0.25549 0.0
C190 C 0.60084 0.57484 0.26067 0.0
H191 H 0.64992 0.57384 0.19382 0.0
H192 H 0.61574 0.61438 0.2686 0.0
H193 H 0.64797 0.6275 0.14242 0.0
H194 H 0.57193 0.59027 0.13659 0.0
H195 H 0.69147 0.66033 0.30335 0.0
H196 H 0.61909 0.53581 0.20125 0.0
H197 H 0.58591 0.57679 0.2783 0.0
C198 C 0.40718 0.10098 0.42452 0.0
C199 C 0.40962 0.09446 0.39451 0.0
N200 N 0.40367 0.11652 0.3781 0.0
N201 N 0.39969 0.12706 0.42713 0.0
C202 C 0.39772 0.13595 0.3984 0.0
H203 H 0.41037 0.0875 0.44331 0.0
Co204 Co 0.39096 0.14473 0.46355 0.0
C205 C 0.40765 0.20145 0.44103 0.0
O206 O 0.42911 0.20437 0.45807 0.0
N207 N 0.38043 0.16184 0.50038 0.0
C208 C 0.37608 0.18749 0.54144 0.0
C209 C 0.39128 0.18265 0.51589 0.0
C210 C 0.35882 0.1544 0.51727 0.0
N211 N 0.35545 0.16976 0.54211 0.0
O212 O 0.3551 0.1433 0.45247 0.0
H213 H 0.40925 0.19348 0.50941 0.0
H214 H 0.3459 0.13753 0.51198 0.0
O215 O 0.39358 0.17987 0.44289 0.0
C216 C 0.34477 0.12019 0.45711 0.0
O217 O 0.35963 0.10091 0.46882 0.0
N218 N 0.42741 0.14291 0.4756 0.0
C219 C 0.46932 0.1057 0.48085 0.0
C220 C 0.46876 0.12413 0.45682 0.0
C221 C 0.4479 0.14328 0.45504 0.0
C222 C 0.42988 0.12774 0.50108 0.0
C223 C 0.45085 0.10923 0.50429 0.0
H224 H 0.44581 0.1549 0.4346 0.0
H225 H 0.41344 0.12654 0.51692 0.0
H226 H 0.3912 0.15601 0.39232 0.0
H227 H 0.41539 0.075 0.38548 0.0
H228 H 0.37978 0.20307 0.55802 0.0
H229 H 0.48283 0.1222 0.43833 0.0
H230 H 0.45044 0.09543 0.52317 0.0
C231 C 0.91163 0.91391 0.67596 0.0
C232 C 0.9179 0.91755 0.6461 0.0
N233 N 0.89774 0.90726 0.62917 0.0
N234 N 0.88739 0.90175 0.67814 0.0
C235 C 0.87948 0.89786 0.64926 0.0
H236 H 0.9243 0.9191 0.69493 0.0
Co237 Co 0.8718 0.88812 0.71377 0.0
C238 C 0.81426 0.90641 0.69417 0.0
O239 O 0.81145 0.92739 0.71198 0.0
N240 N 0.85698 0.87266 0.74928 0.0
C241 C 0.83158 0.85983 0.78802 0.0
C242 C 0.83363 0.87731 0.76388 0.0
C243 C 0.86878 0.85243 0.7652 0.0
N244 N 0.85376 0.84404 0.7889 0.0
O245 O 0.87292 0.85403 0.69699 0.0
H246 H 0.81895 0.89234 0.75747 0.0
H247 H 0.88799 0.8437 0.75913 0.0
O248 O 0.83586 0.89237 0.69536 0.0
C249 C 0.89646 0.84408 0.69586 0.0
O250 O 0.91671 0.85732 0.70803 0.0
N251 N 0.87363 0.9229 0.73152 0.0
C252 C 0.90702 0.96682 0.74501 0.0
C253 C 0.88792 0.96857 0.72168 0.0
C254 C 0.8711 0.9463 0.7154 0.0
C255 C 0.8894 0.92252 0.75669 0.0
C256 C 0.90598 0.94429 0.76396 0.0
H257 H 0.85941 0.94647 0.69487 0.0
H258 H 0.89236 0.904 0.76902 0.0
H259 H 0.86136 0.88698 0.64312 0.0
H260 H 0.93617 0.92674 0.63763 0.0
H261 H 0.81504 0.85906 0.80384 0.0
H262 H 0.888 0.98563 0.70646 0.0
H263 H 0.91994 0.9423 0.78258 0.0
C264 C 0.61023 0.59243 0.85518 0.0
C265 C 0.60509 0.58618 0.8848 0.0
N266 N 0.61417 0.6066 0.90212 0.0
N267 N 0.62189 0.61702 0.85366 0.0
C268 C 0.62441 0.62493 0.88271 0.0
H269 H 0.60614 0.57969 0.83594 0.0
Co270 Co 0.63549 0.63373 0.81864 0.0
C271 C 0.61927 0.69146 0.838 0.0
O272 O 0.5998 0.69451 0.81827 0.0
N273 N 0.65099 0.64975 0.7834 0.0
C274 C 0.65829 0.67274 0.74099 0.0
C275 C 0.64185 0.67007 0.76591 0.0
C276 C 0.67323 0.64069 0.76858 0.0
N277 N 0.67813 0.65425 0.74275 0.0
O278 O 0.66953 0.63012 0.83511 0.0
H279 H 0.6237 0.68146 0.77009 0.0
H280 H 0.68511 0.62362 0.77578 0.0
O281 O 0.63265 0.66938 0.83861 0.0
C282 C 0.67796 0.60605 0.83208 0.0
O283 O 0.66454 0.58896 0.81508 0.0
N284 N 0.60038 0.63382 0.80143 0.0
C285 C 0.55913 0.59652 0.79084 0.0
C286 C 0.55726 0.61508 0.81481 0.0
C287 C 0.57785 0.63434 0.81916 0.0
C288 C 0.59988 0.61945 0.77522 0.0
C289 C 0.57915 0.60122 0.76919 0.0
H290 H 0.57804 0.64574 0.83991 0.0
H291 H 0.61743 0.61851 0.76094 0.0
H292 H 0.63406 0.64351 0.88957 0.0
H293 H 0.59623 0.56763 0.89304 0.0
H294 H 0.65563 0.68699 0.72279 0.0
H295 H 0.54194 0.61291 0.83195 0.0
H296 H 0.58065 0.58877 0.74925 0.0
C297 C 0.42664 0.1215 0.10614 0.0
C298 C 0.43308 0.11929 0.13617 0.0
N299 N 0.41072 0.12426 0.15244 0.0
N300 N 0.40032 0.12788 0.10335 0.0
C301 C 0.39117 0.12943 0.13201 0.0
H302 H 0.44032 0.11892 0.08743 0.0
Co303 Co 0.38297 0.13559 0.06657 0.0
C304 C 0.32684 0.1162 0.08833 0.0
O305 O 0.32528 0.09489 0.0708 0.0
N306 N 0.36667 0.14541 0.02921 0.0
C307 C 0.3388 0.15788 0.99236 0.0
C308 C 0.34155 0.14232 0.01801 0.0
C309 C 0.37874 0.16261 1.00955 0.0
N310 N 0.36223 0.17094 0.9871 0.0
O311 O 0.3825 0.17165 0.07697 0.0
H312 H 0.32573 0.13063 0.02831 0.0
H313 H 0.39907 0.16998 1.01251 0.0
O314 O 0.34757 0.13157 0.08686 0.0
C315 C 0.4045 0.18403 0.07214 0.0
O316 O 0.42555 0.17058 0.06227 0.0
N317 N 0.38627 0.09902 0.05512 0.0
C318 C 0.42239 0.05605 0.05025 0.0
C319 C 0.40395 0.05722 0.07419 0.0
C320 C 0.3855 0.07867 0.07588 0.0
C321 C 0.4016 0.09617 0.02983 0.0
C322 C 0.41958 0.0747 0.02682 0.0
H323 H 0.37384 0.08106 0.09624 0.0
H324 H 0.40311 0.11245 1.01383 0.0
H325 H 0.37085 0.13503 0.13794 0.0
H326 H 0.45269 0.11433 0.14532 0.0
H327 H 0.32059 0.15986 0.9791 0.0
H328 H 0.4053 0.04304 0.09266 0.0
H329 H 0.43343 0.0747 1.008 0.0
C330 C 0.89912 0.91993 0.35534 0.0
C331 C 0.90247 0.92678 0.3851 0.0
N332 N 0.89531 0.9055 0.40226 0.0
N333 N 0.89022 0.89426 0.35344 0.0
C334 C 0.88776 0.8861 0.38243 0.0
H335 H 0.90273 0.9329 0.3362 0.0
Co336 Co 0.88072 0.87669 0.31719 0.0
C337 C 0.8997 0.82111 0.33961 0.0
O338 O 0.92149 0.82013 0.32288 0.0
N339 N 0.86897 0.86007 0.28075 0.0
C340 C 0.85592 0.83212 0.24418 0.0
C341 C 0.87196 0.83495 0.26948 0.0
C342 C 0.8513 0.87206 0.26158 0.0
N343 N 0.8427 0.85552 0.23925 0.0
O344 O 0.84513 0.87792 0.32906 0.0
H345 H 0.88425 0.81932 0.27934 0.0
H346 H 0.84406 0.89242 0.26463 0.0
O347 O 0.88396 0.84148 0.3377 0.0
C348 C 0.83408 0.9007 0.32471 0.0
O349 O 0.84843 0.92079 0.31389 0.0
N350 N 0.91719 0.8783 0.30399 0.0
C351 C 0.95908 0.91507 0.2947 0.0
C352 C 0.95882 0.89849 0.3204 0.0
C353 C 0.93799 0.87951 0.3242 0.0
C354 C 0.91992 0.89073 0.27676 0.0
C355 C 0.94099 0.90874 0.27148 0.0
H356 H 0.93621 0.86949 0.3457 0.0
H357 H 0.90396 0.89006 0.26033 0.0
H358 H 0.88047 0.86634 0.38888 0.0
H359 H 0.90904 0.94625 0.3934 0.0
H360 H 0.85394 0.81399 0.23076 0.0
H361 H 0.97262 0.90201 0.33885 0.0
H362 H 0.94124 0.91972 0.25044 0.0
C363 C 0.0921 0.3949 0.60903 0.0
C364 C 0.08641 0.40041 0.63867 0.0
N365 N 0.10798 0.39349 0.65548 0.0
N366 N 0.11729 0.38487 0.60694 0.0
C367 C 0.12633 0.38396 0.63564 0.0
H368 H 0.07872 0.39795 0.59011 0.0
Co369 Co 0.13367 0.37332 0.57105 0.0
C370 C 0.19157 0.39068 0.58894 0.0
O371 O 0.19433 0.4099 0.56886 0.0
N372 N 0.14923 0.36034 0.5345 0.0
C373 C 0.16998 0.35662 0.49017 0.0
C374 C 0.16743 0.37196 0.51599 0.0
C375 C 0.14117 0.33791 0.51928 0.0
N376 N 0.15344 0.33512 0.4923 0.0
O377 O 0.13245 0.33821 0.58575 0.0
H378 H 0.17721 0.39108 0.52007 0.0
H379 H 0.12554 0.32443 0.52703 0.0
O380 O 0.16957 0.37718 0.5901 0.0
C381 C 0.10903 0.32787 0.58397 0.0
O382 O 0.08985 0.34111 0.56987 0.0
N383 N 0.13169 0.40883 0.55609 0.0
C384 C 0.09738 0.45291 0.54858 0.0
C385 C 0.11711 0.45302 0.57132 0.0
C386 C 0.13464 0.4309 0.5743 0.0
C387 C 0.11487 0.40997 0.53181 0.0
C388 C 0.09782 0.43198 0.52742 0.0
H389 H 0.14726 0.42971 0.59409 0.0
H390 H 0.11154 0.3922 0.51819 0.0
H391 H 0.14601 0.37652 0.6419 0.0
H392 H 0.0676 0.40838 0.6472 0.0
H393 H 0.18272 0.36123 0.4711 0.0
H394 H 0.11747 0.4689 0.58807 0.0
H395 H 0.08285 0.43095 0.5097 0.0
C396 C 0.60402 0.91912 0.42319 0.0
C397 C 0.59933 0.92439 0.39324 0.0
N398 N 0.60756 0.90292 0.37704 0.0
N399 N 0.61465 0.89419 0.42602 0.0
C400 C 0.61677 0.88493 0.39745 0.0
H401 H 0.60051 0.93282 0.44173 0.0
Co402 Co 0.6277 0.87867 0.46191 0.0
C403 C 0.60866 0.82092 0.44291 0.0
O404 O 0.58769 0.81826 0.46068 0.0
N405 N 0.6425 0.86405 0.49779 0.0
C406 C 0.65405 0.83914 0.53743 0.0
C407 C 0.63731 0.8409 0.51261 0.0
C408 C 0.6623 0.87604 0.51422 0.0
N409 N 0.66987 0.86133 0.5385 0.0
O410 O 0.66162 0.87885 0.44506 0.0
H411 H 0.62232 0.82621 0.506 0.0
H412 H 0.67124 0.8952 0.50822 0.0
O413 O 0.6228 0.84251 0.44401 0.0
C414 C 0.67236 0.90203 0.44308 0.0
O415 O 0.66171 0.92252 0.45762 0.0
N416 N 0.59298 0.88124 0.47912 0.0
C417 C 0.55147 0.91854 0.48656 0.0
C418 C 0.54946 0.89812 0.46468 0.0
C419 C 0.57027 0.87906 0.46179 0.0
C420 C 0.59314 0.89824 0.5033 0.0
C421 C 0.57246 0.91694 0.50756 0.0
H422 H 0.57027 0.86611 0.44221 0.0
H423 H 0.61117 0.90065 0.51664 0.0
H424 H 0.62548 0.86561 0.39162 0.0
H425 H 0.59151 0.94302 0.38401 0.0
H426 H 0.65422 0.82286 0.55362 0.0
H427 H 0.53341 0.89851 0.44816 0.0
H428 H 0.57485 0.93224 0.52478 0.0
C429 C 0.15437 0.08228 0.67399 0.0
C430 C 0.15218 0.07587 0.644 0.0
N431 N 0.14743 0.09867 0.62849 0.0
N432 N 0.14994 0.10896 0.678 0.0
C433 C 0.14708 0.11848 0.64945 0.0
H434 H 0.16058 0.06832 0.69119 0.0
Co435 Co 0.15365 0.12942 0.71428 0.0
C436 C 0.20758 0.13616 0.69472 0.0
O437 O 0.2113 0.11406 0.71051 0.0
N438 N 0.15888 0.14987 0.75005 0.0
C439 C 0.17704 0.16034 0.79438 0.0
C440 C 0.17703 0.14221 0.77088 0.0
C441 C 0.14794 0.17291 0.76161 0.0
N442 N 0.15871 0.17977 0.78872 0.0
O443 O 0.12998 0.15684 0.69844 0.0
H444 H 0.18946 0.12434 0.76912 0.0
H445 H 0.13256 0.18454 0.75036 0.0
O446 O 0.18434 0.14731 0.69519 0.0
C447 C 0.10754 0.15516 0.68433 0.0
O448 O 0.09693 0.1316 0.67752 0.0
N449 N 0.12355 0.11122 0.73304 0.0
C450 C 0.07665 0.08254 0.74811 0.0
C451 C 0.10135 0.06911 0.74418 0.0
C452 C 0.12468 0.08397 0.73736 0.0
C453 C 0.10085 0.12476 0.74201 0.0
C454 C 0.07698 0.11084 0.74856 0.0
H455 H 0.14356 0.07347 0.73497 0.0
H456 H 0.10038 0.14653 0.74241 0.0
H457 H 0.14507 0.13966 0.64402 0.0
H458 H 0.15507 0.05605 0.63423 0.0
H459 H 0.18933 0.15895 0.81444 0.0
H460 H 0.10248 0.0473 0.74509 0.0
H461 H 0.05879 0.12216 0.75327 0.0
C462 C 0.90414 0.59625 0.9256 0.0
C463 C 0.9088 0.58963 0.896 0.0
N464 N 0.90087 0.61045 0.87854 0.0
N465 N 0.89372 0.62134 0.92705 0.0
C466 C 0.89174 0.62937 0.89803 0.0
H467 H 0.90772 0.58345 0.94488 0.0
Co468 Co 0.8805 0.63822 0.96209 0.0
C469 C 0.89697 0.69497 0.93974 0.0
O470 O 0.91832 0.69729 0.95706 0.0
N471 N 0.86517 0.65425 0.99722 0.0
C472 C 0.85168 0.68142 0.03427 0.0
C473 C 0.86843 0.67893 1.00956 0.0
C474 C 0.84651 0.64215 0.01513 0.0
N475 N 0.83776 0.65819 0.03781 0.0
O476 O 0.8462 0.63363 0.94656 0.0
H477 H 0.88195 0.69428 1.00122 0.0
H478 H 0.83908 0.62196 1.01132 0.0
O479 O 0.88235 0.6737 0.94143 0.0
C480 C 0.83805 0.60954 0.95041 0.0
O481 O 0.85231 0.59276 0.96684 0.0
N482 N 0.91599 0.63935 0.97857 0.0
C483 C 0.95653 0.60129 0.98847 0.0
C484 C 0.95815 0.61925 0.964 0.0
C485 C 0.93798 0.6389 0.95998 0.0
C486 C 0.91723 0.62595 1.00537 0.0
C487 C 0.93747 0.60704 1.01086 0.0
H488 H 0.93743 0.64967 0.93884 0.0
H489 H 0.90045 0.62625 0.02074 0.0
H490 H 0.88262 0.64823 0.89124 0.0
H491 H 0.91723 0.5708 0.88807 0.0
H492 H 0.8501 0.69901 0.04859 0.0
H493 H 0.9728 0.61626 0.94629 0.0
H494 H 0.9363 0.59499 0.03112 0.0
C495 C 0.41555 0.41105 0.17335 0.0
C496 C 0.42103 0.4154 0.14343 0.0
N497 N 0.39931 0.40792 0.12714 0.0
N498 N 0.39031 0.40124 0.17616 0.0
C499 C 0.38096 0.39943 0.14759 0.0
H500 H 0.42939 0.41402 0.19189 0.0
Co501 Co 0.37516 0.38812 0.21216 0.0
C502 C 0.31705 0.40736 0.1956 0.0
O503 O 0.31452 0.42767 0.2144 0.0
N504 N 0.36091 0.37344 0.24824 0.0
C505 C 0.34091 0.36704 0.29253 0.0
C506 C 0.34203 0.38318 0.26718 0.0
C507 C 0.37072 0.35127 0.2625 0.0
N508 N 0.35897 0.3469 0.2895 0.0
O509 O 0.37438 0.35428 0.19476 0.0
H510 H 0.33063 0.40146 0.2635 0.0
H511 H 0.38715 0.33921 0.25394 0.0
O512 O 0.33884 0.39361 0.19537 0.0
C513 C 0.39752 0.34365 0.19229 0.0
O514 O 0.41798 0.35401 0.20716 0.0
N515 N 0.37878 0.42265 0.22973 0.0
C516 C 0.41528 0.46472 0.23884 0.0
C517 C 0.39508 0.46682 0.21676 0.0
C518 C 0.37638 0.44572 0.21307 0.0
C519 C 0.39601 0.422 0.2537 0.0
C520 C 0.41416 0.44302 0.2589 0.0
H521 H 0.3633 0.44602 0.1936 0.0
H522 H 0.39882 0.40355 0.26623 0.0
H523 H 0.36136 0.39133 0.14185 0.0
H524 H 0.44001 0.42242 0.13432 0.0
H525 H 0.32804 0.37012 0.31187 0.0
H526 H 0.39528 0.48335 0.20083 0.0
H527 H 0.42947 0.44053 0.27608 0.0
H528 H 0.11874 0.14713 0.44115 0.0
H529 H 0.13762 0.06216 0.43876 0.0
H530 H 0.12438 0.14712 0.49588 0.0
H531 H 0.14394 0.06214 0.49284 0.0
H532 H 0.12538 0.06132 0.59166 0.0
H533 H 0.11938 0.06389 0.53758 0.0
H534 H 0.15489 0.14363 0.53746 0.0
H535 H 0.16023 0.14115 0.59215 0.0
C536 C 0.12426 0.1285 0.45227 0.0
C537 C 0.12724 0.10455 0.43556 0.0
C538 C 0.12761 0.12848 0.48368 0.0
C539 C 0.13428 0.10453 0.49913 0.0
C540 C 0.138 0.08083 0.48211 0.0
C541 C 0.1344 0.08082 0.45092 0.0
C542 C 0.13207 0.07935 0.58012 0.0
C543 C 0.14354 0.10089 0.5963 0.0
C544 C 0.12871 0.08084 0.54895 0.0
C545 C 0.13698 0.10383 0.53276 0.0
C546 C 0.14805 0.12566 0.54902 0.0
C547 C 0.15119 0.12425 0.58043 0.0
H548 H 0.90174 0.56818 0.83945 0.0
H549 H 0.90025 0.65535 0.8431 0.0
H550 H 0.90328 0.56995 0.78492 0.0
H551 H 0.90161 0.65706 0.78827 0.0
H552 H 0.87837 0.64776 0.68804 0.0
H553 H 0.87523 0.6466 0.74283 0.0
H554 H 0.93432 0.58266 0.74525 0.0
H555 H 0.93685 0.58326 0.69064 0.0
C556 C 0.90197 0.58777 0.82874 0.0
C557 C 0.90109 0.61162 0.84597 0.0
C558 C 0.90282 0.58878 0.79732 0.0
C559 C 0.90274 0.61365 0.78209 0.0
C560 C 0.90142 0.63753 0.79921 0.0
C561 C 0.90065 0.63654 0.83073 0.0
C562 C 0.89051 0.63329 0.70021 0.0
C563 C 0.90787 0.61559 0.68476 0.0
C564 C 0.88892 0.63283 0.7317 0.0
C565 C 0.90449 0.61451 0.74855 0.0
C566 C 0.92179 0.59682 0.73306 0.0
C567 C 0.92348 0.59738 0.70166 0.0
H568 H 0.36918 0.37395 0.09239 0.0
H569 H 0.42497 0.44078 0.08792 0.0
H570 H 0.36699 0.37281 0.03741 0.0
H571 H 0.42337 0.43922 0.0333 0.0
H572 H 0.39367 0.44897 0.93799 0.0
H573 H 0.39261 0.44903 0.99252 0.0
H574 H 0.39492 0.36188 0.99283 0.0
H575 H 0.3961 0.3618 0.93779 0.0
C576 C 0.38085 0.38849 0.07974 0.0
C577 C 0.39723 0.40751 0.09467 0.0
C578 C 0.37983 0.38764 0.04819 0.0
C579 C 0.39496 0.40596 0.03082 0.0
C580 C 0.41118 0.42501 0.04585 0.0
C581 C 0.41231 0.42575 0.07725 0.0
C582 C 0.3942 0.42976 0.94951 0.0
C583 C 0.3954 0.40538 0.93327 0.0
C584 C 0.39354 0.42981 0.98093 0.0
C585 C 0.394 0.40549 0.99721 0.0
C586 C 0.39437 0.38101 0.98105 0.0
C587 C 0.39508 0.38095 0.94946 0.0
H588 H 0.571 0.92292 0.33803 0.0
H589 H 0.64545 0.87826 0.34257 0.0
H590 H 0.57247 0.92129 0.2834 0.0
H591 H 0.64784 0.87756 0.28775 0.0
H592 H 0.63194 0.86134 0.18729 0.0
H593 H 0.6309 0.86065 0.24228 0.0
H594 H 0.59394 0.93972 0.2422 0.0
H595 H 0.59401 0.93959 0.18755 0.0
C596 C 0.58783 0.91293 0.32726 0.0
C597 C 0.60812 0.90082 0.34464 0.0
C598 C 0.58885 0.91212 0.29583 0.0
C599 C 0.6105 0.89961 0.28076 0.0
C600 C 0.63065 0.88713 0.29829 0.0
C601 C 0.62937 0.88757 0.32981 0.0
C602 C 0.62377 0.87857 0.19917 0.0
C603 C 0.61284 0.90041 0.18311 0.0
C604 C 0.6232 0.87826 0.23074 0.0
C605 C 0.61202 0.89999 0.24705 0.0
C606 C 0.60196 0.92219 0.23073 0.0
C607 C 0.60214 0.92227 0.19929 0.0
H608 H 0.08225 0.42884 0.69208 0.0
H609 H 0.13956 0.36325 0.69253 0.0
H610 H 0.08545 0.43205 0.74653 0.0
H611 H 0.14338 0.36701 0.74717 0.0
H612 H 0.11771 0.36284 0.84768 0.0
H613 H 0.11676 0.35894 0.79301 0.0
H614 H 0.117 0.44585 0.78543 0.0
H615 H 0.11812 0.4498 0.83989 0.0
C616 C 0.09553 0.41506 0.70377 0.0
C617 C 0.11056 0.39572 0.6878 0.0
C618 C 0.09761 0.41711 0.73505 0.0
C619 C 0.11474 0.39984 0.75132 0.0
C620 C 0.12983 0.38049 0.7354 0.0
C621 C 0.12785 0.37853 0.70401 0.0
C622 C 0.11788 0.38115 0.83442 0.0
C623 C 0.11779 0.40667 0.84843 0.0
C624 C 0.11734 0.37889 0.80299 0.0
C625 C 0.11661 0.40208 0.78475 0.0
C626 C 0.11701 0.42755 0.79874 0.0
C627 C 0.11762 0.42981 0.83009 0.0
H628 H 0.57565 0.58736 0.93922 0.0
H629 H 0.65238 0.62832 0.93862 0.0
H630 H 0.57538 0.58821 0.99391 0.0
H631 H 0.65297 0.62822 0.99352 0.0
H632 H 0.63473 0.64526 0.09276 0.0
H633 H 0.6354 0.6459 0.03793 0.0
H634 H 0.59384 0.56906 0.03647 0.0
H635 H 0.59219 0.56932 0.09115 0.0
C636 C 0.59262 0.59632 0.95088 0.0
C637 C 0.61402 0.60774 0.93459 0.0
C638 C 0.59262 0.59668 0.98236 0.0
C639 C 0.6143 0.60804 0.99857 0.0
C640 C 0.63569 0.61962 0.98211 0.0
C641 C 0.63544 0.61965 0.95055 0.0
C642 C 0.62588 0.62848 0.08065 0.0
C643 C 0.61325 0.60731 0.09632 0.0
C644 C 0.62632 0.62875 0.0491 0.0
C645 C 0.6145 0.60762 0.03235 0.0
C646 C 0.60252 0.58612 0.04826 0.0
C647 C 0.60171 0.58611 0.07972 0.0
H648 H 0.38917 0.07774 0.33824 0.0
H649 H 0.41712 0.16008 0.34441 0.0
H650 H 0.38953 0.08082 0.2833 0.0
H651 H 0.41777 0.16309 0.28937 0.0
H652 H 0.44861 0.14056 0.19238 0.0
H653 H 0.44559 0.1398 0.24728 0.0
H654 H 0.36489 0.10757 0.24108 0.0
H655 H 0.36785 0.10863 0.18601 0.0
C656 C 0.39544 0.09648 0.32784 0.0
C657 C 0.40322 0.11863 0.34568 0.0
C658 C 0.39544 0.09831 0.29639 0.0
C659 C 0.4037 0.12218 0.28199 0.0
C660 C 0.41142 0.14439 0.29982 0.0
C661 C 0.41091 0.14272 0.3313 0.0
C662 C 0.43023 0.13333 0.20274 0.0
C663 C 0.40851 0.12456 0.18485 0.0
C664 C 0.42842 0.13309 0.23417 0.0
C665 C 0.40502 0.1236 0.24852 0.0
C666 C 0.38323 0.11488 0.23066 0.0
C667 C 0.38485 0.11563 0.19917 0.0
H668 H 0.86438 0.87374 0.4387 0.0
H669 H 0.92672 0.93465 0.44027 0.0
H670 H 0.86457 0.87267 0.49374 0.0
H671 H 0.92633 0.9342 0.49485 0.0
H672 H 0.94035 0.90767 0.59074 0.0
H673 H 0.93935 0.90588 0.53625 0.0
H674 H 0.8525 0.89995 0.53814 0.0
H675 H 0.85347 0.90182 0.5931 0.0
C676 C 0.87817 0.88683 0.45069 0.0
C677 C 0.89551 0.90432 0.43485 0.0
C678 C 0.87808 0.88644 0.4823 0.0
C679 C 0.89549 0.90333 0.49889 0.0
C680 C 0.91286 0.92065 0.48297 0.0
C681 C 0.91286 0.92114 0.45152 0.0
C682 C 0.92095 0.90626 0.57973 0.0
C683 C 0.89697 0.90526 0.59661 0.0
C684 C 0.92039 0.90517 0.54829 0.0
C685 C 0.89584 0.90304 0.53259 0.0
C686 C 0.87182 0.90139 0.54941 0.0
C687 C 0.87238 0.9025 0.58099 0.0
H688 H 0.27651 0.093 0.09184 0.0
H689 H 0.32659 0.15293 0.13508 0.0
H690 H 0.24075 0.10181 0.12842 0.0
H691 H 0.29114 0.16097 0.17222 0.0
H692 H 0.23117 0.14192 0.25202 0.0
H693 H 0.26714 0.13408 0.21511 0.0
H694 H 0.20927 0.14146 0.14315 0.0
H695 H 0.1735 0.14976 0.17998 0.0
C696 C 0.28002 0.10798 0.10916 0.0
C697 C 0.30472 0.12205 0.11044 0.0
C698 C 0.25942 0.11307 0.13013 0.0
C699 C 0.26305 0.132 0.15344 0.0
C700 C 0.28773 0.14605 0.15481 0.0
C701 C 0.3081 0.14141 0.13341 0.0
C702 C 0.22615 0.14185 0.22833 0.0
C703 C 0.1994 0.14654 0.21903 0.0
C704 C 0.24679 0.13752 0.20715 0.0
C705 C 0.24116 0.13711 0.17609 0.0
C706 C 0.21435 0.1415 0.16684 0.0
C707 C 0.19385 0.14644 0.18797 0.0
H708 H 0.82427 0.69973 0.45705 0.0
H709 H 0.90977 0.69066 0.47245 0.0
H710 H 0.83336 0.73507 0.42039 0.0
H711 H 0.91878 0.72669 0.43668 0.0
H712 H 0.9282 0.77429 0.34917 0.0
H713 H 0.9186 0.73799 0.3846 0.0
H714 H 0.848 0.78088 0.41527 0.0
H715 H 0.85731 0.81691 0.37934 0.0
C716 C 0.84504 0.70511 0.45267 0.0
C717 C 0.86621 0.69202 0.468 0.0
C718 C 0.85026 0.72576 0.43176 0.0
C719 C 0.87686 0.73403 0.42537 0.0
C720 C 0.89803 0.72084 0.44058 0.0
C721 C 0.89281 0.70023 0.46151 0.0
C722 C 0.91057 0.77601 0.36339 0.0
C723 C 0.89356 0.79868 0.3612 0.0
C724 C 0.90513 0.75517 0.38397 0.0
C725 C 0.8825 0.75628 0.40309 0.0
C726 C 0.86542 0.77894 0.40078 0.0
C727 C 0.87086 0.79979 0.38019 0.0
H728 H 0.34574 0.35295 0.67739 0.0
H729 H 0.29111 0.36984 0.75035 0.0
H730 H 0.30927 0.36081 0.64117 0.0
H731 H 0.25457 0.3774 0.7142 0.0
H732 H 0.19061 0.35854 0.63959 0.0
H733 H 0.22694 0.3503 0.67564 0.0
H734 H 0.28024 0.40061 0.62341 0.0
H735 H 0.24374 0.4095 0.58773 0.0
C736 C 0.32592 0.35817 0.68572 0.0
C737 C 0.32144 0.36078 0.71685 0.0
C738 C 0.30503 0.36286 0.66494 0.0
C739 C 0.27891 0.36976 0.6747 0.0
C740 C 0.27435 0.37199 0.70585 0.0
C741 C 0.29536 0.36784 0.72659 0.0
C742 C 0.20997 0.36805 0.63581 0.0
C743 C 0.21398 0.38495 0.61072 0.0
C744 C 0.23085 0.36331 0.65657 0.0
C745 C 0.25658 0.3748 0.65253 0.0
C746 C 0.26076 0.39129 0.62719 0.0
C747 C 0.23973 0.39648 0.60675 0.0
H748 H 0.66231 0.84458 0.92678 0.0
H749 H 0.6417 0.79088 0.99947 0.0
H750 H 0.6535 0.80828 0.89048 0.0
H751 H 0.63323 0.75451 0.96327 0.0
H752 H 0.65044 0.68938 0.88938 0.0
H753 H 0.65976 0.72557 0.92542 0.0
H754 H 0.6127 0.78074 0.8719 0.0
H755 H 0.60274 0.74442 0.83621 0.0
C756 C 0.65607 0.825 0.93504 0.0
C757 C 0.65268 0.82075 0.96611 0.0
C758 C 0.65084 0.80421 0.91421 0.0
C759 C 0.64263 0.77838 0.92387 0.0
C760 C 0.63965 0.77404 0.95498 0.0
C761 C 0.64432 0.79497 0.97575 0.0
C762 C 0.64192 0.70915 0.88528 0.0
C763 C 0.62562 0.71375 0.85982 0.0
C764 C 0.64726 0.72994 0.90605 0.0
C765 C 0.63699 0.75616 0.90166 0.0
C766 C 0.62109 0.76089 0.87596 0.0
C767 C 0.61528 0.73997 0.85552 0.0
H768 H 0.18371 0.41228 0.06539 0.0
H769 H 0.19987 0.32721 0.07624 0.0
H770 H 0.21931 0.42282 0.10129 0.0
H771 H 0.23487 0.33772 0.11295 0.0
H772 H 0.31534 0.36663 0.15343 0.0
H773 H 0.27945 0.35594 0.1178 0.0
H774 H 0.23178 0.42155 0.15323 0.0
H775 H 0.26794 0.43256 0.18847 0.0
C776 C 0.19475 0.39573 0.07539 0.0
C777 C 0.18868 0.36881 0.06754 0.0
C778 C 0.21512 0.40181 0.09638 0.0
C779 C 0.23025 0.3812 0.11027 0.0
C780 C 0.22404 0.35426 0.1026 0.0
C781 C 0.2036 0.34817 0.08167 0.0
C782 C 0.29722 0.37883 0.15369 0.0
C783 C 0.29474 0.40055 0.174 0.0
C784 C 0.27645 0.37255 0.13327 0.0
C785 C 0.25244 0.38778 0.13239 0.0
C786 C 0.24998 0.40949 0.15277 0.0
C787 C 0.27074 0.41574 0.17322 0.0
H788 H 0.5812 0.77369 0.43104 0.0
H789 H 0.65125 0.81903 0.40324 0.0
H790 H 0.5917 0.73892 0.39389 0.0
H791 H 0.66156 0.78446 0.36585 0.0
H792 H 0.68788 0.7042 0.32298 0.0
H793 H 0.6773 0.73867 0.36025 0.0
H794 H 0.59254 0.72971 0.34043 0.0
H795 H 0.60309 0.69465 0.30365 0.0
C796 C 0.59886 0.77631 0.41704 0.0
C797 C 0.61535 0.79931 0.42039 0.0
C798 C 0.6048 0.75637 0.39547 0.0
C799 C 0.62753 0.75866 0.37661 0.0
C800 C 0.64408 0.78164 0.38008 0.0
C801 C 0.63807 0.80164 0.40154 0.0
C802 C 0.66694 0.70934 0.32664 0.0
C803 C 0.64641 0.69633 0.3101 0.0
C804 C 0.66086 0.72945 0.34791 0.0
C805 C 0.634 0.73722 0.35359 0.0
C806 C 0.61345 0.72421 0.33706 0.0
C807 C 0.61954 0.7042 0.31562 0.0
H808 H 0.20272 0.16497 0.64198 0.0
H809 H 0.26176 0.12743 0.69964 0.0
H810 H 0.23822 0.17512 0.60523 0.0
H811 H 0.29713 0.13778 0.66325 0.0
H812 H 0.35822 0.18123 0.60191 0.0
H813 H 0.32242 0.17612 0.63943 0.0
H814 H 0.26805 0.14818 0.57028 0.0
H815 H 0.30379 0.15328 0.53285 0.0
C816 C 0.22332 0.15934 0.6471 0.0
C817 C 0.22935 0.14549 0.6739 0.0
C818 C 0.24366 0.16492 0.62589 0.0
C819 C 0.27064 0.15724 0.63117 0.0
C820 C 0.27671 0.14423 0.65846 0.0
C821 C 0.25636 0.13822 0.67934 0.0
C822 C 0.33859 0.17419 0.59467 0.0
C823 C 0.33405 0.16753 0.5643 0.0
C824 C 0.31807 0.1711 0.61623 0.0
C825 C 0.29224 0.16172 0.60798 0.0
C826 C 0.28755 0.15565 0.57749 0.0
C827 C 0.30818 0.15831 0.55604 0.0
H828 H 0.85404 0.69782 0.90032 0.0
H829 H 0.92474 0.742 0.92856 0.0
H830 H 0.84373 0.73324 0.86383 0.0
H831 H 0.9143 0.7775 0.89241 0.0
H832 H 0.9032 0.82376 0.80387 0.0
H833 H 0.91334 0.78771 0.83946 0.0
H834 H 0.82852 0.77943 0.85911 0.0
H835 H 0.81833 0.81496 0.82294 0.0
C836 C 0.86736 0.71512 0.89891 0.0
C837 C 0.89025 0.71689 0.91762 0.0
C838 C 0.86136 0.73559 0.87798 0.0
C839 C 0.87813 0.75847 0.87492 0.0
C840 C 0.90103 0.76016 0.89364 0.0
C841 C 0.90695 0.73977 0.91464 0.0
C842 C 0.88663 0.81417 0.81553 0.0
C843 C 0.85988 0.82256 0.81028 0.0
C844 C 0.89249 0.79356 0.83631 0.0
C845 C 0.87181 0.78045 0.85246 0.0
C846 C 0.84505 0.78871 0.84705 0.0
C847 C 0.8392 0.80943 0.82641 0.0
H848 H 0.7299 0.63936 0.75376 0.0
H849 H 0.67431 0.65718 0.68194 0.0
H850 H 0.7656 0.63067 0.71673 0.0
H851 H 0.70975 0.64789 0.6449 0.0
H852 H 0.77358 0.59526 0.59191 0.0
H853 H 0.73811 0.60523 0.62854 0.0
H854 H 0.79203 0.65907 0.67549 0.0
H855 H 0.82721 0.64999 0.63829 0.0
C856 C 0.72528 0.6413 0.73007 0.0
C857 C 0.69923 0.64903 0.72086 0.0
C858 C 0.74576 0.63647 0.70885 0.0
C859 C 0.74057 0.63856 0.6778 0.0
C860 C 0.71443 0.64599 0.6686 0.0
C861 C 0.69416 0.65147 0.68983 0.0
C862 C 0.77793 0.60932 0.60994 0.0
C863 C 0.8035 0.62162 0.61208 0.0
C864 C 0.75751 0.61509 0.63092 0.0
C865 C 0.76222 0.63285 0.65509 0.0
C866 C 0.78778 0.6451 0.65734 0.0
C867 C 0.80798 0.63987 0.63592 0.0
H868 H 0.41132 0.18766 0.96624 0.0
H869 H 0.32587 0.20168 0.95606 0.0
H870 H 0.42062 0.22347 0.93018 0.0
H871 H 0.33516 0.23682 0.91922 0.0
H872 H 0.36136 0.31774 0.87775 0.0
H873 H 0.35206 0.28186 0.91386 0.0
H874 H 0.41859 0.23569 0.87824 0.0
H875 H 0.4282 0.27182 0.84256 0.0
C876 C 0.39443 0.19826 0.95635 0.0
C877 C 0.36777 0.1915 0.96443 0.0
C878 C 0.3998 0.21875 0.93528 0.0
C879 C 0.37871 0.23333 0.92153 0.0
C880 C 0.35205 0.22645 0.92945 0.0
C881 C 0.34667 0.2059 0.95045 0.0
C882 C 0.37405 0.29996 0.87756 0.0
C883 C 0.39559 0.29788 0.85705 0.0
C884 C 0.36858 0.27918 0.89826 0.0
C885 C 0.38449 0.25558 0.89922 0.0
C886 C 0.40603 0.25356 0.87866 0.0
C887 C 0.41147 0.27432 0.85794 0.0
H888 H 0.82667 0.90476 0.21821 0.0
H889 H 0.81159 0.81934 0.2083 0.0
H890 H 0.79132 0.91436 0.18173 0.0
H891 H 0.77682 0.82893 0.17103 0.0
H892 H 0.69667 0.85666 0.12835 0.0
H893 H 0.73201 0.84668 0.16498 0.0
H894 H 0.78008 0.91201 0.12947 0.0
H895 H 0.74458 0.92226 0.09329 0.0
C896 C 0.81591 0.88795 0.20831 0.0
C897 C 0.82224 0.8612 0.21654 0.0
C898 C 0.79569 0.89348 0.187 0.0
C899 C 0.78097 0.87248 0.17316 0.0
C900 C 0.78736 0.84573 0.1813 0.0
C901 C 0.80766 0.84019 0.20255 0.0
C902 C 0.71477 0.86891 0.12829 0.0
C903 C 0.71758 0.89033 0.10769 0.0
C904 C 0.73522 0.86307 0.14928 0.0
C905 C 0.75914 0.87849 0.15045 0.0
C906 C 0.76192 0.89985 0.12975 0.0
C907 C 0.74153 0.90565 0.10873 0.0
H908 H 0.09805 0.24119 0.33783 0.0
H909 H 0.15231 0.18783 0.38505 0.0
H910 H 0.10647 0.27632 0.37547 0.0
H911 H 0.15996 0.22261 0.42301 0.0
H912 H 0.14131 0.28234 0.50188 0.0
H913 H 0.13308 0.24732 0.46394 0.0
H914 H 0.14589 0.30585 0.3936 0.0
H915 H 0.15438 0.34075 0.43153 0.0
C916 C 0.11166 0.23682 0.35625 0.0
C917 C 0.12422 0.21138 0.35839 0.0
C918 C 0.11655 0.25704 0.37781 0.0
C919 C 0.13379 0.25229 0.40243 0.0
C920 C 0.14631 0.22688 0.40461 0.0
C921 C 0.14184 0.20686 0.38276 0.0
C922 C 0.14232 0.28773 0.47833 0.0
C923 C 0.14858 0.31439 0.46981 0.0
C924 C 0.13777 0.26763 0.45656 0.0
C925 C 0.1388 0.27372 0.42566 0.0
C926 C 0.14477 0.30045 0.41716 0.0
C927 C 0.14985 0.32043 0.43891 0.0
H928 H 0.68916 0.91113 0.55397 0.0
H929 H 0.698 0.82635 0.57397 0.0
H930 H 0.72389 0.92185 0.59105 0.0
H931 H 0.73221 0.8371 0.61154 0.0
H932 H 0.81252 0.86355 0.65471 0.0
H933 H 0.77812 0.85292 0.61722 0.0
H934 H 0.73256 0.92294 0.64469 0.0
H935 H 0.76714 0.93374 0.68196 0.0
C936 C 0.69849 0.89471 0.56616 0.0
C937 C 0.69054 0.8678 0.56072 0.0
C938 C 0.71831 0.90091 0.58777 0.0
C939 C 0.73105 0.88041 0.60456 0.0
C940 C 0.72319 0.8535 0.599 0.0
C941 C 0.70324 0.84732 0.57755 0.0
C942 C 0.79516 0.8767 0.65287 0.0
C943 C 0.79277 0.89954 0.67159 0.0
C944 C 0.77527 0.8705 0.63136 0.0
C945 C 0.75234 0.88701 0.6277 0.0
C946 C 0.74998 0.90987 0.64644 0.0
C947 C 0.76981 0.91599 0.66806 0.0
H948 H 0.15925 0.32204 0.90699 0.0
H949 H 0.08308 0.28262 0.92375 0.0
H950 H 0.16965 0.2884 0.86847 0.0
H951 H 0.09354 0.24894 0.88534 0.0
H952 H 0.11037 0.20571 0.79506 0.0
H953 H 0.09925 0.24173 0.83095 0.0
H954 H 0.18128 0.24098 0.86345 0.0
H955 H 0.19232 0.20552 0.82757 0.0
C956 C 0.14471 0.30618 0.9026 0.0
C957 C 0.12035 0.30514 0.91885 0.0
C958 C 0.15073 0.28675 0.88045 0.0
C959 C 0.13249 0.26572 0.87355 0.0
C960 C 0.10802 0.26487 0.88961 0.0
C961 C 0.10211 0.28416 0.91194 0.0
C962 C 0.12608 0.21346 0.80963 0.0
C963 C 0.15224 0.20244 0.80837 0.0
C964 C 0.11966 0.23398 0.83049 0.0
C965 C 0.1393 0.2444 0.85042 0.0
C966 C 0.16558 0.23381 0.8485 0.0
C967 C 0.17189 0.21317 0.82798 0.0
H968 H 0.82134 0.60849 0.05722 0.0
H969 H 0.80735 0.6937 0.07031 0.0
H970 H 0.7867 0.59817 0.09429 0.0
H971 H 0.77329 0.68339 0.10808 0.0
H972 H 0.69395 0.65526 0.15198 0.0
H973 H 0.72846 0.66573 0.11465 0.0
H974 H 0.77678 0.5994 0.14713 0.0
H975 H 0.74208 0.58867 0.18411 0.0
C976 C 0.81094 0.6251 0.0679 0.0
C977 C 0.81739 0.65201 0.06044 0.0
C978 C 0.79114 0.61915 0.08956 0.0
C979 C 0.77697 0.63988 0.10447 0.0
C980 C 0.78341 0.66679 0.097 0.0
C981 C 0.8033 0.67274 0.07544 0.0
C982 C 0.71194 0.64289 0.15125 0.0
C983 C 0.71506 0.62106 0.17126 0.0
C984 C 0.7319 0.64902 0.12984 0.0
C985 C 0.75565 0.63348 0.12761 0.0
C986 C 0.75874 0.61168 0.1477 0.0
C987 C 0.73882 0.60561 0.16917 0.0
H988 H 0.373 0.29493 0.2781 0.0
H989 H 0.36015 0.35155 0.35032 0.0
H990 H 0.38429 0.25971 0.31484 0.0
H991 H 0.37196 0.31655 0.38703 0.0
H992 H 0.42729 0.2533 0.43697 0.0
H993 H 0.41515 0.2884 0.40065 0.0
H994 H 0.35909 0.23374 0.3582 0.0
H995 H 0.37039 0.19895 0.39507 0.0
C996 C 0.3727 0.29988 0.30181 0.0
C997 C 0.3656 0.32606 0.31123 0.0
C998 C 0.37902 0.27967 0.32287 0.0
C999 C 0.37907 0.28529 0.35391 0.0
C1000 C 0.37225 0.31156 0.36332 0.0
C1001 C 0.3653 0.33157 0.34229 0.0
C1002 C 0.41231 0.24871 0.41997 0.0
C1003 C 0.40004 0.22305 0.41897 0.0
C1004 C 0.4053 0.26891 0.39919 0.0
C1005 C 0.38623 0.26388 0.37638 0.0
C1006 C 0.37404 0.23823 0.37526 0.0
C1007 C 0.38057 0.21824 0.39647 0.0
H1008 H 0.04788 0.06187 0.34201 0.0
H1009 H 0.03312 0.06943 0.24678 0.0
H1010 H 0.02409 0.0185 0.34231 0.0
H1011 H 0.00928 0.02612 0.24705 0.0
H1012 H 0.94373 0.9629 0.26885 0.0
H1013 H 0.96701 1.00584 0.26873 0.0
H1014 H 0.0319 0.97119 0.32048 0.0
H1015 H 0.00903 0.9273 0.31973 0.0
C1016 C 0.03899 0.05455 0.32128 0.0
C1017 C 0.04204 0.06923 0.29442 0.0
C1018 C 0.02578 0.02952 0.32137 0.0
C1019 C 0.015 0.01877 0.29467 0.0
C1020 C 0.01729 0.03389 0.26802 0.0
C1021 C 0.03084 0.05871 0.26784 0.0
C1022 C 0.96333 0.96389 0.27952 0.0
C1023 C 0.97464 0.94108 0.29376 0.0
C1024 C 0.97655 0.9888 0.27967 0.0
C1025 C 1.0013 0.99196 0.29451 0.0
C1026 C 0.01269 0.96942 0.30903 0.0
C1027 C 0.99957 0.94424 0.30856 0.0
H1028 H 0.07528 0.48192 0.50236 0.0
H1029 H 0.06483 0.46381 0.59649 0.0
H1030 H 0.03214 0.50582 0.50207 0.0
H1031 H 0.02161 0.48775 0.59626 0.0
H1032 H 0.93115 0.50385 0.57089 0.0
H1033 H 0.97502 0.48114 0.57293 0.0
H1034 H 0.01106 0.54711 0.52404 0.0
H1035 H 0.96808 0.57013 0.52282 0.0
C1036 C 0.06397 0.48349 0.52311 0.0
C1037 C 0.07364 0.47129 0.54952 0.0
C1038 C 0.03923 0.49711 0.52296 0.0
C1039 C 0.02331 0.49852 0.54911 0.0
C1040 C 0.03323 0.48678 0.57568 0.0
C1041 C 0.05819 0.47347 0.57593 0.0
C1042 C 0.9484 0.51356 0.56062 0.0
C1043 C 0.94561 0.5387 0.54614 0.0
C1044 C 0.97358 0.50055 0.56185 0.0
C1045 C 0.99652 0.51225 0.54846 0.0
C1046 C 0.99374 0.53728 0.53408 0.0
C1047 C 0.96882 0.55037 0.53315 0.0
H1048 H 0.469 0.45056 0.84034 0.0
H1049 H 0.48937 0.43901 0.74695 0.0
H1050 H 0.49184 0.4945 0.8399 0.0
H1051 H 0.51238 0.48279 0.74654 0.0
H1052 H 0.57645 0.5472 0.77025 0.0
H1053 H 0.55339 0.50421 0.77092 0.0
H1054 H 0.48499 0.54109 0.81432 0.0
H1055 H 0.50763 0.58511 0.8125 0.0
C1056 C 0.4789 0.45715 0.81991 0.0
C1057 C 0.47775 0.44113 0.79378 0.0
C1058 C 0.49158 0.4825 0.81954 0.0
C1059 C 0.50376 0.49223 0.79314 0.0
C1060 C 0.50326 0.47585 0.76727 0.0
C1061 C 0.49019 0.45074 0.7675 0.0
C1062 C 0.55615 0.54672 0.77914 0.0
C1063 C 0.5438 0.57026 0.79062 0.0
C1064 C 0.54304 0.52175 0.7798 0.0
C1065 C 0.51733 0.51917 0.79253 0.0
C1066 C 0.50492 0.5424 0.80448 0.0
C1067 C 0.51792 0.56767 0.8034 0.0
H1068 H 0.45694 0.05069 0.09758 0.0
H1069 H 0.44488 0.02475 1.00596 0.0
H1070 H 0.50163 0.03032 0.09764 0.0
H1071 H 0.48922 1.00344 1.00615 0.0
H1072 H 0.57933 0.99233 1.00224 0.0
H1073 H 0.53526 0.01416 1.0044 0.0
H1074 H 0.5278 0.99107 0.09774 0.0
H1075 H 0.57221 0.97022 0.09566 0.0
C1076 C 0.46353 0.03987 0.07772 0.0
C1077 C 0.44725 0.03919 0.05182 0.0
C1078 C 0.4893 0.02826 0.07767 0.0
C1079 C 0.49945 0.01542 0.05177 0.0
C1080 C 0.48258 0.01375 0.02629 0.0
C1081 C 0.45694 0.02564 0.02626 0.0
C1082 C 0.56845 0.99246 0.02335 0.0
C1083 C 0.57942 0.97979 0.04883 0.0
C1084 C 0.54297 1.00462 0.02454 0.0
C1085 C 0.52752 1.0041 0.05113 0.0
C1086 C 0.53901 0.99224 0.07691 0.0
C1087 C 0.56464 0.98036 0.0758 0.0
H1088 H 0.0201 0.44075 0.0297 0.0
H1089 H 0.04456 0.45454 0.93792 0.0
H1090 H 0.99801 0.48485 0.03061 0.0
H1091 H 0.02229 0.49864 0.93872 0.0
H1092 H 1.00735 0.58849 0.96618 0.0
H1093 H 0.02861 0.54388 0.96388 0.0
H1094 H 0.95942 0.50887 1.00785 0.0
H1095 H 0.93793 0.55267 1.00941 0.0
C1096 C 0.02035 0.45302 1.00956 0.0
C1097 C 0.03383 0.44396 0.98365 0.0
C1098 C 0.00773 0.47832 1.01005 0.0
C1099 C 0.00854 0.49543 0.98479 0.0
C1100 C 0.02155 0.48614 0.95867 0.0
C1101 C 0.03391 0.46066 0.95805 0.0
C1102 C 0.99664 0.57132 0.97534 0.0
C1103 C 0.97103 0.57464 0.98853 0.0
C1104 C 0.00882 0.54569 0.97395 0.0
C1105 C 0.99578 0.52277 0.98584 0.0
C1106 C 0.97029 0.52609 0.99899 0.0
C1107 C 0.95806 0.55149 1.00012 0.0
H1108 H 0.43978 0.49301 0.28434 0.0
H1109 H 0.4483 0.47185 0.19084 0.0
H1110 H 0.48452 0.51361 0.28384 0.0
H1111 H 0.49356 0.49078 0.19047 0.0
H1112 H 0.56678 0.54641 0.19168 0.0
H1113 H 0.5216 0.5274 0.19071 0.0
H1114 H 0.52999 0.50443 0.28409 0.0
H1115 H 0.57469 0.52509 0.2852 0.0
C1116 C 0.45118 0.49308 0.26358 0.0
C1117 C 0.44035 0.48125 0.23752 0.0
C1118 C 0.4771 0.50446 0.26334 0.0
C1119 C 0.49321 0.5037 0.2372 0.0
C1120 C 0.48193 0.49232 0.21096 0.0
C1121 C 0.45582 0.48147 0.21108 0.0
C1122 C 0.55916 0.53676 0.21181 0.0
C1123 C 0.57444 0.53699 0.23843 0.0
C1124 C 0.53308 0.52585 0.21134 0.0
C1125 C 0.52162 0.51441 0.23739 0.0
C1126 C 0.53754 0.51364 0.26371 0.0
C1127 C 0.56344 0.52507 0.26431 0.0
H1128 H 0.52557 0.94643 0.53139 0.0
H1129 H 0.5435 0.94931 0.43661 0.0
H1130 H 0.50677 0.99189 0.52876 0.0
H1131 H 0.52587 0.99509 0.43399 0.0
H1132 H 0.47151 0.07002 0.43429 0.0
H1133 H 0.4891 0.02413 0.43487 0.0
H1134 H 0.51957 0.03705 0.52488 0.0
H1135 H 0.50082 0.08259 0.52452 0.0
C1136 C 0.52519 0.95671 0.50991 0.0
C1137 C 0.53574 0.94411 0.48417 0.0
C1138 C 0.51479 0.983 0.50841 0.0
C1139 C 0.51508 0.99765 0.48123 0.0
C1140 C 0.5249 0.98459 0.45529 0.0
C1141 C 0.53494 0.95817 0.45673 0.0
C1142 C 0.48255 0.06324 0.45392 0.0
C1143 C 0.48497 0.08005 0.47927 0.0
C1144 C 0.49258 0.03678 0.45435 0.0
C1145 C 0.50558 0.02644 0.48008 0.0
C1146 C 0.50907 0.04382 0.50492 0.0
C1147 C 0.4987 0.07015 0.50461 0.0
H1148 H 0.02883 0.09361 0.72 0.0
H1149 H 0.06565 0.03687 0.78102 0.0
H1150 H 0.98737 0.06714 0.72025 0.0
H1151 H 0.02395 0.0108 0.78221 0.0
H1152 H 0.95964 0.95265 0.75016 0.0
H1153 H 0.99917 0.98129 0.75232 0.0
H1154 H 0.94841 0.05197 0.74574 0.0
H1155 H 0.9085 0.02273 0.74259 0.0
C1156 C 0.0279 0.07571 0.73394 0.0
C1157 C 0.05068 0.06731 0.75039 0.0
C1158 C 1.00401 0.06051 0.73415 0.0
C1159 C 1.0021 0.03654 0.75104 0.0
C1160 C 0.02468 0.0287 0.76828 0.0
C1161 C 0.04866 0.04372 0.76776 0.0
C1162 C 0.95679 0.97433 0.74957 0.0
C1163 C 0.93078 0.98538 0.74674 0.0
C1164 C 0.97959 0.99087 0.75092 0.0
C1165 C 0.97726 0.01916 0.74971 0.0
C1166 C 0.95118 0.03031 0.74657 0.0
C1167 C 0.92823 0.0136 0.74489 0.0
H1168 H 0.30685 0.15782 0.44569 0.0
H1169 H 0.31929 0.0716 0.45249 0.0
H1170 H 0.26248 0.15017 0.42517 0.0
H1171 H 0.27405 0.06379 0.43233 0.0
H1172 H 0.22516 0.07418 0.34052 0.0
H1173 H 0.25919 0.07126 0.38018 0.0
H1174 H 0.21749 0.13338 0.4303 0.0
H1175 H 0.1852 0.13782 0.38981 0.0
C1176 C 0.29978 0.13721 0.44337 0.0
C1177 C 0.31657 0.11528 0.4498 0.0
C1178 C 0.27417 0.13277 0.43206 0.0
C1179 C 0.26493 0.10632 0.42702 0.0
C1180 C 0.28091 0.08434 0.43578 0.0
C1181 C 0.30667 0.08882 0.44725 0.0
C1182 C 0.22337 0.08701 0.36016 0.0
C1183 C 0.20335 0.10683 0.3618 0.0
C1184 C 0.24241 0.08501 0.38308 0.0
C1185 C 0.24106 0.10241 0.40805 0.0
C1186 C 0.21925 0.12016 0.41097 0.0
C1187 C 0.2009 0.1228 0.38771 0.0
H1188 H 0.8744 0.72017 0.56563 0.0
H1189 H 0.94919 0.69841 0.60905 0.0
H1190 H 0.87571 0.76422 0.59006 0.0
H1191 H 0.9499 0.74196 0.6349 0.0
H1192 H 0.94407 0.82841 0.67094 0.0
H1193 H 0.95071 0.79162 0.63501 0.0
H1194 H 0.8664 0.77031 0.64315 0.0
H1195 H 0.85967 0.80724 0.67807 0.0
C1196 C 0.89132 0.72516 0.58006 0.0
C1197 C 0.91139 0.70615 0.58623 0.0
C1198 C 0.89207 0.75017 0.59404 0.0
C1199 C 0.91246 0.75599 0.61499 0.0
C1200 C 0.93396 0.73789 0.61886 0.0
C1201 C 0.93351 0.71302 0.60426 0.0
C1202 C 0.92708 0.81566 0.66511 0.0
C1203 C 0.90135 0.82051 0.67706 0.0
C1204 C 0.93086 0.79482 0.6445 0.0
C1205 C 0.90895 0.77864 0.63587 0.0
C1206 C 0.88345 0.7831 0.64864 0.0
C1207 C 0.87965 0.80396 0.66892 0.0
H1208 H 0.19597 0.45097 0.92872 0.0
H1209 H 0.21957 0.37417 0.96631 0.0
H1210 H 0.23787 0.45265 0.90003 0.0
H1211 H 0.26207 0.37637 0.93893 0.0
H1212 H 0.29954 0.36358 0.84749 0.0
H1213 H 0.26434 0.36935 0.88476 0.0
H1214 H 0.28744 0.45299 0.89634 0.0
H1215 H 0.32239 0.44734 0.85813 0.0
C1216 C 0.21071 0.43506 0.9317 0.0
C1217 C 0.20469 0.41213 0.94884 0.0
C1218 C 0.23463 0.43603 0.91543 0.0
C1219 C 0.25266 0.41423 0.91672 0.0
C1220 C 0.24798 0.39299 0.93694 0.0
C1221 C 0.22388 0.39175 0.95262 0.0
C1222 C 0.2969 0.38324 0.85781 0.0
C1223 C 0.31348 0.40501 0.85012 0.0
C1224 C 0.27709 0.38646 0.87942 0.0
C1225 C 0.27381 0.41143 0.89395 0.0
C1226 C 0.28979 0.43353 0.88553 0.0
C1227 C 0.30953 0.43034 0.86358 0.0
H1228 H 0.64846 0.79778 0.08452 0.0
H1229 H 0.56265 0.81305 0.08785 0.0
H1230 H 0.64136 0.7534 0.10533 0.0
H1231 H 0.55533 0.76779 0.10841 0.0
H1232 H 0.57342 0.71554 0.19684 0.0
H1233 H 0.56731 0.75083 0.15898 0.0
H1234 H 0.62246 0.70896 0.0998 0.0
H1235 H 0.63004 0.67524 0.13839 0.0
C1236 C 0.62799 0.79137 0.08923 0.0
C1237 C 0.60615 0.80888 0.08533 0.0
C1238 C 0.62383 0.76576 0.1007 0.0
C1239 C 0.59773 0.75721 0.10846 0.0
C1240 C 0.57562 0.77408 0.10271 0.0
C1241 C 0.57981 0.79984 0.09103 0.0
C1242 C 0.58392 0.71395 0.17556 0.0
C1243 C 0.6029 0.69355 0.17069 0.0
C1244 C 0.5801 0.73375 0.15373 0.0
C1245 C 0.59483 0.73275 0.12674 0.0
C1246 C 0.61137 0.71047 0.12072 0.0
C1247 C 0.61583 0.69132 0.14282 0.0
H1248 H 0.68653 0.61769 0.89025 0.0
H1249 H 0.71833 0.5725 0.81515 0.0
H1250 H 0.72585 0.60559 0.92023 0.0
H1251 H 0.7585 0.56116 0.84501 0.0
H1252 H 0.82848 0.61972 0.89214 0.0
H1253 H 0.78919 0.60582 0.863 0.0
H1254 H 0.75815 0.56274 0.93999 0.0
H1255 H 0.79832 0.57591 0.96904 0.0
C1256 C 0.70188 0.60486 0.88042 0.0
C1257 C 0.70015 0.5965 0.85042 0.0
C1258 C 0.72398 0.59753 0.89766 0.0
C1259 C 0.74481 0.58235 0.88476 0.0
C1260 C 0.74231 0.57258 0.85529 0.0
C1261 C 0.71972 0.57931 0.83826 0.0
C1262 C 0.81346 0.60687 0.90258 0.0
C1263 C 0.81565 0.59934 0.93279 0.0
C1264 C 0.7914 0.59849 0.88583 0.0
C1265 C 0.77107 0.58309 0.89941 0.0
C1266 C 0.77397 0.57431 0.92919 0.0
C1267 C 0.79654 0.58208 0.94575 0.0
H1268 H 0.36303 0.21837 0.08087 0.0
H1269 H 0.45007 0.2147 0.07635 0.0
H1270 H 0.36566 0.26357 0.10077 0.0
H1271 H 0.45279 0.2608 0.09576 0.0
H1272 H 0.43705 0.30603 0.18817 0.0
H1273 H 0.44331 0.27349 0.14762 0.0
H1274 H 0.3775 0.31014 0.09845 0.0
H1275 H 0.37009 0.34117 0.13986 0.0
C1276 C 0.38274 0.22756 0.08349 0.0
C1277 C 0.40637 0.21289 0.07819 0.0
C1278 C 0.38428 0.25368 0.09442 0.0
C1279 C 0.4095 0.26553 0.10019 0.0
C1280 C 0.43313 0.25185 0.09191 0.0
C1281 C 0.43157 0.22557 0.08089 0.0
C1282 C 0.42408 0.30704 0.16859 0.0
C1283 C 0.40253 0.32521 0.16744 0.0
C1284 C 0.42797 0.28888 0.14512 0.0
C1285 C 0.41065 0.28919 0.12005 0.0
C1286 C 0.39076 0.30917 0.1178 0.0
C1287 C 0.38638 0.32671 0.14158 0.0
H1288 H 0.80694 0.94827 0.33064 0.0
H1289 H 0.79747 0.86152 0.33503 0.0
H1290 H 0.76138 0.95395 0.35067 0.0
H1291 H 0.75279 0.86707 0.35541 0.0
H1292 H 0.67458 0.87596 0.38998 0.0
H1293 H 0.70725 0.88223 0.35012 0.0
H1294 H 0.74631 0.94483 0.40236 0.0
H1295 H 0.71199 0.93993 0.44137 0.0
C1296 C 0.79492 0.93049 0.33535 0.0
C1297 C 0.80574 0.90447 0.33213 0.0
C1298 C 0.76898 0.93375 0.34674 0.0
C1299 C 0.75372 0.911 0.35474 0.0
C1300 C 0.7639 0.88503 0.3491 0.0
C1301 C 0.78969 0.88181 0.33787 0.0
C1302 C 0.68984 0.89142 0.39266 0.0
C1303 C 0.69149 0.90696 0.41896 0.0
C1304 C 0.70838 0.89512 0.36979 0.0
C1305 C 0.72954 0.91359 0.37348 0.0
C1306 C 0.73005 0.93055 0.39886 0.0
C1307 C 0.71084 0.92743 0.42141 0.0
H1308 H 0.08471 0.16343 0.62975 0.0
H1309 H 0.10292 0.20229 0.71428 0.0
H1310 H 0.07697 0.20761 0.60675 0.0
H1311 H 0.09467 0.24628 0.69164 0.0
H1312 H 0.1398 0.30312 0.62589 0.0
H1313 H 0.12939 0.26217 0.65334 0.0
H1314 H 0.05379 0.25486 0.60561 0.0
H1315 H 0.06423 0.29629 0.57777 0.0
C1316 C 0.08589 0.18138 0.64365 0.0
C1317 C 0.09514 0.17988 0.67338 0.0
C1318 C 0.08137 0.20655 0.63059 0.0
C1319 C 0.0859 0.23013 0.6474 0.0
C1320 C 0.09161 0.22826 0.6782 0.0
C1321 C 0.09645 0.20323 0.69108 0.0
C1322 C 0.12096 0.29284 0.6212 0.0
C1323 C 0.10287 0.3027 0.59967 0.0
C1324 C 0.11481 0.26965 0.63722 0.0
C1325 C 0.09054 0.25582 0.63189 0.0
C1326 C 0.07246 0.26547 0.6102 0.0
C1327 C 0.0785 0.28897 0.59431 0.0
loop_
_geom_bond_atom_site_label_1
_geom_bond_atom_site_label_2
_geom_bond_distance
_geom_bond_site_symmetry_2
_ccdc_geom_bond_type
C0 C1 1.351 . S
C0 N3 1.368 . S
C0 H5 0.931 . S
C1 C0 1.351 . S
C1 N2 1.373 . S
C1 H29 0.930 . S
N2 C1 1.373 . S
N2 C4 1.340 . S
N3 C0 1.368 . S
N3 C4 1.321 . S
N3 Co6 2.135 . S
C4 N2 1.340 . S
C4 N3 1.321 . S
C4 H28 0.930 . S
H5 C0 0.931 . S
Co6 N3 2.135 . S
Co6 N9 2.121 . S
Co6 O14 2.055 . S
Co6 O17 2.039 . S
Co6 N20 2.140 . S
C7 O8 1.227 . S
C7 O17 1.265 . S
O8 C7 1.227 . S
N9 Co6 2.121 . S
N9 C11 1.375 . S
N9 C12 1.313 . S
C10 C11 1.338 . S
C10 N13 1.377 . S
C10 H30 0.930 . S
C11 N9 1.375 . S
C11 C10 1.338 . S
C11 H15 0.931 . S
C12 N9 1.313 . S
C12 N13 1.344 . S
C12 H16 0.930 . S
N13 C10 1.377 . S
N13 C12 1.344 . S
O14 Co6 2.055 . S
O14 C18 1.253 . S
H15 C11 0.931 . S
H16 C12 0.930 . S
O17 Co6 2.039 . S
O17 C7 1.265 . S
C18 O14 1.253 . S
C18 O19 1.227 . S
O19 C18 1.227 . S
N20 Co6 2.140 . S
N20 C23 1.346 . S
N20 C24 1.345 . S
C21 C22 1.387 . S
C21 C25 1.391 . S
C22 C21 1.387 . S
C22 C23 1.369 . S
C22 H31 0.929 . S
C23 N20 1.346 . S
C23 C22 1.369 . S
C23 H26 0.928 . S
C24 N20 1.345 . S
C24 C25 1.371 . S
C24 H27 0.931 . S
C25 C21 1.391 . S
C25 C24 1.371 . S
C25 H32 0.930 . S
H26 C23 0.928 . S
H27 C24 0.931 . S
H28 C4 0.930 . S
H29 C1 0.930 . S
H30 C10 0.930 . S
H31 C22 0.929 . S
H32 C25 0.930 . S
C33 C34 1.351 . S
C33 N36 1.368 . S
C33 H38 0.931 . S
C34 C33 1.351 . S
C34 N35 1.373 . S
C34 H62 0.930 . S
N35 C34 1.373 . S
N35 C37 1.340 . S
N36 C33 1.368 . S
N36 C37 1.321 . S
N36 Co39 2.135 . S
C37 N35 1.340 . S
C37 N36 1.321 . S
C37 H61 0.930 . S
H38 C33 0.931 . S
Co39 N36 2.135 . S
Co39 N42 2.121 . S
Co39 O47 2.055 . S
Co39 O50 2.039 . S
Co39 N53 2.140 . S
C40 O41 1.227 . S
C40 O50 1.265 . S
O41 C40 1.227 . S
N42 Co39 2.121 . S
N42 C44 1.375 . S
N42 C45 1.313 . S
C43 C44 1.338 . S
C43 N46 1.377 . S
C43 H63 0.930 . S
C44 N42 1.375 . S
C44 C43 1.338 . S
C44 H48 0.931 . S
C45 N42 1.313 . S
C45 N46 1.344 . S
C45 H49 0.930 . S
N46 C43 1.377 . S
N46 C45 1.344 . S
O47 Co39 2.055 . S
O47 C51 1.253 . S
H48 C44 0.931 . S
H49 C45 0.930 . S
O50 Co39 2.039 . S
O50 C40 1.265 . S
C51 O47 1.253 . S
C51 O52 1.227 . S
O52 C51 1.227 . S
N53 Co39 2.140 . S
N53 C56 1.346 . S
N53 C57 1.345 . S
C54 C55 1.387 . S
C54 C58 1.391 . S
C55 C54 1.387 . S
C55 C56 1.369 . S
C55 H64 0.929 . S
C56 N53 1.346 . S
C56 C55 1.369 . S
C56 H59 0.928 . S
C57 N53 1.345 . S
C57 C58 1.371 . S
C57 H60 0.931 . S
C58 C54 1.391 . S
C58 C57 1.371 . S
C58 H65 0.930 . S
H59 C56 0.928 . S
H60 C57 0.931 . S
H61 C37 0.930 . S
H62 C34 0.930 . S
H63 C43 0.930 . S
H64 C55 0.929 . S
H65 C58 0.930 . S
C66 C67 1.351 . S
C66 N69 1.368 . S
C66 H71 0.931 . S
C67 C66 1.351 . S
C67 N68 1.373 . S
C67 H95 0.930 . S
N68 C67 1.373 . S
N68 C70 1.340 . S
N69 C66 1.368 . S
N69 C70 1.321 . S
N69 Co72 2.135 . S
C70 N68 1.340 . S
C70 N69 1.321 . S
C70 H94 0.930 . S
H71 C66 0.931 . S
Co72 N69 2.135 . S
Co72 N75 2.121 . S
Co72 O80 2.055 . S
Co72 O83 2.039 . S
Co72 N86 2.140 . S
C73 O74 1.227 . S
C73 O83 1.265 . S
O74 C73 1.227 . S
N75 Co72 2.121 . S
N75 C77 1.375 . S
N75 C78 1.313 . S
C76 C77 1.338 . S
C76 N79 1.377 . S
C76 H96 0.930 . S
C77 N75 1.375 . S
C77 C76 1.338 . S
C77 H81 0.931 . S
C78 N75 1.313 . S
C78 N79 1.344 . S
C78 H82 0.930 . S
N79 C76 1.377 . S
N79 C78 1.344 . S
O80 Co72 2.055 . S
O80 C84 1.253 . S
H81 C77 0.931 . S
H82 C78 0.930 . S
O83 Co72 2.039 . S
O83 C73 1.265 . S
C84 O80 1.253 . S
C84 O85 1.227 . S
O85 C84 1.227 . S
N86 Co72 2.140 . S
N86 C89 1.346 . S
N86 C90 1.345 . S
C87 C88 1.387 . S
C87 C91 1.391 . S
C88 C87 1.387 . S
C88 C89 1.369 . S
C88 H97 0.929 . S
C89 N86 1.346 . S
C89 C88 1.369 . S
C89 H92 0.928 . S
C90 N86 1.345 . S
C90 C91 1.371 . S
C90 H93 0.931 . S
C91 C87 1.391 . S
C91 C90 1.371 . S
C91 H98 0.930 . S
H92 C89 0.928 . S
H93 C90 0.931 . S
H94 C70 0.930 . S
H95 C67 0.930 . S
H96 C76 0.930 . S
H97 C88 0.929 . S
H98 C91 0.930 . S
C99 C100 1.351 . S
C99 N102 1.368 . S
C99 H104 0.931 . S
C100 C99 1.351 . S
C100 N101 1.373 . S
C100 H128 0.930 . S
N101 C100 1.373 . S
N101 C103 1.340 . S
N102 C99 1.368 . S
N102 C103 1.321 . S
N102 Co105 2.135 . S
C103 N101 1.340 . S
C103 N102 1.321 . S
C103 H127 0.930 . S
H104 C99 0.931 . S
Co105 N102 2.135 . S
Co105 N108 2.121 . S
Co105 O113 2.055 . S
Co105 O116 2.039 . S
Co105 N119 2.140 . S
C106 O107 1.227 . S
C106 O116 1.265 . S
O107 C106 1.227 . S
N108 Co105 2.121 . S
N108 C110 1.375 . S
N108 C111 1.313 . S
C109 C110 1.338 1_556 S
C109 N112 1.377 . S
C109 H129 0.930 . S
C110 N108 1.375 . S
C110 C109 1.338 1_554 S
C110 H114 0.931 . S
C111 N108 1.313 . S
C111 N112 1.344 1_554 S
C111 H115 0.930 . S
N112 C109 1.377 . S
N112 C111 1.344 1_556 S
O113 Co105 2.055 . S
O113 C117 1.253 . S
H114 C110 0.931 . S
H115 C111 0.930 . S
O116 Co105 2.039 . S
O116 C106 1.265 . S
C117 O113 1.253 . S
C117 O118 1.227 . S
O118 C117 1.227 . S
N119 Co105 2.140 . S
N119 C122 1.346 . S
N119 C123 1.345 . S
C120 C121 1.387 . S
C120 C124 1.391 . S
C121 C120 1.387 . S
C121 C122 1.369 . S
C121 H130 0.929 . S
C122 N119 1.346 . S
C122 C121 1.369 . S
C122 H125 0.928 . S
C123 N119 1.345 . S
C123 C124 1.371 . S
C123 H126 0.931 . S
C124 C120 1.391 . S
C124 C123 1.371 . S
C124 H131 0.930 . S
H125 C122 0.928 . S
H126 C123 0.931 . S
H127 C103 0.930 . S
H128 C100 0.930 . S
H129 C109 0.930 . S
H130 C121 0.929 . S
H131 C124 0.930 . S
C132 C133 1.351 . S
C132 N135 1.368 . S
C132 H137 0.931 . S
C133 C132 1.351 . S
C133 N134 1.373 . S
C133 H161 0.930 . S
N134 C133 1.373 . S
N134 C136 1.340 . S
N135 C132 1.368 . S
N135 C136 1.321 . S
N135 Co138 2.135 . S
C136 N134 1.340 . S
C136 N135 1.321 . S
C136 H160 0.930 . S
H137 C132 0.931 . S
Co138 N135 2.135 . S
Co138 N141 2.121 . S
Co138 O146 2.055 . S
Co138 O149 2.039 . S
Co138 N152 2.140 . S
C139 O140 1.227 . S
C139 O149 1.265 . S
O140 C139 1.227 . S
N141 Co138 2.121 . S
N141 C143 1.375 . S
N141 C144 1.313 . S
C142 C143 1.338 1_554 S
C142 N145 1.377 . S
C142 H162 0.930 . S
C143 N141 1.375 . S
C143 C142 1.338 1_556 S
C143 H147 0.931 . S
C144 N141 1.313 . S
C144 N145 1.344 1_556 S
C144 H148 0.930 . S
N145 C142 1.377 . S
N145 C144 1.344 1_554 S
O146 Co138 2.055 . S
O146 C150 1.253 . S
H147 C143 0.931 . S
H148 C144 0.930 . S
O149 Co138 2.039 . S
O149 C139 1.265 . S
C150 O146 1.253 . S
C150 O151 1.227 . S
O151 C150 1.227 . S
N152 Co138 2.140 . S
N152 C155 1.346 . S
N152 C156 1.345 . S
C153 C154 1.387 . S
C153 C157 1.391 . S
C154 C153 1.387 . S
C154 C155 1.369 . S
C154 H163 0.929 . S
C155 N152 1.346 . S
C155 C154 1.369 . S
C155 H158 0.928 . S
C156 N152 1.345 . S
C156 C157 1.371 . S
C156 H159 0.931 . S
C157 C153 1.391 . S
C157 C156 1.371 . S
C157 H164 0.930 . S
H158 C155 0.928 . S
H159 C156 0.931 . S
H160 C136 0.930 . S
H161 C133 0.930 . S
H162 C142 0.930 . S
H163 C154 0.929 . S
H164 C157 0.930 . S
C165 C166 1.351 . S
C165 N168 1.368 . S
C165 H170 0.931 . S
C166 C165 1.351 . S
C166 N167 1.373 . S
C166 H194 0.930 . S
N167 C166 1.373 . S
N167 C169 1.340 . S
N168 C165 1.368 . S
N168 C169 1.321 . S
N168 Co171 2.135 . S
C169 N167 1.340 . S
C169 N168 1.321 . S
C169 H193 0.930 . S
H170 C165 0.931 . S
Co171 N168 2.135 . S
Co171 N174 2.121 . S
Co171 O179 2.055 . S
Co171 O182 2.039 . S
Co171 N185 2.140 . S
C172 O173 1.227 . S
C172 O182 1.265 . S
O173 C172 1.227 . S
N174 Co171 2.121 . S
N174 C176 1.375 . S
N174 C177 1.313 . S
C175 C176 1.338 . S
C175 N178 1.377 . S
C175 H195 0.930 . S
C176 N174 1.375 . S
C176 C175 1.338 . S
C176 H180 0.931 . S
C177 N174 1.313 . S
C177 N178 1.344 . S
C177 H181 0.930 . S
N178 C175 1.377 . S
N178 C177 1.344 . S
O179 Co171 2.055 . S
O179 C183 1.253 . S
H180 C176 0.931 . S
H181 C177 0.930 . S
O182 Co171 2.039 . S
O182 C172 1.265 . S
C183 O179 1.253 . S
C183 O184 1.227 . S
O184 C183 1.227 . S
N185 Co171 2.140 . S
N185 C188 1.346 . S
N185 C189 1.345 . S
C186 C187 1.387 . S
C186 C190 1.391 . S
C187 C186 1.387 . S
C187 C188 1.369 . S
C187 H196 0.929 . S
C188 N185 1.346 . S
C188 C187 1.369 . S
C188 H191 0.928 . S
C189 N185 1.345 . S
C189 C190 1.371 . S
C189 H192 0.931 . S
C190 C186 1.391 . S
C190 C189 1.371 . S
C190 H197 0.930 . S
H191 C188 0.928 . S
H192 C189 0.931 . S
H193 C169 0.930 . S
H194 C166 0.930 . S
H195 C175 0.930 . S
H196 C187 0.929 . S
H197 C190 0.930 . S
C198 C199 1.351 . S
C198 N201 1.368 . S
C198 H203 0.931 . S
C199 C198 1.351 . S
C199 N200 1.373 . S
C199 H227 0.930 . S
N200 C199 1.373 . S
N200 C202 1.340 . S
N201 C198 1.368 . S
N201 C202 1.321 . S
N201 Co204 2.135 . S
C202 N200 1.340 . S
C202 N201 1.321 . S
C202 H226 0.930 . S
H203 C198 0.931 . S
Co204 N201 2.135 . S
Co204 N207 2.121 . S
Co204 O212 2.055 . S
Co204 O215 2.039 . S
Co204 N218 2.140 . S
C205 O206 1.227 . S
C205 O215 1.265 . S
O206 C205 1.227 . S
N207 Co204 2.121 . S
N207 C209 1.375 . S
N207 C210 1.313 . S
C208 C209 1.338 . S
C208 N211 1.377 . S
C208 H228 0.930 . S
C209 N207 1.375 . S
C209 C208 1.338 . S
C209 H213 0.931 . S
C210 N207 1.313 . S
C210 N211 1.344 . S
C210 H214 0.930 . S
N211 C208 1.377 . S
N211 C210 1.344 . S
O212 Co204 2.055 . S
O212 C216 1.253 . S
H213 C209 0.931 . S
H214 C210 0.930 . S
O215 Co204 2.039 . S
O215 C205 1.265 . S
C216 O212 1.253 . S
C216 O217 1.227 . S
O217 C216 1.227 . S
N218 Co204 2.140 . S
N218 C221 1.346 . S
N218 C222 1.345 . S
C219 C220 1.387 . S
C219 C223 1.391 . S
C220 C219 1.387 . S
C220 C221 1.369 . S
C220 H229 0.929 . S
C221 N218 1.346 . S
C221 C220 1.369 . S
C221 H224 0.928 . S
C222 N218 1.345 . S
C222 C223 1.371 . S
C222 H225 0.931 . S
C223 C219 1.391 . S
C223 C222 1.371 . S
C223 H230 0.930 . S
H224 C221 0.928 . S
H225 C222 0.931 . S
H226 C202 0.930 . S
H227 C199 0.930 . S
H228 C208 0.930 . S
H229 C220 0.929 . S
H230 C223 0.930 . S
C231 C232 1.351 . S
C231 N234 1.368 . S
C231 H236 0.931 . S
C232 C231 1.351 . S
C232 N233 1.373 . S
C232 H260 0.930 . S
N233 C232 1.373 . S
N233 C235 1.340 . S
N234 C231 1.368 . S
N234 C235 1.321 . S
N234 Co237 2.135 . S
C235 N233 1.340 . S
C235 N234 1.321 . S
C235 H259 0.930 . S
H236 C231 0.931 . S
Co237 N234 2.135 . S
Co237 N240 2.121 . S
Co237 O245 2.055 . S
Co237 O248 2.039 . S
Co237 N251 2.140 . S
C238 O239 1.227 . S
C238 O248 1.265 . S
O239 C238 1.227 . S
N240 Co237 2.121 . S
N240 C242 1.375 . S
N240 C243 1.313 . S
C241 C242 1.338 . S
C241 N244 1.377 . S
C241 H261 0.930 . S
C242 N240 1.375 . S
C242 C241 1.338 . S
C242 H246 0.931 . S
C243 N240 1.313 . S
C243 N244 1.344 . S
C243 H247 0.930 . S
N244 C241 1.377 . S
N244 C243 1.344 . S
O245 Co237 2.055 . S
O245 C249 1.253 . S
H246 C242 0.931 . S
H247 C243 0.930 . S
O248 Co237 2.039 . S
O248 C238 1.265 . S
C249 O245 1.253 . S
C249 O250 1.227 . S
O250 C249 1.227 . S
N251 Co237 2.140 . S
N251 C254 1.346 . S
N251 C255 1.345 . S
C252 C253 1.387 . S
C252 C256 1.391 . S
C253 C252 1.387 . S
C253 C254 1.369 . S
C253 H262 0.929 . S
C254 N251 1.346 . S
C254 C253 1.369 . S
C254 H257 0.928 . S
C255 N251 1.345 . S
C255 C256 1.371 . S
C255 H258 0.931 . S
C256 C252 1.391 . S
C256 C255 1.371 . S
C256 H263 0.930 . S
H257 C254 0.928 . S
H258 C255 0.931 . S
H259 C235 0.930 . S
H260 C232 0.930 . S
H261 C241 0.930 . S
H262 C253 0.929 . S
H263 C256 0.930 . S
C264 C265 1.351 . S
C264 N267 1.368 . S
C264 H269 0.931 . S
C265 C264 1.351 . S
C265 N266 1.373 . S
C265 H293 0.930 . S
N266 C265 1.373 . S
N266 C268 1.340 . S
N267 C264 1.368 . S
N267 C268 1.321 . S
N267 Co270 2.135 . S
C268 N266 1.340 . S
C268 N267 1.321 . S
C268 H292 0.930 . S
H269 C264 0.931 . S
Co270 N267 2.135 . S
Co270 N273 2.121 . S
Co270 O278 2.055 . S
Co270 O281 2.039 . S
Co270 N284 2.140 . S
C271 O272 1.227 . S
C271 O281 1.265 . S
O272 C271 1.227 . S
N273 Co270 2.121 . S
N273 C275 1.375 . S
N273 C276 1.313 . S
C274 C275 1.338 . S
C274 N277 1.377 . S
C274 H294 0.930 . S
C275 N273 1.375 . S
C275 C274 1.338 . S
C275 H279 0.931 . S
C276 N273 1.313 . S
C276 N277 1.344 . S
C276 H280 0.930 . S
N277 C274 1.377 . S
N277 C276 1.344 . S
O278 Co270 2.055 . S
O278 C282 1.253 . S
H279 C275 0.931 . S
H280 C276 0.930 . S
O281 Co270 2.039 . S
O281 C271 1.265 . S
C282 O278 1.253 . S
C282 O283 1.227 . S
O283 C282 1.227 . S
N284 Co270 2.140 . S
N284 C287 1.346 . S
N284 C288 1.345 . S
C285 C286 1.387 . S
C285 C289 1.391 . S
C286 C285 1.387 . S
C286 C287 1.369 . S
C286 H295 0.929 . S
C287 N284 1.346 . S
C287 C286 1.369 . S
C287 H290 0.928 . S
C288 N284 1.345 . S
C288 C289 1.371 . S
C288 H291 0.931 . S
C289 C285 1.391 . S
C289 C288 1.371 . S
C289 H296 0.930 . S
H290 C287 0.928 . S
H291 C288 0.931 . S
H292 C268 0.930 . S
H293 C265 0.930 . S
H294 C274 0.930 . S
H295 C286 0.929 . S
H296 C289 0.930 . S
C297 C298 1.351 . S
C297 N300 1.368 . S
C297 H302 0.931 . S
C298 C297 1.351 . S
C298 N299 1.373 . S
C298 H326 0.930 . S
N299 C298 1.373 . S
N299 C301 1.340 . S
N300 C297 1.368 . S
N300 C301 1.321 . S
N300 Co303 2.135 . S
C301 N299 1.340 . S
C301 N300 1.321 . S
C301 H325 0.930 . S
H302 C297 0.931 . S
Co303 N300 2.135 . S
Co303 N306 2.121 . S
Co303 O311 2.055 . S
Co303 O314 2.039 . S
Co303 N317 2.140 . S
C304 O305 1.227 . S
C304 O314 1.265 . S
O305 C304 1.227 . S
N306 Co303 2.121 . S
N306 C308 1.375 . S
N306 C309 1.313 . S
C307 C308 1.338 1_556 S
C307 N310 1.377 . S
C307 H327 0.930 . S
C308 N306 1.375 . S
C308 C307 1.338 1_554 S
C308 H312 0.931 . S
C309 N306 1.313 . S
C309 N310 1.344 1_554 S
C309 H313 0.930 . S
N310 C307 1.377 . S
N310 C309 1.344 1_556 S
O311 Co303 2.055 . S
O311 C315 1.253 . S
H312 C308 0.931 . S
H313 C309 0.930 . S
O314 Co303 2.039 . S
O314 C304 1.265 . S
C315 O311 1.253 . S
C315 O316 1.227 . S
O316 C315 1.227 . S
N317 Co303 2.140 . S
N317 C320 1.346 . S
N317 C321 1.345 . S
C318 C319 1.387 . S
C318 C322 1.391 . S
C319 C318 1.387 . S
C319 C320 1.369 . S
C319 H328 0.929 . S
C320 N317 1.346 . S
C320 C319 1.369 . S
C320 H323 0.928 . S
C321 N317 1.345 . S
C321 C322 1.371 . S
C321 H324 0.931 . S
C322 C318 1.391 . S
C322 C321 1.371 . S
C322 H329 0.930 . S
H323 C320 0.928 . S
H324 C321 0.931 . S
H325 C301 0.930 . S
H326 C298 0.930 . S
H327 C307 0.930 . S
H328 C319 0.929 . S
H329 C322 0.930 . S
C330 C331 1.351 . S
C330 N333 1.368 . S
C330 H335 0.931 . S
C331 C330 1.351 . S
C331 N332 1.373 . S
C331 H359 0.930 . S
N332 C331 1.373 . S
N332 C334 1.340 . S
N333 C330 1.368 . S
N333 C334 1.321 . S
N333 Co336 2.135 . S
C334 N332 1.340 . S
C334 N333 1.321 . S
C334 H358 0.930 . S
H335 C330 0.931 . S
Co336 N333 2.135 . S
Co336 N339 2.121 . S
Co336 O344 2.055 . S
Co336 O347 2.039 . S
Co336 N350 2.140 . S
C337 O338 1.227 . S
C337 O347 1.265 . S
O338 C337 1.227 . S
N339 Co336 2.121 . S
N339 C341 1.375 . S
N339 C342 1.313 . S
C340 C341 1.338 . S
C340 N343 1.377 . S
C340 H360 0.930 . S
C341 N339 1.375 . S
C341 C340 1.338 . S
C341 H345 0.931 . S
C342 N339 1.313 . S
C342 N343 1.344 . S
C342 H346 0.930 . S
N343 C340 1.377 . S
N343 C342 1.344 . S
O344 Co336 2.055 . S
O344 C348 1.253 . S
H345 C341 0.931 . S
H346 C342 0.930 . S
O347 Co336 2.039 . S
O347 C337 1.265 . S
C348 O344 1.253 . S
C348 O349 1.227 . S
O349 C348 1.227 . S
N350 Co336 2.140 . S
N350 C353 1.346 . S
N350 C354 1.345 . S
C351 C352 1.387 . S
C351 C355 1.391 . S
C352 C351 1.387 . S
C352 C353 1.369 . S
C352 H361 0.929 . S
C353 N350 1.346 . S
C353 C352 1.369 . S
C353 H356 0.928 . S
C354 N350 1.345 . S
C354 C355 1.371 . S
C354 H357 0.931 . S
C355 C351 1.391 . S
C355 C354 1.371 . S
C355 H362 0.930 . S
H356 C353 0.928 . S
H357 C354 0.931 . S
H358 C334 0.930 . S
H359 C331 0.930 . S
H360 C340 0.930 . S
H361 C352 0.929 . S
H362 C355 0.930 . S
C363 C364 1.351 . S
C363 N366 1.368 . S
C363 H368 0.931 . S
C364 C363 1.351 . S
C364 N365 1.373 . S
C364 H392 0.930 . S
N365 C364 1.373 . S
N365 C367 1.340 . S
N366 C363 1.368 . S
N366 C367 1.321 . S
N366 Co369 2.135 . S
C367 N365 1.340 . S
C367 N366 1.321 . S
C367 H391 0.930 . S
H368 C363 0.931 . S
Co369 N366 2.135 . S
Co369 N372 2.121 . S
Co369 O377 2.055 . S
Co369 O380 2.039 . S
Co369 N383 2.140 . S
C370 O371 1.227 . S
C370 O380 1.265 . S
O371 C370 1.227 . S
N372 Co369 2.121 . S
N372 C374 1.375 . S
N372 C375 1.313 . S
C373 C374 1.338 . S
C373 N376 1.377 . S
C373 H393 0.930 . S
C374 N372 1.375 . S
C374 C373 1.338 . S
C374 H378 0.931 . S
C375 N372 1.313 . S
C375 N376 1.344 . S
C375 H379 0.930 . S
N376 C373 1.377 . S
N376 C375 1.344 . S
O377 Co369 2.055 . S
O377 C381 1.253 . S
H378 C374 0.931 . S
H379 C375 0.930 . S
O380 Co369 2.039 . S
O380 C370 1.265 . S
C381 O377 1.253 . S
C381 O382 1.227 . S
O382 C381 1.227 . S
N383 Co369 2.140 . S
N383 C386 1.346 . S
N383 C387 1.345 . S
C384 C385 1.387 . S
C384 C388 1.391 . S
C385 C384 1.387 . S
C385 C386 1.369 . S
C385 H394 0.929 . S
C386 N383 1.346 . S
C386 C385 1.369 . S
C386 H389 0.928 . S
C387 N383 1.345 . S
C387 C388 1.371 . S
C387 H390 0.931 . S
C388 C384 1.391 . S
C388 C387 1.371 . S
C388 H395 0.930 . S
H389 C386 0.928 . S
H390 C387 0.931 . S
H391 C367 0.930 . S
H392 C364 0.930 . S
H393 C373 0.930 . S
H394 C385 0.929 . S
H395 C388 0.930 . S
C396 C397 1.351 . S
C396 N399 1.368 . S
C396 H401 0.931 . S
C397 C396 1.351 . S
C397 N398 1.373 . S
C397 H425 0.930 . S
N398 C397 1.373 . S
N398 C400 1.340 . S
N399 C396 1.368 . S
N399 C400 1.321 . S
N399 Co402 2.135 . S
C400 N398 1.340 . S
C400 N399 1.321 . S
C400 H424 0.930 . S
H401 C396 0.931 . S
Co402 N399 2.135 . S
Co402 N405 2.121 . S
Co402 O410 2.055 . S
Co402 O413 2.039 . S
Co402 N416 2.140 . S
C403 O404 1.227 . S
C403 O413 1.265 . S
O404 C403 1.227 . S
N405 Co402 2.121 . S
N405 C407 1.375 . S
N405 C408 1.313 . S
C406 C407 1.338 . S
C406 N409 1.377 . S
C406 H426 0.930 . S
C407 N405 1.375 . S
C407 C406 1.338 . S
C407 H411 0.931 . S
C408 N405 1.313 . S
C408 N409 1.344 . S
C408 H412 0.930 . S
N409 C406 1.377 . S
N409 C408 1.344 . S
O410 Co402 2.055 . S
O410 C414 1.253 . S
H411 C407 0.931 . S
H412 C408 0.930 . S
O413 Co402 2.039 . S
O413 C403 1.265 . S
C414 O410 1.253 . S
C414 O415 1.227 . S
O415 C414 1.227 . S
N416 Co402 2.140 . S
N416 C419 1.346 . S
N416 C420 1.345 . S
C417 C418 1.387 . S
C417 C421 1.391 . S
C418 C417 1.387 . S
C418 C419 1.369 . S
C418 H427 0.929 . S
C419 N416 1.346 . S
C419 C418 1.369 . S
C419 H422 0.928 . S
C420 N416 1.345 . S
C420 C421 1.371 . S
C420 H423 0.931 . S
C421 C417 1.391 . S
C421 C420 1.371 . S
C421 H428 0.930 . S
H422 C419 0.928 . S
H423 C420 0.931 . S
H424 C400 0.930 . S
H425 C397 0.930 . S
H426 C406 0.930 . S
H427 C418 0.929 . S
H428 C421 0.930 . S
C429 C430 1.351 . S
C429 N432 1.368 . S
C429 H434 0.931 . S
C430 C429 1.351 . S
C430 N431 1.373 . S
C430 H458 0.930 . S
N431 C430 1.373 . S
N431 C433 1.340 . S
N432 C429 1.368 . S
N432 C433 1.321 . S
N432 Co435 2.135 . S
C433 N431 1.340 . S
C433 N432 1.321 . S
C433 H457 0.930 . S
H434 C429 0.931 . S
Co435 N432 2.135 . S
Co435 N438 2.121 . S
Co435 O443 2.055 . S
Co435 O446 2.039 . S
Co435 N449 2.140 . S
C436 O437 1.227 . S
C436 O446 1.265 . S
O437 C436 1.227 . S
N438 Co435 2.121 . S
N438 C440 1.375 . S
N438 C441 1.313 . S
C439 C440 1.338 . S
C439 N442 1.377 . S
C439 H459 0.930 . S
C440 N438 1.375 . S
C440 C439 1.338 . S
C440 H444 0.931 . S
C441 N438 1.313 . S
C441 N442 1.344 . S
C441 H445 0.930 . S
N442 C439 1.377 . S
N442 C441 1.344 . S
O443 Co435 2.055 . S
O443 C447 1.253 . S
H444 C440 0.931 . S
H445 C441 0.930 . S
O446 Co435 2.039 . S
O446 C436 1.265 . S
C447 O443 1.253 . S
C447 O448 1.227 . S
O448 C447 1.227 . S
N449 Co435 2.140 . S
N449 C452 1.346 . S
N449 C453 1.345 . S
C450 C451 1.387 . S
C450 C454 1.391 . S
C451 C450 1.387 . S
C451 C452 1.369 . S
C451 H460 0.929 . S
C452 N449 1.346 . S
C452 C451 1.369 . S
C452 H455 0.928 . S
C453 N449 1.345 . S
C453 C454 1.371 . S
C453 H456 0.931 . S
C454 C450 1.391 . S
C454 C453 1.371 . S
C454 H461 0.930 . S
H455 C452 0.928 . S
H456 C453 0.931 . S
H457 C433 0.930 . S
H458 C430 0.930 . S
H459 C439 0.930 . S
H460 C451 0.929 . S
H461 C454 0.930 . S
C462 C463 1.351 . S
C462 N465 1.368 . S
C462 H467 0.931 . S
C463 C462 1.351 . S
C463 N464 1.373 . S
C463 H491 0.930 . S
N464 C463 1.373 . S
N464 C466 1.340 . S
N465 C462 1.368 . S
N465 C466 1.321 . S
N465 Co468 2.135 . S
C466 N464 1.340 . S
C466 N465 1.321 . S
C466 H490 0.930 . S
H467 C462 0.931 . S
Co468 N465 2.135 . S
Co468 N471 2.121 . S
Co468 O476 2.055 . S
Co468 O479 2.039 . S
Co468 N482 2.140 . S
C469 O470 1.227 . S
C469 O479 1.265 . S
O470 C469 1.227 . S
N471 Co468 2.121 . S
N471 C473 1.375 . S
N471 C474 1.313 . S
C472 C473 1.338 1_554 S
C472 N475 1.377 . S
C472 H492 0.930 . S
C473 N471 1.375 . S
C473 C472 1.338 1_556 S
C473 H477 0.931 . S
C474 N471 1.313 . S
C474 N475 1.344 1_556 S
C474 H478 0.930 . S
N475 C472 1.377 . S
N475 C474 1.344 1_554 S
O476 Co468 2.055 . S
O476 C480 1.253 . S
H477 C473 0.931 . S
H478 C474 0.930 . S
O479 Co468 2.039 . S
O479 C469 1.265 . S
C480 O476 1.253 . S
C480 O481 1.227 . S
O481 C480 1.227 . S
N482 Co468 2.140 . S
N482 C485 1.346 . S
N482 C486 1.345 . S
C483 C484 1.387 . S
C483 C487 1.391 . S
C484 C483 1.387 . S
C484 C485 1.369 . S
C484 H493 0.929 . S
C485 N482 1.346 . S
C485 C484 1.369 . S
C485 H488 0.928 . S
C486 N482 1.345 . S
C486 C487 1.371 . S
C486 H489 0.931 . S
C487 C483 1.391 . S
C487 C486 1.371 . S
C487 H494 0.930 . S
H488 C485 0.928 . S
H489 C486 0.931 . S
H490 C466 0.930 . S
H491 C463 0.930 . S
H492 C472 0.930 . S
H493 C484 0.929 . S
H494 C487 0.930 . S
C495 C496 1.351 . S
C495 N498 1.368 . S
C495 H500 0.931 . S
C496 C495 1.351 . S
C496 N497 1.373 . S
C496 H524 0.930 . S
N497 C496 1.373 . S
N497 C499 1.340 . S
N498 C495 1.368 . S
N498 C499 1.321 . S
N498 Co501 2.135 . S
C499 N497 1.340 . S
C499 N498 1.321 . S
C499 H523 0.930 . S
H500 C495 0.931 . S
Co501 N498 2.135 . S
Co501 N504 2.121 . S
Co501 O509 2.055 . S
Co501 O512 2.039 . S
Co501 N515 2.140 . S
C502 O503 1.227 . S
C502 O512 1.265 . S
O503 C502 1.227 . S
N504 Co501 2.121 . S
N504 C506 1.375 . S
N504 C507 1.313 . S
C505 C506 1.338 . S
C505 N508 1.377 . S
C505 H525 0.930 . S
C506 N504 1.375 . S
C506 C505 1.338 . S
C506 H510 0.931 . S
C507 N504 1.313 . S
C507 N508 1.344 . S
C507 H511 0.930 . S
N508 C505 1.377 . S
N508 C507 1.344 . S
O509 Co501 2.055 . S
O509 C513 1.253 . S
H510 C506 0.931 . S
H511 C507 0.930 . S
O512 Co501 2.039 . S
O512 C502 1.265 . S
C513 O509 1.253 . S
C513 O514 1.227 . S
O514 C513 1.227 . S
N515 Co501 2.140 . S
N515 C518 1.346 . S
N515 C519 1.345 . S
C516 C517 1.387 . S
C516 C520 1.391 . S
C517 C516 1.387 . S
C517 C518 1.369 . S
C517 H526 0.929 . S
C518 N515 1.346 . S
C518 C517 1.369 . S
C518 H521 0.928 . S
C519 N515 1.345 . S
C519 C520 1.371 . S
C519 H522 0.931 . S
C520 C516 1.391 . S
C520 C519 1.371 . S
C520 H527 0.930 . S
H521 C518 0.928 . S
H522 C519 0.931 . S
H523 C499 0.930 . S
H524 C496 0.930 . S
H525 C505 0.930 . S
H526 C517 0.929 . S
H527 C520 0.930 . S
H528 C536 0.950 . S
H529 C541 0.950 . S
H530 C538 0.950 . S
H531 C540 0.950 . S
H532 C542 0.950 . S
H533 C544 0.950 . S
H534 C546 0.950 . S
H535 C547 0.950 . S
C536 H528 0.950 . S
C536 C537 1.386 . S
C536 C538 1.391 . S
C537 C536 1.386 . S
C537 C541 1.393 . S
C538 H530 0.950 . S
C538 C536 1.391 . S
C538 C539 1.400 . S
C539 C538 1.400 . S
C539 C540 1.398 . S
C539 C545 1.491 . S
C540 H531 0.950 . S
C540 C539 1.398 . S
C540 C541 1.391 . S
C541 H529 0.950 . S
C541 C537 1.393 . S
C541 C540 1.391 . S
C542 H532 0.950 . S
C542 C543 1.386 . S
C542 C544 1.391 . S
C543 C542 1.386 . S
C543 C547 1.393 . S
C544 H533 0.950 . S
C544 C542 1.391 . S
C544 C545 1.400 . S
C545 C539 1.491 . S
C545 C544 1.400 . S
C545 C546 1.398 . S
C546 H534 0.950 . S
C546 C545 1.398 . S
C546 C547 1.391 . S
C547 H535 0.950 . S
C547 C543 1.393 . S
C547 C546 1.391 . S
H548 C556 0.950 . S
H549 C561 0.950 . S
H550 C558 0.950 . S
H551 C560 0.950 . S
H552 C562 0.950 . S
H553 C564 0.950 . S
H554 C566 0.950 . S
H555 C567 0.950 . S
C556 H548 0.950 . S
C556 C557 1.386 . S
C556 C558 1.391 . S
C557 C556 1.386 . S
C557 C561 1.393 . S
C558 H550 0.950 . S
C558 C556 1.391 . S
C558 C559 1.400 . S
C559 C558 1.400 . S
C559 C560 1.398 . S
C559 C565 1.491 . S
C560 H551 0.950 . S
C560 C559 1.398 . S
C560 C561 1.391 . S
C561 H549 0.950 . S
C561 C557 1.393 . S
C561 C560 1.391 . S
C562 H552 0.950 . S
C562 C563 1.386 . S
C562 C564 1.391 . S
C563 C562 1.386 . S
C563 C567 1.393 . S
C564 H553 0.950 . S
C564 C562 1.391 . S
C564 C565 1.400 . S
C565 C559 1.491 . S
C565 C564 1.400 . S
C565 C566 1.398 . S
C566 H554 0.950 . S
C566 C565 1.398 . S
C566 C567 1.391 . S
C567 H555 0.950 . S
C567 C563 1.393 . S
C567 C566 1.391 . S
H568 C576 0.950 . S
H569 C581 0.950 . S
H570 C578 0.950 . S
H571 C580 0.950 . S
H572 C582 0.950 . S
H573 C584 0.950 . S
H574 C586 0.950 . S
H575 C587 0.950 . S
C576 H568 0.950 . S
C576 C577 1.386 . S
C576 C578 1.391 . S
C577 C576 1.386 . S
C577 C581 1.393 . S
C578 H570 0.950 . S
C578 C576 1.391 . S
C578 C579 1.400 . S
C579 C578 1.400 . S
C579 C580 1.398 . S
C579 C585 1.491 1_554 S
C580 H571 0.950 . S
C580 C579 1.398 . S
C580 C581 1.391 . S
C581 H569 0.950 . S
C581 C577 1.393 . S
C581 C580 1.391 . S
C582 H572 0.950 . S
C582 C583 1.386 . S
C582 C584 1.391 . S
C583 C582 1.386 . S
C583 C587 1.393 . S
C584 H573 0.950 . S
C584 C582 1.391 . S
C584 C585 1.400 . S
C585 C579 1.491 1_556 S
C585 C584 1.400 . S
C585 C586 1.398 . S
C586 H574 0.950 . S
C586 C585 1.398 . S
C586 C587 1.391 . S
C587 H575 0.950 . S
C587 C583 1.393 . S
C587 C586 1.391 . S
H588 C596 0.950 . S
H589 C601 0.950 . S
H590 C598 0.950 . S
H591 C600 0.950 . S
H592 C602 0.950 . S
H593 C604 0.950 . S
H594 C606 0.950 . S
H595 C607 0.950 . S
C596 H588 0.950 . S
C596 C597 1.386 . S
C596 C598 1.391 . S
C597 C596 1.386 . S
C597 C601 1.393 . S
C598 H590 0.950 . S
C598 C596 1.391 . S
C598 C599 1.400 . S
C599 C598 1.400 . S
C599 C600 1.398 . S
C599 C605 1.491 . S
C600 H591 0.950 . S
C600 C599 1.398 . S
C600 C601 1.391 . S
C601 H589 0.950 . S
C601 C597 1.393 . S
C601 C600 1.391 . S
C602 H592 0.950 . S
C602 C603 1.386 . S
C602 C604 1.391 . S
C603 C602 1.386 . S
C603 C607 1.393 . S
C604 H593 0.950 . S
C604 C602 1.391 . S
C604 C605 1.400 . S
C605 C599 1.491 . S
C605 C604 1.400 . S
C605 C606 1.398 . S
C606 H594 0.950 . S
C606 C605 1.398 . S
C606 C607 1.391 . S
C607 H595 0.950 . S
C607 C603 1.393 . S
C607 C606 1.391 . S
H608 C616 0.950 . S
H609 C621 0.950 . S
H610 C618 0.950 . S
H611 C620 0.950 . S
H612 C622 0.950 . S
H613 C624 0.950 . S
H614 C626 0.950 . S
H615 C627 0.950 . S
C616 H608 0.950 . S
C616 C617 1.386 . S
C616 C618 1.391 . S
C617 C616 1.386 . S
C617 C621 1.393 . S
C618 H610 0.950 . S
C618 C616 1.391 . S
C618 C619 1.400 . S
C619 C618 1.400 . S
C619 C620 1.398 . S
C619 C625 1.491 . S
C620 H611 0.950 . S
C620 C619 1.398 . S
C620 C621 1.391 . S
C621 H609 0.950 . S
C621 C617 1.393 . S
C621 C620 1.391 . S
C622 H612 0.950 . S
C622 C623 1.386 . S
C622 C624 1.391 . S
C623 C622 1.386 . S
C623 C627 1.393 . S
C624 H613 0.950 . S
C624 C622 1.391 . S
C624 C625 1.400 . S
C625 C619 1.491 . S
C625 C624 1.400 . S
C625 C626 1.398 . S
C626 H614 0.950 . S
C626 C625 1.398 . S
C626 C627 1.391 . S
C627 H615 0.950 . S
C627 C623 1.393 . S
C627 C626 1.391 . S
H628 C636 0.950 . S
H629 C641 0.950 . S
H630 C638 0.950 . S
H631 C640 0.950 . S
H632 C642 0.950 . S
H633 C644 0.950 . S
H634 C646 0.950 . S
H635 C647 0.950 . S
C636 H628 0.950 . S
C636 C637 1.386 . S
C636 C638 1.391 . S
C637 C636 1.386 . S
C637 C641 1.393 . S
C638 H630 0.950 . S
C638 C636 1.391 . S
C638 C639 1.400 . S
C639 C638 1.400 . S
C639 C640 1.398 . S
C639 C645 1.491 1_556 S
C640 H631 0.950 . S
C640 C639 1.398 . S
C640 C641 1.391 . S
C641 H629 0.950 . S
C641 C637 1.393 . S
C641 C640 1.391 . S
C642 H632 0.950 . S
C642 C643 1.386 . S
C642 C644 1.391 . S
C643 C642 1.386 . S
C643 C647 1.393 . S
C644 H633 0.950 . S
C644 C642 1.391 . S
C644 C645 1.400 . S
C645 C639 1.491 1_554 S
C645 C644 1.400 . S
C645 C646 1.398 . S
C646 H634 0.950 . S
C646 C645 1.398 . S
C646 C647 1.391 . S
C647 H635 0.950 . S
C647 C643 1.393 . S
C647 C646 1.391 . S
H648 C656 0.950 . S
H649 C661 0.950 . S
H650 C658 0.950 . S
H651 C660 0.950 . S
H652 C662 0.950 . S
H653 C664 0.950 . S
H654 C666 0.950 . S
H655 C667 0.950 . S
C656 H648 0.950 . S
C656 C657 1.386 . S
C656 C658 1.391 . S
C657 C656 1.386 . S
C657 C661 1.393 . S
C658 H650 0.950 . S
C658 C656 1.391 . S
C658 C659 1.400 . S
C659 C658 1.400 . S
C659 C660 1.398 . S
C659 C665 1.491 . S
C660 H651 0.950 . S
C660 C659 1.398 . S
C660 C661 1.391 . S
C661 H649 0.950 . S
C661 C657 1.393 . S
C661 C660 1.391 . S
C662 H652 0.950 . S
C662 C663 1.386 . S
C662 C664 1.391 . S
C663 C662 1.386 . S
C663 C667 1.393 . S
C664 H653 0.950 . S
C664 C662 1.391 . S
C664 C665 1.400 . S
C665 C659 1.491 . S
C665 C664 1.400 . S
C665 C666 1.398 . S
C666 H654 0.950 . S
C666 C665 1.398 . S
C666 C667 1.391 . S
C667 H655 0.950 . S
C667 C663 1.393 . S
C667 C666 1.391 . S
H668 C676 0.950 . S
H669 C681 0.950 . S
H670 C678 0.950 . S
H671 C680 0.950 . S
H672 C682 0.950 . S
H673 C684 0.950 . S
H674 C686 0.950 . S
H675 C687 0.950 . S
C676 H668 0.950 . S
C676 C677 1.386 . S
C676 C678 1.391 . S
C677 C676 1.386 . S
C677 C681 1.393 . S
C678 H670 0.950 . S
C678 C676 1.391 . S
C678 C679 1.400 . S
C679 C678 1.400 . S
C679 C680 1.398 . S
C679 C685 1.491 . S
C680 H671 0.950 . S
C680 C679 1.398 . S
C680 C681 1.391 . S
C681 H669 0.950 . S
C681 C677 1.393 . S
C681 C680 1.391 . S
C682 H672 0.950 . S
C682 C683 1.386 . S
C682 C684 1.391 . S
C683 C682 1.386 . S
C683 C687 1.393 . S
C684 H673 0.950 . S
C684 C682 1.391 . S
C684 C685 1.400 . S
C685 C679 1.491 . S
C685 C684 1.400 . S
C685 C686 1.398 . S
C686 H674 0.950 . S
C686 C685 1.398 . S
C686 C687 1.391 . S
C687 H675 0.950 . S
C687 C683 1.393 . S
C687 C686 1.391 . S
H688 C696 0.950 . S
H689 C701 0.950 . S
H690 C698 0.950 . S
H691 C700 0.950 . S
H692 C702 0.950 . S
H693 C704 0.950 . S
H694 C706 0.950 . S
H695 C707 0.950 . S
C696 H688 0.950 . S
C696 C697 1.386 . S
C696 C698 1.391 . S
C697 C696 1.386 . S
C697 C701 1.393 . S
C698 H690 0.950 . S
C698 C696 1.391 . S
C698 C699 1.400 . S
C699 C698 1.400 . S
C699 C700 1.398 . S
C699 C705 1.491 . S
C700 H691 0.950 . S
C700 C699 1.398 . S
C700 C701 1.391 . S
C701 H689 0.950 . S
C701 C697 1.393 . S
C701 C700 1.391 . S
C702 H692 0.950 . S
C702 C703 1.386 . S
C702 C704 1.391 . S
C703 C702 1.386 . S
C703 C707 1.393 . S
C704 H693 0.950 . S
C704 C702 1.391 . S
C704 C705 1.400 . S
C705 C699 1.491 . S
C705 C704 1.400 . S
C705 C706 1.398 . S
C706 H694 0.950 . S
C706 C705 1.398 . S
C706 C707 1.391 . S
C707 H695 0.950 . S
C707 C703 1.393 . S
C707 C706 1.391 . S
H708 C716 0.950 . S
H709 C721 0.950 . S
H710 C718 0.950 . S
H711 C720 0.950 . S
H712 C722 0.950 . S
H713 C724 0.950 . S
H714 C726 0.950 . S
H715 C727 0.950 . S
C716 H708 0.950 . S
C716 C717 1.386 . S
C716 C718 1.391 . S
C717 C716 1.386 . S
C717 C721 1.393 . S
C718 H710 0.950 . S
C718 C716 1.391 . S
C718 C719 1.400 . S
C719 C718 1.400 . S
C719 C720 1.398 . S
C719 C725 1.491 . S
C720 H711 0.950 . S
C720 C719 1.398 . S
C720 C721 1.391 . S
C721 H709 0.950 . S
C721 C717 1.393 . S
C721 C720 1.391 . S
C722 H712 0.950 . S
C722 C723 1.386 . S
C722 C724 1.391 . S
C723 C722 1.386 . S
C723 C727 1.393 . S
C724 H713 0.950 . S
C724 C722 1.391 . S
C724 C725 1.400 . S
C725 C719 1.491 . S
C725 C724 1.400 . S
C725 C726 1.398 . S
C726 H714 0.950 . S
C726 C725 1.398 . S
C726 C727 1.391 . S
C727 H715 0.950 . S
C727 C723 1.393 . S
C727 C726 1.391 . S
H728 C736 0.950 . S
H729 C741 0.950 . S
H730 C738 0.950 . S
H731 C740 0.950 . S
H732 C742 0.950 . S
H733 C744 0.950 . S
H734 C746 0.950 . S
H735 C747 0.950 . S
C736 H728 0.950 . S
C736 C737 1.386 . S
C736 C738 1.391 . S
C737 C736 1.386 . S
C737 C741 1.393 . S
C738 H730 0.950 . S
C738 C736 1.391 . S
C738 C739 1.400 . S
C739 C738 1.400 . S
C739 C740 1.398 . S
C739 C745 1.491 . S
C740 H731 0.950 . S
C740 C739 1.398 . S
C740 C741 1.391 . S
C741 H729 0.950 . S
C741 C737 1.393 . S
C741 C740 1.391 . S
C742 H732 0.950 . S
C742 C743 1.386 . S
C742 C744 1.391 . S
C743 C742 1.386 . S
C743 C747 1.393 . S
C744 H733 0.950 . S
C744 C742 1.391 . S
C744 C745 1.400 . S
C745 C739 1.491 . S
C745 C744 1.400 . S
C745 C746 1.398 . S
C746 H734 0.950 . S
C746 C745 1.398 . S
C746 C747 1.391 . S
C747 H735 0.950 . S
C747 C743 1.393 . S
C747 C746 1.391 . S
H748 C756 0.950 . S
H749 C761 0.950 . S
H750 C758 0.950 . S
H751 C760 0.950 . S
H752 C762 0.950 . S
H753 C764 0.950 . S
H754 C766 0.950 . S
H755 C767 0.950 . S
C756 H748 0.950 . S
C756 C757 1.386 . S
C756 C758 1.391 . S
C757 C756 1.386 . S
C757 C761 1.393 . S
C758 H750 0.950 . S
C758 C756 1.391 . S
C758 C759 1.400 . S
C759 C758 1.400 . S
C759 C760 1.398 . S
C759 C765 1.491 . S
C760 H751 0.950 . S
C760 C759 1.398 . S
C760 C761 1.391 . S
C761 H749 0.950 . S
C761 C757 1.393 . S
C761 C760 1.391 . S
C762 H752 0.950 . S
C762 C763 1.386 . S
C762 C764 1.391 . S
C763 C762 1.386 . S
C763 C767 1.393 . S
C764 H753 0.950 . S
C764 C762 1.391 . S
C764 C765 1.400 . S
C765 C759 1.491 . S
C765 C764 1.400 . S
C765 C766 1.398 . S
C766 H754 0.950 . S
C766 C765 1.398 . S
C766 C767 1.391 . S
C767 H755 0.950 . S
C767 C763 1.393 . S
C767 C766 1.391 . S
H768 C776 0.950 . S
H769 C781 0.950 . S
H770 C778 0.950 . S
H771 C780 0.950 . S
H772 C782 0.950 . S
H773 C784 0.950 . S
H774 C786 0.950 . S
H775 C787 0.950 . S
C776 H768 0.950 . S
C776 C777 1.386 . S
C776 C778 1.391 . S
C777 C776 1.386 . S
C777 C781 1.393 . S
C778 H770 0.950 . S
C778 C776 1.391 . S
C778 C779 1.400 . S
C779 C778 1.400 . S
C779 C780 1.398 . S
C779 C785 1.491 . S
C780 H771 0.950 . S
C780 C779 1.398 . S
C780 C781 1.391 . S
C781 H769 0.950 . S
C781 C777 1.393 . S
C781 C780 1.391 . S
C782 H772 0.950 . S
C782 C783 1.386 . S
C782 C784 1.391 . S
C783 C782 1.386 . S
C783 C787 1.393 . S
C784 H773 0.950 . S
C784 C782 1.391 . S
C784 C785 1.400 . S
C785 C779 1.491 . S
C785 C784 1.400 . S
C785 C786 1.398 . S
C786 H774 0.950 . S
C786 C785 1.398 . S
C786 C787 1.391 . S
C787 H775 0.950 . S
C787 C783 1.393 . S
C787 C786 1.391 . S
H788 C796 0.950 . S
H789 C801 0.950 . S
H790 C798 0.950 . S
H791 C800 0.950 . S
H792 C802 0.950 . S
H793 C804 0.950 . S
H794 C806 0.950 . S
H795 C807 0.950 . S
C796 H788 0.950 . S
C796 C797 1.386 . S
C796 C798 1.391 . S
C797 C796 1.386 . S
C797 C801 1.393 . S
C798 H790 0.950 . S
C798 C796 1.391 . S
C798 C799 1.400 . S
C799 C798 1.400 . S
C799 C800 1.398 . S
C799 C805 1.491 . S
C800 H791 0.950 . S
C800 C799 1.398 . S
C800 C801 1.391 . S
C801 H789 0.950 . S
C801 C797 1.393 . S
C801 C800 1.391 . S
C802 H792 0.950 . S
C802 C803 1.386 . S
C802 C804 1.391 . S
C803 C802 1.386 . S
C803 C807 1.393 . S
C804 H793 0.950 . S
C804 C802 1.391 . S
C804 C805 1.400 . S
C805 C799 1.491 . S
C805 C804 1.400 . S
C805 C806 1.398 . S
C806 H794 0.950 . S
C806 C805 1.398 . S
C806 C807 1.391 . S
C807 H795 0.950 . S
C807 C803 1.393 . S
C807 C806 1.391 . S
H808 C816 0.950 . S
H809 C821 0.950 . S
H810 C818 0.950 . S
H811 C820 0.950 . S
H812 C822 0.950 . S
H813 C824 0.950 . S
H814 C826 0.950 . S
H815 C827 0.950 . S
C816 H808 0.950 . S
C816 C817 1.386 . S
C816 C818 1.391 . S
C817 C816 1.386 . S
C817 C821 1.393 . S
C818 H810 0.950 . S
C818 C816 1.391 . S
C818 C819 1.400 . S
C819 C818 1.400 . S
C819 C820 1.398 . S
C819 C825 1.491 . S
C820 H811 0.950 . S
C820 C819 1.398 . S
C820 C821 1.391 . S
C821 H809 0.950 . S
C821 C817 1.393 . S
C821 C820 1.391 . S
C822 H812 0.950 . S
C822 C823 1.386 . S
C822 C824 1.391 . S
C823 C822 1.386 . S
C823 C827 1.393 . S
C824 H813 0.950 . S
C824 C822 1.391 . S
C824 C825 1.400 . S
C825 C819 1.491 . S
C825 C824 1.400 . S
C825 C826 1.398 . S
C826 H814 0.950 . S
C826 C825 1.398 . S
C826 C827 1.391 . S
C827 H815 0.950 . S
C827 C823 1.393 . S
C827 C826 1.391 . S
H828 C836 0.950 . S
H829 C841 0.950 . S
H830 C838 0.950 . S
H831 C840 0.950 . S
H832 C842 0.950 . S
H833 C844 0.950 . S
H834 C846 0.950 . S
H835 C847 0.950 . S
C836 H828 0.950 . S
C836 C837 1.386 . S
C836 C838 1.391 . S
C837 C836 1.386 . S
C837 C841 1.393 . S
C838 H830 0.950 . S
C838 C836 1.391 . S
C838 C839 1.400 . S
C839 C838 1.400 . S
C839 C840 1.398 . S
C839 C845 1.491 . S
C840 H831 0.950 . S
C840 C839 1.398 . S
C840 C841 1.391 . S
C841 H829 0.950 . S
C841 C837 1.393 . S
C841 C840 1.391 . S
C842 H832 0.950 . S
C842 C843 1.386 . S
C842 C844 1.391 . S
C843 C842 1.386 . S
C843 C847 1.393 . S
C844 H833 0.950 . S
C844 C842 1.391 . S
C844 C845 1.400 . S
C845 C839 1.491 . S
C845 C844 1.400 . S
C845 C846 1.398 . S
C846 H834 0.950 . S
C846 C845 1.398 . S
C846 C847 1.391 . S
C847 H835 0.950 . S
C847 C843 1.393 . S
C847 C846 1.391 . S
H848 C856 0.950 . S
H849 C861 0.950 . S
H850 C858 0.950 . S
H851 C860 0.950 . S
H852 C862 0.950 . S
H853 C864 0.950 . S
H854 C866 0.950 . S
H855 C867 0.950 . S
C856 H848 0.950 . S
C856 C857 1.386 . S
C856 C858 1.391 . S
C857 C856 1.386 . S
C857 C861 1.393 . S
C858 H850 0.950 . S
C858 C856 1.391 . S
C858 C859 1.400 . S
C859 C858 1.400 . S
C859 C860 1.398 . S
C859 C865 1.491 . S
C860 H851 0.950 . S
C860 C859 1.398 . S
C860 C861 1.391 . S
C861 H849 0.950 . S
C861 C857 1.393 . S
C861 C860 1.391 . S
C862 H852 0.950 . S
C862 C863 1.386 . S
C862 C864 1.391 . S
C863 C862 1.386 . S
C863 C867 1.393 . S
C864 H853 0.950 . S
C864 C862 1.391 . S
C864 C865 1.400 . S
C865 C859 1.491 . S
C865 C864 1.400 . S
C865 C866 1.398 . S
C866 H854 0.950 . S
C866 C865 1.398 . S
C866 C867 1.391 . S
C867 H855 0.950 . S
C867 C863 1.393 . S
C867 C866 1.391 . S
H868 C876 0.950 . S
H869 C881 0.950 . S
H870 C878 0.950 . S
H871 C880 0.950 . S
H872 C882 0.950 . S
H873 C884 0.950 . S
H874 C886 0.950 . S
H875 C887 0.950 . S
C876 H868 0.950 . S
C876 C877 1.386 . S
C876 C878 1.391 . S
C877 C876 1.386 . S
C877 C881 1.393 . S
C878 H870 0.950 . S
C878 C876 1.391 . S
C878 C879 1.400 . S
C879 C878 1.400 . S
C879 C880 1.398 . S
C879 C885 1.491 . S
C880 H871 0.950 . S
C880 C879 1.398 . S
C880 C881 1.391 . S
C881 H869 0.950 . S
C881 C877 1.393 . S
C881 C880 1.391 . S
C882 H872 0.950 . S
C882 C883 1.386 . S
C882 C884 1.391 . S
C883 C882 1.386 . S
C883 C887 1.393 . S
C884 H873 0.950 . S
C884 C882 1.391 . S
C884 C885 1.400 . S
C885 C879 1.491 . S
C885 C884 1.400 . S
C885 C886 1.398 . S
C886 H874 0.950 . S
C886 C885 1.398 . S
C886 C887 1.391 . S
C887 H875 0.950 . S
C887 C883 1.393 . S
C887 C886 1.391 . S
H888 C896 0.950 . S
H889 C901 0.950 . S
H890 C898 0.950 . S
H891 C900 0.950 . S
H892 C902 0.950 . S
H893 C904 0.950 . S
H894 C906 0.950 . S
H895 C907 0.950 . S
C896 H888 0.950 . S
C896 C897 1.386 . S
C896 C898 1.391 . S
C897 C896 1.386 . S
C897 C901 1.393 . S
C898 H890 0.950 . S
C898 C896 1.391 . S
C898 C899 1.400 . S
C899 C898 1.400 . S
C899 C900 1.398 . S
C899 C905 1.491 . S
C900 H891 0.950 . S
C900 C899 1.398 . S
C900 C901 1.391 . S
C901 H889 0.950 . S
C901 C897 1.393 . S
C901 C900 1.391 . S
C902 H892 0.950 . S
C902 C903 1.386 . S
C902 C904 1.391 . S
C903 C902 1.386 . S
C903 C907 1.393 . S
C904 H893 0.950 . S
C904 C902 1.391 . S
C904 C905 1.400 . S
C905 C899 1.491 . S
C905 C904 1.400 . S
C905 C906 1.398 . S
C906 H894 0.950 . S
C906 C905 1.398 . S
C906 C907 1.391 . S
C907 H895 0.950 . S
C907 C903 1.393 . S
C907 C906 1.391 . S
H908 C916 0.950 . S
H909 C921 0.950 . S
H910 C918 0.950 . S
H911 C920 0.950 . S
H912 C922 0.950 . S
H913 C924 0.950 . S
H914 C926 0.950 . S
H915 C927 0.950 . S
C916 H908 0.950 . S
C916 C917 1.386 . S
C916 C918 1.391 . S
C917 C916 1.386 . S
C917 C921 1.393 . S
C918 H910 0.950 . S
C918 C916 1.391 . S
C918 C919 1.400 . S
C919 C918 1.400 . S
C919 C920 1.398 . S
C919 C925 1.491 . S
C920 H911 0.950 . S
C920 C919 1.398 . S
C920 C921 1.391 . S
C921 H909 0.950 . S
C921 C917 1.393 . S
C921 C920 1.391 . S
C922 H912 0.950 . S
C922 C923 1.386 . S
C922 C924 1.391 . S
C923 C922 1.386 . S
C923 C927 1.393 . S
C924 H913 0.950 . S
C924 C922 1.391 . S
C924 C925 1.400 . S
C925 C919 1.491 . S
C925 C924 1.400 . S
C925 C926 1.398 . S
C926 H914 0.950 . S
C926 C925 1.398 . S
C926 C927 1.391 . S
C927 H915 0.950 . S
C927 C923 1.393 . S
C927 C926 1.391 . S
H928 C936 0.950 . S
H929 C941 0.950 . S
H930 C938 0.950 . S
H931 C940 0.950 . S
H932 C942 0.950 . S
H933 C944 0.950 . S
H934 C946 0.950 . S
H935 C947 0.950 . S
C936 H928 0.950 . S
C936 C937 1.386 . S
C936 C938 1.391 . S
C937 C936 1.386 . S
C937 C941 1.393 . S
C938 H930 0.950 . S
C938 C936 1.391 . S
C938 C939 1.400 . S
C939 C938 1.400 . S
C939 C940 1.398 . S
C939 C945 1.491 . S
C940 H931 0.950 . S
C940 C939 1.398 . S
C940 C941 1.391 . S
C941 H929 0.950 . S
C941 C937 1.393 . S
C941 C940 1.391 . S
C942 H932 0.950 . S
C942 C943 1.386 . S
C942 C944 1.391 . S
C943 C942 1.386 . S
C943 C947 1.393 . S
C944 H933 0.950 . S
C944 C942 1.391 . S
C944 C945 1.400 . S
C945 C939 1.491 . S
C945 C944 1.400 . S
C945 C946 1.398 . S
C946 H934 0.950 . S
C946 C945 1.398 . S
C946 C947 1.391 . S
C947 H935 0.950 . S
C947 C943 1.393 . S
C947 C946 1.391 . S
H948 C956 0.950 . S
H949 C961 0.950 . S
H950 C958 0.950 . S
H951 C960 0.950 . S
H952 C962 0.950 . S
H953 C964 0.950 . S
H954 C966 0.950 . S
H955 C967 0.950 . S
C956 H948 0.950 . S
C956 C957 1.386 . S
C956 C958 1.391 . S
C957 C956 1.386 . S
C957 C961 1.393 . S
C958 H950 0.950 . S
C958 C956 1.391 . S
C958 C959 1.400 . S
C959 C958 1.400 . S
C959 C960 1.398 . S
C959 C965 1.491 . S
C960 H951 0.950 . S
C960 C959 1.398 . S
C960 C961 1.391 . S
C961 H949 0.950 . S
C961 C957 1.393 . S
C961 C960 1.391 . S
C962 H952 0.950 . S
C962 C963 1.386 . S
C962 C964 1.391 . S
C963 C962 1.386 . S
C963 C967 1.393 . S
C964 H953 0.950 . S
C964 C962 1.391 . S
C964 C965 1.400 . S
C965 C959 1.491 . S
C965 C964 1.400 . S
C965 C966 1.398 . S
C966 H954 0.950 . S
C966 C965 1.398 . S
C966 C967 1.391 . S
C967 H955 0.950 . S
C967 C963 1.393 . S
C967 C966 1.391 . S
H968 C976 0.950 . S
H969 C981 0.950 . S
H970 C978 0.950 . S
H971 C980 0.950 . S
H972 C982 0.950 . S
H973 C984 0.950 . S
H974 C986 0.950 . S
H975 C987 0.950 . S
C976 H968 0.950 . S
C976 C977 1.386 . S
C976 C978 1.391 . S
C977 C976 1.386 . S
C977 C981 1.393 . S
C978 H970 0.950 . S
C978 C976 1.391 . S
C978 C979 1.400 . S
C979 C978 1.400 . S
C979 C980 1.398 . S
C979 C985 1.491 . S
C980 H971 0.950 . S
C980 C979 1.398 . S
C980 C981 1.391 . S
C981 H969 0.950 . S
C981 C977 1.393 . S
C981 C980 1.391 . S
C982 H972 0.950 . S
C982 C983 1.386 . S
C982 C984 1.391 . S
C983 C982 1.386 . S
C983 C987 1.393 . S
C984 H973 0.950 . S
C984 C982 1.391 . S
C984 C985 1.400 . S
C985 C979 1.491 . S
C985 C984 1.400 . S
C985 C986 1.398 . S
C986 H974 0.950 . S
C986 C985 1.398 . S
C986 C987 1.391 . S
C987 H975 0.950 . S
C987 C983 1.393 . S
C987 C986 1.391 . S
H988 C996 0.950 . S
H989 C1001 0.950 . S
H990 C998 0.950 . S
H991 C1000 0.950 . S
H992 C1002 0.950 . S
H993 C1004 0.950 . S
H994 C1006 0.950 . S
H995 C1007 0.950 . S
C996 H988 0.950 . S
C996 C997 1.386 . S
C996 C998 1.391 . S
C997 C996 1.386 . S
C997 C1001 1.393 . S
C998 H990 0.950 . S
C998 C996 1.391 . S
C998 C999 1.400 . S
C999 C998 1.400 . S
C999 C1000 1.398 . S
C999 C1005 1.491 . S
C1000 H991 0.950 . S
C1000 C999 1.398 . S
C1000 C1001 1.391 . S
C1001 H989 0.950 . S
C1001 C997 1.393 . S
C1001 C1000 1.391 . S
C1002 H992 0.950 . S
C1002 C1003 1.386 . S
C1002 C1004 1.391 . S
C1003 C1002 1.386 . S
C1003 C1007 1.393 . S
C1004 H993 0.950 . S
C1004 C1002 1.391 . S
C1004 C1005 1.400 . S
C1005 C999 1.491 . S
C1005 C1004 1.400 . S
C1005 C1006 1.398 . S
C1006 H994 0.950 . S
C1006 C1005 1.398 . S
C1006 C1007 1.391 . S
C1007 H995 0.950 . S
C1007 C1003 1.393 . S
C1007 C1006 1.391 . S
H1008 C1016 0.950 . S
H1009 C1021 0.950 . S
H1010 C1018 0.950 1_565 S
H1011 C1020 0.950 1_655 S
H1012 C1022 0.950 . S
H1013 C1024 0.950 1_545 S
H1014 C1026 0.950 1_455 S
H1015 C1027 0.950 . S
C1016 H1008 0.950 . S
C1016 C1017 1.386 . S
C1016 C1018 1.391 . S
C1017 C1016 1.386 . S
C1017 C1021 1.393 . S
C1018 H1010 0.950 1_545 S
C1018 C1016 1.391 . S
C1018 C1019 1.400 . S
C1019 C1018 1.400 . S
C1019 C1020 1.398 . S
C1019 C1025 1.491 1_445 S
C1020 H1011 0.950 1_455 S
C1020 C1019 1.398 . S
C1020 C1021 1.391 . S
C1021 H1009 0.950 . S
C1021 C1017 1.393 . S
C1021 C1020 1.391 . S
C1022 H1012 0.950 . S
C1022 C1023 1.386 . S
C1022 C1024 1.391 . S
C1023 C1022 1.386 . S
C1023 C1027 1.393 . S
C1024 H1013 0.950 1_565 S
C1024 C1022 1.391 . S
C1024 C1025 1.400 . S
C1025 C1019 1.491 1_665 S
C1025 C1024 1.400 . S
C1025 C1026 1.398 . S
C1026 H1014 0.950 1_655 S
C1026 C1025 1.398 . S
C1026 C1027 1.391 . S
C1027 H1015 0.950 . S
C1027 C1023 1.393 . S
C1027 C1026 1.391 . S
H1028 C1036 0.950 . S
H1029 C1041 0.950 . S
H1030 C1038 0.950 . S
H1031 C1040 0.950 1_655 S
H1032 C1042 0.950 . S
H1033 C1044 0.950 . S
H1034 C1046 0.950 1_455 S
H1035 C1047 0.950 . S
C1036 H1028 0.950 . S
C1036 C1037 1.386 . S
C1036 C1038 1.391 . S
C1037 C1036 1.386 . S
C1037 C1041 1.393 . S
C1038 H1030 0.950 . S
C1038 C1036 1.391 . S
C1038 C1039 1.400 . S
C1039 C1038 1.400 . S
C1039 C1040 1.398 . S
C1039 C1045 1.491 1_455 S
C1040 H1031 0.950 1_455 S
C1040 C1039 1.398 . S
C1040 C1041 1.391 . S
C1041 H1029 0.950 . S
C1041 C1037 1.393 . S
C1041 C1040 1.391 . S
C1042 H1032 0.950 . S
C1042 C1043 1.386 . S
C1042 C1044 1.391 . S
C1043 C1042 1.386 . S
C1043 C1047 1.393 . S
C1044 H1033 0.950 . S
C1044 C1042 1.391 . S
C1044 C1045 1.400 . S
C1045 C1039 1.491 1_655 S
C1045 C1044 1.400 . S
C1045 C1046 1.398 . S
C1046 H1034 0.950 1_655 S
C1046 C1045 1.398 . S
C1046 C1047 1.391 . S
C1047 H1035 0.950 . S
C1047 C1043 1.393 . S
C1047 C1046 1.391 . S
H1048 C1056 0.950 . S
H1049 C1061 0.950 . S
H1050 C1058 0.950 . S
H1051 C1060 0.950 . S
H1052 C1062 0.950 . S
H1053 C1064 0.950 . S
H1054 C1066 0.950 . S
H1055 C1067 0.950 . S
C1056 H1048 0.950 . S
C1056 C1057 1.386 . S
C1056 C1058 1.391 . S
C1057 C1056 1.386 . S
C1057 C1061 1.393 . S
C1058 H1050 0.950 . S
C1058 C1056 1.391 . S
C1058 C1059 1.400 . S
C1059 C1058 1.400 . S
C1059 C1060 1.398 . S
C1059 C1065 1.491 . S
C1060 H1051 0.950 . S
C1060 C1059 1.398 . S
C1060 C1061 1.391 . S
C1061 H1049 0.950 . S
C1061 C1057 1.393 . S
C1061 C1060 1.391 . S
C1062 H1052 0.950 . S
C1062 C1063 1.386 . S
C1062 C1064 1.391 . S
C1063 C1062 1.386 . S
C1063 C1067 1.393 . S
C1064 H1053 0.950 . S
C1064 C1062 1.391 . S
C1064 C1065 1.400 . S
C1065 C1059 1.491 . S
C1065 C1064 1.400 . S
C1065 C1066 1.398 . S
C1066 H1054 0.950 . S
C1066 C1065 1.398 . S
C1066 C1067 1.391 . S
C1067 H1055 0.950 . S
C1067 C1063 1.393 . S
C1067 C1066 1.391 . S
H1068 C1076 0.950 . S
H1069 C1081 0.950 . S
H1070 C1078 0.950 . S
H1071 C1080 0.950 . S
H1072 C1082 0.950 . S
H1073 C1084 0.950 . S
H1074 C1086 0.950 . S
H1075 C1087 0.950 . S
C1076 H1068 0.950 . S
C1076 C1077 1.386 . S
C1076 C1078 1.391 . S
C1077 C1076 1.386 . S
C1077 C1081 1.393 . S
C1078 H1070 0.950 . S
C1078 C1076 1.391 . S
C1078 C1079 1.400 . S
C1079 C1078 1.400 . S
C1079 C1080 1.398 . S
C1079 C1085 1.491 1_545 S
C1080 H1071 0.950 . S
C1080 C1079 1.398 . S
C1080 C1081 1.391 . S
C1081 H1069 0.950 . S
C1081 C1077 1.393 . S
C1081 C1080 1.391 . S
C1082 H1072 0.950 . S
C1082 C1083 1.386 . S
C1082 C1084 1.391 . S
C1083 C1082 1.386 . S
C1083 C1087 1.393 . S
C1084 H1073 0.950 . S
C1084 C1082 1.391 . S
C1084 C1085 1.400 . S
C1085 C1079 1.491 1_565 S
C1085 C1084 1.400 . S
C1085 C1086 1.398 . S
C1086 H1074 0.950 . S
C1086 C1085 1.398 . S
C1086 C1087 1.391 . S
C1087 H1075 0.950 . S
C1087 C1083 1.393 . S
C1087 C1086 1.391 . S
H1088 C1096 0.950 . S
H1089 C1101 0.950 . S
H1090 C1098 0.950 1_655 S
H1091 C1100 0.950 . S
H1092 C1102 0.950 . S
H1093 C1104 0.950 1_455 S
H1094 C1106 0.950 . S
H1095 C1107 0.950 . S
C1096 H1088 0.950 . S
C1096 C1097 1.386 . S
C1096 C1098 1.391 . S
C1097 C1096 1.386 . S
C1097 C1101 1.393 . S
C1098 H1090 0.950 1_455 S
C1098 C1096 1.391 . S
C1098 C1099 1.400 . S
C1099 C1098 1.400 . S
C1099 C1100 1.398 . S
C1099 C1105 1.491 1_455 S
C1100 H1091 0.950 . S
C1100 C1099 1.398 . S
C1100 C1101 1.391 . S
C1101 H1089 0.950 . S
C1101 C1097 1.393 . S
C1101 C1100 1.391 . S
C1102 H1092 0.950 . S
C1102 C1103 1.386 . S
C1102 C1104 1.391 . S
C1103 C1102 1.386 . S
C1103 C1107 1.393 . S
C1104 H1093 0.950 1_655 S
C1104 C1102 1.391 . S
C1104 C1105 1.400 . S
C1105 C1099 1.491 1_655 S
C1105 C1104 1.400 . S
C1105 C1106 1.398 . S
C1106 H1094 0.950 . S
C1106 C1105 1.398 . S
C1106 C1107 1.391 . S
C1107 H1095 0.950 . S
C1107 C1103 1.393 . S
C1107 C1106 1.391 . S
H1108 C1116 0.950 . S
H1109 C1121 0.950 . S
H1110 C1118 0.950 . S
H1111 C1120 0.950 . S
H1112 C1122 0.950 . S
H1113 C1124 0.950 . S
H1114 C1126 0.950 . S
H1115 C1127 0.950 . S
C1116 H1108 0.950 . S
C1116 C1117 1.386 . S
C1116 C1118 1.391 . S
C1117 C1116 1.386 . S
C1117 C1121 1.393 . S
C1118 H1110 0.950 . S
C1118 C1116 1.391 . S
C1118 C1119 1.400 . S
C1119 C1118 1.400 . S
C1119 C1120 1.398 . S
C1119 C1125 1.491 . S
C1120 H1111 0.950 . S
C1120 C1119 1.398 . S
C1120 C1121 1.391 . S
C1121 H1109 0.950 . S
C1121 C1117 1.393 . S
C1121 C1120 1.391 . S
C1122 H1112 0.950 . S
C1122 C1123 1.386 . S
C1122 C1124 1.391 . S
C1123 C1122 1.386 . S
C1123 C1127 1.393 . S
C1124 H1113 0.950 . S
C1124 C1122 1.391 . S
C1124 C1125 1.400 . S
C1125 C1119 1.491 . S
C1125 C1124 1.400 . S
C1125 C1126 1.398 . S
C1126 H1114 0.950 . S
C1126 C1125 1.398 . S
C1126 C1127 1.391 . S
C1127 H1115 0.950 . S
C1127 C1123 1.393 . S
C1127 C1126 1.391 . S
H1128 C1136 0.950 . S
H1129 C1141 0.950 . S
H1130 C1138 0.950 . S
H1131 C1140 0.950 . S
H1132 C1142 0.950 . S
H1133 C1144 0.950 . S
H1134 C1146 0.950 . S
H1135 C1147 0.950 . S
C1136 H1128 0.950 . S
C1136 C1137 1.386 . S
C1136 C1138 1.391 . S
C1137 C1136 1.386 . S
C1137 C1141 1.393 . S
C1138 H1130 0.950 . S
C1138 C1136 1.391 . S
C1138 C1139 1.400 . S
C1139 C1138 1.400 . S
C1139 C1140 1.398 . S
C1139 C1145 1.491 1_565 S
C1140 H1131 0.950 . S
C1140 C1139 1.398 . S
C1140 C1141 1.391 . S
C1141 H1129 0.950 . S
C1141 C1137 1.393 . S
C1141 C1140 1.391 . S
C1142 H1132 0.950 . S
C1142 C1143 1.386 . S
C1142 C1144 1.391 . S
C1143 C1142 1.386 . S
C1143 C1147 1.393 . S
C1144 H1133 0.950 . S
C1144 C1142 1.391 . S
C1144 C1145 1.400 . S
C1145 C1139 1.491 1_545 S
C1145 C1144 1.400 . S
C1145 C1146 1.398 . S
C1146 H1134 0.950 . S
C1146 C1145 1.398 . S
C1146 C1147 1.391 . S
C1147 H1135 0.950 . S
C1147 C1143 1.393 . S
C1147 C1146 1.391 . S
H1148 C1156 0.950 . S
H1149 C1161 0.950 . S
H1150 C1158 0.950 1_655 S
H1151 C1160 0.950 1_565 S
H1152 C1162 0.950 . S
H1153 C1164 0.950 1_455 S
H1154 C1166 0.950 1_545 S
H1155 C1167 0.950 . S
C1156 H1148 0.950 . S
C1156 C1157 1.386 . S
C1156 C1158 1.391 . S
C1157 C1156 1.386 . S
C1157 C1161 1.393 . S
C1158 H1150 0.950 1_455 S
C1158 C1156 1.391 . S
C1158 C1159 1.400 . S
C1159 C1158 1.400 . S
C1159 C1160 1.398 . S
C1159 C1165 1.491 1_445 S
C1160 H1151 0.950 1_545 S
C1160 C1159 1.398 . S
C1160 C1161 1.391 . S
C1161 H1149 0.950 . S
C1161 C1157 1.393 . S
C1161 C1160 1.391 . S
C1162 H1152 0.950 . S
C1162 C1163 1.386 . S
C1162 C1164 1.391 . S
C1163 C1162 1.386 . S
C1163 C1167 1.393 . S
C1164 H1153 0.950 1_655 S
C1164 C1162 1.391 . S
C1164 C1165 1.400 . S
C1165 C1159 1.491 1_665 S
C1165 C1164 1.400 . S
C1165 C1166 1.398 . S
C1166 H1154 0.950 1_565 S
C1166 C1165 1.398 . S
C1166 C1167 1.391 . S
C1167 H1155 0.950 . S
C1167 C1163 1.393 . S
C1167 C1166 1.391 . S
H1168 C1176 0.950 . S
H1169 C1181 0.950 . S
H1170 C1178 0.950 . S
H1171 C1180 0.950 . S
H1172 C1182 0.950 . S
H1173 C1184 0.950 . S
H1174 C1186 0.950 . S
H1175 C1187 0.950 . S
C1176 H1168 0.950 . S
C1176 C1177 1.386 . S
C1176 C1178 1.391 . S
C1177 C1176 1.386 . S
C1177 C1181 1.393 . S
C1178 H1170 0.950 . S
C1178 C1176 1.391 . S
C1178 C1179 1.400 . S
C1179 C1178 1.400 . S
C1179 C1180 1.398 . S
C1179 C1185 1.491 . S
C1180 H1171 0.950 . S
C1180 C1179 1.398 . S
C1180 C1181 1.391 . S
C1181 H1169 0.950 . S
C1181 C1177 1.393 . S
C1181 C1180 1.391 . S
C1182 H1172 0.950 . S
C1182 C1183 1.386 . S
C1182 C1184 1.391 . S
C1183 C1182 1.386 . S
C1183 C1187 1.393 . S
C1184 H1173 0.950 . S
C1184 C1182 1.391 . S
C1184 C1185 1.400 . S
C1185 C1179 1.491 . S
C1185 C1184 1.400 . S
C1185 C1186 1.398 . S
C1186 H1174 0.950 . S
C1186 C1185 1.398 . S
C1186 C1187 1.391 . S
C1187 H1175 0.950 . S
C1187 C1183 1.393 . S
C1187 C1186 1.391 . S
H1188 C1196 0.950 . S
H1189 C1201 0.950 . S
H1190 C1198 0.950 . S
H1191 C1200 0.950 . S
H1192 C1202 0.950 . S
H1193 C1204 0.950 . S
H1194 C1206 0.950 . S
H1195 C1207 0.950 . S
C1196 H1188 0.950 . S
C1196 C1197 1.386 . S
C1196 C1198 1.391 . S
C1197 C1196 1.386 . S
C1197 C1201 1.393 . S
C1198 H1190 0.950 . S
C1198 C1196 1.391 . S
C1198 C1199 1.400 . S
C1199 C1198 1.400 . S
C1199 C1200 1.398 . S
C1199 C1205 1.491 . S
C1200 H1191 0.950 . S
C1200 C1199 1.398 . S
C1200 C1201 1.391 . S
C1201 H1189 0.950 . S
C1201 C1197 1.393 . S
C1201 C1200 1.391 . S
C1202 H1192 0.950 . S
C1202 C1203 1.386 . S
C1202 C1204 1.391 . S
C1203 C1202 1.386 . S
C1203 C1207 1.393 . S
C1204 H1193 0.950 . S
C1204 C1202 1.391 . S
C1204 C1205 1.400 . S
C1205 C1199 1.491 . S
C1205 C1204 1.400 . S
C1205 C1206 1.398 . S
C1206 H1194 0.950 . S
C1206 C1205 1.398 . S
C1206 C1207 1.391 . S
C1207 H1195 0.950 . S
C1207 C1203 1.393 . S
C1207 C1206 1.391 . S
H1208 C1216 0.950 . S
H1209 C1221 0.950 . S
H1210 C1218 0.950 . S
H1211 C1220 0.950 . S
H1212 C1222 0.950 . S
H1213 C1224 0.950 . S
H1214 C1226 0.950 . S
H1215 C1227 0.950 . S
C1216 H1208 0.950 . S
C1216 C1217 1.386 . S
C1216 C1218 1.391 . S
C1217 C1216 1.386 . S
C1217 C1221 1.393 . S
C1218 H1210 0.950 . S
C1218 C1216 1.391 . S
C1218 C1219 1.400 . S
C1219 C1218 1.400 . S
C1219 C1220 1.398 . S
C1219 C1225 1.491 . S
C1220 H1211 0.950 . S
C1220 C1219 1.398 . S
C1220 C1221 1.391 . S
C1221 H1209 0.950 . S
C1221 C1217 1.393 . S
C1221 C1220 1.391 . S
C1222 H1212 0.950 . S
C1222 C1223 1.386 . S
C1222 C1224 1.391 . S
C1223 C1222 1.386 . S
C1223 C1227 1.393 . S
C1224 H1213 0.950 . S
C1224 C1222 1.391 . S
C1224 C1225 1.400 . S
C1225 C1219 1.491 . S
C1225 C1224 1.400 . S
C1225 C1226 1.398 . S
C1226 H1214 0.950 . S
C1226 C1225 1.398 . S
C1226 C1227 1.391 . S
C1227 H1215 0.950 . S
C1227 C1223 1.393 . S
C1227 C1226 1.391 . S
H1228 C1236 0.950 . S
H1229 C1241 0.950 . S
H1230 C1238 0.950 . S
H1231 C1240 0.950 . S
H1232 C1242 0.950 . S
H1233 C1244 0.950 . S
H1234 C1246 0.950 . S
H1235 C1247 0.950 . S
C1236 H1228 0.950 . S
C1236 C1237 1.386 . S
C1236 C1238 1.391 . S
C1237 C1236 1.386 . S
C1237 C1241 1.393 . S
C1238 H1230 0.950 . S
C1238 C1236 1.391 . S
C1238 C1239 1.400 . S
C1239 C1238 1.400 . S
C1239 C1240 1.398 . S
C1239 C1245 1.491 . S
C1240 H1231 0.950 . S
C1240 C1239 1.398 . S
C1240 C1241 1.391 . S
C1241 H1229 0.950 . S
C1241 C1237 1.393 . S
C1241 C1240 1.391 . S
C1242 H1232 0.950 . S
C1242 C1243 1.386 . S
C1242 C1244 1.391 . S
C1243 C1242 1.386 . S
C1243 C1247 1.393 . S
C1244 H1233 0.950 . S
C1244 C1242 1.391 . S
C1244 C1245 1.400 . S
C1245 C1239 1.491 . S
C1245 C1244 1.400 . S
C1245 C1246 1.398 . S
C1246 H1234 0.950 . S
C1246 C1245 1.398 . S
C1246 C1247 1.391 . S
C1247 H1235 0.950 . S
C1247 C1243 1.393 . S
C1247 C1246 1.391 . S
H1248 C1256 0.950 . S
H1249 C1261 0.950 . S
H1250 C1258 0.950 . S
H1251 C1260 0.950 . S
H1252 C1262 0.950 . S
H1253 C1264 0.950 . S
H1254 C1266 0.950 . S
H1255 C1267 0.950 . S
C1256 H1248 0.950 . S
C1256 C1257 1.386 . S
C1256 C1258 1.391 . S
C1257 C1256 1.386 . S
C1257 C1261 1.393 . S
C1258 H1250 0.950 . S
C1258 C1256 1.391 . S
C1258 C1259 1.400 . S
C1259 C1258 1.400 . S
C1259 C1260 1.398 . S
C1259 C1265 1.491 . S
C1260 H1251 0.950 . S
C1260 C1259 1.398 . S
C1260 C1261 1.391 . S
C1261 H1249 0.950 . S
C1261 C1257 1.393 . S
C1261 C1260 1.391 . S
C1262 H1252 0.950 . S
C1262 C1263 1.386 . S
C1262 C1264 1.391 . S
C1263 C1262 1.386 . S
C1263 C1267 1.393 . S
C1264 H1253 0.950 . S
C1264 C1262 1.391 . S
C1264 C1265 1.400 . S
C1265 C1259 1.491 . S
C1265 C1264 1.400 . S
C1265 C1266 1.398 . S
C1266 H1254 0.950 . S
C1266 C1265 1.398 . S
C1266 C1267 1.391 . S
C1267 H1255 0.950 . S
C1267 C1263 1.393 . S
C1267 C1266 1.391 . S
H1268 C1276 0.950 . S
H1269 C1281 0.950 . S
H1270 C1278 0.950 . S
H1271 C1280 0.950 . S
H1272 C1282 0.950 . S
H1273 C1284 0.950 . S
H1274 C1286 0.950 . S
H1275 C1287 0.950 . S
C1276 H1268 0.950 . S
C1276 C1277 1.386 . S
C1276 C1278 1.391 . S
C1277 C1276 1.386 . S
C1277 C1281 1.393 . S
C1278 H1270 0.950 . S
C1278 C1276 1.391 . S
C1278 C1279 1.400 . S
C1279 C1278 1.400 . S
C1279 C1280 1.398 . S
C1279 C1285 1.491 . S
C1280 H1271 0.950 . S
C1280 C1279 1.398 . S
C1280 C1281 1.391 . S
C1281 H1269 0.950 . S
C1281 C1277 1.393 . S
C1281 C1280 1.391 . S
C1282 H1272 0.950 . S
C1282 C1283 1.386 . S
C1282 C1284 1.391 . S
C1283 C1282 1.386 . S
C1283 C1287 1.393 . S
C1284 H1273 0.950 . S
C1284 C1282 1.391 . S
C1284 C1285 1.400 . S
C1285 C1279 1.491 . S
C1285 C1284 1.400 . S
C1285 C1286 1.398 . S
C1286 H1274 0.950 . S
C1286 C1285 1.398 . S
C1286 C1287 1.391 . S
C1287 H1275 0.950 . S
C1287 C1283 1.393 . S
C1287 C1286 1.391 . S
H1288 C1296 0.950 . S
H1289 C1301 0.950 . S
H1290 C1298 0.950 . S
H1291 C1300 0.950 . S
H1292 C1302 0.950 . S
H1293 C1304 0.950 . S
H1294 C1306 0.950 . S
H1295 C1307 0.950 . S
C1296 H1288 0.950 . S
C1296 C1297 1.386 . S
C1296 C1298 1.391 . S
C1297 C1296 1.386 . S
C1297 C1301 1.393 . S
C1298 H1290 0.950 . S
C1298 C1296 1.391 . S
C1298 C1299 1.400 . S
C1299 C1298 1.400 . S
C1299 C1300 1.398 . S
C1299 C1305 1.491 . S
C1300 H1291 0.950 . S
C1300 C1299 1.398 . S
C1300 C1301 1.391 . S
C1301 H1289 0.950 . S
C1301 C1297 1.393 . S
C1301 C1300 1.391 . S
C1302 H1292 0.950 . S
C1302 C1303 1.386 . S
C1302 C1304 1.391 . S
C1303 C1302 1.386 . S
C1303 C1307 1.393 . S
C1304 H1293 0.950 . S
C1304 C1302 1.391 . S
C1304 C1305 1.400 . S
C1305 C1299 1.491 . S
C1305 C1304 1.400 . S
C1305 C1306 1.398 . S
C1306 H1294 0.950 . S
C1306 C1305 1.398 . S
C1306 C1307 1.391 . S
C1307 H1295 0.950 . S
C1307 C1303 1.393 . S
C1307 C1306 1.391 . S
H1308 C1316 0.950 . S
H1309 C1321 0.950 . S
H1310 C1318 0.950 . S
H1311 C1320 0.950 . S
H1312 C1322 0.950 . S
H1313 C1324 0.950 . S
H1314 C1326 0.950 . S
H1315 C1327 0.950 . S
C1316 H1308 0.950 . S
C1316 C1317 1.386 . S
C1316 C1318 1.391 . S
C1317 C1316 1.386 . S
C1317 C1321 1.393 . S
C1318 H1310 0.950 . S
C1318 C1316 1.391 . S
C1318 C1319 1.400 . S
C1319 C1318 1.400 . S
C1319 C1320 1.398 . S
C1319 C1325 1.491 . S
C1320 H1311 0.950 . S
C1320 C1319 1.398 . S
C1320 C1321 1.391 . S
C1321 H1309 0.950 . S
C1321 C1317 1.393 . S
C1321 C1320 1.391 . S
C1322 H1312 0.950 . S
C1322 C1323 1.386 . S
C1322 C1324 1.391 . S
C1323 C1322 1.386 . S
C1323 C1327 1.393 . S
C1324 H1313 0.950 . S
C1324 C1322 1.391 . S
C1324 C1325 1.400 . S
C1325 C1319 1.491 . S
C1325 C1324 1.400 . S
C1325 C1326 1.398 . S
C1326 H1314 0.950 . S
C1326 C1325 1.398 . S
C1326 C1327 1.391 . S
C1327 H1315 0.950 . S
C1327 C1323 1.393 . S
C1327 C1326 1.391 . S
C537 N2 0.521 . S
C543 N431 0.475 . S
C557 N464 0.459 . S
C563 N35 0.471 . S
C577 N497 0.554 . S
C583 N68 0.541 . S
C597 N398 0.469 . S
C603 N101 0.513 . S
C617 N365 0.482 . S
C623 N134 0.457 . S
C637 N266 0.464 . S
C643 N167 0.505 . S
C657 N200 0.498 . S
C663 N299 0.541 . S
C677 N332 0.536 . S
C683 N233 0.555 . S
C697 C304 1.985 . S
C703 N13 2.103 . S
C717 N46 2.100 . S
C723 C337 1.990 . S
C737 N79 2.101 . S
C743 C370 1.988 . S
C757 N112 2.102 . S
C763 C271 1.987 . S
C777 N145 2.101 . S
C783 C502 1.969 . S
C797 C403 1.968 . S
C803 N178 2.104 . S
C817 C436 1.984 . S
C823 N211 2.096 . S
C837 C469 1.989 . S
C843 N244 2.101 . S
C857 N277 2.097 . S
C863 C40 1.979 . S
C877 N310 2.105 . S
C883 C73 1.969 . S
C897 N343 2.105 . S
C903 C106 1.976 . S
C917 C7 1.983 . S
C923 N376 2.103 . S
C937 N409 2.104 . S
C943 C238 1.968 . S
C957 C139 1.992 . S
C963 N442 2.099 . S
C977 N475 2.105 . S
C983 C172 1.969 . S
C997 N508 2.096 . S
C1003 C205 1.981 . S
C1017 C21 1.245 . S
C1023 C351 1.257 . S
C1037 C384 1.255 . S
C1043 C54 1.240 . S
C1057 C87 1.244 . S
C1063 C285 1.258 . S
C1077 C318 1.256 . S
C1083 C120 1.248 . S
C1097 C153 1.255 . S
C1103 C483 1.240 . S
C1117 C516 1.248 . S
C1123 C186 1.244 . S
C1137 C417 1.243 . S
C1143 C219 1.249 . S
C1157 C450 1.246 . S
C1163 C252 1.256 . S
C1177 C216 0.530 . S
C1183 C18 0.554 . S
C1197 C51 0.534 . S
C1203 C249 0.536 . S
C1217 C150 0.600 . S
C1223 C84 0.593 . S
C1237 C117 0.530 . S
C1243 C183 0.556 . S
C1257 C282 0.590 . S
C1263 C480 0.555 . S
C1277 C315 0.533 . S
C1283 C513 0.563 . S
C1297 C348 0.597 . S
C1303 C414 0.565 . S
C1317 C447 0.583 . S
C1323 C381 0.601 . S
