# Generated by pormake.
# Topology tsi, (8)-cn, num edge types: 1
# Building blocks:
#     Node 0, Type 0, BuildingBlock: TAGTUT_clean_sbu_3, # of connection points: 8
#     Node 1, Type 0, BuildingBlock: TAGTUT_clean_sbu_3, # of connection points: 8
#     Node 2, Type 0, BuildingBlock: TAGTUT_clean_sbu_3, # of connection points: 8
#     Node 3, Type 0, BuildingBlock: TAGTUT_clean_sbu_3, # of connection points: 8
#     Edge 4, Type (0, 0), BuildingBlock: KIFKEQ_clean_linker_1, # of connection points: 2
#     Edge 5, Type (0, 0), BuildingBlock: KIFKEQ_clean_linker_1, # of connection points: 2
#     Edge 6, Type (0, 0), BuildingBlock: KIFKEQ_clean_linker_1, # of connection points: 2
#     Edge 7, Type (0, 0), BuildingBlock: KIFKEQ_clean_linker_1, # of connection points: 2
#     Edge 8, Type (0, 0), BuildingBlock: KIFKEQ_clean_linker_1, # of connection points: 2
#     Edge 9, Type (0, 0), BuildingBlock: KIFKEQ_clean_linker_1, # of connection points: 2
#     Edge 10, Type (0, 0), BuildingBlock: KIFKEQ_clean_linker_1, # of connection points: 2
#     Edge 11, Type (0, 0), BuildingBlock: KIFKEQ_clean_linker_1, # of connection points: 2
#     Edge 12, Type (0, 0), BuildingBlock: KIFKEQ_clean_linker_1, # of connection points: 2
#     Edge 13, Type (0, 0), BuildingBlock: KIFKEQ_clean_linker_1, # of connection points: 2
#     Edge 14, Type (0, 0), BuildingBlock: KIFKEQ_clean_linker_1, # of connection points: 2
#     Edge 15, Type (0, 0), BuildingBlock: KIFKEQ_clean_linker_1, # of connection points: 2
#     Edge 16, Type (0, 0), BuildingBlock: KIFKEQ_clean_linker_1, # of connection points: 2
#     Edge 17, Type (0, 0), BuildingBlock: KIFKEQ_clean_linker_1, # of connection points: 2
#     Edge 18, Type (0, 0), BuildingBlock: KIFKEQ_clean_linker_1, # of connection points: 2
#     Edge 19, Type (0, 0), BuildingBlock: KIFKEQ_clean_linker_1, # of connection points: 2
# Relax obj value: 0.145
# Max RMSD: 0.223
# Mean RMSD: 0.223
data_MOF--net-tsi--node1-TAGTUT_clean_sbu_3--edge1-KIFKEQ_clean_linker_1
_symmetry_space_group_name_H-M    P1
_symmetry_Int_Tables_number       1
_symmetry_cell_setting            triclinic
loop_
_symmetry_equiv_pos_as_xyz
'x, y, z'
_cell_length_a     16.155173
_cell_length_b     16.172347
_cell_length_c     67.633563
_cell_angle_alpha  90.367707
_cell_angle_beta   90.008767
_cell_angle_gamma 89.88348
loop_
_atom_site_label
_atom_site_type_symbol
_atom_site_fract_x
_atom_site_fract_y
_atom_site_fract_z
_atom_type_partial_charge
C0 C 0.18572 0.18715 0.35501 0.0
C1 C 0.02355 0.14442 0.28761 0.0
C2 C 0.82464 0.26375 0.31887 0.0
Mg3 Mg 0.1168 0.21437 0.39903 0.0
Mg4 Mg 0.93873 0.13812 0.4153 0.0
O5 O -0.00403 0.18946 0.39509 0.0
Mg6 Mg -0.00739 0.1622 0.36629 0.0
O7 O -0.00052 0.14498 0.33699 0.0
Mg8 Mg 0.0302 0.26034 0.329 0.0
Mg9 Mg 0.91091 0.09876 0.32309 0.0
C10 C 0.79792 0.14528 0.38223 0.0
O11 O 0.97919 0.01896 0.36857 0.0
O12 O 0.0826 0.27409 0.42881 0.0
O13 O 0.9049 0.98898 0.34106 0.0
O14 O 0.13708 0.09253 0.41613 0.0
O15 O 0.95519 0.23259 0.43759 0.0
O16 O 0.01519 0.03622 0.42394 0.0
O17 O 0.00237 0.30147 0.36091 0.0
O18 O 0.09266 0.33748 0.38422 0.0
C19 C 0.045 0.35648 0.36992 0.0
C20 C 0.01984 0.27692 0.44041 0.0
O21 O 0.84915 0.16367 0.36832 0.0
O22 O 0.05252 0.205 0.29786 0.0
O23 O 0.82078 0.12849 0.39998 0.0
O24 O 0.89707 0.29531 0.31966 0.0
O25 O 0.96791 0.09535 0.29417 0.0
O26 O 0.81293 0.18731 0.32227 0.0
O27 O 0.13366 0.15884 0.3675 0.0
O28 O 0.16152 0.22444 0.33934 0.0
C29 C 0.09426 0.0372 0.42494 0.0
C30 C 0.93995 0.96742 0.35731 0.0
C31 C 0.19235 0.79924 0.63355 0.0
C32 C 0.02524 0.84662 0.70056 0.0
C33 C 0.82962 0.72502 0.66901 0.0
Mg34 Mg 0.12277 0.76971 0.58941 0.0
Mg35 Mg 0.94377 0.84775 0.5736 0.0
O36 O 0.00188 0.79417 0.59344 0.0
Mg37 Mg -0.00034 0.82294 0.62207 0.0
O38 O 0.00613 0.84287 0.65123 0.0
Mg39 Mg 0.03633 0.72814 0.6597 0.0
Mg40 Mg 0.91503 0.8888 0.66439 0.0
C41 C 0.80499 0.84047 0.60698 0.0
O42 O 0.98509 0.96625 0.61911 0.0
O43 O 0.08663 0.70962 0.55983 0.0
O44 O 0.90894 -0.00234 0.64622 0.0
O45 O 0.14219 0.89088 0.57202 0.0
O46 O 0.95919 0.75289 0.55127 0.0
O47 O 0.02036 0.94889 0.56475 0.0
O48 O 0.01025 0.68418 0.62792 0.0
O49 O 0.10002 0.64715 0.60456 0.0
C50 C 0.0531 0.6288 0.61903 0.0
C51 C 0.02336 0.70755 0.54836 0.0
O52 O 0.85726 0.8191 0.62038 0.0
O53 O 0.05646 0.78608 0.69064 0.0
O54 O 0.82637 0.86067 0.58934 0.0
O55 O 0.90261 0.69419 0.66885 0.0
O56 O 0.96881 0.89411 0.69364 0.0
O57 O 0.81704 0.80066 0.66478 0.0
O58 O 0.14066 0.82651 0.62079 0.0
O59 O 0.16778 0.76374 0.64942 0.0
C60 C 0.09929 0.94674 0.56339 0.0
C61 C 0.94486 0.01841 0.63005 0.0
C62 C 0.54344 0.85374 0.86963 0.0
C63 C 0.51743 0.77583 0.9399 0.0
C64 C 0.59135 0.53547 0.92504 0.0
Mg65 Mg 0.52832 0.75835 0.82879 0.0
Mg66 Mg 0.40919 0.5968 0.82257 0.0
O67 O 0.49761 0.64276 0.83659 0.0
Mg68 Mg 0.49076 0.65945 0.86592 0.0
O69 O 0.49419 0.68635 0.89473 0.0
Mg70 Mg 0.61486 0.71156 0.89875 0.0
Mg71 Mg 0.4362 0.63656 0.91502 0.0
C72 C 0.43828 0.46474 0.85666 0.0
O73 O 0.3473 0.6612 0.86793 0.0
O74 O 0.55066 0.70398 0.79758 0.0
O75 O 0.31856 0.62673 0.89961 0.0
O76 O 0.39519 0.79367 0.81962 0.0
O77 O 0.46637 0.59425 0.79364 0.0
O78 O 0.31116 0.68543 0.82191 0.0
O79 O 0.63197 0.6558 0.86722 0.0
O80 O 0.65944 0.72185 0.83907 0.0
C81 C 0.6838 0.68417 0.85467 0.0
C82 C 0.52196 0.64367 0.7872 0.0
O83 O 0.47717 0.51616 0.86803 0.0
O84 O 0.58046 0.77194 0.92841 0.0
O85 O 0.40343 0.48652 0.8404 0.0
O86 O 0.63465 0.58993 0.91605 0.0
O87 O 0.45244 0.73202 0.93707 0.0
O88 O 0.51226 0.53501 0.92404 0.0
O89 O 0.50066 0.79865 0.86071 0.0
O90 O 0.59126 0.83477 0.8839 0.0
C91 C 0.32278 0.7621 0.81878 0.0
C92 C 0.29592 0.64317 0.88183 0.0
C93 C 0.69092 0.29099 0.13318 0.0
C94 C 0.52523 0.33876 0.20002 0.0
C95 C 0.32822 0.21858 0.16873 0.0
Mg96 Mg 0.62148 0.26653 0.08887 0.0
Mg97 Mg 0.44233 0.34448 0.07357 0.0
O98 O 0.50035 0.28808 0.093 0.0
Mg99 Mg 0.49831 0.3144 0.12175 0.0
O100 O 0.50467 0.33396 0.15082 0.0
Mg101 Mg 0.53494 0.21926 0.15918 0.0
Mg102 Mg 0.41457 0.38246 0.16398 0.0
C103 C 0.30358 0.33367 0.10685 0.0
O104 O 0.48492 0.45661 0.11899 0.0
O105 O 0.58582 0.20917 0.05896 0.0
O106 O 0.40865 0.49226 0.14581 0.0
O107 O 0.64036 0.38937 0.07217 0.0
O108 O 0.45803 0.25226 0.05065 0.0
O109 O 0.51808 0.44707 0.06528 0.0
O110 O 0.50908 0.17451 0.12728 0.0
O111 O 0.59857 0.1438 0.10333 0.0
C112 C 0.55246 0.12154 0.11763 0.0
C113 C 0.52252 0.20769 0.0475 0.0
O114 O 0.35588 0.31083 0.1201 0.0
O115 O 0.55534 0.27761 0.1901 0.0
O116 O 0.32493 0.35567 0.08933 0.0
O117 O 0.40083 0.18681 0.16836 0.0
O118 O 0.46948 0.38713 0.19311 0.0
O119 O 0.31627 0.29453 0.16466 0.0
O120 O 0.63916 0.31927 0.12056 0.0
O121 O 0.66641 0.25453 0.14893 0.0
C122 C 0.59696 0.44551 0.06378 0.0
C123 C 0.44555 0.51044 0.12958 0.0
H124 H 0.14577 0.38034 0.45086 0.0
H125 H 0.89635 0.31105 0.46707 0.0
H126 H 0.14537 0.48611 0.47646 0.0
H127 H 0.89698 0.41648 0.49305 0.0
H128 H 0.8991 0.67535 0.52179 0.0
H129 H 0.89806 0.56966 0.49586 0.0
H130 H 0.14543 0.49548 0.51244 0.0
H131 H 0.14753 0.60146 0.53797 0.0
C132 C 0.09105 0.38709 0.45998 0.0
C133 C 0.021 0.33721 0.45689 0.0
C134 C 0.09103 0.44762 0.4747 0.0
C135 C 0.02109 0.45959 0.48669 0.0
C136 C 0.95133 0.40923 0.48381 0.0
C137 C 0.9513 0.34845 0.46906 0.0
C138 C 0.95346 0.63688 0.51981 0.0
C139 C 0.0234 0.64696 0.53195 0.0
C140 C 0.95253 0.57596 0.50508 0.0
C141 C 0.02155 0.52429 0.50221 0.0
C142 C 0.09168 0.53501 0.51419 0.0
C143 C 0.09266 0.59569 0.52887 0.0
H144 H 0.68175 0.65823 0.77628 0.0
H145 H 0.43902 0.60011 0.75343 0.0
H146 H 0.73936 0.64658 0.74308 0.0
H147 H 0.49684 0.59138 0.71974 0.0
H148 H 0.66695 0.77048 0.67354 0.0
H149 H 0.57654 0.72261 0.69994 0.0
H150 H 0.75025 0.52838 0.71356 0.0
H151 H 0.84036 0.5746 0.68702 0.0
C152 C 0.64097 0.64225 0.76412 0.0
C153 C 0.55615 0.63034 0.7673 0.0
C154 C 0.67395 0.63478 0.74519 0.0
C155 C 0.62247 0.6171 0.72899 0.0
C156 C 0.53762 0.60402 0.73211 0.0
C157 C 0.50481 0.60917 0.75126 0.0
C158 C 0.68423 0.7152 0.68152 0.0
C159 C 0.76234 0.67826 0.67868 0.0
C160 C 0.63212 0.68764 0.69659 0.0
C161 C 0.65774 0.62316 0.70895 0.0
C162 C 0.72985 0.57879 0.70426 0.0
C163 C 0.78144 0.60559 0.68907 0.0
H164 H 0.74276 0.56688 0.94206 0.0
H165 H 0.52278 0.41767 0.94883 0.0
H166 H 0.76904 0.55677 0.97754 0.0
H167 H 0.54957 0.40867 0.98419 0.0
H168 H 0.52628 0.56402 0.04045 0.0
H169 H 0.55016 0.57343 0.00499 0.0
H170 H 0.77073 0.42523 0.01053 0.0
H171 H 0.7474 0.41472 0.04612 0.0
C172 C 0.70206 0.52867 0.95084 0.0
C173 C 0.62884 0.4954 0.94262 0.0
C174 C 0.71698 0.52379 0.97122 0.0
C175 C 0.65962 0.48456 0.98349 0.0
C176 C 0.59357 0.44091 0.97494 0.0
C177 C 0.57883 0.44537 0.95464 0.0
C178 C 0.58197 0.5364 0.03438 0.0
C179 C 0.63308 0.48612 0.04612 0.0
C180 C 0.59505 0.54109 0.01402 0.0
C181 C 0.66055 0.49751 0.00513 0.0
C182 C 0.71907 0.45816 0.01712 0.0
C183 C 0.70583 0.45304 0.03755 0.0
H184 H 0.66206 0.21914 0.31421 0.0
H185 H 0.83548 0.41481 0.30119 0.0
H186 H 0.57283 0.26693 0.28754 0.0
H187 H 0.74645 0.46114 0.27442 0.0
H188 H 0.68452 0.32824 0.21166 0.0
H189 H 0.73925 0.34317 0.24507 0.0
H190 H 0.4937 0.39533 0.26709 0.0
H191 H 0.43881 0.38329 0.23319 0.0
C192 C 0.6795 0.2744 0.30628 0.0
C193 C 0.75745 0.31112 0.30928 0.0
C194 C 0.62805 0.30197 0.29107 0.0
C195 C 0.65417 0.36627 0.27874 0.0
C196 C 0.72574 0.41079 0.28368 0.0
C197 C 0.7767 0.38395 0.29901 0.0
C198 C 0.64248 0.34432 0.22357 0.0
C199 C 0.55767 0.35428 0.21999 0.0
C200 C 0.67378 0.35373 0.24262 0.0
C201 C 0.6206 0.37141 0.25852 0.0
C202 C 0.53576 0.38276 0.25496 0.0
C203 C 0.50462 0.37568 0.23569 0.0
H204 H 0.16577 0.26484 0.17326 0.0
H205 H 0.33862 0.06892 0.1871 0.0
H206 H 0.07587 0.21891 0.19996 0.0
H207 H 0.24908 0.02473 0.21394 0.0
H208 H 0.18284 0.16028 0.27628 0.0
H209 H 0.2394 0.14677 0.24301 0.0
H210 H -0.00333 0.08741 0.2204 0.0
H211 H 0.93994 0.09801 0.25415 0.0
C212 C 0.18299 0.20992 0.18139 0.0
C213 C 0.26086 0.17248 0.17854 0.0
C214 C 0.13119 0.18348 0.19663 0.0
C215 C 0.15689 0.11964 0.20917 0.0
C216 C 0.22863 0.07464 0.2045 0.0
C217 C 0.27988 0.10028 0.18913 0.0
C218 C 0.14179 0.14306 0.26428 0.0
C219 C 0.05722 0.13045 0.26767 0.0
C220 C 0.17418 0.13453 0.24531 0.0
C221 C 0.12232 0.11507 0.22929 0.0
C222 C 0.03773 0.10142 0.23263 0.0
C223 C 0.00555 0.10764 0.25182 0.0
H224 H 0.18467 0.84153 0.71223 0.0
H225 H 0.93691 0.88559 0.73382 0.0
H226 H 0.23835 0.85453 0.74578 0.0
H227 H 0.99078 0.89564 0.76784 0.0
H228 H 0.16065 0.71682 0.81361 0.0
H229 H 0.07124 0.76797 0.78735 0.0
H230 H 0.24315 0.96582 0.77611 0.0
H231 H 0.33241 0.916 0.80248 0.0
C232 C 0.14196 0.85497 0.72419 0.0
C233 C 0.05691 0.8622 0.72058 0.0
C234 C 0.17262 0.8633 0.74332 0.0
C235 C 0.11859 0.87708 0.75928 0.0
C236 C 0.03348 0.8861 0.75568 0.0
C237 C 0.00291 0.88015 0.73634 0.0
C238 C 0.17768 0.77345 0.80619 0.0
C239 C 0.2553 0.81031 0.80955 0.0
C240 C 0.1261 0.80298 0.79122 0.0
C241 C 0.15176 0.8694 0.77949 0.0
C242 C 0.22283 0.91382 0.78488 0.0
C243 C 0.27396 0.88495 0.79997 0.0
H244 H 0.64354 0.87954 0.95 0.0
H245 H 0.39408 0.8115 0.96649 0.0
H246 H 0.64354 0.98646 0.97531 0.0
H247 H 0.39514 0.91808 0.9922 0.0
H248 H 0.39826 0.17672 0.02084 0.0
H249 H 0.39675 0.07128 -0.00515 0.0
H250 H 0.64425 -0.00337 0.01123 0.0
H251 H 0.64682 0.10236 0.0368 0.0
C252 C 0.58888 0.8868 0.95913 0.0
C253 C 0.51873 0.8369 0.9562 0.0
C254 C 0.58909 0.94802 0.97368 0.0
C255 C 0.5193 0.96063 0.98567 0.0
C256 C 0.44938 0.91034 0.98295 0.0
C257 C 0.4491 0.84889 0.96836 0.0
C258 C 0.45259 0.13827 0.01878 0.0
C259 C 0.52265 0.14805 0.03089 0.0
C260 C 0.45139 0.07749 0.00403 0.0
C261 C 0.52025 0.02566 0.00111 0.0
C262 C 0.5906 0.03628 0.01301 0.0
C263 C 0.59187 0.09683 0.02771 0.0
H264 H 0.02641 0.91842 0.44856 0.0
H265 H 0.24616 0.06797 0.44178 0.0
H266 H 0.05385 0.90857 0.48388 0.0
H267 H 0.27299 0.05715 0.47722 0.0
H268 H 0.03076 0.06616 0.53997 0.0
H269 H 0.05552 0.0753 0.50453 0.0
H270 H 0.2735 0.92348 0.51029 0.0
H271 H 0.24937 0.91335 0.54585 0.0
C272 C 0.08256 0.94598 0.45435 0.0
C273 C 0.13224 -0.00354 0.44237 0.0
C274 C 0.09769 0.94101 0.47462 0.0
C275 C 0.16381 0.98461 0.48317 0.0
C276 C 0.22092 0.02419 0.4709 0.0
C277 C 0.20566 0.0295 0.45055 0.0
C278 C 0.08613 0.03769 0.53395 0.0
C279 C 0.13623 0.98661 0.54574 0.0
C280 C 0.09971 0.04226 0.51361 0.0
C281 C 0.16467 -0.00237 0.50479 0.0
C282 C 0.22229 0.95726 0.51683 0.0
C283 C 0.20859 0.95235 0.53725 0.0
H284 H 0.01698 0.88695 0.38813 0.0
H285 H 0.87186 0.84334 0.33534 0.0
H286 H 0.03878 0.7381 0.39126 0.0
H287 H 0.89748 0.6971 0.33778 0.0
H288 H 0.90635 0.42741 0.35443 0.0
H289 H 0.87245 0.57393 0.35371 0.0
H290 H 0.11659 0.63222 0.37605 0.0
H291 H 0.14838 0.4853 0.37776 0.0
C292 C 0.98917 0.84585 0.37731 0.0
C293 C 0.9433 0.87751 0.36141 0.0
C294 C 0.00255 0.76052 0.37893 0.0
C295 C 0.97107 0.70526 0.36458 0.0
C296 C 0.92213 0.73705 0.34925 0.0
C297 C 0.90783 0.82167 0.34779 0.0
C298 C 0.95312 0.47167 0.3589 0.0
C299 C 0.03005 0.44497 0.36611 0.0
C300 C 0.9337 0.55588 0.35856 0.0
C301 C 0.99143 0.6154 0.36503 0.0
C302 C 0.06966 0.5884 0.37148 0.0
C303 C 0.08846 0.50418 0.37216 0.0
H304 H 0.26996 0.83507 0.59869 0.0
H305 H 0.31787 0.78193 0.66018 0.0
H306 H 0.41797 0.8461 0.5927 0.0
H307 H 0.46563 0.79657 0.65443 0.0
H308 H 0.72662 0.73861 0.63276 0.0
H309 H 0.57883 0.72965 0.63931 0.0
H310 H 0.53475 0.92999 0.59853 0.0
H311 H 0.68261 0.93656 0.59154 0.0
C312 C 0.31205 0.8264 0.61096 0.0
C313 C 0.28216 0.80716 0.62988 0.0
C314 C 0.39703 0.83336 0.60757 0.0
C315 C 0.45402 0.82237 0.62308 0.0
C316 C 0.42382 0.80397 0.64205 0.0
C317 C 0.33895 0.79596 0.64537 0.0
C318 C 0.68535 0.78144 0.62544 0.0
C319 C 0.716 0.83864 0.61177 0.0
C320 C 0.60054 0.77638 0.62917 0.0
C321 C 0.54455 0.8291 0.61945 0.0
C322 C 0.57573 0.88734 0.60601 0.0
C323 C 0.66048 0.89157 0.60209 0.0
H324 H 0.3724 0.34064 0.83429 0.0
H325 H 0.51355 0.38414 0.8877 0.0
H326 H 0.39812 0.19438 0.83679 0.0
H327 H 0.53549 0.23532 0.89085 0.0
H328 H 0.64627 0.98273 0.87777 0.0
H329 H 0.61455 0.12961 0.87588 0.0
H330 H 0.37188 0.07111 0.85268 0.0
H331 H 0.40568 0.92458 0.85362 0.0
C332 C 0.40751 0.31894 0.84689 0.0
C333 C 0.44179 0.37475 0.86069 0.0
C334 C 0.42187 0.23432 0.84837 0.0
C335 C 0.46973 0.20253 0.86389 0.0
C336 C 0.50011 0.25775 0.87839 0.0
C337 C 0.48665 0.34306 0.87675 0.0
C338 C 0.58668 0.00152 0.87195 0.0
C339 C 0.52864 0.94223 0.86574 0.0
C340 C 0.56792 0.08573 0.87116 0.0
C341 C 0.49011 0.11267 0.86442 0.0
C342 C 0.4328 0.05309 0.85777 0.0
C343 C 0.45217 0.96887 0.85824 0.0
H344 H 0.22522 0.2308 0.13242 0.0
H345 H 0.18117 0.43039 0.09165 0.0
H346 H 0.07741 0.2214 0.13889 0.0
H347 H 0.03334 0.42341 0.09858 0.0
H348 H 0.76861 0.32855 0.09843 0.0
H349 H 0.91666 0.33984 0.0925 0.0
H350 H 0.96405 0.28739 0.15411 0.0
H351 H 0.8163 0.27241 0.15977 0.0
C352 C 0.18394 0.27385 0.12517 0.0
C353 C 0.2146 0.3316 0.11164 0.0
C354 C 0.09912 0.26856 0.12887 0.0
C355 C 0.04312 0.32161 0.11925 0.0
C356 C 0.07431 0.38046 0.10597 0.0
C357 C 0.15906 0.38493 0.10208 0.0
C358 C 0.81066 0.31927 0.11068 0.0
C359 C 0.78071 0.29909 0.12953 0.0
C360 C 0.89566 0.32638 0.10734 0.0
C361 C 0.95258 0.31465 0.12283 0.0
C362 C 0.9223 0.29535 0.14174 0.0
C363 C 0.83744 0.28715 0.14501 0.0
H364 H 0.86991 0.14267 0.65069 0.0
H365 H 0.02905 0.09854 0.60028 0.0
H366 H 0.89654 0.28865 0.64876 0.0
H367 H 0.05176 0.24733 0.59752 0.0
H368 H 0.15795 0.49962 0.61244 0.0
H369 H 0.12545 0.3528 0.6136 0.0
H370 H 0.87711 0.41248 0.63307 0.0
H371 H 0.91174 0.55867 0.63302 0.0
C372 C 0.90922 0.16421 0.63883 0.0
C373 C 0.94835 0.10822 0.6258 0.0
C374 C 0.9241 0.24876 0.63765 0.0
C375 C 0.97725 0.28043 0.62315 0.0
C376 C 0.01225 0.22507 0.60925 0.0
C377 C -0.0017 0.13976 0.61063 0.0
C378 C 0.09697 0.48096 0.61734 0.0
C379 C 0.03761 0.54044 0.6228 0.0
C380 C 0.07776 0.39683 0.61768 0.0
C381 C -0.00184 0.37021 0.62313 0.0
C382 C 0.93943 0.43007 0.62902 0.0
C383 C 0.95925 0.51413 0.62907 0.0
H384 H 0.75923 0.60805 0.88588 0.0
H385 H 0.81174 0.74114 0.83207 0.0
H386 H 0.90702 0.59372 0.89203 0.0
H387 H 0.95949 0.7281 0.83847 0.0
H388 H 0.21793 0.61576 0.84648 0.0
H389 H 0.06974 0.62421 0.83959 0.0
H390 H 0.02342 0.6805 0.90116 0.0
H391 H 0.17109 0.67242 0.90792 0.0
C392 C 0.80218 0.63459 0.87541 0.0
C393 C 0.77356 0.67598 0.85852 0.0
C394 C 0.88692 0.62662 0.87898 0.0
C395 C 0.94493 0.65988 0.86575 0.0
C396 C 0.91636 0.70088 0.84881 0.0
C397 C 0.83161 0.70886 0.84523 0.0
C398 C 0.17613 0.6312 0.85841 0.0
C399 C 0.20625 0.64481 0.87762 0.0
C400 C 0.09127 0.63561 0.85453 0.0
C401 C 0.03489 0.65333 0.86983 0.0
C402 C 0.06509 0.66569 0.88909 0.0
C403 C 0.14977 0.66126 0.89295 0.0
H404 H 0.56885 0.58542 0.10901 0.0
H405 H 0.34072 0.63571 0.14016 0.0
H406 H 0.59607 0.73256 0.10707 0.0
H407 H 0.36529 0.78377 0.13727 0.0
H408 H 0.47692 0.03931 0.1484 0.0
H409 H 0.44786 0.89099 0.15023 0.0
H410 H 0.5602 0.8557 0.09272 0.0
H411 H 0.59322 0.0005 0.09151 0.0
C412 C 0.52316 0.62812 0.11489 0.0
C413 C 0.45272 0.59902 0.12474 0.0
C414 C 0.53873 0.71284 0.11382 0.0
C415 C 0.48324 0.77065 0.12219 0.0
C416 C 0.41053 0.74132 0.13113 0.0
C417 C 0.39577 0.65645 0.13253 0.0
C418 C 0.4963 -0.0007 0.13635 0.0
C419 C 0.53826 0.03174 0.11997 0.0
C420 C 0.47885 0.91446 0.13724 0.0
C421 C 0.50174 0.86085 0.1216 0.0
C422 C 0.54333 0.89403 0.10528 0.0
C423 C 0.56208 0.97779 0.10457 0.0
H424 H 0.71967 0.11832 0.3469 0.0
H425 H 0.67318 0.17401 0.4084 0.0
H426 H 0.57148 0.12706 0.34006 0.0
H427 H 0.52546 0.18241 0.40168 0.0
H428 H 0.26084 0.11096 0.38627 0.0
H429 H 0.40858 0.09644 0.39249 0.0
H430 H 0.46161 0.23114 0.33901 0.0
H431 H 0.31393 0.24438 0.33254 0.0
C432 C 0.67795 0.13361 0.35886 0.0
C433 C 0.70818 0.14691 0.37807 0.0
C434 C 0.59308 0.1382 0.355 0.0
C435 C 0.53676 0.1558 0.37032 0.0
C436 C 0.56706 0.16774 0.38959 0.0
C437 C 0.65177 0.16312 0.39343 0.0
C438 C 0.30391 0.13756 0.37583 0.0
C439 C 0.27545 0.17905 0.35894 0.0
C440 C 0.38863 0.12947 0.37944 0.0
C441 C 0.44679 0.1627 0.36625 0.0
C442 C 0.41838 0.20391 0.34932 0.0
C443 C 0.33366 0.212 0.3457 0.0
loop_
_geom_bond_atom_site_label_1
_geom_bond_atom_site_label_2
_geom_bond_distance
_geom_bond_site_symmetry_2
_ccdc_geom_bond_type
C0 O27 1.312 . S
C0 O28 1.208 . S
C1 O22 1.331 . S
C1 O25 1.244 . S
C2 O24 1.264 . S
C2 O26 1.273 . S
Mg3 O5 1.936 1_455 S
Mg3 O12 2.081 1_455 S
Mg3 O14 2.023 . S
Mg3 O18 2.031 . S
Mg3 O27 2.291 . S
Mg4 O5 1.963 . S
Mg4 O15 1.942 . S
Mg4 O16 1.955 . S
Mg4 O23 1.986 . S
O5 Mg3 1.936 1_655 S
O5 Mg4 1.963 . S
O5 Mg6 1.915 . S
Mg6 O5 1.915 . S
Mg6 O7 1.915 1_655 S
Mg6 O11 2.013 . S
Mg6 O17 2.114 1_655 S
Mg6 O21 2.013 . S
Mg6 O27 2.114 1_655 S
O7 Mg6 1.915 1_455 S
O7 Mg8 1.936 . S
O7 Mg9 1.963 1_455 S
Mg8 O7 1.936 . S
Mg8 O17 2.291 . S
Mg8 O22 2.081 . S
Mg8 O24 2.023 1_455 S
Mg8 O28 2.031 . S
Mg9 O7 1.963 1_655 S
Mg9 O13 1.986 . S
Mg9 O25 1.942 1_655 S
Mg9 O26 1.955 . S
C10 O21 1.191 . S
C10 O23 1.307 . S
O11 Mg6 2.013 . S
O11 C30 1.191 . S
O12 Mg3 2.081 1_655 S
O12 C20 1.331 . S
O13 Mg9 1.986 . S
O13 C30 1.307 . S
O14 Mg3 2.023 . S
O14 C29 1.264 . S
O15 Mg4 1.942 . S
O15 C20 1.244 . S
O16 Mg4 1.955 . S
O16 C29 1.273 1_655 S
O17 Mg6 2.114 1_455 S
O17 Mg8 2.291 . S
O17 C19 1.312 . S
O18 Mg3 2.031 . S
O18 C19 1.208 . S
C19 O17 1.312 . S
C19 O18 1.208 . S
C20 O12 1.331 . S
C20 O15 1.244 . S
O21 Mg6 2.013 . S
O21 C10 1.191 . S
O22 C1 1.331 . S
O22 Mg8 2.081 . S
O23 Mg4 1.986 . S
O23 C10 1.307 . S
O24 C2 1.264 . S
O24 Mg8 2.023 1_655 S
O25 C1 1.244 . S
O25 Mg9 1.942 1_455 S
O26 C2 1.273 . S
O26 Mg9 1.955 . S
O27 C0 1.312 . S
O27 Mg3 2.291 . S
O27 Mg6 2.114 1_455 S
O28 C0 1.208 . S
O28 Mg8 2.031 . S
C29 O14 1.264 . S
C29 O16 1.273 1_455 S
C30 O11 1.191 . S
C30 O13 1.307 . S
C31 O58 1.312 . S
C31 O59 1.208 . S
C32 O53 1.331 . S
C32 O56 1.244 . S
C33 O55 1.264 . S
C33 O57 1.273 . S
Mg34 O36 1.936 1_455 S
Mg34 O43 2.081 1_455 S
Mg34 O45 2.023 . S
Mg34 O49 2.031 . S
Mg34 O58 2.291 . S
Mg35 O36 1.963 . S
Mg35 O46 1.942 . S
Mg35 O47 1.955 . S
Mg35 O54 1.986 . S
O36 Mg34 1.936 1_655 S
O36 Mg35 1.963 . S
O36 Mg37 1.915 . S
Mg37 O36 1.915 . S
Mg37 O38 1.915 1_655 S
Mg37 O42 2.013 . S
Mg37 O48 2.114 1_655 S
Mg37 O52 2.013 . S
Mg37 O58 2.114 1_655 S
O38 Mg37 1.915 1_455 S
O38 Mg39 1.936 . S
O38 Mg40 1.963 1_455 S
Mg39 O38 1.936 . S
Mg39 O48 2.291 . S
Mg39 O53 2.081 . S
Mg39 O55 2.023 1_455 S
Mg39 O59 2.031 . S
Mg40 O38 1.963 1_655 S
Mg40 O44 1.986 . S
Mg40 O56 1.942 1_655 S
Mg40 O57 1.955 . S
C41 O52 1.191 . S
C41 O54 1.307 . S
O42 Mg37 2.013 . S
O42 C61 1.191 . S
O43 Mg34 2.081 1_655 S
O43 C51 1.331 . S
O44 Mg40 1.986 . S
O44 C61 1.307 . S
O45 Mg34 2.023 . S
O45 C60 1.264 . S
O46 Mg35 1.942 . S
O46 C51 1.244 . S
O47 Mg35 1.955 . S
O47 C60 1.273 1_655 S
O48 Mg37 2.114 1_455 S
O48 Mg39 2.291 . S
O48 C50 1.312 . S
O49 Mg34 2.031 . S
O49 C50 1.208 . S
C50 O48 1.312 . S
C50 O49 1.208 . S
C51 O43 1.331 . S
C51 O46 1.244 . S
O52 Mg37 2.013 . S
O52 C41 1.191 . S
O53 C32 1.331 . S
O53 Mg39 2.081 . S
O54 Mg35 1.986 . S
O54 C41 1.307 . S
O55 C33 1.264 . S
O55 Mg39 2.023 1_655 S
O56 C32 1.244 . S
O56 Mg40 1.942 1_455 S
O57 C33 1.273 . S
O57 Mg40 1.955 . S
O58 C31 1.312 . S
O58 Mg34 2.291 . S
O58 Mg37 2.114 1_455 S
O59 C31 1.208 . S
O59 Mg39 2.031 . S
C60 O45 1.264 . S
C60 O47 1.273 1_455 S
C61 O42 1.191 . S
C61 O44 1.307 . S
C62 O89 1.312 . S
C62 O90 1.208 . S
C63 O84 1.331 . S
C63 O87 1.244 . S
C64 O86 1.264 . S
C64 O88 1.273 . S
Mg65 O67 1.936 . S
Mg65 O74 2.081 . S
Mg65 O76 2.023 . S
Mg65 O80 2.031 . S
Mg65 O89 2.291 . S
Mg66 O67 1.963 . S
Mg66 O77 1.942 . S
Mg66 O78 1.955 . S
Mg66 O85 1.986 . S
O67 Mg65 1.936 . S
O67 Mg66 1.963 . S
O67 Mg68 1.915 . S
Mg68 O67 1.915 . S
Mg68 O69 1.915 . S
Mg68 O73 2.013 . S
Mg68 O79 2.114 . S
Mg68 O83 2.013 . S
Mg68 O89 2.114 . S
O69 Mg68 1.915 . S
O69 Mg70 1.936 . S
O69 Mg71 1.963 . S
Mg70 O69 1.936 . S
Mg70 O79 2.291 . S
Mg70 O84 2.081 . S
Mg70 O86 2.023 . S
Mg70 O90 2.031 . S
Mg71 O69 1.963 . S
Mg71 O75 1.986 . S
Mg71 O87 1.942 . S
Mg71 O88 1.955 . S
C72 O83 1.191 . S
C72 O85 1.307 . S
O73 Mg68 2.013 . S
O73 C92 1.191 . S
O74 Mg65 2.081 . S
O74 C82 1.331 . S
O75 Mg71 1.986 . S
O75 C92 1.307 . S
O76 Mg65 2.023 . S
O76 C91 1.264 . S
O77 Mg66 1.942 . S
O77 C82 1.244 . S
O78 Mg66 1.955 . S
O78 C91 1.273 . S
O79 Mg68 2.114 . S
O79 Mg70 2.291 . S
O79 C81 1.312 . S
O80 Mg65 2.031 . S
O80 C81 1.208 . S
C81 O79 1.312 . S
C81 O80 1.208 . S
C82 O74 1.331 . S
C82 O77 1.244 . S
O83 Mg68 2.013 . S
O83 C72 1.191 . S
O84 C63 1.331 . S
O84 Mg70 2.081 . S
O85 Mg66 1.986 . S
O85 C72 1.307 . S
O86 C64 1.264 . S
O86 Mg70 2.023 . S
O87 C63 1.244 . S
O87 Mg71 1.942 . S
O88 C64 1.273 . S
O88 Mg71 1.955 . S
O89 C62 1.312 . S
O89 Mg65 2.291 . S
O89 Mg68 2.114 . S
O90 C62 1.208 . S
O90 Mg70 2.031 . S
C91 O76 1.264 . S
C91 O78 1.273 . S
C92 O73 1.191 . S
C92 O75 1.307 . S
C93 O120 1.312 . S
C93 O121 1.208 . S
C94 O115 1.331 . S
C94 O118 1.244 . S
C95 O117 1.264 . S
C95 O119 1.273 . S
Mg96 O98 1.936 . S
Mg96 O105 2.081 . S
Mg96 O107 2.023 . S
Mg96 O111 2.031 . S
Mg96 O120 2.291 . S
Mg97 O98 1.963 . S
Mg97 O108 1.942 . S
Mg97 O109 1.955 . S
Mg97 O116 1.986 . S
O98 Mg96 1.936 . S
O98 Mg97 1.963 . S
O98 Mg99 1.915 . S
Mg99 O98 1.915 . S
Mg99 O100 1.915 . S
Mg99 O104 2.013 . S
Mg99 O110 2.114 . S
Mg99 O114 2.013 . S
Mg99 O120 2.114 . S
O100 Mg99 1.915 . S
O100 Mg101 1.936 . S
O100 Mg102 1.963 . S
Mg101 O100 1.936 . S
Mg101 O110 2.291 . S
Mg101 O115 2.081 . S
Mg101 O117 2.023 . S
Mg101 O121 2.031 . S
Mg102 O100 1.963 . S
Mg102 O106 1.986 . S
Mg102 O118 1.942 . S
Mg102 O119 1.955 . S
C103 O114 1.191 . S
C103 O116 1.307 . S
O104 Mg99 2.013 . S
O104 C123 1.191 . S
O105 Mg96 2.081 . S
O105 C113 1.331 . S
O106 Mg102 1.986 . S
O106 C123 1.307 . S
O107 Mg96 2.023 . S
O107 C122 1.264 . S
O108 Mg97 1.942 . S
O108 C113 1.244 . S
O109 Mg97 1.955 . S
O109 C122 1.273 . S
O110 Mg99 2.114 . S
O110 Mg101 2.291 . S
O110 C112 1.312 . S
O111 Mg96 2.031 . S
O111 C112 1.208 . S
C112 O110 1.312 . S
C112 O111 1.208 . S
C113 O105 1.331 . S
C113 O108 1.244 . S
O114 Mg99 2.013 . S
O114 C103 1.191 . S
O115 C94 1.331 . S
O115 Mg101 2.081 . S
O116 Mg97 1.986 . S
O116 C103 1.307 . S
O117 C95 1.264 . S
O117 Mg101 2.023 . S
O118 C94 1.244 . S
O118 Mg102 1.942 . S
O119 C95 1.273 . S
O119 Mg102 1.955 . S
O120 C93 1.312 . S
O120 Mg96 2.291 . S
O120 Mg99 2.114 . S
O121 C93 1.208 . S
O121 Mg101 2.031 . S
C122 O107 1.264 . S
C122 O109 1.273 . S
C123 O104 1.191 . S
C123 O106 1.307 . S
H124 C132 0.950 1_455 S
H125 C137 0.950 . S
H126 C134 0.950 1_455 S
H127 C136 0.950 . S
H128 C138 0.950 . S
H129 C140 0.950 . S
H130 C142 0.950 1_455 S
H131 C143 0.950 1_455 S
C132 H124 0.950 1_655 S
C132 C133 1.386 . S
C132 C134 1.391 . S
C133 C132 1.386 . S
C133 C137 1.393 . S
C134 H126 0.950 1_655 S
C134 C132 1.391 . S
C134 C135 1.400 . S
C135 C134 1.400 . S
C135 C136 1.398 . S
C135 C141 1.491 . S
C136 H127 0.950 . S
C136 C135 1.398 . S
C136 C137 1.391 . S
C137 H125 0.950 . S
C137 C133 1.393 . S
C137 C136 1.391 . S
C138 H128 0.950 . S
C138 C139 1.386 . S
C138 C140 1.391 . S
C139 C138 1.386 . S
C139 C143 1.393 . S
C140 H129 0.950 . S
C140 C138 1.391 . S
C140 C141 1.400 . S
C141 C135 1.491 . S
C141 C140 1.400 . S
C141 C142 1.398 . S
C142 H130 0.950 1_655 S
C142 C141 1.398 . S
C142 C143 1.391 . S
C143 H131 0.950 1_655 S
C143 C139 1.393 . S
C143 C142 1.391 . S
H144 C152 0.950 . S
H145 C157 0.950 . S
H146 C154 0.950 . S
H147 C156 0.950 . S
H148 C158 0.950 . S
H149 C160 0.950 . S
H150 C162 0.950 . S
H151 C163 0.950 . S
C152 H144 0.950 . S
C152 C153 1.386 . S
C152 C154 1.391 . S
C153 C152 1.386 . S
C153 C157 1.393 . S
C154 H146 0.950 . S
C154 C152 1.391 . S
C154 C155 1.400 . S
C155 C154 1.400 . S
C155 C156 1.398 . S
C155 C161 1.491 . S
C156 H147 0.950 . S
C156 C155 1.398 . S
C156 C157 1.391 . S
C157 H145 0.950 . S
C157 C153 1.393 . S
C157 C156 1.391 . S
C158 H148 0.950 . S
C158 C159 1.386 . S
C158 C160 1.391 . S
C159 C158 1.386 . S
C159 C163 1.393 . S
C160 H149 0.950 . S
C160 C158 1.391 . S
C160 C161 1.400 . S
C161 C155 1.491 . S
C161 C160 1.400 . S
C161 C162 1.398 . S
C162 H150 0.950 . S
C162 C161 1.398 . S
C162 C163 1.391 . S
C163 H151 0.950 . S
C163 C159 1.393 . S
C163 C162 1.391 . S
H164 C172 0.950 . S
H165 C177 0.950 . S
H166 C174 0.950 . S
H167 C176 0.950 . S
H168 C178 0.950 . S
H169 C180 0.950 . S
H170 C182 0.950 . S
H171 C183 0.950 . S
C172 H164 0.950 . S
C172 C173 1.386 . S
C172 C174 1.391 . S
C173 C172 1.386 . S
C173 C177 1.393 . S
C174 H166 0.950 . S
C174 C172 1.391 . S
C174 C175 1.400 . S
C175 C174 1.400 . S
C175 C176 1.398 . S
C175 C181 1.491 1_556 S
C176 H167 0.950 . S
C176 C175 1.398 . S
C176 C177 1.391 . S
C177 H165 0.950 . S
C177 C173 1.393 . S
C177 C176 1.391 . S
C178 H168 0.950 . S
C178 C179 1.386 . S
C178 C180 1.391 . S
C179 C178 1.386 . S
C179 C183 1.393 . S
C180 H169 0.950 . S
C180 C178 1.391 . S
C180 C181 1.400 . S
C181 C175 1.491 1_554 S
C181 C180 1.400 . S
C181 C182 1.398 . S
C182 H170 0.950 . S
C182 C181 1.398 . S
C182 C183 1.391 . S
C183 H171 0.950 . S
C183 C179 1.393 . S
C183 C182 1.391 . S
H184 C192 0.950 . S
H185 C197 0.950 . S
H186 C194 0.950 . S
H187 C196 0.950 . S
H188 C198 0.950 . S
H189 C200 0.950 . S
H190 C202 0.950 . S
H191 C203 0.950 . S
C192 H184 0.950 . S
C192 C193 1.386 . S
C192 C194 1.391 . S
C193 C192 1.386 . S
C193 C197 1.393 . S
C194 H186 0.950 . S
C194 C192 1.391 . S
C194 C195 1.400 . S
C195 C194 1.400 . S
C195 C196 1.398 . S
C195 C201 1.491 . S
C196 H187 0.950 . S
C196 C195 1.398 . S
C196 C197 1.391 . S
C197 H185 0.950 . S
C197 C193 1.393 . S
C197 C196 1.391 . S
C198 H188 0.950 . S
C198 C199 1.386 . S
C198 C200 1.391 . S
C199 C198 1.386 . S
C199 C203 1.393 . S
C200 H189 0.950 . S
C200 C198 1.391 . S
C200 C201 1.400 . S
C201 C195 1.491 . S
C201 C200 1.400 . S
C201 C202 1.398 . S
C202 H190 0.950 . S
C202 C201 1.398 . S
C202 C203 1.391 . S
C203 H191 0.950 . S
C203 C199 1.393 . S
C203 C202 1.391 . S
H204 C212 0.950 . S
H205 C217 0.950 . S
H206 C214 0.950 . S
H207 C216 0.950 . S
H208 C218 0.950 . S
H209 C220 0.950 . S
H210 C222 0.950 . S
H211 C223 0.950 . S
C212 H204 0.950 . S
C212 C213 1.386 . S
C212 C214 1.391 . S
C213 C212 1.386 . S
C213 C217 1.393 . S
C214 H206 0.950 . S
C214 C212 1.391 . S
C214 C215 1.400 . S
C215 C214 1.400 . S
C215 C216 1.398 . S
C215 C221 1.491 . S
C216 H207 0.950 . S
C216 C215 1.398 . S
C216 C217 1.391 . S
C217 H205 0.950 . S
C217 C213 1.393 . S
C217 C216 1.391 . S
C218 H208 0.950 . S
C218 C219 1.386 . S
C218 C220 1.391 . S
C219 C218 1.386 . S
C219 C223 1.393 . S
C220 H209 0.950 . S
C220 C218 1.391 . S
C220 C221 1.400 . S
C221 C215 1.491 . S
C221 C220 1.400 . S
C221 C222 1.398 . S
C222 H210 0.950 . S
C222 C221 1.398 . S
C222 C223 1.391 . S
C223 H211 0.950 . S
C223 C219 1.393 . S
C223 C222 1.391 . S
H224 C232 0.950 . S
H225 C237 0.950 . S
H226 C234 0.950 . S
H227 C236 0.950 . S
H228 C238 0.950 . S
H229 C240 0.950 . S
H230 C242 0.950 . S
H231 C243 0.950 . S
C232 H224 0.950 . S
C232 C233 1.386 . S
C232 C234 1.391 . S
C233 C232 1.386 . S
C233 C237 1.393 . S
C234 H226 0.950 . S
C234 C232 1.391 . S
C234 C235 1.400 . S
C235 C234 1.400 . S
C235 C236 1.398 . S
C235 C241 1.491 . S
C236 H227 0.950 . S
C236 C235 1.398 . S
C236 C237 1.391 . S
C237 H225 0.950 . S
C237 C233 1.393 . S
C237 C236 1.391 . S
C238 H228 0.950 . S
C238 C239 1.386 . S
C238 C240 1.391 . S
C239 C238 1.386 . S
C239 C243 1.393 . S
C240 H229 0.950 . S
C240 C238 1.391 . S
C240 C241 1.400 . S
C241 C235 1.491 . S
C241 C240 1.400 . S
C241 C242 1.398 . S
C242 H230 0.950 . S
C242 C241 1.398 . S
C242 C243 1.391 . S
C243 H231 0.950 . S
C243 C239 1.393 . S
C243 C242 1.391 . S
H244 C252 0.950 . S
H245 C257 0.950 . S
H246 C254 0.950 . S
H247 C256 0.950 1_545 S
H248 C258 0.950 . S
H249 C260 0.950 . S
H250 C262 0.950 1_565 S
H251 C263 0.950 . S
C252 H244 0.950 . S
C252 C253 1.386 . S
C252 C254 1.391 . S
C253 C252 1.386 . S
C253 C257 1.393 . S
C254 H246 0.950 . S
C254 C252 1.391 . S
C254 C255 1.400 . S
C255 C254 1.400 . S
C255 C256 1.398 . S
C255 C261 1.491 1_566 S
C256 H247 0.950 1_565 S
C256 C255 1.398 . S
C256 C257 1.391 . S
C257 H245 0.950 . S
C257 C253 1.393 . S
C257 C256 1.391 . S
C258 H248 0.950 . S
C258 C259 1.386 . S
C258 C260 1.391 . S
C259 C258 1.386 . S
C259 C263 1.393 . S
C260 H249 0.950 . S
C260 C258 1.391 . S
C260 C261 1.400 . S
C261 C255 1.491 1_544 S
C261 C260 1.400 . S
C261 C262 1.398 . S
C262 H250 0.950 1_545 S
C262 C261 1.398 . S
C262 C263 1.391 . S
C263 H251 0.950 . S
C263 C259 1.393 . S
C263 C262 1.391 . S
H264 C272 0.950 1_565 S
H265 C277 0.950 . S
H266 C274 0.950 . S
H267 C276 0.950 . S
H268 C278 0.950 1_545 S
H269 C280 0.950 . S
H270 C282 0.950 . S
H271 C283 0.950 . S
C272 H264 0.950 1_545 S
C272 C273 1.386 . S
C272 C274 1.391 1_545 S
C273 C272 1.386 . S
C273 C277 1.393 . S
C274 H266 0.950 . S
C274 C272 1.391 1_565 S
C274 C275 1.400 1_565 S
C275 C274 1.400 1_545 S
C275 C276 1.398 . S
C275 C281 1.491 1_545 S
C276 H267 0.950 . S
C276 C275 1.398 . S
C276 C277 1.391 . S
C277 H265 0.950 . S
C277 C273 1.393 . S
C277 C276 1.391 . S
C278 H268 0.950 1_565 S
C278 C279 1.386 . S
C278 C280 1.391 1_565 S
C279 C278 1.386 . S
C279 C283 1.393 . S
C280 H269 0.950 . S
C280 C278 1.391 1_545 S
C280 C281 1.400 1_545 S
C281 C275 1.491 1_565 S
C281 C280 1.400 1_565 S
C281 C282 1.398 . S
C282 H270 0.950 . S
C282 C281 1.398 . S
C282 C283 1.391 . S
C283 H271 0.950 . S
C283 C279 1.393 . S
C283 C282 1.391 . S
H284 C292 0.950 . S
H285 C297 0.950 . S
H286 C294 0.950 . S
H287 C296 0.950 . S
H288 C298 0.950 . S
H289 C300 0.950 . S
H290 C302 0.950 . S
H291 C303 0.950 . S
C292 H284 0.950 . S
C292 C293 1.388 . S
C292 C294 1.391 . S
C293 C292 1.388 . S
C293 C297 1.390 1_455 S
C294 H286 0.950 . S
C294 C292 1.391 . S
C294 C295 1.400 . S
C295 C294 1.400 . S
C295 C296 1.398 1_455 S
C295 C301 1.491 1_455 S
C296 H287 0.950 . S
C296 C295 1.398 1_655 S
C296 C297 1.391 . S
C297 H285 0.950 . S
C297 C293 1.390 1_655 S
C297 C296 1.391 . S
C298 H288 0.950 . S
C298 C299 1.394 . S
C298 C300 1.391 . S
C299 C298 1.394 . S
C299 C303 1.385 1_655 S
C300 H289 0.950 . S
C300 C298 1.391 . S
C300 C301 1.406 . S
C301 C295 1.491 1_655 S
C301 C300 1.406 . S
C301 C302 1.393 1_655 S
C302 H290 0.950 . S
C302 C301 1.393 1_455 S
C302 C303 1.391 . S
C303 H291 0.950 . S
C303 C299 1.385 1_455 S
C303 C302 1.391 . S
H304 C312 0.950 . S
H305 C317 0.950 . S
H306 C314 0.950 . S
H307 C316 0.950 . S
H308 C318 0.950 . S
H309 C320 0.950 . S
H310 C322 0.950 . S
H311 C323 0.950 . S
C312 H304 0.950 . S
C312 C313 1.386 . S
C312 C314 1.391 . S
C313 C312 1.386 . S
C313 C317 1.393 . S
C314 H306 0.950 . S
C314 C312 1.391 . S
C314 C315 1.400 . S
C315 C314 1.400 . S
C315 C316 1.398 . S
C315 C321 1.491 . S
C316 H307 0.950 . S
C316 C315 1.398 . S
C316 C317 1.391 . S
C317 H305 0.950 . S
C317 C313 1.393 . S
C317 C316 1.391 . S
C318 H308 0.950 . S
C318 C319 1.386 . S
C318 C320 1.391 . S
C319 C318 1.386 . S
C319 C323 1.393 . S
C320 H309 0.950 . S
C320 C318 1.391 . S
C320 C321 1.400 . S
C321 C315 1.491 . S
C321 C320 1.400 . S
C321 C322 1.398 . S
C322 H310 0.950 . S
C322 C321 1.398 . S
C322 C323 1.391 . S
C323 H311 0.950 . S
C323 C319 1.393 . S
C323 C322 1.391 . S
H324 C332 0.950 . S
H325 C337 0.950 . S
H326 C334 0.950 . S
H327 C336 0.950 . S
H328 C338 0.950 . S
H329 C340 0.950 . S
H330 C342 0.950 . S
H331 C343 0.950 . S
C332 H324 0.950 . S
C332 C333 1.386 . S
C332 C334 1.391 . S
C333 C332 1.386 . S
C333 C337 1.393 . S
C334 H326 0.950 . S
C334 C332 1.391 . S
C334 C335 1.400 . S
C335 C334 1.400 . S
C335 C336 1.398 . S
C335 C341 1.491 . S
C336 H327 0.950 . S
C336 C335 1.398 . S
C336 C337 1.391 . S
C337 H325 0.950 . S
C337 C333 1.393 . S
C337 C336 1.391 . S
C338 H328 0.950 . S
C338 C339 1.386 . S
C338 C340 1.391 . S
C339 C338 1.386 . S
C339 C343 1.393 . S
C340 H329 0.950 . S
C340 C338 1.391 . S
C340 C341 1.400 . S
C341 C335 1.491 . S
C341 C340 1.400 . S
C341 C342 1.398 . S
C342 H330 0.950 . S
C342 C341 1.398 . S
C342 C343 1.391 . S
C343 H331 0.950 . S
C343 C339 1.393 . S
C343 C342 1.391 . S
H344 C352 0.950 . S
H345 C357 0.950 . S
H346 C354 0.950 . S
H347 C356 0.950 . S
H348 C358 0.950 . S
H349 C360 0.950 . S
H350 C362 0.950 . S
H351 C363 0.950 . S
C352 H344 0.950 . S
C352 C353 1.386 . S
C352 C354 1.391 . S
C353 C352 1.386 . S
C353 C357 1.393 . S
C354 H346 0.950 . S
C354 C352 1.391 . S
C354 C355 1.400 . S
C355 C354 1.400 . S
C355 C356 1.398 . S
C355 C361 1.491 1_455 S
C356 H347 0.950 . S
C356 C355 1.398 . S
C356 C357 1.391 . S
C357 H345 0.950 . S
C357 C353 1.393 . S
C357 C356 1.391 . S
C358 H348 0.950 . S
C358 C359 1.386 . S
C358 C360 1.391 . S
C359 C358 1.386 . S
C359 C363 1.393 . S
C360 H349 0.950 . S
C360 C358 1.391 . S
C360 C361 1.400 . S
C361 C355 1.491 1_655 S
C361 C360 1.400 . S
C361 C362 1.398 . S
C362 H350 0.950 . S
C362 C361 1.398 . S
C362 C363 1.391 . S
C363 H351 0.950 . S
C363 C359 1.393 . S
C363 C362 1.391 . S
H364 C372 0.950 . S
H365 C377 0.950 . S
H366 C374 0.950 . S
H367 C376 0.950 . S
H368 C378 0.950 . S
H369 C380 0.950 . S
H370 C382 0.950 . S
H371 C383 0.950 . S
C372 H364 0.950 . S
C372 C373 1.386 . S
C372 C374 1.391 . S
C373 C372 1.386 . S
C373 C377 1.393 1_655 S
C374 H366 0.950 . S
C374 C372 1.391 . S
C374 C375 1.400 . S
C375 C374 1.400 . S
C375 C376 1.398 1_655 S
C375 C381 1.490 1_655 S
C376 H367 0.950 . S
C376 C375 1.398 1_455 S
C376 C377 1.391 . S
C377 H365 0.950 . S
C377 C373 1.393 1_455 S
C377 C376 1.391 . S
C378 H368 0.950 . S
C378 C379 1.386 . S
C378 C380 1.391 . S
C379 C378 1.386 . S
C379 C383 1.393 1_455 S
C380 H369 0.950 . S
C380 C378 1.391 . S
C380 C381 1.406 . S
C381 C375 1.490 1_455 S
C381 C380 1.406 . S
C381 C382 1.393 1_455 S
C382 H370 0.950 . S
C382 C381 1.393 1_655 S
C382 C383 1.391 . S
C383 H371 0.950 . S
C383 C379 1.393 1_655 S
C383 C382 1.391 . S
H384 C392 0.950 . S
H385 C397 0.950 . S
H386 C394 0.950 . S
H387 C396 0.950 . S
H388 C398 0.950 . S
H389 C400 0.950 . S
H390 C402 0.950 . S
H391 C403 0.950 . S
C392 H384 0.950 . S
C392 C393 1.386 . S
C392 C394 1.391 . S
C393 C392 1.386 . S
C393 C397 1.393 . S
C394 H386 0.950 . S
C394 C392 1.391 . S
C394 C395 1.400 . S
C395 C394 1.400 . S
C395 C396 1.398 . S
C395 C401 1.491 1_655 S
C396 H387 0.950 . S
C396 C395 1.398 . S
C396 C397 1.391 . S
C397 H385 0.950 . S
C397 C393 1.393 . S
C397 C396 1.391 . S
C398 H388 0.950 . S
C398 C399 1.386 . S
C398 C400 1.391 . S
C399 C398 1.386 . S
C399 C403 1.393 . S
C400 H389 0.950 . S
C400 C398 1.391 . S
C400 C401 1.400 . S
C401 C395 1.491 1_455 S
C401 C400 1.400 . S
C401 C402 1.398 . S
C402 H390 0.950 . S
C402 C401 1.398 . S
C402 C403 1.391 . S
C403 H391 0.950 . S
C403 C399 1.393 . S
C403 C402 1.391 . S
H404 C412 0.950 . S
H405 C417 0.950 . S
H406 C414 0.950 . S
H407 C416 0.950 . S
H408 C418 0.950 . S
H409 C420 0.950 . S
H410 C422 0.950 . S
H411 C423 0.950 . S
C412 H404 0.950 . S
C412 C413 1.386 . S
C412 C414 1.391 . S
C413 C412 1.386 . S
C413 C417 1.393 . S
C414 H406 0.950 . S
C414 C412 1.391 . S
C414 C415 1.400 . S
C415 C414 1.400 . S
C415 C416 1.398 . S
C415 C421 1.491 . S
C416 H407 0.950 . S
C416 C415 1.398 . S
C416 C417 1.391 . S
C417 H405 0.950 . S
C417 C413 1.393 . S
C417 C416 1.391 . S
C418 H408 0.950 . S
C418 C419 1.386 . S
C418 C420 1.391 . S
C419 C418 1.386 . S
C419 C423 1.393 . S
C420 H409 0.950 . S
C420 C418 1.391 . S
C420 C421 1.400 . S
C421 C415 1.491 . S
C421 C420 1.400 . S
C421 C422 1.398 . S
C422 H410 0.950 . S
C422 C421 1.398 . S
C422 C423 1.391 . S
C423 H411 0.950 . S
C423 C419 1.393 . S
C423 C422 1.391 . S
H424 C432 0.950 . S
H425 C437 0.950 . S
H426 C434 0.950 . S
H427 C436 0.950 . S
H428 C438 0.950 . S
H429 C440 0.950 . S
H430 C442 0.950 . S
H431 C443 0.950 . S
C432 H424 0.950 . S
C432 C433 1.386 . S
C432 C434 1.391 . S
C433 C432 1.386 . S
C433 C437 1.393 . S
C434 H426 0.950 . S
C434 C432 1.391 . S
C434 C435 1.400 . S
C435 C434 1.400 . S
C435 C436 1.398 . S
C435 C441 1.491 . S
C436 H427 0.950 . S
C436 C435 1.398 . S
C436 C437 1.391 . S
C437 H425 0.950 . S
C437 C433 1.393 . S
C437 C436 1.391 . S
C438 H428 0.950 . S
C438 C439 1.386 . S
C438 C440 1.391 . S
C439 C438 1.386 . S
C439 C443 1.393 . S
C440 H429 0.950 . S
C440 C438 1.391 . S
C440 C441 1.400 . S
C441 C435 1.491 . S
C441 C440 1.400 . S
C441 C442 1.398 . S
C442 H430 0.950 . S
C442 C441 1.398 . S
C442 C443 1.391 . S
C443 H431 0.950 . S
C443 C439 1.393 . S
C443 C442 1.391 . S
C133 C20 1.263 . S
C139 C51 1.271 . S
C153 C82 1.375 . S
C159 C33 1.348 . S
C173 C64 1.457 . S
C179 C122 1.470 . S
C193 C2 1.376 . S
C199 C94 1.349 . S
C213 C95 1.373 . S
C219 C1 1.345 . S
C233 C32 1.363 . S
C239 C91 1.346 . S
C253 C63 1.259 . S
C259 C113 1.273 . S
C273 C29 1.481 . S
C279 C60 1.455 . S
C293 C30 1.510 1_465 S
C299 C19 1.491 1_655 S
C313 C31 1.493 . S
C319 C41 1.507 . S
C333 C72 1.510 . S
C339 C62 1.495 1_545 S
C353 C103 1.495 . S
C359 C93 1.473 . S
C373 C61 1.491 1_545 S
C379 C50 1.471 . S
C393 C81 1.473 . S
C399 C92 1.494 . S
C413 C123 1.492 . S
C419 C112 1.471 1_565 S
C433 C10 1.511 . S
C439 C0 1.493 . S
