# Generated by pormake.
# Topology yfc, (5)-cn, num edge types: 1
# Building blocks:
#     Node 0, Type 0, BuildingBlock: BEQFEK_clean_sbu_0, # of connection points: 5
#     Node 1, Type 0, BuildingBlock: BEQFEK_clean_sbu_0, # of connection points: 5
#     Node 2, Type 0, BuildingBlock: BEQFEK_clean_sbu_0, # of connection points: 5
#     Node 3, Type 0, BuildingBlock: BEQFEK_clean_sbu_0, # of connection points: 5
#     Node 4, Type 0, BuildingBlock: BEQFEK_clean_sbu_0, # of connection points: 5
#     Node 5, Type 0, BuildingBlock: BEQFEK_clean_sbu_0, # of connection points: 5
#     Node 6, Type 0, BuildingBlock: BEQFEK_clean_sbu_0, # of connection points: 5
#     Node 7, Type 0, BuildingBlock: BEQFEK_clean_sbu_0, # of connection points: 5
#     Node 8, Type 0, BuildingBlock: BEQFEK_clean_sbu_0, # of connection points: 5
#     Node 9, Type 0, BuildingBlock: BEQFEK_clean_sbu_0, # of connection points: 5
#     Node 10, Type 0, BuildingBlock: BEQFEK_clean_sbu_0, # of connection points: 5
#     Node 11, Type 0, BuildingBlock: BEQFEK_clean_sbu_0, # of connection points: 5
#     Node 12, Type 0, BuildingBlock: BEQFEK_clean_sbu_0, # of connection points: 5
#     Node 13, Type 0, BuildingBlock: BEQFEK_clean_sbu_0, # of connection points: 5
#     Node 14, Type 0, BuildingBlock: BEQFEK_clean_sbu_0, # of connection points: 5
#     Node 15, Type 0, BuildingBlock: BEQFEK_clean_sbu_0, # of connection points: 5
#     Edge 16, Type (0, 0), BuildingBlock: XIVTED_clean_linker_0, # of connection points: 2
#     Edge 17, Type (0, 0), BuildingBlock: XIVTED_clean_linker_0, # of connection points: 2
#     Edge 18, Type (0, 0), BuildingBlock: XIVTED_clean_linker_0, # of connection points: 2
#     Edge 19, Type (0, 0), BuildingBlock: XIVTED_clean_linker_0, # of connection points: 2
#     Edge 20, Type (0, 0), BuildingBlock: XIVTED_clean_linker_0, # of connection points: 2
#     Edge 21, Type (0, 0), BuildingBlock: XIVTED_clean_linker_0, # of connection points: 2
#     Edge 22, Type (0, 0), BuildingBlock: XIVTED_clean_linker_0, # of connection points: 2
#     Edge 23, Type (0, 0), BuildingBlock: XIVTED_clean_linker_0, # of connection points: 2
#     Edge 24, Type (0, 0), BuildingBlock: XIVTED_clean_linker_0, # of connection points: 2
#     Edge 25, Type (0, 0), BuildingBlock: XIVTED_clean_linker_0, # of connection points: 2
#     Edge 26, Type (0, 0), BuildingBlock: XIVTED_clean_linker_0, # of connection points: 2
#     Edge 27, Type (0, 0), BuildingBlock: XIVTED_clean_linker_0, # of connection points: 2
#     Edge 28, Type (0, 0), BuildingBlock: XIVTED_clean_linker_0, # of connection points: 2
#     Edge 29, Type (0, 0), BuildingBlock: XIVTED_clean_linker_0, # of connection points: 2
#     Edge 30, Type (0, 0), BuildingBlock: XIVTED_clean_linker_0, # of connection points: 2
#     Edge 31, Type (0, 0), BuildingBlock: XIVTED_clean_linker_0, # of connection points: 2
#     Edge 32, Type (0, 0), BuildingBlock: XIVTED_clean_linker_0, # of connection points: 2
#     Edge 33, Type (0, 0), BuildingBlock: XIVTED_clean_linker_0, # of connection points: 2
#     Edge 34, Type (0, 0), BuildingBlock: XIVTED_clean_linker_0, # of connection points: 2
#     Edge 35, Type (0, 0), BuildingBlock: XIVTED_clean_linker_0, # of connection points: 2
#     Edge 36, Type (0, 0), BuildingBlock: XIVTED_clean_linker_0, # of connection points: 2
#     Edge 37, Type (0, 0), BuildingBlock: XIVTED_clean_linker_0, # of connection points: 2
#     Edge 38, Type (0, 0), BuildingBlock: XIVTED_clean_linker_0, # of connection points: 2
#     Edge 39, Type (0, 0), BuildingBlock: XIVTED_clean_linker_0, # of connection points: 2
#     Edge 40, Type (0, 0), BuildingBlock: XIVTED_clean_linker_0, # of connection points: 2
#     Edge 41, Type (0, 0), BuildingBlock: XIVTED_clean_linker_0, # of connection points: 2
#     Edge 42, Type (0, 0), BuildingBlock: XIVTED_clean_linker_0, # of connection points: 2
#     Edge 43, Type (0, 0), BuildingBlock: XIVTED_clean_linker_0, # of connection points: 2
#     Edge 44, Type (0, 0), BuildingBlock: XIVTED_clean_linker_0, # of connection points: 2
#     Edge 45, Type (0, 0), BuildingBlock: XIVTED_clean_linker_0, # of connection points: 2
#     Edge 46, Type (0, 0), BuildingBlock: XIVTED_clean_linker_0, # of connection points: 2
#     Edge 47, Type (0, 0), BuildingBlock: XIVTED_clean_linker_0, # of connection points: 2
#     Edge 48, Type (0, 0), BuildingBlock: XIVTED_clean_linker_0, # of connection points: 2
#     Edge 49, Type (0, 0), BuildingBlock: XIVTED_clean_linker_0, # of connection points: 2
#     Edge 50, Type (0, 0), BuildingBlock: XIVTED_clean_linker_0, # of connection points: 2
#     Edge 51, Type (0, 0), BuildingBlock: XIVTED_clean_linker_0, # of connection points: 2
#     Edge 52, Type (0, 0), BuildingBlock: XIVTED_clean_linker_0, # of connection points: 2
#     Edge 53, Type (0, 0), BuildingBlock: XIVTED_clean_linker_0, # of connection points: 2
#     Edge 54, Type (0, 0), BuildingBlock: XIVTED_clean_linker_0, # of connection points: 2
#     Edge 55, Type (0, 0), BuildingBlock: XIVTED_clean_linker_0, # of connection points: 2
# Relax obj value: 0.463
# Max RMSD: 0.180
# Mean RMSD: 0.180
data_MOF--net-yfc--node1-BEQFEK_clean_sbu_0--edge1-XIVTED_clean_linker_0
_symmetry_space_group_name_H-M    P1
_symmetry_Int_Tables_number       1
_symmetry_cell_setting            triclinic
loop_
_symmetry_equiv_pos_as_xyz
'x, y, z'
_cell_length_a     46.698437
_cell_length_b     46.606816
_cell_length_c     47.738196
_cell_angle_alpha  89.817434
_cell_angle_beta   90.077782
_cell_angle_gamma 90.060985
loop_
_atom_site_label
_atom_site_type_symbol
_atom_site_fract_x
_atom_site_fract_y
_atom_site_fract_z
_atom_type_partial_charge
Co0 Co 0.71783 0.09612 0.14877 0.0
Co1 Co 0.70284 0.03857 0.1801 0.0
C2 C 0.66689 0.09197 0.18636 0.0
O3 O 0.68263 0.1058 0.1693 0.0
O4 O 0.67225 0.06592 0.19269 0.0
C5 C 0.71005 0.14739 0.11607 0.0
O6 O 0.68268 0.1419 0.11955 0.0
C7 C 0.66698 0.99026 0.19905 0.0
C8 C 0.69926 0.95736 0.2096 0.0
C9 C 0.67003 0.96253 0.20947 0.0
N10 N 0.69316 0.00098 0.19359 0.0
N11 N 0.71235 0.98118 0.19995 0.0
C12 C 0.63973 0.00585 0.19273 0.0
H13 H 0.64277 0.02032 0.17446 0.0
H14 H 0.62206 0.99056 0.18831 0.0
H15 H 0.63378 0.01913 0.21107 0.0
C16 C 0.71848 0.05809 0.10017 0.0
N17 N 0.71308 0.06279 0.12739 0.0
N18 N 0.70736 0.03826 0.13997 0.0
C19 C 0.70906 0.01702 0.12079 0.0
C20 C 0.71619 0.02898 0.09498 0.0
C21 C 0.72793 0.08092 0.08008 0.0
H22 H 0.74834 0.09044 0.08755 0.0
H23 H 0.71164 0.0982 0.07947 0.0
H24 H 0.73091 0.07241 0.0586 0.0
O25 O 0.7497 0.09053 0.17535 0.0
O26 O 0.73954 0.05041 0.19861 0.0
H27 H 0.72448 0.9795 0.1416 0.0
H28 H 0.70738 0.9725 0.10828 0.0
C29 C 0.70662 0.98578 0.12753 0.0
H30 H 0.68623 0.98172 0.13876 0.0
H31 H 0.73441 0.98397 0.19778 0.0
O32 O 0.72846 0.12985 0.12564 0.0
C33 C 0.75581 0.0719 0.19396 0.0
Co34 Co 0.39572 0.72094 0.6506 0.0
Co35 Co 0.45314 0.70468 0.6817 0.0
C36 C 0.39925 0.66911 0.68731 0.0
O37 O 0.3855 0.68535 0.67062 0.0
O38 O 0.42534 0.67414 0.6935 0.0
C39 C 0.3445 0.71445 0.61778 0.0
O40 O 0.34963 0.68689 0.62075 0.0
C41 C 0.50073 0.66917 0.70428 0.0
C42 C 0.53555 0.70113 0.70738 0.0
C43 C 0.52931 0.67244 0.71207 0.0
N44 N 0.49084 0.69467 0.69501 0.0
N45 N 0.51178 0.71365 0.69707 0.0
C46 C 0.48203 0.64339 0.70843 0.0
H47 H 0.47334 0.63641 0.6879 0.0
H48 H 0.49337 0.62539 0.71874 0.0
H49 H 0.46372 0.64935 0.72195 0.0
C50 C 0.43351 0.72154 0.60186 0.0
N51 N 0.42896 0.71629 0.62916 0.0
N52 N 0.45338 0.70975 0.64149 0.0
C53 C 0.47434 0.71048 0.62192 0.0
C54 C 0.46234 0.71809 0.59629 0.0
C55 C 0.41077 0.73134 0.58189 0.0
H56 H 0.40118 0.75157 0.58968 0.0
H57 H 0.39359 0.71493 0.58098 0.0
H58 H 0.41932 0.73484 0.56047 0.0
O59 O 0.40168 0.75221 0.67752 0.0
O60 O 0.44153 0.74128 0.70075 0.0
H61 H 0.51395 0.72468 0.63929 0.0
H62 H 0.51774 0.70322 0.60814 0.0
C63 C 0.50542 0.70586 0.62783 0.0
H64 H 0.5082 0.68656 0.64121 0.0
H65 H 0.50977 0.73525 0.69162 0.0
O66 O 0.36224 0.73247 0.62768 0.0
C67 C 0.42026 0.75784 0.69622 0.0
Co68 Co 0.7712 0.39682 0.14716 0.0
Co69 Co 0.7871 0.45408 0.17867 0.0
C70 C 0.82192 0.39974 0.185 0.0
O71 O 0.8061 0.38619 0.16785 0.0
O72 O 0.8169 0.42584 0.19119 0.0
C73 C 0.7782 0.34577 0.11441 0.0
O74 O 0.80564 0.35111 0.11766 0.0
C75 C 0.82321 0.50112 0.2012 0.0
C76 C 0.79165 0.53607 0.20569 0.0
C77 C 0.82032 0.52954 0.2097 0.0
N78 N 0.79752 0.49159 0.19224 0.0
N79 N 0.77879 0.51262 0.19508 0.0
C80 C 0.84887 0.48213 0.20438 0.0
H81 H 0.8434 0.4641 0.2186 0.0
H82 H 0.85459 0.47295 0.18371 0.0
H83 H 0.86754 0.4934 0.21347 0.0
C84 C 0.77214 0.43496 0.09846 0.0
N85 N 0.77675 0.43019 0.12585 0.0
N86 N 0.7829 0.45459 0.1384 0.0
C87 C 0.78236 0.47578 0.11894 0.0
C88 C 0.77552 0.46393 0.09309 0.0
C89 C 0.76248 0.41238 0.07831 0.0
H90 H 0.77878 0.39513 0.07748 0.0
H91 H 0.75925 0.42116 0.0569 0.0
H92 H 0.74216 0.40275 0.08587 0.0
O93 O 0.73942 0.40292 0.1735 0.0
O94 O 0.75001 0.44273 0.19691 0.0
H95 H 0.76744 0.51473 0.13709 0.0
H96 H 0.78834 0.51972 0.10564 0.0
C97 C 0.78626 0.50693 0.1252 0.0
H98 H 0.80561 0.50998 0.13835 0.0
H99 H 0.75711 0.51086 0.19002 0.0
O100 O 0.75999 0.3634 0.12405 0.0
C101 C 0.73346 0.42151 0.19206 0.0
Co102 Co 0.09557 0.77604 0.64914 0.0
Co103 Co 0.0379 0.79021 0.68008 0.0
C104 C 0.09097 0.82664 0.68709 0.0
O105 O 0.10498 0.81113 0.67008 0.0
O106 O 0.06494 0.82103 0.69307 0.0
C107 C 0.14708 0.78417 0.61708 0.0
O108 O 0.14181 0.81158 0.62081 0.0
C109 C 0.98915 0.82525 0.69914 0.0
C110 C 0.95651 0.79225 0.7084 0.0
C111 C 0.96136 0.82159 0.70899 0.0
N112 N 0.0002 0.79929 0.69329 0.0
N113 N 0.98056 0.77967 0.69891 0.0
C114 C 0.0045 0.85289 0.69372 0.0
H115 H 0.01754 0.85847 0.71238 0.0
H116 H 0.01913 0.85053 0.67557 0.0
H117 H 0.98912 0.87054 0.68955 0.0
C118 C 0.05794 0.77603 0.60009 0.0
N119 N 0.06242 0.78088 0.62746 0.0
N120 N 0.03782 0.78602 0.63992 0.0
C121 C 0.01673 0.7843 0.62053 0.0
C122 C 0.02889 0.77806 0.59467 0.0
C123 C 0.08082 0.76673 0.58016 0.0
H124 H 0.09783 0.78333 0.57941 0.0
H125 H 0.07231 0.76334 0.5587 0.0
H126 H 0.09062 0.74652 0.58789 0.0
O127 O 0.09004 0.74378 0.67541 0.0
O128 O 0.04991 0.75345 0.6985 0.0
H129 H 0.97936 0.76787 0.64066 0.0
H130 H 0.97237 0.78561 0.60759 0.0
C131 C 0.98549 0.78616 0.62699 0.0
H132 H 0.98111 0.80628 0.63855 0.0
H133 H 0.9836 0.75766 0.6963 0.0
O134 O 0.12935 0.76571 0.62625 0.0
C135 C 0.07146 0.73736 0.69388 0.0
Co136 Co 0.71865 0.39589 0.84775 0.0
Co137 Co 0.70406 0.4531 0.81573 0.0
C138 C 0.66797 0.39969 0.80967 0.0
O139 O 0.68356 0.386 0.82699 0.0
O140 O 0.67346 0.42568 0.80315 0.0
C141 C 0.71051 0.34504 0.881 0.0
O142 O 0.68317 0.35056 0.87734 0.0
C143 C 0.66838 0.50135 0.79646 0.0
C144 C 0.70075 0.53418 0.78584 0.0
C145 C 0.67151 0.52906 0.78602 0.0
N146 N 0.69454 0.49058 0.8019 0.0
N147 N 0.71379 0.51033 0.79548 0.0
C148 C 0.6411 0.48587 0.80293 0.0
H149 H 0.64419 0.47141 0.82121 0.0
H150 H 0.62355 0.50122 0.8074 0.0
H151 H 0.63493 0.47258 0.78464 0.0
C152 C 0.71815 0.4343 0.89615 0.0
N153 N 0.71371 0.42939 0.86878 0.0
N154 N 0.70814 0.45378 0.85588 0.0
C155 C 0.70904 0.47515 0.87498 0.0
C156 C 0.71533 0.46339 0.90108 0.0
C157 C 0.72714 0.41171 0.91671 0.0
H158 H 0.74728 0.40159 0.90943 0.0
H159 H 0.71043 0.39481 0.91766 0.0
H160 H 0.73041 0.42063 0.938 0.0
O161 O 0.75073 0.40114 0.82141 0.0
O162 O 0.74086 0.44104 0.79767 0.0
H163 H 0.72374 0.5129 0.85405 0.0
H164 H 0.70645 0.51968 0.88728 0.0
C165 C 0.706 0.50629 0.86809 0.0
H166 H 0.68555 0.50984 0.85676 0.0
H167 H 0.73585 0.50752 0.79767 0.0
O168 O 0.72902 0.36244 0.87132 0.0
C169 C 0.75702 0.41956 0.80266 0.0
Co170 Co 0.09538 0.71785 0.34944 0.0
Co171 Co 0.038 0.70269 0.3182 0.0
C172 C 0.09151 0.66692 0.3118 0.0
O173 O 0.10527 0.68276 0.32878 0.0
O174 O 0.06545 0.67213 0.30556 0.0
C175 C 0.1471 0.711 0.38173 0.0
O176 O 0.14271 0.68345 0.37785 0.0
C177 C 0.98959 0.66717 0.29859 0.0
C178 C 0.95654 0.69988 0.28995 0.0
C179 C 0.9617 0.67062 0.28889 0.0
N180 N 0.0004 0.69318 0.30482 0.0
N181 N 0.9805 0.71262 0.29956 0.0
C182 C 0.00526 0.63964 0.30355 0.0
H183 H 0.01984 0.64185 0.3218 0.0
H184 H 0.99009 0.6217 0.30734 0.0
H185 H 0.01838 0.63461 0.28484 0.0
C186 C 0.05777 0.71656 0.39841 0.0
N187 N 0.06225 0.71247 0.37093 0.0
N188 N 0.03774 0.70694 0.35837 0.0
C189 C 0.01669 0.7077 0.3778 0.0
C190 C 0.02881 0.71363 0.40378 0.0
C191 C 0.08055 0.72579 0.41856 0.0
H192 H 0.09045 0.74602 0.41097 0.0
H193 H 0.09752 0.70918 0.41938 0.0
H194 H 0.07195 0.72915 0.43995 0.0
O195 O 0.08954 0.74991 0.32301 0.0
O196 O 0.04964 0.73956 0.2997 0.0
H197 H 0.97854 0.7227 0.35798 0.0
H198 H 0.9725 0.70423 0.39085 0.0
C199 C 0.98552 0.70453 0.3714 0.0
H200 H 0.98192 0.68439 0.35959 0.0
H201 H 0.9833 0.73462 0.30253 0.0
O202 O 0.12885 0.72891 0.37252 0.0
C203 C 0.07096 0.75599 0.3044 0.0
Co204 Co 0.77109 0.09597 0.84812 0.0
Co205 Co 0.78674 0.03836 0.81731 0.0
C206 C 0.82168 0.09267 0.81036 0.0
O207 O 0.80592 0.10644 0.82731 0.0
O208 O 0.81659 0.06649 0.80448 0.0
C209 C 0.77827 0.14699 0.88105 0.0
O210 O 0.8057 0.14146 0.87831 0.0
C211 C 0.8226 0.9912 0.79487 0.0
C212 C 0.79127 0.95579 0.79199 0.0
C213 C 0.81975 0.96254 0.78715 0.0
N214 N 0.79707 0.00067 0.8042 0.0
N215 N 0.77847 0.97937 0.80231 0.0
C216 C 0.84801 0.01036 0.79064 0.0
H217 H 0.85447 0.01977 0.81102 0.0
H218 H 0.86638 -0.00087 0.78103 0.0
H219 H 0.8419 0.02819 0.77644 0.0
C220 C 0.77336 0.05872 0.8975 0.0
N221 N 0.77687 0.06293 0.86988 0.0
N222 N 0.7828 0.03836 0.85762 0.0
C223 C 0.7831 0.01756 0.87748 0.0
C224 C 0.7773 0.02989 0.90337 0.0
C225 C 0.76351 0.08154 0.91729 0.0
H226 H 0.74444 0.09247 0.90843 0.0
H227 H 0.78074 0.09774 0.91972 0.0
H228 H 0.75793 0.07274 0.93819 0.0
O229 O 0.73916 0.08951 0.82193 0.0
O230 O 0.7496 0.04945 0.79894 0.0
H231 H 0.7692 0.97757 0.86065 0.0
H232 H 0.79129 0.97422 0.89156 0.0
C233 C 0.78806 0.98644 0.87181 0.0
H234 H 0.80708 0.98389 0.85817 0.0
H235 H 0.75693 0.98101 0.80787 0.0
O236 O 0.76006 0.12963 0.87087 0.0
C237 C 0.7331 0.07071 0.80358 0.0
Co238 Co 0.39606 0.77 0.34853 0.0
Co239 Co 0.45314 0.78702 0.31735 0.0
C240 C 0.39897 0.82196 0.31191 0.0
O241 O 0.38551 0.80552 0.32862 0.0
O242 O 0.42506 0.81728 0.30559 0.0
C243 C 0.34606 0.77649 0.38289 0.0
O244 O 0.35269 0.80388 0.38196 0.0
C245 C 0.50026 0.82265 0.29394 0.0
C246 C 0.53547 0.79113 0.29172 0.0
C247 C 0.52887 0.81958 0.28626 0.0
N248 N 0.49071 0.79729 0.3039 0.0
N249 N 0.51188 0.77856 0.30235 0.0
C250 C 0.48124 0.84803 0.28905 0.0
H251 H 0.46285 0.84137 0.27591 0.0
H252 H 0.47272 0.85566 0.3094 0.0
H253 H 0.4923 0.86579 0.27804 0.0
C254 C 0.43408 0.76983 0.39726 0.0
N255 N 0.42935 0.77493 0.36994 0.0
N256 N 0.45361 0.78194 0.35759 0.0
C257 C 0.47463 0.78175 0.37717 0.0
C258 C 0.46284 0.77396 0.40282 0.0
C259 C 0.41161 0.7596 0.41729 0.0
H260 H 0.40122 0.74004 0.40881 0.0
H261 H 0.39497 0.7764 0.4194 0.0
H262 H 0.42061 0.75484 0.43831 0.0
O263 O 0.40209 0.73884 0.3216 0.0
O264 O 0.4417 0.75032 0.2983 0.0
H265 H 0.51474 0.76857 0.36029 0.0
H266 H 0.51772 0.79076 0.39103 0.0
C267 C 0.50556 0.78732 0.37132 0.0
H268 H 0.50778 0.80644 0.3576 0.0
H269 H 0.51013 0.75708 0.30835 0.0
O270 O 0.36255 0.75842 0.37129 0.0
C271 C 0.42063 0.73349 0.30284 0.0
Co272 Co 0.27124 0.89641 0.85041 0.0
Co273 Co 0.28811 0.95375 0.81921 0.0
C274 C 0.32294 0.89945 0.81373 0.0
O275 O 0.30652 0.88588 0.83035 0.0
O276 O 0.31831 0.92565 0.80748 0.0
C277 C 0.27807 0.84535 0.88342 0.0
O278 O 0.30549 0.85099 0.8807 0.0
C279 C 0.32358 0.00099 0.79559 0.0
C280 C 0.29212 0.03628 0.79321 0.0
C281 C 0.32048 0.02965 0.78773 0.0
N282 N 0.29832 0.99144 0.80566 0.0
N283 N 0.27964 0.01266 0.80402 0.0
C284 C 0.34885 0.98191 0.79073 0.0
H285 H 0.34211 0.96361 0.7775 0.0
H286 H 0.35647 0.97318 0.81107 0.0
H287 H 0.36659 0.99301 0.77981 0.0
C288 C 0.27172 0.93425 0.89918 0.0
N289 N 0.27649 0.92967 0.87182 0.0
N290 N 0.28326 0.95407 0.85944 0.0
C291 C 0.28311 0.97504 0.87902 0.0
C292 C 0.27576 0.96306 0.90474 0.0
C293 C 0.26164 0.91162 0.9192 0.0
H294 H 0.24163 0.9018 0.91109 0.0
H295 H 0.27806 0.89451 0.92066 0.0
H296 H 0.25772 0.9204 0.94043 0.0
O297 O 0.23987 0.90259 0.82351 0.0
O298 O 0.25134 0.94236 0.80025 0.0
H299 H 0.26946 0.01511 0.86203 0.0
H300 H 0.29169 0.01828 0.8928 0.0
C301 C 0.28832 0.0061 0.87311 0.0
H302 H 0.30731 0.00856 0.8594 0.0
H303 H 0.25824 0.01093 0.81005 0.0
O304 O 0.25984 0.86283 0.87338 0.0
C305 C 0.23448 0.92127 0.80475 0.0
Co306 Co 0.59558 0.27377 0.34847 0.0
Co307 Co 0.53832 0.28833 0.31662 0.0
C308 C 0.59178 0.32437 0.31016 0.0
O309 O 0.60551 0.30878 0.32746 0.0
O310 O 0.56581 0.31886 0.3038 0.0
C311 C 0.6471 0.28115 0.38091 0.0
O312 O 0.64232 0.30864 0.37696 0.0
C313 C 0.49026 0.32425 0.29714 0.0
C314 C 0.45722 0.29189 0.28726 0.0
C315 C 0.46252 0.32116 0.28692 0.0
N316 N 0.50086 0.29804 0.30293 0.0
N317 N 0.48098 0.27881 0.29696 0.0
C318 C 0.50594 0.35158 0.30302 0.0
H319 H 0.52038 0.34869 0.3213 0.0
H320 H 0.49077 0.36936 0.30722 0.0
H321 H 0.51921 0.35731 0.28456 0.0
C322 C 0.55759 0.27536 0.39717 0.0
N323 N 0.56228 0.27917 0.36966 0.0
N324 N 0.53785 0.2844 0.35682 0.0
C325 C 0.51663 0.28371 0.37608 0.0
C326 C 0.52856 0.27815 0.40226 0.0
C327 C 0.58025 0.26651 0.41764 0.0
H328 H 0.59032 0.24628 0.41046 0.0
H329 H 0.59714 0.28325 0.41831 0.0
H330 H 0.5715 0.26332 0.43902 0.0
O331 O 0.58991 0.24153 0.32239 0.0
O332 O 0.55009 0.25132 0.29867 0.0
H333 H 0.4789 0.26865 0.35558 0.0
H334 H 0.47224 0.28632 0.38864 0.0
C335 C 0.48551 0.28659 0.36936 0.0
H336 H 0.48185 0.30695 0.35781 0.0
H337 H 0.48364 0.25672 0.29947 0.0
O338 O 0.62907 0.26299 0.37178 0.0
C339 C 0.57148 0.2351 0.30378 0.0
Co340 Co 0.21821 0.59578 0.84727 0.0
Co341 Co 0.20228 0.53824 0.81625 0.0
C342 C 0.16711 0.59229 0.80986 0.0
O343 O 0.18306 0.60604 0.82674 0.0
O344 O 0.17214 0.56616 0.80384 0.0
C345 C 0.21084 0.64666 0.88016 0.0
O346 O 0.18346 0.641 0.87704 0.0
C347 C 0.1667 0.49066 0.79396 0.0
C348 C 0.1986 0.45593 0.79014 0.0
C349 C 0.16991 0.46214 0.78588 0.0
N350 N 0.19225 0.50053 0.80295 0.0
N351 N 0.21119 0.47965 0.80048 0.0
C352 C 0.14089 0.50936 0.79037 0.0
H353 H 0.14644 0.52755 0.77637 0.0
H354 H 0.13462 0.51833 0.81097 0.0
H355 H 0.12256 0.49792 0.78083 0.0
C356 C 0.21813 0.55786 0.89615 0.0
N357 N 0.21314 0.56246 0.8688 0.0
N358 N 0.20686 0.53799 0.85647 0.0
C359 C 0.2076 0.51692 0.87606 0.0
C360 C 0.21482 0.52892 0.90174 0.0
C361 C 0.22792 0.58058 0.9161 0.0
H362 H 0.21144 0.59765 0.91719 0.0
H363 H 0.23161 0.57189 0.93747 0.0
H364 H 0.248 0.59041 0.90817 0.0
O365 O 0.24981 0.58981 0.82069 0.0
O366 O 0.23907 0.54983 0.79761 0.0
H367 H 0.22235 0.47768 0.85837 0.0
H368 H 0.20127 0.47316 0.88975 0.0
C369 C 0.20352 0.48573 0.87008 0.0
H370 H 0.18421 0.48268 0.85687 0.0
H371 H 0.23281 0.48167 0.80566 0.0
O372 O 0.22922 0.62935 0.87026 0.0
C373 C 0.2556 0.57114 0.80215 0.0
Co374 Co 0.89542 0.21775 0.34873 0.0
Co375 Co 0.95255 0.20434 0.31655 0.0
C376 C 0.89971 0.1674 0.31052 0.0
O377 O 0.88581 0.18267 0.32783 0.0
O378 O 0.92556 0.17333 0.30414 0.0
C379 C 0.84402 0.20979 0.3812 0.0
O380 O 0.84874 0.18236 0.37698 0.0
C381 C 0.00162 0.16919 0.29899 0.0
C382 C 0.03101 0.20173 0.28151 0.0
C383 C 0.02796 0.17239 0.28561 0.0
N384 N 0.98976 0.19528 0.30218 0.0
N385 N 0.0075 0.21464 0.29178 0.0
C386 C 0.98826 0.14226 0.31003 0.0
H387 H 0.97359 0.1473 0.32761 0.0
H388 H 0.00493 0.12698 0.31726 0.0
H389 H 0.97552 0.13204 0.29313 0.0
C390 C 0.93412 0.21743 0.39702 0.0
N391 N 0.9291 0.213 0.36968 0.0
N392 N 0.9535 0.20838 0.35664 0.0
C393 C 0.975 0.21018 0.37557 0.0
C394 C 0.96331 0.21575 0.40179 0.0
C395 C 0.91152 0.226 0.41756 0.0
H396 H 0.89453 0.20936 0.41801 0.0
H397 H 0.92034 0.22872 0.43899 0.0
H398 H 0.90158 0.24643 0.4106 0.0
O399 O 0.90019 0.25014 0.32244 0.0
O400 O 0.93989 0.24101 0.29848 0.0
H401 H 0.011 0.22551 0.35236 0.0
H402 H 0.01979 0.21207 0.38702 0.0
C403 C 0.00608 0.20883 0.36828 0.0
H404 H 0.01087 0.18764 0.35889 0.0
H405 H 0.00339 0.23664 0.29136 0.0
O406 O 0.86205 0.22807 0.37225 0.0
C407 C 0.91829 0.25685 0.30363 0.0
Co408 Co 0.27075 0.59601 0.1481 0.0
Co409 Co 0.28705 0.53863 0.17958 0.0
C410 C 0.32233 0.5928 0.18494 0.0
O411 O 0.3061 0.60645 0.16817 0.0
O412 O 0.31738 0.56668 0.19129 0.0
C413 C 0.27735 0.6473 0.11517 0.0
O414 O 0.30483 0.64209 0.11815 0.0
C415 C 0.3227 0.49125 0.20258 0.0
C416 C 0.29097 0.45623 0.20602 0.0
C417 C 0.31956 0.46266 0.2107 0.0
N418 N 0.29723 0.50095 0.19317 0.0
N419 N 0.27839 0.47988 0.19542 0.0
C420 C 0.34831 0.51016 0.20658 0.0
H421 H 0.35515 0.51893 0.186 0.0
H422 H 0.3664 0.49892 0.21681 0.0
H423 H 0.34228 0.52845 0.2201 0.0
C424 C 0.27086 0.55801 0.09952 0.0
N425 N 0.27576 0.56266 0.12685 0.0
N426 N 0.2822 0.53824 0.13935 0.0
C427 C 0.28167 0.51717 0.11989 0.0
C428 C 0.27441 0.52911 0.09412 0.0
C429 C 0.26106 0.58067 0.0794 0.0
H430 H 0.24089 0.59034 0.08717 0.0
H431 H 0.27744 0.59788 0.07832 0.0
H432 H 0.25753 0.57196 0.05806 0.0
O433 O 0.23936 0.58995 0.1749 0.0
O434 O 0.25029 0.55016 0.19838 0.0
H435 H 0.26741 0.4776 0.13755 0.0
H436 H 0.28887 0.4736 0.10639 0.0
C437 C 0.28622 0.48605 0.12601 0.0
H438 H 0.30545 0.48331 0.1394 0.0
H439 H 0.25684 0.48174 0.18993 0.0
O440 O 0.25929 0.62952 0.12503 0.0
C441 C 0.23367 0.57136 0.19365 0.0
Co442 Co 0.89593 0.27357 0.64721 0.0
Co443 Co 0.95346 0.2871 0.6789 0.0
C444 C 0.90036 0.32342 0.68602 0.0
O445 O 0.88637 0.30833 0.66856 0.0
O446 O 0.92631 0.31759 0.69215 0.0
C447 C 0.84408 0.28145 0.61538 0.0
O448 O 0.8485 0.30885 0.62017 0.0
C449 C 0.00189 0.32234 0.69844 0.0
C450 C 0.03472 0.28962 0.70785 0.0
C451 C 0.02966 0.31892 0.70846 0.0
N452 N 0.99104 0.2963 0.69249 0.0
N453 N 0.01079 0.27684 0.69819 0.0
C454 C 0.98641 0.34986 0.69288 0.0
H455 H 0.97188 0.34737 0.67464 0.0
H456 H 0.00171 0.36762 0.6888 0.0
H457 H 0.97326 0.35536 0.71145 0.0
C458 C 0.93372 0.27542 0.59836 0.0
N459 N 0.92919 0.27895 0.62591 0.0
N460 N 0.95375 0.28369 0.63868 0.0
C461 C 0.97488 0.28292 0.61934 0.0
C462 C 0.96277 0.27786 0.59318 0.0
C463 C 0.91085 0.26704 0.57795 0.0
H464 H 0.90082 0.24664 0.58491 0.0
H465 H 0.89399 0.28378 0.57768 0.0
H466 H 0.91941 0.26432 0.55645 0.0
O467 O 0.9013 0.24099 0.67315 0.0
O468 O 0.94135 0.25006 0.69673 0.0
H469 H 0.01241 0.26695 0.63958 0.0
H470 H 0.01927 0.28503 0.60665 0.0
C471 C 0.00608 0.28521 0.62597 0.0
H472 H 0.01014 0.30533 0.63769 0.0
H473 H 0.00792 0.25481 0.6955 0.0
O474 O 0.86239 0.26324 0.62387 0.0
C475 C 0.91971 0.23417 0.69168 0.0
Co476 Co 0.21688 0.89631 0.14989 0.0
Co477 Co 0.20313 0.95349 0.18193 0.0
C478 C 0.16637 0.90049 0.18792 0.0
O479 O 0.18175 0.88663 0.17068 0.0
O480 O 0.17219 0.9264 0.19429 0.0
C481 C 0.20855 0.84531 0.11705 0.0
O482 O 0.18123 0.85057 0.12102 0.0
C483 C 0.16761 0.00231 0.19926 0.0
C484 C 0.19961 0.03189 0.21726 0.0
C485 C 0.1704 0.0286 0.21288 0.0
N486 N 0.19379 0.9907 0.19624 0.0
N487 N 0.21283 0.00855 0.20694 0.0
C488 C 0.14098 0.98877 0.18791 0.0
H489 H 0.14634 0.9743 0.17024 0.0
H490 H 0.12563 0.00539 0.18068 0.0
H491 H 0.13074 0.97572 0.20461 0.0
C492 C 0.21722 0.93514 0.10162 0.0
N493 N 0.21237 0.93008 0.12891 0.0
N494 N 0.2074 0.95449 0.14184 0.0
C495 C 0.20921 0.97604 0.12287 0.0
C496 C 0.2154 0.96436 0.09677 0.0
C497 C 0.22584 0.9125 0.08113 0.0
H498 H 0.20917 0.89555 0.08059 0.0
H499 H 0.2287 0.92136 0.05971 0.0
H500 H 0.24615 0.90246 0.08817 0.0
O501 O 0.24906 0.90108 0.17624 0.0
O502 O 0.23972 0.94085 0.20013 0.0
H503 H 0.22375 0.01234 0.14611 0.0
H504 H 0.21065 0.02093 0.11129 0.0
C505 C 0.20737 0.00717 0.13004 0.0
H506 H 0.18604 0.0117 0.13921 0.0
H507 H 0.23481 0.00461 0.20756 0.0
O508 O 0.22705 0.86289 0.12636 0.0
C509 C 0.25562 0.91925 0.19504 0.0
Co510 Co 0.59516 0.21841 0.64726 0.0
Co511 Co 0.53802 0.20378 0.67911 0.0
C512 C 0.5914 0.1676 0.68526 0.0
O513 O 0.60512 0.18322 0.66799 0.0
O514 O 0.56548 0.17314 0.69168 0.0
C515 C 0.64674 0.2115 0.615 0.0
O516 O 0.64243 0.18398 0.61933 0.0
C517 C 0.49003 0.16778 0.69859 0.0
C518 C 0.45718 0.20008 0.70892 0.0
C519 C 0.46242 0.17081 0.70906 0.0
N520 N 0.50063 0.19401 0.69285 0.0
N521 N 0.48085 0.21322 0.69909 0.0
C522 C 0.50561 0.14048 0.69248 0.0
H523 H 0.51986 0.14346 0.67411 0.0
H524 H 0.49037 0.12271 0.68831 0.0
H525 H 0.51907 0.13468 0.71081 0.0
C526 C 0.55686 0.218 0.59875 0.0
N527 N 0.56172 0.21334 0.62611 0.0
N528 N 0.53732 0.20808 0.63894 0.0
C529 C 0.51597 0.20955 0.61981 0.0
C530 C 0.52776 0.21574 0.59373 0.0
C531 C 0.57945 0.22724 0.5784 0.0
H532 H 0.59669 0.2109 0.57795 0.0
H533 H 0.57072 0.23008 0.55694 0.0
H534 H 0.58903 0.24776 0.58554 0.0
O535 O 0.58975 0.25045 0.67357 0.0
O536 O 0.54999 0.24065 0.69729 0.0
H537 H 0.47884 0.2254 0.64065 0.0
H538 H 0.47141 0.20817 0.60749 0.0
C539 C 0.48483 0.2074 0.62669 0.0
H540 H 0.48072 0.18705 0.63812 0.0
H541 H 0.48355 0.23532 0.6967 0.0
O542 O 0.62844 0.22945 0.62389 0.0
C543 C 0.57143 0.25682 0.69224 0.0
H544 H 0.62155 0.97432 0.24 0.0
H545 H 0.56911 0.81074 0.24598 0.0
H546 H 0.66858 0.90449 0.20301 0.0
H547 H 0.5355 0.87663 0.29992 0.0
H548 H 0.60286 0.84563 0.2264 0.0
H549 H 0.58641 0.93988 0.25793 0.0
C550 C 0.62421 0.9518 0.2352 0.0
C551 C 0.64775 0.9423 0.21952 0.0
C552 C 0.58793 0.85254 0.24235 0.0
C553 C 0.60794 0.90268 0.24051 0.0
C554 C 0.56866 0.83264 0.25353 0.0
C555 C 0.54885 0.84099 0.27401 0.0
C556 C 0.58752 0.88105 0.25179 0.0
C557 C 0.54951 0.86953 0.28331 0.0
C558 C 0.60432 0.93211 0.24574 0.0
C559 C 0.65066 0.91273 0.21488 0.0
N560 N 0.56842 0.88857 0.27204 0.0
N561 N 0.63094 0.89399 0.2252 0.0
H562 H 0.62285 0.51753 0.75555 0.0
H563 H 0.56952 0.68071 0.75262 0.0
H564 H 0.67021 0.58704 0.793 0.0
H565 H 0.53665 0.61592 0.69684 0.0
H566 H 0.60365 0.64573 0.77137 0.0
H567 H 0.58757 0.55211 0.73814 0.0
C568 C 0.62557 0.54 0.76053 0.0
C569 C 0.64923 0.54938 0.77619 0.0
C570 C 0.5888 0.63908 0.7552 0.0
C571 C 0.60924 0.58914 0.75587 0.0
C572 C 0.56931 0.65903 0.74449 0.0
C573 C 0.54958 0.65099 0.72375 0.0
C574 C 0.58868 0.61084 0.74503 0.0
C575 C 0.55057 0.62273 0.71369 0.0
C576 C 0.6056 0.55977 0.75031 0.0
C577 C 0.65219 0.5789 0.78113 0.0
N578 N 0.56966 0.60363 0.72453 0.0
N579 N 0.63238 0.59771 0.77114 0.0
H580 H 0.90409 0.66883 0.29729 0.0
H581 H 0.87628 0.53772 0.19325 0.0
H582 H 0.97242 0.62344 0.25605 0.0
H583 H 0.81317 0.56794 0.25199 0.0
H584 H 0.91131 0.57075 0.21369 0.0
H585 H 0.8698 0.63408 0.27846 0.0
C586 C 0.91189 0.65139 0.28444 0.0
C587 C 0.9412 0.64871 0.27866 0.0
C588 C 0.88989 0.56992 0.22232 0.0
C589 C 0.90205 0.60912 0.25662 0.0
C590 C 0.86997 0.55083 0.21087 0.0
C591 C 0.84205 0.54932 0.22162 0.0
C592 C 0.88165 0.58814 0.24427 0.0
C593 C 0.83459 0.56812 0.24333 0.0
C594 C 0.89233 0.63155 0.27373 0.0
C595 C 0.95013 0.62588 0.26167 0.0
N596 N 0.85424 0.5867 0.25395 0.0
N597 N 0.93062 0.60704 0.25114 0.0
H598 H 0.90361 0.82247 0.70115 0.0
H599 H 0.87613 0.95561 0.80276 0.0
H600 H 0.97196 0.86946 0.74095 0.0
H601 H 0.81211 0.92278 0.74609 0.0
H602 H 0.91111 0.92252 0.78257 0.0
H603 H 0.86918 0.85711 0.71974 0.0
C604 C 0.91138 0.84023 0.71363 0.0
C605 C 0.94074 0.8434 0.71906 0.0
C606 C 0.88949 0.92277 0.77434 0.0
C607 C 0.90145 0.88288 0.74082 0.0
C608 C 0.86959 0.94189 0.78564 0.0
C609 C 0.84142 0.94268 0.77538 0.0
C610 C 0.88101 0.90383 0.75303 0.0
C611 C 0.83371 0.92316 0.75435 0.0
C612 C 0.89174 0.86001 0.7242 0.0
C613 C 0.94963 0.86664 0.73558 0.0
N614 N 0.85338 0.90458 0.74384 0.0
N615 N 0.93006 0.88542 0.74597 0.0
H616 H 0.31133 0.06969 0.74704 0.0
H617 H 0.4745 0.12239 0.73999 0.0
H618 H 0.37753 0.03643 0.80114 0.0
H619 H 0.40445 0.1692 0.70276 0.0
H620 H 0.44031 0.08723 0.75838 0.0
H621 H 0.34597 0.1034 0.72699 0.0
C622 C 0.33324 0.06931 0.75453 0.0
C623 C 0.34174 0.0496 0.7752 0.0
C624 C 0.43244 0.1051 0.74604 0.0
C625 C 0.38153 0.08824 0.75243 0.0
C626 C 0.45199 0.125 0.73524 0.0
C627 C 0.44234 0.14848 0.71937 0.0
C628 C 0.40302 0.10865 0.74087 0.0
C629 C 0.41279 0.15132 0.71478 0.0
C630 C 0.353 0.08856 0.74307 0.0
C631 C 0.37031 0.05035 0.7844 0.0
N632 N 0.3942 0.1316 0.72535 0.0
N633 N 0.38921 0.06923 0.77286 0.0
H634 H 0.47415 0.36946 0.25563 0.0
H635 H 0.31126 0.42296 0.25187 0.0
H636 H 0.40467 0.32284 0.29409 0.0
H637 H 0.37609 0.45525 0.19575 0.0
H638 H 0.34617 0.38911 0.27122 0.0
H639 H 0.43972 0.40463 0.23772 0.0
C640 C 0.45172 0.36689 0.26074 0.0
C641 C 0.44231 0.34346 0.27683 0.0
C642 C 0.35284 0.40377 0.25484 0.0
C643 C 0.40271 0.38333 0.25591 0.0
C644 C 0.33293 0.42311 0.24379 0.0
C645 C 0.34099 0.4426 0.22276 0.0
C646 C 0.38107 0.40379 0.24473 0.0
C647 C 0.36925 0.44152 0.2128 0.0
C648 C 0.43203 0.3868 0.25022 0.0
C649 C 0.41284 0.34067 0.2819 0.0
N650 N 0.38831 0.42258 0.22396 0.0
N651 N 0.39412 0.36042 0.27161 0.0
H652 H 0.08739 0.3205 0.70065 0.0
H653 H 0.11388 0.45402 0.80211 0.0
H654 H 0.01864 0.3666 0.74046 0.0
H655 H 0.17761 0.42278 0.74453 0.0
H656 H 0.07921 0.42031 0.78219 0.0
H657 H 0.12147 0.35569 0.71911 0.0
C658 C 0.07946 0.33817 0.71312 0.0
C659 C 0.05009 0.34094 0.71858 0.0
C660 C 0.10069 0.42105 0.7737 0.0
C661 C 0.08898 0.38104 0.74017 0.0
C662 C 0.1204 0.44053 0.78485 0.0
C663 C 0.14839 0.44195 0.77425 0.0
C664 C 0.1092 0.40236 0.75223 0.0
C665 C 0.15613 0.42268 0.75304 0.0
C666 C 0.0989 0.35826 0.7236 0.0
C667 C 0.04099 0.36408 0.73508 0.0
N668 N 0.13666 0.40373 0.74271 0.0
N669 N 0.06037 0.38317 0.74539 0.0
H670 H 0.08557 0.17862 0.27935 0.0
H671 H 0.11446 0.01771 0.2295 0.0
H672 H 0.01799 0.11642 0.26839 0.0
H673 H 0.17593 0.08629 0.22014 0.0
H674 H 0.07958 0.05226 0.24682 0.0
H675 H 0.11982 0.14376 0.26126 0.0
C676 C 0.07792 0.15754 0.27343 0.0
C677 C 0.04883 0.15036 0.2761 0.0
C678 C 0.10061 0.05978 0.24068 0.0
C679 C 0.08808 0.11023 0.25514 0.0
C680 C 0.12052 0.04006 0.23036 0.0
C681 C 0.14808 0.04912 0.22248 0.0
C682 C 0.1084 0.08872 0.24366 0.0
C683 C 0.15492 0.07829 0.22571 0.0
C684 C 0.09752 0.13765 0.26303 0.0
C685 C 0.04023 0.12273 0.26784 0.0
N686 N 0.13528 0.09699 0.23605 0.0
N687 N 0.05976 0.10368 0.2578 0.0
H688 H 0.63854 0.13997 0.16866 0.0
H689 H 0.59693 0.18542 0.32047 0.0
H690 H 0.64373 0.08057 0.23798 0.0
H691 H 0.55857 0.22611 0.24838 0.0
H692 H 0.61271 0.14592 0.29073 0.0
H693 H 0.60761 0.17089 0.1967 0.0
C694 C 0.63276 0.13319 0.18964 0.0
C695 C 0.64399 0.1078 0.20112 0.0
C696 C 0.60039 0.16319 0.28146 0.0
C697 C 0.60904 0.14339 0.23349 0.0
C698 C 0.59145 0.18578 0.29841 0.0
C699 C 0.57661 0.20914 0.2868 0.0
C700 C 0.59514 0.16429 0.25252 0.0
C701 C 0.56995 0.20848 0.25814 0.0
C702 C 0.61504 0.15083 0.2056 0.0
C703 C 0.63564 0.09999 0.22833 0.0
N704 N 0.57979 0.18669 0.24183 0.0
N705 N 0.61915 0.11803 0.24382 0.0
H706 H 0.26275 0.5591 0.74638 0.0
H707 H 0.41171 0.64394 0.73784 0.0
H708 H 0.30625 0.59498 0.81793 0.0
H709 H 0.35034 0.64194 0.67019 0.0
H710 H 0.38046 0.61214 0.76509 0.0
H711 H 0.30217 0.57587 0.71633 0.0
C712 C 0.28092 0.56984 0.75583 0.0
C713 C 0.28118 0.57596 0.78458 0.0
C714 C 0.37415 0.61829 0.74407 0.0
C715 C 0.32614 0.59491 0.75058 0.0
C716 C 0.39202 0.63628 0.72844 0.0
C717 C 0.38345 0.64589 0.70184 0.0
C718 C 0.34772 0.60956 0.73286 0.0
C719 C 0.3576 0.63536 0.69078 0.0
C720 C 0.30326 0.57953 0.7387 0.0
C721 C 0.30511 0.59013 0.79579 0.0
N722 N 0.34053 0.61793 0.70642 0.0
N723 N 0.32655 0.59925 0.77876 0.0
H724 H 0.89189 0.30605 0.31992 0.0
H725 H 0.84987 0.35145 0.16777 0.0
H726 H 0.93091 0.26596 0.2482 0.0
H727 H 0.84486 0.41087 0.23671 0.0
H728 H 0.88075 0.32045 0.1961 0.0
H729 H 0.87556 0.34532 0.28987 0.0
C730 C 0.89737 0.30576 0.29787 0.0
C731 C 0.91258 0.28265 0.28645 0.0
C732 C 0.87336 0.34054 0.20484 0.0
C733 C 0.89346 0.32722 0.25185 0.0
C734 C 0.85567 0.35821 0.18871 0.0
C735 C 0.84457 0.38366 0.2 0.0
C736 C 0.87944 0.34802 0.23267 0.0
C737 C 0.85291 0.39144 0.22719 0.0
C738 C 0.88813 0.32822 0.28076 0.0
C739 C 0.91924 0.2834 0.2578 0.0
N740 N 0.86938 0.37339 0.24282 0.0
N741 N 0.90912 0.30505 0.24133 0.0
H742 H 0.22735 0.93472 0.74914 0.0
H743 H 0.07828 0.85016 0.7382 0.0
H744 H 0.18382 0.89685 0.81982 0.0
H745 H 0.13956 0.85481 0.67075 0.0
H746 H 0.10958 0.88098 0.76644 0.0
H747 H 0.1879 0.91888 0.71867 0.0
C748 C 0.20919 0.9237 0.75833 0.0
C749 C 0.20894 0.91678 0.78694 0.0
C750 C 0.11586 0.87563 0.74526 0.0
C751 C 0.1639 0.89888 0.75244 0.0
C752 C 0.09796 0.85819 0.72909 0.0
C753 C 0.10654 0.84956 0.70224 0.0
C754 C 0.14227 0.88482 0.73433 0.0
C755 C 0.13232 0.86061 0.69151 0.0
C756 C 0.18682 0.91455 0.74095 0.0
C757 C 0.18499 0.90231 0.79778 0.0
N758 N 0.14938 0.87748 0.70765 0.0
N759 N 0.16351 0.89371 0.78051 0.0
H760 H 0.59673 0.30661 0.67558 0.0
H761 H 0.6397 0.35159 0.82736 0.0
H762 H 0.55908 0.26554 0.74776 0.0
H763 H 0.64456 0.4111 0.7581 0.0
H764 H 0.60853 0.32071 0.79938 0.0
H765 H 0.61285 0.34599 0.70537 0.0
C766 C 0.59148 0.30614 0.69768 0.0
C767 C 0.57675 0.28271 0.7093 0.0
C768 C 0.61595 0.34078 0.79049 0.0
C769 C 0.59566 0.32743 0.74362 0.0
C770 C 0.63382 0.3584 0.80641 0.0
C771 C 0.64502 0.38381 0.79491 0.0
C772 C 0.60976 0.34827 0.76263 0.0
C773 C 0.63651 0.39165 0.76775 0.0
C774 C 0.60061 0.32867 0.71465 0.0
C775 C 0.57037 0.28323 0.738 0.0
N776 N 0.61986 0.37365 0.75231 0.0
N777 N 0.5804 0.30496 0.75433 0.0
H778 H 0.18302 0.59477 0.17737 0.0
H779 H 0.13993 0.63925 0.32925 0.0
H780 H 0.22625 0.55964 0.24958 0.0
H781 H 0.07974 0.64282 0.26068 0.0
H782 H 0.17071 0.60808 0.30134 0.0
H783 H 0.14388 0.61048 0.20753 0.0
C784 C 0.18401 0.58995 0.19957 0.0
C785 C 0.20797 0.57608 0.21107 0.0
C786 C 0.15052 0.61521 0.29258 0.0
C787 C 0.16352 0.59457 0.24582 0.0
C788 C 0.13296 0.63308 0.30846 0.0
C789 C 0.10738 0.64394 0.29714 0.0
C790 C 0.14279 0.60865 0.26491 0.0
C791 C 0.09932 0.63505 0.27019 0.0
C792 C 0.16162 0.59886 0.21677 0.0
C793 C 0.20813 0.57026 0.23991 0.0
N794 N 0.11726 0.6184 0.25477 0.0
N795 N 0.1865 0.58008 0.25643 0.0
H796 H 0.8935 0.18482 0.67532 0.0
H797 H 0.85001 0.14089 0.82739 0.0
H798 H 0.93226 0.2252 0.74716 0.0
H799 H 0.84464 0.08105 0.75881 0.0
H800 H 0.88143 0.17137 0.79911 0.0
H801 H 0.87673 0.14579 0.70544 0.0
C802 C 0.89887 0.18519 0.69741 0.0
C803 C 0.91411 0.20833 0.70884 0.0
C804 C 0.87384 0.1513 0.79044 0.0
C805 C 0.89443 0.16407 0.74352 0.0
C806 C 0.85583 0.13393 0.80653 0.0
C807 C 0.84449 0.10851 0.79534 0.0
C808 C 0.88001 0.14355 0.76271 0.0
C809 C 0.85288 0.10046 0.76826 0.0
C810 C 0.88936 0.16287 0.71457 0.0
C811 C 0.92059 0.20771 0.73754 0.0
N812 N 0.86967 0.11822 0.75265 0.0
N813 N 0.91019 0.18623 0.75405 0.0
H814 H 0.3052 0.89401 0.17839 0.0
H815 H 0.35045 0.84905 0.32972 0.0
H816 H 0.26425 0.93088 0.25072 0.0
H817 H 0.41003 0.84645 0.26078 0.0
H818 H 0.31924 0.88032 0.30201 0.0
H819 H 0.34452 0.87762 0.20821 0.0
C820 C 0.30474 0.89902 0.20053 0.0
C821 C 0.28139 0.91363 0.21218 0.0
C822 C 0.33941 0.87339 0.29316 0.0
C823 C 0.32601 0.89442 0.24652 0.0
C824 C 0.35721 0.85548 0.30892 0.0
C825 C 0.38277 0.84492 0.29744 0.0
C826 C 0.3469 0.88024 0.26547 0.0
C827 C 0.39053 0.85406 0.27045 0.0
C828 C 0.32722 0.88975 0.21752 0.0
C829 C 0.2819 0.91969 0.24095 0.0
N830 N 0.37238 0.87072 0.25516 0.0
N831 N 0.30359 0.90952 0.25728 0.0
H832 H 0.39798 0.80906 0.68004 0.0
H833 H 0.34925 0.85016 0.83123 0.0
H834 H 0.43051 0.7642 0.75248 0.0
H835 H 0.34843 0.91145 0.76331 0.0
H836 H 0.38087 0.81937 0.80377 0.0
H837 H 0.38171 0.84788 0.71035 0.0
C838 C 0.40213 0.80767 0.70234 0.0
C839 C 0.41543 0.78336 0.71384 0.0
C840 C 0.37425 0.83982 0.7951 0.0
C841 C 0.39625 0.82738 0.74876 0.0
C842 C 0.35612 0.85737 0.81072 0.0
C843 C 0.34595 0.88331 0.79943 0.0
C844 C 0.38178 0.84793 0.76774 0.0
C845 C 0.35571 0.89165 0.77283 0.0
C846 C 0.39289 0.82985 0.71963 0.0
C847 C 0.42037 0.78263 0.74283 0.0
N848 N 0.37262 0.87375 0.75766 0.0
N849 N 0.41022 0.80406 0.75941 0.0
H850 H 0.68309 0.39757 0.17562 0.0
H851 H 0.63994 0.35251 0.32753 0.0
H852 H 0.72552 0.43338 0.24778 0.0
H853 H 0.57994 0.34829 0.25885 0.0
H854 H 0.67044 0.38412 0.29954 0.0
H855 H 0.64394 0.38142 0.20569 0.0
C856 C 0.68389 0.40246 0.19778 0.0
C857 C 0.70764 0.41663 0.2093 0.0
C858 C 0.65035 0.37674 0.29077 0.0
C859 C 0.66321 0.39765 0.24396 0.0
C860 C 0.63296 0.35862 0.3067 0.0
C861 C 0.60752 0.34746 0.29537 0.0
C862 C 0.6426 0.38327 0.26306 0.0
C863 C 0.59942 0.35628 0.26836 0.0
C864 C 0.6615 0.3933 0.21493 0.0
C865 C 0.70756 0.42254 0.2381 0.0
N866 N 0.61721 0.3732 0.2529 0.0
N867 N 0.68597 0.41246 0.25458 0.0
H868 H 0.05783 0.72878 0.74915 0.0
H869 H 0.14364 0.58042 0.75854 0.0
H870 H 0.09734 0.68764 0.67825 0.0
H871 H 0.13935 0.6409 0.82667 0.0
H872 H 0.11282 0.61208 0.73063 0.0
H873 H 0.07418 0.68901 0.77913 0.0
C874 C 0.06934 0.71107 0.73981 0.0
C875 C 0.07654 0.71158 0.71129 0.0
C876 C 0.11825 0.6181 0.75188 0.0
C877 C 0.09498 0.66619 0.74522 0.0
C878 C 0.13567 0.59998 0.76788 0.0
C879 C 0.14435 0.60821 0.79484 0.0
C880 C 0.10912 0.64437 0.7631 0.0
C881 C 0.13346 0.63391 0.80583 0.0
C882 C 0.07877 0.68853 0.75691 0.0
C883 C 0.09165 0.6882 0.70023 0.0
N884 N 0.11657 0.65119 0.78985 0.0
N885 N 0.10047 0.66651 0.71722 0.0
H886 H 0.91199 0.14444 0.25912 0.0
H887 H 0.76415 0.0578 0.24922 0.0
H888 H 0.85159 0.13862 0.32726 0.0
H889 H 0.80558 0.09791 0.1785 0.0
H890 H 0.80378 0.07392 0.2793 0.0
H891 H 0.88066 0.11356 0.23101 0.0
C892 C 0.8925 0.13614 0.26841 0.0
C893 C 0.88417 0.14445 0.29542 0.0
C894 C 0.80436 0.0787 0.25709 0.0
C895 C 0.84843 0.10913 0.26347 0.0
C896 C 0.78188 0.06939 0.23993 0.0
C897 C 0.78149 0.07684 0.21144 0.0
C898 C 0.82673 0.09503 0.24549 0.0
C899 C 0.80491 0.09204 0.20046 0.0
C900 C 0.87459 0.11867 0.2523 0.0
C901 C 0.85864 0.13307 0.30637 0.0
N902 N 0.82652 0.10075 0.21751 0.0
N903 N 0.84155 0.11616 0.29029 0.0
H904 H 0.39889 0.68195 0.31883 0.0
H905 H 0.34895 0.64201 0.16754 0.0
H906 H 0.43052 0.72759 0.24651 0.0
H907 H 0.348 0.58045 0.23525 0.0
H908 H 0.38098 0.67248 0.19502 0.0
H909 H 0.38249 0.64328 0.28835 0.0
C910 C 0.40283 0.68354 0.29652 0.0
C911 C 0.41589 0.70803 0.2851 0.0
C912 C 0.37423 0.65205 0.20365 0.0
C913 C 0.39654 0.66418 0.24999 0.0
C914 C 0.35586 0.63467 0.18801 0.0
C915 C 0.34553 0.60876 0.19924 0.0
C916 C 0.38184 0.64378 0.23095 0.0
C917 C 0.35537 0.60025 0.22578 0.0
C918 C 0.39351 0.66144 0.27912 0.0
C919 C 0.42057 0.70901 0.2561 0.0
N920 N 0.37253 0.61798 0.24096 0.0
N921 N 0.41033 0.68766 0.23942 0.0
H922 H 0.76585 0.43379 0.74752 0.0
H923 H 0.91255 0.34546 0.73789 0.0
H924 H 0.80631 0.3927 0.81831 0.0
H925 H 0.8525 0.35263 0.66943 0.0
H926 H 0.88139 0.37623 0.76618 0.0
H927 H 0.80533 0.41726 0.71763 0.0
C928 C 0.78335 0.42188 0.75687 0.0
C929 C 0.7827 0.4143 0.78533 0.0
C930 C 0.87536 0.37143 0.74479 0.0
C931 C 0.82779 0.39562 0.75147 0.0
C932 C 0.89317 0.35403 0.72859 0.0
C933 C 0.88489 0.34616 0.70141 0.0
C934 C 0.84936 0.38137 0.73355 0.0
C935 C 0.8595 0.35785 0.69044 0.0
C936 C 0.80573 0.41234 0.73981 0.0
C937 C 0.80583 0.39869 0.79638 0.0
N938 N 0.84253 0.37471 0.7066 0.0
N939 N 0.82736 0.38975 0.77942 0.0
H940 H 0.05707 0.76432 0.24911 0.0
H941 H 0.14306 0.91277 0.23918 0.0
H942 H 0.0966 0.80598 0.31987 0.0
H943 H 0.13793 0.85215 0.17119 0.0
H944 H 0.11217 0.8813 0.26724 0.0
H945 H 0.07316 0.8041 0.219 0.0
C946 C 0.06853 0.78214 0.2584 0.0
C947 C 0.07582 0.78177 0.28692 0.0
C948 C 0.11744 0.87521 0.24598 0.0
C949 C 0.09398 0.82717 0.25283 0.0
C950 C 0.13491 0.8932 0.22991 0.0
C951 C 0.14342 0.88485 0.20296 0.0
C952 C 0.10808 0.84895 0.23485 0.0
C953 C 0.13222 0.85921 0.19203 0.0
C954 C 0.07781 0.80469 0.24123 0.0
C955 C 0.09084 0.8053 0.2979 0.0
N956 N 0.1153 0.84205 0.20809 0.0
N957 N 0.09954 0.82698 0.28083 0.0
H958 H 0.68266 0.09437 0.8199 0.0
H959 H 0.6396 0.13961 0.66796 0.0
H960 H 0.72517 0.05877 0.74784 0.0
H961 H 0.57951 0.14342 0.73643 0.0
H962 H 0.67008 0.108 0.69597 0.0
H963 H 0.6435 0.11041 0.78972 0.0
C964 C 0.68347 0.0895 0.79774 0.0
C965 C 0.70724 0.07542 0.78628 0.0
C966 C 0.64997 0.11528 0.70468 0.0
C967 C 0.66281 0.09429 0.7515 0.0
C968 C 0.63258 0.13341 0.68874 0.0
C969 C 0.60713 0.14447 0.70001 0.0
C970 C 0.6422 0.10865 0.73235 0.0
C971 C 0.59901 0.13552 0.72696 0.0
C972 C 0.66108 0.0986 0.78053 0.0
C973 C 0.70719 0.06954 0.75748 0.0
N974 N 0.61679 0.11861 0.74243 0.0
N975 N 0.68559 0.07956 0.74094 0.0
H976 H 0.81109 0.29944 0.10002 0.0
H977 H 0.67681 0.19368 0.10193 0.0
H978 H 0.72319 0.32744 0.10559 0.0
H979 H 0.76484 0.16575 0.10615 0.0
H980 H 0.69334 0.2425 0.09247 0.0
H981 H 0.79434 0.25058 0.09142 0.0
C982 C 0.78826 0.29544 0.09897 0.0
C983 C 0.76852 0.31748 0.10409 0.0
C984 C 0.70903 0.22561 0.09507 0.0
C985 C 0.74921 0.26155 0.09446 0.0
C986 C 0.69961 0.19769 0.1004 0.0
C987 C 0.71948 0.17568 0.10538 0.0
C988 C 0.73853 0.23157 0.09476 0.0
C989 C 0.74875 0.18213 0.1029 0.0
C990 C 0.77871 0.2675 0.09413 0.0
C991 C 0.73919 0.31103 0.10221 0.0
N992 N 0.75739 0.20955 0.09814 0.0
N993 N 0.73044 0.28359 0.09794 0.0
H994 H 0.29804 0.68198 0.60267 0.0
H995 H 0.19377 0.81731 0.60407 0.0
H996 H 0.32678 0.76978 0.60925 0.0
H997 H 0.16497 0.72928 0.60681 0.0
H998 H 0.24246 0.80048 0.59529 0.0
H999 H 0.24953 0.69922 0.59352 0.0
C1000 C 0.29428 0.70489 0.60173 0.0
C1001 C 0.31641 0.72446 0.60728 0.0
C1002 C 0.22541 0.78486 0.59742 0.0
C1003 C 0.26088 0.74432 0.59701 0.0
C1004 C 0.19757 0.79446 0.60235 0.0
C1005 C 0.17535 0.77466 0.60673 0.0
C1006 C 0.23107 0.75526 0.59689 0.0
C1007 C 0.18153 0.74532 0.60403 0.0
C1008 C 0.26653 0.71472 0.59658 0.0
C1009 C 0.31028 0.7539 0.60554 0.0
N1010 N 0.20887 0.7365 0.59966 0.0
N1011 N 0.28303 0.76293 0.60093 0.0
H1012 H 0.81122 0.1931 0.89627 0.0
H1013 H 0.67711 0.29873 0.89481 0.0
H1014 H 0.72329 0.16518 0.88977 0.0
H1015 H 0.76519 0.32677 0.89148 0.0
H1016 H 0.69353 0.24985 0.90404 0.0
H1017 H 0.79453 0.24181 0.90556 0.0
C1018 C 0.7884 0.19708 0.89726 0.0
C1019 C 0.76863 0.17514 0.89167 0.0
C1020 C 0.70926 0.26678 0.9017 0.0
C1021 C 0.74939 0.23087 0.9021 0.0
C1022 C 0.69989 0.29473 0.8965 0.0
C1023 C 0.71982 0.31677 0.89179 0.0
C1024 C 0.73875 0.26084 0.90215 0.0
C1025 C 0.74907 0.31035 0.8945 0.0
C1026 C 0.77888 0.22494 0.9025 0.0
C1027 C 0.73931 0.18154 0.89349 0.0
N1028 N 0.75766 0.2829 0.8991 0.0
N1029 N 0.73059 0.20889 0.89816 0.0
H1030 H 0.30381 0.80936 0.40646 0.0
H1031 H 0.16319 0.76641 0.39211 0.0
H1032 H 0.32348 0.72228 0.38279 0.0
H1033 H 0.19477 0.67946 0.39501 0.0
H1034 H 0.21128 0.78387 0.40089 0.0
H1035 H 0.25464 0.79484 0.41601 0.0
C1036 C 0.2978 0.78713 0.40339 0.0
C1037 C 0.31764 0.76718 0.39313 0.0
C1038 C 0.20783 0.76095 0.40052 0.0
C1039 C 0.26096 0.75049 0.40298 0.0
C1040 C 0.18019 0.75093 0.39525 0.0
C1041 C 0.17498 0.72142 0.39238 0.0
C1042 C 0.23053 0.74128 0.40295 0.0
C1043 C 0.19782 0.7024 0.39679 0.0
C1044 C 0.26953 0.77887 0.40854 0.0
C1045 C 0.30881 0.73855 0.39015 0.0
N1046 N 0.22466 0.71269 0.40137 0.0
N1047 N 0.28105 0.73118 0.39467 0.0
H1048 H 0.17749 0.69249 0.89501 0.0
H1049 H 0.31118 0.79907 0.89781 0.0
H1050 H 0.26564 0.66524 0.88969 0.0
H1051 H 0.22312 0.82657 0.89172 0.0
H1052 H 0.2947 0.74998 0.90595 0.0
H1053 H 0.19381 0.74126 0.90485 0.0
C1054 C 0.20028 0.69663 0.89636 0.0
C1055 C 0.22023 0.67485 0.89098 0.0
C1056 C 0.27898 0.76683 0.90323 0.0
C1057 C 0.23904 0.73066 0.90206 0.0
C1058 C 0.28837 0.7949 0.89867 0.0
C1059 C 0.26851 0.81688 0.89352 0.0
C1060 C 0.24953 0.7607 0.90263 0.0
C1061 C 0.23922 0.81022 0.89512 0.0
C1062 C 0.20958 0.72452 0.90191 0.0
C1063 C 0.24949 0.68146 0.89326 0.0
N1064 N 0.23062 0.78266 0.89916 0.0
N1065 N 0.25801 0.70884 0.89826 0.0
H1066 H 0.79702 0.17723 0.39462 0.0
H1067 H 0.69408 0.31354 0.39467 0.0
H1068 H 0.82674 0.26493 0.39132 0.0
H1069 H 0.66438 0.22588 0.39076 0.0
H1070 H 0.74253 0.29605 0.40369 0.0
H1071 H 0.74855 0.19462 0.40347 0.0
C1072 C 0.79348 0.20013 0.39622 0.0
C1073 C 0.8159 0.21966 0.39168 0.0
C1074 C 0.72533 0.28064 0.40126 0.0
C1075 C 0.7604 0.23972 0.40158 0.0
C1076 C 0.69762 0.29062 0.39617 0.0
C1077 C 0.67521 0.27114 0.39141 0.0
C1078 C 0.73069 0.25098 0.40151 0.0
C1079 C 0.68108 0.24169 0.39385 0.0
C1080 C 0.76575 0.21006 0.40121 0.0
C1081 C 0.81004 0.24909 0.39425 0.0
N1082 N 0.7083 0.23251 0.39835 0.0
N1083 N 0.7828 0.25822 0.39864 0.0
H1084 H 0.30992 0.69388 0.10039 0.0
H1085 H 0.1753 0.79889 0.10341 0.0
H1086 H 0.22218 0.66536 0.10686 0.0
H1087 H 0.26327 0.82732 0.10644 0.0
H1088 H 0.19189 0.75018 0.09393 0.0
H1089 H 0.29291 0.74268 0.09184 0.0
C1090 C 0.28707 0.69776 0.09954 0.0
C1091 C 0.26745 0.67559 0.1049 0.0
C1092 C 0.20755 0.76716 0.09627 0.0
C1093 C 0.24786 0.73145 0.09533 0.0
C1094 C 0.19809 0.79502 0.10161 0.0
C1095 C 0.21794 0.81713 0.10627 0.0
C1096 C 0.23707 0.76137 0.09563 0.0
C1097 C 0.2472 0.81085 0.10344 0.0
C1098 C 0.27737 0.72567 0.09473 0.0
C1099 C 0.23809 0.68187 0.10329 0.0
N1100 N 0.25589 0.78349 0.09868 0.0
N1101 N 0.2292 0.70929 0.09903 0.0
H1102 H 0.66269 0.26683 0.60341 0.0
H1103 H 0.82803 0.2265 0.6026 0.0
H1104 H 0.69461 0.17994 0.60285 0.0
H1105 H 0.79613 0.31339 0.60418 0.0
H1106 H 0.77954 0.20934 0.59344 0.0
H1107 H 0.71111 0.28428 0.59444 0.0
C1108 C 0.6798 0.25137 0.60097 0.0
C1109 C 0.67467 0.22189 0.60443 0.0
C1110 C 0.78318 0.2322 0.59538 0.0
C1111 C 0.73025 0.24177 0.59441 0.0
C1112 C 0.8109 0.24204 0.6006 0.0
C1113 C 0.81607 0.2714 0.60471 0.0
C1114 C 0.76041 0.25184 0.59446 0.0
C1115 C 0.7931 0.29053 0.60151 0.0
C1116 C 0.70748 0.26137 0.59587 0.0
C1117 C 0.69762 0.20287 0.60069 0.0
N1118 N 0.7662 0.28038 0.59701 0.0
N1119 N 0.72448 0.21316 0.59632 0.0
H1120 H 0.73466 0.99255 0.91788 0.0
H1121 H 0.6831 0.00736 0.05298 0.0
H1122 H 0.80782 0.0373 0.95109 0.0
H1123 H 0.77072 0.02059 0.07783 0.0
H1124 H 0.69919 -0.0034 0.00541 0.0
H1125 H 0.71985 0.98038 0.96579 0.0
C1126 C 0.74794 -0.00086 0.93534 0.0
C1127 C 0.77233 0.01604 0.93079 0.0
C1128 C 0.71513 0.00066 0.02135 0.0
C1129 C 0.75508 0.00346 0.9855 0.0
C1130 C 0.70584 0.00679 0.04855 0.0
C1131 C 0.72569 0.01461 0.06914 0.0
C1132 C 0.7445 0.00271 0.01484 0.0
C1133 C 0.75486 0.01438 0.06241 0.0
C1134 C 0.73926 0.99267 0.96271 0.0
C1135 C 0.78882 0.02428 0.95391 0.0
N1136 N 0.76335 0.00906 0.03573 0.0
N1137 N 0.77973 0.01819 0.98027 0.0
H1138 H 0.47708 0.81074 0.44468 0.0
H1139 H 0.47999 0.68231 0.5548 0.0
H1140 H 0.47873 0.7215 0.42187 0.0
H1141 H 0.47475 0.77149 0.57732 0.0
H1142 H 0.49138 0.69644 0.50648 0.0
H1143 H 0.48813 0.79733 0.49325 0.0
C1144 C 0.48079 0.78839 0.44983 0.0
C1145 C 0.47725 0.76715 0.42949 0.0
C1146 C 0.48847 0.71297 0.5221 0.0
C1147 C 0.48885 0.75146 0.48488 0.0
C1148 C 0.48222 0.70486 0.54966 0.0
C1149 C 0.47663 0.72583 0.56981 0.0
C1150 C 0.4887 0.74225 0.51474 0.0
C1151 C 0.47916 0.75478 0.56223 0.0
C1152 C 0.48683 0.78067 0.47754 0.0
C1153 C 0.48159 0.73843 0.4371 0.0
N1154 N 0.48462 0.76216 0.53519 0.0
N1155 N 0.48676 0.73136 0.46429 0.0
H1156 H 0.81077 0.47889 0.05015 0.0
H1157 H 0.6799 0.47734 0.94402 0.0
H1158 H 0.72243 0.47918 0.07567 0.0
H1159 H 0.76817 0.47978 0.91835 0.0
H1160 H 0.69469 0.48875 0.99203 0.0
H1161 H 0.79579 0.48998 0.00204 0.0
C1162 C 0.78828 0.48232 0.04569 0.0
C1163 C 0.76775 0.47841 0.06667 0.0
C1164 C 0.71084 0.48756 0.97582 0.0
C1165 C 0.75028 0.49 0.0118 0.0
C1166 C 0.70232 0.4813 0.94843 0.0
C1167 C 0.72289 0.47793 0.92743 0.0
C1168 C 0.74018 0.48988 0.98222 0.0
C1169 C 0.75174 0.48254 0.9341 0.0
C1170 C 0.77966 0.48839 0.01824 0.0
C1171 C 0.73882 0.48236 0.05994 0.0
N1172 N 0.75961 0.48787 0.96102 0.0
N1173 N 0.73088 0.48752 0.03299 0.0
H1174 H 0.0048 0.76449 0.41824 0.0
H1175 H 0.01266 0.72411 0.58083 0.0
H1176 H 0.02343 0.68002 0.45002 0.0
H1177 H 0.01581 0.81054 0.54897 0.0
H1178 H 0.00189 0.70674 0.5335 0.0
H1179 H 0.99413 0.78039 0.46613 0.0
C1180 C 0.00559 0.74909 0.43527 0.0
C1181 C 0.0147 0.72093 0.43042 0.0
C1182 C 0.00419 0.72958 0.53694 0.0
C1183 C 0.00332 0.73893 0.48504 0.0
C1184 C 0.01005 0.73947 0.56394 0.0
C1185 C 0.01481 0.76873 0.56859 0.0
C1186 C 0.00333 0.74915 0.51448 0.0
C1187 C 0.01193 0.78783 0.54609 0.0
C1188 C -0.0002 0.75818 0.46256 0.0
C1189 C 0.01615 0.70184 0.45307 0.0
N1190 N 0.00667 0.77769 0.51988 0.0
N1191 N 0.01082 0.71125 0.47948 0.0
H1192 H 0.18099 0.98171 0.05398 0.0
H1193 H 0.31173 0.9751 0.94796 0.0
H1194 H 0.26924 0.97713 0.07965 0.0
H1195 H 0.22357 0.98097 0.92225 0.0
H1196 H 0.29745 0.98659 0.99608 0.0
H1197 H 0.19652 0.99237 0.00598 0.0
C1198 C 0.20364 0.98401 0.0496 0.0
C1199 C 0.22393 0.97886 0.07059 0.0
C1200 C 0.28125 0.98611 0.97984 0.0
C1201 C 0.24197 0.9899 0.01581 0.0
C1202 C 0.28948 0.9798 0.95239 0.0
C1203 C 0.26876 0.97739 0.93134 0.0
C1204 C 0.25203 0.98949 0.98623 0.0
C1205 C 0.24012 0.98296 0.93803 0.0
C1206 C 0.21255 0.98981 0.0222 0.0
C1207 C 0.25303 0.98132 0.06393 0.0
N1208 N 0.23251 0.98836 0.96499 0.0
N1209 N 0.26122 0.98625 0.03701 0.0
H1210 H 0.51101 0.26939 0.57923 0.0
H1211 H 0.5042 0.22747 0.41727 0.0
H1212 H 0.51454 0.18269 0.54866 0.0
H1213 H 0.52298 0.31217 0.44797 0.0
H1214 H 0.49297 0.21205 0.46528 0.0
H1215 H 0.50026 0.28626 0.53162 0.0
C1216 C 0.50845 0.25386 0.56256 0.0
C1217 C 0.51335 0.22467 0.56765 0.0
C1218 C 0.4988 0.23421 0.46144 0.0
C1219 C 0.50193 0.24369 0.51324 0.0
C1220 C 0.50492 0.24303 0.43407 0.0
C1221 C 0.51424 0.27111 0.4289 0.0
C1222 C 0.50219 0.25366 0.48365 0.0
C1223 C 0.51555 0.2904 0.45127 0.0
C1224 C 0.50261 0.26346 0.53541 0.0
C1225 C 0.51054 0.20535 0.54544 0.0
N1226 N 0.50989 0.28125 0.47776 0.0
N1227 N 0.50533 0.21522 0.51907 0.0
H1228 H 0.31006 0.51473 0.05144 0.0
H1229 H 0.17961 0.51293 0.94438 0.0
H1230 H 0.22155 0.51345 0.07636 0.0
H1231 H 0.26813 0.51492 0.91952 0.0
H1232 H 0.19449 0.50182 0.99253 0.0
H1233 H 0.29552 0.50352 0.00328 0.0
C1234 C 0.28763 0.51108 0.04684 0.0
C1235 C 0.26692 0.51474 0.06766 0.0
C1236 C 0.21069 0.50394 0.97645 0.0
C1237 C 0.24994 0.50296 0.01274 0.0
C1238 C 0.20214 0.51002 0.94899 0.0
C1239 C 0.22274 0.51459 0.9282 0.0
C1240 C 0.24006 0.50292 0.9831 0.0
C1241 C 0.2517 0.51125 0.93511 0.0
C1242 C 0.27926 0.50494 0.01937 0.0
C1243 C 0.23808 0.51048 0.06076 0.0
N1244 N 0.25955 0.50602 0.96207 0.0
N1245 N 0.23037 0.50522 0.03378 0.0
H1246 H 0.98062 0.26926 0.41607 0.0
H1247 H 0.98672 0.22707 0.57832 0.0
H1248 H 0.97594 0.18258 0.44709 0.0
H1249 H 0.96836 0.31187 0.54722 0.0
H1250 H -0.00221 0.21167 0.53036 0.0
H1251 H 0.99128 0.28599 0.46366 0.0
C1252 C 0.98293 0.25369 0.43283 0.0
C1253 C 0.97774 0.22456 0.42786 0.0
C1254 C 0.99208 0.23384 0.5341 0.0
C1255 C 0.98904 0.24342 0.48225 0.0
C1256 C 0.98605 0.24265 0.56143 0.0
C1257 C 0.9769 0.27075 0.56649 0.0
C1258 C 0.98879 0.25334 0.51179 0.0
C1259 C 0.97565 0.29008 0.54402 0.0
C1260 C 0.9887 0.26322 0.45998 0.0
C1261 C 0.98018 0.20519 0.45021 0.0
N1262 N 0.98124 0.28095 0.51756 0.0
N1263 N 0.98536 0.21499 0.47655 0.0
loop_
_geom_bond_atom_site_label_1
_geom_bond_atom_site_label_2
_geom_bond_distance
_geom_bond_site_symmetry_2
_ccdc_geom_bond_type
Co0 O3 1.970 . S
Co0 N17 1.989 . S
Co0 O25 1.967 . S
Co0 O32 1.920 . S
Co1 O4 1.966 . S
Co1 N10 2.022 . S
Co1 N18 1.993 . S
Co1 O26 1.941 . S
C2 O3 1.258 . S
C2 O4 1.263 . S
O3 Co0 1.970 . S
O3 C2 1.258 . S
O4 Co1 1.966 . S
O4 C2 1.263 . S
C5 O6 1.235 . S
C5 O32 1.289 . S
O6 C5 1.235 . S
C7 C9 1.400 . S
C7 N10 1.351 1_565 S
C7 C12 1.501 1_565 S
C8 C9 1.387 . S
C8 N11 1.341 . S
C9 C7 1.400 . S
C9 C8 1.387 . S
N10 Co1 2.022 . S
N10 C7 1.351 1_545 S
N10 N11 1.365 1_545 S
N11 C8 1.341 . S
N11 N10 1.365 1_565 S
N11 H31 0.862 . S
C12 C7 1.501 1_545 S
C12 H13 0.961 . S
C12 H14 0.961 . S
C12 H15 0.960 . S
H13 C12 0.961 . S
H14 C12 0.961 . S
H15 C12 0.960 . S
C16 N17 1.342 . S
C16 C20 1.401 . S
C16 C21 1.499 . S
N17 Co0 1.989 . S
N17 C16 1.342 . S
N17 N18 1.388 . S
N18 Co1 1.993 . S
N18 N17 1.388 . S
N18 C19 1.346 . S
C19 N18 1.346 . S
C19 C20 1.396 . S
C19 C29 1.510 . S
C20 C16 1.401 . S
C20 C19 1.396 . S
C21 C16 1.499 . S
C21 H22 0.959 . S
C21 H23 0.960 . S
C21 H24 0.961 . S
H22 C21 0.959 . S
H23 C21 0.960 . S
H24 C21 0.961 . S
O25 Co0 1.967 . S
O25 C33 1.258 . S
O26 Co1 1.941 . S
O26 C33 1.266 . S
H27 C29 0.959 1_565 S
H28 C29 0.961 . S
C29 C19 1.510 . S
C29 H27 0.959 1_545 S
C29 H28 0.961 . S
C29 H30 0.960 1_545 S
H30 C29 0.960 1_565 S
H31 N11 0.862 . S
O32 Co0 1.920 . S
O32 C5 1.289 . S
C33 O25 1.258 . S
C33 O26 1.266 . S
Co34 O37 1.970 . S
Co34 N51 1.989 . S
Co34 O59 1.967 . S
Co34 O66 1.920 . S
Co35 O38 1.966 . S
Co35 N44 2.022 . S
Co35 N52 1.993 . S
Co35 O60 1.941 . S
C36 O37 1.258 . S
C36 O38 1.263 . S
O37 Co34 1.970 . S
O37 C36 1.258 . S
O38 Co35 1.966 . S
O38 C36 1.263 . S
C39 O40 1.235 . S
C39 O66 1.289 . S
O40 C39 1.235 . S
C41 C43 1.400 . S
C41 N44 1.351 . S
C41 C46 1.501 . S
C42 C43 1.387 . S
C42 N45 1.341 . S
C43 C41 1.400 . S
C43 C42 1.387 . S
N44 Co35 2.022 . S
N44 C41 1.351 . S
N44 N45 1.365 . S
N45 C42 1.341 . S
N45 N44 1.365 . S
N45 H65 0.862 . S
C46 C41 1.501 . S
C46 H47 0.961 . S
C46 H48 0.961 . S
C46 H49 0.960 . S
H47 C46 0.961 . S
H48 C46 0.961 . S
H49 C46 0.960 . S
C50 N51 1.342 . S
C50 C54 1.401 . S
C50 C55 1.499 . S
N51 Co34 1.989 . S
N51 C50 1.342 . S
N51 N52 1.388 . S
N52 Co35 1.993 . S
N52 N51 1.388 . S
N52 C53 1.346 . S
C53 N52 1.346 . S
C53 C54 1.396 . S
C53 C63 1.510 . S
C54 C50 1.401 . S
C54 C53 1.396 . S
C55 C50 1.499 . S
C55 H56 0.959 . S
C55 H57 0.960 . S
C55 H58 0.961 . S
H56 C55 0.959 . S
H57 C55 0.960 . S
H58 C55 0.961 . S
O59 Co34 1.967 . S
O59 C67 1.258 . S
O60 Co35 1.941 . S
O60 C67 1.266 . S
H61 C63 0.959 . S
H62 C63 0.961 . S
C63 C53 1.510 . S
C63 H61 0.959 . S
C63 H62 0.961 . S
C63 H64 0.960 . S
H64 C63 0.960 . S
H65 N45 0.862 . S
O66 Co34 1.920 . S
O66 C39 1.289 . S
C67 O59 1.258 . S
C67 O60 1.266 . S
Co68 O71 1.970 . S
Co68 N85 1.989 . S
Co68 O93 1.967 . S
Co68 O100 1.920 . S
Co69 O72 1.966 . S
Co69 N78 2.022 . S
Co69 N86 1.993 . S
Co69 O94 1.941 . S
C70 O71 1.258 . S
C70 O72 1.263 . S
O71 Co68 1.970 . S
O71 C70 1.258 . S
O72 Co69 1.966 . S
O72 C70 1.263 . S
C73 O74 1.235 . S
C73 O100 1.289 . S
O74 C73 1.235 . S
C75 C77 1.400 . S
C75 N78 1.351 . S
C75 C80 1.501 . S
C76 C77 1.387 . S
C76 N79 1.341 . S
C77 C75 1.400 . S
C77 C76 1.387 . S
N78 Co69 2.022 . S
N78 C75 1.351 . S
N78 N79 1.365 . S
N79 C76 1.341 . S
N79 N78 1.365 . S
N79 H99 0.862 . S
C80 C75 1.501 . S
C80 H81 0.961 . S
C80 H82 0.961 . S
C80 H83 0.960 . S
H81 C80 0.961 . S
H82 C80 0.961 . S
H83 C80 0.960 . S
C84 N85 1.342 . S
C84 C88 1.401 . S
C84 C89 1.499 . S
N85 Co68 1.989 . S
N85 C84 1.342 . S
N85 N86 1.388 . S
N86 Co69 1.993 . S
N86 N85 1.388 . S
N86 C87 1.346 . S
C87 N86 1.346 . S
C87 C88 1.396 . S
C87 C97 1.510 . S
C88 C84 1.401 . S
C88 C87 1.396 . S
C89 C84 1.499 . S
C89 H90 0.959 . S
C89 H91 0.960 . S
C89 H92 0.961 . S
H90 C89 0.959 . S
H91 C89 0.960 . S
H92 C89 0.961 . S
O93 Co68 1.967 . S
O93 C101 1.258 . S
O94 Co69 1.941 . S
O94 C101 1.266 . S
H95 C97 0.959 . S
H96 C97 0.961 . S
C97 C87 1.510 . S
C97 H95 0.959 . S
C97 H96 0.961 . S
C97 H98 0.960 . S
H98 C97 0.960 . S
H99 N79 0.862 . S
O100 Co68 1.920 . S
O100 C73 1.289 . S
C101 O93 1.258 . S
C101 O94 1.266 . S
Co102 O105 1.970 . S
Co102 N119 1.989 . S
Co102 O127 1.967 . S
Co102 O134 1.920 . S
Co103 O106 1.966 . S
Co103 N112 2.022 . S
Co103 N120 1.993 . S
Co103 O128 1.941 . S
C104 O105 1.258 . S
C104 O106 1.263 . S
O105 Co102 1.970 . S
O105 C104 1.258 . S
O106 Co103 1.966 . S
O106 C104 1.263 . S
C107 O108 1.235 . S
C107 O134 1.289 . S
O108 C107 1.235 . S
C109 C111 1.400 . S
C109 N112 1.351 1_655 S
C109 C114 1.501 1_655 S
C110 C111 1.387 . S
C110 N113 1.341 . S
C111 C109 1.400 . S
C111 C110 1.387 . S
N112 Co103 2.022 . S
N112 C109 1.351 1_455 S
N112 N113 1.365 1_455 S
N113 C110 1.341 . S
N113 N112 1.365 1_655 S
N113 H133 0.862 . S
C114 C109 1.501 1_455 S
C114 H115 0.961 . S
C114 H116 0.961 . S
C114 H117 0.960 . S
H115 C114 0.961 . S
H116 C114 0.961 . S
H117 C114 0.960 . S
C118 N119 1.342 . S
C118 C122 1.401 . S
C118 C123 1.499 . S
N119 Co102 1.989 . S
N119 C118 1.342 . S
N119 N120 1.388 . S
N120 Co103 1.993 . S
N120 N119 1.388 . S
N120 C121 1.346 . S
C121 N120 1.346 . S
C121 C122 1.396 . S
C121 C131 1.510 . S
C122 C118 1.401 . S
C122 C121 1.396 . S
C123 C118 1.499 . S
C123 H124 0.959 . S
C123 H125 0.960 . S
C123 H126 0.961 . S
H124 C123 0.959 . S
H125 C123 0.960 . S
H126 C123 0.961 . S
O127 Co102 1.967 . S
O127 C135 1.258 . S
O128 Co103 1.941 . S
O128 C135 1.266 . S
H129 C131 0.959 1_655 S
H130 C131 0.961 . S
C131 C121 1.510 . S
C131 H129 0.959 1_455 S
C131 H130 0.961 . S
C131 H132 0.960 1_455 S
H132 C131 0.960 1_655 S
H133 N113 0.862 . S
O134 Co102 1.920 . S
O134 C107 1.289 . S
C135 O127 1.258 . S
C135 O128 1.266 . S
Co136 O139 1.970 . S
Co136 N153 1.989 . S
Co136 O161 1.967 . S
Co136 O168 1.920 . S
Co137 O140 1.966 . S
Co137 N146 2.022 . S
Co137 N154 1.993 . S
Co137 O162 1.941 . S
C138 O139 1.258 . S
C138 O140 1.263 . S
O139 Co136 1.970 . S
O139 C138 1.258 . S
O140 Co137 1.966 . S
O140 C138 1.263 . S
C141 O142 1.235 . S
C141 O168 1.289 . S
O142 C141 1.235 . S
C143 C145 1.400 . S
C143 N146 1.351 . S
C143 C148 1.501 . S
C144 C145 1.387 . S
C144 N147 1.341 . S
C145 C143 1.400 . S
C145 C144 1.387 . S
N146 Co137 2.022 . S
N146 C143 1.351 . S
N146 N147 1.365 . S
N147 C144 1.341 . S
N147 N146 1.365 . S
N147 H167 0.862 . S
C148 C143 1.501 . S
C148 H149 0.961 . S
C148 H150 0.961 . S
C148 H151 0.960 . S
H149 C148 0.961 . S
H150 C148 0.961 . S
H151 C148 0.960 . S
C152 N153 1.342 . S
C152 C156 1.401 . S
C152 C157 1.499 . S
N153 Co136 1.989 . S
N153 C152 1.342 . S
N153 N154 1.388 . S
N154 Co137 1.993 . S
N154 N153 1.388 . S
N154 C155 1.346 . S
C155 N154 1.346 . S
C155 C156 1.396 . S
C155 C165 1.510 . S
C156 C152 1.401 . S
C156 C155 1.396 . S
C157 C152 1.499 . S
C157 H158 0.959 . S
C157 H159 0.960 . S
C157 H160 0.961 . S
H158 C157 0.959 . S
H159 C157 0.960 . S
H160 C157 0.961 . S
O161 Co136 1.967 . S
O161 C169 1.258 . S
O162 Co137 1.941 . S
O162 C169 1.266 . S
H163 C165 0.959 . S
H164 C165 0.961 . S
C165 C155 1.510 . S
C165 H163 0.959 . S
C165 H164 0.961 . S
C165 H166 0.960 . S
H166 C165 0.960 . S
H167 N147 0.862 . S
O168 Co136 1.920 . S
O168 C141 1.289 . S
C169 O161 1.258 . S
C169 O162 1.266 . S
Co170 O173 1.970 . S
Co170 N187 1.989 . S
Co170 O195 1.967 . S
Co170 O202 1.920 . S
Co171 O174 1.966 . S
Co171 N180 2.022 . S
Co171 N188 1.993 . S
Co171 O196 1.941 . S
C172 O173 1.258 . S
C172 O174 1.263 . S
O173 Co170 1.970 . S
O173 C172 1.258 . S
O174 Co171 1.966 . S
O174 C172 1.263 . S
C175 O176 1.235 . S
C175 O202 1.289 . S
O176 C175 1.235 . S
C177 C179 1.400 . S
C177 N180 1.351 1_655 S
C177 C182 1.501 1_655 S
C178 C179 1.387 . S
C178 N181 1.341 . S
C179 C177 1.400 . S
C179 C178 1.387 . S
N180 Co171 2.022 . S
N180 C177 1.351 1_455 S
N180 N181 1.365 1_455 S
N181 C178 1.341 . S
N181 N180 1.365 1_655 S
N181 H201 0.862 . S
C182 C177 1.501 1_455 S
C182 H183 0.961 . S
C182 H184 0.961 . S
C182 H185 0.960 . S
H183 C182 0.961 . S
H184 C182 0.961 . S
H185 C182 0.960 . S
C186 N187 1.342 . S
C186 C190 1.401 . S
C186 C191 1.499 . S
N187 Co170 1.989 . S
N187 C186 1.342 . S
N187 N188 1.388 . S
N188 Co171 1.993 . S
N188 N187 1.388 . S
N188 C189 1.346 . S
C189 N188 1.346 . S
C189 C190 1.396 . S
C189 C199 1.510 . S
C190 C186 1.401 . S
C190 C189 1.396 . S
C191 C186 1.499 . S
C191 H192 0.959 . S
C191 H193 0.960 . S
C191 H194 0.961 . S
H192 C191 0.959 . S
H193 C191 0.960 . S
H194 C191 0.961 . S
O195 Co170 1.967 . S
O195 C203 1.258 . S
O196 Co171 1.941 . S
O196 C203 1.266 . S
H197 C199 0.959 1_655 S
H198 C199 0.961 . S
C199 C189 1.510 . S
C199 H197 0.959 1_455 S
C199 H198 0.961 . S
C199 H200 0.960 1_455 S
H200 C199 0.960 1_655 S
H201 N181 0.862 . S
O202 Co170 1.920 . S
O202 C175 1.289 . S
C203 O195 1.258 . S
C203 O196 1.266 . S
Co204 O207 1.970 . S
Co204 N221 1.989 . S
Co204 O229 1.967 . S
Co204 O236 1.920 . S
Co205 O208 1.966 . S
Co205 N214 2.022 . S
Co205 N222 1.993 . S
Co205 O230 1.941 . S
C206 O207 1.258 . S
C206 O208 1.263 . S
O207 Co204 1.970 . S
O207 C206 1.258 . S
O208 Co205 1.966 . S
O208 C206 1.263 . S
C209 O210 1.235 . S
C209 O236 1.289 . S
O210 C209 1.235 . S
C211 C213 1.400 . S
C211 N214 1.351 1_565 S
C211 C216 1.501 1_565 S
C212 C213 1.387 . S
C212 N215 1.341 . S
C213 C211 1.400 . S
C213 C212 1.387 . S
N214 Co205 2.022 . S
N214 C211 1.351 1_545 S
N214 N215 1.365 1_545 S
N215 C212 1.341 . S
N215 N214 1.365 1_565 S
N215 H235 0.862 . S
C216 C211 1.501 1_545 S
C216 H217 0.961 . S
C216 H218 0.961 . S
C216 H219 0.960 . S
H217 C216 0.961 . S
H218 C216 0.961 . S
H219 C216 0.960 . S
C220 N221 1.342 . S
C220 C224 1.401 . S
C220 C225 1.499 . S
N221 Co204 1.989 . S
N221 C220 1.342 . S
N221 N222 1.388 . S
N222 Co205 1.993 . S
N222 N221 1.388 . S
N222 C223 1.346 . S
C223 N222 1.346 . S
C223 C224 1.396 . S
C223 C233 1.510 . S
C224 C220 1.401 . S
C224 C223 1.396 . S
C225 C220 1.499 . S
C225 H226 0.959 . S
C225 H227 0.960 . S
C225 H228 0.961 . S
H226 C225 0.959 . S
H227 C225 0.960 . S
H228 C225 0.961 . S
O229 Co204 1.967 . S
O229 C237 1.258 . S
O230 Co205 1.941 . S
O230 C237 1.266 . S
H231 C233 0.959 1_565 S
H232 C233 0.961 . S
C233 C223 1.510 . S
C233 H231 0.959 1_545 S
C233 H232 0.961 . S
C233 H234 0.960 1_545 S
H234 C233 0.960 1_565 S
H235 N215 0.862 . S
O236 Co204 1.920 . S
O236 C209 1.289 . S
C237 O229 1.258 . S
C237 O230 1.266 . S
Co238 O241 1.970 . S
Co238 N255 1.989 . S
Co238 O263 1.967 . S
Co238 O270 1.920 . S
Co239 O242 1.966 . S
Co239 N248 2.022 . S
Co239 N256 1.993 . S
Co239 O264 1.941 . S
C240 O241 1.258 . S
C240 O242 1.263 . S
O241 Co238 1.970 . S
O241 C240 1.258 . S
O242 Co239 1.966 . S
O242 C240 1.263 . S
C243 O244 1.235 . S
C243 O270 1.289 . S
O244 C243 1.235 . S
C245 C247 1.400 . S
C245 N248 1.351 . S
C245 C250 1.501 . S
C246 C247 1.387 . S
C246 N249 1.341 . S
C247 C245 1.400 . S
C247 C246 1.387 . S
N248 Co239 2.022 . S
N248 C245 1.351 . S
N248 N249 1.365 . S
N249 C246 1.341 . S
N249 N248 1.365 . S
N249 H269 0.862 . S
C250 C245 1.501 . S
C250 H251 0.961 . S
C250 H252 0.961 . S
C250 H253 0.960 . S
H251 C250 0.961 . S
H252 C250 0.961 . S
H253 C250 0.960 . S
C254 N255 1.342 . S
C254 C258 1.401 . S
C254 C259 1.499 . S
N255 Co238 1.989 . S
N255 C254 1.342 . S
N255 N256 1.388 . S
N256 Co239 1.993 . S
N256 N255 1.388 . S
N256 C257 1.346 . S
C257 N256 1.346 . S
C257 C258 1.396 . S
C257 C267 1.510 . S
C258 C254 1.401 . S
C258 C257 1.396 . S
C259 C254 1.499 . S
C259 H260 0.959 . S
C259 H261 0.960 . S
C259 H262 0.961 . S
H260 C259 0.959 . S
H261 C259 0.960 . S
H262 C259 0.961 . S
O263 Co238 1.967 . S
O263 C271 1.258 . S
O264 Co239 1.941 . S
O264 C271 1.266 . S
H265 C267 0.959 . S
H266 C267 0.961 . S
C267 C257 1.510 . S
C267 H265 0.959 . S
C267 H266 0.961 . S
C267 H268 0.960 . S
H268 C267 0.960 . S
H269 N249 0.862 . S
O270 Co238 1.920 . S
O270 C243 1.289 . S
C271 O263 1.258 . S
C271 O264 1.266 . S
Co272 O275 1.970 . S
Co272 N289 1.989 . S
Co272 O297 1.967 . S
Co272 O304 1.920 . S
Co273 O276 1.966 . S
Co273 N282 2.022 . S
Co273 N290 1.993 . S
Co273 O298 1.941 . S
C274 O275 1.258 . S
C274 O276 1.263 . S
O275 Co272 1.970 . S
O275 C274 1.258 . S
O276 Co273 1.966 . S
O276 C274 1.263 . S
C277 O278 1.235 . S
C277 O304 1.289 . S
O278 C277 1.235 . S
C279 C281 1.400 . S
C279 N282 1.351 1_545 S
C279 C284 1.501 1_545 S
C280 C281 1.387 . S
C280 N283 1.341 . S
C281 C279 1.400 . S
C281 C280 1.387 . S
N282 Co273 2.022 . S
N282 C279 1.351 1_565 S
N282 N283 1.365 1_565 S
N283 C280 1.341 . S
N283 N282 1.365 1_545 S
N283 H303 0.862 . S
C284 C279 1.501 1_565 S
C284 H285 0.961 . S
C284 H286 0.961 . S
C284 H287 0.960 . S
H285 C284 0.961 . S
H286 C284 0.961 . S
H287 C284 0.960 . S
C288 N289 1.342 . S
C288 C292 1.401 . S
C288 C293 1.499 . S
N289 Co272 1.989 . S
N289 C288 1.342 . S
N289 N290 1.388 . S
N290 Co273 1.993 . S
N290 N289 1.388 . S
N290 C291 1.346 . S
C291 N290 1.346 . S
C291 C292 1.396 . S
C291 C301 1.510 . S
C292 C288 1.401 . S
C292 C291 1.396 . S
C293 C288 1.499 . S
C293 H294 0.959 . S
C293 H295 0.960 . S
C293 H296 0.961 . S
H294 C293 0.959 . S
H295 C293 0.960 . S
H296 C293 0.961 . S
O297 Co272 1.967 . S
O297 C305 1.258 . S
O298 Co273 1.941 . S
O298 C305 1.266 . S
H299 C301 0.959 1_545 S
H300 C301 0.961 . S
C301 C291 1.510 . S
C301 H299 0.959 1_565 S
C301 H300 0.961 . S
C301 H302 0.960 1_565 S
H302 C301 0.960 1_545 S
H303 N283 0.862 . S
O304 Co272 1.920 . S
O304 C277 1.289 . S
C305 O297 1.258 . S
C305 O298 1.266 . S
Co306 O309 1.970 . S
Co306 N323 1.989 . S
Co306 O331 1.967 . S
Co306 O338 1.920 . S
Co307 O310 1.966 . S
Co307 N316 2.022 . S
Co307 N324 1.993 . S
Co307 O332 1.941 . S
C308 O309 1.258 . S
C308 O310 1.263 . S
O309 Co306 1.970 . S
O309 C308 1.258 . S
O310 Co307 1.966 . S
O310 C308 1.263 . S
C311 O312 1.235 . S
C311 O338 1.289 . S
O312 C311 1.235 . S
C313 C315 1.400 . S
C313 N316 1.351 . S
C313 C318 1.501 . S
C314 C315 1.387 . S
C314 N317 1.341 . S
C315 C313 1.400 . S
C315 C314 1.387 . S
N316 Co307 2.022 . S
N316 C313 1.351 . S
N316 N317 1.365 . S
N317 C314 1.341 . S
N317 N316 1.365 . S
N317 H337 0.862 . S
C318 C313 1.501 . S
C318 H319 0.961 . S
C318 H320 0.961 . S
C318 H321 0.960 . S
H319 C318 0.961 . S
H320 C318 0.961 . S
H321 C318 0.960 . S
C322 N323 1.342 . S
C322 C326 1.401 . S
C322 C327 1.499 . S
N323 Co306 1.989 . S
N323 C322 1.342 . S
N323 N324 1.388 . S
N324 Co307 1.993 . S
N324 N323 1.388 . S
N324 C325 1.346 . S
C325 N324 1.346 . S
C325 C326 1.396 . S
C325 C335 1.510 . S
C326 C322 1.401 . S
C326 C325 1.396 . S
C327 C322 1.499 . S
C327 H328 0.959 . S
C327 H329 0.960 . S
C327 H330 0.961 . S
H328 C327 0.959 . S
H329 C327 0.960 . S
H330 C327 0.961 . S
O331 Co306 1.967 . S
O331 C339 1.258 . S
O332 Co307 1.941 . S
O332 C339 1.266 . S
H333 C335 0.959 . S
H334 C335 0.961 . S
C335 C325 1.510 . S
C335 H333 0.959 . S
C335 H334 0.961 . S
C335 H336 0.960 . S
H336 C335 0.960 . S
H337 N317 0.862 . S
O338 Co306 1.920 . S
O338 C311 1.289 . S
C339 O331 1.258 . S
C339 O332 1.266 . S
Co340 O343 1.970 . S
Co340 N357 1.989 . S
Co340 O365 1.967 . S
Co340 O372 1.920 . S
Co341 O344 1.966 . S
Co341 N350 2.022 . S
Co341 N358 1.993 . S
Co341 O366 1.941 . S
C342 O343 1.258 . S
C342 O344 1.263 . S
O343 Co340 1.970 . S
O343 C342 1.258 . S
O344 Co341 1.966 . S
O344 C342 1.263 . S
C345 O346 1.235 . S
C345 O372 1.289 . S
O346 C345 1.235 . S
C347 C349 1.400 . S
C347 N350 1.351 . S
C347 C352 1.501 . S
C348 C349 1.387 . S
C348 N351 1.341 . S
C349 C347 1.400 . S
C349 C348 1.387 . S
N350 Co341 2.022 . S
N350 C347 1.351 . S
N350 N351 1.365 . S
N351 C348 1.341 . S
N351 N350 1.365 . S
N351 H371 0.862 . S
C352 C347 1.501 . S
C352 H353 0.961 . S
C352 H354 0.961 . S
C352 H355 0.960 . S
H353 C352 0.961 . S
H354 C352 0.961 . S
H355 C352 0.960 . S
C356 N357 1.342 . S
C356 C360 1.401 . S
C356 C361 1.499 . S
N357 Co340 1.989 . S
N357 C356 1.342 . S
N357 N358 1.388 . S
N358 Co341 1.993 . S
N358 N357 1.388 . S
N358 C359 1.346 . S
C359 N358 1.346 . S
C359 C360 1.396 . S
C359 C369 1.510 . S
C360 C356 1.401 . S
C360 C359 1.396 . S
C361 C356 1.499 . S
C361 H362 0.959 . S
C361 H363 0.960 . S
C361 H364 0.961 . S
H362 C361 0.959 . S
H363 C361 0.960 . S
H364 C361 0.961 . S
O365 Co340 1.967 . S
O365 C373 1.258 . S
O366 Co341 1.941 . S
O366 C373 1.266 . S
H367 C369 0.959 . S
H368 C369 0.961 . S
C369 C359 1.510 . S
C369 H367 0.959 . S
C369 H368 0.961 . S
C369 H370 0.960 . S
H370 C369 0.960 . S
H371 N351 0.862 . S
O372 Co340 1.920 . S
O372 C345 1.289 . S
C373 O365 1.258 . S
C373 O366 1.266 . S
Co374 O377 1.970 . S
Co374 N391 1.989 . S
Co374 O399 1.967 . S
Co374 O406 1.920 . S
Co375 O378 1.966 . S
Co375 N384 2.022 . S
Co375 N392 1.993 . S
Co375 O400 1.941 . S
C376 O377 1.258 . S
C376 O378 1.263 . S
O377 Co374 1.970 . S
O377 C376 1.258 . S
O378 Co375 1.966 . S
O378 C376 1.263 . S
C379 O380 1.235 . S
C379 O406 1.289 . S
O380 C379 1.235 . S
C381 C383 1.400 . S
C381 N384 1.351 1_455 S
C381 C386 1.501 1_455 S
C382 C383 1.387 . S
C382 N385 1.341 . S
C383 C381 1.400 . S
C383 C382 1.387 . S
N384 Co375 2.022 . S
N384 C381 1.351 1_655 S
N384 N385 1.365 1_655 S
N385 C382 1.341 . S
N385 N384 1.365 1_455 S
N385 H405 0.862 . S
C386 C381 1.501 1_655 S
C386 H387 0.961 . S
C386 H388 0.961 . S
C386 H389 0.960 . S
H387 C386 0.961 . S
H388 C386 0.961 . S
H389 C386 0.960 . S
C390 N391 1.342 . S
C390 C394 1.401 . S
C390 C395 1.499 . S
N391 Co374 1.989 . S
N391 C390 1.342 . S
N391 N392 1.388 . S
N392 Co375 1.993 . S
N392 N391 1.388 . S
N392 C393 1.346 . S
C393 N392 1.346 . S
C393 C394 1.396 . S
C393 C403 1.510 . S
C394 C390 1.401 . S
C394 C393 1.396 . S
C395 C390 1.499 . S
C395 H396 0.959 . S
C395 H397 0.960 . S
C395 H398 0.961 . S
H396 C395 0.959 . S
H397 C395 0.960 . S
H398 C395 0.961 . S
O399 Co374 1.967 . S
O399 C407 1.258 . S
O400 Co375 1.941 . S
O400 C407 1.266 . S
H401 C403 0.959 1_455 S
H402 C403 0.961 . S
C403 C393 1.510 . S
C403 H401 0.959 1_655 S
C403 H402 0.961 . S
C403 H404 0.960 1_655 S
H404 C403 0.960 1_455 S
H405 N385 0.862 . S
O406 Co374 1.920 . S
O406 C379 1.289 . S
C407 O399 1.258 . S
C407 O400 1.266 . S
Co408 O411 1.970 . S
Co408 N425 1.989 . S
Co408 O433 1.967 . S
Co408 O440 1.920 . S
Co409 O412 1.966 . S
Co409 N418 2.022 . S
Co409 N426 1.993 . S
Co409 O434 1.941 . S
C410 O411 1.258 . S
C410 O412 1.263 . S
O411 Co408 1.970 . S
O411 C410 1.258 . S
O412 Co409 1.966 . S
O412 C410 1.263 . S
C413 O414 1.235 . S
C413 O440 1.289 . S
O414 C413 1.235 . S
C415 C417 1.400 . S
C415 N418 1.351 . S
C415 C420 1.501 . S
C416 C417 1.387 . S
C416 N419 1.341 . S
C417 C415 1.400 . S
C417 C416 1.387 . S
N418 Co409 2.022 . S
N418 C415 1.351 . S
N418 N419 1.365 . S
N419 C416 1.341 . S
N419 N418 1.365 . S
N419 H439 0.862 . S
C420 C415 1.501 . S
C420 H421 0.961 . S
C420 H422 0.961 . S
C420 H423 0.960 . S
H421 C420 0.961 . S
H422 C420 0.961 . S
H423 C420 0.960 . S
C424 N425 1.342 . S
C424 C428 1.401 . S
C424 C429 1.499 . S
N425 Co408 1.989 . S
N425 C424 1.342 . S
N425 N426 1.388 . S
N426 Co409 1.993 . S
N426 N425 1.388 . S
N426 C427 1.346 . S
C427 N426 1.346 . S
C427 C428 1.396 . S
C427 C437 1.510 . S
C428 C424 1.401 . S
C428 C427 1.396 . S
C429 C424 1.499 . S
C429 H430 0.959 . S
C429 H431 0.960 . S
C429 H432 0.961 . S
H430 C429 0.959 . S
H431 C429 0.960 . S
H432 C429 0.961 . S
O433 Co408 1.967 . S
O433 C441 1.258 . S
O434 Co409 1.941 . S
O434 C441 1.266 . S
H435 C437 0.959 . S
H436 C437 0.961 . S
C437 C427 1.510 . S
C437 H435 0.959 . S
C437 H436 0.961 . S
C437 H438 0.960 . S
H438 C437 0.960 . S
H439 N419 0.862 . S
O440 Co408 1.920 . S
O440 C413 1.289 . S
C441 O433 1.258 . S
C441 O434 1.266 . S
Co442 O445 1.970 . S
Co442 N459 1.989 . S
Co442 O467 1.967 . S
Co442 O474 1.920 . S
Co443 O446 1.966 . S
Co443 N452 2.022 . S
Co443 N460 1.993 . S
Co443 O468 1.941 . S
C444 O445 1.258 . S
C444 O446 1.263 . S
O445 Co442 1.970 . S
O445 C444 1.258 . S
O446 Co443 1.966 . S
O446 C444 1.263 . S
C447 O448 1.235 . S
C447 O474 1.289 . S
O448 C447 1.235 . S
C449 C451 1.400 . S
C449 N452 1.351 1_455 S
C449 C454 1.501 1_455 S
C450 C451 1.387 . S
C450 N453 1.341 . S
C451 C449 1.400 . S
C451 C450 1.387 . S
N452 Co443 2.022 . S
N452 C449 1.351 1_655 S
N452 N453 1.365 1_655 S
N453 C450 1.341 . S
N453 N452 1.365 1_455 S
N453 H473 0.862 . S
C454 C449 1.501 1_655 S
C454 H455 0.961 . S
C454 H456 0.961 . S
C454 H457 0.960 . S
H455 C454 0.961 . S
H456 C454 0.961 . S
H457 C454 0.960 . S
C458 N459 1.342 . S
C458 C462 1.401 . S
C458 C463 1.499 . S
N459 Co442 1.989 . S
N459 C458 1.342 . S
N459 N460 1.388 . S
N460 Co443 1.993 . S
N460 N459 1.388 . S
N460 C461 1.346 . S
C461 N460 1.346 . S
C461 C462 1.396 . S
C461 C471 1.510 . S
C462 C458 1.401 . S
C462 C461 1.396 . S
C463 C458 1.499 . S
C463 H464 0.959 . S
C463 H465 0.960 . S
C463 H466 0.961 . S
H464 C463 0.959 . S
H465 C463 0.960 . S
H466 C463 0.961 . S
O467 Co442 1.967 . S
O467 C475 1.258 . S
O468 Co443 1.941 . S
O468 C475 1.266 . S
H469 C471 0.959 1_455 S
H470 C471 0.961 . S
C471 C461 1.510 . S
C471 H469 0.959 1_655 S
C471 H470 0.961 . S
C471 H472 0.960 1_655 S
H472 C471 0.960 1_455 S
H473 N453 0.862 . S
O474 Co442 1.920 . S
O474 C447 1.289 . S
C475 O467 1.258 . S
C475 O468 1.266 . S
Co476 O479 1.970 . S
Co476 N493 1.989 . S
Co476 O501 1.967 . S
Co476 O508 1.920 . S
Co477 O480 1.966 . S
Co477 N486 2.022 . S
Co477 N494 1.993 . S
Co477 O502 1.941 . S
C478 O479 1.258 . S
C478 O480 1.263 . S
O479 Co476 1.970 . S
O479 C478 1.258 . S
O480 Co477 1.966 . S
O480 C478 1.263 . S
C481 O482 1.235 . S
C481 O508 1.289 . S
O482 C481 1.235 . S
C483 C485 1.400 . S
C483 N486 1.351 1_545 S
C483 C488 1.501 1_545 S
C484 C485 1.387 . S
C484 N487 1.341 . S
C485 C483 1.400 . S
C485 C484 1.387 . S
N486 Co477 2.022 . S
N486 C483 1.351 1_565 S
N486 N487 1.365 1_565 S
N487 C484 1.341 . S
N487 N486 1.365 1_545 S
N487 H507 0.862 . S
C488 C483 1.501 1_565 S
C488 H489 0.961 . S
C488 H490 0.961 . S
C488 H491 0.960 . S
H489 C488 0.961 . S
H490 C488 0.961 . S
H491 C488 0.960 . S
C492 N493 1.342 . S
C492 C496 1.401 . S
C492 C497 1.499 . S
N493 Co476 1.989 . S
N493 C492 1.342 . S
N493 N494 1.388 . S
N494 Co477 1.993 . S
N494 N493 1.388 . S
N494 C495 1.346 . S
C495 N494 1.346 . S
C495 C496 1.396 . S
C495 C505 1.510 . S
C496 C492 1.401 . S
C496 C495 1.396 . S
C497 C492 1.499 . S
C497 H498 0.959 . S
C497 H499 0.960 . S
C497 H500 0.961 . S
H498 C497 0.959 . S
H499 C497 0.960 . S
H500 C497 0.961 . S
O501 Co476 1.967 . S
O501 C509 1.258 . S
O502 Co477 1.941 . S
O502 C509 1.266 . S
H503 C505 0.959 1_545 S
H504 C505 0.961 . S
C505 C495 1.510 . S
C505 H503 0.959 1_565 S
C505 H504 0.961 . S
C505 H506 0.960 1_565 S
H506 C505 0.960 1_545 S
H507 N487 0.862 . S
O508 Co476 1.920 . S
O508 C481 1.289 . S
C509 O501 1.258 . S
C509 O502 1.266 . S
Co510 O513 1.970 . S
Co510 N527 1.989 . S
Co510 O535 1.967 . S
Co510 O542 1.920 . S
Co511 O514 1.966 . S
Co511 N520 2.022 . S
Co511 N528 1.993 . S
Co511 O536 1.941 . S
C512 O513 1.258 . S
C512 O514 1.263 . S
O513 Co510 1.970 . S
O513 C512 1.258 . S
O514 Co511 1.966 . S
O514 C512 1.263 . S
C515 O516 1.235 . S
C515 O542 1.289 . S
O516 C515 1.235 . S
C517 C519 1.400 . S
C517 N520 1.351 . S
C517 C522 1.501 . S
C518 C519 1.387 . S
C518 N521 1.341 . S
C519 C517 1.400 . S
C519 C518 1.387 . S
N520 Co511 2.022 . S
N520 C517 1.351 . S
N520 N521 1.365 . S
N521 C518 1.341 . S
N521 N520 1.365 . S
N521 H541 0.862 . S
C522 C517 1.501 . S
C522 H523 0.961 . S
C522 H524 0.961 . S
C522 H525 0.960 . S
H523 C522 0.961 . S
H524 C522 0.961 . S
H525 C522 0.960 . S
C526 N527 1.342 . S
C526 C530 1.401 . S
C526 C531 1.499 . S
N527 Co510 1.989 . S
N527 C526 1.342 . S
N527 N528 1.388 . S
N528 Co511 1.993 . S
N528 N527 1.388 . S
N528 C529 1.346 . S
C529 N528 1.346 . S
C529 C530 1.396 . S
C529 C539 1.510 . S
C530 C526 1.401 . S
C530 C529 1.396 . S
C531 C526 1.499 . S
C531 H532 0.959 . S
C531 H533 0.960 . S
C531 H534 0.961 . S
H532 C531 0.959 . S
H533 C531 0.960 . S
H534 C531 0.961 . S
O535 Co510 1.967 . S
O535 C543 1.258 . S
O536 Co511 1.941 . S
O536 C543 1.266 . S
H537 C539 0.959 . S
H538 C539 0.961 . S
C539 C529 1.510 . S
C539 H537 0.959 . S
C539 H538 0.961 . S
C539 H540 0.960 . S
H540 C539 0.960 . S
H541 N521 0.862 . S
O542 Co510 1.920 . S
O542 C515 1.289 . S
C543 O535 1.258 . S
C543 O536 1.266 . S
H544 C550 0.930 . S
H545 C554 0.930 . S
H546 C559 0.929 . S
H547 C557 0.929 . S
H548 C552 0.929 . S
H549 C558 0.929 . S
C550 H544 0.930 . S
C550 C551 1.367 . S
C550 C558 1.378 . S
C551 C550 1.367 . S
C551 C559 1.433 . S
C552 H548 0.929 . S
C552 C554 1.378 . S
C552 C556 1.350 . S
C553 C556 1.463 . S
C553 C558 1.350 . S
C553 N561 1.427 . S
C554 H545 0.930 . S
C554 C552 1.378 . S
C554 C555 1.367 . S
C555 C554 1.367 . S
C555 C557 1.433 . S
C556 C552 1.350 . S
C556 C553 1.463 . S
C556 N560 1.427 . S
C557 H547 0.929 . S
C557 C555 1.433 . S
C557 N560 1.384 . S
C558 H549 0.929 . S
C558 C550 1.378 . S
C558 C553 1.350 . S
C559 H546 0.929 . S
C559 C551 1.433 . S
C559 N561 1.384 . S
N560 C556 1.427 . S
N560 C557 1.384 . S
N561 C553 1.427 . S
N561 C559 1.384 . S
H562 C568 0.930 . S
H563 C572 0.930 . S
H564 C577 0.929 . S
H565 C575 0.929 . S
H566 C570 0.929 . S
H567 C576 0.929 . S
C568 H562 0.930 . S
C568 C569 1.367 . S
C568 C576 1.378 . S
C569 C568 1.367 . S
C569 C577 1.433 . S
C570 H566 0.929 . S
C570 C572 1.378 . S
C570 C574 1.350 . S
C571 C574 1.463 . S
C571 C576 1.350 . S
C571 N579 1.427 . S
C572 H563 0.930 . S
C572 C570 1.378 . S
C572 C573 1.367 . S
C573 C572 1.367 . S
C573 C575 1.433 . S
C574 C570 1.350 . S
C574 C571 1.463 . S
C574 N578 1.427 . S
C575 H565 0.929 . S
C575 C573 1.433 . S
C575 N578 1.384 . S
C576 H567 0.929 . S
C576 C568 1.378 . S
C576 C571 1.350 . S
C577 H564 0.929 . S
C577 C569 1.433 . S
C577 N579 1.384 . S
N578 C574 1.427 . S
N578 C575 1.384 . S
N579 C571 1.427 . S
N579 C577 1.384 . S
H580 C586 0.930 . S
H581 C590 0.930 . S
H582 C595 0.929 . S
H583 C593 0.929 . S
H584 C588 0.929 . S
H585 C594 0.929 . S
C586 H580 0.930 . S
C586 C587 1.367 . S
C586 C594 1.378 . S
C587 C586 1.367 . S
C587 C595 1.433 . S
C588 H584 0.929 . S
C588 C590 1.378 . S
C588 C592 1.350 . S
C589 C592 1.463 . S
C589 C594 1.350 . S
C589 N597 1.427 . S
C590 H581 0.930 . S
C590 C588 1.378 . S
C590 C591 1.367 . S
C591 C590 1.367 . S
C591 C593 1.433 . S
C592 C588 1.350 . S
C592 C589 1.463 . S
C592 N596 1.427 . S
C593 H583 0.929 . S
C593 C591 1.433 . S
C593 N596 1.384 . S
C594 H585 0.929 . S
C594 C586 1.378 . S
C594 C589 1.350 . S
C595 H582 0.929 . S
C595 C587 1.433 . S
C595 N597 1.384 . S
N596 C592 1.427 . S
N596 C593 1.384 . S
N597 C589 1.427 . S
N597 C595 1.384 . S
H598 C604 0.930 . S
H599 C608 0.930 . S
H600 C613 0.929 . S
H601 C611 0.929 . S
H602 C606 0.929 . S
H603 C612 0.929 . S
C604 H598 0.930 . S
C604 C605 1.367 . S
C604 C612 1.378 . S
C605 C604 1.367 . S
C605 C613 1.433 . S
C606 H602 0.929 . S
C606 C608 1.378 . S
C606 C610 1.350 . S
C607 C610 1.463 . S
C607 C612 1.350 . S
C607 N615 1.427 . S
C608 H599 0.930 . S
C608 C606 1.378 . S
C608 C609 1.367 . S
C609 C608 1.367 . S
C609 C611 1.433 . S
C610 C606 1.350 . S
C610 C607 1.463 . S
C610 N614 1.427 . S
C611 H601 0.929 . S
C611 C609 1.433 . S
C611 N614 1.384 . S
C612 H603 0.929 . S
C612 C604 1.378 . S
C612 C607 1.350 . S
C613 H600 0.929 . S
C613 C605 1.433 . S
C613 N615 1.384 . S
N614 C610 1.427 . S
N614 C611 1.384 . S
N615 C607 1.427 . S
N615 C613 1.384 . S
H616 C622 0.930 . S
H617 C626 0.930 . S
H618 C631 0.929 . S
H619 C629 0.929 . S
H620 C624 0.929 . S
H621 C630 0.929 . S
C622 H616 0.930 . S
C622 C623 1.367 . S
C622 C630 1.378 . S
C623 C622 1.367 . S
C623 C631 1.433 . S
C624 H620 0.929 . S
C624 C626 1.378 . S
C624 C628 1.350 . S
C625 C628 1.463 . S
C625 C630 1.350 . S
C625 N633 1.427 . S
C626 H617 0.930 . S
C626 C624 1.378 . S
C626 C627 1.367 . S
C627 C626 1.367 . S
C627 C629 1.433 . S
C628 C624 1.350 . S
C628 C625 1.463 . S
C628 N632 1.427 . S
C629 H619 0.929 . S
C629 C627 1.433 . S
C629 N632 1.384 . S
C630 H621 0.929 . S
C630 C622 1.378 . S
C630 C625 1.350 . S
C631 H618 0.929 . S
C631 C623 1.433 . S
C631 N633 1.384 . S
N632 C628 1.427 . S
N632 C629 1.384 . S
N633 C625 1.427 . S
N633 C631 1.384 . S
H634 C640 0.930 . S
H635 C644 0.930 . S
H636 C649 0.929 . S
H637 C647 0.929 . S
H638 C642 0.929 . S
H639 C648 0.929 . S
C640 H634 0.930 . S
C640 C641 1.367 . S
C640 C648 1.378 . S
C641 C640 1.367 . S
C641 C649 1.433 . S
C642 H638 0.929 . S
C642 C644 1.378 . S
C642 C646 1.350 . S
C643 C646 1.463 . S
C643 C648 1.350 . S
C643 N651 1.427 . S
C644 H635 0.930 . S
C644 C642 1.378 . S
C644 C645 1.367 . S
C645 C644 1.367 . S
C645 C647 1.433 . S
C646 C642 1.350 . S
C646 C643 1.463 . S
C646 N650 1.427 . S
C647 H637 0.929 . S
C647 C645 1.433 . S
C647 N650 1.384 . S
C648 H639 0.929 . S
C648 C640 1.378 . S
C648 C643 1.350 . S
C649 H636 0.929 . S
C649 C641 1.433 . S
C649 N651 1.384 . S
N650 C646 1.427 . S
N650 C647 1.384 . S
N651 C643 1.427 . S
N651 C649 1.384 . S
H652 C658 0.930 . S
H653 C662 0.930 . S
H654 C667 0.929 . S
H655 C665 0.929 . S
H656 C660 0.929 . S
H657 C666 0.929 . S
C658 H652 0.930 . S
C658 C659 1.367 . S
C658 C666 1.378 . S
C659 C658 1.367 . S
C659 C667 1.433 . S
C660 H656 0.929 . S
C660 C662 1.378 . S
C660 C664 1.350 . S
C661 C664 1.463 . S
C661 C666 1.350 . S
C661 N669 1.427 . S
C662 H653 0.930 . S
C662 C660 1.378 . S
C662 C663 1.367 . S
C663 C662 1.367 . S
C663 C665 1.433 . S
C664 C660 1.350 . S
C664 C661 1.463 . S
C664 N668 1.427 . S
C665 H655 0.929 . S
C665 C663 1.433 . S
C665 N668 1.384 . S
C666 H657 0.929 . S
C666 C658 1.378 . S
C666 C661 1.350 . S
C667 H654 0.929 . S
C667 C659 1.433 . S
C667 N669 1.384 . S
N668 C664 1.427 . S
N668 C665 1.384 . S
N669 C661 1.427 . S
N669 C667 1.384 . S
H670 C676 0.930 . S
H671 C680 0.930 . S
H672 C685 0.929 . S
H673 C683 0.929 . S
H674 C678 0.929 . S
H675 C684 0.929 . S
C676 H670 0.930 . S
C676 C677 1.367 . S
C676 C684 1.378 . S
C677 C676 1.367 . S
C677 C685 1.433 . S
C678 H674 0.929 . S
C678 C680 1.378 . S
C678 C682 1.350 . S
C679 C682 1.463 . S
C679 C684 1.350 . S
C679 N687 1.427 . S
C680 H671 0.930 . S
C680 C678 1.378 . S
C680 C681 1.367 . S
C681 C680 1.367 . S
C681 C683 1.433 . S
C682 C678 1.350 . S
C682 C679 1.463 . S
C682 N686 1.427 . S
C683 H673 0.929 . S
C683 C681 1.433 . S
C683 N686 1.384 . S
C684 H675 0.929 . S
C684 C676 1.378 . S
C684 C679 1.350 . S
C685 H672 0.929 . S
C685 C677 1.433 . S
C685 N687 1.384 . S
N686 C682 1.427 . S
N686 C683 1.384 . S
N687 C679 1.427 . S
N687 C685 1.384 . S
H688 C694 0.930 . S
H689 C698 0.930 . S
H690 C703 0.929 . S
H691 C701 0.929 . S
H692 C696 0.929 . S
H693 C702 0.929 . S
C694 H688 0.930 . S
C694 C695 1.367 . S
C694 C702 1.378 . S
C695 C694 1.367 . S
C695 C703 1.433 . S
C696 H692 0.929 . S
C696 C698 1.378 . S
C696 C700 1.350 . S
C697 C700 1.463 . S
C697 C702 1.350 . S
C697 N705 1.427 . S
C698 H689 0.930 . S
C698 C696 1.378 . S
C698 C699 1.367 . S
C699 C698 1.367 . S
C699 C701 1.433 . S
C700 C696 1.350 . S
C700 C697 1.463 . S
C700 N704 1.427 . S
C701 H691 0.929 . S
C701 C699 1.433 . S
C701 N704 1.384 . S
C702 H693 0.929 . S
C702 C694 1.378 . S
C702 C697 1.350 . S
C703 H690 0.929 . S
C703 C695 1.433 . S
C703 N705 1.384 . S
N704 C700 1.427 . S
N704 C701 1.384 . S
N705 C697 1.427 . S
N705 C703 1.384 . S
H706 C712 0.930 . S
H707 C716 0.930 . S
H708 C721 0.929 . S
H709 C719 0.929 . S
H710 C714 0.929 . S
H711 C720 0.929 . S
C712 H706 0.930 . S
C712 C713 1.367 . S
C712 C720 1.378 . S
C713 C712 1.367 . S
C713 C721 1.433 . S
C714 H710 0.929 . S
C714 C716 1.378 . S
C714 C718 1.350 . S
C715 C718 1.463 . S
C715 C720 1.350 . S
C715 N723 1.427 . S
C716 H707 0.930 . S
C716 C714 1.378 . S
C716 C717 1.367 . S
C717 C716 1.367 . S
C717 C719 1.433 . S
C718 C714 1.350 . S
C718 C715 1.463 . S
C718 N722 1.427 . S
C719 H709 0.929 . S
C719 C717 1.433 . S
C719 N722 1.384 . S
C720 H711 0.929 . S
C720 C712 1.378 . S
C720 C715 1.350 . S
C721 H708 0.929 . S
C721 C713 1.433 . S
C721 N723 1.384 . S
N722 C718 1.427 . S
N722 C719 1.384 . S
N723 C715 1.427 . S
N723 C721 1.384 . S
H724 C730 0.930 . S
H725 C734 0.930 . S
H726 C739 0.929 . S
H727 C737 0.929 . S
H728 C732 0.929 . S
H729 C738 0.929 . S
C730 H724 0.930 . S
C730 C731 1.367 . S
C730 C738 1.378 . S
C731 C730 1.367 . S
C731 C739 1.433 . S
C732 H728 0.929 . S
C732 C734 1.378 . S
C732 C736 1.350 . S
C733 C736 1.463 . S
C733 C738 1.350 . S
C733 N741 1.427 . S
C734 H725 0.930 . S
C734 C732 1.378 . S
C734 C735 1.367 . S
C735 C734 1.367 . S
C735 C737 1.433 . S
C736 C732 1.350 . S
C736 C733 1.463 . S
C736 N740 1.427 . S
C737 H727 0.929 . S
C737 C735 1.433 . S
C737 N740 1.384 . S
C738 H729 0.929 . S
C738 C730 1.378 . S
C738 C733 1.350 . S
C739 H726 0.929 . S
C739 C731 1.433 . S
C739 N741 1.384 . S
N740 C736 1.427 . S
N740 C737 1.384 . S
N741 C733 1.427 . S
N741 C739 1.384 . S
H742 C748 0.930 . S
H743 C752 0.930 . S
H744 C757 0.929 . S
H745 C755 0.929 . S
H746 C750 0.929 . S
H747 C756 0.929 . S
C748 H742 0.930 . S
C748 C749 1.367 . S
C748 C756 1.378 . S
C749 C748 1.367 . S
C749 C757 1.433 . S
C750 H746 0.929 . S
C750 C752 1.378 . S
C750 C754 1.350 . S
C751 C754 1.463 . S
C751 C756 1.350 . S
C751 N759 1.427 . S
C752 H743 0.930 . S
C752 C750 1.378 . S
C752 C753 1.367 . S
C753 C752 1.367 . S
C753 C755 1.433 . S
C754 C750 1.350 . S
C754 C751 1.463 . S
C754 N758 1.427 . S
C755 H745 0.929 . S
C755 C753 1.433 . S
C755 N758 1.384 . S
C756 H747 0.929 . S
C756 C748 1.378 . S
C756 C751 1.350 . S
C757 H744 0.929 . S
C757 C749 1.433 . S
C757 N759 1.384 . S
N758 C754 1.427 . S
N758 C755 1.384 . S
N759 C751 1.427 . S
N759 C757 1.384 . S
H760 C766 0.930 . S
H761 C770 0.930 . S
H762 C775 0.929 . S
H763 C773 0.929 . S
H764 C768 0.929 . S
H765 C774 0.929 . S
C766 H760 0.930 . S
C766 C767 1.367 . S
C766 C774 1.378 . S
C767 C766 1.367 . S
C767 C775 1.433 . S
C768 H764 0.929 . S
C768 C770 1.378 . S
C768 C772 1.350 . S
C769 C772 1.463 . S
C769 C774 1.350 . S
C769 N777 1.427 . S
C770 H761 0.930 . S
C770 C768 1.378 . S
C770 C771 1.367 . S
C771 C770 1.367 . S
C771 C773 1.433 . S
C772 C768 1.350 . S
C772 C769 1.463 . S
C772 N776 1.427 . S
C773 H763 0.929 . S
C773 C771 1.433 . S
C773 N776 1.384 . S
C774 H765 0.929 . S
C774 C766 1.378 . S
C774 C769 1.350 . S
C775 H762 0.929 . S
C775 C767 1.433 . S
C775 N777 1.384 . S
N776 C772 1.427 . S
N776 C773 1.384 . S
N777 C769 1.427 . S
N777 C775 1.384 . S
H778 C784 0.930 . S
H779 C788 0.930 . S
H780 C793 0.929 . S
H781 C791 0.929 . S
H782 C786 0.929 . S
H783 C792 0.929 . S
C784 H778 0.930 . S
C784 C785 1.367 . S
C784 C792 1.378 . S
C785 C784 1.367 . S
C785 C793 1.433 . S
C786 H782 0.929 . S
C786 C788 1.378 . S
C786 C790 1.350 . S
C787 C790 1.463 . S
C787 C792 1.350 . S
C787 N795 1.427 . S
C788 H779 0.930 . S
C788 C786 1.378 . S
C788 C789 1.367 . S
C789 C788 1.367 . S
C789 C791 1.433 . S
C790 C786 1.350 . S
C790 C787 1.463 . S
C790 N794 1.427 . S
C791 H781 0.929 . S
C791 C789 1.433 . S
C791 N794 1.384 . S
C792 H783 0.929 . S
C792 C784 1.378 . S
C792 C787 1.350 . S
C793 H780 0.929 . S
C793 C785 1.433 . S
C793 N795 1.384 . S
N794 C790 1.427 . S
N794 C791 1.384 . S
N795 C787 1.427 . S
N795 C793 1.384 . S
H796 C802 0.930 . S
H797 C806 0.930 . S
H798 C811 0.929 . S
H799 C809 0.929 . S
H800 C804 0.929 . S
H801 C810 0.929 . S
C802 H796 0.930 . S
C802 C803 1.367 . S
C802 C810 1.378 . S
C803 C802 1.367 . S
C803 C811 1.433 . S
C804 H800 0.929 . S
C804 C806 1.378 . S
C804 C808 1.350 . S
C805 C808 1.463 . S
C805 C810 1.350 . S
C805 N813 1.427 . S
C806 H797 0.930 . S
C806 C804 1.378 . S
C806 C807 1.367 . S
C807 C806 1.367 . S
C807 C809 1.433 . S
C808 C804 1.350 . S
C808 C805 1.463 . S
C808 N812 1.427 . S
C809 H799 0.929 . S
C809 C807 1.433 . S
C809 N812 1.384 . S
C810 H801 0.929 . S
C810 C802 1.378 . S
C810 C805 1.350 . S
C811 H798 0.929 . S
C811 C803 1.433 . S
C811 N813 1.384 . S
N812 C808 1.427 . S
N812 C809 1.384 . S
N813 C805 1.427 . S
N813 C811 1.384 . S
H814 C820 0.930 . S
H815 C824 0.930 . S
H816 C829 0.929 . S
H817 C827 0.929 . S
H818 C822 0.929 . S
H819 C828 0.929 . S
C820 H814 0.930 . S
C820 C821 1.367 . S
C820 C828 1.378 . S
C821 C820 1.367 . S
C821 C829 1.433 . S
C822 H818 0.929 . S
C822 C824 1.378 . S
C822 C826 1.350 . S
C823 C826 1.463 . S
C823 C828 1.350 . S
C823 N831 1.427 . S
C824 H815 0.930 . S
C824 C822 1.378 . S
C824 C825 1.367 . S
C825 C824 1.367 . S
C825 C827 1.433 . S
C826 C822 1.350 . S
C826 C823 1.463 . S
C826 N830 1.427 . S
C827 H817 0.929 . S
C827 C825 1.433 . S
C827 N830 1.384 . S
C828 H819 0.929 . S
C828 C820 1.378 . S
C828 C823 1.350 . S
C829 H816 0.929 . S
C829 C821 1.433 . S
C829 N831 1.384 . S
N830 C826 1.427 . S
N830 C827 1.384 . S
N831 C823 1.427 . S
N831 C829 1.384 . S
H832 C838 0.930 . S
H833 C842 0.930 . S
H834 C847 0.929 . S
H835 C845 0.929 . S
H836 C840 0.929 . S
H837 C846 0.929 . S
C838 H832 0.930 . S
C838 C839 1.367 . S
C838 C846 1.378 . S
C839 C838 1.367 . S
C839 C847 1.433 . S
C840 H836 0.929 . S
C840 C842 1.378 . S
C840 C844 1.350 . S
C841 C844 1.463 . S
C841 C846 1.350 . S
C841 N849 1.427 . S
C842 H833 0.930 . S
C842 C840 1.378 . S
C842 C843 1.367 . S
C843 C842 1.367 . S
C843 C845 1.433 . S
C844 C840 1.350 . S
C844 C841 1.463 . S
C844 N848 1.427 . S
C845 H835 0.929 . S
C845 C843 1.433 . S
C845 N848 1.384 . S
C846 H837 0.929 . S
C846 C838 1.378 . S
C846 C841 1.350 . S
C847 H834 0.929 . S
C847 C839 1.433 . S
C847 N849 1.384 . S
N848 C844 1.427 . S
N848 C845 1.384 . S
N849 C841 1.427 . S
N849 C847 1.384 . S
H850 C856 0.930 . S
H851 C860 0.930 . S
H852 C865 0.929 . S
H853 C863 0.929 . S
H854 C858 0.929 . S
H855 C864 0.929 . S
C856 H850 0.930 . S
C856 C857 1.367 . S
C856 C864 1.378 . S
C857 C856 1.367 . S
C857 C865 1.433 . S
C858 H854 0.929 . S
C858 C860 1.378 . S
C858 C862 1.350 . S
C859 C862 1.463 . S
C859 C864 1.350 . S
C859 N867 1.427 . S
C860 H851 0.930 . S
C860 C858 1.378 . S
C860 C861 1.367 . S
C861 C860 1.367 . S
C861 C863 1.433 . S
C862 C858 1.350 . S
C862 C859 1.463 . S
C862 N866 1.427 . S
C863 H853 0.929 . S
C863 C861 1.433 . S
C863 N866 1.384 . S
C864 H855 0.929 . S
C864 C856 1.378 . S
C864 C859 1.350 . S
C865 H852 0.929 . S
C865 C857 1.433 . S
C865 N867 1.384 . S
N866 C862 1.427 . S
N866 C863 1.384 . S
N867 C859 1.427 . S
N867 C865 1.384 . S
H868 C874 0.930 . S
H869 C878 0.930 . S
H870 C883 0.929 . S
H871 C881 0.929 . S
H872 C876 0.929 . S
H873 C882 0.929 . S
C874 H868 0.930 . S
C874 C875 1.367 . S
C874 C882 1.378 . S
C875 C874 1.367 . S
C875 C883 1.433 . S
C876 H872 0.929 . S
C876 C878 1.378 . S
C876 C880 1.350 . S
C877 C880 1.463 . S
C877 C882 1.350 . S
C877 N885 1.427 . S
C878 H869 0.930 . S
C878 C876 1.378 . S
C878 C879 1.367 . S
C879 C878 1.367 . S
C879 C881 1.433 . S
C880 C876 1.350 . S
C880 C877 1.463 . S
C880 N884 1.427 . S
C881 H871 0.929 . S
C881 C879 1.433 . S
C881 N884 1.384 . S
C882 H873 0.929 . S
C882 C874 1.378 . S
C882 C877 1.350 . S
C883 H870 0.929 . S
C883 C875 1.433 . S
C883 N885 1.384 . S
N884 C880 1.427 . S
N884 C881 1.384 . S
N885 C877 1.427 . S
N885 C883 1.384 . S
H886 C892 0.930 . S
H887 C896 0.930 . S
H888 C901 0.929 . S
H889 C899 0.929 . S
H890 C894 0.929 . S
H891 C900 0.929 . S
C892 H886 0.930 . S
C892 C893 1.367 . S
C892 C900 1.378 . S
C893 C892 1.367 . S
C893 C901 1.433 . S
C894 H890 0.929 . S
C894 C896 1.378 . S
C894 C898 1.350 . S
C895 C898 1.463 . S
C895 C900 1.350 . S
C895 N903 1.427 . S
C896 H887 0.930 . S
C896 C894 1.378 . S
C896 C897 1.367 . S
C897 C896 1.367 . S
C897 C899 1.433 . S
C898 C894 1.350 . S
C898 C895 1.463 . S
C898 N902 1.427 . S
C899 H889 0.929 . S
C899 C897 1.433 . S
C899 N902 1.384 . S
C900 H891 0.929 . S
C900 C892 1.378 . S
C900 C895 1.350 . S
C901 H888 0.929 . S
C901 C893 1.433 . S
C901 N903 1.384 . S
N902 C898 1.427 . S
N902 C899 1.384 . S
N903 C895 1.427 . S
N903 C901 1.384 . S
H904 C910 0.930 . S
H905 C914 0.930 . S
H906 C919 0.929 . S
H907 C917 0.929 . S
H908 C912 0.929 . S
H909 C918 0.929 . S
C910 H904 0.930 . S
C910 C911 1.367 . S
C910 C918 1.378 . S
C911 C910 1.367 . S
C911 C919 1.433 . S
C912 H908 0.929 . S
C912 C914 1.378 . S
C912 C916 1.350 . S
C913 C916 1.463 . S
C913 C918 1.350 . S
C913 N921 1.427 . S
C914 H905 0.930 . S
C914 C912 1.378 . S
C914 C915 1.367 . S
C915 C914 1.367 . S
C915 C917 1.433 . S
C916 C912 1.350 . S
C916 C913 1.463 . S
C916 N920 1.427 . S
C917 H907 0.929 . S
C917 C915 1.433 . S
C917 N920 1.384 . S
C918 H909 0.929 . S
C918 C910 1.378 . S
C918 C913 1.350 . S
C919 H906 0.929 . S
C919 C911 1.433 . S
C919 N921 1.384 . S
N920 C916 1.427 . S
N920 C917 1.384 . S
N921 C913 1.427 . S
N921 C919 1.384 . S
H922 C928 0.930 . S
H923 C932 0.930 . S
H924 C937 0.929 . S
H925 C935 0.929 . S
H926 C930 0.929 . S
H927 C936 0.929 . S
C928 H922 0.930 . S
C928 C929 1.367 . S
C928 C936 1.378 . S
C929 C928 1.367 . S
C929 C937 1.433 . S
C930 H926 0.929 . S
C930 C932 1.378 . S
C930 C934 1.350 . S
C931 C934 1.463 . S
C931 C936 1.350 . S
C931 N939 1.427 . S
C932 H923 0.930 . S
C932 C930 1.378 . S
C932 C933 1.367 . S
C933 C932 1.367 . S
C933 C935 1.433 . S
C934 C930 1.350 . S
C934 C931 1.463 . S
C934 N938 1.427 . S
C935 H925 0.929 . S
C935 C933 1.433 . S
C935 N938 1.384 . S
C936 H927 0.929 . S
C936 C928 1.378 . S
C936 C931 1.350 . S
C937 H924 0.929 . S
C937 C929 1.433 . S
C937 N939 1.384 . S
N938 C934 1.427 . S
N938 C935 1.384 . S
N939 C931 1.427 . S
N939 C937 1.384 . S
H940 C946 0.930 . S
H941 C950 0.930 . S
H942 C955 0.929 . S
H943 C953 0.929 . S
H944 C948 0.929 . S
H945 C954 0.929 . S
C946 H940 0.930 . S
C946 C947 1.367 . S
C946 C954 1.378 . S
C947 C946 1.367 . S
C947 C955 1.433 . S
C948 H944 0.929 . S
C948 C950 1.378 . S
C948 C952 1.350 . S
C949 C952 1.463 . S
C949 C954 1.350 . S
C949 N957 1.427 . S
C950 H941 0.930 . S
C950 C948 1.378 . S
C950 C951 1.367 . S
C951 C950 1.367 . S
C951 C953 1.433 . S
C952 C948 1.350 . S
C952 C949 1.463 . S
C952 N956 1.427 . S
C953 H943 0.929 . S
C953 C951 1.433 . S
C953 N956 1.384 . S
C954 H945 0.929 . S
C954 C946 1.378 . S
C954 C949 1.350 . S
C955 H942 0.929 . S
C955 C947 1.433 . S
C955 N957 1.384 . S
N956 C952 1.427 . S
N956 C953 1.384 . S
N957 C949 1.427 . S
N957 C955 1.384 . S
H958 C964 0.930 . S
H959 C968 0.930 . S
H960 C973 0.929 . S
H961 C971 0.929 . S
H962 C966 0.929 . S
H963 C972 0.929 . S
C964 H958 0.930 . S
C964 C965 1.367 . S
C964 C972 1.378 . S
C965 C964 1.367 . S
C965 C973 1.433 . S
C966 H962 0.929 . S
C966 C968 1.378 . S
C966 C970 1.350 . S
C967 C970 1.463 . S
C967 C972 1.350 . S
C967 N975 1.427 . S
C968 H959 0.930 . S
C968 C966 1.378 . S
C968 C969 1.367 . S
C969 C968 1.367 . S
C969 C971 1.433 . S
C970 C966 1.350 . S
C970 C967 1.463 . S
C970 N974 1.427 . S
C971 H961 0.929 . S
C971 C969 1.433 . S
C971 N974 1.384 . S
C972 H963 0.929 . S
C972 C964 1.378 . S
C972 C967 1.350 . S
C973 H960 0.929 . S
C973 C965 1.433 . S
C973 N975 1.384 . S
N974 C970 1.427 . S
N974 C971 1.384 . S
N975 C967 1.427 . S
N975 C973 1.384 . S
H976 C982 0.930 . S
H977 C986 0.930 . S
H978 C991 0.929 . S
H979 C989 0.929 . S
H980 C984 0.929 . S
H981 C990 0.929 . S
C982 H976 0.930 . S
C982 C983 1.367 . S
C982 C990 1.378 . S
C983 C982 1.367 . S
C983 C991 1.433 . S
C984 H980 0.929 . S
C984 C986 1.378 . S
C984 C988 1.350 . S
C985 C988 1.463 . S
C985 C990 1.350 . S
C985 N993 1.427 . S
C986 H977 0.930 . S
C986 C984 1.378 . S
C986 C987 1.367 . S
C987 C986 1.367 . S
C987 C989 1.433 . S
C988 C984 1.350 . S
C988 C985 1.463 . S
C988 N992 1.427 . S
C989 H979 0.929 . S
C989 C987 1.433 . S
C989 N992 1.384 . S
C990 H981 0.929 . S
C990 C982 1.378 . S
C990 C985 1.350 . S
C991 H978 0.929 . S
C991 C983 1.433 . S
C991 N993 1.384 . S
N992 C988 1.427 . S
N992 C989 1.384 . S
N993 C985 1.427 . S
N993 C991 1.384 . S
H994 C1000 0.930 . S
H995 C1004 0.930 . S
H996 C1009 0.929 . S
H997 C1007 0.929 . S
H998 C1002 0.929 . S
H999 C1008 0.929 . S
C1000 H994 0.930 . S
C1000 C1001 1.367 . S
C1000 C1008 1.378 . S
C1001 C1000 1.367 . S
C1001 C1009 1.433 . S
C1002 H998 0.929 . S
C1002 C1004 1.378 . S
C1002 C1006 1.350 . S
C1003 C1006 1.463 . S
C1003 C1008 1.350 . S
C1003 N1011 1.427 . S
C1004 H995 0.930 . S
C1004 C1002 1.378 . S
C1004 C1005 1.367 . S
C1005 C1004 1.367 . S
C1005 C1007 1.433 . S
C1006 C1002 1.350 . S
C1006 C1003 1.463 . S
C1006 N1010 1.427 . S
C1007 H997 0.929 . S
C1007 C1005 1.433 . S
C1007 N1010 1.384 . S
C1008 H999 0.929 . S
C1008 C1000 1.378 . S
C1008 C1003 1.350 . S
C1009 H996 0.929 . S
C1009 C1001 1.433 . S
C1009 N1011 1.384 . S
N1010 C1006 1.427 . S
N1010 C1007 1.384 . S
N1011 C1003 1.427 . S
N1011 C1009 1.384 . S
H1012 C1018 0.930 . S
H1013 C1022 0.930 . S
H1014 C1027 0.929 . S
H1015 C1025 0.929 . S
H1016 C1020 0.929 . S
H1017 C1026 0.929 . S
C1018 H1012 0.930 . S
C1018 C1019 1.367 . S
C1018 C1026 1.378 . S
C1019 C1018 1.367 . S
C1019 C1027 1.433 . S
C1020 H1016 0.929 . S
C1020 C1022 1.378 . S
C1020 C1024 1.350 . S
C1021 C1024 1.463 . S
C1021 C1026 1.350 . S
C1021 N1029 1.427 . S
C1022 H1013 0.930 . S
C1022 C1020 1.378 . S
C1022 C1023 1.367 . S
C1023 C1022 1.367 . S
C1023 C1025 1.433 . S
C1024 C1020 1.350 . S
C1024 C1021 1.463 . S
C1024 N1028 1.427 . S
C1025 H1015 0.929 . S
C1025 C1023 1.433 . S
C1025 N1028 1.384 . S
C1026 H1017 0.929 . S
C1026 C1018 1.378 . S
C1026 C1021 1.350 . S
C1027 H1014 0.929 . S
C1027 C1019 1.433 . S
C1027 N1029 1.384 . S
N1028 C1024 1.427 . S
N1028 C1025 1.384 . S
N1029 C1021 1.427 . S
N1029 C1027 1.384 . S
H1030 C1036 0.930 . S
H1031 C1040 0.930 . S
H1032 C1045 0.929 . S
H1033 C1043 0.929 . S
H1034 C1038 0.929 . S
H1035 C1044 0.929 . S
C1036 H1030 0.930 . S
C1036 C1037 1.367 . S
C1036 C1044 1.378 . S
C1037 C1036 1.367 . S
C1037 C1045 1.433 . S
C1038 H1034 0.929 . S
C1038 C1040 1.378 . S
C1038 C1042 1.350 . S
C1039 C1042 1.463 . S
C1039 C1044 1.350 . S
C1039 N1047 1.427 . S
C1040 H1031 0.930 . S
C1040 C1038 1.378 . S
C1040 C1041 1.367 . S
C1041 C1040 1.367 . S
C1041 C1043 1.433 . S
C1042 C1038 1.350 . S
C1042 C1039 1.463 . S
C1042 N1046 1.427 . S
C1043 H1033 0.929 . S
C1043 C1041 1.433 . S
C1043 N1046 1.384 . S
C1044 H1035 0.929 . S
C1044 C1036 1.378 . S
C1044 C1039 1.350 . S
C1045 H1032 0.929 . S
C1045 C1037 1.433 . S
C1045 N1047 1.384 . S
N1046 C1042 1.427 . S
N1046 C1043 1.384 . S
N1047 C1039 1.427 . S
N1047 C1045 1.384 . S
H1048 C1054 0.930 . S
H1049 C1058 0.930 . S
H1050 C1063 0.929 . S
H1051 C1061 0.929 . S
H1052 C1056 0.929 . S
H1053 C1062 0.929 . S
C1054 H1048 0.930 . S
C1054 C1055 1.367 . S
C1054 C1062 1.378 . S
C1055 C1054 1.367 . S
C1055 C1063 1.433 . S
C1056 H1052 0.929 . S
C1056 C1058 1.378 . S
C1056 C1060 1.350 . S
C1057 C1060 1.463 . S
C1057 C1062 1.350 . S
C1057 N1065 1.427 . S
C1058 H1049 0.930 . S
C1058 C1056 1.378 . S
C1058 C1059 1.367 . S
C1059 C1058 1.367 . S
C1059 C1061 1.433 . S
C1060 C1056 1.350 . S
C1060 C1057 1.463 . S
C1060 N1064 1.427 . S
C1061 H1051 0.929 . S
C1061 C1059 1.433 . S
C1061 N1064 1.384 . S
C1062 H1053 0.929 . S
C1062 C1054 1.378 . S
C1062 C1057 1.350 . S
C1063 H1050 0.929 . S
C1063 C1055 1.433 . S
C1063 N1065 1.384 . S
N1064 C1060 1.427 . S
N1064 C1061 1.384 . S
N1065 C1057 1.427 . S
N1065 C1063 1.384 . S
H1066 C1072 0.930 . S
H1067 C1076 0.930 . S
H1068 C1081 0.929 . S
H1069 C1079 0.929 . S
H1070 C1074 0.929 . S
H1071 C1080 0.929 . S
C1072 H1066 0.930 . S
C1072 C1073 1.367 . S
C1072 C1080 1.378 . S
C1073 C1072 1.367 . S
C1073 C1081 1.433 . S
C1074 H1070 0.929 . S
C1074 C1076 1.378 . S
C1074 C1078 1.350 . S
C1075 C1078 1.463 . S
C1075 C1080 1.350 . S
C1075 N1083 1.427 . S
C1076 H1067 0.930 . S
C1076 C1074 1.378 . S
C1076 C1077 1.367 . S
C1077 C1076 1.367 . S
C1077 C1079 1.433 . S
C1078 C1074 1.350 . S
C1078 C1075 1.463 . S
C1078 N1082 1.427 . S
C1079 H1069 0.929 . S
C1079 C1077 1.433 . S
C1079 N1082 1.384 . S
C1080 H1071 0.929 . S
C1080 C1072 1.378 . S
C1080 C1075 1.350 . S
C1081 H1068 0.929 . S
C1081 C1073 1.433 . S
C1081 N1083 1.384 . S
N1082 C1078 1.427 . S
N1082 C1079 1.384 . S
N1083 C1075 1.427 . S
N1083 C1081 1.384 . S
H1084 C1090 0.930 . S
H1085 C1094 0.930 . S
H1086 C1099 0.929 . S
H1087 C1097 0.929 . S
H1088 C1092 0.929 . S
H1089 C1098 0.929 . S
C1090 H1084 0.930 . S
C1090 C1091 1.367 . S
C1090 C1098 1.378 . S
C1091 C1090 1.367 . S
C1091 C1099 1.433 . S
C1092 H1088 0.929 . S
C1092 C1094 1.378 . S
C1092 C1096 1.350 . S
C1093 C1096 1.463 . S
C1093 C1098 1.350 . S
C1093 N1101 1.427 . S
C1094 H1085 0.930 . S
C1094 C1092 1.378 . S
C1094 C1095 1.367 . S
C1095 C1094 1.367 . S
C1095 C1097 1.433 . S
C1096 C1092 1.350 . S
C1096 C1093 1.463 . S
C1096 N1100 1.427 . S
C1097 H1087 0.929 . S
C1097 C1095 1.433 . S
C1097 N1100 1.384 . S
C1098 H1089 0.929 . S
C1098 C1090 1.378 . S
C1098 C1093 1.350 . S
C1099 H1086 0.929 . S
C1099 C1091 1.433 . S
C1099 N1101 1.384 . S
N1100 C1096 1.427 . S
N1100 C1097 1.384 . S
N1101 C1093 1.427 . S
N1101 C1099 1.384 . S
H1102 C1108 0.930 . S
H1103 C1112 0.930 . S
H1104 C1117 0.929 . S
H1105 C1115 0.929 . S
H1106 C1110 0.929 . S
H1107 C1116 0.929 . S
C1108 H1102 0.930 . S
C1108 C1109 1.367 . S
C1108 C1116 1.378 . S
C1109 C1108 1.367 . S
C1109 C1117 1.433 . S
C1110 H1106 0.929 . S
C1110 C1112 1.378 . S
C1110 C1114 1.350 . S
C1111 C1114 1.463 . S
C1111 C1116 1.350 . S
C1111 N1119 1.427 . S
C1112 H1103 0.930 . S
C1112 C1110 1.378 . S
C1112 C1113 1.367 . S
C1113 C1112 1.367 . S
C1113 C1115 1.433 . S
C1114 C1110 1.350 . S
C1114 C1111 1.463 . S
C1114 N1118 1.427 . S
C1115 H1105 0.929 . S
C1115 C1113 1.433 . S
C1115 N1118 1.384 . S
C1116 H1107 0.929 . S
C1116 C1108 1.378 . S
C1116 C1111 1.350 . S
C1117 H1104 0.929 . S
C1117 C1109 1.433 . S
C1117 N1119 1.384 . S
N1118 C1114 1.427 . S
N1118 C1115 1.384 . S
N1119 C1111 1.427 . S
N1119 C1117 1.384 . S
H1120 C1126 0.907 1_565 S
H1121 C1130 0.930 . S
H1122 C1135 0.929 . S
H1123 C1133 0.929 1_565 S
H1124 C1128 0.929 . S
H1125 C1134 0.906 1_565 S
C1126 H1120 0.907 1_545 S
C1126 C1127 1.367 . S
C1126 C1134 1.378 . S
C1127 C1126 1.367 . S
C1127 C1135 1.433 . S
C1128 H1124 0.929 . S
C1128 C1130 1.378 . S
C1128 C1132 1.350 . S
C1129 C1132 1.463 1_556 S
C1129 C1134 1.350 . S
C1129 N1137 1.427 . S
C1130 H1121 0.930 . S
C1130 C1128 1.378 . S
C1130 C1131 1.367 . S
C1131 C1130 1.367 . S
C1131 C1133 1.433 . S
C1132 C1128 1.350 . S
C1132 C1129 1.463 1_554 S
C1132 N1136 1.427 . S
C1133 H1123 0.929 1_545 S
C1133 C1131 1.433 . S
C1133 N1136 1.384 . S
C1134 H1125 0.906 1_545 S
C1134 C1126 1.378 . S
C1134 C1129 1.350 . S
C1135 H1122 0.929 . S
C1135 C1127 1.433 . S
C1135 N1137 1.384 . S
N1136 C1132 1.427 . S
N1136 C1133 1.384 . S
N1137 C1129 1.427 . S
N1137 C1135 1.384 . S
H1138 C1144 0.930 . S
H1139 C1148 0.930 . S
H1140 C1153 0.929 . S
H1141 C1151 0.929 . S
H1142 C1146 0.929 . S
H1143 C1152 0.929 . S
C1144 H1138 0.930 . S
C1144 C1145 1.367 . S
C1144 C1152 1.378 . S
C1145 C1144 1.367 . S
C1145 C1153 1.433 . S
C1146 H1142 0.929 . S
C1146 C1148 1.378 . S
C1146 C1150 1.350 . S
C1147 C1150 1.463 . S
C1147 C1152 1.350 . S
C1147 N1155 1.427 . S
C1148 H1139 0.930 . S
C1148 C1146 1.378 . S
C1148 C1149 1.367 . S
C1149 C1148 1.367 . S
C1149 C1151 1.433 . S
C1150 C1146 1.350 . S
C1150 C1147 1.463 . S
C1150 N1154 1.427 . S
C1151 H1141 0.929 . S
C1151 C1149 1.433 . S
C1151 N1154 1.384 . S
C1152 H1143 0.929 . S
C1152 C1144 1.378 . S
C1152 C1147 1.350 . S
C1153 H1140 0.929 . S
C1153 C1145 1.433 . S
C1153 N1155 1.384 . S
N1154 C1150 1.427 . S
N1154 C1151 1.384 . S
N1155 C1147 1.427 . S
N1155 C1153 1.384 . S
H1156 C1162 0.930 . S
H1157 C1166 0.930 . S
H1158 C1171 0.929 . S
H1159 C1169 0.929 . S
H1160 C1164 0.929 . S
H1161 C1170 0.929 . S
C1162 H1156 0.930 . S
C1162 C1163 1.367 . S
C1162 C1170 1.378 . S
C1163 C1162 1.367 . S
C1163 C1171 1.433 . S
C1164 H1160 0.929 . S
C1164 C1166 1.378 . S
C1164 C1168 1.350 . S
C1165 C1168 1.463 1_554 S
C1165 C1170 1.350 . S
C1165 N1173 1.427 . S
C1166 H1157 0.930 . S
C1166 C1164 1.378 . S
C1166 C1167 1.367 . S
C1167 C1166 1.367 . S
C1167 C1169 1.433 . S
C1168 C1164 1.350 . S
C1168 C1165 1.463 1_556 S
C1168 N1172 1.427 . S
C1169 H1159 0.929 . S
C1169 C1167 1.433 . S
C1169 N1172 1.384 . S
C1170 H1161 0.929 . S
C1170 C1162 1.378 . S
C1170 C1165 1.350 . S
C1171 H1158 0.929 . S
C1171 C1163 1.433 . S
C1171 N1173 1.384 . S
N1172 C1168 1.427 . S
N1172 C1169 1.384 . S
N1173 C1165 1.427 . S
N1173 C1171 1.384 . S
H1174 C1180 0.930 . S
H1175 C1184 0.930 . S
H1176 C1189 0.929 . S
H1177 C1187 0.929 . S
H1178 C1182 0.929 . S
H1179 C1188 0.929 . S
C1180 H1174 0.930 . S
C1180 C1181 1.367 . S
C1180 C1188 1.378 . S
C1181 C1180 1.367 . S
C1181 C1189 1.433 . S
C1182 H1178 0.929 . S
C1182 C1184 1.378 . S
C1182 C1186 1.350 . S
C1183 C1186 1.463 . S
C1183 C1188 1.350 . S
C1183 N1191 1.427 . S
C1184 H1175 0.930 . S
C1184 C1182 1.378 . S
C1184 C1185 1.367 . S
C1185 C1184 1.367 . S
C1185 C1187 1.433 . S
C1186 C1182 1.350 . S
C1186 C1183 1.463 . S
C1186 N1190 1.427 . S
C1187 H1177 0.929 . S
C1187 C1185 1.433 . S
C1187 N1190 1.384 . S
C1188 H1179 0.929 . S
C1188 C1180 1.378 . S
C1188 C1183 1.350 . S
C1189 H1176 0.929 . S
C1189 C1181 1.433 . S
C1189 N1191 1.384 . S
N1190 C1186 1.427 . S
N1190 C1187 1.384 . S
N1191 C1183 1.427 . S
N1191 C1189 1.384 . S
H1192 C1198 0.930 . S
H1193 C1202 0.930 . S
H1194 C1207 0.929 . S
H1195 C1205 0.929 . S
H1196 C1200 0.929 . S
H1197 C1206 0.929 . S
C1198 H1192 0.930 . S
C1198 C1199 1.367 . S
C1198 C1206 1.378 . S
C1199 C1198 1.367 . S
C1199 C1207 1.433 . S
C1200 H1196 0.929 . S
C1200 C1202 1.378 . S
C1200 C1204 1.350 . S
C1201 C1204 1.463 1_554 S
C1201 C1206 1.350 . S
C1201 N1209 1.427 . S
C1202 H1193 0.930 . S
C1202 C1200 1.378 . S
C1202 C1203 1.367 . S
C1203 C1202 1.367 . S
C1203 C1205 1.433 . S
C1204 C1200 1.350 . S
C1204 C1201 1.463 1_556 S
C1204 N1208 1.427 . S
C1205 H1195 0.929 . S
C1205 C1203 1.433 . S
C1205 N1208 1.384 . S
C1206 H1197 0.929 . S
C1206 C1198 1.378 . S
C1206 C1201 1.350 . S
C1207 H1194 0.929 . S
C1207 C1199 1.433 . S
C1207 N1209 1.384 . S
N1208 C1204 1.427 . S
N1208 C1205 1.384 . S
N1209 C1201 1.427 . S
N1209 C1207 1.384 . S
H1210 C1216 0.930 . S
H1211 C1220 0.930 . S
H1212 C1225 0.929 . S
H1213 C1223 0.929 . S
H1214 C1218 0.929 . S
H1215 C1224 0.929 . S
C1216 H1210 0.930 . S
C1216 C1217 1.367 . S
C1216 C1224 1.378 . S
C1217 C1216 1.367 . S
C1217 C1225 1.433 . S
C1218 H1214 0.929 . S
C1218 C1220 1.378 . S
C1218 C1222 1.350 . S
C1219 C1222 1.463 . S
C1219 C1224 1.350 . S
C1219 N1227 1.427 . S
C1220 H1211 0.930 . S
C1220 C1218 1.378 . S
C1220 C1221 1.367 . S
C1221 C1220 1.367 . S
C1221 C1223 1.433 . S
C1222 C1218 1.350 . S
C1222 C1219 1.463 . S
C1222 N1226 1.427 . S
C1223 H1213 0.929 . S
C1223 C1221 1.433 . S
C1223 N1226 1.384 . S
C1224 H1215 0.929 . S
C1224 C1216 1.378 . S
C1224 C1219 1.350 . S
C1225 H1212 0.929 . S
C1225 C1217 1.433 . S
C1225 N1227 1.384 . S
N1226 C1222 1.427 . S
N1226 C1223 1.384 . S
N1227 C1219 1.427 . S
N1227 C1225 1.384 . S
H1228 C1234 0.930 . S
H1229 C1238 0.930 . S
H1230 C1243 0.929 . S
H1231 C1241 0.929 . S
H1232 C1236 0.929 . S
H1233 C1242 0.929 . S
C1234 H1228 0.930 . S
C1234 C1235 1.367 . S
C1234 C1242 1.378 . S
C1235 C1234 1.367 . S
C1235 C1243 1.433 . S
C1236 H1232 0.929 . S
C1236 C1238 1.378 . S
C1236 C1240 1.350 . S
C1237 C1240 1.463 1_554 S
C1237 C1242 1.350 . S
C1237 N1245 1.427 . S
C1238 H1229 0.930 . S
C1238 C1236 1.378 . S
C1238 C1239 1.367 . S
C1239 C1238 1.367 . S
C1239 C1241 1.433 . S
C1240 C1236 1.350 . S
C1240 C1237 1.463 1_556 S
C1240 N1244 1.427 . S
C1241 H1231 0.929 . S
C1241 C1239 1.433 . S
C1241 N1244 1.384 . S
C1242 H1233 0.929 . S
C1242 C1234 1.378 . S
C1242 C1237 1.350 . S
C1243 H1230 0.929 . S
C1243 C1235 1.433 . S
C1243 N1245 1.384 . S
N1244 C1240 1.427 . S
N1244 C1241 1.384 . S
N1245 C1237 1.427 . S
N1245 C1243 1.384 . S
H1246 C1252 0.930 . S
H1247 C1256 0.930 . S
H1248 C1261 0.929 . S
H1249 C1259 0.929 . S
H1250 C1254 0.929 . S
H1251 C1260 0.929 . S
C1252 H1246 0.930 . S
C1252 C1253 1.367 . S
C1252 C1260 1.378 . S
C1253 C1252 1.367 . S
C1253 C1261 1.433 . S
C1254 H1250 0.929 . S
C1254 C1256 1.378 . S
C1254 C1258 1.350 . S
C1255 C1258 1.463 . S
C1255 C1260 1.350 . S
C1255 N1263 1.427 . S
C1256 H1247 0.930 . S
C1256 C1254 1.378 . S
C1256 C1257 1.367 . S
C1257 C1256 1.367 . S
C1257 C1259 1.433 . S
C1258 C1254 1.350 . S
C1258 C1255 1.463 . S
C1258 N1262 1.427 . S
C1259 H1249 0.929 . S
C1259 C1257 1.433 . S
C1259 N1262 1.384 . S
C1260 H1251 0.929 . S
C1260 C1252 1.378 . S
C1260 C1255 1.350 . S
C1261 H1248 0.929 . S
C1261 C1253 1.433 . S
C1261 N1263 1.384 . S
N1262 C1258 1.427 . S
N1262 C1259 1.384 . S
N1263 C1255 1.427 . S
N1263 C1261 1.384 . S
C551 C9 1.962 . S
C555 C247 1.958 . S
C569 C145 1.959 . S
C573 C43 1.957 . S
C587 C179 1.968 . S
C591 C77 1.968 . S
C605 C111 1.968 . S
C609 C213 1.968 . S
C623 C281 1.957 . S
C627 C519 1.960 . S
C641 C315 1.959 . S
C645 C417 1.957 . S
C659 C451 1.963 . S
C663 C349 1.967 . S
C677 C383 1.960 . S
C681 C485 1.965 . S
C695 C2 1.174 . S
C699 C339 1.135 . S
C713 C373 1.131 . S
C717 C36 1.187 . S
C731 C407 1.147 . S
C735 C70 1.178 . S
C749 C305 1.138 . S
C753 C104 1.187 . S
C767 C543 1.133 . S
C771 C138 1.174 . S
C785 C441 1.129 . S
C789 C172 1.175 . S
C803 C475 1.141 . S
C807 C206 1.175 . S
C821 C509 1.147 . S
C825 C240 1.178 . S
C839 C67 1.129 . S
C843 C274 1.175 . S
C857 C101 1.143 . S
C861 C308 1.175 . S
C875 C135 1.124 . S
C879 C342 1.184 . S
C893 C376 1.185 . S
C897 C33 1.126 . S
C911 C271 1.140 . S
C915 C410 1.174 . S
C929 C169 1.147 . S
C933 C444 1.182 . S
C947 C203 1.145 . S
C951 C478 1.184 . S
C965 C237 1.137 . S
C969 C512 1.174 . S
C983 C73 0.793 . S
C987 C5 0.784 . S
C1001 C39 0.800 . S
C1005 C107 0.788 . S
C1019 C209 0.794 . S
C1023 C141 0.784 . S
C1037 C243 0.804 . S
C1041 C175 0.792 . S
C1055 C345 0.785 . S
C1059 C277 0.795 . S
C1073 C379 0.798 . S
C1077 C311 0.786 . S
C1091 C413 0.787 . S
C1095 C481 0.799 . S
C1109 C515 0.805 . S
C1113 C447 0.811 . S
C1127 C224 1.482 . S
C1131 C20 1.472 . S
C1145 C258 1.474 . S
C1149 C54 1.479 . S
C1163 C88 1.482 . S
C1167 C156 1.472 . S
C1181 C190 1.482 . S
C1185 C122 1.472 . S
C1199 C496 1.481 . S
C1203 C292 1.473 . S
C1217 C530 1.473 . S
C1221 C326 1.481 . S
C1235 C428 1.472 . S
C1239 C360 1.482 . S
C1253 C394 1.475 . S
C1257 C462 1.479 . S
