# Generated by pormake.
# Topology unp, (4)-cn, num edge types: 1
# Building blocks:
#     Node 0, Type 0, BuildingBlock: TATPOV_clean_sbu_0, # of connection points: 4
#     Node 1, Type 0, BuildingBlock: TATPOV_clean_sbu_0, # of connection points: 4
#     Node 2, Type 0, BuildingBlock: TATPOV_clean_sbu_0, # of connection points: 4
#     Node 3, Type 0, BuildingBlock: TATPOV_clean_sbu_0, # of connection points: 4
#     Node 4, Type 0, BuildingBlock: TATPOV_clean_sbu_0, # of connection points: 4
#     Node 5, Type 0, BuildingBlock: TATPOV_clean_sbu_0, # of connection points: 4
#     Node 6, Type 0, BuildingBlock: TATPOV_clean_sbu_0, # of connection points: 4
#     Node 7, Type 0, BuildingBlock: TATPOV_clean_sbu_0, # of connection points: 4
#     Node 8, Type 0, BuildingBlock: TATPOV_clean_sbu_0, # of connection points: 4
#     Node 9, Type 0, BuildingBlock: TATPOV_clean_sbu_0, # of connection points: 4
#     Node 10, Type 0, BuildingBlock: TATPOV_clean_sbu_0, # of connection points: 4
#     Node 11, Type 0, BuildingBlock: TATPOV_clean_sbu_0, # of connection points: 4
#     Node 12, Type 0, BuildingBlock: TATPOV_clean_sbu_0, # of connection points: 4
#     Node 13, Type 0, BuildingBlock: TATPOV_clean_sbu_0, # of connection points: 4
#     Node 14, Type 0, BuildingBlock: TATPOV_clean_sbu_0, # of connection points: 4
#     Node 15, Type 0, BuildingBlock: TATPOV_clean_sbu_0, # of connection points: 4
#     Node 16, Type 0, BuildingBlock: TATPOV_clean_sbu_0, # of connection points: 4
#     Node 17, Type 0, BuildingBlock: TATPOV_clean_sbu_0, # of connection points: 4
#     Edge 18, Type (0, 0), BuildingBlock: EZIPEK_clean_linker_0, # of connection points: 2
#     Edge 19, Type (0, 0), BuildingBlock: EZIPEK_clean_linker_0, # of connection points: 2
#     Edge 20, Type (0, 0), BuildingBlock: EZIPEK_clean_linker_0, # of connection points: 2
#     Edge 21, Type (0, 0), BuildingBlock: EZIPEK_clean_linker_0, # of connection points: 2
#     Edge 22, Type (0, 0), BuildingBlock: EZIPEK_clean_linker_0, # of connection points: 2
#     Edge 23, Type (0, 0), BuildingBlock: EZIPEK_clean_linker_0, # of connection points: 2
#     Edge 24, Type (0, 0), BuildingBlock: EZIPEK_clean_linker_0, # of connection points: 2
#     Edge 25, Type (0, 0), BuildingBlock: EZIPEK_clean_linker_0, # of connection points: 2
#     Edge 26, Type (0, 0), BuildingBlock: EZIPEK_clean_linker_0, # of connection points: 2
#     Edge 27, Type (0, 0), BuildingBlock: EZIPEK_clean_linker_0, # of connection points: 2
#     Edge 28, Type (0, 0), BuildingBlock: EZIPEK_clean_linker_0, # of connection points: 2
#     Edge 29, Type (0, 0), BuildingBlock: EZIPEK_clean_linker_0, # of connection points: 2
#     Edge 30, Type (0, 0), BuildingBlock: EZIPEK_clean_linker_0, # of connection points: 2
#     Edge 31, Type (0, 0), BuildingBlock: EZIPEK_clean_linker_0, # of connection points: 2
#     Edge 32, Type (0, 0), BuildingBlock: EZIPEK_clean_linker_0, # of connection points: 2
#     Edge 33, Type (0, 0), BuildingBlock: EZIPEK_clean_linker_0, # of connection points: 2
#     Edge 34, Type (0, 0), BuildingBlock: EZIPEK_clean_linker_0, # of connection points: 2
#     Edge 35, Type (0, 0), BuildingBlock: EZIPEK_clean_linker_0, # of connection points: 2
#     Edge 36, Type (0, 0), BuildingBlock: EZIPEK_clean_linker_0, # of connection points: 2
#     Edge 37, Type (0, 0), BuildingBlock: EZIPEK_clean_linker_0, # of connection points: 2
#     Edge 38, Type (0, 0), BuildingBlock: EZIPEK_clean_linker_0, # of connection points: 2
#     Edge 39, Type (0, 0), BuildingBlock: EZIPEK_clean_linker_0, # of connection points: 2
#     Edge 40, Type (0, 0), BuildingBlock: EZIPEK_clean_linker_0, # of connection points: 2
#     Edge 41, Type (0, 0), BuildingBlock: EZIPEK_clean_linker_0, # of connection points: 2
#     Edge 42, Type (0, 0), BuildingBlock: EZIPEK_clean_linker_0, # of connection points: 2
#     Edge 43, Type (0, 0), BuildingBlock: EZIPEK_clean_linker_0, # of connection points: 2
#     Edge 44, Type (0, 0), BuildingBlock: EZIPEK_clean_linker_0, # of connection points: 2
#     Edge 45, Type (0, 0), BuildingBlock: EZIPEK_clean_linker_0, # of connection points: 2
#     Edge 46, Type (0, 0), BuildingBlock: EZIPEK_clean_linker_0, # of connection points: 2
#     Edge 47, Type (0, 0), BuildingBlock: EZIPEK_clean_linker_0, # of connection points: 2
#     Edge 48, Type (0, 0), BuildingBlock: EZIPEK_clean_linker_0, # of connection points: 2
#     Edge 49, Type (0, 0), BuildingBlock: EZIPEK_clean_linker_0, # of connection points: 2
#     Edge 50, Type (0, 0), BuildingBlock: EZIPEK_clean_linker_0, # of connection points: 2
#     Edge 51, Type (0, 0), BuildingBlock: EZIPEK_clean_linker_0, # of connection points: 2
#     Edge 52, Type (0, 0), BuildingBlock: EZIPEK_clean_linker_0, # of connection points: 2
#     Edge 53, Type (0, 0), BuildingBlock: EZIPEK_clean_linker_0, # of connection points: 2
# Relax obj value: 0.357
# Max RMSD: 0.181
# Mean RMSD: 0.181
data_MOF--net-unp--node1-TATPOV_clean_sbu_0--edge1-EZIPEK_clean_linker_0
_symmetry_space_group_name_H-M    P1
_symmetry_Int_Tables_number       1
_symmetry_cell_setting            triclinic
loop_
_symmetry_equiv_pos_as_xyz
'x, y, z'
_cell_length_a     33.510507
_cell_length_b     33.399892
_cell_length_c     49.090315
_cell_angle_alpha  89.770085
_cell_angle_beta   90.361131
_cell_angle_gamma 120.20865
loop_
_atom_site_label
_atom_site_type_symbol
_atom_site_fract_x
_atom_site_fract_y
_atom_site_fract_z
_atom_type_partial_charge
Zn0 Zn 0.09689 0.16077 0.07002 0.0
Zn1 Zn 0.15181 0.1817 0.10967 0.0
O2 O 0.1407 0.11569 0.10239 0.0
O3 O 0.08805 0.0964 0.07043 0.0
O4 O 0.19841 0.20608 0.14027 0.0
O5 O 0.14059 0.20877 0.04487 0.0
O6 O 0.18997 0.22848 0.07872 0.0
C7 C 0.11166 0.08566 0.08589 0.0
C8 C 0.05694 0.1773 0.11401 0.0
O9 O 0.09265 0.18008 0.12545 0.0
O10 O 0.05186 0.172 0.08854 0.0
C11 C 0.23695 0.2086 0.13581 0.0
O12 O 0.24338 0.19303 0.1127 0.0
C13 C 0.18058 0.23477 0.05442 0.0
Zn14 Zn 0.84285 0.00271 0.06541 0.0
Zn15 Zn 0.78275 0.98833 0.10292 0.0
O16 O 0.84421 0.04647 0.11453 0.0
O17 O 0.89373 0.0614 0.08148 0.0
O18 O 0.74258 0.99391 0.13064 0.0
O19 O 0.80269 0.00222 0.03502 0.0
O20 O 0.7495 0.98404 0.06619 0.0
C21 C 0.88433 0.07118 0.10452 0.0
C22 C 0.80892 0.91644 0.09697 0.0
O23 O 0.78427 0.92876 0.11016 0.0
O24 O 0.83508 0.94144 0.07793 0.0
C25 C 0.70057 0.98295 0.12839 0.0
O26 O 0.67591 0.95878 0.10738 0.0
C27 C 0.76162 0.99022 0.04127 0.0
Zn28 Zn 0.95743 0.82574 0.04719 0.0
Zn29 Zn 0.96268 0.79218 0.08863 0.0
O30 O 0.89927 0.78596 0.09449 0.0
O31 O 0.91161 0.8401 0.06465 0.0
O32 O 0.96682 0.7584 0.12148 0.0
O33 O 0.93416 0.77032 0.02398 0.0
O34 O 0.96706 0.75239 0.0568 0.0
C35 C 0.88843 0.81425 0.08424 0.0
C36 C 0.03444 0.88947 0.07142 0.0
O37 O 0.01077 0.86324 0.09106 0.0
O38 O 0.02624 0.87229 0.04784 0.0
C39 C 0.9724 0.77071 0.14629 0.0
O40 O 0.98275 0.81297 0.15283 0.0
C41 C 0.94937 0.74511 0.03296 0.0
Zn42 Zn 0.13654 0.11036 0.95076 0.0
Zn43 Zn 0.15212 0.15664 0.90858 0.0
O44 O 0.08564 0.14167 0.9112 0.0
O45 O 0.068 0.08395 0.9396 0.0
O46 O 0.17781 0.19562 0.87478 0.0
O47 O 0.16738 0.16252 0.97644 0.0
O48 O 0.19517 0.20245 0.93874 0.0
C49 C 0.05551 0.10548 0.92347 0.0
C50 C 0.15496 0.0665 0.91492 0.0
O51 O 0.14338 0.0914 0.90108 0.0
O52 O 0.17415 0.08167 0.93764 0.0
C53 C 0.16319 0.22302 0.86861 0.0
O54 O 0.13061 0.22287 0.88341 0.0
C55 C 0.19481 0.20005 0.96466 0.0
Zn56 Zn 0.78752 0.898 0.92468 0.0
Zn57 Zn 0.76559 0.93513 0.88581 0.0
O58 O 0.76434 0.87658 0.8701 0.0
O59 O 0.77375 0.84048 0.90465 0.0
O60 O 0.72992 0.94695 0.85654 0.0
O61 O 0.74411 0.89783 0.95231 0.0
O62 O 0.73164 0.93687 0.92081 0.0
C63 C 0.76705 0.84239 0.87943 0.0
C64 C 0.86244 0.9889 0.90487 0.0
O65 O 0.8327 0.98829 0.88823 0.0
O66 O 0.8514 0.95565 0.92139 0.0
C67 C 0.68775 0.91485 0.8564 0.0
O68 O 0.67371 0.88122 0.87435 0.0
C69 C 0.72551 0.92101 0.94501 0.0
Zn70 Zn 0.93653 0.81073 0.91559 0.0
Zn71 Zn 0.96365 0.77722 0.87764 0.0
O72 O 0.01959 0.84404 0.8808 0.0
O73 O 0.99479 0.87178 0.91294 0.0
O74 O 0.9858 0.74969 0.84967 0.0
O75 O 0.93203 0.76463 0.94283 0.0
O76 O 0.9574 0.73634 0.91135 0.0
C77 C 0.02572 0.87728 0.89622 0.0
C78 C 0.87458 0.78222 0.87141 0.0
O79 O 0.90303 0.77162 0.86121 0.0
O80 O 0.88115 0.79944 0.89499 0.0
C81 C 0.964 0.70663 0.84451 0.0
O82 O 0.92389 0.67953 0.856 0.0
C83 C 0.94418 0.73606 0.93566 0.0
Zn84 Zn 0.7832 0.45884 0.4638 0.0
Zn85 Zn 0.86771 0.52212 0.46207 0.0
O86 O 0.86639 0.4705 0.48608 0.0
O87 O 0.79524 0.41316 0.48367 0.0
O88 O 0.93335 0.5723 0.46882 0.0
O89 O 0.78495 0.46463 0.42212 0.0
O90 O 0.86062 0.50568 0.42136 0.0
C91 C 0.83614 0.4292 0.49227 0.0
C92 C 0.7893 0.53937 0.48117 0.0
O93 O 0.82943 0.55363 0.4714 0.0
O94 O 0.7626 0.49636 0.48457 0.0
C95 C 0.96543 0.56296 0.46576 0.0
O96 O 0.95594 0.5233 0.45482 0.0
C97 C 0.82222 0.4842 0.40862 0.0
Zn98 Zn 0.62145 0.45702 0.39199 0.0
Zn99 Zn 0.56478 0.42385 0.43458 0.0
O100 O 0.61898 0.48727 0.44569 0.0
O101 O 0.66258 0.51916 0.41009 0.0
O102 O 0.52409 0.41183 0.46666 0.0
O103 O 0.56694 0.4456 0.36821 0.0
O104 O 0.5213 0.41933 0.4038 0.0
C105 C 0.65402 0.5216 0.43492 0.0
C106 C 0.61485 0.37405 0.41813 0.0
O107 O 0.58411 0.37446 0.43316 0.0
O108 O 0.63505 0.40476 0.39991 0.0
C109 C 0.48083 0.38391 0.46714 0.0
O110 O 0.46076 0.35362 0.44746 0.0
C111 C 0.52711 0.42855 0.37854 0.0
Zn112 Zn 0.79373 0.27241 0.41466 0.0
Zn113 Zn 0.73627 0.20219 0.44462 0.0
O114 O 0.69356 0.22869 0.43842 0.0
O115 O 0.74193 0.28823 0.41308 0.0
O116 O 0.70356 0.1438 0.46664 0.0
O117 O 0.79978 0.23333 0.38592 0.0
O118 O 0.74715 0.17536 0.40959 0.0
C119 C 0.7033 0.26522 0.42496 0.0
C120 C 0.82691 0.28396 0.46805 0.0
O121 O 0.78825 0.24661 0.47033 0.0
O122 O 0.84063 0.30129 0.44463 0.0
C123 C 0.66026 0.1163 0.46638 0.0
O124 O 0.63327 0.12783 0.4532 0.0
C125 C 0.77291 0.19021 0.38872 0.0
Zn126 Zn 0.76321 0.43752 0.23894 0.0
Zn127 Zn 0.83134 0.51877 0.23206 0.0
O128 O 0.77737 0.52033 0.212 0.0
O129 O 0.71744 0.45431 0.22469 0.0
O130 O 0.88266 0.58457 0.22592 0.0
O131 O 0.77767 0.4379 0.27896 0.0
O132 O 0.82505 0.51251 0.27444 0.0
C133 C 0.73395 0.49251 0.21217 0.0
C134 C 0.83031 0.43528 0.20587 0.0
O135 O 0.85395 0.47749 0.21345 0.0
O136 O 0.78844 0.41116 0.2127 0.0
C137 C 0.88943 0.59813 0.20129 0.0
O138 O 0.86649 0.56829 0.18183 0.0
C139 C 0.80414 0.47688 0.28976 0.0
Zn140 Zn 0.55217 0.3954 0.2596 0.0
Zn141 Zn 0.48515 0.36282 0.22628 0.0
O142 O 0.50119 0.31038 0.22858 0.0
O143 O 0.56206 0.34175 0.25567 0.0
O144 O 0.43 0.33517 0.20111 0.0
O145 O 0.51724 0.39859 0.29022 0.0
O146 O 0.45891 0.37617 0.2616 0.0
C147 C 0.53405 0.30867 0.24072 0.0
C148 C 0.57561 0.45258 0.21357 0.0
O149 O 0.53657 0.41977 0.20532 0.0
O150 O 0.58901 0.45176 0.23758 0.0
C151 C 0.39409 0.29822 0.2087 0.0
O152 O 0.39393 0.28 0.2325 0.0
C153 C 0.47657 0.38955 0.28525 0.0
Zn154 Zn 0.72858 0.25473 0.26545 0.0
Zn155 Zn 0.70415 0.18804 0.22992 0.0
O156 O 0.7614 0.24275 0.21142 0.0
O157 O 0.78498 0.29551 0.2436 0.0
O158 O 0.68406 0.13553 0.20354 0.0
O159 O 0.73329 0.21708 0.29524 0.0
O160 O 0.71813 0.16246 0.26509 0.0
C161 C 0.79066 0.28288 0.22036 0.0
C162 C 0.64006 0.22628 0.24267 0.0
O163 O 0.64733 0.19679 0.2307 0.0
O164 O 0.66991 0.25564 0.25881 0.0
C165 C 0.7049 0.11263 0.20332 0.0
O166 O 0.73888 0.12315 0.22056 0.0
C167 C 0.72847 0.17815 0.28926 0.0
Zn168 Zn 0.37602 0.81112 0.75068 0.0
Zn169 Zn 0.44545 0.81066 0.76459 0.0
O170 O 0.4207 0.74433 0.75606 0.0
O171 O 0.35417 0.74036 0.74715 0.0
O172 O 0.50901 0.83634 0.78134 0.0
O173 O 0.39611 0.85088 0.71732 0.0
O174 O 0.4522 0.83664 0.72526 0.0
C175 C 0.37821 0.72066 0.74954 0.0
C176 C 0.36943 0.8126 0.80232 0.0
O177 O 0.40137 0.80394 0.79639 0.0
O178 O 0.35645 0.83044 0.78409 0.0
C179 C 0.53233 0.87838 0.78891 0.0
O180 O 0.51596 0.90629 0.78461 0.0
C181 C 0.43138 0.85021 0.70913 0.0
Zn182 Zn 0.20682 0.61855 0.74941 0.0
Zn183 Zn 0.13073 0.61541 0.76852 0.0
O184 O 0.1823 0.65363 0.79675 0.0
O185 O 0.24325 0.65134 0.78304 0.0
O186 O 0.07704 0.6171 0.78502 0.0
O187 O 0.20499 0.65626 0.71748 0.0
O188 O 0.13971 0.64931 0.7322 0.0
C189 C 0.22424 0.66443 0.80029 0.0
C190 C 0.12882 0.52572 0.75401 0.0
O191 O 0.10793 0.54565 0.76343 0.0
O192 O 0.1707 0.54909 0.74695 0.0
C193 C 0.08028 0.65662 0.78612 0.0
O194 O 0.11658 0.69284 0.77575 0.0
C195 C 0.17159 0.66352 0.71451 0.0
Zn196 Zn 0.24002 0.44081 0.69352 0.0
Zn197 Zn 0.25293 0.42506 0.74353 0.0
O198 O 0.18468 0.40391 0.73878 0.0
O199 O 0.17077 0.41339 0.69647 0.0
O200 O 0.25208 0.39379 0.77865 0.0
O201 O 0.27053 0.40803 0.67678 0.0
O202 O 0.29242 0.40932 0.71891 0.0
C203 C 0.15646 0.40181 0.72063 0.0
C204 C 0.293 0.52319 0.72938 0.0
O205 O 0.28423 0.49436 0.7487 0.0
O206 O 0.28091 0.50887 0.70511 0.0
C207 C 0.22365 0.35042 0.77794 0.0
O208 O 0.20088 0.33181 0.75525 0.0
C209 C 0.29567 0.4022 0.69382 0.0
Zn210 Zn 0.45833 0.77236 0.55324 0.0
Zn211 Zn 0.52599 0.85797 0.54455 0.0
O212 O 0.47503 0.84461 0.51626 0.0
O213 O 0.42119 0.77202 0.52089 0.0
O214 O 0.57066 0.92339 0.53372 0.0
O215 O 0.44971 0.79443 0.59008 0.0
O216 O 0.50694 0.86543 0.5828 0.0
C217 C 0.43656 0.81043 0.50873 0.0
C218 C 0.54549 0.77734 0.54736 0.0
O219 O 0.56081 0.82071 0.54445 0.0
O220 O 0.50277 0.74952 0.55042 0.0
C221 C 0.59144 0.93235 0.51105 0.0
O222 O 0.58983 0.89844 0.49669 0.0
C223 C 0.47527 0.83582 0.59811 0.0
Zn224 Zn 0.29025 0.7631 0.58062 0.0
Zn225 Zn 0.21709 0.69808 0.55644 0.0
O226 O 0.24681 0.65896 0.56425 0.0
O227 O 0.31167 0.71559 0.58173 0.0
O228 O 0.15733 0.65714 0.53626 0.0
O229 O 0.25667 0.76815 0.61253 0.0
O230 O 0.19531 0.71252 0.59263 0.0
C231 C 0.28694 0.67371 0.57431 0.0
C232 C 0.29125 0.7885 0.52728 0.0
O233 O 0.25726 0.74717 0.52777 0.0
O234 O 0.31004 0.80805 0.54954 0.0
C235 C 0.14276 0.67436 0.51829 0.0
O236 O 0.16683 0.71877 0.51265 0.0
C237 C 0.21366 0.74005 0.61273 0.0
Zn238 Zn 0.47008 0.59136 0.62588 0.0
Zn239 Zn 0.45048 0.54292 0.5806 0.0
O240 O 0.51269 0.60275 0.57469 0.0
O241 O 0.53405 0.63997 0.61341 0.0
O242 O 0.44758 0.50446 0.54859 0.0
O243 O 0.45732 0.53683 0.65006 0.0
O244 O 0.43707 0.49719 0.61219 0.0
C245 C 0.54189 0.63771 0.58842 0.0
C246 C 0.39283 0.58488 0.59238 0.0
O247 O 0.39988 0.55907 0.57645 0.0
O248 O 0.41679 0.60121 0.61392 0.0
C249 C 0.41658 0.46219 0.54598 0.0
O250 O 0.38231 0.44315 0.56333 0.0
C251 C 0.44128 0.49827 0.638 0.0
C252 C 0.3368 0.22884 0.18193 0.0
C253 C 0.35308 0.27505 0.19061 0.0
C254 C 0.29416 0.27843 0.16245 0.0
C255 C 0.2754 0.23097 0.15571 0.0
N256 N 0.27318 0.15847 0.16313 0.0
N257 N 0.34183 0.34081 0.19355 0.0
C258 C 0.29509 0.20541 0.16665 0.0
C259 C 0.33021 0.29904 0.18213 0.0
N260 N 0.36226 0.20802 0.18716 0.0
N261 N 0.27913 0.3045 0.14914 0.0
H262 H 0.36767 0.35681 0.20828 0.0
H263 H 0.32301 0.3575 0.19032 0.0
H264 H 0.25328 0.29105 0.13429 0.0
H265 H 0.29515 0.34036 0.15104 0.0
H266 H 0.35464 0.17632 0.1788 0.0
H267 H 0.39356 0.2243 0.19775 0.0
H268 H 0.28326 0.13732 0.17304 0.0
H269 H 0.24221 0.14 0.15235 0.0
C270 C 0.67932 0.99732 0.17436 0.0
C271 C 0.68483 0.00774 0.14618 0.0
C272 C 0.69622 0.08485 0.155 0.0
C273 C 0.69215 0.07503 0.18335 0.0
N274 N 0.66715 0.01856 0.21948 0.0
N275 N 0.68467 0.05501 0.10896 0.0
C276 C 0.6795 0.03002 0.19286 0.0
C277 C 0.68806 0.04919 0.13629 0.0
N278 N 0.67571 0.95688 0.18339 0.0
N279 N 0.71156 0.12904 0.14599 0.0
H280 H 0.67961 0.03001 0.09459 0.0
H281 H 0.68224 0.08252 0.10077 0.0
H282 H 0.71904 0.15667 0.15889 0.0
H283 H 0.72064 0.13938 0.12586 0.0
H284 H 0.67739 0.94953 0.20386 0.0
H285 H 0.67279 0.93125 0.17005 0.0
H286 H 0.65382 0.98518 0.2272 0.0
H287 H 0.66625 0.04168 0.23337 0.0
C288 C 0.95997 0.66358 0.17999 0.0
C289 C 0.91804 0.64783 0.19426 0.0
C290 C 0.91749 0.71885 0.18232 0.0
C291 C 0.95876 0.73404 0.16723 0.0
N292 N 0.02549 0.72762 0.15739 0.0
N293 N 0.86357 0.66498 0.2154 0.0
C294 C 0.98211 0.70853 0.16804 0.0
C295 C 0.89937 0.67728 0.19779 0.0
N296 N 0.97769 0.63485 0.17714 0.0
N297 N 0.89339 0.74178 0.18008 0.0
H298 H 0.84833 0.63408 0.22638 0.0
H299 H 0.85166 0.68716 0.221 0.0
H300 H 0.90502 0.77234 0.16909 0.0
H301 H 0.86012 0.72886 0.18755 0.0
H302 H 0.00504 0.64175 0.16431 0.0
H303 H 0.96358 0.60282 0.18695 0.0
H304 H 0.0462 0.71273 0.15916 0.0
H305 H 0.04242 0.76075 0.14883 0.0
C306 C 0.20354 0.33293 0.82763 0.0
C307 C 0.21446 0.32066 0.80226 0.0
C308 C 0.19151 0.24346 0.82011 0.0
C309 C 0.18424 0.2571 0.84611 0.0
N310 N 0.19861 0.32018 0.87623 0.0
N311 N 0.23178 0.26923 0.7772 0.0
C312 C 0.19504 0.30354 0.8504 0.0
C313 C 0.21259 0.27747 0.79941 0.0
N314 N 0.19842 0.37087 0.82985 0.0
N315 N 0.17601 0.1979 0.81449 0.0
H316 H 0.24918 0.29408 0.76214 0.0
H317 H 0.23496 0.23988 0.77538 0.0
H318 H 0.15823 0.17127 0.82848 0.0
H319 H 0.17657 0.18604 0.79497 0.0
H320 H 0.18583 0.37812 0.84738 0.0
H321 H 0.20184 0.39232 0.81349 0.0
H322 H 0.21024 0.35496 0.88032 0.0
H323 H 0.19543 0.30064 0.89356 0.0
C324 C 0.61771 0.92109 0.84825 0.0
C325 C 0.65342 0.91512 0.83738 0.0
C326 C 0.61408 0.89503 0.79298 0.0
C327 C 0.57532 0.89431 0.80503 0.0
N328 N 0.53788 0.90184 0.845 0.0
N329 N 0.6855 0.89424 0.79996 0.0
C330 C 0.57667 0.90665 0.83283 0.0
C331 C 0.65193 0.90206 0.80976 0.0
N332 N 0.62335 0.94094 0.87334 0.0
N333 N 0.61498 0.88986 0.76542 0.0
H334 H 0.71431 0.90031 0.81145 0.0
H335 H 0.68356 0.87926 0.78109 0.0
H336 H 0.58786 0.88478 0.7526 0.0
H337 H 0.64398 0.89454 0.75497 0.0
H338 H 0.60067 0.95052 0.88136 0.0
H339 H 0.65321 0.95203 0.88504 0.0
H340 H 0.53522 0.90513 0.86589 0.0
H341 H 0.50678 0.89067 0.83466 0.0
C342 C 0.01943 0.67889 0.78582 0.0
C343 C 0.04527 0.6629 0.80053 0.0
C344 C 0.00873 0.66538 0.84309 0.0
C345 C 0.98745 0.68685 0.82886 0.0
N346 N 0.97341 0.71635 0.78725 0.0
N347 N 0.06881 0.64523 0.84337 0.0
C348 C 0.99286 0.69406 0.80033 0.0
C349 C 0.04059 0.65659 0.82919 0.0
N350 N 0.0195 0.67842 0.75797 0.0
N351 N -0.00101 0.65399 0.86999 0.0
H352 H 0.09273 0.63853 0.83407 0.0
H353 H 0.07122 0.64583 0.86453 0.0
H354 H 0.97778 0.66203 0.88136 0.0
H355 H 0.00912 0.63352 0.88063 0.0
H356 H 0.99803 0.68539 0.74592 0.0
H357 H 0.03833 0.6671 0.74677 0.0
H358 H 0.98057 0.72777 0.76716 0.0
H359 H 0.95167 0.72564 0.797 0.0
C360 C 0.01341 0.59651 0.50789 0.0
C361 C 0.01083 0.59221 0.47905 0.0
C362 C 0.09531 0.63751 0.47635 0.0
C363 C 0.09749 0.64529 0.50487 0.0
N364 N 0.0586 0.63928 0.54718 0.0
N365 N 0.04815 0.61331 0.43532 0.0
C366 C 0.05654 0.62669 0.5205 0.0
C367 C 0.05151 0.61396 0.46311 0.0
N368 N 0.97507 0.57027 0.52339 0.0
N369 N 0.13508 0.65121 0.46211 0.0
H370 H 0.0166 0.59632 0.42499 0.0
H371 H 0.07614 0.63265 0.42256 0.0
H372 H 0.16772 0.66825 0.47118 0.0
H373 H 0.13566 0.64231 0.44187 0.0
H374 H 0.97614 0.56786 0.54451 0.0
H375 H 0.94268 0.54754 0.51515 0.0
H376 H 0.02949 0.63112 0.55872 0.0
H377 H 0.0895 0.66142 0.55721 0.0
C378 C 0.45718 0.41895 0.53457 0.0
C379 C 0.42494 0.43287 0.52719 0.0
C380 C 0.42155 0.4055 0.48066 0.0
C381 C 0.4537 0.39128 0.48814 0.0
N382 N 0.49086 0.37163 0.52351 0.0
N383 N 0.36735 0.42867 0.49595 0.0
C384 C 0.46759 0.39363 0.51564 0.0
C385 C 0.40376 0.42212 0.50118 0.0
N386 N 0.4795 0.43177 0.55915 0.0
N387 N 0.41084 0.40688 0.45388 0.0
H388 H 0.35438 0.44185 0.51046 0.0
H389 H 0.34754 0.41719 0.47821 0.0
H390 H 0.42321 0.39577 0.43795 0.0
H391 H 0.39225 0.42237 0.44717 0.0
H392 H 0.50705 0.42706 0.56433 0.0
H393 H 0.47296 0.45044 0.57363 0.0
H394 H 0.49845 0.36858 0.54375 0.0
H395 H 0.4983 0.35229 0.50995 0.0
C396 C 0.6152 0.02969 0.46135 0.0
C397 C 0.64159 0.06919 0.478 0.0
C398 C 0.6413 0.01887 0.51463 0.0
C399 C 0.61034 0.97934 0.49917 0.0
N400 N 0.55906 0.94807 0.46019 0.0
N401 N 0.67282 0.10099 0.5223 0.0
C402 C 0.59483 0.98492 0.47317 0.0
C403 C 0.65275 0.06369 0.50518 0.0
N404 N 0.61119 0.03451 0.43396 0.0
N405 N 0.66104 0.01374 0.53784 0.0
H406 H 0.68064 0.13417 0.51635 0.0
H407 H 0.67748 0.09819 0.54308 0.0
H408 H 0.65442 0.98154 0.54502 0.0
H409 H 0.68735 0.04156 0.54844 0.0
H410 H 0.59663 0.00648 0.42059 0.0
H411 H 0.62658 0.06644 0.42408 0.0
H412 H 0.54336 0.95165 0.44269 0.0
H413 H 0.54165 0.9147 0.46826 0.0
C414 C 0.98884 0.18618 0.11707 0.0
C415 C 0.01579 0.16947 0.12948 0.0
C416 C 0.94676 0.09591 0.1395 0.0
C417 C 0.92228 0.10814 0.12069 0.0
N418 N 0.91392 0.16734 0.0981 0.0
N419 N 0.01861 0.12115 0.16456 0.0
C420 C 0.94113 0.1547 0.11216 0.0
C421 C 0.99376 0.12876 0.14526 0.0
N422 N 0.0106 0.23082 0.10798 0.0
N423 N 0.92627 0.05205 0.1499 0.0
H424 H 0.05281 0.1461 0.16888 0.0
H425 H 0.00445 0.09296 0.1778 0.0
H426 H 0.89152 0.0279 0.1465 0.0
H427 H 0.94374 0.03928 0.16131 0.0
H428 H 0.99425 0.2462 0.09801 0.0
H429 H 0.04588 0.25288 0.11155 0.0
H430 H 0.92531 0.20034 0.09034 0.0
H431 H 0.87877 0.1442 0.09494 0.0
C432 C 0.83887 0.87422 0.12373 0.0
C433 C 0.80877 0.87314 0.10311 0.0
C434 C 0.81336 0.81119 0.0797 0.0
C435 C 0.85197 0.82108 0.09617 0.0
N436 N 0.89744 0.85504 0.13665 0.0
N437 N 0.75885 0.83506 0.06507 0.0
C438 C 0.86247 0.8493 0.11968 0.0
C439 C 0.7923 0.83871 0.08263 0.0
N440 N 0.84619 0.90085 0.1463 0.0
N441 N 0.79851 0.77671 0.06076 0.0
H442 H 0.74239 0.85428 0.06783 0.0
H443 H 0.74758 0.81375 0.04801 0.0
H444 H 0.81398 0.75643 0.05882 0.0
H445 H 0.76953 0.76608 0.04844 0.0
H446 H 0.86601 0.90193 0.16297 0.0
H447 H 0.829 0.9193 0.14914 0.0
H448 H 0.91044 0.87878 0.15256 0.0
H449 H 0.91423 0.83612 0.13445 0.0
C450 C 0.09713 0.01968 0.05646 0.0
C451 C 0.10535 0.03832 0.08301 0.0
C452 C 0.08366 0.96099 0.10048 0.0
C453 C 0.06311 0.94111 0.07486 0.0
N454 N 0.04024 0.95648 0.03027 0.0
N455 N 0.10336 0.02439 0.13162 0.0
C456 C 0.0676 0.9716 0.05304 0.0
C457 C 0.09844 0.00858 0.10552 0.0
N458 N 0.11563 0.04808 0.03442 0.0
N459 N 0.08992 0.93508 0.11976 0.0
H460 H 0.1138 0.05857 0.13647 0.0
H461 H 0.09366 0.00242 0.14847 0.0
H462 H 0.08252 0.90127 0.11613 0.0
H463 H 0.10773 0.94911 0.13794 0.0
H464 H 0.11242 0.03524 0.0147 0.0
H465 H 0.1384 0.08365 0.03644 0.0
H466 H 0.0419 0.9791 0.01501 0.0
H467 H 0.01089 0.92395 0.02844 0.0
C468 C 0.08992 0.93488 0.92407 0.0
C469 C 0.07057 0.92108 0.89787 0.0
C470 C 0.12287 0.99987 0.88164 0.0
C471 C 0.13185 0.01574 0.90911 0.0
N472 N 0.11081 0.99457 0.95699 0.0
N473 N 0.06875 0.94044 0.85073 0.0
C474 C 0.11292 0.98238 0.93068 0.0
C475 C 0.08763 0.95333 0.87613 0.0
N476 N 0.08338 0.90231 0.94316 0.0
N477 N 0.14779 0.02909 0.86096 0.0
H478 H 0.04369 0.90647 0.84601 0.0
H479 H 0.07624 0.96399 0.83488 0.0
H480 H 0.17489 0.0627 0.8645 0.0
H481 H 0.14485 0.01833 0.84078 0.0
H482 H 0.09957 0.91097 0.96219 0.0
H483 H 0.06598 0.86695 0.93864 0.0
H484 H 0.09416 0.97011 0.97233 0.0
H485 H 0.11819 0.02731 0.96312 0.0
C486 C 0.99037 0.05811 0.89125 0.0
C487 C 0.00615 0.08407 0.9158 0.0
C488 C 0.92631 0.0557 0.92993 0.0
C489 C 0.91054 0.02828 0.90593 0.0
N490 N 0.92598 0.01101 0.86096 0.0
N491 N 0.99101 0.116 0.95553 0.0
C492 C 0.94215 0.03239 0.88555 0.0
C493 C 0.97458 0.08561 0.93419 0.0
N494 N 0.02131 0.05569 0.87426 0.0
N495 N 0.89492 0.0519 0.94894 0.0
H496 H 0.02624 0.13817 0.95897 0.0
H497 H 0.97019 0.12192 0.96859 0.0
H498 H 0.85933 0.03276 0.94553 0.0
H499 H 0.90373 0.06636 0.96832 0.0
H500 H 0.01185 0.03283 0.85795 0.0
H501 H 0.05693 0.0747 0.87733 0.0
H502 H 0.94699 0.01624 0.84423 0.0
H503 H 0.89089 0.99081 0.85646 0.0
C504 C 0.79071 0.7485 0.86822 0.0
C505 C 0.83426 0.77759 0.8563 0.0
C506 C 0.8078 0.82997 0.84103 0.0
C507 C 0.77311 0.81035 0.86117 0.0
N508 N 0.71995 0.74249 0.88581 0.0
N509 N 0.88088 0.83939 0.82552 0.0
C510 C 0.75992 0.76576 0.87138 0.0
C511 C 0.84097 0.81536 0.83991 0.0
N512 N 0.78138 0.7066 0.87834 0.0
N513 N 0.80948 0.86297 0.82387 0.0
H514 H 0.90459 0.8279 0.8242 0.0
H515 H 0.89071 0.87057 0.81558 0.0
H516 H 0.78363 0.87168 0.82376 0.0
H517 H 0.83304 0.87753 0.80802 0.0
H518 H 0.75037 0.68291 0.88745 0.0
H519 H 0.80489 0.69499 0.8761 0.0
H520 H 0.70878 0.71085 0.89546 0.0
H521 H 0.6976 0.75562 0.88761 0.0
C522 C 0.72641 0.55319 0.4952 0.0
C523 C 0.76779 0.56896 0.48045 0.0
C524 C 0.73471 0.58841 0.4419 0.0
C525 C 0.69067 0.55756 0.45291 0.0
N526 N 0.64699 0.53729 0.49434 0.0
N527 N 0.81826 0.6259 0.44825 0.0
C528 C 0.6874 0.54962 0.48136 0.0
C529 C 0.7745 0.5957 0.45671 0.0
N530 N 0.72392 0.53755 0.52116 0.0
N531 N 0.73767 0.60855 0.41723 0.0
H532 H 0.84683 0.6323 0.46014 0.0
H533 H 0.82605 0.64685 0.43109 0.0
H534 H 0.70831 0.60533 0.40759 0.0
H535 H 0.76842 0.62869 0.40682 0.0
H536 H 0.69364 0.5213 0.53248 0.0
H537 H 0.75318 0.54075 0.53095 0.0
H538 H 0.64256 0.53217 0.51528 0.0
H539 H 0.61926 0.53641 0.48394 0.0
C540 C 0.62506 0.30948 0.40015 0.0
C541 C 0.6292 0.33888 0.4222 0.0
C542 C 0.67466 0.3124 0.44823 0.0
C543 C 0.6723 0.28486 0.42562 0.0
N544 N 0.63939 0.24979 0.38248 0.0
N545 N 0.65279 0.3649 0.46846 0.0
C546 C 0.64556 0.28112 0.4023 0.0
C547 C 0.65186 0.33873 0.4468 0.0
N548 N 0.60214 0.30947 0.37698 0.0
N549 N 0.70085 0.31513 0.47045 0.0
H550 H 0.63993 0.38749 0.46766 0.0
H551 H 0.66456 0.36329 0.48784 0.0
H552 H 0.71727 0.29575 0.47239 0.0
H553 H 0.70784 0.3373 0.48684 0.0
H554 H 0.60216 0.29345 0.35888 0.0
H555 H 0.58353 0.32677 0.37558 0.0
H556 H 0.61769 0.2423 0.36571 0.0
H557 H 0.65385 0.22852 0.38379 0.0
C558 C 0.89105 0.39909 0.49624 0.0
C559 C 0.84952 0.39671 0.50459 0.0
C560 C 0.81595 0.31369 0.51165 0.0
C561 C 0.84725 0.31504 0.49203 0.0
N562 N 0.92439 0.35689 0.47491 0.0
N563 N 0.77955 0.35479 0.53028 0.0
C564 C 0.88903 0.35726 0.48822 0.0
C565 C 0.81467 0.35494 0.51634 0.0
N566 N 0.93118 0.4406 0.4958 0.0
N567 N 0.78676 0.27297 0.52431 0.0
H568 H 0.77999 0.38561 0.53463 0.0
H569 H 0.75044 0.32474 0.537 0.0
H570 H 0.78916 0.24337 0.52102 0.0
H571 H 0.76386 0.26984 0.53953 0.0
H572 H 0.96294 0.44436 0.49053 0.0
H573 H 0.9331 0.47038 0.50382 0.0
H574 H 0.95438 0.38668 0.46884 0.0
H575 H 0.92238 0.32564 0.46963 0.0
C576 C 0.81249 0.32977 0.17806 0.0
C577 C 0.82686 0.31904 0.20275 0.0
C578 C 0.87993 0.40134 0.21061 0.0
C579 C 0.85134 0.41007 0.1934 0.0
N580 N 0.80463 0.38885 0.1532 0.0
N581 N 0.88728 0.3422 0.23579 0.0
C582 C 0.8238 0.37645 0.17373 0.0
C583 C 0.86644 0.35438 0.21614 0.0
N584 N 0.7864 0.29526 0.16009 0.0
N585 N 0.91679 0.43758 0.22304 0.0
H586 H 0.87653 0.30738 0.23949 0.0
H587 H 0.91445 0.36575 0.24798 0.0
H588 H 0.93953 0.4341 0.23601 0.0
H589 H 0.92591 0.47173 0.21855 0.0
H590 H 0.77507 0.30069 0.1414 0.0
H591 H 0.77973 0.26151 0.16322 0.0
H592 H 0.7808 0.36572 0.13921 0.0
H593 H 0.81311 0.42335 0.15073 0.0
C594 C 0.69119 0.53587 0.20855 0.0
C595 C 0.70149 0.50293 0.19754 0.0
C596 C 0.62577 0.46307 0.1755 0.0
C597 C 0.61145 0.48473 0.19443 0.0
N598 N 0.631 0.55527 0.21694 0.0
N599 N 0.68484 0.44396 0.1642 0.0
C600 C 0.64513 0.52712 0.20595 0.0
C601 C 0.6711 0.47015 0.17818 0.0
N602 N 0.72394 0.57249 0.22315 0.0
N603 N 0.59477 0.43351 0.15686 0.0
H604 H 0.71861 0.45017 0.16566 0.0
H605 H 0.6632 0.41645 0.15157 0.0
H606 H 0.56158 0.42891 0.15554 0.0
H607 H 0.60277 0.41683 0.14183 0.0
H608 H 0.71799 0.59628 0.23326 0.0
H609 H 0.75788 0.57942 0.22466 0.0
H610 H 0.59638 0.54652 0.21562 0.0
H611 H 0.65299 0.58718 0.2259 0.0
C612 C 0.53922 0.24188 0.25839 0.0
C613 C 0.54332 0.27048 0.23602 0.0
C614 C 0.59339 0.24793 0.2127 0.0
C615 C 0.59769 0.22855 0.23752 0.0
N616 N 0.57046 0.19996 0.2826 0.0
N617 N 0.57012 0.29829 0.19067 0.0
C618 C 0.5684 0.22243 0.25978 0.0
C619 C 0.56799 0.27156 0.21241 0.0
N620 N 0.50811 0.23461 0.27839 0.0
N621 N 0.61483 0.24506 0.18983 0.0
H622 H 0.55056 0.31459 0.18951 0.0
H623 H 0.59231 0.30581 0.17427 0.0
H624 H 0.6342 0.22856 0.18962 0.0
H625 H 0.61023 0.25527 0.17057 0.0
H626 H 0.50114 0.21223 0.29477 0.0
H627 H 0.48647 0.24866 0.27727 0.0
H628 H 0.58984 0.18339 0.28332 0.0
H629 H 0.55396 0.1983 0.3008 0.0
C630 C 0.29537 0.70053 0.82934 0.0
C631 C 0.25433 0.69956 0.82099 0.0
C632 C 0.29317 0.7837 0.82484 0.0
C633 C 0.33559 0.78417 0.82393 0.0
N634 N 0.37603 0.74846 0.84299 0.0
N635 N 0.2092 0.73669 0.82683 0.0
C636 C 0.33613 0.7442 0.83288 0.0
C637 C 0.25132 0.74011 0.82445 0.0
N638 N 0.29557 0.65997 0.83188 0.0
N639 N 0.29372 0.82477 0.82407 0.0
H640 H 0.17903 0.70469 0.82884 0.0
H641 H 0.20456 0.76493 0.82967 0.0
H642 H 0.26433 0.82768 0.82226 0.0
H643 H 0.32487 0.85622 0.82518 0.0
H644 H 0.32533 0.65813 0.83516 0.0
H645 H 0.26509 0.628 0.83028 0.0
H646 H 0.37869 0.72082 0.85072 0.0
H647 H 0.40542 0.78108 0.84555 0.0
C648 C 0.0958 0.42231 0.71193 0.0
C649 C 0.1146 0.40291 0.72983 0.0
C650 C 0.10775 0.44575 0.7678 0.0
C651 C 0.10439 0.47547 0.74849 0.0
N652 N 0.08258 0.48663 0.70363 0.0
N653 N 0.111 0.37515 0.77528 0.0
C654 C 0.09263 0.46096 0.72106 0.0
C655 C 0.10998 0.40684 0.75816 0.0
N656 N 0.08362 0.40496 0.68622 0.0
N657 N 0.1128 0.45722 0.79474 0.0
H658 H 0.11299 0.34706 0.7676 0.0
H659 H 0.10654 0.37478 0.79626 0.0
H660 H 0.11029 0.48535 0.80176 0.0
H661 H 0.11991 0.4396 0.80977 0.0
H662 H 0.06828 0.41629 0.67202 0.0
H663 H 0.08604 0.37628 0.6802 0.0
H664 H 0.07936 0.51443 0.71051 0.0
H665 H 0.07787 0.48082 0.68275 0.0
C666 C 0.32485 0.64917 0.72271 0.0
C667 C 0.35642 0.67007 0.74464 0.0
C668 C 0.35113 0.59561 0.75441 0.0
C669 C 0.31461 0.57359 0.73515 0.0
N670 N 0.25728 0.57936 0.7076 0.0
N671 N 0.3885 0.65877 0.78637 0.0
C672 C 0.29858 0.60027 0.72121 0.0
C673 C 0.36642 0.64208 0.76202 0.0
N674 N 0.32104 0.67551 0.70261 0.0
N675 N 0.37276 0.57333 0.76462 0.0
H676 H 0.39726 0.69138 0.79383 0.0
H677 H 0.39284 0.63797 0.80059 0.0
H678 H 0.36504 0.54047 0.75824 0.0
H679 H 0.40207 0.58985 0.77698 0.0
H680 H 0.30092 0.66105 0.68519 0.0
H681 H 0.34212 0.7114 0.70158 0.0
H682 H 0.23447 0.54371 0.70802 0.0
H683 H 0.24306 0.598 0.699 0.0
C684 C 0.59661 0.7622 0.57713 0.0
C685 C 0.57632 0.75792 0.55107 0.0
C686 C 0.57106 0.68283 0.54511 0.0
C687 C 0.57553 0.68101 0.57368 0.0
N688 N 0.61811 0.72498 0.6126 0.0
N689 N 0.55599 0.72099 0.50739 0.0
C690 C 0.59762 0.72324 0.58822 0.0
C691 C 0.56895 0.72096 0.53378 0.0
N692 N 0.61057 0.80157 0.59194 0.0
N693 N 0.56772 0.64765 0.52946 0.0
H694 H 0.55543 0.74956 0.49909 0.0
H695 H 0.5453 0.69308 0.49418 0.0
H696 H 0.57098 0.62077 0.53807 0.0
H697 H 0.56611 0.64734 0.50827 0.0
H698 H 0.62112 0.80539 0.6122 0.0
H699 H 0.6114 0.83074 0.58356 0.0
H700 H 0.63654 0.75496 0.62413 0.0
H701 H 0.6196 0.69633 0.61993 0.0
C702 C 0.35738 0.8522 0.50298 0.0
C703 C 0.31853 0.80708 0.50186 0.0
C704 C 0.36447 0.7781 0.48111 0.0
C705 C 0.404 0.81775 0.49154 0.0
N706 N 0.44018 0.90056 0.49551 0.0
N707 N 0.28118 0.73929 0.4738 0.0
C708 C 0.40123 0.85809 0.49628 0.0
C709 C 0.32076 0.77445 0.48469 0.0
N710 N 0.35231 0.88728 0.51311 0.0
N711 N 0.36892 0.74305 0.4703 0.0
H712 H 0.2496 0.73785 0.47658 0.0
H713 H 0.28043 0.71471 0.4605 0.0
H714 H 0.40148 0.74669 0.46749 0.0
H715 H 0.34103 0.71107 0.46472 0.0
H716 H 0.3797 0.92046 0.51702 0.0
H717 H 0.31958 0.88185 0.51786 0.0
H718 H 0.44034 0.93152 0.49825 0.0
H719 H 0.4717 0.90437 0.48949 0.0
C720 C 0.32294 0.59066 0.60291 0.0
C721 C 0.35959 0.60001 0.58488 0.0
C722 C 0.3384 0.64668 0.55612 0.0
C723 C 0.30668 0.64304 0.57625 0.0
N724 N 0.26937 0.61378 0.61945 0.0
N725 N 0.4061 0.64141 0.54586 0.0
C726 C 0.29869 0.6152 0.59973 0.0
C727 C 0.36798 0.62862 0.56161 0.0
N728 N 0.31108 0.55787 0.6228 0.0
N729 N 0.34028 0.66761 0.53177 0.0
H730 H 0.42934 0.6298 0.54925 0.0
H731 H 0.41695 0.66662 0.53071 0.0
H732 H 0.3194 0.68173 0.52729 0.0
H733 H 0.35935 0.66728 0.51519 0.0
H734 H 0.2822 0.54645 0.63515 0.0
H735 H 0.32795 0.539 0.62536 0.0
H736 H 0.26625 0.59879 0.63853 0.0
H737 H 0.24987 0.63005 0.61727 0.0
C738 C 0.24957 0.2509 0.0291 0.0
C739 C 0.21705 0.26456 0.03487 0.0
C740 C 0.20639 0.27156 0.98634 0.0
C741 C 0.22313 0.24084 0.98196 0.0
N742 N 0.27364 0.21327 0.99597 0.0
N743 N 0.18205 0.30801 0.02037 0.0
C744 C 0.25066 0.23601 0.00221 0.0
C745 C 0.2031 0.28358 0.01366 0.0
N746 N 0.27602 0.24905 0.04968 0.0
N747 N 0.19029 0.28525 0.96477 0.0
H748 H 0.17918 0.31514 0.04075 0.0
H749 H 0.16856 0.32148 0.0063 0.0
H750 H 0.19311 0.27615 0.94486 0.0
H751 H 0.17662 0.30703 0.96634 0.0
H752 H 0.30132 0.24009 0.04692 0.0
H753 H 0.27464 0.26049 0.06924 0.0
H754 H 0.29116 0.20458 0.01022 0.0
H755 H 0.27429 0.20282 0.97601 0.0
C756 C 0.72451 0.98575 0.96952 0.0
C757 C 0.70631 0.93749 0.96668 0.0
C758 C 0.69412 0.92841 0.01591 0.0
C759 C 0.72741 0.97608 0.01874 0.0
N760 N 0.76611 0.05234 -0.00069 0.0
N761 N 0.66059 0.86158 0.9856 0.0
C762 C 0.73895 0.00566 0.99583 0.0
C763 C 0.68558 0.90835 0.98946 0.0
N764 N 0.72859 0.01205 0.94725 0.0
N765 N 0.67245 0.90255 0.03837 0.0
H766 H 0.65295 0.84736 0.96603 0.0
H767 H 0.64834 0.83735 0.0013 0.0
H768 H 0.67702 0.91729 0.05762 0.0
H769 H 0.64664 0.86788 0.03762 0.0
H770 H 0.73997 0.04732 0.94825 0.0
H771 H 0.71508 0.99713 0.92833 0.0
H772 H 0.7804 0.07577 0.98327 0.0
H773 H 0.77514 0.06709 0.01872 0.0
C774 C 0.99113 0.72525 0.97026 0.0
C775 C 0.94771 0.70717 0.95728 0.0
C776 C 0.90906 0.68094 0.00096 0.0
C777 C 0.95132 0.71248 0.01357 0.0
N778 N 0.03381 0.75031 0.01321 0.0
N779 N 0.86654 0.65387 0.95811 0.0
C780 C 0.99306 0.72853 -0.0008 0.0
C781 C 0.90703 0.67875 0.97206 0.0
N782 N 0.02985 0.74236 0.95466 0.0
N783 N 0.8709 0.65714 0.01682 0.0
H784 H 0.86599 0.65316 0.93682 0.0
H785 H 0.8345 0.63384 0.96723 0.0
H786 H 0.87331 0.66017 0.03803 0.0
H787 H 0.83822 0.63358 0.00938 0.0
H788 H 0.06322 0.75694 0.96243 0.0
H789 H 0.02765 0.73946 0.93346 0.0
H790 H 0.06619 0.76549 0.0042 0.0
H791 H 0.03451 0.75181 0.03445 0.0
C792 C 0.85193 0.5133 0.33286 0.0
C793 C 0.80977 0.48019 0.32019 0.0
C794 C 0.78213 0.44413 0.36486 0.0
C795 C 0.82001 0.48227 0.37806 0.0
N796 N 0.8844 0.5609 0.37276 0.0
N797 N 0.72875 0.42378 0.32748 0.0
C798 C 0.8532 0.51922 0.36162 0.0
C799 C 0.77298 0.4484 0.33713 0.0
N800 N 0.89138 0.53781 0.31807 0.0
N801 N 0.75562 0.40314 0.37817 0.0
H802 H 0.71896 0.42955 0.30833 0.0
H803 H 0.70093 0.40257 0.34002 0.0
H804 H 0.76382 0.39632 0.39752 0.0
H805 H 0.72937 0.37396 0.36841 0.0
H806 H 0.92329 0.55966 0.32721 0.0
H807 H 0.89369 0.53187 0.29749 0.0
H808 H 0.90661 0.58934 0.36085 0.0
H809 H 0.88407 0.56924 0.39313 0.0
C810 C 0.4698 0.44064 0.31698 0.0
C811 C 0.45135 0.39469 0.30801 0.0
C812 C 0.45626 0.36949 0.35374 0.0
C813 C 0.48743 0.4167 0.36024 0.0
N814 N 0.51152 0.49679 0.35295 0.0
N815 N 0.40571 0.31481 0.31907 0.0
C816 C 0.48909 0.45227 0.34363 0.0
C817 C 0.43593 0.35888 0.32732 0.0
N818 N 0.47322 0.47301 0.29869 0.0
N819 N 0.44963 0.33533 0.37164 0.0
H820 H 0.39303 0.30819 0.29909 0.0
H821 H 0.39131 0.28618 0.33197 0.0
H822 H 0.46327 0.34235 0.3913 0.0
H823 H 0.43079 0.30015 0.36711 0.0
H824 H 0.48769 0.5081 0.30296 0.0
H825 H 0.45981 0.46327 0.27898 0.0
H826 H 0.51537 0.52507 0.34182 0.0
H827 H 0.52501 0.5048 0.37271 0.0
C828 C 0.79956 0.17522 0.34483 0.0
C829 C 0.76477 0.15961 0.36486 0.0
C830 C 0.70494 0.12763 0.33001 0.0
C831 C 0.73927 0.15405 0.31062 0.0
N832 N 0.81807 0.18855 0.29646 0.0
N833 N 0.68875 0.09807 0.37639 0.0
C834 C 0.78645 0.17188 0.31697 0.0
C835 C 0.7187 0.12752 0.35739 0.0
N836 N 0.84458 0.19557 0.35297 0.0
N837 N 0.65955 0.10602 0.32254 0.0
H838 H 0.69993 0.09597 0.39596 0.0
H839 H 0.655 0.07246 0.37188 0.0
H840 H 0.64956 0.1051 0.30225 0.0
H841 H 0.63243 0.09041 0.33634 0.0
H842 H 0.87261 0.20964 0.33982 0.0
H843 H 0.85325 0.19682 0.37356 0.0
H844 H 0.85348 0.20319 0.29931 0.0
H845 H 0.80784 0.18573 0.27608 0.0
C846 C 0.42013 0.83538 0.63194 0.0
C847 C 0.46627 0.84925 0.62516 0.0
C848 C 0.48999 0.87873 0.67162 0.0
C849 C 0.44296 0.85547 0.67965 0.0
N850 N 0.3628 0.80203 0.66693 0.0
N851 N 0.54562 0.88058 0.63972 0.0
C852 C 0.40765 0.8317 0.65969 0.0
C853 C 0.50164 0.87066 0.64517 0.0
N854 N 0.38802 0.82534 0.61186 0.0
N855 N 0.52343 0.90854 0.68922 0.0
H856 H 0.55564 0.87416 0.62096 0.0
H857 H 0.57128 0.89147 0.65461 0.0
H858 H 0.51576 0.91598 0.70847 0.0
H859 H 0.55786 0.9294 0.68363 0.0
H860 H 0.35483 0.81905 0.61586 0.0
H861 H 0.39626 0.82871 0.59119 0.0
H862 H 0.33746 0.78101 0.65286 0.0
H863 H 0.35146 0.79358 0.68691 0.0
C864 C 0.21215 0.7588 0.66194 0.0
C865 C 0.18822 0.73151 0.63902 0.0
C866 C 0.13952 0.66617 0.66864 0.0
C867 C 0.17077 0.68965 0.69039 0.0
N868 N 0.23259 0.76019 0.7096 0.0
N869 N 0.11416 0.67193 0.623 0.0
C870 C 0.20523 0.73702 0.68777 0.0
C871 C 0.14675 0.68911 0.64315 0.0
N872 N 0.24048 0.80541 0.65874 0.0
N873 N 0.10523 0.62114 0.67173 0.0
H874 H 0.11778 0.69089 0.60531 0.0
H875 H 0.08174 0.64251 0.62519 0.0
H876 H 0.0985 0.60352 0.69024 0.0
H877 H 0.08497 0.60053 0.65567 0.0
H878 H 0.25729 0.82826 0.67473 0.0
H879 H 0.243 0.82159 0.64006 0.0
H880 H 0.26189 0.79292 0.70832 0.0
H881 H 0.22659 0.74574 0.7291 0.0
C882 C 0.38024 0.41435 0.64176 0.0
C883 C 0.41685 0.4543 0.65415 0.0
C884 C 0.37915 0.42583 0.69804 0.0
C885 C 0.33679 0.40071 0.6837 0.0
N886 N 0.29855 0.35664 0.64369 0.0
N887 N 0.45977 0.48685 0.69546 0.0
C888 C 0.33803 0.38937 0.65611 0.0
C889 C 0.41948 0.45589 0.68296 0.0
N890 N 0.38637 0.40053 0.61686 0.0
N891 N 0.38037 0.42066 0.72554 0.0
H892 H 0.4902 0.50595 0.6844 0.0
H893 H 0.46287 0.49345 0.7163 0.0
H894 H 0.35153 0.39571 0.7361 0.0
H895 H 0.41055 0.43686 0.73713 0.0
H896 H 0.3616 0.3704 0.60721 0.0
H897 H 0.41871 0.41683 0.60764 0.0
H898 H 0.29582 0.35021 0.62282 0.0
H899 H 0.26831 0.33656 0.65475 0.0
loop_
_geom_bond_atom_site_label_1
_geom_bond_atom_site_label_2
_geom_bond_distance
_geom_bond_site_symmetry_2
_ccdc_geom_bond_type
Zn0 O3 2.031 . S
Zn0 O5 2.049 . S
Zn0 O10 2.067 . S
Zn1 O2 1.962 . S
Zn1 O4 1.986 . S
Zn1 O6 1.996 . S
Zn1 O9 1.943 . S
O2 Zn1 1.962 . S
O2 C7 1.254 . S
O3 Zn0 2.031 . S
O3 C7 1.269 . S
O4 Zn1 1.986 . S
O4 C11 1.262 . S
O5 Zn0 2.049 . S
O5 C13 1.260 . S
O6 Zn1 1.996 . S
O6 C13 1.257 . S
C7 O2 1.254 . S
C7 O3 1.269 . S
C8 O9 1.249 . S
C8 O10 1.270 . S
O9 Zn1 1.943 . S
O9 C8 1.249 . S
O10 Zn0 2.067 . S
O10 C8 1.270 . S
C11 O4 1.262 . S
C11 O12 1.232 . S
O12 C11 1.232 . S
C13 O5 1.260 . S
C13 O6 1.257 . S
Zn14 O17 2.031 1_565 S
Zn14 O19 2.049 . S
Zn14 O24 2.067 . S
Zn15 O16 1.962 . S
Zn15 O18 1.986 . S
Zn15 O20 1.996 . S
Zn15 O23 1.943 1_545 S
O16 Zn15 1.962 . S
O16 C21 1.254 . S
O17 Zn14 2.031 1_545 S
O17 C21 1.269 . S
O18 Zn15 1.986 . S
O18 C25 1.262 . S
O19 Zn14 2.049 . S
O19 C27 1.260 . S
O20 Zn15 1.996 . S
O20 C27 1.257 1_545 S
C21 O16 1.254 . S
C21 O17 1.269 . S
C22 O23 1.249 . S
C22 O24 1.270 . S
O23 Zn15 1.943 1_565 S
O23 C22 1.249 . S
O24 Zn14 2.067 . S
O24 C22 1.270 . S
C25 O18 1.262 . S
C25 O26 1.232 . S
O26 C25 1.232 . S
C27 O19 1.260 . S
C27 O20 1.257 1_565 S
Zn28 O31 2.031 1_455 S
Zn28 O33 2.049 . S
Zn28 O38 2.067 . S
Zn29 O30 1.962 . S
Zn29 O32 1.986 . S
Zn29 O34 1.996 . S
Zn29 O37 1.943 1_655 S
O30 Zn29 1.962 . S
O30 C35 1.254 . S
O31 Zn28 2.031 1_655 S
O31 C35 1.269 . S
O32 Zn29 1.986 . S
O32 C39 1.262 . S
O33 Zn28 2.049 . S
O33 C41 1.260 . S
O34 Zn29 1.996 . S
O34 C41 1.257 1_655 S
C35 O30 1.254 . S
C35 O31 1.269 . S
C36 O37 1.249 . S
C36 O38 1.270 . S
O37 Zn29 1.943 1_455 S
O37 C36 1.249 . S
O38 Zn28 2.067 . S
O38 C36 1.270 . S
C39 O32 1.262 . S
C39 O40 1.232 . S
O40 C39 1.232 . S
C41 O33 1.260 . S
C41 O34 1.257 1_455 S
Zn42 O45 2.031 . S
Zn42 O47 2.049 . S
Zn42 O52 2.067 . S
Zn43 O44 1.962 . S
Zn43 O46 1.986 . S
Zn43 O48 1.996 . S
Zn43 O51 1.943 . S
O44 Zn43 1.962 . S
O44 C49 1.254 . S
O45 Zn42 2.031 . S
O45 C49 1.269 . S
O46 Zn43 1.986 . S
O46 C53 1.262 . S
O47 Zn42 2.049 . S
O47 C55 1.260 . S
O48 Zn43 1.996 . S
O48 C55 1.257 . S
C49 O44 1.254 . S
C49 O45 1.269 . S
C50 O51 1.249 . S
C50 O52 1.270 . S
O51 Zn43 1.943 . S
O51 C50 1.249 . S
O52 Zn42 2.067 . S
O52 C50 1.270 . S
C53 O46 1.262 . S
C53 O54 1.232 . S
O54 C53 1.232 . S
C55 O47 1.260 . S
C55 O48 1.257 . S
Zn56 O59 2.031 1_545 S
Zn56 O61 2.049 . S
Zn56 O66 2.067 . S
Zn57 O58 1.962 . S
Zn57 O60 1.986 . S
Zn57 O62 1.996 . S
Zn57 O65 1.943 1_565 S
O58 Zn57 1.962 . S
O58 C63 1.254 . S
O59 Zn56 2.031 1_565 S
O59 C63 1.269 . S
O60 Zn57 1.986 . S
O60 C67 1.262 . S
O61 Zn56 2.049 . S
O61 C69 1.260 . S
O62 Zn57 1.996 . S
O62 C69 1.257 1_565 S
C63 O58 1.254 . S
C63 O59 1.269 . S
C64 O65 1.249 . S
C64 O66 1.270 . S
O65 Zn57 1.943 1_545 S
O65 C64 1.249 . S
O66 Zn56 2.067 . S
O66 C64 1.270 . S
C67 O60 1.262 . S
C67 O68 1.232 . S
O68 C67 1.232 . S
C69 O61 1.260 . S
C69 O62 1.257 1_545 S
Zn70 O73 2.031 1_655 S
Zn70 O75 2.049 . S
Zn70 O80 2.067 . S
Zn71 O72 1.962 . S
Zn71 O74 1.986 . S
Zn71 O76 1.996 . S
Zn71 O79 1.943 1_455 S
O72 Zn71 1.962 . S
O72 C77 1.254 . S
O73 Zn70 2.031 1_455 S
O73 C77 1.269 . S
O74 Zn71 1.986 . S
O74 C81 1.262 . S
O75 Zn70 2.049 . S
O75 C83 1.260 . S
O76 Zn71 1.996 . S
O76 C83 1.257 1_455 S
C77 O72 1.254 . S
C77 O73 1.269 . S
C78 O79 1.249 . S
C78 O80 1.270 . S
O79 Zn71 1.943 1_655 S
O79 C78 1.249 . S
O80 Zn70 2.067 . S
O80 C78 1.270 . S
C81 O74 1.262 . S
C81 O82 1.232 . S
O82 C81 1.232 . S
C83 O75 1.260 . S
C83 O76 1.257 1_655 S
Zn84 O87 2.031 . S
Zn84 O89 2.049 . S
Zn84 O94 2.067 . S
Zn85 O86 1.962 . S
Zn85 O88 1.986 . S
Zn85 O90 1.996 . S
Zn85 O93 1.943 . S
O86 Zn85 1.962 . S
O86 C91 1.254 . S
O87 Zn84 2.031 . S
O87 C91 1.269 . S
O88 Zn85 1.986 . S
O88 C95 1.262 . S
O89 Zn84 2.049 . S
O89 C97 1.260 . S
O90 Zn85 1.996 . S
O90 C97 1.257 . S
C91 O86 1.254 . S
C91 O87 1.269 . S
C92 O93 1.249 . S
C92 O94 1.270 . S
O93 Zn85 1.943 . S
O93 C92 1.249 . S
O94 Zn84 2.067 . S
O94 C92 1.270 . S
C95 O88 1.262 . S
C95 O96 1.232 . S
O96 C95 1.232 . S
C97 O89 1.260 . S
C97 O90 1.257 . S
Zn98 O101 2.031 . S
Zn98 O103 2.049 . S
Zn98 O108 2.067 . S
Zn99 O100 1.962 . S
Zn99 O102 1.986 . S
Zn99 O104 1.996 . S
Zn99 O107 1.943 . S
O100 Zn99 1.962 . S
O100 C105 1.254 . S
O101 Zn98 2.031 . S
O101 C105 1.269 . S
O102 Zn99 1.986 . S
O102 C109 1.262 . S
O103 Zn98 2.049 . S
O103 C111 1.260 . S
O104 Zn99 1.996 . S
O104 C111 1.257 . S
C105 O100 1.254 . S
C105 O101 1.269 . S
C106 O107 1.249 . S
C106 O108 1.270 . S
O107 Zn99 1.943 . S
O107 C106 1.249 . S
O108 Zn98 2.067 . S
O108 C106 1.270 . S
C109 O102 1.262 . S
C109 O110 1.232 . S
O110 C109 1.232 . S
C111 O103 1.260 . S
C111 O104 1.257 . S
Zn112 O115 2.031 . S
Zn112 O117 2.049 . S
Zn112 O122 2.067 . S
Zn113 O114 1.962 . S
Zn113 O116 1.986 . S
Zn113 O118 1.996 . S
Zn113 O121 1.943 . S
O114 Zn113 1.962 . S
O114 C119 1.254 . S
O115 Zn112 2.031 . S
O115 C119 1.269 . S
O116 Zn113 1.986 . S
O116 C123 1.262 . S
O117 Zn112 2.049 . S
O117 C125 1.260 . S
O118 Zn113 1.996 . S
O118 C125 1.257 . S
C119 O114 1.254 . S
C119 O115 1.269 . S
C120 O121 1.249 . S
C120 O122 1.270 . S
O121 Zn113 1.943 . S
O121 C120 1.249 . S
O122 Zn112 2.067 . S
O122 C120 1.270 . S
C123 O116 1.262 . S
C123 O124 1.232 . S
O124 C123 1.232 . S
C125 O117 1.260 . S
C125 O118 1.257 . S
Zn126 O129 2.031 . S
Zn126 O131 2.049 . S
Zn126 O136 2.067 . S
Zn127 O128 1.962 . S
Zn127 O130 1.986 . S
Zn127 O132 1.996 . S
Zn127 O135 1.943 . S
O128 Zn127 1.962 . S
O128 C133 1.254 . S
O129 Zn126 2.031 . S
O129 C133 1.269 . S
O130 Zn127 1.986 . S
O130 C137 1.262 . S
O131 Zn126 2.049 . S
O131 C139 1.260 . S
O132 Zn127 1.996 . S
O132 C139 1.257 . S
C133 O128 1.254 . S
C133 O129 1.269 . S
C134 O135 1.249 . S
C134 O136 1.270 . S
O135 Zn127 1.943 . S
O135 C134 1.249 . S
O136 Zn126 2.067 . S
O136 C134 1.270 . S
C137 O130 1.262 . S
C137 O138 1.232 . S
O138 C137 1.232 . S
C139 O131 1.260 . S
C139 O132 1.257 . S
Zn140 O143 2.031 . S
Zn140 O145 2.049 . S
Zn140 O150 2.067 . S
Zn141 O142 1.962 . S
Zn141 O144 1.986 . S
Zn141 O146 1.996 . S
Zn141 O149 1.943 . S
O142 Zn141 1.962 . S
O142 C147 1.254 . S
O143 Zn140 2.031 . S
O143 C147 1.269 . S
O144 Zn141 1.986 . S
O144 C151 1.262 . S
O145 Zn140 2.049 . S
O145 C153 1.260 . S
O146 Zn141 1.996 . S
O146 C153 1.257 . S
C147 O142 1.254 . S
C147 O143 1.269 . S
C148 O149 1.249 . S
C148 O150 1.270 . S
O149 Zn141 1.943 . S
O149 C148 1.249 . S
O150 Zn140 2.067 . S
O150 C148 1.270 . S
C151 O144 1.262 . S
C151 O152 1.232 . S
O152 C151 1.232 . S
C153 O145 1.260 . S
C153 O146 1.257 . S
Zn154 O157 2.031 . S
Zn154 O159 2.049 . S
Zn154 O164 2.067 . S
Zn155 O156 1.962 . S
Zn155 O158 1.986 . S
Zn155 O160 1.996 . S
Zn155 O163 1.943 . S
O156 Zn155 1.962 . S
O156 C161 1.254 . S
O157 Zn154 2.031 . S
O157 C161 1.269 . S
O158 Zn155 1.986 . S
O158 C165 1.262 . S
O159 Zn154 2.049 . S
O159 C167 1.260 . S
O160 Zn155 1.996 . S
O160 C167 1.257 . S
C161 O156 1.254 . S
C161 O157 1.269 . S
C162 O163 1.249 . S
C162 O164 1.270 . S
O163 Zn155 1.943 . S
O163 C162 1.249 . S
O164 Zn154 2.067 . S
O164 C162 1.270 . S
C165 O158 1.262 . S
C165 O166 1.232 . S
O166 C165 1.232 . S
C167 O159 1.260 . S
C167 O160 1.257 . S
Zn168 O171 2.031 . S
Zn168 O173 2.049 . S
Zn168 O178 2.067 . S
Zn169 O170 1.962 . S
Zn169 O172 1.986 . S
Zn169 O174 1.996 . S
Zn169 O177 1.943 . S
O170 Zn169 1.962 . S
O170 C175 1.254 . S
O171 Zn168 2.031 . S
O171 C175 1.269 . S
O172 Zn169 1.986 . S
O172 C179 1.262 . S
O173 Zn168 2.049 . S
O173 C181 1.260 . S
O174 Zn169 1.996 . S
O174 C181 1.257 . S
C175 O170 1.254 . S
C175 O171 1.269 . S
C176 O177 1.249 . S
C176 O178 1.270 . S
O177 Zn169 1.943 . S
O177 C176 1.249 . S
O178 Zn168 2.067 . S
O178 C176 1.270 . S
C179 O172 1.262 . S
C179 O180 1.232 . S
O180 C179 1.232 . S
C181 O173 1.260 . S
C181 O174 1.257 . S
Zn182 O185 2.031 . S
Zn182 O187 2.049 . S
Zn182 O192 2.067 . S
Zn183 O184 1.962 . S
Zn183 O186 1.986 . S
Zn183 O188 1.996 . S
Zn183 O191 1.943 . S
O184 Zn183 1.962 . S
O184 C189 1.254 . S
O185 Zn182 2.031 . S
O185 C189 1.269 . S
O186 Zn183 1.986 . S
O186 C193 1.262 . S
O187 Zn182 2.049 . S
O187 C195 1.260 . S
O188 Zn183 1.996 . S
O188 C195 1.257 . S
C189 O184 1.254 . S
C189 O185 1.269 . S
C190 O191 1.249 . S
C190 O192 1.270 . S
O191 Zn183 1.943 . S
O191 C190 1.249 . S
O192 Zn182 2.067 . S
O192 C190 1.270 . S
C193 O186 1.262 . S
C193 O194 1.232 . S
O194 C193 1.232 . S
C195 O187 1.260 . S
C195 O188 1.257 . S
Zn196 O199 2.031 . S
Zn196 O201 2.049 . S
Zn196 O206 2.067 . S
Zn197 O198 1.962 . S
Zn197 O200 1.986 . S
Zn197 O202 1.996 . S
Zn197 O205 1.943 . S
O198 Zn197 1.962 . S
O198 C203 1.254 . S
O199 Zn196 2.031 . S
O199 C203 1.269 . S
O200 Zn197 1.986 . S
O200 C207 1.262 . S
O201 Zn196 2.049 . S
O201 C209 1.260 . S
O202 Zn197 1.996 . S
O202 C209 1.257 . S
C203 O198 1.254 . S
C203 O199 1.269 . S
C204 O205 1.249 . S
C204 O206 1.270 . S
O205 Zn197 1.943 . S
O205 C204 1.249 . S
O206 Zn196 2.067 . S
O206 C204 1.270 . S
C207 O200 1.262 . S
C207 O208 1.232 . S
O208 C207 1.232 . S
C209 O201 1.260 . S
C209 O202 1.257 . S
Zn210 O213 2.031 . S
Zn210 O215 2.049 . S
Zn210 O220 2.067 . S
Zn211 O212 1.962 . S
Zn211 O214 1.986 . S
Zn211 O216 1.996 . S
Zn211 O219 1.943 . S
O212 Zn211 1.962 . S
O212 C217 1.254 . S
O213 Zn210 2.031 . S
O213 C217 1.269 . S
O214 Zn211 1.986 . S
O214 C221 1.262 . S
O215 Zn210 2.049 . S
O215 C223 1.260 . S
O216 Zn211 1.996 . S
O216 C223 1.257 . S
C217 O212 1.254 . S
C217 O213 1.269 . S
C218 O219 1.249 . S
C218 O220 1.270 . S
O219 Zn211 1.943 . S
O219 C218 1.249 . S
O220 Zn210 2.067 . S
O220 C218 1.270 . S
C221 O214 1.262 . S
C221 O222 1.232 . S
O222 C221 1.232 . S
C223 O215 1.260 . S
C223 O216 1.257 . S
Zn224 O227 2.031 . S
Zn224 O229 2.049 . S
Zn224 O234 2.067 . S
Zn225 O226 1.962 . S
Zn225 O228 1.986 . S
Zn225 O230 1.996 . S
Zn225 O233 1.943 . S
O226 Zn225 1.962 . S
O226 C231 1.254 . S
O227 Zn224 2.031 . S
O227 C231 1.269 . S
O228 Zn225 1.986 . S
O228 C235 1.262 . S
O229 Zn224 2.049 . S
O229 C237 1.260 . S
O230 Zn225 1.996 . S
O230 C237 1.257 . S
C231 O226 1.254 . S
C231 O227 1.269 . S
C232 O233 1.249 . S
C232 O234 1.270 . S
O233 Zn225 1.943 . S
O233 C232 1.249 . S
O234 Zn224 2.067 . S
O234 C232 1.270 . S
C235 O228 1.262 . S
C235 O236 1.232 . S
O236 C235 1.232 . S
C237 O229 1.260 . S
C237 O230 1.257 . S
Zn238 O241 2.031 . S
Zn238 O243 2.049 . S
Zn238 O248 2.067 . S
Zn239 O240 1.962 . S
Zn239 O242 1.986 . S
Zn239 O244 1.996 . S
Zn239 O247 1.943 . S
O240 Zn239 1.962 . S
O240 C245 1.254 . S
O241 Zn238 2.031 . S
O241 C245 1.269 . S
O242 Zn239 1.986 . S
O242 C249 1.262 . S
O243 Zn238 2.049 . S
O243 C251 1.260 . S
O244 Zn239 1.996 . S
O244 C251 1.257 . S
C245 O240 1.254 . S
C245 O241 1.269 . S
C246 O247 1.249 . S
C246 O248 1.270 . S
O247 Zn239 1.943 . S
O247 C246 1.249 . S
O248 Zn238 2.067 . S
O248 C246 1.270 . S
C249 O242 1.262 . S
C249 O250 1.232 . S
O250 C249 1.232 . S
C251 O243 1.260 . S
C251 O244 1.257 . S
C252 C253 1.363 . S
C252 C258 1.379 . S
C252 N260 1.356 . S
C253 C252 1.363 . S
C253 C259 1.363 . S
C254 C255 1.363 . S
C254 C259 1.379 . S
C254 N261 1.356 . S
C255 C254 1.363 . S
C255 C258 1.363 . S
N256 C258 1.356 . S
N256 H268 0.984 . S
N256 H269 0.985 . S
N257 C259 1.356 . S
N257 H262 0.984 . S
N257 H263 0.985 . S
C258 C252 1.379 . S
C258 C255 1.363 . S
C258 N256 1.356 . S
C259 C253 1.363 . S
C259 C254 1.379 . S
C259 N257 1.356 . S
N260 C252 1.356 . S
N260 H266 0.984 . S
N260 H267 0.984 . S
N261 C254 1.356 . S
N261 H264 0.984 . S
N261 H265 0.985 . S
H262 N257 0.984 . S
H263 N257 0.985 . S
H264 N261 0.984 . S
H265 N261 0.985 . S
H266 N260 0.984 . S
H267 N260 0.984 . S
H268 N256 0.984 . S
H269 N256 0.985 . S
C270 C271 1.363 . S
C270 C276 1.379 . S
C270 N278 1.356 . S
C271 C270 1.363 . S
C271 C277 1.363 . S
C272 C273 1.363 . S
C272 C277 1.379 . S
C272 N279 1.356 . S
C273 C272 1.363 . S
C273 C276 1.363 . S
N274 C276 1.356 . S
N274 H286 0.984 . S
N274 H287 0.985 . S
N275 C277 1.356 1_565 S
N275 H280 0.984 . S
N275 H281 0.985 . S
C276 C270 1.379 . S
C276 C273 1.363 . S
C276 N274 1.356 . S
C277 C271 1.363 . S
C277 C272 1.379 . S
C277 N275 1.356 1_545 S
N278 C270 1.356 . S
N278 H284 0.984 . S
N278 H285 0.984 . S
N279 C272 1.356 . S
N279 H282 0.984 . S
N279 H283 0.985 . S
H280 N275 0.984 . S
H281 N275 0.985 . S
H282 N279 0.984 . S
H283 N279 0.985 . S
H284 N278 0.984 . S
H285 N278 0.984 . S
H286 N274 0.984 . S
H287 N274 0.985 . S
C288 C289 1.363 . S
C288 C294 1.379 . S
C288 N296 1.356 . S
C289 C288 1.363 . S
C289 C295 1.363 . S
C290 C291 1.363 . S
C290 C295 1.379 . S
C290 N297 1.356 . S
C291 C290 1.363 . S
C291 C294 1.363 . S
N292 C294 1.356 1_455 S
N292 H304 0.984 . S
N292 H305 0.985 . S
N293 C295 1.356 . S
N293 H298 0.984 . S
N293 H299 0.985 . S
C294 C288 1.379 . S
C294 C291 1.363 . S
C294 N292 1.356 1_655 S
C295 C289 1.363 . S
C295 C290 1.379 . S
C295 N293 1.356 . S
N296 C288 1.356 . S
N296 H302 0.984 . S
N296 H303 0.984 . S
N297 C290 1.356 . S
N297 H300 0.984 . S
N297 H301 0.985 . S
H298 N293 0.984 . S
H299 N293 0.985 . S
H300 N297 0.984 . S
H301 N297 0.985 . S
H302 N296 0.984 . S
H303 N296 0.984 . S
H304 N292 0.984 . S
H305 N292 0.985 . S
C306 C307 1.363 . S
C306 C312 1.379 . S
C306 N314 1.356 . S
C307 C306 1.363 . S
C307 C313 1.363 . S
C308 C309 1.363 . S
C308 C313 1.379 . S
C308 N315 1.356 . S
C309 C308 1.363 . S
C309 C312 1.363 . S
N310 C312 1.356 . S
N310 H322 0.984 . S
N310 H323 0.985 . S
N311 C313 1.356 . S
N311 H316 0.984 . S
N311 H317 0.985 . S
C312 C306 1.379 . S
C312 C309 1.363 . S
C312 N310 1.356 . S
C313 C307 1.363 . S
C313 C308 1.379 . S
C313 N311 1.356 . S
N314 C306 1.356 . S
N314 H320 0.984 . S
N314 H321 0.984 . S
N315 C308 1.356 . S
N315 H318 0.984 . S
N315 H319 0.985 . S
H316 N311 0.984 . S
H317 N311 0.985 . S
H318 N315 0.984 . S
H319 N315 0.985 . S
H320 N314 0.984 . S
H321 N314 0.984 . S
H322 N310 0.984 . S
H323 N310 0.985 . S
C324 C325 1.363 . S
C324 C330 1.379 . S
C324 N332 1.356 . S
C325 C324 1.363 . S
C325 C331 1.363 . S
C326 C327 1.363 . S
C326 C331 1.379 . S
C326 N333 1.356 . S
C327 C326 1.363 . S
C327 C330 1.363 . S
N328 C330 1.356 . S
N328 H340 0.984 . S
N328 H341 0.985 . S
N329 C331 1.356 . S
N329 H334 0.984 1_565 S
N329 H335 0.985 . S
C330 C324 1.379 . S
C330 C327 1.363 . S
C330 N328 1.356 . S
C331 C325 1.363 . S
C331 C326 1.379 . S
C331 N329 1.356 . S
N332 C324 1.356 . S
N332 H338 0.984 . S
N332 H339 0.984 . S
N333 C326 1.356 . S
N333 H336 0.984 . S
N333 H337 0.985 . S
H334 N329 0.984 1_545 S
H335 N329 0.985 . S
H336 N333 0.984 . S
H337 N333 0.985 . S
H338 N332 0.984 . S
H339 N332 0.984 . S
H340 N328 0.984 . S
H341 N328 0.985 . S
C342 C343 1.363 . S
C342 C348 1.379 . S
C342 N350 1.356 . S
C343 C342 1.363 . S
C343 C349 1.363 . S
C344 C345 1.363 . S
C344 C349 1.379 . S
C344 N351 1.356 1_455 S
C345 C344 1.363 . S
C345 C348 1.363 . S
N346 C348 1.356 . S
N346 H358 0.984 . S
N346 H359 0.985 . S
N347 C349 1.356 . S
N347 H352 0.984 . S
N347 H353 0.985 . S
C348 C342 1.379 . S
C348 C345 1.363 . S
C348 N346 1.356 . S
C349 C343 1.363 . S
C349 C344 1.379 . S
C349 N347 1.356 . S
N350 C342 1.356 . S
N350 H356 0.984 . S
N350 H357 0.984 . S
N351 C344 1.356 1_655 S
N351 H354 0.984 . S
N351 H355 0.985 . S
H352 N347 0.984 . S
H353 N347 0.985 . S
H354 N351 0.984 . S
H355 N351 0.985 . S
H356 N350 0.984 . S
H357 N350 0.984 . S
H358 N346 0.984 . S
H359 N346 0.985 . S
C360 C361 1.363 . S
C360 C366 1.379 1_655 S
C360 N368 1.356 . S
C361 C360 1.363 . S
C361 C367 1.363 . S
C362 C363 1.363 . S
C362 C367 1.379 1_455 S
C362 N369 1.356 . S
C363 C362 1.363 . S
C363 C366 1.363 . S
N364 C366 1.356 . S
N364 H376 0.984 . S
N364 H377 0.985 . S
N365 C367 1.356 . S
N365 H370 0.984 . S
N365 H371 0.985 . S
C366 C360 1.379 1_455 S
C366 C363 1.363 . S
C366 N364 1.356 . S
C367 C361 1.363 . S
C367 C362 1.379 1_655 S
C367 N365 1.356 . S
N368 C360 1.356 . S
N368 H374 0.984 . S
N368 H375 0.984 . S
N369 C362 1.356 . S
N369 H372 0.984 . S
N369 H373 0.985 . S
H370 N365 0.984 . S
H371 N365 0.985 . S
H372 N369 0.984 . S
H373 N369 0.985 . S
H374 N368 0.984 . S
H375 N368 0.984 . S
H376 N364 0.984 . S
H377 N364 0.985 . S
C378 C379 1.363 . S
C378 C384 1.379 . S
C378 N386 1.356 . S
C379 C378 1.363 . S
C379 C385 1.363 . S
C380 C381 1.363 . S
C380 C385 1.379 . S
C380 N387 1.356 . S
C381 C380 1.363 . S
C381 C384 1.363 . S
N382 C384 1.356 . S
N382 H394 0.984 . S
N382 H395 0.985 . S
N383 C385 1.356 . S
N383 H388 0.984 . S
N383 H389 0.985 . S
C384 C378 1.379 . S
C384 C381 1.363 . S
C384 N382 1.356 . S
C385 C379 1.363 . S
C385 C380 1.379 . S
C385 N383 1.356 . S
N386 C378 1.356 . S
N386 H392 0.984 . S
N386 H393 0.984 . S
N387 C380 1.356 . S
N387 H390 0.984 . S
N387 H391 0.985 . S
H388 N383 0.984 . S
H389 N383 0.985 . S
H390 N387 0.984 . S
H391 N387 0.985 . S
H392 N386 0.984 . S
H393 N386 0.984 . S
H394 N382 0.984 . S
H395 N382 0.985 . S
C396 C397 1.363 . S
C396 C402 1.379 1_545 S
C396 N404 1.356 . S
C397 C396 1.363 . S
C397 C403 1.363 . S
C398 C399 1.363 . S
C398 C403 1.379 1_565 S
C398 N405 1.356 . S
C399 C398 1.363 . S
C399 C402 1.363 . S
N400 C402 1.356 . S
N400 H412 0.984 . S
N400 H413 0.985 . S
N401 C403 1.356 . S
N401 H406 0.984 . S
N401 H407 0.985 . S
C402 C396 1.379 1_565 S
C402 C399 1.363 . S
C402 N400 1.356 . S
C403 C397 1.363 . S
C403 C398 1.379 1_545 S
C403 N401 1.356 . S
N404 C396 1.356 . S
N404 H410 0.984 . S
N404 H411 0.984 . S
N405 C398 1.356 . S
N405 H408 0.984 . S
N405 H409 0.985 . S
H406 N401 0.984 . S
H407 N401 0.985 . S
H408 N405 0.984 . S
H409 N405 0.985 . S
H410 N404 0.984 . S
H411 N404 0.984 . S
H412 N400 0.984 . S
H413 N400 0.985 . S
C414 C415 1.363 . S
C414 C420 1.379 1_455 S
C414 N422 1.356 . S
C415 C414 1.363 . S
C415 C421 1.363 . S
C416 C417 1.363 . S
C416 C421 1.379 1_655 S
C416 N423 1.356 . S
C417 C416 1.363 . S
C417 C420 1.363 . S
N418 C420 1.356 . S
N418 H430 0.984 . S
N418 H431 0.985 . S
N419 C421 1.356 . S
N419 H424 0.984 . S
N419 H425 0.985 . S
C420 C414 1.379 1_655 S
C420 C417 1.363 . S
C420 N418 1.356 . S
C421 C415 1.363 . S
C421 C416 1.379 1_455 S
C421 N419 1.356 . S
N422 C414 1.356 . S
N422 H428 0.984 . S
N422 H429 0.984 . S
N423 C416 1.356 . S
N423 H426 0.984 . S
N423 H427 0.985 . S
H424 N419 0.984 . S
H425 N419 0.985 . S
H426 N423 0.984 . S
H427 N423 0.985 . S
H428 N422 0.984 . S
H429 N422 0.984 . S
H430 N418 0.984 . S
H431 N418 0.985 . S
C432 C433 1.363 . S
C432 C438 1.379 . S
C432 N440 1.356 . S
C433 C432 1.363 . S
C433 C439 1.363 . S
C434 C435 1.363 . S
C434 C439 1.379 . S
C434 N441 1.356 . S
C435 C434 1.363 . S
C435 C438 1.363 . S
N436 C438 1.356 . S
N436 H448 0.984 . S
N436 H449 0.985 . S
N437 C439 1.356 . S
N437 H442 0.984 . S
N437 H443 0.985 . S
C438 C432 1.379 . S
C438 C435 1.363 . S
C438 N436 1.356 . S
C439 C433 1.363 . S
C439 C434 1.379 . S
C439 N437 1.356 . S
N440 C432 1.356 . S
N440 H446 0.984 . S
N440 H447 0.984 . S
N441 C434 1.356 . S
N441 H444 0.984 . S
N441 H445 0.985 . S
H442 N437 0.984 . S
H443 N437 0.985 . S
H444 N441 0.984 . S
H445 N441 0.985 . S
H446 N440 0.984 . S
H447 N440 0.984 . S
H448 N436 0.984 . S
H449 N436 0.985 . S
C450 C451 1.363 . S
C450 C456 1.379 1_545 S
C450 N458 1.356 . S
C451 C450 1.363 . S
C451 C457 1.363 . S
C452 C453 1.363 . S
C452 C457 1.379 1_565 S
C452 N459 1.356 . S
C453 C452 1.363 . S
C453 C456 1.363 . S
N454 C456 1.356 . S
N454 H466 0.984 . S
N454 H467 0.985 . S
N455 C457 1.356 . S
N455 H460 0.984 . S
N455 H461 0.985 . S
C456 C450 1.379 1_565 S
C456 C453 1.363 . S
C456 N454 1.356 . S
C457 C451 1.363 . S
C457 C452 1.379 1_545 S
C457 N455 1.356 . S
N458 C450 1.356 . S
N458 H464 0.984 . S
N458 H465 0.984 . S
N459 C452 1.356 . S
N459 H462 0.984 . S
N459 H463 0.985 . S
H460 N455 0.984 . S
H461 N455 0.985 . S
H462 N459 0.984 . S
H463 N459 0.985 . S
H464 N458 0.984 . S
H465 N458 0.984 . S
H466 N454 0.984 . S
H467 N454 0.985 . S
C468 C469 1.363 . S
C468 C474 1.379 1_565 S
C468 N476 1.356 . S
C469 C468 1.363 . S
C469 C475 1.363 . S
C470 C471 1.363 . S
C470 C475 1.379 1_545 S
C470 N477 1.356 . S
C471 C470 1.363 . S
C471 C474 1.363 . S
N472 C474 1.356 . S
N472 H484 0.984 . S
N472 H485 0.985 . S
N473 C475 1.356 . S
N473 H478 0.984 . S
N473 H479 0.985 . S
C474 C468 1.379 1_545 S
C474 C471 1.363 . S
C474 N472 1.356 . S
C475 C469 1.363 . S
C475 C470 1.379 1_565 S
C475 N473 1.356 . S
N476 C468 1.356 . S
N476 H482 0.984 . S
N476 H483 0.984 . S
N477 C470 1.356 . S
N477 H480 0.984 . S
N477 H481 0.985 . S
H478 N473 0.984 . S
H479 N473 0.985 . S
H480 N477 0.984 . S
H481 N477 0.985 . S
H482 N476 0.984 . S
H483 N476 0.984 . S
H484 N472 0.984 . S
H485 N472 0.985 . S
C486 C487 1.363 . S
C486 C492 1.379 1_455 S
C486 N494 1.356 . S
C487 C486 1.363 . S
C487 C493 1.363 . S
C488 C489 1.363 . S
C488 C493 1.379 1_655 S
C488 N495 1.356 . S
C489 C488 1.363 . S
C489 C492 1.363 . S
N490 C492 1.356 . S
N490 H502 0.984 . S
N490 H503 0.985 . S
N491 C493 1.356 . S
N491 H496 0.984 . S
N491 H497 0.985 . S
C492 C486 1.379 1_655 S
C492 C489 1.363 . S
C492 N490 1.356 . S
C493 C487 1.363 . S
C493 C488 1.379 1_455 S
C493 N491 1.356 . S
N494 C486 1.356 . S
N494 H500 0.984 . S
N494 H501 0.984 . S
N495 C488 1.356 . S
N495 H498 0.984 . S
N495 H499 0.985 . S
H496 N491 0.984 . S
H497 N491 0.985 . S
H498 N495 0.984 . S
H499 N495 0.985 . S
H500 N494 0.984 . S
H501 N494 0.984 . S
H502 N490 0.984 . S
H503 N490 0.985 . S
C504 C505 1.363 . S
C504 C510 1.379 . S
C504 N512 1.356 . S
C505 C504 1.363 . S
C505 C511 1.363 . S
C506 C507 1.363 . S
C506 C511 1.379 . S
C506 N513 1.356 . S
C507 C506 1.363 . S
C507 C510 1.363 . S
N508 C510 1.356 . S
N508 H520 0.984 . S
N508 H521 0.985 . S
N509 C511 1.356 . S
N509 H514 0.984 . S
N509 H515 0.985 . S
C510 C504 1.379 . S
C510 C507 1.363 . S
C510 N508 1.356 . S
C511 C505 1.363 . S
C511 C506 1.379 . S
C511 N509 1.356 . S
N512 C504 1.356 . S
N512 H518 0.984 . S
N512 H519 0.984 . S
N513 C506 1.356 . S
N513 H516 0.984 . S
N513 H517 0.985 . S
H514 N509 0.984 . S
H515 N509 0.985 . S
H516 N513 0.984 . S
H517 N513 0.985 . S
H518 N512 0.984 . S
H519 N512 0.984 . S
H520 N508 0.984 . S
H521 N508 0.985 . S
C522 C523 1.363 . S
C522 C528 1.379 . S
C522 N530 1.356 . S
C523 C522 1.363 . S
C523 C529 1.363 . S
C524 C525 1.363 . S
C524 C529 1.379 . S
C524 N531 1.356 . S
C525 C524 1.363 . S
C525 C528 1.363 . S
N526 C528 1.356 . S
N526 H538 0.984 . S
N526 H539 0.985 . S
N527 C529 1.356 . S
N527 H532 0.984 . S
N527 H533 0.985 . S
C528 C522 1.379 . S
C528 C525 1.363 . S
C528 N526 1.356 . S
C529 C523 1.363 . S
C529 C524 1.379 . S
C529 N527 1.356 . S
N530 C522 1.356 . S
N530 H536 0.984 . S
N530 H537 0.984 . S
N531 C524 1.356 . S
N531 H534 0.984 . S
N531 H535 0.985 . S
H532 N527 0.984 . S
H533 N527 0.985 . S
H534 N531 0.984 . S
H535 N531 0.985 . S
H536 N530 0.984 . S
H537 N530 0.984 . S
H538 N526 0.984 . S
H539 N526 0.985 . S
C540 C541 1.363 . S
C540 C546 1.379 . S
C540 N548 1.356 . S
C541 C540 1.363 . S
C541 C547 1.363 . S
C542 C543 1.363 . S
C542 C547 1.379 . S
C542 N549 1.356 . S
C543 C542 1.363 . S
C543 C546 1.363 . S
N544 C546 1.356 . S
N544 H556 0.984 . S
N544 H557 0.985 . S
N545 C547 1.356 . S
N545 H550 0.984 . S
N545 H551 0.985 . S
C546 C540 1.379 . S
C546 C543 1.363 . S
C546 N544 1.356 . S
C547 C541 1.363 . S
C547 C542 1.379 . S
C547 N545 1.356 . S
N548 C540 1.356 . S
N548 H554 0.984 . S
N548 H555 0.984 . S
N549 C542 1.356 . S
N549 H552 0.984 . S
N549 H553 0.985 . S
H550 N545 0.984 . S
H551 N545 0.985 . S
H552 N549 0.984 . S
H553 N549 0.985 . S
H554 N548 0.984 . S
H555 N548 0.984 . S
H556 N544 0.984 . S
H557 N544 0.985 . S
C558 C559 1.363 . S
C558 C564 1.379 . S
C558 N566 1.356 . S
C559 C558 1.363 . S
C559 C565 1.363 . S
C560 C561 1.363 . S
C560 C565 1.379 . S
C560 N567 1.356 . S
C561 C560 1.363 . S
C561 C564 1.363 . S
N562 C564 1.356 . S
N562 H574 0.984 . S
N562 H575 0.985 . S
N563 C565 1.356 . S
N563 H568 0.984 . S
N563 H569 0.985 . S
C564 C558 1.379 . S
C564 C561 1.363 . S
C564 N562 1.356 . S
C565 C559 1.363 . S
C565 C560 1.379 . S
C565 N563 1.356 . S
N566 C558 1.356 . S
N566 H572 0.984 . S
N566 H573 0.984 . S
N567 C560 1.356 . S
N567 H570 0.984 . S
N567 H571 0.985 . S
H568 N563 0.984 . S
H569 N563 0.985 . S
H570 N567 0.984 . S
H571 N567 0.985 . S
H572 N566 0.984 . S
H573 N566 0.984 . S
H574 N562 0.984 . S
H575 N562 0.985 . S
C576 C577 1.363 . S
C576 C582 1.379 . S
C576 N584 1.356 . S
C577 C576 1.363 . S
C577 C583 1.363 . S
C578 C579 1.363 . S
C578 C583 1.379 . S
C578 N585 1.356 . S
C579 C578 1.363 . S
C579 C582 1.363 . S
N580 C582 1.356 . S
N580 H592 0.984 . S
N580 H593 0.985 . S
N581 C583 1.356 . S
N581 H586 0.984 . S
N581 H587 0.985 . S
C582 C576 1.379 . S
C582 C579 1.363 . S
C582 N580 1.356 . S
C583 C577 1.363 . S
C583 C578 1.379 . S
C583 N581 1.356 . S
N584 C576 1.356 . S
N584 H590 0.984 . S
N584 H591 0.984 . S
N585 C578 1.356 . S
N585 H588 0.984 . S
N585 H589 0.985 . S
H586 N581 0.984 . S
H587 N581 0.985 . S
H588 N585 0.984 . S
H589 N585 0.985 . S
H590 N584 0.984 . S
H591 N584 0.984 . S
H592 N580 0.984 . S
H593 N580 0.985 . S
C594 C595 1.363 . S
C594 C600 1.379 . S
C594 N602 1.356 . S
C595 C594 1.363 . S
C595 C601 1.363 . S
C596 C597 1.363 . S
C596 C601 1.379 . S
C596 N603 1.356 . S
C597 C596 1.363 . S
C597 C600 1.363 . S
N598 C600 1.356 . S
N598 H610 0.984 . S
N598 H611 0.985 . S
N599 C601 1.356 . S
N599 H604 0.984 . S
N599 H605 0.985 . S
C600 C594 1.379 . S
C600 C597 1.363 . S
C600 N598 1.356 . S
C601 C595 1.363 . S
C601 C596 1.379 . S
C601 N599 1.356 . S
N602 C594 1.356 . S
N602 H608 0.984 . S
N602 H609 0.984 . S
N603 C596 1.356 . S
N603 H606 0.984 . S
N603 H607 0.985 . S
H604 N599 0.984 . S
H605 N599 0.985 . S
H606 N603 0.984 . S
H607 N603 0.985 . S
H608 N602 0.984 . S
H609 N602 0.984 . S
H610 N598 0.984 . S
H611 N598 0.985 . S
C612 C613 1.363 . S
C612 C618 1.379 . S
C612 N620 1.356 . S
C613 C612 1.363 . S
C613 C619 1.363 . S
C614 C615 1.363 . S
C614 C619 1.379 . S
C614 N621 1.356 . S
C615 C614 1.363 . S
C615 C618 1.363 . S
N616 C618 1.356 . S
N616 H628 0.984 . S
N616 H629 0.985 . S
N617 C619 1.356 . S
N617 H622 0.984 . S
N617 H623 0.985 . S
C618 C612 1.379 . S
C618 C615 1.363 . S
C618 N616 1.356 . S
C619 C613 1.363 . S
C619 C614 1.379 . S
C619 N617 1.356 . S
N620 C612 1.356 . S
N620 H626 0.984 . S
N620 H627 0.984 . S
N621 C614 1.356 . S
N621 H624 0.984 . S
N621 H625 0.985 . S
H622 N617 0.984 . S
H623 N617 0.985 . S
H624 N621 0.984 . S
H625 N621 0.985 . S
H626 N620 0.984 . S
H627 N620 0.984 . S
H628 N616 0.984 . S
H629 N616 0.985 . S
C630 C631 1.363 . S
C630 C636 1.379 . S
C630 N638 1.356 . S
C631 C630 1.363 . S
C631 C637 1.363 . S
C632 C633 1.363 . S
C632 C637 1.379 . S
C632 N639 1.356 . S
C633 C632 1.363 . S
C633 C636 1.363 . S
N634 C636 1.356 . S
N634 H646 0.984 . S
N634 H647 0.985 . S
N635 C637 1.356 . S
N635 H640 0.984 . S
N635 H641 0.985 . S
C636 C630 1.379 . S
C636 C633 1.363 . S
C636 N634 1.356 . S
C637 C631 1.363 . S
C637 C632 1.379 . S
C637 N635 1.356 . S
N638 C630 1.356 . S
N638 H644 0.984 . S
N638 H645 0.984 . S
N639 C632 1.356 . S
N639 H642 0.984 . S
N639 H643 0.985 . S
H640 N635 0.984 . S
H641 N635 0.985 . S
H642 N639 0.984 . S
H643 N639 0.985 . S
H644 N638 0.984 . S
H645 N638 0.984 . S
H646 N634 0.984 . S
H647 N634 0.985 . S
C648 C649 1.363 . S
C648 C654 1.379 . S
C648 N656 1.356 . S
C649 C648 1.363 . S
C649 C655 1.363 . S
C650 C651 1.363 . S
C650 C655 1.379 . S
C650 N657 1.356 . S
C651 C650 1.363 . S
C651 C654 1.363 . S
N652 C654 1.356 . S
N652 H664 0.984 . S
N652 H665 0.985 . S
N653 C655 1.356 . S
N653 H658 0.984 . S
N653 H659 0.985 . S
C654 C648 1.379 . S
C654 C651 1.363 . S
C654 N652 1.356 . S
C655 C649 1.363 . S
C655 C650 1.379 . S
C655 N653 1.356 . S
N656 C648 1.356 . S
N656 H662 0.984 . S
N656 H663 0.984 . S
N657 C650 1.356 . S
N657 H660 0.984 . S
N657 H661 0.985 . S
H658 N653 0.984 . S
H659 N653 0.985 . S
H660 N657 0.984 . S
H661 N657 0.985 . S
H662 N656 0.984 . S
H663 N656 0.984 . S
H664 N652 0.984 . S
H665 N652 0.985 . S
C666 C667 1.363 . S
C666 C672 1.379 . S
C666 N674 1.356 . S
C667 C666 1.363 . S
C667 C673 1.363 . S
C668 C669 1.363 . S
C668 C673 1.379 . S
C668 N675 1.356 . S
C669 C668 1.363 . S
C669 C672 1.363 . S
N670 C672 1.356 . S
N670 H682 0.984 . S
N670 H683 0.985 . S
N671 C673 1.356 . S
N671 H676 0.984 . S
N671 H677 0.985 . S
C672 C666 1.379 . S
C672 C669 1.363 . S
C672 N670 1.356 . S
C673 C667 1.363 . S
C673 C668 1.379 . S
C673 N671 1.356 . S
N674 C666 1.356 . S
N674 H680 0.984 . S
N674 H681 0.984 . S
N675 C668 1.356 . S
N675 H678 0.984 . S
N675 H679 0.985 . S
H676 N671 0.984 . S
H677 N671 0.985 . S
H678 N675 0.984 . S
H679 N675 0.985 . S
H680 N674 0.984 . S
H681 N674 0.984 . S
H682 N670 0.984 . S
H683 N670 0.985 . S
C684 C685 1.363 . S
C684 C690 1.379 . S
C684 N692 1.356 . S
C685 C684 1.363 . S
C685 C691 1.363 . S
C686 C687 1.363 . S
C686 C691 1.379 . S
C686 N693 1.356 . S
C687 C686 1.363 . S
C687 C690 1.363 . S
N688 C690 1.356 . S
N688 H700 0.984 . S
N688 H701 0.985 . S
N689 C691 1.356 . S
N689 H694 0.984 . S
N689 H695 0.985 . S
C690 C684 1.379 . S
C690 C687 1.363 . S
C690 N688 1.356 . S
C691 C685 1.363 . S
C691 C686 1.379 . S
C691 N689 1.356 . S
N692 C684 1.356 . S
N692 H698 0.984 . S
N692 H699 0.984 . S
N693 C686 1.356 . S
N693 H696 0.984 . S
N693 H697 0.985 . S
H694 N689 0.984 . S
H695 N689 0.985 . S
H696 N693 0.984 . S
H697 N693 0.985 . S
H698 N692 0.984 . S
H699 N692 0.984 . S
H700 N688 0.984 . S
H701 N688 0.985 . S
C702 C703 1.363 . S
C702 C708 1.379 . S
C702 N710 1.356 . S
C703 C702 1.363 . S
C703 C709 1.363 . S
C704 C705 1.363 . S
C704 C709 1.379 . S
C704 N711 1.356 . S
C705 C704 1.363 . S
C705 C708 1.363 . S
N706 C708 1.356 . S
N706 H718 0.984 . S
N706 H719 0.985 . S
N707 C709 1.356 . S
N707 H712 0.984 . S
N707 H713 0.985 . S
C708 C702 1.379 . S
C708 C705 1.363 . S
C708 N706 1.356 . S
C709 C703 1.363 . S
C709 C704 1.379 . S
C709 N707 1.356 . S
N710 C702 1.356 . S
N710 H716 0.984 . S
N710 H717 0.984 . S
N711 C704 1.356 . S
N711 H714 0.984 . S
N711 H715 0.985 . S
H712 N707 0.984 . S
H713 N707 0.985 . S
H714 N711 0.984 . S
H715 N711 0.985 . S
H716 N710 0.984 . S
H717 N710 0.984 . S
H718 N706 0.984 . S
H719 N706 0.985 . S
C720 C721 1.363 . S
C720 C726 1.379 . S
C720 N728 1.356 . S
C721 C720 1.363 . S
C721 C727 1.363 . S
C722 C723 1.363 . S
C722 C727 1.379 . S
C722 N729 1.356 . S
C723 C722 1.363 . S
C723 C726 1.363 . S
N724 C726 1.356 . S
N724 H736 0.984 . S
N724 H737 0.985 . S
N725 C727 1.356 . S
N725 H730 0.984 . S
N725 H731 0.985 . S
C726 C720 1.379 . S
C726 C723 1.363 . S
C726 N724 1.356 . S
C727 C721 1.363 . S
C727 C722 1.379 . S
C727 N725 1.356 . S
N728 C720 1.356 . S
N728 H734 0.984 . S
N728 H735 0.984 . S
N729 C722 1.356 . S
N729 H732 0.984 . S
N729 H733 0.985 . S
H730 N725 0.984 . S
H731 N725 0.985 . S
H732 N729 0.984 . S
H733 N729 0.985 . S
H734 N728 0.984 . S
H735 N728 0.984 . S
H736 N724 0.984 . S
H737 N724 0.985 . S
C738 C739 1.363 . S
C738 C744 1.379 1_554 S
C738 N746 1.356 . S
C739 C738 1.363 . S
C739 C745 1.363 . S
C740 C741 1.363 . S
C740 C745 1.379 1_556 S
C740 N747 1.356 . S
C741 C740 1.363 . S
C741 C744 1.363 . S
N742 C744 1.356 . S
N742 H754 0.984 . S
N742 H755 0.985 . S
N743 C745 1.356 . S
N743 H748 0.984 . S
N743 H749 0.985 . S
C744 C738 1.379 1_556 S
C744 C741 1.363 . S
C744 N742 1.356 . S
C745 C739 1.363 . S
C745 C740 1.379 1_554 S
C745 N743 1.356 . S
N746 C738 1.356 . S
N746 H752 0.984 . S
N746 H753 0.984 . S
N747 C740 1.356 . S
N747 H750 0.984 . S
N747 H751 0.985 . S
H748 N743 0.984 . S
H749 N743 0.985 . S
H750 N747 0.984 . S
H751 N747 0.985 . S
H752 N746 0.984 . S
H753 N746 0.984 . S
H754 N742 0.984 . S
H755 N742 0.985 . S
C756 C757 1.363 . S
C756 C762 1.379 1_556 S
C756 N764 1.356 . S
C757 C756 1.363 . S
C757 C763 1.363 1_545 S
C758 C759 1.363 . S
C758 C763 1.379 1_554 S
C758 N765 1.356 . S
C759 C758 1.363 . S
C759 C762 1.363 1_565 S
N760 C762 1.356 . S
N760 H772 0.984 . S
N760 H773 0.985 . S
N761 C763 1.356 . S
N761 H766 0.984 . S
N761 H767 0.985 . S
C762 C756 1.379 1_554 S
C762 C759 1.363 1_545 S
C762 N760 1.356 . S
C763 C757 1.363 1_565 S
C763 C758 1.379 1_556 S
C763 N761 1.356 . S
N764 C756 1.356 . S
N764 H770 0.984 . S
N764 H771 0.984 . S
N765 C758 1.356 . S
N765 H768 0.984 . S
N765 H769 0.985 . S
H766 N761 0.984 . S
H767 N761 0.985 . S
H768 N765 0.984 . S
H769 N765 0.985 . S
H770 N764 0.984 . S
H771 N764 0.984 . S
H772 N760 0.984 . S
H773 N760 0.985 . S
C774 C775 1.363 1_455 S
C774 C780 1.379 1_556 S
C774 N782 1.356 . S
C775 C774 1.363 1_655 S
C775 C781 1.363 . S
C776 C777 1.363 1_655 S
C776 C781 1.379 1_554 S
C776 N783 1.356 . S
C777 C776 1.363 1_455 S
C777 C780 1.363 . S
N778 C780 1.356 . S
N778 H790 0.984 . S
N778 H791 0.985 . S
N779 C781 1.356 . S
N779 H784 0.984 . S
N779 H785 0.985 . S
C780 C774 1.379 1_554 S
C780 C777 1.363 . S
C780 N778 1.356 . S
C781 C775 1.363 . S
C781 C776 1.379 1_556 S
C781 N779 1.356 . S
N782 C774 1.356 . S
N782 H788 0.984 . S
N782 H789 0.984 . S
N783 C776 1.356 . S
N783 H786 0.984 . S
N783 H787 0.985 . S
H784 N779 0.984 . S
H785 N779 0.985 . S
H786 N783 0.984 . S
H787 N783 0.985 . S
H788 N782 0.984 . S
H789 N782 0.984 . S
H790 N778 0.984 . S
H791 N778 0.985 . S
C792 C793 1.363 . S
C792 C798 1.379 . S
C792 N800 1.356 . S
C793 C792 1.363 . S
C793 C799 1.363 . S
C794 C795 1.363 . S
C794 C799 1.379 . S
C794 N801 1.356 . S
C795 C794 1.363 . S
C795 C798 1.363 . S
N796 C798 1.356 . S
N796 H808 0.984 . S
N796 H809 0.985 . S
N797 C799 1.356 . S
N797 H802 0.984 . S
N797 H803 0.985 . S
C798 C792 1.379 . S
C798 C795 1.363 . S
C798 N796 1.356 . S
C799 C793 1.363 . S
C799 C794 1.379 . S
C799 N797 1.356 . S
N800 C792 1.356 . S
N800 H806 0.984 . S
N800 H807 0.984 . S
N801 C794 1.356 . S
N801 H804 0.984 . S
N801 H805 0.985 . S
H802 N797 0.984 . S
H803 N797 0.985 . S
H804 N801 0.984 . S
H805 N801 0.985 . S
H806 N800 0.984 . S
H807 N800 0.984 . S
H808 N796 0.984 . S
H809 N796 0.985 . S
C810 C811 1.363 . S
C810 C816 1.379 . S
C810 N818 1.356 . S
C811 C810 1.363 . S
C811 C817 1.363 . S
C812 C813 1.363 . S
C812 C817 1.379 . S
C812 N819 1.356 . S
C813 C812 1.363 . S
C813 C816 1.363 . S
N814 C816 1.356 . S
N814 H826 0.984 . S
N814 H827 0.985 . S
N815 C817 1.356 . S
N815 H820 0.984 . S
N815 H821 0.985 . S
C816 C810 1.379 . S
C816 C813 1.363 . S
C816 N814 1.356 . S
C817 C811 1.363 . S
C817 C812 1.379 . S
C817 N815 1.356 . S
N818 C810 1.356 . S
N818 H824 0.984 . S
N818 H825 0.984 . S
N819 C812 1.356 . S
N819 H822 0.984 . S
N819 H823 0.985 . S
H820 N815 0.984 . S
H821 N815 0.985 . S
H822 N819 0.984 . S
H823 N819 0.985 . S
H824 N818 0.984 . S
H825 N818 0.984 . S
H826 N814 0.984 . S
H827 N814 0.985 . S
C828 C829 1.363 . S
C828 C834 1.379 . S
C828 N836 1.356 . S
C829 C828 1.363 . S
C829 C835 1.363 . S
C830 C831 1.363 . S
C830 C835 1.379 . S
C830 N837 1.356 . S
C831 C830 1.363 . S
C831 C834 1.363 . S
N832 C834 1.356 . S
N832 H844 0.984 . S
N832 H845 0.985 . S
N833 C835 1.356 . S
N833 H838 0.984 . S
N833 H839 0.985 . S
C834 C828 1.379 . S
C834 C831 1.363 . S
C834 N832 1.356 . S
C835 C829 1.363 . S
C835 C830 1.379 . S
C835 N833 1.356 . S
N836 C828 1.356 . S
N836 H842 0.984 . S
N836 H843 0.984 . S
N837 C830 1.356 . S
N837 H840 0.984 . S
N837 H841 0.985 . S
H838 N833 0.984 . S
H839 N833 0.985 . S
H840 N837 0.984 . S
H841 N837 0.985 . S
H842 N836 0.984 . S
H843 N836 0.984 . S
H844 N832 0.984 . S
H845 N832 0.985 . S
C846 C847 1.363 . S
C846 C852 1.379 . S
C846 N854 1.356 . S
C847 C846 1.363 . S
C847 C853 1.363 . S
C848 C849 1.363 . S
C848 C853 1.379 . S
C848 N855 1.356 . S
C849 C848 1.363 . S
C849 C852 1.363 . S
N850 C852 1.356 . S
N850 H862 0.984 . S
N850 H863 0.985 . S
N851 C853 1.356 . S
N851 H856 0.984 . S
N851 H857 0.985 . S
C852 C846 1.379 . S
C852 C849 1.363 . S
C852 N850 1.356 . S
C853 C847 1.363 . S
C853 C848 1.379 . S
C853 N851 1.356 . S
N854 C846 1.356 . S
N854 H860 0.984 . S
N854 H861 0.984 . S
N855 C848 1.356 . S
N855 H858 0.984 . S
N855 H859 0.985 . S
H856 N851 0.984 . S
H857 N851 0.985 . S
H858 N855 0.984 . S
H859 N855 0.985 . S
H860 N854 0.984 . S
H861 N854 0.984 . S
H862 N850 0.984 . S
H863 N850 0.985 . S
C864 C865 1.363 . S
C864 C870 1.379 . S
C864 N872 1.356 . S
C865 C864 1.363 . S
C865 C871 1.363 . S
C866 C867 1.363 . S
C866 C871 1.379 . S
C866 N873 1.356 . S
C867 C866 1.363 . S
C867 C870 1.363 . S
N868 C870 1.356 . S
N868 H880 0.984 . S
N868 H881 0.985 . S
N869 C871 1.356 . S
N869 H874 0.984 . S
N869 H875 0.985 . S
C870 C864 1.379 . S
C870 C867 1.363 . S
C870 N868 1.356 . S
C871 C865 1.363 . S
C871 C866 1.379 . S
C871 N869 1.356 . S
N872 C864 1.356 . S
N872 H878 0.984 . S
N872 H879 0.984 . S
N873 C866 1.356 . S
N873 H876 0.984 . S
N873 H877 0.985 . S
H874 N869 0.984 . S
H875 N869 0.985 . S
H876 N873 0.984 . S
H877 N873 0.985 . S
H878 N872 0.984 . S
H879 N872 0.984 . S
H880 N868 0.984 . S
H881 N868 0.985 . S
C882 C883 1.363 . S
C882 C888 1.379 . S
C882 N890 1.356 . S
C883 C882 1.363 . S
C883 C889 1.363 . S
C884 C885 1.363 . S
C884 C889 1.379 . S
C884 N891 1.356 . S
C885 C884 1.363 . S
C885 C888 1.363 . S
N886 C888 1.356 . S
N886 H898 0.984 . S
N886 H899 0.985 . S
N887 C889 1.356 . S
N887 H892 0.984 . S
N887 H893 0.985 . S
C888 C882 1.379 . S
C888 C885 1.363 . S
C888 N886 1.356 . S
C889 C883 1.363 . S
C889 C884 1.379 . S
C889 N887 1.356 . S
N890 C882 1.356 . S
N890 H896 0.984 . S
N890 H897 0.984 . S
N891 C884 1.356 . S
N891 H894 0.984 . S
N891 H895 0.985 . S
H892 N887 0.984 . S
H893 N887 0.985 . S
H894 N891 0.984 . S
H895 N891 0.985 . S
H896 N890 0.984 . S
H897 N890 0.984 . S
H898 N886 0.984 . S
H899 N886 0.985 . S
C253 C151 1.226 . S
C255 C11 1.227 . S
C271 C25 1.226 . S
C273 C165 1.226 . S
C289 C137 1.227 . S
C291 C39 1.226 . S
C307 C207 1.226 . S
C309 C53 1.227 . S
C325 C67 1.226 . S
C327 C179 1.227 . S
C343 C193 1.226 . S
C345 C81 1.226 . S
C361 C95 1.227 . S
C363 C235 1.227 . S
C379 C249 1.227 . S
C381 C109 1.226 . S
C397 C123 1.227 . S
C399 C221 1.227 . S
C415 C8 1.086 . S
C417 C21 1.209 . S
C433 C22 1.086 . S
C435 C35 1.209 . S
C451 C7 1.210 . S
C453 C36 1.086 . S
C469 C77 1.209 . S
C471 C50 1.086 . S
C487 C49 1.210 . S
C489 C64 1.087 . S
C505 C78 1.086 . S
C507 C63 1.210 . S
C523 C92 1.086 . S
C525 C105 1.209 . S
C541 C106 1.087 . S
C543 C119 1.210 . S
C559 C91 1.210 . S
C561 C120 1.086 . S
C577 C161 1.209 . S
C579 C134 1.086 . S
C595 C133 1.209 . S
C597 C148 1.086 . S
C613 C147 1.209 . S
C615 C162 1.086 . S
C631 C189 1.209 . S
C633 C176 1.086 . S
C649 C203 1.209 . S
C651 C190 1.086 . S
C667 C175 1.209 . S
C669 C204 1.086 . S
C685 C218 1.086 . S
C687 C245 1.209 . S
C703 C232 1.086 . S
C705 C217 1.210 . S
C721 C246 1.087 . S
C723 C231 1.210 . S
C739 C13 1.382 . S
C741 C55 1.382 . S
C757 C69 1.382 . S
C759 C27 1.382 . S
C775 C83 1.382 . S
C777 C41 1.382 . S
C793 C139 1.382 . S
C795 C97 1.382 . S
C811 C153 1.382 . S
C813 C111 1.382 . S
C829 C125 1.382 . S
C831 C167 1.382 . S
C847 C223 1.382 . S
C849 C181 1.382 . S
C865 C237 1.382 . S
C867 C195 1.382 . S
C883 C251 1.382 . S
C885 C209 1.382 . S
