# Generated by pormake.
# Topology xfx, (5)-cn, num edge types: 1
# Building blocks:
#     Node 0, Type 0, BuildingBlock: BEQFEK_clean_sbu_0, # of connection points: 5
#     Node 1, Type 0, BuildingBlock: BEQFEK_clean_sbu_0, # of connection points: 5
#     Node 2, Type 0, BuildingBlock: BEQFEK_clean_sbu_0, # of connection points: 5
#     Node 3, Type 0, BuildingBlock: BEQFEK_clean_sbu_0, # of connection points: 5
#     Node 4, Type 0, BuildingBlock: BEQFEK_clean_sbu_0, # of connection points: 5
#     Node 5, Type 0, BuildingBlock: BEQFEK_clean_sbu_0, # of connection points: 5
#     Node 6, Type 0, BuildingBlock: BEQFEK_clean_sbu_0, # of connection points: 5
#     Node 7, Type 0, BuildingBlock: BEQFEK_clean_sbu_0, # of connection points: 5
#     Edge 8, Type (0, 0), BuildingBlock: OJICUG_clean_linker_0, # of connection points: 2
#     Edge 9, Type (0, 0), BuildingBlock: OJICUG_clean_linker_0, # of connection points: 2
#     Edge 10, Type (0, 0), BuildingBlock: OJICUG_clean_linker_0, # of connection points: 2
#     Edge 11, Type (0, 0), BuildingBlock: OJICUG_clean_linker_0, # of connection points: 2
#     Edge 12, Type (0, 0), BuildingBlock: OJICUG_clean_linker_0, # of connection points: 2
#     Edge 13, Type (0, 0), BuildingBlock: OJICUG_clean_linker_0, # of connection points: 2
#     Edge 14, Type (0, 0), BuildingBlock: OJICUG_clean_linker_0, # of connection points: 2
#     Edge 15, Type (0, 0), BuildingBlock: OJICUG_clean_linker_0, # of connection points: 2
#     Edge 16, Type (0, 0), BuildingBlock: OJICUG_clean_linker_0, # of connection points: 2
#     Edge 17, Type (0, 0), BuildingBlock: OJICUG_clean_linker_0, # of connection points: 2
#     Edge 18, Type (0, 0), BuildingBlock: OJICUG_clean_linker_0, # of connection points: 2
#     Edge 19, Type (0, 0), BuildingBlock: OJICUG_clean_linker_0, # of connection points: 2
#     Edge 20, Type (0, 0), BuildingBlock: OJICUG_clean_linker_0, # of connection points: 2
#     Edge 21, Type (0, 0), BuildingBlock: OJICUG_clean_linker_0, # of connection points: 2
#     Edge 22, Type (0, 0), BuildingBlock: OJICUG_clean_linker_0, # of connection points: 2
#     Edge 23, Type (0, 0), BuildingBlock: OJICUG_clean_linker_0, # of connection points: 2
#     Edge 24, Type (0, 0), BuildingBlock: OJICUG_clean_linker_0, # of connection points: 2
#     Edge 25, Type (0, 0), BuildingBlock: OJICUG_clean_linker_0, # of connection points: 2
#     Edge 26, Type (0, 0), BuildingBlock: OJICUG_clean_linker_0, # of connection points: 2
#     Edge 27, Type (0, 0), BuildingBlock: OJICUG_clean_linker_0, # of connection points: 2
# Relax obj value: 0.401
# Max RMSD: 0.225
# Mean RMSD: 0.225
data_MOF--net-xfx--node1-BEQFEK_clean_sbu_0--edge1-OJICUG_clean_linker_0
_symmetry_space_group_name_H-M    P1
_symmetry_Int_Tables_number       1
_symmetry_cell_setting            triclinic
loop_
_symmetry_equiv_pos_as_xyz
'x, y, z'
_cell_length_a     29.255394
_cell_length_b     29.284308
_cell_length_c     27.166957
_cell_angle_alpha  90.099868
_cell_angle_beta   89.905392
_cell_angle_gamma 73.409372
loop_
_atom_site_label
_atom_site_type_symbol
_atom_site_fract_x
_atom_site_fract_y
_atom_site_fract_z
_atom_type_partial_charge
Co0 Co 0.36293 0.08214 0.36763 0.0
Co1 Co 0.36499 0.98941 0.42477 0.0
C2 C 0.38406 0.98948 0.31537 0.0
O3 O 0.37587 0.03447 0.31372 0.0
O4 O 0.38235 0.96831 0.35586 0.0
C5 C 0.33278 0.15537 0.29693 0.0
O6 O 0.3093 0.12718 0.27852 0.0
C7 C 0.33783 0.9016 0.43827 0.0
C8 C 0.33088 0.89777 0.51893 0.0
C9 C 0.32249 0.87686 0.47532 0.0
N10 N 0.35288 0.93658 0.45883 0.0
N11 N 0.34971 0.93335 0.50718 0.0
C12 C 0.33958 0.89141 0.38412 0.0
H13 H 0.37619 0.88738 0.37038 0.0
H14 H 0.31466 0.92166 0.36461 0.0
H15 H 0.33091 0.85784 0.37548 0.0
C16 C 0.26624 0.11476 0.408 0.0
N17 N 0.30833 0.08135 0.40276 0.0
N18 N 0.30726 0.04226 0.42592 0.0
C19 C 0.2632 0.04957 0.44578 0.0
C20 C 0.23568 0.09555 0.43433 0.0
C21 C 0.25723 0.16578 0.39289 0.0
H22 H 0.29026 0.1768 0.39649 0.0
H23 H 0.24526 0.16982 0.35402 0.0
H24 H 0.22925 0.1899 0.41603 0.0
O25 O 0.41866 0.07154 0.41094 0.0
O26 O 0.42234 1.00601 0.45364 0.0
H27 H 0.26677 1.00628 0.50956 0.0
H28 H 0.20833 0.02543 0.48182 0.0
C29 C 0.2472 1.01321 0.47418 0.0
H30 H 0.25544 0.97948 0.45297 0.0
H31 H 0.35785 0.95709 0.53203 0.0
O32 O 0.35588 0.14366 0.3366 0.0
C33 C 0.43887 0.04079 0.44291 0.0
Co34 Co 0.99822 0.71704 0.57399 0.0
Co35 Co 0.09022 0.71234 0.51534 0.0
C36 C 0.09243 0.6922 0.62413 0.0
O37 O 0.04728 0.70183 0.6262 0.0
O38 O 0.11367 0.69364 0.58351 0.0
C39 C 0.92828 0.75066 0.64716 0.0
O40 O 0.95835 0.77331 0.66279 0.0
C41 C 0.17349 0.74464 0.49936 0.0
C42 C 0.18958 0.73065 0.42042 0.0
C43 C 0.20364 0.75044 0.46213 0.0
N44 N 0.14318 0.72224 0.48077 0.0
N45 N 0.15339 0.71323 0.4337 0.0
C46 C 0.16908 0.7657 0.55005 0.0
H47 H 0.13166 0.77408 0.56319 0.0
H48 H 0.18068 0.79861 0.55077 0.0
H49 H 0.19205 0.7394 0.57552 0.0
C50 C 0.96678 0.81341 0.5331 0.0
N51 N 0.99986 0.7713 0.53907 0.0
N52 N 0.03872 0.77096 0.51455 0.0
C53 C 0.03154 0.81392 0.49252 0.0
C54 C 0.98595 0.84248 0.50448 0.0
C55 C 0.91575 0.82336 0.54899 0.0
H56 H 0.90436 0.79046 0.54673 0.0
H57 H 0.91209 0.83642 0.58754 0.0
H58 H 0.89158 0.85073 0.52548 0.0
O59 O 1.00567 0.66185 0.53001 0.0
O60 O 0.07119 0.65666 0.48637 0.0
H61 H 0.07941 0.8002 0.43106 0.0
H62 H 0.05251 0.86295 0.44376 0.0
C63 C 0.06732 0.82728 0.46048 0.0
H64 H 0.09871 0.82789 0.48292 0.0
H65 H 0.13433 0.69717 0.41022 0.0
O66 O 0.93752 0.72649 0.60774 0.0
C67 C 0.03572 0.64124 0.49734 0.0
Co68 Co 0.70645 1.00497 0.36958 0.0
Co69 Co 0.70456 0.0981 0.42619 0.0
C70 C 0.68679 0.09738 0.31681 0.0
O71 O 0.69443 0.05241 0.31564 0.0
O72 O 0.68834 0.11907 0.3571 0.0
C73 C 0.73764 0.93091 0.29936 0.0
O74 O 0.7616 0.9587 0.28103 0.0
C75 C 0.73101 0.18624 0.44146 0.0
C76 C 0.73936 0.18796 0.52208 0.0
C77 C 0.74691 0.21008 0.47899 0.0
N78 N 0.71653 0.15058 0.46122 0.0
N79 N 0.72049 0.15258 0.50959 0.0
C80 C 0.72831 0.19779 0.38765 0.0
H81 H 0.69186 0.20073 0.37419 0.0
H82 H 0.75395 0.16869 0.36712 0.0
H83 H 0.73557 0.23223 0.38004 0.0
C84 C 0.80238 0.97182 0.41089 0.0
N85 N 0.76063 1.00554 0.40525 0.0
N86 N 0.76208 0.04492 0.42769 0.0
C87 C 0.80623 0.03756 0.44718 0.0
C88 C 0.83329 0.99114 0.43651 0.0
C89 C 0.81072 0.92055 0.39682 0.0
H90 H 0.77722 0.91032 0.4002 0.0
H91 H 0.82354 0.91527 0.35821 0.0
H92 H 0.83786 0.89666 0.42082 0.0
O93 O 0.65026 1.01599 0.41229 0.0
O94 O 0.64646 0.08206 0.45433 0.0
H95 H 0.80498 0.0813 0.51035 0.0
H96 H 0.8621 0.06269 0.47963 0.0
C97 C 0.82292 0.07444 0.47399 0.0
H98 H 0.81336 0.10808 0.45273 0.0
H99 H 0.71298 0.12808 0.53386 0.0
O100 O 0.7137 0.94335 0.33855 0.0
C101 C 0.62981 0.04728 0.44382 0.0
Co102 Co 0.07742 0.37493 0.56224 0.0
Co103 Co 0.98007 0.3759 0.51674 0.0
C104 C 0.98687 0.39812 0.62254 0.0
O105 O 0.03111 0.39351 0.61686 0.0
O106 O 0.96156 0.39094 0.58696 0.0
C107 C 0.14997 0.34178 0.63159 0.0
O108 O 0.12043 0.31879 0.64789 0.0
C109 C 0.89633 0.3427 0.50395 0.0
C110 C 0.8781 0.35785 0.42569 0.0
C111 C 0.86538 0.33713 0.46744 0.0
N112 N 0.92586 0.36577 0.48481 0.0
N113 N 0.91432 0.37546 0.4382 0.0
C114 C 0.90192 0.32119 0.55436 0.0
H115 H 0.9395 0.31325 0.5667 0.0
H116 H 0.89087 0.28796 0.55501 0.0
H117 H 0.87905 0.347 0.58049 0.0
C118 C 0.10648 0.27766 0.52362 0.0
N119 N 0.07347 0.31966 0.53069 0.0
N120 N 0.03269 0.31843 0.51131 0.0
C121 C 0.03867 0.27454 0.49156 0.0
C122 C 0.08542 0.2471 0.49986 0.0
C123 C 0.15855 0.2686 0.53439 0.0
H124 H 0.16915 0.30176 0.52983 0.0
H125 H 0.16571 0.25581 0.57279 0.0
H126 H 0.1808 0.24108 0.50939 0.0
O127 O 0.06729 0.42832 0.51685 0.0
O128 O 0.99468 0.43476 0.48822 0.0
H129 H 0.98397 0.28553 0.43694 0.0
H130 H 0.01507 0.22347 0.44815 0.0
C131 C 1.00064 0.25902 0.46548 0.0
H132 H 0.9727 0.25701 0.49226 0.0
H133 H 0.93255 0.39212 0.41439 0.0
O134 O 0.13968 0.36612 0.59249 0.0
C135 C 0.03143 0.4501 0.49127 0.0
Co136 Co 0.87072 0.58183 0.85076 0.0
Co137 Co 0.86695 0.48972 0.9063 0.0
C138 C 0.89533 0.488 0.79974 0.0
O139 O 0.89177 0.53218 0.80078 0.0
O140 O 0.8851 0.46665 0.83714 0.0
C141 C 0.84625 0.64956 0.77565 0.0
O142 O 0.82838 0.61718 0.75642 0.0
C143 C 0.82848 0.40887 0.92383 0.0
C144 C 0.83524 0.39955 0.00435 0.0
C145 C 0.81674 0.38359 0.96288 0.0
N146 N 0.85138 0.43923 0.94168 0.0
N147 N 0.85599 0.43288 -0.01023 0.0
C148 C 0.82057 0.40291 0.87 0.0
H149 H 0.85455 0.39812 0.84991 0.0
H150 H 0.79435 0.43548 0.8558 0.0
H151 H 0.80845 0.37112 0.86216 0.0
C152 C 0.77247 0.61694 0.88617 0.0
N153 N 0.81303 0.58153 0.88032 0.0
N154 N 0.81169 0.54506 0.90779 0.0
C155 C 0.77025 0.55719 0.93361 0.0
C156 C 0.74413 0.60341 0.92087 0.0
C157 C 0.76196 0.66429 0.86093 0.0
H158 H 0.76269 0.65866 0.82066 0.0
H159 H 0.72611 0.68793 0.87036 0.0
H160 H 0.78943 0.6821 0.87085 0.0
O161 O 0.92268 0.57259 0.89887 0.0
O162 O 0.92608 0.50341 0.93457 0.0
H163 H 0.72487 0.54624 -0.00711 0.0
H164 H 0.75536 0.4937 0.95816 0.0
C165 C 0.75864 0.52758 -0.0261 0.0
H166 H 0.7881 0.5189 0.00105 0.0
H167 H 0.87167 0.45258 0.01289 0.0
O168 O 0.8652 0.64242 0.81794 0.0
C169 C 0.94283 0.53885 0.92793 0.0
Co170 Co 0.50537 0.21355 0.09812 0.0
Co171 Co 0.5927 0.21013 0.03137 0.0
C172 C 0.6011 0.19152 0.14167 0.0
O173 O 0.55631 0.20044 0.14686 0.0
O174 O 0.61996 0.19305 0.09955 0.0
C175 C 0.43766 0.24026 0.17529 0.0
O176 O 0.47005 0.25774 0.19509 0.0
C177 C 0.66961 0.25043 0.00744 0.0
C178 C 0.68397 0.23288 0.92883 0.0
C179 C 0.69696 0.25697 0.96792 0.0
N180 N 0.64196 0.22343 -0.00729 0.0
N181 N 0.65106 0.21253 0.94577 0.0
C182 C 0.66583 0.27372 0.05693 0.0
H183 H 0.62956 0.27907 0.07246 0.0
H184 H 0.67393 0.30845 0.05459 0.0
H185 H 0.692 0.25017 0.08211 0.0
C186 C 0.46858 0.30852 0.05599 0.0
N187 N 0.50376 0.26794 0.06202 0.0
N188 N 0.53808 0.26607 0.03022 0.0
C189 C 0.52446 0.30514 0.00112 0.0
C190 C 0.47965 0.33328 0.01646 0.0
C191 C 0.42405 0.32262 0.08654 0.0
H192 H 0.43388 0.3214 0.12591 0.0
H193 H 0.40191 0.35935 0.07829 0.0
H194 H 0.40284 0.29726 0.08004 0.0
O195 O 0.51387 0.15677 0.05505 0.0
O196 O 0.57638 0.15198 0.0066 0.0
H197 H 0.52933 0.34142 0.93271 0.0
H198 H 0.58393 0.32125 0.96745 0.0
C199 C 0.5511 0.31231 0.95612 0.0
H200 H 0.56193 0.27877 0.93451 0.0
H201 H 0.63348 0.19285 0.92483 0.0
O202 O 0.4452 0.22115 0.133 0.0
C203 C 0.54261 0.13571 0.02139 0.0
Co204 Co 0.20967 0.50375 0.84073 0.0
Co205 Co 0.20906 0.59121 0.90672 0.0
C206 C 0.18585 0.5993 0.79711 0.0
O207 O 0.19491 0.55459 0.79181 0.0
O208 O 0.18855 0.61782 0.83909 0.0
C209 C 0.23537 0.43837 0.76256 0.0
O210 O 0.25366 0.47112 0.74499 0.0
C211 C 0.24844 0.67054 0.92638 0.0
C212 C 0.24032 0.68034 0.00682 0.0
C213 C 0.25987 0.69574 0.96568 0.0
N214 N 0.22462 0.6408 0.94372 0.0
N215 N 0.21926 0.64735 -0.00823 0.0
C216 C 0.25727 0.67612 0.87266 0.0
H217 H 0.22301 0.6838 0.85264 0.0
H218 H 0.28126 0.64232 0.85801 0.0
H219 H 0.27226 0.70609 0.86512 0.0
C220 C 0.30634 0.46672 0.87945 0.0
N221 N 0.26562 0.50202 0.87444 0.0
N222 N 0.26521 0.53663 0.90543 0.0
C223 C 0.30554 0.52319 0.93276 0.0
C224 C 0.33288 0.47818 0.91723 0.0
C225 C 0.31874 0.4215 0.85 0.0
H226 H 0.31801 0.43035 0.81041 0.0
H227 H 0.35499 0.39829 0.85846 0.0
H228 H 0.29216 0.40182 0.85717 0.0
O229 O 0.15464 0.51227 0.88653 0.0
O230 O 0.15243 0.5741 0.93512 0.0
H231 H 0.34651 0.52956 -0.00247 0.0
H232 H 0.32012 0.58422 0.96458 0.0
C233 C 0.31465 0.55003 -0.02323 0.0
H234 H 0.28306 0.55827 0.00138 0.0
H235 H 0.20276 0.6281 0.01454 0.0
O236 O 0.21608 0.44428 0.80485 0.0
C237 C 0.13532 0.54055 0.92132 0.0
Co238 Co 0.56843 0.86817 0.10035 0.0
Co239 Co 0.48263 0.87118 0.03203 0.0
C240 C 0.47218 0.89188 0.14224 0.0
O241 O 0.51687 0.88252 0.14836 0.0
O242 O 0.45426 0.88984 0.09978 0.0
C243 C 0.63491 0.84326 0.17844 0.0
O244 O 0.6018 0.8271 0.19874 0.0
C245 C 0.4064 0.83001 0.00877 0.0
C246 C 0.39224 0.84619 0.93 0.0
C247 C 0.37929 0.82263 0.96952 0.0
N248 N 0.43384 0.85702 -0.00646 0.0
N249 N 0.42488 0.8671 0.94649 0.0
C250 C 0.41 0.80764 0.05863 0.0
H251 H 0.44619 0.80263 0.07407 0.0
H252 H 0.40195 0.77286 0.0569 0.0
H253 H 0.38371 0.83163 0.08354 0.0
C254 C 0.60495 0.77206 0.06062 0.0
N255 N 0.57012 0.81313 0.06522 0.0
N256 N 0.53708 0.81512 0.03203 0.0
C257 C 0.55155 0.77587 0.0031 0.0
C258 C 0.59548 0.74732 0.02018 0.0
C259 C 0.64731 0.75715 0.094 0.0
H260 H 0.63496 0.76053 0.13269 0.0
H261 H 0.66818 0.71952 0.08773 0.0
H262 H 0.67061 0.78064 0.08821 0.0
O263 O 0.5609 0.9242 0.05641 0.0
O264 O 0.4996 0.92856 0.00659 0.0
H265 H 0.51516 0.80309 0.93637 0.0
H266 H 0.54991 0.74117 0.93286 0.0
C267 C 0.52667 0.76899 0.95682 0.0
H268 H 0.49432 0.75833 0.96651 0.0
H269 H 0.44236 0.8866 0.92519 0.0
O270 O 0.62825 0.86089 0.13555 0.0
C271 C 0.53314 0.94484 0.02198 0.0
C272 C 0.54431 0.08831 0.46365 0.0
C273 C 0.58201 0.04611 0.46125 0.0
H274 H 0.46861 0.11961 0.46005 0.0
C275 C 0.57138 1.00217 0.46426 0.0
H276 H 0.55124 0.12264 0.46103 0.0
C277 C 0.524 1.00038 0.46449 0.0
C278 C 0.48635 0.04249 0.46068 0.0
H279 H 0.59976 0.969 0.46251 0.0
H280 H 0.51713 0.96597 0.46257 0.0
C281 C 0.49693 0.0865 0.46286 0.0
C282 C 0.98881 0.58335 0.48091 0.0
C283 C 0.03257 0.5945 0.47863 0.0
H284 H 0.95381 0.52834 0.48483 0.0
C285 C 0.0742 0.55777 0.46814 0.0
H286 H 0.95599 0.61096 0.48854 0.0
C287 C 0.07294 0.5103 0.46644 0.0
C288 C 0.02994 0.49873 0.47442 0.0
H289 H 0.10843 0.56506 0.46613 0.0
H290 H 0.10631 0.48236 0.46308 0.0
C291 C 0.98745 0.53595 0.47841 0.0
C292 C 0.02854 0.4942 0.94033 0.0
C293 C 0.99171 0.53702 0.94442 0.0
H294 H 0.10348 0.46177 0.92969 0.0
C295 C 1.004 0.57969 0.95162 0.0
H296 H 0.02034 0.46083 0.93419 0.0
C297 C 0.05178 0.58017 0.94981 0.0
C298 C 0.08812 0.53812 0.9396 0.0
H299 H 0.97637 0.6133 0.95467 0.0
H300 H 0.05965 0.61411 0.95155 0.0
C301 C 0.07623 0.49482 0.93736 0.0
C302 C 0.58017 1.00244 0.00521 0.0
C303 C 0.53586 0.99252 0.00641 0.0
H304 H 0.61704 0.05613 0.00687 0.0
C305 C 0.49399 0.03058 0.00282 0.0
H306 H 0.61301 0.97379 0.00818 0.0
C307 C 0.49628 0.07775 0.00342 0.0
C308 C 0.54051 0.08772 0.00607 0.0
H309 H 0.45935 0.02411 0.00425 0.0
H310 H 0.46335 0.10646 0.005 0.0
C311 C 0.58249 0.0496 0.00428 0.0
C312 C 0.13918 0.1664 0.51746 0.0
C313 C 0.11096 0.19837 0.48339 0.0
H314 H 0.20167 0.10764 0.52822 0.0
C315 C 0.11719 0.18828 0.433 0.0
H316 H 0.13492 0.17369 0.55658 0.0
C317 C 0.15499 0.15012 0.41684 0.0
C318 C 0.18719 0.12214 0.45088 0.0
H319 H 0.09624 0.21266 0.40608 0.0
H320 H 0.16199 0.14557 0.37769 0.0
C321 C 0.17725 0.12854 0.5013 0.0
C322 C 0.2993 0.80545 0.5047 0.0
C323 C 0.29436 0.84232 0.47033 0.0
H324 H 0.27462 0.74668 0.52861 0.0
C325 C 0.25977 0.84806 0.43315 0.0
H326 H 0.32507 0.80073 0.53422 0.0
C327 C 0.2319 0.81672 0.42933 0.0
C328 C 0.23671 0.78011 0.46373 0.0
H329 H 0.253 0.87771 0.40782 0.0
H330 H 0.20511 0.82241 0.40072 0.0
C331 C 0.27062 0.77459 0.50146 0.0
C332 C 0.91314 0.93469 0.41873 0.0
C333 C 0.88196 0.96462 0.45248 0.0
H334 H 0.97127 0.87142 0.40905 0.0
C335 C 0.89339 0.96096 0.50266 0.0
H336 H 0.9052 0.93726 0.37972 0.0
C337 C 0.93199 0.92402 0.5193 0.0
C338 C 0.95908 0.89004 0.48603 0.0
H339 H 0.86987 0.98346 0.52941 0.0
H340 H 0.93759 0.9191 0.55858 0.0
C341 C 0.95123 0.89728 0.43541 0.0
C342 C 0.80856 0.24037 0.43653 0.0
C343 C 0.775 0.24475 0.47467 0.0
H344 H 0.86235 0.26715 0.40381 0.0
C345 C 0.7712 0.28022 0.51061 0.0
H346 H 0.81455 0.21175 0.40989 0.0
C347 C 0.79991 0.3111 0.50793 0.0
C348 C 0.83272 0.307 0.46921 0.0
H349 H 0.74626 0.28386 0.54088 0.0
H350 H 0.79667 0.338 0.53617 0.0
C351 C 0.83644 0.27174 0.43331 0.0
C352 C 0.67774 0.71468 -0.01191 0.0
C353 C 0.63189 0.70928 -0.00614 0.0
H354 H 0.74936 0.68393 0.96449 0.0
C355 C 0.62294 0.66732 -0.02338 0.0
H356 H 0.68564 0.74695 -0.00014 0.0
C357 C 0.65961 0.63152 0.95388 0.0
C358 C 0.70552 0.63727 0.94895 0.0
H359 H 0.5879 0.66225 -0.01916 0.0
H360 H 0.65203 0.59992 0.93956 0.0
C361 C 0.71427 0.67866 0.96745 0.0
C362 C 0.74811 0.35645 0.93054 0.0
C363 C 0.78689 0.35016 0.96296 0.0
H364 H 0.69032 0.33077 0.90579 0.0
C365 C 0.79519 0.31322 -0.00221 0.0
H366 H 0.73853 0.38631 0.90547 0.0
C367 C 0.76609 0.28268 -0.00065 0.0
C368 C 0.72855 0.28819 0.96573 0.0
H369 H 0.82417 0.30798 0.02389 0.0
H370 H 0.77304 0.25459 0.02661 0.0
C371 C 0.71993 0.32513 0.93118 0.0
C372 C 0.39997 0.36363 -0.02171 0.0
C373 C 0.44427 0.37087 -0.01106 0.0
H374 H 0.32956 0.39301 0.95091 0.0
C375 C 0.4522 0.41456 -0.02363 0.0
H376 H 0.39299 0.33014 -0.01302 0.0
C377 C 0.41582 0.45053 0.95377 0.0
C378 C 0.37127 0.44308 0.9441 0.0
H379 H 0.48607 0.42097 -0.0155 0.0
H380 H 0.42252 0.48376 0.94353 0.0
C381 C 0.36366 0.3996 0.95742 0.0
C382 C 0.32994 0.72122 0.93478 0.0
C383 C 0.29006 0.72881 0.96605 0.0
H384 H 0.38836 0.74613 0.91033 0.0
C385 C 0.28063 0.767 -0.00039 0.0
H386 H 0.3403 0.6904 0.91085 0.0
C387 C 0.30959 0.79771 0.00076 0.0
C388 C 0.34807 0.79105 0.96797 0.0
H389 H 0.25078 0.77321 0.02486 0.0
H390 H 0.30174 0.82687 0.02695 0.0
C391 C 0.35798 0.75267 0.93495 0.0
C392 C 0.33921 0.19036 0.21487 0.0
C393 C 0.34433 0.19178 0.26612 0.0
H394 H 0.36502 0.20567 0.1451 0.0
C395 C 0.37041 0.22075 0.28647 0.0
H396 H 0.31859 0.16906 0.19817 0.0
C397 C 0.39724 0.24153 0.2561 0.0
C398 C 0.39812 0.23356 0.20515 0.0
H399 H 0.37391 0.22345 0.32599 0.0
H400 H 0.42067 0.25975 0.27297 0.0
C401 C 0.36607 0.21113 0.18449 0.0
C402 C 0.1644 0.63907 0.66515 0.0
C403 C 0.12058 0.67457 0.66891 0.0
H404 H 0.21928 0.58687 0.70333 0.0
C405 C 0.10178 0.68934 0.7159 0.0
H406 H 0.1796 0.62683 0.62943 0.0
C407 C 0.12536 0.66751 0.75825 0.0
C408 C 0.16728 0.62959 0.75416 0.0
H409 H 0.06808 0.71671 0.7198 0.0
H410 H 0.10911 0.67804 0.79393 0.0
C411 C 0.18711 0.61622 0.70735 0.0
C412 C 0.70093 0.86484 0.28948 0.0
C413 C 0.72685 0.89382 0.26889 0.0
H414 H 0.65125 0.82513 0.2763 0.0
C415 C 0.73247 0.89451 0.21765 0.0
H416 H 0.69709 0.86269 0.32902 0.0
C417 C 0.70614 0.87299 0.18743 0.0
C418 C 0.67413 0.85059 0.20827 0.0
H419 H 0.75298 0.91582 0.20078 0.0
H420 H 0.70751 0.8779 0.14799 0.0
C421 C 0.67462 0.84334 0.25929 0.0
C422 C 0.92 0.41105 0.68474 0.0
C423 C 0.96422 0.41687 0.67004 0.0
H424 H 0.86357 0.42818 0.73885 0.0
C425 C 0.98612 0.44356 0.70008 0.0
H426 H 0.90238 0.39056 0.66232 0.0
C427 C 0.96359 0.46566 0.74256 0.0
C428 C 0.91923 0.46066 0.75684 0.0
H429 H 0.02 0.44898 0.68985 0.0
H430 H 0.98071 0.48727 0.76413 0.0
C431 C 0.89791 0.43232 0.72838 0.0
C432 C 0.68602 0.10497 0.22482 0.0
C433 C 0.67163 0.12523 0.27132 0.0
H434 H 0.67614 0.11156 0.14658 0.0
C435 C 0.639 0.17089 0.27395 0.0
H436 H 0.71126 0.06989 0.22176 0.0
C437 C 0.61826 0.19412 0.23113 0.0
C438 C 0.63099 0.1729 0.18484 0.0
H439 H 0.6271 0.1873 0.30925 0.0
H440 H 0.59067 0.22776 0.2343 0.0
C441 C 0.66634 0.12897 0.18185 0.0
C442 C 0.21617 0.3774 0.6468 0.0
C443 C 0.18605 0.35131 0.66445 0.0
H444 H 0.25642 0.42551 0.66478 0.0
C445 C 0.18338 0.34402 0.71528 0.0
H446 H 0.2198 0.38258 0.60767 0.0
C447 C 0.20424 0.36878 0.74803 0.0
C448 C 0.22809 0.4008 0.73017 0.0
H449 H 0.16115 0.32333 0.72993 0.0
H450 H 0.19788 0.36613 0.78708 0.0
C451 C 0.23712 0.40204 0.67953 0.0
C452 C 0.43179 0.91501 0.27366 0.0
C453 C 0.39985 0.96095 0.27024 0.0
H454 H 0.48006 0.85698 0.23512 0.0
C455 C 0.38659 0.98064 0.22341 0.0
H456 H 0.44281 0.89898 0.30921 0.0
C457 C 0.40678 0.95577 0.18089 0.0
C458 C 0.44146 0.91149 0.18471 0.0
H459 H 0.36187 1.01591 0.21973 0.0
H460 H 0.39796 0.97272 0.14536 0.0
C461 C 0.45299 0.89086 0.23132 0.0
C462 C 0.8611 0.7168 0.66298 0.0
C463 C 0.8929 0.7409 0.68081 0.0
H464 H 0.8205 0.66874 0.67983 0.0
C465 C 0.89818 0.74511 0.73178 0.0
H466 H 0.85546 0.71407 0.6238 0.0
C467 C 0.87825 0.71899 0.7639 0.0
C468 C 0.85282 0.68866 0.74522 0.0
H469 H 0.92182 0.76419 0.74659 0.0
H470 H 0.88664 0.71911 0.80271 0.0
C471 C 0.84116 0.69073 0.69506 0.0
loop_
_geom_bond_atom_site_label_1
_geom_bond_atom_site_label_2
_geom_bond_distance
_geom_bond_site_symmetry_2
_ccdc_geom_bond_type
Co0 O3 1.967 1_545 S
Co0 N17 1.989 . S
Co0 O25 1.967 . S
Co0 O32 1.920 . S
Co1 O4 1.966 . S
Co1 N10 2.022 . S
Co1 N18 1.993 1_565 S
Co1 O26 1.941 . S
C2 O3 1.262 . S
C2 O4 1.263 . S
O3 Co0 1.967 1_565 S
O3 C2 1.262 . S
O4 Co1 1.966 . S
O4 C2 1.263 . S
C5 O6 1.235 . S
C5 O32 1.289 . S
O6 C5 1.235 . S
C7 C9 1.400 . S
C7 N10 1.351 . S
C7 C12 1.501 . S
C8 C9 1.387 . S
C8 N11 1.341 . S
C9 C7 1.400 . S
C9 C8 1.387 . S
N10 Co1 2.022 . S
N10 C7 1.351 . S
N10 N11 1.365 . S
N11 C8 1.341 . S
N11 N10 1.365 . S
N11 H31 0.862 . S
C12 C7 1.501 . S
C12 H13 0.961 . S
C12 H14 0.961 . S
C12 H15 0.960 . S
H13 C12 0.961 . S
H14 C12 0.961 . S
H15 C12 0.960 . S
C16 N17 1.342 . S
C16 C20 1.401 . S
C16 C21 1.499 . S
N17 Co0 1.989 . S
N17 C16 1.342 . S
N17 N18 1.388 . S
N18 Co1 1.993 1_545 S
N18 N17 1.388 . S
N18 C19 1.346 . S
C19 N18 1.346 . S
C19 C20 1.396 . S
C19 C29 1.510 . S
C20 C16 1.401 . S
C20 C19 1.396 . S
C21 C16 1.499 . S
C21 H22 0.959 . S
C21 H23 0.960 . S
C21 H24 0.961 . S
H22 C21 0.959 . S
H23 C21 0.960 . S
H24 C21 0.961 . S
O25 Co0 1.967 . S
O25 C33 1.258 1_545 S
O26 Co1 1.941 . S
O26 C33 1.266 . S
H27 C29 0.959 . S
H28 C29 0.961 . S
C29 C19 1.510 . S
C29 H27 0.959 . S
C29 H28 0.961 . S
C29 H30 0.960 . S
H30 C29 0.960 . S
H31 N11 0.862 . S
O32 Co0 1.920 . S
O32 C5 1.289 . S
C33 O25 1.258 1_565 S
C33 O26 1.266 . S
Co34 O37 1.970 1_655 S
Co34 N51 1.989 . S
Co34 O59 1.967 1_655 S
Co34 O66 1.920 . S
Co35 O38 1.966 . S
Co35 N44 2.022 . S
Co35 N52 1.993 . S
Co35 O60 1.941 . S
C36 O37 1.258 . S
C36 O38 1.263 . S
O37 Co34 1.970 1_455 S
O37 C36 1.258 . S
O38 Co35 1.966 . S
O38 C36 1.263 . S
C39 O40 1.235 . S
C39 O66 1.289 . S
O40 C39 1.235 . S
C41 C43 1.400 . S
C41 N44 1.351 . S
C41 C46 1.501 . S
C42 C43 1.387 . S
C42 N45 1.341 . S
C43 C41 1.400 . S
C43 C42 1.387 . S
N44 Co35 2.022 . S
N44 C41 1.351 . S
N44 N45 1.365 . S
N45 C42 1.341 . S
N45 N44 1.365 . S
N45 H65 0.862 . S
C46 C41 1.501 . S
C46 H47 0.961 . S
C46 H48 0.961 . S
C46 H49 0.960 . S
H47 C46 0.961 . S
H48 C46 0.961 . S
H49 C46 0.960 . S
C50 N51 1.342 . S
C50 C54 1.401 . S
C50 C55 1.499 . S
N51 Co34 1.989 . S
N51 C50 1.342 . S
N51 N52 1.388 1_655 S
N52 Co35 1.993 . S
N52 N51 1.388 1_455 S
N52 C53 1.346 1_455 S
C53 N52 1.346 1_655 S
C53 C54 1.396 . S
C53 C63 1.510 1_655 S
C54 C50 1.401 . S
C54 C53 1.396 . S
C55 C50 1.499 . S
C55 H56 0.959 . S
C55 H57 0.960 . S
C55 H58 0.961 . S
H56 C55 0.959 . S
H57 C55 0.960 . S
H58 C55 0.961 . S
O59 Co34 1.967 1_455 S
O59 C67 1.258 . S
O60 Co35 1.941 . S
O60 C67 1.266 . S
H61 C63 0.965 . S
H62 C63 0.961 . S
C63 C53 1.510 1_455 S
C63 H61 0.965 . S
C63 H62 0.961 . S
C63 H64 0.960 . S
H64 C63 0.960 . S
H65 N45 0.862 . S
O66 Co34 1.920 . S
O66 C39 1.289 . S
C67 O59 1.258 . S
C67 O60 1.266 . S
Co68 O71 1.970 1_565 S
Co68 N85 1.989 . S
Co68 O93 1.967 1_565 S
Co68 O100 1.920 . S
Co69 O72 1.966 . S
Co69 N78 2.022 . S
Co69 N86 1.993 . S
Co69 O94 1.941 . S
C70 O71 1.258 . S
C70 O72 1.263 . S
O71 Co68 1.970 1_545 S
O71 C70 1.258 . S
O72 Co69 1.966 . S
O72 C70 1.263 . S
C73 O74 1.235 . S
C73 O100 1.289 . S
O74 C73 1.235 . S
C75 C77 1.400 . S
C75 N78 1.351 . S
C75 C80 1.501 . S
C76 C77 1.387 . S
C76 N79 1.341 . S
C77 C75 1.400 . S
C77 C76 1.387 . S
N78 Co69 2.022 . S
N78 C75 1.351 . S
N78 N79 1.365 . S
N79 C76 1.341 . S
N79 N78 1.365 . S
N79 H99 0.862 . S
C80 C75 1.501 . S
C80 H81 0.961 . S
C80 H82 0.961 . S
C80 H83 0.960 . S
H81 C80 0.961 . S
H82 C80 0.961 . S
H83 C80 0.960 . S
C84 N85 1.342 . S
C84 C88 1.401 . S
C84 C89 1.499 . S
N85 Co68 1.989 . S
N85 C84 1.342 . S
N85 N86 1.388 1_565 S
N86 Co69 1.993 . S
N86 N85 1.388 1_545 S
N86 C87 1.346 1_545 S
C87 N86 1.346 1_565 S
C87 C88 1.396 . S
C87 C97 1.510 1_565 S
C88 C84 1.401 . S
C88 C87 1.396 . S
C89 C84 1.499 . S
C89 H90 0.959 . S
C89 H91 0.960 . S
C89 H92 0.961 . S
H90 C89 0.959 . S
H91 C89 0.960 . S
H92 C89 0.961 . S
O93 Co68 1.967 1_545 S
O93 C101 1.258 . S
O94 Co69 1.941 . S
O94 C101 1.266 . S
H95 C97 0.965 . S
H96 C97 0.961 . S
C97 C87 1.510 1_545 S
C97 H95 0.965 . S
C97 H96 0.961 . S
C97 H98 0.960 . S
H98 C97 0.960 . S
H99 N79 0.862 . S
O100 Co68 1.920 . S
O100 C73 1.289 . S
C101 O93 1.258 . S
C101 O94 1.266 . S
Co102 O105 1.967 1_455 S
Co102 N119 1.989 . S
Co102 O127 1.967 . S
Co102 O134 1.920 . S
Co103 O106 1.966 . S
Co103 N112 2.022 . S
Co103 N120 1.993 1_655 S
Co103 O128 1.941 . S
C104 O105 1.262 . S
C104 O106 1.263 . S
O105 Co102 1.967 1_655 S
O105 C104 1.262 . S
O106 Co103 1.966 . S
O106 C104 1.263 . S
C107 O108 1.235 . S
C107 O134 1.289 . S
O108 C107 1.235 . S
C109 C111 1.400 . S
C109 N112 1.351 . S
C109 C114 1.501 . S
C110 C111 1.387 . S
C110 N113 1.341 . S
C111 C109 1.400 . S
C111 C110 1.387 . S
N112 Co103 2.022 . S
N112 C109 1.351 . S
N112 N113 1.365 . S
N113 C110 1.341 . S
N113 N112 1.365 . S
N113 H133 0.862 . S
C114 C109 1.501 . S
C114 H115 0.961 . S
C114 H116 0.961 . S
C114 H117 0.960 . S
H115 C114 0.961 . S
H116 C114 0.961 . S
H117 C114 0.960 . S
C118 N119 1.342 . S
C118 C122 1.401 . S
C118 C123 1.499 . S
N119 Co102 1.989 . S
N119 C118 1.342 . S
N119 N120 1.388 . S
N120 Co103 1.993 1_455 S
N120 N119 1.388 . S
N120 C121 1.346 . S
C121 N120 1.346 . S
C121 C122 1.396 . S
C121 C131 1.510 . S
C122 C118 1.401 . S
C122 C121 1.396 . S
C123 C118 1.499 . S
C123 H124 0.959 . S
C123 H125 0.960 . S
C123 H126 0.961 . S
H124 C123 0.959 . S
H125 C123 0.960 . S
H126 C123 0.961 . S
O127 Co102 1.967 . S
O127 C135 1.258 1_455 S
O128 Co103 1.941 . S
O128 C135 1.266 . S
H129 C131 0.959 . S
H130 C131 0.961 . S
C131 C121 1.510 . S
C131 H129 0.959 . S
C131 H130 0.961 . S
C131 H132 0.960 . S
H132 C131 0.960 . S
H133 N113 0.862 . S
O134 Co102 1.920 . S
O134 C107 1.289 . S
C135 O127 1.258 1_655 S
C135 O128 1.266 . S
Co136 O139 1.970 . S
Co136 N153 1.989 . S
Co136 O161 1.967 . S
Co136 O168 1.920 . S
Co137 O140 1.966 . S
Co137 N146 2.022 1_556 S
Co137 N154 1.993 . S
Co137 O162 1.941 . S
C138 O139 1.258 . S
C138 O140 1.263 . S
O139 Co136 1.970 . S
O139 C138 1.258 . S
O140 Co137 1.966 . S
O140 C138 1.263 . S
C141 O142 1.235 . S
C141 O168 1.289 . S
O142 C141 1.235 . S
C143 C145 1.400 1_556 S
C143 N146 1.351 1_556 S
C143 C148 1.501 . S
C144 C145 1.387 . S
C144 N147 1.341 . S
C145 C143 1.400 1_554 S
C145 C144 1.387 . S
N146 Co137 2.022 1_554 S
N146 C143 1.351 1_554 S
N146 N147 1.365 . S
N147 C144 1.341 . S
N147 N146 1.365 . S
N147 H167 0.862 . S
C148 C143 1.501 . S
C148 H149 0.961 . S
C148 H150 0.961 . S
C148 H151 0.960 . S
H149 C148 0.961 . S
H150 C148 0.961 . S
H151 C148 0.960 . S
C152 N153 1.342 . S
C152 C156 1.401 . S
C152 C157 1.499 . S
N153 Co136 1.989 . S
N153 C152 1.342 . S
N153 N154 1.388 . S
N154 Co137 1.993 . S
N154 N153 1.388 . S
N154 C155 1.346 . S
C155 N154 1.346 . S
C155 C156 1.396 . S
C155 C165 1.510 1_556 S
C156 C152 1.401 . S
C156 C155 1.396 . S
C157 C152 1.499 . S
C157 H158 0.959 . S
C157 H159 0.960 . S
C157 H160 0.961 . S
H158 C157 0.959 . S
H159 C157 0.960 . S
H160 C157 0.961 . S
O161 Co136 1.967 . S
O161 C169 1.258 . S
O162 Co137 1.941 . S
O162 C169 1.266 . S
H163 C165 0.959 . S
H164 C165 0.961 1_556 S
C165 C155 1.510 1_554 S
C165 H163 0.959 . S
C165 H164 0.961 1_554 S
C165 H166 0.960 . S
H166 C165 0.960 . S
H167 N147 0.862 . S
O168 Co136 1.920 . S
O168 C141 1.289 . S
C169 O161 1.258 . S
C169 O162 1.266 . S
Co170 O173 1.970 . S
Co170 N187 1.989 . S
Co170 O195 1.967 . S
Co170 O202 1.920 . S
Co171 O174 1.966 . S
Co171 N180 2.022 1_554 S
Co171 N188 1.993 . S
Co171 O196 1.941 . S
C172 O173 1.258 . S
C172 O174 1.263 . S
O173 Co170 1.970 . S
O173 C172 1.258 . S
O174 Co171 1.966 . S
O174 C172 1.263 . S
C175 O176 1.235 . S
C175 O202 1.289 . S
O176 C175 1.235 . S
C177 C179 1.400 1_554 S
C177 N180 1.351 1_554 S
C177 C182 1.501 . S
C178 C179 1.387 . S
C178 N181 1.341 . S
C179 C177 1.400 1_556 S
C179 C178 1.387 . S
N180 Co171 2.022 1_556 S
N180 C177 1.351 1_556 S
N180 N181 1.365 . S
N181 C178 1.341 . S
N181 N180 1.365 . S
N181 H201 0.862 . S
C182 C177 1.501 . S
C182 H183 0.961 . S
C182 H184 0.961 . S
C182 H185 0.960 . S
H183 C182 0.961 . S
H184 C182 0.961 . S
H185 C182 0.960 . S
C186 N187 1.342 . S
C186 C190 1.401 . S
C186 C191 1.499 . S
N187 Co170 1.989 . S
N187 C186 1.342 . S
N187 N188 1.388 . S
N188 Co171 1.993 . S
N188 N187 1.388 . S
N188 C189 1.346 . S
C189 N188 1.346 . S
C189 C190 1.396 . S
C189 C199 1.510 1_554 S
C190 C186 1.401 . S
C190 C189 1.396 . S
C191 C186 1.499 . S
C191 H192 0.959 . S
C191 H193 0.960 . S
C191 H194 0.961 . S
H192 C191 0.959 . S
H193 C191 0.960 . S
H194 C191 0.961 . S
O195 Co170 1.967 . S
O195 C203 1.258 . S
O196 Co171 1.941 . S
O196 C203 1.266 . S
H197 C199 0.959 . S
H198 C199 0.961 1_554 S
C199 C189 1.510 1_556 S
C199 H197 0.959 . S
C199 H198 0.961 1_556 S
C199 H200 0.960 . S
H200 C199 0.960 . S
H201 N181 0.862 . S
O202 Co170 1.920 . S
O202 C175 1.289 . S
C203 O195 1.258 . S
C203 O196 1.266 . S
Co204 O207 1.970 . S
Co204 N221 1.989 . S
Co204 O229 1.967 . S
Co204 O236 1.920 . S
Co205 O208 1.966 . S
Co205 N214 2.022 1_556 S
Co205 N222 1.993 . S
Co205 O230 1.941 . S
C206 O207 1.258 . S
C206 O208 1.263 . S
O207 Co204 1.970 . S
O207 C206 1.258 . S
O208 Co205 1.966 . S
O208 C206 1.263 . S
C209 O210 1.235 . S
C209 O236 1.289 . S
O210 C209 1.235 . S
C211 C213 1.400 1_556 S
C211 N214 1.351 1_556 S
C211 C216 1.501 . S
C212 C213 1.387 . S
C212 N215 1.341 . S
C213 C211 1.400 1_554 S
C213 C212 1.387 . S
N214 Co205 2.022 1_554 S
N214 C211 1.351 1_554 S
N214 N215 1.365 . S
N215 C212 1.341 . S
N215 N214 1.365 . S
N215 H235 0.862 . S
C216 C211 1.501 . S
C216 H217 0.961 . S
C216 H218 0.961 . S
C216 H219 0.960 . S
H217 C216 0.961 . S
H218 C216 0.961 . S
H219 C216 0.960 . S
C220 N221 1.342 . S
C220 C224 1.401 . S
C220 C225 1.499 . S
N221 Co204 1.989 . S
N221 C220 1.342 . S
N221 N222 1.388 . S
N222 Co205 1.993 . S
N222 N221 1.388 . S
N222 C223 1.346 . S
C223 N222 1.346 . S
C223 C224 1.396 . S
C223 C233 1.510 1_556 S
C224 C220 1.401 . S
C224 C223 1.396 . S
C225 C220 1.499 . S
C225 H226 0.959 . S
C225 H227 0.960 . S
C225 H228 0.961 . S
H226 C225 0.959 . S
H227 C225 0.960 . S
H228 C225 0.961 . S
O229 Co204 1.967 . S
O229 C237 1.258 . S
O230 Co205 1.941 . S
O230 C237 1.266 . S
H231 C233 0.959 . S
H232 C233 0.961 1_556 S
C233 C223 1.510 1_554 S
C233 H231 0.959 . S
C233 H232 0.961 1_554 S
C233 H234 0.960 . S
H234 C233 0.960 . S
H235 N215 0.862 . S
O236 Co204 1.920 . S
O236 C209 1.289 . S
C237 O229 1.258 . S
C237 O230 1.266 . S
Co238 O241 1.970 . S
Co238 N255 1.989 . S
Co238 O263 1.967 . S
Co238 O270 1.920 . S
Co239 O242 1.966 . S
Co239 N248 2.022 1_554 S
Co239 N256 1.993 . S
Co239 O264 1.941 . S
C240 O241 1.258 . S
C240 O242 1.263 . S
O241 Co238 1.970 . S
O241 C240 1.258 . S
O242 Co239 1.966 . S
O242 C240 1.263 . S
C243 O244 1.235 . S
C243 O270 1.289 . S
O244 C243 1.235 . S
C245 C247 1.400 1_554 S
C245 N248 1.351 1_554 S
C245 C250 1.501 . S
C246 C247 1.387 . S
C246 N249 1.341 . S
C247 C245 1.400 1_556 S
C247 C246 1.387 . S
N248 Co239 2.022 1_556 S
N248 C245 1.351 1_556 S
N248 N249 1.365 . S
N249 C246 1.341 . S
N249 N248 1.365 . S
N249 H269 0.862 . S
C250 C245 1.501 . S
C250 H251 0.961 . S
C250 H252 0.961 . S
C250 H253 0.960 . S
H251 C250 0.961 . S
H252 C250 0.961 . S
H253 C250 0.960 . S
C254 N255 1.342 . S
C254 C258 1.401 . S
C254 C259 1.499 . S
N255 Co238 1.989 . S
N255 C254 1.342 . S
N255 N256 1.388 . S
N256 Co239 1.993 . S
N256 N255 1.388 . S
N256 C257 1.346 . S
C257 N256 1.346 . S
C257 C258 1.396 . S
C257 C267 1.510 1_554 S
C258 C254 1.401 . S
C258 C257 1.396 . S
C259 C254 1.499 . S
C259 H260 0.959 . S
C259 H261 0.960 . S
C259 H262 0.961 . S
H260 C259 0.959 . S
H261 C259 0.960 . S
H262 C259 0.961 . S
O263 Co238 1.967 . S
O263 C271 1.258 . S
O264 Co239 1.941 . S
O264 C271 1.266 . S
H265 C267 0.959 . S
H266 C267 0.961 1_554 S
C267 C257 1.510 1_556 S
C267 H265 0.959 . S
C267 H266 0.961 1_556 S
C267 H268 0.960 . S
H268 C267 0.960 . S
H269 N249 0.862 . S
O270 Co238 1.920 . S
O270 C243 1.289 . S
C271 O263 1.258 . S
C271 O264 1.266 . S
C272 C273 1.387 . S
C272 H276 0.950 . S
C272 C281 1.390 . S
C273 C272 1.387 . S
C273 C275 1.387 . S
H274 C281 0.950 . S
C275 C273 1.387 . S
C275 C277 1.390 . S
C275 H279 0.950 . S
H276 C272 0.950 . S
C277 C275 1.390 . S
C277 C278 1.387 . S
C277 H280 0.950 . S
C278 C277 1.387 . S
C278 C281 1.387 . S
H279 C275 0.950 . S
H280 C277 0.950 . S
C281 C272 1.390 . S
C281 H274 0.950 . S
C281 C278 1.387 . S
C282 C283 1.387 . S
C282 H286 0.950 . S
C282 C291 1.390 . S
C283 C282 1.387 . S
C283 C285 1.387 . S
H284 C291 0.950 . S
C285 C283 1.387 . S
C285 C287 1.390 . S
C285 H289 0.950 . S
H286 C282 0.950 . S
C287 C285 1.390 . S
C287 C288 1.387 . S
C287 H290 0.950 . S
C288 C287 1.387 . S
C288 C291 1.387 . S
H289 C285 0.950 . S
H290 C287 0.950 . S
C291 C282 1.390 . S
C291 H284 0.950 . S
C291 C288 1.387 . S
C292 C293 1.387 1_455 S
C292 H296 0.950 1_455 S
C292 C301 1.390 . S
C293 C292 1.387 1_655 S
C293 C295 1.387 1_656 S
H294 C301 0.950 . S
C295 C293 1.387 1_454 S
C295 C297 1.390 . S
C295 H299 0.950 1_455 S
H296 C292 0.950 1_655 S
C297 C295 1.390 . S
C297 C298 1.387 1_554 S
C297 H300 0.950 . S
C298 C297 1.387 1_556 S
C298 C301 1.387 . S
H299 C295 0.950 1_655 S
H300 C297 0.950 . S
C301 C292 1.390 . S
C301 H294 0.950 . S
C301 C298 1.387 . S
C302 C303 1.387 1_545 S
C302 H306 0.950 1_545 S
C302 C311 1.390 . S
C303 C302 1.387 1_565 S
C303 C305 1.387 1_564 S
H304 C311 0.950 . S
C305 C303 1.387 1_546 S
C305 C307 1.390 . S
C305 H309 0.950 1_545 S
H306 C302 0.950 1_565 S
C307 C305 1.390 . S
C307 C308 1.387 1_556 S
C307 H310 0.950 . S
C308 C307 1.387 1_554 S
C308 C311 1.387 . S
H309 C305 0.950 1_565 S
H310 C307 0.950 . S
C311 C302 1.390 . S
C311 H304 0.950 . S
C311 C308 1.387 . S
C312 C313 1.387 . S
C312 H316 0.950 . S
C312 C321 1.390 . S
C313 C312 1.387 . S
C313 C315 1.387 . S
H314 C321 0.950 . S
C315 C313 1.387 . S
C315 C317 1.390 . S
C315 H319 0.950 . S
H316 C312 0.950 . S
C317 C315 1.390 . S
C317 C318 1.387 . S
C317 H320 0.950 . S
C318 C317 1.387 . S
C318 C321 1.387 . S
H319 C315 0.950 . S
H320 C317 0.950 . S
C321 C312 1.390 . S
C321 H314 0.950 . S
C321 C318 1.387 . S
C322 C323 1.387 . S
C322 H326 0.950 . S
C322 C331 1.390 . S
C323 C322 1.387 . S
C323 C325 1.387 . S
H324 C331 0.950 . S
C325 C323 1.387 . S
C325 C327 1.390 . S
C325 H329 0.950 . S
H326 C322 0.950 . S
C327 C325 1.390 . S
C327 C328 1.387 . S
C327 H330 0.950 . S
C328 C327 1.387 . S
C328 C331 1.387 . S
H329 C325 0.950 . S
H330 C327 0.950 . S
C331 C322 1.390 . S
C331 H324 0.950 . S
C331 C328 1.387 . S
C332 C333 1.387 . S
C332 H336 0.950 . S
C332 C341 1.390 . S
C333 C332 1.387 . S
C333 C335 1.387 . S
H334 C341 0.950 . S
C335 C333 1.387 . S
C335 C337 1.390 . S
C335 H339 0.950 . S
H336 C332 0.950 . S
C337 C335 1.390 . S
C337 C338 1.387 . S
C337 H340 0.950 . S
C338 C337 1.387 . S
C338 C341 1.387 . S
H339 C335 0.950 . S
H340 C337 0.950 . S
C341 C332 1.390 . S
C341 H334 0.950 . S
C341 C338 1.387 . S
C342 C343 1.387 . S
C342 H346 0.950 . S
C342 C351 1.390 . S
C343 C342 1.387 . S
C343 C345 1.387 . S
H344 C351 0.950 . S
C345 C343 1.387 . S
C345 C347 1.390 . S
C345 H349 0.950 . S
H346 C342 0.950 . S
C347 C345 1.390 . S
C347 C348 1.387 . S
C347 H350 0.950 . S
C348 C347 1.387 . S
C348 C351 1.387 . S
H349 C345 0.950 . S
H350 C347 0.950 . S
C351 C342 1.390 . S
C351 H344 0.950 . S
C351 C348 1.387 . S
C352 C353 1.384 1_556 S
C352 H356 0.950 . S
C352 C361 1.393 . S
C353 C352 1.384 1_554 S
C353 C355 1.387 . S
H354 C361 0.950 . S
C355 C353 1.387 . S
C355 C357 1.393 . S
C355 H359 0.950 . S
H356 C352 0.950 . S
C357 C355 1.393 . S
C357 C358 1.384 1_554 S
C357 H360 0.950 . S
C358 C357 1.384 1_556 S
C358 C361 1.387 . S
H359 C355 0.950 . S
H360 C357 0.950 . S
C361 C352 1.393 . S
C361 H354 0.950 . S
C361 C358 1.387 . S
C362 C363 1.387 1_556 S
C362 H366 0.950 . S
C362 C371 1.390 . S
C363 C362 1.387 1_554 S
C363 C365 1.387 . S
H364 C371 0.950 . S
C365 C363 1.387 . S
C365 C367 1.390 . S
C365 H369 0.950 . S
H366 C362 0.950 . S
C367 C365 1.390 . S
C367 C368 1.387 1_554 S
C367 H370 0.950 . S
C368 C367 1.387 1_556 S
C368 C371 1.387 . S
H369 C365 0.950 . S
H370 C367 0.950 . S
C371 C362 1.390 . S
C371 H364 0.950 . S
C371 C368 1.387 . S
C372 C373 1.387 . S
C372 H376 0.950 . S
C372 C381 1.390 1_554 S
C373 C372 1.387 . S
C373 C375 1.387 . S
H374 C381 0.950 . S
C375 C373 1.387 . S
C375 C377 1.390 1_554 S
C375 H379 0.950 . S
H376 C372 0.950 . S
C377 C375 1.390 1_556 S
C377 C378 1.387 . S
C377 H380 0.950 . S
C378 C377 1.387 . S
C378 C381 1.387 . S
H379 C375 0.950 . S
H380 C377 0.950 . S
C381 C372 1.390 1_556 S
C381 H374 0.950 . S
C381 C378 1.387 . S
C382 C383 1.387 1_556 S
C382 H386 0.950 . S
C382 C391 1.390 . S
C383 C382 1.387 1_554 S
C383 C385 1.387 . S
H384 C391 0.950 . S
C385 C383 1.387 . S
C385 C387 1.390 . S
C385 H389 0.950 . S
H386 C382 0.950 . S
C387 C385 1.390 . S
C387 C388 1.387 1_554 S
C387 H390 0.950 . S
C388 C387 1.387 1_556 S
C388 C391 1.387 . S
H389 C385 0.950 . S
H390 C387 0.950 . S
C391 C382 1.390 . S
C391 H384 0.950 . S
C391 C388 1.387 . S
C392 C393 1.387 . S
C392 H396 0.950 . S
C392 C401 1.390 . S
C393 C392 1.387 . S
C393 C395 1.387 . S
H394 C401 0.950 . S
C395 C393 1.387 . S
C395 C397 1.390 . S
C395 H399 0.950 . S
H396 C392 0.950 . S
C397 C395 1.390 . S
C397 C398 1.387 . S
C397 H400 0.950 . S
C398 C397 1.387 . S
C398 C401 1.387 . S
H399 C395 0.950 . S
H400 C397 0.950 . S
C401 C392 1.390 . S
C401 H394 0.950 . S
C401 C398 1.387 . S
C402 C403 1.387 . S
C402 H406 0.950 . S
C402 C411 1.390 . S
C403 C402 1.387 . S
C403 C405 1.387 . S
H404 C411 0.950 . S
C405 C403 1.387 . S
C405 C407 1.390 . S
C405 H409 0.950 . S
H406 C402 0.950 . S
C407 C405 1.390 . S
C407 C408 1.387 . S
C407 H410 0.950 . S
C408 C407 1.387 . S
C408 C411 1.387 . S
H409 C405 0.950 . S
H410 C407 0.950 . S
C411 C402 1.390 . S
C411 H404 0.950 . S
C411 C408 1.387 . S
C412 C413 1.387 . S
C412 H416 0.950 . S
C412 C421 1.390 . S
C413 C412 1.387 . S
C413 C415 1.387 . S
H414 C421 0.950 . S
C415 C413 1.387 . S
C415 C417 1.390 . S
C415 H419 0.950 . S
H416 C412 0.950 . S
C417 C415 1.390 . S
C417 C418 1.387 . S
C417 H420 0.950 . S
C418 C417 1.387 . S
C418 C421 1.387 . S
H419 C415 0.950 . S
H420 C417 0.950 . S
C421 C412 1.390 . S
C421 H414 0.950 . S
C421 C418 1.387 . S
C422 C423 1.387 . S
C422 H426 0.950 . S
C422 C431 1.390 . S
C423 C422 1.387 . S
C423 C425 1.387 . S
H424 C431 0.950 . S
C425 C423 1.387 . S
C425 C427 1.390 . S
C425 H429 0.950 . S
H426 C422 0.950 . S
C427 C425 1.390 . S
C427 C428 1.387 . S
C427 H430 0.950 . S
C428 C427 1.387 . S
C428 C431 1.387 . S
H429 C425 0.950 . S
H430 C427 0.950 . S
C431 C422 1.390 . S
C431 H424 0.950 . S
C431 C428 1.387 . S
C432 C433 1.387 . S
C432 H436 0.950 . S
C432 C441 1.390 . S
C433 C432 1.387 . S
C433 C435 1.387 . S
H434 C441 0.950 . S
C435 C433 1.387 . S
C435 C437 1.390 . S
C435 H439 0.950 . S
H436 C432 0.950 . S
C437 C435 1.390 . S
C437 C438 1.387 . S
C437 H440 0.950 . S
C438 C437 1.387 . S
C438 C441 1.387 . S
H439 C435 0.950 . S
H440 C437 0.950 . S
C441 C432 1.390 . S
C441 H434 0.950 . S
C441 C438 1.387 . S
C442 C443 1.387 . S
C442 H446 0.950 . S
C442 C451 1.390 . S
C443 C442 1.387 . S
C443 C445 1.387 . S
H444 C451 0.950 . S
C445 C443 1.387 . S
C445 C447 1.390 . S
C445 H449 0.950 . S
H446 C442 0.950 . S
C447 C445 1.390 . S
C447 C448 1.387 . S
C447 H450 0.950 . S
C448 C447 1.387 . S
C448 C451 1.387 . S
H449 C445 0.950 . S
H450 C447 0.950 . S
C451 C442 1.390 . S
C451 H444 0.950 . S
C451 C448 1.387 . S
C452 C453 1.387 . S
C452 H456 0.950 . S
C452 C461 1.390 . S
C453 C452 1.387 . S
C453 C455 1.387 . S
H454 C461 0.950 . S
C455 C453 1.387 . S
C455 C457 1.390 . S
C455 H459 0.950 . S
H456 C452 0.950 . S
C457 C455 1.390 . S
C457 C458 1.387 . S
C457 H460 0.950 . S
C458 C457 1.387 . S
C458 C461 1.387 . S
H459 C455 0.950 . S
H460 C457 0.950 . S
C461 C452 1.390 . S
C461 H454 0.950 . S
C461 C458 1.387 . S
C462 C463 1.387 . S
C462 H466 0.950 . S
C462 C471 1.390 . S
C463 C462 1.387 . S
C463 C465 1.387 . S
H464 C471 0.950 . S
C465 C463 1.387 . S
C465 C467 1.390 . S
C465 H469 0.950 . S
H466 C462 0.950 . S
C467 C465 1.390 . S
C467 C468 1.387 . S
C467 H470 0.950 . S
C468 C467 1.387 . S
C468 C471 1.387 . S
H469 C465 0.950 . S
H470 C467 0.950 . S
C471 C462 1.390 . S
C471 H464 0.950 . S
C471 C468 1.387 . S
C273 C101 1.408 . S
C278 C33 1.408 1_545 S
C283 C67 1.411 . S
C288 C135 1.411 1_455 S
C293 C169 1.411 . S
C298 C237 1.411 . S
C303 C271 1.411 . S
C308 C203 1.411 . S
C313 C122 1.553 . S
C318 C20 1.554 . S
C323 C9 1.923 . S
C328 C43 1.923 . S
C333 C88 1.554 . S
C338 C54 1.554 . S
C343 C77 1.923 . S
C348 C111 1.923 . S
C353 C258 1.554 . S
C358 C156 1.554 . S
C363 C145 1.923 . S
C368 C179 1.923 . S
C373 C190 1.555 . S
C378 C224 1.555 . S
C383 C213 1.923 . S
C388 C247 1.923 . S
C393 C5 0.766 . S
C398 C175 0.766 . S
C403 C36 1.551 . S
C408 C206 1.553 . S
C413 C73 0.767 . S
C418 C243 0.766 . S
C423 C104 1.552 . S
C428 C138 1.552 . S
C433 C70 1.551 . S
C438 C172 1.550 . S
C443 C107 0.775 . S
C448 C209 0.774 . S
C453 C2 1.552 . S
C458 C240 1.553 . S
C463 C39 0.773 . S
C468 C141 0.772 . S
