# Generated by pormake.
# Topology crb, (4)-cn, num edge types: 1
# Building blocks:
#     Node 0, Type 0, BuildingBlock: UXUYUI_clean_sbu_0, # of connection points: 4
#     Node 1, Type 0, BuildingBlock: UXUYUI_clean_sbu_0, # of connection points: 4
#     Node 2, Type 0, BuildingBlock: UXUYUI_clean_sbu_0, # of connection points: 4
#     Node 3, Type 0, BuildingBlock: UXUYUI_clean_sbu_0, # of connection points: 4
#     Node 4, Type 0, BuildingBlock: UXUYUI_clean_sbu_0, # of connection points: 4
#     Node 5, Type 0, BuildingBlock: UXUYUI_clean_sbu_0, # of connection points: 4
#     Node 6, Type 0, BuildingBlock: UXUYUI_clean_sbu_0, # of connection points: 4
#     Node 7, Type 0, BuildingBlock: UXUYUI_clean_sbu_0, # of connection points: 4
#     Edge 8, Type (0, 0), BuildingBlock: UVAHIK_clean_linker_0, # of connection points: 2
#     Edge 9, Type (0, 0), BuildingBlock: UVAHIK_clean_linker_0, # of connection points: 2
#     Edge 10, Type (0, 0), BuildingBlock: UVAHIK_clean_linker_0, # of connection points: 2
#     Edge 11, Type (0, 0), BuildingBlock: UVAHIK_clean_linker_0, # of connection points: 2
#     Edge 12, Type (0, 0), BuildingBlock: UVAHIK_clean_linker_0, # of connection points: 2
#     Edge 13, Type (0, 0), BuildingBlock: UVAHIK_clean_linker_0, # of connection points: 2
#     Edge 14, Type (0, 0), BuildingBlock: UVAHIK_clean_linker_0, # of connection points: 2
#     Edge 15, Type (0, 0), BuildingBlock: UVAHIK_clean_linker_0, # of connection points: 2
#     Edge 16, Type (0, 0), BuildingBlock: UVAHIK_clean_linker_0, # of connection points: 2
#     Edge 17, Type (0, 0), BuildingBlock: UVAHIK_clean_linker_0, # of connection points: 2
#     Edge 18, Type (0, 0), BuildingBlock: UVAHIK_clean_linker_0, # of connection points: 2
#     Edge 19, Type (0, 0), BuildingBlock: UVAHIK_clean_linker_0, # of connection points: 2
#     Edge 20, Type (0, 0), BuildingBlock: UVAHIK_clean_linker_0, # of connection points: 2
#     Edge 21, Type (0, 0), BuildingBlock: UVAHIK_clean_linker_0, # of connection points: 2
#     Edge 22, Type (0, 0), BuildingBlock: UVAHIK_clean_linker_0, # of connection points: 2
#     Edge 23, Type (0, 0), BuildingBlock: UVAHIK_clean_linker_0, # of connection points: 2
# Relax obj value: 0.060
# Max RMSD: 0.078
# Mean RMSD: 0.078
data_MOF--net-crb--node1-UXUYUI_clean_sbu_0--edge1-UVAHIK_clean_linker_0
_symmetry_space_group_name_H-M    P1
_symmetry_Int_Tables_number       1
_symmetry_cell_setting            triclinic
loop_
_symmetry_equiv_pos_as_xyz
'x, y, z'
_cell_length_a     74.473756
_cell_length_b     74.476475
_cell_length_c     44.518869
_cell_angle_alpha  89.992069
_cell_angle_beta   89.993425
_cell_angle_gamma 89.991866
loop_
_atom_site_label
_atom_site_type_symbol
_atom_site_fract_x
_atom_site_fract_y
_atom_site_fract_z
_atom_type_partial_charge
Li0 Li 0.31408 0.31256 0.02799 0.0
Li1 Li 0.34096 0.31734 1.00015 0.0
Li2 Li 0.31909 0.34047 0.99897 0.0
Li3 Li 0.31476 0.31138 0.97077 0.0
C4 C 0.32715 0.34153 0.05916 0.0
N5 N 0.31658 0.36157 0.10836 0.0
C6 C 0.33976 0.34682 0.08067 0.0
C7 C 0.30915 0.34645 0.06272 0.0
C8 C 0.33415 0.35694 0.10538 0.0
C9 C 0.30408 0.35658 0.08772 0.0
C10 C 0.33662 0.28111 0.00789 0.0
C11 C 0.35038 0.25282 0.99518 0.0
N12 N 0.35865 0.25259 0.02243 0.0
C13 C 0.34516 0.28057 0.03582 0.0
C14 C 0.33916 0.26713 0.98742 0.0
C15 C 0.35629 0.26605 0.04272 0.0
C16 C 0.28686 0.29463 0.061 0.0
N17 N 0.30335 0.30236 0.06291 0.0
C18 C 0.30469 0.2963 0.11558 0.0
C19 C 0.31242 0.30308 0.0894 0.0
C20 C 0.28758 0.28843 0.11443 0.0
C21 C 0.27869 0.28746 0.08664 0.0
H22 H 0.28002 0.29412 0.03958 0.0
H23 H 0.32566 0.30898 0.09026 0.0
C24 C 0.37611 0.32533 0.01827 0.0
N25 N 0.36644 0.31359 0.00141 0.0
C26 C 0.39478 0.32397 0.01965 0.0
C27 C 0.39327 0.29849 0.98616 0.0
C28 C 0.37461 0.30033 0.98547 0.0
C29 C 0.40361 0.31043 0.0034 0.0
H30 H 0.36931 0.33596 0.03025 0.0
H31 H 0.36671 0.29136 0.97175 0.0
C32 C 0.28151 0.32986 0.98783 0.0
N33 N 0.24869 0.34104 0.96578 0.0
C34 C 0.27979 0.33488 0.95771 0.0
C35 C 0.26655 0.33051 0.00673 0.0
C36 C 0.26308 0.34049 0.94699 0.0
C37 C 0.25007 0.33622 0.99517 0.0
C38 C 0.34832 0.33279 0.94921 0.0
C39 C 0.35888 0.34803 0.95398 0.0
C40 C 0.35439 0.31934 0.9298 0.0
C41 C 0.37544 0.3495 0.93944 0.0
C42 C 0.37101 0.32133 0.91562 0.0
N43 N 0.38111 0.33623 0.92072 0.0
C44 C 0.32973 0.37575 0.00942 0.0
C45 C 0.30012 0.37414 0.99025 0.0
C46 C 0.32877 0.39444 0.01076 0.0
N47 N 0.31558 0.36599 0.99916 0.0
C48 C 0.29858 0.39283 0.99112 0.0
C49 C 0.31305 0.40325 0.00144 0.0
H50 H 0.34183 0.36897 0.01662 0.0
H51 H 0.2889 0.36626 0.98262 0.0
C52 C 0.29299 0.28646 0.9392 0.0
N53 N 0.30454 0.30048 0.93613 0.0
C54 C 0.2853 0.27852 0.9138 0.0
C55 C 0.30166 0.29951 0.8827 0.0
C56 C 0.30882 0.30718 0.90864 0.0
C57 C 0.28974 0.28498 0.8851 0.0
H58 H 0.28974 0.2815 0.96139 0.0
H59 H 0.31768 0.31862 0.90687 0.0
O60 O 0.33257 0.33162 0.03486 0.0
O61 O 0.32583 0.29528 1.00055 0.0
O62 O 0.29765 0.32399 0.99869 0.0
O63 O 0.33224 0.33093 0.96377 0.0
H64 H 0.35374 0.3431 0.07836 0.0
H65 H 0.29915 0.34255 0.04644 0.0
H66 H 0.34377 0.3611 0.12219 0.0
H67 H 0.2902 0.36047 0.09071 0.0
H68 H 0.35254 0.24193 0.97954 0.0
H69 H 0.34343 0.29138 0.05177 0.0
H70 H 0.33261 0.26739 0.9657 0.0
H71 H 0.36309 0.26549 0.06417 0.0
H72 H 0.3121 0.29704 0.13648 0.0
H73 H 0.26546 0.28154 0.08486 0.0
H74 H 0.40223 0.33367 0.0328 0.0
H75 H 0.39951 0.2878 0.9734 0.0
H76 H 0.2913 0.33476 0.94291 0.0
H77 H 0.26766 0.32667 0.03011 0.0
H78 H 0.26157 0.34447 0.92376 0.0
H79 H 0.23837 0.33681 0.00955 0.0
H80 H 0.35441 0.35856 0.96889 0.0
H81 H 0.34656 0.30729 0.92624 0.0
H82 H 0.38379 0.36118 0.94306 0.0
H83 H 0.37594 0.31096 0.90074 0.0
H84 H 0.34032 0.40192 0.0186 0.0
H85 H 0.28611 0.39905 0.98414 0.0
H86 H 0.27619 0.2673 0.91653 0.0
H87 H 0.30518 0.30507 0.861 0.0
Li88 Li 0.68375 0.34115 1.00039 0.0
Li89 Li 0.68793 0.31334 0.02926 0.0
Li90 Li 0.68738 0.31307 0.97249 0.0
Li91 Li 0.65971 0.31707 0.00164 0.0
C92 C 0.71998 0.33517 0.99793 0.0
N93 N 0.75013 0.35665 0.99338 0.0
C94 C 0.73212 0.33625 0.0218 0.0
C95 C 0.72333 0.34481 0.97158 0.0
C96 C 0.74725 0.34724 0.01911 0.0
C97 C 0.73859 0.35565 0.96975 0.0
C98 C 0.6672 0.33517 0.06488 0.0
C99 C 0.65414 0.32727 0.11269 0.0
N100 N 0.6631 0.34112 0.12579 0.0
C101 C 0.67607 0.34947 0.07874 0.0
C102 C 0.65597 0.3241 0.08192 0.0
C103 C 0.67391 0.3522 0.10958 0.0
C104 C 0.67551 0.37626 0.98292 0.0
N105 N 0.68731 0.36654 0.99956 0.0
C106 C 0.70246 0.39334 0.01486 0.0
C107 C 0.70057 0.37468 0.01557 0.0
C108 C 0.69047 0.40375 0.99776 0.0
C109 C 0.67685 0.39493 0.98164 0.0
H110 H 0.66486 0.3695 0.97089 0.0
H111 H 0.70956 0.36675 0.02921 0.0
C112 C 0.698 0.28531 0.06903 0.0
N113 N 0.69842 0.30338 0.06473 0.0
C114 C 0.705 0.2778 0.09528 0.0
C115 C 0.71336 0.30755 0.11177 0.0
C116 C 0.70608 0.31449 0.0853 0.0
C117 C 0.71275 0.28898 0.11711 0.0
H118 H 0.69228 0.27669 0.05206 0.0
H119 H 0.70657 0.32877 0.08116 0.0
C120 C 0.66578 0.33375 0.93715 0.0
N121 N 0.6605 0.33762 0.87604 0.0
C122 C 0.65163 0.32483 0.92295 0.0
C123 C 0.67703 0.34492 0.92036 0.0
C124 C 0.64924 0.32688 0.89201 0.0
C125 C 0.67421 0.34663 0.88947 0.0
C126 C 0.66575 0.2809 0.00463 0.0
C127 C 0.66427 0.26851 0.98118 0.0
C128 C 0.65658 0.27781 0.03153 0.0
C129 C 0.65335 0.25341 0.98484 0.0
C130 C 0.64579 0.26257 0.03433 0.0
N131 N 0.64439 0.2508 0.0111 0.0
C132 C 0.71507 0.30374 0.9315 0.0
C133 C 0.6859 0.29454 0.91689 0.0
C134 C 0.72233 0.29682 0.905 0.0
N135 N 0.69711 0.3027 0.93675 0.0
C136 C 0.6926 0.28732 0.8902 0.0
C137 C 0.71104 0.28853 0.88389 0.0
H138 H 0.72379 0.3099 0.94789 0.0
H139 H 0.67172 0.29364 0.92175 0.0
C140 C 0.62457 0.32482 0.01984 0.0
N141 N 0.63436 0.31336 0.00264 0.0
C142 C 0.60591 0.32325 0.02119 0.0
C143 C 0.60768 0.29821 0.98678 0.0
C144 C 0.62632 0.30027 0.98612 0.0
C145 C 0.59721 0.30982 0.00447 0.0
H146 H 0.63124 0.33535 0.03225 0.0
H147 H 0.63433 0.29156 0.97211 0.0
O148 O 0.70499 0.32463 1.00029 0.0
O149 O 0.66922 0.33225 0.03471 0.0
O150 O 0.66842 0.33176 0.9674 0.0
O151 O 0.67624 0.29587 0.00134 0.0
H152 H 0.72994 0.32868 0.04216 0.0
H153 H 0.71427 0.34388 0.95273 0.0
H154 H 0.7567 0.34826 0.03747 0.0
H155 H 0.74129 0.36324 0.94953 0.0
H156 H 0.64555 0.31876 0.12615 0.0
H157 H 0.68469 0.35826 0.06592 0.0
H158 H 0.6486 0.31328 0.07149 0.0
H159 H 0.68083 0.36313 0.12062 0.0
H160 H 0.71322 0.39953 0.02751 0.0
H161 H 0.66707 0.40238 0.96867 0.0
H162 H 0.70456 0.26338 0.09828 0.0
H163 H 0.71917 0.31666 0.12806 0.0
H164 H 0.64269 0.31626 0.93559 0.0
H165 H 0.68775 0.3523 0.93105 0.0
H166 H 0.63843 0.31991 0.8807 0.0
H167 H 0.68288 0.35516 0.87619 0.0
H168 H 0.67148 0.27049 0.96039 0.0
H169 H 0.65786 0.28705 0.05008 0.0
H170 H 0.65202 0.24377 0.96681 0.0
H171 H 0.63857 0.26008 0.05499 0.0
H172 H 0.73667 0.29774 0.90125 0.0
H173 H 0.68341 0.28111 0.87448 0.0
H174 H 0.59837 0.33272 0.03466 0.0
H175 H 0.60155 0.28762 0.97365 0.0
Li176 Li 0.65912 0.68242 0.00111 0.0
Li177 Li 0.68761 0.68676 0.0287 0.0
Li178 Li 0.68688 0.68707 0.97369 0.0
Li179 Li 0.6821 0.65989 1.00031 0.0
C180 C 0.66826 0.71797 0.01835 0.0
N181 N 0.65488 0.74582 0.05269 0.0
C182 C 0.65867 0.71434 0.04466 0.0
C183 C 0.67109 0.73575 0.00955 0.0
C184 C 0.652 0.7286 0.0617 0.0
C185 C 0.66419 0.74965 0.0272 0.0
C186 C 0.66946 0.65414 0.05425 0.0
C187 C 0.68645 0.63463 0.08688 0.0
N188 N 0.67187 0.62379 0.08975 0.0
C189 C 0.65462 0.64284 0.05762 0.0
C190 C 0.68551 0.65004 0.06904 0.0
C191 C 0.65611 0.62754 0.07562 0.0
C192 C 0.6239 0.67034 1.00048 0.0
N193 N 0.63368 0.68573 1.00031 0.0
C194 C 0.60689 0.70335 0.99692 0.0
C195 C 0.62561 0.70207 0.99804 0.0
C196 C 0.59643 0.68765 0.99759 0.0
C197 C 0.60519 0.67098 0.99926 0.0
H198 H 0.63069 0.65753 0.00119 0.0
H199 H 0.63362 0.71412 0.99662 0.0
C200 C 0.7131 0.70723 0.06136 0.0
N201 N 0.69799 0.69711 0.06376 0.0
C202 C 0.72071 0.71507 0.08692 0.0
C203 C 0.69708 0.70183 0.11683 0.0
C204 C 0.68987 0.6944 0.09072 0.0
C205 C 0.71271 0.71238 0.11523 0.0
H206 H 0.71916 0.70929 0.03955 0.0
H207 H 0.67776 0.68643 0.09198 0.0
C208 C 0.65786 0.67358 0.94161 0.0
N209 N 0.63734 0.68309 0.8924 0.0
C210 C 0.6516 0.6604 0.92189 0.0
C211 C 0.65366 0.69161 0.93633 0.0
C212 C 0.64126 0.66548 0.89712 0.0
C213 C 0.64327 0.69614 0.91132 0.0
C214 C 0.71764 0.66717 0.98358 0.0
C215 C 0.71339 0.65679 0.9584 0.0
C216 C 0.73561 0.67004 0.99114 0.0
C217 C 0.72724 0.64945 0.94117 0.0
C218 C 0.74908 0.66246 0.97335 0.0
N219 N 0.74465 0.65241 0.94894 0.0
C220 C 0.70613 0.71345 0.94077 0.0
C221 C 0.69661 0.68841 0.91211 0.0
C222 C 0.71421 0.7211 0.91543 0.0
N223 N 0.69754 0.69741 0.93863 0.0
C224 C 0.70428 0.69563 0.88622 0.0
C225 C 0.71333 0.71218 0.88758 0.0
H226 H 0.70682 0.72023 0.96222 0.0
H227 H 0.68992 0.67556 0.91096 0.0
C228 C 0.67197 0.62458 0.98721 0.0
N229 N 0.68536 0.6345 0.99961 0.0
C230 C 0.67326 0.6059 0.98623 0.0
C231 C 0.70205 0.60796 0.01112 0.0
C232 C 0.70026 0.62663 0.0114 0.0
C233 C 0.68844 0.59736 0.99834 0.0
H234 H 0.66021 0.63122 0.97828 0.0
H235 H 0.71068 0.63486 0.02122 0.0
O236 O 0.67519 0.70428 0.00147 0.0
O237 O 0.66845 0.66893 0.03608 0.0
O238 O 0.6679 0.66869 0.96604 0.0
O239 O 0.70436 0.67463 1.00078 0.0
H240 H 0.65628 0.70067 0.05179 0.0
H241 H 0.67855 0.73877 0.9893 0.0
H242 H 0.64454 0.72599 0.08208 0.0
H243 H 0.66626 0.76348 0.02065 0.0
H244 H 0.69882 0.63124 0.09828 0.0
H245 H 0.64208 0.6458 0.04646 0.0
H246 H 0.69722 0.65848 0.06631 0.0
H247 H 0.64475 0.61865 0.07835 0.0
H248 H 0.6007 0.71645 0.99498 0.0
H249 H 0.59767 0.65854 0.99986 0.0
H250 H 0.73258 0.72331 0.08443 0.0
H251 H 0.69056 0.69912 0.13808 0.0
H252 H 0.65473 0.64639 0.92567 0.0
H253 H 0.65835 0.70203 0.95127 0.0
H254 H 0.63634 0.65541 0.88166 0.0
H255 H 0.63993 0.71003 0.90697 0.0
H256 H 0.69957 0.6544 0.95218 0.0
H257 H 0.73911 0.67807 0.01056 0.0
H258 H 0.72415 0.6414 0.92163 0.0
H259 H 0.76306 0.66457 0.97894 0.0
H260 H 0.72127 0.73373 0.91778 0.0
H261 H 0.70294 0.68834 0.86531 0.0
H262 H 0.66236 0.59821 0.97655 0.0
H263 H 0.71402 0.6019 0.0205 0.0
Li264 Li 0.31704 0.65955 1.00052 0.0
Li265 Li 0.31272 0.68702 0.02656 0.0
Li266 Li 0.31102 0.68616 0.97164 0.0
Li267 Li 0.33997 0.68208 0.99791 0.0
C268 C 0.28178 0.66707 0.01879 0.0
N269 N 0.25535 0.65279 0.05523 0.0
C270 C 0.28644 0.65689 0.04399 0.0
C271 C 0.26368 0.66999 0.01213 0.0
C272 C 0.27289 0.64979 0.06213 0.0
C273 C 0.25051 0.66265 0.03082 0.0
C274 C 0.3423 0.67378 0.05756 0.0
C275 C 0.3574 0.69658 0.0866 0.0
N276 N 0.36372 0.68367 0.10546 0.0
C277 C 0.34896 0.66075 0.0772 0.0
C278 C 0.34656 0.69186 0.06225 0.0
C279 C 0.35975 0.66602 0.1013 0.0
C280 C 0.32826 0.62447 0.01211 0.0
N281 N 0.31403 0.63413 0.002 0.0
C282 C 0.29727 0.60728 0.99311 0.0
C283 C 0.29868 0.62599 0.9926 0.0
C284 C 0.31179 0.59692 0.00345 0.0
C285 C 0.32743 0.60577 0.01307 0.0
H286 H 0.34036 0.63134 0.01909 0.0
H287 H 0.28761 0.63401 0.98442 0.0
C288 C 0.29423 0.71383 0.05969 0.0
N289 N 0.3027 0.69771 0.06183 0.0
C290 C 0.28662 0.72176 0.08517 0.0
C291 C 0.29668 0.6964 0.11453 0.0
C292 C 0.30393 0.68891 0.08851 0.0
C293 C 0.28779 0.71303 0.11316 0.0
H294 H 0.29331 0.72045 0.03812 0.0
H295 H 0.31054 0.67602 0.08968 0.0
C296 C 0.32872 0.65326 0.94619 0.0
N297 N 0.32577 0.62251 0.9118 0.0
C298 C 0.34372 0.64235 0.94138 0.0
C299 C 0.31224 0.64857 0.93337 0.0
C300 C 0.34195 0.62685 0.92397 0.0
C301 C 0.31102 0.63297 0.91606 0.0
C302 C 0.33063 0.7174 0.9801 0.0
C303 C 0.33952 0.71344 0.95324 0.0
C304 C 0.32831 0.73529 0.98873 0.0
C305 C 0.34599 0.72748 0.93548 0.0
C306 C 0.33499 0.74895 0.97035 0.0
N307 N 0.34362 0.7448 0.94433 0.0
C308 C 0.28583 0.70743 0.93966 0.0
C309 C 0.30716 0.69224 0.90937 0.0
C310 C 0.27794 0.7151 0.91419 0.0
N311 N 0.30011 0.69619 0.93676 0.0
C312 C 0.29955 0.69938 0.88335 0.0
C313 C 0.28474 0.71096 0.88558 0.0
H314 H 0.28062 0.71046 0.96178 0.0
H315 H 0.31879 0.68362 0.9077 0.0
C316 C 0.37518 0.67001 0.99628 0.0
N317 N 0.3654 0.68539 0.99715 0.0
C318 C 0.3939 0.67067 0.99589 0.0
C319 C 0.39222 0.70304 0.99836 0.0
C320 C 0.3735 0.70174 0.99877 0.0
C321 C 0.40269 0.68736 0.99668 0.0
H322 H 0.36839 0.65719 0.9963 0.0
H323 H 0.36551 0.71378 1.00059 0.0
O324 O 0.29476 0.67431 1.00072 0.0
O325 O 0.33183 0.6687 0.03378 0.0
O326 O 0.33003 0.66824 0.96385 0.0
O327 O 0.32391 0.70395 0.99773 0.0
H328 H 0.30037 0.65447 0.04952 0.0
H329 H 0.25986 0.67787 0.99271 0.0
H330 H 0.27631 0.64189 0.0817 0.0
H331 H 0.23645 0.66481 0.02593 0.0
H332 H 0.3608 0.7105 0.0905 0.0
H333 H 0.3458 0.64671 0.07384 0.0
H334 H 0.34157 0.70216 0.04735 0.0
H335 H 0.36499 0.65607 0.1167 0.0
H336 H 0.28492 0.60102 0.98571 0.0
H337 H 0.33905 0.59831 0.02073 0.0
H338 H 0.27968 0.73446 0.08285 0.0
H339 H 0.29822 0.68926 0.13556 0.0
H340 H 0.3566 0.64579 0.95097 0.0
H341 H 0.30043 0.65673 0.93719 0.0
H342 H 0.35343 0.61825 0.92015 0.0
H343 H 0.29832 0.62913 0.90619 0.0
H344 H 0.34149 0.69969 0.9462 0.0
H345 H 0.3214 0.73857 0.00941 0.0
H346 H 0.35291 0.72461 0.91466 0.0
H347 H 0.33331 0.76286 0.97676 0.0
H348 H 0.26651 0.72397 0.91678 0.0
H349 H 0.30536 0.6961 0.86173 0.0
H350 H 0.40139 0.65821 0.99545 0.0
H351 H 0.39841 0.71619 0.99905 0.0
Li352 Li 0.81409 0.81251 0.52859 0.0
Li353 Li 0.84071 0.81841 0.50093 0.0
Li354 Li 0.81754 0.84073 0.50094 0.0
Li355 Li 0.81393 0.81184 0.47321 0.0
C356 C 0.82693 0.84186 0.56041 0.0
N357 N 0.81729 0.86165 0.61037 0.0
C358 C 0.84007 0.84793 0.58037 0.0
C359 C 0.80887 0.8459 0.56582 0.0
C360 C 0.83493 0.85791 0.60552 0.0
C361 C 0.80428 0.85591 0.59121 0.0
C362 C 0.83496 0.78252 0.51781 0.0
C363 C 0.84125 0.75125 0.52719 0.0
N364 N 0.85113 0.75595 0.55165 0.0
C365 C 0.84518 0.78704 0.54303 0.0
C366 C 0.83296 0.76449 0.50979 0.0
C367 C 0.85324 0.77342 0.55985 0.0
C368 C 0.78833 0.79271 0.5617 0.0
N369 N 0.80421 0.80161 0.56377 0.0
C370 C 0.80596 0.7953 0.61633 0.0
C371 C 0.81314 0.80286 0.59031 0.0
C372 C 0.78952 0.78604 0.61507 0.0
C373 C 0.78073 0.78474 0.58716 0.0
H374 H 0.7816 0.79177 0.54022 0.0
H375 H 0.82586 0.80979 0.59141 0.0
C376 C 0.87582 0.83025 0.51149 0.0
N377 N 0.86626 0.81605 0.50098 0.0
C378 C 0.89455 0.82981 0.51133 0.0
C379 C 0.89326 0.80001 0.48991 0.0
C380 C 0.87453 0.80107 0.49031 0.0
C381 C 0.90351 0.81455 0.50039 0.0
H382 H 0.86885 0.842 0.51972 0.0
H383 H 0.86659 0.79006 0.4817 0.0
C384 C 0.78126 0.82935 0.48705 0.0
N385 N 0.75028 0.8401 0.45807 0.0
C386 C 0.78218 0.83672 0.45821 0.0
C387 C 0.7646 0.8274 0.50112 0.0
C388 C 0.76635 0.84207 0.44393 0.0
C389 C 0.74909 0.83295 0.48612 0.0
C390 C 0.84622 0.83363 0.44923 0.0
C391 C 0.85556 0.8499 0.44922 0.0
C392 C 0.853 0.81903 0.43307 0.0
C393 C 0.87168 0.85123 0.43331 0.0
C394 C 0.86915 0.8209 0.41742 0.0
N395 N 0.87809 0.83682 0.4179 0.0
C396 C 0.82837 0.87601 0.50846 0.0
C397 C 0.79729 0.8741 0.4976 0.0
C398 C 0.82738 0.89469 0.50999 0.0
N399 N 0.81352 0.86612 0.50201 0.0
C400 C 0.79572 0.8928 0.4986 0.0
C401 C 0.81092 0.90333 0.50478 0.0
H402 H 0.84103 0.86931 0.51248 0.0
H403 H 0.7855 0.86609 0.49356 0.0
C404 C 0.79201 0.78708 0.44144 0.0
N405 N 0.80367 0.80101 0.43844 0.0
C406 C 0.78426 0.77923 0.416 0.0
C407 C 0.80075 0.80018 0.38501 0.0
C408 C 0.808 0.80773 0.41098 0.0
C409 C 0.78873 0.78572 0.3873 0.0
H410 H 0.78871 0.78212 0.46361 0.0
H411 H 0.81697 0.81908 0.40924 0.0
O412 O 0.8319 0.83216 0.53566 0.0
O413 O 0.82688 0.79557 0.50091 0.0
O414 O 0.79649 0.82366 0.50128 0.0
O415 O 0.83068 0.83188 0.46537 0.0
H416 H 0.85411 0.84495 0.57646 0.0
H417 H 0.79849 0.84137 0.55067 0.0
H418 H 0.84496 0.86267 0.62117 0.0
H419 H 0.79037 0.85911 0.59568 0.0
H420 H 0.83982 0.73724 0.52124 0.0
H421 H 0.84694 0.80091 0.54954 0.0
H422 H 0.82509 0.76078 0.49032 0.0
H423 H 0.86119 0.77673 0.57942 0.0
H424 H 0.81315 0.79695 0.63727 0.0
H425 H 0.7682 0.7775 0.58487 0.0
H426 H 0.90193 0.84124 0.5199 0.0
H427 H 0.89964 0.78809 0.48095 0.0
H428 H 0.79498 0.83846 0.44711 0.0
H429 H 0.76369 0.82166 0.52342 0.0
H430 H 0.76685 0.84783 0.42164 0.0
H431 H 0.73611 0.83156 0.49677 0.0
H432 H 0.85048 0.86136 0.46144 0.0
H433 H 0.84603 0.80628 0.4331 0.0
H434 H 0.8791 0.86371 0.43325 0.0
H435 H 0.87463 0.80967 0.40504 0.0
H436 H 0.83944 0.9023 0.51472 0.0
H437 H 0.78271 0.89893 0.495 0.0
H438 H 0.77509 0.76807 0.4187 0.0
H439 H 0.80429 0.80578 0.36335 0.0
Li440 Li 0.18309 0.84115 0.50022 0.0
Li441 Li 0.18781 0.8139 0.52673 0.0
Li442 Li 0.18939 0.81467 0.47155 0.0
Li443 Li 0.16022 0.81855 0.49816 0.0
C444 C 0.21848 0.83413 0.51851 0.0
N445 N 0.24477 0.84891 0.55463 0.0
C446 C 0.21372 0.84411 0.5439 0.0
C447 C 0.2366 0.83167 0.5115 0.0
C448 C 0.22722 0.85147 0.56187 0.0
C449 C 0.2497 0.83926 0.53004 0.0
C450 C 0.15831 0.82701 0.5579 0.0
C451 C 0.14322 0.80427 0.58707 0.0
N452 N 0.13742 0.81713 0.60647 0.0
C453 C 0.15218 0.84001 0.57808 0.0
C454 C 0.15377 0.80898 0.56237 0.0
C455 C 0.14165 0.83474 0.60252 0.0
C456 C 0.17177 0.8763 0.51154 0.0
N457 N 0.18602 0.86661 0.50158 0.0
C458 C 0.20285 0.89342 0.4928 0.0
C459 C 0.2014 0.87472 0.49228 0.0
C460 C 0.1883 0.90385 0.50287 0.0
C461 C 0.1726 0.89501 0.51231 0.0
H462 H 0.15964 0.86946 0.51847 0.0
H463 H 0.21248 0.86669 0.48417 0.0
C464 C 0.20651 0.78717 0.55956 0.0
N465 N 0.19789 0.80321 0.56194 0.0
C466 C 0.21385 0.77899 0.58504 0.0
C467 C 0.20327 0.80396 0.61486 0.0
C468 C 0.19638 0.81176 0.58882 0.0
C469 C 0.2121 0.78735 0.61318 0.0
H470 H 0.20761 0.78073 0.53786 0.0
H471 H 0.18982 0.82466 0.59014 0.0
C472 C 0.16896 0.84785 0.44795 0.0
N473 N 0.16729 0.88012 0.41744 0.0
C474 C 0.15287 0.85747 0.4468 0.0
C475 C 0.18417 0.85456 0.43333 0.0
C476 C 0.1523 0.87378 0.43133 0.0
C477 C 0.18306 0.87092 0.41809 0.0
C478 C 0.1705 0.78267 0.48186 0.0
C479 C 0.16313 0.78523 0.45329 0.0
C480 C 0.17202 0.76532 0.49352 0.0
C481 C 0.15733 0.77033 0.43688 0.0
C482 C 0.16603 0.75078 0.47643 0.0
N483 N 0.15888 0.75356 0.4487 0.0
C484 C 0.21361 0.79213 0.4399 0.0
C485 C 0.19456 0.80985 0.40922 0.0
C486 C 0.2215 0.78438 0.4145 0.0
N487 N 0.20045 0.80465 0.43678 0.0
C488 C 0.20221 0.80264 0.38329 0.0
C489 C 0.21586 0.78973 0.38573 0.0
H490 H 0.21789 0.78812 0.46214 0.0
H491 H 0.18376 0.81947 0.40733 0.0
C492 C 0.1252 0.83043 0.50385 0.0
N493 N 0.13471 0.81525 0.49806 0.0
C494 C 0.10648 0.83006 0.50452 0.0
C495 C 0.10754 0.79828 0.49391 0.0
C496 C 0.12629 0.79925 0.4937 0.0
C497 C 0.09735 0.81386 0.49916 0.0
H498 H 0.13224 0.84288 0.50817 0.0
H499 H 0.134 0.78718 0.49019 0.0
O500 O 0.20556 0.8267 0.50054 0.0
O501 O 0.16856 0.83209 0.53384 0.0
O502 O 0.16994 0.83209 0.46367 0.0
O503 O 0.17669 0.79696 0.4981 0.0
H504 H 0.19978 0.8462 0.54968 0.0
H505 H 0.24048 0.82397 0.49193 0.0
H506 H 0.22373 0.85921 0.58158 0.0
H507 H 0.26378 0.83746 0.52487 0.0
H508 H 0.13962 0.79037 0.59082 0.0
H509 H 0.15554 0.85402 0.57488 0.0
H510 H 0.15834 0.79871 0.54703 0.0
H511 H 0.13683 0.84466 0.61834 0.0
H512 H 0.21528 0.89962 0.48558 0.0
H513 H 0.16093 0.90247 0.51972 0.0
H514 H 0.22054 0.76614 0.58288 0.0
H515 H 0.2019 0.81096 0.63607 0.0
H516 H 0.14094 0.85244 0.45776 0.0
H517 H 0.19679 0.84736 0.43425 0.0
H518 H 0.13996 0.88141 0.43038 0.0
H519 H 0.19476 0.87634 0.40691 0.0
H520 H 0.16179 0.79857 0.44396 0.0
H521 H 0.17778 0.76314 0.51555 0.0
H522 H 0.15159 0.77211 0.41477 0.0
H523 H 0.16709 0.73727 0.4852 0.0
H524 H 0.23201 0.77447 0.4173 0.0
H525 H 0.19727 0.80689 0.36153 0.0
H526 H 0.09927 0.84233 0.50951 0.0
H527 H 0.10114 0.78548 0.48962 0.0
Li528 Li 0.18659 0.18744 0.52705 0.0
Li529 Li 0.1592 0.18281 0.50087 0.0
Li530 Li 0.18208 0.16018 0.49789 0.0
Li531 Li 0.18552 0.18958 0.47204 0.0
C532 C 0.17378 0.15751 0.55757 0.0
N533 N 0.18391 0.13596 0.60516 0.0
C534 C 0.16084 0.15074 0.57727 0.0
C535 C 0.19188 0.15327 0.56201 0.0
C536 C 0.16623 0.13989 0.60122 0.0
C537 C 0.19672 0.14237 0.58622 0.0
C538 C 0.1662 0.21807 0.52019 0.0
C539 C 0.16124 0.24913 0.533 0.0
N540 N 0.15172 0.2439 0.55756 0.0
C541 C 0.15637 0.213 0.54557 0.0
C542 C 0.16867 0.23627 0.51384 0.0
C543 C 0.14915 0.22626 0.56418 0.0
C544 C 0.21326 0.20614 0.55985 0.0
N545 N 0.19736 0.1973 0.56234 0.0
C546 C 0.19679 0.2024 0.61534 0.0
C547 C 0.18898 0.19551 0.58932 0.0
C548 C 0.21325 0.21149 0.61354 0.0
C549 C 0.22146 0.21348 0.58532 0.0
H550 H 0.21957 0.20746 0.53807 0.0
H551 H 0.17617 0.18875 0.59072 0.0
C552 C 0.12415 0.17046 0.50958 0.0
N553 N 0.13369 0.18541 0.50241 0.0
C554 C 0.10542 0.17088 0.5096 0.0
C555 C 0.10666 0.20225 0.49571 0.0
C556 C 0.12539 0.20114 0.49546 0.0
C557 C 0.09648 0.18694 0.50261 0.0
H558 H 0.13115 0.15811 0.51478 0.0
H559 H 0.13327 0.21274 0.48923 0.0
C560 C 0.21746 0.17068 0.48062 0.0
N561 N 0.24578 0.15916 0.44549 0.0
C562 C 0.21422 0.16313 0.45237 0.0
C563 C 0.23508 0.17243 0.49094 0.0
C564 C 0.22873 0.15738 0.43496 0.0
C565 C 0.24923 0.16649 0.47287 0.0
C566 C 0.15253 0.16923 0.44797 0.0
C567 C 0.1434 0.15293 0.44505 0.0
C568 C 0.1454 0.18475 0.43492 0.0
C569 C 0.12713 0.15248 0.42945 0.0
C570 C 0.1291 0.18374 0.4195 0.0
N571 N 0.12036 0.16777 0.41714 0.0
C572 C 0.17061 0.12492 0.50196 0.0
C573 C 0.20205 0.1267 0.49448 0.0
C574 C 0.17142 0.10623 0.5032 0.0
N575 N 0.18574 0.13475 0.49736 0.0
C576 C 0.20347 0.10799 0.49525 0.0
C577 C 0.18801 0.09752 0.49969 0.0
H578 H 0.15788 0.13169 0.50503 0.0
H579 H 0.21405 0.13468 0.49211 0.0
C580 C 0.20819 0.21377 0.44076 0.0
N581 N 0.19531 0.20099 0.43745 0.0
C582 C 0.21594 0.2218 0.41548 0.0
C583 C 0.19691 0.20344 0.384 0.0
C584 C 0.18972 0.19562 0.40981 0.0
C585 C 0.21021 0.21669 0.38665 0.0
H586 H 0.21252 0.21762 0.46305 0.0
H587 H 0.17985 0.18507 0.40774 0.0
O588 O 0.16857 0.16802 0.53389 0.0
O589 O 0.17354 0.20538 0.50167 0.0
O590 O 0.20355 0.1768 0.49786 0.0
O591 O 0.16823 0.17007 0.46389 0.0
H592 H 0.14677 0.15386 0.57404 0.0
H593 H 0.20211 0.15832 0.547 0.0
H594 H 0.15635 0.13457 0.61666 0.0
H595 H 0.21068 0.13899 0.58994 0.0
H596 H 0.16305 0.26328 0.52836 0.0
H597 H 0.15427 0.19899 0.55084 0.0
H598 H 0.17629 0.2404 0.4943 0.0
H599 H 0.14151 0.22252 0.58388 0.0
H600 H 0.1899 0.20084 0.63661 0.0
H601 H 0.2342 0.22037 0.58306 0.0
H602 H 0.09801 0.15882 0.51518 0.0
H603 H 0.10021 0.21481 0.48986 0.0
H604 H 0.20067 0.16163 0.44402 0.0
H605 H 0.2378 0.17834 0.51269 0.0
H606 H 0.22643 0.15149 0.41308 0.0
H607 H 0.26294 0.16774 0.48059 0.0
H608 H 0.14878 0.14077 0.45476 0.0
H609 H 0.15224 0.1975 0.43718 0.0
H610 H 0.11987 0.13998 0.42716 0.0
H611 H 0.12335 0.19568 0.40954 0.0
H612 H 0.15917 0.09866 0.50663 0.0
H613 H 0.21656 0.10179 0.49304 0.0
H614 H 0.22616 0.23199 0.41842 0.0
H615 H 0.19236 0.1989 0.36217 0.0
Li616 Li 0.8123 0.18729 0.52796 0.0
Li617 Li 0.81711 0.15961 0.50125 0.0
Li618 Li 0.84006 0.18266 0.50148 0.0
Li619 Li 0.81263 0.18701 0.47365 0.0
C620 C 0.84054 0.17304 0.56117 0.0
N621 N 0.86023 0.1816 0.61178 0.0
C622 C 0.84639 0.1595 0.58055 0.0
C623 C 0.8447 0.19095 0.56753 0.0
C624 C 0.85633 0.16409 0.60603 0.0
C625 C 0.85467 0.195 0.59322 0.0
C626 C 0.78163 0.16738 0.51715 0.0
C627 C 0.75007 0.16288 0.52671 0.0
N628 N 0.75424 0.15239 0.55073 0.0
C629 C 0.78561 0.15653 0.54191 0.0
C630 C 0.76372 0.17057 0.50945 0.0
C631 C 0.77158 0.14909 0.5586 0.0
C632 C 0.79503 0.21484 0.56054 0.0
N633 N 0.8015 0.19782 0.56256 0.0
C634 C 0.79253 0.19592 0.614 0.0
C635 C 0.80044 0.18832 0.58859 0.0
C636 C 0.78576 0.2135 0.61267 0.0
C637 C 0.78712 0.22302 0.58551 0.0
H638 H 0.796 0.22203 0.5395 0.0
H639 H 0.80579 0.17485 0.58972 0.0
C640 C 0.82818 0.12449 0.51172 0.0
N641 N 0.81408 0.13424 0.50131 0.0
C642 C 0.82726 0.10579 0.5126 0.0
C643 C 0.79731 0.10747 0.49184 0.0
C644 C 0.79884 0.12617 0.4913 0.0
C645 C 0.81164 0.09701 0.50268 0.0
H646 H 0.8402 0.1313 0.51924 0.0
H647 H 0.78784 0.13424 0.48298 0.0
C648 C 0.83215 0.21794 0.48403 0.0
N649 N 0.84711 0.24507 0.44986 0.0
C650 C 0.84317 0.21378 0.45958 0.0
C651 C 0.82877 0.2359 0.49112 0.0
C652 C 0.8506 0.22768 0.44257 0.0
C653 C 0.83645 0.24943 0.47357 0.0
C654 C 0.82773 0.15834 0.44199 0.0
C655 C 0.84178 0.15165 0.42446 0.0
C656 C 0.80997 0.15452 0.43409 0.0
C657 C 0.83782 0.14122 0.39923 0.0
C658 C 0.80657 0.14403 0.40871 0.0
N659 N 0.82044 0.13766 0.39195 0.0
C660 C 0.87507 0.17053 0.4961 0.0
C661 C 0.87368 0.20136 0.50901 0.0
C662 C 0.89379 0.17103 0.4961 0.0
N663 N 0.86545 0.18557 0.5023 0.0
C664 C 0.89241 0.20254 0.50886 0.0
C665 C 0.90277 0.18723 0.50226 0.0
H666 H 0.86813 0.1581 0.49129 0.0
H667 H 0.86573 0.21308 0.51435 0.0
C668 C 0.78537 0.20391 0.44001 0.0
N669 N 0.8024 0.19742 0.43846 0.0
C670 C 0.77738 0.21167 0.41475 0.0
C671 C 0.80469 0.20607 0.38691 0.0
C672 C 0.81208 0.19829 0.41259 0.0
C673 C 0.78711 0.21288 0.38778 0.0
H674 H 0.77803 0.2031 0.46093 0.0
H675 H 0.82555 0.19291 0.41184 0.0
O676 O 0.83082 0.16865 0.53615 0.0
O677 O 0.79509 0.1749 0.50042 0.0
O678 O 0.82458 0.20461 0.50098 0.0
O679 O 0.83149 0.16852 0.46678 0.0
H680 H 0.84327 0.14557 0.57594 0.0
H681 H 0.84027 0.20164 0.55287 0.0
H682 H 0.86094 0.15374 0.62123 0.0
H683 H 0.85798 0.2088 0.5984 0.0
H684 H 0.73615 0.16526 0.52101 0.0
H685 H 0.79936 0.15383 0.54819 0.0
H686 H 0.76041 0.17891 0.49032 0.0
H687 H 0.77447 0.14068 0.57781 0.0
H688 H 0.79197 0.1882 0.6346 0.0
H689 H 0.78192 0.23654 0.58348 0.0
H690 H 0.83876 0.0983 0.5206 0.0
H691 H 0.78495 0.1013 0.48423 0.0
H692 H 0.84603 0.19998 0.4538 0.0
H693 H 0.82028 0.23936 0.50999 0.0
H694 H 0.85915 0.22464 0.42359 0.0
H695 H 0.83394 0.26339 0.4788 0.0
H696 H 0.8556 0.1545 0.43031 0.0
H697 H 0.79891 0.15958 0.44735 0.0
H698 H 0.84856 0.13595 0.38545 0.0
H699 H 0.79289 0.14097 0.40234 0.0
H700 H 0.90111 0.15876 0.49163 0.0
H701 H 0.89865 0.21537 0.51349 0.0
H702 H 0.76385 0.2169 0.41641 0.0
H703 H 0.81256 0.20653 0.36646 0.0
C704 C 0.30383 0.43272 0.97865 0.0
C705 C 0.31184 0.42316 0.00237 0.0
C706 C 0.30316 0.45148 0.97916 0.0
C707 C 0.32526 0.49076 0.01367 0.0
H708 H 0.2829 0.51633 0.98653 0.0
C709 C 0.31791 0.56727 0.02825 0.0
C710 C 0.31077 0.57699 0.00396 0.0
C711 C 0.31747 0.54852 0.02837 0.0
C712 C 0.2949 0.50939 0.9939 0.0
H713 H 0.32491 0.42582 0.04566 0.0
H714 H 0.3237 0.45851 0.04661 0.0
H715 H 0.28313 0.48355 0.98623 0.0
H716 H 0.29756 0.5746 0.96073 0.0
H717 H 0.2968 0.54184 0.96095 0.0
H718 H 0.33706 0.51654 0.02127 0.0
C719 C 0.31825 0.45152 0.02732 0.0
C720 C 0.29503 0.49061 0.99373 0.0
C721 C 0.31893 0.43278 0.02679 0.0
C722 C 0.30296 0.56752 0.97997 0.0
C723 C 0.30253 0.54874 0.98009 0.0
C724 C 0.32513 0.50951 0.01386 0.0
C725 C 0.31046 0.46111 0.00343 0.0
C726 C 0.31021 0.48107 0.00365 0.0
C727 C 0.30989 0.53902 0.00421 0.0
C728 C 0.30994 0.51906 0.00401 0.0
H729 H 0.29845 0.42572 0.95932 0.0
H730 H 0.29727 0.45845 0.96022 0.0
H731 H 0.3373 0.48385 0.02095 0.0
H732 H 0.32374 0.57416 0.04732 0.0
H733 H 0.32297 0.54145 0.04755 0.0
C734 C 0.43297 0.3115 0.03106 0.0
C735 C 0.42351 0.30901 0.00407 0.0
C736 C 0.45171 0.31066 0.03157 0.0
C737 C 0.49097 0.29416 0.98866 0.0
H738 H 0.51683 0.32959 0.03557 0.0
C739 C 0.56767 0.30487 0.97843 0.0
C740 C 0.57731 0.30827 0.005 0.0
C741 C 0.54891 0.30413 0.97874 0.0
C742 C 0.50982 0.31945 0.02266 0.0
H743 H 0.42635 0.30373 0.95639 0.0
H744 H 0.45906 0.30228 0.95726 0.0
H745 H 0.48413 0.32983 0.03531 0.0
H746 H 0.57477 0.31298 0.05289 0.0
H747 H 0.54206 0.3117 0.05342 0.0
H748 H 0.51671 0.28387 0.97586 0.0
C749 C 0.45197 0.30463 0.97814 0.0
C750 C 0.49107 0.31959 0.02251 0.0
C751 C 0.43322 0.30546 0.97764 0.0
C752 C 0.56775 0.31064 0.03194 0.0
C753 C 0.549 0.30991 0.03225 0.0
C754 C 0.50975 0.29402 0.98879 0.0
C755 C 0.46145 0.30732 0.00508 0.0
C756 C 0.48141 0.30696 0.00549 0.0
C757 C 0.53936 0.30679 0.00562 0.0
C758 C 0.51939 0.30669 0.00577 0.0
H759 H 0.42588 0.31397 0.0519 0.0
H760 H 0.45858 0.31249 0.05279 0.0
H761 H 0.48394 0.28409 0.97563 0.0
H762 H 0.5746 0.30324 0.95722 0.0
H763 H 0.54189 0.30194 0.95777 0.0
C764 C 0.68845 0.43328 0.9706 0.0
C765 C 0.69184 0.42368 0.99721 0.0
C766 C 0.68897 0.45203 0.97034 0.0
C767 C 0.70637 0.49135 0.01136 0.0
H768 H 0.66766 0.51655 0.97116 0.0
C769 C 0.69583 0.568 0.0232 0.0
C770 C 0.68996 0.57749 0.99773 0.0
C771 C 0.6967 0.54925 0.02286 0.0
C772 C 0.67872 0.50976 0.98212 0.0
H773 H 0.69853 0.42639 0.04445 0.0
H774 H 0.69964 0.45912 0.04386 0.0
H775 H 0.66827 0.48386 0.97081 0.0
H776 H 0.68096 0.5748 0.95166 0.0
H777 H 0.68273 0.54213 0.95086 0.0
H778 H 0.71691 0.51724 0.02253 0.0
C779 C 0.69671 0.45208 0.02314 0.0
C780 C 0.67904 0.49101 0.98196 0.0
C781 C 0.69611 0.43332 0.02344 0.0
C782 C 0.68526 0.56784 0.97178 0.0
C783 C 0.68624 0.54912 0.97137 0.0
C784 C 0.70612 0.51013 0.01139 0.0
C785 C 0.69298 0.46165 0.99666 0.0
C786 C 0.69285 0.48159 0.99659 0.0
C787 C 0.69183 0.53956 0.99698 0.0
C788 C 0.69227 0.51957 0.99679 0.0
H789 H 0.68546 0.4263 0.94985 0.0
H790 H 0.68631 0.45902 0.94947 0.0
H791 H 0.7173 0.48447 0.02255 0.0
H792 H 0.69934 0.57507 0.04364 0.0
H793 H 0.70081 0.54233 0.04312 0.0
C794 C 0.4325 0.67659 0.97743 0.0
C795 C 0.42264 0.68829 0.99594 0.0
C796 C 0.45125 0.67708 0.97721 0.0
C797 C 0.49012 0.70575 0.99569 0.0
H798 H 0.51596 0.66054 0.99646 0.0
C799 C 0.56708 0.70143 0.01327 0.0
C800 C 0.57652 0.68858 0.99636 0.0
C801 C 0.54831 0.70187 0.01286 0.0
C802 C 0.50897 0.67329 0.99585 0.0
H803 H 0.42484 0.70972 0.02873 0.0
H804 H 0.4576 0.71064 0.02819 0.0
H805 H 0.48327 0.66048 0.99635 0.0
H806 H 0.57364 0.66653 0.96494 0.0
H807 H 0.54095 0.66735 0.96404 0.0
H808 H 0.51587 0.71855 0.99509 0.0
C809 C 0.45078 0.7012 0.01364 0.0
C810 C 0.49022 0.67325 0.99582 0.0
C811 C 0.432 0.70068 0.01392 0.0
C812 C 0.56677 0.67638 0.97865 0.0
C813 C 0.54802 0.67685 0.97817 0.0
C814 C 0.50891 0.70579 0.99564 0.0
C815 C 0.46061 0.68932 0.99543 0.0
C816 C 0.48057 0.68947 0.99567 0.0
C817 C 0.53854 0.68949 0.99546 0.0
C818 C 0.51856 0.68955 0.99564 0.0
H819 H 0.42573 0.66712 0.96286 0.0
H820 H 0.45842 0.66797 0.96253 0.0
H821 H 0.48308 0.71847 0.99522 0.0
H822 H 0.5742 0.71089 0.0274 0.0
H823 H 0.54144 0.71164 0.02673 0.0
C824 C 0.80029 0.93262 0.48326 0.0
C825 C 0.80971 0.92322 0.50564 0.0
C826 C 0.79981 0.95139 0.48338 0.0
C827 C 0.82415 0.99079 0.51384 0.0
H828 H 0.78121 0.01667 0.4903 0.0
C829 C 0.8177 0.06743 0.52787 0.0
C830 C 0.8104 0.07707 0.5036 0.0
C831 C 0.81706 0.04869 0.5284 0.0
C832 C 0.79334 0.00962 0.49668 0.0
H833 H 0.82547 0.92608 0.54627 0.0
H834 H 0.82439 0.95879 0.54684 0.0
H835 H 0.78096 0.9839 0.49109 0.0
H836 H 0.79663 0.07447 0.46087 0.0
H837 H 0.79537 0.04172 0.46198 0.0
H838 H 0.83647 0.01651 0.51963 0.0
C839 C 0.81776 0.95172 0.52871 0.0
C840 C 0.79322 0.99084 0.4971 0.0
C841 C 0.81834 0.93297 0.52846 0.0
C842 C 0.80217 0.06749 0.4801 0.0
C843 C 0.80147 0.04873 0.4807 0.0
C844 C 0.82423 0.00954 0.51358 0.0
C845 C 0.80864 0.96118 0.50601 0.0
C846 C 0.80863 0.98118 0.50569 0.0
C847 C 0.80903 0.03912 0.50475 0.0
C848 C 0.80883 0.01917 0.50501 0.0
H849 H 0.79368 0.92547 0.46519 0.0
H850 H 0.79287 0.95822 0.46532 0.0
H851 H 0.83637 0.98382 0.51998 0.0
H852 H 0.82381 0.07436 0.54664 0.0
H853 H 0.82273 0.04168 0.54749 0.0
C854 C 0.068 0.7985 0.51088 0.0
C855 C 0.07735 0.81332 0.49903 0.0
C856 C 0.04921 0.79818 0.51095 0.0
C857 C 0.00989 0.82802 0.50876 0.0
H858 H 0.98395 0.78538 0.48398 0.0
C859 C 0.93337 0.82896 0.49043 0.0
C860 C 0.92344 0.81392 0.49978 0.0
C861 C 0.95212 0.82852 0.49027 0.0
C862 C 0.99097 0.79733 0.49135 0.0
H863 H 0.07412 0.83921 0.47724 0.0
H864 H 0.04145 0.83874 0.47792 0.0
H865 H 0.01673 0.78521 0.48421 0.0
H866 H 0.92543 0.78663 0.51638 0.0
H867 H 0.95819 0.78591 0.51646 0.0
H868 H 0.98426 0.84012 0.51626 0.0
C869 C 0.04867 0.82747 0.48743 0.0
C870 C 0.00976 0.79722 0.49142 0.0
C871 C 0.06742 0.82774 0.48713 0.0
C872 C 0.9327 0.79837 0.50875 0.0
C873 C 0.95148 0.79796 0.50874 0.0
C874 C 0.99114 0.82809 0.50888 0.0
C875 C 0.03935 0.81271 0.4994 0.0
C876 C 0.01942 0.81261 0.49995 0.0
C877 C 0.96143 0.81306 0.49961 0.0
C878 C 0.98142 0.81279 0.49998 0.0
H879 H 0.07516 0.78727 0.52062 0.0
H880 H 0.04239 0.7867 0.52061 0.0
H881 H 0.01696 0.83999 0.51592 0.0
H882 H 0.92662 0.84103 0.48289 0.0
H883 H 0.95931 0.84027 0.4825 0.0
C884 C 0.19931 0.0681 0.4797 0.0
C885 C 0.18913 0.07764 0.50093 0.0
C886 C 0.19984 0.04933 0.48031 0.0
C887 C 0.17477 0.01005 0.5098 0.0
H888 H 0.2185 0.98424 0.4905 0.0
C889 C 0.18152 0.93363 0.52689 0.0
C890 C 0.18937 0.9238 0.50331 0.0
C891 C 0.18201 0.95238 0.5269 0.0
C892 C 0.20616 0.99127 0.49571 0.0
H893 H 0.17204 0.07506 0.5401 0.0
H894 H 0.17321 0.04238 0.54158 0.0
H895 H 0.21852 0.01701 0.49033 0.0
H896 H 0.20392 0.92609 0.46125 0.0
H897 H 0.20498 0.95884 0.46153 0.0
H898 H 0.16248 0.9843 0.51547 0.0
C899 C 0.1804 0.04931 0.5239 0.0
C900 C 0.20615 0.01006 0.49555 0.0
C901 C 0.17976 0.06805 0.52313 0.0
C902 C 0.19797 0.93321 0.47999 0.0
C903 C 0.19856 0.95198 0.4801 0.0
C904 C 0.17483 0.9913 0.51016 0.0
C905 C 0.19031 0.03969 0.50234 0.0
C906 C 0.19044 0.01969 0.5026 0.0
C907 C 0.19045 0.96176 0.50344 0.0
C908 C 0.19051 0.9817 0.50312 0.0
H909 H 0.20652 0.07514 0.46215 0.0
H910 H 0.20741 0.04238 0.4631 0.0
H911 H 0.16234 0.01699 0.51474 0.0
H912 H 0.17509 0.92684 0.54551 0.0
H913 H 0.1759 0.95955 0.54544 0.0
C914 C 0.93265 0.17763 0.48125 0.0
C915 C 0.92278 0.18806 0.50182 0.0
C916 C 0.9514 0.17792 0.48137 0.0
C917 C 0.99027 0.20504 0.50189 0.0
H918 H 0.01567 0.15961 0.50386 0.0
C919 C 0.06732 0.20134 0.5171 0.0
C920 C 0.07661 0.18759 0.50213 0.0
C921 C 0.04854 0.20168 0.51717 0.0
C922 C 0.00886 0.17244 0.50279 0.0
H923 H 0.92514 0.20711 0.53857 0.0
H924 H 0.9579 0.20802 0.53799 0.0
H925 H 0.98298 0.15988 0.50315 0.0
H926 H 0.07366 0.16376 0.47472 0.0
H927 H 0.04097 0.16463 0.47388 0.0
H928 H 0.01605 0.21767 0.50066 0.0
C929 C 0.95099 0.19958 0.52189 0.0
C930 C 0.9901 0.17256 0.50255 0.0
C931 C 0.93221 0.1991 0.52209 0.0
C932 C 0.0668 0.17437 0.48681 0.0
C933 C 0.04805 0.17484 0.48649 0.0
C934 C 0.00906 0.20494 0.50168 0.0
C935 C 0.96075 0.18886 0.50172 0.0
C936 C 0.98064 0.18885 0.50211 0.0
C937 C 0.03864 0.18842 0.50188 0.0
C938 C 0.01862 0.18862 0.50213 0.0
H939 H 0.92592 0.16929 0.46482 0.0
H940 H 0.95861 0.16972 0.46531 0.0
H941 H 0.98327 0.21779 0.50127 0.0
H942 H 0.07459 0.21162 0.5293 0.0
H943 H 0.04182 0.21218 0.52968 0.0
C944 C 0.20702 0.23071 0.33578 0.0
C945 C 0.21813 0.2249 0.35935 0.0
C946 C 0.21444 0.23793 0.3096 0.0
C947 C 0.25668 0.25716 0.27849 0.0
H948 H 0.23365 0.24682 0.20235 0.0
C949 C 0.27939 0.29149 0.16877 0.0
C950 C 0.27913 0.28134 0.14218 0.0
C951 C 0.27176 0.28475 0.19513 0.0
C952 C 0.24039 0.2497 0.22334 0.0
H953 H 0.24571 0.22199 0.37397 0.0
H954 H 0.25875 0.23414 0.32799 0.0
H955 H 0.22122 0.23448 0.24838 0.0
H956 H 0.27081 0.25613 0.12236 0.0
H957 H 0.25787 0.24411 0.16852 0.0
H958 H 0.27629 0.27174 0.25332 0.0
C959 C 0.24427 0.23357 0.32994 0.0
C960 C 0.23308 0.24284 0.24989 0.0
C961 C 0.23682 0.22656 0.35629 0.0
C962 C 0.27102 0.26433 0.14246 0.0
C963 C 0.26356 0.25748 0.16893 0.0
C964 C 0.2641 0.26387 0.25191 0.0
C965 C 0.23318 0.2393 0.30617 0.0
C966 C 0.24107 0.24653 0.27786 0.0
C967 C 0.26385 0.2676 0.19566 0.0
C968 C 0.25602 0.26029 0.22397 0.0
H969 H 0.19255 0.2298 0.33771 0.0
H970 H 0.20543 0.24254 0.29214 0.0
H971 H 0.26311 0.26049 0.29957 0.0
H972 H 0.28534 0.30477 0.1691 0.0
H973 H 0.27191 0.29311 0.21502 0.0
C974 C 0.73678 0.28719 0.15652 0.0
C975 C 0.72016 0.28131 0.14528 0.0
C976 C 0.74377 0.27993 0.18301 0.0
C977 C 0.7396 0.24061 0.2338 0.0
H978 H 0.76519 0.27133 0.28959 0.0
C979 C 0.76135 0.21693 0.35206 0.0
C980 C 0.77901 0.22115 0.36065 0.0
C981 C 0.7539 0.22442 0.3261 0.0
C982 C 0.75818 0.26257 0.27411 0.0
H983 H 0.69769 0.26346 0.15325 0.0
H984 H 0.7097 0.25098 0.19972 0.0
H985 H 0.7526 0.28412 0.24379 0.0
H986 H 0.80258 0.2368 0.34914 0.0
H987 H 0.78956 0.24988 0.30379 0.0
H988 H 0.74504 0.21911 0.26442 0.0
C989 C 0.71757 0.2609 0.18776 0.0
C990 C 0.75101 0.26987 0.2478 0.0
C991 C 0.71065 0.26807 0.16115 0.0
C992 C 0.78899 0.23318 0.34294 0.0
C993 C 0.78148 0.24079 0.31714 0.0
C994 C 0.74666 0.23334 0.26022 0.0
C995 C 0.73424 0.26671 0.19901 0.0
C996 C 0.74168 0.25898 0.22723 0.0
C997 C 0.7639 0.23642 0.30836 0.0
C998 C 0.75609 0.24422 0.2806 0.0
H999 H 0.74453 0.29721 0.14456 0.0
H1000 H 0.75678 0.2845 0.19068 0.0
H1001 H 0.73277 0.23175 0.21827 0.0
H1002 H 0.75339 0.20761 0.36515 0.0
H1003 H 0.74026 0.22092 0.32001 0.0
C1004 C 0.79188 0.77383 0.33489 0.0
C1005 C 0.78093 0.77758 0.35981 0.0
C1006 C 0.78453 0.76661 0.30866 0.0
C1007 C 0.74398 0.74333 0.27913 0.0
H1008 H 0.7627 0.75908 0.2022 0.0
C1009 C 0.70943 0.72666 0.16622 0.0
C1010 C 0.7206 0.7204 0.14294 0.0
C1011 C 0.71679 0.73365 0.19262 0.0
C1012 C 0.75743 0.75446 0.22353 0.0
H1013 H 0.75367 0.77679 0.37675 0.0
H1014 H 0.74072 0.76456 0.33076 0.0
H1015 H 0.77534 0.77123 0.24843 0.0
H1016 H 0.74836 0.71667 0.12946 0.0
H1017 H 0.76115 0.72928 0.17527 0.0
H1018 H 0.72582 0.72683 0.254 0.0
C1019 C 0.75507 0.76679 0.33164 0.0
C1020 C 0.76471 0.76136 0.25007 0.0
C1021 C 0.76247 0.77385 0.35801 0.0
C1022 C 0.73933 0.7216 0.14663 0.0
C1023 C 0.74668 0.72877 0.17294 0.0
C1024 C 0.73659 0.73658 0.25256 0.0
C1025 C 0.766 0.76313 0.30656 0.0
C1026 C 0.75813 0.75585 0.27826 0.0
C1027 C 0.73548 0.73475 0.19629 0.0
C1028 C 0.74327 0.74203 0.22449 0.0
H1029 H 0.8062 0.77633 0.33578 0.0
H1030 H 0.79345 0.76362 0.29011 0.0
H1031 H 0.73876 0.73852 0.30035 0.0
H1032 H 0.69496 0.72632 0.164 0.0
H1033 H 0.70783 0.73841 0.21006 0.0
C1034 C 0.22907 0.79293 0.33421 0.0
C1035 C 0.22398 0.78184 0.3583 0.0
C1036 C 0.23623 0.78552 0.30798 0.0
C1037 C 0.23679 0.74424 0.26345 0.0
H1038 H 0.27934 0.76464 0.22664 0.0
C1039 C 0.27202 0.7102 0.16296 0.0
C1040 C 0.27989 0.72114 0.1408 0.0
C1041 C 0.26517 0.71767 0.18938 0.0
C1042 C 0.26728 0.75893 0.23631 0.0
H1043 H 0.22238 0.75431 0.37381 0.0
H1044 H 0.23481 0.74131 0.32777 0.0
H1045 H 0.26766 0.77752 0.27305 0.0
H1046 H 0.28651 0.74866 0.1292 0.0
H1047 H 0.27386 0.76173 0.17459 0.0
H1048 H 0.23608 0.72591 0.22652 0.0
C1049 C 0.23326 0.75574 0.32927 0.0
C1050 C 0.26066 0.76628 0.263 0.0
C1051 C 0.2263 0.76318 0.35568 0.0
C1052 C 0.2804 0.7398 0.14557 0.0
C1053 C 0.27338 0.7473 0.17188 0.0
C1054 C 0.24329 0.73701 0.23657 0.0
C1055 C 0.23827 0.76684 0.30513 0.0
C1056 C 0.24538 0.75897 0.27689 0.0
C1057 C 0.26578 0.73632 0.19426 0.0
C1058 C 0.25867 0.74422 0.22267 0.0
H1059 H 0.22755 0.80737 0.33569 0.0
H1060 H 0.23987 0.79438 0.28967 0.0
H1061 H 0.22484 0.73849 0.27343 0.0
H1062 H 0.27108 0.69581 0.15994 0.0
H1063 H 0.25963 0.70873 0.20617 0.0
C1064 C 0.23694 0.77215 0.64151 0.0
C1065 C 0.21934 0.77886 0.64077 0.0
C1066 C 0.24392 0.76477 0.66795 0.0
C1067 C 0.23586 0.76307 0.7506 0.0
H1068 H 0.26938 0.72335 0.74661 0.0
C1069 C 0.273 0.73715 0.85607 0.0
C1070 C 0.27658 0.71868 0.85808 0.0
C1071 C 0.26598 0.74448 0.82964 0.0
C1072 C 0.25987 0.73429 0.74825 0.0
H1073 H 0.19502 0.78263 0.6667 0.0
H1074 H 0.20689 0.76923 0.71248 0.0
H1075 H 0.25685 0.73549 0.70055 0.0
H1076 H 0.27513 0.69331 0.83446 0.0
H1077 H 0.2623 0.7059 0.78874 0.0
H1078 H 0.23825 0.76135 0.79835 0.0
C1079 C 0.2156 0.77016 0.69307 0.0
C1080 C 0.25288 0.74148 0.72169 0.0
C1081 C 0.20873 0.77776 0.66678 0.0
C1082 C 0.2727 0.70763 0.83336 0.0
C1083 C 0.26545 0.7149 0.8071 0.0
C1084 C 0.24267 0.75574 0.77717 0.0
C1085 C 0.23335 0.7637 0.69414 0.0
C1086 C 0.2408 0.75599 0.72247 0.0
C1087 C 0.26213 0.73346 0.80473 0.0
C1088 C 0.2548 0.74126 0.77639 0.0
H1089 H 0.24547 0.77301 0.62184 0.0
H1090 H 0.25773 0.76023 0.66795 0.0
H1091 H 0.22682 0.77441 0.75219 0.0
H1092 H 0.27606 0.74599 0.8747 0.0
H1093 H 0.26391 0.75885 0.82858 0.0
C1094 C 0.26348 0.27338 0.85563 0.0
C1095 C 0.28199 0.27676 0.85768 0.0
C1096 C 0.25613 0.26626 0.82928 0.0
C1097 C 0.26633 0.25966 0.74808 0.0
H1098 H 0.22613 0.22674 0.7524 0.0
C1099 C 0.22832 0.23648 0.64171 0.0
C1100 C 0.22172 0.21882 0.64108 0.0
C1101 C 0.23571 0.24354 0.66807 0.0
C1102 C 0.2375 0.23575 0.75071 0.0
H1103 H 0.30739 0.27486 0.83421 0.0
H1104 H 0.29474 0.26193 0.78864 0.0
H1105 H 0.2392 0.23835 0.79844 0.0
H1106 H 0.21814 0.19453 0.66715 0.0
H1107 H 0.23151 0.20658 0.71283 0.0
H1108 H 0.26512 0.25647 0.70041 0.0
C1109 C 0.28574 0.26528 0.8069 0.0
C1110 C 0.24483 0.24265 0.7772 0.0
C1111 C 0.29304 0.2726 0.83309 0.0
C1112 C 0.22292 0.20827 0.66714 0.0
C1113 C 0.2305 0.21524 0.69337 0.0
C1114 C 0.25913 0.2526 0.7216 0.0
C1115 C 0.26716 0.26215 0.80451 0.0
C1116 C 0.25934 0.25473 0.77627 0.0
C1117 C 0.23687 0.23302 0.6943 0.0
C1118 C 0.24459 0.24055 0.72253 0.0
H1119 H 0.25463 0.27665 0.87414 0.0
H1120 H 0.24174 0.26433 0.82818 0.0
H1121 H 0.27731 0.26913 0.74635 0.0
H1122 H 0.22738 0.24497 0.62201 0.0
H1123 H 0.24018 0.25737 0.668 0.0
C1124 C 0.71286 0.26433 0.84477 0.0
C1125 C 0.71845 0.28117 0.85548 0.0
C1126 C 0.71989 0.25738 0.81809 0.0
C1127 C 0.75837 0.26215 0.76578 0.0
H1128 H 0.72753 0.23554 0.71152 0.0
C1129 C 0.78152 0.23959 0.64768 0.0
C1130 C 0.77742 0.22182 0.63957 0.0
C1131 C 0.77406 0.24721 0.67353 0.0
C1132 C 0.73634 0.24283 0.72656 0.0
H1133 H 0.73553 0.30408 0.84633 0.0
H1134 H 0.74764 0.2921 0.79955 0.0
H1135 H 0.71503 0.24819 0.75751 0.0
H1136 H 0.76197 0.19825 0.65182 0.0
H1137 H 0.74901 0.21154 0.69701 0.0
H1138 H 0.77964 0.25688 0.73462 0.0
C1139 C 0.73811 0.28406 0.81208 0.0
C1140 C 0.72919 0.25005 0.75297 0.0
C1141 C 0.73116 0.29095 0.83886 0.0
C1142 C 0.76552 0.21192 0.65764 0.0
C1143 C 0.75796 0.21959 0.68335 0.0
C1144 C 0.76548 0.25503 0.73928 0.0
C1145 C 0.7326 0.26716 0.80137 0.0
C1146 C 0.74014 0.25973 0.773 0.0
C1147 C 0.76224 0.23728 0.69168 0.0
C1148 C 0.75456 0.24522 0.71945 0.0
H1149 H 0.70326 0.25637 0.8573 0.0
H1150 H 0.71557 0.2442 0.81083 0.0
H1151 H 0.76727 0.26927 0.78089 0.0
H1152 H 0.79075 0.2475 0.63432 0.0
H1153 H 0.77749 0.26093 0.67924 0.0
C1154 C 0.72176 0.73859 0.85502 0.0
C1155 C 0.72176 0.71995 0.8601 0.0
C1156 C 0.72932 0.74577 0.82886 0.0
C1157 C 0.75993 0.7342 0.7654 0.0
H1158 H 0.73773 0.77568 0.72819 0.0
C1159 C 0.79281 0.77049 0.66501 0.0
C1160 C 0.78165 0.77794 0.64275 0.0
C1161 C 0.78554 0.76347 0.69145 0.0
C1162 C 0.74399 0.76395 0.73803 0.0
H1163 H 0.73022 0.69431 0.84165 0.0
H1164 H 0.7425 0.70666 0.79567 0.0
H1165 H 0.72491 0.76325 0.77388 0.0
H1166 H 0.75393 0.78365 0.63108 0.0
H1167 H 0.74122 0.77062 0.67641 0.0
H1168 H 0.77851 0.73437 0.72886 0.0
C1169 C 0.737 0.71585 0.81211 0.0
C1170 C 0.7368 0.75699 0.76461 0.0
C1171 C 0.72964 0.7087 0.83839 0.0
C1172 C 0.76297 0.77787 0.64748 0.0
C1173 C 0.75568 0.77064 0.6738 0.0
C1174 C 0.76699 0.74102 0.73865 0.0
C1175 C 0.73694 0.73448 0.80694 0.0
C1176 C 0.74468 0.74203 0.77871 0.0
C1177 C 0.76687 0.76345 0.69625 0.0
C1178 C 0.75916 0.75603 0.72461 0.0
H1179 H 0.71566 0.74769 0.87101 0.0
H1180 H 0.72925 0.7602 0.82596 0.0
H1181 H 0.76657 0.72284 0.77574 0.0
H1182 H 0.80723 0.77 0.66205 0.0
H1183 H 0.79465 0.75829 0.7083 0.0
loop_
_geom_bond_atom_site_label_1
_geom_bond_atom_site_label_2
_geom_bond_distance
_geom_bond_site_symmetry_2
_ccdc_geom_bond_type
Li0 N17 1.990 . S
Li0 O60 1.956 . S
Li0 O61 1.981 . S
Li0 O62 1.956 1_554 S
Li1 N25 1.991 . S
Li1 O60 1.961 1_556 S
Li1 O61 1.956 1_556 S
Li1 O63 1.970 . S
Li2 N47 1.991 . S
Li2 O60 1.976 . S
Li2 O62 1.956 1_554 S
Li2 O63 1.955 1_554 S
Li3 N53 1.990 . S
Li3 O61 1.950 1_556 S
Li3 O62 1.975 . S
Li3 O63 1.956 . S
C4 C6 1.348 . S
C4 C7 1.356 . S
C4 O60 1.325 . S
N5 C8 1.314 . S
N5 C9 1.279 . S
C6 C4 1.348 . S
C6 C8 1.353 . S
C6 H64 0.929 . S
C7 C4 1.356 . S
C7 C9 1.358 . S
C7 H65 0.930 . S
C8 N5 1.314 . S
C8 C6 1.353 . S
C8 H66 0.930 . S
C9 N5 1.279 . S
C9 C7 1.358 . S
C9 H67 0.930 . S
C10 C13 1.345 . S
C10 C14 1.358 1_554 S
C10 O61 1.325 . S
C11 N12 1.279 . S
C11 C14 1.358 . S
C11 H68 0.930 . S
N12 C11 1.279 . S
N12 C15 1.314 1_556 S
C13 C10 1.345 . S
C13 C15 1.353 . S
C13 H69 0.929 . S
C14 C10 1.358 1_556 S
C14 C11 1.358 . S
C14 H70 0.930 . S
C15 N12 1.314 1_554 S
C15 C13 1.353 . S
C15 H71 0.930 . S
C16 N17 1.314 . S
C16 C21 1.353 . S
C16 H22 0.930 . S
N17 Li0 1.990 . S
N17 C16 1.314 . S
N17 C19 1.279 . S
C18 C19 1.358 . S
C18 C20 1.356 . S
C18 H72 0.930 . S
C19 N17 1.279 . S
C19 C18 1.358 . S
C19 H23 0.930 . S
C20 C18 1.356 . S
C20 C21 1.348 . S
C21 C16 1.353 . S
C21 C20 1.348 . S
C21 H73 0.929 . S
H22 C16 0.930 . S
H23 C19 0.930 . S
C24 N25 1.314 . S
C24 C26 1.353 . S
C24 H30 0.930 . S
N25 Li1 1.991 . S
N25 C24 1.314 . S
N25 C28 1.279 1_556 S
C26 C24 1.353 . S
C26 C29 1.346 1_556 S
C26 H74 0.929 . S
C27 C28 1.358 . S
C27 C29 1.357 . S
C27 H75 0.930 . S
C28 N25 1.279 1_554 S
C28 C27 1.358 . S
C28 H31 0.930 . S
C29 C26 1.346 1_554 S
C29 C27 1.357 . S
H30 C24 0.930 . S
H31 C28 0.930 . S
C32 C34 1.345 1_554 S
C32 C35 1.358 . S
C32 O62 1.325 1_554 S
N33 C36 1.314 1_554 S
N33 C37 1.279 . S
C34 C32 1.345 1_556 S
C34 C36 1.353 . S
C34 H76 0.929 . S
C35 C32 1.358 . S
C35 C37 1.358 . S
C35 H77 0.930 . S
C36 N33 1.314 1_556 S
C36 C34 1.353 . S
C36 H78 0.930 . S
C37 N33 1.279 . S
C37 C35 1.358 . S
C37 H79 0.930 . S
C38 C39 1.348 . S
C38 C40 1.356 . S
C38 O63 1.325 . S
C39 C38 1.348 . S
C39 C41 1.353 . S
C39 H80 0.929 . S
C40 C38 1.356 . S
C40 C42 1.358 . S
C40 H81 0.930 . S
C41 C39 1.353 . S
C41 N43 1.314 . S
C41 H82 0.930 . S
C42 C40 1.358 . S
C42 N43 1.279 . S
C42 H83 0.930 . S
N43 C41 1.314 . S
N43 C42 1.279 . S
C44 C46 1.353 . S
C44 N47 1.314 . S
C44 H50 0.930 . S
C45 N47 1.279 1_556 S
C45 C48 1.358 . S
C45 H51 0.930 . S
C46 C44 1.353 . S
C46 C49 1.349 1_554 S
C46 H84 0.929 . S
N47 Li2 1.991 . S
N47 C44 1.314 . S
N47 C45 1.279 1_554 S
C48 C45 1.358 . S
C48 C49 1.355 . S
C48 H85 0.930 . S
C49 C46 1.349 1_556 S
C49 C48 1.355 . S
H50 C44 0.930 . S
H51 C45 0.930 . S
C52 N53 1.314 . S
C52 C54 1.353 . S
C52 H58 0.930 . S
N53 Li3 1.990 . S
N53 C52 1.314 . S
N53 C56 1.279 . S
C54 C52 1.353 . S
C54 C57 1.348 . S
C54 H86 0.929 . S
C55 C56 1.358 . S
C55 C57 1.356 . S
C55 H87 0.930 . S
C56 N53 1.279 . S
C56 C55 1.358 . S
C56 H59 0.930 . S
C57 C54 1.348 . S
C57 C55 1.356 . S
H58 C52 0.930 . S
H59 C56 0.930 . S
O60 Li0 1.956 . S
O60 Li1 1.961 1_554 S
O60 Li2 1.976 . S
O60 C4 1.325 . S
O61 Li0 1.981 . S
O61 Li1 1.956 1_554 S
O61 Li3 1.950 1_554 S
O61 C10 1.325 . S
O62 Li0 1.956 1_556 S
O62 Li2 1.956 1_556 S
O62 Li3 1.975 . S
O62 C32 1.325 1_556 S
O63 Li1 1.970 . S
O63 Li2 1.955 1_556 S
O63 Li3 1.956 . S
O63 C38 1.325 . S
H64 C6 0.929 . S
H65 C7 0.930 . S
H66 C8 0.930 . S
H67 C9 0.930 . S
H68 C11 0.930 . S
H69 C13 0.929 . S
H70 C14 0.930 . S
H71 C15 0.930 . S
H72 C18 0.930 . S
H73 C21 0.929 . S
H74 C26 0.929 . S
H75 C27 0.930 . S
H76 C34 0.929 . S
H77 C35 0.930 . S
H78 C36 0.930 . S
H79 C37 0.930 . S
H80 C39 0.929 . S
H81 C40 0.930 . S
H82 C41 0.930 . S
H83 C42 0.930 . S
H84 C46 0.929 . S
H85 C48 0.930 . S
H86 C54 0.929 . S
H87 C55 0.930 . S
Li88 N105 1.991 . S
Li88 O148 1.956 1_556 S
Li88 O149 1.961 1_556 S
Li88 O150 1.970 . S
Li89 N113 1.990 . S
Li89 O148 1.981 . S
Li89 O149 1.956 . S
Li89 O151 1.956 1_554 S
Li90 N135 1.990 . S
Li90 O148 1.950 1_556 S
Li90 O150 1.956 . S
Li90 O151 1.975 . S
Li91 N141 1.991 . S
Li91 O149 1.976 . S
Li91 O150 1.955 1_554 S
Li91 O151 1.956 1_554 S
C92 C94 1.345 . S
C92 C95 1.358 1_554 S
C92 O148 1.325 . S
N93 C96 1.314 1_556 S
N93 C97 1.279 . S
C94 C92 1.345 . S
C94 C96 1.353 . S
C94 H152 0.929 . S
C95 C92 1.358 1_556 S
C95 C97 1.358 . S
C95 H153 0.930 . S
C96 N93 1.314 1_554 S
C96 C94 1.353 . S
C96 H154 0.930 . S
C97 N93 1.279 . S
C97 C95 1.358 . S
C97 H155 0.930 . S
C98 C101 1.348 . S
C98 C102 1.356 . S
C98 O149 1.325 . S
C99 N100 1.279 . S
C99 C102 1.358 . S
C99 H156 0.930 . S
N100 C99 1.279 . S
N100 C103 1.314 . S
C101 C98 1.348 . S
C101 C103 1.353 . S
C101 H157 0.929 . S
C102 C98 1.356 . S
C102 C99 1.358 . S
C102 H158 0.930 . S
C103 N100 1.314 . S
C103 C101 1.353 . S
C103 H159 0.930 . S
C104 N105 1.314 . S
C104 C109 1.353 . S
C104 H110 0.930 . S
N105 Li88 1.991 . S
N105 C104 1.314 . S
N105 C107 1.279 1_556 S
C106 C107 1.358 . S
C106 C108 1.357 . S
C106 H160 0.930 . S
C107 N105 1.279 1_554 S
C107 C106 1.358 . S
C107 H111 0.930 . S
C108 C106 1.357 . S
C108 C109 1.346 1_554 S
C109 C104 1.353 . S
C109 C108 1.346 1_556 S
C109 H161 0.929 . S
H110 C104 0.930 . S
H111 C107 0.930 . S
C112 N113 1.314 . S
C112 C114 1.353 . S
C112 H118 0.930 . S
N113 Li89 1.990 . S
N113 C112 1.314 . S
N113 C116 1.279 . S
C114 C112 1.353 . S
C114 C117 1.348 . S
C114 H162 0.929 . S
C115 C116 1.358 . S
C115 C117 1.356 . S
C115 H163 0.930 . S
C116 N113 1.279 . S
C116 C115 1.358 . S
C116 H119 0.930 . S
C117 C114 1.348 . S
C117 C115 1.356 . S
H118 C112 0.930 . S
H119 C116 0.930 . S
C120 C122 1.348 . S
C120 C123 1.356 . S
C120 O150 1.325 . S
N121 C124 1.314 . S
N121 C125 1.279 . S
C122 C120 1.348 . S
C122 C124 1.353 . S
C122 H164 0.929 . S
C123 C120 1.356 . S
C123 C125 1.358 . S
C123 H165 0.930 . S
C124 N121 1.314 . S
C124 C122 1.353 . S
C124 H166 0.930 . S
C125 N121 1.279 . S
C125 C123 1.358 . S
C125 H167 0.930 . S
C126 C127 1.345 1_554 S
C126 C128 1.358 . S
C126 O151 1.325 1_554 S
C127 C126 1.345 1_556 S
C127 C129 1.353 . S
C127 H168 0.929 . S
C128 C126 1.358 . S
C128 C130 1.358 . S
C128 H169 0.930 . S
C129 C127 1.353 . S
C129 N131 1.314 1_556 S
C129 H170 0.930 . S
C130 C128 1.358 . S
C130 N131 1.279 . S
C130 H171 0.930 . S
N131 C129 1.314 1_554 S
N131 C130 1.279 . S
C132 C134 1.353 . S
C132 N135 1.314 . S
C132 H138 0.930 . S
C133 N135 1.279 . S
C133 C136 1.358 . S
C133 H139 0.930 . S
C134 C132 1.353 . S
C134 C137 1.348 . S
C134 H172 0.929 . S
N135 Li90 1.990 . S
N135 C132 1.314 . S
N135 C133 1.279 . S
C136 C133 1.358 . S
C136 C137 1.356 . S
C136 H173 0.930 . S
C137 C134 1.348 . S
C137 C136 1.356 . S
H138 C132 0.930 . S
H139 C133 0.930 . S
C140 N141 1.314 . S
C140 C142 1.353 . S
C140 H146 0.930 . S
N141 Li91 1.991 . S
N141 C140 1.314 . S
N141 C144 1.279 1_554 S
C142 C140 1.353 . S
C142 C145 1.349 1_554 S
C142 H174 0.929 . S
C143 C144 1.358 . S
C143 C145 1.355 . S
C143 H175 0.930 . S
C144 N141 1.279 1_556 S
C144 C143 1.358 . S
C144 H147 0.930 . S
C145 C142 1.349 1_556 S
C145 C143 1.355 . S
H146 C140 0.930 . S
H147 C144 0.930 . S
O148 Li88 1.956 1_554 S
O148 Li89 1.981 . S
O148 Li90 1.950 1_554 S
O148 C92 1.325 . S
O149 Li88 1.961 1_554 S
O149 Li89 1.956 . S
O149 Li91 1.976 . S
O149 C98 1.325 . S
O150 Li88 1.970 . S
O150 Li90 1.956 . S
O150 Li91 1.955 1_556 S
O150 C120 1.325 . S
O151 Li89 1.956 1_556 S
O151 Li90 1.975 . S
O151 Li91 1.956 1_556 S
O151 C126 1.325 1_556 S
H152 C94 0.929 . S
H153 C95 0.930 . S
H154 C96 0.930 . S
H155 C97 0.930 . S
H156 C99 0.930 . S
H157 C101 0.929 . S
H158 C102 0.930 . S
H159 C103 0.930 . S
H160 C106 0.930 . S
H161 C109 0.929 . S
H162 C114 0.929 . S
H163 C115 0.930 . S
H164 C122 0.929 . S
H165 C123 0.930 . S
H166 C124 0.930 . S
H167 C125 0.930 . S
H168 C127 0.929 . S
H169 C128 0.930 . S
H170 C129 0.930 . S
H171 C130 0.930 . S
H172 C134 0.929 . S
H173 C136 0.930 . S
H174 C142 0.929 . S
H175 C143 0.930 . S
Li176 N193 1.991 . S
Li176 O236 1.956 1_556 S
Li176 O237 1.961 1_556 S
Li176 O238 1.970 . S
Li177 N201 1.990 . S
Li177 O236 1.981 . S
Li177 O237 1.956 . S
Li177 O239 1.956 1_554 S
Li178 N223 1.990 . S
Li178 O236 1.950 1_556 S
Li178 O238 1.956 . S
Li178 O239 1.975 . S
Li179 N229 1.991 . S
Li179 O237 1.976 . S
Li179 O238 1.955 1_554 S
Li179 O239 1.956 1_554 S
C180 C182 1.345 . S
C180 C183 1.358 1_554 S
C180 O236 1.325 . S
N181 C184 1.314 1_556 S
N181 C185 1.279 . S
C182 C180 1.345 . S
C182 C184 1.353 . S
C182 H240 0.929 . S
C183 C180 1.358 1_556 S
C183 C185 1.358 . S
C183 H241 0.930 . S
C184 N181 1.314 1_554 S
C184 C182 1.353 . S
C184 H242 0.930 . S
C185 N181 1.279 . S
C185 C183 1.358 . S
C185 H243 0.930 . S
C186 C189 1.348 . S
C186 C190 1.356 . S
C186 O237 1.325 . S
C187 N188 1.279 . S
C187 C190 1.358 . S
C187 H244 0.930 . S
N188 C187 1.279 . S
N188 C191 1.314 . S
C189 C186 1.348 . S
C189 C191 1.353 . S
C189 H245 0.929 . S
C190 C186 1.356 . S
C190 C187 1.358 . S
C190 H246 0.930 . S
C191 N188 1.314 . S
C191 C189 1.353 . S
C191 H247 0.930 . S
C192 N193 1.314 . S
C192 C197 1.353 . S
C192 H198 0.930 . S
N193 Li176 1.991 . S
N193 C192 1.314 . S
N193 C195 1.279 1_556 S
C194 C195 1.358 . S
C194 C196 1.357 . S
C194 H248 0.930 . S
C195 N193 1.279 1_554 S
C195 C194 1.358 . S
C195 H199 0.930 . S
C196 C194 1.357 . S
C196 C197 1.346 1_554 S
C197 C192 1.353 . S
C197 C196 1.346 1_556 S
C197 H249 0.929 . S
H198 C192 0.930 . S
H199 C195 0.930 . S
C200 N201 1.314 . S
C200 C202 1.353 . S
C200 H206 0.930 . S
N201 Li177 1.990 . S
N201 C200 1.314 . S
N201 C204 1.279 . S
C202 C200 1.353 . S
C202 C205 1.348 . S
C202 H250 0.929 . S
C203 C204 1.358 . S
C203 C205 1.356 . S
C203 H251 0.930 . S
C204 N201 1.279 . S
C204 C203 1.358 . S
C204 H207 0.930 . S
C205 C202 1.348 . S
C205 C203 1.356 . S
H206 C200 0.930 . S
H207 C204 0.930 . S
C208 C210 1.348 . S
C208 C211 1.356 . S
C208 O238 1.325 . S
N209 C212 1.314 . S
N209 C213 1.279 . S
C210 C208 1.348 . S
C210 C212 1.353 . S
C210 H252 0.929 . S
C211 C208 1.356 . S
C211 C213 1.358 . S
C211 H253 0.930 . S
C212 N209 1.314 . S
C212 C210 1.353 . S
C212 H254 0.930 . S
C213 N209 1.279 . S
C213 C211 1.358 . S
C213 H255 0.930 . S
C214 C215 1.345 1_554 S
C214 C216 1.358 . S
C214 O239 1.325 1_554 S
C215 C214 1.345 1_556 S
C215 C217 1.353 . S
C215 H256 0.929 . S
C216 C214 1.358 . S
C216 C218 1.358 . S
C216 H257 0.930 . S
C217 C215 1.353 . S
C217 N219 1.314 1_556 S
C217 H258 0.930 . S
C218 C216 1.358 . S
C218 N219 1.279 . S
C218 H259 0.930 . S
N219 C217 1.314 1_554 S
N219 C218 1.279 . S
C220 C222 1.353 . S
C220 N223 1.314 . S
C220 H226 0.930 . S
C221 N223 1.279 . S
C221 C224 1.358 . S
C221 H227 0.930 . S
C222 C220 1.353 . S
C222 C225 1.348 . S
C222 H260 0.929 . S
N223 Li178 1.990 . S
N223 C220 1.314 . S
N223 C221 1.279 . S
C224 C221 1.358 . S
C224 C225 1.356 . S
C224 H261 0.930 . S
C225 C222 1.348 . S
C225 C224 1.356 . S
H226 C220 0.930 . S
H227 C221 0.930 . S
C228 N229 1.314 . S
C228 C230 1.353 . S
C228 H234 0.930 . S
N229 Li179 1.991 . S
N229 C228 1.314 . S
N229 C232 1.279 1_554 S
C230 C228 1.353 . S
C230 C233 1.349 1_554 S
C230 H262 0.929 . S
C231 C232 1.358 . S
C231 C233 1.355 . S
C231 H263 0.930 . S
C232 N229 1.279 1_556 S
C232 C231 1.358 . S
C232 H235 0.930 . S
C233 C230 1.349 1_556 S
C233 C231 1.355 . S
H234 C228 0.930 . S
H235 C232 0.930 . S
O236 Li176 1.956 1_554 S
O236 Li177 1.981 . S
O236 Li178 1.950 1_554 S
O236 C180 1.325 . S
O237 Li176 1.961 1_554 S
O237 Li177 1.956 . S
O237 Li179 1.976 . S
O237 C186 1.325 . S
O238 Li176 1.970 . S
O238 Li178 1.956 . S
O238 Li179 1.955 1_556 S
O238 C208 1.325 . S
O239 Li177 1.956 1_556 S
O239 Li178 1.975 . S
O239 Li179 1.956 1_556 S
O239 C214 1.325 1_556 S
H240 C182 0.929 . S
H241 C183 0.930 . S
H242 C184 0.930 . S
H243 C185 0.930 . S
H244 C187 0.930 . S
H245 C189 0.929 . S
H246 C190 0.930 . S
H247 C191 0.930 . S
H248 C194 0.930 . S
H249 C197 0.929 . S
H250 C202 0.929 . S
H251 C203 0.930 . S
H252 C210 0.929 . S
H253 C211 0.930 . S
H254 C212 0.930 . S
H255 C213 0.930 . S
H256 C215 0.929 . S
H257 C216 0.930 . S
H258 C217 0.930 . S
H259 C218 0.930 . S
H260 C222 0.929 . S
H261 C224 0.930 . S
H262 C230 0.929 . S
H263 C231 0.930 . S
Li264 N281 1.991 . S
Li264 O324 1.956 1_556 S
Li264 O325 1.961 1_556 S
Li264 O326 1.970 . S
Li265 N289 1.990 . S
Li265 O324 1.981 . S
Li265 O325 1.956 . S
Li265 O327 1.956 1_554 S
Li266 N311 1.990 . S
Li266 O324 1.950 1_556 S
Li266 O326 1.956 . S
Li266 O327 1.975 . S
Li267 N317 1.991 . S
Li267 O325 1.976 . S
Li267 O326 1.955 1_554 S
Li267 O327 1.956 1_554 S
C268 C270 1.345 . S
C268 C271 1.358 1_554 S
C268 O324 1.325 . S
N269 C272 1.314 1_556 S
N269 C273 1.279 . S
C270 C268 1.345 . S
C270 C272 1.353 . S
C270 H328 0.929 . S
C271 C268 1.358 1_556 S
C271 C273 1.358 . S
C271 H329 0.930 . S
C272 N269 1.314 1_554 S
C272 C270 1.353 . S
C272 H330 0.930 . S
C273 N269 1.279 . S
C273 C271 1.358 . S
C273 H331 0.930 . S
C274 C277 1.348 . S
C274 C278 1.356 . S
C274 O325 1.325 . S
C275 N276 1.279 . S
C275 C278 1.358 . S
C275 H332 0.930 . S
N276 C275 1.279 . S
N276 C279 1.314 . S
C277 C274 1.348 . S
C277 C279 1.353 . S
C277 H333 0.929 . S
C278 C274 1.356 . S
C278 C275 1.358 . S
C278 H334 0.930 . S
C279 N276 1.314 . S
C279 C277 1.353 . S
C279 H335 0.930 . S
C280 N281 1.314 . S
C280 C285 1.353 . S
C280 H286 0.930 . S
N281 Li264 1.991 . S
N281 C280 1.314 . S
N281 C283 1.279 1_556 S
C282 C283 1.358 . S
C282 C284 1.357 . S
C282 H336 0.930 . S
C283 N281 1.279 1_554 S
C283 C282 1.358 . S
C283 H287 0.930 . S
C284 C282 1.357 . S
C284 C285 1.346 1_554 S
C285 C280 1.353 . S
C285 C284 1.346 1_556 S
C285 H337 0.929 . S
H286 C280 0.930 . S
H287 C283 0.930 . S
C288 N289 1.314 . S
C288 C290 1.353 . S
C288 H294 0.930 . S
N289 Li265 1.990 . S
N289 C288 1.314 . S
N289 C292 1.279 . S
C290 C288 1.353 . S
C290 C293 1.348 . S
C290 H338 0.929 . S
C291 C292 1.358 . S
C291 C293 1.356 . S
C291 H339 0.930 . S
C292 N289 1.279 . S
C292 C291 1.358 . S
C292 H295 0.930 . S
C293 C290 1.348 . S
C293 C291 1.356 . S
H294 C288 0.930 . S
H295 C292 0.930 . S
C296 C298 1.348 . S
C296 C299 1.356 . S
C296 O326 1.325 . S
N297 C300 1.314 . S
N297 C301 1.279 . S
C298 C296 1.348 . S
C298 C300 1.353 . S
C298 H340 0.929 . S
C299 C296 1.356 . S
C299 C301 1.358 . S
C299 H341 0.930 . S
C300 N297 1.314 . S
C300 C298 1.353 . S
C300 H342 0.930 . S
C301 N297 1.279 . S
C301 C299 1.358 . S
C301 H343 0.930 . S
C302 C303 1.345 1_554 S
C302 C304 1.358 . S
C302 O327 1.325 1_554 S
C303 C302 1.345 1_556 S
C303 C305 1.353 . S
C303 H344 0.929 . S
C304 C302 1.358 . S
C304 C306 1.358 . S
C304 H345 0.930 . S
C305 C303 1.353 . S
C305 N307 1.314 1_556 S
C305 H346 0.930 . S
C306 C304 1.358 . S
C306 N307 1.279 . S
C306 H347 0.930 . S
N307 C305 1.314 1_554 S
N307 C306 1.279 . S
C308 C310 1.353 . S
C308 N311 1.314 . S
C308 H314 0.930 . S
C309 N311 1.279 . S
C309 C312 1.358 . S
C309 H315 0.930 . S
C310 C308 1.353 . S
C310 C313 1.348 . S
C310 H348 0.929 . S
N311 Li266 1.990 . S
N311 C308 1.314 . S
N311 C309 1.279 . S
C312 C309 1.358 . S
C312 C313 1.356 . S
C312 H349 0.930 . S
C313 C310 1.348 . S
C313 C312 1.356 . S
H314 C308 0.930 . S
H315 C309 0.930 . S
C316 N317 1.314 . S
C316 C318 1.353 . S
C316 H322 0.930 . S
N317 Li267 1.991 . S
N317 C316 1.314 . S
N317 C320 1.279 1_554 S
C318 C316 1.353 . S
C318 C321 1.349 1_554 S
C318 H350 0.929 . S
C319 C320 1.358 . S
C319 C321 1.355 . S
C319 H351 0.930 . S
C320 N317 1.279 1_556 S
C320 C319 1.358 . S
C320 H323 0.930 . S
C321 C318 1.349 1_556 S
C321 C319 1.355 . S
H322 C316 0.930 . S
H323 C320 0.930 . S
O324 Li264 1.956 1_554 S
O324 Li265 1.981 . S
O324 Li266 1.950 1_554 S
O324 C268 1.325 . S
O325 Li264 1.961 1_554 S
O325 Li265 1.956 . S
O325 Li267 1.976 . S
O325 C274 1.325 . S
O326 Li264 1.970 . S
O326 Li266 1.956 . S
O326 Li267 1.955 1_556 S
O326 C296 1.325 . S
O327 Li265 1.956 1_556 S
O327 Li266 1.975 . S
O327 Li267 1.956 1_556 S
O327 C302 1.325 1_556 S
H328 C270 0.929 . S
H329 C271 0.930 . S
H330 C272 0.930 . S
H331 C273 0.930 . S
H332 C275 0.930 . S
H333 C277 0.929 . S
H334 C278 0.930 . S
H335 C279 0.930 . S
H336 C282 0.930 . S
H337 C285 0.929 . S
H338 C290 0.929 . S
H339 C291 0.930 . S
H340 C298 0.929 . S
H341 C299 0.930 . S
H342 C300 0.930 . S
H343 C301 0.930 . S
H344 C303 0.929 . S
H345 C304 0.930 . S
H346 C305 0.930 . S
H347 C306 0.930 . S
H348 C310 0.929 . S
H349 C312 0.930 . S
H350 C318 0.929 . S
H351 C319 0.930 . S
Li352 N369 1.990 . S
Li352 O412 1.956 . S
Li352 O413 1.970 . S
Li352 O414 1.961 . S
Li353 N377 1.990 . S
Li353 O412 1.970 . S
Li353 O413 1.956 . S
Li353 O415 1.961 . S
Li354 N399 1.990 . S
Li354 O412 1.961 . S
Li354 O414 1.956 . S
Li354 O415 1.970 . S
Li355 N405 1.990 . S
Li355 O413 1.961 . S
Li355 O414 1.970 . S
Li355 O415 1.956 . S
C356 C358 1.348 . S
C356 C359 1.356 . S
C356 O412 1.325 . S
N357 C360 1.314 . S
N357 C361 1.279 . S
C358 C356 1.348 . S
C358 C360 1.353 . S
C358 H416 0.929 . S
C359 C356 1.356 . S
C359 C361 1.358 . S
C359 H417 0.930 . S
C360 N357 1.314 . S
C360 C358 1.353 . S
C360 H418 0.930 . S
C361 N357 1.279 . S
C361 C359 1.358 . S
C361 H419 0.930 . S
C362 C365 1.348 . S
C362 C366 1.356 . S
C362 O413 1.325 . S
C363 N364 1.279 . S
C363 C366 1.358 . S
C363 H420 0.930 . S
N364 C363 1.279 . S
N364 C367 1.314 . S
C365 C362 1.348 . S
C365 C367 1.353 . S
C365 H421 0.929 . S
C366 C362 1.356 . S
C366 C363 1.358 . S
C366 H422 0.930 . S
C367 N364 1.314 . S
C367 C365 1.353 . S
C367 H423 0.930 . S
C368 N369 1.314 . S
C368 C373 1.353 . S
C368 H374 0.930 . S
N369 Li352 1.990 . S
N369 C368 1.314 . S
N369 C371 1.279 . S
C370 C371 1.358 . S
C370 C372 1.356 . S
C370 H424 0.930 . S
C371 N369 1.279 . S
C371 C370 1.358 . S
C371 H375 0.930 . S
C372 C370 1.356 . S
C372 C373 1.348 . S
C373 C368 1.353 . S
C373 C372 1.348 . S
C373 H425 0.929 . S
H374 C368 0.930 . S
H375 C371 0.930 . S
C376 N377 1.314 . S
C376 C378 1.353 . S
C376 H382 0.930 . S
N377 Li353 1.990 . S
N377 C376 1.314 . S
N377 C380 1.279 . S
C378 C376 1.353 . S
C378 C381 1.348 . S
C378 H426 0.929 . S
C379 C380 1.358 . S
C379 C381 1.356 . S
C379 H427 0.930 . S
C380 N377 1.279 . S
C380 C379 1.358 . S
C380 H383 0.930 . S
C381 C378 1.348 . S
C381 C379 1.356 . S
H382 C376 0.930 . S
H383 C380 0.930 . S
C384 C386 1.348 . S
C384 C387 1.356 . S
C384 O414 1.325 . S
N385 C388 1.314 . S
N385 C389 1.279 . S
C386 C384 1.348 . S
C386 C388 1.353 . S
C386 H428 0.929 . S
C387 C384 1.356 . S
C387 C389 1.358 . S
C387 H429 0.930 . S
C388 N385 1.314 . S
C388 C386 1.353 . S
C388 H430 0.930 . S
C389 N385 1.279 . S
C389 C387 1.358 . S
C389 H431 0.930 . S
C390 C391 1.348 . S
C390 C392 1.356 . S
C390 O415 1.325 . S
C391 C390 1.348 . S
C391 C393 1.353 . S
C391 H432 0.929 . S
C392 C390 1.356 . S
C392 C394 1.358 . S
C392 H433 0.930 . S
C393 C391 1.353 . S
C393 N395 1.314 . S
C393 H434 0.930 . S
C394 C392 1.358 . S
C394 N395 1.279 . S
C394 H435 0.930 . S
N395 C393 1.314 . S
N395 C394 1.279 . S
C396 C398 1.353 . S
C396 N399 1.314 . S
C396 H402 0.930 . S
C397 N399 1.279 . S
C397 C400 1.358 . S
C397 H403 0.930 . S
C398 C396 1.353 . S
C398 C401 1.348 . S
C398 H436 0.929 . S
N399 Li354 1.990 . S
N399 C396 1.314 . S
N399 C397 1.279 . S
C400 C397 1.358 . S
C400 C401 1.356 . S
C400 H437 0.930 . S
C401 C398 1.348 . S
C401 C400 1.356 . S
H402 C396 0.930 . S
H403 C397 0.930 . S
C404 N405 1.314 . S
C404 C406 1.353 . S
C404 H410 0.930 . S
N405 Li355 1.990 . S
N405 C404 1.314 . S
N405 C408 1.279 . S
C406 C404 1.353 . S
C406 C409 1.348 . S
C406 H438 0.929 . S
C407 C408 1.358 . S
C407 C409 1.356 . S
C407 H439 0.930 . S
C408 N405 1.279 . S
C408 C407 1.358 . S
C408 H411 0.930 . S
C409 C406 1.348 . S
C409 C407 1.356 . S
H410 C404 0.930 . S
H411 C408 0.930 . S
O412 Li352 1.956 . S
O412 Li353 1.970 . S
O412 Li354 1.961 . S
O412 C356 1.325 . S
O413 Li352 1.970 . S
O413 Li353 1.956 . S
O413 Li355 1.961 . S
O413 C362 1.325 . S
O414 Li352 1.961 . S
O414 Li354 1.956 . S
O414 Li355 1.970 . S
O414 C384 1.325 . S
O415 Li353 1.961 . S
O415 Li354 1.970 . S
O415 Li355 1.956 . S
O415 C390 1.325 . S
H416 C358 0.929 . S
H417 C359 0.930 . S
H418 C360 0.930 . S
H419 C361 0.930 . S
H420 C363 0.930 . S
H421 C365 0.929 . S
H422 C366 0.930 . S
H423 C367 0.930 . S
H424 C370 0.930 . S
H425 C373 0.929 . S
H426 C378 0.929 . S
H427 C379 0.930 . S
H428 C386 0.929 . S
H429 C387 0.930 . S
H430 C388 0.930 . S
H431 C389 0.930 . S
H432 C391 0.929 . S
H433 C392 0.930 . S
H434 C393 0.930 . S
H435 C394 0.930 . S
H436 C398 0.929 . S
H437 C400 0.930 . S
H438 C406 0.929 . S
H439 C407 0.930 . S
Li440 N457 1.990 . S
Li440 O500 1.956 . S
Li440 O501 1.970 . S
Li440 O502 1.961 . S
Li441 N465 1.990 . S
Li441 O500 1.970 . S
Li441 O501 1.956 . S
Li441 O503 1.961 . S
Li442 N487 1.990 . S
Li442 O500 1.961 . S
Li442 O502 1.956 . S
Li442 O503 1.970 . S
Li443 N493 1.990 . S
Li443 O501 1.961 . S
Li443 O502 1.970 . S
Li443 O503 1.956 . S
C444 C446 1.348 . S
C444 C447 1.356 . S
C444 O500 1.325 . S
N445 C448 1.314 . S
N445 C449 1.279 . S
C446 C444 1.348 . S
C446 C448 1.353 . S
C446 H504 0.929 . S
C447 C444 1.356 . S
C447 C449 1.358 . S
C447 H505 0.930 . S
C448 N445 1.314 . S
C448 C446 1.353 . S
C448 H506 0.930 . S
C449 N445 1.279 . S
C449 C447 1.358 . S
C449 H507 0.930 . S
C450 C453 1.348 . S
C450 C454 1.356 . S
C450 O501 1.325 . S
C451 N452 1.279 . S
C451 C454 1.358 . S
C451 H508 0.930 . S
N452 C451 1.279 . S
N452 C455 1.314 . S
C453 C450 1.348 . S
C453 C455 1.353 . S
C453 H509 0.929 . S
C454 C450 1.356 . S
C454 C451 1.358 . S
C454 H510 0.930 . S
C455 N452 1.314 . S
C455 C453 1.353 . S
C455 H511 0.930 . S
C456 N457 1.314 . S
C456 C461 1.353 . S
C456 H462 0.930 . S
N457 Li440 1.990 . S
N457 C456 1.314 . S
N457 C459 1.279 . S
C458 C459 1.358 . S
C458 C460 1.356 . S
C458 H512 0.930 . S
C459 N457 1.279 . S
C459 C458 1.358 . S
C459 H463 0.930 . S
C460 C458 1.356 . S
C460 C461 1.348 . S
C461 C456 1.353 . S
C461 C460 1.348 . S
C461 H513 0.929 . S
H462 C456 0.930 . S
H463 C459 0.930 . S
C464 N465 1.314 . S
C464 C466 1.353 . S
C464 H470 0.930 . S
N465 Li441 1.990 . S
N465 C464 1.314 . S
N465 C468 1.279 . S
C466 C464 1.353 . S
C466 C469 1.348 . S
C466 H514 0.929 . S
C467 C468 1.358 . S
C467 C469 1.356 . S
C467 H515 0.930 . S
C468 N465 1.279 . S
C468 C467 1.358 . S
C468 H471 0.930 . S
C469 C466 1.348 . S
C469 C467 1.356 . S
H470 C464 0.930 . S
H471 C468 0.930 . S
C472 C474 1.348 . S
C472 C475 1.356 . S
C472 O502 1.325 . S
N473 C476 1.314 . S
N473 C477 1.279 . S
C474 C472 1.348 . S
C474 C476 1.353 . S
C474 H516 0.929 . S
C475 C472 1.356 . S
C475 C477 1.358 . S
C475 H517 0.930 . S
C476 N473 1.314 . S
C476 C474 1.353 . S
C476 H518 0.930 . S
C477 N473 1.279 . S
C477 C475 1.358 . S
C477 H519 0.930 . S
C478 C479 1.348 . S
C478 C480 1.356 . S
C478 O503 1.325 . S
C479 C478 1.348 . S
C479 C481 1.353 . S
C479 H520 0.929 . S
C480 C478 1.356 . S
C480 C482 1.358 . S
C480 H521 0.930 . S
C481 C479 1.353 . S
C481 N483 1.314 . S
C481 H522 0.930 . S
C482 C480 1.358 . S
C482 N483 1.279 . S
C482 H523 0.930 . S
N483 C481 1.314 . S
N483 C482 1.279 . S
C484 C486 1.353 . S
C484 N487 1.314 . S
C484 H490 0.930 . S
C485 N487 1.279 . S
C485 C488 1.358 . S
C485 H491 0.930 . S
C486 C484 1.353 . S
C486 C489 1.348 . S
C486 H524 0.929 . S
N487 Li442 1.990 . S
N487 C484 1.314 . S
N487 C485 1.279 . S
C488 C485 1.358 . S
C488 C489 1.356 . S
C488 H525 0.930 . S
C489 C486 1.348 . S
C489 C488 1.356 . S
H490 C484 0.930 . S
H491 C485 0.930 . S
C492 N493 1.314 . S
C492 C494 1.353 . S
C492 H498 0.930 . S
N493 Li443 1.990 . S
N493 C492 1.314 . S
N493 C496 1.279 . S
C494 C492 1.353 . S
C494 C497 1.348 . S
C494 H526 0.929 . S
C495 C496 1.358 . S
C495 C497 1.356 . S
C495 H527 0.930 . S
C496 N493 1.279 . S
C496 C495 1.358 . S
C496 H499 0.930 . S
C497 C494 1.348 . S
C497 C495 1.356 . S
H498 C492 0.930 . S
H499 C496 0.930 . S
O500 Li440 1.956 . S
O500 Li441 1.970 . S
O500 Li442 1.961 . S
O500 C444 1.325 . S
O501 Li440 1.970 . S
O501 Li441 1.956 . S
O501 Li443 1.961 . S
O501 C450 1.325 . S
O502 Li440 1.961 . S
O502 Li442 1.956 . S
O502 Li443 1.970 . S
O502 C472 1.325 . S
O503 Li441 1.961 . S
O503 Li442 1.970 . S
O503 Li443 1.956 . S
O503 C478 1.325 . S
H504 C446 0.929 . S
H505 C447 0.930 . S
H506 C448 0.930 . S
H507 C449 0.930 . S
H508 C451 0.930 . S
H509 C453 0.929 . S
H510 C454 0.930 . S
H511 C455 0.930 . S
H512 C458 0.930 . S
H513 C461 0.929 . S
H514 C466 0.929 . S
H515 C467 0.930 . S
H516 C474 0.929 . S
H517 C475 0.930 . S
H518 C476 0.930 . S
H519 C477 0.930 . S
H520 C479 0.929 . S
H521 C480 0.930 . S
H522 C481 0.930 . S
H523 C482 0.930 . S
H524 C486 0.929 . S
H525 C488 0.930 . S
H526 C494 0.929 . S
H527 C495 0.930 . S
Li528 N545 1.990 . S
Li528 O588 1.956 . S
Li528 O589 1.970 . S
Li528 O590 1.961 . S
Li529 N553 1.990 . S
Li529 O588 1.970 . S
Li529 O589 1.956 . S
Li529 O591 1.961 . S
Li530 N575 1.990 . S
Li530 O588 1.961 . S
Li530 O590 1.956 . S
Li530 O591 1.970 . S
Li531 N581 1.990 . S
Li531 O589 1.961 . S
Li531 O590 1.970 . S
Li531 O591 1.956 . S
C532 C534 1.348 . S
C532 C535 1.356 . S
C532 O588 1.325 . S
N533 C536 1.314 . S
N533 C537 1.279 . S
C534 C532 1.348 . S
C534 C536 1.353 . S
C534 H592 0.929 . S
C535 C532 1.356 . S
C535 C537 1.358 . S
C535 H593 0.930 . S
C536 N533 1.314 . S
C536 C534 1.353 . S
C536 H594 0.930 . S
C537 N533 1.279 . S
C537 C535 1.358 . S
C537 H595 0.930 . S
C538 C541 1.348 . S
C538 C542 1.356 . S
C538 O589 1.325 . S
C539 N540 1.279 . S
C539 C542 1.358 . S
C539 H596 0.930 . S
N540 C539 1.279 . S
N540 C543 1.314 . S
C541 C538 1.348 . S
C541 C543 1.353 . S
C541 H597 0.929 . S
C542 C538 1.356 . S
C542 C539 1.358 . S
C542 H598 0.930 . S
C543 N540 1.314 . S
C543 C541 1.353 . S
C543 H599 0.930 . S
C544 N545 1.314 . S
C544 C549 1.353 . S
C544 H550 0.930 . S
N545 Li528 1.990 . S
N545 C544 1.314 . S
N545 C547 1.279 . S
C546 C547 1.358 . S
C546 C548 1.356 . S
C546 H600 0.930 . S
C547 N545 1.279 . S
C547 C546 1.358 . S
C547 H551 0.930 . S
C548 C546 1.356 . S
C548 C549 1.348 . S
C549 C544 1.353 . S
C549 C548 1.348 . S
C549 H601 0.929 . S
H550 C544 0.930 . S
H551 C547 0.930 . S
C552 N553 1.314 . S
C552 C554 1.353 . S
C552 H558 0.930 . S
N553 Li529 1.990 . S
N553 C552 1.314 . S
N553 C556 1.279 . S
C554 C552 1.353 . S
C554 C557 1.348 . S
C554 H602 0.929 . S
C555 C556 1.358 . S
C555 C557 1.356 . S
C555 H603 0.930 . S
C556 N553 1.279 . S
C556 C555 1.358 . S
C556 H559 0.930 . S
C557 C554 1.348 . S
C557 C555 1.356 . S
H558 C552 0.930 . S
H559 C556 0.930 . S
C560 C562 1.348 . S
C560 C563 1.356 . S
C560 O590 1.325 . S
N561 C564 1.314 . S
N561 C565 1.279 . S
C562 C560 1.348 . S
C562 C564 1.353 . S
C562 H604 0.929 . S
C563 C560 1.356 . S
C563 C565 1.358 . S
C563 H605 0.930 . S
C564 N561 1.314 . S
C564 C562 1.353 . S
C564 H606 0.930 . S
C565 N561 1.279 . S
C565 C563 1.358 . S
C565 H607 0.930 . S
C566 C567 1.348 . S
C566 C568 1.356 . S
C566 O591 1.325 . S
C567 C566 1.348 . S
C567 C569 1.353 . S
C567 H608 0.929 . S
C568 C566 1.356 . S
C568 C570 1.358 . S
C568 H609 0.930 . S
C569 C567 1.353 . S
C569 N571 1.314 . S
C569 H610 0.930 . S
C570 C568 1.358 . S
C570 N571 1.279 . S
C570 H611 0.930 . S
N571 C569 1.314 . S
N571 C570 1.279 . S
C572 C574 1.353 . S
C572 N575 1.314 . S
C572 H578 0.930 . S
C573 N575 1.279 . S
C573 C576 1.358 . S
C573 H579 0.930 . S
C574 C572 1.353 . S
C574 C577 1.348 . S
C574 H612 0.929 . S
N575 Li530 1.990 . S
N575 C572 1.314 . S
N575 C573 1.279 . S
C576 C573 1.358 . S
C576 C577 1.356 . S
C576 H613 0.930 . S
C577 C574 1.348 . S
C577 C576 1.356 . S
H578 C572 0.930 . S
H579 C573 0.930 . S
C580 N581 1.314 . S
C580 C582 1.353 . S
C580 H586 0.930 . S
N581 Li531 1.990 . S
N581 C580 1.314 . S
N581 C584 1.279 . S
C582 C580 1.353 . S
C582 C585 1.348 . S
C582 H614 0.929 . S
C583 C584 1.358 . S
C583 C585 1.356 . S
C583 H615 0.930 . S
C584 N581 1.279 . S
C584 C583 1.358 . S
C584 H587 0.930 . S
C585 C582 1.348 . S
C585 C583 1.356 . S
H586 C580 0.930 . S
H587 C584 0.930 . S
O588 Li528 1.956 . S
O588 Li529 1.970 . S
O588 Li530 1.961 . S
O588 C532 1.325 . S
O589 Li528 1.970 . S
O589 Li529 1.956 . S
O589 Li531 1.961 . S
O589 C538 1.325 . S
O590 Li528 1.961 . S
O590 Li530 1.956 . S
O590 Li531 1.970 . S
O590 C560 1.325 . S
O591 Li529 1.961 . S
O591 Li530 1.970 . S
O591 Li531 1.956 . S
O591 C566 1.325 . S
H592 C534 0.929 . S
H593 C535 0.930 . S
H594 C536 0.930 . S
H595 C537 0.930 . S
H596 C539 0.930 . S
H597 C541 0.929 . S
H598 C542 0.930 . S
H599 C543 0.930 . S
H600 C546 0.930 . S
H601 C549 0.929 . S
H602 C554 0.929 . S
H603 C555 0.930 . S
H604 C562 0.929 . S
H605 C563 0.930 . S
H606 C564 0.930 . S
H607 C565 0.930 . S
H608 C567 0.929 . S
H609 C568 0.930 . S
H610 C569 0.930 . S
H611 C570 0.930 . S
H612 C574 0.929 . S
H613 C576 0.930 . S
H614 C582 0.929 . S
H615 C583 0.930 . S
Li616 N633 1.990 . S
Li616 O676 1.956 . S
Li616 O677 1.970 . S
Li616 O678 1.961 . S
Li617 N641 1.990 . S
Li617 O676 1.970 . S
Li617 O677 1.956 . S
Li617 O679 1.961 . S
Li618 N663 1.990 . S
Li618 O676 1.961 . S
Li618 O678 1.956 . S
Li618 O679 1.970 . S
Li619 N669 1.990 . S
Li619 O677 1.961 . S
Li619 O678 1.970 . S
Li619 O679 1.956 . S
C620 C622 1.348 . S
C620 C623 1.356 . S
C620 O676 1.325 . S
N621 C624 1.314 . S
N621 C625 1.279 . S
C622 C620 1.348 . S
C622 C624 1.353 . S
C622 H680 0.929 . S
C623 C620 1.356 . S
C623 C625 1.358 . S
C623 H681 0.930 . S
C624 N621 1.314 . S
C624 C622 1.353 . S
C624 H682 0.930 . S
C625 N621 1.279 . S
C625 C623 1.358 . S
C625 H683 0.930 . S
C626 C629 1.348 . S
C626 C630 1.356 . S
C626 O677 1.325 . S
C627 N628 1.279 . S
C627 C630 1.358 . S
C627 H684 0.930 . S
N628 C627 1.279 . S
N628 C631 1.314 . S
C629 C626 1.348 . S
C629 C631 1.353 . S
C629 H685 0.929 . S
C630 C626 1.356 . S
C630 C627 1.358 . S
C630 H686 0.930 . S
C631 N628 1.314 . S
C631 C629 1.353 . S
C631 H687 0.930 . S
C632 N633 1.314 . S
C632 C637 1.353 . S
C632 H638 0.930 . S
N633 Li616 1.990 . S
N633 C632 1.314 . S
N633 C635 1.279 . S
C634 C635 1.358 . S
C634 C636 1.356 . S
C634 H688 0.930 . S
C635 N633 1.279 . S
C635 C634 1.358 . S
C635 H639 0.930 . S
C636 C634 1.356 . S
C636 C637 1.348 . S
C637 C632 1.353 . S
C637 C636 1.348 . S
C637 H689 0.929 . S
H638 C632 0.930 . S
H639 C635 0.930 . S
C640 N641 1.314 . S
C640 C642 1.353 . S
C640 H646 0.930 . S
N641 Li617 1.990 . S
N641 C640 1.314 . S
N641 C644 1.279 . S
C642 C640 1.353 . S
C642 C645 1.348 . S
C642 H690 0.929 . S
C643 C644 1.358 . S
C643 C645 1.356 . S
C643 H691 0.930 . S
C644 N641 1.279 . S
C644 C643 1.358 . S
C644 H647 0.930 . S
C645 C642 1.348 . S
C645 C643 1.356 . S
H646 C640 0.930 . S
H647 C644 0.930 . S
C648 C650 1.348 . S
C648 C651 1.356 . S
C648 O678 1.325 . S
N649 C652 1.314 . S
N649 C653 1.279 . S
C650 C648 1.348 . S
C650 C652 1.353 . S
C650 H692 0.929 . S
C651 C648 1.356 . S
C651 C653 1.358 . S
C651 H693 0.930 . S
C652 N649 1.314 . S
C652 C650 1.353 . S
C652 H694 0.930 . S
C653 N649 1.279 . S
C653 C651 1.358 . S
C653 H695 0.930 . S
C654 C655 1.348 . S
C654 C656 1.356 . S
C654 O679 1.325 . S
C655 C654 1.348 . S
C655 C657 1.353 . S
C655 H696 0.929 . S
C656 C654 1.356 . S
C656 C658 1.358 . S
C656 H697 0.930 . S
C657 C655 1.353 . S
C657 N659 1.314 . S
C657 H698 0.930 . S
C658 C656 1.358 . S
C658 N659 1.279 . S
C658 H699 0.930 . S
N659 C657 1.314 . S
N659 C658 1.279 . S
C660 C662 1.353 . S
C660 N663 1.314 . S
C660 H666 0.930 . S
C661 N663 1.279 . S
C661 C664 1.358 . S
C661 H667 0.930 . S
C662 C660 1.353 . S
C662 C665 1.348 . S
C662 H700 0.929 . S
N663 Li618 1.990 . S
N663 C660 1.314 . S
N663 C661 1.279 . S
C664 C661 1.358 . S
C664 C665 1.356 . S
C664 H701 0.930 . S
C665 C662 1.348 . S
C665 C664 1.356 . S
H666 C660 0.930 . S
H667 C661 0.930 . S
C668 N669 1.314 . S
C668 C670 1.353 . S
C668 H674 0.930 . S
N669 Li619 1.990 . S
N669 C668 1.314 . S
N669 C672 1.279 . S
C670 C668 1.353 . S
C670 C673 1.348 . S
C670 H702 0.929 . S
C671 C672 1.358 . S
C671 C673 1.356 . S
C671 H703 0.930 . S
C672 N669 1.279 . S
C672 C671 1.358 . S
C672 H675 0.930 . S
C673 C670 1.348 . S
C673 C671 1.356 . S
H674 C668 0.930 . S
H675 C672 0.930 . S
O676 Li616 1.956 . S
O676 Li617 1.970 . S
O676 Li618 1.961 . S
O676 C620 1.325 . S
O677 Li616 1.970 . S
O677 Li617 1.956 . S
O677 Li619 1.961 . S
O677 C626 1.325 . S
O678 Li616 1.961 . S
O678 Li618 1.956 . S
O678 Li619 1.970 . S
O678 C648 1.325 . S
O679 Li617 1.961 . S
O679 Li618 1.970 . S
O679 Li619 1.956 . S
O679 C654 1.325 . S
H680 C622 0.929 . S
H681 C623 0.930 . S
H682 C624 0.930 . S
H683 C625 0.930 . S
H684 C627 0.930 . S
H685 C629 0.929 . S
H686 C630 0.930 . S
H687 C631 0.930 . S
H688 C634 0.930 . S
H689 C637 0.929 . S
H690 C642 0.929 . S
H691 C643 0.930 . S
H692 C650 0.929 . S
H693 C651 0.930 . S
H694 C652 0.930 . S
H695 C653 0.930 . S
H696 C655 0.929 . S
H697 C656 0.930 . S
H698 C657 0.930 . S
H699 C658 0.930 . S
H700 C662 0.929 . S
H701 C664 0.930 . S
H702 C670 0.929 . S
H703 C671 0.930 . S
C704 C705 1.358 . S
C704 C706 1.327 . S
C704 H729 0.950 . S
C705 C704 1.358 . S
C705 C721 1.340 1_556 S
C706 C704 1.327 . S
C706 C725 1.430 . S
C706 H730 0.950 . S
C707 C724 1.574 . S
C707 C726 1.371 1_554 S
C707 H731 0.949 . S
H708 C712 0.949 . S
C709 C710 1.364 . S
C709 C711 1.327 . S
C709 H732 0.950 . S
C710 C709 1.364 . S
C710 C722 1.334 1_554 S
C711 C709 1.327 . S
C711 C727 1.436 . S
C711 H733 0.950 . S
C712 H708 0.949 . S
C712 C720 1.574 . S
C712 C728 1.365 1_556 S
H713 C721 0.950 . S
H714 C719 0.950 . S
H715 C720 0.949 . S
H716 C722 0.950 . S
H717 C723 0.950 . S
H718 C724 0.949 . S
C719 H714 0.950 . S
C719 C721 1.327 . S
C719 C725 1.427 1_554 S
C720 C712 1.574 . S
C720 H715 0.949 . S
C720 C726 1.365 . S
C721 C705 1.340 1_554 S
C721 H713 0.950 . S
C721 C719 1.327 . S
C722 C710 1.334 1_556 S
C722 H716 0.950 . S
C722 C723 1.327 . S
C723 H717 0.950 . S
C723 C722 1.327 . S
C723 C727 1.421 1_556 S
C724 C707 1.574 . S
C724 H718 0.949 . S
C724 C728 1.372 . S
C725 C706 1.430 . S
C725 C719 1.427 1_556 S
C725 C726 1.523 . S
C726 C707 1.371 1_556 S
C726 C720 1.365 . S
C726 C725 1.523 . S
C727 C711 1.436 . S
C727 C723 1.421 1_554 S
C727 C728 1.523 . S
C728 C712 1.365 1_554 S
C728 C724 1.372 . S
C728 C727 1.523 . S
H729 C704 0.950 . S
H730 C706 0.950 . S
H731 C707 0.949 . S
H732 C709 0.950 . S
H733 C711 0.950 . S
C734 C735 1.360 . S
C734 C736 1.327 . S
C734 H759 0.950 . S
C735 C734 1.360 . S
C735 C751 1.338 1_554 S
C736 C734 1.327 . S
C736 C755 1.434 . S
C736 H760 0.950 . S
C737 C754 1.574 . S
C737 C756 1.366 1_556 S
C737 H761 0.949 . S
H738 C742 0.949 . S
C739 C740 1.355 . S
C739 C741 1.327 . S
C739 H762 0.950 . S
C740 C739 1.355 . S
C740 C752 1.343 1_556 S
C741 C739 1.327 . S
C741 C757 1.429 . S
C741 H763 0.950 . S
C742 H738 0.949 . S
C742 C750 1.574 . S
C742 C758 1.370 1_554 S
H743 C751 0.950 . S
H744 C749 0.950 . S
H745 C750 0.949 . S
H746 C752 0.950 . S
H747 C753 0.950 . S
H748 C754 0.949 . S
C749 H744 0.950 . S
C749 C751 1.327 . S
C749 C755 1.423 1_556 S
C750 C742 1.574 . S
C750 H745 0.949 . S
C750 C756 1.371 . S
C751 C735 1.338 1_556 S
C751 H743 0.950 . S
C751 C749 1.327 . S
C752 C740 1.343 1_554 S
C752 H746 0.950 . S
C752 C753 1.327 . S
C753 H747 0.950 . S
C753 C752 1.327 . S
C753 C757 1.428 1_554 S
C754 C737 1.574 . S
C754 H748 0.949 . S
C754 C758 1.366 . S
C755 C736 1.434 . S
C755 C749 1.423 1_554 S
C755 C756 1.523 . S
C756 C737 1.366 1_554 S
C756 C750 1.371 . S
C756 C755 1.523 . S
C757 C741 1.429 . S
C757 C753 1.428 1_556 S
C757 C758 1.523 . S
C758 C742 1.370 1_556 S
C758 C754 1.366 . S
C758 C757 1.523 . S
H759 C734 0.950 . S
H760 C736 0.950 . S
H761 C737 0.949 . S
H762 C739 0.950 . S
H763 C741 0.950 . S
C764 C765 1.334 1_556 S
C764 C766 1.327 . S
C764 H789 0.950 . S
C765 C764 1.334 1_554 S
C765 C781 1.364 . S
C766 C764 1.327 . S
C766 C785 1.421 1_556 S
C766 H790 0.950 . S
C767 C784 1.574 . S
C767 C786 1.372 . S
C767 H791 0.949 . S
H768 C772 0.949 . S
C769 C770 1.340 1_554 S
C769 C771 1.327 . S
C769 H792 0.950 . S
C770 C769 1.340 1_556 S
C770 C782 1.358 . S
C771 C769 1.327 . S
C771 C787 1.427 1_554 S
C771 H793 0.950 . S
C772 H768 0.949 . S
C772 C780 1.574 . S
C772 C788 1.365 . S
H773 C781 0.950 . S
H774 C779 0.950 . S
H775 C780 0.949 . S
H776 C782 0.950 . S
H777 C783 0.950 . S
H778 C784 0.949 . S
C779 H774 0.950 . S
C779 C781 1.327 . S
C779 C785 1.436 . S
C780 C772 1.574 . S
C780 H775 0.949 . S
C780 C786 1.365 1_556 S
C781 C765 1.364 . S
C781 H773 0.950 . S
C781 C779 1.327 . S
C782 C770 1.358 . S
C782 H776 0.950 . S
C782 C783 1.327 . S
C783 H777 0.950 . S
C783 C782 1.327 . S
C783 C787 1.430 . S
C784 C767 1.574 . S
C784 H778 0.949 . S
C784 C788 1.371 1_554 S
C785 C766 1.421 1_554 S
C785 C779 1.436 . S
C785 C786 1.523 . S
C786 C767 1.372 . S
C786 C780 1.365 1_554 S
C786 C785 1.523 . S
C787 C771 1.427 1_556 S
C787 C783 1.430 . S
C787 C788 1.523 . S
C788 C772 1.365 . S
C788 C784 1.371 1_556 S
C788 C787 1.523 . S
H789 C764 0.950 . S
H790 C766 0.950 . S
H791 C767 0.949 . S
H792 C769 0.950 . S
H793 C771 0.950 . S
C794 C795 1.355 . S
C794 C796 1.327 . S
C794 H819 0.950 . S
C795 C794 1.355 . S
C795 C811 1.343 1_556 S
C796 C794 1.327 . S
C796 C815 1.429 . S
C796 H820 0.950 . S
C797 C814 1.574 . S
C797 C816 1.370 1_554 S
C797 H821 0.949 . S
H798 C802 0.949 . S
C799 C800 1.360 . S
C799 C801 1.327 . S
C799 H822 0.950 . S
C800 C799 1.360 . S
C800 C812 1.338 1_554 S
C801 C799 1.327 . S
C801 C817 1.434 . S
C801 H823 0.950 . S
C802 H798 0.949 . S
C802 C810 1.574 . S
C802 C818 1.366 1_556 S
H803 C811 0.950 . S
H804 C809 0.950 . S
H805 C810 0.949 . S
H806 C812 0.950 . S
H807 C813 0.950 . S
H808 C814 0.949 . S
C809 H804 0.950 . S
C809 C811 1.327 . S
C809 C815 1.428 1_554 S
C810 C802 1.574 . S
C810 H805 0.949 . S
C810 C816 1.366 . S
C811 C795 1.343 1_554 S
C811 H803 0.950 . S
C811 C809 1.327 . S
C812 C800 1.338 1_556 S
C812 H806 0.950 . S
C812 C813 1.327 . S
C813 H807 0.950 . S
C813 C812 1.327 . S
C813 C817 1.423 1_556 S
C814 C797 1.574 . S
C814 H808 0.949 . S
C814 C818 1.371 . S
C815 C796 1.429 . S
C815 C809 1.428 1_556 S
C815 C816 1.523 . S
C816 C797 1.370 1_556 S
C816 C810 1.366 . S
C816 C815 1.523 . S
C817 C801 1.434 . S
C817 C813 1.423 1_554 S
C817 C818 1.523 . S
C818 C802 1.366 1_554 S
C818 C814 1.371 . S
C818 C817 1.523 . S
H819 C794 0.950 . S
H820 C796 0.950 . S
H821 C797 0.949 . S
H822 C799 0.950 . S
H823 C801 0.950 . S
C824 C825 1.349 . S
C824 C826 1.327 . S
C824 H849 0.950 . S
C825 C824 1.349 . S
C825 C841 1.349 . S
C826 C824 1.327 . S
C826 C845 1.429 . S
C826 H850 0.950 . S
C827 C844 1.574 1_565 S
C827 C846 1.368 . S
C827 H851 0.949 . S
H828 C832 0.949 . S
C829 C830 1.349 . S
C829 C831 1.327 . S
C829 H852 0.950 . S
C830 C829 1.349 . S
C830 C842 1.349 . S
C831 C829 1.327 . S
C831 C847 1.429 . S
C831 H853 0.950 . S
C832 H828 0.949 . S
C832 C840 1.574 1_545 S
C832 C848 1.368 . S
H833 C841 0.950 . S
H834 C839 0.950 . S
H835 C840 0.949 . S
H836 C842 0.950 . S
H837 C843 0.950 . S
H838 C844 0.949 . S
C839 H834 0.950 . S
C839 C841 1.327 . S
C839 C845 1.429 . S
C840 C832 1.574 1_565 S
C840 H835 0.949 . S
C840 C846 1.368 . S
C841 C825 1.349 . S
C841 H833 0.950 . S
C841 C839 1.327 . S
C842 C830 1.349 . S
C842 H836 0.950 . S
C842 C843 1.327 . S
C843 H837 0.950 . S
C843 C842 1.327 . S
C843 C847 1.429 . S
C844 C827 1.574 1_545 S
C844 H838 0.949 . S
C844 C848 1.368 . S
C845 C826 1.429 . S
C845 C839 1.429 . S
C845 C846 1.523 . S
C846 C827 1.368 . S
C846 C840 1.368 . S
C846 C845 1.523 . S
C847 C831 1.429 . S
C847 C843 1.429 . S
C847 C848 1.523 . S
C848 C832 1.368 . S
C848 C844 1.368 . S
C848 C847 1.523 . S
H849 C824 0.950 . S
H850 C826 0.950 . S
H851 C827 0.949 . S
H852 C829 0.950 . S
H853 C831 0.950 . S
C854 C855 1.349 . S
C854 C856 1.327 . S
C854 H879 0.950 . S
C855 C854 1.349 . S
C855 C871 1.349 . S
C856 C854 1.327 . S
C856 C875 1.429 . S
C856 H880 0.950 . S
C857 C874 1.574 1_455 S
C857 C876 1.368 . S
C857 H881 0.949 . S
H858 C862 0.949 . S
C859 C860 1.349 . S
C859 C861 1.327 . S
C859 H882 0.950 . S
C860 C859 1.349 . S
C860 C872 1.349 . S
C861 C859 1.327 . S
C861 C877 1.429 . S
C861 H883 0.950 . S
C862 H858 0.949 . S
C862 C870 1.574 1_655 S
C862 C878 1.368 . S
H863 C871 0.950 . S
H864 C869 0.950 . S
H865 C870 0.949 . S
H866 C872 0.950 . S
H867 C873 0.950 . S
H868 C874 0.949 . S
C869 H864 0.950 . S
C869 C871 1.327 . S
C869 C875 1.429 . S
C870 C862 1.574 1_455 S
C870 H865 0.949 . S
C870 C876 1.368 . S
C871 C855 1.349 . S
C871 H863 0.950 . S
C871 C869 1.327 . S
C872 C860 1.349 . S
C872 H866 0.950 . S
C872 C873 1.327 . S
C873 H867 0.950 . S
C873 C872 1.327 . S
C873 C877 1.429 . S
C874 C857 1.574 1_655 S
C874 H868 0.949 . S
C874 C878 1.368 . S
C875 C856 1.429 . S
C875 C869 1.429 . S
C875 C876 1.523 . S
C876 C857 1.368 . S
C876 C870 1.368 . S
C876 C875 1.523 . S
C877 C861 1.429 . S
C877 C873 1.429 . S
C877 C878 1.523 . S
C878 C862 1.368 . S
C878 C874 1.368 . S
C878 C877 1.523 . S
H879 C854 0.950 . S
H880 C856 0.950 . S
H881 C857 0.949 . S
H882 C859 0.950 . S
H883 C861 0.950 . S
C884 C885 1.349 . S
C884 C886 1.327 . S
C884 H909 0.950 . S
C885 C884 1.349 . S
C885 C901 1.349 . S
C886 C884 1.327 . S
C886 C905 1.429 . S
C886 H910 0.950 . S
C887 C904 1.574 1_545 S
C887 C906 1.368 . S
C887 H911 0.949 . S
H888 C892 0.949 . S
C889 C890 1.349 . S
C889 C891 1.327 . S
C889 H912 0.950 . S
C890 C889 1.349 . S
C890 C902 1.349 . S
C891 C889 1.327 . S
C891 C907 1.429 . S
C891 H913 0.950 . S
C892 H888 0.949 . S
C892 C900 1.574 1_565 S
C892 C908 1.368 . S
H893 C901 0.950 . S
H894 C899 0.950 . S
H895 C900 0.949 . S
H896 C902 0.950 . S
H897 C903 0.950 . S
H898 C904 0.949 . S
C899 H894 0.950 . S
C899 C901 1.327 . S
C899 C905 1.429 . S
C900 C892 1.574 1_545 S
C900 H895 0.949 . S
C900 C906 1.368 . S
C901 C885 1.349 . S
C901 H893 0.950 . S
C901 C899 1.327 . S
C902 C890 1.349 . S
C902 H896 0.950 . S
C902 C903 1.327 . S
C903 H897 0.950 . S
C903 C902 1.327 . S
C903 C907 1.429 . S
C904 C887 1.574 1_565 S
C904 H898 0.949 . S
C904 C908 1.368 . S
C905 C886 1.429 . S
C905 C899 1.429 . S
C905 C906 1.523 . S
C906 C887 1.368 . S
C906 C900 1.368 . S
C906 C905 1.523 . S
C907 C891 1.429 . S
C907 C903 1.429 . S
C907 C908 1.523 . S
C908 C892 1.368 . S
C908 C904 1.368 . S
C908 C907 1.523 . S
H909 C884 0.950 . S
H910 C886 0.950 . S
H911 C887 0.949 . S
H912 C889 0.950 . S
H913 C891 0.950 . S
C914 C915 1.349 . S
C914 C916 1.327 . S
C914 H939 0.950 . S
C915 C914 1.349 . S
C915 C931 1.349 . S
C916 C914 1.327 . S
C916 C935 1.429 . S
C916 H940 0.950 . S
C917 C934 1.574 1_655 S
C917 C936 1.368 . S
C917 H941 0.949 . S
H918 C922 0.949 . S
C919 C920 1.349 . S
C919 C921 1.327 . S
C919 H942 0.950 . S
C920 C919 1.349 . S
C920 C932 1.349 . S
C921 C919 1.327 . S
C921 C937 1.429 . S
C921 H943 0.950 . S
C922 H918 0.949 . S
C922 C930 1.574 1_455 S
C922 C938 1.368 . S
H923 C931 0.950 . S
H924 C929 0.950 . S
H925 C930 0.949 . S
H926 C932 0.950 . S
H927 C933 0.950 . S
H928 C934 0.949 . S
C929 H924 0.950 . S
C929 C931 1.327 . S
C929 C935 1.429 . S
C930 C922 1.574 1_655 S
C930 H925 0.949 . S
C930 C936 1.368 . S
C931 C915 1.349 . S
C931 H923 0.950 . S
C931 C929 1.327 . S
C932 C920 1.349 . S
C932 H926 0.950 . S
C932 C933 1.327 . S
C933 H927 0.950 . S
C933 C932 1.327 . S
C933 C937 1.429 . S
C934 C917 1.574 1_455 S
C934 H928 0.949 . S
C934 C938 1.368 . S
C935 C916 1.429 . S
C935 C929 1.429 . S
C935 C936 1.523 . S
C936 C917 1.368 . S
C936 C930 1.368 . S
C936 C935 1.523 . S
C937 C921 1.429 . S
C937 C933 1.429 . S
C937 C938 1.523 . S
C938 C922 1.368 . S
C938 C934 1.368 . S
C938 C937 1.523 . S
H939 C914 0.950 . S
H940 C916 0.950 . S
H941 C917 0.949 . S
H942 C919 0.950 . S
H943 C921 0.950 . S
C944 C945 1.349 . S
C944 C946 1.327 . S
C944 H969 0.950 . S
C945 C944 1.349 . S
C945 C961 1.349 . S
C946 C944 1.327 . S
C946 C965 1.429 . S
C946 H970 0.950 . S
C947 C964 1.574 . S
C947 C966 1.368 . S
C947 H971 0.949 . S
H948 C952 0.949 . S
C949 C950 1.349 . S
C949 C951 1.327 . S
C949 H972 0.950 . S
C950 C949 1.349 . S
C950 C962 1.349 . S
C951 C949 1.327 . S
C951 C967 1.429 . S
C951 H973 0.950 . S
C952 H948 0.949 . S
C952 C960 1.574 . S
C952 C968 1.368 . S
H953 C961 0.950 . S
H954 C959 0.950 . S
H955 C960 0.949 . S
H956 C962 0.950 . S
H957 C963 0.950 . S
H958 C964 0.949 . S
C959 H954 0.950 . S
C959 C961 1.327 . S
C959 C965 1.429 . S
C960 C952 1.574 . S
C960 H955 0.949 . S
C960 C966 1.368 . S
C961 C945 1.349 . S
C961 H953 0.950 . S
C961 C959 1.327 . S
C962 C950 1.349 . S
C962 H956 0.950 . S
C962 C963 1.327 . S
C963 H957 0.950 . S
C963 C962 1.327 . S
C963 C967 1.429 . S
C964 C947 1.574 . S
C964 H958 0.949 . S
C964 C968 1.368 . S
C965 C946 1.429 . S
C965 C959 1.429 . S
C965 C966 1.523 . S
C966 C947 1.368 . S
C966 C960 1.368 . S
C966 C965 1.523 . S
C967 C951 1.429 . S
C967 C963 1.429 . S
C967 C968 1.523 . S
C968 C952 1.368 . S
C968 C964 1.368 . S
C968 C967 1.523 . S
H969 C944 0.950 . S
H970 C946 0.950 . S
H971 C947 0.949 . S
H972 C949 0.950 . S
H973 C951 0.950 . S
C974 C975 1.349 . S
C974 C976 1.327 . S
C974 H999 0.950 . S
C975 C974 1.349 . S
C975 C991 1.349 . S
C976 C974 1.327 . S
C976 C995 1.429 . S
C976 H1000 0.950 . S
C977 C994 1.574 . S
C977 C996 1.368 . S
C977 H1001 0.949 . S
H978 C982 0.949 . S
C979 C980 1.349 . S
C979 C981 1.327 . S
C979 H1002 0.950 . S
C980 C979 1.349 . S
C980 C992 1.349 . S
C981 C979 1.327 . S
C981 C997 1.429 . S
C981 H1003 0.950 . S
C982 H978 0.949 . S
C982 C990 1.574 . S
C982 C998 1.368 . S
H983 C991 0.950 . S
H984 C989 0.950 . S
H985 C990 0.949 . S
H986 C992 0.950 . S
H987 C993 0.950 . S
H988 C994 0.949 . S
C989 H984 0.950 . S
C989 C991 1.327 . S
C989 C995 1.429 . S
C990 C982 1.574 . S
C990 H985 0.949 . S
C990 C996 1.368 . S
C991 C975 1.349 . S
C991 H983 0.950 . S
C991 C989 1.327 . S
C992 C980 1.349 . S
C992 H986 0.950 . S
C992 C993 1.327 . S
C993 H987 0.950 . S
C993 C992 1.327 . S
C993 C997 1.429 . S
C994 C977 1.574 . S
C994 H988 0.949 . S
C994 C998 1.368 . S
C995 C976 1.429 . S
C995 C989 1.429 . S
C995 C996 1.523 . S
C996 C977 1.368 . S
C996 C990 1.368 . S
C996 C995 1.523 . S
C997 C981 1.429 . S
C997 C993 1.429 . S
C997 C998 1.523 . S
C998 C982 1.368 . S
C998 C994 1.368 . S
C998 C997 1.523 . S
H999 C974 0.950 . S
H1000 C976 0.950 . S
H1001 C977 0.949 . S
H1002 C979 0.950 . S
H1003 C981 0.950 . S
C1004 C1005 1.349 . S
C1004 C1006 1.327 . S
C1004 H1029 0.950 . S
C1005 C1004 1.349 . S
C1005 C1021 1.349 . S
C1006 C1004 1.327 . S
C1006 C1025 1.429 . S
C1006 H1030 0.950 . S
C1007 C1024 1.574 . S
C1007 C1026 1.368 . S
C1007 H1031 0.949 . S
H1008 C1012 0.949 . S
C1009 C1010 1.349 . S
C1009 C1011 1.327 . S
C1009 H1032 0.950 . S
C1010 C1009 1.349 . S
C1010 C1022 1.349 . S
C1011 C1009 1.327 . S
C1011 C1027 1.429 . S
C1011 H1033 0.950 . S
C1012 H1008 0.949 . S
C1012 C1020 1.574 . S
C1012 C1028 1.368 . S
H1013 C1021 0.950 . S
H1014 C1019 0.950 . S
H1015 C1020 0.949 . S
H1016 C1022 0.950 . S
H1017 C1023 0.950 . S
H1018 C1024 0.949 . S
C1019 H1014 0.950 . S
C1019 C1021 1.327 . S
C1019 C1025 1.429 . S
C1020 C1012 1.574 . S
C1020 H1015 0.949 . S
C1020 C1026 1.368 . S
C1021 C1005 1.349 . S
C1021 H1013 0.950 . S
C1021 C1019 1.327 . S
C1022 C1010 1.349 . S
C1022 H1016 0.950 . S
C1022 C1023 1.327 . S
C1023 H1017 0.950 . S
C1023 C1022 1.327 . S
C1023 C1027 1.429 . S
C1024 C1007 1.574 . S
C1024 H1018 0.949 . S
C1024 C1028 1.368 . S
C1025 C1006 1.429 . S
C1025 C1019 1.429 . S
C1025 C1026 1.523 . S
C1026 C1007 1.368 . S
C1026 C1020 1.368 . S
C1026 C1025 1.523 . S
C1027 C1011 1.429 . S
C1027 C1023 1.429 . S
C1027 C1028 1.523 . S
C1028 C1012 1.368 . S
C1028 C1024 1.368 . S
C1028 C1027 1.523 . S
H1029 C1004 0.950 . S
H1030 C1006 0.950 . S
H1031 C1007 0.949 . S
H1032 C1009 0.950 . S
H1033 C1011 0.950 . S
C1034 C1035 1.349 . S
C1034 C1036 1.327 . S
C1034 H1059 0.950 . S
C1035 C1034 1.349 . S
C1035 C1051 1.349 . S
C1036 C1034 1.327 . S
C1036 C1055 1.429 . S
C1036 H1060 0.950 . S
C1037 C1054 1.574 . S
C1037 C1056 1.368 . S
C1037 H1061 0.949 . S
H1038 C1042 0.949 . S
C1039 C1040 1.349 . S
C1039 C1041 1.327 . S
C1039 H1062 0.950 . S
C1040 C1039 1.349 . S
C1040 C1052 1.349 . S
C1041 C1039 1.327 . S
C1041 C1057 1.429 . S
C1041 H1063 0.950 . S
C1042 H1038 0.949 . S
C1042 C1050 1.574 . S
C1042 C1058 1.368 . S
H1043 C1051 0.950 . S
H1044 C1049 0.950 . S
H1045 C1050 0.949 . S
H1046 C1052 0.950 . S
H1047 C1053 0.950 . S
H1048 C1054 0.949 . S
C1049 H1044 0.950 . S
C1049 C1051 1.327 . S
C1049 C1055 1.429 . S
C1050 C1042 1.574 . S
C1050 H1045 0.949 . S
C1050 C1056 1.368 . S
C1051 C1035 1.349 . S
C1051 H1043 0.950 . S
C1051 C1049 1.327 . S
C1052 C1040 1.349 . S
C1052 H1046 0.950 . S
C1052 C1053 1.327 . S
C1053 H1047 0.950 . S
C1053 C1052 1.327 . S
C1053 C1057 1.429 . S
C1054 C1037 1.574 . S
C1054 H1048 0.949 . S
C1054 C1058 1.368 . S
C1055 C1036 1.429 . S
C1055 C1049 1.429 . S
C1055 C1056 1.523 . S
C1056 C1037 1.368 . S
C1056 C1050 1.368 . S
C1056 C1055 1.523 . S
C1057 C1041 1.429 . S
C1057 C1053 1.429 . S
C1057 C1058 1.523 . S
C1058 C1042 1.368 . S
C1058 C1054 1.368 . S
C1058 C1057 1.523 . S
H1059 C1034 0.950 . S
H1060 C1036 0.950 . S
H1061 C1037 0.949 . S
H1062 C1039 0.950 . S
H1063 C1041 0.950 . S
C1064 C1065 1.349 . S
C1064 C1066 1.327 . S
C1064 H1089 0.950 . S
C1065 C1064 1.349 . S
C1065 C1081 1.349 . S
C1066 C1064 1.327 . S
C1066 C1085 1.429 . S
C1066 H1090 0.950 . S
C1067 C1084 1.574 . S
C1067 C1086 1.368 . S
C1067 H1091 0.949 . S
H1068 C1072 0.949 . S
C1069 C1070 1.349 . S
C1069 C1071 1.327 . S
C1069 H1092 0.950 . S
C1070 C1069 1.349 . S
C1070 C1082 1.349 . S
C1071 C1069 1.327 . S
C1071 C1087 1.429 . S
C1071 H1093 0.950 . S
C1072 H1068 0.949 . S
C1072 C1080 1.574 . S
C1072 C1088 1.368 . S
H1073 C1081 0.950 . S
H1074 C1079 0.950 . S
H1075 C1080 0.949 . S
H1076 C1082 0.950 . S
H1077 C1083 0.950 . S
H1078 C1084 0.949 . S
C1079 H1074 0.950 . S
C1079 C1081 1.327 . S
C1079 C1085 1.429 . S
C1080 C1072 1.574 . S
C1080 H1075 0.949 . S
C1080 C1086 1.368 . S
C1081 C1065 1.349 . S
C1081 H1073 0.950 . S
C1081 C1079 1.327 . S
C1082 C1070 1.349 . S
C1082 H1076 0.950 . S
C1082 C1083 1.327 . S
C1083 H1077 0.950 . S
C1083 C1082 1.327 . S
C1083 C1087 1.429 . S
C1084 C1067 1.574 . S
C1084 H1078 0.949 . S
C1084 C1088 1.368 . S
C1085 C1066 1.429 . S
C1085 C1079 1.429 . S
C1085 C1086 1.523 . S
C1086 C1067 1.368 . S
C1086 C1080 1.368 . S
C1086 C1085 1.523 . S
C1087 C1071 1.429 . S
C1087 C1083 1.429 . S
C1087 C1088 1.523 . S
C1088 C1072 1.368 . S
C1088 C1084 1.368 . S
C1088 C1087 1.523 . S
H1089 C1064 0.950 . S
H1090 C1066 0.950 . S
H1091 C1067 0.949 . S
H1092 C1069 0.950 . S
H1093 C1071 0.950 . S
C1094 C1095 1.349 . S
C1094 C1096 1.327 . S
C1094 H1119 0.950 . S
C1095 C1094 1.349 . S
C1095 C1111 1.349 . S
C1096 C1094 1.327 . S
C1096 C1115 1.429 . S
C1096 H1120 0.950 . S
C1097 C1114 1.574 . S
C1097 C1116 1.368 . S
C1097 H1121 0.949 . S
H1098 C1102 0.949 . S
C1099 C1100 1.349 . S
C1099 C1101 1.327 . S
C1099 H1122 0.950 . S
C1100 C1099 1.349 . S
C1100 C1112 1.349 . S
C1101 C1099 1.327 . S
C1101 C1117 1.429 . S
C1101 H1123 0.950 . S
C1102 H1098 0.949 . S
C1102 C1110 1.574 . S
C1102 C1118 1.368 . S
H1103 C1111 0.950 . S
H1104 C1109 0.950 . S
H1105 C1110 0.949 . S
H1106 C1112 0.950 . S
H1107 C1113 0.950 . S
H1108 C1114 0.949 . S
C1109 H1104 0.950 . S
C1109 C1111 1.327 . S
C1109 C1115 1.429 . S
C1110 C1102 1.574 . S
C1110 H1105 0.949 . S
C1110 C1116 1.368 . S
C1111 C1095 1.349 . S
C1111 H1103 0.950 . S
C1111 C1109 1.327 . S
C1112 C1100 1.349 . S
C1112 H1106 0.950 . S
C1112 C1113 1.327 . S
C1113 H1107 0.950 . S
C1113 C1112 1.327 . S
C1113 C1117 1.429 . S
C1114 C1097 1.574 . S
C1114 H1108 0.949 . S
C1114 C1118 1.368 . S
C1115 C1096 1.429 . S
C1115 C1109 1.429 . S
C1115 C1116 1.523 . S
C1116 C1097 1.368 . S
C1116 C1110 1.368 . S
C1116 C1115 1.523 . S
C1117 C1101 1.429 . S
C1117 C1113 1.429 . S
C1117 C1118 1.523 . S
C1118 C1102 1.368 . S
C1118 C1114 1.368 . S
C1118 C1117 1.523 . S
H1119 C1094 0.950 . S
H1120 C1096 0.950 . S
H1121 C1097 0.949 . S
H1122 C1099 0.950 . S
H1123 C1101 0.950 . S
C1124 C1125 1.349 . S
C1124 C1126 1.327 . S
C1124 H1149 0.950 . S
C1125 C1124 1.349 . S
C1125 C1141 1.349 . S
C1126 C1124 1.327 . S
C1126 C1145 1.429 . S
C1126 H1150 0.950 . S
C1127 C1144 1.574 . S
C1127 C1146 1.368 . S
C1127 H1151 0.949 . S
H1128 C1132 0.949 . S
C1129 C1130 1.349 . S
C1129 C1131 1.327 . S
C1129 H1152 0.950 . S
C1130 C1129 1.349 . S
C1130 C1142 1.349 . S
C1131 C1129 1.327 . S
C1131 C1147 1.429 . S
C1131 H1153 0.950 . S
C1132 H1128 0.949 . S
C1132 C1140 1.574 . S
C1132 C1148 1.368 . S
H1133 C1141 0.950 . S
H1134 C1139 0.950 . S
H1135 C1140 0.949 . S
H1136 C1142 0.950 . S
H1137 C1143 0.950 . S
H1138 C1144 0.949 . S
C1139 H1134 0.950 . S
C1139 C1141 1.327 . S
C1139 C1145 1.429 . S
C1140 C1132 1.574 . S
C1140 H1135 0.949 . S
C1140 C1146 1.368 . S
C1141 C1125 1.349 . S
C1141 H1133 0.950 . S
C1141 C1139 1.327 . S
C1142 C1130 1.349 . S
C1142 H1136 0.950 . S
C1142 C1143 1.327 . S
C1143 H1137 0.950 . S
C1143 C1142 1.327 . S
C1143 C1147 1.429 . S
C1144 C1127 1.574 . S
C1144 H1138 0.949 . S
C1144 C1148 1.368 . S
C1145 C1126 1.429 . S
C1145 C1139 1.429 . S
C1145 C1146 1.523 . S
C1146 C1127 1.368 . S
C1146 C1140 1.368 . S
C1146 C1145 1.523 . S
C1147 C1131 1.429 . S
C1147 C1143 1.429 . S
C1147 C1148 1.523 . S
C1148 C1132 1.368 . S
C1148 C1144 1.368 . S
C1148 C1147 1.523 . S
H1149 C1124 0.950 . S
H1150 C1126 0.950 . S
H1151 C1127 0.949 . S
H1152 C1129 0.950 . S
H1153 C1131 0.950 . S
C1154 C1155 1.349 . S
C1154 C1156 1.327 . S
C1154 H1179 0.950 . S
C1155 C1154 1.349 . S
C1155 C1171 1.349 . S
C1156 C1154 1.327 . S
C1156 C1175 1.429 . S
C1156 H1180 0.950 . S
C1157 C1174 1.574 . S
C1157 C1176 1.368 . S
C1157 H1181 0.949 . S
H1158 C1162 0.949 . S
C1159 C1160 1.349 . S
C1159 C1161 1.327 . S
C1159 H1182 0.950 . S
C1160 C1159 1.349 . S
C1160 C1172 1.349 . S
C1161 C1159 1.327 . S
C1161 C1177 1.429 . S
C1161 H1183 0.950 . S
C1162 H1158 0.949 . S
C1162 C1170 1.574 . S
C1162 C1178 1.368 . S
H1163 C1171 0.950 . S
H1164 C1169 0.950 . S
H1165 C1170 0.949 . S
H1166 C1172 0.950 . S
H1167 C1173 0.950 . S
H1168 C1174 0.949 . S
C1169 H1164 0.950 . S
C1169 C1171 1.327 . S
C1169 C1175 1.429 . S
C1170 C1162 1.574 . S
C1170 H1165 0.949 . S
C1170 C1176 1.368 . S
C1171 C1155 1.349 . S
C1171 H1163 0.950 . S
C1171 C1169 1.327 . S
C1172 C1160 1.349 . S
C1172 H1166 0.950 . S
C1172 C1173 1.327 . S
C1173 H1167 0.950 . S
C1173 C1172 1.327 . S
C1173 C1177 1.429 . S
C1174 C1157 1.574 . S
C1174 H1168 0.949 . S
C1174 C1178 1.368 . S
C1175 C1156 1.429 . S
C1175 C1169 1.429 . S
C1175 C1176 1.523 . S
C1176 C1157 1.368 . S
C1176 C1170 1.368 . S
C1176 C1175 1.523 . S
C1177 C1161 1.429 . S
C1177 C1173 1.429 . S
C1177 C1178 1.523 . S
C1178 C1162 1.368 . S
C1178 C1174 1.368 . S
C1178 C1177 1.523 . S
H1179 C1154 0.950 . S
H1180 C1156 0.950 . S
H1181 C1157 0.949 . S
H1182 C1159 0.950 . S
H1183 C1161 0.950 . S
C705 C49 1.481 . S
C710 C284 1.481 . S
C735 C29 1.481 . S
C740 C145 1.481 . S
C765 C108 1.481 . S
C770 C233 1.481 . S
C795 C321 1.481 . S
C800 C196 1.481 . S
C825 C401 1.481 . S
C830 C645 1.481 . S
C855 C497 1.481 . S
C860 C381 1.481 . S
C885 C577 1.481 . S
C890 C460 1.481 . S
C915 C665 1.481 . S
C920 C557 1.481 . S
C945 C585 1.315 . S
C950 C20 1.312 . S
C975 C117 1.315 . S
C980 C673 1.312 . S
C1005 C409 1.315 . S
C1010 C205 1.312 . S
C1035 C489 1.315 . S
C1040 C293 1.312 . S
C1065 C469 1.315 . S
C1070 C313 1.319 . S
C1095 C57 1.315 . S
C1100 C548 1.319 . S
C1125 C137 1.315 . S
C1130 C636 1.319 . S
C1155 C225 1.315 . S
C1160 C372 1.319 . S
