# Generated by pormake.
# Topology ukj, (4)-cn, num edge types: 1
# Building blocks:
#     Node 0, Type 0, BuildingBlock: NAWXER_clean_sbu_0, # of connection points: 4
#     Node 1, Type 0, BuildingBlock: NAWXER_clean_sbu_0, # of connection points: 4
#     Node 2, Type 0, BuildingBlock: NAWXER_clean_sbu_0, # of connection points: 4
#     Node 3, Type 0, BuildingBlock: NAWXER_clean_sbu_0, # of connection points: 4
#     Node 4, Type 0, BuildingBlock: NAWXER_clean_sbu_0, # of connection points: 4
#     Node 5, Type 0, BuildingBlock: NAWXER_clean_sbu_0, # of connection points: 4
#     Node 6, Type 0, BuildingBlock: NAWXER_clean_sbu_0, # of connection points: 4
#     Node 7, Type 0, BuildingBlock: NAWXER_clean_sbu_0, # of connection points: 4
#     Node 8, Type 0, BuildingBlock: NAWXER_clean_sbu_0, # of connection points: 4
#     Node 9, Type 0, BuildingBlock: NAWXER_clean_sbu_0, # of connection points: 4
#     Node 10, Type 0, BuildingBlock: NAWXER_clean_sbu_0, # of connection points: 4
#     Node 11, Type 0, BuildingBlock: NAWXER_clean_sbu_0, # of connection points: 4
#     Node 12, Type 0, BuildingBlock: NAWXER_clean_sbu_0, # of connection points: 4
#     Node 13, Type 0, BuildingBlock: NAWXER_clean_sbu_0, # of connection points: 4
#     Node 14, Type 0, BuildingBlock: NAWXER_clean_sbu_0, # of connection points: 4
#     Node 15, Type 0, BuildingBlock: NAWXER_clean_sbu_0, # of connection points: 4
#     Node 16, Type 0, BuildingBlock: NAWXER_clean_sbu_0, # of connection points: 4
#     Node 17, Type 0, BuildingBlock: NAWXER_clean_sbu_0, # of connection points: 4
#     Node 18, Type 0, BuildingBlock: NAWXER_clean_sbu_0, # of connection points: 4
#     Node 19, Type 0, BuildingBlock: NAWXER_clean_sbu_0, # of connection points: 4
#     Node 20, Type 0, BuildingBlock: NAWXER_clean_sbu_0, # of connection points: 4
#     Node 21, Type 0, BuildingBlock: NAWXER_clean_sbu_0, # of connection points: 4
#     Node 22, Type 0, BuildingBlock: NAWXER_clean_sbu_0, # of connection points: 4
#     Node 23, Type 0, BuildingBlock: NAWXER_clean_sbu_0, # of connection points: 4
#     Node 24, Type 0, BuildingBlock: NAWXER_clean_sbu_0, # of connection points: 4
#     Node 25, Type 0, BuildingBlock: NAWXER_clean_sbu_0, # of connection points: 4
#     Node 26, Type 0, BuildingBlock: NAWXER_clean_sbu_0, # of connection points: 4
#     Node 27, Type 0, BuildingBlock: NAWXER_clean_sbu_0, # of connection points: 4
#     Node 28, Type 0, BuildingBlock: NAWXER_clean_sbu_0, # of connection points: 4
#     Node 29, Type 0, BuildingBlock: NAWXER_clean_sbu_0, # of connection points: 4
#     Node 30, Type 0, BuildingBlock: NAWXER_clean_sbu_0, # of connection points: 4
#     Node 31, Type 0, BuildingBlock: NAWXER_clean_sbu_0, # of connection points: 4
#     Edge 32, Type (0, 0), BuildingBlock: TEMPAE_clean_linker_10, # of connection points: 2
#     Edge 33, Type (0, 0), BuildingBlock: TEMPAE_clean_linker_10, # of connection points: 2
#     Edge 34, Type (0, 0), BuildingBlock: TEMPAE_clean_linker_10, # of connection points: 2
#     Edge 35, Type (0, 0), BuildingBlock: TEMPAE_clean_linker_10, # of connection points: 2
#     Edge 36, Type (0, 0), BuildingBlock: TEMPAE_clean_linker_10, # of connection points: 2
#     Edge 37, Type (0, 0), BuildingBlock: TEMPAE_clean_linker_10, # of connection points: 2
#     Edge 38, Type (0, 0), BuildingBlock: TEMPAE_clean_linker_10, # of connection points: 2
#     Edge 39, Type (0, 0), BuildingBlock: TEMPAE_clean_linker_10, # of connection points: 2
#     Edge 40, Type (0, 0), BuildingBlock: TEMPAE_clean_linker_10, # of connection points: 2
#     Edge 41, Type (0, 0), BuildingBlock: TEMPAE_clean_linker_10, # of connection points: 2
#     Edge 42, Type (0, 0), BuildingBlock: TEMPAE_clean_linker_10, # of connection points: 2
#     Edge 43, Type (0, 0), BuildingBlock: TEMPAE_clean_linker_10, # of connection points: 2
#     Edge 44, Type (0, 0), BuildingBlock: TEMPAE_clean_linker_10, # of connection points: 2
#     Edge 45, Type (0, 0), BuildingBlock: TEMPAE_clean_linker_10, # of connection points: 2
#     Edge 46, Type (0, 0), BuildingBlock: TEMPAE_clean_linker_10, # of connection points: 2
#     Edge 47, Type (0, 0), BuildingBlock: TEMPAE_clean_linker_10, # of connection points: 2
#     Edge 48, Type (0, 0), BuildingBlock: TEMPAE_clean_linker_10, # of connection points: 2
#     Edge 49, Type (0, 0), BuildingBlock: TEMPAE_clean_linker_10, # of connection points: 2
#     Edge 50, Type (0, 0), BuildingBlock: TEMPAE_clean_linker_10, # of connection points: 2
#     Edge 51, Type (0, 0), BuildingBlock: TEMPAE_clean_linker_10, # of connection points: 2
#     Edge 52, Type (0, 0), BuildingBlock: TEMPAE_clean_linker_10, # of connection points: 2
#     Edge 53, Type (0, 0), BuildingBlock: TEMPAE_clean_linker_10, # of connection points: 2
#     Edge 54, Type (0, 0), BuildingBlock: TEMPAE_clean_linker_10, # of connection points: 2
#     Edge 55, Type (0, 0), BuildingBlock: TEMPAE_clean_linker_10, # of connection points: 2
#     Edge 56, Type (0, 0), BuildingBlock: TEMPAE_clean_linker_10, # of connection points: 2
#     Edge 57, Type (0, 0), BuildingBlock: TEMPAE_clean_linker_10, # of connection points: 2
#     Edge 58, Type (0, 0), BuildingBlock: TEMPAE_clean_linker_10, # of connection points: 2
#     Edge 59, Type (0, 0), BuildingBlock: TEMPAE_clean_linker_10, # of connection points: 2
#     Edge 60, Type (0, 0), BuildingBlock: TEMPAE_clean_linker_10, # of connection points: 2
#     Edge 61, Type (0, 0), BuildingBlock: TEMPAE_clean_linker_10, # of connection points: 2
#     Edge 62, Type (0, 0), BuildingBlock: TEMPAE_clean_linker_10, # of connection points: 2
#     Edge 63, Type (0, 0), BuildingBlock: TEMPAE_clean_linker_10, # of connection points: 2
#     Edge 64, Type (0, 0), BuildingBlock: TEMPAE_clean_linker_10, # of connection points: 2
#     Edge 65, Type (0, 0), BuildingBlock: TEMPAE_clean_linker_10, # of connection points: 2
#     Edge 66, Type (0, 0), BuildingBlock: TEMPAE_clean_linker_10, # of connection points: 2
#     Edge 67, Type (0, 0), BuildingBlock: TEMPAE_clean_linker_10, # of connection points: 2
#     Edge 68, Type (0, 0), BuildingBlock: TEMPAE_clean_linker_10, # of connection points: 2
#     Edge 69, Type (0, 0), BuildingBlock: TEMPAE_clean_linker_10, # of connection points: 2
#     Edge 70, Type (0, 0), BuildingBlock: TEMPAE_clean_linker_10, # of connection points: 2
#     Edge 71, Type (0, 0), BuildingBlock: TEMPAE_clean_linker_10, # of connection points: 2
#     Edge 72, Type (0, 0), BuildingBlock: TEMPAE_clean_linker_10, # of connection points: 2
#     Edge 73, Type (0, 0), BuildingBlock: TEMPAE_clean_linker_10, # of connection points: 2
#     Edge 74, Type (0, 0), BuildingBlock: TEMPAE_clean_linker_10, # of connection points: 2
#     Edge 75, Type (0, 0), BuildingBlock: TEMPAE_clean_linker_10, # of connection points: 2
#     Edge 76, Type (0, 0), BuildingBlock: TEMPAE_clean_linker_10, # of connection points: 2
#     Edge 77, Type (0, 0), BuildingBlock: TEMPAE_clean_linker_10, # of connection points: 2
#     Edge 78, Type (0, 0), BuildingBlock: TEMPAE_clean_linker_10, # of connection points: 2
#     Edge 79, Type (0, 0), BuildingBlock: TEMPAE_clean_linker_10, # of connection points: 2
#     Edge 80, Type (0, 0), BuildingBlock: TEMPAE_clean_linker_10, # of connection points: 2
#     Edge 81, Type (0, 0), BuildingBlock: TEMPAE_clean_linker_10, # of connection points: 2
#     Edge 82, Type (0, 0), BuildingBlock: TEMPAE_clean_linker_10, # of connection points: 2
#     Edge 83, Type (0, 0), BuildingBlock: TEMPAE_clean_linker_10, # of connection points: 2
#     Edge 84, Type (0, 0), BuildingBlock: TEMPAE_clean_linker_10, # of connection points: 2
#     Edge 85, Type (0, 0), BuildingBlock: TEMPAE_clean_linker_10, # of connection points: 2
#     Edge 86, Type (0, 0), BuildingBlock: TEMPAE_clean_linker_10, # of connection points: 2
#     Edge 87, Type (0, 0), BuildingBlock: TEMPAE_clean_linker_10, # of connection points: 2
#     Edge 88, Type (0, 0), BuildingBlock: TEMPAE_clean_linker_10, # of connection points: 2
#     Edge 89, Type (0, 0), BuildingBlock: TEMPAE_clean_linker_10, # of connection points: 2
#     Edge 90, Type (0, 0), BuildingBlock: TEMPAE_clean_linker_10, # of connection points: 2
#     Edge 91, Type (0, 0), BuildingBlock: TEMPAE_clean_linker_10, # of connection points: 2
#     Edge 92, Type (0, 0), BuildingBlock: TEMPAE_clean_linker_10, # of connection points: 2
#     Edge 93, Type (0, 0), BuildingBlock: TEMPAE_clean_linker_10, # of connection points: 2
#     Edge 94, Type (0, 0), BuildingBlock: TEMPAE_clean_linker_10, # of connection points: 2
#     Edge 95, Type (0, 0), BuildingBlock: TEMPAE_clean_linker_10, # of connection points: 2
# Relax obj value: 0.006
# Max RMSD: 0.183
# Mean RMSD: 0.183
data_MOF--net-ukj--node1-NAWXER_clean_sbu_0--edge1-TEMPAE_clean_linker_10
_symmetry_space_group_name_H-M    P1
_symmetry_Int_Tables_number       1
_symmetry_cell_setting            triclinic
loop_
_symmetry_equiv_pos_as_xyz
'x, y, z'
_cell_length_a     35.065036
_cell_length_b     55.127863
_cell_length_c     59.189451
_cell_angle_alpha  89.995096
_cell_angle_beta   89.993329
_cell_angle_gamma 89.998499
loop_
_atom_site_label
_atom_site_type_symbol
_atom_site_fract_x
_atom_site_fract_y
_atom_site_fract_z
_atom_type_partial_charge
C0 C 0.15758 0.36183 0.29189 0.0
C1 C 0.15421 0.35643 0.20992 0.0
O2 O 0.17306 0.34222 0.28475 0.0
Zn3 Zn 0.18321 0.32501 0.25283 0.0
O4 O 0.1435 0.37663 0.27775 0.0
Zn5 Zn 0.15608 0.35888 0.25065 0.0
O6 O 0.11818 0.32805 0.25139 0.0
O7 O 0.15416 0.29547 0.25536 0.0
O8 O 0.14203 0.37335 0.22257 0.0
O9 O 0.17019 0.33771 0.2188 0.0
O10 O 0.23772 0.32211 0.25279 0.0
O11 O 0.21786 0.35994 0.24915 0.0
C12 C 0.12137 0.30497 0.25335 0.0
C13 C 0.24519 0.34449 0.25037 0.0
C14 C 0.10314 0.89225 0.29185 0.0
C15 C 0.10619 0.89413 0.20978 0.0
O16 O 0.08673 0.9113 0.28403 0.0
Zn17 Zn 0.07661 0.92715 0.25117 0.0
O18 O 0.11812 0.87719 0.27828 0.0
Zn19 Zn 0.1045 0.89342 0.25077 0.0
O20 O 0.14176 0.92456 0.2505 0.0
O21 O 0.1051 0.95702 0.25271 0.0
O22 O 0.1182 0.87769 0.22302 0.0
O23 O 0.09031 0.91317 0.218 0.0
O24 O 0.02203 0.92956 0.24976 0.0
O25 O 0.04272 0.89171 0.25088 0.0
C26 C 0.13812 0.94768 0.25145 0.0
C27 C 0.01506 0.90697 0.25028 0.0
C28 C 0.15694 0.89208 0.95988 0.0
C29 C 0.15389 0.89402 0.04196 0.0
O30 O 0.17345 0.9111 0.96769 0.0
Zn31 Zn 0.18373 0.92692 1.00052 0.0
O32 O 0.14196 0.87705 0.97348 0.0
Zn33 Zn 0.15565 0.89328 1.00098 0.0
O34 O 0.1186 0.92453 0.00125 0.0
O35 O 0.15552 0.95687 0.99897 0.0
O36 O 0.14177 0.87761 0.02873 0.0
O37 O 0.16992 0.91301 0.03372 0.0
O38 O 0.2383 0.9292 0.00192 0.0
O39 O 0.21742 0.8914 1.001 0.0
C40 C 0.12244 0.94764 1.00027 0.0
C41 C 0.24517 0.9066 0.00156 0.0
C42 C 0.13723 0.30182 1.00006 0.0
C43 C 0.01502 0.34358 0.00144 0.0
O44 O 0.14127 0.32491 1.00108 0.0
Zn45 Zn 0.1047 0.35634 1.00093 0.0
O46 O 0.10406 0.2927 0.99876 0.0
Zn47 Zn 0.07615 0.32281 1.00043 0.0
O48 O 0.08664 0.33868 0.96763 0.0
O49 O 0.11866 0.37253 0.97344 0.0
O50 O 0.02149 0.32093 0.00191 0.0
O51 O 0.04301 0.35858 1.00085 0.0
O52 O 0.11886 0.37175 0.02877 0.0
O53 O 0.0904 0.33644 0.03363 0.0
C54 C 0.10342 0.35761 0.95983 0.0
C55 C 0.10674 0.35528 0.04193 0.0
C56 C 0.85789 0.64686 0.79199 0.0
C57 C 0.85208 0.64273 0.70996 0.0
O58 O 0.87121 0.63067 0.77893 0.0
Zn59 Zn 0.85466 0.64491 0.75098 0.0
O60 O 0.84013 0.6651 0.78355 0.0
Zn61 Zn 0.82562 0.67823 0.75024 0.0
O62 O 0.77098 0.67984 0.75071 0.0
O63 O 0.79299 0.64237 0.75291 0.0
O64 O 0.83621 0.66206 0.71757 0.0
O65 O 0.86666 0.62768 0.7237 0.0
O66 O 0.89076 0.67651 0.74851 0.0
O67 O 0.85292 0.70851 0.74916 0.0
C68 C 0.7648 0.65723 0.75237 0.0
C69 C 0.88626 0.6996 0.74824 0.0
C70 C 0.87465 0.04992 0.75052 0.0
C71 C 0.9967 0.09178 0.75285 0.0
O72 O 0.90788 0.04087 0.75152 0.0
Zn73 Zn 0.93558 0.07102 0.75148 0.0
O74 O 0.87046 0.07303 0.75011 0.0
Zn75 Zn 0.907 0.10451 0.7514 0.0
O76 O 0.89474 0.1208 0.7237 0.0
O77 O 0.92452 0.08603 0.71838 0.0
O78 O 0.96868 0.10678 0.75305 0.0
O79 O 0.99024 0.06915 0.75177 0.0
O80 O 0.92177 0.08542 0.78445 0.0
O81 O 0.89112 0.11986 0.77896 0.0
C82 C 0.9087 0.10516 0.71031 0.0
C83 C 0.90447 0.10408 0.79243 0.0
C84 C 0.85335 0.10995 0.04252 0.0
C85 C 0.85857 0.10635 0.96048 0.0
O86 O 0.86765 0.12512 0.02879 0.0
Zn87 Zn 0.85584 0.10793 0.00147 0.0
O88 O 0.83775 0.09054 0.03488 0.0
Zn89 Zn 0.8273 0.07446 0.00218 0.0
O90 O 0.85497 0.04435 0.00302 0.0
O91 O 0.89246 0.07651 0.00366 0.0
O92 O 0.84122 0.08792 0.96888 0.0
O93 O 0.8719 0.12249 0.97358 0.0
O94 O 0.7941 0.11005 0.99955 0.0
O95 O 0.77274 0.07241 0.00182 0.0
C96 C 0.88821 0.0534 0.00383 0.0
C97 C 0.76619 0.09498 1.00011 0.0
C98 C 0.90308 0.64564 0.96032 0.0
C99 C 0.90682 0.63899 0.04225 0.0
O100 O 0.89055 0.62867 0.9728 0.0
Zn101 Zn 0.90505 0.64258 1.00106 0.0
O102 O 0.91948 0.66409 0.96942 0.0
Zn103 Zn 0.93294 0.67618 0.00357 0.0
O104 O 0.98756 0.67857 0.00348 0.0
O105 O 0.9668 0.64099 0.99943 0.0
O106 O 0.92262 0.65858 0.03531 0.0
O107 O 0.89235 0.62451 0.02797 0.0
O108 O 0.86778 0.67372 0.00242 0.0
O109 O 0.90449 0.70593 0.00657 0.0
C110 C 0.9945 0.65616 1.00078 0.0
C111 C 0.87145 0.69675 0.00466 0.0
C112 C 0.12108 0.80483 0.75156 0.0
C113 C 0.24419 0.84545 0.75041 0.0
O114 O 0.11749 0.82795 0.75055 0.0
Zn115 Zn 0.15478 0.85906 0.75084 0.0
O116 O 0.15407 0.79546 0.75291 0.0
Zn117 Zn 0.18263 0.8253 0.75135 0.0
O118 O 0.1725 0.84122 0.78414 0.0
O119 O 0.14114 0.87533 0.77835 0.0
O120 O 0.2372 0.82286 0.74996 0.0
O121 O 0.21656 0.86072 0.75098 0.0
O122 O 0.14127 0.87473 0.723 0.0
O123 O 0.16914 0.83922 0.71816 0.0
C124 C 0.15611 0.86029 0.79194 0.0
C125 C 0.15336 0.85825 0.70984 0.0
C126 C 0.10876 0.3927 0.70985 0.0
C127 C 0.10401 0.38958 0.7919 0.0
O128 O 0.09149 0.41118 0.71818 0.0
Zn129 Zn 0.07784 0.42486 0.75143 0.0
O130 O 0.12212 0.37661 0.723 0.0
Zn131 Zn 0.10625 0.39134 0.75085 0.0
O132 O 0.04448 0.3893 0.74915 0.0
O133 O 0.02329 0.42699 0.75119 0.0
O134 O 0.11818 0.3743 0.77823 0.0
O135 O 0.08844 0.40896 0.78419 0.0
O136 O 0.10569 0.45493 0.75208 0.0
O137 O 0.14301 0.4227 0.7528 0.0
C138 C 0.01662 0.40442 0.74969 0.0
C139 C 0.1389 0.44582 0.75287 0.0
C140 C 0.15488 0.39505 0.54185 0.0
C141 C 0.15734 0.39434 0.45969 0.0
O142 O 0.17083 0.41415 0.53378 0.0
Zn143 Zn 0.18458 0.42849 0.50074 0.0
O144 O 0.14273 0.3788 0.52846 0.0
Zn145 Zn 0.1564 0.39484 0.50082 0.0
O146 O 0.21813 0.39287 0.50064 0.0
O147 O 0.23925 0.4306 0.5021 0.0
O148 O 0.14244 0.37909 0.47312 0.0
O149 O 0.17401 0.41319 0.46773 0.0
O150 O 0.15635 0.45849 0.49959 0.0
O151 O 0.11944 0.42611 0.5015 0.0
C152 C 0.24597 0.40798 0.50139 0.0
C153 C 0.12326 0.44923 0.50078 0.0
C154 C 0.10303 0.86043 0.45978 0.0
C155 C 0.10807 0.85777 0.54179 0.0
O156 O 0.08747 0.84108 0.46757 0.0
Zn157 Zn 0.07701 0.82533 0.50043 0.0
O158 O 0.11724 0.87576 0.47339 0.0
Zn159 Zn 0.10541 0.85883 0.50081 0.0
O160 O 0.14218 0.82745 0.49893 0.0
O161 O 0.10481 0.79525 0.49989 0.0
O162 O 0.12137 0.87376 0.52851 0.0
O163 O 0.09081 0.83921 0.5336 0.0
O164 O 0.02247 0.8232 0.50081 0.0
O165 O 0.04366 0.86089 0.50264 0.0
C166 C 0.13802 0.80434 0.49898 0.0
C167 C 0.01579 0.84577 0.50225 0.0
C168 C 0.85282 0.14283 0.2103 0.0
C169 C 0.85847 0.14627 0.29231 0.0
O170 O 0.86731 0.12769 0.22399 0.0
Zn171 Zn 0.85528 0.14474 0.25134 0.0
O172 O 0.83695 0.16213 0.21799 0.0
Zn173 Zn 0.8263 0.17804 0.25078 0.0
O174 O 0.85353 0.20832 0.24994 0.0
O175 O 0.89144 0.17636 0.24919 0.0
O176 O 0.84074 0.16461 0.28403 0.0
O177 O 0.8718 0.13021 0.27913 0.0
O178 O 0.7936 0.14222 0.25333 0.0
O179 O 0.77171 0.17973 0.25125 0.0
C180 C 0.8869 0.19945 0.24908 0.0
C181 C 0.76546 0.15713 0.25287 0.0
C182 C 0.90669 0.60525 0.20989 0.0
C183 C 0.90437 0.60464 0.29206 0.0
O184 O 0.89136 0.62032 0.22332 0.0
Zn185 Zn 0.90584 0.60479 0.25104 0.0
O186 O 0.92395 0.58662 0.21793 0.0
Zn187 Zn 0.93503 0.57151 0.25099 0.0
O188 O 0.90774 0.54114 0.24991 0.0
O189 O 0.86985 0.57306 0.25181 0.0
O190 O 0.92093 0.58574 0.28402 0.0
O191 O 0.89167 0.6207 0.27865 0.0
O192 O 0.96753 0.60753 0.25082 0.0
O193 O 0.98973 0.57006 0.25233 0.0
C194 C 0.87439 0.54999 0.25114 0.0
C195 C 0.9958 0.59274 0.25157 0.0
C196 C 0.88759 0.55376 0.50347 0.0
C197 C 0.76514 0.59501 0.49972 0.0
O198 O 0.85444 0.54457 0.50254 0.0
Zn199 Zn 0.82644 0.57459 0.50169 0.0
O200 O 0.89157 0.57689 0.50333 0.0
Zn201 Zn 0.85471 0.60817 0.50108 0.0
O202 O 0.8664 0.62534 0.52843 0.0
O203 O 0.83679 0.59064 0.53444 0.0
O204 O 0.79299 0.61013 0.49923 0.0
O205 O 0.77184 0.57245 0.5013 0.0
O206 O 0.84038 0.58812 0.46843 0.0
O207 O 0.87072 0.62279 0.47319 0.0
C208 C 0.85224 0.61007 0.54213 0.0
C209 C 0.8576 0.6066 0.46006 0.0
C210 C 0.9946 0.15566 0.50108 0.0
C211 C 0.87027 0.19466 0.50452 0.0
O212 O 0.98701 0.178 0.50371 0.0
Zn213 Zn 0.93246 0.17493 0.50376 0.0
O214 O 0.96736 0.14016 0.49975 0.0
Zn215 Zn 0.9056 0.14095 0.50128 0.0
O216 O 0.89171 0.12677 0.47301 0.0
O217 O 0.91957 0.16255 0.46965 0.0
O218 O 0.86739 0.17159 0.50236 0.0
O219 O 0.90296 0.2043 0.50657 0.0
O220 O 0.92265 0.15732 0.53549 0.0
O221 O 0.8933 0.12288 0.52828 0.0
C222 C 0.9038 0.14389 0.46055 0.0
C223 C 0.90739 0.13758 0.5425 0.0
C224 C 0.65721 0.3608 0.79168 0.0
C225 C 0.65533 0.35637 0.70968 0.0
O226 O 0.67281 0.34126 0.78447 0.0
Zn227 Zn 0.68342 0.32437 0.75244 0.0
O228 O 0.64333 0.37572 0.7776 0.0
Zn229 Zn 0.65625 0.35823 0.75043 0.0
O230 O 0.61831 0.32738 0.75076 0.0
O231 O 0.65433 0.2948 0.75455 0.0
O232 O 0.64278 0.37308 0.72245 0.0
O233 O 0.67107 0.33751 0.71846 0.0
O234 O 0.73796 0.32147 0.75269 0.0
O235 O 0.71806 0.35932 0.74926 0.0
C236 C 0.62152 0.30428 0.75254 0.0
C237 C 0.74541 0.34388 0.75047 0.0
C238 C 0.60774 0.89325 0.71076 0.0
C239 C 0.60305 0.88835 0.79274 0.0
O240 O 0.59184 0.91201 0.7195 0.0
Zn241 Zn 0.57766 0.9248 0.75298 0.0
O242 O 0.61933 0.87626 0.72352 0.0
Zn243 Zn 0.60527 0.89097 0.75171 0.0
O244 O 0.54351 0.8895 0.75145 0.0
O245 O 0.52311 0.92743 0.7513 0.0
O246 O 0.61823 0.87372 0.77883 0.0
O247 O 0.58702 0.90773 0.78537 0.0
O248 O 0.60645 0.95449 0.75559 0.0
O249 O 0.64277 0.92195 0.75254 0.0
C250 C 0.51599 0.90486 0.75114 0.0
C251 C 0.63937 0.94504 0.75416 0.0
C252 C 0.65366 0.89444 0.54259 0.0
C253 C 0.65741 0.8886 0.46069 0.0
O254 O 0.66964 0.91314 0.53368 0.0
Zn255 Zn 0.68266 0.92572 0.49959 0.0
O256 O 0.64146 0.8775 0.52996 0.0
Zn257 Zn 0.65553 0.89189 0.50188 0.0
O258 O 0.71733 0.89086 0.50341 0.0
O259 O 0.73716 0.92869 0.49964 0.0
O260 O 0.64314 0.87393 0.47487 0.0
O261 O 0.6728 0.90827 0.46774 0.0
O262 O 0.65357 0.95523 0.49686 0.0
O263 O 0.61755 0.9227 0.50096 0.0
C264 C 0.74464 0.90633 0.50214 0.0
C265 C 0.62077 0.94577 0.49888 0.0
C266 C 0.60911 0.35531 0.54171 0.0
C267 C 0.60289 0.35572 0.45967 0.0
O268 O 0.5913 0.33677 0.53401 0.0
Zn269 Zn 0.57572 0.32238 0.50165 0.0
O270 O 0.62219 0.37096 0.52803 0.0
Zn271 Zn 0.60562 0.35539 0.50052 0.0
O272 O 0.54399 0.35868 0.50112 0.0
O273 O 0.52109 0.32144 0.50372 0.0
O274 O 0.61853 0.37099 0.47279 0.0
O275 O 0.58604 0.33704 0.46803 0.0
O276 O 0.60232 0.29178 0.50161 0.0
O277 O 0.64084 0.32334 0.49921 0.0
C278 C 0.51545 0.34415 0.50254 0.0
C279 C 0.63583 0.30031 0.50001 0.0
C280 C 0.35742 0.64575 0.29163 0.0
C281 C 0.35311 0.64249 0.20952 0.0
O282 O 0.36958 0.62917 0.27858 0.0
Zn283 Zn 0.355 0.64421 0.2506 0.0
O284 O 0.34087 0.66444 0.28319 0.0
Zn285 Zn 0.32619 0.67767 0.24993 0.0
O286 O 0.2715 0.6794 0.25161 0.0
O287 O 0.29331 0.64181 0.25075 0.0
O288 O 0.33633 0.66146 0.21724 0.0
O289 O 0.36866 0.62774 0.22318 0.0
O290 O 0.39138 0.67572 0.25016 0.0
O291 O 0.35395 0.70782 0.24781 0.0
C292 C 0.2652 0.65673 0.25132 0.0
C293 C 0.38721 0.6988 0.24894 0.0
C294 C 0.3736 0.05237 0.24859 0.0
C295 C 0.49592 0.09367 0.2526 0.0
O296 O 0.40677 0.04321 0.24956 0.0
Zn297 Zn 0.43468 0.07325 0.25041 0.0
O298 O 0.36954 0.07549 0.2487 0.0
Zn299 Zn 0.40634 0.1068 0.25096 0.0
O300 O 0.3948 0.12396 0.2236 0.0
O301 O 0.42451 0.08929 0.21763 0.0
O302 O 0.46805 0.10878 0.25303 0.0
O303 O 0.48927 0.07111 0.25093 0.0
O304 O 0.42054 0.08682 0.28364 0.0
O305 O 0.39015 0.12146 0.27877 0.0
C306 C 0.40906 0.10872 0.20993 0.0
C307 C 0.40324 0.10531 0.29194 0.0
C308 C 0.35319 0.10854 0.54212 0.0
C309 C 0.35756 0.10536 0.46008 0.0
O310 O 0.36757 0.12369 0.52839 0.0
Zn311 Zn 0.35519 0.1067 0.50108 0.0
O312 O 0.33724 0.08926 0.53446 0.0
Zn313 Zn 0.32626 0.07339 0.50171 0.0
O314 O 0.35355 0.04312 0.50234 0.0
O315 O 0.39145 0.07508 0.50296 0.0
O316 O 0.34008 0.08696 0.46842 0.0
O317 O 0.37112 0.12137 0.47323 0.0
O318 O 0.29345 0.10918 0.49947 0.0
O319 O 0.27167 0.07164 0.50151 0.0
C320 C 0.38693 0.05199 0.50305 0.0
C321 C 0.26534 0.09425 0.50003 0.0
C322 C 0.40622 0.64179 0.54187 0.0
C323 C 0.40393 0.64604 0.45977 0.0
O324 O 0.39197 0.62691 0.52787 0.0
Zn325 Zn 0.40535 0.64409 0.50056 0.0
O326 O 0.42237 0.6611 0.53453 0.0
Zn327 Zn 0.43345 0.67768 0.50243 0.0
O328 O 0.40521 0.7076 0.50451 0.0
O329 O 0.36836 0.67536 0.50087 0.0
O330 O 0.42036 0.66468 0.46851 0.0
O331 O 0.39113 0.62943 0.47257 0.0
O332 O 0.46709 0.64225 0.49928 0.0
O333 O 0.48809 0.67987 0.50259 0.0
C334 C 0.37217 0.69843 0.50257 0.0
C335 C 0.49488 0.65737 0.50042 0.0
C336 C 0.6562 0.85822 0.29262 0.0
C337 C 0.65227 0.86072 0.21052 0.0
O338 O 0.67231 0.8395 0.28384 0.0
Zn339 Zn 0.6826 0.82573 0.24992 0.0
O340 O 0.64162 0.87423 0.27984 0.0
Zn341 Zn 0.65424 0.85926 0.25174 0.0
O342 O 0.61744 0.8279 0.25208 0.0
O343 O 0.6545 0.79572 0.2489 0.0
O344 O 0.6392 0.87607 0.2245 0.0
O345 O 0.66887 0.84158 0.21788 0.0
O346 O 0.73716 0.8237 0.24826 0.0
O347 O 0.71604 0.8613 0.25156 0.0
C348 C 0.62139 0.80482 0.25068 0.0
C349 C 0.74387 0.84625 0.24996 0.0
C350 C 0.60334 0.3876 0.29176 0.0
C351 C 0.60906 0.39185 0.2098 0.0
O352 O 0.58833 0.40726 0.28425 0.0
Zn353 Zn 0.57858 0.42379 0.25164 0.0
O354 O 0.61745 0.37246 0.27793 0.0
Zn355 Zn 0.60628 0.39007 0.25078 0.0
O356 O 0.64375 0.42107 0.25326 0.0
O357 O 0.60703 0.45358 0.25274 0.0
O358 O 0.62199 0.37552 0.22284 0.0
O359 O 0.59217 0.4104 0.21827 0.0
O360 O 0.52409 0.42645 0.25122 0.0
O361 O 0.54447 0.3886 0.24887 0.0
C362 C 0.64006 0.44422 0.25357 0.0
C363 C 0.51693 0.40396 0.24947 0.0
C364 C 0.65396 0.39355 0.04169 0.0
C365 C 0.65611 0.39286 0.95954 0.0
O366 O 0.67009 0.41257 0.03359 0.0
Zn367 Zn 0.68373 0.4269 1.00056 0.0
O368 O 0.6415 0.37736 0.02833 0.0
Zn369 Zn 0.65523 0.39334 1.00068 0.0
O370 O 0.71695 0.39116 1.00042 0.0
O371 O 0.73838 0.42883 0.00185 0.0
O372 O 0.64104 0.37766 0.97296 0.0
O373 O 0.67297 0.41164 0.96758 0.0
O374 O 0.65571 0.45699 0.99947 0.0
O375 O 0.61858 0.42472 0.00146 0.0
C376 C 0.74491 0.40619 1.00113 0.0
C377 C 0.62258 0.44782 1.00076 0.0
C378 C 0.60775 0.85991 0.04286 0.0
C379 C 0.60378 0.85752 0.9608 0.0
O380 O 0.59104 0.84078 0.03553 0.0
Zn381 Zn 0.57725 0.82496 0.00345 0.0
O382 O 0.62093 0.87517 0.02883 0.0
Zn383 Zn 0.60588 0.85834 0.00165 0.0
O384 O 0.54407 0.86057 0.00173 0.0
O385 O 0.52271 0.82304 0.00512 0.0
O386 O 0.61862 0.87337 0.97364 0.0
O387 O 0.58753 0.83881 0.9695 0.0
O388 O 0.60501 0.79484 0.00443 0.0
O389 O 0.64247 0.82683 0.00133 0.0
C390 C 0.51615 0.8456 0.00334 0.0
C391 C 0.63824 0.80376 0.00271 0.0
C392 C 0.26594 0.15586 0.75219 0.0
C393 C 0.38735 0.19832 0.74872 0.0
O394 O 0.27209 0.17848 0.75054 0.0
Zn395 Zn 0.32673 0.17683 0.75027 0.0
O396 O 0.29413 0.141 0.75275 0.0
Zn397 Zn 0.35583 0.14357 0.75088 0.0
O398 O 0.37207 0.12898 0.77868 0.0
O399 O 0.34076 0.16329 0.78355 0.0
O400 O 0.39195 0.17523 0.74881 0.0
O401 O 0.35396 0.20714 0.74956 0.0
O402 O 0.33757 0.16094 0.71751 0.0
O403 O 0.36801 0.12654 0.72355 0.0
C404 C 0.35842 0.14493 0.79186 0.0
C405 C 0.35352 0.14166 0.70984 0.0
C406 C 0.40446 0.60403 0.79165 0.0
C407 C 0.40679 0.6083 0.70956 0.0
O408 O 0.3916 0.62063 0.77885 0.0
Zn409 Zn 0.40598 0.60602 0.75087 0.0
O410 O 0.42104 0.58544 0.78291 0.0
Zn411 Zn 0.43431 0.5725 0.74899 0.0
O412 O 0.489 0.5705 0.74887 0.0
O413 O 0.46767 0.60803 0.75223 0.0
O414 O 0.42308 0.58904 0.71689 0.0
O415 O 0.39248 0.62315 0.72357 0.0
O416 O 0.36922 0.57465 0.7506 0.0
O417 O 0.40625 0.5425 0.74691 0.0
C418 C 0.4956 0.59302 0.7511 0.0
C419 C 0.37316 0.5516 0.74889 0.0
C420 C 0.35184 0.60917 0.0418 0.0
C421 C 0.3578 0.60465 0.9598 0.0
O422 O 0.366 0.6243 0.02797 0.0
Zn423 Zn 0.35436 0.60683 1.00078 0.0
O424 O 0.33637 0.58966 0.03428 0.0
Zn425 Zn 0.32603 0.57328 0.00169 0.0
O426 O 0.3539 0.54323 0.00293 0.0
O427 O 0.39111 0.57552 0.00339 0.0
O428 O 0.34041 0.5863 0.96832 0.0
O429 O 0.37067 0.62105 0.97279 0.0
O430 O 0.29267 0.60886 0.9988 0.0
O431 O 0.27142 0.57123 1.00119 0.0
C432 C 0.38706 0.5524 0.00378 0.0
C433 C 0.26477 0.59378 0.9994 0.0
C434 C 0.40889 0.14116 0.04208 0.0
C435 C 0.40351 0.14457 0.96004 0.0
O436 O 0.39488 0.12584 0.02839 0.0
Zn437 Zn 0.40634 0.14306 1.00104 0.0
O438 O 0.4241 0.16067 0.03439 0.0
Zn439 Zn 0.43419 0.17678 0.00165 0.0
O440 O 0.40583 0.20664 0.00246 0.0
O441 O 0.36907 0.17414 0.00319 0.0
O442 O 0.42045 0.16315 0.9684 0.0
O443 O 0.3906 0.12831 0.97316 0.0
O444 O 0.46809 0.14146 0.99914 0.0
O445 O 0.48872 0.17926 1.0012 0.0
C446 C 0.37279 0.19728 0.00331 0.0
C447 C 0.49573 0.15674 0.9996 0.0
C448 C 0.16868 0.34217 0.17072 0.0
C449 C 0.14867 0.35781 0.18517 0.0
C450 C 0.16256 0.34267 0.14729 0.0
C451 C 0.13535 0.35892 0.13815 0.0
C452 C 0.1153 0.37488 0.15262 0.0
C453 C 0.12242 0.37426 0.17595 0.0
C454 C 0.18489 0.32561 0.13234 0.0
C455 C 0.0857 0.39222 0.14354 0.0
C456 C 0.13972 0.37338 0.07543 0.0
C457 C 0.11277 0.35713 0.06661 0.0
C458 C 0.14733 0.37421 0.0987 0.0
C459 C 0.12708 0.3587 0.11351 0.0
C460 C 0.09922 0.34266 0.10476 0.0
C461 C 0.09261 0.34194 0.0814 0.0
C462 C 0.17758 0.39133 0.1074 0.0
C463 C 0.07662 0.3261 0.12007 0.0
H464 H 0.18916 0.32951 0.17772 0.0
H465 H 0.10669 0.38631 0.18703 0.0
H466 H 0.16516 0.31283 0.1238 0.0
H467 H 0.19986 0.33598 0.11894 0.0
H468 H 0.20629 0.31493 0.14196 0.0
H469 H 0.07313 0.40378 0.15699 0.0
H470 H 0.09853 0.40416 0.1305 0.0
H471 H 0.06241 0.38188 0.13526 0.0
H472 H 0.15558 0.38506 0.06407 0.0
H473 H 0.07161 0.32943 0.07471 0.0
H474 H 0.20054 0.38086 0.11584 0.0
H475 H 0.16521 0.40373 0.12021 0.0
H476 H 0.19046 0.4024 0.09369 0.0
H477 H 0.09613 0.31335 0.12882 0.0
H478 H 0.05498 0.31538 0.11068 0.0
H479 H 0.06191 0.33688 0.13328 0.0
C480 C 0.1684 0.90703 0.08147 0.0
C481 C 0.14824 0.89188 0.06665 0.0
C482 C 0.162 0.90611 0.10484 0.0
C483 C 0.13437 0.8899 0.11358 0.0
C484 C 0.11428 0.87433 0.09875 0.0
C485 C 0.12166 0.87537 0.07546 0.0
C486 C 0.1844 0.92276 0.12016 0.0
C487 C 0.08426 0.85703 0.10743 0.0
C488 C 0.13822 0.87534 0.17628 0.0
C489 C 0.1118 0.89195 0.18509 0.0
C490 C 0.14559 0.87427 0.15299 0.0
C491 C 0.12564 0.88992 0.13816 0.0
C492 C 0.09815 0.90622 0.14689 0.0
C493 C 0.09177 0.90717 0.17027 0.0
C494 C 0.17544 0.85686 0.14431 0.0
C495 C 0.0759 0.92296 0.13158 0.0
H496 H 0.18915 0.91971 0.07478 0.0
H497 H 0.10585 0.8637 0.06409 0.0
H498 H 0.16478 0.93563 0.12867 0.0
H499 H 0.19882 0.91208 0.13356 0.0
H500 H 0.20627 0.93335 0.11082 0.0
H501 H 0.07199 0.84563 0.09377 0.0
H502 H 0.09658 0.84497 0.12053 0.0
H503 H 0.06084 0.86742 0.11551 0.0
H504 H 0.15394 0.86362 0.18766 0.0
H505 H 0.07114 0.91993 0.17695 0.0
H506 H 0.19897 0.86716 0.13623 0.0
H507 H 0.16302 0.84484 0.13121 0.0
H508 H 0.18761 0.84541 0.15797 0.0
H509 H 0.09565 0.93576 0.12307 0.0
H510 H 0.05413 0.93363 0.14091 0.0
H511 H 0.0614 0.91233 0.11817 0.0
C512 C 0.84291 0.66017 0.83137 0.0
C513 C 0.86384 0.64527 0.8167 0.0
C514 C 0.84917 0.65956 0.85478 0.0
C515 C 0.87741 0.64392 0.86371 0.0
C516 C 0.8985 0.62872 0.84902 0.0
C517 C 0.89127 0.62945 0.82569 0.0
C518 C 0.82571 0.67578 0.86994 0.0
C519 C 0.92914 0.61201 0.8579 0.0
C520 C 0.91744 0.66055 0.9213 0.0
C521 C 0.8977 0.64455 0.93553 0.0
C522 C 0.91167 0.66021 0.89783 0.0
C523 C 0.88512 0.6437 0.88842 0.0
C524 C 0.8653 0.6274 0.90268 0.0
C525 C 0.87202 0.62791 0.92604 0.0
C526 C 0.93372 0.67766 0.88313 0.0
C527 C 0.83643 0.60974 0.89329 0.0
H528 H 0.82154 0.67235 0.82456 0.0
H529 H 0.9077 0.61799 0.81444 0.0
H530 H 0.81096 0.66476 0.88296 0.0
H531 H 0.84462 0.6887 0.87894 0.0
H532 H 0.80401 0.68631 0.8604 0.0
H533 H 0.9428 0.60123 0.84426 0.0
H534 H 0.95148 0.62275 0.86662 0.0
H535 H 0.91689 0.59934 0.87052 0.0
H536 H 0.93748 0.67338 0.92849 0.0
H537 H 0.8565 0.61556 0.93694 0.0
H538 H 0.91372 0.69016 0.87443 0.0
H539 H 0.94943 0.66756 0.86985 0.0
H540 H 0.95444 0.68864 0.89297 0.0
H541 H 0.81307 0.61982 0.88481 0.0
H542 H 0.82384 0.59801 0.90662 0.0
H543 H 0.84995 0.59798 0.88037 0.0
C544 C 0.89073 0.12448 0.92667 0.0
C545 C 0.86405 0.1082 0.93574 0.0
C546 C 0.8978 0.12529 0.90333 0.0
C547 C 0.87733 0.10968 0.88872 0.0
C548 C 0.84962 0.09369 0.89771 0.0
C549 C 0.84349 0.09304 0.92112 0.0
C550 C 0.92784 0.1424 0.89437 0.0
C551 C 0.82688 0.07697 0.88264 0.0
C552 C 0.87279 0.12336 0.82584 0.0
C553 C 0.89906 0.1066 0.81713 0.0
C554 C 0.86576 0.12481 0.84916 0.0
C555 C 0.88581 0.10934 0.8641 0.0
C556 C 0.91311 0.09286 0.85545 0.0
C557 C 0.91923 0.09158 0.83206 0.0
C558 C 0.83617 0.14245 0.85776 0.0
C559 C 0.9354 0.07626 0.87088 0.0
H560 H 0.90683 0.13619 0.93788 0.0
H561 H 0.82264 0.08053 0.92799 0.0
H562 H 0.95112 0.13186 0.88632 0.0
H563 H 0.91548 0.15434 0.88118 0.0
H564 H 0.94031 0.15394 0.90787 0.0
H565 H 0.80505 0.06654 0.89216 0.0
H566 H 0.81238 0.08757 0.86922 0.0
H567 H 0.8463 0.06396 0.87415 0.0
H568 H 0.85699 0.13496 0.8144 0.0
H569 H 0.93976 0.07869 0.82547 0.0
H570 H 0.84886 0.15457 0.87069 0.0
H571 H 0.81262 0.13235 0.86603 0.0
H572 H 0.824 0.15379 0.84402 0.0
H573 H 0.95017 0.08701 0.88408 0.0
H574 H 0.95695 0.06537 0.86158 0.0
H575 H 0.91564 0.06366 0.87963 0.0
C576 C 0.16794 0.84488 0.67046 0.0
C577 C 0.14808 0.86036 0.68512 0.0
C578 C 0.16189 0.84575 0.64705 0.0
C579 C 0.13492 0.86227 0.63812 0.0
C580 C 0.11515 0.8782 0.65278 0.0
C581 C 0.12216 0.87717 0.67611 0.0
C582 C 0.18391 0.82869 0.63193 0.0
C583 C 0.08588 0.89586 0.64387 0.0
C584 C 0.14036 0.87627 0.57535 0.0
C585 C 0.11347 0.85999 0.5665 0.0
C586 C 0.14733 0.87745 0.59868 0.0
C587 C 0.12655 0.86223 0.6135 0.0
C588 C 0.09863 0.84626 0.60471 0.0
C589 C 0.09262 0.84521 0.5813 0.0
C590 C 0.17762 0.8945 0.60742 0.0
C591 C 0.07554 0.82997 0.62001 0.0
H592 H 0.18819 0.83195 0.67729 0.0
H593 H 0.10658 0.88911 0.68736 0.0
H594 H 0.16395 0.81607 0.62337 0.0
H595 H 0.1989 0.83909 0.61856 0.0
H596 H 0.20525 0.81783 0.64142 0.0
H597 H 0.07384 0.90753 0.65741 0.0
H598 H 0.09879 0.90766 0.63076 0.0
H599 H 0.06219 0.88577 0.63574 0.0
H600 H 0.15668 0.88767 0.56399 0.0
H601 H 0.07161 0.83271 0.5746 0.0
H602 H 0.20067 0.88394 0.61568 0.0
H603 H 0.1654 0.90677 0.62039 0.0
H604 H 0.19038 0.9057 0.59376 0.0
H605 H 0.09468 0.81695 0.62871 0.0
H606 H 0.05354 0.81954 0.61062 0.0
H607 H 0.0612 0.8409 0.63326 0.0
C608 C 0.12456 0.37503 0.57533 0.0
C609 C 0.14948 0.39257 0.56655 0.0
C610 C 0.11748 0.37354 0.59864 0.0
C611 C 0.13611 0.38979 0.61351 0.0
C612 C 0.16204 0.40711 0.6048 0.0
C613 C 0.16824 0.40838 0.58142 0.0
C614 C 0.08935 0.355 0.60731 0.0
C615 C 0.1828 0.42456 0.62015 0.0
C616 C 0.09249 0.40512 0.67042 0.0
C617 C 0.11422 0.39075 0.68513 0.0
C618 C 0.09862 0.40445 0.64701 0.0
C619 C 0.12758 0.38932 0.63812 0.0
C620 C 0.14926 0.37449 0.65284 0.0
C621 C 0.14211 0.37524 0.67617 0.0
C622 C 0.07453 0.42027 0.63182 0.0
C623 C 0.1807 0.35836 0.644 0.0
H624 H 0.10985 0.36281 0.56394 0.0
H625 H 0.1877 0.42189 0.57478 0.0
H626 H 0.10297 0.34339 0.62031 0.0
H627 H 0.06498 0.36435 0.61551 0.0
H628 H 0.07816 0.3432 0.59362 0.0
H629 H 0.20344 0.43611 0.61082 0.0
H630 H 0.16196 0.43653 0.62879 0.0
H631 H 0.1984 0.41443 0.63345 0.0
H632 H 0.0707 0.41701 0.67722 0.0
H633 H 0.15913 0.36417 0.68746 0.0
H634 H 0.06103 0.40911 0.61843 0.0
H635 H 0.09282 0.43391 0.6233 0.0
H636 H 0.05178 0.42997 0.64127 0.0
H637 H 0.1694 0.34596 0.63085 0.0
H638 H 0.19405 0.34733 0.65757 0.0
H639 H 0.20312 0.36962 0.63593 0.0
C640 C 0.84328 0.15905 0.33182 0.0
C641 C 0.86437 0.1444 0.31701 0.0
C642 C 0.84952 0.15818 0.35522 0.0
C643 C 0.87791 0.14254 0.36399 0.0
C644 C 0.89914 0.12759 0.34915 0.0
C645 C 0.89191 0.12857 0.32584 0.0
C646 C 0.82592 0.17414 0.37054 0.0
C647 C 0.92995 0.1109 0.35787 0.0
C648 C 0.91802 0.15896 0.42158 0.0
C649 C 0.8985 0.14279 0.43576 0.0
C650 C 0.91217 0.15872 0.39813 0.0
C651 C 0.88577 0.14215 0.38867 0.0
C652 C 0.8662 0.12566 0.40287 0.0
C653 C 0.87301 0.12606 0.42623 0.0
C654 C 0.93396 0.17637 0.38349 0.0
C655 C 0.83749 0.10794 0.39343 0.0
H656 H 0.82181 0.17123 0.32512 0.0
H657 H 0.90846 0.1173 0.31448 0.0
H658 H 0.8114 0.16292 0.38352 0.0
H659 H 0.84471 0.18709 0.37959 0.0
H660 H 0.80402 0.18461 0.36112 0.0
H661 H 0.94361 0.10025 0.34413 0.0
H662 H 0.95227 0.12165 0.3666 0.0
H663 H 0.91788 0.09811 0.37044 0.0
H664 H 0.93791 0.17185 0.42882 0.0
H665 H 0.85766 0.1136 0.43709 0.0
H666 H 0.91379 0.18887 0.37494 0.0
H667 H 0.94966 0.16644 0.37009 0.0
H668 H 0.95467 0.18734 0.39335 0.0
H669 H 0.81393 0.11797 0.3851 0.0
H670 H 0.82516 0.09603 0.4067 0.0
H671 H 0.85105 0.09637 0.38037 0.0
C672 C 0.87252 0.6238 0.32547 0.0
C673 C 0.89888 0.60709 0.31676 0.0
C674 C 0.86534 0.62516 0.34878 0.0
C675 C 0.88538 0.60967 0.36372 0.0
C676 C 0.91278 0.59325 0.35507 0.0
C677 C 0.91901 0.59205 0.33169 0.0
C678 C 0.83561 0.6427 0.35736 0.0
C679 C 0.93508 0.57666 0.3705 0.0
C680 C 0.88987 0.6248 0.42632 0.0
C681 C 0.86322 0.60846 0.43533 0.0
C682 C 0.89708 0.62562 0.40299 0.0
C683 C 0.8768 0.60996 0.38833 0.0
C684 C 0.84913 0.5939 0.39727 0.0
C685 C 0.84286 0.59324 0.42067 0.0
C686 C 0.92709 0.64279 0.39409 0.0
C687 C 0.82657 0.57714 0.38215 0.0
H688 H 0.85674 0.63541 0.31402 0.0
H689 H 0.93959 0.5792 0.32509 0.0
H690 H 0.81209 0.63253 0.36558 0.0
H691 H 0.84816 0.65483 0.37033 0.0
H692 H 0.82342 0.65404 0.34363 0.0
H693 H 0.95674 0.56584 0.36121 0.0
H694 H 0.94973 0.58741 0.38375 0.0
H695 H 0.91535 0.56399 0.37919 0.0
H696 H 0.90582 0.63655 0.43755 0.0
H697 H 0.82204 0.58068 0.42749 0.0
H698 H 0.91471 0.65474 0.38092 0.0
H699 H 0.95043 0.6323 0.38604 0.0
H700 H 0.93948 0.65431 0.40762 0.0
H701 H 0.81207 0.58771 0.3687 0.0
H702 H 0.80475 0.56665 0.39163 0.0
H703 H 0.8461 0.56417 0.37368 0.0
C704 C 0.59423 0.34344 0.58142 0.0
C705 C 0.61539 0.35771 0.56633 0.0
C706 C 0.60101 0.34442 0.60474 0.0
C707 C 0.63001 0.35981 0.61317 0.0
C708 C 0.6512 0.37449 0.59807 0.0
C709 C 0.64344 0.37339 0.5748 0.0
C710 C 0.57742 0.32875 0.62034 0.0
C711 C 0.68261 0.39092 0.60644 0.0
C712 C 0.62583 0.37549 0.67557 0.0
C713 C 0.65063 0.3582 0.68489 0.0
C714 C 0.61936 0.37653 0.6522 0.0
C715 C 0.63852 0.36008 0.63778 0.0
C716 C 0.66444 0.34306 0.647 0.0
C717 C 0.67 0.34221 0.67047 0.0
C718 C 0.59117 0.39474 0.64301 0.0
C719 C 0.68575 0.32541 0.63212 0.0
H720 H 0.57233 0.33139 0.575 0.0
H721 H 0.66003 0.38436 0.56321 0.0
H722 H 0.5961 0.31558 0.62918 0.0
H723 H 0.56363 0.34013 0.63347 0.0
H724 H 0.55492 0.31853 0.61118 0.0
H725 H 0.69587 0.40156 0.59257 0.0
H726 H 0.67127 0.4037 0.61926 0.0
H727 H 0.70509 0.37995 0.61479 0.0
H728 H 0.61066 0.38787 0.68661 0.0
H729 H 0.68941 0.32892 0.67753 0.0
H730 H 0.56689 0.38509 0.63502 0.0
H731 H 0.60477 0.406 0.62973 0.0
H732 H 0.57982 0.40692 0.65637 0.0
H733 H 0.66526 0.31298 0.62376 0.0
H734 H 0.70664 0.31435 0.64177 0.0
H735 H 0.70114 0.33532 0.61859 0.0
C736 C 0.59364 0.90759 0.67161 0.0
C737 C 0.61379 0.89202 0.68605 0.0
C738 C 0.60007 0.90735 0.64822 0.0
C739 C 0.62775 0.89143 0.6391 0.0
C740 C 0.64809 0.8756 0.65357 0.0
C741 C 0.64063 0.87594 0.67687 0.0
C742 C 0.57737 0.92424 0.63328 0.0
C743 C 0.67817 0.8586 0.64448 0.0
C744 C 0.62201 0.87655 0.57657 0.0
C745 C 0.64826 0.89301 0.56734 0.0
C746 C 0.61519 0.87575 0.59991 0.0
C747 C 0.63556 0.89152 0.61441 0.0
C748 C 0.66271 0.90781 0.60526 0.0
C749 C 0.66851 0.9085 0.5818 0.0
C750 C 0.58563 0.85839 0.60901 0.0
C751 C 0.68537 0.92466 0.62024 0.0
H752 H 0.57272 0.91998 0.67858 0.0
H753 H 0.65649 0.86398 0.68797 0.0
H754 H 0.59685 0.93701 0.62453 0.0
H755 H 0.56227 0.9137 0.62005 0.0
H756 H 0.55603 0.93492 0.64294 0.0
H757 H 0.69138 0.84739 0.65798 0.0
H758 H 0.66553 0.84632 0.63166 0.0
H759 H 0.70092 0.86917 0.63594 0.0
H760 H 0.60609 0.86463 0.56548 0.0
H761 H 0.68899 0.92116 0.57479 0.0
H762 H 0.56264 0.86868 0.61762 0.0
H763 H 0.59865 0.8462 0.62176 0.0
H764 H 0.57262 0.8471 0.59551 0.0
H765 H 0.66584 0.93734 0.62906 0.0
H766 H 0.70659 0.93545 0.61058 0.0
H767 H 0.70059 0.9141 0.6334 0.0
C768 C 0.39043 0.62795 0.32529 0.0
C769 C 0.3635 0.64413 0.31633 0.0
C770 C 0.39796 0.62729 0.34858 0.0
C771 C 0.37764 0.64291 0.36327 0.0
C772 C 0.34984 0.65889 0.35438 0.0
C773 C 0.34331 0.65943 0.331 0.0
C774 C 0.42814 0.61022 0.35743 0.0
C775 C 0.32718 0.67557 0.36954 0.0
C776 C 0.37246 0.62788 0.42583 0.0
C777 C 0.39865 0.64441 0.435 0.0
C778 C 0.36558 0.62703 0.40248 0.0
C779 C 0.38578 0.64285 0.38794 0.0
C780 C 0.41294 0.65916 0.39703 0.0
C781 C 0.41884 0.65987 0.42048 0.0
C782 C 0.33605 0.60962 0.39344 0.0
C783 C 0.43541 0.67608 0.38202 0.0
H784 H 0.40631 0.61618 0.31403 0.0
H785 H 0.32231 0.67189 0.3242 0.0
H786 H 0.45106 0.62073 0.36586 0.0
H787 H 0.41569 0.5979 0.37029 0.0
H788 H 0.4411 0.59906 0.34381 0.0
H789 H 0.30563 0.68625 0.36005 0.0
H790 H 0.31235 0.66487 0.38277 0.0
H791 H 0.34667 0.68834 0.37827 0.0
H792 H 0.3566 0.61595 0.43695 0.0
H793 H 0.43928 0.67259 0.42744 0.0
H794 H 0.34896 0.59761 0.3805 0.0
H795 H 0.31279 0.61989 0.38507 0.0
H796 H 0.32342 0.59814 0.40694 0.0
H797 H 0.45042 0.66559 0.36871 0.0
H798 H 0.45679 0.6868 0.39161 0.0
H799 H 0.41577 0.68882 0.37336 0.0
C800 C 0.34237 0.09228 0.42066 0.0
C801 C 0.36295 0.10736 0.43534 0.0
C802 C 0.3484 0.09312 0.39724 0.0
C803 C 0.37601 0.10921 0.38831 0.0
C804 C 0.39653 0.12472 0.40299 0.0
C805 C 0.38957 0.12372 0.42634 0.0
C806 C 0.32561 0.07651 0.38209 0.0
C807 C 0.42647 0.14193 0.3941 0.0
C808 C 0.41779 0.09199 0.33138 0.0
C809 C 0.39761 0.10726 0.31667 0.0
C810 C 0.41163 0.09285 0.35478 0.0
C811 C 0.38429 0.10915 0.36367 0.0
C812 C 0.36415 0.12483 0.34895 0.0
C813 C 0.37123 0.1238 0.32562 0.0
C814 C 0.43401 0.07605 0.36996 0.0
C815 C 0.33451 0.14228 0.3578 0.0
H816 H 0.32158 0.0797 0.42748 0.0
H817 H 0.40569 0.13536 0.43758 0.0
H818 H 0.31095 0.08721 0.3688 0.0
H819 H 0.34501 0.06362 0.37342 0.0
H820 H 0.30391 0.06594 0.39158 0.0
H821 H 0.43911 0.1533 0.40767 0.0
H822 H 0.44966 0.13149 0.38584 0.0
H823 H 0.41396 0.15403 0.3811 0.0
H824 H 0.43839 0.07927 0.3246 0.0
H825 H 0.35543 0.13559 0.31435 0.0
H826 H 0.41431 0.06337 0.37866 0.0
H827 H 0.44894 0.08664 0.38322 0.0
H828 H 0.45546 0.06525 0.36049 0.0
H829 H 0.31114 0.13203 0.3661 0.0
H830 H 0.32207 0.1537 0.34421 0.0
H831 H 0.34724 0.15433 0.37077 0.0
C832 C 0.62104 0.88097 0.17738 0.0
C833 C 0.64744 0.86418 0.18588 0.0
C834 C 0.61419 0.8828 0.15404 0.0
C835 C 0.63453 0.86766 0.13893 0.0
C836 C 0.66227 0.85137 0.14739 0.0
C837 C 0.66823 0.84974 0.17074 0.0
C838 C 0.5842 0.90025 0.14564 0.0
C839 C 0.68486 0.83509 0.13181 0.0
C840 C 0.59212 0.84894 0.0827 0.0
C841 C 0.61252 0.8635 0.06748 0.0
C842 C 0.59798 0.85083 0.10605 0.0
C843 C 0.62521 0.86752 0.11442 0.0
C844 C 0.64515 0.88277 0.09922 0.0
C845 C 0.63842 0.88067 0.07589 0.0
C846 C 0.57585 0.83441 0.12173 0.0
C847 C 0.67459 0.90064 0.10752 0.0
H848 H 0.60485 0.89216 0.18899 0.0
H849 H 0.68895 0.83688 0.17717 0.0
H850 H 0.59607 0.91198 0.13213 0.0
H851 H 0.56014 0.88994 0.13816 0.0
H852 H 0.57288 0.91197 0.15936 0.0
H853 H 0.70724 0.82472 0.14092 0.0
H854 H 0.66541 0.82202 0.12342 0.0
H855 H 0.69866 0.84599 0.11833 0.0
H856 H 0.57179 0.83579 0.07635 0.0
H857 H 0.6543 0.89196 0.06423 0.0
H858 H 0.56173 0.84523 0.13513 0.0
H859 H 0.59566 0.82162 0.1302 0.0
H860 H 0.55379 0.8237 0.11268 0.0
H861 H 0.66233 0.91234 0.12093 0.0
H862 H 0.68559 0.91238 0.09373 0.0
H863 H 0.69893 0.89068 0.1151 0.0
C864 C 0.62239 0.37445 0.07521 0.0
C865 C 0.64871 0.39111 0.06639 0.0
C866 C 0.61542 0.37315 0.09855 0.0
C867 C 0.63565 0.38864 0.11339 0.0
C868 C 0.66301 0.40502 0.10462 0.0
C869 C 0.66902 0.40617 0.08122 0.0
C870 C 0.58571 0.35567 0.10726 0.0
C871 C 0.68552 0.4216 0.11994 0.0
C872 C 0.59393 0.40525 0.17048 0.0
C873 C 0.61442 0.39001 0.18506 0.0
C874 C 0.59988 0.40453 0.14705 0.0
C875 C 0.62735 0.3884 0.13802 0.0
C876 C 0.64777 0.37273 0.1526 0.0
C877 C 0.64087 0.37361 0.17595 0.0
C878 C 0.57718 0.4213 0.13201 0.0
C879 C 0.6776 0.3555 0.1436 0.0
H880 H 0.60647 0.36285 0.06383 0.0
H881 H 0.68958 0.41898 0.07453 0.0
H882 H 0.59835 0.34354 0.1202 0.0
H883 H 0.56232 0.36589 0.11556 0.0
H884 H 0.57332 0.34434 0.09358 0.0
H885 H 0.70711 0.43238 0.11056 0.0
H886 H 0.66592 0.43431 0.12869 0.0
H887 H 0.70029 0.41085 0.13316 0.0
H888 H 0.57326 0.41785 0.17738 0.0
H889 H 0.65691 0.36184 0.18713 0.0
H890 H 0.5625 0.41073 0.11864 0.0
H891 H 0.59664 0.43423 0.12345 0.0
H892 H 0.5555 0.43182 0.14157 0.0
H893 H 0.66501 0.34355 0.1305 0.0
H894 H 0.69013 0.34398 0.15709 0.0
H895 H 0.70087 0.36594 0.13542 0.0
C896 C 0.39072 0.12669 0.82555 0.0
C897 C 0.36382 0.14289 0.81659 0.0
C898 C 0.3976 0.12562 0.84889 0.0
C899 C 0.37673 0.14088 0.86363 0.0
C900 C 0.34884 0.1568 0.85473 0.0
C901 C 0.3429 0.15773 0.83131 0.0
C902 C 0.42786 0.1086 0.85774 0.0
C903 C 0.32567 0.17315 0.86994 0.0
C904 C 0.37203 0.12593 0.92625 0.0
C905 C 0.39804 0.14264 0.9353 0.0
C906 C 0.36505 0.12496 0.9029 0.0
C907 C 0.38492 0.14087 0.88827 0.0
C908 C 0.41191 0.15735 0.89726 0.0
C909 C 0.41797 0.15813 0.92067 0.0
C910 C 0.33579 0.10732 0.89394 0.0
C911 C 0.43401 0.1744 0.88217 0.0
H912 H 0.4071 0.11523 0.81426 0.0
H913 H 0.32188 0.17018 0.82453 0.0
H914 H 0.45081 0.11917 0.86608 0.0
H915 H 0.41554 0.09632 0.87067 0.0
H916 H 0.44077 0.0974 0.84413 0.0
H917 H 0.30379 0.18359 0.86047 0.0
H918 H 0.31117 0.16225 0.88315 0.0
H919 H 0.34478 0.18614 0.87869 0.0
H920 H 0.35642 0.11396 0.93745 0.0
H921 H 0.43829 0.171 0.92752 0.0
H922 H 0.34881 0.09544 0.88093 0.0
H923 H 0.31224 0.11742 0.88568 0.0
H924 H 0.32356 0.09572 0.90748 0.0
H925 H 0.44917 0.164 0.86887 0.0
H926 H 0.45522 0.18532 0.89171 0.0
H927 H 0.41408 0.18697 0.87352 0.0
C928 C 0.41921 0.59013 0.83094 0.0
C929 C 0.39907 0.60562 0.81641 0.0
C930 C 0.41324 0.59081 0.85438 0.0
C931 C 0.38607 0.60712 0.86347 0.0
C932 C 0.3659 0.62295 0.84892 0.0
C933 C 0.37284 0.62213 0.82558 0.0
C934 C 0.43567 0.57388 0.8694 0.0
C935 C 0.33637 0.64038 0.85795 0.0
C936 C 0.34364 0.59078 0.92048 0.0
C937 C 0.36391 0.6061 0.93509 0.0
C938 C 0.35015 0.59122 0.8971 0.0
C939 C 0.378 0.60713 0.88814 0.0
C940 C 0.3984 0.62276 0.90276 0.0
C941 C 0.39092 0.62219 0.92606 0.0
C942 C 0.32744 0.57451 0.882 0.0
C943 C 0.4286 0.63978 0.89384 0.0
H944 H 0.43967 0.57742 0.82398 0.0
H945 H 0.35701 0.63407 0.81445 0.0
H946 H 0.45078 0.58437 0.88265 0.0
H947 H 0.41599 0.5612 0.87811 0.0
H948 H 0.45696 0.56308 0.85979 0.0
H949 H 0.32369 0.6518 0.84444 0.0
H950 H 0.31315 0.63012 0.86638 0.0
H951 H 0.34932 0.65243 0.87085 0.0
H952 H 0.32259 0.57839 0.92732 0.0
H953 H 0.40685 0.63398 0.93726 0.0
H954 H 0.34688 0.56171 0.87326 0.0
H955 H 0.31256 0.58518 0.86877 0.0
H956 H 0.30591 0.56384 0.89154 0.0
H957 H 0.45144 0.62923 0.88537 0.0
H958 H 0.44166 0.65094 0.90742 0.0
H959 H 0.41613 0.65209 0.88099 0.0
C960 C 0.92094 0.23671 0.26181 0.0
C961 C 0.92053 0.21549 0.2488 0.0
C962 C 0.95369 0.25132 0.26287 0.0
C963 C 0.9862 0.245 0.24993 0.0
C964 C 0.98545 0.22392 0.23625 0.0
C965 C 0.95283 0.20914 0.23621 0.0
C966 C 0.9538 0.27321 0.27821 0.0
C967 C 0.01901 0.21702 0.22161 0.0
C968 C 0.05716 0.29544 0.23781 0.0
C969 C 0.087 0.2896 0.25257 0.0
C970 C 0.02451 0.28079 0.23644 0.0
C971 C 0.02107 0.26037 0.25081 0.0
C972 C 0.05093 0.25466 0.26605 0.0
C973 C 0.08393 0.2691 0.26642 0.0
C974 C 0.99394 0.28699 0.21942 0.0
C975 C 0.04781 0.23351 0.28215 0.0
H976 H 0.89605 0.24143 0.27175 0.0
H977 H 0.95237 0.19277 0.22606 0.0
H978 H 0.97748 0.2717 0.29057 0.0
H979 H 0.95876 0.28993 0.26822 0.0
H980 H 0.92657 0.27524 0.28762 0.0
H981 H 0.01302 0.20084 0.211 0.0
H982 H 0.02673 0.23239 0.21039 0.0
H983 H 0.04419 0.2131 0.23234 0.0
H984 H 0.05978 0.31118 0.22694 0.0
H985 H 0.10697 0.26472 0.27794 0.0
H986 H 0.96677 0.29107 0.22822 0.0
H987 H 0.98866 0.27121 0.2082 0.0
H988 H 1.00178 0.30285 0.20881 0.0
H989 H 0.02168 0.23538 0.2926 0.0
H990 H 0.07286 0.23212 0.29356 0.0
H991 H 0.04519 0.21632 0.27255 0.0
C992 C 0.20278 0.95699 0.23646 0.0
C993 C 0.1723 0.96322 0.2506 0.0
C994 C 0.2355 0.97159 0.23525 0.0
C995 C 0.23834 0.99238 0.2492 0.0
C996 C 0.20775 0.99854 0.26377 0.0
C997 C 0.17472 0.98412 0.26396 0.0
C998 C 0.26686 0.96489 0.21891 0.0
C999 C 0.2102 0.0201 0.27944 0.0
C1000 C 0.33822 0.01572 0.26154 0.0
C1001 C 0.33966 0.03661 0.24812 0.0
C1002 C 0.30517 0.00135 0.26233 0.0
C1003 C 0.27345 0.00757 0.24868 0.0
C1004 C 0.27525 0.02832 0.2346 0.0
C1005 C 0.3081 0.04288 0.23485 0.0
C1006 C 0.30391 0.97985 0.27812 0.0
C1007 C 0.2426 0.03505 0.2192 0.0
H1008 H 0.20068 0.94092 0.22596 0.0
H1009 H 0.15119 0.98879 0.27502 0.0
H1010 H 0.27307 0.98043 0.20757 0.0
H1011 H 0.29345 0.96076 0.22829 0.0
H1012 H 0.25932 0.9489 0.20839 0.0
H1013 H 0.18447 0.02194 0.29026 0.0
H1014 H 0.23562 0.01834 0.2905 0.0
H1015 H 0.21371 0.03702 0.26953 0.0
H1016 H 0.36253 0.01106 0.272 0.0
H1017 H 0.30938 0.05901 0.22438 0.0
H1018 H 0.29942 0.96291 0.26838 0.0
H1019 H 0.2795 0.98173 0.28993 0.0
H1020 H 0.33053 0.97796 0.28815 0.0
H1021 H 0.23533 0.01948 0.20812 0.0
H1022 H 0.24937 0.05097 0.20841 0.0
H1023 H 0.21688 0.0393 0.22935 0.0
C1024 C 0.05816 0.95737 0.01559 0.0
C1025 C 0.08842 0.96331 1.00117 0.0
C1026 C 0.02564 0.97214 0.01689 0.0
C1027 C 0.02276 0.99279 0.00276 0.0
C1028 C 0.05311 0.99864 0.9879 0.0
C1029 C 0.08596 0.98406 0.98762 0.0
C1030 C 0.99456 0.96578 0.03353 0.0
C1031 C 0.05058 0.02003 0.97204 0.0
C1032 C 0.92293 0.01648 0.99094 0.0
C1033 C 0.92202 0.03752 0.00418 0.0
C1034 C 0.95578 0.00195 0.99004 0.0
C1035 C 0.98786 0.00815 0.00339 0.0
C1036 C 0.98661 0.02907 0.01728 0.0
C1037 C 0.95393 0.04379 0.01715 0.0
C1038 C 0.95644 0.98027 0.97445 0.0
C1039 C 0.01968 0.03581 0.03237 0.0
H1040 H 0.06031 0.9414 0.02622 0.0
H1041 H 0.10933 0.98851 0.97636 0.0
H1042 H 0.9888 0.98147 0.04477 0.0
H1043 H 0.96771 0.96168 0.02439 0.0
H1044 H 1.00212 0.94986 0.04414 0.0
H1045 H 0.07608 0.02161 0.961 0.0
H1046 H 0.02489 0.01828 0.9612 0.0
H1047 H 0.04751 0.03708 0.98181 0.0
H1048 H 0.89834 0.01182 0.98071 0.0
H1049 H 0.95306 0.06003 0.02747 0.0
H1050 H 0.96092 0.96341 0.98433 0.0
H1051 H 0.98063 0.98189 0.96245 0.0
H1052 H 0.9296 0.9784 0.96464 0.0
H1053 H 0.02699 0.02033 0.04355 0.0
H1054 H 0.01334 0.05189 0.04303 0.0
H1055 H 0.04523 0.03981 0.02198 0.0
C1056 C 0.30688 0.20628 0.01666 0.0
C1057 C 0.33862 0.21284 0.00367 0.0
C1058 C 0.27387 0.2207 0.01682 0.0
C1059 C 0.27213 0.24161 0.00295 0.0
C1060 C 0.30403 0.2481 0.98956 0.0
C1061 C 0.33721 0.23387 0.99042 0.0
C1062 C 0.24101 0.21367 0.03196 0.0
C1063 C 0.30287 0.2698 0.974 0.0
C1064 C 0.17367 0.26535 0.98745 0.0
C1065 C 0.17116 0.28609 1.00101 0.0
C1066 C 0.20663 0.25084 0.98768 0.0
C1067 C 0.23701 0.25677 0.00248 0.0
C1068 C 0.23402 0.27736 0.01667 0.0
C1069 C 0.20141 0.29205 0.01543 0.0
C1070 C 0.20926 0.2295 0.97177 0.0
C1071 C 0.26514 0.2838 0.03325 0.0
H1072 H 0.30814 0.19005 0.02699 0.0
H1073 H 0.36167 0.23875 0.98017 0.0
H1074 H 0.23359 0.22902 0.04326 0.0
H1075 H 0.21542 0.20961 0.02163 0.0
H1076 H 0.24764 0.19754 0.04252 0.0
H1077 H 0.32955 0.27182 0.96406 0.0
H1078 H 0.27854 0.26808 0.96211 0.0
H1079 H 0.29831 0.28661 0.98393 0.0
H1080 H 0.15032 0.26089 0.97619 0.0
H1081 H 0.19922 0.308 0.02608 0.0
H1082 H 0.21281 0.21246 0.98149 0.0
H1083 H 0.23473 0.23147 0.96078 0.0
H1084 H 0.1836 0.22776 0.96088 0.0
H1085 H 0.27128 0.26806 0.04437 0.0
H1086 H 0.2574 0.29958 0.044 0.0
H1087 H 0.29183 0.28816 0.02405 0.0
C1088 C 0.9518 0.70928 0.7347 0.0
C1089 C 0.91993 0.71559 0.7477 0.0
C1090 C 0.98451 0.72397 0.73451 0.0
C1091 C 0.98585 0.7449 0.74837 0.0
C1092 C 0.95377 0.75119 0.76171 0.0
C1093 C 0.92088 0.73668 0.76087 0.0
C1094 C 0.01755 0.71714 0.71944 0.0
C1095 C 0.95452 0.77289 0.77726 0.0
C1096 C 0.08416 0.76858 0.76421 0.0
C1097 C 0.08689 0.78931 0.75064 0.0
C1098 C 0.05113 0.75416 0.76393 0.0
C1099 C 0.02088 0.76014 0.74905 0.0
C1100 C 0.02403 0.78076 0.7349 0.0
C1101 C 0.05672 0.79538 0.7362 0.0
C1102 C 0.04833 0.7328 0.7798 0.0
C1103 C 0.99306 0.78725 0.71823 0.0
H1104 H 0.95091 0.69301 0.72443 0.0
H1105 H 0.89634 0.74136 0.77113 0.0
H1106 H 0.02509 0.73262 0.70831 0.0
H1107 H 0.04302 0.71298 0.72984 0.0
H1108 H 0.01108 0.70113 0.70871 0.0
H1109 H 0.9276 0.7749 0.78699 0.0
H1110 H 0.97857 0.77117 0.78935 0.0
H1111 H 0.9593 0.78971 0.76738 0.0
H1112 H 0.10745 0.76404 0.77549 0.0
H1113 H 0.05908 0.81132 0.72556 0.0
H1114 H 0.04519 0.71576 0.77004 0.0
H1115 H 0.02259 0.73464 0.79059 0.0
H1116 H 0.07376 0.73114 0.79089 0.0
H1117 H 0.98722 0.77159 0.70697 0.0
H1118 H 1.00079 0.80315 0.70765 0.0
H1119 H 0.96621 0.79141 0.72734 0.0
C1120 C 0.70402 0.95441 0.73921 0.0
C1121 C 0.67371 0.96045 0.75357 0.0
C1122 C 0.73675 0.969 0.73805 0.0
C1123 C 0.73978 0.98959 0.75225 0.0
C1124 C 0.70943 0.99552 0.76708 0.0
C1125 C 0.67637 0.98111 0.76723 0.0
C1126 C 0.76784 0.96256 0.72145 0.0
C1127 C 0.7121 0.01686 0.78298 0.0
C1128 C 0.83983 0.01314 0.76377 0.0
C1129 C 0.84075 0.0341 0.75042 0.0
C1130 C 0.80688 0.9987 0.76484 0.0
C1131 C 0.77471 0.00492 0.75156 0.0
C1132 C 0.77597 0.02576 0.73758 0.0
C1133 C 0.80875 0.04038 0.73753 0.0
C1134 C 0.80623 0.97707 0.78049 0.0
C1135 C 0.74281 0.03253 0.72257 0.0
H1136 H 0.70172 0.93854 0.72848 0.0
H1137 H 0.65297 0.98565 0.77844 0.0
H1138 H 0.77355 0.9782 0.71013 0.0
H1139 H 0.7947 0.95854 0.7306 0.0
H1140 H 0.76029 0.94658 0.71092 0.0
H1141 H 0.68668 0.01842 0.79409 0.0
H1142 H 0.73787 0.01508 0.79375 0.0
H1143 H 0.71511 0.03393 0.77323 0.0
H1144 H 0.86448 0.00847 0.77394 0.0
H1145 H 0.80962 0.05655 0.7271 0.0
H1146 H 0.80163 0.96019 0.77067 0.0
H1147 H 0.78211 0.97876 0.79253 0.0
H1148 H 0.83312 0.9752 0.79026 0.0
H1149 H 0.73541 0.01706 0.7114 0.0
H1150 H 0.74908 0.04861 0.71189 0.0
H1151 H 0.71732 0.03653 0.73302 0.0
C1152 C 0.7039 0.79372 0.98949 0.0
C1153 C 0.67202 0.7878 0.00265 0.0
C1154 C 0.73634 0.77879 0.98934 0.0
C1155 C 0.7374 0.75795 0.00334 0.0
C1156 C 0.70541 0.75212 0.01692 0.0
C1157 C 0.6728 0.76689 0.01609 0.0
C1158 C 0.76931 0.78517 0.97404 0.0
C1159 C 0.70587 0.73051 0.03259 0.0
C1160 C 0.80652 0.7067 0.99035 0.0
C1161 C 0.83735 0.71242 0.00443 0.0
C1162 C 0.7741 0.72161 0.98951 0.0
C1163 C 0.77194 0.74223 0.00373 0.0
C1164 C 0.80279 0.74782 0.01829 0.0
C1165 C 0.83548 0.73308 0.01814 0.0
C1166 C 0.74242 0.71549 0.9732 0.0
C1167 C 0.80107 0.76919 0.03422 0.0
H1168 H 0.70316 0.80983 0.97898 0.0
H1169 H 0.64826 0.76246 0.02645 0.0
H1170 H 0.7952 0.7888 0.98425 0.0
H1171 H 0.77591 0.76965 0.96275 0.0
H1172 H 0.76327 0.80137 0.96346 0.0
H1173 H 0.67921 0.72898 0.04264 0.0
H1174 H 0.70966 0.71357 0.02275 0.0
H1175 H 0.73038 0.73191 0.04438 0.0
H1176 H 0.80816 0.69083 0.97957 0.0
H1177 H 0.85926 0.73738 0.02915 0.0
H1178 H 0.73688 0.73116 0.96189 0.0
H1179 H 0.71568 0.71182 0.9826 0.0
H1180 H 0.74924 0.69939 0.96265 0.0
H1181 H 0.79829 0.78629 0.02449 0.0
H1182 H 0.8268 0.77048 0.0451 0.0
H1183 H 0.77552 0.76769 0.0452 0.0
C1184 C 0.30967 0.54119 0.76494 0.0
C1185 C 0.33926 0.53584 0.74984 0.0
C1186 C 0.27722 0.52637 0.76627 0.0
C1187 C 0.27367 0.50628 0.7515 0.0
C1188 C 0.30333 0.50102 0.73598 0.0
C1189 C 0.33618 0.51561 0.73565 0.0
C1190 C 0.2469 0.53208 0.78359 0.0
C1191 C 0.30006 0.48026 0.71945 0.0
C1192 C 0.2053 0.45487 0.76537 0.0
C1193 C 0.17282 0.46163 0.75312 0.0
C1194 C 0.23807 0.46952 0.76541 0.0
C1195 C 0.23878 0.49092 0.75216 0.0
C1196 C 0.20611 0.49765 0.73954 0.0
C1197 C 0.17325 0.48313 0.74051 0.0
C1198 C 0.2718 0.46217 0.77971 0.0
C1199 C 0.20614 0.5199 0.72467 0.0
H1200 H 0.31231 0.55674 0.77606 0.0
H1201 H 0.35902 0.51163 0.72387 0.0
H1202 H 0.21967 0.53654 0.77503 0.0
H1203 H 0.24161 0.51595 0.79438 0.0
H1204 H 0.25498 0.54756 0.79462 0.0
H1205 H 0.32509 0.47909 0.708 0.0
H1206 H 0.29733 0.46285 0.72869 0.0
H1207 H 0.27394 0.48246 0.70906 0.0
H1208 H 0.20484 0.43829 0.77522 0.0
H1209 H 0.14823 0.4882 0.73083 0.0
H1210 H 0.27963 0.47719 0.79131 0.0
H1211 H 0.29687 0.45861 0.76879 0.0
H1212 H 0.26594 0.44567 0.78991 0.0
H1213 H 0.21109 0.53637 0.73502 0.0
H1214 H 0.17888 0.52215 0.71534 0.0
H1215 H 0.22979 0.51874 0.71225 0.0
C1216 C 0.92296 0.51696 0.49085 0.0
C1217 C 0.9216 0.53805 0.50401 0.0
C1218 C 0.95605 0.50263 0.49012 0.0
C1219 C 0.98792 0.50909 0.50356 0.0
C1220 C 0.98619 0.53005 0.51737 0.0
C1221 C 0.95328 0.54456 0.51707 0.0
C1222 C 0.95721 0.48088 0.47462 0.0
C1223 C 0.019 0.53707 0.53254 0.0
C1224 C 0.05891 0.45879 0.5161 0.0
C1225 C 0.08918 0.46485 0.50173 0.0
C1226 C 0.02618 0.47338 0.51729 0.0
C1227 C 0.02309 0.49396 0.50309 0.0
C1228 C 0.05347 0.49995 0.48831 0.0
C1229 C 0.08654 0.48556 0.48814 0.0
C1230 C 0.99506 0.46688 0.53386 0.0
C1231 C 0.05074 0.52127 0.47237 0.0
H1232 H 0.89855 0.5121 0.48055 0.0
H1233 H 0.95207 0.56084 0.52733 0.0
H1234 H 0.98147 0.48261 0.46268 0.0
H1235 H 0.96188 0.46411 0.48457 0.0
H1236 H 0.93048 0.4788 0.46473 0.0
H1237 H 0.0123 0.55314 0.54314 0.0
H1238 H 0.02647 0.52168 0.54379 0.0
H1239 H 0.04458 0.54121 0.52222 0.0
H1240 H 0.06119 0.44284 0.52676 0.0
H1241 H 0.1099 0.49009 0.4769 0.0
H1242 H 0.96839 0.46252 0.52465 0.0
H1243 H 0.98889 0.48259 0.545 0.0
H1244 H 1.00284 0.45109 0.54458 0.0
H1245 H 0.02523 0.51928 0.46142 0.0
H1246 H 0.07635 0.523 0.46144 0.0
H1247 H 0.04722 0.53832 0.48207 0.0
C1248 C 0.33547 0.73461 0.51562 0.0
C1249 C 0.33818 0.71413 0.50173 0.0
C1250 C 0.30264 0.74922 0.51536 0.0
C1251 C 0.27258 0.74369 0.5002 0.0
C1252 C 0.27572 0.72332 0.48573 0.0
C1253 C 0.30819 0.70851 0.487 0.0
C1254 C 0.29983 0.7703 0.53156 0.0
C1255 C 0.24495 0.71731 0.46879 0.0
C1256 C 0.17253 0.76723 0.51168 0.0
C1257 C 0.17189 0.78848 0.49872 0.0
C1258 C 0.20536 0.75267 0.5126 0.0
C1259 C 0.23773 0.7591 0.49958 0.0
C1260 C 0.23678 0.78025 0.48599 0.0
C1261 C 0.20409 0.79496 0.48608 0.0
C1262 C 0.20567 0.73071 0.52784 0.0
C1263 C 0.27017 0.78725 0.47126 0.0
H1264 H 0.35861 0.73881 0.52712 0.0
H1265 H 0.31054 0.69277 0.4761 0.0
H1266 H 0.29697 0.78753 0.52206 0.0
H1267 H 0.27393 0.76835 0.5422 0.0
H1268 H 0.32512 0.77164 0.54279 0.0
H1269 H 0.25268 0.70158 0.45798 0.0
H1270 H 0.21791 0.71308 0.47767 0.0
H1271 H 0.23946 0.73321 0.45776 0.0
H1272 H 0.14773 0.76239 0.52165 0.0
H1273 H 0.20344 0.81136 0.47597 0.0
H1274 H 0.22963 0.73208 0.54003 0.0
H1275 H 0.21031 0.71404 0.51773 0.0
H1276 H 0.17863 0.72869 0.53745 0.0
H1277 H 0.29554 0.79098 0.48189 0.0
H1278 H 0.26412 0.80356 0.46084 0.0
H1279 H 0.27765 0.77199 0.45985 0.0
C1280 C 0.83858 0.51331 0.23845 0.0
C1281 C 0.8408 0.53395 0.25215 0.0
C1282 C 0.80587 0.49858 0.23861 0.0
C1283 C 0.77545 0.50416 0.2535 0.0
C1284 C 0.77819 0.52463 0.26787 0.0
C1285 C 0.81054 0.53956 0.26668 0.0
C1286 C 0.80349 0.47741 0.22249 0.0
C1287 C 0.74703 0.5307 0.28456 0.0
C1288 C 0.67549 0.48104 0.24109 0.0
C1289 C 0.67421 0.45982 0.25407 0.0
C1290 C 0.70853 0.49541 0.24044 0.0
C1291 C 0.74046 0.48886 0.25378 0.0
C1292 C 0.73887 0.46772 0.26737 0.0
C1293 C 0.70599 0.45318 0.26699 0.0
C1294 C 0.70952 0.51734 0.22515 0.0
C1295 C 0.77175 0.46061 0.28245 0.0
H1296 H 0.86194 0.50913 0.22709 0.0
H1297 H 0.8125 0.55545 0.27743 0.0
H1298 H 0.80002 0.46025 0.23203 0.0
H1299 H 0.77807 0.47943 0.21147 0.0
H1300 H 0.82922 0.47588 0.21163 0.0
H1301 H 0.75469 0.54631 0.29553 0.0
H1302 H 0.72033 0.53516 0.27543 0.0
H1303 H 0.74099 0.51476 0.29544 0.0
H1304 H 0.651 0.486 0.2309 0.0
H1305 H 0.70485 0.4368 0.27713 0.0
H1306 H 0.73393 0.51591 0.21329 0.0
H1307 H 0.71382 0.53402 0.2353 0.0
H1308 H 0.68287 0.51938 0.21519 0.0
H1309 H 0.79742 0.45681 0.2721 0.0
H1310 H 0.76526 0.4443 0.29279 0.0
H1311 H 0.77897 0.47583 0.29395 0.0
C1312 C 0.66964 0.26313 0.51328 0.0
C1313 C 0.66918 0.28401 0.49981 0.0
C1314 C 0.70228 0.2484 0.51444 0.0
C1315 C 0.73461 0.25427 0.50116 0.0
C1316 C 0.73377 0.27497 0.48699 0.0
C1317 C 0.70129 0.28986 0.48683 0.0
C1318 C 0.70249 0.22692 0.53027 0.0
C1319 C 0.76712 0.28138 0.472 0.0
C1320 C 0.83276 0.23061 0.5174 0.0
C1321 C 0.83568 0.20986 0.50387 0.0
C1322 C 0.79963 0.24495 0.51706 0.0
C1323 C 0.76944 0.23885 0.50219 0.0
C1324 C 0.77265 0.21813 0.48818 0.0
C1325 C 0.80547 0.20362 0.48951 0.0
C1326 C 0.7968 0.26646 0.53276 0.0
C1327 C 0.7417 0.21149 0.47155 0.0
H1328 H 0.64493 0.25879 0.52352 0.0
H1329 H 0.70081 0.30597 0.47631 0.0
H1330 H 0.70736 0.20995 0.52065 0.0
H1331 H 0.72628 0.22874 0.54252 0.0
H1332 H 0.67534 0.22515 0.53981 0.0
H1333 H 0.76104 0.29726 0.46102 0.0
H1334 H 0.79249 0.28555 0.48248 0.0
H1335 H 0.7746 0.26568 0.46112 0.0
H1336 H 0.85606 0.23531 0.52862 0.0
H1337 H 0.80794 0.18769 0.47887 0.0
H1338 H 0.77079 0.26489 0.54335 0.0
H1339 H 0.79417 0.28343 0.52283 0.0
H1340 H 0.822 0.26805 0.54404 0.0
H1341 H 0.71466 0.2078 0.48063 0.0
H1342 H 0.7492 0.19527 0.46134 0.0
H1343 H 0.73635 0.22693 0.45994 0.0
C1344 C 0.45307 0.20826 0.73558 0.0
C1345 C 0.42093 0.21442 0.7484 0.0
C1346 C 0.48558 0.22313 0.73551 0.0
C1347 C 0.48644 0.24412 0.74931 0.0
C1348 C 0.45411 0.25025 0.76249 0.0
C1349 C 0.42143 0.23555 0.76153 0.0
C1350 C 0.51893 0.21644 0.72062 0.0
C1351 C 0.45434 0.27201 0.77798 0.0
C1352 C 0.58436 0.26823 0.76546 0.0
C1353 C 0.58718 0.28886 0.75176 0.0
C1354 C 0.5514 0.25374 0.76515 0.0
C1355 C 0.52128 0.25954 0.75012 0.0
C1356 C 0.52445 0.28011 0.7359 0.0
C1357 C 0.55708 0.2948 0.73722 0.0
C1358 C 0.54859 0.23245 0.7811 0.0
C1359 C 0.4936 0.28643 0.7191 0.0
H1360 H 0.45253 0.19195 0.72533 0.0
H1361 H 0.39668 0.24014 0.77164 0.0
H1362 H 0.5264 0.23192 0.70948 0.0
H1363 H 0.54431 0.21246 0.73116 0.0
H1364 H 0.51283 0.20035 0.70991 0.0
H1365 H 0.42725 0.27391 0.78755 0.0
H1366 H 0.47822 0.27045 0.7902 0.0
H1367 H 0.45906 0.28882 0.76808 0.0
H1368 H 0.60757 0.26377 0.77683 0.0
H1369 H 0.55948 0.31065 0.72646 0.0
H1370 H 0.54591 0.21534 0.77139 0.0
H1371 H 0.52261 0.23417 0.7917 0.0
H1372 H 0.57382 0.231 0.79238 0.0
H1373 H 0.48819 0.27074 0.70778 0.0
H1374 H 0.50122 0.3024 0.70858 0.0
H1375 H 0.46655 0.29039 0.72808 0.0
C1376 C 0.4206 0.01451 0.49046 0.0
C1377 C 0.42055 0.03591 0.50322 0.0
C1378 C 0.45322 0.99977 0.48939 0.0
C1379 C 0.48599 0.00616 0.50206 0.0
C1380 C 0.48563 0.02745 0.51547 0.0
C1381 C 0.45313 0.04233 0.51553 0.0
C1382 C 0.45289 0.97766 0.47433 0.0
C1383 C 0.51949 0.03444 0.52982 0.0
C1384 C 0.55672 0.95565 0.5145 0.0
C1385 C 0.58643 0.96118 0.49955 0.0
C1386 C 0.52419 0.97042 0.51583 0.0
C1387 C 0.52071 0.99064 0.5012 0.0
C1388 C 0.55042 0.99601 0.48575 0.0
C1389 C 0.58332 0.98146 0.48543 0.0
C1390 C 0.49381 0.96459 0.53308 0.0
C1391 C 0.54724 0.01691 0.46937 0.0
H1392 H 0.39551 0.00971 0.48074 0.0
H1393 H 0.45296 0.05884 0.52549 0.0
H1394 H 0.47643 0.97887 0.46185 0.0
H1395 H 0.4578 0.96107 0.48452 0.0
H1396 H 0.42552 0.97561 0.46508 0.0
H1397 H 0.51383 0.05082 0.54023 0.0
H1398 H 0.52722 0.01923 0.54122 0.0
H1399 H 0.54455 0.03807 0.51891 0.0
H1400 H 0.55938 0.94008 0.52558 0.0
H1401 H 0.60626 0.98561 0.47377 0.0
H1402 H 0.46647 0.9605 0.52447 0.0
H1403 H 0.48885 0.98055 0.54413 0.0
H1404 H 0.50164 0.94885 0.54384 0.0
H1405 H 0.52092 0.01499 0.45911 0.0
H1406 H 0.57212 0.018 0.45779 0.0
H1407 H 0.54497 0.03426 0.47874 0.0
C1408 C 0.55601 0.79497 0.26441 0.0
C1409 C 0.58738 0.78908 0.25082 0.0
C1410 C 0.5233 0.78029 0.26463 0.0
C1411 C 0.52144 0.75977 0.25027 0.0
C1412 C 0.55291 0.75399 0.23624 0.0
C1413 C 0.58583 0.76848 0.23701 0.0
C1414 C 0.49093 0.78658 0.28041 0.0
C1415 C 0.55157 0.73273 0.22018 0.0
C1416 C 0.45227 0.70853 0.26306 0.0
C1417 C 0.4211 0.71462 0.24938 0.0
C1418 C 0.48477 0.72335 0.26388 0.0
C1419 C 0.48667 0.74426 0.25002 0.0
C1420 C 0.4554 0.75029 0.23592 0.0
C1421 C 0.42263 0.73562 0.2361 0.0
C1422 C 0.5169 0.71676 0.27972 0.0
C1423 C 0.45683 0.77199 0.22038 0.0
H1424 H 0.55737 0.81085 0.27519 0.0
H1425 H 0.60999 0.7641 0.22633 0.0
H1426 H 0.46476 0.79054 0.27057 0.0
H1427 H 0.48448 0.77088 0.29152 0.0
H1428 H 0.49755 0.80253 0.29118 0.0
H1429 H 0.57782 0.73128 0.20976 0.0
H1430 H 0.54793 0.7156 0.22976 0.0
H1431 H 0.52664 0.73451 0.20875 0.0
H1432 H 0.45088 0.69238 0.27349 0.0
H1433 H 0.39859 0.74019 0.2254 0.0
H1434 H 0.52314 0.73222 0.29115 0.0
H1435 H 0.54323 0.71301 0.26995 0.0
H1436 H 0.51015 0.70057 0.29016 0.0
H1437 H 0.46035 0.78886 0.23038 0.0
H1438 H 0.43067 0.7737 0.20991 0.0
H1439 H 0.48187 0.77055 0.20899 0.0
C1440 C 0.55886 0.4578 0.01669 0.0
C1441 C 0.58863 0.46352 0.00184 0.0
C1442 C 0.52619 0.47244 0.01799 0.0
C1443 C 0.52262 0.49268 0.0034 0.0
C1444 C 0.55251 0.49833 0.98816 0.0
C1445 C 0.58557 0.48393 0.98789 0.0
C1446 C 0.49563 0.46633 0.03504 0.0
C1447 C 0.54924 0.51926 0.97182 0.0
C1448 C 0.4221 0.51526 0.9917 0.0
C1449 C 0.42106 0.53667 0.0044 0.0
C1450 C 0.45519 0.50094 0.99096 0.0
C1451 C 0.48742 0.50777 0.00392 0.0
C1452 C 0.48603 0.52906 0.0173 0.0
C1453 C 0.45308 0.54352 0.01702 0.0
C1454 C 0.45596 0.47881 0.97593 0.0
C1455 C 0.51926 0.53649 0.03197 0.0
H1456 H 0.56149 0.44209 0.02762 0.0
H1457 H 0.60855 0.48817 0.97629 0.0
H1458 H 0.48973 0.48232 0.04588 0.0
H1459 H 0.4687 0.46168 0.02623 0.0
H1460 H 0.50382 0.45084 0.04603 0.0
H1461 H 0.57453 0.52078 0.9606 0.0
H1462 H 0.52343 0.51697 0.96117 0.0
H1463 H 0.54591 0.53653 0.98121 0.0
H1464 H 0.39743 0.51014 0.98174 0.0
H1465 H 0.45213 0.56005 0.02693 0.0
H1466 H 0.46103 0.46229 0.98619 0.0
H1467 H 0.47984 0.48028 0.96369 0.0
H1468 H 0.42894 0.47643 0.96639 0.0
H1469 H 0.52715 0.52138 0.04346 0.0
H1470 H 0.51281 0.5528 0.04231 0.0
H1471 H 0.54451 0.54042 0.0213 0.0
C1472 C 0.13129 0.37294 0.42572 0.0
C1473 C 0.15602 0.3903 0.43497 0.0
C1474 C 0.13018 0.36875 0.40234 0.0
C1475 C 0.15477 0.38197 0.38791 0.0
C1476 C 0.1797 0.39957 0.39713 0.0
C1477 C 0.17983 0.40365 0.42054 0.0
C1478 C 0.10288 0.35003 0.39309 0.0
C1479 C 0.20672 0.4138 0.38233 0.0
C1480 C 0.17973 0.35381 0.33129 0.0
C1481 C 0.15664 0.3671 0.31641 0.0
C1482 C 0.17954 0.35858 0.35456 0.0
C1483 C 0.15528 0.37687 0.36323 0.0
C1484 C 0.13169 0.39025 0.34834 0.0
C1485 C 0.13286 0.38533 0.32506 0.0
C1486 C 0.2055 0.34414 0.36986 0.0
C1487 C 0.10511 0.40968 0.35702 0.0
H1488 H 0.11264 0.36267 0.43676 0.0
H1489 H 0.19914 0.41702 0.42757 0.0
H1490 H 0.08433 0.35834 0.38002 0.0
H1491 H 0.11907 0.3352 0.38482 0.0
H1492 H 0.08452 0.34204 0.40645 0.0
H1493 H 0.22394 0.42706 0.3921 0.0
H1494 H 0.22642 0.4012 0.37351 0.0
H1495 H 0.19054 0.42373 0.36915 0.0
H1496 H 0.19836 0.33979 0.32472 0.0
H1497 H 0.11482 0.39559 0.31367 0.0
H1498 H 0.18836 0.33426 0.38265 0.0
H1499 H 0.22487 0.35655 0.37914 0.0
H1500 H 0.22304 0.33078 0.3604 0.0
H1501 H 0.08517 0.40182 0.3696 0.0
H1502 H 0.0882 0.41819 0.34327 0.0
H1503 H 0.12168 0.42403 0.36575 0.0
C1504 C 0.08014 0.90094 0.33101 0.0
C1505 C 0.10403 0.88775 0.3165 0.0
C1506 C 0.08004 0.89656 0.35436 0.0
C1507 C 0.10483 0.8788 0.36346 0.0
C1508 C 0.12934 0.86562 0.34895 0.0
C1509 C 0.12845 0.87013 0.32562 0.0
C1510 C 0.05314 0.91076 0.36927 0.0
C1511 C 0.1565 0.84675 0.35808 0.0
C1512 C 0.1278 0.88289 0.42607 0.0
C1513 C 0.10395 0.86493 0.43513 0.0
C1514 C 0.12873 0.8874 0.40274 0.0
C1515 C 0.10483 0.87386 0.38817 0.0
C1516 C 0.08062 0.85575 0.39721 0.0
C1517 C 0.08067 0.85138 0.42056 0.0
C1518 C 0.15528 0.90665 0.39367 0.0
C1519 C 0.05436 0.84115 0.38223 0.0
H1520 H 0.06103 0.91449 0.32408 0.0
H1521 H 0.14713 0.85996 0.31452 0.0
H1522 H 0.03382 0.89815 0.37836 0.0
H1523 H 0.06951 0.9209 0.38223 0.0
H1524 H 0.03554 0.92385 0.35953 0.0
H1525 H 0.17433 0.8385 0.34461 0.0
H1526 H 0.17557 0.85504 0.37089 0.0
H1527 H 0.14028 0.83213 0.36664 0.0
H1528 H 0.14601 0.89334 0.43722 0.0
H1529 H 0.06201 0.83755 0.42745 0.0
H1530 H 0.1386 0.92104 0.38507 0.0
H1531 H 0.17474 0.89864 0.38091 0.0
H1532 H 0.17271 0.91516 0.40719 0.0
H1533 H 0.03465 0.85347 0.37309 0.0
H1534 H 0.03716 0.82781 0.39193 0.0
H1535 H 0.07119 0.83125 0.36932 0.0
C1536 C 0.17906 0.85155 0.8311 0.0
C1537 C 0.15526 0.86481 0.81659 0.0
C1538 C 0.17921 0.85594 0.85445 0.0
C1539 C 0.15458 0.87378 0.86355 0.0
C1540 C 0.13017 0.88704 0.84904 0.0
C1541 C 0.13099 0.88251 0.82571 0.0
C1542 C 0.206 0.84164 0.86935 0.0
C1543 C 0.10319 0.906 0.85818 0.0
C1544 C 0.13174 0.86978 0.92619 0.0
C1545 C 0.15586 0.88761 0.93522 0.0
C1546 C 0.13068 0.86529 0.90285 0.0
C1547 C 0.15468 0.87873 0.88825 0.0
C1548 C 0.17913 0.89672 0.89727 0.0
C1549 C 0.17925 0.90105 0.92063 0.0
C1550 C 0.10391 0.84615 0.89382 0.0
C1551 C 0.20548 0.91122 0.88226 0.0
H1552 H 0.19805 0.83794 0.82417 0.0
H1553 H 0.11238 0.89274 0.81461 0.0
H1554 H 0.22546 0.85418 0.87841 0.0
H1555 H 0.18956 0.83158 0.88233 0.0
H1556 H 0.22346 0.82848 0.8596 0.0
H1557 H 0.08542 0.91432 0.84471 0.0
H1558 H 0.08405 0.89779 0.871 0.0
H1559 H 0.11956 0.92057 0.86673 0.0
H1560 H 0.11345 0.8594 0.93735 0.0
H1561 H 0.19811 0.91478 0.92749 0.0
H1562 H 0.12043 0.83168 0.88521 0.0
H1563 H 0.08451 0.85423 0.88107 0.0
H1564 H 0.08642 0.83771 0.90736 0.0
H1565 H 0.22507 0.89883 0.87311 0.0
H1566 H 0.2228 0.92452 0.89193 0.0
H1567 H 0.1887 0.92116 0.86935 0.0
C1568 C 0.08178 0.39862 0.83115 0.0
C1569 C 0.10492 0.38501 0.81655 0.0
C1570 C 0.0817 0.39422 0.8545 0.0
C1571 C 0.10573 0.376 0.86351 0.0
C1572 C 0.1295 0.36239 0.8489 0.0
C1573 C 0.12861 0.36694 0.82557 0.0
C1574 C 0.05558 0.40889 0.8695 0.0
C1575 C 0.15586 0.34301 0.85793 0.0
C1576 C 0.12918 0.37959 0.92609 0.0
C1577 C 0.1045 0.3621 0.93518 0.0
C1578 C 0.13024 0.38408 0.90275 0.0
C1579 C 0.10566 0.37101 0.8882 0.0
C1580 C 0.08063 0.35337 0.89727 0.0
C1581 C 0.08054 0.34901 0.92063 0.0
C1582 C 0.15764 0.40283 0.89366 0.0
C1583 C 0.05364 0.33929 0.88233 0.0
H1584 H 0.06324 0.41253 0.82429 0.0
H1585 H 0.14671 0.35644 0.8144 0.0
H1586 H 0.03575 0.39664 0.87862 0.0
H1587 H 0.07251 0.4187 0.88243 0.0
H1588 H 0.03852 0.42233 0.85982 0.0
H1589 H 0.17321 0.33446 0.8444 0.0
H1590 H 0.17539 0.35092 0.87071 0.0
H1591 H 0.13904 0.32867 0.86651 0.0
H1592 H 0.14791 0.38969 0.93722 0.0
H1593 H 0.06124 0.33556 0.92753 0.0
H1594 H 0.14161 0.41755 0.88512 0.0
H1595 H 0.17663 0.39447 0.88084 0.0
H1596 H 0.17556 0.41097 0.90716 0.0
H1597 H 0.03444 0.35198 0.87325 0.0
H1598 H 0.03591 0.32624 0.89204 0.0
H1599 H 0.06995 0.32912 0.86936 0.0
C1600 C 0.82924 0.65117 0.67072 0.0
C1601 C 0.85297 0.638 0.68534 0.0
C1602 C 0.82923 0.64665 0.64739 0.0
C1603 C 0.85395 0.62878 0.63841 0.0
C1604 C 0.87828 0.61561 0.65304 0.0
C1605 C 0.87729 0.62025 0.67636 0.0
C1606 C 0.80248 0.66084 0.63237 0.0
C1607 C 0.90538 0.59664 0.64404 0.0
C1608 C 0.8298 0.60121 0.58137 0.0
C1609 C 0.85314 0.61467 0.56676 0.0
C1610 C 0.82974 0.60564 0.60472 0.0
C1611 C 0.85403 0.62373 0.61372 0.0
C1612 C 0.87802 0.63718 0.59911 0.0
C1613 C 0.87707 0.63261 0.57578 0.0
C1614 C 0.80337 0.59115 0.61972 0.0
C1615 C 0.90467 0.65639 0.60813 0.0
H1616 H 0.81021 0.66482 0.67755 0.0
H1617 H 0.89585 0.6101 0.68754 0.0
H1618 H 0.81897 0.6709 0.61942 0.0
H1619 H 0.78317 0.64822 0.62328 0.0
H1620 H 0.78486 0.67399 0.64203 0.0
H1621 H 0.92309 0.58841 0.65759 0.0
H1622 H 0.88913 0.58201 0.6355 0.0
H1623 H 0.92458 0.60483 0.63123 0.0
H1624 H 0.81107 0.5874 0.57451 0.0
H1625 H 0.89534 0.643 0.56461 0.0
H1626 H 0.78369 0.60354 0.62879 0.0
H1627 H 0.82011 0.58128 0.63269 0.0
H1628 H 0.78615 0.5778 0.61005 0.0
H1629 H 0.88805 0.67087 0.61664 0.0
H1630 H 0.92223 0.66478 0.5946 0.0
H1631 H 0.924 0.64838 0.62096 0.0
C1632 C 0.93033 0.0953 0.6711 0.0
C1633 C 0.90711 0.10901 0.68557 0.0
C1634 C 0.92997 0.09922 0.64767 0.0
C1635 C 0.90538 0.11703 0.63846 0.0
C1636 C 0.88131 0.13059 0.65293 0.0
C1637 C 0.88268 0.12655 0.67633 0.0
C1638 C 0.95646 0.08465 0.63281 0.0
C1639 C 0.85436 0.14952 0.64371 0.0
C1640 C 0.93038 0.14508 0.58181 0.0
C1641 C 0.90677 0.13209 0.56698 0.0
C1642 C 0.93043 0.14019 0.60506 0.0
C1643 C 0.90584 0.12211 0.61377 0.0
C1644 C 0.88179 0.10899 0.59894 0.0
C1645 C 0.88276 0.11401 0.57567 0.0
C1646 C 0.95691 0.15433 0.62028 0.0
C1647 C 0.85485 0.08979 0.60768 0.0
H1648 H 0.94939 0.08178 0.67812 0.0
H1649 H 0.86446 0.13709 0.6874 0.0
H1650 H 0.93991 0.07491 0.61967 0.0
H1651 H 0.97647 0.097 0.62394 0.0
H1652 H 0.97333 0.07119 0.64257 0.0
H1653 H 0.83623 0.15768 0.6571 0.0
H1654 H 0.87081 0.16422 0.6354 0.0
H1655 H 0.83557 0.14136 0.63068 0.0
H1656 H 0.94922 0.15897 0.5752 0.0
H1657 H 0.86433 0.10398 0.56432 0.0
H1658 H 0.97595 0.1417 0.62955 0.0
H1659 H 0.94014 0.16445 0.63308 0.0
H1660 H 0.97481 0.16745 0.61076 0.0
H1661 H 0.87113 0.07532 0.61642 0.0
H1662 H 0.83772 0.0814 0.59396 0.0
H1663 H 0.8351 0.09785 0.62026 0.0
C1664 C 0.87801 0.12037 0.1767 0.0
C1665 C 0.85382 0.1382 0.18567 0.0
C1666 C 0.87904 0.11575 0.15338 0.0
C1667 C 0.85489 0.12904 0.13873 0.0
C1668 C 0.83036 0.14702 0.14769 0.0
C1669 C 0.83032 0.15151 0.17103 0.0
C1670 C 0.90594 0.09665 0.14441 0.0
C1671 C 0.80383 0.16134 0.13265 0.0
C1672 C 0.87827 0.13254 0.07612 0.0
C1673 C 0.85419 0.11466 0.06714 0.0
C1674 C 0.87915 0.13721 0.09943 0.0
C1675 C 0.85494 0.12394 0.11405 0.0
C1676 C 0.83048 0.10593 0.10508 0.0
C1677 C 0.83061 0.10138 0.08175 0.0
C1678 C 0.90599 0.15633 0.10843 0.0
C1679 C 0.80388 0.09162 0.12009 0.0
H1680 H 0.8964 0.11011 0.18789 0.0
H1681 H 0.8114 0.16523 0.17785 0.0
H1682 H 0.88953 0.08207 0.13591 0.0
H1683 H 0.92521 0.10473 0.13158 0.0
H1684 H 0.92358 0.08838 0.15796 0.0
H1685 H 0.78641 0.17462 0.14229 0.0
H1686 H 0.82047 0.17128 0.11968 0.0
H1687 H 0.78433 0.14882 0.12359 0.0
H1688 H 0.89672 0.14278 0.06494 0.0
H1689 H 0.81176 0.08763 0.07492 0.0
H1690 H 0.92525 0.14827 0.12127 0.0
H1691 H 0.88952 0.1709 0.11692 0.0
H1692 H 0.92363 0.16463 0.09489 0.0
H1693 H 0.82047 0.08167 0.13308 0.0
H1694 H 0.78648 0.07835 0.11044 0.0
H1695 H 0.78437 0.10415 0.12914 0.0
C1696 C 0.929 0.64653 0.08174 0.0
C1697 C 0.90594 0.63339 0.06672 0.0
C1698 C 0.92881 0.6415 0.10497 0.0
C1699 C 0.90459 0.6231 0.11346 0.0
C1700 C 0.88107 0.60984 0.09843 0.0
C1701 C 0.88222 0.61503 0.0752 0.0
C1702 C 0.95467 0.65583 0.12041 0.0
C1703 C 0.85456 0.59027 0.10692 0.0
C1704 C 0.92913 0.59605 0.17069 0.0
C1705 C 0.90525 0.60929 0.18516 0.0
C1706 C 0.92897 0.6002 0.14729 0.0
C1707 C 0.90397 0.61779 0.13811 0.0
C1708 C 0.87927 0.63089 0.15258 0.0
C1709 C 0.88039 0.6266 0.17595 0.0
C1710 C 0.95609 0.5861 0.13244 0.0
C1711 C 0.8519 0.6496 0.14339 0.0
H1712 H 0.94759 0.66064 0.07532 0.0
H1713 H 0.86421 0.60488 0.06371 0.0
H1714 H 0.93745 0.6656 0.13323 0.0
H1715 H 0.97401 0.64335 0.12964 0.0
H1716 H 0.97225 0.66926 0.11107 0.0
H1717 H 0.83782 0.58181 0.09307 0.0
H1718 H 0.87115 0.57591 0.11561 0.0
H1719 H 0.83446 0.598 0.11949 0.0
H1720 H 0.94854 0.58271 0.17768 0.0
H1721 H 0.86168 0.6368 0.18701 0.0
H1722 H 0.97585 0.59877 0.12377 0.0
H1723 H 0.94 0.57629 0.11914 0.0
H1724 H 0.97322 0.57274 0.14216 0.0
H1725 H 0.86805 0.66454 0.13526 0.0
H1726 H 0.8334 0.65743 0.15676 0.0
H1727 H 0.8335 0.64135 0.13022 0.0
C1728 C 0.67896 0.40199 0.92044 0.0
C1729 C 0.65483 0.38882 0.93483 0.0
C1730 C 0.6789 0.39792 0.89704 0.0
C1731 C 0.65371 0.3805 0.88777 0.0
C1732 C 0.62879 0.36745 0.90215 0.0
C1733 C 0.62985 0.37164 0.92553 0.0
C1734 C 0.70626 0.41195 0.88229 0.0
C1735 C 0.60121 0.34894 0.89284 0.0
C1736 C 0.63237 0.3842 0.82488 0.0
C1737 C 0.65598 0.36588 0.81624 0.0
C1738 C 0.63103 0.38902 0.84817 0.0
C1739 C 0.65425 0.37542 0.86309 0.0
C1740 C 0.67829 0.357 0.85444 0.0
C1741 C 0.67866 0.35235 0.83115 0.0
C1742 C 0.60471 0.4086 0.85683 0.0
C1743 C 0.70384 0.34232 0.86978 0.0
H1744 H 0.69847 0.41522 0.92751 0.0
H1745 H 0.61096 0.3615 0.93654 0.0
H1746 H 0.72575 0.39921 0.87349 0.0
H1747 H 0.69033 0.42202 0.86909 0.0
H1748 H 0.72368 0.42507 0.89211 0.0
H1749 H 0.58265 0.34107 0.90617 0.0
H1750 H 0.58287 0.35739 0.87975 0.0
H1751 H 0.61718 0.334 0.88458 0.0
H1752 H 0.61465 0.39465 0.81346 0.0
H1753 H 0.69715 0.33825 0.82459 0.0
H1754 H 0.62147 0.42285 0.86557 0.0
H1755 H 0.58462 0.40086 0.86939 0.0
H1756 H 0.58797 0.41722 0.84306 0.0
H1757 H 0.72344 0.35455 0.87909 0.0
H1758 H 0.72114 0.32882 0.86034 0.0
H1759 H 0.68644 0.33258 0.88253 0.0
C1760 C 0.62898 0.8782 0.92629 0.0
C1761 C 0.60469 0.86086 0.93598 0.0
C1762 C 0.62953 0.88205 0.90286 0.0
C1763 C 0.60481 0.86848 0.88881 0.0
C1764 C 0.58037 0.85085 0.89846 0.0
C1765 C 0.58078 0.84713 0.92193 0.0
C1766 C 0.65634 0.90081 0.89317 0.0
C1767 C 0.5533 0.83623 0.88403 0.0
C1768 C 0.57974 0.89615 0.83199 0.0
C1769 C 0.60338 0.88305 0.81726 0.0
C1770 C 0.57954 0.89133 0.85526 0.0
C1771 C 0.60393 0.87319 0.86408 0.0
C1772 C 0.62789 0.85991 0.84932 0.0
C1773 C 0.62715 0.86489 0.82606 0.0
C1774 C 0.55326 0.90569 0.87042 0.0
C1775 C 0.6546 0.84063 0.85815 0.0
H1776 H 0.64771 0.88877 0.93702 0.0
H1777 H 0.56181 0.83379 0.92932 0.0
H1778 H 0.67482 0.89242 0.88012 0.0
H1779 H 0.63975 0.91539 0.88479 0.0
H1780 H 0.67478 0.90916 0.9063 0.0
H1781 H 0.53654 0.82298 0.8941 0.0
H1782 H 0.5332 0.84856 0.87522 0.0
H1783 H 0.56938 0.82624 0.87085 0.0
H1784 H 0.56108 0.91009 0.8253 0.0
H1785 H 0.64557 0.85474 0.81479 0.0
H1786 H 0.57021 0.91599 0.88301 0.0
H1787 H 0.53433 0.89321 0.87995 0.0
H1788 H 0.53525 0.91868 0.86082 0.0
H1789 H 0.67476 0.84873 0.87047 0.0
H1790 H 0.67128 0.83186 0.84444 0.0
H1791 H 0.63821 0.82644 0.86722 0.0
C1792 C 0.67981 0.89641 0.4213 0.0
C1793 C 0.65679 0.8831 0.4362 0.0
C1794 C 0.67972 0.89156 0.39804 0.0
C1795 C 0.65564 0.87316 0.38941 0.0
C1796 C 0.6323 0.85965 0.40434 0.0
C1797 C 0.63335 0.86467 0.4276 0.0
C1798 C 0.70538 0.90616 0.3827 0.0
C1799 C 0.60592 0.84009 0.39571 0.0
C1800 C 0.63025 0.87827 0.32725 0.0
C1801 C 0.65506 0.86131 0.31745 0.0
C1802 C 0.62948 0.88185 0.35071 0.0
C1803 C 0.65452 0.86841 0.36468 0.0
C1804 C 0.67942 0.85112 0.35492 0.0
C1805 C 0.67919 0.84764 0.33142 0.0
C1806 C 0.60217 0.90024 0.36053 0.0
C1807 C 0.70689 0.83668 0.36925 0.0
H1808 H 0.69822 0.91057 0.42782 0.0
H1809 H 0.6154 0.85437 0.43902 0.0
H1810 H 0.72442 0.89386 0.37306 0.0
H1811 H 0.68795 0.91629 0.37022 0.0
H1812 H 0.72325 0.91933 0.39217 0.0
H1813 H 0.58971 0.83117 0.40953 0.0
H1814 H 0.58533 0.84798 0.38351 0.0
H1815 H 0.6225 0.82606 0.38654 0.0
H1816 H 0.61132 0.88876 0.31657 0.0
H1817 H 0.69854 0.83457 0.32395 0.0
H1818 H 0.61839 0.91506 0.36879 0.0
H1819 H 0.58419 0.89162 0.3737 0.0
H1820 H 0.58324 0.9083 0.34748 0.0
H1821 H 0.72691 0.84916 0.37794 0.0
H1822 H 0.72372 0.82352 0.35912 0.0
H1823 H 0.69115 0.82662 0.38253 0.0
C1824 C 0.62884 0.37662 0.42547 0.0
C1825 C 0.60371 0.35962 0.43493 0.0
C1826 C 0.62958 0.38082 0.4021 0.0
C1827 C 0.60421 0.36796 0.38787 0.0
C1828 C 0.5788 0.35075 0.3973 0.0
C1829 C 0.57905 0.34666 0.42071 0.0
C1830 C 0.65742 0.39909 0.39263 0.0
C1831 C 0.551 0.33691 0.38269 0.0
C1832 C 0.58088 0.39625 0.33103 0.0
C1833 C 0.60368 0.38255 0.31632 0.0
C1834 C 0.58048 0.39151 0.35432 0.0
C1835 C 0.60384 0.37284 0.36316 0.0
C1836 C 0.62709 0.35903 0.34843 0.0
C1837 C 0.62654 0.36394 0.32516 0.0
C1838 C 0.55497 0.40644 0.36947 0.0
C1839 C 0.65273 0.33918 0.35728 0.0
H1840 H 0.64815 0.3866 0.43634 0.0
H1841 H 0.55942 0.33358 0.42793 0.0
H1842 H 0.67567 0.3904 0.37963 0.0
H1843 H 0.64168 0.41403 0.38422 0.0
H1844 H 0.67607 0.407 0.40589 0.0
H1845 H 0.53325 0.32407 0.39263 0.0
H1846 H 0.53185 0.34979 0.37381 0.0
H1847 H 0.56662 0.32655 0.36956 0.0
H1848 H 0.56295 0.41055 0.32432 0.0
H1849 H 0.64434 0.35334 0.3139 0.0
H1850 H 0.57241 0.41621 0.38218 0.0
H1851 H 0.53516 0.39439 0.37884 0.0
H1852 H 0.53791 0.41994 0.35987 0.0
H1853 H 0.67305 0.34678 0.36978 0.0
H1854 H 0.66922 0.3302 0.34361 0.0
H1855 H 0.6355 0.32524 0.36615 0.0
C1856 C 0.37856 0.62032 0.1758 0.0
C1857 C 0.3538 0.63776 0.1849 0.0
C1858 C 0.3793 0.61564 0.15249 0.0
C1859 C 0.3543 0.62847 0.13799 0.0
C1860 C 0.32917 0.64603 0.14708 0.0
C1861 C 0.32941 0.65058 0.1704 0.0
C1862 C 0.40682 0.59699 0.14337 0.0
C1863 C 0.30174 0.65985 0.13219 0.0
C1864 C 0.37636 0.63226 0.07522 0.0
C1865 C 0.35283 0.61399 0.06641 0.0
C1866 C 0.37747 0.63698 0.09852 0.0
C1867 C 0.3541 0.62333 0.11331 0.0
C1868 C 0.3302 0.60492 0.10451 0.0
C1869 C 0.33005 0.60036 0.08119 0.0
C1870 C 0.40366 0.65657 0.10732 0.0
C1871 C 0.3045 0.59019 0.11972 0.0
H1872 H 0.39762 0.61042 0.18689 0.0
H1873 H 0.31004 0.66399 0.17732 0.0
H1874 H 0.39087 0.58213 0.13498 0.0
H1875 H 0.42553 0.60537 0.13042 0.0
H1876 H 0.42502 0.58902 0.15682 0.0
H1877 H 0.28394 0.67284 0.14192 0.0
H1878 H 0.3177 0.67005 0.11909 0.0
H1879 H 0.28262 0.64698 0.12328 0.0
H1880 H 0.39419 0.64278 0.06391 0.0
H1881 H 0.31164 0.58629 0.0745 0.0
H1882 H 0.42351 0.64885 0.12002 0.0
H1883 H 0.38675 0.67085 0.11592 0.0
H1884 H 0.42068 0.66515 0.09365 0.0
H1885 H 0.32175 0.58054 0.13261 0.0
H1886 H 0.28748 0.57661 0.1102 0.0
H1887 H 0.28464 0.60238 0.12889 0.0
C1888 C 0.38406 0.13113 0.17626 0.0
C1889 C 0.40825 0.11335 0.1853 0.0
C1890 C 0.38313 0.13569 0.15292 0.0
C1891 C 0.4074 0.12242 0.13835 0.0
C1892 C 0.43199 0.10451 0.14739 0.0
C1893 C 0.43191 0.10006 0.17073 0.0
C1894 C 0.35615 0.1547 0.14387 0.0
C1895 C 0.45869 0.09022 0.13242 0.0
C1896 C 0.38417 0.11859 0.07574 0.0
C1897 C 0.40812 0.13651 0.06671 0.0
C1898 C 0.3833 0.114 0.09907 0.0
C1899 C 0.40738 0.12741 0.11365 0.0
C1900 C 0.43172 0.14546 0.10462 0.0
C1901 C 0.43158 0.14992 0.08128 0.0
C1902 C 0.35658 0.09484 0.10812 0.0
C1903 C 0.4582 0.1599 0.11959 0.0
H1904 H 0.36555 0.14137 0.1874 0.0
H1905 H 0.45084 0.08638 0.17761 0.0
H1906 H 0.3725 0.16927 0.13531 0.0
H1907 H 0.33693 0.14653 0.13107 0.0
H1908 H 0.33845 0.163 0.15738 0.0
H1909 H 0.47621 0.07705 0.14212 0.0
H1910 H 0.44216 0.08016 0.11948 0.0
H1911 H 0.47808 0.10276 0.12331 0.0
H1912 H 0.36582 0.10825 0.06459 0.0
H1913 H 0.45032 0.16371 0.0744 0.0
H1914 H 0.33724 0.10291 0.12092 0.0
H1915 H 0.37313 0.08036 0.11668 0.0
H1916 H 0.33902 0.08644 0.0946 0.0
H1917 H 0.44152 0.16987 0.13253 0.0
H1918 H 0.47554 0.17317 0.1099 0.0
H1919 H 0.47776 0.14746 0.12871 0.0
C1920 C 0.33093 0.15024 0.67057 0.0
C1921 C 0.3545 0.13699 0.68522 0.0
C1922 C 0.33089 0.14568 0.64725 0.0
C1923 C 0.3554 0.12767 0.63831 0.0
C1924 C 0.37962 0.11444 0.65296 0.0
C1925 C 0.37868 0.11914 0.67626 0.0
C1926 C 0.30429 0.15994 0.6322 0.0
C1927 C 0.4065 0.09533 0.644 0.0
C1928 C 0.33081 0.09992 0.58142 0.0
C1929 C 0.35429 0.11319 0.56674 0.0
C1930 C 0.33085 0.10448 0.60474 0.0
C1931 C 0.35536 0.1225 0.61365 0.0
C1932 C 0.3795 0.13575 0.59897 0.0
C1933 C 0.37847 0.13106 0.57566 0.0
C1934 C 0.30434 0.0902 0.61983 0.0
C1935 C 0.40638 0.15489 0.60788 0.0
H1936 H 0.31203 0.16397 0.67738 0.0
H1937 H 0.39711 0.10892 0.68747 0.0
H1938 H 0.32088 0.16984 0.61918 0.0
H1939 H 0.28477 0.14739 0.6232 0.0
H1940 H 0.2869 0.17325 0.64182 0.0
H1941 H 0.42419 0.0871 0.65756 0.0
H1942 H 0.39007 0.08071 0.63557 0.0
H1943 H 0.42572 0.10337 0.63113 0.0
H1944 H 0.3119 0.08618 0.57464 0.0
H1945 H 0.39684 0.1413 0.56443 0.0
H1946 H 0.28482 0.10273 0.62885 0.0
H1947 H 0.32099 0.08031 0.63283 0.0
H1948 H 0.28694 0.07687 0.61023 0.0
H1949 H 0.38995 0.16949 0.61634 0.0
H1950 H 0.42401 0.16313 0.5943 0.0
H1951 H 0.42565 0.14686 0.62073 0.0
C1952 C 0.42845 0.59987 0.67011 0.0
C1953 C 0.40521 0.61311 0.68496 0.0
C1954 C 0.42791 0.60438 0.64679 0.0
C1955 C 0.40313 0.62233 0.63803 0.0
C1956 C 0.37919 0.63553 0.65287 0.0
C1957 C 0.38072 0.6309 0.67619 0.0
C1958 C 0.45427 0.59015 0.63156 0.0
C1959 C 0.35206 0.65461 0.6441 0.0
C1960 C 0.42807 0.65021 0.58127 0.0
C1961 C 0.4048 0.63694 0.56647 0.0
C1962 C 0.4277 0.64568 0.60459 0.0
C1963 C 0.40305 0.62767 0.61339 0.0
C1964 C 0.37909 0.61443 0.59859 0.0
C1965 C 0.38046 0.6191 0.57527 0.0
C1966 C 0.45408 0.65993 0.61977 0.0
C1967 C 0.35211 0.5953 0.6074 0.0
H1968 H 0.44759 0.58618 0.67676 0.0
H1969 H 0.36253 0.6411 0.68755 0.0
H1970 H 0.43752 0.58038 0.61853 0.0
H1971 H 0.47378 0.60273 0.62257 0.0
H1972 H 0.47169 0.57674 0.64103 0.0
H1973 H 0.33438 0.66266 0.65776 0.0
H1974 H 0.36831 0.66935 0.63574 0.0
H1975 H 0.33285 0.6466 0.63121 0.0
H1976 H 0.4471 0.66395 0.5746 0.0
H1977 H 0.36225 0.60888 0.56394 0.0
H1978 H 0.47368 0.64739 0.62872 0.0
H1979 H 0.43736 0.66968 0.63283 0.0
H1980 H 0.4714 0.67337 0.61027 0.0
H1981 H 0.36848 0.58059 0.61574 0.0
H1982 H 0.33441 0.58721 0.59377 0.0
H1983 H 0.33292 0.60326 0.62033 0.0
C1984 C 0.29541 0.3721 0.23523 0.0
C1985 C 0.28513 0.3528 0.24935 0.0
C1986 C 0.33332 0.38024 0.23417 0.0
C1987 C 0.36121 0.36939 0.24823 0.0
C1988 C 0.35078 0.35003 0.26272 0.0
C1989 C 0.31296 0.34167 0.26279 0.0
C1990 C 0.34356 0.40035 0.21795 0.0
C1991 C 0.37936 0.33853 0.27852 0.0
C1992 C 0.46695 0.37566 0.23513 0.0
C1993 C 0.47709 0.39544 0.24871 0.0
C1994 C 0.42908 0.36738 0.23434 0.0
C1995 C 0.40114 0.37857 0.24814 0.0
C1996 C 0.41147 0.39837 0.26211 0.0
C1997 C 0.44921 0.40686 0.2619 0.0
C1998 C 0.41894 0.34677 0.21865 0.0
C1999 C 0.38285 0.41027 0.27763 0.0
H2000 H 0.27387 0.38057 0.2247 0.0
H2001 H 0.30488 0.32687 0.27387 0.0
H2002 H 0.35358 0.41647 0.22746 0.0
H2003 H 0.36732 0.39449 0.20683 0.0
H2004 H 0.31904 0.40583 0.20721 0.0
H2005 H 0.36643 0.32405 0.28909 0.0
H2006 H 0.40324 0.33058 0.26873 0.0
H2007 H 0.39167 0.35255 0.28982 0.0
H2008 H 0.48853 0.36696 0.22481 0.0
H2009 H 0.4572 0.42202 0.27257 0.0
H2010 H 0.39526 0.35231 0.20732 0.0
H2011 H 0.40883 0.33096 0.22856 0.0
H2012 H 0.44352 0.34096 0.20812 0.0
H2013 H 0.35901 0.418 0.26764 0.0
H2014 H 0.39574 0.42501 0.2879 0.0
H2015 H 0.37046 0.39654 0.28921 0.0
C2016 C 0.81104 0.84432 0.23623 0.0
C2017 C 0.78352 0.85518 0.25008 0.0
C2018 C 0.8487 0.85298 0.23581 0.0
C2019 C 0.85933 0.87233 0.25025 0.0
C2020 C 0.83171 0.88303 0.2646 0.0
C2021 C 0.79391 0.87462 0.26401 0.0
C2022 C 0.87696 0.84163 0.21972 0.0
C2023 C 0.84218 0.90312 0.28078 0.0
C2024 C 0.96499 0.87824 0.26358 0.0
C2025 C 0.97531 0.89823 0.25032 0.0
C2026 C 0.92714 0.86995 0.2641 0.0
C2027 C 0.89936 0.88135 0.25034 0.0
C2028 C 0.9099 0.9013 0.2366 0.0
C2029 C 0.94764 0.90981 0.2371 0.0
C2030 C 0.9168 0.84918 0.27957 0.0
C2031 C 0.88145 0.91343 0.22113 0.0
H2032 H 0.80285 0.82941 0.22531 0.0
H2033 H 0.77263 0.88286 0.27486 0.0
H2034 H 0.88946 0.8558 0.20865 0.0
H2035 H 0.90077 0.83331 0.22932 0.0
H2036 H 0.86372 0.82746 0.20893 0.0
H2037 H 0.8177 0.90878 0.29148 0.0
H2038 H 0.86577 0.89711 0.29196 0.0
H2039 H 0.85253 0.91916 0.27127 0.0
H2040 H 0.9864 0.86944 0.27395 0.0
H2041 H 0.95578 0.92516 0.22671 0.0
H2042 H 0.9064 0.83356 0.2695 0.0
H2043 H 0.89327 0.8547 0.29101 0.0
H2044 H 0.94135 0.84308 0.28998 0.0
H2045 H 0.86886 0.89981 0.20951 0.0
H2046 H 0.89457 0.92812 0.21091 0.0
H2047 H 0.85774 0.92125 0.23116 0.0
C2048 C 0.31279 0.91 0.01427 0.0
C2049 C 0.28489 0.89778 0.00173 0.0
C2050 C 0.35052 0.90148 0.01496 0.0
C2051 C 0.3608 0.8808 0.00213 0.0
C2052 C 0.33279 0.86871 0.98906 0.0
C2053 C 0.29498 0.87709 0.98936 0.0
C2054 C 0.37923 0.9144 0.02969 0.0
C2055 C 0.34285 0.8471 0.97456 0.0
C2056 C 0.46604 0.87327 0.98828 0.0
C2057 C 0.47657 0.85459 0.00305 0.0
C2058 C 0.42824 0.88165 0.98747 0.0
C2059 C 0.40081 0.87176 0.00244 0.0
C2060 C 0.41161 0.8532 0.01772 0.0
C2061 C 0.44925 0.8445 0.01752 0.0
C2062 C 0.41756 0.90083 0.9704 0.0
C2063 C 0.38357 0.84278 0.03448 0.0
H2064 H 0.30486 0.92589 0.02398 0.0
H2065 H 0.27341 0.86778 0.9795 0.0
H2066 H 0.39197 0.90142 0.04188 0.0
H2067 H 0.4028 0.92164 0.01918 0.0
H2068 H 0.3663 0.92965 0.03928 0.0
H2069 H 0.31812 0.84045 0.9646 0.0
H2070 H 0.3662 0.85195 0.96273 0.0
H2071 H 0.35339 0.83205 0.98531 0.0
H2072 H 0.4872 0.88089 0.97696 0.0
H2073 H 0.45758 0.83018 0.02907 0.0
H2074 H 0.40736 0.91737 0.97917 0.0
H2075 H 0.3938 0.89422 0.95965 0.0
H2076 H 0.44188 0.90587 0.95932 0.0
H2077 H 0.37126 0.85755 0.04493 0.0
H2078 H 0.39696 0.82921 0.04587 0.0
H2079 H 0.35963 0.83396 0.02542 0.0
C2080 C 0.9477 0.34167 0.01492 0.0
C2081 C 0.97549 0.35268 0.00138 0.0
C2082 C 0.91015 0.35053 0.01536 0.0
C2083 C 0.89991 0.37023 0.00122 0.0
C2084 C 0.92782 0.38105 0.98714 0.0
C2085 C 0.96549 0.37244 0.98774 0.0
C2086 C 0.88159 0.33905 0.03118 0.0
C2087 C 0.91777 0.4015 0.97125 0.0
C2088 C 0.7945 0.37724 0.98761 0.0
C2089 C 0.78447 0.39711 1.00109 0.0
C2090 C 0.83217 0.3686 0.98713 0.0
C2091 C 0.86003 0.37953 1.00117 0.0
C2092 C 0.84976 0.39934 0.01515 0.0
C2093 C 0.81222 0.40821 0.0146 0.0
C2094 C 0.84225 0.34801 0.9714 0.0
C2095 C 0.87827 0.41094 0.03092 0.0
H2096 H 0.9556 0.3265 0.0256 0.0
H2097 H 0.98701 0.38079 0.97711 0.0
H2098 H 0.86924 0.35308 0.04247 0.0
H2099 H 0.85772 0.33108 0.02139 0.0
H2100 H 0.89453 0.32458 0.04176 0.0
H2101 H 0.94239 0.40716 0.96067 0.0
H2102 H 0.89412 0.39585 0.95995 0.0
H2103 H 0.90767 0.41744 0.98098 0.0
H2104 H 0.77302 0.36881 0.97702 0.0
H2105 H 0.8043 0.42346 0.02517 0.0
H2106 H 0.8523 0.33215 0.98127 0.0
H2107 H 0.86595 0.35355 0.96009 0.0
H2108 H 0.81766 0.34227 0.96084 0.0
H2109 H 0.89056 0.397 0.04232 0.0
H2110 H 0.86531 0.42551 0.04137 0.0
H2111 H 0.90219 0.41883 0.0211 0.0
C2112 C 0.71602 0.62793 0.76649 0.0
C2113 C 0.72533 0.64798 0.75304 0.0
C2114 C 0.67854 0.61895 0.76719 0.0
C2115 C 0.65015 0.6297 0.75341 0.0
C2116 C 0.65964 0.64977 0.73955 0.0
C2117 C 0.69699 0.65896 0.73987 0.0
C2118 C 0.66927 0.59807 0.78276 0.0
C2119 C 0.63056 0.66124 0.72406 0.0
C2120 C 0.56349 0.59138 0.73863 0.0
C2121 C 0.5352 0.60198 0.7521 0.0
C2122 C 0.60096 0.60038 0.73871 0.0
C2123 C 0.6106 0.61984 0.75327 0.0
C2124 C 0.58226 0.63016 0.76738 0.0
C2125 C 0.54469 0.6214 0.76629 0.0
C2126 C 0.62999 0.58943 0.72287 0.0
C2127 C 0.59166 0.65036 0.78367 0.0
H2128 H 0.73794 0.61956 0.7768 0.0
H2129 H 0.70433 0.67432 0.72929 0.0
H2130 H 0.64537 0.60313 0.79412 0.0
H2131 H 0.65983 0.58216 0.77277 0.0
H2132 H 0.69409 0.59261 0.79326 0.0
H2133 H 0.64286 0.67622 0.71383 0.0
H2134 H 0.61876 0.64735 0.71243 0.0
H2135 H 0.60641 0.66853 0.73406 0.0
H2136 H 0.55601 0.57649 0.72751 0.0
H2137 H 0.52282 0.62946 0.77685 0.0
H2138 H 0.6542 0.58183 0.73262 0.0
H2139 H 0.64173 0.60371 0.71162 0.0
H2140 H 0.61767 0.57479 0.71224 0.0
H2141 H 0.61566 0.64484 0.79477 0.0
H2142 H 0.56693 0.65537 0.79444 0.0
H2143 H 0.601 0.66669 0.77423 0.0
C2144 C 0.04538 0.12157 0.76613 0.0
C2145 C 0.03629 0.10086 0.75352 0.0
C2146 C 0.08294 0.1304 0.7669 0.0
C2147 C 0.1117 0.11875 0.75405 0.0
C2148 C 0.10247 0.09797 0.74108 0.0
C2149 C 0.06498 0.08901 0.74131 0.0
C2150 C 0.09187 0.1521 0.78153 0.0
C2151 C 0.132 0.0855 0.72657 0.0
C2152 C 0.19875 0.15637 0.73861 0.0
C2153 C 0.22652 0.14663 0.75298 0.0
C2154 C 0.16139 0.1472 0.73854 0.0
C2155 C 0.15129 0.12853 0.75387 0.0
C2156 C 0.17913 0.11907 0.76882 0.0
C2157 C 0.21668 0.12791 0.76786 0.0
C2158 C 0.13296 0.15716 0.72177 0.0
C2159 C 0.16918 0.09979 0.78596 0.0
H2160 H 0.0232 0.13061 0.77573 0.0
H2161 H 0.05785 0.0731 0.7314 0.0
H2162 H 0.11542 0.14766 0.79335 0.0
H2163 H 0.10165 0.16742 0.77087 0.0
H2164 H 0.06678 0.15817 0.7915 0.0
H2165 H 0.11995 0.06993 0.71704 0.0
H2166 H 0.14424 0.09864 0.71435 0.0
H2167 H 0.15579 0.07882 0.73723 0.0
H2168 H 0.20657 0.17071 0.72696 0.0
H2169 H 0.23821 0.12054 0.77908 0.0
H2170 H 0.10853 0.16546 0.73081 0.0
H2171 H 0.12144 0.14221 0.71123 0.0
H2172 H 0.14575 0.17104 0.71046 0.0
H2173 H 0.14494 0.10597 0.79655 0.0
H2174 H 0.1936 0.09533 0.79717 0.0
H2175 H 0.15996 0.083 0.77722 0.0
C2176 C 0.54524 0.12794 0.98556 0.0
C2177 C 0.53551 0.14809 0.99877 0.0
C2178 C 0.58299 0.11947 0.98472 0.0
C2179 C 0.61128 0.13089 0.9981 0.0
C2180 C 0.60142 0.15111 0.01166 0.0
C2181 C 0.56375 0.15975 0.0115 0.0
C2182 C 0.59263 0.09839 0.96948 0.0
C2183 C 0.63042 0.16328 0.02673 0.0
C2184 C 0.6987 0.09346 0.01312 0.0
C2185 C 0.7266 0.1039 0.99926 0.0
C2186 C 0.66116 0.10231 0.01314 0.0
C2187 C 0.65103 0.1214 0.99828 0.0
C2188 C 0.679 0.13158 0.98383 0.0
C2189 C 0.7167 0.12303 0.98484 0.0
C2190 C 0.63255 0.09154 0.02936 0.0
C2191 C 0.66904 0.15137 0.96721 0.0
H2192 H 0.5234 0.11905 0.97558 0.0
H2193 H 0.5561 0.17521 0.02188 0.0
H2194 H 0.61637 0.10342 0.95799 0.0
H2195 H 0.60244 0.08275 0.97972 0.0
H2196 H 0.56787 0.09252 0.95912 0.0
H2197 H 0.61792 0.17845 0.03663 0.0
H2198 H 0.64264 0.14983 0.03866 0.0
H2199 H 0.65432 0.17047 0.01646 0.0
H2200 H 0.70654 0.07881 0.02442 0.0
H2201 H 0.73832 0.13095 0.97401 0.0
H2202 H 0.60847 0.0834 0.01988 0.0
H2203 H 0.62053 0.10602 0.04027 0.0
H2204 H 0.64534 0.07735 0.04033 0.0
H2205 H 0.64514 0.14538 0.95625 0.0
H2206 H 0.69361 0.1564 0.95632 0.0
H2207 H 0.65932 0.16778 0.97637 0.0
C2208 C 0.21554 0.62279 0.9853 0.0
C2209 C 0.22511 0.6027 0.99865 0.0
C2210 C 0.1779 0.6315 0.98456 0.0
C2211 C 0.14959 0.62041 0.99817 0.0
C2212 C 0.15933 0.60028 0.01189 0.0
C2213 C 0.19685 0.59139 0.01163 0.0
C2214 C 0.1684 0.65246 0.96914 0.0
C2215 C 0.13032 0.58845 0.0272 0.0
C2216 C 0.06236 0.65807 0.01324 0.0
C2217 C 0.03425 0.64747 0.99964 0.0
C2218 C 0.09996 0.64929 0.01309 0.0
C2219 C 0.10991 0.63005 0.99835 0.0
C2220 C 0.08176 0.61975 0.98411 0.0
C2221 C 0.04406 0.62828 0.98525 0.0
C2222 C 0.12879 0.66022 0.02907 0.0
C2223 C 0.09149 0.59978 0.96763 0.0
H2224 H 0.2374 0.63142 0.97514 0.0
H2225 H 0.20437 0.57599 0.02212 0.0
H2226 H 0.1446 0.64738 0.95772 0.0
H2227 H 0.15872 0.66823 0.97926 0.0
H2228 H 0.19318 0.65814 0.95871 0.0
H2229 H 0.14276 0.5734 0.03728 0.0
H2230 H 0.11829 0.60213 0.03897 0.0
H2231 H 0.1063 0.58118 0.01708 0.0
H2232 H 0.05465 0.67277 0.02452 0.0
H2233 H 0.02232 0.62022 0.97461 0.0
H2234 H 0.15294 0.66804 0.01942 0.0
H2235 H 0.14066 0.64588 0.0402 0.0
H2236 H 0.11624 0.67468 0.03982 0.0
H2237 H 0.11546 0.60555 0.95662 0.0
H2238 H 0.06686 0.59477 0.95678 0.0
H2239 H 0.101 0.5834 0.97692 0.0
C2240 C 0.46545 0.87647 0.76435 0.0
C2241 C 0.47621 0.89623 0.75092 0.0
C2242 C 0.42751 0.86835 0.76473 0.0
C2243 C 0.40012 0.87966 0.75063 0.0
C2244 C 0.41113 0.89934 0.73668 0.0
C2245 C 0.44895 0.90772 0.73735 0.0
C2246 C 0.41663 0.8479 0.78044 0.0
C2247 C 0.38313 0.91132 0.72084 0.0
C2248 C 0.3114 0.84285 0.73687 0.0
C2249 C 0.28393 0.85417 0.75042 0.0
C2250 C 0.34918 0.8513 0.73639 0.0
C2251 C 0.35994 0.8709 0.7505 0.0
C2252 C 0.33234 0.88207 0.76456 0.0
C2253 C 0.29444 0.87386 0.764 0.0
C2254 C 0.37742 0.83947 0.7206 0.0
C2255 C 0.34295 0.90242 0.78043 0.0
H2256 H 0.48657 0.86776 0.77499 0.0
H2257 H 0.45746 0.92289 0.72684 0.0
H2258 H 0.39306 0.85377 0.7917 0.0
H2259 H 0.4061 0.83218 0.77055 0.0
H2260 H 0.44095 0.84181 0.79105 0.0
H2261 H 0.39666 0.92569 0.7104 0.0
H2262 H 0.37041 0.89755 0.70943 0.0
H2263 H 0.35944 0.91956 0.7306 0.0
H2264 H 0.30309 0.82773 0.72623 0.0
H2265 H 0.27317 0.88245 0.77462 0.0
H2266 H 0.40095 0.83114 0.73041 0.0
H2267 H 0.39031 0.85335 0.70936 0.0
H2268 H 0.36404 0.82521 0.70997 0.0
H2269 H 0.36633 0.89649 0.79179 0.0
H2270 H 0.31845 0.90845 0.79092 0.0
H2271 H 0.35365 0.9182 0.77068 0.0
C2272 C 0.81316 0.34108 0.763 0.0
C2273 C 0.78534 0.35223 0.74957 0.0
C2274 C 0.85095 0.3495 0.76302 0.0
C2275 C 0.86138 0.36893 0.74862 0.0
C2276 C 0.83351 0.37979 0.73455 0.0
C2277 C 0.79562 0.37161 0.73553 0.0
C2278 C 0.8795 0.33797 0.77882 0.0
C2279 C 0.84374 0.39999 0.71842 0.0
C2280 C 0.94897 0.40675 0.76237 0.0
C2281 C 0.97695 0.39554 0.7491 0.0
C2282 C 0.91136 0.39803 0.76264 0.0
C2283 C 0.90126 0.37821 0.74863 0.0
C2284 C 0.92932 0.36719 0.73479 0.0
C2285 C 0.96706 0.37571 0.73553 0.0
C2286 C 0.88263 0.40974 0.7782 0.0
C2287 C 0.9194 0.34658 0.71906 0.0
H2288 H 0.80507 0.32622 0.77401 0.0
H2289 H 0.7741 0.38009 0.725 0.0
H2290 H 0.90351 0.33014 0.76904 0.0
H2291 H 0.89166 0.35196 0.79022 0.0
H2292 H 0.86661 0.32339 0.78929 0.0
H2293 H 0.81926 0.40545 0.70764 0.0
H2294 H 0.85358 0.4161 0.72801 0.0
H2295 H 0.86761 0.39423 0.70734 0.0
H2296 H 0.95677 0.42196 0.77303 0.0
H2297 H 0.98872 0.36717 0.72515 0.0
H2298 H 0.87023 0.39589 0.78966 0.0
H2299 H 0.85882 0.41752 0.76822 0.0
H2300 H 0.89542 0.42441 0.7886 0.0
H2301 H 0.90925 0.33074 0.72892 0.0
H2302 H 0.94411 0.34081 0.7086 0.0
H2303 H 0.89582 0.35209 0.70765 0.0
C2304 C 0.2957 0.37891 0.48825 0.0
C2305 C 0.28561 0.39902 0.50141 0.0
C2306 C 0.33338 0.37028 0.48793 0.0
C2307 C 0.36122 0.38148 0.50179 0.0
C2308 C 0.35094 0.40159 0.51539 0.0
C2309 C 0.31338 0.41042 0.5147 0.0
C2310 C 0.34346 0.34935 0.4726 0.0
C2311 C 0.37944 0.41351 0.53097 0.0
C2312 C 0.44826 0.3434 0.51635 0.0
C2313 C 0.47623 0.35383 0.50254 0.0
C2314 C 0.4109 0.35259 0.51667 0.0
C2315 C 0.40103 0.37204 0.50215 0.0
C2316 C 0.42914 0.38235 0.48788 0.0
C2317 C 0.46663 0.37341 0.48858 0.0
C2318 C 0.38213 0.34166 0.53268 0.0
C2319 C 0.41947 0.40252 0.4716 0.0
H2320 H 0.27423 0.37024 0.47783 0.0
H2321 H 0.30543 0.42586 0.52503 0.0
H2322 H 0.36738 0.35456 0.46131 0.0
H2323 H 0.35319 0.33365 0.48279 0.0
H2324 H 0.31896 0.3435 0.46202 0.0
H2325 H 0.36655 0.42843 0.54101 0.0
H2326 H 0.39142 0.39984 0.54277 0.0
H2327 H 0.40356 0.42098 0.52105 0.0
H2328 H 0.45583 0.32836 0.52728 0.0
H2329 H 0.48827 0.38131 0.47775 0.0
H2330 H 0.35833 0.33344 0.52301 0.0
H2331 H 0.36973 0.35603 0.54356 0.0
H2332 H 0.39488 0.32748 0.54367 0.0
H2333 H 0.39601 0.39669 0.46025 0.0
H2334 H 0.4443 0.40795 0.46109 0.0
H2335 H 0.40924 0.41865 0.481 0.0
C2336 C 0.94784 0.84312 0.4902 0.0
C2337 C 0.97613 0.85464 0.503 0.0
C2338 C 0.91021 0.85182 0.49011 0.0
C2339 C 0.90044 0.87195 0.50381 0.0
C2340 C 0.92881 0.88328 0.51719 0.0
C2341 C 0.96654 0.87476 0.51628 0.0
C2342 C 0.88111 0.83975 0.47503 0.0
C2343 C 0.91926 0.90426 0.53258 0.0
C2344 C 0.81219 0.90883 0.48925 0.0
C2345 C 0.78458 0.89802 0.50308 0.0
C2346 C 0.84996 0.90038 0.48917 0.0
C2347 C 0.86059 0.88129 0.50391 0.0
C2348 C 0.83295 0.8708 0.51838 0.0
C2349 C 0.79505 0.87898 0.51746 0.0
C2350 C 0.87824 0.91149 0.47295 0.0
C2351 C 0.84343 0.85098 0.53486 0.0
H2352 H 0.95539 0.82769 0.47977 0.0
H2353 H 0.98843 0.88353 0.52631 0.0
H2354 H 0.85749 0.83226 0.48536 0.0
H2355 H 0.86852 0.85332 0.46336 0.0
H2356 H 0.89364 0.82481 0.46486 0.0
H2357 H 0.94418 0.91022 0.54275 0.0
H2358 H 0.90897 0.91988 0.52248 0.0
H2359 H 0.89588 0.89904 0.54425 0.0
H2360 H 0.80393 0.92342 0.47798 0.0
H2361 H 0.77369 0.87077 0.52827 0.0
H2362 H 0.89011 0.89721 0.46175 0.0
H2363 H 0.90247 0.9195 0.48239 0.0
H2364 H 0.8652 0.92584 0.46227 0.0
H2365 H 0.853 0.83462 0.52556 0.0
H2366 H 0.81915 0.84585 0.54594 0.0
H2367 H 0.86756 0.85697 0.54564 0.0
C2368 C 0.54515 0.12215 0.26749 0.0
C2369 C 0.53555 0.10256 0.25354 0.0
C2370 C 0.58279 0.13081 0.26847 0.0
C2371 C 0.61104 0.12023 0.25448 0.0
C2372 C 0.60127 0.1006 0.24016 0.0
C2373 C 0.56376 0.09169 0.2402 0.0
C2374 C 0.59234 0.1512 0.28453 0.0
C2375 C 0.6302 0.08937 0.22442 0.0
C2376 C 0.69763 0.15888 0.24045 0.0
C2377 C 0.72596 0.14797 0.25367 0.0
C2378 C 0.66021 0.14983 0.24034 0.0
C2379 C 0.65064 0.12999 0.25446 0.0
C2380 C 0.67903 0.11931 0.26829 0.0
C2381 C 0.71659 0.12814 0.26738 0.0
C2382 C 0.63113 0.16119 0.22477 0.0
C2383 C 0.66968 0.09869 0.28413 0.0
H2384 H 0.52331 0.13041 0.27794 0.0
H2385 H 0.55617 0.07667 0.22926 0.0
H2386 H 0.61636 0.14578 0.29566 0.0
H2387 H 0.60172 0.16739 0.2749 0.0
H2388 H 0.56767 0.15639 0.29527 0.0
H2389 H 0.61776 0.07463 0.21396 0.0
H2390 H 0.64201 0.10347 0.213 0.0
H2391 H 0.65438 0.08183 0.23424 0.0
H2392 H 0.70504 0.17408 0.22969 0.0
H2393 H 0.73851 0.11984 0.27773 0.0
H2394 H 0.60709 0.16868 0.23474 0.0
H2395 H 0.61916 0.14718 0.21333 0.0
H2396 H 0.64348 0.17599 0.21435 0.0
H2397 H 0.64586 0.10397 0.29546 0.0
H2398 H 0.69451 0.09332 0.29467 0.0
H2399 H 0.66011 0.08265 0.27435 0.0
C2400 C 0.0632 0.59119 0.26497 0.0
C2401 C 0.0352 0.60213 0.25153 0.0
C2402 C 0.10061 0.60029 0.26547 0.0
C2403 C 0.11051 0.62019 0.2515 0.0
C2404 C 0.08239 0.63098 0.23755 0.0
C2405 C 0.04485 0.62211 0.23808 0.0
C2406 C 0.12939 0.58881 0.28114 0.0
C2407 C 0.09207 0.65166 0.22183 0.0
C2408 C 0.19796 0.65838 0.26501 0.0
C2409 C 0.22574 0.64749 0.25137 0.0
C2410 C 0.16048 0.64938 0.26555 0.0
C2411 C 0.1503 0.62967 0.25143 0.0
C2412 C 0.17819 0.61897 0.23725 0.0
C2413 C 0.2158 0.62771 0.23775 0.0
C2414 C 0.13196 0.66073 0.28148 0.0
C2415 C 0.1682 0.59851 0.22136 0.0
H2416 H 0.05558 0.57585 0.27552 0.0
H2417 H 0.02319 0.63043 0.22755 0.0
H2418 H 0.15327 0.58101 0.27124 0.0
H2419 H 0.14167 0.6028 0.29249 0.0
H2420 H 0.11667 0.5742 0.29166 0.0
H2421 H 0.0673 0.65734 0.21139 0.0
H2422 H 0.10209 0.66753 0.23169 0.0
H2423 H 0.11569 0.64625 0.21041 0.0
H2424 H 0.20582 0.67357 0.27568 0.0
H2425 H 0.2373 0.61946 0.22705 0.0
H2426 H 0.11988 0.64664 0.2928 0.0
H2427 H 0.10791 0.6686 0.27178 0.0
H2428 H 0.14485 0.67525 0.29202 0.0
H2429 H 0.1584 0.5825 0.2311 0.0
H2430 H 0.19277 0.59298 0.21068 0.0
H2431 H 0.14436 0.60407 0.21017 0.0
C2432 C 0.69726 0.5926 0.51204 0.0
C2433 C 0.72547 0.6039 0.499 0.0
C2434 C 0.65972 0.60145 0.51228 0.0
C2435 C 0.6499 0.6215 0.49848 0.0
C2436 C 0.67816 0.63256 0.48481 0.0
C2437 C 0.71583 0.62391 0.48558 0.0
C2438 C 0.63076 0.58967 0.52766 0.0
C2439 C 0.66857 0.65342 0.4693 0.0
C2440 C 0.54442 0.62922 0.48535 0.0
C2441 C 0.53457 0.64855 0.49955 0.0
C2442 C 0.58211 0.62065 0.48436 0.0
C2443 C 0.61018 0.63107 0.49859 0.0
C2444 C 0.60015 0.65041 0.51318 0.0
C2445 C 0.56258 0.65923 0.51316 0.0
C2446 C 0.59194 0.60057 0.46802 0.0
C2447 C 0.62889 0.66146 0.52915 0.0
H2448 H 0.70486 0.57726 0.52259 0.0
H2449 H 0.73765 0.63251 0.47537 0.0
H2450 H 0.61866 0.6034 0.53935 0.0
H2451 H 0.60678 0.58228 0.51757 0.0
H2452 H 0.64327 0.5747 0.53782 0.0
H2453 H 0.69333 0.6591 0.45884 0.0
H2454 H 0.64481 0.64824 0.45789 0.0
H2455 H 0.65882 0.66923 0.47933 0.0
H2456 H 0.52275 0.6211 0.47469 0.0
H2457 H 0.55481 0.67405 0.5243 0.0
H2458 H 0.60156 0.58429 0.47742 0.0
H2459 H 0.61586 0.60631 0.45696 0.0
H2460 H 0.56733 0.59541 0.45722 0.0
H2461 H 0.64085 0.64719 0.54032 0.0
H2462 H 0.61623 0.67592 0.53986 0.0
H2463 H 0.653 0.66932 0.51949 0.0
C2464 C 0.06236 0.15827 0.51364 0.0
C2465 C 0.03457 0.14741 0.49998 0.0
C2466 C 0.10012 0.14979 0.5136 0.0
C2467 C 0.11056 0.1306 0.49892 0.0
C2468 C 0.08274 0.12008 0.48459 0.0
C2469 C 0.04488 0.12831 0.48562 0.0
C2470 C 0.1286 0.16094 0.52967 0.0
C2471 C 0.09298 0.10016 0.46817 0.0
C2472 C 0.21632 0.12352 0.48616 0.0
C2473 C 0.22581 0.10339 0.49946 0.0
C2474 C 0.1787 0.13225 0.48541 0.0
C2475 C 0.15034 0.12114 0.49897 0.0
C2476 C 0.16003 0.10103 0.51271 0.0
C2477 C 0.19753 0.09211 0.51246 0.0
C2478 C 0.16922 0.1532 0.46996 0.0
C2479 C 0.13096 0.08917 0.52797 0.0
H2480 H 0.05425 0.17291 0.52489 0.0
H2481 H 0.02339 0.12005 0.47493 0.0
H2482 H 0.14039 0.14672 0.54096 0.0
H2483 H 0.15286 0.16876 0.52012 0.0
H2484 H 0.11576 0.17544 0.54026 0.0
H2485 H 0.06861 0.09506 0.45716 0.0
H2486 H 0.11712 0.10601 0.45733 0.0
H2487 H 0.10244 0.08381 0.47753 0.0
H2488 H 0.2382 0.13211 0.47598 0.0
H2489 H 0.205 0.07667 0.52291 0.0
H2490 H 0.15906 0.16889 0.48002 0.0
H2491 H 0.14577 0.14799 0.45835 0.0
H2492 H 0.19414 0.15906 0.45973 0.0
H2493 H 0.11854 0.10288 0.53956 0.0
H2494 H 0.14347 0.07429 0.53823 0.0
H2495 H 0.10723 0.08166 0.51776 0.0
loop_
_geom_bond_atom_site_label_1
_geom_bond_atom_site_label_2
_geom_bond_distance
_geom_bond_site_symmetry_2
_ccdc_geom_bond_type
C0 O2 1.247 . S
C0 O4 1.258 . S
C1 O8 1.247 . S
C1 O9 1.258 . S
O2 C0 1.247 . S
O2 Zn3 2.028 . S
Zn3 O2 2.028 . S
Zn3 O7 2.035 . S
Zn3 O9 2.035 . S
Zn3 O10 2.028 . S
O4 C0 1.258 . S
O4 Zn5 2.035 . S
Zn5 O4 2.035 . S
Zn5 O6 2.028 . S
Zn5 O8 2.028 . S
Zn5 O11 2.035 . S
O6 Zn5 2.028 . S
O6 C12 1.247 . S
O7 Zn3 2.035 . S
O7 C12 1.258 . S
O8 C1 1.247 . S
O8 Zn5 2.028 . S
O9 C1 1.258 . S
O9 Zn3 2.035 . S
O10 Zn3 2.028 . S
O10 C13 1.247 . S
O11 Zn5 2.035 . S
O11 C13 1.258 . S
C12 O6 1.247 . S
C12 O7 1.258 . S
C13 O10 1.247 . S
C13 O11 1.258 . S
C14 O16 1.247 . S
C14 O18 1.258 . S
C15 O22 1.247 . S
C15 O23 1.258 . S
O16 C14 1.247 . S
O16 Zn17 2.028 . S
Zn17 O16 2.028 . S
Zn17 O21 2.035 . S
Zn17 O23 2.035 . S
Zn17 O24 2.028 . S
O18 C14 1.258 . S
O18 Zn19 2.035 . S
Zn19 O18 2.035 . S
Zn19 O20 2.028 . S
Zn19 O22 2.028 . S
Zn19 O25 2.035 . S
O20 Zn19 2.028 . S
O20 C26 1.247 . S
O21 Zn17 2.035 . S
O21 C26 1.258 . S
O22 C15 1.247 . S
O22 Zn19 2.028 . S
O23 C15 1.258 . S
O23 Zn17 2.035 . S
O24 Zn17 2.028 . S
O24 C27 1.247 . S
O25 Zn19 2.035 . S
O25 C27 1.258 . S
C26 O20 1.247 . S
C26 O21 1.258 . S
C27 O24 1.247 . S
C27 O25 1.258 . S
C28 O30 1.247 . S
C28 O32 1.258 . S
C29 O36 1.247 . S
C29 O37 1.258 . S
O30 C28 1.247 . S
O30 Zn31 2.028 . S
Zn31 O30 2.028 . S
Zn31 O35 2.035 . S
Zn31 O37 2.035 1_556 S
Zn31 O38 2.026 1_556 S
O32 C28 1.258 . S
O32 Zn33 2.035 1_556 S
Zn33 O32 2.035 1_554 S
Zn33 O34 2.028 1_554 S
Zn33 O36 2.028 . S
Zn33 O39 2.035 . S
O34 Zn33 2.028 1_556 S
O34 C40 1.247 . S
O35 Zn31 2.035 . S
O35 C40 1.258 . S
O36 C29 1.247 . S
O36 Zn33 2.028 . S
O37 C29 1.258 . S
O37 Zn31 2.035 1_554 S
O38 Zn31 2.026 1_554 S
O38 C41 1.248 . S
O39 Zn33 2.035 . S
O39 C41 1.258 . S
C40 O34 1.247 . S
C40 O35 1.258 . S
C41 O38 1.248 . S
C41 O39 1.258 . S
C42 O44 1.247 . S
C42 O46 1.258 . S
C43 O50 1.248 . S
C43 O51 1.258 . S
O44 C42 1.247 . S
O44 Zn45 2.028 1_556 S
Zn45 O44 2.028 1_554 S
Zn45 O49 2.035 1_554 S
Zn45 O51 2.035 . S
Zn45 O52 2.028 . S
O46 C42 1.258 . S
O46 Zn47 2.035 . S
Zn47 O46 2.035 . S
Zn47 O48 2.028 . S
Zn47 O50 2.026 1_556 S
Zn47 O53 2.035 1_556 S
O48 Zn47 2.028 . S
O48 C54 1.247 . S
O49 Zn45 2.035 1_556 S
O49 C54 1.258 . S
O50 C43 1.248 . S
O50 Zn47 2.026 1_554 S
O51 C43 1.258 . S
O51 Zn45 2.035 . S
O52 Zn45 2.028 . S
O52 C55 1.247 . S
O53 Zn47 2.035 1_554 S
O53 C55 1.258 . S
C54 O48 1.247 . S
C54 O49 1.258 . S
C55 O52 1.247 . S
C55 O53 1.258 . S
C56 O58 1.247 . S
C56 O60 1.258 . S
C57 O64 1.247 . S
C57 O65 1.258 . S
O58 C56 1.247 . S
O58 Zn59 2.028 . S
Zn59 O58 2.028 . S
Zn59 O63 2.035 . S
Zn59 O65 2.035 . S
Zn59 O66 2.028 . S
O60 C56 1.258 . S
O60 Zn61 2.035 . S
Zn61 O60 2.035 . S
Zn61 O62 2.028 . S
Zn61 O64 2.028 . S
Zn61 O67 2.035 . S
O62 Zn61 2.028 . S
O62 C68 1.247 . S
O63 Zn59 2.035 . S
O63 C68 1.258 . S
O64 C57 1.247 . S
O64 Zn61 2.028 . S
O65 C57 1.258 . S
O65 Zn59 2.035 . S
O66 Zn59 2.028 . S
O66 C69 1.247 . S
O67 Zn61 2.035 . S
O67 C69 1.258 . S
C68 O62 1.247 . S
C68 O63 1.258 . S
C69 O66 1.247 . S
C69 O67 1.258 . S
C70 O72 1.247 . S
C70 O74 1.258 . S
C71 O78 1.247 . S
C71 O79 1.258 . S
O72 C70 1.247 . S
O72 Zn73 2.028 . S
Zn73 O72 2.028 . S
Zn73 O77 2.035 . S
Zn73 O79 2.035 . S
Zn73 O80 2.028 . S
O74 C70 1.258 . S
O74 Zn75 2.035 . S
Zn75 O74 2.035 . S
Zn75 O76 2.028 . S
Zn75 O78 2.028 . S
Zn75 O81 2.035 . S
O76 Zn75 2.028 . S
O76 C82 1.247 . S
O77 Zn73 2.035 . S
O77 C82 1.258 . S
O78 C71 1.247 . S
O78 Zn75 2.028 . S
O79 C71 1.258 . S
O79 Zn73 2.035 . S
O80 Zn73 2.028 . S
O80 C83 1.247 . S
O81 Zn75 2.035 . S
O81 C83 1.258 . S
C82 O76 1.247 . S
C82 O77 1.258 . S
C83 O80 1.247 . S
C83 O81 1.258 . S
C84 O86 1.247 . S
C84 O88 1.258 . S
C85 O92 1.247 . S
C85 O93 1.258 . S
O86 C84 1.247 . S
O86 Zn87 2.028 1_554 S
Zn87 O86 2.028 1_556 S
Zn87 O91 2.032 1_556 S
Zn87 O93 2.035 . S
Zn87 O94 2.028 . S
O88 C84 1.258 . S
O88 Zn89 2.035 . S
Zn89 O88 2.035 . S
Zn89 O90 2.028 . S
Zn89 O92 2.028 1_554 S
Zn89 O95 2.034 1_554 S
O90 Zn89 2.028 . S
O90 C96 1.247 . S
O91 Zn87 2.032 1_554 S
O91 C96 1.261 . S
O92 C85 1.247 . S
O92 Zn89 2.028 1_556 S
O93 C85 1.258 . S
O93 Zn87 2.035 . S
O94 Zn87 2.028 . S
O94 C97 1.247 . S
O95 Zn89 2.034 1_556 S
O95 C97 1.259 . S
C96 O90 1.247 . S
C96 O91 1.261 . S
C97 O94 1.247 . S
C97 O95 1.259 . S
C98 O100 1.247 . S
C98 O102 1.258 . S
C99 O106 1.247 . S
C99 O107 1.258 . S
O100 C98 1.247 . S
O100 Zn101 2.028 . S
Zn101 O100 2.028 . S
Zn101 O105 2.035 . S
Zn101 O107 2.035 1_556 S
Zn101 O108 2.028 1_556 S
O102 C98 1.258 . S
O102 Zn103 2.035 1_556 S
Zn103 O102 2.035 1_554 S
Zn103 O104 2.026 1_554 S
Zn103 O106 2.028 . S
Zn103 O109 2.035 . S
O104 Zn103 2.026 1_556 S
O104 C110 1.248 . S
O105 Zn101 2.035 . S
O105 C110 1.258 . S
O106 C99 1.247 . S
O106 Zn103 2.028 . S
O107 C99 1.258 . S
O107 Zn101 2.035 1_554 S
O108 Zn101 2.028 1_554 S
O108 C111 1.247 . S
O109 Zn103 2.035 . S
O109 C111 1.258 . S
C110 O104 1.248 . S
C110 O105 1.258 . S
C111 O108 1.247 . S
C111 O109 1.258 . S
C112 O114 1.247 . S
C112 O116 1.258 . S
C113 O120 1.247 . S
C113 O121 1.258 . S
O114 C112 1.247 . S
O114 Zn115 2.028 . S
Zn115 O114 2.028 . S
Zn115 O119 2.035 . S
Zn115 O121 2.035 . S
Zn115 O122 2.028 . S
O116 C112 1.258 . S
O116 Zn117 2.035 . S
Zn117 O116 2.035 . S
Zn117 O118 2.028 . S
Zn117 O120 2.028 . S
Zn117 O123 2.035 . S
O118 Zn117 2.028 . S
O118 C124 1.247 . S
O119 Zn115 2.035 . S
O119 C124 1.258 . S
O120 C113 1.247 . S
O120 Zn117 2.028 . S
O121 C113 1.258 . S
O121 Zn115 2.035 . S
O122 Zn115 2.028 . S
O122 C125 1.247 . S
O123 Zn117 2.035 . S
O123 C125 1.258 . S
C124 O118 1.247 . S
C124 O119 1.258 . S
C125 O122 1.247 . S
C125 O123 1.258 . S
C126 O128 1.247 . S
C126 O130 1.258 . S
C127 O134 1.247 . S
C127 O135 1.258 . S
O128 C126 1.247 . S
O128 Zn129 2.028 . S
Zn129 O128 2.028 . S
Zn129 O133 2.035 . S
Zn129 O135 2.035 . S
Zn129 O136 2.028 . S
O130 C126 1.258 . S
O130 Zn131 2.035 . S
Zn131 O130 2.035 . S
Zn131 O132 2.028 . S
Zn131 O134 2.028 . S
Zn131 O137 2.035 . S
O132 Zn131 2.028 . S
O132 C138 1.247 . S
O133 Zn129 2.035 . S
O133 C138 1.258 . S
O134 C127 1.247 . S
O134 Zn131 2.028 . S
O135 C127 1.258 . S
O135 Zn129 2.035 . S
O136 Zn129 2.028 . S
O136 C139 1.247 . S
O137 Zn131 2.035 . S
O137 C139 1.258 . S
C138 O132 1.247 . S
C138 O133 1.258 . S
C139 O136 1.247 . S
C139 O137 1.258 . S
C140 O142 1.247 . S
C140 O144 1.258 . S
C141 O148 1.247 . S
C141 O149 1.258 . S
O142 C140 1.247 . S
O142 Zn143 2.028 . S
Zn143 O142 2.028 . S
Zn143 O147 2.035 . S
Zn143 O149 2.035 . S
Zn143 O150 2.028 . S
O144 C140 1.258 . S
O144 Zn145 2.035 . S
Zn145 O144 2.035 . S
Zn145 O146 2.028 . S
Zn145 O148 2.028 . S
Zn145 O151 2.035 . S
O146 Zn145 2.028 . S
O146 C152 1.247 . S
O147 Zn143 2.035 . S
O147 C152 1.258 . S
O148 C141 1.247 . S
O148 Zn145 2.028 . S
O149 C141 1.258 . S
O149 Zn143 2.035 . S
O150 Zn143 2.028 . S
O150 C153 1.247 . S
O151 Zn145 2.035 . S
O151 C153 1.258 . S
C152 O146 1.247 . S
C152 O147 1.258 . S
C153 O150 1.247 . S
C153 O151 1.258 . S
C154 O156 1.247 . S
C154 O158 1.258 . S
C155 O162 1.247 . S
C155 O163 1.258 . S
O156 C154 1.247 . S
O156 Zn157 2.028 . S
Zn157 O156 2.028 . S
Zn157 O161 2.035 . S
Zn157 O163 2.035 . S
Zn157 O164 2.028 . S
O158 C154 1.258 . S
O158 Zn159 2.035 . S
Zn159 O158 2.035 . S
Zn159 O160 2.028 . S
Zn159 O162 2.028 . S
Zn159 O165 2.035 . S
O160 Zn159 2.028 . S
O160 C166 1.247 . S
O161 Zn157 2.035 . S
O161 C166 1.258 . S
O162 C155 1.247 . S
O162 Zn159 2.028 . S
O163 C155 1.258 . S
O163 Zn157 2.035 . S
O164 Zn157 2.028 . S
O164 C167 1.247 . S
O165 Zn159 2.035 . S
O165 C167 1.258 . S
C166 O160 1.247 . S
C166 O161 1.258 . S
C167 O164 1.247 . S
C167 O165 1.258 . S
C168 O170 1.247 . S
C168 O172 1.258 . S
C169 O176 1.247 . S
C169 O177 1.258 . S
O170 C168 1.247 . S
O170 Zn171 2.028 . S
Zn171 O170 2.028 . S
Zn171 O175 2.035 . S
Zn171 O177 2.035 . S
Zn171 O178 2.028 . S
O172 C168 1.258 . S
O172 Zn173 2.035 . S
Zn173 O172 2.035 . S
Zn173 O174 2.028 . S
Zn173 O176 2.028 . S
Zn173 O179 2.035 . S
O174 Zn173 2.028 . S
O174 C180 1.247 . S
O175 Zn171 2.035 . S
O175 C180 1.258 . S
O176 C169 1.247 . S
O176 Zn173 2.028 . S
O177 C169 1.258 . S
O177 Zn171 2.035 . S
O178 Zn171 2.028 . S
O178 C181 1.247 . S
O179 Zn173 2.035 . S
O179 C181 1.258 . S
C180 O174 1.247 . S
C180 O175 1.258 . S
C181 O178 1.247 . S
C181 O179 1.258 . S
C182 O184 1.247 . S
C182 O186 1.258 . S
C183 O190 1.247 . S
C183 O191 1.258 . S
O184 C182 1.247 . S
O184 Zn185 2.028 . S
Zn185 O184 2.028 . S
Zn185 O189 2.035 . S
Zn185 O191 2.035 . S
Zn185 O192 2.028 . S
O186 C182 1.258 . S
O186 Zn187 2.035 . S
Zn187 O186 2.035 . S
Zn187 O188 2.028 . S
Zn187 O190 2.028 . S
Zn187 O193 2.035 . S
O188 Zn187 2.028 . S
O188 C194 1.247 . S
O189 Zn185 2.035 . S
O189 C194 1.258 . S
O190 C183 1.247 . S
O190 Zn187 2.028 . S
O191 C183 1.258 . S
O191 Zn185 2.035 . S
O192 Zn185 2.028 . S
O192 C195 1.247 . S
O193 Zn187 2.035 . S
O193 C195 1.258 . S
C194 O188 1.247 . S
C194 O189 1.258 . S
C195 O192 1.247 . S
C195 O193 1.258 . S
C196 O198 1.247 . S
C196 O200 1.258 . S
C197 O204 1.247 . S
C197 O205 1.258 . S
O198 C196 1.247 . S
O198 Zn199 2.028 . S
Zn199 O198 2.028 . S
Zn199 O203 2.035 . S
Zn199 O205 2.035 . S
Zn199 O206 2.028 . S
O200 C196 1.258 . S
O200 Zn201 2.035 . S
Zn201 O200 2.035 . S
Zn201 O202 2.028 . S
Zn201 O204 2.028 . S
Zn201 O207 2.035 . S
O202 Zn201 2.028 . S
O202 C208 1.247 . S
O203 Zn199 2.035 . S
O203 C208 1.258 . S
O204 C197 1.247 . S
O204 Zn201 2.028 . S
O205 C197 1.258 . S
O205 Zn199 2.035 . S
O206 Zn199 2.028 . S
O206 C209 1.247 . S
O207 Zn201 2.035 . S
O207 C209 1.258 . S
C208 O202 1.247 . S
C208 O203 1.258 . S
C209 O206 1.247 . S
C209 O207 1.258 . S
C210 O212 1.247 . S
C210 O214 1.258 . S
C211 O218 1.247 . S
C211 O219 1.258 . S
O212 C210 1.247 . S
O212 Zn213 2.028 . S
Zn213 O212 2.028 . S
Zn213 O217 2.035 . S
Zn213 O219 2.035 . S
Zn213 O220 2.028 . S
O214 C210 1.258 . S
O214 Zn215 2.035 . S
Zn215 O214 2.035 . S
Zn215 O216 2.028 . S
Zn215 O218 2.028 . S
Zn215 O221 2.035 . S
O216 Zn215 2.028 . S
O216 C222 1.247 . S
O217 Zn213 2.035 . S
O217 C222 1.258 . S
O218 C211 1.247 . S
O218 Zn215 2.028 . S
O219 C211 1.258 . S
O219 Zn213 2.035 . S
O220 Zn213 2.028 . S
O220 C223 1.247 . S
O221 Zn215 2.035 . S
O221 C223 1.258 . S
C222 O216 1.247 . S
C222 O217 1.258 . S
C223 O220 1.247 . S
C223 O221 1.258 . S
C224 O226 1.247 . S
C224 O228 1.258 . S
C225 O232 1.247 . S
C225 O233 1.258 . S
O226 C224 1.247 . S
O226 Zn227 2.028 . S
Zn227 O226 2.028 . S
Zn227 O231 2.035 . S
Zn227 O233 2.035 . S
Zn227 O234 2.028 . S
O228 C224 1.258 . S
O228 Zn229 2.035 . S
Zn229 O228 2.035 . S
Zn229 O230 2.028 . S
Zn229 O232 2.028 . S
Zn229 O235 2.035 . S
O230 Zn229 2.028 . S
O230 C236 1.247 . S
O231 Zn227 2.035 . S
O231 C236 1.258 . S
O232 C225 1.247 . S
O232 Zn229 2.028 . S
O233 C225 1.258 . S
O233 Zn227 2.035 . S
O234 Zn227 2.028 . S
O234 C237 1.247 . S
O235 Zn229 2.035 . S
O235 C237 1.258 . S
C236 O230 1.247 . S
C236 O231 1.258 . S
C237 O234 1.247 . S
C237 O235 1.258 . S
C238 O240 1.247 . S
C238 O242 1.258 . S
C239 O246 1.247 . S
C239 O247 1.258 . S
O240 C238 1.247 . S
O240 Zn241 2.028 . S
Zn241 O240 2.028 . S
Zn241 O245 2.035 . S
Zn241 O247 2.035 . S
Zn241 O248 2.028 . S
O242 C238 1.258 . S
O242 Zn243 2.035 . S
Zn243 O242 2.035 . S
Zn243 O244 2.028 . S
Zn243 O246 2.028 . S
Zn243 O249 2.035 . S
O244 Zn243 2.028 . S
O244 C250 1.247 . S
O245 Zn241 2.035 . S
O245 C250 1.258 . S
O246 C239 1.247 . S
O246 Zn243 2.028 . S
O247 C239 1.258 . S
O247 Zn241 2.035 . S
O248 Zn241 2.028 . S
O248 C251 1.247 . S
O249 Zn243 2.035 . S
O249 C251 1.258 . S
C250 O244 1.247 . S
C250 O245 1.258 . S
C251 O248 1.247 . S
C251 O249 1.258 . S
C252 O254 1.247 . S
C252 O256 1.258 . S
C253 O260 1.247 . S
C253 O261 1.258 . S
O254 C252 1.247 . S
O254 Zn255 2.028 . S
Zn255 O254 2.028 . S
Zn255 O259 2.035 . S
Zn255 O261 2.035 . S
Zn255 O262 2.028 . S
O256 C252 1.258 . S
O256 Zn257 2.035 . S
Zn257 O256 2.035 . S
Zn257 O258 2.028 . S
Zn257 O260 2.028 . S
Zn257 O263 2.035 . S
O258 Zn257 2.028 . S
O258 C264 1.247 . S
O259 Zn255 2.035 . S
O259 C264 1.258 . S
O260 C253 1.247 . S
O260 Zn257 2.028 . S
O261 C253 1.258 . S
O261 Zn255 2.035 . S
O262 Zn255 2.028 . S
O262 C265 1.247 . S
O263 Zn257 2.035 . S
O263 C265 1.258 . S
C264 O258 1.247 . S
C264 O259 1.258 . S
C265 O262 1.247 . S
C265 O263 1.258 . S
C266 O268 1.247 . S
C266 O270 1.258 . S
C267 O274 1.247 . S
C267 O275 1.258 . S
O268 C266 1.247 . S
O268 Zn269 2.028 . S
Zn269 O268 2.028 . S
Zn269 O273 2.035 . S
Zn269 O275 2.035 . S
Zn269 O276 2.028 . S
O270 C266 1.258 . S
O270 Zn271 2.035 . S
Zn271 O270 2.035 . S
Zn271 O272 2.028 . S
Zn271 O274 2.028 . S
Zn271 O277 2.035 . S
O272 Zn271 2.028 . S
O272 C278 1.247 . S
O273 Zn269 2.035 . S
O273 C278 1.258 . S
O274 C267 1.247 . S
O274 Zn271 2.028 . S
O275 C267 1.258 . S
O275 Zn269 2.035 . S
O276 Zn269 2.028 . S
O276 C279 1.247 . S
O277 Zn271 2.035 . S
O277 C279 1.258 . S
C278 O272 1.247 . S
C278 O273 1.258 . S
C279 O276 1.247 . S
C279 O277 1.258 . S
C280 O282 1.247 . S
C280 O284 1.258 . S
C281 O288 1.247 . S
C281 O289 1.258 . S
O282 C280 1.247 . S
O282 Zn283 2.028 . S
Zn283 O282 2.028 . S
Zn283 O287 2.035 . S
Zn283 O289 2.035 . S
Zn283 O290 2.028 . S
O284 C280 1.258 . S
O284 Zn285 2.035 . S
Zn285 O284 2.035 . S
Zn285 O286 2.028 . S
Zn285 O288 2.028 . S
Zn285 O291 2.035 . S
O286 Zn285 2.028 . S
O286 C292 1.247 . S
O287 Zn283 2.035 . S
O287 C292 1.258 . S
O288 C281 1.247 . S
O288 Zn285 2.028 . S
O289 C281 1.258 . S
O289 Zn283 2.035 . S
O290 Zn283 2.028 . S
O290 C293 1.247 . S
O291 Zn285 2.035 . S
O291 C293 1.258 . S
C292 O286 1.247 . S
C292 O287 1.258 . S
C293 O290 1.247 . S
C293 O291 1.258 . S
C294 O296 1.247 . S
C294 O298 1.258 . S
C295 O302 1.247 . S
C295 O303 1.258 . S
O296 C294 1.247 . S
O296 Zn297 2.028 . S
Zn297 O296 2.028 . S
Zn297 O301 2.035 . S
Zn297 O303 2.035 . S
Zn297 O304 2.028 . S
O298 C294 1.258 . S
O298 Zn299 2.035 . S
Zn299 O298 2.035 . S
Zn299 O300 2.028 . S
Zn299 O302 2.028 . S
Zn299 O305 2.035 . S
O300 Zn299 2.028 . S
O300 C306 1.247 . S
O301 Zn297 2.035 . S
O301 C306 1.258 . S
O302 C295 1.247 . S
O302 Zn299 2.028 . S
O303 C295 1.258 . S
O303 Zn297 2.035 . S
O304 Zn297 2.028 . S
O304 C307 1.247 . S
O305 Zn299 2.035 . S
O305 C307 1.258 . S
C306 O300 1.247 . S
C306 O301 1.258 . S
C307 O304 1.247 . S
C307 O305 1.258 . S
C308 O310 1.247 . S
C308 O312 1.258 . S
C309 O316 1.247 . S
C309 O317 1.258 . S
O310 C308 1.247 . S
O310 Zn311 2.028 . S
Zn311 O310 2.028 . S
Zn311 O315 2.035 . S
Zn311 O317 2.035 . S
Zn311 O318 2.028 . S
O312 C308 1.258 . S
O312 Zn313 2.035 . S
Zn313 O312 2.035 . S
Zn313 O314 2.028 . S
Zn313 O316 2.028 . S
Zn313 O319 2.035 . S
O314 Zn313 2.028 . S
O314 C320 1.247 . S
O315 Zn311 2.035 . S
O315 C320 1.258 . S
O316 C309 1.247 . S
O316 Zn313 2.028 . S
O317 C309 1.258 . S
O317 Zn311 2.035 . S
O318 Zn311 2.028 . S
O318 C321 1.247 . S
O319 Zn313 2.035 . S
O319 C321 1.258 . S
C320 O314 1.247 . S
C320 O315 1.258 . S
C321 O318 1.247 . S
C321 O319 1.258 . S
C322 O324 1.247 . S
C322 O326 1.258 . S
C323 O330 1.247 . S
C323 O331 1.258 . S
O324 C322 1.247 . S
O324 Zn325 2.028 . S
Zn325 O324 2.028 . S
Zn325 O329 2.035 . S
Zn325 O331 2.035 . S
Zn325 O332 2.028 . S
O326 C322 1.258 . S
O326 Zn327 2.035 . S
Zn327 O326 2.035 . S
Zn327 O328 2.028 . S
Zn327 O330 2.028 . S
Zn327 O333 2.035 . S
O328 Zn327 2.028 . S
O328 C334 1.247 . S
O329 Zn325 2.035 . S
O329 C334 1.258 . S
O330 C323 1.247 . S
O330 Zn327 2.028 . S
O331 C323 1.258 . S
O331 Zn325 2.035 . S
O332 Zn325 2.028 . S
O332 C335 1.247 . S
O333 Zn327 2.035 . S
O333 C335 1.258 . S
C334 O328 1.247 . S
C334 O329 1.258 . S
C335 O332 1.247 . S
C335 O333 1.258 . S
C336 O338 1.247 . S
C336 O340 1.258 . S
C337 O344 1.247 . S
C337 O345 1.258 . S
O338 C336 1.247 . S
O338 Zn339 2.028 . S
Zn339 O338 2.028 . S
Zn339 O343 2.035 . S
Zn339 O345 2.035 . S
Zn339 O346 2.028 . S
O340 C336 1.258 . S
O340 Zn341 2.035 . S
Zn341 O340 2.035 . S
Zn341 O342 2.028 . S
Zn341 O344 2.028 . S
Zn341 O347 2.035 . S
O342 Zn341 2.028 . S
O342 C348 1.247 . S
O343 Zn339 2.035 . S
O343 C348 1.258 . S
O344 C337 1.247 . S
O344 Zn341 2.028 . S
O345 C337 1.258 . S
O345 Zn339 2.035 . S
O346 Zn339 2.028 . S
O346 C349 1.247 . S
O347 Zn341 2.035 . S
O347 C349 1.258 . S
C348 O342 1.247 . S
C348 O343 1.258 . S
C349 O346 1.247 . S
C349 O347 1.258 . S
C350 O352 1.247 . S
C350 O354 1.258 . S
C351 O358 1.247 . S
C351 O359 1.258 . S
O352 C350 1.247 . S
O352 Zn353 2.028 . S
Zn353 O352 2.028 . S
Zn353 O357 2.035 . S
Zn353 O359 2.035 . S
Zn353 O360 2.028 . S
O354 C350 1.258 . S
O354 Zn355 2.035 . S
Zn355 O354 2.035 . S
Zn355 O356 2.028 . S
Zn355 O358 2.028 . S
Zn355 O361 2.035 . S
O356 Zn355 2.028 . S
O356 C362 1.247 . S
O357 Zn353 2.035 . S
O357 C362 1.258 . S
O358 C351 1.247 . S
O358 Zn355 2.028 . S
O359 C351 1.258 . S
O359 Zn353 2.035 . S
O360 Zn353 2.028 . S
O360 C363 1.247 . S
O361 Zn355 2.035 . S
O361 C363 1.258 . S
C362 O356 1.247 . S
C362 O357 1.258 . S
C363 O360 1.247 . S
C363 O361 1.258 . S
C364 O366 1.247 . S
C364 O368 1.258 . S
C365 O372 1.247 . S
C365 O373 1.258 . S
O366 C364 1.247 . S
O366 Zn367 2.028 1_554 S
Zn367 O366 2.028 1_556 S
Zn367 O371 2.034 1_556 S
Zn367 O373 2.035 . S
Zn367 O374 2.028 . S
O368 C364 1.258 . S
O368 Zn369 2.035 . S
Zn369 O368 2.035 . S
Zn369 O370 2.028 . S
Zn369 O372 2.028 1_554 S
Zn369 O375 2.032 1_554 S
O370 Zn369 2.028 . S
O370 C376 1.247 . S
O371 Zn367 2.034 1_554 S
O371 C376 1.259 . S
O372 C365 1.247 . S
O372 Zn369 2.028 1_556 S
O373 C365 1.258 . S
O373 Zn367 2.035 . S
O374 Zn367 2.028 . S
O374 C377 1.247 . S
O375 Zn369 2.032 1_556 S
O375 C377 1.261 . S
C376 O370 1.247 . S
C376 O371 1.259 . S
C377 O374 1.247 . S
C377 O375 1.261 . S
C378 O380 1.247 . S
C378 O382 1.258 . S
C379 O386 1.247 . S
C379 O387 1.258 . S
O380 C378 1.247 . S
O380 Zn381 2.028 1_554 S
Zn381 O380 2.028 1_556 S
Zn381 O385 2.034 1_556 S
Zn381 O387 2.035 . S
Zn381 O388 2.028 . S
O382 C378 1.258 . S
O382 Zn383 2.035 . S
Zn383 O382 2.035 . S
Zn383 O384 2.028 . S
Zn383 O386 2.028 1_554 S
Zn383 O389 2.032 1_554 S
O384 Zn383 2.028 . S
O384 C390 1.247 . S
O385 Zn381 2.034 1_554 S
O385 C390 1.259 . S
O386 C379 1.247 . S
O386 Zn383 2.028 1_556 S
O387 C379 1.258 . S
O387 Zn381 2.035 . S
O388 Zn381 2.028 . S
O388 C391 1.247 . S
O389 Zn383 2.032 1_556 S
O389 C391 1.261 . S
C390 O384 1.247 . S
C390 O385 1.259 . S
C391 O388 1.247 . S
C391 O389 1.261 . S
C392 O394 1.247 . S
C392 O396 1.258 . S
C393 O400 1.247 . S
C393 O401 1.258 . S
O394 C392 1.247 . S
O394 Zn395 2.028 . S
Zn395 O394 2.028 . S
Zn395 O399 2.035 . S
Zn395 O401 2.035 . S
Zn395 O402 2.028 . S
O396 C392 1.258 . S
O396 Zn397 2.035 . S
Zn397 O396 2.035 . S
Zn397 O398 2.028 . S
Zn397 O400 2.028 . S
Zn397 O403 2.035 . S
O398 Zn397 2.028 . S
O398 C404 1.247 . S
O399 Zn395 2.035 . S
O399 C404 1.258 . S
O400 C393 1.247 . S
O400 Zn397 2.028 . S
O401 C393 1.258 . S
O401 Zn395 2.035 . S
O402 Zn395 2.028 . S
O402 C405 1.247 . S
O403 Zn397 2.035 . S
O403 C405 1.258 . S
C404 O398 1.247 . S
C404 O399 1.258 . S
C405 O402 1.247 . S
C405 O403 1.258 . S
C406 O408 1.247 . S
C406 O410 1.258 . S
C407 O414 1.247 . S
C407 O415 1.258 . S
O408 C406 1.247 . S
O408 Zn409 2.028 . S
Zn409 O408 2.028 . S
Zn409 O413 2.035 . S
Zn409 O415 2.035 . S
Zn409 O416 2.028 . S
O410 C406 1.258 . S
O410 Zn411 2.035 . S
Zn411 O410 2.035 . S
Zn411 O412 2.028 . S
Zn411 O414 2.028 . S
Zn411 O417 2.035 . S
O412 Zn411 2.028 . S
O412 C418 1.247 . S
O413 Zn409 2.035 . S
O413 C418 1.258 . S
O414 C407 1.247 . S
O414 Zn411 2.028 . S
O415 C407 1.258 . S
O415 Zn409 2.035 . S
O416 Zn409 2.028 . S
O416 C419 1.247 . S
O417 Zn411 2.035 . S
O417 C419 1.258 . S
C418 O412 1.247 . S
C418 O413 1.258 . S
C419 O416 1.247 . S
C419 O417 1.258 . S
C420 O422 1.247 . S
C420 O424 1.258 . S
C421 O428 1.247 . S
C421 O429 1.258 . S
O422 C420 1.247 . S
O422 Zn423 2.028 1_554 S
Zn423 O422 2.028 1_556 S
Zn423 O427 2.032 1_556 S
Zn423 O429 2.035 . S
Zn423 O430 2.028 . S
O424 C420 1.258 . S
O424 Zn425 2.035 . S
Zn425 O424 2.035 . S
Zn425 O426 2.028 . S
Zn425 O428 2.028 1_554 S
Zn425 O431 2.034 1_554 S
O426 Zn425 2.028 . S
O426 C432 1.247 . S
O427 Zn423 2.032 1_554 S
O427 C432 1.261 . S
O428 C421 1.247 . S
O428 Zn425 2.028 1_556 S
O429 C421 1.258 . S
O429 Zn423 2.035 . S
O430 Zn423 2.028 . S
O430 C433 1.247 . S
O431 Zn425 2.034 1_556 S
O431 C433 1.259 . S
C432 O426 1.247 . S
C432 O427 1.261 . S
C433 O430 1.247 . S
C433 O431 1.259 . S
C434 O436 1.247 . S
C434 O438 1.258 . S
C435 O442 1.247 . S
C435 O443 1.258 . S
O436 C434 1.247 . S
O436 Zn437 2.028 1_554 S
Zn437 O436 2.028 1_556 S
Zn437 O441 2.032 1_556 S
Zn437 O443 2.035 . S
Zn437 O444 2.028 . S
O438 C434 1.258 . S
O438 Zn439 2.035 . S
Zn439 O438 2.035 . S
Zn439 O440 2.028 . S
Zn439 O442 2.028 1_554 S
Zn439 O445 2.034 1_554 S
O440 Zn439 2.028 . S
O440 C446 1.247 . S
O441 Zn437 2.032 1_554 S
O441 C446 1.261 . S
O442 C435 1.247 . S
O442 Zn439 2.028 1_556 S
O443 C435 1.258 . S
O443 Zn437 2.035 . S
O444 Zn437 2.028 . S
O444 C447 1.247 . S
O445 Zn439 2.034 1_556 S
O445 C447 1.259 . S
C446 O440 1.247 . S
C446 O441 1.261 . S
C447 O444 1.247 . S
C447 O445 1.259 . S
C448 C449 1.391 . S
C448 C450 1.394 . S
C448 H464 0.931 . S
C449 C448 1.391 . S
C449 C453 1.376 . S
C450 C448 1.394 . S
C450 C451 1.369 . S
C450 C454 1.531 . S
C451 C450 1.369 . S
C451 C452 1.410 . S
C451 C459 1.503 . S
C452 C451 1.410 . S
C452 C453 1.392 . S
C452 C455 1.511 . S
C453 C449 1.376 . S
C453 C452 1.392 . S
C453 H465 0.929 . S
C454 C450 1.531 . S
C454 H466 0.960 . S
C454 H467 0.962 . S
C454 H468 0.960 . S
C455 C452 1.511 . S
C455 H469 0.961 . S
C455 H470 0.961 . S
C455 H471 0.961 . S
C456 C457 1.370 . S
C456 C458 1.363 . S
C456 H472 0.931 . S
C457 C456 1.370 . S
C457 C461 1.408 . S
C458 C456 1.363 . S
C458 C459 1.370 . S
C458 C462 1.524 . S
C459 C451 1.503 . S
C459 C458 1.370 . S
C459 C460 1.403 . S
C460 C459 1.403 . S
C460 C461 1.404 . S
C460 C463 1.539 . S
C461 C457 1.408 . S
C461 C460 1.404 . S
C461 H473 0.930 . S
C462 C458 1.524 . S
C462 H474 0.956 . S
C462 H475 0.961 . S
C462 H476 0.961 . S
C463 C460 1.539 . S
C463 H477 0.958 . S
C463 H478 0.961 . S
C463 H479 0.960 . S
H464 C448 0.931 . S
H465 C453 0.929 . S
H466 C454 0.960 . S
H467 C454 0.962 . S
H468 C454 0.960 . S
H469 C455 0.961 . S
H470 C455 0.961 . S
H471 C455 0.961 . S
H472 C456 0.931 . S
H473 C461 0.930 . S
H474 C462 0.956 . S
H475 C462 0.961 . S
H476 C462 0.961 . S
H477 C463 0.958 . S
H478 C463 0.961 . S
H479 C463 0.960 . S
C480 C481 1.391 . S
C480 C482 1.394 . S
C480 H496 0.931 . S
C481 C480 1.391 . S
C481 C485 1.376 . S
C482 C480 1.394 . S
C482 C483 1.369 . S
C482 C486 1.531 . S
C483 C482 1.369 . S
C483 C484 1.410 . S
C483 C491 1.503 . S
C484 C483 1.410 . S
C484 C485 1.392 . S
C484 C487 1.511 . S
C485 C481 1.376 . S
C485 C484 1.392 . S
C485 H497 0.929 . S
C486 C482 1.531 . S
C486 H498 0.960 . S
C486 H499 0.962 . S
C486 H500 0.960 . S
C487 C484 1.511 . S
C487 H501 0.961 . S
C487 H502 0.961 . S
C487 H503 0.961 . S
C488 C489 1.370 . S
C488 C490 1.363 . S
C488 H504 0.931 . S
C489 C488 1.370 . S
C489 C493 1.408 . S
C490 C488 1.363 . S
C490 C491 1.370 . S
C490 C494 1.524 . S
C491 C483 1.503 . S
C491 C490 1.370 . S
C491 C492 1.403 . S
C492 C491 1.403 . S
C492 C493 1.404 . S
C492 C495 1.539 . S
C493 C489 1.408 . S
C493 C492 1.404 . S
C493 H505 0.930 . S
C494 C490 1.524 . S
C494 H506 0.956 . S
C494 H507 0.961 . S
C494 H508 0.961 . S
C495 C492 1.539 . S
C495 H509 0.958 . S
C495 H510 0.961 . S
C495 H511 0.960 . S
H496 C480 0.931 . S
H497 C485 0.929 . S
H498 C486 0.960 . S
H499 C486 0.962 . S
H500 C486 0.960 . S
H501 C487 0.961 . S
H502 C487 0.961 . S
H503 C487 0.961 . S
H504 C488 0.931 . S
H505 C493 0.930 . S
H506 C494 0.956 . S
H507 C494 0.961 . S
H508 C494 0.961 . S
H509 C495 0.958 . S
H510 C495 0.961 . S
H511 C495 0.960 . S
C512 C513 1.391 . S
C512 C514 1.394 . S
C512 H528 0.931 . S
C513 C512 1.391 . S
C513 C517 1.376 . S
C514 C512 1.394 . S
C514 C515 1.369 . S
C514 C518 1.531 . S
C515 C514 1.369 . S
C515 C516 1.410 . S
C515 C523 1.503 . S
C516 C515 1.410 . S
C516 C517 1.392 . S
C516 C519 1.511 . S
C517 C513 1.376 . S
C517 C516 1.392 . S
C517 H529 0.929 . S
C518 C514 1.531 . S
C518 H530 0.960 . S
C518 H531 0.962 . S
C518 H532 0.960 . S
C519 C516 1.511 . S
C519 H533 0.961 . S
C519 H534 0.961 . S
C519 H535 0.961 . S
C520 C521 1.370 . S
C520 C522 1.363 . S
C520 H536 0.931 . S
C521 C520 1.370 . S
C521 C525 1.408 . S
C522 C520 1.363 . S
C522 C523 1.370 . S
C522 C526 1.524 . S
C523 C515 1.503 . S
C523 C522 1.370 . S
C523 C524 1.403 . S
C524 C523 1.403 . S
C524 C525 1.404 . S
C524 C527 1.539 . S
C525 C521 1.408 . S
C525 C524 1.404 . S
C525 H537 0.930 . S
C526 C522 1.524 . S
C526 H538 0.956 . S
C526 H539 0.961 . S
C526 H540 0.961 . S
C527 C524 1.539 . S
C527 H541 0.958 . S
C527 H542 0.961 . S
C527 H543 0.960 . S
H528 C512 0.931 . S
H529 C517 0.929 . S
H530 C518 0.960 . S
H531 C518 0.962 . S
H532 C518 0.960 . S
H533 C519 0.961 . S
H534 C519 0.961 . S
H535 C519 0.961 . S
H536 C520 0.931 . S
H537 C525 0.930 . S
H538 C526 0.956 . S
H539 C526 0.961 . S
H540 C526 0.961 . S
H541 C527 0.958 . S
H542 C527 0.961 . S
H543 C527 0.960 . S
C544 C545 1.391 . S
C544 C546 1.394 . S
C544 H560 0.931 . S
C545 C544 1.391 . S
C545 C549 1.376 . S
C546 C544 1.394 . S
C546 C547 1.369 . S
C546 C550 1.531 . S
C547 C546 1.369 . S
C547 C548 1.410 . S
C547 C555 1.503 . S
C548 C547 1.410 . S
C548 C549 1.392 . S
C548 C551 1.511 . S
C549 C545 1.376 . S
C549 C548 1.392 . S
C549 H561 0.929 . S
C550 C546 1.531 . S
C550 H562 0.960 . S
C550 H563 0.962 . S
C550 H564 0.960 . S
C551 C548 1.511 . S
C551 H565 0.961 . S
C551 H566 0.961 . S
C551 H567 0.961 . S
C552 C553 1.370 . S
C552 C554 1.363 . S
C552 H568 0.931 . S
C553 C552 1.370 . S
C553 C557 1.408 . S
C554 C552 1.363 . S
C554 C555 1.370 . S
C554 C558 1.524 . S
C555 C547 1.503 . S
C555 C554 1.370 . S
C555 C556 1.403 . S
C556 C555 1.403 . S
C556 C557 1.404 . S
C556 C559 1.539 . S
C557 C553 1.408 . S
C557 C556 1.404 . S
C557 H569 0.930 . S
C558 C554 1.524 . S
C558 H570 0.956 . S
C558 H571 0.961 . S
C558 H572 0.961 . S
C559 C556 1.539 . S
C559 H573 0.958 . S
C559 H574 0.961 . S
C559 H575 0.960 . S
H560 C544 0.931 . S
H561 C549 0.929 . S
H562 C550 0.960 . S
H563 C550 0.962 . S
H564 C550 0.960 . S
H565 C551 0.961 . S
H566 C551 0.961 . S
H567 C551 0.961 . S
H568 C552 0.931 . S
H569 C557 0.930 . S
H570 C558 0.956 . S
H571 C558 0.961 . S
H572 C558 0.961 . S
H573 C559 0.958 . S
H574 C559 0.961 . S
H575 C559 0.960 . S
C576 C577 1.391 . S
C576 C578 1.394 . S
C576 H592 0.931 . S
C577 C576 1.391 . S
C577 C581 1.376 . S
C578 C576 1.394 . S
C578 C579 1.369 . S
C578 C582 1.531 . S
C579 C578 1.369 . S
C579 C580 1.410 . S
C579 C587 1.503 . S
C580 C579 1.410 . S
C580 C581 1.392 . S
C580 C583 1.511 . S
C581 C577 1.376 . S
C581 C580 1.392 . S
C581 H593 0.929 . S
C582 C578 1.531 . S
C582 H594 0.960 . S
C582 H595 0.962 . S
C582 H596 0.960 . S
C583 C580 1.511 . S
C583 H597 0.961 . S
C583 H598 0.961 . S
C583 H599 0.961 . S
C584 C585 1.370 . S
C584 C586 1.363 . S
C584 H600 0.931 . S
C585 C584 1.370 . S
C585 C589 1.408 . S
C586 C584 1.363 . S
C586 C587 1.370 . S
C586 C590 1.524 . S
C587 C579 1.503 . S
C587 C586 1.370 . S
C587 C588 1.403 . S
C588 C587 1.403 . S
C588 C589 1.404 . S
C588 C591 1.539 . S
C589 C585 1.408 . S
C589 C588 1.404 . S
C589 H601 0.930 . S
C590 C586 1.524 . S
C590 H602 0.956 . S
C590 H603 0.961 . S
C590 H604 0.961 . S
C591 C588 1.539 . S
C591 H605 0.958 . S
C591 H606 0.961 . S
C591 H607 0.960 . S
H592 C576 0.931 . S
H593 C581 0.929 . S
H594 C582 0.960 . S
H595 C582 0.962 . S
H596 C582 0.960 . S
H597 C583 0.961 . S
H598 C583 0.961 . S
H599 C583 0.961 . S
H600 C584 0.931 . S
H601 C589 0.930 . S
H602 C590 0.956 . S
H603 C590 0.961 . S
H604 C590 0.961 . S
H605 C591 0.958 . S
H606 C591 0.961 . S
H607 C591 0.960 . S
C608 C609 1.391 . S
C608 C610 1.394 . S
C608 H624 0.931 . S
C609 C608 1.391 . S
C609 C613 1.376 . S
C610 C608 1.394 . S
C610 C611 1.369 . S
C610 C614 1.531 . S
C611 C610 1.369 . S
C611 C612 1.410 . S
C611 C619 1.503 . S
C612 C611 1.410 . S
C612 C613 1.392 . S
C612 C615 1.511 . S
C613 C609 1.376 . S
C613 C612 1.392 . S
C613 H625 0.929 . S
C614 C610 1.531 . S
C614 H626 0.960 . S
C614 H627 0.962 . S
C614 H628 0.960 . S
C615 C612 1.511 . S
C615 H629 0.961 . S
C615 H630 0.961 . S
C615 H631 0.961 . S
C616 C617 1.370 . S
C616 C618 1.363 . S
C616 H632 0.931 . S
C617 C616 1.370 . S
C617 C621 1.408 . S
C618 C616 1.363 . S
C618 C619 1.370 . S
C618 C622 1.524 . S
C619 C611 1.503 . S
C619 C618 1.370 . S
C619 C620 1.403 . S
C620 C619 1.403 . S
C620 C621 1.404 . S
C620 C623 1.539 . S
C621 C617 1.408 . S
C621 C620 1.404 . S
C621 H633 0.930 . S
C622 C618 1.524 . S
C622 H634 0.956 . S
C622 H635 0.961 . S
C622 H636 0.961 . S
C623 C620 1.539 . S
C623 H637 0.958 . S
C623 H638 0.961 . S
C623 H639 0.960 . S
H624 C608 0.931 . S
H625 C613 0.929 . S
H626 C614 0.960 . S
H627 C614 0.962 . S
H628 C614 0.960 . S
H629 C615 0.961 . S
H630 C615 0.961 . S
H631 C615 0.961 . S
H632 C616 0.931 . S
H633 C621 0.930 . S
H634 C622 0.956 . S
H635 C622 0.961 . S
H636 C622 0.961 . S
H637 C623 0.958 . S
H638 C623 0.961 . S
H639 C623 0.960 . S
C640 C641 1.391 . S
C640 C642 1.394 . S
C640 H656 0.931 . S
C641 C640 1.391 . S
C641 C645 1.376 . S
C642 C640 1.394 . S
C642 C643 1.369 . S
C642 C646 1.531 . S
C643 C642 1.369 . S
C643 C644 1.410 . S
C643 C651 1.503 . S
C644 C643 1.410 . S
C644 C645 1.392 . S
C644 C647 1.511 . S
C645 C641 1.376 . S
C645 C644 1.392 . S
C645 H657 0.929 . S
C646 C642 1.531 . S
C646 H658 0.960 . S
C646 H659 0.962 . S
C646 H660 0.960 . S
C647 C644 1.511 . S
C647 H661 0.961 . S
C647 H662 0.961 . S
C647 H663 0.961 . S
C648 C649 1.370 . S
C648 C650 1.363 . S
C648 H664 0.931 . S
C649 C648 1.370 . S
C649 C653 1.408 . S
C650 C648 1.363 . S
C650 C651 1.370 . S
C650 C654 1.524 . S
C651 C643 1.503 . S
C651 C650 1.370 . S
C651 C652 1.403 . S
C652 C651 1.403 . S
C652 C653 1.404 . S
C652 C655 1.539 . S
C653 C649 1.408 . S
C653 C652 1.404 . S
C653 H665 0.930 . S
C654 C650 1.524 . S
C654 H666 0.956 . S
C654 H667 0.961 . S
C654 H668 0.961 . S
C655 C652 1.539 . S
C655 H669 0.958 . S
C655 H670 0.961 . S
C655 H671 0.960 . S
H656 C640 0.931 . S
H657 C645 0.929 . S
H658 C646 0.960 . S
H659 C646 0.962 . S
H660 C646 0.960 . S
H661 C647 0.961 . S
H662 C647 0.961 . S
H663 C647 0.961 . S
H664 C648 0.931 . S
H665 C653 0.930 . S
H666 C654 0.956 . S
H667 C654 0.961 . S
H668 C654 0.961 . S
H669 C655 0.958 . S
H670 C655 0.961 . S
H671 C655 0.960 . S
C672 C673 1.391 . S
C672 C674 1.394 . S
C672 H688 0.931 . S
C673 C672 1.391 . S
C673 C677 1.376 . S
C674 C672 1.394 . S
C674 C675 1.369 . S
C674 C678 1.531 . S
C675 C674 1.369 . S
C675 C676 1.410 . S
C675 C683 1.503 . S
C676 C675 1.410 . S
C676 C677 1.392 . S
C676 C679 1.511 . S
C677 C673 1.376 . S
C677 C676 1.392 . S
C677 H689 0.929 . S
C678 C674 1.531 . S
C678 H690 0.960 . S
C678 H691 0.962 . S
C678 H692 0.960 . S
C679 C676 1.511 . S
C679 H693 0.961 . S
C679 H694 0.961 . S
C679 H695 0.961 . S
C680 C681 1.370 . S
C680 C682 1.363 . S
C680 H696 0.931 . S
C681 C680 1.370 . S
C681 C685 1.408 . S
C682 C680 1.363 . S
C682 C683 1.370 . S
C682 C686 1.524 . S
C683 C675 1.503 . S
C683 C682 1.370 . S
C683 C684 1.403 . S
C684 C683 1.403 . S
C684 C685 1.404 . S
C684 C687 1.539 . S
C685 C681 1.408 . S
C685 C684 1.404 . S
C685 H697 0.930 . S
C686 C682 1.524 . S
C686 H698 0.956 . S
C686 H699 0.961 . S
C686 H700 0.961 . S
C687 C684 1.539 . S
C687 H701 0.958 . S
C687 H702 0.961 . S
C687 H703 0.960 . S
H688 C672 0.931 . S
H689 C677 0.929 . S
H690 C678 0.960 . S
H691 C678 0.962 . S
H692 C678 0.960 . S
H693 C679 0.961 . S
H694 C679 0.961 . S
H695 C679 0.961 . S
H696 C680 0.931 . S
H697 C685 0.930 . S
H698 C686 0.956 . S
H699 C686 0.961 . S
H700 C686 0.961 . S
H701 C687 0.958 . S
H702 C687 0.961 . S
H703 C687 0.960 . S
C704 C705 1.391 . S
C704 C706 1.394 . S
C704 H720 0.931 . S
C705 C704 1.391 . S
C705 C709 1.376 . S
C706 C704 1.394 . S
C706 C707 1.369 . S
C706 C710 1.531 . S
C707 C706 1.369 . S
C707 C708 1.410 . S
C707 C715 1.503 . S
C708 C707 1.410 . S
C708 C709 1.392 . S
C708 C711 1.511 . S
C709 C705 1.376 . S
C709 C708 1.392 . S
C709 H721 0.929 . S
C710 C706 1.531 . S
C710 H722 0.960 . S
C710 H723 0.962 . S
C710 H724 0.960 . S
C711 C708 1.511 . S
C711 H725 0.961 . S
C711 H726 0.961 . S
C711 H727 0.961 . S
C712 C713 1.370 . S
C712 C714 1.363 . S
C712 H728 0.931 . S
C713 C712 1.370 . S
C713 C717 1.408 . S
C714 C712 1.363 . S
C714 C715 1.370 . S
C714 C718 1.524 . S
C715 C707 1.503 . S
C715 C714 1.370 . S
C715 C716 1.403 . S
C716 C715 1.403 . S
C716 C717 1.404 . S
C716 C719 1.539 . S
C717 C713 1.408 . S
C717 C716 1.404 . S
C717 H729 0.930 . S
C718 C714 1.524 . S
C718 H730 0.956 . S
C718 H731 0.961 . S
C718 H732 0.961 . S
C719 C716 1.539 . S
C719 H733 0.958 . S
C719 H734 0.961 . S
C719 H735 0.960 . S
H720 C704 0.931 . S
H721 C709 0.929 . S
H722 C710 0.960 . S
H723 C710 0.962 . S
H724 C710 0.960 . S
H725 C711 0.961 . S
H726 C711 0.961 . S
H727 C711 0.961 . S
H728 C712 0.931 . S
H729 C717 0.930 . S
H730 C718 0.956 . S
H731 C718 0.961 . S
H732 C718 0.961 . S
H733 C719 0.958 . S
H734 C719 0.961 . S
H735 C719 0.960 . S
C736 C737 1.391 . S
C736 C738 1.394 . S
C736 H752 0.931 . S
C737 C736 1.391 . S
C737 C741 1.376 . S
C738 C736 1.394 . S
C738 C739 1.369 . S
C738 C742 1.531 . S
C739 C738 1.369 . S
C739 C740 1.410 . S
C739 C747 1.503 . S
C740 C739 1.410 . S
C740 C741 1.392 . S
C740 C743 1.511 . S
C741 C737 1.376 . S
C741 C740 1.392 . S
C741 H753 0.929 . S
C742 C738 1.531 . S
C742 H754 0.960 . S
C742 H755 0.962 . S
C742 H756 0.960 . S
C743 C740 1.511 . S
C743 H757 0.961 . S
C743 H758 0.961 . S
C743 H759 0.961 . S
C744 C745 1.370 . S
C744 C746 1.363 . S
C744 H760 0.931 . S
C745 C744 1.370 . S
C745 C749 1.408 . S
C746 C744 1.363 . S
C746 C747 1.370 . S
C746 C750 1.524 . S
C747 C739 1.503 . S
C747 C746 1.370 . S
C747 C748 1.403 . S
C748 C747 1.403 . S
C748 C749 1.404 . S
C748 C751 1.539 . S
C749 C745 1.408 . S
C749 C748 1.404 . S
C749 H761 0.930 . S
C750 C746 1.524 . S
C750 H762 0.956 . S
C750 H763 0.961 . S
C750 H764 0.961 . S
C751 C748 1.539 . S
C751 H765 0.958 . S
C751 H766 0.961 . S
C751 H767 0.960 . S
H752 C736 0.931 . S
H753 C741 0.929 . S
H754 C742 0.960 . S
H755 C742 0.962 . S
H756 C742 0.960 . S
H757 C743 0.961 . S
H758 C743 0.961 . S
H759 C743 0.961 . S
H760 C744 0.931 . S
H761 C749 0.930 . S
H762 C750 0.956 . S
H763 C750 0.961 . S
H764 C750 0.961 . S
H765 C751 0.958 . S
H766 C751 0.961 . S
H767 C751 0.960 . S
C768 C769 1.391 . S
C768 C770 1.394 . S
C768 H784 0.931 . S
C769 C768 1.391 . S
C769 C773 1.376 . S
C770 C768 1.394 . S
C770 C771 1.369 . S
C770 C774 1.531 . S
C771 C770 1.369 . S
C771 C772 1.410 . S
C771 C779 1.503 . S
C772 C771 1.410 . S
C772 C773 1.392 . S
C772 C775 1.511 . S
C773 C769 1.376 . S
C773 C772 1.392 . S
C773 H785 0.929 . S
C774 C770 1.531 . S
C774 H786 0.960 . S
C774 H787 0.962 . S
C774 H788 0.960 . S
C775 C772 1.511 . S
C775 H789 0.961 . S
C775 H790 0.961 . S
C775 H791 0.961 . S
C776 C777 1.370 . S
C776 C778 1.363 . S
C776 H792 0.931 . S
C777 C776 1.370 . S
C777 C781 1.408 . S
C778 C776 1.363 . S
C778 C779 1.370 . S
C778 C782 1.524 . S
C779 C771 1.503 . S
C779 C778 1.370 . S
C779 C780 1.403 . S
C780 C779 1.403 . S
C780 C781 1.404 . S
C780 C783 1.539 . S
C781 C777 1.408 . S
C781 C780 1.404 . S
C781 H793 0.930 . S
C782 C778 1.524 . S
C782 H794 0.956 . S
C782 H795 0.961 . S
C782 H796 0.961 . S
C783 C780 1.539 . S
C783 H797 0.958 . S
C783 H798 0.961 . S
C783 H799 0.960 . S
H784 C768 0.931 . S
H785 C773 0.929 . S
H786 C774 0.960 . S
H787 C774 0.962 . S
H788 C774 0.960 . S
H789 C775 0.961 . S
H790 C775 0.961 . S
H791 C775 0.961 . S
H792 C776 0.931 . S
H793 C781 0.930 . S
H794 C782 0.956 . S
H795 C782 0.961 . S
H796 C782 0.961 . S
H797 C783 0.958 . S
H798 C783 0.961 . S
H799 C783 0.960 . S
C800 C801 1.391 . S
C800 C802 1.394 . S
C800 H816 0.931 . S
C801 C800 1.391 . S
C801 C805 1.376 . S
C802 C800 1.394 . S
C802 C803 1.369 . S
C802 C806 1.531 . S
C803 C802 1.369 . S
C803 C804 1.410 . S
C803 C811 1.503 . S
C804 C803 1.410 . S
C804 C805 1.392 . S
C804 C807 1.511 . S
C805 C801 1.376 . S
C805 C804 1.392 . S
C805 H817 0.929 . S
C806 C802 1.531 . S
C806 H818 0.960 . S
C806 H819 0.962 . S
C806 H820 0.960 . S
C807 C804 1.511 . S
C807 H821 0.961 . S
C807 H822 0.961 . S
C807 H823 0.961 . S
C808 C809 1.370 . S
C808 C810 1.363 . S
C808 H824 0.931 . S
C809 C808 1.370 . S
C809 C813 1.408 . S
C810 C808 1.363 . S
C810 C811 1.370 . S
C810 C814 1.524 . S
C811 C803 1.503 . S
C811 C810 1.370 . S
C811 C812 1.403 . S
C812 C811 1.403 . S
C812 C813 1.404 . S
C812 C815 1.539 . S
C813 C809 1.408 . S
C813 C812 1.404 . S
C813 H825 0.930 . S
C814 C810 1.524 . S
C814 H826 0.956 . S
C814 H827 0.961 . S
C814 H828 0.961 . S
C815 C812 1.539 . S
C815 H829 0.958 . S
C815 H830 0.961 . S
C815 H831 0.960 . S
H816 C800 0.931 . S
H817 C805 0.929 . S
H818 C806 0.960 . S
H819 C806 0.962 . S
H820 C806 0.960 . S
H821 C807 0.961 . S
H822 C807 0.961 . S
H823 C807 0.961 . S
H824 C808 0.931 . S
H825 C813 0.930 . S
H826 C814 0.956 . S
H827 C814 0.961 . S
H828 C814 0.961 . S
H829 C815 0.958 . S
H830 C815 0.961 . S
H831 C815 0.960 . S
C832 C833 1.391 . S
C832 C834 1.394 . S
C832 H848 0.931 . S
C833 C832 1.391 . S
C833 C837 1.376 . S
C834 C832 1.394 . S
C834 C835 1.369 . S
C834 C838 1.531 . S
C835 C834 1.369 . S
C835 C836 1.410 . S
C835 C843 1.503 . S
C836 C835 1.410 . S
C836 C837 1.392 . S
C836 C839 1.511 . S
C837 C833 1.376 . S
C837 C836 1.392 . S
C837 H849 0.929 . S
C838 C834 1.531 . S
C838 H850 0.960 . S
C838 H851 0.962 . S
C838 H852 0.960 . S
C839 C836 1.511 . S
C839 H853 0.961 . S
C839 H854 0.961 . S
C839 H855 0.961 . S
C840 C841 1.370 . S
C840 C842 1.363 . S
C840 H856 0.931 . S
C841 C840 1.370 . S
C841 C845 1.408 . S
C842 C840 1.363 . S
C842 C843 1.370 . S
C842 C846 1.524 . S
C843 C835 1.503 . S
C843 C842 1.370 . S
C843 C844 1.403 . S
C844 C843 1.403 . S
C844 C845 1.404 . S
C844 C847 1.539 . S
C845 C841 1.408 . S
C845 C844 1.404 . S
C845 H857 0.930 . S
C846 C842 1.524 . S
C846 H858 0.956 . S
C846 H859 0.961 . S
C846 H860 0.961 . S
C847 C844 1.539 . S
C847 H861 0.958 . S
C847 H862 0.961 . S
C847 H863 0.960 . S
H848 C832 0.931 . S
H849 C837 0.929 . S
H850 C838 0.960 . S
H851 C838 0.962 . S
H852 C838 0.960 . S
H853 C839 0.961 . S
H854 C839 0.961 . S
H855 C839 0.961 . S
H856 C840 0.931 . S
H857 C845 0.930 . S
H858 C846 0.956 . S
H859 C846 0.961 . S
H860 C846 0.961 . S
H861 C847 0.958 . S
H862 C847 0.961 . S
H863 C847 0.960 . S
C864 C865 1.391 . S
C864 C866 1.394 . S
C864 H880 0.931 . S
C865 C864 1.391 . S
C865 C869 1.376 . S
C866 C864 1.394 . S
C866 C867 1.369 . S
C866 C870 1.531 . S
C867 C866 1.369 . S
C867 C868 1.410 . S
C867 C875 1.503 . S
C868 C867 1.410 . S
C868 C869 1.392 . S
C868 C871 1.511 . S
C869 C865 1.376 . S
C869 C868 1.392 . S
C869 H881 0.929 . S
C870 C866 1.531 . S
C870 H882 0.960 . S
C870 H883 0.962 . S
C870 H884 0.960 . S
C871 C868 1.511 . S
C871 H885 0.961 . S
C871 H886 0.961 . S
C871 H887 0.961 . S
C872 C873 1.370 . S
C872 C874 1.363 . S
C872 H888 0.931 . S
C873 C872 1.370 . S
C873 C877 1.408 . S
C874 C872 1.363 . S
C874 C875 1.370 . S
C874 C878 1.524 . S
C875 C867 1.503 . S
C875 C874 1.370 . S
C875 C876 1.403 . S
C876 C875 1.403 . S
C876 C877 1.404 . S
C876 C879 1.539 . S
C877 C873 1.408 . S
C877 C876 1.404 . S
C877 H889 0.930 . S
C878 C874 1.524 . S
C878 H890 0.956 . S
C878 H891 0.961 . S
C878 H892 0.961 . S
C879 C876 1.539 . S
C879 H893 0.958 . S
C879 H894 0.961 . S
C879 H895 0.960 . S
H880 C864 0.931 . S
H881 C869 0.929 . S
H882 C870 0.960 . S
H883 C870 0.962 . S
H884 C870 0.960 . S
H885 C871 0.961 . S
H886 C871 0.961 . S
H887 C871 0.961 . S
H888 C872 0.931 . S
H889 C877 0.930 . S
H890 C878 0.956 . S
H891 C878 0.961 . S
H892 C878 0.961 . S
H893 C879 0.958 . S
H894 C879 0.961 . S
H895 C879 0.960 . S
C896 C897 1.391 . S
C896 C898 1.394 . S
C896 H912 0.931 . S
C897 C896 1.391 . S
C897 C901 1.376 . S
C898 C896 1.394 . S
C898 C899 1.369 . S
C898 C902 1.531 . S
C899 C898 1.369 . S
C899 C900 1.410 . S
C899 C907 1.503 . S
C900 C899 1.410 . S
C900 C901 1.392 . S
C900 C903 1.511 . S
C901 C897 1.376 . S
C901 C900 1.392 . S
C901 H913 0.929 . S
C902 C898 1.531 . S
C902 H914 0.960 . S
C902 H915 0.962 . S
C902 H916 0.960 . S
C903 C900 1.511 . S
C903 H917 0.961 . S
C903 H918 0.961 . S
C903 H919 0.961 . S
C904 C905 1.370 . S
C904 C906 1.363 . S
C904 H920 0.931 . S
C905 C904 1.370 . S
C905 C909 1.408 . S
C906 C904 1.363 . S
C906 C907 1.370 . S
C906 C910 1.524 . S
C907 C899 1.503 . S
C907 C906 1.370 . S
C907 C908 1.403 . S
C908 C907 1.403 . S
C908 C909 1.404 . S
C908 C911 1.539 . S
C909 C905 1.408 . S
C909 C908 1.404 . S
C909 H921 0.930 . S
C910 C906 1.524 . S
C910 H922 0.956 . S
C910 H923 0.961 . S
C910 H924 0.961 . S
C911 C908 1.539 . S
C911 H925 0.958 . S
C911 H926 0.961 . S
C911 H927 0.960 . S
H912 C896 0.931 . S
H913 C901 0.929 . S
H914 C902 0.960 . S
H915 C902 0.962 . S
H916 C902 0.960 . S
H917 C903 0.961 . S
H918 C903 0.961 . S
H919 C903 0.961 . S
H920 C904 0.931 . S
H921 C909 0.930 . S
H922 C910 0.956 . S
H923 C910 0.961 . S
H924 C910 0.961 . S
H925 C911 0.958 . S
H926 C911 0.961 . S
H927 C911 0.960 . S
C928 C929 1.391 . S
C928 C930 1.394 . S
C928 H944 0.931 . S
C929 C928 1.391 . S
C929 C933 1.376 . S
C930 C928 1.394 . S
C930 C931 1.369 . S
C930 C934 1.531 . S
C931 C930 1.369 . S
C931 C932 1.410 . S
C931 C939 1.503 . S
C932 C931 1.410 . S
C932 C933 1.392 . S
C932 C935 1.511 . S
C933 C929 1.376 . S
C933 C932 1.392 . S
C933 H945 0.929 . S
C934 C930 1.531 . S
C934 H946 0.960 . S
C934 H947 0.962 . S
C934 H948 0.960 . S
C935 C932 1.511 . S
C935 H949 0.961 . S
C935 H950 0.961 . S
C935 H951 0.961 . S
C936 C937 1.370 . S
C936 C938 1.363 . S
C936 H952 0.931 . S
C937 C936 1.370 . S
C937 C941 1.408 . S
C938 C936 1.363 . S
C938 C939 1.370 . S
C938 C942 1.524 . S
C939 C931 1.503 . S
C939 C938 1.370 . S
C939 C940 1.403 . S
C940 C939 1.403 . S
C940 C941 1.404 . S
C940 C943 1.539 . S
C941 C937 1.408 . S
C941 C940 1.404 . S
C941 H953 0.930 . S
C942 C938 1.524 . S
C942 H954 0.956 . S
C942 H955 0.961 . S
C942 H956 0.961 . S
C943 C940 1.539 . S
C943 H957 0.958 . S
C943 H958 0.961 . S
C943 H959 0.960 . S
H944 C928 0.931 . S
H945 C933 0.929 . S
H946 C934 0.960 . S
H947 C934 0.962 . S
H948 C934 0.960 . S
H949 C935 0.961 . S
H950 C935 0.961 . S
H951 C935 0.961 . S
H952 C936 0.931 . S
H953 C941 0.930 . S
H954 C942 0.956 . S
H955 C942 0.961 . S
H956 C942 0.961 . S
H957 C943 0.958 . S
H958 C943 0.961 . S
H959 C943 0.960 . S
C960 C961 1.391 . S
C960 C962 1.394 . S
C960 H976 0.931 . S
C961 C960 1.391 . S
C961 C965 1.376 . S
C962 C960 1.394 . S
C962 C963 1.369 . S
C962 C966 1.531 . S
C963 C962 1.369 . S
C963 C964 1.410 . S
C963 C971 1.503 1_655 S
C964 C963 1.410 . S
C964 C965 1.392 . S
C964 C967 1.511 1_655 S
C965 C961 1.376 . S
C965 C964 1.392 . S
C965 H977 0.929 . S
C966 C962 1.531 . S
C966 H978 0.960 . S
C966 H979 0.962 . S
C966 H980 0.960 . S
C967 C964 1.511 1_455 S
C967 H981 0.961 . S
C967 H982 0.961 . S
C967 H983 0.961 . S
C968 C969 1.370 . S
C968 C970 1.363 . S
C968 H984 0.931 . S
C969 C968 1.370 . S
C969 C973 1.408 . S
C970 C968 1.363 . S
C970 C971 1.370 . S
C970 C974 1.524 1_455 S
C971 C963 1.503 1_455 S
C971 C970 1.370 . S
C971 C972 1.403 . S
C972 C971 1.403 . S
C972 C973 1.404 . S
C972 C975 1.539 . S
C973 C969 1.408 . S
C973 C972 1.404 . S
C973 H985 0.930 . S
C974 C970 1.524 1_655 S
C974 H986 0.956 . S
C974 H987 0.961 . S
C974 H988 0.961 . S
C975 C972 1.539 . S
C975 H989 0.958 . S
C975 H990 0.961 . S
C975 H991 0.960 . S
H976 C960 0.931 . S
H977 C965 0.929 . S
H978 C966 0.960 . S
H979 C966 0.962 . S
H980 C966 0.960 . S
H981 C967 0.961 . S
H982 C967 0.961 . S
H983 C967 0.961 . S
H984 C968 0.931 . S
H985 C973 0.930 . S
H986 C974 0.956 . S
H987 C974 0.961 . S
H988 C974 0.961 . S
H989 C975 0.958 . S
H990 C975 0.961 . S
H991 C975 0.960 . S
C992 C993 1.391 . S
C992 C994 1.394 . S
C992 H1008 0.931 . S
C993 C992 1.391 . S
C993 C997 1.376 . S
C994 C992 1.394 . S
C994 C995 1.369 . S
C994 C998 1.531 . S
C995 C994 1.369 . S
C995 C996 1.410 . S
C995 C1003 1.503 1_565 S
C996 C995 1.410 . S
C996 C997 1.392 . S
C996 C999 1.511 1_565 S
C997 C993 1.376 . S
C997 C996 1.392 . S
C997 H1009 0.929 . S
C998 C994 1.531 . S
C998 H1010 0.960 . S
C998 H1011 0.962 . S
C998 H1012 0.960 . S
C999 C996 1.511 1_545 S
C999 H1013 0.961 . S
C999 H1014 0.961 . S
C999 H1015 0.961 . S
C1000 C1001 1.370 . S
C1000 C1002 1.363 . S
C1000 H1016 0.931 . S
C1001 C1000 1.370 . S
C1001 C1005 1.408 . S
C1002 C1000 1.363 . S
C1002 C1003 1.370 . S
C1002 C1006 1.524 . S
C1003 C995 1.503 1_545 S
C1003 C1002 1.370 . S
C1003 C1004 1.403 . S
C1004 C1003 1.403 . S
C1004 C1005 1.404 . S
C1004 C1007 1.539 . S
C1005 C1001 1.408 . S
C1005 C1004 1.404 . S
C1005 H1017 0.930 . S
C1006 C1002 1.524 . S
C1006 H1018 0.956 1_545 S
C1006 H1019 0.961 . S
C1006 H1020 0.961 . S
C1007 C1004 1.539 . S
C1007 H1021 0.958 . S
C1007 H1022 0.961 . S
C1007 H1023 0.960 . S
H1008 C992 0.931 . S
H1009 C997 0.929 . S
H1010 C998 0.960 . S
H1011 C998 0.962 . S
H1012 C998 0.960 . S
H1013 C999 0.961 . S
H1014 C999 0.961 . S
H1015 C999 0.961 . S
H1016 C1000 0.931 . S
H1017 C1005 0.930 . S
H1018 C1006 0.956 1_565 S
H1019 C1006 0.961 . S
H1020 C1006 0.961 . S
H1021 C1007 0.958 . S
H1022 C1007 0.961 . S
H1023 C1007 0.960 . S
C1024 C1025 1.391 . S
C1024 C1026 1.394 . S
C1024 H1040 0.931 . S
C1025 C1024 1.391 . S
C1025 C1029 1.376 1_554 S
C1026 C1024 1.394 . S
C1026 C1027 1.369 . S
C1026 C1030 1.531 1_455 S
C1027 C1026 1.369 . S
C1027 C1028 1.410 1_554 S
C1027 C1035 1.503 1_465 S
C1028 C1027 1.410 1_556 S
C1028 C1029 1.392 . S
C1028 C1031 1.511 1_565 S
C1029 C1025 1.376 1_556 S
C1029 C1028 1.392 . S
C1029 H1041 0.929 . S
C1030 C1026 1.531 1_655 S
C1030 H1042 0.960 . S
C1030 H1043 0.962 . S
C1030 H1044 0.960 . S
C1031 C1028 1.511 1_545 S
C1031 H1045 0.961 . S
C1031 H1046 0.961 . S
C1031 H1047 0.961 . S
C1032 C1033 1.370 1_556 S
C1032 C1034 1.363 . S
C1032 H1048 0.931 . S
C1033 C1032 1.370 1_554 S
C1033 C1037 1.408 . S
C1034 C1032 1.363 . S
C1034 C1035 1.370 1_556 S
C1034 C1038 1.524 1_545 S
C1035 C1027 1.503 1_645 S
C1035 C1034 1.370 1_554 S
C1035 C1036 1.403 . S
C1036 C1035 1.403 . S
C1036 C1037 1.404 . S
C1036 C1039 1.539 1_655 S
C1037 C1033 1.408 . S
C1037 C1036 1.404 . S
C1037 H1049 0.930 . S
C1038 C1034 1.524 1_565 S
C1038 H1050 0.956 . S
C1038 H1051 0.961 . S
C1038 H1052 0.961 . S
C1039 C1036 1.539 1_455 S
C1039 H1053 0.958 . S
C1039 H1054 0.961 . S
C1039 H1055 0.960 . S
H1040 C1024 0.931 . S
H1041 C1029 0.929 . S
H1042 C1030 0.960 . S
H1043 C1030 0.962 . S
H1044 C1030 0.960 . S
H1045 C1031 0.961 . S
H1046 C1031 0.961 . S
H1047 C1031 0.961 . S
H1048 C1032 0.931 . S
H1049 C1037 0.930 . S
H1050 C1038 0.956 . S
H1051 C1038 0.961 . S
H1052 C1038 0.961 . S
H1053 C1039 0.958 . S
H1054 C1039 0.961 . S
H1055 C1039 0.960 . S
C1056 C1057 1.391 . S
C1056 C1058 1.394 . S
C1056 H1072 0.931 . S
C1057 C1056 1.391 . S
C1057 C1061 1.376 1_554 S
C1058 C1056 1.394 . S
C1058 C1059 1.369 . S
C1058 C1062 1.531 . S
C1059 C1058 1.369 . S
C1059 C1060 1.410 1_554 S
C1059 C1067 1.503 . S
C1060 C1059 1.410 1_556 S
C1060 C1061 1.392 . S
C1060 C1063 1.511 . S
C1061 C1057 1.376 1_556 S
C1061 C1060 1.392 . S
C1061 H1073 0.929 . S
C1062 C1058 1.531 . S
C1062 H1074 0.960 . S
C1062 H1075 0.962 . S
C1062 H1076 0.960 . S
C1063 C1060 1.511 . S
C1063 H1077 0.961 . S
C1063 H1078 0.961 . S
C1063 H1079 0.961 . S
C1064 C1065 1.376 . S
C1064 C1066 1.363 . S
C1064 H1080 0.931 . S
C1065 C1064 1.376 . S
C1065 C1069 1.401 1_556 S
C1066 C1064 1.363 . S
C1066 C1067 1.370 1_556 S
C1066 C1070 1.524 . S
C1067 C1059 1.503 . S
C1067 C1066 1.370 1_554 S
C1067 C1068 1.403 . S
C1068 C1067 1.403 . S
C1068 C1069 1.404 . S
C1068 C1071 1.539 . S
C1069 C1065 1.401 1_554 S
C1069 C1068 1.404 . S
C1069 H1081 0.930 . S
C1070 C1066 1.524 . S
C1070 H1082 0.956 . S
C1070 H1083 0.961 . S
C1070 H1084 0.961 . S
C1071 C1068 1.539 . S
C1071 H1085 0.958 . S
C1071 H1086 0.961 . S
C1071 H1087 0.960 . S
H1072 C1056 0.931 . S
H1073 C1061 0.929 . S
H1074 C1062 0.960 . S
H1075 C1062 0.962 . S
H1076 C1062 0.960 . S
H1077 C1063 0.961 . S
H1078 C1063 0.961 . S
H1079 C1063 0.961 . S
H1080 C1064 0.931 . S
H1081 C1069 0.930 . S
H1082 C1070 0.956 . S
H1083 C1070 0.961 . S
H1084 C1070 0.961 . S
H1085 C1071 0.958 . S
H1086 C1071 0.961 . S
H1087 C1071 0.960 . S
C1088 C1089 1.391 . S
C1088 C1090 1.394 . S
C1088 H1104 0.931 . S
C1089 C1088 1.391 . S
C1089 C1093 1.376 . S
C1090 C1088 1.394 . S
C1090 C1091 1.369 . S
C1090 C1094 1.531 1_655 S
C1091 C1090 1.369 . S
C1091 C1092 1.410 . S
C1091 C1099 1.503 1_655 S
C1092 C1091 1.410 . S
C1092 C1093 1.392 . S
C1092 C1095 1.511 . S
C1093 C1089 1.376 . S
C1093 C1092 1.392 . S
C1093 H1105 0.929 . S
C1094 C1090 1.531 1_455 S
C1094 H1106 0.960 . S
C1094 H1107 0.962 . S
C1094 H1108 0.960 . S
C1095 C1092 1.511 . S
C1095 H1109 0.961 . S
C1095 H1110 0.961 . S
C1095 H1111 0.961 . S
C1096 C1097 1.370 . S
C1096 C1098 1.363 . S
C1096 H1112 0.931 . S
C1097 C1096 1.370 . S
C1097 C1101 1.408 . S
C1098 C1096 1.363 . S
C1098 C1099 1.370 . S
C1098 C1102 1.524 . S
C1099 C1091 1.503 1_455 S
C1099 C1098 1.370 . S
C1099 C1100 1.403 . S
C1100 C1099 1.403 . S
C1100 C1101 1.404 . S
C1100 C1103 1.539 1_455 S
C1101 C1097 1.408 . S
C1101 C1100 1.404 . S
C1101 H1113 0.930 . S
C1102 C1098 1.524 . S
C1102 H1114 0.956 . S
C1102 H1115 0.961 . S
C1102 H1116 0.961 . S
C1103 C1100 1.539 1_655 S
C1103 H1117 0.958 . S
C1103 H1118 0.961 . S
C1103 H1119 0.960 . S
H1104 C1088 0.931 . S
H1105 C1093 0.929 . S
H1106 C1094 0.960 . S
H1107 C1094 0.962 . S
H1108 C1094 0.960 . S
H1109 C1095 0.961 . S
H1110 C1095 0.961 . S
H1111 C1095 0.961 . S
H1112 C1096 0.931 . S
H1113 C1101 0.930 . S
H1114 C1102 0.956 . S
H1115 C1102 0.961 . S
H1116 C1102 0.961 . S
H1117 C1103 0.958 . S
H1118 C1103 0.961 . S
H1119 C1103 0.960 . S
C1120 C1121 1.391 . S
C1120 C1122 1.394 . S
C1120 H1136 0.931 . S
C1121 C1120 1.391 . S
C1121 C1125 1.376 . S
C1122 C1120 1.394 . S
C1122 C1123 1.369 . S
C1122 C1126 1.531 . S
C1123 C1122 1.369 . S
C1123 C1124 1.410 . S
C1123 C1131 1.503 1_565 S
C1124 C1123 1.410 . S
C1124 C1125 1.392 . S
C1124 C1127 1.511 1_565 S
C1125 C1121 1.376 . S
C1125 C1124 1.392 . S
C1125 H1137 0.929 . S
C1126 C1122 1.531 . S
C1126 H1138 0.960 . S
C1126 H1139 0.962 . S
C1126 H1140 0.960 . S
C1127 C1124 1.511 1_545 S
C1127 H1141 0.961 . S
C1127 H1142 0.961 . S
C1127 H1143 0.961 . S
C1128 C1129 1.370 . S
C1128 C1130 1.363 . S
C1128 H1144 0.931 . S
C1129 C1128 1.370 . S
C1129 C1133 1.408 . S
C1130 C1128 1.363 . S
C1130 C1131 1.370 . S
C1130 C1134 1.524 1_545 S
C1131 C1123 1.503 1_545 S
C1131 C1130 1.370 . S
C1131 C1132 1.403 . S
C1132 C1131 1.403 . S
C1132 C1133 1.404 . S
C1132 C1135 1.539 . S
C1133 C1129 1.408 . S
C1133 C1132 1.404 . S
C1133 H1145 0.930 . S
C1134 C1130 1.524 1_565 S
C1134 H1146 0.956 . S
C1134 H1147 0.961 . S
C1134 H1148 0.961 . S
C1135 C1132 1.539 . S
C1135 H1149 0.958 . S
C1135 H1150 0.961 . S
C1135 H1151 0.960 . S
H1136 C1120 0.931 . S
H1137 C1125 0.929 . S
H1138 C1126 0.960 . S
H1139 C1126 0.962 . S
H1140 C1126 0.960 . S
H1141 C1127 0.961 . S
H1142 C1127 0.961 . S
H1143 C1127 0.961 . S
H1144 C1128 0.931 . S
H1145 C1133 0.930 . S
H1146 C1134 0.956 . S
H1147 C1134 0.961 . S
H1148 C1134 0.961 . S
H1149 C1135 0.958 . S
H1150 C1135 0.961 . S
H1151 C1135 0.960 . S
C1152 C1153 1.376 1_556 S
C1152 C1154 1.394 . S
C1152 H1168 0.931 . S
C1153 C1152 1.376 1_554 S
C1153 C1157 1.393 . S
C1154 C1152 1.394 . S
C1154 C1155 1.369 1_556 S
C1154 C1158 1.531 . S
C1155 C1154 1.369 1_554 S
C1155 C1156 1.410 . S
C1155 C1163 1.503 . S
C1156 C1155 1.410 . S
C1156 C1157 1.392 . S
C1156 C1159 1.511 . S
C1157 C1153 1.393 . S
C1157 C1156 1.392 . S
C1157 H1169 0.929 . S
C1158 C1154 1.531 . S
C1158 H1170 0.960 . S
C1158 H1171 0.962 . S
C1158 H1172 0.960 . S
C1159 C1156 1.511 . S
C1159 H1173 0.961 . S
C1159 H1174 0.961 . S
C1159 H1175 0.961 . S
C1160 C1161 1.370 1_556 S
C1160 C1162 1.363 . S
C1160 H1176 0.931 . S
C1161 C1160 1.370 1_554 S
C1161 C1165 1.408 . S
C1162 C1160 1.363 . S
C1162 C1163 1.370 1_556 S
C1162 C1166 1.524 . S
C1163 C1155 1.503 . S
C1163 C1162 1.370 1_554 S
C1163 C1164 1.403 . S
C1164 C1163 1.403 . S
C1164 C1165 1.404 . S
C1164 C1167 1.539 . S
C1165 C1161 1.408 . S
C1165 C1164 1.404 . S
C1165 H1177 0.930 . S
C1166 C1162 1.524 . S
C1166 H1178 0.956 . S
C1166 H1179 0.961 . S
C1166 H1180 0.961 . S
C1167 C1164 1.539 . S
C1167 H1181 0.958 . S
C1167 H1182 0.961 . S
C1167 H1183 0.960 . S
H1168 C1152 0.931 . S
H1169 C1157 0.929 . S
H1170 C1158 0.960 . S
H1171 C1158 0.962 . S
H1172 C1158 0.960 . S
H1173 C1159 0.961 . S
H1174 C1159 0.961 . S
H1175 C1159 0.961 . S
H1176 C1160 0.931 . S
H1177 C1165 0.930 . S
H1178 C1166 0.956 . S
H1179 C1166 0.961 . S
H1180 C1166 0.961 . S
H1181 C1167 0.958 . S
H1182 C1167 0.961 . S
H1183 C1167 0.960 . S
C1184 C1185 1.391 . S
C1184 C1186 1.394 . S
C1184 H1200 0.931 . S
C1185 C1184 1.391 . S
C1185 C1189 1.376 . S
C1186 C1184 1.394 . S
C1186 C1187 1.369 . S
C1186 C1190 1.531 . S
C1187 C1186 1.369 . S
C1187 C1188 1.410 . S
C1187 C1195 1.503 . S
C1188 C1187 1.410 . S
C1188 C1189 1.392 . S
C1188 C1191 1.511 . S
C1189 C1185 1.376 . S
C1189 C1188 1.392 . S
C1189 H1201 0.929 . S
C1190 C1186 1.531 . S
C1190 H1202 0.960 . S
C1190 H1203 0.962 . S
C1190 H1204 0.960 . S
C1191 C1188 1.511 . S
C1191 H1205 0.961 . S
C1191 H1206 0.961 . S
C1191 H1207 0.961 . S
C1192 C1193 1.370 . S
C1192 C1194 1.363 . S
C1192 H1208 0.931 . S
C1193 C1192 1.370 . S
C1193 C1197 1.408 . S
C1194 C1192 1.363 . S
C1194 C1195 1.370 . S
C1194 C1198 1.524 . S
C1195 C1187 1.503 . S
C1195 C1194 1.370 . S
C1195 C1196 1.403 . S
C1196 C1195 1.403 . S
C1196 C1197 1.404 . S
C1196 C1199 1.539 . S
C1197 C1193 1.408 . S
C1197 C1196 1.404 . S
C1197 H1209 0.930 . S
C1198 C1194 1.524 . S
C1198 H1210 0.956 . S
C1198 H1211 0.961 . S
C1198 H1212 0.961 . S
C1199 C1196 1.539 . S
C1199 H1213 0.958 . S
C1199 H1214 0.961 . S
C1199 H1215 0.960 . S
H1200 C1184 0.931 . S
H1201 C1189 0.929 . S
H1202 C1190 0.960 . S
H1203 C1190 0.962 . S
H1204 C1190 0.960 . S
H1205 C1191 0.961 . S
H1206 C1191 0.961 . S
H1207 C1191 0.961 . S
H1208 C1192 0.931 . S
H1209 C1197 0.930 . S
H1210 C1198 0.956 . S
H1211 C1198 0.961 . S
H1212 C1198 0.961 . S
H1213 C1199 0.958 . S
H1214 C1199 0.961 . S
H1215 C1199 0.960 . S
C1216 C1217 1.391 . S
C1216 C1218 1.394 . S
C1216 H1232 0.931 . S
C1217 C1216 1.391 . S
C1217 C1221 1.376 . S
C1218 C1216 1.394 . S
C1218 C1219 1.369 . S
C1218 C1222 1.531 . S
C1219 C1218 1.369 . S
C1219 C1220 1.410 . S
C1219 C1227 1.503 1_655 S
C1220 C1219 1.410 . S
C1220 C1221 1.392 . S
C1220 C1223 1.511 1_655 S
C1221 C1217 1.376 . S
C1221 C1220 1.392 . S
C1221 H1233 0.929 . S
C1222 C1218 1.531 . S
C1222 H1234 0.960 . S
C1222 H1235 0.962 . S
C1222 H1236 0.960 . S
C1223 C1220 1.511 1_455 S
C1223 H1237 0.961 . S
C1223 H1238 0.961 . S
C1223 H1239 0.961 . S
C1224 C1225 1.370 . S
C1224 C1226 1.363 . S
C1224 H1240 0.931 . S
C1225 C1224 1.370 . S
C1225 C1229 1.408 . S
C1226 C1224 1.363 . S
C1226 C1227 1.370 . S
C1226 C1230 1.524 1_455 S
C1227 C1219 1.503 1_455 S
C1227 C1226 1.370 . S
C1227 C1228 1.403 . S
C1228 C1227 1.403 . S
C1228 C1229 1.404 . S
C1228 C1231 1.539 . S
C1229 C1225 1.408 . S
C1229 C1228 1.404 . S
C1229 H1241 0.930 . S
C1230 C1226 1.524 1_655 S
C1230 H1242 0.956 . S
C1230 H1243 0.961 . S
C1230 H1244 0.961 . S
C1231 C1228 1.539 . S
C1231 H1245 0.958 . S
C1231 H1246 0.961 . S
C1231 H1247 0.960 . S
H1232 C1216 0.931 . S
H1233 C1221 0.929 . S
H1234 C1222 0.960 . S
H1235 C1222 0.962 . S
H1236 C1222 0.960 . S
H1237 C1223 0.961 . S
H1238 C1223 0.961 . S
H1239 C1223 0.961 . S
H1240 C1224 0.931 . S
H1241 C1229 0.930 . S
H1242 C1230 0.956 . S
H1243 C1230 0.961 . S
H1244 C1230 0.961 . S
H1245 C1231 0.958 . S
H1246 C1231 0.961 . S
H1247 C1231 0.960 . S
C1248 C1249 1.391 . S
C1248 C1250 1.394 . S
C1248 H1264 0.931 . S
C1249 C1248 1.391 . S
C1249 C1253 1.376 . S
C1250 C1248 1.394 . S
C1250 C1251 1.369 . S
C1250 C1254 1.531 . S
C1251 C1250 1.369 . S
C1251 C1252 1.410 . S
C1251 C1259 1.503 . S
C1252 C1251 1.410 . S
C1252 C1253 1.392 . S
C1252 C1255 1.511 . S
C1253 C1249 1.376 . S
C1253 C1252 1.392 . S
C1253 H1265 0.929 . S
C1254 C1250 1.531 . S
C1254 H1266 0.960 . S
C1254 H1267 0.962 . S
C1254 H1268 0.960 . S
C1255 C1252 1.511 . S
C1255 H1269 0.961 . S
C1255 H1270 0.961 . S
C1255 H1271 0.961 . S
C1256 C1257 1.370 . S
C1256 C1258 1.363 . S
C1256 H1272 0.931 . S
C1257 C1256 1.370 . S
C1257 C1261 1.408 . S
C1258 C1256 1.363 . S
C1258 C1259 1.370 . S
C1258 C1262 1.524 . S
C1259 C1251 1.503 . S
C1259 C1258 1.370 . S
C1259 C1260 1.403 . S
C1260 C1259 1.403 . S
C1260 C1261 1.404 . S
C1260 C1263 1.539 . S
C1261 C1257 1.408 . S
C1261 C1260 1.404 . S
C1261 H1273 0.930 . S
C1262 C1258 1.524 . S
C1262 H1274 0.956 . S
C1262 H1275 0.961 . S
C1262 H1276 0.961 . S
C1263 C1260 1.539 . S
C1263 H1277 0.958 . S
C1263 H1278 0.961 . S
C1263 H1279 0.960 . S
H1264 C1248 0.931 . S
H1265 C1253 0.929 . S
H1266 C1254 0.960 . S
H1267 C1254 0.962 . S
H1268 C1254 0.960 . S
H1269 C1255 0.961 . S
H1270 C1255 0.961 . S
H1271 C1255 0.961 . S
H1272 C1256 0.931 . S
H1273 C1261 0.930 . S
H1274 C1262 0.956 . S
H1275 C1262 0.961 . S
H1276 C1262 0.961 . S
H1277 C1263 0.958 . S
H1278 C1263 0.961 . S
H1279 C1263 0.960 . S
C1280 C1281 1.391 . S
C1280 C1282 1.394 . S
C1280 H1296 0.931 . S
C1281 C1280 1.391 . S
C1281 C1285 1.376 . S
C1282 C1280 1.394 . S
C1282 C1283 1.369 . S
C1282 C1286 1.531 . S
C1283 C1282 1.369 . S
C1283 C1284 1.410 . S
C1283 C1291 1.503 . S
C1284 C1283 1.410 . S
C1284 C1285 1.392 . S
C1284 C1287 1.511 . S
C1285 C1281 1.376 . S
C1285 C1284 1.392 . S
C1285 H1297 0.929 . S
C1286 C1282 1.531 . S
C1286 H1298 0.960 . S
C1286 H1299 0.962 . S
C1286 H1300 0.960 . S
C1287 C1284 1.511 . S
C1287 H1301 0.961 . S
C1287 H1302 0.961 . S
C1287 H1303 0.961 . S
C1288 C1289 1.370 . S
C1288 C1290 1.363 . S
C1288 H1304 0.931 . S
C1289 C1288 1.370 . S
C1289 C1293 1.408 . S
C1290 C1288 1.363 . S
C1290 C1291 1.370 . S
C1290 C1294 1.524 . S
C1291 C1283 1.503 . S
C1291 C1290 1.370 . S
C1291 C1292 1.403 . S
C1292 C1291 1.403 . S
C1292 C1293 1.404 . S
C1292 C1295 1.539 . S
C1293 C1289 1.408 . S
C1293 C1292 1.404 . S
C1293 H1305 0.930 . S
C1294 C1290 1.524 . S
C1294 H1306 0.956 . S
C1294 H1307 0.961 . S
C1294 H1308 0.961 . S
C1295 C1292 1.539 . S
C1295 H1309 0.958 . S
C1295 H1310 0.961 . S
C1295 H1311 0.960 . S
H1296 C1280 0.931 . S
H1297 C1285 0.929 . S
H1298 C1286 0.960 . S
H1299 C1286 0.962 . S
H1300 C1286 0.960 . S
H1301 C1287 0.961 . S
H1302 C1287 0.961 . S
H1303 C1287 0.961 . S
H1304 C1288 0.931 . S
H1305 C1293 0.930 . S
H1306 C1294 0.956 . S
H1307 C1294 0.961 . S
H1308 C1294 0.961 . S
H1309 C1295 0.958 . S
H1310 C1295 0.961 . S
H1311 C1295 0.960 . S
C1312 C1313 1.391 . S
C1312 C1314 1.394 . S
C1312 H1328 0.931 . S
C1313 C1312 1.391 . S
C1313 C1317 1.376 . S
C1314 C1312 1.394 . S
C1314 C1315 1.369 . S
C1314 C1318 1.531 . S
C1315 C1314 1.369 . S
C1315 C1316 1.410 . S
C1315 C1323 1.503 . S
C1316 C1315 1.410 . S
C1316 C1317 1.392 . S
C1316 C1319 1.511 . S
C1317 C1313 1.376 . S
C1317 C1316 1.392 . S
C1317 H1329 0.929 . S
C1318 C1314 1.531 . S
C1318 H1330 0.960 . S
C1318 H1331 0.962 . S
C1318 H1332 0.960 . S
C1319 C1316 1.511 . S
C1319 H1333 0.961 . S
C1319 H1334 0.961 . S
C1319 H1335 0.961 . S
C1320 C1321 1.370 . S
C1320 C1322 1.363 . S
C1320 H1336 0.931 . S
C1321 C1320 1.370 . S
C1321 C1325 1.408 . S
C1322 C1320 1.363 . S
C1322 C1323 1.370 . S
C1322 C1326 1.524 . S
C1323 C1315 1.503 . S
C1323 C1322 1.370 . S
C1323 C1324 1.403 . S
C1324 C1323 1.403 . S
C1324 C1325 1.404 . S
C1324 C1327 1.539 . S
C1325 C1321 1.408 . S
C1325 C1324 1.404 . S
C1325 H1337 0.930 . S
C1326 C1322 1.524 . S
C1326 H1338 0.956 . S
C1326 H1339 0.961 . S
C1326 H1340 0.961 . S
C1327 C1324 1.539 . S
C1327 H1341 0.958 . S
C1327 H1342 0.961 . S
C1327 H1343 0.960 . S
H1328 C1312 0.931 . S
H1329 C1317 0.929 . S
H1330 C1318 0.960 . S
H1331 C1318 0.962 . S
H1332 C1318 0.960 . S
H1333 C1319 0.961 . S
H1334 C1319 0.961 . S
H1335 C1319 0.961 . S
H1336 C1320 0.931 . S
H1337 C1325 0.930 . S
H1338 C1326 0.956 . S
H1339 C1326 0.961 . S
H1340 C1326 0.961 . S
H1341 C1327 0.958 . S
H1342 C1327 0.961 . S
H1343 C1327 0.960 . S
C1344 C1345 1.391 . S
C1344 C1346 1.394 . S
C1344 H1360 0.931 . S
C1345 C1344 1.391 . S
C1345 C1349 1.376 . S
C1346 C1344 1.394 . S
C1346 C1347 1.369 . S
C1346 C1350 1.531 . S
C1347 C1346 1.369 . S
C1347 C1348 1.410 . S
C1347 C1355 1.503 . S
C1348 C1347 1.410 . S
C1348 C1349 1.392 . S
C1348 C1351 1.511 . S
C1349 C1345 1.376 . S
C1349 C1348 1.392 . S
C1349 H1361 0.929 . S
C1350 C1346 1.531 . S
C1350 H1362 0.960 . S
C1350 H1363 0.962 . S
C1350 H1364 0.960 . S
C1351 C1348 1.511 . S
C1351 H1365 0.961 . S
C1351 H1366 0.961 . S
C1351 H1367 0.961 . S
C1352 C1353 1.370 . S
C1352 C1354 1.363 . S
C1352 H1368 0.931 . S
C1353 C1352 1.370 . S
C1353 C1357 1.408 . S
C1354 C1352 1.363 . S
C1354 C1355 1.370 . S
C1354 C1358 1.524 . S
C1355 C1347 1.503 . S
C1355 C1354 1.370 . S
C1355 C1356 1.403 . S
C1356 C1355 1.403 . S
C1356 C1357 1.404 . S
C1356 C1359 1.539 . S
C1357 C1353 1.408 . S
C1357 C1356 1.404 . S
C1357 H1369 0.930 . S
C1358 C1354 1.524 . S
C1358 H1370 0.956 . S
C1358 H1371 0.961 . S
C1358 H1372 0.961 . S
C1359 C1356 1.539 . S
C1359 H1373 0.958 . S
C1359 H1374 0.961 . S
C1359 H1375 0.960 . S
H1360 C1344 0.931 . S
H1361 C1349 0.929 . S
H1362 C1350 0.960 . S
H1363 C1350 0.962 . S
H1364 C1350 0.960 . S
H1365 C1351 0.961 . S
H1366 C1351 0.961 . S
H1367 C1351 0.961 . S
H1368 C1352 0.931 . S
H1369 C1357 0.930 . S
H1370 C1358 0.956 . S
H1371 C1358 0.961 . S
H1372 C1358 0.961 . S
H1373 C1359 0.958 . S
H1374 C1359 0.961 . S
H1375 C1359 0.960 . S
C1376 C1377 1.391 . S
C1376 C1378 1.394 . S
C1376 H1392 0.931 . S
C1377 C1376 1.391 . S
C1377 C1381 1.376 . S
C1378 C1376 1.394 . S
C1378 C1379 1.369 . S
C1378 C1382 1.531 1_545 S
C1379 C1378 1.369 . S
C1379 C1380 1.410 . S
C1379 C1387 1.503 1_545 S
C1380 C1379 1.410 . S
C1380 C1381 1.392 . S
C1380 C1383 1.511 . S
C1381 C1377 1.376 . S
C1381 C1380 1.392 . S
C1381 H1393 0.929 . S
C1382 C1378 1.531 1_565 S
C1382 H1394 0.960 . S
C1382 H1395 0.962 . S
C1382 H1396 0.960 . S
C1383 C1380 1.511 . S
C1383 H1397 0.961 . S
C1383 H1398 0.961 . S
C1383 H1399 0.961 . S
C1384 C1385 1.370 . S
C1384 C1386 1.363 . S
C1384 H1400 0.931 . S
C1385 C1384 1.370 . S
C1385 C1389 1.408 . S
C1386 C1384 1.363 . S
C1386 C1387 1.370 . S
C1386 C1390 1.524 . S
C1387 C1379 1.503 1_565 S
C1387 C1386 1.370 . S
C1387 C1388 1.403 . S
C1388 C1387 1.403 . S
C1388 C1389 1.404 . S
C1388 C1391 1.539 . S
C1389 C1385 1.408 . S
C1389 C1388 1.404 . S
C1389 H1401 0.930 . S
C1390 C1386 1.524 . S
C1390 H1402 0.956 . S
C1390 H1403 0.961 1_565 S
C1390 H1404 0.961 . S
C1391 C1388 1.539 . S
C1391 H1405 0.958 . S
C1391 H1406 0.961 . S
C1391 H1407 0.960 1_565 S
H1392 C1376 0.931 . S
H1393 C1381 0.929 . S
H1394 C1382 0.960 . S
H1395 C1382 0.962 . S
H1396 C1382 0.960 . S
H1397 C1383 0.961 . S
H1398 C1383 0.961 . S
H1399 C1383 0.961 . S
H1400 C1384 0.931 . S
H1401 C1389 0.930 . S
H1402 C1390 0.956 . S
H1403 C1390 0.961 1_545 S
H1404 C1390 0.961 . S
H1405 C1391 0.958 . S
H1406 C1391 0.961 . S
H1407 C1391 0.960 1_545 S
C1408 C1409 1.391 . S
C1408 C1410 1.394 . S
C1408 H1424 0.931 . S
C1409 C1408 1.391 . S
C1409 C1413 1.376 . S
C1410 C1408 1.394 . S
C1410 C1411 1.369 . S
C1410 C1414 1.531 . S
C1411 C1410 1.369 . S
C1411 C1412 1.410 . S
C1411 C1419 1.503 . S
C1412 C1411 1.410 . S
C1412 C1413 1.392 . S
C1412 C1415 1.511 . S
C1413 C1409 1.376 . S
C1413 C1412 1.392 . S
C1413 H1425 0.929 . S
C1414 C1410 1.531 . S
C1414 H1426 0.960 . S
C1414 H1427 0.962 . S
C1414 H1428 0.960 . S
C1415 C1412 1.511 . S
C1415 H1429 0.961 . S
C1415 H1430 0.961 . S
C1415 H1431 0.961 . S
C1416 C1417 1.370 . S
C1416 C1418 1.363 . S
C1416 H1432 0.931 . S
C1417 C1416 1.370 . S
C1417 C1421 1.408 . S
C1418 C1416 1.363 . S
C1418 C1419 1.370 . S
C1418 C1422 1.524 . S
C1419 C1411 1.503 . S
C1419 C1418 1.370 . S
C1419 C1420 1.403 . S
C1420 C1419 1.403 . S
C1420 C1421 1.404 . S
C1420 C1423 1.539 . S
C1421 C1417 1.408 . S
C1421 C1420 1.404 . S
C1421 H1433 0.930 . S
C1422 C1418 1.524 . S
C1422 H1434 0.956 . S
C1422 H1435 0.961 . S
C1422 H1436 0.961 . S
C1423 C1420 1.539 . S
C1423 H1437 0.958 . S
C1423 H1438 0.961 . S
C1423 H1439 0.960 . S
H1424 C1408 0.931 . S
H1425 C1413 0.929 . S
H1426 C1414 0.960 . S
H1427 C1414 0.962 . S
H1428 C1414 0.960 . S
H1429 C1415 0.961 . S
H1430 C1415 0.961 . S
H1431 C1415 0.961 . S
H1432 C1416 0.931 . S
H1433 C1421 0.930 . S
H1434 C1422 0.956 . S
H1435 C1422 0.961 . S
H1436 C1422 0.961 . S
H1437 C1423 0.958 . S
H1438 C1423 0.961 . S
H1439 C1423 0.960 . S
C1440 C1441 1.375 1_554 S
C1440 C1442 1.394 . S
C1440 H1456 0.931 . S
C1441 C1440 1.375 1_556 S
C1441 C1445 1.391 . S
C1442 C1440 1.394 . S
C1442 C1443 1.406 . S
C1442 C1446 1.531 . S
C1443 C1442 1.406 . S
C1443 C1444 1.371 1_554 S
C1443 C1451 1.503 . S
C1444 C1443 1.371 1_556 S
C1444 C1445 1.392 . S
C1444 C1447 1.511 . S
C1445 C1441 1.391 . S
C1445 C1444 1.392 . S
C1445 H1457 0.929 . S
C1446 C1442 1.531 . S
C1446 H1458 0.960 . S
C1446 H1459 0.962 . S
C1446 H1460 0.960 . S
C1447 C1444 1.511 . S
C1447 H1461 0.961 . S
C1447 H1462 0.961 . S
C1447 H1463 0.961 . S
C1448 C1449 1.368 1_556 S
C1448 C1450 1.363 . S
C1448 H1464 0.931 . S
C1449 C1448 1.368 1_554 S
C1449 C1453 1.412 . S
C1450 C1448 1.363 . S
C1450 C1451 1.367 1_556 S
C1450 C1454 1.524 . S
C1451 C1443 1.503 . S
C1451 C1450 1.367 1_554 S
C1451 C1452 1.408 . S
C1452 C1451 1.408 . S
C1452 C1453 1.404 . S
C1452 C1455 1.539 . S
C1453 C1449 1.412 . S
C1453 C1452 1.404 . S
C1453 H1465 0.930 . S
C1454 C1450 1.524 . S
C1454 H1466 0.956 1_556 S
C1454 H1467 0.961 . S
C1454 H1468 0.961 . S
C1455 C1452 1.539 . S
C1455 H1469 0.958 . S
C1455 H1470 0.961 1_554 S
C1455 H1471 0.960 1_554 S
H1456 C1440 0.931 . S
H1457 C1445 0.929 . S
H1458 C1446 0.960 . S
H1459 C1446 0.962 . S
H1460 C1446 0.960 . S
H1461 C1447 0.961 . S
H1462 C1447 0.961 . S
H1463 C1447 0.961 . S
H1464 C1448 0.931 . S
H1465 C1453 0.930 . S
H1466 C1454 0.956 1_554 S
H1467 C1454 0.961 . S
H1468 C1454 0.961 . S
H1469 C1455 0.958 . S
H1470 C1455 0.961 1_556 S
H1471 C1455 0.960 1_556 S
C1472 C1473 1.391 . S
C1472 C1474 1.394 . S
C1472 H1488 0.931 . S
C1473 C1472 1.391 . S
C1473 C1477 1.376 . S
C1474 C1472 1.394 . S
C1474 C1475 1.369 . S
C1474 C1478 1.531 . S
C1475 C1474 1.369 . S
C1475 C1476 1.410 . S
C1475 C1483 1.503 . S
C1476 C1475 1.410 . S
C1476 C1477 1.392 . S
C1476 C1479 1.511 . S
C1477 C1473 1.376 . S
C1477 C1476 1.392 . S
C1477 H1489 0.929 . S
C1478 C1474 1.531 . S
C1478 H1490 0.960 . S
C1478 H1491 0.962 . S
C1478 H1492 0.960 . S
C1479 C1476 1.511 . S
C1479 H1493 0.961 . S
C1479 H1494 0.961 . S
C1479 H1495 0.961 . S
C1480 C1481 1.370 . S
C1480 C1482 1.363 . S
C1480 H1496 0.931 . S
C1481 C1480 1.370 . S
C1481 C1485 1.408 . S
C1482 C1480 1.363 . S
C1482 C1483 1.370 . S
C1482 C1486 1.524 . S
C1483 C1475 1.503 . S
C1483 C1482 1.370 . S
C1483 C1484 1.403 . S
C1484 C1483 1.403 . S
C1484 C1485 1.404 . S
C1484 C1487 1.539 . S
C1485 C1481 1.408 . S
C1485 C1484 1.404 . S
C1485 H1497 0.930 . S
C1486 C1482 1.524 . S
C1486 H1498 0.956 . S
C1486 H1499 0.961 . S
C1486 H1500 0.961 . S
C1487 C1484 1.539 . S
C1487 H1501 0.958 . S
C1487 H1502 0.961 . S
C1487 H1503 0.960 . S
H1488 C1472 0.931 . S
H1489 C1477 0.929 . S
H1490 C1478 0.960 . S
H1491 C1478 0.962 . S
H1492 C1478 0.960 . S
H1493 C1479 0.961 . S
H1494 C1479 0.961 . S
H1495 C1479 0.961 . S
H1496 C1480 0.931 . S
H1497 C1485 0.930 . S
H1498 C1486 0.956 . S
H1499 C1486 0.961 . S
H1500 C1486 0.961 . S
H1501 C1487 0.958 . S
H1502 C1487 0.961 . S
H1503 C1487 0.960 . S
C1504 C1505 1.391 . S
C1504 C1506 1.394 . S
C1504 H1520 0.931 . S
C1505 C1504 1.391 . S
C1505 C1509 1.376 . S
C1506 C1504 1.394 . S
C1506 C1507 1.369 . S
C1506 C1510 1.531 . S
C1507 C1506 1.369 . S
C1507 C1508 1.410 . S
C1507 C1515 1.503 . S
C1508 C1507 1.410 . S
C1508 C1509 1.392 . S
C1508 C1511 1.511 . S
C1509 C1505 1.376 . S
C1509 C1508 1.392 . S
C1509 H1521 0.929 . S
C1510 C1506 1.531 . S
C1510 H1522 0.960 . S
C1510 H1523 0.962 . S
C1510 H1524 0.960 . S
C1511 C1508 1.511 . S
C1511 H1525 0.961 . S
C1511 H1526 0.961 . S
C1511 H1527 0.961 . S
C1512 C1513 1.370 . S
C1512 C1514 1.363 . S
C1512 H1528 0.931 . S
C1513 C1512 1.370 . S
C1513 C1517 1.408 . S
C1514 C1512 1.363 . S
C1514 C1515 1.370 . S
C1514 C1518 1.524 . S
C1515 C1507 1.503 . S
C1515 C1514 1.370 . S
C1515 C1516 1.403 . S
C1516 C1515 1.403 . S
C1516 C1517 1.404 . S
C1516 C1519 1.539 1_455 S
C1517 C1513 1.408 . S
C1517 C1516 1.404 . S
C1517 H1529 0.930 . S
C1518 C1514 1.524 . S
C1518 H1530 0.956 . S
C1518 H1531 0.961 . S
C1518 H1532 0.961 . S
C1519 C1516 1.539 1_655 S
C1519 H1533 0.958 . S
C1519 H1534 0.961 . S
C1519 H1535 0.960 . S
H1520 C1504 0.931 . S
H1521 C1509 0.929 . S
H1522 C1510 0.960 . S
H1523 C1510 0.962 . S
H1524 C1510 0.960 . S
H1525 C1511 0.961 . S
H1526 C1511 0.961 . S
H1527 C1511 0.961 . S
H1528 C1512 0.931 . S
H1529 C1517 0.930 . S
H1530 C1518 0.956 . S
H1531 C1518 0.961 . S
H1532 C1518 0.961 . S
H1533 C1519 0.958 . S
H1534 C1519 0.961 . S
H1535 C1519 0.960 . S
C1536 C1537 1.391 . S
C1536 C1538 1.394 . S
C1536 H1552 0.931 . S
C1537 C1536 1.391 . S
C1537 C1541 1.376 . S
C1538 C1536 1.394 . S
C1538 C1539 1.369 . S
C1538 C1542 1.531 . S
C1539 C1538 1.369 . S
C1539 C1540 1.410 . S
C1539 C1547 1.503 . S
C1540 C1539 1.410 . S
C1540 C1541 1.392 . S
C1540 C1543 1.511 . S
C1541 C1537 1.376 . S
C1541 C1540 1.392 . S
C1541 H1553 0.929 . S
C1542 C1538 1.531 . S
C1542 H1554 0.960 . S
C1542 H1555 0.962 . S
C1542 H1556 0.960 . S
C1543 C1540 1.511 . S
C1543 H1557 0.961 . S
C1543 H1558 0.961 . S
C1543 H1559 0.961 . S
C1544 C1545 1.370 . S
C1544 C1546 1.363 . S
C1544 H1560 0.931 . S
C1545 C1544 1.370 . S
C1545 C1549 1.408 . S
C1546 C1544 1.363 . S
C1546 C1547 1.370 . S
C1546 C1550 1.524 . S
C1547 C1539 1.503 . S
C1547 C1546 1.370 . S
C1547 C1548 1.403 . S
C1548 C1547 1.403 . S
C1548 C1549 1.404 . S
C1548 C1551 1.539 . S
C1549 C1545 1.408 . S
C1549 C1548 1.404 . S
C1549 H1561 0.930 . S
C1550 C1546 1.524 . S
C1550 H1562 0.956 . S
C1550 H1563 0.961 . S
C1550 H1564 0.961 . S
C1551 C1548 1.539 . S
C1551 H1565 0.958 . S
C1551 H1566 0.961 . S
C1551 H1567 0.960 . S
H1552 C1536 0.931 . S
H1553 C1541 0.929 . S
H1554 C1542 0.960 . S
H1555 C1542 0.962 . S
H1556 C1542 0.960 . S
H1557 C1543 0.961 . S
H1558 C1543 0.961 . S
H1559 C1543 0.961 . S
H1560 C1544 0.931 . S
H1561 C1549 0.930 . S
H1562 C1550 0.956 . S
H1563 C1550 0.961 . S
H1564 C1550 0.961 . S
H1565 C1551 0.958 . S
H1566 C1551 0.961 . S
H1567 C1551 0.960 . S
C1568 C1569 1.391 . S
C1568 C1570 1.394 . S
C1568 H1584 0.931 . S
C1569 C1568 1.391 . S
C1569 C1573 1.376 . S
C1570 C1568 1.394 . S
C1570 C1571 1.369 . S
C1570 C1574 1.531 . S
C1571 C1570 1.369 . S
C1571 C1572 1.410 . S
C1571 C1579 1.503 . S
C1572 C1571 1.410 . S
C1572 C1573 1.392 . S
C1572 C1575 1.511 . S
C1573 C1569 1.376 . S
C1573 C1572 1.392 . S
C1573 H1585 0.929 . S
C1574 C1570 1.531 . S
C1574 H1586 0.960 . S
C1574 H1587 0.962 1_455 S
C1574 H1588 0.960 1_455 S
C1575 C1572 1.511 . S
C1575 H1589 0.961 . S
C1575 H1590 0.961 . S
C1575 H1591 0.961 . S
C1576 C1577 1.370 . S
C1576 C1578 1.363 . S
C1576 H1592 0.931 . S
C1577 C1576 1.370 . S
C1577 C1581 1.408 . S
C1578 C1576 1.363 . S
C1578 C1579 1.370 . S
C1578 C1582 1.524 . S
C1579 C1571 1.503 . S
C1579 C1578 1.370 . S
C1579 C1580 1.403 . S
C1580 C1579 1.403 . S
C1580 C1581 1.404 . S
C1580 C1583 1.539 . S
C1581 C1577 1.408 . S
C1581 C1580 1.404 . S
C1581 H1593 0.930 . S
C1582 C1578 1.524 . S
C1582 H1594 0.956 . S
C1582 H1595 0.961 . S
C1582 H1596 0.961 . S
C1583 C1580 1.539 . S
C1583 H1597 0.958 . S
C1583 H1598 0.961 . S
C1583 H1599 0.960 . S
H1584 C1568 0.931 . S
H1585 C1573 0.929 . S
H1586 C1574 0.960 . S
H1587 C1574 0.962 1_655 S
H1588 C1574 0.960 1_655 S
H1589 C1575 0.961 . S
H1590 C1575 0.961 . S
H1591 C1575 0.961 . S
H1592 C1576 0.931 . S
H1593 C1581 0.930 . S
H1594 C1582 0.956 . S
H1595 C1582 0.961 . S
H1596 C1582 0.961 . S
H1597 C1583 0.958 . S
H1598 C1583 0.961 . S
H1599 C1583 0.960 . S
C1600 C1601 1.391 . S
C1600 C1602 1.394 . S
C1600 H1616 0.931 . S
C1601 C1600 1.391 . S
C1601 C1605 1.376 . S
C1602 C1600 1.394 . S
C1602 C1603 1.369 . S
C1602 C1606 1.531 . S
C1603 C1602 1.369 . S
C1603 C1604 1.410 . S
C1603 C1611 1.503 . S
C1604 C1603 1.410 . S
C1604 C1605 1.392 . S
C1604 C1607 1.511 . S
C1605 C1601 1.376 . S
C1605 C1604 1.392 . S
C1605 H1617 0.929 . S
C1606 C1602 1.531 . S
C1606 H1618 0.960 . S
C1606 H1619 0.962 . S
C1606 H1620 0.960 . S
C1607 C1604 1.511 . S
C1607 H1621 0.961 . S
C1607 H1622 0.961 . S
C1607 H1623 0.961 . S
C1608 C1609 1.370 . S
C1608 C1610 1.363 . S
C1608 H1624 0.931 . S
C1609 C1608 1.370 . S
C1609 C1613 1.408 . S
C1610 C1608 1.363 . S
C1610 C1611 1.370 . S
C1610 C1614 1.524 . S
C1611 C1603 1.503 . S
C1611 C1610 1.370 . S
C1611 C1612 1.403 . S
C1612 C1611 1.403 . S
C1612 C1613 1.404 . S
C1612 C1615 1.539 . S
C1613 C1609 1.408 . S
C1613 C1612 1.404 . S
C1613 H1625 0.930 . S
C1614 C1610 1.524 . S
C1614 H1626 0.956 . S
C1614 H1627 0.961 . S
C1614 H1628 0.961 . S
C1615 C1612 1.539 . S
C1615 H1629 0.958 . S
C1615 H1630 0.961 . S
C1615 H1631 0.960 . S
H1616 C1600 0.931 . S
H1617 C1605 0.929 . S
H1618 C1606 0.960 . S
H1619 C1606 0.962 . S
H1620 C1606 0.960 . S
H1621 C1607 0.961 . S
H1622 C1607 0.961 . S
H1623 C1607 0.961 . S
H1624 C1608 0.931 . S
H1625 C1613 0.930 . S
H1626 C1614 0.956 . S
H1627 C1614 0.961 . S
H1628 C1614 0.961 . S
H1629 C1615 0.958 . S
H1630 C1615 0.961 . S
H1631 C1615 0.960 . S
C1632 C1633 1.391 . S
C1632 C1634 1.394 . S
C1632 H1648 0.931 . S
C1633 C1632 1.391 . S
C1633 C1637 1.376 . S
C1634 C1632 1.394 . S
C1634 C1635 1.369 . S
C1634 C1638 1.531 . S
C1635 C1634 1.369 . S
C1635 C1636 1.410 . S
C1635 C1643 1.503 . S
C1636 C1635 1.410 . S
C1636 C1637 1.392 . S
C1636 C1639 1.511 . S
C1637 C1633 1.376 . S
C1637 C1636 1.392 . S
C1637 H1649 0.929 . S
C1638 C1634 1.531 . S
C1638 H1650 0.960 . S
C1638 H1651 0.962 . S
C1638 H1652 0.960 . S
C1639 C1636 1.511 . S
C1639 H1653 0.961 . S
C1639 H1654 0.961 . S
C1639 H1655 0.961 . S
C1640 C1641 1.370 . S
C1640 C1642 1.363 . S
C1640 H1656 0.931 . S
C1641 C1640 1.370 . S
C1641 C1645 1.408 . S
C1642 C1640 1.363 . S
C1642 C1643 1.370 . S
C1642 C1646 1.524 . S
C1643 C1635 1.503 . S
C1643 C1642 1.370 . S
C1643 C1644 1.403 . S
C1644 C1643 1.403 . S
C1644 C1645 1.404 . S
C1644 C1647 1.539 . S
C1645 C1641 1.408 . S
C1645 C1644 1.404 . S
C1645 H1657 0.930 . S
C1646 C1642 1.524 . S
C1646 H1658 0.956 . S
C1646 H1659 0.961 . S
C1646 H1660 0.961 . S
C1647 C1644 1.539 . S
C1647 H1661 0.958 . S
C1647 H1662 0.961 . S
C1647 H1663 0.960 . S
H1648 C1632 0.931 . S
H1649 C1637 0.929 . S
H1650 C1638 0.960 . S
H1651 C1638 0.962 . S
H1652 C1638 0.960 . S
H1653 C1639 0.961 . S
H1654 C1639 0.961 . S
H1655 C1639 0.961 . S
H1656 C1640 0.931 . S
H1657 C1645 0.930 . S
H1658 C1646 0.956 . S
H1659 C1646 0.961 . S
H1660 C1646 0.961 . S
H1661 C1647 0.958 . S
H1662 C1647 0.961 . S
H1663 C1647 0.960 . S
C1664 C1665 1.391 . S
C1664 C1666 1.394 . S
C1664 H1680 0.931 . S
C1665 C1664 1.391 . S
C1665 C1669 1.376 . S
C1666 C1664 1.394 . S
C1666 C1667 1.369 . S
C1666 C1670 1.531 . S
C1667 C1666 1.369 . S
C1667 C1668 1.410 . S
C1667 C1675 1.503 . S
C1668 C1667 1.410 . S
C1668 C1669 1.392 . S
C1668 C1671 1.511 . S
C1669 C1665 1.376 . S
C1669 C1668 1.392 . S
C1669 H1681 0.929 . S
C1670 C1666 1.531 . S
C1670 H1682 0.960 . S
C1670 H1683 0.962 . S
C1670 H1684 0.960 . S
C1671 C1668 1.511 . S
C1671 H1685 0.961 . S
C1671 H1686 0.961 . S
C1671 H1687 0.961 . S
C1672 C1673 1.370 . S
C1672 C1674 1.363 . S
C1672 H1688 0.931 . S
C1673 C1672 1.370 . S
C1673 C1677 1.408 . S
C1674 C1672 1.363 . S
C1674 C1675 1.370 . S
C1674 C1678 1.524 . S
C1675 C1667 1.503 . S
C1675 C1674 1.370 . S
C1675 C1676 1.403 . S
C1676 C1675 1.403 . S
C1676 C1677 1.404 . S
C1676 C1679 1.539 . S
C1677 C1673 1.408 . S
C1677 C1676 1.404 . S
C1677 H1689 0.930 . S
C1678 C1674 1.524 . S
C1678 H1690 0.956 . S
C1678 H1691 0.961 . S
C1678 H1692 0.961 . S
C1679 C1676 1.539 . S
C1679 H1693 0.958 . S
C1679 H1694 0.961 . S
C1679 H1695 0.960 . S
H1680 C1664 0.931 . S
H1681 C1669 0.929 . S
H1682 C1670 0.960 . S
H1683 C1670 0.962 . S
H1684 C1670 0.960 . S
H1685 C1671 0.961 . S
H1686 C1671 0.961 . S
H1687 C1671 0.961 . S
H1688 C1672 0.931 . S
H1689 C1677 0.930 . S
H1690 C1678 0.956 . S
H1691 C1678 0.961 . S
H1692 C1678 0.961 . S
H1693 C1679 0.958 . S
H1694 C1679 0.961 . S
H1695 C1679 0.960 . S
C1696 C1697 1.391 . S
C1696 C1698 1.394 . S
C1696 H1712 0.931 . S
C1697 C1696 1.391 . S
C1697 C1701 1.376 . S
C1698 C1696 1.394 . S
C1698 C1699 1.369 . S
C1698 C1702 1.531 . S
C1699 C1698 1.369 . S
C1699 C1700 1.410 . S
C1699 C1707 1.503 . S
C1700 C1699 1.410 . S
C1700 C1701 1.392 . S
C1700 C1703 1.511 . S
C1701 C1697 1.376 . S
C1701 C1700 1.392 . S
C1701 H1713 0.929 . S
C1702 C1698 1.531 . S
C1702 H1714 0.960 . S
C1702 H1715 0.962 1_655 S
C1702 H1716 0.960 . S
C1703 C1700 1.511 . S
C1703 H1717 0.961 . S
C1703 H1718 0.961 . S
C1703 H1719 0.961 . S
C1704 C1705 1.370 . S
C1704 C1706 1.363 . S
C1704 H1720 0.931 . S
C1705 C1704 1.370 . S
C1705 C1709 1.408 . S
C1706 C1704 1.363 . S
C1706 C1707 1.370 . S
C1706 C1710 1.524 . S
C1707 C1699 1.503 . S
C1707 C1706 1.370 . S
C1707 C1708 1.403 . S
C1708 C1707 1.403 . S
C1708 C1709 1.404 . S
C1708 C1711 1.539 . S
C1709 C1705 1.408 . S
C1709 C1708 1.404 . S
C1709 H1721 0.930 . S
C1710 C1706 1.524 . S
C1710 H1722 0.956 . S
C1710 H1723 0.961 . S
C1710 H1724 0.961 . S
C1711 C1708 1.539 . S
C1711 H1725 0.958 . S
C1711 H1726 0.961 . S
C1711 H1727 0.960 . S
H1712 C1696 0.931 . S
H1713 C1701 0.929 . S
H1714 C1702 0.960 . S
H1715 C1702 0.962 1_455 S
H1716 C1702 0.960 . S
H1717 C1703 0.961 . S
H1718 C1703 0.961 . S
H1719 C1703 0.961 . S
H1720 C1704 0.931 . S
H1721 C1709 0.930 . S
H1722 C1710 0.956 . S
H1723 C1710 0.961 . S
H1724 C1710 0.961 . S
H1725 C1711 0.958 . S
H1726 C1711 0.961 . S
H1727 C1711 0.960 . S
C1728 C1729 1.391 . S
C1728 C1730 1.394 . S
C1728 H1744 0.931 . S
C1729 C1728 1.391 . S
C1729 C1733 1.376 . S
C1730 C1728 1.394 . S
C1730 C1731 1.369 . S
C1730 C1734 1.531 . S
C1731 C1730 1.369 . S
C1731 C1732 1.410 . S
C1731 C1739 1.503 . S
C1732 C1731 1.410 . S
C1732 C1733 1.392 . S
C1732 C1735 1.511 . S
C1733 C1729 1.376 . S
C1733 C1732 1.392 . S
C1733 H1745 0.929 . S
C1734 C1730 1.531 . S
C1734 H1746 0.960 . S
C1734 H1747 0.962 . S
C1734 H1748 0.960 . S
C1735 C1732 1.511 . S
C1735 H1749 0.961 . S
C1735 H1750 0.961 . S
C1735 H1751 0.961 . S
C1736 C1737 1.370 . S
C1736 C1738 1.363 . S
C1736 H1752 0.931 . S
C1737 C1736 1.370 . S
C1737 C1741 1.408 . S
C1738 C1736 1.363 . S
C1738 C1739 1.370 . S
C1738 C1742 1.524 . S
C1739 C1731 1.503 . S
C1739 C1738 1.370 . S
C1739 C1740 1.403 . S
C1740 C1739 1.403 . S
C1740 C1741 1.404 . S
C1740 C1743 1.539 . S
C1741 C1737 1.408 . S
C1741 C1740 1.404 . S
C1741 H1753 0.930 . S
C1742 C1738 1.524 . S
C1742 H1754 0.956 . S
C1742 H1755 0.961 . S
C1742 H1756 0.961 . S
C1743 C1740 1.539 . S
C1743 H1757 0.958 . S
C1743 H1758 0.961 . S
C1743 H1759 0.960 . S
H1744 C1728 0.931 . S
H1745 C1733 0.929 . S
H1746 C1734 0.960 . S
H1747 C1734 0.962 . S
H1748 C1734 0.960 . S
H1749 C1735 0.961 . S
H1750 C1735 0.961 . S
H1751 C1735 0.961 . S
H1752 C1736 0.931 . S
H1753 C1741 0.930 . S
H1754 C1742 0.956 . S
H1755 C1742 0.961 . S
H1756 C1742 0.961 . S
H1757 C1743 0.958 . S
H1758 C1743 0.961 . S
H1759 C1743 0.960 . S
C1760 C1761 1.391 . S
C1760 C1762 1.394 . S
C1760 H1776 0.931 . S
C1761 C1760 1.391 . S
C1761 C1765 1.376 . S
C1762 C1760 1.394 . S
C1762 C1763 1.369 . S
C1762 C1766 1.531 . S
C1763 C1762 1.369 . S
C1763 C1764 1.410 . S
C1763 C1771 1.503 . S
C1764 C1763 1.410 . S
C1764 C1765 1.392 . S
C1764 C1767 1.511 . S
C1765 C1761 1.376 . S
C1765 C1764 1.392 . S
C1765 H1777 0.929 . S
C1766 C1762 1.531 . S
C1766 H1778 0.960 . S
C1766 H1779 0.962 . S
C1766 H1780 0.960 . S
C1767 C1764 1.511 . S
C1767 H1781 0.961 . S
C1767 H1782 0.961 . S
C1767 H1783 0.961 . S
C1768 C1769 1.370 . S
C1768 C1770 1.363 . S
C1768 H1784 0.931 . S
C1769 C1768 1.370 . S
C1769 C1773 1.408 . S
C1770 C1768 1.363 . S
C1770 C1771 1.370 . S
C1770 C1774 1.524 . S
C1771 C1763 1.503 . S
C1771 C1770 1.370 . S
C1771 C1772 1.403 . S
C1772 C1771 1.403 . S
C1772 C1773 1.404 . S
C1772 C1775 1.539 . S
C1773 C1769 1.408 . S
C1773 C1772 1.404 . S
C1773 H1785 0.930 . S
C1774 C1770 1.524 . S
C1774 H1786 0.956 . S
C1774 H1787 0.961 . S
C1774 H1788 0.961 . S
C1775 C1772 1.539 . S
C1775 H1789 0.958 . S
C1775 H1790 0.961 . S
C1775 H1791 0.960 . S
H1776 C1760 0.931 . S
H1777 C1765 0.929 . S
H1778 C1766 0.960 . S
H1779 C1766 0.962 . S
H1780 C1766 0.960 . S
H1781 C1767 0.961 . S
H1782 C1767 0.961 . S
H1783 C1767 0.961 . S
H1784 C1768 0.931 . S
H1785 C1773 0.930 . S
H1786 C1774 0.956 . S
H1787 C1774 0.961 . S
H1788 C1774 0.961 . S
H1789 C1775 0.958 . S
H1790 C1775 0.961 . S
H1791 C1775 0.960 . S
C1792 C1793 1.391 . S
C1792 C1794 1.394 . S
C1792 H1808 0.931 . S
C1793 C1792 1.391 . S
C1793 C1797 1.376 . S
C1794 C1792 1.394 . S
C1794 C1795 1.369 . S
C1794 C1798 1.531 . S
C1795 C1794 1.369 . S
C1795 C1796 1.410 . S
C1795 C1803 1.503 . S
C1796 C1795 1.410 . S
C1796 C1797 1.392 . S
C1796 C1799 1.511 . S
C1797 C1793 1.376 . S
C1797 C1796 1.392 . S
C1797 H1809 0.929 . S
C1798 C1794 1.531 . S
C1798 H1810 0.960 . S
C1798 H1811 0.962 . S
C1798 H1812 0.960 . S
C1799 C1796 1.511 . S
C1799 H1813 0.961 . S
C1799 H1814 0.961 . S
C1799 H1815 0.961 . S
C1800 C1801 1.370 . S
C1800 C1802 1.363 . S
C1800 H1816 0.931 . S
C1801 C1800 1.370 . S
C1801 C1805 1.408 . S
C1802 C1800 1.363 . S
C1802 C1803 1.370 . S
C1802 C1806 1.524 . S
C1803 C1795 1.503 . S
C1803 C1802 1.370 . S
C1803 C1804 1.403 . S
C1804 C1803 1.403 . S
C1804 C1805 1.404 . S
C1804 C1807 1.539 . S
C1805 C1801 1.408 . S
C1805 C1804 1.404 . S
C1805 H1817 0.930 . S
C1806 C1802 1.524 . S
C1806 H1818 0.956 . S
C1806 H1819 0.961 . S
C1806 H1820 0.961 . S
C1807 C1804 1.539 . S
C1807 H1821 0.958 . S
C1807 H1822 0.961 . S
C1807 H1823 0.960 . S
H1808 C1792 0.931 . S
H1809 C1797 0.929 . S
H1810 C1798 0.960 . S
H1811 C1798 0.962 . S
H1812 C1798 0.960 . S
H1813 C1799 0.961 . S
H1814 C1799 0.961 . S
H1815 C1799 0.961 . S
H1816 C1800 0.931 . S
H1817 C1805 0.930 . S
H1818 C1806 0.956 . S
H1819 C1806 0.961 . S
H1820 C1806 0.961 . S
H1821 C1807 0.958 . S
H1822 C1807 0.961 . S
H1823 C1807 0.960 . S
C1824 C1825 1.391 . S
C1824 C1826 1.394 . S
C1824 H1840 0.931 . S
C1825 C1824 1.391 . S
C1825 C1829 1.376 . S
C1826 C1824 1.394 . S
C1826 C1827 1.369 . S
C1826 C1830 1.531 . S
C1827 C1826 1.369 . S
C1827 C1828 1.410 . S
C1827 C1835 1.503 . S
C1828 C1827 1.410 . S
C1828 C1829 1.392 . S
C1828 C1831 1.511 . S
C1829 C1825 1.376 . S
C1829 C1828 1.392 . S
C1829 H1841 0.929 . S
C1830 C1826 1.531 . S
C1830 H1842 0.960 . S
C1830 H1843 0.962 . S
C1830 H1844 0.960 . S
C1831 C1828 1.511 . S
C1831 H1845 0.961 . S
C1831 H1846 0.961 . S
C1831 H1847 0.961 . S
C1832 C1833 1.370 . S
C1832 C1834 1.363 . S
C1832 H1848 0.931 . S
C1833 C1832 1.370 . S
C1833 C1837 1.408 . S
C1834 C1832 1.363 . S
C1834 C1835 1.370 . S
C1834 C1838 1.524 . S
C1835 C1827 1.503 . S
C1835 C1834 1.370 . S
C1835 C1836 1.403 . S
C1836 C1835 1.403 . S
C1836 C1837 1.404 . S
C1836 C1839 1.539 . S
C1837 C1833 1.408 . S
C1837 C1836 1.404 . S
C1837 H1849 0.930 . S
C1838 C1834 1.524 . S
C1838 H1850 0.956 . S
C1838 H1851 0.961 . S
C1838 H1852 0.961 . S
C1839 C1836 1.539 . S
C1839 H1853 0.958 . S
C1839 H1854 0.961 . S
C1839 H1855 0.960 . S
H1840 C1824 0.931 . S
H1841 C1829 0.929 . S
H1842 C1830 0.960 . S
H1843 C1830 0.962 . S
H1844 C1830 0.960 . S
H1845 C1831 0.961 . S
H1846 C1831 0.961 . S
H1847 C1831 0.961 . S
H1848 C1832 0.931 . S
H1849 C1837 0.930 . S
H1850 C1838 0.956 . S
H1851 C1838 0.961 . S
H1852 C1838 0.961 . S
H1853 C1839 0.958 . S
H1854 C1839 0.961 . S
H1855 C1839 0.960 . S
C1856 C1857 1.391 . S
C1856 C1858 1.394 . S
C1856 H1872 0.931 . S
C1857 C1856 1.391 . S
C1857 C1861 1.376 . S
C1858 C1856 1.394 . S
C1858 C1859 1.369 . S
C1858 C1862 1.531 . S
C1859 C1858 1.369 . S
C1859 C1860 1.410 . S
C1859 C1867 1.503 . S
C1860 C1859 1.410 . S
C1860 C1861 1.392 . S
C1860 C1863 1.511 . S
C1861 C1857 1.376 . S
C1861 C1860 1.392 . S
C1861 H1873 0.929 . S
C1862 C1858 1.531 . S
C1862 H1874 0.960 . S
C1862 H1875 0.962 . S
C1862 H1876 0.960 . S
C1863 C1860 1.511 . S
C1863 H1877 0.961 . S
C1863 H1878 0.961 . S
C1863 H1879 0.961 . S
C1864 C1865 1.370 . S
C1864 C1866 1.363 . S
C1864 H1880 0.931 . S
C1865 C1864 1.370 . S
C1865 C1869 1.408 . S
C1866 C1864 1.363 . S
C1866 C1867 1.370 . S
C1866 C1870 1.524 . S
C1867 C1859 1.503 . S
C1867 C1866 1.370 . S
C1867 C1868 1.403 . S
C1868 C1867 1.403 . S
C1868 C1869 1.404 . S
C1868 C1871 1.539 . S
C1869 C1865 1.408 . S
C1869 C1868 1.404 . S
C1869 H1881 0.930 . S
C1870 C1866 1.524 . S
C1870 H1882 0.956 . S
C1870 H1883 0.961 . S
C1870 H1884 0.961 . S
C1871 C1868 1.539 . S
C1871 H1885 0.958 . S
C1871 H1886 0.961 . S
C1871 H1887 0.960 . S
H1872 C1856 0.931 . S
H1873 C1861 0.929 . S
H1874 C1862 0.960 . S
H1875 C1862 0.962 . S
H1876 C1862 0.960 . S
H1877 C1863 0.961 . S
H1878 C1863 0.961 . S
H1879 C1863 0.961 . S
H1880 C1864 0.931 . S
H1881 C1869 0.930 . S
H1882 C1870 0.956 . S
H1883 C1870 0.961 . S
H1884 C1870 0.961 . S
H1885 C1871 0.958 . S
H1886 C1871 0.961 . S
H1887 C1871 0.960 . S
C1888 C1889 1.391 . S
C1888 C1890 1.394 . S
C1888 H1904 0.931 . S
C1889 C1888 1.391 . S
C1889 C1893 1.376 . S
C1890 C1888 1.394 . S
C1890 C1891 1.369 . S
C1890 C1894 1.531 . S
C1891 C1890 1.369 . S
C1891 C1892 1.410 . S
C1891 C1899 1.503 . S
C1892 C1891 1.410 . S
C1892 C1893 1.392 . S
C1892 C1895 1.511 . S
C1893 C1889 1.376 . S
C1893 C1892 1.392 . S
C1893 H1905 0.929 . S
C1894 C1890 1.531 . S
C1894 H1906 0.960 . S
C1894 H1907 0.962 . S
C1894 H1908 0.960 . S
C1895 C1892 1.511 . S
C1895 H1909 0.961 . S
C1895 H1910 0.961 . S
C1895 H1911 0.961 . S
C1896 C1897 1.370 . S
C1896 C1898 1.363 . S
C1896 H1912 0.931 . S
C1897 C1896 1.370 . S
C1897 C1901 1.408 . S
C1898 C1896 1.363 . S
C1898 C1899 1.370 . S
C1898 C1902 1.524 . S
C1899 C1891 1.503 . S
C1899 C1898 1.370 . S
C1899 C1900 1.403 . S
C1900 C1899 1.403 . S
C1900 C1901 1.404 . S
C1900 C1903 1.539 . S
C1901 C1897 1.408 . S
C1901 C1900 1.404 . S
C1901 H1913 0.930 . S
C1902 C1898 1.524 . S
C1902 H1914 0.956 . S
C1902 H1915 0.961 . S
C1902 H1916 0.961 . S
C1903 C1900 1.539 . S
C1903 H1917 0.958 . S
C1903 H1918 0.961 . S
C1903 H1919 0.960 . S
H1904 C1888 0.931 . S
H1905 C1893 0.929 . S
H1906 C1894 0.960 . S
H1907 C1894 0.962 . S
H1908 C1894 0.960 . S
H1909 C1895 0.961 . S
H1910 C1895 0.961 . S
H1911 C1895 0.961 . S
H1912 C1896 0.931 . S
H1913 C1901 0.930 . S
H1914 C1902 0.956 . S
H1915 C1902 0.961 . S
H1916 C1902 0.961 . S
H1917 C1903 0.958 . S
H1918 C1903 0.961 . S
H1919 C1903 0.960 . S
C1920 C1921 1.391 . S
C1920 C1922 1.394 . S
C1920 H1936 0.931 . S
C1921 C1920 1.391 . S
C1921 C1925 1.376 . S
C1922 C1920 1.394 . S
C1922 C1923 1.369 . S
C1922 C1926 1.531 . S
C1923 C1922 1.369 . S
C1923 C1924 1.410 . S
C1923 C1931 1.503 . S
C1924 C1923 1.410 . S
C1924 C1925 1.392 . S
C1924 C1927 1.511 . S
C1925 C1921 1.376 . S
C1925 C1924 1.392 . S
C1925 H1937 0.929 . S
C1926 C1922 1.531 . S
C1926 H1938 0.960 . S
C1926 H1939 0.962 . S
C1926 H1940 0.960 . S
C1927 C1924 1.511 . S
C1927 H1941 0.961 . S
C1927 H1942 0.961 . S
C1927 H1943 0.961 . S
C1928 C1929 1.370 . S
C1928 C1930 1.363 . S
C1928 H1944 0.931 . S
C1929 C1928 1.370 . S
C1929 C1933 1.408 . S
C1930 C1928 1.363 . S
C1930 C1931 1.370 . S
C1930 C1934 1.524 . S
C1931 C1923 1.503 . S
C1931 C1930 1.370 . S
C1931 C1932 1.403 . S
C1932 C1931 1.403 . S
C1932 C1933 1.404 . S
C1932 C1935 1.539 . S
C1933 C1929 1.408 . S
C1933 C1932 1.404 . S
C1933 H1945 0.930 . S
C1934 C1930 1.524 . S
C1934 H1946 0.956 . S
C1934 H1947 0.961 . S
C1934 H1948 0.961 . S
C1935 C1932 1.539 . S
C1935 H1949 0.958 . S
C1935 H1950 0.961 . S
C1935 H1951 0.960 . S
H1936 C1920 0.931 . S
H1937 C1925 0.929 . S
H1938 C1926 0.960 . S
H1939 C1926 0.962 . S
H1940 C1926 0.960 . S
H1941 C1927 0.961 . S
H1942 C1927 0.961 . S
H1943 C1927 0.961 . S
H1944 C1928 0.931 . S
H1945 C1933 0.930 . S
H1946 C1934 0.956 . S
H1947 C1934 0.961 . S
H1948 C1934 0.961 . S
H1949 C1935 0.958 . S
H1950 C1935 0.961 . S
H1951 C1935 0.960 . S
C1952 C1953 1.391 . S
C1952 C1954 1.394 . S
C1952 H1968 0.931 . S
C1953 C1952 1.391 . S
C1953 C1957 1.376 . S
C1954 C1952 1.394 . S
C1954 C1955 1.369 . S
C1954 C1958 1.531 . S
C1955 C1954 1.369 . S
C1955 C1956 1.410 . S
C1955 C1963 1.503 . S
C1956 C1955 1.410 . S
C1956 C1957 1.392 . S
C1956 C1959 1.511 . S
C1957 C1953 1.376 . S
C1957 C1956 1.392 . S
C1957 H1969 0.929 . S
C1958 C1954 1.531 . S
C1958 H1970 0.960 . S
C1958 H1971 0.962 . S
C1958 H1972 0.960 . S
C1959 C1956 1.511 . S
C1959 H1973 0.961 . S
C1959 H1974 0.961 . S
C1959 H1975 0.961 . S
C1960 C1961 1.370 . S
C1960 C1962 1.363 . S
C1960 H1976 0.931 . S
C1961 C1960 1.370 . S
C1961 C1965 1.408 . S
C1962 C1960 1.363 . S
C1962 C1963 1.370 . S
C1962 C1966 1.524 . S
C1963 C1955 1.503 . S
C1963 C1962 1.370 . S
C1963 C1964 1.403 . S
C1964 C1963 1.403 . S
C1964 C1965 1.404 . S
C1964 C1967 1.539 . S
C1965 C1961 1.408 . S
C1965 C1964 1.404 . S
C1965 H1977 0.930 . S
C1966 C1962 1.524 . S
C1966 H1978 0.956 . S
C1966 H1979 0.961 . S
C1966 H1980 0.961 . S
C1967 C1964 1.539 . S
C1967 H1981 0.958 . S
C1967 H1982 0.961 . S
C1967 H1983 0.960 . S
H1968 C1952 0.931 . S
H1969 C1957 0.929 . S
H1970 C1958 0.960 . S
H1971 C1958 0.962 . S
H1972 C1958 0.960 . S
H1973 C1959 0.961 . S
H1974 C1959 0.961 . S
H1975 C1959 0.961 . S
H1976 C1960 0.931 . S
H1977 C1965 0.930 . S
H1978 C1966 0.956 . S
H1979 C1966 0.961 . S
H1980 C1966 0.961 . S
H1981 C1967 0.958 . S
H1982 C1967 0.961 . S
H1983 C1967 0.960 . S
C1984 C1985 1.391 . S
C1984 C1986 1.394 . S
C1984 H2000 0.931 . S
C1985 C1984 1.391 . S
C1985 C1989 1.376 . S
C1986 C1984 1.394 . S
C1986 C1987 1.369 . S
C1986 C1990 1.531 . S
C1987 C1986 1.369 . S
C1987 C1988 1.410 . S
C1987 C1995 1.503 . S
C1988 C1987 1.410 . S
C1988 C1989 1.392 . S
C1988 C1991 1.511 . S
C1989 C1985 1.376 . S
C1989 C1988 1.392 . S
C1989 H2001 0.929 . S
C1990 C1986 1.531 . S
C1990 H2002 0.960 . S
C1990 H2003 0.962 . S
C1990 H2004 0.960 . S
C1991 C1988 1.511 . S
C1991 H2005 0.961 . S
C1991 H2006 0.961 . S
C1991 H2007 0.961 . S
C1992 C1993 1.370 . S
C1992 C1994 1.363 . S
C1992 H2008 0.931 . S
C1993 C1992 1.370 . S
C1993 C1997 1.408 . S
C1994 C1992 1.363 . S
C1994 C1995 1.370 . S
C1994 C1998 1.524 . S
C1995 C1987 1.503 . S
C1995 C1994 1.370 . S
C1995 C1996 1.403 . S
C1996 C1995 1.403 . S
C1996 C1997 1.404 . S
C1996 C1999 1.539 . S
C1997 C1993 1.408 . S
C1997 C1996 1.404 . S
C1997 H2009 0.930 . S
C1998 C1994 1.524 . S
C1998 H2010 0.956 . S
C1998 H2011 0.961 . S
C1998 H2012 0.961 . S
C1999 C1996 1.539 . S
C1999 H2013 0.958 . S
C1999 H2014 0.961 . S
C1999 H2015 0.960 . S
H2000 C1984 0.931 . S
H2001 C1989 0.929 . S
H2002 C1990 0.960 . S
H2003 C1990 0.962 . S
H2004 C1990 0.960 . S
H2005 C1991 0.961 . S
H2006 C1991 0.961 . S
H2007 C1991 0.961 . S
H2008 C1992 0.931 . S
H2009 C1997 0.930 . S
H2010 C1998 0.956 . S
H2011 C1998 0.961 . S
H2012 C1998 0.961 . S
H2013 C1999 0.958 . S
H2014 C1999 0.961 . S
H2015 C1999 0.960 . S
C2016 C2017 1.391 . S
C2016 C2018 1.394 . S
C2016 H2032 0.931 . S
C2017 C2016 1.391 . S
C2017 C2021 1.376 . S
C2018 C2016 1.394 . S
C2018 C2019 1.369 . S
C2018 C2022 1.531 . S
C2019 C2018 1.369 . S
C2019 C2020 1.410 . S
C2019 C2027 1.503 . S
C2020 C2019 1.410 . S
C2020 C2021 1.392 . S
C2020 C2023 1.511 . S
C2021 C2017 1.376 . S
C2021 C2020 1.392 . S
C2021 H2033 0.929 . S
C2022 C2018 1.531 . S
C2022 H2034 0.960 . S
C2022 H2035 0.962 . S
C2022 H2036 0.960 . S
C2023 C2020 1.511 . S
C2023 H2037 0.961 . S
C2023 H2038 0.961 . S
C2023 H2039 0.961 . S
C2024 C2025 1.370 . S
C2024 C2026 1.363 . S
C2024 H2040 0.931 . S
C2025 C2024 1.370 . S
C2025 C2029 1.408 . S
C2026 C2024 1.363 . S
C2026 C2027 1.370 . S
C2026 C2030 1.524 . S
C2027 C2019 1.503 . S
C2027 C2026 1.370 . S
C2027 C2028 1.403 . S
C2028 C2027 1.403 . S
C2028 C2029 1.404 . S
C2028 C2031 1.539 . S
C2029 C2025 1.408 . S
C2029 C2028 1.404 . S
C2029 H2041 0.930 . S
C2030 C2026 1.524 . S
C2030 H2042 0.956 . S
C2030 H2043 0.961 . S
C2030 H2044 0.961 . S
C2031 C2028 1.539 . S
C2031 H2045 0.958 . S
C2031 H2046 0.961 . S
C2031 H2047 0.960 . S
H2032 C2016 0.931 . S
H2033 C2021 0.929 . S
H2034 C2022 0.960 . S
H2035 C2022 0.962 . S
H2036 C2022 0.960 . S
H2037 C2023 0.961 . S
H2038 C2023 0.961 . S
H2039 C2023 0.961 . S
H2040 C2024 0.931 . S
H2041 C2029 0.930 . S
H2042 C2030 0.956 . S
H2043 C2030 0.961 . S
H2044 C2030 0.961 . S
H2045 C2031 0.958 . S
H2046 C2031 0.961 . S
H2047 C2031 0.960 . S
C2048 C2049 1.391 . S
C2048 C2050 1.394 . S
C2048 H2064 0.931 . S
C2049 C2048 1.391 . S
C2049 C2053 1.376 . S
C2050 C2048 1.394 . S
C2050 C2051 1.369 . S
C2050 C2054 1.531 . S
C2051 C2050 1.369 . S
C2051 C2052 1.410 . S
C2051 C2059 1.503 . S
C2052 C2051 1.410 . S
C2052 C2053 1.392 . S
C2052 C2055 1.511 . S
C2053 C2049 1.376 . S
C2053 C2052 1.392 . S
C2053 H2065 0.929 . S
C2054 C2050 1.531 . S
C2054 H2066 0.960 . S
C2054 H2067 0.962 1_554 S
C2054 H2068 0.960 . S
C2055 C2052 1.511 . S
C2055 H2069 0.961 1_554 S
C2055 H2070 0.961 1_554 S
C2055 H2071 0.961 . S
C2056 C2057 1.370 1_556 S
C2056 C2058 1.363 . S
C2056 H2072 0.931 . S
C2057 C2056 1.370 1_554 S
C2057 C2061 1.408 . S
C2058 C2056 1.363 . S
C2058 C2059 1.370 1_556 S
C2058 C2062 1.524 . S
C2059 C2051 1.503 . S
C2059 C2058 1.370 1_554 S
C2059 C2060 1.403 . S
C2060 C2059 1.403 . S
C2060 C2061 1.404 . S
C2060 C2063 1.539 . S
C2061 C2057 1.408 . S
C2061 C2060 1.404 . S
C2061 H2073 0.930 . S
C2062 C2058 1.524 . S
C2062 H2074 0.956 . S
C2062 H2075 0.961 . S
C2062 H2076 0.961 . S
C2063 C2060 1.539 . S
C2063 H2077 0.958 . S
C2063 H2078 0.961 . S
C2063 H2079 0.960 . S
H2064 C2048 0.931 . S
H2065 C2053 0.929 . S
H2066 C2054 0.960 . S
H2067 C2054 0.962 1_556 S
H2068 C2054 0.960 . S
H2069 C2055 0.961 1_556 S
H2070 C2055 0.961 1_556 S
H2071 C2055 0.961 . S
H2072 C2056 0.931 . S
H2073 C2061 0.930 . S
H2074 C2062 0.956 . S
H2075 C2062 0.961 . S
H2076 C2062 0.961 . S
H2077 C2063 0.958 . S
H2078 C2063 0.961 . S
H2079 C2063 0.960 . S
C2080 C2081 1.391 . S
C2080 C2082 1.394 . S
C2080 H2096 0.931 . S
C2081 C2080 1.391 . S
C2081 C2085 1.376 1_554 S
C2082 C2080 1.394 . S
C2082 C2083 1.369 . S
C2082 C2086 1.531 . S
C2083 C2082 1.369 . S
C2083 C2084 1.410 1_554 S
C2083 C2091 1.503 . S
C2084 C2083 1.410 1_556 S
C2084 C2085 1.392 . S
C2084 C2087 1.511 . S
C2085 C2081 1.376 1_556 S
C2085 C2084 1.392 . S
C2085 H2097 0.929 . S
C2086 C2082 1.531 . S
C2086 H2098 0.960 . S
C2086 H2099 0.962 . S
C2086 H2100 0.960 . S
C2087 C2084 1.511 . S
C2087 H2101 0.961 . S
C2087 H2102 0.961 . S
C2087 H2103 0.961 . S
C2088 C2089 1.362 1_556 S
C2088 C2090 1.363 . S
C2088 H2104 0.931 . S
C2089 C2088 1.362 1_554 S
C2089 C2093 1.418 . S
C2090 C2088 1.363 . S
C2090 C2091 1.370 1_556 S
C2090 C2094 1.524 . S
C2091 C2083 1.503 . S
C2091 C2090 1.370 1_554 S
C2091 C2092 1.403 . S
C2092 C2091 1.403 . S
C2092 C2093 1.404 . S
C2092 C2095 1.539 . S
C2093 C2089 1.418 . S
C2093 C2092 1.404 . S
C2093 H2105 0.930 . S
C2094 C2090 1.524 . S
C2094 H2106 0.956 . S
C2094 H2107 0.961 . S
C2094 H2108 0.961 . S
C2095 C2092 1.539 . S
C2095 H2109 0.958 . S
C2095 H2110 0.961 . S
C2095 H2111 0.960 . S
H2096 C2080 0.931 . S
H2097 C2085 0.929 . S
H2098 C2086 0.960 . S
H2099 C2086 0.962 . S
H2100 C2086 0.960 . S
H2101 C2087 0.961 . S
H2102 C2087 0.961 . S
H2103 C2087 0.961 . S
H2104 C2088 0.931 . S
H2105 C2093 0.930 . S
H2106 C2094 0.956 . S
H2107 C2094 0.961 . S
H2108 C2094 0.961 . S
H2109 C2095 0.958 . S
H2110 C2095 0.961 . S
H2111 C2095 0.960 . S
C2112 C2113 1.391 . S
C2112 C2114 1.394 . S
C2112 H2128 0.931 . S
C2113 C2112 1.391 . S
C2113 C2117 1.376 . S
C2114 C2112 1.394 . S
C2114 C2115 1.369 . S
C2114 C2118 1.531 . S
C2115 C2114 1.369 . S
C2115 C2116 1.410 . S
C2115 C2123 1.503 . S
C2116 C2115 1.410 . S
C2116 C2117 1.392 . S
C2116 C2119 1.511 . S
C2117 C2113 1.376 . S
C2117 C2116 1.392 . S
C2117 H2129 0.929 . S
C2118 C2114 1.531 . S
C2118 H2130 0.960 . S
C2118 H2131 0.962 . S
C2118 H2132 0.960 . S
C2119 C2116 1.511 . S
C2119 H2133 0.961 . S
C2119 H2134 0.961 . S
C2119 H2135 0.961 . S
C2120 C2121 1.370 . S
C2120 C2122 1.363 . S
C2120 H2136 0.931 . S
C2121 C2120 1.370 . S
C2121 C2125 1.408 . S
C2122 C2120 1.363 . S
C2122 C2123 1.370 . S
C2122 C2126 1.524 . S
C2123 C2115 1.503 . S
C2123 C2122 1.370 . S
C2123 C2124 1.403 . S
C2124 C2123 1.403 . S
C2124 C2125 1.404 . S
C2124 C2127 1.539 . S
C2125 C2121 1.408 . S
C2125 C2124 1.404 . S
C2125 H2137 0.930 . S
C2126 C2122 1.524 . S
C2126 H2138 0.956 . S
C2126 H2139 0.961 . S
C2126 H2140 0.961 . S
C2127 C2124 1.539 . S
C2127 H2141 0.958 . S
C2127 H2142 0.961 . S
C2127 H2143 0.960 . S
H2128 C2112 0.931 . S
H2129 C2117 0.929 . S
H2130 C2118 0.960 . S
H2131 C2118 0.962 . S
H2132 C2118 0.960 . S
H2133 C2119 0.961 . S
H2134 C2119 0.961 . S
H2135 C2119 0.961 . S
H2136 C2120 0.931 . S
H2137 C2125 0.930 . S
H2138 C2126 0.956 . S
H2139 C2126 0.961 . S
H2140 C2126 0.961 . S
H2141 C2127 0.958 . S
H2142 C2127 0.961 . S
H2143 C2127 0.960 . S
C2144 C2145 1.391 . S
C2144 C2146 1.394 . S
C2144 H2160 0.931 . S
C2145 C2144 1.391 . S
C2145 C2149 1.376 . S
C2146 C2144 1.394 . S
C2146 C2147 1.369 . S
C2146 C2150 1.531 . S
C2147 C2146 1.369 . S
C2147 C2148 1.410 . S
C2147 C2155 1.503 . S
C2148 C2147 1.410 . S
C2148 C2149 1.392 . S
C2148 C2151 1.511 . S
C2149 C2145 1.376 . S
C2149 C2148 1.392 . S
C2149 H2161 0.929 . S
C2150 C2146 1.531 . S
C2150 H2162 0.960 . S
C2150 H2163 0.962 . S
C2150 H2164 0.960 . S
C2151 C2148 1.511 . S
C2151 H2165 0.961 . S
C2151 H2166 0.961 . S
C2151 H2167 0.961 . S
C2152 C2153 1.370 . S
C2152 C2154 1.363 . S
C2152 H2168 0.931 . S
C2153 C2152 1.370 . S
C2153 C2157 1.408 . S
C2154 C2152 1.363 . S
C2154 C2155 1.370 . S
C2154 C2158 1.524 . S
C2155 C2147 1.503 . S
C2155 C2154 1.370 . S
C2155 C2156 1.403 . S
C2156 C2155 1.403 . S
C2156 C2157 1.404 . S
C2156 C2159 1.539 . S
C2157 C2153 1.408 . S
C2157 C2156 1.404 . S
C2157 H2169 0.930 . S
C2158 C2154 1.524 . S
C2158 H2170 0.956 . S
C2158 H2171 0.961 . S
C2158 H2172 0.961 . S
C2159 C2156 1.539 . S
C2159 H2173 0.958 . S
C2159 H2174 0.961 . S
C2159 H2175 0.960 . S
H2160 C2144 0.931 . S
H2161 C2149 0.929 . S
H2162 C2150 0.960 . S
H2163 C2150 0.962 . S
H2164 C2150 0.960 . S
H2165 C2151 0.961 . S
H2166 C2151 0.961 . S
H2167 C2151 0.961 . S
H2168 C2152 0.931 . S
H2169 C2157 0.930 . S
H2170 C2158 0.956 . S
H2171 C2158 0.961 . S
H2172 C2158 0.961 . S
H2173 C2159 0.958 . S
H2174 C2159 0.961 . S
H2175 C2159 0.960 . S
C2176 C2177 1.391 . S
C2176 C2178 1.394 . S
C2176 H2192 0.931 . S
C2177 C2176 1.391 . S
C2177 C2181 1.376 . S
C2178 C2176 1.394 . S
C2178 C2179 1.369 . S
C2178 C2182 1.531 . S
C2179 C2178 1.369 . S
C2179 C2180 1.410 . S
C2179 C2187 1.503 . S
C2180 C2179 1.410 . S
C2180 C2181 1.392 . S
C2180 C2183 1.511 . S
C2181 C2177 1.376 . S
C2181 C2180 1.392 . S
C2181 H2193 0.929 . S
C2182 C2178 1.531 . S
C2182 H2194 0.960 . S
C2182 H2195 0.962 1_556 S
C2182 H2196 0.960 . S
C2183 C2180 1.511 . S
C2183 H2197 0.937 1_556 S
C2183 H2198 0.944 1_556 S
C2183 H2199 0.961 . S
C2184 C2185 1.370 1_554 S
C2184 C2186 1.363 . S
C2184 H2200 0.931 . S
C2185 C2184 1.370 1_556 S
C2185 C2189 1.408 . S
C2186 C2184 1.363 . S
C2186 C2187 1.370 1_554 S
C2186 C2190 1.524 . S
C2187 C2179 1.503 . S
C2187 C2186 1.370 1_556 S
C2187 C2188 1.403 . S
C2188 C2187 1.403 . S
C2188 C2189 1.404 . S
C2188 C2191 1.539 . S
C2189 C2185 1.408 . S
C2189 C2188 1.404 . S
C2189 H2201 0.930 . S
C2190 C2186 1.524 . S
C2190 H2202 0.956 . S
C2190 H2203 0.961 . S
C2190 H2204 0.961 . S
C2191 C2188 1.539 . S
C2191 H2205 0.958 . S
C2191 H2206 0.961 . S
C2191 H2207 0.960 . S
H2192 C2176 0.931 . S
H2193 C2181 0.929 . S
H2194 C2182 0.960 . S
H2195 C2182 0.962 1_554 S
H2196 C2182 0.960 . S
H2197 C2183 0.937 1_554 S
H2198 C2183 0.944 1_554 S
H2199 C2183 0.961 . S
H2200 C2184 0.931 . S
H2201 C2189 0.930 . S
H2202 C2190 0.956 . S
H2203 C2190 0.961 . S
H2204 C2190 0.961 . S
H2205 C2191 0.958 . S
H2206 C2191 0.961 . S
H2207 C2191 0.960 . S
C2208 C2209 1.391 . S
C2208 C2210 1.394 . S
C2208 H2224 0.931 . S
C2209 C2208 1.391 . S
C2209 C2213 1.376 1_556 S
C2210 C2208 1.394 . S
C2210 C2211 1.369 . S
C2210 C2214 1.531 . S
C2211 C2210 1.369 . S
C2211 C2212 1.412 . S
C2211 C2219 1.503 . S
C2212 C2211 1.412 . S
C2212 C2213 1.391 1_556 S
C2212 C2215 1.509 1_556 S
C2213 C2209 1.376 1_554 S
C2213 C2212 1.391 1_554 S
C2213 H2225 0.929 . S
C2214 C2210 1.531 . S
C2214 H2226 0.960 . S
C2214 H2227 0.962 . S
C2214 H2228 0.960 . S
C2215 C2212 1.509 1_554 S
C2215 H2229 0.961 . S
C2215 H2230 0.961 . S
C2215 H2231 0.961 1_554 S
C2216 C2217 1.370 1_554 S
C2216 C2218 1.363 . S
C2216 H2232 0.931 . S
C2217 C2216 1.370 1_556 S
C2217 C2221 1.408 . S
C2218 C2216 1.363 . S
C2218 C2219 1.370 1_554 S
C2218 C2222 1.524 . S
C2219 C2211 1.503 . S
C2219 C2218 1.370 1_556 S
C2219 C2220 1.403 . S
C2220 C2219 1.403 . S
C2220 C2221 1.404 . S
C2220 C2223 1.539 . S
C2221 C2217 1.408 . S
C2221 C2220 1.404 . S
C2221 H2233 0.930 . S
C2222 C2218 1.524 . S
C2222 H2234 0.956 . S
C2222 H2235 0.961 . S
C2222 H2236 0.961 . S
C2223 C2220 1.539 . S
C2223 H2237 0.958 . S
C2223 H2238 0.961 . S
C2223 H2239 0.960 . S
H2224 C2208 0.931 . S
H2225 C2213 0.929 . S
H2226 C2214 0.960 . S
H2227 C2214 0.962 . S
H2228 C2214 0.960 . S
H2229 C2215 0.961 . S
H2230 C2215 0.961 . S
H2231 C2215 0.961 1_556 S
H2232 C2216 0.931 . S
H2233 C2221 0.930 . S
H2234 C2222 0.956 . S
H2235 C2222 0.961 . S
H2236 C2222 0.961 . S
H2237 C2223 0.958 . S
H2238 C2223 0.961 . S
H2239 C2223 0.960 . S
C2240 C2241 1.391 . S
C2240 C2242 1.394 . S
C2240 H2256 0.931 . S
C2241 C2240 1.391 . S
C2241 C2245 1.376 . S
C2242 C2240 1.394 . S
C2242 C2243 1.369 . S
C2242 C2246 1.531 . S
C2243 C2242 1.369 . S
C2243 C2244 1.410 . S
C2243 C2251 1.503 . S
C2244 C2243 1.410 . S
C2244 C2245 1.392 . S
C2244 C2247 1.511 . S
C2245 C2241 1.376 . S
C2245 C2244 1.392 . S
C2245 H2257 0.929 . S
C2246 C2242 1.531 . S
C2246 H2258 0.960 . S
C2246 H2259 0.962 . S
C2246 H2260 0.960 . S
C2247 C2244 1.511 . S
C2247 H2261 0.961 . S
C2247 H2262 0.961 . S
C2247 H2263 0.961 . S
C2248 C2249 1.370 . S
C2248 C2250 1.363 . S
C2248 H2264 0.931 . S
C2249 C2248 1.370 . S
C2249 C2253 1.408 . S
C2250 C2248 1.363 . S
C2250 C2251 1.370 . S
C2250 C2254 1.524 . S
C2251 C2243 1.503 . S
C2251 C2250 1.370 . S
C2251 C2252 1.403 . S
C2252 C2251 1.403 . S
C2252 C2253 1.404 . S
C2252 C2255 1.539 . S
C2253 C2249 1.408 . S
C2253 C2252 1.404 . S
C2253 H2265 0.930 . S
C2254 C2250 1.524 . S
C2254 H2266 0.956 . S
C2254 H2267 0.961 . S
C2254 H2268 0.961 . S
C2255 C2252 1.539 . S
C2255 H2269 0.958 . S
C2255 H2270 0.961 . S
C2255 H2271 0.960 . S
H2256 C2240 0.931 . S
H2257 C2245 0.929 . S
H2258 C2246 0.960 . S
H2259 C2246 0.962 . S
H2260 C2246 0.960 . S
H2261 C2247 0.961 . S
H2262 C2247 0.961 . S
H2263 C2247 0.961 . S
H2264 C2248 0.931 . S
H2265 C2253 0.930 . S
H2266 C2254 0.956 . S
H2267 C2254 0.961 . S
H2268 C2254 0.961 . S
H2269 C2255 0.958 . S
H2270 C2255 0.961 . S
H2271 C2255 0.960 . S
C2272 C2273 1.391 . S
C2272 C2274 1.394 . S
C2272 H2288 0.931 . S
C2273 C2272 1.391 . S
C2273 C2277 1.376 . S
C2274 C2272 1.394 . S
C2274 C2275 1.369 . S
C2274 C2278 1.531 . S
C2275 C2274 1.369 . S
C2275 C2276 1.410 . S
C2275 C2283 1.503 . S
C2276 C2275 1.410 . S
C2276 C2277 1.392 . S
C2276 C2279 1.511 . S
C2277 C2273 1.376 . S
C2277 C2276 1.392 . S
C2277 H2289 0.929 . S
C2278 C2274 1.531 . S
C2278 H2290 0.960 . S
C2278 H2291 0.962 . S
C2278 H2292 0.960 . S
C2279 C2276 1.511 . S
C2279 H2293 0.961 . S
C2279 H2294 0.961 . S
C2279 H2295 0.961 . S
C2280 C2281 1.370 . S
C2280 C2282 1.363 . S
C2280 H2296 0.931 . S
C2281 C2280 1.370 . S
C2281 C2285 1.408 . S
C2282 C2280 1.363 . S
C2282 C2283 1.370 . S
C2282 C2286 1.524 . S
C2283 C2275 1.503 . S
C2283 C2282 1.370 . S
C2283 C2284 1.403 . S
C2284 C2283 1.403 . S
C2284 C2285 1.404 . S
C2284 C2287 1.539 . S
C2285 C2281 1.408 . S
C2285 C2284 1.404 . S
C2285 H2297 0.930 . S
C2286 C2282 1.524 . S
C2286 H2298 0.956 . S
C2286 H2299 0.961 . S
C2286 H2300 0.961 . S
C2287 C2284 1.539 . S
C2287 H2301 0.958 . S
C2287 H2302 0.961 . S
C2287 H2303 0.960 . S
H2288 C2272 0.931 . S
H2289 C2277 0.929 . S
H2290 C2278 0.960 . S
H2291 C2278 0.962 . S
H2292 C2278 0.960 . S
H2293 C2279 0.961 . S
H2294 C2279 0.961 . S
H2295 C2279 0.961 . S
H2296 C2280 0.931 . S
H2297 C2285 0.930 . S
H2298 C2286 0.956 . S
H2299 C2286 0.961 . S
H2300 C2286 0.961 . S
H2301 C2287 0.958 . S
H2302 C2287 0.961 . S
H2303 C2287 0.960 . S
C2304 C2305 1.391 . S
C2304 C2306 1.394 . S
C2304 H2320 0.931 . S
C2305 C2304 1.391 . S
C2305 C2309 1.376 . S
C2306 C2304 1.394 . S
C2306 C2307 1.369 . S
C2306 C2310 1.531 . S
C2307 C2306 1.369 . S
C2307 C2308 1.410 . S
C2307 C2315 1.503 . S
C2308 C2307 1.410 . S
C2308 C2309 1.392 . S
C2308 C2311 1.511 . S
C2309 C2305 1.376 . S
C2309 C2308 1.392 . S
C2309 H2321 0.929 . S
C2310 C2306 1.531 . S
C2310 H2322 0.960 . S
C2310 H2323 0.962 . S
C2310 H2324 0.960 . S
C2311 C2308 1.511 . S
C2311 H2325 0.961 . S
C2311 H2326 0.961 . S
C2311 H2327 0.961 . S
C2312 C2313 1.370 . S
C2312 C2314 1.363 . S
C2312 H2328 0.931 . S
C2313 C2312 1.370 . S
C2313 C2317 1.408 . S
C2314 C2312 1.363 . S
C2314 C2315 1.370 . S
C2314 C2318 1.524 . S
C2315 C2307 1.503 . S
C2315 C2314 1.370 . S
C2315 C2316 1.403 . S
C2316 C2315 1.403 . S
C2316 C2317 1.404 . S
C2316 C2319 1.539 . S
C2317 C2313 1.408 . S
C2317 C2316 1.404 . S
C2317 H2329 0.930 . S
C2318 C2314 1.524 . S
C2318 H2330 0.956 . S
C2318 H2331 0.961 . S
C2318 H2332 0.961 . S
C2319 C2316 1.539 . S
C2319 H2333 0.958 . S
C2319 H2334 0.961 . S
C2319 H2335 0.960 . S
H2320 C2304 0.931 . S
H2321 C2309 0.929 . S
H2322 C2310 0.960 . S
H2323 C2310 0.962 . S
H2324 C2310 0.960 . S
H2325 C2311 0.961 . S
H2326 C2311 0.961 . S
H2327 C2311 0.961 . S
H2328 C2312 0.931 . S
H2329 C2317 0.930 . S
H2330 C2318 0.956 . S
H2331 C2318 0.961 . S
H2332 C2318 0.961 . S
H2333 C2319 0.958 . S
H2334 C2319 0.961 . S
H2335 C2319 0.960 . S
C2336 C2337 1.391 . S
C2336 C2338 1.394 . S
C2336 H2352 0.931 . S
C2337 C2336 1.391 . S
C2337 C2341 1.376 . S
C2338 C2336 1.394 . S
C2338 C2339 1.369 . S
C2338 C2342 1.531 . S
C2339 C2338 1.369 . S
C2339 C2340 1.410 . S
C2339 C2347 1.503 . S
C2340 C2339 1.410 . S
C2340 C2341 1.392 . S
C2340 C2343 1.511 . S
C2341 C2337 1.376 . S
C2341 C2340 1.392 . S
C2341 H2353 0.929 . S
C2342 C2338 1.531 . S
C2342 H2354 0.960 . S
C2342 H2355 0.962 . S
C2342 H2356 0.960 . S
C2343 C2340 1.511 . S
C2343 H2357 0.961 . S
C2343 H2358 0.961 . S
C2343 H2359 0.961 . S
C2344 C2345 1.370 . S
C2344 C2346 1.363 . S
C2344 H2360 0.931 . S
C2345 C2344 1.370 . S
C2345 C2349 1.408 . S
C2346 C2344 1.363 . S
C2346 C2347 1.370 . S
C2346 C2350 1.524 . S
C2347 C2339 1.503 . S
C2347 C2346 1.370 . S
C2347 C2348 1.403 . S
C2348 C2347 1.403 . S
C2348 C2349 1.404 . S
C2348 C2351 1.539 . S
C2349 C2345 1.408 . S
C2349 C2348 1.404 . S
C2349 H2361 0.930 . S
C2350 C2346 1.524 . S
C2350 H2362 0.956 . S
C2350 H2363 0.961 . S
C2350 H2364 0.961 . S
C2351 C2348 1.539 . S
C2351 H2365 0.958 . S
C2351 H2366 0.961 . S
C2351 H2367 0.960 . S
H2352 C2336 0.931 . S
H2353 C2341 0.929 . S
H2354 C2342 0.960 . S
H2355 C2342 0.962 . S
H2356 C2342 0.960 . S
H2357 C2343 0.961 . S
H2358 C2343 0.961 . S
H2359 C2343 0.961 . S
H2360 C2344 0.931 . S
H2361 C2349 0.930 . S
H2362 C2350 0.956 . S
H2363 C2350 0.961 . S
H2364 C2350 0.961 . S
H2365 C2351 0.958 . S
H2366 C2351 0.961 . S
H2367 C2351 0.960 . S
C2368 C2369 1.391 . S
C2368 C2370 1.394 . S
C2368 H2384 0.931 . S
C2369 C2368 1.391 . S
C2369 C2373 1.376 . S
C2370 C2368 1.394 . S
C2370 C2371 1.369 . S
C2370 C2374 1.531 . S
C2371 C2370 1.369 . S
C2371 C2372 1.410 . S
C2371 C2379 1.503 . S
C2372 C2371 1.410 . S
C2372 C2373 1.392 . S
C2372 C2375 1.511 . S
C2373 C2369 1.376 . S
C2373 C2372 1.392 . S
C2373 H2385 0.929 . S
C2374 C2370 1.531 . S
C2374 H2386 0.960 . S
C2374 H2387 0.962 . S
C2374 H2388 0.960 . S
C2375 C2372 1.511 . S
C2375 H2389 0.961 . S
C2375 H2390 0.961 . S
C2375 H2391 0.961 . S
C2376 C2377 1.370 . S
C2376 C2378 1.363 . S
C2376 H2392 0.931 . S
C2377 C2376 1.370 . S
C2377 C2381 1.408 . S
C2378 C2376 1.363 . S
C2378 C2379 1.370 . S
C2378 C2382 1.524 . S
C2379 C2371 1.503 . S
C2379 C2378 1.370 . S
C2379 C2380 1.403 . S
C2380 C2379 1.403 . S
C2380 C2381 1.404 . S
C2380 C2383 1.539 . S
C2381 C2377 1.408 . S
C2381 C2380 1.404 . S
C2381 H2393 0.930 . S
C2382 C2378 1.524 . S
C2382 H2394 0.956 . S
C2382 H2395 0.961 . S
C2382 H2396 0.961 . S
C2383 C2380 1.539 . S
C2383 H2397 0.958 . S
C2383 H2398 0.961 . S
C2383 H2399 0.960 . S
H2384 C2368 0.931 . S
H2385 C2373 0.929 . S
H2386 C2374 0.960 . S
H2387 C2374 0.962 . S
H2388 C2374 0.960 . S
H2389 C2375 0.961 . S
H2390 C2375 0.961 . S
H2391 C2375 0.961 . S
H2392 C2376 0.931 . S
H2393 C2381 0.930 . S
H2394 C2382 0.956 . S
H2395 C2382 0.961 . S
H2396 C2382 0.961 . S
H2397 C2383 0.958 . S
H2398 C2383 0.961 . S
H2399 C2383 0.960 . S
C2400 C2401 1.391 . S
C2400 C2402 1.394 . S
C2400 H2416 0.931 . S
C2401 C2400 1.391 . S
C2401 C2405 1.376 . S
C2402 C2400 1.394 . S
C2402 C2403 1.369 . S
C2402 C2406 1.531 . S
C2403 C2402 1.369 . S
C2403 C2404 1.410 . S
C2403 C2411 1.503 . S
C2404 C2403 1.410 . S
C2404 C2405 1.392 . S
C2404 C2407 1.511 . S
C2405 C2401 1.376 . S
C2405 C2404 1.392 . S
C2405 H2417 0.929 . S
C2406 C2402 1.531 . S
C2406 H2418 0.960 . S
C2406 H2419 0.962 . S
C2406 H2420 0.960 . S
C2407 C2404 1.511 . S
C2407 H2421 0.961 . S
C2407 H2422 0.961 . S
C2407 H2423 0.961 . S
C2408 C2409 1.370 . S
C2408 C2410 1.363 . S
C2408 H2424 0.931 . S
C2409 C2408 1.370 . S
C2409 C2413 1.408 . S
C2410 C2408 1.363 . S
C2410 C2411 1.370 . S
C2410 C2414 1.524 . S
C2411 C2403 1.503 . S
C2411 C2410 1.370 . S
C2411 C2412 1.403 . S
C2412 C2411 1.403 . S
C2412 C2413 1.404 . S
C2412 C2415 1.539 . S
C2413 C2409 1.408 . S
C2413 C2412 1.404 . S
C2413 H2425 0.930 . S
C2414 C2410 1.524 . S
C2414 H2426 0.956 . S
C2414 H2427 0.961 . S
C2414 H2428 0.961 . S
C2415 C2412 1.539 . S
C2415 H2429 0.958 . S
C2415 H2430 0.961 . S
C2415 H2431 0.960 . S
H2416 C2400 0.931 . S
H2417 C2405 0.929 . S
H2418 C2406 0.960 . S
H2419 C2406 0.962 . S
H2420 C2406 0.960 . S
H2421 C2407 0.961 . S
H2422 C2407 0.961 . S
H2423 C2407 0.961 . S
H2424 C2408 0.931 . S
H2425 C2413 0.930 . S
H2426 C2414 0.956 . S
H2427 C2414 0.961 . S
H2428 C2414 0.961 . S
H2429 C2415 0.958 . S
H2430 C2415 0.961 . S
H2431 C2415 0.960 . S
C2432 C2433 1.391 . S
C2432 C2434 1.394 . S
C2432 H2448 0.931 . S
C2433 C2432 1.391 . S
C2433 C2437 1.376 . S
C2434 C2432 1.394 . S
C2434 C2435 1.369 . S
C2434 C2438 1.531 . S
C2435 C2434 1.369 . S
C2435 C2436 1.410 . S
C2435 C2443 1.503 . S
C2436 C2435 1.410 . S
C2436 C2437 1.392 . S
C2436 C2439 1.511 . S
C2437 C2433 1.376 . S
C2437 C2436 1.392 . S
C2437 H2449 0.929 . S
C2438 C2434 1.531 . S
C2438 H2450 0.960 . S
C2438 H2451 0.962 . S
C2438 H2452 0.960 . S
C2439 C2436 1.511 . S
C2439 H2453 0.961 . S
C2439 H2454 0.961 . S
C2439 H2455 0.961 . S
C2440 C2441 1.370 . S
C2440 C2442 1.363 . S
C2440 H2456 0.931 . S
C2441 C2440 1.370 . S
C2441 C2445 1.408 . S
C2442 C2440 1.363 . S
C2442 C2443 1.370 . S
C2442 C2446 1.524 . S
C2443 C2435 1.503 . S
C2443 C2442 1.370 . S
C2443 C2444 1.403 . S
C2444 C2443 1.403 . S
C2444 C2445 1.404 . S
C2444 C2447 1.539 . S
C2445 C2441 1.408 . S
C2445 C2444 1.404 . S
C2445 H2457 0.930 . S
C2446 C2442 1.524 . S
C2446 H2458 0.956 . S
C2446 H2459 0.961 . S
C2446 H2460 0.961 . S
C2447 C2444 1.539 . S
C2447 H2461 0.958 . S
C2447 H2462 0.961 . S
C2447 H2463 0.960 . S
H2448 C2432 0.931 . S
H2449 C2437 0.929 . S
H2450 C2438 0.960 . S
H2451 C2438 0.962 . S
H2452 C2438 0.960 . S
H2453 C2439 0.961 . S
H2454 C2439 0.961 . S
H2455 C2439 0.961 . S
H2456 C2440 0.931 . S
H2457 C2445 0.930 . S
H2458 C2446 0.956 . S
H2459 C2446 0.961 . S
H2460 C2446 0.961 . S
H2461 C2447 0.958 . S
H2462 C2447 0.961 . S
H2463 C2447 0.960 . S
C2464 C2465 1.391 . S
C2464 C2466 1.394 . S
C2464 H2480 0.931 . S
C2465 C2464 1.391 . S
C2465 C2469 1.376 . S
C2466 C2464 1.394 . S
C2466 C2467 1.369 . S
C2466 C2470 1.531 . S
C2467 C2466 1.369 . S
C2467 C2468 1.410 . S
C2467 C2475 1.503 . S
C2468 C2467 1.410 . S
C2468 C2469 1.392 . S
C2468 C2471 1.511 . S
C2469 C2465 1.376 . S
C2469 C2468 1.392 . S
C2469 H2481 0.929 . S
C2470 C2466 1.531 . S
C2470 H2482 0.960 . S
C2470 H2483 0.962 . S
C2470 H2484 0.960 . S
C2471 C2468 1.511 . S
C2471 H2485 0.961 . S
C2471 H2486 0.961 . S
C2471 H2487 0.961 . S
C2472 C2473 1.370 . S
C2472 C2474 1.363 . S
C2472 H2488 0.931 . S
C2473 C2472 1.370 . S
C2473 C2477 1.408 . S
C2474 C2472 1.363 . S
C2474 C2475 1.370 . S
C2474 C2478 1.524 . S
C2475 C2467 1.503 . S
C2475 C2474 1.370 . S
C2475 C2476 1.403 . S
C2476 C2475 1.403 . S
C2476 C2477 1.404 . S
C2476 C2479 1.539 . S
C2477 C2473 1.408 . S
C2477 C2476 1.404 . S
C2477 H2489 0.930 . S
C2478 C2474 1.524 . S
C2478 H2490 0.956 . S
C2478 H2491 0.961 . S
C2478 H2492 0.961 . S
C2479 C2476 1.539 . S
C2479 H2493 0.958 . S
C2479 H2494 0.961 . S
C2479 H2495 0.960 . S
H2480 C2464 0.931 . S
H2481 C2469 0.929 . S
H2482 C2470 0.960 . S
H2483 C2470 0.962 . S
H2484 C2470 0.960 . S
H2485 C2471 0.961 . S
H2486 C2471 0.961 . S
H2487 C2471 0.961 . S
H2488 C2472 0.931 . S
H2489 C2477 0.930 . S
H2490 C2478 0.956 . S
H2491 C2478 0.961 . S
H2492 C2478 0.961 . S
H2493 C2479 0.958 . S
H2494 C2479 0.961 . S
H2495 C2479 0.960 . S
C449 C1 1.570 . S
C457 C55 1.568 . S
C481 C29 1.566 . S
C489 C15 1.569 . S
C513 C56 1.548 . S
C521 C98 1.561 . S
C545 C85 1.572 . S
C553 C83 1.566 . S
C577 C125 1.560 . S
C585 C155 1.567 . S
C609 C140 1.571 . S
C617 C126 1.566 . S
C641 C169 1.550 . S
C649 C222 1.561 . S
C673 C183 1.572 . S
C681 C209 1.566 . S
C705 C266 1.567 . S
C713 C225 1.568 . S
C737 C238 1.561 . S
C745 C252 1.568 . S
C769 C280 1.567 . S
C777 C323 1.569 . S
C801 C309 1.550 . S
C809 C307 1.561 . S
C833 C337 1.548 . S
C841 C378 1.560 . S
C865 C364 1.552 . S
C873 C351 1.558 . S
C897 C404 1.571 . S
C905 C435 1.566 . S
C929 C406 1.547 . S
C937 C421 1.562 . S
C961 C180 1.608 . S
C969 C12 1.593 . S
C993 C26 1.595 . S
C1001 C294 1.600 . S
C1025 C40 1.589 1_554 S
C1033 C96 1.602 . S
C1057 C446 1.575 . S
C1065 C42 1.608 . S
C1089 C69 1.580 . S
C1097 C112 1.607 . S
C1121 C251 1.581 . S
C1129 C70 1.604 . S
C1153 C391 1.610 1_554 S
C1161 C111 1.593 . S
C1185 C419 1.614 . S
C1193 C139 1.591 . S
C1217 C196 1.612 . S
C1225 C153 1.590 . S
C1249 C334 1.579 . S
C1257 C166 1.605 . S
C1281 C194 1.584 . S
C1289 C362 1.602 . S
C1313 C279 1.581 . S
C1321 C211 1.604 . S
C1345 C393 1.578 . S
C1353 C236 1.607 . S
C1377 C320 1.599 . S
C1385 C265 1.594 . S
C1409 C348 1.614 . S
C1417 C293 1.592 . S
C1441 C377 1.576 . S
C1449 C432 1.607 . S
C1473 C141 1.702 . S
C1481 C0 1.693 . S
C1505 C14 1.703 . S
C1513 C154 1.700 . S
C1537 C124 1.679 . S
C1545 C28 1.698 . S
C1569 C127 1.680 . S
C1577 C54 1.700 . S
C1601 C57 1.697 . S
C1609 C208 1.689 . S
C1633 C82 1.692 . S
C1641 C223 1.691 . S
C1665 C168 1.702 . S
C1673 C84 1.698 . S
C1697 C99 1.697 . S
C1705 C182 1.690 . S
C1729 C365 1.678 . S
C1737 C224 1.699 . S
C1761 C379 1.702 . S
C1769 C239 1.691 . S
C1793 C253 1.705 . S
C1801 C336 1.698 . S
C1825 C267 1.705 . S
C1833 C350 1.695 . S
C1857 C281 1.684 . S
C1865 C420 1.701 . S
C1889 C306 1.689 . S
C1897 C434 1.701 . S
C1921 C405 1.685 . S
C1929 C308 1.692 . S
C1953 C407 1.689 . S
C1961 C322 1.691 . S
C1985 C13 1.705 . S
C1993 C363 1.699 . S
C2017 C349 1.697 . S
C2025 C27 1.694 1_655 S
C2049 C41 1.692 . S
C2057 C390 1.697 . S
C2081 C43 1.709 1_655 S
C2089 C376 1.694 . S
C2113 C68 1.678 . S
C2121 C418 1.705 . S
C2145 C71 1.693 1_455 S
C2153 C392 1.698 . S
C2177 C447 1.692 . S
C2185 C97 1.700 . S
C2209 C433 1.688 . S
C2217 C110 1.700 1_455 S
C2241 C250 1.682 . S
C2249 C113 1.707 . S
C2273 C237 1.688 . S
C2281 C138 1.699 1_655 S
C2305 C152 1.694 . S
C2313 C278 1.706 . S
C2337 C167 1.688 1_655 S
C2345 C264 1.699 . S
C2369 C295 1.679 . S
C2377 C181 1.708 . S
C2401 C195 1.695 1_455 S
C2409 C292 1.702 . S
C2433 C197 1.706 . S
C2441 C335 1.699 . S
C2465 C210 1.711 1_455 S
C2473 C321 1.695 . S
