# Generated by pormake.
# Topology uku, (4)-cn, num edge types: 1
# Building blocks:
#     Node 0, Type 0, BuildingBlock: KUFVIS_clean_sbu_0, # of connection points: 4
#     Node 1, Type 0, BuildingBlock: KUFVIS_clean_sbu_0, # of connection points: 4
#     Node 2, Type 0, BuildingBlock: KUFVIS_clean_sbu_0, # of connection points: 4
#     Node 3, Type 0, BuildingBlock: KUFVIS_clean_sbu_0, # of connection points: 4
#     Node 4, Type 0, BuildingBlock: KUFVIS_clean_sbu_0, # of connection points: 4
#     Node 5, Type 0, BuildingBlock: KUFVIS_clean_sbu_0, # of connection points: 4
#     Node 6, Type 0, BuildingBlock: KUFVIS_clean_sbu_0, # of connection points: 4
#     Node 7, Type 0, BuildingBlock: KUFVIS_clean_sbu_0, # of connection points: 4
#     Node 8, Type 0, BuildingBlock: KUFVIS_clean_sbu_0, # of connection points: 4
#     Node 9, Type 0, BuildingBlock: KUFVIS_clean_sbu_0, # of connection points: 4
#     Node 10, Type 0, BuildingBlock: KUFVIS_clean_sbu_0, # of connection points: 4
#     Node 11, Type 0, BuildingBlock: KUFVIS_clean_sbu_0, # of connection points: 4
#     Edge 12, Type (0, 0), BuildingBlock: CIFDUS_clean_linker_0, # of connection points: 2
#     Edge 13, Type (0, 0), BuildingBlock: CIFDUS_clean_linker_0, # of connection points: 2
#     Edge 14, Type (0, 0), BuildingBlock: CIFDUS_clean_linker_0, # of connection points: 2
#     Edge 15, Type (0, 0), BuildingBlock: CIFDUS_clean_linker_0, # of connection points: 2
#     Edge 16, Type (0, 0), BuildingBlock: CIFDUS_clean_linker_0, # of connection points: 2
#     Edge 17, Type (0, 0), BuildingBlock: CIFDUS_clean_linker_0, # of connection points: 2
#     Edge 18, Type (0, 0), BuildingBlock: CIFDUS_clean_linker_0, # of connection points: 2
#     Edge 19, Type (0, 0), BuildingBlock: CIFDUS_clean_linker_0, # of connection points: 2
#     Edge 20, Type (0, 0), BuildingBlock: CIFDUS_clean_linker_0, # of connection points: 2
#     Edge 21, Type (0, 0), BuildingBlock: CIFDUS_clean_linker_0, # of connection points: 2
#     Edge 22, Type (0, 0), BuildingBlock: CIFDUS_clean_linker_0, # of connection points: 2
#     Edge 23, Type (0, 0), BuildingBlock: CIFDUS_clean_linker_0, # of connection points: 2
#     Edge 24, Type (0, 0), BuildingBlock: CIFDUS_clean_linker_0, # of connection points: 2
#     Edge 25, Type (0, 0), BuildingBlock: CIFDUS_clean_linker_0, # of connection points: 2
#     Edge 26, Type (0, 0), BuildingBlock: CIFDUS_clean_linker_0, # of connection points: 2
#     Edge 27, Type (0, 0), BuildingBlock: CIFDUS_clean_linker_0, # of connection points: 2
#     Edge 28, Type (0, 0), BuildingBlock: CIFDUS_clean_linker_0, # of connection points: 2
#     Edge 29, Type (0, 0), BuildingBlock: CIFDUS_clean_linker_0, # of connection points: 2
#     Edge 30, Type (0, 0), BuildingBlock: CIFDUS_clean_linker_0, # of connection points: 2
#     Edge 31, Type (0, 0), BuildingBlock: CIFDUS_clean_linker_0, # of connection points: 2
#     Edge 32, Type (0, 0), BuildingBlock: CIFDUS_clean_linker_0, # of connection points: 2
#     Edge 33, Type (0, 0), BuildingBlock: CIFDUS_clean_linker_0, # of connection points: 2
#     Edge 34, Type (0, 0), BuildingBlock: CIFDUS_clean_linker_0, # of connection points: 2
#     Edge 35, Type (0, 0), BuildingBlock: CIFDUS_clean_linker_0, # of connection points: 2
# Relax obj value: 0.400
# Max RMSD: 0.284
# Mean RMSD: 0.284
data_MOF--net-uku--node1-KUFVIS_clean_sbu_0--edge1-CIFDUS_clean_linker_0
_symmetry_space_group_name_H-M    P1
_symmetry_Int_Tables_number       1
_symmetry_cell_setting            triclinic
loop_
_symmetry_equiv_pos_as_xyz
'x, y, z'
_cell_length_a     36.424862
_cell_length_b     36.525221
_cell_length_c     36.487721
_cell_angle_alpha  90.008537
_cell_angle_beta   90.071296
_cell_angle_gamma 89.924327
loop_
_atom_site_label
_atom_site_type_symbol
_atom_site_fract_x
_atom_site_fract_y
_atom_site_fract_z
_atom_type_partial_charge
Mn0 Mn 0.05697 0.14854 0.64432 0.0
Mn1 Mn 0.97097 0.17076 0.66966 0.0
C2 C 0.04674 0.19908 0.68104 0.0
C3 C 0.11057 0.11564 0.65707 0.0
C4 C 0.00029 0.18144 0.59242 0.0
O5 O 0.02822 0.10201 0.63502 0.0
O6 O 0.97272 0.11741 0.65815 0.0
C7 C 0.96451 0.12942 0.73909 0.0
N8 N 0.9642 0.16194 0.72084 0.0
C9 C 0.95323 0.19525 0.77668 0.0
C10 C 0.9533 0.16209 0.79606 0.0
C11 C 0.95894 0.12905 0.77717 0.0
C12 C 0.95838 0.19387 0.73868 0.0
H13 H 0.96917 0.10398 0.72473 0.0
C14 C -0.00476 0.09426 0.64402 0.0
O15 O 0.10339 0.12679 0.62397 0.0
O16 O 0.08659 0.12324 0.68208 0.0
N17 N 0.96708 0.22158 0.68192 0.0
C18 C 0.97087 0.25128 0.65968 0.0
C19 C 0.96772 0.28658 0.6746 0.0
C20 C 0.96081 0.29097 0.71222 0.0
C21 C 0.95708 0.25998 0.73458 0.0
C22 C 0.96012 0.22548 0.7181 0.0
H23 H 0.97658 0.24806 0.63083 0.0
O24 O 0.07648 0.19679 0.66159 0.0
O25 O 0.02386 0.17216 0.67725 0.0
O26 O 0.03347 0.17204 0.59892 0.0
O27 O 0.97514 0.18126 0.61678 0.0
C28 C 0.95135 0.262 0.77271 0.0
C29 C 0.94935 0.22965 0.79374 0.0
H30 H 0.94947 0.16173 0.8255 0.0
H31 H 0.95923 0.10337 0.79197 0.0
H32 H 0.97085 0.31037 0.65721 0.0
H33 H 0.9588 0.31825 0.72369 0.0
H34 H 0.94896 0.2883 0.78622 0.0
H35 H 0.94546 0.23157 0.8231 0.0
Mn36 Mn 0.90095 0.82518 0.64667 0.0
Mn37 Mn -0.01116 0.80241 0.66429 0.0
C38 C 0.91423 0.77485 0.68263 0.0
C39 C 0.84855 0.8584 0.66269 0.0
C40 C 0.95219 0.79091 0.59033 0.0
O41 O 0.92906 0.87146 0.63459 0.0
O42 O -0.01361 0.85566 0.65253 0.0
C43 C 0.00211 0.84441 0.7324 0.0
N44 N 0.00049 0.8117 0.71453 0.0
C45 C 0.01674 0.7789 0.76942 0.0
C46 C 0.01874 0.81225 0.78836 0.0
C47 C 0.01141 0.84513 0.76975 0.0
C48 C 0.00786 0.77992 0.73207 0.0
H49 H -0.00379 0.86973 0.71828 0.0
C50 C 0.96278 0.87897 0.6406 0.0
O51 O 0.85344 0.84679 0.62937 0.0
O52 O 0.87424 0.85116 0.6862 0.0
N53 N -0.00641 0.75168 0.67669 0.0
C54 C -0.01236 0.72176 0.65519 0.0
C55 C -0.00783 0.6866 0.6701 0.0
C56 C 0.00269 0.68257 0.70693 0.0
C57 C 0.00863 0.71377 0.72853 0.0
C58 C 0.00403 0.74811 0.71208 0.0
H59 H 0.97919 0.7247 0.62697 0.0
O60 O 0.8828 0.77724 0.66596 0.0
O61 O 0.93683 0.80164 0.67685 0.0
O62 O 0.92003 0.80097 0.59984 0.0
O63 O 0.97968 0.79124 0.61209 0.0
C64 C 0.01807 0.71211 0.76595 0.0
C65 C 0.0222 0.74466 0.78636 0.0
H66 H 0.02547 0.81289 0.81728 0.0
H67 H 0.01271 0.87096 0.78424 0.0
H68 H -0.01266 0.66266 0.65331 0.0
H69 H 0.00577 0.6554 0.71843 0.0
H70 H 0.02175 0.68594 0.77942 0.0
H71 H 0.02899 0.74301 0.81523 0.0
Mn72 Mn 0.07311 0.82142 0.32865 0.0
Mn73 Mn 0.98542 0.79831 0.31112 0.0
C74 C 0.06018 0.77122 0.29234 0.0
C75 C 0.12504 0.85498 0.31233 0.0
C76 C 0.02225 0.78712 0.3851 0.0
O77 O 0.04466 0.86752 0.34099 0.0
O78 O -0.01254 0.85156 0.32289 0.0
C79 C 0.97164 0.84026 0.24309 0.0
N80 N 0.97364 0.80755 0.26091 0.0
C81 C 0.95793 0.77467 0.20594 0.0
C82 C 0.95556 0.80802 0.18704 0.0
C83 C 0.96242 0.84095 0.20572 0.0
C84 C 0.96671 0.77572 0.24331 0.0
H85 H 0.9772 0.86562 0.25726 0.0
C86 C 0.01089 0.87493 0.33495 0.0
O87 O 0.1206 0.84325 0.34567 0.0
O88 O 0.09923 0.84762 0.28903 0.0
N89 N 0.98117 0.74756 0.2987 0.0
C90 C -0.01257 0.71769 0.32017 0.0
C91 C 0.98337 0.6825 0.3052 0.0
C92 C 0.973 0.67841 0.26834 0.0
C93 C 0.96674 0.70957 0.24676 0.0
C94 C 0.97087 0.74393 0.26327 0.0
H95 H -0.00422 0.72069 0.34841 0.0
O96 O 0.09158 0.77364 0.30907 0.0
O97 O 0.03738 0.79782 0.29847 0.0
O98 O 0.0544 0.79706 0.37549 0.0
O99 O -0.00526 0.7873 0.36334 0.0
C100 C 0.95742 0.70787 0.20931 0.0
C101 C 0.95295 0.74039 0.18893 0.0
H102 H 0.94888 0.80864 0.15811 0.0
H103 H 0.96083 0.86678 0.19128 0.0
H104 H -0.01155 0.65859 0.32197 0.0
H105 H 0.97027 0.65123 0.2568 0.0
H106 H 0.95411 0.68168 0.19579 0.0
H107 H 0.94626 0.73872 0.16005 0.0
Mn108 Mn 0.91586 0.14439 0.3249 0.0
Mn109 Mn 0.00244 0.16554 0.30051 0.0
C110 C 0.92708 0.19413 0.28746 0.0
C111 C 0.86196 0.11199 0.31207 0.0
C112 C 0.97186 0.1786 0.37686 0.0
O113 O 0.94412 0.09777 0.3356 0.0
O114 O 0.00028 0.11267 0.31388 0.0
C115 C 0.00981 0.12169 0.23271 0.0
N116 N 0.01006 0.15483 0.24981 0.0
C117 C 0.02251 0.186 0.19308 0.0
C118 C 0.02255 0.15218 0.17489 0.0
C119 C 0.01619 0.11989 0.1948 0.0
C120 C 0.01653 0.18604 0.23099 0.0
H121 H 0.00463 0.09683 0.24786 0.0
C122 C 0.97741 0.08987 0.32788 0.0
O123 O 0.86898 0.12359 0.34504 0.0
O124 O 0.88638 0.11868 0.28724 0.0
N125 N 0.00691 0.21586 0.28653 0.0
C126 C 0.00302 0.24637 0.30765 0.0
C127 C 0.00686 0.28108 0.29157 0.0
C128 C 0.01459 0.28404 0.25398 0.0
C129 C 0.01846 0.25224 0.2328 0.0
C130 C 0.01468 0.21839 0.2504 0.0
H131 H -0.00331 0.24424 0.33647 0.0
O132 O 0.897 0.19248 0.30643 0.0
O133 O 0.94968 0.16704 0.29198 0.0
O134 O 0.93891 0.16861 0.37019 0.0
O135 O -0.00266 0.17801 0.35284 0.0
C136 C 0.02503 0.25282 0.19476 0.0
C137 C 0.02714 0.21973 0.17493 0.0
H138 H 0.02703 0.15071 0.14558 0.0
H139 H 0.01599 0.09371 0.18092 0.0
H140 H 0.00363 0.3055 0.30805 0.0
H141 H 0.01714 0.31087 0.2416 0.0
H142 H 0.02801 0.2786 0.18039 0.0
H143 H 0.0317 0.22056 0.14561 0.0
Mn144 Mn 0.64574 0.07581 0.15462 0.0
Mn145 Mn 0.66364 -0.01306 0.16848 0.0
C146 C 0.6843 0.05898 0.20216 0.0
C147 C 0.6604 0.12884 0.1232 0.0
C148 C 0.59007 0.02296 0.1854 0.0
O149 O 0.63072 0.05161 0.10698 0.0
O150 O 0.65163 -0.00599 0.11534 0.0
C151 C 0.73143 0.97649 0.12509 0.0
N152 N 0.7138 0.97574 0.15798 0.0
C153 C 0.76901 0.95706 0.18913 0.0
C154 C 0.78771 0.95751 0.15557 0.0
C155 C 0.76882 0.96725 0.12341 0.0
C156 C 0.73161 0.96602 0.18903 0.0
H157 H 0.71711 0.98427 0.10035 0.0
C158 C 0.63792 0.01951 0.0952 0.0
O159 O 0.62775 0.12438 0.13685 0.0
O160 O 0.68414 0.10292 0.12839 0.0
N161 N 0.67632 0.978 0.21864 0.0
C162 C 0.65501 0.9816 0.2491 0.0
C163 C 0.67021 0.97441 0.28374 0.0
C164 C 0.70714 0.9637 0.28673 0.0
C165 C 0.72855 0.96024 0.25501 0.0
C166 C 0.71182 0.96744 0.22119 0.0
H167 H 0.62671 -0.00983 0.24701 0.0
O168 O 0.66767 0.09045 0.20269 0.0
O169 O 0.67692 0.03843 0.17398 0.0
O170 O 0.6001 0.05586 0.17973 0.0
O171 O 0.61128 -0.00455 0.18062 0.0
C172 C 0.76604 0.95071 0.25571 0.0
C173 C 0.78624 0.94905 0.22278 0.0
H174 H 0.81666 0.95082 0.15422 0.0
H175 H 0.78312 0.96784 0.09744 0.0
H176 H 0.65356 0.97732 0.30811 0.0
H177 H 0.71885 0.95851 0.31354 0.0
H178 H 0.77972 0.94503 0.28146 0.0
H179 H 0.81515 0.94214 0.22372 0.0
Mn180 Mn 0.32833 0.90488 0.14095 0.0
Mn181 Mn 0.3098 -0.00833 0.1654 0.0
C182 C 0.29235 0.91639 0.1918 0.0
C183 C 0.31342 0.85308 0.10719 0.0
C184 C 0.38416 0.9555 0.17656 0.0
O185 O 0.33984 0.93384 0.09493 0.0
O186 O 0.32163 -0.0095 0.11193 0.0
C187 C 0.24151 0.00495 0.12337 0.0
N188 N 0.25936 0.00289 0.15613 0.0
C189 C 0.20404 0.01744 0.18908 0.0
C190 C 0.18512 0.0199 0.15568 0.0
C191 C 0.20395 0.01364 0.12269 0.0
C192 C 0.24158 0.0092 0.18803 0.0
H193 H 0.25579 -0.00015 0.09795 0.0
C194 C 0.3335 0.96755 0.08798 0.0
O195 O 0.34674 0.85841 0.11876 0.0
O196 O 0.28929 0.8781 0.11467 0.0
N197 N 0.29723 -0.00474 0.21622 0.0
C198 C 0.31879 -0.01094 0.24613 0.0
C199 C 0.3037 -0.00739 0.28134 0.0
C200 C 0.26663 0.0024 0.28544 0.0
C201 C 0.24497 0.00861 0.25426 0.0
C202 C 0.2616 0.00501 0.21986 0.0
H203 H 0.3472 0.98116 0.24314 0.0
O204 O 0.30968 0.88547 0.18862 0.0
O205 O 0.29746 0.93964 0.16534 0.0
O206 O 0.3748 0.9238 0.16548 0.0
O207 O 0.3623 0.98289 0.17672 0.0
C208 C 0.20733 0.01739 0.25596 0.0
C209 C 0.1869 0.02188 0.2234 0.0
H210 H 0.15605 0.02619 0.15506 0.0
H211 H 0.1895 0.0153 0.09681 0.0
H212 H 0.32054 -0.01243 0.30528 0.0
H213 H 0.255 0.00473 0.31265 0.0
H214 H 0.19372 0.0203 0.28218 0.0
H215 H 0.15788 0.02816 0.22507 0.0
Mn216 Mn 0.63952 0.8955 0.82784 0.0
Mn217 Mn 0.65602 0.98458 0.81321 0.0
C218 C 0.67668 0.91268 0.77955 0.0
C219 C 0.65542 0.84229 0.85847 0.0
C220 C 0.58301 0.94761 0.79638 0.0
O221 O 0.62524 0.91952 0.87576 0.0
O222 O 0.64423 0.97753 0.86637 0.0
C223 C 0.72371 -0.00443 0.8568 0.0
N224 N 0.70607 -0.00379 0.82386 0.0
C225 C 0.76106 0.01539 0.79287 0.0
C226 C 0.77976 0.0151 0.82648 0.0
C227 C 0.76099 0.00517 0.85857 0.0
C228 C 0.72377 0.00607 0.79286 0.0
H229 H 0.7095 -0.01234 0.88151 0.0
C230 C 0.6318 0.9519 0.88707 0.0
O231 O 0.6224 0.84673 0.84565 0.0
O232 O 0.67873 0.86853 0.85325 0.0
N233 N 0.66863 -0.00638 0.76308 0.0
C234 C 0.64737 -0.01008 0.73255 0.0
C235 C 0.66248 -0.00267 0.69797 0.0
C236 C 0.69928 0.00838 0.6951 0.0
C237 C 0.72065 0.01197 0.72688 0.0
C238 C 0.70401 0.00452 0.76064 0.0
H239 H 0.61917 0.9811 0.73453 0.0
O240 O 0.66045 0.88104 0.77941 0.0
O241 O 0.66992 0.93321 0.80789 0.0
O242 O 0.59329 0.91503 0.80336 0.0
O243 O 0.60382 0.97547 0.80064 0.0
C244 C 0.75801 0.02186 0.7263 0.0
C245 C 0.77819 0.02364 0.75927 0.0
H246 H 0.80863 0.02208 0.82791 0.0
H247 H 0.77529 0.0047 0.88459 0.0
H248 H 0.64587 -0.00568 0.67355 0.0
H249 H 0.71093 0.01374 0.66833 0.0
H250 H 0.77163 0.02773 0.70059 0.0
H251 H 0.80701 0.03084 0.75842 0.0
Mn252 Mn 0.32185 0.06565 0.81919 0.0
Mn253 Mn 0.30262 0.97891 0.79547 0.0
C254 C 0.28433 0.05424 0.76927 0.0
C255 C 0.30835 0.11751 0.8534 0.0
C256 C 0.37709 0.01452 0.78386 0.0
O257 O 0.33453 0.03652 0.86495 0.0
O258 O 0.31468 0.98014 0.84888 0.0
C259 C 0.23446 0.96563 0.83745 0.0
N260 N 0.2522 0.96784 0.80469 0.0
C261 C 0.19685 0.95329 0.7717 0.0
C262 C 0.17803 0.95072 0.8051 0.0
C263 C 0.19694 0.9569 0.83811 0.0
C264 C 0.23437 0.96156 0.77278 0.0
H265 H 0.24882 0.97063 0.86287 0.0
C266 C 0.32771 0.003 0.87232 0.0
O267 O 0.34124 0.11184 0.84089 0.0
O268 O 0.28373 0.09282 0.8465 0.0
N269 N 0.28994 0.97546 0.74464 0.0
C270 C 0.31142 0.98172 0.71476 0.0
C271 C 0.29627 0.97827 0.67953 0.0
C272 C 0.25921 0.96851 0.67539 0.0
C273 C 0.23762 0.96226 0.70655 0.0
C274 C 0.25431 0.9658 0.74097 0.0
H275 H 0.33982 -0.01042 0.7178 0.0
O276 O 0.30183 0.08508 0.77193 0.0
O277 O 0.29031 0.03102 0.7956 0.0
O278 O 0.36765 0.04658 0.79373 0.0
O279 O 0.35519 -0.01277 0.7844 0.0
C280 C 0.2 0.95347 0.70482 0.0
C281 C 0.17965 0.94891 0.73737 0.0
H282 H 0.14899 0.9444 0.80571 0.0
H283 H 0.18256 0.95513 0.86399 0.0
H284 H 0.31305 0.98333 0.65562 0.0
H285 H 0.24753 0.96622 0.64817 0.0
H286 H 0.18634 0.9506 0.67859 0.0
H287 H 0.15065 0.9426 0.73568 0.0
Mn288 Mn 0.14842 0.64271 0.06696 0.0
Mn289 Mn 0.17127 0.66151 0.9796 0.0
C290 C 0.19721 0.68088 0.05446 0.0
C291 C 0.11443 0.65657 0.11908 0.0
C292 C 0.18656 0.58853 0.01644 0.0
O293 O 0.10285 0.62838 0.03837 0.0
O294 O 0.11863 0.64672 0.98136 0.0
C295 C 0.12534 0.72704 0.96607 0.0
N296 N 0.1591 0.71108 0.96794 0.0
C297 C 0.18884 0.76772 0.95218 0.0
C298 C 0.15437 0.78471 0.9499 0.0
C299 C 0.12249 0.76427 0.95687 0.0
C300 C 0.18995 0.73041 0.96096 0.0
H301 H 0.10077 0.71151 0.9717 0.0
C302 C 0.09552 0.63375 0.00454 0.0
O303 O 0.12762 0.62389 0.11395 0.0
O304 O 0.12033 0.68059 0.09361 0.0
N305 N 0.22136 0.67678 0.9754 0.0
C306 C 0.25252 0.65702 0.98152 0.0
C307 C 0.28687 0.6739 0.97731 0.0
C308 C 0.28883 0.71087 0.96692 0.0
C309 C 0.25638 0.73064 0.96077 0.0
C310 C 0.22293 0.71228 0.96504 0.0
H311 H 0.25117 0.6287 -0.01014 0.0
O312 O 0.19527 0.66408 0.08575 0.0
O313 O 0.1708 0.67415 0.03154 0.0
O314 O 0.17523 0.5975 0.04821 0.0
O315 O 0.18547 0.61008 -0.01111 0.0
C316 C 0.25591 0.76807 0.95141 0.0
C317 C 0.22217 0.78657 0.94705 0.0
H318 H 0.15208 0.81352 0.94322 0.0
H319 H 0.0958 0.77724 0.95536 0.0
H320 H 0.31179 0.65851 0.9823 0.0
H321 H 0.31537 0.72389 0.96409 0.0
H322 H 0.28135 0.783 0.94799 0.0
H323 H 0.22217 0.81546 0.94034 0.0
Mn324 Mn 0.14837 0.32962 0.90049 0.0
Mn325 Mn 0.1733 0.31098 -0.01269 0.0
C326 C 0.19751 0.29143 0.91196 0.0
C327 C 0.11277 0.31523 0.84957 0.0
C328 C 0.18719 0.38404 0.95006 0.0
O329 O 0.10351 0.34397 0.93004 0.0
O330 O 0.12044 0.32527 -0.01334 0.0
C331 C 0.12843 0.24507 0.00182 0.0
N332 N 0.16197 0.26129 -0.00083 0.0
C333 C 0.19271 0.20477 0.01377 0.0
C334 C 0.15849 0.18751 0.01683 0.0
C335 C 0.12622 0.20776 0.01084 0.0
C336 C 0.1932 0.24215 0.00522 0.0
H337 H 0.10356 0.26044 -0.00308 0.0
C338 C 0.09681 0.33826 0.96391 0.0
O339 O 0.12601 0.34798 0.85387 0.0
O340 O 0.11976 0.29148 0.87503 0.0
N341 N 0.22365 0.29611 -0.00968 0.0
C342 C 0.25443 0.31612 0.98352 0.0
C343 C 0.28906 0.29948 -0.01327 0.0
C344 C 0.29167 0.26245 -0.00318 0.0
C345 C 0.25961 0.2424 0.00367 0.0
C346 C 0.22587 0.26055 0.0004 0.0
H347 H 0.25257 0.34448 0.97539 0.0
O348 O 0.19478 0.30818 0.88069 0.0
O349 O 0.17172 0.29837 0.93544 0.0
O350 O 0.17547 0.37495 0.91844 0.0
O351 O 0.18667 0.36253 0.97768 0.0
C352 C 0.25978 0.20491 0.01276 0.0
C353 C 0.22636 0.18613 0.01787 0.0
H354 H 0.15668 0.15864 0.02336 0.0
H355 H 0.09971 0.19459 0.01296 0.0
H356 H 0.31367 0.31508 0.98121 0.0
H357 H 0.31842 0.24961 -0.00112 0.0
H358 H 0.28545 0.19014 0.01541 0.0
H359 H 0.22684 0.15719 0.02437 0.0
Mn360 Mn 0.82846 0.64073 0.90456 0.0
Mn361 Mn 0.80374 0.6589 -0.00838 0.0
C362 C 0.77826 0.67715 0.91622 0.0
C363 C 0.86291 0.65558 0.85314 0.0
C364 C 0.79028 0.58601 0.95414 0.0
O365 O 0.87383 0.62735 0.93379 0.0
O366 O 0.85672 0.64491 -0.00937 0.0
C367 C 0.84835 0.72506 0.00595 0.0
N368 N 0.8149 0.70857 0.00372 0.0
C369 C 0.784 0.76453 0.01996 0.0
C370 C 0.81813 0.78205 0.02264 0.0
C371 C 0.85043 0.76222 0.0156 0.0
C372 C 0.78365 0.72731 0.01075 0.0
H373 H 0.87324 0.71 0.00029 0.0
C374 C 0.8805 0.63258 0.96776 0.0
O375 O 0.85057 0.62255 0.85789 0.0
O376 O 0.85595 0.67934 0.8786 0.0
N377 N 0.75335 0.67339 -0.00465 0.0
C378 C 0.72259 0.65322 -0.01124 0.0
C379 C 0.6879 0.66951 -0.0071 0.0
C380 C 0.68519 0.70631 0.00376 0.0
C381 C 0.71722 0.72649 0.01044 0.0
C382 C 0.75104 0.70871 0.00619 0.0
H383 H 0.72452 0.62503 0.98009 0.0
O384 O 0.78148 0.66063 0.88488 0.0
O385 O 0.80455 0.67159 0.93964 0.0
O386 O 0.80243 0.59503 0.92271 0.0
O387 O 0.79047 0.60745 0.98179 0.0
C388 C 0.71693 0.76379 0.02029 0.0
C389 C 0.75029 0.78278 0.02511 0.0
H390 H 0.81983 0.81081 0.02968 0.0
H391 H 0.87686 0.7756 0.01742 0.0
H392 H 0.66331 0.6538 -0.01248 0.0
H393 H 0.65839 0.71887 0.00654 0.0
H394 H 0.69119 0.77828 0.02372 0.0
H395 H 0.7497 0.81158 0.03218 0.0
Mn396 Mn 0.83153 0.32693 0.06718 0.0
Mn397 Mn 0.80513 0.30882 0.98055 0.0
C398 C 0.78085 0.29104 0.05647 0.0
C399 C 0.86709 0.31183 0.11788 0.0
C400 C 0.79232 0.38174 0.01823 0.0
O401 O 0.87632 0.34004 0.03727 0.0
O402 O 0.85811 0.32286 0.98067 0.0
C403 C 0.84974 0.2427 0.96559 0.0
N404 N 0.81628 0.25915 0.9683 0.0
C405 C 0.78532 0.20319 0.95236 0.0
C406 C 0.81946 0.18571 0.94918 0.0
C407 C 0.8518 0.20556 0.95583 0.0
C408 C 0.78499 0.24039 0.96166 0.0
H409 H 0.87467 0.25777 0.97092 0.0
C410 C 0.88234 0.33502 0.00319 0.0
O411 O 0.85477 0.34495 0.11343 0.0
O412 O 0.85933 0.28812 0.0926 0.0
N413 N 0.75474 0.29427 0.97752 0.0
C414 C 0.72402 0.31442 0.98448 0.0
C415 C 0.68933 0.29812 0.98074 0.0
C416 C 0.68657 0.26134 0.96987 0.0
C417 C 0.71857 0.24117 0.96278 0.0
C418 C 0.75239 0.25896 0.96667 0.0
H419 H 0.72599 0.34261 -0.00685 0.0
O420 O 0.7849 0.30756 0.08772 0.0
O421 O 0.80674 0.29617 0.03256 0.0
O422 O 0.80533 0.37279 0.04938 0.0
O423 O 0.79183 0.36024 -0.00938 0.0
C424 C 0.71825 0.20389 0.95285 0.0
C425 C 0.7516 0.18493 0.94758 0.0
H426 H 0.82116 0.15697 0.94204 0.0
H427 H 0.87825 0.19221 0.95361 0.0
H428 H 0.66476 0.31382 -0.01358 0.0
H429 H 0.65977 0.24876 0.96736 0.0
H430 H 0.69251 0.18941 0.94968 0.0
H431 H 0.75099 0.15615 0.94044 0.0
H432 H 0.92702 0.18703 0.43637 0.0
H433 H 0.0409 0.19084 0.40363 0.0
H434 H 0.05972 0.19567 0.4674 0.0
H435 H 0.04447 0.19169 0.53277 0.0
H436 H 0.93059 0.18858 0.56553 0.0
H437 H 0.91149 0.19109 0.50168 0.0
C438 C 0.95593 0.18944 0.44309 0.0
C439 C 0.9824 0.18786 0.41509 0.0
C440 C 0.96676 0.19205 0.47999 0.0
C441 C 0.01976 0.19158 0.42446 0.0
C442 C 0.03068 0.19424 0.46104 0.0
C443 C 0.01546 0.19208 0.52602 0.0
C444 C -0.01085 0.1893 0.55405 0.0
C445 C 0.00449 0.19336 0.48909 0.0
C446 C 0.95162 0.1904 0.54466 0.0
C447 C 0.94056 0.19169 0.50804 0.0
H448 H 0.95626 0.77753 0.4187 0.0
H449 H 0.07295 0.77837 0.44005 0.0
H450 H 0.0612 0.77494 0.50578 0.0
H451 H 0.01806 0.77922 0.557 0.0
H452 H 0.90141 0.78196 0.53553 0.0
H453 H 0.91308 0.77605 0.46998 0.0
C454 C 0.97923 0.77635 0.43759 0.0
C455 C 0.01547 0.7787 0.42431 0.0
C456 C 0.97231 0.77539 0.47541 0.0
C457 C 0.04477 0.77698 0.4494 0.0
C458 C 0.03808 0.77511 0.48705 0.0
C459 C -0.00493 0.77798 0.53813 0.0
C460 C 0.95888 0.78156 0.55131 0.0
C461 C 0.00197 0.7755 0.50037 0.0
C462 C 0.92955 0.77967 0.52627 0.0
C463 C 0.9362 0.77635 0.48871 0.0
H464 H 0.41793 0.02022 0.19255 0.0
H465 H 0.43841 0.90403 0.1834 0.0
H466 H 0.50403 0.91454 0.19047 0.0
H467 H 0.55586 0.95698 0.19146 0.0
H468 H 0.53569 0.07339 0.19797 0.0
H469 H 0.46977 0.06228 0.20036 0.0
C470 C 0.43662 -0.00292 0.19265 0.0
C471 C 0.42314 0.96145 0.18677 0.0
C472 C 0.47451 0.00333 0.196 0.0
C473 C 0.44791 0.93184 0.18735 0.0
C474 C 0.48554 0.93779 0.19136 0.0
C475 C 0.53717 0.97998 0.19402 0.0
C476 C 0.55086 0.016 0.19388 0.0
C477 C 0.49921 0.9735 0.19449 0.0
C478 C 0.52605 0.04535 0.19758 0.0
C479 C 0.48826 0.03906 0.19883 0.0
H480 H 0.54914 0.01264 0.78171 0.0
H481 H 0.52935 0.89611 0.78636 0.0
H482 H 0.46391 0.90653 0.77743 0.0
H483 H 0.41172 0.94882 0.77622 0.0
H484 H 0.43129 0.06542 0.77406 0.0
H485 H 0.49733 0.05466 0.77346 0.0
C486 C 0.53065 -0.01057 0.78031 0.0
C487 C 0.54424 0.95369 0.78543 0.0
C488 C 0.49287 -0.00441 0.7758 0.0
C489 C 0.51976 0.92399 0.783 0.0
C490 C 0.48223 0.92989 0.77792 0.0
C491 C 0.43034 0.97193 0.77488 0.0
C492 C 0.41643 0.00788 0.77581 0.0
C493 C 0.46836 0.96562 0.77547 0.0
C494 C 0.44113 0.03742 0.77384 0.0
C495 C 0.47898 0.03132 0.77362 0.0
H496 H 0.20056 0.41786 0.01514 0.0
H497 H 0.19779 0.43733 0.89838 0.0
H498 H 0.20329 0.503 0.90893 0.0
H499 H 0.19941 0.55483 0.95119 0.0
H500 H 0.19833 0.5353 0.06797 0.0
H501 H 0.20438 0.46969 0.05735 0.0
C502 C 0.20186 0.43632 -0.0081 0.0
C503 C 0.19802 0.42264 0.95604 0.0
C504 C 0.20394 0.47414 -0.00185 0.0
C505 C 0.20013 0.44708 0.92632 0.0
C506 C 0.20319 0.4847 0.93231 0.0
C507 C 0.20121 0.53637 0.97441 0.0
C508 C 0.19767 0.55001 0.01031 0.0
C509 C 0.20362 0.49857 0.96813 0.0
C510 C 0.20041 0.52558 0.04 0.0
C511 C 0.2038 0.488 0.03397 0.0
H512 H 0.77749 0.55194 0.01898 0.0
H513 H 0.77821 0.53351 0.90201 0.0
H514 H 0.77251 0.46778 0.91201 0.0
H515 H 0.77749 0.41571 0.9537 0.0
H516 H 0.78125 0.43419 0.07061 0.0
H517 H 0.77441 0.49984 0.06075 0.0
C518 C 0.77568 0.53368 -0.0044 0.0
C519 C 0.77913 0.54758 0.95983 0.0
C520 C 0.77362 0.49588 0.00152 0.0
C521 C 0.77629 0.52349 0.92988 0.0
C522 C 0.77309 0.48588 0.93556 0.0
C523 C 0.77611 0.43395 0.97711 0.0
C524 C 0.78073 0.42011 0.01278 0.0
C525 C 0.77336 0.47173 0.97125 0.0
C526 C 0.77844 0.44417 0.04279 0.0
C527 C 0.77458 0.48174 0.0372 0.0
H528 H 0.1226 0.07411 0.7167 0.0
H529 H 0.17673 0.11691 0.6209 0.0
H530 H 0.23629 0.09668 0.64517 0.0
H531 H 0.27341 0.07463 0.69812 0.0
H532 H 0.2176 0.03626 0.79482 0.0
H533 H 0.1584 0.04607 0.76557 0.0
C534 C 0.14737 0.0785 0.70081 0.0
C535 C 0.1454 0.09747 0.66738 0.0
C536 C 0.18129 0.06747 0.71521 0.0
C537 C 0.17759 0.10247 0.64681 0.0
C538 C 0.21165 0.09111 0.66081 0.0
C539 C 0.24819 0.06758 0.71221 0.0
C540 C 0.24982 0.05362 0.74811 0.0
C541 C 0.21395 0.07474 0.69561 0.0
C542 C 0.21707 0.04555 0.76664 0.0
C543 C 0.18316 0.05172 0.75013 0.0
H544 H 0.68683 0.89874 0.70715 0.0
H545 H 0.74339 0.93065 0.80584 0.0
H546 H 0.8024 0.92257 0.7757 0.0
H547 H 0.83768 0.89655 0.72515 0.0
H548 H 0.78213 0.86014 0.62731 0.0
H549 H 0.72318 0.87984 0.65292 0.0
C550 C 0.71216 0.90495 0.7215 0.0
C551 C 0.71081 0.91639 0.75826 0.0
C552 C 0.74619 0.89857 0.70439 0.0
C553 C 0.7437 0.92337 0.77707 0.0
C554 C 0.77751 0.91808 0.76004 0.0
C555 C 0.81275 0.89347 0.70914 0.0
C556 C 0.81415 0.87632 0.67469 0.0
C557 C 0.77906 0.90427 0.72425 0.0
C558 C 0.78173 0.87304 0.65403 0.0
C559 C 0.748 0.88416 0.66874 0.0
H560 H 0.28499 0.89712 0.26347 0.0
H561 H 0.22441 0.93398 0.16889 0.0
H562 H 0.16666 0.92382 0.20074 0.0
H563 H 0.13351 0.89573 0.25142 0.0
H564 H 0.19278 0.85495 0.3453 0.0
H565 H 0.25077 0.87554 0.3182 0.0
C566 C 0.25906 0.90377 0.25041 0.0
C567 C 0.25887 0.91727 0.21434 0.0
C568 C 0.22575 0.89651 0.26853 0.0
C569 C 0.22524 0.92493 0.19714 0.0
C570 C 0.19217 0.91859 0.21515 0.0
C571 C 0.15906 0.89186 0.26625 0.0
C572 C 0.159 0.87331 0.29997 0.0
C573 C 0.19211 0.90316 0.25028 0.0
C574 C 0.19219 0.86901 0.31917 0.0
C575 C 0.22535 0.88058 0.30358 0.0
H576 H 0.69767 0.07397 0.27411 0.0
H577 H 0.74997 0.04134 0.17341 0.0
H578 H 0.81016 0.04876 0.20126 0.0
H579 H 0.84774 0.07384 0.25045 0.0
H580 H 0.79687 0.11173 0.35013 0.0
H581 H 0.73656 0.09295 0.32684 0.0
C582 C 0.72234 0.06749 0.25881 0.0
C583 C 0.71938 0.05576 0.22218 0.0
C584 C 0.75715 0.0736 0.2746 0.0
C585 C 0.75146 0.04863 0.20213 0.0
C586 C 0.78596 0.05357 0.21786 0.0
C587 C 0.82355 0.07747 0.26739 0.0
C588 C 0.82668 0.09467 0.30171 0.0
C589 C 0.78911 0.06733 0.25355 0.0
C590 C 0.79516 0.0987 0.32352 0.0
C591 C 0.76065 0.08815 0.31011 0.0
H592 H 0.7168 0.13542 0.07675 0.0
H593 H 0.62884 0.19706 0.12625 0.0
H594 H 0.65574 0.2542 0.10333 0.0
H595 H 0.71001 0.2865 0.07831 0.0
H596 H 0.80028 0.22326 0.03559 0.0
H597 H 0.76646 0.16682 0.0457 0.0
C598 C 0.70319 0.16133 0.08207 0.0
C599 C 0.67148 0.16232 0.10381 0.0
C600 C 0.71928 0.19374 0.06981 0.0
C601 C 0.65356 0.19583 0.10983 0.0
C602 C 0.66904 0.22842 0.09691 0.0
C603 C 0.72158 0.26031 0.07032 0.0
C604 C 0.75693 0.25889 0.05508 0.0
C605 C 0.70273 0.22776 0.07822 0.0
C606 C 0.77241 0.22499 0.04577 0.0
C607 C 0.75336 0.19268 0.05217 0.0
H608 H 0.26931 0.69127 0.07062 0.0
H609 H 0.17059 0.74715 0.03701 0.0
H610 H 0.20075 0.80614 0.04402 0.0
H611 H 0.25152 0.84171 0.06861 0.0
H612 H 0.34949 0.78719 0.10663 0.0
H613 H 0.32378 0.72791 0.08852 0.0
C614 C 0.25493 0.71646 0.06405 0.0
C615 C 0.21822 0.71505 0.0524 0.0
C616 C 0.27215 0.75047 0.06941 0.0
C617 C 0.1993 0.74766 0.04477 0.0
C618 C 0.21637 0.7814 0.04922 0.0
C619 C 0.26753 0.81692 0.07236 0.0
C620 C 0.30198 0.81864 0.08951 0.0
C621 C 0.25229 0.78313 0.06274 0.0
C622 C 0.32274 0.78645 0.09366 0.0
C623 C 0.30795 0.75256 0.08355 0.0
H624 H 0.70661 0.68308 0.8969 0.0
H625 H 0.79962 0.74454 0.9361 0.0
H626 H 0.76595 0.80156 0.92846 0.0
H627 H 0.71466 0.8341 0.90125 0.0
H628 H 0.62336 0.77437 0.85564 0.0
H629 H 0.65128 0.71649 0.87546 0.0
C630 C 0.71889 0.70901 0.9046 0.0
C631 C 0.75494 0.70977 0.91819 0.0
C632 C 0.69991 0.74192 0.89835 0.0
C633 C 0.7713 0.74334 0.92711 0.0
C634 C 0.75227 0.77597 0.9222 0.0
C635 C 0.70057 0.80844 0.89611 0.0
C636 C 0.66751 0.80826 0.87637 0.0
C637 C 0.7172 0.7756 0.90653 0.0
C638 C 0.64908 0.77502 0.87055 0.0
C639 C 0.66513 0.74199 0.88168 0.0
H640 H 0.24778 0.1297 0.89379 0.0
H641 H 0.34565 0.18255 0.85379 0.0
H642 H 0.3219 0.24208 0.87371 0.0
H643 H 0.2689 0.27968 0.89386 0.0
H644 H 0.17019 0.22563 0.92974 0.0
H645 H 0.19876 0.16606 0.92082 0.0
C646 C 0.2642 0.15417 0.88998 0.0
C647 C 0.29801 0.15195 0.87176 0.0
C648 C 0.2501 0.18814 0.90076 0.0
C649 C 0.31934 0.18369 0.86755 0.0
C650 C 0.30569 0.21773 0.87873 0.0
C651 C 0.25422 0.25475 0.90054 0.0
C652 C 0.21796 0.25684 0.91331 0.0
C653 C 0.27046 0.22043 0.89406 0.0
C654 C 0.19862 0.22457 0.9211 0.0
C655 C 0.21475 0.19051 0.91554 0.0
H656 H 0.0776 0.69945 0.2816 0.0
H657 H 0.04235 0.79753 0.22606 0.0
H658 H 0.04964 0.76776 0.16693 0.0
H659 H 0.07483 0.71765 0.13103 0.0
H660 H 0.115 0.62051 0.18503 0.0
H661 H 0.09662 0.64562 0.24455 0.0
C662 C 0.07071 0.71376 0.25646 0.0
C663 C 0.0584 0.75017 0.25807 0.0
C664 C 0.07639 0.69681 0.22229 0.0
C665 C 0.05048 0.76901 0.22547 0.0
C666 C 0.05514 0.75217 0.19162 0.0
C667 C 0.07902 0.70166 0.15575 0.0
C668 C 0.09681 0.66762 0.15378 0.0
C669 C 0.06927 0.71659 0.1897 0.0
C670 C 0.10153 0.64695 0.18592 0.0
C671 C 0.09125 0.66139 0.21996 0.0
H672 H 0.06478 0.27099 0.69 0.0
H673 H 0.03529 0.17293 0.74864 0.0
H674 H 0.04673 0.20315 0.80682 0.0
H675 H 0.07338 0.2538 0.84047 0.0
H676 H 0.10895 0.35074 0.78326 0.0
H677 H 0.08654 0.32509 0.72527 0.0
C678 C 0.06009 0.25678 0.71567 0.0
C679 C 0.04794 0.22029 0.71523 0.0
C680 C 0.06834 0.27395 0.74922 0.0
C681 C 0.04304 0.20154 0.74842 0.0
C682 C 0.05011 0.21863 0.78171 0.0
C683 C 0.07577 0.26962 0.81541 0.0
C684 C 0.09331 0.30378 0.81598 0.0
C685 C 0.06386 0.25435 0.78235 0.0
C686 C 0.09569 0.32421 0.78344 0.0
C687 C 0.0831 0.30946 0.75027 0.0
H688 H 0.90185 0.71712 0.8426 0.0
H689 H 0.86298 0.62072 0.78652 0.0
H690 H 0.88058 0.6475 0.7275 0.0
H691 H 0.89817 0.7026 0.69168 0.0
H692 H 0.93183 0.79989 0.74942 0.0
H693 H 0.92571 0.7685 0.80783 0.0
C694 C 0.89781 0.70165 0.81752 0.0
C695 C 0.88058 0.66736 0.81876 0.0
C696 C 0.90698 0.71757 0.78391 0.0
C697 C 0.87605 0.64734 0.78618 0.0
C698 C 0.88585 0.66275 0.75243 0.0
C699 C 0.90494 0.7164 0.71712 0.0
C700 C 0.91646 0.75306 0.71637 0.0
C701 C 0.89996 0.69848 0.75089 0.0
C702 C 0.92426 0.77122 0.74936 0.0
C703 C 0.92031 0.75345 0.78279 0.0
H704 H 0.91103 0.26644 0.27809 0.0
H705 H 0.93917 0.16751 0.22013 0.0
H706 H 0.92962 0.19798 0.16168 0.0
H707 H 0.9049 0.24937 0.12751 0.0
H708 H 0.87115 0.34745 0.18404 0.0
H709 H 0.89174 0.3212 0.24242 0.0
C710 C 0.91582 0.25206 0.25253 0.0
C711 C 0.92692 0.21524 0.25322 0.0
C712 C 0.90882 0.26947 0.21883 0.0
C713 C 0.93206 0.19631 0.22015 0.0
C714 C 0.92613 0.21357 0.18672 0.0
C715 C 0.90256 0.26529 0.15251 0.0
C716 C 0.88598 0.29997 0.15164 0.0
C717 C 0.9134 0.2497 0.18579 0.0
C718 C 0.88366 0.32053 0.18411 0.0
C719 C 0.89519 0.30543 0.2175 0.0
H720 H 0.03794 0.03395 0.63484 0.0
H721 H 0.92483 0.06846 0.64386 0.0
H722 H 0.9048 0.0048 0.64063 0.0
H723 H 0.91955 0.93946 0.63882 0.0
H724 H 0.0328 0.90478 0.63319 0.0
H725 H 0.05259 0.96861 0.63123 0.0
C726 C 0.00886 0.02764 0.63567 0.0
C727 C 0.98293 0.05596 0.6396 0.0
C728 C -0.00244 -0.00902 0.63452 0.0
C729 C 0.94539 0.04719 0.64102 0.0
C730 C 0.9339 0.0108 0.63914 0.0
C731 C 0.94855 0.9458 0.63665 0.0
C732 C 0.97465 0.91738 0.6361 0.0
C733 C 0.95977 0.98249 0.63639 0.0
C734 C 0.01214 0.92614 0.63376 0.0
C735 C 0.02349 0.96262 0.63266 0.0
H736 H 0.93484 0.02968 0.33792 0.0
H737 H 0.04792 0.06433 0.33033 0.0
H738 H 0.06823 0.00084 0.33518 0.0
H739 H 0.05381 0.93551 0.33739 0.0
H740 H 0.94066 0.90058 0.34155 0.0
H741 H 0.9205 0.96436 0.34256 0.0
C742 C 0.96397 0.02344 0.33777 0.0
C743 C -0.0102 0.05175 0.33367 0.0
C744 C 0.97545 -0.01315 0.33982 0.0
C745 C 0.02742 0.04307 0.33323 0.0
C746 C 0.03908 0.00678 0.33603 0.0
C747 C 0.02474 0.94178 0.33907 0.0
C748 C -0.00122 0.9133 0.33937 0.0
C749 C 0.01331 0.97843 0.33875 0.0
C750 C 0.96121 0.92198 0.34113 0.0
C751 C 0.94966 0.95844 0.34168 0.0
H752 H 0.62947 0.01786 0.92236 0.0
H753 H 0.6264 0.90128 0.94181 0.0
H754 H 0.62687 0.9117 0.00769 0.0
H755 H 0.63172 0.95372 0.06013 0.0
H756 H 0.63287 0.07032 0.04072 0.0
H757 H 0.62942 0.05997 0.97488 0.0
C758 C 0.62856 -0.00525 0.941 0.0
C759 C 0.62806 0.95889 0.92697 0.0
C760 C 0.62867 0.00086 0.97905 0.0
C761 C 0.62664 0.92926 0.95166 0.0
C762 C 0.6271 0.93513 -0.01054 0.0
C763 C 0.63096 0.97685 0.04151 0.0
C764 C 0.63273 0.01268 0.05546 0.0
C765 C 0.62868 0.97079 0.0035 0.0
C766 C 0.6314 0.04238 0.03087 0.0
C767 C 0.62957 0.03654 -0.0069 0.0
H768 H 0.33699 0.92547 0.02656 0.0
H769 H 0.33791 0.03802 0.06283 0.0
H770 H 0.33884 0.05875 -0.0008 0.0
H771 H 0.3356 0.04503 0.93347 0.0
H772 H 0.33137 0.93249 0.89739 0.0
H773 H 0.3357 0.91173 0.96084 0.0
C774 C 0.33791 0.95456 0.02064 0.0
C775 C 0.33743 0.98013 0.04954 0.0
C776 C 0.33761 0.96632 0.984 0.0
C777 C 0.33817 0.01771 0.04119 0.0
C778 C 0.33867 0.0296 0.00479 0.0
C779 C 0.33607 0.01593 0.93938 0.0
C780 C 0.33315 -0.00962 0.91059 0.0
C781 C 0.33783 0.00416 0.97599 0.0
C782 C 0.33343 0.95279 0.91894 0.0
C783 C 0.33592 0.94087 0.95524 0.0
H784 H 0.94187 0.62467 0.92626 0.0
H785 H 0.90489 0.6283 0.03864 0.0
H786 H 0.9684 0.62544 0.05991 0.0
H787 H 0.03429 0.62697 0.04653 0.0
H788 H 0.07108 0.62684 0.93404 0.0
H789 H 0.00761 0.62298 0.91295 0.0
C790 C 0.94758 0.6243 0.95544 0.0
C791 C 0.91858 0.62682 0.98079 0.0
C792 C 0.98414 0.62351 0.96748 0.0
C793 C 0.92664 0.62658 0.01849 0.0
C794 C 0.96296 0.62497 0.0307 0.0
C795 C 0.02852 0.62553 0.0174 0.0
C796 C 0.05745 0.62731 -0.00808 0.0
C797 C -0.00807 0.62418 0.00542 0.0
C798 C 0.04936 0.62573 0.95426 0.0
C799 C 0.01306 0.62355 0.94216 0.0
H800 H 0.03491 0.34297 0.92259 0.0
H801 H 0.07324 0.34547 0.03463 0.0
H802 H 0.00994 0.34795 0.0564 0.0
H803 H 0.94413 0.34454 0.04384 0.0
H804 H 0.9057 0.33843 0.93194 0.0
H805 H 0.96884 0.34249 0.90993 0.0
C806 C 0.02949 0.34465 0.95177 0.0
C807 C 0.05881 0.34398 0.97695 0.0
C808 C -0.00695 0.34515 0.96413 0.0
C809 C 0.0512 0.34578 0.01466 0.0
C810 C 0.01502 0.34716 0.02714 0.0
C811 C 0.94941 0.34458 0.01459 0.0
C812 C 0.92013 0.34107 -0.0104 0.0
C813 C 0.98576 0.34611 0.00214 0.0
C814 C 0.92767 0.34093 0.95181 0.0
C815 C 0.96378 0.34323 0.93919 0.0
loop_
_geom_bond_atom_site_label_1
_geom_bond_atom_site_label_2
_geom_bond_distance
_geom_bond_site_symmetry_2
_ccdc_geom_bond_type
Mn0 O5 2.095 . S
Mn0 O15 2.162 . S
Mn0 O16 2.297 . S
Mn0 O24 2.385 . S
Mn0 O25 2.209 . S
Mn0 O26 2.094 . S
Mn1 O6 2.121 . S
Mn1 N8 2.257 1_455 S
Mn1 N17 2.282 1_455 S
Mn1 O25 2.215 . S
Mn1 O27 2.117 . S
C2 O24 1.234 . S
C2 O25 1.283 . S
C3 O15 1.281 . S
C3 O16 1.236 . S
C4 O26 1.240 . S
C4 O27 1.264 . S
O5 Mn0 2.095 . S
O5 C14 1.250 . S
O6 Mn1 2.121 . S
O6 C14 1.258 . S
C7 N8 1.326 . S
C7 C11 1.460 . S
C7 H13 0.929 . S
N8 Mn1 2.257 1_655 S
N8 C7 1.326 . S
N8 C12 1.362 . S
C9 C10 1.258 . S
C9 C12 1.431 . S
C9 C29 1.449 . S
C10 C9 1.258 . S
C10 C11 1.477 . S
C10 H30 0.931 . S
C11 C7 1.460 . S
C11 C10 1.477 . S
C11 H31 0.930 . S
C12 N8 1.362 . S
C12 C9 1.431 . S
C12 C22 1.476 . S
H13 C7 0.929 . S
C14 O5 1.250 . S
C14 O6 1.258 . S
O15 Mn0 2.162 . S
O15 C3 1.281 . S
O16 Mn0 2.297 . S
O16 C3 1.236 . S
N17 Mn1 2.282 1_655 S
N17 C18 1.328 1_655 S
N17 C22 1.318 . S
C18 N17 1.328 1_455 S
C18 C19 1.457 1_455 S
C18 H23 0.929 . S
C19 C18 1.457 1_655 S
C19 C20 1.291 . S
C19 H32 0.931 1_655 S
C20 C19 1.291 . S
C20 C21 1.373 . S
C20 H33 0.929 . S
C21 C20 1.373 . S
C21 C22 1.396 . S
C21 C28 1.403 . S
C22 C12 1.476 . S
C22 N17 1.318 . S
C22 C21 1.396 . S
H23 C18 0.929 . S
O24 Mn0 2.385 . S
O24 C2 1.234 . S
O25 Mn0 2.209 . S
O25 Mn1 2.215 . S
O25 C2 1.283 . S
O26 Mn0 2.094 . S
O26 C4 1.240 . S
O27 Mn1 2.117 . S
O27 C4 1.264 . S
C28 C21 1.403 . S
C28 C29 1.399 . S
C28 H34 0.929 . S
C29 C9 1.449 . S
C29 C28 1.399 . S
C29 H35 0.930 . S
H30 C10 0.931 . S
H31 C11 0.930 . S
H32 C19 0.931 1_455 S
H33 C20 0.929 . S
H34 C28 0.929 . S
H35 C29 0.930 . S
Mn36 O41 2.095 . S
Mn36 O51 2.162 . S
Mn36 O52 2.297 . S
Mn36 O60 2.385 . S
Mn36 O61 2.209 . S
Mn36 O62 2.094 . S
Mn37 O42 2.121 . S
Mn37 N44 2.257 1_655 S
Mn37 N53 2.282 1_655 S
Mn37 O61 2.215 . S
Mn37 O63 2.117 . S
C38 O60 1.234 . S
C38 O61 1.283 . S
C39 O51 1.281 . S
C39 O52 1.236 . S
C40 O62 1.240 . S
C40 O63 1.264 . S
O41 Mn36 2.095 . S
O41 C50 1.250 . S
O42 Mn37 2.121 . S
O42 C50 1.258 . S
C43 N44 1.326 . S
C43 C47 1.460 . S
C43 H49 0.929 . S
N44 Mn37 2.257 1_455 S
N44 C43 1.326 . S
N44 C48 1.362 . S
C45 C46 1.258 . S
C45 C48 1.431 . S
C45 C65 1.449 . S
C46 C45 1.258 . S
C46 C47 1.477 . S
C46 H66 0.931 . S
C47 C43 1.460 . S
C47 C46 1.477 . S
C47 H67 0.930 . S
C48 N44 1.362 . S
C48 C45 1.431 . S
C48 C58 1.476 . S
H49 C43 0.929 . S
C50 O41 1.250 . S
C50 O42 1.258 . S
O51 Mn36 2.162 . S
O51 C39 1.281 . S
O52 Mn36 2.297 . S
O52 C39 1.236 . S
N53 Mn37 2.282 1_455 S
N53 C54 1.328 1_455 S
N53 C58 1.318 . S
C54 N53 1.328 1_655 S
C54 C55 1.457 1_655 S
C54 H59 0.929 . S
C55 C54 1.457 1_455 S
C55 C56 1.291 . S
C55 H68 0.931 1_455 S
C56 C55 1.291 . S
C56 C57 1.373 . S
C56 H69 0.929 . S
C57 C56 1.373 . S
C57 C58 1.396 . S
C57 C64 1.403 . S
C58 C48 1.476 . S
C58 N53 1.318 . S
C58 C57 1.396 . S
H59 C54 0.929 . S
O60 Mn36 2.385 . S
O60 C38 1.234 . S
O61 Mn36 2.209 . S
O61 Mn37 2.215 . S
O61 C38 1.283 . S
O62 Mn36 2.094 . S
O62 C40 1.240 . S
O63 Mn37 2.117 . S
O63 C40 1.264 . S
C64 C57 1.403 . S
C64 C65 1.399 . S
C64 H70 0.929 . S
C65 C45 1.449 . S
C65 C64 1.399 . S
C65 H71 0.930 . S
H66 C46 0.931 . S
H67 C47 0.930 . S
H68 C55 0.931 1_655 S
H69 C56 0.929 . S
H70 C64 0.929 . S
H71 C65 0.930 . S
Mn72 O77 2.095 . S
Mn72 O87 2.162 . S
Mn72 O88 2.297 . S
Mn72 O96 2.385 . S
Mn72 O97 2.209 . S
Mn72 O98 2.094 . S
Mn73 O78 2.121 . S
Mn73 N80 2.257 1_455 S
Mn73 N89 2.282 1_455 S
Mn73 O97 2.215 . S
Mn73 O99 2.117 . S
C74 O96 1.234 . S
C74 O97 1.283 . S
C75 O87 1.281 . S
C75 O88 1.236 . S
C76 O98 1.240 . S
C76 O99 1.264 . S
O77 Mn72 2.095 . S
O77 C86 1.250 . S
O78 Mn73 2.121 . S
O78 C86 1.258 . S
C79 N80 1.326 . S
C79 C83 1.460 . S
C79 H85 0.929 . S
N80 Mn73 2.257 1_655 S
N80 C79 1.326 . S
N80 C84 1.362 . S
C81 C82 1.258 . S
C81 C84 1.431 . S
C81 C101 1.449 . S
C82 C81 1.258 . S
C82 C83 1.477 . S
C82 H102 0.931 . S
C83 C79 1.460 . S
C83 C82 1.477 . S
C83 H103 0.930 . S
C84 N80 1.362 . S
C84 C81 1.431 . S
C84 C94 1.476 . S
H85 C79 0.929 . S
C86 O77 1.250 . S
C86 O78 1.258 . S
O87 Mn72 2.162 . S
O87 C75 1.281 . S
O88 Mn72 2.297 . S
O88 C75 1.236 . S
N89 Mn73 2.282 1_655 S
N89 C90 1.328 1_655 S
N89 C94 1.318 . S
C90 N89 1.328 1_455 S
C90 C91 1.457 1_455 S
C90 H95 0.929 . S
C91 C90 1.457 1_655 S
C91 C92 1.291 . S
C91 H104 0.931 1_655 S
C92 C91 1.291 . S
C92 C93 1.373 . S
C92 H105 0.929 . S
C93 C92 1.373 . S
C93 C94 1.396 . S
C93 C100 1.403 . S
C94 C84 1.476 . S
C94 N89 1.318 . S
C94 C93 1.396 . S
H95 C90 0.929 . S
O96 Mn72 2.385 . S
O96 C74 1.234 . S
O97 Mn72 2.209 . S
O97 Mn73 2.215 . S
O97 C74 1.283 . S
O98 Mn72 2.094 . S
O98 C76 1.240 . S
O99 Mn73 2.117 . S
O99 C76 1.264 . S
C100 C93 1.403 . S
C100 C101 1.399 . S
C100 H106 0.929 . S
C101 C81 1.449 . S
C101 C100 1.399 . S
C101 H107 0.930 . S
H102 C82 0.931 . S
H103 C83 0.930 . S
H104 C91 0.931 1_455 S
H105 C92 0.929 . S
H106 C100 0.929 . S
H107 C101 0.930 . S
Mn108 O113 2.095 . S
Mn108 O123 2.162 . S
Mn108 O124 2.297 . S
Mn108 O132 2.385 . S
Mn108 O133 2.209 . S
Mn108 O134 2.094 . S
Mn109 O114 2.121 . S
Mn109 N116 2.257 1_655 S
Mn109 N125 2.282 1_655 S
Mn109 O133 2.215 . S
Mn109 O135 2.117 . S
C110 O132 1.234 . S
C110 O133 1.283 . S
C111 O123 1.281 . S
C111 O124 1.236 . S
C112 O134 1.240 . S
C112 O135 1.264 . S
O113 Mn108 2.095 . S
O113 C122 1.250 . S
O114 Mn109 2.121 . S
O114 C122 1.258 . S
C115 N116 1.326 . S
C115 C119 1.460 . S
C115 H121 0.929 . S
N116 Mn109 2.257 1_455 S
N116 C115 1.326 . S
N116 C120 1.362 . S
C117 C118 1.258 . S
C117 C120 1.431 . S
C117 C137 1.449 . S
C118 C117 1.258 . S
C118 C119 1.477 . S
C118 H138 0.931 . S
C119 C115 1.460 . S
C119 C118 1.477 . S
C119 H139 0.930 . S
C120 N116 1.362 . S
C120 C117 1.431 . S
C120 C130 1.476 . S
H121 C115 0.929 . S
C122 O113 1.250 . S
C122 O114 1.258 . S
O123 Mn108 2.162 . S
O123 C111 1.281 . S
O124 Mn108 2.297 . S
O124 C111 1.236 . S
N125 Mn109 2.282 1_455 S
N125 C126 1.328 1_455 S
N125 C130 1.318 . S
C126 N125 1.328 1_655 S
C126 C127 1.457 1_655 S
C126 H131 0.929 . S
C127 C126 1.457 1_455 S
C127 C128 1.291 . S
C127 H140 0.931 1_455 S
C128 C127 1.291 . S
C128 C129 1.373 . S
C128 H141 0.929 . S
C129 C128 1.373 . S
C129 C130 1.396 . S
C129 C136 1.403 . S
C130 C120 1.476 . S
C130 N125 1.318 . S
C130 C129 1.396 . S
H131 C126 0.929 . S
O132 Mn108 2.385 . S
O132 C110 1.234 . S
O133 Mn108 2.209 . S
O133 Mn109 2.215 . S
O133 C110 1.283 . S
O134 Mn108 2.094 . S
O134 C112 1.240 . S
O135 Mn109 2.117 . S
O135 C112 1.264 . S
C136 C129 1.403 . S
C136 C137 1.399 . S
C136 H142 0.929 . S
C137 C117 1.449 . S
C137 C136 1.399 . S
C137 H143 0.930 . S
H138 C118 0.931 . S
H139 C119 0.930 . S
H140 C127 0.931 1_655 S
H141 C128 0.929 . S
H142 C136 0.929 . S
H143 C137 0.930 . S
Mn144 O149 2.095 . S
Mn144 O159 2.162 . S
Mn144 O160 2.297 . S
Mn144 O168 2.385 . S
Mn144 O169 2.209 . S
Mn144 O170 2.094 . S
Mn145 O150 2.121 . S
Mn145 N152 2.257 1_545 S
Mn145 N161 2.282 1_545 S
Mn145 O169 2.215 . S
Mn145 O171 2.117 . S
C146 O168 1.234 . S
C146 O169 1.283 . S
C147 O159 1.281 . S
C147 O160 1.236 . S
C148 O170 1.240 . S
C148 O171 1.264 . S
O149 Mn144 2.095 . S
O149 C158 1.250 . S
O150 Mn145 2.121 . S
O150 C158 1.258 . S
C151 N152 1.326 . S
C151 C155 1.460 . S
C151 H157 0.929 . S
N152 Mn145 2.257 1_565 S
N152 C151 1.326 . S
N152 C156 1.362 . S
C153 C154 1.258 . S
C153 C156 1.431 . S
C153 C173 1.449 . S
C154 C153 1.258 . S
C154 C155 1.477 . S
C154 H174 0.931 . S
C155 C151 1.460 . S
C155 C154 1.477 . S
C155 H175 0.930 . S
C156 N152 1.362 . S
C156 C153 1.431 . S
C156 C166 1.476 . S
H157 C151 0.929 . S
C158 O149 1.250 . S
C158 O150 1.258 . S
O159 Mn144 2.162 . S
O159 C147 1.281 . S
O160 Mn144 2.297 . S
O160 C147 1.236 . S
N161 Mn145 2.282 1_565 S
N161 C162 1.328 1_565 S
N161 C166 1.318 . S
C162 N161 1.328 1_545 S
C162 C163 1.457 1_545 S
C162 H167 0.929 . S
C163 C162 1.457 1_565 S
C163 C164 1.291 . S
C163 H176 0.931 1_565 S
C164 C163 1.291 . S
C164 C165 1.373 . S
C164 H177 0.929 . S
C165 C164 1.373 . S
C165 C166 1.396 . S
C165 C172 1.403 . S
C166 C156 1.476 . S
C166 N161 1.318 . S
C166 C165 1.396 . S
H167 C162 0.929 . S
O168 Mn144 2.385 . S
O168 C146 1.234 . S
O169 Mn144 2.209 . S
O169 Mn145 2.215 . S
O169 C146 1.283 . S
O170 Mn144 2.094 . S
O170 C148 1.240 . S
O171 Mn145 2.117 . S
O171 C148 1.264 . S
C172 C165 1.403 . S
C172 C173 1.399 . S
C172 H178 0.929 . S
C173 C153 1.449 . S
C173 C172 1.399 . S
C173 H179 0.930 . S
H174 C154 0.931 . S
H175 C155 0.930 . S
H176 C163 0.931 1_545 S
H177 C164 0.929 . S
H178 C172 0.929 . S
H179 C173 0.930 . S
Mn180 O185 2.095 . S
Mn180 O195 2.162 . S
Mn180 O196 2.297 . S
Mn180 O204 2.385 . S
Mn180 O205 2.209 . S
Mn180 O206 2.094 . S
Mn181 O186 2.121 . S
Mn181 N188 2.257 1_565 S
Mn181 N197 2.282 1_565 S
Mn181 O205 2.215 . S
Mn181 O207 2.117 . S
C182 O204 1.234 . S
C182 O205 1.283 . S
C183 O195 1.281 . S
C183 O196 1.236 . S
C184 O206 1.240 . S
C184 O207 1.264 . S
O185 Mn180 2.095 . S
O185 C194 1.250 . S
O186 Mn181 2.121 . S
O186 C194 1.258 . S
C187 N188 1.326 . S
C187 C191 1.460 . S
C187 H193 0.929 . S
N188 Mn181 2.257 1_545 S
N188 C187 1.326 . S
N188 C192 1.362 . S
C189 C190 1.258 . S
C189 C192 1.431 . S
C189 C209 1.449 . S
C190 C189 1.258 . S
C190 C191 1.477 . S
C190 H210 0.931 . S
C191 C187 1.460 . S
C191 C190 1.477 . S
C191 H211 0.930 . S
C192 N188 1.362 . S
C192 C189 1.431 . S
C192 C202 1.476 . S
H193 C187 0.929 . S
C194 O185 1.250 . S
C194 O186 1.258 . S
O195 Mn180 2.162 . S
O195 C183 1.281 . S
O196 Mn180 2.297 . S
O196 C183 1.236 . S
N197 Mn181 2.282 1_545 S
N197 C198 1.328 1_545 S
N197 C202 1.318 . S
C198 N197 1.328 1_565 S
C198 C199 1.457 1_565 S
C198 H203 0.929 . S
C199 C198 1.457 1_545 S
C199 C200 1.291 . S
C199 H212 0.931 1_545 S
C200 C199 1.291 . S
C200 C201 1.373 . S
C200 H213 0.929 . S
C201 C200 1.373 . S
C201 C202 1.396 . S
C201 C208 1.403 . S
C202 C192 1.476 . S
C202 N197 1.318 . S
C202 C201 1.396 . S
H203 C198 0.929 . S
O204 Mn180 2.385 . S
O204 C182 1.234 . S
O205 Mn180 2.209 . S
O205 Mn181 2.215 . S
O205 C182 1.283 . S
O206 Mn180 2.094 . S
O206 C184 1.240 . S
O207 Mn181 2.117 . S
O207 C184 1.264 . S
C208 C201 1.403 . S
C208 C209 1.399 . S
C208 H214 0.929 . S
C209 C189 1.449 . S
C209 C208 1.399 . S
C209 H215 0.930 . S
H210 C190 0.931 . S
H211 C191 0.930 . S
H212 C199 0.931 1_565 S
H213 C200 0.929 . S
H214 C208 0.929 . S
H215 C209 0.930 . S
Mn216 O221 2.095 . S
Mn216 O231 2.162 . S
Mn216 O232 2.297 . S
Mn216 O240 2.385 . S
Mn216 O241 2.209 . S
Mn216 O242 2.094 . S
Mn217 O222 2.121 . S
Mn217 N224 2.257 1_565 S
Mn217 N233 2.282 1_565 S
Mn217 O241 2.215 . S
Mn217 O243 2.117 . S
C218 O240 1.234 . S
C218 O241 1.283 . S
C219 O231 1.281 . S
C219 O232 1.236 . S
C220 O242 1.240 . S
C220 O243 1.264 . S
O221 Mn216 2.095 . S
O221 C230 1.250 . S
O222 Mn217 2.121 . S
O222 C230 1.258 . S
C223 N224 1.326 . S
C223 C227 1.460 . S
C223 H229 0.929 . S
N224 Mn217 2.257 1_545 S
N224 C223 1.326 . S
N224 C228 1.362 . S
C225 C226 1.258 . S
C225 C228 1.431 . S
C225 C245 1.449 . S
C226 C225 1.258 . S
C226 C227 1.477 . S
C226 H246 0.931 . S
C227 C223 1.460 . S
C227 C226 1.477 . S
C227 H247 0.930 . S
C228 N224 1.362 . S
C228 C225 1.431 . S
C228 C238 1.476 . S
H229 C223 0.929 . S
C230 O221 1.250 . S
C230 O222 1.258 . S
O231 Mn216 2.162 . S
O231 C219 1.281 . S
O232 Mn216 2.297 . S
O232 C219 1.236 . S
N233 Mn217 2.282 1_545 S
N233 C234 1.328 1_545 S
N233 C238 1.318 . S
C234 N233 1.328 1_565 S
C234 C235 1.457 1_565 S
C234 H239 0.929 . S
C235 C234 1.457 1_545 S
C235 C236 1.291 . S
C235 H248 0.931 1_545 S
C236 C235 1.291 . S
C236 C237 1.373 . S
C236 H249 0.929 . S
C237 C236 1.373 . S
C237 C238 1.396 . S
C237 C244 1.403 . S
C238 C228 1.476 . S
C238 N233 1.318 . S
C238 C237 1.396 . S
H239 C234 0.929 . S
O240 Mn216 2.385 . S
O240 C218 1.234 . S
O241 Mn216 2.209 . S
O241 Mn217 2.215 . S
O241 C218 1.283 . S
O242 Mn216 2.094 . S
O242 C220 1.240 . S
O243 Mn217 2.117 . S
O243 C220 1.264 . S
C244 C237 1.403 . S
C244 C245 1.399 . S
C244 H250 0.929 . S
C245 C225 1.449 . S
C245 C244 1.399 . S
C245 H251 0.930 . S
H246 C226 0.931 . S
H247 C227 0.930 . S
H248 C235 0.931 1_565 S
H249 C236 0.929 . S
H250 C244 0.929 . S
H251 C245 0.930 . S
Mn252 O257 2.095 . S
Mn252 O267 2.162 . S
Mn252 O268 2.297 . S
Mn252 O276 2.385 . S
Mn252 O277 2.209 . S
Mn252 O278 2.094 . S
Mn253 O258 2.121 . S
Mn253 N260 2.257 1_545 S
Mn253 N269 2.282 1_545 S
Mn253 O277 2.215 . S
Mn253 O279 2.117 . S
C254 O276 1.234 . S
C254 O277 1.283 . S
C255 O267 1.281 . S
C255 O268 1.236 . S
C256 O278 1.240 . S
C256 O279 1.264 . S
O257 Mn252 2.095 . S
O257 C266 1.250 . S
O258 Mn253 2.121 . S
O258 C266 1.258 . S
C259 N260 1.326 . S
C259 C263 1.460 . S
C259 H265 0.929 . S
N260 Mn253 2.257 1_565 S
N260 C259 1.326 . S
N260 C264 1.362 . S
C261 C262 1.258 . S
C261 C264 1.431 . S
C261 C281 1.449 . S
C262 C261 1.258 . S
C262 C263 1.477 . S
C262 H282 0.931 . S
C263 C259 1.460 . S
C263 C262 1.477 . S
C263 H283 0.930 . S
C264 N260 1.362 . S
C264 C261 1.431 . S
C264 C274 1.476 . S
H265 C259 0.929 . S
C266 O257 1.250 . S
C266 O258 1.258 . S
O267 Mn252 2.162 . S
O267 C255 1.281 . S
O268 Mn252 2.297 . S
O268 C255 1.236 . S
N269 Mn253 2.282 1_565 S
N269 C270 1.328 1_565 S
N269 C274 1.318 . S
C270 N269 1.328 1_545 S
C270 C271 1.457 1_545 S
C270 H275 0.929 . S
C271 C270 1.457 1_565 S
C271 C272 1.291 . S
C271 H284 0.931 1_565 S
C272 C271 1.291 . S
C272 C273 1.373 . S
C272 H285 0.929 . S
C273 C272 1.373 . S
C273 C274 1.396 . S
C273 C280 1.403 . S
C274 C264 1.476 . S
C274 N269 1.318 . S
C274 C273 1.396 . S
H275 C270 0.929 . S
O276 Mn252 2.385 . S
O276 C254 1.234 . S
O277 Mn252 2.209 . S
O277 Mn253 2.215 . S
O277 C254 1.283 . S
O278 Mn252 2.094 . S
O278 C256 1.240 . S
O279 Mn253 2.117 . S
O279 C256 1.264 . S
C280 C273 1.403 . S
C280 C281 1.399 . S
C280 H286 0.929 . S
C281 C261 1.449 . S
C281 C280 1.399 . S
C281 H287 0.930 . S
H282 C262 0.931 . S
H283 C263 0.930 . S
H284 C271 0.931 1_545 S
H285 C272 0.929 . S
H286 C280 0.929 . S
H287 C281 0.930 . S
Mn288 O293 2.095 . S
Mn288 O303 2.162 . S
Mn288 O304 2.297 . S
Mn288 O312 2.385 . S
Mn288 O313 2.209 . S
Mn288 O314 2.094 . S
Mn289 O294 2.121 . S
Mn289 N296 2.257 1_554 S
Mn289 N305 2.282 1_554 S
Mn289 O313 2.215 . S
Mn289 O315 2.117 . S
C290 O312 1.234 . S
C290 O313 1.283 . S
C291 O303 1.281 . S
C291 O304 1.236 . S
C292 O314 1.240 . S
C292 O315 1.264 . S
O293 Mn288 2.095 . S
O293 C302 1.250 . S
O294 Mn289 2.121 . S
O294 C302 1.258 . S
C295 N296 1.326 . S
C295 C299 1.460 . S
C295 H301 0.929 . S
N296 Mn289 2.257 1_556 S
N296 C295 1.326 . S
N296 C300 1.362 . S
C297 C298 1.258 . S
C297 C300 1.431 . S
C297 C317 1.449 . S
C298 C297 1.258 . S
C298 C299 1.477 . S
C298 H318 0.931 . S
C299 C295 1.460 . S
C299 C298 1.477 . S
C299 H319 0.930 . S
C300 N296 1.362 . S
C300 C297 1.431 . S
C300 C310 1.476 . S
H301 C295 0.929 . S
C302 O293 1.250 . S
C302 O294 1.258 . S
O303 Mn288 2.162 . S
O303 C291 1.281 . S
O304 Mn288 2.297 . S
O304 C291 1.236 . S
N305 Mn289 2.282 1_556 S
N305 C306 1.328 1_556 S
N305 C310 1.318 . S
C306 N305 1.328 1_554 S
C306 C307 1.457 1_554 S
C306 H311 0.929 . S
C307 C306 1.457 1_556 S
C307 C308 1.291 . S
C307 H320 0.931 1_556 S
C308 C307 1.291 . S
C308 C309 1.373 . S
C308 H321 0.929 . S
C309 C308 1.373 . S
C309 C310 1.396 . S
C309 C316 1.403 . S
C310 C300 1.476 . S
C310 N305 1.318 . S
C310 C309 1.396 . S
H311 C306 0.929 . S
O312 Mn288 2.385 . S
O312 C290 1.234 . S
O313 Mn288 2.209 . S
O313 Mn289 2.215 . S
O313 C290 1.283 . S
O314 Mn288 2.094 . S
O314 C292 1.240 . S
O315 Mn289 2.117 . S
O315 C292 1.264 . S
C316 C309 1.403 . S
C316 C317 1.399 . S
C316 H322 0.929 . S
C317 C297 1.449 . S
C317 C316 1.399 . S
C317 H323 0.930 . S
H318 C298 0.931 . S
H319 C299 0.930 . S
H320 C307 0.931 1_554 S
H321 C308 0.929 . S
H322 C316 0.929 . S
H323 C317 0.930 . S
Mn324 O329 2.095 . S
Mn324 O339 2.162 . S
Mn324 O340 2.297 . S
Mn324 O348 2.385 . S
Mn324 O349 2.209 . S
Mn324 O350 2.094 . S
Mn325 O330 2.121 . S
Mn325 N332 2.257 1_556 S
Mn325 N341 2.282 1_556 S
Mn325 O349 2.215 . S
Mn325 O351 2.117 . S
C326 O348 1.234 . S
C326 O349 1.283 . S
C327 O339 1.281 . S
C327 O340 1.236 . S
C328 O350 1.240 . S
C328 O351 1.264 . S
O329 Mn324 2.095 . S
O329 C338 1.250 . S
O330 Mn325 2.121 . S
O330 C338 1.258 . S
C331 N332 1.326 . S
C331 C335 1.460 . S
C331 H337 0.929 . S
N332 Mn325 2.257 1_554 S
N332 C331 1.326 . S
N332 C336 1.362 . S
C333 C334 1.258 . S
C333 C336 1.431 . S
C333 C353 1.449 . S
C334 C333 1.258 . S
C334 C335 1.477 . S
C334 H354 0.931 . S
C335 C331 1.460 . S
C335 C334 1.477 . S
C335 H355 0.930 . S
C336 N332 1.362 . S
C336 C333 1.431 . S
C336 C346 1.476 . S
H337 C331 0.929 . S
C338 O329 1.250 . S
C338 O330 1.258 . S
O339 Mn324 2.162 . S
O339 C327 1.281 . S
O340 Mn324 2.297 . S
O340 C327 1.236 . S
N341 Mn325 2.282 1_554 S
N341 C342 1.328 1_554 S
N341 C346 1.318 . S
C342 N341 1.328 1_556 S
C342 C343 1.457 1_556 S
C342 H347 0.929 . S
C343 C342 1.457 1_554 S
C343 C344 1.291 . S
C343 H356 0.931 1_554 S
C344 C343 1.291 . S
C344 C345 1.373 . S
C344 H357 0.929 . S
C345 C344 1.373 . S
C345 C346 1.396 . S
C345 C352 1.403 . S
C346 C336 1.476 . S
C346 N341 1.318 . S
C346 C345 1.396 . S
H347 C342 0.929 . S
O348 Mn324 2.385 . S
O348 C326 1.234 . S
O349 Mn324 2.209 . S
O349 Mn325 2.215 . S
O349 C326 1.283 . S
O350 Mn324 2.094 . S
O350 C328 1.240 . S
O351 Mn325 2.117 . S
O351 C328 1.264 . S
C352 C345 1.403 . S
C352 C353 1.399 . S
C352 H358 0.929 . S
C353 C333 1.449 . S
C353 C352 1.399 . S
C353 H359 0.930 . S
H354 C334 0.931 . S
H355 C335 0.930 . S
H356 C343 0.931 1_556 S
H357 C344 0.929 . S
H358 C352 0.929 . S
H359 C353 0.930 . S
Mn360 O365 2.095 . S
Mn360 O375 2.162 . S
Mn360 O376 2.297 . S
Mn360 O384 2.385 . S
Mn360 O385 2.209 . S
Mn360 O386 2.094 . S
Mn361 O366 2.121 . S
Mn361 N368 2.257 1_556 S
Mn361 N377 2.282 1_556 S
Mn361 O385 2.215 . S
Mn361 O387 2.117 . S
C362 O384 1.234 . S
C362 O385 1.283 . S
C363 O375 1.281 . S
C363 O376 1.236 . S
C364 O386 1.240 . S
C364 O387 1.264 . S
O365 Mn360 2.095 . S
O365 C374 1.250 . S
O366 Mn361 2.121 . S
O366 C374 1.258 . S
C367 N368 1.326 . S
C367 C371 1.460 . S
C367 H373 0.929 . S
N368 Mn361 2.257 1_554 S
N368 C367 1.326 . S
N368 C372 1.362 . S
C369 C370 1.258 . S
C369 C372 1.431 . S
C369 C389 1.449 . S
C370 C369 1.258 . S
C370 C371 1.477 . S
C370 H390 0.931 . S
C371 C367 1.460 . S
C371 C370 1.477 . S
C371 H391 0.930 . S
C372 N368 1.362 . S
C372 C369 1.431 . S
C372 C382 1.476 . S
H373 C367 0.929 . S
C374 O365 1.250 . S
C374 O366 1.258 . S
O375 Mn360 2.162 . S
O375 C363 1.281 . S
O376 Mn360 2.297 . S
O376 C363 1.236 . S
N377 Mn361 2.282 1_554 S
N377 C378 1.328 1_554 S
N377 C382 1.318 . S
C378 N377 1.328 1_556 S
C378 C379 1.457 1_556 S
C378 H383 0.929 . S
C379 C378 1.457 1_554 S
C379 C380 1.291 . S
C379 H392 0.931 1_554 S
C380 C379 1.291 . S
C380 C381 1.373 . S
C380 H393 0.929 . S
C381 C380 1.373 . S
C381 C382 1.396 . S
C381 C388 1.403 . S
C382 C372 1.476 . S
C382 N377 1.318 . S
C382 C381 1.396 . S
H383 C378 0.929 . S
O384 Mn360 2.385 . S
O384 C362 1.234 . S
O385 Mn360 2.209 . S
O385 Mn361 2.215 . S
O385 C362 1.283 . S
O386 Mn360 2.094 . S
O386 C364 1.240 . S
O387 Mn361 2.117 . S
O387 C364 1.264 . S
C388 C381 1.403 . S
C388 C389 1.399 . S
C388 H394 0.929 . S
C389 C369 1.449 . S
C389 C388 1.399 . S
C389 H395 0.930 . S
H390 C370 0.931 . S
H391 C371 0.930 . S
H392 C379 0.931 1_556 S
H393 C380 0.929 . S
H394 C388 0.929 . S
H395 C389 0.930 . S
Mn396 O401 2.095 . S
Mn396 O411 2.162 . S
Mn396 O412 2.297 . S
Mn396 O420 2.385 . S
Mn396 O421 2.209 . S
Mn396 O422 2.094 . S
Mn397 O402 2.121 . S
Mn397 N404 2.257 1_554 S
Mn397 N413 2.282 1_554 S
Mn397 O421 2.215 . S
Mn397 O423 2.117 . S
C398 O420 1.234 . S
C398 O421 1.283 . S
C399 O411 1.281 . S
C399 O412 1.236 . S
C400 O422 1.240 . S
C400 O423 1.264 . S
O401 Mn396 2.095 . S
O401 C410 1.250 . S
O402 Mn397 2.121 . S
O402 C410 1.258 . S
C403 N404 1.326 . S
C403 C407 1.460 . S
C403 H409 0.929 . S
N404 Mn397 2.257 1_556 S
N404 C403 1.326 . S
N404 C408 1.362 . S
C405 C406 1.258 . S
C405 C408 1.431 . S
C405 C425 1.449 . S
C406 C405 1.258 . S
C406 C407 1.477 . S
C406 H426 0.931 . S
C407 C403 1.460 . S
C407 C406 1.477 . S
C407 H427 0.930 . S
C408 N404 1.362 . S
C408 C405 1.431 . S
C408 C418 1.476 . S
H409 C403 0.929 . S
C410 O401 1.250 . S
C410 O402 1.258 . S
O411 Mn396 2.162 . S
O411 C399 1.281 . S
O412 Mn396 2.297 . S
O412 C399 1.236 . S
N413 Mn397 2.282 1_556 S
N413 C414 1.328 1_556 S
N413 C418 1.318 . S
C414 N413 1.328 1_554 S
C414 C415 1.457 1_554 S
C414 H419 0.929 . S
C415 C414 1.457 1_556 S
C415 C416 1.291 . S
C415 H428 0.931 1_556 S
C416 C415 1.291 . S
C416 C417 1.373 . S
C416 H429 0.929 . S
C417 C416 1.373 . S
C417 C418 1.396 . S
C417 C424 1.403 . S
C418 C408 1.476 . S
C418 N413 1.318 . S
C418 C417 1.396 . S
H419 C414 0.929 . S
O420 Mn396 2.385 . S
O420 C398 1.234 . S
O421 Mn396 2.209 . S
O421 Mn397 2.215 . S
O421 C398 1.283 . S
O422 Mn396 2.094 . S
O422 C400 1.240 . S
O423 Mn397 2.117 . S
O423 C400 1.264 . S
C424 C417 1.403 . S
C424 C425 1.399 . S
C424 H430 0.929 . S
C425 C405 1.449 . S
C425 C424 1.399 . S
C425 H431 0.930 . S
H426 C406 0.931 . S
H427 C407 0.930 . S
H428 C415 0.931 1_554 S
H429 C416 0.929 . S
H430 C424 0.929 . S
H431 C425 0.930 . S
H432 C438 0.930 . S
H433 C441 0.930 . S
H434 C442 0.930 . S
H435 C443 0.930 . S
H436 C446 0.930 . S
H437 C447 0.930 . S
C438 H432 0.930 . S
C438 C439 1.355 . S
C438 C440 1.415 . S
C439 C438 1.355 . S
C439 C441 1.419 . S
C440 C438 1.415 . S
C440 C445 1.425 1_655 S
C440 C447 1.409 . S
C441 H433 0.930 . S
C441 C439 1.419 . S
C441 C442 1.362 1_655 S
C442 H434 0.930 . S
C442 C441 1.362 1_455 S
C442 C445 1.409 . S
C443 H435 0.930 . S
C443 C444 1.355 . S
C443 C445 1.415 . S
C444 C443 1.355 . S
C444 C446 1.419 . S
C445 C440 1.425 1_455 S
C445 C442 1.409 . S
C445 C443 1.415 . S
C446 H436 0.930 . S
C446 C444 1.419 . S
C446 C447 1.362 1_455 S
C447 H437 0.930 . S
C447 C440 1.409 . S
C447 C446 1.362 1_655 S
H448 C454 0.930 . S
H449 C457 0.930 . S
H450 C458 0.930 . S
H451 C459 0.930 . S
H452 C462 0.930 . S
H453 C463 0.930 . S
C454 H448 0.930 . S
C454 C455 1.355 . S
C454 C456 1.415 1_455 S
C455 C454 1.355 . S
C455 C457 1.419 . S
C456 C454 1.415 1_655 S
C456 C461 1.425 1_655 S
C456 C463 1.409 . S
C457 H449 0.930 . S
C457 C455 1.419 . S
C457 C458 1.362 . S
C458 H450 0.930 . S
C458 C457 1.362 . S
C458 C461 1.409 . S
C459 H451 0.930 . S
C459 C460 1.355 . S
C459 C461 1.415 1_655 S
C460 C459 1.355 . S
C460 C462 1.419 . S
C461 C456 1.425 1_455 S
C461 C458 1.409 . S
C461 C459 1.415 1_455 S
C462 H452 0.930 . S
C462 C460 1.419 . S
C462 C463 1.362 . S
C463 H453 0.930 . S
C463 C456 1.409 . S
C463 C462 1.362 . S
H464 C470 0.930 . S
H465 C473 0.930 . S
H466 C474 0.930 . S
H467 C475 0.930 . S
H468 C478 0.930 . S
H469 C479 0.930 . S
C470 H464 0.930 . S
C470 C471 1.355 . S
C470 C472 1.415 1_565 S
C471 C470 1.355 . S
C471 C473 1.419 . S
C472 C470 1.415 1_545 S
C472 C477 1.425 1_545 S
C472 C479 1.409 . S
C473 H465 0.930 . S
C473 C471 1.419 . S
C473 C474 1.362 . S
C474 H466 0.930 . S
C474 C473 1.362 . S
C474 C477 1.409 . S
C475 H467 0.930 . S
C475 C476 1.355 . S
C475 C477 1.415 1_545 S
C476 C475 1.355 . S
C476 C478 1.419 . S
C477 C472 1.425 1_565 S
C477 C474 1.409 . S
C477 C475 1.415 1_565 S
C478 H468 0.930 . S
C478 C476 1.419 . S
C478 C479 1.362 . S
C479 H469 0.930 . S
C479 C472 1.409 . S
C479 C478 1.362 . S
H480 C486 0.930 . S
H481 C489 0.930 . S
H482 C490 0.930 . S
H483 C491 0.930 . S
H484 C494 0.930 . S
H485 C495 0.930 . S
C486 H480 0.930 . S
C486 C487 1.355 . S
C486 C488 1.397 1_565 S
C487 C486 1.355 . S
C487 C489 1.419 . S
C488 C486 1.397 1_545 S
C488 C493 1.424 1_545 S
C488 C495 1.429 . S
C489 H481 0.930 . S
C489 C487 1.419 . S
C489 C490 1.362 . S
C490 H482 0.930 . S
C490 C489 1.362 . S
C490 C493 1.429 . S
C491 H483 0.930 . S
C491 C492 1.355 . S
C491 C493 1.397 1_545 S
C492 C491 1.355 . S
C492 C494 1.419 . S
C493 C488 1.424 1_565 S
C493 C490 1.429 . S
C493 C491 1.397 1_565 S
C494 H484 0.930 . S
C494 C492 1.419 . S
C494 C495 1.362 . S
C495 H485 0.930 . S
C495 C488 1.429 . S
C495 C494 1.362 . S
H496 C502 0.930 . S
H497 C505 0.930 . S
H498 C506 0.930 . S
H499 C507 0.930 . S
H500 C510 0.930 . S
H501 C511 0.930 . S
C502 H496 0.930 . S
C502 C503 1.355 . S
C502 C504 1.415 . S
C503 C502 1.355 . S
C503 C505 1.419 . S
C504 C502 1.415 . S
C504 C509 1.425 1_556 S
C504 C511 1.409 1_556 S
C505 H497 0.930 . S
C505 C503 1.419 . S
C505 C506 1.362 . S
C506 H498 0.930 . S
C506 C505 1.362 . S
C506 C509 1.409 1_556 S
C507 H499 0.930 . S
C507 C508 1.355 . S
C507 C509 1.415 . S
C508 C507 1.355 . S
C508 C510 1.419 . S
C509 C504 1.425 1_554 S
C509 C506 1.409 1_554 S
C509 C507 1.415 . S
C510 H500 0.930 . S
C510 C508 1.419 . S
C510 C511 1.362 . S
C511 H501 0.930 . S
C511 C504 1.409 1_554 S
C511 C510 1.362 . S
H512 C518 0.930 1_554 S
H513 C521 0.930 . S
H514 C522 0.930 . S
H515 C523 0.930 1_556 S
H516 C526 0.930 . S
H517 C527 0.930 . S
C518 H512 0.930 1_556 S
C518 C519 1.355 . S
C518 C520 1.415 1_556 S
C519 C518 1.355 . S
C519 C521 1.419 . S
C520 C518 1.415 1_554 S
C520 C525 1.425 1_554 S
C520 C527 1.409 . S
C521 H513 0.930 . S
C521 C519 1.419 . S
C521 C522 1.362 . S
C522 H514 0.930 . S
C522 C521 1.362 . S
C522 C525 1.409 . S
C523 H515 0.930 1_554 S
C523 C524 1.355 . S
C523 C525 1.415 1_554 S
C524 C523 1.355 . S
C524 C526 1.419 . S
C525 C520 1.425 1_556 S
C525 C522 1.409 . S
C525 C523 1.415 1_556 S
C526 H516 0.930 . S
C526 C524 1.419 . S
C526 C527 1.362 . S
C527 H517 0.930 . S
C527 C520 1.409 . S
C527 C526 1.362 . S
H528 C534 0.930 . S
H529 C537 0.930 . S
H530 C538 0.930 . S
H531 C539 0.930 . S
H532 C542 0.930 . S
H533 C543 0.930 . S
C534 H528 0.930 . S
C534 C535 1.355 . S
C534 C536 1.415 . S
C535 C534 1.355 . S
C535 C537 1.419 . S
C536 C534 1.415 . S
C536 C541 1.425 . S
C536 C543 1.409 . S
C537 H529 0.930 . S
C537 C535 1.419 . S
C537 C538 1.362 . S
C538 H530 0.930 . S
C538 C537 1.362 . S
C538 C541 1.409 . S
C539 H531 0.930 . S
C539 C540 1.355 . S
C539 C541 1.415 . S
C540 C539 1.355 . S
C540 C542 1.419 . S
C541 C536 1.425 . S
C541 C538 1.409 . S
C541 C539 1.415 . S
C542 H532 0.930 . S
C542 C540 1.419 . S
C542 C543 1.362 . S
C543 H533 0.930 . S
C543 C536 1.409 . S
C543 C542 1.362 . S
H544 C550 0.930 . S
H545 C553 0.930 . S
H546 C554 0.930 . S
H547 C555 0.930 . S
H548 C558 0.930 . S
H549 C559 0.930 . S
C550 H544 0.930 . S
C550 C551 1.355 . S
C550 C552 1.415 . S
C551 C550 1.355 . S
C551 C553 1.419 . S
C552 C550 1.415 . S
C552 C557 1.425 . S
C552 C559 1.409 . S
C553 H545 0.930 . S
C553 C551 1.419 . S
C553 C554 1.362 . S
C554 H546 0.930 . S
C554 C553 1.362 . S
C554 C557 1.409 . S
C555 H547 0.930 . S
C555 C556 1.355 . S
C555 C557 1.415 . S
C556 C555 1.355 . S
C556 C558 1.419 . S
C557 C552 1.425 . S
C557 C554 1.409 . S
C557 C555 1.415 . S
C558 H548 0.930 . S
C558 C556 1.419 . S
C558 C559 1.362 . S
C559 H549 0.930 . S
C559 C552 1.409 . S
C559 C558 1.362 . S
H560 C566 0.930 . S
H561 C569 0.930 . S
H562 C570 0.930 . S
H563 C571 0.930 . S
H564 C574 0.930 . S
H565 C575 0.930 . S
C566 H560 0.930 . S
C566 C567 1.355 . S
C566 C568 1.415 . S
C567 C566 1.355 . S
C567 C569 1.419 . S
C568 C566 1.415 . S
C568 C573 1.425 . S
C568 C575 1.409 . S
C569 H561 0.930 . S
C569 C567 1.419 . S
C569 C570 1.362 . S
C570 H562 0.930 . S
C570 C569 1.362 . S
C570 C573 1.409 . S
C571 H563 0.930 . S
C571 C572 1.355 . S
C571 C573 1.415 . S
C572 C571 1.355 . S
C572 C574 1.419 . S
C573 C568 1.425 . S
C573 C570 1.409 . S
C573 C571 1.415 . S
C574 H564 0.930 . S
C574 C572 1.419 . S
C574 C575 1.362 . S
C575 H565 0.930 . S
C575 C568 1.409 . S
C575 C574 1.362 . S
H576 C582 0.930 . S
H577 C585 0.930 . S
H578 C586 0.930 . S
H579 C587 0.930 . S
H580 C590 0.930 . S
H581 C591 0.930 . S
C582 H576 0.930 . S
C582 C583 1.355 . S
C582 C584 1.415 . S
C583 C582 1.355 . S
C583 C585 1.419 . S
C584 C582 1.415 . S
C584 C589 1.425 . S
C584 C591 1.409 . S
C585 H577 0.930 . S
C585 C583 1.419 . S
C585 C586 1.362 . S
C586 H578 0.930 . S
C586 C585 1.362 . S
C586 C589 1.409 . S
C587 H579 0.930 . S
C587 C588 1.355 . S
C587 C589 1.415 . S
C588 C587 1.355 . S
C588 C590 1.419 . S
C589 C584 1.425 . S
C589 C586 1.409 . S
C589 C587 1.415 . S
C590 H580 0.930 . S
C590 C588 1.419 . S
C590 C591 1.362 . S
C591 H581 0.930 . S
C591 C584 1.409 . S
C591 C590 1.362 . S
H592 C598 0.930 . S
H593 C601 0.930 . S
H594 C602 0.930 . S
H595 C603 0.930 . S
H596 C606 0.930 . S
H597 C607 0.930 . S
C598 H592 0.930 . S
C598 C599 1.355 . S
C598 C600 1.415 . S
C599 C598 1.355 . S
C599 C601 1.419 . S
C600 C598 1.415 . S
C600 C605 1.425 . S
C600 C607 1.409 . S
C601 H593 0.930 . S
C601 C599 1.419 . S
C601 C602 1.362 . S
C602 H594 0.930 . S
C602 C601 1.362 . S
C602 C605 1.409 . S
C603 H595 0.930 . S
C603 C604 1.355 . S
C603 C605 1.415 . S
C604 C603 1.355 . S
C604 C606 1.419 . S
C605 C600 1.425 . S
C605 C602 1.409 . S
C605 C603 1.415 . S
C606 H596 0.930 . S
C606 C604 1.419 . S
C606 C607 1.362 . S
C607 H597 0.930 . S
C607 C600 1.409 . S
C607 C606 1.362 . S
H608 C614 0.930 . S
H609 C617 0.930 . S
H610 C618 0.930 . S
H611 C619 0.930 . S
H612 C622 0.930 . S
H613 C623 0.930 . S
C614 H608 0.930 . S
C614 C615 1.355 . S
C614 C616 1.415 . S
C615 C614 1.355 . S
C615 C617 1.419 . S
C616 C614 1.415 . S
C616 C621 1.425 . S
C616 C623 1.409 . S
C617 H609 0.930 . S
C617 C615 1.419 . S
C617 C618 1.362 . S
C618 H610 0.930 . S
C618 C617 1.362 . S
C618 C621 1.409 . S
C619 H611 0.930 . S
C619 C620 1.355 . S
C619 C621 1.415 . S
C620 C619 1.355 . S
C620 C622 1.419 . S
C621 C616 1.425 . S
C621 C618 1.409 . S
C621 C619 1.415 . S
C622 H612 0.930 . S
C622 C620 1.419 . S
C622 C623 1.362 . S
C623 H613 0.930 . S
C623 C616 1.409 . S
C623 C622 1.362 . S
H624 C630 0.930 . S
H625 C633 0.930 . S
H626 C634 0.930 . S
H627 C635 0.930 . S
H628 C638 0.930 . S
H629 C639 0.930 . S
C630 H624 0.930 . S
C630 C631 1.355 . S
C630 C632 1.415 . S
C631 C630 1.355 . S
C631 C633 1.419 . S
C632 C630 1.415 . S
C632 C637 1.425 . S
C632 C639 1.409 . S
C633 H625 0.930 . S
C633 C631 1.419 . S
C633 C634 1.362 . S
C634 H626 0.930 . S
C634 C633 1.362 . S
C634 C637 1.409 . S
C635 H627 0.930 . S
C635 C636 1.355 . S
C635 C637 1.415 . S
C636 C635 1.355 . S
C636 C638 1.419 . S
C637 C632 1.425 . S
C637 C634 1.409 . S
C637 C635 1.415 . S
C638 H628 0.930 . S
C638 C636 1.419 . S
C638 C639 1.362 . S
C639 H629 0.930 . S
C639 C632 1.409 . S
C639 C638 1.362 . S
H640 C646 0.930 . S
H641 C649 0.930 . S
H642 C650 0.930 . S
H643 C651 0.930 . S
H644 C654 0.930 . S
H645 C655 0.930 . S
C646 H640 0.930 . S
C646 C647 1.355 . S
C646 C648 1.415 . S
C647 C646 1.355 . S
C647 C649 1.419 . S
C648 C646 1.415 . S
C648 C653 1.425 . S
C648 C655 1.409 . S
C649 H641 0.930 . S
C649 C647 1.419 . S
C649 C650 1.362 . S
C650 H642 0.930 . S
C650 C649 1.362 . S
C650 C653 1.409 . S
C651 H643 0.930 . S
C651 C652 1.355 . S
C651 C653 1.415 . S
C652 C651 1.355 . S
C652 C654 1.419 . S
C653 C648 1.425 . S
C653 C650 1.409 . S
C653 C651 1.415 . S
C654 H644 0.930 . S
C654 C652 1.419 . S
C654 C655 1.362 . S
C655 H645 0.930 . S
C655 C648 1.409 . S
C655 C654 1.362 . S
H656 C662 0.930 . S
H657 C665 0.930 . S
H658 C666 0.930 . S
H659 C667 0.930 . S
H660 C670 0.930 . S
H661 C671 0.930 . S
C662 H656 0.930 . S
C662 C663 1.355 . S
C662 C664 1.415 . S
C663 C662 1.355 . S
C663 C665 1.419 . S
C664 C662 1.415 . S
C664 C669 1.425 . S
C664 C671 1.409 . S
C665 H657 0.930 . S
C665 C663 1.419 . S
C665 C666 1.362 . S
C666 H658 0.930 . S
C666 C665 1.362 . S
C666 C669 1.409 . S
C667 H659 0.930 . S
C667 C668 1.355 . S
C667 C669 1.415 . S
C668 C667 1.355 . S
C668 C670 1.419 . S
C669 C664 1.425 . S
C669 C666 1.409 . S
C669 C667 1.415 . S
C670 H660 0.930 . S
C670 C668 1.419 . S
C670 C671 1.362 . S
C671 H661 0.930 . S
C671 C664 1.409 . S
C671 C670 1.362 . S
H672 C678 0.930 . S
H673 C681 0.930 . S
H674 C682 0.930 . S
H675 C683 0.930 . S
H676 C686 0.930 . S
H677 C687 0.930 . S
C678 H672 0.930 . S
C678 C679 1.355 . S
C678 C680 1.415 . S
C679 C678 1.355 . S
C679 C681 1.419 . S
C680 C678 1.415 . S
C680 C685 1.425 . S
C680 C687 1.409 . S
C681 H673 0.930 . S
C681 C679 1.419 . S
C681 C682 1.362 . S
C682 H674 0.930 . S
C682 C681 1.362 . S
C682 C685 1.409 . S
C683 H675 0.930 . S
C683 C684 1.355 . S
C683 C685 1.415 . S
C684 C683 1.355 . S
C684 C686 1.419 . S
C685 C680 1.425 . S
C685 C682 1.409 . S
C685 C683 1.415 . S
C686 H676 0.930 . S
C686 C684 1.419 . S
C686 C687 1.362 . S
C687 H677 0.930 . S
C687 C680 1.409 . S
C687 C686 1.362 . S
H688 C694 0.930 . S
H689 C697 0.930 . S
H690 C698 0.930 . S
H691 C699 0.930 . S
H692 C702 0.930 . S
H693 C703 0.930 . S
C694 H688 0.930 . S
C694 C695 1.355 . S
C694 C696 1.415 . S
C695 C694 1.355 . S
C695 C697 1.419 . S
C696 C694 1.415 . S
C696 C701 1.425 . S
C696 C703 1.409 . S
C697 H689 0.930 . S
C697 C695 1.419 . S
C697 C698 1.362 . S
C698 H690 0.930 . S
C698 C697 1.362 . S
C698 C701 1.409 . S
C699 H691 0.930 . S
C699 C700 1.355 . S
C699 C701 1.415 . S
C700 C699 1.355 . S
C700 C702 1.419 . S
C701 C696 1.425 . S
C701 C698 1.409 . S
C701 C699 1.415 . S
C702 H692 0.930 . S
C702 C700 1.419 . S
C702 C703 1.362 . S
C703 H693 0.930 . S
C703 C696 1.409 . S
C703 C702 1.362 . S
H704 C710 0.930 . S
H705 C713 0.930 . S
H706 C714 0.930 . S
H707 C715 0.930 . S
H708 C718 0.930 . S
H709 C719 0.930 . S
C710 H704 0.930 . S
C710 C711 1.355 . S
C710 C712 1.415 . S
C711 C710 1.355 . S
C711 C713 1.419 . S
C712 C710 1.415 . S
C712 C717 1.425 . S
C712 C719 1.409 . S
C713 H705 0.930 . S
C713 C711 1.419 . S
C713 C714 1.362 . S
C714 H706 0.930 . S
C714 C713 1.362 . S
C714 C717 1.409 . S
C715 H707 0.930 . S
C715 C716 1.355 . S
C715 C717 1.415 . S
C716 C715 1.355 . S
C716 C718 1.419 . S
C717 C712 1.425 . S
C717 C714 1.409 . S
C717 C715 1.415 . S
C718 H708 0.930 . S
C718 C716 1.419 . S
C718 C719 1.362 . S
C719 H709 0.930 . S
C719 C712 1.409 . S
C719 C718 1.362 . S
H720 C726 0.930 . S
H721 C729 0.930 . S
H722 C730 0.930 . S
H723 C731 0.930 . S
H724 C734 0.930 . S
H725 C735 0.930 . S
C726 H720 0.930 . S
C726 C727 1.355 . S
C726 C728 1.410 1_545 S
C727 C726 1.355 . S
C727 C729 1.419 1_455 S
C728 C726 1.410 1_565 S
C728 C733 1.425 1_465 S
C728 C735 1.414 . S
C729 H721 0.930 . S
C729 C727 1.419 1_655 S
C729 C730 1.362 . S
C730 H722 0.930 . S
C730 C729 1.362 . S
C730 C733 1.414 . S
C731 H723 0.930 . S
C731 C732 1.355 . S
C731 C733 1.410 1_565 S
C732 C731 1.355 . S
C732 C734 1.419 1_655 S
C733 C728 1.425 1_645 S
C733 C730 1.414 . S
C733 C731 1.410 1_545 S
C734 H724 0.930 . S
C734 C732 1.419 1_455 S
C734 C735 1.362 . S
C735 H725 0.930 . S
C735 C728 1.414 . S
C735 C734 1.362 . S
H736 C742 0.930 . S
H737 C745 0.930 . S
H738 C746 0.930 . S
H739 C747 0.930 . S
H740 C750 0.930 . S
H741 C751 0.930 . S
C742 H736 0.930 . S
C742 C743 1.355 . S
C742 C744 1.415 1_545 S
C743 C742 1.355 . S
C743 C745 1.419 1_655 S
C744 C742 1.415 1_565 S
C744 C749 1.425 1_665 S
C744 C751 1.409 . S
C745 H737 0.930 . S
C745 C743 1.419 1_455 S
C745 C746 1.362 . S
C746 H738 0.930 . S
C746 C745 1.362 . S
C746 C749 1.409 . S
C747 H739 0.930 . S
C747 C748 1.355 . S
C747 C749 1.415 1_565 S
C748 C747 1.355 . S
C748 C750 1.419 1_455 S
C749 C744 1.425 1_445 S
C749 C746 1.409 . S
C749 C747 1.415 1_545 S
C750 H740 0.930 . S
C750 C748 1.419 1_655 S
C750 C751 1.362 . S
C751 H741 0.930 . S
C751 C744 1.409 . S
C751 C750 1.362 . S
H752 C758 0.930 . S
H753 C761 0.930 . S
H754 C762 0.930 1_554 S
H755 C763 0.930 . S
H756 C766 0.930 . S
H757 C767 0.930 1_556 S
C758 H752 0.930 . S
C758 C759 1.355 1_545 S
C758 C760 1.415 . S
C759 C758 1.355 1_565 S
C759 C761 1.419 . S
C760 C758 1.415 . S
C760 C765 1.425 1_546 S
C760 C767 1.409 1_556 S
C761 H753 0.930 . S
C761 C759 1.419 . S
C761 C762 1.362 . S
C762 H754 0.930 1_556 S
C762 C761 1.362 . S
C762 C765 1.409 1_556 S
C763 H755 0.930 . S
C763 C764 1.355 1_565 S
C763 C765 1.415 . S
C764 C763 1.355 1_545 S
C764 C766 1.419 . S
C765 C760 1.425 1_564 S
C765 C762 1.409 1_554 S
C765 C763 1.415 . S
C766 H756 0.930 . S
C766 C764 1.419 . S
C766 C767 1.362 . S
C767 H757 0.930 1_554 S
C767 C760 1.409 1_554 S
C767 C766 1.362 . S
H768 C774 0.930 . S
H769 C777 0.930 . S
H770 C778 0.930 . S
H771 C779 0.930 . S
H772 C782 0.930 . S
H773 C783 0.930 . S
C774 H768 0.930 . S
C774 C775 1.355 . S
C774 C776 1.401 1_554 S
C775 C774 1.355 . S
C775 C777 1.419 1_565 S
C776 C774 1.401 1_556 S
C776 C781 1.425 1_566 S
C776 C783 1.423 . S
C777 H769 0.930 . S
C777 C775 1.419 1_545 S
C777 C778 1.362 . S
C778 H770 0.930 . S
C778 C777 1.362 . S
C778 C781 1.423 . S
C779 H771 0.930 . S
C779 C780 1.355 . S
C779 C781 1.401 1_556 S
C780 C779 1.355 . S
C780 C782 1.419 1_545 S
C781 C776 1.425 1_544 S
C781 C778 1.423 . S
C781 C779 1.401 1_554 S
C782 H772 0.930 . S
C782 C780 1.419 1_565 S
C782 C783 1.362 . S
C783 H773 0.930 . S
C783 C776 1.423 . S
C783 C782 1.362 . S
H784 C790 0.930 . S
H785 C793 0.930 . S
H786 C794 0.930 . S
H787 C795 0.930 . S
H788 C798 0.930 . S
H789 C799 0.930 . S
C790 H784 0.930 . S
C790 C791 1.355 . S
C790 C792 1.415 1_655 S
C791 C790 1.355 . S
C791 C793 1.419 1_556 S
C792 C790 1.415 1_455 S
C792 C797 1.425 1_456 S
C792 C799 1.409 . S
C793 H785 0.930 . S
C793 C791 1.419 1_554 S
C793 C794 1.362 . S
C794 H786 0.930 . S
C794 C793 1.362 . S
C794 C797 1.409 . S
C795 H787 0.930 . S
C795 C796 1.355 . S
C795 C797 1.415 1_455 S
C796 C795 1.355 . S
C796 C798 1.419 1_554 S
C797 C792 1.425 1_654 S
C797 C794 1.409 . S
C797 C795 1.415 1_655 S
C798 H788 0.930 . S
C798 C796 1.419 1_556 S
C798 C799 1.362 . S
C799 H789 0.930 . S
C799 C792 1.409 . S
C799 C798 1.362 . S
H800 C806 0.930 . S
H801 C809 0.930 . S
H802 C810 0.932 . S
H803 C811 0.930 . S
H804 C814 0.930 . S
H805 C815 0.932 . S
C806 H800 0.930 . S
C806 C807 1.355 . S
C806 C808 1.415 . S
C807 C806 1.355 . S
C807 C809 1.419 . S
C808 C806 1.415 . S
C808 C813 1.425 1_456 S
C808 C815 1.410 1_455 S
C809 H801 0.930 . S
C809 C807 1.419 . S
C809 C810 1.360 1_556 S
C810 H802 0.932 . S
C810 C809 1.360 1_554 S
C810 C813 1.410 1_455 S
C811 H803 0.930 . S
C811 C812 1.355 . S
C811 C813 1.415 . S
C812 C811 1.355 . S
C812 C814 1.419 . S
C813 C808 1.425 1_654 S
C813 C810 1.410 1_655 S
C813 C811 1.415 . S
C814 H804 0.930 . S
C814 C812 1.419 . S
C814 C815 1.360 1_554 S
C815 H805 0.932 . S
C815 C808 1.410 1_655 S
C815 C814 1.360 1_556 S
C439 C112 1.029 . S
C444 C4 1.006 . S
C455 C76 1.056 . S
C460 C40 1.101 . S
C471 C184 1.114 . S
C476 C148 1.093 . S
C487 C220 1.039 . S
C492 C256 1.087 . S
C503 C328 1.096 . S
C508 C292 1.049 . S
C519 C364 1.096 . S
C524 C400 1.114 . S
C535 C3 1.036 . S
C540 C254 1.020 . S
C551 C218 0.913 . S
C556 C39 1.005 . S
C567 C182 0.938 . S
C572 C75 1.029 . S
C583 C146 0.915 . S
C588 C111 0.997 . S
C599 C147 1.021 . S
C604 C398 1.039 . S
C615 C290 0.993 . S
C620 C183 1.040 . S
C631 C362 1.019 . S
C636 C219 1.037 . S
C647 C255 1.012 . S
C652 C326 0.916 . S
C663 C74 0.914 . S
C668 C291 1.009 . S
C679 C2 0.926 . S
C684 C327 1.022 . S
C695 C363 1.040 . S
C700 C38 0.985 . S
C711 C110 0.969 . S
C716 C399 1.038 . S
C727 C14 1.152 . S
C732 C50 1.142 . S
C743 C122 1.143 . S
C748 C86 1.151 . S
C759 C230 1.209 . S
C764 C158 1.181 . S
C775 C194 1.143 . S
C780 C266 1.172 . S
C791 C374 1.142 . S
C796 C302 1.165 . S
C807 C338 1.163 . S
C812 C410 1.198 . S
