# Generated by pormake.
# Topology why, (6)-cn, num edge types: 1
# Building blocks:
#     Node 0, Type 0, BuildingBlock: FUNLAD_clean_sbu_0, # of connection points: 6
#     Node 1, Type 0, BuildingBlock: FUNLAD_clean_sbu_0, # of connection points: 6
#     Node 2, Type 0, BuildingBlock: FUNLAD_clean_sbu_0, # of connection points: 6
#     Node 3, Type 0, BuildingBlock: FUNLAD_clean_sbu_0, # of connection points: 6
#     Node 4, Type 0, BuildingBlock: FUNLAD_clean_sbu_0, # of connection points: 6
#     Node 5, Type 0, BuildingBlock: FUNLAD_clean_sbu_0, # of connection points: 6
#     Node 6, Type 0, BuildingBlock: FUNLAD_clean_sbu_0, # of connection points: 6
#     Node 7, Type 0, BuildingBlock: FUNLAD_clean_sbu_0, # of connection points: 6
#     Node 8, Type 0, BuildingBlock: FUNLAD_clean_sbu_0, # of connection points: 6
#     Node 9, Type 0, BuildingBlock: FUNLAD_clean_sbu_0, # of connection points: 6
#     Node 10, Type 0, BuildingBlock: FUNLAD_clean_sbu_0, # of connection points: 6
#     Node 11, Type 0, BuildingBlock: FUNLAD_clean_sbu_0, # of connection points: 6
#     Node 12, Type 0, BuildingBlock: FUNLAD_clean_sbu_0, # of connection points: 6
#     Node 13, Type 0, BuildingBlock: FUNLAD_clean_sbu_0, # of connection points: 6
#     Node 14, Type 0, BuildingBlock: FUNLAD_clean_sbu_0, # of connection points: 6
#     Node 15, Type 0, BuildingBlock: FUNLAD_clean_sbu_0, # of connection points: 6
#     Edge 16, Type (0, 0), None
#     Edge 17, Type (0, 0), None
#     Edge 18, Type (0, 0), None
#     Edge 19, Type (0, 0), None
#     Edge 20, Type (0, 0), None
#     Edge 21, Type (0, 0), None
#     Edge 22, Type (0, 0), None
#     Edge 23, Type (0, 0), None
#     Edge 24, Type (0, 0), None
#     Edge 25, Type (0, 0), None
#     Edge 26, Type (0, 0), None
#     Edge 27, Type (0, 0), None
#     Edge 28, Type (0, 0), None
#     Edge 29, Type (0, 0), None
#     Edge 30, Type (0, 0), None
#     Edge 31, Type (0, 0), None
#     Edge 32, Type (0, 0), None
#     Edge 33, Type (0, 0), None
#     Edge 34, Type (0, 0), None
#     Edge 35, Type (0, 0), None
#     Edge 36, Type (0, 0), None
#     Edge 37, Type (0, 0), None
#     Edge 38, Type (0, 0), None
#     Edge 39, Type (0, 0), None
#     Edge 40, Type (0, 0), None
#     Edge 41, Type (0, 0), None
#     Edge 42, Type (0, 0), None
#     Edge 43, Type (0, 0), None
#     Edge 44, Type (0, 0), None
#     Edge 45, Type (0, 0), None
#     Edge 46, Type (0, 0), None
#     Edge 47, Type (0, 0), None
#     Edge 48, Type (0, 0), None
#     Edge 49, Type (0, 0), None
#     Edge 50, Type (0, 0), None
#     Edge 51, Type (0, 0), None
#     Edge 52, Type (0, 0), None
#     Edge 53, Type (0, 0), None
#     Edge 54, Type (0, 0), None
#     Edge 55, Type (0, 0), None
#     Edge 56, Type (0, 0), None
#     Edge 57, Type (0, 0), None
#     Edge 58, Type (0, 0), None
#     Edge 59, Type (0, 0), None
#     Edge 60, Type (0, 0), None
#     Edge 61, Type (0, 0), None
#     Edge 62, Type (0, 0), None
#     Edge 63, Type (0, 0), None
# Relax obj value: 0.617
# Max RMSD: 0.206
# Mean RMSD: 0.206
data_MOF--net-why--node1-FUNLAD_clean_sbu_0--edge1-none
_symmetry_space_group_name_H-M    P1
_symmetry_Int_Tables_number       1
_symmetry_cell_setting            triclinic
loop_
_symmetry_equiv_pos_as_xyz
'x, y, z'
_cell_length_a     24.839781
_cell_length_b     24.839779
_cell_length_c     16.431024
_cell_angle_alpha  90.00012
_cell_angle_beta   89.999964
_cell_angle_gamma 90.000269
loop_
_atom_site_label
_atom_site_type_symbol
_atom_site_fract_x
_atom_site_fract_y
_atom_site_fract_z
_atom_type_partial_charge
C0 C 0.30045 0.27031 0.22255 0.0
N1 N 0.39283 0.13628 0.19461 0.0
C2 C 0.41227 0.13804 0.27154 0.0
C3 C 0.433 0.09195 0.3054 0.0
C4 C 0.43371 0.04553 0.25786 0.0
C5 C 0.41013 0.04346 0.18125 0.0
C6 C 0.38871 0.09022 0.15053 0.0
Zn7 Zn 0.38614 0.20361 0.14103 0.0
C8 C 0.29562 0.20438 0.04194 0.0
N9 N 0.38009 0.34592 -0.0 0.0
C10 C 0.43036 0.36687 0.98993 0.0
C11 C 0.3465 0.34238 0.93425 0.0
C12 C 0.367 0.3472 0.85488 0.0
C13 C 0.42207 0.35744 0.8435 0.0
C14 C 0.45276 0.37098 0.91224 0.0
Zn15 Zn 0.38211 0.2782 0.07564 0.0
O16 O 0.33396 0.23311 0.24204 0.0
C17 C 0.49087 0.26872 0.16962 0.0
O18 O 0.31644 0.30376 0.16724 0.0
H19 H 0.3052 0.32978 0.94202 0.0
H20 H 0.41481 0.17584 0.30398 0.0
H21 H 0.45598 0.37421 0.04162 0.0
O22 O 0.46923 0.2233 0.18319 0.0
O23 O 0.46001 0.30509 0.13922 0.0
H24 H 0.37193 0.09046 0.08983 0.0
O25 O 0.43004 0.24732 0.98032 0.0
O26 O 0.42213 0.16815 0.03455 0.0
O27 O 0.31668 0.24683 0.01456 0.0
O28 O 0.31584 0.17929 0.10035 0.0
C29 C 0.43312 0.19675 0.9732 0.0
H30 H 0.45001 0.0928 0.36616 0.0
H31 H 0.4089 1.00659 0.14593 0.0
H32 H 0.34073 0.34015 0.80336 0.0
H33 H 0.49417 0.38354 0.90643 0.0
C34 C 0.52324 0.55047 0.47255 0.0
N35 N 0.65726 0.64284 0.44461 0.0
C36 C 0.65551 0.66229 0.52154 0.0
C37 C 0.7016 0.68302 0.5554 0.0
C38 C 0.74802 0.68373 0.50786 0.0
C39 C 0.75008 0.66015 0.43125 0.0
C40 C 0.70333 0.63872 0.40053 0.0
Zn41 Zn 0.58993 0.63616 0.39103 0.0
C42 C 0.58916 0.54564 0.29194 0.0
N43 N 0.44762 0.63011 0.25 0.0
C44 C 0.42668 0.68037 0.23992 0.0
C45 C 0.45117 0.59652 0.18425 0.0
C46 C 0.44634 0.61701 0.10488 0.0
C47 C 0.43611 0.67208 0.0935 0.0
C48 C 0.42257 0.70277 0.16223 0.0
Zn49 Zn 0.51534 0.63213 0.32564 0.0
O50 O 0.56044 0.58398 0.49205 0.0
C51 C 0.52482 0.74089 0.41962 0.0
O52 O 0.48979 0.56646 0.41724 0.0
H53 H 0.46377 0.55522 0.19203 0.0
H54 H 0.61771 0.66483 0.55398 0.0
H55 H 0.41934 0.70599 0.29161 0.0
O56 O 0.57024 0.71924 0.43319 0.0
O57 O 0.48845 0.71003 0.38923 0.0
H58 H 0.70308 0.62194 0.33983 0.0
O59 O 0.54623 0.68006 0.23032 0.0
O60 O 0.62539 0.67214 0.28455 0.0
O61 O 0.54671 0.5667 0.26456 0.0
O62 O 0.61425 0.56585 0.35036 0.0
C63 C 0.5968 0.68313 0.2232 0.0
H64 H 0.70074 0.70004 0.61616 0.0
H65 H 0.78695 0.65892 0.39593 0.0
H66 H 0.45339 0.59074 0.05336 0.0
H67 H 0.41 0.74418 0.15642 0.0
C68 C 0.24307 0.77326 0.72255 0.0
N69 N 0.1507 0.90729 0.69461 0.0
C70 C 0.13126 0.90553 0.77154 0.0
C71 C 0.11052 0.95162 0.8054 0.0
C72 C 0.10982 0.99804 0.75786 0.0
C73 C 0.13339 1.00011 0.68125 0.0
C74 C 0.15482 0.95335 0.65053 0.0
Zn75 Zn 0.15739 0.83996 0.64103 0.0
C76 C 0.24791 0.83919 0.54194 0.0
N77 N 0.16343 0.69764 0.5 0.0
C78 C 0.11317 0.6767 0.48993 0.0
C79 C 0.19702 0.70119 0.43425 0.0
C80 C 0.17653 0.69637 0.35488 0.0
C81 C 0.12146 0.68613 0.3435 0.0
C82 C 0.09077 0.67259 0.41224 0.0
Zn83 Zn 0.16142 0.76536 0.57564 0.0
O84 O 0.20956 0.81046 0.74204 0.0
C85 C 0.05266 0.77485 0.66962 0.0
O86 O 0.22708 0.73981 0.66724 0.0
H87 H 0.23832 0.71379 0.44202 0.0
H88 H 0.12872 0.86773 0.80398 0.0
H89 H 0.08755 0.66935 0.54162 0.0
O90 O 0.0743 0.82027 0.68319 0.0
O91 O 0.08352 0.73848 0.63922 0.0
H92 H 0.1716 0.9531 0.58983 0.0
O93 O 0.11349 0.79625 0.48032 0.0
O94 O 0.1214 0.87542 0.53455 0.0
O95 O 0.22685 0.79673 0.51456 0.0
O96 O 0.22769 0.86427 0.60035 0.0
C97 C 0.11041 0.84682 0.4732 0.0
H98 H 0.09351 0.95077 0.86616 0.0
H99 H 0.13462 0.03697 0.64593 0.0
H100 H 0.2028 0.70342 0.30336 0.0
H101 H 0.04936 0.66002 0.40643 0.0
C102 C 1.02029 0.4931 0.97255 0.0
N103 N 0.88627 0.40072 0.94461 0.0
C104 C 0.88802 0.38128 0.02154 0.0
C105 C 0.84193 0.36055 0.0554 0.0
C106 C 0.79551 0.35984 0.00786 0.0
C107 C 0.79344 0.38342 0.93125 0.0
C108 C 0.8402 0.40485 0.90053 0.0
Zn109 Zn 0.9536 0.40741 0.89103 0.0
C110 C 0.95436 0.49793 0.79194 0.0
N111 N 0.09591 0.41346 0.75 0.0
C112 C 0.11685 0.36319 0.73992 0.0
C113 C 0.09236 0.44705 0.68425 0.0
C114 C 0.09719 0.42656 0.60488 0.0
C115 C 0.10742 0.37149 0.5935 0.0
C116 C 0.12096 0.3408 0.66223 0.0
Zn117 Zn 0.02819 0.41144 0.82564 0.0
O118 O 0.98309 0.45959 0.99205 0.0
C119 C 1.0187 0.30268 0.91962 0.0
O120 O 0.05374 0.47711 0.91724 0.0
H121 H 0.07976 0.48835 0.69203 0.0
H122 H 0.92582 0.37874 0.05398 0.0
H123 H 0.12419 0.33757 0.79161 0.0
O124 O 0.97328 0.32432 0.93319 0.0
O125 O 0.05508 0.33354 0.88923 0.0
H126 H 0.84045 0.42162 0.83983 0.0
O127 O 0.9973 0.36351 0.73032 0.0
O128 O 0.91813 0.37143 0.78455 0.0
O129 O 0.99682 0.47687 0.76456 0.0
O130 O 0.92928 0.47772 0.85036 0.0
C131 C 0.94673 0.36044 0.7232 0.0
H132 H 0.84278 0.34353 0.11616 0.0
H133 H 0.75658 0.38465 0.89593 0.0
H134 H 0.09014 0.45283 0.55336 0.0
H135 H 0.13353 0.29938 0.65642 0.0
C136 C 0.61041 0.84684 0.01116 0.0
N137 N 0.66336 0.69765 0.98435 0.0
C138 C 0.69696 0.70126 0.05008 0.0
C139 C 0.67649 0.69643 0.12946 0.0
C140 C 0.62144 0.68611 0.14086 0.0
C141 C 0.59076 0.67249 0.07214 0.0
C142 C 0.61314 0.67661 -0.00556 0.0
Zn143 Zn 0.66141 0.76537 0.90874 0.0
C144 C 0.55266 0.77485 0.81477 0.0
N145 N 0.65069 0.90727 0.78973 0.0
C146 C 0.65483 0.95334 0.83381 0.0
C147 C 0.63126 0.90553 0.71279 0.0
C148 C 0.61054 0.95163 0.67893 0.0
C149 C 0.60984 0.99804 0.72648 0.0
C150 C 0.63342 1.0001 0.80309 0.0
Zn151 Zn 0.65738 0.83996 0.84333 0.0
O152 O 0.61348 0.79627 0.00405 0.0
C153 C 0.7479 0.83921 0.94241 0.0
O154 O 0.6214 0.87543 0.94981 0.0
H155 H 0.62871 0.86773 0.68035 0.0
H156 H 0.73826 0.71388 0.04228 0.0
H157 H 0.67161 0.95309 0.8945 0.0
O158 O 0.72684 0.79676 0.96981 0.0
O159 O 0.72769 0.86428 0.88398 0.0
H160 H 0.58752 0.66925 0.94276 0.0
O161 O 0.70956 0.81045 0.74232 0.0
O162 O 0.72708 0.73981 0.81715 0.0
O163 O 0.5743 0.82026 0.80118 0.0
O164 O 0.58352 0.73848 0.84517 0.0
C165 C 0.74307 0.77325 0.76183 0.0
H166 H 0.70276 0.70353 0.18097 0.0
H167 H 0.54936 0.65987 0.07798 0.0
H168 H 0.59353 0.95078 0.61817 0.0
H169 H 0.63466 0.03696 0.83841 0.0
C170 C 0.44672 0.36044 0.76116 0.0
N171 N 0.59591 0.4134 0.73435 0.0
C172 C 0.59229 0.44699 0.80008 0.0
C173 C 0.59712 0.42652 0.87946 0.0
C174 C 0.60744 0.37146 0.89086 0.0
C175 C 0.62106 0.34079 0.82214 0.0
C176 C 0.61695 0.36318 0.74444 0.0
Zn177 Zn 0.52818 0.41144 0.65874 0.0
C178 C 0.5187 0.30268 0.56478 0.0
N179 N 0.38627 0.40071 0.53973 0.0
C180 C 0.34021 0.40485 0.58381 0.0
C181 C 0.38802 0.38128 0.4628 0.0
C182 C 0.34193 0.36056 0.42894 0.0
C183 C 0.29551 0.35986 0.47648 0.0
C184 C 0.29345 0.38343 0.55309 0.0
Zn185 Zn 0.45359 0.40741 0.59334 0.0
O186 O 0.49729 0.36351 0.75406 0.0
C187 C 0.45434 0.49793 0.69241 0.0
O188 O 0.41812 0.37142 0.69981 0.0
H189 H 0.42582 0.37874 0.43036 0.0
H190 H 0.57967 0.48829 0.79229 0.0
H191 H 0.34046 0.42162 0.64451 0.0
O192 O 0.49679 0.47687 0.71981 0.0
O193 O 0.42927 0.47771 0.63399 0.0
H194 H 0.62431 0.33755 0.69276 0.0
O195 O 0.4831 0.45958 0.49233 0.0
O196 O 0.55374 0.4771 0.56715 0.0
O197 O 0.47329 0.32432 0.55119 0.0
O198 O 0.55507 0.33354 0.59518 0.0
C199 C 0.52029 0.49309 0.51184 0.0
H200 H 0.59003 0.45279 0.93097 0.0
H201 H 0.63369 0.2994 0.82797 0.0
H202 H 0.34278 0.34355 0.36817 0.0
H203 H 0.25658 0.38467 0.58842 0.0
C204 C 0.93312 0.19673 0.51116 0.0
N205 N 0.88016 0.34592 0.48435 0.0
C206 C 0.84657 0.34231 0.55008 0.0
C207 C 0.86704 0.34714 0.62946 0.0
C208 C 0.92209 0.35746 0.64086 0.0
C209 C 0.95277 0.37107 0.57214 0.0
C210 C 0.93039 0.36696 0.49444 0.0
Zn211 Zn 0.88212 0.27819 0.40874 0.0
C212 C 0.99087 0.26872 0.31477 0.0
N213 N 0.89283 0.13629 0.28973 0.0
C214 C 0.8887 0.09023 0.33381 0.0
C215 C 0.91227 0.13804 0.21279 0.0
C216 C 0.93299 0.09194 0.17893 0.0
C217 C 0.93369 0.04553 0.22648 0.0
C218 C 0.91011 0.04347 0.30309 0.0
Zn219 Zn 0.88614 0.20361 0.34333 0.0
O220 O 0.93005 0.2473 0.50405 0.0
C221 C 0.79563 0.20436 0.44241 0.0
O222 O 0.92213 0.16814 0.44981 0.0
H223 H 0.91482 0.17584 0.18035 0.0
H224 H 0.80527 0.32969 0.54228 0.0
H225 H 0.87192 0.09048 0.3945 0.0
O226 O 0.81669 0.24681 0.46981 0.0
O227 O 0.81583 0.17929 0.38398 0.0
H228 H 0.95601 0.37431 0.44276 0.0
O229 O 0.83397 0.23312 0.24232 0.0
O230 O 0.81645 0.30376 0.31715 0.0
O231 O 0.96923 0.2233 0.30118 0.0
O232 O 0.96001 0.30509 0.34517 0.0
C233 C 0.80046 0.27032 0.26183 0.0
H234 H 0.84077 0.34004 0.68097 0.0
H235 H 0.99416 0.3837 0.57798 0.0
H236 H 0.95 0.09279 0.11817 0.0
H237 H 0.90887 1.0066 0.33841 0.0
C238 C 0.09681 0.68313 0.26116 0.0
N239 N 0.94762 0.63017 0.23435 0.0
C240 C 0.95124 0.59657 0.30008 0.0
C241 C 0.9464 0.61705 0.37946 0.0
C242 C 0.93609 0.6721 0.39086 0.0
C243 C 0.92247 0.70278 0.32214 0.0
C244 C 0.92658 0.68039 0.24444 0.0
Zn245 Zn 1.01535 0.63213 0.15874 0.0
C246 C 0.02482 0.74089 0.06478 0.0
N247 N 0.15725 0.64286 0.03973 0.0
C248 C 0.20332 0.63872 0.08381 0.0
C249 C 0.1555 0.66229 0.9628 0.0
C250 C 0.2016 0.68301 0.92894 0.0
C251 C 0.24802 0.68371 0.97648 0.0
C252 C 0.25008 0.66014 0.05309 0.0
Zn253 Zn 0.08994 0.63616 0.09334 0.0
O254 O 0.04624 0.68006 0.25406 0.0
C255 C 0.08919 0.54564 0.19241 0.0
O256 O 0.12541 0.67215 0.19981 0.0
H257 H 0.11771 0.66483 0.93036 0.0
H258 H 0.96385 0.55528 0.29229 0.0
H259 H 0.20307 0.62194 0.14451 0.0
O260 O 0.04674 0.5667 0.21981 0.0
O261 O 0.11426 0.56586 0.13399 0.0
H262 H 0.91922 0.70601 0.19276 0.0
O263 O 0.06043 0.58399 -0.00767 0.0
O264 O 0.98979 0.56646 0.06715 0.0
O265 O 0.07024 0.71925 0.05119 0.0
O266 O 0.98846 0.71003 0.09518 0.0
C267 C 0.02324 0.55048 0.01184 0.0
H268 H 0.9535 0.59078 0.43097 0.0
H269 H 0.90984 0.74417 0.32797 0.0
H270 H 0.20075 0.70002 0.86817 0.0
H271 H 0.28694 0.6589 0.08842 0.0
C272 C 0.80045 0.7703 0.72255 0.0
N273 N 0.89282 0.63627 0.69461 0.0
C274 C 0.91226 0.63803 0.77154 0.0
C275 C 0.933 0.59194 0.8054 0.0
C276 C 0.93372 0.54553 0.75785 0.0
C277 C 0.91013 0.54345 0.68125 0.0
C278 C 0.8887 0.59021 0.65053 0.0
Zn279 Zn 0.88613 0.7036 0.64103 0.0
C280 C 0.79561 0.70437 0.54195 0.0
N281 N 0.88008 0.84592 0.5 0.0
C282 C 0.93034 0.86686 0.48993 0.0
C283 C 0.84649 0.84237 0.43425 0.0
C284 C 0.86698 0.84719 0.35488 0.0
C285 C 0.92206 0.85744 0.3435 0.0
C286 C 0.95274 0.87098 0.41224 0.0
Zn287 Zn 0.8821 0.7782 0.57564 0.0
O288 O 0.83395 0.7331 0.74204 0.0
C289 C 0.99086 0.7687 0.66959 0.0
O290 O 0.81644 0.80375 0.66724 0.0
H291 H 0.80519 0.82977 0.44202 0.0
H292 H 0.91479 0.67583 0.80398 0.0
H293 H 0.95596 0.87421 0.54161 0.0
O294 O 0.96922 0.72329 0.6832 0.0
O295 O 0.96001 0.80509 0.63921 0.0
H296 H 0.87192 0.59045 0.58984 0.0
O297 O 0.93002 0.74731 0.48031 0.0
O298 O 0.92212 0.66814 0.53455 0.0
O299 O 0.81667 0.74683 0.51457 0.0
O300 O 0.81583 0.67929 0.60036 0.0
C301 C 0.93309 0.69674 0.4732 0.0
H302 H 0.95001 0.5928 0.86616 0.0
H303 H 0.90891 0.50659 0.64593 0.0
H304 H 0.84071 0.84015 0.30336 0.0
H305 H 0.99416 0.88355 0.40643 0.0
C306 C 0.02324 0.05047 0.97255 0.0
N307 N 0.15728 0.14284 0.94462 0.0
C308 C 0.15552 0.16228 0.02155 0.0
C309 C 0.20161 0.18302 0.0554 0.0
C310 C 0.24802 0.18374 0.00785 0.0
C311 C 0.25009 0.16015 0.93125 0.0
C312 C 0.20334 0.13872 0.90054 0.0
Zn313 Zn 0.08994 0.13615 0.89103 0.0
C314 C 0.08917 0.04564 0.79195 0.0
N315 N 0.94763 0.13011 0.74999 0.0
C316 C 0.92669 0.18038 0.73992 0.0
C317 C 0.95118 0.09652 0.68425 0.0
C318 C 0.94636 0.11701 0.60488 0.0
C319 C 0.93611 0.17208 0.5935 0.0
C320 C 0.92258 0.20278 0.66223 0.0
Zn321 Zn 1.01535 0.13213 0.82564 0.0
O322 O 0.06044 0.08398 0.99205 0.0
C323 C 0.02485 0.24089 0.91959 0.0
O324 O 0.98979 0.06646 0.91724 0.0
H325 H 0.96378 0.05522 0.69202 0.0
H326 H 0.11772 0.16482 0.05399 0.0
H327 H 0.91935 0.206 0.79161 0.0
O328 O 0.07026 0.21924 0.9332 0.0
O329 O 0.98846 0.21003 0.88922 0.0
H330 H 0.20309 0.12193 0.83984 0.0
O331 O 0.04624 0.18005 0.73032 0.0
O332 O 0.12541 0.17214 0.78456 0.0
O333 O 0.04672 0.0667 0.76457 0.0
O334 O 0.11426 0.06585 0.85037 0.0
C335 C 0.09681 0.18313 0.72321 0.0
H336 H 0.20076 0.20004 0.11616 0.0
H337 H 0.28696 0.15892 0.89593 0.0
H338 H 0.95341 0.09074 0.55336 0.0
H339 H 0.91001 0.24419 0.65642 0.0
C340 C 0.74308 0.27327 0.22255 0.0
N341 N 0.65071 0.4073 0.19461 0.0
C342 C 0.63127 0.40554 0.27154 0.0
C343 C 0.61053 0.45163 0.3054 0.0
C344 C 0.60981 0.49804 0.25785 0.0
C345 C 0.63339 0.50011 0.18125 0.0
C346 C 0.65483 0.45336 0.15053 0.0
Zn347 Zn 0.6574 0.33997 0.14103 0.0
C348 C 0.74791 0.3392 0.04195 0.0
N349 N 0.66345 0.19765 -1e-05 0.0
C350 C 0.61318 0.1767 0.98993 0.0
C351 C 0.69704 0.2012 0.93425 0.0
C352 C 0.67654 0.19637 0.85488 0.0
C353 C 0.62147 0.18613 0.8435 0.0
C354 C 0.59078 0.17259 0.91224 0.0
Zn355 Zn 0.66142 0.26537 0.07564 0.0
O356 O 0.70957 0.31047 0.24204 0.0
C357 C 0.55267 0.27487 0.16959 0.0
O358 O 0.72709 0.23982 0.16724 0.0
H359 H 0.73834 0.2138 0.94202 0.0
H360 H 0.62874 0.36774 0.30398 0.0
H361 H 0.58757 0.16936 0.04161 0.0
O362 O 0.57431 0.32028 0.1832 0.0
O363 O 0.58352 0.23848 0.13921 0.0
H364 H 0.67161 0.45312 0.08984 0.0
O365 O 0.61351 0.29626 0.98031 0.0
O366 O 0.62141 0.37543 0.03455 0.0
O367 O 0.72686 0.29674 0.01457 0.0
O368 O 0.7277 0.36428 0.10036 0.0
C369 C 0.61043 0.34683 0.9732 0.0
H370 H 0.59351 0.45077 0.36616 0.0
H371 H 0.63462 0.53698 0.14593 0.0
H372 H 0.70281 0.20342 0.80335 0.0
H373 H 0.54937 0.16002 0.90643 0.0
C374 C 0.52029 0.9931 0.47255 0.0
N375 N 0.38625 0.90073 0.44462 0.0
C376 C 0.38801 0.88129 0.52155 0.0
C377 C 0.34192 0.86055 0.5554 0.0
C378 C 0.2955 0.85983 0.50785 0.0
C379 C 0.29343 0.88342 0.43125 0.0
C380 C 0.34019 0.90485 0.40054 0.0
Zn381 Zn 0.45358 0.90741 0.39103 0.0
C382 C 0.45435 0.99793 0.29195 0.0
N383 N 0.59589 0.91345 0.25 0.0
C384 C 0.61684 0.86319 0.23992 0.0
C385 C 0.59235 0.94705 0.18425 0.0
C386 C 0.59717 0.92656 0.10488 0.0
C387 C 0.60742 0.87149 0.0935 0.0
C388 C 0.62095 0.84079 0.16223 0.0
Zn389 Zn 0.52818 0.91144 0.32564 0.0
O390 O 0.48309 0.95959 0.49205 0.0
C391 C 0.51868 0.80268 0.41959 0.0
O392 O 0.55373 0.97711 0.41724 0.0
H393 H 0.57975 0.98835 0.19203 0.0
H394 H 0.42581 0.87875 0.55399 0.0
H395 H 0.62418 0.83757 0.29161 0.0
O396 O 0.47327 0.82433 0.4332 0.0
O397 O 0.55506 0.83354 0.38922 0.0
H398 H 0.34044 0.92163 0.33984 0.0
O399 O 0.49729 0.86352 0.23032 0.0
O400 O 0.41812 0.87143 0.28456 0.0
O401 O 0.49681 0.97687 0.26457 0.0
O402 O 0.42927 0.97772 0.35037 0.0
C403 C 0.44671 0.86044 0.22321 0.0
H404 H 0.34277 0.84353 0.61616 0.0
H405 H 0.25657 0.88465 0.39593 0.0
H406 H 0.59012 0.95283 0.05336 0.0
H407 H 0.63351 0.79938 0.15642 0.0
C408 C 0.11043 0.34684 0.51116 0.0
N409 N 0.16338 0.19765 0.48436 0.0
C410 C 0.19697 0.20127 0.55008 0.0
C411 C 0.17651 0.19643 0.62946 0.0
C412 C 0.12145 0.18611 0.64086 0.0
C413 C 0.09077 0.17249 0.57215 0.0
C414 C 0.11315 0.17661 0.49445 0.0
Zn415 Zn 0.16142 0.26538 0.40874 0.0
C416 C 0.05267 0.27487 0.3148 0.0
N417 N 0.15071 0.40728 0.28972 0.0
C418 C 0.15484 0.45335 0.3338 0.0
C419 C 0.13127 0.40553 0.21279 0.0
C420 C 0.11054 0.45163 0.17894 0.0
C421 C 0.10983 0.49804 0.22649 0.0
C422 C 0.13342 0.50011 0.30309 0.0
Zn423 Zn 0.15739 0.33996 0.34333 0.0
O424 O 0.11349 0.29627 0.50405 0.0
C425 C 0.24791 0.33921 0.4424 0.0
O426 O 0.12141 0.37544 0.44981 0.0
H427 H 0.12873 0.36774 0.18034 0.0
H428 H 0.23827 0.21389 0.54229 0.0
H429 H 0.17162 0.4531 0.3945 0.0
O430 O 0.22685 0.29677 0.4698 0.0
O431 O 0.2277 0.36429 0.38398 0.0
H432 H 0.08753 0.16926 0.44276 0.0
O433 O 0.20957 0.31045 0.24232 0.0
O434 O 0.22708 0.23981 0.31714 0.0
O435 O 0.07431 0.32028 0.30118 0.0
O436 O 0.08352 0.23848 0.34518 0.0
C437 C 0.24307 0.27326 0.26183 0.0
H438 H 0.20277 0.20353 0.68097 0.0
H439 H 0.04938 0.15987 0.57798 0.0
H440 H 0.09353 0.45078 0.11817 0.0
H441 H 0.13466 0.53697 0.33842 0.0
C442 C 0.9467 0.86044 0.26116 0.0
N443 N 0.0959 0.91339 0.23436 0.0
C444 C 0.09228 0.94699 0.30008 0.0
C445 C 0.09711 0.92652 0.37946 0.0
C446 C 0.10743 0.87146 0.39086 0.0
C447 C 0.12105 0.84079 0.32214 0.0
C448 C 0.11693 0.86317 0.24444 0.0
Zn449 Zn 0.02817 0.91144 0.15874 0.0
C450 C 1.01868 0.80268 0.0648 0.0
N451 N 0.88626 0.90072 0.03973 0.0
C452 C 0.8402 0.90485 0.08381 0.0
C453 C 0.88801 0.88129 0.96279 0.0
C454 C 0.84191 0.86056 0.92893 0.0
C455 C 0.7955 0.85985 0.97649 0.0
C456 C 0.79344 0.88343 0.05309 0.0
Zn457 Zn 0.95358 0.90741 0.09333 0.0
O458 O 0.99727 0.86351 0.25406 0.0
C459 C 0.95433 0.99793 0.1924 0.0
O460 O 0.91811 0.87142 0.19981 0.0
H461 H 0.92581 0.87875 0.93035 0.0
H462 H 0.07966 0.98828 0.29229 0.0
H463 H 0.84045 0.92163 0.1445 0.0
O464 O 0.99678 0.97687 0.2198 0.0
O465 O 0.92926 0.97771 0.13399 0.0
H466 H 0.1243 0.83755 0.19276 0.0
O467 O 0.98309 0.95958 -0.00767 0.0
O468 O 0.05374 0.9771 0.06714 0.0
O469 O 0.97327 0.82433 0.05118 0.0
O470 O 0.05506 0.83353 0.09518 0.0
C471 C 1.02029 0.99309 0.01183 0.0
H472 H 0.09001 0.95278 0.43098 0.0
H473 H 0.13368 0.79939 0.32797 0.0
H474 H 0.84276 0.84355 0.86817 0.0
H475 H 0.75657 0.88467 0.08842 0.0
C476 C 0.4331 0.69672 0.01116 0.0
N477 N 0.38015 0.84592 0.98436 0.0
C478 C 0.34655 0.8423 0.05008 0.0
C479 C 0.36702 0.84714 0.12946 0.0
C480 C 0.42208 0.85746 0.14086 0.0
C481 C 0.45276 0.87108 0.07215 0.0
C482 C 0.43037 0.86696 -0.00555 0.0
Zn483 Zn 0.38211 0.77819 0.90874 0.0
C484 C 0.49086 0.7687 0.8148 0.0
N485 N 0.39282 0.63628 0.78972 0.0
C486 C 0.38869 0.59022 0.8338 0.0
C487 C 0.41226 0.63803 0.71279 0.0
C488 C 0.43299 0.59194 0.67894 0.0
C489 C 0.4337 0.54553 0.72649 0.0
C490 C 0.41011 0.54346 0.80309 0.0
Zn491 Zn 0.38613 0.7036 0.84333 0.0
O492 O 0.43003 0.7473 0.00405 0.0
C493 C 0.29562 0.70436 0.9424 0.0
O494 O 0.42212 0.66813 0.94981 0.0
H495 H 0.4148 0.67583 0.68034 0.0
H496 H 0.30526 0.82968 0.04229 0.0
H497 H 0.3719 0.59047 0.8945 0.0
O498 O 0.31668 0.7468 0.9698 0.0
O499 O 0.31583 0.67928 0.88398 0.0
H500 H 0.456 0.87431 0.94276 0.0
O501 O 0.33396 0.73312 0.74232 0.0
O502 O 0.31644 0.80376 0.81714 0.0
O503 O 0.46922 0.72329 0.80118 0.0
O504 O 0.46001 0.80508 0.84518 0.0
C505 C 0.30045 0.77031 0.76183 0.0
H506 H 0.34076 0.84004 0.18097 0.0
H507 H 0.49415 0.8837 0.07798 0.0
H508 H 0.45 0.59279 0.61817 0.0
H509 H 0.40887 0.5066 0.83842 0.0
C510 C 0.59683 0.18313 0.76116 0.0
N511 N 0.44763 0.13018 0.73435 0.0
C512 C 0.45125 0.09658 0.80008 0.0
C513 C 0.44642 0.11705 0.87946 0.0
C514 C 0.43609 0.17211 0.89086 0.0
C515 C 0.42248 0.20278 0.82214 0.0
C516 C 0.42659 0.1804 0.74444 0.0
Zn517 Zn 0.51536 0.13213 0.65874 0.0
C518 C 0.52485 0.24089 0.5648 0.0
N519 N 0.65727 0.14285 0.53972 0.0
C520 C 0.70333 0.13871 0.58381 0.0
C521 C 0.65552 0.16228 0.46279 0.0
C522 C 0.70161 0.18301 0.42893 0.0
C523 C 0.74803 0.18372 0.47649 0.0
C524 C 0.75009 0.16014 0.55309 0.0
Zn525 Zn 0.58995 0.13616 0.59333 0.0
O526 O 0.54625 0.18005 0.75406 0.0
C527 C 0.58919 0.04564 0.6924 0.0
O528 O 0.62542 0.17214 0.69981 0.0
H529 H 0.61772 0.16482 0.43035 0.0
H530 H 0.46387 0.05529 0.79229 0.0
H531 H 0.70308 0.12194 0.6445 0.0
O532 O 0.54675 0.0667 0.7198 0.0
O533 O 0.61427 0.06585 0.63399 0.0
H534 H 0.41923 0.20602 0.69276 0.0
O535 O 0.56044 0.08398 0.49233 0.0
O536 O 0.48979 0.06647 0.56714 0.0
O537 O 0.57026 0.21924 0.55118 0.0
O538 O 0.48847 0.21003 0.59518 0.0
C539 C 0.52324 0.05048 0.51183 0.0
H540 H 0.45352 0.09079 0.93098 0.0
H541 H 0.40985 0.24417 0.82797 0.0
H542 H 0.70076 0.20002 0.36817 0.0
H543 H 0.78695 0.1589 0.58842 0.0
loop_
_geom_bond_atom_site_label_1
_geom_bond_atom_site_label_2
_geom_bond_distance
_geom_bond_site_symmetry_2
_ccdc_geom_bond_type
C0 O16 1.251 . S
C0 O18 1.254 . S
N1 C2 1.333 . S
N1 C6 1.307 . S
N1 Zn7 2.020 . S
C2 N1 1.333 . S
C2 C3 1.379 . S
C2 H20 0.952 . S
C3 C2 1.379 . S
C3 C4 1.390 . S
C3 H30 0.949 . S
C4 C3 1.390 . S
C4 C5 1.357 . S
C5 C4 1.357 . S
C5 C6 1.370 . S
C5 H31 0.950 1_545 S
C6 N1 1.307 . S
C6 C5 1.370 . S
C6 H24 0.948 . S
Zn7 N1 2.020 . S
Zn7 O16 2.039 . S
Zn7 O22 2.034 . S
Zn7 O26 2.025 . S
Zn7 O28 2.024 . S
C8 O27 1.246 . S
C8 O28 1.249 . S
N9 C10 1.307 1_556 S
N9 C11 1.333 . S
N9 Zn15 2.020 1_556 S
C10 N9 1.307 1_554 S
C10 C14 1.370 1_554 S
C10 H21 0.948 . S
C11 N9 1.333 . S
C11 C12 1.379 . S
C11 H19 0.952 . S
C12 C11 1.379 . S
C12 C13 1.390 . S
C12 H32 0.949 . S
C13 C12 1.390 . S
C13 C14 1.357 . S
C14 C10 1.370 1_556 S
C14 C13 1.357 . S
C14 H33 0.950 . S
Zn15 N9 2.020 1_554 S
Zn15 O18 2.025 . S
Zn15 O23 2.024 . S
Zn15 O25 2.039 1_554 S
Zn15 O27 2.034 . S
O16 C0 1.251 . S
O16 Zn7 2.039 . S
C17 O22 1.246 . S
C17 O23 1.249 . S
O18 C0 1.254 . S
O18 Zn15 2.025 . S
H19 C11 0.952 . S
H20 C2 0.952 . S
H21 C10 0.948 . S
O22 Zn7 2.034 . S
O22 C17 1.246 . S
O23 Zn15 2.024 . S
O23 C17 1.249 . S
H24 C6 0.948 . S
O25 Zn15 2.039 1_556 S
O25 C29 1.251 . S
O26 Zn7 2.025 . S
O26 C29 1.255 1_554 S
O27 C8 1.246 . S
O27 Zn15 2.034 . S
O28 Zn7 2.024 . S
O28 C8 1.249 . S
C29 O25 1.251 . S
C29 O26 1.255 1_556 S
H30 C3 0.949 . S
H31 C5 0.950 1_565 S
H32 C12 0.949 . S
H33 C14 0.950 . S
C34 O50 1.251 . S
C34 O52 1.254 . S
N35 C36 1.333 . S
N35 C40 1.307 . S
N35 Zn41 2.020 . S
C36 N35 1.333 . S
C36 C37 1.379 . S
C36 H54 0.952 . S
C37 C36 1.379 . S
C37 C38 1.390 . S
C37 H64 0.949 . S
C38 C37 1.390 . S
C38 C39 1.357 . S
C39 C38 1.357 . S
C39 C40 1.370 . S
C39 H65 0.950 . S
C40 N35 1.307 . S
C40 C39 1.370 . S
C40 H58 0.948 . S
Zn41 N35 2.020 . S
Zn41 O50 2.039 . S
Zn41 O56 2.034 . S
Zn41 O60 2.025 . S
Zn41 O62 2.024 . S
C42 O61 1.246 . S
C42 O62 1.249 . S
N43 C44 1.307 . S
N43 C45 1.333 . S
N43 Zn49 2.020 . S
C44 N43 1.307 . S
C44 C48 1.370 . S
C44 H55 0.948 . S
C45 N43 1.333 . S
C45 C46 1.379 . S
C45 H53 0.952 . S
C46 C45 1.379 . S
C46 C47 1.390 . S
C46 H66 0.949 . S
C47 C46 1.390 . S
C47 C48 1.357 . S
C48 C44 1.370 . S
C48 C47 1.357 . S
C48 H67 0.950 . S
Zn49 N43 2.020 . S
Zn49 O52 2.025 . S
Zn49 O57 2.024 . S
Zn49 O59 2.039 . S
Zn49 O61 2.034 . S
O50 C34 1.251 . S
O50 Zn41 2.039 . S
C51 O56 1.246 . S
C51 O57 1.249 . S
O52 C34 1.254 . S
O52 Zn49 2.025 . S
H53 C45 0.952 . S
H54 C36 0.952 . S
H55 C44 0.948 . S
O56 Zn41 2.034 . S
O56 C51 1.246 . S
O57 Zn49 2.024 . S
O57 C51 1.249 . S
H58 C40 0.948 . S
O59 Zn49 2.039 . S
O59 C63 1.251 . S
O60 Zn41 2.025 . S
O60 C63 1.254 . S
O61 C42 1.246 . S
O61 Zn49 2.034 . S
O62 Zn41 2.024 . S
O62 C42 1.249 . S
C63 O59 1.251 . S
C63 O60 1.254 . S
H64 C37 0.949 . S
H65 C39 0.950 . S
H66 C46 0.949 . S
H67 C48 0.950 . S
C68 O84 1.251 . S
C68 O86 1.254 . S
N69 C70 1.333 . S
N69 C74 1.307 . S
N69 Zn75 2.020 . S
C70 N69 1.333 . S
C70 C71 1.379 . S
C70 H88 0.952 . S
C71 C70 1.379 . S
C71 C72 1.390 . S
C71 H98 0.949 . S
C72 C71 1.390 . S
C72 C73 1.357 . S
C73 C72 1.357 . S
C73 C74 1.370 . S
C73 H99 0.950 1_565 S
C74 N69 1.307 . S
C74 C73 1.370 . S
C74 H92 0.948 . S
Zn75 N69 2.020 . S
Zn75 O84 2.039 . S
Zn75 O90 2.034 . S
Zn75 O94 2.025 . S
Zn75 O96 2.024 . S
C76 O95 1.246 . S
C76 O96 1.249 . S
N77 C78 1.307 . S
N77 C79 1.333 . S
N77 Zn83 2.020 . S
C78 N77 1.307 . S
C78 C82 1.370 . S
C78 H89 0.948 . S
C79 N77 1.333 . S
C79 C80 1.379 . S
C79 H87 0.952 . S
C80 C79 1.379 . S
C80 C81 1.390 . S
C80 H100 0.949 . S
C81 C80 1.390 . S
C81 C82 1.357 . S
C82 C78 1.370 . S
C82 C81 1.357 . S
C82 H101 0.950 . S
Zn83 N77 2.020 . S
Zn83 O86 2.025 . S
Zn83 O91 2.024 . S
Zn83 O93 2.039 . S
Zn83 O95 2.034 . S
O84 C68 1.251 . S
O84 Zn75 2.039 . S
C85 O90 1.246 . S
C85 O91 1.249 . S
O86 C68 1.254 . S
O86 Zn83 2.025 . S
H87 C79 0.952 . S
H88 C70 0.952 . S
H89 C78 0.948 . S
O90 Zn75 2.034 . S
O90 C85 1.246 . S
O91 Zn83 2.024 . S
O91 C85 1.249 . S
H92 C74 0.948 . S
O93 Zn83 2.039 . S
O93 C97 1.251 . S
O94 Zn75 2.025 . S
O94 C97 1.254 . S
O95 C76 1.246 . S
O95 Zn83 2.034 . S
O96 Zn75 2.024 . S
O96 C76 1.249 . S
C97 O93 1.251 . S
C97 O94 1.254 . S
H98 C71 0.949 . S
H99 C73 0.950 1_545 S
H100 C80 0.949 . S
H101 C82 0.950 . S
C102 O118 1.251 . S
C102 O120 1.254 1_655 S
N103 C104 1.333 1_556 S
N103 C108 1.307 . S
N103 Zn109 2.020 . S
C104 N103 1.333 1_554 S
C104 C105 1.379 . S
C104 H122 0.952 . S
C105 C104 1.379 . S
C105 C106 1.390 . S
C105 H132 0.949 . S
C106 C105 1.390 . S
C106 C107 1.357 . S
C107 C106 1.357 . S
C107 C108 1.370 1_554 S
C107 H133 0.950 1_554 S
C108 N103 1.307 . S
C108 C107 1.370 1_556 S
C108 H126 0.948 . S
Zn109 N103 2.020 . S
Zn109 O118 2.039 . S
Zn109 O124 2.034 . S
Zn109 O128 2.025 . S
Zn109 O130 2.024 . S
C110 O129 1.246 . S
C110 O130 1.249 . S
N111 C112 1.307 . S
N111 C113 1.333 . S
N111 Zn117 2.020 1_455 S
C112 N111 1.307 . S
C112 C116 1.370 . S
C112 H123 0.948 . S
C113 N111 1.333 . S
C113 C114 1.379 . S
C113 H121 0.952 . S
C114 C113 1.379 . S
C114 C115 1.390 . S
C114 H134 0.949 . S
C115 C114 1.390 . S
C115 C116 1.357 . S
C116 C112 1.370 . S
C116 C115 1.357 . S
C116 H135 0.950 . S
Zn117 N111 2.020 1_655 S
Zn117 O120 2.025 1_655 S
Zn117 O125 2.024 1_655 S
Zn117 O127 2.039 . S
Zn117 O129 2.034 . S
O118 C102 1.251 . S
O118 Zn109 2.039 . S
C119 O124 1.246 . S
C119 O125 1.249 1_655 S
O120 C102 1.254 1_455 S
O120 Zn117 2.025 1_455 S
H121 C113 0.952 . S
H122 C104 0.952 . S
H123 C112 0.948 . S
O124 Zn109 2.034 . S
O124 C119 1.246 . S
O125 Zn117 2.024 1_455 S
O125 C119 1.249 1_455 S
H126 C108 0.948 . S
O127 Zn117 2.039 . S
O127 C131 1.251 . S
O128 Zn109 2.025 . S
O128 C131 1.254 . S
O129 C110 1.246 . S
O129 Zn117 2.034 . S
O130 Zn109 2.024 . S
O130 C110 1.249 . S
C131 O127 1.251 . S
C131 O128 1.254 . S
H132 C105 0.949 . S
H133 C107 0.950 1_556 S
H134 C114 0.949 . S
H135 C116 0.950 . S
C136 O152 1.251 . S
C136 O154 1.255 1_554 S
N137 C138 1.333 . S
N137 C142 1.307 1_554 S
N137 Zn143 2.020 1_554 S
C138 N137 1.333 . S
C138 C139 1.379 . S
C138 H156 0.952 . S
C139 C138 1.379 . S
C139 C140 1.390 . S
C139 H166 0.949 . S
C140 C139 1.390 . S
C140 C141 1.357 . S
C141 C140 1.357 . S
C141 C142 1.370 1_554 S
C141 H167 0.950 . S
C142 N137 1.307 1_556 S
C142 C141 1.370 1_556 S
C142 H160 0.948 . S
Zn143 N137 2.020 1_556 S
Zn143 O152 2.039 1_556 S
Zn143 O158 2.034 . S
Zn143 O162 2.025 . S
Zn143 O164 2.024 . S
C144 O163 1.246 . S
C144 O164 1.249 . S
N145 C146 1.307 . S
N145 C147 1.333 . S
N145 Zn151 2.020 . S
C146 N145 1.307 . S
C146 C150 1.370 . S
C146 H157 0.948 . S
C147 N145 1.333 . S
C147 C148 1.379 . S
C147 H155 0.952 . S
C148 C147 1.379 . S
C148 C149 1.390 . S
C148 H168 0.949 . S
C149 C148 1.390 . S
C149 C150 1.357 . S
C150 C146 1.370 . S
C150 C149 1.357 . S
C150 H169 0.950 1_565 S
Zn151 N145 2.020 . S
Zn151 O154 2.025 . S
Zn151 O159 2.024 . S
Zn151 O161 2.039 . S
Zn151 O163 2.034 . S
O152 C136 1.251 . S
O152 Zn143 2.039 1_554 S
C153 O158 1.246 . S
C153 O159 1.249 . S
O154 C136 1.255 1_556 S
O154 Zn151 2.025 . S
H155 C147 0.952 . S
H156 C138 0.952 . S
H157 C146 0.948 . S
O158 Zn143 2.034 . S
O158 C153 1.246 . S
O159 Zn151 2.024 . S
O159 C153 1.249 . S
H160 C142 0.948 . S
O161 Zn151 2.039 . S
O161 C165 1.251 . S
O162 Zn143 2.025 . S
O162 C165 1.254 . S
O163 C144 1.246 . S
O163 Zn151 2.034 . S
O164 Zn143 2.024 . S
O164 C144 1.249 . S
C165 O161 1.251 . S
C165 O162 1.254 . S
H166 C139 0.949 . S
H167 C141 0.950 . S
H168 C148 0.949 . S
H169 C150 0.950 1_545 S
C170 O186 1.251 . S
C170 O188 1.254 . S
N171 C172 1.333 . S
N171 C176 1.307 . S
N171 Zn177 2.020 . S
C172 N171 1.333 . S
C172 C173 1.379 . S
C172 H190 0.952 . S
C173 C172 1.379 . S
C173 C174 1.390 . S
C173 H200 0.949 . S
C174 C173 1.390 . S
C174 C175 1.357 . S
C175 C174 1.357 . S
C175 C176 1.370 . S
C175 H201 0.950 . S
C176 N171 1.307 . S
C176 C175 1.370 . S
C176 H194 0.948 . S
Zn177 N171 2.020 . S
Zn177 O186 2.039 . S
Zn177 O192 2.034 . S
Zn177 O196 2.025 . S
Zn177 O198 2.024 . S
C178 O197 1.246 . S
C178 O198 1.249 . S
N179 C180 1.307 . S
N179 C181 1.333 . S
N179 Zn185 2.020 . S
C180 N179 1.307 . S
C180 C184 1.370 . S
C180 H191 0.948 . S
C181 N179 1.333 . S
C181 C182 1.379 . S
C181 H189 0.952 . S
C182 C181 1.379 . S
C182 C183 1.390 . S
C182 H202 0.949 . S
C183 C182 1.390 . S
C183 C184 1.357 . S
C184 C180 1.370 . S
C184 C183 1.357 . S
C184 H203 0.950 . S
Zn185 N179 2.020 . S
Zn185 O188 2.025 . S
Zn185 O193 2.024 . S
Zn185 O195 2.039 . S
Zn185 O197 2.034 . S
O186 C170 1.251 . S
O186 Zn177 2.039 . S
C187 O192 1.246 . S
C187 O193 1.249 . S
O188 C170 1.254 . S
O188 Zn185 2.025 . S
H189 C181 0.952 . S
H190 C172 0.952 . S
H191 C180 0.948 . S
O192 Zn177 2.034 . S
O192 C187 1.246 . S
O193 Zn185 2.024 . S
O193 C187 1.249 . S
H194 C176 0.948 . S
O195 Zn185 2.039 . S
O195 C199 1.251 . S
O196 Zn177 2.025 . S
O196 C199 1.254 . S
O197 C178 1.246 . S
O197 Zn185 2.034 . S
O198 Zn177 2.024 . S
O198 C178 1.249 . S
C199 O195 1.251 . S
C199 O196 1.254 . S
H200 C173 0.949 . S
H201 C175 0.950 . S
H202 C182 0.949 . S
H203 C184 0.950 . S
C204 O220 1.251 . S
C204 O222 1.254 . S
N205 C206 1.333 . S
N205 C210 1.307 . S
N205 Zn211 2.020 . S
C206 N205 1.333 . S
C206 C207 1.379 . S
C206 H224 0.952 . S
C207 C206 1.379 . S
C207 C208 1.390 . S
C207 H234 0.949 . S
C208 C207 1.390 . S
C208 C209 1.357 . S
C209 C208 1.357 . S
C209 C210 1.370 . S
C209 H235 0.950 . S
C210 N205 1.307 . S
C210 C209 1.370 . S
C210 H228 0.948 . S
Zn211 N205 2.020 . S
Zn211 O220 2.039 . S
Zn211 O226 2.034 . S
Zn211 O230 2.025 . S
Zn211 O232 2.024 . S
C212 O231 1.246 . S
C212 O232 1.249 . S
N213 C214 1.307 . S
N213 C215 1.333 . S
N213 Zn219 2.020 . S
C214 N213 1.307 . S
C214 C218 1.370 . S
C214 H225 0.948 . S
C215 N213 1.333 . S
C215 C216 1.379 . S
C215 H223 0.952 . S
C216 C215 1.379 . S
C216 C217 1.390 . S
C216 H236 0.949 . S
C217 C216 1.390 . S
C217 C218 1.357 . S
C218 C214 1.370 . S
C218 C217 1.357 . S
C218 H237 0.950 1_545 S
Zn219 N213 2.020 . S
Zn219 O222 2.025 . S
Zn219 O227 2.024 . S
Zn219 O229 2.039 . S
Zn219 O231 2.034 . S
O220 C204 1.251 . S
O220 Zn211 2.039 . S
C221 O226 1.246 . S
C221 O227 1.249 . S
O222 C204 1.254 . S
O222 Zn219 2.025 . S
H223 C215 0.952 . S
H224 C206 0.952 . S
H225 C214 0.948 . S
O226 Zn211 2.034 . S
O226 C221 1.246 . S
O227 Zn219 2.024 . S
O227 C221 1.249 . S
H228 C210 0.948 . S
O229 Zn219 2.039 . S
O229 C233 1.251 . S
O230 Zn211 2.025 . S
O230 C233 1.254 . S
O231 C212 1.246 . S
O231 Zn219 2.034 . S
O232 Zn211 2.024 . S
O232 C212 1.249 . S
C233 O229 1.251 . S
C233 O230 1.254 . S
H234 C207 0.949 . S
H235 C209 0.950 . S
H236 C216 0.949 . S
H237 C218 0.950 1_565 S
C238 O254 1.251 . S
C238 O256 1.254 . S
N239 C240 1.333 . S
N239 C244 1.307 . S
N239 Zn245 2.020 1_655 S
C240 N239 1.333 . S
C240 C241 1.379 . S
C240 H258 0.952 . S
C241 C240 1.379 . S
C241 C242 1.390 . S
C241 H268 0.949 . S
C242 C241 1.390 . S
C242 C243 1.357 . S
C243 C242 1.357 . S
C243 C244 1.370 . S
C243 H269 0.950 . S
C244 N239 1.307 . S
C244 C243 1.370 . S
C244 H262 0.948 . S
Zn245 N239 2.020 1_455 S
Zn245 O254 2.039 . S
Zn245 O260 2.034 . S
Zn245 O264 2.025 1_455 S
Zn245 O266 2.024 1_455 S
C246 O265 1.246 . S
C246 O266 1.249 1_455 S
N247 C248 1.307 . S
N247 C249 1.333 1_554 S
N247 Zn253 2.020 . S
C248 N247 1.307 . S
C248 C252 1.370 1_554 S
C248 H259 0.948 . S
C249 N247 1.333 1_556 S
C249 C250 1.379 . S
C249 H257 0.952 . S
C250 C249 1.379 . S
C250 C251 1.390 . S
C250 H270 0.949 . S
C251 C250 1.390 . S
C251 C252 1.357 . S
C252 C248 1.370 1_556 S
C252 C251 1.357 . S
C252 H271 0.950 1_556 S
Zn253 N247 2.020 . S
Zn253 O256 2.025 . S
Zn253 O261 2.024 . S
Zn253 O263 2.039 . S
Zn253 O265 2.034 . S
O254 C238 1.251 . S
O254 Zn245 2.039 . S
C255 O260 1.246 . S
C255 O261 1.249 . S
O256 C238 1.254 . S
O256 Zn253 2.025 . S
H257 C249 0.952 . S
H258 C240 0.952 . S
H259 C248 0.948 . S
O260 Zn245 2.034 . S
O260 C255 1.246 . S
O261 Zn253 2.024 . S
O261 C255 1.249 . S
H262 C244 0.948 . S
O263 Zn253 2.039 . S
O263 C267 1.251 . S
O264 Zn245 2.025 1_655 S
O264 C267 1.254 1_655 S
O265 C246 1.246 . S
O265 Zn253 2.034 . S
O266 Zn245 2.024 1_655 S
O266 C246 1.249 1_655 S
C267 O263 1.251 . S
C267 O264 1.254 1_455 S
H268 C241 0.949 . S
H269 C243 0.950 . S
H270 C250 0.949 . S
H271 C252 0.950 1_554 S
C272 O288 1.251 . S
C272 O290 1.254 . S
N273 C274 1.333 . S
N273 C278 1.307 . S
N273 Zn279 2.020 . S
C274 N273 1.333 . S
C274 C275 1.379 . S
C274 H292 0.952 . S
C275 C274 1.379 . S
C275 C276 1.390 . S
C275 H302 0.949 . S
C276 C275 1.390 . S
C276 C277 1.357 . S
C277 C276 1.357 . S
C277 C278 1.370 . S
C277 H303 0.950 . S
C278 N273 1.307 . S
C278 C277 1.370 . S
C278 H296 0.948 . S
Zn279 N273 2.020 . S
Zn279 O288 2.039 . S
Zn279 O294 2.034 . S
Zn279 O298 2.025 . S
Zn279 O300 2.024 . S
C280 O299 1.246 . S
C280 O300 1.249 . S
N281 C282 1.307 . S
N281 C283 1.333 . S
N281 Zn287 2.020 . S
C282 N281 1.307 . S
C282 C286 1.370 . S
C282 H293 0.948 . S
C283 N281 1.333 . S
C283 C284 1.379 . S
C283 H291 0.952 . S
C284 C283 1.379 . S
C284 C285 1.390 . S
C284 H304 0.949 . S
C285 C284 1.390 . S
C285 C286 1.357 . S
C286 C282 1.370 . S
C286 C285 1.357 . S
C286 H305 0.950 . S
Zn287 N281 2.020 . S
Zn287 O290 2.025 . S
Zn287 O295 2.024 . S
Zn287 O297 2.039 . S
Zn287 O299 2.034 . S
O288 C272 1.251 . S
O288 Zn279 2.039 . S
C289 O294 1.246 . S
C289 O295 1.249 . S
O290 C272 1.254 . S
O290 Zn287 2.025 . S
H291 C283 0.952 . S
H292 C274 0.952 . S
H293 C282 0.948 . S
O294 Zn279 2.034 . S
O294 C289 1.246 . S
O295 Zn287 2.024 . S
O295 C289 1.249 . S
H296 C278 0.948 . S
O297 Zn287 2.039 . S
O297 C301 1.251 . S
O298 Zn279 2.025 . S
O298 C301 1.254 . S
O299 C280 1.246 . S
O299 Zn287 2.034 . S
O300 Zn279 2.024 . S
O300 C280 1.249 . S
C301 O297 1.251 . S
C301 O298 1.254 . S
H302 C275 0.949 . S
H303 C277 0.950 . S
H304 C284 0.949 . S
H305 C286 0.950 . S
C306 O322 1.251 . S
C306 O324 1.254 1_455 S
N307 C308 1.333 1_556 S
N307 C312 1.307 . S
N307 Zn313 2.020 . S
C308 N307 1.333 1_554 S
C308 C309 1.379 . S
C308 H326 0.952 . S
C309 C308 1.379 . S
C309 C310 1.390 . S
C309 H336 0.949 . S
C310 C309 1.390 . S
C310 C311 1.357 . S
C311 C310 1.357 . S
C311 C312 1.370 1_554 S
C311 H337 0.950 1_554 S
C312 N307 1.307 . S
C312 C311 1.370 1_556 S
C312 H330 0.948 . S
Zn313 N307 2.020 . S
Zn313 O322 2.039 . S
Zn313 O328 2.034 . S
Zn313 O332 2.025 . S
Zn313 O334 2.024 . S
C314 O333 1.246 . S
C314 O334 1.249 . S
N315 C316 1.307 . S
N315 C317 1.333 . S
N315 Zn321 2.020 1_655 S
C316 N315 1.307 . S
C316 C320 1.370 . S
C316 H327 0.948 . S
C317 N315 1.333 . S
C317 C318 1.379 . S
C317 H325 0.952 . S
C318 C317 1.379 . S
C318 C319 1.390 . S
C318 H338 0.949 . S
C319 C318 1.390 . S
C319 C320 1.357 . S
C320 C316 1.370 . S
C320 C319 1.357 . S
C320 H339 0.950 . S
Zn321 N315 2.020 1_455 S
Zn321 O324 2.025 1_455 S
Zn321 O329 2.024 1_455 S
Zn321 O331 2.039 . S
Zn321 O333 2.034 . S
O322 C306 1.251 . S
O322 Zn313 2.039 . S
C323 O328 1.246 . S
C323 O329 1.249 1_455 S
O324 C306 1.254 1_655 S
O324 Zn321 2.025 1_655 S
H325 C317 0.952 . S
H326 C308 0.952 . S
H327 C316 0.948 . S
O328 Zn313 2.034 . S
O328 C323 1.246 . S
O329 Zn321 2.024 1_655 S
O329 C323 1.249 1_655 S
H330 C312 0.948 . S
O331 Zn321 2.039 . S
O331 C335 1.251 . S
O332 Zn313 2.025 . S
O332 C335 1.254 . S
O333 C314 1.246 . S
O333 Zn321 2.034 . S
O334 Zn313 2.024 . S
O334 C314 1.249 . S
C335 O331 1.251 . S
C335 O332 1.254 . S
H336 C309 0.949 . S
H337 C311 0.950 1_556 S
H338 C318 0.949 . S
H339 C320 0.950 . S
C340 O356 1.251 . S
C340 O358 1.254 . S
N341 C342 1.333 . S
N341 C346 1.307 . S
N341 Zn347 2.020 . S
C342 N341 1.333 . S
C342 C343 1.379 . S
C342 H360 0.952 . S
C343 C342 1.379 . S
C343 C344 1.390 . S
C343 H370 0.949 . S
C344 C343 1.390 . S
C344 C345 1.357 . S
C345 C344 1.357 . S
C345 C346 1.370 . S
C345 H371 0.950 . S
C346 N341 1.307 . S
C346 C345 1.370 . S
C346 H364 0.948 . S
Zn347 N341 2.020 . S
Zn347 O356 2.039 . S
Zn347 O362 2.034 . S
Zn347 O366 2.025 . S
Zn347 O368 2.024 . S
C348 O367 1.246 . S
C348 O368 1.249 . S
N349 C350 1.307 1_556 S
N349 C351 1.333 . S
N349 Zn355 2.020 1_556 S
C350 N349 1.307 1_554 S
C350 C354 1.370 1_554 S
C350 H361 0.948 . S
C351 N349 1.333 . S
C351 C352 1.379 . S
C351 H359 0.952 . S
C352 C351 1.379 . S
C352 C353 1.390 . S
C352 H372 0.949 . S
C353 C352 1.390 . S
C353 C354 1.357 . S
C354 C350 1.370 1_556 S
C354 C353 1.357 . S
C354 H373 0.950 . S
Zn355 N349 2.020 1_554 S
Zn355 O358 2.025 . S
Zn355 O363 2.024 . S
Zn355 O365 2.039 1_554 S
Zn355 O367 2.034 . S
O356 C340 1.251 . S
O356 Zn347 2.039 . S
C357 O362 1.246 . S
C357 O363 1.249 . S
O358 C340 1.254 . S
O358 Zn355 2.025 . S
H359 C351 0.952 . S
H360 C342 0.952 . S
H361 C350 0.948 . S
O362 Zn347 2.034 . S
O362 C357 1.246 . S
O363 Zn355 2.024 . S
O363 C357 1.249 . S
H364 C346 0.948 . S
O365 Zn355 2.039 1_556 S
O365 C369 1.251 . S
O366 Zn347 2.025 . S
O366 C369 1.255 1_554 S
O367 C348 1.246 . S
O367 Zn355 2.034 . S
O368 Zn347 2.024 . S
O368 C348 1.249 . S
C369 O365 1.251 . S
C369 O366 1.255 1_556 S
H370 C343 0.949 . S
H371 C345 0.950 . S
H372 C352 0.949 . S
H373 C354 0.950 . S
C374 O390 1.251 . S
C374 O392 1.254 . S
N375 C376 1.333 . S
N375 C380 1.307 . S
N375 Zn381 2.020 . S
C376 N375 1.333 . S
C376 C377 1.379 . S
C376 H394 0.952 . S
C377 C376 1.379 . S
C377 C378 1.390 . S
C377 H404 0.949 . S
C378 C377 1.390 . S
C378 C379 1.357 . S
C379 C378 1.357 . S
C379 C380 1.370 . S
C379 H405 0.950 . S
C380 N375 1.307 . S
C380 C379 1.370 . S
C380 H398 0.948 . S
Zn381 N375 2.020 . S
Zn381 O390 2.039 . S
Zn381 O396 2.034 . S
Zn381 O400 2.025 . S
Zn381 O402 2.024 . S
C382 O401 1.246 . S
C382 O402 1.249 . S
N383 C384 1.307 . S
N383 C385 1.333 . S
N383 Zn389 2.020 . S
C384 N383 1.307 . S
C384 C388 1.370 . S
C384 H395 0.948 . S
C385 N383 1.333 . S
C385 C386 1.379 . S
C385 H393 0.952 . S
C386 C385 1.379 . S
C386 C387 1.390 . S
C386 H406 0.949 . S
C387 C386 1.390 . S
C387 C388 1.357 . S
C388 C384 1.370 . S
C388 C387 1.357 . S
C388 H407 0.950 . S
Zn389 N383 2.020 . S
Zn389 O392 2.025 . S
Zn389 O397 2.024 . S
Zn389 O399 2.039 . S
Zn389 O401 2.034 . S
O390 C374 1.251 . S
O390 Zn381 2.039 . S
C391 O396 1.246 . S
C391 O397 1.249 . S
O392 C374 1.254 . S
O392 Zn389 2.025 . S
H393 C385 0.952 . S
H394 C376 0.952 . S
H395 C384 0.948 . S
O396 Zn381 2.034 . S
O396 C391 1.246 . S
O397 Zn389 2.024 . S
O397 C391 1.249 . S
H398 C380 0.948 . S
O399 Zn389 2.039 . S
O399 C403 1.251 . S
O400 Zn381 2.025 . S
O400 C403 1.254 . S
O401 C382 1.246 . S
O401 Zn389 2.034 . S
O402 Zn381 2.024 . S
O402 C382 1.249 . S
C403 O399 1.251 . S
C403 O400 1.254 . S
H404 C377 0.949 . S
H405 C379 0.950 . S
H406 C386 0.949 . S
H407 C388 0.950 . S
C408 O424 1.251 . S
C408 O426 1.254 . S
N409 C410 1.333 . S
N409 C414 1.307 . S
N409 Zn415 2.020 . S
C410 N409 1.333 . S
C410 C411 1.379 . S
C410 H428 0.952 . S
C411 C410 1.379 . S
C411 C412 1.390 . S
C411 H438 0.949 . S
C412 C411 1.390 . S
C412 C413 1.357 . S
C413 C412 1.357 . S
C413 C414 1.370 . S
C413 H439 0.950 . S
C414 N409 1.307 . S
C414 C413 1.370 . S
C414 H432 0.948 . S
Zn415 N409 2.020 . S
Zn415 O424 2.039 . S
Zn415 O430 2.034 . S
Zn415 O434 2.025 . S
Zn415 O436 2.024 . S
C416 O435 1.246 . S
C416 O436 1.249 . S
N417 C418 1.307 . S
N417 C419 1.333 . S
N417 Zn423 2.020 . S
C418 N417 1.307 . S
C418 C422 1.370 . S
C418 H429 0.948 . S
C419 N417 1.333 . S
C419 C420 1.379 . S
C419 H427 0.952 . S
C420 C419 1.379 . S
C420 C421 1.390 . S
C420 H440 0.949 . S
C421 C420 1.390 . S
C421 C422 1.357 . S
C422 C418 1.370 . S
C422 C421 1.357 . S
C422 H441 0.950 . S
Zn423 N417 2.020 . S
Zn423 O426 2.025 . S
Zn423 O431 2.024 . S
Zn423 O433 2.039 . S
Zn423 O435 2.034 . S
O424 C408 1.251 . S
O424 Zn415 2.039 . S
C425 O430 1.246 . S
C425 O431 1.249 . S
O426 C408 1.254 . S
O426 Zn423 2.025 . S
H427 C419 0.952 . S
H428 C410 0.952 . S
H429 C418 0.948 . S
O430 Zn415 2.034 . S
O430 C425 1.246 . S
O431 Zn423 2.024 . S
O431 C425 1.249 . S
H432 C414 0.948 . S
O433 Zn423 2.039 . S
O433 C437 1.251 . S
O434 Zn415 2.025 . S
O434 C437 1.254 . S
O435 C416 1.246 . S
O435 Zn423 2.034 . S
O436 Zn415 2.024 . S
O436 C416 1.249 . S
C437 O433 1.251 . S
C437 O434 1.254 . S
H438 C411 0.949 . S
H439 C413 0.950 . S
H440 C420 0.949 . S
H441 C422 0.950 . S
C442 O458 1.251 . S
C442 O460 1.254 . S
N443 C444 1.333 . S
N443 C448 1.307 . S
N443 Zn449 2.020 1_455 S
C444 N443 1.333 . S
C444 C445 1.379 . S
C444 H462 0.952 . S
C445 C444 1.379 . S
C445 C446 1.390 . S
C445 H472 0.949 . S
C446 C445 1.390 . S
C446 C447 1.357 . S
C447 C446 1.357 . S
C447 C448 1.370 . S
C447 H473 0.950 . S
C448 N443 1.307 . S
C448 C447 1.370 . S
C448 H466 0.948 . S
Zn449 N443 2.020 1_655 S
Zn449 O458 2.039 . S
Zn449 O464 2.034 . S
Zn449 O468 2.025 1_655 S
Zn449 O470 2.024 1_655 S
C450 O469 1.246 . S
C450 O470 1.249 1_655 S
N451 C452 1.307 . S
N451 C453 1.333 1_554 S
N451 Zn457 2.020 . S
C452 N451 1.307 . S
C452 C456 1.370 1_554 S
C452 H463 0.948 . S
C453 N451 1.333 1_556 S
C453 C454 1.379 . S
C453 H461 0.952 . S
C454 C453 1.379 . S
C454 C455 1.390 . S
C454 H474 0.949 . S
C455 C454 1.390 . S
C455 C456 1.357 . S
C456 C452 1.370 1_556 S
C456 C455 1.357 . S
C456 H475 0.950 1_556 S
Zn457 N451 2.020 . S
Zn457 O460 2.025 . S
Zn457 O465 2.024 . S
Zn457 O467 2.039 . S
Zn457 O469 2.034 . S
O458 C442 1.251 . S
O458 Zn449 2.039 . S
C459 O464 1.246 . S
C459 O465 1.249 . S
O460 C442 1.254 . S
O460 Zn457 2.025 . S
H461 C453 0.952 . S
H462 C444 0.952 . S
H463 C452 0.948 . S
O464 Zn449 2.034 . S
O464 C459 1.246 . S
O465 Zn457 2.024 . S
O465 C459 1.249 . S
H466 C448 0.948 . S
O467 Zn457 2.039 . S
O467 C471 1.251 . S
O468 Zn449 2.025 1_455 S
O468 C471 1.254 1_455 S
O469 C450 1.246 . S
O469 Zn457 2.034 . S
O470 Zn449 2.024 1_455 S
O470 C450 1.249 1_455 S
C471 O467 1.251 . S
C471 O468 1.254 1_655 S
H472 C445 0.949 . S
H473 C447 0.950 . S
H474 C454 0.949 . S
H475 C456 0.950 1_554 S
C476 O492 1.251 . S
C476 O494 1.255 1_554 S
N477 C478 1.333 . S
N477 C482 1.307 1_554 S
N477 Zn483 2.020 1_554 S
C478 N477 1.333 . S
C478 C479 1.379 . S
C478 H496 0.952 . S
C479 C478 1.379 . S
C479 C480 1.390 . S
C479 H506 0.949 . S
C480 C479 1.390 . S
C480 C481 1.357 . S
C481 C480 1.357 . S
C481 C482 1.370 1_554 S
C481 H507 0.950 . S
C482 N477 1.307 1_556 S
C482 C481 1.370 1_556 S
C482 H500 0.948 . S
Zn483 N477 2.020 1_556 S
Zn483 O492 2.039 1_556 S
Zn483 O498 2.034 . S
Zn483 O502 2.025 . S
Zn483 O504 2.024 . S
C484 O503 1.246 . S
C484 O504 1.249 . S
N485 C486 1.307 . S
N485 C487 1.333 . S
N485 Zn491 2.020 . S
C486 N485 1.307 . S
C486 C490 1.370 . S
C486 H497 0.948 . S
C487 N485 1.333 . S
C487 C488 1.379 . S
C487 H495 0.952 . S
C488 C487 1.379 . S
C488 C489 1.390 . S
C488 H508 0.949 . S
C489 C488 1.390 . S
C489 C490 1.357 . S
C490 C486 1.370 . S
C490 C489 1.357 . S
C490 H509 0.950 . S
Zn491 N485 2.020 . S
Zn491 O494 2.025 . S
Zn491 O499 2.024 . S
Zn491 O501 2.039 . S
Zn491 O503 2.034 . S
O492 C476 1.251 . S
O492 Zn483 2.039 1_554 S
C493 O498 1.246 . S
C493 O499 1.249 . S
O494 C476 1.255 1_556 S
O494 Zn491 2.025 . S
H495 C487 0.952 . S
H496 C478 0.952 . S
H497 C486 0.948 . S
O498 Zn483 2.034 . S
O498 C493 1.246 . S
O499 Zn491 2.024 . S
O499 C493 1.249 . S
H500 C482 0.948 . S
O501 Zn491 2.039 . S
O501 C505 1.251 . S
O502 Zn483 2.025 . S
O502 C505 1.254 . S
O503 C484 1.246 . S
O503 Zn491 2.034 . S
O504 Zn483 2.024 . S
O504 C484 1.249 . S
C505 O501 1.251 . S
C505 O502 1.254 . S
H506 C479 0.949 . S
H507 C481 0.950 . S
H508 C488 0.949 . S
H509 C490 0.950 . S
C510 O526 1.251 . S
C510 O528 1.254 . S
N511 C512 1.333 . S
N511 C516 1.307 . S
N511 Zn517 2.020 . S
C512 N511 1.333 . S
C512 C513 1.379 . S
C512 H530 0.952 . S
C513 C512 1.379 . S
C513 C514 1.390 . S
C513 H540 0.949 . S
C514 C513 1.390 . S
C514 C515 1.357 . S
C515 C514 1.357 . S
C515 C516 1.370 . S
C515 H541 0.950 . S
C516 N511 1.307 . S
C516 C515 1.370 . S
C516 H534 0.948 . S
Zn517 N511 2.020 . S
Zn517 O526 2.039 . S
Zn517 O532 2.034 . S
Zn517 O536 2.025 . S
Zn517 O538 2.024 . S
C518 O537 1.246 . S
C518 O538 1.249 . S
N519 C520 1.307 . S
N519 C521 1.333 . S
N519 Zn525 2.020 . S
C520 N519 1.307 . S
C520 C524 1.370 . S
C520 H531 0.948 . S
C521 N519 1.333 . S
C521 C522 1.379 . S
C521 H529 0.952 . S
C522 C521 1.379 . S
C522 C523 1.390 . S
C522 H542 0.949 . S
C523 C522 1.390 . S
C523 C524 1.357 . S
C524 C520 1.370 . S
C524 C523 1.357 . S
C524 H543 0.950 . S
Zn525 N519 2.020 . S
Zn525 O528 2.025 . S
Zn525 O533 2.024 . S
Zn525 O535 2.039 . S
Zn525 O537 2.034 . S
O526 C510 1.251 . S
O526 Zn517 2.039 . S
C527 O532 1.246 . S
C527 O533 1.249 . S
O528 C510 1.254 . S
O528 Zn525 2.025 . S
H529 C521 0.952 . S
H530 C512 0.952 . S
H531 C520 0.948 . S
O532 Zn517 2.034 . S
O532 C527 1.246 . S
O533 Zn525 2.024 . S
O533 C527 1.249 . S
H534 C516 0.948 . S
O535 Zn525 2.039 . S
O535 C539 1.251 . S
O536 Zn517 2.025 . S
O536 C539 1.254 . S
O537 C518 1.246 . S
O537 Zn525 2.034 . S
O538 Zn517 2.024 . S
O538 C518 1.249 . S
C539 O535 1.251 . S
C539 O536 1.254 . S
H540 C513 0.949 . S
H541 C515 0.950 . S
H542 C522 0.949 . S
H543 C524 0.950 . S
C17 C357 2.763 . S
C51 C391 2.763 . S
C85 C289 2.763 1_455 S
C119 C323 2.763 1_655 S
C144 C484 2.763 . S
C178 C518 2.763 . S
C212 C416 2.763 1_655 S
C246 C450 2.763 1_455 S
C310 C8 1.473 . S
C344 C42 1.473 . S
C378 C76 1.473 . S
C276 C110 1.473 . S
C153 C455 1.473 . S
C489 C187 1.473 . S
C523 C221 1.473 . S
C421 C255 1.473 . S
C38 C280 1.473 . S
C314 C72 1.473 1_545 S
C348 C106 1.473 . S
C382 C4 1.473 1_565 S
C425 C183 1.473 . S
C217 C459 1.473 1_545 S
C251 C493 1.473 . S
C527 C149 1.473 1_545 S
C29 C514 3.091 . S
C63 C140 3.091 . S
C446 C97 3.092 . S
C208 C131 3.091 . S
C136 C387 3.091 . S
C170 C13 3.091 . S
C319 C204 3.092 . S
C81 C238 3.091 . S
C301 C242 3.092 . S
C335 C412 3.091 . S
C174 C369 3.091 . S
C480 C403 3.091 . S
C408 C115 3.092 . S
C442 C285 3.091 . S
C476 C47 3.091 . S
C353 C510 3.091 . S
C0 C437 3.166 . S
C34 C199 3.166 . S
C68 C505 3.166 . S
C267 C102 3.166 1_454 S
C165 C272 3.166 . S
C340 C233 3.166 . S
C306 C471 3.166 1_446 S
C539 C374 3.166 1_545 S
