# Generated by pormake.
# Topology snz, (6)-cn, num edge types: 1
# Building blocks:
#     Node 0, Type 0, BuildingBlock: NUHQIS_clean_sbu_0, # of connection points: 6
#     Node 1, Type 0, BuildingBlock: NUHQIS_clean_sbu_0, # of connection points: 6
#     Node 2, Type 0, BuildingBlock: NUHQIS_clean_sbu_0, # of connection points: 6
#     Node 3, Type 0, BuildingBlock: NUHQIS_clean_sbu_0, # of connection points: 6
#     Node 4, Type 0, BuildingBlock: NUHQIS_clean_sbu_0, # of connection points: 6
#     Node 5, Type 0, BuildingBlock: NUHQIS_clean_sbu_0, # of connection points: 6
#     Node 6, Type 0, BuildingBlock: NUHQIS_clean_sbu_0, # of connection points: 6
#     Node 7, Type 0, BuildingBlock: NUHQIS_clean_sbu_0, # of connection points: 6
#     Node 8, Type 0, BuildingBlock: NUHQIS_clean_sbu_0, # of connection points: 6
#     Edge 9, Type (0, 0), BuildingBlock: CIFDUS_clean_linker_0, # of connection points: 2
#     Edge 10, Type (0, 0), BuildingBlock: CIFDUS_clean_linker_0, # of connection points: 2
#     Edge 11, Type (0, 0), BuildingBlock: CIFDUS_clean_linker_0, # of connection points: 2
#     Edge 12, Type (0, 0), BuildingBlock: CIFDUS_clean_linker_0, # of connection points: 2
#     Edge 13, Type (0, 0), BuildingBlock: CIFDUS_clean_linker_0, # of connection points: 2
#     Edge 14, Type (0, 0), BuildingBlock: CIFDUS_clean_linker_0, # of connection points: 2
#     Edge 15, Type (0, 0), BuildingBlock: CIFDUS_clean_linker_0, # of connection points: 2
#     Edge 16, Type (0, 0), BuildingBlock: CIFDUS_clean_linker_0, # of connection points: 2
#     Edge 17, Type (0, 0), BuildingBlock: CIFDUS_clean_linker_0, # of connection points: 2
#     Edge 18, Type (0, 0), BuildingBlock: CIFDUS_clean_linker_0, # of connection points: 2
#     Edge 19, Type (0, 0), BuildingBlock: CIFDUS_clean_linker_0, # of connection points: 2
#     Edge 20, Type (0, 0), BuildingBlock: CIFDUS_clean_linker_0, # of connection points: 2
#     Edge 21, Type (0, 0), BuildingBlock: CIFDUS_clean_linker_0, # of connection points: 2
#     Edge 22, Type (0, 0), BuildingBlock: CIFDUS_clean_linker_0, # of connection points: 2
#     Edge 23, Type (0, 0), BuildingBlock: CIFDUS_clean_linker_0, # of connection points: 2
#     Edge 24, Type (0, 0), BuildingBlock: CIFDUS_clean_linker_0, # of connection points: 2
#     Edge 25, Type (0, 0), BuildingBlock: CIFDUS_clean_linker_0, # of connection points: 2
#     Edge 26, Type (0, 0), BuildingBlock: CIFDUS_clean_linker_0, # of connection points: 2
#     Edge 27, Type (0, 0), BuildingBlock: CIFDUS_clean_linker_0, # of connection points: 2
#     Edge 28, Type (0, 0), BuildingBlock: CIFDUS_clean_linker_0, # of connection points: 2
#     Edge 29, Type (0, 0), BuildingBlock: CIFDUS_clean_linker_0, # of connection points: 2
#     Edge 30, Type (0, 0), BuildingBlock: CIFDUS_clean_linker_0, # of connection points: 2
#     Edge 31, Type (0, 0), BuildingBlock: CIFDUS_clean_linker_0, # of connection points: 2
#     Edge 32, Type (0, 0), BuildingBlock: CIFDUS_clean_linker_0, # of connection points: 2
#     Edge 33, Type (0, 0), BuildingBlock: CIFDUS_clean_linker_0, # of connection points: 2
#     Edge 34, Type (0, 0), BuildingBlock: CIFDUS_clean_linker_0, # of connection points: 2
#     Edge 35, Type (0, 0), BuildingBlock: CIFDUS_clean_linker_0, # of connection points: 2
# Relax obj value: 0.467
# Max RMSD: 0.234
# Mean RMSD: 0.155
data_MOF--net-snz--node1-NUHQIS_clean_sbu_0--edge1-CIFDUS_clean_linker_0
_symmetry_space_group_name_H-M    P1
_symmetry_Int_Tables_number       1
_symmetry_cell_setting            triclinic
loop_
_symmetry_equiv_pos_as_xyz
'x, y, z'
_cell_length_a     62.779717
_cell_length_b     48.282598
_cell_length_c     14.224857
_cell_angle_alpha  97.127025
_cell_angle_beta   95.226851
_cell_angle_gamma 121.49587
loop_
_atom_site_label
_atom_site_type_symbol
_atom_site_fract_x
_atom_site_fract_y
_atom_site_fract_z
_atom_type_partial_charge
Tb0 Tb 0.14545 0.50658 0.28346 0.0
Eu1 Eu 0.09978 0.52107 0.25264 0.0
C2 C 0.12725 0.51692 1.06729 0.0
C3 C 0.15946 0.58314 0.31213 0.0
C4 C 0.18563 0.47128 0.35633 0.0
C5 C 0.21807 0.46519 0.4432 0.0
C6 C 0.2108 0.48484 0.40256 0.0
C7 C 0.16771 0.43757 0.35379 0.0
C8 C 0.17498 0.41786 0.3943 0.0
C9 C 0.20039 0.43118 0.43857 0.0
C10 C 0.17922 0.4922 0.30602 0.0
O11 O 0.13732 0.50899 0.43403 0.0
O12 O 0.10235 0.51287 0.41098 0.0
O13 O 0.08156 0.46709 0.18145 0.0
O14 O 0.10963 0.45686 0.25786 0.0
C15 C 0.11923 0.51105 0.46958 0.0
O16 O 0.08602 0.55376 0.285 0.0
O17 O 0.06014 0.50455 0.20049 0.0
O18 O 0.11136 0.52393 0.10254 0.0
O19 O 0.14142 0.51033 0.12552 0.0
O20 O 0.167 0.56198 0.30863 0.0
O21 O 0.13528 0.57261 0.29113 0.0
C22 C 0.08779 0.4461 0.20116 0.0
O23 O 0.15974 0.47735 0.23563 0.0
O24 O 0.18043 0.51717 0.35867 0.0
C25 C 0.05207 0.54634 0.17479 0.0
C26 C 0.03201 0.57625 1.06881 0.0
C27 C 1.02159 0.56252 0.14745 0.0
C28 C 0.03151 0.54775 0.19965 0.0
C29 C 0.06241 0.55955 1.09573 0.0
C30 C 0.05247 0.57436 1.0432 0.0
C31 C 0.0632 0.53282 0.2361 0.0
H32 H 0.23782 0.4765 0.47533 0.0
H33 H 0.22511 0.51065 0.40524 0.0
H34 H 0.14813 0.42624 0.31911 0.0
H35 H 0.16059 0.39201 0.39038 0.0
H36 H 1.00621 0.56405 0.1707 0.0
H37 H 1.02341 0.538 0.261 0.0
H38 H 0.07837 0.55882 1.07557 0.0
H39 H 0.06086 0.58441 0.9827 0.0
Tb40 Tb 0.64108 0.53641 1.02902 0.0
Eu41 Eu 0.5898 0.53726 1.01973 0.0
C42 C 0.61772 0.53458 0.22847 0.0
C43 C 0.58573 0.46633 0.98648 0.0
C44 C 0.70756 0.55579 1.00674 0.0
C45 C 0.74803 0.6074 1.01257 0.0
C46 C 0.72291 0.59066 1.02882 0.0
C47 C 0.71767 0.53815 0.96618 0.0
C48 C 0.7427 0.55484 0.94965 0.0
C49 C 0.75839 0.5897 0.97364 0.0
C50 C 0.68201 0.53713 1.03308 0.0
O51 O 0.6329 0.53891 0.87238 0.0
O52 O 0.59575 0.53789 0.86204 0.0
O53 O 0.62037 0.59127 1.03029 0.0
O54 O 0.65626 0.59049 1.06862 0.0
C55 C 0.61391 0.53838 0.81974 0.0
O56 O 0.54852 0.51257 0.98184 0.0
O57 O 0.5713 0.56395 1.05412 0.0
O58 O 0.59969 0.53694 0.18136 0.0
O59 O 0.63426 0.53244 0.18068 0.0
O60 O 0.61074 0.4828 1.0161 0.0
O61 O 0.5744 0.4824 0.97488 0.0
C62 C 0.64506 0.6071 1.0597 0.0
O63 O 0.67734 0.55227 0.10243 0.0
O64 O 0.66233 0.51949 0.96373 0.0
C65 C 0.53237 0.52974 0.10214 0.0
C66 C 0.5012 0.50826 0.24149 0.0
C67 C 0.4904 0.50214 0.14418 0.0
C68 C 0.5059 0.51275 1.07497 0.0
C69 C 0.5432 0.5367 0.19963 0.0
C70 C 0.52778 0.52615 0.26861 0.0
C71 C 0.54848 0.53749 1.02837 0.0
H72 H 0.75936 0.63424 1.03072 0.0
H73 H 0.71568 0.60499 1.06026 0.0
H74 H 0.70637 0.51128 0.94945 0.0
H75 H 0.75 0.54027 0.92074 0.0
H76 H 0.46996 0.48813 0.121 0.0
H77 H 0.49721 0.50689 0.99995 0.0
H78 H 0.56359 0.54969 0.22239 0.0
H79 H 0.53669 0.53166 0.34315 0.0
Tb80 Tb 0.59223 0.06752 0.84335 0.0
Eu81 Eu 0.64888 0.13597 0.87859 0.0
C82 C 0.6159 0.09574 0.65329 0.0
C83 C 0.64003 0.06258 0.88535 0.0
C84 C 0.52884 1.00723 0.89079 0.0
C85 C 0.48466 0.97983 0.90962 0.0
C86 C 0.50291 0.98929 0.85026 0.0
C87 C 0.53631 1.01613 0.9916 0.0
C88 C 0.51812 1.00653 1.05088 0.0
C89 C 0.49208 0.98806 1.01059 0.0
C90 C 0.54795 1.01683 0.82785 0.0
O91 O 0.60252 0.08209 1.0063 0.0
O92 O 0.64136 0.1317 1.03529 0.0
O93 O 0.62209 0.15623 0.87626 0.0
O94 O 0.58345 0.10607 0.85012 0.0
C95 C 0.62234 0.1077 1.06855 0.0
O96 O 0.68716 0.17864 0.95442 0.0
O97 O 0.68098 0.1586 0.80384 0.0
O98 O 0.63487 0.12279 0.71257 0.0
O99 O 0.59887 0.07084 0.69039 0.0
O100 O 0.61635 0.04734 0.84113 0.0
O101 O 0.65407 0.09495 0.91086 0.0
C102 C 0.5966 0.13863 0.8613 0.0
O103 O 0.55289 0.0421 0.78918 0.0
O104 O 0.56868 1.01856 0.86124 0.0
C105 C 0.72294 0.18016 0.89016 0.0
C106 C 0.77159 0.18723 0.88107 0.0
C107 C 0.7698 0.21388 0.92418 0.0
C108 C 0.74608 0.21044 0.92826 0.0
C109 C 0.72453 0.15304 0.85057 0.0
C110 C 0.74832 0.15646 0.8465 0.0
C111 C 0.69794 0.17858 0.8798 0.0
H112 H 0.46473 0.96538 0.8765 0.0
H113 H 0.49678 0.98236 0.77269 0.0
H114 H 0.55622 0.0303 1.02469 0.0
H115 H 0.52443 1.0136 0.12835 0.0
H116 H 0.78687 0.23791 0.95413 0.0
H117 H 0.74589 0.23199 0.95873 0.0
H118 H 0.70729 0.12927 0.81952 0.0
H119 H 0.74836 0.13516 0.81239 0.0
Tb120 Tb 0.79535 0.87468 0.30598 0.0
Eu121 Eu 0.74632 0.88257 0.27116 0.0
C122 C 0.77547 0.88208 1.08826 0.0
C123 C 0.8053 0.94777 0.35503 0.0
C124 C 0.83963 0.84501 0.36528 0.0
C125 C 0.83382 0.79155 0.37703 0.0
C126 C 0.82474 0.81012 0.34196 0.0
C127 C 0.8635 0.86082 0.42538 0.0
C128 C 0.87251 0.84232 0.46072 0.0
C129 C 0.85791 0.80744 0.43644 0.0
C130 C 0.83178 0.86554 0.32248 0.0
O131 O 0.78597 0.87501 0.45531 0.0
O132 O 0.74931 0.87545 0.43059 0.0
O133 O 0.7289 0.82601 0.2329 0.0
O134 O 0.76305 0.82381 0.29363 0.0
C135 C 0.76702 0.87527 0.4899 0.0
O136 O 0.72775 0.90901 0.31209 0.0
O137 O 0.70908 0.86794 0.1913 0.0
O138 O 0.75842 0.88671 0.12228 0.0
O139 O 0.79074 0.87771 0.14789 0.0
O140 O 0.81459 0.92884 0.34491 0.0
O141 O 0.78081 0.93544 0.32793 0.0
C142 C 0.73903 0.80873 0.25224 0.0
O143 O 0.8128 0.85077 0.25017 0.0
O144 O 0.83089 0.88764 0.38136 0.0
C145 C 0.70068 0.91112 0.18494 0.0
C146 C 0.6812 0.94454 1.0897 0.0
C147 C 0.70127 0.96165 0.17008 0.0
C148 C 0.71078 0.94521 0.2171 0.0
C149 C 0.68102 0.8942 0.10359 0.0
C150 C 0.6715 0.91059 1.05667 0.0
C151 C 0.70877 0.89242 0.23972 0.0
H152 H 0.82194 0.76474 0.35779 0.0
H153 H 0.80625 0.79714 0.29562 0.0
H154 H 0.87548 0.88766 0.44356 0.0
H155 H 0.89127 0.85545 0.50514 0.0
H156 H 0.70914 0.98761 0.19892 0.0
H157 H 0.72572 0.95915 0.28007 0.0
H158 H 0.67258 0.86795 1.07698 0.0
H159 H 0.65637 0.89647 0.9944 0.0
Tb160 Tb 0.29517 0.8541 0.52846 0.0
Eu161 Eu 0.24531 0.85877 0.52512 0.0
C162 C 0.27262 0.85401 0.73072 0.0
C163 C 0.23978 0.7858 0.4862 0.0
C164 C 0.35635 0.87088 0.47136 0.0
C165 C 0.4016 0.90478 0.4699 0.0
C166 C 0.38167 0.88809 0.51941 0.0
C167 C 0.35125 0.87075 0.37296 0.0
C168 C 0.37113 0.88719 0.32331 0.0
C169 C 0.39658 0.90445 0.37106 0.0
C170 C 0.33548 0.85438 0.52513 0.0
O171 O 0.28771 0.85773 0.37346 0.0
O172 O 0.25209 0.86017 0.36741 0.0
O173 O 0.27757 0.91306 0.5403 0.0
O174 O 0.31219 0.90841 0.56141 0.0
C175 C 0.26946 0.85907 0.32303 0.0
O176 O 0.20706 0.84254 0.45397 0.0
O177 O 0.22389 0.8778 0.58928 0.0
O178 O 0.25541 0.85832 0.68595 0.0
O179 O 0.28812 0.84993 0.68062 0.0
O180 O 0.2647 0.80065 0.49675 0.0
O181 O 0.22925 0.80324 0.49818 0.0
C182 C 0.30243 0.92685 0.55967 0.0
O183 O 0.33338 0.87391 0.5898 0.0
O184 O 0.31342 0.83114 0.47436 0.0
C185 C 0.17876 0.84128 0.5556 0.0
C186 C 0.1308 0.80749 0.61392 0.0
C187 C 0.13396 0.82261 0.53333 0.0
C188 C 0.15763 0.83929 0.50472 0.0
C189 C 0.17579 0.82608 0.6357 0.0
C190 C 0.15207 0.8094 0.6646 0.0
C191 C 0.20349 0.85915 0.52322 0.0
H192 H 0.42093 0.9182 0.50938 0.0
H193 H 0.38602 0.88884 0.59551 0.0
H194 H 0.33189 0.85792 0.33406 0.0
H195 H 0.36648 0.8859 0.24703 0.0
H196 H 0.11801 0.82115 0.49121 0.0
H197 H 0.15941 0.85062 0.44231 0.0
H198 H 0.19179 0.82717 0.67602 0.0
H199 H 0.1505 0.79833 0.72738 0.0
Tb200 Tb 0.25045 0.26697 0.68053 0.0
Eu201 Eu 0.30594 0.33199 0.74683 0.0
C202 C 0.28011 0.29557 0.50764 0.0
C203 C 0.29909 0.25885 0.71801 0.0
C204 C 0.17548 0.22461 0.68375 0.0
C205 C 0.13114 0.20522 0.61515 0.0
C206 C 0.1552 0.21028 0.60436 0.0
C207 C 0.17051 0.23288 0.77426 0.0
C208 C 0.14661 0.22759 0.78522 0.0
C209 C 0.12637 0.21406 0.70597 0.0
C210 C 0.20277 0.23837 0.67099 0.0
O211 O 0.2595 0.27166 0.842 0.0
O212 O 0.29695 0.32174 0.89691 0.0
O213 O 0.27872 0.34895 0.75667 0.0
O214 O 0.25316 0.30958 0.62813 0.0
C215 C 0.27725 0.29494 0.91548 0.0
O216 O 0.34736 0.35779 0.7763 0.0
O217 O 0.32977 0.38603 0.77792 0.0
O218 O 0.29832 0.32029 0.5775 0.0
O219 O 0.25974 0.27041 0.53161 0.0
O220 O 0.27405 0.24369 0.68252 0.0
O221 O 0.31312 0.29098 0.75262 0.0
C222 C 0.26073 0.3381 0.68244 0.0
O223 O 0.21257 0.22264 0.62915 0.0
O224 O 0.21997 0.26794 0.72068 0.0
C225 C 0.36734 0.40643 0.71492 0.0
C226 C 0.39938 0.43997 0.58792 0.0
C227 C 0.40957 0.44363 0.68429 0.0
C228 C 0.39364 0.42693 0.74726 0.0
C229 C 0.35702 0.40324 0.6195 0.0
C230 C 0.3729 0.4199 0.55651 0.0
C231 C 0.35088 0.38694 0.77889 0.0
H232 H 0.11632 0.19457 0.55193 0.0
H233 H 0.1583 0.20448 0.53288 0.0
H234 H 0.1856 0.24477 0.837 0.0
H235 H 0.1444 0.23542 0.85634 0.0
H236 H 0.42987 0.45923 0.71078 0.0
H237 H 0.40188 0.42958 0.82069 0.0
H238 H 0.33672 0.38737 0.59322 0.0
H239 H 0.3645 0.41622 0.48246 0.0
Tb240 Tb 0.44597 0.19542 0.67998 0.0
Eu241 Eu 0.44662 0.19356 0.89341 0.0
C242 C 0.47975 0.26554 0.8398 0.0
C243 C 0.48596 0.18286 0.79921 0.0
C244 C 0.46071 0.16752 0.47268 0.0
C245 C 0.4847 0.14109 0.49179 0.0
C246 C 0.48251 0.16849 0.51379 0.0
C247 C 0.44177 0.13914 0.40621 0.0
C248 C 0.44385 0.1118 0.38499 0.0
C249 C 0.46507 0.11204 0.42906 0.0
C250 C 0.45509 0.19223 0.51384 0.0
O251 O 0.41199 0.1453 0.66965 0.0
O252 O 0.42796 0.14003 0.8089 0.0
O253 O 0.41841 0.20968 0.85549 0.0
O254 O 0.41604 0.20668 0.69229 0.0
C255 C 0.41139 0.126 0.72779 0.0
O256 O 0.42036 0.17034 0.99095 0.0
O257 O 0.46088 0.19555 1.04181 0.0
O258 O 0.4744 0.24938 0.9113 0.0
O259 O 0.46915 0.24926 0.74925 0.0
O260 O 0.4684 0.17318 0.72196 0.0
O261 O 0.48418 0.19809 0.87783 0.0
C262 C 0.4082 0.21163 0.77241 0.0
O263 O 0.43202 0.17987 0.5305 0.0
O264 O 0.47191 0.21512 0.58639 0.0
C265 C 0.43457 0.1404 1.06122 0.0
C266 C 0.42483 0.07616 1.06212 0.0
C267 C 0.41324 0.08888 0.11876 0.0
C268 C 0.41799 0.12059 0.11791 0.0
C269 C 0.44525 0.12732 1.00156 0.0
C270 C 0.44023 0.09552 1.00113 0.0
C271 C 0.4382 0.17264 1.05245 0.0
H272 H 0.5016 0.1425 0.52444 0.0
H273 H 0.49753 0.18993 0.56591 0.0
H274 H 0.42478 0.13753 0.37348 0.0
H275 H 0.42877 0.09054 0.3327 0.0
H276 H 0.40152 0.07519 0.16807 0.0
H277 H 0.40898 0.12977 0.16238 0.0
H278 H 0.45769 0.1418 0.95519 0.0
H279 H 0.44937 0.08671 0.95623 0.0
Tb280 Tb 0.94859 0.18107 0.85778 0.0
Eu281 Eu 0.94362 0.21268 0.68121 0.0
C282 C 0.91367 0.13379 0.65984 0.0
C283 C 0.99221 0.20384 0.7323 0.0
C284 C 0.92223 0.11919 1.00296 0.0
C285 C 0.89671 0.09077 0.11739 0.0
C286 C 0.92047 0.11198 1.09501 0.0
C287 C 0.9004 0.1019 0.93024 0.0
C288 C 0.87658 0.0807 0.95253 0.0
C289 C 0.87428 0.07694 1.04818 0.0
C290 C 0.94519 0.1488 0.98754 0.0
O291 O 0.9724 0.23519 0.92386 0.0
O292 O 0.97518 0.25766 0.78855 0.0
O293 O 0.91628 0.21479 0.77156 0.0
O294 O 0.90961 0.172 0.84179 0.0
C295 C 0.98188 0.26125 0.88185 0.0
O296 O 0.94054 0.21189 0.52681 0.0
O297 O 0.93796 0.24834 0.62146 0.0
O298 O 0.91123 0.15792 0.6401 0.0
O299 O 0.93214 0.14081 0.72909 0.0
O300 O 0.98575 0.19807 0.81673 0.0
O301 O 0.97759 0.20694 0.66648 0.0
C302 C 0.90216 0.19156 0.81722 0.0
O303 O 0.95318 0.1451 0.90851 0.0
O304 O 0.94456 0.17557 1.00039 0.0
C305 C 0.90835 0.22037 0.47672 0.0
C306 C 0.8608 0.17889 0.35409 0.0
C307 C 0.8629 0.17985 0.45375 0.0
C308 C 0.88656 0.20031 0.51456 0.0
C309 C 0.90577 0.22266 0.37995 0.0
C310 C 0.88213 0.20228 0.3191 0.0
C311 C 0.93357 0.23314 0.53287 0.0
H312 H 0.8959 0.08869 0.19208 0.0
H313 H 0.93712 0.12504 0.15183 0.0
H314 H 0.90141 0.10704 0.85825 0.0
H315 H 0.85981 0.07017 0.89739 0.0
H316 H 0.84688 0.16236 0.48301 0.0
H317 H 0.88817 0.19822 0.58945 0.0
H318 H 0.92237 0.23794 0.34959 0.0
H319 H 0.88141 0.2022 0.2427 0.0
Tb320 Tb 0.93347 0.66734 0.68176 0.0
Eu321 Eu 0.95612 0.7211 0.88246 0.0
C322 C 0.96009 0.65803 0.85669 0.0
C323 C 0.8957 0.66185 0.82171 0.0
C324 C 0.94088 0.61775 0.49552 0.0
C325 C 0.98248 0.62562 0.53382 0.0
C326 C 0.96016 0.62043 0.56228 0.0
C327 C 0.94265 0.61555 0.39798 0.0
C328 C 0.965 0.6209 0.36953 0.0
C329 C 0.98603 0.62892 0.43871 0.0
C330 C 0.9235 0.62677 0.53008 0.0
O331 O 0.92585 0.70526 0.64907 0.0
O332 O 0.93164 0.73415 0.80127 0.0
O333 O 0.98149 0.74463 0.77679 0.0
O334 O 0.97507 0.69635 0.69922 0.0
C335 C 0.92398 0.72719 0.70753 0.0
O336 O 0.96223 0.73202 1.03944 0.0
O337 O 0.9813 0.77209 0.96315 0.0
O338 O 0.97344 0.69021 0.88607 0.0
O339 O 0.93881 0.64381 0.79492 0.0
O340 O 0.8988 0.65556 0.73299 0.0
O341 O 0.91509 0.6829 0.89219 0.0
C342 C 0.98933 0.72873 0.72464 0.0
O343 O 0.91581 0.61773 0.60943 0.0
O344 O 0.93119 0.65773 0.53202 0.0
C345 C 1.00545 0.77009 1.09627 0.0
C346 C 0.03957 0.75539 0.18199 0.0
C347 C 1.02587 0.76429 0.23843 0.0
C348 C 1.00882 0.7714 0.19559 0.0
C349 C 1.02201 0.76652 1.04308 0.0
C350 C 0.03913 0.75952 1.08592 0.0
C351 C 0.981 0.76257 1.04525 0.0
H352 H 0.998 0.63088 0.58853 0.0
H353 H 0.95922 0.62214 0.6383 0.0
H354 H 0.92804 0.61356 0.34546 0.0
H355 H 0.96674 0.62305 0.29537 0.0
H356 H 1.0256 0.7615 0.31275 0.0
H357 H 0.99622 0.77401 0.2378 0.0
H358 H 1.01981 0.76541 0.96599 0.0
H359 H 0.04975 0.75348 1.04091 0.0
H360 H 0.09776 0.52137 0.91126 0.0
H361 H 0.16075 0.50934 0.96799 0.0
H362 H 0.16408 0.50637 0.79726 0.0
H363 H 0.1494 0.50698 0.62574 0.0
H364 H 0.08584 0.51799 0.5697 0.0
H365 H 0.08281 0.52133 0.7403 0.0
C366 C 0.11238 0.5182 0.88728 0.0
C367 C 0.12908 0.51583 0.95743 0.0
C368 C 0.11417 0.51614 0.78576 0.0
C369 C 0.14751 0.51144 0.91987 0.0
C370 C 0.14944 0.50967 0.8204 0.0
C371 C 0.13474 0.51002 0.64991 0.0
C372 C 0.11782 0.51208 0.57981 0.0
C373 C 0.13291 0.51191 0.75154 0.0
C374 C 0.09925 0.51611 0.61759 0.0
C375 C 0.09749 0.51813 0.71706 0.0
H376 H 0.64478 0.53524 0.68557 0.0
H377 H 0.57869 0.5409 0.69586 0.0
H378 H 0.57371 0.54009 0.52336 0.0
H379 H 0.58751 0.53784 0.36324 0.0
H380 H 0.65331 0.53173 0.35099 0.0
H381 H 0.65849 0.53264 0.52411 0.0
C382 C 0.62924 0.53639 0.65091 0.0
C383 C 0.61223 0.53825 0.70875 0.0
C384 C 0.6262 0.53579 0.54788 0.0
C385 C 0.59236 0.53952 0.65766 0.0
C386 C 0.58939 0.53904 0.55704 0.0
C387 C 0.60306 0.53665 0.39757 0.0
C388 C 0.61993 0.53466 0.33933 0.0
C389 C 0.6061 0.53716 0.50032 0.0
C390 C 0.63976 0.53321 0.3898 0.0
C391 C 0.64283 0.53377 0.49067 0.0
H392 H 0.64787 0.14089 0.54137 0.0
H393 H 0.57862 0.04497 0.5042 0.0
H394 H 0.574 0.03992 0.32886 0.0
H395 H 0.58937 0.06215 0.17959 0.0
H396 H 0.65887 0.15798 0.21829 0.0
H397 H 0.66315 0.16301 0.39301 0.0
C398 C 0.63165 0.1187 0.49573 0.0
C399 C 0.61366 0.09332 0.54094 0.0
C400 C 0.62899 0.11574 0.39171 0.0
C401 C 0.59303 0.06516 0.47594 0.0
C402 C 0.59031 0.06221 0.37377 0.0
C403 C 0.60552 0.08434 0.22545 0.0
C404 C 0.62372 0.10972 0.18062 0.0
C405 C 0.60811 0.08725 0.32963 0.0
C406 C 0.64431 0.13779 0.24603 0.0
C407 C 0.64685 0.14075 0.34795 0.0
H408 H 0.79897 0.87499 0.64809 0.0
H409 H 0.73172 0.87798 0.588 0.0
H410 H 0.72848 0.88089 0.75834 0.0
H411 H 0.74422 0.88276 0.93021 0.0
H412 H 0.81098 0.87882 0.99118 0.0
H413 H 0.81452 0.87627 0.82065 0.0
C414 C 0.78344 0.87616 0.6713 0.0
C415 C 0.76555 0.87609 0.60009 0.0
C416 C 0.7815 0.87782 0.77283 0.0
C417 C 0.74592 0.8778 0.63672 0.0
C418 C 0.74402 0.87956 0.73606 0.0
C419 C 0.75972 0.88147 0.90721 0.0
C420 C 0.7774 0.88123 0.97849 0.0
C421 C 0.76164 0.87966 0.80583 0.0
C422 C 0.79694 0.87922 0.94217 0.0
C423 C 0.799 0.8777 0.84281 0.0
H424 H 0.24415 0.86073 0.86759 0.0
H425 H 0.30668 0.84771 0.85148 0.0
H426 H 0.31178 0.84848 1.02472 0.0
H427 H 0.2988 0.85275 0.1871 0.0
H428 H 0.23595 0.86532 0.20114 0.0
H429 H 0.23117 0.86482 1.02867 0.0
C430 C 0.25896 0.85797 0.90107 0.0
C431 C 0.27492 0.85406 0.84168 0.0
C432 C 0.26194 0.8584 1.0038 0.0
C433 C 0.29384 0.85067 0.89113 0.0
C434 C 0.29685 0.85115 0.99205 0.0
C435 C 0.28401 0.85548 0.15327 0.0
C436 C 0.26783 0.85917 0.21213 0.0
C437 C 0.28108 0.85502 1.05029 0.0
C438 C 0.24893 0.86246 0.16211 0.0
C439 C 0.24609 0.86216 1.06154 0.0
H440 H 0.31039 0.3347 1.0946 0.0
H441 H 0.23757 0.24445 0.98252 0.0
H442 H 0.2317 0.23601 0.14668 0.0
H443 H 0.24668 0.25399 0.32794 0.0
H444 H 0.31987 0.34405 0.43792 0.0
H445 H 0.3256 0.35209 0.27426 0.0
C446 C 0.29315 0.31303 0.10513 0.0
C447 C 0.27452 0.29034 1.0218 0.0
C448 C 0.28975 0.30802 0.20244 0.0
C449 C 0.25253 0.26265 1.04166 0.0
C450 C 0.24907 0.25772 0.13719 0.0
C451 C 0.26401 0.27539 0.31694 0.0
C452 C 0.28275 0.29827 0.40002 0.0
C453 C 0.26747 0.28016 0.2192 0.0
C454 C 0.30483 0.32567 0.37937 0.0
C455 C 0.30822 0.33043 0.28399 0.0
H456 H 0.43038 0.04503 0.40482 0.0
H457 H 0.50699 0.11406 0.37564 0.0
H458 H 0.49857 0.08552 0.21103 0.0
H459 H 0.46551 0.06928 1.07379 0.0
H460 H 0.38721 1.01636 0.1045 0.0
H461 H 0.39867 1.00734 0.26068 0.0
C462 C 0.44556 0.05238 0.36356 0.0
C463 C 0.46801 0.08393 0.39563 0.0
C464 C 0.43917 0.03902 0.26442 0.0
C465 C 0.48856 0.09147 0.34844 0.0
C466 C 0.48356 0.07542 0.2529 0.0
C467 C 0.45073 0.05422 0.11225 0.0
C468 C 0.42612 0.04769 1.08574 0.0
C469 C 0.4581 0.05342 0.20726 0.0
C470 C 0.40684 0.02463 0.12903 0.0
C471 C 0.41349 1.01992 0.21952 0.0
H472 H 0.84088 0.11506 0.37264 0.0
H473 H 0.83495 0.17349 0.17829 0.0
H474 H 0.827 0.13171 1.04131 0.0
H475 H 0.84182 0.09538 0.98952 0.0
H476 H 0.85272 0.04119 0.18735 0.0
H477 H 0.83789 0.0637 0.3083 0.0
C478 C 0.83637 0.11788 0.30039 0.0
C479 C 0.84038 0.14844 0.28523 0.0
C480 C 0.83366 0.09489 0.22203 0.0
C481 C 0.83324 0.15084 0.19154 0.0
C482 C 0.82902 0.12709 0.1129 0.0
C483 C 0.83947 0.0867 1.05686 0.0
C484 C 0.85041 0.06894 1.08282 0.0
C485 C 0.83231 0.10131 0.12823 0.0
C486 C 0.84574 0.05641 0.16782 0.0
C487 C 0.83745 0.06957 0.23774 0.0
H488 H 1.00382 0.62318 0.27274 0.0
H489 H 0.02751 0.6835 0.55783 0.0
H490 H 0.05713 0.73201 0.49844 0.0
H491 H 0.06224 0.75913 0.36136 0.0
H492 H 0.03225 0.69914 1.07426 0.0
H493 H 1.02024 0.64982 0.13905 0.0
C494 C 1.01624 0.6467 0.32282 0.0
C495 C 1.0121 0.65003 0.41793 0.0
C496 C 0.03182 0.67527 0.28722 0.0
C497 C 0.02942 0.68016 0.48319 0.0
C498 C 0.04626 0.70826 0.44929 0.0
C499 C 0.05414 0.73546 0.3126 0.0
C500 C 0.04677 0.73264 0.2138 0.0
C501 C 0.0455 0.70661 0.35024 0.0
C502 C 0.03751 0.70214 0.15109 0.0
C503 C 0.03029 0.67362 0.18793 0.0
H504 H 0.2243 0.32278 0.52776 0.0
H505 H 0.27647 0.40172 0.76779 0.0
H506 H 0.26251 0.43705 0.71538 0.0
H507 H 0.23568 0.44603 0.59997 0.0
H508 H 0.18394 0.36689 0.35922 0.0
H509 H 0.19729 0.33149 0.41392 0.0
C510 C 0.23263 0.34769 0.56897 0.0
C511 C 0.25155 0.35939 0.65193 0.0
C512 C 0.22448 0.36802 0.53828 0.0
C513 C 0.26193 0.39184 0.7039 0.0
C514 C 0.25394 0.41216 0.67375 0.0
C515 C 0.22735 0.42111 0.55898 0.0
C516 C 0.20858 0.40942 0.47525 0.0
C517 C 0.23529 0.40063 0.59071 0.0
C518 C 0.198 0.37672 0.42459 0.0
C519 C 0.2058 0.35638 0.45552 0.0
H520 H 0.69449 0.65214 0.16334 0.0
H521 H 0.62954 0.64849 1.01713 0.0
H522 H 0.65152 0.70865 1.06342 0.0
H523 H 0.68949 0.76376 0.1468 0.0
H524 H 0.7541 0.76699 0.29511 0.0
H525 H 0.73221 0.70702 0.24775 0.0
C526 C 0.68513 0.66441 0.14086 0.0
C527 C 0.66011 0.64494 1.08576 0.0
C528 C 0.69792 0.69967 0.16911 0.0
C529 C 0.64862 0.66207 1.05911 0.0
C530 C 0.66125 0.69685 1.08592 0.0
C531 C 0.6988 0.75145 0.16953 0.0
C532 C 0.72374 0.77084 0.22549 0.0
C533 C 0.68593 0.71614 0.14146 0.0
C534 C 0.73509 0.75358 0.25261 0.0
C535 C 0.72251 0.71886 0.22514 0.0
H536 H 0.49183 0.96014 0.16491 0.0
H537 H 0.44881 0.98928 0.997 0.0
H538 H 0.41595 0.96719 1.09607 0.0
H539 H 0.39926 0.93898 0.2291 0.0
H540 H 0.44155 0.90743 0.39111 0.0
H541 H 0.47537 0.93242 0.29833 0.0
C542 C 0.47545 0.96212 0.15094 0.0
C543 C 0.47275 0.97629 1.07367 0.0
C544 C 0.45663 0.94929 0.20787 0.0
C545 C 0.4512 0.97816 1.05543 0.0
C546 C 0.43249 0.96573 0.11243 0.0
C547 C 0.41576 0.93731 0.24375 0.0
C548 C 0.41771 0.92119 0.31711 0.0
C549 C 0.43491 0.951 0.18837 0.0
C550 C 0.43959 0.92002 0.33623 0.0
C551 C 0.45889 0.93407 0.28258 0.0
H552 H 0.54863 0.11189 0.75555 0.0
H553 H 0.60722 0.20037 0.95581 0.0
H554 H 0.57886 0.22132 0.95767 0.0
H555 H 0.53604 0.21387 0.90527 0.0
H556 H 0.47953 0.1266 0.69528 0.0
H557 H 0.50799 0.10639 0.69478 0.0
C558 C 0.55549 0.13598 0.79941 0.0
C559 C 0.58056 0.15425 0.8558 0.0
C560 C 0.53904 0.14821 0.79879 0.0
C561 C 0.58849 0.18551 0.91097 0.0
C562 C 0.57201 0.19747 0.91244 0.0
C563 C 0.5299 0.19042 0.85917 0.0
C564 C 0.50505 0.17191 0.80034 0.0
C565 C 0.54702 0.17898 0.85728 0.0
C566 C 0.49814 0.14175 0.74101 0.0
C567 C 0.51457 0.13001 0.7409 0.0
H568 H 1.02055 0.28732 1.04623 0.0
H569 H 0.98316 0.31578 0.84625 0.0
H570 H 1.01118 0.37362 0.92703 0.0
H571 H 0.04707 0.41733 1.05141 0.0
H572 H 0.08719 0.39143 0.24748 0.0
H573 H 0.05786 0.3325 0.17235 0.0
C574 C 1.0184 0.30613 1.02083 0.0
C575 C 0.99934 0.29653 0.93937 0.0
C576 C 0.03535 0.34032 1.06708 0.0
C577 C 0.99743 0.32184 0.90778 0.0
C578 C 1.01356 0.35522 0.95428 0.0
C579 C 0.04945 0.39892 1.07862 0.0
C580 C 0.06952 0.40944 0.15648 0.0
C581 C 0.03272 0.36493 1.03355 0.0
C582 C 0.07209 0.38463 0.18843 0.0
C583 C 0.05519 0.35067 0.14513 0.0
H584 H 0.87753 0.67668 0.9773 0.0
H585 H 0.8536 0.60806 0.70648 0.0
H586 H 0.80969 0.58034 0.72895 0.0
H587 H 0.77757 0.57559 0.82293 0.0
H588 H 0.80055 0.64358 1.09377 0.0
H589 H 0.84489 0.67155 1.07295 0.0
C590 C 0.86274 0.65555 0.92354 0.0
C591 C 0.86911 0.64464 0.84026 0.0
C592 C 0.83714 0.63964 0.93631 0.0
C593 C 0.84949 0.61728 0.77116 0.0
C594 C 0.82423 0.60128 0.78384 0.0
C595 C 0.79225 0.59635 0.87797 0.0
C596 C 0.78552 0.60731 0.95985 0.0
C597 C 0.81778 0.61227 0.8658 0.0
C598 C 0.80496 0.63473 1.02931 0.0
C599 C 0.83043 0.65065 1.01781 0.0
H600 H 1.00875 0.67338 0.88752 0.0
H601 H 0.93206 0.59687 0.89922 0.0
H602 H 0.94728 0.56393 0.96108 0.0
H603 H 0.98261 0.558 1.01825 0.0
H604 H 0.05932 0.63396 1.00284 0.0
H605 H 0.04379 0.66517 0.93211 0.0
C606 C 0.99542 0.64946 0.90361 0.0
C607 C 0.96938 0.63779 0.89076 0.0
C608 C 1.00427 0.63028 0.9368 0.0
C609 C 0.95221 0.60646 0.9095 0.0
C610 C 0.96091 0.58763 0.94474 0.0
C611 C 0.99598 0.58142 0.99967 0.0
C612 C 1.02218 0.59368 1.01717 0.0
C613 C 0.98694 0.59948 0.95989 0.0
C614 C 0.03906 0.62367 0.98983 0.0
C615 C 0.03021 0.64172 0.94984 0.0
H616 H 0.53902 0.42323 0.86557 0.0
H617 H 0.5946 0.42285 1.06584 0.0
H618 H 0.567 0.36227 1.0438 0.0
H619 H 0.52626 0.30815 0.96754 0.0
H620 H 0.47309 0.30899 0.75568 0.0
H621 H 0.50006 0.36952 0.78243 0.0
C622 C 0.54526 0.41003 0.90448 0.0
C623 C 0.56922 0.4284 0.96811 0.0
C624 C 0.52938 0.37467 0.88948 0.0
C625 C 0.5766 0.41006 1.0163 0.0
C626 C 0.56062 0.37512 1.00388 0.0
C627 C 0.52048 0.32155 0.92746 0.0
C628 C 0.49712 0.30334 0.86002 0.0
C629 C 0.53682 0.35695 0.94087 0.0
C630 C 0.49062 0.32172 0.80802 0.0
C631 C 0.50617 0.35662 0.8234 0.0
H632 H 0.885 0.23415 0.81573 0.0
H633 H 0.86068 0.13527 0.85323 0.0
H634 H 0.81862 0.12433 0.87057 0.0
H635 H 0.78857 0.14344 0.88282 0.0
H636 H 0.81377 0.24285 0.84635 0.0
H637 H 0.8551 0.25292 0.8258 0.0
C638 C 0.87066 0.21026 0.82886 0.0
C639 C 0.87657 0.18573 0.83362 0.0
C640 C 0.84641 0.20431 0.84172 0.0
C641 C 0.85725 0.15495 0.8502 0.0
C642 C 0.833 0.14865 0.86043 0.0
C643 C 0.80296 0.16733 0.87001 0.0
C644 C 0.7974 0.19238 0.86791 0.0
C645 C 0.8273 0.17322 0.85752 0.0
C646 C 0.81697 0.22308 0.85133 0.0
C647 C 0.84087 0.22891 0.83854 0.0
H648 H 0.61581 0.99627 0.89705 0.0
H649 H 0.69023 0.08605 0.94299 0.0
H650 H 0.70936 0.05802 1.00774 0.0
H651 H 0.7053 1.00859 1.05766 0.0
H652 H 0.63094 0.91898 1.016 0.0
H653 H 0.61191 0.94606 0.94323 0.0
C654 C 0.63625 1.0096 0.9199 0.0
C655 C 0.6514 0.04343 0.91448 0.0
C656 C 0.64733 0.99331 0.95879 0.0
C657 C 0.67789 0.06014 0.9459 0.0
C658 C 0.68895 0.04409 0.98344 0.0
C659 C 0.6849 0.99491 1.03319 0.0
C660 C 0.66978 0.9615 1.04286 0.0
C661 C 0.67388 1.0108 0.99162 0.0
C662 C 0.64335 0.94442 1.00881 0.0
C663 C 0.63232 0.96003 0.96744 0.0
H664 H 0.25151 0.73693 0.44768 0.0
H665 H 0.18781 0.74822 0.45586 0.0
H666 H 0.15849 0.68869 0.40253 0.0
H667 H 0.14988 0.63262 0.35192 0.0
H668 H 0.21244 0.61913 0.34558 0.0
H669 H 0.24256 0.67928 0.39872 0.0
C670 C 0.23123 0.72646 0.43833 0.0
C671 C 0.22232 0.74804 0.45675 0.0
C672 C 0.21392 0.69128 0.40706 0.0
C673 C 0.19573 0.73314 0.44321 0.0
C674 C 0.17871 0.6987 0.41217 0.0
C675 C 0.17009 0.64258 0.36158 0.0
C676 C 0.1785 0.62054 0.34338 0.0
C677 C 0.18746 0.67743 0.39344 0.0
C678 C 0.20501 0.63481 0.35805 0.0
C679 C 0.22239 0.6695 0.38883 0.0
H680 H 0.45841 0.50793 0.26368 0.0
H681 H 0.5074 0.47812 0.38172 0.0
H682 H 0.48074 0.45551 0.50102 0.0
H683 H 0.44296 0.44276 0.56893 0.0
H684 H 0.39355 0.47196 0.45141 0.0
H685 H 0.42067 0.4957 0.33354 0.0
C686 C 0.46314 0.49632 0.31523 0.0
C687 C 0.4849 0.49484 0.31404 0.0
C688 C 0.44762 0.48314 0.38338 0.0
C689 C 0.49097 0.48004 0.38199 0.0
C690 C 0.47566 0.46692 0.44989 0.0
C691 C 0.43832 0.45474 0.51846 0.0
C692 C 0.41634 0.4557 0.51911 0.0
C693 C 0.45394 0.46829 0.45115 0.0
C694 C 0.41028 0.47069 0.45185 0.0
C695 C 0.42581 0.48435 0.38469 0.0
H696 H 0.89751 0.71435 0.52513 0.0
H697 H 0.92561 0.78095 0.80245 0.0
H698 H 0.90749 0.81073 0.74403 0.0
H699 H 0.88356 0.81831 0.61572 0.0
H700 H 0.85511 0.75263 0.33745 0.0
H701 H 0.87302 0.722 0.39508 0.0
C702 C 0.89974 0.73544 0.57259 0.0
C703 C 0.91301 0.74523 0.66821 0.0
C704 C 0.88903 0.75263 0.53866 0.0
C705 C 0.9155 0.77257 0.72867 0.0
C706 C 0.90512 0.78977 0.69537 0.0
C707 C 0.88141 0.79745 0.56728 0.0
C708 C 0.86805 0.78796 0.47223 0.0
C709 C 0.89185 0.78006 0.60069 0.0
C710 C 0.86507 0.76037 0.4113 0.0
C711 C 0.87547 0.74295 0.44404 0.0
H712 H 0.36307 0.08619 0.60999 0.0
H713 H 0.41947 0.07978 0.78526 0.0
H714 H 0.39215 1.01929 0.74765 0.0
H715 H 0.35167 0.96698 0.66606 0.0
H716 H 0.29359 0.97297 0.50168 0.0
H717 H 0.32162 0.03355 0.53332 0.0
C718 C 0.36948 0.07161 0.63969 0.0
C719 C 0.39375 0.08828 0.70059 0.0
C720 C 0.3531 0.03614 0.61954 0.0
C721 C 0.40114 0.06831 0.73875 0.0
C722 C 0.38541 0.03338 0.71694 0.0
C723 C 0.34507 0.98141 0.63671 0.0
C724 C 0.3202 0.96463 0.58046 0.0
C725 C 0.36125 1.01683 0.65759 0.0
C726 C 0.31234 0.98452 0.54496 0.0
C727 C 0.32852 1.01948 0.56309 0.0
H728 H 1.02562 0.19473 0.84531 0.0
H729 H 1.01453 0.21912 0.57113 0.0
H730 H 0.05366 0.22354 0.537 0.0
H731 H 0.09213 0.22135 0.58567 0.0
H732 H 0.10194 0.19578 0.85954 0.0
H733 H 0.06296 0.19122 0.89174 0.0
C734 C 0.03163 0.20107 0.77786 0.0
C735 C 1.01664 0.20665 0.71135 0.0
C736 C 0.05437 0.20349 0.75818 0.0
C737 C 1.02525 0.21467 0.62442 0.0
C738 C 0.04783 0.2172 0.60465 0.0
C739 C 0.08572 0.21449 0.65215 0.0
C740 C 0.10082 0.20941 0.72027 0.0
C741 C 0.0627 0.21171 0.67092 0.0
C742 C 0.09163 0.20069 0.80595 0.0
C743 C 0.06899 0.19783 0.82455 0.0
H744 H 0.36355 0.19075 0.63684 0.0
H745 H 0.40767 0.25563 0.91066 0.0
H746 H 0.37815 0.27391 0.9198 0.0
H747 H 0.34029 0.27348 0.85049 0.0
H748 H 0.29344 0.20656 0.58322 0.0
H749 H 0.32266 0.18711 0.57256 0.0
C750 C 0.3668 0.20894 0.69859 0.0
C751 C 0.38862 0.22188 0.77277 0.0
C752 C 0.34881 0.21893 0.7053 0.0
C753 C 0.3916 0.24502 0.85222 0.0
C754 C 0.37451 0.2556 0.85762 0.0
C755 C 0.33603 0.25417 0.79019 0.0
C756 C 0.31398 0.24156 0.71815 0.0
C757 C 0.35304 0.24289 0.78487 0.0
C758 C 0.30955 0.21663 0.64108 0.0
C759 C 0.32665 0.20571 0.63448 0.0
H760 H 0.85634 0.98217 0.43978 0.0
H761 H 0.7941 0.99598 0.38613 0.0
H762 H 0.82129 0.05354 0.47338 0.0
H763 H 0.86346 0.1014 0.56398 0.0
H764 H 0.92455 0.08596 0.62643 0.0
H765 H 0.89764 0.02887 0.53569 0.0
C766 C 0.84868 0.99777 0.44572 0.0
C767 C 0.82293 0.98415 0.40392 0.0
C768 C 0.86454 0.03124 0.49732 0.0
C769 C 0.81367 1.00521 0.41564 0.0
C770 C 0.82931 0.03838 0.46637 0.0
C771 C 0.87095 0.08561 0.55748 0.0
C772 C 0.89639 0.09861 0.60211 0.0
C773 C 0.85492 0.05196 0.50684 0.0
C774 C 0.90529 0.07715 0.5934 0.0
C775 C 0.88981 0.04427 0.5411 0.0
H776 H 1.0243 0.71143 0.73052 0.0
H777 H 1.01263 0.78837 0.67096 0.0
H778 H 0.05536 0.81981 0.63336 0.0
H779 H 0.09586 0.82518 0.61555 0.0
H780 H 0.1083 0.74916 0.68024 0.0
H781 H 0.06606 0.71848 0.72167 0.0
C782 C 0.03117 0.73505 0.709 0.0
C783 C 1.01522 0.74735 0.7018 0.0
C784 C 0.0561 0.75351 0.69037 0.0
C785 C 1.0245 0.77831 0.67613 0.0
C786 C 0.04894 0.7963 0.65483 0.0
C787 C 0.08932 0.80178 0.63798 0.0
C788 C 0.10535 0.78949 0.64366 0.0
C789 C 0.06488 0.78408 0.66115 0.0
C790 C 0.09663 0.75951 0.67574 0.0
C791 C 0.07235 0.74178 0.69904 0.0
loop_
_geom_bond_atom_site_label_1
_geom_bond_atom_site_label_2
_geom_bond_distance
_geom_bond_site_symmetry_2
_ccdc_geom_bond_type
Tb0 C10 2.825 . S
Tb0 O11 2.347 . S
Tb0 O14 2.366 . S
Tb0 O19 2.418 1_554 S
Tb0 O20 2.384 . S
Tb0 O23 2.479 . S
Tb0 O24 2.471 . S
Eu1 O12 2.418 . S
Eu1 O13 2.384 . S
Eu1 O16 2.521 . S
Eu1 O17 2.471 1_554 S
Eu1 O18 2.347 1_554 S
Eu1 O21 2.366 . S
Eu1 C31 2.825 . S
C2 O18 1.259 . S
C2 O19 1.265 . S
C3 O20 1.255 . S
C3 O21 1.265 . S
C4 C6 1.380 . S
C4 C7 1.374 . S
C4 C10 1.507 . S
C5 C6 1.384 . S
C5 C9 1.387 . S
C5 H32 0.930 . S
C6 C4 1.380 . S
C6 C5 1.384 . S
C6 H33 0.931 . S
C7 C4 1.374 . S
C7 C8 1.390 . S
C7 H34 0.930 . S
C8 C7 1.390 . S
C8 C9 1.391 . S
C8 H35 0.930 . S
C9 C5 1.387 . S
C9 C8 1.391 . S
C10 Tb0 2.825 . S
C10 C4 1.507 . S
C10 O23 1.238 . S
C10 O24 1.247 . S
O11 Tb0 2.347 . S
O11 C15 1.259 . S
O12 Eu1 2.418 . S
O12 C15 1.265 . S
O13 Eu1 2.384 . S
O13 C22 1.255 . S
O14 Tb0 2.366 . S
O14 C22 1.265 . S
C15 O11 1.259 . S
C15 O12 1.265 . S
O16 Eu1 2.521 . S
O16 C31 1.242 . S
O17 Eu1 2.471 1_556 S
O17 C31 1.247 1_556 S
O18 Eu1 2.347 1_556 S
O18 C2 1.259 . S
O19 Tb0 2.418 1_556 S
O19 C2 1.265 . S
O20 Tb0 2.384 . S
O20 C3 1.255 . S
O21 Eu1 2.366 . S
O21 C3 1.265 . S
C22 O13 1.255 . S
C22 O14 1.265 . S
O23 Tb0 2.479 . S
O23 C10 1.238 . S
O24 Tb0 2.471 . S
O24 C10 1.247 . S
C25 C28 1.380 1_556 S
C25 C29 1.374 1_655 S
C25 C31 1.507 1_656 S
C26 C27 1.387 1_556 S
C26 C30 1.391 1_655 S
C27 C26 1.387 1_554 S
C27 C28 1.384 . S
C27 H36 0.930 . S
C28 C25 1.380 1_554 S
C28 C27 1.384 . S
C28 H37 0.931 . S
C29 C25 1.374 1_455 S
C29 C30 1.390 . S
C29 H38 0.930 . S
C30 C26 1.391 1_455 S
C30 C29 1.390 . S
C30 H39 0.930 . S
C31 Eu1 2.825 . S
C31 O16 1.242 . S
C31 O17 1.247 1_554 S
C31 C25 1.507 1_454 S
H32 C5 0.930 . S
H33 C6 0.931 . S
H34 C7 0.930 . S
H35 C8 0.930 . S
H36 C27 0.930 . S
H37 C28 0.931 . S
H38 C29 0.930 . S
H39 C30 0.930 . S
Tb40 C50 2.825 . S
Tb40 O51 2.347 . S
Tb40 O54 2.366 . S
Tb40 O59 2.418 . S
Tb40 O60 2.384 . S
Tb40 O63 2.479 . S
Tb40 O64 2.471 . S
Eu41 O52 2.418 1_554 S
Eu41 O53 2.384 . S
Eu41 O56 2.479 . S
Eu41 O57 2.471 . S
Eu41 O58 2.347 . S
Eu41 O61 2.366 . S
Eu41 C71 2.825 . S
C42 O58 1.259 . S
C42 O59 1.265 . S
C43 O60 1.255 . S
C43 O61 1.265 . S
C44 C46 1.380 . S
C44 C47 1.374 . S
C44 C50 1.507 . S
C45 C46 1.384 . S
C45 C49 1.387 . S
C45 H72 0.930 . S
C46 C44 1.380 . S
C46 C45 1.384 . S
C46 H73 0.931 . S
C47 C44 1.374 . S
C47 C48 1.390 . S
C47 H74 0.930 . S
C48 C47 1.390 . S
C48 C49 1.391 . S
C48 H75 0.926 1_554 S
C49 C45 1.387 . S
C49 C48 1.391 . S
C50 Tb40 2.825 . S
C50 C44 1.507 . S
C50 O63 1.238 . S
C50 O64 1.247 . S
O51 Tb40 2.347 . S
O51 C55 1.259 1_554 S
O52 Eu41 2.418 1_556 S
O52 C55 1.265 . S
O53 Eu41 2.384 . S
O53 C62 1.255 . S
O54 Tb40 2.366 . S
O54 C62 1.265 . S
C55 O51 1.259 1_556 S
C55 O52 1.265 . S
O56 Eu41 2.479 . S
O56 C71 1.238 . S
O57 Eu41 2.471 . S
O57 C71 1.247 . S
O58 Eu41 2.347 . S
O58 C42 1.259 . S
O59 Tb40 2.418 . S
O59 C42 1.265 . S
O60 Tb40 2.384 . S
O60 C43 1.255 . S
O61 Eu41 2.366 . S
O61 C43 1.265 . S
C62 O53 1.255 . S
C62 O54 1.265 . S
O63 Tb40 2.479 . S
O63 C50 1.238 . S
O64 Tb40 2.471 . S
O64 C50 1.247 . S
C65 C68 1.380 . S
C65 C69 1.374 . S
C65 C71 1.507 . S
C66 C67 1.387 . S
C66 C70 1.391 . S
C67 C66 1.387 . S
C67 C68 1.384 . S
C67 H76 0.930 . S
C68 C65 1.380 . S
C68 C67 1.384 . S
C68 H77 0.931 . S
C69 C65 1.374 . S
C69 C70 1.390 . S
C69 H78 0.930 . S
C70 C66 1.391 . S
C70 C69 1.390 . S
C70 H79 0.930 . S
C71 Eu41 2.825 . S
C71 O56 1.238 . S
C71 O57 1.247 . S
C71 C65 1.507 . S
H72 C45 0.930 . S
H73 C46 0.931 . S
H74 C47 0.930 . S
H75 C48 0.926 1_556 S
H76 C67 0.930 . S
H77 C68 0.931 . S
H78 C69 0.930 . S
H79 C70 0.930 . S
Tb80 C90 2.825 . S
Tb80 O91 2.347 . S
Tb80 O94 2.366 . S
Tb80 O99 2.418 1_554 S
Tb80 O100 2.384 . S
Tb80 O103 2.479 . S
Tb80 O104 2.471 . S
Eu81 O92 2.418 . S
Eu81 O93 2.384 . S
Eu81 O96 2.479 . S
Eu81 O97 2.471 . S
Eu81 O98 2.347 . S
Eu81 O101 2.366 . S
Eu81 C111 2.825 . S
C82 O98 1.259 1_556 S
C82 O99 1.265 . S
C83 O100 1.255 . S
C83 O101 1.265 . S
C84 C86 1.380 . S
C84 C87 1.374 . S
C84 C90 1.507 . S
C85 C86 1.384 . S
C85 C89 1.387 . S
C85 H112 0.930 1_545 S
C86 C84 1.380 . S
C86 C85 1.384 . S
C86 H113 0.931 . S
C87 C84 1.374 . S
C87 C88 1.390 . S
C87 H114 0.930 . S
C88 C87 1.390 . S
C88 C89 1.391 . S
C88 H115 0.930 . S
C89 C85 1.387 . S
C89 C88 1.391 . S
C90 Tb80 2.825 . S
C90 C84 1.507 . S
C90 O103 1.238 . S
C90 O104 1.247 . S
O91 Tb80 2.347 . S
O91 C95 1.259 . S
O92 Eu81 2.418 . S
O92 C95 1.265 . S
O93 Eu81 2.384 . S
O93 C102 1.255 . S
O94 Tb80 2.366 . S
O94 C102 1.265 . S
C95 O91 1.259 . S
C95 O92 1.265 . S
O96 Eu81 2.479 . S
O96 C111 1.238 . S
O97 Eu81 2.471 . S
O97 C111 1.247 . S
O98 Eu81 2.347 . S
O98 C82 1.259 1_554 S
O99 Tb80 2.418 1_556 S
O99 C82 1.265 . S
O100 Tb80 2.384 . S
O100 C83 1.255 . S
O101 Eu81 2.366 . S
O101 C83 1.265 . S
C102 O93 1.255 . S
C102 O94 1.265 . S
O103 Tb80 2.479 . S
O103 C90 1.238 . S
O104 Tb80 2.471 . S
O104 C90 1.247 . S
C105 C108 1.380 . S
C105 C109 1.374 . S
C105 C111 1.507 . S
C106 C107 1.387 . S
C106 C110 1.391 . S
C107 C106 1.387 . S
C107 C108 1.384 . S
C107 H116 0.930 . S
C108 C105 1.380 . S
C108 C107 1.384 . S
C108 H117 0.931 . S
C109 C105 1.374 . S
C109 C110 1.390 . S
C109 H118 0.930 . S
C110 C106 1.391 . S
C110 C109 1.390 . S
C110 H119 0.930 . S
C111 Eu81 2.825 . S
C111 O96 1.238 . S
C111 O97 1.247 . S
C111 C105 1.507 . S
H112 C85 0.930 1_565 S
H113 C86 0.931 . S
H114 C87 0.930 . S
H115 C88 0.930 . S
H116 C107 0.930 . S
H117 C108 0.931 . S
H118 C109 0.930 . S
H119 C110 0.930 . S
Tb120 C130 2.825 . S
Tb120 O131 2.347 . S
Tb120 O134 2.366 . S
Tb120 O139 2.418 . S
Tb120 O140 2.384 . S
Tb120 O143 2.479 . S
Tb120 O144 2.471 . S
Eu121 O132 2.418 . S
Eu121 O133 2.384 . S
Eu121 O136 2.479 . S
Eu121 O137 2.471 . S
Eu121 O138 2.347 . S
Eu121 O141 2.366 . S
Eu121 C151 2.825 . S
C122 O138 1.259 . S
C122 O139 1.265 . S
C123 O140 1.255 . S
C123 O141 1.265 . S
C124 C126 1.380 . S
C124 C127 1.374 . S
C124 C130 1.507 . S
C125 C126 1.384 . S
C125 C129 1.387 . S
C125 H152 0.930 . S
C126 C124 1.380 . S
C126 C125 1.384 . S
C126 H153 0.931 . S
C127 C124 1.374 . S
C127 C128 1.390 . S
C127 H154 0.930 . S
C128 C127 1.390 . S
C128 C129 1.391 . S
C128 H155 0.930 . S
C129 C125 1.387 . S
C129 C128 1.391 . S
C130 Tb120 2.825 . S
C130 C124 1.507 . S
C130 O143 1.238 . S
C130 O144 1.247 . S
O131 Tb120 2.347 . S
O131 C135 1.259 . S
O132 Eu121 2.418 . S
O132 C135 1.265 . S
O133 Eu121 2.384 . S
O133 C142 1.255 . S
O134 Tb120 2.366 . S
O134 C142 1.265 . S
C135 O131 1.259 . S
C135 O132 1.265 . S
O136 Eu121 2.479 . S
O136 C151 1.238 . S
O137 Eu121 2.471 . S
O137 C151 1.247 . S
O138 Eu121 2.347 . S
O138 C122 1.259 . S
O139 Tb120 2.418 . S
O139 C122 1.265 . S
O140 Tb120 2.384 . S
O140 C123 1.255 . S
O141 Eu121 2.366 . S
O141 C123 1.265 . S
C142 O133 1.255 . S
C142 O134 1.265 . S
O143 Tb120 2.479 . S
O143 C130 1.238 . S
O144 Tb120 2.471 . S
O144 C130 1.247 . S
C145 C148 1.380 . S
C145 C149 1.374 . S
C145 C151 1.507 . S
C146 C147 1.387 . S
C146 C150 1.391 . S
C147 C146 1.387 . S
C147 C148 1.384 . S
C147 H156 0.930 . S
C148 C145 1.380 . S
C148 C147 1.384 . S
C148 H157 0.931 . S
C149 C145 1.374 . S
C149 C150 1.390 . S
C149 H158 0.930 . S
C150 C146 1.391 . S
C150 C149 1.390 . S
C150 H159 0.930 . S
C151 Eu121 2.825 . S
C151 O136 1.238 . S
C151 O137 1.247 . S
C151 C145 1.507 . S
H152 C125 0.930 . S
H153 C126 0.931 . S
H154 C127 0.930 . S
H155 C128 0.930 . S
H156 C147 0.930 . S
H157 C148 0.931 . S
H158 C149 0.930 . S
H159 C150 0.930 . S
Tb160 C170 2.825 . S
Tb160 O171 2.347 . S
Tb160 O174 2.366 . S
Tb160 O179 2.418 . S
Tb160 O180 2.384 . S
Tb160 O183 2.479 . S
Tb160 O184 2.471 . S
Eu161 O172 2.418 . S
Eu161 O173 2.384 . S
Eu161 O176 2.479 . S
Eu161 O177 2.471 . S
Eu161 O178 2.347 . S
Eu161 O181 2.366 . S
Eu161 C191 2.825 . S
C162 O178 1.259 . S
C162 O179 1.265 . S
C163 O180 1.255 . S
C163 O181 1.265 . S
C164 C166 1.380 . S
C164 C167 1.374 . S
C164 C170 1.507 . S
C165 C166 1.384 . S
C165 C169 1.387 . S
C165 H192 0.930 . S
C166 C164 1.380 . S
C166 C165 1.384 . S
C166 H193 0.931 . S
C167 C164 1.374 . S
C167 C168 1.390 . S
C167 H194 0.930 . S
C168 C167 1.390 . S
C168 C169 1.391 . S
C168 H195 0.930 . S
C169 C165 1.387 . S
C169 C168 1.391 . S
C170 Tb160 2.825 . S
C170 C164 1.507 . S
C170 O183 1.238 . S
C170 O184 1.247 . S
O171 Tb160 2.347 . S
O171 C175 1.259 . S
O172 Eu161 2.418 . S
O172 C175 1.265 . S
O173 Eu161 2.384 . S
O173 C182 1.255 . S
O174 Tb160 2.366 . S
O174 C182 1.265 . S
C175 O171 1.259 . S
C175 O172 1.265 . S
O176 Eu161 2.479 . S
O176 C191 1.238 . S
O177 Eu161 2.471 . S
O177 C191 1.247 . S
O178 Eu161 2.347 . S
O178 C162 1.259 . S
O179 Tb160 2.418 . S
O179 C162 1.265 . S
O180 Tb160 2.384 . S
O180 C163 1.255 . S
O181 Eu161 2.366 . S
O181 C163 1.265 . S
C182 O173 1.255 . S
C182 O174 1.265 . S
O183 Tb160 2.479 . S
O183 C170 1.238 . S
O184 Tb160 2.471 . S
O184 C170 1.247 . S
C185 C188 1.380 . S
C185 C189 1.374 . S
C185 C191 1.507 . S
C186 C187 1.387 . S
C186 C190 1.391 . S
C187 C186 1.387 . S
C187 C188 1.384 . S
C187 H196 0.930 . S
C188 C185 1.380 . S
C188 C187 1.384 . S
C188 H197 0.931 . S
C189 C185 1.374 . S
C189 C190 1.390 . S
C189 H198 0.930 . S
C190 C186 1.391 . S
C190 C189 1.390 . S
C190 H199 0.930 . S
C191 Eu161 2.825 . S
C191 O176 1.238 . S
C191 O177 1.247 . S
C191 C185 1.507 . S
H192 C165 0.930 . S
H193 C166 0.931 . S
H194 C167 0.930 . S
H195 C168 0.930 . S
H196 C187 0.930 . S
H197 C188 0.931 . S
H198 C189 0.930 . S
H199 C190 0.930 . S
Tb200 C210 2.825 . S
Tb200 O211 2.347 . S
Tb200 O214 2.366 . S
Tb200 O219 2.418 . S
Tb200 O220 2.384 . S
Tb200 O223 2.479 . S
Tb200 O224 2.471 . S
Eu201 O212 2.418 . S
Eu201 O213 2.384 . S
Eu201 O216 2.479 . S
Eu201 O217 2.471 . S
Eu201 O218 2.347 . S
Eu201 O221 2.366 . S
Eu201 C231 2.825 . S
C202 O218 1.259 . S
C202 O219 1.265 . S
C203 O220 1.255 . S
C203 O221 1.265 . S
C204 C206 1.380 . S
C204 C207 1.374 . S
C204 C210 1.507 . S
C205 C206 1.384 . S
C205 C209 1.387 . S
C205 H232 0.930 . S
C206 C204 1.380 . S
C206 C205 1.384 . S
C206 H233 0.931 . S
C207 C204 1.374 . S
C207 C208 1.390 . S
C207 H234 0.930 . S
C208 C207 1.390 . S
C208 C209 1.391 . S
C208 H235 0.930 . S
C209 C205 1.387 . S
C209 C208 1.391 . S
C210 Tb200 2.825 . S
C210 C204 1.507 . S
C210 O223 1.238 . S
C210 O224 1.247 . S
O211 Tb200 2.347 . S
O211 C215 1.259 . S
O212 Eu201 2.418 . S
O212 C215 1.265 . S
O213 Eu201 2.384 . S
O213 C222 1.255 . S
O214 Tb200 2.366 . S
O214 C222 1.265 . S
C215 O211 1.259 . S
C215 O212 1.265 . S
O216 Eu201 2.479 . S
O216 C231 1.238 . S
O217 Eu201 2.471 . S
O217 C231 1.247 . S
O218 Eu201 2.347 . S
O218 C202 1.259 . S
O219 Tb200 2.418 . S
O219 C202 1.265 . S
O220 Tb200 2.384 . S
O220 C203 1.255 . S
O221 Eu201 2.366 . S
O221 C203 1.265 . S
C222 O213 1.255 . S
C222 O214 1.265 . S
O223 Tb200 2.479 . S
O223 C210 1.238 . S
O224 Tb200 2.471 . S
O224 C210 1.247 . S
C225 C228 1.380 . S
C225 C229 1.374 . S
C225 C231 1.507 . S
C226 C227 1.387 . S
C226 C230 1.391 . S
C227 C226 1.387 . S
C227 C228 1.384 . S
C227 H236 0.930 . S
C228 C225 1.380 . S
C228 C227 1.384 . S
C228 H237 0.931 . S
C229 C225 1.374 . S
C229 C230 1.390 . S
C229 H238 0.930 . S
C230 C226 1.391 . S
C230 C229 1.390 . S
C230 H239 0.930 . S
C231 Eu201 2.825 . S
C231 O216 1.238 . S
C231 O217 1.247 . S
C231 C225 1.507 . S
H232 C205 0.930 . S
H233 C206 0.931 . S
H234 C207 0.930 . S
H235 C208 0.930 . S
H236 C227 0.930 . S
H237 C228 0.931 . S
H238 C229 0.930 . S
H239 C230 0.930 . S
Tb240 C250 2.825 . S
Tb240 O251 2.347 . S
Tb240 O254 2.366 . S
Tb240 O259 2.418 . S
Tb240 O260 2.384 . S
Tb240 O263 2.479 . S
Tb240 O264 2.471 . S
Eu241 O252 2.418 . S
Eu241 O253 2.384 . S
Eu241 O256 2.479 . S
Eu241 O257 2.471 . S
Eu241 O258 2.347 . S
Eu241 O261 2.366 . S
Eu241 C271 2.825 . S
C242 O258 1.259 . S
C242 O259 1.265 . S
C243 O260 1.255 . S
C243 O261 1.265 . S
C244 C246 1.380 . S
C244 C247 1.374 . S
C244 C250 1.507 . S
C245 C246 1.384 . S
C245 C249 1.387 . S
C245 H272 0.930 . S
C246 C244 1.380 . S
C246 C245 1.384 . S
C246 H273 0.931 . S
C247 C244 1.374 . S
C247 C248 1.390 . S
C247 H274 0.930 . S
C248 C247 1.390 . S
C248 C249 1.391 . S
C248 H275 0.930 . S
C249 C245 1.387 . S
C249 C248 1.391 . S
C250 Tb240 2.825 . S
C250 C244 1.507 . S
C250 O263 1.238 . S
C250 O264 1.247 . S
O251 Tb240 2.347 . S
O251 C255 1.259 . S
O252 Eu241 2.418 . S
O252 C255 1.265 . S
O253 Eu241 2.384 . S
O253 C262 1.255 . S
O254 Tb240 2.366 . S
O254 C262 1.265 . S
C255 O251 1.259 . S
C255 O252 1.265 . S
O256 Eu241 2.479 . S
O256 C271 1.238 . S
O257 Eu241 2.471 . S
O257 C271 1.247 . S
O258 Eu241 2.347 . S
O258 C242 1.259 . S
O259 Tb240 2.418 . S
O259 C242 1.265 . S
O260 Tb240 2.384 . S
O260 C243 1.255 . S
O261 Eu241 2.366 . S
O261 C243 1.265 . S
C262 O253 1.255 . S
C262 O254 1.265 . S
O263 Tb240 2.479 . S
O263 C250 1.238 . S
O264 Tb240 2.471 . S
O264 C250 1.247 . S
C265 C268 1.380 . S
C265 C269 1.374 . S
C265 C271 1.507 1_554 S
C266 C267 1.387 . S
C266 C270 1.391 . S
C267 C266 1.387 . S
C267 C268 1.384 . S
C267 H276 0.930 . S
C268 C265 1.380 . S
C268 C267 1.384 . S
C268 H277 0.931 . S
C269 C265 1.374 . S
C269 C270 1.390 . S
C269 H278 0.930 . S
C270 C266 1.391 . S
C270 C269 1.390 . S
C270 H279 0.930 . S
C271 Eu241 2.825 . S
C271 O256 1.238 . S
C271 O257 1.247 . S
C271 C265 1.507 1_556 S
H272 C245 0.930 . S
H273 C246 0.931 . S
H274 C247 0.930 . S
H275 C248 0.930 . S
H276 C267 0.930 . S
H277 C268 0.931 . S
H278 C269 0.930 . S
H279 C270 0.930 . S
Tb280 C290 2.825 . S
Tb280 O291 2.347 . S
Tb280 O294 2.366 . S
Tb280 O299 2.418 . S
Tb280 O300 2.384 . S
Tb280 O303 2.479 . S
Tb280 O304 2.471 . S
Eu281 O292 2.418 . S
Eu281 O293 2.384 . S
Eu281 O296 2.479 . S
Eu281 O297 2.471 . S
Eu281 O298 2.347 . S
Eu281 O301 2.366 . S
Eu281 C311 2.825 . S
C282 O298 1.259 . S
C282 O299 1.265 . S
C283 O300 1.255 . S
C283 O301 1.265 . S
C284 C286 1.380 . S
C284 C287 1.374 . S
C284 C290 1.507 1_554 S
C285 C286 1.384 . S
C285 C289 1.387 . S
C285 H312 0.930 . S
C286 C284 1.380 . S
C286 C285 1.384 . S
C286 H313 0.931 . S
C287 C284 1.374 . S
C287 C288 1.390 . S
C287 H314 0.930 . S
C288 C287 1.390 . S
C288 C289 1.391 . S
C288 H315 0.930 . S
C289 C285 1.387 . S
C289 C288 1.391 . S
C290 Tb280 2.825 . S
C290 C284 1.507 1_556 S
C290 O303 1.238 . S
C290 O304 1.247 . S
O291 Tb280 2.347 . S
O291 C295 1.259 . S
O292 Eu281 2.418 . S
O292 C295 1.265 . S
O293 Eu281 2.384 . S
O293 C302 1.255 . S
O294 Tb280 2.366 . S
O294 C302 1.265 . S
C295 O291 1.259 . S
C295 O292 1.265 . S
O296 Eu281 2.479 . S
O296 C311 1.238 . S
O297 Eu281 2.471 . S
O297 C311 1.247 . S
O298 Eu281 2.347 . S
O298 C282 1.259 . S
O299 Tb280 2.418 . S
O299 C282 1.265 . S
O300 Tb280 2.384 . S
O300 C283 1.255 . S
O301 Eu281 2.366 . S
O301 C283 1.265 . S
C302 O293 1.255 . S
C302 O294 1.265 . S
O303 Tb280 2.479 . S
O303 C290 1.238 . S
O304 Tb280 2.471 . S
O304 C290 1.247 . S
C305 C308 1.380 . S
C305 C309 1.374 . S
C305 C311 1.507 . S
C306 C307 1.387 . S
C306 C310 1.391 . S
C307 C306 1.387 . S
C307 C308 1.384 . S
C307 H316 0.930 . S
C308 C305 1.380 . S
C308 C307 1.384 . S
C308 H317 0.931 . S
C309 C305 1.374 . S
C309 C310 1.390 . S
C309 H318 0.930 . S
C310 C306 1.391 . S
C310 C309 1.390 . S
C310 H319 0.930 . S
C311 Eu281 2.825 . S
C311 O296 1.238 . S
C311 O297 1.247 . S
C311 C305 1.507 . S
H312 C285 0.930 . S
H313 C286 0.931 . S
H314 C287 0.930 . S
H315 C288 0.930 . S
H316 C307 0.930 . S
H317 C308 0.931 . S
H318 C309 0.930 . S
H319 C310 0.930 . S
Tb320 C330 2.825 . S
Tb320 O331 2.347 . S
Tb320 O334 2.366 . S
Tb320 O339 2.418 . S
Tb320 O340 2.384 . S
Tb320 O343 2.479 . S
Tb320 O344 2.471 . S
Eu321 O332 2.418 . S
Eu321 O333 2.384 . S
Eu321 O336 2.479 . S
Eu321 O337 2.471 . S
Eu321 O338 2.347 . S
Eu321 O341 2.366 . S
Eu321 C351 2.825 . S
C322 O338 1.259 . S
C322 O339 1.265 . S
C323 O340 1.255 . S
C323 O341 1.265 . S
C324 C326 1.380 . S
C324 C327 1.374 . S
C324 C330 1.507 . S
C325 C326 1.384 . S
C325 C329 1.387 . S
C325 H352 0.930 . S
C326 C324 1.380 . S
C326 C325 1.384 . S
C326 H353 0.931 . S
C327 C324 1.374 . S
C327 C328 1.390 . S
C327 H354 0.930 . S
C328 C327 1.390 . S
C328 C329 1.391 . S
C328 H355 0.930 . S
C329 C325 1.387 . S
C329 C328 1.391 . S
C330 Tb320 2.825 . S
C330 C324 1.507 . S
C330 O343 1.238 . S
C330 O344 1.247 . S
O331 Tb320 2.347 . S
O331 C335 1.259 . S
O332 Eu321 2.418 . S
O332 C335 1.265 . S
O333 Eu321 2.384 . S
O333 C342 1.255 . S
O334 Tb320 2.366 . S
O334 C342 1.265 . S
C335 O331 1.259 . S
C335 O332 1.265 . S
O336 Eu321 2.479 . S
O336 C351 1.238 . S
O337 Eu321 2.471 . S
O337 C351 1.247 . S
O338 Eu321 2.347 . S
O338 C322 1.259 . S
O339 Tb320 2.418 . S
O339 C322 1.265 . S
O340 Tb320 2.384 . S
O340 C323 1.255 . S
O341 Eu321 2.366 . S
O341 C323 1.265 . S
C342 O333 1.255 . S
C342 O334 1.265 . S
O343 Tb320 2.479 . S
O343 C330 1.238 . S
O344 Tb320 2.471 . S
O344 C330 1.247 . S
C345 C348 1.380 . S
C345 C349 1.374 . S
C345 C351 1.507 1_554 S
C346 C347 1.387 . S
C346 C350 1.391 . S
C347 C346 1.387 . S
C347 C348 1.384 . S
C347 H356 0.930 . S
C348 C345 1.380 . S
C348 C347 1.384 . S
C348 H357 0.931 . S
C349 C345 1.374 . S
C349 C350 1.390 . S
C349 H358 0.930 . S
C350 C346 1.391 . S
C350 C349 1.390 . S
C350 H359 0.930 . S
C351 Eu321 2.825 . S
C351 O336 1.238 . S
C351 O337 1.247 . S
C351 C345 1.507 1_556 S
H352 C325 0.930 . S
H353 C326 0.931 . S
H354 C327 0.930 . S
H355 C328 0.930 . S
H356 C347 0.930 . S
H357 C348 0.931 . S
H358 C349 0.930 . S
H359 C350 0.930 . S
H360 C366 0.930 . S
H361 C369 0.930 . S
H362 C370 0.930 . S
H363 C371 0.930 . S
H364 C374 0.930 . S
H365 C375 0.930 . S
C366 H360 0.930 . S
C366 C367 1.355 . S
C366 C368 1.415 . S
C367 C366 1.355 . S
C367 C369 1.419 . S
C368 C366 1.415 . S
C368 C373 1.425 . S
C368 C375 1.409 . S
C369 H361 0.930 . S
C369 C367 1.419 . S
C369 C370 1.362 . S
C370 H362 0.930 . S
C370 C369 1.362 . S
C370 C373 1.409 . S
C371 H363 0.930 . S
C371 C372 1.355 . S
C371 C373 1.415 . S
C372 C371 1.355 . S
C372 C374 1.419 . S
C373 C368 1.425 . S
C373 C370 1.409 . S
C373 C371 1.415 . S
C374 H364 0.930 . S
C374 C372 1.419 . S
C374 C375 1.362 . S
C375 H365 0.930 . S
C375 C368 1.409 . S
C375 C374 1.362 . S
H376 C382 0.930 . S
H377 C385 0.930 . S
H378 C386 0.930 . S
H379 C387 0.930 . S
H380 C390 0.930 . S
H381 C391 0.930 . S
C382 H376 0.930 . S
C382 C383 1.355 . S
C382 C384 1.415 . S
C383 C382 1.355 . S
C383 C385 1.419 . S
C384 C382 1.415 . S
C384 C389 1.425 . S
C384 C391 1.409 . S
C385 H377 0.930 . S
C385 C383 1.419 . S
C385 C386 1.362 . S
C386 H378 0.930 . S
C386 C385 1.362 . S
C386 C389 1.409 . S
C387 H379 0.930 . S
C387 C388 1.355 . S
C387 C389 1.415 . S
C388 C387 1.355 . S
C388 C390 1.419 . S
C389 C384 1.425 . S
C389 C386 1.409 . S
C389 C387 1.415 . S
C390 H380 0.930 . S
C390 C388 1.419 . S
C390 C391 1.362 . S
C391 H381 0.930 . S
C391 C384 1.409 . S
C391 C390 1.362 . S
H392 C398 0.930 . S
H393 C401 0.930 . S
H394 C402 0.930 . S
H395 C403 0.930 . S
H396 C406 0.930 . S
H397 C407 0.930 . S
C398 H392 0.930 . S
C398 C399 1.355 . S
C398 C400 1.415 . S
C399 C398 1.355 . S
C399 C401 1.419 . S
C400 C398 1.415 . S
C400 C405 1.425 . S
C400 C407 1.409 . S
C401 H393 0.930 . S
C401 C399 1.419 . S
C401 C402 1.362 . S
C402 H394 0.930 . S
C402 C401 1.362 . S
C402 C405 1.409 . S
C403 H395 0.930 . S
C403 C404 1.355 . S
C403 C405 1.415 . S
C404 C403 1.355 . S
C404 C406 1.419 . S
C405 C400 1.425 . S
C405 C402 1.409 . S
C405 C403 1.415 . S
C406 H396 0.930 . S
C406 C404 1.419 . S
C406 C407 1.362 . S
C407 H397 0.930 . S
C407 C400 1.409 . S
C407 C406 1.362 . S
H408 C414 0.930 . S
H409 C417 0.930 . S
H410 C418 0.930 . S
H411 C419 0.930 . S
H412 C422 0.930 . S
H413 C423 0.930 . S
C414 H408 0.930 . S
C414 C415 1.355 . S
C414 C416 1.415 . S
C415 C414 1.355 . S
C415 C417 1.419 . S
C416 C414 1.415 . S
C416 C421 1.425 . S
C416 C423 1.409 . S
C417 H409 0.930 . S
C417 C415 1.419 . S
C417 C418 1.362 . S
C418 H410 0.930 . S
C418 C417 1.362 . S
C418 C421 1.409 . S
C419 H411 0.930 . S
C419 C420 1.355 . S
C419 C421 1.415 . S
C420 C419 1.355 . S
C420 C422 1.419 . S
C421 C416 1.425 . S
C421 C418 1.409 . S
C421 C419 1.415 . S
C422 H412 0.930 . S
C422 C420 1.419 . S
C422 C423 1.362 . S
C423 H413 0.930 . S
C423 C416 1.409 . S
C423 C422 1.362 . S
H424 C430 0.930 . S
H425 C433 0.930 . S
H426 C434 0.930 . S
H427 C435 0.930 . S
H428 C438 0.930 . S
H429 C439 0.930 . S
C430 H424 0.930 . S
C430 C431 1.355 . S
C430 C432 1.415 . S
C431 C430 1.355 . S
C431 C433 1.419 . S
C432 C430 1.415 . S
C432 C437 1.425 . S
C432 C439 1.409 . S
C433 H425 0.930 . S
C433 C431 1.419 . S
C433 C434 1.362 . S
C434 H426 0.930 . S
C434 C433 1.362 . S
C434 C437 1.409 . S
C435 H427 0.930 . S
C435 C436 1.355 . S
C435 C437 1.415 . S
C436 C435 1.355 . S
C436 C438 1.419 . S
C437 C432 1.425 . S
C437 C434 1.409 . S
C437 C435 1.415 . S
C438 H428 0.930 . S
C438 C436 1.419 . S
C438 C439 1.362 . S
C439 H429 0.930 . S
C439 C432 1.409 . S
C439 C438 1.362 . S
H440 C446 0.930 . S
H441 C449 0.930 . S
H442 C450 0.930 . S
H443 C451 0.930 . S
H444 C454 0.930 . S
H445 C455 0.930 . S
C446 H440 0.930 . S
C446 C447 1.355 . S
C446 C448 1.415 . S
C447 C446 1.355 . S
C447 C449 1.419 . S
C448 C446 1.415 . S
C448 C453 1.425 . S
C448 C455 1.409 . S
C449 H441 0.930 . S
C449 C447 1.419 . S
C449 C450 1.362 . S
C450 H442 0.930 . S
C450 C449 1.362 . S
C450 C453 1.409 . S
C451 H443 0.930 . S
C451 C452 1.355 . S
C451 C453 1.415 . S
C452 C451 1.355 . S
C452 C454 1.419 . S
C453 C448 1.425 . S
C453 C450 1.409 . S
C453 C451 1.415 . S
C454 H444 0.930 . S
C454 C452 1.419 . S
C454 C455 1.362 . S
C455 H445 0.930 . S
C455 C448 1.409 . S
C455 C454 1.362 . S
H456 C462 0.930 . S
H457 C465 0.930 1_556 S
H458 C466 0.930 . S
H459 C467 0.930 . S
H460 C470 0.930 . S
H461 C471 0.930 . S
C462 H456 0.930 . S
C462 C463 1.355 . S
C462 C464 1.415 . S
C463 C462 1.355 . S
C463 C465 1.419 . S
C464 C462 1.415 . S
C464 C469 1.425 . S
C464 C471 1.409 . S
C465 H457 0.930 1_554 S
C465 C463 1.419 . S
C465 C466 1.362 . S
C466 H458 0.930 . S
C466 C465 1.362 . S
C466 C469 1.409 . S
C467 H459 0.930 . S
C467 C468 1.355 . S
C467 C469 1.415 . S
C468 C467 1.355 . S
C468 C470 1.419 . S
C469 C464 1.425 . S
C469 C466 1.409 . S
C469 C467 1.415 . S
C470 H460 0.930 . S
C470 C468 1.419 . S
C470 C471 1.362 . S
C471 H461 0.930 . S
C471 C464 1.409 . S
C471 C470 1.362 . S
H472 C478 0.930 . S
H473 C481 0.930 . S
H474 C482 0.930 . S
H475 C483 0.930 . S
H476 C486 0.930 . S
H477 C487 0.930 . S
C478 H472 0.930 . S
C478 C479 1.355 . S
C478 C480 1.415 . S
C479 C478 1.355 . S
C479 C481 1.419 . S
C480 C478 1.415 . S
C480 C485 1.425 . S
C480 C487 1.409 . S
C481 H473 0.930 . S
C481 C479 1.419 . S
C481 C482 1.362 . S
C482 H474 0.930 . S
C482 C481 1.362 . S
C482 C485 1.409 . S
C483 H475 0.930 . S
C483 C484 1.355 . S
C483 C485 1.415 . S
C484 C483 1.355 . S
C484 C486 1.419 . S
C485 C480 1.425 . S
C485 C482 1.409 . S
C485 C483 1.415 . S
C486 H476 0.930 . S
C486 C484 1.419 . S
C486 C487 1.362 . S
C487 H477 0.930 . S
C487 C480 1.409 . S
C487 C486 1.362 . S
H488 C494 0.930 . S
H489 C497 0.930 . S
H490 C498 0.930 . S
H491 C499 0.930 . S
H492 C502 0.930 . S
H493 C503 0.930 . S
C494 H488 0.930 . S
C494 C495 1.355 . S
C494 C496 1.415 . S
C495 C494 1.355 . S
C495 C497 1.419 . S
C496 C494 1.415 . S
C496 C501 1.425 . S
C496 C503 1.409 . S
C497 H489 0.930 . S
C497 C495 1.419 . S
C497 C498 1.362 . S
C498 H490 0.930 . S
C498 C497 1.362 . S
C498 C501 1.409 . S
C499 H491 0.930 . S
C499 C500 1.355 . S
C499 C501 1.415 . S
C500 C499 1.355 . S
C500 C502 1.419 . S
C501 C496 1.425 . S
C501 C498 1.409 . S
C501 C499 1.415 . S
C502 H492 0.930 . S
C502 C500 1.419 . S
C502 C503 1.362 . S
C503 H493 0.930 . S
C503 C496 1.409 . S
C503 C502 1.362 . S
H504 C510 0.930 . S
H505 C513 0.930 . S
H506 C514 0.930 . S
H507 C515 0.930 . S
H508 C518 0.930 . S
H509 C519 0.930 . S
C510 H504 0.930 . S
C510 C511 1.355 . S
C510 C512 1.415 . S
C511 C510 1.355 . S
C511 C513 1.419 . S
C512 C510 1.415 . S
C512 C517 1.425 . S
C512 C519 1.409 . S
C513 H505 0.930 . S
C513 C511 1.419 . S
C513 C514 1.362 . S
C514 H506 0.930 . S
C514 C513 1.362 . S
C514 C517 1.409 . S
C515 H507 0.930 . S
C515 C516 1.355 . S
C515 C517 1.415 . S
C516 C515 1.355 . S
C516 C518 1.419 . S
C517 C512 1.425 . S
C517 C514 1.409 . S
C517 C515 1.415 . S
C518 H508 0.930 . S
C518 C516 1.419 . S
C518 C519 1.362 . S
C519 H509 0.930 . S
C519 C512 1.409 . S
C519 C518 1.362 . S
H520 C526 0.930 . S
H521 C529 0.930 . S
H522 C530 0.930 . S
H523 C531 0.930 . S
H524 C534 0.930 . S
H525 C535 0.930 . S
C526 H520 0.930 . S
C526 C527 1.355 . S
C526 C528 1.415 . S
C527 C526 1.355 . S
C527 C529 1.419 . S
C528 C526 1.415 . S
C528 C533 1.425 . S
C528 C535 1.409 . S
C529 H521 0.930 . S
C529 C527 1.419 . S
C529 C530 1.362 . S
C530 H522 0.930 . S
C530 C529 1.362 . S
C530 C533 1.409 . S
C531 H523 0.930 . S
C531 C532 1.355 . S
C531 C533 1.415 . S
C532 C531 1.355 . S
C532 C534 1.419 . S
C533 C528 1.425 . S
C533 C530 1.409 . S
C533 C531 1.415 . S
C534 H524 0.930 . S
C534 C532 1.419 . S
C534 C535 1.362 . S
C535 H525 0.930 . S
C535 C528 1.409 . S
C535 C534 1.362 . S
H536 C542 0.930 . S
H537 C545 0.930 . S
H538 C546 0.930 . S
H539 C547 0.930 . S
H540 C550 0.930 . S
H541 C551 0.930 . S
C542 H536 0.930 . S
C542 C543 1.355 1_565 S
C542 C544 1.415 . S
C543 C542 1.355 1_545 S
C543 C545 1.419 . S
C544 C542 1.415 . S
C544 C549 1.425 . S
C544 C551 1.409 . S
C545 H537 0.930 . S
C545 C543 1.419 . S
C545 C546 1.362 . S
C546 H538 0.930 . S
C546 C545 1.362 . S
C546 C549 1.409 1_545 S
C547 H539 0.930 . S
C547 C548 1.355 . S
C547 C549 1.415 . S
C548 C547 1.355 . S
C548 C550 1.419 . S
C549 C544 1.425 . S
C549 C546 1.409 1_565 S
C549 C547 1.415 . S
C550 H540 0.930 . S
C550 C548 1.419 . S
C550 C551 1.362 . S
C551 H541 0.930 . S
C551 C544 1.409 . S
C551 C550 1.362 . S
H552 C558 0.930 . S
H553 C561 0.930 . S
H554 C562 0.930 . S
H555 C563 0.930 . S
H556 C566 0.930 . S
H557 C567 0.930 . S
C558 H552 0.930 . S
C558 C559 1.355 . S
C558 C560 1.415 1_554 S
C559 C558 1.355 . S
C559 C561 1.419 . S
C560 C558 1.415 1_556 S
C560 C565 1.425 . S
C560 C567 1.409 . S
C561 H553 0.930 . S
C561 C559 1.419 . S
C561 C562 1.362 1_554 S
C562 H554 0.930 . S
C562 C561 1.362 1_556 S
C562 C565 1.409 . S
C563 H555 0.930 . S
C563 C564 1.355 . S
C563 C565 1.415 . S
C564 C563 1.355 . S
C564 C566 1.419 . S
C565 C560 1.425 . S
C565 C562 1.409 . S
C565 C563 1.415 . S
C566 H556 0.930 . S
C566 C564 1.419 . S
C566 C567 1.362 . S
C567 H557 0.930 . S
C567 C560 1.409 . S
C567 C566 1.362 . S
H568 C574 0.930 . S
H569 C577 0.930 . S
H570 C578 0.930 . S
H571 C579 0.934 1_455 S
H572 C582 0.930 . S
H573 C583 0.915 1_554 S
C574 H568 0.930 . S
C574 C575 1.355 . S
C574 C576 1.415 . S
C575 C574 1.355 . S
C575 C577 1.419 . S
C576 C574 1.415 . S
C576 C581 1.425 . S
C576 C583 1.407 1_655 S
C577 H569 0.930 . S
C577 C575 1.419 . S
C577 C578 1.362 . S
C578 H570 0.930 . S
C578 C577 1.362 . S
C578 C581 1.409 . S
C579 H571 0.934 1_655 S
C579 C580 1.354 1_655 S
C579 C581 1.415 . S
C580 C579 1.354 1_455 S
C580 C582 1.419 1_556 S
C581 C576 1.425 . S
C581 C578 1.409 . S
C581 C579 1.415 . S
C582 H572 0.930 . S
C582 C580 1.419 1_554 S
C582 C583 1.362 1_554 S
C583 H573 0.915 1_556 S
C583 C576 1.407 1_455 S
C583 C582 1.362 1_556 S
H584 C590 0.930 . S
H585 C593 0.930 . S
H586 C594 0.930 . S
H587 C595 0.930 . S
H588 C598 0.930 . S
H589 C599 0.930 1_554 S
C590 H584 0.930 . S
C590 C591 1.355 . S
C590 C592 1.415 . S
C591 C590 1.355 . S
C591 C593 1.419 . S
C592 C590 1.415 . S
C592 C597 1.425 . S
C592 C599 1.409 . S
C593 H585 0.930 . S
C593 C591 1.419 . S
C593 C594 1.362 . S
C594 H586 0.930 . S
C594 C593 1.362 . S
C594 C597 1.409 . S
C595 H587 0.930 . S
C595 C596 1.355 1_556 S
C595 C597 1.415 . S
C596 C595 1.355 1_554 S
C596 C598 1.419 . S
C597 C592 1.425 . S
C597 C594 1.409 . S
C597 C595 1.415 . S
C598 H588 0.930 . S
C598 C596 1.419 . S
C598 C599 1.362 1_554 S
C599 H589 0.930 1_556 S
C599 C592 1.409 . S
C599 C598 1.362 1_556 S
H600 C606 0.930 . S
H601 C609 0.930 . S
H602 C610 0.930 . S
H603 C611 0.930 . S
H604 C614 0.930 1_455 S
H605 C615 0.930 . S
C606 H600 0.930 . S
C606 C607 1.355 . S
C606 C608 1.415 . S
C607 C606 1.355 . S
C607 C609 1.419 . S
C608 C606 1.415 . S
C608 C613 1.425 . S
C608 C615 1.409 . S
C609 H601 0.930 . S
C609 C607 1.419 . S
C609 C610 1.362 . S
C610 H602 0.930 . S
C610 C609 1.362 . S
C610 C613 1.409 . S
C611 H603 0.930 . S
C611 C612 1.355 . S
C611 C613 1.415 . S
C612 C611 1.355 . S
C612 C614 1.419 . S
C613 C608 1.425 . S
C613 C610 1.409 . S
C613 C611 1.415 . S
C614 H604 0.930 1_655 S
C614 C612 1.419 . S
C614 C615 1.362 . S
C615 H605 0.930 . S
C615 C608 1.409 . S
C615 C614 1.362 . S
H616 C622 0.930 . S
H617 C625 0.930 1_554 S
H618 C626 0.930 . S
H619 C627 0.930 . S
H620 C630 0.930 . S
H621 C631 0.930 . S
C622 H616 0.930 . S
C622 C623 1.355 . S
C622 C624 1.415 . S
C623 C622 1.355 . S
C623 C625 1.419 . S
C624 C622 1.415 . S
C624 C629 1.425 . S
C624 C631 1.409 . S
C625 H617 0.930 1_556 S
C625 C623 1.419 . S
C625 C626 1.362 . S
C626 H618 0.930 . S
C626 C625 1.362 . S
C626 C629 1.409 . S
C627 H619 0.930 . S
C627 C628 1.355 . S
C627 C629 1.415 . S
C628 C627 1.355 . S
C628 C630 1.419 . S
C629 C624 1.425 . S
C629 C626 1.409 . S
C629 C627 1.415 . S
C630 H620 0.930 . S
C630 C628 1.419 . S
C630 C631 1.362 . S
C631 H621 0.930 . S
C631 C624 1.409 . S
C631 C630 1.362 . S
H632 C638 0.930 . S
H633 C641 0.930 . S
H634 C642 0.930 1_554 S
H635 C643 0.930 . S
H636 C646 0.930 . S
H637 C647 0.930 . S
C638 H632 0.930 . S
C638 C639 1.355 . S
C638 C640 1.415 . S
C639 C638 1.355 . S
C639 C641 1.419 . S
C640 C638 1.415 . S
C640 C645 1.425 . S
C640 C647 1.409 . S
C641 H633 0.930 . S
C641 C639 1.419 . S
C641 C642 1.362 . S
C642 H634 0.930 1_556 S
C642 C641 1.362 . S
C642 C645 1.409 . S
C643 H635 0.930 . S
C643 C644 1.355 . S
C643 C645 1.415 1_554 S
C644 C643 1.355 . S
C644 C646 1.419 1_554 S
C645 C640 1.425 . S
C645 C642 1.409 . S
C645 C643 1.415 1_556 S
C646 H636 0.930 . S
C646 C644 1.419 1_556 S
C646 C647 1.362 . S
C647 H637 0.930 . S
C647 C640 1.409 . S
C647 C646 1.362 . S
H648 C654 0.930 . S
H649 C657 0.930 . S
H650 C658 0.930 . S
H651 C659 0.930 . S
H652 C662 0.930 . S
H653 C663 0.930 . S
C654 H648 0.930 . S
C654 C655 1.355 . S
C654 C656 1.415 . S
C655 C654 1.355 . S
C655 C657 1.419 . S
C656 C654 1.415 . S
C656 C661 1.425 . S
C656 C663 1.409 . S
C657 H649 0.930 . S
C657 C655 1.419 . S
C657 C658 1.362 . S
C658 H650 0.930 . S
C658 C657 1.362 . S
C658 C661 1.409 . S
C659 H651 0.930 . S
C659 C660 1.355 . S
C659 C661 1.415 . S
C660 C659 1.355 . S
C660 C662 1.419 . S
C661 C656 1.425 . S
C661 C658 1.409 . S
C661 C659 1.415 . S
C662 H652 0.930 . S
C662 C660 1.419 . S
C662 C663 1.362 . S
C663 H653 0.930 . S
C663 C656 1.409 . S
C663 C662 1.362 . S
H664 C670 0.930 . S
H665 C673 0.930 . S
H666 C674 0.930 . S
H667 C675 0.930 . S
H668 C678 0.930 . S
H669 C679 0.930 . S
C670 H664 0.930 . S
C670 C671 1.355 . S
C670 C672 1.415 . S
C671 C670 1.355 . S
C671 C673 1.419 . S
C672 C670 1.415 . S
C672 C677 1.425 . S
C672 C679 1.409 . S
C673 H665 0.930 . S
C673 C671 1.419 . S
C673 C674 1.362 . S
C674 H666 0.930 . S
C674 C673 1.362 . S
C674 C677 1.409 . S
C675 H667 0.930 . S
C675 C676 1.355 . S
C675 C677 1.415 . S
C676 C675 1.355 . S
C676 C678 1.419 . S
C677 C672 1.425 . S
C677 C674 1.409 . S
C677 C675 1.415 . S
C678 H668 0.930 . S
C678 C676 1.419 . S
C678 C679 1.362 . S
C679 H669 0.930 . S
C679 C672 1.409 . S
C679 C678 1.362 . S
H680 C686 0.930 . S
H681 C689 0.930 . S
H682 C690 0.930 . S
H683 C691 0.930 . S
H684 C694 0.930 . S
H685 C695 0.930 . S
C686 H680 0.930 . S
C686 C687 1.355 . S
C686 C688 1.415 . S
C687 C686 1.355 . S
C687 C689 1.419 . S
C688 C686 1.415 . S
C688 C693 1.425 . S
C688 C695 1.409 . S
C689 H681 0.930 . S
C689 C687 1.419 . S
C689 C690 1.362 . S
C690 H682 0.930 . S
C690 C689 1.362 . S
C690 C693 1.409 . S
C691 H683 0.930 . S
C691 C692 1.355 . S
C691 C693 1.415 . S
C692 C691 1.355 . S
C692 C694 1.419 . S
C693 C688 1.425 . S
C693 C690 1.409 . S
C693 C691 1.415 . S
C694 H684 0.930 . S
C694 C692 1.419 . S
C694 C695 1.362 . S
C695 H685 0.930 . S
C695 C688 1.409 . S
C695 C694 1.362 . S
H696 C702 0.930 . S
H697 C705 0.930 . S
H698 C706 0.930 . S
H699 C707 0.930 . S
H700 C710 0.930 . S
H701 C711 0.930 . S
C702 H696 0.930 . S
C702 C703 1.355 . S
C702 C704 1.415 . S
C703 C702 1.355 . S
C703 C705 1.419 . S
C704 C702 1.415 . S
C704 C709 1.425 . S
C704 C711 1.409 . S
C705 H697 0.930 . S
C705 C703 1.419 . S
C705 C706 1.362 . S
C706 H698 0.930 . S
C706 C705 1.362 . S
C706 C709 1.409 . S
C707 H699 0.930 . S
C707 C708 1.355 . S
C707 C709 1.415 . S
C708 C707 1.355 . S
C708 C710 1.419 . S
C709 C704 1.425 . S
C709 C706 1.409 . S
C709 C707 1.415 . S
C710 H700 0.930 . S
C710 C708 1.419 . S
C710 C711 1.362 . S
C711 H701 0.930 . S
C711 C704 1.409 . S
C711 C710 1.362 . S
H712 C718 0.930 . S
H713 C721 0.930 . S
H714 C722 0.930 1_565 S
H715 C723 0.930 . S
H716 C726 0.930 . S
H717 C727 0.930 . S
C718 H712 0.930 . S
C718 C719 1.355 . S
C718 C720 1.415 . S
C719 C718 1.355 . S
C719 C721 1.419 . S
C720 C718 1.415 . S
C720 C725 1.425 1_545 S
C720 C727 1.409 . S
C721 H713 0.930 . S
C721 C719 1.419 . S
C721 C722 1.362 . S
C722 H714 0.930 1_545 S
C722 C721 1.362 . S
C722 C725 1.409 1_545 S
C723 H715 0.930 . S
C723 C724 1.355 . S
C723 C725 1.415 . S
C724 C723 1.355 . S
C724 C726 1.419 . S
C725 C720 1.425 1_565 S
C725 C722 1.409 1_565 S
C725 C723 1.415 . S
C726 H716 0.930 . S
C726 C724 1.419 . S
C726 C727 1.362 1_565 S
C727 H717 0.930 . S
C727 C720 1.409 . S
C727 C726 1.362 1_545 S
H728 C734 0.930 . S
H729 C737 0.930 . S
H730 C738 0.930 . S
H731 C739 0.948 . S
H732 C742 0.930 . S
H733 C743 0.930 . S
C734 H728 0.930 . S
C734 C735 1.353 1_455 S
C734 C736 1.416 . S
C735 C734 1.353 1_655 S
C735 C737 1.419 . S
C736 C734 1.416 . S
C736 C741 1.408 1_455 S
C736 C743 1.409 . S
C737 H729 0.930 . S
C737 C735 1.419 . S
C737 C738 1.362 . S
C738 H730 0.930 . S
C738 C737 1.362 . S
C738 C741 1.463 . S
C739 H731 0.948 . S
C739 C740 1.355 . S
C739 C741 1.379 1_455 S
C740 C739 1.355 . S
C740 C742 1.419 . S
C741 C736 1.408 1_655 S
C741 C738 1.463 . S
C741 C739 1.379 1_655 S
C742 H732 0.930 . S
C742 C740 1.419 . S
C742 C743 1.362 . S
C743 H733 0.930 . S
C743 C736 1.409 . S
C743 C742 1.362 . S
H744 C750 0.930 . S
H745 C753 0.930 . S
H746 C754 0.930 . S
H747 C755 0.930 . S
H748 C758 0.930 . S
H749 C759 0.930 . S
C750 H744 0.930 . S
C750 C751 1.355 . S
C750 C752 1.415 . S
C751 C750 1.355 . S
C751 C753 1.419 . S
C752 C750 1.415 . S
C752 C757 1.425 . S
C752 C759 1.409 . S
C753 H745 0.930 . S
C753 C751 1.419 . S
C753 C754 1.362 . S
C754 H746 0.930 . S
C754 C753 1.362 . S
C754 C757 1.409 . S
C755 H747 0.930 . S
C755 C756 1.355 . S
C755 C757 1.415 . S
C756 C755 1.355 . S
C756 C758 1.419 . S
C757 C752 1.425 . S
C757 C754 1.409 . S
C757 C755 1.415 . S
C758 H748 0.930 . S
C758 C756 1.419 . S
C758 C759 1.362 . S
C759 H749 0.930 . S
C759 C752 1.409 . S
C759 C758 1.362 . S
H760 C766 0.930 . S
H761 C769 0.930 . S
H762 C770 0.930 . S
H763 C771 0.930 . S
H764 C774 0.930 . S
H765 C775 0.930 . S
C766 H760 0.930 . S
C766 C767 1.355 . S
C766 C768 1.415 1_565 S
C767 C766 1.355 . S
C767 C769 1.419 . S
C768 C766 1.415 1_545 S
C768 C773 1.425 . S
C768 C775 1.409 . S
C769 H761 0.930 . S
C769 C767 1.419 . S
C769 C770 1.362 1_565 S
C770 H762 0.930 . S
C770 C769 1.362 1_545 S
C770 C773 1.409 . S
C771 H763 0.930 . S
C771 C772 1.355 . S
C771 C773 1.415 . S
C772 C771 1.355 . S
C772 C774 1.419 . S
C773 C768 1.425 . S
C773 C770 1.409 . S
C773 C771 1.415 . S
C774 H764 0.930 . S
C774 C772 1.419 . S
C774 C775 1.362 . S
C775 H765 0.930 . S
C775 C768 1.409 . S
C775 C774 1.362 . S
H776 C782 0.930 . S
H777 C785 0.930 . S
H778 C786 0.930 . S
H779 C787 0.930 . S
H780 C790 0.930 . S
H781 C791 0.930 . S
C782 H776 0.930 . S
C782 C783 1.355 . S
C782 C784 1.415 1_655 S
C783 C782 1.355 . S
C783 C785 1.419 . S
C784 C782 1.415 1_455 S
C784 C789 1.425 . S
C784 C791 1.409 . S
C785 H777 0.930 . S
C785 C783 1.419 . S
C785 C786 1.362 . S
C786 H778 0.930 . S
C786 C785 1.362 . S
C786 C789 1.409 1_655 S
C787 H779 0.930 . S
C787 C788 1.355 . S
C787 C789 1.415 . S
C788 C787 1.355 . S
C788 C790 1.419 . S
C789 C784 1.425 . S
C789 C786 1.409 1_455 S
C789 C787 1.415 . S
C790 H780 0.930 . S
C790 C788 1.419 . S
C790 C791 1.362 . S
C791 H781 0.930 . S
C791 C784 1.409 . S
C791 C790 1.362 . S
C367 C2 3.517 . S
C372 C15 3.517 . S
C383 C55 3.590 . S
C388 C42 3.590 . S
C399 C82 3.622 . S
C404 C95 3.622 . S
C415 C135 3.516 . S
C420 C122 3.516 1_556 S
C431 C162 3.593 . S
C436 C175 3.593 1_556 S
C447 C215 3.631 . S
C452 C202 3.631 1_556 S
C463 C249 1.794 . S
C468 C266 1.794 . S
C479 C306 2.145 . S
C484 C289 2.145 . S
C495 C329 1.387 . S
C500 C346 1.387 . S
C511 C222 1.630 . S
C516 C9 1.641 . S
C527 C62 2.606 . S
C532 C142 2.639 . S
C543 C89 1.126 . S
C548 C169 1.123 . S
C559 C102 3.047 . S
C564 C243 3.104 . S
C575 C295 1.311 . S
C580 C22 1.332 1_556 S
C591 C323 1.899 . S
C596 C49 1.813 . S
C607 C322 0.941 . S
C612 C26 0.911 . S
C623 C43 2.310 1_556 S
C628 C242 2.312 . S
C639 C302 2.781 . S
C644 C106 2.666 . S
C655 C83 1.630 . S
C660 C146 1.638 1_545 S
C671 C163 2.623 . S
C676 C3 2.644 . S
C687 C66 1.089 . S
C692 C226 1.050 . S
C703 C335 0.960 . S
C708 C129 0.954 . S
C719 C255 2.318 . S
C724 C182 2.339 . S
C735 C283 2.785 . S
C740 C209 2.673 . S
C751 C262 3.113 . S
C756 C203 3.067 . S
C767 C123 1.328 . S
C772 C282 1.311 . S
C783 C342 1.894 . S
C788 C186 1.797 . S
