# Generated by pormake.
# Topology mdf, (4)-cn, num edge types: 1
# Building blocks:
#     Node 0, Type 0, BuildingBlock: NAHDIM_clean_sbu_0, # of connection points: 4
#     Node 1, Type 0, BuildingBlock: NAHDIM_clean_sbu_0, # of connection points: 4
#     Node 2, Type 0, BuildingBlock: NAHDIM_clean_sbu_0, # of connection points: 4
#     Node 3, Type 0, BuildingBlock: NAHDIM_clean_sbu_0, # of connection points: 4
#     Node 4, Type 0, BuildingBlock: NAHDIM_clean_sbu_0, # of connection points: 4
#     Node 5, Type 0, BuildingBlock: NAHDIM_clean_sbu_0, # of connection points: 4
#     Node 6, Type 0, BuildingBlock: NAHDIM_clean_sbu_0, # of connection points: 4
#     Node 7, Type 0, BuildingBlock: NAHDIM_clean_sbu_0, # of connection points: 4
#     Edge 8, Type (0, 0), BuildingBlock: EZIPEK_clean_linker_0, # of connection points: 2
#     Edge 9, Type (0, 0), BuildingBlock: EZIPEK_clean_linker_0, # of connection points: 2
#     Edge 10, Type (0, 0), BuildingBlock: EZIPEK_clean_linker_0, # of connection points: 2
#     Edge 11, Type (0, 0), BuildingBlock: EZIPEK_clean_linker_0, # of connection points: 2
#     Edge 12, Type (0, 0), BuildingBlock: EZIPEK_clean_linker_0, # of connection points: 2
#     Edge 13, Type (0, 0), BuildingBlock: EZIPEK_clean_linker_0, # of connection points: 2
#     Edge 14, Type (0, 0), BuildingBlock: EZIPEK_clean_linker_0, # of connection points: 2
#     Edge 15, Type (0, 0), BuildingBlock: EZIPEK_clean_linker_0, # of connection points: 2
#     Edge 16, Type (0, 0), BuildingBlock: EZIPEK_clean_linker_0, # of connection points: 2
#     Edge 17, Type (0, 0), BuildingBlock: EZIPEK_clean_linker_0, # of connection points: 2
#     Edge 18, Type (0, 0), BuildingBlock: EZIPEK_clean_linker_0, # of connection points: 2
#     Edge 19, Type (0, 0), BuildingBlock: EZIPEK_clean_linker_0, # of connection points: 2
#     Edge 20, Type (0, 0), BuildingBlock: EZIPEK_clean_linker_0, # of connection points: 2
#     Edge 21, Type (0, 0), BuildingBlock: EZIPEK_clean_linker_0, # of connection points: 2
#     Edge 22, Type (0, 0), BuildingBlock: EZIPEK_clean_linker_0, # of connection points: 2
#     Edge 23, Type (0, 0), BuildingBlock: EZIPEK_clean_linker_0, # of connection points: 2
# Relax obj value: 0.050
# Max RMSD: 0.056
# Mean RMSD: 0.056
data_MOF--net-mdf--node1-NAHDIM_clean_sbu_0--edge1-EZIPEK_clean_linker_0
_symmetry_space_group_name_H-M    P1
_symmetry_Int_Tables_number       1
_symmetry_cell_setting            triclinic
loop_
_symmetry_equiv_pos_as_xyz
'x, y, z'
_cell_length_a     26.061208
_cell_length_b     25.943412
_cell_length_c     10.972654
_cell_angle_alpha  89.995042
_cell_angle_beta   89.766627
_cell_angle_gamma 96.851882
loop_
_atom_site_label
_atom_site_type_symbol
_atom_site_fract_x
_atom_site_fract_y
_atom_site_fract_z
_atom_type_partial_charge
C0 C 0.15567 0.58874 0.55571 0.0
O1 O 0.12943 0.57162 0.459 0.0
O2 O 0.27135 0.59677 0.30664 0.0
Zn3 Zn 0.23702 0.54477 0.43068 0.0
O4 O 0.18124 0.49431 0.35467 0.0
C5 C 0.32761 0.48905 0.45615 0.0
O6 O 0.34091 0.50964 0.3498 0.0
O7 O 0.20328 0.58282 0.56381 0.0
C8 C 0.1906 0.45259 0.30304 0.0
O9 O 0.2385 0.44329 0.28631 0.0
C10 C 0.28397 0.58285 0.20055 0.0
O11 O 0.2727 0.53415 0.1682 0.0
O12 O 0.2875 0.50113 0.51007 0.0
C13 C 0.38857 0.80505 0.46378 0.0
O14 O 0.38491 0.83061 0.5662 0.0
O15 O 0.39683 0.71783 0.74217 0.0
Zn16 Zn 0.4483 0.74599 0.61327 0.0
O17 O 0.49064 0.81056 0.67363 0.0
C18 C 0.49694 0.64873 0.59833 0.0
O19 O 0.45957 0.62774 0.66941 0.0
O20 O 0.41247 0.76525 0.4621 0.0
C21 C 0.53488 0.80678 0.71831 0.0
O22 O 0.55029 0.76084 0.73315 0.0
C23 C 0.41215 0.7012 0.84305 0.0
O24 O 0.46199 0.70395 0.86408 0.0
O25 O 0.49815 0.6956 0.56431 0.0
C26 C 0.32034 0.89351 0.01946 0.0
O27 O 0.35164 0.9085 0.92876 0.0
O28 O 0.21785 0.91064 0.75126 0.0
Zn29 Zn 0.25136 0.95157 0.88941 0.0
O30 O 0.31069 0.00268 0.83269 0.0
C31 C 0.17133 0.01496 0.87516 0.0
O32 O 0.18045 0.00845 0.75873 0.0
O33 O 0.27478 0.90622 0.02112 0.0
C34 C 0.32305 0.01085 0.72167 0.0
O35 O 0.29774 0.98356 0.63554 0.0
C36 C 0.22997 0.87078 0.69656 0.0
O37 O 0.27078 0.84913 0.72965 0.0
O38 O 0.19737 0.99355 0.95427 0.0
C39 C 0.04917 0.68572 0.94127 0.0
O40 O 0.01196 0.65944 0.0044 0.0
O41 O 0.08624 0.78583 0.23137 0.0
Zn42 Zn 0.03123 0.77134 0.10249 0.0
O43 O 0.97084 0.72463 0.17492 0.0
C44 C 0.97275 0.8599 0.09543 0.0
O45 O 0.95168 0.83808 0.1944 0.0
O46 O 0.06259 0.73347 0.96465 0.0
C47 C 0.97759 0.69581 0.26592 0.0
O48 O 0.02353 0.69783 0.31542 0.0
C49 C 0.08527 0.82241 0.30781 0.0
O50 O 0.04824 0.85225 0.30287 0.0
O51 O 0.00765 0.83875 0.03946 0.0
C52 C 0.70445 0.13294 0.02423 0.0
O53 O 0.68672 0.14067 0.91463 0.0
O54 O 0.79088 0.10476 0.7596 0.0
Zn55 Zn 0.76088 0.0604 0.89865 0.0
O56 O 0.69727 0.01471 0.84449 0.0
C57 C 0.86097 0.03005 0.97413 0.0
O58 O 0.87758 0.07975 0.96779 0.0
O59 O 0.73838 0.10225 0.03814 0.0
C60 C 0.69919 0.96686 0.82354 0.0
O61 O 0.74318 0.94734 0.83333 0.0
C62 C 0.80133 0.08132 0.66261 0.0
O63 O 0.79039 0.03068 0.65606 0.0
O64 O 0.81379 0.01452 0.95283 0.0
C65 C 0.86975 0.24082 0.86117 0.0
O66 O 0.85201 0.19185 0.87826 0.0
O67 O 0.91496 0.18434 0.16754 0.0
Zn68 Zn 0.95452 0.22704 0.03667 0.0
O69 O 0.00163 0.28683 0.10479 0.0
C70 C 0.0174 0.14548 0.01796 0.0
O71 O 0.00351 0.14057 0.13283 0.0
O72 O 0.90936 0.26059 0.91908 0.0
C73 C 0.03286 0.28394 0.19213 0.0
O74 O 0.03362 0.24003 0.25101 0.0
C75 C 0.89354 0.20228 0.25956 0.0
O76 O 0.89528 0.25276 0.27323 0.0
O77 O 0.00052 0.1803 0.95263 0.0
C78 C 0.78109 0.37277 0.51228 0.0
O79 O 0.78909 0.36701 0.39512 0.0
O80 O 0.69894 0.41919 0.2835 0.0
Zn81 Zn 0.7319 0.45891 0.42649 0.0
O82 O 0.79192 0.5101 0.37114 0.0
C83 C 0.66327 0.53531 0.44104 0.0
O84 O 0.68622 0.54856 0.33694 0.0
O85 O 0.75693 0.40964 0.54896 0.0
C86 C 0.80918 0.54788 0.43903 0.0
O87 O 0.78849 0.55305 0.54697 0.0
C88 C 0.70557 0.43397 0.17348 0.0
O89 O 0.73767 0.47557 0.148 0.0
O90 O 0.67691 0.49728 0.50073 0.0
C91 C 0.60618 0.21255 0.44642 0.0
O92 O 0.60529 0.1871 0.55 0.0
O93 O 0.59145 0.31298 0.7039 0.0
Zn94 Zn 0.54295 0.27498 0.58232 0.0
O95 O 0.50262 0.21116 0.65533 0.0
C96 C 0.46187 0.33958 0.60528 0.0
O97 O 0.46246 0.32357 0.71856 0.0
O98 O 0.58286 0.2527 0.43781 0.0
C99 C 0.46761 0.18778 0.58836 0.0
O100 O 0.45954 0.20612 0.47952 0.0
C101 C 0.58057 0.31311 0.81684 0.0
O102 O 0.53846 0.28551 0.8574 0.0
O103 O 0.4928 0.32374 0.52775 0.0
C104 C 0.38253 0.68795 0.06011 0.0
C105 C 0.37473 0.67644 0.9345 0.0
C106 C 0.29798 0.61699 0.9883 0.0
C107 C 0.31222 0.62005 0.11298 0.0
N108 N 0.37414 0.65448 0.26558 0.0
N109 N 0.32911 0.62136 0.78122 0.0
C110 C 0.35591 0.65482 0.14905 0.0
C111 C 0.33328 0.63897 0.89864 0.0
N112 N 0.41463 0.73098 0.09448 0.0
N113 N 0.25028 0.59384 0.95514 0.0
H114 H 0.35556 0.63337 0.71267 0.0
H115 H 0.30236 0.59027 0.75501 0.0
H116 H 0.22247 0.57908 0.01862 0.0
H117 H 0.23654 0.59505 0.86626 0.0
H118 H 0.41891 0.7433 0.18459 0.0
H119 H 0.4324 0.7577 0.03183 0.0
H120 H 0.40818 0.67648 0.29279 0.0
H121 H 0.35844 0.62891 0.33269 0.0
C122 C 0.3348 0.79741 0.27389 0.0
C123 C 0.3721 0.82677 0.34787 0.0
C124 C 0.37472 0.90018 0.20699 0.0
C125 C 0.34033 0.86952 0.12863 0.0
N126 N 0.29491 0.78634 0.07465 0.0
N127 N 0.43649 0.90121 0.3711 0.0
C128 C 0.32274 0.81716 0.15797 0.0
C129 C 0.39465 0.87681 0.31059 0.0
N130 N 0.30932 0.75182 0.31656 0.0
N131 N 0.3868 0.95214 0.18533 0.0
H132 H 0.45326 0.88497 0.44581 0.0
H133 H 0.45775 0.93527 0.34008 0.0
H134 H 0.37333 0.97093 0.10997 0.0
H135 H 0.40661 0.97747 0.24748 0.0
H136 H 0.27795 0.73144 0.27227 0.0
H137 H 0.31684 0.73638 0.40151 0.0
H138 H 0.28523 0.7465 0.08596 0.0
H139 H 0.28515 0.79989 0.98928 0.0
C140 C 0.17721 0.84234 0.37796 0.0
C141 C 0.12391 0.82991 0.40636 0.0
C142 C 0.14331 0.83338 0.624 0.0
C143 C 0.19608 0.84919 0.597 0.0
N144 N 0.26314 0.87478 0.4498 0.0
N145 N 0.05556 0.81595 0.55721 0.0
C146 C 0.2133 0.85447 0.47419 0.0
C147 C 0.1069 0.82645 0.52922 0.0
N148 N 0.19307 0.84397 0.25896 0.0
N149 N 0.12636 0.82421 0.74059 0.0
H150 H 0.02695 0.80553 0.49269 0.0
H151 H 0.04171 0.81777 0.64631 0.0
H152 H 0.15048 0.82621 0.81661 0.0
H153 H 0.15048 0.82621 0.81661 0.0
H154 H 0.23155 0.84792 0.23215 0.0
H155 H 0.16773 0.83961 0.18548 0.0
H156 H 0.2764 0.88707 0.36388 0.0
H157 H 0.291 0.88264 0.51731 0.0
C158 C 0.10259 0.61683 0.8703 0.0
C159 C 0.07544 0.65973 0.84287 0.0
C160 C 0.10453 0.65813 0.63055 0.0
C161 C 0.12926 0.61359 0.65566 0.0
N162 N 0.14224 0.54341 0.79237 0.0
N163 N 0.04347 0.71479 0.68879 0.0
C164 C 0.12574 0.59089 0.77378 0.0
C165 C 0.07431 0.67841 0.72163 0.0
N166 N 0.10777 0.602 0.98881 0.0
N167 N 0.10951 0.6816 0.51895 0.0
H168 H 0.0179 0.73046 0.7478 0.0
H169 H 0.0179 0.73046 0.7478 0.0
H170 H 0.13292 0.66973 0.44956 0.0
H171 H 0.09193 0.7146 0.49839 0.0
H172 H 0.13049 0.5737 0.01574 0.0
H173 H 0.09248 0.62073 0.0622 0.0
H174 H 0.13568 0.52226 0.87272 0.0
H175 H 0.15879 0.52289 0.72382 0.0
C176 C 0.87644 0.13949 0.57384 0.0
C177 C 0.82717 0.11022 0.55866 0.0
C178 C 0.83114 0.12873 0.34074 0.0
C179 C 0.87383 0.16689 0.35991 0.0
N180 N 0.94467 0.20122 0.48734 0.0
N181 N 0.75461 0.08183 0.42878 0.0
C182 C 0.89857 0.17052 0.47518 0.0
C183 C 0.80392 0.10573 0.44231 0.0
N184 N 0.90262 0.13567 0.68051 0.0
N185 N 0.81769 0.11232 0.22615 0.0
H186 H 0.73216 0.06597 0.50149 0.0
H187 H 0.73441 0.08236 0.34701 0.0
H188 H 0.8354 0.12873 0.14784 0.0
H189 H 0.79271 0.07848 0.21106 0.0
H190 H 0.93917 0.15454 0.69901 0.0
H191 H 0.88874 0.11041 0.74994 0.0
H192 H 0.96592 0.20584 0.56716 0.0
H193 H 0.96289 0.22204 0.41505 0.0
C194 C 0.79232 0.27768 0.7732 0.0
C195 C 0.84608 0.27292 0.76919 0.0
C196 C 0.85741 0.33728 0.60409 0.0
C197 C 0.80318 0.33857 0.60119 0.0
N198 N 0.71778 0.30542 0.67139 0.0
N199 N 0.92834 0.29134 0.66609 0.0
C200 C 0.77024 0.30744 0.68252 0.0
C201 C 0.87821 0.30084 0.68049 0.0
N202 N 0.76279 0.25603 0.86724 0.0
N203 N 0.88939 0.37254 0.53791 0.0
H204 H 0.94521 0.26421 0.71765 0.0
H205 H 0.95183 0.30633 0.59454 0.0
H206 H 0.87589 0.40023 0.48147 0.0
H207 H 0.92941 0.37775 0.54753 0.0
H208 H 0.7246 0.26213 0.88195 0.0
H209 H 0.7777 0.2355 0.93734 0.0
H210 H 0.69161 0.27911 0.71844 0.0
H211 H 0.70013 0.32665 0.60633 0.0
C212 C 0.67835 0.35 0.0669 0.0
C213 C 0.67655 0.40425 0.0751 0.0
C214 C 0.61771 0.39975 0.90021 0.0
C215 C 0.61477 0.34474 0.90268 0.0
N216 N 0.63607 0.26694 0.00058 0.0
N217 N 0.63792 0.48009 0.01201 0.0
C218 C 0.64309 0.31972 0.98988 0.0
C219 C 0.64486 0.4292 0.99428 0.0
N220 N 0.71566 0.32766 0.12771 0.0
N221 N 0.59387 0.42386 0.80942 0.0
H222 H 0.65563 0.50273 0.08198 0.0
H223 H 0.61093 0.49873 0.96448 0.0
H224 H 0.57072 0.40362 0.74389 0.0
H225 H 0.5998 0.46378 0.79427 0.0
H226 H 0.72233 0.28935 0.114 0.0
H227 H 0.7438 0.34888 0.18065 0.0
H228 H 0.65014 0.24792 0.07434 0.0
H229 H 0.61356 0.24254 0.94096 0.0
C230 C 0.70964 0.18446 0.21901 0.0
C231 C 0.67961 0.1533 0.13287 0.0
C232 C 0.60088 0.16567 0.24646 0.0
C233 C 0.63148 0.19252 0.33837 0.0
N234 N 0.71562 0.21954 0.42342 0.0
N235 N 0.59804 0.10422 0.08009 0.0
C236 C 0.6861 0.19933 0.32831 0.0
C237 C 0.62553 0.14113 0.15067 0.0
N238 N 0.75989 0.20243 0.19354 0.0
N239 N 0.54828 0.1638 0.24994 0.0
H240 H 0.61488 0.08372 0.01197 0.0
H241 H 0.55962 0.09 0.09736 0.0
H242 H 0.52859 0.18007 0.3202 0.0
H243 H 0.52449 0.14985 0.17821 0.0
H244 H 0.78166 0.23046 0.24593 0.0
H245 H 0.77852 0.19264 0.11428 0.0
H246 H 0.75565 0.22014 0.42623 0.0
H247 H 0.69964 0.23172 0.50404 0.0
C248 C 0.33893 0.39898 0.53079 0.0
C249 C 0.35962 0.45156 0.51072 0.0
C250 C 0.44711 0.42989 0.54849 0.0
C251 C 0.42666 0.37762 0.57036 0.0
N252 N 0.3533 0.31274 0.59858 0.0
N253 N 0.43006 0.51926 0.53534 0.0
C254 C 0.37252 0.36235 0.56714 0.0
C255 C 0.41278 0.46758 0.52936 0.0
N256 N 0.2877 0.38353 0.51034 0.0
N257 N 0.49941 0.44357 0.544 0.0
H258 H 0.40602 0.54823 0.52281 0.0
H259 H 0.46653 0.53288 0.56786 0.0
H260 H 0.52613 0.41755 0.5602 0.0
H261 H 0.51643 0.47985 0.51509 0.0
H262 H 0.2716 0.34489 0.50622 0.0
H263 H 0.26103 0.40933 0.49271 0.0
H264 H 0.31425 0.30067 0.61344 0.0
H265 H 0.37681 0.28379 0.61592 0.0
C266 C 0.62802 0.9305 0.68512 0.0
C267 C 0.65135 0.93182 0.80161 0.0
C268 C 0.58811 0.86023 0.87041 0.0
C269 C 0.57031 0.85359 0.74898 0.0
N270 N 0.57481 0.87974 0.53735 0.0
N271 N 0.65466 0.89918 0.00694 0.0
C272 C 0.58994 0.88855 0.65554 0.0
C273 C 0.63147 0.89721 0.89515 0.0
N274 N 0.64267 0.96902 0.60263 0.0
N275 N 0.56252 0.83205 0.96221 0.0
H276 H 0.68433 0.92795 0.03103 0.0
H277 H 0.64629 0.87103 0.07403 0.0
H278 H 0.52999 0.8053 0.94686 0.0
H279 H 0.57034 0.83836 0.0543 0.0
H280 H 0.62338 0.97335 0.52103 0.0
H281 H 0.67164 -0.00061 0.62017 0.0
H282 H 0.59215 0.90023 0.46346 0.0
H283 H 0.54731 0.84933 0.51112 0.0
C284 C 0.1094 0.12746 0.01135 0.0
C285 C 0.05764 0.11494 0.97164 0.0
C286 C 0.0797 0.0346 0.87901 0.0
C287 C 0.13207 0.04849 0.91258 0.0
N288 N 0.19885 0.11135 0.99425 0.0
N289 N 0.99518 0.0626 0.84907 0.0
C290 C 0.14753 0.09574 0.97472 0.0
C291 C 0.04332 0.07034 0.89945 0.0
N292 N 0.12199 0.16957 0.08495 0.0
N293 N 0.06433 0.98628 0.83281 0.0
H294 H 0.96781 0.08821 0.86258 0.0
H295 H 0.98396 0.03362 0.78567 0.0
H296 H 0.08978 0.95873 0.81825 0.0
H297 H 0.02578 0.97172 0.81932 0.0
H298 H 0.15705 0.17695 0.13052 0.0
H299 H 0.09627 0.19621 0.10517 0.0
H300 H 0.21316 0.14817 0.02526 0.0
H301 H 0.22798 0.08881 0.97145 0.0
C302 C 0.94075 0.60442 0.31742 0.0
C303 C 0.93465 0.6581 0.31194 0.0
C304 C 0.84481 0.63878 0.3812 0.0
C305 C 0.85243 0.58592 0.39664 0.0
N306 N 0.91048 0.52023 0.40342 0.0
N307 N 0.88461 0.7277 0.36249 0.0
C308 C 0.90122 0.56921 0.37148 0.0
C309 C 0.88765 0.6757 0.35029 0.0
N310 N 0.98324 0.58659 0.26643 0.0
N311 N 0.79633 0.6535 0.39191 0.0
H312 H 0.91564 0.75592 0.34438 0.0
H313 H 0.85313 0.74266 0.40199 0.0
H314 H 0.76388 0.62768 0.41431 0.0
H315 H 0.78749 0.69029 0.36819 0.0
H316 H 0.98689 0.54729 0.25597 0.0
H317 H 0.01287 0.61068 0.22408 0.0
H318 H 0.94699 0.50775 0.39982 0.0
H319 H 0.88267 0.49356 0.44472 0.0
C320 C 0.3527 0.10605 0.72743 0.0
C321 C 0.36146 0.05549 0.68964 0.0
C322 C 0.44164 0.09154 0.58744 0.0
C323 C 0.43441 0.14142 0.63288 0.0
N324 N 0.38952 0.19444 0.76752 0.0
N325 N 0.41764 0.9983 0.60012 0.0
C326 C 0.39209 0.14805 0.71022 0.0
C327 C 0.40687 0.04765 0.62384 0.0
N328 N 0.30547 0.11456 0.7727 0.0
N329 N 0.48153 0.08628 0.5089 0.0
H330 H 0.3931 0.9653 0.62564 0.0
H331 H 0.45261 0.98977 0.56376 0.0
H332 H 0.50977 0.11691 0.48742 0.0
H333 H 0.48533 0.05237 0.46067 0.0
H334 H 0.29512 0.15143 0.79013 0.0
H335 H 0.27453 0.08532 0.78042 0.0
H336 H 0.36225 0.19985 0.83454 0.0
H337 H 0.41761 0.22621 0.75667 0.0
C338 C 0.92925 0.99344 0.09915 0.0
C339 C 0.89751 0.99119 0.99413 0.0
C340 C 0.92237 0.90552 0.94285 0.0
C341 C 0.95374 0.90768 0.04826 0.0
N342 N 0.00107 0.96048 0.20002 0.0
N343 N 0.87859 0.95406 0.79549 0.0
C344 C 0.96163 0.95388 0.11806 0.0
C345 C 0.89863 0.94993 0.90942 0.0
N346 N 0.92668 0.03155 0.18414 0.0
N347 N 0.91339 0.86053 0.8775 0.0
H348 H 0.86344 0.98733 0.76621 0.0
H349 H 0.8824 0.92733 0.72617 0.0
H350 H 0.93096 0.82746 0.89732 0.0
H351 H 0.8859 0.85496 0.80859 0.0
H352 H 0.94468 0.03148 0.26872 0.0
H353 H 0.90336 0.06119 0.17466 0.0
H354 H 0.01176 0.99522 0.24597 0.0
H355 H 0.02705 0.93328 0.20998 0.0
C356 C 0.07286 0.35184 0.33626 0.0
C357 C 0.07167 0.3287 0.21926 0.0
C358 C 0.14255 0.39315 0.1521 0.0
C359 C 0.1479 0.41196 0.27315 0.0
N360 N 0.12418 0.40291 0.48617 0.0
N361 N 0.11102 0.32141 0.02106 0.0
C362 C 0.11458 0.3898 0.36698 0.0
C363 C 0.10793 0.34783 0.12819 0.0
N364 N 0.03329 0.33881 0.41672 0.0
N365 N 0.16944 0.41942 0.05946 0.0
H366 H 0.08719 0.28735 0.0006 0.0
H367 H 0.14039 0.33055 0.95722 0.0
H368 H 0.19459 0.45329 0.07348 0.0
H369 H 0.16303 0.41057 0.96776 0.0
H370 H 0.02947 0.35847 0.49843 0.0
H371 H 0.00155 0.31187 0.39622 0.0
H372 H 0.1044 0.38369 0.55883 0.0
H373 H 0.15507 0.42956 0.51371 0.0
C374 C 0.53958 0.59935 0.43876 0.0
C375 C 0.53873 0.61844 0.55975 0.0
C376 C 0.62087 0.58497 0.60237 0.0
C377 C 0.61982 0.56264 0.48405 0.0
N378 N 0.57199 0.53784 0.30099 0.0
N379 N 0.57362 0.623 0.76327 0.0
C380 C 0.5776 0.5671 0.40488 0.0
C381 C 0.57773 0.60897 0.64382 0.0
N382 N 0.50362 0.6115 0.3566 0.0
N383 N 0.6642 0.5859 0.67258 0.0
H384 H 0.54403 0.64303 0.79597 0.0
H385 H 0.59741 0.61154 0.83172 0.0
H386 H 0.69711 0.56986 0.64483 0.0
H387 H 0.66947 0.60661 0.75374 0.0
H388 H 0.50582 0.60393 0.26364 0.0
H389 H 0.47314 0.63216 0.38028 0.0
H390 H 0.53924 0.53528 0.24626 0.0
H391 H 0.59748 0.51156 0.27605 0.0
loop_
_geom_bond_atom_site_label_1
_geom_bond_atom_site_label_2
_geom_bond_distance
_geom_bond_site_symmetry_2
_ccdc_geom_bond_type
C0 O1 1.160 . S
C0 O7 1.185 . S
O1 C0 1.160 . S
O2 Zn3 1.899 . S
O2 C10 1.284 . S
Zn3 O2 1.899 . S
Zn3 O4 2.032 . S
Zn3 O7 2.086 . S
Zn3 O12 1.977 . S
O4 Zn3 2.032 . S
O4 C8 1.278 . S
C5 O6 1.203 . S
C5 O12 1.267 . S
O6 C5 1.203 . S
O7 C0 1.185 . S
O7 Zn3 2.086 . S
C8 O4 1.278 . S
C8 O9 1.211 . S
O9 C8 1.211 . S
C10 O2 1.284 . S
C10 O11 1.273 . S
O11 C10 1.273 . S
O12 Zn3 1.977 . S
O12 C5 1.267 . S
C13 O14 1.160 . S
C13 O20 1.185 . S
O14 C13 1.160 . S
O15 Zn16 1.899 . S
O15 C23 1.284 . S
Zn16 O15 1.899 . S
Zn16 O17 2.032 . S
Zn16 O20 2.086 . S
Zn16 O25 1.977 . S
O17 Zn16 2.032 . S
O17 C21 1.278 . S
C18 O19 1.203 . S
C18 O25 1.267 . S
O19 C18 1.203 . S
O20 C13 1.185 . S
O20 Zn16 2.086 . S
C21 O17 1.278 . S
C21 O22 1.211 . S
O22 C21 1.211 . S
C23 O15 1.284 . S
C23 O24 1.273 . S
O24 C23 1.273 . S
O25 Zn16 1.977 . S
O25 C18 1.267 . S
C26 O27 1.160 1_554 S
C26 O33 1.185 . S
O27 C26 1.160 1_556 S
O28 Zn29 1.899 . S
O28 C36 1.284 . S
Zn29 O28 1.899 . S
Zn29 O30 2.032 . S
Zn29 O33 2.086 1_556 S
Zn29 O38 1.977 . S
O30 Zn29 2.032 . S
O30 C34 1.278 1_565 S
C31 O32 1.203 . S
C31 O38 1.267 1_545 S
O32 C31 1.203 . S
O33 C26 1.185 . S
O33 Zn29 2.086 1_554 S
C34 O30 1.278 1_545 S
C34 O35 1.211 . S
O35 C34 1.211 . S
C36 O28 1.284 . S
C36 O37 1.273 . S
O37 C36 1.273 . S
O38 Zn29 1.977 . S
O38 C31 1.267 1_565 S
C39 O40 1.160 1_556 S
C39 O46 1.185 . S
O40 C39 1.160 1_554 S
O41 Zn42 1.899 . S
O41 C49 1.284 . S
Zn42 O41 1.899 . S
Zn42 O43 2.032 . S
Zn42 O46 2.086 1_554 S
Zn42 O51 1.977 . S
O43 Zn42 2.032 . S
O43 C47 1.278 1_455 S
C44 O45 1.203 . S
C44 O51 1.267 1_655 S
O45 C44 1.203 . S
O46 C39 1.185 . S
O46 Zn42 2.086 1_556 S
C47 O43 1.278 1_655 S
C47 O48 1.211 . S
O48 C47 1.211 . S
C49 O41 1.284 . S
C49 O50 1.273 . S
O50 C49 1.273 . S
O51 Zn42 1.977 . S
O51 C44 1.267 1_455 S
C52 O53 1.160 1_554 S
C52 O59 1.185 . S
O53 C52 1.160 1_556 S
O54 Zn55 1.899 . S
O54 C62 1.284 . S
Zn55 O54 1.899 . S
Zn55 O56 2.032 . S
Zn55 O59 2.086 1_556 S
Zn55 O64 1.977 . S
O56 Zn55 2.032 . S
O56 C60 1.278 1_545 S
C57 O58 1.203 . S
C57 O64 1.267 1_565 S
O58 C57 1.203 . S
O59 C52 1.185 . S
O59 Zn55 2.086 1_554 S
C60 O56 1.278 1_565 S
C60 O61 1.211 . S
O61 C60 1.211 . S
C62 O54 1.284 . S
C62 O63 1.273 . S
O63 C62 1.273 . S
O64 Zn55 1.977 . S
O64 C57 1.267 1_545 S
C65 O66 1.160 1_556 S
C65 O72 1.185 . S
O66 C65 1.160 1_554 S
O67 Zn68 1.899 . S
O67 C75 1.284 . S
Zn68 O67 1.899 . S
Zn68 O69 2.032 . S
Zn68 O72 2.086 1_554 S
Zn68 O77 1.977 . S
O69 Zn68 2.032 . S
O69 C73 1.278 1_655 S
C70 O71 1.203 . S
C70 O77 1.267 1_455 S
O71 C70 1.203 . S
O72 C65 1.185 . S
O72 Zn68 2.086 1_556 S
C73 O69 1.278 1_455 S
C73 O74 1.211 . S
O74 C73 1.211 . S
C75 O67 1.284 . S
C75 O76 1.273 . S
O76 C75 1.273 . S
O77 Zn68 1.977 . S
O77 C70 1.267 1_655 S
C78 O79 1.160 . S
C78 O85 1.185 . S
O79 C78 1.160 . S
O80 Zn81 1.899 . S
O80 C88 1.284 . S
Zn81 O80 1.899 . S
Zn81 O82 2.032 . S
Zn81 O85 2.086 . S
Zn81 O90 1.977 . S
O82 Zn81 2.032 . S
O82 C86 1.278 . S
C83 O84 1.203 . S
C83 O90 1.267 . S
O84 C83 1.203 . S
O85 C78 1.185 . S
O85 Zn81 2.086 . S
C86 O82 1.278 . S
C86 O87 1.211 . S
O87 C86 1.211 . S
C88 O80 1.284 . S
C88 O89 1.273 . S
O89 C88 1.273 . S
O90 Zn81 1.977 . S
O90 C83 1.267 . S
C91 O92 1.160 . S
C91 O98 1.185 . S
O92 C91 1.160 . S
O93 Zn94 1.899 . S
O93 C101 1.284 . S
Zn94 O93 1.899 . S
Zn94 O95 2.032 . S
Zn94 O98 2.086 . S
Zn94 O103 1.977 . S
O95 Zn94 2.032 . S
O95 C99 1.278 . S
C96 O97 1.203 . S
C96 O103 1.267 . S
O97 C96 1.203 . S
O98 C91 1.185 . S
O98 Zn94 2.086 . S
C99 O95 1.278 . S
C99 O100 1.211 . S
O100 C99 1.211 . S
C101 O93 1.284 . S
C101 O102 1.273 . S
O102 C101 1.273 . S
O103 Zn94 1.977 . S
O103 C96 1.267 . S
C104 C105 1.363 1_554 S
C104 C110 1.379 . S
C104 N112 1.356 1_554 S
C105 C104 1.363 1_556 S
C105 C111 1.363 . S
C106 C107 1.363 1_556 S
C106 C111 1.379 . S
C106 N113 1.356 1_556 S
C107 C106 1.363 1_554 S
C107 C110 1.363 . S
N108 C110 1.356 . S
N108 H120 0.984 . S
N108 H121 0.985 . S
N109 C111 1.356 . S
N109 H114 0.984 . S
N109 H115 0.985 . S
C110 C104 1.379 . S
C110 C107 1.363 . S
C110 N108 1.356 . S
C111 C105 1.363 . S
C111 C106 1.379 . S
C111 N109 1.356 . S
N112 C104 1.356 1_556 S
N112 H118 0.984 1_556 S
N112 H119 0.984 . S
N113 C106 1.356 1_554 S
N113 H116 0.984 . S
N113 H117 0.985 1_554 S
H114 N109 0.984 . S
H115 N109 0.985 . S
H116 N113 0.984 . S
H117 N113 0.985 1_556 S
H118 N112 0.984 1_554 S
H119 N112 0.984 . S
H120 N108 0.984 . S
H121 N108 0.985 . S
C122 C123 1.363 . S
C122 C128 1.379 . S
C122 N130 1.356 . S
C123 C122 1.363 . S
C123 C129 1.363 . S
C124 C125 1.363 . S
C124 C129 1.379 . S
C124 N131 1.356 . S
C125 C124 1.363 . S
C125 C128 1.363 . S
N126 C128 1.356 . S
N126 H138 0.984 . S
N126 H139 0.985 1_554 S
N127 C129 1.356 . S
N127 H132 0.984 . S
N127 H133 0.985 . S
C128 C122 1.379 . S
C128 C125 1.363 . S
C128 N126 1.356 . S
C129 C123 1.363 . S
C129 C124 1.379 . S
C129 N127 1.356 . S
N130 C122 1.356 . S
N130 H136 0.984 . S
N130 H137 0.984 . S
N131 C124 1.356 . S
N131 H134 0.984 . S
N131 H135 0.985 . S
H132 N127 0.984 . S
H133 N127 0.985 . S
H134 N131 0.984 . S
H135 N131 0.985 . S
H136 N130 0.984 . S
H137 N130 0.984 . S
H138 N126 0.984 . S
H139 N126 0.985 1_556 S
C140 C141 1.363 . S
C140 C146 1.379 . S
C140 N148 1.356 . S
C141 C140 1.363 . S
C141 C147 1.363 . S
C142 C143 1.363 . S
C142 C147 1.379 . S
C142 N149 1.356 . S
C143 C142 1.363 . S
C143 C146 1.363 . S
N144 C146 1.356 . S
N144 H156 0.984 . S
N144 H157 0.985 . S
N145 C147 1.356 . S
N145 H150 0.984 . S
N145 H151 0.985 . S
C146 C140 1.379 . S
C146 C143 1.363 . S
C146 N144 1.356 . S
C147 C141 1.363 . S
C147 C142 1.379 . S
C147 N145 1.356 . S
N148 C140 1.356 . S
N148 H154 0.984 . S
N148 H155 0.984 . S
N149 C142 1.356 . S
N149 H152 0.984 . S
N149 H153 0.985 . S
H150 N145 0.984 . S
H151 N145 0.985 . S
H152 N149 0.984 . S
H153 N149 0.985 . S
H154 N148 0.984 . S
H155 N148 0.984 . S
H156 N144 0.984 . S
H157 N144 0.985 . S
C158 C159 1.363 . S
C158 C164 1.379 . S
C158 N166 1.356 . S
C159 C158 1.363 . S
C159 C165 1.363 . S
C160 C161 1.363 . S
C160 C165 1.379 . S
C160 N167 1.356 . S
C161 C160 1.363 . S
C161 C164 1.363 . S
N162 C164 1.356 . S
N162 H174 0.984 . S
N162 H175 0.985 . S
N163 C165 1.356 . S
N163 H168 0.984 . S
N163 H169 0.985 . S
C164 C158 1.379 . S
C164 C161 1.363 . S
C164 N162 1.356 . S
C165 C159 1.363 . S
C165 C160 1.379 . S
C165 N163 1.356 . S
N166 C158 1.356 . S
N166 H172 0.984 1_556 S
N166 H173 0.984 1_556 S
N167 C160 1.356 . S
N167 H170 0.984 . S
N167 H171 0.985 . S
H168 N163 0.984 . S
H169 N163 0.985 . S
H170 N167 0.984 . S
H171 N167 0.985 . S
H172 N166 0.984 1_554 S
H173 N166 0.984 1_554 S
H174 N162 0.984 . S
H175 N162 0.985 . S
C176 C177 1.363 . S
C176 C182 1.379 . S
C176 N184 1.356 . S
C177 C176 1.363 . S
C177 C183 1.363 . S
C178 C179 1.363 . S
C178 C183 1.379 . S
C178 N185 1.356 . S
C179 C178 1.363 . S
C179 C182 1.363 . S
N180 C182 1.356 . S
N180 H192 0.984 . S
N180 H193 0.985 . S
N181 C183 1.356 . S
N181 H186 0.984 . S
N181 H187 0.985 . S
C182 C176 1.379 . S
C182 C179 1.363 . S
C182 N180 1.356 . S
C183 C177 1.363 . S
C183 C178 1.379 . S
C183 N181 1.356 . S
N184 C176 1.356 . S
N184 H190 0.984 . S
N184 H191 0.984 . S
N185 C178 1.356 . S
N185 H188 0.984 . S
N185 H189 0.985 . S
H186 N181 0.984 . S
H187 N181 0.985 . S
H188 N185 0.984 . S
H189 N185 0.985 . S
H190 N184 0.984 . S
H191 N184 0.984 . S
H192 N180 0.984 . S
H193 N180 0.985 . S
C194 C195 1.363 . S
C194 C200 1.379 . S
C194 N202 1.356 . S
C195 C194 1.363 . S
C195 C201 1.363 . S
C196 C197 1.363 . S
C196 C201 1.379 . S
C196 N203 1.356 . S
C197 C196 1.363 . S
C197 C200 1.363 . S
N198 C200 1.356 . S
N198 H210 0.984 . S
N198 H211 0.985 . S
N199 C201 1.356 . S
N199 H204 0.984 . S
N199 H205 0.985 . S
C200 C194 1.379 . S
C200 C197 1.363 . S
C200 N198 1.356 . S
C201 C195 1.363 . S
C201 C196 1.379 . S
C201 N199 1.356 . S
N202 C194 1.356 . S
N202 H208 0.984 1_556 S
N202 H209 0.984 1_556 S
N203 C196 1.356 . S
N203 H206 0.984 . S
N203 H207 0.985 . S
H204 N199 0.984 . S
H205 N199 0.985 . S
H206 N203 0.984 . S
H207 N203 0.985 . S
H208 N202 0.984 1_554 S
H209 N202 0.984 1_554 S
H210 N198 0.984 . S
H211 N198 0.985 . S
C212 C213 1.363 . S
C212 C218 1.379 1_554 S
C212 N220 1.356 . S
C213 C212 1.363 . S
C213 C219 1.363 . S
C214 C215 1.363 . S
C214 C219 1.379 1_556 S
C214 N221 1.356 . S
C215 C214 1.363 . S
C215 C218 1.363 . S
N216 C218 1.356 . S
N216 H228 0.984 . S
N216 H229 0.985 . S
N217 C219 1.356 . S
N217 H222 0.984 . S
N217 H223 0.985 . S
C218 C212 1.379 1_556 S
C218 C215 1.363 . S
C218 N216 1.356 . S
C219 C213 1.363 . S
C219 C214 1.379 1_554 S
C219 N217 1.356 . S
N220 C212 1.356 . S
N220 H226 0.984 . S
N220 H227 0.984 . S
N221 C214 1.356 . S
N221 H224 0.984 . S
N221 H225 0.985 . S
H222 N217 0.984 . S
H223 N217 0.985 . S
H224 N221 0.984 . S
H225 N221 0.985 . S
H226 N220 0.984 . S
H227 N220 0.984 . S
H228 N216 0.984 . S
H229 N216 0.985 . S
C230 C231 1.363 . S
C230 C236 1.379 . S
C230 N238 1.356 . S
C231 C230 1.363 . S
C231 C237 1.363 . S
C232 C233 1.363 . S
C232 C237 1.379 . S
C232 N239 1.356 . S
C233 C232 1.363 . S
C233 C236 1.363 . S
N234 C236 1.356 . S
N234 H246 0.984 . S
N234 H247 0.985 . S
N235 C237 1.356 . S
N235 H240 0.984 . S
N235 H241 0.985 . S
C236 C230 1.379 . S
C236 C233 1.363 . S
C236 N234 1.356 . S
C237 C231 1.363 . S
C237 C232 1.379 . S
C237 N235 1.356 . S
N238 C230 1.356 . S
N238 H244 0.984 . S
N238 H245 0.984 . S
N239 C232 1.356 . S
N239 H242 0.984 . S
N239 H243 0.985 . S
H240 N235 0.984 . S
H241 N235 0.985 . S
H242 N239 0.984 . S
H243 N239 0.985 . S
H244 N238 0.984 . S
H245 N238 0.984 . S
H246 N234 0.984 . S
H247 N234 0.985 . S
C248 C249 1.363 . S
C248 C254 1.379 . S
C248 N256 1.356 . S
C249 C248 1.363 . S
C249 C255 1.363 . S
C250 C251 1.363 . S
C250 C255 1.379 . S
C250 N257 1.356 . S
C251 C250 1.363 . S
C251 C254 1.363 . S
N252 C254 1.356 . S
N252 H264 0.984 . S
N252 H265 0.985 . S
N253 C255 1.356 . S
N253 H258 0.984 . S
N253 H259 0.985 . S
C254 C248 1.379 . S
C254 C251 1.363 . S
C254 N252 1.356 . S
C255 C249 1.363 . S
C255 C250 1.379 . S
C255 N253 1.356 . S
N256 C248 1.356 . S
N256 H262 0.984 . S
N256 H263 0.984 . S
N257 C250 1.356 . S
N257 H260 0.984 . S
N257 H261 0.985 . S
H258 N253 0.984 . S
H259 N253 0.985 . S
H260 N257 0.984 . S
H261 N257 0.985 . S
H262 N256 0.984 . S
H263 N256 0.984 . S
H264 N252 0.984 . S
H265 N252 0.985 . S
C266 C267 1.363 . S
C266 C272 1.379 . S
C266 N274 1.356 . S
C267 C266 1.363 . S
C267 C273 1.363 . S
C268 C269 1.363 . S
C268 C273 1.379 . S
C268 N275 1.356 . S
C269 C268 1.363 . S
C269 C272 1.363 . S
N270 C272 1.356 . S
N270 H282 0.984 . S
N270 H283 0.985 . S
N271 C273 1.356 . S
N271 H276 0.984 . S
N271 H277 0.985 . S
C272 C266 1.379 . S
C272 C269 1.363 . S
C272 N270 1.356 . S
C273 C267 1.363 . S
C273 C268 1.379 . S
C273 N271 1.356 . S
N274 C266 1.356 . S
N274 H280 0.984 1_565 S
N274 H281 0.984 1_565 S
N275 C268 1.356 . S
N275 H278 0.984 . S
N275 H279 0.985 . S
H276 N271 0.984 . S
H277 N271 0.985 . S
H278 N275 0.984 . S
H279 N275 0.985 . S
H280 N274 0.984 1_545 S
H281 N274 0.984 1_545 S
H282 N270 0.984 . S
H283 N270 0.985 . S
C284 C285 1.363 . S
C284 C290 1.379 . S
C284 N292 1.356 . S
C285 C284 1.363 . S
C285 C291 1.363 1_554 S
C286 C287 1.363 . S
C286 C291 1.379 . S
C286 N293 1.356 . S
C287 C286 1.363 . S
C287 C290 1.363 1_556 S
N288 C290 1.356 . S
N288 H300 0.984 . S
N288 H301 0.985 . S
N289 C291 1.356 1_655 S
N289 H294 0.984 . S
N289 H295 0.985 . S
C290 C284 1.379 . S
C290 C287 1.363 1_554 S
C290 N288 1.356 . S
C291 C285 1.363 1_556 S
C291 C286 1.379 . S
C291 N289 1.356 1_455 S
N292 C284 1.356 . S
N292 H298 0.984 . S
N292 H299 0.984 . S
N293 C286 1.356 . S
N293 H296 0.984 1_545 S
N293 H297 0.985 1_545 S
H294 N289 0.984 . S
H295 N289 0.985 . S
H296 N293 0.984 1_565 S
H297 N293 0.985 1_565 S
H298 N292 0.984 . S
H299 N292 0.984 . S
H300 N288 0.984 . S
H301 N288 0.985 . S
C302 C303 1.363 . S
C302 C308 1.379 . S
C302 N310 1.356 . S
C303 C302 1.363 . S
C303 C309 1.363 . S
C304 C305 1.363 . S
C304 C309 1.379 . S
C304 N311 1.356 . S
C305 C304 1.363 . S
C305 C308 1.363 . S
N306 C308 1.356 . S
N306 H318 0.984 . S
N306 H319 0.985 . S
N307 C309 1.356 . S
N307 H312 0.984 . S
N307 H313 0.985 1_554 S
C308 C302 1.379 . S
C308 C305 1.363 . S
C308 N306 1.356 . S
C309 C303 1.363 . S
C309 C304 1.379 . S
C309 N307 1.356 . S
N310 C302 1.356 . S
N310 H316 0.984 . S
N310 H317 0.984 . S
N311 C304 1.356 . S
N311 H314 0.984 . S
N311 H315 0.985 . S
H312 N307 0.984 . S
H313 N307 0.985 1_556 S
H314 N311 0.984 . S
H315 N311 0.985 . S
H316 N310 0.984 . S
H317 N310 0.984 . S
H318 N306 0.984 . S
H319 N306 0.985 . S
C320 C321 1.363 . S
C320 C326 1.379 . S
C320 N328 1.356 . S
C321 C320 1.363 . S
C321 C327 1.363 . S
C322 C323 1.363 . S
C322 C327 1.379 . S
C322 N329 1.356 . S
C323 C322 1.363 . S
C323 C326 1.363 . S
N324 C326 1.356 . S
N324 H336 0.984 . S
N324 H337 0.985 . S
N325 C327 1.342 1_565 S
N325 H330 0.991 . S
N325 H331 0.993 . S
C326 C320 1.379 . S
C326 C323 1.363 . S
C326 N324 1.356 . S
C327 C321 1.363 . S
C327 C322 1.379 . S
C327 N325 1.342 1_545 S
N328 C320 1.356 . S
N328 H334 0.984 . S
N328 H335 0.984 . S
N329 C322 1.356 . S
N329 H332 0.984 . S
N329 H333 0.985 . S
H330 N325 0.991 . S
H331 N325 0.993 . S
H332 N329 0.984 . S
H333 N329 0.985 . S
H334 N328 0.984 . S
H335 N328 0.984 . S
H336 N324 0.984 . S
H337 N324 0.985 . S
C338 C339 1.363 1_554 S
C338 C344 1.379 . S
C338 N346 1.356 . S
C339 C338 1.363 1_556 S
C339 C345 1.363 . S
C340 C341 1.363 1_556 S
C340 C345 1.379 . S
C340 N347 1.356 . S
C341 C340 1.363 1_554 S
C341 C344 1.363 . S
N342 C344 1.356 . S
N342 H354 0.984 . S
N342 H355 0.985 . S
N343 C345 1.356 . S
N343 H348 0.984 . S
N343 H349 0.985 . S
C344 C338 1.379 . S
C344 C341 1.363 . S
C344 N342 1.356 . S
C345 C339 1.363 . S
C345 C340 1.379 . S
C345 N343 1.356 . S
N346 C338 1.356 . S
N346 H352 0.984 . S
N346 H353 0.984 1_565 S
N347 C340 1.356 . S
N347 H350 0.984 . S
N347 H351 0.985 . S
H348 N343 0.984 . S
H349 N343 0.985 . S
H350 N347 0.984 . S
H351 N347 0.985 . S
H352 N346 0.984 . S
H353 N346 0.984 1_545 S
H354 N342 0.984 . S
H355 N342 0.985 . S
C356 C357 1.363 . S
C356 C362 1.379 . S
C356 N364 1.356 . S
C357 C356 1.363 . S
C357 C363 1.363 . S
C358 C359 1.363 . S
C358 C363 1.379 . S
C358 N365 1.356 . S
C359 C358 1.363 . S
C359 C362 1.363 . S
N360 C362 1.356 . S
N360 H372 0.984 . S
N360 H373 0.985 . S
N361 C363 1.356 . S
N361 H366 0.984 . S
N361 H367 0.985 1_554 S
C362 C356 1.379 . S
C362 C359 1.363 . S
C362 N360 1.356 . S
C363 C357 1.363 . S
C363 C358 1.379 . S
C363 N361 1.356 . S
N364 C356 1.356 . S
N364 H370 0.984 . S
N364 H371 0.984 1_455 S
N365 C358 1.356 . S
N365 H368 0.984 . S
N365 H369 0.985 . S
H366 N361 0.984 . S
H367 N361 0.985 1_556 S
H368 N365 0.984 . S
H369 N365 0.985 . S
H370 N364 0.984 . S
H371 N364 0.984 1_655 S
H372 N360 0.984 . S
H373 N360 0.985 . S
C374 C375 1.363 . S
C374 C380 1.379 . S
C374 N382 1.356 . S
C375 C374 1.363 . S
C375 C381 1.363 . S
C376 C377 1.363 . S
C376 C381 1.379 . S
C376 N383 1.356 . S
C377 C376 1.363 . S
C377 C380 1.363 . S
N378 C380 1.356 . S
N378 H390 0.984 . S
N378 H391 0.985 . S
N379 C381 1.356 . S
N379 H384 0.984 . S
N379 H385 0.985 . S
C380 C374 1.379 . S
C380 C377 1.363 . S
C380 N378 1.356 . S
C381 C375 1.363 . S
C381 C376 1.379 . S
C381 N379 1.356 . S
N382 C374 1.356 . S
N382 H388 0.984 . S
N382 H389 0.984 . S
N383 C376 1.356 . S
N383 H386 0.984 . S
N383 H387 0.985 . S
H384 N379 0.984 . S
H385 N379 0.985 . S
H386 N383 0.984 . S
H387 N383 0.985 . S
H388 N382 0.984 . S
H389 N382 0.984 . S
H390 N378 0.984 . S
H391 N378 0.985 . S
C105 C23 1.411 . S
C107 C10 1.411 . S
C123 C13 1.429 . S
C125 C26 1.429 . S
C141 C49 1.411 . S
C143 C36 1.411 . S
C159 C39 1.429 . S
C161 C0 1.429 . S
C177 C62 1.411 . S
C179 C75 1.411 . S
C195 C65 1.429 . S
C197 C78 1.429 . S
C213 C88 1.411 . S
C215 C101 1.411 . S
C231 C52 1.429 . S
C233 C91 1.429 . S
C249 C5 1.443 . S
C251 C96 1.443 . S
C267 C60 1.450 . S
C269 C21 1.450 . S
C285 C70 1.443 . S
C287 C31 1.443 . S
C303 C47 1.450 . S
C305 C86 1.450 . S
C321 C34 1.450 . S
C323 C99 1.450 . S
C339 C57 1.443 . S
C341 C44 1.443 . S
C357 C73 1.450 . S
C359 C8 1.450 . S
C375 C18 1.443 . S
C377 C83 1.443 . S
