# Generated by pormake.
# Topology lcy-a, (4)-cn, num edge types: 1
# Building blocks:
#     Node 0, Type 0, BuildingBlock: QUQFOY_clean_sbu_1, # of connection points: 4
#     Node 1, Type 0, BuildingBlock: QUQFOY_clean_sbu_1, # of connection points: 4
#     Node 2, Type 0, BuildingBlock: QUQFOY_clean_sbu_1, # of connection points: 4
#     Node 3, Type 0, BuildingBlock: QUQFOY_clean_sbu_1, # of connection points: 4
#     Node 4, Type 0, BuildingBlock: QUQFOY_clean_sbu_1, # of connection points: 4
#     Node 5, Type 0, BuildingBlock: QUQFOY_clean_sbu_1, # of connection points: 4
#     Node 6, Type 0, BuildingBlock: QUQFOY_clean_sbu_1, # of connection points: 4
#     Node 7, Type 0, BuildingBlock: QUQFOY_clean_sbu_1, # of connection points: 4
#     Node 8, Type 0, BuildingBlock: QUQFOY_clean_sbu_1, # of connection points: 4
#     Node 9, Type 0, BuildingBlock: QUQFOY_clean_sbu_1, # of connection points: 4
#     Node 10, Type 0, BuildingBlock: QUQFOY_clean_sbu_1, # of connection points: 4
#     Node 11, Type 0, BuildingBlock: QUQFOY_clean_sbu_1, # of connection points: 4
#     Node 12, Type 0, BuildingBlock: QUQFOY_clean_sbu_1, # of connection points: 4
#     Node 13, Type 0, BuildingBlock: QUQFOY_clean_sbu_1, # of connection points: 4
#     Node 14, Type 0, BuildingBlock: QUQFOY_clean_sbu_1, # of connection points: 4
#     Node 15, Type 0, BuildingBlock: QUQFOY_clean_sbu_1, # of connection points: 4
#     Node 16, Type 0, BuildingBlock: QUQFOY_clean_sbu_1, # of connection points: 4
#     Node 17, Type 0, BuildingBlock: QUQFOY_clean_sbu_1, # of connection points: 4
#     Node 18, Type 0, BuildingBlock: QUQFOY_clean_sbu_1, # of connection points: 4
#     Node 19, Type 0, BuildingBlock: QUQFOY_clean_sbu_1, # of connection points: 4
#     Node 20, Type 0, BuildingBlock: QUQFOY_clean_sbu_1, # of connection points: 4
#     Node 21, Type 0, BuildingBlock: QUQFOY_clean_sbu_1, # of connection points: 4
#     Node 22, Type 0, BuildingBlock: QUQFOY_clean_sbu_1, # of connection points: 4
#     Node 23, Type 0, BuildingBlock: QUQFOY_clean_sbu_1, # of connection points: 4
#     Edge 24, Type (0, 0), BuildingBlock: KIFKEQ_clean_linker_1, # of connection points: 2
#     Edge 25, Type (0, 0), BuildingBlock: KIFKEQ_clean_linker_1, # of connection points: 2
#     Edge 26, Type (0, 0), BuildingBlock: KIFKEQ_clean_linker_1, # of connection points: 2
#     Edge 27, Type (0, 0), BuildingBlock: KIFKEQ_clean_linker_1, # of connection points: 2
#     Edge 28, Type (0, 0), BuildingBlock: KIFKEQ_clean_linker_1, # of connection points: 2
#     Edge 29, Type (0, 0), BuildingBlock: KIFKEQ_clean_linker_1, # of connection points: 2
#     Edge 30, Type (0, 0), BuildingBlock: KIFKEQ_clean_linker_1, # of connection points: 2
#     Edge 31, Type (0, 0), BuildingBlock: KIFKEQ_clean_linker_1, # of connection points: 2
#     Edge 32, Type (0, 0), BuildingBlock: KIFKEQ_clean_linker_1, # of connection points: 2
#     Edge 33, Type (0, 0), BuildingBlock: KIFKEQ_clean_linker_1, # of connection points: 2
#     Edge 34, Type (0, 0), BuildingBlock: KIFKEQ_clean_linker_1, # of connection points: 2
#     Edge 35, Type (0, 0), BuildingBlock: KIFKEQ_clean_linker_1, # of connection points: 2
#     Edge 36, Type (0, 0), BuildingBlock: KIFKEQ_clean_linker_1, # of connection points: 2
#     Edge 37, Type (0, 0), BuildingBlock: KIFKEQ_clean_linker_1, # of connection points: 2
#     Edge 38, Type (0, 0), BuildingBlock: KIFKEQ_clean_linker_1, # of connection points: 2
#     Edge 39, Type (0, 0), BuildingBlock: KIFKEQ_clean_linker_1, # of connection points: 2
#     Edge 40, Type (0, 0), BuildingBlock: KIFKEQ_clean_linker_1, # of connection points: 2
#     Edge 41, Type (0, 0), BuildingBlock: KIFKEQ_clean_linker_1, # of connection points: 2
#     Edge 42, Type (0, 0), BuildingBlock: KIFKEQ_clean_linker_1, # of connection points: 2
#     Edge 43, Type (0, 0), BuildingBlock: KIFKEQ_clean_linker_1, # of connection points: 2
#     Edge 44, Type (0, 0), BuildingBlock: KIFKEQ_clean_linker_1, # of connection points: 2
#     Edge 45, Type (0, 0), BuildingBlock: KIFKEQ_clean_linker_1, # of connection points: 2
#     Edge 46, Type (0, 0), BuildingBlock: KIFKEQ_clean_linker_1, # of connection points: 2
#     Edge 47, Type (0, 0), BuildingBlock: KIFKEQ_clean_linker_1, # of connection points: 2
#     Edge 48, Type (0, 0), BuildingBlock: KIFKEQ_clean_linker_1, # of connection points: 2
#     Edge 49, Type (0, 0), BuildingBlock: KIFKEQ_clean_linker_1, # of connection points: 2
#     Edge 50, Type (0, 0), BuildingBlock: KIFKEQ_clean_linker_1, # of connection points: 2
#     Edge 51, Type (0, 0), BuildingBlock: KIFKEQ_clean_linker_1, # of connection points: 2
#     Edge 52, Type (0, 0), BuildingBlock: KIFKEQ_clean_linker_1, # of connection points: 2
#     Edge 53, Type (0, 0), BuildingBlock: KIFKEQ_clean_linker_1, # of connection points: 2
#     Edge 54, Type (0, 0), BuildingBlock: KIFKEQ_clean_linker_1, # of connection points: 2
#     Edge 55, Type (0, 0), BuildingBlock: KIFKEQ_clean_linker_1, # of connection points: 2
#     Edge 56, Type (0, 0), BuildingBlock: KIFKEQ_clean_linker_1, # of connection points: 2
#     Edge 57, Type (0, 0), BuildingBlock: KIFKEQ_clean_linker_1, # of connection points: 2
#     Edge 58, Type (0, 0), BuildingBlock: KIFKEQ_clean_linker_1, # of connection points: 2
#     Edge 59, Type (0, 0), BuildingBlock: KIFKEQ_clean_linker_1, # of connection points: 2
#     Edge 60, Type (0, 0), BuildingBlock: KIFKEQ_clean_linker_1, # of connection points: 2
#     Edge 61, Type (0, 0), BuildingBlock: KIFKEQ_clean_linker_1, # of connection points: 2
#     Edge 62, Type (0, 0), BuildingBlock: KIFKEQ_clean_linker_1, # of connection points: 2
#     Edge 63, Type (0, 0), BuildingBlock: KIFKEQ_clean_linker_1, # of connection points: 2
#     Edge 64, Type (0, 0), BuildingBlock: KIFKEQ_clean_linker_1, # of connection points: 2
#     Edge 65, Type (0, 0), BuildingBlock: KIFKEQ_clean_linker_1, # of connection points: 2
#     Edge 66, Type (0, 0), BuildingBlock: KIFKEQ_clean_linker_1, # of connection points: 2
#     Edge 67, Type (0, 0), BuildingBlock: KIFKEQ_clean_linker_1, # of connection points: 2
#     Edge 68, Type (0, 0), BuildingBlock: KIFKEQ_clean_linker_1, # of connection points: 2
#     Edge 69, Type (0, 0), BuildingBlock: KIFKEQ_clean_linker_1, # of connection points: 2
#     Edge 70, Type (0, 0), BuildingBlock: KIFKEQ_clean_linker_1, # of connection points: 2
#     Edge 71, Type (0, 0), BuildingBlock: KIFKEQ_clean_linker_1, # of connection points: 2
# Relax obj value: 0.381
# Max RMSD: 0.177
# Mean RMSD: 0.177
data_MOF--net-lcy-a--node1-QUQFOY_clean_sbu_1--edge1-KIFKEQ_clean_linker_1
_symmetry_space_group_name_H-M    P1
_symmetry_Int_Tables_number       1
_symmetry_cell_setting            triclinic
loop_
_symmetry_equiv_pos_as_xyz
'x, y, z'
_cell_length_a     60.445903
_cell_length_b     60.438876
_cell_length_c     60.40995
_cell_angle_alpha  89.986735
_cell_angle_beta   89.975742
_cell_angle_gamma 90.011582
loop_
_atom_site_label
_atom_site_type_symbol
_atom_site_fract_x
_atom_site_fract_y
_atom_site_fract_z
_atom_type_partial_charge
O0 O 0.2077 0.24839 0.37783 0.0
Cd1 Cd 0.18239 0.27024 0.3842 0.0
Cd2 Cd 0.21396 0.29756 0.40051 0.0
O3 O 0.23232 0.26917 0.39497 0.0
O4 O 0.15546 0.25481 0.39468 0.0
O5 O 0.1767 0.2758 0.41621 0.0
C6 C 0.15989 0.26273 0.41406 0.0
C7 C 0.22858 0.32218 0.42668 0.0
C8 C 0.22729 0.25141 0.38483 0.0
C9 C 0.18731 0.31123 0.3593 0.0
O10 O 0.20238 0.31481 0.37348 0.0
O11 O 0.17578 0.29372 0.3604 0.0
O12 O 0.23785 0.31874 0.40788 0.0
O13 O 0.21112 0.31088 0.43144 0.0
O14 O 0.99599 0.95507 0.61856 0.0
Cd15 Cd 0.97557 0.92894 0.62537 0.0
Cd16 Cd 0.94853 0.95939 0.6447 0.0
O17 O 0.97739 0.97763 0.64036 0.0
O18 O 0.99384 0.90282 0.63228 0.0
O19 O 0.97302 0.92024 0.65712 0.0
C20 C 0.98745 0.90507 0.65259 0.0
C21 C 0.92434 0.97467 0.67102 0.0
C22 C 0.99404 0.97365 0.62811 0.0
C23 C 0.934 0.93432 0.60239 0.0
O24 O 0.93086 0.94888 0.61723 0.0
O25 O 0.95143 0.92265 0.60249 0.0
O26 O 0.92826 0.98396 0.65234 0.0
O27 O 0.93469 0.95655 0.67545 0.0
O28 O 0.29124 0.74442 0.87203 0.0
Cd29 Cd 0.31846 0.72489 0.87676 0.0
Cd30 Cd 0.2898 0.69374 0.89183 0.0
O31 O 0.26821 0.7199 0.88609 0.0
O32 O 0.34355 0.74449 0.88376 0.0
O33 O 0.3287 0.72112 0.90798 0.0
C34 C 0.34269 0.73676 0.9037 0.0
C35 C 0.27751 0.66841 0.91856 0.0
C36 C 0.27181 0.73889 0.87771 0.0
C37 C 0.31804 0.68429 0.85059 0.0
O38 O 0.3042 0.67792 0.86508 0.0
O39 O 0.32647 0.70347 0.85165 0.0
O40 O 0.26856 0.66989 0.89935 0.0
O41 O 0.29348 0.68177 0.92319 0.0
O42 O 0.50137 0.04369 0.11919 0.0
Cd43 Cd 0.52235 0.06955 0.12524 0.0
Cd44 Cd 0.55119 0.03923 0.14197 0.0
O45 O 0.52366 0.01978 0.13528 0.0
O46 O 0.50438 0.09574 0.13263 0.0
O47 O 0.52583 0.07832 0.15691 0.0
C48 C 0.51133 0.09352 0.15275 0.0
C49 C 0.57397 0.02388 0.16951 0.0
C50 C 0.50544 0.02416 0.12569 0.0
C51 C 0.56429 0.0667 0.10123 0.0
O52 O 0.56914 0.05247 0.11594 0.0
O53 O 0.54563 0.0763 0.10144 0.0
O54 O 0.57221 0.01541 0.15011 0.0
O55 O 0.56264 0.04148 0.17366 0.0
O56 O 0.70776 0.24486 0.62589 0.0
Cd57 Cd 0.68273 0.22318 0.61897 0.0
Cd58 Cd 0.71493 0.19568 0.60286 0.0
O59 O 0.73297 0.22416 0.60963 0.0
O60 O 0.65628 0.24083 0.61177 0.0
O61 O 0.6743 0.22027 0.58715 0.0
C62 C 0.65886 0.23446 0.5915 0.0
C63 C 0.73169 0.17283 0.57617 0.0
C64 C 0.72753 0.24193 0.61952 0.0
C65 C 0.68698 0.18151 0.64307 0.0
O66 O 0.70203 0.17755 0.62892 0.0
O67 O 0.67617 0.19949 0.64239 0.0
O68 O 0.7398 0.17553 0.59562 0.0
O69 O 0.71378 0.18341 0.5714 0.0
O70 O -6e-05 0.46071 0.87369 0.0
Cd71 Cd 0.02305 0.43666 0.86713 0.0
Cd72 Cd 0.0474 0.46923 0.84908 0.0
O73 O 0.01754 0.48538 0.85348 0.0
O74 O 0.00727 0.40882 0.86086 0.0
O75 O 0.026 0.42775 0.83546 0.0
C76 C 0.01314 0.41136 0.84043 0.0
C77 C 0.06969 0.48403 0.82089 0.0
C78 C 0.00083 0.47979 0.86497 0.0
C79 C 0.06396 0.4457 0.89094 0.0
O80 O 0.06578 0.46114 0.87676 0.0
O81 O 0.04787 0.43225 0.88989 0.0
O82 O 0.065 0.49483 0.83858 0.0
O83 O 0.06138 0.46449 0.81872 0.0
O84 O 0.7938 0.75174 0.12929 0.0
Cd85 Cd 0.81683 0.77507 0.12067 0.0
Cd86 Cd 0.78366 0.79558 0.0998 0.0
O87 O 0.77017 0.76432 0.10459 0.0
O88 O 0.84508 0.76041 0.11328 0.0
O89 O 0.82361 0.77709 0.08849 0.0
C90 C 0.84085 0.76518 0.09283 0.0
C91 C 0.76836 0.81556 0.07025 0.0
C92 C 0.77581 0.74975 0.11868 0.0
C93 C 0.80462 0.81635 0.14136 0.0
O94 O 0.7893 0.81587 0.12693 0.0
O95 O 0.81954 0.80159 0.1415 0.0
O96 O 0.75711 0.81037 0.08753 0.0
O97 O 0.78863 0.80898 0.06925 0.0
O98 O 0.49351 0.53534 0.37121 0.0
Cd99 Cd 0.4722 0.56074 0.36381 0.0
Cd100 Cd 0.4476 0.5292 0.34451 0.0
O101 O 0.47758 0.51288 0.34742 0.0
O102 O 0.48994 0.5877 0.35902 0.0
O103 O 0.4713 0.57065 0.33229 0.0
C104 C 0.48487 0.58609 0.33829 0.0
C105 C 0.42454 0.51454 0.31685 0.0
C106 C 0.49329 0.51717 0.36071 0.0
C107 C 0.43132 0.55203 0.38709 0.0
O108 O 0.42991 0.53643 0.37304 0.0
O109 O 0.44691 0.56602 0.38574 0.0
O110 O 0.42988 0.5036 0.33425 0.0
O111 O 0.43255 0.5342 0.31467 0.0
O112 O 0.37776 0.21483 0.25525 0.0
Cd113 Cd 0.383 0.18748 0.27456 0.0
Cd114 Cd 0.39894 0.21593 0.30553 0.0
O115 O 0.39298 0.23741 0.27946 0.0
O116 O 0.38872 0.16242 0.25448 0.0
O117 O 0.41416 0.17663 0.27688 0.0
C118 C 0.40897 0.16288 0.26131 0.0
C119 C 0.42596 0.22908 0.33023 0.0
C120 C 0.38386 0.23413 0.26079 0.0
C121 C 0.35748 0.18863 0.31586 0.0
O122 O 0.37205 0.20254 0.3219 0.0
O123 O 0.3585 0.17975 0.29686 0.0
O124 O 0.40698 0.23834 0.32804 0.0
O125 O 0.43005 0.212 0.31811 0.0
O126 O 0.03736 0.12594 0.49798 0.0
Cd127 Cd 0.06023 0.13352 0.52209 0.0
Cd128 Cd 0.02628 0.15088 0.54531 0.0
O129 O 0.01144 0.14509 0.51504 0.0
O130 O 0.08851 0.14383 0.50908 0.0
O131 O 0.06485 0.16579 0.52677 0.0
C132 C 0.08291 0.16345 0.51553 0.0
C133 C 0.00944 0.1788 0.56647 0.0
C134 C 0.01788 0.13381 0.49847 0.0
C135 C 0.05035 0.10995 0.56316 0.0
O136 O 0.03474 0.12395 0.56445 0.0
O137 O 0.06415 0.11098 0.54735 0.0
O138 O -0.00017 0.16035 0.56221 0.0
O139 O 0.02892 0.1819 0.55833 0.0
O140 O 0.12069 0.78201 0.75392 0.0
Cd141 Cd 0.11497 0.80881 0.77389 0.0
Cd142 Cd 0.0977 0.7797 0.8032 0.0
O143 O 0.10441 0.75881 0.77684 0.0
O144 O 0.10981 0.83453 0.75448 0.0
O145 O 0.08379 0.81961 0.77576 0.0
C146 C 0.08938 0.83385 0.76076 0.0
C147 C 0.06947 0.76643 0.82643 0.0
C148 C 0.11425 0.76259 0.75862 0.0
C149 C 0.13922 0.80578 0.81579 0.0
O150 O 0.12425 0.79192 0.82084 0.0
O151 O 0.13882 0.81552 0.79718 0.0
O152 O 0.08851 0.75715 0.82513 0.0
O153 O 0.066 0.78361 0.81426 0.0
O154 O 0.46549 0.86998 0.00534 0.0
Cd155 Cd 0.43794 0.86515 0.02448 0.0
Cd156 Cd 0.46628 0.85009 0.05599 0.0
O157 O 0.48816 0.85585 0.03014 0.0
O158 O 0.41308 0.85938 0.00421 0.0
O159 O 0.42673 0.83413 0.02718 0.0
C160 C 0.4132 0.83924 0.01139 0.0
C161 C 0.47904 0.82389 0.0817 0.0
C162 C 0.48485 0.86438 0.01118 0.0
C163 C 0.43868 0.89169 0.06499 0.0
O164 O 0.45242 0.87719 0.0715 0.0
O165 O 0.43 0.89026 0.04593 0.0
O166 O 0.48777 0.84314 0.07974 0.0
O167 O 0.4629 0.81893 0.06866 0.0
O168 O 0.87539 0.2867 0.74719 0.0
Cd169 Cd 0.88019 0.31379 0.72744 0.0
Cd170 Cd 0.89617 0.28482 0.69696 0.0
O171 O 0.89082 0.26364 0.72352 0.0
O172 O 0.88711 0.3391 0.74677 0.0
O173 O 0.91135 0.32405 0.72357 0.0
C174 C 0.90704 0.33819 0.73907 0.0
C175 C 0.92201 0.27206 0.67097 0.0
C176 C 0.88174 0.26734 0.74217 0.0
C177 C 0.85439 0.31212 0.6868 0.0
O178 O 0.86908 0.29825 0.68106 0.0
O179 O 0.85527 0.32131 0.70565 0.0
O180 O 0.90301 0.26296 0.67353 0.0
O181 O 0.92709 0.28834 0.68379 0.0
O182 O 0.95553 0.62344 0.99317 0.0
Cd183 Cd 0.92801 0.6295 0.97447 0.0
Cd184 Cd 0.95599 0.64772 0.94428 0.0
O185 O 0.97677 0.64356 0.97139 0.0
O186 O 0.90338 0.63687 0.99453 0.0
O187 O 0.91899 0.66111 0.97164 0.0
C188 C 0.90507 0.65698 0.9874 0.0
C189 C 0.96956 0.67414 0.91919 0.0
C190 C 0.97406 0.63237 0.98902 0.0
C191 C 0.92961 0.60533 0.93308 0.0
O192 O 0.94363 0.62016 0.92796 0.0
O193 O 0.91993 0.60583 0.95169 0.0
O194 O 0.97868 0.65516 0.92184 0.0
O195 O 0.9524 0.67863 0.93105 0.0
O196 O 0.6272 0.71132 0.25133 0.0
Cd197 Cd 0.62075 0.686 0.22959 0.0
Cd198 Cd 0.60284 0.71733 0.20282 0.0
O199 O 0.60827 0.7353 0.23149 0.0
O200 O 0.61369 0.65919 0.24681 0.0
O201 O 0.58906 0.67731 0.22637 0.0
C202 C 0.59348 0.66159 0.24023 0.0
C203 C 0.5754 0.73293 0.18009 0.0
C204 C 0.61916 0.73055 0.24885 0.0
C205 C 0.64426 0.69178 0.18781 0.0
O206 O 0.62979 0.70671 0.18468 0.0
O207 O 0.6437 0.68003 0.20521 0.0
O208 O 0.59424 0.74219 0.18327 0.0
O209 O 0.57169 0.71443 0.19007 0.0
O210 O 0.54187 0.37482 0.49658 0.0
Cd211 Cd 0.56514 0.36531 0.47366 0.0
Cd212 Cd 0.53251 0.3439 0.45396 0.0
O213 O 0.51893 0.34906 0.48501 0.0
O214 O 0.59343 0.35873 0.4887 0.0
O215 O 0.57221 0.33316 0.47292 0.0
C216 C 0.58944 0.3381 0.48461 0.0
C217 C 0.51891 0.31241 0.436 0.0
C218 C 0.52411 0.36388 0.49899 0.0
C219 C 0.55241 0.38493 0.43184 0.0
O220 O 0.53678 0.37087 0.43312 0.0
O221 O 0.56789 0.38476 0.44603 0.0
O222 O 0.50662 0.3292 0.44024 0.0
O223 O 0.53941 0.3132 0.44185 0.0
O224 O 0.2443 0.37324 0.20881 0.0
Cd225 Cd 0.26713 0.38274 0.18562 0.0
Cd226 Cd 0.28802 0.40302 0.21905 0.0
O227 O 0.25725 0.39699 0.23323 0.0
O228 O 0.25203 0.39052 0.15769 0.0
O229 O 0.26901 0.41502 0.17927 0.0
C230 C 0.25701 0.41089 0.16204 0.0
C231 C 0.30771 0.43263 0.23464 0.0
C232 C 0.24268 0.383 0.22733 0.0
C233 C 0.30908 0.36251 0.19643 0.0
O234 O 0.3088 0.37659 0.21207 0.0
O235 O 0.29386 0.36235 0.18198 0.0
O236 O 0.30323 0.41496 0.24555 0.0
O237 O 0.30055 0.43402 0.21457 0.0
O238 O 0.75154 0.11673 0.78931 0.0
Cd239 Cd 0.77459 0.11072 0.81348 0.0
Cd240 Cd 0.80143 0.09482 0.78118 0.0
O241 O 0.77247 0.10107 0.76385 0.0
O242 O 0.76067 0.09997 0.8411 0.0
O243 O 0.78098 0.07884 0.81879 0.0
C244 C 0.76864 0.08073 0.83618 0.0
C245 C 0.82448 0.06833 0.76455 0.0
C246 C 0.75447 0.11046 0.76947 0.0
C247 C 0.81559 0.13577 0.80755 0.0
O248 O 0.81955 0.12128 0.79286 0.0
O249 O 0.79783 0.13499 0.81873 0.0
O250 O 0.82105 0.08745 0.75598 0.0
O251 O 0.81433 0.06365 0.78274 0.0
O252 O 0.12392 0.50739 0.03944 0.0
Cd253 Cd 0.13297 0.53081 0.06234 0.0
Cd254 Cd 0.15357 0.55037 0.0283 0.0
O255 O 0.14909 0.51881 0.01573 0.0
O256 O 0.13835 0.51588 0.09087 0.0
O257 O 0.16486 0.53147 0.07065 0.0
C258 C 0.15915 0.5198 0.08769 0.0
C259 C 0.1821 0.57025 0.01084 0.0
C260 C 0.13466 0.50469 0.0216 0.0
C261 C 0.11197 0.57143 0.049 0.0
O262 O 0.12598 0.57007 0.03335 0.0
O263 O 0.11264 0.55777 0.06493 0.0
O264 O 0.16416 0.56487 0.00086 0.0
O265 O 0.18434 0.56402 0.03113 0.0
O266 O 0.74105 0.8848 0.28886 0.0
Cd267 Cd 0.72027 0.89023 0.31512 0.0
Cd268 Cd 0.68922 0.90305 0.28565 0.0
O269 O 0.71582 0.89612 0.26509 0.0
O270 O 0.73685 0.90094 0.3412 0.0
O271 O 0.7137 0.92189 0.32167 0.0
C272 C 0.72789 0.92002 0.33758 0.0
C273 C 0.66472 0.92915 0.27046 0.0
C274 C 0.73513 0.88876 0.2691 0.0
C275 C 0.68012 0.86274 0.31461 0.0
O276 O 0.67325 0.87677 0.30056 0.0
O277 O 0.69923 0.86469 0.32307 0.0
O278 O 0.66654 0.90942 0.26282 0.0
O279 O 0.67697 0.93448 0.2871 0.0
O280 O 0.37401 0.49629 0.54099 0.0
Cd281 Cd 0.36631 0.47314 0.56471 0.0
Cd282 Cd 0.34904 0.44898 0.53144 0.0
O283 O 0.35287 0.47956 0.51641 0.0
O284 O 0.3553 0.48693 0.59234 0.0
O285 O 0.33405 0.46806 0.56892 0.0
C286 C 0.33589 0.47992 0.58664 0.0
C287 C 0.32205 0.42644 0.51492 0.0
C288 C 0.3648 0.49593 0.52211 0.0
C289 C 0.39068 0.43271 0.55589 0.0
O290 O 0.37691 0.43105 0.54008 0.0
O291 O 0.38905 0.44844 0.56969 0.0
O292 O 0.34029 0.43138 0.50521 0.0
O293 O 0.31863 0.43466 0.53432 0.0
O294 O 0.25317 0.61791 0.70628 0.0
Cd295 Cd 0.22876 0.61048 0.68388 0.0
Cd296 Cd 0.20566 0.5928 0.71798 0.0
O297 O 0.23605 0.59924 0.73253 0.0
O298 O 0.24108 0.59985 0.6554 0.0
O299 O 0.22359 0.57827 0.67959 0.0
C300 C 0.23453 0.58034 0.66131 0.0
C301 C 0.18531 0.56429 0.73478 0.0
C302 C 0.25266 0.61034 0.72589 0.0
C303 C 0.18737 0.63352 0.69398 0.0
O304 O 0.18575 0.61919 0.70929 0.0
O305 O 0.20364 0.63317 0.6807 0.0
O306 O 0.18973 0.58251 0.74477 0.0
O307 O 0.19278 0.56177 0.71494 0.0
O308 O 0.63276 -0.00038 0.95899 0.0
Cd309 Cd 0.6396 0.97515 0.93644 0.0
Cd310 Cd 0.65699 0.95176 0.97035 0.0
O311 O 0.651 0.98207 0.98524 0.0
O312 O 0.65006 0.9874 0.90787 0.0
O313 O 0.67168 0.96953 0.93172 0.0
C314 C 0.66954 0.98054 0.91348 0.0
C315 C 0.68523 0.93067 0.98665 0.0
C316 C 0.64022 -0.0011 0.97862 0.0
C317 C 0.6159 0.93414 0.94655 0.0
O318 O 0.63029 0.93229 0.96175 0.0
O319 O 0.61643 0.95044 0.9333 0.0
O320 O 0.66714 0.93523 0.99681 0.0
O321 O 0.68783 0.93855 0.96698 0.0
O322 O 0.86985 0.00113 0.45531 0.0
Cd323 Cd 0.86411 0.02335 0.43036 0.0
Cd324 Cd 0.85153 0.0528 0.46189 0.0
O325 O 0.85799 0.02465 0.48056 0.0
O326 O 0.85179 0.0087 0.4038 0.0
O327 O 0.83241 0.03109 0.42571 0.0
C328 C 0.83314 0.01788 0.40888 0.0
C329 C 0.826 0.07703 0.47845 0.0
C330 C 0.86552 0.00568 0.47537 0.0
C331 C 0.89142 0.06339 0.43247 0.0
O332 O 0.87771 0.06931 0.44727 0.0
O333 O 0.88949 0.04476 0.423 0.0
O334 O 0.84563 0.07424 0.48606 0.0
O335 O 0.82039 0.06579 0.46119 0.0
H336 H 0.12633 0.16512 0.5036 0.0
H337 H 0.06755 0.20534 0.5094 0.0
H338 H 0.14484 0.1951 0.4837 0.0
H339 H 0.08594 0.23508 0.48889 0.0
H340 H 0.11715 0.24878 0.41527 0.0
H341 H 0.09868 0.22963 0.44576 0.0
H342 H 0.15637 0.23891 0.48677 0.0
H343 H 0.17469 0.25875 0.45645 0.0
C344 C 0.11759 0.18056 0.50109 0.0
C345 C 0.0955 0.18289 0.50789 0.0
C346 C 0.1282 0.19772 0.48983 0.0
C347 C 0.11672 0.21728 0.48478 0.0
C348 C 0.09508 0.22013 0.49268 0.0
C349 C 0.08463 0.20316 0.50443 0.0
C350 C 0.12562 0.2473 0.43101 0.0
C351 C 0.14733 0.25512 0.43352 0.0
C352 C 0.11503 0.23646 0.44845 0.0
C353 C 0.12618 0.23285 0.46851 0.0
C354 C 0.14748 0.24162 0.47144 0.0
C355 C 0.15787 0.25297 0.45414 0.0
H356 H 0.01971 0.87413 0.6479 0.0
H357 H 0.98036 0.90755 0.69746 0.0
H358 H 0.04261 0.85819 0.67687 0.0
H359 H 0.00344 0.89119 0.72661 0.0
H360 H 0.04426 0.83357 0.76644 0.0
H361 H 0.0167 0.85047 0.74186 0.0
H362 H 0.06913 0.88046 0.70377 0.0
H363 H 0.09655 0.86397 0.72814 0.0
C364 C 0.01567 0.87777 0.66498 0.0
C365 C 0.99838 0.89233 0.67036 0.0
C366 C 0.02887 0.86872 0.68154 0.0
C367 C 0.02497 0.87384 0.70385 0.0
C368 C 0.00678 0.88713 0.70947 0.0
C369 C 0.99361 0.89642 0.6928 0.0
C370 C 0.04985 0.84419 0.75312 0.0
C371 C 0.07259 0.8472 0.74905 0.0
C372 C 0.03409 0.8538 0.73909 0.0
C373 C 0.04092 0.86633 0.72076 0.0
C374 C 0.06353 0.8705 0.7176 0.0
C375 C 0.07919 0.86113 0.73164 0.0
H376 H 0.34072 0.72909 0.94851 0.0
H377 H 0.37354 0.76908 0.89902 0.0
H378 H 0.35702 0.75215 0.97773 0.0
H379 H 0.38945 0.79191 0.92804 0.0
H380 H 0.38283 0.84578 0.97895 0.0
H381 H 0.36665 0.81799 0.95481 0.0
H382 H 0.39749 0.7662 0.99307 0.0
H383 H 0.41405 0.79417 0.01746 0.0
C384 C 0.35174 0.74245 0.94388 0.0
C385 C 0.35561 0.74747 0.92146 0.0
C386 C 0.36099 0.75561 0.96059 0.0
C387 C 0.37404 0.77399 0.955 0.0
C388 C 0.37907 0.77804 0.93269 0.0
C389 C 0.37002 0.76489 0.9161 0.0
C390 C 0.38592 0.82849 0.98254 0.0
C391 C 0.39999 0.82219 -8e-05 0.0
C392 C 0.37673 0.81261 0.96864 0.0
C393 C 0.38125 0.79008 0.97189 0.0
C394 C 0.39391 0.78353 0.99023 0.0
C395 C 0.40331 0.79952 0.00415 0.0
H396 H 0.5183 0.08993 0.19757 0.0
H397 H 0.48013 0.1256 0.14866 0.0
H398 H 0.49533 0.106 0.22699 0.0
H399 H 0.45734 0.14124 0.17789 0.0
H400 H 0.4025 0.13324 0.22816 0.0
H401 H 0.43037 0.11742 0.20385 0.0
H402 H 0.48205 0.14716 0.24307 0.0
H403 H 0.45402 0.16342 0.2676 0.0
C404 C 0.50538 0.10152 0.19313 0.0
C405 C 0.50083 0.10628 0.17077 0.0
C406 C 0.49228 0.11065 0.20995 0.0
C407 C 0.47441 0.12444 0.20455 0.0
C408 C 0.47084 0.13032 0.18237 0.0
C409 C 0.48396 0.12142 0.16566 0.0
C410 C 0.41978 0.13616 0.23192 0.0
C411 C 0.42604 0.14985 0.24963 0.0
C412 C 0.43571 0.12717 0.21793 0.0
C413 C 0.45823 0.13148 0.22144 0.0
C414 C 0.46472 0.14374 0.24005 0.0
C415 C 0.44869 0.15298 0.25404 0.0
H416 H 0.62837 0.26718 0.59583 0.0
H417 H 0.66137 0.22692 0.54669 0.0
H418 H 0.61311 0.29026 0.56661 0.0
H419 H 0.64553 0.25013 0.5173 0.0
H420 H 0.58526 0.29311 0.48015 0.0
H421 H 0.60192 0.2648 0.50403 0.0
H422 H 0.6391 0.31536 0.53796 0.0
H423 H 0.62293 0.34356 0.51416 0.0
C424 C 0.63201 0.26294 0.57879 0.0
C425 C 0.64629 0.24536 0.57359 0.0
C426 C 0.62334 0.27624 0.56211 0.0
C427 C 0.62851 0.27208 0.53988 0.0
C428 C 0.64147 0.25362 0.53441 0.0
C429 C 0.65044 0.24039 0.5512 0.0
C430 C 0.59742 0.2981 0.49233 0.0
C431 C 0.6026 0.3206 0.49546 0.0
C432 C 0.6069 0.28191 0.50593 0.0
C433 C 0.62144 0.28809 0.52291 0.0
C434 C 0.6277 0.31033 0.52506 0.0
C435 C 0.6185 0.32642 0.51137 0.0
H436 H 0.95158 0.33788 0.72978 0.0
H437 H 0.90262 0.36766 0.77269 0.0
H438 H 0.98109 0.35458 0.75221 0.0
H439 H 0.93196 0.38383 0.79493 0.0
H440 H 0.98572 0.37621 0.84625 0.0
H441 H 0.96221 0.35905 0.81845 0.0
H442 H 0.99334 0.39804 0.76739 0.0
H443 H 0.01697 0.41566 0.79532 0.0
C444 C 0.94711 0.34829 0.74367 0.0
C445 C 0.92478 0.35124 0.74963 0.0
C446 C 0.96397 0.35776 0.75645 0.0
C447 C 0.95864 0.37006 0.7754 0.0
C448 C 0.93638 0.37409 0.78053 0.0
C449 C 0.91962 0.36489 0.76772 0.0
C450 C 0.98797 0.38085 0.82907 0.0
C451 C 0.00295 0.39756 0.82303 0.0
C452 C 0.97447 0.37105 0.81321 0.0
C453 C 0.97583 0.37757 0.79097 0.0
C454 C 0.99204 0.39286 0.78451 0.0
C455 C 0.00552 0.40288 0.80048 0.0
H456 H 0.87554 0.73684 0.09705 0.0
H457 H 0.83453 0.76899 0.048 0.0
H458 H 0.8906 0.71272 0.06854 0.0
H459 H 0.85004 0.74477 0.01935 0.0
H460 H 0.90606 0.70153 0.97825 0.0
H461 H 0.89179 0.73142 0.00182 0.0
H462 H 0.86423 0.683 0.04646 0.0
H463 H 0.87796 0.65328 0.02308 0.0
C464 C 0.87014 0.73917 0.08012 0.0
C465 C 0.85359 0.7546 0.07485 0.0
C466 C 0.87873 0.7253 0.06384 0.0
C467 C 0.87114 0.72676 0.04195 0.0
C468 C 0.85603 0.74339 0.03619 0.0
C469 C 0.84722 0.75719 0.05258 0.0
C470 C 0.89654 0.6973 0.99285 0.0
C471 C 0.89332 0.67504 0.99893 0.0
C472 C 0.88846 0.71438 0.00628 0.0
C473 C 0.87735 0.70935 0.02604 0.0
C474 C 0.87308 0.68719 0.03143 0.0
C475 C 0.88086 0.67021 0.01796 0.0
H476 H 0.59787 0.62985 0.27178 0.0
H477 H 0.54879 0.66352 0.23205 0.0
H478 H 0.5686 0.61281 0.29351 0.0
H479 H 0.51935 0.64598 0.25391 0.0
H480 H 0.4809 0.58506 0.29298 0.0
H481 H 0.50551 0.60307 0.2661 0.0
H482 H 0.53992 0.63555 0.31953 0.0
H483 H 0.51547 0.61804 0.34627 0.0
C484 C 0.58084 0.6333 0.26738 0.0
C485 C 0.57566 0.64826 0.25036 0.0
C486 C 0.56412 0.6236 0.2799 0.0
C487 C 0.54186 0.62843 0.27553 0.0
C488 C 0.53647 0.64213 0.25757 0.0
C489 C 0.55329 0.6521 0.24511 0.0
C490 C 0.49339 0.59646 0.29893 0.0
C491 C 0.49643 0.59992 0.32177 0.0
C492 C 0.50742 0.6067 0.28356 0.0
C493 C 0.52473 0.6203 0.2909 0.0
C494 C 0.52684 0.62484 0.31356 0.0
C495 C 0.51277 0.61486 0.32884 0.0
H496 H 0.22628 0.40732 0.12939 0.0
H497 H 0.26465 0.45551 0.16582 0.0
H498 H 0.20475 0.43706 0.11282 0.0
H499 H 0.24307 0.48538 0.14868 0.0
H500 H 0.20439 0.52282 0.08475 0.0
H501 H 0.23143 0.49839 0.1027 0.0
H502 H 0.17875 0.46666 0.13891 0.0
H503 H 0.15181 0.49104 0.12153 0.0
C504 C 0.23047 0.42425 0.1335 0.0
C505 C 0.24703 0.42905 0.14909 0.0
C506 C 0.21808 0.44123 0.12407 0.0
C507 C 0.22221 0.46333 0.12976 0.0
C508 C 0.23967 0.46838 0.14416 0.0
C509 C 0.25195 0.45131 0.1539 0.0
C510 C 0.19866 0.51103 0.09698 0.0
C511 C 0.17594 0.50869 0.10154 0.0
C512 C 0.21412 0.4971 0.10718 0.0
C513 C 0.20697 0.4806 0.12184 0.0
C514 C 0.18451 0.47921 0.12746 0.0
C515 C 0.16915 0.49323 0.11754 0.0
H516 H 0.6713 0.99228 0.86999 0.0
H517 H 0.71168 0.98543 0.92858 0.0
H518 H 0.70162 0.01148 0.85135 0.0
H519 H 0.74179 0.00523 0.91005 0.0
H520 H 0.75611 0.07893 0.87938 0.0
H521 H 0.73722 0.04831 0.89785 0.0
H522 H 0.74498 0.00807 0.83937 0.0
H523 H 0.76454 0.03852 0.82102 0.0
C524 C 0.68685 0.99437 0.87865 0.0
C525 C 0.68911 0.98754 0.90075 0.0
C526 C 0.70421 0.00524 0.86797 0.0
C527 C 0.72392 0.00983 0.87936 0.0
C528 C 0.72672 0.00179 0.90097 0.0
C529 C 0.70953 0.99045 0.9115 0.0
C530 C 0.7544 0.06331 0.87073 0.0
C531 C 0.76164 0.06108 0.84878 0.0
C532 C 0.74371 0.04579 0.88132 0.0
C533 C 0.73967 0.02594 0.86995 0.0
C534 C 0.74801 0.02324 0.84844 0.0
C535 C 0.75921 0.0406 0.83802 0.0
H536 H 0.73146 0.96223 0.32232 0.0
H537 H 0.74293 0.92151 0.37993 0.0
H538 H 0.75266 0.99231 0.33944 0.0
H539 H 0.76337 0.9518 0.39727 0.0
H540 H 0.79147 0.01539 0.42576 0.0
H541 H 0.75981 0.99628 0.40908 0.0
H542 H 0.79741 0.9863 0.34919 0.0
H543 H 0.82927 0.00466 0.36605 0.0
C544 C 0.73777 0.96004 0.33896 0.0
C545 C 0.73574 0.93956 0.34981 0.0
C546 C 0.7499 0.97719 0.34868 0.0
C547 C 0.75952 0.97427 0.36961 0.0
C548 C 0.75587 0.95447 0.38119 0.0
C549 C 0.7443 0.93714 0.37126 0.0
C550 C 0.79271 0.0097 0.40881 0.0
C551 C 0.8128 0.01131 0.39719 0.0
C552 C 0.77465 0.99877 0.39934 0.0
C553 C 0.77627 0.98994 0.37792 0.0
C554 C 0.79574 0.99321 0.36566 0.0
C555 C 0.81396 0.00358 0.37532 0.0
H556 H 0.23943 0.53835 0.67688 0.0
H557 H 0.24693 0.57824 0.618 0.0
H558 H 0.2596 0.50817 0.65893 0.0
H559 H 0.26655 0.54785 0.59995 0.0
H560 H 0.29411 0.48479 0.57051 0.0
H561 H 0.26356 0.50476 0.58813 0.0
H562 H 0.30261 0.51218 0.64745 0.0
H563 H 0.33335 0.49282 0.62972 0.0
C564 C 0.2447 0.54038 0.65986 0.0
C565 C 0.24184 0.56068 0.64887 0.0
C566 C 0.25626 0.52315 0.64966 0.0
C567 C 0.2646 0.52579 0.62815 0.0
C568 C 0.26009 0.54538 0.6165 0.0
C569 C 0.24898 0.56278 0.62685 0.0
C570 C 0.29593 0.49016 0.58753 0.0
C571 C 0.31612 0.48745 0.59874 0.0
C572 C 0.27849 0.5016 0.59753 0.0
C573 C 0.28082 0.50994 0.61907 0.0
C574 C 0.30037 0.5057 0.63088 0.0
C575 C 0.31797 0.49474 0.62072 0.0
H576 H 0.32784 0.40535 0.47591 0.0
H577 H 0.28039 0.41363 0.52883 0.0
H578 H 0.30248 0.38126 0.45667 0.0
H579 H 0.25437 0.38941 0.50894 0.0
H580 H 0.2292 0.32307 0.47232 0.0
H581 H 0.24972 0.34949 0.49562 0.0
H582 H 0.26784 0.38645 0.43711 0.0
H583 H 0.24835 0.35993 0.41416 0.0
C584 C 0.31188 0.40215 0.48342 0.0
C585 C 0.30606 0.41162 0.50382 0.0
C586 C 0.29725 0.38838 0.47228 0.0
C587 C 0.27624 0.38375 0.48108 0.0
C588 C 0.27045 0.39275 0.50176 0.0
C589 C 0.28527 0.40665 0.51306 0.0
C590 C 0.23738 0.33705 0.46463 0.0
C591 C 0.2377 0.33926 0.44148 0.0
C592 C 0.24902 0.35218 0.47791 0.0
C593 C 0.26081 0.36973 0.46811 0.0
C594 C 0.25949 0.37273 0.4451 0.0
C595 C 0.24829 0.35757 0.43195 0.0
H596 H 0.91993 0.96874 0.71617 0.0
H597 H 0.89216 0.00353 0.66021 0.0
H598 H 0.8954 0.98971 0.74111 0.0
H599 H 0.86774 0.02375 0.68468 0.0
H600 H 0.85344 0.07805 0.73195 0.0
H601 H 0.87709 0.05312 0.71147 0.0
H602 H 0.85421 0.99821 0.75112 0.0
H603 H 0.83041 0.02364 0.77229 0.0
C604 C 0.90841 0.98057 0.70921 0.0
C605 C 0.90826 0.98487 0.68633 0.0
C606 C 0.89437 0.99247 0.72342 0.0
C607 C 0.88002 0.00867 0.71484 0.0
C608 C 0.87903 0.01181 0.69184 0.0
C609 C 0.89303 0.00018 0.67781 0.0
C610 C 0.85338 0.06069 0.73644 0.0
C611 C 0.83975 0.05275 0.7535 0.0
C612 C 0.86694 0.04638 0.72464 0.0
C613 C 0.86714 0.02365 0.72938 0.0
C614 C 0.85429 0.01568 0.74709 0.0
C615 C 0.84065 0.03017 0.75911 0.0
H616 H 0.26189 0.628 0.90847 0.0
H617 H 0.27434 0.67127 0.96391 0.0
H618 H 0.24247 0.60238 0.93259 0.0
H619 H 0.25388 0.6458 0.98824 0.0
H620 H 0.22244 0.58548 0.02613 0.0
H621 H 0.24964 0.60769 0.00546 0.0
H622 H 0.20621 0.60735 0.94867 0.0
H623 H 0.17974 0.58523 0.96875 0.0
C624 C 0.26061 0.6319 0.92593 0.0
C625 C 0.26923 0.65174 0.9343 0.0
C626 C 0.24943 0.61727 0.93974 0.0
C627 C 0.24613 0.62235 0.9622 0.0
C628 C 0.25614 0.64146 0.97099 0.0
C629 C 0.26776 0.65605 0.95711 0.0
C630 C 0.21889 0.5901 0.00918 0.0
C631 C 0.19902 0.58344 -0.00097 0.0
C632 C 0.23437 0.60285 0.99741 0.0
C633 C 0.23022 0.60897 0.97532 0.0
C634 C 0.21023 0.60246 0.96544 0.0
C635 C 0.19493 0.58984 0.97707 0.0
H636 H 0.57775 0.03293 0.21419 0.0
H637 H 0.6025 0.99017 0.16243 0.0
H638 H 0.59916 0.01169 0.24163 0.0
H639 H 0.62358 0.96945 0.18946 0.0
H640 H 0.63163 0.91911 0.24215 0.0
H641 H 0.60952 0.94426 0.22008 0.0
H642 H 0.64096 0.00014 0.25156 0.0
H643 H 0.66331 0.97465 0.27417 0.0
C644 C 0.58789 0.01923 0.20866 0.0
C645 C 0.58817 0.01301 0.18621 0.0
C646 C 0.60014 0.00716 0.22431 0.0
C647 C 0.61266 0.98873 0.21766 0.0
C648 C 0.61368 0.98329 0.19511 0.0
C649 C 0.60161 0.99524 0.17961 0.0
C650 C 0.63376 0.93674 0.24462 0.0
C651 C 0.6495 0.94491 0.25962 0.0
C652 C 0.62108 0.95114 0.23194 0.0
C653 C 0.62386 0.97411 0.23383 0.0
C654 C 0.63857 0.98246 0.24979 0.0
C655 C 0.65135 0.96791 0.26265 0.0
H656 H 0.76516 0.14455 0.5851 0.0
H657 H 0.72389 0.16756 0.53141 0.0
H658 H 0.78607 0.12192 0.55953 0.0
H659 H 0.74542 0.14479 0.50539 0.0
H660 H 0.78074 0.08095 0.47375 0.0
H661 H 0.7559 0.10439 0.49591 0.0
H662 H 0.81245 0.13158 0.53007 0.0
H663 H 0.83691 0.10823 0.50858 0.0
C664 C 0.76054 0.14481 0.56778 0.0
C665 C 0.74305 0.15812 0.56024 0.0
C666 C 0.7726 0.13186 0.55309 0.0
C667 C 0.76767 0.13191 0.53039 0.0
C668 C 0.7496 0.14449 0.52282 0.0
C669 C 0.73737 0.15754 0.53767 0.0
C670 C 0.78777 0.09211 0.48588 0.0
C671 C 0.81072 0.09247 0.48971 0.0
C672 C 0.77359 0.10555 0.49847 0.0
C673 C 0.78223 0.11949 0.515 0.0
C674 C 0.80525 0.12061 0.51786 0.0
C675 C 0.81928 0.10723 0.50547 0.0
H676 H 0.17898 0.55944 0.77872 0.0
H677 H 0.15921 0.53221 0.71565 0.0
H678 H 0.15088 0.53749 0.79719 0.0
H679 H 0.13047 0.51021 0.73438 0.0
H680 H 0.09326 0.46317 0.78779 0.0
H681 H 0.12275 0.47965 0.76495 0.0
H682 H 0.10972 0.54332 0.79462 0.0
H683 H 0.08085 0.52713 0.81726 0.0
C684 C 0.16877 0.54852 0.76882 0.0
C685 C 0.17102 0.54779 0.74572 0.0
C686 C 0.15262 0.53601 0.7794 0.0
C687 C 0.13816 0.52259 0.76714 0.0
C688 C 0.14137 0.52052 0.74418 0.0
C689 C 0.15777 0.53307 0.7335 0.0
C690 C 0.09655 0.48074 0.7891 0.0
C691 C 0.08503 0.4938 0.80455 0.0
C692 C 0.11338 0.49012 0.77608 0.0
C693 C 0.11882 0.51262 0.77845 0.0
C694 C 0.10628 0.5258 0.79288 0.0
C695 C 0.08966 0.51652 0.80579 0.0
H696 H 0.68745 0.91977 0.02995 0.0
H697 H 0.71944 0.90761 0.96713 0.0
H698 H 0.70969 0.89107 0.047 0.0
H699 H 0.7419 0.87837 0.98449 0.0
H700 H 0.78906 0.84233 0.03968 0.0
H701 H 0.77134 0.87113 0.01697 0.0
H702 H 0.70729 0.84955 0.04011 0.0
H703 H 0.72473 0.82129 0.0627 0.0
C704 C 0.69942 0.9111 0.0198 0.0
C705 C 0.70146 0.91571 0.99712 0.0
C706 C 0.7121 0.89459 0.02957 0.0
C707 C 0.72711 0.88218 0.01692 0.0
C708 C 0.73032 0.88766 0.99453 0.0
C709 C 0.71752 0.90435 0.98466 0.0
C710 C 0.77118 0.8435 0.03946 0.0
C711 C 0.75827 0.82986 0.05322 0.0
C712 C 0.76109 0.85994 0.02651 0.0
C713 C 0.73802 0.86283 0.02724 0.0
C714 C 0.72515 0.84802 0.03967 0.0
C715 C 0.73514 0.83179 0.05255 0.0
H716 H 0.31425 0.43934 0.27831 0.0
H717 H 0.3335 0.46411 0.21404 0.0
H718 H 0.34261 0.46189 0.29563 0.0
H719 H 0.3624 0.4868 0.23164 0.0
H720 H 0.39995 0.53537 0.28444 0.0
H721 H 0.37002 0.51872 0.2623 0.0
H722 H 0.38428 0.45507 0.29141 0.0
H723 H 0.41364 0.47138 0.31329 0.0
C724 C 0.32435 0.44989 0.2679 0.0
C725 C 0.32192 0.4497 0.2448 0.0
C726 C 0.34062 0.46276 0.27782 0.0
C727 C 0.35498 0.47567 0.2649 0.0
C728 C 0.35155 0.4769 0.24192 0.0
C729 C 0.33506 0.46396 0.23189 0.0
C730 C 0.39685 0.51777 0.28576 0.0
C731 C 0.40886 0.50474 0.30085 0.0
C732 C 0.37977 0.50829 0.27314 0.0
C733 C 0.37458 0.48575 0.27558 0.0
C734 C 0.38759 0.47261 0.28962 0.0
C735 C 0.40446 0.48197 0.3021 0.0
H736 H 0.47966 0.29331 0.44431 0.0
H737 H 0.53621 0.2895 0.4009 0.0
H738 H 0.45922 0.26843 0.42014 0.0
H739 H 0.5153 0.26511 0.37591 0.0
H740 H 0.46795 0.21403 0.34048 0.0
H741 H 0.49323 0.22939 0.36852 0.0
H742 H 0.44493 0.27974 0.38395 0.0
H743 H 0.42004 0.2646 0.3567 0.0
C744 C 0.48784 0.2867 0.42978 0.0
C745 C 0.50932 0.29342 0.42425 0.0
C746 C 0.47614 0.27257 0.41588 0.0
C747 C 0.48546 0.26534 0.39583 0.0
C748 C 0.50771 0.27047 0.39124 0.0
C749 C 0.51965 0.28439 0.40548 0.0
C750 C 0.46283 0.22834 0.34997 0.0
C751 C 0.44193 0.23799 0.34648 0.0
C752 C 0.47728 0.23712 0.36594 0.0
C753 C 0.47087 0.25548 0.37873 0.0
C754 C 0.45014 0.2652 0.37485 0.0
C755 C 0.4359 0.25658 0.35903 0.0
H756 H 0.96883 0.17507 0.58485 0.0
H757 H 0.02463 0.21962 0.58043 0.0
H758 H 0.9498 0.20094 0.60858 0.0
H759 H 0.00501 0.24615 0.60431 0.0
H760 H 0.96753 0.26967 0.67101 0.0
H761 H 0.99056 0.24968 0.64399 0.0
H762 H 0.93247 0.23694 0.60434 0.0
H763 H 0.9097 0.25593 0.63143 0.0
C764 C 0.97701 0.19052 0.58879 0.0
C765 C 0.99821 0.19533 0.5806 0.0
C766 C 0.966 0.20546 0.60234 0.0
C767 C 0.97574 0.22576 0.60804 0.0
C768 C 0.99709 0.23062 0.60014 0.0
C769 C 0.00824 0.21552 0.58642 0.0
C770 C 0.95989 0.26288 0.65629 0.0
C771 C 0.93685 0.26386 0.65346 0.0
C772 C 0.97303 0.25153 0.64082 0.0
C773 C 0.96321 0.24132 0.62232 0.0
C774 C 0.94042 0.24408 0.61873 0.0
C775 C 0.92739 0.255 0.63422 0.0
H776 H 0.99658 0.66438 0.88507 0.0
H777 H 0.96479 0.71956 0.91759 0.0
H778 H 0.01793 0.68979 0.86248 0.0
H779 H 0.98664 0.74531 0.89465 0.0
H780 H 0.02462 0.7753 0.82791 0.0
H781 H 0.99661 0.75522 0.84981 0.0
H782 H 0.04835 0.71625 0.87983 0.0
H783 H 0.07594 0.73587 0.85837 0.0
C784 C 0.99395 0.68198 0.8872 0.0
C785 C 0.97934 0.69 0.90339 0.0
C786 C 0.00615 0.69651 0.87422 0.0
C787 C 0.00414 0.71943 0.87714 0.0
C788 C 0.98842 0.72766 0.89218 0.0
C789 C 0.97602 0.71297 0.90527 0.0
C790 C 0.02993 0.76266 0.83945 0.0
C791 C 0.05242 0.75687 0.84113 0.0
C792 C 0.01396 0.75127 0.85196 0.0
C793 C 0.02041 0.73402 0.86616 0.0
C794 C 0.04295 0.72924 0.8687 0.0
C795 C 0.05874 0.7405 0.85636 0.0
H796 H 0.53237 0.72022 0.17103 0.0
H797 H 0.58137 0.77017 0.15607 0.0
H798 H 0.50527 0.7404 0.14819 0.0
H799 H 0.55477 0.7898 0.1336 0.0
H800 H 0.49983 0.83475 0.11956 0.0
H801 H 0.52016 0.81056 0.14432 0.0
H802 H 0.49945 0.75374 0.1063 0.0
H803 H 0.47844 0.77825 0.08139 0.0
C804 C 0.53737 0.73535 0.16283 0.0
C805 C 0.55892 0.74375 0.1656 0.0
C806 C 0.52193 0.74681 0.14976 0.0
C807 C 0.52786 0.76683 0.13949 0.0
C808 C 0.54958 0.77467 0.14172 0.0
C809 C 0.56487 0.76333 0.15459 0.0
C810 C 0.49929 0.81708 0.11661 0.0
C811 C 0.48794 0.80839 0.09832 0.0
C812 C 0.51094 0.80323 0.1308 0.0
C813 C 0.51176 0.78036 0.12691 0.0
C814 C 0.49909 0.77135 0.10959 0.0
C815 C 0.48715 0.78533 0.09536 0.0
H816 H 0.2061 0.35179 0.35501 0.0
H817 H 0.16548 0.30466 0.31984 0.0
H818 H 0.21218 0.37209 0.32125 0.0
H819 H 0.17069 0.32581 0.28573 0.0
H820 H 0.22197 0.34308 0.23015 0.0
H821 H 0.20075 0.32911 0.2613 0.0
H822 H 0.20244 0.39401 0.29147 0.0
H823 H 0.22496 0.40749 0.26084 0.0
C824 C 0.19787 0.34612 0.34013 0.0
C825 C 0.18573 0.3263 0.34003 0.0
C826 C 0.20117 0.35798 0.32064 0.0
C827 C 0.19224 0.35048 0.3005 0.0
C828 C 0.17828 0.3318 0.30082 0.0
C829 C 0.17509 0.31978 0.32041 0.0
C830 C 0.21737 0.35447 0.24321 0.0
C831 C 0.22551 0.37622 0.24334 0.0
C832 C 0.20502 0.3465 0.26109 0.0
C833 C 0.20022 0.36027 0.27927 0.0
C834 C 0.20642 0.38271 0.27815 0.0
C835 C 0.21921 0.39051 0.26053 0.0
H836 H 0.85982 0.01111 0.51974 0.0
H837 H 0.88252 0.96366 0.47128 0.0
H838 H 0.87208 0.98707 0.54922 0.0
H839 H 0.89423 0.93896 0.5011 0.0
H840 H 0.94477 0.92642 0.55933 0.0
H841 H 0.92372 0.93859 0.52723 0.0
H842 H 0.86828 0.95424 0.56969 0.0
H843 H 0.88991 0.94316 0.60186 0.0
C844 C 0.86703 0.9953 0.51535 0.0
C845 C 0.87046 0.98948 0.49311 0.0
C846 C 0.87387 0.9813 0.53235 0.0
C847 C 0.88418 0.96097 0.52763 0.0
C848 C 0.8866 0.95461 0.50535 0.0
C849 C 0.87982 0.96873 0.48825 0.0
C850 C 0.92781 0.93173 0.56168 0.0
C851 C 0.91909 0.93425 0.58307 0.0
C852 C 0.91568 0.93873 0.54325 0.0
C853 C 0.89449 0.94804 0.54592 0.0
C854 C 0.88483 0.94787 0.56711 0.0
C855 C 0.89711 0.94131 0.58554 0.0
H856 H 0.255 0.59843 0.76925 0.0
H857 H 0.28991 0.6357 0.71915 0.0
H858 H 0.27912 0.61322 0.79732 0.0
H859 H 0.31505 0.64993 0.74742 0.0
H860 H 0.32089 0.69845 0.80802 0.0
H861 H 0.31196 0.67662 0.77546 0.0
H862 H 0.31266 0.61714 0.81532 0.0
H863 H 0.32005 0.63941 0.84812 0.0
C864 C 0.26824 0.60937 0.7641 0.0
C865 C 0.27021 0.6162 0.74197 0.0
C866 C 0.28237 0.61772 0.78028 0.0
C867 C 0.29909 0.63299 0.77479 0.0
C868 C 0.30213 0.63855 0.75235 0.0
C869 C 0.28778 0.63029 0.73611 0.0
C870 C 0.31989 0.68062 0.80964 0.0
C871 C 0.32073 0.67062 0.83058 0.0
C872 C 0.31479 0.66801 0.79092 0.0
C873 C 0.31085 0.64511 0.7928 0.0
C874 C 0.31472 0.63483 0.81336 0.0
C875 C 0.31923 0.64752 0.83214 0.0
H876 H 0.55227 0.07071 0.05812 0.0
H877 H 0.60929 0.06589 0.10074 0.0
H878 H 0.57497 0.0609 0.02642 0.0
H879 H 0.63254 0.05765 0.06883 0.0
H880 H 0.65047 6e-05 0.02245 0.0
H881 H 0.63571 0.02443 0.05031 0.0
H882 H 0.60279 0.06278 -0.0004 0.0
H883 H 0.6169 0.03737 0.97152 0.0
C884 C 0.56992 0.06863 0.0605 0.0
C885 C 0.579 0.06863 0.08187 0.0
C886 C 0.58303 0.06302 0.04227 0.0
C887 C 0.60557 0.05775 0.04508 0.0
C888 C 0.6151 0.06072 0.06613 0.0
C889 C 0.60187 0.06572 0.08442 0.0
C890 C 0.64039 0.01388 0.0171 0.0
C891 C 0.63453 0.01646 0.99476 0.0
C892 C 0.63205 0.02814 0.03317 0.0
C893 C 0.61782 0.04564 0.02737 0.0
C894 C 0.61332 0.04925 0.00478 0.0
C895 C 0.62151 0.03475 0.98864 0.0
H896 H 0.68007 0.19338 0.68591 0.0
H897 H 0.69147 0.13676 0.64398 0.0
H898 H 0.69044 0.17172 0.71818 0.0
H899 H 0.70046 0.11449 0.67637 0.0
H900 H 0.75727 0.10178 0.72536 0.0
H901 H 0.73338 0.11493 0.69625 0.0
H902 H 0.68931 0.14338 0.74497 0.0
H903 H 0.71405 0.13084 0.77439 0.0
C904 C 0.68374 0.17597 0.68375 0.0
C905 C 0.68539 0.16681 0.66247 0.0
C906 C 0.68969 0.16346 0.7023 0.0
C907 C 0.697 0.14146 0.69987 0.0
C908 C 0.69573 0.1316 0.67879 0.0
C909 C 0.69033 0.14425 0.66023 0.0
C910 C 0.74233 0.11055 0.72999 0.0
C911 C 0.7378 0.11556 0.75223 0.0
C912 C 0.72838 0.11792 0.7132 0.0
C913 C 0.70931 0.13035 0.71813 0.0
C914 C 0.70401 0.13417 0.74051 0.0
C915 C 0.71815 0.1269 0.75739 0.0
H916 H 0.15973 0.48729 0.98834 0.0
H917 H 0.09561 0.48213 0.01946 0.0
H918 H 0.1468 0.46438 0.95779 0.0
H919 H 0.08232 0.46016 0.98852 0.0
H920 H 0.05982 0.42292 0.93012 0.0
H921 H 0.08109 0.42915 0.96397 0.0
H922 H 0.1232 0.47499 0.92864 0.0
H923 H 0.10261 0.46825 0.89507 0.0
C924 C 0.14298 0.48092 0.98883 0.0
C925 C 0.12853 0.48687 0.00603 0.0
C926 C 0.13553 0.46787 0.97128 0.0
C927 C 0.11334 0.46089 0.97036 0.0
C928 C 0.09953 0.46513 0.98864 0.0
C929 C 0.10711 0.47788 0.00638 0.0
C930 C 0.07405 0.43381 0.9295 0.0
C931 C 0.07928 0.44542 0.91002 0.0
C932 C 0.08613 0.4375 0.94893 0.0
C933 C 0.10368 0.45282 0.94918 0.0
C934 C 0.10998 0.46292 0.92917 0.0
C935 C 0.09797 0.45923 0.90985 0.0
H936 H 0.72525 0.88992 0.22519 0.0
H937 H 0.77855 0.87523 0.27053 0.0
H938 H 0.7474 0.87681 0.19465 0.0
H939 H 0.80138 0.86288 0.23953 0.0
H940 H 0.81563 0.80995 0.18457 0.0
H941 H 0.80295 0.8319 0.21588 0.0
H942 H 0.77722 0.88113 0.17073 0.0
H943 H 0.78871 0.85835 0.13952 0.0
C944 C 0.74194 0.88434 0.2286 0.0
C945 C 0.75001 0.88339 0.25037 0.0
C946 C 0.75483 0.87699 0.21095 0.0
C947 C 0.7763 0.86873 0.2145 0.0
C948 C 0.78481 0.86881 0.23619 0.0
C949 C 0.77177 0.87598 0.25396 0.0
C950 C 0.80781 0.82577 0.18141 0.0
C951 C 0.8028 0.83232 0.15969 0.0
C952 C 0.80055 0.83843 0.19937 0.0
C953 C 0.7885 0.85807 0.1959 0.0
C954 C 0.78574 0.86572 0.17406 0.0
C955 C 0.79251 0.85281 0.15615 0.0
H956 H 0.33904 0.50906 0.48761 0.0
H957 H 0.40224 0.52091 0.51865 0.0
H958 H 0.35066 0.53058 0.45554 0.0
H959 H 0.41438 0.54146 0.48618 0.0
H960 H 0.43418 0.57676 0.42519 0.0
H961 H 0.41374 0.57067 0.45958 0.0
H962 H 0.37498 0.52002 0.42715 0.0
H963 H 0.39468 0.5266 0.39301 0.0
C964 C 0.3553 0.51662 0.48771 0.0
C965 C 0.3699 0.51301 0.50541 0.0
C966 C 0.36202 0.52885 0.46929 0.0
C967 C 0.38368 0.53727 0.46796 0.0
C968 C 0.39756 0.53533 0.48658 0.0
C969 C 0.39065 0.52344 0.50521 0.0
C970 C 0.42086 0.56478 0.42531 0.0
C971 C 0.4163 0.55191 0.40646 0.0
C972 C 0.40925 0.56117 0.44506 0.0
C973 C 0.39287 0.54466 0.4463 0.0
C974 C 0.38726 0.53306 0.42691 0.0
C975 C 0.39877 0.53669 0.40726 0.0
H976 H 0.2238 0.21197 0.36234 0.0
H977 H 0.27094 0.25427 0.39552 0.0
H978 H 0.25404 0.18828 0.34976 0.0
H979 H 0.3009 0.23141 0.3824 0.0
H980 H 0.35449 0.19079 0.36077 0.0
H981 H 0.32111 0.19853 0.38202 0.0
H982 H 0.28195 0.19147 0.32253 0.0
H983 H 0.31518 0.18244 0.30175 0.0
C984 C 0.24055 0.21607 0.36718 0.0
C985 C 0.24496 0.2352 0.37969 0.0
C986 C 0.25791 0.20254 0.35989 0.0
C987 C 0.28002 0.20792 0.36488 0.0
C988 C 0.28417 0.22638 0.37846 0.0
C989 C 0.2669 0.23975 0.38583 0.0
C990 C 0.33861 0.19006 0.35248 0.0
C991 C 0.33742 0.18636 0.32958 0.0
C992 C 0.31949 0.19473 0.36458 0.0
C993 C 0.29887 0.19642 0.35388 0.0
C994 C 0.29746 0.19035 0.33142 0.0
C995 C 0.31657 0.18517 0.31942 0.0
H996 H 0.00376 0.00944 0.65383 0.0
H997 H 0.02007 0.9784 0.59158 0.0
H998 H 0.02515 0.04194 0.64327 0.0
H999 H 0.0403 0.01127 0.58036 0.0
H1000 H 0.02448 0.10455 0.59956 0.0
H1001 H 0.0171 0.07059 0.61911 0.0
H1002 H 0.06872 0.03778 0.58192 0.0
H1003 H 0.07541 0.07196 0.56139 0.0
C1004 C 0.01211 0.00951 0.63796 0.0
C1005 C 0.00994 0.99158 0.62336 0.0
C1006 C 0.0243 0.02817 0.63183 0.0
C1007 C 0.03408 0.02955 0.61071 0.0
C1008 C 0.03321 0.01087 0.59681 0.0
C1009 C 0.02143 0.99201 0.60317 0.0
C1010 C 0.0346 0.09025 0.59578 0.0
C1011 C 0.05018 0.09086 0.57853 0.0
C1012 C 0.0305 0.07067 0.60723 0.0
C1013 C 0.04205 0.05118 0.60193 0.0
C1014 C 0.05912 0.05232 0.58608 0.0
C1015 C 0.06312 0.07198 0.57444 0.0
H1016 H 0.22791 0.73117 0.88485 0.0
H1017 H 0.27329 0.78117 0.86122 0.0
H1018 H 0.19692 0.75427 0.87431 0.0
H1019 H 0.24207 0.80474 0.8512 0.0
H1020 H 0.18147 0.81528 0.80309 0.0
H1021 H 0.2148 0.80399 0.82253 0.0
H1022 H 0.17559 0.78681 0.87988 0.0
H1023 H 0.14214 0.79726 0.85998 0.0
C1024 C 0.2313 0.7473 0.87778 0.0
C1025 C 0.2531 0.75416 0.8736 0.0
C1026 C 0.21347 0.76072 0.87193 0.0
C1027 C 0.21695 0.78144 0.86187 0.0
C1028 C 0.23879 0.78878 0.85867 0.0
C1029 C 0.25668 0.77527 0.86446 0.0
C1030 C 0.18004 0.80986 0.82013 0.0
C1031 C 0.15917 0.80669 0.82985 0.0
C1032 C 0.19921 0.80336 0.83133 0.0
C1033 C 0.19782 0.79385 0.85256 0.0
C1034 C 0.17716 0.79338 0.86327 0.0
C1035 C 0.15801 0.79958 0.85196 0.0
H1036 H 0.51 0.98047 0.1358 0.0
H1037 H 0.46482 0.02687 0.10548 0.0
H1038 H 0.48626 0.95015 0.12499 0.0
H1039 H 0.44047 0.99629 0.09515 0.0
H1040 H 0.4429 0.89653 0.10959 0.0
H1041 H 0.45251 0.93066 0.12876 0.0
H1042 H 0.44206 0.96736 0.06823 0.0
H1043 H 0.43146 0.93339 0.04947 0.0
C1044 C 0.49475 0.98426 0.12718 0.0
C1045 C 0.48949 0.0061 0.12124 0.0
C1046 C 0.48092 0.96681 0.12118 0.0
C1047 C 0.46134 0.97071 0.10919 0.0
C1048 C 0.45552 0.99268 0.10416 0.0
C1049 C 0.46946 0.0102 0.11012 0.0
C1050 C 0.44181 0.91204 0.10067 0.0
C1051 C 0.43683 0.91229 0.07797 0.0
C1052 C 0.44753 0.93158 0.11156 0.0
C1053 C 0.44884 0.95166 0.09985 0.0
C1054 C 0.44131 0.95223 0.0778 0.0
C1055 C 0.4352 0.93271 0.067 0.0
H1056 H 0.7223 0.28204 0.64023 0.0
H1057 H 0.77166 0.23961 0.61061 0.0
H1058 H 0.75136 0.30743 0.65219 0.0
H1059 H 0.80051 0.26438 0.62304 0.0
H1060 H 0.85167 0.30909 0.642 0.0
H1061 H 0.81877 0.29889 0.62108 0.0
H1062 H 0.77917 0.30627 0.68024 0.0
H1063 H 0.81191 0.31753 0.70074 0.0
C1064 C 0.73931 0.27823 0.63607 0.0
C1065 C 0.74468 0.25864 0.6247 0.0
C1066 C 0.75596 0.29277 0.64297 0.0
C1067 C 0.77833 0.28799 0.63867 0.0
C1068 C 0.7835 0.26891 0.62635 0.0
C1069 C 0.76691 0.25449 0.6194 0.0
C1070 C 0.83575 0.30942 0.65025 0.0
C1071 C 0.83434 0.31373 0.67304 0.0
C1072 C 0.81693 0.30334 0.63835 0.0
C1073 C 0.79644 0.30098 0.64914 0.0
C1074 C 0.79464 0.30785 0.67134 0.0
C1075 C 0.81344 0.31434 0.68316 0.0
H1076 H 0.96133 0.47382 0.88677 0.0
H1077 H 0.00099 0.52343 0.85389 0.0
H1078 H 0.93543 0.50248 0.89861 0.0
H1079 H 0.97604 0.55191 0.86643 0.0
H1080 H 0.93282 0.60317 0.88818 0.0
H1081 H 0.94254 0.57046 0.86671 0.0
H1082 H 0.93581 0.53024 0.92558 0.0
H1083 H 0.92467 0.56269 0.94645 0.0
C1084 C 0.9644 0.49079 0.88187 0.0
C1085 C 0.98341 0.49637 0.86965 0.0
C1086 C 0.9496 0.50725 0.88874 0.0
C1087 C 0.95362 0.52964 0.88371 0.0
C1088 C 0.972 0.53491 0.87039 0.0
C1089 C 0.98658 0.51851 0.86335 0.0
C1090 C 0.93255 0.58714 0.89623 0.0
C1091 C 0.92832 0.58546 0.919 0.0
C1092 C 0.93839 0.56841 0.88403 0.0
C1093 C 0.94082 0.54776 0.89454 0.0
C1094 C 0.93418 0.54577 0.91681 0.0
C1095 C 0.92778 0.56444 0.92887 0.0
H1096 H 0.64849 0.71232 0.148 0.0
H1097 H 0.68336 0.66908 0.19301 0.0
H1098 H 0.68226 0.71881 0.12776 0.0
H1099 H 0.71739 0.67482 0.17196 0.0
H1100 H 0.77286 0.72721 0.15764 0.0
H1101 H 0.74175 0.70522 0.17039 0.0
H1102 H 0.71213 0.70955 0.10536 0.0
H1103 H 0.74278 0.73269 0.09307 0.0
C1104 C 0.66328 0.70362 0.15319 0.0
C1105 C 0.66334 0.69063 0.17248 0.0
C1106 C 0.68275 0.70717 0.14137 0.0
C1107 C 0.70279 0.69765 0.14839 0.0
C1108 C 0.70238 0.68285 0.16639 0.0
C1109 C 0.68283 0.67939 0.17837 0.0
C1110 C 0.75995 0.72302 0.14593 0.0
C1111 C 0.75995 0.7321 0.12454 0.0
C1112 C 0.74211 0.71023 0.15319 0.0
C1113 C 0.72407 0.70596 0.13907 0.0
C1114 C 0.72536 0.71307 0.11691 0.0
C1115 C 0.74298 0.72625 0.1098 0.0
H1116 H 0.5025 0.48002 0.3367 0.0
H1117 H 0.52085 0.51469 0.39647 0.0
H1118 H 0.5236 0.4479 0.34884 0.0
H1119 H 0.54121 0.48236 0.40901 0.0
H1120 H 0.57796 0.4224 0.4288 0.0
H1121 H 0.57016 0.45528 0.40662 0.0
H1122 H 0.5147 0.42156 0.37659 0.0
H1123 H 0.52283 0.38879 0.39808 0.0
C1124 C 0.51133 0.48091 0.35228 0.0
C1125 C 0.50966 0.49972 0.36583 0.0
C1126 C 0.52336 0.46246 0.35928 0.0
C1127 C 0.53371 0.46233 0.38012 0.0
C1128 C 0.53356 0.48186 0.39281 0.0
C1129 C 0.52175 0.50041 0.38567 0.0
C1130 C 0.56447 0.42185 0.41701 0.0
C1131 C 0.55078 0.40309 0.41548 0.0
C1132 C 0.55992 0.44075 0.40441 0.0
C1133 C 0.54162 0.44122 0.39002 0.0
C1134 C 0.52905 0.42183 0.3873 0.0
C1135 C 0.5336 0.403 0.39983 0.0
H1136 H 0.36962 0.23369 0.21766 0.0
H1137 H 0.38625 0.27781 0.2714 0.0
H1138 H 0.35697 0.26518 0.19576 0.0
H1139 H 0.37272 0.30889 0.25023 0.0
H1140 H 0.30322 0.31954 0.18439 0.0
H1141 H 0.32604 0.28838 0.19556 0.0
H1142 H 0.37519 0.3337 0.22116 0.0
H1143 H 0.35149 0.36476 0.21125 0.0
C1144 C 0.37073 0.25012 0.22473 0.0
C1145 C 0.37871 0.25322 0.24636 0.0
C1146 C 0.36338 0.26818 0.21222 0.0
C1147 C 0.36359 0.28967 0.2212 0.0
C1148 C 0.3726 0.29276 0.24246 0.0
C1149 C 0.38021 0.27481 0.25479 0.0
C1150 C 0.31918 0.32281 0.19186 0.0
C1151 C 0.32545 0.34448 0.19732 0.0
C1152 C 0.33237 0.30491 0.19824 0.0
C1153 C 0.35229 0.30842 0.20983 0.0
C1154 C 0.35961 0.33031 0.213 0.0
C1155 C 0.34617 0.34814 0.20713 0.0
H1156 H 0.85975 0.13767 0.79915 0.0
H1157 H 0.8037 0.17827 0.81671 0.0
H1158 H 0.88071 0.17069 0.78936 0.0
H1159 H 0.82413 0.21123 0.8059 0.0
H1160 H 0.86432 0.26898 0.7841 0.0
H1161 H 0.85309 0.23783 0.80725 0.0
H1162 H 0.87698 0.19252 0.75728 0.0
H1163 H 0.8888 0.22341 0.7347 0.0
C1164 C 0.85213 0.15374 0.80146 0.0
C1165 C 0.83002 0.15543 0.80837 0.0
C1166 C 0.86404 0.17265 0.79564 0.0
C1167 C 0.8539 0.19359 0.79614 0.0
C1168 C 0.83253 0.19542 0.80528 0.0
C1169 C 0.82076 0.17649 0.8115 0.0
C1170 C 0.8675 0.25234 0.77826 0.0
C1171 C 0.87724 0.24869 0.75742 0.0
C1172 C 0.861 0.23448 0.79152 0.0
C1173 C 0.864 0.21261 0.78416 0.0
C1174 C 0.87471 0.20906 0.76377 0.0
C1175 C 0.88132 0.22685 0.75063 0.0
H1176 H 0.97956 0.59885 0.01877 0.0
H1177 H 0.01157 0.65719 0.9927 0.0
H1178 H 0.01322 0.5891 0.03849 0.0
H1179 H 0.04496 0.64814 0.01336 0.0
H1180 H 0.10637 0.60287 0.01727 0.0
H1181 H 0.07253 0.62175 0.00769 0.0
H1182 H 0.04072 0.59459 0.0658 0.0
H1183 H 0.07469 0.57472 0.07492 0.0
C1184 C 0.99362 0.60992 0.01775 0.0
C1185 C 0.9931 0.62853 0.00385 0.0
C1186 C 0.01293 0.60444 0.02923 0.0
C1187 C 0.03202 0.61766 0.02731 0.0
C1188 C 0.0308 0.63725 0.01477 0.0
C1189 C 0.01164 0.6425 0.00298 0.0
C1190 C 0.09233 0.60121 0.0283 0.0
C1191 C 0.09313 0.5869 0.04662 0.0
C1192 C 0.07285 0.61226 0.02289 0.0
C1193 C 0.05367 0.60949 0.03578 0.0
C1194 C 0.05502 0.5967 0.05521 0.0
C1195 C 0.07456 0.58546 0.06057 0.0
H1196 H 0.69666 0.82134 0.3207 0.0
H1197 H 0.63544 0.8572 0.31287 0.0
H1198 H 0.67799 0.78713 0.31091 0.0
H1199 H 0.61629 0.82276 0.30437 0.0
H1200 H 0.60645 0.7737 0.2469 0.0
H1201 H 0.61763 0.80367 0.27077 0.0
H1202 H 0.65253 0.7575 0.31287 0.0
H1203 H 0.6419 0.72729 0.28817 0.0
C1204 C 0.67895 0.82172 0.31798 0.0
C1205 C 0.66757 0.84195 0.31708 0.0
C1206 C 0.66817 0.80204 0.31234 0.0
C1207 C 0.64572 0.80224 0.3061 0.0
C1208 C 0.63377 0.82211 0.30826 0.0
C1209 C 0.64465 0.84183 0.3134 0.0
C1210 C 0.61626 0.7698 0.26139 0.0
C1211 C 0.62357 0.74811 0.26539 0.0
C1212 C 0.62249 0.78705 0.27534 0.0
C1213 C 0.63606 0.78313 0.29386 0.0
C1214 C 0.64233 0.7612 0.2986 0.0
C1215 C 0.63619 0.74387 0.28449 0.0
H1216 H 0.3959 0.39452 0.53276 0.0
H1217 H 0.42951 0.43734 0.57911 0.0
H1218 H 0.42998 0.3747 0.52612 0.0
H1219 H 0.46387 0.4169 0.5729 0.0
H1220 H 0.52068 0.40323 0.52098 0.0
H1221 H 0.48893 0.41627 0.54201 0.0
H1222 H 0.45924 0.35135 0.53746 0.0
H1223 H 0.49062 0.33863 0.51559 0.0
C1224 C 0.41047 0.39932 0.54202 0.0
C1225 C 0.41007 0.41776 0.55616 0.0
C1226 C 0.43008 0.38778 0.53836 0.0
C1227 C 0.44982 0.39432 0.5488 0.0
C1228 C 0.44904 0.41166 0.56433 0.0
C1229 C 0.42931 0.42327 0.56801 0.0
C1230 C 0.50764 0.39159 0.52496 0.0
C1231 C 0.50789 0.37006 0.51622 0.0
C1232 C 0.48943 0.39903 0.53716 0.0
C1233 C 0.47126 0.38498 0.54105 0.0
C1234 C 0.47267 0.36277 0.53424 0.0
C1235 C 0.49069 0.35545 0.52179 0.0
H1236 H 0.19634 0.67654 0.68418 0.0
H1237 H 0.14381 0.63293 0.70508 0.0
H1238 H 0.17433 0.70841 0.69511 0.0
H1239 H 0.12108 0.66477 0.71476 0.0
H1240 H 0.10955 0.71861 0.7671 0.0
H1241 H 0.12315 0.68791 0.74541 0.0
H1242 H 0.14438 0.73322 0.69418 0.0
H1243 H 0.13152 0.76426 0.7166 0.0
C1244 C 0.17968 0.67384 0.69023 0.0
C1245 C 0.17188 0.65233 0.69415 0.0
C1246 C 0.16697 0.69214 0.69648 0.0
C1247 C 0.14608 0.68921 0.70641 0.0
C1248 C 0.13739 0.66766 0.70791 0.0
C1249 C 0.15029 0.64939 0.70215 0.0
C1250 C 0.11682 0.72207 0.75107 0.0
C1251 C 0.11971 0.74392 0.74374 0.0
C1252 C 0.12447 0.70436 0.73844 0.0
C1253 C 0.13498 0.70797 0.71795 0.0
C1254 C 0.13673 0.7298 0.71002 0.0
C1255 C 0.12927 0.7476 0.72284 0.0
H1256 H 0.48423 0.87997 0.9685 0.0
H1257 H 0.52865 0.86007 0.02089 0.0
H1258 H 0.51579 0.89193 0.9463 0.0
H1259 H 0.55988 0.8727 -0.00071 0.0
H1260 H 0.6157 0.89087 0.95873 0.0
H1261 H 0.58343 0.86889 0.96875 0.0
H1262 H 0.54078 0.92209 0.94705 0.0
H1263 H 0.5731 0.94342 0.93594 0.0
C1264 C 0.50073 0.87796 0.97521 0.0
C1265 C 0.5039 0.86927 0.99657 0.0
C1266 C 0.51881 0.8849 0.96251 0.0
C1267 C 0.54044 0.88343 0.97097 0.0
C1268 C 0.54358 0.87378 0.99195 0.0
C1269 C 0.52557 0.86669 0.00451 0.0
C1270 C 0.59937 0.8975 0.95544 0.0
C1271 C 0.59685 0.91892 0.94685 0.0
C1272 C 0.58087 0.88502 0.96137 0.0
C1273 C 0.55948 0.89396 0.95937 0.0
C1274 C 0.55695 0.91459 0.94882 0.0
C1275 C 0.57549 0.92689 0.94245 0.0
H1276 H 0.93352 0.04824 0.42912 0.0
H1277 H 0.89496 0.10821 0.43109 0.0
H1278 H 0.96664 0.06909 0.43829 0.0
H1279 H 0.92833 0.12955 0.43859 0.0
H1280 H 0.97485 0.14667 0.49615 0.0
H1281 H 0.94647 0.13274 0.47195 0.0
H1282 H 0.9954 0.09489 0.4359 0.0
H1283 H 0.02399 0.10824 0.4612 0.0
C1284 C 0.93238 0.06608 0.43039 0.0
C1285 C 0.9117 0.07662 0.4298 0.0
C1286 C 0.95142 0.07813 0.43564 0.0
C1287 C 0.95014 0.10101 0.43995 0.0
C1288 C 0.92984 0.11185 0.43628 0.0
C1289 C 0.91073 0.09971 0.43169 0.0
C1290 C 0.97973 0.13565 0.48288 0.0
C1291 C 0.00167 0.12826 0.48092 0.0
C1292 C 0.96337 0.12779 0.46869 0.0
C1293 C 0.96846 0.11249 0.45188 0.0
C1294 C 0.99075 0.10633 0.44888 0.0
C1295 C 0.00718 0.11407 0.46331 0.0
loop_
_geom_bond_atom_site_label_1
_geom_bond_atom_site_label_2
_geom_bond_distance
_geom_bond_site_symmetry_2
_ccdc_geom_bond_type
O0 Cd1 2.223 . S
O0 C8 1.315 . S
Cd1 O0 2.223 . S
Cd1 O4 2.297 . S
Cd1 O5 2.439 . S
Cd1 O11 2.240 . S
Cd2 O3 2.240 . S
Cd2 O10 2.223 . S
Cd2 O12 2.297 . S
Cd2 O13 2.439 . S
O3 Cd2 2.240 . S
O3 C8 1.279 . S
O4 Cd1 2.297 . S
O4 C6 1.247 . S
O5 Cd1 2.439 . S
O5 C6 1.208 . S
C6 O4 1.247 . S
C6 O5 1.208 . S
C7 O12 1.247 . S
C7 O13 1.208 . S
C8 O0 1.315 . S
C8 O3 1.279 . S
C9 O10 1.315 . S
C9 O11 1.279 . S
O10 Cd2 2.223 . S
O10 C9 1.315 . S
O11 Cd1 2.240 . S
O11 C9 1.279 . S
O12 Cd2 2.297 . S
O12 C7 1.247 . S
O13 Cd2 2.439 . S
O13 C7 1.208 . S
O14 Cd15 2.223 . S
O14 C22 1.315 . S
Cd15 O14 2.223 . S
Cd15 O18 2.297 . S
Cd15 O19 2.439 . S
Cd15 O25 2.240 . S
Cd16 O17 2.240 . S
Cd16 O24 2.223 . S
Cd16 O26 2.297 . S
Cd16 O27 2.439 . S
O17 Cd16 2.240 . S
O17 C22 1.279 . S
O18 Cd15 2.297 . S
O18 C20 1.247 . S
O19 Cd15 2.439 . S
O19 C20 1.208 . S
C20 O18 1.247 . S
C20 O19 1.208 . S
C21 O26 1.247 . S
C21 O27 1.208 . S
C22 O14 1.315 . S
C22 O17 1.279 . S
C23 O24 1.315 . S
C23 O25 1.279 . S
O24 Cd16 2.223 . S
O24 C23 1.315 . S
O25 Cd15 2.240 . S
O25 C23 1.279 . S
O26 Cd16 2.297 . S
O26 C21 1.247 . S
O27 Cd16 2.439 . S
O27 C21 1.208 . S
O28 Cd29 2.223 . S
O28 C36 1.315 . S
Cd29 O28 2.223 . S
Cd29 O32 2.297 . S
Cd29 O33 2.439 . S
Cd29 O39 2.240 . S
Cd30 O31 2.240 . S
Cd30 O38 2.223 . S
Cd30 O40 2.297 . S
Cd30 O41 2.439 . S
O31 Cd30 2.240 . S
O31 C36 1.279 . S
O32 Cd29 2.297 . S
O32 C34 1.247 . S
O33 Cd29 2.439 . S
O33 C34 1.208 . S
C34 O32 1.247 . S
C34 O33 1.208 . S
C35 O40 1.247 . S
C35 O41 1.208 . S
C36 O28 1.315 . S
C36 O31 1.279 . S
C37 O38 1.315 . S
C37 O39 1.279 . S
O38 Cd30 2.223 . S
O38 C37 1.315 . S
O39 Cd29 2.240 . S
O39 C37 1.279 . S
O40 Cd30 2.297 . S
O40 C35 1.247 . S
O41 Cd30 2.439 . S
O41 C35 1.208 . S
O42 Cd43 2.223 . S
O42 C50 1.315 . S
Cd43 O42 2.223 . S
Cd43 O46 2.297 . S
Cd43 O47 2.439 . S
Cd43 O53 2.240 . S
Cd44 O45 2.240 . S
Cd44 O52 2.223 . S
Cd44 O54 2.297 . S
Cd44 O55 2.439 . S
O45 Cd44 2.240 . S
O45 C50 1.279 . S
O46 Cd43 2.297 . S
O46 C48 1.247 . S
O47 Cd43 2.439 . S
O47 C48 1.208 . S
C48 O46 1.247 . S
C48 O47 1.208 . S
C49 O54 1.247 . S
C49 O55 1.208 . S
C50 O42 1.315 . S
C50 O45 1.279 . S
C51 O52 1.315 . S
C51 O53 1.279 . S
O52 Cd44 2.223 . S
O52 C51 1.315 . S
O53 Cd43 2.240 . S
O53 C51 1.279 . S
O54 Cd44 2.297 . S
O54 C49 1.247 . S
O55 Cd44 2.439 . S
O55 C49 1.208 . S
O56 Cd57 2.223 . S
O56 C64 1.315 . S
Cd57 O56 2.223 . S
Cd57 O60 2.297 . S
Cd57 O61 2.439 . S
Cd57 O67 2.240 . S
Cd58 O59 2.240 . S
Cd58 O66 2.223 . S
Cd58 O68 2.297 . S
Cd58 O69 2.439 . S
O59 Cd58 2.240 . S
O59 C64 1.279 . S
O60 Cd57 2.297 . S
O60 C62 1.247 . S
O61 Cd57 2.439 . S
O61 C62 1.208 . S
C62 O60 1.247 . S
C62 O61 1.208 . S
C63 O68 1.247 . S
C63 O69 1.208 . S
C64 O56 1.315 . S
C64 O59 1.279 . S
C65 O66 1.315 . S
C65 O67 1.279 . S
O66 Cd58 2.223 . S
O66 C65 1.315 . S
O67 Cd57 2.240 . S
O67 C65 1.279 . S
O68 Cd58 2.297 . S
O68 C63 1.247 . S
O69 Cd58 2.439 . S
O69 C63 1.208 . S
O70 Cd71 2.223 . S
O70 C78 1.315 . S
Cd71 O70 2.223 . S
Cd71 O74 2.297 . S
Cd71 O75 2.439 . S
Cd71 O81 2.240 . S
Cd72 O73 2.240 . S
Cd72 O80 2.223 . S
Cd72 O82 2.297 . S
Cd72 O83 2.439 . S
O73 Cd72 2.240 . S
O73 C78 1.279 . S
O74 Cd71 2.297 . S
O74 C76 1.247 . S
O75 Cd71 2.439 . S
O75 C76 1.208 . S
C76 O74 1.247 . S
C76 O75 1.208 . S
C77 O82 1.247 . S
C77 O83 1.208 . S
C78 O70 1.315 . S
C78 O73 1.279 . S
C79 O80 1.315 . S
C79 O81 1.279 . S
O80 Cd72 2.223 . S
O80 C79 1.315 . S
O81 Cd71 2.240 . S
O81 C79 1.279 . S
O82 Cd72 2.297 . S
O82 C77 1.247 . S
O83 Cd72 2.439 . S
O83 C77 1.208 . S
O84 Cd85 2.223 . S
O84 C92 1.315 . S
Cd85 O84 2.223 . S
Cd85 O88 2.297 . S
Cd85 O89 2.439 . S
Cd85 O95 2.240 . S
Cd86 O87 2.240 . S
Cd86 O94 2.223 . S
Cd86 O96 2.297 . S
Cd86 O97 2.439 . S
O87 Cd86 2.240 . S
O87 C92 1.279 . S
O88 Cd85 2.297 . S
O88 C90 1.247 . S
O89 Cd85 2.439 . S
O89 C90 1.208 . S
C90 O88 1.247 . S
C90 O89 1.208 . S
C91 O96 1.247 . S
C91 O97 1.208 . S
C92 O84 1.315 . S
C92 O87 1.279 . S
C93 O94 1.315 . S
C93 O95 1.279 . S
O94 Cd86 2.223 . S
O94 C93 1.315 . S
O95 Cd85 2.240 . S
O95 C93 1.279 . S
O96 Cd86 2.297 . S
O96 C91 1.247 . S
O97 Cd86 2.439 . S
O97 C91 1.208 . S
O98 Cd99 2.223 . S
O98 C106 1.315 . S
Cd99 O98 2.223 . S
Cd99 O102 2.297 . S
Cd99 O103 2.439 . S
Cd99 O109 2.240 . S
Cd100 O101 2.240 . S
Cd100 O108 2.223 . S
Cd100 O110 2.297 . S
Cd100 O111 2.439 . S
O101 Cd100 2.240 . S
O101 C106 1.279 . S
O102 Cd99 2.297 . S
O102 C104 1.247 . S
O103 Cd99 2.439 . S
O103 C104 1.208 . S
C104 O102 1.247 . S
C104 O103 1.208 . S
C105 O110 1.247 . S
C105 O111 1.208 . S
C106 O98 1.315 . S
C106 O101 1.279 . S
C107 O108 1.315 . S
C107 O109 1.279 . S
O108 Cd100 2.223 . S
O108 C107 1.315 . S
O109 Cd99 2.240 . S
O109 C107 1.279 . S
O110 Cd100 2.297 . S
O110 C105 1.247 . S
O111 Cd100 2.439 . S
O111 C105 1.208 . S
O112 Cd113 2.223 . S
O112 C120 1.315 . S
Cd113 O112 2.223 . S
Cd113 O116 2.297 . S
Cd113 O117 2.439 . S
Cd113 O123 2.240 . S
Cd114 O115 2.240 . S
Cd114 O122 2.223 . S
Cd114 O124 2.297 . S
Cd114 O125 2.439 . S
O115 Cd114 2.240 . S
O115 C120 1.279 . S
O116 Cd113 2.297 . S
O116 C118 1.247 . S
O117 Cd113 2.439 . S
O117 C118 1.208 . S
C118 O116 1.247 . S
C118 O117 1.208 . S
C119 O124 1.247 . S
C119 O125 1.208 . S
C120 O112 1.315 . S
C120 O115 1.279 . S
C121 O122 1.315 . S
C121 O123 1.279 . S
O122 Cd114 2.223 . S
O122 C121 1.315 . S
O123 Cd113 2.240 . S
O123 C121 1.279 . S
O124 Cd114 2.297 . S
O124 C119 1.247 . S
O125 Cd114 2.439 . S
O125 C119 1.208 . S
O126 Cd127 2.223 . S
O126 C134 1.315 . S
Cd127 O126 2.223 . S
Cd127 O130 2.297 . S
Cd127 O131 2.439 . S
Cd127 O137 2.240 . S
Cd128 O129 2.240 . S
Cd128 O136 2.223 . S
Cd128 O138 2.297 . S
Cd128 O139 2.439 . S
O129 Cd128 2.240 . S
O129 C134 1.279 . S
O130 Cd127 2.297 . S
O130 C132 1.247 . S
O131 Cd127 2.439 . S
O131 C132 1.208 . S
C132 O130 1.247 . S
C132 O131 1.208 . S
C133 O138 1.247 . S
C133 O139 1.208 . S
C134 O126 1.315 . S
C134 O129 1.279 . S
C135 O136 1.315 . S
C135 O137 1.279 . S
O136 Cd128 2.223 . S
O136 C135 1.315 . S
O137 Cd127 2.240 . S
O137 C135 1.279 . S
O138 Cd128 2.297 . S
O138 C133 1.247 . S
O139 Cd128 2.439 . S
O139 C133 1.208 . S
O140 Cd141 2.223 . S
O140 C148 1.315 . S
Cd141 O140 2.223 . S
Cd141 O144 2.297 . S
Cd141 O145 2.439 . S
Cd141 O151 2.240 . S
Cd142 O143 2.240 . S
Cd142 O150 2.223 . S
Cd142 O152 2.297 . S
Cd142 O153 2.439 . S
O143 Cd142 2.240 . S
O143 C148 1.279 . S
O144 Cd141 2.297 . S
O144 C146 1.247 . S
O145 Cd141 2.439 . S
O145 C146 1.208 . S
C146 O144 1.247 . S
C146 O145 1.208 . S
C147 O152 1.247 . S
C147 O153 1.208 . S
C148 O140 1.315 . S
C148 O143 1.279 . S
C149 O150 1.315 . S
C149 O151 1.279 . S
O150 Cd142 2.223 . S
O150 C149 1.315 . S
O151 Cd141 2.240 . S
O151 C149 1.279 . S
O152 Cd142 2.297 . S
O152 C147 1.247 . S
O153 Cd142 2.439 . S
O153 C147 1.208 . S
O154 Cd155 2.223 . S
O154 C162 1.315 . S
Cd155 O154 2.223 . S
Cd155 O158 2.297 . S
Cd155 O159 2.439 . S
Cd155 O165 2.240 . S
Cd156 O157 2.240 . S
Cd156 O164 2.223 . S
Cd156 O166 2.297 . S
Cd156 O167 2.439 . S
O157 Cd156 2.240 . S
O157 C162 1.279 . S
O158 Cd155 2.297 . S
O158 C160 1.247 . S
O159 Cd155 2.439 . S
O159 C160 1.208 . S
C160 O158 1.247 . S
C160 O159 1.208 . S
C161 O166 1.247 . S
C161 O167 1.208 . S
C162 O154 1.315 . S
C162 O157 1.279 . S
C163 O164 1.315 . S
C163 O165 1.279 . S
O164 Cd156 2.223 . S
O164 C163 1.315 . S
O165 Cd155 2.240 . S
O165 C163 1.279 . S
O166 Cd156 2.297 . S
O166 C161 1.247 . S
O167 Cd156 2.439 . S
O167 C161 1.208 . S
O168 Cd169 2.223 . S
O168 C176 1.315 . S
Cd169 O168 2.223 . S
Cd169 O172 2.297 . S
Cd169 O173 2.439 . S
Cd169 O179 2.240 . S
Cd170 O171 2.240 . S
Cd170 O178 2.223 . S
Cd170 O180 2.297 . S
Cd170 O181 2.439 . S
O171 Cd170 2.240 . S
O171 C176 1.279 . S
O172 Cd169 2.297 . S
O172 C174 1.247 . S
O173 Cd169 2.439 . S
O173 C174 1.208 . S
C174 O172 1.247 . S
C174 O173 1.208 . S
C175 O180 1.247 . S
C175 O181 1.208 . S
C176 O168 1.315 . S
C176 O171 1.279 . S
C177 O178 1.315 . S
C177 O179 1.279 . S
O178 Cd170 2.223 . S
O178 C177 1.315 . S
O179 Cd169 2.240 . S
O179 C177 1.279 . S
O180 Cd170 2.297 . S
O180 C175 1.247 . S
O181 Cd170 2.439 . S
O181 C175 1.208 . S
O182 Cd183 2.223 . S
O182 C190 1.315 . S
Cd183 O182 2.223 . S
Cd183 O186 2.297 . S
Cd183 O187 2.439 . S
Cd183 O193 2.240 . S
Cd184 O185 2.240 . S
Cd184 O192 2.223 . S
Cd184 O194 2.297 . S
Cd184 O195 2.439 . S
O185 Cd184 2.240 . S
O185 C190 1.279 . S
O186 Cd183 2.297 . S
O186 C188 1.247 . S
O187 Cd183 2.439 . S
O187 C188 1.208 . S
C188 O186 1.247 . S
C188 O187 1.208 . S
C189 O194 1.247 . S
C189 O195 1.208 . S
C190 O182 1.315 . S
C190 O185 1.279 . S
C191 O192 1.315 . S
C191 O193 1.279 . S
O192 Cd184 2.223 . S
O192 C191 1.315 . S
O193 Cd183 2.240 . S
O193 C191 1.279 . S
O194 Cd184 2.297 . S
O194 C189 1.247 . S
O195 Cd184 2.439 . S
O195 C189 1.208 . S
O196 Cd197 2.223 . S
O196 C204 1.315 . S
Cd197 O196 2.223 . S
Cd197 O200 2.297 . S
Cd197 O201 2.439 . S
Cd197 O207 2.240 . S
Cd198 O199 2.240 . S
Cd198 O206 2.223 . S
Cd198 O208 2.297 . S
Cd198 O209 2.439 . S
O199 Cd198 2.240 . S
O199 C204 1.279 . S
O200 Cd197 2.297 . S
O200 C202 1.247 . S
O201 Cd197 2.439 . S
O201 C202 1.208 . S
C202 O200 1.247 . S
C202 O201 1.208 . S
C203 O208 1.247 . S
C203 O209 1.208 . S
C204 O196 1.315 . S
C204 O199 1.279 . S
C205 O206 1.315 . S
C205 O207 1.279 . S
O206 Cd198 2.223 . S
O206 C205 1.315 . S
O207 Cd197 2.240 . S
O207 C205 1.279 . S
O208 Cd198 2.297 . S
O208 C203 1.247 . S
O209 Cd198 2.439 . S
O209 C203 1.208 . S
O210 Cd211 2.223 . S
O210 C218 1.315 . S
Cd211 O210 2.223 . S
Cd211 O214 2.297 . S
Cd211 O215 2.439 . S
Cd211 O221 2.240 . S
Cd212 O213 2.240 . S
Cd212 O220 2.223 . S
Cd212 O222 2.297 . S
Cd212 O223 2.439 . S
O213 Cd212 2.240 . S
O213 C218 1.279 . S
O214 Cd211 2.297 . S
O214 C216 1.247 . S
O215 Cd211 2.439 . S
O215 C216 1.208 . S
C216 O214 1.247 . S
C216 O215 1.208 . S
C217 O222 1.247 . S
C217 O223 1.208 . S
C218 O210 1.315 . S
C218 O213 1.279 . S
C219 O220 1.315 . S
C219 O221 1.279 . S
O220 Cd212 2.223 . S
O220 C219 1.315 . S
O221 Cd211 2.240 . S
O221 C219 1.279 . S
O222 Cd212 2.297 . S
O222 C217 1.247 . S
O223 Cd212 2.439 . S
O223 C217 1.208 . S
O224 Cd225 2.223 . S
O224 C232 1.315 . S
Cd225 O224 2.223 . S
Cd225 O228 2.297 . S
Cd225 O229 2.439 . S
Cd225 O235 2.240 . S
Cd226 O227 2.240 . S
Cd226 O234 2.223 . S
Cd226 O236 2.297 . S
Cd226 O237 2.439 . S
O227 Cd226 2.240 . S
O227 C232 1.279 . S
O228 Cd225 2.297 . S
O228 C230 1.247 . S
O229 Cd225 2.439 . S
O229 C230 1.208 . S
C230 O228 1.247 . S
C230 O229 1.208 . S
C231 O236 1.247 . S
C231 O237 1.208 . S
C232 O224 1.315 . S
C232 O227 1.279 . S
C233 O234 1.315 . S
C233 O235 1.279 . S
O234 Cd226 2.223 . S
O234 C233 1.315 . S
O235 Cd225 2.240 . S
O235 C233 1.279 . S
O236 Cd226 2.297 . S
O236 C231 1.247 . S
O237 Cd226 2.439 . S
O237 C231 1.208 . S
O238 Cd239 2.223 . S
O238 C246 1.315 . S
Cd239 O238 2.223 . S
Cd239 O242 2.297 . S
Cd239 O243 2.439 . S
Cd239 O249 2.240 . S
Cd240 O241 2.240 . S
Cd240 O248 2.223 . S
Cd240 O250 2.297 . S
Cd240 O251 2.439 . S
O241 Cd240 2.240 . S
O241 C246 1.279 . S
O242 Cd239 2.297 . S
O242 C244 1.247 . S
O243 Cd239 2.439 . S
O243 C244 1.208 . S
C244 O242 1.247 . S
C244 O243 1.208 . S
C245 O250 1.247 . S
C245 O251 1.208 . S
C246 O238 1.315 . S
C246 O241 1.279 . S
C247 O248 1.315 . S
C247 O249 1.279 . S
O248 Cd240 2.223 . S
O248 C247 1.315 . S
O249 Cd239 2.240 . S
O249 C247 1.279 . S
O250 Cd240 2.297 . S
O250 C245 1.247 . S
O251 Cd240 2.439 . S
O251 C245 1.208 . S
O252 Cd253 2.223 . S
O252 C260 1.315 . S
Cd253 O252 2.223 . S
Cd253 O256 2.297 . S
Cd253 O257 2.439 . S
Cd253 O263 2.240 . S
Cd254 O255 2.240 . S
Cd254 O262 2.223 . S
Cd254 O264 2.297 . S
Cd254 O265 2.439 . S
O255 Cd254 2.240 . S
O255 C260 1.279 . S
O256 Cd253 2.297 . S
O256 C258 1.247 . S
O257 Cd253 2.439 . S
O257 C258 1.208 . S
C258 O256 1.247 . S
C258 O257 1.208 . S
C259 O264 1.247 . S
C259 O265 1.208 . S
C260 O252 1.315 . S
C260 O255 1.279 . S
C261 O262 1.315 . S
C261 O263 1.279 . S
O262 Cd254 2.223 . S
O262 C261 1.315 . S
O263 Cd253 2.240 . S
O263 C261 1.279 . S
O264 Cd254 2.297 . S
O264 C259 1.247 . S
O265 Cd254 2.439 . S
O265 C259 1.208 . S
O266 Cd267 2.223 . S
O266 C274 1.315 . S
Cd267 O266 2.223 . S
Cd267 O270 2.297 . S
Cd267 O271 2.439 . S
Cd267 O277 2.240 . S
Cd268 O269 2.240 . S
Cd268 O276 2.223 . S
Cd268 O278 2.297 . S
Cd268 O279 2.439 . S
O269 Cd268 2.240 . S
O269 C274 1.279 . S
O270 Cd267 2.297 . S
O270 C272 1.247 . S
O271 Cd267 2.439 . S
O271 C272 1.208 . S
C272 O270 1.247 . S
C272 O271 1.208 . S
C273 O278 1.247 . S
C273 O279 1.208 . S
C274 O266 1.315 . S
C274 O269 1.279 . S
C275 O276 1.315 . S
C275 O277 1.279 . S
O276 Cd268 2.223 . S
O276 C275 1.315 . S
O277 Cd267 2.240 . S
O277 C275 1.279 . S
O278 Cd268 2.297 . S
O278 C273 1.247 . S
O279 Cd268 2.439 . S
O279 C273 1.208 . S
O280 Cd281 2.223 . S
O280 C288 1.315 . S
Cd281 O280 2.223 . S
Cd281 O284 2.297 . S
Cd281 O285 2.439 . S
Cd281 O291 2.240 . S
Cd282 O283 2.240 . S
Cd282 O290 2.223 . S
Cd282 O292 2.297 . S
Cd282 O293 2.439 . S
O283 Cd282 2.240 . S
O283 C288 1.279 . S
O284 Cd281 2.297 . S
O284 C286 1.247 . S
O285 Cd281 2.439 . S
O285 C286 1.208 . S
C286 O284 1.247 . S
C286 O285 1.208 . S
C287 O292 1.247 . S
C287 O293 1.208 . S
C288 O280 1.315 . S
C288 O283 1.279 . S
C289 O290 1.315 . S
C289 O291 1.279 . S
O290 Cd282 2.223 . S
O290 C289 1.315 . S
O291 Cd281 2.240 . S
O291 C289 1.279 . S
O292 Cd282 2.297 . S
O292 C287 1.247 . S
O293 Cd282 2.439 . S
O293 C287 1.208 . S
O294 Cd295 2.223 . S
O294 C302 1.315 . S
Cd295 O294 2.223 . S
Cd295 O298 2.297 . S
Cd295 O299 2.439 . S
Cd295 O305 2.240 . S
Cd296 O297 2.240 . S
Cd296 O304 2.223 . S
Cd296 O306 2.297 . S
Cd296 O307 2.439 . S
O297 Cd296 2.240 . S
O297 C302 1.279 . S
O298 Cd295 2.297 . S
O298 C300 1.247 . S
O299 Cd295 2.439 . S
O299 C300 1.208 . S
C300 O298 1.247 . S
C300 O299 1.208 . S
C301 O306 1.247 . S
C301 O307 1.208 . S
C302 O294 1.315 . S
C302 O297 1.279 . S
C303 O304 1.315 . S
C303 O305 1.279 . S
O304 Cd296 2.223 . S
O304 C303 1.315 . S
O305 Cd295 2.240 . S
O305 C303 1.279 . S
O306 Cd296 2.297 . S
O306 C301 1.247 . S
O307 Cd296 2.439 . S
O307 C301 1.208 . S
O308 Cd309 2.223 . S
O308 C316 1.315 . S
Cd309 O308 2.223 . S
Cd309 O312 2.297 . S
Cd309 O313 2.439 . S
Cd309 O319 2.240 . S
Cd310 O311 2.240 . S
Cd310 O318 2.223 . S
Cd310 O320 2.297 . S
Cd310 O321 2.439 . S
O311 Cd310 2.240 . S
O311 C316 1.279 . S
O312 Cd309 2.297 . S
O312 C314 1.247 . S
O313 Cd309 2.439 . S
O313 C314 1.208 . S
C314 O312 1.247 . S
C314 O313 1.208 . S
C315 O320 1.247 . S
C315 O321 1.208 . S
C316 O308 1.315 . S
C316 O311 1.279 . S
C317 O318 1.315 . S
C317 O319 1.279 . S
O318 Cd310 2.223 . S
O318 C317 1.315 . S
O319 Cd309 2.240 . S
O319 C317 1.279 . S
O320 Cd310 2.297 . S
O320 C315 1.247 . S
O321 Cd310 2.439 . S
O321 C315 1.208 . S
O322 Cd323 2.223 . S
O322 C330 1.315 . S
Cd323 O322 2.223 . S
Cd323 O326 2.297 . S
Cd323 O327 2.439 . S
Cd323 O333 2.240 . S
Cd324 O325 2.240 . S
Cd324 O332 2.223 . S
Cd324 O334 2.297 . S
Cd324 O335 2.439 . S
O325 Cd324 2.240 . S
O325 C330 1.279 . S
O326 Cd323 2.297 . S
O326 C328 1.247 . S
O327 Cd323 2.439 . S
O327 C328 1.208 . S
C328 O326 1.247 . S
C328 O327 1.208 . S
C329 O334 1.247 . S
C329 O335 1.208 . S
C330 O322 1.315 . S
C330 O325 1.279 . S
C331 O332 1.315 . S
C331 O333 1.279 . S
O332 Cd324 2.223 . S
O332 C331 1.315 . S
O333 Cd323 2.240 . S
O333 C331 1.279 . S
O334 Cd324 2.297 . S
O334 C329 1.247 . S
O335 Cd324 2.439 . S
O335 C329 1.208 . S
H336 C344 0.950 . S
H337 C349 0.950 . S
H338 C346 0.950 . S
H339 C348 0.950 . S
H340 C350 0.950 . S
H341 C352 0.950 . S
H342 C354 0.950 . S
H343 C355 0.950 . S
C344 H336 0.950 . S
C344 C345 1.386 . S
C344 C346 1.391 . S
C345 C344 1.386 . S
C345 C349 1.393 . S
C346 H338 0.950 . S
C346 C344 1.391 . S
C346 C347 1.400 . S
C347 C346 1.400 . S
C347 C348 1.398 . S
C347 C353 1.491 . S
C348 H339 0.950 . S
C348 C347 1.398 . S
C348 C349 1.391 . S
C349 H337 0.950 . S
C349 C345 1.393 . S
C349 C348 1.391 . S
C350 H340 0.950 . S
C350 C351 1.386 . S
C350 C352 1.391 . S
C351 C350 1.386 . S
C351 C355 1.393 . S
C352 H341 0.950 . S
C352 C350 1.391 . S
C352 C353 1.400 . S
C353 C347 1.491 . S
C353 C352 1.400 . S
C353 C354 1.398 . S
C354 H342 0.950 . S
C354 C353 1.398 . S
C354 C355 1.391 . S
C355 H343 0.950 . S
C355 C351 1.393 . S
C355 C354 1.391 . S
H356 C364 0.950 . S
H357 C369 0.950 . S
H358 C366 0.950 . S
H359 C368 0.950 . S
H360 C370 0.950 . S
H361 C372 0.950 . S
H362 C374 0.950 . S
H363 C375 0.950 . S
C364 H356 0.950 . S
C364 C365 1.386 . S
C364 C366 1.391 . S
C365 C364 1.386 . S
C365 C369 1.393 1_455 S
C366 H358 0.950 . S
C366 C364 1.391 . S
C366 C367 1.400 . S
C367 C366 1.400 . S
C367 C368 1.398 . S
C367 C373 1.491 . S
C368 H359 0.950 . S
C368 C367 1.398 . S
C368 C369 1.391 1_455 S
C369 H357 0.950 . S
C369 C365 1.393 1_655 S
C369 C368 1.391 1_655 S
C370 H360 0.950 . S
C370 C371 1.386 . S
C370 C372 1.391 . S
C371 C370 1.386 . S
C371 C375 1.393 . S
C372 H361 0.950 . S
C372 C370 1.391 . S
C372 C373 1.400 . S
C373 C367 1.491 . S
C373 C372 1.400 . S
C373 C374 1.398 . S
C374 H362 0.950 . S
C374 C373 1.398 . S
C374 C375 1.391 . S
C375 H363 0.950 . S
C375 C371 1.393 . S
C375 C374 1.391 . S
H376 C384 0.950 . S
H377 C389 0.950 . S
H378 C386 0.950 . S
H379 C388 0.950 . S
H380 C390 0.950 . S
H381 C392 0.950 . S
H382 C394 0.950 . S
H383 C395 0.950 . S
C384 H376 0.950 . S
C384 C385 1.386 . S
C384 C386 1.391 . S
C385 C384 1.386 . S
C385 C389 1.393 . S
C386 H378 0.950 . S
C386 C384 1.391 . S
C386 C387 1.400 . S
C387 C386 1.400 . S
C387 C388 1.398 . S
C387 C393 1.491 . S
C388 H379 0.950 . S
C388 C387 1.398 . S
C388 C389 1.391 . S
C389 H377 0.950 . S
C389 C385 1.393 . S
C389 C388 1.391 . S
C390 H380 0.950 . S
C390 C391 1.386 . S
C390 C392 1.391 . S
C391 C390 1.386 . S
C391 C395 1.393 1_556 S
C392 H381 0.950 . S
C392 C390 1.391 . S
C392 C393 1.400 . S
C393 C387 1.491 . S
C393 C392 1.400 . S
C393 C394 1.398 . S
C394 H382 0.950 . S
C394 C393 1.398 . S
C394 C395 1.391 1_556 S
C395 H383 0.950 . S
C395 C391 1.393 1_554 S
C395 C394 1.391 1_554 S
H396 C404 0.950 . S
H397 C409 0.950 . S
H398 C406 0.950 . S
H399 C408 0.950 . S
H400 C410 0.950 . S
H401 C412 0.950 . S
H402 C414 0.950 . S
H403 C415 0.950 . S
C404 H396 0.950 . S
C404 C405 1.386 . S
C404 C406 1.391 . S
C405 C404 1.386 . S
C405 C409 1.393 . S
C406 H398 0.950 . S
C406 C404 1.391 . S
C406 C407 1.400 . S
C407 C406 1.400 . S
C407 C408 1.398 . S
C407 C413 1.491 . S
C408 H399 0.950 . S
C408 C407 1.398 . S
C408 C409 1.391 . S
C409 H397 0.950 . S
C409 C405 1.393 . S
C409 C408 1.391 . S
C410 H400 0.950 . S
C410 C411 1.386 . S
C410 C412 1.391 . S
C411 C410 1.386 . S
C411 C415 1.393 . S
C412 H401 0.950 . S
C412 C410 1.391 . S
C412 C413 1.400 . S
C413 C407 1.491 . S
C413 C412 1.400 . S
C413 C414 1.398 . S
C414 H402 0.950 . S
C414 C413 1.398 . S
C414 C415 1.391 . S
C415 H403 0.950 . S
C415 C411 1.393 . S
C415 C414 1.391 . S
H416 C424 0.950 . S
H417 C429 0.950 . S
H418 C426 0.950 . S
H419 C428 0.950 . S
H420 C430 0.950 . S
H421 C432 0.950 . S
H422 C434 0.950 . S
H423 C435 0.950 . S
C424 H416 0.950 . S
C424 C425 1.386 . S
C424 C426 1.391 . S
C425 C424 1.386 . S
C425 C429 1.393 . S
C426 H418 0.950 . S
C426 C424 1.391 . S
C426 C427 1.400 . S
C427 C426 1.400 . S
C427 C428 1.398 . S
C427 C433 1.491 . S
C428 H419 0.950 . S
C428 C427 1.398 . S
C428 C429 1.391 . S
C429 H417 0.950 . S
C429 C425 1.393 . S
C429 C428 1.391 . S
C430 H420 0.950 . S
C430 C431 1.386 . S
C430 C432 1.391 . S
C431 C430 1.386 . S
C431 C435 1.393 . S
C432 H421 0.950 . S
C432 C430 1.391 . S
C432 C433 1.400 . S
C433 C427 1.491 . S
C433 C432 1.400 . S
C433 C434 1.398 . S
C434 H422 0.950 . S
C434 C433 1.398 . S
C434 C435 1.391 . S
C435 H423 0.950 . S
C435 C431 1.393 . S
C435 C434 1.391 . S
H436 C444 0.950 . S
H437 C449 0.950 . S
H438 C446 0.950 . S
H439 C448 0.950 . S
H440 C450 0.950 . S
H441 C452 0.950 . S
H442 C454 0.950 . S
H443 C455 0.950 . S
C444 H436 0.950 . S
C444 C445 1.386 . S
C444 C446 1.391 . S
C445 C444 1.386 . S
C445 C449 1.393 . S
C446 H438 0.950 . S
C446 C444 1.391 . S
C446 C447 1.400 . S
C447 C446 1.400 . S
C447 C448 1.398 . S
C447 C453 1.491 . S
C448 H439 0.950 . S
C448 C447 1.398 . S
C448 C449 1.391 . S
C449 H437 0.950 . S
C449 C445 1.393 . S
C449 C448 1.391 . S
C450 H440 0.950 . S
C450 C451 1.386 . S
C450 C452 1.391 . S
C451 C450 1.386 . S
C451 C455 1.393 1_655 S
C452 H441 0.950 . S
C452 C450 1.391 . S
C452 C453 1.400 . S
C453 C447 1.491 . S
C453 C452 1.400 . S
C453 C454 1.398 . S
C454 H442 0.950 . S
C454 C453 1.398 . S
C454 C455 1.391 1_655 S
C455 H443 0.950 . S
C455 C451 1.393 1_455 S
C455 C454 1.391 1_455 S
H456 C464 0.950 . S
H457 C469 0.950 . S
H458 C466 0.950 . S
H459 C468 0.950 . S
H460 C470 0.950 . S
H461 C472 0.950 . S
H462 C474 0.950 . S
H463 C475 0.950 . S
C464 H456 0.950 . S
C464 C465 1.386 . S
C464 C466 1.391 . S
C465 C464 1.386 . S
C465 C469 1.393 . S
C466 H458 0.950 . S
C466 C464 1.391 . S
C466 C467 1.400 . S
C467 C466 1.400 . S
C467 C468 1.398 . S
C467 C473 1.491 . S
C468 H459 0.950 . S
C468 C467 1.398 . S
C468 C469 1.391 . S
C469 H457 0.950 . S
C469 C465 1.393 . S
C469 C468 1.391 . S
C470 H460 0.950 . S
C470 C471 1.386 1_556 S
C470 C472 1.391 1_556 S
C471 C470 1.386 1_554 S
C471 C475 1.393 . S
C472 H461 0.950 . S
C472 C470 1.391 1_554 S
C472 C473 1.400 . S
C473 C467 1.491 . S
C473 C472 1.400 . S
C473 C474 1.398 . S
C474 H462 0.950 . S
C474 C473 1.398 . S
C474 C475 1.391 . S
C475 H463 0.950 . S
C475 C471 1.393 . S
C475 C474 1.391 . S
H476 C484 0.950 . S
H477 C489 0.950 . S
H478 C486 0.950 . S
H479 C488 0.950 . S
H480 C490 0.950 . S
H481 C492 0.950 . S
H482 C494 0.950 . S
H483 C495 0.950 . S
C484 H476 0.950 . S
C484 C485 1.386 . S
C484 C486 1.391 . S
C485 C484 1.386 . S
C485 C489 1.393 . S
C486 H478 0.950 . S
C486 C484 1.391 . S
C486 C487 1.400 . S
C487 C486 1.400 . S
C487 C488 1.398 . S
C487 C493 1.491 . S
C488 H479 0.950 . S
C488 C487 1.398 . S
C488 C489 1.391 . S
C489 H477 0.950 . S
C489 C485 1.393 . S
C489 C488 1.391 . S
C490 H480 0.950 . S
C490 C491 1.386 . S
C490 C492 1.391 . S
C491 C490 1.386 . S
C491 C495 1.393 . S
C492 H481 0.950 . S
C492 C490 1.391 . S
C492 C493 1.400 . S
C493 C487 1.491 . S
C493 C492 1.400 . S
C493 C494 1.398 . S
C494 H482 0.950 . S
C494 C493 1.398 . S
C494 C495 1.391 . S
C495 H483 0.950 . S
C495 C491 1.393 . S
C495 C494 1.391 . S
H496 C504 0.950 . S
H497 C509 0.950 . S
H498 C506 0.950 . S
H499 C508 0.950 . S
H500 C510 0.950 . S
H501 C512 0.950 . S
H502 C514 0.950 . S
H503 C515 0.950 . S
C504 H496 0.950 . S
C504 C505 1.386 . S
C504 C506 1.391 . S
C505 C504 1.386 . S
C505 C509 1.393 . S
C506 H498 0.950 . S
C506 C504 1.391 . S
C506 C507 1.400 . S
C507 C506 1.400 . S
C507 C508 1.398 . S
C507 C513 1.491 . S
C508 H499 0.950 . S
C508 C507 1.398 . S
C508 C509 1.391 . S
C509 H497 0.950 . S
C509 C505 1.393 . S
C509 C508 1.391 . S
C510 H500 0.950 . S
C510 C511 1.386 . S
C510 C512 1.391 . S
C511 C510 1.386 . S
C511 C515 1.393 . S
C512 H501 0.950 . S
C512 C510 1.391 . S
C512 C513 1.400 . S
C513 C507 1.491 . S
C513 C512 1.400 . S
C513 C514 1.398 . S
C514 H502 0.950 . S
C514 C513 1.398 . S
C514 C515 1.391 . S
C515 H503 0.950 . S
C515 C511 1.393 . S
C515 C514 1.391 . S
H516 C524 0.950 . S
H517 C529 0.950 . S
H518 C526 0.950 . S
H519 C528 0.950 . S
H520 C530 0.950 . S
H521 C532 0.950 . S
H522 C534 0.950 . S
H523 C535 0.950 . S
C524 H516 0.950 . S
C524 C525 1.386 . S
C524 C526 1.391 . S
C525 C524 1.386 . S
C525 C529 1.393 . S
C526 H518 0.950 . S
C526 C524 1.391 . S
C526 C527 1.400 . S
C527 C526 1.400 . S
C527 C528 1.398 . S
C527 C533 1.491 . S
C528 H519 0.950 . S
C528 C527 1.398 . S
C528 C529 1.391 . S
C529 H517 0.950 . S
C529 C525 1.393 . S
C529 C528 1.391 . S
C530 H520 0.950 . S
C530 C531 1.386 . S
C530 C532 1.391 . S
C531 C530 1.386 . S
C531 C535 1.393 . S
C532 H521 0.950 . S
C532 C530 1.391 . S
C532 C533 1.400 . S
C533 C527 1.491 . S
C533 C532 1.400 . S
C533 C534 1.398 . S
C534 H522 0.950 . S
C534 C533 1.398 . S
C534 C535 1.391 . S
C535 H523 0.950 . S
C535 C531 1.393 . S
C535 C534 1.391 . S
H536 C544 0.950 . S
H537 C549 0.950 . S
H538 C546 0.950 . S
H539 C548 0.950 . S
H540 C550 0.950 . S
H541 C552 0.950 . S
H542 C554 0.950 . S
H543 C555 0.950 . S
C544 H536 0.950 . S
C544 C545 1.386 . S
C544 C546 1.391 . S
C545 C544 1.386 . S
C545 C549 1.393 . S
C546 H538 0.950 . S
C546 C544 1.391 . S
C546 C547 1.400 . S
C547 C546 1.400 . S
C547 C548 1.398 . S
C547 C553 1.491 . S
C548 H539 0.950 . S
C548 C547 1.398 . S
C548 C549 1.391 . S
C549 H537 0.950 . S
C549 C545 1.393 . S
C549 C548 1.391 . S
C550 H540 0.950 . S
C550 C551 1.386 . S
C550 C552 1.391 . S
C551 C550 1.386 . S
C551 C555 1.393 . S
C552 H541 0.950 . S
C552 C550 1.391 . S
C552 C553 1.400 . S
C553 C547 1.491 . S
C553 C552 1.400 . S
C553 C554 1.398 . S
C554 H542 0.950 . S
C554 C553 1.398 . S
C554 C555 1.391 . S
C555 H543 0.950 . S
C555 C551 1.393 . S
C555 C554 1.391 . S
H556 C564 0.950 . S
H557 C569 0.950 . S
H558 C566 0.950 . S
H559 C568 0.950 . S
H560 C570 0.950 . S
H561 C572 0.950 . S
H562 C574 0.950 . S
H563 C575 0.950 . S
C564 H556 0.950 . S
C564 C565 1.386 . S
C564 C566 1.391 . S
C565 C564 1.386 . S
C565 C569 1.393 . S
C566 H558 0.950 . S
C566 C564 1.391 . S
C566 C567 1.400 . S
C567 C566 1.400 . S
C567 C568 1.398 . S
C567 C573 1.491 . S
C568 H559 0.950 . S
C568 C567 1.398 . S
C568 C569 1.391 . S
C569 H557 0.950 . S
C569 C565 1.393 . S
C569 C568 1.391 . S
C570 H560 0.950 . S
C570 C571 1.386 . S
C570 C572 1.391 . S
C571 C570 1.386 . S
C571 C575 1.393 . S
C572 H561 0.950 . S
C572 C570 1.391 . S
C572 C573 1.400 . S
C573 C567 1.491 . S
C573 C572 1.400 . S
C573 C574 1.398 . S
C574 H562 0.950 . S
C574 C573 1.398 . S
C574 C575 1.391 . S
C575 H563 0.950 . S
C575 C571 1.393 . S
C575 C574 1.391 . S
H576 C584 0.950 . S
H577 C589 0.950 . S
H578 C586 0.950 . S
H579 C588 0.950 . S
H580 C590 0.950 . S
H581 C592 0.950 . S
H582 C594 0.950 . S
H583 C595 0.950 . S
C584 H576 0.950 . S
C584 C585 1.386 . S
C584 C586 1.391 . S
C585 C584 1.386 . S
C585 C589 1.393 . S
C586 H578 0.950 . S
C586 C584 1.391 . S
C586 C587 1.400 . S
C587 C586 1.400 . S
C587 C588 1.398 . S
C587 C593 1.491 . S
C588 H579 0.950 . S
C588 C587 1.398 . S
C588 C589 1.391 . S
C589 H577 0.950 . S
C589 C585 1.393 . S
C589 C588 1.391 . S
C590 H580 0.950 . S
C590 C591 1.386 . S
C590 C592 1.391 . S
C591 C590 1.386 . S
C591 C595 1.393 . S
C592 H581 0.950 . S
C592 C590 1.391 . S
C592 C593 1.400 . S
C593 C587 1.491 . S
C593 C592 1.400 . S
C593 C594 1.398 . S
C594 H582 0.950 . S
C594 C593 1.398 . S
C594 C595 1.391 . S
C595 H583 0.950 . S
C595 C591 1.393 . S
C595 C594 1.391 . S
H596 C604 0.950 . S
H597 C609 0.951 . S
H598 C606 0.950 . S
H599 C608 0.950 . S
H600 C610 0.950 . S
H601 C612 0.950 . S
H602 C614 0.950 . S
H603 C615 0.950 . S
C604 H596 0.950 . S
C604 C605 1.386 . S
C604 C606 1.391 . S
C605 C604 1.386 . S
C605 C609 1.393 . S
C606 H598 0.950 . S
C606 C604 1.391 . S
C606 C607 1.400 1_565 S
C607 C606 1.400 1_545 S
C607 C608 1.398 . S
C607 C613 1.491 . S
C608 H599 0.950 . S
C608 C607 1.398 . S
C608 C609 1.391 1_545 S
C609 H597 0.951 . S
C609 C605 1.393 . S
C609 C608 1.391 1_565 S
C610 H600 0.950 . S
C610 C611 1.386 . S
C610 C612 1.391 . S
C611 C610 1.386 . S
C611 C615 1.393 . S
C612 H601 0.950 . S
C612 C610 1.391 . S
C612 C613 1.400 . S
C613 C607 1.491 . S
C613 C612 1.400 . S
C613 C614 1.398 . S
C614 H602 0.950 . S
C614 C613 1.398 . S
C614 C615 1.391 . S
C615 H603 0.950 . S
C615 C611 1.393 . S
C615 C614 1.391 . S
H616 C624 0.950 . S
H617 C629 0.950 . S
H618 C626 0.950 . S
H619 C628 0.950 . S
H620 C630 0.950 . S
H621 C632 0.950 . S
H622 C634 0.950 . S
H623 C635 0.947 1_556 S
C624 H616 0.950 . S
C624 C625 1.386 . S
C624 C626 1.391 . S
C625 C624 1.386 . S
C625 C629 1.393 . S
C626 H618 0.950 . S
C626 C624 1.391 . S
C626 C627 1.400 . S
C627 C626 1.400 . S
C627 C628 1.398 . S
C627 C633 1.491 . S
C628 H619 0.950 . S
C628 C627 1.398 . S
C628 C629 1.391 . S
C629 H617 0.950 . S
C629 C625 1.393 . S
C629 C628 1.391 . S
C630 H620 0.950 . S
C630 C631 1.386 . S
C630 C632 1.391 . S
C631 C630 1.386 . S
C631 C635 1.393 . S
C632 H621 0.950 . S
C632 C630 1.391 . S
C632 C633 1.400 1_554 S
C633 C627 1.491 . S
C633 C632 1.400 1_556 S
C633 C634 1.398 . S
C634 H622 0.950 . S
C634 C633 1.398 . S
C634 C635 1.391 1_556 S
C635 H623 0.947 1_554 S
C635 C631 1.393 . S
C635 C634 1.391 1_554 S
H636 C644 0.950 . S
H637 C649 0.950 . S
H638 C646 0.950 . S
H639 C648 0.950 . S
H640 C650 0.950 . S
H641 C652 0.950 . S
H642 C654 0.950 . S
H643 C655 0.950 . S
C644 H636 0.950 . S
C644 C645 1.386 . S
C644 C646 1.391 . S
C645 C644 1.386 . S
C645 C649 1.393 1_545 S
C646 H638 0.950 . S
C646 C644 1.391 . S
C646 C647 1.400 1_545 S
C647 C646 1.400 1_565 S
C647 C648 1.398 . S
C647 C653 1.491 . S
C648 H639 0.950 . S
C648 C647 1.398 . S
C648 C649 1.391 . S
C649 H637 0.950 . S
C649 C645 1.393 1_565 S
C649 C648 1.391 . S
C650 H640 0.950 . S
C650 C651 1.386 . S
C650 C652 1.391 . S
C651 C650 1.386 . S
C651 C655 1.393 . S
C652 H641 0.950 . S
C652 C650 1.391 . S
C652 C653 1.400 . S
C653 C647 1.491 . S
C653 C652 1.400 . S
C653 C654 1.398 . S
C654 H642 0.950 . S
C654 C653 1.398 . S
C654 C655 1.391 . S
C655 H643 0.950 . S
C655 C651 1.393 . S
C655 C654 1.391 . S
H656 C664 0.950 . S
H657 C669 0.950 . S
H658 C666 0.950 . S
H659 C668 0.950 . S
H660 C670 0.950 . S
H661 C672 0.950 . S
H662 C674 0.950 . S
H663 C675 0.950 . S
C664 H656 0.950 . S
C664 C665 1.386 . S
C664 C666 1.391 . S
C665 C664 1.386 . S
C665 C669 1.393 . S
C666 H658 0.950 . S
C666 C664 1.391 . S
C666 C667 1.400 . S
C667 C666 1.400 . S
C667 C668 1.398 . S
C667 C673 1.491 . S
C668 H659 0.950 . S
C668 C667 1.398 . S
C668 C669 1.391 . S
C669 H657 0.950 . S
C669 C665 1.393 . S
C669 C668 1.391 . S
C670 H660 0.950 . S
C670 C671 1.386 . S
C670 C672 1.391 . S
C671 C670 1.386 . S
C671 C675 1.393 . S
C672 H661 0.950 . S
C672 C670 1.391 . S
C672 C673 1.400 . S
C673 C667 1.491 . S
C673 C672 1.400 . S
C673 C674 1.398 . S
C674 H662 0.950 . S
C674 C673 1.398 . S
C674 C675 1.391 . S
C675 H663 0.950 . S
C675 C671 1.393 . S
C675 C674 1.391 . S
H676 C684 0.950 . S
H677 C689 0.950 . S
H678 C686 0.950 . S
H679 C688 0.950 . S
H680 C690 0.950 . S
H681 C692 0.950 . S
H682 C694 0.950 . S
H683 C695 0.950 . S
C684 H676 0.950 . S
C684 C685 1.386 . S
C684 C686 1.391 . S
C685 C684 1.386 . S
C685 C689 1.393 . S
C686 H678 0.950 . S
C686 C684 1.391 . S
C686 C687 1.400 . S
C687 C686 1.400 . S
C687 C688 1.398 . S
C687 C693 1.491 . S
C688 H679 0.950 . S
C688 C687 1.398 . S
C688 C689 1.391 . S
C689 H677 0.950 . S
C689 C685 1.393 . S
C689 C688 1.391 . S
C690 H680 0.950 . S
C690 C691 1.386 . S
C690 C692 1.391 . S
C691 C690 1.386 . S
C691 C695 1.393 . S
C692 H681 0.950 . S
C692 C690 1.391 . S
C692 C693 1.400 . S
C693 C687 1.491 . S
C693 C692 1.400 . S
C693 C694 1.398 . S
C694 H682 0.950 . S
C694 C693 1.398 . S
C694 C695 1.391 . S
C695 H683 0.950 . S
C695 C691 1.393 . S
C695 C694 1.391 . S
H696 C704 0.950 . S
H697 C709 0.950 . S
H698 C706 0.950 . S
H699 C708 0.950 . S
H700 C710 0.950 . S
H701 C712 0.950 . S
H702 C714 0.950 . S
H703 C715 0.950 . S
C704 H696 0.950 . S
C704 C705 1.386 1_554 S
C704 C706 1.391 . S
C705 C704 1.386 1_556 S
C705 C709 1.393 . S
C706 H698 0.950 . S
C706 C704 1.391 . S
C706 C707 1.400 . S
C707 C706 1.400 . S
C707 C708 1.398 1_554 S
C707 C713 1.491 . S
C708 H699 0.950 . S
C708 C707 1.398 1_556 S
C708 C709 1.391 . S
C709 H697 0.950 . S
C709 C705 1.393 . S
C709 C708 1.391 . S
C710 H700 0.950 . S
C710 C711 1.386 . S
C710 C712 1.391 . S
C711 C710 1.386 . S
C711 C715 1.393 . S
C712 H701 0.950 . S
C712 C710 1.391 . S
C712 C713 1.400 . S
C713 C707 1.491 . S
C713 C712 1.400 . S
C713 C714 1.398 . S
C714 H702 0.950 . S
C714 C713 1.398 . S
C714 C715 1.391 . S
C715 H703 0.950 . S
C715 C711 1.393 . S
C715 C714 1.391 . S
H716 C724 0.950 . S
H717 C729 0.950 . S
H718 C726 0.950 . S
H719 C728 0.950 . S
H720 C730 0.950 . S
H721 C732 0.950 . S
H722 C734 0.950 . S
H723 C735 0.950 . S
C724 H716 0.950 . S
C724 C725 1.386 . S
C724 C726 1.391 . S
C725 C724 1.386 . S
C725 C729 1.393 . S
C726 H718 0.950 . S
C726 C724 1.391 . S
C726 C727 1.400 . S
C727 C726 1.400 . S
C727 C728 1.398 . S
C727 C733 1.491 . S
C728 H719 0.950 . S
C728 C727 1.398 . S
C728 C729 1.391 . S
C729 H717 0.950 . S
C729 C725 1.393 . S
C729 C728 1.391 . S
C730 H720 0.950 . S
C730 C731 1.386 . S
C730 C732 1.391 . S
C731 C730 1.386 . S
C731 C735 1.393 . S
C732 H721 0.950 . S
C732 C730 1.391 . S
C732 C733 1.400 . S
C733 C727 1.491 . S
C733 C732 1.400 . S
C733 C734 1.398 . S
C734 H722 0.950 . S
C734 C733 1.398 . S
C734 C735 1.391 . S
C735 H723 0.950 . S
C735 C731 1.393 . S
C735 C734 1.391 . S
H736 C744 0.950 . S
H737 C749 0.950 . S
H738 C746 0.950 . S
H739 C748 0.950 . S
H740 C750 0.950 . S
H741 C752 0.950 . S
H742 C754 0.950 . S
H743 C755 0.950 . S
C744 H736 0.950 . S
C744 C745 1.386 . S
C744 C746 1.391 . S
C745 C744 1.386 . S
C745 C749 1.393 . S
C746 H738 0.950 . S
C746 C744 1.391 . S
C746 C747 1.400 . S
C747 C746 1.400 . S
C747 C748 1.398 . S
C747 C753 1.491 . S
C748 H739 0.950 . S
C748 C747 1.398 . S
C748 C749 1.391 . S
C749 H737 0.950 . S
C749 C745 1.393 . S
C749 C748 1.391 . S
C750 H740 0.950 . S
C750 C751 1.386 . S
C750 C752 1.391 . S
C751 C750 1.386 . S
C751 C755 1.393 . S
C752 H741 0.950 . S
C752 C750 1.391 . S
C752 C753 1.400 . S
C753 C747 1.491 . S
C753 C752 1.400 . S
C753 C754 1.398 . S
C754 H742 0.950 . S
C754 C753 1.398 . S
C754 C755 1.391 . S
C755 H743 0.950 . S
C755 C751 1.393 . S
C755 C754 1.391 . S
H756 C764 0.949 1_655 S
H757 C769 0.950 . S
H758 C766 0.950 . S
H759 C768 0.950 . S
H760 C770 0.950 . S
H761 C772 0.950 . S
H762 C774 0.950 . S
H763 C775 0.950 . S
C764 H756 0.949 1_455 S
C764 C765 1.386 . S
C764 C766 1.391 1_455 S
C765 C764 1.386 . S
C765 C769 1.393 . S
C766 H758 0.950 . S
C766 C764 1.391 1_655 S
C766 C767 1.400 . S
C767 C766 1.400 . S
C767 C768 1.398 1_655 S
C767 C773 1.491 . S
C768 H759 0.950 . S
C768 C767 1.398 1_455 S
C768 C769 1.391 . S
C769 H757 0.950 . S
C769 C765 1.393 . S
C769 C768 1.391 . S
C770 H760 0.950 . S
C770 C771 1.386 . S
C770 C772 1.391 . S
C771 C770 1.386 . S
C771 C775 1.393 . S
C772 H761 0.950 . S
C772 C770 1.391 . S
C772 C773 1.400 . S
C773 C767 1.491 . S
C773 C772 1.400 . S
C773 C774 1.398 . S
C774 H762 0.950 . S
C774 C773 1.398 . S
C774 C775 1.391 . S
C775 H763 0.950 . S
C775 C771 1.393 . S
C775 C774 1.391 . S
H776 C784 0.950 . S
H777 C789 0.950 . S
H778 C786 0.950 . S
H779 C788 0.950 . S
H780 C790 0.950 . S
H781 C792 0.950 . S
H782 C794 0.950 . S
H783 C795 0.950 . S
C784 H776 0.950 . S
C784 C785 1.386 . S
C784 C786 1.391 1_655 S
C785 C784 1.386 . S
C785 C789 1.393 . S
C786 H778 0.950 . S
C786 C784 1.391 1_455 S
C786 C787 1.400 . S
C787 C786 1.400 . S
C787 C788 1.398 1_455 S
C787 C793 1.491 . S
C788 H779 0.950 . S
C788 C787 1.398 1_655 S
C788 C789 1.391 . S
C789 H777 0.950 . S
C789 C785 1.393 . S
C789 C788 1.391 . S
C790 H780 0.950 . S
C790 C791 1.386 . S
C790 C792 1.391 . S
C791 C790 1.386 . S
C791 C795 1.393 . S
C792 H781 0.950 . S
C792 C790 1.391 . S
C792 C793 1.400 . S
C793 C787 1.491 . S
C793 C792 1.400 . S
C793 C794 1.398 . S
C794 H782 0.950 . S
C794 C793 1.398 . S
C794 C795 1.391 . S
C795 H783 0.950 . S
C795 C791 1.393 . S
C795 C794 1.391 . S
H796 C804 0.950 . S
H797 C809 0.950 . S
H798 C806 0.950 . S
H799 C808 0.950 . S
H800 C810 0.950 . S
H801 C812 0.950 . S
H802 C814 0.950 . S
H803 C815 0.950 . S
C804 H796 0.950 . S
C804 C805 1.386 . S
C804 C806 1.391 . S
C805 C804 1.386 . S
C805 C809 1.393 . S
C806 H798 0.950 . S
C806 C804 1.391 . S
C806 C807 1.400 . S
C807 C806 1.400 . S
C807 C808 1.398 . S
C807 C813 1.491 . S
C808 H799 0.950 . S
C808 C807 1.398 . S
C808 C809 1.391 . S
C809 H797 0.950 . S
C809 C805 1.393 . S
C809 C808 1.391 . S
C810 H800 0.950 . S
C810 C811 1.386 . S
C810 C812 1.391 . S
C811 C810 1.386 . S
C811 C815 1.393 . S
C812 H801 0.950 . S
C812 C810 1.391 . S
C812 C813 1.400 . S
C813 C807 1.491 . S
C813 C812 1.400 . S
C813 C814 1.398 . S
C814 H802 0.950 . S
C814 C813 1.398 . S
C814 C815 1.391 . S
C815 H803 0.950 . S
C815 C811 1.393 . S
C815 C814 1.391 . S
H816 C824 0.950 . S
H817 C829 0.950 . S
H818 C826 0.950 . S
H819 C828 0.950 . S
H820 C830 0.950 . S
H821 C832 0.950 . S
H822 C834 0.950 . S
H823 C835 0.950 . S
C824 H816 0.950 . S
C824 C825 1.386 . S
C824 C826 1.391 . S
C825 C824 1.386 . S
C825 C829 1.393 . S
C826 H818 0.950 . S
C826 C824 1.391 . S
C826 C827 1.400 . S
C827 C826 1.400 . S
C827 C828 1.398 . S
C827 C833 1.491 . S
C828 H819 0.950 . S
C828 C827 1.398 . S
C828 C829 1.391 . S
C829 H817 0.950 . S
C829 C825 1.393 . S
C829 C828 1.391 . S
C830 H820 0.950 . S
C830 C831 1.386 . S
C830 C832 1.391 . S
C831 C830 1.386 . S
C831 C835 1.393 . S
C832 H821 0.950 . S
C832 C830 1.391 . S
C832 C833 1.400 . S
C833 C827 1.491 . S
C833 C832 1.400 . S
C833 C834 1.398 . S
C834 H822 0.950 . S
C834 C833 1.398 . S
C834 C835 1.391 . S
C835 H823 0.950 . S
C835 C831 1.393 . S
C835 C834 1.391 . S
H836 C844 0.950 . S
H837 C849 0.950 . S
H838 C846 0.947 1_545 S
H839 C848 0.950 . S
H840 C850 0.950 . S
H841 C852 0.950 . S
H842 C854 0.950 . S
H843 C855 0.950 . S
C844 H836 0.950 . S
C844 C845 1.386 . S
C844 C846 1.388 1_545 S
C845 C844 1.386 . S
C845 C849 1.393 1_545 S
C846 H838 0.947 1_565 S
C846 C844 1.388 1_565 S
C846 C847 1.407 . S
C847 C846 1.407 . S
C847 C848 1.398 . S
C847 C853 1.491 . S
C848 H839 0.950 . S
C848 C847 1.398 . S
C848 C849 1.391 . S
C849 H837 0.950 . S
C849 C845 1.393 1_565 S
C849 C848 1.391 . S
C850 H840 0.950 . S
C850 C851 1.386 . S
C850 C852 1.391 . S
C851 C850 1.386 . S
C851 C855 1.393 . S
C852 H841 0.950 . S
C852 C850 1.391 . S
C852 C853 1.400 . S
C853 C847 1.491 . S
C853 C852 1.400 . S
C853 C854 1.398 . S
C854 H842 0.950 . S
C854 C853 1.398 . S
C854 C855 1.391 . S
C855 H843 0.950 . S
C855 C851 1.393 . S
C855 C854 1.391 . S
H856 C864 0.950 . S
H857 C869 0.950 . S
H858 C866 0.950 . S
H859 C868 0.950 . S
H860 C870 0.950 . S
H861 C872 0.950 . S
H862 C874 0.950 . S
H863 C875 0.950 . S
C864 H856 0.950 . S
C864 C865 1.386 . S
C864 C866 1.391 . S
C865 C864 1.386 . S
C865 C869 1.393 . S
C866 H858 0.950 . S
C866 C864 1.391 . S
C866 C867 1.400 . S
C867 C866 1.400 . S
C867 C868 1.398 . S
C867 C873 1.491 . S
C868 H859 0.950 . S
C868 C867 1.398 . S
C868 C869 1.391 . S
C869 H857 0.950 . S
C869 C865 1.393 . S
C869 C868 1.391 . S
C870 H860 0.950 . S
C870 C871 1.386 . S
C870 C872 1.391 . S
C871 C870 1.386 . S
C871 C875 1.393 . S
C872 H861 0.950 . S
C872 C870 1.391 . S
C872 C873 1.400 . S
C873 C867 1.491 . S
C873 C872 1.400 . S
C873 C874 1.398 . S
C874 H862 0.950 . S
C874 C873 1.398 . S
C874 C875 1.391 . S
C875 H863 0.950 . S
C875 C871 1.393 . S
C875 C874 1.391 . S
H876 C884 0.950 . S
H877 C889 0.950 . S
H878 C886 0.950 . S
H879 C888 0.950 . S
H880 C890 0.950 . S
H881 C892 0.950 . S
H882 C894 0.950 . S
H883 C895 0.950 . S
C884 H876 0.950 . S
C884 C885 1.386 . S
C884 C886 1.391 . S
C885 C884 1.386 . S
C885 C889 1.393 . S
C886 H878 0.950 . S
C886 C884 1.391 . S
C886 C887 1.400 . S
C887 C886 1.400 . S
C887 C888 1.398 . S
C887 C893 1.491 . S
C888 H879 0.950 . S
C888 C887 1.398 . S
C888 C889 1.391 . S
C889 H877 0.950 . S
C889 C885 1.393 . S
C889 C888 1.391 . S
C890 H880 0.950 . S
C890 C891 1.386 . S
C890 C892 1.391 1_566 S
C891 C890 1.386 . S
C891 C895 1.393 1_565 S
C892 H881 0.950 . S
C892 C890 1.391 1_544 S
C892 C893 1.400 . S
C893 C887 1.491 . S
C893 C892 1.400 . S
C893 C894 1.398 . S
C894 H882 0.950 . S
C894 C893 1.398 . S
C894 C895 1.391 1_554 S
C895 H883 0.950 . S
C895 C891 1.393 1_545 S
C895 C894 1.391 1_556 S
H896 C904 0.950 . S
H897 C909 0.950 . S
H898 C906 0.950 . S
H899 C908 0.950 . S
H900 C910 0.950 . S
H901 C912 0.950 . S
H902 C914 0.950 . S
H903 C915 0.950 . S
C904 H896 0.950 . S
C904 C905 1.386 . S
C904 C906 1.391 . S
C905 C904 1.386 . S
C905 C909 1.393 . S
C906 H898 0.950 . S
C906 C904 1.391 . S
C906 C907 1.400 . S
C907 C906 1.400 . S
C907 C908 1.398 . S
C907 C913 1.491 . S
C908 H899 0.950 . S
C908 C907 1.398 . S
C908 C909 1.391 . S
C909 H897 0.950 . S
C909 C905 1.393 . S
C909 C908 1.391 . S
C910 H900 0.950 . S
C910 C911 1.386 . S
C910 C912 1.391 . S
C911 C910 1.386 . S
C911 C915 1.393 . S
C912 H901 0.950 . S
C912 C910 1.391 . S
C912 C913 1.400 . S
C913 C907 1.491 . S
C913 C912 1.400 . S
C913 C914 1.398 . S
C914 H902 0.950 . S
C914 C913 1.398 . S
C914 C915 1.391 . S
C915 H903 0.950 . S
C915 C911 1.393 . S
C915 C914 1.391 . S
H916 C924 0.950 . S
H917 C929 0.950 . S
H918 C926 0.950 . S
H919 C928 0.950 . S
H920 C930 0.950 . S
H921 C932 0.950 . S
H922 C934 0.950 . S
H923 C935 0.950 . S
C924 H916 0.950 . S
C924 C925 1.386 . S
C924 C926 1.391 1_554 S
C925 C924 1.386 . S
C925 C929 1.393 . S
C926 H918 0.950 . S
C926 C924 1.391 1_556 S
C926 C927 1.400 . S
C927 C926 1.400 . S
C927 C928 1.398 . S
C927 C933 1.491 . S
C928 H919 0.950 . S
C928 C927 1.398 . S
C928 C929 1.391 1_556 S
C929 H917 0.950 . S
C929 C925 1.393 . S
C929 C928 1.391 1_554 S
C930 H920 0.950 . S
C930 C931 1.386 . S
C930 C932 1.391 . S
C931 C930 1.386 . S
C931 C935 1.393 . S
C932 H921 0.950 . S
C932 C930 1.391 . S
C932 C933 1.400 . S
C933 C927 1.491 . S
C933 C932 1.400 . S
C933 C934 1.398 . S
C934 H922 0.950 . S
C934 C933 1.398 . S
C934 C935 1.391 . S
C935 H923 0.950 . S
C935 C931 1.393 . S
C935 C934 1.391 . S
H936 C944 0.950 . S
H937 C949 0.950 . S
H938 C946 0.950 . S
H939 C948 0.950 . S
H940 C950 0.950 . S
H941 C952 0.950 . S
H942 C954 0.950 . S
H943 C955 0.950 . S
C944 H936 0.950 . S
C944 C945 1.386 . S
C944 C946 1.391 . S
C945 C944 1.386 . S
C945 C949 1.393 . S
C946 H938 0.950 . S
C946 C944 1.391 . S
C946 C947 1.400 . S
C947 C946 1.400 . S
C947 C948 1.398 . S
C947 C953 1.491 . S
C948 H939 0.950 . S
C948 C947 1.398 . S
C948 C949 1.391 . S
C949 H937 0.950 . S
C949 C945 1.393 . S
C949 C948 1.391 . S
C950 H940 0.950 . S
C950 C951 1.386 . S
C950 C952 1.391 . S
C951 C950 1.386 . S
C951 C955 1.393 . S
C952 H941 0.950 . S
C952 C950 1.391 . S
C952 C953 1.400 . S
C953 C947 1.491 . S
C953 C952 1.400 . S
C953 C954 1.398 . S
C954 H942 0.950 . S
C954 C953 1.398 . S
C954 C955 1.391 . S
C955 H943 0.950 . S
C955 C951 1.393 . S
C955 C954 1.391 . S
H956 C964 0.950 . S
H957 C969 0.950 . S
H958 C966 0.950 . S
H959 C968 0.950 . S
H960 C970 0.950 . S
H961 C972 0.950 . S
H962 C974 0.950 . S
H963 C975 0.950 . S
C964 H956 0.950 . S
C964 C965 1.386 . S
C964 C966 1.391 . S
C965 C964 1.386 . S
C965 C969 1.393 . S
C966 H958 0.950 . S
C966 C964 1.391 . S
C966 C967 1.400 . S
C967 C966 1.400 . S
C967 C968 1.398 . S
C967 C973 1.491 . S
C968 H959 0.950 . S
C968 C967 1.398 . S
C968 C969 1.391 . S
C969 H957 0.950 . S
C969 C965 1.393 . S
C969 C968 1.391 . S
C970 H960 0.950 . S
C970 C971 1.386 . S
C970 C972 1.391 . S
C971 C970 1.386 . S
C971 C975 1.393 . S
C972 H961 0.950 . S
C972 C970 1.391 . S
C972 C973 1.400 . S
C973 C967 1.491 . S
C973 C972 1.400 . S
C973 C974 1.398 . S
C974 H962 0.950 . S
C974 C973 1.398 . S
C974 C975 1.391 . S
C975 H963 0.950 . S
C975 C971 1.393 . S
C975 C974 1.391 . S
H976 C984 0.950 . S
H977 C989 0.950 . S
H978 C986 0.950 . S
H979 C988 0.950 . S
H980 C990 0.950 . S
H981 C992 0.950 . S
H982 C994 0.950 . S
H983 C995 0.950 . S
C984 H976 0.950 . S
C984 C985 1.386 . S
C984 C986 1.391 . S
C985 C984 1.386 . S
C985 C989 1.393 . S
C986 H978 0.950 . S
C986 C984 1.391 . S
C986 C987 1.400 . S
C987 C986 1.400 . S
C987 C988 1.398 . S
C987 C993 1.491 . S
C988 H979 0.950 . S
C988 C987 1.398 . S
C988 C989 1.391 . S
C989 H977 0.950 . S
C989 C985 1.393 . S
C989 C988 1.391 . S
C990 H980 0.950 . S
C990 C991 1.386 . S
C990 C992 1.391 . S
C991 C990 1.386 . S
C991 C995 1.393 . S
C992 H981 0.950 . S
C992 C990 1.391 . S
C992 C993 1.400 . S
C993 C987 1.491 . S
C993 C992 1.400 . S
C993 C994 1.398 . S
C994 H982 0.950 . S
C994 C993 1.398 . S
C994 C995 1.391 . S
C995 H983 0.950 . S
C995 C991 1.393 . S
C995 C994 1.391 . S
H996 C1004 0.950 . S
H997 C1009 0.950 . S
H998 C1006 0.950 . S
H999 C1008 0.947 1_655 S
H1000 C1010 0.950 . S
H1001 C1012 0.950 . S
H1002 C1014 0.950 . S
H1003 C1015 0.950 . S
C1004 H996 0.950 . S
C1004 C1005 1.386 1_455 S
C1004 C1006 1.391 1_565 S
C1005 C1004 1.386 1_655 S
C1005 C1009 1.393 . S
C1006 H998 0.950 . S
C1006 C1004 1.391 1_545 S
C1006 C1007 1.400 . S
C1007 C1006 1.400 . S
C1007 C1008 1.405 . S
C1007 C1013 1.491 . S
C1008 H999 0.947 1_455 S
C1008 C1007 1.405 . S
C1008 C1009 1.387 1_445 S
C1009 H997 0.950 . S
C1009 C1005 1.393 . S
C1009 C1008 1.387 1_665 S
C1010 H1000 0.950 . S
C1010 C1011 1.386 . S
C1010 C1012 1.391 . S
C1011 C1010 1.386 . S
C1011 C1015 1.393 . S
C1012 H1001 0.950 . S
C1012 C1010 1.391 . S
C1012 C1013 1.400 . S
C1013 C1007 1.491 . S
C1013 C1012 1.400 . S
C1013 C1014 1.398 . S
C1014 H1002 0.950 . S
C1014 C1013 1.398 . S
C1014 C1015 1.391 . S
C1015 H1003 0.950 . S
C1015 C1011 1.393 . S
C1015 C1014 1.391 . S
H1016 C1024 0.950 . S
H1017 C1029 0.950 . S
H1018 C1026 0.950 . S
H1019 C1028 0.950 . S
H1020 C1030 0.950 . S
H1021 C1032 0.950 . S
H1022 C1034 0.950 . S
H1023 C1035 0.950 . S
C1024 H1016 0.950 . S
C1024 C1025 1.386 . S
C1024 C1026 1.391 . S
C1025 C1024 1.386 . S
C1025 C1029 1.393 . S
C1026 H1018 0.950 . S
C1026 C1024 1.391 . S
C1026 C1027 1.400 . S
C1027 C1026 1.400 . S
C1027 C1028 1.398 . S
C1027 C1033 1.491 . S
C1028 H1019 0.950 . S
C1028 C1027 1.398 . S
C1028 C1029 1.391 . S
C1029 H1017 0.950 . S
C1029 C1025 1.393 . S
C1029 C1028 1.391 . S
C1030 H1020 0.950 . S
C1030 C1031 1.386 . S
C1030 C1032 1.391 . S
C1031 C1030 1.386 . S
C1031 C1035 1.393 . S
C1032 H1021 0.950 . S
C1032 C1030 1.391 . S
C1032 C1033 1.400 . S
C1033 C1027 1.491 . S
C1033 C1032 1.400 . S
C1033 C1034 1.398 . S
C1034 H1022 0.950 . S
C1034 C1033 1.398 . S
C1034 C1035 1.391 . S
C1035 H1023 0.950 . S
C1035 C1031 1.393 . S
C1035 C1034 1.391 . S
H1036 C1044 0.950 . S
H1037 C1049 0.950 . S
H1038 C1046 0.950 . S
H1039 C1048 0.950 . S
H1040 C1050 0.950 . S
H1041 C1052 0.950 . S
H1042 C1054 0.950 . S
H1043 C1055 0.950 . S
C1044 H1036 0.950 . S
C1044 C1045 1.386 . S
C1044 C1046 1.391 1_545 S
C1045 C1044 1.386 . S
C1045 C1049 1.393 . S
C1046 H1038 0.950 . S
C1046 C1044 1.391 1_565 S
C1046 C1047 1.400 . S
C1047 C1046 1.400 . S
C1047 C1048 1.398 . S
C1047 C1053 1.491 . S
C1048 H1039 0.950 . S
C1048 C1047 1.398 . S
C1048 C1049 1.391 1_565 S
C1049 H1037 0.950 . S
C1049 C1045 1.393 . S
C1049 C1048 1.391 1_545 S
C1050 H1040 0.950 . S
C1050 C1051 1.386 . S
C1050 C1052 1.391 . S
C1051 C1050 1.386 . S
C1051 C1055 1.393 . S
C1052 H1041 0.950 . S
C1052 C1050 1.391 . S
C1052 C1053 1.400 . S
C1053 C1047 1.491 . S
C1053 C1052 1.400 . S
C1053 C1054 1.398 . S
C1054 H1042 0.950 . S
C1054 C1053 1.398 . S
C1054 C1055 1.391 . S
C1055 H1043 0.950 . S
C1055 C1051 1.393 . S
C1055 C1054 1.391 . S
H1056 C1064 0.950 . S
H1057 C1069 0.950 . S
H1058 C1066 0.950 . S
H1059 C1068 0.950 . S
H1060 C1070 0.950 . S
H1061 C1072 0.950 . S
H1062 C1074 0.950 . S
H1063 C1075 0.950 . S
C1064 H1056 0.950 . S
C1064 C1065 1.386 . S
C1064 C1066 1.391 . S
C1065 C1064 1.386 . S
C1065 C1069 1.393 . S
C1066 H1058 0.950 . S
C1066 C1064 1.391 . S
C1066 C1067 1.400 . S
C1067 C1066 1.400 . S
C1067 C1068 1.398 . S
C1067 C1073 1.491 . S
C1068 H1059 0.950 . S
C1068 C1067 1.398 . S
C1068 C1069 1.391 . S
C1069 H1057 0.950 . S
C1069 C1065 1.393 . S
C1069 C1068 1.391 . S
C1070 H1060 0.950 . S
C1070 C1071 1.386 . S
C1070 C1072 1.391 . S
C1071 C1070 1.386 . S
C1071 C1075 1.393 . S
C1072 H1061 0.950 . S
C1072 C1070 1.391 . S
C1072 C1073 1.400 . S
C1073 C1067 1.491 . S
C1073 C1072 1.400 . S
C1073 C1074 1.398 . S
C1074 H1062 0.950 . S
C1074 C1073 1.398 . S
C1074 C1075 1.391 . S
C1075 H1063 0.950 . S
C1075 C1071 1.393 . S
C1075 C1074 1.391 . S
H1076 C1084 0.950 . S
H1077 C1089 0.950 . S
H1078 C1086 0.950 . S
H1079 C1088 0.950 . S
H1080 C1090 0.950 . S
H1081 C1092 0.950 . S
H1082 C1094 0.950 . S
H1083 C1095 0.950 . S
C1084 H1076 0.950 . S
C1084 C1085 1.386 1_655 S
C1084 C1086 1.391 . S
C1085 C1084 1.386 1_455 S
C1085 C1089 1.393 . S
C1086 H1078 0.950 . S
C1086 C1084 1.391 . S
C1086 C1087 1.400 . S
C1087 C1086 1.400 . S
C1087 C1088 1.398 . S
C1087 C1093 1.491 . S
C1088 H1079 0.950 . S
C1088 C1087 1.398 . S
C1088 C1089 1.391 1_655 S
C1089 H1077 0.950 . S
C1089 C1085 1.393 . S
C1089 C1088 1.391 1_455 S
C1090 H1080 0.950 . S
C1090 C1091 1.386 . S
C1090 C1092 1.391 . S
C1091 C1090 1.386 . S
C1091 C1095 1.393 . S
C1092 H1081 0.950 . S
C1092 C1090 1.391 . S
C1092 C1093 1.400 . S
C1093 C1087 1.491 . S
C1093 C1092 1.400 . S
C1093 C1094 1.398 . S
C1094 H1082 0.950 . S
C1094 C1093 1.398 . S
C1094 C1095 1.391 . S
C1095 H1083 0.950 . S
C1095 C1091 1.393 . S
C1095 C1094 1.391 . S
H1096 C1104 0.950 . S
H1097 C1109 0.950 . S
H1098 C1106 0.950 . S
H1099 C1108 0.950 . S
H1100 C1110 0.950 . S
H1101 C1112 0.950 . S
H1102 C1114 0.950 . S
H1103 C1115 0.950 . S
C1104 H1096 0.950 . S
C1104 C1105 1.386 . S
C1104 C1106 1.391 . S
C1105 C1104 1.386 . S
C1105 C1109 1.393 . S
C1106 H1098 0.950 . S
C1106 C1104 1.391 . S
C1106 C1107 1.400 . S
C1107 C1106 1.400 . S
C1107 C1108 1.398 . S
C1107 C1113 1.491 . S
C1108 H1099 0.950 . S
C1108 C1107 1.398 . S
C1108 C1109 1.391 . S
C1109 H1097 0.950 . S
C1109 C1105 1.393 . S
C1109 C1108 1.391 . S
C1110 H1100 0.950 . S
C1110 C1111 1.386 . S
C1110 C1112 1.391 . S
C1111 C1110 1.386 . S
C1111 C1115 1.393 . S
C1112 H1101 0.950 . S
C1112 C1110 1.391 . S
C1112 C1113 1.400 . S
C1113 C1107 1.491 . S
C1113 C1112 1.400 . S
C1113 C1114 1.398 . S
C1114 H1102 0.950 . S
C1114 C1113 1.398 . S
C1114 C1115 1.391 . S
C1115 H1103 0.950 . S
C1115 C1111 1.393 . S
C1115 C1114 1.391 . S
H1116 C1124 0.950 . S
H1117 C1129 0.950 . S
H1118 C1126 0.950 . S
H1119 C1128 0.950 . S
H1120 C1130 0.950 . S
H1121 C1132 0.950 . S
H1122 C1134 0.950 . S
H1123 C1135 0.950 . S
C1124 H1116 0.950 . S
C1124 C1125 1.386 . S
C1124 C1126 1.391 . S
C1125 C1124 1.386 . S
C1125 C1129 1.393 . S
C1126 H1118 0.950 . S
C1126 C1124 1.391 . S
C1126 C1127 1.400 . S
C1127 C1126 1.400 . S
C1127 C1128 1.398 . S
C1127 C1133 1.491 . S
C1128 H1119 0.950 . S
C1128 C1127 1.398 . S
C1128 C1129 1.391 . S
C1129 H1117 0.950 . S
C1129 C1125 1.393 . S
C1129 C1128 1.391 . S
C1130 H1120 0.950 . S
C1130 C1131 1.386 . S
C1130 C1132 1.391 . S
C1131 C1130 1.386 . S
C1131 C1135 1.393 . S
C1132 H1121 0.950 . S
C1132 C1130 1.391 . S
C1132 C1133 1.400 . S
C1133 C1127 1.491 . S
C1133 C1132 1.400 . S
C1133 C1134 1.398 . S
C1134 H1122 0.950 . S
C1134 C1133 1.398 . S
C1134 C1135 1.391 . S
C1135 H1123 0.950 . S
C1135 C1131 1.393 . S
C1135 C1134 1.391 . S
H1136 C1144 0.950 . S
H1137 C1149 0.950 . S
H1138 C1146 0.950 . S
H1139 C1148 0.950 . S
H1140 C1150 0.950 . S
H1141 C1152 0.950 . S
H1142 C1154 0.950 . S
H1143 C1155 0.950 . S
C1144 H1136 0.950 . S
C1144 C1145 1.386 . S
C1144 C1146 1.391 . S
C1145 C1144 1.386 . S
C1145 C1149 1.393 . S
C1146 H1138 0.950 . S
C1146 C1144 1.391 . S
C1146 C1147 1.400 . S
C1147 C1146 1.400 . S
C1147 C1148 1.398 . S
C1147 C1153 1.491 . S
C1148 H1139 0.950 . S
C1148 C1147 1.398 . S
C1148 C1149 1.391 . S
C1149 H1137 0.950 . S
C1149 C1145 1.393 . S
C1149 C1148 1.391 . S
C1150 H1140 0.950 . S
C1150 C1151 1.386 . S
C1150 C1152 1.391 . S
C1151 C1150 1.386 . S
C1151 C1155 1.393 . S
C1152 H1141 0.950 . S
C1152 C1150 1.391 . S
C1152 C1153 1.400 . S
C1153 C1147 1.491 . S
C1153 C1152 1.400 . S
C1153 C1154 1.398 . S
C1154 H1142 0.950 . S
C1154 C1153 1.398 . S
C1154 C1155 1.391 . S
C1155 H1143 0.950 . S
C1155 C1151 1.393 . S
C1155 C1154 1.391 . S
H1156 C1164 0.950 . S
H1157 C1169 0.950 . S
H1158 C1166 0.950 . S
H1159 C1168 0.950 . S
H1160 C1170 0.950 . S
H1161 C1172 0.950 . S
H1162 C1174 0.950 . S
H1163 C1175 0.950 . S
C1164 H1156 0.950 . S
C1164 C1165 1.386 . S
C1164 C1166 1.391 . S
C1165 C1164 1.386 . S
C1165 C1169 1.393 . S
C1166 H1158 0.950 . S
C1166 C1164 1.391 . S
C1166 C1167 1.400 . S
C1167 C1166 1.400 . S
C1167 C1168 1.398 . S
C1167 C1173 1.491 . S
C1168 H1159 0.950 . S
C1168 C1167 1.398 . S
C1168 C1169 1.391 . S
C1169 H1157 0.950 . S
C1169 C1165 1.393 . S
C1169 C1168 1.391 . S
C1170 H1160 0.950 . S
C1170 C1171 1.386 . S
C1170 C1172 1.391 . S
C1171 C1170 1.386 . S
C1171 C1175 1.393 . S
C1172 H1161 0.950 . S
C1172 C1170 1.391 . S
C1172 C1173 1.400 . S
C1173 C1167 1.491 . S
C1173 C1172 1.400 . S
C1173 C1174 1.398 . S
C1174 H1162 0.950 . S
C1174 C1173 1.398 . S
C1174 C1175 1.391 . S
C1175 H1163 0.950 . S
C1175 C1171 1.393 . S
C1175 C1174 1.391 . S
H1176 C1184 0.950 . S
H1177 C1189 0.950 . S
H1178 C1186 0.950 . S
H1179 C1188 0.950 . S
H1180 C1190 0.950 . S
H1181 C1192 0.950 1_556 S
H1182 C1194 0.950 . S
H1183 C1195 0.950 . S
C1184 H1176 0.950 . S
C1184 C1185 1.386 1_554 S
C1184 C1186 1.391 1_655 S
C1185 C1184 1.386 1_556 S
C1185 C1189 1.393 . S
C1186 H1178 0.950 . S
C1186 C1184 1.391 1_455 S
C1186 C1187 1.400 . S
C1187 C1186 1.400 . S
C1187 C1188 1.398 1_554 S
C1187 C1193 1.491 . S
C1188 H1179 0.950 . S
C1188 C1187 1.398 1_556 S
C1188 C1189 1.391 1_455 S
C1189 H1177 0.950 . S
C1189 C1185 1.393 . S
C1189 C1188 1.391 1_655 S
C1190 H1180 0.950 . S
C1190 C1191 1.386 . S
C1190 C1192 1.391 . S
C1191 C1190 1.386 . S
C1191 C1195 1.393 . S
C1192 H1181 0.950 1_554 S
C1192 C1190 1.391 . S
C1192 C1193 1.400 . S
C1193 C1187 1.491 . S
C1193 C1192 1.400 . S
C1193 C1194 1.398 . S
C1194 H1182 0.950 . S
C1194 C1193 1.398 . S
C1194 C1195 1.391 . S
C1195 H1183 0.950 . S
C1195 C1191 1.393 . S
C1195 C1194 1.391 . S
H1196 C1204 0.950 . S
H1197 C1209 0.950 . S
H1198 C1206 0.950 . S
H1199 C1208 0.950 . S
H1200 C1210 0.950 . S
H1201 C1212 0.950 . S
H1202 C1214 0.950 . S
H1203 C1215 0.950 . S
C1204 H1196 0.950 . S
C1204 C1205 1.386 . S
C1204 C1206 1.391 . S
C1205 C1204 1.386 . S
C1205 C1209 1.393 . S
C1206 H1198 0.950 . S
C1206 C1204 1.391 . S
C1206 C1207 1.400 . S
C1207 C1206 1.400 . S
C1207 C1208 1.398 . S
C1207 C1213 1.491 . S
C1208 H1199 0.950 . S
C1208 C1207 1.398 . S
C1208 C1209 1.391 . S
C1209 H1197 0.950 . S
C1209 C1205 1.393 . S
C1209 C1208 1.391 . S
C1210 H1200 0.950 . S
C1210 C1211 1.386 . S
C1210 C1212 1.391 . S
C1211 C1210 1.386 . S
C1211 C1215 1.393 . S
C1212 H1201 0.950 . S
C1212 C1210 1.391 . S
C1212 C1213 1.400 . S
C1213 C1207 1.491 . S
C1213 C1212 1.400 . S
C1213 C1214 1.398 . S
C1214 H1202 0.950 . S
C1214 C1213 1.398 . S
C1214 C1215 1.391 . S
C1215 H1203 0.950 . S
C1215 C1211 1.393 . S
C1215 C1214 1.391 . S
H1216 C1224 0.950 . S
H1217 C1229 0.950 . S
H1218 C1226 0.950 . S
H1219 C1228 0.950 . S
H1220 C1230 0.950 . S
H1221 C1232 0.950 . S
H1222 C1234 0.950 . S
H1223 C1235 0.950 . S
C1224 H1216 0.950 . S
C1224 C1225 1.386 . S
C1224 C1226 1.391 . S
C1225 C1224 1.386 . S
C1225 C1229 1.393 . S
C1226 H1218 0.950 . S
C1226 C1224 1.391 . S
C1226 C1227 1.400 . S
C1227 C1226 1.400 . S
C1227 C1228 1.398 . S
C1227 C1233 1.491 . S
C1228 H1219 0.950 . S
C1228 C1227 1.398 . S
C1228 C1229 1.391 . S
C1229 H1217 0.950 . S
C1229 C1225 1.393 . S
C1229 C1228 1.391 . S
C1230 H1220 0.950 . S
C1230 C1231 1.386 . S
C1230 C1232 1.391 . S
C1231 C1230 1.386 . S
C1231 C1235 1.393 . S
C1232 H1221 0.950 . S
C1232 C1230 1.391 . S
C1232 C1233 1.400 . S
C1233 C1227 1.491 . S
C1233 C1232 1.400 . S
C1233 C1234 1.398 . S
C1234 H1222 0.950 . S
C1234 C1233 1.398 . S
C1234 C1235 1.391 . S
C1235 H1223 0.950 . S
C1235 C1231 1.393 . S
C1235 C1234 1.391 . S
H1236 C1244 0.950 . S
H1237 C1249 0.950 . S
H1238 C1246 0.950 . S
H1239 C1248 0.950 . S
H1240 C1250 0.950 . S
H1241 C1252 0.950 . S
H1242 C1254 0.950 . S
H1243 C1255 0.950 . S
C1244 H1236 0.950 . S
C1244 C1245 1.386 . S
C1244 C1246 1.391 . S
C1245 C1244 1.386 . S
C1245 C1249 1.393 . S
C1246 H1238 0.950 . S
C1246 C1244 1.391 . S
C1246 C1247 1.400 . S
C1247 C1246 1.400 . S
C1247 C1248 1.398 . S
C1247 C1253 1.491 . S
C1248 H1239 0.950 . S
C1248 C1247 1.398 . S
C1248 C1249 1.391 . S
C1249 H1237 0.950 . S
C1249 C1245 1.393 . S
C1249 C1248 1.391 . S
C1250 H1240 0.950 . S
C1250 C1251 1.386 . S
C1250 C1252 1.391 . S
C1251 C1250 1.386 . S
C1251 C1255 1.393 . S
C1252 H1241 0.950 . S
C1252 C1250 1.391 . S
C1252 C1253 1.400 . S
C1253 C1247 1.491 . S
C1253 C1252 1.400 . S
C1253 C1254 1.398 . S
C1254 H1242 0.950 . S
C1254 C1253 1.398 . S
C1254 C1255 1.391 . S
C1255 H1243 0.950 . S
C1255 C1251 1.393 . S
C1255 C1254 1.391 . S
H1256 C1264 0.950 . S
H1257 C1269 0.950 . S
H1258 C1266 0.950 . S
H1259 C1268 0.950 . S
H1260 C1270 0.950 . S
H1261 C1272 0.950 . S
H1262 C1274 0.950 . S
H1263 C1275 0.950 . S
C1264 H1256 0.950 . S
C1264 C1265 1.386 1_556 S
C1264 C1266 1.391 . S
C1265 C1264 1.386 1_554 S
C1265 C1269 1.393 . S
C1266 H1258 0.950 . S
C1266 C1264 1.391 . S
C1266 C1267 1.400 . S
C1267 C1266 1.400 . S
C1267 C1268 1.398 . S
C1267 C1273 1.491 . S
C1268 H1259 0.950 . S
C1268 C1267 1.398 . S
C1268 C1269 1.391 1_556 S
C1269 H1257 0.950 . S
C1269 C1265 1.393 . S
C1269 C1268 1.391 1_554 S
C1270 H1260 0.950 . S
C1270 C1271 1.386 . S
C1270 C1272 1.391 . S
C1271 C1270 1.386 . S
C1271 C1275 1.393 . S
C1272 H1261 0.950 . S
C1272 C1270 1.391 . S
C1272 C1273 1.400 . S
C1273 C1267 1.491 . S
C1273 C1272 1.400 . S
C1273 C1274 1.398 . S
C1274 H1262 0.950 . S
C1274 C1273 1.398 . S
C1274 C1275 1.391 . S
C1275 H1263 0.950 . S
C1275 C1271 1.393 . S
C1275 C1274 1.391 . S
H1276 C1284 0.950 . S
H1277 C1289 0.950 . S
H1278 C1286 0.950 . S
H1279 C1288 0.950 . S
H1280 C1290 0.950 . S
H1281 C1292 0.950 . S
H1282 C1294 0.950 . S
H1283 C1295 0.950 . S
C1284 H1276 0.950 . S
C1284 C1285 1.386 . S
C1284 C1286 1.391 . S
C1285 C1284 1.386 . S
C1285 C1289 1.393 . S
C1286 H1278 0.950 . S
C1286 C1284 1.391 . S
C1286 C1287 1.400 . S
C1287 C1286 1.400 . S
C1287 C1288 1.398 . S
C1287 C1293 1.491 . S
C1288 H1279 0.950 . S
C1288 C1287 1.398 . S
C1288 C1289 1.391 . S
C1289 H1277 0.950 . S
C1289 C1285 1.393 . S
C1289 C1288 1.391 . S
C1290 H1280 0.950 . S
C1290 C1291 1.386 . S
C1290 C1292 1.391 1_455 S
C1291 C1290 1.386 . S
C1291 C1295 1.393 . S
C1292 H1281 0.950 . S
C1292 C1290 1.391 1_655 S
C1292 C1293 1.400 . S
C1293 C1287 1.491 . S
C1293 C1292 1.400 . S
C1293 C1294 1.398 . S
C1294 H1282 0.950 . S
C1294 C1293 1.398 . S
C1294 C1295 1.391 1_655 S
C1295 H1283 0.950 . S
C1295 C1291 1.393 . S
C1295 C1294 1.391 1_455 S
C345 C132 1.251 . S
C351 C6 1.259 . S
C365 C20 1.254 1_455 S
C371 C146 1.253 . S
C385 C34 1.256 . S
C391 C160 1.259 1_556 S
C405 C48 1.254 . S
C411 C118 1.259 . S
C425 C62 1.251 . S
C431 C216 1.256 . S
C445 C174 1.256 . S
C451 C76 1.259 1_655 S
C465 C90 1.252 . S
C471 C188 1.255 1_554 S
C485 C202 1.255 . S
C491 C104 1.252 . S
C505 C230 1.254 . S
C511 C258 1.253 . S
C525 C314 1.251 1_545 S
C531 C244 1.258 . S
C545 C272 1.259 . S
C551 C328 1.251 1_565 S
C565 C300 1.259 . S
C571 C286 1.251 . S
C585 C287 1.850 . S
C591 C7 1.863 . S
C605 C21 1.833 . S
C611 C245 1.848 . S
C625 C35 1.854 . S
C631 C259 1.862 . S
C645 C49 1.838 . S
C651 C273 1.838 . S
C665 C63 1.861 . S
C671 C329 1.855 . S
C685 C301 1.845 . S
C691 C77 1.863 . S
C705 C315 1.848 . S
C711 C91 1.863 . S
C725 C231 1.863 . S
C731 C105 1.844 . S
C745 C217 1.844 . S
C751 C119 1.863 . S
C765 C133 1.863 . S
C771 C175 1.850 . S
C785 C189 1.863 . S
C791 C147 1.848 . S
C805 C203 1.844 . S
C811 C161 1.834 . S
C825 C9 1.143 . S
C831 C232 1.191 . S
C845 C330 1.199 . S
C851 C23 1.124 . S
C865 C302 1.193 . S
C871 C37 1.136 . S
C885 C51 1.161 . S
C891 C316 1.195 . S
C905 C65 1.154 . S
C911 C246 1.199 . S
C925 C260 1.204 . S
C931 C79 1.124 . S
C945 C274 1.193 . S
C951 C93 1.136 . S
C965 C288 1.204 . S
C971 C107 1.127 . S
C985 C8 1.199 . S
C991 C121 1.155 . S
C1005 C22 1.204 . S
C1011 C135 1.133 . S
C1025 C36 1.197 . S
C1031 C149 1.127 . S
C1045 C50 1.190 . S
C1051 C163 1.148 . S
C1065 C64 1.191 . S
C1071 C177 1.162 . S
C1085 C78 1.193 . S
C1091 C191 1.163 . S
C1105 C205 1.130 . S
C1111 C92 1.204 . S
C1125 C106 1.201 . S
C1131 C219 1.123 . S
C1145 C120 1.204 . S
C1151 C233 1.135 . S
C1165 C247 1.137 . S
C1171 C176 1.193 . S
C1185 C190 1.203 . S
C1191 C261 1.143 . S
C1205 C275 1.153 . S
C1211 C204 1.200 . S
C1225 C289 1.145 . S
C1231 C218 1.191 . S
C1245 C303 1.157 . S
C1251 C148 1.198 . S
C1265 C162 1.192 . S
C1271 C317 1.163 . S
C1285 C331 1.155 . S
C1291 C134 1.190 . S
