# Generated by pormake.
# Topology ske, (6)-cn, num edge types: 1
# Building blocks:
#     Node 0, Type 0, BuildingBlock: FUNLAD_clean_sbu_0, # of connection points: 6
#     Node 1, Type 0, BuildingBlock: FUNLAD_clean_sbu_0, # of connection points: 6
#     Node 2, Type 0, BuildingBlock: FUNLAD_clean_sbu_0, # of connection points: 6
#     Node 3, Type 0, BuildingBlock: FUNLAD_clean_sbu_0, # of connection points: 6
#     Node 4, Type 0, BuildingBlock: FUNLAD_clean_sbu_0, # of connection points: 6
#     Node 5, Type 0, BuildingBlock: FUNLAD_clean_sbu_0, # of connection points: 6
#     Node 6, Type 0, BuildingBlock: FUNLAD_clean_sbu_0, # of connection points: 6
#     Node 7, Type 0, BuildingBlock: FUNLAD_clean_sbu_0, # of connection points: 6
#     Edge 8, Type (0, 0), BuildingBlock: XUDNAN_clean_linker_2, # of connection points: 2
#     Edge 9, Type (0, 0), BuildingBlock: XUDNAN_clean_linker_2, # of connection points: 2
#     Edge 10, Type (0, 0), BuildingBlock: XUDNAN_clean_linker_2, # of connection points: 2
#     Edge 11, Type (0, 0), BuildingBlock: XUDNAN_clean_linker_2, # of connection points: 2
#     Edge 12, Type (0, 0), BuildingBlock: XUDNAN_clean_linker_2, # of connection points: 2
#     Edge 13, Type (0, 0), BuildingBlock: XUDNAN_clean_linker_2, # of connection points: 2
#     Edge 14, Type (0, 0), BuildingBlock: XUDNAN_clean_linker_2, # of connection points: 2
#     Edge 15, Type (0, 0), BuildingBlock: XUDNAN_clean_linker_2, # of connection points: 2
#     Edge 16, Type (0, 0), BuildingBlock: XUDNAN_clean_linker_2, # of connection points: 2
#     Edge 17, Type (0, 0), BuildingBlock: XUDNAN_clean_linker_2, # of connection points: 2
#     Edge 18, Type (0, 0), BuildingBlock: XUDNAN_clean_linker_2, # of connection points: 2
#     Edge 19, Type (0, 0), BuildingBlock: XUDNAN_clean_linker_2, # of connection points: 2
#     Edge 20, Type (0, 0), BuildingBlock: XUDNAN_clean_linker_2, # of connection points: 2
#     Edge 21, Type (0, 0), BuildingBlock: XUDNAN_clean_linker_2, # of connection points: 2
#     Edge 22, Type (0, 0), BuildingBlock: XUDNAN_clean_linker_2, # of connection points: 2
#     Edge 23, Type (0, 0), BuildingBlock: XUDNAN_clean_linker_2, # of connection points: 2
#     Edge 24, Type (0, 0), BuildingBlock: XUDNAN_clean_linker_2, # of connection points: 2
#     Edge 25, Type (0, 0), BuildingBlock: XUDNAN_clean_linker_2, # of connection points: 2
#     Edge 26, Type (0, 0), BuildingBlock: XUDNAN_clean_linker_2, # of connection points: 2
#     Edge 27, Type (0, 0), BuildingBlock: XUDNAN_clean_linker_2, # of connection points: 2
#     Edge 28, Type (0, 0), BuildingBlock: XUDNAN_clean_linker_2, # of connection points: 2
#     Edge 29, Type (0, 0), BuildingBlock: XUDNAN_clean_linker_2, # of connection points: 2
#     Edge 30, Type (0, 0), BuildingBlock: XUDNAN_clean_linker_2, # of connection points: 2
#     Edge 31, Type (0, 0), BuildingBlock: XUDNAN_clean_linker_2, # of connection points: 2
# Relax obj value: 0.052
# Max RMSD: 0.119
# Mean RMSD: 0.115
data_MOF--net-ske--node1-FUNLAD_clean_sbu_0--edge1-XUDNAN_clean_linker_2
_symmetry_space_group_name_H-M    P1
_symmetry_Int_Tables_number       1
_symmetry_cell_setting            triclinic
loop_
_symmetry_equiv_pos_as_xyz
'x, y, z'
_cell_length_a     57.821241
_cell_length_b     43.214524
_cell_length_c     14.985686
_cell_angle_alpha  89.70902
_cell_angle_beta   89.883639
_cell_angle_gamma 91.80256
loop_
_atom_site_label
_atom_site_type_symbol
_atom_site_fract_x
_atom_site_fract_y
_atom_site_fract_z
_atom_type_partial_charge
C0 C 0.18674 0.2866 0.56549 0.0
N1 N 0.14305 0.2084 0.53224 0.0
C2 C 0.15893 0.19199 0.48677 0.0
C3 C 0.15843 0.15963 0.49144 0.0
C4 C 0.14159 0.14411 0.5442 0.0
C5 C 0.12557 0.16167 0.59088 0.0
C6 C 0.12654 0.19388 0.58358 0.0
Zn7 Zn 0.14269 0.25567 0.52146 0.0
C8 C 0.13204 0.2855 0.69784 0.0
N9 N 0.13841 0.35435 0.50359 0.0
C10 C 0.15529 0.36809 0.45221 0.0
C11 C 0.12134 0.37128 0.54016 0.0
C12 C 0.12052 0.40317 0.52335 0.0
C13 C 0.13718 0.41747 0.46721 0.0
C14 C 0.15487 0.39963 0.43245 0.0
Zn15 Zn 0.13876 0.30693 0.51724 0.0
O16 O 0.17828 0.25949 0.55262 0.0
C17 C 0.15099 0.27925 0.34171 0.0
O18 O 0.1742 0.30985 0.5522 0.0
H19 H 0.10806 0.35995 0.58069 0.0
H20 H 0.17193 0.20399 0.44643 0.0
H21 H 0.16888 0.35442 0.42452 0.0
O22 O 0.15009 0.2533 0.38199 0.0
O23 O 0.14701 0.30375 0.38424 0.0
H24 H 0.11392 0.2073 0.61838 0.0
O25 O 0.1031 0.30291 0.48532 0.0
O26 O 0.1071 0.25256 0.49152 0.0
O27 O 0.13098 0.30967 0.64991 0.0
O28 O 0.13573 0.25954 0.6615 0.0
C29 C 0.09441 0.27564 0.47873 0.0
H30 H 0.17121 0.14691 0.45505 0.0
H31 H 0.11215 0.15058 0.63145 0.0
H32 H 0.10657 0.41626 0.55108 0.0
H33 H 0.16814 0.40996 0.38957 0.0
C34 C 0.92604 0.25623 0.47804 0.0
N35 N 0.87888 0.32655 0.52551 0.0
C36 C 0.89507 0.34133 0.57714 0.0
C37 C 0.89604 0.37358 0.58205 0.0
C38 C 0.88044 0.39093 0.53242 0.0
C39 C 0.8641 0.37519 0.47866 0.0
C40 C 0.86351 0.34278 0.47667 0.0
Zn41 Zn 0.87891 0.27907 0.52092 0.0
C42 C 0.86956 0.25395 0.34069 0.0
N43 N 0.88075 0.18017 0.51146 0.0
C44 C 0.89738 0.16549 0.55816 0.0
C45 C 0.86438 0.16386 0.46446 0.0
C46 C 0.86418 0.1315 0.46413 0.0
C47 C 0.88075 0.11586 0.51384 0.0
C48 C 0.89758 0.13322 0.56081 0.0
Zn49 Zn 0.88016 0.22757 0.51544 0.0
O50 O 0.91545 0.28106 0.49313 0.0
C51 C 0.88778 0.25059 0.69688 0.0
O52 O 0.91506 0.2304 0.48258 0.0
H53 H 0.85122 0.17592 0.42819 0.0
H54 H 0.90734 0.32808 0.61449 0.0
H55 H 0.91036 0.17882 0.59446 0.0
O56 O 0.88517 0.27691 0.66067 0.0
O57 O 0.8878 0.22657 0.64892 0.0
H58 H 0.85078 0.33061 0.43606 0.0
O59 O 0.84529 0.22509 0.54861 0.0
O60 O 0.84243 0.27564 0.55119 0.0
O61 O 0.872 0.22897 0.38358 0.0
O62 O 0.87206 0.27979 0.38037 0.0
C63 C 0.83319 0.24866 0.56144 0.0
H64 H 0.90906 0.38486 0.62357 0.0
H65 H 0.85166 0.38778 0.43993 0.0
H66 H 0.85081 0.11884 0.4277 0.0
H67 H 0.91075 0.12192 0.59936 0.0
C68 C 0.08983 0.78031 0.46122 0.0
N69 N 0.13755 0.85483 0.43889 0.0
C70 C 0.12129 0.87274 0.40058 0.0
C71 C 0.12132 0.90464 0.41686 0.0
C72 C 0.13799 0.91788 0.47424 0.0
C73 C 0.15487 0.89908 0.51074 0.0
C74 C 0.15449 0.86757 0.4914 0.0
Zn75 Zn 0.13643 0.80747 0.42643 0.0
C76 C 0.14603 0.77866 0.6014 0.0
N77 N 0.13597 0.70838 0.41175 0.0
C78 C 0.11999 0.694 0.35832 0.0
C79 C 0.15122 0.69177 0.46011 0.0
C80 C 0.15065 0.65943 0.45622 0.0
C81 C 0.1345 0.64406 0.40094 0.0
C82 C 0.11907 0.66175 0.35139 0.0
Zn83 Zn 0.13667 0.75583 0.42079 0.0
O84 O 0.10127 0.80583 0.45695 0.0
C85 C 0.12882 0.78656 0.24503 0.0
O86 O 0.10007 0.75509 0.4474 0.0
H87 H 0.16388 0.70361 0.5018 0.0
H88 H 0.10796 0.86218 0.35918 0.0
H89 H 0.10789 0.70756 0.32105 0.0
O90 O 0.12934 0.81071 0.2928 0.0
O91 O 0.13065 0.76007 0.28136 0.0
H92 H 0.16745 0.85312 0.52044 0.0
O93 O 0.17328 0.75802 0.39158 0.0
O94 O 0.17141 0.80864 0.39522 0.0
O95 O 0.14322 0.75299 0.56126 0.0
O96 O 0.14396 0.80374 0.55884 0.0
C97 C 0.18307 0.78469 0.38238 0.0
H98 H 0.10799 0.91857 0.38789 0.0
H99 H 0.16808 0.90863 0.55477 0.0
H100 H 0.163 0.6466 0.49475 0.0
H101 H 0.10624 0.65072 0.30849 0.0
C102 C 0.92102 0.76098 0.46115 0.0
N103 N 0.87861 0.68066 0.4296 0.0
C104 C 0.89633 0.66455 0.39448 0.0
C105 C 0.89751 0.63257 0.40945 0.0
C106 C 0.8805 0.6174 0.46212 0.0
C107 C 0.86213 0.63438 0.495 0.0
C108 C 0.8614 0.66599 0.47724 0.0
Zn109 Zn 0.87722 0.72813 0.42123 0.0
C110 C 0.86433 0.75293 0.5975 0.0
N111 N 0.87002 0.82631 0.41662 0.0
C112 C 0.88645 0.84472 0.37579 0.0
C113 C 0.85295 0.83865 0.46653 0.0
C114 C 0.8528 0.87042 0.48178 0.0
C115 C 0.87017 0.88977 0.44428 0.0
C116 C 0.88673 0.87682 0.38828 0.0
Zn117 Zn 0.87232 0.77913 0.41833 0.0
O118 O 0.91273 0.73346 0.45514 0.0
C119 C 0.88397 0.75192 0.24158 0.0
O120 O 0.90795 0.78367 0.44802 0.0
H121 H 0.84 0.82366 0.49811 0.0
H122 H 0.90985 0.67662 0.35688 0.0
H123 H 0.89993 0.8344 0.33684 0.0
O124 O 0.88559 0.72781 0.28943 0.0
O125 O 0.8794 0.77767 0.27784 0.0
H126 H 0.84732 0.679 0.50395 0.0
O127 O 0.83685 0.77399 0.38692 0.0
O128 O 0.84194 0.72392 0.3836 0.0
O129 O 0.86499 0.77904 0.55833 0.0
O130 O 0.86853 0.72882 0.55375 0.0
C131 C 0.82897 0.74679 0.37146 0.0
H132 H 0.91198 0.62009 0.38334 0.0
H133 H 0.84863 0.62334 0.53537 0.0
H134 H 0.83965 0.87969 0.52479 0.0
H135 H 0.90046 0.89112 0.35867 0.0
C136 C 0.68491 0.75472 0.03046 0.0
N137 N 0.64016 0.68029 0.97777 0.0
C138 C 0.65709 0.67034 0.9227 0.0
C139 C 0.661 0.63889 0.91394 0.0
C140 C 0.64764 0.61715 0.9632 0.0
C141 C 0.62988 0.62791 0.01819 0.0
C142 C 0.62642 0.6598 0.02453 0.0
Zn143 Zn 0.6378 0.72736 -0.00995 0.0
C144 C 0.62937 0.74896 0.17128 0.0
N145 N 0.63682 0.82627 0.00709 0.0
C146 C 0.65228 0.84551 0.96387 0.0
C147 C 0.61927 0.83779 0.05628 0.0
C148 C 0.61691 0.86969 0.06434 0.0
C149 C 0.63257 0.89008 0.0205 0.0
C150 C 0.65037 0.87766 0.96925 0.0
Zn151 Zn 0.63875 0.779 -0.0033 0.0
O152 O 0.67315 0.73025 0.0132 0.0
C153 C 0.6454 0.7592 0.81442 0.0
O154 O 0.67511 0.78071 0.02865 0.0
H155 H 0.60695 0.8222 0.08918 0.0
H156 H 0.66795 0.68687 0.88637 0.0
H157 H 0.66608 0.83591 0.92499 0.0
O158 O 0.64292 0.73265 0.85049 0.0
O159 O 0.64561 0.78324 0.86245 0.0
H160 H 0.61308 0.66819 0.0681 0.0
O161 O 0.6025 0.77579 0.96751 0.0
O162 O 0.60227 0.72491 0.96763 0.0
O163 O 0.63138 0.77435 0.12916 0.0
O164 O 0.63206 0.72352 0.13072 0.0
C165 C 0.5915 0.74995 0.9598 0.0
H166 H 0.67455 0.63174 0.86925 0.0
H167 H 0.61923 0.612 0.05782 0.0
H168 H 0.60278 0.87832 0.10368 0.0
H169 H 0.66289 0.89265 0.93498 0.0
C170 C 0.42381 0.76985 -0.01769 0.0
N171 N 0.38558 0.85023 0.01323 0.0
C172 C 0.40299 0.86477 0.05935 0.0
C173 C 0.40471 0.89708 0.06184 0.0
C174 C 0.3886 0.91463 0.01533 0.0
C175 C 0.37131 0.8991 0.96571 0.0
C176 C 0.36998 0.86673 0.9662 0.0
Zn177 Zn 0.38173 0.80277 0.01998 0.0
C178 C 0.36782 0.777 0.84481 0.0
N179 N 0.37092 0.70448 0.03276 0.0
C180 C 0.38627 0.69028 0.08682 0.0
C181 C 0.35526 0.6877 -0.01638 0.0
C182 C 0.35475 0.65528 -0.01226 0.0
C183 C 0.37028 0.64022 0.04394 0.0
C184 C 0.38612 0.65814 0.09393 0.0
Zn185 Zn 0.37398 0.75182 0.02452 0.0
O186 O 0.41714 0.79754 -0.01238 0.0
C187 C 0.38634 0.77999 0.20092 0.0
O188 O 0.40939 0.74756 -0.00399 0.0
H189 H 0.3433 0.69943 0.94066 0.0
H190 H 0.41529 0.8513 0.09593 0.0
H191 H 0.39895 0.70387 0.12382 0.0
O192 O 0.38948 0.80389 0.15281 0.0
O193 O 0.38051 0.75436 0.1648 0.0
H194 H 0.35614 0.85482 0.9306 0.0
O195 O 0.33858 0.75672 0.05412 0.0
O196 O 0.34637 0.80683 0.05466 0.0
O197 O 0.36696 0.75096 0.88482 0.0
O198 O 0.37341 0.80133 0.88738 0.0
C199 C 0.33206 0.78419 0.06674 0.0
H200 H 0.41839 0.90826 0.10044 0.0
H201 H 0.35842 0.91183 0.92974 0.0
H202 H 0.34223 0.64215 0.94836 0.0
H203 H 0.39859 0.64736 0.13703 0.0
C204 C 0.59348 0.26093 0.96877 0.0
N205 N 0.64782 0.32578 0.92075 0.0
C206 C 0.63259 0.34355 0.87612 0.0
C207 C 0.6354 0.37583 0.87575 0.0
C208 C 0.65406 0.38993 0.92182 0.0
C209 C 0.66952 0.37088 0.96688 0.0
C210 C 0.66611 0.33881 0.96524 0.0
Zn211 Zn 0.64316 0.27868 0.92732 0.0
C212 C 0.64951 0.25385 0.10719 0.0
N213 N 0.6323 0.18022 0.94284 0.0
C214 C 0.61461 0.1636 0.90421 0.0
C215 C 0.64841 0.16601 -0.00648 0.0
C216 C 0.64664 0.13429 0.01008 0.0
C217 C 0.62841 0.11673 0.97265 0.0
C218 C 0.61245 0.13149 0.91774 0.0
Zn219 Zn 0.63588 0.22764 0.93168 0.0
O220 O 0.60775 0.28355 0.95638 0.0
C221 C 0.63092 0.2503 0.75118 0.0
O222 O 0.60041 0.23335 0.96282 0.0
H223 H 0.66257 0.17938 0.0226 0.0
H224 H 0.61814 0.33269 0.84128 0.0
H225 H 0.60201 0.17528 0.86403 0.0
O226 O 0.63621 0.27618 0.78737 0.0
O227 O 0.6283 0.22618 0.79909 0.0
H228 H 0.67795 0.3243 0.00065 0.0
O229 O 0.67119 0.22297 0.8976 0.0
O230 O 0.6785 0.27306 0.89664 0.0
O231 O 0.64391 0.22959 0.06463 0.0
O232 O 0.6504 0.27979 0.067 0.0
C233 C 0.6853 0.24573 0.88469 0.0
H234 H 0.6232 0.38956 0.83928 0.0
H235 H 0.68392 0.38063 0.00459 0.0
H236 H 0.65935 0.12357 0.0522 0.0
H237 H 0.59813 0.1185 0.88802 0.0
C238 C 0.42534 0.2786 0.97629 0.0
N239 N 0.37693 0.2045 0.93459 0.0
C240 C 0.39415 0.18874 0.89471 0.0
C241 C 0.3953 0.1566 0.90558 0.0
C242 C 0.37882 0.14083 0.95918 0.0
C243 C 0.36074 0.15743 -0.00374 0.0
C244 C 0.36 0.18932 -0.01757 0.0
Zn245 Zn 0.37758 0.25212 0.93686 0.0
C246 C 0.37078 0.27404 0.11888 0.0
N247 N 0.37921 0.35107 0.95249 0.0
C248 C 0.39505 0.3705 0.912 0.0
C249 C 0.36238 0.36225 0.00596 0.0
C250 C 0.36149 0.39377 0.02335 0.0
C251 C 0.37793 0.41427 -0.01517 0.0
C252 C 0.39461 0.40251 0.92691 0.0
Zn253 Zn 0.37964 0.30373 0.94286 0.0
O254 O 0.41397 0.25302 0.96819 0.0
C255 C 0.38818 0.27981 0.76235 0.0
O256 O 0.41502 0.30393 0.96716 0.0
H257 H 0.34979 0.3466 0.037 0.0
H258 H 0.40752 0.20124 0.85744 0.0
H259 H 0.40828 0.36114 0.86975 0.0
O260 O 0.38561 0.25453 0.805 0.0
O261 O 0.38594 0.30553 0.80221 0.0
H262 H 0.34641 0.20217 0.01332 0.0
O263 O 0.3444 0.30313 0.91776 0.0
O264 O 0.34132 0.25276 0.90263 0.0
O265 O 0.37401 0.30044 0.08281 0.0
O266 O 0.37011 0.25009 0.07075 0.0
C267 C 0.33215 0.27917 0.89977 0.0
H268 H 0.40957 0.14449 0.87641 0.0
H269 H 0.34766 0.14594 0.03759 0.0
H270 H 0.34819 0.40203 0.06748 0.0
H271 H 0.40761 0.41773 0.8962 0.0
H272 H 0.21919 0.2428 0.60414 0.0
H273 H 0.20528 0.34064 0.62976 0.0
H274 H 0.23944 0.34756 0.72543 0.0
H275 H 0.23881 0.23044 0.82551 0.0
H276 H 0.26176 0.20513 0.79577 0.0
H277 H 0.23645 0.20717 0.72624 0.0
H278 H 0.26208 0.22128 0.58903 0.0
H279 H 0.28749 0.21859 0.65768 0.0
H280 H 0.28251 0.25358 0.59555 0.0
H281 H 0.27255 0.34377 0.8265 0.0
H282 H 0.30804 0.33187 0.90705 0.0
H283 H 0.30307 0.237 0.81206 0.0
C284 C 0.22358 0.26577 0.62864 0.0
C285 C 0.20946 0.29116 0.60952 0.0
C286 C 0.21578 0.32083 0.64306 0.0
C287 C 0.23507 0.32499 0.69818 0.0
C288 C 0.24809 0.29937 0.71831 0.0
C289 C 0.24307 0.27049 0.68306 0.0
C290 C 0.26052 0.24718 0.71406 0.0
C291 C 0.24867 0.22093 0.76863 0.0
C292 C 0.27395 0.23441 0.63433 0.0
C293 C 0.27598 0.26756 0.77258 0.0
C294 C 0.26813 0.29742 0.77479 0.0
C295 C 0.27907 0.32058 0.82455 0.0
C296 C 0.29921 0.31347 0.87043 0.0
C297 C 0.3085 0.28353 0.86544 0.0
C298 C 0.29636 0.26003 0.81759 0.0
H299 H 0.71927 0.28908 0.83733 0.0
H300 H 0.70268 0.19028 0.83693 0.0
H301 H 0.73771 0.18141 0.74857 0.0
H302 H 0.74086 0.29449 0.61613 0.0
H303 H 0.76414 0.32182 0.64073 0.0
H304 H 0.73824 0.321 0.70783 0.0
H305 H 0.76247 0.31296 0.85086 0.0
H306 H 0.78849 0.31439 0.78443 0.0
H307 H 0.7822 0.2815 0.85586 0.0
H308 H 0.77244 0.1831 0.65281 0.0
H309 H 0.80871 0.1941 0.57172 0.0
H310 H 0.80445 0.29172 0.63607 0.0
C311 C 0.72322 0.26553 0.81998 0.0
C312 C 0.70816 0.24037 0.84407 0.0
C313 C 0.71391 0.20993 0.81957 0.0
C314 C 0.73372 0.20464 0.76885 0.0
C315 C 0.74773 0.22998 0.74374 0.0
C316 C 0.74309 0.25975 0.76973 0.0
C317 C 0.7613 0.28271 0.73396 0.0
C318 C 0.75048 0.3064 0.67092 0.0
C319 C 0.7744 0.29884 0.81086 0.0
C320 C 0.77676 0.26112 0.68335 0.0
C321 C 0.76837 0.23088 0.68943 0.0
C322 C 0.77934 0.20662 0.64815 0.0
C323 C 0.79991 0.2132 0.60188 0.0
C324 C 0.80952 0.24379 0.59769 0.0
C325 C 0.79748 0.26817 0.63753 0.0
H326 H 0.29746 0.74142 0.11281 0.0
H327 H 0.3152 0.83992 0.11426 0.0
H328 H 0.28006 0.84951 0.20098 0.0
H329 H 0.23477 0.75047 0.09089 0.0
H330 H 0.22774 0.7177 0.16191 0.0
H331 H 0.25403 0.71852 0.09708 0.0
H332 H 0.27756 0.70987 0.24154 0.0
H333 H 0.25139 0.70964 0.30704 0.0
H334 H 0.27491 0.73643 0.33312 0.0
H335 H 0.24512 0.84861 0.29496 0.0
H336 H 0.20843 0.83855 0.37385 0.0
H337 H 0.21143 0.7408 0.30919 0.0
C338 C 0.29375 0.76505 0.13011 0.0
C339 C 0.30917 0.78991 0.10676 0.0
C340 C 0.30371 0.82048 0.1311 0.0
C341 C 0.28384 0.82618 0.18091 0.0
C342 C 0.26945 0.80114 0.20526 0.0
C343 C 0.27379 0.77126 0.17941 0.0
C344 C 0.25513 0.74872 0.21405 0.0
C345 C 0.24215 0.73293 0.13635 0.0
C346 C 0.26537 0.72475 0.27772 0.0
C347 C 0.23976 0.7707 0.26377 0.0
C348 C 0.24861 0.80073 0.25833 0.0
C349 C 0.23786 0.82526 0.29907 0.0
C350 C 0.21703 0.81921 0.34409 0.0
C351 C 0.20694 0.78888 0.3475 0.0
C352 C 0.21875 0.76418 0.30826 0.0
H353 H 0.71215 0.79606 0.12851 0.0
H354 H 0.71132 0.70468 0.00861 0.0
H355 H 0.74711 0.6928 0.08753 0.0
H356 H 0.77639 0.80746 0.12148 0.0
H357 H 0.77715 0.82761 0.22649 0.0
H358 H 0.75219 0.82999 0.15528 0.0
H359 H 0.72615 0.81061 0.28628 0.0
H360 H 0.75109 0.80739 0.35718 0.0
H361 H 0.73199 0.77421 0.33968 0.0
H362 H 0.77976 0.68792 0.19069 0.0
H363 H 0.81294 0.69391 0.29193 0.0
H364 H 0.79505 0.78927 0.3414 0.0
C365 C 0.7199 0.77395 0.11695 0.0
C366 C 0.70884 0.75126 0.06273 0.0
C367 C 0.71937 0.7224 0.05017 0.0
C368 C 0.73967 0.71532 0.095 0.0
C369 C 0.7495 0.73747 0.15133 0.0
C370 C 0.74046 0.7665 0.16083 0.0
C371 C 0.75474 0.78581 0.22624 0.0
C372 C 0.76577 0.81441 0.17957 0.0
C373 C 0.74011 0.79504 0.30713 0.0
C374 C 0.77287 0.76281 0.25266 0.0
C375 C 0.76924 0.73499 0.20924 0.0
C376 C 0.78306 0.70972 0.22427 0.0
C377 C 0.80175 0.7133 0.28269 0.0
C378 C 0.80668 0.74208 0.32455 0.0
C379 C 0.79173 0.76698 0.31045 0.0
H380 H 0.14053 0.96944 0.36631 0.0
H381 H 0.13399 0.93993 0.64233 0.0
H382 H 0.13376 0.99461 0.69012 0.0
H383 H 0.17968 0.03396 0.40988 0.0
H384 H 0.16771 0.05862 0.32554 0.0
H385 H 0.16622 0.0172 0.31225 0.0
H386 H 0.1217 0.01867 0.29466 0.0
H387 H 0.12306 0.06011 0.30747 0.0
H388 H 0.10473 0.03663 0.37995 0.0
H389 H 0.13418 0.05206 0.70797 0.0
H390 H 0.13654 0.10908 0.69554 0.0
H391 H 0.14443 0.1018 0.40844 0.0
C392 C 0.13883 0.97465 0.43659 0.0
C393 C 0.13714 0.9507 0.50088 0.0
C394 C 0.13531 0.95813 0.59241 0.0
C395 C 0.13513 0.98904 0.62004 0.0
C396 C 0.13707 1.0122 0.55527 0.0
C397 C 0.13902 1.00547 0.4655 0.0
C398 C 0.14176 0.03483 0.41016 0.0
C399 C 0.16524 0.03622 0.36161 0.0
C400 C 0.12161 0.03773 0.34418 0.0
C401 C 0.14085 0.05906 0.48279 0.0
C402 C 0.13802 0.04547 0.56591 0.0
C403 C 0.13642 0.063 0.64328 0.0
C404 C 0.13769 0.09534 0.63554 0.0
C405 C 0.14069 0.10983 0.55114 0.0
C406 C 0.14238 0.09135 0.47393 0.0
H407 H 0.87991 0.43356 0.39529 0.0
H408 H 0.88235 0.42555 0.6838 0.0
H409 H 0.88376 0.48254 0.69619 0.0
H410 H 0.91944 0.50004 0.3782 0.0
H411 H 0.90407 0.5177 0.28768 0.0
H412 H 0.9031 0.47621 0.3009 0.0
H413 H 0.85831 0.4761 0.30531 0.0
H414 H 0.85913 0.51756 0.2917 0.0
H415 H 0.84401 0.50001 0.38531 0.0
H416 H 0.88341 0.53988 0.6782 0.0
H417 H 0.88251 0.59466 0.6305 0.0
H418 H 0.88208 0.56635 0.35338 0.0
C419 C 0.88063 0.44388 0.46097 0.0
C420 C 0.88101 0.4252 0.5387 0.0
C421 C 0.88223 0.43947 0.62349 0.0
C422 C 0.88297 0.47178 0.63117 0.0
C423 C 0.8827 0.48954 0.55338 0.0
C424 C 0.88168 0.47619 0.46983 0.0
C425 C 0.88183 0.50073 0.39699 0.0
C426 C 0.9034 0.49853 0.33744 0.0
C427 C 0.85949 0.49846 0.34158 0.0
C428 C 0.88285 0.52994 0.45278 0.0
C429 C 0.88325 0.52285 0.54284 0.0
C430 C 0.8833 0.54574 0.60791 0.0
C431 C 0.88276 0.57671 0.5803 0.0
C432 C 0.8824 0.58455 0.48853 0.0
C433 C 0.88268 0.56088 0.42393 0.0
H434 H 0.87278 0.94132 0.33556 0.0
H435 H 0.87196 0.91211 0.61286 0.0
H436 H 0.87534 0.96671 0.66033 0.0
H437 H 0.91335 1.00625 0.35931 0.0
H438 H 0.89845 0.0307 0.28203 0.0
H439 H 0.89673 0.98926 0.26935 0.0
H440 H 0.85196 0.99041 0.27447 0.0
H441 H 0.85355 0.03185 0.28718 0.0
H442 H 0.83798 1.00816 0.36797 0.0
H443 H 0.87949 0.02389 0.67804 0.0
H444 H 0.88165 0.08093 0.66523 0.0
H445 H 0.87782 0.07383 0.37696 0.0
C446 C 0.87342 0.94656 0.40612 0.0
C447 C 0.87213 0.92267 0.47076 0.0
C448 C 0.87278 0.93021 0.56256 0.0
C449 C 0.8748 0.96108 0.59007 0.0
C450 C 0.87592 0.98415 0.52492 0.0
C451 C 0.87506 0.97738 0.43487 0.0
C452 C 0.87576 1.00674 0.37896 0.0
C453 C 0.89736 1.00832 0.31887 0.0
C454 C 0.85349 1.00944 0.32391 0.0
C455 C 0.87721 0.03099 0.4517 0.0
C456 C 0.87751 0.01738 0.53531 0.0
C457 C 0.8792 0.03486 0.61299 0.0
C458 C 0.88052 0.06717 0.60509 0.0
C459 C 0.87988 0.08165 0.52024 0.0
C460 C 0.87816 0.06328 0.44264 0.0
H461 H 0.13465 0.60099 0.53664 0.0
H462 H 0.13335 0.60992 0.24826 0.0
H463 H 0.13318 0.55294 0.23435 0.0
H464 H 0.17183 0.5362 0.54798 0.0
H465 H 0.15662 0.51776 0.63999 0.0
H466 H 0.15654 0.55923 0.62738 0.0
H467 H 0.11171 0.55731 0.6281 0.0
H468 H 0.11165 0.51582 0.6406 0.0
H469 H 0.09634 0.53301 0.54916 0.0
H470 H 0.13498 0.49542 0.2514 0.0
H471 H 0.1365 0.44061 0.29843 0.0
H472 H 0.13473 0.4684 0.5759 0.0
C473 C 0.13438 0.59089 0.47065 0.0
C474 C 0.13405 0.60981 0.3934 0.0
C475 C 0.13343 0.59581 0.30819 0.0
C476 C 0.13342 0.56351 0.29967 0.0
C477 C 0.13376 0.54551 0.37706 0.0
C478 C 0.13403 0.55863 0.46097 0.0
C479 C 0.13407 0.53394 0.53331 0.0
C480 C 0.15608 0.53697 0.59052 0.0
C481 C 0.11213 0.5351 0.5912 0.0
C482 C 0.13404 0.5049 0.47692 0.0
C483 C 0.134 0.51217 0.38695 0.0
C484 C 0.13482 0.48943 0.32161 0.0
C485 C 0.13575 0.45842 0.34886 0.0
C486 C 0.13561 0.4504 0.44058 0.0
C487 C 0.13456 0.47396 0.50535 0.0
H488 H 0.61701 0.56665 0.96074 0.0
H489 H 0.69035 0.59178 0.95655 0.0
H490 H 0.69961 0.5369 0.94142 0.0
H491 H 0.62283 0.49653 0.09252 0.0
H492 H 0.60031 0.47542 0.03342 0.0
H493 H 0.5993 0.5169 0.04296 0.0
H494 H 0.59689 0.52167 0.87082 0.0
H495 H 0.5981 0.48023 0.86073 0.0
H496 H 0.61893 0.50491 0.80274 0.0
H497 H 0.7012 0.47984 0.92334 0.0
H498 H 0.69505 0.42335 0.91194 0.0
H499 H 0.62085 0.43423 0.9358 0.0
C500 C 0.63501 0.5606 0.9575 0.0
C501 C 0.65292 0.5837 0.95858 0.0
C502 C 0.67627 0.57469 0.95369 0.0
C503 C 0.68175 0.54352 0.94562 0.0
C504 C 0.66373 0.52146 0.94331 0.0
C505 C 0.64084 0.52946 0.94989 0.0
C506 C 0.62487 0.50096 0.94682 0.0
C507 C 0.61101 0.49724 0.03414 0.0
C508 C 0.60875 0.50202 0.86542 0.0
C509 C 0.64239 0.4758 0.93723 0.0
C510 C 0.66468 0.48822 0.935 0.0
C511 C 0.68383 0.46977 0.92583 0.0
C512 C 0.68015 0.43766 0.91989 0.0
C513 C 0.65749 0.4242 0.92378 0.0
C514 C 0.63838 0.44372 0.93184 0.0
H515 H 0.38621 0.95803 0.88069 0.0
H516 H 0.39134 0.9483 0.16815 0.0
H517 H 0.39009 1.00508 0.18414 0.0
H518 H 0.42248 0.02855 0.86444 0.0
H519 H 0.40553 0.04502 0.77636 0.0
H520 H 0.40711 1.0036 0.78715 0.0
H521 H 0.36238 0.99882 0.79508 0.0
H522 H 0.36066 0.04021 0.78452 0.0
H523 H 0.34716 0.02041 0.87808 0.0
H524 H 0.38588 0.06218 0.17008 0.0
H525 H 0.38181 0.11692 0.12608 0.0
H526 H 0.38154 0.09069 0.8472 0.0
C527 C 0.38714 0.96796 0.94685 0.0
C528 C 0.38891 0.94885 0.0233 0.0
C529 C 0.39023 0.96258 0.10879 0.0
C530 C 0.38942 0.99476 0.11852 0.0
C531 C 0.38758 1.01294 0.04199 0.0
C532 C 0.38673 1.00015 0.95769 0.0
C533 C 0.38498 0.02508 0.88653 0.0
C534 C 0.4063 0.02559 0.82499 0.0
C535 C 0.36245 0.02087 0.83291 0.0
C536 C 0.38462 0.05382 0.94416 0.0
C537 C 0.38599 0.04619 0.03367 0.0
C538 C 0.38502 0.06849 0.10021 0.0
C539 C 0.38262 0.09944 0.07469 0.0
C540 C 0.38145 0.10788 -0.01653 0.0
C541 C 0.38263 0.08479 0.91736 0.0
H542 H 0.37827 0.46527 0.87355 0.0
H543 H 0.37739 0.43771 0.15232 0.0
H544 H 0.3749 0.49239 0.1969 0.0
H545 H 0.41239 0.53696 0.9016 0.0
H546 H 0.39621 0.55798 0.81979 0.0
H547 H 0.39887 0.51672 0.8096 0.0
H548 H 0.3542 0.50996 0.80529 0.0
H549 H 0.35141 0.55117 0.81633 0.0
H550 H 0.3372 0.52519 0.89499 0.0
H551 H 0.37217 0.54931 0.212 0.0
H552 H 0.3697 0.60602 0.19677 0.0
H553 H 0.37116 0.59751 0.90848 0.0
C554 C 0.37784 0.47092 0.94386 0.0
C555 C 0.37803 0.44739 0.00967 0.0
C556 C 0.37713 0.45546 0.10104 0.0
C557 C 0.37575 0.4864 0.12697 0.0
C558 C 0.37515 0.50902 0.06068 0.0
C559 C 0.3762 0.5018 0.97102 0.0
C560 C 0.37472 0.5307 0.91364 0.0
C561 C 0.39687 0.53589 0.85788 0.0
C562 C 0.35309 0.52915 0.85406 0.0
C563 C 0.37268 0.55519 -0.01483 0.0
C564 C 0.37307 0.5421 0.06945 0.0
C565 C 0.37184 0.55988 0.14641 0.0
C566 C 0.37046 0.59202 0.13714 0.0
C567 C 0.37018 0.60604 0.05158 0.0
C568 C 0.37106 0.58731 0.97464 0.0
H569 H 0.62981 0.06719 0.85888 0.0
H570 H 0.62223 0.09166 0.13727 0.0
H571 H 0.62111 0.03619 0.17906 0.0
H572 H 0.59334 0.99603 0.8645 0.0
H573 H 0.612 0.97556 0.79029 0.0
H574 H 0.61023 0.01702 0.7815 0.0
H575 H 0.65469 0.02267 0.80017 0.0
H576 H 0.65659 0.98128 0.80971 0.0
H577 H 0.66818 1.0059 0.89658 0.0
H578 H 0.62203 0.97863 0.19132 0.0
H579 H 0.62584 0.92222 0.17404 0.0
H580 H 0.63452 0.93458 0.88826 0.0
C581 C 0.62748 0.06068 0.92828 0.0
C582 C 0.62583 0.08345 -0.00497 0.0
C583 C 0.62337 0.07437 0.08546 0.0
C584 C 0.62271 0.043 0.10968 0.0
C585 C 0.62475 0.02104 0.04266 0.0
C586 C 0.62714 0.02939 0.95381 0.0
C587 C 0.6303 1.00115 0.89581 0.0
C588 C 0.61027 0.99721 0.82909 0.0
C589 C 0.65384 1.00286 0.84776 0.0
C590 C 0.62948 0.97573 0.96602 0.0
C591 C 0.62603 0.98774 0.05011 0.0
C592 C 0.62465 0.96892 0.12579 0.0
C593 C 0.62677 0.93693 0.11531 0.0
C594 C 0.63045 0.92406 0.02991 0.0
C595 C 0.63189 0.94382 0.95443 0.0
H596 H 0.14234 0.23557 0.21096 0.0
H597 H 0.1675 0.33005 0.25537 0.0
H598 H 0.16521 0.3408 0.09511 0.0
H599 H 0.17289 0.22721 -0.01157 0.0
H600 H 0.14922 0.20415 0.94327 0.0
H601 H 0.15558 0.20234 0.06086 0.0
H602 H 0.11327 0.21626 0.09562 0.0
H603 H 0.10695 0.21904 0.97831 0.0
H604 H 0.10198 0.25145 0.05038 0.0
H605 H 0.15369 0.34482 0.9408 0.0
H606 H 0.14252 0.33878 0.78442 0.0
H607 H 0.12757 0.24066 0.8297 0.0
C608 C 0.14816 0.25809 0.18619 0.0
C609 C 0.15486 0.28209 0.24526 0.0
C610 C 0.16207 0.31145 0.21112 0.0
C611 C 0.16082 0.31784 0.12028 0.0
C612 C 0.15276 0.29443 0.06434 0.0
C613 C 0.14728 0.26484 0.0947 0.0
C614 C 0.13851 0.2445 0.01889 0.0
C615 C 0.15504 0.21798 0.00185 0.0
C616 C 0.11371 0.23209 0.03693 0.0
C617 C 0.13916 0.26776 0.9427 0.0
C618 C 0.14721 0.29642 0.97145 0.0
C619 C 0.14791 0.32235 0.91644 0.0
C620 C 0.1412 0.3187 0.82792 0.0
C621 C 0.13428 0.28919 0.79481 0.0
C622 C 0.13291 0.26343 0.85331 0.0
H623 H 0.87903 0.29804 0.21064 0.0
H624 H 0.85185 0.20422 0.25397 0.0
H625 H 0.85362 0.19442 0.09345 0.0
H626 H 0.84825 0.30889 -0.01046 0.0
H627 H 0.87229 0.33139 0.94394 0.0
H628 H 0.86612 0.33274 0.0618 0.0
H629 H 0.90816 0.31713 0.09467 0.0
H630 H 0.91427 0.31479 0.9771 0.0
H631 H 0.91868 0.28178 0.04839 0.0
H632 H 0.86504 0.19083 0.93932 0.0
H633 H 0.87632 0.19723 0.78299 0.0
H634 H 0.8932 0.29468 0.82905 0.0
C635 C 0.8727 0.27589 0.18566 0.0
C636 C 0.8656 0.25175 0.2444 0.0
C637 C 0.85764 0.22289 0.20997 0.0
C638 C 0.85857 0.21705 0.11897 0.0
C639 C 0.86704 0.24052 0.06331 0.0
C640 C 0.87321 0.26971 0.09405 0.0
C641 C 0.88229 0.29021 0.01839 0.0
C642 C 0.86628 0.31742 0.00246 0.0
C643 C 0.90734 0.30164 0.03573 0.0
C644 C 0.88108 0.2674 0.94186 0.0
C645 C 0.87244 0.23888 0.97032 0.0
C646 C 0.87123 0.21323 0.91511 0.0
C647 C 0.87801 0.21709 0.82661 0.0
C648 C 0.88548 0.24656 0.79375 0.0
C649 C 0.8874 0.27198 0.85246 0.0
H650 H 0.12074 0.7427 0.11454 0.0
H651 H 0.14327 0.83844 0.15745 0.0
H652 H 0.15457 0.84314 0.00043 0.0
H653 H 0.16434 0.72311 0.95465 0.0
H654 H 0.14506 0.70072 0.88395 0.0
H655 H 0.13915 0.70349 0.00175 0.0
H656 H 0.09845 0.72423 0.96871 0.0
H657 H 0.10402 0.72074 0.851 0.0
H658 H 0.09579 0.75737 0.89629 0.0
H659 H 0.16547 0.83767 0.84592 0.0
H660 H 0.16659 0.82684 0.68584 0.0
H661 H 0.13432 0.73603 0.73318 0.0
C662 C 0.12779 0.76469 0.09029 0.0
C663 C 0.13125 0.79013 0.14813 0.0
C664 C 0.14035 0.81866 0.11432 0.0
C665 C 0.14715 0.82149 0.02549 0.0
C666 C 0.14435 0.79577 0.97107 0.0
C667 C 0.13421 0.76823 0.00068 0.0
C668 C 0.13158 0.74522 0.92499 0.0
C669 C 0.14589 0.71643 0.94242 0.0
C670 C 0.10594 0.73639 0.90931 0.0
C671 C 0.14165 0.76445 0.84851 0.0
C672 C 0.14949 0.79314 0.87805 0.0
C673 C 0.15924 0.81543 0.82139 0.0
C674 C 0.15981 0.80899 0.73068 0.0
C675 C 0.15027 0.78076 0.6975 0.0
C676 C 0.14188 0.75765 0.75723 0.0
H677 H 0.86924 0.79797 0.72696 0.0
H678 H 0.85274 0.70021 0.68597 0.0
H679 H 0.85629 0.69063 0.8463 0.0
H680 H 0.91102 0.7898 0.8877 0.0
H681 H 0.90299 0.82122 0.95884 0.0
H682 H 0.89643 0.82246 0.8415 0.0
H683 H 0.85296 0.82912 0.87608 0.0
H684 H 0.85946 0.82886 -0.00633 0.0
H685 H 0.8381 0.80186 0.94935 0.0
H686 H 0.86856 0.68913 -0.00045 0.0
H687 H 0.87906 0.69736 0.15535 0.0
H688 H 0.88436 0.79683 0.10856 0.0
C689 C 0.86561 0.77482 0.75243 0.0
C690 C 0.86104 0.74975 0.6942 0.0
C691 C 0.85656 0.71968 0.72938 0.0
C692 C 0.85856 0.71394 0.82032 0.0
C693 C 0.86453 0.73863 0.87529 0.0
C694 C 0.86719 0.76866 0.84405 0.0
C695 C 0.87398 0.79055 0.9192 0.0
C696 C 0.8975 0.80697 0.90065 0.0
C697 C 0.85499 0.81398 0.93555 0.0
C698 C 0.87555 0.76774 -0.00393 0.0
C699 C 0.87028 0.73796 0.96804 0.0
C700 C 0.8721 0.71239 0.02345 0.0
C701 C 0.87839 0.71739 0.11176 0.0
C702 C 0.88232 0.74783 0.14449 0.0
C703 C 0.8813 0.77336 0.08543 0.0
H704 H 0.64252 0.70835 0.30294 0.0
H705 H 0.60712 0.79407 0.25525 0.0
H706 H 0.60768 0.80516 0.41538 0.0
H707 H 0.61299 0.69088 0.52389 0.0
H708 H 0.63884 0.67509 0.57045 0.0
H709 H 0.63314 0.67169 0.45263 0.0
H710 H 0.67317 0.69791 0.41943 0.0
H711 H 0.67872 0.70229 0.53694 0.0
H712 H 0.67996 0.73572 0.46446 0.0
H713 H 0.61801 0.81215 0.57043 0.0
H714 H 0.62915 0.8089 0.72786 0.0
H715 H 0.6553 0.71697 0.68395 0.0
C716 C 0.63416 0.72879 0.32699 0.0
C717 C 0.62499 0.75053 0.26726 0.0
C718 C 0.61446 0.77732 0.30026 0.0
C719 C 0.6147 0.78388 0.39094 0.0
C720 C 0.62515 0.76311 0.44767 0.0
C721 C 0.63402 0.73562 0.41822 0.0
C722 C 0.6448 0.71805 0.49459 0.0
C723 C 0.63165 0.68709 0.5114 0.0
C724 C 0.6707 0.71322 0.4778 0.0
C725 C 0.64119 0.74057 0.57018 0.0
C726 C 0.63009 0.76652 0.54068 0.0
C727 C 0.6262 0.79167 0.59536 0.0
C728 C 0.6329 0.78975 0.68431 0.0
C729 C 0.64297 0.76261 0.71776 0.0
C730 C 0.6475 0.73787 0.65978 0.0
H731 H 0.37231 0.7325 0.71502 0.0
H732 H 0.35579 0.82873 0.75791 0.0
H733 H 0.35852 0.83871 0.59722 0.0
H734 H 0.41348 0.7447 0.55243 0.0
H735 H 0.40549 0.71255 0.48152 0.0
H736 H 0.39919 0.71063 0.59915 0.0
H737 H 0.3557 0.69986 0.56663 0.0
H738 H 0.36195 0.70082 0.44872 0.0
H739 H 0.34052 0.72574 0.49426 0.0
H740 H 0.37003 0.84134 0.44263 0.0
H741 H 0.38055 0.83407 0.28629 0.0
H742 H 0.38677 0.73526 0.33347 0.0
C743 C 0.36846 0.7553 0.68991 0.0
C744 C 0.36412 0.77994 0.74853 0.0
C745 C 0.35943 0.80964 0.71396 0.0
C746 C 0.36093 0.81558 0.62288 0.0
C747 C 0.36669 0.79143 0.56729 0.0
C748 C 0.36963 0.76164 0.59824 0.0
C749 C 0.37639 0.74045 0.52273 0.0
C750 C 0.40004 0.72626 0.54005 0.0
C751 C 0.35751 0.71523 0.50715 0.0
C752 C 0.37765 0.76344 0.44598 0.0
C753 C 0.37219 0.79269 0.4742 0.0
C754 C 0.37375 0.81844 0.41866 0.0
C755 C 0.38007 0.81406 0.33018 0.0
C756 C 0.38435 0.78403 0.29769 0.0
C757 C 0.38345 0.7584 0.35664 0.0
H758 H 0.64483 0.29829 0.23713 0.0
H759 H 0.66168 0.20219 0.19392 0.0
H760 H 0.65889 0.1921 0.3545 0.0
H761 H 0.67652 0.30505 0.4582 0.0
H762 H 0.655 0.32983 0.50378 0.0
H763 H 0.66128 0.3309 0.38591 0.0
H764 H 0.61783 0.31995 0.3531 0.0
H765 H 0.6115 0.3179 0.47069 0.0
H766 H 0.60362 0.28577 0.39953 0.0
H767 H 0.6473 0.18928 0.50883 0.0
H768 H 0.63677 0.19634 0.66514 0.0
H769 H 0.63028 0.29517 0.61881 0.0
C770 C 0.64874 0.2755 0.26218 0.0
C771 C 0.65319 0.25092 0.20347 0.0
C772 C 0.65796 0.22123 0.23793 0.0
C773 C 0.65642 0.21522 0.32896 0.0
C774 C 0.65055 0.2393 0.38462 0.0
C775 C 0.64754 0.26909 0.35382 0.0
C776 C 0.64069 0.29019 0.42945 0.0
C777 C 0.6595 0.31549 0.44528 0.0
C778 C 0.617 0.30427 0.4121 0.0
C779 C 0.63947 0.26714 0.50607 0.0
C780 C 0.64502 0.23794 0.47765 0.0
C781 C 0.64352 0.21214 0.53297 0.0
C782 C 0.63719 0.21641 0.62148 0.0
C783 C 0.63285 0.24639 0.65428 0.0
C784 C 0.63365 0.27206 0.59548 0.0
H785 H 0.36421 0.31726 0.25078 0.0
H786 H 0.38315 0.22204 0.20444 0.0
H787 H 0.39405 0.21679 0.36126 0.0
H788 H 0.40813 0.33705 0.41126 0.0
H789 H 0.38955 0.35863 0.48304 0.0
H790 H 0.38361 0.35628 0.36519 0.0
H791 H 0.34218 0.33434 0.39781 0.0
H792 H 0.34781 0.33741 0.5156 0.0
H793 H 0.33839 0.30078 0.46896 0.0
H794 H 0.40515 0.2218 0.5157 0.0
H795 H 0.4068 0.2321 0.67611 0.0
H796 H 0.37783 0.32252 0.63213 0.0
C797 C 0.37039 0.29527 0.27427 0.0
C798 C 0.37299 0.27016 0.21556 0.0
C799 C 0.38093 0.24158 0.2483 0.0
C800 C 0.38749 0.23844 0.33701 0.0
C801 C 0.38557 0.26387 0.39235 0.0
C802 C 0.37651 0.29138 0.36378 0.0
C803 C 0.37462 0.31397 0.44034 0.0
C804 C 0.38989 0.34322 0.42393 0.0
C805 C 0.34924 0.32209 0.45665 0.0
C806 C 0.384 0.29461 0.51592 0.0
C807 C 0.39077 0.26616 0.48536 0.0
C808 C 0.39974 0.24384 0.54107 0.0
C809 C 0.40062 0.24997 0.63194 0.0
C810 C 0.39216 0.27794 0.66612 0.0
C811 C 0.38456 0.30109 0.60731 0.0
H812 H 0.05821 0.31423 0.50778 0.0
H813 H 0.07512 0.22426 0.40271 0.0
H814 H 0.0338 0.21241 0.37633 0.0
H815 H 0.0095 0.28831 0.6277 0.0
H816 H 0.99247 0.32184 0.60717 0.0
H817 H 0.02355 0.32547 0.6065 0.0
H818 H 0.02263 0.34885 0.44707 0.0
H819 H 0.99148 0.34537 0.44734 0.0
H820 H 1.0078 0.32786 0.35944 0.0
H821 H 0.99142 0.2078 0.37479 0.0
H822 H 0.94953 0.21013 0.40035 0.0
H823 H 0.95884 0.30277 0.50829 0.0
C824 C 0.05318 0.29238 0.47729 0.0
C825 C 0.06981 0.2702 0.45674 0.0
C826 C 0.06263 0.24154 0.41893 0.0
C827 C 0.03922 0.23466 0.40322 0.0
C828 C 0.0232 0.25667 0.42583 0.0
C829 C 0.02975 0.28496 0.462 0.0
C830 C 1.00874 0.30318 0.48755 0.0
C831 C 1.00856 0.31009 0.5882 0.0
C832 C 1.0076 0.33309 0.43201 0.0
C833 C 0.98946 0.28029 0.46239 0.0
C834 C 0.99829 0.25383 0.42582 0.0
C835 C 0.98422 0.22852 0.40224 0.0
C836 C 0.96045 0.23004 0.41746 0.0
C837 C 0.95094 0.25666 0.45615 0.0
C838 C 0.96561 0.28232 0.47749 0.0
H839 H 0.95739 0.72221 0.43734 0.0
H840 H 0.94036 0.81399 0.52823 0.0
H841 H 0.98172 0.8266 0.55134 0.0
H842 H 1.0078 0.71167 0.58674 0.0
H843 H 0.02411 0.69248 0.5019 0.0
H844 H 0.99296 0.68902 0.50254 0.0
H845 H 0.99204 0.7093 0.33965 0.0
H846 H 0.02313 0.71292 0.33861 0.0
H847 H 1.0061 0.746 0.31262 0.0
H848 H 0.02425 0.83128 0.55219 0.0
H849 H 0.0662 0.82819 0.52922 0.0
H850 H 0.05679 0.73361 0.436 0.0
C851 C 0.96239 0.74468 0.46398 0.0
C852 C 0.94569 0.76708 0.48153 0.0
C853 C 0.95287 0.79649 0.51439 0.0
C854 C 0.97631 0.80383 0.52814 0.0
C855 C 0.99238 0.78153 0.50859 0.0
C856 C 0.98584 0.75253 0.47732 0.0
C857 C 1.00686 0.73385 0.4549 0.0
C858 C 1.008 0.70505 0.51513 0.0
C859 C 1.00703 0.72501 0.35555 0.0
C860 C 0.02615 0.7572 0.47643 0.0
C861 C 0.01731 0.78438 0.50825 0.0
C862 C 0.03143 0.81003 0.52833 0.0
C863 C 0.05526 0.80805 0.51465 0.0
C864 C 0.06479 0.78064 0.48097 0.0
C865 C 0.05003 0.75472 0.46286 0.0
H866 H 0.56094 0.79692 -0.02063 0.0
H867 H 0.56508 0.69995 0.90808 0.0
H868 H 0.52268 0.69627 0.89348 0.0
H869 H 0.51173 0.78812 0.11449 0.0
H870 H 0.499 0.82401 0.08207 0.0
H871 H 0.52989 0.82033 0.07713 0.0
H872 H 0.52977 0.83601 0.91005 0.0
H873 H 0.49884 0.83985 0.91451 0.0
H874 H 0.51142 0.81473 0.83326 0.0
H875 H 0.48036 0.70135 0.89963 0.0
H876 H 0.43992 0.71493 0.92567 0.0
H877 H 0.46238 0.8088 -0.00717 0.0
C878 C 0.55293 0.7751 0.95893 0.0
C879 C 0.56629 0.74874 0.94451 0.0
C880 C 0.55519 0.72044 0.91947 0.0
C881 C 0.53112 0.71814 0.91063 0.0
C882 C 0.51842 0.74435 0.92688 0.0
C883 C 0.52886 0.77234 0.95021 0.0
C884 C 0.51096 0.79631 0.96991 0.0
C885 C 0.51302 0.80786 0.06664 0.0
C886 C 0.51286 0.82332 0.90291 0.0
C887 C 0.48887 0.77713 0.95611 0.0
C888 C 0.49366 0.74732 0.93052 0.0
C889 C 0.47632 0.72471 0.91855 0.0
C890 C 0.45342 0.73264 0.93392 0.0
C891 C 0.44802 0.76295 0.96102 0.0
C892 C 0.46599 0.78558 0.97103 0.0
H893 H 0.45635 0.23192 0.95501 0.0
H894 H 0.45113 0.32772 0.03686 0.0
H895 H 0.49333 0.33165 0.05625 0.0
H896 H 0.50515 0.21275 0.10439 0.0
H897 H 0.51853 0.18895 0.02176 0.0
H898 H 0.48753 0.19228 0.02347 0.0
H899 H 0.48847 0.21019 0.85825 0.0
H900 H 0.51942 0.20703 0.8561 0.0
H901 H 0.5066 0.24313 0.8263 0.0
H902 H 0.53568 0.32736 0.05333 0.0
H903 H 0.57645 0.3148 0.02967 0.0
H904 H 0.55532 0.22159 0.95063 0.0
C905 C 0.46409 0.25348 -0.02121 0.0
C906 C 0.45045 0.27949 -0.00535 0.0
C907 C 0.46122 0.30751 0.02413 0.0
C908 C 0.48518 0.30995 0.03576 0.0
C909 C 0.49819 0.28417 0.01786 0.0
C910 C 0.48812 0.2564 -0.00963 0.0
C911 C 0.50641 0.23301 0.96992 0.0
C912 C 0.50428 0.20509 0.03371 0.0
C913 C 0.50514 0.22275 0.87182 0.0
C914 C 0.52826 0.2523 -0.01192 0.0
C915 C 0.52301 0.28164 0.01639 0.0
C916 C 0.54007 0.30435 0.03238 0.0
C917 C 0.56317 0.29701 0.01836 0.0
C918 C 0.56905 0.26719 -0.01129 0.0
C919 C 0.55134 0.24443 0.97458 0.0
loop_
_geom_bond_atom_site_label_1
_geom_bond_atom_site_label_2
_geom_bond_distance
_geom_bond_site_symmetry_2
_ccdc_geom_bond_type
C0 O16 1.251 . S
C0 O18 1.254 . S
N1 C2 1.333 . S
N1 C6 1.307 . S
N1 Zn7 2.020 . S
C2 N1 1.333 . S
C2 C3 1.379 . S
C2 H20 0.952 . S
C3 C2 1.379 . S
C3 C4 1.390 . S
C3 H30 0.949 . S
C4 C3 1.390 . S
C4 C5 1.357 . S
C5 C4 1.357 . S
C5 C6 1.370 . S
C5 H31 0.950 . S
C6 N1 1.307 . S
C6 C5 1.370 . S
C6 H24 0.948 . S
Zn7 N1 2.020 . S
Zn7 O16 2.039 . S
Zn7 O22 2.034 . S
Zn7 O26 2.025 . S
Zn7 O28 2.024 . S
C8 O27 1.246 . S
C8 O28 1.249 . S
N9 C10 1.307 . S
N9 C11 1.333 . S
N9 Zn15 2.020 . S
C10 N9 1.307 . S
C10 C14 1.370 . S
C10 H21 0.948 . S
C11 N9 1.333 . S
C11 C12 1.379 . S
C11 H19 0.952 . S
C12 C11 1.379 . S
C12 C13 1.390 . S
C12 H32 0.949 . S
C13 C12 1.390 . S
C13 C14 1.357 . S
C14 C10 1.370 . S
C14 C13 1.357 . S
C14 H33 0.950 . S
Zn15 N9 2.020 . S
Zn15 O18 2.025 . S
Zn15 O23 2.024 . S
Zn15 O25 2.039 . S
Zn15 O27 2.034 . S
O16 C0 1.251 . S
O16 Zn7 2.039 . S
C17 O22 1.246 . S
C17 O23 1.249 . S
O18 C0 1.254 . S
O18 Zn15 2.025 . S
H19 C11 0.952 . S
H20 C2 0.952 . S
H21 C10 0.948 . S
O22 Zn7 2.034 . S
O22 C17 1.246 . S
O23 Zn15 2.024 . S
O23 C17 1.249 . S
H24 C6 0.948 . S
O25 Zn15 2.039 . S
O25 C29 1.251 . S
O26 Zn7 2.025 . S
O26 C29 1.254 . S
O27 C8 1.246 . S
O27 Zn15 2.034 . S
O28 Zn7 2.024 . S
O28 C8 1.249 . S
C29 O25 1.251 . S
C29 O26 1.254 . S
H30 C3 0.949 . S
H31 C5 0.950 . S
H32 C12 0.949 . S
H33 C14 0.950 . S
C34 O50 1.251 . S
C34 O52 1.254 . S
N35 C36 1.333 . S
N35 C40 1.307 . S
N35 Zn41 2.020 . S
C36 N35 1.333 . S
C36 C37 1.379 . S
C36 H54 0.952 . S
C37 C36 1.379 . S
C37 C38 1.390 . S
C37 H64 0.949 . S
C38 C37 1.390 . S
C38 C39 1.357 . S
C39 C38 1.357 . S
C39 C40 1.370 . S
C39 H65 0.950 . S
C40 N35 1.307 . S
C40 C39 1.370 . S
C40 H58 0.948 . S
Zn41 N35 2.020 . S
Zn41 O50 2.039 . S
Zn41 O56 2.034 . S
Zn41 O60 2.025 . S
Zn41 O62 2.024 . S
C42 O61 1.246 . S
C42 O62 1.249 . S
N43 C44 1.307 . S
N43 C45 1.333 . S
N43 Zn49 2.020 . S
C44 N43 1.307 . S
C44 C48 1.370 . S
C44 H55 0.948 . S
C45 N43 1.333 . S
C45 C46 1.379 . S
C45 H53 0.952 . S
C46 C45 1.379 . S
C46 C47 1.390 . S
C46 H66 0.949 . S
C47 C46 1.390 . S
C47 C48 1.357 . S
C48 C44 1.370 . S
C48 C47 1.357 . S
C48 H67 0.950 . S
Zn49 N43 2.020 . S
Zn49 O52 2.025 . S
Zn49 O57 2.024 . S
Zn49 O59 2.039 . S
Zn49 O61 2.034 . S
O50 C34 1.251 . S
O50 Zn41 2.039 . S
C51 O56 1.246 . S
C51 O57 1.249 . S
O52 C34 1.254 . S
O52 Zn49 2.025 . S
H53 C45 0.952 . S
H54 C36 0.952 . S
H55 C44 0.948 . S
O56 Zn41 2.034 . S
O56 C51 1.246 . S
O57 Zn49 2.024 . S
O57 C51 1.249 . S
H58 C40 0.948 . S
O59 Zn49 2.039 . S
O59 C63 1.251 . S
O60 Zn41 2.025 . S
O60 C63 1.254 . S
O61 C42 1.246 . S
O61 Zn49 2.034 . S
O62 Zn41 2.024 . S
O62 C42 1.249 . S
C63 O59 1.251 . S
C63 O60 1.254 . S
H64 C37 0.949 . S
H65 C39 0.950 . S
H66 C46 0.949 . S
H67 C48 0.950 . S
C68 O84 1.251 . S
C68 O86 1.254 . S
N69 C70 1.333 . S
N69 C74 1.307 . S
N69 Zn75 2.020 . S
C70 N69 1.333 . S
C70 C71 1.379 . S
C70 H88 0.952 . S
C71 C70 1.379 . S
C71 C72 1.390 . S
C71 H98 0.949 . S
C72 C71 1.390 . S
C72 C73 1.357 . S
C73 C72 1.357 . S
C73 C74 1.370 . S
C73 H99 0.950 . S
C74 N69 1.307 . S
C74 C73 1.370 . S
C74 H92 0.948 . S
Zn75 N69 2.020 . S
Zn75 O84 2.039 . S
Zn75 O90 2.034 . S
Zn75 O94 2.025 . S
Zn75 O96 2.024 . S
C76 O95 1.246 . S
C76 O96 1.249 . S
N77 C78 1.307 . S
N77 C79 1.333 . S
N77 Zn83 2.020 . S
C78 N77 1.307 . S
C78 C82 1.370 . S
C78 H89 0.948 . S
C79 N77 1.333 . S
C79 C80 1.379 . S
C79 H87 0.952 . S
C80 C79 1.379 . S
C80 C81 1.390 . S
C80 H100 0.949 . S
C81 C80 1.390 . S
C81 C82 1.357 . S
C82 C78 1.370 . S
C82 C81 1.357 . S
C82 H101 0.950 . S
Zn83 N77 2.020 . S
Zn83 O86 2.025 . S
Zn83 O91 2.024 . S
Zn83 O93 2.039 . S
Zn83 O95 2.034 . S
O84 C68 1.251 . S
O84 Zn75 2.039 . S
C85 O90 1.246 . S
C85 O91 1.249 . S
O86 C68 1.254 . S
O86 Zn83 2.025 . S
H87 C79 0.952 . S
H88 C70 0.952 . S
H89 C78 0.948 . S
O90 Zn75 2.034 . S
O90 C85 1.246 . S
O91 Zn83 2.024 . S
O91 C85 1.249 . S
H92 C74 0.948 . S
O93 Zn83 2.039 . S
O93 C97 1.251 . S
O94 Zn75 2.025 . S
O94 C97 1.254 . S
O95 C76 1.246 . S
O95 Zn83 2.034 . S
O96 Zn75 2.024 . S
O96 C76 1.249 . S
C97 O93 1.251 . S
C97 O94 1.254 . S
H98 C71 0.949 . S
H99 C73 0.950 . S
H100 C80 0.949 . S
H101 C82 0.950 . S
C102 O118 1.251 . S
C102 O120 1.254 . S
N103 C104 1.333 . S
N103 C108 1.307 . S
N103 Zn109 2.020 . S
C104 N103 1.333 . S
C104 C105 1.379 . S
C104 H122 0.952 . S
C105 C104 1.379 . S
C105 C106 1.390 . S
C105 H132 0.949 . S
C106 C105 1.390 . S
C106 C107 1.357 . S
C107 C106 1.357 . S
C107 C108 1.370 . S
C107 H133 0.950 . S
C108 N103 1.307 . S
C108 C107 1.370 . S
C108 H126 0.948 . S
Zn109 N103 2.020 . S
Zn109 O118 2.039 . S
Zn109 O124 2.034 . S
Zn109 O128 2.025 . S
Zn109 O130 2.024 . S
C110 O129 1.246 . S
C110 O130 1.249 . S
N111 C112 1.307 . S
N111 C113 1.333 . S
N111 Zn117 2.020 . S
C112 N111 1.307 . S
C112 C116 1.370 . S
C112 H123 0.948 . S
C113 N111 1.333 . S
C113 C114 1.379 . S
C113 H121 0.952 . S
C114 C113 1.379 . S
C114 C115 1.390 . S
C114 H134 0.949 . S
C115 C114 1.390 . S
C115 C116 1.357 . S
C116 C112 1.370 . S
C116 C115 1.357 . S
C116 H135 0.950 . S
Zn117 N111 2.020 . S
Zn117 O120 2.025 . S
Zn117 O125 2.024 . S
Zn117 O127 2.039 . S
Zn117 O129 2.034 . S
O118 C102 1.251 . S
O118 Zn109 2.039 . S
C119 O124 1.246 . S
C119 O125 1.249 . S
O120 C102 1.254 . S
O120 Zn117 2.025 . S
H121 C113 0.952 . S
H122 C104 0.952 . S
H123 C112 0.948 . S
O124 Zn109 2.034 . S
O124 C119 1.246 . S
O125 Zn117 2.024 . S
O125 C119 1.249 . S
H126 C108 0.948 . S
O127 Zn117 2.039 . S
O127 C131 1.251 . S
O128 Zn109 2.025 . S
O128 C131 1.254 . S
O129 C110 1.246 . S
O129 Zn117 2.034 . S
O130 Zn109 2.024 . S
O130 C110 1.249 . S
C131 O127 1.251 . S
C131 O128 1.254 . S
H132 C105 0.949 . S
H133 C107 0.950 . S
H134 C114 0.949 . S
H135 C116 0.950 . S
C136 O152 1.251 . S
C136 O154 1.254 . S
N137 C138 1.333 . S
N137 C142 1.307 . S
N137 Zn143 2.020 . S
C138 N137 1.333 . S
C138 C139 1.379 . S
C138 H156 0.952 . S
C139 C138 1.379 . S
C139 C140 1.390 . S
C139 H166 0.949 . S
C140 C139 1.390 . S
C140 C141 1.357 . S
C141 C140 1.357 . S
C141 C142 1.370 . S
C141 H167 0.950 . S
C142 N137 1.307 . S
C142 C141 1.370 . S
C142 H160 0.948 . S
Zn143 N137 2.020 . S
Zn143 O152 2.039 . S
Zn143 O158 2.034 1_554 S
Zn143 O162 2.025 . S
Zn143 O164 2.024 . S
C144 O163 1.246 . S
C144 O164 1.249 . S
N145 C146 1.307 . S
N145 C147 1.333 . S
N145 Zn151 2.020 . S
C146 N145 1.307 . S
C146 C150 1.370 . S
C146 H157 0.948 . S
C147 N145 1.333 . S
C147 C148 1.379 . S
C147 H155 0.952 . S
C148 C147 1.379 . S
C148 C149 1.390 . S
C148 H168 0.949 . S
C149 C148 1.390 . S
C149 C150 1.357 . S
C150 C146 1.370 . S
C150 C149 1.357 . S
C150 H169 0.950 . S
Zn151 N145 2.020 . S
Zn151 O154 2.025 . S
Zn151 O159 2.024 1_554 S
Zn151 O161 2.039 . S
Zn151 O163 2.034 . S
O152 C136 1.251 . S
O152 Zn143 2.039 . S
C153 O158 1.246 . S
C153 O159 1.249 . S
O154 C136 1.254 . S
O154 Zn151 2.025 . S
H155 C147 0.952 . S
H156 C138 0.952 . S
H157 C146 0.948 . S
O158 Zn143 2.034 1_556 S
O158 C153 1.246 . S
O159 Zn151 2.024 1_556 S
O159 C153 1.249 . S
H160 C142 0.948 . S
O161 Zn151 2.039 . S
O161 C165 1.251 . S
O162 Zn143 2.025 . S
O162 C165 1.254 . S
O163 C144 1.246 . S
O163 Zn151 2.034 . S
O164 Zn143 2.024 . S
O164 C144 1.249 . S
C165 O161 1.251 . S
C165 O162 1.254 . S
H166 C139 0.949 . S
H167 C141 0.950 . S
H168 C148 0.949 . S
H169 C150 0.950 . S
C170 O186 1.251 . S
C170 O188 1.254 . S
N171 C172 1.333 . S
N171 C176 1.307 . S
N171 Zn177 2.020 . S
C172 N171 1.333 . S
C172 C173 1.379 . S
C172 H190 0.952 . S
C173 C172 1.379 . S
C173 C174 1.390 . S
C173 H200 0.949 . S
C174 C173 1.390 . S
C174 C175 1.357 . S
C175 C174 1.357 . S
C175 C176 1.370 . S
C175 H201 0.950 . S
C176 N171 1.307 . S
C176 C175 1.370 . S
C176 H194 0.948 . S
Zn177 N171 2.020 . S
Zn177 O186 2.039 . S
Zn177 O192 2.034 . S
Zn177 O196 2.025 . S
Zn177 O198 2.024 1_554 S
C178 O197 1.246 . S
C178 O198 1.249 . S
N179 C180 1.307 . S
N179 C181 1.333 . S
N179 Zn185 2.020 . S
C180 N179 1.307 . S
C180 C184 1.370 . S
C180 H191 0.948 . S
C181 N179 1.333 . S
C181 C182 1.379 . S
C181 H189 0.952 . S
C182 C181 1.379 . S
C182 C183 1.390 . S
C182 H202 0.949 . S
C183 C182 1.390 . S
C183 C184 1.357 . S
C184 C180 1.370 . S
C184 C183 1.357 . S
C184 H203 0.950 . S
Zn185 N179 2.020 . S
Zn185 O188 2.025 . S
Zn185 O193 2.024 . S
Zn185 O195 2.039 . S
Zn185 O197 2.034 1_554 S
O186 C170 1.251 . S
O186 Zn177 2.039 . S
C187 O192 1.246 . S
C187 O193 1.249 . S
O188 C170 1.254 . S
O188 Zn185 2.025 . S
H189 C181 0.952 . S
H190 C172 0.952 . S
H191 C180 0.948 . S
O192 Zn177 2.034 . S
O192 C187 1.246 . S
O193 Zn185 2.024 . S
O193 C187 1.249 . S
H194 C176 0.948 . S
O195 Zn185 2.039 . S
O195 C199 1.251 . S
O196 Zn177 2.025 . S
O196 C199 1.254 . S
O197 C178 1.246 . S
O197 Zn185 2.034 1_556 S
O198 Zn177 2.024 1_556 S
O198 C178 1.249 . S
C199 O195 1.251 . S
C199 O196 1.254 . S
H200 C173 0.949 . S
H201 C175 0.950 . S
H202 C182 0.949 . S
H203 C184 0.950 . S
C204 O220 1.251 . S
C204 O222 1.254 . S
N205 C206 1.333 . S
N205 C210 1.307 . S
N205 Zn211 2.020 . S
C206 N205 1.333 . S
C206 C207 1.379 . S
C206 H224 0.952 . S
C207 C206 1.379 . S
C207 C208 1.390 . S
C207 H234 0.949 . S
C208 C207 1.390 . S
C208 C209 1.357 . S
C209 C208 1.357 . S
C209 C210 1.370 . S
C209 H235 0.950 . S
C210 N205 1.307 . S
C210 C209 1.370 . S
C210 H228 0.948 . S
Zn211 N205 2.020 . S
Zn211 O220 2.039 . S
Zn211 O226 2.034 . S
Zn211 O230 2.025 . S
Zn211 O232 2.024 1_556 S
C212 O231 1.246 . S
C212 O232 1.249 . S
N213 C214 1.307 . S
N213 C215 1.333 . S
N213 Zn219 2.020 . S
C214 N213 1.307 . S
C214 C218 1.370 . S
C214 H225 0.948 . S
C215 N213 1.333 . S
C215 C216 1.379 . S
C215 H223 0.952 . S
C216 C215 1.379 . S
C216 C217 1.390 . S
C216 H236 0.949 . S
C217 C216 1.390 . S
C217 C218 1.357 . S
C218 C214 1.370 . S
C218 C217 1.357 . S
C218 H237 0.950 . S
Zn219 N213 2.020 . S
Zn219 O222 2.025 . S
Zn219 O227 2.024 . S
Zn219 O229 2.039 . S
Zn219 O231 2.034 1_556 S
O220 C204 1.251 . S
O220 Zn211 2.039 . S
C221 O226 1.246 . S
C221 O227 1.249 . S
O222 C204 1.254 . S
O222 Zn219 2.025 . S
H223 C215 0.952 . S
H224 C206 0.952 . S
H225 C214 0.948 . S
O226 Zn211 2.034 . S
O226 C221 1.246 . S
O227 Zn219 2.024 . S
O227 C221 1.249 . S
H228 C210 0.948 . S
O229 Zn219 2.039 . S
O229 C233 1.251 . S
O230 Zn211 2.025 . S
O230 C233 1.254 . S
O231 C212 1.246 . S
O231 Zn219 2.034 1_554 S
O232 Zn211 2.024 1_554 S
O232 C212 1.249 . S
C233 O229 1.251 . S
C233 O230 1.254 . S
H234 C207 0.949 . S
H235 C209 0.950 . S
H236 C216 0.949 . S
H237 C218 0.950 . S
C238 O254 1.251 . S
C238 O256 1.254 . S
N239 C240 1.333 . S
N239 C244 1.307 . S
N239 Zn245 2.020 . S
C240 N239 1.333 . S
C240 C241 1.379 . S
C240 H258 0.952 . S
C241 C240 1.379 . S
C241 C242 1.390 . S
C241 H268 0.949 . S
C242 C241 1.390 . S
C242 C243 1.357 . S
C243 C242 1.357 . S
C243 C244 1.370 . S
C243 H269 0.950 . S
C244 N239 1.307 . S
C244 C243 1.370 . S
C244 H262 0.948 . S
Zn245 N239 2.020 . S
Zn245 O254 2.039 . S
Zn245 O260 2.034 . S
Zn245 O264 2.025 . S
Zn245 O266 2.024 1_556 S
C246 O265 1.246 . S
C246 O266 1.249 . S
N247 C248 1.307 . S
N247 C249 1.333 . S
N247 Zn253 2.020 . S
C248 N247 1.307 . S
C248 C252 1.370 . S
C248 H259 0.948 . S
C249 N247 1.333 . S
C249 C250 1.379 . S
C249 H257 0.952 . S
C250 C249 1.379 . S
C250 C251 1.390 . S
C250 H270 0.949 . S
C251 C250 1.390 . S
C251 C252 1.357 . S
C252 C248 1.370 . S
C252 C251 1.357 . S
C252 H271 0.950 . S
Zn253 N247 2.020 . S
Zn253 O256 2.025 . S
Zn253 O261 2.024 . S
Zn253 O263 2.039 . S
Zn253 O265 2.034 1_556 S
O254 C238 1.251 . S
O254 Zn245 2.039 . S
C255 O260 1.246 . S
C255 O261 1.249 . S
O256 C238 1.254 . S
O256 Zn253 2.025 . S
H257 C249 0.952 . S
H258 C240 0.952 . S
H259 C248 0.948 . S
O260 Zn245 2.034 . S
O260 C255 1.246 . S
O261 Zn253 2.024 . S
O261 C255 1.249 . S
H262 C244 0.948 . S
O263 Zn253 2.039 . S
O263 C267 1.251 . S
O264 Zn245 2.025 . S
O264 C267 1.254 . S
O265 C246 1.246 . S
O265 Zn253 2.034 1_554 S
O266 Zn245 2.024 1_554 S
O266 C246 1.249 . S
C267 O263 1.251 . S
C267 O264 1.254 . S
H268 C241 0.949 . S
H269 C243 0.950 . S
H270 C250 0.949 . S
H271 C252 0.950 . S
H272 C284 0.930 . S
H273 C286 0.930 . S
H274 C287 0.930 . S
H275 C291 0.959 . S
H276 C291 0.959 . S
H277 C291 0.961 . S
H278 C292 0.960 . S
H279 C292 0.961 . S
H280 C292 0.959 . S
H281 C295 0.929 . S
H282 C296 0.931 . S
H283 C298 0.930 . S
C284 H272 0.930 . S
C284 C285 1.399 . S
C284 C289 1.399 . S
C285 C284 1.399 . S
C285 C286 1.376 . S
C286 H273 0.930 . S
C286 C285 1.376 . S
C286 C287 1.388 . S
C287 H274 0.930 . S
C287 C286 1.388 . S
C287 C288 1.390 . S
C288 C287 1.390 . S
C288 C289 1.394 . S
C288 C294 1.465 . S
C289 C284 1.399 . S
C289 C288 1.394 . S
C289 C290 1.516 . S
C290 C289 1.516 . S
C290 C291 1.502 . S
C290 C292 1.561 . S
C290 C293 1.526 . S
C291 H275 0.959 . S
C291 H276 0.959 . S
C291 H277 0.961 . S
C291 C290 1.502 . S
C292 H278 0.960 . S
C292 H279 0.961 . S
C292 H280 0.959 . S
C292 C290 1.561 . S
C293 C290 1.526 . S
C293 C294 1.396 . S
C293 C298 1.390 . S
C294 C288 1.465 . S
C294 C293 1.396 . S
C294 C295 1.399 . S
C295 H281 0.929 . S
C295 C294 1.399 . S
C295 C296 1.385 . S
C296 H282 0.931 . S
C296 C295 1.385 . S
C296 C297 1.389 . S
C297 C296 1.389 . S
C297 C298 1.387 . S
C298 H283 0.930 . S
C298 C293 1.390 . S
C298 C297 1.387 . S
H299 C311 0.930 . S
H300 C313 0.930 . S
H301 C314 0.930 . S
H302 C318 0.959 . S
H303 C318 0.959 . S
H304 C318 0.961 . S
H305 C319 0.960 . S
H306 C319 0.961 . S
H307 C319 0.959 . S
H308 C322 0.929 . S
H309 C323 0.931 . S
H310 C325 0.930 . S
C311 H299 0.930 . S
C311 C312 1.399 . S
C311 C316 1.399 . S
C312 C311 1.399 . S
C312 C313 1.376 . S
C313 H300 0.930 . S
C313 C312 1.376 . S
C313 C314 1.388 . S
C314 H301 0.930 . S
C314 C313 1.388 . S
C314 C315 1.390 . S
C315 C314 1.390 . S
C315 C316 1.394 . S
C315 C321 1.465 . S
C316 C311 1.399 . S
C316 C315 1.394 . S
C316 C317 1.516 . S
C317 C316 1.516 . S
C317 C318 1.502 . S
C317 C319 1.561 . S
C317 C320 1.526 . S
C318 H302 0.959 . S
C318 H303 0.959 . S
C318 H304 0.961 . S
C318 C317 1.502 . S
C319 H305 0.960 . S
C319 H306 0.961 . S
C319 H307 0.959 . S
C319 C317 1.561 . S
C320 C317 1.526 . S
C320 C321 1.396 . S
C320 C325 1.390 . S
C321 C315 1.465 . S
C321 C320 1.396 . S
C321 C322 1.399 . S
C322 H308 0.929 . S
C322 C321 1.399 . S
C322 C323 1.385 . S
C323 H309 0.931 . S
C323 C322 1.385 . S
C323 C324 1.389 . S
C324 C323 1.389 . S
C324 C325 1.387 . S
C325 H310 0.930 . S
C325 C320 1.390 . S
C325 C324 1.387 . S
H326 C338 0.930 . S
H327 C340 0.930 . S
H328 C341 0.930 . S
H329 C345 0.959 . S
H330 C345 0.959 . S
H331 C345 0.961 . S
H332 C346 0.960 . S
H333 C346 0.961 . S
H334 C346 0.959 . S
H335 C349 0.929 . S
H336 C350 0.931 . S
H337 C352 0.930 . S
C338 H326 0.930 . S
C338 C339 1.399 . S
C338 C343 1.399 . S
C339 C338 1.399 . S
C339 C340 1.376 . S
C340 H327 0.930 . S
C340 C339 1.376 . S
C340 C341 1.388 . S
C341 H328 0.930 . S
C341 C340 1.388 . S
C341 C342 1.390 . S
C342 C341 1.390 . S
C342 C343 1.394 . S
C342 C348 1.465 . S
C343 C338 1.399 . S
C343 C342 1.394 . S
C343 C344 1.516 . S
C344 C343 1.516 . S
C344 C345 1.502 . S
C344 C346 1.561 . S
C344 C347 1.526 . S
C345 H329 0.959 . S
C345 H330 0.959 . S
C345 H331 0.961 . S
C345 C344 1.502 . S
C346 H332 0.960 . S
C346 H333 0.961 . S
C346 H334 0.959 . S
C346 C344 1.561 . S
C347 C344 1.526 . S
C347 C348 1.396 . S
C347 C352 1.390 . S
C348 C342 1.465 . S
C348 C347 1.396 . S
C348 C349 1.399 . S
C349 H335 0.929 . S
C349 C348 1.399 . S
C349 C350 1.385 . S
C350 H336 0.931 . S
C350 C349 1.385 . S
C350 C351 1.389 . S
C351 C350 1.389 . S
C351 C352 1.387 . S
C352 H337 0.930 . S
C352 C347 1.390 . S
C352 C351 1.387 . S
H353 C365 0.930 . S
H354 C367 0.930 . S
H355 C368 0.930 . S
H356 C372 0.959 . S
H357 C372 0.959 . S
H358 C372 0.961 . S
H359 C373 0.960 . S
H360 C373 0.961 . S
H361 C373 0.959 . S
H362 C376 0.929 . S
H363 C377 0.931 . S
H364 C379 0.930 . S
C365 H353 0.930 . S
C365 C366 1.399 . S
C365 C370 1.399 . S
C366 C365 1.399 . S
C366 C367 1.376 . S
C367 H354 0.930 . S
C367 C366 1.376 . S
C367 C368 1.388 . S
C368 H355 0.930 . S
C368 C367 1.388 . S
C368 C369 1.390 . S
C369 C368 1.390 . S
C369 C370 1.394 . S
C369 C375 1.465 . S
C370 C365 1.399 . S
C370 C369 1.394 . S
C370 C371 1.516 . S
C371 C370 1.516 . S
C371 C372 1.502 . S
C371 C373 1.561 . S
C371 C374 1.526 . S
C372 H356 0.959 . S
C372 H357 0.959 . S
C372 H358 0.961 . S
C372 C371 1.502 . S
C373 H359 0.960 . S
C373 H360 0.961 . S
C373 H361 0.959 . S
C373 C371 1.561 . S
C374 C371 1.526 . S
C374 C375 1.396 . S
C374 C379 1.390 . S
C375 C369 1.465 . S
C375 C374 1.396 . S
C375 C376 1.399 . S
C376 H362 0.929 . S
C376 C375 1.399 . S
C376 C377 1.385 . S
C377 H363 0.931 . S
C377 C376 1.385 . S
C377 C378 1.389 . S
C378 C377 1.389 . S
C378 C379 1.387 . S
C379 H364 0.930 . S
C379 C374 1.390 . S
C379 C378 1.387 . S
H380 C392 0.930 . S
H381 C394 0.930 . S
H382 C395 0.930 . S
H383 C399 0.959 . S
H384 C399 0.959 . S
H385 C399 0.961 1_565 S
H386 C400 0.960 1_565 S
H387 C400 0.961 . S
H388 C400 0.959 . S
H389 C403 0.929 . S
H390 C404 0.931 . S
H391 C406 0.930 . S
C392 H380 0.930 . S
C392 C393 1.399 . S
C392 C397 1.399 . S
C393 C392 1.399 . S
C393 C394 1.376 . S
C394 H381 0.930 . S
C394 C393 1.376 . S
C394 C395 1.388 . S
C395 H382 0.930 . S
C395 C394 1.388 . S
C395 C396 1.390 . S
C396 C395 1.390 . S
C396 C397 1.394 . S
C396 C402 1.465 1_565 S
C397 C392 1.399 . S
C397 C396 1.394 . S
C397 C398 1.516 1_565 S
C398 C397 1.516 1_545 S
C398 C399 1.502 . S
C398 C400 1.561 . S
C398 C401 1.526 . S
C399 H383 0.959 . S
C399 H384 0.959 . S
C399 H385 0.961 1_545 S
C399 C398 1.502 . S
C400 H386 0.960 1_545 S
C400 H387 0.961 . S
C400 H388 0.959 . S
C400 C398 1.561 . S
C401 C398 1.526 . S
C401 C402 1.396 . S
C401 C406 1.390 . S
C402 C396 1.465 1_545 S
C402 C401 1.396 . S
C402 C403 1.399 . S
C403 H389 0.929 . S
C403 C402 1.399 . S
C403 C404 1.385 . S
C404 H390 0.931 . S
C404 C403 1.385 . S
C404 C405 1.389 . S
C405 C404 1.389 . S
C405 C406 1.387 . S
C406 H391 0.930 . S
C406 C401 1.390 . S
C406 C405 1.387 . S
H407 C419 0.930 . S
H408 C421 0.930 . S
H409 C422 0.930 . S
H410 C426 0.959 . S
H411 C426 0.959 . S
H412 C426 0.961 . S
H413 C427 0.960 . S
H414 C427 0.961 . S
H415 C427 0.959 . S
H416 C430 0.929 . S
H417 C431 0.931 . S
H418 C433 0.930 . S
C419 H407 0.930 . S
C419 C420 1.399 . S
C419 C424 1.399 . S
C420 C419 1.399 . S
C420 C421 1.376 . S
C421 H408 0.930 . S
C421 C420 1.376 . S
C421 C422 1.388 . S
C422 H409 0.930 . S
C422 C421 1.388 . S
C422 C423 1.390 . S
C423 C422 1.390 . S
C423 C424 1.394 . S
C423 C429 1.465 . S
C424 C419 1.399 . S
C424 C423 1.394 . S
C424 C425 1.516 . S
C425 C424 1.516 . S
C425 C426 1.502 . S
C425 C427 1.561 . S
C425 C428 1.526 . S
C426 H410 0.959 . S
C426 H411 0.959 . S
C426 H412 0.961 . S
C426 C425 1.502 . S
C427 H413 0.960 . S
C427 H414 0.961 . S
C427 H415 0.959 . S
C427 C425 1.561 . S
C428 C425 1.526 . S
C428 C429 1.396 . S
C428 C433 1.390 . S
C429 C423 1.465 . S
C429 C428 1.396 . S
C429 C430 1.399 . S
C430 H416 0.929 . S
C430 C429 1.399 . S
C430 C431 1.385 . S
C431 H417 0.931 . S
C431 C430 1.385 . S
C431 C432 1.389 . S
C432 C431 1.389 . S
C432 C433 1.387 . S
C433 H418 0.930 . S
C433 C428 1.390 . S
C433 C432 1.387 . S
H434 C446 0.930 . S
H435 C448 0.930 . S
H436 C449 0.930 . S
H437 C453 0.959 . S
H438 C453 0.959 . S
H439 C453 0.961 1_565 S
H440 C454 0.960 1_565 S
H441 C454 0.961 . S
H442 C454 0.959 . S
H443 C457 0.929 . S
H444 C458 0.931 . S
H445 C460 0.930 . S
C446 H434 0.930 . S
C446 C447 1.399 . S
C446 C451 1.399 . S
C447 C446 1.399 . S
C447 C448 1.376 . S
C448 H435 0.930 . S
C448 C447 1.376 . S
C448 C449 1.388 . S
C449 H436 0.930 . S
C449 C448 1.388 . S
C449 C450 1.390 . S
C450 C449 1.390 . S
C450 C451 1.394 . S
C450 C456 1.465 1_565 S
C451 C446 1.399 . S
C451 C450 1.394 . S
C451 C452 1.516 1_565 S
C452 C451 1.516 1_545 S
C452 C453 1.502 . S
C452 C454 1.561 . S
C452 C455 1.526 . S
C453 H437 0.959 . S
C453 H438 0.959 . S
C453 H439 0.961 1_545 S
C453 C452 1.502 . S
C454 H440 0.960 1_545 S
C454 H441 0.961 . S
C454 H442 0.959 . S
C454 C452 1.561 . S
C455 C452 1.526 . S
C455 C456 1.396 . S
C455 C460 1.390 . S
C456 C450 1.465 1_545 S
C456 C455 1.396 . S
C456 C457 1.399 . S
C457 H443 0.929 . S
C457 C456 1.399 . S
C457 C458 1.385 . S
C458 H444 0.931 . S
C458 C457 1.385 . S
C458 C459 1.389 . S
C459 C458 1.389 . S
C459 C460 1.387 . S
C460 H445 0.930 . S
C460 C455 1.390 . S
C460 C459 1.387 . S
H461 C473 0.930 . S
H462 C475 0.930 . S
H463 C476 0.930 . S
H464 C480 0.959 . S
H465 C480 0.959 . S
H466 C480 0.961 . S
H467 C481 0.960 . S
H468 C481 0.961 . S
H469 C481 0.959 . S
H470 C484 0.929 . S
H471 C485 0.931 . S
H472 C487 0.930 . S
C473 H461 0.930 . S
C473 C474 1.399 . S
C473 C478 1.399 . S
C474 C473 1.399 . S
C474 C475 1.376 . S
C475 H462 0.930 . S
C475 C474 1.376 . S
C475 C476 1.388 . S
C476 H463 0.930 . S
C476 C475 1.388 . S
C476 C477 1.390 . S
C477 C476 1.390 . S
C477 C478 1.394 . S
C477 C483 1.465 . S
C478 C473 1.399 . S
C478 C477 1.394 . S
C478 C479 1.516 . S
C479 C478 1.516 . S
C479 C480 1.502 . S
C479 C481 1.561 . S
C479 C482 1.526 . S
C480 H464 0.959 . S
C480 H465 0.959 . S
C480 H466 0.961 . S
C480 C479 1.502 . S
C481 H467 0.960 . S
C481 H468 0.961 . S
C481 H469 0.959 . S
C481 C479 1.561 . S
C482 C479 1.526 . S
C482 C483 1.396 . S
C482 C487 1.390 . S
C483 C477 1.465 . S
C483 C482 1.396 . S
C483 C484 1.399 . S
C484 H470 0.929 . S
C484 C483 1.399 . S
C484 C485 1.385 . S
C485 H471 0.931 . S
C485 C484 1.385 . S
C485 C486 1.389 . S
C486 C485 1.389 . S
C486 C487 1.387 . S
C487 H472 0.930 . S
C487 C482 1.390 . S
C487 C486 1.387 . S
H488 C500 0.930 . S
H489 C502 0.930 . S
H490 C503 0.931 . S
H491 C507 0.959 . S
H492 C507 0.959 . S
H493 C507 0.961 . S
H494 C508 0.960 . S
H495 C508 0.961 . S
H496 C508 0.959 . S
H497 C511 0.929 . S
H498 C512 0.931 . S
H499 C514 0.930 . S
C500 H488 0.930 . S
C500 C501 1.399 . S
C500 C505 1.399 . S
C501 C500 1.399 . S
C501 C502 1.376 . S
C502 H489 0.930 . S
C502 C501 1.376 . S
C502 C503 1.386 1_554 S
C503 H490 0.931 . S
C503 C502 1.386 1_556 S
C503 C504 1.390 . S
C504 C503 1.390 . S
C504 C505 1.394 1_556 S
C504 C510 1.465 . S
C505 C500 1.399 . S
C505 C504 1.394 1_554 S
C505 C506 1.516 1_554 S
C506 C505 1.516 1_556 S
C506 C507 1.502 1_556 S
C506 C508 1.561 . S
C506 C509 1.526 . S
C507 H491 0.959 . S
C507 H492 0.959 . S
C507 H493 0.961 . S
C507 C506 1.502 1_554 S
C508 H494 0.960 . S
C508 H495 0.961 . S
C508 H496 0.959 . S
C508 C506 1.561 . S
C509 C506 1.526 . S
C509 C510 1.396 . S
C509 C514 1.390 . S
C510 C504 1.465 . S
C510 C509 1.396 . S
C510 C511 1.399 . S
C511 H497 0.929 . S
C511 C510 1.399 . S
C511 C512 1.385 . S
C512 H498 0.931 . S
C512 C511 1.385 . S
C512 C513 1.389 . S
C513 C512 1.389 . S
C513 C514 1.387 . S
C514 H499 0.930 . S
C514 C509 1.390 . S
C514 C513 1.387 . S
H515 C527 0.930 . S
H516 C529 0.930 . S
H517 C530 0.930 . S
H518 C534 0.960 1_545 S
H519 C534 0.959 1_545 S
H520 C534 0.961 . S
H521 C535 0.960 . S
H522 C535 0.970 . S
H523 C535 0.959 . S
H524 C538 0.929 . S
H525 C539 0.931 . S
H526 C541 0.930 . S
C527 H515 0.930 . S
C527 C528 1.399 1_556 S
C527 C532 1.399 . S
C528 C527 1.399 1_554 S
C528 C529 1.376 . S
C529 H516 0.930 . S
C529 C528 1.376 . S
C529 C530 1.388 . S
C530 H517 0.930 . S
C530 C529 1.388 . S
C530 C531 1.390 . S
C531 C530 1.390 . S
C531 C532 1.394 1_554 S
C531 C537 1.465 1_565 S
C532 C527 1.399 . S
C532 C531 1.394 1_556 S
C532 C533 1.516 . S
C533 C532 1.516 . S
C533 C534 1.502 . S
C533 C535 1.561 . S
C533 C536 1.526 1_565 S
C534 H518 0.960 1_565 S
C534 H519 0.959 1_565 S
C534 H520 0.961 . S
C534 C533 1.502 . S
C535 H521 0.960 . S
C535 H522 0.970 . S
C535 H523 0.959 . S
C535 C533 1.561 . S
C536 C533 1.526 1_545 S
C536 C537 1.396 1_556 S
C536 C541 1.390 . S
C537 C531 1.465 1_545 S
C537 C536 1.396 1_554 S
C537 C538 1.399 . S
C538 H524 0.929 . S
C538 C537 1.399 . S
C538 C539 1.385 . S
C539 H525 0.931 . S
C539 C538 1.385 . S
C539 C540 1.389 1_554 S
C540 C539 1.389 1_556 S
C540 C541 1.387 . S
C541 H526 0.930 . S
C541 C536 1.390 . S
C541 C540 1.387 . S
H542 C554 0.930 . S
H543 C556 0.930 . S
H544 C557 0.930 . S
H545 C561 0.959 . S
H546 C561 0.959 . S
H547 C561 0.961 . S
H548 C562 0.960 . S
H549 C562 0.961 . S
H550 C562 0.959 . S
H551 C565 0.929 . S
H552 C566 0.931 . S
H553 C568 0.930 . S
C554 H542 0.930 . S
C554 C555 1.399 . S
C554 C559 1.399 . S
C555 C554 1.399 . S
C555 C556 1.376 1_556 S
C556 H543 0.930 . S
C556 C555 1.376 1_554 S
C556 C557 1.388 . S
C557 H544 0.930 . S
C557 C556 1.388 . S
C557 C558 1.390 . S
C558 C557 1.390 . S
C558 C559 1.394 1_554 S
C558 C564 1.465 . S
C559 C554 1.399 . S
C559 C558 1.394 1_556 S
C559 C560 1.516 . S
C560 C559 1.516 . S
C560 C561 1.502 . S
C560 C562 1.561 . S
C560 C563 1.526 . S
C561 H545 0.959 . S
C561 H546 0.959 . S
C561 H547 0.961 . S
C561 C560 1.502 . S
C562 H548 0.960 . S
C562 H549 0.961 . S
C562 H550 0.959 . S
C562 C560 1.561 . S
C563 C560 1.526 . S
C563 C564 1.396 1_556 S
C563 C568 1.390 . S
C564 C558 1.465 . S
C564 C563 1.396 1_554 S
C564 C565 1.399 . S
C565 H551 0.929 . S
C565 C564 1.399 . S
C565 C566 1.385 . S
C566 H552 0.931 . S
C566 C565 1.385 . S
C566 C567 1.389 . S
C567 C566 1.389 . S
C567 C568 1.387 1_554 S
C568 H553 0.930 . S
C568 C563 1.390 . S
C568 C567 1.387 1_556 S
H569 C581 0.930 . S
H570 C583 0.930 . S
H571 C584 0.930 . S
H572 C588 0.959 . S
H573 C588 0.959 . S
H574 C588 0.961 1_545 S
H575 C589 0.960 1_545 S
H576 C589 0.961 . S
H577 C589 0.959 . S
H578 C592 0.929 . S
H579 C593 0.931 . S
H580 C595 0.930 . S
C581 H569 0.930 . S
C581 C582 1.399 . S
C581 C586 1.399 . S
C582 C581 1.399 . S
C582 C583 1.376 1_556 S
C583 H570 0.930 . S
C583 C582 1.376 1_554 S
C583 C584 1.388 . S
C584 H571 0.930 . S
C584 C583 1.388 . S
C584 C585 1.390 . S
C585 C584 1.390 . S
C585 C586 1.394 1_554 S
C585 C591 1.465 1_545 S
C586 C581 1.399 . S
C586 C585 1.394 1_556 S
C586 C587 1.516 1_545 S
C587 C586 1.516 1_565 S
C587 C588 1.502 . S
C587 C589 1.561 . S
C587 C590 1.526 . S
C588 H572 0.959 . S
C588 H573 0.959 . S
C588 H574 0.961 1_565 S
C588 C587 1.502 . S
C589 H575 0.960 1_565 S
C589 H576 0.961 . S
C589 H577 0.959 . S
C589 C587 1.561 . S
C590 C587 1.526 . S
C590 C591 1.396 1_556 S
C590 C595 1.390 . S
C591 C585 1.465 1_565 S
C591 C590 1.396 1_554 S
C591 C592 1.399 . S
C592 H578 0.929 . S
C592 C591 1.399 . S
C592 C593 1.385 . S
C593 H579 0.931 . S
C593 C592 1.385 . S
C593 C594 1.389 . S
C594 C593 1.389 . S
C594 C595 1.387 1_554 S
C595 H580 0.930 . S
C595 C590 1.390 . S
C595 C594 1.387 1_556 S
H596 C608 0.930 . S
H597 C610 0.930 . S
H598 C611 0.930 . S
H599 C615 0.959 . S
H600 C615 0.959 . S
H601 C615 0.961 . S
H602 C616 0.960 . S
H603 C616 0.961 . S
H604 C616 0.959 . S
H605 C619 0.929 . S
H606 C620 0.931 . S
H607 C622 0.930 . S
C608 H596 0.930 . S
C608 C609 1.399 . S
C608 C613 1.399 . S
C609 C608 1.399 . S
C609 C610 1.376 . S
C610 H597 0.930 . S
C610 C609 1.376 . S
C610 C611 1.388 . S
C611 H598 0.930 . S
C611 C610 1.388 . S
C611 C612 1.390 . S
C612 C611 1.390 . S
C612 C613 1.394 . S
C612 C618 1.465 . S
C613 C608 1.399 . S
C613 C612 1.394 . S
C613 C614 1.516 . S
C614 C613 1.516 . S
C614 C615 1.502 . S
C614 C616 1.561 . S
C614 C617 1.526 1_554 S
C615 H599 0.959 . S
C615 H600 0.959 . S
C615 H601 0.961 . S
C615 C614 1.502 . S
C616 H602 0.960 . S
C616 H603 0.961 . S
C616 H604 0.959 . S
C616 C614 1.561 . S
C617 C614 1.526 1_556 S
C617 C618 1.396 1_556 S
C617 C622 1.390 . S
C618 C612 1.465 . S
C618 C617 1.396 1_554 S
C618 C619 1.399 1_554 S
C619 H605 0.929 . S
C619 C618 1.399 1_556 S
C619 C620 1.385 . S
C620 H606 0.931 . S
C620 C619 1.385 . S
C620 C621 1.389 . S
C621 C620 1.389 . S
C621 C622 1.387 . S
C622 H607 0.930 . S
C622 C617 1.390 . S
C622 C621 1.387 . S
H623 C635 0.930 . S
H624 C637 0.930 . S
H625 C638 0.930 . S
H626 C642 0.959 . S
H627 C642 0.959 . S
H628 C642 0.961 . S
H629 C643 0.960 . S
H630 C643 0.961 . S
H631 C643 0.959 . S
H632 C646 0.929 . S
H633 C647 0.931 . S
H634 C649 0.930 . S
C635 H623 0.930 . S
C635 C636 1.399 . S
C635 C640 1.399 . S
C636 C635 1.399 . S
C636 C637 1.376 . S
C637 H624 0.930 . S
C637 C636 1.376 . S
C637 C638 1.388 . S
C638 H625 0.930 . S
C638 C637 1.388 . S
C638 C639 1.390 . S
C639 C638 1.390 . S
C639 C640 1.394 . S
C639 C645 1.465 . S
C640 C635 1.399 . S
C640 C639 1.394 . S
C640 C641 1.516 . S
C641 C640 1.516 . S
C641 C642 1.502 . S
C641 C643 1.561 . S
C641 C644 1.526 1_554 S
C642 H626 0.959 . S
C642 H627 0.959 . S
C642 H628 0.961 . S
C642 C641 1.502 . S
C643 H629 0.960 . S
C643 H630 0.961 . S
C643 H631 0.959 . S
C643 C641 1.561 . S
C644 C641 1.526 1_556 S
C644 C645 1.396 1_556 S
C644 C649 1.390 . S
C645 C639 1.465 . S
C645 C644 1.396 1_554 S
C645 C646 1.399 1_554 S
C646 H632 0.929 . S
C646 C645 1.399 1_556 S
C646 C647 1.385 . S
C647 H633 0.931 . S
C647 C646 1.385 . S
C647 C648 1.389 . S
C648 C647 1.389 . S
C648 C649 1.387 . S
C649 H634 0.930 . S
C649 C644 1.390 . S
C649 C648 1.387 . S
H650 C662 0.930 . S
H651 C664 0.930 . S
H652 C665 0.930 . S
H653 C669 0.959 . S
H654 C669 0.959 . S
H655 C669 0.961 . S
H656 C670 0.960 . S
H657 C670 0.961 . S
H658 C670 0.959 . S
H659 C673 0.929 . S
H660 C674 0.931 . S
H661 C676 0.930 . S
C662 H650 0.930 . S
C662 C663 1.399 . S
C662 C667 1.399 . S
C663 C662 1.399 . S
C663 C664 1.376 . S
C664 H651 0.930 . S
C664 C663 1.376 . S
C664 C665 1.388 . S
C665 H652 0.930 . S
C665 C664 1.388 . S
C665 C666 1.390 1_554 S
C666 C665 1.390 1_556 S
C666 C667 1.394 1_556 S
C666 C672 1.465 . S
C667 C662 1.399 . S
C667 C666 1.394 1_554 S
C667 C668 1.516 1_554 S
C668 C667 1.516 1_556 S
C668 C669 1.502 . S
C668 C670 1.561 . S
C668 C671 1.526 . S
C669 H653 0.959 . S
C669 H654 0.959 . S
C669 H655 0.961 . S
C669 C668 1.502 . S
C670 H656 0.960 . S
C670 H657 0.961 . S
C670 H658 0.959 . S
C670 C668 1.561 . S
C671 C668 1.526 . S
C671 C672 1.396 . S
C671 C676 1.390 . S
C672 C666 1.465 . S
C672 C671 1.396 . S
C672 C673 1.399 . S
C673 H659 0.929 . S
C673 C672 1.399 . S
C673 C674 1.385 . S
C674 H660 0.931 . S
C674 C673 1.385 . S
C674 C675 1.389 . S
C675 C674 1.389 . S
C675 C676 1.387 . S
C676 H661 0.930 . S
C676 C671 1.390 . S
C676 C675 1.387 . S
H677 C689 0.930 . S
H678 C691 0.930 . S
H679 C692 0.930 . S
H680 C696 0.959 . S
H681 C696 0.959 . S
H682 C696 0.961 . S
H683 C697 0.960 . S
H684 C697 0.961 . S
H685 C697 0.959 . S
H686 C700 0.929 . S
H687 C701 0.931 . S
H688 C703 0.930 . S
C689 H677 0.930 . S
C689 C690 1.399 . S
C689 C694 1.399 . S
C690 C689 1.399 . S
C690 C691 1.376 . S
C691 H678 0.930 . S
C691 C690 1.376 . S
C691 C692 1.388 . S
C692 H679 0.930 . S
C692 C691 1.388 . S
C692 C693 1.390 . S
C693 C692 1.390 . S
C693 C694 1.394 . S
C693 C699 1.465 . S
C694 C689 1.399 . S
C694 C693 1.394 . S
C694 C695 1.516 . S
C695 C694 1.516 . S
C695 C696 1.502 . S
C695 C697 1.561 . S
C695 C698 1.526 1_556 S
C696 H680 0.959 . S
C696 H681 0.959 . S
C696 H682 0.961 . S
C696 C695 1.502 . S
C697 H683 0.960 . S
C697 H684 0.961 . S
C697 H685 0.959 . S
C697 C695 1.561 . S
C698 C695 1.526 1_554 S
C698 C699 1.396 1_554 S
C698 C703 1.390 . S
C699 C693 1.465 . S
C699 C698 1.396 1_556 S
C699 C700 1.399 1_556 S
C700 H686 0.929 . S
C700 C699 1.399 1_554 S
C700 C701 1.385 . S
C701 H687 0.931 . S
C701 C700 1.385 . S
C701 C702 1.389 . S
C702 C701 1.389 . S
C702 C703 1.387 . S
C703 H688 0.930 . S
C703 C698 1.390 . S
C703 C702 1.387 . S
H704 C716 0.930 . S
H705 C718 0.930 . S
H706 C719 0.930 . S
H707 C723 0.959 . S
H708 C723 0.959 . S
H709 C723 0.961 . S
H710 C724 0.960 . S
H711 C724 0.961 . S
H712 C724 0.959 . S
H713 C727 0.929 . S
H714 C728 0.931 . S
H715 C730 0.930 . S
C716 H704 0.930 . S
C716 C717 1.399 . S
C716 C721 1.399 . S
C717 C716 1.399 . S
C717 C718 1.376 . S
C718 H705 0.930 . S
C718 C717 1.376 . S
C718 C719 1.388 . S
C719 H706 0.930 . S
C719 C718 1.388 . S
C719 C720 1.390 . S
C720 C719 1.390 . S
C720 C721 1.394 . S
C720 C726 1.465 . S
C721 C716 1.399 . S
C721 C720 1.394 . S
C721 C722 1.516 . S
C722 C721 1.516 . S
C722 C723 1.502 . S
C722 C724 1.561 . S
C722 C725 1.526 . S
C723 H707 0.959 . S
C723 H708 0.959 . S
C723 H709 0.961 . S
C723 C722 1.502 . S
C724 H710 0.960 . S
C724 H711 0.961 . S
C724 H712 0.959 . S
C724 C722 1.561 . S
C725 C722 1.526 . S
C725 C726 1.396 . S
C725 C730 1.390 . S
C726 C720 1.465 . S
C726 C725 1.396 . S
C726 C727 1.399 . S
C727 H713 0.929 . S
C727 C726 1.399 . S
C727 C728 1.385 . S
C728 H714 0.931 . S
C728 C727 1.385 . S
C728 C729 1.389 . S
C729 C728 1.389 . S
C729 C730 1.387 . S
C730 H715 0.930 . S
C730 C725 1.390 . S
C730 C729 1.387 . S
H731 C743 0.930 . S
H732 C745 0.930 . S
H733 C746 0.930 . S
H734 C750 0.959 . S
H735 C750 0.959 . S
H736 C750 0.961 . S
H737 C751 0.960 . S
H738 C751 0.961 . S
H739 C751 0.959 . S
H740 C754 0.929 . S
H741 C755 0.931 . S
H742 C757 0.930 . S
C743 H731 0.930 . S
C743 C744 1.399 . S
C743 C748 1.399 . S
C744 C743 1.399 . S
C744 C745 1.376 . S
C745 H732 0.930 . S
C745 C744 1.376 . S
C745 C746 1.388 . S
C746 H733 0.930 . S
C746 C745 1.388 . S
C746 C747 1.390 . S
C747 C746 1.390 . S
C747 C748 1.394 . S
C747 C753 1.465 . S
C748 C743 1.399 . S
C748 C747 1.394 . S
C748 C749 1.516 . S
C749 C748 1.516 . S
C749 C750 1.502 . S
C749 C751 1.561 . S
C749 C752 1.526 . S
C750 H734 0.959 . S
C750 H735 0.959 . S
C750 H736 0.961 . S
C750 C749 1.502 . S
C751 H737 0.960 . S
C751 H738 0.961 . S
C751 H739 0.959 . S
C751 C749 1.561 . S
C752 C749 1.526 . S
C752 C753 1.396 . S
C752 C757 1.390 . S
C753 C747 1.465 . S
C753 C752 1.396 . S
C753 C754 1.399 . S
C754 H740 0.929 . S
C754 C753 1.399 . S
C754 C755 1.385 . S
C755 H741 0.931 . S
C755 C754 1.385 . S
C755 C756 1.389 . S
C756 C755 1.389 . S
C756 C757 1.387 . S
C757 H742 0.930 . S
C757 C752 1.390 . S
C757 C756 1.387 . S
H758 C770 0.930 . S
H759 C772 0.930 . S
H760 C773 0.930 . S
H761 C777 0.959 . S
H762 C777 0.959 . S
H763 C777 0.961 . S
H764 C778 0.960 . S
H765 C778 0.961 . S
H766 C778 0.959 . S
H767 C781 0.929 . S
H768 C782 0.931 . S
H769 C784 0.930 . S
C770 H758 0.930 . S
C770 C771 1.399 . S
C770 C775 1.399 . S
C771 C770 1.399 . S
C771 C772 1.376 . S
C772 H759 0.930 . S
C772 C771 1.376 . S
C772 C773 1.388 . S
C773 H760 0.930 . S
C773 C772 1.388 . S
C773 C774 1.390 . S
C774 C773 1.390 . S
C774 C775 1.394 . S
C774 C780 1.465 . S
C775 C770 1.399 . S
C775 C774 1.394 . S
C775 C776 1.516 . S
C776 C775 1.516 . S
C776 C777 1.502 . S
C776 C778 1.561 . S
C776 C779 1.526 . S
C777 H761 0.959 . S
C777 H762 0.959 . S
C777 H763 0.961 . S
C777 C776 1.502 . S
C778 H764 0.960 . S
C778 H765 0.961 . S
C778 H766 0.959 . S
C778 C776 1.561 . S
C779 C776 1.526 . S
C779 C780 1.396 . S
C779 C784 1.390 . S
C780 C774 1.465 . S
C780 C779 1.396 . S
C780 C781 1.399 . S
C781 H767 0.929 . S
C781 C780 1.399 . S
C781 C782 1.385 . S
C782 H768 0.931 . S
C782 C781 1.385 . S
C782 C783 1.389 . S
C783 C782 1.389 . S
C783 C784 1.387 . S
C784 H769 0.930 . S
C784 C779 1.390 . S
C784 C783 1.387 . S
H785 C797 0.930 . S
H786 C799 0.930 . S
H787 C800 0.930 . S
H788 C804 0.959 . S
H789 C804 0.959 . S
H790 C804 0.961 . S
H791 C805 0.960 . S
H792 C805 0.961 . S
H793 C805 0.959 . S
H794 C808 0.929 . S
H795 C809 0.931 . S
H796 C811 0.930 . S
C797 H785 0.930 . S
C797 C798 1.399 . S
C797 C802 1.399 . S
C798 C797 1.399 . S
C798 C799 1.376 . S
C799 H786 0.930 . S
C799 C798 1.376 . S
C799 C800 1.388 . S
C800 H787 0.930 . S
C800 C799 1.388 . S
C800 C801 1.390 . S
C801 C800 1.390 . S
C801 C802 1.394 . S
C801 C807 1.465 . S
C802 C797 1.399 . S
C802 C801 1.394 . S
C802 C803 1.516 . S
C803 C802 1.516 . S
C803 C804 1.502 . S
C803 C805 1.561 . S
C803 C806 1.526 . S
C804 H788 0.959 . S
C804 H789 0.959 . S
C804 H790 0.961 . S
C804 C803 1.502 . S
C805 H791 0.960 . S
C805 H792 0.961 . S
C805 H793 0.959 . S
C805 C803 1.561 . S
C806 C803 1.526 . S
C806 C807 1.396 . S
C806 C811 1.390 . S
C807 C801 1.465 . S
C807 C806 1.396 . S
C807 C808 1.399 . S
C808 H794 0.929 . S
C808 C807 1.399 . S
C808 C809 1.385 . S
C809 H795 0.931 . S
C809 C808 1.385 . S
C809 C810 1.389 . S
C810 C809 1.389 . S
C810 C811 1.387 . S
C811 H796 0.930 . S
C811 C806 1.390 . S
C811 C810 1.387 . S
H812 C824 0.930 . S
H813 C826 0.930 . S
H814 C827 0.930 . S
H815 C831 0.959 1_655 S
H816 C831 0.959 1_655 S
H817 C831 0.961 . S
H818 C832 0.978 . S
H819 C832 0.945 1_655 S
H820 C832 0.957 1_655 S
H821 C835 0.929 . S
H822 C836 0.931 . S
H823 C838 0.930 . S
C824 H812 0.930 . S
C824 C825 1.399 . S
C824 C829 1.399 . S
C825 C824 1.399 . S
C825 C826 1.376 . S
C826 H813 0.930 . S
C826 C825 1.376 . S
C826 C827 1.388 . S
C827 H814 0.930 . S
C827 C826 1.388 . S
C827 C828 1.390 . S
C828 C827 1.390 . S
C828 C829 1.394 . S
C828 C834 1.465 1_455 S
C829 C824 1.399 . S
C829 C828 1.394 . S
C829 C830 1.542 . S
C830 C829 1.542 . S
C830 C831 1.502 . S
C830 C832 1.561 . S
C830 C833 1.500 1_455 S
C831 H815 0.959 1_455 S
C831 H816 0.959 1_455 S
C831 H817 0.961 . S
C831 C830 1.502 . S
C832 H818 0.978 . S
C832 H819 0.945 1_455 S
C832 H820 0.957 1_455 S
C832 C830 1.561 . S
C833 C830 1.500 1_655 S
C833 C834 1.396 . S
C833 C838 1.390 . S
C834 C828 1.465 1_655 S
C834 C833 1.396 . S
C834 C835 1.399 . S
C835 H821 0.929 . S
C835 C834 1.399 . S
C835 C836 1.385 . S
C836 H822 0.931 . S
C836 C835 1.385 . S
C836 C837 1.389 . S
C837 C836 1.389 . S
C837 C838 1.387 . S
C838 H823 0.930 . S
C838 C833 1.390 . S
C838 C837 1.387 . S
H839 C851 0.930 . S
H840 C853 0.930 . S
H841 C854 0.930 . S
H842 C858 0.956 1_455 S
H843 C858 0.933 1_455 S
H844 C858 0.990 . S
H845 C859 0.958 . S
H846 C859 0.963 1_455 S
H847 C859 0.959 1_455 S
H848 C862 0.929 . S
H849 C863 0.931 . S
H850 C865 0.930 . S
C851 H839 0.930 . S
C851 C852 1.399 . S
C851 C856 1.399 . S
C852 C851 1.399 . S
C852 C853 1.376 . S
C853 H840 0.930 . S
C853 C852 1.376 . S
C853 C854 1.388 . S
C854 H841 0.930 . S
C854 C853 1.388 . S
C854 C855 1.390 . S
C855 C854 1.390 . S
C855 C856 1.394 . S
C855 C861 1.465 1_655 S
C856 C851 1.399 . S
C856 C855 1.394 . S
C856 C857 1.530 . S
C857 C856 1.530 . S
C857 C858 1.502 . S
C857 C859 1.561 . S
C857 C860 1.512 1_655 S
C858 H842 0.956 1_655 S
C858 H843 0.933 1_655 S
C858 H844 0.990 . S
C858 C857 1.502 . S
C859 H845 0.958 . S
C859 H846 0.963 1_655 S
C859 H847 0.959 1_655 S
C859 C857 1.561 . S
C860 C857 1.512 1_455 S
C860 C861 1.396 . S
C860 C865 1.390 . S
C861 C855 1.465 1_455 S
C861 C860 1.396 . S
C861 C862 1.399 . S
C862 H848 0.929 . S
C862 C861 1.399 . S
C862 C863 1.385 . S
C863 H849 0.931 . S
C863 C862 1.385 . S
C863 C864 1.389 . S
C864 C863 1.389 . S
C864 C865 1.387 . S
C865 H850 0.930 . S
C865 C860 1.390 . S
C865 C864 1.387 . S
H866 C878 0.930 . S
H867 C880 0.930 . S
H868 C881 0.930 . S
H869 C885 0.959 . S
H870 C885 0.959 . S
H871 C885 0.961 . S
H872 C886 0.960 . S
H873 C886 0.961 . S
H874 C886 0.959 . S
H875 C889 0.929 . S
H876 C890 0.931 . S
H877 C892 0.930 . S
C878 H866 0.930 . S
C878 C879 1.399 1_556 S
C878 C883 1.399 . S
C879 C878 1.399 1_554 S
C879 C880 1.376 . S
C880 H867 0.930 . S
C880 C879 1.376 . S
C880 C881 1.388 . S
C881 H868 0.930 . S
C881 C880 1.388 . S
C881 C882 1.390 . S
C882 C881 1.390 . S
C882 C883 1.394 1_554 S
C882 C888 1.465 . S
C883 C878 1.399 . S
C883 C882 1.394 1_556 S
C883 C884 1.516 . S
C884 C883 1.516 . S
C884 C885 1.502 . S
C884 C886 1.561 . S
C884 C887 1.526 . S
C885 H869 0.959 . S
C885 H870 0.959 . S
C885 H871 0.961 . S
C885 C884 1.502 . S
C886 H872 0.960 . S
C886 H873 0.961 . S
C886 H874 0.959 . S
C886 C884 1.561 . S
C887 C884 1.526 . S
C887 C888 1.396 1_556 S
C887 C892 1.390 . S
C888 C882 1.465 . S
C888 C887 1.396 1_554 S
C888 C889 1.399 . S
C889 H875 0.929 . S
C889 C888 1.399 . S
C889 C890 1.385 . S
C890 H876 0.931 . S
C890 C889 1.385 . S
C890 C891 1.389 . S
C891 C890 1.389 . S
C891 C892 1.387 1_554 S
C892 H877 0.930 . S
C892 C887 1.390 . S
C892 C891 1.387 1_556 S
H893 C905 0.930 . S
H894 C907 0.930 . S
H895 C908 0.930 . S
H896 C912 0.959 . S
H897 C912 0.959 . S
H898 C912 0.961 . S
H899 C913 0.960 . S
H900 C913 0.961 . S
H901 C913 0.959 . S
H902 C916 0.929 . S
H903 C917 0.931 . S
H904 C919 0.930 . S
C905 H893 0.930 . S
C905 C906 1.399 . S
C905 C910 1.399 . S
C906 C905 1.399 . S
C906 C907 1.376 . S
C907 H894 0.930 . S
C907 C906 1.376 . S
C907 C908 1.388 . S
C908 H895 0.930 . S
C908 C907 1.388 . S
C908 C909 1.390 . S
C909 C908 1.390 . S
C909 C910 1.394 . S
C909 C915 1.465 . S
C910 C905 1.399 . S
C910 C909 1.394 . S
C910 C911 1.516 . S
C911 C910 1.516 . S
C911 C912 1.502 1_556 S
C911 C913 1.561 . S
C911 C914 1.526 . S
C912 H896 0.959 . S
C912 H897 0.959 . S
C912 H898 0.961 . S
C912 C911 1.502 1_554 S
C913 H899 0.960 . S
C913 H900 0.961 . S
C913 H901 0.959 . S
C913 C911 1.561 . S
C914 C911 1.526 . S
C914 C915 1.396 . S
C914 C919 1.390 . S
C915 C909 1.465 . S
C915 C914 1.396 . S
C915 C916 1.399 . S
C916 H902 0.929 . S
C916 C915 1.399 . S
C916 C917 1.385 . S
C917 H903 0.931 . S
C917 C916 1.385 . S
C917 C918 1.389 . S
C918 C917 1.389 . S
C918 C919 1.387 . S
C919 H904 0.930 . S
C919 C914 1.390 . S
C919 C918 1.387 . S
C285 C0 1.706 . S
C297 C267 1.685 . S
C312 C233 1.713 . S
C324 C63 1.685 . S
C339 C199 1.673 . S
C351 C97 1.705 . S
C366 C136 1.709 . S
C378 C131 1.672 . S
C393 C72 1.673 . S
C405 C4 1.677 . S
C420 C38 1.589 . S
C432 C106 1.569 . S
C447 C115 1.565 . S
C459 C47 1.586 . S
C474 C81 1.477 . S
C486 C13 1.463 . S
C501 C140 1.671 . S
C513 C208 1.667 . S
C528 C174 1.578 . S
C540 C242 1.568 . S
C555 C251 1.569 . S
C567 C183 1.587 . S
C582 C217 1.469 . S
C594 C149 1.479 . S
C609 C17 1.179 . S
C621 C8 1.179 . S
C636 C42 1.184 . S
C648 C51 1.171 . S
C663 C85 1.180 . S
C675 C76 1.174 . S
C690 C110 1.171 . S
C702 C119 1.184 . S
C717 C144 1.184 . S
C729 C153 1.171 . S
C744 C178 1.171 . S
C756 C187 1.185 . S
C771 C212 1.184 . S
C783 C221 1.174 . S
C798 C246 1.171 . S
C810 C255 1.184 . S
C825 C29 1.591 . S
C837 C34 1.585 . S
C852 C102 1.595 . S
C864 C68 1.602 . S
C879 C165 1.585 . S
C891 C170 1.583 . S
C906 C238 1.584 . S
C918 C204 1.591 . S
